# Generated by pormake.
# Topology qtz-x, (6)-cn, num edge types: 1
# Building blocks:
#     Node 0, Type 0, BuildingBlock: GEDQOX_clean_sbu_0, # of connection points: 6
#     Node 1, Type 0, BuildingBlock: GEDQOX_clean_sbu_0, # of connection points: 6
#     Node 2, Type 0, BuildingBlock: GEDQOX_clean_sbu_0, # of connection points: 6
#     Edge 3, Type (0, 0), BuildingBlock: ZUJKAS_clean_linker_0, # of connection points: 2
#     Edge 4, Type (0, 0), BuildingBlock: ZUJKAS_clean_linker_0, # of connection points: 2
#     Edge 5, Type (0, 0), BuildingBlock: ZUJKAS_clean_linker_0, # of connection points: 2
#     Edge 6, Type (0, 0), BuildingBlock: ZUJKAS_clean_linker_0, # of connection points: 2
#     Edge 7, Type (0, 0), BuildingBlock: ZUJKAS_clean_linker_0, # of connection points: 2
#     Edge 8, Type (0, 0), BuildingBlock: ZUJKAS_clean_linker_0, # of connection points: 2
#     Edge 9, Type (0, 0), BuildingBlock: ZUJKAS_clean_linker_0, # of connection points: 2
#     Edge 10, Type (0, 0), BuildingBlock: ZUJKAS_clean_linker_0, # of connection points: 2
#     Edge 11, Type (0, 0), BuildingBlock: ZUJKAS_clean_linker_0, # of connection points: 2
# Relax obj value: 0.165
# Max RMSD: 0.238
# Mean RMSD: 0.216
data_MOF--net-qtz-x--node1-GEDQOX_clean_sbu_0--edge1-ZUJKAS_clean_linker_0
_symmetry_space_group_name_H-M    P1
_symmetry_Int_Tables_number       1
_symmetry_cell_setting            triclinic
loop_
_symmetry_equiv_pos_as_xyz
'x, y, z'
_cell_length_a     19.117336
_cell_length_b     19.065923
_cell_length_c     65.568574
_cell_angle_alpha  74.417805
_cell_angle_beta   109.26171
_cell_angle_gamma 120.60271
loop_
_atom_site_label
_atom_site_type_symbol
_atom_site_fract_x
_atom_site_fract_y
_atom_site_fract_z
_atom_type_partial_charge
Nd0 Nd 0.13833 0.70799 0.1808 0.0
Nd1 Nd 0.97361 0.58554 0.19096 0.0
C2 C 0.26346 0.8268 0.1637 0.0
C3 C 0.28691 0.83924 0.14327 0.0
C4 C 0.2255 0.80504 0.12485 0.0
C5 C 0.24802 0.81153 0.10597 0.0
C6 C 0.33258 0.85162 0.10519 0.0
C7 C 0.39405 0.88649 0.12362 0.0
C8 C 0.37131 0.88042 0.14249 0.0
C9 C 0.10793 0.54739 0.18627 0.0
C10 C 0.97127 0.64139 0.14051 0.0
C11 C 0.85233 0.46015 0.20826 0.0
C12 C 0.83649 0.42697 0.23037 0.0
C13 C 0.89165 0.40377 0.24732 0.0
C14 C 0.8759 0.37339 0.26815 0.0
C15 C 0.80512 0.36616 0.27254 0.0
C16 C 0.75017 0.38952 0.25558 0.0
C17 C 0.76553 0.41924 0.23471 0.0
C18 C 1.00144 0.7453 0.18456 0.0
C19 C 0.14006 0.66203 0.23088 0.0
O20 O 0.19492 0.83023 0.16181 0.0
O21 O 0.26943 0.76595 0.17783 0.0
O22 O 0.17955 0.60678 0.19376 0.0
O23 O 0.05588 0.57369 0.17583 0.0
O24 O 0.04512 0.70201 0.1476 0.0
O25 O 0.93219 0.57875 0.15415 0.0
O26 O 0.91127 0.45419 0.20403 0.0
O27 O 0.85214 0.53057 0.20001 0.0
O28 O 0.92987 0.68466 0.17742 0.0
O29 O 0.05464 0.72053 0.19533 0.0
O30 O 0.06866 0.59712 0.22452 0.0
O31 O 0.17489 0.72378 0.21655 0.0
H32 H 0.1601 0.77172 0.12516 0.0
H33 H 0.19923 0.78285 0.09221 0.0
H34 H 0.45969 0.91821 0.12345 0.0
H35 H 0.41964 0.90663 0.15661 0.0
H36 H 0.94729 0.4095 0.24458 0.0
H37 H 0.91994 0.35684 0.28092 0.0
H38 H 0.69472 0.38398 0.25838 0.0
H39 H 0.722 0.43652 0.22193 0.0
Nd40 Nd 0.68473 0.94418 0.5363 0.0
Nd41 Nd 0.74797 0.11838 0.54107 0.0
C42 C 0.64755 0.80776 0.52291 0.0
C43 C 0.6157 0.78222 0.50087 0.0
C44 C 0.66342 0.82418 0.48508 0.0
C45 C 0.62835 0.80705 0.46353 0.0
C46 C 0.5447 0.7478 0.45722 0.0
C47 C 0.49824 0.70353 0.47324 0.0
C48 C 0.53348 0.72037 0.49482 0.0
C49 C 0.56426 0.97781 0.53882 0.0
C50 C 0.69917 0.08266 0.49242 0.0
C51 C 0.78219 0.25718 0.55268 0.0
C52 C 0.80041 0.28849 0.57317 0.0
C53 C 0.73608 0.26767 0.58304 0.0
C54 C 0.75445 0.29739 0.60245 0.0
C55 C 0.83744 0.34832 0.61242 0.0
C56 C 0.90161 0.36942 0.6025 0.0
C57 C 0.88324 0.3402 0.58303 0.0
C58 C 0.86776 0.08474 0.53813 0.0
C59 C 0.73473 0.98039 0.58487 0.0
O60 O 0.72396 0.86705 0.5275 0.0
O61 O 0.59571 0.8155 0.52998 0.0
O62 O 0.57116 0.91197 0.5485 0.0
O63 O 0.6186 0.02282 0.52773 0.0
O64 O 0.69765 0.01136 0.50164 0.0
O65 O 0.70677 0.13381 0.50404 0.0
O66 O 0.70607 0.201 0.54568 0.0
O67 O 0.8389 0.2431 0.55023 0.0
O68 O 0.86029 0.15029 0.52839 0.0
O69 O 0.81424 0.03987 0.54948 0.0
O70 O 0.73269 0.0502 0.57551 0.0
O71 O 0.72981 0.93047 0.57331 0.0
H72 H 0.72712 0.87211 0.48916 0.0
H73 H 0.66652 0.84124 0.45173 0.0
H74 H 0.43344 0.65805 0.46899 0.0
H75 H 0.49527 0.68714 0.50664 0.0
H76 H 0.67151 0.22824 0.57584 0.0
H77 H 0.70377 0.27969 0.60981 0.0
H78 H 0.96601 0.40956 0.60963 0.0
H79 H 0.93403 0.35809 0.57569 0.0
Nd80 Nd 0.85425 0.74071 0.86544 0.0
Nd81 Nd 0.72171 0.79194 0.8578 0.0
C82 C 0.98114 0.72592 0.86298 0.0
C83 C 0.99996 0.71234 0.84468 0.0
C84 C 1.00398 0.76604 0.82513 0.0
C85 C 1.00707 0.74534 0.80668 0.0
C86 C 1.00636 0.67067 0.80739 0.0
C87 C 1.00756 0.6194 0.8273 0.0
C88 C 1.00437 0.64009 0.84577 0.0
C89 C 0.6972 0.61229 0.86523 0.0
C90 C 0.76072 0.78623 0.81474 0.0
C91 C 0.59478 0.80765 0.85997 0.0
C92 C 0.56304 0.8037 0.87813 0.0
C93 C 0.55926 0.74357 0.89626 0.0
C94 C 0.53715 0.74546 0.91433 0.0
C95 C 0.51844 0.80755 0.91464 0.0
C96 C 0.5203 0.86646 0.89622 0.0
C97 C 0.54249 0.86453 0.87815 0.0
C98 C 0.87894 0.9198 0.85769 0.0
C99 C 0.81337 0.74375 0.90814 0.0
O100 O 0.98405 0.79703 0.86175 0.0
O101 O 0.9166 0.66456 0.86987 0.0
O102 O 0.76446 0.61181 0.87856 0.0
O103 O 0.71423 0.67744 0.85205 0.0
O104 O 0.82621 0.77878 0.82819 0.0
O105 O 0.70296 0.78372 0.82212 0.0
O106 O 0.58722 0.73899 0.85677 0.0
O107 O 0.66748 0.87012 0.85831 0.0
O108 O 0.81173 0.91961 0.84413 0.0
O109 O 0.86177 0.85532 0.87113 0.0
O110 O 0.74502 0.74521 0.89468 0.0
O111 O 0.87468 0.75428 0.9007 0.0
H112 H 1.00114 0.82248 0.82374 0.0
H113 H 1.00757 0.78676 0.79167 0.0
H114 H 1.0066 0.56125 0.82835 0.0
H115 H 1.00136 0.59773 0.86065 0.0
H116 H 0.5749 0.69594 0.89667 0.0
H117 H 0.53516 0.69848 0.92811 0.0
H118 H 0.5072 0.91565 0.89601 0.0
H119 H 0.54569 0.91186 0.86439 0.0
H120 H 0.88834 0.80368 0.16489 0.0
H121 H 0.90669 0.94076 0.16459 0.0
H122 H 0.15977 0.01226 0.20244 0.0
H123 H 0.1421 0.87548 0.20255 0.0
H124 H 0.94541 0.01762 0.20027 0.0
H125 H 0.18769 0.19886 0.15222 0.0
H126 H 0.12635 0.08868 0.15333 0.0
H127 H 0.21357 0.13354 0.17543 0.0
C128 C 0.9481 0.84884 0.173 0.0
C129 C 1.01384 0.82902 0.18372 0.0
C130 C 0.95843 0.92704 0.17285 0.0
C131 C 0.03485 -0.01295 0.18328 0.0
C132 C 0.10076 0.96744 0.19393 0.0
H133 H 0.21892 0.48639 0.20554 0.0
H134 H 0.19835 0.34902 0.20517 0.0
C135 C 0.09047 0.88919 0.19409 0.0
C136 C 0.04446 0.06911 0.18362 0.0
H137 H 0.1587 0.2743 0.16894 0.0
C138 C 0.99173 0.07377 0.19332 0.0
C139 C 0.10497 0.14224 0.17456 0.0
C140 C 0.16094 0.1409 0.16311 0.0
C141 C 0.99901 0.1497 0.1946 0.0
C142 C 0.05975 0.22285 0.18562 0.0
C143 C 0.11228 0.21815 0.17586 0.0
C144 C 0.0705 0.30505 0.18632 0.0
C145 C 0.94302 0.15108 0.20604 0.0
C146 C 1.00548 0.32605 0.1758 0.0
C147 C 1.01705 0.40453 0.17603 0.0
C148 C 0.09407 0.46345 0.18665 0.0
C149 C 0.15889 0.44221 0.19723 0.0
C150 C 0.14729 0.36383 0.197 0.0
H151 H 0.91528 0.09271 0.2167 0.0
H152 H 0.97795 0.20264 0.21606 0.0
H153 H 0.89111 0.1597 0.1937 0.0
H154 H 0.94621 0.28218 0.16712 0.0
H155 H 0.96613 0.41938 0.16766 0.0
H156 H 0.5285 0.10456 0.51659 0.0
H157 H 0.41122 0.12436 0.51679 0.0
H158 H 0.32634 0.90217 0.56134 0.0
H159 H 0.44316 0.88266 0.56138 0.0
H160 H 0.23853 0.01837 0.50475 0.0
H161 H 0.3321 0.06782 0.5913 0.0
H162 H 0.4033 0.07414 0.57757 0.0
H163 H 0.32771 0.97575 0.58749 0.0
C164 C 0.48504 0.06034 0.52652 0.0
C165 C 0.49512 -0.00785 0.539 0.0
C166 C 0.41804 0.0716 0.5266 0.0
C167 C 0.36051 0.01537 0.53933 0.0
C168 C 0.37068 0.9473 0.55174 0.0
H169 H 0.90479 0.95888 0.56045 0.0
H170 H 1.02254 0.93995 0.5602 0.0
C171 C 0.43732 0.93597 0.55164 0.0
C172 C 0.28819 0.02592 0.53915 0.0
H173 H 0.19462 0.04617 0.57206 0.0
C174 C 0.22924 0.02505 0.51944 0.0
C175 C 0.27567 0.03405 0.55834 0.0
C176 C 0.33838 0.03879 0.57985 0.0
C177 C 0.15749 0.03053 0.51847 0.0
C178 C 0.14491 0.03859 0.53766 0.0
C179 C 0.20392 0.03954 0.55737 0.0
C180 C 0.07235 0.04869 0.53751 0.0
C181 C 0.09476 0.02571 0.49696 0.0
C182 C 0.06148 0.11633 0.52502 0.0
C183 C 0.99454 0.12715 0.52514 0.0
C184 C 0.93715 0.07091 0.53789 0.0
C185 C 0.94793 0.00316 0.55045 0.0
C186 C 1.01521 -0.00761 0.55033 0.0
H187 H 0.10106 -0.00335 0.48552 0.0
H188 H 0.02984 -0.00964 0.49923 0.0
H189 H 0.10541 0.08873 0.4893 0.0
H190 H 0.10551 0.16153 0.51535 0.0
H191 H 0.98816 0.18014 0.51534 0.0
H192 H 0.02572 0.93507 0.8865 0.0
H193 H 0.16481 0.05394 0.8879 0.0
H194 H 0.06149 0.18113 0.83182 0.0
H195 H 0.92262 0.06322 0.83047 0.0
H196 H 0.25867 0.12932 0.85599 0.0
H197 H 0.18654 0.34727 0.8759 0.0
H198 H 0.11976 0.2377 0.87845 0.0
H199 H 0.11631 0.2981 0.85218 0.0
C200 C 0.03278 -0.01147 0.87452 0.0
C201 C 0.96333 -0.00975 0.85848 0.0
C202 C 0.11216 0.05629 0.87533 0.0
C203 C 0.12324 0.12698 0.86021 0.0
C204 C 0.0541 0.12805 0.84395 0.0
H205 H 0.55053 0.59773 0.83649 0.0
H206 H 0.41121 0.47926 0.83508 0.0
C207 C 0.97488 0.06044 0.84313 0.0
C208 C 0.2073 0.19905 0.86112 0.0
H209 H 0.31702 0.40356 0.86684 0.0
C210 C 0.27161 0.18919 0.85849 0.0
C211 C 0.22393 0.27721 0.86428 0.0
C212 C 0.15828 0.29086 0.86806 0.0
C213 C 0.35173 0.25567 0.85854 0.0
C214 C 0.36839 0.33381 0.86172 0.0
C215 C 0.30407 0.34369 0.86435 0.0
C216 C 0.45253 0.40578 0.86269 0.0
C217 C 0.4173 0.24204 0.8547 0.0
C218 C 0.5216 0.40437 0.87891 0.0
C219 C 0.60097 0.47174 0.87973 0.0
C220 C 0.61271 0.54206 0.86443 0.0
C221 C 0.54331 0.54417 0.84844 0.0
C222 C 0.4638 0.47663 0.84763 0.0
H223 H 0.38895 0.18579 0.84679 0.0
H224 H 0.45593 0.29531 0.84437 0.0
H225 H 0.45918 0.23451 0.87057 0.0
H226 H 0.51408 0.35117 0.89101 0.0
H227 H 0.65318 0.46869 0.89236 0.0
H228 H 0.39969 0.84431 0.91656 0.0
H229 H 0.37197 0.85622 0.94903 0.0
H230 H 0.56433 0.7909 0.98971 0.0
H231 H 0.59445 0.78158 0.95736 0.0
H232 H 0.32285 0.73647 0.9841 0.0
H233 H 0.62803 0.00246 1.01146 0.0
H234 H 0.5934 0.97297 0.98451 0.0
H235 H 0.63579 0.91755 1.0073 0.0
C236 C 0.43675 0.83338 0.9324 0.0
C237 C 0.49954 0.81235 0.93434 0.0
C238 C 0.42049 0.83974 0.95093 0.0
C239 C 0.46697 0.8257 0.97174 0.0
C240 C 0.5288 0.80351 0.97378 0.0
H241 H 0.4571 0.82373 0.10327 0.0
H242 H 0.48947 0.8185 0.07073 0.0
C243 C 0.54516 0.79717 0.95527 0.0
C244 C 0.44942 0.83256 0.99132 0.0
H245 H 0.53731 0.93627 0.03566 0.0
C246 C 0.36953 0.7804 0.99533 0.0
C247 C 0.51063 0.88978 1.00596 0.0
C248 C 0.59658 0.94944 1.00206 0.0
C249 C 0.34953 0.78286 1.01381 0.0
C250 C 0.41065 0.84025 0.02842 0.0
C251 C 0.49059 0.89239 1.02442 0.0
C252 C 0.39294 0.84679 0.04803 0.0
C253 C 0.26375 0.7226 1.01777 0.0
C254 C 0.32933 0.86647 0.04603 0.0
C255 C 0.31075 0.86954 0.06457 0.0
C256 C 0.35605 0.85386 0.08548 0.0
C257 C 0.42156 0.83681 0.0874 0.0
C258 C 0.43985 0.83339 0.06884 0.0
H259 H 0.23298 0.66926 1.00852 0.0
H260 H 0.26702 0.69953 0.03534 0.0
H261 H 0.22381 0.75375 1.01235 0.0
H262 H 0.29381 0.87916 0.03011 0.0
H263 H 0.26085 0.88419 0.06256 0.0
H264 H 0.69531 0.22129 0.46686 0.0
H265 H 0.70264 0.26494 0.42862 0.0
H266 H 0.71117 0.04507 0.42671 0.0
H267 H 0.70169 0.00013 0.46461 0.0
H268 H 0.82689 0.29982 0.41126 0.0
H269 H 0.53857 0.04564 0.37179 0.0
H270 H 0.558 0.05995 0.39961 0.0
H271 H 0.60496 0.01007 0.39303 0.0
C272 C 0.69749 0.18163 0.45822 0.0
C273 C 0.69762 0.10704 0.46884 0.0
C274 C 0.70182 0.20674 0.43635 0.0
C275 C 0.70625 0.15783 0.42463 0.0
C276 C 0.70563 0.08299 0.43516 0.0
H277 H 0.81671 0.23368 0.29977 0.0
H278 H 0.79186 0.18373 0.33658 0.0
C279 C 0.70075 0.0576 0.45695 0.0
C280 C 0.71712 0.18761 0.4019 0.0
H281 H 0.6379 0.13552 0.35011 0.0
C282 C 0.785 0.26418 0.39787 0.0
C283 C 0.66281 0.14091 0.3844 0.0
C284 C 0.58656 0.05997 0.38735 0.0
C285 C 0.80087 0.29463 0.37698 0.0
C286 C 0.74706 0.2477 0.35958 0.0
C287 C 0.67913 0.17124 0.36352 0.0
C288 C 0.76056 0.27724 0.33717 0.0
C289 C 0.87619 0.37604 0.37373 0.0
C290 C 0.75034 0.34583 0.32526 0.0
C291 C 0.76427 0.37436 0.30424 0.0
C292 C 0.78904 0.335 0.29476 0.0
C293 C 0.79865 0.2659 0.30672 0.0
C294 C 0.78401 0.237 0.32767 0.0
H295 H 0.92039 0.39667 0.38943 0.0
H296 H 0.90991 0.37217 0.36348 0.0
H297 H 0.85537 0.4233 0.36518 0.0
H298 H 0.73162 0.37734 0.33224 0.0
H299 H 0.75693 0.42805 0.29553 0.0
H300 H 0.86399 0.78712 0.79401 0.0
H301 H 0.85801 0.81518 0.7551 0.0
H302 H 0.63671 0.84303 0.74224 0.0
H303 H 0.64199 0.81457 0.78135 0.0
H304 H 0.62944 0.74691 0.71366 0.0
H305 H 0.91777 0.04619 0.72004 0.0
H306 H 0.9291 0.96094 0.73791 0.0
H307 H 0.86211 -0.00533 0.7415 0.0
C308 C 0.81397 0.79919 0.78299 0.0
C309 C 0.75399 0.79938 0.79091 0.0
C310 C 0.8108 0.81544 0.7607 0.0
C311 C 0.74773 0.83252 0.7458 0.0
C312 C 0.68623 0.83044 0.7535 0.0
H313 H 0.74185 0.06762 0.6131 0.0
H314 H 0.74375 0.02847 0.6518 0.0
C315 C 0.6894 0.81424 0.77586 0.0
C316 C 0.74686 0.85371 0.72222 0.0
H317 H 0.85893 -0.00333 0.68575 0.0
C318 C 0.6795 0.8015 0.70752 0.0
C319 C 0.81191 0.92539 0.71425 0.0
C320 C 0.88406 -0.01444 0.72917 0.0
C321 C 0.67585 0.81868 0.68504 0.0
C322 C 0.74186 0.88948 0.67712 0.0
C323 C 0.80879 0.942 0.69184 0.0
C324 C 0.74116 0.91228 0.65353 0.0
C325 C 0.60048 0.76189 0.66993 0.0
C326 C 0.74033 0.86052 0.64161 0.0
C327 C 0.7391 0.88269 0.61935 0.0
C328 C 0.73921 0.95735 0.60862 0.0
C329 C 0.74156 0.00958 0.62075 0.0
C330 C 0.74268 -0.01266 0.64293 0.0
H331 H 0.54701 0.72232 0.6778 0.0
H332 H 0.58035 0.79722 0.65487 0.0
H333 H 0.61683 0.72131 0.66521 0.0
H334 H 0.74094 0.80309 0.64954 0.0
H335 H 0.73771 0.84119 0.61056 0.0
H336 H 0.94817 0.74877 0.94119 0.0
H337 H 0.95699 0.72017 0.98035 0.0
H338 H 0.70139 0.67182 0.96826 0.0
H339 H 0.69265 0.70207 0.92915 0.0
H340 H 0.79866 0.76593 1.00021 0.0
H341 H 0.86125 0.50053 1.0165 0.0
H342 H 0.93577 0.58985 1.00343 0.0
H343 H 0.82741 0.543 0.98927 0.0
C344 C 0.8937 0.73183 0.94684 0.0
C345 C 0.81957 0.72745 0.93196 0.0
C346 C 0.89862 0.71477 0.96926 0.0
C347 C 0.82923 0.6919 0.97728 0.0
C348 C 0.75554 0.68858 0.96249 0.0
H349 H 0.84295 0.51626 0.11699 0.0
H350 H 0.79468 0.52236 0.07711 0.0
C351 C 0.75071 0.70606 0.94008 0.0
C352 C 0.83462 0.67461 1.00112 0.0
H353 H 0.88994 0.5624 0.04769 0.0
C354 C 0.81768 0.72072 1.01054 0.0
C355 C 0.8576 0.61435 1.01462 0.0
C356 C 0.87065 0.55849 1.00541 0.0
C357 C 0.82712 0.71112 0.03314 0.0
C358 C 0.85581 0.65502 0.04676 0.0
C359 C 0.86874 0.60599 0.03728 0.0
C360 C 0.87959 0.65139 0.07086 0.0
C361 C 0.80687 0.76173 0.04222 0.0
C362 C 0.94314 0.72165 0.08054 0.0
C363 C 0.97049 0.71836 0.10313 0.0
C364 C 0.93553 0.64446 0.11667 0.0
C365 C 0.87077 0.57418 0.10702 0.0
C366 C 0.84341 0.57753 0.08426 0.0
H367 H 0.76067 0.77965 0.02994 0.0
H368 H 0.78165 0.72782 0.05692 0.0
H369 H 0.86469 0.81891 0.04683 0.0
H370 H 0.97328 0.77885 0.07058 0.0
H371 H 1.02023 0.77387 0.10994 0.0
H372 H 0.0939 0.54295 0.26523 0.0
H373 H 0.16033 0.55317 0.30406 0.0
H374 H 0.34211 0.80199 0.28847 0.0
H375 H 0.27675 0.79263 0.24974 0.0
H376 H 0.34067 0.59959 0.32508 0.0
H377 H 0.23564 0.81094 0.33409 0.0
H378 H 0.18424 0.74827 0.31211 0.0
H379 H 0.28182 0.83962 0.31137 0.0
C380 C 0.14799 0.59987 0.27006 0.0
C381 C 0.17994 0.66705 0.25437 0.0
C382 C 0.18583 0.6055 0.29223 0.0
C383 C 0.25548 0.67858 0.29907 0.0
C384 C 0.28776 0.74542 0.28349 0.0
H385 H 0.56644 0.86406 0.42138 0.0
H386 H 0.49822 0.84371 0.38326 0.0
C387 C 0.25044 0.73975 0.26136 0.0
C388 C 0.29551 0.68519 0.32248 0.0
H389 H 0.33466 0.78621 0.36388 0.0
C390 C 0.33903 0.63986 0.33367 0.0
C391 C 0.29346 0.73822 0.33349 0.0
C392 C 0.24582 0.78673 0.32227 0.0
C393 C 0.38266 0.64784 0.35554 0.0
C394 C 0.38073 0.70102 0.36661 0.0
C395 C 0.33629 0.74562 0.3554 0.0
C396 C 0.42482 0.71204 0.38975 0.0
C397 C 0.43258 0.6013 0.36633 0.0
C398 C 0.40623 0.64484 0.40613 0.0
C399 C 0.44629 0.65604 0.42796 0.0
C400 C 0.50493 0.73494 0.43391 0.0
C401 C 0.52304 0.8022 0.41742 0.0
C402 C 0.48343 0.79081 0.3956 0.0
H403 H 0.44737 0.58314 0.35415 0.0
H404 H 0.49201 0.63845 0.37741 0.0
H405 H 0.39546 0.54438 0.37606 0.0
H406 H 0.35983 0.58376 0.40209 0.0
H407 H 0.43113 0.60281 0.44018 0.0
H408 H 0.08784 0.59642 0.8014 0.0
H409 H 0.0668 0.54521 0.76822 0.0
H410 H 0.88246 0.62972 0.73479 0.0
H411 H 0.90339 0.68127 0.7677 0.0
H412 H 0.92337 0.42834 0.74613 0.0
H413 H 0.02969 0.72313 0.69208 0.0
H414 H 0.0505 0.71833 0.72122 0.0
H415 H 0.95031 0.70635 0.7043 0.0
C416 C 0.04325 0.60449 0.78692 0.0
C417 C 0.99788 0.64357 0.78711 0.0
C418 C 0.03142 0.5754 0.76799 0.0
C419 C 0.97415 0.58496 0.74893 0.0
C420 C 0.92869 0.62375 0.74911 0.0
H421 H 0.75695 0.41382 0.62267 0.0
H422 H 0.79145 0.46884 0.6564 0.0
C423 C 0.94075 0.65318 0.76795 0.0
C424 C 0.95863 0.55079 0.72915 0.0
H425 H 0.95348 0.60091 0.67479 0.0
C426 C 0.9308 0.46617 0.73058 0.0
C427 C 0.96829 0.60031 0.70887 0.0
C428 C 1.00212 0.69219 0.70652 0.0
C429 C 0.91012 0.42937 0.71212 0.0
C430 C 0.9182 0.47867 0.69181 0.0
C431 C 0.94695 0.56334 0.69041 0.0
C432 C 0.89654 0.44344 0.67174 0.0
C433 C 0.87769 0.33776 0.71433 0.0
C434 C 0.94455 0.41138 0.66926 0.0
C435 C 0.92508 0.38002 0.65004 0.0
C436 C 0.85715 0.38012 0.633 0.0
C437 C 0.80901 0.41204 0.63561 0.0
C438 C 0.82888 0.44387 0.65478 0.0
H439 H 0.85989 0.30655 0.7301 0.0
H440 H 0.82255 0.31074 0.70086 0.0
H441 H 0.92705 0.32513 0.71336 0.0
H442 H 0.99755 0.41136 0.68211 0.0
H443 H 0.96289 0.35528 0.64855 0.0
loop_
_geom_bond_atom_site_label_1
_geom_bond_atom_site_label_2
_geom_bond_distance
_geom_bond_site_symmetry_2
_ccdc_geom_bond_type
Nd0 C2 2.836 . S
Nd0 O20 2.500 . S
Nd0 O21 2.492 . S
Nd0 O22 2.487 . S
Nd0 O23 2.682 1_455 S
Nd0 O24 2.410 1_455 S
Nd0 O29 2.414 . S
Nd0 O31 2.424 . S
Nd1 C11 2.836 . S
Nd1 O23 2.414 . S
Nd1 O25 2.424 . S
Nd1 O26 2.500 . S
Nd1 O27 2.492 . S
Nd1 O28 2.487 . S
Nd1 O29 2.682 1_655 S
Nd1 O30 2.410 1_655 S
C2 Nd0 2.836 . S
C2 C3 1.498 . S
C2 O20 1.258 . S
C2 O21 1.239 . S
C3 C2 1.498 . S
C3 C4 1.366 . S
C3 C8 1.407 . S
C4 C3 1.366 . S
C4 C5 1.392 . S
C4 H32 0.930 . S
C5 C4 1.392 . S
C5 C6 1.398 . S
C5 H33 0.929 . S
C6 C5 1.398 . S
C6 C7 1.352 . S
C7 C6 1.352 . S
C7 C8 1.384 . S
C7 H34 0.930 . S
C8 C3 1.407 . S
C8 C7 1.384 . S
C8 H35 0.929 . S
C9 O22 1.241 . S
C9 O23 1.273 1_455 S
C10 O24 1.251 . S
C10 O25 1.268 . S
C11 Nd1 2.836 . S
C11 C12 1.498 . S
C11 O26 1.258 . S
C11 O27 1.239 . S
C12 C11 1.498 . S
C12 C13 1.366 . S
C12 C17 1.407 . S
C13 C12 1.366 . S
C13 C14 1.392 . S
C13 H36 0.930 . S
C14 C13 1.392 . S
C14 C15 1.398 . S
C14 H37 0.929 . S
C15 C14 1.398 . S
C15 C16 1.352 . S
C16 C15 1.352 . S
C16 C17 1.384 . S
C16 H38 0.930 . S
C17 C12 1.407 . S
C17 C16 1.384 . S
C17 H39 0.929 . S
C18 O28 1.241 . S
C18 O29 1.273 1_655 S
C19 O30 1.251 . S
C19 O31 1.268 . S
O20 Nd0 2.500 . S
O20 C2 1.258 . S
O21 Nd0 2.492 . S
O21 C2 1.239 . S
O22 Nd0 2.487 . S
O22 C9 1.241 . S
O23 Nd0 2.682 1_655 S
O23 Nd1 2.414 . S
O23 C9 1.273 1_655 S
O24 Nd0 2.410 1_655 S
O24 C10 1.251 . S
O25 Nd1 2.424 . S
O25 C10 1.268 . S
O26 Nd1 2.500 . S
O26 C11 1.258 . S
O27 Nd1 2.492 . S
O27 C11 1.239 . S
O28 Nd1 2.487 . S
O28 C18 1.241 . S
O29 Nd0 2.414 . S
O29 Nd1 2.682 1_455 S
O29 C18 1.273 1_455 S
O30 Nd1 2.410 1_455 S
O30 C19 1.251 . S
O31 Nd0 2.424 . S
O31 C19 1.268 . S
H32 C4 0.930 . S
H33 C5 0.929 . S
H34 C7 0.930 . S
H35 C8 0.929 . S
H36 C13 0.930 . S
H37 C14 0.929 . S
H38 C16 0.930 . S
H39 C17 0.929 . S
Nd40 C42 2.836 . S
Nd40 O60 2.500 . S
Nd40 O61 2.492 . S
Nd40 O62 2.487 . S
Nd40 O63 2.682 1_565 S
Nd40 O64 2.410 1_565 S
Nd40 O69 2.414 . S
Nd40 O71 2.424 . S
Nd41 C51 2.836 . S
Nd41 O63 2.414 . S
Nd41 O65 2.424 . S
Nd41 O66 2.500 . S
Nd41 O67 2.492 . S
Nd41 O68 2.487 . S
Nd41 O69 2.682 1_545 S
Nd41 O70 2.410 . S
C42 Nd40 2.836 . S
C42 C43 1.498 . S
C42 O60 1.258 . S
C42 O61 1.239 . S
C43 C42 1.498 . S
C43 C44 1.366 . S
C43 C48 1.407 . S
C44 C43 1.366 . S
C44 C45 1.392 . S
C44 H72 0.930 . S
C45 C44 1.392 . S
C45 C46 1.398 . S
C45 H73 0.929 . S
C46 C45 1.398 . S
C46 C47 1.352 . S
C47 C46 1.352 . S
C47 C48 1.384 . S
C47 H74 0.930 . S
C48 C43 1.407 . S
C48 C47 1.384 . S
C48 H75 0.929 . S
C49 O62 1.241 . S
C49 O63 1.273 1_565 S
C50 O64 1.251 . S
C50 O65 1.268 . S
C51 Nd41 2.836 . S
C51 C52 1.498 . S
C51 O66 1.258 . S
C51 O67 1.239 . S
C52 C51 1.498 . S
C52 C53 1.366 . S
C52 C57 1.407 . S
C53 C52 1.366 . S
C53 C54 1.392 . S
C53 H76 0.930 . S
C54 C53 1.392 . S
C54 C55 1.398 . S
C54 H77 0.929 . S
C55 C54 1.398 . S
C55 C56 1.352 . S
C56 C55 1.352 . S
C56 C57 1.384 . S
C56 H78 0.930 . S
C57 C52 1.407 . S
C57 C56 1.384 . S
C57 H79 0.929 . S
C58 O68 1.241 . S
C58 O69 1.273 1_545 S
C59 O70 1.251 1_565 S
C59 O71 1.268 . S
O60 Nd40 2.500 . S
O60 C42 1.258 . S
O61 Nd40 2.492 . S
O61 C42 1.239 . S
O62 Nd40 2.487 . S
O62 C49 1.241 . S
O63 Nd40 2.682 1_545 S
O63 Nd41 2.414 . S
O63 C49 1.273 1_545 S
O64 Nd40 2.410 1_545 S
O64 C50 1.251 . S
O65 Nd41 2.424 . S
O65 C50 1.268 . S
O66 Nd41 2.500 . S
O66 C51 1.258 . S
O67 Nd41 2.492 . S
O67 C51 1.239 . S
O68 Nd41 2.487 . S
O68 C58 1.241 . S
O69 Nd40 2.414 . S
O69 Nd41 2.682 1_565 S
O69 C58 1.273 1_565 S
O70 Nd41 2.410 . S
O70 C59 1.251 1_545 S
O71 Nd40 2.424 . S
O71 C59 1.268 . S
H72 C44 0.930 . S
H73 C45 0.929 . S
H74 C47 0.930 . S
H75 C48 0.929 . S
H76 C53 0.930 . S
H77 C54 0.929 . S
H78 C56 0.930 . S
H79 C57 0.929 . S
Nd80 C82 2.836 . S
Nd80 O100 2.500 . S
Nd80 O101 2.492 . S
Nd80 O102 2.487 . S
Nd80 O103 2.682 . S
Nd80 O104 2.410 . S
Nd80 O109 2.414 . S
Nd80 O111 2.424 . S
Nd81 C91 2.836 . S
Nd81 O103 2.414 . S
Nd81 O105 2.424 . S
Nd81 O106 2.500 . S
Nd81 O107 2.492 . S
Nd81 O108 2.487 1_565 S
Nd81 O109 2.682 . S
Nd81 O110 2.410 . S
C82 Nd80 2.836 . S
C82 C83 1.498 . S
C82 O100 1.258 . S
C82 O101 1.239 . S
C83 C82 1.498 . S
C83 C84 1.366 . S
C83 C88 1.407 . S
C84 C83 1.366 . S
C84 C85 1.392 . S
C84 H112 0.930 . S
C85 C84 1.392 . S
C85 C86 1.398 . S
C85 H113 0.929 . S
C86 C85 1.398 . S
C86 C87 1.352 . S
C87 C86 1.352 . S
C87 C88 1.384 . S
C87 H114 0.930 . S
C88 C83 1.407 . S
C88 C87 1.384 . S
C88 H115 0.929 . S
C89 O102 1.241 . S
C89 O103 1.273 . S
C90 O104 1.251 . S
C90 O105 1.268 . S
C91 Nd81 2.836 . S
C91 C92 1.498 . S
C91 O106 1.258 . S
C91 O107 1.239 . S
C92 C91 1.498 . S
C92 C93 1.366 . S
C92 C97 1.407 1_565 S
C93 C92 1.366 . S
C93 C94 1.392 . S
C93 H116 0.930 . S
C94 C93 1.392 . S
C94 C95 1.398 . S
C94 H117 0.929 . S
C95 C94 1.398 . S
C95 C96 1.352 1_565 S
C96 C95 1.352 1_545 S
C96 C97 1.384 . S
C96 H118 0.930 . S
C97 C92 1.407 1_545 S
C97 C96 1.384 . S
C97 H119 0.929 . S
C98 O108 1.241 1_565 S
C98 O109 1.273 . S
C99 O110 1.251 . S
C99 O111 1.268 . S
O100 Nd80 2.500 . S
O100 C82 1.258 . S
O101 Nd80 2.492 . S
O101 C82 1.239 . S
O102 Nd80 2.487 . S
O102 C89 1.241 . S
O103 Nd80 2.682 . S
O103 Nd81 2.414 . S
O103 C89 1.273 . S
O104 Nd80 2.410 . S
O104 C90 1.251 . S
O105 Nd81 2.424 . S
O105 C90 1.268 . S
O106 Nd81 2.500 . S
O106 C91 1.258 . S
O107 Nd81 2.492 . S
O107 C91 1.239 . S
O108 Nd81 2.487 1_545 S
O108 C98 1.241 1_545 S
O109 Nd80 2.414 . S
O109 Nd81 2.682 . S
O109 C98 1.273 . S
O110 Nd81 2.410 . S
O110 C99 1.251 . S
O111 Nd80 2.424 . S
O111 C99 1.268 . S
H112 C84 0.930 . S
H113 C85 0.929 . S
H114 C87 0.930 . S
H115 C88 0.929 . S
H116 C93 0.930 . S
H117 C94 0.929 . S
H118 C96 0.930 . S
H119 C97 0.929 . S
H120 C128 0.929 . S
H121 C130 0.930 . S
H122 C132 0.930 . S
H123 C135 0.929 . S
H124 C138 0.930 . S
H125 C140 0.960 . S
H126 C140 0.960 . S
H127 C140 0.960 . S
C128 H120 0.929 . S
C128 C129 1.377 1_655 S
C128 C130 1.384 . S
C129 C128 1.377 1_455 S
C129 C135 1.390 . S
C130 H121 0.930 . S
C130 C128 1.384 . S
C130 C131 1.372 . S
C131 C130 1.372 . S
C131 C132 1.400 1_655 S
C131 C136 1.490 1_565 S
C132 H122 0.930 . S
C132 C131 1.400 1_455 S
C132 C135 1.386 . S
H133 C149 0.930 . S
H134 C150 0.931 . S
C135 H123 0.929 . S
C135 C129 1.390 . S
C135 C132 1.386 . S
C136 C131 1.490 1_545 S
C136 C138 1.395 . S
C136 C139 1.403 1_655 S
H137 C143 0.930 . S
C138 H124 0.930 . S
C138 C136 1.395 . S
C138 C141 1.403 . S
C139 C136 1.403 1_455 S
C139 C140 1.524 . S
C139 C143 1.400 . S
C140 H125 0.960 . S
C140 H126 0.960 . S
C140 H127 0.960 . S
C140 C139 1.524 . S
C141 C138 1.403 . S
C141 C142 1.392 . S
C141 C145 1.495 . S
C142 C141 1.392 . S
C142 C143 1.385 1_655 S
C142 C144 1.478 . S
C143 H137 0.930 . S
C143 C139 1.400 . S
C143 C142 1.385 1_455 S
C144 C142 1.478 . S
C144 C146 1.381 . S
C144 C150 1.383 1_655 S
C145 C141 1.495 . S
C145 H151 0.959 . S
C145 H152 0.961 . S
C145 H153 0.960 . S
C146 C144 1.381 . S
C146 C147 1.394 . S
C146 H154 0.930 . S
C147 C146 1.394 . S
C147 C148 1.383 . S
C147 H155 0.929 . S
C148 C147 1.383 . S
C148 C149 1.377 1_655 S
C149 H133 0.930 . S
C149 C148 1.377 1_455 S
C149 C150 1.379 . S
C150 H134 0.931 . S
C150 C144 1.383 1_455 S
C150 C149 1.379 . S
H151 C145 0.959 . S
H152 C145 0.961 . S
H153 C145 0.960 . S
H154 C146 0.930 . S
H155 C147 0.929 . S
H156 C164 0.929 . S
H157 C166 0.930 . S
H158 C168 0.930 . S
H159 C171 0.929 . S
H160 C174 0.930 . S
H161 C176 0.960 . S
H162 C176 0.960 . S
H163 C176 0.960 . S
C164 H156 0.929 . S
C164 C165 1.377 . S
C164 C166 1.384 . S
C165 C164 1.377 . S
C165 C171 1.390 1_545 S
C166 H157 0.930 . S
C166 C164 1.384 . S
C166 C167 1.372 . S
C167 C166 1.372 . S
C167 C168 1.400 1_545 S
C167 C172 1.490 . S
C168 H158 0.930 . S
C168 C167 1.400 1_565 S
C168 C171 1.386 . S
H169 C185 0.930 . S
H170 C186 0.931 1_455 S
C171 H159 0.929 . S
C171 C165 1.390 1_565 S
C171 C168 1.386 . S
C172 C167 1.490 . S
C172 C174 1.395 1_545 S
C172 C175 1.403 . S
H173 C179 0.930 . S
C174 H160 0.930 . S
C174 C172 1.395 1_565 S
C174 C177 1.403 . S
C175 C172 1.403 . S
C175 C176 1.524 . S
C175 C179 1.400 . S
C176 H161 0.960 . S
C176 H162 0.960 . S
C176 H163 0.960 . S
C176 C175 1.524 . S
C177 C174 1.403 . S
C177 C178 1.390 1_565 S
C177 C181 1.495 . S
C178 C177 1.390 1_545 S
C178 C179 1.385 . S
C178 C180 1.479 1_545 S
C179 H173 0.930 . S
C179 C175 1.400 . S
C179 C178 1.385 . S
C180 C178 1.479 1_565 S
C180 C182 1.381 1_465 S
C180 C186 1.383 1_455 S
C181 C177 1.495 . S
C181 H187 0.959 . S
C181 H188 0.961 1_455 S
C181 H189 0.960 . S
C182 C180 1.381 1_645 S
C182 C183 1.394 . S
C182 H190 0.930 1_655 S
C183 C182 1.394 . S
C183 C184 1.383 . S
C183 H191 0.929 . S
C184 C183 1.383 . S
C184 C185 1.377 1_545 S
C185 H169 0.930 . S
C185 C184 1.377 1_565 S
C185 C186 1.379 . S
C186 H170 0.931 1_655 S
C186 C180 1.383 1_655 S
C186 C185 1.379 . S
H187 C181 0.959 . S
H188 C181 0.961 1_655 S
H189 C181 0.960 . S
H190 C182 0.930 1_455 S
H191 C183 0.929 . S
H192 C200 0.929 . S
H193 C202 0.930 . S
H194 C204 0.930 . S
H195 C207 0.929 . S
H196 C210 0.930 . S
H197 C212 0.960 . S
H198 C212 0.960 . S
H199 C212 0.960 . S
C200 H192 0.929 . S
C200 C201 1.377 1_455 S
C200 C202 1.384 . S
C201 C200 1.377 1_655 S
C201 C207 1.390 . S
C202 H193 0.930 . S
C202 C200 1.384 . S
C202 C203 1.372 . S
C203 C202 1.372 . S
C203 C204 1.400 . S
C203 C208 1.490 . S
C204 H194 0.930 . S
C204 C203 1.400 . S
C204 C207 1.386 1_455 S
H205 C221 0.930 . S
H206 C222 0.931 . S
C207 H195 0.929 . S
C207 C201 1.390 . S
C207 C204 1.386 1_655 S
C208 C203 1.490 . S
C208 C210 1.395 . S
C208 C211 1.403 . S
H209 C215 0.930 . S
C210 H196 0.930 . S
C210 C208 1.395 . S
C210 C213 1.403 . S
C211 C208 1.403 . S
C211 C212 1.524 . S
C211 C215 1.400 . S
C212 H197 0.960 . S
C212 H198 0.960 . S
C212 H199 0.960 . S
C212 C211 1.524 . S
C213 C210 1.403 . S
C213 C214 1.392 . S
C213 C217 1.495 . S
C214 C213 1.392 . S
C214 C215 1.385 . S
C214 C216 1.478 . S
C215 H209 0.930 . S
C215 C211 1.400 . S
C215 C214 1.385 . S
C216 C214 1.478 . S
C216 C218 1.381 . S
C216 C222 1.383 . S
C217 C213 1.495 . S
C217 H223 0.959 . S
C217 H224 0.961 . S
C217 H225 0.960 . S
C218 C216 1.381 . S
C218 C219 1.394 . S
C218 H226 0.930 . S
C219 C218 1.394 . S
C219 C220 1.383 . S
C219 H227 0.929 . S
C220 C219 1.383 . S
C220 C221 1.377 . S
C221 H205 0.930 . S
C221 C220 1.377 . S
C221 C222 1.379 . S
C222 H206 0.931 . S
C222 C216 1.383 . S
C222 C221 1.379 . S
H223 C217 0.959 . S
H224 C217 0.961 . S
H225 C217 0.960 . S
H226 C218 0.930 . S
H227 C219 0.929 . S
H228 C236 0.929 . S
H229 C238 0.930 . S
H230 C240 0.930 . S
H231 C243 0.929 . S
H232 C246 0.930 . S
H233 C248 0.960 . S
H234 C248 0.960 1_556 S
H235 C248 0.960 1_556 S
C236 H228 0.929 . S
C236 C237 1.377 1_545 S
C236 C238 1.384 . S
C237 C236 1.377 1_565 S
C237 C243 1.390 . S
C238 H229 0.930 . S
C238 C236 1.384 . S
C238 C239 1.372 1_545 S
C239 C238 1.372 1_565 S
C239 C240 1.400 . S
C239 C244 1.490 . S
C240 H230 0.930 . S
C240 C239 1.400 . S
C240 C243 1.386 . S
H241 C257 0.930 . S
H242 C258 0.931 . S
C243 H231 0.929 . S
C243 C237 1.390 . S
C243 C240 1.386 . S
C244 C239 1.490 . S
C244 C246 1.395 . S
C244 C247 1.403 . S
H245 C251 0.930 . S
C246 H232 0.930 . S
C246 C244 1.395 . S
C246 C249 1.403 . S
C247 C244 1.403 . S
C247 C248 1.524 1_556 S
C247 C251 1.400 1_556 S
C248 H233 0.960 . S
C248 H234 0.960 1_554 S
C248 H235 0.960 1_554 S
C248 C247 1.524 1_554 S
C249 C246 1.403 . S
C249 C250 1.392 . S
C249 C253 1.495 . S
C250 C249 1.392 . S
C250 C251 1.385 1_556 S
C250 C252 1.478 1_556 S
C251 H245 0.930 . S
C251 C247 1.400 1_554 S
C251 C250 1.385 1_554 S
C252 C250 1.478 1_554 S
C252 C254 1.381 . S
C252 C258 1.383 . S
C253 C249 1.495 . S
C253 H259 0.959 . S
C253 H260 0.961 . S
C253 H261 0.960 . S
C254 C252 1.381 . S
C254 C255 1.394 . S
C254 H262 0.930 1_565 S
C255 C254 1.394 . S
C255 C256 1.383 . S
C255 H263 0.929 . S
C256 C255 1.383 . S
C256 C257 1.377 . S
C257 H241 0.930 . S
C257 C256 1.377 . S
C257 C258 1.379 . S
C258 H242 0.931 . S
C258 C252 1.383 . S
C258 C257 1.379 . S
H259 C253 0.959 . S
H260 C253 0.961 . S
H261 C253 0.960 . S
H262 C254 0.930 1_545 S
H263 C255 0.929 . S
H264 C272 0.929 . S
H265 C274 0.930 . S
H266 C276 0.930 . S
H267 C279 0.929 . S
H268 C282 0.930 . S
H269 C284 0.960 . S
H270 C284 0.960 . S
H271 C284 0.960 . S
C272 H264 0.929 . S
C272 C273 1.377 . S
C272 C274 1.384 . S
C273 C272 1.377 . S
C273 C279 1.390 . S
C274 H265 0.930 . S
C274 C272 1.384 . S
C274 C275 1.372 . S
C275 C274 1.372 . S
C275 C276 1.400 . S
C275 C280 1.490 . S
C276 H266 0.930 . S
C276 C275 1.400 . S
C276 C279 1.386 . S
H277 C293 0.930 . S
H278 C294 0.931 . S
C279 H267 0.929 . S
C279 C273 1.390 . S
C279 C276 1.386 . S
C280 C275 1.490 . S
C280 C282 1.395 . S
C280 C283 1.403 . S
H281 C287 0.930 . S
C282 H268 0.930 . S
C282 C280 1.395 . S
C282 C285 1.403 . S
C283 C280 1.403 . S
C283 C284 1.524 . S
C283 C287 1.400 . S
C284 H269 0.960 . S
C284 H270 0.960 . S
C284 H271 0.960 . S
C284 C283 1.524 . S
C285 C282 1.403 . S
C285 C286 1.392 . S
C285 C289 1.495 . S
C286 C285 1.392 . S
C286 C287 1.385 . S
C286 C288 1.478 . S
C287 H281 0.930 . S
C287 C283 1.400 . S
C287 C286 1.385 . S
C288 C286 1.478 . S
C288 C290 1.381 . S
C288 C294 1.383 . S
C289 C285 1.495 . S
C289 H295 0.959 . S
C289 H296 0.961 . S
C289 H297 0.960 . S
C290 C288 1.381 . S
C290 C291 1.394 . S
C290 H298 0.930 . S
C291 C290 1.394 . S
C291 C292 1.383 . S
C291 H299 0.929 . S
C292 C291 1.383 . S
C292 C293 1.377 . S
C293 H277 0.930 . S
C293 C292 1.377 . S
C293 C294 1.379 . S
C294 H278 0.931 . S
C294 C288 1.383 . S
C294 C293 1.379 . S
H295 C289 0.959 . S
H296 C289 0.961 . S
H297 C289 0.960 . S
H298 C290 0.930 . S
H299 C291 0.929 . S
H300 C308 0.929 . S
H301 C310 0.930 . S
H302 C312 0.930 . S
H303 C315 0.929 . S
H304 C318 0.930 . S
H305 C320 0.960 . S
H306 C320 0.960 . S
H307 C320 0.960 . S
C308 H300 0.929 . S
C308 C309 1.377 . S
C308 C310 1.384 . S
C309 C308 1.377 . S
C309 C315 1.390 . S
C310 H301 0.930 . S
C310 C308 1.384 . S
C310 C311 1.372 . S
C311 C310 1.372 . S
C311 C312 1.400 . S
C311 C316 1.490 . S
C312 H302 0.930 . S
C312 C311 1.400 . S
C312 C315 1.386 . S
H313 C329 0.930 . S
H314 C330 0.931 . S
C315 H303 0.929 . S
C315 C309 1.390 . S
C315 C312 1.386 . S
C316 C311 1.490 . S
C316 C318 1.395 . S
C316 C319 1.403 . S
H317 C323 0.930 1_545 S
C318 H304 0.930 . S
C318 C316 1.395 . S
C318 C321 1.403 . S
C319 C316 1.403 . S
C319 C320 1.524 1_565 S
C319 C323 1.400 . S
C320 H305 0.960 . S
C320 H306 0.960 . S
C320 H307 0.960 . S
C320 C319 1.524 1_545 S
C321 C318 1.403 . S
C321 C322 1.392 . S
C321 C325 1.495 . S
C322 C321 1.392 . S
C322 C323 1.385 . S
C322 C324 1.478 . S
C323 H317 0.930 1_565 S
C323 C319 1.400 . S
C323 C322 1.385 . S
C324 C322 1.478 . S
C324 C326 1.381 . S
C324 C330 1.383 . S
C325 C321 1.495 . S
C325 H331 0.959 . S
C325 H332 0.961 . S
C325 H333 0.960 . S
C326 C324 1.381 . S
C326 C327 1.394 . S
C326 H334 0.930 . S
C327 C326 1.394 . S
C327 C328 1.383 . S
C327 H335 0.929 . S
C328 C327 1.383 . S
C328 C329 1.377 . S
C329 H313 0.930 . S
C329 C328 1.377 . S
C329 C330 1.379 . S
C330 H314 0.931 . S
C330 C324 1.383 . S
C330 C329 1.379 . S
H331 C325 0.959 . S
H332 C325 0.961 . S
H333 C325 0.960 . S
H334 C326 0.930 . S
H335 C327 0.929 . S
H336 C344 0.929 . S
H337 C346 0.930 . S
H338 C348 0.930 . S
H339 C351 0.929 . S
H340 C354 0.930 . S
H341 C356 0.960 . S
H342 C356 0.960 . S
H343 C356 0.960 . S
C344 H336 0.929 . S
C344 C345 1.377 . S
C344 C346 1.384 . S
C345 C344 1.377 . S
C345 C351 1.390 . S
C346 H337 0.930 . S
C346 C344 1.384 . S
C346 C347 1.372 . S
C347 C346 1.372 . S
C347 C348 1.400 . S
C347 C352 1.490 . S
C348 H338 0.930 . S
C348 C347 1.400 . S
C348 C351 1.386 . S
H349 C365 0.930 . S
H350 C366 0.931 . S
C351 H339 0.929 . S
C351 C345 1.390 . S
C351 C348 1.386 . S
C352 C347 1.490 . S
C352 C354 1.395 . S
C352 C355 1.403 . S
H353 C359 0.930 . S
C354 H340 0.930 . S
C354 C352 1.395 . S
C354 C357 1.403 1_556 S
C355 C352 1.403 . S
C355 C356 1.524 . S
C355 C359 1.400 1_556 S
C356 H341 0.960 . S
C356 H342 0.960 . S
C356 H343 0.960 . S
C356 C355 1.524 . S
C357 C354 1.403 1_554 S
C357 C358 1.392 . S
C357 C361 1.495 . S
C358 C357 1.392 . S
C358 C359 1.385 . S
C358 C360 1.478 . S
C359 H353 0.930 . S
C359 C355 1.400 1_554 S
C359 C358 1.385 . S
C360 C358 1.478 . S
C360 C362 1.381 . S
C360 C366 1.383 . S
C361 C357 1.495 . S
C361 H367 0.959 . S
C361 H368 0.961 . S
C361 H369 0.960 . S
C362 C360 1.381 . S
C362 C363 1.394 . S
C362 H370 0.924 1_655 S
C363 C362 1.394 . S
C363 C364 1.383 . S
C363 H371 0.929 1_655 S
C364 C363 1.383 . S
C364 C365 1.377 . S
C365 H349 0.930 . S
C365 C364 1.377 . S
C365 C366 1.379 . S
C366 H350 0.931 . S
C366 C360 1.383 . S
C366 C365 1.379 . S
H367 C361 0.959 . S
H368 C361 0.961 . S
H369 C361 0.960 . S
H370 C362 0.924 1_455 S
H371 C363 0.929 1_455 S
H372 C380 0.929 . S
H373 C382 0.930 . S
H374 C384 0.930 . S
H375 C387 0.929 . S
H376 C390 0.930 . S
H377 C392 0.960 . S
H378 C392 0.960 . S
H379 C392 0.960 . S
C380 H372 0.929 . S
C380 C381 1.377 . S
C380 C382 1.384 . S
C381 C380 1.377 . S
C381 C387 1.390 . S
C382 H373 0.930 . S
C382 C380 1.384 . S
C382 C383 1.372 . S
C383 C382 1.372 . S
C383 C384 1.400 . S
C383 C388 1.490 . S
C384 H374 0.930 . S
C384 C383 1.400 . S
C384 C387 1.386 . S
H385 C401 0.930 . S
H386 C402 0.931 . S
C387 H375 0.929 . S
C387 C381 1.390 . S
C387 C384 1.386 . S
C388 C383 1.490 . S
C388 C390 1.395 . S
C388 C391 1.403 . S
H389 C395 0.930 . S
C390 H376 0.930 . S
C390 C388 1.395 . S
C390 C393 1.403 . S
C391 C388 1.403 . S
C391 C392 1.524 . S
C391 C395 1.400 . S
C392 H377 0.960 . S
C392 H378 0.960 . S
C392 H379 0.960 . S
C392 C391 1.524 . S
C393 C390 1.403 . S
C393 C394 1.392 . S
C393 C397 1.495 . S
C394 C393 1.392 . S
C394 C395 1.385 . S
C394 C396 1.478 . S
C395 H389 0.930 . S
C395 C391 1.400 . S
C395 C394 1.385 . S
C396 C394 1.478 . S
C396 C398 1.381 . S
C396 C402 1.383 . S
C397 C393 1.495 . S
C397 H403 0.959 . S
C397 H404 0.961 . S
C397 H405 0.960 . S
C398 C396 1.381 . S
C398 C399 1.394 . S
C398 H406 0.930 . S
C399 C398 1.394 . S
C399 C400 1.383 . S
C399 H407 0.929 . S
C400 C399 1.383 . S
C400 C401 1.377 . S
C401 H385 0.930 . S
C401 C400 1.377 . S
C401 C402 1.379 . S
C402 H386 0.931 . S
C402 C396 1.383 . S
C402 C401 1.379 . S
H403 C397 0.959 . S
H404 C397 0.961 . S
H405 C397 0.960 . S
H406 C398 0.930 . S
H407 C399 0.929 . S
H408 C416 0.929 . S
H409 C418 0.930 . S
H410 C420 0.930 . S
H411 C423 0.929 . S
H412 C426 0.930 . S
H413 C428 0.960 . S
H414 C428 0.960 . S
H415 C428 0.960 . S
C416 H408 0.929 . S
C416 C417 1.377 . S
C416 C418 1.384 . S
C417 C416 1.377 . S
C417 C423 1.390 . S
C418 H409 0.930 . S
C418 C416 1.384 . S
C418 C419 1.372 . S
C419 C418 1.372 . S
C419 C420 1.400 . S
C419 C424 1.490 . S
C420 H410 0.930 . S
C420 C419 1.400 . S
C420 C423 1.386 . S
H421 C437 0.930 . S
H422 C438 0.931 . S
C423 H411 0.929 . S
C423 C417 1.390 . S
C423 C420 1.386 . S
C424 C419 1.490 . S
C424 C426 1.395 . S
C424 C427 1.403 . S
H425 C431 0.930 . S
C426 H412 0.930 . S
C426 C424 1.395 . S
C426 C429 1.403 . S
C427 C424 1.403 . S
C427 C428 1.524 1_655 S
C427 C431 1.400 . S
C428 H413 0.960 . S
C428 H414 0.960 . S
C428 H415 0.960 . S
C428 C427 1.524 1_455 S
C429 C426 1.403 . S
C429 C430 1.392 . S
C429 C433 1.495 . S
C430 C429 1.392 . S
C430 C431 1.385 . S
C430 C432 1.478 . S
C431 H425 0.930 . S
C431 C427 1.400 . S
C431 C430 1.385 . S
C432 C430 1.478 . S
C432 C434 1.381 . S
C432 C438 1.383 . S
C433 C429 1.495 . S
C433 H439 0.959 . S
C433 H440 0.961 . S
C433 H441 0.960 . S
C434 C432 1.381 . S
C434 C435 1.394 . S
C434 H442 0.930 . S
C435 C434 1.394 . S
C435 C436 1.383 . S
C435 H443 0.929 . S
C436 C435 1.383 . S
C436 C437 1.377 . S
C437 H421 0.930 . S
C437 C436 1.377 . S
C437 C438 1.379 . S
C438 H422 0.931 . S
C438 C432 1.383 . S
C438 C437 1.379 . S
H439 C433 0.959 . S
H440 C433 0.961 . S
H441 C433 0.960 . S
H442 C434 0.930 . S
H443 C435 0.929 . S
C129 C18 1.291 1_455 S
C148 C9 1.308 1_655 S
C165 C49 1.389 1_545 S
C184 C58 1.398 . S
C201 C98 1.145 1_545 S
C220 C89 1.120 . S
C237 C95 0.936 . S
C256 C6 0.949 . S
C273 C50 1.908 . S
C292 C15 1.871 . S
C309 C90 2.310 . S
C328 C59 2.312 . S
C345 C99 2.199 . S
C364 C10 2.183 . S
C381 C19 1.395 . S
C400 C46 1.382 . S
C417 C86 0.906 . S
C436 C55 0.903 . S
