# Generated by pormake.
# Topology uoh, (4)-cn, num edge types: 1
# Building blocks:
#     Node 0, Type 0, BuildingBlock: GALJAG_clean_sbu_0, # of connection points: 4
#     Node 1, Type 0, BuildingBlock: GALJAG_clean_sbu_0, # of connection points: 4
#     Node 2, Type 0, BuildingBlock: GALJAG_clean_sbu_0, # of connection points: 4
#     Node 3, Type 0, BuildingBlock: GALJAG_clean_sbu_0, # of connection points: 4
#     Node 4, Type 0, BuildingBlock: GALJAG_clean_sbu_0, # of connection points: 4
#     Node 5, Type 0, BuildingBlock: GALJAG_clean_sbu_0, # of connection points: 4
#     Node 6, Type 0, BuildingBlock: GALJAG_clean_sbu_0, # of connection points: 4
#     Node 7, Type 0, BuildingBlock: GALJAG_clean_sbu_0, # of connection points: 4
#     Node 8, Type 0, BuildingBlock: GALJAG_clean_sbu_0, # of connection points: 4
#     Node 9, Type 0, BuildingBlock: GALJAG_clean_sbu_0, # of connection points: 4
#     Node 10, Type 0, BuildingBlock: GALJAG_clean_sbu_0, # of connection points: 4
#     Node 11, Type 0, BuildingBlock: GALJAG_clean_sbu_0, # of connection points: 4
#     Node 12, Type 0, BuildingBlock: GALJAG_clean_sbu_0, # of connection points: 4
#     Node 13, Type 0, BuildingBlock: GALJAG_clean_sbu_0, # of connection points: 4
#     Node 14, Type 0, BuildingBlock: GALJAG_clean_sbu_0, # of connection points: 4
#     Node 15, Type 0, BuildingBlock: GALJAG_clean_sbu_0, # of connection points: 4
#     Node 16, Type 0, BuildingBlock: GALJAG_clean_sbu_0, # of connection points: 4
#     Node 17, Type 0, BuildingBlock: GALJAG_clean_sbu_0, # of connection points: 4
#     Node 18, Type 0, BuildingBlock: GALJAG_clean_sbu_0, # of connection points: 4
#     Node 19, Type 0, BuildingBlock: GALJAG_clean_sbu_0, # of connection points: 4
#     Node 20, Type 0, BuildingBlock: GALJAG_clean_sbu_0, # of connection points: 4
#     Node 21, Type 0, BuildingBlock: GALJAG_clean_sbu_0, # of connection points: 4
#     Node 22, Type 0, BuildingBlock: GALJAG_clean_sbu_0, # of connection points: 4
#     Node 23, Type 0, BuildingBlock: GALJAG_clean_sbu_0, # of connection points: 4
#     Node 24, Type 0, BuildingBlock: GALJAG_clean_sbu_0, # of connection points: 4
#     Node 25, Type 0, BuildingBlock: GALJAG_clean_sbu_0, # of connection points: 4
#     Node 26, Type 0, BuildingBlock: GALJAG_clean_sbu_0, # of connection points: 4
#     Node 27, Type 0, BuildingBlock: GALJAG_clean_sbu_0, # of connection points: 4
#     Node 28, Type 0, BuildingBlock: GALJAG_clean_sbu_0, # of connection points: 4
#     Node 29, Type 0, BuildingBlock: GALJAG_clean_sbu_0, # of connection points: 4
#     Node 30, Type 0, BuildingBlock: GALJAG_clean_sbu_0, # of connection points: 4
#     Node 31, Type 0, BuildingBlock: GALJAG_clean_sbu_0, # of connection points: 4
#     Node 32, Type 0, BuildingBlock: GALJAG_clean_sbu_0, # of connection points: 4
#     Node 33, Type 0, BuildingBlock: GALJAG_clean_sbu_0, # of connection points: 4
#     Node 34, Type 0, BuildingBlock: GALJAG_clean_sbu_0, # of connection points: 4
#     Node 35, Type 0, BuildingBlock: GALJAG_clean_sbu_0, # of connection points: 4
#     Edge 36, Type (0, 0), BuildingBlock: XUDNAN_clean_linker_2, # of connection points: 2
#     Edge 37, Type (0, 0), BuildingBlock: XUDNAN_clean_linker_2, # of connection points: 2
#     Edge 38, Type (0, 0), BuildingBlock: XUDNAN_clean_linker_2, # of connection points: 2
#     Edge 39, Type (0, 0), BuildingBlock: XUDNAN_clean_linker_2, # of connection points: 2
#     Edge 40, Type (0, 0), BuildingBlock: XUDNAN_clean_linker_2, # of connection points: 2
#     Edge 41, Type (0, 0), BuildingBlock: XUDNAN_clean_linker_2, # of connection points: 2
#     Edge 42, Type (0, 0), BuildingBlock: XUDNAN_clean_linker_2, # of connection points: 2
#     Edge 43, Type (0, 0), BuildingBlock: XUDNAN_clean_linker_2, # of connection points: 2
#     Edge 44, Type (0, 0), BuildingBlock: XUDNAN_clean_linker_2, # of connection points: 2
#     Edge 45, Type (0, 0), BuildingBlock: XUDNAN_clean_linker_2, # of connection points: 2
#     Edge 46, Type (0, 0), BuildingBlock: XUDNAN_clean_linker_2, # of connection points: 2
#     Edge 47, Type (0, 0), BuildingBlock: XUDNAN_clean_linker_2, # of connection points: 2
#     Edge 48, Type (0, 0), BuildingBlock: XUDNAN_clean_linker_2, # of connection points: 2
#     Edge 49, Type (0, 0), BuildingBlock: XUDNAN_clean_linker_2, # of connection points: 2
#     Edge 50, Type (0, 0), BuildingBlock: XUDNAN_clean_linker_2, # of connection points: 2
#     Edge 51, Type (0, 0), BuildingBlock: XUDNAN_clean_linker_2, # of connection points: 2
#     Edge 52, Type (0, 0), BuildingBlock: XUDNAN_clean_linker_2, # of connection points: 2
#     Edge 53, Type (0, 0), BuildingBlock: XUDNAN_clean_linker_2, # of connection points: 2
#     Edge 54, Type (0, 0), BuildingBlock: XUDNAN_clean_linker_2, # of connection points: 2
#     Edge 55, Type (0, 0), BuildingBlock: XUDNAN_clean_linker_2, # of connection points: 2
#     Edge 56, Type (0, 0), BuildingBlock: XUDNAN_clean_linker_2, # of connection points: 2
#     Edge 57, Type (0, 0), BuildingBlock: XUDNAN_clean_linker_2, # of connection points: 2
#     Edge 58, Type (0, 0), BuildingBlock: XUDNAN_clean_linker_2, # of connection points: 2
#     Edge 59, Type (0, 0), BuildingBlock: XUDNAN_clean_linker_2, # of connection points: 2
#     Edge 60, Type (0, 0), BuildingBlock: XUDNAN_clean_linker_2, # of connection points: 2
#     Edge 61, Type (0, 0), BuildingBlock: XUDNAN_clean_linker_2, # of connection points: 2
#     Edge 62, Type (0, 0), BuildingBlock: XUDNAN_clean_linker_2, # of connection points: 2
#     Edge 63, Type (0, 0), BuildingBlock: XUDNAN_clean_linker_2, # of connection points: 2
#     Edge 64, Type (0, 0), BuildingBlock: XUDNAN_clean_linker_2, # of connection points: 2
#     Edge 65, Type (0, 0), BuildingBlock: XUDNAN_clean_linker_2, # of connection points: 2
#     Edge 66, Type (0, 0), BuildingBlock: XUDNAN_clean_linker_2, # of connection points: 2
#     Edge 67, Type (0, 0), BuildingBlock: XUDNAN_clean_linker_2, # of connection points: 2
#     Edge 68, Type (0, 0), BuildingBlock: XUDNAN_clean_linker_2, # of connection points: 2
#     Edge 69, Type (0, 0), BuildingBlock: XUDNAN_clean_linker_2, # of connection points: 2
#     Edge 70, Type (0, 0), BuildingBlock: XUDNAN_clean_linker_2, # of connection points: 2
#     Edge 71, Type (0, 0), BuildingBlock: XUDNAN_clean_linker_2, # of connection points: 2
#     Edge 72, Type (0, 0), BuildingBlock: XUDNAN_clean_linker_2, # of connection points: 2
#     Edge 73, Type (0, 0), BuildingBlock: XUDNAN_clean_linker_2, # of connection points: 2
#     Edge 74, Type (0, 0), BuildingBlock: XUDNAN_clean_linker_2, # of connection points: 2
#     Edge 75, Type (0, 0), BuildingBlock: XUDNAN_clean_linker_2, # of connection points: 2
#     Edge 76, Type (0, 0), BuildingBlock: XUDNAN_clean_linker_2, # of connection points: 2
#     Edge 77, Type (0, 0), BuildingBlock: XUDNAN_clean_linker_2, # of connection points: 2
#     Edge 78, Type (0, 0), BuildingBlock: XUDNAN_clean_linker_2, # of connection points: 2
#     Edge 79, Type (0, 0), BuildingBlock: XUDNAN_clean_linker_2, # of connection points: 2
#     Edge 80, Type (0, 0), BuildingBlock: XUDNAN_clean_linker_2, # of connection points: 2
#     Edge 81, Type (0, 0), BuildingBlock: XUDNAN_clean_linker_2, # of connection points: 2
#     Edge 82, Type (0, 0), BuildingBlock: XUDNAN_clean_linker_2, # of connection points: 2
#     Edge 83, Type (0, 0), BuildingBlock: XUDNAN_clean_linker_2, # of connection points: 2
#     Edge 84, Type (0, 0), BuildingBlock: XUDNAN_clean_linker_2, # of connection points: 2
#     Edge 85, Type (0, 0), BuildingBlock: XUDNAN_clean_linker_2, # of connection points: 2
#     Edge 86, Type (0, 0), BuildingBlock: XUDNAN_clean_linker_2, # of connection points: 2
#     Edge 87, Type (0, 0), BuildingBlock: XUDNAN_clean_linker_2, # of connection points: 2
#     Edge 88, Type (0, 0), BuildingBlock: XUDNAN_clean_linker_2, # of connection points: 2
#     Edge 89, Type (0, 0), BuildingBlock: XUDNAN_clean_linker_2, # of connection points: 2
#     Edge 90, Type (0, 0), BuildingBlock: XUDNAN_clean_linker_2, # of connection points: 2
#     Edge 91, Type (0, 0), BuildingBlock: XUDNAN_clean_linker_2, # of connection points: 2
#     Edge 92, Type (0, 0), BuildingBlock: XUDNAN_clean_linker_2, # of connection points: 2
#     Edge 93, Type (0, 0), BuildingBlock: XUDNAN_clean_linker_2, # of connection points: 2
#     Edge 94, Type (0, 0), BuildingBlock: XUDNAN_clean_linker_2, # of connection points: 2
#     Edge 95, Type (0, 0), BuildingBlock: XUDNAN_clean_linker_2, # of connection points: 2
#     Edge 96, Type (0, 0), BuildingBlock: XUDNAN_clean_linker_2, # of connection points: 2
#     Edge 97, Type (0, 0), BuildingBlock: XUDNAN_clean_linker_2, # of connection points: 2
#     Edge 98, Type (0, 0), BuildingBlock: XUDNAN_clean_linker_2, # of connection points: 2
#     Edge 99, Type (0, 0), BuildingBlock: XUDNAN_clean_linker_2, # of connection points: 2
#     Edge 100, Type (0, 0), BuildingBlock: XUDNAN_clean_linker_2, # of connection points: 2
#     Edge 101, Type (0, 0), BuildingBlock: XUDNAN_clean_linker_2, # of connection points: 2
#     Edge 102, Type (0, 0), BuildingBlock: XUDNAN_clean_linker_2, # of connection points: 2
#     Edge 103, Type (0, 0), BuildingBlock: XUDNAN_clean_linker_2, # of connection points: 2
#     Edge 104, Type (0, 0), BuildingBlock: XUDNAN_clean_linker_2, # of connection points: 2
#     Edge 105, Type (0, 0), BuildingBlock: XUDNAN_clean_linker_2, # of connection points: 2
#     Edge 106, Type (0, 0), BuildingBlock: XUDNAN_clean_linker_2, # of connection points: 2
#     Edge 107, Type (0, 0), BuildingBlock: XUDNAN_clean_linker_2, # of connection points: 2
# Relax obj value: 0.044
# Max RMSD: 0.095
# Mean RMSD: 0.095
data_MOF--net-uoh--node1-GALJAG_clean_sbu_0--edge1-XUDNAN_clean_linker_2
_symmetry_space_group_name_H-M    P1
_symmetry_Int_Tables_number       1
_symmetry_cell_setting            triclinic
loop_
_symmetry_equiv_pos_as_xyz
'x, y, z'
_cell_length_a     86.510209
_cell_length_b     86.46685
_cell_length_c     28.723294
_cell_angle_alpha  89.998127
_cell_angle_beta   89.973391
_cell_angle_gamma 119.98972
loop_
_atom_site_label
_atom_site_type_symbol
_atom_site_fract_x
_atom_site_fract_y
_atom_site_fract_z
_atom_type_partial_charge
In0 In 0.24274 0.14657 0.21171 0.0
O1 O 0.23836 0.17056 0.20938 0.0
O2 O 0.21647 0.14467 0.19393 0.0
C3 C 0.27843 0.16215 0.21645 0.0
C4 C 0.23335 0.13455 0.30002 0.0
C5 C 0.23751 0.13125 0.12701 0.0
O6 O 0.27062 0.17112 0.21163 0.0
O7 O 0.26821 0.14549 0.21987 0.0
O8 O 0.2287 0.12244 0.16232 0.0
O9 O 0.24885 0.14737 0.13496 0.0
C10 C 0.22205 0.16115 0.19854 0.0
O11 O 0.23408 0.1247 0.26846 0.0
O12 O 0.23722 0.14994 0.28671 0.0
In13 In 0.87573 0.10271 0.17554 0.0
O14 O 0.84949 0.0776 0.19582 0.0
O15 O 0.8742 0.0778 0.20279 0.0
C16 C 0.86812 0.12864 0.158 0.0
C17 C 0.89346 0.11512 0.25584 0.0
C18 C 0.88426 0.09768 0.08915 0.0
O19 O 0.85598 0.11296 0.1686 0.0
O20 O 0.88366 0.13083 0.15554 0.0
O21 O 0.89593 0.10849 0.11727 0.0
O22 O 0.86855 0.0894 0.10492 0.0
C23 C 0.8575 0.06935 0.20832 0.0
O24 O 0.90011 0.11085 0.22231 0.0
O25 O 0.87847 0.1137 0.24782 0.0
In26 In 0.89389 0.75265 0.18787 0.0
O27 O 0.88203 0.76671 0.23062 0.0
O28 O 0.8838 0.74533 0.26197 0.0
C29 C 0.89279 0.76054 0.09752 0.0
C30 C 0.9279 0.7759 0.21047 0.0
C31 C 0.87702 0.71701 0.17893 0.0
O32 O 0.88113 0.75925 0.12639 0.0
O33 O 0.90482 0.75808 0.1145 0.0
O34 O 0.89351 0.72609 0.18834 0.0
O35 O 0.86921 0.72596 0.17429 0.0
C36 C 0.87967 0.75731 0.26654 0.0
O37 O 0.92219 0.75927 0.20853 0.0
O38 O 0.91652 0.78046 0.20084 0.0
In39 In 0.12419 0.22133 0.30756 0.0
O40 O 0.15152 0.22538 0.2852 0.0
O41 O 0.12821 0.19978 0.27685 0.0
C42 C 0.13063 0.25457 0.32519 0.0
C43 C 0.10438 0.21353 0.22988 0.0
C44 C 0.11686 0.20807 0.39481 0.0
O45 O 0.14311 0.25155 0.31452 0.0
O46 O 0.11529 0.2409 0.32704 0.0
O47 O 0.10487 0.20717 0.36793 0.0
O48 O 0.13226 0.21512 0.37723 0.0
C49 C 0.14482 0.20942 0.27104 0.0
O50 O 0.09987 0.20253 0.26326 0.0
O51 O 0.11824 0.22841 0.23685 0.0
In52 In 0.76153 0.90893 0.30575 0.0
O53 O 0.76712 0.93749 0.29414 0.0
O54 O 0.78888 0.93326 0.30902 0.0
C55 C 0.72581 0.88885 0.31272 0.0
C56 C 0.7677 0.89927 0.22152 0.0
C57 C 0.76993 0.90312 0.39174 0.0
O58 O 0.73366 0.90572 0.31274 0.0
O59 O 0.73596 0.88239 0.30837 0.0
O60 O 0.77388 0.89754 0.35547 0.0
O61 O 0.76186 0.91167 0.38444 0.0
C62 C 0.78376 0.94428 0.30019 0.0
O63 O 0.77108 0.89394 0.25909 0.0
O64 O 0.76126 0.90942 0.22657 0.0
In65 In 0.08881 0.86508 0.32054 0.0
O66 O 0.09759 0.88964 0.27332 0.0
O67 O 0.0994 0.86759 0.24721 0.0
C68 C 0.08998 0.8768 0.4084 0.0
C69 C 0.05415 0.84903 0.29726 0.0
C70 C 0.10812 0.84895 0.3338 0.0
O71 O 0.10183 0.88605 0.37866 0.0
O72 O 0.07761 0.86211 0.39347 0.0
O73 O 0.09143 0.84017 0.32723 0.0
O74 O 0.11488 0.8657 0.33383 0.0
C75 C 0.10144 0.88283 0.23946 0.0
O76 O 0.06211 0.84024 0.30298 0.0
O77 O 0.06368 0.86565 0.30353 0.0
In78 In 0.7546 0.85852 0.80439 0.0
O79 O 0.75637 0.83323 0.79309 0.0
O80 O 0.78038 0.85858 0.79936 0.0
C81 C 0.72085 0.85198 0.80713 0.0
C82 C 0.76383 0.87237 0.71893 0.0
C83 C 0.76354 0.8675 0.89372 0.0
O84 O 0.7243 0.83935 0.80612 0.0
O85 O 0.73432 0.86748 0.80654 0.0
O86 O 0.76759 0.87929 0.86251 0.0
O87 O 0.75509 0.85153 0.87965 0.0
C88 C 0.77334 0.84197 0.79235 0.0
O89 O 0.76914 0.88236 0.75463 0.0
O90 O 0.75365 0.85594 0.7267 0.0
In91 In 0.13913 0.90383 0.81904 0.0
O92 O 0.11413 0.89584 0.77477 0.0
O93 O 0.13888 0.90436 0.74029 0.0
C94 C 0.12887 0.90434 0.90769 0.0
C95 C 0.16536 0.93789 0.8084 0.0
C96 C 0.14166 0.87406 0.82013 0.0
O97 O 0.12074 0.90613 0.87338 0.0
O98 O 0.14189 0.90235 0.89705 0.0
O99 O 0.15522 0.88955 0.81992 0.0
O100 O 0.12685 0.87364 0.81922 0.0
C101 C 0.12244 0.89898 0.73651 0.0
O102 O 0.1685 0.92512 0.81048 0.0
O103 O 0.14915 0.93345 0.81283 0.0
In104 In 0.09608 0.22898 0.8071 0.0
O105 O 0.07601 0.23833 0.79392 0.0
O106 O 0.06691 0.21038 0.79356 0.0
C107 C 0.12652 0.26039 0.81398 0.0
C108 C 0.1015 0.2171 0.72558 0.0
C109 C 0.0913 0.21718 0.89575 0.0
O110 O 0.1115 0.25929 0.80887 0.0
O111 O 0.1262 0.24563 0.81474 0.0
O112 O 0.09221 0.20803 0.86257 0.0
O113 O 0.09278 0.23187 0.88383 0.0
C114 C 0.06315 0.22263 0.78823 0.0
O115 O 0.10446 0.2119 0.76406 0.0
O116 O 0.09632 0.22833 0.72876 0.0
In117 In 0.84384 0.75122 0.68716 0.0
O118 O 0.82044 0.75634 0.69869 0.0
O119 O 0.84671 0.77847 0.69038 0.0
C120 C 0.82932 0.7156 0.6874 0.0
C121 C 0.86109 0.75767 0.76918 0.0
C122 C 0.85438 0.75832 0.59762 0.0
O123 O 0.81989 0.723 0.69083 0.0
O124 O 0.84592 0.7262 0.68387 0.0
O125 O 0.86492 0.76645 0.63093 0.0
O126 O 0.83878 0.74671 0.6095 0.0
C127 C 0.83045 0.77314 0.69791 0.0
O128 O 0.86927 0.76057 0.73072 0.0
O129 O 0.8445 0.7515 0.76577 0.0
In130 In 0.24845 0.09929 0.70896 0.0
O131 O 0.25249 0.07591 0.72816 0.0
O132 O 0.22625 0.0703 0.71155 0.0
C133 C 0.28369 0.11959 0.69301 0.0
C134 C 0.24004 0.1067 0.79414 0.0
C135 C 0.23653 0.10476 0.62663 0.0
O136 O 0.2757 0.10273 0.69359 0.0
O137 O 0.27391 0.12631 0.70104 0.0
O138 O 0.23617 0.11236 0.66384 0.0
O139 O 0.24245 0.09419 0.6313 0.0
C140 C 0.23621 0.0643 0.72419 0.0
O141 O 0.22841 0.0978 0.76384 0.0
O142 O 0.25588 0.11259 0.78075 0.0
In143 In 0.90545 0.14031 0.68135 0.0
O144 O 0.92681 0.16935 0.69522 0.0
O145 O 0.93488 0.15052 0.6771 0.0
C146 C 0.8757 0.14263 0.687 0.0
C147 C 0.90286 0.12287 0.76119 0.0
C148 C 0.90568 0.13142 0.59169 0.0
O149 O 0.89109 0.1563 0.6853 0.0
O150 O 0.87541 0.12789 0.68598 0.0
O151 O 0.9076 0.12281 0.62458 0.0
O152 O 0.90328 0.14403 0.60428 0.0
C153 C 0.93953 0.16636 0.68834 0.0
O154 O 0.89714 0.11463 0.72305 0.0
O155 O 0.90967 0.13957 0.75858 0.0
In156 In 0.90358 0.47304 0.5258 0.0
O157 O 0.90342 0.49901 0.54098 0.0
O158 O 0.88105 0.47797 0.50634 0.0
C159 C 0.93924 0.48677 0.52848 0.0
C160 C 0.89188 0.45455 0.60664 0.0
C161 C 0.89576 0.46018 0.43814 0.0
O162 O 0.93204 0.49636 0.5286 0.0
O163 O 0.92844 0.47017 0.52764 0.0
O164 O 0.88563 0.45197 0.47211 0.0
O165 O 0.90978 0.47445 0.44877 0.0
C166 C 0.88832 0.49359 0.52256 0.0
O167 O 0.89236 0.4472 0.56908 0.0
O168 O 0.89704 0.47092 0.60303 0.0
In169 In 0.51531 0.43394 0.57083 0.0
O170 O 0.49485 0.40418 0.56643 0.0
O171 O 0.52259 0.41236 0.56999 0.0
C172 C 0.49774 0.4521 0.56364 0.0
C173 C 0.5232 0.43792 0.66251 0.0
C174 C 0.5328 0.44473 0.48901 0.0
O175 O 0.48977 0.43526 0.55962 0.0
O176 O 0.51423 0.45942 0.57207 0.0
O177 O 0.54067 0.45056 0.52768 0.0
O178 O 0.5164 0.43332 0.49206 0.0
C179 C 0.50666 0.39961 0.56828 0.0
O180 O 0.53508 0.44639 0.63198 0.0
O181 O 0.50772 0.42802 0.64658 0.0
In182 In 0.56847 0.10635 0.50253 0.0
O183 O 0.5885 0.09726 0.52011 0.0
O184 O 0.59783 0.1251 0.51589 0.0
C185 C 0.53916 0.07428 0.49238 0.0
C186 C 0.56081 0.11686 0.5834 0.0
C187 C 0.57051 0.11757 0.41411 0.0
O188 O 0.55439 0.07607 0.50003 0.0
O189 O 0.53882 0.08871 0.48966 0.0
O190 O 0.56631 0.12442 0.44717 0.0
O191 O 0.57392 0.10558 0.42608 0.0
C192 C 0.60151 0.11297 0.52369 0.0
O193 O 0.56865 0.1278 0.55065 0.0
O194 O 0.55665 0.10099 0.57468 0.0
In195 In 0.79793 0.55889 0.6454 0.0
O196 O 0.82637 0.56572 0.62421 0.0
O197 O 0.80425 0.54003 0.60795 0.0
C198 C 0.80134 0.59096 0.66381 0.0
C199 C 0.77704 0.54908 0.5694 0.0
C200 C 0.792 0.54448 0.73132 0.0
O201 O 0.81441 0.58943 0.6499 0.0
O202 O 0.7869 0.5764 0.66872 0.0
O203 O 0.77946 0.54275 0.70529 0.0
O204 O 0.80735 0.55304 0.71357 0.0
C205 C 0.8208 0.55065 0.60503 0.0
O206 O 0.77413 0.53834 0.60265 0.0
O207 O 0.78975 0.56476 0.57593 0.0
In208 In 0.44338 0.23714 0.64692 0.0
O209 O 0.44274 0.26299 0.63374 0.0
O210 O 0.46781 0.2643 0.6441 0.0
C211 C 0.40974 0.20964 0.64641 0.0
C212 C 0.45345 0.23033 0.5647 0.0
C213 C 0.45109 0.23591 0.73698 0.0
O214 O 0.41305 0.22567 0.6467 0.0
O215 O 0.4233 0.20777 0.64595 0.0
O216 O 0.45996 0.23402 0.70461 0.0
O217 O 0.43863 0.23845 0.72365 0.0
C218 C 0.4596 0.27259 0.63531 0.0
O219 O 0.45764 0.22595 0.60276 0.0
O220 O 0.44424 0.23788 0.56866 0.0
In221 In 0.76015 0.18713 0.64735 0.0
O222 O 0.73583 0.15983 0.63504 0.0
O223 O 0.73295 0.18282 0.62742 0.0
C224 C 0.78091 0.17273 0.66395 0.0
C225 C 0.77039 0.20369 0.56356 0.0
C226 C 0.76067 0.20065 0.73313 0.0
O227 O 0.76412 0.16345 0.66164 0.0
O228 O 0.7872 0.18927 0.65792 0.0
O229 O 0.77344 0.20849 0.70474 0.0
O230 O 0.74758 0.18663 0.71751 0.0
C231 C 0.72571 0.166 0.6253 0.0
O232 O 0.76806 0.21121 0.59849 0.0
O233 O 0.76812 0.18838 0.57165 0.0
In234 In 0.4344 0.19511 0.15199 0.0
O235 O 0.42487 0.16547 0.13841 0.0
O236 O 0.4517 0.18509 0.12203 0.0
C237 C 0.40274 0.19248 0.17125 0.0
C238 C 0.44469 0.21353 0.07143 0.0
C239 C 0.45008 0.20423 0.23655 0.0
O240 O 0.40413 0.17893 0.16187 0.0
O241 O 0.41723 0.20715 0.17075 0.0
O242 O 0.45063 0.21569 0.20832 0.0
O243 O 0.44202 0.18841 0.22175 0.0
C244 C 0.43985 0.16881 0.12225 0.0
O245 O 0.45543 0.21683 0.1048 0.0
O246 O 0.42881 0.20155 0.07957 0.0
In247 In 0.81046 0.23517 0.14425 0.0
O248 O 0.83835 0.25961 0.14772 0.0
O249 O 0.81663 0.26342 0.12922 0.0
C250 C 0.82703 0.21584 0.14581 0.0
C251 C 0.79282 0.22686 0.06156 0.0
C252 C 0.79565 0.23096 0.23067 0.0
O253 O 0.8353 0.23263 0.14994 0.0
O254 O 0.81033 0.20874 0.14128 0.0
O255 O 0.80118 0.24501 0.20712 0.0
O256 O 0.79675 0.21874 0.20991 0.0
C257 C 0.83323 0.2704 0.13575 0.0
O258 O 0.78466 0.22398 0.09993 0.0
O259 O 0.80942 0.23354 0.06542 0.0
In260 In 0.76494 0.55502 0.14359 0.0
O261 O 0.73945 0.5561 0.12943 0.0
O262 O 0.73776 0.53074 0.13788 0.0
C263 C 0.79234 0.58873 0.14607 0.0
C264 C 0.77231 0.54508 0.06198 0.0
C265 C 0.76369 0.54637 0.23381 0.0
O266 O 0.77635 0.58524 0.14123 0.0
O267 O 0.79432 0.57525 0.1491 0.0
O268 O 0.76657 0.53787 0.20228 0.0
O269 O 0.76165 0.55904 0.21956 0.0
C270 C 0.7297 0.53923 0.12964 0.0
O271 O 0.77679 0.5411 0.10021 0.0
O272 O 0.76458 0.55413 0.06553 0.0
In273 In 0.52758 0.09964 0.00262 0.0
O274 O 0.49893 0.09074 0.0269 0.0
O275 O 0.51548 0.11745 0.00422 0.0
C276 C 0.52426 0.0673 0.99119 0.0
C277 C 0.54612 0.11212 0.08273 0.0
C278 C 0.53818 0.11152 0.91528 0.0
O279 O 0.51094 0.06942 0.9971 0.0
O280 O 0.53925 0.08153 0.99111 0.0
O281 O 0.54859 0.11818 0.94964 0.0
O282 O 0.52273 0.09906 0.92525 0.0
C283 C 0.50055 0.1059 0.02008 0.0
O284 O 0.54802 0.12234 0.04917 0.0
O285 O 0.53538 0.09584 0.07528 0.0
In286 In 0.90232 0.42978 0.02104 0.0
O287 O 0.88257 0.43208 0.07061 0.0
O288 O 0.90902 0.44082 0.09393 0.0
C289 C 0.88913 0.42561 0.93395 0.0
C290 C 0.89374 0.39654 0.04606 0.0
C291 C 0.93474 0.45803 0.00438 0.0
O292 O 0.88707 0.43522 0.96372 0.0
O293 O 0.89736 0.41798 0.94857 0.0
O294 O 0.93253 0.4427 0.01313 0.0
O295 O 0.92062 0.45893 0.00368 0.0
C296 C 0.89377 0.43842 0.10352 0.0
O297 O 0.90978 0.40857 0.03907 0.0
O298 O 0.8823 0.40133 0.03973 0.0
In299 In 0.56898 0.48755 0.0701 0.0
O300 O 0.5989 0.50726 0.06645 0.0
O301 O 0.58989 0.47933 0.07009 0.0
C302 C 0.55247 0.50658 0.05853 0.0
C303 C 0.56426 0.47995 0.16203 0.0
C304 C 0.558 0.46949 0.98913 0.0
O305 O 0.56926 0.51374 0.05528 0.0
O306 O 0.54438 0.4902 0.06888 0.0
O307 O 0.55167 0.46203 0.02802 0.0
O308 O 0.56995 0.48571 0.99164 0.0
C309 C 0.60296 0.49508 0.06838 0.0
O310 O 0.55563 0.4681 0.13159 0.0
O311 O 0.57465 0.4953 0.14589 0.0
In312 In 0.55808 0.79548 0.85533 0.0
O313 O 0.54312 0.77085 0.90246 0.0
O314 O 0.56729 0.79292 0.92708 0.0
C315 C 0.54631 0.7833 0.76851 0.0
C316 C 0.53941 0.81092 0.88372 0.0
C317 C 0.59346 0.81267 0.83981 0.0
O318 O 0.55004 0.77457 0.79722 0.0
O319 O 0.54812 0.79773 0.78401 0.0
O320 O 0.58507 0.8209 0.84772 0.0
O321 O 0.58396 0.79586 0.83952 0.0
C322 C 0.55419 0.77767 0.93544 0.0
O323 O 0.55575 0.82006 0.873 0.0
O324 O 0.53268 0.79425 0.8794 0.0
In325 In 0.19239 0.76299 0.85702 0.0
O326 O 0.21373 0.77651 0.91431 0.0
O327 O 0.18751 0.75626 0.93344 0.0
C328 C 0.20917 0.77167 0.77408 0.0
C329 C 0.18016 0.72784 0.85576 0.0
C330 C 0.17528 0.78181 0.85287 0.0
O331 O 0.21757 0.77769 0.81195 0.0
O332 O 0.19261 0.76129 0.77849 0.0
O333 O 0.16715 0.76503 0.84846 0.0
O334 O 0.19182 0.78889 0.86008 0.0
C335 C 0.20317 0.76712 0.94644 0.0
O336 O 0.16978 0.73422 0.85613 0.0
O337 O 0.19662 0.73926 0.85451 0.0
In338 In 0.24119 0.41942 0.87716 0.0
O339 O 0.22956 0.4289 0.93627 0.0
O340 O 0.24677 0.41888 0.95386 0.0
C341 C 0.23337 0.42923 0.79483 0.0
C342 C 0.27688 0.43809 0.8752 0.0
C343 C 0.22053 0.38371 0.87099 0.0
O344 O 0.22812 0.43214 0.83329 0.0
O345 O 0.24283 0.42199 0.7984 0.0
O346 O 0.23734 0.3915 0.8697 0.0
O347 O 0.21417 0.39391 0.87628 0.0
C348 C 0.23751 0.42543 0.96806 0.0
O349 O 0.2681 0.42136 0.86975 0.0
O350 O 0.26758 0.44555 0.88015 0.0
In351 In 0.47036 0.90457 0.96378 0.0
O352 O 0.49311 0.89847 0.95506 0.0
O353 O 0.46678 0.87687 0.96654 0.0
C354 C 0.48753 0.94043 0.96382 0.0
C355 C 0.45387 0.89858 0.88027 0.0
C356 C 0.45839 0.89842 0.05254 0.0
O357 O 0.49579 0.93181 0.96245 0.0
O358 O 0.47072 0.93093 0.96483 0.0
O359 O 0.44811 0.89076 0.0184 0.0
O360 O 0.4744 0.90912 0.04172 0.0
C361 C 0.48299 0.88181 0.95962 0.0
O362 O 0.44554 0.89623 0.91824 0.0
O363 O 0.47025 0.90382 0.88478 0.0
In364 In 0.09712 0.56819 0.972 0.0
O365 O 0.1079 0.55264 0.93114 0.0
O366 O 0.09545 0.56488 0.89418 0.0
C367 C 0.10636 0.56852 0.06176 0.0
C368 C 0.11893 0.60236 0.94922 0.0
C369 C 0.06125 0.54917 0.97757 0.0
O370 O 0.10573 0.5571 0.03314 0.0
O371 O 0.10254 0.57965 0.04495 0.0
O372 O 0.06959 0.56587 0.97124 0.0
O373 O 0.071 0.54224 0.98128 0.0
C374 C 0.10339 0.55601 0.89215 0.0
O375 O 0.10225 0.59592 0.95365 0.0
O376 O 0.12452 0.59165 0.95764 0.0
In377 In 0.43443 0.54466 0.97907 0.0
O378 O 0.41528 0.51571 0.96081 0.0
O379 O 0.40444 0.53275 0.97265 0.0
C380 C 0.46446 0.54267 0.9855 0.0
C381 C 0.43863 0.56174 0.89766 0.0
C382 C 0.43059 0.55207 0.06808 0.0
O383 O 0.44907 0.5291 0.9834 0.0
O384 O 0.46482 0.55743 0.98323 0.0
O385 O 0.4316 0.56225 0.0351 0.0
O386 O 0.43142 0.53854 0.05572 0.0
C387 C 0.40159 0.51739 0.96166 0.0
O388 O 0.44249 0.57013 0.93593 0.0
O389 O 0.43321 0.5453 0.90104 0.0
In390 In 0.09764 0.52417 0.47481 0.0
O391 O 0.11114 0.54922 0.42935 0.0
O392 O 0.09338 0.52405 0.39761 0.0
C393 C 0.10781 0.53062 0.56407 0.0
C394 C 0.11649 0.50864 0.45124 0.0
C395 C 0.06455 0.51851 0.48834 0.0
O396 O 0.11173 0.5432 0.53533 0.0
O397 O 0.09913 0.51504 0.54742 0.0
O398 O 0.06717 0.50559 0.47968 0.0
O399 O 0.07844 0.5337 0.48952 0.0
C400 C 0.1039 0.5406 0.39231 0.0
O401 O 0.09961 0.49952 0.4556 0.0
O402 O 0.12343 0.52513 0.46 0.0
In403 In 0.46319 0.57316 0.48385 0.0
O404 O 0.44237 0.57404 0.43602 0.0
O405 O 0.45545 0.56014 0.41291 0.0
C406 C 0.45462 0.58118 0.56755 0.0
C407 C 0.49123 0.60333 0.45194 0.0
C408 C 0.4653 0.54387 0.50427 0.0
O409 O 0.44313 0.56918 0.54154 0.0
O410 O 0.47013 0.58931 0.55085 0.0
O411 O 0.47897 0.55888 0.49651 0.0
O412 O 0.45066 0.5437 0.50181 0.0
C413 C 0.44454 0.56536 0.40376 0.0
O414 O 0.49321 0.59121 0.47075 0.0
O415 O 0.47534 0.60017 0.44999 0.0
In416 In 0.42548 0.91277 0.46273 0.0
O417 O 0.4263 0.89156 0.41597 0.0
O418 O 0.441 0.91857 0.39456 0.0
C419 C 0.42499 0.90168 0.55163 0.0
C420 C 0.39207 0.90212 0.4339 0.0
C421 C 0.44601 0.9483 0.47248 0.0
O422 O 0.43712 0.90409 0.52318 0.0
O423 O 0.41313 0.9044 0.53489 0.0
O424 O 0.42937 0.94069 0.4659 0.0
O425 O 0.45234 0.93793 0.47453 0.0
C426 C 0.43586 0.90252 0.38497 0.0
O427 O 0.40362 0.91838 0.43907 0.0
O428 O 0.39733 0.89128 0.4439 0.0
In429 In 0.18788 0.4175 0.37787 0.0
O430 O 0.16518 0.42366 0.37481 0.0
O431 O 0.19199 0.44543 0.37428 0.0
C432 C 0.1705 0.38157 0.37255 0.0
C433 C 0.19782 0.42369 0.46853 0.0
C434 C 0.20529 0.42556 0.29539 0.0
O435 O 0.16253 0.39043 0.37011 0.0
O436 O 0.18715 0.39082 0.37833 0.0
O437 O 0.21339 0.42811 0.33385 0.0
O438 O 0.18866 0.4192 0.2989 0.0
C439 C 0.17553 0.44041 0.37427 0.0
O440 O 0.20889 0.4258 0.4368 0.0
O441 O 0.18215 0.4182 0.45444 0.0
In442 In 0.57111 0.76148 0.3577 0.0
O443 O 0.55291 0.76787 0.40204 0.0
O444 O 0.56926 0.75939 0.43615 0.0
C445 C 0.56105 0.76136 0.26906 0.0
C446 C 0.56298 0.72723 0.36321 0.0
C447 C 0.60262 0.79205 0.35695 0.0
O448 O 0.551 0.75977 0.30295 0.0
O449 O 0.57598 0.7632 0.28015 0.0
O450 O 0.60152 0.77689 0.35624 0.0
O451 O 0.58786 0.79169 0.35881 0.0
C452 C 0.55777 0.76422 0.44008 0.0
O453 O 0.57863 0.73988 0.37117 0.0
O454 O 0.55191 0.73203 0.35203 0.0
In455 In 0.23081 0.81325 0.35803 0.0
O456 O 0.25361 0.842 0.35322 0.0
O457 O 0.25982 0.82099 0.35506 0.0
C458 C 0.20136 0.81642 0.3589 0.0
C459 C 0.232 0.80385 0.44683 0.0
C460 C 0.22775 0.79772 0.2746 0.0
O461 O 0.21684 0.82976 0.35422 0.0
O462 O 0.20086 0.80168 0.36348 0.0
O463 O 0.22518 0.78922 0.31237 0.0
O464 O 0.23185 0.81382 0.27928 0.0
C465 C 0.26554 0.8376 0.35371 0.0
O466 O 0.22554 0.79229 0.41473 0.0
O467 O 0.23736 0.81967 0.43414 0.0
H468 H 0.26192 0.13057 0.8597 0.0
H469 H 0.20817 0.08646 0.83877 0.0
H470 H 0.20166 0.08724 0.92241 0.0
H471 H 0.26944 0.11785 0.97096 0.0
H472 H 0.28145 0.14026 0.99366 0.0
H473 H 0.28175 0.13644 0.93212 0.0
H474 H 0.26987 0.15808 0.91493 0.0
H475 H 0.26977 0.16215 0.97639 0.0
H476 H 0.24965 0.15448 0.94276 0.0
H477 H 0.20187 0.09171 0.01023 0.0
H478 H 0.20756 0.10202 0.09231 0.0
H479 H 0.26055 0.14414 0.05384 0.0
C480 C 0.24872 0.1212 0.87264 0.0
C481 C 0.23554 0.10845 0.84283 0.0
C482 C 0.21842 0.09642 0.861 0.0
C483 C 0.21465 0.09669 0.9085 0.0
C484 C 0.22806 0.10922 0.93719 0.0
C485 C 0.24465 0.12147 0.91972 0.0
C486 C 0.25665 0.13383 0.95753 0.0
C487 C 0.2733 0.13197 0.96393 0.0
C488 C 0.26178 0.15328 0.94729 0.0
C489 C 0.24431 0.12653 0.99914 0.0
C490 C 0.22794 0.11221 0.98694 0.0
C491 C 0.21459 0.10302 0.02004 0.0
C492 C 0.21796 0.10887 0.06657 0.0
C493 C 0.23444 0.12389 0.07928 0.0
C494 C 0.24777 0.13268 0.04506 0.0
H495 H 0.92028 0.13833 0.8415 0.0
H496 H 0.88074 0.08756 0.78286 0.0
H497 H 0.87471 0.07404 0.86154 0.0
H498 H 0.93645 0.11953 0.93513 0.0
H499 H 0.93928 0.13672 0.97547 0.0
H500 H 0.94242 0.14145 0.91396 0.0
H501 H 0.91907 0.15187 0.91622 0.0
H502 H 0.9158 0.14712 0.97746 0.0
H503 H 0.897 0.13693 0.93841 0.0
H504 H 0.86927 0.06783 0.94715 0.0
H505 H 0.86599 0.06892 0.03242 0.0
H506 H 0.91028 0.12328 0.03485 0.0
C507 C 0.91068 0.12424 0.84506 0.0
C508 C 0.90095 0.11395 0.80629 0.0
C509 C 0.88841 0.09561 0.81219 0.0
C510 C 0.88493 0.08784 0.85669 0.0
C511 C 0.89438 0.09854 0.89452 0.0
C512 C 0.90723 0.11628 0.88897 0.0
C513 C 0.91449 0.12531 0.93537 0.0
C514 C 0.93434 0.13109 0.94026 0.0
C515 C 0.91139 0.14124 0.94224 0.0
C516 C 0.9031 0.11013 0.96815 0.0
C517 C 0.8917 0.09474 0.94394 0.0
C518 C 0.87847 0.07962 0.96651 0.0
C519 C 0.87667 0.08037 0.01485 0.0
C520 C 0.88811 0.09607 0.04003 0.0
C521 C 0.90176 0.11094 0.01651 0.0
H522 H 0.86431 0.75689 0.04648 0.0
H523 H 0.91976 0.77071 0.0348 0.0
H524 H 0.91833 0.77338 0.94956 0.0
H525 H 0.84945 0.72941 0.9475 0.0
H526 H 0.83351 0.73588 0.92962 0.0
H527 H 0.83937 0.73695 0.99011 0.0
H528 H 0.84847 0.77041 0.99262 0.0
H529 H 0.84253 0.76941 0.93212 0.0
H530 H 0.86461 0.7857 0.95142 0.0
H531 H 0.91036 0.77269 0.86498 0.0
H532 H 0.89618 0.76835 0.78753 0.0
H533 H 0.84585 0.75427 0.85451 0.0
C534 C 0.87623 0.76084 0.02603 0.0
C535 C 0.89217 0.76373 0.0472 0.0
C536 C 0.90741 0.7685 0.01924 0.0
C537 C 0.90675 0.77008 0.97081 0.0
C538 C 0.89073 0.7668 0.95082 0.0
C539 C 0.87575 0.76231 0.97752 0.0
C540 C 0.85989 0.75834 0.94716 0.0
C541 C 0.84466 0.73899 0.95401 0.0
C542 C 0.8535 0.77177 0.95638 0.0
C543 C 0.86822 0.76102 0.89931 0.0
C544 C 0.88606 0.76607 0.90211 0.0
C545 C 0.89642 0.76886 0.86234 0.0
C546 C 0.88827 0.76635 0.81854 0.0
C547 C 0.86995 0.76098 0.81503 0.0
C548 C 0.8599 0.75841 0.85604 0.0
H549 H 0.09236 0.20949 0.45132 0.0
H550 H 0.13551 0.19772 0.45085 0.0
H551 H 0.13361 0.19476 0.53667 0.0
H552 H 0.10803 0.23784 0.54484 0.0
H553 H 0.08653 0.23181 0.56921 0.0
H554 H 0.08864 0.22926 0.50783 0.0
H555 H 0.06452 0.19578 0.51301 0.0
H556 H 0.06221 0.19825 0.57452 0.0
H557 H 0.06722 0.18153 0.55405 0.0
H558 H 0.12896 0.1961 0.62329 0.0
H559 H 0.12329 0.20358 0.70259 0.0
H560 H 0.08491 0.2167 0.64527 0.0
C561 C 0.10092 0.20561 0.46921 0.0
C562 C 0.11382 0.20344 0.44464 0.0
C563 C 0.12536 0.19917 0.46922 0.0
C564 C 0.12435 0.19743 0.51788 0.0
C565 C 0.11183 0.20019 0.54138 0.0
C566 C 0.10034 0.20424 0.51779 0.0
C567 C 0.0898 0.20895 0.55117 0.0
C568 C 0.09349 0.2281 0.54276 0.0
C569 C 0.06975 0.19531 0.548 0.0
C570 C 0.09749 0.20743 0.59708 0.0
C571 C 0.10987 0.20195 0.59096 0.0
C572 C 0.11917 0.20024 0.62851 0.0
C573 C 0.11589 0.2045 0.67335 0.0
C574 C 0.10375 0.21076 0.6798 0.0
C575 C 0.0943 0.21197 0.64123 0.0
H576 H 0.76305 0.91435 0.47433 0.0
H577 H 0.78503 0.88309 0.41627 0.0
H578 H 0.78918 0.87482 0.49566 0.0
H579 H 0.79198 0.93004 0.57948 0.0
H580 H 0.77419 0.92839 0.6157 0.0
H581 H 0.77482 0.93352 0.55465 0.0
H582 H 0.74286 0.90661 0.54449 0.0
H583 H 0.74213 0.9014 0.60535 0.0
H584 H 0.7382 0.88468 0.56221 0.0
H585 H 0.78727 0.86681 0.57931 0.0
H586 H 0.78015 0.86014 0.66278 0.0
H587 H 0.7607 0.89755 0.66815 0.0
C588 C 0.76905 0.90604 0.47838 0.0
C589 C 0.77376 0.89937 0.4392 0.0
C590 C 0.78139 0.88839 0.44583 0.0
C591 C 0.78385 0.88367 0.49077 0.0
C592 C 0.77879 0.89022 0.52865 0.0
C593 C 0.77169 0.90129 0.52302 0.0
C594 C 0.76628 0.90553 0.56942 0.0
C595 C 0.77749 0.92556 0.58046 0.0
C596 C 0.74618 0.89917 0.5704 0.0
C597 C 0.77085 0.89459 0.60189 0.0
C598 C 0.77819 0.88598 0.57756 0.0
C599 C 0.78196 0.87379 0.59893 0.0
C600 C 0.77786 0.87008 0.64619 0.0
C601 C 0.77029 0.87866 0.67161 0.0
C602 C 0.76703 0.89131 0.64954 0.0
H603 H 0.13887 0.90913 0.65194 0.0
H604 H 0.08662 0.88263 0.71714 0.0
H605 H 0.07247 0.8766 0.63931 0.0
H606 H 0.12727 0.92951 0.5554 0.0
H607 H 0.14119 0.92622 0.51456 0.0
H608 H 0.14709 0.92965 0.57537 0.0
H609 H 0.14783 0.90006 0.57724 0.0
H610 H 0.14197 0.89655 0.51655 0.0
H611 H 0.12847 0.87966 0.55858 0.0
H612 H 0.06422 0.87068 0.55452 0.0
H613 H 0.06241 0.866 0.46935 0.0
H614 H 0.12005 0.89769 0.4595 0.0
C615 C 0.12444 0.90226 0.64991 0.0
C616 C 0.11381 0.89632 0.69053 0.0
C617 C 0.09499 0.88733 0.68643 0.0
C618 C 0.08686 0.88389 0.64241 0.0
C619 C 0.09776 0.88975 0.603 0.0
C620 C 0.11615 0.89889 0.60639 0.0
C621 C 0.12486 0.90305 0.55877 0.0
C622 C 0.13574 0.92331 0.55055 0.0
C623 C 0.13646 0.8943 0.55243 0.0
C624 C 0.1085 0.89439 0.52792 0.0
C625 C 0.09299 0.88684 0.55411 0.0
C626 C 0.07625 0.87683 0.53364 0.0
C627 C 0.07535 0.87423 0.4853 0.0
C628 C 0.09107 0.88174 0.45795 0.0
C629 C 0.10781 0.89223 0.47948 0.0
H630 H 0.76596 0.91277 0.13672 0.0
H631 H 0.77534 0.87289 0.20173 0.0
H632 H 0.77779 0.86204 0.12399 0.0
H633 H 0.73899 0.88612 0.04542 0.0
H634 H 0.74782 0.90358 1.00221 0.0
H635 H 0.7482 0.90911 0.06274 0.0
H636 H 0.78239 0.93049 0.05809 0.0
H637 H 0.78211 0.92503 0.99742 0.0
H638 H 0.79654 0.92216 0.03741 0.0
H639 H 0.77579 0.85341 0.04024 0.0
H640 H 0.77117 0.84858 0.95543 0.0
H641 H 0.76495 0.89517 0.94392 0.0
C642 C 0.76876 0.9019 0.13456 0.0
C643 C 0.77044 0.89363 0.17518 0.0
C644 C 0.77407 0.87944 0.17102 0.0
C645 C 0.77549 0.8732 0.12704 0.0
C646 C 0.77352 0.88149 0.08767 0.0
C647 C 0.77044 0.89567 0.09095 0.0
C648 C 0.76824 0.90181 0.04322 0.0
C649 C 0.74971 0.90004 0.03812 0.0
C650 C 0.78321 0.92101 0.03347 0.0
C651 C 0.77004 0.88853 0.01259 0.0
C652 C 0.77309 0.87695 0.03902 0.0
C653 C 0.77376 0.86261 0.0191 0.0
C654 C 0.77108 0.85994 0.97101 0.0
C655 C 0.76799 0.87166 0.94332 0.0
C656 C 0.76775 0.88631 0.96426 0.0
H657 H 0.12117 0.87759 0.17457 0.0
H658 H 0.09226 0.9058 0.19871 0.0
H659 H 0.09672 0.91539 0.11599 0.0
H660 H 0.15411 0.91063 0.0929 0.0
H661 H 0.15475 0.89354 0.05846 0.0
H662 H 0.15022 0.89018 0.11998 0.0
H663 H 0.12089 0.8607 0.10258 0.0
H664 H 0.12518 0.86409 0.04107 0.0
H665 H 0.10453 0.86109 0.06448 0.0
H666 H 0.10138 0.9186 0.02762 0.0
H667 H 0.10923 0.91846 0.94449 0.0
H668 H 0.13664 0.88974 0.98128 0.0
C669 C 0.11608 0.88609 0.16264 0.0
C670 C 0.1064 0.891 0.19279 0.0
C671 C 0.09989 0.90207 0.1761 0.0
C672 C 0.10226 0.90747 0.12918 0.0
C673 C 0.11148 0.90196 0.09991 0.0
C674 C 0.11863 0.89184 0.11639 0.0
C675 C 0.12782 0.88745 0.07813 0.0
C676 C 0.14792 0.89596 0.08796 0.0
C677 C 0.11907 0.86713 0.07117 0.0
C678 C 0.12434 0.89624 0.03715 0.0
C679 C 0.11481 0.90446 0.05012 0.0
C680 C 0.10913 0.91248 0.0173 0.0
C681 C 0.11353 0.91225 0.97021 0.0
C682 C 0.12367 0.90426 0.9567 0.0
C683 C 0.1291 0.8962 0.99073 0.0
H684 H 0.09701 0.23837 0.9707 0.0
H685 H 0.0814 0.18399 0.93225 0.0
H686 H 0.07882 0.17586 0.01596 0.0
H687 H 0.12492 0.24155 0.06183 0.0
H688 H 0.11963 0.25537 0.09775 0.0
H689 H 0.11787 0.25594 0.03551 0.0
H690 H 0.08489 0.24814 0.04385 0.0
H691 H 0.08652 0.24737 0.10627 0.0
H692 H 0.06939 0.22836 0.07541 0.0
H693 H 0.07967 0.17442 0.10483 0.0
H694 H 0.08735 0.18059 0.18851 0.0
H695 H 0.10371 0.23625 0.16611 0.0
C696 C 0.09275 0.22465 0.97978 0.0
C697 C 0.08922 0.21174 0.94513 0.0
C698 C 0.08408 0.19405 0.9584 0.0
C699 C 0.08247 0.18931 0.00578 0.0
C700 C 0.08612 0.20245 0.03917 0.0
C701 C 0.09131 0.2198 0.02654 0.0
C702 C 0.09624 0.23194 0.06841 0.0
C703 C 0.11582 0.24708 0.0657 0.0
C704 C 0.08349 0.23939 0.07379 0.0
C705 C 0.09346 0.21885 0.10675 0.0
C706 C 0.08721 0.2018 0.08955 0.0
C707 C 0.0844 0.18769 0.11864 0.0
C708 C 0.08866 0.19126 0.16613 0.0
C709 C 0.09598 0.20886 0.18355 0.0
C710 C 0.09795 0.22265 0.15366 0.0
H711 H 0.85963 0.73342 0.33366 0.0
H712 H 0.88946 0.79005 0.30306 0.0
H713 H 0.88597 0.79679 0.38501 0.0
H714 H 0.82769 0.73626 0.41484 0.0
H715 H 0.82654 0.7188 0.45153 0.0
H716 H 0.83061 0.71873 0.39002 0.0
H717 H 0.85937 0.71762 0.40816 0.0
H718 H 0.85559 0.71801 0.46965 0.0
H719 H 0.87637 0.73469 0.44431 0.0
H720 H 0.88284 0.79703 0.47308 0.0
H721 H 0.87553 0.79084 0.55706 0.0
H722 H 0.84507 0.73416 0.52759 0.0
C723 C 0.86504 0.74722 0.34406 0.0
C724 C 0.87475 0.76125 0.31231 0.0
C725 C 0.88177 0.77915 0.32691 0.0
C726 C 0.87997 0.78308 0.3734 0.0
C727 C 0.87074 0.76892 0.40432 0.0
C728 C 0.86293 0.75134 0.38988 0.0
C729 C 0.85363 0.73856 0.42977 0.0
C730 C 0.83342 0.72743 0.42101 0.0
C731 C 0.86173 0.72652 0.43847 0.0
C732 C 0.85784 0.75166 0.46924 0.0
C733 C 0.86793 0.76911 0.45409 0.0
C734 C 0.8746 0.78344 0.48512 0.0
C735 C 0.87053 0.77982 0.53267 0.0
C736 C 0.85962 0.76208 0.54833 0.0
C737 C 0.85321 0.74787 0.5162 0.0
H738 H 0.23978 0.09251 0.54121 0.0
H739 H 0.2228 0.12656 0.60801 0.0
H740 H 0.21718 0.13536 0.5308 0.0
H741 H 0.26342 0.12165 0.4504 0.0
H742 H 0.25731 0.10465 0.40659 0.0
H743 H 0.258 0.09938 0.46687 0.0
H744 H 0.22519 0.07368 0.462 0.0
H745 H 0.22439 0.07885 0.40156 0.0
H746 H 0.20818 0.07833 0.44195 0.0
H747 H 0.21642 0.14284 0.44734 0.0
H748 H 0.22037 0.14851 0.36289 0.0
H749 H 0.23741 0.10931 0.34891 0.0
C750 C 0.23453 0.10153 0.5396 0.0
C751 C 0.23162 0.10878 0.58065 0.0
C752 C 0.22503 0.12078 0.57707 0.0
C753 C 0.22177 0.12582 0.53336 0.0
C754 C 0.22507 0.11867 0.49357 0.0
C755 C 0.23121 0.10671 0.49622 0.0
C756 C 0.23482 0.10195 0.44809 0.0
C757 C 0.25456 0.10723 0.44269 0.0
C758 C 0.2224 0.08202 0.4378 0.0
C759 C 0.23021 0.11349 0.41798 0.0
C760 C 0.22447 0.12289 0.44503 0.0
C761 C 0.22062 0.13535 0.42576 0.0
C762 C 0.22295 0.1385 0.37775 0.0
C763 C 0.22903 0.12922 0.34936 0.0
C764 C 0.23238 0.11631 0.36966 0.0
H765 H 0.8934 0.14193 0.51838 0.0
H766 H 0.92037 0.1126 0.55329 0.0
H767 H 0.92325 0.10791 0.46921 0.0
H768 H 0.8677 0.11356 0.42594 0.0
H769 H 0.86877 0.13147 0.39139 0.0
H770 H 0.87015 0.13335 0.4538 0.0
H771 H 0.90016 0.16312 0.44635 0.0
H772 H 0.89899 0.16117 0.38384 0.0
H773 H 0.9183 0.16358 0.41424 0.0
H774 H 0.92277 0.10637 0.38038 0.0
H775 H 0.9154 0.10459 0.29638 0.0
H776 H 0.88777 0.13397 0.32212 0.0
C777 C 0.90001 0.1346 0.50835 0.0
C778 C 0.90677 0.12771 0.54209 0.0
C779 C 0.91508 0.11795 0.52777 0.0
C780 C 0.9169 0.11537 0.48019 0.0
C781 C 0.91022 0.12253 0.44768 0.0
C782 C 0.90171 0.13173 0.46133 0.0
C783 C 0.89452 0.13701 0.42013 0.0
C784 C 0.87408 0.12832 0.42299 0.0
C785 C 0.90354 0.15743 0.41591 0.0
C786 C 0.90012 0.1292 0.381 0.0
C787 C 0.90945 0.12118 0.39729 0.0
C788 C 0.91555 0.11268 0.36727 0.0
C789 C 0.91144 0.11185 0.31965 0.0
C790 C 0.90111 0.11922 0.30301 0.0
C791 C 0.89579 0.12833 0.33397 0.0
H792 H 0.91704 0.45994 0.16932 0.0
H793 H 0.86084 0.42292 0.14569 0.0
H794 H 0.85477 0.42448 0.22955 0.0
H795 H 0.92071 0.44313 0.27638 0.0
H796 H 0.93588 0.46455 0.30162 0.0
H797 H 0.93545 0.46155 0.23955 0.0
H798 H 0.92943 0.48777 0.22706 0.0
H799 H 0.93014 0.49106 0.28911 0.0
H800 H 0.91087 0.48752 0.25636 0.0
H801 H 0.85577 0.42803 0.31832 0.0
H802 H 0.86309 0.43599 0.40157 0.0
H803 H 0.91847 0.47141 0.36433 0.0
C804 C 0.90339 0.45241 0.18161 0.0
C805 C 0.88938 0.44133 0.1512 0.0
C806 C 0.87171 0.43163 0.16847 0.0
C807 C 0.86819 0.43235 0.21603 0.0
C808 C 0.88246 0.44303 0.24543 0.0
C809 C 0.89965 0.45315 0.22855 0.0
C810 C 0.91275 0.46338 0.26698 0.0
C811 C 0.92703 0.45781 0.27137 0.0
C812 C 0.92129 0.48363 0.25943 0.0
C813 C 0.90035 0.45722 0.30846 0.0
C814 C 0.88294 0.44541 0.29559 0.0
C815 C 0.86933 0.43744 0.32861 0.0
C816 C 0.87361 0.44192 0.37578 0.0
C817 C 0.89132 0.45435 0.38924 0.0
C818 C 0.90479 0.46197 0.35502 0.0
H819 H 0.53734 0.45186 0.21098 0.0
H820 H 0.58851 0.50028 0.22765 0.0
H821 H 0.58698 0.4954 0.31248 0.0
H822 H 0.51737 0.45844 0.31201 0.0
H823 H 0.5048 0.43513 0.32736 0.0
H824 H 0.51051 0.44159 0.26745 0.0
H825 H 0.5257 0.42231 0.26253 0.0
H826 H 0.52006 0.41583 0.32253 0.0
H827 H 0.54296 0.426 0.30363 0.0
H828 H 0.57972 0.48582 0.39576 0.0
H829 H 0.56615 0.47314 0.47225 0.0
H830 H 0.51917 0.43164 0.40251 0.0
C831 C 0.54828 0.46129 0.23252 0.0
C832 C 0.56309 0.4764 0.21272 0.0
C833 C 0.57703 0.48862 0.24208 0.0
C834 C 0.57633 0.48593 0.29031 0.0
C835 C 0.56153 0.47101 0.30888 0.0
C836 C 0.54768 0.45895 0.28103 0.0
C837 C 0.53282 0.44463 0.31031 0.0
C838 C 0.51535 0.44498 0.3039 0.0
C839 C 0.53024 0.4261 0.29907 0.0
C840 C 0.54043 0.45065 0.35882 0.0
C841 C 0.5571 0.46576 0.35716 0.0
C842 C 0.56668 0.47395 0.39753 0.0
C843 C 0.55889 0.46664 0.44081 0.0
C844 C 0.54163 0.45142 0.44337 0.0
C845 C 0.53241 0.44327 0.4017 0.0
H846 H 0.5678 0.0971 0.33993 0.0
H847 H 0.57174 0.14754 0.37701 0.0
H848 H 0.56961 0.15356 0.29339 0.0
H849 H 0.59171 0.11057 0.22872 0.0
H850 H 0.57665 0.0895 0.20167 0.0
H851 H 0.58092 0.0905 0.26332 0.0
H852 H 0.54698 0.07558 0.27997 0.0
H853 H 0.54261 0.07446 0.21852 0.0
H854 H 0.53457 0.08547 0.25664 0.0
H855 H 0.56556 0.15305 0.20514 0.0
H856 H 0.55657 0.14463 0.12286 0.0
H857 H 0.55337 0.09363 0.14681 0.0
C858 C 0.56861 0.1096 0.33044 0.0
C859 C 0.5702 0.122 0.36468 0.0
C860 C 0.57066 0.13796 0.35109 0.0
C861 C 0.56955 0.1415 0.30376 0.0
C862 C 0.56783 0.12885 0.2708 0.0
C863 C 0.56719 0.11314 0.28379 0.0
C864 C 0.56337 0.10081 0.24279 0.0
C865 C 0.5791 0.09767 0.23359 0.0
C866 C 0.54584 0.08304 0.24992 0.0
C867 C 0.56165 0.11184 0.2046 0.0
C868 C 0.56465 0.12816 0.22101 0.0
C869 C 0.56329 0.14036 0.19194 0.0
C870 C 0.55827 0.13552 0.14529 0.0
C871 C 0.55434 0.11852 0.12877 0.0
C872 C 0.55638 0.10674 0.15863 0.0
H873 H 0.76494 0.54016 0.78798 0.0
H874 H 0.81378 0.53775 0.78604 0.0
H875 H 0.8117 0.53318 0.87139 0.0
H876 H 0.77588 0.56665 0.8845 0.0
H877 H 0.75362 0.55681 0.90806 0.0
H878 H 0.75678 0.55597 0.84648 0.0
H879 H 0.737 0.52149 0.84777 0.0
H880 H 0.73366 0.52222 0.9095 0.0
H881 H 0.74237 0.50861 0.88713 0.0
H882 H 0.80602 0.53227 0.95809 0.0
H883 H 0.79828 0.53705 0.03799 0.0
H884 H 0.75445 0.54208 0.9821 0.0
C885 C 0.77481 0.53799 0.80534 0.0
C886 C 0.78933 0.53896 0.78056 0.0
C887 C 0.80243 0.53681 0.80455 0.0
C888 C 0.80132 0.53416 0.85293 0.0
C889 C 0.78711 0.53383 0.87672 0.0
C890 C 0.77409 0.53571 0.85363 0.0
C891 C 0.7616 0.53736 0.88746 0.0
C892 C 0.76201 0.55526 0.88125 0.0
C893 C 0.74253 0.52147 0.88268 0.0
C894 C 0.76992 0.53668 0.93312 0.0
C895 C 0.78435 0.53421 0.92644 0.0
C896 C 0.79461 0.53401 0.96375 0.0
C897 C 0.79014 0.53672 0.00893 0.0
C898 C 0.77584 0.53997 0.01595 0.0
C899 C 0.76548 0.53962 0.97763 0.0
H900 H 0.42767 0.22799 0.8081 0.0
H901 H 0.48206 0.24128 0.77812 0.0
H902 H 0.48739 0.23985 0.86252 0.0
H903 H 0.43582 0.25162 0.91759 0.0
H904 H 0.41557 0.23438 0.94387 0.0
H905 H 0.41663 0.23789 0.88184 0.0
H906 H 0.40728 0.20471 0.86791 0.0
H907 H 0.40602 0.20108 0.92979 0.0
H908 H 0.41998 0.19573 0.89459 0.0
H909 H 0.48636 0.23664 0.9509 0.0
H910 H 0.47813 0.22829 0.03349 0.0
H911 H 0.42389 0.21541 0.00319 0.0
C912 C 0.44077 0.23079 0.81933 0.0
C913 C 0.45454 0.23494 0.78686 0.0
C914 C 0.47138 0.23813 0.80265 0.0
C915 C 0.47453 0.23746 0.85044 0.0
C916 C 0.46063 0.23338 0.88166 0.0
C917 C 0.44401 0.22986 0.86655 0.0
C918 C 0.43086 0.22442 0.90634 0.0
C919 C 0.42434 0.23789 0.91278 0.0
C920 C 0.41511 0.20535 0.89923 0.0
C921 C 0.44259 0.22528 0.94636 0.0
C922 C 0.45981 0.23079 0.93172 0.0
C923 C 0.47293 0.23235 0.9627 0.0
C924 C 0.46818 0.22769 0.00954 0.0
C925 C 0.4504 0.22127 0.02454 0.0
C926 C 0.43759 0.22035 0.99263 0.0
H927 H 0.79059 0.22189 0.78457 0.0
H928 H 0.7329 0.19043 0.79359 0.0
H929 H 0.73455 0.19556 0.87856 0.0
H930 H 0.79892 0.20476 0.88493 0.0
H931 H 0.81819 0.22532 0.90307 0.0
H932 H 0.81242 0.22142 0.84236 0.0
H933 H 0.81134 0.2508 0.83788 0.0
H934 H 0.81729 0.2549 0.89857 0.0
H935 H 0.79737 0.25439 0.8779 0.0
H936 H 0.74271 0.20204 0.96389 0.0
H937 H 0.75686 0.20931 0.04194 0.0
H938 H 0.80909 0.23551 0.9767 0.0
C939 C 0.77829 0.21655 0.80425 0.0
C940 C 0.7616 0.20597 0.78247 0.0
C941 C 0.74582 0.19872 0.80959 0.0
C942 C 0.74662 0.20156 0.85787 0.0
C943 C 0.76332 0.21163 0.87858 0.0
C944 C 0.77887 0.21907 0.85257 0.0
C945 C 0.79517 0.22806 0.8836 0.0
C946 C 0.80685 0.21937 0.87816 0.0
C947 C 0.80592 0.24824 0.87391 0.0
C948 C 0.78639 0.22424 0.93108 0.0
C949 C 0.76801 0.21493 0.92756 0.0
C950 C 0.7571 0.20947 0.96703 0.0
C951 C 0.76523 0.21361 0.01119 0.0
C952 C 0.78404 0.22294 0.0154 0.0
C953 C 0.79466 0.22837 0.97468 0.0
H954 H 0.45324 0.24577 0.48262 0.0
H955 H 0.46387 0.206 0.54257 0.0
H956 H 0.46815 0.19738 0.46335 0.0
H957 H 0.42785 0.2208 0.39043 0.0
H958 H 0.43618 0.23889 0.34907 0.0
H959 H 0.43642 0.24343 0.41019 0.0
H960 H 0.47045 0.26567 0.40622 0.0
H961 H 0.47032 0.26122 0.34486 0.0
H962 H 0.48513 0.25834 0.38339 0.0
H963 H 0.46634 0.19003 0.37783 0.0
H964 H 0.46029 0.18565 0.29325 0.0
H965 H 0.45272 0.23153 0.28958 0.0
C966 C 0.45684 0.2355 0.47913 0.0
C967 C 0.45822 0.2265 0.51853 0.0
C968 C 0.46287 0.2131 0.51271 0.0
C969 C 0.46533 0.20815 0.46791 0.0
C970 C 0.46344 0.21701 0.42962 0.0
C971 C 0.45957 0.23061 0.4349 0.0
C972 C 0.45707 0.23727 0.38836 0.0
C973 C 0.43827 0.23494 0.3843 0.0
C974 C 0.47162 0.25678 0.38024 0.0
C975 C 0.45937 0.22479 0.35594 0.0
C976 C 0.46314 0.21326 0.38032 0.0
C977 C 0.46388 0.19928 0.35828 0.0
C978 C 0.46039 0.19687 0.31033 0.0
C979 C 0.45639 0.20847 0.28499 0.0
C980 C 0.45631 0.22283 0.30794 0.0
H981 H 0.77424 0.18838 0.48472 0.0
H982 H 0.77529 0.23624 0.53474 0.0
H983 H 0.78069 0.24812 0.45413 0.0
H984 H 0.80888 0.20962 0.39953 0.0
H985 H 0.7982 0.19157 0.35833 0.0
H986 H 0.79444 0.18712 0.41974 0.0
H987 H 0.76032 0.17222 0.40628 0.0
H988 H 0.76399 0.17677 0.34484 0.0
H989 H 0.75143 0.1846 0.37739 0.0
H990 H 0.78627 0.25469 0.36715 0.0
H991 H 0.79245 0.25581 0.28269 0.0
H992 H 0.78715 0.20328 0.29081 0.0
C993 C 0.77567 0.20141 0.47887 0.0
C994 C 0.7744 0.21143 0.51605 0.0
C995 C 0.77628 0.22837 0.50679 0.0
C996 C 0.77929 0.23518 0.46112 0.0
C997 C 0.78031 0.22485 0.42518 0.0
C998 C 0.7786 0.20833 0.4337 0.0
C999 C 0.78033 0.19985 0.38935 0.0
C1000 C 0.79642 0.19687 0.3919 0.0
C1001 C 0.76298 0.18232 0.37886 0.0
C1002 C 0.78341 0.2142 0.35438 0.0
C1003 C 0.78331 0.2285 0.37558 0.0
C1004 C 0.78629 0.24352 0.35026 0.0
C1005 C 0.78974 0.24401 0.30227 0.0
C1006 C 0.79017 0.22959 0.2801 0.0
C1007 C 0.78674 0.21444 0.3066 0.0
H1008 H 0.7744 0.5698 0.50252 0.0
H1009 H 0.76255 0.51575 0.5311 0.0
H1010 H 0.75579 0.50818 0.44767 0.0
H1011 H 0.73998 0.55785 0.40903 0.0
H1012 H 0.75453 0.57776 0.3766 0.0
H1013 H 0.75579 0.57784 0.43923 0.0
H1014 H 0.78958 0.58862 0.43346 0.0
H1015 H 0.78838 0.5882 0.37096 0.0
H1016 H 0.79683 0.5756 0.4007 0.0
H1017 H 0.75547 0.50831 0.35904 0.0
H1018 H 0.75745 0.51496 0.27446 0.0
H1019 H 0.76809 0.56846 0.30585 0.0
C1020 C 0.76977 0.5562 0.49144 0.0
C1021 C 0.76885 0.54331 0.52307 0.0
C1022 C 0.76304 0.52572 0.5074 0.0
C1023 C 0.7593 0.52136 0.46005 0.0
C1024 C 0.76111 0.53465 0.42927 0.0
C1025 C 0.76576 0.55159 0.44462 0.0
C1026 C 0.76773 0.56378 0.40454 0.0
C1027 C 0.75366 0.56964 0.40753 0.0
C1028 C 0.78676 0.58 0.40231 0.0
C1029 C 0.76412 0.55127 0.36406 0.0
C1030 C 0.76035 0.53452 0.37879 0.0
C1031 C 0.758 0.52125 0.34716 0.0
C1032 C 0.75928 0.52517 0.2993 0.0
C1033 C 0.76274 0.54214 0.28382 0.0
C1034 C 0.76513 0.55526 0.31673 0.0
H1035 H 0.53436 0.0963 0.64334 0.0
H1036 H 0.58154 0.14848 0.62921 0.0
H1037 H 0.57991 0.15415 0.7133 0.0
H1038 H 0.51139 0.10956 0.73155 0.0
H1039 H 0.50238 0.08834 0.76081 0.0
H1040 H 0.5062 0.08974 0.69887 0.0
H1041 H 0.52571 0.07499 0.70929 0.0
H1042 H 0.52225 0.07382 0.77119 0.0
H1043 H 0.54461 0.08507 0.74808 0.0
H1044 H 0.5756 0.15164 0.80159 0.0
H1045 H 0.56688 0.14277 0.88388 0.0
H1046 H 0.52169 0.09295 0.83735 0.0
C1047 C 0.54404 0.10914 0.65771 0.0
C1048 C 0.55802 0.12201 0.63012 0.0
C1049 C 0.57058 0.13858 0.6499 0.0
C1050 C 0.5698 0.14184 0.69758 0.0
C1051 C 0.55616 0.12853 0.72436 0.0
C1052 C 0.54326 0.11268 0.70474 0.0
C1053 C 0.53048 0.10011 0.74094 0.0
C1054 C 0.51149 0.09675 0.73254 0.0
C1055 C 0.5308 0.08247 0.74244 0.0
C1056 C 0.53854 0.11104 0.78437 0.0
C1057 C 0.55335 0.1274 0.77438 0.0
C1058 C 0.56378 0.13905 0.80967 0.0
C1059 C 0.55882 0.13388 0.85622 0.0
C1060 C 0.54352 0.11729 0.86676 0.0
C1061 C 0.53327 0.10587 0.83027 0.0
H1062 H 0.8891 0.46807 0.69012 0.0
H1063 H 0.88386 0.42026 0.62592 0.0
H1064 H 0.87861 0.40603 0.70347 0.0
H1065 H 0.91339 0.46845 0.78588 0.0
H1066 H 0.90306 0.47633 0.82678 0.0
H1067 H 0.90395 0.48175 0.76606 0.0
H1068 H 0.86958 0.46788 0.76481 0.0
H1069 H 0.86858 0.46241 0.82571 0.0
H1070 H 0.85552 0.44517 0.78403 0.0
H1071 H 0.87815 0.39875 0.78814 0.0
H1072 H 0.88187 0.39866 0.87339 0.0
H1073 H 0.88628 0.45075 0.88267 0.0
C1074 C 0.88646 0.45445 0.69224 0.0
C1075 C 0.88683 0.44522 0.65202 0.0
C1076 C 0.88353 0.42752 0.65627 0.0
C1077 C 0.8805 0.41933 0.70015 0.0
C1078 C 0.8806 0.42896 0.73926 0.0
C1079 C 0.88333 0.44608 0.73566 0.0
C1080 C 0.88411 0.45404 0.78321 0.0
C1081 C 0.9022 0.47114 0.79091 0.0
C1082 C 0.86852 0.45758 0.78982 0.0
C1083 C 0.88207 0.43898 0.81429 0.0
C1084 C 0.8799 0.42457 0.78822 0.0
C1085 C 0.87943 0.40977 0.80892 0.0
C1086 C 0.88158 0.40985 0.85731 0.0
C1087 C 0.88406 0.42457 0.88452 0.0
C1088 C 0.88388 0.43912 0.8628 0.0
H1089 H 0.55172 0.46426 0.71136 0.0
H1090 H 0.50248 0.41382 0.72805 0.0
H1091 H 0.5072 0.41529 0.81294 0.0
H1092 H 0.57683 0.45785 0.80508 0.0
H1093 H 0.58749 0.48083 0.82348 0.0
H1094 H 0.58111 0.47515 0.76345 0.0
H1095 H 0.56262 0.4912 0.7671 0.0
H1096 H 0.56896 0.49694 0.82703 0.0
H1097 H 0.54568 0.48485 0.81125 0.0
H1098 H 0.51653 0.42265 0.89638 0.0
H1099 H 0.52909 0.43637 0.97282 0.0
H1100 H 0.57165 0.4825 0.9027 0.0
C1101 C 0.54209 0.45344 0.73291 0.0
C1102 C 0.52679 0.43888 0.71312 0.0
C1103 C 0.5143 0.42511 0.74248 0.0
C1104 C 0.5169 0.42577 0.79075 0.0
C1105 C 0.532 0.44037 0.80932 0.0
C1106 C 0.54436 0.45401 0.78143 0.0
C1107 C 0.55881 0.46873 0.81066 0.0
C1108 C 0.57715 0.47075 0.80003 0.0
C1109 C 0.55902 0.48647 0.80359 0.0
C1110 C 0.5525 0.46131 0.8592 0.0
C1111 C 0.53714 0.44483 0.85763 0.0
C1112 C 0.52861 0.43552 0.89808 0.0
C1113 C 0.53584 0.44339 0.94133 0.0
C1114 C 0.55133 0.46047 0.94373 0.0
C1115 C 0.55982 0.46939 0.90201 0.0
H1116 H 0.55558 0.76278 0.71637 0.0
H1117 H 0.52859 0.79356 0.70909 0.0
H1118 H 0.52549 0.78908 0.62387 0.0
H1119 H 0.58162 0.78158 0.61906 0.0
H1120 H 0.5812 0.76163 0.59888 0.0
H1121 H 0.5784 0.76435 0.6598 0.0
H1122 H 0.54837 0.73446 0.66019 0.0
H1123 H 0.55115 0.73155 0.59921 0.0
H1124 H 0.53118 0.73111 0.61922 0.0
H1125 H 0.5282 0.784 0.53873 0.0
H1126 H 0.5372 0.77932 0.46048 0.0
H1127 H 0.56361 0.75311 0.52362 0.0
C1128 C 0.54847 0.76803 0.69697 0.0
C1129 C 0.54206 0.77826 0.71918 0.0
C1130 C 0.53342 0.78552 0.69259 0.0
C1131 C 0.53157 0.78301 0.64425 0.0
C1132 C 0.53853 0.77331 0.62305 0.0
C1133 C 0.54679 0.7659 0.64858 0.0
C1134 C 0.5549 0.75783 0.61704 0.0
C1135 C 0.57523 0.76689 0.62412 0.0
C1136 C 0.54585 0.73753 0.62435 0.0
C1137 C 0.55034 0.76226 0.56986 0.0
C1138 C 0.54063 0.77092 0.57397 0.0
C1139 C 0.53561 0.77704 0.53505 0.0
C1140 C 0.5408 0.77436 0.4908 0.0
C1141 C 0.55109 0.76587 0.48606 0.0
C1142 C 0.55569 0.75959 0.52615 0.0
H1143 H 0.20823 0.77464 0.49742 0.0
H1144 H 0.25868 0.82417 0.50662 0.0
H1145 H 0.26018 0.81924 0.59081 0.0
H1146 H 0.19091 0.78117 0.59989 0.0
H1147 H 0.17899 0.75806 0.61743 0.0
H1148 H 0.18333 0.76373 0.55676 0.0
H1149 H 0.19898 0.74492 0.55007 0.0
H1150 H 0.19463 0.73914 0.61085 0.0
H1151 H 0.21713 0.74937 0.58882 0.0
H1152 H 0.25504 0.81039 0.67479 0.0
H1153 H 0.24254 0.79932 0.75322 0.0
H1154 H 0.1946 0.75652 0.6903 0.0
C1155 C 0.21981 0.78411 0.51706 0.0
C1156 C 0.23348 0.79963 0.49572 0.0
C1157 C 0.24815 0.81213 0.52254 0.0
C1158 C 0.24916 0.80941 0.57025 0.0
C1159 C 0.23527 0.79419 0.59071 0.0
C1160 C 0.22082 0.78178 0.56507 0.0
C1161 C 0.20671 0.76773 0.59645 0.0
C1162 C 0.18894 0.76768 0.59239 0.0
C1163 C 0.20422 0.74919 0.58591 0.0
C1164 C 0.21529 0.77444 0.64365 0.0
C1165 C 0.23193 0.7895 0.63954 0.0
C1166 C 0.24209 0.79851 0.67848 0.0
C1167 C 0.23491 0.79213 0.72285 0.0
C1168 C 0.21764 0.77709 0.72776 0.0
C1169 C 0.20788 0.76802 0.68758 0.0
H1170 H 0.22509 0.42324 0.51747 0.0
H1171 H 0.18065 0.43278 0.53225 0.0
H1172 H 0.18675 0.43808 0.61634 0.0
H1173 H 0.21652 0.39852 0.62172 0.0
H1174 H 0.23964 0.40697 0.63634 0.0
H1175 H 0.23315 0.40595 0.5764 0.0
H1176 H 0.25563 0.43977 0.56724 0.0
H1177 H 0.26216 0.44089 0.62728 0.0
H1178 H 0.25438 0.45544 0.60625 0.0
H1179 H 0.19658 0.44089 0.69953 0.0
H1180 H 0.20826 0.43894 0.77661 0.0
H1181 H 0.24546 0.42629 0.70901 0.0
C1182 C 0.21689 0.42676 0.53837 0.0
C1183 C 0.2025 0.42775 0.51834 0.0
C1184 C 0.19177 0.43198 0.54692 0.0
C1185 C 0.19517 0.4351 0.59469 0.0
C1186 C 0.20929 0.43381 0.61363 0.0
C1187 C 0.21993 0.42963 0.5865 0.0
C1188 C 0.23328 0.42763 0.61634 0.0
C1189 C 0.23047 0.40864 0.61247 0.0
C1190 C 0.2525 0.44178 0.60351 0.0
C1191 C 0.22829 0.43106 0.66436 0.0
C1192 C 0.21461 0.43488 0.66195 0.0
C1193 C 0.20739 0.43802 0.70187 0.0
C1194 C 0.21412 0.43693 0.7455 0.0
C1195 C 0.22777 0.43251 0.74885 0.0
C1196 C 0.23507 0.4298 0.70759 0.0
H1197 H 0.47365 0.9208 0.12623 0.0
H1198 H 0.42979 0.86856 0.08935 0.0
H1199 H 0.42089 0.8627 0.17244 0.0
H1200 H 0.48474 0.90921 0.23733 0.0
H1201 H 0.48913 0.92973 0.26491 0.0
H1202 H 0.49269 0.92928 0.20323 0.0
H1203 H 0.47155 0.94181 0.18677 0.0
H1204 H 0.46812 0.94251 0.24835 0.0
H1205 H 0.44924 0.93044 0.21029 0.0
H1206 H 0.4171 0.86267 0.26028 0.0
H1207 H 0.41598 0.87 0.34308 0.0
H1208 H 0.46117 0.92304 0.3207 0.0
C1209 C 0.46223 0.90808 0.13571 0.0
C1210 C 0.45247 0.89504 0.1016 0.0
C1211 C 0.43742 0.8787 0.11509 0.0
C1212 C 0.43237 0.87523 0.16217 0.0
C1213 C 0.44238 0.88834 0.19508 0.0
C1214 C 0.45681 0.90456 0.18226 0.0
C1215 C 0.46458 0.91695 0.22364 0.0
C1216 C 0.48393 0.92156 0.23281 0.0
C1217 C 0.46328 0.93392 0.21685 0.0
C1218 C 0.45222 0.90523 0.26184 0.0
C1219 C 0.43971 0.88864 0.24493 0.0
C1220 C 0.42682 0.87561 0.27384 0.0
C1221 C 0.42637 0.87985 0.32088 0.0
C1222 C 0.43852 0.89706 0.33824 0.0
C1223 C 0.45177 0.90975 0.30841 0.0
H1224 H 0.10048 0.53993 0.11533 0.0
H1225 H 0.11997 0.59684 0.12105 0.0
H1226 H 0.12363 0.59644 0.20634 0.0
H1227 H 0.07412 0.52949 0.21575 0.0
H1228 H 0.07808 0.51196 0.23525 0.0
H1229 H 0.07929 0.5171 0.1742 0.0
H1230 H 0.11143 0.52214 0.17057 0.0
H1231 H 0.11027 0.51689 0.23164 0.0
H1232 H 0.12816 0.53778 0.21 0.0
H1233 H 0.12373 0.58949 0.29177 0.0
H1234 H 0.11877 0.57617 0.37066 0.0
H1235 H 0.09738 0.52363 0.30882 0.0
C1236 C 0.10594 0.55236 0.13448 0.0
C1237 C 0.1102 0.56846 0.11175 0.0
C1238 C 0.11677 0.58439 0.13796 0.0
C1239 C 0.11892 0.5843 0.18634 0.0
C1240 C 0.11425 0.56813 0.20797 0.0
C1241 C 0.10783 0.55243 0.1829 0.0
C1242 C 0.10228 0.5366 0.21486 0.0
C1243 C 0.08226 0.52299 0.2097 0.0
C1244 C 0.11372 0.52784 0.20625 0.0
C1245 C 0.10635 0.5458 0.26175 0.0
C1246 C 0.11352 0.56401 0.25713 0.0
C1247 C 0.11817 0.57524 0.29582 0.0
C1248 C 0.11531 0.56759 0.34042 0.0
C1249 C 0.1076 0.54891 0.34572 0.0
C1250 C 0.10319 0.53796 0.3058 0.0
H1251 H 0.43422 0.53469 0.14192 0.0
H1252 H 0.4242 0.57764 0.10638 0.0
H1253 H 0.42295 0.58355 0.19054 0.0
H1254 H 0.40662 0.51899 0.24672 0.0
H1255 H 0.4224 0.51467 0.27659 0.0
H1256 H 0.42048 0.51275 0.21413 0.0
H1257 H 0.45434 0.53527 0.20583 0.0
H1258 H 0.45638 0.53717 0.26812 0.0
H1259 H 0.46363 0.5569 0.23303 0.0
H1260 H 0.42456 0.58556 0.27956 0.0
H1261 H 0.43163 0.58537 0.36314 0.0
H1262 H 0.4415 0.54165 0.33751 0.0
C1263 C 0.43147 0.54517 0.15169 0.0
C1264 C 0.42915 0.55563 0.11773 0.0
C1265 C 0.42593 0.56944 0.13198 0.0
C1266 C 0.42511 0.5728 0.17962 0.0
C1267 C 0.42756 0.56224 0.21227 0.0
C1268 C 0.43078 0.54877 0.19869 0.0
C1269 C 0.43454 0.54028 0.23985 0.0
C1270 C 0.42015 0.5205 0.24459 0.0
C1271 C 0.45333 0.54255 0.2365 0.0
C1272 C 0.43331 0.55128 0.27894 0.0
C1273 C 0.42895 0.56368 0.26268 0.0
C1274 C 0.42782 0.57579 0.29262 0.0
C1275 C 0.43176 0.57553 0.34003 0.0
C1276 C 0.43702 0.56344 0.35663 0.0
C1277 C 0.43738 0.55095 0.32579 0.0
H1278 H 0.10547 0.57138 0.80845 0.0
H1279 H 0.11025 0.52878 0.87396 0.0
H1280 H 0.11484 0.5191 0.7963 0.0
H1281 H 0.08129 0.54783 0.71103 0.0
H1282 H 0.09234 0.56628 0.67109 0.0
H1283 H 0.09086 0.57046 0.73179 0.0
H1284 H 0.12528 0.59049 0.73563 0.0
H1285 H 0.12687 0.58635 0.67481 0.0
H1286 H 0.13923 0.5816 0.7174 0.0
H1287 H 0.11507 0.51208 0.7107 0.0
H1288 H 0.11274 0.50929 0.62488 0.0
H1289 H 0.11006 0.55794 0.61656 0.0
C1290 C 0.10767 0.56011 0.80653 0.0
C1291 C 0.1074 0.55071 0.84698 0.0
C1292 C 0.11044 0.53614 0.84324 0.0
C1293 C 0.11306 0.53059 0.79936 0.0
C1294 C 0.11299 0.54004 0.75999 0.0
C1295 C 0.11062 0.55466 0.76335 0.0
C1296 C 0.11053 0.56224 0.71594 0.0
C1297 C 0.0927 0.56166 0.70695 0.0
C1298 C 0.12643 0.5813 0.71065 0.0
C1299 C 0.11263 0.54926 0.68503 0.0
C1300 C 0.11404 0.53654 0.71103 0.0
C1301 C 0.1144 0.5222 0.69004 0.0
C1302 C 0.11304 0.5207 0.64138 0.0
C1303 C 0.11157 0.53359 0.61431 0.0
C1304 C 0.11172 0.54821 0.63641 0.0
H1305 H 0.42086 0.5451 0.81923 0.0
H1306 H 0.46052 0.59684 0.87245 0.0
H1307 H 0.46589 0.60911 0.79219 0.0
H1308 H 0.44333 0.54504 0.72215 0.0
H1309 H 0.42414 0.53408 0.68457 0.0
H1310 H 0.42153 0.53039 0.7463 0.0
H1311 H 0.39802 0.54062 0.74771 0.0
H1312 H 0.40052 0.54431 0.68571 0.0
H1313 H 0.40362 0.56213 0.72412 0.0
H1314 H 0.47057 0.61385 0.70538 0.0
H1315 H 0.47311 0.61119 0.62032 0.0
H1316 H 0.42898 0.55679 0.62478 0.0
C1317 C 0.43038 0.55913 0.81413 0.0
C1318 C 0.44033 0.57007 0.85177 0.0
C1319 C 0.4527 0.58832 0.84395 0.0
C1320 C 0.4558 0.59536 0.79856 0.0
C1321 C 0.44609 0.58403 0.76188 0.0
C1322 C 0.43339 0.56636 0.76942 0.0
C1323 C 0.42572 0.55653 0.72418 0.0
C1324 C 0.42888 0.54059 0.71902 0.0
C1325 C 0.40579 0.55055 0.7202 0.0
C1326 C 0.43669 0.57116 0.68967 0.0
C1327 C 0.44827 0.58699 0.712 0.0
C1328 C 0.46122 0.60171 0.68751 0.0
C1329 C 0.46259 0.60008 0.63928 0.0
C1330 C 0.451 0.5839 0.6161 0.0
C1331 C 0.4376 0.56948 0.64147 0.0
H1332 H 0.4698 0.90311 0.79521 0.0
H1333 H 0.41903 0.88839 0.86045 0.0
H1334 H 0.40552 0.88539 0.78262 0.0
H1335 H 0.46715 0.92967 0.70594 0.0
H1336 H 0.47756 0.92295 0.66221 0.0
H1337 H 0.4828 0.92267 0.72272 0.0
H1338 H 0.47363 0.88929 0.71588 0.0
H1339 H 0.46833 0.88944 0.65527 0.0
H1340 H 0.45174 0.87345 0.69441 0.0
H1341 H 0.39819 0.88603 0.69805 0.0
H1342 H 0.39748 0.89029 0.61325 0.0
H1343 H 0.45295 0.90409 0.60293 0.0
C1344 C 0.45578 0.89906 0.79317 0.0
C1345 C 0.44543 0.89594 0.8339 0.0
C1346 C 0.42718 0.8908 0.82971 0.0
C1347 C 0.4194 0.88903 0.78567 0.0
C1348 C 0.43004 0.89235 0.74622 0.0
C1349 C 0.44782 0.8972 0.74956 0.0
C1350 C 0.45653 0.90075 0.70195 0.0
C1351 C 0.47191 0.92016 0.69799 0.0
C1352 C 0.46293 0.88743 0.69126 0.0
C1353 C 0.44095 0.89745 0.67123 0.0
C1354 C 0.42577 0.89254 0.69745 0.0
C1355 C 0.40993 0.88967 0.67715 0.0
C1356 C 0.40967 0.89214 0.62895 0.0
C1357 C 0.42511 0.89737 0.60146 0.0
C1358 C 0.44086 0.89979 0.62292 0.0
H1359 H 0.19083 0.42399 0.20939 0.0
H1360 H 0.23984 0.43435 0.27757 0.0
H1361 H 0.254 0.4376 0.20062 0.0
H1362 H 0.19224 0.39788 0.11775 0.0
H1363 H 0.18363 0.40653 0.07403 0.0
H1364 H 0.17778 0.4064 0.13423 0.0
H1365 H 0.18972 0.44046 0.13067 0.0
H1366 H 0.19557 0.4407 0.07033 0.0
H1367 H 0.21227 0.45522 0.11147 0.0
H1368 H 0.26174 0.43668 0.1171 0.0
H1369 H 0.26322 0.43316 0.03228 0.0
H1370 H 0.20971 0.42483 0.01709 0.0
C1371 C 0.20463 0.42719 0.20814 0.0
C1372 C 0.21426 0.42892 0.24951 0.0
C1373 C 0.23225 0.43303 0.24639 0.0
C1374 C 0.24038 0.4349 0.20283 0.0
C1375 C 0.23043 0.43284 0.16275 0.0
C1376 C 0.213 0.42927 0.16495 0.0
C1377 C 0.20508 0.4271 0.11659 0.0
C1378 C 0.18872 0.40836 0.1103 0.0
C1379 C 0.20038 0.44174 0.10669 0.0
C1380 C 0.22062 0.42954 0.0868 0.0
C1381 C 0.23511 0.43286 0.11426 0.0
C1382 C 0.2506 0.43438 0.09524 0.0
C1383 C 0.25129 0.43229 0.04705 0.0
C1384 C 0.23666 0.4289 0.01816 0.0
C1385 C 0.22122 0.42778 0.03827 0.0
H1386 H 0.57947 0.78364 0.99995 0.0
H1387 H 0.5223 0.75479 0.9771 0.0
H1388 H 0.51746 0.74639 0.0606 0.0
H1389 H 0.57993 0.75211 0.08679 0.0
H1390 H 0.59765 0.76996 0.11946 0.0
H1391 H 0.59628 0.77206 0.0574 0.0
H1392 H 0.59619 0.80171 0.06995 0.0
H1393 H 0.59722 0.79955 0.132 0.0
H1394 H 0.57941 0.80189 0.10683 0.0
H1395 H 0.51914 0.74483 0.14905 0.0
H1396 H 0.52728 0.74659 0.23252 0.0
H1397 H 0.58333 0.77505 0.19497 0.0
C1398 C 0.56595 0.77518 0.01233 0.0
C1399 C 0.55124 0.76979 0.98232 0.0
C1400 C 0.53373 0.75884 0.9996 0.0
C1401 C 0.53088 0.75413 0.04696 0.0
C1402 C 0.5457 0.76021 0.07608 0.0
C1403 C 0.56291 0.77014 0.05909 0.0
C1404 C 0.57659 0.7754 0.09744 0.0
C1405 C 0.5883 0.76687 0.08982 0.0
C1406 C 0.58802 0.79585 0.10179 0.0
C1407 C 0.56443 0.76735 0.13897 0.0
C1408 C 0.54665 0.75871 0.12619 0.0
C1409 C 0.53302 0.75126 0.15931 0.0
C1410 C 0.53774 0.75244 0.20656 0.0
C1411 C 0.5559 0.76082 0.21993 0.0
C1412 C 0.56933 0.76834 0.18561 0.0
H1413 H 0.23819 0.81481 0.19083 0.0
H1414 H 0.21167 0.76211 0.25358 0.0
H1415 H 0.20509 0.74848 0.17512 0.0
H1416 H 0.20852 0.80564 0.0998 0.0
H1417 H 0.22508 0.81908 0.05697 0.0
H1418 H 0.22934 0.82464 0.11771 0.0
H1419 H 0.25844 0.8231 0.11244 0.0
H1420 H 0.2543 0.81758 0.05149 0.0
H1421 H 0.25757 0.80314 0.09052 0.0
H1422 H 0.19784 0.74083 0.09099 0.0
H1423 H 0.1921 0.73951 0.00644 0.0
H1424 H 0.225 0.79708 0.99746 0.0
C1425 C 0.23127 0.8004 0.18805 0.0
C1426 C 0.2254 0.78948 0.22819 0.0
C1427 C 0.21634 0.77069 0.22324 0.0
C1428 C 0.21256 0.76285 0.17885 0.0
C1429 C 0.21823 0.77401 0.13994 0.0
C1430 C 0.22762 0.79238 0.14409 0.0
C1431 C 0.23147 0.80137 0.09681 0.0
C1432 C 0.2231 0.81338 0.0926 0.0
C1433 C 0.25165 0.81192 0.08726 0.0
C1434 C 0.2222 0.78519 0.0654 0.0
C1435 C 0.21469 0.76954 0.09106 0.0
C1436 C 0.20401 0.75295 0.07045 0.0
C1437 C 0.20078 0.75233 0.02252 0.0
C1438 C 0.20837 0.76817 0.99564 0.0
C1439 C 0.21947 0.78477 0.01717 0.0
H1440 H 0.1808 0.22104 0.27861 0.0
H1441 H 0.13179 0.18117 0.21276 0.0
H1442 H 0.14767 0.16699 0.17841 0.0
H1443 H 0.2119 0.22339 0.18437 0.0
H1444 H 0.22857 0.22545 0.22549 0.0
H1445 H 0.21414 0.23428 0.23951 0.0
H1446 H 0.20427 0.21543 0.31518 0.0
H1447 H 0.21863 0.20658 0.3014 0.0
H1448 H 0.19519 0.19161 0.31168 0.0
H1449 H 0.16728 0.15505 0.15874 0.0
H1450 H 0.18971 0.14546 0.15627 0.0
H1451 H 0.22653 0.19258 0.23452 0.0
C1452 C 0.17359 0.20959 0.25603 0.0
C1453 C 0.15512 0.20222 0.24811 0.0
C1454 C 0.14596 0.18699 0.21929 0.0
C1455 C 0.15488 0.17891 0.19934 0.0
C1456 C 0.17298 0.18621 0.20851 0.0
C1457 C 0.18231 0.20119 0.2361 0.0
C1458 C 0.20129 0.20516 0.24396 0.0
C1459 C 0.21477 0.22314 0.22201 0.0
C1460 C 0.20506 0.20465 0.29614 0.0
C1461 C 0.20089 0.18969 0.21792 0.0
C1462 C 0.18449 0.17913 0.19714 0.0
C1463 C 0.1803 0.16335 0.17412 0.0
C1464 C 0.1931 0.15799 0.17303 0.0
C1465 C 0.20986 0.16836 0.19486 0.0
C1466 C 0.21394 0.18461 0.21672 0.0
H1467 H 0.77809 0.97047 0.26339 0.0
H1468 H 0.81849 0.96135 0.32626 0.0
H1469 H 0.841 0.9929 0.31397 0.0
H1470 H 0.80541 0.99902 0.17448 0.0
H1471 H 0.79638 0.01382 0.17564 0.0
H1472 H 0.78276 0.99091 0.19341 0.0
H1473 H 0.77699 0.00117 0.27304 0.0
H1474 H 0.79052 0.02415 0.25541 0.0
H1475 H 0.79566 0.01645 0.30834 0.0
H1476 H 0.8595 0.02405 0.28969 0.0
H1477 H 0.87341 0.05413 0.2558 0.0
H1478 H 0.82154 0.04414 0.20832 0.0
C1479 C 0.79161 0.97525 0.27531 0.0
C1480 C 0.79658 0.96352 0.2959 0.0
C1481 C 0.81442 0.97012 0.31042 0.0
C1482 C 0.82729 0.98802 0.30373 0.0
C1483 C 0.82209 -0.00083 0.28256 0.0
C1484 C 0.80471 0.99316 0.26872 0.0
C1485 C 0.80307 0.00786 0.2444 0.0
C1486 C 0.79652 0.00258 0.19399 0.0
C1487 C 0.79083 0.01269 0.27195 0.0
C1488 C 0.82232 0.02288 0.2459 0.0
C1489 C 0.83297 0.0175 0.2684 0.0
C1490 C 0.85132 0.02853 0.27245 0.0
C1491 C 0.85908 0.04556 0.25284 0.0
C1492 C 0.84853 0.05144 0.2295 0.0
C1493 C 0.82987 0.04001 0.22637 0.0
H1494 H 0.956 0.77044 0.231 0.0
H1495 H 0.94149 0.81165 0.21841 0.0
H1496 H 0.9721 0.83449 0.23931 0.0
H1497 H 0.9854 0.78971 0.32968 0.0
H1498 H 0.0014 0.78363 0.30961 0.0
H1499 H 0.97825 0.77025 0.29355 0.0
H1500 H 0.98712 0.77424 0.20636 0.0
H1501 H 0.01029 0.78764 0.22215 0.0
H1502 H 0.00034 0.79644 0.18287 0.0
H1503 H 0.00376 0.85287 0.26126 0.0
H1504 H 0.03536 0.86608 0.28319 0.0
H1505 H 0.0301 0.81342 0.28186 0.0
C1506 C 0.9593 0.78427 0.23269 0.0
C1507 C 0.94638 0.78928 0.22308 0.0
C1508 C 0.95118 0.8075 0.22558 0.0
C1509 C 0.96852 0.82059 0.23745 0.0
C1510 C 0.98095 0.81527 0.24669 0.0
C1511 C 0.97665 0.7976 0.24448 0.0
C1512 C 0.9927 0.79564 0.25604 0.0
C1513 C 0.98922 0.78413 0.29983 0.0
C1514 C 0.99792 0.78804 0.21436 0.0
C1515 C 0.00661 0.81498 0.26508 0.0
C1516 C -0.00053 0.82602 0.25945 0.0
C1517 C 0.00955 0.8444 0.2658 0.0
C1518 C 0.02749 0.85176 0.27826 0.0
C1519 C 0.03517 0.84077 0.28423 0.0
C1520 C 0.02457 0.82213 0.27754 0.0
H1521 H 0.79622 0.76604 0.71828 0.0
H1522 H 0.85097 0.80914 0.70242 0.0
H1523 H 0.84205 0.83084 0.72615 0.0
H1524 H 0.77559 0.79122 0.67447 0.0
H1525 H 0.75723 0.78131 0.71499 0.0
H1526 H 0.76771 0.7689 0.69588 0.0
H1527 H 0.77362 0.76429 0.78177 0.0
H1528 H 0.76331 0.77683 0.80113 0.0
H1529 H 0.78576 0.78347 0.8189 0.0
H1530 H 0.82816 0.84772 0.75468 0.0
H1531 H 0.80918 0.85972 0.78042 0.0
H1532 H 0.76273 0.80643 0.7762 0.0
C1533 C 0.80625 0.78006 0.7194 0.0
C1534 C 0.8243 0.78589 0.70856 0.0
C1535 C 0.83707 0.80434 0.71052 0.0
C1536 C 0.83216 0.81679 0.7241 0.0
C1537 C 0.81439 0.81064 0.73532 0.0
C1538 C 0.80154 0.79279 0.73264 0.0
C1539 C 0.78336 0.78998 0.74644 0.0
C1540 C 0.77019 0.78241 0.7055 0.0
C1541 C 0.77609 0.77793 0.78963 0.0
C1542 C 0.78813 0.80903 0.75753 0.0
C1543 C 0.80615 0.82062 0.75109 0.0
C1544 C 0.81399 0.83883 0.7596 0.0
C1545 C 0.80308 0.84549 0.77441 0.0
C1546 C 0.78447 0.83402 0.78029 0.0
C1547 C 0.77691 0.8155 0.77202 0.0
H1548 H 0.2013 0.03858 0.73309 0.0
H1549 H 0.25515 0.04736 0.74272 0.0
H1550 H 0.24302 0.01576 0.76568 0.0
H1551 H 0.18412 0.01027 0.83233 0.0
H1552 H 0.16246 0.99611 0.80695 0.0
H1553 H 0.17542 0.01914 0.78946 0.0
H1554 H 0.17335 0.00945 0.70319 0.0
H1555 H 0.16029 0.9864 0.72038 0.0
H1556 H 0.18048 0.99383 0.6872 0.0
H1557 H 0.22466 0.98296 0.78754 0.0
H1558 H 0.20168 0.95193 0.80739 0.0
H1559 H 0.16029 0.96561 0.78607 0.0
C1560 C 0.21055 0.03383 0.73962 0.0
C1561 C 0.22914 0.04533 0.73588 0.0
C1562 C 0.24083 0.0387 0.74526 0.0
C1563 C 0.23407 0.0208 0.75833 0.0
C1564 C 0.21563 0.00984 0.76211 0.0
C1565 C 0.20405 0.01613 0.75308 0.0
C1566 C 0.18484 0.00184 0.76068 0.0
C1567 C 0.17621 0.00716 0.79968 0.0
C1568 C 0.17412 0.99763 0.71515 0.0
C1569 C 0.18737 0.98647 0.7754 0.0
C1570 C 0.20519 0.99126 0.77582 0.0
C1571 C 0.21068 0.97909 0.7875 0.0
C1572 C 0.19756 0.96153 0.79875 0.0
C1573 C 0.17926 0.95645 0.79856 0.0
C1574 C 0.1742 0.96916 0.78697 0.0
H1575 H 0.96763 0.16095 0.68145 0.0
H1576 H 0.95372 0.20117 0.71785 0.0
H1577 H 0.98496 0.22146 0.74278 0.0
H1578 H 0.9936 0.16682 0.77765 0.0
H1579 H 0.00971 0.16295 0.7479 0.0
H1580 H 0.98723 0.15293 0.72641 0.0
H1581 H -0.0011 0.16757 0.64561 0.0
H1582 H 0.02149 0.17748 0.66664 0.0
H1583 H 0.01359 0.19138 0.64172 0.0
H1584 H 0.01756 0.23629 0.76923 0.0
H1585 H 0.0479 0.24384 0.79557 0.0
H1586 H 0.03857 0.19261 0.74513 0.0
C1587 C 0.97119 0.17418 0.69362 0.0
C1588 C 0.95835 0.17958 0.69749 0.0
C1589 C 0.96347 0.19688 0.7143 0.0
C1590 C 0.98114 0.20845 0.72851 0.0
C1591 C 0.99338 0.20244 0.72555 0.0
C1592 C 0.98857 0.18571 0.70827 0.0
C1593 C 0.00355 0.18163 0.71211 0.0
C1594 C 0.99819 0.16511 0.74286 0.0
C1595 C 0.00975 0.17939 0.66363 0.0
C1596 C 0.01747 0.19848 0.73542 0.0
C1597 C 0.01159 0.21053 0.74225 0.0
C1598 C 0.0223 0.22697 0.76385 0.0
C1599 C 0.03943 0.23113 0.77878 0.0
C1600 C 0.04537 0.21869 0.77275 0.0
C1601 C 0.03425 0.20227 0.75067 0.0
H1602 H 0.85382 0.55569 0.62888 0.0
H1603 H 0.81247 0.53317 0.52356 0.0
H1604 H 0.82832 0.51988 0.48402 0.0
H1605 H 0.89242 0.563 0.55067 0.0
H1606 H 0.90222 0.55626 0.59601 0.0
H1607 H 0.88984 0.56727 0.61078 0.0
H1608 H 0.86946 0.54088 0.66492 0.0
H1609 H 0.88163 0.52974 0.65008 0.0
H1610 H 0.85782 0.51854 0.64153 0.0
H1611 H 0.84507 0.505 0.46362 0.0
H1612 H 0.86249 0.48955 0.46234 0.0
H1613 H 0.89353 0.52111 0.5803 0.0
C1614 C 0.84859 0.54855 0.59649 0.0
C1615 C 0.83214 0.5456 0.57868 0.0
C1616 C 0.82517 0.53563 0.53733 0.0
C1617 C 0.8341 0.52811 0.51456 0.0
C1618 C 0.84997 0.53064 0.5337 0.0
C1619 C 0.85728 0.54069 0.57356 0.0
C1620 C 0.87325 0.53934 0.58986 0.0
C1621 C 0.89045 0.55756 0.58662 0.0
C1622 C 0.87035 0.53167 0.63952 0.0
C1623 C 0.87319 0.52636 0.55423 0.0
C1624 C 0.85981 0.52178 0.52177 0.0
C1625 C 0.85588 0.50876 0.48809 0.0
C1626 C 0.86576 0.49998 0.48781 0.0
C1627 C 0.87941 0.50429 0.52092 0.0
C1628 C 0.88341 0.51788 0.55397 0.0
H1629 H 0.44595 0.29501 0.6198 0.0
H1630 H 0.49543 0.29365 0.62614 0.0
H1631 H 0.51232 0.32543 0.60502 0.0
H1632 H 0.45823 0.32558 0.52223 0.0
H1633 H 0.4477 0.33739 0.54551 0.0
H1634 H 0.4391 0.31422 0.55993 0.0
H1635 H 0.44239 0.32198 0.64783 0.0
H1636 H 0.45085 0.34513 0.63368 0.0
H1637 H 0.46373 0.33879 0.67011 0.0
H1638 H 0.52402 0.35695 0.58386 0.0
H1639 H 0.53026 0.38758 0.56913 0.0
H1640 H 0.47359 0.36944 0.57747 0.0
C1641 C 0.46033 0.30144 0.61673 0.0
C1642 C 0.46938 0.29186 0.62455 0.0
C1643 C 0.48821 0.30072 0.62041 0.0
C1644 C 0.49794 0.31876 0.60819 0.0
C1645 C 0.48867 0.3278 0.60038 0.0
C1646 C 0.47033 0.31957 0.60482 0.0
C1647 C 0.46387 0.33271 0.59601 0.0
C1648 C 0.45149 0.32714 0.55338 0.0
C1649 C 0.45467 0.33477 0.6395 0.0
C1650 C 0.48147 0.34957 0.58634 0.0
C1651 C 0.49554 0.34631 0.58863 0.0
C1652 C 0.51314 0.35972 0.58188 0.0
C1653 C 0.51653 0.37706 0.57348 0.0
C1654 C 0.50241 0.38087 0.5721 0.0
C1655 C 0.48462 0.36688 0.57797 0.0
H1656 H 0.6304 0.14585 0.53772 0.0
H1657 H 0.61322 0.08935 0.54188 0.0
H1658 H 0.64339 0.09666 0.56827 0.0
H1659 H 0.67502 0.16117 0.49615 0.0
H1660 H 0.68463 0.18114 0.53116 0.0
H1661 H 0.66187 0.17129 0.51157 0.0
H1662 H 0.65135 0.16952 0.59695 0.0
H1663 H 0.67406 0.17929 0.61683 0.0
H1664 H 0.6572 0.15808 0.63979 0.0
H1665 H 0.6755 0.11043 0.59534 0.0
H1666 H 0.70688 0.12948 0.62024 0.0
H1667 H 0.70227 0.17669 0.59873 0.0
C1668 C 0.63298 0.13499 0.54387 0.0
C1669 C 0.61954 0.11704 0.53768 0.0
C1670 C 0.6234 0.10321 0.54635 0.0
C1671 C 0.64046 0.10723 0.56135 0.0
C1672 C 0.65339 0.12512 0.56747 0.0
C1673 C 0.64983 0.13876 0.55891 0.0
C1674 C 0.66586 0.15685 0.56873 0.0
C1675 C 0.67222 0.16828 0.52425 0.0
C1676 C 0.66187 0.1665 0.60791 0.0
C1677 C 0.67905 0.15131 0.58429 0.0
C1678 C 0.67167 0.13297 0.5833 0.0
C1679 C 0.68141 0.12481 0.59622 0.0
C1680 C 0.69919 0.13571 0.61034 0.0
C1681 C 0.70694 0.15452 0.61146 0.0
C1682 C 0.69668 0.16234 0.59834 0.0
H1683 H 0.46751 0.17435 0.06755 0.0
H1684 H 0.42114 0.13248 0.13826 0.0
H1685 H 0.43004 0.11046 0.11377 0.0
H1686 H 0.46744 0.14718 0.96912 0.0
H1687 H 0.49148 0.1586 0.96734 0.0
H1688 H 0.48024 0.17024 0.98672 0.0
H1689 H 0.49811 0.17835 0.06401 0.0
H1690 H 0.50934 0.16671 0.045 0.0
H1691 H 0.49737 0.16077 0.09944 0.0
H1692 H 0.44634 0.09391 0.08767 0.0
H1693 H 0.46778 0.08454 0.06135 0.0
H1694 H 0.50246 0.1378 0.00717 0.0
C1695 C 0.45906 0.1605 0.07742 0.0
C1696 C 0.4437 0.15506 0.10488 0.0
C1697 C 0.43295 0.13685 0.11701 0.0
C1698 C 0.43791 0.12429 0.10326 0.0
C1699 C 0.45344 0.13023 0.07688 0.0
C1700 C 0.46369 0.14792 0.06373 0.0
C1701 C 0.48021 0.15133 0.03752 0.0
C1702 C 0.47981 0.15718 0.98719 0.0
C1703 C 0.49725 0.16509 0.06304 0.0
C1704 C 0.47805 0.13292 0.03909 0.0
C1705 C 0.4625 0.12081 0.06153 0.0
C1706 C 0.4584 0.10323 0.06943 0.0
C1707 C 0.47063 0.09803 0.05444 0.0
C1708 C 0.48671 0.11044 0.0321 0.0
C1709 C 0.49021 0.12796 0.0238 0.0
H1710 H 0.85999 0.36878 0.05797 0.0
H1711 H 0.91561 0.38307 0.06858 0.0
H1712 H 0.90631 0.35241 0.09554 0.0
H1713 H 0.84434 0.34065 0.15902 0.0
H1714 H 0.82341 0.32486 0.1326 0.0
H1715 H 0.83457 0.34792 0.11485 0.0
H1716 H 0.83426 0.33846 0.02903 0.0
H1717 H 0.82302 0.31537 0.04647 0.0
H1718 H 0.84372 0.32462 0.01462 0.0
H1719 H 0.89055 0.31989 0.12115 0.0
H1720 H 0.86979 0.28813 0.14017 0.0
H1721 H 0.82481 0.2958 0.11182 0.0
C1722 C 0.87025 0.3655 0.06598 0.0
C1723 C 0.88852 0.37827 0.06127 0.0
C1724 C 0.90153 0.37344 0.07194 0.0
C1725 C 0.89637 0.3561 0.08738 0.0
C1726 C 0.87819 0.34384 0.09182 0.0
C1727 C 0.86536 0.34834 0.08123 0.0
C1728 C 0.84672 0.33273 0.08798 0.0
C1729 C 0.83667 0.33679 0.12587 0.0
C1730 C 0.83633 0.32749 0.04177 0.0
C1731 C 0.851 0.31865 0.10387 0.0
C1732 C 0.86921 0.32528 0.10615 0.0
C1733 C 0.87628 0.31458 0.11955 0.0
C1734 C 0.8644 0.29659 0.13037 0.0
C1735 C 0.84572 0.28955 0.12751 0.0
C1736 C 0.83902 0.30081 0.11445 0.0
H1737 H 0.70787 0.5536 0.11577 0.0
H1738 H 0.70813 0.5035 0.11897 0.0
H1739 H 0.6762 0.48722 0.0992 0.0
H1740 H 0.66473 0.5366 0.16821 0.0
H1741 H 0.65852 0.54988 0.13301 0.0
H1742 H 0.68168 0.55785 0.14569 0.0
H1743 H 0.68875 0.56119 0.05736 0.0
H1744 H 0.66557 0.55311 0.04441 0.0
H1745 H 0.67675 0.54219 0.01958 0.0
H1746 H 0.64454 0.47618 0.0806 0.0
H1747 H 0.61406 0.47072 0.06802 0.0
H1748 H 0.63362 0.52768 0.07735 0.0
C1749 C 0.70118 0.53922 0.11219 0.0
C1750 C 0.71047 0.52981 0.11884 0.0
C1751 C 0.70127 0.51098 0.1141 0.0
C1752 C 0.68315 0.5016 0.10268 0.0
C1753 C 0.67439 0.51122 0.09618 0.0
C1754 C 0.68299 0.52957 0.10098 0.0
C1755 C 0.67015 0.53649 0.09363 0.0
C1756 C 0.66868 0.54575 0.13777 0.0
C1757 C 0.67564 0.54898 0.05121 0.0
C1758 C 0.65301 0.51911 0.08442 0.0
C1759 C 0.65586 0.50476 0.0857 0.0
C1760 C 0.6421 0.48729 0.07933 0.0
C1761 C 0.62485 0.48433 0.07219 0.0
C1762 C 0.6215 0.49878 0.07163 0.0
C1763 C 0.63583 0.51641 0.07724 0.0
H1764 H 0.51623 0.88811 0.93319 0.0
H1765 H 0.46365 0.84609 0.9757 0.0
H1766 H 0.47301 0.82374 0.96411 0.0
H1767 H 0.52232 0.86377 0.84309 0.0
H1768 H 0.5458 0.8726 0.85347 0.0
H1769 H 0.53555 0.88565 0.86829 0.0
H1770 H 0.5468 0.88856 0.95319 0.0
H1771 H 0.55717 0.87558 0.93857 0.0
H1772 H 0.5414 0.86869 0.98589 0.0
H1773 H 0.48709 0.8058 0.94376 0.0
H1774 H 0.50548 0.79313 0.91704 0.0
H1775 H 0.54921 0.84649 0.88765 0.0
C1776 C 0.5068 0.87424 0.94065 0.0
C1777 C 0.48923 0.86882 0.95544 0.0
C1778 C 0.47718 0.85053 0.96438 0.0
C1779 C 0.48236 0.83773 0.95797 0.0
C1780 C 0.49966 0.84344 0.94271 0.0
C1781 C 0.51175 0.86123 0.93434 0.0
C1782 C 0.52931 0.86361 0.91643 0.0
C1783 C 0.53348 0.8719 0.86741 0.0
C1784 C 0.54457 0.87477 0.95056 0.0
C1785 C 0.52504 0.84435 0.91538 0.0
C1786 C 0.50788 0.83298 0.93091 0.0
C1787 C 0.5006 0.81455 0.93186 0.0
C1788 C 0.51114 0.80749 0.91647 0.0
C1789 C 0.52876 0.81883 0.90035 0.0
C1790 C 0.53582 0.83752 0.90006 0.0
H1791 H 0.11039 0.62827 0.93077 0.0
H1792 H 0.15454 0.61783 0.93092 0.0
H1793 H 0.17459 0.64828 0.90143 0.0
H1794 H 0.12306 0.65523 0.82599 0.0
H1795 H 0.11633 0.67046 0.84831 0.0
H1796 H 0.10523 0.64761 0.86797 0.0
H1797 H 0.11255 0.65828 0.95362 0.0
H1798 H 0.12351 0.68113 0.93426 0.0
H1799 H 0.13538 0.67337 0.97002 0.0
H1800 H 0.18994 0.67991 0.87394 0.0
H1801 H 0.20002 0.71134 0.85442 0.0
H1802 H 0.14589 0.7012 0.87207 0.0
C1803 C 0.12427 0.6324 0.92453 0.0
C1804 C 0.13094 0.62074 0.93307 0.0
C1805 C 0.14918 0.6266 0.92465 0.0
C1806 C 0.16064 0.64382 0.9077 0.0
C1807 C 0.15363 0.65496 0.89934 0.0
C1808 C 0.1359 0.64955 0.90769 0.0
C1809 C 0.13191 0.66436 0.89739 0.0
C1810 C 0.11833 0.65909 0.85754 0.0
C1811 C 0.12547 0.66959 0.94145 0.0
C1812 C 0.15022 0.67901 0.88253 0.0
C1813 C 0.16251 0.67325 0.88351 0.0
C1814 C 0.18043 0.68456 0.87275 0.0
C1815 C 0.18601 0.70237 0.86165 0.0
C1816 C 0.17371 0.70864 0.86156 0.0
C1817 C 0.15554 0.69671 0.87135 0.0
H1818 H 0.29831 0.473 0.90036 0.0
H1819 H 0.29943 0.42492 0.86305 0.0
H1820 H 0.3317 0.44017 0.8802 0.0
H1821 H 0.34252 0.50494 0.85416 0.0
H1822 H 0.34724 0.5205 0.90112 0.0
H1823 H 0.32455 0.50616 0.88244 0.0
H1824 H 0.31573 0.49441 0.96688 0.0
H1825 H 0.33841 0.50851 0.9857 0.0
H1826 H 0.32741 0.48478 0.99593 0.0
H1827 H 0.36331 0.45998 0.90584 0.0
H1828 H 0.39262 0.48365 0.93442 0.0
H1829 H 0.37068 0.51861 0.9557 0.0
C1830 C 0.30542 0.46579 0.89497 0.0
C1831 C 0.29644 0.44782 0.88022 0.0
C1832 C 0.30611 0.43873 0.87417 0.0
C1833 C 0.32441 0.44726 0.88389 0.0
C1834 C 0.33279 0.46485 0.89952 0.0
C1835 C 0.32366 0.47407 0.90465 0.0
C1836 C 0.33567 0.49267 0.9235 0.0
C1837 C 0.33761 0.50691 0.88819 0.0
C1838 C 0.3289 0.49523 0.97081 0.0
C1839 C 0.35292 0.49238 0.92871 0.0
C1840 C 0.35099 0.47623 0.9146 0.0
C1841 C 0.36503 0.47272 0.91675 0.0
C1842 C 0.38158 0.4862 0.9332 0.0
C1843 C 0.38387 0.50291 0.94731 0.0
C1844 C 0.3693 0.50595 0.94525 0.0
H1845 H 0.10665 0.47321 0.43847 0.0
H1846 H 0.15156 0.52725 0.42825 0.0
H1847 H 0.17075 0.51554 0.40178 0.0
H1848 H 0.1315 0.45382 0.48334 0.0
H1849 H 0.11928 0.43315 0.45173 0.0
H1850 H 0.10858 0.44573 0.46714 0.0
H1851 H 0.10072 0.44651 0.38044 0.0
H1852 H 0.11148 0.43399 0.36473 0.0
H1853 H 0.11825 0.45521 0.33743 0.0
H1854 H 0.18549 0.49845 0.37973 0.0
H1855 H 0.19534 0.47655 0.36638 0.0
H1856 H 0.1413 0.43329 0.39079 0.0
C1857 C 0.12048 0.48253 0.43032 0.0
C1858 C 0.1276 0.50113 0.43536 0.0
C1859 C 0.14581 0.51294 0.42475 0.0
C1860 C 0.15683 0.50644 0.40944 0.0
C1861 C 0.14947 0.48809 0.40491 0.0
C1862 C 0.13177 0.47625 0.41515 0.0
C1863 C 0.12757 0.4571 0.40932 0.0
C1864 C 0.12137 0.44685 0.45564 0.0
C1865 C 0.11368 0.44765 0.37067 0.0
C1866 C 0.14574 0.4601 0.39497 0.0
C1867 C 0.1581 0.4781 0.39224 0.0
C1868 C 0.17594 0.4843 0.38138 0.0
C1869 C 0.1814 0.47177 0.37386 0.0
C1870 C 0.16907 0.45325 0.37735 0.0
C1871 C 0.15096 0.44737 0.38735 0.0
H1872 H 0.4887 0.62706 0.39586 0.0
H1873 H 0.52716 0.61794 0.46951 0.0
H1874 H 0.5513 0.64809 0.44614 0.0
H1875 H 0.51844 0.65386 0.29914 0.0
H1876 H 0.50876 0.6681 0.29753 0.0
H1877 H 0.49535 0.64506 0.3148 0.0
H1878 H 0.48744 0.65499 0.39216 0.0
H1879 H 0.50081 0.67798 0.37525 0.0
H1880 H 0.50518 0.67046 0.42961 0.0
H1881 H 0.57031 0.68093 0.42271 0.0
H1882 H 0.5821 0.71269 0.40139 0.0
H1883 H 0.53067 0.69899 0.34249 0.0
C1884 C 0.50226 0.63124 0.40637 0.0
C1885 C 0.50613 0.62027 0.43449 0.0
C1886 C 0.52399 0.62619 0.4477 0.0
C1887 C 0.53775 0.64326 0.43454 0.0
C1888 C 0.53336 0.65397 0.40763 0.0
C1889 C 0.51602 0.64803 0.39334 0.0
C1890 C 0.51433 0.66235 0.36779 0.0
C1891 C 0.5089 0.65702 0.31678 0.0
C1892 C 0.50117 0.6667 0.39271 0.0
C1893 C 0.53328 0.67757 0.3714 0.0
C1894 C 0.5442 0.67254 0.39391 0.0
C1895 C 0.56195 0.68491 0.40428 0.0
C1896 C 0.56854 0.70289 0.39207 0.0
C1897 C 0.5573 0.70823 0.37017 0.0
C1898 C 0.53963 0.69529 0.35883 0.0
H1899 H 0.36592 0.86797 0.41588 0.0
H1900 H 0.37711 0.9228 0.41442 0.0
H1901 H 0.34626 0.91251 0.3878 0.0
H1902 H 0.33733 0.85313 0.31343 0.0
H1903 H 0.32255 0.8314 0.33773 0.0
H1904 H 0.34574 0.84326 0.35422 0.0
H1905 H 0.33673 0.84067 0.44122 0.0
H1906 H 0.31354 0.82875 0.42502 0.0
H1907 H 0.32209 0.84871 0.4598 0.0
H1908 H 0.31355 0.89585 0.36586 0.0
H1909 H 0.28166 0.87415 0.35134 0.0
H1910 H 0.29262 0.83059 0.36586 0.0
C1911 C 0.36193 0.87784 0.40967 0.0
C1912 C 0.37384 0.89616 0.4172 0.0
C1913 C 0.36814 0.90868 0.40879 0.0
C1914 C 0.35069 0.90297 0.39357 0.0
C1915 C 0.33923 0.88475 0.38664 0.0
C1916 C 0.34465 0.87239 0.39433 0.0
C1917 C 0.32965 0.85355 0.38602 0.0
C1918 C 0.33409 0.84483 0.34543 0.0
C1919 C 0.32525 0.84226 0.43067 0.0
C1920 C 0.31482 0.85718 0.37327 0.0
C1921 C 0.32058 0.87524 0.37352 0.0
C1922 C 0.30894 0.88168 0.36505 0.0
C1923 C 0.29088 0.86929 0.35682 0.0
C1924 C 0.28474 0.85073 0.35719 0.0
C1925 C 0.29696 0.84471 0.36478 0.0
H1926 H 0.29748 0.14491 0.20878 0.0
H1927 H 0.30349 0.19771 0.21941 0.0
H1928 H 0.33623 0.21122 0.21207 0.0
H1929 H 0.33777 0.15443 0.27203 0.0
H1930 H 0.34259 0.14073 0.23422 0.0
H1931 H 0.31982 0.1353 0.24355 0.0
H1932 H 0.31551 0.13617 0.15449 0.0
H1933 H 0.33827 0.14169 0.14487 0.0
H1934 H 0.33043 0.15597 0.12213 0.0
H1935 H 0.3681 0.21888 0.20093 0.0
H1936 H 0.39685 0.2203 0.18545 0.0
H1937 H 0.3698 0.16242 0.17985 0.0
C1938 C 0.3057 0.15932 0.21025 0.0
C1939 C 0.29801 0.1703 0.21502 0.0
C1940 C 0.30916 0.18908 0.21599 0.0
C1941 C 0.32774 0.19686 0.21188 0.0
C1942 C 0.33488 0.18563 0.20665 0.0
C1943 C 0.32421 0.16727 0.20578 0.0
C1944 C 0.3351 0.15822 0.19755 0.0
C1945 C 0.33374 0.14648 0.23934 0.0
C1946 C 0.32949 0.14738 0.15206 0.0
C1947 C 0.35359 0.17437 0.1936 0.0
C1948 C 0.35318 0.19005 0.19928 0.0
C1949 C 0.36859 0.20671 0.19658 0.0
C1950 C 0.38484 0.20736 0.18775 0.0
C1951 C 0.38553 0.19147 0.18143 0.0
C1952 C 0.36968 0.17478 0.18454 0.0
H1953 H 0.81214 0.17948 0.15299 0.0
H1954 H 0.86279 0.2287 0.13825 0.0
H1955 H 0.87848 0.21145 0.13679 0.0
H1956 H 0.82829 0.15795 0.22994 0.0
H1957 H 0.81454 0.13604 0.20539 0.0
H1958 H 0.80717 0.15216 0.20356 0.0
H1959 H 0.80373 0.1486 0.11397 0.0
H1960 H 0.81116 0.1325 0.1155 0.0
H1961 H 0.82252 0.15202 0.07908 0.0
H1962 H 0.88864 0.18919 0.13657 0.0
H1963 H 0.89311 0.1633 0.14243 0.0
H1964 H 0.83602 0.12825 0.15998 0.0
C1965 C 0.82653 0.18659 0.14927 0.0
C1966 C 0.83628 0.20541 0.14551 0.0
C1967 C 0.85509 0.21429 0.14118 0.0
C1968 C 0.8641 0.20461 0.14016 0.0
C1969 C 0.85411 0.18609 0.14384 0.0
C1970 C 0.83576 0.17714 0.14868 0.0
C1971 C 0.82834 0.15719 0.1536 0.0
C1972 C 0.81904 0.15044 0.20094 0.0
C1973 C 0.81569 0.14698 0.11312 0.0
C1974 C 0.8454 0.15635 0.15082 0.0
C1975 C 0.86005 0.17318 0.1448 0.0
C1976 C 0.87729 0.17594 0.14132 0.0
C1977 C 0.87966 0.16112 0.14462 0.0
C1978 C 0.86491 0.14376 0.15168 0.0
C1979 C 0.84754 0.14136 0.1545 0.0
H1980 H 0.79185 0.62026 0.14372 0.0
H1981 H 0.8274 0.59864 0.15662 0.0
H1982 H 0.85305 0.62912 0.16528 0.0
H1983 H 0.82221 0.65974 0.0777 0.0
H1984 H 0.81537 0.67384 0.10658 0.0
H1985 H 0.79984 0.65031 0.1002 0.0
H1986 H 0.7947 0.64751 0.18945 0.0
H1987 H 0.81024 0.67101 0.19611 0.0
H1988 H 0.81356 0.65494 0.22794 0.0
H1989 H 0.87475 0.66188 0.17483 0.0
H1990 H 0.89099 0.69476 0.18313 0.0
H1991 H 0.84136 0.69498 0.1635 0.0
C1992 C 0.80505 0.62196 0.14806 0.0
C1993 C 0.80764 0.6071 0.14945 0.0
C1994 C 0.8251 0.60985 0.1554 0.0
C1995 C 0.83976 0.6271 0.16035 0.0
C1996 C 0.83675 0.64147 0.15919 0.0
C1997 C 0.81985 0.63911 0.15303 0.0
C1998 C 0.82024 0.65682 0.15369 0.0
C1999 C 0.81405 0.66038 0.10674 0.0
C2000 C 0.80902 0.65761 0.19421 0.0
C2001 C 0.83997 0.66946 0.16144 0.0
C2002 C 0.84927 0.66035 0.1645 0.0
C2003 C 0.86763 0.66917 0.1723 0.0
C2004 C 0.87673 0.68782 0.17703 0.0
C2005 C 0.86745 0.69739 0.17388 0.0
C2006 C 0.84884 0.68803 0.16592 0.0
H2007 H 0.1855 0.36045 0.36114 0.0
H2008 H 0.13452 0.3585 0.37231 0.0
H2009 H 0.11891 0.32572 0.36262 0.0
H2010 H 0.17208 0.32699 0.27246 0.0
H2011 H 0.18505 0.31764 0.29524 0.0
H2012 H 0.19224 0.34086 0.30471 0.0
H2013 H 0.19277 0.33633 0.39375 0.0
H2014 H 0.1856 0.31309 0.38457 0.0
H2015 H 0.17298 0.31933 0.42237 0.0
H2016 H 0.10891 0.2934 0.35182 0.0
H2017 H 0.10493 0.2635 0.33826 0.0
H2018 H 0.16243 0.28637 0.33164 0.0
C2019 C 0.17105 0.3531 0.36187 0.0
C2020 C 0.16118 0.36196 0.36775 0.0
C2021 C 0.14231 0.35194 0.36795 0.0
C2022 C 0.13334 0.33334 0.36252 0.0
C2023 C 0.14346 0.32502 0.35663 0.0
C2024 C 0.16189 0.33455 0.35606 0.0
C2025 C 0.16957 0.32239 0.3479 0.0
C2026 C 0.18037 0.32727 0.30237 0.0
C2027 C 0.1809 0.32282 0.38964 0.0
C2028 C 0.15255 0.30451 0.34403 0.0
C2029 C 0.13767 0.30636 0.34941 0.0
C2030 C 0.12045 0.29178 0.34751 0.0
C2031 C 0.11835 0.27485 0.33983 0.0
C2032 C 0.13338 0.27261 0.33386 0.0
C2033 C 0.1507 0.28768 0.336 0.0
H2034 H 0.63587 0.79621 0.34519 0.0
H2035 H 0.60801 0.826 0.36009 0.0
H2036 H 0.63653 0.85427 0.35037 0.0
H2037 H 0.67595 0.8274 0.40677 0.0
H2038 H 0.69045 0.82397 0.36835 0.0
H2039 H 0.66789 0.80624 0.37785 0.0
H2040 H 0.66216 0.80405 0.28884 0.0
H2041 H 0.68466 0.82186 0.27911 0.0
H2042 H 0.66614 0.82369 0.25705 0.0
H2043 H 0.66823 0.87933 0.3375 0.0
H2044 H 0.70065 0.89907 0.32393 0.0
H2045 H 0.70722 0.85254 0.31676 0.0
C2046 C 0.63579 0.80868 0.34678 0.0
C2047 C 0.61977 0.80894 0.35351 0.0
C2048 C 0.62017 0.82552 0.35506 0.0
C2049 C 0.63629 0.84163 0.34953 0.0
C2050 C 0.65184 0.8409 0.34246 0.0
C2051 C 0.65171 0.82485 0.34121 0.0
C2052 C 0.67018 0.82767 0.33248 0.0
C2053 C 0.67648 0.82092 0.37383 0.0
C2054 C 0.67081 0.81879 0.28664 0.0
C2055 C 0.68071 0.8478 0.32888 0.0
C2056 C 0.66995 0.85524 0.33475 0.0
C2057 C 0.6768 0.87366 0.33287 0.0
C2058 C 0.69518 0.88475 0.32508 0.0
C2059 C 0.70639 0.87733 0.31921 0.0
C2060 C 0.69898 0.85862 0.32099 0.0
H2061 H 0.19889 0.84675 0.35253 0.0
H2062 H 0.1669 0.78905 0.36285 0.0
H2063 H 0.13942 0.79101 0.35899 0.0
H2064 H 0.17003 0.85654 0.42277 0.0
H2065 H 0.17369 0.87534 0.38756 0.0
H2066 H 0.19082 0.86937 0.39201 0.0
H2067 H 0.19138 0.86703 0.30211 0.0
H2068 H 0.17424 0.87296 0.29739 0.0
H2069 H 0.17098 0.85256 0.27146 0.0
H2070 H 0.1154 0.79922 0.35133 0.0
H2071 H 0.09668 0.81325 0.34234 0.0
H2072 H 0.14444 0.86551 0.33851 0.0
C2073 C 0.1861 0.83454 0.3542 0.0
C2074 C 0.18501 0.81775 0.35799 0.0
C2075 C 0.16804 0.80206 0.36002 0.0
C2076 C 0.15236 0.80303 0.35783 0.0
C2077 C 0.15389 0.81979 0.35384 0.0
C2078 C 0.17032 0.83527 0.35225 0.0
C2079 C 0.16829 0.85159 0.34753 0.0
C2080 C 0.17617 0.86393 0.39 0.0
C2081 C 0.17672 0.86162 0.3019 0.0
C2082 C 0.14816 0.84287 0.34637 0.0
C2083 C 0.14008 0.82452 0.35001 0.0
C2084 C 0.12157 0.81359 0.34872 0.0
C2085 C 0.11106 0.82165 0.34356 0.0
C2086 C 0.11912 0.84044 0.33993 0.0
C2087 C 0.1379 0.85111 0.34151 0.0
H2088 H 0.68891 0.82019 0.81167 0.0
H2089 H 0.71159 0.87774 0.8085 0.0
H2090 H 0.68148 0.87389 0.81465 0.0
H2091 H 0.64927 0.80935 0.74385 0.0
H2092 H 0.63494 0.78975 0.77762 0.0
H2093 H 0.65831 0.79692 0.7718 0.0
H2094 H 0.66151 0.79803 0.86163 0.0
H2095 H 0.63817 0.79088 0.86771 0.0
H2096 H 0.6547 0.81126 0.89507 0.0
H2097 H 0.64918 0.86407 0.82349 0.0
H2098 H 0.61644 0.84863 0.83366 0.0
H2099 H 0.61451 0.7975 0.83035 0.0
C2100 C 0.6875 0.83195 0.812 0.0
C2101 C 0.70259 0.84925 0.80957 0.0
C2102 C 0.70022 0.86433 0.8103 0.0
C2103 C 0.68317 0.86231 0.81376 0.0
C2104 C 0.66858 0.84511 0.81635 0.0
C2105 C 0.67052 0.83017 0.8154 0.0
C2106 C 0.65258 0.81322 0.81943 0.0
C2107 C 0.64854 0.80163 0.77555 0.0
C2108 C 0.6517 0.80274 0.86359 0.0
C2109 C 0.64035 0.821 0.82308 0.0
C2110 C 0.64986 0.83942 0.82118 0.0
C2111 C 0.64154 0.84964 0.82479 0.0
C2112 C 0.62297 0.84077 0.83059 0.0
C2113 C 0.61296 0.8219 0.83263 0.0
C2114 C 0.62181 0.81194 0.82863 0.0
H2115 H 0.19115 0.81811 0.85326 0.0
H2116 H 0.13958 0.76984 0.84135 0.0
H2117 H 0.12518 0.7882 0.83129 0.0
H2118 H 0.1763 0.84406 0.91725 0.0
H2119 H 0.19125 0.86456 0.88759 0.0
H2120 H 0.19725 0.84754 0.89465 0.0
H2121 H 0.20152 0.84714 0.8054 0.0
H2122 H 0.19546 0.86411 0.79803 0.0
H2123 H 0.18345 0.84327 0.76702 0.0
H2124 H 0.11658 0.81206 0.82243 0.0
H2125 H 0.11442 0.83943 0.81545 0.0
H2126 H 0.17185 0.87182 0.83171 0.0
C2127 C 0.17681 0.81138 0.84879 0.0
C2128 C 0.16644 0.79256 0.84823 0.0
C2129 C 0.14774 0.78425 0.84197 0.0
C2130 C 0.13947 0.79457 0.83621 0.0
C2131 C 0.15013 0.81312 0.83664 0.0
C2132 C 0.16839 0.82143 0.84277 0.0
C2133 C 0.1769 0.84155 0.84134 0.0
C2134 C 0.18595 0.84991 0.88799 0.0
C2135 C 0.19011 0.84948 0.80051 0.0
C2136 C 0.16056 0.8433 0.83348 0.0
C2137 C 0.14524 0.82677 0.83095 0.0
C2138 C 0.1285 0.82506 0.82428 0.0
C2139 C 0.12741 0.84067 0.82033 0.0
C2140 C 0.14297 0.85771 0.8229 0.0
C2141 C 0.15973 0.85897 0.82937 0.0
H2142 H 0.18433 0.36487 0.86098 0.0
H2143 H 0.23122 0.35888 0.8654 0.0
H2144 H 0.21224 0.3265 0.85082 0.0
H2145 H 0.15403 0.3232 0.91733 0.0
H2146 H 0.13539 0.31919 0.88107 0.0
H2147 H 0.15267 0.34173 0.89317 0.0
H2148 H 0.15755 0.34813 0.8046 0.0
H2149 H 0.14036 0.32557 0.79222 0.0
H2150 H 0.16242 0.33408 0.76831 0.0
H2151 H 0.18812 0.29487 0.83516 0.0
H2152 H 0.16055 0.26618 0.82013 0.0
H2153 H 0.12974 0.29327 0.82425 0.0
C2154 C 0.19059 0.35672 0.85925 0.0
C2155 C 0.2092 0.3643 0.86448 0.0
C2156 C 0.21694 0.35327 0.86158 0.0
C2157 C 0.20629 0.33491 0.85327 0.0
C2158 C 0.18798 0.32787 0.8478 0.0
C2159 C 0.18019 0.33843 0.85071 0.0
C2160 C 0.16026 0.32766 0.84279 0.0
C2161 C 0.14999 0.32796 0.88618 0.0
C2162 C 0.15484 0.33426 0.79939 0.0
C2163 C 0.15804 0.30937 0.83497 0.0
C2164 C 0.17417 0.30975 0.83809 0.0
C2165 C 0.17542 0.2944 0.83258 0.0
C2166 C 0.15971 0.2782 0.82401 0.0
C2167 C 0.14307 0.27756 0.82088 0.0
C2168 C 0.1423 0.29338 0.82618 0.0
H2169 H 0.8468 0.69719 0.67034 0.0
H2170 H 0.79462 0.68989 0.70376 0.0
H2171 H 0.78201 0.65714 0.70348 0.0
H2172 H 0.83136 0.66026 0.5918 0.0
H2173 H 0.84775 0.65438 0.60955 0.0
H2174 H 0.85271 0.67719 0.61377 0.0
H2175 H 0.85984 0.67749 0.7015 0.0
H2176 H 0.85487 0.65466 0.69759 0.0
H2177 H 0.84337 0.66079 0.73952 0.0
H2178 H 0.77516 0.62534 0.69933 0.0
H2179 H 0.77414 0.59654 0.68885 0.0
H2180 H 0.83076 0.62458 0.6566 0.0
C2181 C 0.83272 0.68871 0.67778 0.0
C2182 C 0.82167 0.69604 0.68725 0.0
C2183 C 0.80331 0.68452 0.69646 0.0
C2184 C 0.79605 0.66593 0.69647 0.0
C2185 C 0.80734 0.65914 0.68702 0.0
C2186 C 0.82526 0.67016 0.67765 0.0
C2187 C 0.8344 0.65947 0.66745 0.0
C2188 C 0.842 0.66304 0.61769 0.0
C2189 C 0.84898 0.66334 0.70369 0.0
C2190 C 0.8188 0.64067 0.67244 0.0
C2191 C 0.80334 0.6408 0.68399 0.0
C2192 C 0.78717 0.62508 0.6903 0.0
C2193 C 0.78675 0.60879 0.68431 0.0
C2194 C 0.80238 0.60833 0.67191 0.0
C2195 C 0.81861 0.62452 0.66614 0.0
H2196 H 0.30429 0.15621 0.69103 0.0
H2197 H 0.30663 0.10757 0.67274 0.0
H2198 H 0.33884 0.12549 0.65596 0.0
H2199 H 0.3359 0.18174 0.59989 0.0
H2200 H 0.34583 0.2024 0.63206 0.0
H2201 H 0.32279 0.18582 0.64171 0.0
H2202 H 0.32909 0.18548 0.72978 0.0
H2203 H 0.35212 0.2021 0.72044 0.0
H2204 H 0.34656 0.18124 0.74816 0.0
H2205 H 0.37059 0.1483 0.64298 0.0
H2206 H 0.40046 0.17485 0.63573 0.0
H2207 H 0.37799 0.20908 0.66191 0.0
C2208 C 0.31159 0.14935 0.68337 0.0
C2209 C 0.30298 0.1305 0.68314 0.0
C2210 C 0.31296 0.122 0.6731 0.0
C2211 C 0.33125 0.13205 0.66343 0.0
C2212 C 0.33934 0.15059 0.66389 0.0
C2213 C 0.32989 0.15921 0.67363 0.0
C2214 C 0.34198 0.17932 0.67274 0.0
C2215 C 0.33628 0.18782 0.6343 0.0
C2216 C 0.34247 0.18751 0.72063 0.0
C2217 C 0.35971 0.18064 0.66132 0.0
C2218 C 0.35781 0.16387 0.65623 0.0
C2219 C 0.37226 0.16151 0.64669 0.0
C2220 C 0.38917 0.17668 0.64266 0.0
C2221 C 0.39153 0.19402 0.64815 0.0
C2222 C 0.37655 0.196 0.65718 0.0
H2223 H 0.87271 0.17263 0.68139 0.0
H2224 H 0.84153 0.11498 0.69545 0.0
H2225 H 0.81379 0.11653 0.69462 0.0
H2226 H 0.84419 0.1829 0.75317 0.0
H2227 H 0.84721 0.2011 0.71639 0.0
H2228 H 0.86463 0.19552 0.72082 0.0
H2229 H 0.86436 0.192 0.63114 0.0
H2230 H 0.84692 0.19752 0.62645 0.0
H2231 H 0.84373 0.17689 0.60224 0.0
H2232 H 0.78948 0.1242 0.68874 0.0
H2233 H 0.77025 0.13753 0.67802 0.0
H2234 H 0.81735 0.19011 0.66749 0.0
C2235 C 0.86005 0.16035 0.6848 0.0
C2236 C 0.85923 0.14369 0.68861 0.0
C2237 C 0.84243 0.1279 0.69256 0.0
C2238 C 0.82662 0.12864 0.6922 0.0
C2239 C 0.82787 0.14527 0.68792 0.0
C2240 C 0.84415 0.16085 0.68438 0.0
C2241 C 0.84179 0.17693 0.67841 0.0
C2242 C 0.84994 0.18987 0.71966 0.0
C2243 C 0.84966 0.18638 0.63179 0.0
C2244 C 0.82164 0.16794 0.67856 0.0
C2245 C 0.81386 0.14969 0.68435 0.0
C2246 C 0.7954 0.13849 0.68447 0.0
C2247 C 0.7846 0.14617 0.67831 0.0
C2248 C 0.79233 0.16483 0.67201 0.0
C2249 C 0.81108 0.17581 0.67244 0.0
H2250 H 0.03141 0.48766 0.48877 0.0
H2251 H 0.05765 0.54515 0.50758 0.0
H2252 H 0.02865 0.54295 0.52225 0.0
H2253 H 0.99277 0.48314 0.42936 0.0
H2254 H 0.9773 0.46228 0.45679 0.0
H2255 H 0.00024 0.46812 0.44867 0.0
H2256 H 0.00307 0.46408 0.53706 0.0
H2257 H 0.98015 0.45827 0.54545 0.0
H2258 H 0.99759 0.47637 0.57816 0.0
H2259 H 0.99723 0.5351 0.53298 0.0
H2260 H 0.96457 0.52173 0.53886 0.0
H2261 H 0.95802 0.46923 0.51429 0.0
C2262 C 0.031 0.49974 0.49609 0.0
C2263 C 0.04681 0.51657 0.49701 0.0
C2264 C 0.04574 0.53209 0.50665 0.0
C2265 C 0.02933 0.53101 0.51513 0.0
C2266 C 0.01402 0.51429 0.51398 0.0
C2267 C 0.01462 0.49891 0.50474 0.0
C2268 C 0.996 0.4827 0.505 0.0
C2269 C 0.9913 0.47352 0.4571 0.0
C2270 C 0.9941 0.46958 0.54373 0.0
C2271 C 0.98495 0.49147 0.51547 0.0
C2272 C 0.99567 0.5097 0.52058 0.0
C2273 C 0.98865 0.52082 0.52929 0.0
C2274 C 0.9701 0.51311 0.53256 0.0
C2275 C 0.95879 0.49446 0.52722 0.0
C2276 C 0.96636 0.48351 0.51891 0.0
H2277 H 0.49526 0.54163 0.52037 0.0
H2278 H 0.43757 0.50958 0.51153 0.0
H2279 H 0.4393 0.48236 0.52729 0.0
H2280 H 0.50505 0.5106 0.46501 0.0
H2281 H 0.52372 0.51555 0.50229 0.0
H2282 H 0.5178 0.53242 0.49097 0.0
H2283 H 0.51514 0.53615 0.57969 0.0
H2284 H 0.52104 0.51928 0.59127 0.0
H2285 H 0.50058 0.51689 0.61433 0.0
H2286 H 0.44761 0.45845 0.54125 0.0
H2287 H 0.46186 0.44009 0.5547 0.0
H2288 H 0.51382 0.48822 0.5566 0.0
C2289 C 0.48299 0.52889 0.52186 0.0
C2290 C 0.46629 0.52768 0.51467 0.0
C2291 C 0.45052 0.51078 0.51701 0.0
C2292 C 0.45136 0.49526 0.52591 0.0
C2293 C 0.46807 0.49691 0.5327 0.0
C2294 C 0.48358 0.51332 0.53103 0.0
C2295 C 0.49986 0.51153 0.53946 0.0
C2296 C 0.51234 0.5179 0.49689 0.0
C2297 C 0.50973 0.52156 0.58383 0.0
C2298 C 0.49111 0.49154 0.54579 0.0
C2299 C 0.47277 0.48329 0.54166 0.0
C2300 C 0.46195 0.46478 0.5449 0.0
C2301 C 0.47013 0.45447 0.55249 0.0
C2302 C 0.48889 0.46275 0.55699 0.0
C2303 C 0.49942 0.48151 0.55378 0.0
H2304 H 0.53659 0.04142 0.496 0.0
H2305 H 0.50503 0.06738 0.47951 0.0
H2306 H 0.47766 0.03788 0.47386 0.0
H2307 H 0.5117 0.00558 0.41549 0.0
H2308 H 0.51371 0.9892 0.44973 0.0
H2309 H 0.53078 0.01236 0.4528 0.0
H2310 H 0.52675 0.01183 0.54233 0.0
H2311 H 0.50963 0.98868 0.53952 0.0
H2312 H 0.50494 0.00476 0.5662 0.0
H2313 H 0.45383 0.0057 0.47019 0.0
H2314 H 0.43508 0.97287 0.46693 0.0
H2315 H 0.48221 0.96789 0.4855 0.0
C2316 C 0.52392 0.04089 0.49115 0.0
C2317 C 0.5229 0.05665 0.48819 0.0
C2318 C 0.50609 0.05544 0.48183 0.0
C2319 C 0.49049 0.03877 0.47865 0.0
C2320 C 0.49196 0.02348 0.48188 0.0
C2321 C 0.50823 0.02437 0.48786 0.0
C2322 C 0.50613 0.00592 0.4899 0.0
C2323 C 0.51617 0.0031 0.44957 0.0
C2324 C 0.51222 0.00261 0.53731 0.0
C2325 C 0.48613 0.99451 0.48404 0.0
C2326 C 0.4782 0.00491 0.4796 0.0
C2327 C 0.45987 0.99741 0.47363 0.0
C2328 C 0.44934 0.97877 0.47187 0.0
C2329 C 0.45721 0.96787 0.47598 0.0
C2330 C 0.47583 0.97589 0.48233 0.0
H2331 H 0.49344 0.03495 0.98881 0.0
H2332 H 0.55106 0.05952 0.98018 0.0
H2333 H 0.54805 0.0297 0.97097 0.0
H2334 H 0.48584 0.99668 0.05475 0.0
H2335 H 0.46541 0.98165 0.02496 0.0
H2336 H 0.47217 0.00494 0.03014 0.0
H2337 H 0.47052 0.00718 0.94046 0.0
H2338 H 0.46376 0.98389 0.935 0.0
H2339 H 0.48304 0.00045 0.90379 0.0
H2340 H 0.53865 0.99702 0.96403 0.0
H2341 H 0.52351 0.96404 0.95956 0.0
H2342 H 0.47217 0.96123 0.97214 0.0
C2343 C 0.50543 0.03407 0.98488 0.0
C2344 C 0.52249 0.04952 0.9852 0.0
C2345 C 0.53786 0.04783 0.98 0.0
C2346 C 0.53628 0.03096 0.97474 0.0
C2347 C 0.51925 0.01597 0.97467 0.0
C2348 C 0.5041 0.01738 0.97954 0.0
C2349 C 0.48737 -0.00077 0.97864 0.0
C2350 C 0.4771 0.9954 0.02488 0.0
C2351 C 0.47547 0.9976 0.93699 0.0
C2352 C 0.49546 0.98738 0.97267 0.0
C2353 C 0.51386 0.99725 0.97043 0.0
C2354 C 0.52423 0.98915 0.96559 0.0
C2355 C 0.51554 0.97044 0.96308 0.0
C2356 C 0.49669 0.96011 0.96538 0.0
C2357 C 0.4866 0.96877 0.97008 0.0
H2358 H 0.96737 0.46 0.00747 0.0
H2359 H 0.94215 0.49197 0.98527 0.0
H2360 H 0.97178 0.51887 0.97568 0.0
H2361 H 0.00439 0.4925 0.0737 0.0
H2362 H 0.02018 0.48703 0.04872 0.0
H2363 H 0.99696 0.47021 0.05279 0.0
H2364 H 0.99612 0.46456 0.96395 0.0
H2365 H 0.01936 0.48132 0.95963 0.0
H2366 H 0.00308 0.483 0.92416 0.0
H2367 H 0.00422 0.54241 0.97004 0.0
H2368 H 0.03717 0.56072 0.96722 0.0
H2369 H 0.04101 0.51329 0.99295 0.0
C2370 C 0.96808 0.47264 1.00035 0.0
C2371 C 0.95248 0.47392 0.99706 0.0
C2372 C 0.95395 0.4907 0.98788 0.0
C2373 C 0.97071 0.50605 0.98241 0.0
C2374 C 0.98585 0.50437 0.98618 0.0
C2375 C 0.9847 0.48809 0.9948 0.0
C2376 C 0.00302 0.48995 0.9976 0.0
C2377 C 0.00632 0.48461 0.04609 0.0
C2378 C 0.00554 0.47906 0.95903 0.0
C2379 C 0.01464 0.50981 0.98934 0.0
C2380 C 0.0045 0.51791 0.98285 0.0
C2381 C 0.01231 0.53621 0.97495 0.0
C2382 C 0.031 0.5465 0.97347 0.0
C2383 C 0.0416 0.53842 0.97982 0.0
C2384 C 0.03325 0.51984 0.98791 0.0
H2385 H 0.51657 0.49194 0.05096 0.0
H2386 H 0.56618 0.54243 0.04153 0.0
H2387 H 0.54916 0.55755 0.02078 0.0
H2388 H 0.49533 0.49908 0.95377 0.0
H2389 H 0.47349 0.48798 0.98014 0.0
H2390 H 0.48961 0.48149 0.99563 0.0
H2391 H 0.48642 0.48727 0.08276 0.0
H2392 H 0.4702 0.49366 0.06758 0.0
H2393 H 0.48978 0.50875 0.10035 0.0
H2394 H 0.52616 0.56691 1.00133 0.0
H2395 H 0.49948 0.5696 0.98463 0.0
H2396 H 0.46568 0.51249 0.00455 0.0
C2397 C 0.52389 0.50621 0.04491 0.0
C2398 C 0.54267 0.51607 0.04813 0.0
C2399 C 0.55176 0.53467 0.03942 0.0
C2400 C 0.54222 0.54334 0.02757 0.0
C2401 C 0.52366 0.53314 0.02432 0.0
C2402 C 0.51464 0.51497 0.03271 0.0
C2403 C 0.49475 0.50686 0.0262 0.0
C2404 C 0.4879 0.49304 0.98658 0.0
C2405 C 0.4847 0.49866 0.07195 0.0
C2406 C 0.49389 0.52331 0.013 0.0
C2407 C 0.51064 0.53838 0.01216 0.0
C2408 C 0.513 0.55518 1.00171 0.0
C2409 C 0.4978 0.55658 0.99223 0.0
C2410 C 0.48056 0.54124 0.99304 0.0
C2411 C 0.47869 0.52444 0.00325 0.0
loop_
_geom_bond_atom_site_label_1
_geom_bond_atom_site_label_2
_geom_bond_distance
_geom_bond_site_symmetry_2
_ccdc_geom_bond_type
In0 O1 2.294 . S
In0 O2 2.326 . S
In0 O6 2.266 . S
In0 O7 2.326 . S
In0 O8 2.266 . S
In0 O9 2.326 . S
In0 O11 2.294 . S
In0 O12 2.326 . S
O1 In0 2.294 . S
O1 C10 1.240 . S
O2 In0 2.326 . S
O2 C10 1.252 . S
C3 O6 1.252 . S
C3 O7 1.260 . S
C4 O11 1.240 . S
C4 O12 1.252 . S
C5 O8 1.252 . S
C5 O9 1.260 . S
O6 In0 2.266 . S
O6 C3 1.252 . S
O7 In0 2.326 . S
O7 C3 1.260 . S
O8 In0 2.266 . S
O8 C5 1.252 . S
O9 In0 2.326 . S
O9 C5 1.260 . S
C10 O1 1.240 . S
C10 O2 1.252 . S
O11 In0 2.294 . S
O11 C4 1.240 . S
O12 In0 2.326 . S
O12 C4 1.252 . S
In13 O14 2.294 . S
In13 O15 2.326 . S
In13 O19 2.266 . S
In13 O20 2.326 . S
In13 O21 2.266 . S
In13 O22 2.326 . S
In13 O24 2.294 . S
In13 O25 2.326 . S
O14 In13 2.294 . S
O14 C23 1.240 . S
O15 In13 2.326 . S
O15 C23 1.252 . S
C16 O19 1.252 . S
C16 O20 1.260 . S
C17 O24 1.240 . S
C17 O25 1.252 . S
C18 O21 1.252 . S
C18 O22 1.260 . S
O19 In13 2.266 . S
O19 C16 1.252 . S
O20 In13 2.326 . S
O20 C16 1.260 . S
O21 In13 2.266 . S
O21 C18 1.252 . S
O22 In13 2.326 . S
O22 C18 1.260 . S
C23 O14 1.240 . S
C23 O15 1.252 . S
O24 In13 2.294 . S
O24 C17 1.240 . S
O25 In13 2.326 . S
O25 C17 1.252 . S
In26 O27 2.294 . S
In26 O28 2.326 . S
In26 O32 2.266 . S
In26 O33 2.326 . S
In26 O34 2.266 . S
In26 O35 2.326 . S
In26 O37 2.294 . S
In26 O38 2.326 . S
O27 In26 2.294 . S
O27 C36 1.240 . S
O28 In26 2.326 . S
O28 C36 1.252 . S
C29 O32 1.252 . S
C29 O33 1.260 . S
C30 O37 1.240 . S
C30 O38 1.252 . S
C31 O34 1.252 . S
C31 O35 1.260 . S
O32 In26 2.266 . S
O32 C29 1.252 . S
O33 In26 2.326 . S
O33 C29 1.260 . S
O34 In26 2.266 . S
O34 C31 1.252 . S
O35 In26 2.326 . S
O35 C31 1.260 . S
C36 O27 1.240 . S
C36 O28 1.252 . S
O37 In26 2.294 . S
O37 C30 1.240 . S
O38 In26 2.326 . S
O38 C30 1.252 . S
In39 O40 2.294 . S
In39 O41 2.326 . S
In39 O45 2.266 . S
In39 O46 2.326 . S
In39 O47 2.266 . S
In39 O48 2.326 . S
In39 O50 2.294 . S
In39 O51 2.326 . S
O40 In39 2.294 . S
O40 C49 1.240 . S
O41 In39 2.326 . S
O41 C49 1.252 . S
C42 O45 1.252 . S
C42 O46 1.260 . S
C43 O50 1.240 . S
C43 O51 1.252 . S
C44 O47 1.252 . S
C44 O48 1.260 . S
O45 In39 2.266 . S
O45 C42 1.252 . S
O46 In39 2.326 . S
O46 C42 1.260 . S
O47 In39 2.266 . S
O47 C44 1.252 . S
O48 In39 2.326 . S
O48 C44 1.260 . S
C49 O40 1.240 . S
C49 O41 1.252 . S
O50 In39 2.294 . S
O50 C43 1.240 . S
O51 In39 2.326 . S
O51 C43 1.252 . S
In52 O53 2.294 . S
In52 O54 2.326 . S
In52 O58 2.266 . S
In52 O59 2.326 . S
In52 O60 2.266 . S
In52 O61 2.326 . S
In52 O63 2.294 . S
In52 O64 2.326 . S
O53 In52 2.294 . S
O53 C62 1.240 . S
O54 In52 2.326 . S
O54 C62 1.252 . S
C55 O58 1.252 . S
C55 O59 1.260 . S
C56 O63 1.240 . S
C56 O64 1.252 . S
C57 O60 1.252 . S
C57 O61 1.260 . S
O58 In52 2.266 . S
O58 C55 1.252 . S
O59 In52 2.326 . S
O59 C55 1.260 . S
O60 In52 2.266 . S
O60 C57 1.252 . S
O61 In52 2.326 . S
O61 C57 1.260 . S
C62 O53 1.240 . S
C62 O54 1.252 . S
O63 In52 2.294 . S
O63 C56 1.240 . S
O64 In52 2.326 . S
O64 C56 1.252 . S
In65 O66 2.294 . S
In65 O67 2.326 . S
In65 O71 2.266 . S
In65 O72 2.326 . S
In65 O73 2.266 . S
In65 O74 2.326 . S
In65 O76 2.294 . S
In65 O77 2.326 . S
O66 In65 2.294 . S
O66 C75 1.240 . S
O67 In65 2.326 . S
O67 C75 1.252 . S
C68 O71 1.252 . S
C68 O72 1.260 . S
C69 O76 1.240 . S
C69 O77 1.252 . S
C70 O73 1.252 . S
C70 O74 1.260 . S
O71 In65 2.266 . S
O71 C68 1.252 . S
O72 In65 2.326 . S
O72 C68 1.260 . S
O73 In65 2.266 . S
O73 C70 1.252 . S
O74 In65 2.326 . S
O74 C70 1.260 . S
C75 O66 1.240 . S
C75 O67 1.252 . S
O76 In65 2.294 . S
O76 C69 1.240 . S
O77 In65 2.326 . S
O77 C69 1.252 . S
In78 O79 2.294 . S
In78 O80 2.326 . S
In78 O84 2.266 . S
In78 O85 2.326 . S
In78 O86 2.266 . S
In78 O87 2.326 . S
In78 O89 2.294 . S
In78 O90 2.326 . S
O79 In78 2.294 . S
O79 C88 1.240 . S
O80 In78 2.326 . S
O80 C88 1.252 . S
C81 O84 1.252 . S
C81 O85 1.260 . S
C82 O89 1.240 . S
C82 O90 1.252 . S
C83 O86 1.252 . S
C83 O87 1.260 . S
O84 In78 2.266 . S
O84 C81 1.252 . S
O85 In78 2.326 . S
O85 C81 1.260 . S
O86 In78 2.266 . S
O86 C83 1.252 . S
O87 In78 2.326 . S
O87 C83 1.260 . S
C88 O79 1.240 . S
C88 O80 1.252 . S
O89 In78 2.294 . S
O89 C82 1.240 . S
O90 In78 2.326 . S
O90 C82 1.252 . S
In91 O92 2.294 . S
In91 O93 2.326 . S
In91 O97 2.266 . S
In91 O98 2.326 . S
In91 O99 2.266 . S
In91 O100 2.326 . S
In91 O102 2.294 . S
In91 O103 2.326 . S
O92 In91 2.294 . S
O92 C101 1.240 . S
O93 In91 2.326 . S
O93 C101 1.252 . S
C94 O97 1.252 . S
C94 O98 1.260 . S
C95 O102 1.240 . S
C95 O103 1.252 . S
C96 O99 1.252 . S
C96 O100 1.260 . S
O97 In91 2.266 . S
O97 C94 1.252 . S
O98 In91 2.326 . S
O98 C94 1.260 . S
O99 In91 2.266 . S
O99 C96 1.252 . S
O100 In91 2.326 . S
O100 C96 1.260 . S
C101 O92 1.240 . S
C101 O93 1.252 . S
O102 In91 2.294 . S
O102 C95 1.240 . S
O103 In91 2.326 . S
O103 C95 1.252 . S
In104 O105 2.294 . S
In104 O106 2.326 . S
In104 O110 2.266 . S
In104 O111 2.326 . S
In104 O112 2.266 . S
In104 O113 2.326 . S
In104 O115 2.294 . S
In104 O116 2.326 . S
O105 In104 2.294 . S
O105 C114 1.240 . S
O106 In104 2.326 . S
O106 C114 1.252 . S
C107 O110 1.252 . S
C107 O111 1.260 . S
C108 O115 1.240 . S
C108 O116 1.252 . S
C109 O112 1.252 . S
C109 O113 1.260 . S
O110 In104 2.266 . S
O110 C107 1.252 . S
O111 In104 2.326 . S
O111 C107 1.260 . S
O112 In104 2.266 . S
O112 C109 1.252 . S
O113 In104 2.326 . S
O113 C109 1.260 . S
C114 O105 1.240 . S
C114 O106 1.252 . S
O115 In104 2.294 . S
O115 C108 1.240 . S
O116 In104 2.326 . S
O116 C108 1.252 . S
In117 O118 2.294 . S
In117 O119 2.326 . S
In117 O123 2.266 . S
In117 O124 2.326 . S
In117 O125 2.266 . S
In117 O126 2.326 . S
In117 O128 2.294 . S
In117 O129 2.326 . S
O118 In117 2.294 . S
O118 C127 1.240 . S
O119 In117 2.326 . S
O119 C127 1.252 . S
C120 O123 1.252 . S
C120 O124 1.260 . S
C121 O128 1.240 . S
C121 O129 1.252 . S
C122 O125 1.252 . S
C122 O126 1.260 . S
O123 In117 2.266 . S
O123 C120 1.252 . S
O124 In117 2.326 . S
O124 C120 1.260 . S
O125 In117 2.266 . S
O125 C122 1.252 . S
O126 In117 2.326 . S
O126 C122 1.260 . S
C127 O118 1.240 . S
C127 O119 1.252 . S
O128 In117 2.294 . S
O128 C121 1.240 . S
O129 In117 2.326 . S
O129 C121 1.252 . S
In130 O131 2.294 . S
In130 O132 2.326 . S
In130 O136 2.266 . S
In130 O137 2.326 . S
In130 O138 2.266 . S
In130 O139 2.326 . S
In130 O141 2.294 . S
In130 O142 2.326 . S
O131 In130 2.294 . S
O131 C140 1.240 . S
O132 In130 2.326 . S
O132 C140 1.252 . S
C133 O136 1.252 . S
C133 O137 1.260 . S
C134 O141 1.240 . S
C134 O142 1.252 . S
C135 O138 1.252 . S
C135 O139 1.260 . S
O136 In130 2.266 . S
O136 C133 1.252 . S
O137 In130 2.326 . S
O137 C133 1.260 . S
O138 In130 2.266 . S
O138 C135 1.252 . S
O139 In130 2.326 . S
O139 C135 1.260 . S
C140 O131 1.240 . S
C140 O132 1.252 . S
O141 In130 2.294 . S
O141 C134 1.240 . S
O142 In130 2.326 . S
O142 C134 1.252 . S
In143 O144 2.294 . S
In143 O145 2.326 . S
In143 O149 2.266 . S
In143 O150 2.326 . S
In143 O151 2.266 . S
In143 O152 2.326 . S
In143 O154 2.294 . S
In143 O155 2.326 . S
O144 In143 2.294 . S
O144 C153 1.240 . S
O145 In143 2.326 . S
O145 C153 1.252 . S
C146 O149 1.252 . S
C146 O150 1.260 . S
C147 O154 1.240 . S
C147 O155 1.252 . S
C148 O151 1.252 . S
C148 O152 1.260 . S
O149 In143 2.266 . S
O149 C146 1.252 . S
O150 In143 2.326 . S
O150 C146 1.260 . S
O151 In143 2.266 . S
O151 C148 1.252 . S
O152 In143 2.326 . S
O152 C148 1.260 . S
C153 O144 1.240 . S
C153 O145 1.252 . S
O154 In143 2.294 . S
O154 C147 1.240 . S
O155 In143 2.326 . S
O155 C147 1.252 . S
In156 O157 2.294 . S
In156 O158 2.326 . S
In156 O162 2.266 . S
In156 O163 2.326 . S
In156 O164 2.266 . S
In156 O165 2.326 . S
In156 O167 2.294 . S
In156 O168 2.326 . S
O157 In156 2.294 . S
O157 C166 1.240 . S
O158 In156 2.326 . S
O158 C166 1.252 . S
C159 O162 1.252 . S
C159 O163 1.260 . S
C160 O167 1.240 . S
C160 O168 1.252 . S
C161 O164 1.252 . S
C161 O165 1.260 . S
O162 In156 2.266 . S
O162 C159 1.252 . S
O163 In156 2.326 . S
O163 C159 1.260 . S
O164 In156 2.266 . S
O164 C161 1.252 . S
O165 In156 2.326 . S
O165 C161 1.260 . S
C166 O157 1.240 . S
C166 O158 1.252 . S
O167 In156 2.294 . S
O167 C160 1.240 . S
O168 In156 2.326 . S
O168 C160 1.252 . S
In169 O170 2.294 . S
In169 O171 2.326 . S
In169 O175 2.266 . S
In169 O176 2.326 . S
In169 O177 2.266 . S
In169 O178 2.326 . S
In169 O180 2.294 . S
In169 O181 2.326 . S
O170 In169 2.294 . S
O170 C179 1.240 . S
O171 In169 2.326 . S
O171 C179 1.252 . S
C172 O175 1.252 . S
C172 O176 1.260 . S
C173 O180 1.240 . S
C173 O181 1.252 . S
C174 O177 1.252 . S
C174 O178 1.260 . S
O175 In169 2.266 . S
O175 C172 1.252 . S
O176 In169 2.326 . S
O176 C172 1.260 . S
O177 In169 2.266 . S
O177 C174 1.252 . S
O178 In169 2.326 . S
O178 C174 1.260 . S
C179 O170 1.240 . S
C179 O171 1.252 . S
O180 In169 2.294 . S
O180 C173 1.240 . S
O181 In169 2.326 . S
O181 C173 1.252 . S
In182 O183 2.294 . S
In182 O184 2.326 . S
In182 O188 2.266 . S
In182 O189 2.326 . S
In182 O190 2.266 . S
In182 O191 2.326 . S
In182 O193 2.294 . S
In182 O194 2.326 . S
O183 In182 2.294 . S
O183 C192 1.240 . S
O184 In182 2.326 . S
O184 C192 1.252 . S
C185 O188 1.252 . S
C185 O189 1.260 . S
C186 O193 1.240 . S
C186 O194 1.252 . S
C187 O190 1.252 . S
C187 O191 1.260 . S
O188 In182 2.266 . S
O188 C185 1.252 . S
O189 In182 2.326 . S
O189 C185 1.260 . S
O190 In182 2.266 . S
O190 C187 1.252 . S
O191 In182 2.326 . S
O191 C187 1.260 . S
C192 O183 1.240 . S
C192 O184 1.252 . S
O193 In182 2.294 . S
O193 C186 1.240 . S
O194 In182 2.326 . S
O194 C186 1.252 . S
In195 O196 2.294 . S
In195 O197 2.326 . S
In195 O201 2.266 . S
In195 O202 2.326 . S
In195 O203 2.266 . S
In195 O204 2.326 . S
In195 O206 2.294 . S
In195 O207 2.326 . S
O196 In195 2.294 . S
O196 C205 1.240 . S
O197 In195 2.326 . S
O197 C205 1.252 . S
C198 O201 1.252 . S
C198 O202 1.260 . S
C199 O206 1.240 . S
C199 O207 1.252 . S
C200 O203 1.252 . S
C200 O204 1.260 . S
O201 In195 2.266 . S
O201 C198 1.252 . S
O202 In195 2.326 . S
O202 C198 1.260 . S
O203 In195 2.266 . S
O203 C200 1.252 . S
O204 In195 2.326 . S
O204 C200 1.260 . S
C205 O196 1.240 . S
C205 O197 1.252 . S
O206 In195 2.294 . S
O206 C199 1.240 . S
O207 In195 2.326 . S
O207 C199 1.252 . S
In208 O209 2.294 . S
In208 O210 2.326 . S
In208 O214 2.266 . S
In208 O215 2.326 . S
In208 O216 2.266 . S
In208 O217 2.326 . S
In208 O219 2.294 . S
In208 O220 2.326 . S
O209 In208 2.294 . S
O209 C218 1.240 . S
O210 In208 2.326 . S
O210 C218 1.252 . S
C211 O214 1.252 . S
C211 O215 1.260 . S
C212 O219 1.240 . S
C212 O220 1.252 . S
C213 O216 1.252 . S
C213 O217 1.260 . S
O214 In208 2.266 . S
O214 C211 1.252 . S
O215 In208 2.326 . S
O215 C211 1.260 . S
O216 In208 2.266 . S
O216 C213 1.252 . S
O217 In208 2.326 . S
O217 C213 1.260 . S
C218 O209 1.240 . S
C218 O210 1.252 . S
O219 In208 2.294 . S
O219 C212 1.240 . S
O220 In208 2.326 . S
O220 C212 1.252 . S
In221 O222 2.294 . S
In221 O223 2.326 . S
In221 O227 2.266 . S
In221 O228 2.326 . S
In221 O229 2.266 . S
In221 O230 2.326 . S
In221 O232 2.294 . S
In221 O233 2.326 . S
O222 In221 2.294 . S
O222 C231 1.240 . S
O223 In221 2.326 . S
O223 C231 1.252 . S
C224 O227 1.252 . S
C224 O228 1.260 . S
C225 O232 1.240 . S
C225 O233 1.252 . S
C226 O229 1.252 . S
C226 O230 1.260 . S
O227 In221 2.266 . S
O227 C224 1.252 . S
O228 In221 2.326 . S
O228 C224 1.260 . S
O229 In221 2.266 . S
O229 C226 1.252 . S
O230 In221 2.326 . S
O230 C226 1.260 . S
C231 O222 1.240 . S
C231 O223 1.252 . S
O232 In221 2.294 . S
O232 C225 1.240 . S
O233 In221 2.326 . S
O233 C225 1.252 . S
In234 O235 2.294 . S
In234 O236 2.326 . S
In234 O240 2.266 . S
In234 O241 2.326 . S
In234 O242 2.266 . S
In234 O243 2.326 . S
In234 O245 2.294 . S
In234 O246 2.326 . S
O235 In234 2.294 . S
O235 C244 1.240 . S
O236 In234 2.326 . S
O236 C244 1.252 . S
C237 O240 1.252 . S
C237 O241 1.260 . S
C238 O245 1.240 . S
C238 O246 1.252 . S
C239 O242 1.252 . S
C239 O243 1.260 . S
O240 In234 2.266 . S
O240 C237 1.252 . S
O241 In234 2.326 . S
O241 C237 1.260 . S
O242 In234 2.266 . S
O242 C239 1.252 . S
O243 In234 2.326 . S
O243 C239 1.260 . S
C244 O235 1.240 . S
C244 O236 1.252 . S
O245 In234 2.294 . S
O245 C238 1.240 . S
O246 In234 2.326 . S
O246 C238 1.252 . S
In247 O248 2.294 . S
In247 O249 2.326 . S
In247 O253 2.266 . S
In247 O254 2.326 . S
In247 O255 2.266 . S
In247 O256 2.326 . S
In247 O258 2.294 . S
In247 O259 2.326 . S
O248 In247 2.294 . S
O248 C257 1.240 . S
O249 In247 2.326 . S
O249 C257 1.252 . S
C250 O253 1.252 . S
C250 O254 1.260 . S
C251 O258 1.240 . S
C251 O259 1.252 . S
C252 O255 1.252 . S
C252 O256 1.260 . S
O253 In247 2.266 . S
O253 C250 1.252 . S
O254 In247 2.326 . S
O254 C250 1.260 . S
O255 In247 2.266 . S
O255 C252 1.252 . S
O256 In247 2.326 . S
O256 C252 1.260 . S
C257 O248 1.240 . S
C257 O249 1.252 . S
O258 In247 2.294 . S
O258 C251 1.240 . S
O259 In247 2.326 . S
O259 C251 1.252 . S
In260 O261 2.294 . S
In260 O262 2.326 . S
In260 O266 2.266 . S
In260 O267 2.326 . S
In260 O268 2.266 . S
In260 O269 2.326 . S
In260 O271 2.294 . S
In260 O272 2.326 . S
O261 In260 2.294 . S
O261 C270 1.240 . S
O262 In260 2.326 . S
O262 C270 1.252 . S
C263 O266 1.252 . S
C263 O267 1.260 . S
C264 O271 1.240 . S
C264 O272 1.252 . S
C265 O268 1.252 . S
C265 O269 1.260 . S
O266 In260 2.266 . S
O266 C263 1.252 . S
O267 In260 2.326 . S
O267 C263 1.260 . S
O268 In260 2.266 . S
O268 C265 1.252 . S
O269 In260 2.326 . S
O269 C265 1.260 . S
C270 O261 1.240 . S
C270 O262 1.252 . S
O271 In260 2.294 . S
O271 C264 1.240 . S
O272 In260 2.326 . S
O272 C264 1.252 . S
In273 O274 2.294 . S
In273 O275 2.326 . S
In273 O279 2.266 . S
In273 O280 2.326 . S
In273 O281 2.266 1_554 S
In273 O282 2.326 1_554 S
In273 O284 2.294 . S
In273 O285 2.326 . S
O274 In273 2.294 . S
O274 C283 1.240 . S
O275 In273 2.326 . S
O275 C283 1.252 . S
C276 O279 1.252 . S
C276 O280 1.260 . S
C277 O284 1.240 . S
C277 O285 1.252 . S
C278 O281 1.252 . S
C278 O282 1.260 . S
O279 In273 2.266 . S
O279 C276 1.252 . S
O280 In273 2.326 . S
O280 C276 1.260 . S
O281 In273 2.266 1_556 S
O281 C278 1.252 . S
O282 In273 2.326 1_556 S
O282 C278 1.260 . S
C283 O274 1.240 . S
C283 O275 1.252 . S
O284 In273 2.294 . S
O284 C277 1.240 . S
O285 In273 2.326 . S
O285 C277 1.252 . S
In286 O287 2.294 . S
In286 O288 2.326 . S
In286 O292 2.266 1_554 S
In286 O293 2.326 1_554 S
In286 O294 2.266 . S
In286 O295 2.326 . S
In286 O297 2.294 . S
In286 O298 2.326 . S
O287 In286 2.294 . S
O287 C296 1.240 . S
O288 In286 2.326 . S
O288 C296 1.252 . S
C289 O292 1.252 . S
C289 O293 1.260 . S
C290 O297 1.240 . S
C290 O298 1.252 . S
C291 O294 1.252 . S
C291 O295 1.260 . S
O292 In286 2.266 1_556 S
O292 C289 1.252 . S
O293 In286 2.326 1_556 S
O293 C289 1.260 . S
O294 In286 2.266 . S
O294 C291 1.252 . S
O295 In286 2.326 . S
O295 C291 1.260 . S
C296 O287 1.240 . S
C296 O288 1.252 . S
O297 In286 2.294 . S
O297 C290 1.240 . S
O298 In286 2.326 . S
O298 C290 1.252 . S
In299 O300 2.294 . S
In299 O301 2.326 . S
In299 O305 2.266 . S
In299 O306 2.326 . S
In299 O307 2.266 1_554 S
In299 O308 2.326 1_554 S
In299 O310 2.294 . S
In299 O311 2.326 . S
O300 In299 2.294 . S
O300 C309 1.240 . S
O301 In299 2.326 . S
O301 C309 1.252 . S
C302 O305 1.252 . S
C302 O306 1.260 . S
C303 O310 1.240 . S
C303 O311 1.252 . S
C304 O307 1.252 . S
C304 O308 1.260 . S
O305 In299 2.266 . S
O305 C302 1.252 . S
O306 In299 2.326 . S
O306 C302 1.260 . S
O307 In299 2.266 1_556 S
O307 C304 1.252 . S
O308 In299 2.326 1_556 S
O308 C304 1.260 . S
C309 O300 1.240 . S
C309 O301 1.252 . S
O310 In299 2.294 . S
O310 C303 1.240 . S
O311 In299 2.326 . S
O311 C303 1.252 . S
In312 O313 2.294 . S
In312 O314 2.326 . S
In312 O318 2.266 . S
In312 O319 2.326 . S
In312 O320 2.266 . S
In312 O321 2.326 . S
In312 O323 2.294 . S
In312 O324 2.326 . S
O313 In312 2.294 . S
O313 C322 1.240 . S
O314 In312 2.326 . S
O314 C322 1.252 . S
C315 O318 1.252 . S
C315 O319 1.260 . S
C316 O323 1.240 . S
C316 O324 1.252 . S
C317 O320 1.252 . S
C317 O321 1.260 . S
O318 In312 2.266 . S
O318 C315 1.252 . S
O319 In312 2.326 . S
O319 C315 1.260 . S
O320 In312 2.266 . S
O320 C317 1.252 . S
O321 In312 2.326 . S
O321 C317 1.260 . S
C322 O313 1.240 . S
C322 O314 1.252 . S
O323 In312 2.294 . S
O323 C316 1.240 . S
O324 In312 2.326 . S
O324 C316 1.252 . S
In325 O326 2.294 . S
In325 O327 2.326 . S
In325 O331 2.266 . S
In325 O332 2.326 . S
In325 O333 2.266 . S
In325 O334 2.326 . S
In325 O336 2.294 . S
In325 O337 2.326 . S
O326 In325 2.294 . S
O326 C335 1.240 . S
O327 In325 2.326 . S
O327 C335 1.252 . S
C328 O331 1.252 . S
C328 O332 1.260 . S
C329 O336 1.240 . S
C329 O337 1.252 . S
C330 O333 1.252 . S
C330 O334 1.260 . S
O331 In325 2.266 . S
O331 C328 1.252 . S
O332 In325 2.326 . S
O332 C328 1.260 . S
O333 In325 2.266 . S
O333 C330 1.252 . S
O334 In325 2.326 . S
O334 C330 1.260 . S
C335 O326 1.240 . S
C335 O327 1.252 . S
O336 In325 2.294 . S
O336 C329 1.240 . S
O337 In325 2.326 . S
O337 C329 1.252 . S
In338 O339 2.294 . S
In338 O340 2.326 . S
In338 O344 2.266 . S
In338 O345 2.326 . S
In338 O346 2.266 . S
In338 O347 2.326 . S
In338 O349 2.294 . S
In338 O350 2.326 . S
O339 In338 2.294 . S
O339 C348 1.240 . S
O340 In338 2.326 . S
O340 C348 1.252 . S
C341 O344 1.252 . S
C341 O345 1.260 . S
C342 O349 1.240 . S
C342 O350 1.252 . S
C343 O346 1.252 . S
C343 O347 1.260 . S
O344 In338 2.266 . S
O344 C341 1.252 . S
O345 In338 2.326 . S
O345 C341 1.260 . S
O346 In338 2.266 . S
O346 C343 1.252 . S
O347 In338 2.326 . S
O347 C343 1.260 . S
C348 O339 1.240 . S
C348 O340 1.252 . S
O349 In338 2.294 . S
O349 C342 1.240 . S
O350 In338 2.326 . S
O350 C342 1.252 . S
In351 O352 2.294 . S
In351 O353 2.326 . S
In351 O357 2.266 . S
In351 O358 2.326 . S
In351 O359 2.266 1_556 S
In351 O360 2.326 1_556 S
In351 O362 2.294 . S
In351 O363 2.326 . S
O352 In351 2.294 . S
O352 C361 1.240 . S
O353 In351 2.326 . S
O353 C361 1.252 . S
C354 O357 1.252 . S
C354 O358 1.260 . S
C355 O362 1.240 . S
C355 O363 1.252 . S
C356 O359 1.252 . S
C356 O360 1.260 . S
O357 In351 2.266 . S
O357 C354 1.252 . S
O358 In351 2.326 . S
O358 C354 1.260 . S
O359 In351 2.266 1_554 S
O359 C356 1.252 . S
O360 In351 2.326 1_554 S
O360 C356 1.260 . S
C361 O352 1.240 . S
C361 O353 1.252 . S
O362 In351 2.294 . S
O362 C355 1.240 . S
O363 In351 2.326 . S
O363 C355 1.252 . S
In364 O365 2.294 . S
In364 O366 2.326 . S
In364 O370 2.266 1_556 S
In364 O371 2.326 1_556 S
In364 O372 2.266 . S
In364 O373 2.326 . S
In364 O375 2.294 . S
In364 O376 2.326 . S
O365 In364 2.294 . S
O365 C374 1.240 . S
O366 In364 2.326 . S
O366 C374 1.252 . S
C367 O370 1.252 . S
C367 O371 1.260 . S
C368 O375 1.240 . S
C368 O376 1.252 . S
C369 O372 1.252 . S
C369 O373 1.260 . S
O370 In364 2.266 1_554 S
O370 C367 1.252 . S
O371 In364 2.326 1_554 S
O371 C367 1.260 . S
O372 In364 2.266 . S
O372 C369 1.252 . S
O373 In364 2.326 . S
O373 C369 1.260 . S
C374 O365 1.240 . S
C374 O366 1.252 . S
O375 In364 2.294 . S
O375 C368 1.240 . S
O376 In364 2.326 . S
O376 C368 1.252 . S
In377 O378 2.294 . S
In377 O379 2.326 . S
In377 O383 2.266 . S
In377 O384 2.326 . S
In377 O385 2.266 1_556 S
In377 O386 2.326 1_556 S
In377 O388 2.294 . S
In377 O389 2.326 . S
O378 In377 2.294 . S
O378 C387 1.240 . S
O379 In377 2.326 . S
O379 C387 1.252 . S
C380 O383 1.252 . S
C380 O384 1.260 . S
C381 O388 1.240 . S
C381 O389 1.252 . S
C382 O385 1.252 . S
C382 O386 1.260 . S
O383 In377 2.266 . S
O383 C380 1.252 . S
O384 In377 2.326 . S
O384 C380 1.260 . S
O385 In377 2.266 1_554 S
O385 C382 1.252 . S
O386 In377 2.326 1_554 S
O386 C382 1.260 . S
C387 O378 1.240 . S
C387 O379 1.252 . S
O388 In377 2.294 . S
O388 C381 1.240 . S
O389 In377 2.326 . S
O389 C381 1.252 . S
In390 O391 2.294 . S
In390 O392 2.326 . S
In390 O396 2.266 . S
In390 O397 2.326 . S
In390 O398 2.266 . S
In390 O399 2.326 . S
In390 O401 2.294 . S
In390 O402 2.326 . S
O391 In390 2.294 . S
O391 C400 1.240 . S
O392 In390 2.326 . S
O392 C400 1.252 . S
C393 O396 1.252 . S
C393 O397 1.260 . S
C394 O401 1.240 . S
C394 O402 1.252 . S
C395 O398 1.252 . S
C395 O399 1.260 . S
O396 In390 2.266 . S
O396 C393 1.252 . S
O397 In390 2.326 . S
O397 C393 1.260 . S
O398 In390 2.266 . S
O398 C395 1.252 . S
O399 In390 2.326 . S
O399 C395 1.260 . S
C400 O391 1.240 . S
C400 O392 1.252 . S
O401 In390 2.294 . S
O401 C394 1.240 . S
O402 In390 2.326 . S
O402 C394 1.252 . S
In403 O404 2.294 . S
In403 O405 2.326 . S
In403 O409 2.266 . S
In403 O410 2.326 . S
In403 O411 2.266 . S
In403 O412 2.326 . S
In403 O414 2.294 . S
In403 O415 2.326 . S
O404 In403 2.294 . S
O404 C413 1.240 . S
O405 In403 2.326 . S
O405 C413 1.252 . S
C406 O409 1.252 . S
C406 O410 1.260 . S
C407 O414 1.240 . S
C407 O415 1.252 . S
C408 O411 1.252 . S
C408 O412 1.260 . S
O409 In403 2.266 . S
O409 C406 1.252 . S
O410 In403 2.326 . S
O410 C406 1.260 . S
O411 In403 2.266 . S
O411 C408 1.252 . S
O412 In403 2.326 . S
O412 C408 1.260 . S
C413 O404 1.240 . S
C413 O405 1.252 . S
O414 In403 2.294 . S
O414 C407 1.240 . S
O415 In403 2.326 . S
O415 C407 1.252 . S
In416 O417 2.294 . S
In416 O418 2.326 . S
In416 O422 2.266 . S
In416 O423 2.326 . S
In416 O424 2.266 . S
In416 O425 2.326 . S
In416 O427 2.294 . S
In416 O428 2.326 . S
O417 In416 2.294 . S
O417 C426 1.240 . S
O418 In416 2.326 . S
O418 C426 1.252 . S
C419 O422 1.252 . S
C419 O423 1.260 . S
C420 O427 1.240 . S
C420 O428 1.252 . S
C421 O424 1.252 . S
C421 O425 1.260 . S
O422 In416 2.266 . S
O422 C419 1.252 . S
O423 In416 2.326 . S
O423 C419 1.260 . S
O424 In416 2.266 . S
O424 C421 1.252 . S
O425 In416 2.326 . S
O425 C421 1.260 . S
C426 O417 1.240 . S
C426 O418 1.252 . S
O427 In416 2.294 . S
O427 C420 1.240 . S
O428 In416 2.326 . S
O428 C420 1.252 . S
In429 O430 2.294 . S
In429 O431 2.326 . S
In429 O435 2.266 . S
In429 O436 2.326 . S
In429 O437 2.266 . S
In429 O438 2.326 . S
In429 O440 2.294 . S
In429 O441 2.326 . S
O430 In429 2.294 . S
O430 C439 1.240 . S
O431 In429 2.326 . S
O431 C439 1.252 . S
C432 O435 1.252 . S
C432 O436 1.260 . S
C433 O440 1.240 . S
C433 O441 1.252 . S
C434 O437 1.252 . S
C434 O438 1.260 . S
O435 In429 2.266 . S
O435 C432 1.252 . S
O436 In429 2.326 . S
O436 C432 1.260 . S
O437 In429 2.266 . S
O437 C434 1.252 . S
O438 In429 2.326 . S
O438 C434 1.260 . S
C439 O430 1.240 . S
C439 O431 1.252 . S
O440 In429 2.294 . S
O440 C433 1.240 . S
O441 In429 2.326 . S
O441 C433 1.252 . S
In442 O443 2.294 . S
In442 O444 2.326 . S
In442 O448 2.266 . S
In442 O449 2.326 . S
In442 O450 2.266 . S
In442 O451 2.326 . S
In442 O453 2.294 . S
In442 O454 2.326 . S
O443 In442 2.294 . S
O443 C452 1.240 . S
O444 In442 2.326 . S
O444 C452 1.252 . S
C445 O448 1.252 . S
C445 O449 1.260 . S
C446 O453 1.240 . S
C446 O454 1.252 . S
C447 O450 1.252 . S
C447 O451 1.260 . S
O448 In442 2.266 . S
O448 C445 1.252 . S
O449 In442 2.326 . S
O449 C445 1.260 . S
O450 In442 2.266 . S
O450 C447 1.252 . S
O451 In442 2.326 . S
O451 C447 1.260 . S
C452 O443 1.240 . S
C452 O444 1.252 . S
O453 In442 2.294 . S
O453 C446 1.240 . S
O454 In442 2.326 . S
O454 C446 1.252 . S
In455 O456 2.294 . S
In455 O457 2.326 . S
In455 O461 2.266 . S
In455 O462 2.326 . S
In455 O463 2.266 . S
In455 O464 2.326 . S
In455 O466 2.294 . S
In455 O467 2.326 . S
O456 In455 2.294 . S
O456 C465 1.240 . S
O457 In455 2.326 . S
O457 C465 1.252 . S
C458 O461 1.252 . S
C458 O462 1.260 . S
C459 O466 1.240 . S
C459 O467 1.252 . S
C460 O463 1.252 . S
C460 O464 1.260 . S
O461 In455 2.266 . S
O461 C458 1.252 . S
O462 In455 2.326 . S
O462 C458 1.260 . S
O463 In455 2.266 . S
O463 C460 1.252 . S
O464 In455 2.326 . S
O464 C460 1.260 . S
C465 O456 1.240 . S
C465 O457 1.252 . S
O466 In455 2.294 . S
O466 C459 1.240 . S
O467 In455 2.326 . S
O467 C459 1.252 . S
H468 C480 0.930 . S
H469 C482 0.930 . S
H470 C483 0.930 . S
H471 C487 0.959 . S
H472 C487 0.959 . S
H473 C487 0.961 . S
H474 C488 0.960 . S
H475 C488 0.961 . S
H476 C488 0.959 . S
H477 C491 0.929 . S
H478 C492 0.931 . S
H479 C494 0.930 . S
C480 H468 0.930 . S
C480 C481 1.399 . S
C480 C485 1.399 . S
C481 C480 1.399 . S
C481 C482 1.376 . S
C482 H469 0.930 . S
C482 C481 1.376 . S
C482 C483 1.388 . S
C483 H470 0.930 . S
C483 C482 1.388 . S
C483 C484 1.390 . S
C484 C483 1.390 . S
C484 C485 1.394 . S
C484 C490 1.465 . S
C485 C480 1.399 . S
C485 C484 1.394 . S
C485 C486 1.516 . S
C486 C485 1.516 . S
C486 C487 1.502 . S
C486 C488 1.561 . S
C486 C489 1.545 . S
C487 H471 0.959 . S
C487 H472 0.959 . S
C487 H473 0.961 . S
C487 C486 1.502 . S
C488 H474 0.960 . S
C488 H475 0.961 . S
C488 H476 0.959 . S
C488 C486 1.561 . S
C489 C486 1.545 . S
C489 C490 1.403 . S
C489 C494 1.366 1_556 S
C490 C484 1.465 . S
C490 C489 1.403 . S
C490 C491 1.399 1_556 S
C491 H477 0.929 . S
C491 C490 1.399 1_554 S
C491 C492 1.385 . S
C492 H478 0.931 . S
C492 C491 1.385 . S
C492 C493 1.389 . S
C493 C492 1.389 . S
C493 C494 1.387 . S
C494 H479 0.930 . S
C494 C489 1.366 1_554 S
C494 C493 1.387 . S
H495 C507 0.930 . S
H496 C509 0.930 . S
H497 C510 0.930 . S
H498 C514 0.959 . S
H499 C514 0.959 . S
H500 C514 0.961 . S
H501 C515 0.960 . S
H502 C515 0.961 . S
H503 C515 0.959 . S
H504 C518 0.927 1_556 S
H505 C519 0.931 . S
H506 C521 0.930 . S
C507 H495 0.930 . S
C507 C508 1.399 . S
C507 C512 1.399 . S
C508 C507 1.399 . S
C508 C509 1.376 . S
C509 H496 0.930 . S
C509 C508 1.376 . S
C509 C510 1.388 . S
C510 H497 0.930 . S
C510 C509 1.388 . S
C510 C511 1.390 . S
C511 C510 1.390 . S
C511 C512 1.394 . S
C511 C517 1.465 . S
C512 C507 1.399 . S
C512 C511 1.394 . S
C512 C513 1.516 . S
C513 C512 1.516 . S
C513 C514 1.502 . S
C513 C515 1.561 . S
C513 C516 1.526 1_556 S
C514 H498 0.959 . S
C514 H499 0.959 . S
C514 H500 0.961 . S
C514 C513 1.502 . S
C515 H501 0.960 . S
C515 H502 0.961 . S
C515 H503 0.959 . S
C515 C513 1.561 . S
C516 C513 1.526 1_554 S
C516 C517 1.396 1_554 S
C516 C521 1.390 . S
C517 C511 1.465 . S
C517 C516 1.396 1_556 S
C517 C518 1.399 1_556 S
C518 H504 0.927 1_554 S
C518 C517 1.399 1_554 S
C518 C519 1.385 . S
C519 H505 0.931 . S
C519 C518 1.385 . S
C519 C520 1.389 . S
C520 C519 1.389 . S
C520 C521 1.387 . S
C521 H506 0.930 . S
C521 C516 1.390 . S
C521 C520 1.387 . S
H522 C534 0.930 . S
H523 C536 0.930 . S
H524 C537 0.930 . S
H525 C541 0.959 . S
H526 C541 0.959 . S
H527 C541 0.961 . S
H528 C542 0.960 . S
H529 C542 0.961 . S
H530 C542 0.959 . S
H531 C545 0.929 . S
H532 C546 0.931 . S
H533 C548 0.930 . S
C534 H522 0.930 . S
C534 C535 1.399 . S
C534 C539 1.412 . S
C535 C534 1.399 . S
C535 C536 1.376 . S
C536 H523 0.930 . S
C536 C535 1.376 . S
C536 C537 1.388 . S
C537 H524 0.930 . S
C537 C536 1.388 . S
C537 C538 1.390 1_554 S
C538 C537 1.390 1_556 S
C538 C539 1.389 1_556 S
C538 C544 1.465 . S
C539 C534 1.412 . S
C539 C538 1.389 1_554 S
C539 C540 1.507 1_554 S
C540 C539 1.507 1_556 S
C540 C541 1.502 . S
C540 C542 1.561 . S
C540 C543 1.526 . S
C541 H525 0.959 . S
C541 H526 0.959 . S
C541 H527 0.961 . S
C541 C540 1.502 . S
C542 H528 0.960 . S
C542 H529 0.961 . S
C542 H530 0.959 . S
C542 C540 1.561 . S
C543 C540 1.526 . S
C543 C544 1.396 . S
C543 C548 1.390 . S
C544 C538 1.465 . S
C544 C543 1.396 . S
C544 C545 1.399 . S
C545 H531 0.929 . S
C545 C544 1.399 . S
C545 C546 1.385 . S
C546 H532 0.931 . S
C546 C545 1.385 . S
C546 C547 1.389 . S
C547 C546 1.389 . S
C547 C548 1.387 . S
C548 H533 0.930 . S
C548 C543 1.390 . S
C548 C547 1.387 . S
H549 C561 0.930 . S
H550 C563 0.930 . S
H551 C564 0.930 . S
H552 C568 0.959 . S
H553 C568 0.959 . S
H554 C568 0.961 . S
H555 C569 0.960 . S
H556 C569 0.961 . S
H557 C569 0.959 . S
H558 C572 0.929 . S
H559 C573 0.931 . S
H560 C575 0.930 . S
C561 H549 0.930 . S
C561 C562 1.399 . S
C561 C566 1.399 . S
C562 C561 1.399 . S
C562 C563 1.376 . S
C563 H550 0.930 . S
C563 C562 1.376 . S
C563 C564 1.388 . S
C564 H551 0.930 . S
C564 C563 1.388 . S
C564 C565 1.390 . S
C565 C564 1.390 . S
C565 C566 1.394 . S
C565 C571 1.465 . S
C566 C561 1.399 . S
C566 C565 1.394 . S
C566 C567 1.516 . S
C567 C566 1.516 . S
C567 C568 1.502 . S
C567 C569 1.561 . S
C567 C570 1.526 . S
C568 H552 0.959 . S
C568 H553 0.959 . S
C568 H554 0.961 . S
C568 C567 1.502 . S
C569 H555 0.960 . S
C569 H556 0.961 . S
C569 H557 0.959 . S
C569 C567 1.561 . S
C570 C567 1.526 . S
C570 C571 1.396 . S
C570 C575 1.390 . S
C571 C565 1.465 . S
C571 C570 1.396 . S
C571 C572 1.399 . S
C572 H558 0.929 . S
C572 C571 1.399 . S
C572 C573 1.385 . S
C573 H559 0.931 . S
C573 C572 1.385 . S
C573 C574 1.389 . S
C574 C573 1.389 . S
C574 C575 1.387 . S
C575 H560 0.930 . S
C575 C570 1.390 . S
C575 C574 1.387 . S
H576 C588 0.930 . S
H577 C590 0.930 . S
H578 C591 0.930 . S
H579 C595 0.959 . S
H580 C595 0.959 . S
H581 C595 0.961 . S
H582 C596 0.960 . S
H583 C596 0.961 . S
H584 C596 0.959 . S
H585 C599 0.929 . S
H586 C600 0.931 . S
H587 C602 0.930 . S
C588 H576 0.930 . S
C588 C589 1.399 . S
C588 C593 1.399 . S
C589 C588 1.399 . S
C589 C590 1.376 . S
C590 H577 0.930 . S
C590 C589 1.376 . S
C590 C591 1.388 . S
C591 H578 0.930 . S
C591 C590 1.388 . S
C591 C592 1.390 . S
C592 C591 1.390 . S
C592 C593 1.394 . S
C592 C598 1.465 . S
C593 C588 1.399 . S
C593 C592 1.394 . S
C593 C594 1.516 . S
C594 C593 1.516 . S
C594 C595 1.502 . S
C594 C596 1.561 . S
C594 C597 1.526 . S
C595 H579 0.959 . S
C595 H580 0.959 . S
C595 H581 0.961 . S
C595 C594 1.502 . S
C596 H582 0.960 . S
C596 H583 0.961 . S
C596 H584 0.959 . S
C596 C594 1.561 . S
C597 C594 1.526 . S
C597 C598 1.396 . S
C597 C602 1.390 . S
C598 C592 1.465 . S
C598 C597 1.396 . S
C598 C599 1.399 . S
C599 H585 0.929 . S
C599 C598 1.399 . S
C599 C600 1.385 . S
C600 H586 0.931 . S
C600 C599 1.385 . S
C600 C601 1.389 . S
C601 C600 1.389 . S
C601 C602 1.387 . S
C602 H587 0.930 . S
C602 C597 1.390 . S
C602 C601 1.387 . S
H603 C615 0.930 . S
H604 C617 0.930 . S
H605 C618 0.930 . S
H606 C622 0.959 . S
H607 C622 0.959 . S
H608 C622 0.961 . S
H609 C623 0.960 . S
H610 C623 0.961 . S
H611 C623 0.959 . S
H612 C626 0.929 . S
H613 C627 0.931 . S
H614 C629 0.930 . S
C615 H603 0.930 . S
C615 C616 1.399 . S
C615 C620 1.399 . S
C616 C615 1.399 . S
C616 C617 1.376 . S
C617 H604 0.930 . S
C617 C616 1.376 . S
C617 C618 1.388 . S
C618 H605 0.930 . S
C618 C617 1.388 . S
C618 C619 1.390 . S
C619 C618 1.390 . S
C619 C620 1.394 . S
C619 C625 1.465 . S
C620 C615 1.399 . S
C620 C619 1.394 . S
C620 C621 1.516 . S
C621 C620 1.516 . S
C621 C622 1.502 . S
C621 C623 1.561 . S
C621 C624 1.526 . S
C622 H606 0.959 . S
C622 H607 0.959 . S
C622 H608 0.961 . S
C622 C621 1.502 . S
C623 H609 0.960 . S
C623 H610 0.961 . S
C623 H611 0.959 . S
C623 C621 1.561 . S
C624 C621 1.526 . S
C624 C625 1.396 . S
C624 C629 1.390 . S
C625 C619 1.465 . S
C625 C624 1.396 . S
C625 C626 1.399 . S
C626 H612 0.929 . S
C626 C625 1.399 . S
C626 C627 1.385 . S
C627 H613 0.931 . S
C627 C626 1.385 . S
C627 C628 1.389 . S
C628 C627 1.389 . S
C628 C629 1.387 . S
C629 H614 0.930 . S
C629 C624 1.390 . S
C629 C628 1.387 . S
H630 C642 0.930 . S
H631 C644 0.930 . S
H632 C645 0.930 . S
H633 C649 0.959 . S
H634 C649 0.959 . S
H635 C649 0.961 . S
H636 C650 0.960 . S
H637 C650 0.961 . S
H638 C650 0.959 . S
H639 C653 0.927 1_554 S
H640 C654 0.931 . S
H641 C656 0.930 . S
C642 H630 0.930 . S
C642 C643 1.399 . S
C642 C647 1.399 . S
C643 C642 1.399 . S
C643 C644 1.376 . S
C644 H631 0.930 . S
C644 C643 1.376 . S
C644 C645 1.388 . S
C645 H632 0.930 . S
C645 C644 1.388 . S
C645 C646 1.390 . S
C646 C645 1.390 . S
C646 C647 1.394 . S
C646 C652 1.465 . S
C647 C642 1.399 . S
C647 C646 1.394 . S
C647 C648 1.516 . S
C648 C647 1.516 . S
C648 C649 1.502 . S
C648 C650 1.561 . S
C648 C651 1.526 1_554 S
C649 H633 0.959 . S
C649 H634 0.959 . S
C649 H635 0.961 . S
C649 C648 1.502 . S
C650 H636 0.960 . S
C650 H637 0.961 . S
C650 H638 0.959 . S
C650 C648 1.561 . S
C651 C648 1.526 1_556 S
C651 C652 1.396 1_556 S
C651 C656 1.390 . S
C652 C646 1.465 . S
C652 C651 1.396 1_554 S
C652 C653 1.399 1_554 S
C653 H639 0.927 1_556 S
C653 C652 1.399 1_556 S
C653 C654 1.385 . S
C654 H640 0.931 . S
C654 C653 1.385 . S
C654 C655 1.389 . S
C655 C654 1.389 . S
C655 C656 1.387 . S
C656 H641 0.930 . S
C656 C651 1.390 . S
C656 C655 1.387 . S
H657 C669 0.930 . S
H658 C671 0.930 . S
H659 C672 0.930 . S
H660 C676 0.959 . S
H661 C676 0.959 . S
H662 C676 0.961 . S
H663 C677 0.960 . S
H664 C677 0.961 . S
H665 C677 0.959 . S
H666 C680 0.929 . S
H667 C681 0.931 . S
H668 C683 0.930 . S
C669 H657 0.930 . S
C669 C670 1.399 . S
C669 C674 1.399 . S
C670 C669 1.399 . S
C670 C671 1.376 . S
C671 H658 0.930 . S
C671 C670 1.376 . S
C671 C672 1.388 . S
C672 H659 0.930 . S
C672 C671 1.388 . S
C672 C673 1.390 . S
C673 C672 1.390 . S
C673 C674 1.394 . S
C673 C679 1.465 . S
C674 C669 1.399 . S
C674 C673 1.394 . S
C674 C675 1.516 . S
C675 C674 1.516 . S
C675 C676 1.502 . S
C675 C677 1.561 . S
C675 C678 1.533 . S
C676 H660 0.959 . S
C676 H661 0.959 . S
C676 H662 0.961 . S
C676 C675 1.502 . S
C677 H663 0.960 . S
C677 H664 0.961 . S
C677 H665 0.959 . S
C677 C675 1.561 . S
C678 C675 1.533 . S
C678 C679 1.399 . S
C678 C683 1.380 1_554 S
C679 C673 1.465 . S
C679 C678 1.399 . S
C679 C680 1.399 1_554 S
C680 H666 0.929 . S
C680 C679 1.399 1_556 S
C680 C681 1.385 . S
C681 H667 0.931 . S
C681 C680 1.385 . S
C681 C682 1.389 . S
C682 C681 1.389 . S
C682 C683 1.387 . S
C683 H668 0.930 . S
C683 C678 1.380 1_556 S
C683 C682 1.387 . S
H684 C696 0.930 . S
H685 C698 0.930 . S
H686 C699 0.930 . S
H687 C703 0.959 . S
H688 C703 0.959 . S
H689 C703 0.961 . S
H690 C704 0.960 . S
H691 C704 0.961 . S
H692 C704 0.959 . S
H693 C707 0.929 . S
H694 C708 0.931 . S
H695 C710 0.930 . S
C696 H684 0.930 . S
C696 C697 1.399 . S
C696 C701 1.397 . S
C697 C696 1.399 . S
C697 C698 1.376 . S
C698 H685 0.930 . S
C698 C697 1.376 . S
C698 C699 1.388 . S
C699 H686 0.930 . S
C699 C698 1.388 . S
C699 C700 1.390 1_556 S
C700 C699 1.390 1_554 S
C700 C701 1.394 1_554 S
C700 C706 1.465 . S
C701 C696 1.397 . S
C701 C700 1.394 1_556 S
C701 C702 1.518 1_556 S
C702 C701 1.518 1_554 S
C702 C703 1.502 . S
C702 C704 1.561 . S
C702 C705 1.526 . S
C703 H687 0.959 . S
C703 H688 0.959 . S
C703 H689 0.961 . S
C703 C702 1.502 . S
C704 H690 0.960 . S
C704 H691 0.961 . S
C704 H692 0.959 . S
C704 C702 1.561 . S
C705 C702 1.526 . S
C705 C706 1.396 . S
C705 C710 1.390 . S
C706 C700 1.465 . S
C706 C705 1.396 . S
C706 C707 1.399 . S
C707 H693 0.929 . S
C707 C706 1.399 . S
C707 C708 1.385 . S
C708 H694 0.931 . S
C708 C707 1.385 . S
C708 C709 1.389 . S
C709 C708 1.389 . S
C709 C710 1.387 . S
C710 H695 0.930 . S
C710 C705 1.390 . S
C710 C709 1.387 . S
H711 C723 0.930 . S
H712 C725 0.930 . S
H713 C726 0.930 . S
H714 C730 0.959 . S
H715 C730 0.959 . S
H716 C730 0.961 . S
H717 C731 0.960 . S
H718 C731 0.961 . S
H719 C731 0.959 . S
H720 C734 0.929 . S
H721 C735 0.931 . S
H722 C737 0.930 . S
C723 H711 0.930 . S
C723 C724 1.399 . S
C723 C728 1.399 . S
C724 C723 1.399 . S
C724 C725 1.376 . S
C725 H712 0.930 . S
C725 C724 1.376 . S
C725 C726 1.388 . S
C726 H713 0.930 . S
C726 C725 1.388 . S
C726 C727 1.390 . S
C727 C726 1.390 . S
C727 C728 1.394 . S
C727 C733 1.465 . S
C728 C723 1.399 . S
C728 C727 1.394 . S
C728 C729 1.516 . S
C729 C728 1.516 . S
C729 C730 1.502 . S
C729 C731 1.561 . S
C729 C732 1.526 . S
C730 H714 0.959 . S
C730 H715 0.959 . S
C730 H716 0.961 . S
C730 C729 1.502 . S
C731 H717 0.960 . S
C731 H718 0.961 . S
C731 H719 0.959 . S
C731 C729 1.561 . S
C732 C729 1.526 . S
C732 C733 1.396 . S
C732 C737 1.390 . S
C733 C727 1.465 . S
C733 C732 1.396 . S
C733 C734 1.399 . S
C734 H720 0.929 . S
C734 C733 1.399 . S
C734 C735 1.385 . S
C735 H721 0.931 . S
C735 C734 1.385 . S
C735 C736 1.389 . S
C736 C735 1.389 . S
C736 C737 1.387 . S
C737 H722 0.930 . S
C737 C732 1.390 . S
C737 C736 1.387 . S
H738 C750 0.930 . S
H739 C752 0.930 . S
H740 C753 0.930 . S
H741 C757 0.959 . S
H742 C757 0.959 . S
H743 C757 0.961 . S
H744 C758 0.960 . S
H745 C758 0.961 . S
H746 C758 0.959 . S
H747 C761 0.929 . S
H748 C762 0.931 . S
H749 C764 0.930 . S
C750 H738 0.930 . S
C750 C751 1.399 . S
C750 C755 1.399 . S
C751 C750 1.399 . S
C751 C752 1.376 . S
C752 H739 0.930 . S
C752 C751 1.376 . S
C752 C753 1.388 . S
C753 H740 0.930 . S
C753 C752 1.388 . S
C753 C754 1.390 . S
C754 C753 1.390 . S
C754 C755 1.394 . S
C754 C760 1.465 . S
C755 C750 1.399 . S
C755 C754 1.394 . S
C755 C756 1.516 . S
C756 C755 1.516 . S
C756 C757 1.502 . S
C756 C758 1.561 . S
C756 C759 1.526 . S
C757 H741 0.959 . S
C757 H742 0.959 . S
C757 H743 0.961 . S
C757 C756 1.502 . S
C758 H744 0.960 . S
C758 H745 0.961 . S
C758 H746 0.959 . S
C758 C756 1.561 . S
C759 C756 1.526 . S
C759 C760 1.396 . S
C759 C764 1.390 . S
C760 C754 1.465 . S
C760 C759 1.396 . S
C760 C761 1.399 . S
C761 H747 0.929 . S
C761 C760 1.399 . S
C761 C762 1.385 . S
C762 H748 0.931 . S
C762 C761 1.385 . S
C762 C763 1.389 . S
C763 C762 1.389 . S
C763 C764 1.387 . S
C764 H749 0.930 . S
C764 C759 1.390 . S
C764 C763 1.387 . S
H765 C777 0.930 . S
H766 C779 0.930 . S
H767 C780 0.930 . S
H768 C784 0.959 . S
H769 C784 0.959 . S
H770 C784 0.961 . S
H771 C785 0.960 . S
H772 C785 0.961 . S
H773 C785 0.959 . S
H774 C788 0.929 . S
H775 C789 0.931 . S
H776 C791 0.930 . S
C777 H765 0.930 . S
C777 C778 1.399 . S
C777 C782 1.399 . S
C778 C777 1.399 . S
C778 C779 1.376 . S
C779 H766 0.930 . S
C779 C778 1.376 . S
C779 C780 1.388 . S
C780 H767 0.930 . S
C780 C779 1.388 . S
C780 C781 1.390 . S
C781 C780 1.390 . S
C781 C782 1.394 . S
C781 C787 1.465 . S
C782 C777 1.399 . S
C782 C781 1.394 . S
C782 C783 1.516 . S
C783 C782 1.516 . S
C783 C784 1.502 . S
C783 C785 1.561 . S
C783 C786 1.526 . S
C784 H768 0.959 . S
C784 H769 0.959 . S
C784 H770 0.961 . S
C784 C783 1.502 . S
C785 H771 0.960 . S
C785 H772 0.961 . S
C785 H773 0.959 . S
C785 C783 1.561 . S
C786 C783 1.526 . S
C786 C787 1.396 . S
C786 C791 1.390 . S
C787 C781 1.465 . S
C787 C786 1.396 . S
C787 C788 1.399 . S
C788 H774 0.929 . S
C788 C787 1.399 . S
C788 C789 1.385 . S
C789 H775 0.931 . S
C789 C788 1.385 . S
C789 C790 1.389 . S
C790 C789 1.389 . S
C790 C791 1.387 . S
C791 H776 0.930 . S
C791 C786 1.390 . S
C791 C790 1.387 . S
H792 C804 0.930 . S
H793 C806 0.930 . S
H794 C807 0.930 . S
H795 C811 0.959 . S
H796 C811 0.959 . S
H797 C811 0.961 . S
H798 C812 0.960 . S
H799 C812 0.961 . S
H800 C812 0.959 . S
H801 C815 0.929 . S
H802 C816 0.931 . S
H803 C818 0.930 . S
C804 H792 0.930 . S
C804 C805 1.399 . S
C804 C809 1.399 . S
C805 C804 1.399 . S
C805 C806 1.376 . S
C806 H793 0.930 . S
C806 C805 1.376 . S
C806 C807 1.388 . S
C807 H794 0.930 . S
C807 C806 1.388 . S
C807 C808 1.390 . S
C808 C807 1.390 . S
C808 C809 1.394 . S
C808 C814 1.465 . S
C809 C804 1.399 . S
C809 C808 1.394 . S
C809 C810 1.516 . S
C810 C809 1.516 . S
C810 C811 1.502 . S
C810 C812 1.561 . S
C810 C813 1.526 . S
C811 H795 0.959 . S
C811 H796 0.959 . S
C811 H797 0.961 . S
C811 C810 1.502 . S
C812 H798 0.960 . S
C812 H799 0.961 . S
C812 H800 0.959 . S
C812 C810 1.561 . S
C813 C810 1.526 . S
C813 C814 1.396 . S
C813 C818 1.390 . S
C814 C808 1.465 . S
C814 C813 1.396 . S
C814 C815 1.399 . S
C815 H801 0.929 . S
C815 C814 1.399 . S
C815 C816 1.385 . S
C816 H802 0.931 . S
C816 C815 1.385 . S
C816 C817 1.389 . S
C817 C816 1.389 . S
C817 C818 1.387 . S
C818 H803 0.930 . S
C818 C813 1.390 . S
C818 C817 1.387 . S
H819 C831 0.930 . S
H820 C833 0.930 . S
H821 C834 0.930 . S
H822 C838 0.959 . S
H823 C838 0.959 . S
H824 C838 0.961 . S
H825 C839 0.960 . S
H826 C839 0.961 . S
H827 C839 0.959 . S
H828 C842 0.929 . S
H829 C843 0.931 . S
H830 C845 0.930 . S
C831 H819 0.930 . S
C831 C832 1.399 . S
C831 C836 1.399 . S
C832 C831 1.399 . S
C832 C833 1.376 . S
C833 H820 0.930 . S
C833 C832 1.376 . S
C833 C834 1.388 . S
C834 H821 0.930 . S
C834 C833 1.388 . S
C834 C835 1.390 . S
C835 C834 1.390 . S
C835 C836 1.394 . S
C835 C841 1.465 . S
C836 C831 1.399 . S
C836 C835 1.394 . S
C836 C837 1.516 . S
C837 C836 1.516 . S
C837 C838 1.502 . S
C837 C839 1.561 . S
C837 C840 1.526 . S
C838 H822 0.959 . S
C838 H823 0.959 . S
C838 H824 0.961 . S
C838 C837 1.502 . S
C839 H825 0.960 . S
C839 H826 0.961 . S
C839 H827 0.959 . S
C839 C837 1.561 . S
C840 C837 1.526 . S
C840 C841 1.396 . S
C840 C845 1.390 . S
C841 C835 1.465 . S
C841 C840 1.396 . S
C841 C842 1.399 . S
C842 H828 0.929 . S
C842 C841 1.399 . S
C842 C843 1.385 . S
C843 H829 0.931 . S
C843 C842 1.385 . S
C843 C844 1.389 . S
C844 C843 1.389 . S
C844 C845 1.387 . S
C845 H830 0.930 . S
C845 C840 1.390 . S
C845 C844 1.387 . S
H846 C858 0.930 . S
H847 C860 0.930 . S
H848 C861 0.930 . S
H849 C865 0.959 . S
H850 C865 0.959 . S
H851 C865 0.961 . S
H852 C866 0.960 . S
H853 C866 0.961 . S
H854 C866 0.959 . S
H855 C869 0.929 . S
H856 C870 0.931 . S
H857 C872 0.930 . S
C858 H846 0.930 . S
C858 C859 1.399 . S
C858 C863 1.399 . S
C859 C858 1.399 . S
C859 C860 1.376 . S
C860 H847 0.930 . S
C860 C859 1.376 . S
C860 C861 1.388 . S
C861 H848 0.930 . S
C861 C860 1.388 . S
C861 C862 1.390 . S
C862 C861 1.390 . S
C862 C863 1.394 . S
C862 C868 1.465 . S
C863 C858 1.399 . S
C863 C862 1.394 . S
C863 C864 1.516 . S
C864 C863 1.516 . S
C864 C865 1.502 . S
C864 C866 1.561 . S
C864 C867 1.526 . S
C865 H849 0.959 . S
C865 H850 0.959 . S
C865 H851 0.961 . S
C865 C864 1.502 . S
C866 H852 0.960 . S
C866 H853 0.961 . S
C866 H854 0.959 . S
C866 C864 1.561 . S
C867 C864 1.526 . S
C867 C868 1.396 . S
C867 C872 1.390 . S
C868 C862 1.465 . S
C868 C867 1.396 . S
C868 C869 1.399 . S
C869 H855 0.929 . S
C869 C868 1.399 . S
C869 C870 1.385 . S
C870 H856 0.931 . S
C870 C869 1.385 . S
C870 C871 1.389 . S
C871 C870 1.389 . S
C871 C872 1.387 . S
C872 H857 0.930 . S
C872 C867 1.390 . S
C872 C871 1.387 . S
H873 C885 0.930 . S
H874 C887 0.930 . S
H875 C888 0.930 . S
H876 C892 0.959 . S
H877 C892 0.959 . S
H878 C892 0.961 . S
H879 C893 0.960 . S
H880 C893 0.961 . S
H881 C893 0.959 . S
H882 C896 0.929 . S
H883 C897 0.931 1_554 S
H884 C899 0.930 . S
C885 H873 0.930 . S
C885 C886 1.399 . S
C885 C890 1.399 . S
C886 C885 1.399 . S
C886 C887 1.376 . S
C887 H874 0.930 . S
C887 C886 1.376 . S
C887 C888 1.388 . S
C888 H875 0.930 . S
C888 C887 1.388 . S
C888 C889 1.390 . S
C889 C888 1.390 . S
C889 C890 1.394 . S
C889 C895 1.465 . S
C890 C885 1.399 . S
C890 C889 1.394 . S
C890 C891 1.516 . S
C891 C890 1.516 . S
C891 C892 1.502 . S
C891 C893 1.561 . S
C891 C894 1.526 . S
C892 H876 0.959 . S
C892 H877 0.959 . S
C892 H878 0.961 . S
C892 C891 1.502 . S
C893 H879 0.960 . S
C893 H880 0.961 . S
C893 H881 0.959 . S
C893 C891 1.561 . S
C894 C891 1.526 . S
C894 C895 1.396 . S
C894 C899 1.390 . S
C895 C889 1.465 . S
C895 C894 1.396 . S
C895 C896 1.399 . S
C896 H882 0.929 . S
C896 C895 1.399 . S
C896 C897 1.385 . S
C897 H883 0.931 1_556 S
C897 C896 1.385 . S
C897 C898 1.389 . S
C898 C897 1.389 . S
C898 C899 1.387 . S
C899 H884 0.930 . S
C899 C894 1.390 . S
C899 C898 1.387 . S
H900 C912 0.930 . S
H901 C914 0.930 . S
H902 C915 0.930 . S
H903 C919 0.959 . S
H904 C919 0.959 . S
H905 C919 0.961 . S
H906 C920 0.960 . S
H907 C920 0.961 . S
H908 C920 0.959 . S
H909 C923 0.929 . S
H910 C924 0.914 1_554 S
H911 C926 0.930 . S
C912 H900 0.930 . S
C912 C913 1.399 . S
C912 C917 1.399 . S
C913 C912 1.399 . S
C913 C914 1.376 . S
C914 H901 0.930 . S
C914 C913 1.376 . S
C914 C915 1.388 . S
C915 H902 0.930 . S
C915 C914 1.388 . S
C915 C916 1.390 . S
C916 C915 1.390 . S
C916 C917 1.394 . S
C916 C922 1.465 . S
C917 C912 1.399 . S
C917 C916 1.394 . S
C917 C918 1.516 . S
C918 C917 1.516 . S
C918 C919 1.502 . S
C918 C920 1.561 . S
C918 C921 1.526 . S
C919 H903 0.959 . S
C919 H904 0.959 . S
C919 H905 0.961 . S
C919 C918 1.502 . S
C920 H906 0.960 . S
C920 H907 0.961 . S
C920 H908 0.959 . S
C920 C918 1.561 . S
C921 C918 1.526 . S
C921 C922 1.396 . S
C921 C926 1.390 . S
C922 C916 1.465 . S
C922 C921 1.396 . S
C922 C923 1.399 . S
C923 H909 0.929 . S
C923 C922 1.399 . S
C923 C924 1.385 . S
C924 H910 0.914 1_556 S
C924 C923 1.385 . S
C924 C925 1.389 . S
C925 C924 1.389 . S
C925 C926 1.387 . S
C926 H911 0.930 . S
C926 C921 1.390 . S
C926 C925 1.387 . S
H927 C939 0.930 . S
H928 C941 0.930 . S
H929 C942 0.930 . S
H930 C946 0.959 . S
H931 C946 0.959 . S
H932 C946 0.961 . S
H933 C947 0.960 . S
H934 C947 0.961 . S
H935 C947 0.959 . S
H936 C950 0.929 . S
H937 C951 0.931 1_554 S
H938 C953 0.930 . S
C939 H927 0.930 . S
C939 C940 1.399 . S
C939 C944 1.399 . S
C940 C939 1.399 . S
C940 C941 1.376 . S
C941 H928 0.930 . S
C941 C940 1.376 . S
C941 C942 1.388 . S
C942 H929 0.930 . S
C942 C941 1.388 . S
C942 C943 1.390 . S
C943 C942 1.390 . S
C943 C944 1.394 . S
C943 C949 1.465 . S
C944 C939 1.399 . S
C944 C943 1.394 . S
C944 C945 1.516 . S
C945 C944 1.516 . S
C945 C946 1.502 . S
C945 C947 1.561 . S
C945 C948 1.526 . S
C946 H930 0.959 . S
C946 H931 0.959 . S
C946 H932 0.961 . S
C946 C945 1.502 . S
C947 H933 0.960 . S
C947 H934 0.961 . S
C947 H935 0.959 . S
C947 C945 1.561 . S
C948 C945 1.526 . S
C948 C949 1.396 . S
C948 C953 1.390 . S
C949 C943 1.465 . S
C949 C948 1.396 . S
C949 C950 1.399 . S
C950 H936 0.929 . S
C950 C949 1.399 . S
C950 C951 1.385 . S
C951 H937 0.931 1_556 S
C951 C950 1.385 . S
C951 C952 1.389 . S
C952 C951 1.389 . S
C952 C953 1.387 . S
C953 H938 0.930 . S
C953 C948 1.390 . S
C953 C952 1.387 . S
H954 C966 0.930 . S
H955 C968 0.930 . S
H956 C969 0.930 . S
H957 C973 0.959 . S
H958 C973 0.959 . S
H959 C973 0.961 . S
H960 C974 0.960 . S
H961 C974 0.961 . S
H962 C974 0.959 . S
H963 C977 0.929 . S
H964 C978 0.931 . S
H965 C980 0.930 . S
C966 H954 0.930 . S
C966 C967 1.399 . S
C966 C971 1.399 . S
C967 C966 1.399 . S
C967 C968 1.376 . S
C968 H955 0.930 . S
C968 C967 1.376 . S
C968 C969 1.388 . S
C969 H956 0.930 . S
C969 C968 1.388 . S
C969 C970 1.390 . S
C970 C969 1.390 . S
C970 C971 1.394 . S
C970 C976 1.465 . S
C971 C966 1.399 . S
C971 C970 1.394 . S
C971 C972 1.516 . S
C972 C971 1.516 . S
C972 C973 1.502 . S
C972 C974 1.561 . S
C972 C975 1.526 . S
C973 H957 0.959 . S
C973 H958 0.959 . S
C973 H959 0.961 . S
C973 C972 1.502 . S
C974 H960 0.960 . S
C974 H961 0.961 . S
C974 H962 0.959 . S
C974 C972 1.561 . S
C975 C972 1.526 . S
C975 C976 1.396 . S
C975 C980 1.390 . S
C976 C970 1.465 . S
C976 C975 1.396 . S
C976 C977 1.399 . S
C977 H963 0.929 . S
C977 C976 1.399 . S
C977 C978 1.385 . S
C978 H964 0.931 . S
C978 C977 1.385 . S
C978 C979 1.389 . S
C979 C978 1.389 . S
C979 C980 1.387 . S
C980 H965 0.930 . S
C980 C975 1.390 . S
C980 C979 1.387 . S
H981 C993 0.930 . S
H982 C995 0.930 . S
H983 C996 0.930 . S
H984 C1000 0.959 . S
H985 C1000 0.959 . S
H986 C1000 0.961 . S
H987 C1001 0.960 . S
H988 C1001 0.961 . S
H989 C1001 0.959 . S
H990 C1004 0.929 . S
H991 C1005 0.931 . S
H992 C1007 0.930 . S
C993 H981 0.930 . S
C993 C994 1.399 . S
C993 C998 1.399 . S
C994 C993 1.399 . S
C994 C995 1.376 . S
C995 H982 0.930 . S
C995 C994 1.376 . S
C995 C996 1.388 . S
C996 H983 0.930 . S
C996 C995 1.388 . S
C996 C997 1.390 . S
C997 C996 1.390 . S
C997 C998 1.394 . S
C997 C1003 1.465 . S
C998 C993 1.399 . S
C998 C997 1.394 . S
C998 C999 1.516 . S
C999 C998 1.516 . S
C999 C1000 1.502 . S
C999 C1001 1.561 . S
C999 C1002 1.526 . S
C1000 H984 0.959 . S
C1000 H985 0.959 . S
C1000 H986 0.961 . S
C1000 C999 1.502 . S
C1001 H987 0.960 . S
C1001 H988 0.961 . S
C1001 H989 0.959 . S
C1001 C999 1.561 . S
C1002 C999 1.526 . S
C1002 C1003 1.396 . S
C1002 C1007 1.390 . S
C1003 C997 1.465 . S
C1003 C1002 1.396 . S
C1003 C1004 1.399 . S
C1004 H990 0.929 . S
C1004 C1003 1.399 . S
C1004 C1005 1.385 . S
C1005 H991 0.931 . S
C1005 C1004 1.385 . S
C1005 C1006 1.389 . S
C1006 C1005 1.389 . S
C1006 C1007 1.387 . S
C1007 H992 0.930 . S
C1007 C1002 1.390 . S
C1007 C1006 1.387 . S
H1008 C1020 0.930 . S
H1009 C1022 0.930 . S
H1010 C1023 0.930 . S
H1011 C1027 0.959 . S
H1012 C1027 0.959 . S
H1013 C1027 0.961 . S
H1014 C1028 0.960 . S
H1015 C1028 0.961 . S
H1016 C1028 0.959 . S
H1017 C1031 0.929 . S
H1018 C1032 0.931 . S
H1019 C1034 0.930 . S
C1020 H1008 0.930 . S
C1020 C1021 1.399 . S
C1020 C1025 1.399 . S
C1021 C1020 1.399 . S
C1021 C1022 1.376 . S
C1022 H1009 0.930 . S
C1022 C1021 1.376 . S
C1022 C1023 1.388 . S
C1023 H1010 0.930 . S
C1023 C1022 1.388 . S
C1023 C1024 1.390 . S
C1024 C1023 1.390 . S
C1024 C1025 1.394 . S
C1024 C1030 1.465 . S
C1025 C1020 1.399 . S
C1025 C1024 1.394 . S
C1025 C1026 1.516 . S
C1026 C1025 1.516 . S
C1026 C1027 1.502 . S
C1026 C1028 1.561 . S
C1026 C1029 1.526 . S
C1027 H1011 0.959 . S
C1027 H1012 0.959 . S
C1027 H1013 0.961 . S
C1027 C1026 1.502 . S
C1028 H1014 0.960 . S
C1028 H1015 0.961 . S
C1028 H1016 0.959 . S
C1028 C1026 1.561 . S
C1029 C1026 1.526 . S
C1029 C1030 1.396 . S
C1029 C1034 1.390 . S
C1030 C1024 1.465 . S
C1030 C1029 1.396 . S
C1030 C1031 1.399 . S
C1031 H1017 0.929 . S
C1031 C1030 1.399 . S
C1031 C1032 1.385 . S
C1032 H1018 0.931 . S
C1032 C1031 1.385 . S
C1032 C1033 1.389 . S
C1033 C1032 1.389 . S
C1033 C1034 1.387 . S
C1034 H1019 0.930 . S
C1034 C1029 1.390 . S
C1034 C1033 1.387 . S
H1035 C1047 0.930 . S
H1036 C1049 0.930 . S
H1037 C1050 0.930 . S
H1038 C1054 0.959 . S
H1039 C1054 0.959 . S
H1040 C1054 0.961 . S
H1041 C1055 0.960 . S
H1042 C1055 0.961 . S
H1043 C1055 0.959 . S
H1044 C1058 0.929 . S
H1045 C1059 0.931 . S
H1046 C1061 0.930 . S
C1047 H1035 0.930 . S
C1047 C1048 1.399 . S
C1047 C1052 1.399 . S
C1048 C1047 1.399 . S
C1048 C1049 1.376 . S
C1049 H1036 0.930 . S
C1049 C1048 1.376 . S
C1049 C1050 1.388 . S
C1050 H1037 0.930 . S
C1050 C1049 1.388 . S
C1050 C1051 1.390 . S
C1051 C1050 1.390 . S
C1051 C1052 1.394 . S
C1051 C1057 1.465 . S
C1052 C1047 1.399 . S
C1052 C1051 1.394 . S
C1052 C1053 1.516 . S
C1053 C1052 1.516 . S
C1053 C1054 1.502 . S
C1053 C1055 1.561 . S
C1053 C1056 1.526 . S
C1054 H1038 0.959 . S
C1054 H1039 0.959 . S
C1054 H1040 0.961 . S
C1054 C1053 1.502 . S
C1055 H1041 0.960 . S
C1055 H1042 0.961 . S
C1055 H1043 0.959 . S
C1055 C1053 1.561 . S
C1056 C1053 1.526 . S
C1056 C1057 1.396 . S
C1056 C1061 1.390 . S
C1057 C1051 1.465 . S
C1057 C1056 1.396 . S
C1057 C1058 1.399 . S
C1058 H1044 0.929 . S
C1058 C1057 1.399 . S
C1058 C1059 1.385 . S
C1059 H1045 0.931 . S
C1059 C1058 1.385 . S
C1059 C1060 1.389 . S
C1060 C1059 1.389 . S
C1060 C1061 1.387 . S
C1061 H1046 0.930 . S
C1061 C1056 1.390 . S
C1061 C1060 1.387 . S
H1062 C1074 0.930 . S
H1063 C1076 0.930 . S
H1064 C1077 0.930 . S
H1065 C1081 0.959 . S
H1066 C1081 0.959 . S
H1067 C1081 0.961 . S
H1068 C1082 0.960 . S
H1069 C1082 0.961 . S
H1070 C1082 0.959 . S
H1071 C1085 0.929 . S
H1072 C1086 0.931 . S
H1073 C1088 0.930 . S
C1074 H1062 0.930 . S
C1074 C1075 1.399 . S
C1074 C1079 1.399 . S
C1075 C1074 1.399 . S
C1075 C1076 1.376 . S
C1076 H1063 0.930 . S
C1076 C1075 1.376 . S
C1076 C1077 1.388 . S
C1077 H1064 0.930 . S
C1077 C1076 1.388 . S
C1077 C1078 1.390 . S
C1078 C1077 1.390 . S
C1078 C1079 1.394 . S
C1078 C1084 1.465 . S
C1079 C1074 1.399 . S
C1079 C1078 1.394 . S
C1079 C1080 1.516 . S
C1080 C1079 1.516 . S
C1080 C1081 1.502 . S
C1080 C1082 1.561 . S
C1080 C1083 1.526 . S
C1081 H1065 0.959 . S
C1081 H1066 0.959 . S
C1081 H1067 0.961 . S
C1081 C1080 1.502 . S
C1082 H1068 0.960 . S
C1082 H1069 0.961 . S
C1082 H1070 0.959 . S
C1082 C1080 1.561 . S
C1083 C1080 1.526 . S
C1083 C1084 1.396 . S
C1083 C1088 1.390 . S
C1084 C1078 1.465 . S
C1084 C1083 1.396 . S
C1084 C1085 1.399 . S
C1085 H1071 0.929 . S
C1085 C1084 1.399 . S
C1085 C1086 1.385 . S
C1086 H1072 0.931 . S
C1086 C1085 1.385 . S
C1086 C1087 1.389 . S
C1087 C1086 1.389 . S
C1087 C1088 1.387 . S
C1088 H1073 0.930 . S
C1088 C1083 1.390 . S
C1088 C1087 1.387 . S
H1089 C1101 0.930 . S
H1090 C1103 0.930 . S
H1091 C1104 0.930 . S
H1092 C1108 0.959 . S
H1093 C1108 0.959 . S
H1094 C1108 0.961 . S
H1095 C1109 0.960 . S
H1096 C1109 0.961 . S
H1097 C1109 0.959 . S
H1098 C1112 0.929 . S
H1099 C1113 0.931 . S
H1100 C1115 0.930 . S
C1101 H1089 0.930 . S
C1101 C1102 1.399 . S
C1101 C1106 1.399 . S
C1102 C1101 1.399 . S
C1102 C1103 1.376 . S
C1103 H1090 0.930 . S
C1103 C1102 1.376 . S
C1103 C1104 1.388 . S
C1104 H1091 0.930 . S
C1104 C1103 1.388 . S
C1104 C1105 1.390 . S
C1105 C1104 1.390 . S
C1105 C1106 1.394 . S
C1105 C1111 1.465 . S
C1106 C1101 1.399 . S
C1106 C1105 1.394 . S
C1106 C1107 1.516 . S
C1107 C1106 1.516 . S
C1107 C1108 1.502 . S
C1107 C1109 1.561 . S
C1107 C1110 1.526 . S
C1108 H1092 0.959 . S
C1108 H1093 0.959 . S
C1108 H1094 0.961 . S
C1108 C1107 1.502 . S
C1109 H1095 0.960 . S
C1109 H1096 0.961 . S
C1109 H1097 0.959 . S
C1109 C1107 1.561 . S
C1110 C1107 1.526 . S
C1110 C1111 1.396 . S
C1110 C1115 1.390 . S
C1111 C1105 1.465 . S
C1111 C1110 1.396 . S
C1111 C1112 1.399 . S
C1112 H1098 0.929 . S
C1112 C1111 1.399 . S
C1112 C1113 1.385 . S
C1113 H1099 0.931 . S
C1113 C1112 1.385 . S
C1113 C1114 1.389 . S
C1114 C1113 1.389 . S
C1114 C1115 1.387 . S
C1115 H1100 0.930 . S
C1115 C1110 1.390 . S
C1115 C1114 1.387 . S
H1116 C1128 0.930 . S
H1117 C1130 0.930 . S
H1118 C1131 0.930 . S
H1119 C1135 0.959 . S
H1120 C1135 0.959 . S
H1121 C1135 0.961 . S
H1122 C1136 0.960 . S
H1123 C1136 0.961 . S
H1124 C1136 0.959 . S
H1125 C1139 0.929 . S
H1126 C1140 0.931 . S
H1127 C1142 0.930 . S
C1128 H1116 0.930 . S
C1128 C1129 1.399 . S
C1128 C1133 1.399 . S
C1129 C1128 1.399 . S
C1129 C1130 1.376 . S
C1130 H1117 0.930 . S
C1130 C1129 1.376 . S
C1130 C1131 1.388 . S
C1131 H1118 0.930 . S
C1131 C1130 1.388 . S
C1131 C1132 1.390 . S
C1132 C1131 1.390 . S
C1132 C1133 1.394 . S
C1132 C1138 1.465 . S
C1133 C1128 1.399 . S
C1133 C1132 1.394 . S
C1133 C1134 1.516 . S
C1134 C1133 1.516 . S
C1134 C1135 1.502 . S
C1134 C1136 1.561 . S
C1134 C1137 1.526 . S
C1135 H1119 0.959 . S
C1135 H1120 0.959 . S
C1135 H1121 0.961 . S
C1135 C1134 1.502 . S
C1136 H1122 0.960 . S
C1136 H1123 0.961 . S
C1136 H1124 0.959 . S
C1136 C1134 1.561 . S
C1137 C1134 1.526 . S
C1137 C1138 1.396 . S
C1137 C1142 1.390 . S
C1138 C1132 1.465 . S
C1138 C1137 1.396 . S
C1138 C1139 1.399 . S
C1139 H1125 0.929 . S
C1139 C1138 1.399 . S
C1139 C1140 1.385 . S
C1140 H1126 0.931 . S
C1140 C1139 1.385 . S
C1140 C1141 1.389 . S
C1141 C1140 1.389 . S
C1141 C1142 1.387 . S
C1142 H1127 0.930 . S
C1142 C1137 1.390 . S
C1142 C1141 1.387 . S
H1143 C1155 0.930 . S
H1144 C1157 0.930 . S
H1145 C1158 0.930 . S
H1146 C1162 0.959 . S
H1147 C1162 0.959 . S
H1148 C1162 0.961 . S
H1149 C1163 0.960 . S
H1150 C1163 0.961 . S
H1151 C1163 0.959 . S
H1152 C1166 0.929 . S
H1153 C1167 0.931 . S
H1154 C1169 0.930 . S
C1155 H1143 0.930 . S
C1155 C1156 1.399 . S
C1155 C1160 1.399 . S
C1156 C1155 1.399 . S
C1156 C1157 1.376 . S
C1157 H1144 0.930 . S
C1157 C1156 1.376 . S
C1157 C1158 1.388 . S
C1158 H1145 0.930 . S
C1158 C1157 1.388 . S
C1158 C1159 1.390 . S
C1159 C1158 1.390 . S
C1159 C1160 1.394 . S
C1159 C1165 1.465 . S
C1160 C1155 1.399 . S
C1160 C1159 1.394 . S
C1160 C1161 1.516 . S
C1161 C1160 1.516 . S
C1161 C1162 1.502 . S
C1161 C1163 1.561 . S
C1161 C1164 1.526 . S
C1162 H1146 0.959 . S
C1162 H1147 0.959 . S
C1162 H1148 0.961 . S
C1162 C1161 1.502 . S
C1163 H1149 0.960 . S
C1163 H1150 0.961 . S
C1163 H1151 0.959 . S
C1163 C1161 1.561 . S
C1164 C1161 1.526 . S
C1164 C1165 1.396 . S
C1164 C1169 1.390 . S
C1165 C1159 1.465 . S
C1165 C1164 1.396 . S
C1165 C1166 1.399 . S
C1166 H1152 0.929 . S
C1166 C1165 1.399 . S
C1166 C1167 1.385 . S
C1167 H1153 0.931 . S
C1167 C1166 1.385 . S
C1167 C1168 1.389 . S
C1168 C1167 1.389 . S
C1168 C1169 1.387 . S
C1169 H1154 0.930 . S
C1169 C1164 1.390 . S
C1169 C1168 1.387 . S
H1170 C1182 0.930 . S
H1171 C1184 0.930 . S
H1172 C1185 0.930 . S
H1173 C1189 0.959 . S
H1174 C1189 0.959 . S
H1175 C1189 0.961 . S
H1176 C1190 0.960 . S
H1177 C1190 0.961 . S
H1178 C1190 0.959 . S
H1179 C1193 0.929 . S
H1180 C1194 0.931 . S
H1181 C1196 0.930 . S
C1182 H1170 0.930 . S
C1182 C1183 1.399 . S
C1182 C1187 1.399 . S
C1183 C1182 1.399 . S
C1183 C1184 1.376 . S
C1184 H1171 0.930 . S
C1184 C1183 1.376 . S
C1184 C1185 1.388 . S
C1185 H1172 0.930 . S
C1185 C1184 1.388 . S
C1185 C1186 1.390 . S
C1186 C1185 1.390 . S
C1186 C1187 1.394 . S
C1186 C1192 1.465 . S
C1187 C1182 1.399 . S
C1187 C1186 1.394 . S
C1187 C1188 1.516 . S
C1188 C1187 1.516 . S
C1188 C1189 1.502 . S
C1188 C1190 1.561 . S
C1188 C1191 1.526 . S
C1189 H1173 0.959 . S
C1189 H1174 0.959 . S
C1189 H1175 0.961 . S
C1189 C1188 1.502 . S
C1190 H1176 0.960 . S
C1190 H1177 0.961 . S
C1190 H1178 0.959 . S
C1190 C1188 1.561 . S
C1191 C1188 1.526 . S
C1191 C1192 1.396 . S
C1191 C1196 1.390 . S
C1192 C1186 1.465 . S
C1192 C1191 1.396 . S
C1192 C1193 1.399 . S
C1193 H1179 0.929 . S
C1193 C1192 1.399 . S
C1193 C1194 1.385 . S
C1194 H1180 0.931 . S
C1194 C1193 1.385 . S
C1194 C1195 1.389 . S
C1195 C1194 1.389 . S
C1195 C1196 1.387 . S
C1196 H1181 0.930 . S
C1196 C1191 1.390 . S
C1196 C1195 1.387 . S
H1197 C1209 0.930 . S
H1198 C1211 0.930 . S
H1199 C1212 0.930 . S
H1200 C1216 0.959 . S
H1201 C1216 0.959 . S
H1202 C1216 0.961 . S
H1203 C1217 0.960 . S
H1204 C1217 0.961 . S
H1205 C1217 0.959 . S
H1206 C1220 0.929 . S
H1207 C1221 0.931 . S
H1208 C1223 0.930 . S
C1209 H1197 0.930 . S
C1209 C1210 1.399 . S
C1209 C1214 1.399 . S
C1210 C1209 1.399 . S
C1210 C1211 1.376 . S
C1211 H1198 0.930 . S
C1211 C1210 1.376 . S
C1211 C1212 1.388 . S
C1212 H1199 0.930 . S
C1212 C1211 1.388 . S
C1212 C1213 1.390 . S
C1213 C1212 1.390 . S
C1213 C1214 1.394 . S
C1213 C1219 1.465 . S
C1214 C1209 1.399 . S
C1214 C1213 1.394 . S
C1214 C1215 1.516 . S
C1215 C1214 1.516 . S
C1215 C1216 1.502 . S
C1215 C1217 1.561 . S
C1215 C1218 1.526 . S
C1216 H1200 0.959 . S
C1216 H1201 0.959 . S
C1216 H1202 0.961 . S
C1216 C1215 1.502 . S
C1217 H1203 0.960 . S
C1217 H1204 0.961 . S
C1217 H1205 0.959 . S
C1217 C1215 1.561 . S
C1218 C1215 1.526 . S
C1218 C1219 1.396 . S
C1218 C1223 1.390 . S
C1219 C1213 1.465 . S
C1219 C1218 1.396 . S
C1219 C1220 1.399 . S
C1220 H1206 0.929 . S
C1220 C1219 1.399 . S
C1220 C1221 1.385 . S
C1221 H1207 0.931 . S
C1221 C1220 1.385 . S
C1221 C1222 1.389 . S
C1222 C1221 1.389 . S
C1222 C1223 1.387 . S
C1223 H1208 0.930 . S
C1223 C1218 1.390 . S
C1223 C1222 1.387 . S
H1224 C1236 0.930 . S
H1225 C1238 0.930 . S
H1226 C1239 0.930 . S
H1227 C1243 0.959 . S
H1228 C1243 0.959 . S
H1229 C1243 0.961 . S
H1230 C1244 0.960 . S
H1231 C1244 0.961 . S
H1232 C1244 0.959 . S
H1233 C1247 0.929 . S
H1234 C1248 0.931 . S
H1235 C1250 0.930 . S
C1236 H1224 0.930 . S
C1236 C1237 1.399 . S
C1236 C1241 1.399 . S
C1237 C1236 1.399 . S
C1237 C1238 1.376 . S
C1238 H1225 0.930 . S
C1238 C1237 1.376 . S
C1238 C1239 1.388 . S
C1239 H1226 0.930 . S
C1239 C1238 1.388 . S
C1239 C1240 1.390 . S
C1240 C1239 1.390 . S
C1240 C1241 1.394 . S
C1240 C1246 1.465 . S
C1241 C1236 1.399 . S
C1241 C1240 1.394 . S
C1241 C1242 1.516 . S
C1242 C1241 1.516 . S
C1242 C1243 1.502 . S
C1242 C1244 1.561 . S
C1242 C1245 1.526 . S
C1243 H1227 0.959 . S
C1243 H1228 0.959 . S
C1243 H1229 0.961 . S
C1243 C1242 1.502 . S
C1244 H1230 0.960 . S
C1244 H1231 0.961 . S
C1244 H1232 0.959 . S
C1244 C1242 1.561 . S
C1245 C1242 1.526 . S
C1245 C1246 1.396 . S
C1245 C1250 1.390 . S
C1246 C1240 1.465 . S
C1246 C1245 1.396 . S
C1246 C1247 1.399 . S
C1247 H1233 0.929 . S
C1247 C1246 1.399 . S
C1247 C1248 1.385 . S
C1248 H1234 0.931 . S
C1248 C1247 1.385 . S
C1248 C1249 1.389 . S
C1249 C1248 1.389 . S
C1249 C1250 1.387 . S
C1250 H1235 0.930 . S
C1250 C1245 1.390 . S
C1250 C1249 1.387 . S
H1251 C1263 0.930 . S
H1252 C1265 0.930 . S
H1253 C1266 0.930 . S
H1254 C1270 0.959 . S
H1255 C1270 0.959 . S
H1256 C1270 0.961 . S
H1257 C1271 0.960 . S
H1258 C1271 0.961 . S
H1259 C1271 0.959 . S
H1260 C1274 0.929 . S
H1261 C1275 0.931 . S
H1262 C1277 0.930 . S
C1263 H1251 0.930 . S
C1263 C1264 1.399 . S
C1263 C1268 1.399 . S
C1264 C1263 1.399 . S
C1264 C1265 1.376 . S
C1265 H1252 0.930 . S
C1265 C1264 1.376 . S
C1265 C1266 1.388 . S
C1266 H1253 0.930 . S
C1266 C1265 1.388 . S
C1266 C1267 1.390 . S
C1267 C1266 1.390 . S
C1267 C1268 1.394 . S
C1267 C1273 1.465 . S
C1268 C1263 1.399 . S
C1268 C1267 1.394 . S
C1268 C1269 1.516 . S
C1269 C1268 1.516 . S
C1269 C1270 1.502 . S
C1269 C1271 1.561 . S
C1269 C1272 1.526 . S
C1270 H1254 0.959 . S
C1270 H1255 0.959 . S
C1270 H1256 0.961 . S
C1270 C1269 1.502 . S
C1271 H1257 0.960 . S
C1271 H1258 0.961 . S
C1271 H1259 0.959 . S
C1271 C1269 1.561 . S
C1272 C1269 1.526 . S
C1272 C1273 1.396 . S
C1272 C1277 1.390 . S
C1273 C1267 1.465 . S
C1273 C1272 1.396 . S
C1273 C1274 1.399 . S
C1274 H1260 0.929 . S
C1274 C1273 1.399 . S
C1274 C1275 1.385 . S
C1275 H1261 0.931 . S
C1275 C1274 1.385 . S
C1275 C1276 1.389 . S
C1276 C1275 1.389 . S
C1276 C1277 1.387 . S
C1277 H1262 0.930 . S
C1277 C1272 1.390 . S
C1277 C1276 1.387 . S
H1278 C1290 0.930 . S
H1279 C1292 0.930 . S
H1280 C1293 0.930 . S
H1281 C1297 0.959 . S
H1282 C1297 0.959 . S
H1283 C1297 0.961 . S
H1284 C1298 0.960 . S
H1285 C1298 0.961 . S
H1286 C1298 0.959 . S
H1287 C1301 0.929 . S
H1288 C1302 0.931 . S
H1289 C1304 0.930 . S
C1290 H1278 0.930 . S
C1290 C1291 1.399 . S
C1290 C1295 1.399 . S
C1291 C1290 1.399 . S
C1291 C1292 1.376 . S
C1292 H1279 0.930 . S
C1292 C1291 1.376 . S
C1292 C1293 1.388 . S
C1293 H1280 0.930 . S
C1293 C1292 1.388 . S
C1293 C1294 1.390 . S
C1294 C1293 1.390 . S
C1294 C1295 1.394 . S
C1294 C1300 1.465 . S
C1295 C1290 1.399 . S
C1295 C1294 1.394 . S
C1295 C1296 1.516 . S
C1296 C1295 1.516 . S
C1296 C1297 1.502 . S
C1296 C1298 1.561 . S
C1296 C1299 1.526 . S
C1297 H1281 0.959 . S
C1297 H1282 0.959 . S
C1297 H1283 0.961 . S
C1297 C1296 1.502 . S
C1298 H1284 0.960 . S
C1298 H1285 0.961 . S
C1298 H1286 0.959 . S
C1298 C1296 1.561 . S
C1299 C1296 1.526 . S
C1299 C1300 1.396 . S
C1299 C1304 1.390 . S
C1300 C1294 1.465 . S
C1300 C1299 1.396 . S
C1300 C1301 1.399 . S
C1301 H1287 0.929 . S
C1301 C1300 1.399 . S
C1301 C1302 1.385 . S
C1302 H1288 0.931 . S
C1302 C1301 1.385 . S
C1302 C1303 1.389 . S
C1303 C1302 1.389 . S
C1303 C1304 1.387 . S
C1304 H1289 0.930 . S
C1304 C1299 1.390 . S
C1304 C1303 1.387 . S
H1305 C1317 0.930 . S
H1306 C1319 0.930 . S
H1307 C1320 0.930 . S
H1308 C1324 0.959 . S
H1309 C1324 0.959 . S
H1310 C1324 0.961 . S
H1311 C1325 0.960 . S
H1312 C1325 0.961 . S
H1313 C1325 0.959 . S
H1314 C1328 0.929 . S
H1315 C1329 0.931 . S
H1316 C1331 0.930 . S
C1317 H1305 0.930 . S
C1317 C1318 1.399 . S
C1317 C1322 1.399 . S
C1318 C1317 1.399 . S
C1318 C1319 1.376 . S
C1319 H1306 0.930 . S
C1319 C1318 1.376 . S
C1319 C1320 1.388 . S
C1320 H1307 0.930 . S
C1320 C1319 1.388 . S
C1320 C1321 1.390 . S
C1321 C1320 1.390 . S
C1321 C1322 1.394 . S
C1321 C1327 1.465 . S
C1322 C1317 1.399 . S
C1322 C1321 1.394 . S
C1322 C1323 1.516 . S
C1323 C1322 1.516 . S
C1323 C1324 1.502 . S
C1323 C1325 1.561 . S
C1323 C1326 1.526 . S
C1324 H1308 0.959 . S
C1324 H1309 0.959 . S
C1324 H1310 0.961 . S
C1324 C1323 1.502 . S
C1325 H1311 0.960 . S
C1325 H1312 0.961 . S
C1325 H1313 0.959 . S
C1325 C1323 1.561 . S
C1326 C1323 1.526 . S
C1326 C1327 1.396 . S
C1326 C1331 1.390 . S
C1327 C1321 1.465 . S
C1327 C1326 1.396 . S
C1327 C1328 1.399 . S
C1328 H1314 0.929 . S
C1328 C1327 1.399 . S
C1328 C1329 1.385 . S
C1329 H1315 0.931 . S
C1329 C1328 1.385 . S
C1329 C1330 1.389 . S
C1330 C1329 1.389 . S
C1330 C1331 1.387 . S
C1331 H1316 0.930 . S
C1331 C1326 1.390 . S
C1331 C1330 1.387 . S
H1332 C1344 0.930 . S
H1333 C1346 0.930 . S
H1334 C1347 0.930 . S
H1335 C1351 0.959 . S
H1336 C1351 0.959 . S
H1337 C1351 0.961 . S
H1338 C1352 0.960 . S
H1339 C1352 0.961 . S
H1340 C1352 0.959 . S
H1341 C1355 0.929 . S
H1342 C1356 0.931 . S
H1343 C1358 0.930 . S
C1344 H1332 0.930 . S
C1344 C1345 1.399 . S
C1344 C1349 1.399 . S
C1345 C1344 1.399 . S
C1345 C1346 1.376 . S
C1346 H1333 0.930 . S
C1346 C1345 1.376 . S
C1346 C1347 1.388 . S
C1347 H1334 0.930 . S
C1347 C1346 1.388 . S
C1347 C1348 1.390 . S
C1348 C1347 1.390 . S
C1348 C1349 1.394 . S
C1348 C1354 1.465 . S
C1349 C1344 1.399 . S
C1349 C1348 1.394 . S
C1349 C1350 1.516 . S
C1350 C1349 1.516 . S
C1350 C1351 1.502 . S
C1350 C1352 1.561 . S
C1350 C1353 1.526 . S
C1351 H1335 0.959 . S
C1351 H1336 0.959 . S
C1351 H1337 0.961 . S
C1351 C1350 1.502 . S
C1352 H1338 0.960 . S
C1352 H1339 0.961 . S
C1352 H1340 0.959 . S
C1352 C1350 1.561 . S
C1353 C1350 1.526 . S
C1353 C1354 1.396 . S
C1353 C1358 1.390 . S
C1354 C1348 1.465 . S
C1354 C1353 1.396 . S
C1354 C1355 1.399 . S
C1355 H1341 0.929 . S
C1355 C1354 1.399 . S
C1355 C1356 1.385 . S
C1356 H1342 0.931 . S
C1356 C1355 1.385 . S
C1356 C1357 1.389 . S
C1357 C1356 1.389 . S
C1357 C1358 1.387 . S
C1358 H1343 0.930 . S
C1358 C1353 1.390 . S
C1358 C1357 1.387 . S
H1359 C1371 0.930 . S
H1360 C1373 0.930 . S
H1361 C1374 0.930 . S
H1362 C1378 0.959 . S
H1363 C1378 0.959 . S
H1364 C1378 0.961 . S
H1365 C1379 0.960 . S
H1366 C1379 0.961 . S
H1367 C1379 0.959 . S
H1368 C1382 0.929 . S
H1369 C1383 0.931 . S
H1370 C1385 0.930 . S
C1371 H1359 0.930 . S
C1371 C1372 1.399 . S
C1371 C1376 1.399 . S
C1372 C1371 1.399 . S
C1372 C1373 1.376 . S
C1373 H1360 0.930 . S
C1373 C1372 1.376 . S
C1373 C1374 1.388 . S
C1374 H1361 0.930 . S
C1374 C1373 1.388 . S
C1374 C1375 1.390 . S
C1375 C1374 1.390 . S
C1375 C1376 1.394 . S
C1375 C1381 1.465 . S
C1376 C1371 1.399 . S
C1376 C1375 1.394 . S
C1376 C1377 1.516 . S
C1377 C1376 1.516 . S
C1377 C1378 1.502 . S
C1377 C1379 1.561 . S
C1377 C1380 1.526 . S
C1378 H1362 0.959 . S
C1378 H1363 0.959 . S
C1378 H1364 0.961 . S
C1378 C1377 1.502 . S
C1379 H1365 0.960 . S
C1379 H1366 0.961 . S
C1379 H1367 0.959 . S
C1379 C1377 1.561 . S
C1380 C1377 1.526 . S
C1380 C1381 1.396 . S
C1380 C1385 1.390 . S
C1381 C1375 1.465 . S
C1381 C1380 1.396 . S
C1381 C1382 1.399 . S
C1382 H1368 0.929 . S
C1382 C1381 1.399 . S
C1382 C1383 1.385 . S
C1383 H1369 0.931 . S
C1383 C1382 1.385 . S
C1383 C1384 1.389 . S
C1384 C1383 1.389 . S
C1384 C1385 1.387 . S
C1385 H1370 0.930 . S
C1385 C1380 1.390 . S
C1385 C1384 1.387 . S
H1386 C1398 0.930 . S
H1387 C1400 0.930 . S
H1388 C1401 0.930 . S
H1389 C1405 0.959 . S
H1390 C1405 0.959 . S
H1391 C1405 0.961 . S
H1392 C1406 0.960 . S
H1393 C1406 0.961 . S
H1394 C1406 0.959 . S
H1395 C1409 0.929 . S
H1396 C1410 0.931 . S
H1397 C1412 0.930 . S
C1398 H1386 0.930 . S
C1398 C1399 1.399 . S
C1398 C1403 1.399 . S
C1399 C1398 1.399 . S
C1399 C1400 1.376 . S
C1400 H1387 0.930 . S
C1400 C1399 1.376 . S
C1400 C1401 1.388 . S
C1401 H1388 0.930 . S
C1401 C1400 1.388 . S
C1401 C1402 1.390 . S
C1402 C1401 1.390 . S
C1402 C1403 1.394 . S
C1402 C1408 1.465 . S
C1403 C1398 1.399 . S
C1403 C1402 1.394 . S
C1403 C1404 1.516 . S
C1404 C1403 1.516 . S
C1404 C1405 1.502 . S
C1404 C1406 1.561 . S
C1404 C1407 1.526 . S
C1405 H1389 0.959 . S
C1405 H1390 0.959 . S
C1405 H1391 0.961 . S
C1405 C1404 1.502 . S
C1406 H1392 0.960 . S
C1406 H1393 0.961 . S
C1406 H1394 0.959 . S
C1406 C1404 1.561 . S
C1407 C1404 1.526 . S
C1407 C1408 1.396 . S
C1407 C1412 1.390 . S
C1408 C1402 1.465 . S
C1408 C1407 1.396 . S
C1408 C1409 1.399 . S
C1409 H1395 0.929 . S
C1409 C1408 1.399 . S
C1409 C1410 1.385 . S
C1410 H1396 0.931 . S
C1410 C1409 1.385 . S
C1410 C1411 1.389 . S
C1411 C1410 1.389 . S
C1411 C1412 1.387 . S
C1412 H1397 0.930 . S
C1412 C1407 1.390 . S
C1412 C1411 1.387 . S
H1413 C1425 0.930 . S
H1414 C1427 0.930 . S
H1415 C1428 0.930 . S
H1416 C1432 0.959 . S
H1417 C1432 0.959 . S
H1418 C1432 0.961 . S
H1419 C1433 0.960 . S
H1420 C1433 0.961 . S
H1421 C1433 0.959 . S
H1422 C1436 0.929 . S
H1423 C1437 0.931 . S
H1424 C1439 0.930 . S
C1425 H1413 0.930 . S
C1425 C1426 1.399 . S
C1425 C1430 1.399 . S
C1426 C1425 1.399 . S
C1426 C1427 1.376 . S
C1427 H1414 0.930 . S
C1427 C1426 1.376 . S
C1427 C1428 1.388 . S
C1428 H1415 0.930 . S
C1428 C1427 1.388 . S
C1428 C1429 1.390 . S
C1429 C1428 1.390 . S
C1429 C1430 1.394 . S
C1429 C1435 1.465 . S
C1430 C1425 1.399 . S
C1430 C1429 1.394 . S
C1430 C1431 1.516 . S
C1431 C1430 1.516 . S
C1431 C1432 1.502 . S
C1431 C1433 1.561 . S
C1431 C1434 1.526 . S
C1432 H1416 0.959 . S
C1432 H1417 0.959 . S
C1432 H1418 0.961 . S
C1432 C1431 1.502 . S
C1433 H1419 0.960 . S
C1433 H1420 0.961 . S
C1433 H1421 0.959 . S
C1433 C1431 1.561 . S
C1434 C1431 1.526 . S
C1434 C1435 1.396 . S
C1434 C1439 1.390 . S
C1435 C1429 1.465 . S
C1435 C1434 1.396 . S
C1435 C1436 1.399 . S
C1436 H1422 0.929 . S
C1436 C1435 1.399 . S
C1436 C1437 1.385 . S
C1437 H1423 0.931 . S
C1437 C1436 1.385 . S
C1437 C1438 1.389 . S
C1438 C1437 1.389 . S
C1438 C1439 1.387 . S
C1439 H1424 0.930 . S
C1439 C1434 1.390 . S
C1439 C1438 1.387 . S
H1440 C1452 0.930 . S
H1441 C1454 0.930 . S
H1442 C1455 0.930 . S
H1443 C1459 0.959 . S
H1444 C1459 0.959 . S
H1445 C1459 0.961 . S
H1446 C1460 0.960 . S
H1447 C1460 0.961 . S
H1448 C1460 0.959 . S
H1449 C1463 0.929 . S
H1450 C1464 0.931 . S
H1451 C1466 0.930 . S
C1452 H1440 0.930 . S
C1452 C1453 1.399 . S
C1452 C1457 1.399 . S
C1453 C1452 1.399 . S
C1453 C1454 1.376 . S
C1454 H1441 0.930 . S
C1454 C1453 1.376 . S
C1454 C1455 1.388 . S
C1455 H1442 0.930 . S
C1455 C1454 1.388 . S
C1455 C1456 1.390 . S
C1456 C1455 1.390 . S
C1456 C1457 1.394 . S
C1456 C1462 1.465 . S
C1457 C1452 1.399 . S
C1457 C1456 1.394 . S
C1457 C1458 1.516 . S
C1458 C1457 1.516 . S
C1458 C1459 1.502 . S
C1458 C1460 1.561 . S
C1458 C1461 1.526 . S
C1459 H1443 0.959 . S
C1459 H1444 0.959 . S
C1459 H1445 0.961 . S
C1459 C1458 1.502 . S
C1460 H1446 0.960 . S
C1460 H1447 0.961 . S
C1460 H1448 0.959 . S
C1460 C1458 1.561 . S
C1461 C1458 1.526 . S
C1461 C1462 1.396 . S
C1461 C1466 1.390 . S
C1462 C1456 1.465 . S
C1462 C1461 1.396 . S
C1462 C1463 1.399 . S
C1463 H1449 0.929 . S
C1463 C1462 1.399 . S
C1463 C1464 1.385 . S
C1464 H1450 0.931 . S
C1464 C1463 1.385 . S
C1464 C1465 1.389 . S
C1465 C1464 1.389 . S
C1465 C1466 1.387 . S
C1466 H1451 0.930 . S
C1466 C1461 1.390 . S
C1466 C1465 1.387 . S
H1467 C1479 0.930 . S
H1468 C1481 0.930 . S
H1469 C1482 0.930 . S
H1470 C1486 0.959 . S
H1471 C1486 0.959 . S
H1472 C1486 0.961 1_565 S
H1473 C1487 0.960 1_565 S
H1474 C1487 0.961 . S
H1475 C1487 0.959 . S
H1476 C1490 0.929 . S
H1477 C1491 0.931 . S
H1478 C1493 0.930 . S
C1479 H1467 0.930 . S
C1479 C1480 1.399 . S
C1479 C1484 1.399 . S
C1480 C1479 1.399 . S
C1480 C1481 1.376 . S
C1481 H1468 0.930 . S
C1481 C1480 1.376 . S
C1481 C1482 1.388 . S
C1482 H1469 0.930 . S
C1482 C1481 1.388 . S
C1482 C1483 1.390 . S
C1483 C1482 1.390 . S
C1483 C1484 1.394 . S
C1483 C1489 1.465 1_565 S
C1484 C1479 1.399 . S
C1484 C1483 1.394 . S
C1484 C1485 1.516 1_565 S
C1485 C1484 1.516 1_545 S
C1485 C1486 1.502 . S
C1485 C1487 1.561 . S
C1485 C1488 1.526 . S
C1486 H1470 0.959 . S
C1486 H1471 0.959 . S
C1486 H1472 0.961 1_545 S
C1486 C1485 1.502 . S
C1487 H1473 0.960 1_545 S
C1487 H1474 0.961 . S
C1487 H1475 0.959 . S
C1487 C1485 1.561 . S
C1488 C1485 1.526 . S
C1488 C1489 1.396 . S
C1488 C1493 1.390 . S
C1489 C1483 1.465 1_545 S
C1489 C1488 1.396 . S
C1489 C1490 1.399 . S
C1490 H1476 0.929 . S
C1490 C1489 1.399 . S
C1490 C1491 1.385 . S
C1491 H1477 0.931 . S
C1491 C1490 1.385 . S
C1491 C1492 1.389 . S
C1492 C1491 1.389 . S
C1492 C1493 1.387 . S
C1493 H1478 0.930 . S
C1493 C1488 1.390 . S
C1493 C1492 1.387 . S
H1494 C1506 0.930 . S
H1495 C1508 0.930 . S
H1496 C1509 0.930 . S
H1497 C1513 0.959 . S
H1498 C1513 0.959 . S
H1499 C1513 0.961 1_655 S
H1500 C1514 0.960 1_655 S
H1501 C1514 0.961 . S
H1502 C1514 0.959 . S
H1503 C1517 0.929 . S
H1504 C1518 0.931 . S
H1505 C1520 0.930 . S
C1506 H1494 0.930 . S
C1506 C1507 1.399 . S
C1506 C1511 1.399 . S
C1507 C1506 1.399 . S
C1507 C1508 1.376 . S
C1508 H1495 0.930 . S
C1508 C1507 1.376 . S
C1508 C1509 1.388 . S
C1509 H1496 0.930 . S
C1509 C1508 1.388 . S
C1509 C1510 1.390 . S
C1510 C1509 1.390 . S
C1510 C1511 1.394 . S
C1510 C1516 1.465 1_655 S
C1511 C1506 1.399 . S
C1511 C1510 1.394 . S
C1511 C1512 1.516 1_655 S
C1512 C1511 1.516 1_455 S
C1512 C1513 1.502 . S
C1512 C1514 1.561 . S
C1512 C1515 1.526 . S
C1513 H1497 0.959 . S
C1513 H1498 0.959 . S
C1513 H1499 0.961 1_455 S
C1513 C1512 1.502 . S
C1514 H1500 0.960 1_455 S
C1514 H1501 0.961 . S
C1514 H1502 0.959 . S
C1514 C1512 1.561 . S
C1515 C1512 1.526 . S
C1515 C1516 1.396 . S
C1515 C1520 1.390 . S
C1516 C1510 1.465 1_455 S
C1516 C1515 1.396 . S
C1516 C1517 1.399 . S
C1517 H1503 0.929 . S
C1517 C1516 1.399 . S
C1517 C1518 1.385 . S
C1518 H1504 0.931 . S
C1518 C1517 1.385 . S
C1518 C1519 1.389 . S
C1519 C1518 1.389 . S
C1519 C1520 1.387 . S
C1520 H1505 0.930 . S
C1520 C1515 1.390 . S
C1520 C1519 1.387 . S
H1521 C1533 0.930 . S
H1522 C1535 0.930 . S
H1523 C1536 0.930 . S
H1524 C1540 0.959 . S
H1525 C1540 0.959 . S
H1526 C1540 0.961 . S
H1527 C1541 0.960 . S
H1528 C1541 0.961 . S
H1529 C1541 0.959 . S
H1530 C1544 0.929 . S
H1531 C1545 0.931 . S
H1532 C1547 0.930 . S
C1533 H1521 0.930 . S
C1533 C1534 1.399 . S
C1533 C1538 1.399 . S
C1534 C1533 1.399 . S
C1534 C1535 1.376 . S
C1535 H1522 0.930 . S
C1535 C1534 1.376 . S
C1535 C1536 1.388 . S
C1536 H1523 0.930 . S
C1536 C1535 1.388 . S
C1536 C1537 1.390 . S
C1537 C1536 1.390 . S
C1537 C1538 1.394 . S
C1537 C1543 1.465 . S
C1538 C1533 1.399 . S
C1538 C1537 1.394 . S
C1538 C1539 1.516 . S
C1539 C1538 1.516 . S
C1539 C1540 1.502 . S
C1539 C1541 1.561 . S
C1539 C1542 1.526 . S
C1540 H1524 0.959 . S
C1540 H1525 0.959 . S
C1540 H1526 0.961 . S
C1540 C1539 1.502 . S
C1541 H1527 0.960 . S
C1541 H1528 0.961 . S
C1541 H1529 0.959 . S
C1541 C1539 1.561 . S
C1542 C1539 1.526 . S
C1542 C1543 1.396 . S
C1542 C1547 1.390 . S
C1543 C1537 1.465 . S
C1543 C1542 1.396 . S
C1543 C1544 1.399 . S
C1544 H1530 0.929 . S
C1544 C1543 1.399 . S
C1544 C1545 1.385 . S
C1545 H1531 0.931 . S
C1545 C1544 1.385 . S
C1545 C1546 1.389 . S
C1546 C1545 1.389 . S
C1546 C1547 1.387 . S
C1547 H1532 0.930 . S
C1547 C1542 1.390 . S
C1547 C1546 1.387 . S
H1548 C1560 0.930 . S
H1549 C1562 0.930 . S
H1550 C1563 0.930 . S
H1551 C1567 0.959 . S
H1552 C1567 0.959 . S
H1553 C1567 0.961 1_545 S
H1554 C1568 0.960 1_545 S
H1555 C1568 0.961 . S
H1556 C1568 0.959 . S
H1557 C1571 0.929 . S
H1558 C1572 0.931 . S
H1559 C1574 0.930 . S
C1560 H1548 0.930 . S
C1560 C1561 1.399 . S
C1560 C1565 1.399 . S
C1561 C1560 1.399 . S
C1561 C1562 1.376 . S
C1562 H1549 0.930 . S
C1562 C1561 1.376 . S
C1562 C1563 1.388 . S
C1563 H1550 0.930 . S
C1563 C1562 1.388 . S
C1563 C1564 1.390 . S
C1564 C1563 1.390 . S
C1564 C1565 1.394 . S
C1564 C1570 1.465 1_545 S
C1565 C1560 1.399 . S
C1565 C1564 1.394 . S
C1565 C1566 1.516 1_545 S
C1566 C1565 1.516 1_565 S
C1566 C1567 1.502 . S
C1566 C1568 1.561 . S
C1566 C1569 1.526 . S
C1567 H1551 0.959 . S
C1567 H1552 0.959 . S
C1567 H1553 0.961 1_565 S
C1567 C1566 1.502 . S
C1568 H1554 0.960 1_565 S
C1568 H1555 0.961 . S
C1568 H1556 0.959 . S
C1568 C1566 1.561 . S
C1569 C1566 1.526 . S
C1569 C1570 1.396 . S
C1569 C1574 1.390 . S
C1570 C1564 1.465 1_565 S
C1570 C1569 1.396 . S
C1570 C1571 1.399 . S
C1571 H1557 0.929 . S
C1571 C1570 1.399 . S
C1571 C1572 1.385 . S
C1572 H1558 0.931 . S
C1572 C1571 1.385 . S
C1572 C1573 1.389 . S
C1573 C1572 1.389 . S
C1573 C1574 1.387 . S
C1574 H1559 0.930 . S
C1574 C1569 1.390 . S
C1574 C1573 1.387 . S
H1575 C1587 0.930 . S
H1576 C1589 0.930 . S
H1577 C1590 0.930 . S
H1578 C1594 0.959 . S
H1579 C1594 0.959 . S
H1580 C1594 0.961 1_655 S
H1581 C1595 0.960 1_655 S
H1582 C1595 0.961 . S
H1583 C1595 0.959 . S
H1584 C1598 0.929 . S
H1585 C1599 0.931 . S
H1586 C1601 0.930 . S
C1587 H1575 0.930 . S
C1587 C1588 1.399 . S
C1587 C1592 1.399 . S
C1588 C1587 1.399 . S
C1588 C1589 1.376 . S
C1589 H1576 0.930 . S
C1589 C1588 1.376 . S
C1589 C1590 1.388 . S
C1590 H1577 0.930 . S
C1590 C1589 1.388 . S
C1590 C1591 1.390 . S
C1591 C1590 1.390 . S
C1591 C1592 1.394 . S
C1591 C1597 1.465 1_655 S
C1592 C1587 1.399 . S
C1592 C1591 1.394 . S
C1592 C1593 1.516 1_655 S
C1593 C1592 1.516 1_455 S
C1593 C1594 1.502 . S
C1593 C1595 1.561 . S
C1593 C1596 1.526 . S
C1594 H1578 0.959 . S
C1594 H1579 0.959 . S
C1594 H1580 0.961 1_455 S
C1594 C1593 1.502 . S
C1595 H1581 0.960 1_455 S
C1595 H1582 0.961 . S
C1595 H1583 0.959 . S
C1595 C1593 1.561 . S
C1596 C1593 1.526 . S
C1596 C1597 1.396 . S
C1596 C1601 1.390 . S
C1597 C1591 1.465 1_455 S
C1597 C1596 1.396 . S
C1597 C1598 1.399 . S
C1598 H1584 0.929 . S
C1598 C1597 1.399 . S
C1598 C1599 1.385 . S
C1599 H1585 0.931 . S
C1599 C1598 1.385 . S
C1599 C1600 1.389 . S
C1600 C1599 1.389 . S
C1600 C1601 1.387 . S
C1601 H1586 0.930 . S
C1601 C1596 1.390 . S
C1601 C1600 1.387 . S
H1602 C1614 0.930 . S
H1603 C1616 0.930 . S
H1604 C1617 0.930 . S
H1605 C1621 0.959 . S
H1606 C1621 0.959 . S
H1607 C1621 0.961 . S
H1608 C1622 0.960 . S
H1609 C1622 0.961 . S
H1610 C1622 0.959 . S
H1611 C1625 0.929 . S
H1612 C1626 0.931 . S
H1613 C1628 0.930 . S
C1614 H1602 0.930 . S
C1614 C1615 1.399 . S
C1614 C1619 1.399 . S
C1615 C1614 1.399 . S
C1615 C1616 1.376 . S
C1616 H1603 0.930 . S
C1616 C1615 1.376 . S
C1616 C1617 1.388 . S
C1617 H1604 0.930 . S
C1617 C1616 1.388 . S
C1617 C1618 1.390 . S
C1618 C1617 1.390 . S
C1618 C1619 1.394 . S
C1618 C1624 1.465 . S
C1619 C1614 1.399 . S
C1619 C1618 1.394 . S
C1619 C1620 1.516 . S
C1620 C1619 1.516 . S
C1620 C1621 1.502 . S
C1620 C1622 1.561 . S
C1620 C1623 1.526 . S
C1621 H1605 0.959 . S
C1621 H1606 0.959 . S
C1621 H1607 0.961 . S
C1621 C1620 1.502 . S
C1622 H1608 0.960 . S
C1622 H1609 0.961 . S
C1622 H1610 0.959 . S
C1622 C1620 1.561 . S
C1623 C1620 1.526 . S
C1623 C1624 1.396 . S
C1623 C1628 1.390 . S
C1624 C1618 1.465 . S
C1624 C1623 1.396 . S
C1624 C1625 1.399 . S
C1625 H1611 0.929 . S
C1625 C1624 1.399 . S
C1625 C1626 1.385 . S
C1626 H1612 0.931 . S
C1626 C1625 1.385 . S
C1626 C1627 1.389 . S
C1627 C1626 1.389 . S
C1627 C1628 1.387 . S
C1628 H1613 0.930 . S
C1628 C1623 1.390 . S
C1628 C1627 1.387 . S
H1629 C1641 0.930 . S
H1630 C1643 0.930 . S
H1631 C1644 0.930 . S
H1632 C1648 0.959 . S
H1633 C1648 0.959 . S
H1634 C1648 0.961 . S
H1635 C1649 0.960 . S
H1636 C1649 0.961 . S
H1637 C1649 0.959 . S
H1638 C1652 0.929 . S
H1639 C1653 0.931 . S
H1640 C1655 0.930 . S
C1641 H1629 0.930 . S
C1641 C1642 1.399 . S
C1641 C1646 1.399 . S
C1642 C1641 1.399 . S
C1642 C1643 1.376 . S
C1643 H1630 0.930 . S
C1643 C1642 1.376 . S
C1643 C1644 1.388 . S
C1644 H1631 0.930 . S
C1644 C1643 1.388 . S
C1644 C1645 1.390 . S
C1645 C1644 1.390 . S
C1645 C1646 1.394 . S
C1645 C1651 1.465 . S
C1646 C1641 1.399 . S
C1646 C1645 1.394 . S
C1646 C1647 1.516 . S
C1647 C1646 1.516 . S
C1647 C1648 1.502 . S
C1647 C1649 1.561 . S
C1647 C1650 1.526 . S
C1648 H1632 0.959 . S
C1648 H1633 0.959 . S
C1648 H1634 0.961 . S
C1648 C1647 1.502 . S
C1649 H1635 0.960 . S
C1649 H1636 0.961 . S
C1649 H1637 0.959 . S
C1649 C1647 1.561 . S
C1650 C1647 1.526 . S
C1650 C1651 1.396 . S
C1650 C1655 1.390 . S
C1651 C1645 1.465 . S
C1651 C1650 1.396 . S
C1651 C1652 1.399 . S
C1652 H1638 0.929 . S
C1652 C1651 1.399 . S
C1652 C1653 1.385 . S
C1653 H1639 0.931 . S
C1653 C1652 1.385 . S
C1653 C1654 1.389 . S
C1654 C1653 1.389 . S
C1654 C1655 1.387 . S
C1655 H1640 0.930 . S
C1655 C1650 1.390 . S
C1655 C1654 1.387 . S
H1656 C1668 0.930 . S
H1657 C1670 0.930 . S
H1658 C1671 0.930 . S
H1659 C1675 0.959 . S
H1660 C1675 0.959 . S
H1661 C1675 0.961 . S
H1662 C1676 0.960 . S
H1663 C1676 0.961 . S
H1664 C1676 0.959 . S
H1665 C1679 0.929 . S
H1666 C1680 0.931 . S
H1667 C1682 0.930 . S
C1668 H1656 0.930 . S
C1668 C1669 1.399 . S
C1668 C1673 1.399 . S
C1669 C1668 1.399 . S
C1669 C1670 1.376 . S
C1670 H1657 0.930 . S
C1670 C1669 1.376 . S
C1670 C1671 1.388 . S
C1671 H1658 0.930 . S
C1671 C1670 1.388 . S
C1671 C1672 1.390 . S
C1672 C1671 1.390 . S
C1672 C1673 1.394 . S
C1672 C1678 1.465 . S
C1673 C1668 1.399 . S
C1673 C1672 1.394 . S
C1673 C1674 1.516 . S
C1674 C1673 1.516 . S
C1674 C1675 1.502 . S
C1674 C1676 1.561 . S
C1674 C1677 1.526 . S
C1675 H1659 0.959 . S
C1675 H1660 0.959 . S
C1675 H1661 0.961 . S
C1675 C1674 1.502 . S
C1676 H1662 0.960 . S
C1676 H1663 0.961 . S
C1676 H1664 0.959 . S
C1676 C1674 1.561 . S
C1677 C1674 1.526 . S
C1677 C1678 1.396 . S
C1677 C1682 1.390 . S
C1678 C1672 1.465 . S
C1678 C1677 1.396 . S
C1678 C1679 1.399 . S
C1679 H1665 0.929 . S
C1679 C1678 1.399 . S
C1679 C1680 1.385 . S
C1680 H1666 0.931 . S
C1680 C1679 1.385 . S
C1680 C1681 1.389 . S
C1681 C1680 1.389 . S
C1681 C1682 1.387 . S
C1682 H1667 0.930 . S
C1682 C1677 1.390 . S
C1682 C1681 1.387 . S
H1683 C1695 0.930 . S
H1684 C1697 0.930 . S
H1685 C1698 0.930 . S
H1686 C1702 0.959 1_554 S
H1687 C1702 0.959 . S
H1688 C1702 0.961 . S
H1689 C1703 0.953 1_556 S
H1690 C1703 0.946 1_556 S
H1691 C1703 0.971 . S
H1692 C1706 0.929 . S
H1693 C1707 0.931 . S
H1694 C1709 0.930 . S
C1695 H1683 0.930 . S
C1695 C1696 1.399 . S
C1695 C1700 1.399 . S
C1696 C1695 1.399 . S
C1696 C1697 1.376 . S
C1697 H1684 0.930 . S
C1697 C1696 1.376 . S
C1697 C1698 1.388 . S
C1698 H1685 0.930 . S
C1698 C1697 1.388 . S
C1698 C1699 1.390 . S
C1699 C1698 1.390 . S
C1699 C1700 1.394 . S
C1699 C1705 1.465 . S
C1700 C1695 1.399 . S
C1700 C1699 1.394 . S
C1700 C1701 1.516 . S
C1701 C1700 1.516 . S
C1701 C1702 1.502 1_554 S
C1701 C1703 1.571 . S
C1701 C1704 1.526 . S
C1702 H1686 0.959 1_556 S
C1702 H1687 0.959 . S
C1702 H1688 0.961 . S
C1702 C1701 1.502 1_556 S
C1703 H1689 0.953 1_554 S
C1703 H1690 0.946 1_554 S
C1703 H1691 0.971 . S
C1703 C1701 1.571 . S
C1704 C1701 1.526 . S
C1704 C1705 1.396 . S
C1704 C1709 1.390 . S
C1705 C1699 1.465 . S
C1705 C1704 1.396 . S
C1705 C1706 1.399 . S
C1706 H1692 0.929 . S
C1706 C1705 1.399 . S
C1706 C1707 1.385 . S
C1707 H1693 0.931 . S
C1707 C1706 1.385 . S
C1707 C1708 1.389 . S
C1708 C1707 1.389 . S
C1708 C1709 1.387 . S
C1709 H1694 0.930 . S
C1709 C1704 1.390 . S
C1709 C1708 1.387 . S
H1710 C1722 0.930 . S
H1711 C1724 0.930 . S
H1712 C1725 0.930 . S
H1713 C1729 0.959 . S
H1714 C1729 0.959 1_556 S
H1715 C1729 0.961 1_556 S
H1716 C1730 0.960 . S
H1717 C1730 0.961 . S
H1718 C1730 0.954 1_554 S
H1719 C1733 0.929 . S
H1720 C1734 0.931 . S
H1721 C1736 0.930 . S
C1722 H1710 0.930 . S
C1722 C1723 1.399 . S
C1722 C1727 1.399 . S
C1723 C1722 1.399 . S
C1723 C1724 1.376 . S
C1724 H1711 0.930 . S
C1724 C1723 1.376 . S
C1724 C1725 1.388 . S
C1725 H1712 0.930 . S
C1725 C1724 1.388 . S
C1725 C1726 1.390 . S
C1726 C1725 1.390 . S
C1726 C1727 1.394 . S
C1726 C1732 1.465 . S
C1727 C1722 1.399 . S
C1727 C1726 1.394 . S
C1727 C1728 1.516 . S
C1728 C1727 1.516 . S
C1728 C1729 1.502 . S
C1728 C1730 1.561 1_554 S
C1728 C1731 1.526 . S
C1729 H1713 0.959 . S
C1729 H1714 0.959 1_554 S
C1729 H1715 0.961 1_554 S
C1729 C1728 1.502 . S
C1730 H1716 0.960 . S
C1730 H1717 0.961 . S
C1730 H1718 0.954 1_556 S
C1730 C1728 1.561 1_556 S
C1731 C1728 1.526 . S
C1731 C1732 1.396 . S
C1731 C1736 1.390 . S
C1732 C1726 1.465 . S
C1732 C1731 1.396 . S
C1732 C1733 1.399 . S
C1733 H1719 0.929 . S
C1733 C1732 1.399 . S
C1733 C1734 1.385 . S
C1734 H1720 0.931 . S
C1734 C1733 1.385 . S
C1734 C1735 1.389 . S
C1735 C1734 1.389 . S
C1735 C1736 1.387 . S
C1736 H1721 0.930 . S
C1736 C1731 1.390 . S
C1736 C1735 1.387 . S
H1737 C1749 0.930 . S
H1738 C1751 0.930 . S
H1739 C1752 0.930 . S
H1740 C1756 0.959 . S
H1741 C1756 0.959 . S
H1742 C1756 0.961 . S
H1743 C1757 0.960 . S
H1744 C1757 0.961 . S
H1745 C1757 0.959 . S
H1746 C1760 0.929 . S
H1747 C1761 0.931 . S
H1748 C1763 0.930 . S
C1749 H1737 0.930 . S
C1749 C1750 1.399 . S
C1749 C1754 1.399 . S
C1750 C1749 1.399 . S
C1750 C1751 1.376 . S
C1751 H1738 0.930 . S
C1751 C1750 1.376 . S
C1751 C1752 1.388 . S
C1752 H1739 0.930 . S
C1752 C1751 1.388 . S
C1752 C1753 1.390 . S
C1753 C1752 1.390 . S
C1753 C1754 1.394 . S
C1753 C1759 1.465 . S
C1754 C1749 1.399 . S
C1754 C1753 1.394 . S
C1754 C1755 1.516 . S
C1755 C1754 1.516 . S
C1755 C1756 1.502 . S
C1755 C1757 1.561 1_554 S
C1755 C1758 1.526 . S
C1756 H1740 0.959 . S
C1756 H1741 0.959 . S
C1756 H1742 0.961 . S
C1756 C1755 1.502 . S
C1757 H1743 0.960 . S
C1757 H1744 0.961 . S
C1757 H1745 0.959 . S
C1757 C1755 1.561 1_556 S
C1758 C1755 1.526 . S
C1758 C1759 1.396 . S
C1758 C1763 1.390 . S
C1759 C1753 1.465 . S
C1759 C1758 1.396 . S
C1759 C1760 1.399 . S
C1760 H1746 0.929 . S
C1760 C1759 1.399 . S
C1760 C1761 1.385 . S
C1761 H1747 0.931 . S
C1761 C1760 1.385 . S
C1761 C1762 1.389 . S
C1762 C1761 1.389 . S
C1762 C1763 1.387 . S
C1763 H1748 0.930 . S
C1763 C1758 1.390 . S
C1763 C1762 1.387 . S
H1764 C1776 0.930 . S
H1765 C1778 0.930 1_554 S
H1766 C1779 0.930 1_554 S
H1767 C1783 0.959 . S
H1768 C1783 0.959 . S
H1769 C1783 0.961 . S
H1770 C1784 0.960 . S
H1771 C1784 0.961 . S
H1772 C1784 0.959 . S
H1773 C1787 0.923 1_554 S
H1774 C1788 0.931 . S
H1775 C1790 0.930 . S
C1776 H1764 0.930 . S
C1776 C1777 1.399 . S
C1776 C1781 1.399 . S
C1777 C1776 1.399 . S
C1777 C1778 1.376 . S
C1778 H1765 0.930 1_556 S
C1778 C1777 1.376 . S
C1778 C1779 1.388 . S
C1779 H1766 0.930 1_556 S
C1779 C1778 1.388 . S
C1779 C1780 1.390 . S
C1780 C1779 1.390 . S
C1780 C1781 1.394 . S
C1780 C1786 1.465 . S
C1781 C1776 1.399 . S
C1781 C1780 1.394 . S
C1781 C1782 1.516 . S
C1782 C1781 1.516 . S
C1782 C1783 1.502 . S
C1782 C1784 1.561 . S
C1782 C1785 1.526 . S
C1783 H1767 0.959 . S
C1783 H1768 0.959 . S
C1783 H1769 0.961 . S
C1783 C1782 1.502 . S
C1784 H1770 0.960 . S
C1784 H1771 0.961 . S
C1784 H1772 0.959 . S
C1784 C1782 1.561 . S
C1785 C1782 1.526 . S
C1785 C1786 1.396 . S
C1785 C1790 1.390 . S
C1786 C1780 1.465 . S
C1786 C1785 1.396 . S
C1786 C1787 1.399 . S
C1787 H1773 0.923 1_556 S
C1787 C1786 1.399 . S
C1787 C1788 1.385 . S
C1788 H1774 0.931 . S
C1788 C1787 1.385 . S
C1788 C1789 1.389 . S
C1789 C1788 1.389 . S
C1789 C1790 1.387 . S
C1790 H1775 0.930 . S
C1790 C1785 1.390 . S
C1790 C1789 1.387 . S
H1791 C1803 0.930 . S
H1792 C1805 0.930 . S
H1793 C1806 0.930 . S
H1794 C1810 0.959 . S
H1795 C1810 0.959 . S
H1796 C1810 0.961 . S
H1797 C1811 0.960 . S
H1798 C1811 0.961 . S
H1799 C1811 0.959 . S
H1800 C1814 0.929 . S
H1801 C1815 0.931 . S
H1802 C1817 0.930 . S
C1803 H1791 0.930 . S
C1803 C1804 1.399 . S
C1803 C1808 1.399 . S
C1804 C1803 1.399 . S
C1804 C1805 1.376 . S
C1805 H1792 0.930 . S
C1805 C1804 1.376 . S
C1805 C1806 1.388 . S
C1806 H1793 0.930 . S
C1806 C1805 1.388 . S
C1806 C1807 1.390 . S
C1807 C1806 1.390 . S
C1807 C1808 1.394 . S
C1807 C1813 1.465 . S
C1808 C1803 1.399 . S
C1808 C1807 1.394 . S
C1808 C1809 1.516 . S
C1809 C1808 1.516 . S
C1809 C1810 1.502 . S
C1809 C1811 1.561 1_556 S
C1809 C1812 1.526 . S
C1810 H1794 0.959 . S
C1810 H1795 0.959 . S
C1810 H1796 0.961 . S
C1810 C1809 1.502 . S
C1811 H1797 0.960 . S
C1811 H1798 0.961 . S
C1811 H1799 0.959 . S
C1811 C1809 1.561 1_554 S
C1812 C1809 1.526 . S
C1812 C1813 1.396 . S
C1812 C1817 1.390 . S
C1813 C1807 1.465 . S
C1813 C1812 1.396 . S
C1813 C1814 1.399 . S
C1814 H1800 0.929 . S
C1814 C1813 1.399 . S
C1814 C1815 1.385 . S
C1815 H1801 0.931 . S
C1815 C1814 1.385 . S
C1815 C1816 1.389 . S
C1816 C1815 1.389 . S
C1816 C1817 1.387 . S
C1817 H1802 0.930 . S
C1817 C1812 1.390 . S
C1817 C1816 1.387 . S
H1818 C1830 0.930 . S
H1819 C1832 0.930 . S
H1820 C1833 0.930 . S
H1821 C1837 0.959 . S
H1822 C1837 0.959 . S
H1823 C1837 0.961 . S
H1824 C1838 0.960 . S
H1825 C1838 0.961 . S
H1826 C1838 0.959 . S
H1827 C1841 0.929 . S
H1828 C1842 0.931 . S
H1829 C1844 0.930 . S
C1830 H1818 0.930 . S
C1830 C1831 1.399 . S
C1830 C1835 1.399 . S
C1831 C1830 1.399 . S
C1831 C1832 1.376 . S
C1832 H1819 0.930 . S
C1832 C1831 1.376 . S
C1832 C1833 1.388 . S
C1833 H1820 0.930 . S
C1833 C1832 1.388 . S
C1833 C1834 1.390 . S
C1834 C1833 1.390 . S
C1834 C1835 1.394 . S
C1834 C1840 1.465 . S
C1835 C1830 1.399 . S
C1835 C1834 1.394 . S
C1835 C1836 1.516 . S
C1836 C1835 1.516 . S
C1836 C1837 1.502 . S
C1836 C1838 1.561 . S
C1836 C1839 1.526 . S
C1837 H1821 0.959 . S
C1837 H1822 0.959 . S
C1837 H1823 0.961 . S
C1837 C1836 1.502 . S
C1838 H1824 0.960 . S
C1838 H1825 0.961 . S
C1838 H1826 0.959 . S
C1838 C1836 1.561 . S
C1839 C1836 1.526 . S
C1839 C1840 1.396 . S
C1839 C1844 1.390 . S
C1840 C1834 1.465 . S
C1840 C1839 1.396 . S
C1840 C1841 1.399 . S
C1841 H1827 0.929 . S
C1841 C1840 1.399 . S
C1841 C1842 1.385 . S
C1842 H1828 0.931 . S
C1842 C1841 1.385 . S
C1842 C1843 1.389 . S
C1843 C1842 1.389 . S
C1843 C1844 1.387 . S
C1844 H1829 0.930 . S
C1844 C1839 1.390 . S
C1844 C1843 1.387 . S
H1845 C1857 0.930 . S
H1846 C1859 0.930 . S
H1847 C1860 0.930 . S
H1848 C1864 0.959 . S
H1849 C1864 0.959 . S
H1850 C1864 0.961 . S
H1851 C1865 0.960 . S
H1852 C1865 0.961 . S
H1853 C1865 0.959 . S
H1854 C1868 0.929 . S
H1855 C1869 0.931 . S
H1856 C1871 0.930 . S
C1857 H1845 0.930 . S
C1857 C1858 1.399 . S
C1857 C1862 1.399 . S
C1858 C1857 1.399 . S
C1858 C1859 1.376 . S
C1859 H1846 0.930 . S
C1859 C1858 1.376 . S
C1859 C1860 1.388 . S
C1860 H1847 0.930 . S
C1860 C1859 1.388 . S
C1860 C1861 1.390 . S
C1861 C1860 1.390 . S
C1861 C1862 1.394 . S
C1861 C1867 1.465 . S
C1862 C1857 1.399 . S
C1862 C1861 1.394 . S
C1862 C1863 1.516 . S
C1863 C1862 1.516 . S
C1863 C1864 1.502 . S
C1863 C1865 1.561 . S
C1863 C1866 1.526 . S
C1864 H1848 0.959 . S
C1864 H1849 0.959 . S
C1864 H1850 0.961 . S
C1864 C1863 1.502 . S
C1865 H1851 0.960 . S
C1865 H1852 0.961 . S
C1865 H1853 0.959 . S
C1865 C1863 1.561 . S
C1866 C1863 1.526 . S
C1866 C1867 1.396 . S
C1866 C1871 1.390 . S
C1867 C1861 1.465 . S
C1867 C1866 1.396 . S
C1867 C1868 1.399 . S
C1868 H1854 0.929 . S
C1868 C1867 1.399 . S
C1868 C1869 1.385 . S
C1869 H1855 0.931 . S
C1869 C1868 1.385 . S
C1869 C1870 1.389 . S
C1870 C1869 1.389 . S
C1870 C1871 1.387 . S
C1871 H1856 0.930 . S
C1871 C1866 1.390 . S
C1871 C1870 1.387 . S
H1872 C1884 0.930 . S
H1873 C1886 0.930 . S
H1874 C1887 0.930 . S
H1875 C1891 0.959 . S
H1876 C1891 0.959 . S
H1877 C1891 0.961 . S
H1878 C1892 0.960 . S
H1879 C1892 0.961 . S
H1880 C1892 0.959 . S
H1881 C1895 0.929 . S
H1882 C1896 0.931 . S
H1883 C1898 0.930 . S
C1884 H1872 0.930 . S
C1884 C1885 1.399 . S
C1884 C1889 1.399 . S
C1885 C1884 1.399 . S
C1885 C1886 1.376 . S
C1886 H1873 0.930 . S
C1886 C1885 1.376 . S
C1886 C1887 1.388 . S
C1887 H1874 0.930 . S
C1887 C1886 1.388 . S
C1887 C1888 1.390 . S
C1888 C1887 1.390 . S
C1888 C1889 1.394 . S
C1888 C1894 1.465 . S
C1889 C1884 1.399 . S
C1889 C1888 1.394 . S
C1889 C1890 1.516 . S
C1890 C1889 1.516 . S
C1890 C1891 1.502 . S
C1890 C1892 1.561 . S
C1890 C1893 1.526 . S
C1891 H1875 0.959 . S
C1891 H1876 0.959 . S
C1891 H1877 0.961 . S
C1891 C1890 1.502 . S
C1892 H1878 0.960 . S
C1892 H1879 0.961 . S
C1892 H1880 0.959 . S
C1892 C1890 1.561 . S
C1893 C1890 1.526 . S
C1893 C1894 1.396 . S
C1893 C1898 1.390 . S
C1894 C1888 1.465 . S
C1894 C1893 1.396 . S
C1894 C1895 1.399 . S
C1895 H1881 0.929 . S
C1895 C1894 1.399 . S
C1895 C1896 1.385 . S
C1896 H1882 0.931 . S
C1896 C1895 1.385 . S
C1896 C1897 1.389 . S
C1897 C1896 1.389 . S
C1897 C1898 1.387 . S
C1898 H1883 0.930 . S
C1898 C1893 1.390 . S
C1898 C1897 1.387 . S
H1899 C1911 0.930 . S
H1900 C1913 0.930 . S
H1901 C1914 0.930 . S
H1902 C1918 0.959 . S
H1903 C1918 0.959 . S
H1904 C1918 0.961 . S
H1905 C1919 0.960 . S
H1906 C1919 0.961 . S
H1907 C1919 0.959 . S
H1908 C1922 0.929 . S
H1909 C1923 0.931 . S
H1910 C1925 0.930 . S
C1911 H1899 0.930 . S
C1911 C1912 1.399 . S
C1911 C1916 1.399 . S
C1912 C1911 1.399 . S
C1912 C1913 1.376 . S
C1913 H1900 0.930 . S
C1913 C1912 1.376 . S
C1913 C1914 1.388 . S
C1914 H1901 0.930 . S
C1914 C1913 1.388 . S
C1914 C1915 1.390 . S
C1915 C1914 1.390 . S
C1915 C1916 1.394 . S
C1915 C1921 1.465 . S
C1916 C1911 1.399 . S
C1916 C1915 1.394 . S
C1916 C1917 1.516 . S
C1917 C1916 1.516 . S
C1917 C1918 1.502 . S
C1917 C1919 1.561 . S
C1917 C1920 1.526 . S
C1918 H1902 0.959 . S
C1918 H1903 0.959 . S
C1918 H1904 0.961 . S
C1918 C1917 1.502 . S
C1919 H1905 0.960 . S
C1919 H1906 0.961 . S
C1919 H1907 0.959 . S
C1919 C1917 1.561 . S
C1920 C1917 1.526 . S
C1920 C1921 1.396 . S
C1920 C1925 1.390 . S
C1921 C1915 1.465 . S
C1921 C1920 1.396 . S
C1921 C1922 1.399 . S
C1922 H1908 0.929 . S
C1922 C1921 1.399 . S
C1922 C1923 1.385 . S
C1923 H1909 0.931 . S
C1923 C1922 1.385 . S
C1923 C1924 1.389 . S
C1924 C1923 1.389 . S
C1924 C1925 1.387 . S
C1925 H1910 0.930 . S
C1925 C1920 1.390 . S
C1925 C1924 1.387 . S
H1926 C1938 0.930 . S
H1927 C1940 0.930 . S
H1928 C1941 0.930 . S
H1929 C1945 0.959 . S
H1930 C1945 0.959 . S
H1931 C1945 0.961 . S
H1932 C1946 0.960 . S
H1933 C1946 0.961 . S
H1934 C1946 0.959 . S
H1935 C1949 0.929 . S
H1936 C1950 0.931 . S
H1937 C1952 0.930 . S
C1938 H1926 0.930 . S
C1938 C1939 1.399 . S
C1938 C1943 1.399 . S
C1939 C1938 1.399 . S
C1939 C1940 1.376 . S
C1940 H1927 0.930 . S
C1940 C1939 1.376 . S
C1940 C1941 1.388 . S
C1941 H1928 0.930 . S
C1941 C1940 1.388 . S
C1941 C1942 1.390 . S
C1942 C1941 1.390 . S
C1942 C1943 1.394 . S
C1942 C1948 1.465 . S
C1943 C1938 1.399 . S
C1943 C1942 1.394 . S
C1943 C1944 1.516 . S
C1944 C1943 1.516 . S
C1944 C1945 1.502 . S
C1944 C1946 1.561 . S
C1944 C1947 1.526 . S
C1945 H1929 0.959 . S
C1945 H1930 0.959 . S
C1945 H1931 0.961 . S
C1945 C1944 1.502 . S
C1946 H1932 0.960 . S
C1946 H1933 0.961 . S
C1946 H1934 0.959 . S
C1946 C1944 1.561 . S
C1947 C1944 1.526 . S
C1947 C1948 1.396 . S
C1947 C1952 1.390 . S
C1948 C1942 1.465 . S
C1948 C1947 1.396 . S
C1948 C1949 1.399 . S
C1949 H1935 0.929 . S
C1949 C1948 1.399 . S
C1949 C1950 1.385 . S
C1950 H1936 0.931 . S
C1950 C1949 1.385 . S
C1950 C1951 1.389 . S
C1951 C1950 1.389 . S
C1951 C1952 1.387 . S
C1952 H1937 0.930 . S
C1952 C1947 1.390 . S
C1952 C1951 1.387 . S
H1953 C1965 0.930 . S
H1954 C1967 0.930 . S
H1955 C1968 0.930 . S
H1956 C1972 0.959 . S
H1957 C1972 0.959 . S
H1958 C1972 0.961 . S
H1959 C1973 0.960 . S
H1960 C1973 0.961 . S
H1961 C1973 0.959 . S
H1962 C1976 0.929 . S
H1963 C1977 0.931 . S
H1964 C1979 0.930 . S
C1965 H1953 0.930 . S
C1965 C1966 1.399 . S
C1965 C1970 1.399 . S
C1966 C1965 1.399 . S
C1966 C1967 1.376 . S
C1967 H1954 0.930 . S
C1967 C1966 1.376 . S
C1967 C1968 1.388 . S
C1968 H1955 0.930 . S
C1968 C1967 1.388 . S
C1968 C1969 1.390 . S
C1969 C1968 1.390 . S
C1969 C1970 1.394 . S
C1969 C1975 1.465 . S
C1970 C1965 1.399 . S
C1970 C1969 1.394 . S
C1970 C1971 1.516 . S
C1971 C1970 1.516 . S
C1971 C1972 1.502 . S
C1971 C1973 1.561 . S
C1971 C1974 1.526 . S
C1972 H1956 0.959 . S
C1972 H1957 0.959 . S
C1972 H1958 0.961 . S
C1972 C1971 1.502 . S
C1973 H1959 0.960 . S
C1973 H1960 0.961 . S
C1973 H1961 0.959 . S
C1973 C1971 1.561 . S
C1974 C1971 1.526 . S
C1974 C1975 1.396 . S
C1974 C1979 1.390 . S
C1975 C1969 1.465 . S
C1975 C1974 1.396 . S
C1975 C1976 1.399 . S
C1976 H1962 0.929 . S
C1976 C1975 1.399 . S
C1976 C1977 1.385 . S
C1977 H1963 0.931 . S
C1977 C1976 1.385 . S
C1977 C1978 1.389 . S
C1978 C1977 1.389 . S
C1978 C1979 1.387 . S
C1979 H1964 0.930 . S
C1979 C1974 1.390 . S
C1979 C1978 1.387 . S
H1980 C1992 0.930 . S
H1981 C1994 0.930 . S
H1982 C1995 0.930 . S
H1983 C1999 0.959 . S
H1984 C1999 0.959 . S
H1985 C1999 0.961 . S
H1986 C2000 0.960 . S
H1987 C2000 0.961 . S
H1988 C2000 0.959 . S
H1989 C2003 0.929 . S
H1990 C2004 0.931 . S
H1991 C2006 0.930 . S
C1992 H1980 0.930 . S
C1992 C1993 1.399 . S
C1992 C1997 1.399 . S
C1993 C1992 1.399 . S
C1993 C1994 1.376 . S
C1994 H1981 0.930 . S
C1994 C1993 1.376 . S
C1994 C1995 1.388 . S
C1995 H1982 0.930 . S
C1995 C1994 1.388 . S
C1995 C1996 1.390 . S
C1996 C1995 1.390 . S
C1996 C1997 1.394 . S
C1996 C2002 1.465 . S
C1997 C1992 1.399 . S
C1997 C1996 1.394 . S
C1997 C1998 1.516 . S
C1998 C1997 1.516 . S
C1998 C1999 1.502 . S
C1998 C2000 1.561 . S
C1998 C2001 1.526 . S
C1999 H1983 0.959 . S
C1999 H1984 0.959 . S
C1999 H1985 0.961 . S
C1999 C1998 1.502 . S
C2000 H1986 0.960 . S
C2000 H1987 0.961 . S
C2000 H1988 0.959 . S
C2000 C1998 1.561 . S
C2001 C1998 1.526 . S
C2001 C2002 1.396 . S
C2001 C2006 1.390 . S
C2002 C1996 1.465 . S
C2002 C2001 1.396 . S
C2002 C2003 1.399 . S
C2003 H1989 0.929 . S
C2003 C2002 1.399 . S
C2003 C2004 1.385 . S
C2004 H1990 0.931 . S
C2004 C2003 1.385 . S
C2004 C2005 1.389 . S
C2005 C2004 1.389 . S
C2005 C2006 1.387 . S
C2006 H1991 0.930 . S
C2006 C2001 1.390 . S
C2006 C2005 1.387 . S
H2007 C2019 0.930 . S
H2008 C2021 0.930 . S
H2009 C2022 0.930 . S
H2010 C2026 0.959 . S
H2011 C2026 0.959 . S
H2012 C2026 0.961 . S
H2013 C2027 0.960 . S
H2014 C2027 0.961 . S
H2015 C2027 0.959 . S
H2016 C2030 0.929 . S
H2017 C2031 0.931 . S
H2018 C2033 0.930 . S
C2019 H2007 0.930 . S
C2019 C2020 1.399 . S
C2019 C2024 1.399 . S
C2020 C2019 1.399 . S
C2020 C2021 1.376 . S
C2021 H2008 0.930 . S
C2021 C2020 1.376 . S
C2021 C2022 1.388 . S
C2022 H2009 0.930 . S
C2022 C2021 1.388 . S
C2022 C2023 1.390 . S
C2023 C2022 1.390 . S
C2023 C2024 1.394 . S
C2023 C2029 1.465 . S
C2024 C2019 1.399 . S
C2024 C2023 1.394 . S
C2024 C2025 1.516 . S
C2025 C2024 1.516 . S
C2025 C2026 1.502 . S
C2025 C2027 1.561 . S
C2025 C2028 1.526 . S
C2026 H2010 0.959 . S
C2026 H2011 0.959 . S
C2026 H2012 0.961 . S
C2026 C2025 1.502 . S
C2027 H2013 0.960 . S
C2027 H2014 0.961 . S
C2027 H2015 0.959 . S
C2027 C2025 1.561 . S
C2028 C2025 1.526 . S
C2028 C2029 1.396 . S
C2028 C2033 1.390 . S
C2029 C2023 1.465 . S
C2029 C2028 1.396 . S
C2029 C2030 1.399 . S
C2030 H2016 0.929 . S
C2030 C2029 1.399 . S
C2030 C2031 1.385 . S
C2031 H2017 0.931 . S
C2031 C2030 1.385 . S
C2031 C2032 1.389 . S
C2032 C2031 1.389 . S
C2032 C2033 1.387 . S
C2033 H2018 0.930 . S
C2033 C2028 1.390 . S
C2033 C2032 1.387 . S
H2034 C2046 0.930 . S
H2035 C2048 0.930 . S
H2036 C2049 0.930 . S
H2037 C2053 0.959 . S
H2038 C2053 0.959 . S
H2039 C2053 0.961 . S
H2040 C2054 0.960 . S
H2041 C2054 0.961 . S
H2042 C2054 0.959 . S
H2043 C2057 0.929 . S
H2044 C2058 0.931 . S
H2045 C2060 0.930 . S
C2046 H2034 0.930 . S
C2046 C2047 1.399 . S
C2046 C2051 1.399 . S
C2047 C2046 1.399 . S
C2047 C2048 1.376 . S
C2048 H2035 0.930 . S
C2048 C2047 1.376 . S
C2048 C2049 1.388 . S
C2049 H2036 0.930 . S
C2049 C2048 1.388 . S
C2049 C2050 1.390 . S
C2050 C2049 1.390 . S
C2050 C2051 1.394 . S
C2050 C2056 1.465 . S
C2051 C2046 1.399 . S
C2051 C2050 1.394 . S
C2051 C2052 1.516 . S
C2052 C2051 1.516 . S
C2052 C2053 1.502 . S
C2052 C2054 1.561 . S
C2052 C2055 1.526 . S
C2053 H2037 0.959 . S
C2053 H2038 0.959 . S
C2053 H2039 0.961 . S
C2053 C2052 1.502 . S
C2054 H2040 0.960 . S
C2054 H2041 0.961 . S
C2054 H2042 0.959 . S
C2054 C2052 1.561 . S
C2055 C2052 1.526 . S
C2055 C2056 1.396 . S
C2055 C2060 1.390 . S
C2056 C2050 1.465 . S
C2056 C2055 1.396 . S
C2056 C2057 1.399 . S
C2057 H2043 0.929 . S
C2057 C2056 1.399 . S
C2057 C2058 1.385 . S
C2058 H2044 0.931 . S
C2058 C2057 1.385 . S
C2058 C2059 1.389 . S
C2059 C2058 1.389 . S
C2059 C2060 1.387 . S
C2060 H2045 0.930 . S
C2060 C2055 1.390 . S
C2060 C2059 1.387 . S
H2061 C2073 0.930 . S
H2062 C2075 0.930 . S
H2063 C2076 0.930 . S
H2064 C2080 0.959 . S
H2065 C2080 0.959 . S
H2066 C2080 0.961 . S
H2067 C2081 0.960 . S
H2068 C2081 0.961 . S
H2069 C2081 0.959 . S
H2070 C2084 0.929 . S
H2071 C2085 0.931 . S
H2072 C2087 0.930 . S
C2073 H2061 0.930 . S
C2073 C2074 1.399 . S
C2073 C2078 1.399 . S
C2074 C2073 1.399 . S
C2074 C2075 1.376 . S
C2075 H2062 0.930 . S
C2075 C2074 1.376 . S
C2075 C2076 1.388 . S
C2076 H2063 0.930 . S
C2076 C2075 1.388 . S
C2076 C2077 1.390 . S
C2077 C2076 1.390 . S
C2077 C2078 1.394 . S
C2077 C2083 1.465 . S
C2078 C2073 1.399 . S
C2078 C2077 1.394 . S
C2078 C2079 1.516 . S
C2079 C2078 1.516 . S
C2079 C2080 1.502 . S
C2079 C2081 1.561 . S
C2079 C2082 1.526 . S
C2080 H2064 0.959 . S
C2080 H2065 0.959 . S
C2080 H2066 0.961 . S
C2080 C2079 1.502 . S
C2081 H2067 0.960 . S
C2081 H2068 0.961 . S
C2081 H2069 0.959 . S
C2081 C2079 1.561 . S
C2082 C2079 1.526 . S
C2082 C2083 1.396 . S
C2082 C2087 1.390 . S
C2083 C2077 1.465 . S
C2083 C2082 1.396 . S
C2083 C2084 1.399 . S
C2084 H2070 0.929 . S
C2084 C2083 1.399 . S
C2084 C2085 1.385 . S
C2085 H2071 0.931 . S
C2085 C2084 1.385 . S
C2085 C2086 1.389 . S
C2086 C2085 1.389 . S
C2086 C2087 1.387 . S
C2087 H2072 0.930 . S
C2087 C2082 1.390 . S
C2087 C2086 1.387 . S
H2088 C2100 0.930 . S
H2089 C2102 0.930 . S
H2090 C2103 0.930 . S
H2091 C2107 0.959 . S
H2092 C2107 0.959 . S
H2093 C2107 0.961 . S
H2094 C2108 0.960 . S
H2095 C2108 0.961 . S
H2096 C2108 0.959 . S
H2097 C2111 0.929 . S
H2098 C2112 0.931 . S
H2099 C2114 0.930 . S
C2100 H2088 0.930 . S
C2100 C2101 1.399 . S
C2100 C2105 1.399 . S
C2101 C2100 1.399 . S
C2101 C2102 1.376 . S
C2102 H2089 0.930 . S
C2102 C2101 1.376 . S
C2102 C2103 1.388 . S
C2103 H2090 0.930 . S
C2103 C2102 1.388 . S
C2103 C2104 1.390 . S
C2104 C2103 1.390 . S
C2104 C2105 1.394 . S
C2104 C2110 1.465 . S
C2105 C2100 1.399 . S
C2105 C2104 1.394 . S
C2105 C2106 1.516 . S
C2106 C2105 1.516 . S
C2106 C2107 1.502 . S
C2106 C2108 1.561 . S
C2106 C2109 1.526 . S
C2107 H2091 0.959 . S
C2107 H2092 0.959 . S
C2107 H2093 0.961 . S
C2107 C2106 1.502 . S
C2108 H2094 0.960 . S
C2108 H2095 0.961 . S
C2108 H2096 0.959 . S
C2108 C2106 1.561 . S
C2109 C2106 1.526 . S
C2109 C2110 1.396 . S
C2109 C2114 1.390 . S
C2110 C2104 1.465 . S
C2110 C2109 1.396 . S
C2110 C2111 1.399 . S
C2111 H2097 0.929 . S
C2111 C2110 1.399 . S
C2111 C2112 1.385 . S
C2112 H2098 0.931 . S
C2112 C2111 1.385 . S
C2112 C2113 1.389 . S
C2113 C2112 1.389 . S
C2113 C2114 1.387 . S
C2114 H2099 0.930 . S
C2114 C2109 1.390 . S
C2114 C2113 1.387 . S
H2115 C2127 0.930 . S
H2116 C2129 0.930 . S
H2117 C2130 0.930 . S
H2118 C2134 0.959 . S
H2119 C2134 0.959 . S
H2120 C2134 0.961 . S
H2121 C2135 0.960 . S
H2122 C2135 0.961 . S
H2123 C2135 0.959 . S
H2124 C2138 0.929 . S
H2125 C2139 0.931 . S
H2126 C2141 0.930 . S
C2127 H2115 0.930 . S
C2127 C2128 1.399 . S
C2127 C2132 1.399 . S
C2128 C2127 1.399 . S
C2128 C2129 1.376 . S
C2129 H2116 0.930 . S
C2129 C2128 1.376 . S
C2129 C2130 1.388 . S
C2130 H2117 0.930 . S
C2130 C2129 1.388 . S
C2130 C2131 1.390 . S
C2131 C2130 1.390 . S
C2131 C2132 1.394 . S
C2131 C2137 1.465 . S
C2132 C2127 1.399 . S
C2132 C2131 1.394 . S
C2132 C2133 1.516 . S
C2133 C2132 1.516 . S
C2133 C2134 1.502 . S
C2133 C2135 1.561 . S
C2133 C2136 1.526 . S
C2134 H2118 0.959 . S
C2134 H2119 0.959 . S
C2134 H2120 0.961 . S
C2134 C2133 1.502 . S
C2135 H2121 0.960 . S
C2135 H2122 0.961 . S
C2135 H2123 0.959 . S
C2135 C2133 1.561 . S
C2136 C2133 1.526 . S
C2136 C2137 1.396 . S
C2136 C2141 1.390 . S
C2137 C2131 1.465 . S
C2137 C2136 1.396 . S
C2137 C2138 1.399 . S
C2138 H2124 0.929 . S
C2138 C2137 1.399 . S
C2138 C2139 1.385 . S
C2139 H2125 0.931 . S
C2139 C2138 1.385 . S
C2139 C2140 1.389 . S
C2140 C2139 1.389 . S
C2140 C2141 1.387 . S
C2141 H2126 0.930 . S
C2141 C2136 1.390 . S
C2141 C2140 1.387 . S
H2142 C2154 0.930 . S
H2143 C2156 0.930 . S
H2144 C2157 0.930 . S
H2145 C2161 0.959 . S
H2146 C2161 0.959 . S
H2147 C2161 0.961 . S
H2148 C2162 0.960 . S
H2149 C2162 0.961 . S
H2150 C2162 0.959 . S
H2151 C2165 0.929 . S
H2152 C2166 0.931 . S
H2153 C2168 0.930 . S
C2154 H2142 0.930 . S
C2154 C2155 1.399 . S
C2154 C2159 1.399 . S
C2155 C2154 1.399 . S
C2155 C2156 1.376 . S
C2156 H2143 0.930 . S
C2156 C2155 1.376 . S
C2156 C2157 1.388 . S
C2157 H2144 0.930 . S
C2157 C2156 1.388 . S
C2157 C2158 1.390 . S
C2158 C2157 1.390 . S
C2158 C2159 1.394 . S
C2158 C2164 1.465 . S
C2159 C2154 1.399 . S
C2159 C2158 1.394 . S
C2159 C2160 1.516 . S
C2160 C2159 1.516 . S
C2160 C2161 1.502 . S
C2160 C2162 1.561 . S
C2160 C2163 1.526 . S
C2161 H2145 0.959 . S
C2161 H2146 0.959 . S
C2161 H2147 0.961 . S
C2161 C2160 1.502 . S
C2162 H2148 0.960 . S
C2162 H2149 0.961 . S
C2162 H2150 0.959 . S
C2162 C2160 1.561 . S
C2163 C2160 1.526 . S
C2163 C2164 1.396 . S
C2163 C2168 1.390 . S
C2164 C2158 1.465 . S
C2164 C2163 1.396 . S
C2164 C2165 1.399 . S
C2165 H2151 0.929 . S
C2165 C2164 1.399 . S
C2165 C2166 1.385 . S
C2166 H2152 0.931 . S
C2166 C2165 1.385 . S
C2166 C2167 1.389 . S
C2167 C2166 1.389 . S
C2167 C2168 1.387 . S
C2168 H2153 0.930 . S
C2168 C2163 1.390 . S
C2168 C2167 1.387 . S
H2169 C2181 0.930 . S
H2170 C2183 0.930 . S
H2171 C2184 0.930 . S
H2172 C2188 0.959 . S
H2173 C2188 0.959 . S
H2174 C2188 0.961 . S
H2175 C2189 0.960 . S
H2176 C2189 0.961 . S
H2177 C2189 0.959 . S
H2178 C2192 0.929 . S
H2179 C2193 0.931 . S
H2180 C2195 0.930 . S
C2181 H2169 0.930 . S
C2181 C2182 1.399 . S
C2181 C2186 1.399 . S
C2182 C2181 1.399 . S
C2182 C2183 1.376 . S
C2183 H2170 0.930 . S
C2183 C2182 1.376 . S
C2183 C2184 1.388 . S
C2184 H2171 0.930 . S
C2184 C2183 1.388 . S
C2184 C2185 1.390 . S
C2185 C2184 1.390 . S
C2185 C2186 1.394 . S
C2185 C2191 1.465 . S
C2186 C2181 1.399 . S
C2186 C2185 1.394 . S
C2186 C2187 1.516 . S
C2187 C2186 1.516 . S
C2187 C2188 1.502 . S
C2187 C2189 1.561 . S
C2187 C2190 1.526 . S
C2188 H2172 0.959 . S
C2188 H2173 0.959 . S
C2188 H2174 0.961 . S
C2188 C2187 1.502 . S
C2189 H2175 0.960 . S
C2189 H2176 0.961 . S
C2189 H2177 0.959 . S
C2189 C2187 1.561 . S
C2190 C2187 1.526 . S
C2190 C2191 1.396 . S
C2190 C2195 1.390 . S
C2191 C2185 1.465 . S
C2191 C2190 1.396 . S
C2191 C2192 1.399 . S
C2192 H2178 0.929 . S
C2192 C2191 1.399 . S
C2192 C2193 1.385 . S
C2193 H2179 0.931 . S
C2193 C2192 1.385 . S
C2193 C2194 1.389 . S
C2194 C2193 1.389 . S
C2194 C2195 1.387 . S
C2195 H2180 0.930 . S
C2195 C2190 1.390 . S
C2195 C2194 1.387 . S
H2196 C2208 0.930 . S
H2197 C2210 0.930 . S
H2198 C2211 0.930 . S
H2199 C2215 0.959 . S
H2200 C2215 0.959 . S
H2201 C2215 0.961 . S
H2202 C2216 0.960 . S
H2203 C2216 0.961 . S
H2204 C2216 0.959 . S
H2205 C2219 0.929 . S
H2206 C2220 0.931 . S
H2207 C2222 0.930 . S
C2208 H2196 0.930 . S
C2208 C2209 1.399 . S
C2208 C2213 1.399 . S
C2209 C2208 1.399 . S
C2209 C2210 1.376 . S
C2210 H2197 0.930 . S
C2210 C2209 1.376 . S
C2210 C2211 1.388 . S
C2211 H2198 0.930 . S
C2211 C2210 1.388 . S
C2211 C2212 1.390 . S
C2212 C2211 1.390 . S
C2212 C2213 1.394 . S
C2212 C2218 1.465 . S
C2213 C2208 1.399 . S
C2213 C2212 1.394 . S
C2213 C2214 1.516 . S
C2214 C2213 1.516 . S
C2214 C2215 1.502 . S
C2214 C2216 1.561 . S
C2214 C2217 1.526 . S
C2215 H2199 0.959 . S
C2215 H2200 0.959 . S
C2215 H2201 0.961 . S
C2215 C2214 1.502 . S
C2216 H2202 0.960 . S
C2216 H2203 0.961 . S
C2216 H2204 0.959 . S
C2216 C2214 1.561 . S
C2217 C2214 1.526 . S
C2217 C2218 1.396 . S
C2217 C2222 1.390 . S
C2218 C2212 1.465 . S
C2218 C2217 1.396 . S
C2218 C2219 1.399 . S
C2219 H2205 0.929 . S
C2219 C2218 1.399 . S
C2219 C2220 1.385 . S
C2220 H2206 0.931 . S
C2220 C2219 1.385 . S
C2220 C2221 1.389 . S
C2221 C2220 1.389 . S
C2221 C2222 1.387 . S
C2222 H2207 0.930 . S
C2222 C2217 1.390 . S
C2222 C2221 1.387 . S
H2223 C2235 0.930 . S
H2224 C2237 0.930 . S
H2225 C2238 0.930 . S
H2226 C2242 0.959 . S
H2227 C2242 0.959 . S
H2228 C2242 0.961 . S
H2229 C2243 0.960 . S
H2230 C2243 0.961 . S
H2231 C2243 0.959 . S
H2232 C2246 0.929 . S
H2233 C2247 0.931 . S
H2234 C2249 0.930 . S
C2235 H2223 0.930 . S
C2235 C2236 1.399 . S
C2235 C2240 1.399 . S
C2236 C2235 1.399 . S
C2236 C2237 1.376 . S
C2237 H2224 0.930 . S
C2237 C2236 1.376 . S
C2237 C2238 1.388 . S
C2238 H2225 0.930 . S
C2238 C2237 1.388 . S
C2238 C2239 1.390 . S
C2239 C2238 1.390 . S
C2239 C2240 1.394 . S
C2239 C2245 1.465 . S
C2240 C2235 1.399 . S
C2240 C2239 1.394 . S
C2240 C2241 1.516 . S
C2241 C2240 1.516 . S
C2241 C2242 1.502 . S
C2241 C2243 1.561 . S
C2241 C2244 1.526 . S
C2242 H2226 0.959 . S
C2242 H2227 0.959 . S
C2242 H2228 0.961 . S
C2242 C2241 1.502 . S
C2243 H2229 0.960 . S
C2243 H2230 0.961 . S
C2243 H2231 0.959 . S
C2243 C2241 1.561 . S
C2244 C2241 1.526 . S
C2244 C2245 1.396 . S
C2244 C2249 1.390 . S
C2245 C2239 1.465 . S
C2245 C2244 1.396 . S
C2245 C2246 1.399 . S
C2246 H2232 0.929 . S
C2246 C2245 1.399 . S
C2246 C2247 1.385 . S
C2247 H2233 0.931 . S
C2247 C2246 1.385 . S
C2247 C2248 1.389 . S
C2248 C2247 1.389 . S
C2248 C2249 1.387 . S
C2249 H2234 0.930 . S
C2249 C2244 1.390 . S
C2249 C2248 1.387 . S
H2250 C2262 0.930 . S
H2251 C2264 0.930 . S
H2252 C2265 0.930 . S
H2253 C2269 0.959 1_655 S
H2254 C2269 0.959 1_655 S
H2255 C2269 0.961 . S
H2256 C2270 0.960 . S
H2257 C2270 0.927 1_655 S
H2258 C2270 0.959 . S
H2259 C2273 0.929 . S
H2260 C2274 0.931 . S
H2261 C2276 0.930 . S
C2262 H2250 0.930 . S
C2262 C2263 1.399 . S
C2262 C2267 1.399 . S
C2263 C2262 1.399 . S
C2263 C2264 1.376 . S
C2264 H2251 0.930 . S
C2264 C2263 1.376 . S
C2264 C2265 1.388 . S
C2265 H2252 0.930 . S
C2265 C2264 1.388 . S
C2265 C2266 1.390 . S
C2266 C2265 1.390 . S
C2266 C2267 1.394 . S
C2266 C2272 1.465 1_455 S
C2267 C2262 1.399 . S
C2267 C2266 1.394 . S
C2267 C2268 1.516 . S
C2268 C2267 1.516 . S
C2268 C2269 1.502 . S
C2268 C2270 1.561 . S
C2268 C2271 1.526 1_455 S
C2269 H2253 0.959 1_455 S
C2269 H2254 0.959 1_455 S
C2269 H2255 0.961 . S
C2269 C2268 1.502 . S
C2270 H2256 0.960 . S
C2270 H2257 0.927 1_455 S
C2270 H2258 0.959 . S
C2270 C2268 1.561 . S
C2271 C2268 1.526 1_655 S
C2271 C2272 1.396 . S
C2271 C2276 1.390 . S
C2272 C2266 1.465 1_655 S
C2272 C2271 1.396 . S
C2272 C2273 1.399 . S
C2273 H2259 0.929 . S
C2273 C2272 1.399 . S
C2273 C2274 1.385 . S
C2274 H2260 0.931 . S
C2274 C2273 1.385 . S
C2274 C2275 1.389 . S
C2275 C2274 1.389 . S
C2275 C2276 1.387 . S
C2276 H2261 0.930 . S
C2276 C2271 1.390 . S
C2276 C2275 1.387 . S
H2277 C2289 0.930 . S
H2278 C2291 0.930 . S
H2279 C2292 0.930 . S
H2280 C2296 0.959 . S
H2281 C2296 0.959 . S
H2282 C2296 0.961 . S
H2283 C2297 0.960 . S
H2284 C2297 0.961 . S
H2285 C2297 0.959 . S
H2286 C2300 0.929 . S
H2287 C2301 0.931 . S
H2288 C2303 0.930 . S
C2289 H2277 0.930 . S
C2289 C2290 1.399 . S
C2289 C2294 1.399 . S
C2290 C2289 1.399 . S
C2290 C2291 1.376 . S
C2291 H2278 0.930 . S
C2291 C2290 1.376 . S
C2291 C2292 1.388 . S
C2292 H2279 0.930 . S
C2292 C2291 1.388 . S
C2292 C2293 1.390 . S
C2293 C2292 1.390 . S
C2293 C2294 1.394 . S
C2293 C2299 1.465 . S
C2294 C2289 1.399 . S
C2294 C2293 1.394 . S
C2294 C2295 1.516 . S
C2295 C2294 1.516 . S
C2295 C2296 1.502 . S
C2295 C2297 1.561 . S
C2295 C2298 1.526 . S
C2296 H2280 0.959 . S
C2296 H2281 0.959 . S
C2296 H2282 0.961 . S
C2296 C2295 1.502 . S
C2297 H2283 0.960 . S
C2297 H2284 0.961 . S
C2297 H2285 0.959 . S
C2297 C2295 1.561 . S
C2298 C2295 1.526 . S
C2298 C2299 1.396 . S
C2298 C2303 1.390 . S
C2299 C2293 1.465 . S
C2299 C2298 1.396 . S
C2299 C2300 1.399 . S
C2300 H2286 0.929 . S
C2300 C2299 1.399 . S
C2300 C2301 1.385 . S
C2301 H2287 0.931 . S
C2301 C2300 1.385 . S
C2301 C2302 1.389 . S
C2302 C2301 1.389 . S
C2302 C2303 1.387 . S
C2303 H2288 0.930 . S
C2303 C2298 1.390 . S
C2303 C2302 1.387 . S
H2304 C2316 0.930 . S
H2305 C2318 0.930 . S
H2306 C2319 0.930 . S
H2307 C2323 0.959 . S
H2308 C2323 0.959 . S
H2309 C2323 0.961 1_545 S
H2310 C2324 0.960 1_545 S
H2311 C2324 0.961 . S
H2312 C2324 0.949 1_545 S
H2313 C2327 0.929 . S
H2314 C2328 0.931 . S
H2315 C2330 0.930 . S
C2316 H2304 0.930 . S
C2316 C2317 1.399 . S
C2316 C2321 1.399 . S
C2317 C2316 1.399 . S
C2317 C2318 1.376 . S
C2318 H2305 0.930 . S
C2318 C2317 1.376 . S
C2318 C2319 1.388 . S
C2319 H2306 0.930 . S
C2319 C2318 1.388 . S
C2319 C2320 1.390 . S
C2320 C2319 1.390 . S
C2320 C2321 1.394 . S
C2320 C2326 1.465 1_545 S
C2321 C2316 1.399 . S
C2321 C2320 1.394 . S
C2321 C2322 1.516 1_545 S
C2322 C2321 1.516 1_565 S
C2322 C2323 1.502 . S
C2322 C2324 1.561 . S
C2322 C2325 1.526 . S
C2323 H2307 0.959 . S
C2323 H2308 0.959 . S
C2323 H2309 0.961 1_565 S
C2323 C2322 1.502 . S
C2324 H2310 0.960 1_565 S
C2324 H2311 0.961 . S
C2324 H2312 0.949 1_565 S
C2324 C2322 1.561 . S
C2325 C2322 1.526 . S
C2325 C2326 1.396 . S
C2325 C2330 1.390 . S
C2326 C2320 1.465 1_565 S
C2326 C2325 1.396 . S
C2326 C2327 1.399 . S
C2327 H2313 0.929 . S
C2327 C2326 1.399 . S
C2327 C2328 1.385 . S
C2328 H2314 0.931 . S
C2328 C2327 1.385 . S
C2328 C2329 1.389 . S
C2329 C2328 1.389 . S
C2329 C2330 1.387 . S
C2330 H2315 0.930 . S
C2330 C2325 1.390 . S
C2330 C2329 1.387 . S
H2331 C2343 0.930 . S
H2332 C2345 0.930 . S
H2333 C2346 0.930 . S
H2334 C2350 0.959 . S
H2335 C2350 0.959 . S
H2336 C2350 0.961 1_545 S
H2337 C2351 0.960 . S
H2338 C2351 0.961 1_565 S
H2339 C2351 0.959 . S
H2340 C2354 0.929 . S
H2341 C2355 0.931 . S
H2342 C2357 0.930 . S
C2343 H2331 0.930 . S
C2343 C2344 1.399 1_556 S
C2343 C2348 1.399 . S
C2344 C2343 1.399 1_554 S
C2344 C2345 1.376 . S
C2345 H2332 0.930 . S
C2345 C2344 1.376 . S
C2345 C2346 1.388 . S
C2346 H2333 0.930 . S
C2346 C2345 1.388 . S
C2346 C2347 1.390 . S
C2347 C2346 1.390 . S
C2347 C2348 1.394 1_554 S
C2347 C2353 1.465 1_545 S
C2348 C2343 1.399 . S
C2348 C2347 1.394 1_556 S
C2348 C2349 1.516 . S
C2349 C2348 1.516 . S
C2349 C2350 1.502 1_545 S
C2349 C2351 1.561 . S
C2349 C2352 1.526 1_545 S
C2350 H2334 0.959 . S
C2350 H2335 0.959 . S
C2350 H2336 0.961 1_565 S
C2350 C2349 1.502 1_565 S
C2351 H2337 0.960 . S
C2351 H2338 0.961 1_545 S
C2351 H2339 0.959 . S
C2351 C2349 1.561 . S
C2352 C2349 1.526 1_565 S
C2352 C2353 1.396 1_556 S
C2352 C2357 1.390 . S
C2353 C2347 1.465 1_565 S
C2353 C2352 1.396 1_554 S
C2353 C2354 1.399 . S
C2354 H2340 0.929 . S
C2354 C2353 1.399 . S
C2354 C2355 1.385 . S
C2355 H2341 0.931 . S
C2355 C2354 1.385 . S
C2355 C2356 1.389 1_554 S
C2356 C2355 1.389 1_556 S
C2356 C2357 1.387 . S
C2357 H2342 0.930 . S
C2357 C2352 1.390 . S
C2357 C2356 1.387 . S
H2358 C2370 0.930 . S
H2359 C2372 0.930 . S
H2360 C2373 0.930 . S
H2361 C2377 0.935 1_455 S
H2362 C2377 0.937 1_455 S
H2363 C2377 0.988 . S
H2364 C2378 0.960 . S
H2365 C2378 0.961 1_455 S
H2366 C2378 0.959 . S
H2367 C2381 0.929 . S
H2368 C2382 0.931 . S
H2369 C2384 0.930 . S
C2370 H2358 0.930 . S
C2370 C2371 1.399 1_556 S
C2370 C2375 1.399 . S
C2371 C2370 1.399 1_554 S
C2371 C2372 1.376 . S
C2372 H2359 0.930 . S
C2372 C2371 1.376 . S
C2372 C2373 1.388 . S
C2373 H2360 0.930 . S
C2373 C2372 1.388 . S
C2373 C2374 1.390 . S
C2374 C2373 1.390 . S
C2374 C2375 1.394 1_554 S
C2374 C2380 1.465 1_655 S
C2375 C2370 1.399 . S
C2375 C2374 1.394 1_556 S
C2375 C2376 1.516 . S
C2376 C2375 1.516 . S
C2376 C2377 1.524 . S
C2376 C2378 1.561 . S
C2376 C2379 1.526 1_655 S
C2377 H2361 0.935 1_655 S
C2377 H2362 0.937 1_655 S
C2377 H2363 0.988 . S
C2377 C2376 1.524 . S
C2378 H2364 0.960 . S
C2378 H2365 0.961 1_655 S
C2378 H2366 0.959 . S
C2378 C2376 1.561 . S
C2379 C2376 1.526 1_455 S
C2379 C2380 1.396 1_556 S
C2379 C2384 1.390 . S
C2380 C2374 1.465 1_455 S
C2380 C2379 1.396 1_554 S
C2380 C2381 1.399 . S
C2381 H2367 0.929 . S
C2381 C2380 1.399 . S
C2381 C2382 1.385 . S
C2382 H2368 0.931 . S
C2382 C2381 1.385 . S
C2382 C2383 1.389 1_554 S
C2383 C2382 1.389 1_556 S
C2383 C2384 1.387 . S
C2384 H2369 0.930 . S
C2384 C2379 1.390 . S
C2384 C2383 1.387 . S
H2385 C2397 0.930 . S
H2386 C2399 0.930 . S
H2387 C2400 0.930 . S
H2388 C2404 0.959 . S
H2389 C2404 0.959 . S
H2390 C2404 0.961 . S
H2391 C2405 0.960 . S
H2392 C2405 0.961 . S
H2393 C2405 0.959 . S
H2394 C2408 0.929 . S
H2395 C2409 0.931 . S
H2396 C2411 0.930 . S
C2397 H2385 0.930 . S
C2397 C2398 1.399 . S
C2397 C2402 1.399 . S
C2398 C2397 1.399 . S
C2398 C2399 1.376 1_554 S
C2399 H2386 0.930 . S
C2399 C2398 1.376 1_556 S
C2399 C2400 1.388 . S
C2400 H2387 0.930 . S
C2400 C2399 1.388 . S
C2400 C2401 1.390 . S
C2401 C2400 1.390 . S
C2401 C2402 1.394 1_556 S
C2401 C2407 1.465 . S
C2402 C2397 1.399 . S
C2402 C2401 1.394 1_554 S
C2402 C2403 1.516 . S
C2403 C2402 1.516 . S
C2403 C2404 1.502 . S
C2403 C2405 1.561 . S
C2403 C2406 1.526 . S
C2404 H2388 0.959 . S
C2404 H2389 0.959 . S
C2404 H2390 0.961 . S
C2404 C2403 1.502 . S
C2405 H2391 0.960 . S
C2405 H2392 0.961 . S
C2405 H2393 0.959 . S
C2405 C2403 1.561 . S
C2406 C2403 1.526 . S
C2406 C2407 1.396 1_554 S
C2406 C2411 1.390 . S
C2407 C2401 1.465 . S
C2407 C2406 1.396 1_556 S
C2407 C2408 1.399 . S
C2408 H2394 0.929 . S
C2408 C2407 1.399 . S
C2408 C2409 1.385 . S
C2409 H2395 0.931 . S
C2409 C2408 1.385 . S
C2409 C2410 1.389 . S
C2410 C2409 1.389 . S
C2410 C2411 1.387 1_556 S
C2411 H2396 0.930 . S
C2411 C2406 1.390 . S
C2411 C2410 1.387 1_554 S
C481 C134 1.356 . S
C493 C5 1.376 . S
C508 C147 1.367 . S
C520 C18 1.325 . S
C535 C29 1.319 . S
C547 C121 1.348 . S
C562 C44 1.318 . S
C574 C108 1.350 . S
C589 C57 1.336 . S
C601 C82 1.327 . S
C616 C101 1.343 . S
C628 C68 1.321 . S
C643 C56 1.374 . S
C655 C83 1.322 . S
C670 C75 1.333 . S
C682 C94 1.342 . S
C697 C109 1.351 . S
C709 C43 1.328 . S
C724 C36 1.331 . S
C736 C122 1.376 . S
C751 C135 1.374 . S
C763 C4 1.328 . S
C778 C148 1.372 . S
C790 C17 1.350 . S
C805 C296 1.360 . S
C817 C161 1.374 . S
C832 C303 1.334 . S
C844 C174 1.371 . S
C859 C187 1.377 . S
C871 C277 1.355 . S
C886 C200 1.321 . S
C898 C264 1.362 1_556 S
C913 C213 1.362 . S
C925 C238 1.374 1_556 S
C940 C226 1.328 . S
C952 C251 1.371 1_556 S
C967 C212 1.376 . S
C979 C239 1.324 . S
C994 C225 1.354 . S
C1006 C252 1.369 . S
C1021 C199 1.346 . S
C1033 C265 1.374 . S
C1048 C186 1.342 . S
C1060 C278 1.375 . S
C1075 C160 1.373 . S
C1087 C289 1.348 . S
C1102 C173 1.331 . S
C1114 C304 1.376 . S
C1129 C315 1.328 . S
C1141 C452 1.371 . S
C1156 C459 1.333 . S
C1168 C328 1.370 . S
C1183 C433 1.324 . S
C1195 C341 1.341 . S
C1210 C356 1.376 . S
C1222 C426 1.354 . S
C1237 C367 1.357 . S
C1249 C400 1.376 . S
C1264 C382 1.364 . S
C1276 C413 1.328 . S
C1291 C374 1.377 . S
C1303 C393 1.329 . S
C1318 C381 1.372 . S
C1330 C406 1.349 . S
C1345 C355 1.357 . S
C1357 C419 1.322 . S
C1372 C434 1.356 . S
C1384 C348 1.326 1_554 S
C1399 C322 1.334 1_554 S
C1411 C445 1.341 . S
C1426 C460 1.371 . S
C1438 C335 1.351 1_554 S
C1453 C49 1.560 . S
C1465 C10 1.558 . S
C1480 C62 1.562 . S
C1492 C23 1.564 . S
C1507 C30 1.561 . S
C1519 C69 1.564 . S
C1534 C127 1.565 . S
C1546 C88 1.563 . S
C1561 C140 1.556 . S
C1573 C95 1.560 . S
C1588 C153 1.557 . S
C1600 C114 1.561 . S
C1615 C205 1.562 . S
C1627 C166 1.564 . S
C1642 C218 1.564 . S
C1654 C179 1.563 . S
C1669 C192 1.560 . S
C1681 C231 1.563 . S
C1696 C244 1.564 . S
C1708 C283 1.560 . S
C1723 C290 1.556 . S
C1735 C257 1.561 . S
C1750 C270 1.565 . S
C1762 C309 1.564 . S
C1777 C361 1.561 . S
C1789 C316 1.559 . S
C1804 C368 1.563 . S
C1816 C329 1.565 . S
C1831 C342 1.556 . S
C1843 C387 1.557 . S
C1858 C394 1.565 . S
C1870 C439 1.561 . S
C1885 C407 1.556 . S
C1897 C446 1.561 . S
C1912 C420 1.563 . S
C1924 C465 1.559 . S
C1939 C3 1.547 . S
C1951 C237 1.546 . S
C1966 C250 1.548 . S
C1978 C16 1.545 . S
C1993 C263 1.545 . S
C2005 C31 1.548 . S
C2020 C432 1.548 . S
C2032 C42 1.545 . S
C2047 C447 1.544 . S
C2059 C55 1.548 . S
C2074 C458 1.545 . S
C2086 C70 1.548 . S
C2101 C81 1.544 . S
C2113 C317 1.548 . S
C2128 C330 1.548 . S
C2140 C96 1.545 . S
C2155 C343 1.547 . S
C2167 C107 1.547 . S
C2182 C120 1.546 . S
C2194 C198 1.547 . S
C2209 C133 1.548 . S
C2221 C211 1.545 . S
C2236 C146 1.545 . S
C2248 C224 1.548 . S
C2263 C395 1.545 . S
C2275 C159 1.548 . S
C2290 C408 1.545 . S
C2302 C172 1.548 . S
C2317 C185 1.547 . S
C2329 C421 1.546 . S
C2344 C276 1.544 . S
C2356 C354 1.548 . S
C2371 C291 1.544 . S
C2383 C369 1.548 . S
C2398 C302 1.548 . S
C2410 C380 1.545 . S
