# Generated by pormake.
# Topology unu, (4)-cn, num edge types: 1
# Building blocks:
#     Node 0, Type 0, BuildingBlock: NAHDIM_clean_sbu_0, # of connection points: 4
#     Node 1, Type 0, BuildingBlock: NAHDIM_clean_sbu_0, # of connection points: 4
#     Node 2, Type 0, BuildingBlock: NAHDIM_clean_sbu_0, # of connection points: 4
#     Node 3, Type 0, BuildingBlock: NAHDIM_clean_sbu_0, # of connection points: 4
#     Node 4, Type 0, BuildingBlock: NAHDIM_clean_sbu_0, # of connection points: 4
#     Node 5, Type 0, BuildingBlock: NAHDIM_clean_sbu_0, # of connection points: 4
#     Node 6, Type 0, BuildingBlock: NAHDIM_clean_sbu_0, # of connection points: 4
#     Node 7, Type 0, BuildingBlock: NAHDIM_clean_sbu_0, # of connection points: 4
#     Node 8, Type 0, BuildingBlock: NAHDIM_clean_sbu_0, # of connection points: 4
#     Node 9, Type 0, BuildingBlock: NAHDIM_clean_sbu_0, # of connection points: 4
#     Node 10, Type 0, BuildingBlock: NAHDIM_clean_sbu_0, # of connection points: 4
#     Node 11, Type 0, BuildingBlock: NAHDIM_clean_sbu_0, # of connection points: 4
#     Node 12, Type 0, BuildingBlock: NAHDIM_clean_sbu_0, # of connection points: 4
#     Node 13, Type 0, BuildingBlock: NAHDIM_clean_sbu_0, # of connection points: 4
#     Node 14, Type 0, BuildingBlock: NAHDIM_clean_sbu_0, # of connection points: 4
#     Node 15, Type 0, BuildingBlock: NAHDIM_clean_sbu_0, # of connection points: 4
#     Node 16, Type 0, BuildingBlock: NAHDIM_clean_sbu_0, # of connection points: 4
#     Node 17, Type 0, BuildingBlock: NAHDIM_clean_sbu_0, # of connection points: 4
#     Node 18, Type 0, BuildingBlock: NAHDIM_clean_sbu_0, # of connection points: 4
#     Node 19, Type 0, BuildingBlock: NAHDIM_clean_sbu_0, # of connection points: 4
#     Node 20, Type 0, BuildingBlock: NAHDIM_clean_sbu_0, # of connection points: 4
#     Node 21, Type 0, BuildingBlock: NAHDIM_clean_sbu_0, # of connection points: 4
#     Node 22, Type 0, BuildingBlock: NAHDIM_clean_sbu_0, # of connection points: 4
#     Node 23, Type 0, BuildingBlock: NAHDIM_clean_sbu_0, # of connection points: 4
#     Node 24, Type 0, BuildingBlock: NAHDIM_clean_sbu_0, # of connection points: 4
#     Node 25, Type 0, BuildingBlock: NAHDIM_clean_sbu_0, # of connection points: 4
#     Node 26, Type 0, BuildingBlock: NAHDIM_clean_sbu_0, # of connection points: 4
#     Node 27, Type 0, BuildingBlock: NAHDIM_clean_sbu_0, # of connection points: 4
#     Node 28, Type 0, BuildingBlock: NAHDIM_clean_sbu_0, # of connection points: 4
#     Node 29, Type 0, BuildingBlock: NAHDIM_clean_sbu_0, # of connection points: 4
#     Node 30, Type 0, BuildingBlock: NAHDIM_clean_sbu_0, # of connection points: 4
#     Node 31, Type 0, BuildingBlock: NAHDIM_clean_sbu_0, # of connection points: 4
#     Node 32, Type 0, BuildingBlock: NAHDIM_clean_sbu_0, # of connection points: 4
#     Node 33, Type 0, BuildingBlock: NAHDIM_clean_sbu_0, # of connection points: 4
#     Node 34, Type 0, BuildingBlock: NAHDIM_clean_sbu_0, # of connection points: 4
#     Node 35, Type 0, BuildingBlock: NAHDIM_clean_sbu_0, # of connection points: 4
#     Edge 36, Type (0, 0), BuildingBlock: KIFKEQ_clean_linker_1, # of connection points: 2
#     Edge 37, Type (0, 0), BuildingBlock: KIFKEQ_clean_linker_1, # of connection points: 2
#     Edge 38, Type (0, 0), BuildingBlock: KIFKEQ_clean_linker_1, # of connection points: 2
#     Edge 39, Type (0, 0), BuildingBlock: KIFKEQ_clean_linker_1, # of connection points: 2
#     Edge 40, Type (0, 0), BuildingBlock: KIFKEQ_clean_linker_1, # of connection points: 2
#     Edge 41, Type (0, 0), BuildingBlock: KIFKEQ_clean_linker_1, # of connection points: 2
#     Edge 42, Type (0, 0), BuildingBlock: KIFKEQ_clean_linker_1, # of connection points: 2
#     Edge 43, Type (0, 0), BuildingBlock: KIFKEQ_clean_linker_1, # of connection points: 2
#     Edge 44, Type (0, 0), BuildingBlock: KIFKEQ_clean_linker_1, # of connection points: 2
#     Edge 45, Type (0, 0), BuildingBlock: KIFKEQ_clean_linker_1, # of connection points: 2
#     Edge 46, Type (0, 0), BuildingBlock: KIFKEQ_clean_linker_1, # of connection points: 2
#     Edge 47, Type (0, 0), BuildingBlock: KIFKEQ_clean_linker_1, # of connection points: 2
#     Edge 48, Type (0, 0), BuildingBlock: KIFKEQ_clean_linker_1, # of connection points: 2
#     Edge 49, Type (0, 0), BuildingBlock: KIFKEQ_clean_linker_1, # of connection points: 2
#     Edge 50, Type (0, 0), BuildingBlock: KIFKEQ_clean_linker_1, # of connection points: 2
#     Edge 51, Type (0, 0), BuildingBlock: KIFKEQ_clean_linker_1, # of connection points: 2
#     Edge 52, Type (0, 0), BuildingBlock: KIFKEQ_clean_linker_1, # of connection points: 2
#     Edge 53, Type (0, 0), BuildingBlock: KIFKEQ_clean_linker_1, # of connection points: 2
#     Edge 54, Type (0, 0), BuildingBlock: KIFKEQ_clean_linker_1, # of connection points: 2
#     Edge 55, Type (0, 0), BuildingBlock: KIFKEQ_clean_linker_1, # of connection points: 2
#     Edge 56, Type (0, 0), BuildingBlock: KIFKEQ_clean_linker_1, # of connection points: 2
#     Edge 57, Type (0, 0), BuildingBlock: KIFKEQ_clean_linker_1, # of connection points: 2
#     Edge 58, Type (0, 0), BuildingBlock: KIFKEQ_clean_linker_1, # of connection points: 2
#     Edge 59, Type (0, 0), BuildingBlock: KIFKEQ_clean_linker_1, # of connection points: 2
#     Edge 60, Type (0, 0), BuildingBlock: KIFKEQ_clean_linker_1, # of connection points: 2
#     Edge 61, Type (0, 0), BuildingBlock: KIFKEQ_clean_linker_1, # of connection points: 2
#     Edge 62, Type (0, 0), BuildingBlock: KIFKEQ_clean_linker_1, # of connection points: 2
#     Edge 63, Type (0, 0), BuildingBlock: KIFKEQ_clean_linker_1, # of connection points: 2
#     Edge 64, Type (0, 0), BuildingBlock: KIFKEQ_clean_linker_1, # of connection points: 2
#     Edge 65, Type (0, 0), BuildingBlock: KIFKEQ_clean_linker_1, # of connection points: 2
#     Edge 66, Type (0, 0), BuildingBlock: KIFKEQ_clean_linker_1, # of connection points: 2
#     Edge 67, Type (0, 0), BuildingBlock: KIFKEQ_clean_linker_1, # of connection points: 2
#     Edge 68, Type (0, 0), BuildingBlock: KIFKEQ_clean_linker_1, # of connection points: 2
#     Edge 69, Type (0, 0), BuildingBlock: KIFKEQ_clean_linker_1, # of connection points: 2
#     Edge 70, Type (0, 0), BuildingBlock: KIFKEQ_clean_linker_1, # of connection points: 2
#     Edge 71, Type (0, 0), BuildingBlock: KIFKEQ_clean_linker_1, # of connection points: 2
#     Edge 72, Type (0, 0), BuildingBlock: KIFKEQ_clean_linker_1, # of connection points: 2
#     Edge 73, Type (0, 0), BuildingBlock: KIFKEQ_clean_linker_1, # of connection points: 2
#     Edge 74, Type (0, 0), BuildingBlock: KIFKEQ_clean_linker_1, # of connection points: 2
#     Edge 75, Type (0, 0), BuildingBlock: KIFKEQ_clean_linker_1, # of connection points: 2
#     Edge 76, Type (0, 0), BuildingBlock: KIFKEQ_clean_linker_1, # of connection points: 2
#     Edge 77, Type (0, 0), BuildingBlock: KIFKEQ_clean_linker_1, # of connection points: 2
#     Edge 78, Type (0, 0), BuildingBlock: KIFKEQ_clean_linker_1, # of connection points: 2
#     Edge 79, Type (0, 0), BuildingBlock: KIFKEQ_clean_linker_1, # of connection points: 2
#     Edge 80, Type (0, 0), BuildingBlock: KIFKEQ_clean_linker_1, # of connection points: 2
#     Edge 81, Type (0, 0), BuildingBlock: KIFKEQ_clean_linker_1, # of connection points: 2
#     Edge 82, Type (0, 0), BuildingBlock: KIFKEQ_clean_linker_1, # of connection points: 2
#     Edge 83, Type (0, 0), BuildingBlock: KIFKEQ_clean_linker_1, # of connection points: 2
#     Edge 84, Type (0, 0), BuildingBlock: KIFKEQ_clean_linker_1, # of connection points: 2
#     Edge 85, Type (0, 0), BuildingBlock: KIFKEQ_clean_linker_1, # of connection points: 2
#     Edge 86, Type (0, 0), BuildingBlock: KIFKEQ_clean_linker_1, # of connection points: 2
#     Edge 87, Type (0, 0), BuildingBlock: KIFKEQ_clean_linker_1, # of connection points: 2
#     Edge 88, Type (0, 0), BuildingBlock: KIFKEQ_clean_linker_1, # of connection points: 2
#     Edge 89, Type (0, 0), BuildingBlock: KIFKEQ_clean_linker_1, # of connection points: 2
#     Edge 90, Type (0, 0), BuildingBlock: KIFKEQ_clean_linker_1, # of connection points: 2
#     Edge 91, Type (0, 0), BuildingBlock: KIFKEQ_clean_linker_1, # of connection points: 2
#     Edge 92, Type (0, 0), BuildingBlock: KIFKEQ_clean_linker_1, # of connection points: 2
#     Edge 93, Type (0, 0), BuildingBlock: KIFKEQ_clean_linker_1, # of connection points: 2
#     Edge 94, Type (0, 0), BuildingBlock: KIFKEQ_clean_linker_1, # of connection points: 2
#     Edge 95, Type (0, 0), BuildingBlock: KIFKEQ_clean_linker_1, # of connection points: 2
#     Edge 96, Type (0, 0), BuildingBlock: KIFKEQ_clean_linker_1, # of connection points: 2
#     Edge 97, Type (0, 0), BuildingBlock: KIFKEQ_clean_linker_1, # of connection points: 2
#     Edge 98, Type (0, 0), BuildingBlock: KIFKEQ_clean_linker_1, # of connection points: 2
#     Edge 99, Type (0, 0), BuildingBlock: KIFKEQ_clean_linker_1, # of connection points: 2
#     Edge 100, Type (0, 0), BuildingBlock: KIFKEQ_clean_linker_1, # of connection points: 2
#     Edge 101, Type (0, 0), BuildingBlock: KIFKEQ_clean_linker_1, # of connection points: 2
#     Edge 102, Type (0, 0), BuildingBlock: KIFKEQ_clean_linker_1, # of connection points: 2
#     Edge 103, Type (0, 0), BuildingBlock: KIFKEQ_clean_linker_1, # of connection points: 2
#     Edge 104, Type (0, 0), BuildingBlock: KIFKEQ_clean_linker_1, # of connection points: 2
#     Edge 105, Type (0, 0), BuildingBlock: KIFKEQ_clean_linker_1, # of connection points: 2
#     Edge 106, Type (0, 0), BuildingBlock: KIFKEQ_clean_linker_1, # of connection points: 2
#     Edge 107, Type (0, 0), BuildingBlock: KIFKEQ_clean_linker_1, # of connection points: 2
# Relax obj value: 0.298
# Max RMSD: 0.283
# Mean RMSD: 0.283
data_MOF--net-unu--node1-NAHDIM_clean_sbu_0--edge1-KIFKEQ_clean_linker_1
_symmetry_space_group_name_H-M    P1
_symmetry_Int_Tables_number       1
_symmetry_cell_setting            triclinic
loop_
_symmetry_equiv_pos_as_xyz
'x, y, z'
_cell_length_a     40.370676
_cell_length_b     40.314533
_cell_length_c     126.67963
_cell_angle_alpha  89.995138
_cell_angle_beta   89.935692
_cell_angle_gamma 120.08763
loop_
_atom_site_label
_atom_site_type_symbol
_atom_site_fract_x
_atom_site_fract_y
_atom_site_fract_z
_atom_type_partial_charge
C0 C 0.31921 0.09119 0.09749 0.0
O1 O 0.32154 0.08813 0.10775 0.0
O2 O 0.20736 0.0326 0.10271 0.0
Zn3 Zn 0.24948 0.08771 0.10359 0.0
O4 O 0.27061 0.10285 0.1183 0.0
C5 C 0.23801 0.15374 0.10211 0.0
O6 O 0.27068 0.17228 0.10719 0.0
O7 O 0.29122 0.09353 0.09374 0.0
C8 C 0.25542 0.1129 0.12548 0.0
O9 O 0.22267 0.11138 0.12363 0.0
C10 C 0.18828 0.01122 0.11039 0.0
O11 O 0.1967 0.02456 0.12006 0.0
O12 O 0.2258 0.11926 0.09928 0.0
C13 C 0.9253 0.22907 0.10176 0.0
O14 O 0.92817 0.23639 0.11192 0.0
O15 O 0.98982 0.18031 0.10698 0.0
Zn16 Zn 0.93504 0.16687 0.10891 0.0
O17 O 0.92455 0.17749 0.12371 0.0
C18 C 0.90344 0.08976 0.11413 0.0
O19 O 0.9237 0.10746 0.12252 0.0
O20 O 0.92551 0.19928 0.09852 0.0
C21 C 0.88972 0.16532 0.12607 0.0
O22 O 0.86334 0.14734 0.11884 0.0
C23 C 0.01454 0.1891 0.11424 0.0
O24 O 0.00501 0.19074 0.12406 0.0
O25 O 0.90271 0.10976 0.10645 0.0
C26 C 0.79215 0.68528 0.09837 0.0
O27 O 0.794 0.67143 0.1076 0.0
O28 O 0.84785 0.80474 0.10689 0.0
Zn29 Zn 0.85104 0.75653 0.10729 0.0
O30 O 0.83625 0.73171 0.12156 0.0
C31 C 0.92428 0.79777 0.09755 0.0
O32 O 0.90496 0.80755 0.09116 0.0
O33 O 0.81528 0.72039 0.09631 0.0
C34 C 0.85959 0.74433 0.12923 0.0
O35 O 0.89322 0.77519 0.12788 0.0
C36 C 0.82756 0.81266 0.1129 0.0
O37 O 0.80576 0.78774 0.12009 0.0
O38 O 0.90626 0.773 0.10468 0.0
C39 C 0.07951 0.30482 0.38584 0.0
O40 O 0.07136 0.30433 0.37579 0.0
O41 O 0.02545 0.1936 0.38062 0.0
Zn42 Zn 0.07959 0.2375 0.37942 0.0
O43 O 0.09087 0.2574 0.36458 0.0
C44 C 0.10337 0.18961 0.38963 0.0
O45 O 0.07381 0.18165 0.39567 0.0
O46 O 0.0863 0.27931 0.38939 0.0
C47 C 0.12577 0.27703 0.36183 0.0
O48 O 0.15252 0.28319 0.36874 0.0
C49 C 0.99507 0.1957 0.38078 0.0
O50 O 0.99733 0.22917 0.37967 0.0
O51 O 0.11342 0.21548 0.38263 0.0
C52 C 0.67981 0.78803 0.39119 0.0
O53 O 0.67958 0.78315 0.38094 0.0
O54 O 0.78849 0.85519 0.38455 0.0
Zn55 Zn 0.74139 0.86042 0.38505 0.0
O56 O 0.71711 0.85246 0.37074 0.0
C57 C 0.75847 0.93967 0.3844 0.0
O58 O 0.73697 0.9286 0.3759 0.0
O59 O 0.7036 0.8205 0.39509 0.0
C60 C 0.73533 0.86148 0.36206 0.0
O61 O 0.7728 0.87741 0.36215 0.0
C62 C 0.78996 0.82447 0.3851 0.0
O63 O 0.75805 0.79125 0.38539 0.0
O64 O 0.76111 0.91476 0.38993 0.0
C65 C 0.19592 0.90691 0.3873 0.0
O66 O 0.20105 0.92594 0.37845 0.0
O67 O 0.13449 0.94355 0.3829 0.0
Zn68 Zn 0.12377 0.88943 0.38129 0.0
O69 O 0.13177 0.87857 0.36633 0.0
C70 C 0.05484 0.86527 0.39274 0.0
O71 O 0.07854 0.89421 0.39869 0.0
O72 O 0.16191 0.88548 0.39062 0.0
C73 C 0.13669 0.8503 0.36459 0.0
O74 O 0.13567 0.82897 0.37257 0.0
C75 C 0.13894 0.96668 0.37551 0.0
O76 O 0.13719 0.95581 0.36565 0.0
O77 O 0.06842 0.85508 0.38517 0.0
C78 C 0.68881 0.90188 0.88577 0.0
O79 O 0.68703 0.89922 0.87544 0.0
O80 O 0.80767 0.96982 0.88425 0.0
Zn81 Zn 0.76516 0.91566 0.88208 0.0
O82 O 0.75256 0.90657 0.86665 0.0
C83 C 0.81107 0.89161 0.89352 0.0
O84 O 0.82015 0.92254 0.89907 0.0
O85 O 0.71899 0.90722 0.89045 0.0
C86 C 0.73765 0.87244 0.86322 0.0
O87 O 0.7314 0.84478 0.86983 0.0
C88 C 0.80557 4e-05 0.88314 0.0
O89 O 0.77318 0.99728 0.8801 0.0
O90 O 0.78562 0.88136 0.88642 0.0
C91 C 0.08548 0.78291 0.8903 0.0
O92 O 0.06728 0.78035 0.88147 0.0
O93 O 0.04945 0.8479 0.88854 0.0
Zn94 Zn 0.10283 0.85716 0.88643 0.0
O95 O 0.11264 0.85283 0.87104 0.0
C96 C 0.12858 0.92443 0.89908 0.0
O97 O 0.09854 0.90088 0.90472 0.0
O98 O 0.10601 0.81581 0.89443 0.0
C99 C 0.13908 0.88019 0.8658 0.0
O100 O 0.16088 0.91328 0.87044 0.0
C101 C 0.02549 0.84188 0.88126 0.0
O102 O 0.03486 0.84052 0.8714 0.0
O103 O 0.13847 0.91103 0.8914 0.0
C104 C 0.21054 0.30247 0.89111 0.0
O105 O 0.2151 0.29744 0.88109 0.0
O106 O 0.14143 0.19061 0.889 0.0
Zn107 Zn 0.13741 0.23796 0.88681 0.0
O108 O 0.14509 0.2529 0.87149 0.0
C109 C 0.06168 0.23234 0.88699 0.0
O110 O 0.07483 0.25777 0.87934 0.0
O111 O 0.17827 0.28086 0.89545 0.0
C112 C 0.12128 0.23516 0.86415 0.0
O113 O 0.0887 0.20406 0.86636 0.0
C114 C 0.17209 0.18909 0.88955 0.0
O115 O 0.20527 0.22051 0.88824 0.0
O116 O 0.08399 0.22298 0.89146 0.0
C117 C 0.89153 0.69347 0.59246 0.0
O118 O 0.87502 0.68036 0.60165 0.0
O119 O 0.95662 0.81385 0.60007 0.0
Zn120 Zn 0.90528 0.76577 0.60093 0.0
O121 O 0.89678 0.74207 0.61533 0.0
C122 C 0.84136 0.77953 0.6043 0.0
O123 O 0.83426 0.75804 0.61274 0.0
O124 O 0.90435 0.72857 0.59019 0.0
C125 C 0.90411 0.76029 0.62398 0.0
O126 O 0.9188 0.79767 0.62382 0.0
C127 C 0.98839 0.81587 0.598 0.0
O128 O 0.98973 0.78418 0.59684 0.0
O129 O 0.86745 0.78334 0.59794 0.0
C130 C 0.32271 0.21967 0.59879 0.0
O131 O 0.31996 0.22044 0.60911 0.0
O132 O 0.20827 0.16358 0.60012 0.0
Zn133 Zn 0.25072 0.15144 0.60176 0.0
O134 O 0.26415 0.15238 0.61705 0.0
C135 C 0.20518 0.08426 0.5893 0.0
O136 O 0.19798 0.10812 0.58408 0.0
O137 O 0.29674 0.19133 0.5937 0.0
C138 C 0.2821 0.13545 0.61985 0.0
O139 O 0.29067 0.11734 0.6127 0.0
C140 C 0.19016 0.16758 0.60776 0.0
O141 O 0.20019 0.16542 0.61749 0.0
O142 O 0.22987 0.09729 0.59665 0.0
C143 C 0.79286 0.10464 0.60095 0.0
O144 O 0.7917 0.11524 0.61068 0.0
O145 O 0.84661 0.0426 0.60949 0.0
Zn146 Zn 0.85484 0.09602 0.60915 0.0
O147 O 0.84481 0.1112 0.62339 0.0
C148 C 0.92529 0.11974 0.5983 0.0
O149 O 0.90302 0.0892 0.59266 0.0
O150 O 0.81876 0.09701 0.59835 0.0
C151 C 0.86247 0.14649 0.62588 0.0
O152 O 0.88753 0.17162 0.61925 0.0
C153 C 0.81454 0.01164 0.60979 0.0
O154 O 0.78285 0.01311 0.61056 0.0
O155 O 0.91035 0.1302 0.60544 0.0
C156 C 0.95358 0.39392 0.43588 0.0
O157 O 0.94029 0.37315 0.44449 0.0
O158 O 0.85221 0.35064 0.44005 0.0
Zn159 Zn 0.89467 0.40504 0.44209 0.0
O160 O 0.91324 0.41483 0.45706 0.0
C161 C 0.8462 0.42953 0.43236 0.0
O162 O 0.83607 0.39902 0.42651 0.0
O163 O 0.93843 0.41328 0.43279 0.0
C164 C 0.93516 0.4497 0.45956 0.0
O165 O 0.94372 0.47636 0.45238 0.0
C166 C 0.82812 0.33136 0.4472 0.0
O167 O 0.83186 0.34657 0.45661 0.0
O168 O 0.87312 0.43943 0.439 0.0
C169 C 0.58614 0.55506 0.43612 0.0
O170 O 0.60728 0.55856 0.44439 0.0
O171 O 0.61564 0.48679 0.4397 0.0
Zn172 Zn 0.56358 0.4811 0.4418 0.0
O173 O 0.55547 0.49073 0.4569 0.0
C174 C 0.53232 0.4112 0.43018 0.0
O175 O 0.56203 0.43259 0.42415 0.0
O176 O 0.56191 0.52157 0.43295 0.0
C177 C 0.53498 0.46414 0.46337 0.0
O178 O 0.51921 0.42824 0.46032 0.0
C179 C 0.63707 0.48671 0.44702 0.0
O180 O 0.62588 0.48385 0.45689 0.0
O181 O 0.52494 0.42682 0.43784 0.0
C182 C 0.41988 0.0228 0.43536 0.0
O183 O 0.41315 0.02758 0.44522 0.0
O184 O 0.49163 0.13285 0.44003 0.0
Zn185 Zn 0.49239 0.08346 0.44142 0.0
O186 O 0.48106 0.06337 0.45625 0.0
C187 C 0.56552 0.12181 0.43126 0.0
O188 O 0.54741 0.13333 0.42497 0.0
O189 O 0.45341 0.04365 0.43164 0.0
C190 C 0.50639 0.07722 0.46341 0.0
O191 O 0.54006 0.10697 0.46123 0.0
C192 C 0.46279 0.13739 0.43916 0.0
O193 O 0.42813 0.10747 0.43963 0.0
O194 O 0.54654 0.09693 0.43829 0.0
C195 C 0.73951 0.63439 0.71722 0.0
O196 O 0.72411 0.62439 0.70779 0.0
O197 O 0.7094 0.53854 0.70878 0.0
Zn198 Zn 0.76277 0.58386 0.71052 0.0
O199 O 0.78305 0.61136 0.69673 0.0
C200 C 0.78433 0.53816 0.72286 0.0
O201 O 0.75253 0.52981 0.72785 0.0
O202 O 0.75961 0.62046 0.72061 0.0
C203 C 0.80487 0.60541 0.69077 0.0
O204 O 0.81365 0.57927 0.69344 0.0
C205 C 0.70494 0.50674 0.70553 0.0
O206 O 0.7351 0.50482 0.70253 0.0
O207 O 0.79643 0.56357 0.71567 0.0
C208 C 0.37011 0.10244 0.71673 0.0
O209 O 0.37199 0.09482 0.70674 0.0
O210 O 0.47926 0.16248 0.71086 0.0
Zn211 Zn 0.43532 0.17254 0.71039 0.0
O212 O 0.41462 0.1657 0.69562 0.0
C213 C 0.46117 0.25448 0.70893 0.0
O214 O 0.44065 0.24497 0.70026 0.0
O215 O 0.39424 0.13534 0.72032 0.0
C216 C 0.38265 0.16386 0.69403 0.0
O217 O 0.3638 0.16677 0.70211 0.0
C218 C 0.47912 0.13088 0.71106 0.0
O219 O 0.44657 0.0984 0.71038 0.0
O220 O 0.45984 0.22819 0.71479 0.0
C221 C 0.89131 0.26173 0.72263 0.0
O222 O 0.89608 0.28118 0.71389 0.0
O223 O 0.82348 0.29565 0.71979 0.0
Zn224 Zn 0.81737 0.24336 0.71755 0.0
O225 O 0.82592 0.23524 0.70238 0.0
C226 C 0.74232 0.17261 0.71778 0.0
O227 O 0.75695 0.15959 0.71076 0.0
O228 O 0.85756 0.24075 0.72618 0.0
C229 C 0.80231 0.22809 0.69491 0.0
O230 O 0.76948 0.22629 0.69687 0.0
C231 C 0.83524 0.32222 0.71294 0.0
O232 O 0.84499 0.31654 0.7035 0.0
O233 O 0.76355 0.20526 0.72196 0.0
C234 C 0.35301 0.22566 0.22325 0.0
O235 O 0.33859 0.20874 0.21419 0.0
O236 O 0.47012 0.30305 0.21333 0.0
Zn237 Zn 0.42494 0.24953 0.21274 0.0
O238 O 0.39721 0.23884 0.19897 0.0
C239 C 0.47006 0.21963 0.22119 0.0
O240 O 0.47581 0.24455 0.22866 0.0
O241 O 0.38907 0.24292 0.22458 0.0
C242 C 0.41314 0.23829 0.19038 0.0
O243 O 0.44934 0.24761 0.19047 0.0
C244 C 0.46899 0.33351 0.21508 0.0
O245 O 0.4357 0.33166 0.21607 0.0
O246 O 0.44659 0.21455 0.21385 0.0
C247 C 0.77652 0.12788 0.22433 0.0
O248 O 0.79444 0.1328 0.2153 0.0
O249 O 0.70956 0.17577 0.21627 0.0
Zn250 Zn 0.76448 0.18891 0.21677 0.0
O251 O 0.781 0.18244 0.20233 0.0
C252 C 0.77927 0.25688 0.2276 0.0
O253 O 0.74677 0.2324 0.23214 0.0
O254 O 0.76529 0.15111 0.22694 0.0
C255 C 0.81341 0.20673 0.19854 0.0
O256 O 0.83661 0.2369 0.20418 0.0
C257 C 0.6962 0.18801 0.20918 0.0
O258 O 0.71845 0.20849 0.20135 0.0
O259 O 0.79478 0.24426 0.22125 0.0
C260 C 0.88146 0.6393 0.22464 0.0
O261 O 0.88498 0.63515 0.21448 0.0
O262 O 0.81107 0.5342 0.21777 0.0
Zn263 Zn 0.80708 0.58204 0.2192 0.0
O264 O 0.81356 0.60788 0.20517 0.0
C265 C 0.72837 0.56639 0.21965 0.0
O266 O 0.7391 0.58966 0.21151 0.0
O267 O 0.84874 0.61937 0.22893 0.0
C268 C 0.8039 0.5907 0.19635 0.0
O269 O 0.78816 0.55322 0.19606 0.0
C270 C 0.83789 0.52942 0.22129 0.0
O271 O 0.86801 0.55835 0.22565 0.0
O272 O 0.75341 0.56235 0.22467 0.0
C273 C 0.5551 0.00915 0.92562 0.0
O274 O 0.54297 0.99976 0.93538 0.0
O275 O 0.6275 0.12884 0.93129 0.0
Zn276 Zn 0.57383 0.08456 0.93268 0.0
O277 O 0.56516 0.06439 0.94751 0.0
C278 C 0.50991 0.09752 0.9355 0.0
O279 O 0.49839 0.06966 0.94243 0.0
O280 O 0.56726 0.04336 0.92252 0.0
C281 C 0.57337 0.08595 0.95553 0.0
O282 O 0.58925 0.12317 0.9542 0.0
C283 C 0.6569 0.12952 0.93512 0.0
O284 O 0.65294 0.09947 0.94028 0.0
O285 O 0.53925 0.10607 0.92988 0.0
C286 C 0.96732 0.54726 0.93399 0.0
O287 O 0.96033 0.55249 0.94379 0.0
O288 O 0.86033 0.48025 0.93849 0.0
Zn289 Zn 0.90685 0.47433 0.93939 0.0
O290 O 0.92642 0.48335 0.95431 0.0
C291 C 0.87239 0.3949 0.94261 0.0
O292 O 0.87061 0.40707 0.95209 0.0
O293 O 0.94792 0.51403 0.92995 0.0
C294 C 0.95302 0.47678 0.95685 0.0
O295 O 0.96709 0.46372 0.94967 0.0
C296 C 0.85455 0.50268 0.94424 0.0
O297 O 0.88041 0.52424 0.95124 0.0
O298 O 0.88891 0.41942 0.93528 0.0
C299 C 0.43539 0.39471 0.93776 0.0
O300 O 0.42812 0.37466 0.9465 0.0
O301 O 0.49102 0.34986 0.94201 0.0
Zn302 Zn 0.50474 0.40478 0.94393 0.0
O303 O 0.49538 0.41515 0.95883 0.0
C304 C 0.58275 0.43963 0.94829 0.0
O305 O 0.56692 0.42177 0.95715 0.0
O306 O 0.46979 0.41338 0.93449 0.0
C307 C 0.50454 0.44938 0.9611 0.0
O308 O 0.5192 0.47573 0.95369 0.0
C309 C 0.48531 0.32647 0.94946 0.0
O310 O 0.48795 0.33789 0.95929 0.0
O311 O 0.56116 0.43769 0.94071 0.0
C312 C 0.63108 0.74872 0.76647 0.0
O313 O 0.6243 0.73488 0.77612 0.0
O314 O 0.53008 0.71302 0.7737 0.0
Zn315 Zn 0.57609 0.76616 0.77356 0.0
O316 O 0.60002 0.77914 0.78796 0.0
C317 C 0.55325 0.82292 0.77652 0.0
O318 O 0.56743 0.82495 0.78597 0.0
O319 O 0.61385 0.76589 0.76319 0.0
C320 C 0.63329 0.80785 0.78929 0.0
O321 O 0.65188 0.82925 0.78112 0.0
C322 C 0.52504 0.68658 0.78009 0.0
O323 O 0.55112 0.69343 0.78728 0.0
O324 O 0.55616 0.80162 0.7696 0.0
C325 C 0.241 0.88439 0.76697 0.0
O326 O 0.24123 0.89316 0.77696 0.0
O327 O 0.2951 0.82684 0.7756 0.0
Zn328 Zn 0.24236 0.81995 0.77616 0.0
O329 O 0.23254 0.83592 0.79033 0.0
C330 C 0.20498 0.74396 0.78266 0.0
O331 O 0.22445 0.76274 0.79105 0.0
O332 O 0.23932 0.8529 0.76459 0.0
C333 C 0.19833 0.82656 0.79268 0.0
O334 O 0.17104 0.80742 0.78576 0.0
C335 C 0.32638 0.85833 0.77655 0.0
O336 O 0.32565 0.88999 0.77847 0.0
O337 O 0.20646 0.76295 0.77446 0.0
C338 C 0.11251 0.36654 0.77123 0.0
O339 O 0.10398 0.37181 0.78086 0.0
O340 O 0.17236 0.46861 0.7788 0.0
Zn341 Zn 0.18159 0.42401 0.779 0.0
O342 O 0.16892 0.39706 0.79306 0.0
C343 C 0.25876 0.46515 0.78399 0.0
O344 O 0.24192 0.46519 0.79287 0.0
O345 O 0.14703 0.38622 0.76811 0.0
C346 C 0.18029 0.37323 0.79461 0.0
O347 O 0.20045 0.36843 0.78725 0.0
C348 C 0.1504 0.47447 0.78472 0.0
O349 O 0.13045 0.44946 0.79211 0.0
O350 O 0.238 0.44682 0.77614 0.0
C351 C 0.43324 0.97973 0.04992 0.0
O352 O 0.4302 0.98335 0.03973 0.0
O353 O 0.38094 0.8677 0.04271 0.0
Zn354 Zn 0.43441 0.91316 0.04276 0.0
O355 O 0.44988 0.93738 0.02837 0.0
C356 C 0.47262 0.87311 0.03889 0.0
O357 O 0.45725 0.87246 0.0297 0.0
O358 O 0.43666 0.95186 0.0533 0.0
C359 C 0.48427 0.96423 0.02715 0.0
O360 O 0.50763 0.97514 0.03527 0.0
C361 C 0.35016 0.86821 0.04441 0.0
O362 O 0.35148 0.90117 0.04572 0.0
O363 O 0.46827 0.89131 0.04647 0.0
C364 C 0.03333 0.4552 0.05466 0.0
O365 O 0.0365 0.44885 0.04464 0.0
O366 O 0.14356 0.51825 0.04999 0.0
Zn367 Zn 0.09863 0.52699 0.04916 0.0
O368 O 0.0805 0.52113 0.0341 0.0
C369 C 0.11782 0.60746 0.04857 0.0
O370 O 0.09522 0.597 0.0403 0.0
O371 O 0.05652 0.48789 0.05856 0.0
C372 C 0.04782 0.51687 0.03196 0.0
O373 O 0.02599 0.51662 0.0397 0.0
C374 C 0.14254 0.48681 0.05195 0.0
O375 O 0.10939 0.45529 0.05316 0.0
O376 O 0.12046 0.58207 0.05387 0.0
C377 C 0.55314 0.58005 0.05628 0.0
O378 O 0.55625 0.58982 0.04628 0.0
O379 O 0.49094 0.62482 0.05214 0.0
Zn380 Zn 0.47999 0.57033 0.0524 0.0
O381 O 0.48023 0.55275 0.03753 0.0
C382 C 0.40011 0.50958 0.0544 0.0
O383 O 0.40826 0.49356 0.04657 0.0
O384 O 0.52144 0.56905 0.06099 0.0
C385 C 0.48474 0.52423 0.03574 0.0
O386 O 0.48884 0.50585 0.04374 0.0
C387 C 0.51367 0.65079 0.04582 0.0
O388 O 0.53236 0.64267 0.03875 0.0
O389 O 0.42682 0.53994 0.05858 0.0
C390 C 0.02623 0.58328 0.55301 0.0
O391 O 0.03604 0.59541 0.54326 0.0
O392 O 0.13239 0.62822 0.55028 0.0
Zn393 Zn 0.08908 0.57356 0.5496 0.0
O394 O 0.07258 0.55877 0.53459 0.0
C395 C 0.1329 0.54818 0.56194 0.0
O396 O 0.14124 0.57839 0.56775 0.0
O397 O 0.04498 0.57047 0.55792 0.0
C398 C 0.04293 0.52634 0.53299 0.0
O399 O 0.02499 0.50435 0.54113 0.0
C400 C 0.16608 0.63657 0.54766 0.0
O401 O 0.17195 0.60945 0.544 0.0
O402 O 0.10846 0.53894 0.55458 0.0
C403 C 0.44946 0.46421 0.55985 0.0
O404 O 0.45896 0.46565 0.54988 0.0
O405 O 0.37435 0.5071 0.5553 0.0
Zn406 Zn 0.42937 0.5209 0.55334 0.0
O407 O 0.43885 0.51153 0.53832 0.0
C408 C 0.44912 0.59301 0.56271 0.0
O409 O 0.41781 0.571 0.5681 0.0
O410 O 0.43864 0.48702 0.56321 0.0
C411 C 0.47275 0.53018 0.53469 0.0
O412 O 0.50012 0.55553 0.54076 0.0
C413 C 0.35496 0.51176 0.54817 0.0
O414 O 0.37029 0.5239 0.5388 0.0
O415 O 0.46179 0.57751 0.55638 0.0
C416 C 0.55644 0.97874 0.55711 0.0
O417 O 0.55889 0.97718 0.5468 0.0
O418 O 0.49226 0.87241 0.54942 0.0
Zn419 Zn 0.48387 0.91691 0.55214 0.0
O420 O 0.48488 0.94346 0.53864 0.0
C421 C 0.40291 0.89174 0.55429 0.0
O422 O 0.40919 0.91566 0.54649 0.0
O423 O 0.52527 0.95513 0.56166 0.0
C424 C 0.47252 0.92648 0.52987 0.0
O425 O 0.45756 0.8891 0.52938 0.0
C426 C 0.51723 0.86702 0.55397 0.0
O427 O 0.54292 0.89397 0.56007 0.0
O428 O 0.43121 0.89147 0.55859 0.0
C429 C 0.24824 0.35187 0.2672 0.0
O430 O 0.25988 0.3596 0.27703 0.0
O431 O 0.30208 0.46101 0.26902 0.0
Zn432 Zn 0.24672 0.42006 0.27049 0.0
O433 O 0.23285 0.40568 0.28567 0.0
C434 C 0.22784 0.4678 0.25816 0.0
O435 O 0.25987 0.47585 0.25335 0.0
O436 O 0.23916 0.37386 0.26239 0.0
C437 C 0.19934 0.37832 0.28766 0.0
O438 O 0.17559 0.36122 0.27979 0.0
C439 C 0.32112 0.48448 0.27632 0.0
O440 O 0.30487 0.48126 0.28554 0.0
O441 O 0.21479 0.44212 0.26528 0.0
C442 C 0.61277 0.8643 0.2529 0.0
O443 O 0.57635 0.8479 0.2504 0.0
O444 O 0.53446 0.81884 0.27003 0.0
Zn445 Zn 0.58271 0.8159 0.27121 0.0
O446 O 0.6048 0.83009 0.28577 0.0
C447 C 0.54226 0.7423 0.26153 0.0
O448 O 0.53295 0.76142 0.25492 0.0
O449 O 0.62246 0.85305 0.26109 0.0
C450 C 0.59136 0.80619 0.29332 0.0
O451 O 0.56124 0.77228 0.29165 0.0
C452 C 0.53097 0.84841 0.27063 0.0
O453 O 0.56117 0.88191 0.27265 0.0
O454 O 0.56678 0.76065 0.26867 0.0
C455 C 0.11793 0.74102 0.26852 0.0
O456 O 0.11426 0.7262 0.27798 0.0
O457 O 0.19096 0.70648 0.27083 0.0
Zn458 Zn 0.19268 0.75699 0.27274 0.0
O459 O 0.18517 0.76501 0.28799 0.0
C460 C 0.26206 0.79105 0.26085 0.0
O461 O 0.24087 0.76207 0.25458 0.0
O462 O 0.15085 0.75772 0.2642 0.0
C463 C 0.19399 0.79863 0.29086 0.0
O464 O 0.20845 0.82649 0.28387 0.0
C465 C 0.16415 0.67597 0.26676 0.0
O466 O 0.13231 0.67462 0.26384 0.0
O467 O 0.24628 0.79718 0.2687 0.0
H468 H 0.24075 0.15288 0.14039 0.0
H469 H 0.31853 0.11207 0.13275 0.0
H470 H 0.27917 0.18562 0.15586 0.0
H471 H 0.35619 0.14369 0.14837 0.0
H472 H 0.4381 0.23637 0.17045 0.0
H473 H 0.39923 0.20671 0.15482 0.0
H474 H 0.29671 0.17452 0.17296 0.0
H475 H 0.33559 0.20526 0.18846 0.0
C476 C 0.26574 0.15045 0.1421 0.0
C477 C 0.27666 0.12997 0.13534 0.0
C478 C 0.28774 0.16917 0.15098 0.0
C479 C 0.32097 0.16757 0.15332 0.0
C480 C 0.33128 0.14627 0.14667 0.0
C481 C 0.30948 0.12782 0.13777 0.0
C482 C 0.40729 0.22328 0.17107 0.0
C483 C 0.38995 0.22307 0.1807 0.0
C484 C 0.38496 0.20598 0.16214 0.0
C485 C 0.34479 0.18785 0.16266 0.0
C486 C 0.32755 0.18852 0.17224 0.0
C487 C 0.34989 0.20605 0.18115 0.0
H488 H 0.77523 0.14433 0.18574 0.0
H489 H 0.87766 0.25568 0.18741 0.0
H490 H 0.79431 0.13431 0.16834 0.0
H491 H 0.89626 0.24603 0.16987 0.0
H492 H 0.93641 0.19793 0.14314 0.0
H493 H 0.91819 0.20772 0.16073 0.0
H494 H 0.80065 0.15773 0.15051 0.0
H495 H 0.81865 0.14709 0.13304 0.0
C496 C 0.80172 0.16678 0.18237 0.0
C497 C 0.82493 0.20082 0.18795 0.0
C498 C 0.81256 0.16111 0.17237 0.0
C499 C 0.84675 0.18942 0.16771 0.0
C500 C 0.86999 0.22346 0.1733 0.0
C501 C 0.85922 0.22907 0.18333 0.0
C502 C 0.90668 0.18902 0.14465 0.0
C503 C 0.87896 0.17167 0.1367 0.0
C504 C 0.89628 0.19483 0.15471 0.0
C505 C 0.85796 0.18347 0.15702 0.0
C506 C 0.83031 0.16627 0.14904 0.0
C507 C 0.84068 0.16037 0.139 0.0
H508 H 0.83546 0.66816 0.1945 0.0
H509 H 0.78763 0.56411 0.17603 0.0
H510 H 0.84736 0.70554 0.17843 0.0
H511 H 0.80026 0.60177 0.1599 0.0
H512 H 0.79374 0.67815 0.13425 0.0
H513 H 0.77917 0.64115 0.15053 0.0
H514 H 0.88951 0.7243 0.16312 0.0
H515 H 0.90386 0.76169 0.14693 0.0
C516 C 0.82753 0.65323 0.18701 0.0
C517 C 0.81064 0.61312 0.18654 0.0
C518 C 0.83456 0.67473 0.17779 0.0
C519 C 0.82488 0.65665 0.16789 0.0
C520 C 0.80767 0.6165 0.16742 0.0
C521 C 0.80063 0.59495 0.17665 0.0
C522 C 0.81481 0.68868 0.14052 0.0
C523 C 0.84999 0.72288 0.1393 0.0
C524 C 0.80655 0.66731 0.14981 0.0
C525 C 0.83323 0.67971 0.1581 0.0
C526 C 0.86817 0.71419 0.15693 0.0
C527 C 0.87646 0.73554 0.14763 0.0
H528 H 0.19654 0.31145 0.35273 0.0
H529 H 0.07861 0.27814 0.34656 0.0
H530 H 0.21376 0.33644 0.33485 0.0
H531 H 0.09604 0.30424 0.32876 0.0
H532 H 0.13383 0.31489 0.29425 0.0
H533 H 0.11599 0.29099 0.31221 0.0
H534 H 0.22048 0.38777 0.3238 0.0
H535 H 0.23888 0.41104 0.30579 0.0
C536 C 0.17434 0.30973 0.34758 0.0
C537 C 0.13621 0.29273 0.35104 0.0
C538 C 0.18425 0.32429 0.33735 0.0
C539 C 0.15629 0.32241 0.33037 0.0
C540 C 0.11818 0.30564 0.33388 0.0
C541 C 0.10822 0.29084 0.34409 0.0
C542 C 0.15294 0.33113 0.30063 0.0
C543 C 0.18782 0.36477 0.2986 0.0
C544 C 0.14261 0.31754 0.31094 0.0
C545 C 0.16683 0.33743 0.31945 0.0
C546 C 0.20146 0.37142 0.31741 0.0
C547 C 0.2119 0.38488 0.3071 0.0
H548 H 0.65812 0.8283 0.3594 0.0
H549 H 0.7646 0.8782 0.342 0.0
H550 H 0.62293 0.81619 0.34294 0.0
H551 H 0.72916 0.86541 0.32548 0.0
H552 H 0.65594 0.87244 0.29902 0.0
H553 H 0.69052 0.88649 0.31568 0.0
H554 H 0.60697 0.77473 0.32748 0.0
H555 H 0.57199 0.76084 0.31089 0.0
C556 C 0.67405 0.83662 0.35206 0.0
C557 C 0.7142 0.85421 0.35201 0.0
C558 C 0.65381 0.82947 0.34262 0.0
C559 C 0.67324 0.83977 0.33291 0.0
C560 C 0.71341 0.85754 0.33285 0.0
C561 C 0.73369 0.86465 0.34231 0.0
C562 C 0.6448 0.85093 0.30519 0.0
C563 C 0.61121 0.81549 0.30362 0.0
C564 C 0.66479 0.8589 0.3147 0.0
C565 C 0.65159 0.83167 0.32288 0.0
C566 C 0.61767 0.79647 0.32137 0.0
C567 C 0.5977 0.78846 0.31185 0.0
H568 H 0.15619 0.79729 0.35858 0.0
H569 H 0.1355 0.88521 0.34622 0.0
H570 H 0.17109 0.78511 0.34087 0.0
H571 H 0.14931 0.87225 0.32847 0.0
H572 H 0.21558 0.86787 0.29997 0.0
H573 H 0.20218 0.88016 0.31784 0.0
H574 H 0.14113 0.7584 0.3242 0.0
H575 H 0.15549 0.74619 0.30642 0.0
C576 C 0.15453 0.81382 0.35207 0.0
C577 C 0.1447 0.84224 0.3538 0.0
C578 C 0.16289 0.8067 0.34191 0.0
C579 C 0.16143 0.82772 0.33325 0.0
C580 C 0.15131 0.85597 0.33498 0.0
C581 C 0.14314 0.86322 0.34515 0.0
C582 C 0.19941 0.84373 0.30519 0.0
C583 C 0.1866 0.80606 0.30178 0.0
C584 C 0.1915 0.85076 0.31542 0.0
C585 C 0.17043 0.82026 0.32244 0.0
C586 C 0.15785 0.78258 0.31904 0.0
C587 C 0.16594 0.77557 0.30883 0.0
H588 H 0.60277 0.76841 0.80757 0.0
H589 H 0.70237 0.8687 0.7951 0.0
H590 H 0.63008 0.78452 0.82521 0.0
H591 H 0.73 0.88445 0.81278 0.0
H592 H 0.7417 0.92191 0.84781 0.0
H593 H 0.71801 0.90628 0.82975 0.0
H594 H 0.6828 0.7874 0.83539 0.0
H595 H 0.70582 0.80281 0.85349 0.0
C596 C 0.63059 0.7938 0.80858 0.0
C597 C 0.65038 0.81732 0.79994 0.0
C598 C 0.64635 0.80288 0.81868 0.0
C599 C 0.68223 0.8357 0.82038 0.0
C600 C 0.70212 0.85917 0.81173 0.0
C601 C 0.68638 0.85004 0.80161 0.0
C602 C 0.72909 0.89248 0.84518 0.0
C603 C 0.72541 0.86355 0.8521 0.0
C604 C 0.71571 0.88358 0.83482 0.0
C605 C 0.69838 0.84558 0.83117 0.0
C606 C 0.69549 0.81684 0.83803 0.0
C607 C 0.70885 0.82572 0.84838 0.0
H608 H 0.19553 0.93104 0.85266 0.0
H609 H 0.09915 0.81547 0.85392 0.0
H610 H 0.20913 0.91985 0.83466 0.0
H611 H 0.11317 0.8042 0.83602 0.0
H612 H 0.12807 0.80878 0.80033 0.0
H613 H 0.11292 0.82376 0.8177 0.0
H614 H 0.23282 0.88121 0.82598 0.0
H615 H 0.24811 0.86681 0.80857 0.0
C616 C 0.17719 0.90331 0.84909 0.0
C617 C 0.14634 0.87411 0.85473 0.0
C618 C 0.18512 0.89685 0.83881 0.0
C619 C 0.1623 0.86112 0.83394 0.0
C620 C 0.13102 0.83218 0.83951 0.0
C621 C 0.12314 0.83859 0.8498 0.0
C622 C 0.15123 0.82476 0.80584 0.0
C623 C 0.18928 0.83651 0.80309 0.0
C624 C 0.14251 0.83317 0.8158 0.0
C625 C 0.17167 0.85358 0.82321 0.0
C626 C 0.20978 0.86582 0.8204 0.0
C627 C 0.2185 0.85735 0.81045 0.0
H628 H 0.07 0.22217 0.84838 0.0
H629 H 0.19068 0.28569 0.85578 0.0
H630 H 0.0834 0.25381 0.83112 0.0
H631 H 0.20394 0.31679 0.83854 0.0
H632 H 0.21349 0.33389 0.80243 0.0
H633 H 0.19813 0.29737 0.81887 0.0
H634 H 0.10987 0.32511 0.82547 0.0
H635 H 0.12539 0.36202 0.80907 0.0
C636 C 0.09937 0.24247 0.84627 0.0
C637 C 0.1293 0.25156 0.85342 0.0
C638 C 0.10696 0.2607 0.83644 0.0
C639 C 0.14466 0.28772 0.83355 0.0
C640 C 0.17466 0.29588 0.84057 0.0
C641 C 0.16703 0.2782 0.85044 0.0
C642 C 0.19075 0.33213 0.80737 0.0
C643 C 0.17075 0.35094 0.8045 0.0
C644 C 0.18206 0.31132 0.81678 0.0
C645 C 0.15279 0.30842 0.82339 0.0
C646 C 0.13233 0.32666 0.82044 0.0
C647 C 0.14142 0.34799 0.81112 0.0
H648 H 0.79582 0.66444 0.68375 0.0
H649 H 0.85106 0.59931 0.67602 0.0
H650 H 0.82271 0.70296 0.66788 0.0
H651 H 0.87837 0.63828 0.66021 0.0
H652 H 0.8771 0.68392 0.62684 0.0
H653 H 0.85507 0.64743 0.64316 0.0
H654 H 0.88477 0.75133 0.66029 0.0
H655 H 0.90643 0.78798 0.64388 0.0
C656 C 0.81378 0.65839 0.67868 0.0
C657 C 0.82117 0.62869 0.68113 0.0
C658 C 0.82945 0.6807 0.66964 0.0
C659 C 0.85274 0.67372 0.66282 0.0
C660 C 0.86024 0.64411 0.66527 0.0
C661 C 0.84467 0.62186 0.67434 0.0
C662 C 0.87917 0.69909 0.63409 0.0
C663 C 0.89334 0.73886 0.63405 0.0
C664 C 0.86674 0.67817 0.64345 0.0
C665 C 0.86808 0.69648 0.653 0.0
C666 C 0.88297 0.73637 0.65302 0.0
C667 C 0.89558 0.75738 0.64364 0.0
H668 H 0.31355 0.15472 0.68808 0.0
H669 H 0.41636 0.16126 0.67559 0.0
H670 H 0.28768 0.14599 0.67027 0.0
H671 H 0.39088 0.15346 0.65778 0.0
H672 H 0.31835 0.10027 0.62854 0.0
H673 H 0.34126 0.1057 0.64659 0.0
H674 H 0.29853 0.18209 0.65407 0.0
H675 H 0.2748 0.17595 0.63609 0.0
C676 C 0.33069 0.15444 0.68154 0.0
C677 C 0.36699 0.15867 0.68324 0.0
C678 C 0.31594 0.14962 0.67133 0.0
C679 C 0.33722 0.14901 0.66262 0.0
C680 C 0.37351 0.15321 0.66434 0.0
C681 C 0.38822 0.15793 0.67454 0.0
C682 C 0.31369 0.11809 0.63405 0.0
C683 C 0.29483 0.13773 0.63088 0.0
C684 C 0.32702 0.12138 0.64438 0.0
C685 C 0.32187 0.14447 0.65175 0.0
C686 C 0.30255 0.16371 0.64861 0.0
C687 C 0.28913 0.16034 0.63829 0.0
H688 H 0.87158 0.24266 0.68745 0.0
H689 H 0.75274 0.19296 0.67853 0.0
H690 H 0.88561 0.22394 0.67049 0.0
H691 H 0.76696 0.17421 0.66149 0.0
H692 H 0.80273 0.10491 0.63934 0.0
H693 H 0.7876 0.12679 0.65567 0.0
H694 H 0.88647 0.23916 0.65115 0.0
H695 H 0.90171 0.21742 0.63484 0.0
C696 C 0.8485 0.22797 0.68183 0.0
C697 C 0.81102 0.21917 0.68432 0.0
C698 C 0.8566 0.21743 0.67211 0.0
C699 C 0.82735 0.19754 0.66471 0.0
C700 C 0.78996 0.18924 0.66711 0.0
C701 C 0.7819 0.20019 0.67681 0.0
C702 C 0.82127 0.13426 0.64184 0.0
C703 C 0.85351 0.15941 0.63584 0.0
C704 C 0.8124 0.14684 0.65113 0.0
C705 C 0.83583 0.18467 0.65464 0.0
C706 C 0.86807 0.20978 0.64865 0.0
C707 C 0.87672 0.19734 0.63931 0.0
H708 H 0.9753 0.46385 0.5272 0.0
H709 H 0.07663 0.56135 0.51439 0.0
H710 H 0.9494 0.44505 0.50947 0.0
H711 H 0.05126 0.54189 0.49662 0.0
H712 H 0.9756 0.52147 0.46792 0.0
H713 H 0.00173 0.53926 0.48564 0.0
H714 H 0.95799 0.41981 0.49317 0.0
H715 H 0.93077 0.40192 0.47551 0.0
C716 C 0.99221 0.48107 0.52059 0.0
C717 C 0.02795 0.51416 0.5222 0.0
C718 C 0.97745 0.47016 0.51041 0.0
C719 C 0.99821 0.49199 0.50162 0.0
C720 C 0.03423 0.52479 0.50324 0.0
C721 C 0.04888 0.53583 0.51342 0.0
C722 C 0.97154 0.49899 0.47335 0.0
C723 C 0.95108 0.46029 0.47032 0.0
C724 C 0.98676 0.50921 0.4835 0.0
C725 C 0.98209 0.48098 0.49082 0.0
C726 C 0.96167 0.44224 0.48777 0.0
C727 C 0.94623 0.43199 0.47763 0.0
H728 H 0.54241 0.56355 0.52492 0.0
H729 H 0.4238 0.47667 0.52059 0.0
H730 H 0.55815 0.54718 0.50786 0.0
H731 H 0.43951 0.4608 0.50342 0.0
H732 H 0.48947 0.41484 0.47881 0.0
H733 H 0.47473 0.43114 0.49606 0.0
H734 H 0.54739 0.55155 0.48909 0.0
H735 H 0.56269 0.53535 0.47195 0.0
C736 C 0.51964 0.54114 0.5203 0.0
C737 C 0.48186 0.5214 0.52412 0.0
C738 C 0.52865 0.53187 0.5105 0.0
C739 C 0.5001 0.50263 0.5043 0.0
C740 C 0.46224 0.48309 0.50808 0.0
C741 C 0.45321 0.4924 0.51788 0.0
C742 C 0.50246 0.44478 0.48098 0.0
C743 C 0.52722 0.47379 0.474 0.0
C744 C 0.49379 0.45411 0.49083 0.0
C745 C 0.50977 0.49263 0.49392 0.0
C746 C 0.53492 0.5216 0.48699 0.0
C747 C 0.54355 0.51229 0.47714 0.0
H748 H 0.44118 0.01318 0.46996 0.0
H749 H 0.5557 0.09605 0.48004 0.0
H750 H 0.43133 0.97737 0.48628 0.0
H751 H 0.54597 0.05985 0.49628 0.0
H752 H 0.50294 0.00392 0.5284 0.0
H753 H 0.50903 0.04142 0.51271 0.0
H754 H 0.45549 0.93777 0.49407 0.0
H755 H 0.44877 0.90004 0.50982 0.0
C756 C 0.46419 0.0239 0.47569 0.0
C757 C 0.49931 0.05741 0.47369 0.0
C758 C 0.4586 0.00321 0.485 0.0
C759 C 0.48796 0.01562 0.49253 0.0
C760 C 0.52268 0.04972 0.49067 0.0
C761 C 0.5283 0.0704 0.48135 0.0
C762 C 0.49232 0.98905 0.52097 0.0
C763 C 0.47543 0.94896 0.52035 0.0
C764 C 0.496 0.01061 0.51197 0.0
C765 C 0.48282 0.99258 0.50215 0.0
C766 C 0.46552 0.95245 0.50155 0.0
C767 C 0.46188 0.93085 0.51056 0.0
H768 H 0.55435 0.02537 0.02227 0.0
H769 H 0.44493 0.94521 0.00853 0.0
H770 H 0.57716 0.05532 0.00503 0.0
H771 H 0.46766 0.97545 0.99135 0.0
H772 H 0.53574 0.00998 0.96063 0.0
H773 H 0.51505 0.98127 0.97803 0.0
H774 H 0.56499 0.09403 0.99195 0.0
H775 H 0.58617 0.12298 0.9745 0.0
C776 C 0.53513 0.01421 0.01558 0.0
C777 C 0.49786 0.98284 0.01676 0.0
C778 C 0.54815 0.0315 0.00573 0.0
C779 C 0.52424 0.01764 -0.00316 0.0
C780 C 0.48691 0.98643 -0.00197 0.0
C781 C 0.47383 0.96925 0.00789 0.0
C782 C 0.54251 0.02873 0.96739 0.0
C783 C 0.56252 0.06879 0.96618 0.0
C784 C 0.53041 0.01223 0.97735 0.0
C785 C 0.53816 0.0354 0.98633 0.0
C786 C 0.55883 0.07547 0.98517 0.0
C787 C 0.57082 0.09202 0.97518 0.0
H788 H 0.93651 0.51167 0.9728 0.0
H789 H 0.00225 0.45669 0.96563 0.0
H790 H 0.96024 0.52245 0.99086 0.0
H791 H 0.02509 0.4664 0.98378 0.0
H792 H 0.08871 0.52448 0.01403 0.0
H793 H 0.0664 0.51586 -0.00416 0.0
H794 H 0.95384 0.48777 0.0068 0.0
H795 H 0.97648 0.49754 0.02496 0.0
C796 C 0.95587 0.50169 0.9751 0.0
C797 C 0.9675 0.48331 0.96779 0.0
C798 C 0.96931 0.50768 0.98547 0.0
C799 C 0.99449 0.4952 0.98878 0.0
C800 C 0.00616 0.47687 0.98145 0.0
C801 C 0.9929 0.4711 0.97106 0.0
C802 C 0.05922 0.51652 0.01255 0.0
C803 C 0.03436 0.51173 0.02093 0.0
C804 C 0.04637 0.51136 0.00213 0.0
C805 C 0.00831 0.50106 -0.00014 0.0
C806 C 0.98348 0.49627 0.00826 0.0
C807 C 0.9964 0.50167 0.01868 0.0
H808 H 0.47135 0.40132 0.9779 0.0
H809 H 0.52733 0.52076 0.96886 0.0
H810 H 0.46462 0.41861 -0.00411 0.0
H811 H 0.52152 0.5381 0.98689 0.0
H812 H 0.47182 0.55247 0.01758 0.0
H813 H 0.47455 0.53332 -0.00049 0.0
H814 H 0.504 0.45052 0.01107 0.0
H815 H 0.50026 0.46895 0.02915 0.0
C816 C 0.4823 0.43127 0.97976 0.0
C817 C 0.49988 0.45968 0.97196 0.0
C818 C 0.47863 0.44119 0.99008 0.0
C819 C 0.49259 0.47974 0.99283 0.0
C820 C 0.50997 0.50809 0.985 0.0
C821 C 0.5135 0.49816 0.97468 0.0
C822 C 0.47876 0.5301 0.01627 0.0
C823 C 0.48587 0.51225 0.02479 0.0
C824 C 0.48053 0.51927 0.00591 0.0
C825 C 0.4896 0.49047 0.00385 0.0
C826 C 0.49642 0.47244 0.01239 0.0
C827 C 0.49451 0.48317 0.02275 0.0
H828 H 0.38097 0.08441 0.10299 0.0
H829 H 0.31582 0.08487 0.07599 0.0
H830 H 0.41738 0.06533 0.09166 0.0
H831 H 0.35153 0.06496 0.06474 0.0
H832 H 0.43104 0.0446 0.04526 0.0
H833 H 0.41196 0.0803 0.05686 0.0
H834 H 0.4015 0.00598 0.0828 0.0
H835 H 0.42149 0.9709 0.07126 0.0
C836 C 0.37474 0.08093 0.09461 0.0
C837 C 0.34517 0.08569 0.0904 0.0
C838 C 0.39549 0.0698 0.08814 0.0
C839 C 0.38708 0.06318 0.07732 0.0
C840 C 0.35903 0.07015 0.07302 0.0
C841 C 0.33836 0.08137 0.07948 0.0
C842 C 0.42527 0.03627 0.05348 0.0
C843 C 0.42729 0.00462 0.05732 0.0
C844 C 0.41419 0.05665 0.06011 0.0
C845 C 0.40473 0.04572 0.07071 0.0
C846 C 0.4089 0.01542 0.07469 0.0
C847 C 0.42018 0.99514 0.06807 0.0
H848 H 0.97604 0.3848 0.04853 0.0
H849 H 0.03193 0.45224 0.07624 0.0
H850 H 0.9398 0.32834 0.05957 0.0
H851 H 0.99657 0.39563 0.08724 0.0
H852 H 0.91989 0.29251 0.10602 0.0
H853 H 0.93669 0.34682 0.09438 0.0
H854 H 0.95689 0.28752 0.06898 0.0
H855 H 0.93905 0.23289 0.08052 0.0
C856 C 0.98027 0.38768 0.057 0.0
C857 C 0.00721 0.42287 0.06151 0.0
C858 C 0.95962 0.35526 0.06332 0.0
C859 C 0.96561 0.35727 0.07428 0.0
C860 C 0.99091 0.39305 0.07884 0.0
C861 C 0.01139 0.42555 0.07252 0.0
C862 C 0.92719 0.29078 0.09789 0.0
C863 C 0.92866 0.25862 0.09423 0.0
C864 C 0.93703 0.32201 0.09124 0.0
C865 C 0.94873 0.32183 0.0808 0.0
C866 C 0.94773 0.28858 0.07695 0.0
C867 C 0.93766 0.25725 0.08359 0.0
H868 H 0.62241 0.59781 0.04803 0.0
H869 H 0.56136 0.57548 0.07761 0.0
H870 H 0.68138 0.61591 0.05757 0.0
H871 H 0.62064 0.59431 0.08716 0.0
H872 H 0.73035 0.61398 0.10187 0.0
H873 H 0.6724 0.58081 0.09119 0.0
H874 H 0.72228 0.67217 0.06818 0.0
H875 H 0.78019 0.70496 0.07872 0.0
C876 C 0.62148 0.59638 0.05657 0.0
C877 C 0.58733 0.58576 0.06208 0.0
C878 C 0.65531 0.60685 0.06203 0.0
C879 C 0.65578 0.607 0.07311 0.0
C880 C 0.62117 0.59423 0.07861 0.0
C881 C 0.58723 0.58365 0.07315 0.0
C882 C 0.72922 0.62661 0.09443 0.0
C883 C 0.75972 0.66231 0.09119 0.0
C884 C 0.69593 0.6077 0.08836 0.0
C885 C 0.69264 0.624 0.07889 0.0
C886 C 0.72401 0.65863 0.07538 0.0
C887 C 0.75717 0.67757 0.08146 0.0
H888 H 0.99085 0.43519 0.41819 0.0
H889 H 0.98147 0.34577 0.43893 0.0
H890 H 0.03278 0.42443 0.40653 0.0
H891 H 0.02147 0.33379 0.42716 0.0
H892 H 0.10029 0.3194 0.40663 0.0
H893 H 0.08053 0.35167 0.41931 0.0
H894 H 0.02351 0.37678 0.39431 0.0
H895 H 0.04492 0.34648 0.38165 0.0
C896 C 0.99797 0.41347 0.42029 0.0
C897 C 0.98245 0.39099 0.4294 0.0
C898 C 0.02185 0.40716 0.4136 0.0
C899 C 0.0303 0.37795 0.41582 0.0
C900 C 0.01623 0.35692 0.42523 0.0
C901 C 0.99283 0.36353 0.43196 0.0
C902 C 0.08428 0.33262 0.40383 0.0
C903 C 0.07362 0.32985 0.39319 0.0
C904 C 0.07273 0.35092 0.4111 0.0
C905 C 0.0497 0.36619 0.4079 0.0
C906 C 0.04143 0.36572 0.3971 0.0
C907 C 0.0535 0.348 0.38982 0.0
H908 H 0.54604 0.55972 0.41924 0.0
H909 H 0.64148 0.62873 0.43985 0.0
H910 H 0.56076 0.61688 0.409 0.0
H911 H 0.65701 0.68513 0.42947 0.0
H912 H 0.67081 0.78726 0.41265 0.0
H913 H 0.64044 0.73117 0.42414 0.0
H914 H 0.60884 0.6573 0.3968 0.0
H915 H 0.63762 0.71309 0.38537 0.0
C916 C 0.57001 0.58707 0.42161 0.0
C917 C 0.59277 0.58964 0.4303 0.0
C918 C 0.57856 0.6198 0.41572 0.0
C919 C 0.6102 0.65567 0.41837 0.0
C920 C 0.63206 0.65824 0.42728 0.0
C921 C 0.62335 0.6257 0.43319 0.0
C922 C 0.65674 0.75902 0.40911 0.0
C923 C 0.65705 0.75463 0.39812 0.0
C924 C 0.63953 0.72685 0.41569 0.0
C925 C 0.62266 0.68964 0.41142 0.0
C926 C 0.62117 0.6854 0.40039 0.0
C927 C 0.63799 0.71751 0.39382 0.0
H928 H 0.34389 0.985 0.44013 0.0
H929 H 0.42326 0.00154 0.41501 0.0
H930 H 0.29057 0.9492 0.42826 0.0
H931 H 0.36959 0.96411 0.40316 0.0
H932 H 0.27084 0.95621 0.38285 0.0
H933 H 0.32531 0.97644 0.3944 0.0
H934 H 0.25218 0.89419 0.41785 0.0
H935 H 0.19695 0.87493 0.40635 0.0
C936 C 0.34996 0.98027 0.43212 0.0
C937 C 0.38783 0.99665 0.42846 0.0
C938 C 0.31926 0.95936 0.42531 0.0
C939 C 0.32567 0.95396 0.4147 0.0
C940 C 0.36361 0.96838 0.41123 0.0
C941 C 0.39438 0.98969 0.41802 0.0
C942 C 0.26633 0.94201 0.39041 0.0
C943 C 0.22943 0.9144 0.39376 0.0
C944 C 0.29778 0.95341 0.39702 0.0
C945 C 0.29321 0.93721 0.40712 0.0
C946 C 0.25661 0.9078 0.4102 0.0
C947 C 0.22498 0.89659 0.4036 0.0
H948 H 0.68396 0.90925 0.9071 0.0
H949 H 0.62609 0.902 0.87776 0.0
H950 H 0.6412 0.92572 0.91634 0.0
H951 H 0.58324 0.91831 0.88705 0.0
H952 H 0.57526 0.01724 0.90481 0.0
H953 H 0.59847 0.98099 0.89501 0.0
H954 H 0.57396 0.90556 0.92173 0.0
H955 H 0.55077 0.94191 0.93159 0.0
C956 C 0.66161 0.91034 0.90266 0.0
C957 C 0.65884 0.90494 0.89168 0.0
C958 C 0.63693 0.91953 0.90797 0.0
C959 C 0.60912 0.92364 0.90239 0.0
C960 C 0.60473 0.91577 0.89152 0.0
C961 C 0.62924 0.90635 0.88622 0.0
C962 C 0.574 0.99241 0.90852 0.0
C963 C 0.56171 0.98279 0.91902 0.0
C964 C 0.58709 0.97149 0.90288 0.0
C965 C 0.58836 0.94066 0.90765 0.0
C966 C 0.57369 0.92946 0.91791 0.0
C967 C 0.56025 0.9502 0.92352 0.0
H968 H 0.98896 0.54825 0.91338 0.0
H969 H 0.0063 0.62199 0.94007 0.0
H970 H 0.02707 0.60462 0.90237 0.0
H971 H 0.04276 0.67789 0.92907 0.0
H972 H 0.11736 0.7765 0.90876 0.0
H973 H 0.0979 0.71822 0.91899 0.0
H974 H 0.01565 0.65166 0.89481 0.0
H975 H 0.03611 0.70927 0.88449 0.0
C976 C 0.00118 0.57643 0.91692 0.0
C977 C 0.99415 0.58065 0.92755 0.0
C978 C 0.02286 0.60875 0.9106 0.0
C979 C 0.03768 0.6459 0.91479 0.0
C980 C 0.0323 0.64988 0.92557 0.0
C981 C 0.01097 0.61767 0.93188 0.0
C982 C 0.09565 0.74928 0.90557 0.0
C983 C 0.07789 0.74759 0.8959 0.0
C984 C 0.08434 0.71589 0.91144 0.0
C985 C 0.05481 0.68022 0.9078 0.0
C986 C 0.03874 0.67842 0.89784 0.0
C987 C 0.05027 0.71166 0.89194 0.0
H988 H 0.35953 0.35209 0.94221 0.0
H989 H 0.43855 0.43053 0.91901 0.0
H990 H 0.30625 0.33958 0.93096 0.0
H991 H 0.3846 0.41916 0.9078 0.0
H992 H 0.28571 0.3362 0.88553 0.0
H993 H 0.34083 0.36776 0.89707 0.0
H994 H 0.26696 0.3597 0.92289 0.0
H995 H 0.2114 0.32628 0.91139 0.0
C996 C 0.36552 0.36735 0.93478 0.0
C997 C 0.40333 0.39185 0.93143 0.0
C998 C 0.33479 0.36047 0.92835 0.0
C999 C 0.34099 0.37821 0.91842 0.0
C1000 C 0.3788 0.4045 0.91532 0.0
C1001 C 0.40971 0.41117 0.92176 0.0
C1002 C 0.28125 0.34173 0.89362 0.0
C1003 C 0.24414 0.32806 0.89761 0.0
C1004 C 0.313 0.36018 0.90024 0.0
C1005 C 0.30839 0.3658 0.91098 0.0
C1006 C 0.27147 0.35494 0.91473 0.0
C1007 C 0.23963 0.33597 0.90814 0.0
H1008 H 0.92573 0.71189 0.57308 0.0
H1009 H 0.87968 0.62157 0.59647 0.0
H1010 H 0.95076 0.67763 0.56318 0.0
H1011 H 0.90437 0.5869 0.58642 0.0
H1012 H 0.01009 0.57817 0.57417 0.0
H1013 H 0.96929 0.59815 0.58307 0.0
H1014 H 0.93523 0.6209 0.55285 0.0
H1015 H 0.97649 0.60172 0.54398 0.0
C1016 C 0.92025 0.68433 0.576 0.0
C1017 C 0.90103 0.66967 0.58562 0.0
C1018 C 0.93443 0.66454 0.57029 0.0
C1019 C 0.92974 0.62962 0.57405 0.0
C1020 C 0.90885 0.61397 0.58339 0.0
C1021 C 0.8945 0.63375 0.5891 0.0
C1022 C 0.99335 0.58677 0.56943 0.0
C1023 C 0.997 0.58901 0.55839 0.0
C1024 C 0.96981 0.59805 0.57453 0.0
C1025 C 0.94942 0.6116 0.56866 0.0
C1026 C 0.95117 0.61133 0.55759 0.0
C1027 C 0.97474 0.60023 0.55252 0.0
H1028 H 0.38051 0.28514 0.60745 0.0
H1029 H 0.33113 0.23245 0.57746 0.0
H1030 H 0.42163 0.34579 0.59853 0.0
H1031 H 0.37193 0.29325 0.56858 0.0
H1032 H 0.45836 0.40376 0.5541 0.0
H1033 H 0.43708 0.34426 0.56385 0.0
H1034 H 0.40544 0.39075 0.59018 0.0
H1035 H 0.42703 0.45027 0.58052 0.0
C1036 C 0.37884 0.2863 0.59893 0.0
C1037 C 0.35209 0.25412 0.59318 0.0
C1038 C 0.40235 0.3211 0.59384 0.0
C1039 C 0.3997 0.32444 0.58288 0.0
C1040 C 0.37487 0.29157 0.57703 0.0
C1041 C 0.3513 0.25673 0.58213 0.0
C1042 C 0.44766 0.40163 0.56206 0.0
C1043 C 0.44385 0.43156 0.56648 0.0
C1044 C 0.43529 0.36744 0.56761 0.0
C1045 C 0.41915 0.36263 0.57772 0.0
C1046 C 0.41798 0.39361 0.58243 0.0
C1047 C 0.43018 0.42771 0.57686 0.0
H1048 H 0.7296 0.11098 0.60471 0.0
H1049 H 0.78346 0.0774 0.58077 0.0
H1050 H 0.67263 0.08723 0.59372 0.0
H1051 H 0.72635 0.05323 0.56988 0.0
H1052 H 0.62672 0.03173 0.54961 0.0
H1053 H 0.68519 0.06982 0.55968 0.0
H1054 H 0.62258 0.02221 0.58867 0.0
H1055 H 0.56391 0.98451 0.57861 0.0
C1056 C 0.72953 0.09904 0.59704 0.0
C1057 C 0.76091 0.0957 0.59366 0.0
C1058 C 0.69679 0.08524 0.59078 0.0
C1059 C 0.69486 0.06802 0.58099 0.0
C1060 C 0.72705 0.06663 0.57736 0.0
C1061 C 0.75975 0.08033 0.58362 0.0
C1062 C 0.62529 0.02972 0.55814 0.0
C1063 C 0.59075 0.0048 0.56331 0.0
C1064 C 0.65885 0.05147 0.5639 0.0
C1065 C 0.65856 0.0488 0.57495 0.0
C1066 C 0.62366 0.02519 0.58016 0.0
C1067 C 0.59008 0.0034 0.57439 0.0
H1068 H 0.77042 0.66536 0.73647 0.0
H1069 H 0.68905 0.65898 0.71326 0.0
H1070 H 0.7519 0.70141 0.74817 0.0
H1071 H 0.66956 0.69354 0.72505 0.0
H1072 H 0.651 0.77172 0.74592 0.0
H1073 H 0.68478 0.75183 0.73376 0.0
H1074 H 0.69752 0.68602 0.75875 0.0
H1075 H 0.66527 0.70692 0.77089 0.0
C1076 C 0.74872 0.67179 0.73385 0.0
C1077 C 0.73091 0.65897 0.724 0.0
C1078 C 0.73799 0.69232 0.74056 0.0
C1079 C 0.70899 0.70013 0.7376 0.0
C1080 C 0.69234 0.68856 0.72755 0.0
C1081 C 0.7033 0.66838 0.72082 0.0
C1082 C 0.66159 0.75351 0.74883 0.0
C1083 C 0.65509 0.74056 0.75933 0.0
C1084 C 0.68076 0.74193 0.74186 0.0
C1085 C 0.69359 0.71701 0.74524 0.0
C1086 C 0.68854 0.70559 0.75588 0.0
C1087 C 0.66968 0.71734 0.76284 0.0
H1088 H 0.31168 0.03183 0.71119 0.0
H1089 H 0.36755 0.1031 0.73831 0.0
H1090 H 0.27211 0.97815 0.72281 0.0
H1091 H 0.3287 0.04917 0.74993 0.0
H1092 H 0.24216 0.95222 0.76932 0.0
H1093 H 0.26595 0.00509 0.75677 0.0
H1094 H 0.28397 0.93648 0.73378 0.0
H1095 H 0.25928 0.88334 0.74621 0.0
C1096 C 0.31531 0.03614 0.71964 0.0
C1097 C 0.34305 0.0716 0.72383 0.0
C1098 C 0.29272 0.0053 0.7263 0.0
C1099 C 0.29747 0.0092 0.7373 0.0
C1100 C 0.32397 0.04524 0.7415 0.0
C1101 C 0.34644 0.07615 0.73484 0.0
C1102 C 0.25055 0.94818 0.76151 0.0
C1103 C 0.24925 0.91373 0.7588 0.0
C1104 C 0.26441 0.97859 0.75435 0.0
C1105 C 0.27739 0.97525 0.74433 0.0
C1106 C 0.27393 0.93997 0.7414 0.0
C1107 C 0.2599 0.90949 0.74855 0.0
H1108 H 0.89272 0.22401 0.74047 0.0
H1109 H 0.96613 0.31345 0.71867 0.0
H1110 H 0.94785 0.24014 0.7517 0.0
H1111 H 0.02064 0.33055 0.73002 0.0
H1112 H 0.1182 0.35123 0.75039 0.0
H1113 H 0.06557 0.31652 0.73798 0.0
H1114 H 0.98428 0.29219 0.76321 0.0
H1115 H 0.03641 0.32529 0.77556 0.0
C1116 C 0.92065 0.24687 0.73803 0.0
C1117 C 0.92498 0.26785 0.72878 0.0
C1118 C 0.95222 0.25622 0.74448 0.0
C1119 C 0.98864 0.287 0.74185 0.0
C1120 C 0.9932 0.30642 0.73227 0.0
C1121 C 0.96177 0.29683 0.72579 0.0
C1122 C 0.08905 0.3378 0.75329 0.0
C1123 C 0.08146 0.34149 0.76392 0.0
C1124 C 0.0589 0.31807 0.74618 0.0
C1125 C 0.02064 0.30188 0.74956 0.0
C1126 C 0.01327 0.30381 0.76032 0.0
C1127 C 0.04329 0.32322 0.76741 0.0
H1128 H 0.27878 0.20879 0.2209 0.0
H1129 H 0.37268 0.25526 0.24309 0.0
H1130 H 0.24354 0.22903 0.23238 0.0
H1131 H 0.33775 0.27572 0.25445 0.0
H1132 H 0.26538 0.29975 0.27539 0.0
H1133 H 0.28179 0.25781 0.26568 0.0
H1134 H 0.25538 0.29417 0.23635 0.0
H1135 H 0.2384 0.3357 0.24606 0.0
C1136 C 0.29157 0.22256 0.22832 0.0
C1137 C 0.32875 0.23094 0.23102 0.0
C1138 C 0.27144 0.2343 0.23486 0.0
C1139 C 0.28801 0.25428 0.24426 0.0
C1140 C 0.32402 0.26011 0.2473 0.0
C1141 C 0.34419 0.24861 0.24075 0.0
C1142 C 0.26235 0.29825 0.26688 0.0
C1143 C 0.2513 0.32159 0.26147 0.0
C1144 C 0.27182 0.27426 0.26133 0.0
C1145 C 0.2704 0.2731 0.25025 0.0
C1146 C 0.25654 0.29423 0.24489 0.0
C1147 C 0.24704 0.31824 0.25045 0.0
H1148 H 0.69107 0.90163 0.25435 0.0
H1149 H 0.59799 0.90898 0.23988 0.0
H1150 H 0.73639 0.96631 0.24789 0.0
H1151 H 0.64313 0.97348 0.2337 0.0
H1152 H 0.72397 0.10141 0.24027 0.0
H1153 H 0.68769 0.03586 0.24679 0.0
H1154 H 0.7562 0.00429 0.22776 0.0
H1155 H 0.79247 0.07006 0.22096 0.0
C1156 C 0.68038 0.91676 0.24967 0.0
C1157 C 0.64093 0.90031 0.24767 0.0
C1158 C 0.70629 0.95364 0.246 0.0
C1159 C 0.69296 0.97474 0.24046 0.0
C1160 C 0.65388 0.95773 0.23807 0.0
C1161 C 0.62814 0.92074 0.24155 0.0
C1162 C 0.73198 0.08086 0.23761 0.0
C1163 C 0.76083 0.09088 0.22998 0.0
C1164 C 0.71103 0.04331 0.24131 0.0
C1165 C 0.71893 0.01521 0.23762 0.0
C1166 C 0.74963 0.02563 0.23065 0.0
C1167 C 0.77031 0.0632 0.2268 0.0
H1168 H 0.95573 0.67174 0.21833 0.0
H1169 H 0.88558 0.65904 0.24551 0.0
H1170 H 0.01262 0.70245 0.22921 0.0
H1171 H 0.94301 0.69163 0.2564 0.0
H1172 H 0.04361 0.69389 0.27412 0.0
H1173 H 0.98685 0.67593 0.26369 0.0
H1174 H 0.0568 0.75515 0.23924 0.0
H1175 H 0.11412 0.77183 0.24956 0.0
C1176 C 0.95251 0.67627 0.22661 0.0
C1177 C 0.91606 0.6625 0.23109 0.0
C1178 C 0.98531 0.69425 0.23285 0.0
C1179 C 0.98257 0.69938 0.24373 0.0
C1180 C 0.94618 0.68745 0.2481 0.0
C1181 C 0.91325 0.66897 0.24186 0.0
C1182 C 0.04694 0.70782 0.26656 0.0
C1183 C 0.08343 0.73396 0.26261 0.0
C1184 C 0.01422 0.69774 0.2606 0.0
C1185 C 0.01708 0.71389 0.25057 0.0
C1186 C 0.05353 0.74154 0.24684 0.0
C1187 C 0.08639 0.75129 0.25277 0.0
H1188 H 0.04332 0.18946 0.09469 0.0
H1189 H 0.07149 0.19922 0.12788 0.0
H1190 H 0.10235 0.18984 0.09046 0.0
H1191 H 0.13028 0.19892 0.12363 0.0
H1192 H 0.1718 0.12591 0.0909 0.0
H1193 H 0.12192 0.14232 0.09307 0.0
H1194 H 0.19349 0.23201 0.11497 0.0
H1195 H 0.24347 0.21516 0.11291 0.0
C1196 C 0.06226 0.19204 0.10109 0.0
C1197 C 0.05244 0.1938 0.11165 0.0
C1198 C 0.09607 0.19217 0.09865 0.0
C1199 C 0.12084 0.19405 0.1067 0.0
C1200 C 0.11199 0.1978 0.11722 0.0
C1201 C 0.07814 0.1977 0.11967 0.0
C1202 C 0.17727 0.14966 0.09601 0.0
C1203 C 0.21145 0.16898 0.1018 0.0
C1204 C 0.1487 0.15921 0.09722 0.0
C1205 C 0.1536 0.18826 0.10427 0.0
C1206 C 0.1887 0.20914 0.10959 0.0
C1207 C 0.21744 0.1997 0.10833 0.0
H1208 H 0.87348 0.04355 0.09671 0.0
H1209 H 0.89008 0.04038 0.1303 0.0
H1210 H 0.84785 0.97419 0.09579 0.0
H1211 H 0.86496 0.97166 0.12937 0.0
H1212 H 0.79662 0.84375 0.12614 0.0
H1213 H 0.80754 0.90908 0.12586 0.0
H1214 H 0.87736 0.93337 0.09791 0.0
H1215 H 0.8662 0.86818 0.09809 0.0
C1216 C 0.8712 0.02802 0.1039 0.0
C1217 C 0.88412 0.04747 0.11356 0.0
C1218 C 0.8567 0.98839 0.10337 0.0
C1219 C 0.85449 0.96749 0.11251 0.0
C1220 C 0.86586 0.98679 0.12221 0.0
C1221 C 0.88059 0.0263 0.12272 0.0
C1222 C 0.81387 0.86287 0.11985 0.0
C1223 C 0.83087 0.85088 0.11221 0.0
C1224 C 0.82021 0.90031 0.11972 0.0
C1225 C 0.84347 0.92643 0.11189 0.0
C1226 C 0.85899 0.91386 0.10398 0.0
C1227 C 0.85284 0.87655 0.10414 0.0
H1228 H 0.97273 0.79266 0.11173 0.0
H1229 H 0.97146 0.85635 0.08443 0.0
H1230 H 0.04047 0.83884 0.11435 0.0
H1231 H 0.03873 0.90274 0.08718 0.0
H1232 H 0.16467 0.9746 0.0914 0.0
H1233 H 0.10438 0.91663 0.08747 0.0
H1234 H 0.0737 0.90496 0.1205 0.0
H1235 H 0.13433 0.96245 0.12447 0.0
C1236 C 0.98703 0.81608 0.10617 0.0
C1237 C 0.96656 0.82108 0.09794 0.0
C1238 C 0.02578 0.84269 0.10773 0.0
C1239 C 0.04489 0.87475 0.10107 0.0
C1240 C 0.02502 0.87825 0.09242 0.0
C1241 C 0.98632 0.8517 0.09087 0.0
C1242 C 0.14532 0.95935 0.09785 0.0
C1243 C 0.1541 0.97343 0.10824 0.0
C1244 C 0.1107 0.92619 0.09558 0.0
C1245 C 0.08404 0.90637 0.10364 0.0
C1246 C 0.09374 0.9193 0.11411 0.0
C1247 C 0.12843 0.95244 0.11639 0.0
H1248 H 0.15905 0.19294 0.37656 0.0
H1249 H 0.08245 0.1263 0.40184 0.0
H1250 H 0.17562 0.14313 0.37382 0.0
H1251 H 0.09842 0.07634 0.39896 0.0
H1252 H 0.14595 0.99812 0.39505 0.0
H1253 H 0.14628 0.05702 0.39951 0.0
H1254 H 0.14027 0.07884 0.36638 0.0
H1255 H 0.14078 0.02032 0.36188 0.0
C1256 C 0.14624 0.168 0.38165 0.0
C1257 C 0.11904 0.16337 0.38934 0.0
C1258 C 0.15553 0.13933 0.38003 0.0
C1259 C 0.13793 0.10552 0.38606 0.0
C1260 C 0.11272 0.10211 0.39421 0.0
C1261 C 0.10342 0.13074 0.39584 0.0
C1262 C 0.14516 0.0157 0.3887 0.0
C1263 C 0.14292 0.0043 0.3781 0.0
C1264 C 0.14523 0.04941 0.39127 0.0
C1265 C 0.14301 0.07249 0.38332 0.0
C1266 C 0.14244 0.06195 0.3727 0.0
C1267 C 0.14245 0.02823 0.37012 0.0
H1268 H 0.9824 0.1249 0.38618 0.0
H1269 H 0.92318 0.18682 0.37934 0.0
H1270 H 0.92146 0.06646 0.38869 0.0
H1271 H 0.86172 0.12784 0.38195 0.0
H1272 H 0.76958 0.00041 0.37217 0.0
H1273 H 0.82459 0.06522 0.37256 0.0
H1274 H 0.8658 0.03709 0.40068 0.0
H1275 H 0.81115 0.97216 0.40024 0.0
C1276 C 0.95635 0.12611 0.38526 0.0
C1277 C 0.95767 0.16052 0.3825 0.0
C1278 C 0.92137 0.09263 0.38681 0.0
C1279 C 0.88676 0.09259 0.3856 0.0
C1280 C 0.88795 0.12701 0.38291 0.0
C1281 C 0.92311 0.16074 0.38143 0.0
C1282 C 0.78986 0.00827 0.37858 0.0
C1283 C 0.78633 0.98086 0.38606 0.0
C1284 C 0.82135 0.0455 0.37882 0.0
C1285 C 0.84988 0.05599 0.38653 0.0
C1286 C 0.84466 0.02955 0.39451 0.0
C1287 C 0.8132 0.9924 0.39428 0.0
H1288 H 0.9979 0.8106 0.38036 0.0
H1289 H 0.01749 0.88818 0.40625 0.0
H1290 H 0.93185 0.79695 0.37906 0.0
H1291 H 0.95159 0.87434 0.40495 0.0
H1292 H 0.85953 0.88875 0.38776 0.0
H1293 H 0.92099 0.893 0.39073 0.0
H1294 H 0.86753 0.76988 0.38842 0.0
H1295 H 0.80544 0.76542 0.38543 0.0
C1296 C 0.98793 0.82409 0.38593 0.0
C1297 C 0.01316 0.85092 0.39331 0.0
C1298 C 0.95007 0.8162 0.38518 0.0
C1299 C 0.93683 0.83512 0.39178 0.0
C1300 C 0.96128 0.85991 0.39963 0.0
C1301 C -0.00102 0.86763 0.40041 0.0
C1302 C 0.86072 0.86249 0.38785 0.0
C1303 C 0.8275 0.82671 0.38637 0.0
C1304 C 0.89594 0.86494 0.38966 0.0
C1305 C 0.89896 0.83173 0.38995 0.0
C1306 C 0.86598 0.79593 0.38825 0.0
C1307 C 0.8305 0.79342 0.38654 0.0
H1308 H 0.80384 0.83096 0.88196 0.0
H1309 H 0.87481 0.91348 0.90557 0.0
H1310 H 0.85128 0.81088 0.87995 0.0
H1311 H 0.92247 0.89402 0.90339 0.0
H1312 H 0.99708 0.84189 0.90085 0.0
H1313 H 0.93992 0.8451 0.90515 0.0
H1314 H 0.91435 0.84171 0.87192 0.0
H1315 H 0.97098 0.83759 0.86762 0.0
C1316 C 0.82923 0.84437 0.88686 0.0
C1317 C 0.83578 0.8742 0.89383 0.0
C1318 C 0.85654 0.83303 0.88564 0.0
C1319 C 0.89093 0.85125 0.89138 0.0
C1320 C 0.89621 0.8792 0.89888 0.0
C1321 C 0.86889 0.89049 0.90011 0.0
C1322 C 0.97899 0.84133 0.89446 0.0
C1323 C 0.9888 0.83989 0.88388 0.0
C1324 C 0.9463 0.8433 0.89693 0.0
C1325 C 0.9227 0.84394 0.88889 0.0
C1326 C 0.93163 0.84081 0.87832 0.0
C1327 C 0.96429 0.83874 0.87585 0.0
H1328 H 0.10838 0.96263 0.91313 0.0
H1329 H 0.18374 0.98112 0.88675 0.0
H1330 H 0.1237 0.02917 0.91205 0.0
H1331 H 0.19858 0.04754 0.8856 0.0
H1332 H 0.23078 0.17326 0.88997 0.0
H1333 H 0.22655 0.11184 0.89399 0.0
H1334 H 0.10454 0.0604 0.89862 0.0
H1335 H 0.10869 0.12134 0.89472 0.0
C1336 C 0.12879 0.98103 0.90724 0.0
C1337 C 0.14435 0.96635 0.89992 0.0
C1338 C 0.13736 0.01911 0.90657 0.0
C1339 C 0.16174 0.04336 0.89861 0.0
C1340 C 0.1797 0.02958 0.89183 0.0
C1341 C 0.1711 0.99144 0.89248 0.0
C1342 C 0.20311 0.14884 0.89189 0.0
C1343 C 0.17006 0.15219 0.89199 0.0
C1344 C 0.20071 0.1137 0.89418 0.0
C1345 C 0.16528 0.08137 0.89671 0.0
C1346 C 0.13239 0.08492 0.8969 0.0
C1347 C 0.13473 0.11983 0.89455 0.0
H1348 H 0.00385 0.22168 0.87366 0.0
H1349 H 0.02539 0.1858 0.90376 0.0
H1350 H 0.93799 0.1686 0.87413 0.0
H1351 H 0.95933 0.13339 0.90437 0.0
H1352 H 0.87349 0.01393 0.8914 0.0
H1353 H 0.93123 0.07517 0.89394 0.0
H1354 H 0.87366 0.13365 0.8822 0.0
H1355 H 0.81537 0.07167 0.87949 0.0
C1356 C 0.99417 0.2033 0.88055 0.0
C1357 C 0.01999 0.20745 0.88858 0.0
C1358 C 0.95636 0.17286 0.88082 0.0
C1359 C 0.94371 0.14626 0.88917 0.0
C1360 C 0.96853 0.15282 0.89769 0.0
C1361 C 0.0063 0.18299 0.89738 0.0
C1362 C 0.87289 0.03976 0.88942 0.0
C1363 C 0.83985 0.03786 0.88517 0.0
C1364 C 0.90598 0.07501 0.89098 0.0
C1365 C 0.907 0.10938 0.88835 0.0
C1366 C 0.87378 0.10764 0.88427 0.0
C1367 C 0.84042 0.07219 0.88274 0.0
H1368 H 0.8731 0.00051 0.60397 0.0
H1369 H 0.75334 0.93893 0.6126 0.0
H1370 H 0.87186 0.9402 0.60148 0.0
H1371 H 0.75225 0.87801 0.6101 0.0
H1372 H 0.79535 0.78943 0.61837 0.0
H1373 H 0.78334 0.84308 0.61893 0.0
H1374 H 0.84173 0.88401 0.58911 0.0
H1375 H 0.85396 0.83073 0.58852 0.0
C1376 C 0.84645 0.97408 0.60534 0.0
C1377 C 0.81331 0.97455 0.60851 0.0
C1378 C 0.84567 0.93947 0.60381 0.0
C1379 C 0.81184 0.9044 0.60548 0.0
C1380 C 0.77869 0.90467 0.60875 0.0
C1381 C 0.77933 0.93948 0.61017 0.0
C1382 C 0.8048 0.80932 0.6118 0.0
C1383 C 0.82625 0.80618 0.60349 0.0
C1384 C 0.79783 0.84 0.61212 0.0
C1385 C 0.81228 0.86807 0.60417 0.0
C1386 C 0.83094 0.86316 0.59545 0.0
C1387 C 0.83777 0.83251 0.5951 0.0
H1388 H 0.14254 0.04701 0.57657 0.0
H1389 H 0.20786 0.0267 0.6001 0.0
H1390 H 0.09225 0.98005 0.5777 0.0
H1391 H 0.15725 0.95964 0.60124 0.0
H1392 H 0.06286 0.83297 0.59521 0.0
H1393 H 0.11877 0.89602 0.59154 0.0
H1394 H 0.04693 0.94703 0.59272 0.0
H1395 H 0.9915 0.8847 0.59638 0.0
C1396 C 0.14658 0.02814 0.58182 0.0
C1397 C 0.17897 0.04238 0.58836 0.0
C1398 C 0.11764 0.98982 0.58251 0.0
C1399 C 0.12056 0.96485 0.5897 0.0
C1400 C 0.15424 0.97825 0.59563 0.0
C1401 C 0.18317 0.0167 0.59499 0.0
C1402 C 0.05909 0.8577 0.59469 0.0
C1403 C 0.02273 0.85381 0.5961 0.0
C1404 C 0.09106 0.89371 0.59259 0.0
C1405 C 0.08708 0.9263 0.59171 0.0
C1406 C 0.05076 0.92232 0.59315 0.0
C1407 C 0.01904 0.88659 0.59535 0.0
H1408 H 0.16067 0.17069 0.5886 0.0
H1409 H 0.14115 0.17044 0.62216 0.0
H1410 H 0.09997 0.16793 0.58513 0.0
H1411 H 0.08015 0.16685 0.61869 0.0
H1412 H 0.96632 0.09891 0.58553 0.0
H1413 H 0.03363 0.11824 0.58711 0.0
H1414 H 0.0472 0.19856 0.61164 0.0
H1415 H 0.9795 0.17863 0.61022 0.0
C1416 C 0.14363 0.17043 0.59524 0.0
C1417 C 0.15558 0.17039 0.60566 0.0
C1418 C 0.10876 0.16869 0.59325 0.0
C1419 C 0.08505 0.16687 0.60162 0.0
C1420 C 0.09788 0.16865 0.61204 0.0
C1421 C 0.13277 0.17043 0.61404 0.0
C1422 C 0.98377 0.12123 0.59112 0.0
C1423 C 0.96738 0.13681 0.59785 0.0
C1424 C 0.02249 0.13247 0.59199 0.0
C1425 C 0.04572 0.15963 0.59959 0.0
C1426 C 0.0299 0.17705 0.60584 0.0
C1427 C 0.99114 0.1658 0.60497 0.0
H1428 H 0.66652 0.48968 0.42737 0.0
H1429 H 0.68812 0.48319 0.46051 0.0
H1430 H 0.72193 0.48367 0.42281 0.0
H1431 H 0.74313 0.47654 0.45592 0.0
H1432 H 0.85389 0.48734 0.44531 0.0
H1433 H 0.80741 0.50824 0.44818 0.0
H1434 H 0.73592 0.43149 0.4236 0.0
H1435 H 0.78254 0.41106 0.42061 0.0
C1436 C 0.68325 0.48728 0.43369 0.0
C1437 C 0.67269 0.48659 0.44432 0.0
C1438 C 0.71493 0.4837 0.43106 0.0
C1439 C 0.73682 0.47942 0.43899 0.0
C1440 C 0.72714 0.48023 0.44962 0.0
C1441 C 0.69542 0.48377 0.45226 0.0
C1442 C 0.82862 0.47548 0.44037 0.0
C1443 C 0.82173 0.4472 0.43281 0.0
C1444 C 0.80187 0.48727 0.44207 0.0
C1445 C 0.76774 0.47117 0.43622 0.0
C1446 C 0.76201 0.44467 0.42821 0.0
C1447 C 0.78872 0.43282 0.42652 0.0
H1448 H 0.4093 0.16052 0.43896 0.0
H1449 H 0.53004 0.20207 0.43454 0.0
H1450 H 0.42024 0.22499 0.43535 0.0
H1451 H 0.54077 0.26591 0.43099 0.0
H1452 H 0.54682 0.36854 0.41618 0.0
H1453 H 0.52539 0.3004 0.41735 0.0
H1454 H 0.45454 0.28982 0.44415 0.0
H1455 H 0.47567 0.35802 0.44295 0.0
C1456 C 0.43808 0.18331 0.43721 0.0
C1457 C 0.4688 0.17617 0.43707 0.0
C1458 C 0.44432 0.22017 0.43515 0.0
C1459 C 0.48128 0.25039 0.43279 0.0
C1460 C 0.51184 0.24309 0.4326 0.0
C1461 C 0.50571 0.20651 0.43474 0.0
C1462 C 0.52607 0.3516 0.42219 0.0
C1463 C 0.51341 0.36887 0.42957 0.0
C1464 C 0.51398 0.31259 0.4229 0.0
C1465 C 0.48883 0.28996 0.43096 0.0
C1466 C 0.4739 0.30654 0.43785 0.0
C1467 C 0.48611 0.34565 0.43717 0.0
H1468 H 0.80827 0.29574 0.42798 0.0
H1469 H 0.77028 0.28305 0.4604 0.0
H1470 H 0.7483 0.23858 0.4232 0.0
H1471 H 0.71023 0.22627 0.45558 0.0
H1472 H 0.61163 0.11443 0.44578 0.0
H1473 H 0.67906 0.1598 0.44913 0.0
H1474 H 0.68226 0.22583 0.4219 0.0
H1475 H 0.61511 0.18034 0.41845 0.0
C1476 C 0.78736 0.28051 0.43412 0.0
C1477 C 0.79389 0.29419 0.44456 0.0
C1478 C 0.75295 0.24783 0.43136 0.0
C1479 C 0.72443 0.22801 0.43899 0.0
C1480 C 0.73178 0.24062 0.44953 0.0
C1481 C 0.76612 0.27337 0.45229 0.0
C1482 C 0.62694 0.13809 0.44035 0.0
C1483 C 0.60782 0.14406 0.43193 0.0
C1484 C 0.66551 0.16423 0.44232 0.0
C1485 C 0.68583 0.1967 0.43588 0.0
C1486 C 0.66749 0.20102 0.42699 0.0
C1487 C 0.6289 0.17498 0.42504 0.0
H1488 H 0.84819 0.5453 0.71313 0.0
H1489 H 0.7558 0.47163 0.73412 0.0
H1490 H 0.86716 0.49676 0.71184 0.0
H1491 H 0.77398 0.42282 0.7326 0.0
H1492 H 0.82407 0.34593 0.73215 0.0
H1493 H 0.81929 0.40256 0.73603 0.0
H1494 H 0.84071 0.43578 0.70318 0.0
H1495 H 0.84665 0.37981 0.69938 0.0
C1496 C 0.83229 0.51901 0.7176 0.0
C1497 C 0.80026 0.51221 0.72366 0.0
C1498 C 0.84296 0.49104 0.71679 0.0
C1499 C 0.82178 0.45562 0.72198 0.0
C1500 C 0.79119 0.44984 0.72855 0.0
C1501 C 0.78065 0.47786 0.7294 0.0
C1502 C 0.82816 0.36555 0.72577 0.0
C1503 C 0.83541 0.35818 0.71543 0.0
C1504 C 0.82527 0.39796 0.728 0.0
C1505 C 0.82934 0.42365 0.71992 0.0
C1506 C 0.83792 0.41694 0.70964 0.0
C1507 C 0.84105 0.38464 0.70743 0.0
H1508 H 0.47147 0.31847 0.69851 0.0
H1509 H 0.52163 0.28131 0.72257 0.0
H1510 H 0.52915 0.3818 0.69842 0.0
H1511 H 0.57914 0.34443 0.72238 0.0
H1512 H 0.69005 0.43305 0.70511 0.0
H1513 H 0.62852 0.3746 0.70736 0.0
H1514 H 0.57257 0.4416 0.71007 0.0
H1515 H 0.63453 0.50057 0.70792 0.0
C1516 C 0.4944 0.32402 0.70393 0.0
C1517 C 0.4921 0.29468 0.71045 0.0
C1518 C 0.52736 0.36029 0.70388 0.0
C1519 C 0.55875 0.36771 0.71027 0.0
C1520 C 0.55551 0.33921 0.71727 0.0
C1521 C 0.52243 0.30316 0.71742 0.0
C1522 C 0.66467 0.43542 0.70613 0.0
C1523 C 0.66713 0.47142 0.70631 0.0
C1524 C 0.6295 0.40195 0.70753 0.0
C1525 C 0.59589 0.40366 0.70899 0.0
C1526 C 0.5981 0.43956 0.70897 0.0
C1527 C 0.63349 0.47321 0.70774 0.0
H1528 H 0.68631 0.11851 0.7051 0.0
H1529 H 0.70347 0.18724 0.73294 0.0
H1530 H 0.61932 0.10229 0.70449 0.0
H1531 H 0.63662 0.17063 0.73239 0.0
H1532 H 0.54823 0.19252 0.71586 0.0
H1533 H 0.60831 0.19437 0.71899 0.0
H1534 H 0.55365 0.07249 0.71339 0.0
H1535 H 0.49268 0.07046 0.7102 0.0
C1536 C 0.67554 0.12915 0.71128 0.0
C1537 C 0.70035 0.15478 0.71895 0.0
C1538 C 0.63715 0.11982 0.71093 0.0
C1539 C 0.62306 0.13591 0.71826 0.0
C1540 C 0.64699 0.15852 0.7265 0.0
C1541 C 0.68523 0.1679 0.72683 0.0
C1542 C 0.54878 0.16599 0.7153 0.0
C1543 C 0.5156 0.13132 0.71277 0.0
C1544 C 0.58322 0.16701 0.71721 0.0
C1545 C 0.58555 0.13347 0.71659 0.0
C1546 C 0.55258 0.09874 0.71395 0.0
C1547 C 0.51777 0.09762 0.71213 0.0
H1548 H 0.65744 0.20863 0.19543 0.0
H1549 H 0.64789 0.157 0.22602 0.0
H1550 H 0.59736 0.20768 0.1986 0.0
H1551 H 0.58778 0.15597 0.22914 0.0
H1552 H 0.47648 0.18037 0.20445 0.0
H1553 H 0.52684 0.16481 0.20141 0.0
H1554 H 0.57334 0.20861 0.23229 0.0
H1555 H 0.52301 0.22408 0.23538 0.0
C1556 C 0.64226 0.19655 0.20275 0.0
C1557 C 0.65763 0.18322 0.2105 0.0
C1558 C 0.60772 0.19579 0.20455 0.0
C1559 C 0.588 0.1819 0.21415 0.0
C1560 C 0.60257 0.16717 0.22172 0.0
C1561 C 0.63694 0.16765 0.2199 0.0
C1562 C 0.49697 0.18597 0.21068 0.0
C1563 C 0.496 0.20385 0.22012 0.0
C1564 C 0.52592 0.17726 0.2089 0.0
C1565 C 0.55421 0.18587 0.21656 0.0
C1566 C 0.55179 0.20144 0.22626 0.0
C1567 C 0.52304 0.21045 0.22802 0.0
H1568 H 0.84499 0.31593 0.21908 0.0
H1569 H 0.74437 0.29195 0.23711 0.0
H1570 H 0.86197 0.38319 0.21762 0.0
H1571 H 0.76133 0.35885 0.23557 0.0
H1572 H 0.77297 0.46173 0.21704 0.0
H1573 H 0.76232 0.39715 0.21938 0.0
H1574 H 0.87997 0.44365 0.22895 0.0
H1575 H 0.89082 0.50872 0.22668 0.0
C1576 C 0.82687 0.32509 0.22287 0.0
C1577 C 0.79316 0.2985 0.22814 0.0
C1578 C 0.83662 0.36357 0.22204 0.0
C1579 C 0.81262 0.37599 0.22634 0.0
C1580 C 0.77998 0.34984 0.23203 0.0
C1581 C 0.77046 0.31158 0.23297 0.0
C1582 C 0.79674 0.45833 0.21956 0.0
C1583 C 0.83272 0.49041 0.22172 0.0
C1584 C 0.79051 0.42131 0.22098 0.0
C1585 C 0.8202 0.41547 0.22448 0.0
C1586 C 0.8566 0.44742 0.22626 0.0
C1587 C 0.86275 0.48459 0.22497 0.0
H1588 H 0.69664 0.50796 0.23404 0.0
H1589 H 0.66694 0.5606 0.20884 0.0
H1590 H 0.63144 0.45383 0.23407 0.0
H1591 H 0.60169 0.50615 0.20886 0.0
H1592 H 0.47944 0.40622 0.21635 0.0
H1593 H 0.53984 0.4663 0.21914 0.0
H1594 H 0.6002 0.4032 0.22021 0.0
H1595 H 0.54048 0.34365 0.21743 0.0
C1596 C 0.67605 0.50845 0.22866 0.0
C1597 C 0.68723 0.53836 0.22131 0.0
C1598 C 0.63874 0.47729 0.22864 0.0
C1599 C 0.61172 0.47544 0.22133 0.0
C1600 C 0.62192 0.50678 0.21458 0.0
C1601 C 0.65936 0.53794 0.21456 0.0
C1602 C 0.50564 0.40526 0.2172 0.0
C1603 C 0.50517 0.37017 0.21664 0.0
C1604 C 0.54014 0.43961 0.21879 0.0
C1605 C 0.57463 0.43937 0.22 0.0
C1606 C 0.574 0.40425 0.21949 0.0
C1607 C 0.53977 0.37013 0.21779 0.0
H1608 H 0.52944 0.15941 0.92281 0.0
H1609 H 0.45693 0.09667 0.94919 0.0
H1610 H 0.51531 0.21055 0.92574 0.0
H1611 H 0.44206 0.14771 0.95197 0.0
H1612 H 0.48281 0.27286 0.96319 0.0
H1613 H 0.47969 0.21251 0.95882 0.0
H1614 H 0.46921 0.23184 0.92575 0.0
H1615 H 0.47327 0.29262 0.93008 0.0
C1616 C 0.5097 0.15606 0.92908 0.0
C1617 C 0.49476 0.12419 0.93586 0.0
C1618 C 0.50142 0.18537 0.93073 0.0
C1619 C 0.47791 0.18346 0.93918 0.0
C1620 C 0.46083 0.15034 0.94551 0.0
C1621 C 0.46912 0.12095 0.94386 0.0
C1622 C 0.47935 0.26401 0.955 0.0
C1623 C 0.47885 0.2878 0.94698 0.0
C1624 C 0.47726 0.22924 0.95249 0.0
C1625 C 0.47446 0.21745 0.94192 0.0
C1626 C 0.47199 0.24038 0.93395 0.0
C1627 C 0.47423 0.27518 0.93645 0.0
H1628 H 0.84429 0.33653 0.95681 0.0
H1629 H 0.84999 0.35943 0.92334 0.0
H1630 H 0.7979 0.26948 0.95363 0.0
H1631 H 0.8036 0.29181 0.92012 0.0
H1632 H 0.67542 0.19368 0.9236 0.0
H1633 H 0.73454 0.25508 0.92419 0.0
H1634 H 0.78305 0.20781 0.94573 0.0
H1635 H 0.72345 0.14616 0.94524 0.0
C1636 C 0.83625 0.32705 0.94874 0.0
C1637 C 0.85036 0.35336 0.94034 0.0
C1638 C 0.80985 0.28849 0.9469 0.0
C1639 C 0.79679 0.27539 0.93663 0.0
C1640 C 0.8128 0.30121 0.92814 0.0
C1641 C 0.83951 0.33985 0.92998 0.0
C1642 C 0.69883 0.19615 0.92836 0.0
C1643 C 0.69453 0.16517 0.93449 0.0
C1644 C 0.73291 0.23131 0.92861 0.0
C1645 C 0.76345 0.23637 0.93504 0.0
C1646 C 0.75986 0.20486 0.94078 0.0
C1647 C 0.72576 0.16954 0.94048 0.0
H1648 H 0.82949 0.54146 0.95658 0.0
H1649 H 0.79585 0.46213 0.93045 0.0
H1650 H 0.76593 0.53472 0.95668 0.0
H1651 H 0.73234 0.45503 0.93068 0.0
H1652 H 0.62487 0.4628 0.92997 0.0
H1653 H 0.69348 0.48612 0.92806 0.0
H1654 H 0.70338 0.48122 0.9619 0.0
H1655 H 0.63548 0.45852 0.96381 0.0
C1656 C 0.80872 0.52293 0.95079 0.0
C1657 C 0.81759 0.50195 0.9436 0.0
C1658 C 0.77229 0.519 0.95087 0.0
C1659 C 0.74403 0.49414 0.94374 0.0
C1660 C 0.75355 0.4747 0.9362 0.0
C1661 C 0.7899 0.47853 0.93614 0.0
C1662 C 0.64192 0.46741 0.937 0.0
C1663 C 0.62474 0.45846 0.94703 0.0
C1664 C 0.6811 0.48054 0.9359 0.0
C1665 C 0.7038 0.48533 0.94483 0.0
C1666 C 0.68685 0.47825 0.95488 0.0
C1667 C 0.6478 0.4649 0.95596 0.0
H1668 H 0.33682 0.80062 0.76937 0.0
H1669 H 0.39895 0.91719 0.78085 0.0
H1670 H 0.39635 0.7998 0.76786 0.0
H1671 H 0.45902 0.91635 0.77926 0.0
H1672 H 0.53921 0.86772 0.78985 0.0
H1673 H 0.48755 0.88215 0.78858 0.0
H1674 H 0.45721 0.82821 0.75793 0.0
H1675 H 0.50859 0.81324 0.75923 0.0
C1676 C 0.36325 0.82621 0.77151 0.0
C1677 C 0.3631 0.8589 0.7753 0.0
C1678 C 0.39746 0.82586 0.77053 0.0
C1679 C 0.43242 0.8581 0.77337 0.0
C1680 C 0.43247 0.89106 0.77704 0.0
C1681 C 0.39812 0.89154 0.77793 0.0
C1682 C 0.52206 0.85962 0.78273 0.0
C1683 C 0.5276 0.83872 0.77472 0.0
C1684 C 0.49256 0.86809 0.78199 0.0
C1685 C 0.46796 0.85578 0.77323 0.0
C1686 C 0.47532 0.83745 0.76486 0.0
C1687 C 0.50491 0.82907 0.76558 0.0
H1688 H 0.18967 0.69678 0.79951 0.0
H1689 H 0.17765 0.69546 0.7656 0.0
H1690 H 0.16834 0.62878 0.79935 0.0
H1691 H 0.1555 0.62675 0.76547 0.0
H1692 H 0.18522 0.52935 0.76956 0.0
H1693 H 0.18924 0.59142 0.76854 0.0
H1694 H 0.11687 0.56346 0.7961 0.0
H1695 H 0.11333 0.50124 0.79724 0.0
C1696 C 0.18175 0.68178 0.79203 0.0
C1697 C 0.18587 0.70162 0.78255 0.0
C1698 C 0.16918 0.64264 0.79195 0.0
C1699 C 0.1605 0.62236 0.78239 0.0
C1700 C 0.16248 0.64172 0.77295 0.0
C1701 C 0.17493 0.681 0.77303 0.0
C1702 C 0.1698 0.53618 0.77535 0.0
C1703 C 0.14936 0.5105 0.78357 0.0
C1704 C 0.1718 0.5717 0.7747 0.0
C1705 C 0.15346 0.58247 0.78225 0.0
C1706 C 0.13166 0.55615 0.79022 0.0
C1707 C 0.12956 0.52048 0.79086 0.0
H1708 H 0.46559 0.66376 0.76629 0.0
H1709 H 0.50306 0.62465 0.79307 0.0
H1710 H 0.40408 0.60467 0.76665 0.0
H1711 H 0.44155 0.56504 0.79329 0.0
H1712 H 0.31011 0.50098 0.79976 0.0
H1713 H 0.37707 0.54987 0.79809 0.0
H1714 H 0.36974 0.53499 0.76423 0.0
H1715 H 0.30209 0.4862 0.76589 0.0
C1716 C 0.46092 0.64233 0.77217 0.0
C1717 C 0.48907 0.64915 0.77974 0.0
C1718 C 0.42573 0.60825 0.77231 0.0
C1719 C 0.41786 0.58018 0.78002 0.0
C1720 C 0.4466 0.58633 0.78733 0.0
C1721 C 0.48185 0.62044 0.78718 0.0
C1722 C 0.32285 0.50767 0.79196 0.0
C1723 C 0.30068 0.49007 0.78294 0.0
C1724 C 0.36139 0.53554 0.79101 0.0
C1725 C 0.37868 0.54655 0.78102 0.0
C1726 C 0.35705 0.52747 0.77203 0.0
C1727 C 0.31841 0.49937 0.77298 0.0
H1728 H 0.49164 0.83745 0.02388 0.0
H1729 H 0.49204 0.85304 0.05763 0.0
H1730 H 0.50949 0.78884 0.02645 0.0
H1731 H 0.51084 0.80459 0.06022 0.0
H1732 H 0.47691 0.67546 0.059 0.0
H1733 H 0.47608 0.73523 0.05807 0.0
H1734 H 0.55685 0.7728 0.03222 0.0
H1735 H 0.55706 0.7124 0.033 0.0
C1736 C 0.4963 0.83103 0.03186 0.0
C1737 C 0.48989 0.8487 0.04056 0.0
C1738 C 0.50688 0.80332 0.03333 0.0
C1739 C 0.5113 0.79257 0.04355 0.0
C1740 C 0.50711 0.81188 0.05225 0.0
C1741 C 0.49659 0.83978 0.05077 0.0
C1742 C 0.49486 0.6966 0.05319 0.0
C1743 C 0.51663 0.6889 0.04597 0.0
C1744 C 0.49465 0.73109 0.05272 0.0
C1745 C 0.51626 0.75875 0.04504 0.0
C1746 C 0.53948 0.75183 0.03814 0.0
C1747 C 0.53966 0.71726 0.0386 0.0
H1748 H 0.17741 0.63849 0.06255 0.0
H1749 H 0.12337 0.66938 0.03804 0.0
H1750 H 0.23158 0.70376 0.06254 0.0
H1751 H 0.17781 0.7347 0.03804 0.0
H1752 H 0.27733 0.85693 0.04602 0.0
H1753 H 0.21769 0.79595 0.04862 0.0
H1754 H 0.28143 0.73619 0.04842 0.0
H1755 H 0.34059 0.79652 0.04581 0.0
C1756 C 0.17665 0.65934 0.05732 0.0
C1757 C 0.1463 0.64852 0.05017 0.0
C1758 C 0.20782 0.69668 0.05727 0.0
C1759 C 0.2092 0.72408 0.05015 0.0
C1760 C 0.17753 0.71417 0.0436 0.0
C1761 C 0.1464 0.6767 0.04359 0.0
C1762 C 0.27854 0.83074 0.04653 0.0
C1763 C 0.3137 0.83158 0.04569 0.0
C1764 C 0.24443 0.7959 0.04802 0.0
C1765 C 0.245 0.76142 0.04885 0.0
C1766 C 0.28016 0.76237 0.04801 0.0
C1767 C 0.31405 0.79696 0.04641 0.0
H1768 H 0.37314 0.54242 0.06831 0.0
H1769 H 0.33563 0.45141 0.04529 0.0
H1770 H 0.30863 0.53288 0.06903 0.0
H1771 H 0.27118 0.44223 0.04598 0.0
H1772 H 0.15224 0.42453 0.05432 0.0
H1773 H 0.21249 0.42475 0.05682 0.0
H1774 H 0.2745 0.54845 0.05534 0.0
H1775 H 0.21478 0.54836 0.05289 0.0
C1776 C 0.35102 0.51985 0.06356 0.0
C1777 C 0.35972 0.49812 0.0566 0.0
C1778 C 0.31411 0.51457 0.06393 0.0
C1779 C 0.28509 0.48734 0.0574 0.0
C1780 C 0.29297 0.46345 0.0511 0.0
C1781 C 0.32996 0.46881 0.05069 0.0
C1782 C 0.17876 0.45175 0.05455 0.0
C1783 C 0.17873 0.48643 0.05338 0.0
C1784 C 0.2132 0.45184 0.05598 0.0
C1785 C 0.24814 0.48662 0.05638 0.0
C1786 C 0.24798 0.52121 0.05527 0.0
C1787 C 0.21374 0.52112 0.05375 0.0
H1788 H 0.19486 0.56774 0.57463 0.0
H1789 H 0.12969 0.49221 0.54904 0.0
H1790 H 0.2447 0.55128 0.57195 0.0
H1791 H 0.17948 0.47566 0.54643 0.0
H1792 H 0.30372 0.5147 0.53469 0.0
H1793 H 0.24528 0.51513 0.53925 0.0
H1794 H 0.26272 0.50057 0.57216 0.0
H1795 H 0.3214 0.50034 0.56763 0.0
C1796 C 0.19066 0.54689 0.56862 0.0
C1797 C 0.15852 0.53174 0.56196 0.0
C1798 C 0.21922 0.53738 0.56709 0.0
C1799 C 0.21626 0.51262 0.55887 0.0
C1800 C 0.18285 0.49535 0.55271 0.0
C1801 C 0.15421 0.50468 0.55427 0.0
C1802 C 0.29486 0.51108 0.54288 0.0
C1803 C 0.31736 0.50774 0.55079 0.0
C1804 C 0.26121 0.51106 0.54549 0.0
C1805 C 0.24942 0.50794 0.55607 0.0
C1806 C 0.27124 0.50332 0.56395 0.0
C1807 C 0.30475 0.50303 0.56134 0.0
H1808 H 0.51662 0.64822 0.55388 0.0
H1809 H 0.41653 0.63257 0.57071 0.0
H1810 H 0.53731 0.71627 0.55137 0.0
H1811 H 0.43693 0.69997 0.56801 0.0
H1812 H 0.45599 0.80072 0.54695 0.0
H1813 H 0.44361 0.73561 0.54952 0.0
H1814 H 0.55488 0.77949 0.56374 0.0
H1815 H 0.56736 0.84521 0.56137 0.0
C1816 C 0.49935 0.65936 0.55716 0.0
C1817 C 0.46483 0.63497 0.56245 0.0
C1818 C 0.51121 0.6982 0.55572 0.0
C1819 C 0.48839 0.71299 0.55938 0.0
C1820 C 0.45475 0.68902 0.56501 0.0
C1821 C 0.44325 0.6505 0.56661 0.0
C1822 C 0.47815 0.79671 0.55049 0.0
C1823 C 0.51258 0.82819 0.55403 0.0
C1824 C 0.47091 0.75939 0.55201 0.0
C1825 C 0.49813 0.75272 0.55693 0.0
C1826 C 0.53346 0.78405 0.55994 0.0
C1827 C 0.54052 0.82154 0.55858 0.0
H1828 H 0.38184 0.82994 0.56719 0.0
H1829 H 0.33593 0.87793 0.54498 0.0
H1830 H 0.32187 0.76911 0.56665 0.0
H1831 H 0.27583 0.81683 0.5445 0.0
H1832 H 0.164 0.7022 0.55182 0.0
H1833 H 0.21841 0.76634 0.55524 0.0
H1834 H 0.29585 0.72271 0.55121 0.0
H1835 H 0.24188 0.65897 0.54775 0.0
C1836 C 0.3587 0.82789 0.56238 0.0
C1837 C 0.36395 0.85867 0.55598 0.0
C1838 C 0.32444 0.79291 0.56204 0.0
C1839 C 0.29456 0.7881 0.55538 0.0
C1840 C 0.29847 0.81977 0.54969 0.0
C1841 C 0.33292 0.85475 0.54996 0.0
C1842 C 0.19267 0.70638 0.55167 0.0
C1843 C 0.1987 0.67558 0.54949 0.0
C1844 C 0.22372 0.74304 0.55361 0.0
C1845 C 0.26124 0.74935 0.55359 0.0
C1846 C 0.26717 0.71852 0.55144 0.0
C1847 C 0.23628 0.6821 0.54936 0.0
H1848 H 0.16276 0.46052 0.26715 0.0
H1849 H 0.25754 0.53419 0.2468 0.0
H1850 H 0.14413 0.50949 0.26808 0.0
H1851 H 0.23878 0.58292 0.24775 0.0
H1852 H 0.23158 0.67605 0.26732 0.0
H1853 H 0.24255 0.6232 0.26352 0.0
H1854 H 0.12192 0.54912 0.25749 0.0
H1855 H 0.11073 0.60235 0.26129 0.0
C1856 C 0.17912 0.48677 0.26269 0.0
C1857 C 0.21197 0.49368 0.25702 0.0
C1858 C 0.16835 0.51474 0.26321 0.0
C1859 C 0.19039 0.55017 0.25812 0.0
C1860 C 0.22167 0.55604 0.25188 0.0
C1861 C 0.23225 0.52802 0.25129 0.0
C1862 C 0.20731 0.64853 0.2652 0.0
C1863 C 0.17025 0.64335 0.26464 0.0
C1864 C 0.21368 0.61836 0.26292 0.0
C1865 C 0.18313 0.58219 0.26011 0.0
C1866 C 0.14596 0.57676 0.25963 0.0
C1867 C 0.13961 0.6072 0.26179 0.0
H1868 H 0.54394 0.6948 0.27672 0.0
H1869 H 0.48502 0.69437 0.24821 0.0
H1870 H 0.49546 0.6281 0.27995 0.0
H1871 H 0.43642 0.62804 0.25153 0.0
H1872 H 0.36006 0.50272 0.25757 0.0
H1873 H 0.41978 0.56099 0.25326 0.0
H1874 H 0.42833 0.59969 0.28547 0.0
H1875 H 0.369 0.54127 0.28982 0.0
C1876 C 0.52115 0.68028 0.27102 0.0
C1877 C 0.51806 0.70009 0.26228 0.0
C1878 C 0.49322 0.64214 0.27292 0.0
C1879 C 0.4618 0.62296 0.26609 0.0
C1880 C 0.46034 0.64189 0.25693 0.0
C1881 C 0.48817 0.68004 0.25504 0.0
C1882 C 0.37498 0.52339 0.26378 0.0
C1883 C 0.35954 0.51753 0.27402 0.0
C1884 C 0.40913 0.55683 0.26129 0.0
C1885 C 0.42869 0.58507 0.269 0.0
C1886 C 0.41422 0.57832 0.27936 0.0
C1887 C 0.38002 0.54494 0.28185 0.0
H1888 H 0.46619 0.78493 0.2639 0.0
H1889 H 0.51049 0.90382 0.2722 0.0
H1890 H 0.4042 0.77819 0.26016 0.0
H1891 H 0.44791 0.897 0.26833 0.0
H1892 H 0.3147 0.84363 0.27456 0.0
H1893 H 0.38213 0.86248 0.27595 0.0
H1894 H 0.37268 0.79942 0.24748 0.0
H1895 H 0.30517 0.78004 0.24615 0.0
C1896 C 0.46278 0.80974 0.26489 0.0
C1897 C 0.49333 0.84491 0.26839 0.0
C1898 C 0.42726 0.80595 0.26263 0.0
C1899 C 0.42122 0.83717 0.26384 0.0
C1900 C 0.4517 0.87242 0.26734 0.0
C1901 C 0.4875 0.87631 0.26955 0.0
C1902 C 0.32718 0.83449 0.26845 0.0
C1903 C 0.30434 0.80974 0.26034 0.0
C1904 C 0.3659 0.8454 0.26924 0.0
C1905 C 0.38251 0.8318 0.26194 0.0
C1906 C 0.36044 0.80965 0.25336 0.0
C1907 C 0.32179 0.79876 0.25257 0.0
loop_
_geom_bond_atom_site_label_1
_geom_bond_atom_site_label_2
_geom_bond_distance
_geom_bond_site_symmetry_2
_ccdc_geom_bond_type
C0 O1 1.160 . S
C0 O7 1.185 . S
O1 C0 1.160 . S
O2 Zn3 1.899 . S
O2 C10 1.284 . S
Zn3 O2 1.899 . S
Zn3 O4 2.032 . S
Zn3 O7 2.086 . S
Zn3 O12 1.977 . S
O4 Zn3 2.032 . S
O4 C8 1.278 . S
C5 O6 1.203 . S
C5 O12 1.267 . S
O6 C5 1.203 . S
O7 C0 1.185 . S
O7 Zn3 2.086 . S
C8 O4 1.278 . S
C8 O9 1.211 . S
O9 C8 1.211 . S
C10 O2 1.284 . S
C10 O11 1.273 . S
O11 C10 1.273 . S
O12 Zn3 1.977 . S
O12 C5 1.267 . S
C13 O14 1.160 . S
C13 O20 1.185 . S
O14 C13 1.160 . S
O15 Zn16 1.899 . S
O15 C23 1.284 . S
Zn16 O15 1.899 . S
Zn16 O17 2.032 . S
Zn16 O20 2.086 . S
Zn16 O25 1.977 . S
O17 Zn16 2.032 . S
O17 C21 1.278 . S
C18 O19 1.203 . S
C18 O25 1.267 . S
O19 C18 1.203 . S
O20 C13 1.185 . S
O20 Zn16 2.086 . S
C21 O17 1.278 . S
C21 O22 1.211 . S
O22 C21 1.211 . S
C23 O15 1.284 . S
C23 O24 1.273 . S
O24 C23 1.273 . S
O25 Zn16 1.977 . S
O25 C18 1.267 . S
C26 O27 1.160 . S
C26 O33 1.185 . S
O27 C26 1.160 . S
O28 Zn29 1.899 . S
O28 C36 1.284 . S
Zn29 O28 1.899 . S
Zn29 O30 2.032 . S
Zn29 O33 2.086 . S
Zn29 O38 1.977 . S
O30 Zn29 2.032 . S
O30 C34 1.278 . S
C31 O32 1.203 . S
C31 O38 1.267 . S
O32 C31 1.203 . S
O33 C26 1.185 . S
O33 Zn29 2.086 . S
C34 O30 1.278 . S
C34 O35 1.211 . S
O35 C34 1.211 . S
C36 O28 1.284 . S
C36 O37 1.273 . S
O37 C36 1.273 . S
O38 Zn29 1.977 . S
O38 C31 1.267 . S
C39 O40 1.160 . S
C39 O46 1.185 . S
O40 C39 1.160 . S
O41 Zn42 1.899 . S
O41 C49 1.284 . S
Zn42 O41 1.899 . S
Zn42 O43 2.032 . S
Zn42 O46 2.086 . S
Zn42 O51 1.977 . S
O43 Zn42 2.032 . S
O43 C47 1.278 . S
C44 O45 1.203 . S
C44 O51 1.267 . S
O45 C44 1.203 . S
O46 C39 1.185 . S
O46 Zn42 2.086 . S
C47 O43 1.278 . S
C47 O48 1.211 . S
O48 C47 1.211 . S
C49 O41 1.284 . S
C49 O50 1.273 . S
O50 C49 1.273 . S
O51 Zn42 1.977 . S
O51 C44 1.267 . S
C52 O53 1.160 . S
C52 O59 1.185 . S
O53 C52 1.160 . S
O54 Zn55 1.899 . S
O54 C62 1.284 . S
Zn55 O54 1.899 . S
Zn55 O56 2.032 . S
Zn55 O59 2.086 . S
Zn55 O64 1.977 . S
O56 Zn55 2.032 . S
O56 C60 1.278 . S
C57 O58 1.203 . S
C57 O64 1.267 . S
O58 C57 1.203 . S
O59 C52 1.185 . S
O59 Zn55 2.086 . S
C60 O56 1.278 . S
C60 O61 1.211 . S
O61 C60 1.211 . S
C62 O54 1.284 . S
C62 O63 1.273 . S
O63 C62 1.273 . S
O64 Zn55 1.977 . S
O64 C57 1.267 . S
C65 O66 1.160 . S
C65 O72 1.185 . S
O66 C65 1.160 . S
O67 Zn68 1.899 . S
O67 C75 1.284 . S
Zn68 O67 1.899 . S
Zn68 O69 2.032 . S
Zn68 O72 2.086 . S
Zn68 O77 1.977 . S
O69 Zn68 2.032 . S
O69 C73 1.278 . S
C70 O71 1.203 . S
C70 O77 1.267 . S
O71 C70 1.203 . S
O72 C65 1.185 . S
O72 Zn68 2.086 . S
C73 O69 1.278 . S
C73 O74 1.211 . S
O74 C73 1.211 . S
C75 O67 1.284 . S
C75 O76 1.273 . S
O76 C75 1.273 . S
O77 Zn68 1.977 . S
O77 C70 1.267 . S
C78 O79 1.160 . S
C78 O85 1.185 . S
O79 C78 1.160 . S
O80 Zn81 1.899 . S
O80 C88 1.284 . S
Zn81 O80 1.899 . S
Zn81 O82 2.032 . S
Zn81 O85 2.086 . S
Zn81 O90 1.977 . S
O82 Zn81 2.032 . S
O82 C86 1.278 . S
C83 O84 1.203 . S
C83 O90 1.267 . S
O84 C83 1.203 . S
O85 C78 1.185 . S
O85 Zn81 2.086 . S
C86 O82 1.278 . S
C86 O87 1.211 . S
O87 C86 1.211 . S
C88 O80 1.284 . S
C88 O89 1.273 . S
O89 C88 1.273 . S
O90 Zn81 1.977 . S
O90 C83 1.267 . S
C91 O92 1.160 . S
C91 O98 1.185 . S
O92 C91 1.160 . S
O93 Zn94 1.899 . S
O93 C101 1.284 . S
Zn94 O93 1.899 . S
Zn94 O95 2.032 . S
Zn94 O98 2.086 . S
Zn94 O103 1.977 . S
O95 Zn94 2.032 . S
O95 C99 1.278 . S
C96 O97 1.203 . S
C96 O103 1.267 . S
O97 C96 1.203 . S
O98 C91 1.185 . S
O98 Zn94 2.086 . S
C99 O95 1.278 . S
C99 O100 1.211 . S
O100 C99 1.211 . S
C101 O93 1.284 . S
C101 O102 1.273 . S
O102 C101 1.273 . S
O103 Zn94 1.977 . S
O103 C96 1.267 . S
C104 O105 1.160 . S
C104 O111 1.185 . S
O105 C104 1.160 . S
O106 Zn107 1.899 . S
O106 C114 1.284 . S
Zn107 O106 1.899 . S
Zn107 O108 2.032 . S
Zn107 O111 2.086 . S
Zn107 O116 1.977 . S
O108 Zn107 2.032 . S
O108 C112 1.278 . S
C109 O110 1.203 . S
C109 O116 1.267 . S
O110 C109 1.203 . S
O111 C104 1.185 . S
O111 Zn107 2.086 . S
C112 O108 1.278 . S
C112 O113 1.211 . S
O113 C112 1.211 . S
C114 O106 1.284 . S
C114 O115 1.273 . S
O115 C114 1.273 . S
O116 Zn107 1.977 . S
O116 C109 1.267 . S
C117 O118 1.160 . S
C117 O124 1.185 . S
O118 C117 1.160 . S
O119 Zn120 1.899 . S
O119 C127 1.284 . S
Zn120 O119 1.899 . S
Zn120 O121 2.032 . S
Zn120 O124 2.086 . S
Zn120 O129 1.977 . S
O121 Zn120 2.032 . S
O121 C125 1.278 . S
C122 O123 1.203 . S
C122 O129 1.267 . S
O123 C122 1.203 . S
O124 C117 1.185 . S
O124 Zn120 2.086 . S
C125 O121 1.278 . S
C125 O126 1.211 . S
O126 C125 1.211 . S
C127 O119 1.284 . S
C127 O128 1.273 . S
O128 C127 1.273 . S
O129 Zn120 1.977 . S
O129 C122 1.267 . S
C130 O131 1.160 . S
C130 O137 1.185 . S
O131 C130 1.160 . S
O132 Zn133 1.899 . S
O132 C140 1.284 . S
Zn133 O132 1.899 . S
Zn133 O134 2.032 . S
Zn133 O137 2.086 . S
Zn133 O142 1.977 . S
O134 Zn133 2.032 . S
O134 C138 1.278 . S
C135 O136 1.203 . S
C135 O142 1.267 . S
O136 C135 1.203 . S
O137 C130 1.185 . S
O137 Zn133 2.086 . S
C138 O134 1.278 . S
C138 O139 1.211 . S
O139 C138 1.211 . S
C140 O132 1.284 . S
C140 O141 1.273 . S
O141 C140 1.273 . S
O142 Zn133 1.977 . S
O142 C135 1.267 . S
C143 O144 1.160 . S
C143 O150 1.185 . S
O144 C143 1.160 . S
O145 Zn146 1.899 . S
O145 C153 1.284 . S
Zn146 O145 1.899 . S
Zn146 O147 2.032 . S
Zn146 O150 2.086 . S
Zn146 O155 1.977 . S
O147 Zn146 2.032 . S
O147 C151 1.278 . S
C148 O149 1.203 . S
C148 O155 1.267 . S
O149 C148 1.203 . S
O150 C143 1.185 . S
O150 Zn146 2.086 . S
C151 O147 1.278 . S
C151 O152 1.211 . S
O152 C151 1.211 . S
C153 O145 1.284 . S
C153 O154 1.273 . S
O154 C153 1.273 . S
O155 Zn146 1.977 . S
O155 C148 1.267 . S
C156 O157 1.160 . S
C156 O163 1.185 . S
O157 C156 1.160 . S
O158 Zn159 1.899 . S
O158 C166 1.284 . S
Zn159 O158 1.899 . S
Zn159 O160 2.032 . S
Zn159 O163 2.086 . S
Zn159 O168 1.977 . S
O160 Zn159 2.032 . S
O160 C164 1.278 . S
C161 O162 1.203 . S
C161 O168 1.267 . S
O162 C161 1.203 . S
O163 C156 1.185 . S
O163 Zn159 2.086 . S
C164 O160 1.278 . S
C164 O165 1.211 . S
O165 C164 1.211 . S
C166 O158 1.284 . S
C166 O167 1.273 . S
O167 C166 1.273 . S
O168 Zn159 1.977 . S
O168 C161 1.267 . S
C169 O170 1.160 . S
C169 O176 1.185 . S
O170 C169 1.160 . S
O171 Zn172 1.899 . S
O171 C179 1.284 . S
Zn172 O171 1.899 . S
Zn172 O173 2.032 . S
Zn172 O176 2.086 . S
Zn172 O181 1.977 . S
O173 Zn172 2.032 . S
O173 C177 1.278 . S
C174 O175 1.203 . S
C174 O181 1.267 . S
O175 C174 1.203 . S
O176 C169 1.185 . S
O176 Zn172 2.086 . S
C177 O173 1.278 . S
C177 O178 1.211 . S
O178 C177 1.211 . S
C179 O171 1.284 . S
C179 O180 1.273 . S
O180 C179 1.273 . S
O181 Zn172 1.977 . S
O181 C174 1.267 . S
C182 O183 1.160 . S
C182 O189 1.185 . S
O183 C182 1.160 . S
O184 Zn185 1.899 . S
O184 C192 1.284 . S
Zn185 O184 1.899 . S
Zn185 O186 2.032 . S
Zn185 O189 2.086 . S
Zn185 O194 1.977 . S
O186 Zn185 2.032 . S
O186 C190 1.278 . S
C187 O188 1.203 . S
C187 O194 1.267 . S
O188 C187 1.203 . S
O189 C182 1.185 . S
O189 Zn185 2.086 . S
C190 O186 1.278 . S
C190 O191 1.211 . S
O191 C190 1.211 . S
C192 O184 1.284 . S
C192 O193 1.273 . S
O193 C192 1.273 . S
O194 Zn185 1.977 . S
O194 C187 1.267 . S
C195 O196 1.160 . S
C195 O202 1.185 . S
O196 C195 1.160 . S
O197 Zn198 1.899 . S
O197 C205 1.284 . S
Zn198 O197 1.899 . S
Zn198 O199 2.032 . S
Zn198 O202 2.086 . S
Zn198 O207 1.977 . S
O199 Zn198 2.032 . S
O199 C203 1.278 . S
C200 O201 1.203 . S
C200 O207 1.267 . S
O201 C200 1.203 . S
O202 C195 1.185 . S
O202 Zn198 2.086 . S
C203 O199 1.278 . S
C203 O204 1.211 . S
O204 C203 1.211 . S
C205 O197 1.284 . S
C205 O206 1.273 . S
O206 C205 1.273 . S
O207 Zn198 1.977 . S
O207 C200 1.267 . S
C208 O209 1.160 . S
C208 O215 1.185 . S
O209 C208 1.160 . S
O210 Zn211 1.899 . S
O210 C218 1.284 . S
Zn211 O210 1.899 . S
Zn211 O212 2.032 . S
Zn211 O215 2.086 . S
Zn211 O220 1.977 . S
O212 Zn211 2.032 . S
O212 C216 1.278 . S
C213 O214 1.203 . S
C213 O220 1.267 . S
O214 C213 1.203 . S
O215 C208 1.185 . S
O215 Zn211 2.086 . S
C216 O212 1.278 . S
C216 O217 1.211 . S
O217 C216 1.211 . S
C218 O210 1.284 . S
C218 O219 1.273 . S
O219 C218 1.273 . S
O220 Zn211 1.977 . S
O220 C213 1.267 . S
C221 O222 1.160 . S
C221 O228 1.185 . S
O222 C221 1.160 . S
O223 Zn224 1.899 . S
O223 C231 1.284 . S
Zn224 O223 1.899 . S
Zn224 O225 2.032 . S
Zn224 O228 2.086 . S
Zn224 O233 1.977 . S
O225 Zn224 2.032 . S
O225 C229 1.278 . S
C226 O227 1.203 . S
C226 O233 1.267 . S
O227 C226 1.203 . S
O228 C221 1.185 . S
O228 Zn224 2.086 . S
C229 O225 1.278 . S
C229 O230 1.211 . S
O230 C229 1.211 . S
C231 O223 1.284 . S
C231 O232 1.273 . S
O232 C231 1.273 . S
O233 Zn224 1.977 . S
O233 C226 1.267 . S
C234 O235 1.160 . S
C234 O241 1.185 . S
O235 C234 1.160 . S
O236 Zn237 1.899 . S
O236 C244 1.284 . S
Zn237 O236 1.899 . S
Zn237 O238 2.032 . S
Zn237 O241 2.086 . S
Zn237 O246 1.977 . S
O238 Zn237 2.032 . S
O238 C242 1.278 . S
C239 O240 1.203 . S
C239 O246 1.267 . S
O240 C239 1.203 . S
O241 C234 1.185 . S
O241 Zn237 2.086 . S
C242 O238 1.278 . S
C242 O243 1.211 . S
O243 C242 1.211 . S
C244 O236 1.284 . S
C244 O245 1.273 . S
O245 C244 1.273 . S
O246 Zn237 1.977 . S
O246 C239 1.267 . S
C247 O248 1.160 . S
C247 O254 1.185 . S
O248 C247 1.160 . S
O249 Zn250 1.899 . S
O249 C257 1.284 . S
Zn250 O249 1.899 . S
Zn250 O251 2.032 . S
Zn250 O254 2.086 . S
Zn250 O259 1.977 . S
O251 Zn250 2.032 . S
O251 C255 1.278 . S
C252 O253 1.203 . S
C252 O259 1.267 . S
O253 C252 1.203 . S
O254 C247 1.185 . S
O254 Zn250 2.086 . S
C255 O251 1.278 . S
C255 O256 1.211 . S
O256 C255 1.211 . S
C257 O249 1.284 . S
C257 O258 1.273 . S
O258 C257 1.273 . S
O259 Zn250 1.977 . S
O259 C252 1.267 . S
C260 O261 1.160 . S
C260 O267 1.185 . S
O261 C260 1.160 . S
O262 Zn263 1.899 . S
O262 C270 1.284 . S
Zn263 O262 1.899 . S
Zn263 O264 2.032 . S
Zn263 O267 2.086 . S
Zn263 O272 1.977 . S
O264 Zn263 2.032 . S
O264 C268 1.278 . S
C265 O266 1.203 . S
C265 O272 1.267 . S
O266 C265 1.203 . S
O267 C260 1.185 . S
O267 Zn263 2.086 . S
C268 O264 1.278 . S
C268 O269 1.211 . S
O269 C268 1.211 . S
C270 O262 1.284 . S
C270 O271 1.273 . S
O271 C270 1.273 . S
O272 Zn263 1.977 . S
O272 C265 1.267 . S
C273 O274 1.160 . S
C273 O280 1.185 . S
O274 C273 1.160 . S
O275 Zn276 1.899 . S
O275 C283 1.284 . S
Zn276 O275 1.899 . S
Zn276 O277 2.032 . S
Zn276 O280 2.086 . S
Zn276 O285 1.977 . S
O277 Zn276 2.032 . S
O277 C281 1.278 . S
C278 O279 1.203 . S
C278 O285 1.267 . S
O279 C278 1.203 . S
O280 C273 1.185 . S
O280 Zn276 2.086 . S
C281 O277 1.278 . S
C281 O282 1.211 . S
O282 C281 1.211 . S
C283 O275 1.284 . S
C283 O284 1.273 . S
O284 C283 1.273 . S
O285 Zn276 1.977 . S
O285 C278 1.267 . S
C286 O287 1.160 . S
C286 O293 1.185 . S
O287 C286 1.160 . S
O288 Zn289 1.899 . S
O288 C296 1.284 . S
Zn289 O288 1.899 . S
Zn289 O290 2.032 . S
Zn289 O293 2.086 . S
Zn289 O298 1.977 . S
O290 Zn289 2.032 . S
O290 C294 1.278 . S
C291 O292 1.203 . S
C291 O298 1.267 . S
O292 C291 1.203 . S
O293 C286 1.185 . S
O293 Zn289 2.086 . S
C294 O290 1.278 . S
C294 O295 1.211 . S
O295 C294 1.211 . S
C296 O288 1.284 . S
C296 O297 1.273 . S
O297 C296 1.273 . S
O298 Zn289 1.977 . S
O298 C291 1.267 . S
C299 O300 1.160 . S
C299 O306 1.185 . S
O300 C299 1.160 . S
O301 Zn302 1.899 . S
O301 C309 1.284 . S
Zn302 O301 1.899 . S
Zn302 O303 2.032 . S
Zn302 O306 2.086 . S
Zn302 O311 1.977 . S
O303 Zn302 2.032 . S
O303 C307 1.278 . S
C304 O305 1.203 . S
C304 O311 1.267 . S
O305 C304 1.203 . S
O306 C299 1.185 . S
O306 Zn302 2.086 . S
C307 O303 1.278 . S
C307 O308 1.211 . S
O308 C307 1.211 . S
C309 O301 1.284 . S
C309 O310 1.273 . S
O310 C309 1.273 . S
O311 Zn302 1.977 . S
O311 C304 1.267 . S
C312 O313 1.160 . S
C312 O319 1.185 . S
O313 C312 1.160 . S
O314 Zn315 1.899 . S
O314 C322 1.284 . S
Zn315 O314 1.899 . S
Zn315 O316 2.032 . S
Zn315 O319 2.086 . S
Zn315 O324 1.977 . S
O316 Zn315 2.032 . S
O316 C320 1.278 . S
C317 O318 1.203 . S
C317 O324 1.267 . S
O318 C317 1.203 . S
O319 C312 1.185 . S
O319 Zn315 2.086 . S
C320 O316 1.278 . S
C320 O321 1.211 . S
O321 C320 1.211 . S
C322 O314 1.284 . S
C322 O323 1.273 . S
O323 C322 1.273 . S
O324 Zn315 1.977 . S
O324 C317 1.267 . S
C325 O326 1.160 . S
C325 O332 1.185 . S
O326 C325 1.160 . S
O327 Zn328 1.899 . S
O327 C335 1.284 . S
Zn328 O327 1.899 . S
Zn328 O329 2.032 . S
Zn328 O332 2.086 . S
Zn328 O337 1.977 . S
O329 Zn328 2.032 . S
O329 C333 1.278 . S
C330 O331 1.203 . S
C330 O337 1.267 . S
O331 C330 1.203 . S
O332 C325 1.185 . S
O332 Zn328 2.086 . S
C333 O329 1.278 . S
C333 O334 1.211 . S
O334 C333 1.211 . S
C335 O327 1.284 . S
C335 O336 1.273 . S
O336 C335 1.273 . S
O337 Zn328 1.977 . S
O337 C330 1.267 . S
C338 O339 1.160 . S
C338 O345 1.185 . S
O339 C338 1.160 . S
O340 Zn341 1.899 . S
O340 C348 1.284 . S
Zn341 O340 1.899 . S
Zn341 O342 2.032 . S
Zn341 O345 2.086 . S
Zn341 O350 1.977 . S
O342 Zn341 2.032 . S
O342 C346 1.278 . S
C343 O344 1.203 . S
C343 O350 1.267 . S
O344 C343 1.203 . S
O345 C338 1.185 . S
O345 Zn341 2.086 . S
C346 O342 1.278 . S
C346 O347 1.211 . S
O347 C346 1.211 . S
C348 O340 1.284 . S
C348 O349 1.273 . S
O349 C348 1.273 . S
O350 Zn341 1.977 . S
O350 C343 1.267 . S
C351 O352 1.160 . S
C351 O358 1.185 . S
O352 C351 1.160 . S
O353 Zn354 1.899 . S
O353 C361 1.284 . S
Zn354 O353 1.899 . S
Zn354 O355 2.032 . S
Zn354 O358 2.086 . S
Zn354 O363 1.977 . S
O355 Zn354 2.032 . S
O355 C359 1.278 . S
C356 O357 1.203 . S
C356 O363 1.267 . S
O357 C356 1.203 . S
O358 C351 1.185 . S
O358 Zn354 2.086 . S
C359 O355 1.278 . S
C359 O360 1.211 . S
O360 C359 1.211 . S
C361 O353 1.284 . S
C361 O362 1.273 . S
O362 C361 1.273 . S
O363 Zn354 1.977 . S
O363 C356 1.267 . S
C364 O365 1.160 . S
C364 O371 1.185 . S
O365 C364 1.160 . S
O366 Zn367 1.899 . S
O366 C374 1.284 . S
Zn367 O366 1.899 . S
Zn367 O368 2.032 . S
Zn367 O371 2.086 . S
Zn367 O376 1.977 . S
O368 Zn367 2.032 . S
O368 C372 1.278 . S
C369 O370 1.203 . S
C369 O376 1.267 . S
O370 C369 1.203 . S
O371 C364 1.185 . S
O371 Zn367 2.086 . S
C372 O368 1.278 . S
C372 O373 1.211 . S
O373 C372 1.211 . S
C374 O366 1.284 . S
C374 O375 1.273 . S
O375 C374 1.273 . S
O376 Zn367 1.977 . S
O376 C369 1.267 . S
C377 O378 1.160 . S
C377 O384 1.185 . S
O378 C377 1.160 . S
O379 Zn380 1.899 . S
O379 C387 1.284 . S
Zn380 O379 1.899 . S
Zn380 O381 2.032 . S
Zn380 O384 2.086 . S
Zn380 O389 1.977 . S
O381 Zn380 2.032 . S
O381 C385 1.278 . S
C382 O383 1.203 . S
C382 O389 1.267 . S
O383 C382 1.203 . S
O384 C377 1.185 . S
O384 Zn380 2.086 . S
C385 O381 1.278 . S
C385 O386 1.211 . S
O386 C385 1.211 . S
C387 O379 1.284 . S
C387 O388 1.273 . S
O388 C387 1.273 . S
O389 Zn380 1.977 . S
O389 C382 1.267 . S
C390 O391 1.160 . S
C390 O397 1.185 . S
O391 C390 1.160 . S
O392 Zn393 1.899 . S
O392 C400 1.284 . S
Zn393 O392 1.899 . S
Zn393 O394 2.032 . S
Zn393 O397 2.086 . S
Zn393 O402 1.977 . S
O394 Zn393 2.032 . S
O394 C398 1.278 . S
C395 O396 1.203 . S
C395 O402 1.267 . S
O396 C395 1.203 . S
O397 C390 1.185 . S
O397 Zn393 2.086 . S
C398 O394 1.278 . S
C398 O399 1.211 . S
O399 C398 1.211 . S
C400 O392 1.284 . S
C400 O401 1.273 . S
O401 C400 1.273 . S
O402 Zn393 1.977 . S
O402 C395 1.267 . S
C403 O404 1.160 . S
C403 O410 1.185 . S
O404 C403 1.160 . S
O405 Zn406 1.899 . S
O405 C413 1.284 . S
Zn406 O405 1.899 . S
Zn406 O407 2.032 . S
Zn406 O410 2.086 . S
Zn406 O415 1.977 . S
O407 Zn406 2.032 . S
O407 C411 1.278 . S
C408 O409 1.203 . S
C408 O415 1.267 . S
O409 C408 1.203 . S
O410 C403 1.185 . S
O410 Zn406 2.086 . S
C411 O407 1.278 . S
C411 O412 1.211 . S
O412 C411 1.211 . S
C413 O405 1.284 . S
C413 O414 1.273 . S
O414 C413 1.273 . S
O415 Zn406 1.977 . S
O415 C408 1.267 . S
C416 O417 1.160 . S
C416 O423 1.185 . S
O417 C416 1.160 . S
O418 Zn419 1.899 . S
O418 C426 1.284 . S
Zn419 O418 1.899 . S
Zn419 O420 2.032 . S
Zn419 O423 2.086 . S
Zn419 O428 1.977 . S
O420 Zn419 2.032 . S
O420 C424 1.278 . S
C421 O422 1.203 . S
C421 O428 1.267 . S
O422 C421 1.203 . S
O423 C416 1.185 . S
O423 Zn419 2.086 . S
C424 O420 1.278 . S
C424 O425 1.211 . S
O425 C424 1.211 . S
C426 O418 1.284 . S
C426 O427 1.273 . S
O427 C426 1.273 . S
O428 Zn419 1.977 . S
O428 C421 1.267 . S
C429 O430 1.160 . S
C429 O436 1.185 . S
O430 C429 1.160 . S
O431 Zn432 1.899 . S
O431 C439 1.284 . S
Zn432 O431 1.899 . S
Zn432 O433 2.032 . S
Zn432 O436 2.086 . S
Zn432 O441 1.977 . S
O433 Zn432 2.032 . S
O433 C437 1.278 . S
C434 O435 1.203 . S
C434 O441 1.267 . S
O435 C434 1.203 . S
O436 C429 1.185 . S
O436 Zn432 2.086 . S
C437 O433 1.278 . S
C437 O438 1.211 . S
O438 C437 1.211 . S
C439 O431 1.284 . S
C439 O440 1.273 . S
O440 C439 1.273 . S
O441 Zn432 1.977 . S
O441 C434 1.267 . S
C442 O443 1.160 . S
C442 O449 1.185 . S
O443 C442 1.160 . S
O444 Zn445 1.899 . S
O444 C452 1.284 . S
Zn445 O444 1.899 . S
Zn445 O446 2.032 . S
Zn445 O449 2.086 . S
Zn445 O454 1.977 . S
O446 Zn445 2.032 . S
O446 C450 1.278 . S
C447 O448 1.203 . S
C447 O454 1.267 . S
O448 C447 1.203 . S
O449 C442 1.185 . S
O449 Zn445 2.086 . S
C450 O446 1.278 . S
C450 O451 1.211 . S
O451 C450 1.211 . S
C452 O444 1.284 . S
C452 O453 1.273 . S
O453 C452 1.273 . S
O454 Zn445 1.977 . S
O454 C447 1.267 . S
C455 O456 1.160 . S
C455 O462 1.185 . S
O456 C455 1.160 . S
O457 Zn458 1.899 . S
O457 C465 1.284 . S
Zn458 O457 1.899 . S
Zn458 O459 2.032 . S
Zn458 O462 2.086 . S
Zn458 O467 1.977 . S
O459 Zn458 2.032 . S
O459 C463 1.278 . S
C460 O461 1.203 . S
C460 O467 1.267 . S
O461 C460 1.203 . S
O462 C455 1.185 . S
O462 Zn458 2.086 . S
C463 O459 1.278 . S
C463 O464 1.211 . S
O464 C463 1.211 . S
C465 O457 1.284 . S
C465 O466 1.273 . S
O466 C465 1.273 . S
O467 Zn458 1.977 . S
O467 C460 1.267 . S
H468 C476 0.950 . S
H469 C481 0.950 . S
H470 C478 0.950 . S
H471 C480 0.950 . S
H472 C482 0.950 . S
H473 C484 0.950 . S
H474 C486 0.950 . S
H475 C487 0.950 . S
C476 H468 0.950 . S
C476 C477 1.386 . S
C476 C478 1.391 . S
C477 C476 1.386 . S
C477 C481 1.393 . S
C478 H470 0.950 . S
C478 C476 1.391 . S
C478 C479 1.400 . S
C479 C478 1.400 . S
C479 C480 1.398 . S
C479 C485 1.491 . S
C480 H471 0.950 . S
C480 C479 1.398 . S
C480 C481 1.391 . S
C481 H469 0.950 . S
C481 C477 1.393 . S
C481 C480 1.391 . S
C482 H472 0.950 . S
C482 C483 1.386 . S
C482 C484 1.391 . S
C483 C482 1.386 . S
C483 C487 1.393 . S
C484 H473 0.950 . S
C484 C482 1.391 . S
C484 C485 1.400 . S
C485 C479 1.491 . S
C485 C484 1.400 . S
C485 C486 1.398 . S
C486 H474 0.950 . S
C486 C485 1.398 . S
C486 C487 1.391 . S
C487 H475 0.950 . S
C487 C483 1.393 . S
C487 C486 1.391 . S
H488 C496 0.950 . S
H489 C501 0.950 . S
H490 C498 0.950 . S
H491 C500 0.950 . S
H492 C502 0.950 . S
H493 C504 0.950 . S
H494 C506 0.950 . S
H495 C507 0.950 . S
C496 H488 0.950 . S
C496 C497 1.386 . S
C496 C498 1.391 . S
C497 C496 1.386 . S
C497 C501 1.393 . S
C498 H490 0.950 . S
C498 C496 1.391 . S
C498 C499 1.400 . S
C499 C498 1.400 . S
C499 C500 1.398 . S
C499 C505 1.491 . S
C500 H491 0.950 . S
C500 C499 1.398 . S
C500 C501 1.391 . S
C501 H489 0.950 . S
C501 C497 1.393 . S
C501 C500 1.391 . S
C502 H492 0.950 . S
C502 C503 1.386 . S
C502 C504 1.391 . S
C503 C502 1.386 . S
C503 C507 1.393 . S
C504 H493 0.950 . S
C504 C502 1.391 . S
C504 C505 1.400 . S
C505 C499 1.491 . S
C505 C504 1.400 . S
C505 C506 1.398 . S
C506 H494 0.950 . S
C506 C505 1.398 . S
C506 C507 1.391 . S
C507 H495 0.950 . S
C507 C503 1.393 . S
C507 C506 1.391 . S
H508 C516 0.950 . S
H509 C521 0.950 . S
H510 C518 0.950 . S
H511 C520 0.950 . S
H512 C522 0.950 . S
H513 C524 0.950 . S
H514 C526 0.950 . S
H515 C527 0.950 . S
C516 H508 0.950 . S
C516 C517 1.386 . S
C516 C518 1.391 . S
C517 C516 1.386 . S
C517 C521 1.393 . S
C518 H510 0.950 . S
C518 C516 1.391 . S
C518 C519 1.400 . S
C519 C518 1.400 . S
C519 C520 1.398 . S
C519 C525 1.491 . S
C520 H511 0.950 . S
C520 C519 1.398 . S
C520 C521 1.391 . S
C521 H509 0.950 . S
C521 C517 1.393 . S
C521 C520 1.391 . S
C522 H512 0.950 . S
C522 C523 1.386 . S
C522 C524 1.391 . S
C523 C522 1.386 . S
C523 C527 1.393 . S
C524 H513 0.950 . S
C524 C522 1.391 . S
C524 C525 1.400 . S
C525 C519 1.491 . S
C525 C524 1.400 . S
C525 C526 1.398 . S
C526 H514 0.950 . S
C526 C525 1.398 . S
C526 C527 1.391 . S
C527 H515 0.950 . S
C527 C523 1.393 . S
C527 C526 1.391 . S
H528 C536 0.950 . S
H529 C541 0.950 . S
H530 C538 0.950 . S
H531 C540 0.950 . S
H532 C542 0.950 . S
H533 C544 0.950 . S
H534 C546 0.950 . S
H535 C547 0.950 . S
C536 H528 0.950 . S
C536 C537 1.386 . S
C536 C538 1.391 . S
C537 C536 1.386 . S
C537 C541 1.393 . S
C538 H530 0.950 . S
C538 C536 1.391 . S
C538 C539 1.400 . S
C539 C538 1.400 . S
C539 C540 1.398 . S
C539 C545 1.491 . S
C540 H531 0.950 . S
C540 C539 1.398 . S
C540 C541 1.391 . S
C541 H529 0.950 . S
C541 C537 1.393 . S
C541 C540 1.391 . S
C542 H532 0.950 . S
C542 C543 1.386 . S
C542 C544 1.391 . S
C543 C542 1.386 . S
C543 C547 1.393 . S
C544 H533 0.950 . S
C544 C542 1.391 . S
C544 C545 1.400 . S
C545 C539 1.491 . S
C545 C544 1.400 . S
C545 C546 1.398 . S
C546 H534 0.950 . S
C546 C545 1.398 . S
C546 C547 1.391 . S
C547 H535 0.950 . S
C547 C543 1.393 . S
C547 C546 1.391 . S
H548 C556 0.950 . S
H549 C561 0.950 . S
H550 C558 0.950 . S
H551 C560 0.950 . S
H552 C562 0.950 . S
H553 C564 0.950 . S
H554 C566 0.950 . S
H555 C567 0.950 . S
C556 H548 0.950 . S
C556 C557 1.386 . S
C556 C558 1.391 . S
C557 C556 1.386 . S
C557 C561 1.393 . S
C558 H550 0.950 . S
C558 C556 1.391 . S
C558 C559 1.400 . S
C559 C558 1.400 . S
C559 C560 1.398 . S
C559 C565 1.491 . S
C560 H551 0.950 . S
C560 C559 1.398 . S
C560 C561 1.391 . S
C561 H549 0.950 . S
C561 C557 1.393 . S
C561 C560 1.391 . S
C562 H552 0.950 . S
C562 C563 1.386 . S
C562 C564 1.391 . S
C563 C562 1.386 . S
C563 C567 1.393 . S
C564 H553 0.950 . S
C564 C562 1.391 . S
C564 C565 1.400 . S
C565 C559 1.491 . S
C565 C564 1.400 . S
C565 C566 1.398 . S
C566 H554 0.950 . S
C566 C565 1.398 . S
C566 C567 1.391 . S
C567 H555 0.950 . S
C567 C563 1.393 . S
C567 C566 1.391 . S
H568 C576 0.950 . S
H569 C581 0.950 . S
H570 C578 0.950 . S
H571 C580 0.950 . S
H572 C582 0.950 . S
H573 C584 0.950 . S
H574 C586 0.950 . S
H575 C587 0.950 . S
C576 H568 0.950 . S
C576 C577 1.386 . S
C576 C578 1.391 . S
C577 C576 1.386 . S
C577 C581 1.393 . S
C578 H570 0.950 . S
C578 C576 1.391 . S
C578 C579 1.400 . S
C579 C578 1.400 . S
C579 C580 1.398 . S
C579 C585 1.491 . S
C580 H571 0.950 . S
C580 C579 1.398 . S
C580 C581 1.391 . S
C581 H569 0.950 . S
C581 C577 1.393 . S
C581 C580 1.391 . S
C582 H572 0.950 . S
C582 C583 1.386 . S
C582 C584 1.391 . S
C583 C582 1.386 . S
C583 C587 1.393 . S
C584 H573 0.950 . S
C584 C582 1.391 . S
C584 C585 1.400 . S
C585 C579 1.491 . S
C585 C584 1.400 . S
C585 C586 1.398 . S
C586 H574 0.950 . S
C586 C585 1.398 . S
C586 C587 1.391 . S
C587 H575 0.950 . S
C587 C583 1.393 . S
C587 C586 1.391 . S
H588 C596 0.950 . S
H589 C601 0.950 . S
H590 C598 0.950 . S
H591 C600 0.950 . S
H592 C602 0.950 . S
H593 C604 0.950 . S
H594 C606 0.950 . S
H595 C607 0.950 . S
C596 H588 0.950 . S
C596 C597 1.386 . S
C596 C598 1.391 . S
C597 C596 1.386 . S
C597 C601 1.393 . S
C598 H590 0.950 . S
C598 C596 1.391 . S
C598 C599 1.400 . S
C599 C598 1.400 . S
C599 C600 1.398 . S
C599 C605 1.491 . S
C600 H591 0.950 . S
C600 C599 1.398 . S
C600 C601 1.391 . S
C601 H589 0.950 . S
C601 C597 1.393 . S
C601 C600 1.391 . S
C602 H592 0.950 . S
C602 C603 1.386 . S
C602 C604 1.391 . S
C603 C602 1.386 . S
C603 C607 1.393 . S
C604 H593 0.950 . S
C604 C602 1.391 . S
C604 C605 1.400 . S
C605 C599 1.491 . S
C605 C604 1.400 . S
C605 C606 1.398 . S
C606 H594 0.950 . S
C606 C605 1.398 . S
C606 C607 1.391 . S
C607 H595 0.950 . S
C607 C603 1.393 . S
C607 C606 1.391 . S
H608 C616 0.950 . S
H609 C621 0.950 . S
H610 C618 0.950 . S
H611 C620 0.950 . S
H612 C622 0.950 . S
H613 C624 0.950 . S
H614 C626 0.950 . S
H615 C627 0.950 . S
C616 H608 0.950 . S
C616 C617 1.386 . S
C616 C618 1.391 . S
C617 C616 1.386 . S
C617 C621 1.393 . S
C618 H610 0.950 . S
C618 C616 1.391 . S
C618 C619 1.400 . S
C619 C618 1.400 . S
C619 C620 1.398 . S
C619 C625 1.491 . S
C620 H611 0.950 . S
C620 C619 1.398 . S
C620 C621 1.391 . S
C621 H609 0.950 . S
C621 C617 1.393 . S
C621 C620 1.391 . S
C622 H612 0.950 . S
C622 C623 1.386 . S
C622 C624 1.391 . S
C623 C622 1.386 . S
C623 C627 1.393 . S
C624 H613 0.950 . S
C624 C622 1.391 . S
C624 C625 1.400 . S
C625 C619 1.491 . S
C625 C624 1.400 . S
C625 C626 1.398 . S
C626 H614 0.950 . S
C626 C625 1.398 . S
C626 C627 1.391 . S
C627 H615 0.950 . S
C627 C623 1.393 . S
C627 C626 1.391 . S
H628 C636 0.950 . S
H629 C641 0.950 . S
H630 C638 0.950 . S
H631 C640 0.950 . S
H632 C642 0.950 . S
H633 C644 0.950 . S
H634 C646 0.950 . S
H635 C647 0.950 . S
C636 H628 0.950 . S
C636 C637 1.386 . S
C636 C638 1.391 . S
C637 C636 1.386 . S
C637 C641 1.393 . S
C638 H630 0.950 . S
C638 C636 1.391 . S
C638 C639 1.400 . S
C639 C638 1.400 . S
C639 C640 1.398 . S
C639 C645 1.491 . S
C640 H631 0.950 . S
C640 C639 1.398 . S
C640 C641 1.391 . S
C641 H629 0.950 . S
C641 C637 1.393 . S
C641 C640 1.391 . S
C642 H632 0.950 . S
C642 C643 1.386 . S
C642 C644 1.391 . S
C643 C642 1.386 . S
C643 C647 1.393 . S
C644 H633 0.950 . S
C644 C642 1.391 . S
C644 C645 1.400 . S
C645 C639 1.491 . S
C645 C644 1.400 . S
C645 C646 1.398 . S
C646 H634 0.950 . S
C646 C645 1.398 . S
C646 C647 1.391 . S
C647 H635 0.950 . S
C647 C643 1.393 . S
C647 C646 1.391 . S
H648 C656 0.950 . S
H649 C661 0.950 . S
H650 C658 0.950 . S
H651 C660 0.950 . S
H652 C662 0.950 . S
H653 C664 0.950 . S
H654 C666 0.950 . S
H655 C667 0.950 . S
C656 H648 0.950 . S
C656 C657 1.386 . S
C656 C658 1.391 . S
C657 C656 1.386 . S
C657 C661 1.393 . S
C658 H650 0.950 . S
C658 C656 1.391 . S
C658 C659 1.400 . S
C659 C658 1.400 . S
C659 C660 1.398 . S
C659 C665 1.491 . S
C660 H651 0.950 . S
C660 C659 1.398 . S
C660 C661 1.391 . S
C661 H649 0.950 . S
C661 C657 1.393 . S
C661 C660 1.391 . S
C662 H652 0.950 . S
C662 C663 1.386 . S
C662 C664 1.391 . S
C663 C662 1.386 . S
C663 C667 1.393 . S
C664 H653 0.950 . S
C664 C662 1.391 . S
C664 C665 1.400 . S
C665 C659 1.491 . S
C665 C664 1.400 . S
C665 C666 1.398 . S
C666 H654 0.950 . S
C666 C665 1.398 . S
C666 C667 1.391 . S
C667 H655 0.950 . S
C667 C663 1.393 . S
C667 C666 1.391 . S
H668 C676 0.950 . S
H669 C681 0.950 . S
H670 C678 0.950 . S
H671 C680 0.950 . S
H672 C682 0.950 . S
H673 C684 0.950 . S
H674 C686 0.950 . S
H675 C687 0.950 . S
C676 H668 0.950 . S
C676 C677 1.386 . S
C676 C678 1.391 . S
C677 C676 1.386 . S
C677 C681 1.393 . S
C678 H670 0.950 . S
C678 C676 1.391 . S
C678 C679 1.400 . S
C679 C678 1.400 . S
C679 C680 1.398 . S
C679 C685 1.491 . S
C680 H671 0.950 . S
C680 C679 1.398 . S
C680 C681 1.391 . S
C681 H669 0.950 . S
C681 C677 1.393 . S
C681 C680 1.391 . S
C682 H672 0.950 . S
C682 C683 1.386 . S
C682 C684 1.391 . S
C683 C682 1.386 . S
C683 C687 1.393 . S
C684 H673 0.950 . S
C684 C682 1.391 . S
C684 C685 1.400 . S
C685 C679 1.491 . S
C685 C684 1.400 . S
C685 C686 1.398 . S
C686 H674 0.950 . S
C686 C685 1.398 . S
C686 C687 1.391 . S
C687 H675 0.950 . S
C687 C683 1.393 . S
C687 C686 1.391 . S
H688 C696 0.950 . S
H689 C701 0.950 . S
H690 C698 0.950 . S
H691 C700 0.950 . S
H692 C702 0.950 . S
H693 C704 0.950 . S
H694 C706 0.950 . S
H695 C707 0.950 . S
C696 H688 0.950 . S
C696 C697 1.386 . S
C696 C698 1.391 . S
C697 C696 1.386 . S
C697 C701 1.393 . S
C698 H690 0.950 . S
C698 C696 1.391 . S
C698 C699 1.400 . S
C699 C698 1.400 . S
C699 C700 1.398 . S
C699 C705 1.491 . S
C700 H691 0.950 . S
C700 C699 1.398 . S
C700 C701 1.391 . S
C701 H689 0.950 . S
C701 C697 1.393 . S
C701 C700 1.391 . S
C702 H692 0.950 . S
C702 C703 1.386 . S
C702 C704 1.391 . S
C703 C702 1.386 . S
C703 C707 1.393 . S
C704 H693 0.950 . S
C704 C702 1.391 . S
C704 C705 1.400 . S
C705 C699 1.491 . S
C705 C704 1.400 . S
C705 C706 1.398 . S
C706 H694 0.950 . S
C706 C705 1.398 . S
C706 C707 1.391 . S
C707 H695 0.950 . S
C707 C703 1.393 . S
C707 C706 1.391 . S
H708 C716 0.950 . S
H709 C721 0.950 . S
H710 C718 0.950 1_655 S
H711 C720 0.950 . S
H712 C722 0.950 . S
H713 C724 0.950 1_455 S
H714 C726 0.950 . S
H715 C727 0.950 . S
C716 H708 0.950 . S
C716 C717 1.386 . S
C716 C718 1.391 . S
C717 C716 1.386 . S
C717 C721 1.393 . S
C718 H710 0.950 1_455 S
C718 C716 1.391 . S
C718 C719 1.400 . S
C719 C718 1.400 . S
C719 C720 1.398 . S
C719 C725 1.491 1_455 S
C720 H711 0.950 . S
C720 C719 1.398 . S
C720 C721 1.391 . S
C721 H709 0.950 . S
C721 C717 1.393 . S
C721 C720 1.391 . S
C722 H712 0.950 . S
C722 C723 1.386 . S
C722 C724 1.391 . S
C723 C722 1.386 . S
C723 C727 1.393 . S
C724 H713 0.950 1_655 S
C724 C722 1.391 . S
C724 C725 1.400 . S
C725 C719 1.491 1_655 S
C725 C724 1.400 . S
C725 C726 1.398 . S
C726 H714 0.950 . S
C726 C725 1.398 . S
C726 C727 1.391 . S
C727 H715 0.950 . S
C727 C723 1.393 . S
C727 C726 1.391 . S
H728 C736 0.950 . S
H729 C741 0.950 . S
H730 C738 0.950 . S
H731 C740 0.950 . S
H732 C742 0.950 . S
H733 C744 0.950 . S
H734 C746 0.950 . S
H735 C747 0.950 . S
C736 H728 0.950 . S
C736 C737 1.386 . S
C736 C738 1.391 . S
C737 C736 1.386 . S
C737 C741 1.393 . S
C738 H730 0.950 . S
C738 C736 1.391 . S
C738 C739 1.400 . S
C739 C738 1.400 . S
C739 C740 1.398 . S
C739 C745 1.491 . S
C740 H731 0.950 . S
C740 C739 1.398 . S
C740 C741 1.391 . S
C741 H729 0.950 . S
C741 C737 1.393 . S
C741 C740 1.391 . S
C742 H732 0.950 . S
C742 C743 1.386 . S
C742 C744 1.391 . S
C743 C742 1.386 . S
C743 C747 1.393 . S
C744 H733 0.950 . S
C744 C742 1.391 . S
C744 C745 1.400 . S
C745 C739 1.491 . S
C745 C744 1.400 . S
C745 C746 1.398 . S
C746 H734 0.950 . S
C746 C745 1.398 . S
C746 C747 1.391 . S
C747 H735 0.950 . S
C747 C743 1.393 . S
C747 C746 1.391 . S
H748 C756 0.950 . S
H749 C761 0.950 . S
H750 C758 0.950 . S
H751 C760 0.950 . S
H752 C762 0.950 . S
H753 C764 0.950 . S
H754 C766 0.950 . S
H755 C767 0.950 . S
C756 H748 0.950 . S
C756 C757 1.386 . S
C756 C758 1.391 1_545 S
C757 C756 1.386 . S
C757 C761 1.393 . S
C758 H750 0.950 . S
C758 C756 1.391 1_565 S
C758 C759 1.400 1_565 S
C759 C758 1.400 1_545 S
C759 C760 1.398 . S
C759 C765 1.491 1_545 S
C760 H751 0.950 . S
C760 C759 1.398 . S
C760 C761 1.391 . S
C761 H749 0.950 . S
C761 C757 1.393 . S
C761 C760 1.391 . S
C762 H752 0.950 . S
C762 C763 1.386 . S
C762 C764 1.391 1_565 S
C763 C762 1.386 . S
C763 C767 1.393 . S
C764 H753 0.950 . S
C764 C762 1.391 1_545 S
C764 C765 1.400 1_545 S
C765 C759 1.491 1_565 S
C765 C764 1.400 1_565 S
C765 C766 1.398 . S
C766 H754 0.950 . S
C766 C765 1.398 . S
C766 C767 1.391 . S
C767 H755 0.950 . S
C767 C763 1.393 . S
C767 C766 1.391 . S
H768 C776 0.950 . S
H769 C781 0.950 . S
H770 C778 0.950 1_545 S
H771 C780 0.959 . S
H772 C782 0.950 . S
H773 C784 0.950 1_565 S
H774 C786 0.959 . S
H775 C787 0.950 . S
C776 H768 0.950 . S
C776 C777 1.386 . S
C776 C778 1.391 . S
C777 C776 1.386 . S
C777 C781 1.393 . S
C778 H770 0.950 1_565 S
C778 C776 1.391 . S
C778 C779 1.400 . S
C779 C778 1.400 . S
C779 C780 1.398 . S
C779 C785 1.491 1_564 S
C780 H771 0.959 . S
C780 C779 1.398 . S
C780 C781 1.391 . S
C781 H769 0.950 . S
C781 C777 1.393 . S
C781 C780 1.391 . S
C782 H772 0.950 . S
C782 C783 1.386 . S
C782 C784 1.391 . S
C783 C782 1.386 . S
C783 C787 1.393 . S
C784 H773 0.950 1_545 S
C784 C782 1.391 . S
C784 C785 1.400 . S
C785 C779 1.491 1_546 S
C785 C784 1.400 . S
C785 C786 1.398 . S
C786 H774 0.959 . S
C786 C785 1.398 . S
C786 C787 1.391 . S
C787 H775 0.950 . S
C787 C783 1.393 . S
C787 C786 1.391 . S
H788 C796 0.950 . S
H789 C801 0.950 . S
H790 C798 0.950 . S
H791 C800 0.950 . S
H792 C802 0.950 . S
H793 C804 0.950 . S
H794 C806 0.950 . S
H795 C807 0.950 . S
C796 H788 0.950 . S
C796 C797 1.386 . S
C796 C798 1.391 . S
C797 C796 1.386 . S
C797 C801 1.393 . S
C798 H790 0.950 . S
C798 C796 1.391 . S
C798 C799 1.400 . S
C799 C798 1.400 . S
C799 C800 1.398 . S
C799 C805 1.491 1_656 S
C800 H791 0.950 . S
C800 C799 1.398 . S
C800 C801 1.391 . S
C801 H789 0.950 . S
C801 C797 1.393 . S
C801 C800 1.391 . S
C802 H792 0.950 . S
C802 C803 1.386 . S
C802 C804 1.391 . S
C803 C802 1.386 . S
C803 C807 1.393 . S
C804 H793 0.950 . S
C804 C802 1.391 . S
C804 C805 1.400 . S
C805 C799 1.491 1_454 S
C805 C804 1.400 . S
C805 C806 1.398 . S
C806 H794 0.950 . S
C806 C805 1.398 . S
C806 C807 1.391 . S
C807 H795 0.950 . S
C807 C803 1.393 . S
C807 C806 1.391 . S
H808 C816 0.950 . S
H809 C821 0.950 . S
H810 C818 0.950 . S
H811 C820 0.950 . S
H812 C822 0.950 . S
H813 C824 0.950 . S
H814 C826 0.950 . S
H815 C827 0.950 . S
C816 H808 0.950 . S
C816 C817 1.386 . S
C816 C818 1.391 . S
C817 C816 1.386 . S
C817 C821 1.393 . S
C818 H810 0.950 . S
C818 C816 1.391 . S
C818 C819 1.400 . S
C819 C818 1.400 . S
C819 C820 1.398 . S
C819 C825 1.491 1_556 S
C820 H811 0.950 . S
C820 C819 1.398 . S
C820 C821 1.391 . S
C821 H809 0.950 . S
C821 C817 1.393 . S
C821 C820 1.391 . S
C822 H812 0.950 . S
C822 C823 1.386 . S
C822 C824 1.391 . S
C823 C822 1.386 . S
C823 C827 1.393 . S
C824 H813 0.950 . S
C824 C822 1.391 . S
C824 C825 1.400 . S
C825 C819 1.491 1_554 S
C825 C824 1.400 . S
C825 C826 1.398 . S
C826 H814 0.950 . S
C826 C825 1.398 . S
C826 C827 1.391 . S
C827 H815 0.950 . S
C827 C823 1.393 . S
C827 C826 1.391 . S
H828 C836 0.950 . S
H829 C841 0.950 . S
H830 C838 0.950 1_565 S
H831 C840 0.950 . S
H832 C842 0.950 1_545 S
H833 C844 0.950 . S
H834 C846 0.950 . S
H835 C847 0.950 . S
C836 H828 0.950 . S
C836 C837 1.386 . S
C836 C838 1.391 . S
C837 C836 1.386 . S
C837 C841 1.393 . S
C838 H830 0.950 1_545 S
C838 C836 1.391 . S
C838 C839 1.400 . S
C839 C838 1.400 . S
C839 C840 1.398 . S
C839 C845 1.491 . S
C840 H831 0.950 . S
C840 C839 1.398 . S
C840 C841 1.391 . S
C841 H829 0.950 . S
C841 C837 1.393 . S
C841 C840 1.391 . S
C842 H832 0.950 1_565 S
C842 C843 1.386 . S
C842 C844 1.391 1_565 S
C843 C842 1.386 . S
C843 C847 1.393 . S
C844 H833 0.950 . S
C844 C842 1.391 1_545 S
C844 C845 1.400 . S
C845 C839 1.491 . S
C845 C844 1.400 . S
C845 C846 1.398 1_545 S
C846 H834 0.950 . S
C846 C845 1.398 1_565 S
C846 C847 1.391 . S
C847 H835 0.950 . S
C847 C843 1.393 . S
C847 C846 1.391 . S
H848 C856 0.960 . S
H849 C861 0.950 . S
H850 C858 0.950 . S
H851 C860 0.950 . S
H852 C862 0.950 . S
H853 C864 0.950 1_455 S
H854 C866 0.950 . S
H855 C867 0.950 . S
C856 H848 0.960 . S
C856 C857 1.375 1_655 S
C856 C858 1.392 . S
C857 C856 1.375 1_455 S
C857 C861 1.393 . S
C858 H850 0.950 . S
C858 C856 1.392 . S
C858 C859 1.400 . S
C859 C858 1.400 . S
C859 C860 1.398 1_655 S
C859 C865 1.491 . S
C860 H851 0.950 . S
C860 C859 1.398 1_455 S
C860 C861 1.391 . S
C861 H849 0.950 . S
C861 C857 1.393 . S
C861 C860 1.391 . S
C862 H852 0.950 . S
C862 C863 1.386 . S
C862 C864 1.391 . S
C863 C862 1.386 . S
C863 C867 1.393 . S
C864 H853 0.950 1_655 S
C864 C862 1.391 . S
C864 C865 1.400 . S
C865 C859 1.491 . S
C865 C864 1.400 . S
C865 C866 1.398 . S
C866 H854 0.950 . S
C866 C865 1.398 . S
C866 C867 1.391 . S
C867 H855 0.950 . S
C867 C863 1.393 . S
C867 C866 1.391 . S
H868 C876 0.950 . S
H869 C881 0.950 . S
H870 C878 0.950 . S
H871 C880 0.950 . S
H872 C882 0.950 . S
H873 C884 0.950 . S
H874 C886 0.950 . S
H875 C887 0.950 . S
C876 H868 0.950 . S
C876 C877 1.386 . S
C876 C878 1.391 . S
C877 C876 1.386 . S
C877 C881 1.393 . S
C878 H870 0.950 . S
C878 C876 1.391 . S
C878 C879 1.400 . S
C879 C878 1.400 . S
C879 C880 1.398 . S
C879 C885 1.491 . S
C880 H871 0.950 . S
C880 C879 1.398 . S
C880 C881 1.391 . S
C881 H869 0.950 . S
C881 C877 1.393 . S
C881 C880 1.391 . S
C882 H872 0.950 . S
C882 C883 1.386 . S
C882 C884 1.391 . S
C883 C882 1.386 . S
C883 C887 1.393 . S
C884 H873 0.950 . S
C884 C882 1.391 . S
C884 C885 1.400 . S
C885 C879 1.491 . S
C885 C884 1.400 . S
C885 C886 1.398 . S
C886 H874 0.950 . S
C886 C885 1.398 . S
C886 C887 1.391 . S
C887 H875 0.950 . S
C887 C883 1.393 . S
C887 C886 1.391 . S
H888 C896 0.950 . S
H889 C901 0.950 . S
H890 C898 0.950 . S
H891 C900 0.950 . S
H892 C902 0.950 . S
H893 C904 0.950 . S
H894 C906 0.918 1_655 S
H895 C907 0.950 . S
C896 H888 0.950 . S
C896 C897 1.386 . S
C896 C898 1.391 . S
C897 C896 1.386 . S
C897 C901 1.393 1_655 S
C898 H890 0.950 . S
C898 C896 1.391 . S
C898 C899 1.400 1_655 S
C899 C898 1.400 1_455 S
C899 C900 1.398 . S
C899 C905 1.491 . S
C900 H891 0.950 . S
C900 C899 1.398 . S
C900 C901 1.391 . S
C901 H889 0.950 . S
C901 C897 1.393 1_455 S
C901 C900 1.391 . S
C902 H892 0.950 . S
C902 C903 1.386 . S
C902 C904 1.391 . S
C903 C902 1.386 . S
C903 C907 1.393 . S
C904 H893 0.950 . S
C904 C902 1.391 . S
C904 C905 1.400 . S
C905 C899 1.491 . S
C905 C904 1.400 . S
C905 C906 1.403 . S
C906 H894 0.918 1_455 S
C906 C905 1.403 . S
C906 C907 1.419 . S
C907 H895 0.950 . S
C907 C903 1.393 . S
C907 C906 1.419 . S
H908 C916 0.950 . S
H909 C921 0.950 . S
H910 C918 0.950 . S
H911 C920 0.950 . S
H912 C922 0.950 . S
H913 C924 0.950 . S
H914 C926 0.950 . S
H915 C927 0.950 . S
C916 H908 0.950 . S
C916 C917 1.386 . S
C916 C918 1.391 . S
C917 C916 1.386 . S
C917 C921 1.393 . S
C918 H910 0.950 . S
C918 C916 1.391 . S
C918 C919 1.400 . S
C919 C918 1.400 . S
C919 C920 1.398 . S
C919 C925 1.491 . S
C920 H911 0.950 . S
C920 C919 1.398 . S
C920 C921 1.391 . S
C921 H909 0.950 . S
C921 C917 1.393 . S
C921 C920 1.391 . S
C922 H912 0.950 . S
C922 C923 1.386 . S
C922 C924 1.391 . S
C923 C922 1.386 . S
C923 C927 1.393 . S
C924 H913 0.950 . S
C924 C922 1.391 . S
C924 C925 1.400 . S
C925 C919 1.491 . S
C925 C924 1.400 . S
C925 C926 1.398 . S
C926 H914 0.950 . S
C926 C925 1.398 . S
C926 C927 1.391 . S
C927 H915 0.950 . S
C927 C923 1.393 . S
C927 C926 1.391 . S
H928 C936 0.950 . S
H929 C941 0.950 1_565 S
H930 C938 0.950 . S
H931 C940 0.950 . S
H932 C942 0.950 . S
H933 C944 0.950 . S
H934 C946 0.950 1_545 S
H935 C947 0.950 . S
C936 H928 0.950 . S
C936 C937 1.386 . S
C936 C938 1.391 . S
C937 C936 1.386 . S
C937 C941 1.393 . S
C938 H930 0.950 . S
C938 C936 1.391 . S
C938 C939 1.400 1_545 S
C939 C938 1.400 1_565 S
C939 C940 1.398 . S
C939 C945 1.491 . S
C940 H931 0.950 . S
C940 C939 1.398 . S
C940 C941 1.391 1_565 S
C941 H929 0.950 1_545 S
C941 C937 1.393 . S
C941 C940 1.391 1_545 S
C942 H932 0.950 . S
C942 C943 1.386 . S
C942 C944 1.391 . S
C943 C942 1.386 . S
C943 C947 1.393 . S
C944 H933 0.950 . S
C944 C942 1.391 . S
C944 C945 1.400 . S
C945 C939 1.491 . S
C945 C944 1.400 . S
C945 C946 1.398 . S
C946 H934 0.950 1_565 S
C946 C945 1.398 . S
C946 C947 1.391 . S
C947 H935 0.950 . S
C947 C943 1.393 . S
C947 C946 1.391 . S
H948 C956 0.950 . S
H949 C961 0.950 . S
H950 C958 0.950 . S
H951 C960 0.950 1_545 S
H952 C962 0.950 . S
H953 C964 0.950 . S
H954 C966 0.950 . S
H955 C967 0.950 . S
C956 H948 0.950 . S
C956 C957 1.386 . S
C956 C958 1.391 . S
C957 C956 1.386 . S
C957 C961 1.393 . S
C958 H950 0.950 . S
C958 C956 1.391 . S
C958 C959 1.400 . S
C959 C958 1.400 . S
C959 C960 1.398 . S
C959 C965 1.491 . S
C960 H951 0.950 1_565 S
C960 C959 1.398 . S
C960 C961 1.391 . S
C961 H949 0.950 . S
C961 C957 1.393 . S
C961 C960 1.391 . S
C962 H952 0.950 . S
C962 C963 1.386 . S
C962 C964 1.391 . S
C963 C962 1.386 . S
C963 C967 1.393 . S
C964 H953 0.950 . S
C964 C962 1.391 . S
C964 C965 1.400 1_545 S
C965 C959 1.491 . S
C965 C964 1.400 1_565 S
C965 C966 1.398 . S
C966 H954 0.950 . S
C966 C965 1.398 . S
C966 C967 1.391 1_565 S
C967 H955 0.950 . S
C967 C963 1.393 . S
C967 C966 1.391 1_545 S
H968 C976 0.950 1_455 S
H969 C981 0.950 . S
H970 C978 0.950 . S
H971 C980 0.950 . S
H972 C982 0.950 . S
H973 C984 0.950 1_655 S
H974 C986 0.950 . S
H975 C987 0.950 . S
C976 H968 0.950 1_655 S
C976 C977 1.386 . S
C976 C978 1.391 1_655 S
C977 C976 1.386 . S
C977 C981 1.393 . S
C978 H970 0.950 . S
C978 C976 1.391 1_455 S
C978 C979 1.400 . S
C979 C978 1.400 . S
C979 C980 1.398 1_455 S
C979 C985 1.491 . S
C980 H971 0.950 . S
C980 C979 1.398 1_655 S
C980 C981 1.391 . S
C981 H969 0.950 . S
C981 C977 1.393 . S
C981 C980 1.391 . S
C982 H972 0.950 . S
C982 C983 1.386 . S
C982 C984 1.391 . S
C983 C982 1.386 . S
C983 C987 1.393 . S
C984 H973 0.950 1_455 S
C984 C982 1.391 . S
C984 C985 1.400 . S
C985 C979 1.491 . S
C985 C984 1.400 . S
C985 C986 1.398 . S
C986 H974 0.950 . S
C986 C985 1.398 . S
C986 C987 1.391 . S
C987 H975 0.950 . S
C987 C983 1.393 . S
C987 C986 1.391 . S
H988 C996 0.950 . S
H989 C1001 0.950 . S
H990 C998 0.950 . S
H991 C1000 0.950 . S
H992 C1002 0.950 . S
H993 C1004 0.950 . S
H994 C1006 0.950 . S
H995 C1007 0.950 . S
C996 H988 0.950 . S
C996 C997 1.386 . S
C996 C998 1.391 . S
C997 C996 1.386 . S
C997 C1001 1.393 . S
C998 H990 0.950 . S
C998 C996 1.391 . S
C998 C999 1.400 . S
C999 C998 1.400 . S
C999 C1000 1.398 . S
C999 C1005 1.491 . S
C1000 H991 0.950 . S
C1000 C999 1.398 . S
C1000 C1001 1.391 . S
C1001 H989 0.950 . S
C1001 C997 1.393 . S
C1001 C1000 1.391 . S
C1002 H992 0.950 . S
C1002 C1003 1.386 . S
C1002 C1004 1.391 . S
C1003 C1002 1.386 . S
C1003 C1007 1.393 . S
C1004 H993 0.950 . S
C1004 C1002 1.391 . S
C1004 C1005 1.400 . S
C1005 C999 1.491 . S
C1005 C1004 1.400 . S
C1005 C1006 1.398 . S
C1006 H994 0.950 . S
C1006 C1005 1.398 . S
C1006 C1007 1.391 . S
C1007 H995 0.950 . S
C1007 C1003 1.393 . S
C1007 C1006 1.391 . S
H1008 C1016 0.950 . S
H1009 C1021 0.950 . S
H1010 C1018 0.950 . S
H1011 C1020 0.950 . S
H1012 C1022 0.950 . S
H1013 C1024 0.950 . S
H1014 C1026 0.950 . S
H1015 C1027 0.950 . S
C1016 H1008 0.950 . S
C1016 C1017 1.386 . S
C1016 C1018 1.391 . S
C1017 C1016 1.386 . S
C1017 C1021 1.393 . S
C1018 H1010 0.950 . S
C1018 C1016 1.391 . S
C1018 C1019 1.400 . S
C1019 C1018 1.400 . S
C1019 C1020 1.398 . S
C1019 C1025 1.491 . S
C1020 H1011 0.950 . S
C1020 C1019 1.398 . S
C1020 C1021 1.391 . S
C1021 H1009 0.950 . S
C1021 C1017 1.393 . S
C1021 C1020 1.391 . S
C1022 H1012 0.950 . S
C1022 C1023 1.386 . S
C1022 C1024 1.391 . S
C1023 C1022 1.386 . S
C1023 C1027 1.393 . S
C1024 H1013 0.950 . S
C1024 C1022 1.391 . S
C1024 C1025 1.400 1_455 S
C1025 C1019 1.491 . S
C1025 C1024 1.400 1_655 S
C1025 C1026 1.398 . S
C1026 H1014 0.950 . S
C1026 C1025 1.398 . S
C1026 C1027 1.391 1_655 S
C1027 H1015 0.950 . S
C1027 C1023 1.393 . S
C1027 C1026 1.391 1_455 S
H1028 C1036 0.950 . S
H1029 C1041 0.950 . S
H1030 C1038 0.950 . S
H1031 C1040 0.950 . S
H1032 C1042 0.950 . S
H1033 C1044 0.950 . S
H1034 C1046 0.950 . S
H1035 C1047 0.950 . S
C1036 H1028 0.950 . S
C1036 C1037 1.386 . S
C1036 C1038 1.391 . S
C1037 C1036 1.386 . S
C1037 C1041 1.393 . S
C1038 H1030 0.950 . S
C1038 C1036 1.391 . S
C1038 C1039 1.400 . S
C1039 C1038 1.400 . S
C1039 C1040 1.398 . S
C1039 C1045 1.491 . S
C1040 H1031 0.950 . S
C1040 C1039 1.398 . S
C1040 C1041 1.391 . S
C1041 H1029 0.950 . S
C1041 C1037 1.393 . S
C1041 C1040 1.391 . S
C1042 H1032 0.950 . S
C1042 C1043 1.386 . S
C1042 C1044 1.391 . S
C1043 C1042 1.386 . S
C1043 C1047 1.393 . S
C1044 H1033 0.950 . S
C1044 C1042 1.391 . S
C1044 C1045 1.400 . S
C1045 C1039 1.491 . S
C1045 C1044 1.400 . S
C1045 C1046 1.398 . S
C1046 H1034 0.950 . S
C1046 C1045 1.398 . S
C1046 C1047 1.391 . S
C1047 H1035 0.950 . S
C1047 C1043 1.393 . S
C1047 C1046 1.391 . S
H1048 C1056 0.950 . S
H1049 C1061 0.950 . S
H1050 C1058 0.950 . S
H1051 C1060 0.950 . S
H1052 C1062 0.950 . S
H1053 C1064 0.950 . S
H1054 C1066 0.950 . S
H1055 C1067 0.950 . S
C1056 H1048 0.950 . S
C1056 C1057 1.386 . S
C1056 C1058 1.391 . S
C1057 C1056 1.386 . S
C1057 C1061 1.393 . S
C1058 H1050 0.950 . S
C1058 C1056 1.391 . S
C1058 C1059 1.400 . S
C1059 C1058 1.400 . S
C1059 C1060 1.398 . S
C1059 C1065 1.491 . S
C1060 H1051 0.950 . S
C1060 C1059 1.398 . S
C1060 C1061 1.391 . S
C1061 H1049 0.950 . S
C1061 C1057 1.393 . S
C1061 C1060 1.391 . S
C1062 H1052 0.950 . S
C1062 C1063 1.386 . S
C1062 C1064 1.391 . S
C1063 C1062 1.386 . S
C1063 C1067 1.393 . S
C1064 H1053 0.950 . S
C1064 C1062 1.391 . S
C1064 C1065 1.400 1_565 S
C1065 C1059 1.491 . S
C1065 C1064 1.400 1_545 S
C1065 C1066 1.398 1_545 S
C1066 H1054 0.950 . S
C1066 C1065 1.398 1_565 S
C1066 C1067 1.391 . S
C1067 H1055 0.950 . S
C1067 C1063 1.393 . S
C1067 C1066 1.391 . S
H1068 C1076 0.950 . S
H1069 C1081 0.950 . S
H1070 C1078 0.950 . S
H1071 C1080 0.950 . S
H1072 C1082 0.950 . S
H1073 C1084 0.950 . S
H1074 C1086 0.950 . S
H1075 C1087 0.950 . S
C1076 H1068 0.950 . S
C1076 C1077 1.386 . S
C1076 C1078 1.391 . S
C1077 C1076 1.386 . S
C1077 C1081 1.393 . S
C1078 H1070 0.950 . S
C1078 C1076 1.391 . S
C1078 C1079 1.400 . S
C1079 C1078 1.400 . S
C1079 C1080 1.398 . S
C1079 C1085 1.491 . S
C1080 H1071 0.950 . S
C1080 C1079 1.398 . S
C1080 C1081 1.391 . S
C1081 H1069 0.950 . S
C1081 C1077 1.393 . S
C1081 C1080 1.391 . S
C1082 H1072 0.950 . S
C1082 C1083 1.386 . S
C1082 C1084 1.391 . S
C1083 C1082 1.386 . S
C1083 C1087 1.393 . S
C1084 H1073 0.950 . S
C1084 C1082 1.391 . S
C1084 C1085 1.400 . S
C1085 C1079 1.491 . S
C1085 C1084 1.400 . S
C1085 C1086 1.398 . S
C1086 H1074 0.950 . S
C1086 C1085 1.398 . S
C1086 C1087 1.391 . S
C1087 H1075 0.950 . S
C1087 C1083 1.393 . S
C1087 C1086 1.391 . S
H1088 C1096 0.950 . S
H1089 C1101 0.950 . S
H1090 C1098 0.950 . S
H1091 C1100 0.950 . S
H1092 C1102 0.950 . S
H1093 C1104 0.950 . S
H1094 C1106 0.950 . S
H1095 C1107 0.950 . S
C1096 H1088 0.950 . S
C1096 C1097 1.386 . S
C1096 C1098 1.391 . S
C1097 C1096 1.386 . S
C1097 C1101 1.393 . S
C1098 H1090 0.950 . S
C1098 C1096 1.391 . S
C1098 C1099 1.400 . S
C1099 C1098 1.400 . S
C1099 C1100 1.398 . S
C1099 C1105 1.491 1_545 S
C1100 H1091 0.950 . S
C1100 C1099 1.398 . S
C1100 C1101 1.391 . S
C1101 H1089 0.950 . S
C1101 C1097 1.393 . S
C1101 C1100 1.391 . S
C1102 H1092 0.950 . S
C1102 C1103 1.386 . S
C1102 C1104 1.391 . S
C1103 C1102 1.386 . S
C1103 C1107 1.393 . S
C1104 H1093 0.950 . S
C1104 C1102 1.391 . S
C1104 C1105 1.400 . S
C1105 C1099 1.491 1_565 S
C1105 C1104 1.400 . S
C1105 C1106 1.398 . S
C1106 H1094 0.950 . S
C1106 C1105 1.398 . S
C1106 C1107 1.391 . S
C1107 H1095 0.950 . S
C1107 C1103 1.393 . S
C1107 C1106 1.391 . S
H1108 C1116 0.950 . S
H1109 C1121 0.950 . S
H1110 C1118 0.950 . S
H1111 C1120 0.950 . S
H1112 C1122 0.950 . S
H1113 C1124 0.950 . S
H1114 C1126 0.950 . S
H1115 C1127 0.950 . S
C1116 H1108 0.950 . S
C1116 C1117 1.386 . S
C1116 C1118 1.391 . S
C1117 C1116 1.386 . S
C1117 C1121 1.393 . S
C1118 H1110 0.950 . S
C1118 C1116 1.391 . S
C1118 C1119 1.400 . S
C1119 C1118 1.400 . S
C1119 C1120 1.398 . S
C1119 C1125 1.491 1_655 S
C1120 H1111 0.950 . S
C1120 C1119 1.398 . S
C1120 C1121 1.391 . S
C1121 H1109 0.950 . S
C1121 C1117 1.393 . S
C1121 C1120 1.391 . S
C1122 H1112 0.950 . S
C1122 C1123 1.386 . S
C1122 C1124 1.391 . S
C1123 C1122 1.386 . S
C1123 C1127 1.393 . S
C1124 H1113 0.950 . S
C1124 C1122 1.391 . S
C1124 C1125 1.400 . S
C1125 C1119 1.491 1_455 S
C1125 C1124 1.400 . S
C1125 C1126 1.398 . S
C1126 H1114 0.950 . S
C1126 C1125 1.398 . S
C1126 C1127 1.391 . S
C1127 H1115 0.950 . S
C1127 C1123 1.393 . S
C1127 C1126 1.391 . S
H1128 C1136 0.950 . S
H1129 C1141 0.950 . S
H1130 C1138 0.950 . S
H1131 C1140 0.950 . S
H1132 C1142 0.950 . S
H1133 C1144 0.950 . S
H1134 C1146 0.950 . S
H1135 C1147 0.950 . S
C1136 H1128 0.950 . S
C1136 C1137 1.386 . S
C1136 C1138 1.391 . S
C1137 C1136 1.386 . S
C1137 C1141 1.393 . S
C1138 H1130 0.950 . S
C1138 C1136 1.391 . S
C1138 C1139 1.400 . S
C1139 C1138 1.400 . S
C1139 C1140 1.398 . S
C1139 C1145 1.491 . S
C1140 H1131 0.950 . S
C1140 C1139 1.398 . S
C1140 C1141 1.391 . S
C1141 H1129 0.950 . S
C1141 C1137 1.393 . S
C1141 C1140 1.391 . S
C1142 H1132 0.950 . S
C1142 C1143 1.386 . S
C1142 C1144 1.391 . S
C1143 C1142 1.386 . S
C1143 C1147 1.393 . S
C1144 H1133 0.950 . S
C1144 C1142 1.391 . S
C1144 C1145 1.400 . S
C1145 C1139 1.491 . S
C1145 C1144 1.400 . S
C1145 C1146 1.398 . S
C1146 H1134 0.950 . S
C1146 C1145 1.398 . S
C1146 C1147 1.391 . S
C1147 H1135 0.950 . S
C1147 C1143 1.393 . S
C1147 C1146 1.391 . S
H1148 C1156 0.950 . S
H1149 C1161 0.950 . S
H1150 C1158 0.950 . S
H1151 C1160 0.950 . S
H1152 C1162 0.950 . S
H1153 C1164 0.950 . S
H1154 C1166 0.950 . S
H1155 C1167 0.950 . S
C1156 H1148 0.950 . S
C1156 C1157 1.386 . S
C1156 C1158 1.391 . S
C1157 C1156 1.386 . S
C1157 C1161 1.393 . S
C1158 H1150 0.950 . S
C1158 C1156 1.391 . S
C1158 C1159 1.400 . S
C1159 C1158 1.400 . S
C1159 C1160 1.398 . S
C1159 C1165 1.491 1_565 S
C1160 H1151 0.950 . S
C1160 C1159 1.398 . S
C1160 C1161 1.391 . S
C1161 H1149 0.950 . S
C1161 C1157 1.393 . S
C1161 C1160 1.391 . S
C1162 H1152 0.950 . S
C1162 C1163 1.386 . S
C1162 C1164 1.391 . S
C1163 C1162 1.386 . S
C1163 C1167 1.393 . S
C1164 H1153 0.950 . S
C1164 C1162 1.391 . S
C1164 C1165 1.400 . S
C1165 C1159 1.491 1_545 S
C1165 C1164 1.400 . S
C1165 C1166 1.398 . S
C1166 H1154 0.950 . S
C1166 C1165 1.398 . S
C1166 C1167 1.391 . S
C1167 H1155 0.950 . S
C1167 C1163 1.393 . S
C1167 C1166 1.391 . S
H1168 C1176 0.950 . S
H1169 C1181 0.950 . S
H1170 C1178 0.950 . S
H1171 C1180 0.950 . S
H1172 C1182 0.950 . S
H1173 C1184 0.950 . S
H1174 C1186 0.950 . S
H1175 C1187 0.950 . S
C1176 H1168 0.950 . S
C1176 C1177 1.386 . S
C1176 C1178 1.391 . S
C1177 C1176 1.386 . S
C1177 C1181 1.393 . S
C1178 H1170 0.950 . S
C1178 C1176 1.391 . S
C1178 C1179 1.400 . S
C1179 C1178 1.400 . S
C1179 C1180 1.398 . S
C1179 C1185 1.491 1_655 S
C1180 H1171 0.950 . S
C1180 C1179 1.398 . S
C1180 C1181 1.391 . S
C1181 H1169 0.950 . S
C1181 C1177 1.393 . S
C1181 C1180 1.391 . S
C1182 H1172 0.950 . S
C1182 C1183 1.386 . S
C1182 C1184 1.391 . S
C1183 C1182 1.386 . S
C1183 C1187 1.393 . S
C1184 H1173 0.950 . S
C1184 C1182 1.391 . S
C1184 C1185 1.400 . S
C1185 C1179 1.491 1_455 S
C1185 C1184 1.400 . S
C1185 C1186 1.398 . S
C1186 H1174 0.950 . S
C1186 C1185 1.398 . S
C1186 C1187 1.391 . S
C1187 H1175 0.950 . S
C1187 C1183 1.393 . S
C1187 C1186 1.391 . S
H1188 C1196 0.950 . S
H1189 C1201 0.950 1_655 S
H1190 C1198 0.950 . S
H1191 C1200 0.950 . S
H1192 C1202 0.950 . S
H1193 C1204 0.950 . S
H1194 C1206 0.950 . S
H1195 C1207 0.950 . S
C1196 H1188 0.950 . S
C1196 C1197 1.386 . S
C1196 C1198 1.391 . S
C1197 C1196 1.386 . S
C1197 C1201 1.393 . S
C1198 H1190 0.950 . S
C1198 C1196 1.391 . S
C1198 C1199 1.400 . S
C1199 C1198 1.400 . S
C1199 C1200 1.398 . S
C1199 C1205 1.491 . S
C1200 H1191 0.950 . S
C1200 C1199 1.398 . S
C1200 C1201 1.391 . S
C1201 H1189 0.950 1_455 S
C1201 C1197 1.393 . S
C1201 C1200 1.391 . S
C1202 H1192 0.950 . S
C1202 C1203 1.386 . S
C1202 C1204 1.391 . S
C1203 C1202 1.386 . S
C1203 C1207 1.393 . S
C1204 H1193 0.950 . S
C1204 C1202 1.391 . S
C1204 C1205 1.400 . S
C1205 C1199 1.491 . S
C1205 C1204 1.400 . S
C1205 C1206 1.398 . S
C1206 H1194 0.950 . S
C1206 C1205 1.398 . S
C1206 C1207 1.391 . S
C1207 H1195 0.950 . S
C1207 C1203 1.393 . S
C1207 C1206 1.391 . S
H1208 C1216 0.950 . S
H1209 C1221 0.950 . S
H1210 C1218 0.950 . S
H1211 C1220 0.950 . S
H1212 C1222 0.950 . S
H1213 C1224 0.950 . S
H1214 C1226 0.950 . S
H1215 C1227 0.950 . S
C1216 H1208 0.950 . S
C1216 C1217 1.386 . S
C1216 C1218 1.391 1_545 S
C1217 C1216 1.386 . S
C1217 C1221 1.393 . S
C1218 H1210 0.950 . S
C1218 C1216 1.391 1_565 S
C1218 C1219 1.400 . S
C1219 C1218 1.400 . S
C1219 C1220 1.398 1_565 S
C1219 C1225 1.491 . S
C1220 H1211 0.950 . S
C1220 C1219 1.398 1_545 S
C1220 C1221 1.391 . S
C1221 H1209 0.950 . S
C1221 C1217 1.393 . S
C1221 C1220 1.391 . S
C1222 H1212 0.950 . S
C1222 C1223 1.386 . S
C1222 C1224 1.391 . S
C1223 C1222 1.386 . S
C1223 C1227 1.393 . S
C1224 H1213 0.950 . S
C1224 C1222 1.391 . S
C1224 C1225 1.400 . S
C1225 C1219 1.491 . S
C1225 C1224 1.400 . S
C1225 C1226 1.398 . S
C1226 H1214 0.950 . S
C1226 C1225 1.398 . S
C1226 C1227 1.391 . S
C1227 H1215 0.950 . S
C1227 C1223 1.393 . S
C1227 C1226 1.391 . S
H1228 C1236 0.950 . S
H1229 C1241 0.950 . S
H1230 C1238 0.950 . S
H1231 C1240 0.950 . S
H1232 C1242 0.950 . S
H1233 C1244 0.950 . S
H1234 C1246 0.950 . S
H1235 C1247 0.950 . S
C1236 H1228 0.950 . S
C1236 C1237 1.386 . S
C1236 C1238 1.391 1_655 S
C1237 C1236 1.386 . S
C1237 C1241 1.393 . S
C1238 H1230 0.950 . S
C1238 C1236 1.391 1_455 S
C1238 C1239 1.400 . S
C1239 C1238 1.400 . S
C1239 C1240 1.398 . S
C1239 C1245 1.491 . S
C1240 H1231 0.950 . S
C1240 C1239 1.398 . S
C1240 C1241 1.391 1_455 S
C1241 H1229 0.950 . S
C1241 C1237 1.393 . S
C1241 C1240 1.391 1_655 S
C1242 H1232 0.950 . S
C1242 C1243 1.386 . S
C1242 C1244 1.391 . S
C1243 C1242 1.386 . S
C1243 C1247 1.393 . S
C1244 H1233 0.950 . S
C1244 C1242 1.391 . S
C1244 C1245 1.400 . S
C1245 C1239 1.491 . S
C1245 C1244 1.400 . S
C1245 C1246 1.398 . S
C1246 H1234 0.950 . S
C1246 C1245 1.398 . S
C1246 C1247 1.391 . S
C1247 H1235 0.950 . S
C1247 C1243 1.393 . S
C1247 C1246 1.391 . S
H1248 C1256 0.950 . S
H1249 C1261 0.950 . S
H1250 C1258 0.950 . S
H1251 C1260 0.950 . S
H1252 C1262 0.950 . S
H1253 C1264 0.950 . S
H1254 C1266 0.950 . S
H1255 C1267 0.950 . S
C1256 H1248 0.950 . S
C1256 C1257 1.386 . S
C1256 C1258 1.391 . S
C1257 C1256 1.386 . S
C1257 C1261 1.393 . S
C1258 H1250 0.950 . S
C1258 C1256 1.391 . S
C1258 C1259 1.400 . S
C1259 C1258 1.400 . S
C1259 C1260 1.398 . S
C1259 C1265 1.491 . S
C1260 H1251 0.950 . S
C1260 C1259 1.398 . S
C1260 C1261 1.391 . S
C1261 H1249 0.950 . S
C1261 C1257 1.393 . S
C1261 C1260 1.391 . S
C1262 H1252 0.950 . S
C1262 C1263 1.386 . S
C1262 C1264 1.391 . S
C1263 C1262 1.386 . S
C1263 C1267 1.393 . S
C1264 H1253 0.950 . S
C1264 C1262 1.391 . S
C1264 C1265 1.400 . S
C1265 C1259 1.491 . S
C1265 C1264 1.400 . S
C1265 C1266 1.398 . S
C1266 H1254 0.950 . S
C1266 C1265 1.398 . S
C1266 C1267 1.391 . S
C1267 H1255 0.950 . S
C1267 C1263 1.393 . S
C1267 C1266 1.391 . S
H1268 C1276 0.950 1_455 S
H1269 C1281 0.950 . S
H1270 C1278 0.950 . S
H1271 C1280 0.950 . S
H1272 C1282 0.950 . S
H1273 C1284 0.950 . S
H1274 C1286 0.960 1_545 S
H1275 C1287 0.950 . S
C1276 H1268 0.950 1_655 S
C1276 C1277 1.386 . S
C1276 C1278 1.391 . S
C1277 C1276 1.386 . S
C1277 C1281 1.393 . S
C1278 H1270 0.950 . S
C1278 C1276 1.391 . S
C1278 C1279 1.400 . S
C1279 C1278 1.400 . S
C1279 C1280 1.398 . S
C1279 C1285 1.491 . S
C1280 H1271 0.950 . S
C1280 C1279 1.398 . S
C1280 C1281 1.391 . S
C1281 H1269 0.950 . S
C1281 C1277 1.393 . S
C1281 C1280 1.391 . S
C1282 H1272 0.950 . S
C1282 C1283 1.386 . S
C1282 C1284 1.391 1_565 S
C1283 C1282 1.386 . S
C1283 C1287 1.393 . S
C1284 H1273 0.950 . S
C1284 C1282 1.391 1_545 S
C1284 C1285 1.400 . S
C1285 C1279 1.491 . S
C1285 C1284 1.400 . S
C1285 C1286 1.377 1_545 S
C1286 H1274 0.960 1_565 S
C1286 C1285 1.377 1_565 S
C1286 C1287 1.403 . S
C1287 H1275 0.950 . S
C1287 C1283 1.393 . S
C1287 C1286 1.403 . S
H1288 C1296 0.950 . S
H1289 C1301 0.950 . S
H1290 C1298 0.950 . S
H1291 C1300 0.950 . S
H1292 C1302 0.950 . S
H1293 C1304 0.950 . S
H1294 C1306 0.950 . S
H1295 C1307 0.950 . S
C1296 H1288 0.950 . S
C1296 C1297 1.386 . S
C1296 C1298 1.391 1_455 S
C1297 C1296 1.386 . S
C1297 C1301 1.393 . S
C1298 H1290 0.950 . S
C1298 C1296 1.391 1_655 S
C1298 C1299 1.400 . S
C1299 C1298 1.400 . S
C1299 C1300 1.398 . S
C1299 C1305 1.491 . S
C1300 H1291 0.950 . S
C1300 C1299 1.398 . S
C1300 C1301 1.391 1_655 S
C1301 H1289 0.950 . S
C1301 C1297 1.393 . S
C1301 C1300 1.391 1_455 S
C1302 H1292 0.950 . S
C1302 C1303 1.386 . S
C1302 C1304 1.391 . S
C1303 C1302 1.386 . S
C1303 C1307 1.393 . S
C1304 H1293 0.950 . S
C1304 C1302 1.391 . S
C1304 C1305 1.400 . S
C1305 C1299 1.491 . S
C1305 C1304 1.400 . S
C1305 C1306 1.398 . S
C1306 H1294 0.950 . S
C1306 C1305 1.398 . S
C1306 C1307 1.391 . S
C1307 H1295 0.950 . S
C1307 C1303 1.393 . S
C1307 C1306 1.391 . S
H1308 C1316 0.950 . S
H1309 C1321 0.950 . S
H1310 C1318 0.950 . S
H1311 C1320 0.950 . S
H1312 C1322 0.950 . S
H1313 C1324 0.950 . S
H1314 C1326 0.950 . S
H1315 C1327 0.950 . S
C1316 H1308 0.950 . S
C1316 C1317 1.386 . S
C1316 C1318 1.391 . S
C1317 C1316 1.386 . S
C1317 C1321 1.393 . S
C1318 H1310 0.950 . S
C1318 C1316 1.391 . S
C1318 C1319 1.400 . S
C1319 C1318 1.400 . S
C1319 C1320 1.398 . S
C1319 C1325 1.491 . S
C1320 H1311 0.950 . S
C1320 C1319 1.398 . S
C1320 C1321 1.391 . S
C1321 H1309 0.950 . S
C1321 C1317 1.393 . S
C1321 C1320 1.391 . S
C1322 H1312 0.950 . S
C1322 C1323 1.386 . S
C1322 C1324 1.391 . S
C1323 C1322 1.386 . S
C1323 C1327 1.393 . S
C1324 H1313 0.950 . S
C1324 C1322 1.391 . S
C1324 C1325 1.400 . S
C1325 C1319 1.491 . S
C1325 C1324 1.400 . S
C1325 C1326 1.398 . S
C1326 H1314 0.950 . S
C1326 C1325 1.398 . S
C1326 C1327 1.391 . S
C1327 H1315 0.950 . S
C1327 C1323 1.393 . S
C1327 C1326 1.391 . S
H1328 C1336 0.950 . S
H1329 C1341 0.950 . S
H1330 C1338 0.954 . S
H1331 C1340 0.950 . S
H1332 C1342 0.950 . S
H1333 C1344 0.950 . S
H1334 C1346 0.950 . S
H1335 C1347 0.950 . S
C1336 H1328 0.950 . S
C1336 C1337 1.386 . S
C1336 C1338 1.391 . S
C1337 C1336 1.386 . S
C1337 C1341 1.393 . S
C1338 H1330 0.954 . S
C1338 C1336 1.391 . S
C1338 C1339 1.400 1_565 S
C1339 C1338 1.400 1_545 S
C1339 C1340 1.398 . S
C1339 C1345 1.491 . S
C1340 H1331 0.950 . S
C1340 C1339 1.398 . S
C1340 C1341 1.391 1_545 S
C1341 H1329 0.950 . S
C1341 C1337 1.393 . S
C1341 C1340 1.391 1_565 S
C1342 H1332 0.950 . S
C1342 C1343 1.386 . S
C1342 C1344 1.391 . S
C1343 C1342 1.386 . S
C1343 C1347 1.393 . S
C1344 H1333 0.950 . S
C1344 C1342 1.391 . S
C1344 C1345 1.400 . S
C1345 C1339 1.491 . S
C1345 C1344 1.400 . S
C1345 C1346 1.398 . S
C1346 H1334 0.950 . S
C1346 C1345 1.398 . S
C1346 C1347 1.391 . S
C1347 H1335 0.950 . S
C1347 C1343 1.393 . S
C1347 C1346 1.391 . S
H1348 C1356 0.950 . S
H1349 C1361 0.950 . S
H1350 C1358 0.950 . S
H1351 C1360 0.950 . S
H1352 C1362 0.950 1_565 S
H1353 C1364 0.950 . S
H1354 C1366 0.950 . S
H1355 C1367 0.950 . S
C1356 H1348 0.950 . S
C1356 C1357 1.386 . S
C1356 C1358 1.391 1_455 S
C1357 C1356 1.386 . S
C1357 C1361 1.393 . S
C1358 H1350 0.950 . S
C1358 C1356 1.391 1_655 S
C1358 C1359 1.400 . S
C1359 C1358 1.400 . S
C1359 C1360 1.398 1_655 S
C1359 C1365 1.491 . S
C1360 H1351 0.950 . S
C1360 C1359 1.398 1_455 S
C1360 C1361 1.391 . S
C1361 H1349 0.950 . S
C1361 C1357 1.393 . S
C1361 C1360 1.391 . S
C1362 H1352 0.950 1_545 S
C1362 C1363 1.386 . S
C1362 C1364 1.391 . S
C1363 C1362 1.386 . S
C1363 C1367 1.393 . S
C1364 H1353 0.950 . S
C1364 C1362 1.391 . S
C1364 C1365 1.400 . S
C1365 C1359 1.491 . S
C1365 C1364 1.400 . S
C1365 C1366 1.398 . S
C1366 H1354 0.950 . S
C1366 C1365 1.398 . S
C1366 C1367 1.391 . S
C1367 H1355 0.950 . S
C1367 C1363 1.393 . S
C1367 C1366 1.391 . S
H1368 C1376 0.950 1_545 S
H1369 C1381 0.950 . S
H1370 C1378 0.950 . S
H1371 C1380 0.950 . S
H1372 C1382 0.950 . S
H1373 C1384 0.950 . S
H1374 C1386 0.950 . S
H1375 C1387 0.950 . S
C1376 H1368 0.950 1_565 S
C1376 C1377 1.386 . S
C1376 C1378 1.391 . S
C1377 C1376 1.386 . S
C1377 C1381 1.393 . S
C1378 H1370 0.950 . S
C1378 C1376 1.391 . S
C1378 C1379 1.400 . S
C1379 C1378 1.400 . S
C1379 C1380 1.398 . S
C1379 C1385 1.491 . S
C1380 H1371 0.950 . S
C1380 C1379 1.398 . S
C1380 C1381 1.391 . S
C1381 H1369 0.950 . S
C1381 C1377 1.393 . S
C1381 C1380 1.391 . S
C1382 H1372 0.950 . S
C1382 C1383 1.386 . S
C1382 C1384 1.391 . S
C1383 C1382 1.386 . S
C1383 C1387 1.393 . S
C1384 H1373 0.950 . S
C1384 C1382 1.391 . S
C1384 C1385 1.400 . S
C1385 C1379 1.491 . S
C1385 C1384 1.400 . S
C1385 C1386 1.398 . S
C1386 H1374 0.950 . S
C1386 C1385 1.398 . S
C1386 C1387 1.391 . S
C1387 H1375 0.950 . S
C1387 C1383 1.393 . S
C1387 C1386 1.391 . S
H1388 C1396 0.950 . S
H1389 C1401 0.950 . S
H1390 C1398 0.950 . S
H1391 C1400 0.950 . S
H1392 C1402 0.950 . S
H1393 C1404 0.950 . S
H1394 C1406 0.950 . S
H1395 C1407 0.950 1_655 S
C1396 H1388 0.950 . S
C1396 C1397 1.386 . S
C1396 C1398 1.391 1_545 S
C1397 C1396 1.386 . S
C1397 C1401 1.393 . S
C1398 H1390 0.950 . S
C1398 C1396 1.391 1_565 S
C1398 C1399 1.400 . S
C1399 C1398 1.400 . S
C1399 C1400 1.398 . S
C1399 C1405 1.491 . S
C1400 H1391 0.950 . S
C1400 C1399 1.398 . S
C1400 C1401 1.391 1_565 S
C1401 H1389 0.950 . S
C1401 C1397 1.393 . S
C1401 C1400 1.391 1_545 S
C1402 H1392 0.950 . S
C1402 C1403 1.386 . S
C1402 C1404 1.391 . S
C1403 C1402 1.386 . S
C1403 C1407 1.393 . S
C1404 H1393 0.950 . S
C1404 C1402 1.391 . S
C1404 C1405 1.400 . S
C1405 C1399 1.491 . S
C1405 C1404 1.400 . S
C1405 C1406 1.398 . S
C1406 H1394 0.950 . S
C1406 C1405 1.398 . S
C1406 C1407 1.391 . S
C1407 H1395 0.950 1_455 S
C1407 C1403 1.393 . S
C1407 C1406 1.391 . S
H1408 C1416 0.950 . S
H1409 C1421 0.950 . S
H1410 C1418 0.950 . S
H1411 C1420 0.950 . S
H1412 C1422 0.950 . S
H1413 C1424 0.950 . S
H1414 C1426 0.950 . S
H1415 C1427 0.950 . S
C1416 H1408 0.950 . S
C1416 C1417 1.386 . S
C1416 C1418 1.391 . S
C1417 C1416 1.386 . S
C1417 C1421 1.393 . S
C1418 H1410 0.950 . S
C1418 C1416 1.391 . S
C1418 C1419 1.400 . S
C1419 C1418 1.400 . S
C1419 C1420 1.398 . S
C1419 C1425 1.491 . S
C1420 H1411 0.950 . S
C1420 C1419 1.398 . S
C1420 C1421 1.391 . S
C1421 H1409 0.950 . S
C1421 C1417 1.393 . S
C1421 C1420 1.391 . S
C1422 H1412 0.950 . S
C1422 C1423 1.386 . S
C1422 C1424 1.391 . S
C1423 C1422 1.386 . S
C1423 C1427 1.393 . S
C1424 H1413 0.950 . S
C1424 C1422 1.391 . S
C1424 C1425 1.400 1_655 S
C1425 C1419 1.491 . S
C1425 C1424 1.400 1_455 S
C1425 C1426 1.398 . S
C1426 H1414 0.950 . S
C1426 C1425 1.398 . S
C1426 C1427 1.391 1_455 S
C1427 H1415 0.950 . S
C1427 C1423 1.393 . S
C1427 C1426 1.391 1_655 S
H1428 C1436 0.950 . S
H1429 C1441 0.950 . S
H1430 C1438 0.950 . S
H1431 C1440 0.950 . S
H1432 C1442 0.950 . S
H1433 C1444 0.950 . S
H1434 C1446 0.950 . S
H1435 C1447 0.950 . S
C1436 H1428 0.950 . S
C1436 C1437 1.386 . S
C1436 C1438 1.391 . S
C1437 C1436 1.386 . S
C1437 C1441 1.393 . S
C1438 H1430 0.950 . S
C1438 C1436 1.391 . S
C1438 C1439 1.400 . S
C1439 C1438 1.400 . S
C1439 C1440 1.398 . S
C1439 C1445 1.491 . S
C1440 H1431 0.950 . S
C1440 C1439 1.398 . S
C1440 C1441 1.391 . S
C1441 H1429 0.950 . S
C1441 C1437 1.393 . S
C1441 C1440 1.391 . S
C1442 H1432 0.950 . S
C1442 C1443 1.386 . S
C1442 C1444 1.391 . S
C1443 C1442 1.386 . S
C1443 C1447 1.393 . S
C1444 H1433 0.950 . S
C1444 C1442 1.391 . S
C1444 C1445 1.400 . S
C1445 C1439 1.491 . S
C1445 C1444 1.400 . S
C1445 C1446 1.398 . S
C1446 H1434 0.950 . S
C1446 C1445 1.398 . S
C1446 C1447 1.391 . S
C1447 H1435 0.950 . S
C1447 C1443 1.393 . S
C1447 C1446 1.391 . S
H1448 C1456 0.950 . S
H1449 C1461 0.950 . S
H1450 C1458 0.950 . S
H1451 C1460 0.950 . S
H1452 C1462 0.950 . S
H1453 C1464 0.950 . S
H1454 C1466 0.950 . S
H1455 C1467 0.950 . S
C1456 H1448 0.950 . S
C1456 C1457 1.386 . S
C1456 C1458 1.391 . S
C1457 C1456 1.386 . S
C1457 C1461 1.393 . S
C1458 H1450 0.950 . S
C1458 C1456 1.391 . S
C1458 C1459 1.400 . S
C1459 C1458 1.400 . S
C1459 C1460 1.398 . S
C1459 C1465 1.491 . S
C1460 H1451 0.950 . S
C1460 C1459 1.398 . S
C1460 C1461 1.391 . S
C1461 H1449 0.950 . S
C1461 C1457 1.393 . S
C1461 C1460 1.391 . S
C1462 H1452 0.950 . S
C1462 C1463 1.386 . S
C1462 C1464 1.391 . S
C1463 C1462 1.386 . S
C1463 C1467 1.393 . S
C1464 H1453 0.950 . S
C1464 C1462 1.391 . S
C1464 C1465 1.400 . S
C1465 C1459 1.491 . S
C1465 C1464 1.400 . S
C1465 C1466 1.398 . S
C1466 H1454 0.950 . S
C1466 C1465 1.398 . S
C1466 C1467 1.391 . S
C1467 H1455 0.950 . S
C1467 C1463 1.393 . S
C1467 C1466 1.391 . S
H1468 C1476 0.950 . S
H1469 C1481 0.950 . S
H1470 C1478 0.950 . S
H1471 C1480 0.950 . S
H1472 C1482 0.950 . S
H1473 C1484 0.950 . S
H1474 C1486 0.950 . S
H1475 C1487 0.950 . S
C1476 H1468 0.950 . S
C1476 C1477 1.386 . S
C1476 C1478 1.391 . S
C1477 C1476 1.386 . S
C1477 C1481 1.393 . S
C1478 H1470 0.950 . S
C1478 C1476 1.391 . S
C1478 C1479 1.400 . S
C1479 C1478 1.400 . S
C1479 C1480 1.398 . S
C1479 C1485 1.491 . S
C1480 H1471 0.950 . S
C1480 C1479 1.398 . S
C1480 C1481 1.391 . S
C1481 H1469 0.950 . S
C1481 C1477 1.393 . S
C1481 C1480 1.391 . S
C1482 H1472 0.950 . S
C1482 C1483 1.386 . S
C1482 C1484 1.391 . S
C1483 C1482 1.386 . S
C1483 C1487 1.393 . S
C1484 H1473 0.950 . S
C1484 C1482 1.391 . S
C1484 C1485 1.400 . S
C1485 C1479 1.491 . S
C1485 C1484 1.400 . S
C1485 C1486 1.398 . S
C1486 H1474 0.950 . S
C1486 C1485 1.398 . S
C1486 C1487 1.391 . S
C1487 H1475 0.950 . S
C1487 C1483 1.393 . S
C1487 C1486 1.391 . S
H1488 C1496 0.950 . S
H1489 C1501 0.950 . S
H1490 C1498 0.950 . S
H1491 C1500 0.950 . S
H1492 C1502 0.950 . S
H1493 C1504 0.950 . S
H1494 C1506 0.950 . S
H1495 C1507 0.950 . S
C1496 H1488 0.950 . S
C1496 C1497 1.386 . S
C1496 C1498 1.391 . S
C1497 C1496 1.386 . S
C1497 C1501 1.393 . S
C1498 H1490 0.950 . S
C1498 C1496 1.391 . S
C1498 C1499 1.400 . S
C1499 C1498 1.400 . S
C1499 C1500 1.398 . S
C1499 C1505 1.491 . S
C1500 H1491 0.950 . S
C1500 C1499 1.398 . S
C1500 C1501 1.391 . S
C1501 H1489 0.950 . S
C1501 C1497 1.393 . S
C1501 C1500 1.391 . S
C1502 H1492 0.950 . S
C1502 C1503 1.386 . S
C1502 C1504 1.391 . S
C1503 C1502 1.386 . S
C1503 C1507 1.393 . S
C1504 H1493 0.950 . S
C1504 C1502 1.391 . S
C1504 C1505 1.400 . S
C1505 C1499 1.491 . S
C1505 C1504 1.400 . S
C1505 C1506 1.398 . S
C1506 H1494 0.950 . S
C1506 C1505 1.398 . S
C1506 C1507 1.391 . S
C1507 H1495 0.950 . S
C1507 C1503 1.393 . S
C1507 C1506 1.391 . S
H1508 C1516 0.950 . S
H1509 C1521 0.950 . S
H1510 C1518 0.950 . S
H1511 C1520 0.950 . S
H1512 C1522 0.950 . S
H1513 C1524 0.950 . S
H1514 C1526 0.950 . S
H1515 C1527 0.950 . S
C1516 H1508 0.950 . S
C1516 C1517 1.386 . S
C1516 C1518 1.391 . S
C1517 C1516 1.386 . S
C1517 C1521 1.393 . S
C1518 H1510 0.950 . S
C1518 C1516 1.391 . S
C1518 C1519 1.400 . S
C1519 C1518 1.400 . S
C1519 C1520 1.398 . S
C1519 C1525 1.491 . S
C1520 H1511 0.950 . S
C1520 C1519 1.398 . S
C1520 C1521 1.391 . S
C1521 H1509 0.950 . S
C1521 C1517 1.393 . S
C1521 C1520 1.391 . S
C1522 H1512 0.950 . S
C1522 C1523 1.386 . S
C1522 C1524 1.391 . S
C1523 C1522 1.386 . S
C1523 C1527 1.393 . S
C1524 H1513 0.950 . S
C1524 C1522 1.391 . S
C1524 C1525 1.400 . S
C1525 C1519 1.491 . S
C1525 C1524 1.400 . S
C1525 C1526 1.398 . S
C1526 H1514 0.950 . S
C1526 C1525 1.398 . S
C1526 C1527 1.391 . S
C1527 H1515 0.950 . S
C1527 C1523 1.393 . S
C1527 C1526 1.391 . S
H1528 C1536 0.950 . S
H1529 C1541 0.950 . S
H1530 C1538 0.950 . S
H1531 C1540 0.950 . S
H1532 C1542 0.950 . S
H1533 C1544 0.950 . S
H1534 C1546 0.950 . S
H1535 C1547 0.950 . S
C1536 H1528 0.950 . S
C1536 C1537 1.386 . S
C1536 C1538 1.391 . S
C1537 C1536 1.386 . S
C1537 C1541 1.393 . S
C1538 H1530 0.950 . S
C1538 C1536 1.391 . S
C1538 C1539 1.400 . S
C1539 C1538 1.400 . S
C1539 C1540 1.398 . S
C1539 C1545 1.491 . S
C1540 H1531 0.950 . S
C1540 C1539 1.398 . S
C1540 C1541 1.391 . S
C1541 H1529 0.950 . S
C1541 C1537 1.393 . S
C1541 C1540 1.391 . S
C1542 H1532 0.950 . S
C1542 C1543 1.386 . S
C1542 C1544 1.391 . S
C1543 C1542 1.386 . S
C1543 C1547 1.393 . S
C1544 H1533 0.950 . S
C1544 C1542 1.391 . S
C1544 C1545 1.400 . S
C1545 C1539 1.491 . S
C1545 C1544 1.400 . S
C1545 C1546 1.398 . S
C1546 H1534 0.950 . S
C1546 C1545 1.398 . S
C1546 C1547 1.391 . S
C1547 H1535 0.950 . S
C1547 C1543 1.393 . S
C1547 C1546 1.391 . S
H1548 C1556 0.950 . S
H1549 C1561 0.950 . S
H1550 C1558 0.950 . S
H1551 C1560 0.950 . S
H1552 C1562 0.950 . S
H1553 C1564 0.950 . S
H1554 C1566 0.950 . S
H1555 C1567 0.950 . S
C1556 H1548 0.950 . S
C1556 C1557 1.386 . S
C1556 C1558 1.391 . S
C1557 C1556 1.386 . S
C1557 C1561 1.393 . S
C1558 H1550 0.950 . S
C1558 C1556 1.391 . S
C1558 C1559 1.400 . S
C1559 C1558 1.400 . S
C1559 C1560 1.398 . S
C1559 C1565 1.491 . S
C1560 H1551 0.950 . S
C1560 C1559 1.398 . S
C1560 C1561 1.391 . S
C1561 H1549 0.950 . S
C1561 C1557 1.393 . S
C1561 C1560 1.391 . S
C1562 H1552 0.950 . S
C1562 C1563 1.386 . S
C1562 C1564 1.391 . S
C1563 C1562 1.386 . S
C1563 C1567 1.393 . S
C1564 H1553 0.950 . S
C1564 C1562 1.391 . S
C1564 C1565 1.400 . S
C1565 C1559 1.491 . S
C1565 C1564 1.400 . S
C1565 C1566 1.398 . S
C1566 H1554 0.950 . S
C1566 C1565 1.398 . S
C1566 C1567 1.391 . S
C1567 H1555 0.950 . S
C1567 C1563 1.393 . S
C1567 C1566 1.391 . S
H1568 C1576 0.950 . S
H1569 C1581 0.950 . S
H1570 C1578 0.950 . S
H1571 C1580 0.950 . S
H1572 C1582 0.950 . S
H1573 C1584 0.950 . S
H1574 C1586 0.950 . S
H1575 C1587 0.950 . S
C1576 H1568 0.950 . S
C1576 C1577 1.386 . S
C1576 C1578 1.391 . S
C1577 C1576 1.386 . S
C1577 C1581 1.393 . S
C1578 H1570 0.950 . S
C1578 C1576 1.391 . S
C1578 C1579 1.400 . S
C1579 C1578 1.400 . S
C1579 C1580 1.398 . S
C1579 C1585 1.491 . S
C1580 H1571 0.950 . S
C1580 C1579 1.398 . S
C1580 C1581 1.391 . S
C1581 H1569 0.950 . S
C1581 C1577 1.393 . S
C1581 C1580 1.391 . S
C1582 H1572 0.950 . S
C1582 C1583 1.386 . S
C1582 C1584 1.391 . S
C1583 C1582 1.386 . S
C1583 C1587 1.393 . S
C1584 H1573 0.950 . S
C1584 C1582 1.391 . S
C1584 C1585 1.400 . S
C1585 C1579 1.491 . S
C1585 C1584 1.400 . S
C1585 C1586 1.398 . S
C1586 H1574 0.950 . S
C1586 C1585 1.398 . S
C1586 C1587 1.391 . S
C1587 H1575 0.950 . S
C1587 C1583 1.393 . S
C1587 C1586 1.391 . S
H1588 C1596 0.950 . S
H1589 C1601 0.950 . S
H1590 C1598 0.950 . S
H1591 C1600 0.950 . S
H1592 C1602 0.950 . S
H1593 C1604 0.950 . S
H1594 C1606 0.950 . S
H1595 C1607 0.950 . S
C1596 H1588 0.950 . S
C1596 C1597 1.386 . S
C1596 C1598 1.391 . S
C1597 C1596 1.386 . S
C1597 C1601 1.393 . S
C1598 H1590 0.950 . S
C1598 C1596 1.391 . S
C1598 C1599 1.400 . S
C1599 C1598 1.400 . S
C1599 C1600 1.398 . S
C1599 C1605 1.491 . S
C1600 H1591 0.950 . S
C1600 C1599 1.398 . S
C1600 C1601 1.391 . S
C1601 H1589 0.950 . S
C1601 C1597 1.393 . S
C1601 C1600 1.391 . S
C1602 H1592 0.950 . S
C1602 C1603 1.386 . S
C1602 C1604 1.391 . S
C1603 C1602 1.386 . S
C1603 C1607 1.393 . S
C1604 H1593 0.950 . S
C1604 C1602 1.391 . S
C1604 C1605 1.400 . S
C1605 C1599 1.491 . S
C1605 C1604 1.400 . S
C1605 C1606 1.398 . S
C1606 H1594 0.950 . S
C1606 C1605 1.398 . S
C1606 C1607 1.391 . S
C1607 H1595 0.950 . S
C1607 C1603 1.393 . S
C1607 C1606 1.391 . S
H1608 C1616 0.950 . S
H1609 C1621 0.950 . S
H1610 C1618 0.950 . S
H1611 C1620 0.950 . S
H1612 C1622 0.950 . S
H1613 C1624 0.950 . S
H1614 C1626 0.950 . S
H1615 C1627 0.950 . S
C1616 H1608 0.950 . S
C1616 C1617 1.386 . S
C1616 C1618 1.391 . S
C1617 C1616 1.386 . S
C1617 C1621 1.393 . S
C1618 H1610 0.950 . S
C1618 C1616 1.391 . S
C1618 C1619 1.400 . S
C1619 C1618 1.400 . S
C1619 C1620 1.398 . S
C1619 C1625 1.491 . S
C1620 H1611 0.950 . S
C1620 C1619 1.398 . S
C1620 C1621 1.391 . S
C1621 H1609 0.950 . S
C1621 C1617 1.393 . S
C1621 C1620 1.391 . S
C1622 H1612 0.950 . S
C1622 C1623 1.386 . S
C1622 C1624 1.391 . S
C1623 C1622 1.386 . S
C1623 C1627 1.393 . S
C1624 H1613 0.950 . S
C1624 C1622 1.391 . S
C1624 C1625 1.400 . S
C1625 C1619 1.491 . S
C1625 C1624 1.400 . S
C1625 C1626 1.398 . S
C1626 H1614 0.950 . S
C1626 C1625 1.398 . S
C1626 C1627 1.391 . S
C1627 H1615 0.950 . S
C1627 C1623 1.393 . S
C1627 C1626 1.391 . S
H1628 C1636 0.950 . S
H1629 C1641 0.950 . S
H1630 C1638 0.950 . S
H1631 C1640 0.950 . S
H1632 C1642 0.950 . S
H1633 C1644 0.950 . S
H1634 C1646 0.950 . S
H1635 C1647 0.950 . S
C1636 H1628 0.950 . S
C1636 C1637 1.386 . S
C1636 C1638 1.391 . S
C1637 C1636 1.386 . S
C1637 C1641 1.393 . S
C1638 H1630 0.950 . S
C1638 C1636 1.391 . S
C1638 C1639 1.400 . S
C1639 C1638 1.400 . S
C1639 C1640 1.398 . S
C1639 C1645 1.491 . S
C1640 H1631 0.950 . S
C1640 C1639 1.398 . S
C1640 C1641 1.391 . S
C1641 H1629 0.950 . S
C1641 C1637 1.393 . S
C1641 C1640 1.391 . S
C1642 H1632 0.950 . S
C1642 C1643 1.386 . S
C1642 C1644 1.391 . S
C1643 C1642 1.386 . S
C1643 C1647 1.393 . S
C1644 H1633 0.950 . S
C1644 C1642 1.391 . S
C1644 C1645 1.400 . S
C1645 C1639 1.491 . S
C1645 C1644 1.400 . S
C1645 C1646 1.398 . S
C1646 H1634 0.950 . S
C1646 C1645 1.398 . S
C1646 C1647 1.391 . S
C1647 H1635 0.950 . S
C1647 C1643 1.393 . S
C1647 C1646 1.391 . S
H1648 C1656 0.950 . S
H1649 C1661 0.950 . S
H1650 C1658 0.950 . S
H1651 C1660 0.950 . S
H1652 C1662 0.950 . S
H1653 C1664 0.950 . S
H1654 C1666 0.950 . S
H1655 C1667 0.950 . S
C1656 H1648 0.950 . S
C1656 C1657 1.386 . S
C1656 C1658 1.391 . S
C1657 C1656 1.386 . S
C1657 C1661 1.393 . S
C1658 H1650 0.950 . S
C1658 C1656 1.391 . S
C1658 C1659 1.400 . S
C1659 C1658 1.400 . S
C1659 C1660 1.398 . S
C1659 C1665 1.491 . S
C1660 H1651 0.950 . S
C1660 C1659 1.398 . S
C1660 C1661 1.391 . S
C1661 H1649 0.950 . S
C1661 C1657 1.393 . S
C1661 C1660 1.391 . S
C1662 H1652 0.950 . S
C1662 C1663 1.386 . S
C1662 C1664 1.391 . S
C1663 C1662 1.386 . S
C1663 C1667 1.393 . S
C1664 H1653 0.950 . S
C1664 C1662 1.391 . S
C1664 C1665 1.400 . S
C1665 C1659 1.491 . S
C1665 C1664 1.400 . S
C1665 C1666 1.398 . S
C1666 H1654 0.950 . S
C1666 C1665 1.398 . S
C1666 C1667 1.391 . S
C1667 H1655 0.950 . S
C1667 C1663 1.393 . S
C1667 C1666 1.391 . S
H1668 C1676 0.950 . S
H1669 C1681 0.950 . S
H1670 C1678 0.950 . S
H1671 C1680 0.950 . S
H1672 C1682 0.950 . S
H1673 C1684 0.950 . S
H1674 C1686 0.950 . S
H1675 C1687 0.950 . S
C1676 H1668 0.950 . S
C1676 C1677 1.386 . S
C1676 C1678 1.391 . S
C1677 C1676 1.386 . S
C1677 C1681 1.393 . S
C1678 H1670 0.950 . S
C1678 C1676 1.391 . S
C1678 C1679 1.400 . S
C1679 C1678 1.400 . S
C1679 C1680 1.398 . S
C1679 C1685 1.491 . S
C1680 H1671 0.950 . S
C1680 C1679 1.398 . S
C1680 C1681 1.391 . S
C1681 H1669 0.950 . S
C1681 C1677 1.393 . S
C1681 C1680 1.391 . S
C1682 H1672 0.950 . S
C1682 C1683 1.386 . S
C1682 C1684 1.391 . S
C1683 C1682 1.386 . S
C1683 C1687 1.393 . S
C1684 H1673 0.950 . S
C1684 C1682 1.391 . S
C1684 C1685 1.400 . S
C1685 C1679 1.491 . S
C1685 C1684 1.400 . S
C1685 C1686 1.398 . S
C1686 H1674 0.950 . S
C1686 C1685 1.398 . S
C1686 C1687 1.391 . S
C1687 H1675 0.950 . S
C1687 C1683 1.393 . S
C1687 C1686 1.391 . S
H1688 C1696 0.950 . S
H1689 C1701 0.950 . S
H1690 C1698 0.950 . S
H1691 C1700 0.950 . S
H1692 C1702 0.950 . S
H1693 C1704 0.950 . S
H1694 C1706 0.950 . S
H1695 C1707 0.950 . S
C1696 H1688 0.950 . S
C1696 C1697 1.386 . S
C1696 C1698 1.391 . S
C1697 C1696 1.386 . S
C1697 C1701 1.393 . S
C1698 H1690 0.950 . S
C1698 C1696 1.391 . S
C1698 C1699 1.400 . S
C1699 C1698 1.400 . S
C1699 C1700 1.398 . S
C1699 C1705 1.491 . S
C1700 H1691 0.950 . S
C1700 C1699 1.398 . S
C1700 C1701 1.391 . S
C1701 H1689 0.950 . S
C1701 C1697 1.393 . S
C1701 C1700 1.391 . S
C1702 H1692 0.950 . S
C1702 C1703 1.386 . S
C1702 C1704 1.391 . S
C1703 C1702 1.386 . S
C1703 C1707 1.393 . S
C1704 H1693 0.950 . S
C1704 C1702 1.391 . S
C1704 C1705 1.400 . S
C1705 C1699 1.491 . S
C1705 C1704 1.400 . S
C1705 C1706 1.398 . S
C1706 H1694 0.950 . S
C1706 C1705 1.398 . S
C1706 C1707 1.391 . S
C1707 H1695 0.950 . S
C1707 C1703 1.393 . S
C1707 C1706 1.391 . S
H1708 C1716 0.950 . S
H1709 C1721 0.950 . S
H1710 C1718 0.950 . S
H1711 C1720 0.950 . S
H1712 C1722 0.950 . S
H1713 C1724 0.950 . S
H1714 C1726 0.950 . S
H1715 C1727 0.950 . S
C1716 H1708 0.950 . S
C1716 C1717 1.386 . S
C1716 C1718 1.391 . S
C1717 C1716 1.386 . S
C1717 C1721 1.393 . S
C1718 H1710 0.950 . S
C1718 C1716 1.391 . S
C1718 C1719 1.400 . S
C1719 C1718 1.400 . S
C1719 C1720 1.398 . S
C1719 C1725 1.491 . S
C1720 H1711 0.950 . S
C1720 C1719 1.398 . S
C1720 C1721 1.391 . S
C1721 H1709 0.950 . S
C1721 C1717 1.393 . S
C1721 C1720 1.391 . S
C1722 H1712 0.950 . S
C1722 C1723 1.386 . S
C1722 C1724 1.391 . S
C1723 C1722 1.386 . S
C1723 C1727 1.393 . S
C1724 H1713 0.950 . S
C1724 C1722 1.391 . S
C1724 C1725 1.400 . S
C1725 C1719 1.491 . S
C1725 C1724 1.400 . S
C1725 C1726 1.398 . S
C1726 H1714 0.950 . S
C1726 C1725 1.398 . S
C1726 C1727 1.391 . S
C1727 H1715 0.950 . S
C1727 C1723 1.393 . S
C1727 C1726 1.391 . S
H1728 C1736 0.950 . S
H1729 C1741 0.950 . S
H1730 C1738 0.950 . S
H1731 C1740 0.950 . S
H1732 C1742 0.950 . S
H1733 C1744 0.950 . S
H1734 C1746 0.950 . S
H1735 C1747 0.950 . S
C1736 H1728 0.950 . S
C1736 C1737 1.386 . S
C1736 C1738 1.391 . S
C1737 C1736 1.386 . S
C1737 C1741 1.393 . S
C1738 H1730 0.950 . S
C1738 C1736 1.391 . S
C1738 C1739 1.400 . S
C1739 C1738 1.400 . S
C1739 C1740 1.398 . S
C1739 C1745 1.491 . S
C1740 H1731 0.950 . S
C1740 C1739 1.398 . S
C1740 C1741 1.391 . S
C1741 H1729 0.950 . S
C1741 C1737 1.393 . S
C1741 C1740 1.391 . S
C1742 H1732 0.950 . S
C1742 C1743 1.386 . S
C1742 C1744 1.391 . S
C1743 C1742 1.386 . S
C1743 C1747 1.393 . S
C1744 H1733 0.950 . S
C1744 C1742 1.391 . S
C1744 C1745 1.400 . S
C1745 C1739 1.491 . S
C1745 C1744 1.400 . S
C1745 C1746 1.398 . S
C1746 H1734 0.950 . S
C1746 C1745 1.398 . S
C1746 C1747 1.391 . S
C1747 H1735 0.950 . S
C1747 C1743 1.393 . S
C1747 C1746 1.391 . S
H1748 C1756 0.950 . S
H1749 C1761 0.950 . S
H1750 C1758 0.950 . S
H1751 C1760 0.950 . S
H1752 C1762 0.950 . S
H1753 C1764 0.950 . S
H1754 C1766 0.950 . S
H1755 C1767 0.950 . S
C1756 H1748 0.950 . S
C1756 C1757 1.386 . S
C1756 C1758 1.391 . S
C1757 C1756 1.386 . S
C1757 C1761 1.393 . S
C1758 H1750 0.950 . S
C1758 C1756 1.391 . S
C1758 C1759 1.400 . S
C1759 C1758 1.400 . S
C1759 C1760 1.398 . S
C1759 C1765 1.491 . S
C1760 H1751 0.950 . S
C1760 C1759 1.398 . S
C1760 C1761 1.391 . S
C1761 H1749 0.950 . S
C1761 C1757 1.393 . S
C1761 C1760 1.391 . S
C1762 H1752 0.950 . S
C1762 C1763 1.386 . S
C1762 C1764 1.391 . S
C1763 C1762 1.386 . S
C1763 C1767 1.393 . S
C1764 H1753 0.950 . S
C1764 C1762 1.391 . S
C1764 C1765 1.400 . S
C1765 C1759 1.491 . S
C1765 C1764 1.400 . S
C1765 C1766 1.398 . S
C1766 H1754 0.950 . S
C1766 C1765 1.398 . S
C1766 C1767 1.391 . S
C1767 H1755 0.950 . S
C1767 C1763 1.393 . S
C1767 C1766 1.391 . S
H1768 C1776 0.950 . S
H1769 C1781 0.950 . S
H1770 C1778 0.950 . S
H1771 C1780 0.950 . S
H1772 C1782 0.950 . S
H1773 C1784 0.950 . S
H1774 C1786 0.950 . S
H1775 C1787 0.950 . S
C1776 H1768 0.950 . S
C1776 C1777 1.386 . S
C1776 C1778 1.391 . S
C1777 C1776 1.386 . S
C1777 C1781 1.393 . S
C1778 H1770 0.950 . S
C1778 C1776 1.391 . S
C1778 C1779 1.400 . S
C1779 C1778 1.400 . S
C1779 C1780 1.398 . S
C1779 C1785 1.491 . S
C1780 H1771 0.950 . S
C1780 C1779 1.398 . S
C1780 C1781 1.391 . S
C1781 H1769 0.950 . S
C1781 C1777 1.393 . S
C1781 C1780 1.391 . S
C1782 H1772 0.950 . S
C1782 C1783 1.386 . S
C1782 C1784 1.391 . S
C1783 C1782 1.386 . S
C1783 C1787 1.393 . S
C1784 H1773 0.950 . S
C1784 C1782 1.391 . S
C1784 C1785 1.400 . S
C1785 C1779 1.491 . S
C1785 C1784 1.400 . S
C1785 C1786 1.398 . S
C1786 H1774 0.950 . S
C1786 C1785 1.398 . S
C1786 C1787 1.391 . S
C1787 H1775 0.950 . S
C1787 C1783 1.393 . S
C1787 C1786 1.391 . S
H1788 C1796 0.950 . S
H1789 C1801 0.950 . S
H1790 C1798 0.950 . S
H1791 C1800 0.950 . S
H1792 C1802 0.950 . S
H1793 C1804 0.950 . S
H1794 C1806 0.950 . S
H1795 C1807 0.950 . S
C1796 H1788 0.950 . S
C1796 C1797 1.386 . S
C1796 C1798 1.391 . S
C1797 C1796 1.386 . S
C1797 C1801 1.393 . S
C1798 H1790 0.950 . S
C1798 C1796 1.391 . S
C1798 C1799 1.400 . S
C1799 C1798 1.400 . S
C1799 C1800 1.398 . S
C1799 C1805 1.491 . S
C1800 H1791 0.950 . S
C1800 C1799 1.398 . S
C1800 C1801 1.391 . S
C1801 H1789 0.950 . S
C1801 C1797 1.393 . S
C1801 C1800 1.391 . S
C1802 H1792 0.950 . S
C1802 C1803 1.386 . S
C1802 C1804 1.391 . S
C1803 C1802 1.386 . S
C1803 C1807 1.393 . S
C1804 H1793 0.950 . S
C1804 C1802 1.391 . S
C1804 C1805 1.400 . S
C1805 C1799 1.491 . S
C1805 C1804 1.400 . S
C1805 C1806 1.398 . S
C1806 H1794 0.950 . S
C1806 C1805 1.398 . S
C1806 C1807 1.391 . S
C1807 H1795 0.950 . S
C1807 C1803 1.393 . S
C1807 C1806 1.391 . S
H1808 C1816 0.950 . S
H1809 C1821 0.950 . S
H1810 C1818 0.950 . S
H1811 C1820 0.950 . S
H1812 C1822 0.950 . S
H1813 C1824 0.950 . S
H1814 C1826 0.950 . S
H1815 C1827 0.950 . S
C1816 H1808 0.950 . S
C1816 C1817 1.386 . S
C1816 C1818 1.391 . S
C1817 C1816 1.386 . S
C1817 C1821 1.393 . S
C1818 H1810 0.950 . S
C1818 C1816 1.391 . S
C1818 C1819 1.400 . S
C1819 C1818 1.400 . S
C1819 C1820 1.398 . S
C1819 C1825 1.491 . S
C1820 H1811 0.950 . S
C1820 C1819 1.398 . S
C1820 C1821 1.391 . S
C1821 H1809 0.950 . S
C1821 C1817 1.393 . S
C1821 C1820 1.391 . S
C1822 H1812 0.950 . S
C1822 C1823 1.386 . S
C1822 C1824 1.391 . S
C1823 C1822 1.386 . S
C1823 C1827 1.393 . S
C1824 H1813 0.950 . S
C1824 C1822 1.391 . S
C1824 C1825 1.400 . S
C1825 C1819 1.491 . S
C1825 C1824 1.400 . S
C1825 C1826 1.398 . S
C1826 H1814 0.950 . S
C1826 C1825 1.398 . S
C1826 C1827 1.391 . S
C1827 H1815 0.950 . S
C1827 C1823 1.393 . S
C1827 C1826 1.391 . S
H1828 C1836 0.950 . S
H1829 C1841 0.950 . S
H1830 C1838 0.950 . S
H1831 C1840 0.950 . S
H1832 C1842 0.950 . S
H1833 C1844 0.950 . S
H1834 C1846 0.950 . S
H1835 C1847 0.950 . S
C1836 H1828 0.950 . S
C1836 C1837 1.386 . S
C1836 C1838 1.391 . S
C1837 C1836 1.386 . S
C1837 C1841 1.393 . S
C1838 H1830 0.950 . S
C1838 C1836 1.391 . S
C1838 C1839 1.400 . S
C1839 C1838 1.400 . S
C1839 C1840 1.398 . S
C1839 C1845 1.491 . S
C1840 H1831 0.950 . S
C1840 C1839 1.398 . S
C1840 C1841 1.391 . S
C1841 H1829 0.950 . S
C1841 C1837 1.393 . S
C1841 C1840 1.391 . S
C1842 H1832 0.950 . S
C1842 C1843 1.386 . S
C1842 C1844 1.391 . S
C1843 C1842 1.386 . S
C1843 C1847 1.393 . S
C1844 H1833 0.950 . S
C1844 C1842 1.391 . S
C1844 C1845 1.400 . S
C1845 C1839 1.491 . S
C1845 C1844 1.400 . S
C1845 C1846 1.398 . S
C1846 H1834 0.950 . S
C1846 C1845 1.398 . S
C1846 C1847 1.391 . S
C1847 H1835 0.950 . S
C1847 C1843 1.393 . S
C1847 C1846 1.391 . S
H1848 C1856 0.950 . S
H1849 C1861 0.950 . S
H1850 C1858 0.950 . S
H1851 C1860 0.950 . S
H1852 C1862 0.950 . S
H1853 C1864 0.950 . S
H1854 C1866 0.950 . S
H1855 C1867 0.950 . S
C1856 H1848 0.950 . S
C1856 C1857 1.386 . S
C1856 C1858 1.391 . S
C1857 C1856 1.386 . S
C1857 C1861 1.393 . S
C1858 H1850 0.950 . S
C1858 C1856 1.391 . S
C1858 C1859 1.400 . S
C1859 C1858 1.400 . S
C1859 C1860 1.398 . S
C1859 C1865 1.491 . S
C1860 H1851 0.950 . S
C1860 C1859 1.398 . S
C1860 C1861 1.391 . S
C1861 H1849 0.950 . S
C1861 C1857 1.393 . S
C1861 C1860 1.391 . S
C1862 H1852 0.950 . S
C1862 C1863 1.386 . S
C1862 C1864 1.391 . S
C1863 C1862 1.386 . S
C1863 C1867 1.393 . S
C1864 H1853 0.950 . S
C1864 C1862 1.391 . S
C1864 C1865 1.400 . S
C1865 C1859 1.491 . S
C1865 C1864 1.400 . S
C1865 C1866 1.398 . S
C1866 H1854 0.950 . S
C1866 C1865 1.398 . S
C1866 C1867 1.391 . S
C1867 H1855 0.950 . S
C1867 C1863 1.393 . S
C1867 C1866 1.391 . S
H1868 C1876 0.950 . S
H1869 C1881 0.950 . S
H1870 C1878 0.950 . S
H1871 C1880 0.950 . S
H1872 C1882 0.950 . S
H1873 C1884 0.950 . S
H1874 C1886 0.950 . S
H1875 C1887 0.950 . S
C1876 H1868 0.950 . S
C1876 C1877 1.386 . S
C1876 C1878 1.391 . S
C1877 C1876 1.386 . S
C1877 C1881 1.393 . S
C1878 H1870 0.950 . S
C1878 C1876 1.391 . S
C1878 C1879 1.400 . S
C1879 C1878 1.400 . S
C1879 C1880 1.398 . S
C1879 C1885 1.491 . S
C1880 H1871 0.950 . S
C1880 C1879 1.398 . S
C1880 C1881 1.391 . S
C1881 H1869 0.950 . S
C1881 C1877 1.393 . S
C1881 C1880 1.391 . S
C1882 H1872 0.950 . S
C1882 C1883 1.386 . S
C1882 C1884 1.391 . S
C1883 C1882 1.386 . S
C1883 C1887 1.393 . S
C1884 H1873 0.950 . S
C1884 C1882 1.391 . S
C1884 C1885 1.400 . S
C1885 C1879 1.491 . S
C1885 C1884 1.400 . S
C1885 C1886 1.398 . S
C1886 H1874 0.950 . S
C1886 C1885 1.398 . S
C1886 C1887 1.391 . S
C1887 H1875 0.950 . S
C1887 C1883 1.393 . S
C1887 C1886 1.391 . S
H1888 C1896 0.950 . S
H1889 C1901 0.950 . S
H1890 C1898 0.950 . S
H1891 C1900 0.950 . S
H1892 C1902 0.950 . S
H1893 C1904 0.950 . S
H1894 C1906 0.950 . S
H1895 C1907 0.950 . S
C1896 H1888 0.950 . S
C1896 C1897 1.386 . S
C1896 C1898 1.391 . S
C1897 C1896 1.386 . S
C1897 C1901 1.393 . S
C1898 H1890 0.950 . S
C1898 C1896 1.391 . S
C1898 C1899 1.400 . S
C1899 C1898 1.400 . S
C1899 C1900 1.398 . S
C1899 C1905 1.491 . S
C1900 H1891 0.950 . S
C1900 C1899 1.398 . S
C1900 C1901 1.391 . S
C1901 H1889 0.950 . S
C1901 C1897 1.393 . S
C1901 C1900 1.391 . S
C1902 H1892 0.950 . S
C1902 C1903 1.386 . S
C1902 C1904 1.391 . S
C1903 C1902 1.386 . S
C1903 C1907 1.393 . S
C1904 H1893 0.950 . S
C1904 C1902 1.391 . S
C1904 C1905 1.400 . S
C1905 C1899 1.491 . S
C1905 C1904 1.400 . S
C1905 C1906 1.398 . S
C1906 H1894 0.950 . S
C1906 C1905 1.398 . S
C1906 C1907 1.391 . S
C1907 H1895 0.950 . S
C1907 C1903 1.393 . S
C1907 C1906 1.391 . S
C477 C8 1.354 . S
C483 C242 1.354 . S
C497 C255 1.361 . S
C503 C21 1.361 . S
C517 C268 1.361 . S
C523 C34 1.361 . S
C537 C47 1.350 . S
C543 C437 1.350 . S
C557 C60 1.347 . S
C563 C450 1.347 . S
C577 C73 1.360 . S
C583 C463 1.360 . S
C597 C320 1.344 . S
C603 C86 1.344 . S
C617 C99 1.351 . S
C623 C333 1.351 . S
C637 C112 1.339 . S
C643 C346 1.339 . S
C657 C203 1.345 . S
C663 C125 1.345 . S
C677 C216 1.358 . S
C683 C138 1.358 . S
C697 C229 1.339 . S
C703 C151 1.339 . S
C717 C398 1.363 . S
C723 C164 1.363 . S
C737 C411 1.354 . S
C743 C177 1.354 . S
C757 C190 1.340 . S
C763 C424 1.340 . S
C777 C359 1.343 . S
C783 C281 1.343 . S
C797 C294 1.343 . S
C803 C372 1.343 . S
C817 C307 1.347 . S
C823 C385 1.347 . S
C837 C0 1.377 . S
C843 C351 1.404 . S
C857 C364 1.369 . S
C863 C13 1.393 . S
C877 C377 1.379 . S
C883 C26 1.404 . S
C897 C156 1.402 . S
C903 C39 1.383 . S
C917 C169 1.376 . S
C923 C52 1.381 . S
C937 C182 1.389 . S
C943 C65 1.398 . S
C957 C78 1.371 . S
C963 C273 1.403 . S
C977 C286 1.386 . S
C983 C91 1.401 . S
C997 C299 1.392 . S
C1003 C104 1.369 . S
C1017 C117 1.370 . S
C1023 C390 1.403 . S
C1037 C130 1.400 . S
C1043 C403 1.368 . S
C1057 C143 1.404 . S
C1063 C416 1.374 . S
C1077 C195 1.402 . S
C1083 C312 1.384 . S
C1097 C208 1.368 . S
C1103 C325 1.395 . S
C1117 C221 1.404 . S
C1123 C338 1.376 . S
C1137 C234 1.400 . S
C1143 C429 1.368 . S
C1157 C442 1.391 . S
C1163 C247 1.397 . S
C1177 C260 1.402 . S
C1183 C455 1.384 . S
C1197 C23 1.076 1_455 S
C1203 C5 0.946 . S
C1217 C18 0.930 . S
C1223 C36 1.076 . S
C1237 C31 0.954 . S
C1243 C10 1.068 1_565 S
C1257 C44 0.945 . S
C1263 C75 1.067 1_545 S
C1277 C49 1.068 1_655 S
C1283 C57 0.900 . S
C1297 C70 0.968 . S
C1303 C62 1.073 . S
C1317 C83 0.929 . S
C1323 C101 1.076 1_655 S
C1337 C96 0.961 . S
C1343 C114 1.075 . S
C1357 C109 0.906 . S
C1363 C88 1.067 1_545 S
C1377 C153 1.075 1_565 S
C1383 C122 0.962 . S
C1397 C135 0.968 . S
C1403 C127 1.072 1_455 S
C1417 C140 1.066 . S
C1423 C148 0.926 . S
C1437 C179 1.073 . S
C1443 C161 0.904 . S
C1457 C192 1.071 . S
C1463 C174 0.967 . S
C1477 C166 1.076 . S
C1483 C187 0.931 . S
C1497 C200 0.952 . S
C1503 C231 1.068 . S
C1517 C213 0.945 . S
C1523 C205 1.076 . S
C1537 C226 0.968 . S
C1543 C218 1.073 . S
C1557 C257 1.076 . S
C1563 C239 0.943 . S
C1577 C252 0.900 . S
C1583 C270 1.068 . S
C1597 C265 0.966 . S
C1603 C244 1.071 . S
C1617 C278 0.962 . S
C1623 C309 1.069 . S
C1637 C291 0.897 . S
C1643 C283 1.069 . S
C1657 C296 1.069 . S
C1663 C304 0.897 . S
C1677 C335 1.076 . S
C1683 C317 0.940 . S
C1697 C330 0.935 . S
C1703 C348 1.067 . S
C1717 C322 1.068 . S
C1723 C343 0.899 . S
C1737 C356 0.968 . S
C1743 C387 1.072 . S
C1757 C369 0.911 . S
C1763 C361 1.067 . S
C1777 C382 0.898 . S
C1783 C374 1.069 . S
C1797 C395 0.946 . S
C1803 C413 1.067 . S
C1817 C408 0.898 . S
C1823 C426 1.069 . S
C1837 C421 0.951 . S
C1843 C400 1.076 . S
C1857 C434 0.909 . S
C1863 C465 1.067 . S
C1877 C447 0.903 . S
C1883 C439 1.073 . S
C1897 C452 1.075 . S
C1903 C460 0.963 . S
