# Generated by pormake.
# Topology swi, (7)-cn, num edge types: 1
# Building blocks:
#     Node 0, Type 0, BuildingBlock: HICVOG_clean_sbu_0, # of connection points: 7
#     Node 1, Type 0, BuildingBlock: HICVOG_clean_sbu_0, # of connection points: 7
#     Node 2, Type 0, BuildingBlock: HICVOG_clean_sbu_0, # of connection points: 7
#     Node 3, Type 0, BuildingBlock: HICVOG_clean_sbu_0, # of connection points: 7
#     Node 4, Type 0, BuildingBlock: HICVOG_clean_sbu_0, # of connection points: 7
#     Node 5, Type 0, BuildingBlock: HICVOG_clean_sbu_0, # of connection points: 7
#     Node 6, Type 0, BuildingBlock: HICVOG_clean_sbu_0, # of connection points: 7
#     Node 7, Type 0, BuildingBlock: HICVOG_clean_sbu_0, # of connection points: 7
#     Node 8, Type 0, BuildingBlock: HICVOG_clean_sbu_0, # of connection points: 7
#     Node 9, Type 0, BuildingBlock: HICVOG_clean_sbu_0, # of connection points: 7
#     Node 10, Type 0, BuildingBlock: HICVOG_clean_sbu_0, # of connection points: 7
#     Node 11, Type 0, BuildingBlock: HICVOG_clean_sbu_0, # of connection points: 7
#     Edge 12, Type (0, 0), BuildingBlock: TEMPAE_clean_linker_10, # of connection points: 2
#     Edge 13, Type (0, 0), BuildingBlock: TEMPAE_clean_linker_10, # of connection points: 2
#     Edge 14, Type (0, 0), BuildingBlock: TEMPAE_clean_linker_10, # of connection points: 2
#     Edge 15, Type (0, 0), BuildingBlock: TEMPAE_clean_linker_10, # of connection points: 2
#     Edge 16, Type (0, 0), BuildingBlock: TEMPAE_clean_linker_10, # of connection points: 2
#     Edge 17, Type (0, 0), BuildingBlock: TEMPAE_clean_linker_10, # of connection points: 2
#     Edge 18, Type (0, 0), BuildingBlock: TEMPAE_clean_linker_10, # of connection points: 2
#     Edge 19, Type (0, 0), BuildingBlock: TEMPAE_clean_linker_10, # of connection points: 2
#     Edge 20, Type (0, 0), BuildingBlock: TEMPAE_clean_linker_10, # of connection points: 2
#     Edge 21, Type (0, 0), BuildingBlock: TEMPAE_clean_linker_10, # of connection points: 2
#     Edge 22, Type (0, 0), BuildingBlock: TEMPAE_clean_linker_10, # of connection points: 2
#     Edge 23, Type (0, 0), BuildingBlock: TEMPAE_clean_linker_10, # of connection points: 2
#     Edge 24, Type (0, 0), BuildingBlock: TEMPAE_clean_linker_10, # of connection points: 2
#     Edge 25, Type (0, 0), BuildingBlock: TEMPAE_clean_linker_10, # of connection points: 2
#     Edge 26, Type (0, 0), BuildingBlock: TEMPAE_clean_linker_10, # of connection points: 2
#     Edge 27, Type (0, 0), BuildingBlock: TEMPAE_clean_linker_10, # of connection points: 2
#     Edge 28, Type (0, 0), BuildingBlock: TEMPAE_clean_linker_10, # of connection points: 2
#     Edge 29, Type (0, 0), BuildingBlock: TEMPAE_clean_linker_10, # of connection points: 2
#     Edge 30, Type (0, 0), BuildingBlock: TEMPAE_clean_linker_10, # of connection points: 2
#     Edge 31, Type (0, 0), BuildingBlock: TEMPAE_clean_linker_10, # of connection points: 2
#     Edge 32, Type (0, 0), BuildingBlock: TEMPAE_clean_linker_10, # of connection points: 2
#     Edge 33, Type (0, 0), BuildingBlock: TEMPAE_clean_linker_10, # of connection points: 2
#     Edge 34, Type (0, 0), BuildingBlock: TEMPAE_clean_linker_10, # of connection points: 2
#     Edge 35, Type (0, 0), BuildingBlock: TEMPAE_clean_linker_10, # of connection points: 2
#     Edge 36, Type (0, 0), BuildingBlock: TEMPAE_clean_linker_10, # of connection points: 2
#     Edge 37, Type (0, 0), BuildingBlock: TEMPAE_clean_linker_10, # of connection points: 2
#     Edge 38, Type (0, 0), BuildingBlock: TEMPAE_clean_linker_10, # of connection points: 2
#     Edge 39, Type (0, 0), BuildingBlock: TEMPAE_clean_linker_10, # of connection points: 2
#     Edge 40, Type (0, 0), BuildingBlock: TEMPAE_clean_linker_10, # of connection points: 2
#     Edge 41, Type (0, 0), BuildingBlock: TEMPAE_clean_linker_10, # of connection points: 2
#     Edge 42, Type (0, 0), BuildingBlock: TEMPAE_clean_linker_10, # of connection points: 2
#     Edge 43, Type (0, 0), BuildingBlock: TEMPAE_clean_linker_10, # of connection points: 2
#     Edge 44, Type (0, 0), BuildingBlock: TEMPAE_clean_linker_10, # of connection points: 2
#     Edge 45, Type (0, 0), BuildingBlock: TEMPAE_clean_linker_10, # of connection points: 2
#     Edge 46, Type (0, 0), BuildingBlock: TEMPAE_clean_linker_10, # of connection points: 2
#     Edge 47, Type (0, 0), BuildingBlock: TEMPAE_clean_linker_10, # of connection points: 2
#     Edge 48, Type (0, 0), BuildingBlock: TEMPAE_clean_linker_10, # of connection points: 2
#     Edge 49, Type (0, 0), BuildingBlock: TEMPAE_clean_linker_10, # of connection points: 2
#     Edge 50, Type (0, 0), BuildingBlock: TEMPAE_clean_linker_10, # of connection points: 2
#     Edge 51, Type (0, 0), BuildingBlock: TEMPAE_clean_linker_10, # of connection points: 2
#     Edge 52, Type (0, 0), BuildingBlock: TEMPAE_clean_linker_10, # of connection points: 2
#     Edge 53, Type (0, 0), BuildingBlock: TEMPAE_clean_linker_10, # of connection points: 2
# Relax obj value: 0.315
# Max RMSD: 0.249
# Mean RMSD: 0.249
data_MOF--net-swi--node1-HICVOG_clean_sbu_0--edge1-TEMPAE_clean_linker_10
_symmetry_space_group_name_H-M    P1
_symmetry_Int_Tables_number       1
_symmetry_cell_setting            triclinic
loop_
_symmetry_equiv_pos_as_xyz
'x, y, z'
_cell_length_a     40.823058
_cell_length_b     40.804161
_cell_length_c     39.616223
_cell_angle_alpha  90.0283
_cell_angle_beta   89.943358
_cell_angle_gamma 120.11789
loop_
_atom_site_label
_atom_site_type_symbol
_atom_site_fract_x
_atom_site_fract_y
_atom_site_fract_z
_atom_type_partial_charge
Zn0 Zn 0.42421 0.12056 0.97667 0.0
C1 C 0.49708 0.13555 0.05305 0.0
N2 N 0.50018 0.10828 0.03713 0.0
C3 C 0.47443 0.09765 1.0124 0.0
N4 N 0.45656 0.11817 1.01247 0.0
N5 N 0.4703 0.1411 0.03897 0.0
C6 C 0.52229 0.24222 0.06241 0.0
O7 O 0.52268 0.23499 0.03014 0.0
O8 O 0.38048 0.06741 0.96699 0.0
Zn9 Zn 0.45209 0.17048 0.06287 0.0
N10 N 0.45505 0.14351 0.93616 0.0
C11 C 0.51698 0.17645 0.91249 0.0
C12 C 0.49301 0.15829 0.93961 0.0
C13 C 0.44028 0.14861 0.90693 0.0
N14 N 0.50235 0.18098 0.88336 0.0
C15 C 0.46467 0.16814 0.87959 0.0
O16 O 0.42067 0.18542 0.03525 0.0
C17 C 0.40311 0.17863 1.00734 0.0
O18 O 0.40293 0.15509 0.98614 0.0
H19 H 0.5048 0.15634 0.96339 0.0
H20 H 0.41015 0.13801 0.90523 0.0
C21 C 0.42649 0.16299 0.13169 0.0
C22 C 0.40608 0.14338 0.16077 0.0
C23 C 0.381 0.08553 0.13017 0.0
C24 C 0.40145 0.10512 0.10163 0.0
N25 N 0.42364 0.14339 0.10285 0.0
N26 N 0.38372 0.105 0.15885 0.0
H27 H 0.44397 0.19352 0.13165 0.0
C28 C 0.36942 0.04268 0.99032 0.0
O29 O 0.38584 0.05216 1.01997 0.0
O30 O 0.49533 0.21859 0.08075 0.0
H31 H 0.39966 0.09005 0.07865 0.0
H32 H 0.54716 0.18765 0.91479 0.0
H33 H 0.36307 0.05504 0.12955 0.0
Zn34 Zn 0.27652 0.44323 0.05953 0.0
C35 C 0.37557 0.48031 1.00935 0.0
N36 N 0.38769 0.50513 0.03497 0.0
C37 C 0.35548 0.49678 0.05104 0.0
N38 N 0.32509 0.46776 0.0363 0.0
N39 N 0.33732 0.45801 1.00916 0.0
C40 C 0.30091 0.35342 0.96213 0.0
O41 O 0.26456 0.34082 0.96607 0.0
O42 O 0.26232 0.48206 0.07258 0.0
Zn43 Zn 0.30627 0.4265 0.97181 0.0
N44 N 0.28115 0.42189 0.10192 0.0
C45 C 0.30865 0.39249 0.13371 0.0
C46 C 0.30376 0.40638 0.10316 0.0
C47 C 0.26311 0.42413 0.13011 0.0
N48 N 0.29096 0.39495 0.16184 0.0
C49 C 0.26823 0.41055 0.16133 0.0
O50 O 0.24985 0.39865 0.98059 0.0
C51 C 0.22467 0.39019 1.00316 0.0
O52 O 0.2328 0.40378 0.03283 0.0
H53 H 0.31801 0.40507 0.0806 0.0
H54 H 0.2449 0.43612 0.12784 0.0
C55 C 0.29387 0.44431 0.90308 0.0
C56 C 0.29758 0.46933 0.87678 0.0
C57 C 0.33781 0.52144 0.91181 0.0
C58 C 0.33301 0.49674 0.93799 0.0
N59 N 0.31244 0.45869 0.93292 0.0
N60 N 0.32004 0.50725 0.88201 0.0
H61 H 0.27618 0.41397 0.90009 0.0
C62 C 0.2399 0.48753 0.05445 0.0
O63 O 0.22628 0.46773 0.02664 0.0
O64 O 0.32375 0.389 0.96183 0.0
H65 H 0.34513 0.50797 0.96239 0.0
H66 H 0.32655 0.38001 0.13513 0.0
H67 H 0.35477 0.55176 0.9154 0.0
Zn68 Zn 0.88004 0.30328 0.97449 0.0
C69 C 0.86206 0.35788 0.05175 0.0
N70 N 0.88877 0.38915 0.03634 0.0
C71 C 0.90082 0.37528 1.01165 0.0
N72 N 0.88179 0.33676 1.01139 0.0
N73 N 0.85851 0.32622 0.03774 0.0
C74 C 0.75694 0.23535 0.08799 0.0
O75 O 0.76535 0.20823 0.08679 0.0
O76 O 0.9332 0.31441 0.96361 0.0
Zn77 Zn 0.83198 0.27813 0.06191 0.0
N78 N 0.85592 0.31098 0.93478 0.0
C79 C 0.82323 0.34058 0.9121 0.0
C80 C 0.84173 0.33459 0.93875 0.0
C81 C 0.85002 0.29101 0.90544 0.0
N82 N 0.81791 0.32131 0.88286 0.0
C83 C 0.83023 0.29614 0.87856 0.0
O84 O 0.82044 0.23299 0.0337 0.0
C85 C 0.82658 0.22287 1.00519 0.0
O86 O 0.84791 0.24695 0.98327 0.0
H87 H 0.84429 0.34841 0.96261 0.0
H88 H 0.8603 0.27127 0.90326 0.0
C89 C 0.84232 0.26752 0.13236 0.0
C90 C 0.8619 0.26547 0.16084 0.0
C91 C 0.9174 0.28867 0.12705 0.0
C92 C 0.89742 0.28948 0.09882 0.0
N93 N 0.86028 0.27884 0.10193 0.0
N94 N 0.89924 0.27653 0.15715 0.0
H95 H 0.81318 0.26043 0.13434 0.0
C96 C 0.95793 0.32737 0.9869 0.0
O97 O 0.94848 0.33306 1.01708 0.0
O98 O 0.7815 0.26852 0.07871 0.0
H99 H 0.91126 0.29832 0.07456 0.0
H100 H 0.81244 0.35983 0.91484 0.0
H101 H 0.94705 0.29716 0.12498 0.0
Zn102 Zn 0.54746 0.8324 0.05383 0.0
C103 C 0.52024 0.9013 1.00309 0.0
N104 N 0.4951 0.89045 0.02846 0.0
C105 C 0.50078 0.86511 0.04499 0.0
N106 N 0.52821 0.86082 0.03061 0.0
N107 N 0.53996 0.88268 1.00338 0.0
C108 C 0.64755 0.94645 0.96037 0.0
O109 O 0.65809 0.92128 0.96553 0.0
O110 O 0.50388 0.78243 0.06723 0.0
Zn111 Zn 0.57178 0.88123 0.96696 0.0
N112 N 0.57257 0.85797 0.09541 0.0
C113 C 0.61297 0.9154 0.12436 0.0
C114 C 0.59429 0.89631 0.09504 0.0
C115 C 0.56849 0.83777 0.12414 0.0
N116 N 0.60916 0.89535 0.1529 0.0
C117 C 0.58728 0.85687 0.15396 0.0
O118 O 0.59556 0.84878 0.97614 0.0
C119 C 0.5985 0.82763 0.9981 0.0
O120 O 0.5822 0.82137 0.02664 0.0
H121 H 0.59714 0.91185 0.07205 0.0
H122 H 0.55145 0.8072 0.12342 0.0
C123 C 0.55604 0.85257 0.89766 0.0
C124 C 0.53201 0.83355 0.87001 0.0
C125 C 0.47976 0.82759 0.90167 0.0
C126 C 0.50335 0.84524 0.9291 0.0
N127 N 0.54112 0.85846 0.92644 0.0
N128 N 0.49454 0.82212 0.87302 0.0
H129 H 0.58601 0.86222 0.89657 0.0
C130 C 0.49097 0.75644 0.0452 0.0
O131 O 0.50593 0.76384 1.01481 0.0
O132 O 0.61243 0.93544 0.95848 0.0
H133 H 0.49137 0.84759 0.9526 0.0
H134 H 0.6305 0.94594 0.12443 0.0
H135 H 0.44972 0.81745 0.90339 0.0
Zn136 Zn 0.6911 0.57845 0.9667 0.0
C137 C 0.62803 0.50848 0.04264 0.0
N138 N 0.60049 0.51247 0.02838 0.0
C139 C 0.61872 0.53874 1.00455 0.0
N140 N 0.65614 0.55031 1.00356 0.0
N141 N 0.66198 0.53232 0.02867 0.0
C142 C 0.73109 0.49093 0.03919 0.0
O143 O 0.74221 0.50936 1.01044 0.0
O144 O 0.67834 0.61839 0.95297 0.0
Zn145 Zn 0.7088 0.54551 0.05158 0.0
N146 N 0.68342 0.54373 0.92946 0.0
C147 C 0.65516 0.4796 0.91126 0.0
C148 C 0.65863 0.50635 0.93494 0.0
C149 C 0.70541 0.55543 0.901 0.0
N150 N 0.67739 0.49108 0.88334 0.0
C151 C 0.70265 0.52828 0.87731 0.0
O152 O 0.75587 0.58213 0.02671 0.0
C153 C 0.76896 0.60207 1.00021 0.0
O154 O 0.74725 0.60274 0.97749 0.0
H155 H 0.64227 0.49715 0.95797 0.0
H156 H 0.72598 0.58516 0.89772 0.0
C157 C 0.7217 0.55876 0.12379 0.0
C158 C 0.72121 0.57553 0.15491 0.0
C159 C 0.69515 0.60875 0.12658 0.0
C160 C 0.69598 0.59229 0.09607 0.0
N161 N 0.70913 0.56766 0.0952 0.0
N162 N 0.70773 0.60007 0.15501 0.0
H163 H 0.73125 0.53846 0.12207 0.0
C164 C 0.70158 0.65358 0.95672 0.0
O165 O 0.73629 0.66454 0.96656 0.0
O166 O 0.71369 0.50003 0.06031 0.0
H167 H 0.6861 0.59893 0.07315 0.0
H168 H 0.63556 0.44978 0.9154 0.0
H169 H 0.68467 0.62837 0.12771 0.0
Zn170 Zn 0.16301 0.71964 0.06232 0.0
C171 C 0.0924 0.62192 1.014 0.0
N172 N 0.10311 0.60794 0.03962 0.0
C173 C 0.12971 0.63921 0.05516 0.0
N174 N 0.13462 0.67091 0.04007 0.0
N175 N 0.11211 0.66034 1.01325 0.0
C176 C 0.0481 0.69938 0.97299 0.0
O177 O 0.07148 0.73171 0.98762 0.0
O178 O 0.21471 0.72946 0.07507 0.0
Zn179 Zn 0.11462 0.6923 0.97517 0.0
N180 N 0.13766 0.71984 0.10387 0.0
C181 C 0.08101 0.707 0.13197 0.0
C182 C 0.09983 0.70656 0.10278 0.0
C183 C 0.15758 0.73353 0.13314 0.0
N184 N 0.10087 0.72107 0.16101 0.0
C185 C 0.13891 0.7347 0.16277 0.0
O186 O 0.14583 0.7491 0.9828 0.0
C187 C 0.16557 0.77336 1.00519 0.0
O188 O 0.17156 0.76373 0.03395 0.0
H189 H 0.08452 0.69579 0.07934 0.0
H190 H 0.18744 0.743 0.13313 0.0
C191 C 0.14914 0.70529 0.90832 0.0
C192 C 0.17451 0.7042 0.88471 0.0
C193 C 0.18095 0.66072 0.91996 0.0
C194 C 0.15713 0.66302 0.94376 0.0
N195 N 0.14113 0.68467 0.93747 0.0
N196 N 0.18942 0.68161 0.89135 0.0
H197 H 0.13782 0.72398 0.9046 0.0
C198 C 0.241 0.76345 0.07929 0.0
O199 O 0.23347 0.79105 0.0761 0.0
O200 O 0.06049 0.67771 0.96369 0.0
H201 H 0.15273 0.64876 0.96767 0.0
H202 H 0.05085 0.69647 0.13154 0.0
H203 H 0.19374 0.6435 0.92472 0.0
Zn204 Zn 0.83041 0.53723 0.47795 0.0
C205 C 0.91098 0.52905 0.5313 0.0
N206 N 0.90899 0.50727 0.50543 0.0
C207 C 0.88071 0.50488 0.48655 0.0
N208 N 0.86621 0.52556 0.50024 0.0
N209 N 0.885 0.54025 0.52898 0.0
C210 C 0.95247 0.63007 0.55185 0.0
O211 O 0.93965 0.61868 0.52115 0.0
O212 O 0.77808 0.49086 0.47445 0.0
Zn213 Zn 0.8784 0.57041 0.56449 0.0
N214 N 0.85044 0.55874 0.43335 0.0
C215 C 0.90593 0.59768 0.40127 0.0
C216 C 0.88874 0.58048 0.43161 0.0
C217 C 0.82838 0.5534 0.40563 0.0
N218 N 0.88411 0.59272 0.37381 0.0
C219 C 0.84564 0.57101 0.37479 0.0
O220 O 0.84791 0.59506 0.55249 0.0
C221 C 0.82711 0.59515 0.52874 0.0
O222 O 0.82125 0.57522 0.5024 0.0
H223 H 0.9058 0.58456 0.45379 0.0
H224 H 0.79793 0.53634 0.40782 0.0
C225 C 0.84286 0.55093 0.63148 0.0
C226 C 0.81778 0.52489 0.65559 0.0
C227 C 0.81227 0.4742 0.6219 0.0
C228 C 0.83606 0.49986 0.59773 0.0
N229 N 0.85125 0.53768 0.60292 0.0
N230 N 0.80339 0.48722 0.6499 0.0
H231 H 0.85387 0.58104 0.6345 0.0
C232 C 0.75094 0.49719 0.46987 0.0
O233 O 0.75835 0.53226 0.46653 0.0
O234 O 0.93088 0.61339 0.5769 0.0
H235 H 0.84151 0.48952 0.57452 0.0
H236 H 0.93641 0.61512 0.39957 0.0
H237 H 0.80006 0.44405 0.618 0.0
Zn238 Zn 0.30403 0.88075 0.57286 0.0
C239 C 0.35605 0.86411 0.49303 0.0
N240 N 0.38785 0.89024 0.50819 0.0
C241 C 0.3748 0.90195 0.53385 0.0
N242 N 0.33637 0.88325 0.53494 0.0
N243 N 0.32494 0.86049 0.50829 0.0
C244 C 0.24593 0.75531 0.49169 0.0
O245 O 0.23485 0.76181 0.52082 0.0
O246 O 0.31663 0.93379 0.58612 0.0
Zn247 Zn 0.27643 0.83463 0.48529 0.0
N248 N 0.31069 0.85338 0.61037 0.0
C249 C 0.3354 0.8144 0.62837 0.0
C250 C 0.33331 0.83835 0.60461 0.0
C251 C 0.28915 0.8445 0.63903 0.0
N252 N 0.31362 0.80509 0.6565 0.0
C253 C 0.29023 0.81918 0.66267 0.0
O254 O 0.23147 0.82736 0.51208 0.0
C255 C 0.22282 0.83274 0.54154 0.0
O256 O 0.24765 0.85054 0.5641 0.0
H257 H 0.34866 0.84373 0.58119 0.0
H258 H 0.26995 0.85528 0.6424 0.0
C259 C 0.26239 0.84044 0.41493 0.0
C260 C 0.2642 0.85954 0.38472 0.0
C261 C 0.29958 0.91827 0.41358 0.0
C262 C 0.29776 0.89915 0.4433 0.0
N263 N 0.27912 0.86071 0.44347 0.0
N264 N 0.28276 0.89814 0.38519 0.0
H265 H 0.24725 0.80983 0.41607 0.0
C266 C 0.32728 0.95836 0.56271 0.0
O267 O 0.32979 0.94861 0.53166 0.0
O268 O 0.2652 0.78278 0.47188 0.0
H269 H 0.31095 0.91474 0.46614 0.0
H270 H 0.35333 0.80231 0.62401 0.0
H271 H 0.31419 0.9489 0.41306 0.0
Zn272 Zn 0.43552 0.27468 0.48599 0.0
C273 C 0.4708 0.37488 0.53275 0.0
N274 N 0.49555 0.386 0.50703 0.0
C275 C 0.48769 0.35318 0.49255 0.0
N276 N 0.45892 0.32348 0.50814 0.0
N277 N 0.44905 0.33654 0.53459 0.0
C278 C 0.36562 0.33011 0.55995 0.0
O279 O 0.37997 0.33416 0.52957 0.0
O280 O 0.47606 0.26351 0.47279 0.0
Zn281 Zn 0.41827 0.30524 0.57278 0.0
N282 N 0.41168 0.27624 0.44394 0.0
C283 C 0.37149 0.29282 0.41437 0.0
C284 C 0.38882 0.29147 0.4442 0.0
C285 C 0.41806 0.26224 0.4149 0.0
N286 N 0.37759 0.27868 0.38551 0.0
C287 C 0.40036 0.26313 0.38453 0.0
O288 O 0.39222 0.24868 0.56536 0.0
C289 C 0.38499 0.22304 0.54358 0.0
O290 O 0.39851 0.23073 0.51388 0.0
H291 H 0.38419 0.3025 0.46742 0.0
H292 H 0.43705 0.25106 0.41569 0.0
C293 C 0.43712 0.29317 0.64119 0.0
C294 C 0.4624 0.29789 0.66762 0.0
C295 C 0.51367 0.3419 0.63356 0.0
C296 C 0.48879 0.33623 0.60731 0.0
N297 N 0.45094 0.31308 0.6118 0.0
N298 N 0.49998 0.32268 0.66288 0.0
H299 H 0.40703 0.27371 0.64373 0.0
C300 C 0.48493 0.24506 0.49283 0.0
O301 O 0.46814 0.23476 0.52237 0.0
O302 O 0.37755 0.31793 0.58372 0.0
H303 H 0.49978 0.3497 0.58327 0.0
H304 H 0.35322 0.30492 0.41412 0.0
H305 H 0.54379 0.36077 0.63041 0.0
Zn306 Zn 0.11511 0.426 0.571 0.0
C307 C 0.13108 0.49389 0.49114 0.0
N308 N 0.10478 0.49907 0.50658 0.0
C309 C 0.09399 0.47467 0.53252 0.0
N310 N 0.11335 0.45576 0.53344 0.0
N311 N 0.13567 0.46709 0.50651 0.0
C312 C 0.24191 0.49302 0.49114 0.0
O313 O 0.23502 0.47389 0.51944 0.0
O314 O 0.06097 0.38861 0.58311 0.0
Zn315 Zn 0.16209 0.44515 0.48341 0.0
N316 N 0.14244 0.45932 0.60877 0.0
C317 C 0.17977 0.52237 0.6292 0.0
C318 C 0.15895 0.49726 0.60352 0.0
C319 C 0.14808 0.44548 0.63826 0.0
N320 N 0.18487 0.50868 0.65868 0.0
C321 C 0.17012 0.47089 0.66407 0.0
O322 O 0.16758 0.40622 0.50981 0.0
C323 C 0.1613 0.39143 0.53904 0.0
O324 O 0.14353 0.39851 0.56156 0.0
H325 H 0.15622 0.50806 0.57945 0.0
H326 H 0.13583 0.41521 0.64138 0.0
C327 C 0.1577 0.42568 0.41278 0.0
C328 C 0.13926 0.41155 0.38151 0.0
C329 C 0.08037 0.39345 0.40849 0.0
C330 C 0.09887 0.40777 0.43908 0.0
N331 N 0.13705 0.42359 0.44067 0.0
N332 N 0.10086 0.39572 0.38066 0.0
H333 H 0.18795 0.43795 0.41535 0.0
C334 C 0.04897 0.35344 0.58677 0.0
O335 O 0.07325 0.34127 0.58564 0.0
O336 O 0.21465 0.48599 0.47149 0.0
H337 H 0.083 0.40651 0.46141 0.0
H338 H 0.19244 0.55261 0.62552 0.0
H339 H 0.04995 0.38076 0.40678 0.0
Zn340 Zn 0.718 0.1713 0.48245 0.0
C341 C 0.62084 0.09793 0.5312 0.0
N342 N 0.6064 0.10803 0.50555 0.0
C343 C 0.63726 0.13543 0.49022 0.0
N344 N 0.66933 0.14159 0.50542 0.0
N345 N 0.6593 0.11872 0.53207 0.0
C346 C 0.67124 0.04318 0.55447 0.0
O347 O 0.66543 0.05302 0.52454 0.0
O348 O 0.72518 0.22045 0.46393 0.0
Zn349 Zn 0.69297 0.12053 0.56871 0.0
N350 N 0.72003 0.14445 0.44269 0.0
C351 C 0.7047 0.08703 0.41459 0.0
C352 C 0.70337 0.10612 0.44328 0.0
C353 C 0.7379 0.16459 0.41438 0.0
N354 N 0.72241 0.10704 0.38637 0.0
C355 C 0.73906 0.14551 0.38511 0.0
O356 O 0.74895 0.15469 0.56025 0.0
C357 C 0.77314 0.17784 0.53933 0.0
O358 O 0.76341 0.18488 0.51103 0.0
H359 H 0.68919 0.09062 0.46586 0.0
H360 H 0.75146 0.19513 0.41498 0.0
C361 C 0.70422 0.14816 0.63843 0.0
C362 C 0.69889 0.16723 0.66586 0.0
C363 C 0.65428 0.17459 0.63301 0.0
C364 C 0.66057 0.15692 0.6058 0.0
N365 N 0.68433 0.14288 0.60917 0.0
N366 N 0.67353 0.17937 0.66215 0.0
H367 H 0.72412 0.13805 0.64007 0.0
C368 C 0.73702 0.24959 0.48241 0.0
O369 O 0.74206 0.24686 0.51482 0.0
O370 O 0.68346 0.06741 0.57823 0.0
H371 H 0.64697 0.15498 0.58195 0.0
H372 H 0.69167 0.0565 0.41468 0.0
H373 H 0.6349 0.18528 0.63076 0.0
Zn374 Zn 0.57851 0.69454 0.56422 0.0
C375 C 0.50628 0.64127 0.48679 0.0
N376 N 0.50204 0.60999 0.5019 0.0
C377 C 0.52794 0.62397 0.52662 0.0
N378 N 0.54688 0.66239 0.52729 0.0
N379 N 0.53394 0.67298 0.50126 0.0
C380 C 0.50352 0.7496 0.48815 0.0
O381 O 0.52205 0.7606 0.51684 0.0
O382 O 0.61836 0.67973 0.57237 0.0
Zn383 Zn 0.55406 0.72158 0.47872 0.0
N384 N 0.54682 0.68658 0.60408 0.0
C385 C 0.48436 0.65761 0.62659 0.0
C386 C 0.50891 0.6635 0.59996 0.0
C387 C 0.561 0.7064 0.63345 0.0
N388 N 0.49839 0.67671 0.65588 0.0
C389 C 0.53602 0.70155 0.66024 0.0
O390 O 0.59165 0.76639 0.50573 0.0
C391 C 0.60807 0.77566 0.53424 0.0
O392 O 0.6038 0.75114 0.55626 0.0
H393 H 0.49758 0.65028 0.57591 0.0
H394 H 0.5911 0.72595 0.63566 0.0
C395 C 0.57091 0.73462 0.40727 0.0
C396 C 0.58878 0.73406 0.37684 0.0
C397 C 0.61805 0.70467 0.40643 0.0
C398 C 0.6006 0.7057 0.4363 0.0
N399 N 0.57744 0.7206 0.4362 0.0
N400 N 0.61182 0.71882 0.37769 0.0
H401 H 0.55175 0.7456 0.40823 0.0
C402 C 0.64992 0.69826 0.55708 0.0
O403 O 0.65632 0.72769 0.5387 0.0
O404 O 0.51179 0.73128 0.46727 0.0
H405 H 0.60539 0.69472 0.45948 0.0
H406 H 0.4542 0.63873 0.62373 0.0
H407 H 0.63656 0.69283 0.40607 0.0
C408 C 0.34133 0.97347 0.99852 0.0
C409 C 0.33843 0.00354 0.98486 0.0
C410 C 0.31097 0.93619 0.99682 0.0
C411 C 0.2763 0.929 0.98223 0.0
C412 C 0.27354 0.95921 0.96758 0.0
C413 C 0.30497 0.99618 0.96859 0.0
C414 C 0.31567 0.90471 1.01176 0.0
C415 C 0.23683 0.95287 0.95259 0.0
C416 C 0.20619 0.82514 0.96518 0.0
C417 C 0.18736 0.81391 0.99629 0.0
C418 C 0.23411 0.86307 0.9594 0.0
C419 C 0.24246 0.89039 0.98503 0.0
C420 C 0.22116 0.87957 1.01535 0.0
C421 C 0.19432 0.84133 0.02085 0.0
C422 C 0.25675 0.87315 0.92709 0.0
C423 C 0.22835 0.90796 0.04294 0.0
H424 H 0.36733 0.97918 1.01092 0.0
H425 H 0.30272 0.01959 0.9583 0.0
H426 H 0.29823 0.89377 0.03496 0.0
H427 H 0.30567 0.88076 0.99374 0.0
H428 H 0.34561 0.91439 1.01843 0.0
H429 H 0.24029 0.97846 0.93944 0.0
H430 H 0.2253 0.92891 0.93449 0.0
H431 H 0.21556 0.94521 0.97299 0.0
H432 H 0.20119 0.80383 0.94634 0.0
H433 H 0.17972 0.83262 0.0449 0.0
H434 H 0.28559 0.87826 0.93265 0.0
H435 H 0.25999 0.8996 0.9161 0.0
H436 H 0.24351 0.85019 0.90799 0.0
H437 H 0.25582 0.91634 0.05531 0.0
H438 H 0.20582 0.89627 0.06252 0.0
H439 H 0.23019 0.93396 0.03223 0.0
C440 C 0.35448 0.3399 0.96221 0.0
C441 C 0.3154 0.32657 0.96263 0.0
C442 C 0.36851 0.315 0.96663 0.0
C443 C 0.34286 0.27587 0.9717 0.0
C444 C 0.3034 0.26207 0.97077 0.0
C445 C 0.29016 0.28754 0.96616 0.0
C446 C 0.41081 0.33082 0.96722 0.0
C447 C 0.27512 0.22061 0.97622 0.0
C448 C 0.37781 0.2054 0.96434 0.0
C449 C 0.38525 0.20134 0.99822 0.0
C450 C 0.36412 0.22964 0.95523 0.0
C451 C 0.3572 0.24986 0.98063 0.0
C452 C 0.36387 0.24521 1.0149 0.0
C453 C 0.378 0.22122 0.02324 0.0
C454 C 0.35778 0.23417 0.9184 0.0
C455 C 0.35642 0.2659 0.0428 0.0
H456 H 0.37422 0.36998 0.95944 0.0
H457 H 0.25992 0.27692 0.96643 0.0
H458 H 0.41971 0.32766 0.99289 0.0
H459 H 0.4187 0.31475 0.94963 0.0
H460 H 0.42683 0.3613 0.9602 0.0
H461 H 0.24547 0.214 0.97237 0.0
H462 H 0.28097 0.20289 0.95877 0.0
H463 H 0.27785 0.21241 1.00232 0.0
H464 H 0.38374 0.19048 0.9448 0.0
H465 H 0.38358 0.2182 0.04946 0.0
H466 H 0.37605 0.26418 0.91072 0.0
H467 H 0.32799 0.22682 0.91423 0.0
H468 H 0.36411 0.21609 0.9018 0.0
H469 H 0.37435 0.29694 0.03915 0.0
H470 H 0.36231 0.25855 0.06821 0.0
H471 H 0.32645 0.259 0.04199 0.0
C472 C 0.00317 0.30852 0.96426 0.0
C473 C 0.99671 0.33498 0.98103 0.0
C474 C 0.0397 0.31317 0.96302 0.0
C475 C 0.07035 0.3456 0.978 0.0
C476 C 0.06411 0.37355 0.99301 0.0
C477 C 0.02722 0.36749 0.99491 0.0
C478 C 0.04505 0.28239 0.94751 0.0
C479 C 0.09616 0.4092 1.00829 0.0
C480 C 0.1564 0.34917 1.01718 0.0
C481 C 0.18441 0.37043 0.99328 0.0
C482 C 0.11835 0.3379 1.0111 0.0
C483 C 0.10836 0.34923 0.98085 0.0
C484 C 0.13616 0.36845 0.95563 0.0
C485 C 0.17387 0.37841 0.96201 0.0
C486 C 0.08937 0.31634 0.03819 0.0
C487 C 0.12692 0.38163 0.92328 0.0
H488 H 0.97937 0.28321 0.9538 0.0
H489 H 0.02213 0.38804 1.00766 0.0
H490 H 0.06949 0.29464 0.92991 0.0
H491 H 0.05137 0.26756 0.96773 0.0
H492 H 0.01945 0.26119 0.93367 0.0
H493 H 0.08728 0.42997 1.01531 0.0
H494 H 0.10664 0.40194 0.03131 0.0
H495 H 0.12021 0.42294 0.99032 0.0
H496 H 0.16451 0.34286 0.04131 0.0
H497 H 0.19556 0.39521 0.94359 0.0
H498 H 0.06328 0.2927 0.02698 0.0
H499 H 0.08138 0.33554 0.05094 0.0
H500 H 0.10035 0.30463 0.05757 0.0
H501 H 0.09996 0.35911 0.91233 0.0
H502 H 0.14974 0.39036 0.90415 0.0
H503 H 0.12328 0.40629 0.92878 0.0
C504 C 0.71453 -0.00035 0.96496 0.0
C505 C 0.67593 0.98747 0.96102 0.0
C506 C 0.7413 0.03816 0.96943 0.0
C507 C 0.72919 0.06514 0.96994 0.0
C508 C 0.6905 0.05322 0.96455 0.0
C509 C 0.66433 0.01454 0.96014 0.0
C510 C 0.78229 0.04975 0.97507 0.0
C511 C 0.67642 0.08111 0.96488 0.0
C512 C 0.78516 0.15493 0.02133 0.0
C513 C 0.80493 0.18208 0.99624 0.0
C514 C 0.761 0.11675 1.01309 0.0
C515 C 0.75638 0.10529 0.97886 0.0
C516 C 0.77705 0.13228 0.95344 0.0
C517 C 0.80117 0.17037 0.96243 0.0
C518 C 0.73969 0.08882 0.041 0.0
C519 C 0.77275 0.1212 0.91665 0.0
H520 H 0.7238 0.97899 0.96555 0.0
H521 H 0.63458 0.00543 0.95707 0.0
H522 H 0.80082 0.0731 0.95768 0.0
H523 H 0.79064 0.06053 1.0012 0.0
H524 H 0.78761 0.02584 0.97126 0.0
H525 H 0.64611 0.06775 0.95761 0.0
H526 H 0.67981 0.09329 0.99055 0.0
H527 H 0.69346 0.10493 0.94737 0.0
H528 H 0.78802 0.16362 0.04753 0.0
H529 H 0.81608 0.19116 0.94282 0.0
H530 H 0.7455 0.06503 0.04017 0.0
H531 H 0.70877 0.07661 0.0374 0.0
H532 H 0.74741 0.10207 0.06642 0.0
H533 H 0.77684 0.09653 0.91301 0.0
H534 H 0.79319 0.1448 0.90035 0.0
H535 H 0.74363 0.11256 0.90815 0.0
C536 C 0.64926 0.66863 0.9531 0.0
C537 C 0.68811 0.6812 0.95539 0.0
C538 C 0.6357 0.69398 0.95679 0.0
C539 C 0.66164 0.73287 0.9627 0.0
C540 C 0.70099 0.74602 0.96318 0.0
C541 C 0.71374 0.72002 0.95958 0.0
C542 C 0.59349 0.67877 0.95615 0.0
C543 C 0.72954 0.78726 0.96925 0.0
C544 C 0.62668 0.80335 0.95537 0.0
C545 C 0.61798 0.80638 0.98913 0.0
C546 C 0.64128 0.77983 0.94631 0.0
C547 C 0.6475 0.75906 0.97162 0.0
C548 C 0.63979 0.76286 1.0058 0.0
C549 C 0.62509 0.78637 1.01411 0.0
C550 C 0.64893 0.77636 0.90958 0.0
C551 C 0.64633 0.74145 0.0336 0.0
H552 H 0.62921 0.6387 0.94984 0.0
H553 H 0.74381 0.73003 0.96117 0.0
H554 H 0.5837 0.68126 0.98166 0.0
H555 H 0.58664 0.69567 0.93862 0.0
H556 H 0.57738 0.64854 0.94835 0.0
H557 H 0.75913 0.79351 0.96572 0.0
H558 H 0.72433 0.80552 0.95193 0.0
H559 H 0.72648 0.79508 0.99542 0.0
H560 H 0.621 0.81842 0.93583 0.0
H561 H 0.61857 0.78857 0.04025 0.0
H562 H 0.62888 0.74728 0.90057 0.0
H563 H 0.67796 0.78102 0.90631 0.0
H564 H 0.64578 0.79686 0.89344 0.0
H565 H 0.62831 0.71051 0.02938 0.0
H566 H 0.63983 0.74831 0.05899 0.0
H567 H 0.67623 0.74814 0.03332 0.0
C568 C 0.99498 0.71292 0.97744 0.0
C569 C 0.00722 0.68695 0.97099 0.0
C570 C 0.95629 0.70115 0.97947 0.0
C571 C 0.92908 0.66238 0.97514 0.0
C572 C 0.9412 0.6362 0.96735 0.0
C573 C 0.98015 0.64882 0.96525 0.0
C574 C 0.94461 0.72999 0.98771 0.0
C575 C 0.91309 0.59458 0.96269 0.0
C576 C 0.83479 0.62396 1.02042 0.0
C577 C 0.81044 0.62115 0.99416 0.0
C578 C 0.87342 0.63768 1.01456 0.0
C579 C 0.88825 0.64884 0.98157 0.0
C580 C 0.86411 0.64699 0.95506 0.0
C581 C 0.8255 0.63329 0.96168 0.0
C582 C 0.89823 0.63953 0.04362 0.0
C583 C 0.87887 0.65858 0.91955 0.0
H584 H 0.0157 0.74248 0.98171 0.0
H585 H 0.98936 0.62854 0.96039 0.0
H586 H 0.92319 0.72803 0.96937 0.0
H587 H 0.93133 0.72403 1.0131 0.0
H588 H 0.96901 0.75943 0.98752 0.0
H589 H 0.92688 0.57839 0.95439 0.0
H590 H 0.89813 0.58236 0.98685 0.0
H591 H 0.89137 0.59067 0.9438 0.0
H592 H 0.82352 0.61474 0.04561 0.0
H593 H 0.80691 0.63096 0.94116 0.0
H594 H 0.9223 0.66886 0.04656 0.0
H595 H 0.91034 0.62104 0.03836 0.0
H596 H 0.88248 0.63051 0.06788 0.0
H597 H 0.90301 0.6881 0.91935 0.0
H598 H 0.85675 0.6566 0.90198 0.0
H599 H 0.8896 0.64015 0.90997 0.0
C600 C 0.02001 0.66345 0.53446 0.0
C601 C 0.99194 0.66094 0.55643 0.0
C602 C 0.0575 0.69314 0.53702 0.0
C603 C 0.06678 0.72247 0.56076 0.0
C604 C 0.03848 0.72028 0.58296 0.0
C605 C 0.00145 0.68896 0.58104 0.0
C606 C 0.08705 0.69331 0.51387 0.0
C607 C 0.04692 0.75168 0.60768 0.0
C608 C 0.17208 0.78393 0.57737 0.0
C609 C 0.1827 0.81069 0.55142 0.0
C610 C 0.134 0.756 0.58205 0.0
C611 C 0.10587 0.75584 0.56101 0.0
C612 C 0.11631 0.78497 0.53673 0.0
C613 C 0.15478 0.81151 0.53162 0.0
C614 C 0.12449 0.72472 0.60724 0.0
C615 C 0.08711 0.78669 0.51465 0.0
H616 H 0.01268 0.64208 0.51516 0.0
H617 H 0.97958 0.68728 0.59771 0.0
H618 H 0.09671 0.71685 0.49546 0.0
H619 H 0.11216 0.69801 0.5286 0.0
H620 H 0.07606 0.66634 0.49962 0.0
H621 H 0.0223 0.74495 0.62417 0.0
H622 H 0.0714 0.75736 0.62381 0.0
H623 H 0.05482 0.77816 0.59363 0.0
H624 H 0.19388 0.78294 0.59223 0.0
H625 H 0.16315 0.83215 0.51146 0.0
H626 H 0.11774 0.69836 0.59347 0.0
H627 H 0.09917 0.71869 0.62231 0.0
H628 H 0.14838 0.73174 0.62474 0.0
H629 H 0.07716 0.76416 0.49517 0.0
H630 H 0.09876 0.81445 0.50164 0.0
H631 H 0.06213 0.78166 0.52982 0.0
C632 C 0.36722 0.02771 0.55504 0.0
C633 C 0.33513 0.99709 0.56935 0.0
C634 C 0.37292 0.06449 0.55692 0.0
C635 C 0.34497 0.07045 0.57229 0.0
C636 C 0.31311 0.03973 0.5879 0.0
C637 C 0.30885 0.00334 0.58667 0.0
C638 C 0.408 0.09662 0.54096 0.0
C639 C 0.28231 0.04475 0.60381 0.0
C640 C 0.37576 0.17398 0.58583 0.0
C641 C 0.3666 0.18312 0.55443 0.0
C642 C 0.36689 0.13672 0.59308 0.0
C643 C 0.34761 0.10798 0.56864 0.0
C644 C 0.33517 0.11657 0.53828 0.0
C645 C 0.34537 0.15418 0.5313 0.0
C646 C 0.38122 0.12897 0.6255 0.0
C647 C 0.31351 0.08655 0.51199 0.0
H648 H 0.38755 0.02277 0.54176 0.0
H649 H 0.28382 0.97943 0.59741 0.0
H650 H 0.40009 0.10612 0.51768 0.0
H651 H 0.42153 0.12121 0.55836 0.0
H652 H 0.42914 0.08816 0.53414 0.0
H653 H 0.26214 0.0195 0.61868 0.0
H654 H 0.29457 0.06994 0.62053 0.0
H655 H 0.26629 0.04955 0.58369 0.0
H656 H 0.39256 0.19643 0.60363 0.0
H657 H 0.33818 0.16126 0.50707 0.0
H658 H 0.40597 0.12554 0.61984 0.0
H659 H 0.35927 0.10228 0.63733 0.0
H660 H 0.39016 0.15245 0.64397 0.0
H661 H 0.33286 0.07871 0.49932 0.0
H662 H 0.30101 0.09649 0.49243 0.0
H663 H 0.29047 0.06059 0.52394 0.0
C664 C 0.3372 0.37068 0.5519 0.0
C665 C 0.33451 0.33775 0.56534 0.0
C666 C 0.30623 0.37655 0.55289 0.0
C667 C 0.27133 0.34798 0.56644 0.0
C668 C 0.26886 0.31511 0.58101 0.0
C669 C 0.30082 0.31065 0.58075 0.0
C670 C 0.31049 0.41264 0.53813 0.0
C671 C 0.23195 0.28366 0.59489 0.0
C672 C 0.19923 0.37909 0.5808 0.0
C673 C 0.18209 0.37207 0.5489 0.0
C674 C 0.22706 0.36947 0.58776 0.0
C675 C 0.23704 0.35149 0.56251 0.0
C676 C 0.21715 0.34114 0.53146 0.0
C677 C 0.19032 0.35214 0.52481 0.0
C678 C 0.24804 0.38167 0.62092 0.0
C679 C 0.22609 0.32083 0.5043 0.0
H680 H 0.36345 0.39164 0.54014 0.0
H681 H 0.29883 0.28499 0.59079 0.0
H682 H 0.29394 0.40613 0.51442 0.0
H683 H 0.29917 0.42562 0.55585 0.0
H684 H 0.3405 0.43376 0.5324 0.0
H685 H 0.23576 0.26213 0.60874 0.0
H686 H 0.21869 0.29515 0.61208 0.0
H687 H 0.21191 0.2694 0.57376 0.0
H688 H 0.19319 0.39489 0.59938 0.0
H689 H 0.17695 0.3466 0.5002 0.0
H690 H 0.27684 0.40615 0.61647 0.0
H691 H 0.25146 0.35862 0.63199 0.0
H692 H 0.23339 0.39029 0.63954 0.0
H693 H 0.2539 0.34067 0.49273 0.0
H694 H 0.20436 0.30976 0.48403 0.0
H695 H 0.22814 0.29689 0.51522 0.0
C696 C 0.84152 0.21867 0.52464 0.0
C697 C 0.8135 0.1999 0.54926 0.0
C698 C 0.87952 0.24238 0.53367 0.0
C699 C 0.88974 0.24791 0.56823 0.0
C700 C 0.86172 0.22863 0.59324 0.0
C701 C 0.82394 0.2046 0.58345 0.0
C702 C 0.90864 0.26206 0.5062 0.0
C703 C 0.87146 0.23419 0.63034 0.0
C704 C 0.99428 0.28704 0.58533 0.0
C705 C 0.00771 0.3261 0.58697 0.0
C706 C 0.95563 0.26104 0.58069 0.0
C707 C 0.92977 0.27441 0.57786 0.0
C708 C 0.94286 0.31362 0.58134 0.0
C709 C 0.98169 0.33901 0.58578 0.0
C710 C 0.94279 0.21947 0.57697 0.0
C711 C 0.91613 0.329 0.57877 0.0
H712 H 0.83369 0.21508 0.49818 0.0
H713 H 0.80237 0.1905 0.60265 0.0
H714 H 0.92152 0.2932 0.50868 0.0
H715 H 0.93178 0.25545 0.50877 0.0
H716 H 0.89627 0.2536 0.48052 0.0
H717 H 0.84653 0.21634 0.64654 0.0
H718 H 0.89394 0.22729 0.63589 0.0
H719 H 0.88275 0.26433 0.63723 0.0
H720 H 0.01414 0.27678 0.58631 0.0
H721 H 0.99177 0.36914 0.58719 0.0
H722 H 0.93307 0.21031 0.55071 0.0
H723 H 0.91845 0.20222 0.5939 0.0
H724 H 0.96577 0.21328 0.58274 0.0
H725 H 0.90498 0.32514 0.55265 0.0
H726 H 0.93017 0.35962 0.58516 0.0
H727 H 0.89153 0.31315 0.59583 0.0
C728 C 0.64641 0.844 0.51926 0.0
C729 C 0.62711 0.81606 0.54374 0.0
C730 C 0.65783 0.88204 0.52577 0.0
C731 C 0.64852 0.89211 0.55709 0.0
C732 C 0.63093 0.86431 0.58261 0.0
C733 C 0.62088 0.8266 0.57576 0.0
C734 C 0.67761 0.91099 0.49823 0.0
C735 C 0.61972 0.87356 0.61605 0.0
C736 C 0.69093 0.99757 0.57452 0.0
C737 C 0.66371 0.00427 0.5597 0.0
C738 C 0.68604 0.96088 0.57487 0.0
C739 C 0.65263 0.9303 0.56105 0.0
C740 C 0.62404 0.93681 0.54811 0.0
C741 C 0.63033 0.97384 0.54695 0.0
C742 C 0.71754 0.95528 0.5881 0.0
C743 C 0.58739 0.90491 0.53417 0.0
H744 H 0.65132 0.83584 0.49454 0.0
H745 H 0.60553 0.80492 0.59461 0.0
H746 H 0.65771 0.9191 0.48721 0.0
H747 H 0.70203 0.93704 0.50866 0.0
H748 H 0.68789 0.89993 0.47764 0.0
H749 H 0.61153 0.85048 0.63481 0.0
H750 H 0.64314 0.90021 0.62664 0.0
H751 H 0.59523 0.87789 0.61219 0.0
H752 H 0.71692 0.02129 0.58407 0.0
H753 H 0.60924 0.97907 0.53564 0.0
H754 H 0.73094 0.94878 0.56671 0.0
H755 H 0.70625 0.93085 0.60568 0.0
H756 H 0.7397 0.98084 0.60132 0.0
H757 H 0.59303 0.89456 0.5102 0.0
H758 H 0.5663 0.91393 0.52913 0.0
H759 H 0.57478 0.88073 0.55207 0.0
C760 C 0.78291 0.61627 0.50721 0.0
C761 C 0.80521 0.61495 0.53356 0.0
C762 C 0.75839 0.63056 0.51243 0.0
C763 C 0.75631 0.64434 0.54471 0.0
C764 C 0.77962 0.64429 0.57114 0.0
C765 C 0.80375 0.62958 0.56527 0.0
C766 C 0.73406 0.63014 0.48354 0.0
C767 C 0.77844 0.65901 0.60582 0.0
C768 C 0.7153 0.70983 0.54711 0.0
C769 C 0.67778 0.68511 0.55706 0.0
C770 C 0.74146 0.69722 0.54407 0.0
C771 C 0.72969 0.65877 0.55063 0.0
C772 C 0.69199 0.63378 0.5613 0.0
C773 C 0.66656 0.64734 0.56465 0.0
C774 C 0.78143 0.72484 0.53294 0.0
C775 C 0.67816 0.59245 0.56808 0.0
H776 H 0.78405 0.60546 0.48253 0.0
H777 H 0.82071 0.62863 0.58587 0.0
H778 H 0.70369 0.61259 0.49033 0.0
H779 H 0.73965 0.65925 0.47854 0.0
H780 H 0.73922 0.6187 0.45993 0.0
H781 H 0.7993 0.65827 0.62332 0.0
H782 H 0.78426 0.6886 0.60406 0.0
H783 H 0.74971 0.64175 0.6168 0.0
H784 H 0.72419 0.7391 0.54133 0.0
H785 H 0.6375 0.628 0.57204 0.0
H786 H 0.78695 0.71618 0.508 0.0
H787 H 0.80204 0.7246 0.55104 0.0
H788 H 0.78673 0.75426 0.53087 0.0
H789 H 0.67997 0.57857 0.54462 0.0
H790 H 0.6484 0.57704 0.57722 0.0
H791 H 0.69646 0.58962 0.58716 0.0
C792 C 0.39583 0.2588 0.32118 0.0
C793 C 0.40534 0.24779 0.3516 0.0
C794 C 0.39787 0.24353 0.28992 0.0
C795 C 0.40998 0.21657 0.28862 0.0
C796 C 0.42051 0.20589 0.31896 0.0
C797 C 0.41782 0.22131 0.35 0.0
C798 C 0.38615 0.25564 0.2583 0.0
C799 C 0.43375 0.17735 0.31875 0.0
C800 C 0.3761 0.14712 0.21484 0.0
C801 C 0.40758 0.16303 0.19313 0.0
C802 C 0.37658 0.16422 0.24581 0.0
C803 C 0.40951 0.19803 0.25579 0.0
C804 C 0.44155 0.2142 0.23418 0.0
C805 C 0.4402 0.1966 0.20315 0.0
C806 C 0.34162 0.14613 0.2678 0.0
C807 C 0.47738 0.24996 0.24397 0.0
H808 H 0.38632 0.27927 0.32171 0.0
H809 H 0.42456 0.21159 0.37293 0.0
H810 H 0.40931 0.26651 0.23938 0.0
H811 H 0.36121 0.23085 0.24687 0.0
H812 H 0.37878 0.27796 0.26333 0.0
H813 H 0.44386 0.17429 0.34394 0.0
H814 H 0.41017 0.14929 0.31081 0.0
H815 H 0.45703 0.18579 0.30022 0.0
H816 H 0.35072 0.12128 0.20745 0.0
H817 H 0.46508 0.2088 0.18714 0.0
H818 H 0.3314 0.16638 0.27209 0.0
H819 H 0.34852 0.13906 0.29285 0.0
H820 H 0.31828 0.11987 0.25645 0.0
H821 H 0.4713 0.27329 0.24809 0.0
H822 H 0.49984 0.25901 0.22445 0.0
H823 H 0.48835 0.24553 0.26812 0.0
C824 C 0.19881 0.43801 0.3452 0.0
C825 C 0.15974 0.41288 0.34955 0.0
C826 C 0.21734 0.43899 0.31484 0.0
C827 C 0.19643 0.41471 0.28781 0.0
C828 C 0.15706 0.38972 0.29179 0.0
C829 C 0.13934 0.38904 0.32245 0.0
C830 C 0.2594 0.46601 0.31171 0.0
C831 C 0.13356 0.36348 0.26363 0.0
C832 C 0.23613 0.43761 0.19802 0.0
C833 C 0.24973 0.41229 0.19355 0.0
C834 C 0.21897 0.43887 0.22852 0.0
C835 C 0.21568 0.41469 0.25558 0.0
C836 C 0.22986 0.38961 0.25153 0.0
C837 C 0.24651 0.38865 0.22072 0.0
C838 C 0.20415 0.46601 0.23172 0.0
C839 C 0.22721 0.36348 0.27972 0.0
H840 H 0.21511 0.45746 0.36518 0.0
H841 H 0.10925 0.36946 0.32515 0.0
H842 H 0.27414 0.44998 0.30626 0.0
H843 H 0.26518 0.48565 0.29026 0.0
H844 H 0.27172 0.483 0.33498 0.0
H845 H 0.10307 0.34645 0.27034 0.0
H846 H 0.13638 0.38009 0.24054 0.0
H847 H 0.14402 0.34383 0.25733 0.0
H848 H 0.23919 0.45696 0.178 0.0
H849 H 0.25682 0.36896 0.21792 0.0
H850 H 0.21805 0.48553 0.25325 0.0
H851 H 0.17331 0.45004 0.23708 0.0
H852 H 0.20901 0.48311 0.2085 0.0
H853 H 0.241 0.38014 0.30279 0.0
H854 H 0.24072 0.34654 0.27303 0.0
H855 H 0.19706 0.34374 0.28604 0.0
C856 C 0.86485 0.26125 0.22402 0.0
C857 C 0.84304 0.25091 0.19436 0.0
C858 C 0.84841 0.24629 0.25567 0.0
C859 C 0.80907 0.22017 0.25796 0.0
C860 C 0.78669 0.2101 0.22832 0.0
C861 C 0.80388 0.22532 0.19697 0.0
C862 C 0.87337 0.25778 0.28657 0.0
C863 C 0.74463 0.18239 0.22956 0.0
C864 C 0.77284 0.14974 0.33095 0.0
C865 C 0.75793 0.1658 0.35317 0.0
C866 C 0.78977 0.16729 0.30019 0.0
C867 C 0.79169 0.20175 0.291 0.0
C868 C 0.77667 0.21819 0.3132 0.0
C869 C 0.76008 0.20012 0.34398 0.0
C870 C 0.8055 0.14878 0.27743 0.0
C871 C 0.77788 0.25475 0.30432 0.0
H872 H 0.89504 0.28097 0.22253 0.0
H873 H 0.78655 0.21603 0.17446 0.0
H874 H 0.86224 0.26905 0.30619 0.0
H875 H 0.87316 0.23262 0.29745 0.0
H876 H 0.90312 0.27961 0.28085 0.0
H877 H 0.73072 0.17952 0.20478 0.0
H878 H 0.73955 0.1541 0.23735 0.0
H879 H 0.73093 0.19153 0.24864 0.0
H880 H 0.77148 0.12334 0.33769 0.0
H881 H 0.748 0.21255 0.36038 0.0
H882 H 0.836 0.16861 0.27257 0.0
H883 H 0.79083 0.142 0.25268 0.0
H884 H 0.80228 0.12227 0.28841 0.0
H885 H 0.80775 0.27804 0.30272 0.0
H886 H 0.76288 0.26262 0.3232 0.0
H887 H 0.76486 0.25234 0.27921 0.0
C888 C 0.57098 0.77568 0.34247 0.0
C889 C 0.58385 0.74952 0.344 0.0
C890 C 0.56865 0.79144 0.31151 0.0
C891 C 0.57996 0.78141 0.28121 0.0
C892 C 0.59234 0.75467 0.28242 0.0
C893 C 0.59399 0.73905 0.31358 0.0
C894 C 0.55506 0.8197 0.31137 0.0
C895 C 0.60491 0.74328 0.25085 0.0
C896 C 0.55204 0.8028 0.1953 0.0
C897 C 0.58485 0.83666 0.18616 0.0
C898 C 0.54983 0.78469 0.22624 0.0
C899 C 0.58119 0.80059 0.24858 0.0
C900 C 0.61431 0.83469 0.23945 0.0
C901 C 0.61562 0.85232 0.2086 0.0
C902 C 0.51382 0.74865 0.23514 0.0
C903 C 0.6486 0.85248 0.2622 0.0
H904 H 0.5637 0.78495 0.36541 0.0
H905 H 0.60378 0.7188 0.31404 0.0
H906 H 0.57872 0.84804 0.30417 0.0
H907 H 0.53234 0.81154 0.29234 0.0
H908 H 0.54411 0.82201 0.33641 0.0
H909 H 0.61224 0.72091 0.25575 0.0
H910 H 0.58225 0.73276 0.2315 0.0
H911 H 0.6301 0.76834 0.24003 0.0
H912 H 0.52772 0.79078 0.17866 0.0
H913 H 0.64114 0.87837 0.20184 0.0
H914 H 0.50223 0.75244 0.25924 0.0
H915 H 0.51988 0.72528 0.23898 0.0
H916 H 0.49183 0.74005 0.21526 0.0
H917 H 0.64089 0.85894 0.28719 0.0
H918 H 0.67217 0.87906 0.25149 0.0
H919 H 0.65889 0.8323 0.2665 0.0
C920 C 0.76024 0.55399 0.18858 0.0
C921 C 0.73506 0.56807 0.18752 0.0
C922 C 0.77536 0.55029 0.21939 0.0
C923 C 0.76563 0.56137 0.24998 0.0
C924 C 0.73938 0.57437 0.24926 0.0
C925 C 0.72441 0.5774 0.21825 0.0
C926 C 0.80304 0.53599 0.219 0.0
C927 C 0.72831 0.58673 0.28116 0.0
C928 C 0.78962 0.53494 0.33553 0.0
C929 C 0.82377 0.56794 0.34358 0.0
C930 C 0.77048 0.53212 0.30505 0.0
C931 C 0.78564 0.56306 0.28219 0.0
C932 C 0.81991 0.59643 0.29037 0.0
C933 C 0.83853 0.59834 0.32072 0.0
C934 C 0.73425 0.49591 0.29713 0.0
C935 C 0.83695 0.63033 0.26709 0.0
H936 H 0.76947 0.54711 0.16539 0.0
H937 H 0.70477 0.58795 0.21814 0.0
H938 H 0.83181 0.5596 0.22511 0.0
H939 H 0.79535 0.5138 0.2385 0.0
H940 H 0.80412 0.52415 0.19403 0.0
H941 H 0.70541 0.5934 0.27677 0.0
H942 H 0.71871 0.56428 0.30067 0.0
H943 H 0.75332 0.61234 0.29148 0.0
H944 H 0.77826 0.51097 0.35259 0.0
H945 H 0.86476 0.62403 0.32668 0.0
H946 H 0.73744 0.48377 0.27311 0.0
H947 H 0.71079 0.50187 0.29356 0.0
H948 H 0.72619 0.47438 0.31739 0.0
H949 H 0.84283 0.62222 0.24204 0.0
H950 H 0.86372 0.65419 0.27715 0.0
H951 H 0.81655 0.64041 0.26311 0.0
C952 C 0.13796 0.74135 0.22581 0.0
C953 C 0.15898 0.75047 0.19566 0.0
C954 C 0.15518 0.75733 0.25691 0.0
C955 C 0.19464 0.78306 0.25829 0.0
C956 C 0.21632 0.79178 0.22826 0.0
C957 C 0.1983 0.77572 0.19736 0.0
C958 C 0.13088 0.74738 0.28822 0.0
C959 C 0.25852 0.81893 0.22859 0.0
C960 C 0.23209 0.85539 0.32973 0.0
C961 C 0.246 0.83914 0.35273 0.0
C962 C 0.21534 0.83743 0.29908 0.0
C963 C 0.21275 0.80243 0.29079 0.0
C964 C 0.227 0.78595 0.31371 0.0
C965 C 0.24333 0.80439 0.3444 0.0
C966 C 0.20017 0.85587 0.27564 0.0
C967 C 0.22527 0.74895 0.30566 0.0
H968 H 0.10768 0.72186 0.22516 0.0
H969 H 0.21517 0.78406 0.17458 0.0
H970 H 0.142 0.73642 0.30809 0.0
H971 H 0.13189 0.7732 0.29843 0.0
H972 H 0.10086 0.7258 0.28322 0.0
H973 H 0.27188 0.82033 0.20378 0.0
H974 H 0.26426 0.84776 0.23522 0.0
H975 H 0.27225 0.81037 0.2481 0.0
H976 H 0.2339 0.88214 0.33587 0.0
H977 H 0.25473 0.79191 0.3615 0.0
H978 H 0.16949 0.83646 0.27123 0.0
H979 H 0.21453 0.86144 0.25078 0.0
H980 H 0.20422 0.88303 0.28582 0.0
H981 H 0.19544 0.72635 0.30176 0.0
H982 H 0.23771 0.73989 0.32602 0.0
H983 H 0.24071 0.75169 0.28181 0.0
C984 C 0.57558 0.76239 0.69286 0.0
C985 C 0.54814 0.72368 0.69232 0.0
C986 C 0.58117 0.78456 0.722 0.0
C987 C 0.55873 0.76769 0.75118 0.0
C988 C 0.53295 0.72816 0.75137 0.0
C989 C 0.52797 0.70679 0.72206 0.0
C990 C 0.6094 0.82644 0.72081 0.0
C991 C 0.50862 0.70871 0.78185 0.0
C992 C 0.57302 0.81327 0.83834 0.0
C993 C 0.54493 0.82359 0.83831 0.0
C994 C 0.5799 0.79742 0.80937 0.0
C995 C 0.55799 0.79141 0.77979 0.0
C996 C 0.53138 0.80402 0.77908 0.0
C997 C 0.52527 0.81987 0.80818 0.0
C998 C 0.6089 0.7849 0.8113 0.0
C999 C 0.50739 0.79845 0.74823 0.0
H1000 H 0.59107 0.77591 0.66999 0.0
H1001 H 0.50696 0.67686 0.72201 0.0
H1002 H 0.59409 0.84239 0.71848 0.0
H1003 H 0.62616 0.83578 0.74448 0.0
H1004 H 0.62908 0.83397 0.69905 0.0
H1005 H 0.49241 0.6774 0.77904 0.0
H1006 H 0.52638 0.71589 0.80485 0.0
H1007 H 0.48822 0.71882 0.78578 0.0
H1008 H 0.58819 0.81551 0.86145 0.0
H1009 H 0.5038 0.8281 0.80769 0.0
H1010 H 0.62378 0.78913 0.78685 0.0
H1011 H 0.59443 0.75425 0.81745 0.0
H1012 H 0.63021 0.8005 0.83128 0.0
H1013 H 0.52546 0.80945 0.72541 0.0
H1014 H 0.49049 0.81281 0.75064 0.0
H1015 H 0.48763 0.76773 0.74426 0.0
C1016 C 0.73235 0.56713 0.82471 0.0
C1017 C 0.7272 0.53807 0.84684 0.0
C1018 C 0.75062 0.57194 0.79327 0.0
C1019 C 0.76454 0.54752 0.78407 0.0
C1020 C 0.76145 0.5198 0.80741 0.0
C1021 C 0.74252 0.51519 0.83819 0.0
C1022 C 0.75293 0.60159 0.76912 0.0
C1023 C 0.77638 0.49353 0.79916 0.0
C1024 C 0.7658 0.51651 0.6939 0.0
C1025 C 0.8045 0.53635 0.68597 0.0
C1026 C 0.75229 0.52201 0.72476 0.0
C1027 C 0.77817 0.5474 0.7489 0.0
C1028 C 0.81719 0.56892 0.74042 0.0
C1029 C 0.8299 0.56335 0.70889 0.0
C1030 C 0.7104 0.49892 0.73222 0.0
C1031 C 0.84582 0.596 0.76543 0.0
H1032 H 0.72029 0.5847 0.83111 0.0
H1033 H 0.7389 0.49288 0.85532 0.0
H1034 H 0.78172 0.61791 0.75806 0.0
H1035 H 0.73284 0.58749 0.74799 0.0
H1036 H 0.74576 0.6216 0.78156 0.0
H1037 H 0.77563 0.47653 0.82136 0.0
H1038 H 0.75903 0.47378 0.77877 0.0
H1039 H 0.80595 0.50992 0.78983 0.0
H1040 H 0.74603 0.49577 0.67616 0.0
H1041 H 0.85988 0.57849 0.70301 0.0
H1042 H 0.69986 0.51737 0.74214 0.0
H1043 H 0.7053 0.47755 0.75193 0.0
H1044 H 0.69363 0.48387 0.7095 0.0
H1045 H 0.83585 0.61419 0.77705 0.0
H1046 H 0.8739 0.61439 0.75356 0.0
H1047 H 0.84934 0.57965 0.78607 0.0
C1048 C 0.22649 0.74671 0.84586 0.0
C1049 C 0.18788 0.72849 0.85405 0.0
C1050 C 0.24004 0.76549 0.81493 0.0
C1051 C 0.21428 0.76556 0.79105 0.0
C1052 C 0.17542 0.74886 0.79983 0.0
C1053 C 0.16267 0.7307 0.8314 0.0
C1054 C 0.28176 0.78336 0.80709 0.0
C1055 C 0.14696 0.7481 0.77513 0.0
C1056 C 0.26158 0.83016 0.71505 0.0
C1057 C 0.2655 0.80537 0.69307 0.0
C1058 C 0.24303 0.81731 0.74645 0.0
C1059 C 0.22771 0.77875 0.75578 0.0
C1060 C 0.2295 0.75329 0.73255 0.0
C1061 C 0.2486 0.76696 0.70176 0.0
C1062 C 0.24195 0.84545 0.77045 0.0
C1063 C 0.21315 0.71187 0.74098 0.0
H1064 H 0.24615 0.7454 0.86345 0.0
H1065 H 0.13276 0.71647 0.83752 0.0
H1066 H 0.286 0.76664 0.78725 0.0
H1067 H 0.29299 0.8125 0.7972 0.0
H1068 H 0.29856 0.78466 0.82962 0.0
H1069 H 0.11926 0.73937 0.78734 0.0
H1070 H 0.1577 0.77633 0.76334 0.0
H1071 H 0.14237 0.72774 0.75458 0.0
H1072 H 0.27478 0.85993 0.70858 0.0
H1073 H 0.2512 0.74758 0.6847 0.0
H1074 H 0.26218 0.85126 0.79139 0.0
H1075 H 0.21337 0.83375 0.78179 0.0
H1076 H 0.24972 0.87269 0.75777 0.0
H1077 H 0.23013 0.70888 0.76134 0.0
H1078 H 0.21305 0.69508 0.71885 0.0
H1079 H 0.18372 0.69962 0.75043 0.0
C1080 C 0.42395 0.18777 0.84681 0.0
C1081 C 0.45188 0.17727 0.84743 0.0
C1082 C 0.4175 0.20333 0.81742 0.0
C1083 C 0.43962 0.20872 0.78805 0.0
C1084 C 0.46597 0.19577 0.788 0.0
C1085 C 0.47174 0.18034 0.81754 0.0
C1086 C 0.38881 0.21628 0.81869 0.0
C1087 C 0.49009 0.20057 0.7574 0.0
C1088 C 0.42283 0.23726 0.70059 0.0
C1089 C 0.45051 0.27589 0.6998 0.0
C1090 C 0.41704 0.21528 0.7299 0.0
C1091 C 0.43947 0.23227 0.75903 0.0
C1092 C 0.46562 0.27172 0.75891 0.0
C1093 C 0.47085 0.29288 0.72941 0.0
C1094 C 0.38852 0.17347 0.72897 0.0
C1095 C 0.48994 0.2913 0.78933 0.0
H1096 H 0.40866 0.18601 0.86975 0.0
H1097 H 0.49312 0.17199 0.81761 0.0
H1098 H 0.40353 0.24705 0.82434 0.0
H1099 H 0.37409 0.21172 0.79413 0.0
H1100 H 0.36735 0.20123 0.83873 0.0
H1101 H 0.50651 0.18576 0.76026 0.0
H1102 H 0.47219 0.18959 0.7345 0.0
H1103 H 0.5103 0.23116 0.75323 0.0
H1104 H 0.40722 0.22365 0.67781 0.0
H1105 H 0.49206 0.32274 0.72917 0.0
H1106 H 0.37168 0.16445 0.75263 0.0
H1107 H 0.40359 0.15726 0.72689 0.0
H1108 H 0.36892 0.1659 0.70717 0.0
H1109 H 0.47209 0.28462 0.81227 0.0
H1110 H 0.50652 0.32257 0.78623 0.0
H1111 H 0.51 0.28085 0.79359 0.0
C1112 C 0.23789 0.42921 0.84335 0.0
C1113 C 0.27652 0.45671 0.84433 0.0
C1114 C 0.21633 0.42346 0.81382 0.0
C1115 C 0.23385 0.44563 0.78466 0.0
C1116 C 0.27339 0.47135 0.78495 0.0
C1117 C 0.29408 0.47669 0.81472 0.0
C1118 C 0.17435 0.3956 0.81464 0.0
C1119 C 0.2935 0.49536 0.75449 0.0
C1120 C 0.18912 0.43007 0.69714 0.0
C1121 C 0.17953 0.45865 0.69628 0.0
C1122 C 0.2047 0.42365 0.72648 0.0
C1123 C 0.21076 0.4463 0.75558 0.0
C1124 C 0.19879 0.47343 0.75537 0.0
C1125 C 0.18357 0.47935 0.72579 0.0
C1126 C 0.21692 0.39438 0.72551 0.0
C1127 C 0.2043 0.49807 0.78575 0.0
H1128 H 0.22394 0.41396 0.8662 0.0
H1129 H 0.32395 0.49783 0.81526 0.0
H1130 H 0.15871 0.41128 0.81626 0.0
H1131 H 0.1652 0.37851 0.79113 0.0
H1132 H 0.16624 0.37618 0.83665 0.0
H1133 H 0.32478 0.5109 0.75753 0.0
H1134 H 0.28613 0.47752 0.7315 0.0
H1135 H 0.28421 0.51637 0.75037 0.0
H1136 H 0.18661 0.41423 0.67437 0.0
H1137 H 0.176 0.5013 0.7254 0.0
H1138 H 0.20966 0.37813 0.74946 0.0
H1139 H 0.24812 0.40882 0.72242 0.0
H1140 H 0.20366 0.37428 0.70418 0.0
H1141 H 0.19307 0.48044 0.8088 0.0
H1142 H 0.19013 0.51508 0.78272 0.0
H1143 H 0.23501 0.51778 0.78977 0.0
C1144 C 0.80923 0.23565 0.84536 0.0
C1145 C 0.82048 0.27432 0.84628 0.0
C1146 C 0.79323 0.21389 0.81588 0.0
C1147 C 0.78823 0.23114 0.78673 0.0
C1148 C 0.80198 0.27064 0.78696 0.0
C1149 C 0.81774 0.29158 0.8166 0.0
C1150 C 0.77968 0.17205 0.81659 0.0
C1151 C 0.7979 0.29051 0.75646 0.0
C1152 C 0.75927 0.18688 0.69882 0.0
C1153 C 0.72085 0.17657 0.69807 0.0
C1154 C 0.78124 0.20229 0.72828 0.0
C1155 C 0.76452 0.20782 0.75758 0.0
C1156 C 0.72524 0.19513 0.75748 0.0
C1157 C 0.70405 0.17978 0.72789 0.0
C1158 C 0.82283 0.21489 0.72709 0.0
C1159 C 0.70593 0.20006 0.78802 0.0
H1160 H 0.81083 0.22183 0.86814 0.0
H1161 H 0.82672 0.3215 0.8169 0.0
H1162 H 0.74835 0.15593 0.81875 0.0
H1163 H 0.78738 0.16311 0.79283 0.0
H1164 H 0.79171 0.16434 0.83826 0.0
H1165 H 0.81279 0.32176 0.75971 0.0
H1166 H 0.80931 0.28387 0.73369 0.0
H1167 H 0.76745 0.28025 0.75182 0.0
H1168 H 0.77284 0.18502 0.67596 0.0
H1169 H 0.67433 0.17156 0.72776 0.0
H1170 H 0.83343 0.21203 0.75206 0.0
H1171 H 0.83902 0.24515 0.71959 0.0
H1172 H 0.82865 0.19829 0.70823 0.0
H1173 H 0.71245 0.18876 0.8109 0.0
H1174 H 0.67468 0.1856 0.78499 0.0
H1175 H 0.71672 0.23069 0.79232 0.0
C1176 C 0.71074 0.25523 0.10627 0.0
C1177 C 0.71825 0.22656 0.09652 0.0
C1178 C 0.6733 0.24763 0.10966 0.0
C1179 C 0.64311 0.21098 0.10187 0.0
C1180 C 0.65072 0.18142 0.09441 0.0
C1181 C 0.68824 0.18954 0.09237 0.0
C1182 C 0.66606 0.27904 0.12001 0.0
C1183 C 0.61949 0.1419 0.08546 0.0
C1184 C 0.53721 0.16347 0.10411 0.0
C1185 C 0.53051 0.16561 0.06984 0.0
C1186 C 0.57434 0.18363 0.11686 0.0
C1187 C 0.60482 0.20467 0.09429 0.0
C1188 C 0.59725 0.21036 0.0606 0.0
C1189 C 0.56011 0.19046 0.04881 0.0
C1190 C 0.58111 0.17883 0.15344 0.0
C1191 C 0.62861 0.2327 0.03549 0.0
H1192 H 0.73406 0.28374 0.11039 0.0
H1193 H 0.69401 0.16729 0.08515 0.0
H1194 H 0.65559 0.28815 0.09818 0.0
H1195 H 0.64375 0.26879 0.13973 0.0
H1196 H 0.69207 0.30411 0.12979 0.0
H1197 H 0.63028 0.12207 0.0812 0.0
H1198 H 0.5981 0.13026 0.10591 0.0
H1199 H 0.60492 0.1428 0.06213 0.0
H1200 H 0.51415 0.14394 0.12024 0.0
H1201 H 0.55467 0.19138 0.0221 0.0
H1202 H 0.60754 0.20354 0.16294 0.0
H1203 H 0.58366 0.15316 0.15632 0.0
H1204 H 0.55694 0.17494 0.16929 0.0
H1205 H 0.6492 0.26082 0.04587 0.0
H1206 H 0.61763 0.23705 1.01127 0.0
H1207 H 0.64409 0.21737 0.03013 0.0
C1208 C 0.43698 0.71104 0.08152 0.0
C1209 C 0.46159 0.71778 0.05429 0.0
C1210 C 0.41016 0.67388 0.09105 0.0
C1211 C 0.40863 0.64314 0.07316 0.0
C1212 C 0.43343 0.65005 0.04548 0.0
C1213 C 0.45924 0.68729 0.03623 0.0
C1214 C 0.38328 0.66776 0.11969 0.0
C1215 C 0.43311 0.61818 0.0256 0.0
C1216 C 0.38088 0.54489 0.09596 0.0
C1217 C 0.35389 0.52633 0.07068 0.0
C1218 C 0.39504 0.58352 0.10217 0.0
C1219 C 0.38165 0.60331 0.08246 0.0
C1220 C 0.34915 0.58285 0.06217 0.0
C1221 C 0.3364 0.54464 0.05558 0.0
C1222 C 0.42888 0.60422 0.12505 0.0
C1223 C 0.33259 0.60271 0.04242 0.0
H1224 H 0.43854 0.73479 0.09524 0.0
H1225 H 0.47841 0.69253 1.0153 0.0
H1226 H 0.37818 0.64324 0.13556 0.0
H1227 H 0.39398 0.69328 0.13596 0.0
H1228 H 0.35562 0.66156 0.10909 0.0
H1229 H 0.45529 0.62869 1.0057 0.0
H1230 H 0.43778 0.59937 0.04269 0.0
H1231 H 0.40521 0.60079 1.01325 0.0
H1232 H 0.39455 0.53072 0.10744 0.0
H1233 H 0.31662 0.53093 0.03504 0.0
H1234 H 0.42865 0.62825 0.13794 0.0
H1235 H 0.45514 0.61585 0.10969 0.0
H1236 H 0.42975 0.58493 0.14435 0.0
H1237 H 0.33083 0.6241 0.0584 0.0
H1238 H 0.30391 0.58242 0.03265 0.0
H1239 H 0.35119 0.61769 0.02058 0.0
C1240 C 0.84176 0.38962 0.09252 0.0
C1241 C 0.83177 0.35948 0.07018 0.0
C1242 C 0.818 0.40489 0.09675 0.0
C1243 C 0.78358 0.389 0.07855 0.0
C1244 C 0.77033 0.35422 0.06153 0.0
C1245 C 0.79527 0.3406 0.05635 0.0
C1246 C 0.83238 0.44129 0.11629 0.0
C1247 C 0.73223 0.33469 0.04441 0.0
C1248 C 0.73002 0.44277 0.07886 0.0
C1249 C 0.74271 0.46328 0.04864 0.0
C1250 C 0.74189 0.41741 0.08875 0.0
C1251 C 0.76844 0.4138 0.06853 0.0
C1252 C 0.78187 0.43498 0.03817 0.0
C1253 C 0.76831 0.45893 0.02836 0.0
C1254 C 0.72503 0.39419 0.1203 0.0
C1255 C 0.81108 0.43289 1.01613 0.0
H1256 H 0.8701 0.40433 0.10304 0.0
H1257 H 0.78779 0.31817 0.03805 0.0
H1258 H 0.84304 0.46538 0.09832 0.0
H1259 H 0.80922 0.44095 0.13124 0.0
H1260 H 0.85585 0.44626 0.13358 0.0
H1261 H 0.72258 0.30438 0.03941 0.0
H1262 H 0.71081 0.33662 0.06023 0.0
H1263 H 0.73414 0.34878 1.01994 0.0
H1264 H 0.7105 0.4463 0.09472 0.0
H1265 H 0.77863 0.47503 1.00517 0.0
H1266 H 0.72048 0.41106 0.13982 0.0
H1267 H 0.74271 0.38327 0.13119 0.0
H1268 H 0.69689 0.36961 0.11396 0.0
H1269 H 0.83635 0.4389 0.03129 0.0
H1270 H 0.82046 0.45329 0.99479 0.0
H1271 H 0.79913 0.40395 1.00555 0.0
C1272 C 0.44397 0.8028 0.04849 0.0
C1273 C 0.47014 0.83585 0.06528 0.0
C1274 C 0.40641 0.78205 0.05954 0.0
C1275 C 0.39511 0.79534 0.08769 0.0
C1276 C 0.42297 0.82454 0.10805 0.0
C1277 C 0.4603 0.84537 0.09605 0.0
C1278 C 0.37798 0.7494 0.03832 0.0
C1279 C 0.41236 0.83682 0.14013 0.0
C1280 C 0.30982 0.80609 0.07149 0.0
C1281 C 0.28025 0.77217 0.08424 0.0
C1282 C 0.34725 0.81387 0.07289 0.0
C1283 C 0.35556 0.78776 0.08898 0.0
C1284 C 0.32582 0.75407 0.10327 0.0
C1285 C 0.28831 0.7463 0.10007 0.0
C1286 C 0.37757 0.84942 0.05578 0.0
C1287 C 0.33271 0.72552 0.12127 0.0
H1288 H 0.45167 0.79578 0.02446 0.0
H1289 H 0.48069 0.87096 0.10903 0.0
H1290 H 0.36045 0.72448 0.05455 0.0
H1291 H 0.35875 0.75739 0.02564 0.0
H1292 H 0.39187 0.741 1.01873 0.0
H1293 H 0.43703 0.8513 0.15739 0.0
H1294 H 0.40248 0.85698 0.13403 0.0
H1295 H 0.389 0.81212 0.15333 0.0
H1296 H 0.30349 0.82589 0.05893 0.0
H1297 H 0.26534 0.72001 0.11006 0.0
H1298 H 0.39397 0.84237 0.03777 0.0
H1299 H 0.39763 0.86916 0.07484 0.0
H1300 H 0.36562 0.86458 0.04171 0.0
H1301 H 0.36304 0.73625 0.12682 0.0
H1302 H 0.3217 0.6996 0.10555 0.0
H1303 H 0.31661 0.71695 0.14537 0.0
C1304 C 0.58437 0.30208 0.06086 0.0
C1305 C 0.54879 0.28011 0.07574 0.0
C1306 C 0.60521 0.34123 0.06647 0.0
C1307 C 0.58918 0.35859 0.08631 0.0
C1308 C 0.55598 0.33563 0.10529 0.0
C1309 C 0.53629 0.29637 0.10002 0.0
C1310 C 0.64134 0.36421 0.04686 0.0
C1311 C 0.53777 0.35267 0.12674 0.0
C1312 C 0.63463 0.46644 0.08576 0.0
C1313 C 0.61845 0.47123 0.05641 0.0
C1314 C 0.62522 0.42981 0.09663 0.0
C1315 C 0.59878 0.39782 0.07773 0.0
C1316 C 0.58152 0.40292 0.04878 0.0
C1317 C 0.59187 0.43941 0.03843 0.0
C1318 C 0.64327 0.42552 0.12826 0.0
C1319 C 0.55238 0.36988 0.02811 0.0
H1320 H 0.59466 0.28923 0.04292 0.0
H1321 H 0.50904 0.27917 0.11212 0.0
H1322 H 0.63434 0.36738 1.02043 0.0
H1323 H 0.65895 0.39278 0.05779 0.0
H1324 H 0.658 0.34949 0.04616 0.0
H1325 H 0.51733 0.3318 0.14506 0.0
H1326 H 0.55933 0.37771 0.14077 0.0
H1327 H 0.52221 0.36214 0.11014 0.0
H1328 H 0.65445 0.49106 0.10006 0.0
H1329 H 0.57938 0.44307 1.0156 0.0
H1330 H 0.65013 0.40256 0.12549 0.0
H1331 H 0.62327 0.41803 0.14966 0.0
H1332 H 0.66942 0.45233 0.13495 0.0
H1333 H 0.56596 0.35551 1.01539 0.0
H1334 H 0.53917 0.37886 1.0084 0.0
H1335 H 0.52954 0.34882 0.04461 0.0
C1336 C 0.24917 0.5423 0.09025 0.0
C1337 C 0.23025 0.5167 0.06382 0.0
C1338 C 0.24074 0.5708 0.09839 0.0
C1339 C 0.21211 0.57299 0.08017 0.0
C1340 C 0.19271 0.54687 0.05369 0.0
C1341 C 0.20215 0.51923 0.04583 0.0
C1342 C 0.26215 0.59795 0.1267 0.0
C1343 C 0.16191 0.54805 0.03339 0.0
C1344 C 0.14743 0.60949 0.10022 0.0
C1345 C 0.15892 0.63716 0.07505 0.0
C1346 C 0.16875 0.59196 0.10698 0.0
C1347 C 0.20174 0.60228 0.0877 0.0
C1348 C 0.21694 0.63499 0.06713 0.0
C1349 C 0.19484 0.65163 0.06044 0.0
C1350 C 0.1527 0.5584 0.1305 0.0
C1351 C 0.25316 0.64831 0.04753 0.0
H1352 H 0.27096 0.54045 0.1043 0.0
H1353 H 0.1873 0.49943 0.02554 0.0
H1354 H 0.26704 0.62679 0.12154 0.0
H1355 H 0.24527 0.58762 0.15025 0.0
H1356 H 0.28993 0.59986 0.13117 0.0
H1357 H 0.1498 0.52569 1.01366 0.0
H1358 H 0.13855 0.5442 0.05029 0.0
H1359 H 0.17335 0.576 0.02086 0.0
H1360 H 0.11957 0.59824 0.11144 0.0
H1361 H 0.20342 0.67225 0.04023 0.0
H1362 H 0.1328 0.55947 0.14902 0.0
H1363 H 0.17566 0.55715 0.14433 0.0
H1364 H 0.13699 0.53195 0.11556 0.0
H1365 H 0.27398 0.64419 0.06215 0.0
H1366 H 0.26618 0.67873 0.04067 0.0
H1367 H 0.24681 0.63161 0.02387 0.0
C1368 C 0.8751 0.44728 0.46026 0.0
C1369 C 0.86283 0.47396 0.46104 0.0
C1370 C 0.85138 0.41049 0.44862 0.0
C1371 C 0.81524 0.40071 0.43607 0.0
C1372 C 0.80744 0.42993 0.42839 0.0
C1373 C 0.83103 0.46642 0.44184 0.0
C1374 C 0.86268 0.38097 0.45497 0.0
C1375 C 0.77387 0.42209 0.40695 0.0
C1376 C 0.75839 0.29418 0.43316 0.0
C1377 C 0.74794 0.28677 0.46732 0.0
C1378 C 0.7765 0.3315 0.42066 0.0
C1379 C 0.78389 0.36157 0.44287 0.0
C1380 C 0.76838 0.35331 0.47593 0.0
C1381 C 0.75117 0.31606 0.48791 0.0
C1382 C 0.78957 0.33905 0.38444 0.0
C1383 C 0.77313 0.38424 0.49988 0.0
H1384 H 0.90131 0.45336 0.47247 0.0
H1385 H 0.82379 0.48806 0.43829 0.0
H1386 H 0.85463 0.36109 0.43341 0.0
H1387 H 0.89363 0.39401 0.45931 0.0
H1388 H 0.84771 0.36426 0.47774 0.0
H1389 H 0.7687 0.44636 0.40672 0.0
H1390 H 0.77944 0.41694 0.38062 0.0
H1391 H 0.74805 0.39602 0.41546 0.0
H1392 H 0.75482 0.2713 0.41681 0.0
H1393 H 0.74188 0.31019 0.51397 0.0
H1394 H 0.82081 0.35737 0.3832 0.0
H1395 H 0.77716 0.35456 0.37177 0.0
H1396 H 0.78124 0.31251 0.37028 0.0
H1397 H 0.80329 0.40155 0.50742 0.0
H1398 H 0.75579 0.37267 0.52311 0.0
H1399 H 0.7648 0.40324 0.4873 0.0
C1400 C 0.34222 0.79849 0.48862 0.0
C1401 C 0.35669 0.83405 0.4733 0.0
C1402 C 0.35745 0.77529 0.48122 0.0
C1403 C 0.38898 0.78911 0.45934 0.0
C1404 C 0.3992 0.8218 0.43964 0.0
C1405 C 0.383 0.84423 0.44708 0.0
C1406 C 0.34417 0.73929 0.50115 0.0
C1407 C 0.4315 0.83641 0.41479 0.0
C1408 C 0.47248 0.78753 0.49855 0.0
C1409 C 0.47384 0.75893 0.48029 0.0
C1410 C 0.44509 0.79752 0.49161 0.0
C1411 C 0.41794 0.77807 0.46587 0.0
C1412 C 0.41895 0.74889 0.44739 0.0
C1413 C 0.4471 0.73975 0.45475 0.0
C1414 C 0.44536 0.82904 0.51202 0.0
C1415 C 0.39002 0.72662 0.42053 0.0
H1416 H 0.3228 0.79107 0.50969 0.0
H1417 H 0.39433 0.87185 0.43537 0.0
H1418 H 0.34355 0.71679 0.48498 0.0
H1419 H 0.36416 0.74468 0.52222 0.0
H1420 H 0.31549 0.72888 0.51197 0.0
H1421 H 0.43005 0.85604 0.39622 0.0
H1422 H 0.45871 0.85209 0.42866 0.0
H1423 H 0.43146 0.81268 0.40107 0.0
H1424 H 0.49322 0.80255 0.51815 0.0
H1425 H 0.44783 0.71725 0.44082 0.0
H1426 H 0.41814 0.81818 0.52572 0.0
H1427 H 0.44861 0.85211 0.49506 0.0
H1428 H 0.4687 0.84139 0.53081 0.0
H1429 H 0.36495 0.7026 0.43263 0.0
H1430 H 0.40139 0.71463 0.40176 0.0
H1431 H 0.3804 0.74414 0.40711 0.0
C1432 C 0.68244 0.47314 0.47772 0.0
C1433 C 0.71139 0.46607 0.46865 0.0
C1434 C 0.6445 0.44445 0.47627 0.0
C1435 C 0.63513 0.40836 0.46313 0.0
C1436 C 0.66441 0.40112 0.45383 0.0
C1437 C 0.70225 0.42977 0.45799 0.0
C1438 C 0.61467 0.45295 0.48933 0.0
C1439 C 0.6567 0.36374 0.4393 0.0
C1440 C 0.53955 0.34002 0.49576 0.0
C1441 C 0.51815 0.35058 0.47569 0.0
C1442 C 0.5779 0.35399 0.48889 0.0
C1443 C 0.59458 0.3787 0.46115 0.0
C1444 C 0.57117 0.38285 0.43722 0.0
C1445 C 0.53315 0.3698 0.44537 0.0
C1446 C 0.60135 0.34656 0.51383 0.0
C1447 C 0.58741 0.40532 0.40527 0.0
H1448 H 0.68949 0.50101 0.48681 0.0
H1449 H 0.72463 0.42395 0.4522 0.0
H1450 H 0.59863 0.45542 0.46788 0.0
H1451 H 0.59423 0.42976 0.50594 0.0
H1452 H 0.62723 0.47988 0.50383 0.0
H1453 H 0.66628 0.34956 0.45745 0.0
H1454 H 0.62642 0.34446 0.43335 0.0
H1455 H 0.67351 0.36873 0.41586 0.0
H1456 H 0.52766 0.325 0.51924 0.0
H1457 H 0.51637 0.37762 0.42972 0.0
H1458 H 0.62288 0.37356 0.52562 0.0
H1459 H 0.61652 0.33416 0.50058 0.0
H1460 H 0.58379 0.32669 0.53413 0.0
H1461 H 0.59859 0.43584 0.41044 0.0
H1462 H 0.56535 0.39638 0.38541 0.0
H1463 H 0.61107 0.40186 0.39566 0.0
C1464 C 0.2069 0.68589 0.49956 0.0
C1465 C 0.23585 0.71649 0.48213 0.0
C1466 C 0.1965 0.64868 0.49118 0.0
C1467 C 0.21588 0.64185 0.46477 0.0
C1468 C 0.24517 0.67266 0.44692 0.0
C1469 C 0.25475 0.70976 0.45577 0.0
C1470 C 0.16484 0.61672 0.51098 0.0
C1471 C 0.26716 0.66686 0.41922 0.0
C1472 C 0.1965 0.54586 0.48591 0.0
C1473 C 0.16066 0.52475 0.47114 0.0
C1474 C 0.2195 0.58441 0.47863 0.0
C1475 C 0.2052 0.6021 0.45737 0.0
C1476 C 0.17227 0.5796 0.43797 0.0
C1477 C 0.14999 0.54088 0.44535 0.0
C1478 C 0.25566 0.60724 0.49831 0.0
C1479 C 0.15724 0.59735 0.41373 0.0
H1480 H 0.19204 0.69099 0.51975 0.0
H1481 H 0.27744 0.73348 0.44238 0.0
H1482 H 0.14177 0.59748 0.4937 0.0
H1483 H 0.17553 0.59981 0.52389 0.0
H1484 H 0.15254 0.6271 0.53037 0.0
H1485 H 0.27919 0.69095 0.40116 0.0
H1486 H 0.29112 0.66524 0.4306 0.0
H1487 H 0.24941 0.6402 0.40509 0.0
H1488 H 0.20428 0.53387 0.50669 0.0
H1489 H 0.12218 0.52451 0.43402 0.0
H1490 H 0.2506 0.62219 0.51932 0.0
H1491 H 0.27811 0.62893 0.48192 0.0
H1492 H 0.26598 0.58899 0.50922 0.0
H1493 H 0.14127 0.60822 0.42805 0.0
H1494 H 0.13775 0.57639 0.39497 0.0
H1495 H 0.18074 0.62157 0.40021 0.0
C1496 C 0.51475 0.20558 0.50021 0.0
C1497 C 0.513 0.23438 0.4827 0.0
C1498 C 0.54094 0.19463 0.49118 0.0
C1499 C 0.56642 0.21337 0.46415 0.0
C1500 C 0.56446 0.24211 0.44594 0.0
C1501 C 0.5376 0.2523 0.45542 0.0
C1502 C 0.54167 0.16338 0.51116 0.0
C1503 C 0.5909 0.26225 0.41685 0.0
C1504 C 0.64621 0.199 0.48566 0.0
C1505 C 0.63396 0.16384 0.47037 0.0
C1506 C 0.62851 0.21996 0.4786 0.0
C1507 C 0.59643 0.20397 0.45729 0.0
C1508 C 0.58758 0.17131 0.43802 0.0
C1509 C 0.60672 0.15154 0.4448 0.0
C1510 C 0.63959 0.25535 0.49888 0.0
C1511 C 0.55385 0.15353 0.41472 0.0
H1512 H 0.49544 0.19136 0.52099 0.0
H1513 H 0.53623 0.27462 0.4418 0.0
H1514 H 0.53893 0.14066 0.49399 0.0
H1515 H 0.5691 0.1748 0.5246 0.0
H1516 H 0.51853 0.15047 0.53014 0.0
H1517 H 0.58422 0.28242 0.40405 0.0
H1518 H 0.62054 0.27801 0.42603 0.0
H1519 H 0.58935 0.24141 0.39801 0.0
H1520 H 0.66564 0.2075 0.50675 0.0
H1521 H 0.59685 0.12397 0.4334 0.0
H1522 H 0.61999 0.24822 0.52063 0.0
H1523 H 0.63755 0.27689 0.4834 0.0
H1524 H 0.66885 0.26788 0.50888 0.0
H1525 H 0.52813 0.13453 0.42958 0.0
H1526 H 0.55738 0.13625 0.39492 0.0
H1527 H 0.54913 0.17522 0.40244 0.0
C1528 C 0.45332 0.6534 0.48557 0.0
C1529 C 0.47399 0.63938 0.46886 0.0
C1530 C 0.41444 0.63753 0.47995 0.0
C1531 C 0.39588 0.60581 0.45836 0.0
C1532 C 0.41757 0.59564 0.43754 0.0
C1533 C 0.45665 0.61251 0.44322 0.0
C1534 C 0.39246 0.65051 0.50134 0.0
C1535 C 0.39885 0.56296 0.41316 0.0
C1536 C 0.31129 0.52302 0.49943 0.0
C1537 C 0.28095 0.52209 0.48224 0.0
C1538 C 0.34867 0.54993 0.49142 0.0
C1539 C 0.35594 0.57709 0.46582 0.0
C1540 C 0.3254 0.57668 0.44859 0.0
C1541 C 0.28815 0.54873 0.45669 0.0
C1542 C 0.38035 0.54919 0.5106 0.0
C1543 C 0.33173 0.60511 0.42133 0.0
H1544 H 0.46623 0.67307 0.50634 0.0
H1545 H 0.47262 0.60143 0.43053 0.0
H1546 H 0.36936 0.65039 0.4865 0.0
H1547 H 0.37938 0.63075 0.5229 0.0
H1548 H 0.41104 0.67943 0.51158 0.0
H1549 H 0.38752 0.53593 0.4273 0.0
H1550 H 0.37479 0.56295 0.40015 0.0
H1551 H 0.41922 0.56401 0.39397 0.0
H1552 H 0.30587 0.50232 0.519 0.0
H1553 H 0.26468 0.54808 0.44329 0.0
H1554 H 0.39755 0.57638 0.52415 0.0
H1555 H 0.39939 0.5457 0.4928 0.0
H1556 H 0.36968 0.52581 0.52935 0.0
H1557 H 0.35678 0.63324 0.42668 0.0
H1558 H 0.30656 0.60854 0.41821 0.0
H1559 H 0.3368 0.5949 0.397 0.0
C1560 C 0.48985 0.0717 0.96188 0.0
C1561 C 0.46738 0.06542 0.99065 0.0
C1562 C 0.49887 0.04438 0.95068 0.0
C1563 C 0.48673 0.01091 0.9698 0.0
C1564 C 0.46099 0.00291 0.99687 0.0
C1565 C 0.45136 0.03009 1.00658 0.0
C1566 C 0.52414 0.05322 0.92024 0.0
C1567 C 0.44702 0.96766 1.01824 0.0
C1568 C 0.49416 0.92333 0.9581 0.0
C1569 C 0.52442 0.93128 0.97982 0.0
C1570 C 0.4849 0.95125 0.95002 0.0
C1571 C 0.50493 0.98716 0.96569 0.0
C1572 C 0.53844 0.99669 0.98403 0.0
C1573 C 0.54814 0.96869 0.99029 0.0
C1574 C 0.45101 0.94079 0.92789 0.0
C1575 C 0.56123 0.0348 1.00092 0.0
H1576 H 0.50356 0.09919 0.94994 0.0
H1577 H 0.43504 0.02556 0.02948 0.0
H1578 H 0.55416 0.07086 0.92803 0.0
H1579 H 0.52047 0.02711 0.90799 0.0
H1580 H 0.51823 0.06976 0.90142 0.0
H1581 H 0.42661 0.96543 0.03795 0.0
H1582 H 0.43291 0.94196 1.00225 0.0
H1583 H 0.47137 0.96781 0.03083 0.0
H1584 H 0.47504 0.8944 0.95042 0.0
H1585 H 0.57121 0.97479 1.00746 0.0
H1586 H 0.45444 0.96575 0.91363 0.0
H1587 H 0.42522 0.92996 0.94374 0.0
H1588 H 0.44647 0.91812 0.90974 0.0
H1589 H 0.56853 0.05791 0.98254 0.0
H1590 H 0.58789 0.03867 1.01213 0.0
H1591 H 0.54409 0.03764 0.02126 0.0
C1592 C 0.42158 0.46051 0.99547 0.0
C1593 C 0.40319 0.48003 0.98549 0.0
C1594 C 0.45949 0.47362 0.98637 0.0
C1595 C 0.47896 0.50624 0.96557 0.0
C1596 C 0.45851 0.52236 0.95129 0.0
C1597 C 0.42135 0.50997 0.96237 0.0
C1598 C 0.47985 0.45528 1.00248 0.0
C1599 C 0.47661 0.55506 0.92684 0.0
C1600 C 0.57922 0.56687 0.99681 0.0
C1601 C 0.59667 0.54858 0.98163 0.0
C1602 C 0.54144 0.55592 0.98947 0.0
C1603 C 0.52138 0.5273 0.965 0.0
C1604 C 0.5415 0.51452 0.94496 0.0
C1605 C 0.57882 0.52475 0.95396 0.0
C1606 C 0.52181 0.57146 1.01106 0.0
C1607 C 0.52268 0.48708 0.91628 0.0
H1608 H 0.40797 0.43795 1.01392 0.0
H1609 H 0.40823 0.52632 0.95535 0.0
H1610 H 0.49345 0.44672 0.98288 0.0
H1611 H 0.50255 0.4759 1.01937 0.0
H1612 H 0.46049 0.4298 1.01749 0.0
H1613 H 0.45578 0.5522 0.90736 0.0
H1614 H 0.48547 0.58198 0.94047 0.0
H1615 H 0.5017 0.5569 0.91408 0.0
H1616 H 0.59303 0.58537 1.01818 0.0
H1617 H 0.59199 0.51045 0.94194 0.0
H1618 H 0.4985 0.54814 0.0256 0.0
H1619 H 0.50915 0.58433 0.99491 0.0
H1620 H 0.54146 0.59334 0.02912 0.0
H1621 H 0.51067 0.45765 0.92565 0.0
H1622 H 0.54364 0.49152 0.8963 0.0
H1623 H 0.49945 0.4901 0.90499 0.0
C1624 C 0.92663 0.42008 0.96345 0.0
C1625 C 0.93307 0.40182 0.9905 0.0
C1626 C 0.95361 0.45748 0.95435 0.0
C1627 C 0.98693 0.47771 0.9739 0.0
C1628 C 0.99527 0.45803 0.99885 0.0
C1629 C 0.96842 0.42026 1.00647 0.0
C1630 C 0.94453 0.47617 0.92592 0.0
C1631 C 0.03039 0.47804 1.02051 0.0
C1632 C 0.07205 0.57614 0.96679 0.0
C1633 C 0.06278 0.59574 0.99055 0.0
C1634 C 0.0455 0.53888 0.9571 0.0
C1635 C 0.00962 0.52012 0.973 0.0
C1636 C -0.00127 0.54133 0.9939 0.0
C1637 C 0.02534 0.57913 1.00192 0.0
C1638 C 0.05747 0.51853 0.93262 0.0
C1639 C 0.96069 0.52289 1.01135 0.0
H1640 H 0.89914 0.40688 0.95152 0.0
H1641 H 0.97311 0.40689 0.02813 0.0
H1642 H 0.92752 0.48841 0.93577 0.0
H1643 H 0.97059 0.49926 0.9141 0.0
H1644 H 0.92737 0.4551 0.90622 0.0
H1645 H 0.03338 0.45832 0.03786 0.0
H1646 H 0.05608 0.49223 1.00451 0.0
H1647 H 0.02929 0.50026 0.03584 0.0
H1648 H 0.10105 0.58815 0.95841 0.0
H1649 H 0.01826 0.59393 0.02072 0.0
H1650 H 0.07888 0.53877 0.91453 0.0
H1651 H 0.03291 0.49651 0.91827 0.0
H1652 H 0.07058 0.50451 0.94665 0.0
H1653 H 0.93758 0.50795 0.99277 0.0
H1654 H 0.95576 0.54376 0.0251 0.0
H1655 H 0.95897 0.50149 0.02968 0.0
C1656 C 0.97678 0.55765 0.54738 0.0
C1657 C 0.93903 0.53705 0.55797 0.0
C1658 C 0.00294 0.54654 0.55664 0.0
C1659 C 0.99119 0.51475 0.57811 0.0
C1660 C 0.9555 0.49901 0.59424 0.0
C1661 C 0.92947 0.50993 0.58353 0.0
C1662 C 0.04102 0.56516 0.5392 0.0
C1663 C 0.94301 0.46754 0.61974 0.0
C1664 C 0.02709 0.45334 0.54144 0.0
C1665 C 0.06349 0.47034 0.55526 0.0
C1666 C 0.00132 0.46485 0.5512 0.0
C1667 C 0.01187 0.49319 0.57638 0.0
C1668 C 0.04621 0.50578 0.59415 0.0
C1669 C 0.07215 0.49507 0.5827 0.0
C1670 C 0.96502 0.45024 0.53133 0.0
C1671 C 0.05756 0.53351 0.62298 0.0
H1672 H 0.98405 0.57798 0.52715 0.0
H1673 H 0.90037 0.49352 0.59187 0.0
H1674 H 0.06402 0.57322 0.55783 0.0
H1675 H 0.04216 0.54489 0.52119 0.0
H1676 H 0.04665 0.591 0.52506 0.0
H1677 H 0.92276 0.46825 0.63807 0.0
H1678 H 0.9283 0.43978 0.60666 0.0
H1679 H 0.96752 0.46955 0.6337 0.0
H1680 H 0.02055 0.43463 0.51991 0.0
H1681 H 0.10037 0.50912 0.59316 0.0
H1682 H 0.96569 0.47378 0.5167 0.0
H1683 H 0.94037 0.43905 0.54859 0.0
H1684 H 0.96049 0.42736 0.51344 0.0
H1685 H 0.07685 0.5626 0.61357 0.0
H1686 H 0.07331 0.52724 0.64236 0.0
H1687 H 0.03268 0.53282 0.63508 0.0
C1688 C 0.57743 0.03013 0.53835 0.0
C1689 C 0.59495 0.06616 0.55314 0.0
C1690 C 0.54019 0.00254 0.54677 0.0
C1691 C 0.51991 0.01105 0.57098 0.0
C1692 C 0.5392 0.04544 0.58925 0.0
C1693 C 0.5762 0.07293 0.57959 0.0
C1694 C 0.5211 0.96628 0.5265 0.0
C1695 C 0.51962 0.05503 0.61654 0.0
C1696 C 0.41882 0.96956 0.54138 0.0
C1697 C 0.40185 0.93325 0.5555 0.0
C1698 C 0.45643 0.99688 0.54894 0.0
C1699 C 0.47756 0.98773 0.57158 0.0
C1700 C 0.45889 0.95294 0.58935 0.0
C1701 C 0.42145 0.92577 0.5806 0.0
C1702 C 0.4748 0.03361 0.52933 0.0
C1703 C 0.47946 0.94269 0.61508 0.0
H1704 H 0.59096 0.02522 0.51693 0.0
H1705 H 0.58847 0.10097 0.59036 0.0
H1706 H 0.50697 0.9414 0.54348 0.0
H1707 H 0.49898 0.96612 0.51012 0.0
H1708 H 0.54141 0.9629 0.51025 0.0
H1709 H 0.54041 0.07533 0.63497 0.0
H1710 H 0.50457 0.06856 0.60506 0.0
H1711 H 0.49851 0.02925 0.63021 0.0
H1712 H 0.40441 0.97501 0.52107 0.0
H1713 H 0.40918 0.8975 0.59097 0.0
H1714 H 0.49625 0.03412 0.51175 0.0
H1715 H 0.48963 0.05808 0.54664 0.0
H1716 H 0.45392 0.0374 0.51438 0.0
H1717 H 0.49406 0.92947 0.60215 0.0
H1718 H 0.45936 0.92192 0.63366 0.0
H1719 H 0.50108 0.96813 0.62878 0.0
C1720 C 0.50414 0.57823 0.57395 0.0
C1721 C 0.53218 0.59785 0.54948 0.0
C1722 C 0.49437 0.54138 0.58399 0.0
C1723 C 0.5113 0.52283 0.56752 0.0
C1724 C 0.54253 0.54402 0.54563 0.0
C1725 C 0.55295 0.58154 0.53735 0.0
C1726 C 0.46313 0.52109 0.60954 0.0
C1727 C 0.5619 0.52577 0.5276 0.0
C1728 C 0.49445 0.42303 0.57851 0.0
C1729 C 0.46787 0.40368 0.55292 0.0
C1730 C 0.50583 0.46089 0.58658 0.0
C1731 C 0.49189 0.48046 0.56726 0.0
C1732 C 0.46251 0.45997 0.54355 0.0
C1733 C 0.45059 0.42176 0.5371 0.0
C1734 C 0.53521 0.48053 0.61373 0.0
C1735 C 0.44664 0.47934 0.52205 0.0
H1736 H 0.48692 0.58974 0.58275 0.0
H1737 H 0.57414 0.59632 0.51797 0.0
H1738 H 0.43549 0.50555 0.59638 0.0
H1739 H 0.46726 0.50031 0.62428 0.0
H1740 H 0.46175 0.54151 0.62722 0.0
H1741 H 0.58709 0.54665 0.51306 0.0
H1742 H 0.57108 0.51148 0.54592 0.0
H1743 H 0.54168 0.50384 0.50989 0.0
H1744 H 0.5091 0.41008 0.59016 0.0
H1745 H 0.43107 0.40746 0.51649 0.0
H1746 H 0.53343 0.50445 0.62511 0.0
H1747 H 0.56388 0.49175 0.60276 0.0
H1748 H 0.53186 0.46025 0.63399 0.0
H1749 H 0.43557 0.49379 0.53819 0.0
H1750 H 0.42336 0.45916 0.50534 0.0
H1751 H 0.46947 0.50128 0.50607 0.0
loop_
_geom_bond_atom_site_label_1
_geom_bond_atom_site_label_2
_geom_bond_distance
_geom_bond_site_symmetry_2
_ccdc_geom_bond_type
Zn0 N4 2.020 . S
Zn0 O8 2.019 . S
Zn0 N10 2.119 . S
Zn0 O18 1.975 . S
C1 N2 1.343 . S
C1 N5 1.336 . S
N2 C1 1.343 . S
N2 C3 1.325 1_554 S
C3 N2 1.325 1_556 S
C3 N4 1.336 . S
N4 Zn0 2.020 . S
N4 C3 1.336 . S
N4 N5 1.354 1_556 S
N5 C1 1.336 . S
N5 N4 1.354 1_554 S
N5 Zn9 2.020 . S
C6 O7 1.244 1_554 S
C6 O30 1.257 . S
O7 C6 1.244 1_556 S
O8 Zn0 2.019 . S
O8 C28 1.257 . S
Zn9 N5 2.020 . S
Zn9 O16 1.975 . S
Zn9 N25 2.119 . S
Zn9 O30 2.019 . S
N10 Zn0 2.119 . S
N10 C12 1.334 . S
N10 C13 1.328 . S
C11 C12 1.391 . S
C11 N14 1.329 . S
C11 H32 0.930 . S
C12 N10 1.334 . S
C12 C11 1.391 . S
C12 H19 0.930 . S
C13 N10 1.328 . S
C13 C15 1.392 . S
C13 H20 0.930 . S
N14 C11 1.329 . S
N14 C15 1.331 . S
C15 C13 1.392 . S
C15 N14 1.331 . S
O16 Zn9 1.975 . S
O16 C17 1.251 1_554 S
C17 O16 1.251 1_556 S
C17 O18 1.253 . S
O18 Zn0 1.975 . S
O18 C17 1.253 . S
H19 C12 0.930 . S
H20 C13 0.930 . S
C21 C22 1.392 . S
C21 N25 1.328 . S
C21 H27 0.930 . S
C22 C21 1.392 . S
C22 N26 1.331 . S
C23 C24 1.391 . S
C23 N26 1.329 . S
C23 H33 0.930 . S
C24 C23 1.391 . S
C24 N25 1.334 . S
C24 H31 0.930 . S
N25 Zn9 2.119 . S
N25 C21 1.328 . S
N25 C24 1.334 . S
N26 C22 1.331 . S
N26 C23 1.329 . S
H27 C21 0.930 . S
C28 O8 1.257 . S
C28 O29 1.244 1_556 S
O29 C28 1.244 1_554 S
O30 C6 1.257 . S
O30 Zn9 2.019 . S
H31 C24 0.930 . S
H32 C11 0.930 . S
H33 C23 0.930 . S
Zn34 N38 2.020 . S
Zn34 O42 2.019 . S
Zn34 N44 2.119 . S
Zn34 O52 1.975 . S
C35 N36 1.325 1_556 S
C35 N39 1.336 . S
N36 C35 1.325 1_554 S
N36 C37 1.343 . S
C37 N36 1.343 . S
C37 N38 1.336 . S
N38 Zn34 2.020 . S
N38 C37 1.336 . S
N38 N39 1.354 1_554 S
N39 C35 1.336 . S
N39 N38 1.354 1_556 S
N39 Zn43 2.020 . S
C40 O41 1.244 1_556 S
C40 O64 1.257 . S
O41 C40 1.244 1_554 S
O42 Zn34 2.019 . S
O42 C62 1.257 . S
Zn43 N39 2.020 . S
Zn43 O50 1.975 . S
Zn43 N59 2.119 . S
Zn43 O64 2.019 . S
N44 Zn34 2.119 . S
N44 C46 1.334 . S
N44 C47 1.328 . S
C45 C46 1.391 . S
C45 N48 1.329 . S
C45 H66 0.930 . S
C46 N44 1.334 . S
C46 C45 1.391 . S
C46 H53 0.930 . S
C47 N44 1.328 . S
C47 C49 1.392 . S
C47 H54 0.930 . S
N48 C45 1.329 . S
N48 C49 1.331 . S
C49 C47 1.392 . S
C49 N48 1.331 . S
O50 Zn43 1.975 . S
O50 C51 1.253 . S
C51 O50 1.253 . S
C51 O52 1.251 1_556 S
O52 Zn34 1.975 . S
O52 C51 1.251 1_554 S
H53 C46 0.930 . S
H54 C47 0.930 . S
C55 C56 1.392 . S
C55 N59 1.328 . S
C55 H61 0.930 . S
C56 C55 1.392 . S
C56 N60 1.331 . S
C57 C58 1.391 . S
C57 N60 1.329 . S
C57 H67 0.930 . S
C58 C57 1.391 . S
C58 N59 1.334 . S
C58 H65 0.930 . S
N59 Zn43 2.119 . S
N59 C55 1.328 . S
N59 C58 1.334 . S
N60 C56 1.331 . S
N60 C57 1.329 . S
H61 C55 0.930 . S
C62 O42 1.257 . S
C62 O63 1.244 1_554 S
O63 C62 1.244 1_556 S
O64 C40 1.257 . S
O64 Zn43 2.019 . S
H65 C58 0.930 . S
H66 C45 0.930 . S
H67 C57 0.930 . S
Zn68 N72 2.020 . S
Zn68 O76 2.019 . S
Zn68 N78 2.119 . S
Zn68 O86 1.975 . S
C69 N70 1.343 . S
C69 N73 1.336 . S
N70 C69 1.343 . S
N70 C71 1.325 1_554 S
C71 N70 1.325 1_556 S
C71 N72 1.336 . S
N72 Zn68 2.020 . S
N72 C71 1.336 . S
N72 N73 1.354 1_556 S
N73 C69 1.336 . S
N73 N72 1.354 1_554 S
N73 Zn77 2.020 . S
C74 O75 1.244 1_554 S
C74 O98 1.257 . S
O75 C74 1.244 1_556 S
O76 Zn68 2.019 . S
O76 C96 1.257 . S
Zn77 N73 2.020 . S
Zn77 O84 1.975 . S
Zn77 N93 2.119 . S
Zn77 O98 2.019 . S
N78 Zn68 2.119 . S
N78 C80 1.334 . S
N78 C81 1.328 . S
C79 C80 1.391 . S
C79 N82 1.329 . S
C79 H100 0.930 . S
C80 N78 1.334 . S
C80 C79 1.391 . S
C80 H87 0.930 . S
C81 N78 1.328 . S
C81 C83 1.392 . S
C81 H88 0.930 . S
N82 C79 1.329 . S
N82 C83 1.331 . S
C83 C81 1.392 . S
C83 N82 1.331 . S
O84 Zn77 1.975 . S
O84 C85 1.251 1_554 S
C85 O84 1.251 1_556 S
C85 O86 1.253 . S
O86 Zn68 1.975 . S
O86 C85 1.253 . S
H87 C80 0.930 . S
H88 C81 0.930 . S
C89 C90 1.392 . S
C89 N93 1.328 . S
C89 H95 0.930 . S
C90 C89 1.392 . S
C90 N94 1.331 . S
C91 C92 1.391 . S
C91 N94 1.329 . S
C91 H101 0.930 . S
C92 C91 1.391 . S
C92 N93 1.334 . S
C92 H99 0.930 . S
N93 Zn77 2.119 . S
N93 C89 1.328 . S
N93 C92 1.334 . S
N94 C90 1.331 . S
N94 C91 1.329 . S
H95 C89 0.930 . S
C96 O76 1.257 . S
C96 O97 1.244 1_556 S
O97 C96 1.244 1_554 S
O98 C74 1.257 . S
O98 Zn77 2.019 . S
H99 C92 0.930 . S
H100 C79 0.930 . S
H101 C91 0.930 . S
Zn102 N106 2.020 . S
Zn102 O110 2.019 . S
Zn102 N112 2.119 . S
Zn102 O120 1.975 . S
C103 N104 1.325 1_556 S
C103 N107 1.336 . S
N104 C103 1.325 1_554 S
N104 C105 1.343 . S
C105 N104 1.343 . S
C105 N106 1.336 . S
N106 Zn102 2.020 . S
N106 C105 1.336 . S
N106 N107 1.354 1_554 S
N107 C103 1.336 . S
N107 N106 1.354 1_556 S
N107 Zn111 2.020 . S
C108 O109 1.244 1_556 S
C108 O132 1.257 . S
O109 C108 1.244 1_554 S
O110 Zn102 2.019 . S
O110 C130 1.257 . S
Zn111 N107 2.020 . S
Zn111 O118 1.975 . S
Zn111 N127 2.119 . S
Zn111 O132 2.019 . S
N112 Zn102 2.119 . S
N112 C114 1.334 . S
N112 C115 1.328 . S
C113 C114 1.391 . S
C113 N116 1.329 . S
C113 H134 0.930 . S
C114 N112 1.334 . S
C114 C113 1.391 . S
C114 H121 0.930 . S
C115 N112 1.328 . S
C115 C117 1.392 . S
C115 H122 0.930 . S
N116 C113 1.329 . S
N116 C117 1.331 . S
C117 C115 1.392 . S
C117 N116 1.331 . S
O118 Zn111 1.975 . S
O118 C119 1.253 . S
C119 O118 1.253 . S
C119 O120 1.251 1_556 S
O120 Zn102 1.975 . S
O120 C119 1.251 1_554 S
H121 C114 0.930 . S
H122 C115 0.930 . S
C123 C124 1.392 . S
C123 N127 1.328 . S
C123 H129 0.930 . S
C124 C123 1.392 . S
C124 N128 1.331 . S
C125 C126 1.391 . S
C125 N128 1.329 . S
C125 H135 0.930 . S
C126 C125 1.391 . S
C126 N127 1.334 . S
C126 H133 0.930 . S
N127 Zn111 2.119 . S
N127 C123 1.328 . S
N127 C126 1.334 . S
N128 C124 1.331 . S
N128 C125 1.329 . S
H129 C123 0.930 . S
C130 O110 1.257 . S
C130 O131 1.244 1_554 S
O131 C130 1.244 1_556 S
O132 C108 1.257 . S
O132 Zn111 2.019 . S
H133 C126 0.930 . S
H134 C113 0.930 . S
H135 C125 0.930 . S
Zn136 N140 2.020 . S
Zn136 O144 2.019 . S
Zn136 N146 2.119 . S
Zn136 O154 1.975 . S
C137 N138 1.343 . S
C137 N141 1.336 . S
N138 C137 1.343 . S
N138 C139 1.325 1_554 S
C139 N138 1.325 1_556 S
C139 N140 1.336 . S
N140 Zn136 2.020 . S
N140 C139 1.336 . S
N140 N141 1.354 1_556 S
N141 C137 1.336 . S
N141 N140 1.354 1_554 S
N141 Zn145 2.020 . S
C142 O143 1.244 1_554 S
C142 O166 1.257 . S
O143 C142 1.244 1_556 S
O144 Zn136 2.019 . S
O144 C164 1.257 . S
Zn145 N141 2.020 . S
Zn145 O152 1.975 . S
Zn145 N161 2.119 . S
Zn145 O166 2.019 . S
N146 Zn136 2.119 . S
N146 C148 1.334 . S
N146 C149 1.328 . S
C147 C148 1.391 . S
C147 N150 1.329 . S
C147 H168 0.930 . S
C148 N146 1.334 . S
C148 C147 1.391 . S
C148 H155 0.930 . S
C149 N146 1.328 . S
C149 C151 1.392 . S
C149 H156 0.930 . S
N150 C147 1.329 . S
N150 C151 1.331 . S
C151 C149 1.392 . S
C151 N150 1.331 . S
O152 Zn145 1.975 . S
O152 C153 1.251 1_554 S
C153 O152 1.251 1_556 S
C153 O154 1.253 . S
O154 Zn136 1.975 . S
O154 C153 1.253 . S
H155 C148 0.930 . S
H156 C149 0.930 . S
C157 C158 1.392 . S
C157 N161 1.328 . S
C157 H163 0.930 . S
C158 C157 1.392 . S
C158 N162 1.331 . S
C159 C160 1.391 . S
C159 N162 1.329 . S
C159 H169 0.930 . S
C160 C159 1.391 . S
C160 N161 1.334 . S
C160 H167 0.930 . S
N161 Zn145 2.119 . S
N161 C157 1.328 . S
N161 C160 1.334 . S
N162 C158 1.331 . S
N162 C159 1.329 . S
H163 C157 0.930 . S
C164 O144 1.257 . S
C164 O165 1.244 1_556 S
O165 C164 1.244 1_554 S
O166 C142 1.257 . S
O166 Zn145 2.019 . S
H167 C160 0.930 . S
H168 C147 0.930 . S
H169 C159 0.930 . S
Zn170 N174 2.020 . S
Zn170 O178 2.019 . S
Zn170 N180 2.119 . S
Zn170 O188 1.975 . S
C171 N172 1.325 1_556 S
C171 N175 1.336 . S
N172 C171 1.325 1_554 S
N172 C173 1.343 . S
C173 N172 1.343 . S
C173 N174 1.336 . S
N174 Zn170 2.020 . S
N174 C173 1.336 . S
N174 N175 1.354 1_554 S
N175 C171 1.336 . S
N175 N174 1.354 1_556 S
N175 Zn179 2.020 . S
C176 O177 1.244 1_556 S
C176 O200 1.257 . S
O177 C176 1.244 1_554 S
O178 Zn170 2.019 . S
O178 C198 1.257 . S
Zn179 N175 2.020 . S
Zn179 O186 1.975 . S
Zn179 N195 2.119 . S
Zn179 O200 2.019 . S
N180 Zn170 2.119 . S
N180 C182 1.334 . S
N180 C183 1.328 . S
C181 C182 1.391 . S
C181 N184 1.329 . S
C181 H202 0.930 . S
C182 N180 1.334 . S
C182 C181 1.391 . S
C182 H189 0.930 . S
C183 N180 1.328 . S
C183 C185 1.392 . S
C183 H190 0.930 . S
N184 C181 1.329 . S
N184 C185 1.331 . S
C185 C183 1.392 . S
C185 N184 1.331 . S
O186 Zn179 1.975 . S
O186 C187 1.253 . S
C187 O186 1.253 . S
C187 O188 1.251 1_556 S
O188 Zn170 1.975 . S
O188 C187 1.251 1_554 S
H189 C182 0.930 . S
H190 C183 0.930 . S
C191 C192 1.392 . S
C191 N195 1.328 . S
C191 H197 0.930 . S
C192 C191 1.392 . S
C192 N196 1.331 . S
C193 C194 1.391 . S
C193 N196 1.329 . S
C193 H203 0.930 . S
C194 C193 1.391 . S
C194 N195 1.334 . S
C194 H201 0.930 . S
N195 Zn179 2.119 . S
N195 C191 1.328 . S
N195 C194 1.334 . S
N196 C192 1.331 . S
N196 C193 1.329 . S
H197 C191 0.930 . S
C198 O178 1.257 . S
C198 O199 1.244 1_554 S
O199 C198 1.244 1_556 S
O200 C176 1.257 . S
O200 Zn179 2.019 . S
H201 C194 0.930 . S
H202 C181 0.930 . S
H203 C193 0.930 . S
Zn204 N208 2.020 . S
Zn204 O212 2.019 . S
Zn204 N214 2.119 . S
Zn204 O222 1.975 . S
C205 N206 1.334 . S
C205 N209 1.336 . S
N206 C205 1.334 . S
N206 C207 1.334 . S
C207 N206 1.334 . S
C207 N208 1.336 . S
N208 Zn204 2.020 . S
N208 C207 1.336 . S
N208 N209 1.354 . S
N209 C205 1.336 . S
N209 N208 1.354 . S
N209 Zn213 2.020 . S
C210 O211 1.244 . S
C210 O234 1.257 . S
O211 C210 1.244 . S
O212 Zn204 2.019 . S
O212 C232 1.257 . S
Zn213 N209 2.020 . S
Zn213 O220 1.975 . S
Zn213 N229 2.119 . S
Zn213 O234 2.019 . S
N214 Zn204 2.119 . S
N214 C216 1.334 . S
N214 C217 1.328 . S
C215 C216 1.391 . S
C215 N218 1.329 . S
C215 H236 0.930 . S
C216 N214 1.334 . S
C216 C215 1.391 . S
C216 H223 0.930 . S
C217 N214 1.328 . S
C217 C219 1.392 . S
C217 H224 0.930 . S
N218 C215 1.329 . S
N218 C219 1.331 . S
C219 C217 1.392 . S
C219 N218 1.331 . S
O220 Zn213 1.975 . S
O220 C221 1.252 . S
C221 O220 1.252 . S
C221 O222 1.252 . S
O222 Zn204 1.975 . S
O222 C221 1.252 . S
H223 C216 0.930 . S
H224 C217 0.930 . S
C225 C226 1.392 . S
C225 N229 1.328 . S
C225 H231 0.930 . S
C226 C225 1.392 . S
C226 N230 1.331 . S
C227 C228 1.391 . S
C227 N230 1.329 . S
C227 H237 0.930 . S
C228 C227 1.391 . S
C228 N229 1.334 . S
C228 H235 0.930 . S
N229 Zn213 2.119 . S
N229 C225 1.328 . S
N229 C228 1.334 . S
N230 C226 1.331 . S
N230 C227 1.329 . S
H231 C225 0.930 . S
C232 O212 1.257 . S
C232 O233 1.244 . S
O233 C232 1.244 . S
O234 C210 1.257 . S
O234 Zn213 2.019 . S
H235 C228 0.930 . S
H236 C215 0.930 . S
H237 C227 0.930 . S
Zn238 N242 2.020 . S
Zn238 O246 2.019 . S
Zn238 N248 2.119 . S
Zn238 O256 1.975 . S
C239 N240 1.334 . S
C239 N243 1.336 . S
N240 C239 1.334 . S
N240 C241 1.334 . S
C241 N240 1.334 . S
C241 N242 1.336 . S
N242 Zn238 2.020 . S
N242 C241 1.336 . S
N242 N243 1.354 . S
N243 C239 1.336 . S
N243 N242 1.354 . S
N243 Zn247 2.020 . S
C244 O245 1.244 . S
C244 O268 1.257 . S
O245 C244 1.244 . S
O246 Zn238 2.019 . S
O246 C266 1.257 . S
Zn247 N243 2.020 . S
Zn247 O254 1.975 . S
Zn247 N263 2.119 . S
Zn247 O268 2.019 . S
N248 Zn238 2.119 . S
N248 C250 1.334 . S
N248 C251 1.328 . S
C249 C250 1.391 . S
C249 N252 1.329 . S
C249 H270 0.930 . S
C250 N248 1.334 . S
C250 C249 1.391 . S
C250 H257 0.930 . S
C251 N248 1.328 . S
C251 C253 1.392 . S
C251 H258 0.930 . S
N252 C249 1.329 . S
N252 C253 1.331 . S
C253 C251 1.392 . S
C253 N252 1.331 . S
O254 Zn247 1.975 . S
O254 C255 1.252 . S
C255 O254 1.252 . S
C255 O256 1.252 . S
O256 Zn238 1.975 . S
O256 C255 1.252 . S
H257 C250 0.930 . S
H258 C251 0.930 . S
C259 C260 1.392 . S
C259 N263 1.328 . S
C259 H265 0.930 . S
C260 C259 1.392 . S
C260 N264 1.331 . S
C261 C262 1.391 . S
C261 N264 1.329 . S
C261 H271 0.930 . S
C262 C261 1.391 . S
C262 N263 1.334 . S
C262 H269 0.930 . S
N263 Zn247 2.119 . S
N263 C259 1.328 . S
N263 C262 1.334 . S
N264 C260 1.331 . S
N264 C261 1.329 . S
H265 C259 0.930 . S
C266 O246 1.257 . S
C266 O267 1.244 . S
O267 C266 1.244 . S
O268 C244 1.257 . S
O268 Zn247 2.019 . S
H269 C262 0.930 . S
H270 C249 0.930 . S
H271 C261 0.930 . S
Zn272 N276 2.020 . S
Zn272 O280 2.019 . S
Zn272 N282 2.119 . S
Zn272 O290 1.975 . S
C273 N274 1.334 . S
C273 N277 1.336 . S
N274 C273 1.334 . S
N274 C275 1.334 . S
C275 N274 1.334 . S
C275 N276 1.336 . S
N276 Zn272 2.020 . S
N276 C275 1.336 . S
N276 N277 1.354 . S
N277 C273 1.336 . S
N277 N276 1.354 . S
N277 Zn281 2.020 . S
C278 O279 1.244 . S
C278 O302 1.257 . S
O279 C278 1.244 . S
O280 Zn272 2.019 . S
O280 C300 1.257 . S
Zn281 N277 2.020 . S
Zn281 O288 1.975 . S
Zn281 N297 2.119 . S
Zn281 O302 2.019 . S
N282 Zn272 2.119 . S
N282 C284 1.334 . S
N282 C285 1.328 . S
C283 C284 1.391 . S
C283 N286 1.329 . S
C283 H304 0.930 . S
C284 N282 1.334 . S
C284 C283 1.391 . S
C284 H291 0.930 . S
C285 N282 1.328 . S
C285 C287 1.392 . S
C285 H292 0.930 . S
N286 C283 1.329 . S
N286 C287 1.331 . S
C287 C285 1.392 . S
C287 N286 1.331 . S
O288 Zn281 1.975 . S
O288 C289 1.252 . S
C289 O288 1.252 . S
C289 O290 1.252 . S
O290 Zn272 1.975 . S
O290 C289 1.252 . S
H291 C284 0.930 . S
H292 C285 0.930 . S
C293 C294 1.392 . S
C293 N297 1.328 . S
C293 H299 0.930 . S
C294 C293 1.392 . S
C294 N298 1.331 . S
C295 C296 1.391 . S
C295 N298 1.329 . S
C295 H305 0.930 . S
C296 C295 1.391 . S
C296 N297 1.334 . S
C296 H303 0.930 . S
N297 Zn281 2.119 . S
N297 C293 1.328 . S
N297 C296 1.334 . S
N298 C294 1.331 . S
N298 C295 1.329 . S
H299 C293 0.930 . S
C300 O280 1.257 . S
C300 O301 1.244 . S
O301 C300 1.244 . S
O302 C278 1.257 . S
O302 Zn281 2.019 . S
H303 C296 0.930 . S
H304 C283 0.930 . S
H305 C295 0.930 . S
Zn306 N310 2.020 . S
Zn306 O314 2.019 . S
Zn306 N316 2.119 . S
Zn306 O324 1.975 . S
C307 N308 1.334 . S
C307 N311 1.336 . S
N308 C307 1.334 . S
N308 C309 1.334 . S
C309 N308 1.334 . S
C309 N310 1.336 . S
N310 Zn306 2.020 . S
N310 C309 1.336 . S
N310 N311 1.354 . S
N311 C307 1.336 . S
N311 N310 1.354 . S
N311 Zn315 2.020 . S
C312 O313 1.244 . S
C312 O336 1.257 . S
O313 C312 1.244 . S
O314 Zn306 2.019 . S
O314 C334 1.257 . S
Zn315 N311 2.020 . S
Zn315 O322 1.975 . S
Zn315 N331 2.119 . S
Zn315 O336 2.019 . S
N316 Zn306 2.119 . S
N316 C318 1.334 . S
N316 C319 1.328 . S
C317 C318 1.391 . S
C317 N320 1.329 . S
C317 H338 0.930 . S
C318 N316 1.334 . S
C318 C317 1.391 . S
C318 H325 0.930 . S
C319 N316 1.328 . S
C319 C321 1.392 . S
C319 H326 0.930 . S
N320 C317 1.329 . S
N320 C321 1.331 . S
C321 C319 1.392 . S
C321 N320 1.331 . S
O322 Zn315 1.975 . S
O322 C323 1.252 . S
C323 O322 1.252 . S
C323 O324 1.252 . S
O324 Zn306 1.975 . S
O324 C323 1.252 . S
H325 C318 0.930 . S
H326 C319 0.930 . S
C327 C328 1.392 . S
C327 N331 1.328 . S
C327 H333 0.930 . S
C328 C327 1.392 . S
C328 N332 1.331 . S
C329 C330 1.391 . S
C329 N332 1.329 . S
C329 H339 0.930 . S
C330 C329 1.391 . S
C330 N331 1.334 . S
C330 H337 0.930 . S
N331 Zn315 2.119 . S
N331 C327 1.328 . S
N331 C330 1.334 . S
N332 C328 1.331 . S
N332 C329 1.329 . S
H333 C327 0.930 . S
C334 O314 1.257 . S
C334 O335 1.244 . S
O335 C334 1.244 . S
O336 C312 1.257 . S
O336 Zn315 2.019 . S
H337 C330 0.930 . S
H338 C317 0.930 . S
H339 C329 0.930 . S
Zn340 N344 2.020 . S
Zn340 O348 2.019 . S
Zn340 N350 2.119 . S
Zn340 O358 1.975 . S
C341 N342 1.334 . S
C341 N345 1.336 . S
N342 C341 1.334 . S
N342 C343 1.334 . S
C343 N342 1.334 . S
C343 N344 1.336 . S
N344 Zn340 2.020 . S
N344 C343 1.336 . S
N344 N345 1.354 . S
N345 C341 1.336 . S
N345 N344 1.354 . S
N345 Zn349 2.020 . S
C346 O347 1.244 . S
C346 O370 1.257 . S
O347 C346 1.244 . S
O348 Zn340 2.019 . S
O348 C368 1.257 . S
Zn349 N345 2.020 . S
Zn349 O356 1.975 . S
Zn349 N365 2.119 . S
Zn349 O370 2.019 . S
N350 Zn340 2.119 . S
N350 C352 1.334 . S
N350 C353 1.328 . S
C351 C352 1.391 . S
C351 N354 1.329 . S
C351 H372 0.930 . S
C352 N350 1.334 . S
C352 C351 1.391 . S
C352 H359 0.930 . S
C353 N350 1.328 . S
C353 C355 1.392 . S
C353 H360 0.930 . S
N354 C351 1.329 . S
N354 C355 1.331 . S
C355 C353 1.392 . S
C355 N354 1.331 . S
O356 Zn349 1.975 . S
O356 C357 1.252 . S
C357 O356 1.252 . S
C357 O358 1.252 . S
O358 Zn340 1.975 . S
O358 C357 1.252 . S
H359 C352 0.930 . S
H360 C353 0.930 . S
C361 C362 1.392 . S
C361 N365 1.328 . S
C361 H367 0.930 . S
C362 C361 1.392 . S
C362 N366 1.331 . S
C363 C364 1.391 . S
C363 N366 1.329 . S
C363 H373 0.930 . S
C364 C363 1.391 . S
C364 N365 1.334 . S
C364 H371 0.930 . S
N365 Zn349 2.119 . S
N365 C361 1.328 . S
N365 C364 1.334 . S
N366 C362 1.331 . S
N366 C363 1.329 . S
H367 C361 0.930 . S
C368 O348 1.257 . S
C368 O369 1.244 . S
O369 C368 1.244 . S
O370 C346 1.257 . S
O370 Zn349 2.019 . S
H371 C364 0.930 . S
H372 C351 0.930 . S
H373 C363 0.930 . S
Zn374 N378 2.020 . S
Zn374 O382 2.019 . S
Zn374 N384 2.119 . S
Zn374 O392 1.975 . S
C375 N376 1.334 . S
C375 N379 1.336 . S
N376 C375 1.334 . S
N376 C377 1.334 . S
C377 N376 1.334 . S
C377 N378 1.336 . S
N378 Zn374 2.020 . S
N378 C377 1.336 . S
N378 N379 1.354 . S
N379 C375 1.336 . S
N379 N378 1.354 . S
N379 Zn383 2.020 . S
C380 O381 1.244 . S
C380 O404 1.257 . S
O381 C380 1.244 . S
O382 Zn374 2.019 . S
O382 C402 1.257 . S
Zn383 N379 2.020 . S
Zn383 O390 1.975 . S
Zn383 N399 2.119 . S
Zn383 O404 2.019 . S
N384 Zn374 2.119 . S
N384 C386 1.334 . S
N384 C387 1.328 . S
C385 C386 1.391 . S
C385 N388 1.329 . S
C385 H406 0.930 . S
C386 N384 1.334 . S
C386 C385 1.391 . S
C386 H393 0.930 . S
C387 N384 1.328 . S
C387 C389 1.392 . S
C387 H394 0.930 . S
N388 C385 1.329 . S
N388 C389 1.331 . S
C389 C387 1.392 . S
C389 N388 1.331 . S
O390 Zn383 1.975 . S
O390 C391 1.252 . S
C391 O390 1.252 . S
C391 O392 1.252 . S
O392 Zn374 1.975 . S
O392 C391 1.252 . S
H393 C386 0.930 . S
H394 C387 0.930 . S
C395 C396 1.392 . S
C395 N399 1.328 . S
C395 H401 0.930 . S
C396 C395 1.392 . S
C396 N400 1.331 . S
C397 C398 1.391 . S
C397 N400 1.329 . S
C397 H407 0.930 . S
C398 C397 1.391 . S
C398 N399 1.334 . S
C398 H405 0.930 . S
N399 Zn383 2.119 . S
N399 C395 1.328 . S
N399 C398 1.334 . S
N400 C396 1.331 . S
N400 C397 1.329 . S
H401 C395 0.930 . S
C402 O382 1.257 . S
C402 O403 1.244 . S
O403 C402 1.244 . S
O404 C380 1.257 . S
O404 Zn383 2.019 . S
H405 C398 0.930 . S
H406 C385 0.930 . S
H407 C397 0.930 . S
C408 C409 1.382 1_554 S
C408 C410 1.397 1_545 S
C408 H424 0.937 . S
C409 C408 1.382 1_556 S
C409 C413 1.376 . S
C410 C408 1.397 1_565 S
C410 C411 1.369 1_554 S
C410 C414 1.531 . S
C411 C410 1.369 1_556 S
C411 C412 1.410 . S
C411 C419 1.503 . S
C412 C411 1.410 . S
C412 C413 1.392 1_565 S
C412 C415 1.511 . S
C413 C409 1.376 . S
C413 C412 1.392 1_545 S
C413 H425 0.929 . S
C414 C410 1.531 . S
C414 H426 0.960 . S
C414 H427 0.962 . S
C414 H428 0.960 . S
C415 C412 1.511 . S
C415 H429 0.961 . S
C415 H430 0.961 . S
C415 H431 0.961 . S
C416 C417 1.358 1_556 S
C416 C418 1.363 . S
C416 H432 0.931 . S
C417 C416 1.358 1_554 S
C417 C421 1.421 . S
C418 C416 1.363 . S
C418 C419 1.370 . S
C418 C422 1.524 . S
C419 C411 1.503 . S
C419 C418 1.370 . S
C419 C420 1.403 1_556 S
C420 C419 1.403 1_554 S
C420 C421 1.404 . S
C420 C423 1.539 . S
C421 C417 1.421 . S
C421 C420 1.404 . S
C421 H433 0.930 . S
C422 C418 1.524 . S
C422 H434 0.956 . S
C422 H435 0.961 . S
C422 H436 0.961 . S
C423 C420 1.539 . S
C423 H437 0.958 . S
C423 H438 0.961 . S
C423 H439 0.960 . S
H424 C408 0.937 . S
H425 C413 0.929 . S
H426 C414 0.960 . S
H427 C414 0.962 . S
H428 C414 0.960 . S
H429 C415 0.961 . S
H430 C415 0.961 . S
H431 C415 0.961 . S
H432 C416 0.931 . S
H433 C421 0.930 . S
H434 C422 0.956 . S
H435 C422 0.961 . S
H436 C422 0.961 . S
H437 C423 0.958 . S
H438 C423 0.961 . S
H439 C423 0.960 . S
C440 C441 1.394 . S
C440 C442 1.392 1_556 S
C440 H456 0.929 1_556 S
C441 C440 1.394 . S
C441 C445 1.376 . S
C442 C440 1.392 1_554 S
C442 C443 1.369 1_554 S
C442 C446 1.531 . S
C443 C442 1.369 1_556 S
C443 C444 1.410 . S
C443 C451 1.503 . S
C444 C443 1.410 . S
C444 C445 1.392 . S
C444 C447 1.511 . S
C445 C441 1.376 . S
C445 C444 1.392 . S
C445 H457 0.929 . S
C446 C442 1.531 . S
C446 H458 0.960 . S
C446 H459 0.962 . S
C446 H460 0.960 . S
C447 C444 1.511 . S
C447 H461 0.961 . S
C447 H462 0.961 . S
C447 H463 0.961 . S
C448 C449 1.357 1_556 S
C448 C450 1.363 . S
C448 H464 0.931 . S
C449 C448 1.357 1_554 S
C449 C453 1.422 . S
C450 C448 1.363 . S
C450 C451 1.370 . S
C450 C454 1.524 . S
C451 C443 1.503 . S
C451 C450 1.370 . S
C451 C452 1.403 1_556 S
C452 C451 1.403 1_554 S
C452 C453 1.404 . S
C452 C455 1.539 . S
C453 C449 1.422 . S
C453 C452 1.404 . S
C453 H465 0.930 . S
C454 C450 1.524 . S
C454 H466 0.956 . S
C454 H467 0.961 . S
C454 H468 0.961 . S
C455 C452 1.539 . S
C455 H469 0.958 . S
C455 H470 0.961 . S
C455 H471 0.960 . S
H456 C440 0.929 1_554 S
H457 C445 0.929 . S
H458 C446 0.960 . S
H459 C446 0.962 . S
H460 C446 0.960 . S
H461 C447 0.961 . S
H462 C447 0.961 . S
H463 C447 0.961 . S
H464 C448 0.931 . S
H465 C453 0.930 . S
H466 C454 0.956 . S
H467 C454 0.961 . S
H468 C454 0.961 . S
H469 C455 0.958 . S
H470 C455 0.961 . S
H471 C455 0.960 . S
C472 C473 1.391 . S
C472 C474 1.394 1_655 S
C472 H488 0.931 . S
C473 C472 1.391 . S
C473 C477 1.376 . S
C474 C472 1.394 1_455 S
C474 C475 1.369 . S
C474 C478 1.531 . S
C475 C474 1.369 . S
C475 C476 1.410 . S
C475 C483 1.503 . S
C476 C475 1.410 . S
C476 C477 1.392 1_455 S
C476 C479 1.511 1_556 S
C477 C473 1.376 . S
C477 C476 1.392 1_655 S
C477 H489 0.929 1_556 S
C478 C474 1.531 . S
C478 H490 0.960 . S
C478 H491 0.962 . S
C478 H492 0.960 . S
C479 C476 1.511 1_554 S
C479 H493 0.961 . S
C479 H494 0.961 . S
C479 H495 0.961 1_554 S
C480 C481 1.370 1_554 S
C480 C482 1.363 . S
C480 H496 0.931 . S
C481 C480 1.370 1_556 S
C481 C485 1.408 . S
C482 C480 1.363 . S
C482 C483 1.370 1_554 S
C482 C486 1.524 . S
C483 C475 1.503 . S
C483 C482 1.370 1_556 S
C483 C484 1.403 . S
C484 C483 1.403 . S
C484 C485 1.404 . S
C484 C487 1.539 . S
C485 C481 1.408 . S
C485 C484 1.404 . S
C485 H497 0.930 . S
C486 C482 1.524 . S
C486 H498 0.956 . S
C486 H499 0.961 . S
C486 H500 0.961 . S
C487 C484 1.539 . S
C487 H501 0.958 . S
C487 H502 0.961 . S
C487 H503 0.960 . S
H488 C472 0.931 . S
H489 C477 0.929 1_554 S
H490 C478 0.960 . S
H491 C478 0.962 . S
H492 C478 0.960 . S
H493 C479 0.961 . S
H494 C479 0.961 . S
H495 C479 0.961 1_556 S
H496 C480 0.931 . S
H497 C485 0.930 . S
H498 C486 0.956 . S
H499 C486 0.961 . S
H500 C486 0.961 . S
H501 C487 0.958 . S
H502 C487 0.961 . S
H503 C487 0.960 . S
C504 C505 1.391 1_554 S
C504 C506 1.394 1_565 S
C504 H520 0.931 . S
C505 C504 1.391 1_556 S
C505 C509 1.376 . S
C506 C504 1.394 1_545 S
C506 C507 1.369 1_554 S
C506 C510 1.531 . S
C507 C506 1.369 1_556 S
C507 C508 1.410 . S
C507 C515 1.503 . S
C508 C507 1.410 . S
C508 C509 1.392 1_545 S
C508 C511 1.511 . S
C509 C505 1.376 . S
C509 C508 1.392 1_565 S
C509 H521 0.929 . S
C510 C506 1.531 . S
C510 H522 0.960 . S
C510 H523 0.962 . S
C510 H524 0.960 . S
C511 C508 1.511 . S
C511 H525 0.961 . S
C511 H526 0.961 . S
C511 H527 0.961 . S
C512 C513 1.373 . S
C512 C514 1.363 . S
C512 H528 0.931 . S
C513 C512 1.373 . S
C513 C517 1.406 1_556 S
C514 C512 1.363 . S
C514 C515 1.370 . S
C514 C518 1.524 . S
C515 C507 1.503 . S
C515 C514 1.370 . S
C515 C516 1.403 1_556 S
C516 C515 1.403 1_554 S
C516 C517 1.404 . S
C516 C519 1.539 . S
C517 C513 1.406 1_554 S
C517 C516 1.404 . S
C517 H529 0.930 . S
C518 C514 1.524 . S
C518 H530 0.956 . S
C518 H531 0.961 . S
C518 H532 0.961 . S
C519 C516 1.539 . S
C519 H533 0.958 . S
C519 H534 0.961 . S
C519 H535 0.960 1_554 S
H520 C504 0.931 . S
H521 C509 0.929 . S
H522 C510 0.960 . S
H523 C510 0.962 . S
H524 C510 0.960 . S
H525 C511 0.961 . S
H526 C511 0.961 . S
H527 C511 0.961 . S
H528 C512 0.931 . S
H529 C517 0.930 . S
H530 C518 0.956 . S
H531 C518 0.961 . S
H532 C518 0.961 . S
H533 C519 0.958 . S
H534 C519 0.961 . S
H535 C519 0.960 1_556 S
C536 C537 1.391 . S
C536 C538 1.394 . S
C536 H552 0.931 . S
C537 C536 1.391 . S
C537 C541 1.387 . S
C538 C536 1.394 . S
C538 C539 1.369 . S
C538 C542 1.531 . S
C539 C538 1.369 . S
C539 C540 1.410 1_556 S
C539 C547 1.503 . S
C540 C539 1.410 1_554 S
C540 C541 1.388 1_554 S
C540 C543 1.511 . S
C541 C537 1.387 . S
C541 C540 1.388 1_556 S
C541 H553 0.923 1_556 S
C542 C538 1.531 . S
C542 H554 0.960 . S
C542 H555 0.962 . S
C542 H556 0.960 . S
C543 C540 1.511 . S
C543 H557 0.961 . S
C543 H558 0.961 . S
C543 H559 0.961 . S
C544 C545 1.351 1_556 S
C544 C546 1.363 . S
C544 H560 0.931 . S
C545 C544 1.351 1_554 S
C545 C549 1.427 . S
C546 C544 1.363 . S
C546 C547 1.370 . S
C546 C550 1.524 . S
C547 C539 1.503 . S
C547 C546 1.370 . S
C547 C548 1.403 1_556 S
C548 C547 1.403 1_554 S
C548 C549 1.404 . S
C548 C551 1.539 . S
C549 C545 1.427 . S
C549 C548 1.404 . S
C549 H561 0.930 . S
C550 C546 1.524 . S
C550 H562 0.956 . S
C550 H563 0.961 . S
C550 H564 0.961 . S
C551 C548 1.539 . S
C551 H565 0.958 . S
C551 H566 0.961 . S
C551 H567 0.960 . S
H552 C536 0.931 . S
H553 C541 0.923 1_554 S
H554 C542 0.960 . S
H555 C542 0.962 . S
H556 C542 0.960 . S
H557 C543 0.961 . S
H558 C543 0.961 . S
H559 C543 0.961 . S
H560 C544 0.931 . S
H561 C549 0.930 . S
H562 C550 0.956 . S
H563 C550 0.961 . S
H564 C550 0.961 . S
H565 C551 0.958 . S
H566 C551 0.961 . S
H567 C551 0.960 . S
C568 C569 1.391 . S
C568 C570 1.394 1_455 S
C568 H584 0.931 . S
C569 C568 1.391 . S
C569 C573 1.376 . S
C570 C568 1.394 1_655 S
C570 C571 1.369 . S
C570 C574 1.531 . S
C571 C570 1.369 . S
C571 C572 1.410 . S
C571 C579 1.503 . S
C572 C571 1.410 . S
C572 C573 1.392 1_655 S
C572 C575 1.511 . S
C573 C569 1.376 . S
C573 C572 1.392 1_455 S
C573 H585 0.929 . S
C574 C570 1.531 . S
C574 H586 0.960 . S
C574 H587 0.962 . S
C574 H588 0.960 . S
C575 C572 1.511 . S
C575 H589 0.962 1_556 S
C575 H590 0.950 1_556 S
C575 H591 0.961 . S
C576 C577 1.370 1_554 S
C576 C578 1.363 . S
C576 H592 0.931 . S
C577 C576 1.370 1_556 S
C577 C581 1.408 . S
C578 C576 1.363 . S
C578 C579 1.370 1_554 S
C578 C582 1.524 . S
C579 C571 1.503 . S
C579 C578 1.370 1_556 S
C579 C580 1.403 . S
C580 C579 1.403 . S
C580 C581 1.404 . S
C580 C583 1.539 . S
C581 C577 1.408 . S
C581 C580 1.404 . S
C581 H593 0.930 . S
C582 C578 1.524 . S
C582 H594 0.956 . S
C582 H595 0.961 . S
C582 H596 0.961 . S
C583 C580 1.539 . S
C583 H597 0.958 . S
C583 H598 0.961 . S
C583 H599 0.960 . S
H584 C568 0.931 . S
H585 C573 0.929 . S
H586 C574 0.960 . S
H587 C574 0.962 . S
H588 C574 0.960 . S
H589 C575 0.962 1_554 S
H590 C575 0.950 1_554 S
H591 C575 0.961 . S
H592 C576 0.931 . S
H593 C581 0.930 . S
H594 C582 0.956 . S
H595 C582 0.961 . S
H596 C582 0.961 . S
H597 C583 0.958 . S
H598 C583 0.961 . S
H599 C583 0.960 . S
C600 C601 1.391 . S
C600 C602 1.394 1_655 S
C600 H616 0.931 . S
C601 C600 1.391 . S
C601 C605 1.376 . S
C602 C600 1.394 1_455 S
C602 C603 1.369 . S
C602 C606 1.531 . S
C603 C602 1.369 . S
C603 C604 1.410 . S
C603 C611 1.503 . S
C604 C603 1.410 . S
C604 C605 1.392 1_455 S
C604 C607 1.511 . S
C605 C601 1.376 . S
C605 C604 1.392 1_655 S
C605 H617 0.929 . S
C606 C602 1.531 . S
C606 H618 0.960 . S
C606 H619 0.962 . S
C606 H620 0.960 . S
C607 C604 1.511 . S
C607 H621 0.961 . S
C607 H622 0.961 . S
C607 H623 0.961 . S
C608 C609 1.370 . S
C608 C610 1.363 . S
C608 H624 0.931 . S
C609 C608 1.370 . S
C609 C613 1.408 . S
C610 C608 1.363 . S
C610 C611 1.370 . S
C610 C614 1.524 . S
C611 C603 1.503 . S
C611 C610 1.370 . S
C611 C612 1.403 . S
C612 C611 1.403 . S
C612 C613 1.404 . S
C612 C615 1.539 . S
C613 C609 1.408 . S
C613 C612 1.404 . S
C613 H625 0.930 . S
C614 C610 1.524 . S
C614 H626 0.956 . S
C614 H627 0.961 . S
C614 H628 0.961 . S
C615 C612 1.539 . S
C615 H629 0.958 . S
C615 H630 0.961 . S
C615 H631 0.960 . S
H616 C600 0.931 . S
H617 C605 0.929 . S
H618 C606 0.960 . S
H619 C606 0.962 . S
H620 C606 0.960 . S
H621 C607 0.961 . S
H622 C607 0.961 . S
H623 C607 0.961 . S
H624 C608 0.931 . S
H625 C613 0.930 . S
H626 C614 0.956 . S
H627 C614 0.961 . S
H628 C614 0.961 . S
H629 C615 0.958 . S
H630 C615 0.961 . S
H631 C615 0.960 . S
C632 C633 1.391 . S
C632 C634 1.394 1_565 S
C632 H648 0.931 . S
C633 C632 1.391 . S
C633 C637 1.376 . S
C634 C632 1.394 1_545 S
C634 C635 1.369 . S
C634 C638 1.531 . S
C635 C634 1.369 . S
C635 C636 1.410 . S
C635 C643 1.503 . S
C636 C635 1.410 . S
C636 C637 1.392 1_545 S
C636 C639 1.511 . S
C637 C633 1.376 . S
C637 C636 1.392 1_565 S
C637 H649 0.929 . S
C638 C634 1.531 . S
C638 H650 0.960 . S
C638 H651 0.962 . S
C638 H652 0.960 . S
C639 C636 1.511 . S
C639 H653 0.961 . S
C639 H654 0.961 . S
C639 H655 0.961 . S
C640 C641 1.370 . S
C640 C642 1.363 . S
C640 H656 0.931 . S
C641 C640 1.370 . S
C641 C645 1.408 . S
C642 C640 1.363 . S
C642 C643 1.370 . S
C642 C646 1.524 . S
C643 C635 1.503 . S
C643 C642 1.370 . S
C643 C644 1.403 . S
C644 C643 1.403 . S
C644 C645 1.404 . S
C644 C647 1.539 . S
C645 C641 1.408 . S
C645 C644 1.404 . S
C645 H657 0.930 . S
C646 C642 1.524 . S
C646 H658 0.956 . S
C646 H659 0.961 . S
C646 H660 0.961 . S
C647 C644 1.539 . S
C647 H661 0.958 . S
C647 H662 0.961 . S
C647 H663 0.960 . S
H648 C632 0.931 . S
H649 C637 0.929 . S
H650 C638 0.960 . S
H651 C638 0.962 . S
H652 C638 0.960 . S
H653 C639 0.961 . S
H654 C639 0.961 . S
H655 C639 0.961 . S
H656 C640 0.931 . S
H657 C645 0.930 . S
H658 C646 0.956 . S
H659 C646 0.961 . S
H660 C646 0.961 . S
H661 C647 0.958 . S
H662 C647 0.961 . S
H663 C647 0.960 . S
C664 C665 1.391 . S
C664 C666 1.394 . S
C664 H680 0.931 . S
C665 C664 1.391 . S
C665 C669 1.376 . S
C666 C664 1.394 . S
C666 C667 1.369 . S
C666 C670 1.531 . S
C667 C666 1.369 . S
C667 C668 1.410 . S
C667 C675 1.503 . S
C668 C667 1.410 . S
C668 C669 1.392 . S
C668 C671 1.511 . S
C669 C665 1.376 . S
C669 C668 1.392 . S
C669 H681 0.929 . S
C670 C666 1.531 . S
C670 H682 0.960 . S
C670 H683 0.962 . S
C670 H684 0.960 . S
C671 C668 1.511 . S
C671 H685 0.961 . S
C671 H686 0.961 . S
C671 H687 0.961 . S
C672 C673 1.370 . S
C672 C674 1.363 . S
C672 H688 0.931 . S
C673 C672 1.370 . S
C673 C677 1.408 . S
C674 C672 1.363 . S
C674 C675 1.370 . S
C674 C678 1.524 . S
C675 C667 1.503 . S
C675 C674 1.370 . S
C675 C676 1.403 . S
C676 C675 1.403 . S
C676 C677 1.404 . S
C676 C679 1.539 . S
C677 C673 1.408 . S
C677 C676 1.404 . S
C677 H689 0.930 . S
C678 C674 1.524 . S
C678 H690 0.956 . S
C678 H691 0.961 . S
C678 H692 0.961 . S
C679 C676 1.539 . S
C679 H693 0.958 . S
C679 H694 0.961 . S
C679 H695 0.960 . S
H680 C664 0.931 . S
H681 C669 0.929 . S
H682 C670 0.960 . S
H683 C670 0.962 . S
H684 C670 0.960 . S
H685 C671 0.961 . S
H686 C671 0.961 . S
H687 C671 0.961 . S
H688 C672 0.931 . S
H689 C677 0.930 . S
H690 C678 0.956 . S
H691 C678 0.961 . S
H692 C678 0.961 . S
H693 C679 0.958 . S
H694 C679 0.961 . S
H695 C679 0.960 . S
C696 C697 1.391 . S
C696 C698 1.394 . S
C696 H712 0.931 . S
C697 C696 1.391 . S
C697 C701 1.376 . S
C698 C696 1.394 . S
C698 C699 1.369 . S
C698 C702 1.531 . S
C699 C698 1.369 . S
C699 C700 1.410 . S
C699 C707 1.503 . S
C700 C699 1.410 . S
C700 C701 1.392 . S
C700 C703 1.511 . S
C701 C697 1.376 . S
C701 C700 1.392 . S
C701 H713 0.929 . S
C702 C698 1.531 . S
C702 H714 0.960 . S
C702 H715 0.962 . S
C702 H716 0.960 . S
C703 C700 1.511 . S
C703 H717 0.961 . S
C703 H718 0.961 . S
C703 H719 0.961 . S
C704 C705 1.370 . S
C704 C706 1.363 1_455 S
C704 H720 0.931 . S
C705 C704 1.370 . S
C705 C709 1.408 . S
C706 C704 1.363 1_655 S
C706 C707 1.370 . S
C706 C710 1.524 . S
C707 C699 1.503 . S
C707 C706 1.370 . S
C707 C708 1.403 . S
C708 C707 1.403 . S
C708 C709 1.404 1_655 S
C708 C711 1.539 . S
C709 C705 1.408 . S
C709 C708 1.404 1_455 S
C709 H721 0.930 . S
C710 C706 1.524 . S
C710 H722 0.956 . S
C710 H723 0.961 . S
C710 H724 0.961 . S
C711 C708 1.539 . S
C711 H725 0.958 . S
C711 H726 0.961 . S
C711 H727 0.960 . S
H712 C696 0.931 . S
H713 C701 0.929 . S
H714 C702 0.960 . S
H715 C702 0.962 . S
H716 C702 0.960 . S
H717 C703 0.961 . S
H718 C703 0.961 . S
H719 C703 0.961 . S
H720 C704 0.931 . S
H721 C709 0.930 . S
H722 C710 0.956 . S
H723 C710 0.961 . S
H724 C710 0.961 . S
H725 C711 0.958 . S
H726 C711 0.961 . S
H727 C711 0.960 . S
C728 C729 1.391 . S
C728 C730 1.394 . S
C728 H744 0.931 . S
C729 C728 1.391 . S
C729 C733 1.376 . S
C730 C728 1.394 . S
C730 C731 1.369 . S
C730 C734 1.531 . S
C731 C730 1.369 . S
C731 C732 1.410 . S
C731 C739 1.503 . S
C732 C731 1.410 . S
C732 C733 1.392 . S
C732 C735 1.511 . S
C733 C729 1.376 . S
C733 C732 1.392 . S
C733 H745 0.929 . S
C734 C730 1.531 . S
C734 H746 0.960 . S
C734 H747 0.962 . S
C734 H748 0.960 . S
C735 C732 1.511 . S
C735 H749 0.961 . S
C735 H750 0.961 . S
C735 H751 0.961 . S
C736 C737 1.370 . S
C736 C738 1.363 1_545 S
C736 H752 0.931 . S
C737 C736 1.370 . S
C737 C741 1.408 . S
C738 C736 1.363 1_565 S
C738 C739 1.370 . S
C738 C742 1.524 . S
C739 C731 1.503 . S
C739 C738 1.370 . S
C739 C740 1.403 . S
C740 C739 1.403 . S
C740 C741 1.404 1_565 S
C740 C743 1.539 . S
C741 C737 1.408 . S
C741 C740 1.404 1_545 S
C741 H753 0.930 . S
C742 C738 1.524 . S
C742 H754 0.956 . S
C742 H755 0.961 . S
C742 H756 0.961 . S
C743 C740 1.539 . S
C743 H757 0.958 . S
C743 H758 0.961 . S
C743 H759 0.960 . S
H744 C728 0.931 . S
H745 C733 0.929 . S
H746 C734 0.960 . S
H747 C734 0.962 . S
H748 C734 0.960 . S
H749 C735 0.961 . S
H750 C735 0.961 . S
H751 C735 0.961 . S
H752 C736 0.931 . S
H753 C741 0.930 . S
H754 C742 0.956 . S
H755 C742 0.961 . S
H756 C742 0.961 . S
H757 C743 0.958 . S
H758 C743 0.961 . S
H759 C743 0.960 . S
C760 C761 1.391 . S
C760 C762 1.394 . S
C760 H776 0.931 . S
C761 C760 1.391 . S
C761 C765 1.376 . S
C762 C760 1.394 . S
C762 C763 1.369 . S
C762 C766 1.531 . S
C763 C762 1.369 . S
C763 C764 1.410 . S
C763 C771 1.503 . S
C764 C763 1.410 . S
C764 C765 1.392 . S
C764 C767 1.511 . S
C765 C761 1.376 . S
C765 C764 1.392 . S
C765 H777 0.929 . S
C766 C762 1.531 . S
C766 H778 0.960 . S
C766 H779 0.962 . S
C766 H780 0.960 . S
C767 C764 1.511 . S
C767 H781 0.961 . S
C767 H782 0.961 . S
C767 H783 0.961 . S
C768 C769 1.370 . S
C768 C770 1.363 . S
C768 H784 0.931 . S
C769 C768 1.370 . S
C769 C773 1.408 . S
C770 C768 1.363 . S
C770 C771 1.370 . S
C770 C774 1.524 . S
C771 C763 1.503 . S
C771 C770 1.370 . S
C771 C772 1.403 . S
C772 C771 1.403 . S
C772 C773 1.404 . S
C772 C775 1.539 . S
C773 C769 1.408 . S
C773 C772 1.404 . S
C773 H785 0.930 . S
C774 C770 1.524 . S
C774 H786 0.956 . S
C774 H787 0.961 . S
C774 H788 0.961 . S
C775 C772 1.539 . S
C775 H789 0.958 . S
C775 H790 0.961 . S
C775 H791 0.960 . S
H776 C760 0.931 . S
H777 C765 0.929 . S
H778 C766 0.960 . S
H779 C766 0.962 . S
H780 C766 0.960 . S
H781 C767 0.961 . S
H782 C767 0.961 . S
H783 C767 0.961 . S
H784 C768 0.931 . S
H785 C773 0.930 . S
H786 C774 0.956 . S
H787 C774 0.961 . S
H788 C774 0.961 . S
H789 C775 0.958 . S
H790 C775 0.961 . S
H791 C775 0.960 . S
C792 C793 1.391 . S
C792 C794 1.394 . S
C792 H808 0.931 . S
C793 C792 1.391 . S
C793 C797 1.376 . S
C794 C792 1.394 . S
C794 C795 1.369 . S
C794 C798 1.531 . S
C795 C794 1.369 . S
C795 C796 1.410 . S
C795 C803 1.503 . S
C796 C795 1.410 . S
C796 C797 1.392 . S
C796 C799 1.511 . S
C797 C793 1.376 . S
C797 C796 1.392 . S
C797 H809 0.929 . S
C798 C794 1.531 . S
C798 H810 0.960 . S
C798 H811 0.962 . S
C798 H812 0.960 . S
C799 C796 1.511 . S
C799 H813 0.961 . S
C799 H814 0.961 . S
C799 H815 0.961 . S
C800 C801 1.370 . S
C800 C802 1.363 . S
C800 H816 0.931 . S
C801 C800 1.370 . S
C801 C805 1.408 . S
C802 C800 1.363 . S
C802 C803 1.370 . S
C802 C806 1.524 . S
C803 C795 1.503 . S
C803 C802 1.370 . S
C803 C804 1.403 . S
C804 C803 1.403 . S
C804 C805 1.404 . S
C804 C807 1.539 . S
C805 C801 1.408 . S
C805 C804 1.404 . S
C805 H817 0.930 . S
C806 C802 1.524 . S
C806 H818 0.956 . S
C806 H819 0.961 . S
C806 H820 0.961 . S
C807 C804 1.539 . S
C807 H821 0.958 . S
C807 H822 0.961 . S
C807 H823 0.960 . S
H808 C792 0.931 . S
H809 C797 0.929 . S
H810 C798 0.960 . S
H811 C798 0.962 . S
H812 C798 0.960 . S
H813 C799 0.961 . S
H814 C799 0.961 . S
H815 C799 0.961 . S
H816 C800 0.931 . S
H817 C805 0.930 . S
H818 C806 0.956 . S
H819 C806 0.961 . S
H820 C806 0.961 . S
H821 C807 0.958 . S
H822 C807 0.961 . S
H823 C807 0.960 . S
C824 C825 1.391 . S
C824 C826 1.394 . S
C824 H840 0.931 . S
C825 C824 1.391 . S
C825 C829 1.376 . S
C826 C824 1.394 . S
C826 C827 1.369 . S
C826 C830 1.531 . S
C827 C826 1.369 . S
C827 C828 1.410 . S
C827 C835 1.503 . S
C828 C827 1.410 . S
C828 C829 1.392 . S
C828 C831 1.511 . S
C829 C825 1.376 . S
C829 C828 1.392 . S
C829 H841 0.929 . S
C830 C826 1.531 . S
C830 H842 0.960 . S
C830 H843 0.962 . S
C830 H844 0.960 . S
C831 C828 1.511 . S
C831 H845 0.961 . S
C831 H846 0.961 . S
C831 H847 0.961 . S
C832 C833 1.370 . S
C832 C834 1.363 . S
C832 H848 0.931 . S
C833 C832 1.370 . S
C833 C837 1.408 . S
C834 C832 1.363 . S
C834 C835 1.370 . S
C834 C838 1.524 . S
C835 C827 1.503 . S
C835 C834 1.370 . S
C835 C836 1.403 . S
C836 C835 1.403 . S
C836 C837 1.404 . S
C836 C839 1.539 . S
C837 C833 1.408 . S
C837 C836 1.404 . S
C837 H849 0.930 . S
C838 C834 1.524 . S
C838 H850 0.956 . S
C838 H851 0.961 . S
C838 H852 0.961 . S
C839 C836 1.539 . S
C839 H853 0.958 . S
C839 H854 0.961 . S
C839 H855 0.960 . S
H840 C824 0.931 . S
H841 C829 0.929 . S
H842 C830 0.960 . S
H843 C830 0.962 . S
H844 C830 0.960 . S
H845 C831 0.961 . S
H846 C831 0.961 . S
H847 C831 0.961 . S
H848 C832 0.931 . S
H849 C837 0.930 . S
H850 C838 0.956 . S
H851 C838 0.961 . S
H852 C838 0.961 . S
H853 C839 0.958 . S
H854 C839 0.961 . S
H855 C839 0.960 . S
C856 C857 1.391 . S
C856 C858 1.394 . S
C856 H872 0.931 . S
C857 C856 1.391 . S
C857 C861 1.376 . S
C858 C856 1.394 . S
C858 C859 1.369 . S
C858 C862 1.531 . S
C859 C858 1.369 . S
C859 C860 1.410 . S
C859 C867 1.503 . S
C860 C859 1.410 . S
C860 C861 1.392 . S
C860 C863 1.511 . S
C861 C857 1.376 . S
C861 C860 1.392 . S
C861 H873 0.929 . S
C862 C858 1.531 . S
C862 H874 0.960 . S
C862 H875 0.962 . S
C862 H876 0.960 . S
C863 C860 1.511 . S
C863 H877 0.961 . S
C863 H878 0.961 . S
C863 H879 0.961 . S
C864 C865 1.370 . S
C864 C866 1.363 . S
C864 H880 0.931 . S
C865 C864 1.370 . S
C865 C869 1.408 . S
C866 C864 1.363 . S
C866 C867 1.370 . S
C866 C870 1.524 . S
C867 C859 1.503 . S
C867 C866 1.370 . S
C867 C868 1.403 . S
C868 C867 1.403 . S
C868 C869 1.404 . S
C868 C871 1.539 . S
C869 C865 1.408 . S
C869 C868 1.404 . S
C869 H881 0.930 . S
C870 C866 1.524 . S
C870 H882 0.956 . S
C870 H883 0.961 . S
C870 H884 0.961 . S
C871 C868 1.539 . S
C871 H885 0.958 . S
C871 H886 0.961 . S
C871 H887 0.960 . S
H872 C856 0.931 . S
H873 C861 0.929 . S
H874 C862 0.960 . S
H875 C862 0.962 . S
H876 C862 0.960 . S
H877 C863 0.961 . S
H878 C863 0.961 . S
H879 C863 0.961 . S
H880 C864 0.931 . S
H881 C869 0.930 . S
H882 C870 0.956 . S
H883 C870 0.961 . S
H884 C870 0.961 . S
H885 C871 0.958 . S
H886 C871 0.961 . S
H887 C871 0.960 . S
C888 C889 1.391 . S
C888 C890 1.394 . S
C888 H904 0.931 . S
C889 C888 1.391 . S
C889 C893 1.376 . S
C890 C888 1.394 . S
C890 C891 1.369 . S
C890 C894 1.531 . S
C891 C890 1.369 . S
C891 C892 1.410 . S
C891 C899 1.503 . S
C892 C891 1.410 . S
C892 C893 1.392 . S
C892 C895 1.511 . S
C893 C889 1.376 . S
C893 C892 1.392 . S
C893 H905 0.929 . S
C894 C890 1.531 . S
C894 H906 0.960 . S
C894 H907 0.962 . S
C894 H908 0.960 . S
C895 C892 1.511 . S
C895 H909 0.961 . S
C895 H910 0.961 . S
C895 H911 0.961 . S
C896 C897 1.370 . S
C896 C898 1.363 . S
C896 H912 0.931 . S
C897 C896 1.370 . S
C897 C901 1.408 . S
C898 C896 1.363 . S
C898 C899 1.370 . S
C898 C902 1.524 . S
C899 C891 1.503 . S
C899 C898 1.370 . S
C899 C900 1.403 . S
C900 C899 1.403 . S
C900 C901 1.404 . S
C900 C903 1.539 . S
C901 C897 1.408 . S
C901 C900 1.404 . S
C901 H913 0.930 . S
C902 C898 1.524 . S
C902 H914 0.956 . S
C902 H915 0.961 . S
C902 H916 0.961 . S
C903 C900 1.539 . S
C903 H917 0.958 . S
C903 H918 0.961 . S
C903 H919 0.960 . S
H904 C888 0.931 . S
H905 C893 0.929 . S
H906 C894 0.960 . S
H907 C894 0.962 . S
H908 C894 0.960 . S
H909 C895 0.961 . S
H910 C895 0.961 . S
H911 C895 0.961 . S
H912 C896 0.931 . S
H913 C901 0.930 . S
H914 C902 0.956 . S
H915 C902 0.961 . S
H916 C902 0.961 . S
H917 C903 0.958 . S
H918 C903 0.961 . S
H919 C903 0.960 . S
C920 C921 1.391 . S
C920 C922 1.394 . S
C920 H936 0.931 . S
C921 C920 1.391 . S
C921 C925 1.376 . S
C922 C920 1.394 . S
C922 C923 1.369 . S
C922 C926 1.531 . S
C923 C922 1.369 . S
C923 C924 1.410 . S
C923 C931 1.503 . S
C924 C923 1.410 . S
C924 C925 1.392 . S
C924 C927 1.511 . S
C925 C921 1.376 . S
C925 C924 1.392 . S
C925 H937 0.929 . S
C926 C922 1.531 . S
C926 H938 0.960 . S
C926 H939 0.962 . S
C926 H940 0.960 . S
C927 C924 1.511 . S
C927 H941 0.961 . S
C927 H942 0.961 . S
C927 H943 0.961 . S
C928 C929 1.370 . S
C928 C930 1.363 . S
C928 H944 0.931 . S
C929 C928 1.370 . S
C929 C933 1.408 . S
C930 C928 1.363 . S
C930 C931 1.370 . S
C930 C934 1.524 . S
C931 C923 1.503 . S
C931 C930 1.370 . S
C931 C932 1.403 . S
C932 C931 1.403 . S
C932 C933 1.404 . S
C932 C935 1.539 . S
C933 C929 1.408 . S
C933 C932 1.404 . S
C933 H945 0.930 . S
C934 C930 1.524 . S
C934 H946 0.956 . S
C934 H947 0.961 . S
C934 H948 0.961 . S
C935 C932 1.539 . S
C935 H949 0.958 . S
C935 H950 0.961 . S
C935 H951 0.960 . S
H936 C920 0.931 . S
H937 C925 0.929 . S
H938 C926 0.960 . S
H939 C926 0.962 . S
H940 C926 0.960 . S
H941 C927 0.961 . S
H942 C927 0.961 . S
H943 C927 0.961 . S
H944 C928 0.931 . S
H945 C933 0.930 . S
H946 C934 0.956 . S
H947 C934 0.961 . S
H948 C934 0.961 . S
H949 C935 0.958 . S
H950 C935 0.961 . S
H951 C935 0.960 . S
C952 C953 1.391 . S
C952 C954 1.394 . S
C952 H968 0.931 . S
C953 C952 1.391 . S
C953 C957 1.376 . S
C954 C952 1.394 . S
C954 C955 1.369 . S
C954 C958 1.531 . S
C955 C954 1.369 . S
C955 C956 1.410 . S
C955 C963 1.503 . S
C956 C955 1.410 . S
C956 C957 1.392 . S
C956 C959 1.511 . S
C957 C953 1.376 . S
C957 C956 1.392 . S
C957 H969 0.929 . S
C958 C954 1.531 . S
C958 H970 0.960 . S
C958 H971 0.962 . S
C958 H972 0.960 . S
C959 C956 1.511 . S
C959 H973 0.961 . S
C959 H974 0.961 . S
C959 H975 0.961 . S
C960 C961 1.370 . S
C960 C962 1.363 . S
C960 H976 0.931 . S
C961 C960 1.370 . S
C961 C965 1.408 . S
C962 C960 1.363 . S
C962 C963 1.370 . S
C962 C966 1.524 . S
C963 C955 1.503 . S
C963 C962 1.370 . S
C963 C964 1.403 . S
C964 C963 1.403 . S
C964 C965 1.404 . S
C964 C967 1.539 . S
C965 C961 1.408 . S
C965 C964 1.404 . S
C965 H977 0.930 . S
C966 C962 1.524 . S
C966 H978 0.956 . S
C966 H979 0.961 . S
C966 H980 0.961 . S
C967 C964 1.539 . S
C967 H981 0.958 . S
C967 H982 0.961 . S
C967 H983 0.960 . S
H968 C952 0.931 . S
H969 C957 0.929 . S
H970 C958 0.960 . S
H971 C958 0.962 . S
H972 C958 0.960 . S
H973 C959 0.961 . S
H974 C959 0.961 . S
H975 C959 0.961 . S
H976 C960 0.931 . S
H977 C965 0.930 . S
H978 C966 0.956 . S
H979 C966 0.961 . S
H980 C966 0.961 . S
H981 C967 0.958 . S
H982 C967 0.961 . S
H983 C967 0.960 . S
C984 C985 1.391 . S
C984 C986 1.394 . S
C984 H1000 0.931 . S
C985 C984 1.391 . S
C985 C989 1.376 . S
C986 C984 1.394 . S
C986 C987 1.369 . S
C986 C990 1.531 . S
C987 C986 1.369 . S
C987 C988 1.410 . S
C987 C995 1.503 . S
C988 C987 1.410 . S
C988 C989 1.392 . S
C988 C991 1.511 . S
C989 C985 1.376 . S
C989 C988 1.392 . S
C989 H1001 0.929 . S
C990 C986 1.531 . S
C990 H1002 0.960 . S
C990 H1003 0.962 . S
C990 H1004 0.960 . S
C991 C988 1.511 . S
C991 H1005 0.961 . S
C991 H1006 0.961 . S
C991 H1007 0.961 . S
C992 C993 1.370 . S
C992 C994 1.363 . S
C992 H1008 0.931 . S
C993 C992 1.370 . S
C993 C997 1.408 . S
C994 C992 1.363 . S
C994 C995 1.370 . S
C994 C998 1.524 . S
C995 C987 1.503 . S
C995 C994 1.370 . S
C995 C996 1.403 . S
C996 C995 1.403 . S
C996 C997 1.404 . S
C996 C999 1.539 . S
C997 C993 1.408 . S
C997 C996 1.404 . S
C997 H1009 0.930 . S
C998 C994 1.524 . S
C998 H1010 0.956 . S
C998 H1011 0.961 . S
C998 H1012 0.961 . S
C999 C996 1.539 . S
C999 H1013 0.958 . S
C999 H1014 0.961 . S
C999 H1015 0.960 . S
H1000 C984 0.931 . S
H1001 C989 0.929 . S
H1002 C990 0.960 . S
H1003 C990 0.962 . S
H1004 C990 0.960 . S
H1005 C991 0.961 . S
H1006 C991 0.961 . S
H1007 C991 0.961 . S
H1008 C992 0.931 . S
H1009 C997 0.930 . S
H1010 C998 0.956 . S
H1011 C998 0.961 . S
H1012 C998 0.961 . S
H1013 C999 0.958 . S
H1014 C999 0.961 . S
H1015 C999 0.960 . S
C1016 C1017 1.391 . S
C1016 C1018 1.394 . S
C1016 H1032 0.931 . S
C1017 C1016 1.391 . S
C1017 C1021 1.376 . S
C1018 C1016 1.394 . S
C1018 C1019 1.369 . S
C1018 C1022 1.531 . S
C1019 C1018 1.369 . S
C1019 C1020 1.410 . S
C1019 C1027 1.503 . S
C1020 C1019 1.410 . S
C1020 C1021 1.392 . S
C1020 C1023 1.511 . S
C1021 C1017 1.376 . S
C1021 C1020 1.392 . S
C1021 H1033 0.929 . S
C1022 C1018 1.531 . S
C1022 H1034 0.960 . S
C1022 H1035 0.962 . S
C1022 H1036 0.960 . S
C1023 C1020 1.511 . S
C1023 H1037 0.961 . S
C1023 H1038 0.961 . S
C1023 H1039 0.961 . S
C1024 C1025 1.370 . S
C1024 C1026 1.363 . S
C1024 H1040 0.931 . S
C1025 C1024 1.370 . S
C1025 C1029 1.408 . S
C1026 C1024 1.363 . S
C1026 C1027 1.370 . S
C1026 C1030 1.524 . S
C1027 C1019 1.503 . S
C1027 C1026 1.370 . S
C1027 C1028 1.403 . S
C1028 C1027 1.403 . S
C1028 C1029 1.404 . S
C1028 C1031 1.539 . S
C1029 C1025 1.408 . S
C1029 C1028 1.404 . S
C1029 H1041 0.930 . S
C1030 C1026 1.524 . S
C1030 H1042 0.956 . S
C1030 H1043 0.961 . S
C1030 H1044 0.961 . S
C1031 C1028 1.539 . S
C1031 H1045 0.958 . S
C1031 H1046 0.961 . S
C1031 H1047 0.960 . S
H1032 C1016 0.931 . S
H1033 C1021 0.929 . S
H1034 C1022 0.960 . S
H1035 C1022 0.962 . S
H1036 C1022 0.960 . S
H1037 C1023 0.961 . S
H1038 C1023 0.961 . S
H1039 C1023 0.961 . S
H1040 C1024 0.931 . S
H1041 C1029 0.930 . S
H1042 C1030 0.956 . S
H1043 C1030 0.961 . S
H1044 C1030 0.961 . S
H1045 C1031 0.958 . S
H1046 C1031 0.961 . S
H1047 C1031 0.960 . S
C1048 C1049 1.391 . S
C1048 C1050 1.394 . S
C1048 H1064 0.931 . S
C1049 C1048 1.391 . S
C1049 C1053 1.376 . S
C1050 C1048 1.394 . S
C1050 C1051 1.369 . S
C1050 C1054 1.531 . S
C1051 C1050 1.369 . S
C1051 C1052 1.410 . S
C1051 C1059 1.503 . S
C1052 C1051 1.410 . S
C1052 C1053 1.392 . S
C1052 C1055 1.511 . S
C1053 C1049 1.376 . S
C1053 C1052 1.392 . S
C1053 H1065 0.929 . S
C1054 C1050 1.531 . S
C1054 H1066 0.960 . S
C1054 H1067 0.962 . S
C1054 H1068 0.960 . S
C1055 C1052 1.511 . S
C1055 H1069 0.961 . S
C1055 H1070 0.961 . S
C1055 H1071 0.961 . S
C1056 C1057 1.370 . S
C1056 C1058 1.363 . S
C1056 H1072 0.931 . S
C1057 C1056 1.370 . S
C1057 C1061 1.408 . S
C1058 C1056 1.363 . S
C1058 C1059 1.370 . S
C1058 C1062 1.524 . S
C1059 C1051 1.503 . S
C1059 C1058 1.370 . S
C1059 C1060 1.403 . S
C1060 C1059 1.403 . S
C1060 C1061 1.404 . S
C1060 C1063 1.539 . S
C1061 C1057 1.408 . S
C1061 C1060 1.404 . S
C1061 H1073 0.930 . S
C1062 C1058 1.524 . S
C1062 H1074 0.956 . S
C1062 H1075 0.961 . S
C1062 H1076 0.961 . S
C1063 C1060 1.539 . S
C1063 H1077 0.958 . S
C1063 H1078 0.961 . S
C1063 H1079 0.960 . S
H1064 C1048 0.931 . S
H1065 C1053 0.929 . S
H1066 C1054 0.960 . S
H1067 C1054 0.962 . S
H1068 C1054 0.960 . S
H1069 C1055 0.961 . S
H1070 C1055 0.961 . S
H1071 C1055 0.961 . S
H1072 C1056 0.931 . S
H1073 C1061 0.930 . S
H1074 C1062 0.956 . S
H1075 C1062 0.961 . S
H1076 C1062 0.961 . S
H1077 C1063 0.958 . S
H1078 C1063 0.961 . S
H1079 C1063 0.960 . S
C1080 C1081 1.391 . S
C1080 C1082 1.394 . S
C1080 H1096 0.931 . S
C1081 C1080 1.391 . S
C1081 C1085 1.376 . S
C1082 C1080 1.394 . S
C1082 C1083 1.369 . S
C1082 C1086 1.531 . S
C1083 C1082 1.369 . S
C1083 C1084 1.410 . S
C1083 C1091 1.503 . S
C1084 C1083 1.410 . S
C1084 C1085 1.392 . S
C1084 C1087 1.511 . S
C1085 C1081 1.376 . S
C1085 C1084 1.392 . S
C1085 H1097 0.929 . S
C1086 C1082 1.531 . S
C1086 H1098 0.960 . S
C1086 H1099 0.962 . S
C1086 H1100 0.960 . S
C1087 C1084 1.511 . S
C1087 H1101 0.961 . S
C1087 H1102 0.961 . S
C1087 H1103 0.961 . S
C1088 C1089 1.370 . S
C1088 C1090 1.363 . S
C1088 H1104 0.931 . S
C1089 C1088 1.370 . S
C1089 C1093 1.408 . S
C1090 C1088 1.363 . S
C1090 C1091 1.370 . S
C1090 C1094 1.524 . S
C1091 C1083 1.503 . S
C1091 C1090 1.370 . S
C1091 C1092 1.403 . S
C1092 C1091 1.403 . S
C1092 C1093 1.404 . S
C1092 C1095 1.539 . S
C1093 C1089 1.408 . S
C1093 C1092 1.404 . S
C1093 H1105 0.930 . S
C1094 C1090 1.524 . S
C1094 H1106 0.956 . S
C1094 H1107 0.961 . S
C1094 H1108 0.961 . S
C1095 C1092 1.539 . S
C1095 H1109 0.958 . S
C1095 H1110 0.961 . S
C1095 H1111 0.960 . S
H1096 C1080 0.931 . S
H1097 C1085 0.929 . S
H1098 C1086 0.960 . S
H1099 C1086 0.962 . S
H1100 C1086 0.960 . S
H1101 C1087 0.961 . S
H1102 C1087 0.961 . S
H1103 C1087 0.961 . S
H1104 C1088 0.931 . S
H1105 C1093 0.930 . S
H1106 C1094 0.956 . S
H1107 C1094 0.961 . S
H1108 C1094 0.961 . S
H1109 C1095 0.958 . S
H1110 C1095 0.961 . S
H1111 C1095 0.960 . S
C1112 C1113 1.391 . S
C1112 C1114 1.394 . S
C1112 H1128 0.931 . S
C1113 C1112 1.391 . S
C1113 C1117 1.376 . S
C1114 C1112 1.394 . S
C1114 C1115 1.369 . S
C1114 C1118 1.531 . S
C1115 C1114 1.369 . S
C1115 C1116 1.410 . S
C1115 C1123 1.503 . S
C1116 C1115 1.410 . S
C1116 C1117 1.392 . S
C1116 C1119 1.511 . S
C1117 C1113 1.376 . S
C1117 C1116 1.392 . S
C1117 H1129 0.929 . S
C1118 C1114 1.531 . S
C1118 H1130 0.960 . S
C1118 H1131 0.962 . S
C1118 H1132 0.960 . S
C1119 C1116 1.511 . S
C1119 H1133 0.961 . S
C1119 H1134 0.961 . S
C1119 H1135 0.961 . S
C1120 C1121 1.370 . S
C1120 C1122 1.363 . S
C1120 H1136 0.931 . S
C1121 C1120 1.370 . S
C1121 C1125 1.408 . S
C1122 C1120 1.363 . S
C1122 C1123 1.370 . S
C1122 C1126 1.524 . S
C1123 C1115 1.503 . S
C1123 C1122 1.370 . S
C1123 C1124 1.403 . S
C1124 C1123 1.403 . S
C1124 C1125 1.404 . S
C1124 C1127 1.539 . S
C1125 C1121 1.408 . S
C1125 C1124 1.404 . S
C1125 H1137 0.930 . S
C1126 C1122 1.524 . S
C1126 H1138 0.956 . S
C1126 H1139 0.961 . S
C1126 H1140 0.961 . S
C1127 C1124 1.539 . S
C1127 H1141 0.958 . S
C1127 H1142 0.961 . S
C1127 H1143 0.960 . S
H1128 C1112 0.931 . S
H1129 C1117 0.929 . S
H1130 C1118 0.960 . S
H1131 C1118 0.962 . S
H1132 C1118 0.960 . S
H1133 C1119 0.961 . S
H1134 C1119 0.961 . S
H1135 C1119 0.961 . S
H1136 C1120 0.931 . S
H1137 C1125 0.930 . S
H1138 C1126 0.956 . S
H1139 C1126 0.961 . S
H1140 C1126 0.961 . S
H1141 C1127 0.958 . S
H1142 C1127 0.961 . S
H1143 C1127 0.960 . S
C1144 C1145 1.391 . S
C1144 C1146 1.394 . S
C1144 H1160 0.931 . S
C1145 C1144 1.391 . S
C1145 C1149 1.376 . S
C1146 C1144 1.394 . S
C1146 C1147 1.369 . S
C1146 C1150 1.531 . S
C1147 C1146 1.369 . S
C1147 C1148 1.410 . S
C1147 C1155 1.503 . S
C1148 C1147 1.410 . S
C1148 C1149 1.392 . S
C1148 C1151 1.511 . S
C1149 C1145 1.376 . S
C1149 C1148 1.392 . S
C1149 H1161 0.929 . S
C1150 C1146 1.531 . S
C1150 H1162 0.960 . S
C1150 H1163 0.962 . S
C1150 H1164 0.960 . S
C1151 C1148 1.511 . S
C1151 H1165 0.961 . S
C1151 H1166 0.961 . S
C1151 H1167 0.961 . S
C1152 C1153 1.370 . S
C1152 C1154 1.363 . S
C1152 H1168 0.931 . S
C1153 C1152 1.370 . S
C1153 C1157 1.408 . S
C1154 C1152 1.363 . S
C1154 C1155 1.370 . S
C1154 C1158 1.524 . S
C1155 C1147 1.503 . S
C1155 C1154 1.370 . S
C1155 C1156 1.403 . S
C1156 C1155 1.403 . S
C1156 C1157 1.404 . S
C1156 C1159 1.539 . S
C1157 C1153 1.408 . S
C1157 C1156 1.404 . S
C1157 H1169 0.930 . S
C1158 C1154 1.524 . S
C1158 H1170 0.956 . S
C1158 H1171 0.961 . S
C1158 H1172 0.961 . S
C1159 C1156 1.539 . S
C1159 H1173 0.958 . S
C1159 H1174 0.961 . S
C1159 H1175 0.960 . S
H1160 C1144 0.931 . S
H1161 C1149 0.929 . S
H1162 C1150 0.960 . S
H1163 C1150 0.962 . S
H1164 C1150 0.960 . S
H1165 C1151 0.961 . S
H1166 C1151 0.961 . S
H1167 C1151 0.961 . S
H1168 C1152 0.931 . S
H1169 C1157 0.930 . S
H1170 C1158 0.956 . S
H1171 C1158 0.961 . S
H1172 C1158 0.961 . S
H1173 C1159 0.958 . S
H1174 C1159 0.961 . S
H1175 C1159 0.960 . S
C1176 C1177 1.391 1_556 S
C1176 C1178 1.394 . S
C1176 H1192 0.931 . S
C1177 C1176 1.391 1_554 S
C1177 C1181 1.376 . S
C1178 C1176 1.394 . S
C1178 C1179 1.369 1_556 S
C1178 C1182 1.531 . S
C1179 C1178 1.369 1_554 S
C1179 C1180 1.410 . S
C1179 C1187 1.503 . S
C1180 C1179 1.410 . S
C1180 C1181 1.392 . S
C1180 C1183 1.511 . S
C1181 C1177 1.376 . S
C1181 C1180 1.392 . S
C1181 H1193 0.929 . S
C1182 C1178 1.531 . S
C1182 H1194 0.960 . S
C1182 H1195 0.962 . S
C1182 H1196 0.960 . S
C1183 C1180 1.511 . S
C1183 H1197 0.961 . S
C1183 H1198 0.961 . S
C1183 H1199 0.961 . S
C1184 C1185 1.370 . S
C1184 C1186 1.363 . S
C1184 H1200 0.931 . S
C1185 C1184 1.370 . S
C1185 C1189 1.408 1_554 S
C1186 C1184 1.363 . S
C1186 C1187 1.370 . S
C1186 C1190 1.524 . S
C1187 C1179 1.503 . S
C1187 C1186 1.370 . S
C1187 C1188 1.403 1_554 S
C1188 C1187 1.403 1_556 S
C1188 C1189 1.404 . S
C1188 C1191 1.539 . S
C1189 C1185 1.408 1_556 S
C1189 C1188 1.404 . S
C1189 H1201 0.930 . S
C1190 C1186 1.524 . S
C1190 H1202 0.956 . S
C1190 H1203 0.961 . S
C1190 H1204 0.961 . S
C1191 C1188 1.539 . S
C1191 H1205 0.958 . S
C1191 H1206 0.961 . S
C1191 H1207 0.960 . S
H1192 C1176 0.931 . S
H1193 C1181 0.929 . S
H1194 C1182 0.960 . S
H1195 C1182 0.962 . S
H1196 C1182 0.960 . S
H1197 C1183 0.961 . S
H1198 C1183 0.961 . S
H1199 C1183 0.961 . S
H1200 C1184 0.931 . S
H1201 C1189 0.930 . S
H1202 C1190 0.956 . S
H1203 C1190 0.961 . S
H1204 C1190 0.961 . S
H1205 C1191 0.958 . S
H1206 C1191 0.961 . S
H1207 C1191 0.960 . S
C1208 C1209 1.391 1_556 S
C1208 C1210 1.394 . S
C1208 H1224 0.931 . S
C1209 C1208 1.391 1_554 S
C1209 C1213 1.376 . S
C1210 C1208 1.394 . S
C1210 C1211 1.369 1_556 S
C1210 C1214 1.531 . S
C1211 C1210 1.369 1_554 S
C1211 C1212 1.410 . S
C1211 C1219 1.503 . S
C1212 C1211 1.410 . S
C1212 C1213 1.392 . S
C1212 C1215 1.511 . S
C1213 C1209 1.376 . S
C1213 C1212 1.392 . S
C1213 H1225 0.929 . S
C1214 C1210 1.531 . S
C1214 H1226 0.960 . S
C1214 H1227 0.962 . S
C1214 H1228 0.960 . S
C1215 C1212 1.511 . S
C1215 H1229 0.961 . S
C1215 H1230 0.961 . S
C1215 H1231 0.961 . S
C1216 C1217 1.370 . S
C1216 C1218 1.363 . S
C1216 H1232 0.931 . S
C1217 C1216 1.370 . S
C1217 C1221 1.408 1_554 S
C1218 C1216 1.363 . S
C1218 C1219 1.370 . S
C1218 C1222 1.524 . S
C1219 C1211 1.503 . S
C1219 C1218 1.370 . S
C1219 C1220 1.403 1_554 S
C1220 C1219 1.403 1_556 S
C1220 C1221 1.404 . S
C1220 C1223 1.539 . S
C1221 C1217 1.408 1_556 S
C1221 C1220 1.404 . S
C1221 H1233 0.930 . S
C1222 C1218 1.524 . S
C1222 H1234 0.956 . S
C1222 H1235 0.961 . S
C1222 H1236 0.961 . S
C1223 C1220 1.539 . S
C1223 H1237 0.958 . S
C1223 H1238 0.961 . S
C1223 H1239 0.960 . S
H1224 C1208 0.931 . S
H1225 C1213 0.929 . S
H1226 C1214 0.960 . S
H1227 C1214 0.962 . S
H1228 C1214 0.960 . S
H1229 C1215 0.961 . S
H1230 C1215 0.961 . S
H1231 C1215 0.961 . S
H1232 C1216 0.931 . S
H1233 C1221 0.930 . S
H1234 C1222 0.956 . S
H1235 C1222 0.961 . S
H1236 C1222 0.961 . S
H1237 C1223 0.958 . S
H1238 C1223 0.961 . S
H1239 C1223 0.960 . S
C1240 C1241 1.391 . S
C1240 C1242 1.394 . S
C1240 H1256 0.931 . S
C1241 C1240 1.391 . S
C1241 C1245 1.376 1_554 S
C1242 C1240 1.394 . S
C1242 C1243 1.369 . S
C1242 C1246 1.531 . S
C1243 C1242 1.369 . S
C1243 C1244 1.410 1_554 S
C1243 C1251 1.503 . S
C1244 C1243 1.410 1_556 S
C1244 C1245 1.392 . S
C1244 C1247 1.511 . S
C1245 C1241 1.376 1_556 S
C1245 C1244 1.392 . S
C1245 H1257 0.929 . S
C1246 C1242 1.531 . S
C1246 H1258 0.960 . S
C1246 H1259 0.962 . S
C1246 H1260 0.960 . S
C1247 C1244 1.511 . S
C1247 H1261 0.961 . S
C1247 H1262 0.961 . S
C1247 H1263 0.961 . S
C1248 C1249 1.370 . S
C1248 C1250 1.363 . S
C1248 H1264 0.931 . S
C1249 C1248 1.370 . S
C1249 C1253 1.408 . S
C1250 C1248 1.363 . S
C1250 C1251 1.370 . S
C1250 C1254 1.524 . S
C1251 C1243 1.503 . S
C1251 C1250 1.370 . S
C1251 C1252 1.403 . S
C1252 C1251 1.403 . S
C1252 C1253 1.404 . S
C1252 C1255 1.539 . S
C1253 C1249 1.408 . S
C1253 C1252 1.404 . S
C1253 H1265 0.930 . S
C1254 C1250 1.524 . S
C1254 H1266 0.956 . S
C1254 H1267 0.961 . S
C1254 H1268 0.961 . S
C1255 C1252 1.539 . S
C1255 H1269 0.958 . S
C1255 H1270 0.961 . S
C1255 H1271 0.960 . S
H1256 C1240 0.931 . S
H1257 C1245 0.929 . S
H1258 C1246 0.960 . S
H1259 C1246 0.962 . S
H1260 C1246 0.960 . S
H1261 C1247 0.961 . S
H1262 C1247 0.961 . S
H1263 C1247 0.961 . S
H1264 C1248 0.931 . S
H1265 C1253 0.930 . S
H1266 C1254 0.956 . S
H1267 C1254 0.961 . S
H1268 C1254 0.961 . S
H1269 C1255 0.958 . S
H1270 C1255 0.961 . S
H1271 C1255 0.960 . S
C1272 C1273 1.391 1_556 S
C1272 C1274 1.394 . S
C1272 H1288 0.931 . S
C1273 C1272 1.391 1_554 S
C1273 C1277 1.376 . S
C1274 C1272 1.394 . S
C1274 C1275 1.351 1_556 S
C1274 C1278 1.549 . S
C1275 C1274 1.351 1_554 S
C1275 C1276 1.410 . S
C1275 C1283 1.503 . S
C1276 C1275 1.410 . S
C1276 C1277 1.392 . S
C1276 C1279 1.511 . S
C1277 C1273 1.376 . S
C1277 C1276 1.392 . S
C1277 H1289 0.929 . S
C1278 C1274 1.549 . S
C1278 H1290 0.960 . S
C1278 H1291 0.962 . S
C1278 H1292 0.960 . S
C1279 C1276 1.511 . S
C1279 H1293 0.961 . S
C1279 H1294 0.961 . S
C1279 H1295 0.961 . S
C1280 C1281 1.370 . S
C1280 C1282 1.363 . S
C1280 H1296 0.931 1_554 S
C1281 C1280 1.370 . S
C1281 C1285 1.408 . S
C1282 C1280 1.363 . S
C1282 C1283 1.370 . S
C1282 C1286 1.524 1_554 S
C1283 C1275 1.503 . S
C1283 C1282 1.370 . S
C1283 C1284 1.403 . S
C1284 C1283 1.403 . S
C1284 C1285 1.404 . S
C1284 C1287 1.539 . S
C1285 C1281 1.408 . S
C1285 C1284 1.404 . S
C1285 H1297 0.930 . S
C1286 C1282 1.524 1_556 S
C1286 H1298 0.956 . S
C1286 H1299 0.961 1_556 S
C1286 H1300 0.961 . S
C1287 C1284 1.539 . S
C1287 H1301 0.958 . S
C1287 H1302 0.961 . S
C1287 H1303 0.960 . S
H1288 C1272 0.931 . S
H1289 C1277 0.929 . S
H1290 C1278 0.960 . S
H1291 C1278 0.962 . S
H1292 C1278 0.960 . S
H1293 C1279 0.961 . S
H1294 C1279 0.961 . S
H1295 C1279 0.961 . S
H1296 C1280 0.931 1_556 S
H1297 C1285 0.930 . S
H1298 C1286 0.956 . S
H1299 C1286 0.961 1_554 S
H1300 C1286 0.961 . S
H1301 C1287 0.958 . S
H1302 C1287 0.961 . S
H1303 C1287 0.960 . S
C1304 C1305 1.391 1_556 S
C1304 C1306 1.394 . S
C1304 H1320 0.931 . S
C1305 C1304 1.391 1_554 S
C1305 C1309 1.376 . S
C1306 C1304 1.394 . S
C1306 C1307 1.369 1_556 S
C1306 C1310 1.531 . S
C1307 C1306 1.369 1_554 S
C1307 C1308 1.410 . S
C1307 C1315 1.503 . S
C1308 C1307 1.410 . S
C1308 C1309 1.392 . S
C1308 C1311 1.511 . S
C1309 C1305 1.376 . S
C1309 C1308 1.392 . S
C1309 H1321 0.929 . S
C1310 C1306 1.531 . S
C1310 H1322 0.960 . S
C1310 H1323 0.962 . S
C1310 H1324 0.960 . S
C1311 C1308 1.511 . S
C1311 H1325 0.961 . S
C1311 H1326 0.961 . S
C1311 H1327 0.961 . S
C1312 C1313 1.370 . S
C1312 C1314 1.363 . S
C1312 H1328 0.931 . S
C1313 C1312 1.370 . S
C1313 C1317 1.407 . S
C1314 C1312 1.363 . S
C1314 C1315 1.370 . S
C1314 C1318 1.524 . S
C1315 C1307 1.503 . S
C1315 C1314 1.370 . S
C1315 C1316 1.403 1_554 S
C1316 C1315 1.403 1_556 S
C1316 C1317 1.404 1_556 S
C1316 C1319 1.539 . S
C1317 C1313 1.407 . S
C1317 C1316 1.404 1_554 S
C1317 H1329 0.931 1_554 S
C1318 C1314 1.524 . S
C1318 H1330 0.956 . S
C1318 H1331 0.961 . S
C1318 H1332 0.961 . S
C1319 C1316 1.539 . S
C1319 H1333 0.958 . S
C1319 H1334 0.961 . S
C1319 H1335 0.960 . S
H1320 C1304 0.931 . S
H1321 C1309 0.929 . S
H1322 C1310 0.960 . S
H1323 C1310 0.962 . S
H1324 C1310 0.960 . S
H1325 C1311 0.961 . S
H1326 C1311 0.961 . S
H1327 C1311 0.961 . S
H1328 C1312 0.931 . S
H1329 C1317 0.931 1_556 S
H1330 C1318 0.956 . S
H1331 C1318 0.961 . S
H1332 C1318 0.961 . S
H1333 C1319 0.958 . S
H1334 C1319 0.961 . S
H1335 C1319 0.960 . S
C1336 C1337 1.391 . S
C1336 C1338 1.394 . S
C1336 H1352 0.931 . S
C1337 C1336 1.391 . S
C1337 C1341 1.376 1_554 S
C1338 C1336 1.394 . S
C1338 C1339 1.369 . S
C1338 C1342 1.531 . S
C1339 C1338 1.369 . S
C1339 C1340 1.410 1_554 S
C1339 C1347 1.503 . S
C1340 C1339 1.410 1_556 S
C1340 C1341 1.392 . S
C1340 C1343 1.511 . S
C1341 C1337 1.376 1_556 S
C1341 C1340 1.392 . S
C1341 H1353 0.929 . S
C1342 C1338 1.531 . S
C1342 H1354 0.960 . S
C1342 H1355 0.962 . S
C1342 H1356 0.960 . S
C1343 C1340 1.511 . S
C1343 H1357 0.961 . S
C1343 H1358 0.961 . S
C1343 H1359 0.961 . S
C1344 C1345 1.370 . S
C1344 C1346 1.363 . S
C1344 H1360 0.931 . S
C1345 C1344 1.370 . S
C1345 C1349 1.408 . S
C1346 C1344 1.363 . S
C1346 C1347 1.370 . S
C1346 C1350 1.524 . S
C1347 C1339 1.503 . S
C1347 C1346 1.370 . S
C1347 C1348 1.403 . S
C1348 C1347 1.403 . S
C1348 C1349 1.404 . S
C1348 C1351 1.539 . S
C1349 C1345 1.408 . S
C1349 C1348 1.404 . S
C1349 H1361 0.930 . S
C1350 C1346 1.524 . S
C1350 H1362 0.956 . S
C1350 H1363 0.961 1_554 S
C1350 H1364 0.955 1_554 S
C1351 C1348 1.539 . S
C1351 H1365 0.958 . S
C1351 H1366 0.961 . S
C1351 H1367 0.960 . S
H1352 C1336 0.931 . S
H1353 C1341 0.929 . S
H1354 C1342 0.960 . S
H1355 C1342 0.962 . S
H1356 C1342 0.960 . S
H1357 C1343 0.961 . S
H1358 C1343 0.961 . S
H1359 C1343 0.961 . S
H1360 C1344 0.931 . S
H1361 C1349 0.930 . S
H1362 C1350 0.956 . S
H1363 C1350 0.961 1_556 S
H1364 C1350 0.955 1_556 S
H1365 C1351 0.958 . S
H1366 C1351 0.961 . S
H1367 C1351 0.960 . S
C1368 C1369 1.391 . S
C1368 C1370 1.394 . S
C1368 H1384 0.931 . S
C1369 C1368 1.391 . S
C1369 C1373 1.376 . S
C1370 C1368 1.394 . S
C1370 C1371 1.369 . S
C1370 C1374 1.531 . S
C1371 C1370 1.369 . S
C1371 C1372 1.410 . S
C1371 C1379 1.503 . S
C1372 C1371 1.410 . S
C1372 C1373 1.392 . S
C1372 C1375 1.511 . S
C1373 C1369 1.376 . S
C1373 C1372 1.392 . S
C1373 H1385 0.929 . S
C1374 C1370 1.531 . S
C1374 H1386 0.960 . S
C1374 H1387 0.962 . S
C1374 H1388 0.960 . S
C1375 C1372 1.511 . S
C1375 H1389 0.961 . S
C1375 H1390 0.961 . S
C1375 H1391 0.961 . S
C1376 C1377 1.370 . S
C1376 C1378 1.363 . S
C1376 H1392 0.931 . S
C1377 C1376 1.370 . S
C1377 C1381 1.408 . S
C1378 C1376 1.363 . S
C1378 C1379 1.370 . S
C1378 C1382 1.524 . S
C1379 C1371 1.503 . S
C1379 C1378 1.370 . S
C1379 C1380 1.403 . S
C1380 C1379 1.403 . S
C1380 C1381 1.404 . S
C1380 C1383 1.539 . S
C1381 C1377 1.408 . S
C1381 C1380 1.404 . S
C1381 H1393 0.930 . S
C1382 C1378 1.524 . S
C1382 H1394 0.956 . S
C1382 H1395 0.961 . S
C1382 H1396 0.961 . S
C1383 C1380 1.539 . S
C1383 H1397 0.958 . S
C1383 H1398 0.961 . S
C1383 H1399 0.960 . S
H1384 C1368 0.931 . S
H1385 C1373 0.929 . S
H1386 C1374 0.960 . S
H1387 C1374 0.962 . S
H1388 C1374 0.960 . S
H1389 C1375 0.961 . S
H1390 C1375 0.961 . S
H1391 C1375 0.961 . S
H1392 C1376 0.931 . S
H1393 C1381 0.930 . S
H1394 C1382 0.956 . S
H1395 C1382 0.961 . S
H1396 C1382 0.961 . S
H1397 C1383 0.958 . S
H1398 C1383 0.961 . S
H1399 C1383 0.960 . S
C1400 C1401 1.391 . S
C1400 C1402 1.394 . S
C1400 H1416 0.931 . S
C1401 C1400 1.391 . S
C1401 C1405 1.376 . S
C1402 C1400 1.394 . S
C1402 C1403 1.369 . S
C1402 C1406 1.531 . S
C1403 C1402 1.369 . S
C1403 C1404 1.410 . S
C1403 C1411 1.503 . S
C1404 C1403 1.410 . S
C1404 C1405 1.392 . S
C1404 C1407 1.511 . S
C1405 C1401 1.376 . S
C1405 C1404 1.392 . S
C1405 H1417 0.929 . S
C1406 C1402 1.531 . S
C1406 H1418 0.960 . S
C1406 H1419 0.962 . S
C1406 H1420 0.960 . S
C1407 C1404 1.511 . S
C1407 H1421 0.961 . S
C1407 H1422 0.961 . S
C1407 H1423 0.961 . S
C1408 C1409 1.370 . S
C1408 C1410 1.363 . S
C1408 H1424 0.931 . S
C1409 C1408 1.370 . S
C1409 C1413 1.408 . S
C1410 C1408 1.363 . S
C1410 C1411 1.370 . S
C1410 C1414 1.524 . S
C1411 C1403 1.503 . S
C1411 C1410 1.370 . S
C1411 C1412 1.403 . S
C1412 C1411 1.403 . S
C1412 C1413 1.404 . S
C1412 C1415 1.539 . S
C1413 C1409 1.408 . S
C1413 C1412 1.404 . S
C1413 H1425 0.930 . S
C1414 C1410 1.524 . S
C1414 H1426 0.956 . S
C1414 H1427 0.961 . S
C1414 H1428 0.961 . S
C1415 C1412 1.539 . S
C1415 H1429 0.958 . S
C1415 H1430 0.961 . S
C1415 H1431 0.960 . S
H1416 C1400 0.931 . S
H1417 C1405 0.929 . S
H1418 C1406 0.960 . S
H1419 C1406 0.962 . S
H1420 C1406 0.960 . S
H1421 C1407 0.961 . S
H1422 C1407 0.961 . S
H1423 C1407 0.961 . S
H1424 C1408 0.931 . S
H1425 C1413 0.930 . S
H1426 C1414 0.956 . S
H1427 C1414 0.961 . S
H1428 C1414 0.961 . S
H1429 C1415 0.958 . S
H1430 C1415 0.961 . S
H1431 C1415 0.960 . S
C1432 C1433 1.391 . S
C1432 C1434 1.394 . S
C1432 H1448 0.931 . S
C1433 C1432 1.391 . S
C1433 C1437 1.376 . S
C1434 C1432 1.394 . S
C1434 C1435 1.369 . S
C1434 C1438 1.531 . S
C1435 C1434 1.369 . S
C1435 C1436 1.410 . S
C1435 C1443 1.503 . S
C1436 C1435 1.410 . S
C1436 C1437 1.392 . S
C1436 C1439 1.511 . S
C1437 C1433 1.376 . S
C1437 C1436 1.392 . S
C1437 H1449 0.929 . S
C1438 C1434 1.531 . S
C1438 H1450 0.960 . S
C1438 H1451 0.962 . S
C1438 H1452 0.960 . S
C1439 C1436 1.511 . S
C1439 H1453 0.961 . S
C1439 H1454 0.961 . S
C1439 H1455 0.961 . S
C1440 C1441 1.370 . S
C1440 C1442 1.363 . S
C1440 H1456 0.931 . S
C1441 C1440 1.370 . S
C1441 C1445 1.408 . S
C1442 C1440 1.363 . S
C1442 C1443 1.370 . S
C1442 C1446 1.524 . S
C1443 C1435 1.503 . S
C1443 C1442 1.370 . S
C1443 C1444 1.403 . S
C1444 C1443 1.403 . S
C1444 C1445 1.404 . S
C1444 C1447 1.539 . S
C1445 C1441 1.408 . S
C1445 C1444 1.404 . S
C1445 H1457 0.930 . S
C1446 C1442 1.524 . S
C1446 H1458 0.956 . S
C1446 H1459 0.961 . S
C1446 H1460 0.961 . S
C1447 C1444 1.539 . S
C1447 H1461 0.958 . S
C1447 H1462 0.961 . S
C1447 H1463 0.960 . S
H1448 C1432 0.931 . S
H1449 C1437 0.929 . S
H1450 C1438 0.960 . S
H1451 C1438 0.962 . S
H1452 C1438 0.960 . S
H1453 C1439 0.961 . S
H1454 C1439 0.961 . S
H1455 C1439 0.961 . S
H1456 C1440 0.931 . S
H1457 C1445 0.930 . S
H1458 C1446 0.956 . S
H1459 C1446 0.961 . S
H1460 C1446 0.961 . S
H1461 C1447 0.958 . S
H1462 C1447 0.961 . S
H1463 C1447 0.960 . S
C1464 C1465 1.391 . S
C1464 C1466 1.394 . S
C1464 H1480 0.931 . S
C1465 C1464 1.391 . S
C1465 C1469 1.376 . S
C1466 C1464 1.394 . S
C1466 C1467 1.369 . S
C1466 C1470 1.531 . S
C1467 C1466 1.369 . S
C1467 C1468 1.410 . S
C1467 C1475 1.503 . S
C1468 C1467 1.410 . S
C1468 C1469 1.392 . S
C1468 C1471 1.511 . S
C1469 C1465 1.376 . S
C1469 C1468 1.392 . S
C1469 H1481 0.929 . S
C1470 C1466 1.531 . S
C1470 H1482 0.960 . S
C1470 H1483 0.962 . S
C1470 H1484 0.960 . S
C1471 C1468 1.511 . S
C1471 H1485 0.961 . S
C1471 H1486 0.961 . S
C1471 H1487 0.961 . S
C1472 C1473 1.370 . S
C1472 C1474 1.363 . S
C1472 H1488 0.931 . S
C1473 C1472 1.370 . S
C1473 C1477 1.408 . S
C1474 C1472 1.363 . S
C1474 C1475 1.370 . S
C1474 C1478 1.524 . S
C1475 C1467 1.503 . S
C1475 C1474 1.370 . S
C1475 C1476 1.403 . S
C1476 C1475 1.403 . S
C1476 C1477 1.404 . S
C1476 C1479 1.539 . S
C1477 C1473 1.408 . S
C1477 C1476 1.404 . S
C1477 H1489 0.930 . S
C1478 C1474 1.524 . S
C1478 H1490 0.956 . S
C1478 H1491 0.961 . S
C1478 H1492 0.961 . S
C1479 C1476 1.539 . S
C1479 H1493 0.958 . S
C1479 H1494 0.961 . S
C1479 H1495 0.960 . S
H1480 C1464 0.931 . S
H1481 C1469 0.929 . S
H1482 C1470 0.960 . S
H1483 C1470 0.962 . S
H1484 C1470 0.960 . S
H1485 C1471 0.961 . S
H1486 C1471 0.961 . S
H1487 C1471 0.961 . S
H1488 C1472 0.931 . S
H1489 C1477 0.930 . S
H1490 C1478 0.956 . S
H1491 C1478 0.961 . S
H1492 C1478 0.961 . S
H1493 C1479 0.958 . S
H1494 C1479 0.961 . S
H1495 C1479 0.960 . S
C1496 C1497 1.391 . S
C1496 C1498 1.394 . S
C1496 H1512 0.931 . S
C1497 C1496 1.391 . S
C1497 C1501 1.376 . S
C1498 C1496 1.394 . S
C1498 C1499 1.369 . S
C1498 C1502 1.531 . S
C1499 C1498 1.369 . S
C1499 C1500 1.410 . S
C1499 C1507 1.503 . S
C1500 C1499 1.410 . S
C1500 C1501 1.392 . S
C1500 C1503 1.511 . S
C1501 C1497 1.376 . S
C1501 C1500 1.392 . S
C1501 H1513 0.929 . S
C1502 C1498 1.531 . S
C1502 H1514 0.960 . S
C1502 H1515 0.962 . S
C1502 H1516 0.960 . S
C1503 C1500 1.511 . S
C1503 H1517 0.961 . S
C1503 H1518 0.961 . S
C1503 H1519 0.961 . S
C1504 C1505 1.370 . S
C1504 C1506 1.363 . S
C1504 H1520 0.931 . S
C1505 C1504 1.370 . S
C1505 C1509 1.408 . S
C1506 C1504 1.363 . S
C1506 C1507 1.370 . S
C1506 C1510 1.524 . S
C1507 C1499 1.503 . S
C1507 C1506 1.370 . S
C1507 C1508 1.403 . S
C1508 C1507 1.403 . S
C1508 C1509 1.404 . S
C1508 C1511 1.539 . S
C1509 C1505 1.408 . S
C1509 C1508 1.404 . S
C1509 H1521 0.930 . S
C1510 C1506 1.524 . S
C1510 H1522 0.956 . S
C1510 H1523 0.961 . S
C1510 H1524 0.961 . S
C1511 C1508 1.539 . S
C1511 H1525 0.958 . S
C1511 H1526 0.961 . S
C1511 H1527 0.960 . S
H1512 C1496 0.931 . S
H1513 C1501 0.929 . S
H1514 C1502 0.960 . S
H1515 C1502 0.962 . S
H1516 C1502 0.960 . S
H1517 C1503 0.961 . S
H1518 C1503 0.961 . S
H1519 C1503 0.961 . S
H1520 C1504 0.931 . S
H1521 C1509 0.930 . S
H1522 C1510 0.956 . S
H1523 C1510 0.961 . S
H1524 C1510 0.961 . S
H1525 C1511 0.958 . S
H1526 C1511 0.961 . S
H1527 C1511 0.960 . S
C1528 C1529 1.391 . S
C1528 C1530 1.394 . S
C1528 H1544 0.931 . S
C1529 C1528 1.391 . S
C1529 C1533 1.376 . S
C1530 C1528 1.394 . S
C1530 C1531 1.369 . S
C1530 C1534 1.531 . S
C1531 C1530 1.369 . S
C1531 C1532 1.410 . S
C1531 C1539 1.503 . S
C1532 C1531 1.410 . S
C1532 C1533 1.392 . S
C1532 C1535 1.511 . S
C1533 C1529 1.376 . S
C1533 C1532 1.392 . S
C1533 H1545 0.929 . S
C1534 C1530 1.531 . S
C1534 H1546 0.960 . S
C1534 H1547 0.962 . S
C1534 H1548 0.960 . S
C1535 C1532 1.511 . S
C1535 H1549 0.961 . S
C1535 H1550 0.961 . S
C1535 H1551 0.961 . S
C1536 C1537 1.370 . S
C1536 C1538 1.363 . S
C1536 H1552 0.931 . S
C1537 C1536 1.370 . S
C1537 C1541 1.408 . S
C1538 C1536 1.363 . S
C1538 C1539 1.370 . S
C1538 C1542 1.524 . S
C1539 C1531 1.503 . S
C1539 C1538 1.370 . S
C1539 C1540 1.403 . S
C1540 C1539 1.403 . S
C1540 C1541 1.404 . S
C1540 C1543 1.539 . S
C1541 C1537 1.408 . S
C1541 C1540 1.404 . S
C1541 H1553 0.930 . S
C1542 C1538 1.524 . S
C1542 H1554 0.956 . S
C1542 H1555 0.961 . S
C1542 H1556 0.961 . S
C1543 C1540 1.539 . S
C1543 H1557 0.958 . S
C1543 H1558 0.961 . S
C1543 H1559 0.960 . S
H1544 C1528 0.931 . S
H1545 C1533 0.929 . S
H1546 C1534 0.960 . S
H1547 C1534 0.962 . S
H1548 C1534 0.960 . S
H1549 C1535 0.961 . S
H1550 C1535 0.961 . S
H1551 C1535 0.961 . S
H1552 C1536 0.931 . S
H1553 C1541 0.930 . S
H1554 C1542 0.956 . S
H1555 C1542 0.961 . S
H1556 C1542 0.961 . S
H1557 C1543 0.958 . S
H1558 C1543 0.961 . S
H1559 C1543 0.960 . S
C1560 C1561 1.391 . S
C1560 C1562 1.394 . S
C1560 H1576 0.931 . S
C1561 C1560 1.391 . S
C1561 C1565 1.376 . S
C1562 C1560 1.394 . S
C1562 C1563 1.369 . S
C1562 C1566 1.531 . S
C1563 C1562 1.369 . S
C1563 C1564 1.420 . S
C1563 C1571 1.503 1_545 S
C1564 C1563 1.420 . S
C1564 C1565 1.394 . S
C1564 C1567 1.500 1_546 S
C1565 C1561 1.376 . S
C1565 C1564 1.394 . S
C1565 H1577 0.929 1_556 S
C1566 C1562 1.531 . S
C1566 H1578 0.960 . S
C1566 H1579 0.962 . S
C1566 H1580 0.960 . S
C1567 C1564 1.500 1_564 S
C1567 H1581 0.961 . S
C1567 H1582 0.961 . S
C1567 H1583 0.961 . S
C1568 C1569 1.370 . S
C1568 C1570 1.363 . S
C1568 H1584 0.931 . S
C1569 C1568 1.370 . S
C1569 C1573 1.408 1_556 S
C1570 C1568 1.363 . S
C1570 C1571 1.370 . S
C1570 C1574 1.524 . S
C1571 C1563 1.503 1_565 S
C1571 C1570 1.370 . S
C1571 C1572 1.403 1_556 S
C1572 C1571 1.403 1_554 S
C1572 C1573 1.404 . S
C1572 C1575 1.539 1_565 S
C1573 C1569 1.408 1_554 S
C1573 C1572 1.404 . S
C1573 H1585 0.930 . S
C1574 C1570 1.524 . S
C1574 H1586 0.956 . S
C1574 H1587 0.961 . S
C1574 H1588 0.961 . S
C1575 C1572 1.539 1_545 S
C1575 H1589 0.958 . S
C1575 H1590 0.961 . S
C1575 H1591 0.960 . S
H1576 C1560 0.931 . S
H1577 C1565 0.929 1_554 S
H1578 C1566 0.960 . S
H1579 C1566 0.962 . S
H1580 C1566 0.960 . S
H1581 C1567 0.961 . S
H1582 C1567 0.961 . S
H1583 C1567 0.961 . S
H1584 C1568 0.931 . S
H1585 C1573 0.930 . S
H1586 C1574 0.956 . S
H1587 C1574 0.961 . S
H1588 C1574 0.961 . S
H1589 C1575 0.958 . S
H1590 C1575 0.961 . S
H1591 C1575 0.960 . S
C1592 C1593 1.391 1_554 S
C1592 C1594 1.394 . S
C1592 H1608 0.931 . S
C1593 C1592 1.391 1_556 S
C1593 C1597 1.376 . S
C1594 C1592 1.394 . S
C1594 C1595 1.369 1_554 S
C1594 C1598 1.531 . S
C1595 C1594 1.369 1_556 S
C1595 C1596 1.410 . S
C1595 C1603 1.503 . S
C1596 C1595 1.410 . S
C1596 C1597 1.392 . S
C1596 C1599 1.511 . S
C1597 C1593 1.376 . S
C1597 C1596 1.392 . S
C1597 H1609 0.929 . S
C1598 C1594 1.531 . S
C1598 H1610 0.960 . S
C1598 H1611 0.962 . S
C1598 H1612 0.960 . S
C1599 C1596 1.511 . S
C1599 H1613 0.961 . S
C1599 H1614 0.961 . S
C1599 H1615 0.961 . S
C1600 C1601 1.370 . S
C1600 C1602 1.363 . S
C1600 H1616 0.931 . S
C1601 C1600 1.370 . S
C1601 C1605 1.408 . S
C1602 C1600 1.363 . S
C1602 C1603 1.370 . S
C1602 C1606 1.524 . S
C1603 C1595 1.503 . S
C1603 C1602 1.370 . S
C1603 C1604 1.403 . S
C1604 C1603 1.403 . S
C1604 C1605 1.404 . S
C1604 C1607 1.539 . S
C1605 C1601 1.408 . S
C1605 C1604 1.404 . S
C1605 H1617 0.930 . S
C1606 C1602 1.524 . S
C1606 H1618 0.956 1_556 S
C1606 H1619 0.961 . S
C1606 H1620 0.961 . S
C1607 C1604 1.539 . S
C1607 H1621 0.958 . S
C1607 H1622 0.961 . S
C1607 H1623 0.960 . S
H1608 C1592 0.931 . S
H1609 C1597 0.929 . S
H1610 C1598 0.960 . S
H1611 C1598 0.962 . S
H1612 C1598 0.960 . S
H1613 C1599 0.961 . S
H1614 C1599 0.961 . S
H1615 C1599 0.961 . S
H1616 C1600 0.931 . S
H1617 C1605 0.930 . S
H1618 C1606 0.956 1_554 S
H1619 C1606 0.961 . S
H1620 C1606 0.961 . S
H1621 C1607 0.958 . S
H1622 C1607 0.961 . S
H1623 C1607 0.960 . S
C1624 C1625 1.391 . S
C1624 C1626 1.394 . S
C1624 H1640 0.931 . S
C1625 C1624 1.391 . S
C1625 C1629 1.376 1_556 S
C1626 C1624 1.394 . S
C1626 C1627 1.369 . S
C1626 C1630 1.531 1_655 S
C1627 C1626 1.369 . S
C1627 C1628 1.410 1_556 S
C1627 C1635 1.503 1_655 S
C1628 C1627 1.410 1_554 S
C1628 C1629 1.392 . S
C1628 C1631 1.511 . S
C1629 C1625 1.376 1_554 S
C1629 C1628 1.392 . S
C1629 H1641 0.929 . S
C1630 C1626 1.531 1_455 S
C1630 H1642 0.960 . S
C1630 H1643 0.962 . S
C1630 H1644 0.960 1_455 S
C1631 C1628 1.511 . S
C1631 H1645 0.961 . S
C1631 H1646 0.961 . S
C1631 H1647 0.961 . S
C1632 C1633 1.370 . S
C1632 C1634 1.363 . S
C1632 H1648 0.931 . S
C1633 C1632 1.370 . S
C1633 C1637 1.408 . S
C1634 C1632 1.363 . S
C1634 C1635 1.370 . S
C1634 C1638 1.524 1_556 S
C1635 C1627 1.503 1_455 S
C1635 C1634 1.370 . S
C1635 C1636 1.403 1_455 S
C1636 C1635 1.403 1_655 S
C1636 C1637 1.404 1_655 S
C1636 C1639 1.539 . S
C1637 C1633 1.408 . S
C1637 C1636 1.404 1_455 S
C1637 H1649 0.930 . S
C1638 C1634 1.524 1_554 S
C1638 H1650 0.956 1_554 S
C1638 H1651 0.961 . S
C1638 H1652 0.961 . S
C1639 C1636 1.539 . S
C1639 H1653 0.958 . S
C1639 H1654 0.961 . S
C1639 H1655 0.960 . S
H1640 C1624 0.931 . S
H1641 C1629 0.929 . S
H1642 C1630 0.960 . S
H1643 C1630 0.962 . S
H1644 C1630 0.960 1_655 S
H1645 C1631 0.961 . S
H1646 C1631 0.961 . S
H1647 C1631 0.961 . S
H1648 C1632 0.931 . S
H1649 C1637 0.930 . S
H1650 C1638 0.956 1_556 S
H1651 C1638 0.961 . S
H1652 C1638 0.961 . S
H1653 C1639 0.958 . S
H1654 C1639 0.961 . S
H1655 C1639 0.960 . S
C1656 C1657 1.391 . S
C1656 C1658 1.394 1_655 S
C1656 H1672 0.931 . S
C1657 C1656 1.391 . S
C1657 C1661 1.376 . S
C1658 C1656 1.394 1_455 S
C1658 C1659 1.369 1_455 S
C1658 C1662 1.531 . S
C1659 C1658 1.369 1_655 S
C1659 C1660 1.410 . S
C1659 C1667 1.503 1_655 S
C1660 C1659 1.410 . S
C1660 C1661 1.392 . S
C1660 C1663 1.511 . S
C1661 C1657 1.376 . S
C1661 C1660 1.392 . S
C1661 H1673 0.929 . S
C1662 C1658 1.531 . S
C1662 H1674 0.960 . S
C1662 H1675 0.962 . S
C1662 H1676 0.960 . S
C1663 C1660 1.511 . S
C1663 H1677 0.961 . S
C1663 H1678 0.961 . S
C1663 H1679 0.961 . S
C1664 C1665 1.370 . S
C1664 C1666 1.363 . S
C1664 H1680 0.931 . S
C1665 C1664 1.370 . S
C1665 C1669 1.408 . S
C1666 C1664 1.363 . S
C1666 C1667 1.370 . S
C1666 C1670 1.524 1_455 S
C1667 C1659 1.503 1_455 S
C1667 C1666 1.370 . S
C1667 C1668 1.403 . S
C1668 C1667 1.403 . S
C1668 C1669 1.404 . S
C1668 C1671 1.539 . S
C1669 C1665 1.408 . S
C1669 C1668 1.404 . S
C1669 H1681 0.930 . S
C1670 C1666 1.524 1_655 S
C1670 H1682 0.956 1_655 S
C1670 H1683 0.961 . S
C1670 H1684 0.961 . S
C1671 C1668 1.539 . S
C1671 H1685 0.958 . S
C1671 H1686 0.961 . S
C1671 H1687 0.960 . S
H1672 C1656 0.931 . S
H1673 C1661 0.929 . S
H1674 C1662 0.960 . S
H1675 C1662 0.962 . S
H1676 C1662 0.960 . S
H1677 C1663 0.961 . S
H1678 C1663 0.961 . S
H1679 C1663 0.961 . S
H1680 C1664 0.931 . S
H1681 C1669 0.930 . S
H1682 C1670 0.956 1_455 S
H1683 C1670 0.961 . S
H1684 C1670 0.961 . S
H1685 C1671 0.958 . S
H1686 C1671 0.961 . S
H1687 C1671 0.960 . S
C1688 C1689 1.391 . S
C1688 C1690 1.394 1_545 S
C1688 H1704 0.931 . S
C1689 C1688 1.391 . S
C1689 C1693 1.376 . S
C1690 C1688 1.394 1_565 S
C1690 C1691 1.369 1_565 S
C1690 C1694 1.531 . S
C1691 C1690 1.369 1_545 S
C1691 C1692 1.410 . S
C1691 C1699 1.503 1_545 S
C1692 C1691 1.410 . S
C1692 C1693 1.392 . S
C1692 C1695 1.511 . S
C1693 C1689 1.376 . S
C1693 C1692 1.392 . S
C1693 H1705 0.929 . S
C1694 C1690 1.531 . S
C1694 H1706 0.960 . S
C1694 H1707 0.962 . S
C1694 H1708 0.960 . S
C1695 C1692 1.511 . S
C1695 H1709 0.961 . S
C1695 H1710 0.961 . S
C1695 H1711 0.961 . S
C1696 C1697 1.370 . S
C1696 C1698 1.363 . S
C1696 H1712 0.931 . S
C1697 C1696 1.370 . S
C1697 C1701 1.408 . S
C1698 C1696 1.363 . S
C1698 C1699 1.370 . S
C1698 C1702 1.530 . S
C1699 C1691 1.503 1_565 S
C1699 C1698 1.370 . S
C1699 C1700 1.403 . S
C1700 C1699 1.403 . S
C1700 C1701 1.404 . S
C1700 C1703 1.539 . S
C1701 C1697 1.408 . S
C1701 C1700 1.404 . S
C1701 H1713 0.930 . S
C1702 C1698 1.530 . S
C1702 H1714 0.978 . S
C1702 H1715 0.938 1_565 S
C1702 H1716 0.956 . S
C1703 C1700 1.539 . S
C1703 H1717 0.958 . S
C1703 H1718 0.961 . S
C1703 H1719 0.960 1_565 S
H1704 C1688 0.931 . S
H1705 C1693 0.929 . S
H1706 C1694 0.960 . S
H1707 C1694 0.962 . S
H1708 C1694 0.960 . S
H1709 C1695 0.961 . S
H1710 C1695 0.961 . S
H1711 C1695 0.961 . S
H1712 C1696 0.931 . S
H1713 C1701 0.930 . S
H1714 C1702 0.978 . S
H1715 C1702 0.938 1_545 S
H1716 C1702 0.956 . S
H1717 C1703 0.958 . S
H1718 C1703 0.961 . S
H1719 C1703 0.960 1_545 S
C1720 C1721 1.391 . S
C1720 C1722 1.394 . S
C1720 H1736 0.931 . S
C1721 C1720 1.391 . S
C1721 C1725 1.376 . S
C1722 C1720 1.394 . S
C1722 C1723 1.369 . S
C1722 C1726 1.531 . S
C1723 C1722 1.369 . S
C1723 C1724 1.410 . S
C1723 C1731 1.503 . S
C1724 C1723 1.410 . S
C1724 C1725 1.392 . S
C1724 C1727 1.511 . S
C1725 C1721 1.376 . S
C1725 C1724 1.392 . S
C1725 H1737 0.929 . S
C1726 C1722 1.531 . S
C1726 H1738 0.960 . S
C1726 H1739 0.962 . S
C1726 H1740 0.960 . S
C1727 C1724 1.511 . S
C1727 H1741 0.961 . S
C1727 H1742 0.961 . S
C1727 H1743 0.961 . S
C1728 C1729 1.370 . S
C1728 C1730 1.363 . S
C1728 H1744 0.931 . S
C1729 C1728 1.370 . S
C1729 C1733 1.408 . S
C1730 C1728 1.363 . S
C1730 C1731 1.370 . S
C1730 C1734 1.524 . S
C1731 C1723 1.503 . S
C1731 C1730 1.370 . S
C1731 C1732 1.403 . S
C1732 C1731 1.403 . S
C1732 C1733 1.404 . S
C1732 C1735 1.539 . S
C1733 C1729 1.408 . S
C1733 C1732 1.404 . S
C1733 H1745 0.930 . S
C1734 C1730 1.524 . S
C1734 H1746 0.956 . S
C1734 H1747 0.961 . S
C1734 H1748 0.961 . S
C1735 C1732 1.539 . S
C1735 H1749 0.958 . S
C1735 H1750 0.961 . S
C1735 H1751 0.960 . S
H1736 C1720 0.931 . S
H1737 C1725 0.929 . S
H1738 C1726 0.960 . S
H1739 C1726 0.962 . S
H1740 C1726 0.960 . S
H1741 C1727 0.961 . S
H1742 C1727 0.961 . S
H1743 C1727 0.961 . S
H1744 C1728 0.931 . S
H1745 C1733 0.930 . S
H1746 C1734 0.956 . S
H1747 C1734 0.961 . S
H1748 C1734 0.961 . S
H1749 C1735 0.958 . S
H1750 C1735 0.961 . S
H1751 C1735 0.960 . S
C409 C28 0.799 . S
C417 C187 0.808 1_554 S
C441 C40 0.797 . S
C449 C17 0.808 1_554 S
C473 C96 0.791 . S
C481 C51 0.787 . S
C505 C108 0.828 . S
C513 C85 0.812 . S
C537 C164 0.770 . S
C545 C119 0.799 1_554 S
C569 C176 0.808 . S
C577 C153 0.791 . S
C601 C210 0.821 . S
C609 C255 0.812 . S
C633 C266 0.801 . S
C641 C289 0.810 . S
C665 C278 0.803 . S
C673 C323 0.810 . S
C697 C357 0.765 . S
C705 C334 0.784 . S
C729 C391 0.791 . S
C737 C346 0.783 . S
C761 C221 0.767 . S
C769 C402 0.792 . S
C793 C287 1.632 . S
C801 C22 1.601 . S
C825 C328 1.584 . S
C833 C49 1.587 . S
C857 C90 1.615 . S
C865 C355 1.612 . S
C889 C396 1.578 . S
C897 C117 1.588 . S
C921 C158 1.574 . S
C929 C219 1.590 . S
C953 C185 1.632 . S
C961 C260 1.601 . S
C985 C389 2.093 . S
C993 C124 2.139 . S
C1017 C151 2.117 . S
C1025 C226 2.140 . S
C1049 C192 2.116 . S
C1057 C253 2.109 . S
C1081 C15 2.099 . S
C1089 C294 2.112 . S
C1113 C56 2.099 . S
C1121 C321 2.112 . S
C1145 C83 2.083 . S
C1153 C362 2.135 . S
C1177 C74 1.059 . S
C1185 C1 0.951 . S
C1209 C130 1.059 . S
C1217 C37 0.951 . S
C1241 C69 0.925 . S
C1249 C142 1.061 . S
C1273 C105 1.045 . S
C1281 C198 1.056 . S
C1305 C6 1.060 . S
C1313 C137 0.951 . S
C1337 C62 1.049 . S
C1345 C173 1.002 . S
C1369 C207 0.956 . S
C1377 C368 1.056 . S
C1401 C239 1.046 . S
C1409 C380 1.056 . S
C1433 C232 1.056 . S
C1441 C275 1.004 . S
C1465 C244 1.058 . S
C1473 C307 1.000 . S
C1497 C300 1.063 . S
C1505 C343 0.964 . S
C1529 C375 1.027 . S
C1537 C312 1.059 . S
C1561 C3 2.321 . S
C1569 C103 2.351 . S
C1593 C35 2.378 . S
C1601 C139 2.346 . S
C1625 C71 2.335 . S
C1633 C171 2.368 . S
C1657 C205 2.374 . S
C1665 C309 2.362 . S
C1689 C341 2.372 . S
C1697 C241 2.363 . S
C1721 C377 2.323 . S
C1729 C273 2.364 . S
