# Generated by pormake.
# Topology uou, (4)-cn, num edge types: 1
# Building blocks:
#     Node 0, Type 0, BuildingBlock: AZAVOO_clean_sbu_0, # of connection points: 4
#     Node 1, Type 0, BuildingBlock: AZAVOO_clean_sbu_0, # of connection points: 4
#     Node 2, Type 0, BuildingBlock: AZAVOO_clean_sbu_0, # of connection points: 4
#     Node 3, Type 0, BuildingBlock: AZAVOO_clean_sbu_0, # of connection points: 4
#     Node 4, Type 0, BuildingBlock: AZAVOO_clean_sbu_0, # of connection points: 4
#     Node 5, Type 0, BuildingBlock: AZAVOO_clean_sbu_0, # of connection points: 4
#     Node 6, Type 0, BuildingBlock: AZAVOO_clean_sbu_0, # of connection points: 4
#     Node 7, Type 0, BuildingBlock: AZAVOO_clean_sbu_0, # of connection points: 4
#     Node 8, Type 0, BuildingBlock: AZAVOO_clean_sbu_0, # of connection points: 4
#     Node 9, Type 0, BuildingBlock: AZAVOO_clean_sbu_0, # of connection points: 4
#     Node 10, Type 0, BuildingBlock: AZAVOO_clean_sbu_0, # of connection points: 4
#     Node 11, Type 0, BuildingBlock: AZAVOO_clean_sbu_0, # of connection points: 4
#     Node 12, Type 0, BuildingBlock: AZAVOO_clean_sbu_0, # of connection points: 4
#     Node 13, Type 0, BuildingBlock: AZAVOO_clean_sbu_0, # of connection points: 4
#     Node 14, Type 0, BuildingBlock: AZAVOO_clean_sbu_0, # of connection points: 4
#     Node 15, Type 0, BuildingBlock: AZAVOO_clean_sbu_0, # of connection points: 4
#     Edge 16, Type (0, 0), BuildingBlock: XIVTED_clean_linker_0, # of connection points: 2
#     Edge 17, Type (0, 0), BuildingBlock: XIVTED_clean_linker_0, # of connection points: 2
#     Edge 18, Type (0, 0), BuildingBlock: XIVTED_clean_linker_0, # of connection points: 2
#     Edge 19, Type (0, 0), BuildingBlock: XIVTED_clean_linker_0, # of connection points: 2
#     Edge 20, Type (0, 0), BuildingBlock: XIVTED_clean_linker_0, # of connection points: 2
#     Edge 21, Type (0, 0), BuildingBlock: XIVTED_clean_linker_0, # of connection points: 2
#     Edge 22, Type (0, 0), BuildingBlock: XIVTED_clean_linker_0, # of connection points: 2
#     Edge 23, Type (0, 0), BuildingBlock: XIVTED_clean_linker_0, # of connection points: 2
#     Edge 24, Type (0, 0), BuildingBlock: XIVTED_clean_linker_0, # of connection points: 2
#     Edge 25, Type (0, 0), BuildingBlock: XIVTED_clean_linker_0, # of connection points: 2
#     Edge 26, Type (0, 0), BuildingBlock: XIVTED_clean_linker_0, # of connection points: 2
#     Edge 27, Type (0, 0), BuildingBlock: XIVTED_clean_linker_0, # of connection points: 2
#     Edge 28, Type (0, 0), BuildingBlock: XIVTED_clean_linker_0, # of connection points: 2
#     Edge 29, Type (0, 0), BuildingBlock: XIVTED_clean_linker_0, # of connection points: 2
#     Edge 30, Type (0, 0), BuildingBlock: XIVTED_clean_linker_0, # of connection points: 2
#     Edge 31, Type (0, 0), BuildingBlock: XIVTED_clean_linker_0, # of connection points: 2
#     Edge 32, Type (0, 0), BuildingBlock: XIVTED_clean_linker_0, # of connection points: 2
#     Edge 33, Type (0, 0), BuildingBlock: XIVTED_clean_linker_0, # of connection points: 2
#     Edge 34, Type (0, 0), BuildingBlock: XIVTED_clean_linker_0, # of connection points: 2
#     Edge 35, Type (0, 0), BuildingBlock: XIVTED_clean_linker_0, # of connection points: 2
#     Edge 36, Type (0, 0), BuildingBlock: XIVTED_clean_linker_0, # of connection points: 2
#     Edge 37, Type (0, 0), BuildingBlock: XIVTED_clean_linker_0, # of connection points: 2
#     Edge 38, Type (0, 0), BuildingBlock: XIVTED_clean_linker_0, # of connection points: 2
#     Edge 39, Type (0, 0), BuildingBlock: XIVTED_clean_linker_0, # of connection points: 2
#     Edge 40, Type (0, 0), BuildingBlock: XIVTED_clean_linker_0, # of connection points: 2
#     Edge 41, Type (0, 0), BuildingBlock: XIVTED_clean_linker_0, # of connection points: 2
#     Edge 42, Type (0, 0), BuildingBlock: XIVTED_clean_linker_0, # of connection points: 2
#     Edge 43, Type (0, 0), BuildingBlock: XIVTED_clean_linker_0, # of connection points: 2
#     Edge 44, Type (0, 0), BuildingBlock: XIVTED_clean_linker_0, # of connection points: 2
#     Edge 45, Type (0, 0), BuildingBlock: XIVTED_clean_linker_0, # of connection points: 2
#     Edge 46, Type (0, 0), BuildingBlock: XIVTED_clean_linker_0, # of connection points: 2
#     Edge 47, Type (0, 0), BuildingBlock: XIVTED_clean_linker_0, # of connection points: 2
# Relax obj value: 0.174
# Max RMSD: 0.207
# Mean RMSD: 0.189
data_MOF--net-uou--node1-AZAVOO_clean_sbu_0--edge1-XIVTED_clean_linker_0
_symmetry_space_group_name_H-M    P1
_symmetry_Int_Tables_number       1
_symmetry_cell_setting            triclinic
loop_
_symmetry_equiv_pos_as_xyz
'x, y, z'
_cell_length_a     39.390938
_cell_length_b     37.030725
_cell_length_c     52.823338
_cell_angle_alpha  89.950774
_cell_angle_beta   90.04794
_cell_angle_gamma 89.87663
loop_
_atom_site_label
_atom_site_type_symbol
_atom_site_fract_x
_atom_site_fract_y
_atom_site_fract_z
_atom_type_partial_charge
Mg0 Mg 0.07516 0.99692 0.09914 0.0
O1 O 0.06418 0.98904 0.14095 0.0
O2 O 0.08531 0.93593 0.15352 0.0
Mg3 Mg 0.11345 0.9117 0.11947 0.0
C4 C 0.06925 0.96523 0.15798 0.0
C5 C 0.03954 0.06852 0.11204 0.0
O6 O 0.06542 0.06892 0.12773 0.0
O7 O 0.03644 0.95451 0.08935 0.0
O8 O 0.06292 0.90244 0.09803 0.0
O9 O 0.12221 0.02542 0.10875 0.0
O10 O 0.11908 0.96626 0.10291 0.0
C11 C 0.03754 0.9201 0.08929 0.0
C12 C 0.13677 0.99405 0.10939 0.0
O13 O 0.03569 0.04158 0.09743 0.0
Mg14 Mg 0.45016 0.98622 0.1136 0.0
O15 O 0.45501 1.00014 0.15555 0.0
O16 O 0.42542 0.05044 0.16349 0.0
Mg17 Mg 0.39942 0.06723 0.12671 0.0
C18 C 0.44461 0.0246 0.1707 0.0
C19 C 0.49157 0.92209 0.13384 0.0
O20 O 0.46593 0.92356 0.1497 0.0
O21 O 0.48516 0.03283 0.10351 0.0
O22 O 0.45107 0.08053 0.10902 0.0
O23 O 0.40462 0.95278 0.12139 0.0
O24 O 0.40305 0.01123 0.1128 0.0
C25 C 0.4794 0.06675 0.10223 0.0
C26 C 0.38712 0.98222 0.11906 0.0
O27 O 0.49374 0.94586 0.11655 0.0
Mg28 Mg 0.60634 0.95651 0.37244 0.0
O29 O 0.56779 0.9812 0.34556 0.0
O30 O 0.57359 0.04115 0.3451 0.0
Mg31 Mg 0.6173 0.05458 0.37217 0.0
C32 C 0.55903 0.01233 0.33753 0.0
C33 C 0.57567 0.88113 0.38855 0.0
O34 O 0.59131 0.88785 0.41 0.0
O35 O 0.57591 0.97571 0.40628 0.0
O36 O 0.587 0.03491 0.4067 0.0
O37 O 0.64293 0.95244 0.34072 0.0
O38 O 0.6384 1.00001 0.36587 0.0
C39 C 0.57343 0.00684 0.41643 0.0
C40 C 0.65174 0.98521 0.34614 0.0
O41 O 0.57727 0.90393 0.37063 0.0
Mg42 Mg 0.92186 0.08636 0.35809 0.0
O43 O 0.95153 0.05392 0.32863 0.0
O44 O 0.92914 0.99852 0.32657 0.0
Mg45 Mg 0.88396 0.99613 0.35367 0.0
C46 C 0.9509 0.02199 0.31952 0.0
C47 C 0.97036 0.14393 0.33736 0.0
O48 O 0.95844 0.12929 0.31653 0.0
O49 O 0.94743 0.05449 0.3899 0.0
O50 O 0.91956 1.002 0.38764 0.0
O51 O 0.88537 0.10549 0.32847 0.0
O52 O 0.87989 0.05497 0.35043 0.0
C53 C 0.94097 0.02288 0.39833 0.0
C54 C 0.86914 0.07573 0.33259 0.0
O55 O 0.96166 0.13075 0.3586 0.0
Mg56 Mg 0.90379 0.90545 0.89061 0.0
O57 O 0.89541 0.84461 0.88435 0.0
O58 O 0.8586 0.82682 0.91385 0.0
Mg59 Mg 0.8411 0.87616 0.93675 0.0
C60 C 0.87895 0.81973 0.8957 0.0
C61 C 0.94615 0.93796 0.84756 0.0
O62 O 0.94902 0.96283 0.86515 0.0
O63 O 0.85369 0.9233 0.87346 0.0
O64 O 0.81668 0.90839 0.90362 0.0
O65 O 0.94437 0.89012 0.91747 0.0
O66 O 0.8911 0.90049 0.92882 0.0
C67 C 0.82371 0.92362 0.88253 0.0
C68 C 0.92126 0.8901 0.93492 0.0
O69 O 0.92923 0.9096 0.85233 0.0
Mg70 Mg 0.58002 0.12522 0.90071 0.0
O71 O 0.57891 0.18626 0.89325 0.0
O72 O 0.61852 0.21075 0.91794 0.0
Mg73 Mg 0.6468 0.16524 0.93897 0.0
C74 C 0.594 0.21386 0.90225 0.0
C75 C 0.54015 0.08443 0.85996 0.0
O76 O 0.54982 0.05802 0.87498 0.0
O77 O 0.62783 0.11398 0.87819 0.0
O78 O 0.66814 0.13445 0.90415 0.0
O79 O 0.54419 0.13499 0.93222 0.0
O80 O 0.60002 0.13258 0.93696 0.0
C81 C 0.65901 0.11751 0.88418 0.0
C82 C 0.57054 0.13791 0.94678 0.0
O83 O 0.54792 0.11665 0.86572 0.0
Mg84 Mg 0.44024 0.03701 0.62975 0.0
O85 O 0.44407 0.09788 0.6213 0.0
O86 O 0.4217 0.10759 0.5831 0.0
Mg87 Mg 0.4 0.05402 0.56868 0.0
C88 C 0.43708 0.11888 0.60284 0.0
C89 C 0.45207 0.02507 0.68742 0.0
O90 O 0.44144 0.99264 0.68126 0.0
O91 O 0.384 0.03918 0.63919 0.0
O92 O 0.3609 0.04826 0.60103 0.0
O93 O 0.48905 0.02986 0.60913 0.0
O94 O 0.43835 0.02488 0.59133 0.0
C95 C 0.35815 0.04288 0.62485 0.0
C96 C 0.47084 0.02533 0.58894 0.0
O97 O 0.45444 0.04911 0.67036 0.0
Mg98 Mg 0.0502 0.95878 0.61519 0.0
O99 O 0.04131 0.89783 0.61194 0.0
O100 O 0.07186 0.87608 0.57988 0.0
Mg101 Mg 0.0989 0.92457 0.56165 0.0
C102 C 0.05092 0.87164 0.59803 0.0
C103 C 0.03726 0.97636 0.67247 0.0
O104 O 0.06028 1.00119 0.66802 0.0
O105 O 0.10387 0.95319 0.63068 0.0
O106 O 0.13277 0.93509 0.59652 0.0
O107 O 0.00668 0.96716 0.58914 0.0
O108 O 0.06017 0.96257 0.5766 0.0
C109 C 0.13167 0.94501 0.61968 0.0
C110 C 0.02856 0.96603 0.57085 0.0
O111 O 0.02775 0.95584 0.65458 0.0
Mg112 Mg 0.62541 0.60471 0.13189 0.0
O113 O 0.58298 0.58553 0.15864 0.0
O114 O 0.57895 0.52544 0.15557 0.0
Mg115 Mg 0.61796 0.50623 0.12667 0.0
C116 C 0.56964 0.55548 0.16518 0.0
C117 C 0.61496 0.68721 0.12063 0.0
O118 O 0.63454 0.67928 0.10129 0.0
O119 O 0.59158 0.59626 0.09707 0.0
O120 O 0.58864 0.53595 0.09566 0.0
O121 O 0.66274 0.59639 0.1635 0.0
O122 O 0.64782 0.55461 0.13563 0.0
C123 C 0.58105 0.56706 0.08691 0.0
C124 C 0.66349 0.56306 0.15617 0.0
O125 O 0.60704 0.66252 0.13624 0.0
Mg126 Mg 0.84162 0.34743 0.11685 0.0
O127 O 0.87497 0.38729 0.13882 0.0
O128 O 0.85 0.44157 0.13767 0.0
Mg129 Mg 0.80116 0.43617 0.11436 0.0
C130 C 0.87404 0.42071 0.14484 0.0
C131 C 0.8795 0.27883 0.10209 0.0
O132 O 0.85205 0.27735 0.08798 0.0
O133 O 0.85978 0.37174 0.07962 0.0
O134 O 0.83246 0.42472 0.07845 0.0
O135 O 0.81383 0.33658 0.15289 0.0
O136 O 0.79982 0.37871 0.1248 0.0
C137 C 0.85233 0.40139 0.06853 0.0
C138 C 0.79549 0.36427 0.14673 0.0
O139 O 0.88381 0.3059 0.11647 0.0
Mg140 Mg 0.07114 0.47646 0.33399 0.0
O141 O 0.03695 0.48137 0.29957 0.0
O142 O 0.03225 0.53936 0.28868 0.0
Mg143 Mg 0.06746 0.57138 0.31535 0.0
C144 C 0.02497 0.50611 0.28535 0.0
C145 C 0.05672 0.39647 0.32273 0.0
O146 O 0.07087 0.40725 0.30153 0.0
O147 O 0.03066 0.50056 0.35956 0.0
O148 O 0.03486 0.55953 0.35071 0.0
O149 O 0.11616 0.46973 0.30922 0.0
O150 O 0.09771 0.52241 0.32321 0.0
C151 C 0.02307 0.53351 0.36396 0.0
C152 C 0.11931 0.50452 0.30989 0.0
O153 O 0.05229 0.41919 0.34045 0.0
Mg154 Mg 0.39378 0.59108 0.37048 0.0
O155 O 0.42363 0.57328 0.3356 0.0
O156 O 0.40619 0.51807 0.32461 0.0
Mg157 Mg 0.36406 0.50127 0.35215 0.0
C158 C 0.42492 0.54576 0.3211 0.0
C159 C 0.43746 0.65805 0.35963 0.0
O160 O 0.42232 0.6531 0.33774 0.0
O161 O 0.4239 0.5524 0.39524 0.0
O162 O 0.40123 0.49873 0.38585 0.0
O163 O 0.35463 0.61597 0.34553 0.0
O164 O 0.35382 0.55908 0.35848 0.0
C165 C 0.42132 0.51844 0.39885 0.0
C166 C 0.34112 0.58419 0.34442 0.0
O167 O 0.43141 0.63628 0.37766 0.0
Mg168 Mg 0.41895 0.51173 0.88778 0.0
O169 O 0.44088 0.45434 0.89304 0.0
O170 O 0.4301 0.43647 0.93251 0.0
Mg171 Mg 0.399 0.48099 0.95193 0.0
C172 C 0.44347 0.43118 0.91083 0.0
C173 C 0.45715 0.49543 0.83803 0.0
O174 O 0.48096 0.48955 0.85499 0.0
O175 O 0.36391 0.49182 0.88429 0.0
O176 O 0.35364 0.47764 0.92464 0.0
O177 O 0.467 0.53532 0.90403 0.0
O178 O 0.42189 0.52158 0.92669 0.0
C179 C 0.3436 0.4818 0.9018 0.0
C180 C 0.45258 0.53319 0.926 0.0
O181 O 0.42801 0.50584 0.84538 0.0
Mg182 Mg 0.01769 0.50066 0.87871 0.0
O183 O -0.00083 0.5592 0.88511 0.0
O184 O 0.00706 0.57141 0.92605 0.0
Mg185 Mg 0.03221 0.52257 0.94532 0.0
C186 C -0.00346 0.58043 0.90406 0.0
C187 C 0.00734 0.48107 0.823 0.0
O188 O 0.00329 0.44998 0.83461 0.0
O189 O 0.07413 0.51637 0.87957 0.0
O190 O 0.08065 0.52524 0.92111 0.0
O191 O 0.96634 0.47995 0.89086 0.0
O192 O 0.00992 0.4873 0.91653 0.0
C193 C 0.09295 0.52286 0.89877 0.0
C194 C 0.97877 0.47824 0.91353 0.0
O195 O 0.01408 0.5089 0.83612 0.0
Mg196 Mg 0.93467 0.54496 0.58848 0.0
O197 O 0.94232 0.60567 0.59431 0.0
O198 O 0.90783 0.63585 0.56832 0.0
Mg199 Mg 0.8791 0.59338 0.54485 0.0
C200 C 0.93082 0.63524 0.58535 0.0
C201 C 0.95539 0.50622 0.63821 0.0
O202 O 0.93651 0.48127 0.62755 0.0
O203 O 0.88283 0.54337 0.60756 0.0
O204 O 0.84955 0.57083 0.57913 0.0
O205 O 0.97502 0.54687 0.55893 0.0
O206 O 0.92016 0.5531 0.55091 0.0
C207 C 0.85363 0.55373 0.59995 0.0
C208 C 0.95091 0.55273 0.54272 0.0
O209 O 0.96071 0.53552 0.62636 0.0
Mg210 Mg 0.55276 0.44522 0.60619 0.0
O211 O 0.5471 0.38334 0.60493 0.0
O212 O 0.57336 0.36423 0.57001 0.0
Mg213 Mg 0.59744 0.41292 0.55007 0.0
C214 C 0.55561 0.35807 0.58976 0.0
C215 C 0.50739 0.46005 0.65358 0.0
O216 O 0.48802 0.47454 0.63602 0.0
O217 O 0.60818 0.44339 0.61851 0.0
O218 O 0.63422 0.42629 0.58289 0.0
O219 O 0.5061 0.45007 0.58227 0.0
O220 O 0.55828 0.44797 0.567 0.0
C221 C 0.63516 0.43677 0.60595 0.0
C222 C 0.52615 0.44954 0.56284 0.0
O223 O 0.53519 0.44519 0.64717 0.0
H224 H 0.34515 0.92457 0.12753 0.0
H225 H 0.17843 0.04754 0.12596 0.0
H226 H 0.3447 0.04065 0.1197 0.0
H227 H 0.17665 0.93316 0.11011 0.0
H228 H 0.23922 0.04351 0.1338 0.0
H229 H 0.28305 0.92579 0.13055 0.0
C230 C 0.3321 0.95033 0.12681 0.0
C231 C 0.35016 0.98259 0.12331 0.0
C232 C 0.22548 0.01922 0.12882 0.0
C233 C 0.27954 0.9841 0.12689 0.0
C234 C 0.19077 0.02147 0.12436 0.0
C235 C 0.17258 0.99071 0.11702 0.0
C236 C 0.24216 0.98599 0.12589 0.0
C237 C 0.18981 0.95758 0.11554 0.0
C238 C 0.29674 0.95095 0.12848 0.0
C239 C 0.332 0.01515 0.12245 0.0
N240 N 0.22383 0.95612 0.11971 0.0
N241 N 0.2977 0.01504 0.12414 0.0
H242 H 0.66744 0.05721 0.34678 0.0
H243 H 0.82037 0.12215 0.31552 0.0
H244 H 0.6954 0.95653 0.31136 0.0
H245 H 0.84672 0.00921 0.31838 0.0
H246 H 0.76183 0.10554 0.30506 0.0
H247 H 0.71787 0.08497 0.32947 0.0
C248 C 0.68372 0.04113 0.33479 0.0
C249 C 0.67765 0.00424 0.3311 0.0
C250 C 0.78052 0.0844 0.30771 0.0
C251 C 0.73573 0.03599 0.31089 0.0
C252 C 0.81397 0.09388 0.31337 0.0
C253 C 0.83779 0.06686 0.31895 0.0
C254 C 0.77124 0.04775 0.30788 0.0
C255 C 0.82858 0.03074 0.31544 0.0
C256 C 0.71251 0.05721 0.32454 0.0
C257 C 0.69947 0.98494 0.31506 0.0
N258 N 0.79579 0.02216 0.3106 0.0
N259 N 0.72813 1.00079 0.30615 0.0
H260 H 0.83582 0.98249 0.8525 0.0
H261 H 0.72837 0.12515 0.88186 0.0
H262 H 0.75431 0.92388 0.88833 0.0
H263 H 0.6471 0.05359 0.86011 0.0
H264 H 0.76926 0.07702 0.87244 0.0
H265 H 0.79655 0.03241 0.84405 0.0
C266 C 0.80947 0.97958 0.85796 0.0
C267 C 0.79846 0.94901 0.87148 0.0
C268 C 0.74254 0.0723 0.86894 0.0
C269 C 0.75361 0.00623 0.86192 0.0
C270 C 0.7192 0.09978 0.87432 0.0
C271 C 0.68423 0.09348 0.8718 0.0
C272 C 0.73075 0.03804 0.86166 0.0
C273 C 0.67379 0.05981 0.86223 0.0
C274 C 0.78722 0.00831 0.85334 0.0
C275 C 0.764 0.94702 0.87811 0.0
N276 N 0.69686 0.03302 0.85826 0.0
N277 N 0.74283 0.97536 0.87341 0.0
H278 H 0.19199 0.90829 0.61889 0.0
H279 H 0.34299 0.99011 0.6589 0.0
H280 H 0.14509 0.00619 0.64601 0.0
H281 H 0.29654 0.07191 0.61203 0.0
H282 H 0.2867 0.96356 0.66617 0.0
H283 H 0.24791 0.93354 0.62945 0.0
C284 C 0.19345 0.93457 0.62781 0.0
C285 C 0.164 0.95508 0.63182 0.0
C286 C 0.28892 0.98791 0.65492 0.0
C287 C 0.22746 0.98444 0.64291 0.0
C288 C 0.32084 1.00327 0.65092 0.0
C289 C 0.32433 0.03317 0.63474 0.0
C290 C 0.26039 1.00318 0.64317 0.0
C291 C 0.29487 0.04879 0.62454 0.0
C292 C 0.22523 0.94892 0.6338 0.0
C293 C 0.16723 0.98935 0.64297 0.0
N294 N 0.26405 0.03352 0.62886 0.0
N295 N 0.19851 1.00348 0.64738 0.0
H296 H 0.72782 0.35837 0.15423 0.0
H297 H 0.72779 0.56261 0.17556 0.0
H298 H 0.81661 0.41526 0.17977 0.0
H299 H 0.63659 0.49905 0.17091 0.0
H300 H 0.75907 0.50849 0.18885 0.0
H301 H 0.69217 0.40582 0.17219 0.0
C302 C 0.73965 0.38027 0.16456 0.0
C303 C 0.77493 0.38345 0.16536 0.0
C304 C 0.73199 0.50654 0.18563 0.0
C305 C 0.73484 0.43882 0.18453 0.0
C306 C 0.7142 0.53745 0.17809 0.0
C307 C 0.68002 0.53468 0.17118 0.0
C308 C 0.71527 0.47294 0.18591 0.0
C309 C 0.66333 0.50179 0.17496 0.0
C310 C 0.71941 0.40757 0.17467 0.0
C311 C 0.78933 0.41237 0.17858 0.0
N312 N 0.68125 0.47198 0.18154 0.0
N313 N 0.76924 0.43965 0.18702 0.0
H314 H 0.32582 0.52156 0.3197 0.0
H315 H 0.13535 0.57644 0.31087 0.0
H316 H 0.29055 0.63065 0.33083 0.0
H317 H 0.17411 0.47268 0.28731 0.0
H318 H 0.1925 0.60114 0.30797 0.0
H319 H 0.27265 0.50705 0.29859 0.0
C320 C 0.30689 0.54251 0.31759 0.0
C321 C 0.31197 0.57695 0.32779 0.0
C322 C 0.18842 0.5732 0.30278 0.0
C323 C 0.25095 0.56067 0.30366 0.0
C324 C 0.1557 0.55908 0.30437 0.0
C325 C 0.15021 0.52214 0.30017 0.0
C326 C 0.21573 0.55002 0.29734 0.0
C327 C 0.17738 0.50111 0.29137 0.0
C328 C 0.27662 0.53436 0.30526 0.0
C329 C 0.28724 0.60355 0.32358 0.0
N330 N 0.20917 0.51512 0.2909 0.0
N331 N 0.25736 0.59463 0.31236 0.0
H332 H 0.13998 0.53244 0.93608 0.0
H333 H 0.30834 0.50017 0.85815 0.0
H334 H 0.1321 0.50982 0.85606 0.0
H335 H 0.29343 0.4641 0.93514 0.0
H336 H 0.24686 0.51178 0.85492 0.0
H337 H 0.20035 0.51952 0.93418 0.0
C338 C 0.15092 0.52525 0.91796 0.0
C339 C 0.13058 0.52182 0.89624 0.0
C340 C 0.25722 0.50086 0.87232 0.0
C341 C 0.20028 0.50675 0.89409 0.0
C342 C 0.29222 0.49401 0.87417 0.0
C343 C 0.30634 0.48149 0.89707 0.0
C344 C 0.23652 0.49578 0.89365 0.0
C345 C 0.28405 0.47412 0.91718 0.0
C346 C 0.18547 0.51756 0.91698 0.0
C347 C 0.14668 0.51265 0.87331 0.0
N348 N 0.25052 0.48194 0.91512 0.0
N349 N 0.18067 0.50528 0.87282 0.0
H350 H 0.64703 0.49128 0.63963 0.0
H351 H 0.79149 0.58601 0.60541 0.0
H352 H 0.69867 0.41094 0.59468 0.0
H353 H 0.84576 0.48723 0.6211 0.0
H354 H 0.73822 0.55556 0.61632 0.0
H355 H 0.70156 0.52128 0.64712 0.0
C356 C 0.66994 0.47925 0.63202 0.0
C357 C 0.66827 0.44875 0.61624 0.0
C358 C 0.76193 0.54093 0.61816 0.0
C359 C 0.73043 0.48303 0.62471 0.0
C360 C 0.79227 0.55826 0.61191 0.0
C361 C 0.82303 0.53916 0.61248 0.0
C362 C 0.76232 0.50397 0.62422 0.0
C363 C 0.82261 0.50303 0.62067 0.0
C364 C 0.70092 0.49663 0.63611 0.0
C365 C 0.69879 0.43457 0.60674 0.0
N366 N 0.79259 0.48626 0.62547 0.0
N367 N 0.72864 0.45198 0.61099 0.0
H368 H 0.99145 0.06776 0.29236 0.0
H369 H 0.05743 0.91659 0.19624 0.0
H370 H 0.9637 0.95532 0.29894 0.0
H371 H 0.05162 0.03023 0.17829 0.0
H372 H 0.03336 0.92956 0.2381 0.0
H373 H 0.02475 0.05319 0.25481 0.0
C374 C -0.00735 0.03993 0.28612 0.0
C375 C 0.97437 0.01279 0.29866 0.0
C376 C 0.03757 0.95158 0.22497 0.0
C377 C 0.01247 0.99604 0.25567 0.0
C378 C 0.05133 0.94424 0.20116 0.0
C379 C 0.05622 0.97233 0.18369 0.0
C380 C 0.02918 0.98728 0.23141 0.0
C381 C 0.04791 0.00768 0.19104 0.0
C382 C 0.01156 0.0317 0.26461 0.0
C383 C 0.97706 0.97718 0.2897 0.0
N384 N 0.03481 0.01413 0.21433 0.0
N385 N -0.00439 0.96984 0.26864 0.0
H386 H 0.4439 0.07906 0.20583 0.0
H387 H 0.52713 0.95632 0.3137 0.0
H388 H 0.47009 0.96656 0.19641 0.0
H389 H 0.53403 0.07278 0.31354 0.0
H390 H 0.49344 0.95925 0.2751 0.0
H391 H 0.46523 0.07633 0.24938 0.0
C392 C 0.45385 0.05374 0.21297 0.0
C393 C 0.45556 0.02307 0.1974 0.0
C394 C 0.50206 0.98417 0.28367 0.0
C395 C 0.47955 0.01977 0.24709 0.0
C396 C 0.5212 0.98259 0.30579 0.0
C397 C 0.53398 0.01436 0.3167 0.0
C398 C 0.49544 0.01773 0.27238 0.0
C399 C 0.52509 0.04758 0.30564 0.0
C400 C 0.46604 0.05225 0.23777 0.0
C401 C 0.46866 0.99097 0.20763 0.0
N402 N 0.50659 0.04839 0.28391 0.0
N403 N 0.48019 0.99018 0.23182 0.0
H404 H -0.0066 0.92406 0.68844 0.0
H405 H 0.98538 0.99444 0.83139 0.0
H406 H 0.04977 0.0164 0.71516 0.0
H407 H 0.94035 0.89467 0.80585 0.0
H408 H 0.00778 0.00431 0.78879 0.0
H409 H 0.97188 0.91457 0.73113 0.0
C410 C 0.00121 0.94243 0.70328 0.0
C411 C 0.02346 0.97109 0.6982 0.0
C412 C -0.00692 0.98022 0.79255 0.0
C413 C -0.00111 0.96027 0.74725 0.0
C414 C 0.98028 0.97455 0.81686 0.0
C415 C 0.96093 0.94369 0.82218 0.0
C416 C 0.98633 0.95493 0.77341 0.0
C417 C 0.95514 0.91884 0.80262 0.0
C418 C 0.98897 0.93691 0.7277 0.0
C419 C 0.0327 0.99395 0.71822 0.0
N420 N 0.9677 0.92507 0.7791 0.0
N421 N 0.02034 0.98806 0.74189 0.0
H422 H 0.4561 0.97894 0.72795 0.0
H423 H 0.521 0.13222 0.82306 0.0
H424 H 0.47012 0.09063 0.7069 0.0
H425 H 0.52036 0.01862 0.8416 0.0
H426 H 0.49647 0.1181 0.78182 0.0
H427 H 0.47411 0.99362 0.77105 0.0
C428 C 0.46283 0.00656 0.7324 0.0
C429 C 0.4618 0.03355 0.71376 0.0
C430 C 0.50156 0.09626 0.79495 0.0
C431 C 0.48233 0.05052 0.76299 0.0
C432 C 0.5155 0.10432 0.81854 0.0
C433 C 0.52296 0.07652 0.83574 0.0
C434 C 0.49499 0.06016 0.7885 0.0
C435 C 0.51518 0.04088 0.82886 0.0
C436 C 0.47314 0.01491 0.757 0.0
C437 C 0.47074 0.06889 0.72061 0.0
N438 N 0.50175 0.0337 0.80572 0.0
N439 N 0.48068 0.07632 0.74465 0.0
H440 H 0.53202 0.49823 0.18209 0.0
H441 H 0.46423 0.60214 0.30469 0.0
H442 H 0.55163 0.61097 0.19693 0.0
H443 H 0.43563 0.49294 0.28554 0.0
H444 H 0.49744 0.60539 0.26581 0.0
H445 H 0.4966 0.4958 0.21988 0.0
C446 C 0.52866 0.52259 0.19315 0.0
C447 C 0.545 0.55484 0.18633 0.0
C448 C 0.48391 0.58071 0.27012 0.0
C449 C 0.50469 0.55207 0.22987 0.0
C450 C 0.46506 0.57873 0.29242 0.0
C451 C 0.44704 0.54718 0.29846 0.0
C452 C 0.48493 0.55091 0.25374 0.0
C453 C 0.44907 0.51782 0.28172 0.0
C454 C 0.50847 0.52114 0.21479 0.0
C455 C 0.53957 0.58552 0.20141 0.0
N456 N 0.46765 0.52041 0.26013 0.0
N457 N 0.52007 0.5833 0.22257 0.0
H458 H 0.98778 0.5495 0.25316 0.0
H459 H 0.92532 0.38335 0.16826 0.0
H460 H 0.01295 0.43787 0.26798 0.0
H461 H 0.8811 0.48995 0.16287 0.0
H462 H 0.96322 0.40519 0.20131 0.0
H463 H 0.95319 0.53008 0.21703 0.0
C464 C 0.98605 0.52097 0.24887 0.0
C465 C 0.00323 0.49531 0.26373 0.0
C466 C 0.94534 0.42387 0.19282 0.0
C467 C 0.96408 0.47302 0.22233 0.0
C468 C 0.92376 0.41146 0.17381 0.0
C469 C 0.89975 0.43476 0.16281 0.0
C470 C 0.94309 0.4599 0.20092 0.0
C471 C 0.89908 0.47094 0.17086 0.0
C472 C 0.96633 0.50993 0.22825 0.0
C473 C 7e-05 0.45868 0.25722 0.0
N474 N 0.92032 0.48237 0.18951 0.0
N475 N 0.98099 0.44871 0.23702 0.0
H476 H 0.44962 0.48926 0.67409 0.0
H477 H 0.51474 0.46757 0.81682 0.0
H478 H 0.54423 0.43799 0.69476 0.0
H479 H 0.41544 0.50876 0.7974 0.0
H480 H 0.526 0.45717 0.77203 0.0
H481 H 0.43644 0.49683 0.71901 0.0
C482 C 0.46756 0.47945 0.68805 0.0
C483 C 0.49814 0.46308 0.68063 0.0
C484 C 0.50172 0.46844 0.77753 0.0
C485 C 0.48329 0.47184 0.73206 0.0
C486 C 0.49529 0.47449 0.80313 0.0
C487 C 0.46413 0.48918 0.81088 0.0
C488 C 0.47687 0.47726 0.75946 0.0
C489 C 0.43984 0.49743 0.79227 0.0
C490 C 0.46001 0.48379 0.7137 0.0
C491 C 0.52038 0.45083 0.69957 0.0
N492 N 0.44677 0.49145 0.76741 0.0
N493 N 0.51258 0.45561 0.72438 0.0
H494 H 0.98955 0.42733 0.79015 0.0
H495 H 0.98822 0.55565 0.66808 0.0
H496 H 0.01518 0.54058 0.79253 0.0
H497 H 0.94996 0.44647 0.66846 0.0
H498 H 0.00391 0.54892 0.71262 0.0
H499 H 0.98037 0.43234 0.74461 0.0
C500 C -0.00663 0.45325 0.78109 0.0
C501 C 0.00298 0.48364 0.79523 0.0
C502 C -0.00777 0.52639 0.70292 0.0
C503 C -0.0075 0.48954 0.74298 0.0
C504 C 0.98336 0.53015 0.67745 0.0
C505 C 0.96755 0.50163 0.66453 0.0
C506 C 0.98537 0.49383 0.71555 0.0
C507 C 0.96192 0.46924 0.67767 0.0
C508 C 0.98809 0.45609 0.75506 0.0
C509 C 0.00764 0.51649 0.78241 0.0
N510 N 0.9707 0.46628 0.70247 0.0
N511 N 0.00227 0.51859 0.75701 0.0
H512 H 0.04167 0.13069 0.13985 0.0
H513 H 0.87745 0.21694 0.07391 0.0
H514 H 0.984 0.07727 0.08133 0.0
H515 H 0.93682 0.27133 0.13102 0.0
H516 H 0.91646 0.16573 0.07607 0.0
H517 H 0.00343 0.18242 0.13689 0.0
C518 C 0.02093 0.12979 0.1264 0.0
C519 C 0.01604 0.09959 0.1108 0.0
C520 C 0.92101 0.1889 0.08809 0.0
C521 C 0.97218 0.15883 0.10728 0.0
C522 C 0.89876 0.21819 0.08684 0.0
C523 C 0.90384 0.24844 0.10236 0.0
C524 C 0.94851 0.18981 0.105 0.0
C525 C 0.93191 0.24856 0.11873 0.0
C526 C -0.00088 0.1594 0.12469 0.0
C527 C 0.98872 0.09997 0.09373 0.0
N528 N 0.95314 0.21963 0.11967 0.0
N529 N 0.96782 0.12914 0.09242 0.0
H530 H 0.49535 0.86902 0.16959 0.0
H531 H 0.62303 0.74592 0.08942 0.0
H532 H 0.54058 0.90346 0.0992 0.0
H533 H 0.57535 0.7126 0.15919 0.0
H534 H 0.59727 0.80573 0.0943 0.0
H535 H 0.52909 0.81388 0.16794 0.0
C536 C 0.51262 0.86514 0.15387 0.0
C537 C 0.51489 0.89076 0.13438 0.0
C538 C 0.59264 0.78537 0.1086 0.0
C539 C 0.55349 0.82736 0.13225 0.0
C540 C 0.60732 0.75121 0.10583 0.0
C541 C 0.60113 0.7241 0.12383 0.0
C542 C 0.57164 0.79243 0.12951 0.0
C543 C 0.58066 0.73254 0.14474 0.0
C544 C 0.53187 0.83357 0.15292 0.0
C545 C 0.53791 0.88435 0.11459 0.0
N546 N 0.56655 0.76586 0.14693 0.0
N547 N 0.55611 0.85311 0.1139 0.0
H548 H 0.45512 0.70946 0.32503 0.0
H549 H 0.56481 0.82639 0.42276 0.0
H550 H 0.47076 0.67837 0.40299 0.0
H551 H 0.54307 0.85856 0.34582 0.0
H552 H 0.53275 0.77068 0.41573 0.0
H553 H 0.48999 0.76277 0.33205 0.0
C554 C 0.46597 0.71378 0.34363 0.0
C555 C 0.45986 0.6895 0.36349 0.0
C556 C 0.53506 0.78996 0.40041 0.0
C557 C 0.49983 0.75067 0.3717 0.0
C558 C 0.55334 0.82176 0.40441 0.0
C559 C 0.55657 0.84723 0.38487 0.0
C560 C 0.52001 0.78363 0.3767 0.0
C561 C 0.54121 0.83978 0.36147 0.0
C562 C 0.48588 0.74429 0.34764 0.0
C563 C 0.47473 0.69645 0.38716 0.0
N564 N 0.52362 0.80872 0.35806 0.0
N565 N 0.49396 0.72649 0.39064 0.0
H566 H 0.03226 0.36326 0.36541 0.0
H567 H -0.00239 0.17592 0.29549 0.0
H568 H 0.05858 0.34265 0.28741 0.0
H569 H 0.98522 0.19074 0.37601 0.0
H570 H 0.02173 0.23639 0.29252 0.0
H571 H 0.01566 0.29999 0.36997 0.0
C572 C 0.03456 0.34545 0.34925 0.0
C573 C 0.04668 0.35831 0.32595 0.0
C574 C 0.01404 0.22633 0.31089 0.0
C575 C 0.0278 0.2859 0.33105 0.0
C576 C 0.0003 0.19176 0.31261 0.0
C577 C 0.98914 0.17836 0.33601 0.0
C578 C 0.01635 0.24786 0.3327 0.0
C579 C -0.00658 0.20002 0.35757 0.0
C580 C 0.02522 0.30929 0.3519 0.0
C581 C 0.0493 0.33396 0.3057 0.0
N582 N 0.00635 0.23388 0.35536 0.0
N583 N 0.03978 0.299 0.30869 0.0
H584 H 0.96548 0.62015 0.94089 0.0
H585 H 0.92005 0.79137 0.85828 0.0
H586 H 0.98477 0.61983 0.86048 0.0
H587 H 0.86318 0.76083 0.92476 0.0
H588 H 0.94699 0.7315 0.85838 0.0
H589 H 0.93264 0.67564 0.93594 0.0
C590 C 0.96307 0.63188 0.92219 0.0
C591 C 0.9781 0.61528 0.90108 0.0
C592 C 0.92817 0.73782 0.87265 0.0
C593 C 0.94029 0.6791 0.8953 0.0
C594 C 0.91264 0.77193 0.87256 0.0
C595 C 0.88938 0.78146 0.89165 0.0
C596 C 0.92093 0.71337 0.89223 0.0
C597 C 0.88095 0.755 0.90968 0.0
C598 C 0.94399 0.66342 0.91935 0.0
C599 C 0.97366 0.63169 0.87727 0.0
N600 N 0.89713 0.72254 0.90979 0.0
N601 N 0.95542 0.66291 0.87503 0.0
H602 H 0.461 0.39716 0.86626 0.0
H603 H 0.60297 0.2746 0.93093 0.0
H604 H 0.47763 0.39296 0.94697 0.0
H605 H 0.54692 0.23505 0.86641 0.0
H606 H 0.56718 0.32852 0.93125 0.0
H607 H 0.5009 0.34631 0.86111 0.0
C608 C 0.47288 0.38549 0.88287 0.0
C609 C 0.46566 0.39911 0.90713 0.0
C610 C 0.56308 0.30824 0.91681 0.0
C611 C 0.51202 0.34208 0.90122 0.0
C612 C 0.58375 0.27756 0.9164 0.0
C613 C 0.5779 0.24994 0.8987 0.0
C614 C 0.53667 0.31183 0.89915 0.0
C615 C 0.55229 0.25549 0.88049 0.0
C616 C 0.49563 0.35661 0.87989 0.0
C617 C 0.48202 0.38311 0.92796 0.0
N618 N 0.53251 0.28575 0.88122 0.0
N619 N 0.50462 0.35575 0.92451 0.0
H620 H 0.46087 0.15876 0.64317 0.0
H621 H 0.55162 0.30348 0.55507 0.0
H622 H 0.44716 0.16318 0.56213 0.0
H623 H 0.52509 0.32939 0.63226 0.0
H624 H 0.52145 0.24633 0.55923 0.0
H625 H 0.49072 0.21695 0.64126 0.0
C626 C 0.46378 0.17208 0.62504 0.0
C627 C 0.45134 0.15601 0.60278 0.0
C628 C 0.52236 0.26446 0.57529 0.0
C629 C 0.48623 0.22192 0.60046 0.0
C630 C 0.53988 0.297 0.57304 0.0
C631 C 0.54091 0.32146 0.59334 0.0
C632 C 0.50608 0.25582 0.59812 0.0
C633 C 0.5249 0.31145 0.61609 0.0
C634 C 0.48086 0.20521 0.62399 0.0
C635 C 0.45602 0.17452 0.57981 0.0
N636 N 0.5082 0.27934 0.6179 0.0
N637 N 0.4734 0.20617 0.57923 0.0
H638 H 0.98742 0.85795 0.61636 0.0
H639 H -0.00394 0.64437 0.60161 0.0
H640 H 0.07593 0.80444 0.58612 0.0
H641 H 0.90468 0.70416 0.5846 0.0
H642 H 0.02613 0.70153 0.60802 0.0
H643 H 0.95751 0.79992 0.61672 0.0
C644 C 0.00079 0.83391 0.61023 0.0
C645 C 0.03425 0.83604 0.60114 0.0
C646 C -0.0006 0.70201 0.60317 0.0
C647 C 0.00022 0.76971 0.60179 0.0
C648 C 0.98212 0.66948 0.5997 0.0
C649 C 0.94776 0.66949 0.59251 0.0
C650 C 0.98205 0.7348 0.60004 0.0
C651 C 0.93116 0.70292 0.59003 0.0
C652 C 0.98359 0.80094 0.61028 0.0
C653 C 0.05014 0.80403 0.59318 0.0
N654 N 0.94844 0.73427 0.59387 0.0
N655 N 0.03303 0.77213 0.59378 0.0
H656 H 0.88502 0.90488 0.97778 0.0
H657 H 0.04319 0.85537 0.06475 0.0
H658 H 0.97667 0.85276 0.95179 0.0
H659 H 0.97241 0.94178 0.07995 0.0
H660 H 0.00624 0.8345 0.03053 0.0
H661 H 0.9051 0.89867 0.02147 0.0
C662 C 0.90899 0.89138 0.9813 0.0
C663 C 0.92969 0.88014 0.96119 0.0
C664 C -0.00162 0.8574 0.04187 0.0
C665 C 0.95247 0.87271 0.01089 0.0
C666 C 0.01932 0.86921 0.0615 0.0
C667 C 0.01123 0.90093 0.07471 0.0
C668 C 0.96917 0.87732 0.03569 0.0
C669 C 0.97993 0.91769 0.06977 0.0
C670 C 0.92038 0.88785 0.0062 0.0
C671 C 0.96033 0.86254 0.96678 0.0
N672 N 0.96028 0.90607 0.05032 0.0
N673 N 0.97104 0.85978 0.99113 0.0
H674 H 0.61524 0.11904 0.98397 0.0
H675 H 0.47091 0.13728 0.08789 0.0
H676 H 0.51689 0.16766 0.97195 0.0
H677 H 0.54303 0.04933 0.08462 0.0
H678 H 0.50253 0.16826 0.05473 0.0
H679 H 0.60237 0.11379 0.0292 0.0
C680 C 0.59137 0.12962 0.99097 0.0
C681 C 0.56667 0.143 0.97423 0.0
C682 C 0.51189 0.14265 0.06182 0.0
C683 C 0.55218 0.13748 0.02566 0.0
C684 C 0.49392 0.12487 0.08078 0.0
C685 C 0.50364 0.08997 0.0884 0.0
C686 C 0.53984 0.12554 0.05061 0.0
C687 C 0.53407 0.07572 0.0788 0.0
C688 C 0.58409 0.12655 0.01672 0.0
C689 C 0.53628 0.15648 0.98423 0.0
N690 N 0.55076 0.09326 0.05997 0.0
N691 N 0.52967 0.15295 0.00931 0.0
H692 H 0.53348 0.04908 0.57399 0.0
H693 H 0.52525 0.96237 0.43697 0.0
H694 H 0.44323 0.99609 0.54648 0.0
H695 H 0.58337 0.05863 0.45233 0.0
H696 H 0.4998 0.96711 0.47921 0.0
H697 H 0.55782 0.04534 0.5313 0.0
C698 C 0.5189 0.03655 0.559 0.0
C699 C 0.48634 0.02292 0.56365 0.0
C700 C 0.518 0.98724 0.47319 0.0
C701 C 0.514 0.01823 0.5152 0.0
C702 C 0.53254 0.98453 0.44918 0.0
C703 C 0.55632 0.01023 0.44115 0.0
C704 C 0.52797 0.01531 0.48939 0.0
C705 C 0.56492 0.03841 0.45771 0.0
C706 C 0.53268 0.03461 0.5347 0.0
C707 C 0.46838 0.00708 0.54359 0.0
N708 N 0.55099 0.04001 0.48118 0.0
N709 N 0.48256 0.0049 0.52023 0.0
H710 H 0.06742 0.98623 0.5306 0.0
H711 H 0.91892 0.96913 0.42943 0.0
H712 H 0.96549 0.95486 0.55076 0.0
H713 H -0.00176 0.0488 0.42196 0.0
H714 H 0.94202 0.9518 0.47054 0.0
H715 H 0.04817 0.99751 0.48715 0.0
C716 C 0.04109 0.98129 0.5258 0.0
C717 C 0.01791 0.96975 0.54425 0.0
C718 C 0.95444 0.97291 0.4598 0.0
C719 C -0.00397 0.98227 0.4948 0.0
C720 C 0.94144 0.98274 0.43628 0.0
C721 C 0.95661 0.01063 0.42227 0.0
C722 C 0.98313 0.99063 0.46925 0.0
C723 C 0.98564 0.02735 0.43222 0.0
C724 C 0.03017 0.98794 0.50111 0.0
C725 C 0.98409 0.96394 0.53711 0.0
N726 N -0.00194 0.01703 0.45515 0.0
N727 N 0.97415 0.97018 0.51287 0.0
H728 H 0.58828 0.61062 0.04518 0.0
H729 H 0.42822 0.52881 0.9742 0.0
H730 H 0.52661 0.5254 0.07632 0.0
H731 H 0.51764 0.55929 0.93212 0.0
H732 H 0.45818 0.54124 0.01343 0.0
H733 H 0.55645 0.60573 0.00504 0.0
C734 C 0.56767 0.59143 0.04368 0.0
C735 C 0.55991 0.56835 0.06394 0.0
C736 C 0.47124 0.54519 -0.0044 0.0
C737 C 0.52371 0.56289 0.01868 0.0
C738 C 0.45425 0.53785 0.97312 0.0
C739 C 0.4707 0.54205 0.94975 0.0
C740 C 0.50477 0.55759 -0.00515 0.0
C741 C 0.50417 0.55515 0.94973 0.0
C742 C 0.54985 0.58843 0.02082 0.0
C743 C 0.53336 0.54358 0.06107 0.0
N744 N 0.52021 0.5625 0.97202 0.0
N745 N 0.51612 0.54161 0.03891 0.0
H746 H 0.82952 0.44802 0.03198 0.0
H747 H 0.00296 0.45176 0.95782 0.0
H748 H 0.91166 0.37465 0.04922 0.0
H749 H 0.90916 0.47655 0.9192 0.0
H750 H 0.97061 0.43048 -0.0058 0.0
H751 H 0.85868 0.46514 0.99275 0.0
C752 C 0.85359 0.4354 0.02745 0.0
C753 C 0.86829 0.40998 0.04394 0.0
C754 C 0.95709 0.44046 0.97774 0.0
C755 C 0.90179 0.42985 -0.00056 0.0
C756 C 0.97549 0.45287 0.95704 0.0
C757 C 0.95867 0.46601 0.93549 0.0
C758 C 0.92155 0.44183 0.97719 0.0
C759 C 0.92305 0.46655 0.93546 0.0
C760 C 0.87006 0.44507 0.00505 0.0
C761 C 0.89939 0.3943 0.03707 0.0
N762 N 0.90556 0.45493 0.95617 0.0
N763 N 0.91533 0.40486 0.01551 0.0
H764 H 0.00899 0.57753 0.52027 0.0
H765 H 0.97525 0.49283 0.38854 0.0
H766 H 0.90913 0.53639 0.50336 0.0
H767 H 0.03081 0.59286 0.39375 0.0
H768 H 0.95338 0.50306 0.4315 0.0
H769 H 0.0216 0.57845 0.47472 0.0
C770 C 0.98968 0.56901 0.50695 0.0
C771 C 0.95803 0.55684 0.51548 0.0
C772 C 0.96988 0.52301 0.42296 0.0
C773 C 0.97247 0.55703 0.46379 0.0
C774 C 0.98232 0.51721 0.39854 0.0
C775 C 0.00479 0.54206 0.38761 0.0
C776 C 0.98093 0.55319 0.43673 0.0
C777 C 0.01334 0.57316 0.40142 0.0
C778 C -0.0032 0.56968 0.48106 0.0
C779 C 0.93381 0.54609 0.4975 0.0
N780 N 0.00199 0.57747 0.42551 0.0
N781 N 0.94175 0.54577 0.47247 0.0
H782 H 0.56111 0.46918 0.52059 0.0
H783 H 0.4034 0.45913 0.42651 0.0
H784 H 0.46135 0.43739 0.54582 0.0
H785 H 0.48097 0.5408 0.42025 0.0
H786 H 0.43079 0.43674 0.46519 0.0
H787 H 0.53787 0.48109 0.47841 0.0
C788 C 0.53442 0.46416 0.51716 0.0
C789 C 0.513 0.45256 0.53676 0.0
C790 C 0.44192 0.45928 0.45512 0.0
C791 C 0.48655 0.46579 0.4886 0.0
C792 C 0.42651 0.47194 0.43302 0.0
C793 C 0.43988 0.50201 0.42027 0.0
C794 C 0.47126 0.47632 0.46417 0.0
C795 C 0.46972 0.51773 0.42963 0.0
C796 C 0.52123 0.47113 0.49315 0.0
C797 C 0.47863 0.44659 0.53127 0.0
N798 N 0.48447 0.50467 0.45103 0.0
N799 N 0.4664 0.4533 0.50764 0.0
loop_
_geom_bond_atom_site_label_1
_geom_bond_atom_site_label_2
_geom_bond_distance
_geom_bond_site_symmetry_2
_ccdc_geom_bond_type
Mg0 O1 2.028 . S
Mg0 O7 1.986 . S
Mg0 O9 2.114 . S
Mg0 O10 2.251 . S
Mg0 O13 2.010 . S
O1 Mg0 2.028 . S
O1 C4 1.250 . S
O2 Mg3 2.028 . S
O2 C4 1.248 1_565 S
Mg3 O2 2.028 . S
Mg3 O8 2.032 . S
Mg3 O10 2.079 1_565 S
C4 O1 1.250 . S
C4 O2 1.248 1_545 S
C5 O6 1.264 . S
C5 O13 1.249 . S
O6 C5 1.264 . S
O7 Mg0 1.986 . S
O7 C11 1.246 . S
O8 Mg3 2.032 . S
O8 C11 1.259 1_565 S
O9 Mg0 2.114 . S
O9 C12 1.252 . S
O10 Mg0 2.251 . S
O10 Mg3 2.079 1_545 S
O10 C12 1.273 . S
C11 O7 1.246 . S
C11 O8 1.259 1_545 S
C12 O9 1.252 . S
C12 O10 1.273 . S
O13 Mg0 2.010 . S
O13 C5 1.249 . S
Mg14 O15 2.028 . S
Mg14 O21 1.986 . S
Mg14 O23 2.114 . S
Mg14 O24 2.251 . S
Mg14 O27 2.010 . S
O15 Mg14 2.028 . S
O15 C18 1.250 . S
O16 Mg17 2.028 . S
O16 C18 1.248 1_545 S
Mg17 O16 2.028 . S
Mg17 O22 2.032 . S
Mg17 O24 2.079 1_545 S
C18 O15 1.250 . S
C18 O16 1.248 1_565 S
C19 O20 1.264 . S
C19 O27 1.249 . S
O20 C19 1.264 . S
O21 Mg14 1.986 . S
O21 C25 1.246 . S
O22 Mg17 2.032 . S
O22 C25 1.259 1_545 S
O23 Mg14 2.114 . S
O23 C26 1.252 . S
O24 Mg14 2.251 . S
O24 Mg17 2.079 1_565 S
O24 C26 1.273 . S
C25 O21 1.246 . S
C25 O22 1.259 1_565 S
C26 O23 1.252 . S
C26 O24 1.273 . S
O27 Mg14 2.010 . S
O27 C19 1.249 . S
Mg28 O29 2.028 . S
Mg28 O35 1.986 . S
Mg28 O37 2.114 . S
Mg28 O38 2.251 . S
Mg28 O41 2.010 . S
O29 Mg28 2.028 . S
O29 C32 1.250 . S
O30 Mg31 2.028 . S
O30 C32 1.248 1_545 S
Mg31 O30 2.028 . S
Mg31 O36 2.032 . S
Mg31 O38 2.079 1_545 S
C32 O29 1.250 . S
C32 O30 1.248 1_565 S
C33 O34 1.264 . S
C33 O41 1.249 . S
O34 C33 1.264 . S
O35 Mg28 1.986 . S
O35 C39 1.246 . S
O36 Mg31 2.032 . S
O36 C39 1.259 1_545 S
O37 Mg28 2.114 . S
O37 C40 1.252 . S
O38 Mg28 2.251 . S
O38 Mg31 2.079 1_565 S
O38 C40 1.273 . S
C39 O35 1.246 . S
C39 O36 1.259 1_565 S
C40 O37 1.252 . S
C40 O38 1.273 . S
O41 Mg28 2.010 . S
O41 C33 1.249 . S
Mg42 O43 2.028 . S
Mg42 O49 1.986 . S
Mg42 O51 2.114 . S
Mg42 O52 2.251 . S
Mg42 O55 2.010 . S
O43 Mg42 2.028 . S
O43 C46 1.250 . S
O44 Mg45 2.028 . S
O44 C46 1.248 1_565 S
Mg45 O44 2.028 . S
Mg45 O50 2.032 . S
Mg45 O52 2.079 1_565 S
C46 O43 1.250 . S
C46 O44 1.248 1_545 S
C47 O48 1.264 . S
C47 O55 1.249 . S
O48 C47 1.264 . S
O49 Mg42 1.986 . S
O49 C53 1.246 . S
O50 Mg45 2.032 . S
O50 C53 1.259 1_565 S
O51 Mg42 2.114 . S
O51 C54 1.252 . S
O52 Mg42 2.251 . S
O52 Mg45 2.079 1_545 S
O52 C54 1.273 . S
C53 O49 1.246 . S
C53 O50 1.259 1_545 S
C54 O51 1.252 . S
C54 O52 1.273 . S
O55 Mg42 2.010 . S
O55 C47 1.249 . S
Mg56 O57 2.028 . S
Mg56 O63 1.986 . S
Mg56 O65 2.114 . S
Mg56 O66 2.251 . S
Mg56 O69 2.010 . S
O57 Mg56 2.028 . S
O57 C60 1.250 . S
O58 Mg59 2.028 . S
O58 C60 1.248 . S
Mg59 O58 2.028 . S
Mg59 O64 2.032 . S
Mg59 O66 2.079 . S
C60 O57 1.250 . S
C60 O58 1.248 . S
C61 O62 1.264 1_565 S
C61 O69 1.249 . S
O62 C61 1.264 1_545 S
O63 Mg56 1.986 . S
O63 C67 1.246 . S
O64 Mg59 2.032 . S
O64 C67 1.259 . S
O65 Mg56 2.114 . S
O65 C68 1.252 . S
O66 Mg56 2.251 . S
O66 Mg59 2.079 . S
O66 C68 1.273 . S
C67 O63 1.246 . S
C67 O64 1.259 . S
C68 O65 1.252 . S
C68 O66 1.273 . S
O69 Mg56 2.010 . S
O69 C61 1.249 . S
Mg70 O71 2.028 . S
Mg70 O77 1.986 . S
Mg70 O79 2.114 . S
Mg70 O80 2.251 . S
Mg70 O83 2.010 . S
O71 Mg70 2.028 . S
O71 C74 1.250 . S
O72 Mg73 2.028 . S
O72 C74 1.248 . S
Mg73 O72 2.028 . S
Mg73 O78 2.032 . S
Mg73 O80 2.079 . S
C74 O71 1.250 . S
C74 O72 1.248 . S
C75 O76 1.264 1_545 S
C75 O83 1.249 . S
O76 C75 1.264 1_565 S
O77 Mg70 1.986 . S
O77 C81 1.246 . S
O78 Mg73 2.032 . S
O78 C81 1.259 . S
O79 Mg70 2.114 . S
O79 C82 1.252 . S
O80 Mg70 2.251 . S
O80 Mg73 2.079 . S
O80 C82 1.273 . S
C81 O77 1.246 . S
C81 O78 1.259 . S
C82 O79 1.252 . S
C82 O80 1.273 . S
O83 Mg70 2.010 . S
O83 C75 1.249 . S
Mg84 O85 2.028 . S
Mg84 O91 1.986 . S
Mg84 O93 2.114 . S
Mg84 O94 2.251 . S
Mg84 O97 2.010 . S
O85 Mg84 2.028 . S
O85 C88 1.250 . S
O86 Mg87 2.028 . S
O86 C88 1.248 . S
Mg87 O86 2.028 . S
Mg87 O92 2.032 . S
Mg87 O94 2.079 . S
C88 O85 1.250 . S
C88 O86 1.248 . S
C89 O90 1.264 1_545 S
C89 O97 1.249 . S
O90 C89 1.264 1_565 S
O91 Mg84 1.986 . S
O91 C95 1.246 . S
O92 Mg87 2.032 . S
O92 C95 1.259 . S
O93 Mg84 2.114 . S
O93 C96 1.252 . S
O94 Mg84 2.251 . S
O94 Mg87 2.079 . S
O94 C96 1.273 . S
C95 O91 1.246 . S
C95 O92 1.259 . S
C96 O93 1.252 . S
C96 O94 1.273 . S
O97 Mg84 2.010 . S
O97 C89 1.249 . S
Mg98 O99 2.028 . S
Mg98 O105 1.986 . S
Mg98 O107 2.114 . S
Mg98 O108 2.251 . S
Mg98 O111 2.010 . S
O99 Mg98 2.028 . S
O99 C102 1.250 . S
O100 Mg101 2.028 . S
O100 C102 1.248 . S
Mg101 O100 2.028 . S
Mg101 O106 2.032 . S
Mg101 O108 2.079 . S
C102 O99 1.250 . S
C102 O100 1.248 . S
C103 O104 1.264 1_565 S
C103 O111 1.249 . S
O104 C103 1.264 1_545 S
O105 Mg98 1.986 . S
O105 C109 1.246 . S
O106 Mg101 2.032 . S
O106 C109 1.259 . S
O107 Mg98 2.114 . S
O107 C110 1.252 . S
O108 Mg98 2.251 . S
O108 Mg101 2.079 . S
O108 C110 1.273 . S
C109 O105 1.246 . S
C109 O106 1.259 . S
C110 O107 1.252 . S
C110 O108 1.273 . S
O111 Mg98 2.010 . S
O111 C103 1.249 . S
Mg112 O113 2.028 . S
Mg112 O119 1.986 . S
Mg112 O121 2.114 . S
Mg112 O122 2.251 . S
Mg112 O125 2.010 . S
O113 Mg112 2.028 . S
O113 C116 1.250 . S
O114 Mg115 2.028 . S
O114 C116 1.248 . S
Mg115 O114 2.028 . S
Mg115 O120 2.032 . S
Mg115 O122 2.079 . S
C116 O113 1.250 . S
C116 O114 1.248 . S
C117 O118 1.264 . S
C117 O125 1.249 . S
O118 C117 1.264 . S
O119 Mg112 1.986 . S
O119 C123 1.246 . S
O120 Mg115 2.032 . S
O120 C123 1.259 . S
O121 Mg112 2.114 . S
O121 C124 1.252 . S
O122 Mg112 2.251 . S
O122 Mg115 2.079 . S
O122 C124 1.273 . S
C123 O119 1.246 . S
C123 O120 1.259 . S
C124 O121 1.252 . S
C124 O122 1.273 . S
O125 Mg112 2.010 . S
O125 C117 1.249 . S
Mg126 O127 2.028 . S
Mg126 O133 1.986 . S
Mg126 O135 2.114 . S
Mg126 O136 2.251 . S
Mg126 O139 2.010 . S
O127 Mg126 2.028 . S
O127 C130 1.250 . S
O128 Mg129 2.028 . S
O128 C130 1.248 . S
Mg129 O128 2.028 . S
Mg129 O134 2.032 . S
Mg129 O136 2.079 . S
C130 O127 1.250 . S
C130 O128 1.248 . S
C131 O132 1.264 . S
C131 O139 1.249 . S
O132 C131 1.264 . S
O133 Mg126 1.986 . S
O133 C137 1.246 . S
O134 Mg129 2.032 . S
O134 C137 1.259 . S
O135 Mg126 2.114 . S
O135 C138 1.252 . S
O136 Mg126 2.251 . S
O136 Mg129 2.079 . S
O136 C138 1.273 . S
C137 O133 1.246 . S
C137 O134 1.259 . S
C138 O135 1.252 . S
C138 O136 1.273 . S
O139 Mg126 2.010 . S
O139 C131 1.249 . S
Mg140 O141 2.028 . S
Mg140 O147 1.986 . S
Mg140 O149 2.114 . S
Mg140 O150 2.251 . S
Mg140 O153 2.010 . S
O141 Mg140 2.028 . S
O141 C144 1.250 . S
O142 Mg143 2.028 . S
O142 C144 1.248 . S
Mg143 O142 2.028 . S
Mg143 O148 2.032 . S
Mg143 O150 2.079 . S
C144 O141 1.250 . S
C144 O142 1.248 . S
C145 O146 1.264 . S
C145 O153 1.249 . S
O146 C145 1.264 . S
O147 Mg140 1.986 . S
O147 C151 1.246 . S
O148 Mg143 2.032 . S
O148 C151 1.259 . S
O149 Mg140 2.114 . S
O149 C152 1.252 . S
O150 Mg140 2.251 . S
O150 Mg143 2.079 . S
O150 C152 1.273 . S
C151 O147 1.246 . S
C151 O148 1.259 . S
C152 O149 1.252 . S
C152 O150 1.273 . S
O153 Mg140 2.010 . S
O153 C145 1.249 . S
Mg154 O155 2.028 . S
Mg154 O161 1.986 . S
Mg154 O163 2.114 . S
Mg154 O164 2.251 . S
Mg154 O167 2.010 . S
O155 Mg154 2.028 . S
O155 C158 1.250 . S
O156 Mg157 2.028 . S
O156 C158 1.248 . S
Mg157 O156 2.028 . S
Mg157 O162 2.032 . S
Mg157 O164 2.079 . S
C158 O155 1.250 . S
C158 O156 1.248 . S
C159 O160 1.264 . S
C159 O167 1.249 . S
O160 C159 1.264 . S
O161 Mg154 1.986 . S
O161 C165 1.246 . S
O162 Mg157 2.032 . S
O162 C165 1.259 . S
O163 Mg154 2.114 . S
O163 C166 1.252 . S
O164 Mg154 2.251 . S
O164 Mg157 2.079 . S
O164 C166 1.273 . S
C165 O161 1.246 . S
C165 O162 1.259 . S
C166 O163 1.252 . S
C166 O164 1.273 . S
O167 Mg154 2.010 . S
O167 C159 1.249 . S
Mg168 O169 2.028 . S
Mg168 O175 1.986 . S
Mg168 O177 2.114 . S
Mg168 O178 2.251 . S
Mg168 O181 2.010 . S
O169 Mg168 2.028 . S
O169 C172 1.250 . S
O170 Mg171 2.028 . S
O170 C172 1.248 . S
Mg171 O170 2.028 . S
Mg171 O176 2.032 . S
Mg171 O178 2.079 . S
C172 O169 1.250 . S
C172 O170 1.248 . S
C173 O174 1.264 . S
C173 O181 1.249 . S
O174 C173 1.264 . S
O175 Mg168 1.986 . S
O175 C179 1.246 . S
O176 Mg171 2.032 . S
O176 C179 1.259 . S
O177 Mg168 2.114 . S
O177 C180 1.252 . S
O178 Mg168 2.251 . S
O178 Mg171 2.079 . S
O178 C180 1.273 . S
C179 O175 1.246 . S
C179 O176 1.259 . S
C180 O177 1.252 . S
C180 O178 1.273 . S
O181 Mg168 2.010 . S
O181 C173 1.249 . S
Mg182 O183 2.028 . S
Mg182 O189 1.986 . S
Mg182 O191 2.114 . S
Mg182 O192 2.251 . S
Mg182 O195 2.010 . S
O183 Mg182 2.028 . S
O183 C186 1.250 . S
O184 Mg185 2.028 . S
O184 C186 1.248 . S
Mg185 O184 2.028 . S
Mg185 O190 2.032 . S
Mg185 O192 2.079 . S
C186 O183 1.250 . S
C186 O184 1.248 . S
C187 O188 1.264 . S
C187 O195 1.249 . S
O188 C187 1.264 . S
O189 Mg182 1.986 . S
O189 C193 1.246 . S
O190 Mg185 2.032 . S
O190 C193 1.259 . S
O191 Mg182 2.114 . S
O191 C194 1.252 . S
O192 Mg182 2.251 . S
O192 Mg185 2.079 . S
O192 C194 1.273 . S
C193 O189 1.246 . S
C193 O190 1.259 . S
C194 O191 1.252 . S
C194 O192 1.273 . S
O195 Mg182 2.010 . S
O195 C187 1.249 . S
Mg196 O197 2.028 . S
Mg196 O203 1.986 . S
Mg196 O205 2.114 . S
Mg196 O206 2.251 . S
Mg196 O209 2.010 . S
O197 Mg196 2.028 . S
O197 C200 1.250 . S
O198 Mg199 2.028 . S
O198 C200 1.248 . S
Mg199 O198 2.028 . S
Mg199 O204 2.032 . S
Mg199 O206 2.079 . S
C200 O197 1.250 . S
C200 O198 1.248 . S
C201 O202 1.264 . S
C201 O209 1.249 . S
O202 C201 1.264 . S
O203 Mg196 1.986 . S
O203 C207 1.246 . S
O204 Mg199 2.032 . S
O204 C207 1.259 . S
O205 Mg196 2.114 . S
O205 C208 1.252 . S
O206 Mg196 2.251 . S
O206 Mg199 2.079 . S
O206 C208 1.273 . S
C207 O203 1.246 . S
C207 O204 1.259 . S
C208 O205 1.252 . S
C208 O206 1.273 . S
O209 Mg196 2.010 . S
O209 C201 1.249 . S
Mg210 O211 2.028 . S
Mg210 O217 1.986 . S
Mg210 O219 2.114 . S
Mg210 O220 2.251 . S
Mg210 O223 2.010 . S
O211 Mg210 2.028 . S
O211 C214 1.250 . S
O212 Mg213 2.028 . S
O212 C214 1.248 . S
Mg213 O212 2.028 . S
Mg213 O218 2.032 . S
Mg213 O220 2.079 . S
C214 O211 1.250 . S
C214 O212 1.248 . S
C215 O216 1.264 . S
C215 O223 1.249 . S
O216 C215 1.264 . S
O217 Mg210 1.986 . S
O217 C221 1.246 . S
O218 Mg213 2.032 . S
O218 C221 1.259 . S
O219 Mg210 2.114 . S
O219 C222 1.252 . S
O220 Mg210 2.251 . S
O220 Mg213 2.079 . S
O220 C222 1.273 . S
C221 O217 1.246 . S
C221 O218 1.259 . S
C222 O219 1.252 . S
C222 O220 1.273 . S
O223 Mg210 2.010 . S
O223 C215 1.249 . S
H224 C230 0.930 . S
H225 C234 0.930 . S
H226 C239 0.929 . S
H227 C237 0.929 . S
H228 C232 0.929 . S
H229 C238 0.929 . S
C230 H224 0.930 . S
C230 C231 1.367 . S
C230 C238 1.378 . S
C231 C230 1.367 . S
C231 C239 1.433 . S
C232 H228 0.929 . S
C232 C234 1.378 . S
C232 C236 1.350 . S
C233 C236 1.463 1_565 S
C233 C238 1.350 . S
C233 N241 1.429 . S
C234 H225 0.930 . S
C234 C232 1.378 . S
C234 C235 1.367 . S
C235 C234 1.367 . S
C235 C237 1.433 . S
C236 C232 1.350 . S
C236 C233 1.463 1_545 S
C236 N240 1.429 . S
C237 H227 0.929 . S
C237 C235 1.433 . S
C237 N240 1.387 . S
C238 H229 0.929 . S
C238 C230 1.378 . S
C238 C233 1.350 . S
C239 H226 0.929 . S
C239 C231 1.433 . S
C239 N241 1.387 . S
N240 C236 1.429 . S
N240 C237 1.387 . S
N241 C233 1.429 . S
N241 C239 1.387 . S
H242 C248 0.930 . S
H243 C252 0.930 . S
H244 C257 0.929 . S
H245 C255 0.929 . S
H246 C250 0.929 1_565 S
H247 C256 0.929 1_545 S
C248 H242 0.930 . S
C248 C249 1.367 . S
C248 C256 1.378 . S
C249 C248 1.367 . S
C249 C257 1.433 . S
C250 H246 0.929 1_545 S
C250 C252 1.378 . S
C250 C254 1.350 . S
C251 C254 1.463 1_565 S
C251 C256 1.350 . S
C251 N259 1.427 . S
C252 H243 0.930 . S
C252 C250 1.378 . S
C252 C253 1.367 . S
C253 C252 1.367 . S
C253 C255 1.433 . S
C254 C250 1.350 . S
C254 C251 1.463 1_545 S
C254 N258 1.427 . S
C255 H245 0.929 . S
C255 C253 1.433 . S
C255 N258 1.384 . S
C256 H247 0.929 1_565 S
C256 C248 1.378 . S
C256 C251 1.350 . S
C257 H244 0.929 . S
C257 C249 1.433 . S
C257 N259 1.384 . S
N258 C254 1.427 . S
N258 C255 1.384 . S
N259 C251 1.427 . S
N259 C257 1.384 . S
H260 C266 0.930 . S
H261 C270 0.930 . S
H262 C275 0.929 . S
H263 C273 0.929 . S
H264 C268 0.929 . S
H265 C274 0.929 . S
C266 H260 0.930 . S
C266 C267 1.367 . S
C266 C274 1.378 . S
C267 C266 1.367 . S
C267 C275 1.433 . S
C268 H264 0.929 . S
C268 C270 1.378 . S
C268 C272 1.350 . S
C269 C272 1.463 1_565 S
C269 C274 1.350 . S
C269 N277 1.427 . S
C270 H261 0.930 . S
C270 C268 1.378 . S
C270 C271 1.367 . S
C271 C270 1.367 . S
C271 C273 1.433 . S
C272 C268 1.350 . S
C272 C269 1.463 1_545 S
C272 N276 1.427 . S
C273 H263 0.929 . S
C273 C271 1.433 . S
C273 N276 1.384 . S
C274 H265 0.929 . S
C274 C266 1.378 . S
C274 C269 1.350 . S
C275 H262 0.929 . S
C275 C267 1.433 . S
C275 N277 1.384 . S
N276 C272 1.427 . S
N276 C273 1.384 . S
N277 C269 1.427 . S
N277 C275 1.384 . S
H278 C284 0.930 1_545 S
H279 C288 0.930 1_565 S
H280 C293 0.929 . S
H281 C291 0.929 . S
H282 C286 0.929 . S
H283 C292 0.929 . S
C284 H278 0.930 1_565 S
C284 C285 1.367 . S
C284 C292 1.378 1_565 S
C285 C284 1.367 . S
C285 C293 1.433 . S
C286 H282 0.929 . S
C286 C288 1.378 1_565 S
C286 C290 1.350 1_565 S
C287 C290 1.463 1_565 S
C287 C292 1.350 1_565 S
C287 N295 1.427 . S
C288 H279 0.930 1_545 S
C288 C286 1.378 1_545 S
C288 C289 1.367 . S
C289 C288 1.367 . S
C289 C291 1.433 . S
C290 C286 1.350 1_545 S
C290 C287 1.463 1_545 S
C290 N294 1.427 . S
C291 H281 0.929 . S
C291 C289 1.433 . S
C291 N294 1.384 . S
C292 H283 0.929 . S
C292 C284 1.378 1_545 S
C292 C287 1.350 1_545 S
C293 H280 0.929 . S
C293 C285 1.433 . S
C293 N295 1.384 . S
N294 C290 1.427 . S
N294 C291 1.384 . S
N295 C287 1.427 . S
N295 C293 1.384 . S
H296 C302 0.930 . S
H297 C306 0.930 . S
H298 C311 0.929 . S
H299 C309 0.929 . S
H300 C304 0.929 . S
H301 C310 0.929 . S
C302 H296 0.930 . S
C302 C303 1.367 . S
C302 C310 1.378 . S
C303 C302 1.367 . S
C303 C311 1.433 . S
C304 H300 0.929 . S
C304 C306 1.378 . S
C304 C308 1.350 . S
C305 C308 1.463 . S
C305 C310 1.350 . S
C305 N313 1.427 . S
C306 H297 0.930 . S
C306 C304 1.378 . S
C306 C307 1.367 . S
C307 C306 1.367 . S
C307 C309 1.433 . S
C308 C304 1.350 . S
C308 C305 1.463 . S
C308 N312 1.427 . S
C309 H299 0.929 . S
C309 C307 1.433 . S
C309 N312 1.384 . S
C310 H301 0.929 . S
C310 C302 1.378 . S
C310 C305 1.350 . S
C311 H298 0.929 . S
C311 C303 1.433 . S
C311 N313 1.384 . S
N312 C308 1.427 . S
N312 C309 1.384 . S
N313 C305 1.427 . S
N313 C311 1.384 . S
H314 C320 0.930 . S
H315 C324 0.930 . S
H316 C329 0.929 . S
H317 C327 0.929 . S
H318 C322 0.929 . S
H319 C328 0.929 . S
C320 H314 0.930 . S
C320 C321 1.367 . S
C320 C328 1.378 . S
C321 C320 1.367 . S
C321 C329 1.433 . S
C322 H318 0.929 . S
C322 C324 1.378 . S
C322 C326 1.350 . S
C323 C326 1.463 . S
C323 C328 1.350 . S
C323 N331 1.427 . S
C324 H315 0.930 . S
C324 C322 1.378 . S
C324 C325 1.367 . S
C325 C324 1.367 . S
C325 C327 1.433 . S
C326 C322 1.350 . S
C326 C323 1.463 . S
C326 N330 1.427 . S
C327 H317 0.929 . S
C327 C325 1.433 . S
C327 N330 1.384 . S
C328 H319 0.929 . S
C328 C320 1.378 . S
C328 C323 1.350 . S
C329 H316 0.929 . S
C329 C321 1.433 . S
C329 N331 1.384 . S
N330 C326 1.427 . S
N330 C327 1.384 . S
N331 C323 1.427 . S
N331 C329 1.384 . S
H332 C338 0.930 . S
H333 C342 0.930 . S
H334 C347 0.929 . S
H335 C345 0.929 . S
H336 C340 0.929 . S
H337 C346 0.929 . S
C338 H332 0.930 . S
C338 C339 1.367 . S
C338 C346 1.378 . S
C339 C338 1.367 . S
C339 C347 1.433 . S
C340 H336 0.929 . S
C340 C342 1.378 . S
C340 C344 1.350 . S
C341 C344 1.463 . S
C341 C346 1.350 . S
C341 N349 1.427 . S
C342 H333 0.930 . S
C342 C340 1.378 . S
C342 C343 1.367 . S
C343 C342 1.367 . S
C343 C345 1.433 . S
C344 C340 1.350 . S
C344 C341 1.463 . S
C344 N348 1.427 . S
C345 H335 0.929 . S
C345 C343 1.433 . S
C345 N348 1.384 . S
C346 H337 0.929 . S
C346 C338 1.378 . S
C346 C341 1.350 . S
C347 H334 0.929 . S
C347 C339 1.433 . S
C347 N349 1.384 . S
N348 C344 1.427 . S
N348 C345 1.384 . S
N349 C341 1.427 . S
N349 C347 1.384 . S
H350 C356 0.930 . S
H351 C360 0.930 . S
H352 C365 0.929 . S
H353 C363 0.929 . S
H354 C358 0.929 . S
H355 C364 0.929 . S
C356 H350 0.930 . S
C356 C357 1.367 . S
C356 C364 1.378 . S
C357 C356 1.367 . S
C357 C365 1.433 . S
C358 H354 0.929 . S
C358 C360 1.378 . S
C358 C362 1.350 . S
C359 C362 1.463 . S
C359 C364 1.350 . S
C359 N367 1.427 . S
C360 H351 0.930 . S
C360 C358 1.378 . S
C360 C361 1.367 . S
C361 C360 1.367 . S
C361 C363 1.433 . S
C362 C358 1.350 . S
C362 C359 1.463 . S
C362 N366 1.427 . S
C363 H353 0.929 . S
C363 C361 1.433 . S
C363 N366 1.384 . S
C364 H355 0.929 . S
C364 C356 1.378 . S
C364 C359 1.350 . S
C365 H352 0.929 . S
C365 C357 1.433 . S
C365 N367 1.384 . S
N366 C362 1.427 . S
N366 C363 1.384 . S
N367 C359 1.427 . S
N367 C365 1.384 . S
H368 C374 0.930 . S
H369 C378 0.930 . S
H370 C383 0.929 . S
H371 C381 0.929 . S
H372 C376 0.929 1_655 S
H373 C382 0.929 1_455 S
C374 H368 0.930 . S
C374 C375 1.367 . S
C374 C382 1.378 . S
C375 C374 1.367 . S
C375 C383 1.433 1_545 S
C376 H372 0.929 1_455 S
C376 C378 1.378 . S
C376 C380 1.350 1_565 S
C377 C380 1.463 1_655 S
C377 C382 1.350 . S
C377 N385 1.427 1_545 S
C378 H369 0.930 . S
C378 C376 1.378 . S
C378 C379 1.367 1_565 S
C379 C378 1.367 1_545 S
C379 C381 1.433 . S
C380 C376 1.350 1_545 S
C380 C377 1.463 1_455 S
C380 N384 1.427 . S
C381 H371 0.929 . S
C381 C379 1.433 . S
C381 N384 1.384 . S
C382 H373 0.929 1_655 S
C382 C374 1.378 . S
C382 C377 1.350 . S
C383 H370 0.929 . S
C383 C375 1.433 1_565 S
C383 N385 1.384 . S
N384 C380 1.427 . S
N384 C381 1.384 . S
N385 C377 1.427 1_565 S
N385 C383 1.384 . S
H386 C392 0.930 1_545 S
H387 C396 0.930 . S
H388 C401 0.929 . S
H389 C399 0.912 1_545 S
H390 C394 0.929 . S
H391 C400 0.929 1_545 S
C392 H386 0.930 1_565 S
C392 C393 1.367 . S
C392 C400 1.378 . S
C393 C392 1.367 . S
C393 C401 1.433 . S
C394 H390 0.929 . S
C394 C396 1.378 . S
C394 C398 1.350 . S
C395 C398 1.463 . S
C395 C400 1.350 . S
C395 N403 1.427 . S
C396 H387 0.930 . S
C396 C394 1.378 . S
C396 C397 1.367 . S
C397 C396 1.367 . S
C397 C399 1.451 . S
C398 C394 1.350 . S
C398 C395 1.463 . S
C398 N402 1.427 . S
C399 H389 0.912 1_565 S
C399 C397 1.451 . S
C399 N402 1.384 . S
C400 H391 0.929 1_565 S
C400 C392 1.378 . S
C400 C395 1.350 . S
C401 H388 0.929 . S
C401 C393 1.433 . S
C401 N403 1.384 . S
N402 C398 1.427 . S
N402 C399 1.384 . S
N403 C395 1.427 . S
N403 C401 1.384 . S
H404 C410 0.930 . S
H405 C414 0.930 1_545 S
H406 C419 0.936 1_545 S
H407 C417 0.936 . S
H408 C412 0.929 1_545 S
H409 C418 0.929 . S
C410 H404 0.930 . S
C410 C411 1.367 . S
C410 C418 1.378 . S
C411 C410 1.367 . S
C411 C419 1.422 1_455 S
C412 H408 0.929 1_565 S
C412 C414 1.378 . S
C412 C416 1.350 . S
C413 C416 1.463 1_455 S
C413 C418 1.350 . S
C413 N421 1.427 1_455 S
C414 H405 0.930 1_565 S
C414 C412 1.378 . S
C414 C415 1.367 . S
C415 C414 1.367 . S
C415 C417 1.422 1_655 S
C416 C412 1.350 . S
C416 C413 1.463 1_655 S
C416 N420 1.427 1_655 S
C417 H407 0.936 . S
C417 C415 1.422 1_455 S
C417 N420 1.388 . S
C418 H409 0.929 . S
C418 C410 1.378 . S
C418 C413 1.350 . S
C419 H406 0.936 1_565 S
C419 C411 1.422 1_655 S
C419 N421 1.388 . S
N420 C416 1.427 1_455 S
N420 C417 1.388 . S
N421 C413 1.427 1_655 S
N421 C419 1.388 . S
H422 C428 0.930 1_565 S
H423 C432 0.930 . S
H424 C437 0.929 . S
H425 C435 0.929 1_565 S
H426 C430 0.929 . S
H427 C436 0.929 1_565 S
C428 H422 0.930 1_545 S
C428 C429 1.367 . S
C428 C436 1.378 . S
C429 C428 1.367 . S
C429 C437 1.433 . S
C430 H426 0.929 . S
C430 C432 1.378 . S
C430 C434 1.350 . S
C431 C434 1.463 . S
C431 C436 1.350 . S
C431 N439 1.427 . S
C432 H423 0.930 . S
C432 C430 1.378 . S
C432 C433 1.367 . S
C433 C432 1.367 . S
C433 C435 1.433 . S
C434 C430 1.350 . S
C434 C431 1.463 . S
C434 N438 1.427 . S
C435 H425 0.929 1_545 S
C435 C433 1.433 . S
C435 N438 1.384 . S
C436 H427 0.929 1_545 S
C436 C428 1.378 . S
C436 C431 1.350 . S
C437 H424 0.929 . S
C437 C429 1.433 . S
C437 N439 1.384 . S
N438 C434 1.427 . S
N438 C435 1.384 . S
N439 C431 1.427 . S
N439 C437 1.384 . S
H440 C446 0.930 . S
H441 C450 0.930 . S
H442 C455 0.929 . S
H443 C453 0.929 . S
H444 C448 0.929 . S
H445 C454 0.929 . S
C446 H440 0.930 . S
C446 C447 1.367 . S
C446 C454 1.378 . S
C447 C446 1.367 . S
C447 C455 1.433 . S
C448 H444 0.929 . S
C448 C450 1.378 . S
C448 C452 1.350 . S
C449 C452 1.463 . S
C449 C454 1.350 . S
C449 N457 1.427 . S
C450 H441 0.930 . S
C450 C448 1.378 . S
C450 C451 1.367 . S
C451 C450 1.367 . S
C451 C453 1.433 . S
C452 C448 1.350 . S
C452 C449 1.463 . S
C452 N456 1.427 . S
C453 H443 0.929 . S
C453 C451 1.433 . S
C453 N456 1.384 . S
C454 H445 0.929 . S
C454 C446 1.378 . S
C454 C449 1.350 . S
C455 H442 0.929 . S
C455 C447 1.433 . S
C455 N457 1.384 . S
N456 C452 1.427 . S
N456 C453 1.384 . S
N457 C449 1.427 . S
N457 C455 1.384 . S
H458 C464 0.930 . S
H459 C468 0.930 . S
H460 C473 0.929 . S
H461 C471 0.929 . S
H462 C466 0.929 . S
H463 C472 0.929 . S
C464 H458 0.930 . S
C464 C465 1.367 . S
C464 C472 1.378 . S
C465 C464 1.367 . S
C465 C473 1.433 1_455 S
C466 H462 0.929 . S
C466 C468 1.378 . S
C466 C470 1.350 . S
C467 C470 1.463 1_455 S
C467 C472 1.350 . S
C467 N475 1.427 1_455 S
C468 H459 0.930 . S
C468 C466 1.378 . S
C468 C469 1.367 . S
C469 C468 1.367 . S
C469 C471 1.433 1_655 S
C470 C466 1.350 . S
C470 C467 1.463 1_655 S
C470 N474 1.427 1_655 S
C471 H461 0.929 . S
C471 C469 1.433 1_455 S
C471 N474 1.384 . S
C472 H463 0.929 . S
C472 C464 1.378 . S
C472 C467 1.350 . S
C473 H460 0.929 . S
C473 C465 1.433 1_655 S
C473 N475 1.384 . S
N474 C470 1.427 1_455 S
N474 C471 1.384 . S
N475 C467 1.427 1_655 S
N475 C473 1.384 . S
H476 C482 0.930 . S
H477 C486 0.930 . S
H478 C491 0.929 . S
H479 C489 0.929 . S
H480 C484 0.929 . S
H481 C490 0.929 . S
C482 H476 0.930 . S
C482 C483 1.367 . S
C482 C490 1.378 . S
C483 C482 1.367 . S
C483 C491 1.433 . S
C484 H480 0.929 . S
C484 C486 1.378 . S
C484 C488 1.350 . S
C485 C488 1.463 . S
C485 C490 1.350 . S
C485 N493 1.427 . S
C486 H477 0.930 . S
C486 C484 1.378 . S
C486 C487 1.367 . S
C487 C486 1.367 . S
C487 C489 1.433 . S
C488 C484 1.350 . S
C488 C485 1.463 . S
C488 N492 1.427 . S
C489 H479 0.929 . S
C489 C487 1.433 . S
C489 N492 1.384 . S
C490 H481 0.929 . S
C490 C482 1.378 . S
C490 C485 1.350 . S
C491 H478 0.929 . S
C491 C483 1.433 . S
C491 N493 1.384 . S
N492 C488 1.427 . S
N492 C489 1.384 . S
N493 C485 1.427 . S
N493 C491 1.384 . S
H494 C500 0.930 . S
H495 C504 0.930 . S
H496 C509 0.929 . S
H497 C507 0.929 . S
H498 C502 0.929 . S
H499 C508 0.929 . S
C500 H494 0.930 . S
C500 C501 1.367 . S
C500 C508 1.378 . S
C501 C500 1.367 . S
C501 C509 1.433 . S
C502 H498 0.929 . S
C502 C504 1.378 . S
C502 C506 1.350 . S
C503 C506 1.463 1_455 S
C503 C508 1.350 . S
C503 N511 1.427 . S
C504 H495 0.930 . S
C504 C502 1.378 . S
C504 C505 1.367 . S
C505 C504 1.367 . S
C505 C507 1.433 . S
C506 C502 1.350 . S
C506 C503 1.463 1_655 S
C506 N510 1.427 . S
C507 H497 0.929 . S
C507 C505 1.433 . S
C507 N510 1.384 . S
C508 H499 0.929 . S
C508 C500 1.378 . S
C508 C503 1.350 . S
C509 H496 0.929 . S
C509 C501 1.433 . S
C509 N511 1.384 . S
N510 C506 1.427 . S
N510 C507 1.384 . S
N511 C503 1.427 . S
N511 C509 1.384 . S
H512 C518 0.930 . S
H513 C522 0.930 . S
H514 C527 0.929 . S
H515 C525 0.929 . S
H516 C520 0.929 . S
H517 C526 0.929 . S
C518 H512 0.930 . S
C518 C519 1.367 . S
C518 C526 1.378 . S
C519 C518 1.367 . S
C519 C527 1.433 . S
C520 H516 0.929 . S
C520 C522 1.378 . S
C520 C524 1.350 . S
C521 C524 1.463 1_455 S
C521 C526 1.350 . S
C521 N529 1.427 1_455 S
C522 H513 0.930 . S
C522 C520 1.378 . S
C522 C523 1.367 . S
C523 C522 1.367 . S
C523 C525 1.433 . S
C524 C520 1.350 . S
C524 C521 1.463 1_655 S
C524 N528 1.427 1_655 S
C525 H515 0.929 . S
C525 C523 1.433 . S
C525 N528 1.384 1_655 S
C526 H517 0.929 . S
C526 C518 1.378 . S
C526 C521 1.350 . S
C527 H514 0.929 . S
C527 C519 1.433 . S
C527 N529 1.384 1_455 S
N528 C524 1.427 1_455 S
N528 C525 1.384 1_455 S
N529 C521 1.427 1_655 S
N529 C527 1.384 1_655 S
H530 C536 0.930 . S
H531 C540 0.930 . S
H532 C545 0.929 . S
H533 C543 0.929 . S
H534 C538 0.929 . S
H535 C544 0.929 . S
C536 H530 0.930 . S
C536 C537 1.367 . S
C536 C544 1.378 . S
C537 C536 1.367 . S
C537 C545 1.433 . S
C538 H534 0.929 . S
C538 C540 1.378 . S
C538 C542 1.350 . S
C539 C542 1.463 . S
C539 C544 1.350 . S
C539 N547 1.427 . S
C540 H531 0.930 . S
C540 C538 1.378 . S
C540 C541 1.367 . S
C541 C540 1.367 . S
C541 C543 1.433 . S
C542 C538 1.350 . S
C542 C539 1.463 . S
C542 N546 1.427 . S
C543 H533 0.929 . S
C543 C541 1.433 . S
C543 N546 1.384 . S
C544 H535 0.929 . S
C544 C536 1.378 . S
C544 C539 1.350 . S
C545 H532 0.929 . S
C545 C537 1.433 . S
C545 N547 1.384 . S
N546 C542 1.427 . S
N546 C543 1.384 . S
N547 C539 1.427 . S
N547 C545 1.384 . S
H548 C554 0.930 . S
H549 C558 0.930 . S
H550 C563 0.929 . S
H551 C561 0.929 . S
H552 C556 0.929 . S
H553 C562 0.929 . S
C554 H548 0.930 . S
C554 C555 1.367 . S
C554 C562 1.378 . S
C555 C554 1.367 . S
C555 C563 1.433 . S
C556 H552 0.929 . S
C556 C558 1.378 . S
C556 C560 1.350 . S
C557 C560 1.463 . S
C557 C562 1.350 . S
C557 N565 1.427 . S
C558 H549 0.930 . S
C558 C556 1.378 . S
C558 C559 1.367 . S
C559 C558 1.367 . S
C559 C561 1.433 . S
C560 C556 1.350 . S
C560 C557 1.463 . S
C560 N564 1.427 . S
C561 H551 0.929 . S
C561 C559 1.433 . S
C561 N564 1.384 . S
C562 H553 0.929 . S
C562 C554 1.378 . S
C562 C557 1.350 . S
C563 H550 0.929 . S
C563 C555 1.433 . S
C563 N565 1.384 . S
N564 C560 1.427 . S
N564 C561 1.384 . S
N565 C557 1.427 . S
N565 C563 1.384 . S
H566 C572 0.930 . S
H567 C576 0.930 . S
H568 C581 0.929 . S
H569 C579 0.929 . S
H570 C574 0.929 . S
H571 C580 0.929 . S
C572 H566 0.930 . S
C572 C573 1.367 . S
C572 C580 1.378 . S
C573 C572 1.367 . S
C573 C581 1.433 . S
C574 H570 0.929 . S
C574 C576 1.378 . S
C574 C578 1.350 . S
C575 C578 1.463 1_455 S
C575 C580 1.350 . S
C575 N583 1.427 . S
C576 H567 0.930 . S
C576 C574 1.378 . S
C576 C577 1.367 . S
C577 C576 1.367 . S
C577 C579 1.433 . S
C578 C574 1.350 . S
C578 C575 1.463 1_655 S
C578 N582 1.427 . S
C579 H569 0.929 . S
C579 C577 1.433 . S
C579 N582 1.384 . S
C580 H571 0.929 . S
C580 C572 1.378 . S
C580 C575 1.350 . S
C581 H568 0.929 . S
C581 C573 1.433 . S
C581 N583 1.384 . S
N582 C578 1.427 . S
N582 C579 1.384 . S
N583 C575 1.427 . S
N583 C581 1.384 . S
H584 C590 0.930 . S
H585 C594 0.930 . S
H586 C599 0.929 . S
H587 C597 0.929 . S
H588 C592 0.929 . S
H589 C598 0.929 . S
C590 H584 0.930 . S
C590 C591 1.367 . S
C590 C598 1.378 . S
C591 C590 1.367 . S
C591 C599 1.433 . S
C592 H588 0.929 . S
C592 C594 1.378 . S
C592 C596 1.350 . S
C593 C596 1.463 1_455 S
C593 C598 1.350 . S
C593 N601 1.427 . S
C594 H585 0.930 . S
C594 C592 1.378 . S
C594 C595 1.367 . S
C595 C594 1.367 . S
C595 C597 1.433 . S
C596 C592 1.350 . S
C596 C593 1.463 1_655 S
C596 N600 1.427 . S
C597 H587 0.929 . S
C597 C595 1.433 . S
C597 N600 1.384 . S
C598 H589 0.929 . S
C598 C590 1.378 . S
C598 C593 1.350 . S
C599 H586 0.929 . S
C599 C591 1.433 . S
C599 N601 1.384 . S
N600 C596 1.427 . S
N600 C597 1.384 . S
N601 C593 1.427 . S
N601 C599 1.384 . S
H602 C608 0.930 . S
H603 C612 0.930 . S
H604 C617 0.929 . S
H605 C615 0.929 . S
H606 C610 0.929 . S
H607 C616 0.929 . S
C608 H602 0.930 . S
C608 C609 1.367 . S
C608 C616 1.378 . S
C609 C608 1.367 . S
C609 C617 1.433 . S
C610 H606 0.929 . S
C610 C612 1.378 . S
C610 C614 1.350 . S
C611 C614 1.463 . S
C611 C616 1.350 . S
C611 N619 1.427 . S
C612 H603 0.930 . S
C612 C610 1.378 . S
C612 C613 1.367 . S
C613 C612 1.367 . S
C613 C615 1.433 . S
C614 C610 1.350 . S
C614 C611 1.463 . S
C614 N618 1.427 . S
C615 H605 0.929 . S
C615 C613 1.433 . S
C615 N618 1.384 . S
C616 H607 0.929 . S
C616 C608 1.378 . S
C616 C611 1.350 . S
C617 H604 0.929 . S
C617 C609 1.433 . S
C617 N619 1.384 . S
N618 C614 1.427 . S
N618 C615 1.384 . S
N619 C611 1.427 . S
N619 C617 1.384 . S
H620 C626 0.930 . S
H621 C630 0.930 . S
H622 C635 0.929 . S
H623 C633 0.929 . S
H624 C628 0.929 . S
H625 C634 0.929 . S
C626 H620 0.930 . S
C626 C627 1.367 . S
C626 C634 1.378 . S
C627 C626 1.367 . S
C627 C635 1.433 . S
C628 H624 0.929 . S
C628 C630 1.378 . S
C628 C632 1.350 . S
C629 C632 1.463 . S
C629 C634 1.350 . S
C629 N637 1.427 . S
C630 H621 0.930 . S
C630 C628 1.378 . S
C630 C631 1.367 . S
C631 C630 1.367 . S
C631 C633 1.433 . S
C632 C628 1.350 . S
C632 C629 1.463 . S
C632 N636 1.427 . S
C633 H623 0.929 . S
C633 C631 1.433 . S
C633 N636 1.384 . S
C634 H625 0.929 . S
C634 C626 1.378 . S
C634 C629 1.350 . S
C635 H622 0.929 . S
C635 C627 1.433 . S
C635 N637 1.384 . S
N636 C632 1.427 . S
N636 C633 1.384 . S
N637 C629 1.427 . S
N637 C635 1.384 . S
H638 C644 0.930 1_655 S
H639 C648 0.930 1_455 S
H640 C653 0.929 . S
H641 C651 0.929 . S
H642 C646 0.929 . S
H643 C652 0.929 . S
C644 H638 0.930 1_455 S
C644 C645 1.367 . S
C644 C652 1.378 1_455 S
C645 C644 1.367 . S
C645 C653 1.433 . S
C646 H642 0.929 . S
C646 C648 1.378 1_455 S
C646 C650 1.350 1_455 S
C647 C650 1.463 1_455 S
C647 C652 1.350 1_455 S
C647 N655 1.427 . S
C648 H639 0.930 1_655 S
C648 C646 1.378 1_655 S
C648 C649 1.367 . S
C649 C648 1.367 . S
C649 C651 1.433 . S
C650 C646 1.350 1_655 S
C650 C647 1.463 1_655 S
C650 N654 1.427 . S
C651 H641 0.929 . S
C651 C649 1.433 . S
C651 N654 1.384 . S
C652 H643 0.929 . S
C652 C644 1.378 1_655 S
C652 C647 1.350 1_655 S
C653 H640 0.929 . S
C653 C645 1.433 . S
C653 N655 1.384 . S
N654 C650 1.427 . S
N654 C651 1.384 . S
N655 C647 1.427 . S
N655 C653 1.384 . S
H656 C662 0.930 1_545 S
H657 C666 0.930 . S
H658 C671 0.929 . S
H659 C669 0.929 . S
H660 C664 0.929 . S
H661 C670 0.929 1_545 S
C662 H656 0.930 1_565 S
C662 C663 1.367 . S
C662 C670 1.378 . S
C663 C662 1.367 . S
C663 C671 1.433 1_655 S
C664 H660 0.929 . S
C664 C666 1.378 . S
C664 C668 1.350 . S
C665 C668 1.463 1_656 S
C665 C670 1.350 . S
C665 N673 1.427 1_655 S
C666 H657 0.930 . S
C666 C664 1.378 . S
C666 C667 1.367 . S
C667 C666 1.367 . S
C667 C669 1.433 1_465 S
C668 C664 1.350 . S
C668 C665 1.463 1_454 S
C668 N672 1.427 1_465 S
C669 H659 0.929 . S
C669 C667 1.433 1_645 S
C669 N672 1.384 . S
C670 H661 0.929 1_565 S
C670 C662 1.378 . S
C670 C665 1.350 . S
C671 H658 0.929 . S
C671 C663 1.433 1_455 S
C671 N673 1.384 . S
N672 C668 1.427 1_645 S
N672 C669 1.384 . S
N673 C665 1.427 1_455 S
N673 C671 1.384 . S
H674 C680 0.930 . S
H675 C684 0.930 . S
H676 C689 0.929 . S
H677 C687 0.929 . S
H678 C682 0.929 . S
H679 C688 0.929 . S
C680 H674 0.930 . S
C680 C681 1.367 1_565 S
C680 C688 1.378 . S
C681 C680 1.367 1_545 S
C681 C689 1.433 . S
C682 H678 0.929 . S
C682 C684 1.378 . S
C682 C686 1.350 . S
C683 C686 1.463 1_556 S
C683 C688 1.350 1_545 S
C683 N691 1.427 . S
C684 H675 0.930 . S
C684 C682 1.378 . S
C684 C685 1.367 . S
C685 C684 1.367 . S
C685 C687 1.433 1_545 S
C686 C682 1.350 . S
C686 C683 1.463 1_554 S
C686 N690 1.427 1_545 S
C687 H677 0.929 . S
C687 C685 1.433 1_565 S
C687 N690 1.384 . S
C688 H679 0.929 . S
C688 C680 1.378 . S
C688 C683 1.350 1_565 S
C689 H676 0.929 . S
C689 C681 1.433 . S
C689 N691 1.384 . S
N690 C686 1.427 1_565 S
N690 C687 1.384 . S
N691 C683 1.427 . S
N691 C689 1.384 . S
H692 C698 0.930 . S
H693 C702 0.930 . S
H694 C707 0.929 . S
H695 C705 0.929 . S
H696 C700 0.929 . S
H697 C706 0.929 . S
C698 H692 0.930 . S
C698 C699 1.367 . S
C698 C706 1.378 . S
C699 C698 1.367 . S
C699 C707 1.433 1_545 S
C700 H696 0.929 . S
C700 C702 1.378 . S
C700 C704 1.350 1_565 S
C701 C704 1.463 . S
C701 C706 1.350 . S
C701 N709 1.427 1_545 S
C702 H693 0.930 . S
C702 C700 1.378 . S
C702 C703 1.367 1_565 S
C703 C702 1.367 1_545 S
C703 C705 1.433 . S
C704 C700 1.350 1_545 S
C704 C701 1.463 . S
C704 N708 1.427 . S
C705 H695 0.929 . S
C705 C703 1.433 . S
C705 N708 1.384 . S
C706 H697 0.929 . S
C706 C698 1.378 . S
C706 C701 1.350 . S
C707 H694 0.929 . S
C707 C699 1.433 1_565 S
C707 N709 1.384 . S
N708 C704 1.427 . S
N708 C705 1.384 . S
N709 C701 1.427 1_565 S
N709 C707 1.384 . S
H710 C716 0.930 . S
H711 C720 0.930 . S
H712 C725 0.929 . S
H713 C723 0.929 . S
H714 C718 0.929 . S
H715 C724 0.929 . S
C716 H710 0.930 . S
C716 C717 1.367 1_545 S
C716 C724 1.378 . S
C717 C716 1.367 1_565 S
C717 C725 1.433 . S
C718 H714 0.929 . S
C718 C720 1.378 . S
C718 C722 1.350 . S
C719 C722 1.463 1_455 S
C719 C724 1.350 1_565 S
C719 N727 1.427 . S
C720 H711 0.930 . S
C720 C718 1.378 . S
C720 C721 1.367 . S
C721 C720 1.367 . S
C721 C723 1.433 1_565 S
C722 C718 1.350 . S
C722 C719 1.463 1_655 S
C722 N726 1.427 1_565 S
C723 H713 0.929 . S
C723 C721 1.433 1_545 S
C723 N726 1.384 . S
C724 H715 0.929 . S
C724 C716 1.378 . S
C724 C719 1.350 1_545 S
C725 H712 0.929 . S
C725 C717 1.433 . S
C725 N727 1.384 . S
N726 C722 1.427 1_545 S
N726 C723 1.384 . S
N727 C719 1.427 . S
N727 C725 1.384 . S
H728 C734 0.930 . S
H729 C738 0.930 . S
H730 C743 0.929 . S
H731 C741 0.929 . S
H732 C736 0.929 1_554 S
H733 C742 0.929 . S
C734 H728 0.930 . S
C734 C735 1.367 . S
C734 C742 1.378 . S
C735 C734 1.367 . S
C735 C743 1.433 . S
C736 H732 0.929 1_556 S
C736 C738 1.378 . S
C736 C740 1.350 . S
C737 C740 1.463 1_554 S
C737 C742 1.350 . S
C737 N745 1.427 . S
C738 H729 0.930 . S
C738 C736 1.378 . S
C738 C739 1.367 . S
C739 C738 1.367 . S
C739 C741 1.433 . S
C740 C736 1.350 . S
C740 C737 1.463 1_556 S
C740 N744 1.427 . S
C741 H731 0.929 . S
C741 C739 1.433 . S
C741 N744 1.384 . S
C742 H733 0.929 . S
C742 C734 1.378 . S
C742 C737 1.350 . S
C743 H730 0.929 . S
C743 C735 1.433 . S
C743 N745 1.384 . S
N744 C740 1.427 . S
N744 C741 1.384 . S
N745 C737 1.427 . S
N745 C743 1.384 . S
H746 C752 0.930 . S
H747 C756 0.930 . S
H748 C761 0.929 . S
H749 C759 0.929 . S
H750 C754 0.929 . S
H751 C760 0.929 . S
C752 H746 0.930 . S
C752 C753 1.367 . S
C752 C760 1.378 . S
C753 C752 1.367 . S
C753 C761 1.433 . S
C754 H750 0.929 . S
C754 C756 1.378 . S
C754 C758 1.350 . S
C755 C758 1.463 1_654 S
C755 C760 1.350 . S
C755 N763 1.427 . S
C756 H747 0.930 . S
C756 C754 1.378 . S
C756 C757 1.367 . S
C757 C756 1.367 . S
C757 C759 1.433 . S
C758 C754 1.350 . S
C758 C755 1.463 1_456 S
C758 N762 1.427 . S
C759 H749 0.929 . S
C759 C757 1.433 . S
C759 N762 1.384 . S
C760 H751 0.929 . S
C760 C752 1.378 . S
C760 C755 1.350 . S
C761 H748 0.929 . S
C761 C753 1.433 . S
C761 N763 1.384 . S
N762 C758 1.427 . S
N762 C759 1.384 . S
N763 C755 1.427 . S
N763 C761 1.384 . S
H764 C770 0.930 . S
H765 C774 0.930 . S
H766 C779 0.929 . S
H767 C777 0.929 . S
H768 C772 0.929 . S
H769 C778 0.929 . S
C770 H764 0.930 . S
C770 C771 1.367 1_455 S
C770 C778 1.378 . S
C771 C770 1.367 1_655 S
C771 C779 1.433 . S
C772 H768 0.929 . S
C772 C774 1.378 . S
C772 C776 1.350 1_655 S
C773 C776 1.463 1_655 S
C773 C778 1.350 1_655 S
C773 N781 1.427 . S
C774 H765 0.930 . S
C774 C772 1.378 . S
C774 C775 1.367 1_655 S
C775 C774 1.367 1_455 S
C775 C777 1.433 . S
C776 C772 1.350 1_455 S
C776 C773 1.463 1_455 S
C776 N780 1.427 . S
C777 H767 0.929 . S
C777 C775 1.433 . S
C777 N780 1.384 . S
C778 H769 0.929 . S
C778 C770 1.378 . S
C778 C773 1.350 1_455 S
C779 H766 0.929 . S
C779 C771 1.433 . S
C779 N781 1.384 . S
N780 C776 1.427 . S
N780 C777 1.384 . S
N781 C773 1.427 . S
N781 C779 1.384 . S
H782 C788 0.930 . S
H783 C792 0.930 . S
H784 C797 0.929 . S
H785 C795 0.929 . S
H786 C790 0.929 . S
H787 C796 0.929 . S
C788 H782 0.930 . S
C788 C789 1.367 . S
C788 C796 1.378 . S
C789 C788 1.367 . S
C789 C797 1.433 . S
C790 H786 0.929 . S
C790 C792 1.378 . S
C790 C794 1.350 . S
C791 C794 1.463 . S
C791 C796 1.350 . S
C791 N799 1.427 . S
C792 H783 0.930 . S
C792 C790 1.378 . S
C792 C793 1.367 . S
C793 C792 1.367 . S
C793 C795 1.433 . S
C794 C790 1.350 . S
C794 C791 1.463 . S
C794 N798 1.427 . S
C795 H785 0.929 . S
C795 C793 1.433 . S
C795 N798 1.384 . S
C796 H787 0.929 . S
C796 C788 1.378 . S
C796 C791 1.350 . S
C797 H784 0.929 . S
C797 C789 1.433 . S
C797 N799 1.384 . S
N798 C794 1.427 . S
N798 C795 1.384 . S
N799 C791 1.427 . S
N799 C797 1.384 . S
C231 C26 1.483 . S
C235 C12 1.481 . S
C249 C40 1.481 . S
C253 C54 1.484 . S
C267 C67 1.555 . S
C271 C81 1.549 . S
C285 C109 1.548 . S
C289 C95 1.552 . S
C303 C138 1.481 . S
C307 C124 1.483 . S
C321 C166 1.483 . S
C325 C152 1.482 . S
C339 C193 1.547 . S
C343 C179 1.555 . S
C357 C221 1.555 . S
C361 C207 1.548 . S
C375 C46 1.011 . S
C379 C4 1.006 . S
C393 C18 1.002 . S
C397 C32 1.005 . S
C411 C103 1.103 . S
C415 C61 1.075 . S
C429 C89 1.078 . S
C433 C75 1.107 . S
C447 C116 1.003 . S
C451 C158 1.008 . S
C465 C144 1.002 . S
C469 C130 1.005 . S
C483 C215 1.091 . S
C487 C173 1.101 . S
C501 C187 1.076 . S
C505 C201 1.107 . S
C519 C5 1.286 . S
C523 C131 1.265 . S
C537 C19 1.280 . S
C541 C117 1.267 . S
C555 C159 1.284 . S
C559 C33 1.265 . S
C573 C145 1.266 . S
C577 C47 1.292 . S
C591 C186 1.630 . S
C595 C60 1.637 . S
C609 C172 1.637 . S
C613 C74 1.630 . S
C627 C88 1.637 . S
C631 C214 1.631 . S
C645 C102 1.632 . S
C649 C200 1.631 . S
C663 C68 1.124 . S
C667 C11 1.125 1_565 S
C681 C82 1.126 . S
C685 C25 1.127 1_545 S
C699 C96 1.122 . S
C703 C39 1.131 1_545 S
C717 C110 1.129 . S
C721 C53 1.129 1_565 S
C735 C123 1.125 . S
C739 C180 1.118 . S
C753 C137 1.129 . S
C757 C194 1.129 . S
C771 C208 1.125 . S
C775 C151 1.133 . S
C789 C222 1.128 . S
C793 C165 1.129 . S
