# Generated by pormake.
# Topology ukf, (4)-cn, num edge types: 1
# Building blocks:
#     Node 0, Type 0, BuildingBlock: QUQFOY_clean_sbu_3, # of connection points: 4
#     Node 1, Type 0, BuildingBlock: QUQFOY_clean_sbu_3, # of connection points: 4
#     Node 2, Type 0, BuildingBlock: QUQFOY_clean_sbu_3, # of connection points: 4
#     Node 3, Type 0, BuildingBlock: QUQFOY_clean_sbu_3, # of connection points: 4
#     Node 4, Type 0, BuildingBlock: QUQFOY_clean_sbu_3, # of connection points: 4
#     Node 5, Type 0, BuildingBlock: QUQFOY_clean_sbu_3, # of connection points: 4
#     Node 6, Type 0, BuildingBlock: QUQFOY_clean_sbu_3, # of connection points: 4
#     Node 7, Type 0, BuildingBlock: QUQFOY_clean_sbu_3, # of connection points: 4
#     Node 8, Type 0, BuildingBlock: QUQFOY_clean_sbu_3, # of connection points: 4
#     Node 9, Type 0, BuildingBlock: QUQFOY_clean_sbu_3, # of connection points: 4
#     Node 10, Type 0, BuildingBlock: QUQFOY_clean_sbu_3, # of connection points: 4
#     Node 11, Type 0, BuildingBlock: QUQFOY_clean_sbu_3, # of connection points: 4
#     Edge 12, Type (0, 0), BuildingBlock: EZIPEK_clean_linker_0, # of connection points: 2
#     Edge 13, Type (0, 0), BuildingBlock: EZIPEK_clean_linker_0, # of connection points: 2
#     Edge 14, Type (0, 0), BuildingBlock: EZIPEK_clean_linker_0, # of connection points: 2
#     Edge 15, Type (0, 0), BuildingBlock: EZIPEK_clean_linker_0, # of connection points: 2
#     Edge 16, Type (0, 0), BuildingBlock: EZIPEK_clean_linker_0, # of connection points: 2
#     Edge 17, Type (0, 0), BuildingBlock: EZIPEK_clean_linker_0, # of connection points: 2
#     Edge 18, Type (0, 0), BuildingBlock: EZIPEK_clean_linker_0, # of connection points: 2
#     Edge 19, Type (0, 0), BuildingBlock: EZIPEK_clean_linker_0, # of connection points: 2
#     Edge 20, Type (0, 0), BuildingBlock: EZIPEK_clean_linker_0, # of connection points: 2
#     Edge 21, Type (0, 0), BuildingBlock: EZIPEK_clean_linker_0, # of connection points: 2
#     Edge 22, Type (0, 0), BuildingBlock: EZIPEK_clean_linker_0, # of connection points: 2
#     Edge 23, Type (0, 0), BuildingBlock: EZIPEK_clean_linker_0, # of connection points: 2
#     Edge 24, Type (0, 0), BuildingBlock: EZIPEK_clean_linker_0, # of connection points: 2
#     Edge 25, Type (0, 0), BuildingBlock: EZIPEK_clean_linker_0, # of connection points: 2
#     Edge 26, Type (0, 0), BuildingBlock: EZIPEK_clean_linker_0, # of connection points: 2
#     Edge 27, Type (0, 0), BuildingBlock: EZIPEK_clean_linker_0, # of connection points: 2
#     Edge 28, Type (0, 0), BuildingBlock: EZIPEK_clean_linker_0, # of connection points: 2
#     Edge 29, Type (0, 0), BuildingBlock: EZIPEK_clean_linker_0, # of connection points: 2
#     Edge 30, Type (0, 0), BuildingBlock: EZIPEK_clean_linker_0, # of connection points: 2
#     Edge 31, Type (0, 0), BuildingBlock: EZIPEK_clean_linker_0, # of connection points: 2
#     Edge 32, Type (0, 0), BuildingBlock: EZIPEK_clean_linker_0, # of connection points: 2
#     Edge 33, Type (0, 0), BuildingBlock: EZIPEK_clean_linker_0, # of connection points: 2
#     Edge 34, Type (0, 0), BuildingBlock: EZIPEK_clean_linker_0, # of connection points: 2
#     Edge 35, Type (0, 0), BuildingBlock: EZIPEK_clean_linker_0, # of connection points: 2
# Relax obj value: 0.130
# Max RMSD: 0.097
# Mean RMSD: 0.097
data_MOF--net-ukf--node1-QUQFOY_clean_sbu_3--edge1-EZIPEK_clean_linker_0
_symmetry_space_group_name_H-M    P1
_symmetry_Int_Tables_number       1
_symmetry_cell_setting            triclinic
loop_
_symmetry_equiv_pos_as_xyz
'x, y, z'
_cell_length_a     24.193672
_cell_length_b     24.055688
_cell_length_c     51.855032
_cell_angle_alpha  89.782235
_cell_angle_beta   90.114716
_cell_angle_gamma 119.97542
loop_
_atom_site_label
_atom_site_type_symbol
_atom_site_fract_x
_atom_site_fract_y
_atom_site_fract_z
_atom_type_partial_charge
C0 C 0.27104 0.10404 0.00812 0.0
O1 O 0.29001 0.14415 -0.01032 0.0
Cd2 Cd 0.37808 0.25176 -0.00654 0.0
O3 O 0.29758 0.11962 0.03015 0.0
Cd4 Cd 0.38696 0.2121 0.05089 0.0
C5 C 0.49465 0.21623 0.00847 0.0
O6 O 0.37487 0.29981 0.0334 0.0
O7 O 0.46416 0.32446 0.05263 0.0
O8 O 0.32944 0.19873 0.09105 0.0
C9 C 0.42845 0.34254 0.04215 0.0
O10 O 0.47316 0.24149 -0.00733 0.0
C11 C 0.36693 0.18841 0.10473 0.0
O12 O 0.46938 0.19627 0.03057 0.0
O13 O 0.41276 0.18721 0.09337 0.0
C14 C 0.09782 0.24916 0.32901 0.0
O15 O 0.08188 0.27321 0.31067 0.0
Cd16 Cd 0.08097 0.37268 0.31638 0.0
O17 O 0.11609 0.27969 0.35012 0.0
Cd18 Cd 0.12939 0.37861 0.36883 0.0
C19 C 0.23664 0.47858 0.32731 0.0
O20 O 0.03182 0.37921 0.3557 0.0
O21 O 0.11247 0.46939 0.36811 0.0
O22 O 0.08989 0.3234 0.41009 0.0
C23 C 0.05352 0.4369 0.36289 0.0
O24 O 0.18801 0.46585 0.31363 0.0
C25 C 0.13775 0.36408 0.42291 0.0
O26 O 0.23102 0.44527 0.34726 0.0
O27 O 0.18249 0.41006 0.41048 0.0
C28 C 0.82014 0.1201 0.66067 0.0
O29 O 0.77219 0.08813 0.64623 0.0
Cd30 Cd 0.67214 0.08182 0.65532 0.0
O31 O 0.81442 0.14219 0.68211 0.0
Cd32 Cd 0.73061 0.13935 0.70962 0.0
C33 C 0.72154 0.24069 0.668 0.0
O34 O 0.63297 0.04197 0.6975 0.0
O35 O 0.62342 0.11931 0.71446 0.0
O36 O 0.74519 0.09757 0.75063 0.0
C37 C 0.59727 0.06191 0.70661 0.0
O38 O 0.69211 0.19231 0.65322 0.0
C39 C 0.76406 0.15002 0.76258 0.0
O40 O 0.74463 0.23647 0.68949 0.0
O41 O 0.77132 0.19787 0.74944 0.0
C42 C 0.68068 0.8521 0.00137 0.0
O43 O 0.66042 0.81105 0.9834 0.0
Cd44 Cd 0.5713 0.70529 -0.00948 0.0
O45 O 0.65564 0.83745 0.02365 0.0
Cd46 Cd 0.56962 0.74639 0.04613 0.0
C47 C 0.45745 0.74257 0.00709 0.0
O48 O 0.57677 0.65454 0.02987 0.0
O49 O 0.48848 0.63553 0.04832 0.0
O50 O 0.63537 0.76694 0.08468 0.0
C51 C 0.5226 0.61412 0.0391 0.0
O52 O 0.47598 0.71532 -0.00892 0.0
C53 C 0.59826 0.7757 0.0992 0.0
O54 O 0.48652 0.76465 0.02835 0.0
O55 O 0.5488 0.77198 0.08898 0.0
C56 C 0.79817 0.69641 0.341 0.0
O57 O 0.81619 0.67614 0.32207 0.0
Cd58 Cd 0.83939 0.58992 0.32575 0.0
O59 O 0.79259 0.67242 0.36336 0.0
Cd60 Cd 0.80063 0.58532 0.38398 0.0
C61 C 0.69107 0.4732 0.3442 0.0
O62 O 0.89754 0.59635 0.36436 0.0
O63 O 0.83712 0.50908 0.38599 0.0
O64 O 0.84486 0.64739 0.42344 0.0
C65 C 0.88843 0.54354 0.37375 0.0
O66 O 0.73504 0.493 0.3273 0.0
C67 C 0.79859 0.60827 0.43746 0.0
O68 O 0.70003 0.50104 0.36589 0.0
O69 O 0.7534 0.5595 0.42658 0.0
C70 C 0.08169 0.81585 0.67409 0.0
O71 O 0.11988 0.83909 0.65522 0.0
Cd72 Cd 0.22914 0.86312 0.65769 0.0
O73 O 0.10029 0.80547 0.69554 0.0
Cd74 Cd 0.19606 0.81029 0.71288 0.0
C75 C 0.20072 0.7118 0.66779 0.0
O76 O 0.28402 0.91235 0.69728 0.0
O77 O 0.306 0.84059 0.71191 0.0
O78 O 0.19158 0.85337 0.75475 0.0
C79 C 0.32547 0.89759 0.7044 0.0
O80 O 0.22426 0.7603 0.65281 0.0
C81 C 0.17818 0.80268 0.76721 0.0
O82 O 0.18102 0.71434 0.69028 0.0
O83 O 0.17143 0.75493 0.75426 0.0
C84 C 0.81712 0.69219 0.64712 0.0
O85 O 0.76941 0.67871 0.66127 0.0
Cd86 Cd 0.67112 0.58285 0.65184 0.0
O87 O 0.81069 0.66139 0.62644 0.0
Cd88 Cd 0.72681 0.58008 0.59911 0.0
C89 C 0.72056 0.47316 0.6413 0.0
O90 O 0.62845 0.58077 0.60988 0.0
O91 O 0.61932 0.49315 0.59394 0.0
O92 O 0.75648 0.64749 0.56053 0.0
C93 C 0.59292 0.52477 0.60084 0.0
O94 O 0.69055 0.49232 0.65555 0.0
C95 C 0.76594 0.60919 0.54694 0.0
O96 O 0.74398 0.49978 0.61974 0.0
O97 O 0.76012 0.55931 0.55794 0.0
C98 C 0.11275 0.84219 0.97803 0.0
O99 O 0.07484 0.79427 -0.00839 0.0
Cd100 Cd 0.06661 0.69228 0.98371 0.0
O101 O 0.13821 0.83498 0.95785 0.0
Cd102 Cd 0.13564 0.74965 0.93134 0.0
C103 C 0.22521 0.73711 0.97751 0.0
O104 O 0.03433 0.65346 0.94074 0.0
O105 O 0.11245 0.6409 0.92713 0.0
O106 O 0.10281 0.76792 0.8892 0.0
C107 C 0.0539 0.61637 0.93273 0.0
O108 O 0.17421 0.7089 -0.00914 0.0
C109 C 0.15602 0.78457 0.87846 0.0
O110 O 0.22601 0.7601 0.9553 0.0
O111 O 0.2009 0.78964 0.89282 0.0
C112 C 0.23671 0.12482 0.30996 0.0
O113 O 0.2458 0.08678 0.32392 0.0
Cd114 Cd 0.34375 0.08538 0.31952 0.0
O115 O 0.27341 0.15335 0.29098 0.0
Cd116 Cd 0.3632 0.15111 0.26934 0.0
C117 C 0.45995 0.24355 0.31532 0.0
O118 O 0.35391 0.0462 0.27837 0.0
O119 O 0.44792 0.12588 0.26944 0.0
O120 O 0.30709 0.11925 0.2282 0.0
C121 C 0.41172 0.06597 0.27231 0.0
O122 O 0.43578 0.19179 0.32843 0.0
C123 C 0.35136 0.16513 0.21557 0.0
O124 O 0.43908 0.24505 0.29296 0.0
O125 O 0.39916 0.20668 0.22821 0.0
C126 C 0.08195 0.26276 0.62874 0.0
O127 O 0.12233 0.27737 0.64678 0.0
Cd128 Cd 0.23177 0.36195 0.64338 0.0
O129 O 0.09815 0.29154 0.60711 0.0
Cd130 Cd 0.19211 0.38076 0.58713 0.0
C131 C 0.20109 0.48401 0.63348 0.0
O132 O 0.2787 0.3646 0.60229 0.0
O133 O 0.30401 0.45673 0.58489 0.0
O134 O 0.1726 0.3257 0.54601 0.0
C135 C 0.32157 0.41928 0.59418 0.0
O136 O 0.226 0.45963 0.64798 0.0
C137 C 0.16536 0.36706 0.53348 0.0
O138 O 0.17985 0.46162 0.61112 0.0
O139 O 0.16875 0.414 0.54597 0.0
C140 C 0.83633 0.11545 0.97195 0.0
O141 O 0.87433 0.16249 0.98581 0.0
Cd142 Cd 0.8817 0.26475 0.97928 0.0
O143 O 0.81018 0.12382 0.95219 0.0
Cd144 Cd 0.81097 0.20932 0.92633 0.0
C145 C 0.72214 0.2189 0.97367 0.0
O146 O 0.91163 0.30509 0.93635 0.0
O147 O 0.83411 0.31828 0.92226 0.0
O148 O 0.84471 0.19082 0.88449 0.0
C149 C 0.89217 0.34268 0.92868 0.0
O150 O 0.77354 0.2463 0.98681 0.0
C151 C 0.79172 0.17422 0.87353 0.0
O152 O 0.72068 0.1973 0.95115 0.0
O153 O 0.74684 0.17015 0.88758 0.0
C154 C 0.67759 0.84 0.31185 0.0
O155 O 0.65945 0.87158 0.32549 0.0
Cd156 Cd 0.56539 0.87584 0.31402 0.0
O157 O 0.65316 0.8188 0.2898 0.0
Cd158 Cd 0.5753 0.82196 0.26022 0.0
C159 C 0.46463 0.71552 0.30001 0.0
O160 O 0.57575 0.92014 0.27201 0.0
O161 O 0.49038 0.84644 0.25333 0.0
O162 O 0.64457 0.85971 0.22228 0.0
C163 C 0.52202 0.9033 0.26175 0.0
O164 O 0.47707 0.76372 0.31412 0.0
C165 C 0.6063 0.81247 0.20844 0.0
O166 O 0.49773 0.72188 0.28005 0.0
O167 O 0.55604 0.76873 0.21908 0.0
C168 C 0.12713 0.95265 0.98245 0.0
C169 C 0.14404 0.90635 -0.01028 0.0
C170 C 0.24339 -0.01075 0.00867 0.0
C171 C 0.22528 0.03573 0.00289 0.0
N172 N 0.14454 0.06017 -0.01106 0.0
N173 N 0.20898 0.87746 0.0157 0.0
C174 C 0.16536 0.01701 -0.00884 0.0
C175 C 0.19877 0.92366 0.00503 0.0
N176 N 0.07556 0.93534 0.96684 0.0
N177 N 0.30484 0.00759 0.01551 0.0
H178 H 0.1785 0.82845 0.01293 0.0
H179 H 0.24467 0.88769 0.02925 0.0
H180 H 0.34114 0.05525 0.01674 0.0
H181 H 0.32181 0.97552 0.01705 0.0
H182 H 0.06471 0.96819 0.9585 0.0
H183 H 0.04537 0.88792 0.96118 0.0
H184 H 0.09896 0.0479 0.98264 0.0
H185 H 0.17101 0.10724 -0.00442 0.0
C186 C 0.12984 0.17227 0.34611 0.0
C187 C 0.10671 0.19229 0.32509 0.0
C188 C 0.14462 0.13835 0.29595 0.0
C189 C 0.18477 0.1385 0.31608 0.0
N190 N 0.21704 0.15977 0.36107 0.0
N191 N 0.07184 0.17354 0.28079 0.0
C192 C 0.17684 0.15501 0.34156 0.0
C193 C 0.10732 0.1684 0.30015 0.0
N194 N 0.10672 0.16974 0.37032 0.0
N195 N 0.14093 0.10776 0.27329 0.0
H196 H 0.035 0.18303 0.28445 0.0
H197 H 0.07723 0.16632 0.2614 0.0
H198 H 0.16539 0.08285 0.27031 0.0
H199 H 0.1098 0.10204 0.25835 0.0
H200 H 0.11909 0.15127 0.38612 0.0
H201 H 0.06903 0.17828 0.37363 0.0
H202 H 0.21598 0.17788 0.37919 0.0
H203 H 0.25552 0.15228 0.35871 0.0
C204 C 0.90625 0.20842 0.63582 0.0
C205 C 0.88424 0.14968 0.64922 0.0
C206 C -0.01075 0.15894 0.64471 0.0
C207 C 0.01325 0.22174 0.63451 0.0
N208 N -0.00343 0.31135 0.62546 0.0
N209 N 0.9037 0.06955 0.66806 0.0
C210 C -0.02777 0.24769 0.63114 0.0
C211 C 0.92537 0.12482 0.65408 0.0
N212 N 0.86419 0.22733 0.62781 0.0
N213 N 0.02696 0.13154 0.64482 0.0
H214 H 0.85643 0.04252 0.67422 0.0
H215 H 0.93308 0.05242 0.6747 0.0
H216 H 0.07356 0.15511 0.63774 0.0
H217 H 0.01053 0.08387 0.64983 0.0
H218 H 0.87685 0.26592 0.61534 0.0
H219 H 0.8154 0.20147 0.63166 0.0
H220 H -0.03045 0.3341 0.62606 0.0
H221 H 0.04492 0.34361 0.62284 0.0
C222 C 0.78502 0.94015 0.98355 0.0
C223 C 0.72512 0.92036 -0.00456 0.0
C224 C 0.75033 0.03186 -0.00172 0.0
C225 C 0.8054 0.05056 0.98307 0.0
N226 N 0.87446 0.02374 0.95958 0.0
N227 N 0.64451 0.94657 0.00825 0.0
C228 C 0.82282 0.00508 0.97527 0.0
C229 C 0.70621 0.96599 0.00147 0.0
N230 N 0.80632 0.89753 0.98082 0.0
N231 N 0.73938 0.07702 0.00933 0.0
H232 H 0.60866 0.89864 0.00911 0.0
H233 H 0.62696 0.97809 0.01004 0.0
H234 H 0.76961 0.12626 0.00695 0.0
H235 H 0.70335 0.06561 0.02282 0.0
H236 H 0.85199 0.91054 0.97443 0.0
H237 H 0.78008 0.84997 0.98705 0.0
H238 H 0.88568 -0.00834 0.9509 0.0
H239 H 0.90429 0.07155 0.95422 0.0
C240 C 0.77751 0.83291 0.3146 0.0
C241 C 0.71534 0.81393 0.32371 0.0
C242 C 0.70818 0.719 0.34408 0.0
C243 C 0.7718 0.73934 0.33625 0.0
N244 N 0.87166 0.82194 0.31869 0.0
N245 N 0.62849 0.7486 0.35281 0.0
C246 C 0.80804 0.79838 0.3229 0.0
C247 C 0.68346 0.7607 0.34059 0.0
N248 N 0.80664 0.88303 0.29768 0.0
N249 N 0.66904 0.6577 0.35275 0.0
H250 H 0.60683 0.77628 0.35028 0.0
H251 H 0.60761 0.71453 0.36745 0.0
H252 H 0.68287 0.6232 0.35417 0.0
H253 H 0.62025 0.63845 0.35573 0.0
H254 H 0.84876 0.89471 0.288 0.0
H255 H 0.7867 0.91117 0.29242 0.0
H256 H 0.9019 0.8674 0.3111 0.0
H257 H 0.89542 0.79817 0.32493 0.0
C258 C 0.92221 0.79429 0.65156 0.0
C259 C 0.88162 0.72891 0.65802 0.0
C260 C -0.02837 0.72106 0.6747 0.0
C261 C 0.01243 0.78761 0.66968 0.0
N262 N 0.02524 0.89038 0.65776 0.0
N263 N 0.86393 0.6345 0.68147 0.0
C264 C -0.01268 0.82525 0.65942 0.0
C265 C 0.90513 0.69408 0.67171 0.0
N266 N 0.89882 0.82604 0.63744 0.0
N267 N -0.00364 0.68215 0.68026 0.0
H268 H 0.81459 0.61186 0.6791 0.0
H269 H 0.87826 0.61008 0.69399 0.0
H270 H 0.045 0.69828 0.6813 0.0
H271 H -0.03118 0.63228 0.68101 0.0
H272 H 0.92738 0.87163 0.62964 0.0
H273 H 0.85071 0.80503 0.63242 0.0
H274 H 0.00832 0.92106 0.6526 0.0
H275 H 0.07284 0.91427 0.66366 0.0
C276 C 0.665 0.27596 0.98776 0.0
C277 C 0.66439 0.21729 0.98386 0.0
C278 C 0.55152 0.15674 -0.00374 0.0
C279 C 0.55351 0.21551 0.00163 0.0
N280 N 0.61473 0.33004 0.00791 0.0
N281 N 0.61116 0.10209 -0.01197 0.0
C282 C 0.6111 0.27484 -0.00099 0.0
C283 C 0.60876 0.15763 -0.01083 0.0
N284 N 0.71579 0.33257 0.97952 0.0
N285 N 0.49455 0.10046 -0.00306 0.0
H286 H 0.65204 0.10098 0.98254 0.0
H287 H 0.57444 0.05784 -0.00563 0.0
H288 H 0.45192 0.09807 0.00231 0.0
H289 H 0.48856 0.05686 -0.00952 0.0
H290 H 0.7157 0.37582 0.97918 0.0
H291 H 0.75599 0.33568 0.97074 0.0
H292 H 0.65728 0.37363 0.00908 0.0
H293 H 0.57627 0.33115 0.01645 0.0
C294 C 0.3177 0.5488 0.29441 0.0
C295 C 0.29922 0.53527 0.32066 0.0
C296 C 0.39854 0.6315 0.33293 0.0
C297 C 0.40987 0.65151 0.30676 0.0
N298 N 0.36971 0.63299 0.26284 0.0
N299 N 0.31718 0.57418 0.36479 0.0
C300 C 0.36687 0.61112 0.28744 0.0
C301 C 0.33839 0.57915 0.34002 0.0
N302 N 0.2893 0.50208 0.27615 0.0
N303 N 0.44537 0.6613 0.351 0.0
H304 H 0.27142 0.54035 0.37078 0.0
H305 H 0.34263 0.60891 0.37872 0.0
H306 H 0.49133 0.69758 0.34635 0.0
H307 H 0.44062 0.64455 0.3699 0.0
H308 H 0.30506 0.50864 0.25709 0.0
H309 H 0.2554 0.45481 0.28071 0.0
H310 H 0.33544 0.60648 0.24893 0.0
H311 H 0.40113 0.67999 0.25709 0.0
C312 C 0.6636 0.30031 0.65969 0.0
C313 C 0.72237 0.30084 0.66144 0.0
C314 C 0.78078 0.41659 0.65287 0.0
C315 C 0.72179 0.4144 0.64853 0.0
N316 N 0.60756 0.35184 0.6425 0.0
N317 N 0.83678 0.35672 0.65648 0.0
C318 C 0.66328 0.35563 0.65049 0.0
C319 C 0.7811 0.3583 0.65721 0.0
N320 N 0.60826 0.24785 0.6678 0.0
N321 N 0.83613 0.47445 0.65365 0.0
H322 H 0.83869 0.31485 0.65963 0.0
H323 H 0.88027 0.39555 0.65077 0.0
H324 H 0.83752 0.51802 0.65061 0.0
H325 H 0.87979 0.47976 0.65938 0.0
H326 H 0.56527 0.24764 0.66958 0.0
H327 H 0.60634 0.20656 0.67523 0.0
H328 H 0.56478 0.3086 0.64083 0.0
H329 H 0.60502 0.39088 0.6351 0.0
C330 C 0.28414 0.68087 -0.00937 0.0
C331 C 0.28367 0.73914 0.98709 0.0
C332 C 0.39794 0.80088 -0.00298 0.0
C333 C 0.39742 0.74253 0.00186 0.0
N334 N 0.33778 0.62823 0.00934 0.0
N335 N 0.33613 0.85425 -0.00878 0.0
C336 C 0.33976 0.68286 0.00051 0.0
C337 C 0.33947 0.79916 -0.00842 0.0
N338 N 0.23273 0.6238 0.98329 0.0
N339 N 0.45454 0.85753 -0.00346 0.0
H340 H 0.29416 0.85471 0.98709 0.0
H341 H 0.37336 0.89869 -0.00296 0.0
H342 H 0.49812 0.86052 0.00063 0.0
H343 H 0.459 0.90079 -0.00969 0.0
H344 H 0.23338 0.58086 0.98266 0.0
H345 H 0.19114 0.61996 0.97555 0.0
H346 H 0.29558 0.58457 0.0114 0.0
H347 H 0.37747 0.6278 0.01701 0.0
C348 C 0.57524 0.2999 0.32773 0.0
C349 C 0.51747 0.30116 0.32494 0.0
C350 C 0.57338 0.41601 0.33493 0.0
C351 C 0.63021 0.41374 0.3391 0.0
N352 N 0.68245 0.35156 0.34513 0.0
N353 N 0.45813 0.3563 0.33033 0.0
C354 C 0.63024 0.355 0.33724 0.0
C355 C 0.5155 0.35808 0.32989 0.0
N356 N 0.5786 0.24734 0.32 0.0
N357 N 0.57532 0.47377 0.33471 0.0
H358 H 0.41488 0.3145 0.32678 0.0
H359 H 0.45272 0.39454 0.33635 0.0
H360 H 0.61689 0.51703 0.33839 0.0
H361 H 0.53717 0.47949 0.32901 0.0
H362 H 0.62124 0.24672 0.31877 0.0
H363 H 0.53975 0.206 0.3126 0.0
H364 H 0.68273 0.30855 0.34686 0.0
H365 H 0.72371 0.39097 0.3523 0.0
C366 C 0.25878 0.60095 0.64381 0.0
C367 C 0.20047 0.54195 0.64232 0.0
C368 C 0.14153 0.59518 0.65578 0.0
C369 C 0.20026 0.65293 0.65939 0.0
N370 N 0.31532 0.70819 0.6616 0.0
N371 N 0.08786 0.47957 0.65135 0.0
C372 C 0.25913 0.65517 0.6547 0.0
C373 C 0.14216 0.53806 0.64955 0.0
N374 N 0.31353 0.60567 0.63414 0.0
N375 N 0.08529 0.59544 0.65733 0.0
H376 H 0.08714 0.43678 0.64742 0.0
H377 H 0.04522 0.47295 0.65901 0.0
H378 H 0.08323 0.63669 0.66147 0.0
H379 H 0.04132 0.55642 0.65227 0.0
H380 H 0.35597 0.64908 0.63205 0.0
H381 H 0.31535 0.5669 0.62611 0.0
H382 H 0.35917 0.70988 0.66124 0.0
H383 H 0.31766 0.74867 0.66998 0.0
C384 C 0.36928 0.23395 0.14829 0.0
C385 C 0.35919 0.18092 0.13298 0.0
C386 C 0.34397 0.11694 0.17188 0.0
C387 C 0.34941 0.16851 0.18712 0.0
N388 N 0.35311 0.27041 0.18956 0.0
N389 N 0.32487 0.0684 0.12952 0.0
C390 C 0.35785 0.22538 0.17523 0.0
C391 C 0.34286 0.12127 0.14458 0.0
N392 N 0.39277 0.29325 0.1373 0.0
N393 N 0.34338 0.06532 0.18332 0.0
H394 H 0.32378 0.06991 0.10942 0.0
H395 H 0.30564 0.02211 0.13696 0.0
H396 H 0.34445 0.05984 0.20321 0.0
H397 H 0.34733 0.03035 0.17304 0.0
H398 H 0.40742 0.335 0.14791 0.0
H399 H 0.40343 0.30173 0.11772 0.0
H400 H 0.35248 0.30981 0.1815 0.0
H401 H 0.34334 0.26504 0.20929 0.0
C402 C 0.09411 0.35916 0.46736 0.0
C403 C 0.14144 0.35895 0.45122 0.0
C404 C 0.20524 0.3662 0.48907 0.0
C405 C 0.15616 0.36226 0.50524 0.0
N406 N 0.04865 0.34207 0.51026 0.0
N407 N 0.23417 0.347 0.44673 0.0
C408 C 0.09898 0.35491 0.49453 0.0
C409 C 0.19472 0.35792 0.46209 0.0
N410 N 0.04621 0.36652 0.45692 0.0
N411 N 0.26309 0.38092 0.49931 0.0
H412 H 0.22706 0.33919 0.42692 0.0
H413 H 0.26995 0.33921 0.45395 0.0
H414 H 0.27319 0.38866 0.51894 0.0
H415 H 0.30287 0.39136 0.48813 0.0
H416 H 0.01515 0.37491 0.46791 0.0
H417 H 0.04032 0.36936 0.43716 0.0
H418 H 0.00337 0.32929 0.50339 0.0
H419 H 0.05048 0.33844 0.53027 0.0
C420 C 0.75693 0.19767 0.83139 0.0
C421 C 0.78434 0.16634 0.84518 0.0
C422 C 0.80537 0.12949 0.80427 0.0
C423 C 0.77055 0.15394 0.79103 0.0
N424 N 0.69645 0.19371 0.79382 0.0
N425 N 0.82311 0.09122 0.84499 0.0
C426 C 0.74134 0.18285 0.8051 0.0
C427 C 0.80538 0.12897 0.83171 0.0
N428 N 0.74866 0.24412 0.84283 0.0
N429 N 0.84045 0.10918 0.7908 0.0
H430 H 0.82159 0.08774 0.86506 0.0
H431 H 0.83296 0.05844 0.83602 0.0
H432 H 0.84336 0.1107 0.77073 0.0
H433 H 0.87161 0.09687 0.79961 0.0
H434 H 0.73414 0.27202 0.83259 0.0
H435 H 0.7636 0.26035 0.86155 0.0
H436 H 0.67003 0.20949 0.8042 0.0
H437 H 0.67993 0.17961 0.77506 0.0
C438 C 0.61291 0.7442 0.14386 0.0
C439 C 0.61174 0.79013 0.12692 0.0
C440 C 0.61474 0.85523 0.16361 0.0
C441 C 0.61674 0.80976 0.18056 0.0
N442 N 0.63357 0.7202 0.18711 0.0
N443 N 0.62902 0.89676 0.12 0.0
C444 C 0.62097 0.75715 0.17072 0.0
C445 C 0.61828 0.8481 0.13662 0.0
N446 N 0.60278 0.68678 0.13452 0.0
N447 N 0.60552 0.90293 0.17313 0.0
H448 H 0.63271 0.89331 0.10009 0.0
H449 H 0.64057 0.94254 0.12607 0.0
H450 H 0.60256 0.91013 0.19276 0.0
H451 H 0.59586 0.93247 0.16151 0.0
H452 H 0.59528 0.64843 0.14627 0.0
H453 H 0.59731 0.67551 0.11496 0.0
H454 H 0.64342 0.68496 0.18088 0.0
H455 H 0.64025 0.72903 0.20689 0.0
C456 C 0.73412 0.62092 0.50206 0.0
C457 C 0.77969 0.61976 0.51904 0.0
C458 C 0.84122 0.61619 0.48227 0.0
C459 C 0.79641 0.61883 0.46536 0.0
N460 N 0.71035 0.64046 0.45867 0.0
N461 N 0.88387 0.63222 0.52569 0.0
C462 C 0.74605 0.62656 0.47513 0.0
C463 C 0.83564 0.62245 0.50923 0.0
N464 N 0.67771 0.61275 0.5114 0.0
N465 N 0.88698 0.60433 0.47275 0.0
H466 H 0.88148 0.63789 0.54553 0.0
H467 H 0.92842 0.64091 0.5195 0.0
H468 H 0.8928 0.59957 0.45311 0.0
H469 H 0.91617 0.59443 0.48438 0.0
H470 H 0.63963 0.60512 0.49963 0.0
H471 H 0.66659 0.60845 0.53096 0.0
H472 H 0.67726 0.65316 0.46489 0.0
H473 H 0.71829 0.64553 0.4388 0.0
C474 C 0.19225 0.76139 0.83658 0.0
C475 C 0.1636 0.79182 0.85008 0.0
C476 C 0.13782 0.82345 0.80883 0.0
C477 C 0.17376 0.80026 0.79573 0.0
N478 N 0.25089 0.76439 0.79858 0.0
N479 N 0.12188 0.86447 0.84898 0.0
C480 C 0.20574 0.77438 0.81001 0.0
C481 C 0.14008 0.82666 0.8362 0.0
N482 N 0.20337 0.71719 0.84856 0.0
N483 N 0.09922 0.83961 0.79539 0.0
H484 H 0.12529 0.87021 0.86894 0.0
H485 H 0.11002 0.89542 0.83953 0.0
H486 H 0.09368 0.83515 0.77543 0.0
H487 H 0.06751 0.85084 0.80433 0.0
H488 H 0.21886 0.68986 0.83864 0.0
H489 H 0.1899 0.70197 0.86752 0.0
H490 H 0.27933 0.75098 0.80898 0.0
H491 H 0.26532 0.77682 0.77947 0.0
C492 C 0.47852 0.51073 0.06319 0.0
C493 C 0.49938 0.54459 0.03947 0.0
C494 C 0.47548 0.44535 0.01737 0.0
C495 C 0.44903 0.41106 0.04056 0.0
N496 N 0.41272 0.40814 0.08401 0.0
N497 N 0.50482 0.54198 -0.00702 0.0
C498 C 0.4467 0.44288 0.06304 0.0
C499 C 0.49452 0.51144 0.01622 0.0
N500 N 0.49145 0.54337 0.08597 0.0
N501 N 0.48387 0.41528 -0.00331 0.0
H502 H 0.51646 0.58972 -0.00876 0.0
H503 H 0.49551 0.51829 0.97536 0.0
H504 H 0.4698 0.36663 -0.00323 0.0
H505 H 0.5094 0.43966 0.98029 0.0
H506 H 0.48306 0.52108 0.10394 0.0
H507 H 0.5165 0.59331 0.08704 0.0
H508 H 0.40433 0.42864 0.10011 0.0
H509 H 0.38731 0.35809 0.08417 0.0
C510 C -0.02531 0.52594 0.39064 0.0
C511 C 0.93421 0.52101 0.36998 0.0
C512 C -0.02275 0.46743 0.34356 0.0
C513 C 0.01242 0.46583 0.3652 0.0
N514 N 0.03735 0.48468 0.41063 0.0
N515 N 0.88894 0.479 0.32819 0.0
C516 C 0.00952 0.49302 0.38909 0.0
C517 C 0.93326 0.4896 0.34678 0.0
N518 N -0.01959 0.56283 0.41159 0.0
N519 N -0.01219 0.45043 0.31973 0.0
H520 H 0.85627 0.49507 0.32978 0.0
H521 H 0.88117 0.4499 0.3122 0.0
H522 H 0.02088 0.43551 0.31644 0.0
H523 H -0.0316 0.45702 0.30284 0.0
H524 H 0.01423 0.57385 0.42606 0.0
H525 H 0.95506 0.5872 0.41342 0.0
H526 H 0.03064 0.49702 0.42911 0.0
H527 H 0.06265 0.46012 0.41051 0.0
C528 C 0.49439 -0.00756 0.72911 0.0
C529 C 0.52746 0.02215 0.70607 0.0
C530 C 0.4276 0.97194 0.68173 0.0
C531 C 0.39408 0.94475 0.705 0.0
N532 N 0.39294 0.93955 0.75149 0.0
N533 N 0.5255 0.05329 0.66195 0.0
C534 C 0.42674 0.95807 0.72893 0.0
C535 C 0.49407 0.0159 0.68279 0.0
N536 N 0.52768 -0.00422 0.75096 0.0
N537 N 0.39674 0.95348 0.65856 0.0
H538 H 0.57412 0.08667 0.66219 0.0
H539 H 0.5024 0.05567 0.64537 0.0
H540 H 0.34807 0.92103 0.65693 0.0
H541 H 0.4203 0.96618 0.64088 0.0
H542 H 0.50641 0.96912 0.76755 0.0
H543 H 0.57741 0.0217 0.75193 0.0
H544 H 0.4139 0.95331 0.76963 0.0
H545 H 0.34317 0.91533 0.7521 0.0
C546 C 0.48714 0.48505 0.62231 0.0
C547 C 0.52303 0.49559 0.59941 0.0
C548 C 0.42448 0.44319 0.57418 0.0
C549 C 0.38986 0.44085 0.59652 0.0
N550 N 0.38879 0.46887 0.64108 0.0
N551 N 0.52726 0.49202 0.55294 0.0
C552 C 0.42125 0.46432 0.62042 0.0
C553 C 0.4921 0.4764 0.57513 0.0
N554 N 0.51514 0.49169 0.64585 0.0
N555 N 0.39258 0.41253 0.55224 0.0
H556 H 0.577 0.51661 0.55281 0.0
H557 H 0.50739 0.48547 0.5346 0.0
H558 H 0.34289 0.38692 0.55115 0.0
H559 H 0.41491 0.40727 0.53604 0.0
H560 H 0.48967 0.47865 0.66311 0.0
H561 H 0.56249 0.50323 0.64793 0.0
H562 H 0.4111 0.4922 0.65812 0.0
H563 H 0.3404 0.45434 0.64041 0.0
C564 C -0.00756 0.51058 0.95486 0.0
C565 C 0.01164 0.54653 0.93166 0.0
C566 C 0.95719 0.4478 0.90639 0.0
C567 C 0.93336 0.41269 0.92965 0.0
N568 N 0.91547 0.41167 0.97545 0.0
N569 N 0.00658 0.5519 0.88532 0.0
C570 C 0.94729 0.4443 0.95376 0.0
C571 C -0.00755 0.51587 0.90735 0.0
N572 N 0.01933 0.53905 0.97781 0.0
N573 N 0.94737 0.41598 0.88353 0.0
H574 H 0.03292 0.60195 0.88533 0.0
H575 H -0.01176 0.53268 0.86727 0.0
H576 H 0.92088 0.36607 0.88211 0.0
H577 H -0.0308 0.43849 0.86629 0.0
H578 H 0.01173 0.51349 -0.00505 0.0
H579 H 0.05442 0.58717 0.97924 0.0
H580 H 0.91925 0.43397 -0.00693 0.0
H581 H 0.88012 0.3635 0.97518 0.0
C582 C 0.50178 -0.01155 0.24448 0.0
C583 C 0.49215 0.94339 0.26408 0.0
C584 C 0.43208 -0.01962 0.28973 0.0
C585 C 0.43717 0.02192 0.26924 0.0
N586 N 0.4663 0.05695 0.22511 0.0
N587 N 0.43803 0.88697 0.30289 0.0
C588 C 0.4692 0.02369 0.24603 0.0
C589 C 0.45402 0.93631 0.28593 0.0
N590 N 0.54277 -0.00179 0.22461 0.0
N591 N 0.40981 -0.01455 0.3133 0.0
H592 H 0.45379 0.85409 0.30089 0.0
H593 H 0.40465 0.87525 0.31758 0.0
H594 H 0.3953 0.01863 0.31725 0.0
H595 H 0.41169 0.96125 0.32968 0.0
H596 H 0.55736 0.03549 0.21131 0.0
H597 H 0.56605 0.97186 0.2225 0.0
H598 H 0.48277 0.05436 0.20686 0.0
H599 H 0.44214 0.08267 0.22528 0.0
loop_
_geom_bond_atom_site_label_1
_geom_bond_atom_site_label_2
_geom_bond_distance
_geom_bond_site_symmetry_2
_ccdc_geom_bond_type
C0 O1 1.306 . S
C0 O3 1.160 . S
O1 C0 1.306 . S
O1 Cd2 2.228 1_554 S
Cd2 O1 2.228 1_556 S
Cd2 O6 2.273 1_556 S
Cd2 O10 2.277 1_556 S
O3 C0 1.160 . S
O3 Cd4 2.203 . S
Cd4 O3 2.203 . S
Cd4 O6 2.411 . S
Cd4 O7 2.333 . S
Cd4 O8 2.352 . S
Cd4 O12 2.277 . S
Cd4 O13 2.356 . S
C5 O10 1.209 . S
C5 O12 1.226 . S
O6 Cd2 2.273 1_554 S
O6 Cd4 2.411 . S
O6 C9 1.320 . S
O7 Cd4 2.333 . S
O7 C9 1.214 . S
O8 Cd4 2.352 . S
O8 C11 1.258 . S
C9 O6 1.320 . S
C9 O7 1.214 . S
O10 Cd2 2.277 1_554 S
O10 C5 1.209 . S
C11 O8 1.258 . S
C11 O13 1.282 . S
O12 Cd4 2.277 . S
O12 C5 1.226 . S
O13 Cd4 2.356 . S
O13 C11 1.282 . S
C14 O15 1.306 . S
C14 O17 1.160 . S
O15 C14 1.306 . S
O15 Cd16 2.228 . S
Cd16 O15 2.228 . S
Cd16 O20 2.273 . S
Cd16 O24 2.277 . S
O17 C14 1.160 . S
O17 Cd18 2.203 . S
Cd18 O17 2.203 . S
Cd18 O20 2.411 . S
Cd18 O21 2.333 . S
Cd18 O22 2.352 . S
Cd18 O26 2.277 . S
Cd18 O27 2.356 . S
C19 O24 1.209 . S
C19 O26 1.226 . S
O20 Cd16 2.273 . S
O20 Cd18 2.411 . S
O20 C23 1.320 . S
O21 Cd18 2.333 . S
O21 C23 1.214 . S
O22 Cd18 2.352 . S
O22 C25 1.258 . S
C23 O20 1.320 . S
C23 O21 1.214 . S
O24 Cd16 2.277 . S
O24 C19 1.209 . S
C25 O22 1.258 . S
C25 O27 1.282 . S
O26 Cd18 2.277 . S
O26 C19 1.226 . S
O27 Cd18 2.356 . S
O27 C25 1.282 . S
C28 O29 1.306 . S
C28 O31 1.160 . S
O29 C28 1.306 . S
O29 Cd30 2.228 . S
Cd30 O29 2.228 . S
Cd30 O34 2.273 . S
Cd30 O38 2.277 . S
O31 C28 1.160 . S
O31 Cd32 2.203 . S
Cd32 O31 2.203 . S
Cd32 O34 2.411 . S
Cd32 O35 2.333 . S
Cd32 O36 2.352 . S
Cd32 O40 2.277 . S
Cd32 O41 2.356 . S
C33 O38 1.209 . S
C33 O40 1.226 . S
O34 Cd30 2.273 . S
O34 Cd32 2.411 . S
O34 C37 1.320 . S
O35 Cd32 2.333 . S
O35 C37 1.214 . S
O36 Cd32 2.352 . S
O36 C39 1.258 . S
C37 O34 1.320 . S
C37 O35 1.214 . S
O38 Cd30 2.277 . S
O38 C33 1.209 . S
C39 O36 1.258 . S
C39 O41 1.282 . S
O40 Cd32 2.277 . S
O40 C33 1.226 . S
O41 Cd32 2.356 . S
O41 C39 1.282 . S
C42 O43 1.306 . S
C42 O45 1.160 . S
O43 C42 1.306 . S
O43 Cd44 2.228 1_554 S
Cd44 O43 2.228 1_556 S
Cd44 O48 2.273 1_556 S
Cd44 O52 2.277 1_556 S
O45 C42 1.160 . S
O45 Cd46 2.203 . S
Cd46 O45 2.203 . S
Cd46 O48 2.411 . S
Cd46 O49 2.333 . S
Cd46 O50 2.352 . S
Cd46 O54 2.277 . S
Cd46 O55 2.356 . S
C47 O52 1.209 . S
C47 O54 1.226 . S
O48 Cd44 2.273 1_554 S
O48 Cd46 2.411 . S
O48 C51 1.320 . S
O49 Cd46 2.333 . S
O49 C51 1.214 . S
O50 Cd46 2.352 . S
O50 C53 1.258 . S
C51 O48 1.320 . S
C51 O49 1.214 . S
O52 Cd44 2.277 1_554 S
O52 C47 1.209 . S
C53 O50 1.258 . S
C53 O55 1.282 . S
O54 Cd46 2.277 . S
O54 C47 1.226 . S
O55 Cd46 2.356 . S
O55 C53 1.282 . S
C56 O57 1.306 . S
C56 O59 1.160 . S
O57 C56 1.306 . S
O57 Cd58 2.228 . S
Cd58 O57 2.228 . S
Cd58 O62 2.273 . S
Cd58 O66 2.277 . S
O59 C56 1.160 . S
O59 Cd60 2.203 . S
Cd60 O59 2.203 . S
Cd60 O62 2.411 . S
Cd60 O63 2.333 . S
Cd60 O64 2.352 . S
Cd60 O68 2.277 . S
Cd60 O69 2.356 . S
C61 O66 1.209 . S
C61 O68 1.226 . S
O62 Cd58 2.273 . S
O62 Cd60 2.411 . S
O62 C65 1.320 . S
O63 Cd60 2.333 . S
O63 C65 1.214 . S
O64 Cd60 2.352 . S
O64 C67 1.258 . S
C65 O62 1.320 . S
C65 O63 1.214 . S
O66 Cd58 2.277 . S
O66 C61 1.209 . S
C67 O64 1.258 . S
C67 O69 1.282 . S
O68 Cd60 2.277 . S
O68 C61 1.226 . S
O69 Cd60 2.356 . S
O69 C67 1.282 . S
C70 O71 1.306 . S
C70 O73 1.160 . S
O71 C70 1.306 . S
O71 Cd72 2.228 . S
Cd72 O71 2.228 . S
Cd72 O76 2.273 . S
Cd72 O80 2.277 . S
O73 C70 1.160 . S
O73 Cd74 2.203 . S
Cd74 O73 2.203 . S
Cd74 O76 2.411 . S
Cd74 O77 2.333 . S
Cd74 O78 2.352 . S
Cd74 O82 2.277 . S
Cd74 O83 2.356 . S
C75 O80 1.209 . S
C75 O82 1.226 . S
O76 Cd72 2.273 . S
O76 Cd74 2.411 . S
O76 C79 1.320 . S
O77 Cd74 2.333 . S
O77 C79 1.214 . S
O78 Cd74 2.352 . S
O78 C81 1.258 . S
C79 O76 1.320 . S
C79 O77 1.214 . S
O80 Cd72 2.277 . S
O80 C75 1.209 . S
C81 O78 1.258 . S
C81 O83 1.282 . S
O82 Cd74 2.277 . S
O82 C75 1.226 . S
O83 Cd74 2.356 . S
O83 C81 1.282 . S
C84 O85 1.306 . S
C84 O87 1.160 . S
O85 C84 1.306 . S
O85 Cd86 2.228 . S
Cd86 O85 2.228 . S
Cd86 O90 2.273 . S
Cd86 O94 2.277 . S
O87 C84 1.160 . S
O87 Cd88 2.203 . S
Cd88 O87 2.203 . S
Cd88 O90 2.411 . S
Cd88 O91 2.333 . S
Cd88 O92 2.352 . S
Cd88 O96 2.277 . S
Cd88 O97 2.356 . S
C89 O94 1.209 . S
C89 O96 1.226 . S
O90 Cd86 2.273 . S
O90 Cd88 2.411 . S
O90 C93 1.320 . S
O91 Cd88 2.333 . S
O91 C93 1.214 . S
O92 Cd88 2.352 . S
O92 C95 1.258 . S
C93 O90 1.320 . S
C93 O91 1.214 . S
O94 Cd86 2.277 . S
O94 C89 1.209 . S
C95 O92 1.258 . S
C95 O97 1.282 . S
O96 Cd88 2.277 . S
O96 C89 1.226 . S
O97 Cd88 2.356 . S
O97 C95 1.282 . S
C98 O99 1.306 . S
C98 O101 1.160 . S
O99 C98 1.306 . S
O99 Cd100 2.228 1_556 S
Cd100 O99 2.228 1_554 S
Cd100 O104 2.273 1_554 S
Cd100 O108 2.277 1_554 S
O101 C98 1.160 . S
O101 Cd102 2.203 . S
Cd102 O101 2.203 . S
Cd102 O104 2.411 . S
Cd102 O105 2.333 . S
Cd102 O106 2.352 . S
Cd102 O110 2.277 . S
Cd102 O111 2.356 . S
C103 O108 1.209 . S
C103 O110 1.226 . S
O104 Cd100 2.273 1_556 S
O104 Cd102 2.411 . S
O104 C107 1.320 . S
O105 Cd102 2.333 . S
O105 C107 1.214 . S
O106 Cd102 2.352 . S
O106 C109 1.258 . S
C107 O104 1.320 . S
C107 O105 1.214 . S
O108 Cd100 2.277 1_556 S
O108 C103 1.209 . S
C109 O106 1.258 . S
C109 O111 1.282 . S
O110 Cd102 2.277 . S
O110 C103 1.226 . S
O111 Cd102 2.356 . S
O111 C109 1.282 . S
C112 O113 1.306 . S
C112 O115 1.160 . S
O113 C112 1.306 . S
O113 Cd114 2.228 . S
Cd114 O113 2.228 . S
Cd114 O118 2.273 . S
Cd114 O122 2.277 . S
O115 C112 1.160 . S
O115 Cd116 2.203 . S
Cd116 O115 2.203 . S
Cd116 O118 2.411 . S
Cd116 O119 2.333 . S
Cd116 O120 2.352 . S
Cd116 O124 2.277 . S
Cd116 O125 2.356 . S
C117 O122 1.209 . S
C117 O124 1.226 . S
O118 Cd114 2.273 . S
O118 Cd116 2.411 . S
O118 C121 1.320 . S
O119 Cd116 2.333 . S
O119 C121 1.214 . S
O120 Cd116 2.352 . S
O120 C123 1.258 . S
C121 O118 1.320 . S
C121 O119 1.214 . S
O122 Cd114 2.277 . S
O122 C117 1.209 . S
C123 O120 1.258 . S
C123 O125 1.282 . S
O124 Cd116 2.277 . S
O124 C117 1.226 . S
O125 Cd116 2.356 . S
O125 C123 1.282 . S
C126 O127 1.306 . S
C126 O129 1.160 . S
O127 C126 1.306 . S
O127 Cd128 2.228 . S
Cd128 O127 2.228 . S
Cd128 O132 2.273 . S
Cd128 O136 2.277 . S
O129 C126 1.160 . S
O129 Cd130 2.203 . S
Cd130 O129 2.203 . S
Cd130 O132 2.411 . S
Cd130 O133 2.333 . S
Cd130 O134 2.352 . S
Cd130 O138 2.277 . S
Cd130 O139 2.356 . S
C131 O136 1.209 . S
C131 O138 1.226 . S
O132 Cd128 2.273 . S
O132 Cd130 2.411 . S
O132 C135 1.320 . S
O133 Cd130 2.333 . S
O133 C135 1.214 . S
O134 Cd130 2.352 . S
O134 C137 1.258 . S
C135 O132 1.320 . S
C135 O133 1.214 . S
O136 Cd128 2.277 . S
O136 C131 1.209 . S
C137 O134 1.258 . S
C137 O139 1.282 . S
O138 Cd130 2.277 . S
O138 C131 1.226 . S
O139 Cd130 2.356 . S
O139 C137 1.282 . S
C140 O141 1.306 . S
C140 O143 1.160 . S
O141 C140 1.306 . S
O141 Cd142 2.228 1_556 S
Cd142 O141 2.228 1_554 S
Cd142 O146 2.273 1_554 S
Cd142 O150 2.277 1_554 S
O143 C140 1.160 . S
O143 Cd144 2.203 . S
Cd144 O143 2.203 . S
Cd144 O146 2.411 . S
Cd144 O147 2.333 . S
Cd144 O148 2.352 . S
Cd144 O152 2.277 . S
Cd144 O153 2.356 . S
C145 O150 1.209 . S
C145 O152 1.226 . S
O146 Cd142 2.273 1_556 S
O146 Cd144 2.411 . S
O146 C149 1.320 . S
O147 Cd144 2.333 . S
O147 C149 1.214 . S
O148 Cd144 2.352 . S
O148 C151 1.258 . S
C149 O146 1.320 . S
C149 O147 1.214 . S
O150 Cd142 2.277 1_556 S
O150 C145 1.209 . S
C151 O148 1.258 . S
C151 O153 1.282 . S
O152 Cd144 2.277 . S
O152 C145 1.226 . S
O153 Cd144 2.356 . S
O153 C151 1.282 . S
C154 O155 1.306 . S
C154 O157 1.160 . S
O155 C154 1.306 . S
O155 Cd156 2.228 . S
Cd156 O155 2.228 . S
Cd156 O160 2.273 . S
Cd156 O164 2.277 . S
O157 C154 1.160 . S
O157 Cd158 2.203 . S
Cd158 O157 2.203 . S
Cd158 O160 2.411 . S
Cd158 O161 2.333 . S
Cd158 O162 2.352 . S
Cd158 O166 2.277 . S
Cd158 O167 2.356 . S
C159 O164 1.209 . S
C159 O166 1.226 . S
O160 Cd156 2.273 . S
O160 Cd158 2.411 . S
O160 C163 1.320 . S
O161 Cd158 2.333 . S
O161 C163 1.214 . S
O162 Cd158 2.352 . S
O162 C165 1.258 . S
C163 O160 1.320 . S
C163 O161 1.214 . S
O164 Cd156 2.277 . S
O164 C159 1.209 . S
C165 O162 1.258 . S
C165 O167 1.282 . S
O166 Cd158 2.277 . S
O166 C159 1.226 . S
O167 Cd158 2.356 . S
O167 C165 1.282 . S
C168 C169 1.363 . S
C168 C174 1.379 1_565 S
C168 N176 1.356 . S
C169 C168 1.363 . S
C169 C175 1.363 1_556 S
C170 C171 1.363 . S
C170 C175 1.379 1_545 S
C170 N177 1.356 . S
C171 C170 1.363 . S
C171 C174 1.363 1_554 S
N172 C174 1.356 . S
N172 H184 0.984 . S
N172 H185 0.985 1_556 S
N173 C175 1.356 . S
N173 H178 0.984 1_554 S
N173 H179 0.985 . S
C174 C168 1.379 1_545 S
C174 C171 1.363 1_556 S
C174 N172 1.356 . S
C175 C169 1.363 1_554 S
C175 C170 1.379 1_565 S
C175 N173 1.356 . S
N176 C168 1.356 . S
N176 H182 0.984 . S
N176 H183 0.984 . S
N177 C170 1.356 . S
N177 H180 0.984 . S
N177 H181 0.985 . S
H178 N173 0.984 1_556 S
H179 N173 0.985 . S
H180 N177 0.984 . S
H181 N177 0.985 . S
H182 N176 0.984 . S
H183 N176 0.984 . S
H184 N172 0.984 . S
H185 N172 0.985 1_554 S
C186 C187 1.363 . S
C186 C192 1.379 . S
C186 N194 1.356 . S
C187 C186 1.363 . S
C187 C193 1.363 . S
C188 C189 1.363 . S
C188 C193 1.379 . S
C188 N195 1.356 . S
C189 C188 1.363 . S
C189 C192 1.363 . S
N190 C192 1.356 . S
N190 H202 0.984 . S
N190 H203 0.985 . S
N191 C193 1.356 . S
N191 H196 0.984 . S
N191 H197 0.985 . S
C192 C186 1.379 . S
C192 C189 1.363 . S
C192 N190 1.356 . S
C193 C187 1.363 . S
C193 C188 1.379 . S
C193 N191 1.356 . S
N194 C186 1.356 . S
N194 H200 0.984 . S
N194 H201 0.984 . S
N195 C188 1.356 . S
N195 H198 0.984 . S
N195 H199 0.985 . S
H196 N191 0.984 . S
H197 N191 0.985 . S
H198 N195 0.984 . S
H199 N195 0.985 . S
H200 N194 0.984 . S
H201 N194 0.984 . S
H202 N190 0.984 . S
H203 N190 0.985 . S
C204 C205 1.363 . S
C204 C210 1.379 1_655 S
C204 N212 1.356 . S
C205 C204 1.363 . S
C205 C211 1.363 . S
C206 C207 1.363 . S
C206 C211 1.379 1_455 S
C206 N213 1.356 . S
C207 C206 1.363 . S
C207 C210 1.363 . S
N208 C210 1.356 . S
N208 H220 0.984 . S
N208 H221 0.985 . S
N209 C211 1.356 . S
N209 H214 0.984 . S
N209 H215 0.985 . S
C210 C204 1.379 1_455 S
C210 C207 1.363 . S
C210 N208 1.356 . S
C211 C205 1.363 . S
C211 C206 1.379 1_655 S
C211 N209 1.356 . S
N212 C204 1.356 . S
N212 H218 0.984 . S
N212 H219 0.984 . S
N213 C206 1.356 . S
N213 H216 0.984 . S
N213 H217 0.985 . S
H214 N209 0.984 . S
H215 N209 0.985 . S
H216 N213 0.984 . S
H217 N213 0.985 . S
H218 N212 0.984 . S
H219 N212 0.984 . S
H220 N208 0.984 . S
H221 N208 0.985 . S
C222 C223 1.363 1_556 S
C222 C228 1.379 1_565 S
C222 N230 1.356 . S
C223 C222 1.363 1_554 S
C223 C229 1.363 . S
C224 C225 1.363 1_554 S
C224 C229 1.379 1_545 S
C224 N231 1.356 . S
C225 C224 1.363 1_556 S
C225 C228 1.363 . S
N226 C228 1.356 . S
N226 H238 0.984 . S
N226 H239 0.985 . S
N227 C229 1.356 . S
N227 H232 0.984 . S
N227 H233 0.985 . S
C228 C222 1.379 1_545 S
C228 C225 1.363 . S
C228 N226 1.356 . S
C229 C223 1.363 . S
C229 C224 1.379 1_565 S
C229 N227 1.356 . S
N230 C222 1.356 . S
N230 H236 0.984 . S
N230 H237 0.984 1_556 S
N231 C224 1.356 . S
N231 H234 0.984 1_554 S
N231 H235 0.985 . S
H232 N227 0.984 . S
H233 N227 0.985 . S
H234 N231 0.984 1_556 S
H235 N231 0.985 . S
H236 N230 0.984 . S
H237 N230 0.984 1_554 S
H238 N226 0.984 . S
H239 N226 0.985 . S
C240 C241 1.363 . S
C240 C246 1.379 . S
C240 N248 1.356 . S
C241 C240 1.363 . S
C241 C247 1.363 . S
C242 C243 1.363 . S
C242 C247 1.379 . S
C242 N249 1.356 . S
C243 C242 1.363 . S
C243 C246 1.363 . S
N244 C246 1.356 . S
N244 H256 0.984 . S
N244 H257 0.985 . S
N245 C247 1.356 . S
N245 H250 0.984 . S
N245 H251 0.985 . S
C246 C240 1.379 . S
C246 C243 1.363 . S
C246 N244 1.356 . S
C247 C241 1.363 . S
C247 C242 1.379 . S
C247 N245 1.356 . S
N248 C240 1.356 . S
N248 H254 0.984 . S
N248 H255 0.984 . S
N249 C242 1.356 . S
N249 H252 0.984 . S
N249 H253 0.985 . S
H250 N245 0.984 . S
H251 N245 0.985 . S
H252 N249 0.984 . S
H253 N249 0.985 . S
H254 N248 0.984 . S
H255 N248 0.984 . S
H256 N244 0.984 . S
H257 N244 0.985 . S
C258 C259 1.363 . S
C258 C264 1.379 1_655 S
C258 N266 1.356 . S
C259 C258 1.363 . S
C259 C265 1.363 . S
C260 C261 1.363 . S
C260 C265 1.379 1_455 S
C260 N267 1.356 . S
C261 C260 1.363 . S
C261 C264 1.363 . S
N262 C264 1.356 . S
N262 H274 0.984 . S
N262 H275 0.985 . S
N263 C265 1.356 . S
N263 H268 0.984 . S
N263 H269 0.985 . S
C264 C258 1.379 1_455 S
C264 C261 1.363 . S
C264 N262 1.356 . S
C265 C259 1.363 . S
C265 C260 1.379 1_655 S
C265 N263 1.356 . S
N266 C258 1.356 . S
N266 H272 0.984 . S
N266 H273 0.984 . S
N267 C260 1.356 . S
N267 H270 0.984 . S
N267 H271 0.985 . S
H268 N263 0.984 . S
H269 N263 0.985 . S
H270 N267 0.984 . S
H271 N267 0.985 . S
H272 N266 0.984 . S
H273 N266 0.984 . S
H274 N262 0.984 . S
H275 N262 0.985 . S
C276 C277 1.363 1_554 S
C276 C282 1.379 . S
C276 N284 1.356 . S
C277 C276 1.363 1_556 S
C277 C283 1.363 . S
C278 C279 1.363 1_556 S
C278 C283 1.379 . S
C278 N285 1.356 . S
C279 C278 1.363 1_554 S
C279 C282 1.363 . S
N280 C282 1.356 . S
N280 H292 0.984 . S
N280 H293 0.985 . S
N281 C283 1.356 . S
N281 H286 0.984 . S
N281 H287 0.985 . S
C282 C276 1.379 . S
C282 C279 1.363 . S
C282 N280 1.356 . S
C283 C277 1.363 . S
C283 C278 1.379 . S
C283 N281 1.356 . S
N284 C276 1.356 . S
N284 H290 0.984 . S
N284 H291 0.984 . S
N285 C278 1.356 . S
N285 H288 0.984 . S
N285 H289 0.985 . S
H286 N281 0.984 . S
H287 N281 0.985 . S
H288 N285 0.984 . S
H289 N285 0.985 . S
H290 N284 0.984 . S
H291 N284 0.984 . S
H292 N280 0.984 . S
H293 N280 0.985 . S
C294 C295 1.363 . S
C294 C300 1.379 . S
C294 N302 1.356 . S
C295 C294 1.363 . S
C295 C301 1.363 . S
C296 C297 1.363 . S
C296 C301 1.379 . S
C296 N303 1.356 . S
C297 C296 1.363 . S
C297 C300 1.363 . S
N298 C300 1.356 . S
N298 H310 0.984 . S
N298 H311 0.985 . S
N299 C301 1.356 . S
N299 H304 0.984 . S
N299 H305 0.985 . S
C300 C294 1.379 . S
C300 C297 1.363 . S
C300 N298 1.356 . S
C301 C295 1.363 . S
C301 C296 1.379 . S
C301 N299 1.356 . S
N302 C294 1.356 . S
N302 H308 0.984 . S
N302 H309 0.984 . S
N303 C296 1.356 . S
N303 H306 0.984 . S
N303 H307 0.985 . S
H304 N299 0.984 . S
H305 N299 0.985 . S
H306 N303 0.984 . S
H307 N303 0.985 . S
H308 N302 0.984 . S
H309 N302 0.984 . S
H310 N298 0.984 . S
H311 N298 0.985 . S
C312 C313 1.363 . S
C312 C318 1.379 . S
C312 N320 1.356 . S
C313 C312 1.363 . S
C313 C319 1.363 . S
C314 C315 1.363 . S
C314 C319 1.379 . S
C314 N321 1.356 . S
C315 C314 1.363 . S
C315 C318 1.363 . S
N316 C318 1.356 . S
N316 H328 0.984 . S
N316 H329 0.985 . S
N317 C319 1.356 . S
N317 H322 0.984 . S
N317 H323 0.985 . S
C318 C312 1.379 . S
C318 C315 1.363 . S
C318 N316 1.356 . S
C319 C313 1.363 . S
C319 C314 1.379 . S
C319 N317 1.356 . S
N320 C312 1.356 . S
N320 H326 0.984 . S
N320 H327 0.984 . S
N321 C314 1.356 . S
N321 H324 0.984 . S
N321 H325 0.985 . S
H322 N317 0.984 . S
H323 N317 0.985 . S
H324 N321 0.984 . S
H325 N321 0.985 . S
H326 N320 0.984 . S
H327 N320 0.984 . S
H328 N316 0.984 . S
H329 N316 0.985 . S
C330 C331 1.363 1_554 S
C330 C336 1.379 . S
C330 N338 1.356 . S
C331 C330 1.363 1_556 S
C331 C337 1.363 . S
C332 C333 1.363 1_556 S
C332 C337 1.379 . S
C332 N339 1.356 . S
C333 C332 1.363 1_554 S
C333 C336 1.363 . S
N334 C336 1.356 . S
N334 H346 0.984 . S
N334 H347 0.985 . S
N335 C337 1.356 . S
N335 H340 0.984 . S
N335 H341 0.985 . S
C336 C330 1.379 . S
C336 C333 1.363 . S
C336 N334 1.356 . S
C337 C331 1.363 . S
C337 C332 1.379 . S
C337 N335 1.356 . S
N338 C330 1.356 . S
N338 H344 0.984 . S
N338 H345 0.984 . S
N339 C332 1.356 . S
N339 H342 0.984 . S
N339 H343 0.985 . S
H340 N335 0.984 . S
H341 N335 0.985 . S
H342 N339 0.984 . S
H343 N339 0.985 . S
H344 N338 0.984 . S
H345 N338 0.984 . S
H346 N334 0.984 . S
H347 N334 0.985 . S
C348 C349 1.363 . S
C348 C354 1.379 . S
C348 N356 1.356 . S
C349 C348 1.363 . S
C349 C355 1.363 . S
C350 C351 1.363 . S
C350 C355 1.379 . S
C350 N357 1.356 . S
C351 C350 1.363 . S
C351 C354 1.363 . S
N352 C354 1.356 . S
N352 H364 0.984 . S
N352 H365 0.985 . S
N353 C355 1.356 . S
N353 H358 0.984 . S
N353 H359 0.985 . S
C354 C348 1.379 . S
C354 C351 1.363 . S
C354 N352 1.356 . S
C355 C349 1.363 . S
C355 C350 1.379 . S
C355 N353 1.356 . S
N356 C348 1.356 . S
N356 H362 0.984 . S
N356 H363 0.984 . S
N357 C350 1.356 . S
N357 H360 0.984 . S
N357 H361 0.985 . S
H358 N353 0.984 . S
H359 N353 0.985 . S
H360 N357 0.984 . S
H361 N357 0.985 . S
H362 N356 0.984 . S
H363 N356 0.984 . S
H364 N352 0.984 . S
H365 N352 0.985 . S
C366 C367 1.363 . S
C366 C372 1.379 . S
C366 N374 1.356 . S
C367 C366 1.363 . S
C367 C373 1.363 . S
C368 C369 1.363 . S
C368 C373 1.379 . S
C368 N375 1.356 . S
C369 C368 1.363 . S
C369 C372 1.363 . S
N370 C372 1.356 . S
N370 H382 0.984 . S
N370 H383 0.985 . S
N371 C373 1.356 . S
N371 H376 0.984 . S
N371 H377 0.985 . S
C372 C366 1.379 . S
C372 C369 1.363 . S
C372 N370 1.356 . S
C373 C367 1.363 . S
C373 C368 1.379 . S
C373 N371 1.356 . S
N374 C366 1.356 . S
N374 H380 0.984 . S
N374 H381 0.984 . S
N375 C368 1.356 . S
N375 H378 0.984 . S
N375 H379 0.985 . S
H376 N371 0.984 . S
H377 N371 0.985 . S
H378 N375 0.984 . S
H379 N375 0.985 . S
H380 N374 0.984 . S
H381 N374 0.984 . S
H382 N370 0.984 . S
H383 N370 0.985 . S
C384 C385 1.363 . S
C384 C390 1.379 . S
C384 N392 1.356 . S
C385 C384 1.363 . S
C385 C391 1.363 . S
C386 C387 1.363 . S
C386 C391 1.379 . S
C386 N393 1.356 . S
C387 C386 1.363 . S
C387 C390 1.363 . S
N388 C390 1.356 . S
N388 H400 0.984 . S
N388 H401 0.985 . S
N389 C391 1.356 . S
N389 H394 0.984 . S
N389 H395 0.985 . S
C390 C384 1.379 . S
C390 C387 1.363 . S
C390 N388 1.356 . S
C391 C385 1.363 . S
C391 C386 1.379 . S
C391 N389 1.356 . S
N392 C384 1.356 . S
N392 H398 0.984 . S
N392 H399 0.984 . S
N393 C386 1.356 . S
N393 H396 0.984 . S
N393 H397 0.985 . S
H394 N389 0.984 . S
H395 N389 0.985 . S
H396 N393 0.984 . S
H397 N393 0.985 . S
H398 N392 0.984 . S
H399 N392 0.984 . S
H400 N388 0.984 . S
H401 N388 0.985 . S
C402 C403 1.363 . S
C402 C408 1.379 . S
C402 N410 1.356 . S
C403 C402 1.363 . S
C403 C409 1.363 . S
C404 C405 1.363 . S
C404 C409 1.379 . S
C404 N411 1.356 . S
C405 C404 1.363 . S
C405 C408 1.363 . S
N406 C408 1.356 . S
N406 H418 0.984 . S
N406 H419 0.985 . S
N407 C409 1.356 . S
N407 H412 0.984 . S
N407 H413 0.985 . S
C408 C402 1.379 . S
C408 C405 1.363 . S
C408 N406 1.356 . S
C409 C403 1.363 . S
C409 C404 1.379 . S
C409 N407 1.356 . S
N410 C402 1.356 . S
N410 H416 0.984 . S
N410 H417 0.984 . S
N411 C404 1.356 . S
N411 H414 0.984 . S
N411 H415 0.985 . S
H412 N407 0.984 . S
H413 N407 0.985 . S
H414 N411 0.984 . S
H415 N411 0.985 . S
H416 N410 0.984 . S
H417 N410 0.984 . S
H418 N406 0.984 . S
H419 N406 0.985 . S
C420 C421 1.363 . S
C420 C426 1.379 . S
C420 N428 1.356 . S
C421 C420 1.363 . S
C421 C427 1.363 . S
C422 C423 1.363 . S
C422 C427 1.379 . S
C422 N429 1.356 . S
C423 C422 1.363 . S
C423 C426 1.363 . S
N424 C426 1.356 . S
N424 H436 0.984 . S
N424 H437 0.985 . S
N425 C427 1.356 . S
N425 H430 0.984 . S
N425 H431 0.985 . S
C426 C420 1.379 . S
C426 C423 1.363 . S
C426 N424 1.356 . S
C427 C421 1.363 . S
C427 C422 1.379 . S
C427 N425 1.356 . S
N428 C420 1.356 . S
N428 H434 0.984 . S
N428 H435 0.984 . S
N429 C422 1.356 . S
N429 H432 0.984 . S
N429 H433 0.985 . S
H430 N425 0.984 . S
H431 N425 0.985 . S
H432 N429 0.984 . S
H433 N429 0.985 . S
H434 N428 0.984 . S
H435 N428 0.984 . S
H436 N424 0.984 . S
H437 N424 0.985 . S
C438 C439 1.363 . S
C438 C444 1.379 . S
C438 N446 1.356 . S
C439 C438 1.363 . S
C439 C445 1.363 . S
C440 C441 1.363 . S
C440 C445 1.379 . S
C440 N447 1.356 . S
C441 C440 1.363 . S
C441 C444 1.363 . S
N442 C444 1.356 . S
N442 H454 0.984 . S
N442 H455 0.985 . S
N443 C445 1.356 . S
N443 H448 0.984 . S
N443 H449 0.985 . S
C444 C438 1.379 . S
C444 C441 1.363 . S
C444 N442 1.356 . S
C445 C439 1.363 . S
C445 C440 1.379 . S
C445 N443 1.356 . S
N446 C438 1.356 . S
N446 H452 0.984 . S
N446 H453 0.984 . S
N447 C440 1.356 . S
N447 H450 0.984 . S
N447 H451 0.985 . S
H448 N443 0.984 . S
H449 N443 0.985 . S
H450 N447 0.984 . S
H451 N447 0.985 . S
H452 N446 0.984 . S
H453 N446 0.984 . S
H454 N442 0.984 . S
H455 N442 0.985 . S
C456 C457 1.363 . S
C456 C462 1.379 . S
C456 N464 1.356 . S
C457 C456 1.363 . S
C457 C463 1.363 . S
C458 C459 1.363 . S
C458 C463 1.379 . S
C458 N465 1.356 . S
C459 C458 1.363 . S
C459 C462 1.363 . S
N460 C462 1.356 . S
N460 H472 0.984 . S
N460 H473 0.985 . S
N461 C463 1.356 . S
N461 H466 0.984 . S
N461 H467 0.985 . S
C462 C456 1.379 . S
C462 C459 1.363 . S
C462 N460 1.356 . S
C463 C457 1.363 . S
C463 C458 1.379 . S
C463 N461 1.356 . S
N464 C456 1.356 . S
N464 H470 0.984 . S
N464 H471 0.984 . S
N465 C458 1.356 . S
N465 H468 0.984 . S
N465 H469 0.985 . S
H466 N461 0.984 . S
H467 N461 0.985 . S
H468 N465 0.984 . S
H469 N465 0.985 . S
H470 N464 0.984 . S
H471 N464 0.984 . S
H472 N460 0.984 . S
H473 N460 0.985 . S
C474 C475 1.363 . S
C474 C480 1.379 . S
C474 N482 1.356 . S
C475 C474 1.363 . S
C475 C481 1.363 . S
C476 C477 1.363 . S
C476 C481 1.379 . S
C476 N483 1.356 . S
C477 C476 1.363 . S
C477 C480 1.363 . S
N478 C480 1.356 . S
N478 H490 0.984 . S
N478 H491 0.985 . S
N479 C481 1.356 . S
N479 H484 0.984 . S
N479 H485 0.985 . S
C480 C474 1.379 . S
C480 C477 1.363 . S
C480 N478 1.356 . S
C481 C475 1.363 . S
C481 C476 1.379 . S
C481 N479 1.356 . S
N482 C474 1.356 . S
N482 H488 0.984 . S
N482 H489 0.984 . S
N483 C476 1.356 . S
N483 H486 0.984 . S
N483 H487 0.985 . S
H484 N479 0.984 . S
H485 N479 0.985 . S
H486 N483 0.984 . S
H487 N483 0.985 . S
H488 N482 0.984 . S
H489 N482 0.984 . S
H490 N478 0.984 . S
H491 N478 0.985 . S
C492 C493 1.363 . S
C492 C498 1.379 . S
C492 N500 1.356 . S
C493 C492 1.363 . S
C493 C499 1.363 . S
C494 C495 1.363 . S
C494 C499 1.379 . S
C494 N501 1.356 . S
C495 C494 1.363 . S
C495 C498 1.363 . S
N496 C498 1.356 . S
N496 H508 0.984 . S
N496 H509 0.985 . S
N497 C499 1.356 . S
N497 H502 0.984 . S
N497 H503 0.985 1_554 S
C498 C492 1.379 . S
C498 C495 1.363 . S
C498 N496 1.356 . S
C499 C493 1.363 . S
C499 C494 1.379 . S
C499 N497 1.356 . S
N500 C492 1.356 . S
N500 H506 0.984 . S
N500 H507 0.984 . S
N501 C494 1.356 . S
N501 H504 0.984 . S
N501 H505 0.985 1_554 S
H502 N497 0.984 . S
H503 N497 0.985 1_556 S
H504 N501 0.984 . S
H505 N501 0.985 1_556 S
H506 N500 0.984 . S
H507 N500 0.984 . S
H508 N496 0.984 . S
H509 N496 0.985 . S
C510 C511 1.363 1_455 S
C510 C516 1.379 . S
C510 N518 1.356 . S
C511 C510 1.363 1_655 S
C511 C517 1.363 . S
C512 C513 1.363 1_655 S
C512 C517 1.379 . S
C512 N519 1.356 . S
C513 C512 1.363 1_455 S
C513 C516 1.363 . S
N514 C516 1.356 . S
N514 H526 0.984 . S
N514 H527 0.985 . S
N515 C517 1.356 . S
N515 H520 0.984 . S
N515 H521 0.985 . S
C516 C510 1.379 . S
C516 C513 1.363 . S
C516 N514 1.356 . S
C517 C511 1.363 . S
C517 C512 1.379 . S
C517 N515 1.356 . S
N518 C510 1.356 . S
N518 H524 0.984 . S
N518 H525 0.984 . S
N519 C512 1.356 . S
N519 H522 0.984 . S
N519 H523 0.985 . S
H520 N515 0.984 . S
H521 N515 0.985 . S
H522 N519 0.984 . S
H523 N519 0.985 . S
H524 N518 0.984 . S
H525 N518 0.984 . S
H526 N514 0.984 . S
H527 N514 0.985 . S
C528 C529 1.363 1_565 S
C528 C534 1.379 . S
C528 N536 1.356 . S
C529 C528 1.363 1_545 S
C529 C535 1.363 . S
C530 C531 1.363 1_545 S
C530 C535 1.379 . S
C530 N537 1.356 . S
C531 C530 1.363 1_565 S
C531 C534 1.363 . S
N532 C534 1.356 . S
N532 H544 0.984 . S
N532 H545 0.985 . S
N533 C535 1.356 . S
N533 H538 0.984 . S
N533 H539 0.985 . S
C534 C528 1.379 . S
C534 C531 1.363 . S
C534 N532 1.356 . S
C535 C529 1.363 . S
C535 C530 1.379 . S
C535 N533 1.356 . S
N536 C528 1.356 . S
N536 H542 0.984 . S
N536 H543 0.984 . S
N537 C530 1.356 . S
N537 H540 0.984 . S
N537 H541 0.985 . S
H538 N533 0.984 . S
H539 N533 0.985 . S
H540 N537 0.984 . S
H541 N537 0.985 . S
H542 N536 0.984 . S
H543 N536 0.984 . S
H544 N532 0.984 . S
H545 N532 0.985 . S
C546 C547 1.363 . S
C546 C552 1.379 . S
C546 N554 1.356 . S
C547 C546 1.363 . S
C547 C553 1.363 . S
C548 C549 1.363 . S
C548 C553 1.379 . S
C548 N555 1.356 . S
C549 C548 1.363 . S
C549 C552 1.363 . S
N550 C552 1.356 . S
N550 H562 0.984 . S
N550 H563 0.985 . S
N551 C553 1.356 . S
N551 H556 0.984 . S
N551 H557 0.985 . S
C552 C546 1.379 . S
C552 C549 1.363 . S
C552 N550 1.356 . S
C553 C547 1.363 . S
C553 C548 1.379 . S
C553 N551 1.356 . S
N554 C546 1.356 . S
N554 H560 0.984 . S
N554 H561 0.984 . S
N555 C548 1.356 . S
N555 H558 0.984 . S
N555 H559 0.985 . S
H556 N551 0.984 . S
H557 N551 0.985 . S
H558 N555 0.984 . S
H559 N555 0.985 . S
H560 N554 0.984 . S
H561 N554 0.984 . S
H562 N550 0.984 . S
H563 N550 0.985 . S
C564 C565 1.363 . S
C564 C570 1.379 . S
C564 N572 1.356 . S
C565 C564 1.363 . S
C565 C571 1.363 1_455 S
C566 C567 1.363 . S
C566 C571 1.379 . S
C566 N573 1.356 . S
C567 C566 1.363 . S
C567 C570 1.363 1_655 S
N568 C570 1.356 . S
N568 H580 0.984 1_556 S
N568 H581 0.985 . S
N569 C571 1.356 . S
N569 H574 0.984 . S
N569 H575 0.985 . S
C570 C564 1.379 . S
C570 C567 1.363 1_455 S
C570 N568 1.356 . S
C571 C565 1.363 1_655 S
C571 C566 1.379 . S
C571 N569 1.356 . S
N572 C564 1.356 . S
N572 H578 0.984 1_556 S
N572 H579 0.984 . S
N573 C566 1.356 . S
N573 H576 0.984 . S
N573 H577 0.985 . S
H574 N569 0.984 . S
H575 N569 0.985 . S
H576 N573 0.984 . S
H577 N573 0.985 . S
H578 N572 0.984 1_554 S
H579 N572 0.984 . S
H580 N568 0.984 1_554 S
H581 N568 0.985 . S
C582 C583 1.363 1_545 S
C582 C588 1.379 . S
C582 N590 1.356 . S
C583 C582 1.363 1_565 S
C583 C589 1.363 . S
C584 C585 1.363 1_565 S
C584 C589 1.379 . S
C584 N591 1.356 . S
C585 C584 1.363 1_545 S
C585 C588 1.363 . S
N586 C588 1.356 . S
N586 H598 0.984 . S
N586 H599 0.985 . S
N587 C589 1.356 . S
N587 H592 0.984 . S
N587 H593 0.985 . S
C588 C582 1.379 . S
C588 C585 1.363 . S
C588 N586 1.356 . S
C589 C583 1.363 . S
C589 C584 1.379 . S
C589 N587 1.356 . S
N590 C582 1.356 . S
N590 H596 0.984 . S
N590 H597 0.984 . S
N591 C584 1.356 . S
N591 H594 0.984 . S
N591 H595 0.985 . S
H592 N587 0.984 . S
H593 N587 0.985 . S
H594 N591 0.984 . S
H595 N591 0.985 . S
H596 N590 0.984 . S
H597 N590 0.984 . S
H598 N586 0.984 . S
H599 N586 0.985 . S
C169 C98 1.434 . S
C171 C0 1.434 . S
C187 C14 1.435 . S
C189 C112 1.435 . S
C205 C28 1.434 . S
C207 C126 1.434 . S
C223 C42 1.435 . S
C225 C140 1.434 . S
C241 C154 1.435 . S
C243 C56 1.435 . S
C259 C84 1.434 . S
C261 C70 1.434 . S
C277 C145 1.463 . S
C279 C5 1.463 . S
C295 C19 1.463 . S
C297 C159 1.463 . S
C313 C33 1.463 . S
C315 C89 1.463 . S
C331 C103 1.463 . S
C333 C47 1.463 . S
C349 C117 1.463 . S
C351 C61 1.463 . S
C367 C131 1.463 . S
C369 C75 1.463 . S
C385 C11 1.676 . S
C387 C123 1.676 . S
C403 C25 1.676 . S
C405 C137 1.676 . S
C421 C151 1.676 . S
C423 C39 1.676 . S
C439 C53 1.676 . S
C441 C165 1.676 . S
C457 C95 1.676 . S
C459 C67 1.676 . S
C475 C109 1.676 . S
C477 C81 1.676 . S
C493 C51 1.453 . S
C495 C9 1.453 . S
C511 C65 1.453 . S
C513 C23 1.453 . S
C529 C37 1.453 . S
C531 C79 1.453 . S
C547 C93 1.453 . S
C549 C135 1.453 . S
C565 C107 1.453 . S
C567 C149 1.453 . S
C583 C163 1.453 . S
C585 C121 1.453 . S
