# Generated by pormake.
# Topology umf, (4)-cn, num edge types: 1
# Building blocks:
#     Node 0, Type 0, BuildingBlock: QUQFOY_clean_sbu_1, # of connection points: 4
#     Node 1, Type 0, BuildingBlock: QUQFOY_clean_sbu_1, # of connection points: 4
#     Node 2, Type 0, BuildingBlock: QUQFOY_clean_sbu_1, # of connection points: 4
#     Node 3, Type 0, BuildingBlock: QUQFOY_clean_sbu_1, # of connection points: 4
#     Node 4, Type 0, BuildingBlock: QUQFOY_clean_sbu_1, # of connection points: 4
#     Node 5, Type 0, BuildingBlock: QUQFOY_clean_sbu_1, # of connection points: 4
#     Node 6, Type 0, BuildingBlock: QUQFOY_clean_sbu_1, # of connection points: 4
#     Node 7, Type 0, BuildingBlock: QUQFOY_clean_sbu_1, # of connection points: 4
#     Edge 8, Type (0, 0), BuildingBlock: ZUJKAS_clean_linker_0, # of connection points: 2
#     Edge 9, Type (0, 0), BuildingBlock: ZUJKAS_clean_linker_0, # of connection points: 2
#     Edge 10, Type (0, 0), BuildingBlock: ZUJKAS_clean_linker_0, # of connection points: 2
#     Edge 11, Type (0, 0), BuildingBlock: ZUJKAS_clean_linker_0, # of connection points: 2
#     Edge 12, Type (0, 0), BuildingBlock: ZUJKAS_clean_linker_0, # of connection points: 2
#     Edge 13, Type (0, 0), BuildingBlock: ZUJKAS_clean_linker_0, # of connection points: 2
#     Edge 14, Type (0, 0), BuildingBlock: ZUJKAS_clean_linker_0, # of connection points: 2
#     Edge 15, Type (0, 0), BuildingBlock: ZUJKAS_clean_linker_0, # of connection points: 2
#     Edge 16, Type (0, 0), BuildingBlock: ZUJKAS_clean_linker_0, # of connection points: 2
#     Edge 17, Type (0, 0), BuildingBlock: ZUJKAS_clean_linker_0, # of connection points: 2
#     Edge 18, Type (0, 0), BuildingBlock: ZUJKAS_clean_linker_0, # of connection points: 2
#     Edge 19, Type (0, 0), BuildingBlock: ZUJKAS_clean_linker_0, # of connection points: 2
#     Edge 20, Type (0, 0), BuildingBlock: ZUJKAS_clean_linker_0, # of connection points: 2
#     Edge 21, Type (0, 0), BuildingBlock: ZUJKAS_clean_linker_0, # of connection points: 2
#     Edge 22, Type (0, 0), BuildingBlock: ZUJKAS_clean_linker_0, # of connection points: 2
#     Edge 23, Type (0, 0), BuildingBlock: ZUJKAS_clean_linker_0, # of connection points: 2
# Relax obj value: 0.062
# Max RMSD: 0.219
# Mean RMSD: 0.219
data_MOF--net-umf--node1-QUQFOY_clean_sbu_1--edge1-ZUJKAS_clean_linker_0
_symmetry_space_group_name_H-M    P1
_symmetry_Int_Tables_number       1
_symmetry_cell_setting            triclinic
loop_
_symmetry_equiv_pos_as_xyz
'x, y, z'
_cell_length_a     37.735363
_cell_length_b     37.751717
_cell_length_c     68.731498
_cell_angle_alpha  89.813614
_cell_angle_beta   89.960112
_cell_angle_gamma 89.923291
loop_
_atom_site_label
_atom_site_type_symbol
_atom_site_fract_x
_atom_site_fract_y
_atom_site_fract_z
_atom_type_partial_charge
O0 O 0.02477 0.25832 0.13913 0.0
Cd1 Cd 0.02339 0.25613 0.16905 0.0
Cd2 Cd 0.09116 0.23659 0.16243 0.0
O3 O 0.08234 0.25433 0.13392 0.0
O4 O 0.98476 0.29006 0.17658 0.0
O5 O 0.04131 0.29808 0.18386 0.0
C6 C 0.00923 0.30988 0.18386 0.0
C7 C 0.13441 0.25219 0.18514 0.0
C8 C 0.05095 0.25896 0.12747 0.0
C9 C 0.0405 0.18168 0.17835 0.0
O10 O 0.06942 0.18849 0.16963 0.0
O11 O 0.01785 0.20611 0.18138 0.0
O12 O 0.1422 0.23208 0.17056 0.0
O13 O 0.10334 0.26652 0.18543 0.0
O14 O 0.80917 0.06714 0.66694 0.0
Cd15 Cd 0.76197 0.09162 0.66117 0.0
Cd16 Cd 0.73775 0.02507 0.66745 0.0
O17 O 0.78882 0.01618 0.67815 0.0
O18 O 0.76806 0.14182 0.67026 0.0
O19 O 0.73371 0.10263 0.68501 0.0
C20 C 0.74858 0.13341 0.68506 0.0
C21 C 0.68506 0.01122 0.68367 0.0
C22 C 0.81458 0.03727 0.67498 0.0
C23 C 0.73393 0.05518 0.62632 0.0
O24 O 0.73191 0.02858 0.63766 0.0
O25 O 0.74314 0.0854 0.63284 0.0
O26 O 0.70353 0.98688 0.67525 0.0
O27 O 0.69775 0.04291 0.68403 0.0
O28 O 0.9626 0.73582 0.1353 0.0
Cd29 Cd 0.96663 0.73938 0.16519 0.0
Cd30 Cd 0.90133 0.7675 0.15957 0.0
O31 O 0.90666 0.75118 0.13074 0.0
O32 O 0.00388 0.7034 0.17182 0.0
O33 O 0.94801 0.69893 0.18129 0.0
C34 C 0.97929 0.68526 0.18027 0.0
C35 C 0.85878 0.75376 0.18305 0.0
C36 C 0.93631 0.74051 0.12401 0.0
C37 C 0.95839 0.8159 0.17457 0.0
O38 O 0.92811 0.81266 0.16672 0.0
O39 O 0.97839 0.78895 0.17682 0.0
O40 O 0.85159 0.77555 0.16903 0.0
O41 O 0.88862 0.73701 0.18236 0.0
O42 O 0.1894 0.93022 0.66916 0.0
Cd43 Cd 0.23655 0.90688 0.66199 0.0
Cd44 Cd 0.25933 0.97432 0.66781 0.0
O45 O 0.20848 0.98257 0.67888 0.0
O46 O 0.23082 0.85604 0.67018 0.0
O47 O 0.26621 0.89387 0.68508 0.0
C48 C 0.25113 0.8632 0.68479 0.0
C49 C 0.31229 0.98711 0.68387 0.0
C50 C 0.18344 0.96028 0.67675 0.0
C51 C 0.26229 0.94477 0.6267 0.0
O52 O 0.26455 0.97125 0.638 0.0
O53 O 0.25354 0.9144 0.63332 0.0
O54 O 0.29395 0.01193 0.6757 0.0
O55 O 0.29933 0.95552 0.68405 0.0
O56 O 0.01978 0.73008 0.91128 0.0
Cd57 Cd 0.01876 0.73154 0.88131 0.0
Cd58 Cd 0.08476 0.75971 0.88739 0.0
O59 O 0.07547 0.74588 0.91648 0.0
O60 O 0.98627 0.69269 0.8724 0.0
O61 O 0.04427 0.69226 0.86784 0.0
C62 C 0.01423 0.67624 0.86637 0.0
C63 C 0.13216 0.74683 0.86667 0.0
C64 C 0.04535 0.73577 0.9229 0.0
C65 C 0.02853 0.80661 0.86934 0.0
O66 O 0.05862 0.80363 0.87743 0.0
O67 O 0.00775 0.78014 0.86818 0.0
O68 O 0.13565 0.76966 0.88051 0.0
O69 O 0.10335 0.72847 0.86623 0.0
O70 O 0.18976 0.06963 0.38347 0.0
Cd71 Cd 0.23648 0.09356 0.3908 0.0
Cd72 Cd 0.26013 0.02653 0.38517 0.0
O73 O 0.20964 0.01734 0.37405 0.0
O74 O 0.22974 0.14431 0.38277 0.0
O75 O 0.26619 0.1074 0.36784 0.0
C76 C 0.25039 0.13776 0.36821 0.0
C77 C 0.31329 0.01384 0.36931 0.0
C78 C 0.1843 0.0394 0.376 0.0
C79 C 0.26226 0.05621 0.42624 0.0
O80 O 0.26508 0.02973 0.41497 0.0
O81 O 0.25309 0.08643 0.41956 0.0
O82 O 0.29507 0.98905 0.37756 0.0
O83 O 0.30008 0.04536 0.3689 0.0
O84 O 0.97854 0.24924 0.91213 0.0
Cd85 Cd 0.97549 0.24803 0.88222 0.0
Cd86 Cd 0.90883 0.2276 0.89141 0.0
O87 O 0.92137 0.2474 0.91903 0.0
O88 O 0.01201 0.28211 0.87174 0.0
O89 O 0.95424 0.29097 0.86983 0.0
C90 C 0.98592 0.30252 0.86691 0.0
C91 C 0.86469 0.24288 0.86903 0.0
C92 C 0.95351 0.25111 0.92451 0.0
C93 C 0.95692 0.17329 0.87381 0.0
O94 O 0.93016 0.17931 0.88454 0.0
O95 O 0.97777 0.19844 0.86908 0.0
O96 O 0.85711 0.22382 0.88414 0.0
O97 O 0.89606 0.25624 0.868 0.0
O98 O 0.81158 0.92915 0.38549 0.0
Cd99 Cd 0.76449 0.90507 0.39198 0.0
Cd100 Cd 0.74027 0.97166 0.38542 0.0
O101 O 0.79112 0.98029 0.37453 0.0
O102 O 0.77028 0.85463 0.38327 0.0
O103 O 0.73535 0.89344 0.36856 0.0
C104 C 0.75025 0.86263 0.36863 0.0
C105 C 0.68771 0.98599 0.3693 0.0
C106 C 0.81685 0.95899 0.3774 0.0
C107 C 0.73674 0.94229 0.42673 0.0
O108 O 0.73444 0.96863 0.41523 0.0
O109 O 0.74621 0.912 0.42039 0.0
O110 O 0.70638 0.01015 0.37768 0.0
O111 O 0.70014 0.95417 0.3689 0.0
H112 H 0.96159 0.35482 0.16758 0.0
H113 H 0.95702 0.41861 0.1725 0.0
H114 H 0.03403 0.41193 0.21882 0.0
H115 H 0.04088 0.34837 0.21265 0.0
H116 H 0.93832 0.46164 0.19798 0.0
H117 H 0.08222 0.48396 0.18776 0.0
H118 H 0.06235 0.44116 0.18438 0.0
H119 H 0.07314 0.45658 0.20848 0.0
C120 C 0.97727 0.36694 0.17895 0.0
C121 C 0.0018 0.34679 0.18963 0.0
C122 C 0.97471 0.4035 0.18176 0.0
C123 C 0.99601 0.4206 0.19564 0.0
C124 C 0.01844 0.39986 0.20743 0.0
H125 H 0.94765 0.64863 0.21002 0.0
H126 H 0.95351 0.58525 0.21729 0.0
C127 C 0.02197 0.36343 0.20411 0.0
C128 C 0.99535 0.46009 0.19707 0.0
H129 H 0.04791 0.53374 0.19615 0.0
C130 C 0.96234 0.47738 0.19752 0.0
C131 C 0.02661 0.48089 0.19627 0.0
C132 C 0.06302 0.46472 0.19399 0.0
C133 C 0.95957 0.51448 0.19645 0.0
C134 C 0.99086 0.53528 0.19617 0.0
C135 C 0.02388 0.51801 0.19649 0.0
C136 C 0.99021 0.57462 0.19372 0.0
C137 C 0.92307 0.53054 0.19446 0.0
C138 C 0.01095 0.59054 0.17911 0.0
C139 C 0.00896 0.62697 0.17563 0.0
C140 C 0.98554 0.64821 0.18636 0.0
C141 C 0.96571 0.63272 0.20144 0.0
C142 C 0.96866 0.59639 0.20539 0.0
H143 H 0.90348 0.51092 0.1891 0.0
H144 H 0.91386 0.53975 0.20892 0.0
H145 H 0.92319 0.55341 0.18427 0.0
H146 H 0.02791 0.57462 0.16988 0.0
H147 H 0.02436 0.63815 0.1638 0.0
H148 H 0.34835 0.95282 0.71286 0.0
H149 H 0.41131 0.95868 0.72094 0.0
H150 H 0.42239 0.03836 0.67613 0.0
H151 H 0.35924 0.03456 0.66926 0.0
H152 H 0.46447 0.94258 0.70218 0.0
H153 H 0.48053 0.08511 0.71484 0.0
H154 H 0.43727 0.06525 0.71301 0.0
H155 H 0.46064 0.07972 0.69144 0.0
C156 C 0.36414 0.97236 0.70521 0.0
C157 C 0.34886 0.9936 0.69064 0.0
C158 C 0.40019 0.97558 0.70973 0.0
C159 C 0.42189 -0.00053 0.69943 0.0
C160 C 0.40634 0.0208 0.68494 0.0
H161 H 0.63825 0.96427 0.66869 0.0
H162 H 0.57515 0.95995 0.67562 0.0
C163 C 0.37013 0.01843 0.68088 0.0
C164 C 0.46113 -0.00033 0.70238 0.0
H165 H 0.53304 0.0544 0.70281 0.0
C166 C 0.47933 0.96713 0.70275 0.0
C167 C 0.481 0.03141 0.70372 0.0
C168 C 0.46369 0.06723 0.70598 0.0
C169 C 0.51652 0.96552 0.70332 0.0
C170 C 0.53638 0.99732 0.70234 0.0
C171 C 0.51819 0.02983 0.70311 0.0
C172 C 0.57563 0.99769 0.69936 0.0
C173 C 0.53383 0.9296 0.70513 0.0
C174 C 0.59732 0.0211 0.7099 0.0
C175 C 0.63333 0.02466 0.70534 0.0
C176 C 0.6486 0.00419 0.6905 0.0
C177 C 0.62737 0.97978 0.68051 0.0
C178 C 0.59118 0.9771 0.68461 0.0
H179 H 0.517 0.91127 0.7138 0.0
H180 H 0.53686 0.91784 0.69045 0.0
H181 H 0.56025 0.93122 0.71216 0.0
H182 H 0.58619 0.03742 0.72132 0.0
H183 H 0.64909 0.04387 0.71317 0.0
H184 H 0.93573 0.35168 0.85746 0.0
H185 H 0.94447 0.41462 0.85124 0.0
H186 H 0.05771 0.40023 0.85471 0.0
H187 H 0.04911 0.33705 0.86146 0.0
H188 H 0.03532 0.45235 0.87807 0.0
H189 H 0.97592 0.47293 0.80541 0.0
H190 H 0.94599 0.45083 0.82166 0.0
H191 H 0.98673 0.42944 0.81467 0.0
C192 C 0.96257 0.36167 0.85651 0.0
C193 C 0.99174 0.33931 0.86002 0.0
C194 C 0.96753 0.39773 0.85279 0.0
C195 C 0.00176 0.41218 0.85223 0.0
C196 C 0.03104 0.38965 0.85495 0.0
H197 H 0.06919 0.63402 0.85479 0.0
H198 H 0.06786 0.57016 0.84894 0.0
C199 C 0.0261 0.35352 0.85877 0.0
C200 C 0.00662 0.45121 0.85101 0.0
H201 H 0.98239 0.52507 0.82529 0.0
C202 C 0.02429 0.46818 0.86634 0.0
C203 C 0.99204 0.47193 0.83576 0.0
C204 C 0.97443 0.4553 0.81835 0.0
C205 C 0.0266 0.50523 0.86725 0.0
C206 C 0.01113 0.52594 0.85231 0.0
C207 C 0.99412 0.50908 0.83674 0.0
C208 C 0.0113 0.56517 0.85318 0.0
C209 C 0.04439 0.52204 0.88458 0.0
C210 C 0.9797 0.5837 0.85672 0.0
C211 C 0.98032 0.62026 0.86006 0.0
C212 C 0.01258 0.63889 0.85983 0.0
C213 C 0.04391 0.62049 0.85517 0.0
C214 C 0.04325 0.58396 0.85188 0.0
H215 H 0.04921 0.50267 0.89649 0.0
H216 H 0.07032 0.53316 0.88002 0.0
H217 H 0.02802 0.54411 0.89034 0.0
H218 H 0.95476 0.56964 0.85773 0.0
H219 H 0.95573 0.63362 0.86357 0.0
H220 H 0.36027 0.96755 0.38495 0.0
H221 H 0.42378 0.96425 0.37881 0.0
H222 H 0.41295 0.04092 0.33242 0.0
H223 H 0.3496 0.0465 0.33978 0.0
H224 H 0.46506 0.94592 0.35241 0.0
H225 H 0.48655 0.09011 0.36164 0.0
H226 H 0.44418 0.06981 0.36601 0.0
H227 H 0.45805 0.08037 0.34154 0.0
C228 C 0.37139 0.98346 0.37331 0.0
C229 C 0.35012 0.00748 0.36294 0.0
C230 C 0.4078 0.98161 0.3698 0.0
C231 C 0.42368 0.00312 0.3555 0.0
C232 C 0.40184 0.02516 0.34409 0.0
H233 H 0.65149 0.95543 0.33923 0.0
H234 H 0.58826 0.96199 0.33181 0.0
C235 C 0.36553 0.02796 0.34809 0.0
C236 C 0.46305 0.0029 0.35323 0.0
H237 H 0.5363 0.05607 0.35296 0.0
C238 C 0.48061 0.97007 0.35257 0.0
C239 C 0.4836 0.03435 0.35358 0.0
C240 C 0.46717 0.07059 0.35593 0.0
C241 C 0.51776 0.96761 0.35318 0.0
C242 C 0.53831 -0.00093 0.35313 0.0
C243 C 0.52075 0.03193 0.35288 0.0
C244 C 0.57769 -0.00131 0.35532 0.0
C245 C 0.53417 0.93125 0.35512 0.0
C246 C 0.59366 0.0194 0.36986 0.0
C247 C 0.63003 0.01704 0.3734 0.0
C248 C 0.65113 0.99329 0.36282 0.0
C249 C 0.63567 0.97374 0.3477 0.0
C250 C 0.59942 0.97709 0.34367 0.0
H251 H 0.5148 0.91148 0.36065 0.0
H252 H 0.54326 0.92215 0.34062 0.0
H253 H 0.55718 0.93155 0.36517 0.0
H254 H 0.57776 0.03643 0.37906 0.0
H255 H 0.64121 0.03223 0.38525 0.0
H256 H 0.90895 0.25601 0.95637 0.0
H257 H 0.92613 0.261 0.99075 0.0
H258 H 0.0363 0.2619 0.97422 0.0
H259 H 0.01968 0.25698 0.94012 0.0
H260 H 0.01889 0.21252 1.00434 0.0
H261 H 0.96858 0.348 1.01983 0.0
H262 H 0.93763 0.31808 1.00871 0.0
H263 H 0.97604 0.33221 0.99538 0.0
C264 C 0.9368 0.25761 0.96005 0.0
C265 C 0.96284 0.25611 0.94539 0.0
C266 C 0.94659 0.26057 0.9797 0.0
C267 C 0.98254 0.26208 0.98505 0.0
C268 C 0.00844 0.26085 0.97046 0.0
H269 H 0.09784 0.25655 0.09651 0.0
H270 H 0.08332 0.2591 0.06169 0.0
C271 C -0.00123 0.25809 0.95091 0.0
C272 C 0.99356 0.26353 1.00582 0.0
H273 H 0.9916 0.31546 0.04643 0.0
C274 C 0.01303 0.23505 1.01356 0.0
C275 C 0.98596 0.29297 1.01778 0.0
C276 C 0.96615 0.32475 1.01005 0.0
C277 C 0.02438 0.23481 0.03305 0.0
C278 C 0.01688 0.26433 0.04506 0.0
C279 C 0.99758 0.29292 0.03724 0.0
C280 C 0.02677 0.2651 0.06607 0.0
C281 C 0.04322 0.2024 0.04076 0.0
C282 C 0.00017 0.26912 0.08014 0.0
C283 C 0.00842 0.26814 0.09993 0.0
C284 C 0.04359 0.26311 0.10628 0.0
C285 C 0.07049 0.26026 0.09218 0.0
C286 C 0.06216 0.2614 0.07226 0.0
H287 H 0.03896 0.17898 0.03129 0.0
H288 H 0.07212 0.20767 0.04131 0.0
H289 H 0.03409 0.19576 0.05569 0.0
H290 H 0.97273 0.27219 0.07581 0.0
H291 H 0.98691 0.27064 0.11028 0.0
H292 H 0.77109 0.08289 0.59566 0.0
H293 H 0.76851 0.06373 0.56167 0.0
H294 H 0.68078 0.99485 0.57557 0.0
H295 H 0.68496 0.01229 0.60969 0.0
H296 H 0.72418 0.95973 0.55539 0.0
H297 H 0.70772 0.0876 0.51715 0.0
H298 H 0.74706 0.08757 0.53171 0.0
H299 H 0.70424 0.08395 0.54322 0.0
C300 C 0.75074 0.06432 0.59131 0.0
C301 C 0.72805 0.04929 0.60527 0.0
C302 C 0.74917 0.05339 0.57183 0.0
C303 C 0.7241 0.02807 0.5658 0.0
C304 C 0.70046 0.01428 0.57971 0.0
H305 H 0.68739 0.9854 0.44297 0.0
H306 H 0.68232 0.00306 0.47702 0.0
C307 C 0.70266 0.02447 0.59921 0.0
C308 C 0.72391 0.01398 0.54546 0.0
H309 H 0.72496 0.03832 0.49754 0.0
C310 C 0.72396 0.97702 0.54276 0.0
C311 C 0.72321 0.03624 0.52883 0.0
C312 C 0.72016 0.076 0.53037 0.0
C313 C 0.72349 0.96182 0.52409 0.0
C314 C 0.72464 0.98408 0.50747 0.0
C315 C 0.7244 0.02103 0.51017 0.0
C316 C 0.72553 0.96998 0.48714 0.0
C317 C 0.7207 0.92205 0.52253 0.0
C318 C 0.7509 0.9447 0.48132 0.0
C319 C 0.753 0.93364 0.46187 0.0
C320 C 0.73056 0.94852 0.44774 0.0
C321 C 0.70493 0.97335 0.45358 0.0
C322 C 0.7022 0.98366 0.47305 0.0
H323 H 0.70793 0.91041 0.53564 0.0
H324 H 0.70521 0.91407 0.50954 0.0
H325 H 0.7477 0.91055 0.5214 0.0
H326 H 0.77 0.93443 0.49164 0.0
H327 H 0.77351 0.91505 0.4577 0.0
H328 H 0.97814 0.69171 0.10628 0.0
H329 H 0.99549 0.68956 0.07206 0.0
H330 H 0.92762 0.77897 0.05985 0.0
H331 H 0.90862 0.77982 0.09402 0.0
H332 H 0.92536 0.73636 0.03067 0.0
H333 H 0.06682 0.75336 0.04872 0.0
H334 H 0.04964 0.71394 0.05977 0.0
H335 H 0.03247 0.75661 0.06685 0.0
C336 C 0.96648 0.71055 0.09622 0.0
C337 C 0.94212 0.73602 0.10283 0.0
C338 C 0.97681 0.70963 0.07668 0.0
C339 C 0.96404 0.73498 0.06341 0.0
C340 C 0.93828 0.75936 0.06979 0.0
H341 H 0.07215 0.77641 0.95244 0.0
H342 H 0.0523 0.77728 0.98645 0.0
C343 C 0.92725 0.75974 0.08931 0.0
C344 C 0.97779 0.73615 0.043 0.0
H345 H 0.0541 0.73578 1.01607 0.0
C346 C 0.95352 0.73648 0.02751 0.0
C347 C 0.01458 0.7373 0.03871 0.0
C348 C 0.04231 0.74071 0.0544 0.0
C349 C 0.96489 0.73698 1.00801 0.0
C350 C 0.00168 0.73551 1.00373 0.0
C351 C 0.02593 0.73616 1.01921 0.0
C352 C 0.01549 0.73364 0.98335 0.0
C353 C 0.93716 0.74005 0.99227 0.0
C354 C 0.00266 0.70799 0.97037 0.0
C355 C 0.01347 0.70795 0.95091 0.0
C356 C 0.03836 0.73274 0.94408 0.0
C357 C 0.0531 0.75686 0.95731 0.0
C358 C 0.0416 0.75745 0.97674 0.0
H359 H 0.91272 0.75308 0.99778 0.0
H360 H 0.94707 0.75545 0.9796 0.0
H361 H 0.9297 0.71315 0.98729 0.0
H362 H 0.98372 0.68832 0.97519 0.0
H363 H 0.00191 0.6888 0.94108 0.0
H364 H 0.22392 0.08343 0.45657 0.0
H365 H 0.22611 0.0644 0.49067 0.0
H366 H 0.31495 0.99636 0.47757 0.0
H367 H 0.31121 0.01366 0.44335 0.0
H368 H 0.27162 0.96098 0.49783 0.0
H369 H 0.28624 0.08953 0.53519 0.0
H370 H 0.24705 0.08874 0.52051 0.0
H371 H 0.29003 0.08555 0.50915 0.0
C372 C 0.24439 0.06505 0.46111 0.0
C373 C 0.26756 0.05024 0.44735 0.0
C374 C 0.24573 0.0542 0.48066 0.0
C375 C 0.27105 0.02919 0.48695 0.0
C376 C 0.29508 0.01556 0.47323 0.0
H377 H 0.31043 0.98835 0.60973 0.0
H378 H 0.3142 0.00573 0.57553 0.0
C379 C 0.29312 0.02566 0.45367 0.0
C380 C 0.27125 0.01533 0.50738 0.0
H381 H 0.27029 0.04021 0.55513 0.0
C382 C 0.2717 0.97841 0.51035 0.0
C383 C 0.27171 0.03779 0.52385 0.0
C384 C 0.27412 0.07757 0.52203 0.0
C385 C 0.27257 0.96342 0.52911 0.0
C386 C 0.27135 0.98587 0.54558 0.0
C387 C 0.27095 0.02279 0.54262 0.0
C388 C 0.2712 0.97201 0.56602 0.0
C389 C 0.2759 0.92371 0.53095 0.0
C390 C 0.2464 0.94648 0.57223 0.0
C391 C 0.24506 0.93559 0.59177 0.0
C392 C 0.2677 0.95089 0.6056 0.0
C393 C 0.29276 0.97598 0.59936 0.0
C394 C 0.29473 0.98613 0.57981 0.0
H395 H 0.28848 0.91201 0.51783 0.0
H396 H 0.29183 0.91606 0.54388 0.0
H397 H 0.24909 0.91196 0.53238 0.0
H398 H 0.22716 0.93586 0.56215 0.0
H399 H 0.22497 0.91679 0.59625 0.0
H400 H 0.194 0.213 0.19286 0.0
H401 H 0.22226 0.20474 0.2246 0.0
H402 H 0.15518 0.28578 0.24896 0.0
H403 H 0.1263 0.29377 0.2174 0.0
H404 H 0.25692 0.24722 0.25307 0.0
H405 H 0.12721 0.19623 0.27923 0.0
H406 H 0.13634 0.20396 0.25381 0.0
H407 H 0.12591 0.24045 0.26956 0.0
C408 C 0.18586 0.22976 0.20482 0.0
C409 C 0.15753 0.25373 0.20262 0.0
C410 C 0.20203 0.22493 0.223 0.0
C411 C 0.19025 0.24401 0.23927 0.0
C412 C 0.16418 0.2702 0.2367 0.0
H413 H 0.21542 0.20075 0.36309 0.0
H414 H 0.20543 0.23196 0.33235 0.0
C415 C 0.14785 0.2749 0.21859 0.0
C416 C 0.20254 0.23402 0.25914 0.0
H417 H 0.17333 0.19878 0.30209 0.0
C418 C 0.23866 0.2368 0.26385 0.0
C419 C 0.17874 0.22016 0.27316 0.0
C420 C 0.13994 0.21466 0.26871 0.0
C421 C 0.25152 0.22635 0.28225 0.0
C422 C 0.2277 0.21227 0.29619 0.0
C423 C 0.19157 0.20989 0.29151 0.0
C424 C 0.23945 0.19779 0.31534 0.0
C425 C 0.2904 0.23073 0.28664 0.0
C426 C 0.26281 0.16883 0.3162 0.0
C427 C 0.26872 0.151 0.33382 0.0
C428 C 0.25111 0.16154 0.35092 0.0
C429 C 0.2295 0.19192 0.35025 0.0
C430 C 0.22365 0.20975 0.33264 0.0
H431 H 0.30264 0.25136 0.27724 0.0
H432 H 0.2947 0.23791 0.30211 0.0
H433 H 0.30428 0.20533 0.2838 0.0
H434 H 0.27481 0.15859 0.30305 0.0
H435 H 0.28537 0.1276 0.33374 0.0
H436 H 0.87214 0.28377 0.83645 0.0
H437 H 0.84235 0.27578 0.80524 0.0
H438 H 0.77521 0.19584 0.83079 0.0
H439 H 0.8046 0.20403 0.86217 0.0
H440 H 0.84663 0.2122 0.78653 0.0
H441 H 0.70541 0.24892 0.79597 0.0
H442 H 0.73954 0.26289 0.81268 0.0
H443 H 0.72171 0.21883 0.81417 0.0
C444 C 0.85026 0.26528 0.83562 0.0
C445 C 0.84087 0.24444 0.85183 0.0
C446 C 0.8333 0.26067 0.81772 0.0
C447 C 0.80644 0.23527 0.8156 0.0
C448 C 0.79538 0.21607 0.83208 0.0
H449 H 0.71705 0.11852 0.72002 0.0
H450 H 0.72824 0.14754 0.75115 0.0
C451 C 0.8123 0.22075 0.85005 0.0
C452 C 0.79378 0.2255 0.7958 0.0
H453 H 0.71989 0.21541 0.76753 0.0
C454 C 0.81896 0.2134 0.78231 0.0
C455 C 0.75762 0.2266 0.79034 0.0
C456 C 0.7295 0.2403 0.80398 0.0
C457 C 0.80902 0.20156 0.76375 0.0
C458 C 0.77287 0.20258 0.75825 0.0
C459 C 0.74761 0.2149 0.77168 0.0
C460 C 0.76098 0.18906 0.73899 0.0
C461 C 0.83728 0.1867 0.7505 0.0
C462 C 0.77413 0.20377 0.72162 0.0
C463 C 0.76792 0.18713 0.70375 0.0
C464 C 0.74813 0.15561 0.70289 0.0
C465 C 0.7325 0.14268 0.72012 0.0
C466 C 0.7389 0.15924 0.73798 0.0
H467 H 0.8619 0.17994 0.75857 0.0
H468 H 0.82773 0.16254 0.74298 0.0
H469 H 0.84413 0.20676 0.73929 0.0
H470 H 0.7906 0.22723 0.72198 0.0
H471 H 0.78019 0.19794 0.69079 0.0
H472 H 0.71552 0.87539 0.33437 0.0
H473 H 0.72502 0.84565 0.30333 0.0
H474 H 0.79283 0.7692 0.33154 0.0
H475 H 0.78394 0.79921 0.36266 0.0
H476 H 0.82535 0.80221 0.30139 0.0
H477 H 0.69395 0.7552 0.27685 0.0
H478 H 0.69381 0.80102 0.28372 0.0
H479 H 0.70267 0.76751 0.30176 0.0
C480 C 0.73161 0.85162 0.33413 0.0
C481 C 0.74908 0.83981 0.35105 0.0
C482 C 0.73691 0.8345 0.31631 0.0
C483 C 0.75948 0.80498 0.31504 0.0
C484 C 0.77521 0.79185 0.33214 0.0
H485 H 0.86674 0.71042 0.21477 0.0
H486 H 0.83937 0.71776 0.24678 0.0
C487 C 0.76998 0.80899 0.34997 0.0
C488 C 0.77043 0.79098 0.29569 0.0
H489 H 0.7392 0.75949 0.25233 0.0
C490 C 0.80654 0.79232 0.2908 0.0
C491 C 0.74589 0.77846 0.28173 0.0
C492 C 0.70696 0.77512 0.28632 0.0
C493 C 0.81867 0.78264 0.27224 0.0
C494 C 0.79413 0.77048 0.25819 0.0
C495 C 0.75803 0.76865 0.26311 0.0
C496 C 0.80561 0.76137 0.23808 0.0
C497 C 0.85755 0.78698 0.26759 0.0
C498 C 0.79406 0.78187 0.22222 0.0
C499 C 0.80938 0.77746 0.2038 0.0
C500 C 0.83659 0.75247 0.20091 0.0
C501 C 0.84604 0.73008 0.21648 0.0
C502 C 0.83059 0.7344 0.23485 0.0
H503 H 0.8712 0.80419 0.27831 0.0
H504 H 0.87062 0.76063 0.2679 0.0
H505 H 0.86126 0.79853 0.25285 0.0
H506 H 0.77467 0.80269 0.22432 0.0
H507 H 0.80142 0.79515 0.19216 0.0
H508 H 0.28436 0.87527 0.71951 0.0
H509 H 0.27407 0.84442 0.75023 0.0
H510 H 0.20912 0.76768 0.72066 0.0
H511 H 0.21867 0.79891 0.68987 0.0
H512 H 0.17443 0.79832 0.75022 0.0
H513 H 0.30563 0.7547 0.7771 0.0
H514 H 0.30488 0.80077 0.77065 0.0
H515 H 0.29824 0.76782 0.75213 0.0
C516 C 0.26876 0.85121 0.71939 0.0
C517 C 0.25221 0.8397 0.70218 0.0
C518 C 0.26302 0.83343 0.73703 0.0
C519 C 0.24098 0.8035 0.73783 0.0
C520 C 0.2263 0.79065 0.72044 0.0
H521 H 0.13141 0.70222 0.83536 0.0
H522 H 0.16172 0.7111 0.80427 0.0
C523 C 0.2319 0.80849 0.7028 0.0
C524 C 0.22933 0.78878 0.75696 0.0
H525 H 0.25885 0.75754 0.80088 0.0
C526 C 0.1929 0.78884 0.76115 0.0
C527 C 0.2534 0.77679 0.77137 0.0
C528 C 0.29269 0.77467 0.76754 0.0
C529 C 0.17995 0.77835 0.77943 0.0
C530 C 0.204 0.76679 0.79394 0.0
C531 C 0.24043 0.76627 0.78974 0.0
C532 C 0.19145 0.75684 0.81375 0.0
C533 C 0.14064 0.78106 0.78332 0.0
C534 C 0.1998 0.77819 0.82978 0.0
C535 C 0.18272 0.77299 0.84769 0.0
C536 C 0.15694 0.74634 0.84985 0.0
C537 C 0.15094 0.72312 0.83421 0.0
C538 C 0.1681 0.72828 0.81636 0.0
H539 H 0.12688 0.79752 0.77222 0.0
H540 H 0.12883 0.75417 0.78302 0.0
H541 H 0.13554 0.79263 0.79789 0.0
H542 H 0.21787 0.80027 0.82813 0.0
H543 H 0.188 0.79137 0.85939 0.0
H544 H 0.97637 0.14957 0.18535 0.0
H545 H 0.96582 0.08617 0.19067 0.0
H546 H 0.07855 0.067 0.1902 0.0
H547 H 0.08917 0.12981 0.1844 0.0
H548 H 0.04495 0.02514 0.16516 0.0
H549 H 0.97619 0.01907 0.2363 0.0
H550 H 0.95539 0.04901 0.21948 0.0
H551 H -0.00051 0.05809 0.22806 0.0
C552 C -0.00114 0.1319 0.18677 0.0
C553 C 0.03355 0.14461 0.18428 0.0
C554 C 0.99284 0.0957 0.18992 0.0
C555 C 0.02144 0.07183 0.191 0.0
C556 C 0.05609 0.08487 0.18941 0.0
H557 H 0.02531 0.83837 0.18483 0.0
H558 H 0.04389 0.8995 0.1916 0.0
C559 C 0.06209 0.1208 0.18606 0.0
C560 C 0.01542 0.03298 0.19164 0.0
H561 H 0.97275 0.96704 0.2164 0.0
C562 C 0.02963 0.01236 0.17654 0.0
C563 C 0.99544 0.01633 0.20649 0.0
C564 C 0.98104 0.03671 0.22361 0.0
C565 C 0.02324 0.97584 0.17544 0.0
C566 C 0.00241 0.95937 0.18997 0.0
C567 C 0.98887 0.97976 0.20534 0.0
C568 C 0.99139 0.92187 0.18824 0.0
C569 C 0.03745 0.95546 0.15825 0.0
C570 C 0.95567 0.91418 0.18479 0.0
C571 C 0.94507 0.87957 0.18093 0.0
C572 C 0.96995 0.85176 0.18054 0.0
C573 C 0.00556 0.85921 0.18492 0.0
C574 C 0.01621 0.89408 0.18872 0.0
H575 H 0.04794 0.97324 0.14669 0.0
H576 H 0.05931 0.9379 0.16316 0.0
H577 H 0.01644 0.93854 0.15186 0.0
H578 H 0.93611 0.93522 0.18438 0.0
H579 H 0.91734 0.87479 0.17784 0.0
H580 H 0.15178 0.02568 0.68025 0.0
H581 H 0.08844 0.03756 0.68533 0.0
H582 H 0.06907 0.9255 0.69159 0.0
H583 H 0.13169 0.9135 0.68606 0.0
H584 H 0.02666 0.95473 0.66481 0.0
H585 H 0.02251 0.03567 0.73192 0.0
H586 H 0.05192 0.05294 0.71369 0.0
H587 H 0.06125 0.01073 0.72479 0.0
C588 C 0.13406 0.00371 0.6831 0.0
C589 C 0.14662 0.96868 0.68258 0.0
C590 C 0.09791 0.01051 0.6861 0.0
C591 C 0.074 0.98239 0.68897 0.0
C592 C 0.08695 0.94759 0.68937 0.0
H593 H 0.84072 0.97245 0.68687 0.0
H594 H 0.90307 0.95683 0.69275 0.0
C595 C 0.12279 0.94079 0.68618 0.0
C596 C 0.03514 0.98859 0.68954 0.0
H597 H 0.96946 0.03409 0.71288 0.0
C598 C 0.01411 0.97173 0.67549 0.0
C599 C 0.0188 0.01078 0.70346 0.0
C600 C 0.03972 0.02832 0.71944 0.0
C601 C 0.97739 0.9773 0.67457 0.0
C602 C 0.96113 2e-05 0.68824 0.0
C603 C 0.98201 0.01649 0.7025 0.0
C604 C 0.9231 0.00947 0.68677 0.0
C605 C 0.95652 0.95997 0.65847 0.0
C606 C 0.91371 0.04436 0.6821 0.0
C607 C 0.87838 0.0533 0.67878 0.0
C608 C 0.85151 0.02754 0.68012 0.0
C609 C 0.86077 0.99282 0.68561 0.0
C610 C 0.89635 0.98386 0.6889 0.0
H611 H 0.974 0.94861 0.64707 0.0
H612 H 0.94032 0.93817 0.66467 0.0
H613 H 0.93825 0.97931 0.65153 0.0
H614 H 0.9339 0.06453 0.68043 0.0
H615 H 0.87227 0.08041 0.67479 0.0
H616 H 0.01749 0.14543 0.85757 0.0
H617 H 0.02904 0.08301 0.8498 0.0
H618 H 0.92307 0.05584 0.86793 0.0
H619 H 0.91127 0.11764 0.8756 0.0
H620 H 0.02478 0.0289 0.87809 0.0
H621 H 0.93385 0.00117 0.8167 0.0
H622 H 0.94677 0.04556 0.8234 0.0
H623 H 0.91293 0.02276 0.83693 0.0
C624 C 0.9965 0.12623 0.85958 0.0
C625 C 0.96356 0.13649 0.86732 0.0
C626 C 0.0031 0.09063 0.85512 0.0
C627 C 0.97672 0.06491 0.85803 0.0
C628 C 0.94354 0.07531 0.86517 0.0
H629 H 0.96273 0.83766 0.87004 0.0
H630 H 0.94978 0.90081 0.86455 0.0
C631 C 0.937 0.11069 0.86974 0.0
C632 C 0.98483 0.02672 0.85582 0.0
H633 H 0.95734 0.9507 0.83359 0.0
C634 C 0.01046 0.01187 0.86815 0.0
C635 C 0.96565 0.00455 0.84305 0.0
C636 C 0.93846 0.01932 0.82914 0.0
C637 C 0.0167 0.97527 0.86852 0.0
C638 C 0.99744 0.95297 0.85581 0.0
C639 C 0.97209 0.96785 0.84327 0.0
C640 C 0.00324 0.91413 0.85573 0.0
C641 C 0.04294 0.96072 0.8831 0.0
C642 C 0.03699 0.90052 0.85163 0.0
C643 C 0.04447 0.86486 0.855 0.0
C644 C 0.01812 0.84195 0.86211 0.0
C645 C 0.98346 0.85481 0.86454 0.0
C646 C 0.9761 0.89081 0.86145 0.0
H647 H 0.04824 0.97981 0.89501 0.0
H648 H 0.03324 0.93559 0.88963 0.0
H649 H 0.06844 0.95524 0.87564 0.0
H650 H 0.05805 0.91787 0.84674 0.0
H651 H 0.07131 0.85548 0.85276 0.0
H652 H 0.84342 0.02451 0.36748 0.0
H653 H 0.90573 0.03972 0.3613 0.0
H654 H 0.93523 0.93018 0.36895 0.0
H655 H 0.87361 0.91477 0.37496 0.0
H656 H 0.9599 0.02759 0.38878 0.0
H657 H 0.98983 0.95831 0.3197 0.0
H658 H 0.94511 0.96787 0.32752 0.0
H659 H 0.96874 0.9307 0.33758 0.0
C660 C 0.86313 0.00362 0.3675 0.0
C661 C 0.85357 0.96849 0.37182 0.0
C662 C 0.89866 0.01233 0.36397 0.0
C663 C 0.925 0.98597 0.3644 0.0
C664 C 0.91529 0.9508 0.36813 0.0
H665 H 0.15354 0.97356 0.37324 0.0
H666 H 0.0902 0.96093 0.36845 0.0
C667 C 0.88001 0.94214 0.37177 0.0
C668 C 0.96302 0.99537 0.36307 0.0
H669 H 0.03973 0.97675 0.33866 0.0
C670 C 0.97728 0.01693 0.37766 0.0
C671 C 0.98567 0.98094 0.34871 0.0
C672 C 0.97155 0.95841 0.33238 0.0
C673 C 0.01376 0.02365 0.37864 0.0
C674 C 0.03652 0.00908 0.36435 0.0
C675 C 0.02223 0.98784 0.3496 0.0
C676 C 0.07518 0.01588 0.36465 0.0
C677 C 0.02774 0.04529 0.3954 0.0
C678 C 0.08776 0.05069 0.36328 0.0
C679 C 0.12356 0.05793 0.3662 0.0
C680 C 0.14767 0.03043 0.37023 0.0
C681 C 0.13553 0.99525 0.37021 0.0
C682 C 0.09942 0.98804 0.3675 0.0
H683 H 0.00855 0.04639 0.40766 0.0
H684 H 0.05314 0.03429 0.40091 0.0
H685 H 0.03256 0.07283 0.39038 0.0
H686 H 0.06964 0.07245 0.3606 0.0
H687 H 0.13222 0.08528 0.36578 0.0
loop_
_geom_bond_atom_site_label_1
_geom_bond_atom_site_label_2
_geom_bond_distance
_geom_bond_site_symmetry_2
_ccdc_geom_bond_type
O0 Cd1 2.223 . S
O0 C8 1.315 . S
Cd1 O0 2.223 . S
Cd1 O4 2.297 . S
Cd1 O5 2.439 . S
Cd1 O11 2.240 . S
Cd2 O3 2.240 . S
Cd2 O10 2.223 . S
Cd2 O12 2.297 . S
Cd2 O13 2.439 . S
O3 Cd2 2.240 . S
O3 C8 1.279 . S
O4 Cd1 2.297 . S
O4 C6 1.247 . S
O5 Cd1 2.439 . S
O5 C6 1.208 . S
C6 O4 1.247 . S
C6 O5 1.208 . S
C7 O12 1.247 . S
C7 O13 1.208 . S
C8 O0 1.315 . S
C8 O3 1.279 . S
C9 O10 1.315 . S
C9 O11 1.279 . S
O10 Cd2 2.223 . S
O10 C9 1.315 . S
O11 Cd1 2.240 . S
O11 C9 1.279 . S
O12 Cd2 2.297 . S
O12 C7 1.247 . S
O13 Cd2 2.439 . S
O13 C7 1.208 . S
O14 Cd15 2.223 . S
O14 C22 1.315 . S
Cd15 O14 2.223 . S
Cd15 O18 2.297 . S
Cd15 O19 2.439 . S
Cd15 O25 2.240 . S
Cd16 O17 2.240 . S
Cd16 O24 2.223 . S
Cd16 O26 2.297 . S
Cd16 O27 2.439 . S
O17 Cd16 2.240 . S
O17 C22 1.279 . S
O18 Cd15 2.297 . S
O18 C20 1.247 . S
O19 Cd15 2.439 . S
O19 C20 1.208 . S
C20 O18 1.247 . S
C20 O19 1.208 . S
C21 O26 1.247 . S
C21 O27 1.208 . S
C22 O14 1.315 . S
C22 O17 1.279 . S
C23 O24 1.315 . S
C23 O25 1.279 . S
O24 Cd16 2.223 . S
O24 C23 1.315 . S
O25 Cd15 2.240 . S
O25 C23 1.279 . S
O26 Cd16 2.297 . S
O26 C21 1.247 . S
O27 Cd16 2.439 . S
O27 C21 1.208 . S
O28 Cd29 2.223 . S
O28 C36 1.315 . S
Cd29 O28 2.223 . S
Cd29 O32 2.297 . S
Cd29 O33 2.439 . S
Cd29 O39 2.240 . S
Cd30 O31 2.240 . S
Cd30 O38 2.223 . S
Cd30 O40 2.297 . S
Cd30 O41 2.439 . S
O31 Cd30 2.240 . S
O31 C36 1.279 . S
O32 Cd29 2.297 . S
O32 C34 1.247 . S
O33 Cd29 2.439 . S
O33 C34 1.208 . S
C34 O32 1.247 . S
C34 O33 1.208 . S
C35 O40 1.247 . S
C35 O41 1.208 . S
C36 O28 1.315 . S
C36 O31 1.279 . S
C37 O38 1.315 . S
C37 O39 1.279 . S
O38 Cd30 2.223 . S
O38 C37 1.315 . S
O39 Cd29 2.240 . S
O39 C37 1.279 . S
O40 Cd30 2.297 . S
O40 C35 1.247 . S
O41 Cd30 2.439 . S
O41 C35 1.208 . S
O42 Cd43 2.223 . S
O42 C50 1.315 . S
Cd43 O42 2.223 . S
Cd43 O46 2.297 . S
Cd43 O47 2.439 . S
Cd43 O53 2.240 . S
Cd44 O45 2.240 . S
Cd44 O52 2.223 . S
Cd44 O54 2.297 . S
Cd44 O55 2.439 . S
O45 Cd44 2.240 . S
O45 C50 1.279 . S
O46 Cd43 2.297 . S
O46 C48 1.247 . S
O47 Cd43 2.439 . S
O47 C48 1.208 . S
C48 O46 1.247 . S
C48 O47 1.208 . S
C49 O54 1.247 . S
C49 O55 1.208 . S
C50 O42 1.315 . S
C50 O45 1.279 . S
C51 O52 1.315 . S
C51 O53 1.279 . S
O52 Cd44 2.223 . S
O52 C51 1.315 . S
O53 Cd43 2.240 . S
O53 C51 1.279 . S
O54 Cd44 2.297 . S
O54 C49 1.247 . S
O55 Cd44 2.439 . S
O55 C49 1.208 . S
O56 Cd57 2.223 . S
O56 C64 1.315 . S
Cd57 O56 2.223 . S
Cd57 O60 2.297 . S
Cd57 O61 2.439 . S
Cd57 O67 2.240 . S
Cd58 O59 2.240 . S
Cd58 O66 2.223 . S
Cd58 O68 2.297 . S
Cd58 O69 2.439 . S
O59 Cd58 2.240 . S
O59 C64 1.279 . S
O60 Cd57 2.297 . S
O60 C62 1.247 . S
O61 Cd57 2.439 . S
O61 C62 1.208 . S
C62 O60 1.247 . S
C62 O61 1.208 . S
C63 O68 1.247 . S
C63 O69 1.208 . S
C64 O56 1.315 . S
C64 O59 1.279 . S
C65 O66 1.315 . S
C65 O67 1.279 . S
O66 Cd58 2.223 . S
O66 C65 1.315 . S
O67 Cd57 2.240 . S
O67 C65 1.279 . S
O68 Cd58 2.297 . S
O68 C63 1.247 . S
O69 Cd58 2.439 . S
O69 C63 1.208 . S
O70 Cd71 2.223 . S
O70 C78 1.315 . S
Cd71 O70 2.223 . S
Cd71 O74 2.297 . S
Cd71 O75 2.439 . S
Cd71 O81 2.240 . S
Cd72 O73 2.240 . S
Cd72 O80 2.223 . S
Cd72 O82 2.297 . S
Cd72 O83 2.439 . S
O73 Cd72 2.240 . S
O73 C78 1.279 . S
O74 Cd71 2.297 . S
O74 C76 1.247 . S
O75 Cd71 2.439 . S
O75 C76 1.208 . S
C76 O74 1.247 . S
C76 O75 1.208 . S
C77 O82 1.247 . S
C77 O83 1.208 . S
C78 O70 1.315 . S
C78 O73 1.279 . S
C79 O80 1.315 . S
C79 O81 1.279 . S
O80 Cd72 2.223 . S
O80 C79 1.315 . S
O81 Cd71 2.240 . S
O81 C79 1.279 . S
O82 Cd72 2.297 . S
O82 C77 1.247 . S
O83 Cd72 2.439 . S
O83 C77 1.208 . S
O84 Cd85 2.223 . S
O84 C92 1.315 . S
Cd85 O84 2.223 . S
Cd85 O88 2.297 . S
Cd85 O89 2.439 . S
Cd85 O95 2.240 . S
Cd86 O87 2.240 . S
Cd86 O94 2.223 . S
Cd86 O96 2.297 . S
Cd86 O97 2.439 . S
O87 Cd86 2.240 . S
O87 C92 1.279 . S
O88 Cd85 2.297 . S
O88 C90 1.247 . S
O89 Cd85 2.439 . S
O89 C90 1.208 . S
C90 O88 1.247 . S
C90 O89 1.208 . S
C91 O96 1.247 . S
C91 O97 1.208 . S
C92 O84 1.315 . S
C92 O87 1.279 . S
C93 O94 1.315 . S
C93 O95 1.279 . S
O94 Cd86 2.223 . S
O94 C93 1.315 . S
O95 Cd85 2.240 . S
O95 C93 1.279 . S
O96 Cd86 2.297 . S
O96 C91 1.247 . S
O97 Cd86 2.439 . S
O97 C91 1.208 . S
O98 Cd99 2.223 . S
O98 C106 1.315 . S
Cd99 O98 2.223 . S
Cd99 O102 2.297 . S
Cd99 O103 2.439 . S
Cd99 O109 2.240 . S
Cd100 O101 2.240 . S
Cd100 O108 2.223 . S
Cd100 O110 2.297 . S
Cd100 O111 2.439 . S
O101 Cd100 2.240 . S
O101 C106 1.279 . S
O102 Cd99 2.297 . S
O102 C104 1.247 . S
O103 Cd99 2.439 . S
O103 C104 1.208 . S
C104 O102 1.247 . S
C104 O103 1.208 . S
C105 O110 1.247 . S
C105 O111 1.208 . S
C106 O98 1.315 . S
C106 O101 1.279 . S
C107 O108 1.315 . S
C107 O109 1.279 . S
O108 Cd100 2.223 . S
O108 C107 1.315 . S
O109 Cd99 2.240 . S
O109 C107 1.279 . S
O110 Cd100 2.297 . S
O110 C105 1.247 . S
O111 Cd100 2.439 . S
O111 C105 1.208 . S
H112 C120 0.929 . S
H113 C122 0.930 . S
H114 C124 0.930 . S
H115 C127 0.929 . S
H116 C130 0.930 . S
H117 C132 0.960 . S
H118 C132 0.960 . S
H119 C132 0.960 . S
C120 H112 0.929 . S
C120 C121 1.377 . S
C120 C122 1.384 . S
C121 C120 1.377 . S
C121 C127 1.390 . S
C122 H113 0.930 . S
C122 C120 1.384 . S
C122 C123 1.372 . S
C123 C122 1.372 . S
C123 C124 1.400 . S
C123 C128 1.490 . S
C124 H114 0.930 . S
C124 C123 1.400 . S
C124 C127 1.386 . S
H125 C141 0.930 . S
H126 C142 0.931 . S
C127 H115 0.929 . S
C127 C121 1.390 . S
C127 C124 1.386 . S
C128 C123 1.490 . S
C128 C130 1.395 1_455 S
C128 C131 1.403 . S
H129 C135 0.930 . S
C130 H116 0.930 . S
C130 C128 1.395 1_655 S
C130 C133 1.403 . S
C131 C128 1.403 . S
C131 C132 1.524 . S
C131 C135 1.400 . S
C132 H117 0.960 . S
C132 H118 0.960 . S
C132 H119 0.960 . S
C132 C131 1.524 . S
C133 C130 1.403 . S
C133 C134 1.392 . S
C133 C137 1.495 . S
C134 C133 1.392 . S
C134 C135 1.385 1_655 S
C134 C136 1.478 . S
C135 H129 0.930 . S
C135 C131 1.400 . S
C135 C134 1.385 1_455 S
C136 C134 1.478 . S
C136 C138 1.381 . S
C136 C142 1.383 . S
C137 C133 1.495 . S
C137 H143 0.959 . S
C137 H144 0.961 . S
C137 H145 0.960 . S
C138 C136 1.381 . S
C138 C139 1.394 . S
C138 H146 0.930 . S
C139 C138 1.394 . S
C139 C140 1.383 . S
C139 H147 0.929 . S
C140 C139 1.383 . S
C140 C141 1.377 . S
C141 H125 0.930 . S
C141 C140 1.377 . S
C141 C142 1.379 . S
C142 H126 0.931 . S
C142 C136 1.383 . S
C142 C141 1.379 . S
H143 C137 0.959 . S
H144 C137 0.961 . S
H145 C137 0.960 . S
H146 C138 0.930 . S
H147 C139 0.929 . S
H148 C156 0.929 . S
H149 C158 0.930 . S
H150 C160 0.930 . S
H151 C163 0.929 . S
H152 C166 0.930 . S
H153 C168 0.960 . S
H154 C168 0.960 . S
H155 C168 0.960 . S
C156 H148 0.929 . S
C156 C157 1.377 . S
C156 C158 1.384 . S
C157 C156 1.377 . S
C157 C163 1.390 . S
C158 H149 0.930 . S
C158 C156 1.384 . S
C158 C159 1.372 . S
C159 C158 1.372 . S
C159 C160 1.400 . S
C159 C164 1.490 . S
C160 H150 0.930 . S
C160 C159 1.400 . S
C160 C163 1.386 . S
H161 C177 0.930 . S
H162 C178 0.931 . S
C163 H151 0.929 . S
C163 C157 1.390 . S
C163 C160 1.386 . S
C164 C159 1.490 . S
C164 C166 1.395 . S
C164 C167 1.403 1_565 S
H165 C171 0.930 . S
C166 H152 0.930 . S
C166 C164 1.395 . S
C166 C169 1.403 . S
C167 C164 1.403 1_545 S
C167 C168 1.524 . S
C167 C171 1.400 . S
C168 H153 0.960 . S
C168 H154 0.960 . S
C168 H155 0.960 . S
C168 C167 1.524 . S
C169 C166 1.403 . S
C169 C170 1.392 1_565 S
C169 C173 1.495 . S
C170 C169 1.392 1_545 S
C170 C171 1.385 . S
C170 C172 1.478 . S
C171 H165 0.930 . S
C171 C167 1.400 . S
C171 C170 1.385 . S
C172 C170 1.478 . S
C172 C174 1.381 . S
C172 C178 1.383 . S
C173 C169 1.495 . S
C173 H179 0.959 . S
C173 H180 0.961 . S
C173 H181 0.960 . S
C174 C172 1.381 . S
C174 C175 1.394 . S
C174 H182 0.930 . S
C175 C174 1.394 . S
C175 C176 1.383 . S
C175 H183 0.929 . S
C176 C175 1.383 . S
C176 C177 1.377 . S
C177 H161 0.930 . S
C177 C176 1.377 . S
C177 C178 1.379 . S
C178 H162 0.931 . S
C178 C172 1.383 . S
C178 C177 1.379 . S
H179 C173 0.959 . S
H180 C173 0.961 . S
H181 C173 0.960 . S
H182 C174 0.930 . S
H183 C175 0.929 . S
H184 C192 0.929 . S
H185 C194 0.930 . S
H186 C196 0.930 . S
H187 C199 0.929 . S
H188 C202 0.930 . S
H189 C204 0.960 . S
H190 C204 0.960 . S
H191 C204 0.960 . S
C192 H184 0.929 . S
C192 C193 1.377 . S
C192 C194 1.384 . S
C193 C192 1.377 . S
C193 C199 1.390 . S
C194 H185 0.930 . S
C194 C192 1.384 . S
C194 C195 1.372 . S
C195 C194 1.372 . S
C195 C196 1.400 . S
C195 C200 1.490 . S
C196 H186 0.930 . S
C196 C195 1.400 . S
C196 C199 1.386 . S
H197 C213 0.930 . S
H198 C214 0.931 . S
C199 H187 0.929 . S
C199 C193 1.390 . S
C199 C196 1.386 . S
C200 C195 1.490 . S
C200 C202 1.395 1_655 S
C200 C203 1.403 . S
H201 C207 0.930 . S
C202 H188 0.930 . S
C202 C200 1.395 1_455 S
C202 C205 1.403 . S
C203 C200 1.403 . S
C203 C204 1.524 . S
C203 C207 1.400 . S
C204 H189 0.960 . S
C204 H190 0.960 . S
C204 H191 0.960 . S
C204 C203 1.524 . S
C205 C202 1.403 . S
C205 C206 1.392 . S
C205 C209 1.495 . S
C206 C205 1.392 . S
C206 C207 1.385 1_455 S
C206 C208 1.478 . S
C207 H201 0.930 . S
C207 C203 1.400 . S
C207 C206 1.385 1_655 S
C208 C206 1.478 . S
C208 C210 1.381 . S
C208 C214 1.383 . S
C209 C205 1.495 . S
C209 H215 0.959 . S
C209 H216 0.961 . S
C209 H217 0.960 . S
C210 C208 1.381 . S
C210 C211 1.394 . S
C210 H218 0.930 . S
C211 C210 1.394 . S
C211 C212 1.383 . S
C211 H219 0.929 . S
C212 C211 1.383 . S
C212 C213 1.377 . S
C213 H197 0.930 . S
C213 C212 1.377 . S
C213 C214 1.379 . S
C214 H198 0.931 . S
C214 C208 1.383 . S
C214 C213 1.379 . S
H215 C209 0.959 . S
H216 C209 0.961 . S
H217 C209 0.960 . S
H218 C210 0.930 . S
H219 C211 0.929 . S
H220 C228 0.929 . S
H221 C230 0.930 . S
H222 C232 0.930 . S
H223 C235 0.929 . S
H224 C238 0.930 . S
H225 C240 0.960 . S
H226 C240 0.960 . S
H227 C240 0.960 . S
C228 H220 0.929 . S
C228 C229 1.377 . S
C228 C230 1.384 . S
C229 C228 1.377 . S
C229 C235 1.390 . S
C230 H221 0.930 . S
C230 C228 1.384 . S
C230 C231 1.372 . S
C231 C230 1.372 . S
C231 C232 1.400 . S
C231 C236 1.490 . S
C232 H222 0.930 . S
C232 C231 1.400 . S
C232 C235 1.386 . S
H233 C249 0.930 . S
H234 C250 0.931 . S
C235 H223 0.929 . S
C235 C229 1.390 . S
C235 C232 1.386 . S
C236 C231 1.490 . S
C236 C238 1.395 1_545 S
C236 C239 1.403 . S
H237 C243 0.930 . S
C238 H224 0.930 . S
C238 C236 1.395 1_565 S
C238 C241 1.403 . S
C239 C236 1.403 . S
C239 C240 1.524 . S
C239 C243 1.400 . S
C240 H225 0.960 . S
C240 H226 0.960 . S
C240 H227 0.960 . S
C240 C239 1.524 . S
C241 C238 1.403 . S
C241 C242 1.392 . S
C241 C245 1.495 . S
C242 C241 1.392 . S
C242 C243 1.385 1_565 S
C242 C244 1.478 . S
C243 H237 0.930 . S
C243 C239 1.400 . S
C243 C242 1.385 1_545 S
C244 C242 1.478 . S
C244 C246 1.381 . S
C244 C250 1.383 . S
C245 C241 1.495 . S
C245 H251 0.959 . S
C245 H252 0.961 . S
C245 H253 0.960 . S
C246 C244 1.381 . S
C246 C247 1.394 . S
C246 H254 0.930 . S
C247 C246 1.394 . S
C247 C248 1.383 . S
C247 H255 0.929 . S
C248 C247 1.383 . S
C248 C249 1.377 . S
C249 H233 0.930 . S
C249 C248 1.377 . S
C249 C250 1.379 . S
C250 H234 0.931 . S
C250 C244 1.383 . S
C250 C249 1.379 . S
H251 C245 0.959 . S
H252 C245 0.961 . S
H253 C245 0.960 . S
H254 C246 0.930 . S
H255 C247 0.929 . S
H256 C264 0.929 . S
H257 C266 0.930 . S
H258 C268 0.958 . S
H259 C271 0.929 . S
H260 C274 0.930 . S
H261 C276 0.960 . S
H262 C276 0.960 1_655 S
H263 C276 0.960 . S
C264 H256 0.929 . S
C264 C265 1.377 . S
C264 C266 1.384 . S
C265 C264 1.377 . S
C265 C271 1.390 . S
C266 H257 0.930 . S
C266 C264 1.384 . S
C266 C267 1.372 . S
C267 C266 1.372 . S
C267 C268 1.400 . S
C267 C272 1.490 . S
C268 H258 0.958 . S
C268 C267 1.400 . S
C268 C271 1.386 . S
H269 C285 0.930 . S
H270 C286 0.931 . S
C271 H259 0.929 . S
C271 C265 1.390 . S
C271 C268 1.386 . S
C272 C267 1.490 . S
C272 C274 1.395 . S
C272 C275 1.403 1_655 S
H273 C279 0.930 . S
C274 H260 0.930 . S
C274 C272 1.395 . S
C274 C277 1.403 1_556 S
C275 C272 1.403 1_455 S
C275 C276 1.524 . S
C275 C279 1.400 1_556 S
C276 H261 0.960 . S
C276 H262 0.960 1_455 S
C276 H263 0.960 . S
C276 C275 1.524 . S
C277 C274 1.403 1_554 S
C277 C278 1.392 1_655 S
C277 C281 1.495 . S
C278 C277 1.392 1_455 S
C278 C279 1.385 . S
C278 C280 1.478 . S
C279 H273 0.930 . S
C279 C275 1.400 1_554 S
C279 C278 1.385 . S
C280 C278 1.478 . S
C280 C282 1.381 . S
C280 C286 1.383 . S
C281 C277 1.495 . S
C281 H287 0.959 . S
C281 H288 0.961 1_655 S
C281 H289 0.960 . S
C282 C280 1.381 . S
C282 C283 1.394 . S
C282 H290 0.930 1_455 S
C283 C282 1.394 . S
C283 C284 1.383 . S
C283 H291 0.929 . S
C284 C283 1.383 . S
C284 C285 1.377 . S
C285 H269 0.930 . S
C285 C284 1.377 . S
C285 C286 1.379 . S
C286 H270 0.931 . S
C286 C280 1.383 . S
C286 C285 1.379 . S
H287 C281 0.959 . S
H288 C281 0.961 1_455 S
H289 C281 0.960 . S
H290 C282 0.930 1_655 S
H291 C283 0.929 . S
H292 C300 0.929 . S
H293 C302 0.930 . S
H294 C304 0.930 . S
H295 C307 0.929 . S
H296 C310 0.930 . S
H297 C312 0.960 . S
H298 C312 0.960 . S
H299 C312 0.960 . S
C300 H292 0.929 . S
C300 C301 1.377 . S
C300 C302 1.384 . S
C301 C300 1.377 . S
C301 C307 1.390 . S
C302 H293 0.930 . S
C302 C300 1.384 . S
C302 C303 1.372 . S
C303 C302 1.372 . S
C303 C304 1.400 . S
C303 C308 1.490 . S
C304 H294 0.930 . S
C304 C303 1.400 . S
C304 C307 1.386 . S
H305 C321 0.930 . S
H306 C322 0.931 . S
C307 H295 0.929 . S
C307 C301 1.390 . S
C307 C304 1.386 . S
C308 C303 1.490 . S
C308 C310 1.395 1_545 S
C308 C311 1.403 . S
H309 C315 0.930 . S
C310 H296 0.930 . S
C310 C308 1.395 1_565 S
C310 C313 1.403 . S
C311 C308 1.403 . S
C311 C312 1.524 . S
C311 C315 1.400 . S
C312 H297 0.960 . S
C312 H298 0.960 . S
C312 H299 0.960 . S
C312 C311 1.524 . S
C313 C310 1.403 . S
C313 C314 1.392 . S
C313 C317 1.495 . S
C314 C313 1.392 . S
C314 C315 1.385 1_565 S
C314 C316 1.478 . S
C315 H309 0.930 . S
C315 C311 1.400 . S
C315 C314 1.385 1_545 S
C316 C314 1.478 . S
C316 C318 1.381 . S
C316 C322 1.383 . S
C317 C313 1.495 . S
C317 H323 0.959 . S
C317 H324 0.961 . S
C317 H325 0.960 . S
C318 C316 1.381 . S
C318 C319 1.394 . S
C318 H326 0.930 . S
C319 C318 1.394 . S
C319 C320 1.383 . S
C319 H327 0.929 . S
C320 C319 1.383 . S
C320 C321 1.377 . S
C321 H305 0.930 . S
C321 C320 1.377 . S
C321 C322 1.379 . S
C322 H306 0.931 . S
C322 C316 1.383 . S
C322 C321 1.379 . S
H323 C317 0.959 . S
H324 C317 0.961 . S
H325 C317 0.960 . S
H326 C318 0.930 . S
H327 C319 0.929 . S
H328 C336 0.929 . S
H329 C338 0.930 . S
H330 C340 0.930 . S
H331 C343 0.929 . S
H332 C346 0.930 . S
H333 C348 0.960 . S
H334 C348 0.960 . S
H335 C348 0.972 . S
C336 H328 0.929 . S
C336 C337 1.377 . S
C336 C338 1.384 . S
C337 C336 1.377 . S
C337 C343 1.390 . S
C338 H329 0.930 . S
C338 C336 1.384 . S
C338 C339 1.372 . S
C339 C338 1.372 . S
C339 C340 1.400 . S
C339 C344 1.490 . S
C340 H330 0.930 . S
C340 C339 1.400 . S
C340 C343 1.386 . S
H341 C357 0.930 . S
H342 C358 0.931 . S
C343 H331 0.929 . S
C343 C337 1.390 . S
C343 C340 1.386 . S
C344 C339 1.490 . S
C344 C346 1.395 . S
C344 C347 1.403 1_655 S
H345 C351 0.930 . S
C346 H332 0.930 . S
C346 C344 1.395 . S
C346 C349 1.403 1_554 S
C347 C344 1.403 1_455 S
C347 C348 1.524 . S
C347 C351 1.400 1_554 S
C348 H333 0.960 . S
C348 H334 0.960 . S
C348 H335 0.972 . S
C348 C347 1.524 . S
C349 C346 1.403 1_556 S
C349 C350 1.392 1_655 S
C349 C353 1.495 . S
C350 C349 1.392 1_455 S
C350 C351 1.385 . S
C350 C352 1.478 . S
C351 H345 0.930 . S
C351 C347 1.400 1_556 S
C351 C350 1.385 . S
C352 C350 1.478 . S
C352 C354 1.381 . S
C352 C358 1.383 . S
C353 C349 1.495 . S
C353 H359 0.959 . S
C353 H360 0.961 . S
C353 H361 0.967 . S
C354 C352 1.381 . S
C354 C355 1.394 . S
C354 H362 0.930 . S
C355 C354 1.394 . S
C355 C356 1.383 . S
C355 H363 0.929 . S
C356 C355 1.383 . S
C356 C357 1.377 . S
C357 H341 0.930 . S
C357 C356 1.377 . S
C357 C358 1.379 . S
C358 H342 0.931 . S
C358 C352 1.383 . S
C358 C357 1.379 . S
H359 C353 0.959 . S
H360 C353 0.961 . S
H361 C353 0.967 . S
H362 C354 0.930 . S
H363 C355 0.929 . S
H364 C372 0.929 . S
H365 C374 0.930 . S
H366 C376 0.930 . S
H367 C379 0.929 . S
H368 C382 0.930 . S
H369 C384 0.960 . S
H370 C384 0.960 . S
H371 C384 0.960 . S
C372 H364 0.929 . S
C372 C373 1.377 . S
C372 C374 1.384 . S
C373 C372 1.377 . S
C373 C379 1.390 . S
C374 H365 0.930 . S
C374 C372 1.384 . S
C374 C375 1.372 . S
C375 C374 1.372 . S
C375 C376 1.400 . S
C375 C380 1.490 . S
C376 H366 0.930 . S
C376 C375 1.400 . S
C376 C379 1.386 . S
H377 C393 0.930 . S
H378 C394 0.931 . S
C379 H367 0.929 . S
C379 C373 1.390 . S
C379 C376 1.386 . S
C380 C375 1.490 . S
C380 C382 1.395 1_545 S
C380 C383 1.403 . S
H381 C387 0.930 . S
C382 H368 0.930 . S
C382 C380 1.395 1_565 S
C382 C385 1.403 . S
C383 C380 1.403 . S
C383 C384 1.524 . S
C383 C387 1.400 . S
C384 H369 0.960 . S
C384 H370 0.960 . S
C384 H371 0.960 . S
C384 C383 1.524 . S
C385 C382 1.403 . S
C385 C386 1.392 . S
C385 C389 1.495 . S
C386 C385 1.392 . S
C386 C387 1.385 1_565 S
C386 C388 1.478 . S
C387 H381 0.930 . S
C387 C383 1.400 . S
C387 C386 1.385 1_545 S
C388 C386 1.478 . S
C388 C390 1.381 . S
C388 C394 1.383 . S
C389 C385 1.495 . S
C389 H395 0.959 . S
C389 H396 0.961 . S
C389 H397 0.960 . S
C390 C388 1.381 . S
C390 C391 1.394 . S
C390 H398 0.930 . S
C391 C390 1.394 . S
C391 C392 1.383 . S
C391 H399 0.929 . S
C392 C391 1.383 . S
C392 C393 1.377 . S
C393 H377 0.930 . S
C393 C392 1.377 . S
C393 C394 1.379 . S
C394 H378 0.931 . S
C394 C388 1.383 . S
C394 C393 1.379 . S
H395 C389 0.959 . S
H396 C389 0.961 . S
H397 C389 0.960 . S
H398 C390 0.930 . S
H399 C391 0.929 . S
H400 C408 0.929 . S
H401 C410 0.930 . S
H402 C412 0.930 . S
H403 C415 0.929 . S
H404 C418 0.930 . S
H405 C420 0.960 . S
H406 C420 0.960 . S
H407 C420 0.960 . S
C408 H400 0.929 . S
C408 C409 1.377 . S
C408 C410 1.384 . S
C409 C408 1.377 . S
C409 C415 1.390 . S
C410 H401 0.930 . S
C410 C408 1.384 . S
C410 C411 1.372 . S
C411 C410 1.372 . S
C411 C412 1.400 . S
C411 C416 1.490 . S
C412 H402 0.930 . S
C412 C411 1.400 . S
C412 C415 1.386 . S
H413 C429 0.930 . S
H414 C430 0.931 . S
C415 H403 0.929 . S
C415 C409 1.390 . S
C415 C412 1.386 . S
C416 C411 1.490 . S
C416 C418 1.395 . S
C416 C419 1.403 . S
H417 C423 0.930 . S
C418 H404 0.930 . S
C418 C416 1.395 . S
C418 C421 1.403 . S
C419 C416 1.403 . S
C419 C420 1.524 . S
C419 C423 1.400 . S
C420 H405 0.960 . S
C420 H406 0.960 . S
C420 H407 0.960 . S
C420 C419 1.524 . S
C421 C418 1.403 . S
C421 C422 1.392 . S
C421 C425 1.495 . S
C422 C421 1.392 . S
C422 C423 1.385 . S
C422 C424 1.478 . S
C423 H417 0.930 . S
C423 C419 1.400 . S
C423 C422 1.385 . S
C424 C422 1.478 . S
C424 C426 1.381 . S
C424 C430 1.383 . S
C425 C421 1.495 . S
C425 H431 0.959 . S
C425 H432 0.961 . S
C425 H433 0.960 . S
C426 C424 1.381 . S
C426 C427 1.394 . S
C426 H434 0.930 . S
C427 C426 1.394 . S
C427 C428 1.383 . S
C427 H435 0.929 . S
C428 C427 1.383 . S
C428 C429 1.377 . S
C429 H413 0.930 . S
C429 C428 1.377 . S
C429 C430 1.379 . S
C430 H414 0.931 . S
C430 C424 1.383 . S
C430 C429 1.379 . S
H431 C425 0.959 . S
H432 C425 0.961 . S
H433 C425 0.960 . S
H434 C426 0.930 . S
H435 C427 0.929 . S
H436 C444 0.929 . S
H437 C446 0.930 . S
H438 C448 0.930 . S
H439 C451 0.929 . S
H440 C454 0.930 . S
H441 C456 0.960 . S
H442 C456 0.960 . S
H443 C456 0.960 . S
C444 H436 0.929 . S
C444 C445 1.377 . S
C444 C446 1.384 . S
C445 C444 1.377 . S
C445 C451 1.390 . S
C446 H437 0.930 . S
C446 C444 1.384 . S
C446 C447 1.372 . S
C447 C446 1.372 . S
C447 C448 1.400 . S
C447 C452 1.490 . S
C448 H438 0.930 . S
C448 C447 1.400 . S
C448 C451 1.386 . S
H449 C465 0.930 . S
H450 C466 0.931 . S
C451 H439 0.929 . S
C451 C445 1.390 . S
C451 C448 1.386 . S
C452 C447 1.490 . S
C452 C454 1.395 . S
C452 C455 1.403 . S
H453 C459 0.930 . S
C454 H440 0.930 . S
C454 C452 1.395 . S
C454 C457 1.403 . S
C455 C452 1.403 . S
C455 C456 1.524 . S
C455 C459 1.400 . S
C456 H441 0.960 . S
C456 H442 0.960 . S
C456 H443 0.960 . S
C456 C455 1.524 . S
C457 C454 1.403 . S
C457 C458 1.392 . S
C457 C461 1.495 . S
C458 C457 1.392 . S
C458 C459 1.385 . S
C458 C460 1.478 . S
C459 H453 0.930 . S
C459 C455 1.400 . S
C459 C458 1.385 . S
C460 C458 1.478 . S
C460 C462 1.381 . S
C460 C466 1.383 . S
C461 C457 1.495 . S
C461 H467 0.959 . S
C461 H468 0.961 . S
C461 H469 0.960 . S
C462 C460 1.381 . S
C462 C463 1.394 . S
C462 H470 0.930 . S
C463 C462 1.394 . S
C463 C464 1.383 . S
C463 H471 0.929 . S
C464 C463 1.383 . S
C464 C465 1.377 . S
C465 H449 0.930 . S
C465 C464 1.377 . S
C465 C466 1.379 . S
C466 H450 0.931 . S
C466 C460 1.383 . S
C466 C465 1.379 . S
H467 C461 0.959 . S
H468 C461 0.961 . S
H469 C461 0.960 . S
H470 C462 0.930 . S
H471 C463 0.929 . S
H472 C480 0.929 . S
H473 C482 0.930 . S
H474 C484 0.930 . S
H475 C487 0.929 . S
H476 C490 0.930 . S
H477 C492 0.960 . S
H478 C492 0.960 . S
H479 C492 0.960 . S
C480 H472 0.929 . S
C480 C481 1.377 . S
C480 C482 1.384 . S
C481 C480 1.377 . S
C481 C487 1.390 . S
C482 H473 0.930 . S
C482 C480 1.384 . S
C482 C483 1.372 . S
C483 C482 1.372 . S
C483 C484 1.400 . S
C483 C488 1.490 . S
C484 H474 0.930 . S
C484 C483 1.400 . S
C484 C487 1.386 . S
H485 C501 0.930 . S
H486 C502 0.931 . S
C487 H475 0.929 . S
C487 C481 1.390 . S
C487 C484 1.386 . S
C488 C483 1.490 . S
C488 C490 1.395 . S
C488 C491 1.403 . S
H489 C495 0.930 . S
C490 H476 0.930 . S
C490 C488 1.395 . S
C490 C493 1.403 . S
C491 C488 1.403 . S
C491 C492 1.524 . S
C491 C495 1.400 . S
C492 H477 0.960 . S
C492 H478 0.960 . S
C492 H479 0.960 . S
C492 C491 1.524 . S
C493 C490 1.403 . S
C493 C494 1.392 . S
C493 C497 1.495 . S
C494 C493 1.392 . S
C494 C495 1.385 . S
C494 C496 1.478 . S
C495 H489 0.930 . S
C495 C491 1.400 . S
C495 C494 1.385 . S
C496 C494 1.478 . S
C496 C498 1.381 . S
C496 C502 1.383 . S
C497 C493 1.495 . S
C497 H503 0.959 . S
C497 H504 0.961 . S
C497 H505 0.960 . S
C498 C496 1.381 . S
C498 C499 1.394 . S
C498 H506 0.930 . S
C499 C498 1.394 . S
C499 C500 1.383 . S
C499 H507 0.929 . S
C500 C499 1.383 . S
C500 C501 1.377 . S
C501 H485 0.930 . S
C501 C500 1.377 . S
C501 C502 1.379 . S
C502 H486 0.931 . S
C502 C496 1.383 . S
C502 C501 1.379 . S
H503 C497 0.959 . S
H504 C497 0.961 . S
H505 C497 0.960 . S
H506 C498 0.930 . S
H507 C499 0.929 . S
H508 C516 0.929 . S
H509 C518 0.930 . S
H510 C520 0.930 . S
H511 C523 0.929 . S
H512 C526 0.930 . S
H513 C528 0.960 . S
H514 C528 0.960 . S
H515 C528 0.960 . S
C516 H508 0.929 . S
C516 C517 1.377 . S
C516 C518 1.384 . S
C517 C516 1.377 . S
C517 C523 1.390 . S
C518 H509 0.930 . S
C518 C516 1.384 . S
C518 C519 1.372 . S
C519 C518 1.372 . S
C519 C520 1.400 . S
C519 C524 1.490 . S
C520 H510 0.930 . S
C520 C519 1.400 . S
C520 C523 1.386 . S
H521 C537 0.930 . S
H522 C538 0.931 . S
C523 H511 0.929 . S
C523 C517 1.390 . S
C523 C520 1.386 . S
C524 C519 1.490 . S
C524 C526 1.395 . S
C524 C527 1.403 . S
H525 C531 0.930 . S
C526 H512 0.930 . S
C526 C524 1.395 . S
C526 C529 1.403 . S
C527 C524 1.403 . S
C527 C528 1.524 . S
C527 C531 1.400 . S
C528 H513 0.960 . S
C528 H514 0.960 . S
C528 H515 0.960 . S
C528 C527 1.524 . S
C529 C526 1.403 . S
C529 C530 1.392 . S
C529 C533 1.495 . S
C530 C529 1.392 . S
C530 C531 1.385 . S
C530 C532 1.478 . S
C531 H525 0.930 . S
C531 C527 1.400 . S
C531 C530 1.385 . S
C532 C530 1.478 . S
C532 C534 1.381 . S
C532 C538 1.383 . S
C533 C529 1.495 . S
C533 H539 0.959 . S
C533 H540 0.961 . S
C533 H541 0.960 . S
C534 C532 1.381 . S
C534 C535 1.394 . S
C534 H542 0.930 . S
C535 C534 1.394 . S
C535 C536 1.383 . S
C535 H543 0.929 . S
C536 C535 1.383 . S
C536 C537 1.377 . S
C537 H521 0.930 . S
C537 C536 1.377 . S
C537 C538 1.379 . S
C538 H522 0.931 . S
C538 C532 1.383 . S
C538 C537 1.379 . S
H539 C533 0.959 . S
H540 C533 0.961 . S
H541 C533 0.960 . S
H542 C534 0.930 . S
H543 C535 0.929 . S
H544 C552 0.929 . S
H545 C554 0.930 . S
H546 C556 0.930 . S
H547 C559 0.929 . S
H548 C562 0.930 . S
H549 C564 0.960 . S
H550 C564 0.960 . S
H551 C564 0.960 . S
C552 H544 0.929 . S
C552 C553 1.377 . S
C552 C554 1.384 . S
C553 C552 1.377 . S
C553 C559 1.390 . S
C554 H545 0.930 . S
C554 C552 1.384 . S
C554 C555 1.372 . S
C555 C554 1.372 . S
C555 C556 1.400 . S
C555 C560 1.490 . S
C556 H546 0.930 . S
C556 C555 1.400 . S
C556 C559 1.386 . S
H557 C573 0.930 . S
H558 C574 0.931 1_455 S
C559 H547 0.929 . S
C559 C553 1.390 . S
C559 C556 1.386 . S
C560 C555 1.490 . S
C560 C562 1.395 . S
C560 C563 1.403 1_455 S
H561 C567 0.930 . S
C562 H548 0.930 . S
C562 C560 1.395 . S
C562 C565 1.403 1_545 S
C563 C560 1.403 1_655 S
C563 C564 1.524 . S
C563 C567 1.400 1_545 S
C564 H549 0.960 . S
C564 H550 0.960 . S
C564 H551 0.960 . S
C564 C563 1.524 . S
C565 C562 1.403 1_565 S
C565 C566 1.392 1_455 S
C565 C569 1.495 . S
C566 C565 1.392 1_655 S
C566 C567 1.385 . S
C566 C568 1.478 . S
C567 H561 0.930 . S
C567 C563 1.400 1_565 S
C567 C566 1.385 . S
C568 C566 1.478 . S
C568 C570 1.381 . S
C568 C574 1.383 . S
C569 C565 1.495 . S
C569 H575 0.959 . S
C569 H576 0.961 . S
C569 H577 0.960 . S
C570 C568 1.381 . S
C570 C571 1.394 . S
C570 H578 0.930 . S
C571 C570 1.394 . S
C571 C572 1.383 . S
C571 H579 0.929 . S
C572 C571 1.383 . S
C572 C573 1.377 . S
C573 H557 0.930 . S
C573 C572 1.377 . S
C573 C574 1.379 . S
C574 H558 0.931 1_655 S
C574 C568 1.383 . S
C574 C573 1.379 . S
H575 C569 0.959 . S
H576 C569 0.961 . S
H577 C569 0.960 . S
H578 C570 0.930 . S
H579 C571 0.929 . S
H580 C588 0.929 . S
H581 C590 0.930 . S
H582 C592 0.930 . S
H583 C595 0.929 . S
H584 C598 0.930 . S
H585 C600 0.960 . S
H586 C600 0.960 . S
H587 C600 0.960 . S
C588 H580 0.929 . S
C588 C589 1.377 . S
C588 C590 1.384 . S
C589 C588 1.377 . S
C589 C595 1.390 . S
C590 H581 0.930 . S
C590 C588 1.384 . S
C590 C591 1.372 . S
C591 C590 1.372 . S
C591 C592 1.400 . S
C591 C596 1.490 . S
C592 H582 0.930 . S
C592 C591 1.400 . S
C592 C595 1.386 . S
H593 C609 0.930 . S
H594 C610 0.931 . S
C595 H583 0.929 . S
C595 C589 1.390 . S
C595 C592 1.386 . S
C596 C591 1.490 . S
C596 C598 1.395 . S
C596 C599 1.403 1_565 S
H597 C603 0.930 . S
C598 H584 0.930 . S
C598 C596 1.395 . S
C598 C601 1.403 1_455 S
C599 C596 1.403 1_545 S
C599 C600 1.524 . S
C599 C603 1.400 1_455 S
C600 H585 0.960 . S
C600 H586 0.960 . S
C600 H587 0.960 . S
C600 C599 1.524 . S
C601 C598 1.403 1_655 S
C601 C602 1.392 1_565 S
C601 C605 1.495 . S
C602 C601 1.392 1_545 S
C602 C603 1.385 . S
C602 C604 1.478 . S
C603 H597 0.930 . S
C603 C599 1.400 1_655 S
C603 C602 1.385 . S
C604 C602 1.478 . S
C604 C606 1.381 . S
C604 C610 1.383 . S
C605 C601 1.495 . S
C605 H611 0.959 . S
C605 H612 0.961 . S
C605 H613 0.960 . S
C606 C604 1.381 . S
C606 C607 1.394 . S
C606 H614 0.930 . S
C607 C606 1.394 . S
C607 C608 1.383 . S
C607 H615 0.929 . S
C608 C607 1.383 . S
C608 C609 1.377 . S
C609 H593 0.930 . S
C609 C608 1.377 . S
C609 C610 1.379 . S
C610 H594 0.931 . S
C610 C604 1.383 . S
C610 C609 1.379 . S
H611 C605 0.959 . S
H612 C605 0.961 . S
H613 C605 0.960 . S
H614 C606 0.930 . S
H615 C607 0.929 . S
H616 C624 0.929 . S
H617 C626 0.930 . S
H618 C628 0.930 . S
H619 C631 0.929 . S
H620 C634 0.930 . S
H621 C636 0.960 1_565 S
H622 C636 0.960 . S
H623 C636 0.960 . S
C624 H616 0.929 . S
C624 C625 1.377 . S
C624 C626 1.384 . S
C625 C624 1.377 . S
C625 C631 1.390 . S
C626 H617 0.930 . S
C626 C624 1.384 . S
C626 C627 1.372 . S
C627 C626 1.372 . S
C627 C628 1.400 . S
C627 C632 1.490 . S
C628 H618 0.930 . S
C628 C627 1.400 . S
C628 C631 1.386 . S
H629 C645 0.930 . S
H630 C646 0.931 . S
C631 H619 0.929 . S
C631 C625 1.390 . S
C631 C628 1.386 . S
C632 C627 1.490 . S
C632 C634 1.395 1_655 S
C632 C635 1.403 . S
H633 C639 0.930 . S
C634 H620 0.930 . S
C634 C632 1.395 1_455 S
C634 C637 1.403 1_545 S
C635 C632 1.403 . S
C635 C636 1.524 . S
C635 C639 1.400 1_545 S
C636 H621 0.960 1_545 S
C636 H622 0.960 . S
C636 H623 0.960 . S
C636 C635 1.524 . S
C637 C634 1.403 1_565 S
C637 C638 1.392 . S
C637 C641 1.495 . S
C638 C637 1.392 . S
C638 C639 1.385 1_455 S
C638 C640 1.478 . S
C639 H633 0.930 . S
C639 C635 1.400 1_565 S
C639 C638 1.385 1_655 S
C640 C638 1.478 . S
C640 C642 1.381 . S
C640 C646 1.383 . S
C641 C637 1.495 . S
C641 H647 0.959 1_565 S
C641 H648 0.961 . S
C641 H649 0.960 . S
C642 C640 1.381 . S
C642 C643 1.394 . S
C642 H650 0.930 . S
C643 C642 1.394 . S
C643 C644 1.383 . S
C643 H651 0.929 . S
C644 C643 1.383 . S
C644 C645 1.377 . S
C645 H629 0.930 . S
C645 C644 1.377 . S
C645 C646 1.379 . S
C646 H630 0.931 . S
C646 C640 1.383 . S
C646 C645 1.379 . S
H647 C641 0.959 1_545 S
H648 C641 0.961 . S
H649 C641 0.960 . S
H650 C642 0.930 . S
H651 C643 0.929 . S
H652 C660 0.929 . S
H653 C662 0.930 . S
H654 C664 0.930 . S
H655 C667 0.929 . S
H656 C670 0.930 . S
H657 C672 0.960 1_455 S
H658 C672 0.960 . S
H659 C672 0.960 . S
C660 H652 0.929 . S
C660 C661 1.377 . S
C660 C662 1.384 . S
C661 C660 1.377 . S
C661 C667 1.390 . S
C662 H653 0.930 . S
C662 C660 1.384 . S
C662 C663 1.372 . S
C663 C662 1.372 . S
C663 C664 1.400 . S
C663 C668 1.490 . S
C664 H654 0.930 . S
C664 C663 1.400 . S
C664 C667 1.386 . S
H665 C681 0.930 . S
H666 C682 0.931 . S
C667 H655 0.929 . S
C667 C661 1.390 . S
C667 C664 1.386 . S
C668 C663 1.490 . S
C668 C670 1.395 1_565 S
C668 C671 1.403 . S
H669 C675 0.930 . S
C670 H656 0.930 . S
C670 C668 1.395 1_545 S
C670 C673 1.403 1_655 S
C671 C668 1.403 . S
C671 C672 1.524 . S
C671 C675 1.400 1_655 S
C672 H657 0.960 1_655 S
C672 H658 0.960 . S
C672 H659 0.960 . S
C672 C671 1.524 . S
C673 C670 1.403 1_455 S
C673 C674 1.392 . S
C673 C677 1.495 . S
C674 C673 1.392 . S
C674 C675 1.385 1_545 S
C674 C676 1.478 . S
C675 H669 0.930 . S
C675 C671 1.400 1_455 S
C675 C674 1.385 1_565 S
C676 C674 1.478 . S
C676 C678 1.381 . S
C676 C682 1.383 . S
C677 C673 1.495 . S
C677 H683 0.959 1_455 S
C677 H684 0.961 . S
C677 H685 0.960 . S
C678 C676 1.381 . S
C678 C679 1.394 . S
C678 H686 0.930 . S
C679 C678 1.394 . S
C679 C680 1.383 . S
C679 H687 0.929 . S
C680 C679 1.383 . S
C680 C681 1.377 . S
C681 H665 0.930 . S
C681 C680 1.377 . S
C681 C682 1.379 . S
C682 H666 0.931 . S
C682 C676 1.383 . S
C682 C681 1.379 . S
H683 C677 0.959 1_655 S
H684 C677 0.961 . S
H685 C677 0.960 . S
H686 C678 0.930 . S
H687 C679 0.929 . S
C121 C6 1.466 . S
C140 C34 1.474 . S
C157 C49 1.464 . S
C176 C21 1.446 . S
C193 C90 1.468 . S
C212 C62 1.466 . S
C229 C77 1.467 . S
C248 C105 1.474 . S
C265 C92 1.276 . S
C284 C8 1.259 . S
C301 C23 1.276 . S
C320 C107 1.309 . S
C337 C36 1.263 . S
C356 C64 1.229 . S
C373 C79 1.282 . S
C392 C51 1.318 . S
C409 C7 1.523 . S
C428 C76 1.533 . S
C445 C91 1.527 . S
C464 C20 1.511 . S
C481 C104 1.524 . S
C500 C35 1.511 . S
C517 C48 1.524 . S
C536 C63 1.512 . S
C553 C9 1.196 . S
C572 C37 1.209 . S
C589 C50 1.196 . S
C608 C22 1.212 . S
C625 C93 1.187 . S
C644 C65 1.160 . S
C661 C106 1.186 . S
C680 C78 1.160 . S
