# Generated by pormake.
# Topology wnj, (7)-cn, num edge types: 1
# Building blocks:
#     Node 0, Type 0, BuildingBlock: OLANEW_clean_sbu_0, # of connection points: 7
#     Node 1, Type 0, BuildingBlock: OLANEW_clean_sbu_0, # of connection points: 7
#     Node 2, Type 0, BuildingBlock: OLANEW_clean_sbu_0, # of connection points: 7
#     Node 3, Type 0, BuildingBlock: OLANEW_clean_sbu_0, # of connection points: 7
#     Node 4, Type 0, BuildingBlock: OLANEW_clean_sbu_0, # of connection points: 7
#     Node 5, Type 0, BuildingBlock: OLANEW_clean_sbu_0, # of connection points: 7
#     Edge 6, Type (0, 0), BuildingBlock: ZUJKAS_clean_linker_0, # of connection points: 2
#     Edge 7, Type (0, 0), BuildingBlock: ZUJKAS_clean_linker_0, # of connection points: 2
#     Edge 8, Type (0, 0), BuildingBlock: ZUJKAS_clean_linker_0, # of connection points: 2
#     Edge 9, Type (0, 0), BuildingBlock: ZUJKAS_clean_linker_0, # of connection points: 2
#     Edge 10, Type (0, 0), BuildingBlock: ZUJKAS_clean_linker_0, # of connection points: 2
#     Edge 11, Type (0, 0), BuildingBlock: ZUJKAS_clean_linker_0, # of connection points: 2
#     Edge 12, Type (0, 0), BuildingBlock: ZUJKAS_clean_linker_0, # of connection points: 2
#     Edge 13, Type (0, 0), BuildingBlock: ZUJKAS_clean_linker_0, # of connection points: 2
#     Edge 14, Type (0, 0), BuildingBlock: ZUJKAS_clean_linker_0, # of connection points: 2
#     Edge 15, Type (0, 0), BuildingBlock: ZUJKAS_clean_linker_0, # of connection points: 2
#     Edge 16, Type (0, 0), BuildingBlock: ZUJKAS_clean_linker_0, # of connection points: 2
#     Edge 17, Type (0, 0), BuildingBlock: ZUJKAS_clean_linker_0, # of connection points: 2
#     Edge 18, Type (0, 0), BuildingBlock: ZUJKAS_clean_linker_0, # of connection points: 2
#     Edge 19, Type (0, 0), BuildingBlock: ZUJKAS_clean_linker_0, # of connection points: 2
#     Edge 20, Type (0, 0), BuildingBlock: ZUJKAS_clean_linker_0, # of connection points: 2
#     Edge 21, Type (0, 0), BuildingBlock: ZUJKAS_clean_linker_0, # of connection points: 2
#     Edge 22, Type (0, 0), BuildingBlock: ZUJKAS_clean_linker_0, # of connection points: 2
#     Edge 23, Type (0, 0), BuildingBlock: ZUJKAS_clean_linker_0, # of connection points: 2
#     Edge 24, Type (0, 0), BuildingBlock: ZUJKAS_clean_linker_0, # of connection points: 2
#     Edge 25, Type (0, 0), BuildingBlock: ZUJKAS_clean_linker_0, # of connection points: 2
#     Edge 26, Type (0, 0), BuildingBlock: ZUJKAS_clean_linker_0, # of connection points: 2
# Relax obj value: 0.259
# Max RMSD: 0.267
# Mean RMSD: 0.267
data_MOF--net-wnj--node1-OLANEW_clean_sbu_0--edge1-ZUJKAS_clean_linker_0
_symmetry_space_group_name_H-M    P1
_symmetry_Int_Tables_number       1
_symmetry_cell_setting            triclinic
loop_
_symmetry_equiv_pos_as_xyz
'x, y, z'
_cell_length_a     47.005594
_cell_length_b     47.027632
_cell_length_c     54.006171
_cell_angle_alpha  89.977345
_cell_angle_beta   89.899308
_cell_angle_gamma 120.0066
loop_
_atom_site_label
_atom_site_type_symbol
_atom_site_fract_x
_atom_site_fract_y
_atom_site_fract_z
_atom_type_partial_charge
Cd0 Cd 0.18504 0.56524 0.11417 0.0
C1 C 0.21238 0.62895 0.08283 0.0
C2 C 0.08666 0.46641 0.00229 0.0
O3 O 0.10104 0.4675 0.98112 0.0
Cd4 Cd 0.15146 0.63216 0.12064 0.0
C5 C 0.06542 0.43524 0.01531 0.0
C6 C 0.02155 0.38319 0.04546 0.0
C7 C 0.03089 0.41576 0.05098 0.0
N8 N 0.05221 0.43933 0.03589 0.0
C9 C 0.05706 0.40329 0.00852 0.0
C10 C 0.03494 0.37711 0.02394 0.0
Co11 Co 0.063 0.48152 0.04346 0.0
C12 C 0.02093 0.4288 0.07206 0.0
O13 O 1.00232 0.40997 0.09017 0.0
C14 C 0.03353 0.47983 0.0939 0.0
C15 C 0.06159 0.49702 0.10806 0.0
C16 C 0.06546 0.52242 0.12345 0.0
C17 C 0.03734 0.52495 0.12932 0.0
C18 C 1.00632 0.50336 0.11844 0.0
C19 C 1.00535 0.48195 0.09953 0.0
C20 C 0.0997 0.54987 0.12705 0.0
C21 C 0.10727 0.5261 0.00196 0.0
C22 C 0.14108 0.53965 0.99726 0.0
C23 C 0.09146 0.54276 0.99341 0.0
C24 C 0.10909 0.57299 0.98156 0.0
C25 C 0.14262 0.5866 0.97727 0.0
C26 C 0.15889 0.56961 0.9843 0.0
N27 N 0.08856 0.49386 0.0128 0.0
N28 N 0.03515 0.46224 0.07272 0.0
N29 N 0.10294 0.49143 0.06147 0.0
C30 C 0.11552 0.46953 0.06473 0.0
C31 C 0.14255 0.47374 0.05088 0.0
C32 C 0.10117 0.44427 0.08222 0.0
C33 C 0.15526 0.45258 0.05424 0.0
H34 H 0.15355 0.49355 0.03754 0.0
C35 C 0.14048 0.42711 0.07179 0.0
C36 C 0.11342 0.42279 0.0859 0.0
C37 C 0.18399 0.45707 0.03958 0.0
H38 H 0.08074 0.4417 0.09318 0.0
H39 H 0.15011 0.41069 0.07452 0.0
C40 C 0.09818 0.39607 0.10458 0.0
O41 O 0.19646 0.43702 0.04326 0.0
O42 O 0.19658 0.47894 0.02411 0.0
O43 O 0.07431 0.39202 0.11654 0.0
O44 O 0.11062 0.37604 0.10852 0.0
H45 H 0.21519 0.43953 0.03394 0.0
H46 H 0.1011 0.35852 0.12064 0.0
N47 N 0.07365 0.52359 0.05114 0.0
C48 C 0.05217 0.53268 0.0441 0.0
C49 C 0.06053 0.5654 0.04777 0.0
C50 C 0.0913 0.5869 0.05876 0.0
C51 C 0.113 0.57558 0.06563 0.0
C52 C 0.10306 0.54258 0.06147 0.0
N53 N 0.02531 0.47852 0.02635 0.0
C54 C 0.02384 0.50649 0.03055 0.0
O55 O 1.00159 0.51157 0.01999 0.0
C56 C 0.12048 0.52437 0.06725 0.0
O57 O 0.20437 0.537 0.14456 0.0
O58 O 0.224 0.54381 0.10783 0.0
C59 C 1.00479 0.45398 0.00862 0.0
C60 C 0.9734 0.42888 0.01565 0.0
C61 C 0.95266 0.40571 0.99817 0.0
C62 C 0.9635 0.40782 0.97368 0.0
C63 C 0.99427 0.43337 0.96602 0.0
C64 C 0.01486 0.45651 0.9837 0.0
O65 O 0.22153 0.60794 0.08399 0.0
O66 O 0.18977 0.62493 0.09748 0.0
O67 O 0.12388 0.54486 0.12289 0.0
O68 O 0.10389 0.57876 0.12731 0.0
O69 O 0.15242 0.53956 0.0747 0.0
C70 C 0.20182 0.63111 0.1613 0.0
O71 O 0.18384 0.6437 0.15694 0.0
O72 O 0.20045 0.60834 0.14749 0.0
C73 C 0.22462 0.53513 0.12995 0.0
H74 H 1.00459 0.36319 0.05722 0.0
H75 H 0.06701 0.39862 0.99192 0.0
H76 H 0.02807 0.35214 0.01916 0.0
H77 H 0.08197 0.49309 0.10476 0.0
H78 H 0.03983 0.54427 0.1416 0.0
H79 H 0.98297 0.46687 0.08929 0.0
H80 H 0.15313 0.52627 0.00302 0.0
H81 H 0.06527 0.53201 0.99471 0.0
H82 H 0.15517 0.60943 0.96704 0.0
H83 H 0.04436 0.57428 0.04189 0.0
H84 H 0.09848 0.61238 0.0617 0.0
H85 H 0.13648 0.59202 0.07388 0.0
H86 H 0.96502 0.42782 0.03451 0.0
H87 H 0.94674 0.39071 0.96008 0.0
H88 H 0.03838 0.47671 0.978 0.0
Cd89 Cd 0.45108 0.61614 0.78658 0.0
C90 C 0.37651 0.56455 0.75594 0.0
C91 C 0.54164 0.61638 0.66832 0.0
O92 O 0.53862 0.62811 0.64699 0.0
Cd93 Cd 0.39081 0.52375 0.8051 0.0
C94 C 0.574 0.62681 0.67939 0.0
C95 C 0.62893 0.63595 0.70603 0.0
C96 C 0.59695 0.61392 0.71396 0.0
N97 N 0.57191 0.61119 0.7005 0.0
C98 C 0.60523 0.64913 0.67023 0.0
C99 C 0.63289 0.65371 0.6839 0.0
Co100 Co 0.5305 0.58046 0.71072 0.0
C101 C 0.58609 0.59224 0.73583 0.0
O102 O 0.60678 0.59302 0.75254 0.0
C103 C 0.53766 0.55489 0.76076 0.0
C104 C 0.52212 0.56629 0.77623 0.0
C105 C 0.49914 0.54564 0.7936 0.0
C106 C 0.49717 0.51521 0.79911 0.0
C107 C 0.51743 0.5054 0.7865 0.0
C108 C 0.5366 0.52509 0.76635 0.0
C109 C 0.47287 0.55306 0.80022 0.0
C110 C 0.4818 0.5792 0.6723 0.0
C111 C 0.46995 0.60067 0.66675 0.0
C112 C 0.46213 0.54583 0.66657 0.0
C113 C 0.43066 0.53375 0.65696 0.0
C114 C 0.4188 0.55499 0.65192 0.0
C115 C 0.43887 0.58891 0.65574 0.0
N116 N 0.51512 0.59207 0.68079 0.0
N117 N 0.55281 0.5733 0.73866 0.0
N118 N 0.52274 0.61165 0.72928 0.0
C119 C 0.54523 0.64616 0.73124 0.0
C120 C 0.54049 0.66846 0.7172 0.0
C121 C 0.5718 0.65765 0.74751 0.0
C122 C 0.56242 0.7024 0.71917 0.0
H123 H 0.51971 0.65918 0.70477 0.0
C124 C 0.58912 0.71366 0.73558 0.0
C125 C 0.59398 0.69144 0.74987 0.0
C126 C 0.55748 0.72609 0.70423 0.0
H127 H 0.57487 0.64017 0.75855 0.0
H128 H 0.60612 0.73977 0.73727 0.0
C129 C 0.62201 0.70356 0.76735 0.0
O130 O 0.57836 0.7587 0.70654 0.0
O131 O 0.5345 0.71629 0.68976 0.0
O132 O 0.62648 0.68417 0.77948 0.0
O133 O 0.64277 0.73614 0.77004 0.0
H134 H 0.57558 0.77457 0.69701 0.0
H135 H 0.66114 0.74454 0.78136 0.0
N136 N 0.48932 0.54972 0.72109 0.0
C137 C 0.47964 0.51862 0.71526 0.0
C138 C 0.44785 0.49443 0.72202 0.0
C139 C 0.42799 0.50442 0.73485 0.0
C140 C 0.4399 0.53794 0.74039 0.0
C141 C 0.47177 0.56082 0.7329 0.0
N142 N 0.53134 0.54465 0.69357 0.0
C143 C 0.50404 0.51554 0.69984 0.0
O144 O 0.49784 0.48749 0.68993 0.0
C145 C 0.4905 0.59678 0.73715 0.0
O146 O 0.49079 0.67503 0.80131 0.0
O147 O 0.44203 0.66359 0.79124 0.0
C148 C 0.55408 0.54772 0.67449 0.0
C149 C 0.58124 0.54424 0.68046 0.0
C150 C 0.60391 0.54791 0.66203 0.0
C151 C 0.59933 0.5552 0.6377 0.0
C152 C 0.57169 0.55743 0.63117 0.0
C153 C 0.54882 0.55333 0.64969 0.0
O154 O 0.40183 0.5925 0.75983 0.0
O155 O 0.37011 0.53942 0.76893 0.0
O156 O 0.47776 0.58209 0.79603 0.0
O157 O 0.44406 0.52881 0.80286 0.0
O158 O 0.47603 0.61406 0.74516 0.0
C159 C 0.39865 0.5769 0.84129 0.0
O160 O 0.38348 0.54593 0.84294 0.0
O161 O 0.41663 0.59022 0.82245 0.0
C162 C 0.46984 0.68464 0.79969 0.0
H163 H 0.65005 0.63919 0.71636 0.0
H164 H 0.60824 0.6623 0.65309 0.0
H165 H 0.65735 0.67079 0.67724 0.0
H166 H 0.52534 0.59028 0.77269 0.0
H167 H 0.47995 0.49941 0.81308 0.0
H168 H 0.55001 0.51702 0.75472 0.0
H169 H 0.48553 0.62671 0.67009 0.0
H170 H 0.47139 0.52917 0.66814 0.0
H171 H 0.39483 0.54503 0.64347 0.0
H172 H 0.43848 0.46891 0.71731 0.0
H173 H 0.40334 0.48623 0.74039 0.0
H174 H 0.42498 0.54554 0.75043 0.0
H175 H 0.58454 0.53855 0.69931 0.0
H176 H 0.61646 0.55715 0.62339 0.0
H177 H 0.52714 0.55459 0.64487 0.0
Cd178 Cd 0.40187 0.83955 0.45351 0.0
C179 C 0.45648 0.81844 0.42555 0.0
C180 C 0.40103 0.93229 0.33738 0.0
O181 O 0.38857 0.91712 0.31633 0.0
Cd182 Cd 0.4948 0.87322 0.47605 0.0
C183 C 0.39143 0.95485 0.34851 0.0
C184 C 0.3843 1.00202 0.37501 0.0
C185 C 0.40571 0.99127 0.38283 0.0
N186 N 0.40741 0.96828 0.36948 0.0
C187 C 0.3697 0.96454 0.33945 0.0
C188 C 0.36611 0.9883 0.35306 0.0
Co189 Co 0.43772 0.95691 0.37935 0.0
C190 C 0.4277 1.00186 0.40448 0.0
O191 O 0.42759 0.02208 0.42123 0.0
C192 C 0.46369 0.98897 0.42938 0.0
C193 C 0.4512 0.96185 0.44483 0.0
C194 C 0.47108 0.95865 0.46237 0.0
C195 C 0.50163 0.98672 0.46834 0.0
C196 C 0.5127 0.01693 0.45558 0.0
C197 C 0.49392 0.01707 0.43511 0.0
C198 C 0.46291 0.92458 0.46878 0.0
C199 C 0.43698 0.90826 0.34133 0.0
C200 C 0.41475 0.87475 0.33724 0.0
C201 C 0.46988 0.92112 0.33437 0.0
C202 C 0.48074 0.90079 0.32459 0.0
C203 C 0.45871 0.86756 0.32073 0.0
C204 C 0.42512 0.8543 0.32613 0.0
N205 N 0.42518 0.92965 0.34962 0.0
N206 N 0.44585 0.98666 0.40723 0.0
N207 N 0.40631 0.91835 0.39823 0.0
C208 C 0.3718 0.90661 0.4003 0.0
C209 C 0.34915 0.87846 0.38749 0.0
C210 C 0.36064 0.92308 0.41551 0.0
C211 C 0.31527 0.86679 0.38953 0.0
H212 H 0.35809 0.86576 0.37599 0.0
C213 C 0.30437 0.88376 0.40471 0.0
C214 C 0.32691 0.91193 0.41782 0.0
C215 C 0.29125 0.8369 0.37593 0.0
H216 H 0.37831 0.94431 0.42581 0.0
H217 H 0.27831 0.87497 0.40639 0.0
C218 C 0.31518 0.92951 0.43401 0.0
O219 O 0.25868 0.82548 0.37835 0.0
O220 O 0.30075 0.82241 0.36247 0.0
O221 O 0.33484 0.95434 0.44503 0.0
O222 O 0.28266 0.91815 0.43669 0.0
H223 H 0.24261 0.80603 0.36969 0.0
H224 H 0.2745 0.9292 0.44718 0.0
N225 N 0.46812 0.94584 0.38928 0.0
C226 C 0.49919 0.96652 0.38276 0.0
C227 C 0.52301 0.95817 0.38892 0.0
C228 C 0.51269 0.92833 0.40184 0.0
C229 C 0.4792 0.90745 0.40803 0.0
C230 C 0.45672 0.91721 0.40113 0.0
N231 N 0.47364 0.99301 0.36171 0.0
C232 C 0.50254 0.99403 0.36731 0.0
O233 O 0.53052 0.01525 0.35686 0.0
C234 C 0.42088 0.90061 0.40582 0.0
O235 O 0.35177 0.81546 0.48156 0.0
O236 O 0.34483 0.79186 0.4463 0.0
C237 C 0.47068 0.01279 0.34271 0.0
C238 C 0.47496 0.04373 0.34867 0.0
C239 C 0.47185 0.06311 0.33029 0.0
C240 C 0.46418 0.05118 0.306 0.0
C241 C 0.46123 0.021 0.29946 0.0
C242 C 0.4648 1.0019 0.31793 0.0
O243 O 0.42749 0.81393 0.42817 0.0
O244 O 0.47996 0.83794 0.43958 0.0
O245 O 0.43459 0.90054 0.46269 0.0
O246 O 0.48669 0.91997 0.47375 0.0
O247 O 0.40328 0.86885 0.41361 0.0
C248 C 0.4404 0.82129 0.50529 0.0
O249 O 0.47059 0.8369 0.51067 0.0
O250 O 0.43092 0.83096 0.48681 0.0
C251 C 0.33279 0.79208 0.46732 0.0
H252 H 0.38186 0.02045 0.38528 0.0
H253 H 0.35628 0.9545 0.32242 0.0
H254 H 0.34952 0.9963 0.34648 0.0
H255 H 0.42688 0.94166 0.44128 0.0
H256 H 0.51719 0.98475 0.4822 0.0
H257 H 0.50239 0.0388 0.42372 0.0
H258 H 0.38912 0.86504 0.34182 0.0
H259 H 0.48703 0.94704 0.33522 0.0
H260 H 0.4678 0.85294 0.31202 0.0
H261 H 0.54846 0.97372 0.38365 0.0
H262 H 0.53057 0.92128 0.40689 0.0
H263 H 0.47131 0.88482 0.41801 0.0
H264 H 0.48104 0.05277 0.36749 0.0
H265 H 0.46277 0.06659 0.29166 0.0
H266 H 0.46305 0.97876 0.31306 0.0
Cd267 Cd 0.56888 0.17502 0.87803 0.0
C268 C 0.64626 0.19688 0.90188 0.0
C269 C 0.47776 0.08482 0.99655 0.0
O270 O 0.48011 0.09911 0.01798 0.0
Cd271 Cd 0.62842 0.1415 0.85024 0.0
C272 C 0.4457 0.06228 0.98536 0.0
C273 C 0.3915 0.01545 0.95866 0.0
C274 C 0.42371 0.02604 0.95096 0.0
N275 N 0.44838 0.04881 0.96444 0.0
C276 C 0.41422 0.05275 0.9943 0.0
C277 C 0.38693 0.02916 0.98059 0.0
Co278 Co 0.49016 0.06056 0.95438 0.0
C279 C 0.43514 0.0156 0.92923 0.0
O280 O 0.4148 0.99525 0.91256 0.0
C281 C 0.48393 0.02766 0.90444 0.0
C282 C 0.49925 0.05449 0.88885 0.0
C283 C 0.52146 0.05647 0.8709 0.0
C284 C 0.52311 0.02787 0.86527 0.0
C285 C 0.50335 0.99802 0.8783 0.0
C286 C 0.48473 0.99879 0.89875 0.0
C287 C 0.54697 0.08998 0.86301 0.0
C288 C 0.53775 0.10791 0.99355 0.0
C289 C 0.549 0.14076 0.00038 0.0
C290 C 0.55761 0.09426 0.99884 0.0
C291 C 0.58873 0.1133 0.0091 0.0
C292 C 0.60005 0.14596 0.01526 0.0
C293 C 0.57973 0.15962 0.01197 0.0
N294 N 0.50474 0.08764 0.98436 0.0
N295 N 0.4685 0.03082 0.92642 0.0
N296 N 0.49705 0.09919 0.93573 0.0
C297 C 0.47388 0.11033 0.93345 0.0
C298 C 0.47794 0.13741 0.94706 0.0
C299 C 0.44739 0.0944 0.91719 0.0
C300 C 0.45545 0.1487 0.9446 0.0
H301 H 0.49866 0.14955 0.95952 0.0
C302 C 0.42881 0.13236 0.92825 0.0
C303 C 0.42458 0.10517 0.91444 0.0
C304 C 0.45979 0.17754 0.95892 0.0
H305 H 0.4449 0.07387 0.90644 0.0
H306 H 0.41137 0.14089 0.92622 0.0
C307 C 0.39656 0.08827 0.89705 0.0
O308 O 0.43846 0.18864 0.95605 0.0
O309 O 0.4827 0.19149 0.97337 0.0
O310 O 0.39261 0.06427 0.88539 0.0
O311 O 0.37524 0.09933 0.89393 0.0
H312 H 0.44086 0.20743 0.96517 0.0
H313 H 0.35686 0.08872 0.88266 0.0
N314 N 0.53167 0.07203 0.94413 0.0
C315 C 0.54169 0.05073 0.94944 0.0
C316 C 0.57335 0.05855 0.9421 0.0
C317 C 0.59269 0.08843 0.92916 0.0
C318 C 0.58036 0.10981 0.92401 0.0
C319 C 0.54864 0.10059 0.9321 0.0
N320 N 0.49028 0.02435 0.97153 0.0
C321 C 0.51763 0.02289 0.96476 0.0
O322 O 0.5243 1.00116 0.97429 0.0
C323 C 0.52927 0.11714 0.92784 0.0
O324 O 0.53026 0.19533 0.8633 0.0
O325 O 0.57997 0.23204 0.87174 0.0
C326 C 0.46802 1.00418 0.99068 0.0
C327 C 0.44317 0.97209 0.98514 0.0
C328 C 0.42245 0.95167 0.00396 0.0
C329 C 0.42611 0.96359 0.02817 0.0
C330 C 0.4512 0.99529 0.03423 0.0
C331 C 0.47253 0.01542 0.01537 0.0
O332 O 0.62027 0.19908 0.9022 0.0
O333 O 0.6502 0.17898 0.88605 0.0
O334 O 0.54349 0.11441 0.86934 0.0
O335 O 0.57472 0.09409 0.85638 0.0
O336 O 0.54309 0.14873 0.91952 0.0
C337 C 0.61568 0.18688 0.82205 0.0
O338 O 0.631 0.17294 0.81424 0.0
O339 O 0.60042 0.1768 0.84243 0.0
C340 C 0.55192 0.22574 0.8641 0.0
H341 H 0.37067 0.99722 0.94827 0.0
H342 H 0.41074 0.06285 0.01129 0.0
H343 H 0.36229 0.02133 0.98707 0.0
H344 H 0.49599 0.07524 0.89239 0.0
H345 H 0.53967 0.02896 0.85086 0.0
H346 H 0.4715 0.9774 0.91049 0.0
H347 H 0.5333 0.15122 0.99749 0.0
H348 H 0.54872 0.06854 0.99653 0.0
H349 H 0.62378 0.15977 0.0241 0.0
H350 H 0.58297 0.04248 0.94638 0.0
H351 H 0.6172 0.09503 0.92314 0.0
H352 H 0.59485 0.13227 0.91375 0.0
H353 H 0.44066 0.96286 0.96642 0.0
H354 H 0.41034 0.94733 0.04267 0.0
H355 H 0.49267 0.03952 0.01994 0.0
Cd356 Cd 0.84269 0.3985 0.54528 0.0
C357 C 0.82293 0.45605 0.56906 0.0
C358 C 0.93394 0.39623 0.66269 0.0
O359 O 0.91973 0.38422 0.68417 0.0
Cd360 Cd 0.87748 0.49067 0.51719 0.0
C361 C 0.95653 0.3868 0.65139 0.0
C362 C 1.00326 0.37939 0.62443 0.0
C363 C 0.99286 0.40119 0.61694 0.0
N364 N 0.97012 0.4031 0.63052 0.0
C365 C 0.96589 0.36468 0.66016 0.0
C366 C 0.98943 0.36096 0.64632 0.0
Co367 Co 0.95842 0.43316 0.62061 0.0
C368 C 1.00332 0.42311 0.59523 0.0
O369 O 0.02353 0.42303 0.57841 0.0
C370 C 0.99103 0.45964 0.57054 0.0
C371 C 0.96421 0.44766 0.55493 0.0
C372 C 0.96189 0.4677 0.53704 0.0
C373 C 0.99038 0.49803 0.53122 0.0
C374 C 0.02026 0.5087 0.5443 0.0
C375 C 0.01963 0.48959 0.56488 0.0
C376 C 0.92822 0.45969 0.52962 0.0
C377 C 0.9104 0.43275 0.65981 0.0
C378 C 0.87788 0.41075 0.66738 0.0
C379 C 0.92335 0.46634 0.66438 0.0
C380 C 0.90393 0.47801 0.67467 0.0
C381 C 0.87161 0.45623 0.6816 0.0
C382 C 0.85874 0.42228 0.67907 0.0
N383 N 0.93115 0.42047 0.65064 0.0
N384 N 0.98813 0.44126 0.59256 0.0
N385 N 0.91983 0.40157 0.60195 0.0
C386 C 0.90834 0.36717 0.59992 0.0
C387 C 0.88101 0.34448 0.61357 0.0
C388 C 0.92417 0.35618 0.58388 0.0
C389 C 0.86939 0.31063 0.61138 0.0
H390 H 0.86895 0.35339 0.62586 0.0
C391 C 0.88562 0.29988 0.59525 0.0
C392 C 0.91305 0.3225 0.58139 0.0
C393 C 0.84029 0.28649 0.62576 0.0
H394 H 0.94489 0.37396 0.57309 0.0
H395 H 0.87684 0.27385 0.59343 0.0
C396 C 0.92984 0.31092 0.56422 0.0
O397 O 0.82889 0.25397 0.62317 0.0
O398 O 0.82642 0.29583 0.64001 0.0
O399 O 0.95403 0.33067 0.55252 0.0
O400 O 0.91847 0.27845 0.56137 0.0
H401 H 0.80993 0.23781 0.63233 0.0
H402 H 0.929 0.27039 0.55025 0.0
N403 N 0.9471 0.46331 0.61044 0.0
C404 C 0.96865 0.49462 0.6155 0.0
C405 C 0.96116 0.51859 0.60795 0.0
C406 C 0.93136 0.50817 0.595 0.0
C407 C 0.90978 0.47448 0.59 0.0
C408 C 0.91871 0.45187 0.59829 0.0
N409 N 0.99474 0.46946 0.6377 0.0
C410 C 0.99637 0.49831 0.63082 0.0
O411 O 0.01806 0.52669 0.64037 0.0
C412 C 0.90214 0.41601 0.59396 0.0
O413 O 0.82056 0.34547 0.52073 0.0
O414 O 0.79054 0.34483 0.55101 0.0
C415 C 0.01424 0.46753 0.65742 0.0
C416 C 0.04723 0.47669 0.65302 0.0
C417 C 0.06764 0.47889 0.67279 0.0
C418 C 0.05443 0.47041 0.69673 0.0
C419 C 0.02173 0.46132 0.70143 0.0
C420 C 1.00177 0.46046 0.6818 0.0
O421 O 0.81868 0.42701 0.56868 0.0
O422 O 0.84188 0.47785 0.55359 0.0
O423 O 0.90368 0.43222 0.53671 0.0
O424 O 0.92427 0.48315 0.5223 0.0
O425 O 0.8706 0.3984 0.58567 0.0
C426 C 0.82647 0.43342 0.49042 0.0
O427 O 0.84195 0.46279 0.48286 0.0
O428 O 0.83661 0.42646 0.50997 0.0
C429 C 0.79373 0.32966 0.53273 0.0
H430 H 0.02142 0.37674 0.61392 0.0
H431 H 0.95567 0.35096 0.67709 0.0
H432 H 0.99712 0.344 0.65264 0.0
H433 H 0.94367 0.42351 0.55846 0.0
H434 H 0.98896 0.51373 0.51718 0.0
H435 H 0.04111 0.49756 0.57641 0.0
H436 H 0.8679 0.38458 0.66502 0.0
H437 H 0.94888 0.4836 0.66154 0.0
H438 H 0.85753 0.46588 0.69045 0.0
H439 H 0.97743 0.54429 0.61206 0.0
H440 H 0.92502 0.52618 0.5888 0.0
H441 H 0.88743 0.46658 0.57966 0.0
H442 H 0.05728 0.48365 0.63449 0.0
H443 H 0.07007 0.47196 0.71205 0.0
H444 H 0.97711 0.45543 0.68566 0.0
Cd445 Cd 0.62362 0.44939 0.21123 0.0
C446 C 0.56679 0.37072 0.23387 0.0
C447 C 0.6214 0.54043 0.32904 0.0
O448 O 0.63335 0.53814 0.35047 0.0
Cd449 Cd 0.53136 0.3901 0.18238 0.0
C450 C 0.63071 0.57244 0.31775 0.0
C451 C 0.63766 0.6264 0.29082 0.0
C452 C 0.61642 0.59415 0.28314 0.0
N453 N 0.61469 0.56962 0.29674 0.0
C454 C 0.65228 0.60397 0.32668 0.0
C455 C 0.65577 0.63113 0.31286 0.0
Co456 Co 0.58504 0.52778 0.28677 0.0
C457 C 0.59474 0.5825 0.26134 0.0
O458 O 0.59473 0.60268 0.24449 0.0
C459 C 0.55891 0.53349 0.23658 0.0
C460 C 0.57165 0.51924 0.22107 0.0
C461 C 0.55217 0.49668 0.20314 0.0
C462 C 0.5215 0.49394 0.1972 0.0
C463 C 0.50995 0.5125 0.21019 0.0
C464 C 0.52859 0.53124 0.23083 0.0
C465 C 0.56116 0.47173 0.19573 0.0
C466 C 0.58469 0.48048 0.32626 0.0
C467 C 0.60618 0.46884 0.33245 0.0
C468 C 0.55139 0.46127 0.33253 0.0
C469 C 0.53937 0.43049 0.3434 0.0
C470 C 0.56058 0.41883 0.34908 0.0
C471 C 0.59445 0.43838 0.34456 0.0
N472 N 0.59752 0.51341 0.31684 0.0
N473 N 0.57686 0.54914 0.25867 0.0
N474 N 0.61719 0.52135 0.26826 0.0
C475 C 0.65155 0.54463 0.26646 0.0
C476 C 0.67423 0.54044 0.28044 0.0
C477 C 0.66251 0.5715 0.25047 0.0
C478 C 0.70802 0.5632 0.27866 0.0
H479 H 0.66535 0.51945 0.29269 0.0
C480 C 0.71874 0.59022 0.26258 0.0
C481 C 0.69614 0.59456 0.24838 0.0
C482 C 0.73214 0.55879 0.29347 0.0
H483 H 0.64476 0.57413 0.23947 0.0
H484 H 0.74473 0.60788 0.26108 0.0
C485 C 0.70768 0.623 0.23129 0.0
O486 O 0.76462 0.58046 0.29132 0.0
O487 O 0.7228 0.53554 0.30768 0.0
O488 O 0.68793 0.62703 0.21929 0.0
O489 O 0.74013 0.64463 0.22885 0.0
H490 H 0.78076 0.57803 0.30077 0.0
H491 H 0.74817 0.66329 0.21778 0.0
N492 N 0.55539 0.48616 0.27663 0.0
C493 C 0.52401 0.47565 0.28221 0.0
C494 C 0.50052 0.44374 0.27522 0.0
C495 C 0.51147 0.42468 0.26238 0.0
C496 C 0.54522 0.43751 0.25698 0.0
C497 C 0.56736 0.46947 0.26468 0.0
N498 N 0.5484 0.52731 0.30378 0.0
C499 C 0.5198 0.49959 0.29732 0.0
O500 O 0.49129 0.49265 0.30685 0.0
C501 C 0.60327 0.48925 0.2603 0.0
O502 O 0.67758 0.48235 0.18764 0.0
O503 O 0.67691 0.4495 0.21556 0.0
C504 C 0.55034 0.54996 0.32251 0.0
C505 C 0.54441 0.57552 0.31624 0.0
C506 C 0.54644 0.59776 0.33442 0.0
C507 C 0.55453 0.59442 0.35878 0.0
C508 C 0.55931 0.56836 0.36563 0.0
C509 C 0.55688 0.54591 0.34736 0.0
O510 O 0.59527 0.39636 0.23384 0.0
O511 O 0.54482 0.36715 0.21836 0.0
O512 O 0.58906 0.47565 0.20266 0.0
O513 O 0.53818 0.44398 0.18853 0.0
O514 O 0.62143 0.47584 0.25203 0.0
C515 C 0.59012 0.40063 0.15569 0.0
O516 O 0.561 0.3858 0.14765 0.0
O517 O 0.59547 0.41651 0.17574 0.0
C518 C 0.69277 0.46969 0.19832 0.0
H519 H 0.6401 0.64713 0.28036 0.0
H520 H 0.66571 0.60756 0.34374 0.0
H521 H 0.67226 0.65581 0.31933 0.0
H522 H 0.59599 0.52346 0.22472 0.0
H523 H 0.50624 0.47662 0.18313 0.0
H524 H 0.51995 0.54425 0.24231 0.0
H525 H 0.63218 0.4841 0.32862 0.0
H526 H 0.53475 0.47046 0.33047 0.0
H527 H 0.55062 0.3954 0.35845 0.0
H528 H 0.4748 0.43373 0.27968 0.0
H529 H 0.49382 0.39996 0.25667 0.0
H530 H 0.55352 0.42314 0.2469 0.0
H531 H 0.53805 0.57789 0.29737 0.0
H532 H 0.55526 0.61126 0.37284 0.0
H533 H 0.56003 0.52541 0.35244 0.0
H534 H 0.27665 0.6599 0.06862 0.0
H535 H 0.30724 0.7125 0.04698 0.0
H536 H 0.21823 0.71721 0.03991 0.0
H537 H 0.18804 0.66558 0.06296 0.0
H538 H 0.30513 0.73508 0.00297 0.0
H539 H 0.2745 0.80275 0.07249 0.0
H540 H 0.26444 0.76082 0.07719 0.0
H541 H 0.23919 0.77017 0.05762 0.0
C542 C 0.26365 0.67218 0.0624 0.0
C543 C 0.23014 0.65904 0.06777 0.0
C544 C 0.28111 0.7022 0.04999 0.0
C545 C 0.26527 0.71935 0.04234 0.0
C546 C 0.2313 0.70515 0.04641 0.0
H547 H 0.35799 0.92337 0.99108 0.0
H548 H 0.31681 0.86464 0.99432 0.0
C549 C 0.21402 0.67555 0.05941 0.0
C550 C 0.28473 0.75247 0.03092 0.0
H551 H 0.30639 0.83293 0.03846 0.0
C552 C 0.30524 0.75644 0.01066 0.0
C553 C 0.28487 0.78044 0.04086 0.0
C554 C 0.26482 0.77848 0.06336 0.0
C555 C 0.32636 0.78757 0.00048 0.0
C556 C 0.32705 0.81551 0.01085 0.0
C557 C 0.30563 0.81143 0.0304 0.0
C558 C 0.35205 0.84951 0.00373 0.0
C559 C 0.34803 0.79027 0.97893 0.0
C560 C 0.38552 0.86034 0.00733 0.0
C561 C 0.40887 0.89363 0.00526 0.0
C562 C 0.39914 0.91663 -0.00033 0.0
C563 C 0.36596 0.90581 0.99492 0.0
C564 C 0.34253 0.87241 0.9969 0.0
H565 H 0.33715 0.7671 0.9681 0.0
H566 H 0.3523 0.81074 0.96637 0.0
H567 H 0.37215 0.79501 0.98605 0.0
H568 H 0.39339 0.84339 0.01334 0.0
H569 H 0.43429 0.9017 0.00961 0.0
H570 H 0.3417 0.59612 0.75487 0.0
H571 H 0.29487 0.58381 0.72814 0.0
H572 H 0.31144 0.51447 0.68732 0.0
H573 H 0.35699 0.52528 0.71524 0.0
H574 H 0.28342 0.58641 0.68015 0.0
H575 H 0.21959 0.45528 0.70958 0.0
H576 H 0.25723 0.48572 0.72382 0.0
H577 H 0.25797 0.46929 0.69388 0.0
C578 C 0.33551 0.57858 0.73996 0.0
C579 C 0.35249 0.56134 0.73715 0.0
C580 C 0.30881 0.57154 0.72468 0.0
C581 C 0.29899 0.54752 0.70608 0.0
C582 C 0.31774 0.5322 0.70206 0.0
H583 H 0.09968 0.45741 0.64213 0.0
H584 H 0.15886 0.47568 0.64256 0.0
C585 C 0.34389 0.53858 0.71782 0.0
C586 C 0.26779 0.53715 0.69247 0.0
H587 H 0.19001 0.47223 0.6851 0.0
C588 C 0.26315 0.56133 0.68094 0.0
C589 C 0.24129 0.5043 0.69322 0.0
C590 C 0.24404 0.47716 0.70593 0.0
C591 C 0.23242 0.55398 0.67143 0.0
C592 C 0.20554 0.52165 0.6736 0.0
C593 C 0.2107 0.49699 0.68343 0.0
C594 C 0.17114 0.51393 0.66974 0.0
C595 C 0.22874 0.58117 0.65989 0.0
C596 C 0.15857 0.52954 0.68464 0.0
C597 C 0.12513 0.51908 0.68449 0.0
C598 C 0.10343 0.49269 0.66952 0.0
C599 C 0.11604 0.47796 0.65369 0.0
C600 C 0.14971 0.48832 0.65398 0.0
H601 H 0.25225 0.6002 0.65153 0.0
H602 H 0.2094 0.57162 0.64542 0.0
H603 H 0.2218 0.59322 0.67447 0.0
H604 H 0.17437 0.54874 0.6974 0.0
H605 H 0.11595 0.53083 0.69685 0.0
H606 H 0.51606 0.83277 0.4071 0.0
H607 H 0.52909 0.79802 0.38167 0.0
H608 H 0.4261 0.72594 0.37669 0.0
H609 H 0.41268 0.76101 0.40204 0.0
H610 H 0.51344 0.73648 0.39895 0.0
H611 H 0.45966 0.72727 0.3057 0.0
H612 H 0.46712 0.75972 0.32719 0.0
H613 H 0.4324 0.71935 0.33147 0.0
C614 C 0.49604 0.8098 0.40026 0.0
C615 C 0.46334 0.79945 0.4069 0.0
C616 C 0.50356 0.79002 0.38561 0.0
C617 C 0.47862 0.75941 0.37722 0.0
C618 C 0.44573 0.74969 0.38263 0.0
H619 H 0.48526 0.5882 0.32696 0.0
H620 H 0.46843 0.62944 0.33304 0.0
C621 C 0.43811 0.76968 0.39723 0.0
C622 C 0.48772 0.73624 0.36596 0.0
H623 H 0.48158 0.69219 0.31386 0.0
C624 C 0.50665 0.727 0.38027 0.0
C625 C 0.47844 0.72356 0.34172 0.0
C626 C 0.45848 0.73309 0.32548 0.0
C627 C 0.51651 0.70539 0.37117 0.0
C628 C 0.50791 0.69317 0.34673 0.0
C629 C 0.48854 0.70197 0.33243 0.0
C630 C 0.51804 0.67024 0.33654 0.0
C631 C 0.5354 0.6952 0.38812 0.0
C632 C 0.55151 0.67984 0.33496 0.0
C633 C 0.56108 0.65632 0.33173 0.0
C634 C 0.53731 0.62301 0.32941 0.0
C635 C 0.50397 0.61386 0.32835 0.0
C636 C 0.49436 0.63736 0.33192 0.0
H637 H 0.53279 0.70011 0.40787 0.0
H638 H 0.527 0.66866 0.38605 0.0
H639 H 0.56189 0.70936 0.3833 0.0
H640 H 0.57018 0.70518 0.33811 0.0
H641 H 0.5869 0.6638 0.33284 0.0
H642 H 0.64753 0.23701 0.93952 0.0
H643 H 0.69391 0.27175 0.96673 0.0
H644 H 0.75208 0.23567 0.93169 0.0
H645 H 0.70628 0.20103 0.9045 0.0
H646 H 0.74749 0.24263 0.99316 0.0
H647 H 0.78708 0.35065 0.93076 0.0
H648 H 0.74406 0.3225 0.93661 0.0
H649 H 0.76728 0.30962 0.91817 0.0
C650 C 0.67009 0.23625 0.93772 0.0
C651 C 0.67319 0.21634 0.91966 0.0
C652 C 0.69648 0.25603 0.95333 0.0
C653 C 0.72626 0.25614 0.95114 0.0
C654 C 0.72916 0.23571 0.93369 0.0
H655 H 0.92224 0.33945 0.99314 0.0
H656 H 0.86308 0.30233 0.98902 0.0
C657 C 0.70292 0.21601 0.91811 0.0
C658 C 0.75539 0.27908 0.96572 0.0
H659 H 0.82324 0.35533 0.96248 0.0
C660 C 0.76384 0.2675 0.9868 0.0
C661 C 0.77651 0.31142 0.95731 0.0
C662 C 0.76852 0.32457 0.93448 0.0
C663 C 0.79366 0.28723 -0.00078 0.0
C664 C 0.8156 0.31903 0.99004 0.0
C665 C 0.80631 0.33105 0.96963 0.0
C666 C 0.84986 0.3388 -0.00094 0.0
C667 C 0.80177 0.2737 0.02173 0.0
C668 C 0.86207 0.37135 0.00691 0.0
C669 C 0.89594 0.39252 0.00945 0.0
C670 C 0.918 0.38152 0.00379 0.0
C671 C 0.90563 0.34832 0.99786 0.0
C672 C 0.87182 0.32711 0.99555 0.0
H673 H 0.77914 0.25432 0.0309 0.0
H674 H 0.81668 0.26253 0.01598 0.0
H675 H 0.8162 0.2934 0.03535 0.0
H676 H 0.84556 0.38092 0.00949 0.0
H677 H 0.90495 0.41815 0.01366 0.0
H678 H 0.83278 0.51706 0.57924 0.0
H679 H 0.79876 0.53135 0.6044 0.0
H680 H 0.73661 0.42957 0.6242 0.0
H681 H 0.7709 0.41488 0.59906 0.0
H682 H 0.73207 0.5053 0.59306 0.0
H683 H 0.74884 0.47894 0.69071 0.0
H684 H 0.7779 0.48471 0.66653 0.0
H685 H 0.73951 0.44692 0.66853 0.0
C686 C 0.81218 0.49764 0.58919 0.0
C687 C 0.80437 0.46472 0.58686 0.0
C688 C 0.79282 0.50594 0.60367 0.0
C689 C 0.76526 0.48159 0.61627 0.0
C690 C 0.75809 0.44883 0.61494 0.0
H691 H 0.5982 0.48984 0.67617 0.0
H692 H 0.63974 0.47348 0.66959 0.0
C693 C 0.7776 0.44045 0.60044 0.0
C694 C 0.74218 0.49038 0.62808 0.0
H695 H 0.70924 0.49528 0.68336 0.0
C696 C 0.72718 0.50318 0.61282 0.0
C697 C 0.73555 0.4872 0.65381 0.0
C698 C 0.7514 0.47391 0.67098 0.0
C699 C 0.70588 0.5131 0.62251 0.0
C700 C 0.6999 0.51086 0.64832 0.0
C701 C 0.71427 0.49737 0.66364 0.0
C702 C 0.67822 0.52211 0.65913 0.0
C703 C 0.6896 0.52557 0.60491 0.0
C704 C 0.68678 0.5552 0.65694 0.0
C705 C 0.66311 0.56448 0.66049 0.0
C706 C 0.63073 0.54087 0.66671 0.0
C707 C 0.62314 0.5085 0.67164 0.0
C708 C 0.64679 0.49913 0.6678 0.0
H709 H 0.69059 0.51844 0.58545 0.0
H710 H 0.6635 0.51605 0.61007 0.0
H711 H 0.7025 0.55278 0.60577 0.0
H712 H 0.71103 0.57335 0.6505 0.0
H713 H 0.6694 0.58955 0.65651 0.0
H714 H 0.60767 0.36589 0.26798 0.0
H715 H 0.59513 0.31887 0.29481 0.0
H716 H 0.49609 0.26753 0.26687 0.0
H717 H 0.50815 0.31401 0.24008 0.0
H718 H 0.50781 0.26662 0.32369 0.0
H719 H 0.57613 0.22778 0.2605 0.0
H720 H 0.5948 0.2704 0.26918 0.0
H721 H 0.55921 0.25257 0.24971 0.0
C722 C 0.58313 0.34473 0.2677 0.0
C723 C 0.55903 0.34367 0.25165 0.0
C724 C 0.57603 0.31795 0.28307 0.0
C725 C 0.54473 0.28981 0.28271 0.0
C726 C 0.52035 0.28912 0.26744 0.0
H727 H 0.43416 0.09099 0.32172 0.0
H728 H 0.45407 0.14977 0.31704 0.0
C729 C 0.5274 0.31572 0.25205 0.0
C730 C 0.53776 0.25995 0.29672 0.0
H731 H 0.54708 0.19264 0.29336 0.0
C732 C 0.51676 0.25062 0.31736 0.0
C733 C 0.5494 0.23918 0.28829 0.0
C734 C 0.57105 0.24769 0.26566 0.0
C735 C 0.50649 0.22052 0.32946 0.0
C736 C 0.51722 0.19923 0.32045 0.0
C737 C 0.53916 0.20918 0.30038 0.0
C738 C 0.5034 0.16507 0.32951 0.0
C739 C 0.48387 0.21141 0.35151 0.0
C740 C 0.5242 0.15424 0.3389 0.0
C741 C 0.51273 0.12065 0.3418 0.0
C742 C 0.48049 0.09749 0.33492 0.0
C743 C 0.45904 0.10846 0.32732 0.0
C744 C 0.47039 0.14201 0.3247 0.0
H745 H 0.48496 0.2334 0.36011 0.0
H746 H 0.45823 0.19473 0.34544 0.0
H747 H 0.49016 0.19835 0.36569 0.0
H748 H 0.54982 0.17165 0.3425 0.0
H749 H 0.52984 0.11275 0.34735 0.0
H750 H 0.48505 0.50828 0.16316 0.0
H751 H 0.43551 0.50919 0.15062 0.0
H752 H 0.41319 0.51555 0.22711 0.0
H753 H 0.46257 0.51455 0.23983 0.0
H754 H 0.37048 0.46966 0.15924 0.0
H755 H 0.4076 0.59179 0.19902 0.0
H756 H 0.43575 0.57641 0.19624 0.0
H757 H 0.40678 0.56324 0.22145 0.0
C758 C 0.46957 0.50962 0.17744 0.0
C759 C 0.47848 0.51167 0.20261 0.0
C760 C 0.44111 0.51029 0.17017 0.0
C761 C 0.42056 0.5132 0.18776 0.0
C762 C 0.42888 0.51435 0.21295 0.0
H763 H 0.24065 0.52769 0.17777 0.0
H764 H 0.28641 0.52055 0.19168 0.0
C765 C 0.45736 0.51374 0.22024 0.0
C766 C 0.39055 0.51484 0.17974 0.0
H767 H 0.35302 0.56132 0.18399 0.0
C768 C 0.36683 0.48981 0.16463 0.0
C769 C 0.38531 0.54104 0.18659 0.0
C770 C 0.41033 0.56982 0.2015 0.0
C771 C 0.33819 0.48996 0.15666 0.0
C772 C 0.33296 0.51613 0.16354 0.0
C773 C 0.35661 0.54109 0.17871 0.0
C774 C 0.3036 0.51851 0.15489 0.0
C775 C 0.31341 0.46157 0.14132 0.0
C776 C 0.29745 0.51972 0.1295 0.0
C777 C 0.2712 0.52383 0.12148 0.0
C778 C 0.25012 0.52684 0.13858 0.0
C779 C 0.25594 0.52507 0.16399 0.0
C780 C 0.28237 0.52118 0.172 0.0
H781 H 0.31595 0.43947 0.14367 0.0
H782 H 0.28792 0.45506 0.1463 0.0
H783 H 0.31741 0.46858 0.12146 0.0
H784 H 0.31358 0.51844 0.11577 0.0
H785 H 0.2679 0.52541 0.10179 0.0
H786 H 0.52916 0.74085 0.81059 0.0
H787 H 0.53795 0.79463 0.82449 0.0
H788 H 0.43364 0.75743 0.82207 0.0
H789 H 0.42475 0.70419 0.80799 0.0
H790 H 0.51636 0.83805 0.80007 0.0
H791 H 0.46174 0.79657 0.89345 0.0
H792 H 0.47591 0.77406 0.87496 0.0
H793 H 0.43725 0.77138 0.86819 0.0
C794 C 0.5081 0.74412 0.813 0.0
C795 C 0.47622 0.71793 0.80804 0.0
C796 C 0.51316 0.77498 0.82094 0.0
C797 C 0.48646 0.78029 0.82464 0.0
C798 C 0.45471 0.75415 0.81969 0.0
H799 H 0.45028 0.93518 0.87749 0.0
H800 H 0.44804 0.88427 0.86454 0.0
C801 C 0.44969 0.7236 0.81145 0.0
C802 C 0.4914 0.81296 0.83341 0.0
H803 H 0.47305 0.84948 0.88097 0.0
C804 C 0.50716 0.84062 0.81786 0.0
C805 C 0.47921 0.81656 0.85652 0.0
C806 C 0.46279 0.7882 0.87441 0.0
C807 C 0.51011 0.87119 0.82438 0.0
C808 C 0.49786 0.87486 0.84756 0.0
C809 C 0.48251 0.84717 0.86321 0.0
C810 C 0.49978 0.90665 0.85569 0.0
C811 C 0.52508 0.89878 0.80573 0.0
C812 C 0.52965 0.93679 0.85564 0.0
C813 C 0.53095 0.96624 0.86294 0.0
C814 C 0.50251 0.96651 0.871 0.0
C815 C 0.47282 0.9362 0.87164 0.0
C816 C 0.47149 0.90687 0.8641 0.0
H817 H 0.52375 0.88941 0.78664 0.0
H818 H 0.51258 0.91351 0.80601 0.0
H819 H 0.55139 0.91517 0.81023 0.0
H820 H 0.55222 0.93763 0.85017 0.0
H821 H 0.55445 0.98876 0.86261 0.0
H822 H 0.04211 0.53373 0.49737 0.0
H823 H 0.09367 0.58236 0.48514 0.0
H824 H 0.12134 0.60344 0.56181 0.0
H825 H 0.0699 0.55495 0.57421 0.0
H826 H 0.12105 0.64722 0.49339 0.0
H827 H 0.20239 0.60651 0.53481 0.0
H828 H 0.15869 0.57946 0.53179 0.0
H829 H 0.17487 0.60835 0.55694 0.0
C830 C 0.05896 0.54875 0.51175 0.0
C831 C 0.05151 0.53974 0.53689 0.0
C832 C 0.08872 0.57668 0.50465 0.0
C833 C 0.11223 0.59657 0.52239 0.0
C834 C 0.10445 0.58821 0.54754 0.0
H835 H 0.3063 0.77702 0.51436 0.0
H836 H 0.25307 0.73084 0.52751 0.0
C837 C 0.07473 0.56025 0.55466 0.0
C838 C 0.14455 0.62598 0.51458 0.0
H839 H 0.22832 0.66147 0.52004 0.0
C840 C 0.14444 0.65013 0.49918 0.0
C841 C 0.17548 0.63025 0.52192 0.0
C842 C 0.17801 0.60463 0.53706 0.0
C843 C 0.17389 0.67824 0.49141 0.0
C844 C 0.20473 0.68256 0.4989 0.0
C845 C 0.20489 0.65851 0.51431 0.0
C846 C 0.23699 0.71152 0.49066 0.0
C847 C 0.17176 0.70351 0.47556 0.0
C848 C 0.24623 0.71639 0.46551 0.0
C849 C 0.27689 0.74271 0.45795 0.0
C850 C 0.29921 0.76525 0.47526 0.0
C851 C 0.28976 0.76054 0.50041 0.0
C852 C 0.25927 0.73394 0.508 0.0
H853 H 0.14688 0.70076 0.47621 0.0
H854 H 0.19003 0.72875 0.48156 0.0
H855 H 0.17725 0.70055 0.45605 0.0
H856 H 0.22996 0.69938 0.45169 0.0
H857 H 0.28322 0.74524 0.43847 0.0
H858 H 0.57074 0.49616 0.78826 0.0
H859 H 0.57305 0.44748 0.80128 0.0
H860 H 0.46883 0.39622 0.81512 0.0
H861 H 0.46621 0.44479 0.80188 0.0
H862 H 0.55435 0.41453 0.84836 0.0
H863 H 0.48156 0.33026 0.77216 0.0
H864 H 0.4992 0.37424 0.76993 0.0
H865 H 0.46286 0.35031 0.78814 0.0
C866 C 0.54814 0.47446 0.79375 0.0
C867 C 0.51826 0.47475 0.79385 0.0
C868 C 0.54956 0.44655 0.80138 0.0
C869 C 0.52111 0.41774 0.80903 0.0
C870 C 0.49116 0.4178 0.80904 0.0
H871 H 0.49268 0.22356 0.85489 0.0
H872 H 0.48401 0.26913 0.84275 0.0
C873 C 0.48976 0.44587 0.80164 0.0
C874 C 0.5232 0.38829 0.81767 0.0
H875 H 0.49918 0.30813 0.80388 0.0
C876 C 0.54227 0.39129 0.83859 0.0
C877 C 0.50717 0.3576 0.80527 0.0
C878 C 0.48669 0.35274 0.78251 0.0
C879 C 0.54568 0.36482 0.84743 0.0
C880 C 0.53061 0.33437 0.83456 0.0
C881 C 0.51101 0.33121 0.81384 0.0
C882 C 0.53564 0.30606 0.84188 0.0
C883 C 0.56479 0.36974 0.871 0.0
C884 C 0.56747 0.31084 0.84508 0.0
C885 C 0.57242 0.28491 0.85235 0.0
C886 C 0.54575 0.25294 0.85619 0.0
C887 C 0.51385 0.24776 0.85227 0.0
C888 C 0.50888 0.27394 0.84525 0.0
H889 H 0.56438 0.38881 0.8829 0.0
H890 H 0.55484 0.34664 0.88184 0.0
H891 H 0.59083 0.37826 0.86631 0.0
H892 H 0.58877 0.33475 0.84178 0.0
H893 H 0.59739 0.28995 0.85472 0.0
H894 H 0.78908 0.29391 0.49072 0.0
H895 H 0.74281 0.24096 0.47742 0.0
H896 H 0.69069 0.23585 0.54451 0.0
H897 H 0.73632 0.28895 0.55752 0.0
H898 H 0.71292 0.17943 0.49501 0.0
H899 H 0.62113 0.22024 0.49531 0.0
H900 H 0.66451 0.24865 0.49863 0.0
H901 H 0.6403 0.22561 0.52493 0.0
C902 C 0.7678 0.2815 0.50269 0.0
C903 C 0.76661 0.29608 0.5252 0.0
C904 C 0.7412 0.25108 0.49503 0.0
C905 C 0.7125 0.2343 0.50957 0.0
C906 C 0.71181 0.24839 0.53242 0.0
H907 H 0.53585 0.0389 0.50268 0.0
H908 H 0.58453 0.09042 0.51521 0.0
C909 C 0.73825 0.27882 0.54 0.0
C910 C 0.68352 0.2022 0.50099 0.0
H911 H 0.60008 0.16259 0.49147 0.0
C912 C 0.68835 0.17598 0.49413 0.0
C913 C 0.65111 0.19719 0.4995 0.0
C914 C 0.64394 0.22451 0.50473 0.0
C915 C 0.66195 0.1452 0.48655 0.0
C916 C 0.62962 0.14009 0.48574 0.0
C917 C 0.62474 0.16625 0.4923 0.0
C918 C 0.60063 0.10787 0.47794 0.0
C919 C 0.66856 0.11799 0.47967 0.0
C920 C 0.59327 0.1001 0.45276 0.0
C921 C 0.56529 0.07057 0.44548 0.0
C922 C 0.54383 0.04777 0.46318 0.0
C923 C 0.55173 0.05545 0.48842 0.0
C924 C 0.57957 0.08511 0.49567 0.0
H925 H 0.69472 0.12508 0.48237 0.0
H926 H 0.65287 0.09584 0.49101 0.0
H927 H 0.66199 0.11123 0.45996 0.0
H928 H 0.60904 0.11711 0.43867 0.0
H929 H 0.56056 0.06562 0.42589 0.0
H930 H 0.95496 0.49752 0.08942 0.0
H931 H 0.90396 0.49512 0.1027 0.0
H932 H 0.93558 0.50599 0.17868 0.0
H933 H 0.98689 0.50917 0.16544 0.0
H934 H 0.85418 0.45364 0.1294 0.0
H935 H 0.90702 0.57201 0.17903 0.0
H936 H 0.93184 0.5613 0.16005 0.0
H937 H 0.92155 0.54623 0.19136 0.0
C938 C 0.95123 0.49956 0.10898 0.0
C939 C 0.9755 0.50369 0.12627 0.0
C940 C 0.92185 0.49822 0.11661 0.0
C941 C 0.91556 0.50092 0.1418 0.0
C942 C 0.93975 0.5049 0.15908 0.0
H943 H 0.73085 0.44666 0.21912 0.0
H944 H 0.78417 0.45495 0.20511 0.0
C945 C 0.96929 0.5066 0.15144 0.0
C946 C 0.88336 0.49826 0.14993 0.0
H947 H 0.84978 0.53467 0.18565 0.0
C948 C 0.85346 0.4716 0.14157 0.0
C949 C 0.88169 0.5216 0.16575 0.0
C950 C 0.91223 0.55206 0.17436 0.0
C951 C 0.82261 0.46732 0.14891 0.0
C952 C 0.82106 0.4901 0.1652 0.0
C953 C 0.85075 0.51698 0.17333 0.0
C954 C 0.78876 0.486 0.17409 0.0
C955 C 0.79157 0.43832 0.1393 0.0
C956 C 0.77329 0.50084 0.16154 0.0
C957 C 0.74261 0.49617 0.16957 0.0
C958 C 0.72647 0.47652 0.19042 0.0
C959 C 0.74231 0.46202 0.20306 0.0
C960 C 0.77293 0.46671 0.19504 0.0
H961 H 0.79664 0.42318 0.12619 0.0
H962 H 0.77689 0.42263 0.15505 0.0
H963 H 0.77639 0.44701 0.12977 0.0
H964 H 0.78481 0.51579 0.14531 0.0
H965 H 0.7313 0.50761 0.1592 0.0
H966 H 0.99373 0.40377 0.72714 0.0
H967 H 0.98619 0.39708 0.7723 0.0
H968 H 0.02009 0.50055 0.77947 0.0
H969 H 0.02703 0.50695 0.73445 0.0
H970 H 0.03563 0.42677 0.806 0.0
H971 H 0.94164 0.46189 0.82544 0.0
H972 H 0.94896 0.45187 0.7947 0.0
H973 H 0.97527 0.4921 0.80736 0.0
C974 C 0.99841 0.42473 0.73839 0.0
C975 C 1.01026 0.45572 0.72744 0.0
C976 C 0.9944 0.42101 0.76415 0.0
C977 C 1.00221 0.44824 0.77936 0.0
C978 C 0.01309 0.47901 0.76821 0.0
H979 H 0.02067 0.48927 0.93756 0.0
H980 H 0.02514 0.49296 0.89228 0.0
C981 C 0.01704 0.48269 0.74249 0.0
C982 C 1.00196 0.44525 0.80688 0.0
H983 H 0.97278 0.46105 0.86006 0.0
C984 C 0.02164 0.43398 0.81781 0.0
C985 C 0.98386 0.4548 0.82237 0.0
C986 C 0.96099 0.46553 0.81188 0.0
C987 C 0.02439 0.43283 0.8437 0.0
C988 C 1.00663 0.4428 0.85918 0.0
C989 C 0.9867 0.45375 0.84825 0.0
C990 C 1.00752 0.44121 0.88673 0.0
C991 C 0.04697 0.42172 0.85419 0.0
C992 C 0.99684 0.41107 0.89878 0.0
C993 C 0.99461 0.40898 0.92463 0.0
C994 C 1.00264 0.43692 0.93909 0.0
C995 C 0.01464 0.46736 0.92706 0.0
C996 C 0.01689 0.46943 0.90114 0.0
H997 H 0.06567 0.4242 0.84042 0.0
H998 H 0.05979 0.43599 0.87097 0.0
H999 H 0.03227 0.39543 0.85944 0.0
H1000 H 0.98899 0.38885 0.88817 0.0
H1001 H 0.98546 0.38519 0.93329 0.0
H1002 H 0.60412 0.61417 0.39705 0.0
H1003 H 0.60604 0.61087 0.44218 0.0
H1004 H 0.52623 0.51068 0.4399 0.0
H1005 H 0.52493 0.51371 0.39461 0.0
H1006 H 0.55932 0.60288 0.47341 0.0
H1007 H 0.58508 0.50147 0.48868 0.0
H1008 H 0.58984 0.5205 0.45879 0.0
H1009 H 0.54984 0.48957 0.46944 0.0
C1010 C 0.58753 0.59118 0.40617 0.0
C1011 C 0.56444 0.56415 0.39229 0.0
C1012 C 0.58852 0.58935 0.43199 0.0
C1013 C 0.56639 0.56049 0.44463 0.0
C1014 C 0.54409 0.53302 0.4307 0.0
H1015 H 0.51833 0.51832 0.60239 0.0
H1016 H 0.51484 0.51951 0.55696 0.0
C1017 C 0.54333 0.53474 0.40477 0.0
C1018 C 0.56509 0.56021 0.47231 0.0
H1019 H 0.56768 0.51932 0.52395 0.0
C1020 C 0.56131 0.58465 0.4844 0.0
C1021 C 0.56763 0.53646 0.48684 0.0
C1022 C 0.57366 0.51073 0.4753 0.0
C1023 C 0.55981 0.58585 0.51037 0.0
C1024 C 0.56204 0.56197 0.52479 0.0
C1025 C 0.56559 0.53741 0.51283 0.0
C1026 C 0.56245 0.56306 0.55234 0.0
C1027 C 0.55565 0.61253 0.52232 0.0
C1028 C 0.59004 0.5875 0.56481 0.0
C1029 C 0.5921 0.58678 0.59064 0.0
C1030 C 0.5665 0.56173 0.60456 0.0
C1031 C 0.53819 0.53815 0.59216 0.0
C1032 C 0.53632 0.53865 0.56623 0.0
H1033 H 0.54832 0.62541 0.50872 0.0
H1034 H 0.53691 0.60218 0.53727 0.0
H1035 H 0.57927 0.63087 0.53082 0.0
H1036 H 0.61057 0.60644 0.55448 0.0
H1037 H 0.61426 0.60515 0.59971 0.0
H1038 H 0.50101 0.0077 0.2706 0.0
H1039 H 0.50111 1.00498 0.22517 0.0
H1040 H 0.4127 0.01129 0.2229 0.0
H1041 H 0.41325 0.01513 0.26814 0.0
H1042 H 0.46051 0.96587 0.18964 0.0
H1043 H 0.47211 0.08851 0.18046 0.0
H1044 H 0.47603 0.07255 0.20984 0.0
H1045 H 0.43602 0.06032 0.19737 0.0
C1046 C 0.48126 0.00781 0.26037 0.0
C1047 C 0.45721 0.01178 0.27284 0.0
C1048 C 0.48144 1.0065 0.2344 0.0
C1049 C 0.45753 0.00904 0.22047 0.0
C1050 C 0.43211 0.01049 0.23309 0.0
H1051 H 0.4053 0.99327 0.06617 0.0
H1052 H 0.40959 0.99961 0.1113 0.0
C1053 C 0.43216 0.01223 0.25896 0.0
C1054 C 0.45957 0.01102 0.19285 0.0
H1055 H 0.46063 0.05711 0.14333 0.0
C1056 C 0.46085 0.98599 0.17957 0.0
C1057 C 0.46032 0.03745 0.17956 0.0
C1058 C 0.4614 0.0664 0.19254 0.0
C1059 C 0.46177 0.98613 0.1535 0.0
C1060 C 0.46156 0.01202 0.14031 0.0
C1061 C 0.46074 0.03727 0.1535 0.0
C1062 C 0.46055 0.01225 0.11278 0.0
C1063 C 0.46211 0.95816 0.14011 0.0
C1064 C 0.48816 0.01852 0.09855 0.0
C1065 C 0.48588 0.01532 0.07268 0.0
C1066 C 0.45583 1.00545 0.06069 0.0
C1067 C 0.42873 1.00082 0.07493 0.0
C1068 C 0.43113 1.00438 0.10069 0.0
H1069 H 0.4583 0.93803 0.15289 0.0
H1070 H 0.44269 0.94805 0.12571 0.0
H1071 H 0.48613 0.9674 0.13065 0.0
H1072 H 0.51117 0.02487 0.10753 0.0
H1073 H 0.50705 0.01877 0.06221 0.0
H1074 H 0.21058 0.63312 0.98058 0.0
H1075 H 0.26198 0.6517 0.95764 0.0
H1076 H 0.23583 0.55102 0.94498 0.0
H1077 H 0.18406 0.53221 0.96675 0.0
H1078 H 0.31609 0.63895 0.9613 0.0
H1079 H 0.2446 0.59028 0.87492 0.0
H1080 H 0.22691 0.59597 0.90289 0.0
H1081 H 0.23087 0.56008 0.89911 0.0
C1082 C 0.21587 0.61492 0.97303 0.0
C1083 C 0.19286 0.58113 0.97519 0.0
C1084 C 0.24532 0.62562 0.96007 0.0
C1085 C 0.25222 0.60271 0.94914 0.0
C1086 C 0.23058 0.56908 0.9529 0.0
H1087 H 0.38876 0.56667 0.89069 0.0
H1088 H 0.36192 0.58791 0.91762 0.0
C1089 C 0.20113 0.55836 0.96567 0.0
C1090 C 0.28078 0.61337 0.93245 0.0
H1091 H 0.29987 0.59993 0.87434 0.0
C1092 C 0.31269 0.63102 0.94214 0.0
C1093 C 0.27635 0.60394 0.90725 0.0
C1094 C 0.24284 0.58683 0.89534 0.0
C1095 C 0.34006 0.63674 0.92781 0.0
C1096 C 0.33515 0.62426 0.90345 0.0
C1097 C 0.3036 0.60934 0.89311 0.0
C1098 C 0.36046 0.6205 0.88998 0.0
C1099 C 0.37387 0.6549 0.93905 0.0
C1100 C 0.3698 0.63285 0.86583 0.0
C1101 C 0.38568 0.62107 0.85053 0.0
C1102 C 0.39144 0.59615 0.85904 0.0
C1103 C 0.38447 0.58583 0.88377 0.0
C1104 C 0.36937 0.59815 0.8992 0.0
H1105 H 0.37508 0.67169 0.95401 0.0
H1106 H 0.3799 0.63692 0.94723 0.0
H1107 H 0.39271 0.66936 0.92479 0.0
H1108 H 0.36275 0.64978 0.8583 0.0
H1109 H 0.39062 0.6292 0.83143 0.0
H1110 H 0.40059 0.81252 0.54476 0.0
H1111 H 0.37966 0.76616 0.57394 0.0
H1112 H 0.41389 0.7167 0.52532 0.0
H1113 H 0.43365 0.76231 0.49602 0.0
H1114 H 0.35986 0.67276 0.55257 0.0
H1115 H 0.45607 0.77018 0.61193 0.0
H1116 H 0.42234 0.77589 0.60346 0.0
H1117 H 0.45037 0.77745 0.58008 0.0
C1118 C 0.40218 0.791 0.53994 0.0
C1119 C 0.4187 0.79071 0.5184 0.0
C1120 C 0.39052 0.76471 0.55663 0.0
C1121 C 0.39611 0.73845 0.55211 0.0
C1122 C 0.40945 0.73674 0.52926 0.0
H1123 H 0.47743 0.64474 0.6297 0.0
H1124 H 0.46089 0.67941 0.6079 0.0
C1125 C 0.42075 0.76277 0.51254 0.0
C1126 C 0.39421 0.71621 0.57233 0.0
H1127 H 0.43451 0.71608 0.62484 0.0
C1128 C 0.37559 0.68211 0.5687 0.0
C1129 C 0.41525 0.72859 0.59314 0.0
C1130 C 0.43737 0.76498 0.59742 0.0
C1131 C 0.37876 0.66015 0.58459 0.0
C1132 C 0.40063 0.6727 0.60488 0.0
C1133 C 0.41768 0.7066 0.60932 0.0
C1134 C 0.41002 0.652 0.61955 0.0
C1135 C 0.36047 0.62398 0.57855 0.0
C1136 C 0.38705 0.62543 0.63387 0.0
C1137 C 0.39654 0.60549 0.64651 0.0
C1138 C 0.42921 0.61203 0.64519 0.0
C1139 C 0.45226 0.63934 0.63151 0.0
C1140 C 0.44276 0.65906 0.61885 0.0
H1141 H 0.34877 0.61899 0.56 0.0
H1142 H 0.37732 0.61385 0.57912 0.0
H1143 H 0.3409 0.61071 0.59256 0.0
H1144 H 0.36181 0.61996 0.63508 0.0
H1145 H 0.37828 0.58475 0.65708 0.0
H1146 H 0.25325 0.62088 0.172 0.0
H1147 H 0.2927 0.64509 0.20618 0.0
H1148 H 0.241 0.69332 0.23263 0.0
H1149 H 0.2018 0.66946 0.19896 0.0
H1150 H 0.33294 0.71279 0.21445 0.0
H1151 H 0.25419 0.65388 0.29604 0.0
H1152 H 0.24295 0.63694 0.26521 0.0
H1153 H 0.23545 0.66921 0.27506 0.0
C1154 C 0.25003 0.63622 0.18536 0.0
C1155 C 0.22437 0.64324 0.18276 0.0
C1156 C 0.27256 0.65 0.20484 0.0
C1157 C 0.26937 0.67047 0.2222 0.0
C1158 C 0.24345 0.67694 0.21983 0.0
H1159 H 0.36444 0.83442 0.30649 0.0
H1160 H 0.32841 0.78314 0.28544 0.0
C1161 C 0.2212 0.66348 0.20038 0.0
C1162 C 0.29455 0.68798 0.24149 0.0
H1163 H 0.30137 0.70858 0.30269 0.0
C1164 C 0.32646 0.71115 0.23389 0.0
C1165 C 0.28605 0.6857 0.26685 0.0
C1166 C 0.25286 0.65981 0.27631 0.0
C1167 C 0.3491 0.73409 0.25064 0.0
C1168 C 0.3395 0.73364 0.27552 0.0
C1169 C 0.30854 0.70889 0.28354 0.0
C1170 C 0.35911 0.76179 0.29203 0.0
C1171 C 0.38221 0.76036 0.24132 0.0
C1172 C 0.38775 0.76617 0.30351 0.0
C1173 C 0.40834 0.79544 0.31608 0.0
C1174 C 0.40074 0.82089 0.31706 0.0
C1175 C 0.37101 0.8154 0.30658 0.0
C1176 C 0.3504 0.78612 0.29431 0.0
H1177 H 0.38607 0.75709 0.22146 0.0
H1178 H 0.38456 0.78489 0.24376 0.0
H1179 H 0.40196 0.76001 0.25232 0.0
H1180 H 0.39472 0.74749 0.302 0.0
H1181 H 0.4307 0.79852 0.32431 0.0
H1182 H 0.61227 0.36128 0.17211 0.0
H1183 H 0.62904 0.33095 0.14485 0.0
H1184 H 0.63839 0.39498 0.08426 0.0
H1185 H 0.61952 0.42391 0.11132 0.0
H1186 H 0.59198 0.33597 0.07553 0.0
H1187 H 0.69872 0.32618 0.10613 0.0
H1188 H 0.67073 0.31795 0.13128 0.0
H1189 H 0.69129 0.35813 0.11725 0.0
C1190 C 0.61978 0.37001 0.15334 0.0
C1191 C 0.61466 0.39477 0.14368 0.0
C1192 C 0.62945 0.35266 0.13769 0.0
C1193 C 0.63477 0.36045 0.11235 0.0
C1194 C 0.63425 0.38839 0.10369 0.0
H1195 H 0.63887 0.21707 0.00938 0.0
H1196 H 0.65503 0.26827 0.03197 0.0
C1197 C 0.62373 0.40513 0.11917 0.0
C1198 C 0.63212 0.33532 0.09436 0.0
H1199 H 0.65732 0.28004 0.08218 0.0
C1200 C 0.60693 0.32439 0.07666 0.0
C1201 C 0.6513 0.31987 0.0958 0.0
C1202 C 0.67973 0.33141 0.11351 0.0
C1203 C 0.59957 0.29786 0.06106 0.0
C1204 C 0.61728 0.28103 0.06356 0.0
C1205 C 0.64347 0.29273 0.08046 0.0
C1206 C 0.60772 0.25036 0.04964 0.0
C1207 C 0.57247 0.2879 0.04226 0.0
C1208 C 0.57584 0.22337 0.05212 0.0
C1209 C 0.56645 0.19446 0.03899 0.0
C1210 C 0.58896 0.19171 0.02347 0.0
C1211 C 0.62099 0.21864 0.02112 0.0
C1212 C 0.63028 0.24777 0.03408 0.0
H1213 H 0.56914 0.30894 0.03714 0.0
H1214 H 0.57754 0.27807 0.02516 0.0
H1215 H 0.54899 0.26856 0.05037 0.0
H1216 H 0.55829 0.22447 0.06452 0.0
H1217 H 0.5419 0.17382 0.04169 0.0
H1218 H 0.65206 0.24843 0.83959 0.0
H1219 H 0.68395 0.29616 0.8131 0.0
H1220 H 0.62608 0.24142 0.75013 0.0
H1221 H 0.5957 0.19309 0.77645 0.0
H1222 H 0.68665 0.25562 0.74498 0.0
H1223 H 0.68954 0.37014 0.77274 0.0
H1224 H 0.69626 0.35035 0.79861 0.0
H1225 H 0.6574 0.33016 0.78275 0.0
C1226 C 0.64495 0.24728 0.82037 0.0
C1227 C 0.62159 0.21725 0.80993 0.0
C1228 C 0.66322 0.27465 0.80517 0.0
C1229 C 0.6577 0.27239 0.77948 0.0
C1230 C 0.63095 0.24371 0.76985 0.0
H1231 H 0.79985 0.42115 0.67665 0.0
H1232 H 0.7494 0.38525 0.69995 0.0
C1233 C 0.61335 0.21615 0.7849 0.0
C1234 C 0.68401 0.29551 0.76241 0.0
H1235 H 0.7369 0.37655 0.74989 0.0
C1236 C 0.69707 0.28204 0.74575 0.0
C1237 C 0.69799 0.33002 0.76347 0.0
C1238 C 0.68434 0.34598 0.78021 0.0
C1239 C 0.72398 0.30188 0.73058 0.0
C1240 C 0.73907 0.33641 0.7325 0.0
C1241 C 0.72551 0.35006 0.74857 0.0
C1242 C 0.76954 0.35846 0.71852 0.0
C1243 C 0.73596 0.28545 0.7127 0.0
C1244 C 0.79761 0.35544 0.72133 0.0
C1245 C 0.82605 0.37534 0.70772 0.0
C1246 C 0.8273 0.39921 0.69142 0.0
C1247 C 0.79941 0.40271 0.68893 0.0
C1248 C 0.77072 0.3824 0.70232 0.0
H1249 H 0.71605 0.26037 0.70779 0.0
H1250 H 0.74563 0.29993 0.69539 0.0
H1251 H 0.75594 0.28302 0.72153 0.0
H1252 H 0.79764 0.33783 0.73424 0.0
H1253 H 0.84747 0.37275 0.71054 0.0
H1254 H 0.65193 0.47733 0.36876 0.0
H1255 H 0.68653 0.46058 0.39057 0.0
H1256 H 0.62322 0.3604 0.36752 0.0
H1257 H 0.58834 0.37706 0.34538 0.0
H1258 H 0.63777 0.36626 0.41813 0.0
H1259 H 0.75108 0.43502 0.36257 0.0
H1260 H 0.73558 0.46097 0.37284 0.0
H1261 H 0.71161 0.42768 0.35187 0.0
C1262 C 0.64578 0.45188 0.36773 0.0
C1263 C 0.61751 0.4286 0.35513 0.0
C1264 C 0.66552 0.4423 0.38033 0.0
C1265 C 0.65766 0.4093 0.38044 0.0
C1266 C 0.62975 0.386 0.36761 0.0
H1267 H 0.81765 0.39778 0.44868 0.0
H1268 H 0.76981 0.37741 0.42137 0.0
C1269 C 0.6099 0.39557 0.35498 0.0
C1270 C 0.67814 0.3994 0.39483 0.0
H1271 H 0.75792 0.42044 0.4039 0.0
C1272 C 0.66397 0.37751 0.41478 0.0
C1273 C 0.71212 0.41346 0.39013 0.0
C1274 C 0.72842 0.43531 0.36802 0.0
C1275 C 0.68338 0.37119 0.43119 0.0
C1276 C 0.71787 0.38769 0.42774 0.0
C1277 C 0.73154 0.40776 0.40676 0.0
C1278 C 0.74096 0.38838 0.44687 0.0
C1279 C 0.66672 0.34741 0.45222 0.0
C1280 C 0.73981 0.39909 0.47096 0.0
C1281 C 0.76674 0.40974 0.48676 0.0
C1282 C 0.79536 0.41038 0.47855 0.0
C1283 C 0.79553 0.39694 0.45546 0.0
C1284 C 0.7683 0.38557 0.43983 0.0
H1285 H 0.64191 0.32756 0.44663 0.0
H1286 H 0.68128 0.33612 0.45856 0.0
H1287 H 0.66341 0.3606 0.468 0.0
H1288 H 0.7196 0.4024 0.47675 0.0
H1289 H 0.76648 0.42073 0.50434 0.0
loop_
_geom_bond_atom_site_label_1
_geom_bond_atom_site_label_2
_geom_bond_distance
_geom_bond_site_symmetry_2
_ccdc_geom_bond_type
Cd0 O57 2.350 . S
Cd0 O58 2.277 . S
Cd0 O65 2.173 . S
Cd0 O67 2.263 . S
Cd0 O69 2.366 . S
Cd0 O72 2.329 . S
C1 O65 1.277 . S
C1 O66 1.230 . S
C2 O3 1.246 . S
C2 C5 1.481 1_556 S
C2 N27 1.329 1_556 S
O3 C2 1.246 . S
Cd4 O66 2.250 . S
Cd4 O68 2.308 . S
Cd4 O71 2.352 . S
C5 C2 1.481 1_554 S
C5 N8 1.327 . S
C5 C9 1.407 . S
C6 C7 1.346 . S
C6 C10 1.390 . S
C6 H74 0.930 . S
C7 C6 1.346 . S
C7 N8 1.342 . S
C7 C12 1.516 . S
N8 C5 1.327 . S
N8 C7 1.342 . S
N8 Co11 1.864 . S
C9 C5 1.407 . S
C9 C10 1.364 . S
C9 H75 0.930 . S
C10 C6 1.390 . S
C10 C9 1.364 . S
C10 H76 0.931 . S
Co11 N8 1.864 . S
Co11 N27 1.955 . S
Co11 N28 1.958 . S
Co11 N29 1.953 . S
Co11 N47 1.869 . S
Co11 N53 1.974 . S
C12 C7 1.516 . S
C12 O13 1.238 . S
C12 N28 1.324 . S
O13 C12 1.238 . S
C14 C15 1.394 . S
C14 C19 1.395 . S
C14 N28 1.427 . S
C15 C14 1.394 . S
C15 C16 1.380 . S
C15 H77 0.929 . S
C16 C15 1.380 . S
C16 C17 1.384 . S
C16 C20 1.495 . S
C17 C16 1.384 . S
C17 C18 1.382 . S
C17 H78 0.930 . S
C18 C17 1.382 . S
C18 C19 1.398 . S
C19 C14 1.395 . S
C19 C18 1.398 . S
C19 H79 0.930 . S
C20 C16 1.495 . S
C20 O67 1.258 . S
C20 O68 1.274 . S
C21 C22 1.385 . S
C21 C23 1.381 . S
C21 N27 1.432 1_556 S
C22 C21 1.385 . S
C22 C26 1.388 . S
C22 H80 0.929 . S
C23 C21 1.381 . S
C23 C24 1.371 . S
C23 H81 0.932 . S
C24 C23 1.371 . S
C24 C25 1.400 . S
C25 C24 1.400 . S
C25 C26 1.351 . S
C25 H82 0.930 . S
C26 C22 1.388 . S
C26 C25 1.351 . S
N27 C2 1.329 1_554 S
N27 Co11 1.955 . S
N27 C21 1.432 1_554 S
N28 Co11 1.958 . S
N28 C12 1.324 . S
N28 C14 1.427 . S
N29 Co11 1.953 . S
N29 C30 1.436 . S
N29 C56 1.316 . S
C30 N29 1.436 . S
C30 C31 1.421 . S
C30 C32 1.360 . S
C31 C30 1.421 . S
C31 C33 1.379 . S
C31 H34 0.929 . S
C32 C30 1.360 . S
C32 C36 1.393 . S
C32 H38 0.931 . S
C33 C31 1.379 . S
C33 C35 1.417 . S
C33 C37 1.505 . S
H34 C31 0.929 . S
C35 C33 1.417 . S
C35 C36 1.352 . S
C35 H39 0.929 . S
C36 C32 1.393 . S
C36 C35 1.352 . S
C36 C40 1.482 . S
C37 C33 1.505 . S
C37 O41 1.259 . S
C37 O42 1.229 . S
H38 C32 0.931 . S
H39 C35 0.929 . S
C40 C36 1.482 . S
C40 O43 1.207 . S
C40 O44 1.289 . S
O41 C37 1.259 . S
O41 H45 0.822 . S
O42 C37 1.229 . S
O43 C40 1.207 . S
O44 C40 1.289 . S
O44 H46 0.819 . S
H45 O41 0.822 . S
H46 O44 0.819 . S
N47 Co11 1.869 . S
N47 C48 1.330 . S
N47 C52 1.325 . S
C48 N47 1.330 . S
C48 C49 1.359 . S
C48 C54 1.504 . S
C49 C48 1.359 . S
C49 C50 1.366 . S
C49 H83 0.929 . S
C50 C49 1.366 . S
C50 C51 1.415 . S
C50 H84 0.932 . S
C51 C50 1.415 . S
C51 C52 1.366 . S
C51 H85 0.931 . S
C52 N47 1.325 . S
C52 C51 1.366 . S
C52 C56 1.516 . S
N53 Co11 1.974 . S
N53 C54 1.309 . S
N53 C59 1.416 1_554 S
C54 C48 1.504 . S
C54 N53 1.309 . S
C54 O55 1.258 1_554 S
O55 C54 1.258 1_556 S
C56 N29 1.316 . S
C56 C52 1.516 . S
C56 O69 1.263 . S
O57 Cd0 2.350 . S
O57 C73 1.270 . S
O58 Cd0 2.277 . S
O58 C73 1.248 . S
C59 N53 1.416 1_556 S
C59 C60 1.360 1_556 S
C59 C64 1.422 . S
C60 C59 1.360 1_554 S
C60 C61 1.389 1_455 S
C60 H86 0.931 . S
C61 C60 1.389 1_655 S
C61 C62 1.389 1_554 S
C62 C61 1.389 1_556 S
C62 C63 1.379 1_655 S
C62 H87 0.929 . S
C63 C62 1.379 1_455 S
C63 C64 1.405 . S
C64 C59 1.422 . S
C64 C63 1.405 . S
C64 H88 0.932 . S
O65 Cd0 2.173 . S
O65 C1 1.277 . S
O66 C1 1.230 . S
O66 Cd4 2.250 . S
O67 Cd0 2.263 . S
O67 C20 1.258 . S
O68 Cd4 2.308 . S
O68 C20 1.274 . S
O69 Cd0 2.366 . S
O69 C56 1.263 . S
C70 O71 1.235 . S
C70 O72 1.270 . S
O71 Cd4 2.352 . S
O71 C70 1.235 . S
O72 Cd0 2.329 . S
O72 C70 1.270 . S
C73 O57 1.270 . S
C73 O58 1.248 . S
H74 C6 0.930 . S
H75 C9 0.930 . S
H76 C10 0.931 . S
H77 C15 0.929 . S
H78 C17 0.930 . S
H79 C19 0.930 . S
H80 C22 0.929 . S
H81 C23 0.932 . S
H82 C25 0.930 . S
H83 C49 0.929 . S
H84 C50 0.932 . S
H85 C51 0.931 . S
H86 C60 0.931 . S
H87 C62 0.929 . S
H88 C64 0.932 . S
Cd89 O146 2.350 . S
Cd89 O147 2.277 . S
Cd89 O154 2.173 . S
Cd89 O156 2.263 . S
Cd89 O158 2.366 . S
Cd89 O161 2.329 . S
C90 O154 1.277 . S
C90 O155 1.230 . S
C91 O92 1.246 . S
C91 C94 1.481 . S
C91 N116 1.329 . S
O92 C91 1.246 . S
Cd93 O155 2.250 . S
Cd93 O157 2.308 . S
Cd93 O160 2.352 . S
C94 C91 1.481 . S
C94 N97 1.327 . S
C94 C98 1.407 . S
C95 C96 1.346 . S
C95 C99 1.390 . S
C95 H163 0.930 . S
C96 C95 1.346 . S
C96 N97 1.342 . S
C96 C101 1.516 . S
N97 C94 1.327 . S
N97 C96 1.342 . S
N97 Co100 1.864 . S
C98 C94 1.407 . S
C98 C99 1.364 . S
C98 H164 0.930 . S
C99 C95 1.390 . S
C99 C98 1.364 . S
C99 H165 0.931 . S
Co100 N97 1.864 . S
Co100 N116 1.955 . S
Co100 N117 1.958 . S
Co100 N118 1.953 . S
Co100 N136 1.869 . S
Co100 N142 1.974 . S
C101 C96 1.516 . S
C101 O102 1.238 . S
C101 N117 1.324 . S
O102 C101 1.238 . S
C103 C104 1.394 . S
C103 C108 1.395 . S
C103 N117 1.427 . S
C104 C103 1.394 . S
C104 C105 1.380 . S
C104 H166 0.929 . S
C105 C104 1.380 . S
C105 C106 1.384 . S
C105 C109 1.495 . S
C106 C105 1.384 . S
C106 C107 1.382 . S
C106 H167 0.930 . S
C107 C106 1.382 . S
C107 C108 1.398 . S
C108 C103 1.395 . S
C108 C107 1.398 . S
C108 H168 0.930 . S
C109 C105 1.495 . S
C109 O156 1.258 . S
C109 O157 1.274 . S
C110 C111 1.385 . S
C110 C112 1.381 . S
C110 N116 1.432 . S
C111 C110 1.385 . S
C111 C115 1.388 . S
C111 H169 0.929 . S
C112 C110 1.381 . S
C112 C113 1.371 . S
C112 H170 0.932 . S
C113 C112 1.371 . S
C113 C114 1.400 . S
C114 C113 1.400 . S
C114 C115 1.351 . S
C114 H171 0.930 . S
C115 C111 1.388 . S
C115 C114 1.351 . S
N116 C91 1.329 . S
N116 Co100 1.955 . S
N116 C110 1.432 . S
N117 Co100 1.958 . S
N117 C101 1.324 . S
N117 C103 1.427 . S
N118 Co100 1.953 . S
N118 C119 1.436 . S
N118 C145 1.316 . S
C119 N118 1.436 . S
C119 C120 1.421 . S
C119 C121 1.360 . S
C120 C119 1.421 . S
C120 C122 1.379 . S
C120 H123 0.929 . S
C121 C119 1.360 . S
C121 C125 1.393 . S
C121 H127 0.931 . S
C122 C120 1.379 . S
C122 C124 1.417 . S
C122 C126 1.505 . S
H123 C120 0.929 . S
C124 C122 1.417 . S
C124 C125 1.352 . S
C124 H128 0.929 . S
C125 C121 1.393 . S
C125 C124 1.352 . S
C125 C129 1.482 . S
C126 C122 1.505 . S
C126 O130 1.259 . S
C126 O131 1.229 . S
H127 C121 0.931 . S
H128 C124 0.929 . S
C129 C125 1.482 . S
C129 O132 1.207 . S
C129 O133 1.289 . S
O130 C126 1.259 . S
O130 H134 0.822 . S
O131 C126 1.229 . S
O132 C129 1.207 . S
O133 C129 1.289 . S
O133 H135 0.819 . S
H134 O130 0.822 . S
H135 O133 0.819 . S
N136 Co100 1.869 . S
N136 C137 1.330 . S
N136 C141 1.325 . S
C137 N136 1.330 . S
C137 C138 1.359 . S
C137 C143 1.504 . S
C138 C137 1.359 . S
C138 C139 1.366 . S
C138 H172 0.929 . S
C139 C138 1.366 . S
C139 C140 1.415 . S
C139 H173 0.932 . S
C140 C139 1.415 . S
C140 C141 1.366 . S
C140 H174 0.931 . S
C141 N136 1.325 . S
C141 C140 1.366 . S
C141 C145 1.516 . S
N142 Co100 1.974 . S
N142 C143 1.309 . S
N142 C148 1.423 . S
C143 C137 1.504 . S
C143 N142 1.309 . S
C143 O144 1.258 . S
O144 C143 1.258 . S
C145 N118 1.316 . S
C145 C141 1.516 . S
C145 O158 1.263 . S
O146 Cd89 2.350 . S
O146 C162 1.270 . S
O147 Cd89 2.277 . S
O147 C162 1.248 . S
C148 N142 1.423 . S
C148 C149 1.370 . S
C148 C153 1.403 . S
C149 C148 1.370 . S
C149 C150 1.389 . S
C149 H175 0.931 . S
C150 C149 1.389 . S
C150 C151 1.389 . S
C151 C150 1.389 . S
C151 C152 1.379 . S
C151 H176 0.929 . S
C152 C151 1.379 . S
C152 C153 1.405 . S
C153 C148 1.403 . S
C153 C152 1.405 . S
C153 H177 0.932 . S
O154 Cd89 2.173 . S
O154 C90 1.277 . S
O155 C90 1.230 . S
O155 Cd93 2.250 . S
O156 Cd89 2.263 . S
O156 C109 1.258 . S
O157 Cd93 2.308 . S
O157 C109 1.274 . S
O158 Cd89 2.366 . S
O158 C145 1.263 . S
C159 O160 1.235 . S
C159 O161 1.270 . S
O160 Cd93 2.352 . S
O160 C159 1.235 . S
O161 Cd89 2.329 . S
O161 C159 1.270 . S
C162 O146 1.270 . S
C162 O147 1.248 . S
H163 C95 0.930 . S
H164 C98 0.930 . S
H165 C99 0.931 . S
H166 C104 0.929 . S
H167 C106 0.930 . S
H168 C108 0.930 . S
H169 C111 0.929 . S
H170 C112 0.932 . S
H171 C114 0.930 . S
H172 C138 0.929 . S
H173 C139 0.932 . S
H174 C140 0.931 . S
H175 C149 0.931 . S
H176 C151 0.929 . S
H177 C153 0.932 . S
Cd178 O235 2.350 . S
Cd178 O236 2.277 . S
Cd178 O243 2.173 . S
Cd178 O245 2.263 . S
Cd178 O247 2.366 . S
Cd178 O250 2.329 . S
C179 O243 1.277 . S
C179 O244 1.230 . S
C180 O181 1.246 . S
C180 C183 1.481 . S
C180 N205 1.329 . S
O181 C180 1.246 . S
Cd182 O244 2.250 . S
Cd182 O246 2.308 . S
Cd182 O249 2.352 . S
C183 C180 1.481 . S
C183 N186 1.327 . S
C183 C187 1.407 . S
C184 C185 1.346 . S
C184 C188 1.390 . S
C184 H252 0.930 . S
C185 C184 1.346 . S
C185 N186 1.342 . S
C185 C190 1.516 . S
N186 C183 1.327 . S
N186 C185 1.342 . S
N186 Co189 1.864 . S
C187 C183 1.407 . S
C187 C188 1.364 . S
C187 H253 0.930 . S
C188 C184 1.390 . S
C188 C187 1.364 . S
C188 H254 0.931 . S
Co189 N186 1.864 . S
Co189 N205 1.955 . S
Co189 N206 1.958 . S
Co189 N207 1.953 . S
Co189 N225 1.869 . S
Co189 N231 1.974 . S
C190 C185 1.516 . S
C190 O191 1.238 . S
C190 N206 1.324 . S
O191 C190 1.238 . S
C192 C193 1.394 . S
C192 C197 1.395 . S
C192 N206 1.427 . S
C193 C192 1.394 . S
C193 C194 1.380 . S
C193 H255 0.929 . S
C194 C193 1.380 . S
C194 C195 1.384 . S
C194 C198 1.495 . S
C195 C194 1.384 . S
C195 C196 1.382 . S
C195 H256 0.930 . S
C196 C195 1.382 . S
C196 C197 1.398 . S
C197 C192 1.395 . S
C197 C196 1.398 . S
C197 H257 0.930 . S
C198 C194 1.495 . S
C198 O245 1.258 . S
C198 O246 1.274 . S
C199 C200 1.385 . S
C199 C201 1.381 . S
C199 N205 1.432 . S
C200 C199 1.385 . S
C200 C204 1.388 . S
C200 H258 0.929 . S
C201 C199 1.381 . S
C201 C202 1.371 . S
C201 H259 0.932 . S
C202 C201 1.371 . S
C202 C203 1.400 . S
C203 C202 1.400 . S
C203 C204 1.351 . S
C203 H260 0.930 . S
C204 C200 1.388 . S
C204 C203 1.351 . S
N205 C180 1.329 . S
N205 Co189 1.955 . S
N205 C199 1.432 . S
N206 Co189 1.958 . S
N206 C190 1.324 . S
N206 C192 1.427 . S
N207 Co189 1.953 . S
N207 C208 1.436 . S
N207 C234 1.316 . S
C208 N207 1.436 . S
C208 C209 1.421 . S
C208 C210 1.360 . S
C209 C208 1.421 . S
C209 C211 1.379 . S
C209 H212 0.929 . S
C210 C208 1.360 . S
C210 C214 1.393 . S
C210 H216 0.931 . S
C211 C209 1.379 . S
C211 C213 1.417 . S
C211 C215 1.505 . S
H212 C209 0.929 . S
C213 C211 1.417 . S
C213 C214 1.352 . S
C213 H217 0.929 . S
C214 C210 1.393 . S
C214 C213 1.352 . S
C214 C218 1.482 . S
C215 C211 1.505 . S
C215 O219 1.259 . S
C215 O220 1.229 . S
H216 C210 0.931 . S
H217 C213 0.929 . S
C218 C214 1.482 . S
C218 O221 1.207 . S
C218 O222 1.289 . S
O219 C215 1.259 . S
O219 H223 0.822 . S
O220 C215 1.229 . S
O221 C218 1.207 . S
O222 C218 1.289 . S
O222 H224 0.819 . S
H223 O219 0.822 . S
H224 O222 0.819 . S
N225 Co189 1.869 . S
N225 C226 1.330 . S
N225 C230 1.325 . S
C226 N225 1.330 . S
C226 C227 1.359 . S
C226 C232 1.504 . S
C227 C226 1.359 . S
C227 C228 1.366 . S
C227 H261 0.929 . S
C228 C227 1.366 . S
C228 C229 1.415 . S
C228 H262 0.932 . S
C229 C228 1.415 . S
C229 C230 1.366 . S
C229 H263 0.931 . S
C230 N225 1.325 . S
C230 C229 1.366 . S
C230 C234 1.516 . S
N231 Co189 1.974 . S
N231 C232 1.309 . S
N231 C237 1.423 . S
C232 C226 1.504 . S
C232 N231 1.309 . S
C232 O233 1.258 . S
O233 C232 1.258 . S
C234 N207 1.316 . S
C234 C230 1.516 . S
C234 O247 1.263 . S
O235 Cd178 2.350 . S
O235 C251 1.270 . S
O236 Cd178 2.277 . S
O236 C251 1.248 . S
C237 N231 1.423 . S
C237 C238 1.370 . S
C237 C242 1.403 . S
C238 C237 1.370 . S
C238 C239 1.389 1_565 S
C238 H264 0.931 . S
C239 C238 1.389 1_545 S
C239 C240 1.389 . S
C240 C239 1.389 . S
C240 C241 1.379 1_545 S
C240 H265 0.929 . S
C241 C240 1.379 1_565 S
C241 C242 1.405 . S
C242 C237 1.403 . S
C242 C241 1.405 . S
C242 H266 0.932 . S
O243 Cd178 2.173 . S
O243 C179 1.277 . S
O244 C179 1.230 . S
O244 Cd182 2.250 . S
O245 Cd178 2.263 . S
O245 C198 1.258 . S
O246 Cd182 2.308 . S
O246 C198 1.274 . S
O247 Cd178 2.366 . S
O247 C234 1.263 . S
C248 O249 1.235 . S
C248 O250 1.270 . S
O249 Cd182 2.352 . S
O249 C248 1.235 . S
O250 Cd178 2.329 . S
O250 C248 1.270 . S
C251 O235 1.270 . S
C251 O236 1.248 . S
H252 C184 0.930 . S
H253 C187 0.930 . S
H254 C188 0.931 . S
H255 C193 0.929 . S
H256 C195 0.930 . S
H257 C197 0.930 . S
H258 C200 0.929 . S
H259 C201 0.932 . S
H260 C203 0.930 . S
H261 C227 0.929 . S
H262 C228 0.932 . S
H263 C229 0.931 . S
H264 C238 0.931 . S
H265 C240 0.929 . S
H266 C242 0.932 . S
Cd267 O324 2.350 . S
Cd267 O325 2.277 . S
Cd267 O332 2.173 . S
Cd267 O334 2.263 . S
Cd267 O336 2.366 . S
Cd267 O339 2.329 . S
C268 O332 1.277 . S
C268 O333 1.230 . S
C269 O270 1.246 . S
C269 C272 1.481 1_554 S
C269 N294 1.329 1_554 S
O270 C269 1.246 . S
Cd271 O333 2.250 . S
Cd271 O335 2.308 . S
Cd271 O338 2.352 . S
C272 C269 1.481 1_556 S
C272 N275 1.327 . S
C272 C276 1.407 . S
C273 C274 1.346 . S
C273 C277 1.390 . S
C273 H341 0.930 . S
C274 C273 1.346 . S
C274 N275 1.342 . S
C274 C279 1.516 . S
N275 C272 1.327 . S
N275 C274 1.342 . S
N275 Co278 1.864 . S
C276 C272 1.407 . S
C276 C277 1.364 . S
C276 H342 0.930 . S
C277 C273 1.390 . S
C277 C276 1.364 . S
C277 H343 0.931 . S
Co278 N275 1.864 . S
Co278 N294 1.955 . S
Co278 N295 1.958 . S
Co278 N296 1.953 . S
Co278 N314 1.869 . S
Co278 N320 1.974 . S
C279 C274 1.516 . S
C279 O280 1.238 . S
C279 N295 1.324 . S
O280 C279 1.238 . S
C281 C282 1.394 . S
C281 C286 1.395 . S
C281 N295 1.427 . S
C282 C281 1.394 . S
C282 C283 1.380 . S
C282 H344 0.929 . S
C283 C282 1.380 . S
C283 C284 1.384 . S
C283 C287 1.495 . S
C284 C283 1.384 . S
C284 C285 1.382 . S
C284 H345 0.930 . S
C285 C284 1.382 . S
C285 C286 1.398 . S
C286 C281 1.395 . S
C286 C285 1.398 . S
C286 H346 0.930 . S
C287 C283 1.495 . S
C287 O334 1.258 . S
C287 O335 1.274 . S
C288 C289 1.385 . S
C288 C290 1.381 . S
C288 N294 1.432 1_554 S
C289 C288 1.385 . S
C289 C293 1.388 . S
C289 H347 0.929 . S
C290 C288 1.381 . S
C290 C291 1.371 . S
C290 H348 0.932 . S
C291 C290 1.371 . S
C291 C292 1.400 . S
C292 C291 1.400 . S
C292 C293 1.351 . S
C292 H349 0.930 . S
C293 C289 1.388 . S
C293 C292 1.351 . S
N294 C269 1.329 1_556 S
N294 Co278 1.955 . S
N294 C288 1.432 1_556 S
N295 Co278 1.958 . S
N295 C279 1.324 . S
N295 C281 1.427 . S
N296 Co278 1.953 . S
N296 C297 1.436 . S
N296 C323 1.316 . S
C297 N296 1.436 . S
C297 C298 1.421 . S
C297 C299 1.360 . S
C298 C297 1.421 . S
C298 C300 1.379 . S
C298 H301 0.929 . S
C299 C297 1.360 . S
C299 C303 1.393 . S
C299 H305 0.931 . S
C300 C298 1.379 . S
C300 C302 1.417 . S
C300 C304 1.505 . S
H301 C298 0.929 . S
C302 C300 1.417 . S
C302 C303 1.352 . S
C302 H306 0.929 . S
C303 C299 1.393 . S
C303 C302 1.352 . S
C303 C307 1.482 . S
C304 C300 1.505 . S
C304 O308 1.259 . S
C304 O309 1.229 . S
H305 C299 0.931 . S
H306 C302 0.929 . S
C307 C303 1.482 . S
C307 O310 1.207 . S
C307 O311 1.289 . S
O308 C304 1.259 . S
O308 H312 0.822 . S
O309 C304 1.229 . S
O310 C307 1.207 . S
O311 C307 1.289 . S
O311 H313 0.819 . S
H312 O308 0.822 . S
H313 O311 0.819 . S
N314 Co278 1.869 . S
N314 C315 1.330 . S
N314 C319 1.325 . S
C315 N314 1.330 . S
C315 C316 1.359 . S
C315 C321 1.504 . S
C316 C315 1.359 . S
C316 C317 1.366 . S
C316 H350 0.929 . S
C317 C316 1.366 . S
C317 C318 1.415 . S
C317 H351 0.932 . S
C318 C317 1.415 . S
C318 C319 1.366 . S
C318 H352 0.931 . S
C319 N314 1.325 . S
C319 C318 1.366 . S
C319 C323 1.516 . S
N320 Co278 1.974 . S
N320 C321 1.309 . S
N320 C326 1.416 1_556 S
C321 C315 1.504 . S
C321 N320 1.309 . S
C321 O322 1.258 1_556 S
O322 C321 1.258 1_554 S
C323 N296 1.316 . S
C323 C319 1.516 . S
C323 O336 1.263 . S
O324 Cd267 2.350 . S
O324 C340 1.270 . S
O325 Cd267 2.277 . S
O325 C340 1.248 . S
C326 N320 1.416 1_554 S
C326 C327 1.360 1_554 S
C326 C331 1.422 . S
C327 C326 1.360 1_556 S
C327 C328 1.389 1_545 S
C327 H353 0.931 . S
C328 C327 1.389 1_565 S
C328 C329 1.389 1_556 S
C329 C328 1.389 1_554 S
C329 C330 1.379 1_565 S
C329 H354 0.929 . S
C330 C329 1.379 1_545 S
C330 C331 1.405 . S
C331 C326 1.422 . S
C331 C330 1.405 . S
C331 H355 0.932 . S
O332 Cd267 2.173 . S
O332 C268 1.277 . S
O333 C268 1.230 . S
O333 Cd271 2.250 . S
O334 Cd267 2.263 . S
O334 C287 1.258 . S
O335 Cd271 2.308 . S
O335 C287 1.274 . S
O336 Cd267 2.366 . S
O336 C323 1.263 . S
C337 O338 1.235 . S
C337 O339 1.270 . S
O338 Cd271 2.352 . S
O338 C337 1.235 . S
O339 Cd267 2.329 . S
O339 C337 1.270 . S
C340 O324 1.270 . S
C340 O325 1.248 . S
H341 C273 0.930 . S
H342 C276 0.930 . S
H343 C277 0.931 . S
H344 C282 0.929 . S
H345 C284 0.930 . S
H346 C286 0.930 . S
H347 C289 0.929 . S
H348 C290 0.932 . S
H349 C292 0.930 . S
H350 C316 0.929 . S
H351 C317 0.932 . S
H352 C318 0.931 . S
H353 C327 0.931 . S
H354 C329 0.929 . S
H355 C331 0.932 . S
Cd356 O413 2.350 . S
Cd356 O414 2.277 . S
Cd356 O421 2.173 . S
Cd356 O423 2.263 . S
Cd356 O425 2.366 . S
Cd356 O428 2.329 . S
C357 O421 1.277 . S
C357 O422 1.230 . S
C358 O359 1.246 . S
C358 C361 1.481 . S
C358 N383 1.329 . S
O359 C358 1.246 . S
Cd360 O422 2.250 . S
Cd360 O424 2.308 . S
Cd360 O427 2.352 . S
C361 C358 1.481 . S
C361 N364 1.327 . S
C361 C365 1.407 . S
C362 C363 1.346 . S
C362 C366 1.390 . S
C362 H430 0.930 . S
C363 C362 1.346 . S
C363 N364 1.342 . S
C363 C368 1.516 . S
N364 C361 1.327 . S
N364 C363 1.342 . S
N364 Co367 1.864 . S
C365 C361 1.407 . S
C365 C366 1.364 . S
C365 H431 0.930 . S
C366 C362 1.390 . S
C366 C365 1.364 . S
C366 H432 0.931 . S
Co367 N364 1.864 . S
Co367 N383 1.955 . S
Co367 N384 1.958 . S
Co367 N385 1.953 . S
Co367 N403 1.869 . S
Co367 N409 1.974 . S
C368 C363 1.516 . S
C368 O369 1.238 . S
C368 N384 1.324 . S
O369 C368 1.238 . S
C370 C371 1.394 . S
C370 C375 1.395 . S
C370 N384 1.427 . S
C371 C370 1.394 . S
C371 C372 1.380 . S
C371 H433 0.929 . S
C372 C371 1.380 . S
C372 C373 1.384 . S
C372 C376 1.495 . S
C373 C372 1.384 . S
C373 C374 1.382 . S
C373 H434 0.930 . S
C374 C373 1.382 . S
C374 C375 1.398 . S
C375 C370 1.395 . S
C375 C374 1.398 . S
C375 H435 0.930 . S
C376 C372 1.495 . S
C376 O423 1.258 . S
C376 O424 1.274 . S
C377 C378 1.385 . S
C377 C379 1.381 . S
C377 N383 1.432 . S
C378 C377 1.385 . S
C378 C382 1.388 . S
C378 H436 0.929 . S
C379 C377 1.381 . S
C379 C380 1.371 . S
C379 H437 0.932 . S
C380 C379 1.371 . S
C380 C381 1.400 . S
C381 C380 1.400 . S
C381 C382 1.351 . S
C381 H438 0.930 . S
C382 C378 1.388 . S
C382 C381 1.351 . S
N383 C358 1.329 . S
N383 Co367 1.955 . S
N383 C377 1.432 . S
N384 Co367 1.958 . S
N384 C368 1.324 . S
N384 C370 1.427 . S
N385 Co367 1.953 . S
N385 C386 1.436 . S
N385 C412 1.316 . S
C386 N385 1.436 . S
C386 C387 1.421 . S
C386 C388 1.360 . S
C387 C386 1.421 . S
C387 C389 1.379 . S
C387 H390 0.929 . S
C388 C386 1.360 . S
C388 C392 1.393 . S
C388 H394 0.931 . S
C389 C387 1.379 . S
C389 C391 1.417 . S
C389 C393 1.505 . S
H390 C387 0.929 . S
C391 C389 1.417 . S
C391 C392 1.352 . S
C391 H395 0.929 . S
C392 C388 1.393 . S
C392 C391 1.352 . S
C392 C396 1.482 . S
C393 C389 1.505 . S
C393 O397 1.259 . S
C393 O398 1.229 . S
H394 C388 0.931 . S
H395 C391 0.929 . S
C396 C392 1.482 . S
C396 O399 1.207 . S
C396 O400 1.289 . S
O397 C393 1.259 . S
O397 H401 0.822 . S
O398 C393 1.229 . S
O399 C396 1.207 . S
O400 C396 1.289 . S
O400 H402 0.819 . S
H401 O397 0.822 . S
H402 O400 0.819 . S
N403 Co367 1.869 . S
N403 C404 1.330 . S
N403 C408 1.325 . S
C404 N403 1.330 . S
C404 C405 1.359 . S
C404 C410 1.504 . S
C405 C404 1.359 . S
C405 C406 1.366 . S
C405 H439 0.929 . S
C406 C405 1.366 . S
C406 C407 1.415 . S
C406 H440 0.932 . S
C407 C406 1.415 . S
C407 C408 1.366 . S
C407 H441 0.931 . S
C408 N403 1.325 . S
C408 C407 1.366 . S
C408 C412 1.516 . S
N409 Co367 1.974 . S
N409 C410 1.309 . S
N409 C415 1.423 . S
C410 C404 1.504 . S
C410 N409 1.309 . S
C410 O411 1.258 . S
O411 C410 1.258 . S
C412 N385 1.316 . S
C412 C408 1.516 . S
C412 O425 1.263 . S
O413 Cd356 2.350 . S
O413 C429 1.270 . S
O414 Cd356 2.277 . S
O414 C429 1.248 . S
C415 N409 1.423 . S
C415 C416 1.370 . S
C415 C420 1.403 . S
C416 C415 1.370 . S
C416 C417 1.389 1_655 S
C416 H442 0.931 . S
C417 C416 1.389 1_455 S
C417 C418 1.389 . S
C418 C417 1.389 . S
C418 C419 1.379 1_455 S
C418 H443 0.929 . S
C419 C418 1.379 1_655 S
C419 C420 1.405 . S
C420 C415 1.403 . S
C420 C419 1.405 . S
C420 H444 0.932 . S
O421 Cd356 2.173 . S
O421 C357 1.277 . S
O422 C357 1.230 . S
O422 Cd360 2.250 . S
O423 Cd356 2.263 . S
O423 C376 1.258 . S
O424 Cd360 2.308 . S
O424 C376 1.274 . S
O425 Cd356 2.366 . S
O425 C412 1.263 . S
C426 O427 1.235 . S
C426 O428 1.270 . S
O427 Cd360 2.352 . S
O427 C426 1.235 . S
O428 Cd356 2.329 . S
O428 C426 1.270 . S
C429 O413 1.270 . S
C429 O414 1.248 . S
H430 C362 0.930 . S
H431 C365 0.930 . S
H432 C366 0.931 . S
H433 C371 0.929 . S
H434 C373 0.930 . S
H435 C375 0.930 . S
H436 C378 0.929 . S
H437 C379 0.932 . S
H438 C381 0.930 . S
H439 C405 0.929 . S
H440 C406 0.932 . S
H441 C407 0.931 . S
H442 C416 0.931 . S
H443 C418 0.929 . S
H444 C420 0.932 . S
Cd445 O502 2.350 . S
Cd445 O503 2.277 . S
Cd445 O510 2.173 . S
Cd445 O512 2.263 . S
Cd445 O514 2.366 . S
Cd445 O517 2.329 . S
C446 O510 1.277 . S
C446 O511 1.230 . S
C447 O448 1.246 . S
C447 C450 1.481 . S
C447 N472 1.329 . S
O448 C447 1.246 . S
Cd449 O511 2.250 . S
Cd449 O513 2.308 . S
Cd449 O516 2.352 . S
C450 C447 1.481 . S
C450 N453 1.327 . S
C450 C454 1.407 . S
C451 C452 1.346 . S
C451 C455 1.390 . S
C451 H519 0.930 . S
C452 C451 1.346 . S
C452 N453 1.342 . S
C452 C457 1.516 . S
N453 C450 1.327 . S
N453 C452 1.342 . S
N453 Co456 1.864 . S
C454 C450 1.407 . S
C454 C455 1.364 . S
C454 H520 0.930 . S
C455 C451 1.390 . S
C455 C454 1.364 . S
C455 H521 0.931 . S
Co456 N453 1.864 . S
Co456 N472 1.955 . S
Co456 N473 1.958 . S
Co456 N474 1.953 . S
Co456 N492 1.869 . S
Co456 N498 1.974 . S
C457 C452 1.516 . S
C457 O458 1.238 . S
C457 N473 1.324 . S
O458 C457 1.238 . S
C459 C460 1.394 . S
C459 C464 1.395 . S
C459 N473 1.427 . S
C460 C459 1.394 . S
C460 C461 1.380 . S
C460 H522 0.929 . S
C461 C460 1.380 . S
C461 C462 1.384 . S
C461 C465 1.495 . S
C462 C461 1.384 . S
C462 C463 1.382 . S
C462 H523 0.930 . S
C463 C462 1.382 . S
C463 C464 1.398 . S
C464 C459 1.395 . S
C464 C463 1.398 . S
C464 H524 0.930 . S
C465 C461 1.495 . S
C465 O512 1.258 . S
C465 O513 1.274 . S
C466 C467 1.385 . S
C466 C468 1.381 . S
C466 N472 1.432 . S
C467 C466 1.385 . S
C467 C471 1.388 . S
C467 H525 0.929 . S
C468 C466 1.381 . S
C468 C469 1.371 . S
C468 H526 0.932 . S
C469 C468 1.371 . S
C469 C470 1.400 . S
C470 C469 1.400 . S
C470 C471 1.351 . S
C470 H527 0.930 . S
C471 C467 1.388 . S
C471 C470 1.351 . S
N472 C447 1.329 . S
N472 Co456 1.955 . S
N472 C466 1.432 . S
N473 Co456 1.958 . S
N473 C457 1.324 . S
N473 C459 1.427 . S
N474 Co456 1.953 . S
N474 C475 1.436 . S
N474 C501 1.316 . S
C475 N474 1.436 . S
C475 C476 1.421 . S
C475 C477 1.360 . S
C476 C475 1.421 . S
C476 C478 1.379 . S
C476 H479 0.929 . S
C477 C475 1.360 . S
C477 C481 1.393 . S
C477 H483 0.931 . S
C478 C476 1.379 . S
C478 C480 1.417 . S
C478 C482 1.505 . S
H479 C476 0.929 . S
C480 C478 1.417 . S
C480 C481 1.352 . S
C480 H484 0.929 . S
C481 C477 1.393 . S
C481 C480 1.352 . S
C481 C485 1.482 . S
C482 C478 1.505 . S
C482 O486 1.259 . S
C482 O487 1.229 . S
H483 C477 0.931 . S
H484 C480 0.929 . S
C485 C481 1.482 . S
C485 O488 1.207 . S
C485 O489 1.289 . S
O486 C482 1.259 . S
O486 H490 0.822 . S
O487 C482 1.229 . S
O488 C485 1.207 . S
O489 C485 1.289 . S
O489 H491 0.819 . S
H490 O486 0.822 . S
H491 O489 0.819 . S
N492 Co456 1.869 . S
N492 C493 1.330 . S
N492 C497 1.325 . S
C493 N492 1.330 . S
C493 C494 1.359 . S
C493 C499 1.504 . S
C494 C493 1.359 . S
C494 C495 1.366 . S
C494 H528 0.929 . S
C495 C494 1.366 . S
C495 C496 1.415 . S
C495 H529 0.932 . S
C496 C495 1.415 . S
C496 C497 1.366 . S
C496 H530 0.931 . S
C497 N492 1.325 . S
C497 C496 1.366 . S
C497 C501 1.516 . S
N498 Co456 1.974 . S
N498 C499 1.309 . S
N498 C504 1.423 . S
C499 C493 1.504 . S
C499 N498 1.309 . S
C499 O500 1.258 . S
O500 C499 1.258 . S
C501 N474 1.316 . S
C501 C497 1.516 . S
C501 O514 1.263 . S
O502 Cd445 2.350 . S
O502 C518 1.270 . S
O503 Cd445 2.277 . S
O503 C518 1.248 . S
C504 N498 1.423 . S
C504 C505 1.370 . S
C504 C509 1.403 . S
C505 C504 1.370 . S
C505 C506 1.389 . S
C505 H531 0.931 . S
C506 C505 1.389 . S
C506 C507 1.389 . S
C507 C506 1.389 . S
C507 C508 1.379 . S
C507 H532 0.929 . S
C508 C507 1.379 . S
C508 C509 1.405 . S
C509 C504 1.403 . S
C509 C508 1.405 . S
C509 H533 0.932 . S
O510 Cd445 2.173 . S
O510 C446 1.277 . S
O511 C446 1.230 . S
O511 Cd449 2.250 . S
O512 Cd445 2.263 . S
O512 C465 1.258 . S
O513 Cd449 2.308 . S
O513 C465 1.274 . S
O514 Cd445 2.366 . S
O514 C501 1.263 . S
C515 O516 1.235 . S
C515 O517 1.270 . S
O516 Cd449 2.352 . S
O516 C515 1.235 . S
O517 Cd445 2.329 . S
O517 C515 1.270 . S
C518 O502 1.270 . S
C518 O503 1.248 . S
H519 C451 0.930 . S
H520 C454 0.930 . S
H521 C455 0.931 . S
H522 C460 0.929 . S
H523 C462 0.930 . S
H524 C464 0.930 . S
H525 C467 0.929 . S
H526 C468 0.932 . S
H527 C470 0.930 . S
H528 C494 0.929 . S
H529 C495 0.932 . S
H530 C496 0.931 . S
H531 C505 0.931 . S
H532 C507 0.929 . S
H533 C509 0.932 . S
H534 C542 0.929 . S
H535 C544 0.930 . S
H536 C546 0.930 . S
H537 C549 0.929 . S
H538 C552 0.930 . S
H539 C554 0.960 . S
H540 C554 0.960 . S
H541 C554 0.960 . S
C542 H534 0.929 . S
C542 C543 1.377 . S
C542 C544 1.384 . S
C543 C542 1.377 . S
C543 C549 1.390 . S
C544 H535 0.930 . S
C544 C542 1.384 . S
C544 C545 1.372 . S
C545 C544 1.372 . S
C545 C546 1.400 . S
C545 C550 1.490 . S
C546 H536 0.930 . S
C546 C545 1.400 . S
C546 C549 1.386 . S
H547 C563 0.930 . S
H548 C564 0.931 . S
C549 H537 0.929 . S
C549 C543 1.390 . S
C549 C546 1.386 . S
C550 C545 1.490 . S
C550 C552 1.395 . S
C550 C553 1.403 . S
H551 C557 0.930 . S
C552 H538 0.930 . S
C552 C550 1.395 . S
C552 C555 1.403 . S
C553 C550 1.403 . S
C553 C554 1.524 . S
C553 C557 1.400 . S
C554 H539 0.960 . S
C554 H540 0.960 . S
C554 H541 0.960 . S
C554 C553 1.524 . S
C555 C552 1.403 . S
C555 C556 1.392 . S
C555 C559 1.495 . S
C556 C555 1.392 . S
C556 C557 1.385 . S
C556 C558 1.478 . S
C557 H551 0.930 . S
C557 C553 1.400 . S
C557 C556 1.385 . S
C558 C556 1.478 . S
C558 C560 1.381 . S
C558 C564 1.383 1_554 S
C559 C555 1.495 . S
C559 H565 0.959 . S
C559 H566 0.961 . S
C559 H567 0.960 . S
C560 C558 1.381 . S
C560 C561 1.394 . S
C560 H568 0.930 . S
C561 C560 1.394 . S
C561 C562 1.383 1_554 S
C561 H569 0.929 . S
C562 C561 1.383 1_556 S
C562 C563 1.377 . S
C563 H547 0.930 . S
C563 C562 1.377 . S
C563 C564 1.379 . S
C564 H548 0.931 . S
C564 C558 1.383 1_556 S
C564 C563 1.379 . S
H565 C559 0.959 . S
H566 C559 0.961 . S
H567 C559 0.960 . S
H568 C560 0.930 . S
H569 C561 0.929 . S
H570 C578 0.929 . S
H571 C580 0.930 . S
H572 C582 0.930 . S
H573 C585 0.929 . S
H574 C588 0.930 . S
H575 C590 0.960 . S
H576 C590 0.960 . S
H577 C590 0.960 . S
C578 H570 0.929 . S
C578 C579 1.377 . S
C578 C580 1.384 . S
C579 C578 1.377 . S
C579 C585 1.390 . S
C580 H571 0.930 . S
C580 C578 1.384 . S
C580 C581 1.372 . S
C581 C580 1.372 . S
C581 C582 1.400 . S
C581 C586 1.490 . S
C582 H572 0.930 . S
C582 C581 1.400 . S
C582 C585 1.386 . S
H583 C599 0.930 . S
H584 C600 0.931 . S
C585 H573 0.929 . S
C585 C579 1.390 . S
C585 C582 1.386 . S
C586 C581 1.490 . S
C586 C588 1.395 . S
C586 C589 1.403 . S
H587 C593 0.930 . S
C588 H574 0.930 . S
C588 C586 1.395 . S
C588 C591 1.403 . S
C589 C586 1.403 . S
C589 C590 1.524 . S
C589 C593 1.400 . S
C590 H575 0.960 . S
C590 H576 0.960 . S
C590 H577 0.960 . S
C590 C589 1.524 . S
C591 C588 1.403 . S
C591 C592 1.392 . S
C591 C595 1.495 . S
C592 C591 1.392 . S
C592 C593 1.385 . S
C592 C594 1.478 . S
C593 H587 0.930 . S
C593 C589 1.400 . S
C593 C592 1.385 . S
C594 C592 1.478 . S
C594 C596 1.381 . S
C594 C600 1.383 . S
C595 C591 1.495 . S
C595 H601 0.959 . S
C595 H602 0.961 . S
C595 H603 0.960 . S
C596 C594 1.381 . S
C596 C597 1.394 . S
C596 H604 0.930 . S
C597 C596 1.394 . S
C597 C598 1.383 . S
C597 H605 0.929 . S
C598 C597 1.383 . S
C598 C599 1.377 . S
C599 H583 0.930 . S
C599 C598 1.377 . S
C599 C600 1.379 . S
C600 H584 0.931 . S
C600 C594 1.383 . S
C600 C599 1.379 . S
H601 C595 0.959 . S
H602 C595 0.961 . S
H603 C595 0.960 . S
H604 C596 0.930 . S
H605 C597 0.929 . S
H606 C614 0.929 . S
H607 C616 0.930 . S
H608 C618 0.930 . S
H609 C621 0.929 . S
H610 C624 0.930 . S
H611 C626 0.960 . S
H612 C626 0.960 . S
H613 C626 0.960 . S
C614 H606 0.929 . S
C614 C615 1.377 . S
C614 C616 1.384 . S
C615 C614 1.377 . S
C615 C621 1.390 . S
C616 H607 0.930 . S
C616 C614 1.384 . S
C616 C617 1.372 . S
C617 C616 1.372 . S
C617 C618 1.400 . S
C617 C622 1.490 . S
C618 H608 0.930 . S
C618 C617 1.400 . S
C618 C621 1.386 . S
H619 C635 0.930 . S
H620 C636 0.931 . S
C621 H609 0.929 . S
C621 C615 1.390 . S
C621 C618 1.386 . S
C622 C617 1.490 . S
C622 C624 1.395 . S
C622 C625 1.403 . S
H623 C629 0.930 . S
C624 H610 0.930 . S
C624 C622 1.395 . S
C624 C627 1.403 . S
C625 C622 1.403 . S
C625 C626 1.524 . S
C625 C629 1.400 . S
C626 H611 0.960 . S
C626 H612 0.960 . S
C626 H613 0.960 . S
C626 C625 1.524 . S
C627 C624 1.403 . S
C627 C628 1.392 . S
C627 C631 1.495 . S
C628 C627 1.392 . S
C628 C629 1.385 . S
C628 C630 1.478 . S
C629 H623 0.930 . S
C629 C625 1.400 . S
C629 C628 1.385 . S
C630 C628 1.478 . S
C630 C632 1.381 . S
C630 C636 1.383 . S
C631 C627 1.495 . S
C631 H637 0.959 . S
C631 H638 0.961 . S
C631 H639 0.960 . S
C632 C630 1.381 . S
C632 C633 1.394 . S
C632 H640 0.930 . S
C633 C632 1.394 . S
C633 C634 1.383 . S
C633 H641 0.929 . S
C634 C633 1.383 . S
C634 C635 1.377 . S
C635 H619 0.930 . S
C635 C634 1.377 . S
C635 C636 1.379 . S
C636 H620 0.931 . S
C636 C630 1.383 . S
C636 C635 1.379 . S
H637 C631 0.959 . S
H638 C631 0.961 . S
H639 C631 0.960 . S
H640 C632 0.930 . S
H641 C633 0.929 . S
H642 C650 0.929 . S
H643 C652 0.930 . S
H644 C654 0.930 . S
H645 C657 0.929 . S
H646 C660 0.930 . S
H647 C662 0.960 . S
H648 C662 0.960 . S
H649 C662 0.960 . S
C650 H642 0.929 . S
C650 C651 1.377 . S
C650 C652 1.384 . S
C651 C650 1.377 . S
C651 C657 1.390 . S
C652 H643 0.930 . S
C652 C650 1.384 . S
C652 C653 1.372 . S
C653 C652 1.372 . S
C653 C654 1.400 . S
C653 C658 1.490 . S
C654 H644 0.930 . S
C654 C653 1.400 . S
C654 C657 1.386 . S
H655 C671 0.930 . S
H656 C672 0.931 . S
C657 H645 0.929 . S
C657 C651 1.390 . S
C657 C654 1.386 . S
C658 C653 1.490 . S
C658 C660 1.395 . S
C658 C661 1.403 . S
H659 C665 0.930 . S
C660 H646 0.930 . S
C660 C658 1.395 . S
C660 C663 1.403 . S
C661 C658 1.403 . S
C661 C662 1.524 . S
C661 C665 1.400 . S
C662 H647 0.960 . S
C662 H648 0.960 . S
C662 H649 0.960 . S
C662 C661 1.524 . S
C663 C660 1.403 . S
C663 C664 1.392 . S
C663 C667 1.495 1_556 S
C664 C663 1.392 . S
C664 C665 1.385 . S
C664 C666 1.478 . S
C665 H659 0.930 . S
C665 C661 1.400 . S
C665 C664 1.385 . S
C666 C664 1.478 . S
C666 C668 1.381 1_556 S
C666 C672 1.383 . S
C667 C663 1.495 1_554 S
C667 H673 0.959 . S
C667 H674 0.961 . S
C667 H675 0.960 . S
C668 C666 1.381 1_554 S
C668 C669 1.394 . S
C668 H676 0.930 . S
C669 C668 1.394 . S
C669 C670 1.383 . S
C669 H677 0.929 . S
C670 C669 1.383 . S
C670 C671 1.377 1_554 S
C671 H655 0.930 . S
C671 C670 1.377 1_556 S
C671 C672 1.379 . S
C672 H656 0.931 . S
C672 C666 1.383 . S
C672 C671 1.379 . S
H673 C667 0.959 . S
H674 C667 0.961 . S
H675 C667 0.960 . S
H676 C668 0.930 . S
H677 C669 0.929 . S
H678 C686 0.929 . S
H679 C688 0.930 . S
H680 C690 0.930 . S
H681 C693 0.929 . S
H682 C696 0.930 . S
H683 C698 0.960 . S
H684 C698 0.960 . S
H685 C698 0.960 . S
C686 H678 0.929 . S
C686 C687 1.377 . S
C686 C688 1.384 . S
C687 C686 1.377 . S
C687 C693 1.390 . S
C688 H679 0.930 . S
C688 C686 1.384 . S
C688 C689 1.372 . S
C689 C688 1.372 . S
C689 C690 1.400 . S
C689 C694 1.490 . S
C690 H680 0.930 . S
C690 C689 1.400 . S
C690 C693 1.386 . S
H691 C707 0.930 . S
H692 C708 0.931 . S
C693 H681 0.929 . S
C693 C687 1.390 . S
C693 C690 1.386 . S
C694 C689 1.490 . S
C694 C696 1.395 . S
C694 C697 1.403 . S
H695 C701 0.930 . S
C696 H682 0.930 . S
C696 C694 1.395 . S
C696 C699 1.403 . S
C697 C694 1.403 . S
C697 C698 1.524 . S
C697 C701 1.400 . S
C698 H683 0.960 . S
C698 H684 0.960 . S
C698 H685 0.960 . S
C698 C697 1.524 . S
C699 C696 1.403 . S
C699 C700 1.392 . S
C699 C703 1.495 . S
C700 C699 1.392 . S
C700 C701 1.385 . S
C700 C702 1.478 . S
C701 H695 0.930 . S
C701 C697 1.400 . S
C701 C700 1.385 . S
C702 C700 1.478 . S
C702 C704 1.381 . S
C702 C708 1.383 . S
C703 C699 1.495 . S
C703 H709 0.959 . S
C703 H710 0.961 . S
C703 H711 0.960 . S
C704 C702 1.381 . S
C704 C705 1.394 . S
C704 H712 0.930 . S
C705 C704 1.394 . S
C705 C706 1.383 . S
C705 H713 0.929 . S
C706 C705 1.383 . S
C706 C707 1.377 . S
C707 H691 0.930 . S
C707 C706 1.377 . S
C707 C708 1.379 . S
C708 H692 0.931 . S
C708 C702 1.383 . S
C708 C707 1.379 . S
H709 C703 0.959 . S
H710 C703 0.961 . S
H711 C703 0.960 . S
H712 C704 0.930 . S
H713 C705 0.929 . S
H714 C722 0.929 . S
H715 C724 0.930 . S
H716 C726 0.930 . S
H717 C729 0.929 . S
H718 C732 0.930 . S
H719 C734 0.960 . S
H720 C734 0.960 . S
H721 C734 0.960 . S
C722 H714 0.929 . S
C722 C723 1.377 . S
C722 C724 1.384 . S
C723 C722 1.377 . S
C723 C729 1.390 . S
C724 H715 0.930 . S
C724 C722 1.384 . S
C724 C725 1.372 . S
C725 C724 1.372 . S
C725 C726 1.400 . S
C725 C730 1.490 . S
C726 H716 0.930 . S
C726 C725 1.400 . S
C726 C729 1.386 . S
H727 C743 0.930 . S
H728 C744 0.931 . S
C729 H717 0.929 . S
C729 C723 1.390 . S
C729 C726 1.386 . S
C730 C725 1.490 . S
C730 C732 1.395 . S
C730 C733 1.403 . S
H731 C737 0.930 . S
C732 H718 0.930 . S
C732 C730 1.395 . S
C732 C735 1.403 . S
C733 C730 1.403 . S
C733 C734 1.524 . S
C733 C737 1.400 . S
C734 H719 0.960 . S
C734 H720 0.960 . S
C734 H721 0.960 . S
C734 C733 1.524 . S
C735 C732 1.403 . S
C735 C736 1.392 . S
C735 C739 1.495 . S
C736 C735 1.392 . S
C736 C737 1.385 . S
C736 C738 1.478 . S
C737 H731 0.930 . S
C737 C733 1.400 . S
C737 C736 1.385 . S
C738 C736 1.478 . S
C738 C740 1.381 . S
C738 C744 1.383 . S
C739 C735 1.495 . S
C739 H745 0.959 . S
C739 H746 0.961 . S
C739 H747 0.960 . S
C740 C738 1.381 . S
C740 C741 1.394 . S
C740 H748 0.930 . S
C741 C740 1.394 . S
C741 C742 1.383 . S
C741 H749 0.929 . S
C742 C741 1.383 . S
C742 C743 1.377 . S
C743 H727 0.930 . S
C743 C742 1.377 . S
C743 C744 1.379 . S
C744 H728 0.931 . S
C744 C738 1.383 . S
C744 C743 1.379 . S
H745 C739 0.959 . S
H746 C739 0.961 . S
H747 C739 0.960 . S
H748 C740 0.930 . S
H749 C741 0.929 . S
H750 C758 0.929 . S
H751 C760 0.930 . S
H752 C762 0.930 . S
H753 C765 0.929 . S
H754 C768 0.930 . S
H755 C770 0.960 . S
H756 C770 0.960 . S
H757 C770 0.960 . S
C758 H750 0.929 . S
C758 C759 1.377 . S
C758 C760 1.384 . S
C759 C758 1.377 . S
C759 C765 1.390 . S
C760 H751 0.930 . S
C760 C758 1.384 . S
C760 C761 1.372 . S
C761 C760 1.372 . S
C761 C762 1.400 . S
C761 C766 1.490 . S
C762 H752 0.930 . S
C762 C761 1.400 . S
C762 C765 1.386 . S
H763 C779 0.930 . S
H764 C780 0.931 . S
C765 H753 0.929 . S
C765 C759 1.390 . S
C765 C762 1.386 . S
C766 C761 1.490 . S
C766 C768 1.395 . S
C766 C769 1.403 . S
H767 C773 0.930 . S
C768 H754 0.930 . S
C768 C766 1.395 . S
C768 C771 1.403 . S
C769 C766 1.403 . S
C769 C770 1.524 . S
C769 C773 1.400 . S
C770 H755 0.960 . S
C770 H756 0.960 . S
C770 H757 0.960 . S
C770 C769 1.524 . S
C771 C768 1.403 . S
C771 C772 1.392 . S
C771 C775 1.495 . S
C772 C771 1.392 . S
C772 C773 1.385 . S
C772 C774 1.478 . S
C773 H767 0.930 . S
C773 C769 1.400 . S
C773 C772 1.385 . S
C774 C772 1.478 . S
C774 C776 1.381 . S
C774 C780 1.383 . S
C775 C771 1.495 . S
C775 H781 0.959 . S
C775 H782 0.961 . S
C775 H783 0.960 . S
C776 C774 1.381 . S
C776 C777 1.394 . S
C776 H784 0.930 . S
C777 C776 1.394 . S
C777 C778 1.383 . S
C777 H785 0.929 . S
C778 C777 1.383 . S
C778 C779 1.377 . S
C779 H763 0.930 . S
C779 C778 1.377 . S
C779 C780 1.379 . S
C780 H764 0.931 . S
C780 C774 1.383 . S
C780 C779 1.379 . S
H781 C775 0.959 . S
H782 C775 0.961 . S
H783 C775 0.960 . S
H784 C776 0.930 . S
H785 C777 0.929 . S
H786 C794 0.929 . S
H787 C796 0.930 . S
H788 C798 0.930 . S
H789 C801 0.929 . S
H790 C804 0.930 . S
H791 C806 0.960 . S
H792 C806 0.960 . S
H793 C806 0.960 . S
C794 H786 0.929 . S
C794 C795 1.377 . S
C794 C796 1.384 . S
C795 C794 1.377 . S
C795 C801 1.390 . S
C796 H787 0.930 . S
C796 C794 1.384 . S
C796 C797 1.372 . S
C797 C796 1.372 . S
C797 C798 1.400 . S
C797 C802 1.490 . S
C798 H788 0.930 . S
C798 C797 1.400 . S
C798 C801 1.386 . S
H799 C815 0.930 . S
H800 C816 0.931 . S
C801 H789 0.929 . S
C801 C795 1.390 . S
C801 C798 1.386 . S
C802 C797 1.490 . S
C802 C804 1.395 . S
C802 C805 1.403 . S
H803 C809 0.930 . S
C804 H790 0.930 . S
C804 C802 1.395 . S
C804 C807 1.403 . S
C805 C802 1.403 . S
C805 C806 1.524 . S
C805 C809 1.400 . S
C806 H791 0.960 . S
C806 H792 0.960 . S
C806 H793 0.960 . S
C806 C805 1.524 . S
C807 C804 1.403 . S
C807 C808 1.392 . S
C807 C811 1.495 . S
C808 C807 1.392 . S
C808 C809 1.385 . S
C808 C810 1.478 . S
C809 H803 0.930 . S
C809 C805 1.400 . S
C809 C808 1.385 . S
C810 C808 1.478 . S
C810 C812 1.381 . S
C810 C816 1.383 . S
C811 C807 1.495 . S
C811 H817 0.959 . S
C811 H818 0.961 . S
C811 H819 0.960 . S
C812 C810 1.381 . S
C812 C813 1.394 . S
C812 H820 0.930 . S
C813 C812 1.394 . S
C813 C814 1.383 . S
C813 H821 0.929 . S
C814 C813 1.383 . S
C814 C815 1.377 . S
C815 H799 0.930 . S
C815 C814 1.377 . S
C815 C816 1.379 . S
C816 H800 0.931 . S
C816 C810 1.383 . S
C816 C815 1.379 . S
H817 C811 0.959 . S
H818 C811 0.961 . S
H819 C811 0.960 . S
H820 C812 0.930 . S
H821 C813 0.929 . S
H822 C830 0.929 . S
H823 C832 0.930 . S
H824 C834 0.930 . S
H825 C837 0.929 . S
H826 C840 0.930 . S
H827 C842 0.960 . S
H828 C842 0.960 . S
H829 C842 0.960 . S
C830 H822 0.929 . S
C830 C831 1.377 . S
C830 C832 1.384 . S
C831 C830 1.377 . S
C831 C837 1.390 . S
C832 H823 0.930 . S
C832 C830 1.384 . S
C832 C833 1.372 . S
C833 C832 1.372 . S
C833 C834 1.400 . S
C833 C838 1.490 . S
C834 H824 0.930 . S
C834 C833 1.400 . S
C834 C837 1.386 . S
H835 C851 0.930 . S
H836 C852 0.931 . S
C837 H825 0.929 . S
C837 C831 1.390 . S
C837 C834 1.386 . S
C838 C833 1.490 . S
C838 C840 1.395 . S
C838 C841 1.403 . S
H839 C845 0.930 . S
C840 H826 0.930 . S
C840 C838 1.395 . S
C840 C843 1.403 . S
C841 C838 1.403 . S
C841 C842 1.524 . S
C841 C845 1.400 . S
C842 H827 0.960 . S
C842 H828 0.960 . S
C842 H829 0.960 . S
C842 C841 1.524 . S
C843 C840 1.403 . S
C843 C844 1.392 . S
C843 C847 1.495 . S
C844 C843 1.392 . S
C844 C845 1.385 . S
C844 C846 1.478 . S
C845 H839 0.930 . S
C845 C841 1.400 . S
C845 C844 1.385 . S
C846 C844 1.478 . S
C846 C848 1.381 . S
C846 C852 1.383 . S
C847 C843 1.495 . S
C847 H853 0.959 . S
C847 H854 0.961 . S
C847 H855 0.960 . S
C848 C846 1.381 . S
C848 C849 1.394 . S
C848 H856 0.930 . S
C849 C848 1.394 . S
C849 C850 1.383 . S
C849 H857 0.929 . S
C850 C849 1.383 . S
C850 C851 1.377 . S
C851 H835 0.930 . S
C851 C850 1.377 . S
C851 C852 1.379 . S
C852 H836 0.931 . S
C852 C846 1.383 . S
C852 C851 1.379 . S
H853 C847 0.959 . S
H854 C847 0.961 . S
H855 C847 0.960 . S
H856 C848 0.930 . S
H857 C849 0.929 . S
H858 C866 0.929 . S
H859 C868 0.930 . S
H860 C870 0.930 . S
H861 C873 0.929 . S
H862 C876 0.930 . S
H863 C878 0.960 . S
H864 C878 0.960 . S
H865 C878 0.960 . S
C866 H858 0.929 . S
C866 C867 1.377 . S
C866 C868 1.384 . S
C867 C866 1.377 . S
C867 C873 1.390 . S
C868 H859 0.930 . S
C868 C866 1.384 . S
C868 C869 1.372 . S
C869 C868 1.372 . S
C869 C870 1.400 . S
C869 C874 1.490 . S
C870 H860 0.930 . S
C870 C869 1.400 . S
C870 C873 1.386 . S
H871 C887 0.930 . S
H872 C888 0.931 . S
C873 H861 0.929 . S
C873 C867 1.390 . S
C873 C870 1.386 . S
C874 C869 1.490 . S
C874 C876 1.395 . S
C874 C877 1.403 . S
H875 C881 0.930 . S
C876 H862 0.930 . S
C876 C874 1.395 . S
C876 C879 1.403 . S
C877 C874 1.403 . S
C877 C878 1.524 . S
C877 C881 1.400 . S
C878 H863 0.960 . S
C878 H864 0.960 . S
C878 H865 0.960 . S
C878 C877 1.524 . S
C879 C876 1.403 . S
C879 C880 1.392 . S
C879 C883 1.495 . S
C880 C879 1.392 . S
C880 C881 1.385 . S
C880 C882 1.478 . S
C881 H875 0.930 . S
C881 C877 1.400 . S
C881 C880 1.385 . S
C882 C880 1.478 . S
C882 C884 1.381 . S
C882 C888 1.383 . S
C883 C879 1.495 . S
C883 H889 0.959 . S
C883 H890 0.961 . S
C883 H891 0.960 . S
C884 C882 1.381 . S
C884 C885 1.394 . S
C884 H892 0.930 . S
C885 C884 1.394 . S
C885 C886 1.383 . S
C885 H893 0.929 . S
C886 C885 1.383 . S
C886 C887 1.377 . S
C887 H871 0.930 . S
C887 C886 1.377 . S
C887 C888 1.379 . S
C888 H872 0.931 . S
C888 C882 1.383 . S
C888 C887 1.379 . S
H889 C883 0.959 . S
H890 C883 0.961 . S
H891 C883 0.960 . S
H892 C884 0.930 . S
H893 C885 0.929 . S
H894 C902 0.929 . S
H895 C904 0.930 . S
H896 C906 0.930 . S
H897 C909 0.929 . S
H898 C912 0.930 . S
H899 C914 0.960 . S
H900 C914 0.960 . S
H901 C914 0.960 . S
C902 H894 0.929 . S
C902 C903 1.377 . S
C902 C904 1.384 . S
C903 C902 1.377 . S
C903 C909 1.390 . S
C904 H895 0.930 . S
C904 C902 1.384 . S
C904 C905 1.372 . S
C905 C904 1.372 . S
C905 C906 1.400 . S
C905 C910 1.490 . S
C906 H896 0.930 . S
C906 C905 1.400 . S
C906 C909 1.386 . S
H907 C923 0.930 . S
H908 C924 0.931 . S
C909 H897 0.929 . S
C909 C903 1.390 . S
C909 C906 1.386 . S
C910 C905 1.490 . S
C910 C912 1.395 . S
C910 C913 1.403 . S
H911 C917 0.930 . S
C912 H898 0.930 . S
C912 C910 1.395 . S
C912 C915 1.403 . S
C913 C910 1.403 . S
C913 C914 1.524 . S
C913 C917 1.400 . S
C914 H899 0.960 . S
C914 H900 0.960 . S
C914 H901 0.960 . S
C914 C913 1.524 . S
C915 C912 1.403 . S
C915 C916 1.392 . S
C915 C919 1.495 . S
C916 C915 1.392 . S
C916 C917 1.385 . S
C916 C918 1.478 . S
C917 H911 0.930 . S
C917 C913 1.400 . S
C917 C916 1.385 . S
C918 C916 1.478 . S
C918 C920 1.381 . S
C918 C924 1.383 . S
C919 C915 1.495 . S
C919 H925 0.959 . S
C919 H926 0.961 . S
C919 H927 0.960 . S
C920 C918 1.381 . S
C920 C921 1.394 . S
C920 H928 0.930 . S
C921 C920 1.394 . S
C921 C922 1.383 . S
C921 H929 0.929 . S
C922 C921 1.383 . S
C922 C923 1.377 . S
C923 H907 0.930 . S
C923 C922 1.377 . S
C923 C924 1.379 . S
C924 H908 0.931 . S
C924 C918 1.383 . S
C924 C923 1.379 . S
H925 C919 0.959 . S
H926 C919 0.961 . S
H927 C919 0.960 . S
H928 C920 0.930 . S
H929 C921 0.929 . S
H930 C938 0.929 . S
H931 C940 0.930 . S
H932 C942 0.930 . S
H933 C945 0.929 . S
H934 C948 0.930 . S
H935 C950 0.960 . S
H936 C950 0.960 . S
H937 C950 0.960 . S
C938 H930 0.929 . S
C938 C939 1.377 . S
C938 C940 1.384 . S
C939 C938 1.377 . S
C939 C945 1.390 . S
C940 H931 0.930 . S
C940 C938 1.384 . S
C940 C941 1.372 . S
C941 C940 1.372 . S
C941 C942 1.400 . S
C941 C946 1.490 . S
C942 H932 0.930 . S
C942 C941 1.400 . S
C942 C945 1.386 . S
H943 C959 0.930 . S
H944 C960 0.931 . S
C945 H933 0.929 . S
C945 C939 1.390 . S
C945 C942 1.386 . S
C946 C941 1.490 . S
C946 C948 1.395 . S
C946 C949 1.403 . S
H947 C953 0.930 . S
C948 H934 0.930 . S
C948 C946 1.395 . S
C948 C951 1.403 . S
C949 C946 1.403 . S
C949 C950 1.524 . S
C949 C953 1.400 . S
C950 H935 0.960 . S
C950 H936 0.960 . S
C950 H937 0.960 . S
C950 C949 1.524 . S
C951 C948 1.403 . S
C951 C952 1.392 . S
C951 C955 1.495 . S
C952 C951 1.392 . S
C952 C953 1.385 . S
C952 C954 1.478 . S
C953 H947 0.930 . S
C953 C949 1.400 . S
C953 C952 1.385 . S
C954 C952 1.478 . S
C954 C956 1.381 . S
C954 C960 1.383 . S
C955 C951 1.495 . S
C955 H961 0.959 . S
C955 H962 0.961 . S
C955 H963 0.960 . S
C956 C954 1.381 . S
C956 C957 1.394 . S
C956 H964 0.930 . S
C957 C956 1.394 . S
C957 C958 1.383 . S
C957 H965 0.929 . S
C958 C957 1.383 . S
C958 C959 1.377 . S
C959 H943 0.930 . S
C959 C958 1.377 . S
C959 C960 1.379 . S
C960 H944 0.931 . S
C960 C954 1.383 . S
C960 C959 1.379 . S
H961 C955 0.959 . S
H962 C955 0.961 . S
H963 C955 0.960 . S
H964 C956 0.930 . S
H965 C957 0.929 . S
H966 C974 0.929 . S
H967 C976 0.930 . S
H968 C978 0.930 . S
H969 C981 0.929 . S
H970 C984 0.930 . S
H971 C986 0.960 . S
H972 C986 0.960 . S
H973 C986 0.960 . S
C974 H966 0.929 . S
C974 C975 1.377 . S
C974 C976 1.384 . S
C975 C974 1.377 . S
C975 C981 1.390 1_655 S
C976 H967 0.930 . S
C976 C974 1.384 . S
C976 C977 1.372 . S
C977 C976 1.372 . S
C977 C978 1.400 1_655 S
C977 C982 1.490 . S
C978 H968 0.930 . S
C978 C977 1.400 1_455 S
C978 C981 1.386 . S
H979 C995 0.930 . S
H980 C996 0.931 . S
C981 H969 0.929 . S
C981 C975 1.390 1_455 S
C981 C978 1.386 . S
C982 C977 1.490 . S
C982 C984 1.395 1_655 S
C982 C985 1.403 . S
H983 C989 0.930 . S
C984 H970 0.930 . S
C984 C982 1.395 1_455 S
C984 C987 1.403 . S
C985 C982 1.403 . S
C985 C986 1.524 . S
C985 C989 1.400 . S
C986 H971 0.960 . S
C986 H972 0.960 . S
C986 H973 0.960 . S
C986 C985 1.524 . S
C987 C984 1.403 . S
C987 C988 1.392 . S
C987 C991 1.495 . S
C988 C987 1.392 . S
C988 C989 1.385 1_455 S
C988 C990 1.478 . S
C989 H983 0.930 . S
C989 C985 1.400 . S
C989 C988 1.385 1_655 S
C990 C988 1.478 . S
C990 C992 1.381 1_455 S
C990 C996 1.383 . S
C991 C987 1.495 . S
C991 H997 0.959 . S
C991 H998 0.961 . S
C991 H999 0.976 . S
C992 C990 1.381 1_655 S
C992 C993 1.394 . S
C992 H1000 0.930 . S
C993 C992 1.394 . S
C993 C994 1.383 1_655 S
C993 H1001 0.929 . S
C994 C993 1.383 1_455 S
C994 C995 1.377 . S
C995 H979 0.930 . S
C995 C994 1.377 . S
C995 C996 1.379 . S
C996 H980 0.931 . S
C996 C990 1.383 . S
C996 C995 1.379 . S
H997 C991 0.959 . S
H998 C991 0.961 . S
H999 C991 0.976 . S
H1000 C992 0.930 . S
H1001 C993 0.929 . S
H1002 C1010 0.929 . S
H1003 C1012 0.930 . S
H1004 C1014 0.930 . S
H1005 C1017 0.929 . S
H1006 C1020 0.930 . S
H1007 C1022 0.960 . S
H1008 C1022 0.960 . S
H1009 C1022 0.960 . S
C1010 H1002 0.929 . S
C1010 C1011 1.377 . S
C1010 C1012 1.384 . S
C1011 C1010 1.377 . S
C1011 C1017 1.390 . S
C1012 H1003 0.930 . S
C1012 C1010 1.384 . S
C1012 C1013 1.372 . S
C1013 C1012 1.372 . S
C1013 C1014 1.400 . S
C1013 C1018 1.490 . S
C1014 H1004 0.930 . S
C1014 C1013 1.400 . S
C1014 C1017 1.386 . S
H1015 C1031 0.930 . S
H1016 C1032 0.931 . S
C1017 H1005 0.929 . S
C1017 C1011 1.390 . S
C1017 C1014 1.386 . S
C1018 C1013 1.490 . S
C1018 C1020 1.395 . S
C1018 C1021 1.403 . S
H1019 C1025 0.930 . S
C1020 H1006 0.930 . S
C1020 C1018 1.395 . S
C1020 C1023 1.403 . S
C1021 C1018 1.403 . S
C1021 C1022 1.524 . S
C1021 C1025 1.400 . S
C1022 H1007 0.960 . S
C1022 H1008 0.960 . S
C1022 H1009 0.960 . S
C1022 C1021 1.524 . S
C1023 C1020 1.403 . S
C1023 C1024 1.392 . S
C1023 C1027 1.495 . S
C1024 C1023 1.392 . S
C1024 C1025 1.385 . S
C1024 C1026 1.478 . S
C1025 H1019 0.930 . S
C1025 C1021 1.400 . S
C1025 C1024 1.385 . S
C1026 C1024 1.478 . S
C1026 C1028 1.381 . S
C1026 C1032 1.383 . S
C1027 C1023 1.495 . S
C1027 H1033 0.959 . S
C1027 H1034 0.961 . S
C1027 H1035 0.960 . S
C1028 C1026 1.381 . S
C1028 C1029 1.394 . S
C1028 H1036 0.930 . S
C1029 C1028 1.394 . S
C1029 C1030 1.383 . S
C1029 H1037 0.929 . S
C1030 C1029 1.383 . S
C1030 C1031 1.377 . S
C1031 H1015 0.930 . S
C1031 C1030 1.377 . S
C1031 C1032 1.379 . S
C1032 H1016 0.931 . S
C1032 C1026 1.383 . S
C1032 C1031 1.379 . S
H1033 C1027 0.959 . S
H1034 C1027 0.961 . S
H1035 C1027 0.960 . S
H1036 C1028 0.930 . S
H1037 C1029 0.929 . S
H1038 C1046 0.919 . S
H1039 C1048 0.930 . S
H1040 C1050 0.930 . S
H1041 C1053 0.929 . S
H1042 C1056 0.930 . S
H1043 C1058 0.960 . S
H1044 C1058 0.960 . S
H1045 C1058 0.960 . S
C1046 H1038 0.919 . S
C1046 C1047 1.389 1_545 S
C1046 C1048 1.384 . S
C1047 C1046 1.389 1_565 S
C1047 C1053 1.390 . S
C1048 H1039 0.930 . S
C1048 C1046 1.384 . S
C1048 C1049 1.372 1_545 S
C1049 C1048 1.372 1_565 S
C1049 C1050 1.400 . S
C1049 C1054 1.490 . S
C1050 H1040 0.930 . S
C1050 C1049 1.400 . S
C1050 C1053 1.386 . S
H1051 C1067 0.930 . S
H1052 C1068 0.931 . S
C1053 H1041 0.929 . S
C1053 C1047 1.390 . S
C1053 C1050 1.386 . S
C1054 C1049 1.490 . S
C1054 C1056 1.395 . S
C1054 C1057 1.403 1_565 S
H1055 C1061 0.930 . S
C1056 H1042 0.930 . S
C1056 C1054 1.395 . S
C1056 C1059 1.403 . S
C1057 C1054 1.403 1_545 S
C1057 C1058 1.524 . S
C1057 C1061 1.400 . S
C1058 H1043 0.960 . S
C1058 H1044 0.960 . S
C1058 H1045 0.960 . S
C1058 C1057 1.524 . S
C1059 C1056 1.403 . S
C1059 C1060 1.392 . S
C1059 C1063 1.495 . S
C1060 C1059 1.392 . S
C1060 C1061 1.385 1_565 S
C1060 C1062 1.478 . S
C1061 H1055 0.930 . S
C1061 C1057 1.400 . S
C1061 C1060 1.385 1_545 S
C1062 C1060 1.478 . S
C1062 C1064 1.381 1_565 S
C1062 C1068 1.383 . S
C1063 C1059 1.495 . S
C1063 H1069 0.959 . S
C1063 H1070 0.961 . S
C1063 H1071 0.960 . S
C1064 C1062 1.381 1_545 S
C1064 C1065 1.394 . S
C1064 H1072 0.930 . S
C1065 C1064 1.394 . S
C1065 C1066 1.383 . S
C1065 H1073 0.929 . S
C1066 C1065 1.383 . S
C1066 C1067 1.377 1_545 S
C1067 H1051 0.930 . S
C1067 C1066 1.377 1_565 S
C1067 C1068 1.379 . S
C1068 H1052 0.931 . S
C1068 C1062 1.383 . S
C1068 C1067 1.379 . S
H1069 C1063 0.959 . S
H1070 C1063 0.961 . S
H1071 C1063 0.960 . S
H1072 C1064 0.930 . S
H1073 C1065 0.929 . S
H1074 C1082 0.929 . S
H1075 C1084 0.930 . S
H1076 C1086 0.930 . S
H1077 C1089 0.929 . S
H1078 C1092 0.930 . S
H1079 C1094 0.960 . S
H1080 C1094 0.960 . S
H1081 C1094 0.960 . S
C1082 H1074 0.929 . S
C1082 C1083 1.377 . S
C1082 C1084 1.384 . S
C1083 C1082 1.377 . S
C1083 C1089 1.390 . S
C1084 H1075 0.930 . S
C1084 C1082 1.384 . S
C1084 C1085 1.372 . S
C1085 C1084 1.372 . S
C1085 C1086 1.400 . S
C1085 C1090 1.490 . S
C1086 H1076 0.930 . S
C1086 C1085 1.400 . S
C1086 C1089 1.386 . S
H1087 C1103 0.930 . S
H1088 C1104 0.931 . S
C1089 H1077 0.929 . S
C1089 C1083 1.390 . S
C1089 C1086 1.386 . S
C1090 C1085 1.490 . S
C1090 C1092 1.395 . S
C1090 C1093 1.403 . S
H1091 C1097 0.930 . S
C1092 H1078 0.930 . S
C1092 C1090 1.395 . S
C1092 C1095 1.403 . S
C1093 C1090 1.403 . S
C1093 C1094 1.524 . S
C1093 C1097 1.400 . S
C1094 H1079 0.960 . S
C1094 H1080 0.960 . S
C1094 H1081 0.960 . S
C1094 C1093 1.524 . S
C1095 C1092 1.403 . S
C1095 C1096 1.392 . S
C1095 C1099 1.495 . S
C1096 C1095 1.392 . S
C1096 C1097 1.385 . S
C1096 C1098 1.478 . S
C1097 H1091 0.930 . S
C1097 C1093 1.400 . S
C1097 C1096 1.385 . S
C1098 C1096 1.478 . S
C1098 C1100 1.381 . S
C1098 C1104 1.383 . S
C1099 C1095 1.495 . S
C1099 H1105 0.959 . S
C1099 H1106 0.961 . S
C1099 H1107 0.960 . S
C1100 C1098 1.381 . S
C1100 C1101 1.394 . S
C1100 H1108 0.930 . S
C1101 C1100 1.394 . S
C1101 C1102 1.383 . S
C1101 H1109 0.929 . S
C1102 C1101 1.383 . S
C1102 C1103 1.377 . S
C1103 H1087 0.930 . S
C1103 C1102 1.377 . S
C1103 C1104 1.379 . S
C1104 H1088 0.931 . S
C1104 C1098 1.383 . S
C1104 C1103 1.379 . S
H1105 C1099 0.959 . S
H1106 C1099 0.961 . S
H1107 C1099 0.960 . S
H1108 C1100 0.930 . S
H1109 C1101 0.929 . S
H1110 C1118 0.929 . S
H1111 C1120 0.930 . S
H1112 C1122 0.930 . S
H1113 C1125 0.929 . S
H1114 C1128 0.930 . S
H1115 C1130 0.960 . S
H1116 C1130 0.960 . S
H1117 C1130 0.960 . S
C1118 H1110 0.929 . S
C1118 C1119 1.377 . S
C1118 C1120 1.384 . S
C1119 C1118 1.377 . S
C1119 C1125 1.390 . S
C1120 H1111 0.930 . S
C1120 C1118 1.384 . S
C1120 C1121 1.372 . S
C1121 C1120 1.372 . S
C1121 C1122 1.400 . S
C1121 C1126 1.490 . S
C1122 H1112 0.930 . S
C1122 C1121 1.400 . S
C1122 C1125 1.386 . S
H1123 C1139 0.930 . S
H1124 C1140 0.931 . S
C1125 H1113 0.929 . S
C1125 C1119 1.390 . S
C1125 C1122 1.386 . S
C1126 C1121 1.490 . S
C1126 C1128 1.395 . S
C1126 C1129 1.403 . S
H1127 C1133 0.930 . S
C1128 H1114 0.930 . S
C1128 C1126 1.395 . S
C1128 C1131 1.403 . S
C1129 C1126 1.403 . S
C1129 C1130 1.524 . S
C1129 C1133 1.400 . S
C1130 H1115 0.960 . S
C1130 H1116 0.960 . S
C1130 H1117 0.960 . S
C1130 C1129 1.524 . S
C1131 C1128 1.403 . S
C1131 C1132 1.392 . S
C1131 C1135 1.495 . S
C1132 C1131 1.392 . S
C1132 C1133 1.385 . S
C1132 C1134 1.478 . S
C1133 H1127 0.930 . S
C1133 C1129 1.400 . S
C1133 C1132 1.385 . S
C1134 C1132 1.478 . S
C1134 C1136 1.381 . S
C1134 C1140 1.383 . S
C1135 C1131 1.495 . S
C1135 H1141 0.959 . S
C1135 H1142 0.961 . S
C1135 H1143 0.960 . S
C1136 C1134 1.381 . S
C1136 C1137 1.394 . S
C1136 H1144 0.930 . S
C1137 C1136 1.394 . S
C1137 C1138 1.383 . S
C1137 H1145 0.929 . S
C1138 C1137 1.383 . S
C1138 C1139 1.377 . S
C1139 H1123 0.930 . S
C1139 C1138 1.377 . S
C1139 C1140 1.379 . S
C1140 H1124 0.931 . S
C1140 C1134 1.383 . S
C1140 C1139 1.379 . S
H1141 C1135 0.959 . S
H1142 C1135 0.961 . S
H1143 C1135 0.960 . S
H1144 C1136 0.930 . S
H1145 C1137 0.929 . S
H1146 C1154 0.929 . S
H1147 C1156 0.930 . S
H1148 C1158 0.930 . S
H1149 C1161 0.929 . S
H1150 C1164 0.930 . S
H1151 C1166 0.960 . S
H1152 C1166 0.960 . S
H1153 C1166 0.960 . S
C1154 H1146 0.929 . S
C1154 C1155 1.377 . S
C1154 C1156 1.384 . S
C1155 C1154 1.377 . S
C1155 C1161 1.390 . S
C1156 H1147 0.930 . S
C1156 C1154 1.384 . S
C1156 C1157 1.372 . S
C1157 C1156 1.372 . S
C1157 C1158 1.400 . S
C1157 C1162 1.490 . S
C1158 H1148 0.930 . S
C1158 C1157 1.400 . S
C1158 C1161 1.386 . S
H1159 C1175 0.930 . S
H1160 C1176 0.931 . S
C1161 H1149 0.929 . S
C1161 C1155 1.390 . S
C1161 C1158 1.386 . S
C1162 C1157 1.490 . S
C1162 C1164 1.395 . S
C1162 C1165 1.403 . S
H1163 C1169 0.930 . S
C1164 H1150 0.930 . S
C1164 C1162 1.395 . S
C1164 C1167 1.403 . S
C1165 C1162 1.403 . S
C1165 C1166 1.524 . S
C1165 C1169 1.400 . S
C1166 H1151 0.960 . S
C1166 H1152 0.960 . S
C1166 H1153 0.960 . S
C1166 C1165 1.524 . S
C1167 C1164 1.403 . S
C1167 C1168 1.392 . S
C1167 C1171 1.495 . S
C1168 C1167 1.392 . S
C1168 C1169 1.385 . S
C1168 C1170 1.478 . S
C1169 H1163 0.930 . S
C1169 C1165 1.400 . S
C1169 C1168 1.385 . S
C1170 C1168 1.478 . S
C1170 C1172 1.381 . S
C1170 C1176 1.383 . S
C1171 C1167 1.495 . S
C1171 H1177 0.959 . S
C1171 H1178 0.961 . S
C1171 H1179 0.960 . S
C1172 C1170 1.381 . S
C1172 C1173 1.394 . S
C1172 H1180 0.930 . S
C1173 C1172 1.394 . S
C1173 C1174 1.383 . S
C1173 H1181 0.929 . S
C1174 C1173 1.383 . S
C1174 C1175 1.377 . S
C1175 H1159 0.930 . S
C1175 C1174 1.377 . S
C1175 C1176 1.379 . S
C1176 H1160 0.931 . S
C1176 C1170 1.383 . S
C1176 C1175 1.379 . S
H1177 C1171 0.959 . S
H1178 C1171 0.961 . S
H1179 C1171 0.960 . S
H1180 C1172 0.930 . S
H1181 C1173 0.929 . S
H1182 C1190 0.929 . S
H1183 C1192 0.930 . S
H1184 C1194 0.930 . S
H1185 C1197 0.929 . S
H1186 C1200 0.930 . S
H1187 C1202 0.960 . S
H1188 C1202 0.960 . S
H1189 C1202 0.960 . S
C1190 H1182 0.929 . S
C1190 C1191 1.377 . S
C1190 C1192 1.384 . S
C1191 C1190 1.377 . S
C1191 C1197 1.390 . S
C1192 H1183 0.930 . S
C1192 C1190 1.384 . S
C1192 C1193 1.372 . S
C1193 C1192 1.372 . S
C1193 C1194 1.400 . S
C1193 C1198 1.490 . S
C1194 H1184 0.930 . S
C1194 C1193 1.400 . S
C1194 C1197 1.386 . S
H1195 C1211 0.930 . S
H1196 C1212 0.931 . S
C1197 H1185 0.929 . S
C1197 C1191 1.390 . S
C1197 C1194 1.386 . S
C1198 C1193 1.490 . S
C1198 C1200 1.395 . S
C1198 C1201 1.403 . S
H1199 C1205 0.930 . S
C1200 H1186 0.930 . S
C1200 C1198 1.395 . S
C1200 C1203 1.403 . S
C1201 C1198 1.403 . S
C1201 C1202 1.524 . S
C1201 C1205 1.400 . S
C1202 H1187 0.960 . S
C1202 H1188 0.960 . S
C1202 H1189 0.960 . S
C1202 C1201 1.524 . S
C1203 C1200 1.403 . S
C1203 C1204 1.392 . S
C1203 C1207 1.495 . S
C1204 C1203 1.392 . S
C1204 C1205 1.385 . S
C1204 C1206 1.478 . S
C1205 H1199 0.930 . S
C1205 C1201 1.400 . S
C1205 C1204 1.385 . S
C1206 C1204 1.478 . S
C1206 C1208 1.381 . S
C1206 C1212 1.383 . S
C1207 C1203 1.495 . S
C1207 H1213 0.959 . S
C1207 H1214 0.961 . S
C1207 H1215 0.960 . S
C1208 C1206 1.381 . S
C1208 C1209 1.394 . S
C1208 H1216 0.930 . S
C1209 C1208 1.394 . S
C1209 C1210 1.383 . S
C1209 H1217 0.929 . S
C1210 C1209 1.383 . S
C1210 C1211 1.377 . S
C1211 H1195 0.930 . S
C1211 C1210 1.377 . S
C1211 C1212 1.379 . S
C1212 H1196 0.931 . S
C1212 C1206 1.383 . S
C1212 C1211 1.379 . S
H1213 C1207 0.959 . S
H1214 C1207 0.961 . S
H1215 C1207 0.960 . S
H1216 C1208 0.930 . S
H1217 C1209 0.929 . S
H1218 C1226 0.929 . S
H1219 C1228 0.930 . S
H1220 C1230 0.930 . S
H1221 C1233 0.929 . S
H1222 C1236 0.930 . S
H1223 C1238 0.960 . S
H1224 C1238 0.960 . S
H1225 C1238 0.960 . S
C1226 H1218 0.929 . S
C1226 C1227 1.377 . S
C1226 C1228 1.384 . S
C1227 C1226 1.377 . S
C1227 C1233 1.390 . S
C1228 H1219 0.930 . S
C1228 C1226 1.384 . S
C1228 C1229 1.372 . S
C1229 C1228 1.372 . S
C1229 C1230 1.400 . S
C1229 C1234 1.490 . S
C1230 H1220 0.930 . S
C1230 C1229 1.400 . S
C1230 C1233 1.386 . S
H1231 C1247 0.930 . S
H1232 C1248 0.931 . S
C1233 H1221 0.929 . S
C1233 C1227 1.390 . S
C1233 C1230 1.386 . S
C1234 C1229 1.490 . S
C1234 C1236 1.395 . S
C1234 C1237 1.403 . S
H1235 C1241 0.930 . S
C1236 H1222 0.930 . S
C1236 C1234 1.395 . S
C1236 C1239 1.403 . S
C1237 C1234 1.403 . S
C1237 C1238 1.524 . S
C1237 C1241 1.400 . S
C1238 H1223 0.960 . S
C1238 H1224 0.960 . S
C1238 H1225 0.960 . S
C1238 C1237 1.524 . S
C1239 C1236 1.403 . S
C1239 C1240 1.392 . S
C1239 C1243 1.495 . S
C1240 C1239 1.392 . S
C1240 C1241 1.385 . S
C1240 C1242 1.478 . S
C1241 H1235 0.930 . S
C1241 C1237 1.400 . S
C1241 C1240 1.385 . S
C1242 C1240 1.478 . S
C1242 C1244 1.381 . S
C1242 C1248 1.383 . S
C1243 C1239 1.495 . S
C1243 H1249 0.959 . S
C1243 H1250 0.961 . S
C1243 H1251 0.960 . S
C1244 C1242 1.381 . S
C1244 C1245 1.394 . S
C1244 H1252 0.930 . S
C1245 C1244 1.394 . S
C1245 C1246 1.383 . S
C1245 H1253 0.929 . S
C1246 C1245 1.383 . S
C1246 C1247 1.377 . S
C1247 H1231 0.930 . S
C1247 C1246 1.377 . S
C1247 C1248 1.379 . S
C1248 H1232 0.931 . S
C1248 C1242 1.383 . S
C1248 C1247 1.379 . S
H1249 C1243 0.959 . S
H1250 C1243 0.961 . S
H1251 C1243 0.960 . S
H1252 C1244 0.930 . S
H1253 C1245 0.929 . S
H1254 C1262 0.929 . S
H1255 C1264 0.930 . S
H1256 C1266 0.930 . S
H1257 C1269 0.929 . S
H1258 C1272 0.930 . S
H1259 C1274 0.960 . S
H1260 C1274 0.960 . S
H1261 C1274 0.960 . S
C1262 H1254 0.929 . S
C1262 C1263 1.377 . S
C1262 C1264 1.384 . S
C1263 C1262 1.377 . S
C1263 C1269 1.390 . S
C1264 H1255 0.930 . S
C1264 C1262 1.384 . S
C1264 C1265 1.372 . S
C1265 C1264 1.372 . S
C1265 C1266 1.400 . S
C1265 C1270 1.490 . S
C1266 H1256 0.930 . S
C1266 C1265 1.400 . S
C1266 C1269 1.386 . S
H1267 C1283 0.930 . S
H1268 C1284 0.931 . S
C1269 H1257 0.929 . S
C1269 C1263 1.390 . S
C1269 C1266 1.386 . S
C1270 C1265 1.490 . S
C1270 C1272 1.395 . S
C1270 C1273 1.403 . S
H1271 C1277 0.930 . S
C1272 H1258 0.930 . S
C1272 C1270 1.395 . S
C1272 C1275 1.403 . S
C1273 C1270 1.403 . S
C1273 C1274 1.524 . S
C1273 C1277 1.400 . S
C1274 H1259 0.960 . S
C1274 H1260 0.960 . S
C1274 H1261 0.960 . S
C1274 C1273 1.524 . S
C1275 C1272 1.403 . S
C1275 C1276 1.392 . S
C1275 C1279 1.495 . S
C1276 C1275 1.392 . S
C1276 C1277 1.385 . S
C1276 C1278 1.478 . S
C1277 H1271 0.930 . S
C1277 C1273 1.400 . S
C1277 C1276 1.385 . S
C1278 C1276 1.478 . S
C1278 C1280 1.381 . S
C1278 C1284 1.383 . S
C1279 C1275 1.495 . S
C1279 H1285 0.959 . S
C1279 H1286 0.961 . S
C1279 H1287 0.960 . S
C1280 C1278 1.381 . S
C1280 C1281 1.394 . S
C1280 H1288 0.930 . S
C1281 C1280 1.394 . S
C1281 C1282 1.383 . S
C1281 H1289 0.929 . S
C1282 C1281 1.383 . S
C1282 C1283 1.377 . S
C1283 H1267 0.930 . S
C1283 C1282 1.377 . S
C1283 C1284 1.379 . S
C1284 H1268 0.931 . S
C1284 C1278 1.383 . S
C1284 C1283 1.379 . S
H1285 C1279 0.959 . S
H1286 C1279 0.961 . S
H1287 C1279 0.960 . S
H1288 C1280 0.930 . S
H1289 C1281 0.929 . S
C543 C1 1.771 . S
C562 C328 1.611 . S
C579 C90 1.772 . S
C598 C417 1.603 . S
C615 C179 1.778 . S
C634 C506 1.588 . S
C651 C268 1.772 . S
C670 C61 1.652 . S
C687 C357 1.778 . S
C706 C150 1.577 . S
C723 C446 1.772 . S
C742 C239 1.653 . S
C759 C463 3.212 . S
C778 C73 3.179 . S
C795 C162 3.169 . S
C814 C285 3.201 1_565 S
C831 C374 3.212 1_455 S
C850 C251 3.177 . S
C867 C107 3.216 . S
C886 C340 3.161 . S
C903 C429 3.165 . S
C922 C196 3.218 1_545 S
C939 C18 3.217 1_655 S
C958 C518 3.148 . S
C975 C419 1.301 . S
C994 C63 1.304 . S
C1011 C508 1.302 . S
C1030 C152 1.300 . S
C1047 C241 1.300 . S
C1066 C330 1.295 . S
C1083 C26 0.592 . S
C1102 C159 0.818 . S
C1119 C248 0.746 . S
C1138 C115 0.531 . S
C1155 C70 0.757 . S
C1174 C204 0.513 . S
C1191 C515 0.757 . S
C1210 C293 0.675 . S
C1227 C337 0.758 . S
C1246 C382 0.667 . S
C1263 C471 0.612 . S
C1282 C426 0.839 . S
