# Generated by pormake.
# Topology wkj, (6)-cn, num edge types: 1
# Building blocks:
#     Node 0, Type 0, BuildingBlock: BETDAH_clean_sbu_0, # of connection points: 6
#     Node 1, Type 0, BuildingBlock: BETDAH_clean_sbu_0, # of connection points: 6
#     Node 2, Type 0, BuildingBlock: BETDAH_clean_sbu_0, # of connection points: 6
#     Node 3, Type 0, BuildingBlock: BETDAH_clean_sbu_0, # of connection points: 6
#     Node 4, Type 0, BuildingBlock: BETDAH_clean_sbu_0, # of connection points: 6
#     Node 5, Type 0, BuildingBlock: BETDAH_clean_sbu_0, # of connection points: 6
#     Node 6, Type 0, BuildingBlock: BETDAH_clean_sbu_0, # of connection points: 6
#     Node 7, Type 0, BuildingBlock: BETDAH_clean_sbu_0, # of connection points: 6
#     Node 8, Type 0, BuildingBlock: BETDAH_clean_sbu_0, # of connection points: 6
#     Node 9, Type 0, BuildingBlock: BETDAH_clean_sbu_0, # of connection points: 6
#     Node 10, Type 0, BuildingBlock: BETDAH_clean_sbu_0, # of connection points: 6
#     Node 11, Type 0, BuildingBlock: BETDAH_clean_sbu_0, # of connection points: 6
#     Edge 12, Type (0, 0), BuildingBlock: ZUJKAS_clean_linker_0, # of connection points: 2
#     Edge 13, Type (0, 0), BuildingBlock: ZUJKAS_clean_linker_0, # of connection points: 2
#     Edge 14, Type (0, 0), BuildingBlock: ZUJKAS_clean_linker_0, # of connection points: 2
#     Edge 15, Type (0, 0), BuildingBlock: ZUJKAS_clean_linker_0, # of connection points: 2
#     Edge 16, Type (0, 0), BuildingBlock: ZUJKAS_clean_linker_0, # of connection points: 2
#     Edge 17, Type (0, 0), BuildingBlock: ZUJKAS_clean_linker_0, # of connection points: 2
#     Edge 18, Type (0, 0), BuildingBlock: ZUJKAS_clean_linker_0, # of connection points: 2
#     Edge 19, Type (0, 0), BuildingBlock: ZUJKAS_clean_linker_0, # of connection points: 2
#     Edge 20, Type (0, 0), BuildingBlock: ZUJKAS_clean_linker_0, # of connection points: 2
#     Edge 21, Type (0, 0), BuildingBlock: ZUJKAS_clean_linker_0, # of connection points: 2
#     Edge 22, Type (0, 0), BuildingBlock: ZUJKAS_clean_linker_0, # of connection points: 2
#     Edge 23, Type (0, 0), BuildingBlock: ZUJKAS_clean_linker_0, # of connection points: 2
#     Edge 24, Type (0, 0), BuildingBlock: ZUJKAS_clean_linker_0, # of connection points: 2
#     Edge 25, Type (0, 0), BuildingBlock: ZUJKAS_clean_linker_0, # of connection points: 2
#     Edge 26, Type (0, 0), BuildingBlock: ZUJKAS_clean_linker_0, # of connection points: 2
#     Edge 27, Type (0, 0), BuildingBlock: ZUJKAS_clean_linker_0, # of connection points: 2
#     Edge 28, Type (0, 0), BuildingBlock: ZUJKAS_clean_linker_0, # of connection points: 2
#     Edge 29, Type (0, 0), BuildingBlock: ZUJKAS_clean_linker_0, # of connection points: 2
#     Edge 30, Type (0, 0), BuildingBlock: ZUJKAS_clean_linker_0, # of connection points: 2
#     Edge 31, Type (0, 0), BuildingBlock: ZUJKAS_clean_linker_0, # of connection points: 2
#     Edge 32, Type (0, 0), BuildingBlock: ZUJKAS_clean_linker_0, # of connection points: 2
#     Edge 33, Type (0, 0), BuildingBlock: ZUJKAS_clean_linker_0, # of connection points: 2
#     Edge 34, Type (0, 0), BuildingBlock: ZUJKAS_clean_linker_0, # of connection points: 2
#     Edge 35, Type (0, 0), BuildingBlock: ZUJKAS_clean_linker_0, # of connection points: 2
#     Edge 36, Type (0, 0), BuildingBlock: ZUJKAS_clean_linker_0, # of connection points: 2
#     Edge 37, Type (0, 0), BuildingBlock: ZUJKAS_clean_linker_0, # of connection points: 2
#     Edge 38, Type (0, 0), BuildingBlock: ZUJKAS_clean_linker_0, # of connection points: 2
#     Edge 39, Type (0, 0), BuildingBlock: ZUJKAS_clean_linker_0, # of connection points: 2
#     Edge 40, Type (0, 0), BuildingBlock: ZUJKAS_clean_linker_0, # of connection points: 2
#     Edge 41, Type (0, 0), BuildingBlock: ZUJKAS_clean_linker_0, # of connection points: 2
#     Edge 42, Type (0, 0), BuildingBlock: ZUJKAS_clean_linker_0, # of connection points: 2
#     Edge 43, Type (0, 0), BuildingBlock: ZUJKAS_clean_linker_0, # of connection points: 2
#     Edge 44, Type (0, 0), BuildingBlock: ZUJKAS_clean_linker_0, # of connection points: 2
#     Edge 45, Type (0, 0), BuildingBlock: ZUJKAS_clean_linker_0, # of connection points: 2
#     Edge 46, Type (0, 0), BuildingBlock: ZUJKAS_clean_linker_0, # of connection points: 2
#     Edge 47, Type (0, 0), BuildingBlock: ZUJKAS_clean_linker_0, # of connection points: 2
# Relax obj value: 0.564
# Max RMSD: 0.172
# Mean RMSD: 0.172
data_MOF--net-wkj--node1-BETDAH_clean_sbu_0--edge1-ZUJKAS_clean_linker_0
_symmetry_space_group_name_H-M    P1
_symmetry_Int_Tables_number       1
_symmetry_cell_setting            triclinic
loop_
_symmetry_equiv_pos_as_xyz
'x, y, z'
_cell_length_a     62.026644
_cell_length_b     61.851194
_cell_length_c     36.3982216
_cell_angle_alpha  90.260964
_cell_angle_beta   89.874315
_cell_angle_gamma 119.32335
loop_
_atom_site_label
_atom_site_type_symbol
_atom_site_fract_x
_atom_site_fract_y
_atom_site_fract_z
_atom_type_partial_charge
Ho0 Ho 0.46422 0.07843 0.35243 0.0
Ho1 Ho 0.51342 0.08373 0.34229 0.0
C2 C 0.50549 0.10099 0.41939 0.0
C3 C 0.42168 0.07224 0.37378 0.0
C4 C 0.40848 0.06881 0.40881 0.0
C5 C 0.40439 0.04936 0.43258 0.0
C6 C 0.39288 0.04701 0.46632 0.0
C7 C 0.38473 0.06371 0.47664 0.0
C8 C 0.38794 0.08264 0.45245 0.0
C9 C 0.39993 0.08527 0.4188 0.0
C10 C 0.49497 0.11875 0.312 0.0
C11 C 0.47131 0.05189 0.28005 0.0
C12 C 0.55773 0.0982 0.31895 0.0
C13 C 0.58002 0.12271 0.31839 0.0
C14 C 0.57783 0.14421 0.32037 0.0
C15 C 0.59832 0.1674 0.31382 0.0
C16 C 0.62149 0.16958 0.30556 0.0
C17 C 0.62396 0.14811 0.30685 0.0
C18 C 0.60331 0.12483 0.31292 0.0
C19 C 0.48241 0.04284 0.38137 0.0
O20 O 0.48166 0.08817 0.41049 0.0
O21 O 0.52223 0.10678 0.39344 0.0
O22 O 0.44102 0.09398 0.36871 0.0
O23 O 0.4254 0.05416 0.36292 0.0
O24 O 0.47243 0.10287 0.30331 0.0
O25 O 0.50069 0.11165 0.34118 0.0
O26 O 0.49506 0.06348 0.28911 0.0
O27 O 0.45488 0.05343 0.30183 0.0
O28 O 0.53975 0.09614 0.29791 0.0
O29 O 0.54999 0.08828 0.35126 0.0
O30 O 0.50618 0.05484 0.38562 0.0
O31 O 0.47678 0.05143 0.35423 0.0
H32 H 0.41002 0.0359 0.42523 0.0
H33 H 0.39011 0.03194 0.4843 0.0
H34 H 0.38161 0.09558 0.45986 0.0
H35 H 0.40265 0.10024 0.40066 0.0
H36 H 0.55996 0.14293 0.32494 0.0
H37 H 0.59548 0.18332 0.31269 0.0
H38 H 0.6416 0.14914 0.30138 0.0
H39 H 0.60536 0.10842 0.31179 0.0
Ho40 Ho 0.38693 0.46896 0.69019 0.0
Ho41 Ho 0.42646 0.52039 0.67561 0.0
C42 C 0.40516 0.51103 0.75722 0.0
C43 C 0.35481 0.42554 0.71409 0.0
C44 C 0.33932 0.41762 0.74709 0.0
C45 C 0.3378 0.4353 0.76951 0.0
C46 C 0.32586 0.42847 0.80336 0.0
C47 C 0.31494 0.40371 0.81528 0.0
C48 C 0.31501 0.38574 0.79142 0.0
C49 C 0.32729 0.3927 0.75765 0.0
C50 C 0.37129 0.49732 0.65482 0.0
C51 C 0.41858 0.47754 0.61497 0.0
C52 C 0.44721 0.56486 0.65008 0.0
C53 C 0.43897 0.58326 0.65481 0.0
C54 C 0.41875 0.57765 0.67794 0.0
C55 C 0.40593 0.59085 0.67517 0.0
C56 C 0.41327 0.60996 0.64937 0.0
C57 C 0.43505 0.6172 0.62897 0.0
C58 C 0.44773 0.60376 0.63147 0.0
C59 C 0.44319 0.49325 0.71102 0.0
O60 O 0.39208 0.48729 0.74744 0.0
O61 O 0.4173 0.52811 0.7322 0.0
O62 O 0.3496 0.43812 0.69052 0.0
O63 O 0.37854 0.43551 0.71998 0.0
O64 O 0.36598 0.4751 0.64519 0.0
O65 O 0.3859 0.50409 0.68203 0.0
O66 O 0.42792 0.5016 0.62194 0.0
O67 O 0.40387 0.46085 0.63947 0.0
O68 O 0.4318 0.54541 0.63105 0.0
O69 O 0.45501 0.55893 0.67969 0.0
O70 O 0.45379 0.51725 0.71282 0.0
O71 O 0.42673 0.48554 0.68665 0.0
H72 H 0.3467 0.4546 0.76151 0.0
H73 H 0.32657 0.44294 0.82103 0.0
H74 H 0.30644 0.36645 0.79947 0.0
H75 H 0.3281 0.3788 0.74041 0.0
H76 H 0.41158 0.56173 0.69591 0.0
H77 H 0.38913 0.58482 0.69096 0.0
H78 H 0.44087 0.63163 0.60846 0.0
H79 H 0.46313 0.60818 0.61319 0.0
Ho80 Ho 0.91588 0.40623 1.02624 0.0
Ho81 Ho 0.87779 0.41835 0.99771 0.0
C82 C 0.87848 0.41004 1.08585 0.0
C83 C 0.94665 0.3982 1.0632 0.0
C84 C 0.94301 0.38356 1.09649 0.0
C85 C 0.96199 0.39163 1.12252 0.0
C86 C 0.95758 0.37989 0.15654 0.0
C87 C 0.93412 0.3599 0.16493 0.0
C88 C 0.91541 0.35122 0.13826 0.0
C89 C 0.91976 0.36312 1.10435 0.0
C90 C 0.87359 0.36746 0.99847 0.0
C91 C 0.92639 0.42836 0.94532 0.0
C92 C 0.83897 0.41246 0.96337 0.0
C93 C 0.81196 0.39658 0.96794 0.0
C94 C 0.80062 0.37088 0.96178 0.0
C95 C 0.77494 0.3565 0.96114 0.0
C96 C 0.75991 0.36743 0.96645 0.0
C97 C 0.77126 0.39281 0.97543 0.0
C98 C 0.79706 0.40727 0.97602 0.0
C99 C 0.91463 0.45712 1.03085 0.0
O100 O 0.89918 0.40941 1.07973 0.0
O101 O 0.86471 0.41019 1.05781 0.0
O102 O 0.93544 0.3857 1.03365 0.0
O103 O 0.94422 0.41784 1.06792 0.0
O104 O 0.89562 0.37125 0.99145 0.0
O105 O 0.87513 0.38435 1.01937 0.0
O106 O 0.90319 0.42461 0.94664 0.0
O107 O 0.93678 0.42555 0.97523 0.0
O108 O 0.85144 0.40129 0.95391 0.0
O109 O 0.85046 0.4299 0.98791 0.0
O110 O 0.89299 0.45497 1.02545 0.0
O111 O 0.91682 0.44111 1.01165 0.0
H112 H 0.97993 0.40752 1.11702 0.0
H113 H 0.97234 0.3868 0.17665 0.0
H114 H 0.89713 0.33603 0.14426 0.0
H115 H 0.90471 0.3569 1.0848 0.0
H116 H 0.81148 0.362 0.95536 0.0
H117 H 0.767 0.33722 0.95328 0.0
H118 H 0.76021 0.40178 0.97978 0.0
H119 H 0.80534 0.42702 0.98108 0.0
Ho120 Ho 0.53543 0.92584 0.36007 0.0
Ho121 Ho 0.48496 0.91688 0.34621 0.0
C122 C 0.49635 0.90189 0.42613 0.0
C123 C 0.58216 0.94203 0.37036 0.0
C124 C 0.59813 0.94383 0.4012 0.0
C125 C 0.59159 0.94604 0.43731 0.0
C126 C 0.60763 0.9493 0.46621 0.0
C127 C 0.63041 0.95009 0.45964 0.0
C128 C 0.63647 0.947 0.42345 0.0
C129 C 0.62044 0.94394 0.39445 0.0
C130 C 0.50406 0.87854 0.33989 0.0
C131 C 0.52409 0.94915 0.28483 0.0
C132 C 0.43756 0.89439 0.33679 0.0
C133 C 0.42018 0.86764 0.33567 0.0
C134 C 0.39561 0.85864 0.32483 0.0
C135 C 0.3809 0.83357 0.31555 0.0
C136 C 0.39082 0.81734 0.3161 0.0
C137 C 0.41484 0.82619 0.33019 0.0
C138 C 0.42928 0.85106 0.34004 0.0
C139 C 0.5159 0.96168 0.37846 0.0
O140 O 0.52015 0.91701 0.41874 0.0
O141 O 0.48002 0.89513 0.39903 0.0
O142 O 0.56692 0.91966 0.35873 0.0
O143 O 0.57183 0.95604 0.37245 0.0
O144 O 0.52081 0.88529 0.36508 0.0
O145 O 0.50481 0.89755 0.32513 0.0
O146 O 0.50032 0.93657 0.29277 0.0
O147 O 0.54064 0.94821 0.30703 0.0
O148 O 0.45345 0.90219 0.30983 0.0
O149 O 0.44807 0.90344 0.3684 0.0
O150 O 0.49813 0.95808 0.35606 0.0
O151 O 0.51416 0.94108 0.38427 0.0
H152 H 0.57436 0.94588 0.44308 0.0
H153 H 0.6025 0.95213 0.49352 0.0
H154 H 0.6537 0.94726 0.41746 0.0
H155 H 0.62564 0.94205 0.36668 0.0
H156 H 0.38826 0.87119 0.3215 0.0
H157 H 0.3623 0.8273 0.30571 0.0
H158 H 0.42339 0.81457 0.33075 0.0
H159 H 0.44823 0.85775 0.34849 0.0
Ho160 Ho 0.61078 0.53218 0.68927 0.0
Ho161 Ho 0.56857 0.48277 0.6813 0.0
C162 C 0.59592 0.49219 0.75648 0.0
C163 C 0.64646 0.57487 0.70999 0.0
C164 C 0.65525 0.58744 0.7455 0.0
C165 C 0.63837 0.58499 0.77299 0.0
C166 C 0.64678 0.59623 0.80707 0.0
C167 C 0.67228 0.60998 0.81454 0.0
C168 C 0.6892 0.61254 0.78687 0.0
C169 C 0.6807 0.60127 0.75257 0.0
C170 C 0.62133 0.50113 0.64947 0.0
C171 C 0.57582 0.52444 0.61931 0.0
C172 C 0.53946 0.43765 0.66069 0.0
C173 C 0.54253 0.41562 0.663 0.0
C174 C 0.56625 0.41861 0.66764 0.0
C175 C 0.57023 0.39842 0.66384 0.0
C176 C 0.55043 0.37463 0.65584 0.0
C177 C 0.52627 0.37139 0.65488 0.0
C178 C 0.5224 0.39181 0.65805 0.0
C179 C 0.55865 0.5126 0.72411 0.0
O180 O 0.60508 0.51594 0.74764 0.0
O181 O 0.58541 0.4752 0.73063 0.0
O182 O 0.64908 0.55542 0.70491 0.0
O183 O 0.62492 0.5713 0.69897 0.0
O184 O 0.62701 0.52344 0.63997 0.0
O185 O 0.60874 0.49576 0.67872 0.0
O186 O 0.56453 0.50068 0.62871 0.0
O187 O 0.59393 0.54114 0.64007 0.0
O188 O 0.55505 0.45492 0.63865 0.0
O189 O 0.53695 0.44662 0.69195 0.0
O190 O 0.54846 0.48886 0.72826 0.0
O191 O 0.57129 0.51903 0.69512 0.0
H192 H 0.61865 0.57444 0.76812 0.0
H193 H 0.63322 0.59438 0.82743 0.0
H194 H 0.70892 0.62295 0.79187 0.0
H195 H 0.69398 0.6032 0.73165 0.0
H196 H 0.58196 0.43689 0.67198 0.0
H197 H 0.58914 0.40201 0.66441 0.0
H198 H 0.51048 0.35331 0.64971 0.0
H199 H 0.50387 0.38915 0.65506 0.0
Ho200 Ho 0.08867 0.58771 1.01418 0.0
Ho201 Ho 0.10495 0.55065 0.9993 0.0
C202 C 0.11549 0.57424 1.08035 0.0
C203 C 0.0753 0.61916 1.0364 0.0
C204 C 0.07334 0.63037 1.07082 0.0
C205 C 0.0659 0.61669 1.10341 0.0
C206 C 0.0632 0.62754 0.13546 0.0
C207 C 0.06831 0.65241 0.13561 0.0
C208 C 0.07661 0.66626 1.10309 0.0
C209 C 0.07902 0.65526 1.07092 0.0
C210 C 0.13137 0.60521 0.97479 0.0
C211 C 0.06394 0.55354 0.94296 0.0
C212 C 0.12854 0.53001 0.97048 0.0
C213 C 0.15442 0.53568 0.97037 0.0
C214 C 0.1729 0.55813 0.98515 0.0
C215 C 0.1978 0.56606 0.97789 0.0
C216 C 0.2045 0.55149 0.95599 0.0
C217 C 0.18597 0.52794 0.94426 0.0
C218 C 0.16109 0.52017 0.95124 0.0
C219 C 0.06505 0.53255 1.0426 0.0
O220 O 0.10006 0.58247 1.0714 0.0
O221 O 0.12395 0.56496 1.0546 0.0
O222 O 0.09774 0.62549 1.02597 0.0
O223 O 0.05987 0.59553 1.03161 0.0
O224 O 0.11275 0.60815 0.96604 0.0
O225 O 0.12562 0.59145 1.00273 0.0
O226 O 0.07916 0.54443 0.94946 0.0
O227 O 0.06334 0.56996 0.96576 0.0
O228 O 0.12444 0.54622 0.95339 0.0
O229 O 0.11682 0.52304 1.00178 0.0
O230 O 0.08039 0.52397 1.04192 0.0
O231 O 0.06959 0.54718 1.01589 0.0
H232 H 0.06175 0.59753 1.10396 0.0
H233 H 0.05632 0.61613 0.15978 0.0
H234 H 0.081 0.68549 1.10237 0.0
H235 H 0.08508 0.66613 1.04597 0.0
H236 H 0.16796 0.57017 1.0003 0.0
H237 H 0.21168 0.58425 0.98731 0.0
H238 H 0.1905 0.51645 0.92691 0.0
H239 H 0.14701 0.50278 0.93967 0.0
Ho240 Ho 0.87914 0.49139 0.54933 0.0
Ho241 Ho 0.85238 0.43694 0.56453 0.0
C242 C 0.85626 0.454 0.47891 0.0
C243 C 0.90226 0.53734 0.52968 0.0
C244 C 0.91524 0.55343 0.49854 0.0
C245 C 0.93305 0.55068 0.47839 0.0
C246 C 0.946 0.56723 0.45022 0.0
C247 C 0.94118 0.58662 0.44154 0.0
C248 C 0.92309 0.58905 0.46153 0.0
C249 C 0.91029 0.57262 0.48986 0.0
C250 C 0.83533 0.47453 0.58619 0.0
C251 C 0.89257 0.47569 0.62593 0.0
C252 C 0.81931 0.39318 0.58581 0.0
C253 C 0.80117 0.38093 0.61526 0.0
C254 C 0.77868 0.35982 0.60657 0.0
C255 C 0.76035 0.3484 0.63326 0.0
C256 C 0.76421 0.35788 0.66925 0.0
C257 C 0.78697 0.379 0.67791 0.0
C258 C 0.80525 0.39052 0.65108 0.0
C259 C 0.89423 0.4507 0.52716 0.0
O260 O 0.87168 0.47676 0.49072 0.0
O261 O 0.84441 0.43558 0.50274 0.0
O262 O 0.8784 0.52309 0.52601 0.0
O263 O 0.91299 0.52631 0.546 0.0
O264 O 0.85556 0.49454 0.59403 0.0
O265 O 0.8395 0.46415 0.55937 0.0
O266 O 0.87274 0.45338 0.62002 0.0
O267 O 0.9 0.49295 0.60035 0.0
O268 O 0.84282 0.403 0.59397 0.0
O269 O 0.81466 0.40722 0.56426 0.0
O270 O 0.87539 0.42847 0.526 0.0
O271 O 0.89098 0.4633 0.55181 0.0
H272 H 0.93719 0.536 0.48465 0.0
H273 H 0.96006 0.56509 0.43563 0.0
H274 H 0.91867 0.60352 0.45512 0.0
H275 H 0.89658 0.57497 0.5052 0.0
H276 H 0.77515 0.35235 0.57889 0.0
H277 H 0.743 0.33241 0.62547 0.0
H278 H 0.79077 0.38657 0.7055 0.0
H279 H 0.82243 0.40694 0.65824 0.0
Ho280 Ho 0.37401 0.87558 0.87166 0.0
Ho281 Ho 0.41046 0.85803 0.89046 0.0
C282 C 0.39802 0.85797 0.80302 0.0
C283 C 0.34434 0.89088 0.84959 0.0
C284 C 0.33811 0.90238 0.81948 0.0
C285 C 0.35455 0.91426 0.7905 0.0
C286 C 0.34895 0.92715 0.76418 0.0
C287 C 0.32685 0.9283 0.76662 0.0
C288 C 0.31018 0.9157 0.79519 0.0
C289 C 0.3158 0.90285 0.82139 0.0
C290 C 0.35523 0.83381 0.91427 0.0
C291 C 0.40303 0.89378 0.94788 0.0
C292 C 0.42597 0.82777 0.90914 0.0
C293 C 0.41866 0.81095 0.94074 0.0
C294 C 0.42033 0.78914 0.93945 0.0
C295 C 0.4111 0.77216 0.96851 0.0
C296 C 0.39993 0.77674 0.99905 0.0
C297 C 0.39869 0.79885 1.00018 0.0
C298 C 0.40776 0.81563 0.97128 0.0
C299 C 0.43197 0.9052 0.86464 0.0
O300 O 0.38301 0.86678 0.81344 0.0
O301 O 0.41046 0.85283 0.82817 0.0
O302 O 0.34001 0.8681 0.84461 0.0
O303 O 0.36514 0.90501 0.8669 0.0
O304 O 0.35104 0.85208 0.91898 0.0
O305 O 0.36963 0.83897 0.88729 0.0
O306 O 0.40557 0.87364 0.94521 0.0
O307 O 0.39469 0.9008 0.9194 0.0
O308 O 0.43797 0.85149 0.91687 0.0
O309 O 0.40835 0.82221 0.88521 0.0
O310 O 0.44349 0.89712 0.8856 0.0
O311 O 0.41158 0.88709 0.85679 0.0
H312 H 0.3719 0.91409 0.78875 0.0
H313 H 0.36227 0.93689 0.74267 0.0
H314 H 0.29291 0.91598 0.79748 0.0
H315 H 0.30293 0.89372 0.8437 0.0
H316 H 0.42835 0.78506 0.91576 0.0
H317 H 0.4123 0.75529 0.96678 0.0
H318 H 0.39081 0.80337 1.0236 0.0
H319 H 0.40599 0.83219 0.97264 0.0
Ho320 Ho 0.49578 0.38521 0.20091 0.0
Ho321 Ho 0.54781 0.40536 0.22481 0.0
C322 C 0.53779 0.40214 0.1367 0.0
C323 C 0.45224 0.37007 0.17327 0.0
C324 C 0.43709 0.38008 0.15815 0.0
C325 C 0.44776 0.40354 0.14176 0.0
C326 C 0.43271 0.41215 1.12654 0.0
C327 C 0.40677 0.39732 1.12734 0.0
C328 C 0.39629 0.37408 0.14467 0.0
C329 C 0.41134 0.3656 0.16 0.0
C330 C 0.50677 0.35121 0.23111 0.0
C331 C 0.50714 0.40789 0.28106 0.0
C332 C 0.58628 0.4073 0.25539 0.0
C333 C 0.5906 0.39704 0.28915 0.0
C334 C 0.60592 0.38626 0.28805 0.0
C335 C 0.6084 0.37429 0.31896 0.0
C336 C 0.59551 0.3729 0.35147 0.0
C337 C 0.58064 0.38428 0.35262 0.0
C338 C 0.57806 0.39606 0.32172 0.0
C339 C 0.54132 0.44015 0.19207 0.0
O340 O 0.51485 0.39631 0.14562 0.0
O341 O 0.55389 0.40427 0.16265 0.0
O342 O 0.47132 0.37321 0.15391 0.0
O343 O 0.45709 0.37381 0.20827 0.0
O344 O 0.48666 0.35192 0.23687 0.0
O345 O 0.51958 0.36798 0.20867 0.0
O346 O 0.52725 0.40524 0.27853 0.0
O347 O 0.49404 0.40539 0.25121 0.0
O348 O 0.58022 0.42473 0.25922 0.0
O349 O 0.57284 0.39073 0.23077 0.0
O350 O 0.56238 0.44043 0.19344 0.0
O351 O 0.5255 0.42326 0.21261 0.0
H352 H 0.46764 0.41493 0.14017 0.0
H353 H 0.44136 0.43022 1.11364 0.0
H354 H 0.37646 0.36196 0.14516 0.0
H355 H 0.40285 0.34743 0.17262 0.0
H356 H 0.61553 0.38661 0.26297 0.0
H357 H 0.61987 0.36561 0.3171 0.0
H358 H 0.57089 0.38406 0.37746 0.0
H359 H 0.56596 0.40406 0.32319 0.0
Ho360 Ho 0.1056 0.48888 0.54173 0.0
Ho361 Ho 0.13217 0.54237 0.56091 0.0
C362 C 0.12899 0.52843 0.4741 0.0
C363 C 0.08164 0.44365 0.51766 0.0
C364 C 0.05645 0.42462 0.50835 0.0
C365 C 0.03606 0.42789 0.51588 0.0
C366 C 0.01235 0.40985 0.50495 0.0
C367 C 0.00878 0.38828 0.48649 0.0
C368 C 0.0293 0.38485 0.48026 0.0
C369 C 0.05291 0.40288 0.49109 0.0
C370 C 0.15092 0.50515 0.5744 0.0
C371 C 0.08977 0.50218 0.61776 0.0
C372 C 0.16579 0.58372 0.58914 0.0
C373 C 0.18627 0.58895 0.61418 0.0
C374 C 0.18737 0.56924 0.6312 0.0
C375 C 0.20831 0.5735 0.651 0.0
C376 C 0.22838 0.59764 0.65463 0.0
C377 C 0.22703 0.61748 0.63826 0.0
C378 C 0.20618 0.61311 0.61777 0.0
C379 C 0.09007 0.53008 0.52566 0.0
O380 O 0.11425 0.50522 0.4844 0.0
O381 O 0.14025 0.54628 0.49909 0.0
O382 O 0.09182 0.46299 0.4962 0.0
O383 O 0.08598 0.44953 0.55234 0.0
O384 O 0.13152 0.48418 0.58059 0.0
O385 O 0.14557 0.51611 0.55017 0.0
O386 O 0.11144 0.52321 0.61508 0.0
O387 O 0.08129 0.48739 0.58877 0.0
O388 O 0.14343 0.57115 0.60256 0.0
O389 O 0.16782 0.5753 0.55722 0.0
O390 O 0.10869 0.55249 0.52647 0.0
O391 O 0.09333 0.51655 0.54839 0.0
H392 H 0.03854 0.44451 0.52963 0.0
H393 H -0.00308 0.41299 0.51026 0.0
H394 H 0.02736 0.36877 0.46543 0.0
H395 H 0.06852 0.4001 0.48519 0.0
H396 H 0.17219 0.55046 0.62854 0.0
H397 H 0.20864 0.55794 0.66402 0.0
H398 H 0.24217 0.63627 0.64105 0.0
H399 H 0.20573 0.62848 0.60435 0.0
Ho400 Ho 0.60869 0.10191 0.86502 0.0
Ho401 Ho 0.59975 0.14421 0.88779 0.0
C402 C 0.59791 0.1318 0.79977 0.0
C403 C 0.61107 0.06442 0.83801 0.0
C404 C 0.62626 0.05993 0.81129 0.0
C405 C 0.61436 0.04239 0.78342 0.0
C406 C 0.62813 0.03801 0.75711 0.0
C407 C 0.65411 0.05103 0.75829 0.0
C408 C 0.66609 0.06828 0.78662 0.0
C409 C 0.65226 0.07283 0.81286 0.0
C410 C 0.64946 0.14446 0.88761 0.0
C411 C 0.59289 0.10103 0.94801 0.0
C412 C 0.60858 0.1869 0.91302 0.0
C413 C 0.624 0.20321 0.94272 0.0
C414 C 0.63206 0.2287 0.94157 0.0
C415 C 0.64725 0.24443 0.96943 0.0
C416 C 0.65465 0.23485 0.99881 0.0
C417 C 0.64683 0.20926 0.99922 0.0
C418 C 0.63182 0.19366 0.97135 0.0
C419 C 0.55908 0.10446 0.86333 0.0
O420 O 0.60313 0.11417 0.80902 0.0
O421 O 0.597 0.14705 0.82508 0.0
O422 O 0.62167 0.07536 0.86881 0.0
O423 O 0.59693 0.07261 0.82449 0.0
O424 O 0.64575 0.12241 0.89421 0.0
O425 O 0.63222 0.14278 0.86763 0.0
O426 O 0.59974 0.12508 0.94325 0.0
O427 O 0.5903 0.08704 0.91903 0.0
O428 O 0.58931 0.16594 0.92283 0.0
O429 O 0.621 0.18411 0.88612 0.0
O430 O 0.5622 0.12685 0.86206 0.0
O431 O 0.57611 0.10437 0.88224 0.0
H432 H 0.59434 0.03217 0.78185 0.0
H433 H 0.61843 0.02436 0.73582 0.0
H434 H 0.68609 0.07862 0.78797 0.0
H435 H 0.66189 0.08655 0.83409 0.0
H436 H 0.62655 0.23643 0.91917 0.0
H437 H 0.65306 0.264 0.96804 0.0
H438 H 0.65165 0.20101 1.02168 0.0
H439 H 0.62612 0.17409 0.97236 0.0
Ho440 Ho 0.49202 0.62033 0.213 0.0
Ho441 Ho 0.43943 0.58554 0.23149 0.0
C442 C 0.45264 0.59435 0.14468 0.0
C443 C 0.53683 0.65063 0.19237 0.0
C444 C 0.55548 0.65556 0.16423 0.0
C445 C 0.55038 0.64006 0.13363 0.0
C446 C 0.56913 0.64441 1.10855 0.0
C447 C 0.59314 0.6647 1.11334 0.0
C448 C 0.5978 0.68056 0.14364 0.0
C449 C 0.57914 0.67591 0.16896 0.0
C450 C 0.46829 0.6417 0.24874 0.0
C451 C 0.48266 0.59417 0.29204 0.0
C452 C 0.39518 0.56923 0.25699 0.0
C453 C 0.38415 0.57694 0.28643 0.0
C454 C 0.39655 0.60131 0.30003 0.0
C455 C 0.38581 0.60873 0.32751 0.0
C456 C 0.36255 0.59186 0.34209 0.0
C457 C 0.35013 0.56748 0.32821 0.0
C458 C 0.36083 0.56012 0.30046 0.0
C459 C 0.46102 0.56206 0.19895 0.0
O460 O 0.47616 0.60725 0.1552 0.0
O461 O 0.43457 0.58601 0.16944 0.0
O462 O 0.51775 0.65289 0.18278 0.0
O463 O 0.5309 0.63146 0.21337 0.0
O464 O 0.48993 0.64506 0.25672 0.0
O465 O 0.45972 0.62616 0.22277 0.0
O466 O 0.45898 0.58796 0.28685 0.0
O467 O 0.49886 0.60488 0.26514 0.0
O468 O 0.4096 0.56045 0.26719 0.0
O469 O 0.40439 0.5848 0.22971 0.0
O470 O 0.43729 0.5537 0.19854 0.0
O471 O 0.47119 0.58028 0.22062 0.0
H472 H 0.53205 0.62453 0.12935 0.0
H473 H 0.56489 0.6316 1.08583 0.0
H474 H 0.61584 0.69662 0.14781 0.0
H475 H 0.58325 0.68815 0.19244 0.0
H476 H 0.41462 0.61456 0.28954 0.0
H477 H 0.39609 0.62747 0.33817 0.0
H478 H 0.33221 0.5541 0.33897 0.0
H479 H 0.35097 0.54128 0.29007 0.0
H480 H 0.48937 0.13591 0.24646 0.0
H481 H 0.49784 0.17784 0.23167 0.0
H482 H 0.52973 0.20288 0.3392 0.0
H483 H 0.52215 0.16098 0.35344 0.0
H484 H 0.47678 0.20012 0.26281 0.0
H485 H 0.57754 0.26107 0.28016 0.0
H486 H 0.56354 0.22774 0.27789 0.0
H487 H 0.56335 0.24279 0.32025 0.0
C488 C 0.49892 0.15054 0.26652 0.0
C489 C 0.50516 0.14512 0.30104 0.0
C490 C 0.50363 0.17455 0.25813 0.0
C491 C 0.51448 0.19381 0.28418 0.0
C492 C 0.52182 0.18868 0.31819 0.0
H493 H 0.48133 0.31571 0.28223 0.0
H494 H 0.48492 0.27901 0.29663 0.0
C495 C 0.51743 0.16463 0.3264 0.0
C496 C 0.51545 0.21817 0.27694 0.0
H497 H 0.55302 0.28128 0.27732 0.0
C498 C 0.49357 0.2178 0.26579 0.0
C499 C 0.5373 0.24145 0.28036 0.0
C500 C 0.56181 0.24335 0.28995 0.0
C501 C 0.4928 0.23971 0.25834 0.0
C502 C 0.51433 0.26305 0.26336 0.0
C503 C 0.53638 0.26351 0.27395 0.0
C504 C 0.51413 0.28694 0.25739 0.0
C505 C 0.46891 0.23748 0.24425 0.0
C506 C 0.53031 0.30461 0.23205 0.0
C507 C 0.52856 0.32596 0.22424 0.0
C508 C 0.51054 0.33004 0.24152 0.0
C509 C 0.49516 0.31293 0.26802 0.0
C510 C 0.4971 0.29182 0.27611 0.0
H511 H 0.45704 0.21912 0.2312 0.0
H512 H 0.45841 0.23936 0.2676 0.0
H513 H 0.47239 0.25213 0.22385 0.0
H514 H 0.54378 0.3015 0.21741 0.0
H515 H 0.54079 0.33886 0.20384 0.0
H516 H 0.33913 0.48321 0.59786 0.0
H517 H 0.30705 0.49414 0.58601 0.0
H518 H 0.33255 0.54474 0.67806 0.0
H519 H 0.36453 0.53314 0.69073 0.0
H520 H 0.28431 0.51747 0.6813 0.0
H521 H 0.3061 0.55164 0.53968 0.0
H522 H 0.30288 0.52127 0.5412 0.0
H523 H 0.32727 0.54625 0.5669 0.0
C524 C 0.33827 0.49703 0.61524 0.0
C525 C 0.35454 0.50738 0.64514 0.0
C526 C 0.31994 0.50345 0.60823 0.0
C527 C 0.31743 0.52067 0.63061 0.0
C528 C 0.33408 0.53154 0.66011 0.0
H529 H 0.1954 0.54643 0.55745 0.0
H530 H 0.23716 0.55495 0.57473 0.0
C531 C 0.35253 0.52506 0.66719 0.0
C532 C 0.29603 0.52528 0.62486 0.0
H533 H 0.26257 0.53379 0.55738 0.0
C534 C 0.27983 0.52147 0.65429 0.0
C535 C 0.29023 0.53125 0.58998 0.0
C536 C 0.30775 0.53812 0.55784 0.0
C537 C 0.25734 0.52159 0.64924 0.0
C538 C 0.25029 0.52485 0.61348 0.0
C539 C 0.26739 0.53059 0.58467 0.0
C540 C 0.22484 0.52078 0.60495 0.0
C541 C 0.24138 0.51807 0.68247 0.0
C542 C 0.20376 0.49876 0.61584 0.0
C543 C 0.17995 0.49414 0.60658 0.0
C544 C 0.17643 0.51107 0.58532 0.0
C545 C 0.19744 0.53302 0.57395 0.0
C546 C 0.22136 0.53787 0.58379 0.0
H547 H 0.25281 0.52528 0.7077 0.0
H548 H 0.23023 0.52754 0.67921 0.0
H549 H 0.22868 0.49798 0.68667 0.0
H550 H 0.20566 0.48473 0.63086 0.0
H551 H 0.16424 0.47693 0.61549 0.0
H552 H 0.82817 0.34789 1.0314 0.0
H553 H 0.78994 0.31034 1.01417 0.0
H554 H 0.8271 0.30059 0.92046 0.0
H555 H 0.86568 0.33713 0.9392 0.0
H556 H 0.75938 0.29583 0.96217 0.0
H557 H 0.79897 0.23316 0.95839 0.0
H558 H 0.81632 0.26451 0.97517 0.0
H559 H 0.81483 0.258 0.92655 0.0
C560 C 0.82821 0.33755 1.00732 0.0
C561 C 0.85007 0.34527 0.98698 0.0
C562 C 0.80626 0.31605 0.99735 0.0
C563 C 0.80548 0.30186 0.96646 0.0
C564 C 0.82717 0.31031 0.94527 0.0
H565 H 0.66633 0.19183 0.86205 0.0
H566 H 0.70324 0.22991 0.88171 0.0
C567 C 0.84926 0.33144 0.95578 0.0
C568 C 0.78205 0.27851 0.95632 0.0
H569 H 0.75939 0.21789 0.9303 0.0
C570 C 0.7595 0.27884 0.95532 0.0
C571 C 0.7816 0.25577 0.94838 0.0
C572 C 0.80418 0.25274 0.9526 0.0
C573 C 0.73699 0.25759 0.94591 0.0
C574 C 0.73688 0.23538 0.93566 0.0
C575 C 0.75929 0.23489 0.9374 0.0
C576 C 0.71381 0.21228 0.92392 0.0
C577 C 0.71345 0.25905 0.94828 0.0
C578 C 0.70746 0.18929 0.94012 0.0
C579 C 0.68658 0.16743 0.92836 0.0
C580 C 0.67132 0.16792 0.90025 0.0
C581 C 0.67748 0.19086 0.88413 0.0
C582 C 0.69858 0.21272 0.89557 0.0
H583 H 0.71522 0.27338 0.9684 0.0
H584 H 0.70943 0.2642 0.92102 0.0
H585 H 0.69754 0.24102 0.95649 0.0
H586 H 0.71872 0.18821 0.96197 0.0
H587 H 0.68235 0.15009 0.9414 0.0
H588 H 0.44071 0.65646 0.20669 0.0
H589 H 0.43694 0.69403 0.2156 0.0
H590 H 0.47826 0.70968 0.31648 0.0
H591 H 0.4823 0.67259 0.30754 0.0
H592 H 0.43311 0.71615 0.31725 0.0
H593 H 0.49951 0.76603 0.20403 0.0
H594 H 0.47385 0.73553 0.19536 0.0
H595 H 0.49819 0.73915 0.22556 0.0
C596 C 0.44857 0.66769 0.23109 0.0
C597 C 0.46187 0.66157 0.25639 0.0
C598 C 0.44658 0.68927 0.23601 0.0
C599 C 0.4576 0.70493 0.26651 0.0
C600 C 0.46969 0.69804 0.29267 0.0
H601 H 0.49817 0.83865 0.37711 0.0
H602 H 0.48231 0.79639 0.35571 0.0
C603 C 0.47194 0.67676 0.28756 0.0
C604 C 0.45778 0.72909 0.27093 0.0
H605 H 0.48816 0.78947 0.24212 0.0
C606 C 0.44484 0.73208 0.30043 0.0
C607 C 0.47279 0.74991 0.24878 0.0
C608 C 0.48702 0.74775 0.21665 0.0
C609 C 0.44733 0.7554 0.3093 0.0
C610 C 0.46385 0.77666 0.2889 0.0
C611 C 0.47563 0.77338 0.25801 0.0
C612 C 0.47151 0.8025 0.30195 0.0
C613 C 0.43239 0.75695 0.34092 0.0
C614 C 0.47115 0.82062 0.27887 0.0
C615 C 0.48057 0.84533 0.29118 0.0
C616 C 0.49082 0.85235 0.32658 0.0
C617 C 0.49049 0.834 0.34965 0.0
C618 C 0.48116 0.8096 0.33751 0.0
H619 H 0.41398 0.73997 0.34225 0.0
H620 H 0.44213 0.75825 0.36706 0.0
H621 H 0.42964 0.77332 0.33872 0.0
H622 H 0.46398 0.81575 0.25119 0.0
H623 H 0.48063 0.85903 0.27269 0.0
H624 H 0.65546 0.51617 0.5944 0.0
H625 H 0.68725 0.50447 0.58397 0.0
H626 H 0.65707 0.45117 0.67172 0.0
H627 H 0.62579 0.46372 0.68337 0.0
H628 H 0.70463 0.47682 0.67981 0.0
H629 H 0.68883 0.44796 0.53461 0.0
H630 H 0.69285 0.47857 0.53918 0.0
H631 H 0.66683 0.45278 0.56084 0.0
C632 C 0.65525 0.50161 0.61107 0.0
C633 C 0.63787 0.49078 0.63957 0.0
C634 C 0.67343 0.49476 0.60487 0.0
C635 C 0.67454 0.47656 0.62655 0.0
C636 C 0.65667 0.46515 0.65436 0.0
H637 H 0.78931 0.43664 0.56632 0.0
H638 H 0.74892 0.43361 0.57865 0.0
C639 C 0.63857 0.47217 0.6608 0.0
C640 C 0.69557 0.47118 0.62219 0.0
H641 H 0.72995 0.46085 0.55791 0.0
C642 C 0.70989 0.47297 0.65317 0.0
C643 C 0.70239 0.46552 0.58773 0.0
C644 C 0.68672 0.46081 0.55384 0.0
C645 C 0.73129 0.47055 0.65038 0.0
C646 C 0.73934 0.46712 0.61539 0.0
C647 C 0.7243 0.464 0.58471 0.0
C648 C 0.76372 0.46786 0.60981 0.0
C649 C 0.74487 0.47152 0.68523 0.0
C650 C 0.7857 0.488 0.6231 0.0
C651 C 0.80868 0.48951 0.61661 0.0
C652 C 0.8105 0.47122 0.59585 0.0
C653 C 0.78857 0.45098 0.58255 0.0
C654 C 0.76546 0.44931 0.58947 0.0
H655 H 0.73204 0.46472 0.70906 0.0
H656 H 0.75426 0.46022 0.68291 0.0
H657 H 0.75895 0.49103 0.69111 0.0
H658 H 0.78524 0.50303 0.63778 0.0
H659 H 0.82516 0.5055 0.62697 0.0
H660 H 0.35389 0.78981 0.89619 0.0
H661 H 0.32011 0.74756 0.90793 0.0
H662 H 0.28038 0.77762 0.96715 0.0
H663 H 0.31428 0.81951 0.95673 0.0
H664 H 0.27457 0.7375 1.0005 0.0
H665 H 0.2564 0.71589 0.85186 0.0
H666 H 0.28687 0.72316 0.86623 0.0
H667 H 0.27769 0.74658 0.86842 0.0
C668 C 0.33807 0.78734 0.9121 0.0
C669 C 0.33668 0.80808 0.92511 0.0
C670 C 0.31861 0.76316 0.91849 0.0
C671 C 0.29719 0.75923 0.93756 0.0
C672 C 0.29647 0.77996 0.9521 0.0
H673 H 0.1463 0.64252 0.92473 0.0
H674 H 0.18772 0.67772 0.91604 0.0
C675 C 0.31595 0.80401 0.94608 0.0
C676 C 0.27512 0.73388 0.94173 0.0
H677 H 0.23097 0.68448 0.89317 0.0
C678 C 0.26515 0.72584 0.97701 0.0
C679 C 0.26251 0.71864 0.91113 0.0
C680 C 0.27122 0.72653 0.87224 0.0
C681 C 0.24284 0.70354 0.98247 0.0
C682 C 0.23028 0.68824 0.95189 0.0
C683 C 0.24057 0.69598 0.9167 0.0
C684 C 0.20547 0.66536 0.95536 0.0
C685 C 0.23236 0.69732 1.02086 0.0
C686 C 0.20147 0.64599 0.97948 0.0
C687 C 0.17757 0.62586 0.98484 0.0
C688 C 0.15721 0.62439 0.96568 0.0
C689 C 0.16151 0.64304 0.94004 0.0
C690 C 0.18528 0.66324 0.93501 0.0
H691 H 0.24073 0.71379 1.03928 0.0
H692 H 0.21201 0.68972 1.02067 0.0
H693 H 0.23634 0.68314 1.03267 0.0
H694 H 0.21673 0.64666 0.99479 0.0
H695 H 0.17494 0.61192 1.0049 0.0
H696 H 0.6503 0.27287 1.03093 0.0
H697 H 0.66418 0.28987 1.09224 0.0
H698 H 0.70246 0.24764 1.1014 0.0
H699 H 0.69084 0.2328 1.03912 0.0
H700 H 0.64498 0.26125 0.14311 0.0
H701 H 0.74278 0.29854 0.17199 0.0
H702 H 0.73209 0.29687 1.12538 0.0
H703 H 0.73472 0.27142 0.14506 0.0
C704 C 0.66279 0.26826 1.04521 0.0
C705 C 0.66864 0.25065 1.03066 0.0
C706 C 0.67067 0.27796 1.0805 0.0
C707 C 0.6841 0.26985 1.1021 0.0
C708 C 0.69244 0.25466 1.08567 0.0
H709 H 0.65305 0.1747 0.24963 0.0
H710 H 0.67639 0.21106 0.21209 0.0
C711 C 0.68517 0.24555 1.05011 0.0
C712 C 0.68355 0.2712 0.14296 0.0
H713 H 0.71365 0.26468 0.21678 0.0
C714 C 0.66039 0.26322 0.15956 0.0
C715 C 0.70359 0.27425 0.16515 0.0
C716 C 0.7297 0.28604 0.15078 0.0
C717 C 0.65577 0.25436 0.19566 0.0
C718 C 0.67486 0.25348 0.21566 0.0
C719 C 0.69888 0.26484 0.20109 0.0
C720 C 0.66847 0.23527 0.24563 0.0
C721 C 0.62968 0.24309 0.21033 0.0
C722 C 0.65767 0.23725 0.27846 0.0
C723 C 0.64425 0.21629 0.30041 0.0
C724 C 0.6414 0.1931 0.28967 0.0
C725 C 0.65479 0.1921 0.25907 0.0
C726 C 0.66823 0.213 0.23739 0.0
H727 H 0.61689 0.24481 0.19075 0.0
H728 H 0.62241 0.22311 0.21631 0.0
H729 H 0.62959 0.25247 0.23634 0.0
H730 H 0.65792 0.25441 0.28551 0.0
H731 H 0.63473 0.21789 0.32436 0.0
H732 H 0.36065 0.63488 0.35223 0.0
H733 H 0.3537 0.65052 0.41057 0.0
H734 H 0.33615 0.58128 0.46255 0.0
H735 H 0.34266 0.56551 0.4046 0.0
H736 H 0.31098 0.60623 0.49458 0.0
H737 H 0.41281 0.66819 0.47782 0.0
H738 H 0.39213 0.66963 0.44473 0.0
H739 H 0.39594 0.64267 0.4467 0.0
C740 C 0.35464 0.6228 0.37593 0.0
C741 C 0.35272 0.59918 0.37412 0.0
C742 C 0.35055 0.6317 0.40913 0.0
C743 C 0.3449 0.61724 0.441 0.0
C744 C 0.34045 0.59275 0.43826 0.0
H745 H 0.36616 0.58007 0.62854 0.0
H746 H 0.34272 0.59084 0.58726 0.0
C747 C 0.34428 0.58376 0.40509 0.0
C748 C 0.349 0.62859 0.478 0.0
H749 H 0.39729 0.65918 0.53648 0.0
C750 C 0.32972 0.61849 0.50384 0.0
C751 C 0.37331 0.64523 0.48999 0.0
C752 C 0.39482 0.6571 0.46355 0.0
C753 C 0.33466 0.62224 0.54169 0.0
C754 C 0.35955 0.63548 0.55377 0.0
C755 C 0.37819 0.64856 0.5277 0.0
C756 C 0.36759 0.63059 0.58989 0.0
C757 C 0.31326 0.61077 0.5682 0.0
C758 C 0.38892 0.64922 0.60738 0.0
C759 C 0.40307 0.64283 0.63016 0.0
C760 C 0.3955 0.6178 0.63693 0.0
C761 C 0.37232 0.59953 0.62412 0.0
C762 C 0.35863 0.60581 0.60054 0.0
H763 H 0.29824 0.61433 0.55889 0.0
H764 H 0.30547 0.59034 0.56848 0.0
H765 H 0.31876 0.61817 0.59653 0.0
H766 H 0.39615 0.66852 0.60014 0.0
H767 H 0.42084 0.65725 0.63999 0.0
H768 H 0.73576 0.38526 0.92497 0.0
H769 H 0.70412 0.36095 0.8813 0.0
H770 H 0.69241 0.29368 0.93396 0.0
H771 H 0.72504 0.31841 0.97811 0.0
H772 H 0.71287 0.29667 0.87347 0.0
H773 H 0.64012 0.3169 0.83646 0.0
H774 H 0.66519 0.34655 0.84896 0.0
H775 H 0.65202 0.32211 0.88289 0.0
C776 C 0.72555 0.36537 0.92893 0.0
C777 C 0.73375 0.35374 0.95395 0.0
C778 C 0.70701 0.35124 0.90375 0.0
C779 C 0.69624 0.32525 0.90334 0.0
C780 C 0.70084 0.31368 0.93313 0.0
H781 H 0.73276 0.30801 0.68 0.0
H782 H 0.70348 0.28852 0.7305 0.0
C783 C 0.71964 0.32786 0.95824 0.0
C784 C 0.68891 0.31254 0.86703 0.0
H785 H 0.6724 0.32566 0.78445 0.0
C786 C 0.70296 0.30185 0.85408 0.0
C787 C 0.67533 0.31821 0.84142 0.0
C788 C 0.65713 0.32631 0.85348 0.0
C789 C 0.70819 0.30198 0.81659 0.0
C790 C 0.69848 0.31245 0.79154 0.0
C791 C 0.68057 0.31848 0.80382 0.0
C792 C 0.71138 0.32318 0.75642 0.0
C793 C 0.72675 0.29413 0.80498 0.0
C794 C 0.72451 0.3491 0.75311 0.0
C795 C 0.74091 0.36029 0.72408 0.0
C796 C 0.74472 0.3458 0.69778 0.0
C797 C 0.73036 0.31977 0.69982 0.0
C798 C 0.7137 0.30855 0.7288 0.0
H799 H 0.73349 0.28767 0.82849 0.0
H800 H 0.71813 0.27872 0.7848 0.0
H801 H 0.74293 0.30983 0.79166 0.0
H802 H 0.72302 0.3608 0.77409 0.0
H803 H 0.75108 0.38034 0.7228 0.0
H804 H 0.42007 0.75062 1.03164 0.0
H805 H 0.40851 0.72964 1.09105 0.0
H806 H 0.34752 0.74463 1.09794 0.0
H807 H 0.35763 0.76337 1.03783 0.0
H808 H 0.41435 0.7531 0.14779 0.0
H809 H 0.31693 0.68453 0.15567 0.0
H810 H 0.33216 0.69417 1.11167 0.0
H811 H 0.31716 0.71001 0.13247 0.0
C812 C 0.40351 0.74837 1.04512 0.0
C813 C 0.39016 0.75928 1.03049 0.0
C814 C 0.39694 0.73642 1.07922 0.0
C815 C 0.37708 0.7354 1.0994 0.0
C816 C 0.36252 0.74439 1.08305 0.0
H817 H 0.36349 0.80656 0.25311 0.0
H818 H 0.35481 0.77328 0.21039 0.0
C819 C 0.36874 0.75579 1.04881 0.0
C820 C 0.37494 0.73079 0.13974 0.0
H821 H 0.33214 0.71733 0.20742 0.0
C822 C 0.39639 0.74416 0.16102 0.0
C823 C 0.35174 0.71859 0.15778 0.0
C824 C 0.32832 0.7008 0.13798 0.0
C825 C 0.39491 0.7492 0.19822 0.0
C826 C 0.37139 0.74084 0.21432 0.0
C827 C 0.35016 0.72428 0.19475 0.0
C828 C 0.36875 0.75478 0.2455 0.0
C829 C 0.41842 0.76603 0.21871 0.0
C830 C 0.37787 0.75445 0.2806 0.0
C831 C 0.38252 0.77347 0.30573 0.0
C832 C 0.37857 0.79328 0.29577 0.0
C833 C 0.36676 0.79177 0.26214 0.0
C834 C 0.36181 0.77265 0.23741 0.0
H835 H 0.43526 0.77048 0.20245 0.0
H836 H 0.41878 0.78365 0.22608 0.0
H837 H 0.41906 0.75695 0.24455 0.0
H838 H 0.3831 0.74063 0.28749 0.0
H839 H 0.39078 0.77358 0.33193 0.0
H840 H 0.55828 0.3429 0.39764 0.0
H841 H 0.56195 0.32722 0.45692 0.0
H842 H 0.63982 0.35494 0.43797 0.0
H843 H 0.63657 0.37234 0.37919 0.0
H844 H 0.57697 0.2964 0.48651 0.0
H845 H 0.64274 0.39438 0.52694 0.0
H846 H 0.62703 0.38767 0.48339 0.0
H847 H 0.65125 0.38015 0.49083 0.0
C848 C 0.57624 0.34575 0.40601 0.0
C849 C 0.59729 0.35966 0.38429 0.0
C850 C 0.57825 0.33637 0.43972 0.0
C851 C 0.60129 0.34037 0.45237 0.0
C852 C 0.62197 0.35217 0.42922 0.0
H853 H 0.58756 0.36458 0.67656 0.0
H854 H 0.60509 0.3451 0.63696 0.0
C855 C 0.62004 0.36193 0.39549 0.0
C856 C 0.6034 0.33533 0.49163 0.0
H857 H 0.61798 0.36765 0.57211 0.0
C858 C 0.58664 0.31177 0.50546 0.0
C859 C 0.61662 0.35513 0.51663 0.0
C860 C 0.63541 0.38079 0.50394 0.0
C861 C 0.57969 0.3086 0.5426 0.0
C862 C 0.58977 0.32947 0.56613 0.0
C863 C 0.60983 0.35174 0.5538 0.0
C864 C 0.57537 0.33145 0.59725 0.0
C865 C 0.5598 0.28358 0.55541 0.0
C866 C 0.55205 0.32884 0.58944 0.0
C867 C 0.54236 0.34055 0.61132 0.0
C868 C 0.55574 0.35505 0.64166 0.0
C869 C 0.57719 0.35436 0.65262 0.0
C870 C 0.58711 0.3429 0.6303 0.0
H871 H 0.56219 0.26861 0.5424 0.0
H872 H 0.55996 0.28184 0.58576 0.0
H873 H 0.54147 0.28086 0.54685 0.0
H874 H 0.54274 0.3205 0.56385 0.0
H875 H 0.52585 0.34051 0.60168 0.0
H876 H 0.22907 0.59648 0.92364 0.0
H877 H 0.26025 0.60824 0.87633 0.0
H878 H 0.26779 0.54403 0.90064 0.0
H879 H 0.23519 0.53133 0.94725 0.0
H880 H 0.30568 0.61649 0.85668 0.0
H881 H 0.23452 0.52367 0.80357 0.0
H882 H 0.22911 0.53584 0.84538 0.0
H883 H 0.25128 0.525 0.84435 0.0
C884 C 0.23799 0.58531 0.92008 0.0
C885 C 0.2292 0.56262 0.93843 0.0
C886 C 0.25596 0.5921 0.89289 0.0
C887 C 0.26566 0.57646 0.8838 0.0
C888 C 0.25983 0.55586 0.90618 0.0
H889 H 0.25587 0.57402 0.65275 0.0
H890 H 0.28133 0.57255 0.70303 0.0
C891 C 0.24133 0.5487 0.93294 0.0
C892 C 0.27662 0.57905 0.84666 0.0
H893 H 0.25654 0.55416 0.76166 0.0
C894 C 0.29555 0.60256 0.83586 0.0
C895 C 0.26395 0.56072 0.81931 0.0
C896 C 0.24356 0.5349 0.82849 0.0
C897 C 0.29946 0.60931 0.79863 0.0
C898 C 0.28399 0.59215 0.77182 0.0
C899 C 0.26814 0.56752 0.78224 0.0
C900 C 0.27851 0.60017 0.73629 0.0
C901 C 0.31875 0.63533 0.78868 0.0
C902 C 0.26997 0.61746 0.737 0.0
C903 C 0.25567 0.61846 0.70823 0.0
C904 C 0.24936 0.60194 0.67855 0.0
C905 C 0.2602 0.58667 0.67575 0.0
C906 C 0.27486 0.58594 0.70432 0.0
H907 H 0.33556 0.64137 0.8058 0.0
H908 H 0.32399 0.63685 0.75922 0.0
H909 H 0.31148 0.64819 0.79456 0.0
H910 H 0.27192 0.62827 0.76149 0.0
H911 H 0.24747 0.63033 0.71108 0.0
H912 H 0.40633 0.9394 0.95906 0.0
H913 H 0.41783 0.96501 1.01449 0.0
H914 H 0.42591 0.90897 1.07298 0.0
H915 H 0.41525 0.88359 1.01689 0.0
H916 H 0.39917 0.96211 1.07754 0.0
H917 H 0.48857 0.96634 1.10529 0.0
H918 H 0.47147 0.95294 1.06364 0.0
H919 H 0.46371 0.93496 1.10526 0.0
C920 C 0.41065 0.93243 0.98358 0.0
C921 C 0.40987 0.90921 0.9829 0.0
C922 C 0.41726 0.94724 1.01564 0.0
C923 C 0.42335 0.93955 1.0486 0.0
C924 C 0.42217 0.91611 1.04816 0.0
H925 H 0.42452 0.01429 0.26041 0.0
H926 H 0.41249 0.98686 0.20658 0.0
C927 C 0.41578 0.90134 1.01587 0.0
C928 C 0.43019 0.95581 1.08307 0.0
H929 H 0.47279 0.98118 0.15286 0.0
C930 C 0.41536 0.96625 1.09382 0.0
C931 C 0.45158 0.96203 1.10466 0.0
C932 C 0.46989 0.95372 1.09394 0.0
C933 C 0.421 0.98216 1.12482 0.0
C934 C 0.44173 0.98744 0.14744 0.0
C935 C 0.45668 0.97717 0.13648 0.0
C936 C 0.44885 0.00415 0.18147 0.0
C937 C 0.40504 0.99391 0.13186 0.0
C938 C 0.47356 0.02277 0.18732 0.0
C939 C 0.48062 0.03816 0.21878 0.0
C940 C 0.46323 0.03579 0.24578 0.0
C941 C 0.43848 0.01717 0.24015 0.0
C942 C 0.4315 0.00145 0.20888 0.0
H943 H 0.39583 0.99494 1.10629 0.0
H944 H 0.3903 0.98241 0.15176 0.0
H945 H 0.41599 0.01294 0.14323 0.0
H946 H 0.48758 0.02556 0.16735 0.0
H947 H 0.49988 0.05208 0.22184 0.0
H948 H 0.53248 0.42579 0.34772 0.0
H949 H 0.51787 0.43691 0.40417 0.0
H950 H 0.44777 0.41502 0.35251 0.0
H951 H 0.46216 0.40428 0.29646 0.0
H952 H 0.49908 0.47233 0.41319 0.0
H953 H 0.42778 0.37737 0.4522 0.0
H954 H 0.45262 0.38323 0.42077 0.0
H955 H 0.42648 0.38579 0.40537 0.0
C956 C 0.51391 0.4232 0.34839 0.0
C957 C 0.49865 0.41401 0.317 0.0
C958 C 0.50552 0.42966 0.38083 0.0
C959 C 0.48143 0.42666 0.38331 0.0
C960 C 0.46623 0.41731 0.35208 0.0
H961 H 0.43067 0.50036 0.54727 0.0
H962 H 0.44413 0.48817 0.49161 0.0
C963 C 0.47466 0.41124 0.31967 0.0
C964 C 0.47225 0.43378 0.41773 0.0
H965 H 0.42766 0.41041 0.48505 0.0
C966 C 0.48357 0.45873 0.42906 0.0
C967 C 0.45189 0.4163 0.43881 0.0
C968 C 0.43902 0.38912 0.429 0.0
C969 C 0.47519 0.46665 0.46007 0.0
C970 C 0.45457 0.44922 0.48119 0.0
C971 C 0.44343 0.42414 0.46979 0.0
C972 C 0.44461 0.45626 0.51525 0.0
C973 C 0.48916 0.49379 0.46986 0.0
C974 C 0.43815 0.44174 0.54757 0.0
C975 C 0.4291 0.44812 0.57927 0.0
C976 C 0.42656 0.46957 0.58032 0.0
C977 C 0.43265 0.48391 0.54801 0.0
C978 C 0.44089 0.47708 0.51597 0.0
H979 H 0.50805 0.50271 0.45808 0.0
H980 H 0.47967 0.50332 0.45777 0.0
H981 H 0.49053 0.49672 0.50005 0.0
H982 H 0.44043 0.42549 0.54863 0.0
H983 H 0.42474 0.43655 0.60341 0.0
H984 H 0.04593 0.45941 0.63046 0.0
H985 H 0.01896 0.44703 0.68406 0.0
H986 H 0.06879 0.51558 0.73818 0.0
H987 H 0.09645 0.52806 0.68422 0.0
H988 H 0.05131 0.47425 0.7858 0.0
H989 H 0.96997 0.46803 0.71339 0.0
H990 H 0.98128 0.44849 0.69569 0.0
H991 H 9e-05 0.48152 0.69193 0.0
C992 C 0.05137 0.47209 0.65356 0.0
C993 C 0.07368 0.495 0.65224 0.0
C994 C 0.03558 0.46494 0.68448 0.0
C995 C 0.0411 0.48042 0.71557 0.0
C996 C 0.06363 0.50315 0.71479 0.0
H997 H 0.97557 0.4623 0.93956 0.0
H998 H 0.00226 0.47523 0.88593 0.0
C999 C 0.07958 0.51036 0.68369 0.0
C1000 C 0.0237 0.47263 0.74877 0.0
H1001 H 0.96439 0.45602 0.77561 0.0
C1002 C 0.03233 0.47039 0.78352 0.0
C1003 C -0.0016 0.46637 0.74632 0.0
C1004 C 0.98686 0.46636 0.70991 0.0
C1005 C 0.01675 0.46198 0.81504 0.0
C1006 C 0.99184 0.45754 0.8134 0.0
C1007 C 0.98325 0.45964 0.77832 0.0
C1008 C 0.97451 0.45057 0.84704 0.0
C1009 C 0.02726 0.45673 0.84904 0.0
C1010 C 0.94874 0.43373 0.84443 0.0
C1011 C 0.93284 0.42727 0.8755 0.0
C1012 C 0.9421 0.43697 0.91069 0.0
C1013 C 0.96761 0.45403 0.91325 0.0
C1014 C 0.98324 0.46112 0.88215 0.0
H1015 H 0.0413 0.4512 0.84178 0.0
H1016 H 0.03679 0.47385 0.86593 0.0
H1017 H 0.0127 0.44164 0.86568 0.0
H1018 H 0.94076 0.42502 0.81837 0.0
H1019 H 0.91341 0.41395 0.87215 0.0
H1020 H 0.49571 0.95002 0.22685 0.0
H1021 H 0.50852 0.97687 0.17279 0.0
H1022 H 0.58364 0.01387 0.21209 0.0
H1023 H 0.57108 0.98628 0.2654 0.0
H1024 H 0.526 0.02354 0.16014 0.0
H1025 H 0.59822 0.00289 1.11072 0.0
H1026 H 0.57746 0.98564 0.14745 0.0
H1027 H 0.60446 0.01519 0.1565 0.0
C1028 C 0.51507 0.96367 0.22394 0.0
C1029 C 0.53231 0.96548 0.25081 0.0
C1030 C 0.52241 0.97928 0.19279 0.0
C1031 C 0.5473 -0.00248 0.18713 0.0
C1032 C 0.56447 -0.00035 0.21437 0.0
H1033 H 0.589 0.11822 1.01845 0.0
H1034 H 0.57861 0.09513 1.07698 0.0
C1035 C 0.55719 0.9838 0.24532 0.0
C1036 C 0.555 0.01427 0.15326 0.0
H1037 H 0.59676 0.03647 1.08197 0.0
C1038 C 0.54151 0.02628 0.14318 0.0
C1039 C 0.57502 0.01797 0.13004 0.0
C1040 C 0.58945 0.00455 0.13644 0.0
C1041 C 0.54743 0.04161 1.11154 0.0
C1042 C 0.56793 0.04593 1.0891 0.0
C1043 C 0.58131 0.03382 1.09905 0.0
C1044 C 0.57464 0.06104 1.05368 0.0
C1045 C 0.531 0.05234 1.10174 0.0
C1046 C 0.57658 0.0503 1.02059 0.0
C1047 C 0.58256 0.06347 0.9873 0.0
C1048 C 0.58712 0.08822 0.98524 0.0
C1049 C 0.58559 0.0993 1.01845 0.0
C1050 C 0.57943 0.08591 1.0521 0.0
H1051 H 0.51241 0.04169 1.11436 0.0
H1052 H 0.53952 0.07171 1.11204 0.0
H1053 H 0.52863 0.05253 1.07155 0.0
H1054 H 0.57312 0.03135 1.02029 0.0
H1055 H 0.58357 0.05395 0.96287 0.0
H1056 H 0.57987 0.57018 0.60332 0.0
H1057 H 0.56389 0.58201 0.54975 0.0
H1058 H 0.53676 0.50885 0.50415 0.0
H1059 H 0.5517 0.49674 0.55807 0.0
H1060 H 0.55914 0.54507 0.45061 0.0
H1061 H 0.49167 0.56246 0.52659 0.0
H1062 H 0.5227 0.57907 0.5442 0.0
H1063 H 0.50589 0.54578 0.54632 0.0
C1064 C 0.57039 0.55653 0.58197 0.0
C1065 C 0.56705 0.53234 0.58558 0.0
C1066 C 0.56101 0.5633 0.55123 0.0
C1067 C 0.54832 0.5463 0.52256 0.0
C1068 C 0.5458 0.52243 0.52566 0.0
H1069 H 0.45533 0.56402 0.35077 0.0
H1070 H 0.47058 0.55215 0.40528 0.0
C1071 C 0.55455 0.51545 0.55678 0.0
C1072 C 0.53802 0.55337 0.4894 0.0
H1073 H 0.49761 0.57379 0.46375 0.0
C1074 C 0.54577 0.55145 0.45368 0.0
C1075 C 0.51991 0.56108 0.49248 0.0
C1076 C 0.5093 0.56204 0.52936 0.0
C1077 C 0.53635 0.5571 0.42173 0.0
C1078 C 0.51909 0.56598 0.42482 0.0
C1079 C 0.51101 0.56746 0.46059 0.0
C1080 C 0.50944 0.5738 0.39155 0.0
C1081 C 0.54446 0.55251 0.38478 0.0
C1082 C 0.52576 0.59056 0.36528 0.0
C1083 C 0.51702 0.59724 0.33387 0.0
C1084 C 0.49149 0.58786 0.32742 0.0
C1085 C 0.47508 0.57176 0.35432 0.0
C1086 C 0.48388 0.56489 0.38576 0.0
H1087 H 0.55017 0.53809 0.38649 0.0
H1088 H 0.52948 0.5465 0.36406 0.0
H1089 H 0.56067 0.56987 0.37515 0.0
H1090 H 0.54553 0.59867 0.36898 0.0
H1091 H 0.53049 0.60986 0.31442 0.0
H1092 H 0.02377 0.56029 0.93066 0.0
H1093 H 0.99469 0.54626 0.8793 0.0
H1094 H 0.03416 0.51298 0.82862 0.0
H1095 H 0.06321 0.52658 0.88063 0.0
H1096 H 0.0217 0.53561 0.77732 0.0
H1097 H 0.9378 0.47915 0.85876 0.0
H1098 H 0.95 0.51135 0.86941 0.0
H1099 H 0.96758 0.49628 0.88052 0.0
C1100 C 0.02632 0.5498 0.90884 0.0
C1101 C 0.04607 0.54454 0.91054 0.0
C1102 C 0.00935 0.54155 0.87927 0.0
C1103 C 0.01132 0.52766 0.84989 0.0
C1104 C 0.03149 0.52302 0.85094 0.0
H1105 H 0.89309 0.44507 0.68255 0.0
H1106 H 0.9214 0.45705 0.73571 0.0
C1107 C 0.04829 0.53093 0.88092 0.0
C1108 C 0.99298 0.51877 0.81786 0.0
H1109 H 0.93102 0.48676 0.79568 0.0
C1110 C 0.00189 0.52485 0.78158 0.0
C1111 C 0.96682 0.50471 0.82246 0.0
C1112 C 0.95506 0.49734 0.8599 0.0
C1113 C 0.98589 0.51797 0.75062 0.0
C1114 C 0.95973 0.50387 0.7552 0.0
C1115 C 0.95083 0.49734 0.79141 0.0
C1116 C 0.94147 0.49627 0.72314 0.0
C1117 C -0.00243 0.52611 0.71321 0.0
C1118 C 0.94227 0.51403 0.69827 0.0
C1119 C 0.92616 0.50718 0.66783 0.0
C1120 C 0.9081 0.48223 0.66089 0.0
C1121 C 0.90656 0.46443 0.68653 0.0
C1122 C 0.92291 0.47136 0.71712 0.0
H1123 H 0.0163 0.52791 0.71248 0.0
H1124 H 0.9862 0.51306 0.6912 0.0
H1125 H -0.0003 0.54461 0.7071 0.0
H1126 H 0.95555 0.53345 0.70225 0.0
H1127 H 0.92807 0.52172 0.64943 0.0
H1128 H 0.47253 0.99574 0.39323 0.0
H1129 H 0.46609 0.97834 0.45404 0.0
H1130 H 0.44806 0.0335 0.49381 0.0
H1131 H 0.45258 0.04933 0.43178 0.0
H1132 H 0.49267 0.04803 0.51584 0.0
H1133 H 0.45449 0.95335 0.55579 0.0
H1134 H 0.44805 0.95022 0.50758 0.0
H1135 H 0.43497 0.96473 0.53655 0.0
C1136 C 0.46586 0.00325 0.41454 0.0
C1137 C 0.46527 0.02524 0.40867 0.0
C1138 C 0.46184 0.99314 0.44973 0.0
C1139 C 0.45841 0.0058 0.47968 0.0
C1140 C 0.4518 0.02399 0.47174 0.0
H1141 H 0.54075 0.96233 0.44053 0.0
H1142 H 0.54184 0.98372 0.49724 0.0
C1143 C 0.45513 0.03358 0.43616 0.0
C1144 C 0.4722 0.00794 0.51433 0.0
H1145 H 0.49779 0.971 0.51995 0.0
C1146 C 0.49379 0.03114 0.51806 0.0
C1147 C 0.4742 0.98714 0.52517 0.0
C1148 C 0.45149 0.96254 0.53172 0.0
C1149 C 0.5168 0.03251 0.51205 0.0
C1150 C 0.51723 0.01013 0.50628 0.0
C1151 C 0.49719 0.98823 0.52026 0.0
C1152 C 0.52885 0.00691 0.4724 0.0
C1153 C 0.53917 0.0573 0.50489 0.0
C1154 C 0.52352 0.01441 0.43859 0.0
C1155 C 0.52176 0.00135 0.40623 0.0
C1156 C 0.526 0.98115 0.40719 0.0
C1157 C 0.53615 0.97707 0.43931 0.0
C1158 C 0.53725 0.98962 0.47184 0.0
H1159 H 0.54162 0.07022 0.52779 0.0
H1160 H 0.5562 0.05577 0.50201 0.0
H1161 H 0.5363 0.06542 0.47945 0.0
H1162 H 0.51734 0.028 0.43783 0.0
H1163 H 0.51488 0.00554 0.38149 0.0
H1164 H 0.48373 0.48892 0.72319 0.0
H1165 H 0.49672 0.48351 0.78362 0.0
H1166 H 0.42429 0.46267 0.82672 0.0
H1167 H 0.41046 0.46426 0.76509 0.0
H1168 H 0.45936 0.51156 0.84554 0.0
H1169 H 0.50152 0.45669 0.88467 0.0
H1170 H 0.49961 0.45432 0.83556 0.0
H1171 H 0.47155 0.44289 0.8623 0.0
C1172 C 0.47012 0.48148 0.74499 0.0
C1173 C 0.44647 0.4784 0.73978 0.0
C1174 C 0.47748 0.47836 0.77982 0.0
C1175 C 0.46176 0.47379 0.81033 0.0
C1176 C 0.43691 0.46661 0.80391 0.0
H1177 H 0.58535 0.53224 0.78691 0.0
H1178 H 0.56889 0.54049 0.84214 0.0
C1179 C 0.42918 0.46823 0.76848 0.0
C1180 C 0.47352 0.48582 0.84561 0.0
H1181 H 0.53286 0.50143 0.8615 0.0
C1182 C 0.47534 0.50924 0.85065 0.0
C1183 C 0.49342 0.48293 0.85813 0.0
C1184 C 0.4912 0.45766 0.8604 0.0
C1185 C 0.49887 0.53042 0.85097 0.0
C1186 C 0.5197 0.527 0.84754 0.0
C1187 C 0.5169 0.50409 0.85955 0.0
C1188 C 0.53664 0.53804 0.81549 0.0
C1189 C 0.50108 0.55563 0.84723 0.0
C1190 C 0.52602 0.53739 0.78086 0.0
C1191 C 0.53557 0.53259 0.74894 0.0
C1192 C 0.55609 0.529 0.75111 0.0
C1193 C 0.56928 0.53446 0.78429 0.0
C1194 C 0.55992 0.53946 0.81617 0.0
H1195 H 0.49061 0.55851 0.86973 0.0
H1196 H 0.52068 0.57062 0.84818 0.0
H1197 H 0.49259 0.55671 0.82096 0.0
H1198 H 0.50817 0.53641 0.77876 0.0
H1199 H 0.52512 0.52859 0.72362 0.0
H1200 H 0.89716 0.47002 1.0906 0.0
H1201 H 0.91839 0.48765 0.14852 0.0
H1202 H 0.98335 0.48719 1.10653 0.0
H1203 H 0.96175 0.4686 1.04896 0.0
H1204 H 0.97245 0.47274 0.18441 0.0
H1205 H 0.97024 0.56021 0.1604 0.0
H1206 H 0.94244 0.53061 0.16463 0.0
H1207 H 0.95992 0.53849 1.12263 0.0
C1208 C 0.91601 0.47368 1.09374 0.0
C1209 C 0.92804 0.46823 1.06518 0.0
C1210 C 0.928 0.48364 1.12698 0.0
C1211 C 0.9524 0.4888 0.13187 0.0
C1212 C 0.96431 0.48304 1.1035 0.0
H1213 H 0.07511 0.52317 1.11145 0.0
H1214 H 0.0582 0.52781 0.16904 0.0
C1215 C 0.95217 0.47268 1.07048 0.0
C1216 C 0.96703 0.50255 0.1643 0.0
H1217 H 0.00938 0.56351 0.17277 0.0
C1218 C 0.98018 0.49267 0.18238 0.0
C1219 C 0.97604 0.52845 0.16701 0.0
C1220 C 0.9614 0.54023 0.15302 0.0
C1221 C 0.00501 0.5084 0.19152 0.0
C1222 C 0.01634 0.53287 0.17766 0.0
C1223 C 0.00099 0.54366 0.1769 0.0
C1224 C 0.03233 0.53758 0.1443 0.0
C1225 C 0.01943 0.49776 0.20979 0.0
C1226 C 0.02546 0.54367 1.11031 0.0
C1227 C 0.03599 0.542 1.0773 0.0
C1228 C 0.05336 0.53388 1.07713 0.0
C1229 C 0.06109 0.52878 1.1107 0.0
C1230 C 0.05128 0.53137 0.14391 0.0
H1231 H 0.00784 0.48394 0.23081 0.0
H1232 H 0.02465 0.48791 0.18909 0.0
H1233 H 0.03633 0.51255 0.22322 0.0
H1234 H 0.01104 0.54864 1.1085 0.0
H1235 H 0.03 0.54636 1.05181 0.0
H1236 H 0.09398 0.55255 0.46014 0.0
H1237 H 0.06405 0.53796 0.40992 0.0
H1238 H 0.0162 0.47304 0.47375 0.0
H1239 H 0.04677 0.48693 0.52252 0.0
H1240 H 0.02402 0.5363 0.41006 0.0
H1241 H 0.99523 0.44062 0.37866 0.0
H1242 H 0.00099 0.44221 0.4269 0.0
H1243 H 0.02603 0.46115 0.39598 0.0
C1244 C 0.07721 0.53488 0.46293 0.0
C1245 C 0.07236 0.52084 0.49521 0.0
C1246 C 0.06029 0.52644 0.43401 0.0
C1247 C 0.03798 0.5041 0.4373 0.0
C1248 C 0.03364 0.48978 0.46936 0.0
H1249 H 0.93679 0.495 0.52486 0.0
H1250 H 0.96741 0.51 0.47604 0.0
C1251 C 0.05084 0.49793 0.49779 0.0
C1252 C 0.01696 0.49838 0.41239 0.0
H1253 H 0.96038 0.44757 0.40835 0.0
C1254 C 0.01024 0.51687 0.40782 0.0
C1255 C -0.00094 0.47351 0.40523 0.0
C1256 C 0.00595 0.45339 0.40141 0.0
C1257 C 0.98524 0.51044 0.40746 0.0
C1258 C 0.9674 0.48542 0.41359 0.0
C1259 C 0.97408 0.46705 0.40689 0.0
C1260 C 0.94629 0.47905 0.43877 0.0
C1261 C 0.97842 0.53068 0.4057 0.0
C1262 C 0.9243 0.45644 0.435 0.0
C1263 C 0.90748 0.44729 0.46396 0.0
C1264 C 0.91198 0.4609 0.4968 0.0
C1265 C 0.93306 0.48416 0.49986 0.0
C1266 C 0.95026 0.49299 0.47136 0.0
H1267 H 0.98777 0.54288 0.38186 0.0
H1268 H 0.95814 0.52313 0.40308 0.0
H1269 H 0.9852 0.54246 0.43072 0.0
H1270 H 0.92074 0.4452 0.4105 0.0
H1271 H 0.89106 0.42937 0.46073 0.0
H1272 H 0.41036 0.91453 0.80719 0.0
H1273 H 0.42995 0.94429 0.75817 0.0
H1274 H 0.50048 0.97189 0.81254 0.0
H1275 H 0.48104 0.94049 0.8604 0.0
H1276 H 0.44777 0.98951 0.76551 0.0
H1277 H 0.52416 0.98066 0.70908 0.0
H1278 H 0.49854 0.95493 0.7319 0.0
H1279 H 0.52561 0.97664 0.75747 0.0
C1280 C 0.43015 0.92659 0.80838 0.0
C1281 C 0.44423 0.92521 0.83766 0.0
C1282 C 0.44134 0.94345 0.78004 0.0
C1283 C 0.4668 0.95989 0.78088 0.0
C1284 C 0.48095 0.95867 0.81029 0.0
H1285 H 0.5498 0.057 0.86016 0.0
H1286 H 0.5294 0.02725 0.81078 0.0
C1287 C 0.46979 0.94125 0.83827 0.0
C1288 C 0.47767 0.98165 0.75632 0.0
H1289 H 0.53625 0.02459 0.73397 0.0
C1290 C 0.46683 -0.00306 0.75685 0.0
C1291 C 0.50177 0.99112 0.74199 0.0
C1292 C 0.51295 0.97471 0.73464 0.0
C1293 C 0.48159 0.02262 0.7534 0.0
C1294 C 0.50745 0.03252 0.75064 0.0
C1295 C 0.51657 0.01687 0.73877 0.0
C1296 C 0.52318 0.05243 0.7766 0.0
C1297 C 0.47006 0.03882 0.76002 0.0
C1298 C 0.52611 0.07632 0.77431 0.0
C1299 C 0.53681 0.09293 0.80345 0.0
C1300 C 0.54552 0.08616 0.8346 0.0
C1301 C 0.54315 0.06255 0.83648 0.0
C1302 C 0.53196 0.04579 0.80786 0.0
H1303 H 0.44964 0.02831 0.75677 0.0
H1304 H 0.47429 0.04646 0.78838 0.0
H1305 H 0.47764 0.0545 0.74039 0.0
H1306 H 0.51959 0.08193 0.75061 0.0
H1307 H 0.5387 0.11123 0.80126 0.0
H1308 H 0.50711 0.59139 0.17115 0.0
H1309 H 0.52644 0.58206 1.11973 0.0
H1310 H 0.46371 0.50779 1.11524 0.0
H1311 H 0.44301 0.51894 0.16169 0.0
H1312 H 0.54572 0.55945 1.11937 0.0
H1313 H 0.46099 0.49267 1.05481 0.0
H1314 H 0.48061 0.50524 1.01579 0.0
H1315 H 0.47425 0.52544 1.04427 0.0
C1316 C 0.49728 0.57341 0.1581 0.0
C1317 C 0.47369 0.55586 0.17022 0.0
C1318 C 0.50828 0.56801 1.12861 0.0
C1319 C 0.49675 0.54418 1.11266 0.0
C1320 C 0.47294 0.52672 1.12506 0.0
H1321 H 0.50102 0.44666 0.18527 0.0
H1322 H 0.49494 0.47172 0.13878 0.0
C1323 C 0.46131 0.53276 0.15279 0.0
C1324 C 0.51147 0.5355 1.09089 0.0
H1325 H 0.49668 0.47894 1.05576 0.0
C1326 C 0.5354 0.54254 1.10364 0.0
C1327 C 0.49979 0.51454 1.06748 0.0
C1328 C 0.47763 0.5094 1.04447 0.0
C1329 C 0.54427 0.52571 1.1029 0.0
C1330 C 0.52855 0.50151 1.08944 0.0
C1331 C 0.50792 0.49702 1.06825 0.0
C1332 C 0.52839 0.48051 1.10846 0.0
C1333 C 0.56823 0.53252 1.12246 0.0
C1334 C 0.54866 0.47654 1.10595 0.0
C1335 C 0.55262 0.46322 0.13329 0.0
C1336 C 0.53584 0.45287 0.16265 0.0
C1337 C 0.51432 0.45479 0.16319 0.0
C1338 C 0.51067 0.46868 0.13628 0.0
H1339 H 0.57884 0.5526 0.12923 0.0
H1340 H 0.56434 0.52189 0.14844 0.0
H1341 H 0.58003 0.52782 1.10495 0.0
H1342 H 0.56238 0.48534 1.08456 0.0
H1343 H 0.5692 0.46158 0.13187 0.0
H1344 H 0.30885 0.95986 0.78176 0.0
H1345 H 0.30364 0.98739 0.73893 0.0
H1346 H 0.32922 0.95926 0.65014 0.0
H1347 H 0.33369 0.93126 0.69239 0.0
H1348 H 0.34043 0.02418 0.70179 0.0
H1349 H 0.27204 0.9615 0.60162 0.0
H1350 H 0.27534 0.95104 0.64649 0.0
H1351 H 0.29454 0.95172 0.60868 0.0
C1352 C 0.3127 0.95908 0.7529 0.0
C1353 C 0.32172 0.94343 0.74037 0.0
C1354 C 0.30976 0.97485 0.72854 0.0
C1355 C 0.31555 0.97502 0.69125 0.0
C1356 C 0.32395 0.95894 0.6786 0.0
H1357 H 0.40334 0.06191 0.54276 0.0
H1358 H 0.3807 0.04754 0.60015 0.0
C1359 C 0.3269 0.94324 0.70287 0.0
C1360 C 0.31623 0.99405 0.66612 0.0
H1361 H 0.30635 0.00023 0.57588 0.0
C1362 C 0.33227 0.01908 0.67462 0.0
C1363 C 0.30489 0.98766 0.63117 0.0
C1364 C 0.28551 0.9615 0.6217 0.0
C1365 C 0.34004 0.0373 0.64735 0.0
C1366 C 0.33197 0.03007 0.61081 0.0
C1367 C 0.31309 0.00576 0.60372 0.0
C1368 C 0.34677 0.0449 0.5792 0.0
C1369 C 0.3583 0.06374 0.65734 0.0
C1370 C 0.33543 0.04858 0.5483 0.0
C1371 C 0.34845 0.05667 0.51519 0.0
C1372 C 0.37276 0.06078 0.51266 0.0
C1373 C 0.38457 0.05878 0.54418 0.0
C1374 C 0.3717 0.05088 0.57712 0.0
H1375 H 0.35408 0.06839 0.685 0.0
H1376 H 0.37717 0.06598 0.65852 0.0
H1377 H 0.35818 0.07704 0.63704 0.0
H1378 H 0.31613 0.04377 0.5492 0.0
H1379 H 0.33899 0.058 0.49104 0.0
H1380 H 0.41535 0.41954 1.06034 0.0
H1381 H 0.38612 0.42452 1.02205 0.0
H1382 H 0.33184 0.39576 1.10881 0.0
H1383 H 0.36135 0.39098 0.14785 0.0
H1384 H 0.31453 0.36995 1.04595 0.0
H1385 H 0.35622 0.46911 1.01332 0.0
H1386 H 0.37902 0.45955 1.00798 0.0
H1387 H 0.36582 0.45819 1.05269 0.0
C1388 C 0.39759 0.41517 1.07195 0.0
C1389 C 0.39066 0.40471 1.1071 0.0
C1390 C 0.38084 0.4181 1.04998 0.0
C1391 C 0.35687 0.41082 1.06273 0.0
C1392 C 0.3503 0.40164 1.09855 0.0
H1393 H 0.2915 0.42224 0.85937 0.0
H1394 H 0.29015 0.42127 0.92661 0.0
C1395 C 0.36711 0.39876 1.12067 0.0
C1396 C 0.33801 0.4091 1.03628 0.0
H1397 H 0.33339 0.44015 0.96253 0.0
C1398 C 0.31805 0.38549 1.02845 0.0
C1399 C 0.34205 0.42939 1.01401 0.0
C1400 C 0.3618 0.45551 1.02279 0.0
C1401 C 0.30427 0.3811 0.9961 0.0
C1402 C 0.31094 0.40072 0.971 0.0
C1403 C 0.32852 0.42493 0.98142 0.0
C1404 C 0.3047 0.39599 0.93152 0.0
C1405 C 0.28396 0.35513 0.98782 0.0
C1406 C 0.31247 0.3814 0.91201 0.0
C1407 C 0.31366 0.38222 0.87381 0.0
C1408 C 0.30716 0.39773 0.85425 0.0
C1409 C 0.29712 0.41049 0.87367 0.0
C1410 C 0.29611 0.40981 0.91206 0.0
H1411 H 0.27428 0.34561 1.01345 0.0
H1412 H 0.27024 0.35509 0.96822 0.0
H1413 H 0.29215 0.3443 0.97567 0.0
H1414 H 0.31981 0.3711 0.92634 0.0
H1415 H 0.32181 0.3724 0.86004 0.0
H1416 H 0.94404 0.3855 0.22877 0.0
H1417 H 0.9376 0.36924 0.29112 0.0
H1418 H 0.9053 0.29464 0.24846 0.0
H1419 H 0.91181 0.31098 0.18534 0.0
H1420 H 0.8908 0.32884 0.32853 0.0
H1421 H 0.96883 0.30893 0.31166 0.0
H1422 H 0.96612 0.33 0.28035 0.0
H1423 H 0.94378 0.29761 0.279 0.0
C1424 C 0.93551 0.36563 0.23264 0.0
C1425 C 0.92879 0.34949 0.20239 0.0
C1426 C 0.93157 0.35635 0.26819 0.0
C1427 C 0.92095 0.33079 0.27424 0.0
C1428 C 0.91344 0.31443 0.24419 0.0
H1429 H 0.98591 0.33739 0.48252 0.0
H1430 H 0.95289 0.31098 0.43983 0.0
C1431 C 0.91721 0.32375 0.20834 0.0
C1432 C 0.92059 0.32239 0.31217 0.0
H1433 H 0.96169 0.31945 0.37062 0.0
C1434 C 0.90564 0.32574 0.33799 0.0
C1435 C 0.9395 0.31772 0.32437 0.0
C1436 C 0.95554 0.31327 0.29758 0.0
C1437 C 0.91134 0.32791 0.37555 0.0
C1438 C 0.93285 0.32742 0.38705 0.0
C1439 C 0.94541 0.32026 0.36184 0.0
C1440 C 0.94632 0.34037 0.42091 0.0
C1441 C 0.89543 0.33268 0.40206 0.0
C1442 C 0.95283 0.36539 0.42575 0.0
C1443 C 0.97167 0.38047 0.44994 0.0
C1444 C 0.98465 0.37094 0.46942 0.0
C1445 C 0.97653 0.34536 0.4673 0.0
C1446 C 0.95753 0.33019 0.44315 0.0
H1447 H 0.87561 0.32128 0.39454 0.0
H1448 H 0.89802 0.32845 0.43081 0.0
H1449 H 0.90016 0.35243 0.40034 0.0
H1450 H 0.94508 0.37399 0.40828 0.0
H1451 H 0.9775 0.40007 0.45069 0.0
H1452 H 0.69319 0.04229 0.76625 0.0
H1453 H 0.71312 0.03051 0.71755 0.0
H1454 H 0.66601 0.0377 0.63707 0.0
H1455 H 0.64678 0.04991 0.68493 0.0
H1456 H 0.69098 0.98998 0.67606 0.0
H1457 H 0.72974 0.06852 0.5819 0.0
H1458 H 0.72281 0.07187 0.62918 0.0
H1459 H 0.69953 0.06317 0.59385 0.0
C1460 C 0.68766 0.04197 0.73795 0.0
C1461 C 0.66835 0.0468 0.72925 0.0
C1462 C 0.69902 0.03524 0.71025 0.0
C1463 C 0.69144 0.03372 0.67354 0.0
C1464 C 0.67277 0.03948 0.66494 0.0
H1465 H 0.62063 0.93456 0.53097 0.0
H1466 H 0.64745 0.95347 0.58319 0.0
C1467 C 0.66146 0.04607 0.69241 0.0
C1468 C 0.69985 0.02274 0.64444 0.0
H1469 H 0.70531 0.02666 0.55162 0.0
C1470 C 0.69511 -0.00173 0.64896 0.0
C1471 C 0.70664 0.03377 0.60939 0.0
C1472 C 0.71527 0.06092 0.60354 0.0
C1473 C 0.69265 0.98337 0.61832 0.0
C1474 C 0.69395 0.99301 0.58267 0.0
C1475 C 0.70319 0.01867 0.57874 0.0
C1476 C 0.68027 0.97675 0.55106 0.0
C1477 C 0.68695 0.95702 0.62454 0.0
C1478 C 0.68952 0.98299 0.5151 0.0
C1479 C 0.67368 0.97292 0.48493 0.0
C1480 C 0.64837 0.9562 0.49022 0.0
C1481 C 0.63985 0.94791 0.52596 0.0
C1482 C 0.65549 0.95834 0.55602 0.0
H1483 H 0.69893 0.95644 0.64672 0.0
H1484 H 0.66752 0.94576 0.63394 0.0
H1485 H 0.68975 0.94853 0.59931 0.0
H1486 H 0.70853 -0.00291 0.5104 0.0
H1487 H 0.68093 0.97975 0.45779 0.0
H1488 H 0.58956 0.65776 1.03892 0.0
H1489 H 0.62144 0.66126 0.99665 0.0
H1490 H 0.67482 0.6873 1.08477 0.0
H1491 H 0.64242 0.68191 1.1281 0.0
H1492 H 0.66484 0.69925 0.97513 0.0
H1493 H 0.6813 0.62956 1.04816 0.0
H1494 H 0.656 0.63467 1.06048 0.0
H1495 H 0.68712 0.65713 1.07279 0.0
C1496 C 0.60795 0.6639 1.04956 0.0
C1497 C 0.61323 0.66907 1.08709 0.0
C1498 C 0.62631 0.66627 1.02521 0.0
C1499 C 0.65047 0.67422 1.03764 0.0
C1500 C 0.65621 0.68064 1.07472 0.0
H1501 H 0.71073 0.65659 0.83004 0.0
H1502 H 0.71885 0.67869 0.88885 0.0
C1503 C 0.63768 0.67785 1.09934 0.0
C1504 C 0.66867 0.67405 1.01145 0.0
H1505 H 0.69476 0.63862 0.98771 0.0
C1506 C 0.67199 0.68646 0.978 0.0
C1507 C 0.67842 0.65777 1.01579 0.0
C1508 C 0.67553 0.64389 1.05111 0.0
C1509 C 0.68141 0.68032 0.9471 0.0
C1510 C 0.6887 0.66198 0.9504 0.0
C1511 C 0.68887 0.65243 0.98526 0.0
C1512 C 0.68939 0.64785 0.91786 0.0
C1513 C 0.68071 0.69143 0.91054 0.0
C1514 C 0.67172 0.62259 0.91559 0.0
C1515 C 0.66758 0.6098 0.88257 0.0
C1516 C 0.68071 0.62209 0.85088 0.0
C1517 C 0.70009 0.6467 0.85393 0.0
C1518 C 0.70458 0.65944 0.8874 0.0
H1519 H 0.67214 0.70351 0.91255 0.0
H1520 H 0.69982 0.70286 0.90005 0.0
H1521 H 0.67007 0.67657 0.89016 0.0
H1522 H 0.65989 0.61309 0.93877 0.0
H1523 H 0.6531 0.59059 0.8814 0.0
H1524 H 0.0762 0.64531 0.20731 0.0
H1525 H 0.05772 0.65328 0.26093 0.0
H1526 H 0.03188 0.69332 0.19385 0.0
H1527 H 0.0486 0.68363 0.13935 0.0
H1528 H 0.05656 0.69006 0.29955 0.0
H1529 H 0.96767 0.63485 0.2237 0.0
H1530 H -0.00359 0.63881 0.20565 0.0
H1531 H 0.98988 0.66412 0.20469 0.0
C1532 C 0.06671 0.65593 0.20391 0.0
C1533 C 0.06303 0.66296 0.16886 0.0
C1534 C 0.05648 0.66084 0.23472 0.0
C1535 C 0.04273 0.67322 0.23115 0.0
C1536 C 0.04179 0.6831 0.19698 0.0
H1537 H 0.95928 0.637 0.43987 0.0
H1538 H 0.98214 0.66552 0.38979 0.0
C1539 C 0.05161 0.67773 0.16589 0.0
C1540 C 0.02625 0.67151 0.26173 0.0
H1541 H 0.96587 0.63642 0.28703 0.0
C1542 C 0.03663 0.67899 0.29687 0.0
C1543 C 0.00021 0.65718 0.25796 0.0
C1544 C 0.98777 0.64813 0.22109 0.0
C1545 C 0.02202 0.66993 0.32854 0.0
C1546 C -0.00361 0.65358 0.32459 0.0
C1547 C 0.98562 0.64881 0.28962 0.0
C1548 C 0.98162 0.63699 0.35463 0.0
C1549 C 0.03439 0.6758 0.36569 0.0
C1550 C 0.97337 0.61153 0.35094 0.0
C1551 C 0.96006 0.59523 0.379 0.0
C1552 C 0.95485 0.60408 0.4115 0.0
C1553 C 0.96288 0.62961 0.41501 0.0
C1554 C 0.97612 0.64596 0.38666 0.0
H1555 H 0.05479 0.68754 0.36367 0.0
H1556 H 0.02716 0.68578 0.38268 0.0
H1557 H 0.03013 0.65838 0.38016 0.0
H1558 H 0.97746 0.60427 0.32633 0.0
H1559 H 0.95377 0.57566 0.37513 0.0
H1560 H 0.47742 0.08649 0.4836 0.0
H1561 H 0.49193 0.09313 0.54765 0.0
H1562 H 0.56733 0.13326 0.51004 0.0
H1563 H 0.55303 0.12706 0.44643 0.0
H1564 H 0.51988 0.07887 0.5863 0.0
H1565 H 0.56978 0.18127 0.58644 0.0
H1566 H 0.54912 0.16335 0.54978 0.0
H1567 H 0.5804 0.16874 0.55067 0.0
C1568 C 0.49709 0.09714 0.48887 0.0
C1569 C 0.51388 0.10654 0.45921 0.0
C1570 C 0.50546 0.10083 0.5258 0.0
C1571 C 0.53091 0.11423 0.53454 0.0
C1572 C 0.54762 0.1235 0.50487 0.0
H1573 H 0.59936 0.1041 0.74133 0.0
H1574 H 0.58293 0.10014 0.67944 0.0
C1575 C 0.53931 0.1198 0.46808 0.0
C1576 C 0.54007 0.11786 0.5742 0.0
H1577 H 0.57825 0.1619 0.63675 0.0
C1578 C 0.53255 0.0971 0.59721 0.0
C1579 C 0.55638 0.14157 0.58952 0.0
C1580 C 0.56421 0.16502 0.56798 0.0
C1581 C 0.54123 0.09925 0.6339 0.0
C1582 C 0.55847 0.12287 0.64866 0.0
C1583 C 0.56539 0.14369 0.62599 0.0
C1584 C 0.56963 0.12631 0.68707 0.0
C1585 C 0.53132 0.07598 0.65666 0.0
C1586 C 0.56912 0.14333 0.71268 0.0
C1587 C 0.57904 0.146 0.7486 0.0
C1588 C 0.59003 0.13186 0.76019 0.0
C1589 C 0.59116 0.11544 0.73406 0.0
C1590 C 0.58134 0.11284 0.69834 0.0
H1591 H 0.54413 0.06831 0.65459 0.0
H1592 H 0.52958 0.07979 0.686 0.0
H1593 H 0.51292 0.06151 0.64663 0.0
H1594 H 0.56049 0.15424 0.7052 0.0
H1595 H 0.57745 0.15866 0.76761 0.0
H1596 H 0.37631 0.48627 0.81847 0.0
H1597 H 0.38288 0.49996 0.88314 0.0
H1598 H 0.44968 0.5661 0.85248 0.0
H1599 H 0.44237 0.55333 0.78831 0.0
H1600 H 0.41385 0.50827 0.93483 0.0
H1601 H 0.42302 0.60029 0.91103 0.0
H1602 H 0.41341 0.57735 0.87508 0.0
H1603 H 0.44584 0.59716 0.885 0.0
C1604 C 0.39215 0.50397 0.8254 0.0
C1605 C 0.40832 0.51892 0.7974 0.0
C1606 C 0.39605 0.51182 0.86274 0.0
C1607 C 0.41644 0.53476 0.8736 0.0
C1608 C 0.43308 0.54903 0.84564 0.0
H1609 H 0.48367 0.61014 1.08394 0.0
H1610 H 0.47444 0.59548 1.02004 0.0
C1611 C 0.42892 0.54151 0.80846 0.0
C1612 C 0.42069 0.54357 0.91374 0.0
H1613 H 0.43733 0.59468 0.96927 0.0
C1614 C 0.41875 0.52715 0.94207 0.0
C1615 C 0.42696 0.56818 0.9245 0.0
C1616 C 0.42715 0.58663 0.89734 0.0
C1617 C 0.42347 0.53466 0.97959 0.0
C1618 C 0.43054 0.55944 0.98994 0.0
C1619 C 0.43229 0.57579 0.96184 0.0
C1620 C 0.43603 0.56869 1.02958 0.0
C1621 C 0.4212 0.51598 1.00796 0.0
C1622 C 0.41763 0.55907 1.05704 0.0
C1623 C 0.4228 0.56779 1.09377 0.0
C1624 C 0.44664 0.58639 1.10465 0.0
C1625 C 0.46503 0.59603 1.07706 0.0
C1626 C 0.45975 0.58754 1.04023 0.0
H1627 H 0.42198 0.49998 0.99536 0.0
H1628 H 0.436 0.52464 1.02893 0.0
H1629 H 0.4032 0.50889 1.02228 0.0
H1630 H 0.39909 0.54476 1.05006 0.0
H1631 H 0.40807 0.55957 1.11385 0.0
H1632 H 0.89849 0.40181 0.1478 0.0
H1633 H 0.89216 0.40825 0.21207 0.0
H1634 H 0.83923 0.43077 0.18028 0.0
H1635 H 0.84518 0.42375 1.11529 0.0
H1636 H 0.90166 0.44736 0.24986 0.0
H1637 H 0.80072 0.38529 0.2618 0.0
H1638 H 0.81799 0.38502 0.22205 0.0
H1639 H 0.80877 0.40833 0.22683 0.0
C1640 C 0.88516 0.4078 0.15419 0.0
C1641 C 0.87216 0.41192 1.12566 0.0
C1642 C 0.88163 0.41164 0.19141 0.0
C1643 C 0.86493 0.41979 0.20205 0.0
C1644 C 0.85177 0.42385 0.17364 0.0
H1645 H 0.87755 0.48739 0.42229 0.0
H1646 H 0.87896 0.47944 0.35681 0.0
C1647 C 0.85522 0.41986 0.13613 0.0
C1648 C 0.86234 0.42478 0.24252 0.0
H1649 H 0.82055 0.41174 0.31282 0.0
C1650 C 0.88383 0.43948 0.26341 0.0
C1651 C 0.83927 0.4144 0.26127 0.0
C1652 C 0.81539 0.39718 0.242 0.0
C1653 C 0.88297 0.44417 0.30146 0.0
C1654 C 0.85985 0.43449 0.31995 0.0
C1655 C 0.83835 0.41954 0.29922 0.0
C1656 C 0.8577 0.43944 0.36056 0.0
C1657 C 0.90714 0.45888 0.32164 0.0
C1658 C 0.84427 0.4199 0.38547 0.0
C1659 C 0.84306 0.42448 0.42341 0.0
C1660 C 0.85513 0.44882 0.43789 0.0
C1661 C 0.86796 0.46835 0.41272 0.0
C1662 C 0.86906 0.46377 0.37491 0.0
H1663 H 0.92253 0.45796 0.30737 0.0
H1664 H 0.91187 0.47865 0.32283 0.0
H1665 H 0.90594 0.45209 0.35013 0.0
H1666 H 0.83513 0.4009 0.37572 0.0
H1667 H 0.83312 0.40883 0.44154 0.0
H1668 H 0.52184 0.92051 0.49165 0.0
H1669 H 0.50536 0.91235 0.55465 0.0
H1670 H 0.43287 0.86178 0.51263 0.0
H1671 H 0.4492 0.86956 0.45002 0.0
H1672 H 0.47042 0.91992 0.58918 0.0
H1673 H 0.43823 0.81928 0.59144 0.0
H1674 H 0.45824 0.83927 0.55583 0.0
H1675 H 0.42543 0.82798 0.5539 0.0
C1676 C 0.50246 0.90729 0.49579 0.0
C1677 C 0.48707 0.89545 0.46527 0.0
C1678 C 0.49294 0.90276 0.53204 0.0
C1679 C 0.46776 0.88604 0.53915 0.0
C1680 C 0.45242 0.87427 0.50863 0.0
H1681 H 0.38716 0.87963 0.74457 0.0
H1682 H 0.40366 0.88652 0.68183 0.0
C1683 C 0.46187 0.87885 0.47249 0.0
C1684 C 0.45739 0.88128 0.57803 0.0
H1685 H 0.42423 0.835 0.64029 0.0
C1686 C 0.46039 0.90131 0.60026 0.0
C1687 C 0.44444 0.8571 0.5934 0.0
C1688 C 0.44158 0.8347 0.57259 0.0
C1689 C 0.4506 0.89786 0.63643 0.0
C1690 C 0.43687 0.87358 0.65125 0.0
C1691 C 0.43432 0.85363 0.62929 0.0
C1692 C 0.42569 0.8685 0.68963 0.0
C1693 C 0.45564 0.92047 0.65876 0.0
C1694 C 0.43146 0.85512 0.71537 0.0
C1695 C 0.42179 0.85092 0.75141 0.0
C1696 C 0.40567 0.85964 0.76308 0.0
C1697 C 0.39928 0.87236 0.73694 0.0
C1698 C 0.40907 0.87667 0.70091 0.0
H1699 H 0.47189 0.93747 0.64813 0.0
H1700 H 0.43935 0.92334 0.65725 0.0
H1701 H 0.45899 0.91816 0.68807 0.0
H1702 H 0.44402 0.84837 0.70785 0.0
H1703 H 0.42739 0.84119 0.77043 0.0
H1704 H 0.57489 0.44464 0.78375 0.0
H1705 H 0.5678 0.43083 0.84765 0.0
H1706 H 0.6051 0.50685 0.88434 0.0
H1707 H 0.61227 0.52087 0.82024 0.0
H1708 H 0.59689 0.43579 0.90591 0.0
H1709 H 0.54105 0.48058 0.94097 0.0
H1710 H 0.5497 0.4782 0.89442 0.0
H1711 H 0.57149 0.50192 0.92458 0.0
C1712 C 0.58184 0.45857 0.80526 0.0
C1713 C 0.59408 0.48403 0.79618 0.0
C1714 C 0.57768 0.45055 0.84214 0.0
C1715 C 0.58538 0.46759 0.87156 0.0
C1716 C 0.5983 0.49307 0.86264 0.0
H1717 H 0.58484 0.42241 1.10537 0.0
H1718 H 0.59752 0.43862 1.04282 0.0
C1719 C 0.60258 0.50114 0.82566 0.0
C1720 C 0.57968 0.45856 0.91112 0.0
H1721 H 0.55072 0.46172 0.99001 0.0
C1722 C 0.58686 0.44159 0.92424 0.0
C1723 C 0.5662 0.46555 0.93551 0.0
C1724 C 0.55642 0.48237 0.9232 0.0
C1725 C 0.58119 0.43173 0.96037 0.0
C1726 C 0.56817 0.43913 0.98503 0.0
C1727 C 0.5609 0.45602 0.97181 0.0
C1728 C 0.56076 0.42874 1.02373 0.0
C1729 C 0.58854 0.41274 0.97127 0.0
C1730 C 0.53591 0.41794 1.03505 0.0
C1731 C 0.52862 0.40866 1.07091 0.0
C1732 C 0.54588 0.40986 1.09728 0.0
C1733 C 0.57081 0.4206 1.08602 0.0
C1734 C 0.57812 0.42993 1.04993 0.0
H1735 H 0.59209 0.40407 0.94688 0.0
H1736 H 0.60582 0.42195 0.98766 0.0
H1737 H 0.57398 0.39788 0.98825 0.0
H1738 H 0.52193 0.41667 1.016 0.0
H1739 H 0.50929 0.40088 1.0781 0.0
H1740 H 0.15516 0.57397 0.43852 0.0
H1741 H 0.15432 0.58317 0.37297 0.0
H1742 H 0.10471 0.50578 0.35149 0.0
H1743 H 0.10527 0.49655 0.41646 0.0
H1744 H 0.1673 0.56859 0.30901 0.0
H1745 H 0.06681 0.5355 0.3037 0.0
H1746 H 0.08321 0.54031 0.34648 0.0
H1747 H 0.07379 0.51236 0.32026 0.0
C1748 C 0.14418 0.55885 0.41988 0.0
C1749 C 0.13037 0.53444 0.43343 0.0
C1750 C 0.14365 0.56416 0.38213 0.0
C1751 C 0.12906 0.54533 0.35664 0.0
C1752 C 0.1157 0.52093 0.37011 0.0
H1753 H 0.14109 0.55296 1.11301 0.0
H1754 H 0.14508 0.54667 0.17865 0.0
C1755 C 0.11628 0.5156 0.40763 0.0
C1756 C 0.12787 0.55098 0.31622 0.0
H1757 H 0.08761 0.54361 0.24619 0.0
C1758 C 0.14982 0.56315 0.29544 0.0
C1759 C 0.10523 0.54435 0.29785 0.0
C1760 C 0.08094 0.53263 0.31824 0.0
C1761 C 0.14973 0.56827 0.25742 0.0
C1762 C 0.12702 0.56085 0.23877 0.0
C1763 C 0.10512 0.54916 0.25976 0.0
C1764 C 0.12551 0.56545 0.19798 0.0
C1765 C 0.17419 0.58216 0.2378 0.0
C1766 C 0.11292 0.57787 0.18585 0.0
C1767 C 0.11067 0.58157 0.1481 0.0
C1768 C 0.12069 0.57275 1.12075 0.0
C1769 C 0.13344 0.56045 0.13286 0.0
C1770 C 0.13577 0.55684 0.17073 0.0
H1771 H 0.18962 0.59269 0.25734 0.0
H1772 H 0.17807 0.56871 0.22302 0.0
H1773 H 0.17386 0.59531 0.21743 0.0
H1774 H 0.10463 0.5847 0.2057 0.0
H1775 H 0.10042 0.59086 0.14036 0.0
loop_
_geom_bond_atom_site_label_1
_geom_bond_atom_site_label_2
_geom_bond_distance
_geom_bond_site_symmetry_2
_ccdc_geom_bond_type
Ho0 C3 2.811 . S
Ho0 O20 2.322 . S
Ho0 O22 2.378 . S
Ho0 O23 2.524 . S
Ho0 O24 2.381 . S
Ho0 O25 2.669 . S
Ho0 O27 2.346 . S
Ho0 O31 2.305 . S
Ho1 C12 2.811 . S
Ho1 O21 2.346 . S
Ho1 O25 2.305 . S
Ho1 O26 2.322 . S
Ho1 O28 2.378 . S
Ho1 O29 2.524 . S
Ho1 O30 2.381 . S
Ho1 O31 2.669 . S
C2 O20 1.259 . S
C2 O21 1.268 . S
C3 Ho0 2.811 . S
C3 C4 1.488 . S
C3 O22 1.215 . S
C3 O23 1.289 . S
C4 C3 1.488 . S
C4 C5 1.348 . S
C4 C9 1.413 . S
C5 C4 1.348 . S
C5 C6 1.442 . S
C5 H32 0.930 . S
C6 C5 1.442 . S
C6 C7 1.381 . S
C6 H33 0.931 . S
C7 C6 1.381 . S
C7 C8 1.321 . S
C8 C7 1.321 . S
C8 C9 1.403 . S
C8 H34 0.934 . S
C9 C4 1.413 . S
C9 C8 1.403 . S
C9 H35 0.930 . S
C10 O24 1.275 . S
C10 O25 1.256 . S
C11 O26 1.259 . S
C11 O27 1.268 . S
C12 Ho1 2.811 . S
C12 C13 1.488 . S
C12 O28 1.215 . S
C12 O29 1.289 . S
C13 C12 1.488 . S
C13 C14 1.348 . S
C13 C18 1.413 . S
C14 C13 1.348 . S
C14 C15 1.442 . S
C14 H36 0.930 . S
C15 C14 1.442 . S
C15 C16 1.381 . S
C15 H37 0.931 . S
C16 C15 1.381 . S
C16 C17 1.321 . S
C17 C16 1.321 . S
C17 C18 1.403 . S
C17 H38 0.934 . S
C18 C13 1.413 . S
C18 C17 1.403 . S
C18 H39 0.930 . S
C19 O30 1.275 . S
C19 O31 1.256 . S
O20 Ho0 2.322 . S
O20 C2 1.259 . S
O21 Ho1 2.346 . S
O21 C2 1.268 . S
O22 Ho0 2.378 . S
O22 C3 1.215 . S
O23 Ho0 2.524 . S
O23 C3 1.289 . S
O24 Ho0 2.381 . S
O24 C10 1.275 . S
O25 Ho0 2.669 . S
O25 Ho1 2.305 . S
O25 C10 1.256 . S
O26 Ho1 2.322 . S
O26 C11 1.259 . S
O27 Ho0 2.346 . S
O27 C11 1.268 . S
O28 Ho1 2.378 . S
O28 C12 1.215 . S
O29 Ho1 2.524 . S
O29 C12 1.289 . S
O30 Ho1 2.381 . S
O30 C19 1.275 . S
O31 Ho0 2.305 . S
O31 Ho1 2.669 . S
O31 C19 1.256 . S
H32 C5 0.930 . S
H33 C6 0.931 . S
H34 C8 0.934 . S
H35 C9 0.930 . S
H36 C14 0.930 . S
H37 C15 0.931 . S
H38 C17 0.934 . S
H39 C18 0.930 . S
Ho40 C43 2.811 . S
Ho40 O60 2.322 . S
Ho40 O62 2.378 . S
Ho40 O63 2.524 . S
Ho40 O64 2.381 . S
Ho40 O65 2.669 . S
Ho40 O67 2.346 . S
Ho40 O71 2.305 . S
Ho41 C52 2.811 . S
Ho41 O61 2.346 . S
Ho41 O65 2.305 . S
Ho41 O66 2.322 . S
Ho41 O68 2.378 . S
Ho41 O69 2.524 . S
Ho41 O70 2.381 . S
Ho41 O71 2.669 . S
C42 O60 1.259 . S
C42 O61 1.268 . S
C43 Ho40 2.811 . S
C43 C44 1.488 . S
C43 O62 1.215 . S
C43 O63 1.289 . S
C44 C43 1.488 . S
C44 C45 1.348 . S
C44 C49 1.413 . S
C45 C44 1.348 . S
C45 C46 1.442 . S
C45 H72 0.930 . S
C46 C45 1.442 . S
C46 C47 1.381 . S
C46 H73 0.931 . S
C47 C46 1.381 . S
C47 C48 1.321 . S
C48 C47 1.321 . S
C48 C49 1.403 . S
C48 H74 0.934 . S
C49 C44 1.413 . S
C49 C48 1.403 . S
C49 H75 0.930 . S
C50 O64 1.275 . S
C50 O65 1.256 . S
C51 O66 1.259 . S
C51 O67 1.268 . S
C52 Ho41 2.811 . S
C52 C53 1.488 . S
C52 O68 1.215 . S
C52 O69 1.289 . S
C53 C52 1.488 . S
C53 C54 1.348 . S
C53 C58 1.413 . S
C54 C53 1.348 . S
C54 C55 1.442 . S
C54 H76 0.930 . S
C55 C54 1.442 . S
C55 C56 1.381 . S
C55 H77 0.931 . S
C56 C55 1.381 . S
C56 C57 1.321 . S
C57 C56 1.321 . S
C57 C58 1.403 . S
C57 H78 0.934 . S
C58 C53 1.413 . S
C58 C57 1.403 . S
C58 H79 0.930 . S
C59 O70 1.275 . S
C59 O71 1.256 . S
O60 Ho40 2.322 . S
O60 C42 1.259 . S
O61 Ho41 2.346 . S
O61 C42 1.268 . S
O62 Ho40 2.378 . S
O62 C43 1.215 . S
O63 Ho40 2.524 . S
O63 C43 1.289 . S
O64 Ho40 2.381 . S
O64 C50 1.275 . S
O65 Ho40 2.669 . S
O65 Ho41 2.305 . S
O65 C50 1.256 . S
O66 Ho41 2.322 . S
O66 C51 1.259 . S
O67 Ho40 2.346 . S
O67 C51 1.268 . S
O68 Ho41 2.378 . S
O68 C52 1.215 . S
O69 Ho41 2.524 . S
O69 C52 1.289 . S
O70 Ho41 2.381 . S
O70 C59 1.275 . S
O71 Ho40 2.305 . S
O71 Ho41 2.669 . S
O71 C59 1.256 . S
H72 C45 0.930 . S
H73 C46 0.931 . S
H74 C48 0.934 . S
H75 C49 0.930 . S
H76 C54 0.930 . S
H77 C55 0.931 . S
H78 C57 0.934 . S
H79 C58 0.930 . S
Ho80 C83 2.811 . S
Ho80 O100 2.322 . S
Ho80 O102 2.378 . S
Ho80 O103 2.524 . S
Ho80 O104 2.381 . S
Ho80 O105 2.669 . S
Ho80 O107 2.346 . S
Ho80 O111 2.305 . S
Ho81 C92 2.811 . S
Ho81 O101 2.346 . S
Ho81 O105 2.305 . S
Ho81 O106 2.322 . S
Ho81 O108 2.378 . S
Ho81 O109 2.524 . S
Ho81 O110 2.381 . S
Ho81 O111 2.669 . S
C82 O100 1.259 . S
C82 O101 1.268 . S
C83 Ho80 2.811 . S
C83 C84 1.488 1_556 S
C83 O102 1.215 . S
C83 O103 1.289 . S
C84 C83 1.488 1_554 S
C84 C85 1.348 . S
C84 C89 1.413 . S
C85 C84 1.348 . S
C85 C86 1.442 . S
C85 H112 0.930 . S
C86 C85 1.442 . S
C86 C87 1.381 . S
C86 H113 0.931 . S
C87 C86 1.381 . S
C87 C88 1.321 . S
C88 C87 1.321 . S
C88 C89 1.403 . S
C88 H114 0.934 . S
C89 C84 1.413 . S
C89 C88 1.403 . S
C89 H115 0.930 . S
C90 O104 1.275 . S
C90 O105 1.256 . S
C91 O106 1.259 . S
C91 O107 1.268 . S
C92 Ho81 2.811 . S
C92 C93 1.488 . S
C92 O108 1.215 . S
C92 O109 1.289 . S
C93 C92 1.488 . S
C93 C94 1.348 . S
C93 C98 1.413 . S
C94 C93 1.348 . S
C94 C95 1.442 . S
C94 H116 0.930 . S
C95 C94 1.442 . S
C95 C96 1.381 . S
C95 H117 0.931 . S
C96 C95 1.381 . S
C96 C97 1.321 . S
C97 C96 1.321 . S
C97 C98 1.403 . S
C97 H118 0.934 . S
C98 C93 1.413 . S
C98 C97 1.403 . S
C98 H119 0.930 . S
C99 O110 1.275 . S
C99 O111 1.256 . S
O100 Ho80 2.322 . S
O100 C82 1.259 . S
O101 Ho81 2.346 . S
O101 C82 1.268 . S
O102 Ho80 2.378 . S
O102 C83 1.215 . S
O103 Ho80 2.524 . S
O103 C83 1.289 . S
O104 Ho80 2.381 . S
O104 C90 1.275 . S
O105 Ho80 2.669 . S
O105 Ho81 2.305 . S
O105 C90 1.256 . S
O106 Ho81 2.322 . S
O106 C91 1.259 . S
O107 Ho80 2.346 . S
O107 C91 1.268 . S
O108 Ho81 2.378 . S
O108 C92 1.215 . S
O109 Ho81 2.524 . S
O109 C92 1.289 . S
O110 Ho81 2.381 . S
O110 C99 1.275 . S
O111 Ho80 2.305 . S
O111 Ho81 2.669 . S
O111 C99 1.256 . S
H112 C85 0.930 . S
H113 C86 0.931 . S
H114 C88 0.934 . S
H115 C89 0.930 . S
H116 C94 0.930 . S
H117 C95 0.931 . S
H118 C97 0.934 . S
H119 C98 0.930 . S
Ho120 C123 2.811 . S
Ho120 O140 2.322 . S
Ho120 O142 2.378 . S
Ho120 O143 2.524 . S
Ho120 O144 2.381 . S
Ho120 O145 2.669 . S
Ho120 O147 2.346 . S
Ho120 O151 2.305 . S
Ho121 C132 2.811 . S
Ho121 O141 2.346 . S
Ho121 O145 2.305 . S
Ho121 O146 2.322 . S
Ho121 O148 2.378 . S
Ho121 O149 2.524 . S
Ho121 O150 2.381 . S
Ho121 O151 2.669 . S
C122 O140 1.259 . S
C122 O141 1.268 . S
C123 Ho120 2.811 . S
C123 C124 1.488 . S
C123 O142 1.215 . S
C123 O143 1.289 . S
C124 C123 1.488 . S
C124 C125 1.348 . S
C124 C129 1.413 . S
C125 C124 1.348 . S
C125 C126 1.442 . S
C125 H152 0.930 . S
C126 C125 1.442 . S
C126 C127 1.381 . S
C126 H153 0.931 . S
C127 C126 1.381 . S
C127 C128 1.321 . S
C128 C127 1.321 . S
C128 C129 1.403 . S
C128 H154 0.934 . S
C129 C124 1.413 . S
C129 C128 1.403 . S
C129 H155 0.930 . S
C130 O144 1.275 . S
C130 O145 1.256 . S
C131 O146 1.259 . S
C131 O147 1.268 . S
C132 Ho121 2.811 . S
C132 C133 1.488 . S
C132 O148 1.215 . S
C132 O149 1.289 . S
C133 C132 1.488 . S
C133 C134 1.348 . S
C133 C138 1.413 . S
C134 C133 1.348 . S
C134 C135 1.442 . S
C134 H156 0.930 . S
C135 C134 1.442 . S
C135 C136 1.381 . S
C135 H157 0.931 . S
C136 C135 1.381 . S
C136 C137 1.321 . S
C137 C136 1.321 . S
C137 C138 1.403 . S
C137 H158 0.934 . S
C138 C133 1.413 . S
C138 C137 1.403 . S
C138 H159 0.930 . S
C139 O150 1.275 . S
C139 O151 1.256 . S
O140 Ho120 2.322 . S
O140 C122 1.259 . S
O141 Ho121 2.346 . S
O141 C122 1.268 . S
O142 Ho120 2.378 . S
O142 C123 1.215 . S
O143 Ho120 2.524 . S
O143 C123 1.289 . S
O144 Ho120 2.381 . S
O144 C130 1.275 . S
O145 Ho120 2.669 . S
O145 Ho121 2.305 . S
O145 C130 1.256 . S
O146 Ho121 2.322 . S
O146 C131 1.259 . S
O147 Ho120 2.346 . S
O147 C131 1.268 . S
O148 Ho121 2.378 . S
O148 C132 1.215 . S
O149 Ho121 2.524 . S
O149 C132 1.289 . S
O150 Ho121 2.381 . S
O150 C139 1.275 . S
O151 Ho120 2.305 . S
O151 Ho121 2.669 . S
O151 C139 1.256 . S
H152 C125 0.930 . S
H153 C126 0.931 . S
H154 C128 0.934 . S
H155 C129 0.930 . S
H156 C134 0.930 . S
H157 C135 0.931 . S
H158 C137 0.934 . S
H159 C138 0.930 . S
Ho160 C163 2.811 . S
Ho160 O180 2.322 . S
Ho160 O182 2.378 . S
Ho160 O183 2.524 . S
Ho160 O184 2.381 . S
Ho160 O185 2.669 . S
Ho160 O187 2.346 . S
Ho160 O191 2.305 . S
Ho161 C172 2.811 . S
Ho161 O181 2.346 . S
Ho161 O185 2.305 . S
Ho161 O186 2.322 . S
Ho161 O188 2.378 . S
Ho161 O189 2.524 . S
Ho161 O190 2.381 . S
Ho161 O191 2.669 . S
C162 O180 1.259 . S
C162 O181 1.268 . S
C163 Ho160 2.811 . S
C163 C164 1.488 . S
C163 O182 1.215 . S
C163 O183 1.289 . S
C164 C163 1.488 . S
C164 C165 1.348 . S
C164 C169 1.413 . S
C165 C164 1.348 . S
C165 C166 1.442 . S
C165 H192 0.930 . S
C166 C165 1.442 . S
C166 C167 1.381 . S
C166 H193 0.931 . S
C167 C166 1.381 . S
C167 C168 1.321 . S
C168 C167 1.321 . S
C168 C169 1.403 . S
C168 H194 0.934 . S
C169 C164 1.413 . S
C169 C168 1.403 . S
C169 H195 0.930 . S
C170 O184 1.275 . S
C170 O185 1.256 . S
C171 O186 1.259 . S
C171 O187 1.268 . S
C172 Ho161 2.811 . S
C172 C173 1.488 . S
C172 O188 1.215 . S
C172 O189 1.289 . S
C173 C172 1.488 . S
C173 C174 1.348 . S
C173 C178 1.413 . S
C174 C173 1.348 . S
C174 C175 1.442 . S
C174 H196 0.930 . S
C175 C174 1.442 . S
C175 C176 1.381 . S
C175 H197 0.931 . S
C176 C175 1.381 . S
C176 C177 1.321 . S
C177 C176 1.321 . S
C177 C178 1.403 . S
C177 H198 0.934 . S
C178 C173 1.413 . S
C178 C177 1.403 . S
C178 H199 0.930 . S
C179 O190 1.275 . S
C179 O191 1.256 . S
O180 Ho160 2.322 . S
O180 C162 1.259 . S
O181 Ho161 2.346 . S
O181 C162 1.268 . S
O182 Ho160 2.378 . S
O182 C163 1.215 . S
O183 Ho160 2.524 . S
O183 C163 1.289 . S
O184 Ho160 2.381 . S
O184 C170 1.275 . S
O185 Ho160 2.669 . S
O185 Ho161 2.305 . S
O185 C170 1.256 . S
O186 Ho161 2.322 . S
O186 C171 1.259 . S
O187 Ho160 2.346 . S
O187 C171 1.268 . S
O188 Ho161 2.378 . S
O188 C172 1.215 . S
O189 Ho161 2.524 . S
O189 C172 1.289 . S
O190 Ho161 2.381 . S
O190 C179 1.275 . S
O191 Ho160 2.305 . S
O191 Ho161 2.669 . S
O191 C179 1.256 . S
H192 C165 0.930 . S
H193 C166 0.931 . S
H194 C168 0.934 . S
H195 C169 0.930 . S
H196 C174 0.930 . S
H197 C175 0.931 . S
H198 C177 0.934 . S
H199 C178 0.930 . S
Ho200 C203 2.811 . S
Ho200 O220 2.322 . S
Ho200 O222 2.378 . S
Ho200 O223 2.524 . S
Ho200 O224 2.381 . S
Ho200 O225 2.669 . S
Ho200 O227 2.346 . S
Ho200 O231 2.305 . S
Ho201 C212 2.811 . S
Ho201 O221 2.346 . S
Ho201 O225 2.305 . S
Ho201 O226 2.322 . S
Ho201 O228 2.378 . S
Ho201 O229 2.524 . S
Ho201 O230 2.381 . S
Ho201 O231 2.669 . S
C202 O220 1.259 . S
C202 O221 1.268 . S
C203 Ho200 2.811 . S
C203 C204 1.488 1_556 S
C203 O222 1.215 . S
C203 O223 1.289 . S
C204 C203 1.488 1_554 S
C204 C205 1.348 . S
C204 C209 1.413 . S
C205 C204 1.348 . S
C205 C206 1.442 . S
C205 H232 0.930 . S
C206 C205 1.442 . S
C206 C207 1.381 . S
C206 H233 0.931 . S
C207 C206 1.381 . S
C207 C208 1.321 . S
C208 C207 1.321 . S
C208 C209 1.403 . S
C208 H234 0.934 . S
C209 C204 1.413 . S
C209 C208 1.403 . S
C209 H235 0.930 . S
C210 O224 1.275 . S
C210 O225 1.256 . S
C211 O226 1.259 . S
C211 O227 1.268 . S
C212 Ho201 2.811 . S
C212 C213 1.488 . S
C212 O228 1.215 . S
C212 O229 1.289 . S
C213 C212 1.488 . S
C213 C214 1.348 . S
C213 C218 1.413 . S
C214 C213 1.348 . S
C214 C215 1.442 . S
C214 H236 0.930 . S
C215 C214 1.442 . S
C215 C216 1.381 . S
C215 H237 0.931 . S
C216 C215 1.381 . S
C216 C217 1.321 . S
C217 C216 1.321 . S
C217 C218 1.403 . S
C217 H238 0.934 . S
C218 C213 1.413 . S
C218 C217 1.403 . S
C218 H239 0.930 . S
C219 O230 1.275 . S
C219 O231 1.256 . S
O220 Ho200 2.322 . S
O220 C202 1.259 . S
O221 Ho201 2.346 . S
O221 C202 1.268 . S
O222 Ho200 2.378 . S
O222 C203 1.215 . S
O223 Ho200 2.524 . S
O223 C203 1.289 . S
O224 Ho200 2.381 . S
O224 C210 1.275 . S
O225 Ho200 2.669 . S
O225 Ho201 2.305 . S
O225 C210 1.256 . S
O226 Ho201 2.322 . S
O226 C211 1.259 . S
O227 Ho200 2.346 . S
O227 C211 1.268 . S
O228 Ho201 2.378 . S
O228 C212 1.215 . S
O229 Ho201 2.524 . S
O229 C212 1.289 . S
O230 Ho201 2.381 . S
O230 C219 1.275 . S
O231 Ho200 2.305 . S
O231 Ho201 2.669 . S
O231 C219 1.256 . S
H232 C205 0.930 . S
H233 C206 0.931 . S
H234 C208 0.934 . S
H235 C209 0.930 . S
H236 C214 0.930 . S
H237 C215 0.931 . S
H238 C217 0.934 . S
H239 C218 0.930 . S
Ho240 C243 2.811 . S
Ho240 O260 2.322 . S
Ho240 O262 2.378 . S
Ho240 O263 2.524 . S
Ho240 O264 2.381 . S
Ho240 O265 2.669 . S
Ho240 O267 2.346 . S
Ho240 O271 2.305 . S
Ho241 C252 2.811 . S
Ho241 O261 2.346 . S
Ho241 O265 2.305 . S
Ho241 O266 2.322 . S
Ho241 O268 2.378 . S
Ho241 O269 2.524 . S
Ho241 O270 2.381 . S
Ho241 O271 2.669 . S
C242 O260 1.259 . S
C242 O261 1.268 . S
C243 Ho240 2.811 . S
C243 C244 1.488 . S
C243 O262 1.215 . S
C243 O263 1.289 . S
C244 C243 1.488 . S
C244 C245 1.348 . S
C244 C249 1.413 . S
C245 C244 1.348 . S
C245 C246 1.442 . S
C245 H272 0.930 . S
C246 C245 1.442 . S
C246 C247 1.381 . S
C246 H273 0.931 . S
C247 C246 1.381 . S
C247 C248 1.321 . S
C248 C247 1.321 . S
C248 C249 1.403 . S
C248 H274 0.934 . S
C249 C244 1.413 . S
C249 C248 1.403 . S
C249 H275 0.930 . S
C250 O264 1.275 . S
C250 O265 1.256 . S
C251 O266 1.259 . S
C251 O267 1.268 . S
C252 Ho241 2.811 . S
C252 C253 1.488 . S
C252 O268 1.215 . S
C252 O269 1.289 . S
C253 C252 1.488 . S
C253 C254 1.348 . S
C253 C258 1.413 . S
C254 C253 1.348 . S
C254 C255 1.442 . S
C254 H276 0.930 . S
C255 C254 1.442 . S
C255 C256 1.381 . S
C255 H277 0.931 . S
C256 C255 1.381 . S
C256 C257 1.321 . S
C257 C256 1.321 . S
C257 C258 1.403 . S
C257 H278 0.934 . S
C258 C253 1.413 . S
C258 C257 1.403 . S
C258 H279 0.930 . S
C259 O270 1.275 . S
C259 O271 1.256 . S
O260 Ho240 2.322 . S
O260 C242 1.259 . S
O261 Ho241 2.346 . S
O261 C242 1.268 . S
O262 Ho240 2.378 . S
O262 C243 1.215 . S
O263 Ho240 2.524 . S
O263 C243 1.289 . S
O264 Ho240 2.381 . S
O264 C250 1.275 . S
O265 Ho240 2.669 . S
O265 Ho241 2.305 . S
O265 C250 1.256 . S
O266 Ho241 2.322 . S
O266 C251 1.259 . S
O267 Ho240 2.346 . S
O267 C251 1.268 . S
O268 Ho241 2.378 . S
O268 C252 1.215 . S
O269 Ho241 2.524 . S
O269 C252 1.289 . S
O270 Ho241 2.381 . S
O270 C259 1.275 . S
O271 Ho240 2.305 . S
O271 Ho241 2.669 . S
O271 C259 1.256 . S
H272 C245 0.930 . S
H273 C246 0.931 . S
H274 C248 0.934 . S
H275 C249 0.930 . S
H276 C254 0.930 . S
H277 C255 0.931 . S
H278 C257 0.934 . S
H279 C258 0.930 . S
Ho280 C283 2.811 . S
Ho280 O300 2.322 . S
Ho280 O302 2.378 . S
Ho280 O303 2.524 . S
Ho280 O304 2.381 . S
Ho280 O305 2.669 . S
Ho280 O307 2.346 . S
Ho280 O311 2.305 . S
Ho281 C292 2.811 . S
Ho281 O301 2.346 . S
Ho281 O305 2.305 . S
Ho281 O306 2.322 . S
Ho281 O308 2.378 . S
Ho281 O309 2.524 . S
Ho281 O310 2.381 . S
Ho281 O311 2.669 . S
C282 O300 1.259 . S
C282 O301 1.268 . S
C283 Ho280 2.811 . S
C283 C284 1.488 . S
C283 O302 1.215 . S
C283 O303 1.289 . S
C284 C283 1.488 . S
C284 C285 1.348 . S
C284 C289 1.413 . S
C285 C284 1.348 . S
C285 C286 1.442 . S
C285 H312 0.930 . S
C286 C285 1.442 . S
C286 C287 1.381 . S
C286 H313 0.931 . S
C287 C286 1.381 . S
C287 C288 1.321 . S
C288 C287 1.321 . S
C288 C289 1.403 . S
C288 H314 0.934 . S
C289 C284 1.413 . S
C289 C288 1.403 . S
C289 H315 0.930 . S
C290 O304 1.275 . S
C290 O305 1.256 . S
C291 O306 1.259 . S
C291 O307 1.268 . S
C292 Ho281 2.811 . S
C292 C293 1.488 . S
C292 O308 1.215 . S
C292 O309 1.289 . S
C293 C292 1.488 . S
C293 C294 1.348 . S
C293 C298 1.413 . S
C294 C293 1.348 . S
C294 C295 1.442 . S
C294 H316 0.930 . S
C295 C294 1.442 . S
C295 C296 1.381 . S
C295 H317 0.931 . S
C296 C295 1.381 . S
C296 C297 1.321 . S
C297 C296 1.321 . S
C297 C298 1.403 . S
C297 H318 0.934 . S
C298 C293 1.413 . S
C298 C297 1.403 . S
C298 H319 0.930 . S
C299 O310 1.275 . S
C299 O311 1.256 . S
O300 Ho280 2.322 . S
O300 C282 1.259 . S
O301 Ho281 2.346 . S
O301 C282 1.268 . S
O302 Ho280 2.378 . S
O302 C283 1.215 . S
O303 Ho280 2.524 . S
O303 C283 1.289 . S
O304 Ho280 2.381 . S
O304 C290 1.275 . S
O305 Ho280 2.669 . S
O305 Ho281 2.305 . S
O305 C290 1.256 . S
O306 Ho281 2.322 . S
O306 C291 1.259 . S
O307 Ho280 2.346 . S
O307 C291 1.268 . S
O308 Ho281 2.378 . S
O308 C292 1.215 . S
O309 Ho281 2.524 . S
O309 C292 1.289 . S
O310 Ho281 2.381 . S
O310 C299 1.275 . S
O311 Ho280 2.305 . S
O311 Ho281 2.669 . S
O311 C299 1.256 . S
H312 C285 0.930 . S
H313 C286 0.931 . S
H314 C288 0.934 . S
H315 C289 0.930 . S
H316 C294 0.930 . S
H317 C295 0.931 . S
H318 C297 0.934 . S
H319 C298 0.930 . S
Ho320 C323 2.811 . S
Ho320 O340 2.322 . S
Ho320 O342 2.378 . S
Ho320 O343 2.524 . S
Ho320 O344 2.381 . S
Ho320 O345 2.669 . S
Ho320 O347 2.346 . S
Ho320 O351 2.305 . S
Ho321 C332 2.811 . S
Ho321 O341 2.346 . S
Ho321 O345 2.305 . S
Ho321 O346 2.322 . S
Ho321 O348 2.378 . S
Ho321 O349 2.524 . S
Ho321 O350 2.381 . S
Ho321 O351 2.669 . S
C322 O340 1.259 . S
C322 O341 1.268 . S
C323 Ho320 2.811 . S
C323 C324 1.488 1_554 S
C323 O342 1.215 . S
C323 O343 1.289 . S
C324 C323 1.488 1_556 S
C324 C325 1.348 . S
C324 C329 1.413 . S
C325 C324 1.348 . S
C325 C326 1.442 . S
C325 H352 0.930 . S
C326 C325 1.442 . S
C326 C327 1.381 . S
C326 H353 0.931 . S
C327 C326 1.381 . S
C327 C328 1.321 . S
C328 C327 1.321 . S
C328 C329 1.403 . S
C328 H354 0.934 . S
C329 C324 1.413 . S
C329 C328 1.403 . S
C329 H355 0.930 . S
C330 O344 1.275 . S
C330 O345 1.256 . S
C331 O346 1.259 . S
C331 O347 1.268 . S
C332 Ho321 2.811 . S
C332 C333 1.488 . S
C332 O348 1.215 . S
C332 O349 1.289 . S
C333 C332 1.488 . S
C333 C334 1.348 . S
C333 C338 1.413 . S
C334 C333 1.348 . S
C334 C335 1.442 . S
C334 H356 0.930 . S
C335 C334 1.442 . S
C335 C336 1.381 . S
C335 H357 0.931 . S
C336 C335 1.381 . S
C336 C337 1.321 . S
C337 C336 1.321 . S
C337 C338 1.403 . S
C337 H358 0.934 . S
C338 C333 1.413 . S
C338 C337 1.403 . S
C338 H359 0.930 . S
C339 O350 1.275 . S
C339 O351 1.256 . S
O340 Ho320 2.322 . S
O340 C322 1.259 . S
O341 Ho321 2.346 . S
O341 C322 1.268 . S
O342 Ho320 2.378 . S
O342 C323 1.215 . S
O343 Ho320 2.524 . S
O343 C323 1.289 . S
O344 Ho320 2.381 . S
O344 C330 1.275 . S
O345 Ho320 2.669 . S
O345 Ho321 2.305 . S
O345 C330 1.256 . S
O346 Ho321 2.322 . S
O346 C331 1.259 . S
O347 Ho320 2.346 . S
O347 C331 1.268 . S
O348 Ho321 2.378 . S
O348 C332 1.215 . S
O349 Ho321 2.524 . S
O349 C332 1.289 . S
O350 Ho321 2.381 . S
O350 C339 1.275 . S
O351 Ho320 2.305 . S
O351 Ho321 2.669 . S
O351 C339 1.256 . S
H352 C325 0.930 . S
H353 C326 0.931 . S
H354 C328 0.934 . S
H355 C329 0.930 . S
H356 C334 0.930 . S
H357 C335 0.931 . S
H358 C337 0.934 . S
H359 C338 0.930 . S
Ho360 C363 2.811 . S
Ho360 O380 2.322 . S
Ho360 O382 2.378 . S
Ho360 O383 2.524 . S
Ho360 O384 2.381 . S
Ho360 O385 2.669 . S
Ho360 O387 2.346 . S
Ho360 O391 2.305 . S
Ho361 C372 2.811 . S
Ho361 O381 2.346 . S
Ho361 O385 2.305 . S
Ho361 O386 2.322 . S
Ho361 O388 2.378 . S
Ho361 O389 2.524 . S
Ho361 O390 2.381 . S
Ho361 O391 2.669 . S
C362 O380 1.259 . S
C362 O381 1.268 . S
C363 Ho360 2.811 . S
C363 C364 1.488 . S
C363 O382 1.215 . S
C363 O383 1.289 . S
C364 C363 1.488 . S
C364 C365 1.348 . S
C364 C369 1.413 . S
C365 C364 1.348 . S
C365 C366 1.442 . S
C365 H392 0.930 . S
C366 C365 1.442 . S
C366 C367 1.381 . S
C366 H393 0.931 . S
C367 C366 1.381 . S
C367 C368 1.321 . S
C368 C367 1.321 . S
C368 C369 1.403 . S
C368 H394 0.934 . S
C369 C364 1.413 . S
C369 C368 1.403 . S
C369 H395 0.930 . S
C370 O384 1.275 . S
C370 O385 1.256 . S
C371 O386 1.259 . S
C371 O387 1.268 . S
C372 Ho361 2.811 . S
C372 C373 1.488 . S
C372 O388 1.215 . S
C372 O389 1.289 . S
C373 C372 1.488 . S
C373 C374 1.348 . S
C373 C378 1.413 . S
C374 C373 1.348 . S
C374 C375 1.442 . S
C374 H396 0.930 . S
C375 C374 1.442 . S
C375 C376 1.381 . S
C375 H397 0.931 . S
C376 C375 1.381 . S
C376 C377 1.321 . S
C377 C376 1.321 . S
C377 C378 1.403 . S
C377 H398 0.934 . S
C378 C373 1.413 . S
C378 C377 1.403 . S
C378 H399 0.930 . S
C379 O390 1.275 . S
C379 O391 1.256 . S
O380 Ho360 2.322 . S
O380 C362 1.259 . S
O381 Ho361 2.346 . S
O381 C362 1.268 . S
O382 Ho360 2.378 . S
O382 C363 1.215 . S
O383 Ho360 2.524 . S
O383 C363 1.289 . S
O384 Ho360 2.381 . S
O384 C370 1.275 . S
O385 Ho360 2.669 . S
O385 Ho361 2.305 . S
O385 C370 1.256 . S
O386 Ho361 2.322 . S
O386 C371 1.259 . S
O387 Ho360 2.346 . S
O387 C371 1.268 . S
O388 Ho361 2.378 . S
O388 C372 1.215 . S
O389 Ho361 2.524 . S
O389 C372 1.289 . S
O390 Ho361 2.381 . S
O390 C379 1.275 . S
O391 Ho360 2.305 . S
O391 Ho361 2.669 . S
O391 C379 1.256 . S
H392 C365 0.930 . S
H393 C366 0.931 . S
H394 C368 0.934 . S
H395 C369 0.930 . S
H396 C374 0.930 . S
H397 C375 0.931 . S
H398 C377 0.934 . S
H399 C378 0.930 . S
Ho400 C403 2.811 . S
Ho400 O420 2.322 . S
Ho400 O422 2.378 . S
Ho400 O423 2.524 . S
Ho400 O424 2.381 . S
Ho400 O425 2.669 . S
Ho400 O427 2.346 . S
Ho400 O431 2.305 . S
Ho401 C412 2.811 . S
Ho401 O421 2.346 . S
Ho401 O425 2.305 . S
Ho401 O426 2.322 . S
Ho401 O428 2.378 . S
Ho401 O429 2.524 . S
Ho401 O430 2.381 . S
Ho401 O431 2.669 . S
C402 O420 1.259 . S
C402 O421 1.268 . S
C403 Ho400 2.811 . S
C403 C404 1.488 . S
C403 O422 1.215 . S
C403 O423 1.289 . S
C404 C403 1.488 . S
C404 C405 1.348 . S
C404 C409 1.413 . S
C405 C404 1.348 . S
C405 C406 1.442 . S
C405 H432 0.930 . S
C406 C405 1.442 . S
C406 C407 1.381 . S
C406 H433 0.931 . S
C407 C406 1.381 . S
C407 C408 1.321 . S
C408 C407 1.321 . S
C408 C409 1.403 . S
C408 H434 0.934 . S
C409 C404 1.413 . S
C409 C408 1.403 . S
C409 H435 0.930 . S
C410 O424 1.275 . S
C410 O425 1.256 . S
C411 O426 1.259 . S
C411 O427 1.268 . S
C412 Ho401 2.811 . S
C412 C413 1.488 . S
C412 O428 1.215 . S
C412 O429 1.289 . S
C413 C412 1.488 . S
C413 C414 1.348 . S
C413 C418 1.413 . S
C414 C413 1.348 . S
C414 C415 1.442 . S
C414 H436 0.930 . S
C415 C414 1.442 . S
C415 C416 1.381 . S
C415 H437 0.931 . S
C416 C415 1.381 . S
C416 C417 1.321 . S
C417 C416 1.321 . S
C417 C418 1.403 . S
C417 H438 0.934 . S
C418 C413 1.413 . S
C418 C417 1.403 . S
C418 H439 0.930 . S
C419 O430 1.275 . S
C419 O431 1.256 . S
O420 Ho400 2.322 . S
O420 C402 1.259 . S
O421 Ho401 2.346 . S
O421 C402 1.268 . S
O422 Ho400 2.378 . S
O422 C403 1.215 . S
O423 Ho400 2.524 . S
O423 C403 1.289 . S
O424 Ho400 2.381 . S
O424 C410 1.275 . S
O425 Ho400 2.669 . S
O425 Ho401 2.305 . S
O425 C410 1.256 . S
O426 Ho401 2.322 . S
O426 C411 1.259 . S
O427 Ho400 2.346 . S
O427 C411 1.268 . S
O428 Ho401 2.378 . S
O428 C412 1.215 . S
O429 Ho401 2.524 . S
O429 C412 1.289 . S
O430 Ho401 2.381 . S
O430 C419 1.275 . S
O431 Ho400 2.305 . S
O431 Ho401 2.669 . S
O431 C419 1.256 . S
H432 C405 0.930 . S
H433 C406 0.931 . S
H434 C408 0.934 . S
H435 C409 0.930 . S
H436 C414 0.930 . S
H437 C415 0.931 . S
H438 C417 0.934 . S
H439 C418 0.930 . S
Ho440 C443 2.811 . S
Ho440 O460 2.322 . S
Ho440 O462 2.378 . S
Ho440 O463 2.524 . S
Ho440 O464 2.381 . S
Ho440 O465 2.669 . S
Ho440 O467 2.346 . S
Ho440 O471 2.305 . S
Ho441 C452 2.811 . S
Ho441 O461 2.346 . S
Ho441 O465 2.305 . S
Ho441 O466 2.322 . S
Ho441 O468 2.378 . S
Ho441 O469 2.524 . S
Ho441 O470 2.381 . S
Ho441 O471 2.669 . S
C442 O460 1.259 . S
C442 O461 1.268 . S
C443 Ho440 2.811 . S
C443 C444 1.488 1_554 S
C443 O462 1.215 . S
C443 O463 1.289 . S
C444 C443 1.488 1_556 S
C444 C445 1.348 . S
C444 C449 1.413 . S
C445 C444 1.348 . S
C445 C446 1.442 . S
C445 H472 0.930 . S
C446 C445 1.442 . S
C446 C447 1.381 . S
C446 H473 0.931 . S
C447 C446 1.381 . S
C447 C448 1.321 . S
C448 C447 1.321 . S
C448 C449 1.403 . S
C448 H474 0.934 . S
C449 C444 1.413 . S
C449 C448 1.403 . S
C449 H475 0.930 . S
C450 O464 1.275 . S
C450 O465 1.256 . S
C451 O466 1.259 . S
C451 O467 1.268 . S
C452 Ho441 2.811 . S
C452 C453 1.488 . S
C452 O468 1.215 . S
C452 O469 1.289 . S
C453 C452 1.488 . S
C453 C454 1.348 . S
C453 C458 1.413 . S
C454 C453 1.348 . S
C454 C455 1.442 . S
C454 H476 0.930 . S
C455 C454 1.442 . S
C455 C456 1.381 . S
C455 H477 0.931 . S
C456 C455 1.381 . S
C456 C457 1.321 . S
C457 C456 1.321 . S
C457 C458 1.403 . S
C457 H478 0.934 . S
C458 C453 1.413 . S
C458 C457 1.403 . S
C458 H479 0.930 . S
C459 O470 1.275 . S
C459 O471 1.256 . S
O460 Ho440 2.322 . S
O460 C442 1.259 . S
O461 Ho441 2.346 . S
O461 C442 1.268 . S
O462 Ho440 2.378 . S
O462 C443 1.215 . S
O463 Ho440 2.524 . S
O463 C443 1.289 . S
O464 Ho440 2.381 . S
O464 C450 1.275 . S
O465 Ho440 2.669 . S
O465 Ho441 2.305 . S
O465 C450 1.256 . S
O466 Ho441 2.322 . S
O466 C451 1.259 . S
O467 Ho440 2.346 . S
O467 C451 1.268 . S
O468 Ho441 2.378 . S
O468 C452 1.215 . S
O469 Ho441 2.524 . S
O469 C452 1.289 . S
O470 Ho441 2.381 . S
O470 C459 1.275 . S
O471 Ho440 2.305 . S
O471 Ho441 2.669 . S
O471 C459 1.256 . S
H472 C445 0.930 . S
H473 C446 0.931 . S
H474 C448 0.934 . S
H475 C449 0.930 . S
H476 C454 0.930 . S
H477 C455 0.931 . S
H478 C457 0.934 . S
H479 C458 0.930 . S
H480 C488 0.929 . S
H481 C490 0.930 . S
H482 C492 0.930 . S
H483 C495 0.929 . S
H484 C498 0.930 . S
H485 C500 0.960 . S
H486 C500 0.960 . S
H487 C500 0.960 . S
C488 H480 0.929 . S
C488 C489 1.377 . S
C488 C490 1.384 . S
C489 C488 1.377 . S
C489 C495 1.390 . S
C490 H481 0.930 . S
C490 C488 1.384 . S
C490 C491 1.372 . S
C491 C490 1.372 . S
C491 C492 1.400 . S
C491 C496 1.490 . S
C492 H482 0.930 . S
C492 C491 1.400 . S
C492 C495 1.386 . S
H493 C509 0.930 . S
H494 C510 0.931 . S
C495 H483 0.929 . S
C495 C489 1.390 . S
C495 C492 1.386 . S
C496 C491 1.490 . S
C496 C498 1.395 . S
C496 C499 1.403 . S
H497 C503 0.930 . S
C498 H484 0.930 . S
C498 C496 1.395 . S
C498 C501 1.403 . S
C499 C496 1.403 . S
C499 C500 1.524 . S
C499 C503 1.400 . S
C500 H485 0.960 . S
C500 H486 0.960 . S
C500 H487 0.960 . S
C500 C499 1.524 . S
C501 C498 1.403 . S
C501 C502 1.392 . S
C501 C505 1.495 . S
C502 C501 1.392 . S
C502 C503 1.385 . S
C502 C504 1.478 . S
C503 H497 0.930 . S
C503 C499 1.400 . S
C503 C502 1.385 . S
C504 C502 1.478 . S
C504 C506 1.381 . S
C504 C510 1.383 . S
C505 C501 1.495 . S
C505 H511 0.959 . S
C505 H512 0.961 . S
C505 H513 0.960 . S
C506 C504 1.381 . S
C506 C507 1.394 . S
C506 H514 0.930 . S
C507 C506 1.394 . S
C507 C508 1.383 . S
C507 H515 0.929 . S
C508 C507 1.383 . S
C508 C509 1.377 . S
C509 H493 0.930 . S
C509 C508 1.377 . S
C509 C510 1.379 . S
C510 H494 0.931 . S
C510 C504 1.383 . S
C510 C509 1.379 . S
H511 C505 0.959 . S
H512 C505 0.961 . S
H513 C505 0.960 . S
H514 C506 0.930 . S
H515 C507 0.929 . S
H516 C524 0.929 . S
H517 C526 0.930 . S
H518 C528 0.930 . S
H519 C531 0.929 . S
H520 C534 0.930 . S
H521 C536 0.960 . S
H522 C536 0.960 . S
H523 C536 0.960 . S
C524 H516 0.929 . S
C524 C525 1.377 . S
C524 C526 1.384 . S
C525 C524 1.377 . S
C525 C531 1.390 . S
C526 H517 0.930 . S
C526 C524 1.384 . S
C526 C527 1.372 . S
C527 C526 1.372 . S
C527 C528 1.400 . S
C527 C532 1.490 . S
C528 H518 0.930 . S
C528 C527 1.400 . S
C528 C531 1.386 . S
H529 C545 0.930 . S
H530 C546 0.931 . S
C531 H519 0.929 . S
C531 C525 1.390 . S
C531 C528 1.386 . S
C532 C527 1.490 . S
C532 C534 1.395 . S
C532 C535 1.403 . S
H533 C539 0.930 . S
C534 H520 0.930 . S
C534 C532 1.395 . S
C534 C537 1.403 . S
C535 C532 1.403 . S
C535 C536 1.524 . S
C535 C539 1.400 . S
C536 H521 0.960 . S
C536 H522 0.960 . S
C536 H523 0.960 . S
C536 C535 1.524 . S
C537 C534 1.403 . S
C537 C538 1.392 . S
C537 C541 1.495 . S
C538 C537 1.392 . S
C538 C539 1.385 . S
C538 C540 1.478 . S
C539 H533 0.930 . S
C539 C535 1.400 . S
C539 C538 1.385 . S
C540 C538 1.478 . S
C540 C542 1.381 . S
C540 C546 1.383 . S
C541 C537 1.495 . S
C541 H547 0.959 . S
C541 H548 0.961 . S
C541 H549 0.960 . S
C542 C540 1.381 . S
C542 C543 1.394 . S
C542 H550 0.930 . S
C543 C542 1.394 . S
C543 C544 1.383 . S
C543 H551 0.929 . S
C544 C543 1.383 . S
C544 C545 1.377 . S
C545 H529 0.930 . S
C545 C544 1.377 . S
C545 C546 1.379 . S
C546 H530 0.931 . S
C546 C540 1.383 . S
C546 C545 1.379 . S
H547 C541 0.959 . S
H548 C541 0.961 . S
H549 C541 0.960 . S
H550 C542 0.930 . S
H551 C543 0.929 . S
H552 C560 0.929 . S
H553 C562 0.930 . S
H554 C564 0.930 . S
H555 C567 0.929 . S
H556 C570 0.930 . S
H557 C572 0.960 . S
H558 C572 0.960 . S
H559 C572 0.960 . S
C560 H552 0.929 . S
C560 C561 1.377 . S
C560 C562 1.384 . S
C561 C560 1.377 . S
C561 C567 1.390 . S
C562 H553 0.930 . S
C562 C560 1.384 . S
C562 C563 1.372 . S
C563 C562 1.372 . S
C563 C564 1.400 . S
C563 C568 1.490 . S
C564 H554 0.930 . S
C564 C563 1.400 . S
C564 C567 1.386 . S
H565 C581 0.930 . S
H566 C582 0.931 . S
C567 H555 0.929 . S
C567 C561 1.390 . S
C567 C564 1.386 . S
C568 C563 1.490 . S
C568 C570 1.395 . S
C568 C571 1.403 . S
H569 C575 0.930 . S
C570 H556 0.930 . S
C570 C568 1.395 . S
C570 C573 1.403 . S
C571 C568 1.403 . S
C571 C572 1.524 . S
C571 C575 1.400 . S
C572 H557 0.960 . S
C572 H558 0.960 . S
C572 H559 0.960 . S
C572 C571 1.524 . S
C573 C570 1.403 . S
C573 C574 1.392 . S
C573 C577 1.495 . S
C574 C573 1.392 . S
C574 C575 1.385 . S
C574 C576 1.478 . S
C575 H569 0.930 . S
C575 C571 1.400 . S
C575 C574 1.385 . S
C576 C574 1.478 . S
C576 C578 1.381 . S
C576 C582 1.383 . S
C577 C573 1.495 . S
C577 H583 0.959 . S
C577 H584 0.961 . S
C577 H585 0.960 . S
C578 C576 1.381 . S
C578 C579 1.394 . S
C578 H586 0.930 . S
C579 C578 1.394 . S
C579 C580 1.383 . S
C579 H587 0.929 . S
C580 C579 1.383 . S
C580 C581 1.377 . S
C581 H565 0.930 . S
C581 C580 1.377 . S
C581 C582 1.379 . S
C582 H566 0.931 . S
C582 C576 1.383 . S
C582 C581 1.379 . S
H583 C577 0.959 . S
H584 C577 0.961 . S
H585 C577 0.960 . S
H586 C578 0.930 . S
H587 C579 0.929 . S
H588 C596 0.929 . S
H589 C598 0.930 . S
H590 C600 0.930 . S
H591 C603 0.929 . S
H592 C606 0.930 . S
H593 C608 0.960 . S
H594 C608 0.960 . S
H595 C608 0.960 . S
C596 H588 0.929 . S
C596 C597 1.377 . S
C596 C598 1.384 . S
C597 C596 1.377 . S
C597 C603 1.390 . S
C598 H589 0.930 . S
C598 C596 1.384 . S
C598 C599 1.372 . S
C599 C598 1.372 . S
C599 C600 1.400 . S
C599 C604 1.490 . S
C600 H590 0.930 . S
C600 C599 1.400 . S
C600 C603 1.386 . S
H601 C617 0.930 . S
H602 C618 0.931 . S
C603 H591 0.929 . S
C603 C597 1.390 . S
C603 C600 1.386 . S
C604 C599 1.490 . S
C604 C606 1.395 . S
C604 C607 1.403 . S
H605 C611 0.930 . S
C606 H592 0.930 . S
C606 C604 1.395 . S
C606 C609 1.403 . S
C607 C604 1.403 . S
C607 C608 1.524 . S
C607 C611 1.400 . S
C608 H593 0.960 . S
C608 H594 0.960 . S
C608 H595 0.960 . S
C608 C607 1.524 . S
C609 C606 1.403 . S
C609 C610 1.392 . S
C609 C613 1.495 . S
C610 C609 1.392 . S
C610 C611 1.385 . S
C610 C612 1.478 . S
C611 H605 0.930 . S
C611 C607 1.400 . S
C611 C610 1.385 . S
C612 C610 1.478 . S
C612 C614 1.381 . S
C612 C618 1.383 . S
C613 C609 1.495 . S
C613 H619 0.959 . S
C613 H620 0.961 . S
C613 H621 0.960 . S
C614 C612 1.381 . S
C614 C615 1.394 . S
C614 H622 0.930 . S
C615 C614 1.394 . S
C615 C616 1.383 . S
C615 H623 0.929 . S
C616 C615 1.383 . S
C616 C617 1.377 . S
C617 H601 0.930 . S
C617 C616 1.377 . S
C617 C618 1.379 . S
C618 H602 0.931 . S
C618 C612 1.383 . S
C618 C617 1.379 . S
H619 C613 0.959 . S
H620 C613 0.961 . S
H621 C613 0.960 . S
H622 C614 0.930 . S
H623 C615 0.929 . S
H624 C632 0.929 . S
H625 C634 0.930 . S
H626 C636 0.930 . S
H627 C639 0.929 . S
H628 C642 0.930 . S
H629 C644 0.960 . S
H630 C644 0.960 . S
H631 C644 0.960 . S
C632 H624 0.929 . S
C632 C633 1.377 . S
C632 C634 1.384 . S
C633 C632 1.377 . S
C633 C639 1.390 . S
C634 H625 0.930 . S
C634 C632 1.384 . S
C634 C635 1.372 . S
C635 C634 1.372 . S
C635 C636 1.400 . S
C635 C640 1.490 . S
C636 H626 0.930 . S
C636 C635 1.400 . S
C636 C639 1.386 . S
H637 C653 0.930 . S
H638 C654 0.931 . S
C639 H627 0.929 . S
C639 C633 1.390 . S
C639 C636 1.386 . S
C640 C635 1.490 . S
C640 C642 1.395 . S
C640 C643 1.403 . S
H641 C647 0.930 . S
C642 H628 0.930 . S
C642 C640 1.395 . S
C642 C645 1.403 . S
C643 C640 1.403 . S
C643 C644 1.524 . S
C643 C647 1.400 . S
C644 H629 0.960 . S
C644 H630 0.960 . S
C644 H631 0.960 . S
C644 C643 1.524 . S
C645 C642 1.403 . S
C645 C646 1.392 . S
C645 C649 1.495 . S
C646 C645 1.392 . S
C646 C647 1.385 . S
C646 C648 1.478 . S
C647 H641 0.930 . S
C647 C643 1.400 . S
C647 C646 1.385 . S
C648 C646 1.478 . S
C648 C650 1.381 . S
C648 C654 1.383 . S
C649 C645 1.495 . S
C649 H655 0.959 . S
C649 H656 0.961 . S
C649 H657 0.960 . S
C650 C648 1.381 . S
C650 C651 1.394 . S
C650 H658 0.930 . S
C651 C650 1.394 . S
C651 C652 1.383 . S
C651 H659 0.929 . S
C652 C651 1.383 . S
C652 C653 1.377 . S
C653 H637 0.930 . S
C653 C652 1.377 . S
C653 C654 1.379 . S
C654 H638 0.931 . S
C654 C648 1.383 . S
C654 C653 1.379 . S
H655 C649 0.959 . S
H656 C649 0.961 . S
H657 C649 0.960 . S
H658 C650 0.930 . S
H659 C651 0.929 . S
H660 C668 0.929 . S
H661 C670 0.930 . S
H662 C672 0.930 . S
H663 C675 0.929 . S
H664 C678 0.930 . S
H665 C680 0.960 . S
H666 C680 0.960 . S
H667 C680 0.960 . S
C668 H660 0.929 . S
C668 C669 1.377 . S
C668 C670 1.384 . S
C669 C668 1.377 . S
C669 C675 1.390 . S
C670 H661 0.930 . S
C670 C668 1.384 . S
C670 C671 1.372 . S
C671 C670 1.372 . S
C671 C672 1.400 . S
C671 C676 1.490 . S
C672 H662 0.930 . S
C672 C671 1.400 . S
C672 C675 1.386 . S
H673 C689 0.930 . S
H674 C690 0.931 . S
C675 H663 0.929 . S
C675 C669 1.390 . S
C675 C672 1.386 . S
C676 C671 1.490 . S
C676 C678 1.395 . S
C676 C679 1.403 . S
H677 C683 0.930 . S
C678 H664 0.930 . S
C678 C676 1.395 . S
C678 C681 1.403 . S
C679 C676 1.403 . S
C679 C680 1.524 . S
C679 C683 1.400 . S
C680 H665 0.960 . S
C680 H666 0.960 . S
C680 H667 0.960 . S
C680 C679 1.524 . S
C681 C678 1.403 . S
C681 C682 1.392 . S
C681 C685 1.495 . S
C682 C681 1.392 . S
C682 C683 1.385 . S
C682 C684 1.478 . S
C683 H677 0.930 . S
C683 C679 1.400 . S
C683 C682 1.385 . S
C684 C682 1.478 . S
C684 C686 1.381 . S
C684 C690 1.383 . S
C685 C681 1.495 . S
C685 H691 0.959 . S
C685 H692 0.961 . S
C685 H693 0.960 . S
C686 C684 1.381 . S
C686 C687 1.394 . S
C686 H694 0.930 . S
C687 C686 1.394 . S
C687 C688 1.383 . S
C687 H695 0.929 . S
C688 C687 1.383 . S
C688 C689 1.377 . S
C689 H673 0.930 . S
C689 C688 1.377 . S
C689 C690 1.379 . S
C690 H674 0.931 . S
C690 C684 1.383 . S
C690 C689 1.379 . S
H691 C685 0.959 . S
H692 C685 0.961 . S
H693 C685 0.960 . S
H694 C686 0.930 . S
H695 C687 0.929 . S
H696 C704 0.929 . S
H697 C706 0.930 . S
H698 C708 0.930 . S
H699 C711 0.929 . S
H700 C714 0.930 . S
H701 C716 0.960 . S
H702 C716 0.960 1_556 S
H703 C716 0.960 . S
C704 H696 0.929 . S
C704 C705 1.377 . S
C704 C706 1.384 . S
C705 C704 1.377 . S
C705 C711 1.390 . S
C706 H697 0.930 . S
C706 C704 1.384 . S
C706 C707 1.372 . S
C707 C706 1.372 . S
C707 C708 1.400 . S
C707 C712 1.490 . S
C708 H698 0.930 . S
C708 C707 1.400 . S
C708 C711 1.386 . S
H709 C725 0.930 . S
H710 C726 0.931 . S
C711 H699 0.929 . S
C711 C705 1.390 . S
C711 C708 1.386 . S
C712 C707 1.490 . S
C712 C714 1.395 . S
C712 C715 1.370 1_556 S
H713 C719 0.930 . S
C714 H700 0.930 . S
C714 C712 1.395 . S
C714 C717 1.403 . S
C715 C712 1.370 1_554 S
C715 C716 1.529 . S
C715 C719 1.429 . S
C716 H701 0.960 . S
C716 H702 0.960 1_554 S
C716 H703 0.960 . S
C716 C715 1.529 . S
C717 C714 1.403 . S
C717 C718 1.392 1_556 S
C717 C721 1.495 . S
C718 C717 1.392 1_554 S
C718 C719 1.385 . S
C718 C720 1.478 . S
C719 H713 0.930 . S
C719 C715 1.429 . S
C719 C718 1.385 . S
C720 C718 1.478 . S
C720 C722 1.381 . S
C720 C726 1.383 . S
C721 C717 1.495 . S
C721 H727 0.959 . S
C721 H728 0.961 1_556 S
C721 H729 0.960 . S
C722 C720 1.381 . S
C722 C723 1.394 . S
C722 H730 0.930 . S
C723 C722 1.394 . S
C723 C724 1.383 . S
C723 H731 0.929 . S
C724 C723 1.383 . S
C724 C725 1.377 . S
C725 H709 0.930 . S
C725 C724 1.377 . S
C725 C726 1.379 . S
C726 H710 0.931 . S
C726 C720 1.383 . S
C726 C725 1.379 . S
H727 C721 0.959 . S
H728 C721 0.961 1_554 S
H729 C721 0.960 . S
H730 C722 0.930 . S
H731 C723 0.929 . S
H732 C740 0.929 . S
H733 C742 0.930 . S
H734 C744 0.930 . S
H735 C747 0.929 . S
H736 C750 0.930 . S
H737 C752 0.960 . S
H738 C752 0.960 . S
H739 C752 0.960 . S
C740 H732 0.929 . S
C740 C741 1.377 . S
C740 C742 1.384 . S
C741 C740 1.377 . S
C741 C747 1.390 . S
C742 H733 0.930 . S
C742 C740 1.384 . S
C742 C743 1.372 . S
C743 C742 1.372 . S
C743 C744 1.400 . S
C743 C748 1.490 . S
C744 H734 0.930 . S
C744 C743 1.400 . S
C744 C747 1.386 . S
H745 C761 0.930 . S
H746 C762 0.931 . S
C747 H735 0.929 . S
C747 C741 1.390 . S
C747 C744 1.386 . S
C748 C743 1.490 . S
C748 C750 1.395 . S
C748 C751 1.403 . S
H749 C755 0.930 . S
C750 H736 0.930 . S
C750 C748 1.395 . S
C750 C753 1.403 . S
C751 C748 1.403 . S
C751 C752 1.524 . S
C751 C755 1.400 . S
C752 H737 0.960 . S
C752 H738 0.960 . S
C752 H739 0.960 . S
C752 C751 1.524 . S
C753 C750 1.403 . S
C753 C754 1.392 . S
C753 C757 1.495 . S
C754 C753 1.392 . S
C754 C755 1.385 . S
C754 C756 1.478 . S
C755 H749 0.930 . S
C755 C751 1.400 . S
C755 C754 1.385 . S
C756 C754 1.478 . S
C756 C758 1.381 . S
C756 C762 1.383 . S
C757 C753 1.495 . S
C757 H763 0.959 . S
C757 H764 0.961 . S
C757 H765 0.960 . S
C758 C756 1.381 . S
C758 C759 1.394 . S
C758 H766 0.930 . S
C759 C758 1.394 . S
C759 C760 1.383 . S
C759 H767 0.929 . S
C760 C759 1.383 . S
C760 C761 1.377 . S
C761 H745 0.930 . S
C761 C760 1.377 . S
C761 C762 1.379 . S
C762 H746 0.931 . S
C762 C756 1.383 . S
C762 C761 1.379 . S
H763 C757 0.959 . S
H764 C757 0.961 . S
H765 C757 0.960 . S
H766 C758 0.930 . S
H767 C759 0.929 . S
H768 C776 0.929 . S
H769 C778 0.930 . S
H770 C780 0.930 . S
H771 C783 0.929 . S
H772 C786 0.930 . S
H773 C788 0.960 . S
H774 C788 0.960 . S
H775 C788 0.960 . S
C776 H768 0.929 . S
C776 C777 1.377 . S
C776 C778 1.384 . S
C777 C776 1.377 . S
C777 C783 1.390 . S
C778 H769 0.930 . S
C778 C776 1.384 . S
C778 C779 1.372 . S
C779 C778 1.372 . S
C779 C780 1.400 . S
C779 C784 1.490 . S
C780 H770 0.930 . S
C780 C779 1.400 . S
C780 C783 1.386 . S
H781 C797 0.930 . S
H782 C798 0.931 . S
C783 H771 0.929 . S
C783 C777 1.390 . S
C783 C780 1.386 . S
C784 C779 1.490 . S
C784 C786 1.395 . S
C784 C787 1.403 . S
H785 C791 0.930 . S
C786 H772 0.930 . S
C786 C784 1.395 . S
C786 C789 1.403 . S
C787 C784 1.403 . S
C787 C788 1.524 . S
C787 C791 1.400 . S
C788 H773 0.960 . S
C788 H774 0.960 . S
C788 H775 0.960 . S
C788 C787 1.524 . S
C789 C786 1.403 . S
C789 C790 1.392 . S
C789 C793 1.495 . S
C790 C789 1.392 . S
C790 C791 1.385 . S
C790 C792 1.478 . S
C791 H785 0.930 . S
C791 C787 1.400 . S
C791 C790 1.385 . S
C792 C790 1.478 . S
C792 C794 1.381 . S
C792 C798 1.383 . S
C793 C789 1.495 . S
C793 H799 0.959 . S
C793 H800 0.961 . S
C793 H801 0.960 . S
C794 C792 1.381 . S
C794 C795 1.394 . S
C794 H802 0.930 . S
C795 C794 1.394 . S
C795 C796 1.383 . S
C795 H803 0.929 . S
C796 C795 1.383 . S
C796 C797 1.377 . S
C797 H781 0.930 . S
C797 C796 1.377 . S
C797 C798 1.379 . S
C798 H782 0.931 . S
C798 C792 1.383 . S
C798 C797 1.379 . S
H799 C793 0.959 . S
H800 C793 0.961 . S
H801 C793 0.960 . S
H802 C794 0.930 . S
H803 C795 0.929 . S
H804 C812 0.929 . S
H805 C814 0.930 . S
H806 C816 0.930 . S
H807 C819 0.929 . S
H808 C822 0.930 . S
H809 C824 0.960 . S
H810 C824 0.960 . S
H811 C824 0.960 . S
C812 H804 0.929 . S
C812 C813 1.377 . S
C812 C814 1.384 . S
C813 C812 1.377 . S
C813 C819 1.390 . S
C814 H805 0.930 . S
C814 C812 1.384 . S
C814 C815 1.372 . S
C815 C814 1.372 . S
C815 C816 1.400 . S
C815 C820 1.490 . S
C816 H806 0.930 . S
C816 C815 1.400 . S
C816 C819 1.386 . S
H817 C833 0.930 . S
H818 C834 0.931 . S
C819 H807 0.929 . S
C819 C813 1.390 . S
C819 C816 1.386 . S
C820 C815 1.490 . S
C820 C822 1.395 . S
C820 C823 1.403 . S
H821 C827 0.930 . S
C822 H808 0.930 . S
C822 C820 1.395 . S
C822 C825 1.403 1_556 S
C823 C820 1.403 . S
C823 C824 1.524 . S
C823 C827 1.400 1_556 S
C824 H809 0.960 . S
C824 H810 0.960 . S
C824 H811 0.960 . S
C824 C823 1.524 . S
C825 C822 1.403 1_554 S
C825 C826 1.392 . S
C825 C829 1.495 . S
C826 C825 1.392 . S
C826 C827 1.385 . S
C826 C828 1.478 . S
C827 H821 0.930 . S
C827 C823 1.400 1_554 S
C827 C826 1.385 . S
C828 C826 1.478 . S
C828 C830 1.381 . S
C828 C834 1.383 . S
C829 C825 1.495 . S
C829 H835 0.959 . S
C829 H836 0.961 . S
C829 H837 0.960 . S
C830 C828 1.381 . S
C830 C831 1.394 . S
C830 H838 0.930 . S
C831 C830 1.394 . S
C831 C832 1.383 . S
C831 H839 0.929 . S
C832 C831 1.383 . S
C832 C833 1.377 . S
C833 H817 0.930 . S
C833 C832 1.377 . S
C833 C834 1.379 . S
C834 H818 0.931 . S
C834 C828 1.383 . S
C834 C833 1.379 . S
H835 C829 0.959 . S
H836 C829 0.961 . S
H837 C829 0.960 . S
H838 C830 0.930 . S
H839 C831 0.929 . S
H840 C848 0.929 . S
H841 C850 0.930 . S
H842 C852 0.930 . S
H843 C855 0.929 . S
H844 C858 0.930 . S
H845 C860 0.960 . S
H846 C860 0.960 . S
H847 C860 0.960 . S
C848 H840 0.929 . S
C848 C849 1.377 . S
C848 C850 1.384 . S
C849 C848 1.377 . S
C849 C855 1.390 . S
C850 H841 0.930 . S
C850 C848 1.384 . S
C850 C851 1.372 . S
C851 C850 1.372 . S
C851 C852 1.400 . S
C851 C856 1.490 . S
C852 H842 0.930 . S
C852 C851 1.400 . S
C852 C855 1.386 . S
H853 C869 0.930 . S
H854 C870 0.931 . S
C855 H843 0.929 . S
C855 C849 1.390 . S
C855 C852 1.386 . S
C856 C851 1.490 . S
C856 C858 1.395 . S
C856 C859 1.403 . S
H857 C863 0.930 . S
C858 H844 0.930 . S
C858 C856 1.395 . S
C858 C861 1.403 . S
C859 C856 1.403 . S
C859 C860 1.524 . S
C859 C863 1.400 . S
C860 H845 0.960 . S
C860 H846 0.960 . S
C860 H847 0.960 . S
C860 C859 1.524 . S
C861 C858 1.403 . S
C861 C862 1.392 . S
C861 C865 1.495 . S
C862 C861 1.392 . S
C862 C863 1.385 . S
C862 C864 1.478 . S
C863 H857 0.930 . S
C863 C859 1.400 . S
C863 C862 1.385 . S
C864 C862 1.478 . S
C864 C866 1.381 . S
C864 C870 1.383 . S
C865 C861 1.495 . S
C865 H871 0.959 . S
C865 H872 0.961 . S
C865 H873 0.960 . S
C866 C864 1.381 . S
C866 C867 1.394 . S
C866 H874 0.930 . S
C867 C866 1.394 . S
C867 C868 1.383 . S
C867 H875 0.929 . S
C868 C867 1.383 . S
C868 C869 1.377 . S
C869 H853 0.930 . S
C869 C868 1.377 . S
C869 C870 1.379 . S
C870 H854 0.931 . S
C870 C864 1.383 . S
C870 C869 1.379 . S
H871 C865 0.959 . S
H872 C865 0.961 . S
H873 C865 0.960 . S
H874 C866 0.930 . S
H875 C867 0.929 . S
H876 C884 0.929 . S
H877 C886 0.930 . S
H878 C888 0.930 . S
H879 C891 0.929 . S
H880 C894 0.930 . S
H881 C896 0.960 . S
H882 C896 0.960 . S
H883 C896 0.960 . S
C884 H876 0.929 . S
C884 C885 1.377 . S
C884 C886 1.384 . S
C885 C884 1.377 . S
C885 C891 1.390 . S
C886 H877 0.930 . S
C886 C884 1.384 . S
C886 C887 1.372 . S
C887 C886 1.372 . S
C887 C888 1.400 . S
C887 C892 1.490 . S
C888 H878 0.930 . S
C888 C887 1.400 . S
C888 C891 1.386 . S
H889 C905 0.930 . S
H890 C906 0.931 . S
C891 H879 0.929 . S
C891 C885 1.390 . S
C891 C888 1.386 . S
C892 C887 1.490 . S
C892 C894 1.395 . S
C892 C895 1.403 . S
H893 C899 0.930 . S
C894 H880 0.930 . S
C894 C892 1.395 . S
C894 C897 1.403 . S
C895 C892 1.403 . S
C895 C896 1.524 . S
C895 C899 1.400 . S
C896 H881 0.960 . S
C896 H882 0.960 . S
C896 H883 0.960 . S
C896 C895 1.524 . S
C897 C894 1.403 . S
C897 C898 1.392 . S
C897 C901 1.495 . S
C898 C897 1.392 . S
C898 C899 1.385 . S
C898 C900 1.478 . S
C899 H893 0.930 . S
C899 C895 1.400 . S
C899 C898 1.385 . S
C900 C898 1.478 . S
C900 C902 1.381 . S
C900 C906 1.383 . S
C901 C897 1.495 . S
C901 H907 0.959 . S
C901 H908 0.961 . S
C901 H909 0.960 . S
C902 C900 1.381 . S
C902 C903 1.394 . S
C902 H910 0.930 . S
C903 C902 1.394 . S
C903 C904 1.383 . S
C903 H911 0.929 . S
C904 C903 1.383 . S
C904 C905 1.377 . S
C905 H889 0.930 . S
C905 C904 1.377 . S
C905 C906 1.379 . S
C906 H890 0.931 . S
C906 C900 1.383 . S
C906 C905 1.379 . S
H907 C901 0.959 . S
H908 C901 0.961 . S
H909 C901 0.960 . S
H910 C902 0.930 . S
H911 C903 0.929 . S
H912 C920 0.929 . S
H913 C922 0.920 1_545 S
H914 C924 0.930 . S
H915 C927 0.929 . S
H916 C930 0.930 . S
H917 C932 0.960 1_554 S
H918 C932 0.960 . S
H919 C932 0.960 . S
C920 H912 0.929 . S
C920 C921 1.377 . S
C920 C922 1.384 . S
C921 C920 1.377 . S
C921 C927 1.390 . S
C922 H913 0.920 1_565 S
C922 C920 1.384 . S
C922 C923 1.372 . S
C923 C922 1.372 . S
C923 C924 1.400 . S
C923 C928 1.490 . S
C924 H914 0.930 . S
C924 C923 1.400 . S
C924 C927 1.386 . S
H925 C941 0.930 . S
H926 C942 0.931 . S
C927 H915 0.929 . S
C927 C921 1.390 . S
C927 C924 1.386 . S
C928 C923 1.490 . S
C928 C930 1.395 1_565 S
C928 C931 1.403 . S
H929 C935 0.930 . S
C930 H916 0.930 . S
C930 C928 1.395 1_545 S
C930 C933 1.427 . S
C931 C928 1.403 . S
C931 C932 1.524 . S
C931 C935 1.400 1_556 S
C932 H917 0.960 1_556 S
C932 H918 0.960 . S
C932 H919 0.960 . S
C932 C931 1.524 . S
C933 C930 1.427 . S
C933 C934 1.369 1_556 S
C933 C937 1.496 . S
C934 C933 1.369 1_554 S
C934 C935 1.385 1_545 S
C934 C936 1.478 . S
C935 H929 0.930 . S
C935 C931 1.400 1_554 S
C935 C934 1.385 1_565 S
C936 C934 1.478 . S
C936 C938 1.381 . S
C936 C942 1.383 . S
C937 C933 1.496 . S
C937 H943 0.959 . S
C937 H944 0.961 1_556 S
C937 H945 0.960 1_556 S
C938 C936 1.381 . S
C938 C939 1.394 . S
C938 H946 0.930 . S
C939 C938 1.394 . S
C939 C940 1.383 . S
C939 H947 0.929 . S
C940 C939 1.383 . S
C940 C941 1.377 . S
C941 H925 0.930 . S
C941 C940 1.377 . S
C941 C942 1.379 . S
C942 H926 0.931 . S
C942 C936 1.383 . S
C942 C941 1.379 . S
H943 C937 0.959 . S
H944 C937 0.961 1_554 S
H945 C937 0.960 1_554 S
H946 C938 0.930 . S
H947 C939 0.929 . S
H948 C956 0.929 . S
H949 C958 0.930 . S
H950 C960 0.930 . S
H951 C963 0.929 . S
H952 C966 0.930 . S
H953 C968 0.960 . S
H954 C968 0.960 . S
H955 C968 0.960 . S
C956 H948 0.929 . S
C956 C957 1.377 . S
C956 C958 1.384 . S
C957 C956 1.377 . S
C957 C963 1.390 . S
C958 H949 0.930 . S
C958 C956 1.384 . S
C958 C959 1.372 . S
C959 C958 1.372 . S
C959 C960 1.400 . S
C959 C964 1.490 . S
C960 H950 0.930 . S
C960 C959 1.400 . S
C960 C963 1.386 . S
H961 C977 0.930 . S
H962 C978 0.931 . S
C963 H951 0.929 . S
C963 C957 1.390 . S
C963 C960 1.386 . S
C964 C959 1.490 . S
C964 C966 1.395 . S
C964 C967 1.403 . S
H965 C971 0.930 . S
C966 H952 0.930 . S
C966 C964 1.395 . S
C966 C969 1.403 . S
C967 C964 1.403 . S
C967 C968 1.524 . S
C967 C971 1.400 . S
C968 H953 0.960 . S
C968 H954 0.960 . S
C968 H955 0.960 . S
C968 C967 1.524 . S
C969 C966 1.403 . S
C969 C970 1.392 . S
C969 C973 1.495 . S
C970 C969 1.392 . S
C970 C971 1.385 . S
C970 C972 1.478 . S
C971 H965 0.930 . S
C971 C967 1.400 . S
C971 C970 1.385 . S
C972 C970 1.478 . S
C972 C974 1.381 . S
C972 C978 1.383 . S
C973 C969 1.495 . S
C973 H979 0.959 . S
C973 H980 0.961 . S
C973 H981 0.960 . S
C974 C972 1.381 . S
C974 C975 1.394 . S
C974 H982 0.930 . S
C975 C974 1.394 . S
C975 C976 1.383 . S
C975 H983 0.929 . S
C976 C975 1.383 . S
C976 C977 1.377 . S
C977 H961 0.930 . S
C977 C976 1.377 . S
C977 C978 1.379 . S
C978 H962 0.931 . S
C978 C972 1.383 . S
C978 C977 1.379 . S
H979 C973 0.959 . S
H980 C973 0.961 . S
H981 C973 0.960 . S
H982 C974 0.930 . S
H983 C975 0.929 . S
H984 C992 0.929 . S
H985 C994 0.930 . S
H986 C996 0.930 . S
H987 C999 0.929 . S
H988 C1002 0.930 . S
H989 C1004 0.960 . S
H990 C1004 0.960 . S
H991 C1004 0.960 . S
C992 H984 0.929 . S
C992 C993 1.377 . S
C992 C994 1.384 . S
C993 C992 1.377 . S
C993 C999 1.390 . S
C994 H985 0.930 . S
C994 C992 1.384 . S
C994 C995 1.372 . S
C995 C994 1.372 . S
C995 C996 1.400 . S
C995 C1000 1.490 . S
C996 H986 0.930 . S
C996 C995 1.400 . S
C996 C999 1.386 . S
H997 C1013 0.930 . S
H998 C1014 0.931 . S
C999 H987 0.929 . S
C999 C993 1.390 . S
C999 C996 1.386 . S
C1000 C995 1.490 . S
C1000 C1002 1.395 1_455 S
C1000 C1003 1.403 . S
H1001 C1007 0.930 . S
C1002 H988 0.930 . S
C1002 C1000 1.395 1_655 S
C1002 C1005 1.403 . S
C1003 C1000 1.403 . S
C1003 C1004 1.524 . S
C1003 C1007 1.400 . S
C1004 H989 0.960 . S
C1004 H990 0.960 . S
C1004 H991 0.960 . S
C1004 C1003 1.524 . S
C1005 C1002 1.403 . S
C1005 C1006 1.392 . S
C1005 C1009 1.495 . S
C1006 C1005 1.392 . S
C1006 C1007 1.385 1_655 S
C1006 C1008 1.478 . S
C1007 H1001 0.930 . S
C1007 C1003 1.400 . S
C1007 C1006 1.385 1_455 S
C1008 C1006 1.478 . S
C1008 C1010 1.381 . S
C1008 C1014 1.383 . S
C1009 C1005 1.495 . S
C1009 H1015 0.959 . S
C1009 H1016 0.961 . S
C1009 H1017 0.960 . S
C1010 C1008 1.381 . S
C1010 C1011 1.394 . S
C1010 H1018 0.930 . S
C1011 C1010 1.394 . S
C1011 C1012 1.383 . S
C1011 H1019 0.929 . S
C1012 C1011 1.383 . S
C1012 C1013 1.377 . S
C1013 H997 0.930 . S
C1013 C1012 1.377 . S
C1013 C1014 1.379 . S
C1014 H998 0.931 . S
C1014 C1008 1.383 . S
C1014 C1013 1.379 . S
H1015 C1009 0.959 . S
H1016 C1009 0.961 . S
H1017 C1009 0.960 . S
H1018 C1010 0.930 . S
H1019 C1011 0.929 . S
H1020 C1028 0.929 . S
H1021 C1030 0.930 . S
H1022 C1032 0.930 1_545 S
H1023 C1035 0.929 . S
H1024 C1038 0.930 . S
H1025 C1040 0.960 1_545 S
H1026 C1040 0.960 . S
H1027 C1040 0.960 1_545 S
C1028 H1020 0.929 . S
C1028 C1029 1.377 . S
C1028 C1030 1.384 . S
C1029 C1028 1.377 . S
C1029 C1035 1.390 . S
C1030 H1021 0.930 . S
C1030 C1028 1.384 . S
C1030 C1031 1.372 . S
C1031 C1030 1.372 . S
C1031 C1032 1.400 . S
C1031 C1036 1.490 . S
C1032 H1022 0.930 1_565 S
C1032 C1031 1.400 . S
C1032 C1035 1.386 . S
H1033 C1049 0.930 . S
H1034 C1050 0.931 . S
C1035 H1023 0.929 . S
C1035 C1029 1.390 . S
C1035 C1032 1.386 . S
C1036 C1031 1.490 . S
C1036 C1038 1.395 . S
C1036 C1039 1.403 . S
H1037 C1043 0.930 . S
C1038 H1024 0.930 . S
C1038 C1036 1.395 . S
C1038 C1041 1.416 1_554 S
C1039 C1036 1.403 . S
C1039 C1040 1.524 . S
C1039 C1043 1.400 1_564 S
C1040 H1025 0.960 1_565 S
C1040 H1026 0.960 . S
C1040 H1027 0.960 1_565 S
C1040 C1039 1.524 . S
C1041 C1038 1.416 1_556 S
C1041 C1042 1.394 1_565 S
C1041 C1045 1.481 1_565 S
C1042 C1041 1.394 1_545 S
C1042 C1043 1.385 . S
C1042 C1044 1.478 . S
C1043 H1037 0.930 . S
C1043 C1039 1.400 1_546 S
C1043 C1042 1.385 . S
C1044 C1042 1.478 . S
C1044 C1046 1.381 . S
C1044 C1050 1.383 . S
C1045 C1041 1.481 1_545 S
C1045 H1051 0.959 1_545 S
C1045 H1052 0.964 . S
C1045 H1053 0.958 1_545 S
C1046 C1044 1.381 . S
C1046 C1047 1.394 . S
C1046 H1054 0.930 1_545 S
C1047 C1046 1.394 . S
C1047 C1048 1.383 . S
C1047 H1055 0.929 . S
C1048 C1047 1.383 . S
C1048 C1049 1.377 . S
C1049 H1033 0.930 . S
C1049 C1048 1.377 . S
C1049 C1050 1.379 . S
C1050 H1034 0.931 . S
C1050 C1044 1.383 . S
C1050 C1049 1.379 . S
H1051 C1045 0.959 1_565 S
H1052 C1045 0.964 . S
H1053 C1045 0.958 1_565 S
H1054 C1046 0.930 1_565 S
H1055 C1047 0.929 . S
H1056 C1064 0.929 . S
H1057 C1066 0.930 . S
H1058 C1068 0.930 . S
H1059 C1071 0.929 . S
H1060 C1074 0.930 . S
H1061 C1076 0.960 . S
H1062 C1076 0.960 . S
H1063 C1076 0.960 . S
C1064 H1056 0.929 . S
C1064 C1065 1.377 . S
C1064 C1066 1.384 . S
C1065 C1064 1.377 . S
C1065 C1071 1.390 . S
C1066 H1057 0.930 . S
C1066 C1064 1.384 . S
C1066 C1067 1.372 . S
C1067 C1066 1.372 . S
C1067 C1068 1.400 . S
C1067 C1072 1.490 . S
C1068 H1058 0.930 . S
C1068 C1067 1.400 . S
C1068 C1071 1.386 . S
H1069 C1085 0.930 . S
H1070 C1086 0.931 . S
C1071 H1059 0.929 . S
C1071 C1065 1.390 . S
C1071 C1068 1.386 . S
C1072 C1067 1.490 . S
C1072 C1074 1.395 . S
C1072 C1075 1.403 . S
H1073 C1079 0.930 . S
C1074 H1060 0.930 . S
C1074 C1072 1.395 . S
C1074 C1077 1.403 . S
C1075 C1072 1.403 . S
C1075 C1076 1.524 . S
C1075 C1079 1.400 . S
C1076 H1061 0.960 . S
C1076 H1062 0.960 . S
C1076 H1063 0.960 . S
C1076 C1075 1.524 . S
C1077 C1074 1.403 . S
C1077 C1078 1.392 . S
C1077 C1081 1.495 . S
C1078 C1077 1.392 . S
C1078 C1079 1.385 . S
C1078 C1080 1.478 . S
C1079 H1073 0.930 . S
C1079 C1075 1.400 . S
C1079 C1078 1.385 . S
C1080 C1078 1.478 . S
C1080 C1082 1.381 . S
C1080 C1086 1.383 . S
C1081 C1077 1.495 . S
C1081 H1087 0.959 . S
C1081 H1088 0.961 . S
C1081 H1089 0.960 . S
C1082 C1080 1.381 . S
C1082 C1083 1.394 . S
C1082 H1090 0.930 . S
C1083 C1082 1.394 . S
C1083 C1084 1.383 . S
C1083 H1091 0.929 . S
C1084 C1083 1.383 . S
C1084 C1085 1.377 . S
C1085 H1069 0.930 . S
C1085 C1084 1.377 . S
C1085 C1086 1.379 . S
C1086 H1070 0.931 . S
C1086 C1080 1.383 . S
C1086 C1085 1.379 . S
H1087 C1081 0.959 . S
H1088 C1081 0.961 . S
H1089 C1081 0.960 . S
H1090 C1082 0.930 . S
H1091 C1083 0.929 . S
H1092 C1100 0.929 . S
H1093 C1102 0.930 . S
H1094 C1104 0.930 . S
H1095 C1107 0.929 . S
H1096 C1110 0.930 . S
H1097 C1112 0.960 . S
H1098 C1112 0.960 . S
H1099 C1112 0.960 . S
C1100 H1092 0.929 . S
C1100 C1101 1.377 . S
C1100 C1102 1.384 . S
C1101 C1100 1.377 . S
C1101 C1107 1.390 . S
C1102 H1093 0.930 . S
C1102 C1100 1.384 . S
C1102 C1103 1.372 . S
C1103 C1102 1.372 . S
C1103 C1104 1.400 . S
C1103 C1108 1.490 . S
C1104 H1094 0.930 . S
C1104 C1103 1.400 . S
C1104 C1107 1.386 . S
H1105 C1121 0.930 . S
H1106 C1122 0.931 . S
C1107 H1095 0.929 . S
C1107 C1101 1.390 . S
C1107 C1104 1.386 . S
C1108 C1103 1.490 . S
C1108 C1110 1.395 . S
C1108 C1111 1.403 1_455 S
H1109 C1115 0.930 . S
C1110 H1096 0.930 . S
C1110 C1108 1.395 . S
C1110 C1113 1.403 . S
C1111 C1108 1.403 1_655 S
C1111 C1112 1.524 . S
C1111 C1115 1.400 . S
C1112 H1097 0.960 . S
C1112 H1098 0.960 . S
C1112 H1099 0.960 . S
C1112 C1111 1.524 . S
C1113 C1110 1.403 . S
C1113 C1114 1.392 1_455 S
C1113 C1117 1.495 . S
C1114 C1113 1.392 1_655 S
C1114 C1115 1.385 . S
C1114 C1116 1.478 . S
C1115 H1109 0.930 . S
C1115 C1111 1.400 . S
C1115 C1114 1.385 . S
C1116 C1114 1.478 . S
C1116 C1118 1.381 . S
C1116 C1122 1.383 . S
C1117 C1113 1.495 . S
C1117 H1123 0.959 . S
C1117 H1124 0.961 . S
C1117 H1125 0.960 . S
C1118 C1116 1.381 . S
C1118 C1119 1.394 . S
C1118 H1126 0.930 . S
C1119 C1118 1.394 . S
C1119 C1120 1.383 . S
C1119 H1127 0.929 . S
C1120 C1119 1.383 . S
C1120 C1121 1.377 . S
C1121 H1105 0.930 . S
C1121 C1120 1.377 . S
C1121 C1122 1.379 . S
C1122 H1106 0.931 . S
C1122 C1116 1.383 . S
C1122 C1121 1.379 . S
H1123 C1117 0.959 . S
H1124 C1117 0.961 . S
H1125 C1117 0.960 . S
H1126 C1118 0.930 . S
H1127 C1119 0.929 . S
H1128 C1136 0.929 . S
H1129 C1138 0.930 . S
H1130 C1140 0.930 . S
H1131 C1143 0.929 . S
H1132 C1146 0.930 . S
H1133 C1148 0.960 . S
H1134 C1148 0.960 . S
H1135 C1148 0.960 1_545 S
C1136 H1128 0.929 . S
C1136 C1137 1.377 . S
C1136 C1138 1.384 . S
C1137 C1136 1.377 . S
C1137 C1143 1.390 . S
C1138 H1129 0.930 . S
C1138 C1136 1.384 . S
C1138 C1139 1.372 . S
C1139 C1138 1.372 . S
C1139 C1140 1.400 . S
C1139 C1144 1.490 . S
C1140 H1130 0.930 . S
C1140 C1139 1.400 . S
C1140 C1143 1.386 . S
H1141 C1157 0.930 . S
H1142 C1158 0.931 . S
C1143 H1131 0.929 . S
C1143 C1137 1.390 . S
C1143 C1140 1.386 . S
C1144 C1139 1.490 . S
C1144 C1146 1.395 . S
C1144 C1147 1.403 1_545 S
H1145 C1151 0.930 . S
C1146 H1132 0.930 . S
C1146 C1144 1.395 . S
C1146 C1149 1.403 . S
C1147 C1144 1.403 1_565 S
C1147 C1148 1.524 . S
C1147 C1151 1.400 . S
C1148 H1133 0.960 . S
C1148 H1134 0.960 . S
C1148 H1135 0.960 1_565 S
C1148 C1147 1.524 . S
C1149 C1146 1.403 . S
C1149 C1150 1.392 1_545 S
C1149 C1153 1.495 . S
C1150 C1149 1.392 1_565 S
C1150 C1151 1.385 . S
C1150 C1152 1.478 . S
C1151 H1145 0.930 . S
C1151 C1147 1.400 . S
C1151 C1150 1.385 . S
C1152 C1150 1.478 . S
C1152 C1154 1.381 . S
C1152 C1158 1.383 . S
C1153 C1149 1.495 . S
C1153 H1159 0.959 . S
C1153 H1160 0.961 . S
C1153 H1161 0.960 1_545 S
C1154 C1152 1.381 . S
C1154 C1155 1.394 . S
C1154 H1162 0.930 . S
C1155 C1154 1.394 . S
C1155 C1156 1.383 . S
C1155 H1163 0.929 . S
C1156 C1155 1.383 . S
C1156 C1157 1.377 . S
C1157 H1141 0.930 . S
C1157 C1156 1.377 . S
C1157 C1158 1.379 . S
C1158 H1142 0.931 . S
C1158 C1152 1.383 . S
C1158 C1157 1.379 . S
H1159 C1153 0.959 . S
H1160 C1153 0.961 . S
H1161 C1153 0.960 1_565 S
H1162 C1154 0.930 . S
H1163 C1155 0.929 . S
H1164 C1172 0.929 . S
H1165 C1174 0.930 . S
H1166 C1176 0.930 . S
H1167 C1179 0.929 . S
H1168 C1182 0.930 . S
H1169 C1184 0.960 . S
H1170 C1184 0.960 . S
H1171 C1184 0.960 . S
C1172 H1164 0.929 . S
C1172 C1173 1.377 . S
C1172 C1174 1.384 . S
C1173 C1172 1.377 . S
C1173 C1179 1.390 . S
C1174 H1165 0.930 . S
C1174 C1172 1.384 . S
C1174 C1175 1.372 . S
C1175 C1174 1.372 . S
C1175 C1176 1.400 . S
C1175 C1180 1.490 . S
C1176 H1166 0.930 . S
C1176 C1175 1.400 . S
C1176 C1179 1.386 . S
H1177 C1193 0.930 . S
H1178 C1194 0.931 . S
C1179 H1167 0.929 . S
C1179 C1173 1.390 . S
C1179 C1176 1.386 . S
C1180 C1175 1.490 . S
C1180 C1182 1.395 . S
C1180 C1183 1.403 . S
H1181 C1187 0.930 . S
C1182 H1168 0.930 . S
C1182 C1180 1.395 . S
C1182 C1185 1.403 . S
C1183 C1180 1.403 . S
C1183 C1184 1.524 . S
C1183 C1187 1.400 . S
C1184 H1169 0.960 . S
C1184 H1170 0.960 . S
C1184 H1171 0.960 . S
C1184 C1183 1.524 . S
C1185 C1182 1.403 . S
C1185 C1186 1.392 . S
C1185 C1189 1.495 . S
C1186 C1185 1.392 . S
C1186 C1187 1.385 . S
C1186 C1188 1.478 . S
C1187 H1181 0.930 . S
C1187 C1183 1.400 . S
C1187 C1186 1.385 . S
C1188 C1186 1.478 . S
C1188 C1190 1.381 . S
C1188 C1194 1.383 . S
C1189 C1185 1.495 . S
C1189 H1195 0.959 . S
C1189 H1196 0.961 . S
C1189 H1197 0.960 . S
C1190 C1188 1.381 . S
C1190 C1191 1.394 . S
C1190 H1198 0.930 . S
C1191 C1190 1.394 . S
C1191 C1192 1.383 . S
C1191 H1199 0.929 . S
C1192 C1191 1.383 . S
C1192 C1193 1.377 . S
C1193 H1177 0.930 . S
C1193 C1192 1.377 . S
C1193 C1194 1.379 . S
C1194 H1178 0.931 . S
C1194 C1188 1.383 . S
C1194 C1193 1.379 . S
H1195 C1189 0.959 . S
H1196 C1189 0.961 . S
H1197 C1189 0.960 . S
H1198 C1190 0.930 . S
H1199 C1191 0.929 . S
H1200 C1208 0.929 . S
H1201 C1210 0.930 . S
H1202 C1212 0.930 . S
H1203 C1215 0.929 . S
H1204 C1218 0.930 . S
H1205 C1220 0.960 . S
H1206 C1220 0.960 . S
H1207 C1220 0.960 . S
C1208 H1200 0.929 . S
C1208 C1209 1.377 . S
C1208 C1210 1.384 . S
C1209 C1208 1.377 . S
C1209 C1215 1.390 . S
C1210 H1201 0.930 . S
C1210 C1208 1.384 . S
C1210 C1211 1.372 . S
C1211 C1210 1.372 . S
C1211 C1212 1.400 . S
C1211 C1216 1.490 . S
C1212 H1202 0.930 . S
C1212 C1211 1.400 . S
C1212 C1215 1.386 . S
H1213 C1229 0.930 . S
H1214 C1230 0.931 . S
C1215 H1203 0.929 . S
C1215 C1209 1.390 . S
C1215 C1212 1.386 . S
C1216 C1211 1.490 . S
C1216 C1218 1.395 . S
C1216 C1219 1.403 1_655 S
H1217 C1223 0.930 . S
C1218 H1204 0.930 . S
C1218 C1216 1.395 . S
C1218 C1221 1.403 . S
C1219 C1216 1.403 1_455 S
C1219 C1220 1.524 . S
C1219 C1223 1.400 . S
C1220 H1205 0.960 . S
C1220 H1206 0.960 . S
C1220 H1207 0.960 . S
C1220 C1219 1.524 . S
C1221 C1218 1.403 . S
C1221 C1222 1.392 1_655 S
C1221 C1225 1.495 . S
C1222 C1221 1.392 1_455 S
C1222 C1223 1.385 . S
C1222 C1224 1.478 . S
C1223 H1217 0.930 . S
C1223 C1219 1.400 . S
C1223 C1222 1.385 . S
C1224 C1222 1.478 . S
C1224 C1226 1.381 . S
C1224 C1230 1.383 . S
C1225 C1221 1.495 . S
C1225 H1231 0.959 . S
C1225 H1232 0.961 . S
C1225 H1233 0.960 . S
C1226 C1224 1.381 . S
C1226 C1227 1.394 . S
C1226 H1234 0.930 . S
C1227 C1226 1.394 . S
C1227 C1228 1.383 . S
C1227 H1235 0.929 . S
C1228 C1227 1.383 . S
C1228 C1229 1.377 . S
C1229 H1213 0.930 . S
C1229 C1228 1.377 . S
C1229 C1230 1.379 . S
C1230 H1214 0.931 . S
C1230 C1224 1.383 . S
C1230 C1229 1.379 . S
H1231 C1225 0.959 . S
H1232 C1225 0.961 . S
H1233 C1225 0.960 . S
H1234 C1226 0.930 . S
H1235 C1227 0.929 . S
H1236 C1244 0.929 . S
H1237 C1246 0.930 . S
H1238 C1248 0.930 . S
H1239 C1251 0.929 . S
H1240 C1254 0.930 . S
H1241 C1256 0.960 . S
H1242 C1256 0.960 . S
H1243 C1256 0.960 . S
C1244 H1236 0.929 . S
C1244 C1245 1.377 . S
C1244 C1246 1.384 . S
C1245 C1244 1.377 . S
C1245 C1251 1.390 . S
C1246 H1237 0.930 . S
C1246 C1244 1.384 . S
C1246 C1247 1.372 . S
C1247 C1246 1.372 . S
C1247 C1248 1.400 . S
C1247 C1252 1.490 . S
C1248 H1238 0.930 . S
C1248 C1247 1.400 . S
C1248 C1251 1.386 . S
H1249 C1265 0.930 . S
H1250 C1266 0.931 . S
C1251 H1239 0.929 . S
C1251 C1245 1.390 . S
C1251 C1248 1.386 . S
C1252 C1247 1.490 . S
C1252 C1254 1.395 . S
C1252 C1255 1.403 . S
H1253 C1259 0.930 . S
C1254 H1240 0.930 . S
C1254 C1252 1.395 . S
C1254 C1257 1.403 1_455 S
C1255 C1252 1.403 . S
C1255 C1256 1.524 . S
C1255 C1259 1.400 1_455 S
C1256 H1241 0.960 . S
C1256 H1242 0.960 . S
C1256 H1243 0.960 . S
C1256 C1255 1.524 . S
C1257 C1254 1.403 1_655 S
C1257 C1258 1.392 . S
C1257 C1261 1.495 . S
C1258 C1257 1.392 . S
C1258 C1259 1.385 . S
C1258 C1260 1.478 . S
C1259 H1253 0.930 . S
C1259 C1255 1.400 1_655 S
C1259 C1258 1.385 . S
C1260 C1258 1.478 . S
C1260 C1262 1.381 . S
C1260 C1266 1.383 . S
C1261 C1257 1.495 . S
C1261 H1267 0.959 . S
C1261 H1268 0.961 . S
C1261 H1269 0.960 . S
C1262 C1260 1.381 . S
C1262 C1263 1.394 . S
C1262 H1270 0.930 . S
C1263 C1262 1.394 . S
C1263 C1264 1.383 . S
C1263 H1271 0.929 . S
C1264 C1263 1.383 . S
C1264 C1265 1.377 . S
C1265 H1249 0.930 . S
C1265 C1264 1.377 . S
C1265 C1266 1.379 . S
C1266 H1250 0.931 . S
C1266 C1260 1.383 . S
C1266 C1265 1.379 . S
H1267 C1261 0.959 . S
H1268 C1261 0.961 . S
H1269 C1261 0.960 . S
H1270 C1262 0.930 . S
H1271 C1263 0.929 . S
H1272 C1280 0.929 . S
H1273 C1282 0.930 . S
H1274 C1284 0.930 . S
H1275 C1287 0.929 . S
H1276 C1290 0.930 . S
H1277 C1292 0.960 . S
H1278 C1292 0.960 . S
H1279 C1292 0.960 . S
C1280 H1272 0.929 . S
C1280 C1281 1.377 . S
C1280 C1282 1.384 . S
C1281 C1280 1.377 . S
C1281 C1287 1.390 . S
C1282 H1273 0.930 . S
C1282 C1280 1.384 . S
C1282 C1283 1.372 . S
C1283 C1282 1.372 . S
C1283 C1284 1.400 . S
C1283 C1288 1.490 . S
C1284 H1274 0.930 . S
C1284 C1283 1.400 . S
C1284 C1287 1.386 . S
H1285 C1301 0.930 . S
H1286 C1302 0.931 . S
C1287 H1275 0.929 . S
C1287 C1281 1.390 . S
C1287 C1284 1.386 . S
C1288 C1283 1.490 . S
C1288 C1290 1.395 1_565 S
C1288 C1291 1.403 . S
H1289 C1295 0.930 . S
C1290 H1276 0.930 . S
C1290 C1288 1.395 1_545 S
C1290 C1293 1.403 . S
C1291 C1288 1.403 . S
C1291 C1292 1.524 . S
C1291 C1295 1.400 . S
C1292 H1277 0.960 . S
C1292 H1278 0.960 . S
C1292 H1279 0.960 . S
C1292 C1291 1.524 . S
C1293 C1290 1.403 . S
C1293 C1294 1.392 . S
C1293 C1297 1.495 . S
C1294 C1293 1.392 . S
C1294 C1295 1.385 1_545 S
C1294 C1296 1.478 . S
C1295 H1289 0.930 . S
C1295 C1291 1.400 . S
C1295 C1294 1.385 1_565 S
C1296 C1294 1.478 . S
C1296 C1298 1.381 . S
C1296 C1302 1.383 . S
C1297 C1293 1.495 . S
C1297 H1303 0.959 . S
C1297 H1304 0.961 . S
C1297 H1305 0.960 . S
C1298 C1296 1.381 . S
C1298 C1299 1.394 . S
C1298 H1306 0.930 . S
C1299 C1298 1.394 . S
C1299 C1300 1.383 . S
C1299 H1307 0.929 . S
C1300 C1299 1.383 . S
C1300 C1301 1.377 . S
C1301 H1285 0.930 . S
C1301 C1300 1.377 . S
C1301 C1302 1.379 . S
C1302 H1286 0.931 . S
C1302 C1296 1.383 . S
C1302 C1301 1.379 . S
H1303 C1297 0.959 . S
H1304 C1297 0.961 . S
H1305 C1297 0.960 . S
H1306 C1298 0.930 . S
H1307 C1299 0.929 . S
H1308 C1316 0.929 . S
H1309 C1318 0.930 . S
H1310 C1320 0.930 . S
H1311 C1323 0.929 . S
H1312 C1326 0.930 . S
H1313 C1328 0.960 . S
H1314 C1328 0.960 . S
H1315 C1328 0.960 . S
C1316 H1308 0.929 . S
C1316 C1317 1.377 . S
C1316 C1318 1.384 . S
C1317 C1316 1.377 . S
C1317 C1323 1.390 . S
C1318 H1309 0.930 . S
C1318 C1316 1.384 . S
C1318 C1319 1.372 . S
C1319 C1318 1.372 . S
C1319 C1320 1.400 . S
C1319 C1324 1.490 . S
C1320 H1310 0.930 . S
C1320 C1319 1.400 . S
C1320 C1323 1.386 . S
H1321 C1337 0.930 . S
H1322 C1338 0.931 . S
C1323 H1311 0.929 . S
C1323 C1317 1.390 . S
C1323 C1320 1.386 . S
C1324 C1319 1.490 . S
C1324 C1326 1.395 . S
C1324 C1327 1.403 . S
H1325 C1331 0.930 . S
C1326 H1312 0.930 . S
C1326 C1324 1.395 . S
C1326 C1329 1.403 . S
C1327 C1324 1.403 . S
C1327 C1328 1.524 . S
C1327 C1331 1.400 . S
C1328 H1313 0.960 . S
C1328 H1314 0.960 . S
C1328 H1315 0.960 . S
C1328 C1327 1.524 . S
C1329 C1326 1.403 . S
C1329 C1330 1.392 . S
C1329 C1333 1.495 . S
C1330 C1329 1.392 . S
C1330 C1331 1.385 . S
C1330 C1332 1.478 . S
C1331 H1325 0.930 . S
C1331 C1327 1.400 . S
C1331 C1330 1.385 . S
C1332 C1330 1.478 . S
C1332 C1334 1.381 . S
C1332 C1338 1.383 . S
C1333 C1329 1.495 . S
C1333 H1339 0.959 . S
C1333 H1340 0.961 . S
C1333 H1341 0.960 . S
C1334 C1332 1.381 . S
C1334 C1335 1.394 . S
C1334 H1342 0.930 . S
C1335 C1334 1.394 . S
C1335 C1336 1.383 . S
C1335 H1343 0.929 . S
C1336 C1335 1.383 . S
C1336 C1337 1.377 . S
C1337 H1321 0.930 . S
C1337 C1336 1.377 . S
C1337 C1338 1.379 . S
C1338 H1322 0.931 . S
C1338 C1332 1.383 . S
C1338 C1337 1.379 . S
H1339 C1333 0.959 . S
H1340 C1333 0.961 . S
H1341 C1333 0.960 . S
H1342 C1334 0.930 . S
H1343 C1335 0.929 . S
H1344 C1352 0.929 . S
H1345 C1354 0.930 . S
H1346 C1356 0.930 . S
H1347 C1359 0.929 . S
H1348 C1362 0.930 . S
H1349 C1364 0.960 . S
H1350 C1364 0.960 . S
H1351 C1364 0.960 . S
C1352 H1344 0.929 . S
C1352 C1353 1.377 . S
C1352 C1354 1.384 . S
C1353 C1352 1.377 . S
C1353 C1359 1.390 . S
C1354 H1345 0.930 . S
C1354 C1352 1.384 . S
C1354 C1355 1.372 . S
C1355 C1354 1.372 . S
C1355 C1356 1.400 . S
C1355 C1360 1.490 . S
C1356 H1346 0.930 . S
C1356 C1355 1.400 . S
C1356 C1359 1.386 . S
H1357 C1373 0.930 . S
H1358 C1374 0.931 . S
C1359 H1347 0.929 . S
C1359 C1353 1.390 . S
C1359 C1356 1.386 . S
C1360 C1355 1.490 . S
C1360 C1362 1.395 1_565 S
C1360 C1363 1.403 . S
H1361 C1367 0.930 . S
C1362 H1348 0.930 . S
C1362 C1360 1.395 1_545 S
C1362 C1365 1.403 . S
C1363 C1360 1.403 . S
C1363 C1364 1.524 . S
C1363 C1367 1.400 . S
C1364 H1349 0.960 . S
C1364 H1350 0.960 . S
C1364 H1351 0.960 . S
C1364 C1363 1.524 . S
C1365 C1362 1.403 . S
C1365 C1366 1.392 . S
C1365 C1369 1.495 . S
C1366 C1365 1.392 . S
C1366 C1367 1.385 1_545 S
C1366 C1368 1.478 . S
C1367 H1361 0.930 . S
C1367 C1363 1.400 . S
C1367 C1366 1.385 1_565 S
C1368 C1366 1.478 . S
C1368 C1370 1.381 . S
C1368 C1374 1.383 . S
C1369 C1365 1.495 . S
C1369 H1375 0.959 . S
C1369 H1376 0.961 . S
C1369 H1377 0.960 . S
C1370 C1368 1.381 . S
C1370 C1371 1.394 . S
C1370 H1378 0.930 . S
C1371 C1370 1.394 . S
C1371 C1372 1.383 . S
C1371 H1379 0.929 . S
C1372 C1371 1.383 . S
C1372 C1373 1.377 . S
C1373 H1357 0.930 . S
C1373 C1372 1.377 . S
C1373 C1374 1.379 . S
C1374 H1358 0.931 . S
C1374 C1368 1.383 . S
C1374 C1373 1.379 . S
H1375 C1369 0.959 . S
H1376 C1369 0.961 . S
H1377 C1369 0.960 . S
H1378 C1370 0.930 . S
H1379 C1371 0.929 . S
H1380 C1388 0.929 . S
H1381 C1390 0.930 . S
H1382 C1392 0.930 . S
H1383 C1395 0.929 . S
H1384 C1398 0.930 . S
H1385 C1400 0.960 . S
H1386 C1400 0.960 . S
H1387 C1400 0.960 . S
C1388 H1380 0.929 . S
C1388 C1389 1.377 . S
C1388 C1390 1.384 . S
C1389 C1388 1.377 . S
C1389 C1395 1.390 . S
C1390 H1381 0.930 . S
C1390 C1388 1.384 . S
C1390 C1391 1.372 . S
C1391 C1390 1.372 . S
C1391 C1392 1.400 . S
C1391 C1396 1.490 . S
C1392 H1382 0.930 . S
C1392 C1391 1.400 . S
C1392 C1395 1.386 . S
H1393 C1409 0.930 . S
H1394 C1410 0.931 . S
C1395 H1383 0.929 . S
C1395 C1389 1.390 . S
C1395 C1392 1.386 . S
C1396 C1391 1.490 . S
C1396 C1398 1.395 . S
C1396 C1399 1.403 . S
H1397 C1403 0.930 . S
C1398 H1384 0.930 . S
C1398 C1396 1.395 . S
C1398 C1401 1.403 . S
C1399 C1396 1.403 . S
C1399 C1400 1.524 . S
C1399 C1403 1.400 . S
C1400 H1385 0.960 . S
C1400 H1386 0.960 . S
C1400 H1387 0.960 . S
C1400 C1399 1.524 . S
C1401 C1398 1.403 . S
C1401 C1402 1.392 . S
C1401 C1405 1.495 . S
C1402 C1401 1.392 . S
C1402 C1403 1.385 . S
C1402 C1404 1.478 . S
C1403 H1397 0.930 . S
C1403 C1399 1.400 . S
C1403 C1402 1.385 . S
C1404 C1402 1.478 . S
C1404 C1406 1.381 . S
C1404 C1410 1.383 . S
C1405 C1401 1.495 . S
C1405 H1411 0.959 . S
C1405 H1412 0.961 . S
C1405 H1413 0.960 . S
C1406 C1404 1.381 . S
C1406 C1407 1.394 . S
C1406 H1414 0.930 . S
C1407 C1406 1.394 . S
C1407 C1408 1.383 . S
C1407 H1415 0.929 . S
C1408 C1407 1.383 . S
C1408 C1409 1.377 . S
C1409 H1393 0.930 . S
C1409 C1408 1.377 . S
C1409 C1410 1.379 . S
C1410 H1394 0.931 . S
C1410 C1404 1.383 . S
C1410 C1409 1.379 . S
H1411 C1405 0.959 . S
H1412 C1405 0.961 . S
H1413 C1405 0.960 . S
H1414 C1406 0.930 . S
H1415 C1407 0.929 . S
H1416 C1424 0.929 . S
H1417 C1426 0.930 . S
H1418 C1428 0.930 . S
H1419 C1431 0.929 . S
H1420 C1434 0.930 . S
H1421 C1436 0.960 . S
H1422 C1436 0.960 . S
H1423 C1436 0.960 . S
C1424 H1416 0.929 . S
C1424 C1425 1.377 . S
C1424 C1426 1.384 . S
C1425 C1424 1.377 . S
C1425 C1431 1.390 . S
C1426 H1417 0.930 . S
C1426 C1424 1.384 . S
C1426 C1427 1.372 . S
C1427 C1426 1.372 . S
C1427 C1428 1.400 . S
C1427 C1432 1.490 . S
C1428 H1418 0.930 . S
C1428 C1427 1.400 . S
C1428 C1431 1.386 . S
H1429 C1445 0.930 . S
H1430 C1446 0.931 . S
C1431 H1419 0.929 . S
C1431 C1425 1.390 . S
C1431 C1428 1.386 . S
C1432 C1427 1.490 . S
C1432 C1434 1.395 . S
C1432 C1435 1.403 1_655 S
H1433 C1439 0.930 . S
C1434 H1420 0.930 . S
C1434 C1432 1.395 . S
C1434 C1437 1.403 . S
C1435 C1432 1.403 1_455 S
C1435 C1436 1.524 . S
C1435 C1439 1.400 . S
C1436 H1421 0.960 . S
C1436 H1422 0.960 . S
C1436 H1423 0.960 . S
C1436 C1435 1.524 . S
C1437 C1434 1.403 . S
C1437 C1438 1.392 1_655 S
C1437 C1441 1.495 . S
C1438 C1437 1.392 1_455 S
C1438 C1439 1.385 . S
C1438 C1440 1.478 . S
C1439 H1433 0.930 . S
C1439 C1435 1.400 . S
C1439 C1438 1.385 . S
C1440 C1438 1.478 . S
C1440 C1442 1.381 . S
C1440 C1446 1.383 . S
C1441 C1437 1.495 . S
C1441 H1447 0.959 . S
C1441 H1448 0.961 . S
C1441 H1449 0.960 . S
C1442 C1440 1.381 . S
C1442 C1443 1.394 . S
C1442 H1450 0.930 . S
C1443 C1442 1.394 . S
C1443 C1444 1.383 . S
C1443 H1451 0.929 . S
C1444 C1443 1.383 . S
C1444 C1445 1.377 . S
C1445 H1429 0.930 . S
C1445 C1444 1.377 . S
C1445 C1446 1.379 . S
C1446 H1430 0.931 . S
C1446 C1440 1.383 . S
C1446 C1445 1.379 . S
H1447 C1441 0.959 . S
H1448 C1441 0.961 . S
H1449 C1441 0.960 . S
H1450 C1442 0.930 . S
H1451 C1443 0.929 . S
H1452 C1460 0.929 . S
H1453 C1462 0.930 . S
H1454 C1464 0.930 . S
H1455 C1467 0.929 . S
H1456 C1470 0.930 . S
H1457 C1472 0.960 . S
H1458 C1472 0.960 . S
H1459 C1472 0.960 . S
C1460 H1452 0.929 . S
C1460 C1461 1.377 . S
C1460 C1462 1.384 . S
C1461 C1460 1.377 . S
C1461 C1467 1.390 . S
C1462 H1453 0.930 . S
C1462 C1460 1.384 . S
C1462 C1463 1.372 . S
C1463 C1462 1.372 . S
C1463 C1464 1.400 . S
C1463 C1468 1.490 . S
C1464 H1454 0.930 . S
C1464 C1463 1.400 . S
C1464 C1467 1.386 . S
H1465 C1481 0.930 . S
H1466 C1482 0.931 . S
C1467 H1455 0.929 . S
C1467 C1461 1.390 . S
C1467 C1464 1.386 . S
C1468 C1463 1.490 . S
C1468 C1470 1.395 1_545 S
C1468 C1471 1.403 . S
H1469 C1475 0.930 . S
C1470 H1456 0.930 . S
C1470 C1468 1.395 1_565 S
C1470 C1473 1.403 . S
C1471 C1468 1.403 . S
C1471 C1472 1.524 . S
C1471 C1475 1.400 . S
C1472 H1457 0.960 . S
C1472 H1458 0.960 . S
C1472 H1459 0.960 . S
C1472 C1471 1.524 . S
C1473 C1470 1.403 . S
C1473 C1474 1.392 . S
C1473 C1477 1.495 . S
C1474 C1473 1.392 . S
C1474 C1475 1.385 1_565 S
C1474 C1476 1.478 . S
C1475 H1469 0.930 . S
C1475 C1471 1.400 . S
C1475 C1474 1.385 1_545 S
C1476 C1474 1.478 . S
C1476 C1478 1.381 . S
C1476 C1482 1.383 . S
C1477 C1473 1.495 . S
C1477 H1483 0.959 . S
C1477 H1484 0.961 . S
C1477 H1485 0.960 . S
C1478 C1476 1.381 . S
C1478 C1479 1.394 . S
C1478 H1486 0.930 . S
C1479 C1478 1.394 . S
C1479 C1480 1.383 . S
C1479 H1487 0.929 . S
C1480 C1479 1.383 . S
C1480 C1481 1.377 . S
C1481 H1465 0.930 . S
C1481 C1480 1.377 . S
C1481 C1482 1.379 . S
C1482 H1466 0.931 . S
C1482 C1476 1.383 . S
C1482 C1481 1.379 . S
H1483 C1477 0.959 . S
H1484 C1477 0.961 . S
H1485 C1477 0.960 . S
H1486 C1478 0.930 . S
H1487 C1479 0.929 . S
H1488 C1496 0.929 . S
H1489 C1498 0.930 . S
H1490 C1500 0.930 . S
H1491 C1503 0.929 . S
H1492 C1506 0.930 . S
H1493 C1508 0.960 . S
H1494 C1508 0.960 . S
H1495 C1508 0.960 . S
C1496 H1488 0.929 . S
C1496 C1497 1.377 . S
C1496 C1498 1.384 . S
C1497 C1496 1.377 . S
C1497 C1503 1.390 . S
C1498 H1489 0.930 . S
C1498 C1496 1.384 . S
C1498 C1499 1.372 . S
C1499 C1498 1.372 . S
C1499 C1500 1.400 . S
C1499 C1504 1.490 . S
C1500 H1490 0.930 . S
C1500 C1499 1.400 . S
C1500 C1503 1.386 . S
H1501 C1517 0.930 . S
H1502 C1518 0.931 . S
C1503 H1491 0.929 . S
C1503 C1497 1.390 . S
C1503 C1500 1.386 . S
C1504 C1499 1.490 . S
C1504 C1506 1.395 . S
C1504 C1507 1.403 . S
H1505 C1511 0.930 . S
C1506 H1492 0.930 . S
C1506 C1504 1.395 . S
C1506 C1509 1.403 . S
C1507 C1504 1.403 . S
C1507 C1508 1.524 . S
C1507 C1511 1.400 . S
C1508 H1493 0.960 . S
C1508 H1494 0.960 . S
C1508 H1495 0.960 . S
C1508 C1507 1.524 . S
C1509 C1506 1.403 . S
C1509 C1510 1.392 . S
C1509 C1513 1.495 . S
C1510 C1509 1.392 . S
C1510 C1511 1.385 . S
C1510 C1512 1.478 . S
C1511 H1505 0.930 . S
C1511 C1507 1.400 . S
C1511 C1510 1.385 . S
C1512 C1510 1.478 . S
C1512 C1514 1.381 . S
C1512 C1518 1.383 . S
C1513 C1509 1.495 . S
C1513 H1519 0.959 . S
C1513 H1520 0.961 . S
C1513 H1521 0.960 . S
C1514 C1512 1.381 . S
C1514 C1515 1.394 . S
C1514 H1522 0.930 . S
C1515 C1514 1.394 . S
C1515 C1516 1.383 . S
C1515 H1523 0.929 . S
C1516 C1515 1.383 . S
C1516 C1517 1.377 . S
C1517 H1501 0.930 . S
C1517 C1516 1.377 . S
C1517 C1518 1.379 . S
C1518 H1502 0.931 . S
C1518 C1512 1.383 . S
C1518 C1517 1.379 . S
H1519 C1513 0.959 . S
H1520 C1513 0.961 . S
H1521 C1513 0.960 . S
H1522 C1514 0.930 . S
H1523 C1515 0.929 . S
H1524 C1532 0.929 . S
H1525 C1534 0.930 . S
H1526 C1536 0.930 . S
H1527 C1539 0.929 . S
H1528 C1542 0.930 . S
H1529 C1544 0.960 . S
H1530 C1544 0.960 . S
H1531 C1544 0.960 . S
C1532 H1524 0.929 . S
C1532 C1533 1.377 . S
C1532 C1534 1.384 . S
C1533 C1532 1.377 . S
C1533 C1539 1.390 . S
C1534 H1525 0.930 . S
C1534 C1532 1.384 . S
C1534 C1535 1.372 . S
C1535 C1534 1.372 . S
C1535 C1536 1.400 . S
C1535 C1540 1.490 . S
C1536 H1526 0.930 . S
C1536 C1535 1.400 . S
C1536 C1539 1.386 . S
H1537 C1553 0.930 . S
H1538 C1554 0.931 . S
C1539 H1527 0.929 . S
C1539 C1533 1.390 . S
C1539 C1536 1.386 . S
C1540 C1535 1.490 . S
C1540 C1542 1.395 . S
C1540 C1543 1.403 1_455 S
H1541 C1547 0.930 . S
C1542 H1528 0.930 . S
C1542 C1540 1.395 . S
C1542 C1545 1.403 . S
C1543 C1540 1.403 1_655 S
C1543 C1544 1.524 . S
C1543 C1547 1.400 . S
C1544 H1529 0.960 . S
C1544 H1530 0.960 . S
C1544 H1531 0.960 . S
C1544 C1543 1.524 . S
C1545 C1542 1.403 . S
C1545 C1546 1.392 1_455 S
C1545 C1549 1.495 . S
C1546 C1545 1.392 1_655 S
C1546 C1547 1.385 . S
C1546 C1548 1.478 . S
C1547 H1541 0.930 . S
C1547 C1543 1.400 . S
C1547 C1546 1.385 . S
C1548 C1546 1.478 . S
C1548 C1550 1.381 . S
C1548 C1554 1.383 . S
C1549 C1545 1.495 . S
C1549 H1555 0.959 . S
C1549 H1556 0.961 . S
C1549 H1557 0.960 . S
C1550 C1548 1.381 . S
C1550 C1551 1.394 . S
C1550 H1558 0.930 . S
C1551 C1550 1.394 . S
C1551 C1552 1.383 . S
C1551 H1559 0.929 . S
C1552 C1551 1.383 . S
C1552 C1553 1.377 . S
C1553 H1537 0.930 . S
C1553 C1552 1.377 . S
C1553 C1554 1.379 . S
C1554 H1538 0.931 . S
C1554 C1548 1.383 . S
C1554 C1553 1.379 . S
H1555 C1549 0.959 . S
H1556 C1549 0.961 . S
H1557 C1549 0.960 . S
H1558 C1550 0.930 . S
H1559 C1551 0.929 . S
H1560 C1568 0.929 . S
H1561 C1570 0.930 . S
H1562 C1572 0.930 . S
H1563 C1575 0.929 . S
H1564 C1578 0.930 . S
H1565 C1580 0.960 . S
H1566 C1580 0.960 . S
H1567 C1580 0.960 . S
C1568 H1560 0.929 . S
C1568 C1569 1.377 . S
C1568 C1570 1.384 . S
C1569 C1568 1.377 . S
C1569 C1575 1.390 . S
C1570 H1561 0.930 . S
C1570 C1568 1.384 . S
C1570 C1571 1.372 . S
C1571 C1570 1.372 . S
C1571 C1572 1.400 . S
C1571 C1576 1.490 . S
C1572 H1562 0.930 . S
C1572 C1571 1.400 . S
C1572 C1575 1.386 . S
H1573 C1589 0.930 . S
H1574 C1590 0.931 . S
C1575 H1563 0.929 . S
C1575 C1569 1.390 . S
C1575 C1572 1.386 . S
C1576 C1571 1.490 . S
C1576 C1578 1.395 . S
C1576 C1579 1.403 . S
H1577 C1583 0.930 . S
C1578 H1564 0.930 . S
C1578 C1576 1.395 . S
C1578 C1581 1.403 . S
C1579 C1576 1.403 . S
C1579 C1580 1.524 . S
C1579 C1583 1.400 . S
C1580 H1565 0.960 . S
C1580 H1566 0.960 . S
C1580 H1567 0.960 . S
C1580 C1579 1.524 . S
C1581 C1578 1.403 . S
C1581 C1582 1.392 . S
C1581 C1585 1.495 . S
C1582 C1581 1.392 . S
C1582 C1583 1.385 . S
C1582 C1584 1.478 . S
C1583 H1577 0.930 . S
C1583 C1579 1.400 . S
C1583 C1582 1.385 . S
C1584 C1582 1.478 . S
C1584 C1586 1.381 . S
C1584 C1590 1.383 . S
C1585 C1581 1.495 . S
C1585 H1591 0.959 . S
C1585 H1592 0.961 . S
C1585 H1593 0.960 . S
C1586 C1584 1.381 . S
C1586 C1587 1.394 . S
C1586 H1594 0.930 . S
C1587 C1586 1.394 . S
C1587 C1588 1.383 . S
C1587 H1595 0.929 . S
C1588 C1587 1.383 . S
C1588 C1589 1.377 . S
C1589 H1573 0.930 . S
C1589 C1588 1.377 . S
C1589 C1590 1.379 . S
C1590 H1574 0.931 . S
C1590 C1584 1.383 . S
C1590 C1589 1.379 . S
H1591 C1585 0.959 . S
H1592 C1585 0.961 . S
H1593 C1585 0.960 . S
H1594 C1586 0.930 . S
H1595 C1587 0.929 . S
H1596 C1604 0.929 . S
H1597 C1606 0.930 . S
H1598 C1608 0.930 . S
H1599 C1611 0.929 . S
H1600 C1614 0.930 . S
H1601 C1616 0.960 . S
H1602 C1616 0.960 . S
H1603 C1616 0.960 . S
C1604 H1596 0.929 . S
C1604 C1605 1.377 . S
C1604 C1606 1.384 . S
C1605 C1604 1.377 . S
C1605 C1611 1.390 . S
C1606 H1597 0.930 . S
C1606 C1604 1.384 . S
C1606 C1607 1.372 . S
C1607 C1606 1.372 . S
C1607 C1608 1.400 . S
C1607 C1612 1.490 . S
C1608 H1598 0.930 . S
C1608 C1607 1.400 . S
C1608 C1611 1.386 . S
H1609 C1625 0.930 . S
H1610 C1626 0.931 . S
C1611 H1599 0.929 . S
C1611 C1605 1.390 . S
C1611 C1608 1.386 . S
C1612 C1607 1.490 . S
C1612 C1614 1.395 . S
C1612 C1615 1.403 . S
H1613 C1619 0.930 . S
C1614 H1600 0.930 . S
C1614 C1612 1.395 . S
C1614 C1617 1.403 . S
C1615 C1612 1.403 . S
C1615 C1616 1.524 . S
C1615 C1619 1.400 . S
C1616 H1601 0.960 . S
C1616 H1602 0.960 . S
C1616 H1603 0.960 . S
C1616 C1615 1.524 . S
C1617 C1614 1.403 . S
C1617 C1618 1.392 . S
C1617 C1621 1.495 . S
C1618 C1617 1.392 . S
C1618 C1619 1.385 . S
C1618 C1620 1.478 . S
C1619 H1613 0.930 . S
C1619 C1615 1.400 . S
C1619 C1618 1.385 . S
C1620 C1618 1.478 . S
C1620 C1622 1.381 . S
C1620 C1626 1.383 . S
C1621 C1617 1.495 . S
C1621 H1627 0.959 . S
C1621 H1628 0.961 . S
C1621 H1629 0.960 . S
C1622 C1620 1.381 . S
C1622 C1623 1.394 . S
C1622 H1630 0.930 . S
C1623 C1622 1.394 . S
C1623 C1624 1.383 . S
C1623 H1631 0.929 . S
C1624 C1623 1.383 . S
C1624 C1625 1.377 . S
C1625 H1609 0.930 . S
C1625 C1624 1.377 . S
C1625 C1626 1.379 . S
C1626 H1610 0.931 . S
C1626 C1620 1.383 . S
C1626 C1625 1.379 . S
H1627 C1621 0.959 . S
H1628 C1621 0.961 . S
H1629 C1621 0.960 . S
H1630 C1622 0.930 . S
H1631 C1623 0.929 . S
H1632 C1640 0.929 . S
H1633 C1642 0.930 . S
H1634 C1644 0.930 . S
H1635 C1647 0.929 . S
H1636 C1650 0.930 . S
H1637 C1652 0.960 . S
H1638 C1652 0.960 . S
H1639 C1652 0.960 . S
C1640 H1632 0.929 . S
C1640 C1641 1.377 . S
C1640 C1642 1.384 . S
C1641 C1640 1.377 . S
C1641 C1647 1.390 . S
C1642 H1633 0.930 . S
C1642 C1640 1.384 . S
C1642 C1643 1.372 . S
C1643 C1642 1.372 . S
C1643 C1644 1.400 . S
C1643 C1648 1.490 . S
C1644 H1634 0.930 . S
C1644 C1643 1.400 . S
C1644 C1647 1.386 . S
H1645 C1661 0.930 . S
H1646 C1662 0.931 . S
C1647 H1635 0.929 . S
C1647 C1641 1.390 . S
C1647 C1644 1.386 . S
C1648 C1643 1.490 . S
C1648 C1650 1.395 . S
C1648 C1651 1.403 . S
H1649 C1655 0.930 . S
C1650 H1636 0.930 . S
C1650 C1648 1.395 . S
C1650 C1653 1.403 . S
C1651 C1648 1.403 . S
C1651 C1652 1.524 . S
C1651 C1655 1.400 . S
C1652 H1637 0.960 . S
C1652 H1638 0.960 . S
C1652 H1639 0.960 . S
C1652 C1651 1.524 . S
C1653 C1650 1.403 . S
C1653 C1654 1.392 . S
C1653 C1657 1.495 . S
C1654 C1653 1.392 . S
C1654 C1655 1.385 . S
C1654 C1656 1.478 . S
C1655 H1649 0.930 . S
C1655 C1651 1.400 . S
C1655 C1654 1.385 . S
C1656 C1654 1.478 . S
C1656 C1658 1.381 . S
C1656 C1662 1.383 . S
C1657 C1653 1.495 . S
C1657 H1663 0.959 . S
C1657 H1664 0.961 . S
C1657 H1665 0.960 . S
C1658 C1656 1.381 . S
C1658 C1659 1.394 . S
C1658 H1666 0.930 . S
C1659 C1658 1.394 . S
C1659 C1660 1.383 . S
C1659 H1667 0.929 . S
C1660 C1659 1.383 . S
C1660 C1661 1.377 . S
C1661 H1645 0.930 . S
C1661 C1660 1.377 . S
C1661 C1662 1.379 . S
C1662 H1646 0.931 . S
C1662 C1656 1.383 . S
C1662 C1661 1.379 . S
H1663 C1657 0.959 . S
H1664 C1657 0.961 . S
H1665 C1657 0.960 . S
H1666 C1658 0.930 . S
H1667 C1659 0.929 . S
H1668 C1676 0.929 . S
H1669 C1678 0.930 . S
H1670 C1680 0.930 . S
H1671 C1683 0.929 . S
H1672 C1686 0.930 . S
H1673 C1688 0.960 . S
H1674 C1688 0.960 . S
H1675 C1688 0.960 . S
C1676 H1668 0.929 . S
C1676 C1677 1.377 . S
C1676 C1678 1.384 . S
C1677 C1676 1.377 . S
C1677 C1683 1.390 . S
C1678 H1669 0.930 . S
C1678 C1676 1.384 . S
C1678 C1679 1.372 . S
C1679 C1678 1.372 . S
C1679 C1680 1.400 . S
C1679 C1684 1.490 . S
C1680 H1670 0.930 . S
C1680 C1679 1.400 . S
C1680 C1683 1.386 . S
H1681 C1697 0.930 . S
H1682 C1698 0.931 . S
C1683 H1671 0.929 . S
C1683 C1677 1.390 . S
C1683 C1680 1.386 . S
C1684 C1679 1.490 . S
C1684 C1686 1.395 . S
C1684 C1687 1.403 . S
H1685 C1691 0.930 . S
C1686 H1672 0.930 . S
C1686 C1684 1.395 . S
C1686 C1689 1.403 . S
C1687 C1684 1.403 . S
C1687 C1688 1.524 . S
C1687 C1691 1.400 . S
C1688 H1673 0.960 . S
C1688 H1674 0.960 . S
C1688 H1675 0.960 . S
C1688 C1687 1.524 . S
C1689 C1686 1.403 . S
C1689 C1690 1.392 . S
C1689 C1693 1.495 . S
C1690 C1689 1.392 . S
C1690 C1691 1.385 . S
C1690 C1692 1.478 . S
C1691 H1685 0.930 . S
C1691 C1687 1.400 . S
C1691 C1690 1.385 . S
C1692 C1690 1.478 . S
C1692 C1694 1.381 . S
C1692 C1698 1.383 . S
C1693 C1689 1.495 . S
C1693 H1699 0.959 . S
C1693 H1700 0.961 . S
C1693 H1701 0.960 . S
C1694 C1692 1.381 . S
C1694 C1695 1.394 . S
C1694 H1702 0.930 . S
C1695 C1694 1.394 . S
C1695 C1696 1.383 . S
C1695 H1703 0.929 . S
C1696 C1695 1.383 . S
C1696 C1697 1.377 . S
C1697 H1681 0.930 . S
C1697 C1696 1.377 . S
C1697 C1698 1.379 . S
C1698 H1682 0.931 . S
C1698 C1692 1.383 . S
C1698 C1697 1.379 . S
H1699 C1693 0.959 . S
H1700 C1693 0.961 . S
H1701 C1693 0.960 . S
H1702 C1694 0.930 . S
H1703 C1695 0.929 . S
H1704 C1712 0.929 . S
H1705 C1714 0.930 . S
H1706 C1716 0.930 . S
H1707 C1719 0.929 . S
H1708 C1722 0.930 . S
H1709 C1724 0.960 . S
H1710 C1724 0.960 . S
H1711 C1724 0.960 . S
C1712 H1704 0.929 . S
C1712 C1713 1.377 . S
C1712 C1714 1.384 . S
C1713 C1712 1.377 . S
C1713 C1719 1.390 . S
C1714 H1705 0.930 . S
C1714 C1712 1.384 . S
C1714 C1715 1.372 . S
C1715 C1714 1.372 . S
C1715 C1716 1.400 . S
C1715 C1720 1.490 . S
C1716 H1706 0.930 . S
C1716 C1715 1.400 . S
C1716 C1719 1.386 . S
H1717 C1733 0.930 . S
H1718 C1734 0.931 . S
C1719 H1707 0.929 . S
C1719 C1713 1.390 . S
C1719 C1716 1.386 . S
C1720 C1715 1.490 . S
C1720 C1722 1.395 . S
C1720 C1723 1.403 . S
H1721 C1727 0.930 . S
C1722 H1708 0.930 . S
C1722 C1720 1.395 . S
C1722 C1725 1.403 . S
C1723 C1720 1.403 . S
C1723 C1724 1.524 . S
C1723 C1727 1.400 . S
C1724 H1709 0.960 . S
C1724 H1710 0.960 . S
C1724 H1711 0.960 . S
C1724 C1723 1.524 . S
C1725 C1722 1.403 . S
C1725 C1726 1.392 . S
C1725 C1729 1.495 . S
C1726 C1725 1.392 . S
C1726 C1727 1.385 . S
C1726 C1728 1.478 . S
C1727 H1721 0.930 . S
C1727 C1723 1.400 . S
C1727 C1726 1.385 . S
C1728 C1726 1.478 . S
C1728 C1730 1.381 . S
C1728 C1734 1.383 . S
C1729 C1725 1.495 . S
C1729 H1735 0.959 . S
C1729 H1736 0.961 . S
C1729 H1737 0.960 . S
C1730 C1728 1.381 . S
C1730 C1731 1.394 . S
C1730 H1738 0.930 . S
C1731 C1730 1.394 . S
C1731 C1732 1.383 . S
C1731 H1739 0.929 . S
C1732 C1731 1.383 . S
C1732 C1733 1.377 . S
C1733 H1717 0.930 . S
C1733 C1732 1.377 . S
C1733 C1734 1.379 . S
C1734 H1718 0.931 . S
C1734 C1728 1.383 . S
C1734 C1733 1.379 . S
H1735 C1729 0.959 . S
H1736 C1729 0.961 . S
H1737 C1729 0.960 . S
H1738 C1730 0.930 . S
H1739 C1731 0.929 . S
H1740 C1748 0.929 . S
H1741 C1750 0.930 . S
H1742 C1752 0.930 . S
H1743 C1755 0.929 . S
H1744 C1758 0.930 . S
H1745 C1760 0.960 . S
H1746 C1760 0.960 . S
H1747 C1760 0.960 . S
C1748 H1740 0.929 . S
C1748 C1749 1.377 . S
C1748 C1750 1.384 . S
C1749 C1748 1.377 . S
C1749 C1755 1.390 . S
C1750 H1741 0.930 . S
C1750 C1748 1.384 . S
C1750 C1751 1.372 . S
C1751 C1750 1.372 . S
C1751 C1752 1.400 . S
C1751 C1756 1.490 . S
C1752 H1742 0.930 . S
C1752 C1751 1.400 . S
C1752 C1755 1.386 . S
H1753 C1769 0.930 . S
H1754 C1770 0.931 . S
C1755 H1743 0.929 . S
C1755 C1749 1.390 . S
C1755 C1752 1.386 . S
C1756 C1751 1.490 . S
C1756 C1758 1.395 . S
C1756 C1759 1.403 . S
H1757 C1763 0.930 . S
C1758 H1744 0.930 . S
C1758 C1756 1.395 . S
C1758 C1761 1.403 . S
C1759 C1756 1.403 . S
C1759 C1760 1.524 . S
C1759 C1763 1.400 . S
C1760 H1745 0.960 . S
C1760 H1746 0.960 . S
C1760 H1747 0.960 . S
C1760 C1759 1.524 . S
C1761 C1758 1.403 . S
C1761 C1762 1.392 . S
C1761 C1765 1.495 . S
C1762 C1761 1.392 . S
C1762 C1763 1.385 . S
C1762 C1764 1.478 . S
C1763 H1757 0.930 . S
C1763 C1759 1.400 . S
C1763 C1762 1.385 . S
C1764 C1762 1.478 . S
C1764 C1766 1.381 . S
C1764 C1770 1.383 . S
C1765 C1761 1.495 . S
C1765 H1771 0.959 . S
C1765 H1772 0.961 . S
C1765 H1773 0.960 . S
C1766 C1764 1.381 . S
C1766 C1767 1.394 . S
C1766 H1774 0.930 . S
C1767 C1766 1.394 . S
C1767 C1768 1.383 . S
C1767 H1775 0.929 . S
C1768 C1767 1.383 . S
C1768 C1769 1.377 . S
C1769 H1753 0.930 . S
C1769 C1768 1.377 . S
C1769 C1770 1.379 . S
C1770 H1754 0.931 . S
C1770 C1764 1.383 . S
C1770 C1769 1.379 . S
H1771 C1765 0.959 . S
H1772 C1765 0.961 . S
H1773 C1765 0.960 . S
H1774 C1766 0.930 . S
H1775 C1767 0.929 . S
C489 C10 0.986 . S
C508 C330 0.966 . S
C525 C50 0.982 . S
C544 C370 0.970 . S
C561 C90 0.988 . S
C580 C410 1.004 . S
C597 C450 0.986 . S
C616 C130 0.997 . S
C633 C170 0.982 . S
C652 C250 0.967 . S
C669 C290 0.990 . S
C688 C210 1.008 . S
C705 C416 1.547 . S
C724 C16 1.559 . S
C741 C456 1.548 . S
C760 C56 1.569 . S
C777 C96 1.542 . S
C796 C256 1.538 . S
C813 C296 1.543 . S
C832 C136 1.540 . S
C849 C336 1.541 . S
C868 C176 1.536 . S
C885 C216 1.541 . S
C904 C376 1.536 . S
C921 C291 4.178 . S
C940 C11 4.183 . S
C957 C331 4.181 . S
C976 C51 4.166 . S
C993 C371 4.179 . S
C1012 C91 4.182 . S
C1029 C131 4.182 . S
C1048 C411 4.167 . S
C1065 C171 4.178 . S
C1084 C451 4.178 . S
C1101 C211 4.179 . S
C1120 C251 4.175 . S
C1137 C19 0.846 . S
C1156 C139 0.853 . S
C1173 C59 0.832 . S
C1192 C179 0.901 . S
C1209 C99 0.830 . S
C1228 C219 0.903 . S
C1245 C379 0.826 . S
C1264 C259 0.869 . S
C1281 C299 0.839 . S
C1300 C419 0.799 . S
C1317 C459 0.830 . S
C1336 C339 0.837 . S
C1353 C287 0.752 . S
C1372 C7 0.797 . S
C1389 C327 0.741 . S
C1408 C47 0.764 . S
C1425 C87 0.731 . S
C1444 C367 0.707 . S
C1461 C407 0.751 . S
C1480 C127 0.787 . S
C1497 C447 0.731 . S
C1516 C167 0.707 . S
C1533 C207 0.731 . S
C1552 C247 0.703 . S
C1569 C2 4.706 . S
C1588 C402 4.698 . S
C1605 C42 4.706 . S
C1624 C442 4.699 1_556 S
C1641 C82 4.706 1_554 S
C1660 C242 4.698 . S
C1677 C122 4.706 . S
C1696 C282 4.698 . S
C1713 C162 4.705 . S
C1732 C322 4.702 1_556 S
C1749 C362 4.705 . S
C1768 C202 4.702 1_554 S
