# Generated by pormake.
# Topology uni, (4)-cn, num edge types: 1
# Building blocks:
#     Node 0, Type 0, BuildingBlock: QUQFOY_clean_sbu_3, # of connection points: 4
#     Node 1, Type 0, BuildingBlock: QUQFOY_clean_sbu_3, # of connection points: 4
#     Node 2, Type 0, BuildingBlock: QUQFOY_clean_sbu_3, # of connection points: 4
#     Node 3, Type 0, BuildingBlock: QUQFOY_clean_sbu_3, # of connection points: 4
#     Node 4, Type 0, BuildingBlock: QUQFOY_clean_sbu_3, # of connection points: 4
#     Node 5, Type 0, BuildingBlock: QUQFOY_clean_sbu_3, # of connection points: 4
#     Edge 6, Type (0, 0), BuildingBlock: KIFKEQ_clean_linker_1, # of connection points: 2
#     Edge 7, Type (0, 0), BuildingBlock: KIFKEQ_clean_linker_1, # of connection points: 2
#     Edge 8, Type (0, 0), BuildingBlock: KIFKEQ_clean_linker_1, # of connection points: 2
#     Edge 9, Type (0, 0), BuildingBlock: KIFKEQ_clean_linker_1, # of connection points: 2
#     Edge 10, Type (0, 0), BuildingBlock: KIFKEQ_clean_linker_1, # of connection points: 2
#     Edge 11, Type (0, 0), BuildingBlock: KIFKEQ_clean_linker_1, # of connection points: 2
#     Edge 12, Type (0, 0), BuildingBlock: KIFKEQ_clean_linker_1, # of connection points: 2
#     Edge 13, Type (0, 0), BuildingBlock: KIFKEQ_clean_linker_1, # of connection points: 2
#     Edge 14, Type (0, 0), BuildingBlock: KIFKEQ_clean_linker_1, # of connection points: 2
#     Edge 15, Type (0, 0), BuildingBlock: KIFKEQ_clean_linker_1, # of connection points: 2
#     Edge 16, Type (0, 0), BuildingBlock: KIFKEQ_clean_linker_1, # of connection points: 2
#     Edge 17, Type (0, 0), BuildingBlock: KIFKEQ_clean_linker_1, # of connection points: 2
# Relax obj value: 0.064
# Max RMSD: 0.096
# Mean RMSD: 0.087
data_MOF--net-uni--node1-QUQFOY_clean_sbu_3--edge1-KIFKEQ_clean_linker_1
_symmetry_space_group_name_H-M    P1
_symmetry_Int_Tables_number       1
_symmetry_cell_setting            triclinic
loop_
_symmetry_equiv_pos_as_xyz
'x, y, z'
_cell_length_a     41.054117
_cell_length_b     41.767118
_cell_length_c     24.010022
_cell_angle_alpha  89.905577
_cell_angle_beta   89.987875
_cell_angle_gamma 119.74448
loop_
_atom_site_label
_atom_site_type_symbol
_atom_site_fract_x
_atom_site_fract_y
_atom_site_fract_z
_atom_type_partial_charge
C0 C 0.70347 0.10695 0.07156 0.0
O1 O 0.68257 0.11876 0.09071 0.0
Cd2 Cd 0.62303 0.0834 0.13655 0.0
O3 O 0.69331 0.07277 0.07297 0.0
Cd4 Cd 0.6346 0.01634 0.10159 0.0
C5 C 0.57702 0.03475 0.02215 0.0
O6 O 0.62384 0.03659 0.19264 0.0
O7 O 0.57919 0.98547 0.16029 0.0
O8 O 0.66949 0.98457 0.12639 0.0
C9 C 0.59189 0.00828 0.20005 0.0
O10 O 0.57859 0.05618 0.06096 0.0
C11 C 0.64898 0.95607 0.09751 0.0
O12 O 0.59738 0.01958 0.02354 0.0
O13 O 0.62326 0.9566 0.06886 0.0
C14 C 0.70025 0.61965 0.17189 0.0
O15 O 0.68479 0.59061 0.14244 0.0
Cd16 Cd 0.62326 0.56489 0.10209 0.0
O17 O 0.68479 0.6394 0.17807 0.0
Cd18 Cd 0.62803 0.63983 0.1427 0.0
C19 C 0.5743 0.56332 0.2193 0.0
O20 O 0.62041 0.61196 0.05007 0.0
O21 O 0.57307 0.61501 0.08268 0.0
O22 O 0.66471 0.70595 0.12151 0.0
C23 C 0.58755 0.60679 0.04251 0.0
O24 O 0.57962 0.54536 0.18093 0.0
C25 C 0.64311 0.7143 0.14784 0.0
O26 O 0.59069 0.59842 0.21802 0.0
O27 O 0.61558 0.6883 0.17342 0.0
C28 C 0.90154 0.61858 0.40203 0.0
O29 O 0.888 0.58918 0.4307 0.0
Cd30 Cd 0.92561 0.56451 0.46685 0.0
O31 O 0.93689 0.63864 0.39602 0.0
Cd32 Cd -0.00613 0.639 0.43203 0.0
C33 C 0.97553 0.56736 0.34977 0.0
O34 O 0.97535 0.60844 0.52353 0.0
O35 O 0.02209 0.60836 0.4824 0.0
O36 O 0.02118 0.70102 0.46961 0.0
C37 C 0.0022 0.6016 0.52589 0.0
O38 O 0.95161 0.54814 0.38705 0.0
C39 C 0.05134 0.7144 0.44157 0.0
O40 O -0.00639 0.60245 0.35261 0.0
O41 O 0.05416 0.69309 0.40656 0.0
C42 C 0.29284 0.91892 0.58063 0.0
O43 O 0.30892 0.90456 0.60772 0.0
Cd44 Cd 0.37257 0.93678 0.63821 0.0
O45 O 0.30952 0.95356 0.5714 0.0
Cd46 Cd 0.37064 0.00815 0.59938 0.0
C47 C 0.41945 0.98116 0.51791 0.0
O48 O 0.38071 0.9885 0.69066 0.0
O49 O 0.42936 0.03325 0.65159 0.0
O50 O 0.34275 0.04364 0.63565 0.0
C51 C 0.41494 0.01314 0.69422 0.0
O52 O 0.41224 0.95663 0.55495 0.0
C53 C 0.35884 0.07018 0.60144 0.0
O54 O 0.4061 0.00287 0.52171 0.0
O55 O 0.37963 0.06742 0.56476 0.0
C56 C 0.29498 0.39708 0.67141 0.0
O57 O 0.30821 0.4254 0.64034 0.0
Cd58 Cd 0.37085 0.45499 0.6044 0.0
O59 O 0.31335 0.38028 0.6797 0.0
Cd60 Cd 0.37262 0.38444 0.64439 0.0
C61 C 0.42137 0.46035 0.72267 0.0
O62 O 0.38037 0.41201 0.55165 0.0
O63 O 0.43018 0.41699 0.59021 0.0
O64 O 0.34306 0.32106 0.61099 0.0
C65 C 0.41485 0.42161 0.54746 0.0
O66 O 0.41238 0.47653 0.68573 0.0
C67 C 0.36075 0.31092 0.64325 0.0
O68 O 0.40933 0.42579 0.71986 0.0
O69 O 0.38331 0.33473 0.67759 0.0
C70 C 0.09831 0.40315 0.9017 0.0
O71 O 0.114 0.43284 0.92955 0.0
Cd72 Cd 0.08104 0.46245 0.96522 0.0
O73 O 0.06281 0.38557 0.89561 0.0
Cd74 Cd 0.00938 0.39223 0.93077 0.0
C75 C 0.03501 0.46516 0.84751 0.0
O76 O 0.03003 0.42128 0.02318 0.0
O77 O -0.01288 0.42788 0.98175 0.0
O78 O 0.97492 0.3272 0.95914 0.0
C79 C 0.00586 0.43177 0.02561 0.0
O80 O 0.05876 0.48316 0.88551 0.0
C81 C 0.94443 0.32055 0.93584 0.0
O82 O 0.01497 0.43019 0.85022 0.0
O83 O 0.94481 0.34664 0.90809 0.0
H84 H 0.60287 0.06018 0.27861 0.0
H85 H 0.52712 0.94729 0.23117 0.0
H86 H 0.56123 0.05383 0.35605 0.0
H87 H 0.48571 0.94105 0.30825 0.0
H88 H 0.44368 0.93347 0.48772 0.0
H89 H 0.48666 0.94051 0.41257 0.0
H90 H 0.49553 0.0446 0.36701 0.0
H91 H 0.45249 0.03772 0.44242 0.0
C92 C 0.57751 0.03399 0.28495 0.0
C93 C 0.56823 0.00423 0.24886 0.0
C94 C 0.55358 0.03045 0.32895 0.0
C95 C 0.52022 -0.00302 0.33801 0.0
C96 C 0.51137 0.96708 0.30252 0.0
C97 C 0.53503 0.97071 0.25828 0.0
C98 C 0.4547 0.95786 0.46167 0.0
C99 C 0.44458 0.98501 0.47102 0.0
C100 C 0.47923 0.9618 0.41854 0.0
C101 C 0.49447 -0.00688 0.38408 0.0
C102 C 0.48447 0.02034 0.39336 0.0
C103 C 0.4596 0.01624 0.43622 0.0
H104 H 0.51919 0.49109 0.22211 0.0
H105 H 0.573 0.58959 0.32294 0.0
H106 H 0.47928 0.4569 0.30101 0.0
H107 H 0.5334 0.55508 0.40198 0.0
H108 H 0.49082 0.46439 0.54092 0.0
H109 H 0.52816 0.49945 0.46073 0.0
H110 H 0.42731 0.45959 0.36274 0.0
H111 H 0.38964 0.42487 0.44342 0.0
C112 C 0.52246 0.50544 0.26106 0.0
C113 C 0.54929 0.54301 0.26641 0.0
C114 C 0.4995 0.48591 0.30601 0.0
C115 C 0.50342 0.5034 0.3574 0.0
C116 C 0.53005 0.54097 0.36276 0.0
C117 C 0.55253 0.5607 0.31752 0.0
C118 C 0.47658 0.46305 0.50228 0.0
C119 C 0.43731 0.4419 0.49836 0.0
C120 C 0.49794 0.48329 0.45658 0.0
C121 C 0.48053 0.48225 0.40581 0.0
C122 C 0.44134 0.46071 0.40151 0.0
C123 C 0.41985 0.44098 0.44759 0.0
H124 H 0.00625 0.43837 0.74448 0.0
H125 H 0.0526 0.53729 0.8444 0.0
H126 H -0.00179 0.47185 0.6668 0.0
H127 H 0.04379 0.57039 0.76698 0.0
H128 H 0.97606 0.59639 0.63217 0.0
H129 H -0.01592 0.56345 0.71094 0.0
H130 H 0.04644 0.52928 0.60561 0.0
H131 H 0.03923 0.56269 0.52735 0.0
C132 C 0.01458 0.46718 0.7499 0.0
C133 C 0.03017 0.48525 0.80042 0.0
C134 C 0.01008 0.4863 0.70547 0.0
C135 C 0.02033 0.52359 0.71117 0.0
C136 C 0.03548 0.54157 0.7618 0.0
C137 C 0.04072 0.52268 0.80585 0.0
C138 C -0.00846 0.58191 0.62598 0.0
C139 C 0.00706 0.58212 0.57374 0.0
C140 C -0.0038 0.56322 0.67096 0.0
C141 C 0.01575 0.54383 0.66405 0.0
C142 C 0.03104 0.54385 0.61178 0.0
C143 C 0.02706 0.56312 0.56719 0.0
H144 H 0.58079 0.01079 0.91751 0.0
H145 H 0.5162 0.04445 0.01926 0.0
H146 H 0.54072 0.0039 0.83761 0.0
H147 H 0.47615 0.03717 0.93973 0.0
H148 H 0.39073 0.98179 0.79656 0.0
H149 H 0.42912 0.98444 0.87624 0.0
H150 H 0.52955 0.05056 0.78006 0.0
H151 H 0.49131 0.04836 0.70057 0.0
C152 C 0.55788 0.01636 0.92294 0.0
C153 C 0.55172 0.0283 0.97454 0.0
C154 C 0.53514 0.01261 0.87723 0.0
C155 C 0.50547 0.02008 0.88267 0.0
C156 C 0.49871 0.03103 0.93458 0.0
C157 C 0.52177 0.03538 0.97995 0.0
C158 C 0.42099 -0.00311 0.79248 0.0
C159 C 0.43805 0.01497 0.74248 0.0
C160 C 0.4429 -0.00157 0.83802 0.0
C161 C 0.48221 0.01757 0.83406 0.0
C162 C 0.49927 0.03532 0.78392 0.0
C163 C 0.47739 0.03428 0.73867 0.0
H164 H 0.60293 0.56898 0.96343 0.0
H165 H 0.52099 0.60031 0.01034 0.0
H166 H 0.5633 0.53376 0.88497 0.0
H167 H 0.4816 0.56526 0.93211 0.0
H168 H 0.44198 0.53104 0.75202 0.0
H169 H 0.4836 0.56751 0.82737 0.0
H170 H 0.49938 0.47613 0.87318 0.0
H171 H 0.45764 0.43941 0.79768 0.0
C172 C 0.57664 0.56858 0.95673 0.0
C173 C 0.56504 0.58738 -0.00699 0.0
C174 C 0.55387 0.54822 0.91213 0.0
C175 C 0.51935 0.54672 0.90259 0.0
C176 C 0.50818 0.56615 0.93822 0.0
C177 C 0.53068 0.5861 0.98311 0.0
C178 C 0.4543 0.51865 0.77808 0.0
C179 C 0.44641 0.48225 0.76888 0.0
C180 C 0.47803 0.53954 0.82135 0.0
C181 C 0.49474 0.52466 0.85605 0.0
C182 C 0.48715 0.4884 0.8467 0.0
C183 C 0.46304 0.46731 0.80374 0.0
H184 H 0.03154 0.43435 0.13164 0.0
H185 H 0.974 0.47537 0.02834 0.0
H186 H 0.02621 0.46819 0.2113 0.0
H187 H 0.96929 0.50943 0.10743 0.0
H188 H 0.00683 0.59609 0.2483 0.0
H189 H 0.01612 0.56383 0.17024 0.0
H190 H 0.96944 0.46388 0.2679 0.0
H191 H 0.95962 0.49578 0.34568 0.0
C192 C 0.01793 0.45066 0.12595 0.0
C193 C 0.00311 0.45215 0.0739 0.0
C194 C 0.01482 0.4699 0.17142 0.0
C195 C -0.00251 0.49148 0.16525 0.0
C196 C -0.01691 0.49327 0.11309 0.0
C197 C -0.01441 0.47357 0.068 0.0
C198 C -0.00131 0.56729 0.25317 0.0
C199 C -0.0177 0.54842 0.30298 0.0
C200 C 0.0039 0.54885 0.20851 0.0
C201 C -0.0065 0.51144 0.21324 0.0
C202 C 0.97793 0.4928 0.26341 0.0
C203 C 0.97209 0.51102 0.30769 0.0
H204 H 0.59289 0.73538 0.17945 0.0
H205 H 0.7037 0.77773 0.10913 0.0
H206 H 0.59738 0.79531 0.16572 0.0
H207 H 0.70827 0.83811 0.09621 0.0
H208 H 0.70559 0.94835 0.14475 0.0
H209 H 0.70716 0.89089 0.15846 0.0
H210 H 0.60109 0.8306 0.07335 0.0
H211 H 0.59964 0.88765 0.05884 0.0
C212 C 0.61842 0.75761 0.16178 0.0
C213 C 0.64787 0.75178 0.14511 0.0
C214 C 0.62086 0.79183 0.15364 0.0
C215 C 0.65301 0.82112 0.12944 0.0
C216 C 0.6832 0.81591 0.11497 0.0
C217 C 0.68053 0.7814 0.12229 0.0
C218 C 0.68289 0.92288 0.12834 0.0
C219 C 0.65243 0.9225 0.10087 0.0
C220 C 0.68383 0.8901 0.13616 0.0
C221 C 0.65403 0.85639 0.1175 0.0
C222 C 0.62418 0.85621 0.08872 0.0
C223 C 0.62352 0.88892 0.08013 0.0
H224 H 0.82947 0.59899 0.42916 0.0
H225 H 0.91532 0.6578 0.30543 0.0
H226 H 0.78456 0.60726 0.37271 0.0
H227 H 0.86996 0.66512 0.24837 0.0
H228 H 0.75408 0.60244 0.14385 0.0
H229 H 0.80681 0.61011 0.201 0.0
H230 H 0.776 0.66277 0.32867 0.0
H231 H 0.72375 0.65606 0.2709 0.0
C232 C 0.83885 0.6141 0.39029 0.0
C233 C 0.87585 0.62766 0.37161 0.0
C234 C 0.81322 0.61895 0.3582 0.0
C235 C 0.82391 0.63676 0.30629 0.0
C236 C 0.86115 0.65131 0.2883 0.0
C237 C 0.88705 0.64722 0.32102 0.0
C238 C 0.75901 0.6163 0.18363 0.0
C239 C 0.7348 0.62859 0.203 0.0
C240 C 0.78922 0.62081 0.21614 0.0
C241 C 0.79529 0.63696 0.26912 0.0
C242 C 0.77181 0.65024 0.2879 0.0
C243 C 0.74209 0.64653 0.25478 0.0
H244 H 0.05783 0.75878 0.52878 0.0
H245 H 0.11734 0.75326 0.38389 0.0
H246 H 0.11444 0.81379 0.56005 0.0
H247 H 0.17388 0.80893 0.41506 0.0
H248 H 0.2617 0.92619 0.48386 0.0
H249 H 0.20035 0.88158 0.44451 0.0
H250 H 0.17704 0.81283 0.59012 0.0
H251 H 0.23828 0.85647 0.62848 0.0
C252 C 0.08267 0.76982 0.50282 0.0
C253 C 0.08325 0.75141 0.45417 0.0
C254 C 0.11503 0.80127 0.52084 0.0
C255 C 0.14841 0.81534 0.49006 0.0
C256 C 0.14835 0.79866 0.4393 0.0
C257 C 0.11608 0.76676 0.42165 0.0
C258 C 0.24317 0.90175 0.5076 0.0
C259 C 0.25466 0.89464 0.55908 0.0
C260 C 0.20829 0.87628 0.48505 0.0
C261 C 0.1841 0.84399 0.51451 0.0
C262 C 0.19508 0.83771 0.56687 0.0
C263 C 0.23015 0.86257 0.58865 0.0
H264 H 0.32876 0.26156 0.5586 0.0
H265 H 0.38399 0.27661 0.71739 0.0
H266 H 0.32571 0.20195 0.54793 0.0
H267 H 0.38043 0.21667 0.70688 0.0
H268 H 0.33124 0.09065 0.68933 0.0
H269 H 0.32919 0.14779 0.70027 0.0
H270 H 0.37607 0.1823 0.53565 0.0
H271 H 0.37863 0.12534 0.52481 0.0
C272 C 0.3399 0.25197 0.59148 0.0
C273 C 0.35667 0.27378 0.63883 0.0
C274 C 0.33832 0.21797 0.58517 0.0
C275 C 0.3529 0.2048 0.62651 0.0
C276 C 0.36877 0.22611 0.67455 0.0
C277 C 0.37091 0.26042 0.68046 0.0
C278 C 0.34084 0.11029 0.65528 0.0
C279 C 0.35515 0.10354 0.60621 0.0
C280 C 0.33985 0.14305 0.66173 0.0
C281 C 0.35255 0.16943 0.61888 0.0
C282 C 0.3659 0.16228 0.5692 0.0
C283 C 0.36747 0.12977 0.56309 0.0
H284 H 0.1691 0.41846 0.92864 0.0
H285 H 0.08132 0.36143 0.80727 0.0
H286 H 0.21166 0.40677 0.8724 0.0
H287 H 0.12433 0.35038 0.75045 0.0
H288 H 0.2734 0.36158 0.77173 0.0
H289 H 0.22092 0.35377 0.82998 0.0
H290 H 0.18509 0.40043 0.69936 0.0
H291 H 0.23779 0.40894 0.64162 0.0
C292 C 0.15872 0.40287 0.89043 0.0
C293 C 0.12197 0.39107 0.87217 0.0
C294 C 0.18301 0.396 0.85844 0.0
C295 C 0.17125 0.37777 0.80708 0.0
C296 C 0.13403 0.36454 0.7899 0.0
C297 C 0.10945 0.37076 0.82249 0.0
C298 C 0.25381 0.36938 0.75501 0.0
C299 C 0.25982 0.38613 0.70231 0.0
C300 C 0.22393 0.36504 0.78841 0.0
C301 C 0.19909 0.37659 0.76914 0.0
C302 C 0.20366 0.39103 0.71503 0.0
C303 C 0.23393 0.39607 0.68214 0.0
H304 H 0.87341 0.30856 0.92679 0.0
H305 H 0.93607 0.25395 0.96809 0.0
H306 H 0.81584 0.25445 0.95497 0.0
H307 H 0.87785 0.1982 -0.0073 0.0
H308 H 0.77444 0.12396 0.10041 0.0
H309 H 0.83301 0.17312 0.06143 0.0
H310 H 0.76952 0.19588 0.93918 0.0
H311 H 0.7115 0.14897 0.98175 0.0
C312 C 0.87468 0.28447 0.94045 0.0
C313 C 0.90923 0.28552 0.9454 0.0
C314 C 0.84148 0.25311 0.95638 0.0
C315 C 0.84175 0.2215 0.97639 0.0
C316 C 0.87636 0.2221 0.97881 0.0
C317 C 0.90977 0.25392 0.96413 0.0
C318 C 0.77337 0.13953 0.06502 0.0
C319 C 0.73881 0.13323 0.04427 0.0
C320 C 0.80688 0.16756 0.04222 0.0
C321 C 0.80637 0.18914 -0.00272 0.0
C322 C 0.77137 0.18096 0.97481 0.0
C323 C 0.73802 0.1538 -0.00129 0.0
loop_
_geom_bond_atom_site_label_1
_geom_bond_atom_site_label_2
_geom_bond_distance
_geom_bond_site_symmetry_2
_ccdc_geom_bond_type
C0 O1 1.306 . S
C0 O3 1.160 . S
O1 C0 1.306 . S
O1 Cd2 2.228 . S
Cd2 O1 2.228 . S
Cd2 O6 2.273 . S
Cd2 O10 2.277 . S
O3 C0 1.160 . S
O3 Cd4 2.203 . S
Cd4 O3 2.203 . S
Cd4 O6 2.411 . S
Cd4 O7 2.333 1_545 S
Cd4 O8 2.352 1_545 S
Cd4 O12 2.278 1_544 S
Cd4 O13 2.356 1_545 S
C5 O10 1.209 1_556 S
C5 O12 1.217 1_545 S
O6 Cd2 2.273 . S
O6 Cd4 2.411 . S
O6 C9 1.320 . S
O7 Cd4 2.333 1_565 S
O7 C9 1.214 1_565 S
O8 Cd4 2.352 1_565 S
O8 C11 1.258 . S
C9 O6 1.320 . S
C9 O7 1.214 1_545 S
O10 Cd2 2.277 . S
O10 C5 1.209 1_554 S
C11 O8 1.258 . S
C11 O13 1.282 . S
O12 Cd4 2.278 1_566 S
O12 C5 1.217 1_565 S
O13 Cd4 2.356 1_565 S
O13 C11 1.282 . S
C14 O15 1.306 . S
C14 O17 1.160 . S
O15 C14 1.306 . S
O15 Cd16 2.228 . S
Cd16 O15 2.228 . S
Cd16 O20 2.273 . S
Cd16 O24 2.277 . S
O17 C14 1.160 . S
O17 Cd18 2.203 . S
Cd18 O17 2.203 . S
Cd18 O20 2.411 . S
Cd18 O21 2.333 . S
Cd18 O22 2.352 . S
Cd18 O26 2.277 . S
Cd18 O27 2.356 . S
C19 O24 1.209 . S
C19 O26 1.226 . S
O20 Cd16 2.273 . S
O20 Cd18 2.411 . S
O20 C23 1.320 . S
O21 Cd18 2.333 . S
O21 C23 1.214 . S
O22 Cd18 2.352 . S
O22 C25 1.258 . S
C23 O20 1.320 . S
C23 O21 1.214 . S
O24 Cd16 2.277 . S
O24 C19 1.209 . S
C25 O22 1.258 . S
C25 O27 1.282 . S
O26 Cd18 2.277 . S
O26 C19 1.226 . S
O27 Cd18 2.356 . S
O27 C25 1.282 . S
C28 O29 1.306 . S
C28 O31 1.160 . S
O29 C28 1.306 . S
O29 Cd30 2.228 . S
Cd30 O29 2.228 . S
Cd30 O34 2.273 . S
Cd30 O38 2.277 . S
O31 C28 1.160 . S
O31 Cd32 2.203 1_655 S
Cd32 O31 2.203 1_455 S
Cd32 O34 2.411 1_455 S
Cd32 O35 2.333 . S
Cd32 O36 2.352 . S
Cd32 O40 2.277 . S
Cd32 O41 2.356 . S
C33 O38 1.209 1_455 S
C33 O40 1.226 . S
O34 Cd30 2.273 . S
O34 Cd32 2.411 1_655 S
O34 C37 1.320 1_655 S
O35 Cd32 2.333 . S
O35 C37 1.214 . S
O36 Cd32 2.352 . S
O36 C39 1.258 . S
C37 O34 1.320 1_455 S
C37 O35 1.214 . S
O38 Cd30 2.277 . S
O38 C33 1.209 1_655 S
C39 O36 1.258 . S
C39 O41 1.282 . S
O40 Cd32 2.277 . S
O40 C33 1.226 . S
O41 Cd32 2.356 . S
O41 C39 1.282 . S
C42 O43 1.306 . S
C42 O45 1.160 . S
O43 C42 1.306 . S
O43 Cd44 2.228 . S
Cd44 O43 2.228 . S
Cd44 O48 2.272 1_565 S
Cd44 O52 2.277 . S
O45 C42 1.160 . S
O45 Cd46 2.203 1_565 S
Cd46 O45 2.203 1_545 S
Cd46 O48 2.412 . S
Cd46 O49 2.333 . S
Cd46 O50 2.352 . S
Cd46 O54 2.277 . S
Cd46 O55 2.356 . S
C47 O52 1.209 1_545 S
C47 O54 1.226 . S
O48 Cd44 2.272 1_545 S
O48 Cd46 2.412 . S
O48 C51 1.321 . S
O49 Cd46 2.333 . S
O49 C51 1.214 . S
O50 Cd46 2.352 . S
O50 C53 1.258 . S
C51 O48 1.321 . S
C51 O49 1.214 . S
O52 Cd44 2.277 . S
O52 C47 1.209 1_565 S
C53 O50 1.258 . S
C53 O55 1.282 . S
O54 Cd46 2.277 . S
O54 C47 1.226 . S
O55 Cd46 2.356 . S
O55 C53 1.282 . S
C56 O57 1.306 . S
C56 O59 1.160 . S
O57 C56 1.306 . S
O57 Cd58 2.228 . S
Cd58 O57 2.228 . S
Cd58 O62 2.273 . S
Cd58 O66 2.277 . S
O59 C56 1.160 . S
O59 Cd60 2.203 . S
Cd60 O59 2.203 . S
Cd60 O62 2.411 . S
Cd60 O63 2.333 . S
Cd60 O64 2.352 . S
Cd60 O68 2.277 . S
Cd60 O69 2.356 . S
C61 O66 1.209 . S
C61 O68 1.226 . S
O62 Cd58 2.273 . S
O62 Cd60 2.411 . S
O62 C65 1.320 . S
O63 Cd60 2.333 . S
O63 C65 1.214 . S
O64 Cd60 2.352 . S
O64 C67 1.258 . S
C65 O62 1.320 . S
C65 O63 1.214 . S
O66 Cd58 2.277 . S
O66 C61 1.209 . S
C67 O64 1.258 . S
C67 O69 1.282 . S
O68 Cd60 2.277 . S
O68 C61 1.226 . S
O69 Cd60 2.356 . S
O69 C67 1.282 . S
C70 O71 1.306 . S
C70 O73 1.160 . S
O71 C70 1.306 . S
O71 Cd72 2.228 . S
Cd72 O71 2.228 . S
Cd72 O76 2.273 . S
Cd72 O80 2.277 . S
O73 C70 1.160 . S
O73 Cd74 2.203 . S
Cd74 O73 2.203 . S
Cd74 O76 2.411 . S
Cd74 O77 2.333 1_455 S
Cd74 O78 2.352 1_455 S
Cd74 O82 2.277 1_455 S
Cd74 O83 2.356 1_455 S
C75 O80 1.209 . S
C75 O82 1.226 1_455 S
O76 Cd72 2.273 . S
O76 Cd74 2.411 . S
O76 C79 1.320 . S
O77 Cd74 2.333 1_655 S
O77 C79 1.214 1_655 S
O78 Cd74 2.352 1_655 S
O78 C81 1.258 . S
C79 O76 1.320 . S
C79 O77 1.214 1_455 S
O80 Cd72 2.277 . S
O80 C75 1.209 . S
C81 O78 1.258 . S
C81 O83 1.282 . S
O82 Cd74 2.277 1_655 S
O82 C75 1.226 1_655 S
O83 Cd74 2.356 1_655 S
O83 C81 1.282 . S
H84 C92 0.950 . S
H85 C97 0.950 . S
H86 C94 0.950 . S
H87 C96 0.950 . S
H88 C98 0.950 . S
H89 C100 0.950 . S
H90 C102 0.950 . S
H91 C103 0.950 . S
C92 H84 0.950 . S
C92 C93 1.386 . S
C92 C94 1.391 . S
C93 C92 1.386 . S
C93 C97 1.393 1_545 S
C94 H86 0.950 . S
C94 C92 1.391 . S
C94 C95 1.400 . S
C95 C94 1.400 . S
C95 C96 1.398 1_545 S
C95 C101 1.491 . S
C96 H87 0.950 . S
C96 C95 1.398 1_565 S
C96 C97 1.391 . S
C97 H85 0.950 . S
C97 C93 1.393 1_565 S
C97 C96 1.391 . S
C98 H88 0.950 . S
C98 C99 1.386 1_565 S
C98 C100 1.391 . S
C99 C98 1.386 1_545 S
C99 C103 1.393 . S
C100 H89 0.950 . S
C100 C98 1.391 . S
C100 C101 1.400 1_565 S
C101 C95 1.491 . S
C101 C100 1.400 1_545 S
C101 C102 1.398 . S
C102 H90 0.950 . S
C102 C101 1.398 . S
C102 C103 1.391 . S
C103 H91 0.950 . S
C103 C99 1.393 . S
C103 C102 1.391 . S
H104 C112 0.950 . S
H105 C117 0.950 . S
H106 C114 0.950 . S
H107 C116 0.950 . S
H108 C118 0.950 . S
H109 C120 0.950 . S
H110 C122 0.950 . S
H111 C123 0.950 . S
C112 H104 0.950 . S
C112 C113 1.386 . S
C112 C114 1.391 . S
C113 C112 1.386 . S
C113 C117 1.393 . S
C114 H106 0.950 . S
C114 C112 1.391 . S
C114 C115 1.400 . S
C115 C114 1.400 . S
C115 C116 1.398 . S
C115 C121 1.491 . S
C116 H107 0.950 . S
C116 C115 1.398 . S
C116 C117 1.391 . S
C117 H105 0.950 . S
C117 C113 1.393 . S
C117 C116 1.391 . S
C118 H108 0.950 . S
C118 C119 1.386 . S
C118 C120 1.391 . S
C119 C118 1.386 . S
C119 C123 1.393 . S
C120 H109 0.950 . S
C120 C118 1.391 . S
C120 C121 1.400 . S
C121 C115 1.491 . S
C121 C120 1.400 . S
C121 C122 1.398 . S
C122 H110 0.950 . S
C122 C121 1.398 . S
C122 C123 1.391 . S
C123 H111 0.950 . S
C123 C119 1.393 . S
C123 C122 1.391 . S
H124 C132 0.950 . S
H125 C137 0.950 . S
H126 C134 0.950 . S
H127 C136 0.950 . S
H128 C138 0.950 . S
H129 C140 0.950 . S
H130 C142 0.950 . S
H131 C143 0.950 . S
C132 H124 0.950 . S
C132 C133 1.386 . S
C132 C134 1.391 . S
C133 C132 1.386 . S
C133 C137 1.393 . S
C134 H126 0.950 . S
C134 C132 1.391 . S
C134 C135 1.400 . S
C135 C134 1.400 . S
C135 C136 1.398 . S
C135 C141 1.491 . S
C136 H127 0.950 . S
C136 C135 1.398 . S
C136 C137 1.391 . S
C137 H125 0.950 . S
C137 C133 1.393 . S
C137 C136 1.391 . S
C138 H128 0.950 . S
C138 C139 1.386 . S
C138 C140 1.391 . S
C139 C138 1.386 . S
C139 C143 1.393 . S
C140 H129 0.950 . S
C140 C138 1.391 . S
C140 C141 1.400 . S
C141 C135 1.491 . S
C141 C140 1.400 . S
C141 C142 1.398 . S
C142 H130 0.950 . S
C142 C141 1.398 . S
C142 C143 1.391 . S
C143 H131 0.950 . S
C143 C139 1.393 . S
C143 C142 1.391 . S
H144 C152 0.950 . S
H145 C157 0.950 . S
H146 C154 0.950 . S
H147 C156 0.950 . S
H148 C158 0.950 . S
H149 C160 0.950 . S
H150 C162 0.950 . S
H151 C163 0.950 . S
C152 H144 0.950 . S
C152 C153 1.386 . S
C152 C154 1.391 . S
C153 C152 1.386 . S
C153 C157 1.393 . S
C154 H146 0.950 . S
C154 C152 1.391 . S
C154 C155 1.400 . S
C155 C154 1.400 . S
C155 C156 1.398 . S
C155 C161 1.491 . S
C156 H147 0.950 . S
C156 C155 1.398 . S
C156 C157 1.391 . S
C157 H145 0.950 . S
C157 C153 1.393 . S
C157 C156 1.391 . S
C158 H148 0.950 . S
C158 C159 1.386 . S
C158 C160 1.391 . S
C159 C158 1.386 . S
C159 C163 1.393 . S
C160 H149 0.950 . S
C160 C158 1.391 . S
C160 C161 1.400 . S
C161 C155 1.491 . S
C161 C160 1.400 . S
C161 C162 1.398 . S
C162 H150 0.950 . S
C162 C161 1.398 . S
C162 C163 1.391 . S
C163 H151 0.950 . S
C163 C159 1.393 . S
C163 C162 1.391 . S
H164 C172 0.950 . S
H165 C177 0.950 . S
H166 C174 0.950 . S
H167 C176 0.950 1_556 S
H168 C178 0.950 . S
H169 C180 0.950 . S
H170 C182 0.950 . S
H171 C183 0.950 . S
C172 H164 0.950 . S
C172 C173 1.386 . S
C172 C174 1.391 . S
C173 C172 1.386 . S
C173 C177 1.393 . S
C174 H166 0.950 . S
C174 C172 1.391 . S
C174 C175 1.400 . S
C175 C174 1.400 . S
C175 C176 1.398 . S
C175 C181 1.491 1_554 S
C176 H167 0.950 1_554 S
C176 C175 1.398 . S
C176 C177 1.391 . S
C177 H165 0.950 . S
C177 C173 1.393 . S
C177 C176 1.391 . S
C178 H168 0.950 . S
C178 C179 1.386 . S
C178 C180 1.391 . S
C179 C178 1.386 . S
C179 C183 1.393 . S
C180 H169 0.950 . S
C180 C178 1.391 . S
C180 C181 1.400 . S
C181 C175 1.491 1_556 S
C181 C180 1.400 . S
C181 C182 1.398 . S
C182 H170 0.950 . S
C182 C181 1.398 . S
C182 C183 1.391 . S
C183 H171 0.950 . S
C183 C179 1.393 . S
C183 C182 1.391 . S
H184 C192 0.950 . S
H185 C197 0.950 1_556 S
H186 C194 0.950 . S
H187 C196 0.950 . S
H188 C198 0.950 . S
H189 C200 0.950 . S
H190 C202 0.950 . S
H191 C203 0.950 . S
C192 H184 0.950 . S
C192 C193 1.386 1_655 S
C192 C194 1.391 . S
C193 C192 1.386 1_455 S
C193 C197 1.393 . S
C194 H186 0.950 . S
C194 C192 1.391 . S
C194 C195 1.400 1_655 S
C195 C194 1.400 1_455 S
C195 C196 1.398 . S
C195 C201 1.491 . S
C196 H187 0.950 . S
C196 C195 1.398 . S
C196 C197 1.391 . S
C197 H185 0.950 1_554 S
C197 C193 1.393 . S
C197 C196 1.391 . S
C198 H188 0.950 . S
C198 C199 1.386 . S
C198 C200 1.391 . S
C199 C198 1.386 . S
C199 C203 1.393 1_455 S
C200 H189 0.950 . S
C200 C198 1.391 . S
C200 C201 1.400 . S
C201 C195 1.491 . S
C201 C200 1.400 . S
C201 C202 1.398 1_455 S
C202 H190 0.950 . S
C202 C201 1.398 1_655 S
C202 C203 1.391 . S
C203 H191 0.950 . S
C203 C199 1.393 1_655 S
C203 C202 1.391 . S
H204 C212 0.950 . S
H205 C217 0.950 . S
H206 C214 0.950 . S
H207 C216 0.950 . S
H208 C218 0.950 . S
H209 C220 0.950 . S
H210 C222 0.950 . S
H211 C223 0.950 . S
C212 H204 0.950 . S
C212 C213 1.386 . S
C212 C214 1.391 . S
C213 C212 1.386 . S
C213 C217 1.393 . S
C214 H206 0.950 . S
C214 C212 1.391 . S
C214 C215 1.400 . S
C215 C214 1.400 . S
C215 C216 1.398 . S
C215 C221 1.491 . S
C216 H207 0.950 . S
C216 C215 1.398 . S
C216 C217 1.391 . S
C217 H205 0.950 . S
C217 C213 1.393 . S
C217 C216 1.391 . S
C218 H208 0.950 . S
C218 C219 1.386 . S
C218 C220 1.391 . S
C219 C218 1.386 . S
C219 C223 1.393 . S
C220 H209 0.950 . S
C220 C218 1.391 . S
C220 C221 1.400 . S
C221 C215 1.491 . S
C221 C220 1.400 . S
C221 C222 1.398 . S
C222 H210 0.950 . S
C222 C221 1.398 . S
C222 C223 1.391 . S
C223 H211 0.950 . S
C223 C219 1.393 . S
C223 C222 1.391 . S
H224 C232 0.950 . S
H225 C237 0.950 . S
H226 C234 0.950 . S
H227 C236 0.950 . S
H228 C238 0.950 . S
H229 C240 0.950 . S
H230 C242 0.950 . S
H231 C243 0.950 . S
C232 H224 0.950 . S
C232 C233 1.386 . S
C232 C234 1.391 . S
C233 C232 1.386 . S
C233 C237 1.393 . S
C234 H226 0.950 . S
C234 C232 1.391 . S
C234 C235 1.400 . S
C235 C234 1.400 . S
C235 C236 1.398 . S
C235 C241 1.491 . S
C236 H227 0.950 . S
C236 C235 1.398 . S
C236 C237 1.391 . S
C237 H225 0.950 . S
C237 C233 1.393 . S
C237 C236 1.391 . S
C238 H228 0.950 . S
C238 C239 1.386 . S
C238 C240 1.391 . S
C239 C238 1.386 . S
C239 C243 1.393 . S
C240 H229 0.950 . S
C240 C238 1.391 . S
C240 C241 1.400 . S
C241 C235 1.491 . S
C241 C240 1.400 . S
C241 C242 1.398 . S
C242 H230 0.950 . S
C242 C241 1.398 . S
C242 C243 1.391 . S
C243 H231 0.950 . S
C243 C239 1.393 . S
C243 C242 1.391 . S
H244 C252 0.950 . S
H245 C257 0.950 . S
H246 C254 0.950 . S
H247 C256 0.950 . S
H248 C258 0.950 . S
H249 C260 0.950 . S
H250 C262 0.950 . S
H251 C263 0.950 . S
C252 H244 0.950 . S
C252 C253 1.386 . S
C252 C254 1.391 . S
C253 C252 1.386 . S
C253 C257 1.393 . S
C254 H246 0.950 . S
C254 C252 1.391 . S
C254 C255 1.400 . S
C255 C254 1.400 . S
C255 C256 1.398 . S
C255 C261 1.491 . S
C256 H247 0.950 . S
C256 C255 1.398 . S
C256 C257 1.391 . S
C257 H245 0.950 . S
C257 C253 1.393 . S
C257 C256 1.391 . S
C258 H248 0.950 . S
C258 C259 1.386 . S
C258 C260 1.391 . S
C259 C258 1.386 . S
C259 C263 1.393 . S
C260 H249 0.950 . S
C260 C258 1.391 . S
C260 C261 1.400 . S
C261 C255 1.491 . S
C261 C260 1.400 . S
C261 C262 1.398 . S
C262 H250 0.950 . S
C262 C261 1.398 . S
C262 C263 1.391 . S
C263 H251 0.950 . S
C263 C259 1.393 . S
C263 C262 1.391 . S
H264 C272 0.950 . S
H265 C277 0.950 . S
H266 C274 0.950 . S
H267 C276 0.950 . S
H268 C278 0.950 . S
H269 C280 0.950 . S
H270 C282 0.950 . S
H271 C283 0.950 . S
C272 H264 0.950 . S
C272 C273 1.386 . S
C272 C274 1.391 . S
C273 C272 1.386 . S
C273 C277 1.393 . S
C274 H266 0.950 . S
C274 C272 1.391 . S
C274 C275 1.400 . S
C275 C274 1.400 . S
C275 C276 1.398 . S
C275 C281 1.491 . S
C276 H267 0.950 . S
C276 C275 1.398 . S
C276 C277 1.391 . S
C277 H265 0.950 . S
C277 C273 1.393 . S
C277 C276 1.391 . S
C278 H268 0.950 . S
C278 C279 1.386 . S
C278 C280 1.391 . S
C279 C278 1.386 . S
C279 C283 1.393 . S
C280 H269 0.950 . S
C280 C278 1.391 . S
C280 C281 1.400 . S
C281 C275 1.491 . S
C281 C280 1.400 . S
C281 C282 1.398 . S
C282 H270 0.950 . S
C282 C281 1.398 . S
C282 C283 1.391 . S
C283 H271 0.950 . S
C283 C279 1.393 . S
C283 C282 1.391 . S
H284 C292 0.950 . S
H285 C297 0.950 . S
H286 C294 0.950 . S
H287 C296 0.950 . S
H288 C298 0.950 . S
H289 C300 0.950 . S
H290 C302 0.950 . S
H291 C303 0.950 . S
C292 H284 0.950 . S
C292 C293 1.386 . S
C292 C294 1.391 . S
C293 C292 1.386 . S
C293 C297 1.393 . S
C294 H286 0.950 . S
C294 C292 1.391 . S
C294 C295 1.400 . S
C295 C294 1.400 . S
C295 C296 1.398 . S
C295 C301 1.491 . S
C296 H287 0.950 . S
C296 C295 1.398 . S
C296 C297 1.391 . S
C297 H285 0.950 . S
C297 C293 1.393 . S
C297 C296 1.391 . S
C298 H288 0.950 . S
C298 C299 1.386 . S
C298 C300 1.391 . S
C299 C298 1.386 . S
C299 C303 1.393 . S
C300 H289 0.950 . S
C300 C298 1.391 . S
C300 C301 1.400 . S
C301 C295 1.491 . S
C301 C300 1.400 . S
C301 C302 1.398 . S
C302 H290 0.950 . S
C302 C301 1.398 . S
C302 C303 1.391 . S
C303 H291 0.950 . S
C303 C299 1.393 . S
C303 C302 1.391 . S
H304 C312 0.950 . S
H305 C317 0.950 . S
H306 C314 0.950 . S
H307 C316 0.950 . S
H308 C318 0.950 . S
H309 C320 0.950 . S
H310 C322 0.950 . S
H311 C323 0.950 . S
C312 H304 0.950 . S
C312 C313 1.386 . S
C312 C314 1.391 . S
C313 C312 1.386 . S
C313 C317 1.393 . S
C314 H306 0.950 . S
C314 C312 1.391 . S
C314 C315 1.400 . S
C315 C314 1.400 . S
C315 C316 1.398 . S
C315 C321 1.491 . S
C316 H307 0.950 . S
C316 C315 1.398 . S
C316 C317 1.391 . S
C317 H305 0.950 . S
C317 C313 1.393 . S
C317 C316 1.391 . S
C318 H308 0.950 . S
C318 C319 1.386 . S
C318 C320 1.391 1_554 S
C319 C318 1.386 . S
C319 C323 1.393 . S
C320 H309 0.950 . S
C320 C318 1.391 1_556 S
C320 C321 1.400 . S
C321 C315 1.491 . S
C321 C320 1.400 . S
C321 C322 1.398 1_556 S
C322 H310 0.950 . S
C322 C321 1.398 1_554 S
C322 C323 1.391 . S
C323 H311 0.950 . S
C323 C319 1.393 . S
C323 C322 1.391 . S
C93 C9 1.632 . S
C99 C47 1.635 . S
C113 C19 1.665 . S
C119 C65 1.665 . S
C133 C75 1.692 . S
C139 C37 1.688 . S
C153 C5 1.636 . S
C159 C51 1.631 . S
C173 C23 1.660 . S
C179 C61 1.663 . S
C193 C79 1.693 1_554 S
C199 C33 1.694 . S
C213 C25 1.339 . S
C219 C11 1.348 . S
C233 C28 1.398 . S
C239 C14 1.395 . S
C253 C39 1.368 . S
C259 C42 1.374 . S
C273 C67 1.339 . S
C279 C53 1.352 . S
C293 C70 1.391 . S
C299 C56 1.400 . S
C313 C81 1.372 . S
C319 C0 1.363 . S
