# Generated by pormake.
# Topology why, (6)-cn, num edge types: 1
# Building blocks:
#     Node 0, Type 0, BuildingBlock: FUNLAD_clean_sbu_0, # of connection points: 6
#     Node 1, Type 0, BuildingBlock: FUNLAD_clean_sbu_0, # of connection points: 6
#     Node 2, Type 0, BuildingBlock: FUNLAD_clean_sbu_0, # of connection points: 6
#     Node 3, Type 0, BuildingBlock: FUNLAD_clean_sbu_0, # of connection points: 6
#     Node 4, Type 0, BuildingBlock: FUNLAD_clean_sbu_0, # of connection points: 6
#     Node 5, Type 0, BuildingBlock: FUNLAD_clean_sbu_0, # of connection points: 6
#     Node 6, Type 0, BuildingBlock: FUNLAD_clean_sbu_0, # of connection points: 6
#     Node 7, Type 0, BuildingBlock: FUNLAD_clean_sbu_0, # of connection points: 6
#     Node 8, Type 0, BuildingBlock: FUNLAD_clean_sbu_0, # of connection points: 6
#     Node 9, Type 0, BuildingBlock: FUNLAD_clean_sbu_0, # of connection points: 6
#     Node 10, Type 0, BuildingBlock: FUNLAD_clean_sbu_0, # of connection points: 6
#     Node 11, Type 0, BuildingBlock: FUNLAD_clean_sbu_0, # of connection points: 6
#     Node 12, Type 0, BuildingBlock: FUNLAD_clean_sbu_0, # of connection points: 6
#     Node 13, Type 0, BuildingBlock: FUNLAD_clean_sbu_0, # of connection points: 6
#     Node 14, Type 0, BuildingBlock: FUNLAD_clean_sbu_0, # of connection points: 6
#     Node 15, Type 0, BuildingBlock: FUNLAD_clean_sbu_0, # of connection points: 6
#     Edge 16, Type (0, 0), BuildingBlock: XIVTED_clean_linker_0, # of connection points: 2
#     Edge 17, Type (0, 0), BuildingBlock: XIVTED_clean_linker_0, # of connection points: 2
#     Edge 18, Type (0, 0), BuildingBlock: XIVTED_clean_linker_0, # of connection points: 2
#     Edge 19, Type (0, 0), BuildingBlock: XIVTED_clean_linker_0, # of connection points: 2
#     Edge 20, Type (0, 0), BuildingBlock: XIVTED_clean_linker_0, # of connection points: 2
#     Edge 21, Type (0, 0), BuildingBlock: XIVTED_clean_linker_0, # of connection points: 2
#     Edge 22, Type (0, 0), BuildingBlock: XIVTED_clean_linker_0, # of connection points: 2
#     Edge 23, Type (0, 0), BuildingBlock: XIVTED_clean_linker_0, # of connection points: 2
#     Edge 24, Type (0, 0), BuildingBlock: XIVTED_clean_linker_0, # of connection points: 2
#     Edge 25, Type (0, 0), BuildingBlock: XIVTED_clean_linker_0, # of connection points: 2
#     Edge 26, Type (0, 0), BuildingBlock: XIVTED_clean_linker_0, # of connection points: 2
#     Edge 27, Type (0, 0), BuildingBlock: XIVTED_clean_linker_0, # of connection points: 2
#     Edge 28, Type (0, 0), BuildingBlock: XIVTED_clean_linker_0, # of connection points: 2
#     Edge 29, Type (0, 0), BuildingBlock: XIVTED_clean_linker_0, # of connection points: 2
#     Edge 30, Type (0, 0), BuildingBlock: XIVTED_clean_linker_0, # of connection points: 2
#     Edge 31, Type (0, 0), BuildingBlock: XIVTED_clean_linker_0, # of connection points: 2
#     Edge 32, Type (0, 0), BuildingBlock: XIVTED_clean_linker_0, # of connection points: 2
#     Edge 33, Type (0, 0), BuildingBlock: XIVTED_clean_linker_0, # of connection points: 2
#     Edge 34, Type (0, 0), BuildingBlock: XIVTED_clean_linker_0, # of connection points: 2
#     Edge 35, Type (0, 0), BuildingBlock: XIVTED_clean_linker_0, # of connection points: 2
#     Edge 36, Type (0, 0), BuildingBlock: XIVTED_clean_linker_0, # of connection points: 2
#     Edge 37, Type (0, 0), BuildingBlock: XIVTED_clean_linker_0, # of connection points: 2
#     Edge 38, Type (0, 0), BuildingBlock: XIVTED_clean_linker_0, # of connection points: 2
#     Edge 39, Type (0, 0), BuildingBlock: XIVTED_clean_linker_0, # of connection points: 2
#     Edge 40, Type (0, 0), BuildingBlock: XIVTED_clean_linker_0, # of connection points: 2
#     Edge 41, Type (0, 0), BuildingBlock: XIVTED_clean_linker_0, # of connection points: 2
#     Edge 42, Type (0, 0), BuildingBlock: XIVTED_clean_linker_0, # of connection points: 2
#     Edge 43, Type (0, 0), BuildingBlock: XIVTED_clean_linker_0, # of connection points: 2
#     Edge 44, Type (0, 0), BuildingBlock: XIVTED_clean_linker_0, # of connection points: 2
#     Edge 45, Type (0, 0), BuildingBlock: XIVTED_clean_linker_0, # of connection points: 2
#     Edge 46, Type (0, 0), BuildingBlock: XIVTED_clean_linker_0, # of connection points: 2
#     Edge 47, Type (0, 0), BuildingBlock: XIVTED_clean_linker_0, # of connection points: 2
#     Edge 48, Type (0, 0), BuildingBlock: XIVTED_clean_linker_0, # of connection points: 2
#     Edge 49, Type (0, 0), BuildingBlock: XIVTED_clean_linker_0, # of connection points: 2
#     Edge 50, Type (0, 0), BuildingBlock: XIVTED_clean_linker_0, # of connection points: 2
#     Edge 51, Type (0, 0), BuildingBlock: XIVTED_clean_linker_0, # of connection points: 2
#     Edge 52, Type (0, 0), BuildingBlock: XIVTED_clean_linker_0, # of connection points: 2
#     Edge 53, Type (0, 0), BuildingBlock: XIVTED_clean_linker_0, # of connection points: 2
#     Edge 54, Type (0, 0), BuildingBlock: XIVTED_clean_linker_0, # of connection points: 2
#     Edge 55, Type (0, 0), BuildingBlock: XIVTED_clean_linker_0, # of connection points: 2
#     Edge 56, Type (0, 0), BuildingBlock: XIVTED_clean_linker_0, # of connection points: 2
#     Edge 57, Type (0, 0), BuildingBlock: XIVTED_clean_linker_0, # of connection points: 2
#     Edge 58, Type (0, 0), BuildingBlock: XIVTED_clean_linker_0, # of connection points: 2
#     Edge 59, Type (0, 0), BuildingBlock: XIVTED_clean_linker_0, # of connection points: 2
#     Edge 60, Type (0, 0), BuildingBlock: XIVTED_clean_linker_0, # of connection points: 2
#     Edge 61, Type (0, 0), BuildingBlock: XIVTED_clean_linker_0, # of connection points: 2
#     Edge 62, Type (0, 0), BuildingBlock: XIVTED_clean_linker_0, # of connection points: 2
#     Edge 63, Type (0, 0), BuildingBlock: XIVTED_clean_linker_0, # of connection points: 2
# Relax obj value: 0.448
# Max RMSD: 0.185
# Mean RMSD: 0.185
data_MOF--net-why--node1-FUNLAD_clean_sbu_0--edge1-XIVTED_clean_linker_0
_symmetry_space_group_name_H-M    P1
_symmetry_Int_Tables_number       1
_symmetry_cell_setting            triclinic
loop_
_symmetry_equiv_pos_as_xyz
'x, y, z'
_cell_length_a     50.703937
_cell_length_b     50.691749
_cell_length_c     31.758416
_cell_angle_alpha  90.042676
_cell_angle_beta   89.995244
_cell_angle_gamma 90.02559
loop_
_atom_site_label
_atom_site_type_symbol
_atom_site_fract_x
_atom_site_fract_y
_atom_site_fract_z
_atom_type_partial_charge
C0 C 0.32589 0.22732 0.15837 0.0
N1 N 0.35988 0.1523 0.15023 0.0
C2 C 0.371 0.1555 0.18888 0.0
C3 C 0.37668 0.13361 0.21379 0.0
C4 C 0.3705 0.1083 0.19892 0.0
C5 C 0.35812 0.10561 0.15965 0.0
C6 C 0.3531 0.12802 0.13554 0.0
Zn7 Zn 0.35499 0.18432 0.11285 0.0
C8 C 0.30459 0.18389 0.06722 0.0
N9 N 0.34587 0.25242 0.03652 0.0
C10 C 0.35402 0.27694 0.04811 0.0
C11 C 0.33788 0.24727 -0.00353 0.0
C12 C 0.33969 0.26657 0.96553 0.0
C13 C 0.3499 0.29151 0.97573 0.0
C14 C 0.35617 0.29694 0.01801 0.0
Zn15 Zn 0.3501 0.22085 0.07555 0.0
O16 O 0.33599 0.20451 0.16266 0.0
C17 C 0.40134 0.22106 0.11982 0.0
O18 O 0.32977 0.24005 0.12444 0.0
H19 H 0.3317 0.2276 0.98772 0.0
H20 H 0.37604 0.17503 0.20001 0.0
H21 H 0.36025 0.28059 0.08017 0.0
O22 O 0.39283 0.19861 0.13128 0.0
O23 O 0.38682 0.23563 0.097 0.0
H24 H 0.34441 0.12596 0.10462 0.0
O25 O 0.36955 0.20079 0.02624 0.0
O26 O 0.37276 0.16402 0.06199 0.0
O27 O 0.31386 0.2057 0.05442 0.0
O28 O 0.31764 0.17026 0.09344 0.0
C29 C 0.37624 0.1767 0.028 0.0
H30 H 0.38609 0.13638 0.24409 0.0
H31 H 0.35336 0.08634 0.14699 0.0
H32 H 0.335 0.26126 0.93335 0.0
H33 H 0.36383 0.31601 0.02733 0.0
C34 C 0.5124 0.57419 0.40739 0.0
N35 N 0.58768 0.60784 0.39948 0.0
C36 C 0.58449 0.61853 0.43845 0.0
C37 C 0.60636 0.62334 0.46396 0.0
C38 C 0.63161 0.61675 0.44931 0.0
C39 C 0.63426 0.60506 0.40949 0.0
C40 C 0.61191 0.6009 0.38484 0.0
Zn41 Zn 0.55578 0.60309 0.36167 0.0
C42 C 0.55618 0.55126 0.31843 0.0
N43 N 0.48821 0.59242 0.28424 0.0
C44 C 0.46415 0.60246 0.29432 0.0
C45 C 0.49338 0.58317 0.24487 0.0
C46 C 0.47477 0.58577 0.21292 0.0
C47 C 0.45057 0.59811 0.22146 0.0
C48 C 0.44489 0.60547 0.2632 0.0
Zn49 Zn 0.51955 0.59664 0.32393 0.0
O50 O 0.5355 0.58374 0.41096 0.0
C51 C 0.51958 0.64928 0.36634 0.0
O52 O 0.49936 0.57829 0.37381 0.0
H53 H 0.51271 0.57552 0.23731 0.0
H54 H 0.565 0.62371 0.44952 0.0
H55 H 0.46046 0.60967 0.32583 0.0
O56 O 0.54136 0.64057 0.38031 0.0
O57 O 0.50573 0.63472 0.34234 0.0
H58 H 0.61398 0.59257 0.35366 0.0
O59 O 0.5408 0.61389 0.27356 0.0
O60 O 0.57601 0.62133 0.31177 0.0
O61 O 0.53369 0.5592 0.30634 0.0
O62 O 0.57018 0.56597 0.34183 0.0
C63 C 0.56425 0.62243 0.27658 0.0
H64 H 0.6036 0.63227 0.49464 0.0
H65 H 0.65348 0.60005 0.39695 0.0
H66 H 0.48021 0.5801 0.18121 0.0
H67 H 0.42632 0.61474 0.27125 0.0
C68 C 0.16312 0.76277 0.65729 0.0
N69 N 0.12913 0.83774 0.64574 0.0
C70 C 0.11743 0.83509 0.68406 0.0
C71 C 0.11184 0.85732 0.70834 0.0
C72 C 0.11874 0.88236 0.69318 0.0
C73 C 0.13141 0.88447 0.65408 0.0
C74 C 0.13631 0.86178 0.63061 0.0
Zn75 Zn 0.13484 0.8054 0.60932 0.0
C76 C 0.18704 0.80575 0.56797 0.0
N77 N 0.14672 0.73698 0.53431 0.0
C78 C 0.13734 0.7128 0.54525 0.0
C79 C 0.15614 0.74175 0.49493 0.0
C80 C 0.15439 0.7225 0.46378 0.0
C81 C 0.14275 0.69807 0.47313 0.0
C82 C 0.13522 0.69289 0.51495 0.0
Zn83 Zn 0.14159 0.76881 0.57269 0.0
O84 O 0.15314 0.78571 0.66036 0.0
C85 C 0.08865 0.76889 0.61335 0.0
O86 O 0.1598 0.74961 0.62358 0.0
H87 H 0.16329 0.76116 0.4867 0.0
H88 H 0.11204 0.81573 0.6955 0.0
H89 H 0.13 0.70944 0.57677 0.0
O90 O 0.09697 0.7911 0.62626 0.0
O91 O 0.10364 0.7546 0.59078 0.0
H92 H 0.14541 0.86343 0.59994 0.0
O93 O 0.12431 0.78901 0.52128 0.0
O94 O 0.11789 0.82513 0.55769 0.0
O95 O 0.17907 0.78335 0.55535 0.0
O96 O 0.17226 0.81965 0.59135 0.0
C97 C 0.11647 0.81276 0.52305 0.0
H98 H 0.10217 0.85499 0.73853 0.0
H99 H 0.13671 0.90353 0.64117 0.0
H100 H 0.16014 0.72757 0.43197 0.0
H101 H 0.12646 0.67418 0.52364 0.0
C102 C 0.97785 0.41504 0.91073 0.0
N103 N 0.90287 0.38126 0.8988 0.0
C104 C 0.90567 0.36979 0.93725 0.0
C105 C 0.88353 0.36412 0.96163 0.0
C106 C 0.85842 0.37065 0.94643 0.0
C107 C 0.85614 0.3833 0.90734 0.0
C108 C 0.87877 0.3883 0.88375 0.0
Zn109 Zn 0.93526 0.38662 0.86242 0.0
C110 C 0.9355 0.43871 0.82105 0.0
N111 N 0.00414 0.39776 0.7884 0.0
C112 C 0.02806 0.3877 0.79919 0.0
C113 C -0.00055 0.40705 0.74893 0.0
C114 C 0.01838 0.40429 0.71751 0.0
C115 C 0.04239 0.39178 0.72668 0.0
C116 C 0.04764 0.38456 0.76861 0.0
Zn117 Zn 0.97219 0.39309 0.82661 0.0
O118 O 0.95487 0.40511 0.91343 0.0
C119 C 0.97155 0.34028 0.86753 0.0
O120 O 0.99131 0.41142 0.87742 0.0
H121 H 0.98022 0.41471 0.74081 0.0
H122 H 0.92506 0.36456 0.94868 0.0
H123 H 0.03135 0.38047 0.83079 0.0
O124 O 0.94929 0.34876 0.87988 0.0
O125 O 0.98608 0.35514 0.84516 0.0
H126 H 0.87703 0.39728 0.853 0.0
O127 O 0.95211 0.37572 0.77518 0.0
O128 O 0.91559 0.36953 0.81061 0.0
O129 O 0.95794 0.43063 0.80887 0.0
O130 O 0.92133 0.42398 0.84407 0.0
C131 C 0.92832 0.36797 0.7763 0.0
H132 H 0.88598 0.35447 0.99181 0.0
H133 H 0.83702 0.38833 0.89444 0.0
H134 H 0.01324 0.40988 0.68565 0.0
H135 H 0.06606 0.37519 0.77717 0.0
C136 C 0.61825 0.81556 0.96294 0.0
N137 N 0.64582 0.73881 0.95254 0.0
C138 C 0.66119 0.74224 0.98729 0.0
C139 C 0.66012 0.72442 0.02051 0.0
C140 C 0.64201 0.70349 0.01934 0.0
C141 C 0.6279 0.69917 0.98178 0.0
C142 C 0.6304 0.71697 0.94841 0.0
Zn143 Zn 0.64129 0.77047 0.9126 0.0
C144 C 0.58833 0.77245 0.87323 0.0
N145 N 0.63107 0.83952 0.83907 0.0
C146 C 0.63827 0.86384 0.85306 0.0
C147 C 0.62 0.83605 0.80046 0.0
C148 C 0.61491 0.85769 0.77474 0.0
C149 C 0.6215 0.88307 0.78884 0.0
C150 C 0.63374 0.88603 0.8282 0.0
Zn151 Zn 0.63597 0.80764 0.87657 0.0
O152 O 0.62536 0.79156 0.9639 0.0
C153 C 0.68825 0.80621 0.9161 0.0
O154 O 0.61986 0.82827 0.92859 0.0
H155 H 0.61465 0.81648 0.7899 0.0
H156 H 0.67307 0.75972 0.99105 0.0
H157 H 0.64702 0.86609 0.88391 0.0
O158 O 0.67917 0.78416 0.92806 0.0
O159 O 0.6741 0.82106 0.89326 0.0
H160 H 0.61853 0.71419 0.92051 0.0
O161 O 0.65332 0.78677 0.8258 0.0
O162 O 0.65827 0.75014 0.86189 0.0
O163 O 0.59738 0.79438 0.8604 0.0
O164 O 0.60286 0.75765 0.89561 0.0
C165 C 0.66215 0.76334 0.82841 0.0
H166 H 0.67225 0.72812 0.04793 0.0
H167 H 0.61365 0.68337 0.97898 0.0
H168 H 0.60561 0.85467 0.74441 0.0
H169 H 0.63879 0.90536 0.84032 0.0
C170 C 0.42656 0.36922 0.71622 0.0
N171 N 0.50193 0.40006 0.70543 0.0
C172 C 0.4971 0.40981 0.74459 0.0
C173 C 0.5159 0.40734 0.7763 0.0
C174 C 0.53992 0.39467 0.76765 0.0
C175 C 0.54536 0.3871 0.72593 0.0
C176 C 0.52591 0.38993 0.6951 0.0
Zn177 Zn 0.47031 0.39448 0.66682 0.0
C178 C 0.47138 0.34078 0.62769 0.0
N179 N 0.40223 0.38012 0.59253 0.0
C180 C 0.37816 0.38711 0.60781 0.0
C181 C 0.40489 0.36863 0.55403 0.0
C182 C 0.38265 0.36317 0.52964 0.0
C183 C 0.35759 0.36997 0.54489 0.0
C184 C 0.35548 0.38233 0.58427 0.0
Zn185 Zn 0.4345 0.38627 0.62906 0.0
O186 O 0.44968 0.37864 0.7185 0.0
C187 C 0.43334 0.43931 0.66935 0.0
O188 O 0.41489 0.36872 0.68087 0.0
H189 H 0.42425 0.36338 0.54246 0.0
H190 H 0.47784 0.41759 0.75227 0.0
H191 H 0.37648 0.39603 0.63862 0.0
O192 O 0.45608 0.43223 0.68159 0.0
O193 O 0.41951 0.4236 0.64735 0.0
H194 H 0.52933 0.38234 0.66374 0.0
O195 O 0.45396 0.40502 0.57838 0.0
O196 O 0.4901 0.41134 0.61519 0.0
O197 O 0.44987 0.34865 0.61148 0.0
O198 O 0.48411 0.35612 0.65193 0.0
C199 C 0.47702 0.41473 0.58144 0.0
H200 H 0.51068 0.41325 0.80799 0.0
H201 H 0.5638 0.37762 0.71777 0.0
H202 H 0.385 0.35372 0.49927 0.0
H203 H 0.33643 0.38752 0.59729 0.0
C204 C 0.87284 0.17759 0.46703 0.0
N205 N 0.84462 0.25388 0.45433 0.0
C206 C 0.83558 0.24964 0.49408 0.0
C207 C 0.83826 0.269 0.52482 0.0
C208 C 0.85052 0.29301 0.51475 0.0
C209 C 0.85777 0.29769 0.47267 0.0
C210 C 0.85463 0.2777 0.44273 0.0
Zn211 Zn 0.84842 0.22148 0.41672 0.0
C212 C 0.90056 0.21974 0.37437 0.0
N213 N 0.85788 0.15137 0.34539 0.0
C214 C 0.8502 0.12764 0.36117 0.0
C215 C 0.86951 0.15336 0.30692 0.0
C216 C 0.87462 0.13076 0.28325 0.0
C217 C 0.86739 0.106 0.2992 0.0
C218 C 0.85466 0.10458 0.33835 0.0
Zn219 Zn 0.85332 0.1843 0.38094 0.0
O220 O 0.86653 0.2018 0.46781 0.0
C221 C 0.80184 0.18598 0.42429 0.0
O222 O 0.86973 0.16455 0.43328 0.0
H223 H 0.87529 0.17247 0.29493 0.0
H224 H 0.82803 0.23048 0.50294 0.0
H225 H 0.84111 0.12653 0.39193 0.0
O226 O 0.81138 0.20775 0.43685 0.0
O227 O 0.81518 0.17162 0.39939 0.0
H228 H 0.8617 0.28064 0.41094 0.0
O229 O 0.83569 0.20399 0.32947 0.0
O230 O 0.82933 0.24024 0.36603 0.0
O231 O 0.89186 0.19725 0.36336 0.0
O232 O 0.88592 0.23486 0.39608 0.0
C233 C 0.82587 0.22701 0.33243 0.0
H234 H 0.83273 0.26428 0.55688 0.0
H235 H 0.86703 0.31606 0.46347 0.0
H236 H 0.8843 0.1326 0.25299 0.0
H237 H 0.84908 0.08577 0.35187 0.0
C238 C 0.06396 0.621 0.21395 0.0
N239 N 0.98732 0.59323 0.2035 0.0
C240 C 0.9908 0.57771 0.23807 0.0
C241 C 0.97304 0.57862 0.27139 0.0
C242 C 0.95211 0.59672 0.27056 0.0
C243 C 0.94774 0.611 0.23321 0.0
C244 C 0.96549 0.60868 0.19971 0.0
Zn245 Zn 0.019 0.59795 0.1635 0.0
C246 C 0.02089 0.65098 0.12423 0.0
N247 N 0.08822 0.60849 0.09025 0.0
C248 C 0.11244 0.60109 0.10431 0.0
C249 C 0.08498 0.62009 0.05199 0.0
C250 C 0.1068 0.62554 0.02678 0.0
C251 C 0.13206 0.61869 0.04097 0.0
C252 C 0.13477 0.6059 0.07989 0.0
Zn253 Zn 0.05621 0.60333 0.1275 0.0
O254 O 0.03992 0.61401 0.21485 0.0
C255 C 0.05496 0.55106 0.16705 0.0
O256 O 0.07671 0.61933 0.17963 0.0
H257 H 0.06549 0.6256 0.04136 0.0
H258 H 0.00827 0.56584 0.24165 0.0
H259 H 0.11451 0.59197 0.1349 0.0
O260 O 0.03291 0.56012 0.17907 0.0
O261 O 0.06971 0.56518 0.144 0.0
H262 H 0.96268 0.62069 0.17199 0.0
O263 O 0.03551 0.58602 0.07658 0.0
O264 O -0.00111 0.58074 0.11268 0.0
O265 O 0.04287 0.64195 0.11158 0.0
O266 O 0.006 0.63639 0.14641 0.0
C267 C 0.01216 0.57694 0.0792 0.0
H268 H 0.97678 0.56638 0.29865 0.0
H269 H 0.93195 0.62525 0.23071 0.0
H270 H 0.10399 0.63528 -0.00324 0.0
H271 H 0.15402 0.60062 0.09204 0.0
C272 C 0.82296 0.72569 0.65928 0.0
N273 N 0.85844 0.65125 0.65265 0.0
C274 C 0.86986 0.65502 0.69095 0.0
C275 C 0.87588 0.63348 0.71646 0.0
C276 C 0.86967 0.60796 0.70257 0.0
C277 C 0.85706 0.6047 0.66361 0.0
C278 C 0.85176 0.62674 0.63886 0.0
Zn279 Zn 0.85256 0.68265 0.61428 0.0
C280 C 0.80045 0.68035 0.57198 0.0
N281 N 0.83984 0.74909 0.5354 0.0
C282 C 0.84909 0.77345 0.54562 0.0
C283 C 0.83129 0.74352 0.49578 0.0
C284 C 0.83414 0.76199 0.46368 0.0
C285 C 0.8459 0.78648 0.4724 0.0
C286 C 0.85222 0.79261 0.51441 0.0
Zn287 Zn 0.84495 0.71813 0.57543 0.0
O288 O 0.83328 0.70299 0.66366 0.0
C289 C 0.8979 0.71989 0.61689 0.0
O290 O 0.82636 0.73825 0.62505 0.0
H291 H 0.82417 0.72397 0.48822 0.0
H292 H 0.8748 0.67473 0.70137 0.0
H293 H 0.85573 0.77745 0.57736 0.0
O294 O 0.88986 0.69802 0.63149 0.0
O295 O 0.88279 0.73316 0.593 0.0
H296 H 0.84285 0.6242 0.60819 0.0
O297 O 0.86246 0.697 0.52538 0.0
O298 O 0.87071 0.66225 0.56417 0.0
O299 O 0.80777 0.70276 0.55849 0.0
O300 O 0.81561 0.6673 0.59597 0.0
C301 C 0.87139 0.67373 0.52872 0.0
H302 H 0.88552 0.63667 0.74647 0.0
H303 H 0.8523 0.58524 0.65169 0.0
H304 H 0.8292 0.75622 0.43181 0.0
H305 H 0.86093 0.81143 0.52265 0.0
C306 C 0.01546 0.07538 0.90878 0.0
N307 N 0.09076 0.10882 0.89387 0.0
C308 C 0.08958 0.11824 0.93396 0.0
C309 C 0.11277 0.1239 0.95591 0.0
C310 C 0.13718 0.12002 0.93607 0.0
C311 C 0.13779 0.10935 0.89535 0.0
C312 C 0.11422 0.10379 0.87476 0.0
Zn313 Zn 0.05736 0.10382 0.85971 0.0
C314 C 0.05692 0.05196 0.81684 0.0
N315 N 0.98769 0.09297 0.78732 0.0
C316 C 0.96407 0.10328 0.79919 0.0
C317 C 0.99154 0.08347 0.74773 0.0
C318 C 0.97202 0.08618 0.71726 0.0
C319 C 0.94828 0.09889 0.72749 0.0
C320 C 0.94392 0.10642 0.76956 0.0
Zn321 Zn 0.02036 0.0974 0.82404 0.0
O322 O 0.03865 0.08488 0.91128 0.0
C323 C 0.02159 0.15007 0.86648 0.0
O324 O 0.00195 0.07923 0.87561 0.0
H325 H 0.01055 0.07564 0.73872 0.0
H326 H 0.07066 0.12208 0.94844 0.0
H327 H 0.96144 0.11069 0.83085 0.0
O328 O 0.04376 0.14142 0.87891 0.0
O329 O 0.00709 0.13546 0.84357 0.0
H330 H 0.11469 0.0961 0.843 0.0
O331 O 0.0395 0.1147 0.77189 0.0
O332 O 0.07595 0.1215 0.8071 0.0
O333 O 0.03426 0.05977 0.80523 0.0
O334 O 0.07098 0.06678 0.8399 0.0
C335 C 0.06314 0.12284 0.77287 0.0
H336 H 0.1116 0.13229 0.98723 0.0
H337 H 0.15631 0.10583 0.87929 0.0
H338 H 0.97647 0.08037 0.68522 0.0
H339 H 0.92575 0.11599 0.77891 0.0
C340 C 0.66686 0.26374 0.15759 0.0
N341 N 0.63229 0.33849 0.14748 0.0
C342 C 0.62157 0.33537 0.18643 0.0
C343 C 0.61597 0.35733 0.2113 0.0
C344 C 0.6218 0.38262 0.19608 0.0
C345 C 0.63375 0.38524 0.15646 0.0
C346 C 0.63871 0.36277 0.1324 0.0
Zn347 Zn 0.63734 0.30624 0.11054 0.0
C348 C 0.68858 0.30649 0.06662 0.0
N349 N 0.64773 0.23745 0.03574 0.0
C350 C 0.63818 0.21334 0.04675 0.0
C351 C 0.65621 0.2424 -0.00412 0.0
C352 C 0.65322 0.2235 0.96443 0.0
C353 C 0.64131 0.19923 0.97396 0.0
C354 C 0.63483 0.19378 0.01614 0.0
Zn355 Zn 0.64349 0.26927 0.07452 0.0
O356 O 0.65687 0.28669 0.16057 0.0
C357 C 0.59157 0.26925 0.11794 0.0
O358 O 0.66298 0.25025 0.12438 0.0
H359 H 0.66344 0.26177 0.98757 0.0
H360 H 0.61683 0.31585 0.19788 0.0
H361 H 0.63156 0.20984 0.07863 0.0
O362 O 0.59993 0.29169 0.12974 0.0
O363 O 0.6062 0.2549 0.0949 0.0
H364 H 0.64711 0.36476 0.10127 0.0
O365 O 0.62487 0.28929 0.02414 0.0
O366 O 0.61907 0.32584 0.05971 0.0
O367 O 0.68041 0.28396 0.055 0.0
O368 O 0.67425 0.32063 0.09037 0.0
C369 C 0.61692 0.31301 0.02557 0.0
H370 H 0.60689 0.3546 0.24187 0.0
H371 H 0.63824 0.4045 0.14354 0.0
H372 H 0.65821 0.22881 0.93239 0.0
H373 H 0.62594 0.17517 0.02499 0.0
C374 C 0.47549 0.91457 0.40678 0.0
N375 N 0.40056 0.87997 0.39769 0.0
C376 C 0.40408 0.86866 0.43612 0.0
C377 C 0.38239 0.86252 0.46123 0.0
C378 C 0.35694 0.86844 0.4468 0.0
C379 C 0.3539 0.88098 0.40775 0.0
C380 C 0.37612 0.88646 0.38341 0.0
Zn381 Zn 0.4324 0.88562 0.36009 0.0
C382 C 0.43166 0.93729 0.31791 0.0
N383 N 0.50039 0.89692 0.28381 0.0
C384 C 0.52473 0.8878 0.29434 0.0
C385 C 0.49518 0.90599 0.24437 0.0
C386 C 0.51415 0.90419 0.21282 0.0
C387 C 0.53879 0.8929 0.22181 0.0
C388 C 0.54438 0.88566 0.26363 0.0
Zn389 Zn 0.46896 0.89196 0.32316 0.0
O390 O 0.4525 0.90471 0.41023 0.0
C391 C 0.46925 0.83949 0.36471 0.0
O392 O 0.48859 0.91072 0.37318 0.0
H393 H 0.47564 0.91292 0.23648 0.0
H394 H 0.42372 0.86386 0.44693 0.0
H395 H 0.52844 0.88073 0.32591 0.0
O396 O 0.44713 0.84801 0.37761 0.0
O397 O 0.48349 0.85423 0.34166 0.0
H398 H 0.3738 0.89531 0.35266 0.0
O399 O 0.44839 0.87414 0.27266 0.0
O400 O 0.41228 0.86794 0.30916 0.0
O401 O 0.45406 0.92925 0.30545 0.0
O402 O 0.41776 0.92267 0.34155 0.0
C403 C 0.42467 0.86623 0.27455 0.0
H404 H 0.38543 0.85299 0.49136 0.0
H405 H 0.33451 0.88556 0.39544 0.0
H406 H 0.50876 0.90971 0.18103 0.0
H407 H 0.56325 0.87718 0.27206 0.0
C408 C 0.11648 0.31221 0.46519 0.0
N409 N 0.14876 0.23753 0.45329 0.0
C410 C 0.15804 0.24217 0.4928 0.0
C411 C 0.15591 0.22292 0.52383 0.0
C412 C 0.14397 0.19867 0.51424 0.0
C413 C 0.13666 0.19356 0.47231 0.0
C414 C 0.13924 0.21343 0.44209 0.0
Zn415 Zn 0.14343 0.26956 0.4155 0.0
C416 C 0.09106 0.26854 0.37256 0.0
N417 N 0.13029 0.33872 0.34335 0.0
C418 C 0.13375 0.36271 0.36174 0.0
C419 C 0.12179 0.33646 0.30286 0.0
C420 C 0.11553 0.35898 0.27964 0.0
C421 C 0.11775 0.38384 0.29868 0.0
C422 C 0.12741 0.38564 0.33993 0.0
Zn423 Zn 0.13623 0.30605 0.3789 0.0
O424 O 0.12527 0.28882 0.46691 0.0
C425 C 0.18782 0.30764 0.42231 0.0
O426 O 0.11766 0.32468 0.43064 0.0
H427 H 0.11917 0.31714 0.28898 0.0
H428 H 0.16523 0.26153 0.50127 0.0
H429 H 0.14077 0.36406 0.39381 0.0
O430 O 0.18046 0.28488 0.43415 0.0
O431 O 0.17281 0.32124 0.39886 0.0
H432 H 0.132 0.21017 0.41048 0.0
O433 O 0.15606 0.28735 0.32827 0.0
O434 O 0.16244 0.25109 0.36471 0.0
O435 O 0.09913 0.29084 0.35961 0.0
O436 O 0.10596 0.25479 0.3961 0.0
C437 C 0.16617 0.26447 0.33138 0.0
H438 H 0.1615 0.22793 0.55576 0.0
H439 H 0.12767 0.17498 0.46349 0.0
H440 H 0.10796 0.35694 0.24791 0.0
H441 H 0.12956 0.40458 0.3554 0.0
C442 C 0.92648 0.86476 0.21429 0.0
N443 N 0.00108 0.8977 0.20457 0.0
C444 C -0.00364 0.90601 0.24459 0.0
C445 C 0.01579 0.9038 0.27529 0.0
C446 C 0.04036 0.89285 0.26481 0.0
C447 C 0.04545 0.88653 0.22246 0.0
C448 C 0.02536 0.8891 0.19263 0.0
Zn449 Zn 0.96922 0.89281 0.16644 0.0
C450 C 0.97049 0.84112 0.12144 0.0
N451 N 0.90053 0.88072 0.0929 0.0
C452 C 0.87648 0.8838 0.1112 0.0
C453 C 0.90296 0.87281 0.05211 0.0
C454 C 0.88055 0.8667 0.02851 0.0
C455 C 0.85565 0.86846 0.04747 0.0
C456 C 0.85367 0.87759 0.089 0.0
Zn457 Zn 0.93298 0.88617 0.12906 0.0
O458 O 0.9498 0.87366 0.21682 0.0
C459 C 0.93094 0.93688 0.17494 0.0
O460 O 0.91419 0.86656 0.17963 0.0
H461 H 0.92233 0.87049 0.03832 0.0
H462 H 0.97686 0.91255 0.25358 0.0
H463 H 0.875 0.89035 0.14352 0.0
O464 O 0.9537 0.92945 0.18665 0.0
O465 O 0.91756 0.92226 0.15053 0.0
H466 H 0.02866 0.88264 0.16059 0.0
O467 O 0.95183 0.90697 0.07954 0.0
O468 O 0.98788 0.91277 0.11673 0.0
O469 O 0.94833 0.84946 0.10838 0.0
O470 O 0.98417 0.85567 0.14569 0.0
C471 C 0.97469 0.91705 0.08338 0.0
H472 H 0.01078 0.90861 0.30754 0.0
H473 H 0.06425 0.87834 0.21294 0.0
H474 H 0.88271 0.85953 -0.00345 0.0
H475 H 0.83468 0.87936 0.1044 0.0
C476 C 0.37256 0.67752 0.96252 0.0
N477 N 0.34083 0.75267 0.95192 0.0
C478 C 0.33202 0.74752 0.99152 0.0
C479 C 0.33421 0.76648 0.02303 0.0
C480 C 0.34562 0.79103 0.0138 0.0
C481 C 0.35238 0.79665 0.97178 0.0
C482 C 0.34986 0.77701 0.94113 0.0
Zn483 Zn 0.34604 0.72109 0.91309 0.0
C484 C 0.39834 0.72177 0.87132 0.0
N485 N 0.35864 0.65228 0.83984 0.0
C486 C 0.35262 0.62778 0.85436 0.0
C487 C 0.36935 0.65593 0.801 0.0
C488 C 0.37528 0.63431 0.77559 0.0
C489 C 0.36982 0.60878 0.79018 0.0
C490 C 0.35795 0.60561 0.82977 0.0
Zn491 Zn 0.35277 0.68423 0.87714 0.0
O492 O 0.36428 0.70113 0.9638 0.0
C493 C 0.30121 0.68328 0.91955 0.0
O494 O 0.3709 0.66469 0.9283 0.0
H495 H 0.37376 0.67562 0.79001 0.0
H496 H 0.32515 0.72798 -0.00038 0.0
H497 H 0.34419 0.62538 0.8854 0.0
O498 O 0.30907 0.70589 0.93129 0.0
O499 O 0.31591 0.66921 0.89628 0.0
H500 H 0.35672 0.78068 0.90942 0.0
O501 O 0.33331 0.70373 0.82684 0.0
O502 O 0.32695 0.74013 0.86299 0.0
O503 O 0.39015 0.69938 0.859 0.0
O504 O 0.38344 0.73598 0.89412 0.0
C505 C 0.32322 0.72664 0.82974 0.0
H506 H 0.32903 0.76105 0.05495 0.0
H507 H 0.3609 0.81548 0.96317 0.0
H508 H 0.38426 0.63748 0.74507 0.0
H509 H 0.35375 0.58617 0.84223 0.0
C510 C 0.56058 0.12266 0.71505 0.0
N511 N 0.48606 0.09019 0.70371 0.0
C512 C 0.49097 0.08049 0.74287 0.0
C513 C 0.47221 0.08292 0.77463 0.0
C514 C 0.44814 0.0955 0.76608 0.0
C515 C 0.44258 0.1029 0.72433 0.0
C516 C 0.46201 0.10012 0.69342 0.0
Zn517 Zn 0.51784 0.09608 0.66554 0.0
C518 C 0.51614 0.14917 0.62482 0.0
N519 N 0.58635 0.11075 0.59243 0.0
C520 C 0.61018 0.10705 0.61119 0.0
C521 C 0.58445 0.12003 0.55234 0.0
C522 C 0.60719 0.1269 0.53002 0.0
C523 C 0.63188 0.12444 0.54957 0.0
C524 C 0.63328 0.11392 0.5903 0.0
Zn525 Zn 0.55363 0.10422 0.6278 0.0
O526 O 0.53773 0.11266 0.71761 0.0
C527 C 0.55545 0.05183 0.66948 0.0
O528 O 0.57218 0.12302 0.67966 0.0
H529 H 0.56526 0.12282 0.53815 0.0
H530 H 0.51029 0.07288 0.75056 0.0
H531 H 0.61126 0.09945 0.64294 0.0
O532 O 0.53252 0.05874 0.68103 0.0
O533 O 0.56935 0.06751 0.64757 0.0
H534 H 0.45853 0.10767 0.66206 0.0
O535 O 0.53512 0.08429 0.57726 0.0
O536 O 0.49872 0.07846 0.61369 0.0
O537 O 0.53764 0.14124 0.60856 0.0
O538 O 0.50364 0.13408 0.64974 0.0
C539 C 0.51207 0.07451 0.58033 0.0
H540 H 0.47757 0.07715 0.80631 0.0
H541 H 0.42408 0.11227 0.7162 0.0
H542 H 0.60545 0.13507 0.49864 0.0
H543 H 0.65206 0.11149 0.60612 0.0
H544 H 0.42298 0.27053 0.11624 0.0
H545 H 0.56989 0.21982 0.11218 0.0
H546 H 0.44241 0.18943 0.14343 0.0
H547 H 0.55072 0.30032 0.14428 0.0
H548 H 0.52329 0.20804 0.12035 0.0
H549 H 0.46969 0.28209 0.12333 0.0
C550 C 0.43702 0.25522 0.12419 0.0
C551 C 0.42881 0.22897 0.12916 0.0
C552 C 0.52938 0.2282 0.12614 0.0
C553 C 0.48225 0.24197 0.13648 0.0
C554 C 0.55594 0.23494 0.12139 0.0
C555 C 0.56419 0.2611 0.12744 0.0
C556 C 0.51088 0.24786 0.13607 0.0
C557 C 0.54525 0.2799 0.13937 0.0
C558 C 0.46364 0.26184 0.1283 0.0
C559 C 0.44786 0.20992 0.13944 0.0
N560 N 0.51942 0.273 0.14268 0.0
N561 N 0.47376 0.21672 0.14212 0.0
H562 H 0.55112 0.69002 0.39166 0.0
H563 H 0.43755 0.79878 0.38946 0.0
H564 H 0.47063 0.67176 0.35831 0.0
H565 H 0.51835 0.81703 0.35804 0.0
H566 H 0.44953 0.75216 0.39566 0.0
H567 H 0.53916 0.73673 0.39695 0.0
C568 C 0.53083 0.69576 0.38611 0.0
C569 C 0.51183 0.67697 0.37439 0.0
C570 C 0.46464 0.76644 0.38779 0.0
C571 C 0.49811 0.73029 0.38068 0.0
C572 C 0.4579 0.79306 0.38449 0.0
C573 C 0.47699 0.81182 0.37305 0.0
C574 C 0.49074 0.75857 0.3804 0.0
C575 C 0.503 0.80321 0.36673 0.0
C576 C 0.52412 0.72242 0.38888 0.0
C577 C 0.48591 0.6856 0.36726 0.0
N578 N 0.50914 0.77718 0.37055 0.0
N579 N 0.47978 0.71165 0.37058 0.0
H580 H 0.06691 0.71945 0.60786 0.0
H581 H 0.91938 0.76913 0.60607 0.0
H582 H 0.04728 0.80045 0.63567 0.0
H583 H 0.9394 0.68965 0.64275 0.0
H584 H 0.96616 0.78117 0.61104 0.0
H585 H 0.02014 0.70781 0.61471 0.0
C586 C 0.05281 0.73472 0.61577 0.0
C587 C 0.06099 0.76094 0.62125 0.0
C588 C 0.9602 0.76119 0.61846 0.0
C589 C 0.00754 0.74787 0.62825 0.0
C590 C 0.93356 0.7543 0.61558 0.0
C591 C 0.92548 0.72836 0.62404 0.0
C592 C 0.97893 0.74185 0.62888 0.0
C593 C 0.94472 0.70991 0.63614 0.0
C594 C 0.02617 0.72807 0.61975 0.0
C595 C 0.04186 0.77996 0.63139 0.0
N596 N 0.97059 0.71691 0.63762 0.0
N597 N 0.01597 0.77313 0.634 0.0
H598 H 0.93978 0.2995 0.89193 0.0
H599 H 0.05352 0.19075 0.89089 0.0
H600 H 0.02063 0.31783 0.8609 0.0
H601 H 0.97252 0.17257 0.86071 0.0
H602 H 0.04164 0.23741 0.89714 0.0
H603 H 0.95174 0.25286 0.89774 0.0
C604 C 0.96013 0.29379 0.88695 0.0
C605 C 0.97924 0.31259 0.87572 0.0
C606 C 0.02647 0.22313 0.88955 0.0
C607 C 0.99297 0.2593 0.88259 0.0
C608 C 0.03316 0.19649 0.88622 0.0
C609 C 0.01398 0.17774 0.87509 0.0
C610 C 0.00034 0.23103 0.88245 0.0
C611 C 0.98794 0.18638 0.86915 0.0
C612 C 0.96687 0.26716 0.89004 0.0
C613 C 0.00526 0.30399 0.86942 0.0
N614 N 0.98187 0.21241 0.87293 0.0
N615 N 0.01138 0.27795 0.87296 0.0
H616 H 0.54763 0.80498 0.85096 0.0
H617 H 0.43923 0.69081 0.84494 0.0
H618 H 0.56568 0.72347 0.87754 0.0
H619 H 0.42036 0.77102 0.87937 0.0
H620 H 0.48574 0.70324 0.83941 0.0
H621 H 0.50091 0.7932 0.84429 0.0
C622 C 0.54183 0.78455 0.8548 0.0
C623 C 0.56055 0.76517 0.865 0.0
C624 C 0.47135 0.71813 0.84778 0.0
C625 C 0.50728 0.75164 0.85706 0.0
C626 C 0.44479 0.71114 0.85069 0.0
C627 C 0.42588 0.7299 0.86286 0.0
C628 C 0.47904 0.74417 0.85638 0.0
C629 C 0.43429 0.7559 0.87012 0.0
C630 C 0.51518 0.77791 0.85121 0.0
C631 C 0.55188 0.73905 0.86987 0.0
N632 N 0.46028 0.76229 0.86679 0.0
N633 N 0.52587 0.73303 0.8658 0.0
H634 H 0.49963 0.31152 0.68324 0.0
H635 H 0.525 0.18252 0.5579 0.0
H636 H 0.46192 0.30688 0.56163 0.0
H637 H 0.48865 0.17895 0.68064 0.0
H638 H 0.51405 0.22996 0.55447 0.0
H639 H 0.50954 0.26431 0.67902 0.0
C640 C 0.49386 0.30068 0.65531 0.0
C641 C 0.47991 0.31308 0.62272 0.0
C642 C 0.50832 0.21854 0.5818 0.0
C643 C 0.49153 0.25936 0.61765 0.0
C644 C 0.51453 0.19164 0.58383 0.0
C645 C 0.50757 0.17683 0.61951 0.0
C646 C 0.49601 0.23065 0.6163 0.0
C647 C 0.49416 0.18957 0.6524 0.0
C648 C 0.49936 0.2738 0.65313 0.0
C649 C 0.47265 0.29797 0.58744 0.0
N650 N 0.48924 0.21586 0.65034 0.0
N651 N 0.4787 0.2718 0.58564 0.0
H652 H 0.9223 0.26918 0.37549 0.0
H653 H 0.06968 0.21914 0.38172 0.0
H654 H 0.94188 0.18744 0.35395 0.0
H655 H 0.04981 0.29864 0.34498 0.0
H656 H 0.02306 0.20691 0.37518 0.0
H657 H 0.969 0.2806 0.36799 0.0
C658 C 0.93639 0.25368 0.36875 0.0
C659 C 0.9282 0.22732 0.36538 0.0
C660 C 0.029 0.22693 0.36804 0.0
C661 C 0.98167 0.24019 0.35757 0.0
C662 C 0.05557 0.23394 0.37182 0.0
C663 C 0.06365 0.25997 0.36397 0.0
C664 C 0.01031 0.24622 0.35723 0.0
C665 C 0.0445 0.27834 0.35126 0.0
C666 C 0.96302 0.26021 0.3644 0.0
C667 C 0.94732 0.20802 0.35664 0.0
N668 N 0.01868 0.27121 0.34888 0.0
N669 N 0.97323 0.21478 0.35364 0.0
H670 H 0.05359 0.69167 0.1024 0.0
H671 H 0.93985 0.80033 0.09356 0.0
H672 H 0.97193 0.67377 0.12803 0.0
H673 H 0.01963 0.81907 0.13045 0.0
H674 H 0.95222 0.75377 0.08841 0.0
H675 H 0.04196 0.7384 0.09541 0.0
C676 C 0.03316 0.6975 0.10598 0.0
C677 C 0.01369 0.67881 0.11598 0.0
C678 C 0.96705 0.76815 0.09719 0.0
C679 C 0.00033 0.73212 0.10763 0.0
C680 C 0.96009 0.79475 0.09986 0.0
C681 C 0.97873 0.81363 0.11264 0.0
C682 C 0.99293 0.7604 0.10664 0.0
C683 C 0.00462 0.80516 0.12068 0.0
C684 C 0.02661 0.72417 0.1022 0.0
C685 C 0.98757 0.68753 0.12051 0.0
N686 N 0.01096 0.77915 0.11756 0.0
N687 N 0.98163 0.71356 0.11623 0.0
H688 H 0.17581 0.14983 0.90106 0.0
H689 H 0.27412 0.14287 0.09593 0.0
H690 H 0.15433 0.11069 0.01669 0.0
H691 H 0.27764 0.20302 -0.00017 0.0
H692 H 0.23269 0.12685 0.06509 0.0
H693 H 0.21637 0.16519 0.93419 0.0
C694 C 0.17979 0.14433 0.9334 0.0
C695 C 0.16186 0.12889 0.9562 0.0
C696 C 0.24255 0.14362 0.05103 0.0
C697 C 0.20808 0.14653 0.99438 0.0
C698 C 0.26616 0.15271 0.06846 0.0
C699 C 0.2793 0.17428 0.05036 0.0
C700 C 0.23239 0.15598 0.01498 0.0
C701 C 0.26815 0.18637 0.01488 0.0
C702 C 0.2028 0.15326 0.95239 0.0
C703 C 0.1677 0.12265 -0.00179 0.0
N704 N 0.24544 0.17694 -0.00179 0.0
N705 N 0.19048 0.13139 0.016 0.0
H706 H 0.65104 0.42665 0.21378 0.0
H707 H 0.52752 0.51015 0.28741 0.0
H708 H 0.57396 0.39234 0.23157 0.0
H709 H 0.60709 0.53344 0.31846 0.0
H710 H 0.54423 0.4678 0.26232 0.0
H711 H 0.63556 0.46715 0.24816 0.0
C712 C 0.63094 0.42764 0.22523 0.0
C713 C 0.6137 0.40626 0.21991 0.0
C714 C 0.558 0.4821 0.27492 0.0
C715 C 0.59589 0.45229 0.25857 0.0
C716 C 0.54851 0.5063 0.28902 0.0
C717 C 0.56599 0.5253 0.30485 0.0
C718 C 0.5852 0.47707 0.27598 0.0
C719 C 0.59297 0.51927 0.30649 0.0
C720 C 0.62217 0.45062 0.24493 0.0
C721 C 0.5879 0.40836 0.2354 0.0
N722 N 0.60183 0.49571 0.29178 0.0
N723 N 0.57966 0.43111 0.25363 0.0
H724 H 0.3476 0.82011 0.48101 0.0
H725 H 0.20514 0.85654 0.57051 0.0
H726 H 0.31312 0.89737 0.46663 0.0
H727 H 0.22818 0.7774 0.53615 0.0
H728 H 0.24803 0.87263 0.5459 0.0
H729 H 0.30716 0.80508 0.51555 0.0
C730 C 0.33162 0.83398 0.48571 0.0
C731 C 0.33355 0.85996 0.47091 0.0
C732 C 0.24366 0.85175 0.54396 0.0
C733 C 0.28741 0.84294 0.51005 0.0
C734 C 0.21929 0.84255 0.55807 0.0
C735 C 0.2131 0.81563 0.55504 0.0
C736 C 0.26202 0.83383 0.52739 0.0
C737 C 0.2321 0.79834 0.53867 0.0
C738 C 0.30854 0.82536 0.50508 0.0
C739 C 0.31222 0.87711 0.4773 0.0
N740 N 0.25575 0.80774 0.52549 0.0
N741 N 0.28995 0.86828 0.49644 0.0
H742 H 0.84021 0.56481 0.72375 0.0
H743 H 0.96427 0.4796 0.78927 0.0
H744 H 0.91817 0.5981 0.73568 0.0
H745 H 0.88497 0.45732 0.82385 0.0
H746 H 0.94772 0.52245 0.76601 0.0
H747 H 0.85598 0.52436 0.75766 0.0
C748 C 0.86058 0.56362 0.7339 0.0
C749 C 0.87798 0.58466 0.72694 0.0
C750 C 0.93399 0.50824 0.77899 0.0
C751 C 0.89615 0.53864 0.76501 0.0
C752 C 0.94338 0.48376 0.79202 0.0
C753 C 0.92591 0.4649 0.80826 0.0
C754 C 0.9069 0.51368 0.78159 0.0
C755 C 0.89908 0.47135 0.81146 0.0
C756 C 0.86952 0.54066 0.75331 0.0
C757 C 0.90413 0.58232 0.74078 0.0
N758 N 0.89032 0.49515 0.7978 0.0
N759 N 0.91253 0.55955 0.75872 0.0
H760 H 0.71639 0.8502 0.89256 0.0
H761 H 0.82043 0.83281 0.07655 0.0
H762 H 0.71983 0.78157 0.97296 0.0
H763 H 0.83745 0.88182 0.96897 0.0
H764 H 0.78082 0.81679 0.04133 0.0
H765 H 0.75879 0.8649 0.92171 0.0
C766 C 0.7261 0.83817 0.91608 0.0
C767 C 0.71449 0.81474 0.93062 0.0
C768 C 0.79323 0.83097 0.02527 0.0
C769 C 0.76251 0.83149 0.96407 0.0
C770 C 0.81568 0.84023 0.04547 0.0
C771 C 0.83196 0.85873 0.02561 0.0
C772 C 0.78681 0.84053 0.98512 0.0
C773 C 0.82526 0.86752 0.98514 0.0
C774 C 0.75026 0.84653 0.93255 0.0
C775 C 0.72795 0.79983 0.96096 0.0
N776 N 0.80293 0.85849 0.96622 0.0
N777 N 0.7511 0.8086 0.97695 0.0
H778 H 0.41739 0.60029 0.75282 0.0
H779 H 0.38204 0.45605 0.66887 0.0
H780 H 0.3412 0.56435 0.77228 0.0
H781 H 0.4613 0.48184 0.69687 0.0
H782 H 0.36542 0.49895 0.69282 0.0
H783 H 0.43227 0.56011 0.71746 0.0
C784 C 0.40369 0.58405 0.74907 0.0
C785 C 0.37809 0.58549 0.76558 0.0
C786 C 0.38644 0.49517 0.69346 0.0
C787 C 0.39498 0.53959 0.72552 0.0
C788 C 0.39593 0.47081 0.67972 0.0
C789 C 0.42304 0.46539 0.68128 0.0
C790 C 0.40427 0.51426 0.70815 0.0
C791 C 0.44022 0.48515 0.69557 0.0
C792 C 0.41224 0.56111 0.7292 0.0
C793 C 0.36119 0.56382 0.76033 0.0
N794 N 0.43053 0.50874 0.70846 0.0
N795 N 0.36996 0.54167 0.74075 0.0
H796 H 0.66814 0.15768 0.58297 0.0
H797 H 0.77153 0.14468 0.39603 0.0
H798 H 0.65021 0.11395 0.46998 0.0
H799 H 0.77286 0.20776 0.48751 0.0
H800 H 0.72882 0.13033 0.42431 0.0
H801 H 0.70877 0.1734 0.5504 0.0
C802 C 0.67287 0.15137 0.55125 0.0
C803 C 0.65602 0.1344 0.52913 0.0
C804 C 0.73847 0.1474 0.43789 0.0
C805 C 0.70239 0.15227 0.49165 0.0
C806 C 0.76283 0.15553 0.42194 0.0
C807 C 0.77578 0.17738 0.43958 0.0
C808 C 0.7273 0.16102 0.47201 0.0
C809 C 0.7636 0.19081 0.47295 0.0
C810 C 0.69594 0.16045 0.53259 0.0
C811 C 0.66278 0.12706 0.48793 0.0
N812 N 0.74015 0.18228 0.48827 0.0
N813 N 0.68567 0.13587 0.47053 0.0
H814 H 0.08336 0.41991 0.32916 0.0
H815 H 0.09854 0.52261 0.14263 0.0
H816 H 0.13007 0.4016 0.21947 0.0
H817 H 0.03106 0.52006 0.22558 0.0
H818 H 0.11352 0.48042 0.17219 0.0
H819 H 0.06734 0.45961 0.29419 0.0
C820 C 0.0903 0.4244 0.29769 0.0
C821 C 0.10812 0.40769 0.27714 0.0
C822 C 0.09534 0.4891 0.18351 0.0
C823 C 0.08991 0.45295 0.23693 0.0
C824 C 0.08683 0.51314 0.16681 0.0
C825 C 0.06362 0.52492 0.18189 0.0
C826 C 0.08072 0.47717 0.21584 0.0
C827 C 0.04913 0.51179 0.21311 0.0
C828 C 0.08103 0.4469 0.27764 0.0
C829 C 0.11628 0.41409 0.23619 0.0
N830 N 0.05805 0.48876 0.22931 0.0
N831 N 0.10726 0.43645 0.21742 0.0
H832 H 0.67431 0.5856 0.46628 0.0
H833 H 0.78234 0.62994 0.5828 0.0
H834 H 0.64289 0.66357 0.48741 0.0
H835 H 0.75993 0.70589 0.53276 0.0
H836 H 0.74017 0.6119 0.55898 0.0
H837 H 0.71523 0.59896 0.5011 0.0
C838 C 0.67595 0.60541 0.47884 0.0
C839 C 0.65528 0.62353 0.47412 0.0
C840 C 0.74461 0.63243 0.55289 0.0
C841 C 0.70172 0.63886 0.51425 0.0
C842 C 0.76856 0.6428 0.56677 0.0
C843 C 0.77475 0.66938 0.55925 0.0
C844 C 0.72676 0.64882 0.53155 0.0
C845 C 0.75609 0.68522 0.53872 0.0
C846 C 0.69917 0.61294 0.49908 0.0
C847 C 0.6583 0.64895 0.49086 0.0
N848 N 0.73289 0.67469 0.52563 0.0
N849 N 0.68127 0.65599 0.50968 0.0
H850 H 0.10658 0.03234 0.82789 0.0
H851 H 0.14998 0.92483 0.71074 0.0
H852 H 0.03055 0.01276 0.77502 0.0
H853 H 0.07121 0.89456 0.72828 0.0
H854 H 0.13665 0.96601 0.74466 0.0
H855 H 0.12367 0.99015 0.80299 0.0
C856 C 0.09349 0.01919 0.81093 0.0
C857 C 0.06717 0.02618 0.80305 0.0
C858 C 0.12244 0.95016 0.74202 0.0
C859 C 0.08674 0.97814 0.77391 0.0
C860 C 0.12997 0.92681 0.72227 0.0
C861 C 0.11166 0.90636 0.71692 0.0
C862 C 0.09635 0.95308 0.75616 0.0
C863 C 0.08597 0.9098 0.73231 0.0
C864 C 0.10335 -0.00478 0.79641 0.0
C865 C 0.05104 0.00827 0.78135 0.0
N866 N 0.07896 0.9329 0.75081 0.0
N867 N 0.0611 0.985 0.76755 0.0
H868 H 0.72894 0.27749 0.03401 0.0
H869 H 0.81501 0.40049 0.96505 0.0
H870 H 0.70715 0.35716 0.06725 0.0
H871 H 0.84757 0.32242 0.97967 0.0
H872 H 0.77408 0.38529 -0.00166 0.0
H873 H 0.7715 0.29373 0.00912 0.0
C874 C 0.73314 0.29841 0.03609 0.0
C875 C 0.71452 0.31605 0.05254 0.0
C876 C 0.79032 0.3716 0.99465 0.0
C877 C 0.76302 0.33472 0.02398 0.0
C878 C 0.81354 0.38022 0.97557 0.0
C879 C 0.83455 0.36263 0.96968 0.0
C880 C 0.78803 0.34514 0.00709 0.0
C881 C 0.83185 0.33662 0.98398 0.0
C882 C 0.75747 0.30763 0.02212 0.0
C883 C 0.72101 0.34292 0.05478 0.0
N884 N 0.80886 0.32856 0.00164 0.0
N885 N 0.7447 0.35152 0.04025 0.0
H886 H 0.38092 0.95552 0.31997 0.0
H887 H 0.41858 0.09835 0.23348 0.0
H888 H 0.46024 0.9783 0.28631 0.0
H889 H 0.34111 0.06455 0.21756 0.0
H890 H 0.43316 0.05752 0.26721 0.0
H891 H 0.36513 -0.00138 0.29575 0.0
C892 C 0.39501 0.96965 0.30772 0.0
C893 C 0.42189 0.96335 0.30482 0.0
C894 C 0.41292 0.05913 0.25658 0.0
C895 C 0.40405 0.01248 0.27769 0.0
C896 C 0.40456 0.08244 0.23769 0.0
C897 C 0.37865 0.08468 0.22269 0.0
C898 C 0.39517 0.03807 0.26087 0.0
C899 C 0.36132 0.06342 0.22842 0.0
C900 C 0.38598 0.99413 0.29385 0.0
C901 C 0.43932 0.98231 0.28872 0.0
N902 N 0.3699 0.04091 0.2471 0.0
N903 N 0.43009 0.00608 0.27582 0.0
H904 H 0.20645 0.35792 0.41265 0.0
H905 H 0.31501 0.40129 0.52834 0.0
H906 H 0.22769 0.28161 0.4626 0.0
H907 H 0.3454 0.3228 0.50842 0.0
H908 H 0.27371 0.38813 0.49463 0.0
H909 H 0.24864 0.37542 0.43717 0.0
C910 C 0.21996 0.34487 0.42889 0.0
C911 C 0.21345 0.31834 0.43604 0.0
C912 C 0.28961 0.37395 0.49669 0.0
C913 C 0.2615 0.33831 0.46466 0.0
C914 C 0.31305 0.38138 0.51632 0.0
C915 C 0.33357 0.36309 0.52101 0.0
C916 C 0.28667 0.34797 0.48201 0.0
C917 C 0.33012 0.33755 0.50496 0.0
C918 C 0.24393 0.35494 0.44318 0.0
C919 C 0.23179 0.30226 0.45686 0.0
N920 N 0.30694 0.33063 0.48663 0.0
N921 N 0.25503 0.3125 0.47037 0.0
H922 H 0.83632 0.06293 0.28373 0.0
H923 H 0.88039 0.95493 0.16669 0.0
H924 H 0.91478 0.09349 0.26405 0.0
H925 H 0.95663 0.97639 0.21679 0.0
H926 H 0.86251 -0.00344 0.19291 0.0
H927 H 0.84972 0.02145 0.25065 0.0
C928 C 0.85627 0.06096 0.27196 0.0
C929 C 0.87446 0.08162 0.27637 0.0
C930 C 0.88305 0.992 0.19861 0.0
C931 C 0.88984 0.03455 0.23813 0.0
C932 C 0.89334 0.96836 0.18333 0.0
C933 C 0.91998 0.96211 0.18993 0.0
C934 C 0.89959 0.0095 0.22047 0.0
C935 C 0.93592 0.98032 0.21138 0.0
C936 C 0.86384 0.03742 0.25269 0.0
C937 C 0.90008 0.07813 0.26071 0.0
N938 N 0.92547 0.00326 0.22577 0.0
N939 N 0.90711 0.0549 0.24268 0.0
H940 H 0.17532 0.5888 0.02132 0.0
H941 H 0.26031 0.7121 0.95062 0.0
H942 H 0.14248 0.66678 0.00689 0.0
H943 H 0.28306 0.63242 0.91913 0.0
H944 H 0.21778 0.69565 0.97515 0.0
H945 H 0.21592 0.604 0.98703 0.0
C946 C 0.17664 0.60905 0.01062 0.0
C947 C 0.15566 0.62662 0.01692 0.0
C948 C 0.232 0.68178 0.9626 0.0
C949 C 0.20181 0.6441 0.97832 0.0
C950 C 0.25631 0.69113 0.94883 0.0
C951 C 0.27522 0.67355 0.93305 0.0
C952 C 0.22673 0.65462 0.96122 0.0
C953 C 0.26897 0.64661 0.93111 0.0
C954 C 0.19968 0.61766 0.99096 0.0
C955 C 0.15817 0.65258 0.00231 0.0
N956 N 0.24529 0.63789 0.94548 0.0
N957 N 0.18098 0.66064 0.98409 0.0
H958 H 0.52721 0.00934 0.69583 0.0
H959 H 0.65105 0.92692 0.77079 0.0
H960 H 0.60683 0.03518 0.67077 0.0
H961 H 0.57406 0.89258 0.75193 0.0
H962 H 0.63576 0.96734 0.73612 0.0
H963 H 0.5443 0.96684 0.71898 0.0
C964 C 0.54832 0.00602 0.69513 0.0
C965 C 0.56568 0.0258 0.68167 0.0
C966 C 0.62237 0.9508 0.73912 0.0
C967 C 0.58536 0.9773 0.70828 0.0
C968 C 0.63102 0.92786 0.75902 0.0
C969 C 0.61372 0.90651 0.76428 0.0
C970 C 0.59615 0.95245 0.72516 0.0
C971 C 0.58806 0.90854 0.74822 0.0
C972 C 0.55804 0.98171 0.7081 0.0
C973 C 0.59281 0.0204 0.681 0.0
N974 N 0.57994 0.93124 0.72981 0.0
N975 N 0.60189 -0.00332 0.69463 0.0
H976 H 0.39098 0.12485 0.01837 0.0
H977 H 0.42298 0.1429 0.77359 0.0
H978 H 0.38279 0.19798 0.94991 0.0
H979 H 0.43609 0.06982 0.84021 0.0
H980 H 0.4031 0.16139 0.83656 0.0
H981 H 0.40433 0.103 0.95289 0.0
C982 C 0.39213 0.13634 0.98968 0.0
C983 C 0.38593 0.16332 0.98968 0.0
C984 C 0.41007 0.1412 0.83739 0.0
C985 C 0.40077 0.13841 0.91475 0.0
C986 C 0.42112 0.13045 0.80112 0.0
C987 C 0.43142 0.10475 0.80154 0.0
C988 C 0.4094 0.12629 0.87459 0.0
C989 C 0.42882 0.08986 0.83864 0.0
C990 C 0.3996 0.12382 0.95231 0.0
C991 C 0.38754 0.17719 0.95154 0.0
N992 N 0.41832 0.10095 0.87386 0.0
N993 N 0.39479 0.16458 0.9157 0.0
H994 H 0.55252 0.61217 0.19448 0.0
H995 H 0.64348 0.7216 0.10096 0.0
H996 H 0.60728 0.6549 0.2732 0.0
H997 H 0.62446 0.65197 0.02809 0.0
H998 H 0.62819 0.69942 0.16382 0.0
H999 H 0.57539 0.62891 0.1321 0.0
C1000 C 0.56932 0.62513 0.1986 0.0
C1001 C 0.57793 0.6324 0.23897 0.0
C1002 C 0.62773 0.6889 0.13412 0.0
C1003 C 0.60398 0.65153 0.16799 0.0
C1004 C 0.63673 0.70144 0.09797 0.0
C1005 C 0.63544 0.68874 0.05857 0.0
C1006 C 0.61663 0.66371 0.13102 0.0
C1007 C 0.62543 0.66286 0.05734 0.0
C1008 C 0.58247 0.63442 0.16306 0.0
C1009 C 0.59999 0.64893 0.2426 0.0
N1010 N 0.61602 0.65134 0.09296 0.0
N1011 N 0.61209 0.65825 0.20746 0.0
H1012 H 0.06832 0.84688 0.26947 0.0
H1013 H 0.09951 0.86384 0.51436 0.0
H1014 H 0.0528 0.91864 0.33852 0.0
H1015 H 0.11347 0.7924 0.4436 0.0
H1016 H 0.08601 0.88581 0.44927 0.0
H1017 H 0.09028 0.82889 0.33111 0.0
C1018 C 0.07009 0.85917 0.29723 0.0
C1019 C 0.05843 0.88426 0.29887 0.0
C1020 C 0.0921 0.86535 0.44802 0.0
C1021 C 0.08286 0.86332 0.37025 0.0
C1022 C 0.09965 0.85276 0.48519 0.0
C1023 C 0.10738 0.82618 0.48447 0.0
C1024 C 0.09229 0.85125 0.40993 0.0
C1025 C 0.10744 0.81285 0.44573 0.0
C1026 C 0.08237 0.84871 0.3327 0.0
C1027 C 0.06106 0.89901 0.33611 0.0
N1028 N 0.09994 0.82551 0.41007 0.0
N1029 N 0.07271 0.88819 0.37053 0.0
H1030 H 0.89759 0.31894 0.52175 0.0
H1031 H 0.87704 0.35191 0.7655 0.0
H1032 H 0.82386 0.30682 0.587 0.0
H1033 H 0.94996 0.36401 0.69789 0.0
H1034 H 0.85596 0.33852 0.69952 0.0
H1035 H 0.91524 0.34039 0.5842 0.0
C1036 C 0.88484 0.32135 0.54884 0.0
C1037 C 0.85924 0.3108 0.54918 0.0
C1038 C 0.87655 0.34417 0.69917 0.0
C1039 C 0.87973 0.33465 0.62152 0.0
C1040 C 0.88864 0.35165 0.73685 0.0
C1041 C 0.91536 0.35886 0.73728 0.0
C1042 C 0.89132 0.3439 0.66172 0.0
C1043 C 0.92937 0.35842 0.69916 0.0
C1044 C 0.89509 0.33333 0.58478 0.0
C1045 C 0.84387 0.31421 0.5856 0.0
N1046 N 0.91719 0.35101 0.663 0.0
N1047 N 0.85446 0.32555 0.6205 0.0
H1048 H 0.61689 0.79444 0.04175 0.0
H1049 H 0.55038 0.92041 0.14926 0.0
H1050 H 0.59959 0.86612 0.97373 0.0
H1051 H 0.56698 0.84726 0.21359 0.0
H1052 H 0.5726 0.90314 0.08662 0.0
H1053 H 0.60235 0.81548 0.10646 0.0
C1054 C 0.60996 0.81463 0.04037 0.0
C1055 C 0.60921 0.82845 0.00211 0.0
C1056 C 0.57167 0.89105 0.11467 0.0
C1057 C 0.59257 0.8528 0.07653 0.0
C1058 C 0.55899 0.90088 0.15045 0.0
C1059 C 0.55656 0.88519 0.18672 0.0
C1060 C 0.58192 0.86532 0.11516 0.0
C1061 C 0.56849 0.86021 0.18663 0.0
C1062 C 0.60176 0.8267 0.07747 0.0
C1063 C 0.60031 0.85467 0.00247 0.0
N1064 N 0.58037 0.85098 0.1513 0.0
N1065 N 0.59218 0.86598 0.03912 0.0
H1066 H 0.37638 0.34942 0.72479 0.0
H1067 H 0.39454 0.32159 0.97037 0.0
H1068 H 0.44617 0.36924 0.79611 0.0
H1069 H 0.32332 0.30255 0.9022 0.0
H1070 H 0.41124 0.34419 0.90841 0.0
H1071 H 0.35484 0.33559 0.7902 0.0
C1072 C 0.38718 0.35081 0.75414 0.0
C1073 C 0.4132 0.36024 0.75493 0.0
C1074 C 0.39181 0.33535 0.90707 0.0
C1075 C 0.38863 0.34478 0.82975 0.0
C1076 C 0.38208 0.32269 0.94273 0.0
C1077 C 0.35757 0.30985 0.94143 0.0
C1078 C 0.37708 0.33501 0.86964 0.0
C1079 C 0.34257 0.31169 0.90434 0.0
C1080 C 0.37483 0.34307 0.79147 0.0
C1081 C 0.42617 0.36188 0.79389 0.0
N1082 N 0.35271 0.3237 0.8697 0.0
N1083 N 0.41379 0.35414 0.82964 0.0
H1084 H 0.92324 0.14642 0.72068 0.0
H1085 H 0.88704 0.1258 0.47805 0.0
H1086 H 0.93368 0.0724 0.6554 0.0
H1087 H 0.87896 0.19959 0.54488 0.0
H1088 H 0.90062 0.10461 0.5438 0.0
H1089 H 0.90174 0.16436 0.65857 0.0
C1090 C 0.92045 0.13367 0.69367 0.0
C1091 C 0.93052 0.10788 0.69323 0.0
C1092 C 0.89582 0.12543 0.54403 0.0
C1093 C 0.90662 0.1287 0.62124 0.0
C1094 C 0.88821 0.13756 0.50648 0.0
C1095 C 0.88208 0.16455 0.50589 0.0
C1096 C 0.89726 0.1404 0.5812 0.0
C1097 C 0.8837 0.17878 0.54374 0.0
C1098 C 0.90845 0.14408 0.65791 0.0
C1099 C 0.92665 0.09254 0.65688 0.0
N1100 N 0.89118 0.16654 0.57978 0.0
N1101 N 0.91528 0.10328 0.62215 0.0
H1102 H 0.17025 0.68554 0.40095 0.0
H1103 H 0.0427 0.62268 0.29269 0.0
H1104 H 0.09661 0.67071 0.46503 0.0
H1105 H 0.11485 0.63855 0.22496 0.0
H1106 H 0.06407 0.63634 0.35763 0.0
H1107 H 0.15253 0.66377 0.33822 0.0
C1108 C 0.15052 0.67738 0.40207 0.0
C1109 C 0.13482 0.68023 0.43826 0.0
C1110 C 0.07532 0.63681 0.32865 0.0
C1111 C 0.11443 0.65543 0.3666 0.0
C1112 C 0.06306 0.62913 0.29142 0.0
C1113 C 0.07694 0.62973 0.25319 0.0
C1114 C 0.10166 0.64532 0.32785 0.0
C1115 C 0.10337 0.63799 0.25368 0.0
C1116 C 0.14043 0.66498 0.36624 0.0
C1117 C 0.10956 0.66887 0.43811 0.0
N1118 N 0.11486 0.64561 0.29045 0.0
N1119 N 0.10008 0.65727 0.40271 0.0
H1120 H 0.86035 0.68485 0.44676 0.0
H1121 H 0.97041 0.59503 0.35204 0.0
H1122 H 0.90443 0.63108 0.52515 0.0
H1123 H 0.90056 0.61394 0.27984 0.0
H1124 H 0.94829 0.60995 0.41523 0.0
H1125 H 0.87699 0.66204 0.38429 0.0
C1126 C 0.87358 0.66826 0.45079 0.0
C1127 C 0.88127 0.65994 0.4911 0.0
C1128 C 0.9377 0.61046 0.38562 0.0
C1129 C 0.9003 0.63394 0.41996 0.0
C1130 C 0.95021 0.60168 0.34927 0.0
C1131 C 0.93743 0.60306 0.30996 0.0
C1132 C 0.91245 0.62141 0.38281 0.0
C1133 C 0.91151 0.61291 0.30901 0.0
C1134 C 0.88282 0.65514 0.41519 0.0
C1135 C 0.89814 0.63815 0.4946 0.0
N1136 N 0.90001 0.6221 0.34482 0.0
N1137 N 0.9074 0.62608 0.45937 0.0
H1138 H 0.0415 0.12581 0.69438 0.0
H1139 H 0.17084 0.18542 0.58654 0.0
H1140 H 0.11399 0.14025 0.76202 0.0
H1141 H 0.097 0.17276 0.52191 0.0
H1142 H 0.15225 0.16439 0.64921 0.0
H1143 H 0.06307 0.13943 0.62947 0.0
C1144 C 0.06195 0.13197 0.69564 0.0
C1145 C 0.0759 0.13212 0.7338 0.0
C1146 C 0.14026 0.16591 0.62109 0.0
C1147 C 0.10084 0.14755 0.65928 0.0
C1148 C 0.15087 0.17786 0.5853 0.0
C1149 C 0.13539 0.18109 0.54899 0.0
C1150 C 0.11397 0.15722 0.62058 0.0
C1151 C 0.10978 0.17057 0.54897 0.0
C1152 C 0.07431 0.13961 0.65845 0.0
C1153 C 0.10243 0.14004 0.73336 0.0
N1154 N 0.09979 0.1594 0.58435 0.0
N1155 N 0.11403 0.14754 0.69667 0.0
H1156 H 0.55278 0.42111 0.84073 0.0
H1157 H 0.61213 0.29124 0.9474 0.0
H1158 H 0.56475 0.34718 0.77586 0.0
H1159 H 0.59959 0.36397 0.01544 0.0
H1160 H 0.59751 0.31278 0.88311 0.0
H1161 H 0.57346 0.40219 0.90347 0.0
C1162 C 0.56007 0.40104 0.83946 0.0
C1163 C 0.55685 0.38568 0.80297 0.0
C1164 C 0.59794 0.32409 0.91204 0.0
C1165 C 0.58035 0.3639 0.87464 0.0
C1166 C 0.60617 0.31175 0.94889 0.0
C1167 C 0.6069 0.32578 0.98697 0.0
C1168 C 0.59029 0.3507 0.91311 0.0
C1169 C 0.59915 0.35237 0.98682 0.0
C1170 C 0.57184 0.39026 0.87529 0.0
C1171 C 0.567 0.35992 0.80298 0.0
N1172 N 0.59109 0.36397 0.95043 0.0
N1173 N 0.57802 0.34979 0.83835 0.0
H1174 H 0.39175 0.81864 0.02021 0.0
H1175 H 0.37362 0.84892 0.26544 0.0
H1176 H 0.31965 0.80244 0.08788 0.0
H1177 H 0.44536 0.86276 0.1955 0.0
H1178 H 0.352 0.83512 0.20005 0.0
H1179 H 0.40947 0.83989 0.08267 0.0
C1180 C 0.37934 0.82009 0.04786 0.0
C1181 C 0.3542 0.8085 0.04877 0.0
C1182 C 0.37245 0.84123 0.19909 0.0
C1183 C 0.37486 0.83211 0.12119 0.0
C1184 C 0.38484 0.84896 0.23641 0.0
C1185 C 0.4114 0.85679 0.236 0.0
C1186 C 0.38673 0.8414 0.16117 0.0
C1187 C 0.42492 0.8567 0.19744 0.0
C1188 C 0.38966 0.83196 0.08382 0.0
C1189 C 0.33932 0.81068 0.08596 0.0
N1190 N 0.41245 0.84909 0.16166 0.0
N1191 N 0.34999 0.82195 0.12087 0.0
H1192 H 0.09905 0.36311 0.47481 0.0
H1193 H 0.06787 0.34448 0.71954 0.0
H1194 H 0.11261 0.29104 0.54393 0.0
H1195 H 0.0551 0.41771 0.65318 0.0
H1196 H 0.08849 0.32628 0.65686 0.0
H1197 H 0.08533 0.38452 0.54035 0.0
C1198 C 0.09901 0.35176 0.50369 0.0
C1199 C 0.1068 0.32519 0.50384 0.0
C1200 C 0.08146 0.34644 0.65607 0.0
C1201 C 0.09147 0.34962 0.5789 0.0
C1202 C 0.06995 0.35701 0.69214 0.0
C1203 C 0.05951 0.38266 0.69165 0.0
C1204 C 0.0824 0.3615 0.61901 0.0
C1205 C 0.06244 0.39769 0.65477 0.0
C1206 C 0.09134 0.36403 0.54112 0.0
C1207 C 0.10661 0.3115 0.54223 0.0
N1208 N 0.07334 0.38678 0.61976 0.0
N1209 N 0.09903 0.32386 0.57814 0.0
H1210 H 0.87596 0.84578 0.22178 0.0
H1211 H 0.8925 0.81334 0.46662 0.0
H1212 H 0.94695 0.86014 0.29339 0.0
H1213 H 0.82101 0.79733 0.39718 0.0
H1214 H 0.91089 0.83452 0.40464 0.0
H1215 H 0.85431 0.83035 0.28613 0.0
C1216 C 0.88703 0.84557 0.25095 0.0
C1217 C 0.91336 0.8541 0.25215 0.0
C1218 C 0.89107 0.82662 0.40298 0.0
C1219 C 0.88864 0.83681 0.32584 0.0
C1220 C 0.88037 0.81478 0.43865 0.0
C1221 C 0.85515 0.80338 0.43719 0.0
C1222 C 0.87659 0.82696 0.36533 0.0
C1223 C 0.84069 0.80548 0.39958 0.0
C1224 C 0.87461 0.8369 0.28769 0.0
C1225 C 0.92668 0.85361 0.29088 0.0
N1226 N 0.85171 0.8168 0.365 0.0
N1227 N 0.91418 0.8451 0.3261 0.0
H1228 H 0.37626 0.69942 0.04073 0.0
H1229 H 0.43826 0.57122 0.14861 0.0
H1230 H 0.39088 0.62691 0.97315 0.0
H1231 H 0.42485 0.64512 0.21282 0.0
H1232 H 0.41723 0.58949 0.08571 0.0
H1233 H 0.39109 0.67835 0.10528 0.0
C1234 C 0.38271 0.67906 0.03939 0.0
C1235 C 0.38252 0.66497 0.00135 0.0
C1236 C 0.41861 0.60156 0.11377 0.0
C1237 C 0.39939 0.64059 0.07554 0.0
C1238 C 0.43059 0.59115 0.14969 0.0
C1239 C 0.43352 0.60671 0.18604 0.0
C1240 C 0.40957 0.62774 0.11417 0.0
C1241 C 0.42286 0.63226 0.1858 0.0
C1242 C 0.39107 0.66699 0.0764 0.0
C1243 C 0.39088 0.63857 0.00173 0.0
N1244 N 0.41163 0.64203 0.15032 0.0
N1245 N 0.39906 0.62723 0.03827 0.0
H1246 H 0.59466 0.17234 0.96837 0.0
H1247 H 0.61083 0.14228 0.72285 0.0
H1248 H 0.6666 0.18725 0.89955 0.0
H1249 H 0.54086 0.1244 0.79496 0.0
H1250 H 0.63267 0.15663 0.78768 0.0
H1251 H 0.57636 0.15093 0.90639 0.0
C1252 C 0.6069 0.17058 0.94057 0.0
C1253 C 0.63219 0.18184 0.9392 0.0
C1254 C 0.61256 0.1495 0.78927 0.0
C1255 C 0.61089 0.15803 0.86737 0.0
C1256 C 0.60003 0.14147 0.75225 0.0
C1257 C 0.57391 0.13233 0.75343 0.0
C1258 C 0.59884 0.14842 0.82769 0.0
C1259 C 0.56096 0.13146 0.79247 0.0
C1260 C 0.59626 0.15861 0.9049 0.0
C1261 C 0.64684 0.1793 0.90184 0.0
N1262 N 0.57353 0.13947 0.82796 0.0
N1263 N 0.63586 0.16793 0.86725 0.0
H1264 H 0.29441 0.27116 0.15321 0.0
H1265 H 0.19686 0.22005 0.33373 0.0
H1266 H 0.30935 0.20257 0.23018 0.0
H1267 H 0.18326 0.29079 0.26121 0.0
H1268 H 0.23713 0.21228 0.29359 0.0
H1269 H 0.25401 0.27922 0.19305 0.0
C1270 C 0.28952 0.25811 0.17905 0.0
C1271 C 0.30526 0.23606 0.18817 0.0
C1272 C 0.22522 0.22939 0.2862 0.0
C1273 C 0.25866 0.24479 0.23317 0.0
C1274 C 0.20202 0.23368 0.30879 0.0
C1275 C 0.18669 0.2562 0.30103 0.0
C1276 C 0.23319 0.24775 0.25562 0.0
C1277 C 0.19448 0.2732 0.26838 0.0
C1278 C 0.26626 0.26255 0.20147 0.0
C1279 C 0.29781 0.21977 0.2219 0.0
N1280 N 0.21731 0.26875 0.24715 0.0
N1281 N 0.27492 0.22432 0.24287 0.0
H1282 H 0.46927 0.54171 0.40169 0.0
H1283 H 0.52083 0.44633 0.58477 0.0
H1284 H 0.53679 0.55868 0.48006 0.0
H1285 H 0.45183 0.43016 0.5093 0.0
H1286 H 0.52818 0.48653 0.54424 0.0
H1287 H 0.46197 0.50118 0.44154 0.0
C1288 C 0.48221 0.53726 0.42787 0.0
C1289 C 0.50377 0.55361 0.43736 0.0
C1290 C 0.51157 0.47405 0.53627 0.0
C1291 C 0.49594 0.50683 0.48235 0.0
C1292 C 0.50756 0.45088 0.55907 0.0
C1293 C 0.48557 0.43488 0.55067 0.0
C1294 C 0.49348 0.48132 0.50484 0.0
C1295 C 0.46899 0.44192 0.51705 0.0
C1296 C 0.47823 0.51391 0.45027 0.0
C1297 C 0.51997 0.54666 0.47147 0.0
N1298 N 0.47314 0.46475 0.49566 0.0
N1299 N 0.51588 0.52369 0.49244 0.0
H1300 H 0.17728 0.7874 0.73062 0.0
H1301 H 0.30854 0.70146 0.75716 0.0
H1302 H 0.19618 0.7201 0.65284 0.0
H1303 H 0.28985 0.76905 0.83443 0.0
H1304 H 0.26801 0.70866 0.71743 0.0
H1305 H 0.21758 0.77989 0.77081 0.0
C1306 C 0.18959 0.77069 0.72252 0.0
C1307 C 0.18336 0.75445 0.68808 0.0
C1308 C 0.27288 0.72207 0.74283 0.0
C1309 C 0.22994 0.74616 0.73337 0.0
C1310 C 0.29621 0.71815 0.76525 0.0
C1311 C 0.3026 0.7346 0.79937 0.0
C1312 C 0.25575 0.74254 0.75461 0.0
C1313 C 0.28577 0.75586 0.80841 0.0
C1314 C 0.21279 0.7666 0.74522 0.0
C1315 C 0.20015 0.73315 0.67908 0.0
N1316 N 0.263 0.75906 0.78643 0.0
N1317 N 0.2228 0.72979 0.7013 0.0
H1318 H 0.03611 0.563 0.00528 0.0
H1319 H 0.95262 0.42979 0.98322 0.0
H1320 H 0.9697 0.54364 0.08462 0.0
H1321 H 0.02005 0.44866 0.90579 0.0
H1322 H 0.9591 0.47094 0.02175 0.0
H1323 H 0.02907 0.52217 0.96622 0.0
C1324 C 0.01966 0.55048 0.01392 0.0
C1325 C 0.00359 0.55671 0.04855 0.0
C1326 C 0.97264 0.46596 -0.00339 0.0
C1327 C -0.00412 0.50951 0.00459 0.0
C1328 C 0.96915 0.44228 0.97489 0.0
C1329 C 0.98573 0.43577 0.941 0.0
C1330 C 0.99279 0.48332 0.98432 0.0
C1331 C 0.00677 0.45282 0.93165 0.0
C1332 C 0.01586 0.52697 0.99189 0.0
C1333 C 0.9826 0.53967 0.05821 0.0
N1334 N 0.00952 0.47593 0.95288 0.0
N1335 N 0.97955 0.5167 0.03667 0.0
H1336 H 0.67622 0.78705 0.75436 0.0
H1337 H 0.80844 0.70211 0.73322 0.0
H1338 H 0.69476 0.72039 0.83359 0.0
H1339 H 0.78916 0.7676 0.65196 0.0
H1340 H 0.76752 0.70949 0.77182 0.0
H1341 H 0.7167 0.77924 0.7148 0.0
C1342 C 0.68848 0.77039 0.76287 0.0
C1343 C 0.68213 0.75447 0.7976 0.0
C1344 C 0.77235 0.72241 0.74579 0.0
C1345 C 0.72893 0.74588 0.75309 0.0
C1346 C 0.7959 0.71842 0.72402 0.0
C1347 C 0.80223 0.73417 0.6891 0.0
C1348 C 0.75494 0.74227 0.73255 0.0
C1349 C 0.78513 0.75495 0.67865 0.0
C1350 C 0.71178 0.76614 0.74054 0.0
C1351 C 0.69883 0.7332 0.80711 0.0
N1352 N 0.76214 0.75823 0.70002 0.0
N1353 N 0.72162 0.72972 0.78531 0.0
H1354 H 0.68099 0.28845 0.23083 0.0
H1355 H 0.81224 0.20266 0.25862 0.0
H1356 H 0.70058 0.22161 0.15246 0.0
H1357 H 0.79264 0.26954 0.33688 0.0
H1358 H 0.77226 0.21033 0.2177 0.0
H1359 H 0.72125 0.28109 0.27118 0.0
C1360 C 0.69348 0.27189 0.2226 0.0
C1361 C 0.6874 0.25568 0.18804 0.0
C1362 C 0.77683 0.22349 0.24356 0.0
C1363 C 0.73394 0.24757 0.23355 0.0
C1364 C 0.79983 0.21931 0.26669 0.0
C1365 C 0.80578 0.23539 0.30146 0.0
C1366 C 0.75956 0.24386 0.2553 0.0
C1367 C 0.78889 0.25662 0.31039 0.0
C1368 C 0.71664 0.26788 0.2454 0.0
C1369 C 0.70441 0.23459 0.17885 0.0
N1370 N 0.76642 0.26007 0.28775 0.0
N1371 N 0.72702 0.2313 0.20122 0.0
H1372 H 0.96957 0.04687 0.9087 0.0
H1373 H 0.01966 0.94701 0.08664 0.0
H1374 H 0.04211 0.05729 0.978 0.0
H1375 H 0.94861 0.93546 0.01391 0.0
H1376 H 0.0285 0.98725 0.04684 0.0
H1377 H 0.96049 0.00719 0.94965 0.0
C1378 C 0.98334 0.04114 0.9331 0.0
C1379 C 0.00673 0.05539 0.9397 0.0
C1380 C 0.01109 0.97579 0.03935 0.0
C1381 C -0.00326 0.00956 0.98604 0.0
C1382 C 0.00617 0.95263 0.06176 0.0
C1383 C 0.9833 0.93783 0.05374 0.0
C1384 C 0.99299 0.98427 0.00876 0.0
C1385 C 0.96648 0.94622 0.02125 0.0
C1386 C 0.97828 0.01829 0.95617 0.0
C1387 C 0.02386 0.04692 0.97172 0.0
N1388 N 0.97155 0.96898 0.00022 0.0
N1389 N 0.01864 0.02442 0.99341 0.0
H1390 H 0.4679 0.04337 0.58352 0.0
H1391 H 0.51953 0.94589 0.40295 0.0
H1392 H 0.53789 0.05771 0.50947 0.0
H1393 H 0.45005 0.93121 0.47806 0.0
H1394 H 0.52731 0.98629 0.44298 0.0
H1395 H 0.46019 0.00299 0.54344 0.0
C1396 C 0.48135 0.03836 0.55825 0.0
C1397 C 0.50366 0.05395 0.55004 0.0
C1398 C 0.5105 0.9741 0.45097 0.0
C1399 C 0.4953 0.00731 0.50472 0.0
C1400 C 0.50621 0.95083 0.42845 0.0
C1401 C 0.48402 0.93514 0.43697 0.0
C1402 C 0.49244 0.98179 0.48222 0.0
C1403 C 0.46739 0.94268 0.47026 0.0
C1404 C 0.4771 0.0151 0.53569 0.0
C1405 C 0.52046 0.04631 0.51702 0.0
N1406 N 0.47181 0.96558 0.49137 0.0
N1407 N 0.51606 0.02343 0.49586 0.0
loop_
_geom_bond_atom_site_label_1
_geom_bond_atom_site_label_2
_geom_bond_distance
_geom_bond_site_symmetry_2
_ccdc_geom_bond_type
C0 O16 1.251 . S
C0 O18 1.254 . S
N1 C2 1.333 . S
N1 C6 1.307 . S
N1 Zn7 2.020 . S
C2 N1 1.333 . S
C2 C3 1.379 . S
C2 H20 0.952 . S
C3 C2 1.379 . S
C3 C4 1.390 . S
C3 H30 0.949 . S
C4 C3 1.390 . S
C4 C5 1.357 . S
C5 C4 1.357 . S
C5 C6 1.370 . S
C5 H31 0.950 . S
C6 N1 1.307 . S
C6 C5 1.370 . S
C6 H24 0.948 . S
Zn7 N1 2.020 . S
Zn7 O16 2.039 . S
Zn7 O22 2.034 . S
Zn7 O26 2.025 . S
Zn7 O28 2.024 . S
C8 O27 1.246 . S
C8 O28 1.249 . S
N9 C10 1.307 . S
N9 C11 1.333 1_554 S
N9 Zn15 2.020 . S
C10 N9 1.307 . S
C10 C14 1.370 . S
C10 H21 0.948 . S
C11 N9 1.333 1_556 S
C11 C12 1.379 . S
C11 H19 0.952 . S
C12 C11 1.379 . S
C12 C13 1.390 . S
C12 H32 0.949 . S
C13 C12 1.390 . S
C13 C14 1.357 1_556 S
C14 C10 1.370 . S
C14 C13 1.357 1_554 S
C14 H33 0.950 . S
Zn15 N9 2.020 . S
Zn15 O18 2.025 . S
Zn15 O23 2.024 . S
Zn15 O25 2.039 . S
Zn15 O27 2.034 . S
O16 C0 1.251 . S
O16 Zn7 2.039 . S
C17 O22 1.246 . S
C17 O23 1.249 . S
O18 C0 1.254 . S
O18 Zn15 2.025 . S
H19 C11 0.952 . S
H20 C2 0.952 . S
H21 C10 0.948 . S
O22 Zn7 2.034 . S
O22 C17 1.246 . S
O23 Zn15 2.024 . S
O23 C17 1.249 . S
H24 C6 0.948 . S
O25 Zn15 2.039 . S
O25 C29 1.251 . S
O26 Zn7 2.025 . S
O26 C29 1.254 . S
O27 C8 1.246 . S
O27 Zn15 2.034 . S
O28 Zn7 2.024 . S
O28 C8 1.249 . S
C29 O25 1.251 . S
C29 O26 1.254 . S
H30 C3 0.949 . S
H31 C5 0.950 . S
H32 C12 0.949 . S
H33 C14 0.950 . S
C34 O50 1.251 . S
C34 O52 1.254 . S
N35 C36 1.333 . S
N35 C40 1.307 . S
N35 Zn41 2.020 . S
C36 N35 1.333 . S
C36 C37 1.379 . S
C36 H54 0.952 . S
C37 C36 1.379 . S
C37 C38 1.390 . S
C37 H64 0.949 . S
C38 C37 1.390 . S
C38 C39 1.357 . S
C39 C38 1.357 . S
C39 C40 1.370 . S
C39 H65 0.950 . S
C40 N35 1.307 . S
C40 C39 1.370 . S
C40 H58 0.948 . S
Zn41 N35 2.020 . S
Zn41 O50 2.039 . S
Zn41 O56 2.034 . S
Zn41 O60 2.025 . S
Zn41 O62 2.024 . S
C42 O61 1.246 . S
C42 O62 1.249 . S
N43 C44 1.307 . S
N43 C45 1.333 . S
N43 Zn49 2.020 . S
C44 N43 1.307 . S
C44 C48 1.370 . S
C44 H55 0.948 . S
C45 N43 1.333 . S
C45 C46 1.379 . S
C45 H53 0.952 . S
C46 C45 1.379 . S
C46 C47 1.390 . S
C46 H66 0.949 . S
C47 C46 1.390 . S
C47 C48 1.357 . S
C48 C44 1.370 . S
C48 C47 1.357 . S
C48 H67 0.950 . S
Zn49 N43 2.020 . S
Zn49 O52 2.025 . S
Zn49 O57 2.024 . S
Zn49 O59 2.039 . S
Zn49 O61 2.034 . S
O50 C34 1.251 . S
O50 Zn41 2.039 . S
C51 O56 1.246 . S
C51 O57 1.249 . S
O52 C34 1.254 . S
O52 Zn49 2.025 . S
H53 C45 0.952 . S
H54 C36 0.952 . S
H55 C44 0.948 . S
O56 Zn41 2.034 . S
O56 C51 1.246 . S
O57 Zn49 2.024 . S
O57 C51 1.249 . S
H58 C40 0.948 . S
O59 Zn49 2.039 . S
O59 C63 1.251 . S
O60 Zn41 2.025 . S
O60 C63 1.254 . S
O61 C42 1.246 . S
O61 Zn49 2.034 . S
O62 Zn41 2.024 . S
O62 C42 1.249 . S
C63 O59 1.251 . S
C63 O60 1.254 . S
H64 C37 0.949 . S
H65 C39 0.950 . S
H66 C46 0.949 . S
H67 C48 0.950 . S
C68 O84 1.251 . S
C68 O86 1.254 . S
N69 C70 1.333 . S
N69 C74 1.307 . S
N69 Zn75 2.020 . S
C70 N69 1.333 . S
C70 C71 1.379 . S
C70 H88 0.952 . S
C71 C70 1.379 . S
C71 C72 1.390 . S
C71 H98 0.949 . S
C72 C71 1.390 . S
C72 C73 1.357 . S
C73 C72 1.357 . S
C73 C74 1.370 . S
C73 H99 0.950 . S
C74 N69 1.307 . S
C74 C73 1.370 . S
C74 H92 0.948 . S
Zn75 N69 2.020 . S
Zn75 O84 2.039 . S
Zn75 O90 2.034 . S
Zn75 O94 2.025 . S
Zn75 O96 2.024 . S
C76 O95 1.246 . S
C76 O96 1.249 . S
N77 C78 1.307 . S
N77 C79 1.333 . S
N77 Zn83 2.020 . S
C78 N77 1.307 . S
C78 C82 1.370 . S
C78 H89 0.948 . S
C79 N77 1.333 . S
C79 C80 1.379 . S
C79 H87 0.952 . S
C80 C79 1.379 . S
C80 C81 1.390 . S
C80 H100 0.949 . S
C81 C80 1.390 . S
C81 C82 1.357 . S
C82 C78 1.370 . S
C82 C81 1.357 . S
C82 H101 0.950 . S
Zn83 N77 2.020 . S
Zn83 O86 2.025 . S
Zn83 O91 2.024 . S
Zn83 O93 2.039 . S
Zn83 O95 2.034 . S
O84 C68 1.251 . S
O84 Zn75 2.039 . S
C85 O90 1.246 . S
C85 O91 1.249 . S
O86 C68 1.254 . S
O86 Zn83 2.025 . S
H87 C79 0.952 . S
H88 C70 0.952 . S
H89 C78 0.948 . S
O90 Zn75 2.034 . S
O90 C85 1.246 . S
O91 Zn83 2.024 . S
O91 C85 1.249 . S
H92 C74 0.948 . S
O93 Zn83 2.039 . S
O93 C97 1.251 . S
O94 Zn75 2.025 . S
O94 C97 1.254 . S
O95 C76 1.246 . S
O95 Zn83 2.034 . S
O96 Zn75 2.024 . S
O96 C76 1.249 . S
C97 O93 1.251 . S
C97 O94 1.254 . S
H98 C71 0.949 . S
H99 C73 0.950 . S
H100 C80 0.949 . S
H101 C82 0.950 . S
C102 O118 1.251 . S
C102 O120 1.254 . S
N103 C104 1.333 . S
N103 C108 1.307 . S
N103 Zn109 2.020 . S
C104 N103 1.333 . S
C104 C105 1.379 . S
C104 H122 0.952 . S
C105 C104 1.379 . S
C105 C106 1.390 . S
C105 H132 0.924 1_556 S
C106 C105 1.390 . S
C106 C107 1.357 . S
C107 C106 1.357 . S
C107 C108 1.370 . S
C107 H133 0.950 . S
C108 N103 1.307 . S
C108 C107 1.370 . S
C108 H126 0.948 . S
Zn109 N103 2.020 . S
Zn109 O118 2.039 . S
Zn109 O124 2.034 . S
Zn109 O128 2.025 . S
Zn109 O130 2.024 . S
C110 O129 1.246 . S
C110 O130 1.249 . S
N111 C112 1.307 1_655 S
N111 C113 1.333 . S
N111 Zn117 2.020 . S
C112 N111 1.307 1_455 S
C112 C116 1.370 . S
C112 H123 0.948 . S
C113 N111 1.333 . S
C113 C114 1.379 1_655 S
C113 H121 0.952 . S
C114 C113 1.379 1_455 S
C114 C115 1.390 . S
C114 H134 0.949 . S
C115 C114 1.390 . S
C115 C116 1.357 . S
C116 C112 1.370 . S
C116 C115 1.357 . S
C116 H135 0.950 . S
Zn117 N111 2.020 . S
Zn117 O120 2.025 . S
Zn117 O125 2.024 . S
Zn117 O127 2.039 . S
Zn117 O129 2.034 . S
O118 C102 1.251 . S
O118 Zn109 2.039 . S
C119 O124 1.246 . S
C119 O125 1.249 . S
O120 C102 1.254 . S
O120 Zn117 2.025 . S
H121 C113 0.952 . S
H122 C104 0.952 . S
H123 C112 0.948 . S
O124 Zn109 2.034 . S
O124 C119 1.246 . S
O125 Zn117 2.024 . S
O125 C119 1.249 . S
H126 C108 0.948 . S
O127 Zn117 2.039 . S
O127 C131 1.251 . S
O128 Zn109 2.025 . S
O128 C131 1.254 . S
O129 C110 1.246 . S
O129 Zn117 2.034 . S
O130 Zn109 2.024 . S
O130 C110 1.249 . S
C131 O127 1.251 . S
C131 O128 1.254 . S
H132 C105 0.924 1_554 S
H133 C107 0.950 . S
H134 C114 0.949 . S
H135 C116 0.950 . S
C136 O152 1.251 . S
C136 O154 1.254 . S
N137 C138 1.333 1_556 S
N137 C142 1.307 . S
N137 Zn143 2.020 . S
C138 N137 1.333 1_554 S
C138 C139 1.379 . S
C138 H156 0.952 . S
C139 C138 1.379 . S
C139 C140 1.390 . S
C139 H166 0.949 . S
C140 C139 1.390 . S
C140 C141 1.357 1_554 S
C141 C140 1.357 1_556 S
C141 C142 1.370 . S
C141 H167 0.950 . S
C142 N137 1.307 . S
C142 C141 1.370 . S
C142 H160 0.948 . S
Zn143 N137 2.020 . S
Zn143 O152 2.039 . S
Zn143 O158 2.034 . S
Zn143 O162 2.025 . S
Zn143 O164 2.024 . S
C144 O163 1.246 . S
C144 O164 1.249 . S
N145 C146 1.307 . S
N145 C147 1.333 . S
N145 Zn151 2.020 . S
C146 N145 1.307 . S
C146 C150 1.370 . S
C146 H157 0.948 . S
C147 N145 1.333 . S
C147 C148 1.379 . S
C147 H155 0.952 . S
C148 C147 1.379 . S
C148 C149 1.390 . S
C148 H168 0.949 . S
C149 C148 1.390 . S
C149 C150 1.357 . S
C150 C146 1.370 . S
C150 C149 1.357 . S
C150 H169 0.950 . S
Zn151 N145 2.020 . S
Zn151 O154 2.025 . S
Zn151 O159 2.024 . S
Zn151 O161 2.039 . S
Zn151 O163 2.034 . S
O152 C136 1.251 . S
O152 Zn143 2.039 . S
C153 O158 1.246 . S
C153 O159 1.249 . S
O154 C136 1.254 . S
O154 Zn151 2.025 . S
H155 C147 0.952 . S
H156 C138 0.952 . S
H157 C146 0.948 . S
O158 Zn143 2.034 . S
O158 C153 1.246 . S
O159 Zn151 2.024 . S
O159 C153 1.249 . S
H160 C142 0.948 . S
O161 Zn151 2.039 . S
O161 C165 1.251 . S
O162 Zn143 2.025 . S
O162 C165 1.254 . S
O163 C144 1.246 . S
O163 Zn151 2.034 . S
O164 Zn143 2.024 . S
O164 C144 1.249 . S
C165 O161 1.251 . S
C165 O162 1.254 . S
H166 C139 0.949 . S
H167 C141 0.950 . S
H168 C148 0.949 . S
H169 C150 0.950 . S
C170 O186 1.251 . S
C170 O188 1.254 . S
N171 C172 1.333 . S
N171 C176 1.307 . S
N171 Zn177 2.020 . S
C172 N171 1.333 . S
C172 C173 1.379 . S
C172 H190 0.952 . S
C173 C172 1.379 . S
C173 C174 1.390 . S
C173 H200 0.949 . S
C174 C173 1.390 . S
C174 C175 1.357 . S
C175 C174 1.357 . S
C175 C176 1.370 . S
C175 H201 0.950 . S
C176 N171 1.307 . S
C176 C175 1.370 . S
C176 H194 0.948 . S
Zn177 N171 2.020 . S
Zn177 O186 2.039 . S
Zn177 O192 2.034 . S
Zn177 O196 2.025 . S
Zn177 O198 2.024 . S
C178 O197 1.246 . S
C178 O198 1.249 . S
N179 C180 1.307 . S
N179 C181 1.333 . S
N179 Zn185 2.020 . S
C180 N179 1.307 . S
C180 C184 1.370 . S
C180 H191 0.948 . S
C181 N179 1.333 . S
C181 C182 1.379 . S
C181 H189 0.952 . S
C182 C181 1.379 . S
C182 C183 1.390 . S
C182 H202 0.949 . S
C183 C182 1.390 . S
C183 C184 1.357 . S
C184 C180 1.370 . S
C184 C183 1.357 . S
C184 H203 0.950 . S
Zn185 N179 2.020 . S
Zn185 O188 2.025 . S
Zn185 O193 2.024 . S
Zn185 O195 2.039 . S
Zn185 O197 2.034 . S
O186 C170 1.251 . S
O186 Zn177 2.039 . S
C187 O192 1.246 . S
C187 O193 1.249 . S
O188 C170 1.254 . S
O188 Zn185 2.025 . S
H189 C181 0.952 . S
H190 C172 0.952 . S
H191 C180 0.948 . S
O192 Zn177 2.034 . S
O192 C187 1.246 . S
O193 Zn185 2.024 . S
O193 C187 1.249 . S
H194 C176 0.948 . S
O195 Zn185 2.039 . S
O195 C199 1.251 . S
O196 Zn177 2.025 . S
O196 C199 1.254 . S
O197 C178 1.246 . S
O197 Zn185 2.034 . S
O198 Zn177 2.024 . S
O198 C178 1.249 . S
C199 O195 1.251 . S
C199 O196 1.254 . S
H200 C173 0.949 . S
H201 C175 0.950 . S
H202 C182 0.949 . S
H203 C184 0.950 . S
C204 O220 1.251 . S
C204 O222 1.254 . S
N205 C206 1.333 . S
N205 C210 1.307 . S
N205 Zn211 2.020 . S
C206 N205 1.333 . S
C206 C207 1.379 . S
C206 H224 0.952 . S
C207 C206 1.379 . S
C207 C208 1.390 . S
C207 H234 0.949 . S
C208 C207 1.390 . S
C208 C209 1.357 . S
C209 C208 1.357 . S
C209 C210 1.370 . S
C209 H235 0.950 . S
C210 N205 1.307 . S
C210 C209 1.370 . S
C210 H228 0.948 . S
Zn211 N205 2.020 . S
Zn211 O220 2.039 . S
Zn211 O226 2.034 . S
Zn211 O230 2.025 . S
Zn211 O232 2.024 . S
C212 O231 1.246 . S
C212 O232 1.249 . S
N213 C214 1.307 . S
N213 C215 1.333 . S
N213 Zn219 2.020 . S
C214 N213 1.307 . S
C214 C218 1.370 . S
C214 H225 0.948 . S
C215 N213 1.333 . S
C215 C216 1.379 . S
C215 H223 0.952 . S
C216 C215 1.379 . S
C216 C217 1.390 . S
C216 H236 0.949 . S
C217 C216 1.390 . S
C217 C218 1.357 . S
C218 C214 1.370 . S
C218 C217 1.357 . S
C218 H237 0.950 . S
Zn219 N213 2.020 . S
Zn219 O222 2.025 . S
Zn219 O227 2.024 . S
Zn219 O229 2.039 . S
Zn219 O231 2.034 . S
O220 C204 1.251 . S
O220 Zn211 2.039 . S
C221 O226 1.246 . S
C221 O227 1.249 . S
O222 C204 1.254 . S
O222 Zn219 2.025 . S
H223 C215 0.952 . S
H224 C206 0.952 . S
H225 C214 0.948 . S
O226 Zn211 2.034 . S
O226 C221 1.246 . S
O227 Zn219 2.024 . S
O227 C221 1.249 . S
H228 C210 0.948 . S
O229 Zn219 2.039 . S
O229 C233 1.251 . S
O230 Zn211 2.025 . S
O230 C233 1.254 . S
O231 C212 1.246 . S
O231 Zn219 2.034 . S
O232 Zn211 2.024 . S
O232 C212 1.249 . S
C233 O229 1.251 . S
C233 O230 1.254 . S
H234 C207 0.949 . S
H235 C209 0.950 . S
H236 C216 0.949 . S
H237 C218 0.950 . S
C238 O254 1.251 . S
C238 O256 1.254 . S
N239 C240 1.333 . S
N239 C244 1.307 1_455 S
N239 Zn245 2.020 . S
C240 N239 1.333 . S
C240 C241 1.379 1_455 S
C240 H258 0.952 . S
C241 C240 1.379 1_655 S
C241 C242 1.390 . S
C241 H268 0.949 . S
C242 C241 1.390 . S
C242 C243 1.357 . S
C243 C242 1.357 . S
C243 C244 1.370 . S
C243 H269 0.950 . S
C244 N239 1.307 1_655 S
C244 C243 1.370 . S
C244 H262 0.948 . S
Zn245 N239 2.020 . S
Zn245 O254 2.039 . S
Zn245 O260 2.034 . S
Zn245 O264 2.025 . S
Zn245 O266 2.024 . S
C246 O265 1.246 . S
C246 O266 1.249 . S
N247 C248 1.307 . S
N247 C249 1.333 . S
N247 Zn253 2.020 . S
C248 N247 1.307 . S
C248 C252 1.370 . S
C248 H259 0.948 . S
C249 N247 1.333 . S
C249 C250 1.379 . S
C249 H257 0.952 . S
C250 C249 1.379 . S
C250 C251 1.390 . S
C250 H270 0.924 1_554 S
C251 C250 1.390 . S
C251 C252 1.357 . S
C252 C248 1.370 . S
C252 C251 1.357 . S
C252 H271 0.950 . S
Zn253 N247 2.020 . S
Zn253 O256 2.025 . S
Zn253 O261 2.024 . S
Zn253 O263 2.039 . S
Zn253 O265 2.034 . S
O254 C238 1.251 . S
O254 Zn245 2.039 . S
C255 O260 1.246 . S
C255 O261 1.249 . S
O256 C238 1.254 . S
O256 Zn253 2.025 . S
H257 C249 0.952 . S
H258 C240 0.952 . S
H259 C248 0.948 . S
O260 Zn245 2.034 . S
O260 C255 1.246 . S
O261 Zn253 2.024 . S
O261 C255 1.249 . S
H262 C244 0.948 . S
O263 Zn253 2.039 . S
O263 C267 1.251 . S
O264 Zn245 2.025 . S
O264 C267 1.254 . S
O265 C246 1.246 . S
O265 Zn253 2.034 . S
O266 Zn245 2.024 . S
O266 C246 1.249 . S
C267 O263 1.251 . S
C267 O264 1.254 . S
H268 C241 0.949 . S
H269 C243 0.950 . S
H270 C250 0.924 1_556 S
H271 C252 0.950 . S
C272 O288 1.251 . S
C272 O290 1.254 . S
N273 C274 1.333 . S
N273 C278 1.307 . S
N273 Zn279 2.020 . S
C274 N273 1.333 . S
C274 C275 1.379 . S
C274 H292 0.952 . S
C275 C274 1.379 . S
C275 C276 1.390 . S
C275 H302 0.949 . S
C276 C275 1.390 . S
C276 C277 1.357 . S
C277 C276 1.357 . S
C277 C278 1.370 . S
C277 H303 0.950 . S
C278 N273 1.307 . S
C278 C277 1.370 . S
C278 H296 0.948 . S
Zn279 N273 2.020 . S
Zn279 O288 2.039 . S
Zn279 O294 2.034 . S
Zn279 O298 2.025 . S
Zn279 O300 2.024 . S
C280 O299 1.246 . S
C280 O300 1.249 . S
N281 C282 1.307 . S
N281 C283 1.333 . S
N281 Zn287 2.020 . S
C282 N281 1.307 . S
C282 C286 1.370 . S
C282 H293 0.948 . S
C283 N281 1.333 . S
C283 C284 1.379 . S
C283 H291 0.952 . S
C284 C283 1.379 . S
C284 C285 1.390 . S
C284 H304 0.949 . S
C285 C284 1.390 . S
C285 C286 1.357 . S
C286 C282 1.370 . S
C286 C285 1.357 . S
C286 H305 0.950 . S
Zn287 N281 2.020 . S
Zn287 O290 2.025 . S
Zn287 O295 2.024 . S
Zn287 O297 2.039 . S
Zn287 O299 2.034 . S
O288 C272 1.251 . S
O288 Zn279 2.039 . S
C289 O294 1.246 . S
C289 O295 1.249 . S
O290 C272 1.254 . S
O290 Zn287 2.025 . S
H291 C283 0.952 . S
H292 C274 0.952 . S
H293 C282 0.948 . S
O294 Zn279 2.034 . S
O294 C289 1.246 . S
O295 Zn287 2.024 . S
O295 C289 1.249 . S
H296 C278 0.948 . S
O297 Zn287 2.039 . S
O297 C301 1.251 . S
O298 Zn279 2.025 . S
O298 C301 1.254 . S
O299 C280 1.246 . S
O299 Zn287 2.034 . S
O300 Zn279 2.024 . S
O300 C280 1.249 . S
C301 O297 1.251 . S
C301 O298 1.254 . S
H302 C275 0.949 . S
H303 C277 0.950 . S
H304 C284 0.949 . S
H305 C286 0.950 . S
C306 O322 1.251 . S
C306 O324 1.254 . S
N307 C308 1.333 . S
N307 C312 1.307 . S
N307 Zn313 2.020 . S
C308 N307 1.333 . S
C308 C309 1.379 . S
C308 H326 0.952 . S
C309 C308 1.379 . S
C309 C310 1.390 . S
C309 H336 0.924 1_556 S
C310 C309 1.390 . S
C310 C311 1.357 . S
C311 C310 1.357 . S
C311 C312 1.370 . S
C311 H337 0.950 . S
C312 N307 1.307 . S
C312 C311 1.370 . S
C312 H330 0.948 . S
Zn313 N307 2.020 . S
Zn313 O322 2.039 . S
Zn313 O328 2.034 . S
Zn313 O332 2.025 . S
Zn313 O334 2.024 . S
C314 O333 1.246 . S
C314 O334 1.249 . S
N315 C316 1.307 1_455 S
N315 C317 1.333 . S
N315 Zn321 2.020 . S
C316 N315 1.307 1_655 S
C316 C320 1.370 . S
C316 H327 0.948 . S
C317 N315 1.333 . S
C317 C318 1.379 1_455 S
C317 H325 0.952 . S
C318 C317 1.379 1_655 S
C318 C319 1.390 . S
C318 H338 0.949 . S
C319 C318 1.390 . S
C319 C320 1.357 . S
C320 C316 1.370 . S
C320 C319 1.357 . S
C320 H339 0.950 . S
Zn321 N315 2.020 . S
Zn321 O324 2.025 . S
Zn321 O329 2.024 . S
Zn321 O331 2.039 . S
Zn321 O333 2.034 . S
O322 C306 1.251 . S
O322 Zn313 2.039 . S
C323 O328 1.246 . S
C323 O329 1.249 . S
O324 C306 1.254 . S
O324 Zn321 2.025 . S
H325 C317 0.952 . S
H326 C308 0.952 . S
H327 C316 0.948 . S
O328 Zn313 2.034 . S
O328 C323 1.246 . S
O329 Zn321 2.024 . S
O329 C323 1.249 . S
H330 C312 0.948 . S
O331 Zn321 2.039 . S
O331 C335 1.251 . S
O332 Zn313 2.025 . S
O332 C335 1.254 . S
O333 C314 1.246 . S
O333 Zn321 2.034 . S
O334 Zn313 2.024 . S
O334 C314 1.249 . S
C335 O331 1.251 . S
C335 O332 1.254 . S
H336 C309 0.924 1_554 S
H337 C311 0.950 . S
H338 C318 0.949 . S
H339 C320 0.950 . S
C340 O356 1.251 . S
C340 O358 1.254 . S
N341 C342 1.333 . S
N341 C346 1.307 . S
N341 Zn347 2.020 . S
C342 N341 1.333 . S
C342 C343 1.379 . S
C342 H360 0.952 . S
C343 C342 1.379 . S
C343 C344 1.390 . S
C343 H370 0.949 . S
C344 C343 1.390 . S
C344 C345 1.357 . S
C345 C344 1.357 . S
C345 C346 1.370 . S
C345 H371 0.950 . S
C346 N341 1.307 . S
C346 C345 1.370 . S
C346 H364 0.948 . S
Zn347 N341 2.020 . S
Zn347 O356 2.039 . S
Zn347 O362 2.034 . S
Zn347 O366 2.025 . S
Zn347 O368 2.024 . S
C348 O367 1.246 . S
C348 O368 1.249 . S
N349 C350 1.307 . S
N349 C351 1.333 1_554 S
N349 Zn355 2.020 . S
C350 N349 1.307 . S
C350 C354 1.370 . S
C350 H361 0.948 . S
C351 N349 1.333 1_556 S
C351 C352 1.379 . S
C351 H359 0.952 . S
C352 C351 1.379 . S
C352 C353 1.390 . S
C352 H372 0.949 . S
C353 C352 1.390 . S
C353 C354 1.357 1_556 S
C354 C350 1.370 . S
C354 C353 1.357 1_554 S
C354 H373 0.950 . S
Zn355 N349 2.020 . S
Zn355 O358 2.025 . S
Zn355 O363 2.024 . S
Zn355 O365 2.039 . S
Zn355 O367 2.034 . S
O356 C340 1.251 . S
O356 Zn347 2.039 . S
C357 O362 1.246 . S
C357 O363 1.249 . S
O358 C340 1.254 . S
O358 Zn355 2.025 . S
H359 C351 0.952 . S
H360 C342 0.952 . S
H361 C350 0.948 . S
O362 Zn347 2.034 . S
O362 C357 1.246 . S
O363 Zn355 2.024 . S
O363 C357 1.249 . S
H364 C346 0.948 . S
O365 Zn355 2.039 . S
O365 C369 1.251 . S
O366 Zn347 2.025 . S
O366 C369 1.254 . S
O367 C348 1.246 . S
O367 Zn355 2.034 . S
O368 Zn347 2.024 . S
O368 C348 1.249 . S
C369 O365 1.251 . S
C369 O366 1.254 . S
H370 C343 0.949 . S
H371 C345 0.950 . S
H372 C352 0.949 . S
H373 C354 0.950 . S
C374 O390 1.251 . S
C374 O392 1.254 . S
N375 C376 1.333 . S
N375 C380 1.307 . S
N375 Zn381 2.020 . S
C376 N375 1.333 . S
C376 C377 1.379 . S
C376 H394 0.952 . S
C377 C376 1.379 . S
C377 C378 1.390 . S
C377 H404 0.949 . S
C378 C377 1.390 . S
C378 C379 1.357 . S
C379 C378 1.357 . S
C379 C380 1.370 . S
C379 H405 0.950 . S
C380 N375 1.307 . S
C380 C379 1.370 . S
C380 H398 0.948 . S
Zn381 N375 2.020 . S
Zn381 O390 2.039 . S
Zn381 O396 2.034 . S
Zn381 O400 2.025 . S
Zn381 O402 2.024 . S
C382 O401 1.246 . S
C382 O402 1.249 . S
N383 C384 1.307 . S
N383 C385 1.333 . S
N383 Zn389 2.020 . S
C384 N383 1.307 . S
C384 C388 1.370 . S
C384 H395 0.948 . S
C385 N383 1.333 . S
C385 C386 1.379 . S
C385 H393 0.952 . S
C386 C385 1.379 . S
C386 C387 1.390 . S
C386 H406 0.949 . S
C387 C386 1.390 . S
C387 C388 1.357 . S
C388 C384 1.370 . S
C388 C387 1.357 . S
C388 H407 0.950 . S
Zn389 N383 2.020 . S
Zn389 O392 2.025 . S
Zn389 O397 2.024 . S
Zn389 O399 2.039 . S
Zn389 O401 2.034 . S
O390 C374 1.251 . S
O390 Zn381 2.039 . S
C391 O396 1.246 . S
C391 O397 1.249 . S
O392 C374 1.254 . S
O392 Zn389 2.025 . S
H393 C385 0.952 . S
H394 C376 0.952 . S
H395 C384 0.948 . S
O396 Zn381 2.034 . S
O396 C391 1.246 . S
O397 Zn389 2.024 . S
O397 C391 1.249 . S
H398 C380 0.948 . S
O399 Zn389 2.039 . S
O399 C403 1.251 . S
O400 Zn381 2.025 . S
O400 C403 1.254 . S
O401 C382 1.246 . S
O401 Zn389 2.034 . S
O402 Zn381 2.024 . S
O402 C382 1.249 . S
C403 O399 1.251 . S
C403 O400 1.254 . S
H404 C377 0.949 . S
H405 C379 0.950 . S
H406 C386 0.949 . S
H407 C388 0.950 . S
C408 O424 1.251 . S
C408 O426 1.254 . S
N409 C410 1.333 . S
N409 C414 1.307 . S
N409 Zn415 2.020 . S
C410 N409 1.333 . S
C410 C411 1.379 . S
C410 H428 0.952 . S
C411 C410 1.379 . S
C411 C412 1.390 . S
C411 H438 0.949 . S
C412 C411 1.390 . S
C412 C413 1.357 . S
C413 C412 1.357 . S
C413 C414 1.370 . S
C413 H439 0.950 . S
C414 N409 1.307 . S
C414 C413 1.370 . S
C414 H432 0.948 . S
Zn415 N409 2.020 . S
Zn415 O424 2.039 . S
Zn415 O430 2.034 . S
Zn415 O434 2.025 . S
Zn415 O436 2.024 . S
C416 O435 1.246 . S
C416 O436 1.249 . S
N417 C418 1.307 . S
N417 C419 1.333 . S
N417 Zn423 2.020 . S
C418 N417 1.307 . S
C418 C422 1.370 . S
C418 H429 0.948 . S
C419 N417 1.333 . S
C419 C420 1.379 . S
C419 H427 0.952 . S
C420 C419 1.379 . S
C420 C421 1.390 . S
C420 H440 0.949 . S
C421 C420 1.390 . S
C421 C422 1.357 . S
C422 C418 1.370 . S
C422 C421 1.357 . S
C422 H441 0.950 . S
Zn423 N417 2.020 . S
Zn423 O426 2.025 . S
Zn423 O431 2.024 . S
Zn423 O433 2.039 . S
Zn423 O435 2.034 . S
O424 C408 1.251 . S
O424 Zn415 2.039 . S
C425 O430 1.246 . S
C425 O431 1.249 . S
O426 C408 1.254 . S
O426 Zn423 2.025 . S
H427 C419 0.952 . S
H428 C410 0.952 . S
H429 C418 0.948 . S
O430 Zn415 2.034 . S
O430 C425 1.246 . S
O431 Zn423 2.024 . S
O431 C425 1.249 . S
H432 C414 0.948 . S
O433 Zn423 2.039 . S
O433 C437 1.251 . S
O434 Zn415 2.025 . S
O434 C437 1.254 . S
O435 C416 1.246 . S
O435 Zn423 2.034 . S
O436 Zn415 2.024 . S
O436 C416 1.249 . S
C437 O433 1.251 . S
C437 O434 1.254 . S
H438 C411 0.949 . S
H439 C413 0.950 . S
H440 C420 0.949 . S
H441 C422 0.950 . S
C442 O458 1.251 . S
C442 O460 1.254 . S
N443 C444 1.333 . S
N443 C448 1.307 1_655 S
N443 Zn449 2.020 . S
C444 N443 1.333 . S
C444 C445 1.379 1_655 S
C444 H462 0.952 . S
C445 C444 1.379 1_455 S
C445 C446 1.390 . S
C445 H472 0.949 . S
C446 C445 1.390 . S
C446 C447 1.357 . S
C447 C446 1.357 . S
C447 C448 1.370 . S
C447 H473 0.950 . S
C448 N443 1.307 1_455 S
C448 C447 1.370 . S
C448 H466 0.948 . S
Zn449 N443 2.020 . S
Zn449 O458 2.039 . S
Zn449 O464 2.034 . S
Zn449 O468 2.025 . S
Zn449 O470 2.024 . S
C450 O469 1.246 . S
C450 O470 1.249 . S
N451 C452 1.307 . S
N451 C453 1.333 . S
N451 Zn457 2.020 . S
C452 N451 1.307 . S
C452 C456 1.370 . S
C452 H463 0.948 . S
C453 N451 1.333 . S
C453 C454 1.379 . S
C453 H461 0.952 . S
C454 C453 1.379 . S
C454 C455 1.390 . S
C454 H474 0.924 1_554 S
C455 C454 1.390 . S
C455 C456 1.357 . S
C456 C452 1.370 . S
C456 C455 1.357 . S
C456 H475 0.950 . S
Zn457 N451 2.020 . S
Zn457 O460 2.025 . S
Zn457 O465 2.024 . S
Zn457 O467 2.039 . S
Zn457 O469 2.034 . S
O458 C442 1.251 . S
O458 Zn449 2.039 . S
C459 O464 1.246 . S
C459 O465 1.249 . S
O460 C442 1.254 . S
O460 Zn457 2.025 . S
H461 C453 0.952 . S
H462 C444 0.952 . S
H463 C452 0.948 . S
O464 Zn449 2.034 . S
O464 C459 1.246 . S
O465 Zn457 2.024 . S
O465 C459 1.249 . S
H466 C448 0.948 . S
O467 Zn457 2.039 . S
O467 C471 1.251 . S
O468 Zn449 2.025 . S
O468 C471 1.254 . S
O469 C450 1.246 . S
O469 Zn457 2.034 . S
O470 Zn449 2.024 . S
O470 C450 1.249 . S
C471 O467 1.251 . S
C471 O468 1.254 . S
H472 C445 0.949 . S
H473 C447 0.950 . S
H474 C454 0.924 1_556 S
H475 C456 0.950 . S
C476 O492 1.251 . S
C476 O494 1.254 . S
N477 C478 1.333 1_556 S
N477 C482 1.307 . S
N477 Zn483 2.020 . S
C478 N477 1.333 1_554 S
C478 C479 1.379 . S
C478 H496 0.952 . S
C479 C478 1.379 . S
C479 C480 1.390 . S
C479 H506 0.949 . S
C480 C479 1.390 . S
C480 C481 1.357 1_554 S
C481 C480 1.357 1_556 S
C481 C482 1.370 . S
C481 H507 0.950 . S
C482 N477 1.307 . S
C482 C481 1.370 . S
C482 H500 0.948 . S
Zn483 N477 2.020 . S
Zn483 O492 2.039 . S
Zn483 O498 2.034 . S
Zn483 O502 2.025 . S
Zn483 O504 2.024 . S
C484 O503 1.246 . S
C484 O504 1.249 . S
N485 C486 1.307 . S
N485 C487 1.333 . S
N485 Zn491 2.020 . S
C486 N485 1.307 . S
C486 C490 1.370 . S
C486 H497 0.948 . S
C487 N485 1.333 . S
C487 C488 1.379 . S
C487 H495 0.952 . S
C488 C487 1.379 . S
C488 C489 1.390 . S
C488 H508 0.949 . S
C489 C488 1.390 . S
C489 C490 1.357 . S
C490 C486 1.370 . S
C490 C489 1.357 . S
C490 H509 0.950 . S
Zn491 N485 2.020 . S
Zn491 O494 2.025 . S
Zn491 O499 2.024 . S
Zn491 O501 2.039 . S
Zn491 O503 2.034 . S
O492 C476 1.251 . S
O492 Zn483 2.039 . S
C493 O498 1.246 . S
C493 O499 1.249 . S
O494 C476 1.254 . S
O494 Zn491 2.025 . S
H495 C487 0.952 . S
H496 C478 0.952 . S
H497 C486 0.948 . S
O498 Zn483 2.034 . S
O498 C493 1.246 . S
O499 Zn491 2.024 . S
O499 C493 1.249 . S
H500 C482 0.948 . S
O501 Zn491 2.039 . S
O501 C505 1.251 . S
O502 Zn483 2.025 . S
O502 C505 1.254 . S
O503 C484 1.246 . S
O503 Zn491 2.034 . S
O504 Zn483 2.024 . S
O504 C484 1.249 . S
C505 O501 1.251 . S
C505 O502 1.254 . S
H506 C479 0.949 . S
H507 C481 0.950 . S
H508 C488 0.949 . S
H509 C490 0.950 . S
C510 O526 1.251 . S
C510 O528 1.254 . S
N511 C512 1.333 . S
N511 C516 1.307 . S
N511 Zn517 2.020 . S
C512 N511 1.333 . S
C512 C513 1.379 . S
C512 H530 0.952 . S
C513 C512 1.379 . S
C513 C514 1.390 . S
C513 H540 0.949 . S
C514 C513 1.390 . S
C514 C515 1.357 . S
C515 C514 1.357 . S
C515 C516 1.370 . S
C515 H541 0.950 . S
C516 N511 1.307 . S
C516 C515 1.370 . S
C516 H534 0.948 . S
Zn517 N511 2.020 . S
Zn517 O526 2.039 . S
Zn517 O532 2.034 . S
Zn517 O536 2.025 . S
Zn517 O538 2.024 . S
C518 O537 1.246 . S
C518 O538 1.249 . S
N519 C520 1.307 . S
N519 C521 1.333 . S
N519 Zn525 2.020 . S
C520 N519 1.307 . S
C520 C524 1.370 . S
C520 H531 0.948 . S
C521 N519 1.333 . S
C521 C522 1.379 . S
C521 H529 0.952 . S
C522 C521 1.379 . S
C522 C523 1.390 . S
C522 H542 0.949 . S
C523 C522 1.390 . S
C523 C524 1.357 . S
C524 C520 1.370 . S
C524 C523 1.357 . S
C524 H543 0.950 . S
Zn525 N519 2.020 . S
Zn525 O528 2.025 . S
Zn525 O533 2.024 . S
Zn525 O535 2.039 . S
Zn525 O537 2.034 . S
O526 C510 1.251 . S
O526 Zn517 2.039 . S
C527 O532 1.246 . S
C527 O533 1.249 . S
O528 C510 1.254 . S
O528 Zn525 2.025 . S
H529 C521 0.952 . S
H530 C512 0.952 . S
H531 C520 0.948 . S
O532 Zn517 2.034 . S
O532 C527 1.246 . S
O533 Zn525 2.024 . S
O533 C527 1.249 . S
H534 C516 0.948 . S
O535 Zn525 2.039 . S
O535 C539 1.251 . S
O536 Zn517 2.025 . S
O536 C539 1.254 . S
O537 C518 1.246 . S
O537 Zn525 2.034 . S
O538 Zn517 2.024 . S
O538 C518 1.249 . S
C539 O535 1.251 . S
C539 O536 1.254 . S
H540 C513 0.949 . S
H541 C515 0.950 . S
H542 C522 0.949 . S
H543 C524 0.950 . S
H544 C550 0.930 . S
H545 C554 0.930 . S
H546 C559 0.929 . S
H547 C557 0.929 . S
H548 C552 0.929 . S
H549 C558 0.929 . S
C550 H544 0.930 . S
C550 C551 1.367 . S
C550 C558 1.378 . S
C551 C550 1.367 . S
C551 C559 1.433 . S
C552 H548 0.929 . S
C552 C554 1.378 . S
C552 C556 1.350 . S
C553 C556 1.463 . S
C553 C558 1.350 . S
C553 N561 1.427 . S
C554 H545 0.930 . S
C554 C552 1.378 . S
C554 C555 1.367 . S
C555 C554 1.367 . S
C555 C557 1.433 . S
C556 C552 1.350 . S
C556 C553 1.463 . S
C556 N560 1.427 . S
C557 H547 0.929 . S
C557 C555 1.433 . S
C557 N560 1.384 . S
C558 H549 0.929 . S
C558 C550 1.378 . S
C558 C553 1.350 . S
C559 H546 0.929 . S
C559 C551 1.433 . S
C559 N561 1.384 . S
N560 C556 1.427 . S
N560 C557 1.384 . S
N561 C553 1.427 . S
N561 C559 1.384 . S
H562 C568 0.930 . S
H563 C572 0.930 . S
H564 C577 0.929 . S
H565 C575 0.929 . S
H566 C570 0.929 . S
H567 C576 0.929 . S
C568 H562 0.930 . S
C568 C569 1.367 . S
C568 C576 1.378 . S
C569 C568 1.367 . S
C569 C577 1.433 . S
C570 H566 0.929 . S
C570 C572 1.378 . S
C570 C574 1.350 . S
C571 C574 1.463 . S
C571 C576 1.350 . S
C571 N579 1.427 . S
C572 H563 0.930 . S
C572 C570 1.378 . S
C572 C573 1.367 . S
C573 C572 1.367 . S
C573 C575 1.433 . S
C574 C570 1.350 . S
C574 C571 1.463 . S
C574 N578 1.427 . S
C575 H565 0.929 . S
C575 C573 1.433 . S
C575 N578 1.384 . S
C576 H567 0.929 . S
C576 C568 1.378 . S
C576 C571 1.350 . S
C577 H564 0.929 . S
C577 C569 1.433 . S
C577 N579 1.384 . S
N578 C574 1.427 . S
N578 C575 1.384 . S
N579 C571 1.427 . S
N579 C577 1.384 . S
H580 C586 0.930 . S
H581 C590 0.930 . S
H582 C595 0.929 . S
H583 C593 0.929 . S
H584 C588 0.929 . S
H585 C594 0.929 . S
C586 H580 0.930 . S
C586 C587 1.367 . S
C586 C594 1.378 . S
C587 C586 1.367 . S
C587 C595 1.433 . S
C588 H584 0.929 . S
C588 C590 1.378 . S
C588 C592 1.350 . S
C589 C592 1.463 1_455 S
C589 C594 1.350 . S
C589 N597 1.427 . S
C590 H581 0.930 . S
C590 C588 1.378 . S
C590 C591 1.367 . S
C591 C590 1.367 . S
C591 C593 1.433 . S
C592 C588 1.350 . S
C592 C589 1.463 1_655 S
C592 N596 1.427 . S
C593 H583 0.929 . S
C593 C591 1.433 . S
C593 N596 1.384 . S
C594 H585 0.929 . S
C594 C586 1.378 . S
C594 C589 1.350 . S
C595 H582 0.929 . S
C595 C587 1.433 . S
C595 N597 1.384 . S
N596 C592 1.427 . S
N596 C593 1.384 . S
N597 C589 1.427 . S
N597 C595 1.384 . S
H598 C604 0.930 . S
H599 C608 0.930 . S
H600 C613 0.929 1_455 S
H601 C611 0.929 1_655 S
H602 C606 0.929 . S
H603 C612 0.929 . S
C604 H598 0.930 . S
C604 C605 1.367 . S
C604 C612 1.378 . S
C605 C604 1.367 . S
C605 C613 1.433 . S
C606 H602 0.929 . S
C606 C608 1.378 . S
C606 C610 1.350 . S
C607 C610 1.463 1_655 S
C607 C612 1.350 . S
C607 N615 1.427 1_655 S
C608 H599 0.930 . S
C608 C606 1.378 . S
C608 C609 1.367 . S
C609 C608 1.367 . S
C609 C611 1.433 . S
C610 C606 1.350 . S
C610 C607 1.463 1_455 S
C610 N614 1.427 1_455 S
C611 H601 0.929 1_455 S
C611 C609 1.433 . S
C611 N614 1.384 1_455 S
C612 H603 0.929 . S
C612 C604 1.378 . S
C612 C607 1.350 . S
C613 H600 0.929 1_655 S
C613 C605 1.433 . S
C613 N615 1.384 1_655 S
N614 C610 1.427 1_655 S
N614 C611 1.384 1_655 S
N615 C607 1.427 1_455 S
N615 C613 1.384 1_455 S
H616 C622 0.930 . S
H617 C626 0.930 . S
H618 C631 0.929 . S
H619 C629 0.929 . S
H620 C624 0.929 . S
H621 C630 0.929 . S
C622 H616 0.930 . S
C622 C623 1.367 . S
C622 C630 1.378 . S
C623 C622 1.367 . S
C623 C631 1.433 . S
C624 H620 0.929 . S
C624 C626 1.378 . S
C624 C628 1.350 . S
C625 C628 1.463 . S
C625 C630 1.350 . S
C625 N633 1.427 . S
C626 H617 0.930 . S
C626 C624 1.378 . S
C626 C627 1.367 . S
C627 C626 1.367 . S
C627 C629 1.433 . S
C628 C624 1.350 . S
C628 C625 1.463 . S
C628 N632 1.427 . S
C629 H619 0.929 . S
C629 C627 1.433 . S
C629 N632 1.384 . S
C630 H621 0.929 . S
C630 C622 1.378 . S
C630 C625 1.350 . S
C631 H618 0.929 . S
C631 C623 1.433 . S
C631 N633 1.384 . S
N632 C628 1.427 . S
N632 C629 1.384 . S
N633 C625 1.427 . S
N633 C631 1.384 . S
H634 C640 0.930 . S
H635 C644 0.930 . S
H636 C649 0.929 . S
H637 C647 0.929 . S
H638 C642 0.929 . S
H639 C648 0.929 . S
C640 H634 0.930 . S
C640 C641 1.367 . S
C640 C648 1.378 . S
C641 C640 1.367 . S
C641 C649 1.433 . S
C642 H638 0.929 . S
C642 C644 1.378 . S
C642 C646 1.350 . S
C643 C646 1.463 . S
C643 C648 1.350 . S
C643 N651 1.427 . S
C644 H635 0.930 . S
C644 C642 1.378 . S
C644 C645 1.367 . S
C645 C644 1.367 . S
C645 C647 1.433 . S
C646 C642 1.350 . S
C646 C643 1.463 . S
C646 N650 1.427 . S
C647 H637 0.929 . S
C647 C645 1.433 . S
C647 N650 1.384 . S
C648 H639 0.929 . S
C648 C640 1.378 . S
C648 C643 1.350 . S
C649 H636 0.929 . S
C649 C641 1.433 . S
C649 N651 1.384 . S
N650 C646 1.427 . S
N650 C647 1.384 . S
N651 C643 1.427 . S
N651 C649 1.384 . S
H652 C658 0.930 . S
H653 C662 0.930 . S
H654 C667 0.929 . S
H655 C665 0.929 . S
H656 C660 0.929 . S
H657 C666 0.929 . S
C658 H652 0.930 . S
C658 C659 1.367 . S
C658 C666 1.378 . S
C659 C658 1.367 . S
C659 C667 1.433 . S
C660 H656 0.929 . S
C660 C662 1.378 . S
C660 C664 1.350 . S
C661 C664 1.463 1_655 S
C661 C666 1.350 . S
C661 N669 1.427 . S
C662 H653 0.930 . S
C662 C660 1.378 . S
C662 C663 1.367 . S
C663 C662 1.367 . S
C663 C665 1.433 . S
C664 C660 1.350 . S
C664 C661 1.463 1_455 S
C664 N668 1.427 . S
C665 H655 0.929 . S
C665 C663 1.433 . S
C665 N668 1.384 . S
C666 H657 0.929 . S
C666 C658 1.378 . S
C666 C661 1.350 . S
C667 H654 0.929 . S
C667 C659 1.433 . S
C667 N669 1.384 . S
N668 C664 1.427 . S
N668 C665 1.384 . S
N669 C661 1.427 . S
N669 C667 1.384 . S
H670 C676 0.930 . S
H671 C680 0.930 . S
H672 C685 0.929 1_655 S
H673 C683 0.929 1_455 S
H674 C678 0.929 . S
H675 C684 0.929 . S
C676 H670 0.930 . S
C676 C677 1.367 . S
C676 C684 1.378 . S
C677 C676 1.367 . S
C677 C685 1.433 . S
C678 H674 0.929 . S
C678 C680 1.378 . S
C678 C682 1.350 . S
C679 C682 1.463 1_455 S
C679 C684 1.350 . S
C679 N687 1.427 1_455 S
C680 H671 0.930 . S
C680 C678 1.378 . S
C680 C681 1.367 . S
C681 C680 1.367 . S
C681 C683 1.433 . S
C682 C678 1.350 . S
C682 C679 1.463 1_655 S
C682 N686 1.427 1_655 S
C683 H673 0.929 1_655 S
C683 C681 1.433 . S
C683 N686 1.384 1_655 S
C684 H675 0.929 . S
C684 C676 1.378 . S
C684 C679 1.350 . S
C685 H672 0.929 1_455 S
C685 C677 1.433 . S
C685 N687 1.384 1_455 S
N686 C682 1.427 1_455 S
N686 C683 1.384 1_455 S
N687 C679 1.427 1_655 S
N687 C685 1.384 1_655 S
H688 C694 0.930 . S
H689 C698 0.930 . S
H690 C703 0.929 . S
H691 C701 0.929 1_556 S
H692 C696 0.929 . S
H693 C702 0.929 . S
C694 H688 0.930 . S
C694 C695 1.367 . S
C694 C702 1.378 . S
C695 C694 1.367 . S
C695 C703 1.433 1_556 S
C696 H692 0.929 . S
C696 C698 1.378 . S
C696 C700 1.350 . S
C697 C700 1.463 . S
C697 C702 1.350 1_554 S
C697 N705 1.427 . S
C698 H689 0.930 . S
C698 C696 1.378 . S
C698 C699 1.367 . S
C699 C698 1.367 . S
C699 C701 1.433 . S
C700 C696 1.350 . S
C700 C697 1.463 . S
C700 N704 1.427 1_554 S
C701 H691 0.929 1_554 S
C701 C699 1.433 . S
C701 N704 1.384 1_554 S
C702 H693 0.929 . S
C702 C694 1.378 . S
C702 C697 1.350 1_556 S
C703 H690 0.929 . S
C703 C695 1.433 1_554 S
C703 N705 1.384 . S
N704 C700 1.427 1_556 S
N704 C701 1.384 1_556 S
N705 C697 1.427 . S
N705 C703 1.384 . S
H706 C712 0.930 . S
H707 C716 0.930 . S
H708 C721 0.929 . S
H709 C719 0.929 . S
H710 C714 0.929 . S
H711 C720 0.929 . S
C712 H706 0.930 . S
C712 C713 1.367 . S
C712 C720 1.378 . S
C713 C712 1.367 . S
C713 C721 1.433 . S
C714 H710 0.929 . S
C714 C716 1.378 . S
C714 C718 1.350 . S
C715 C718 1.463 . S
C715 C720 1.350 . S
C715 N723 1.427 . S
C716 H707 0.930 . S
C716 C714 1.378 . S
C716 C717 1.367 . S
C717 C716 1.367 . S
C717 C719 1.433 . S
C718 C714 1.350 . S
C718 C715 1.463 . S
C718 N722 1.427 . S
C719 H709 0.929 . S
C719 C717 1.433 . S
C719 N722 1.384 . S
C720 H711 0.929 . S
C720 C712 1.378 . S
C720 C715 1.350 . S
C721 H708 0.929 . S
C721 C713 1.433 . S
C721 N723 1.384 . S
N722 C718 1.427 . S
N722 C719 1.384 . S
N723 C715 1.427 . S
N723 C721 1.384 . S
H724 C730 0.930 . S
H725 C734 0.930 . S
H726 C739 0.929 . S
H727 C737 0.929 . S
H728 C732 0.929 . S
H729 C738 0.929 . S
C730 H724 0.930 . S
C730 C731 1.367 . S
C730 C738 1.378 . S
C731 C730 1.367 . S
C731 C739 1.433 . S
C732 H728 0.929 . S
C732 C734 1.378 . S
C732 C736 1.350 . S
C733 C736 1.463 . S
C733 C738 1.350 . S
C733 N741 1.427 . S
C734 H725 0.930 . S
C734 C732 1.378 . S
C734 C735 1.367 . S
C735 C734 1.367 . S
C735 C737 1.433 . S
C736 C732 1.350 . S
C736 C733 1.463 . S
C736 N740 1.427 . S
C737 H727 0.929 . S
C737 C735 1.433 . S
C737 N740 1.384 . S
C738 H729 0.929 . S
C738 C730 1.378 . S
C738 C733 1.350 . S
C739 H726 0.929 . S
C739 C731 1.433 . S
C739 N741 1.384 . S
N740 C736 1.427 . S
N740 C737 1.384 . S
N741 C733 1.427 . S
N741 C739 1.384 . S
H742 C748 0.930 . S
H743 C752 0.930 . S
H744 C757 0.929 . S
H745 C755 0.929 . S
H746 C750 0.929 . S
H747 C756 0.929 . S
C748 H742 0.930 . S
C748 C749 1.367 . S
C748 C756 1.378 . S
C749 C748 1.367 . S
C749 C757 1.433 . S
C750 H746 0.929 . S
C750 C752 1.378 . S
C750 C754 1.350 . S
C751 C754 1.463 . S
C751 C756 1.350 . S
C751 N759 1.427 . S
C752 H743 0.930 . S
C752 C750 1.378 . S
C752 C753 1.367 . S
C753 C752 1.367 . S
C753 C755 1.433 . S
C754 C750 1.350 . S
C754 C751 1.463 . S
C754 N758 1.427 . S
C755 H745 0.929 . S
C755 C753 1.433 . S
C755 N758 1.384 . S
C756 H747 0.929 . S
C756 C748 1.378 . S
C756 C751 1.350 . S
C757 H744 0.929 . S
C757 C749 1.433 . S
C757 N759 1.384 . S
N758 C754 1.427 . S
N758 C755 1.384 . S
N759 C751 1.427 . S
N759 C757 1.384 . S
H760 C766 0.930 . S
H761 C770 0.930 . S
H762 C775 0.929 1_554 S
H763 C773 0.929 . S
H764 C768 0.929 . S
H765 C774 0.929 . S
C766 H760 0.930 . S
C766 C767 1.367 . S
C766 C774 1.378 . S
C767 C766 1.367 . S
C767 C775 1.433 . S
C768 H764 0.929 . S
C768 C770 1.378 . S
C768 C772 1.350 1_554 S
C769 C772 1.463 . S
C769 C774 1.350 . S
C769 N777 1.427 1_556 S
C770 H761 0.930 . S
C770 C768 1.378 . S
C770 C771 1.367 . S
C771 C770 1.367 . S
C771 C773 1.433 1_554 S
C772 C768 1.350 1_556 S
C772 C769 1.463 . S
C772 N776 1.427 . S
C773 H763 0.929 . S
C773 C771 1.433 1_556 S
C773 N776 1.384 . S
C774 H765 0.929 . S
C774 C766 1.378 . S
C774 C769 1.350 . S
C775 H762 0.929 1_556 S
C775 C767 1.433 . S
C775 N777 1.384 1_556 S
N776 C772 1.427 . S
N776 C773 1.384 . S
N777 C769 1.427 1_554 S
N777 C775 1.384 1_554 S
H778 C784 0.930 . S
H779 C788 0.930 . S
H780 C793 0.929 . S
H781 C791 0.929 . S
H782 C786 0.929 . S
H783 C792 0.929 . S
C784 H778 0.930 . S
C784 C785 1.367 . S
C784 C792 1.378 . S
C785 C784 1.367 . S
C785 C793 1.433 . S
C786 H782 0.929 . S
C786 C788 1.378 . S
C786 C790 1.350 . S
C787 C790 1.463 . S
C787 C792 1.350 . S
C787 N795 1.427 . S
C788 H779 0.930 . S
C788 C786 1.378 . S
C788 C789 1.367 . S
C789 C788 1.367 . S
C789 C791 1.433 . S
C790 C786 1.350 . S
C790 C787 1.463 . S
C790 N794 1.427 . S
C791 H781 0.929 . S
C791 C789 1.433 . S
C791 N794 1.384 . S
C792 H783 0.929 . S
C792 C784 1.378 . S
C792 C787 1.350 . S
C793 H780 0.929 . S
C793 C785 1.433 . S
C793 N795 1.384 . S
N794 C790 1.427 . S
N794 C791 1.384 . S
N795 C787 1.427 . S
N795 C793 1.384 . S
H796 C802 0.930 . S
H797 C806 0.930 . S
H798 C811 0.929 . S
H799 C809 0.929 . S
H800 C804 0.929 . S
H801 C810 0.929 . S
C802 H796 0.930 . S
C802 C803 1.367 . S
C802 C810 1.378 . S
C803 C802 1.367 . S
C803 C811 1.433 . S
C804 H800 0.929 . S
C804 C806 1.378 . S
C804 C808 1.350 . S
C805 C808 1.463 . S
C805 C810 1.350 . S
C805 N813 1.427 . S
C806 H797 0.930 . S
C806 C804 1.378 . S
C806 C807 1.367 . S
C807 C806 1.367 . S
C807 C809 1.433 . S
C808 C804 1.350 . S
C808 C805 1.463 . S
C808 N812 1.427 . S
C809 H799 0.929 . S
C809 C807 1.433 . S
C809 N812 1.384 . S
C810 H801 0.929 . S
C810 C802 1.378 . S
C810 C805 1.350 . S
C811 H798 0.929 . S
C811 C803 1.433 . S
C811 N813 1.384 . S
N812 C808 1.427 . S
N812 C809 1.384 . S
N813 C805 1.427 . S
N813 C811 1.384 . S
H814 C820 0.930 . S
H815 C824 0.930 . S
H816 C829 0.929 . S
H817 C827 0.929 . S
H818 C822 0.929 . S
H819 C828 0.929 . S
C820 H814 0.930 . S
C820 C821 1.367 . S
C820 C828 1.378 . S
C821 C820 1.367 . S
C821 C829 1.433 . S
C822 H818 0.929 . S
C822 C824 1.378 . S
C822 C826 1.350 . S
C823 C826 1.463 . S
C823 C828 1.350 . S
C823 N831 1.427 . S
C824 H815 0.930 . S
C824 C822 1.378 . S
C824 C825 1.367 . S
C825 C824 1.367 . S
C825 C827 1.433 . S
C826 C822 1.350 . S
C826 C823 1.463 . S
C826 N830 1.427 . S
C827 H817 0.929 . S
C827 C825 1.433 . S
C827 N830 1.384 . S
C828 H819 0.929 . S
C828 C820 1.378 . S
C828 C823 1.350 . S
C829 H816 0.929 . S
C829 C821 1.433 . S
C829 N831 1.384 . S
N830 C826 1.427 . S
N830 C827 1.384 . S
N831 C823 1.427 . S
N831 C829 1.384 . S
H832 C838 0.930 . S
H833 C842 0.930 . S
H834 C847 0.929 . S
H835 C845 0.929 . S
H836 C840 0.929 . S
H837 C846 0.929 . S
C838 H832 0.930 . S
C838 C839 1.367 . S
C838 C846 1.378 . S
C839 C838 1.367 . S
C839 C847 1.433 . S
C840 H836 0.929 . S
C840 C842 1.378 . S
C840 C844 1.350 . S
C841 C844 1.463 . S
C841 C846 1.350 . S
C841 N849 1.427 . S
C842 H833 0.930 . S
C842 C840 1.378 . S
C842 C843 1.367 . S
C843 C842 1.367 . S
C843 C845 1.433 . S
C844 C840 1.350 . S
C844 C841 1.463 . S
C844 N848 1.427 . S
C845 H835 0.929 . S
C845 C843 1.433 . S
C845 N848 1.384 . S
C846 H837 0.929 . S
C846 C838 1.378 . S
C846 C841 1.350 . S
C847 H834 0.929 . S
C847 C839 1.433 . S
C847 N849 1.384 . S
N848 C844 1.427 . S
N848 C845 1.384 . S
N849 C841 1.427 . S
N849 C847 1.384 . S
H850 C856 0.930 . S
H851 C860 0.930 . S
H852 C865 0.929 . S
H853 C863 0.929 . S
H854 C858 0.929 . S
H855 C864 0.898 1_565 S
C856 H850 0.930 . S
C856 C857 1.367 . S
C856 C864 1.412 . S
C857 C856 1.367 . S
C857 C865 1.433 . S
C858 H854 0.929 . S
C858 C860 1.378 . S
C858 C862 1.350 . S
C859 C862 1.463 . S
C859 C864 1.347 1_565 S
C859 N867 1.427 1_565 S
C860 H851 0.930 . S
C860 C858 1.378 . S
C860 C861 1.367 . S
C861 C860 1.367 . S
C861 C863 1.433 . S
C862 C858 1.350 . S
C862 C859 1.463 . S
C862 N866 1.427 . S
C863 H853 0.929 . S
C863 C861 1.433 . S
C863 N866 1.384 . S
C864 H855 0.898 1_545 S
C864 C856 1.412 . S
C864 C859 1.347 1_545 S
C865 H852 0.929 . S
C865 C857 1.433 . S
C865 N867 1.384 . S
N866 C862 1.427 . S
N866 C863 1.384 . S
N867 C859 1.427 1_545 S
N867 C865 1.384 . S
H868 C874 0.930 . S
H869 C878 0.930 . S
H870 C883 0.929 . S
H871 C881 0.929 . S
H872 C876 0.929 . S
H873 C882 0.929 . S
C874 H868 0.930 . S
C874 C875 1.367 . S
C874 C882 1.378 . S
C875 C874 1.367 . S
C875 C883 1.433 . S
C876 H872 0.929 . S
C876 C878 1.378 1_554 S
C876 C880 1.350 . S
C877 C880 1.463 . S
C877 C882 1.350 . S
C877 N885 1.427 . S
C878 H869 0.930 . S
C878 C876 1.378 1_556 S
C878 C879 1.367 . S
C879 C878 1.367 . S
C879 C881 1.433 . S
C880 C876 1.350 . S
C880 C877 1.463 . S
C880 N884 1.427 1_554 S
C881 H871 0.929 . S
C881 C879 1.433 . S
C881 N884 1.384 . S
C882 H873 0.929 . S
C882 C874 1.378 . S
C882 C877 1.350 . S
C883 H870 0.929 . S
C883 C875 1.433 . S
C883 N885 1.384 . S
N884 C880 1.427 1_556 S
N884 C881 1.384 . S
N885 C877 1.427 . S
N885 C883 1.384 . S
H886 C892 0.930 . S
H887 C896 0.930 . S
H888 C901 0.929 . S
H889 C899 0.929 . S
H890 C894 0.929 . S
H891 C900 0.929 . S
C892 H886 0.930 . S
C892 C893 1.367 . S
C892 C900 1.378 . S
C893 C892 1.367 . S
C893 C901 1.433 . S
C894 H890 0.929 . S
C894 C896 1.378 . S
C894 C898 1.350 . S
C895 C898 1.491 . S
C895 C900 1.325 1_545 S
C895 N903 1.427 1_545 S
C896 H887 0.930 . S
C896 C894 1.378 . S
C896 C897 1.367 . S
C897 C896 1.367 . S
C897 C899 1.433 . S
C898 C894 1.350 . S
C898 C895 1.491 . S
C898 N902 1.427 . S
C899 H889 0.929 . S
C899 C897 1.433 . S
C899 N902 1.384 . S
C900 H891 0.929 . S
C900 C892 1.378 . S
C900 C895 1.325 1_565 S
C901 H888 0.929 . S
C901 C893 1.433 . S
C901 N903 1.388 . S
N902 C898 1.427 . S
N902 C899 1.384 . S
N903 C895 1.427 1_565 S
N903 C901 1.388 . S
H904 C910 0.930 . S
H905 C914 0.930 . S
H906 C919 0.929 . S
H907 C917 0.929 . S
H908 C912 0.929 . S
H909 C918 0.929 . S
C910 H904 0.930 . S
C910 C911 1.367 . S
C910 C918 1.378 . S
C911 C910 1.367 . S
C911 C919 1.433 . S
C912 H908 0.929 . S
C912 C914 1.378 . S
C912 C916 1.350 . S
C913 C916 1.463 . S
C913 C918 1.350 . S
C913 N921 1.427 . S
C914 H905 0.930 . S
C914 C912 1.378 . S
C914 C915 1.367 . S
C915 C914 1.367 . S
C915 C917 1.433 . S
C916 C912 1.350 . S
C916 C913 1.463 . S
C916 N920 1.427 . S
C917 H907 0.929 . S
C917 C915 1.433 . S
C917 N920 1.384 . S
C918 H909 0.929 . S
C918 C910 1.378 . S
C918 C913 1.350 . S
C919 H906 0.929 . S
C919 C911 1.433 . S
C919 N921 1.384 . S
N920 C916 1.427 . S
N920 C917 1.384 . S
N921 C913 1.427 . S
N921 C919 1.384 . S
H922 C928 0.930 . S
H923 C932 0.930 . S
H924 C937 0.929 . S
H925 C935 0.929 . S
H926 C930 0.899 1_545 S
H927 C936 0.929 . S
C928 H922 0.930 . S
C928 C929 1.367 . S
C928 C936 1.378 . S
C929 C928 1.367 . S
C929 C937 1.433 . S
C930 H926 0.899 1_565 S
C930 C932 1.411 . S
C930 C934 1.347 1_565 S
C931 C934 1.463 . S
C931 C936 1.350 . S
C931 N939 1.427 . S
C932 H923 0.930 . S
C932 C930 1.411 . S
C932 C933 1.367 . S
C933 C932 1.367 . S
C933 C935 1.433 . S
C934 C930 1.347 1_545 S
C934 C931 1.463 . S
C934 N938 1.427 1_545 S
C935 H925 0.929 . S
C935 C933 1.433 . S
C935 N938 1.384 . S
C936 H927 0.929 . S
C936 C928 1.378 . S
C936 C931 1.350 . S
C937 H924 0.929 . S
C937 C929 1.433 . S
C937 N939 1.384 . S
N938 C934 1.427 1_565 S
N938 C935 1.384 . S
N939 C931 1.427 . S
N939 C937 1.384 . S
H940 C946 0.930 . S
H941 C950 0.930 . S
H942 C955 0.929 . S
H943 C953 0.929 1_554 S
H944 C948 0.929 . S
H945 C954 0.929 . S
C946 H940 0.930 . S
C946 C947 1.367 . S
C946 C954 1.378 . S
C947 C946 1.367 . S
C947 C955 1.433 1_554 S
C948 H944 0.929 . S
C948 C950 1.378 . S
C948 C952 1.350 . S
C949 C952 1.463 . S
C949 C954 1.350 1_556 S
C949 N957 1.427 . S
C950 H941 0.930 . S
C950 C948 1.378 . S
C950 C951 1.367 . S
C951 C950 1.367 . S
C951 C953 1.433 . S
C952 C948 1.350 . S
C952 C949 1.463 . S
C952 N956 1.427 1_556 S
C953 H943 0.929 1_556 S
C953 C951 1.433 . S
C953 N956 1.384 1_556 S
C954 H945 0.929 . S
C954 C946 1.378 . S
C954 C949 1.350 1_554 S
C955 H942 0.929 . S
C955 C947 1.433 1_556 S
C955 N957 1.384 . S
N956 C952 1.427 1_554 S
N956 C953 1.384 1_554 S
N957 C949 1.427 . S
N957 C955 1.384 . S
H958 C964 0.930 . S
H959 C968 0.930 . S
H960 C973 0.929 . S
H961 C971 0.929 . S
H962 C966 0.929 . S
H963 C972 0.929 1_565 S
C964 H958 0.930 . S
C964 C965 1.367 . S
C964 C972 1.378 . S
C965 C964 1.367 . S
C965 C973 1.433 . S
C966 H962 0.929 . S
C966 C968 1.378 . S
C966 C970 1.350 . S
C967 C970 1.463 . S
C967 C972 1.350 1_565 S
C967 N975 1.427 1_565 S
C968 H959 0.930 . S
C968 C966 1.378 . S
C968 C969 1.367 . S
C969 C968 1.367 . S
C969 C971 1.433 . S
C970 C966 1.350 . S
C970 C967 1.463 . S
C970 N974 1.427 . S
C971 H961 0.929 . S
C971 C969 1.433 . S
C971 N974 1.384 . S
C972 H963 0.929 1_545 S
C972 C964 1.378 . S
C972 C967 1.350 1_545 S
C973 H960 0.929 . S
C973 C965 1.433 . S
C973 N975 1.384 . S
N974 C970 1.427 . S
N974 C971 1.384 . S
N975 C967 1.427 1_545 S
N975 C973 1.384 . S
H976 C982 0.930 1_554 S
H977 C986 0.930 . S
H978 C991 0.929 . S
H979 C989 0.929 . S
H980 C984 0.929 . S
H981 C990 0.929 . S
C982 H976 0.930 1_556 S
C982 C983 1.367 . S
C982 C990 1.378 . S
C983 C982 1.367 . S
C983 C991 1.433 . S
C984 H980 0.929 . S
C984 C986 1.378 . S
C984 C988 1.350 . S
C985 C988 1.463 . S
C985 C990 1.350 . S
C985 N993 1.427 . S
C986 H977 0.930 . S
C986 C984 1.378 . S
C986 C987 1.367 . S
C987 C986 1.367 . S
C987 C989 1.433 . S
C988 C984 1.350 . S
C988 C985 1.463 . S
C988 N992 1.427 . S
C989 H979 0.929 . S
C989 C987 1.433 . S
C989 N992 1.384 . S
C990 H981 0.929 . S
C990 C982 1.378 . S
C990 C985 1.350 . S
C991 H978 0.929 . S
C991 C983 1.433 . S
C991 N993 1.384 . S
N992 C988 1.427 . S
N992 C989 1.384 . S
N993 C985 1.427 . S
N993 C991 1.384 . S
H994 C1000 0.930 . S
H995 C1004 0.930 . S
H996 C1009 0.929 . S
H997 C1007 0.929 . S
H998 C1002 0.929 . S
H999 C1008 0.929 . S
C1000 H994 0.930 . S
C1000 C1001 1.367 . S
C1000 C1008 1.378 . S
C1001 C1000 1.367 . S
C1001 C1009 1.433 . S
C1002 H998 0.929 . S
C1002 C1004 1.378 . S
C1002 C1006 1.350 . S
C1003 C1006 1.463 . S
C1003 C1008 1.350 . S
C1003 N1011 1.427 . S
C1004 H995 0.930 . S
C1004 C1002 1.378 . S
C1004 C1005 1.367 . S
C1005 C1004 1.367 . S
C1005 C1007 1.433 . S
C1006 C1002 1.350 . S
C1006 C1003 1.463 . S
C1006 N1010 1.427 . S
C1007 H997 0.929 . S
C1007 C1005 1.433 . S
C1007 N1010 1.384 . S
C1008 H999 0.929 . S
C1008 C1000 1.378 . S
C1008 C1003 1.350 . S
C1009 H996 0.929 . S
C1009 C1001 1.433 . S
C1009 N1011 1.384 . S
N1010 C1006 1.427 . S
N1010 C1007 1.384 . S
N1011 C1003 1.427 . S
N1011 C1009 1.384 . S
H1012 C1018 0.930 . S
H1013 C1022 0.930 . S
H1014 C1027 0.929 . S
H1015 C1025 0.929 . S
H1016 C1020 0.929 . S
H1017 C1026 0.929 . S
C1018 H1012 0.930 . S
C1018 C1019 1.367 . S
C1018 C1026 1.378 . S
C1019 C1018 1.367 . S
C1019 C1027 1.433 . S
C1020 H1016 0.929 . S
C1020 C1022 1.378 . S
C1020 C1024 1.350 . S
C1021 C1024 1.463 . S
C1021 C1026 1.350 . S
C1021 N1029 1.427 . S
C1022 H1013 0.930 . S
C1022 C1020 1.378 . S
C1022 C1023 1.367 . S
C1023 C1022 1.367 . S
C1023 C1025 1.433 . S
C1024 C1020 1.350 . S
C1024 C1021 1.463 . S
C1024 N1028 1.427 . S
C1025 H1015 0.929 . S
C1025 C1023 1.433 . S
C1025 N1028 1.384 . S
C1026 H1017 0.929 . S
C1026 C1018 1.378 . S
C1026 C1021 1.350 . S
C1027 H1014 0.929 . S
C1027 C1019 1.433 . S
C1027 N1029 1.384 . S
N1028 C1024 1.427 . S
N1028 C1025 1.384 . S
N1029 C1021 1.427 . S
N1029 C1027 1.384 . S
H1030 C1036 0.930 . S
H1031 C1040 0.930 . S
H1032 C1045 0.929 . S
H1033 C1043 0.929 . S
H1034 C1038 0.929 . S
H1035 C1044 0.929 . S
C1036 H1030 0.930 . S
C1036 C1037 1.367 . S
C1036 C1044 1.378 . S
C1037 C1036 1.367 . S
C1037 C1045 1.433 . S
C1038 H1034 0.929 . S
C1038 C1040 1.378 . S
C1038 C1042 1.350 . S
C1039 C1042 1.463 . S
C1039 C1044 1.350 . S
C1039 N1047 1.427 . S
C1040 H1031 0.930 . S
C1040 C1038 1.378 . S
C1040 C1041 1.367 . S
C1041 C1040 1.367 . S
C1041 C1043 1.433 . S
C1042 C1038 1.350 . S
C1042 C1039 1.463 . S
C1042 N1046 1.427 . S
C1043 H1033 0.929 . S
C1043 C1041 1.433 . S
C1043 N1046 1.384 . S
C1044 H1035 0.929 . S
C1044 C1036 1.378 . S
C1044 C1039 1.350 . S
C1045 H1032 0.929 . S
C1045 C1037 1.433 . S
C1045 N1047 1.384 . S
N1046 C1042 1.427 . S
N1046 C1043 1.384 . S
N1047 C1039 1.427 . S
N1047 C1045 1.384 . S
H1048 C1054 0.930 . S
H1049 C1058 0.930 . S
H1050 C1063 0.951 . S
H1051 C1061 0.929 . S
H1052 C1056 0.929 . S
H1053 C1062 0.929 . S
C1054 H1048 0.930 . S
C1054 C1055 1.367 . S
C1054 C1062 1.378 . S
C1055 C1054 1.367 . S
C1055 C1063 1.432 1_554 S
C1056 H1052 0.929 . S
C1056 C1058 1.378 . S
C1056 C1060 1.350 . S
C1057 C1060 1.463 . S
C1057 C1062 1.350 . S
C1057 N1065 1.427 . S
C1058 H1049 0.930 . S
C1058 C1056 1.378 . S
C1058 C1059 1.367 . S
C1059 C1058 1.367 . S
C1059 C1061 1.433 . S
C1060 C1056 1.350 . S
C1060 C1057 1.463 . S
C1060 N1064 1.427 . S
C1061 H1051 0.929 . S
C1061 C1059 1.433 . S
C1061 N1064 1.384 . S
C1062 H1053 0.929 . S
C1062 C1054 1.378 . S
C1062 C1057 1.350 . S
C1063 H1050 0.951 . S
C1063 C1055 1.432 1_556 S
C1063 N1065 1.362 1_556 S
N1064 C1060 1.427 . S
N1064 C1061 1.384 . S
N1065 C1057 1.427 . S
N1065 C1063 1.362 1_554 S
H1066 C1072 0.930 . S
H1067 C1076 0.930 . S
H1068 C1081 0.929 . S
H1069 C1079 0.929 . S
H1070 C1074 0.929 . S
H1071 C1080 0.929 . S
C1072 H1066 0.930 . S
C1072 C1073 1.367 . S
C1072 C1080 1.378 . S
C1073 C1072 1.367 . S
C1073 C1081 1.433 . S
C1074 H1070 0.929 . S
C1074 C1076 1.378 . S
C1074 C1078 1.350 . S
C1075 C1078 1.463 . S
C1075 C1080 1.350 . S
C1075 N1083 1.427 . S
C1076 H1067 0.930 . S
C1076 C1074 1.378 . S
C1076 C1077 1.367 . S
C1077 C1076 1.367 . S
C1077 C1079 1.433 . S
C1078 C1074 1.350 . S
C1078 C1075 1.463 . S
C1078 N1082 1.427 . S
C1079 H1069 0.929 . S
C1079 C1077 1.433 . S
C1079 N1082 1.384 . S
C1080 H1071 0.929 . S
C1080 C1072 1.378 . S
C1080 C1075 1.350 . S
C1081 H1068 0.929 . S
C1081 C1073 1.433 . S
C1081 N1083 1.384 . S
N1082 C1078 1.427 . S
N1082 C1079 1.384 . S
N1083 C1075 1.427 . S
N1083 C1081 1.384 . S
H1084 C1090 0.930 . S
H1085 C1094 0.930 . S
H1086 C1099 0.929 . S
H1087 C1097 0.929 . S
H1088 C1092 0.929 . S
H1089 C1098 0.929 . S
C1090 H1084 0.930 . S
C1090 C1091 1.367 . S
C1090 C1098 1.378 . S
C1091 C1090 1.367 . S
C1091 C1099 1.433 . S
C1092 H1088 0.929 . S
C1092 C1094 1.378 . S
C1092 C1096 1.350 . S
C1093 C1096 1.463 . S
C1093 C1098 1.350 . S
C1093 N1101 1.427 . S
C1094 H1085 0.930 . S
C1094 C1092 1.378 . S
C1094 C1095 1.367 . S
C1095 C1094 1.367 . S
C1095 C1097 1.433 . S
C1096 C1092 1.350 . S
C1096 C1093 1.463 . S
C1096 N1100 1.427 . S
C1097 H1087 0.929 . S
C1097 C1095 1.433 . S
C1097 N1100 1.384 . S
C1098 H1089 0.929 . S
C1098 C1090 1.378 . S
C1098 C1093 1.350 . S
C1099 H1086 0.929 . S
C1099 C1091 1.433 . S
C1099 N1101 1.384 . S
N1100 C1096 1.427 . S
N1100 C1097 1.384 . S
N1101 C1093 1.427 . S
N1101 C1099 1.384 . S
H1102 C1108 0.930 . S
H1103 C1112 0.930 . S
H1104 C1117 0.929 . S
H1105 C1115 0.929 . S
H1106 C1110 0.929 . S
H1107 C1116 0.929 . S
C1108 H1102 0.930 . S
C1108 C1109 1.367 . S
C1108 C1116 1.378 . S
C1109 C1108 1.367 . S
C1109 C1117 1.433 . S
C1110 H1106 0.929 . S
C1110 C1112 1.378 . S
C1110 C1114 1.350 . S
C1111 C1114 1.463 . S
C1111 C1116 1.350 . S
C1111 N1119 1.427 . S
C1112 H1103 0.930 . S
C1112 C1110 1.378 . S
C1112 C1113 1.367 . S
C1113 C1112 1.367 . S
C1113 C1115 1.433 . S
C1114 C1110 1.350 . S
C1114 C1111 1.463 . S
C1114 N1118 1.427 . S
C1115 H1105 0.929 . S
C1115 C1113 1.433 . S
C1115 N1118 1.384 . S
C1116 H1107 0.929 . S
C1116 C1108 1.378 . S
C1116 C1111 1.350 . S
C1117 H1104 0.929 . S
C1117 C1109 1.433 . S
C1117 N1119 1.384 . S
N1118 C1114 1.427 . S
N1118 C1115 1.384 . S
N1119 C1111 1.427 . S
N1119 C1117 1.384 . S
H1120 C1126 0.930 . S
H1121 C1130 0.930 . S
H1122 C1135 0.929 . S
H1123 C1133 0.929 . S
H1124 C1128 0.929 . S
H1125 C1134 0.929 . S
C1126 H1120 0.930 . S
C1126 C1127 1.367 . S
C1126 C1134 1.378 . S
C1127 C1126 1.367 . S
C1127 C1135 1.433 . S
C1128 H1124 0.929 . S
C1128 C1130 1.378 . S
C1128 C1132 1.350 . S
C1129 C1132 1.463 . S
C1129 C1134 1.350 . S
C1129 N1137 1.427 . S
C1130 H1121 0.930 . S
C1130 C1128 1.378 . S
C1130 C1131 1.367 . S
C1131 C1130 1.367 . S
C1131 C1133 1.433 . S
C1132 C1128 1.350 . S
C1132 C1129 1.463 . S
C1132 N1136 1.427 . S
C1133 H1123 0.929 . S
C1133 C1131 1.433 . S
C1133 N1136 1.384 . S
C1134 H1125 0.929 . S
C1134 C1126 1.378 . S
C1134 C1129 1.350 . S
C1135 H1122 0.929 . S
C1135 C1127 1.433 . S
C1135 N1137 1.384 . S
N1136 C1132 1.427 . S
N1136 C1133 1.384 . S
N1137 C1129 1.427 . S
N1137 C1135 1.384 . S
H1138 C1144 0.930 . S
H1139 C1148 0.930 . S
H1140 C1153 0.929 . S
H1141 C1151 0.929 . S
H1142 C1146 0.929 . S
H1143 C1152 0.929 . S
C1144 H1138 0.930 . S
C1144 C1145 1.367 . S
C1144 C1152 1.378 . S
C1145 C1144 1.367 . S
C1145 C1153 1.433 . S
C1146 H1142 0.929 . S
C1146 C1148 1.378 . S
C1146 C1150 1.350 . S
C1147 C1150 1.463 . S
C1147 C1152 1.350 . S
C1147 N1155 1.427 . S
C1148 H1139 0.930 . S
C1148 C1146 1.378 . S
C1148 C1149 1.367 . S
C1149 C1148 1.367 . S
C1149 C1151 1.433 . S
C1150 C1146 1.350 . S
C1150 C1147 1.463 . S
C1150 N1154 1.427 . S
C1151 H1141 0.929 . S
C1151 C1149 1.433 . S
C1151 N1154 1.384 . S
C1152 H1143 0.929 . S
C1152 C1144 1.378 . S
C1152 C1147 1.350 . S
C1153 H1140 0.929 . S
C1153 C1145 1.433 . S
C1153 N1155 1.384 . S
N1154 C1150 1.427 . S
N1154 C1151 1.384 . S
N1155 C1147 1.427 . S
N1155 C1153 1.384 . S
H1156 C1162 0.930 . S
H1157 C1166 0.930 . S
H1158 C1171 0.929 . S
H1159 C1169 0.929 1_554 S
H1160 C1164 0.929 . S
H1161 C1170 0.929 . S
C1162 H1156 0.930 . S
C1162 C1163 1.367 . S
C1162 C1170 1.378 . S
C1163 C1162 1.367 . S
C1163 C1171 1.433 . S
C1164 H1160 0.929 . S
C1164 C1166 1.378 . S
C1164 C1168 1.350 . S
C1165 C1168 1.463 . S
C1165 C1170 1.350 . S
C1165 N1173 1.427 . S
C1166 H1157 0.930 . S
C1166 C1164 1.378 . S
C1166 C1167 1.367 . S
C1167 C1166 1.367 . S
C1167 C1169 1.433 . S
C1168 C1164 1.350 . S
C1168 C1165 1.463 . S
C1168 N1172 1.427 . S
C1169 H1159 0.929 1_556 S
C1169 C1167 1.433 . S
C1169 N1172 1.384 . S
C1170 H1161 0.929 . S
C1170 C1162 1.378 . S
C1170 C1165 1.350 . S
C1171 H1158 0.929 . S
C1171 C1163 1.433 . S
C1171 N1173 1.384 . S
N1172 C1168 1.427 . S
N1172 C1169 1.384 . S
N1173 C1165 1.427 . S
N1173 C1171 1.384 . S
H1174 C1180 0.930 . S
H1175 C1184 0.930 . S
H1176 C1189 0.929 . S
H1177 C1187 0.929 . S
H1178 C1182 0.929 . S
H1179 C1188 0.929 . S
C1180 H1174 0.930 . S
C1180 C1181 1.367 . S
C1180 C1188 1.378 . S
C1181 C1180 1.367 . S
C1181 C1189 1.433 . S
C1182 H1178 0.929 . S
C1182 C1184 1.378 . S
C1182 C1186 1.350 . S
C1183 C1186 1.463 . S
C1183 C1188 1.350 . S
C1183 N1191 1.427 . S
C1184 H1175 0.930 . S
C1184 C1182 1.378 . S
C1184 C1185 1.367 . S
C1185 C1184 1.367 . S
C1185 C1187 1.433 . S
C1186 C1182 1.350 . S
C1186 C1183 1.463 . S
C1186 N1190 1.427 . S
C1187 H1177 0.929 . S
C1187 C1185 1.433 . S
C1187 N1190 1.384 . S
C1188 H1179 0.929 . S
C1188 C1180 1.378 . S
C1188 C1183 1.350 . S
C1189 H1176 0.929 . S
C1189 C1181 1.433 . S
C1189 N1191 1.384 . S
N1190 C1186 1.427 . S
N1190 C1187 1.384 . S
N1191 C1183 1.427 . S
N1191 C1189 1.384 . S
H1192 C1198 0.930 . S
H1193 C1202 0.930 . S
H1194 C1207 0.929 . S
H1195 C1205 0.929 . S
H1196 C1200 0.929 . S
H1197 C1206 0.929 . S
C1198 H1192 0.930 . S
C1198 C1199 1.367 . S
C1198 C1206 1.378 . S
C1199 C1198 1.367 . S
C1199 C1207 1.433 . S
C1200 H1196 0.929 . S
C1200 C1202 1.378 . S
C1200 C1204 1.350 . S
C1201 C1204 1.463 . S
C1201 C1206 1.350 . S
C1201 N1209 1.427 . S
C1202 H1193 0.930 . S
C1202 C1200 1.378 . S
C1202 C1203 1.367 . S
C1203 C1202 1.367 . S
C1203 C1205 1.433 . S
C1204 C1200 1.350 . S
C1204 C1201 1.463 . S
C1204 N1208 1.427 . S
C1205 H1195 0.929 . S
C1205 C1203 1.433 . S
C1205 N1208 1.384 . S
C1206 H1197 0.929 . S
C1206 C1198 1.378 . S
C1206 C1201 1.350 . S
C1207 H1194 0.929 . S
C1207 C1199 1.433 . S
C1207 N1209 1.384 . S
N1208 C1204 1.427 . S
N1208 C1205 1.384 . S
N1209 C1201 1.427 . S
N1209 C1207 1.384 . S
H1210 C1216 0.930 . S
H1211 C1220 0.930 . S
H1212 C1225 0.929 . S
H1213 C1223 0.929 . S
H1214 C1218 0.929 . S
H1215 C1224 0.929 . S
C1216 H1210 0.930 . S
C1216 C1217 1.367 . S
C1216 C1224 1.378 . S
C1217 C1216 1.367 . S
C1217 C1225 1.433 . S
C1218 H1214 0.929 . S
C1218 C1220 1.378 . S
C1218 C1222 1.350 . S
C1219 C1222 1.463 . S
C1219 C1224 1.350 . S
C1219 N1227 1.427 . S
C1220 H1211 0.930 . S
C1220 C1218 1.378 . S
C1220 C1221 1.367 . S
C1221 C1220 1.367 . S
C1221 C1223 1.433 . S
C1222 C1218 1.350 . S
C1222 C1219 1.463 . S
C1222 N1226 1.427 . S
C1223 H1213 0.929 . S
C1223 C1221 1.433 . S
C1223 N1226 1.384 . S
C1224 H1215 0.929 . S
C1224 C1216 1.378 . S
C1224 C1219 1.350 . S
C1225 H1212 0.929 . S
C1225 C1217 1.433 . S
C1225 N1227 1.384 . S
N1226 C1222 1.427 . S
N1226 C1223 1.384 . S
N1227 C1219 1.427 . S
N1227 C1225 1.384 . S
H1228 C1234 0.930 . S
H1229 C1238 0.930 . S
H1230 C1243 0.932 . S
H1231 C1241 0.929 . S
H1232 C1236 0.929 . S
H1233 C1242 0.929 . S
C1234 H1228 0.930 . S
C1234 C1235 1.367 . S
C1234 C1242 1.378 . S
C1235 C1234 1.367 . S
C1235 C1243 1.433 1_554 S
C1236 H1232 0.929 . S
C1236 C1238 1.378 . S
C1236 C1240 1.350 . S
C1237 C1240 1.463 . S
C1237 C1242 1.350 . S
C1237 N1245 1.427 . S
C1238 H1229 0.930 . S
C1238 C1236 1.378 . S
C1238 C1239 1.367 . S
C1239 C1238 1.367 . S
C1239 C1241 1.433 . S
C1240 C1236 1.350 . S
C1240 C1237 1.463 . S
C1240 N1244 1.427 . S
C1241 H1231 0.929 . S
C1241 C1239 1.433 . S
C1241 N1244 1.384 . S
C1242 H1233 0.929 . S
C1242 C1234 1.378 . S
C1242 C1237 1.350 . S
C1243 H1230 0.932 . S
C1243 C1235 1.433 1_556 S
C1243 N1245 1.381 1_556 S
N1244 C1240 1.427 . S
N1244 C1241 1.384 . S
N1245 C1237 1.427 . S
N1245 C1243 1.381 1_554 S
H1246 C1252 0.930 . S
H1247 C1256 0.930 . S
H1248 C1261 0.929 . S
H1249 C1259 0.929 . S
H1250 C1254 0.929 . S
H1251 C1260 0.929 . S
C1252 H1246 0.930 . S
C1252 C1253 1.367 . S
C1252 C1260 1.378 . S
C1253 C1252 1.367 . S
C1253 C1261 1.433 . S
C1254 H1250 0.929 . S
C1254 C1256 1.378 . S
C1254 C1258 1.350 . S
C1255 C1258 1.463 . S
C1255 C1260 1.350 . S
C1255 N1263 1.427 . S
C1256 H1247 0.930 . S
C1256 C1254 1.378 . S
C1256 C1257 1.367 . S
C1257 C1256 1.367 . S
C1257 C1259 1.433 . S
C1258 C1254 1.350 . S
C1258 C1255 1.463 . S
C1258 N1262 1.427 . S
C1259 H1249 0.929 . S
C1259 C1257 1.433 . S
C1259 N1262 1.384 . S
C1260 H1251 0.929 . S
C1260 C1252 1.378 . S
C1260 C1255 1.350 . S
C1261 H1248 0.929 . S
C1261 C1253 1.433 . S
C1261 N1263 1.384 . S
N1262 C1258 1.427 . S
N1262 C1259 1.384 . S
N1263 C1255 1.427 . S
N1263 C1261 1.384 . S
H1264 C1270 0.930 . S
H1265 C1274 0.930 . S
H1266 C1279 0.929 . S
H1267 C1277 0.929 . S
H1268 C1272 0.929 . S
H1269 C1278 0.929 . S
C1270 H1264 0.930 . S
C1270 C1271 1.367 . S
C1270 C1278 1.378 . S
C1271 C1270 1.367 . S
C1271 C1279 1.433 . S
C1272 H1268 0.929 . S
C1272 C1274 1.378 . S
C1272 C1276 1.350 . S
C1273 C1276 1.463 . S
C1273 C1278 1.350 . S
C1273 N1281 1.427 . S
C1274 H1265 0.930 . S
C1274 C1272 1.378 . S
C1274 C1275 1.367 . S
C1275 C1274 1.367 . S
C1275 C1277 1.433 . S
C1276 C1272 1.350 . S
C1276 C1273 1.463 . S
C1276 N1280 1.427 . S
C1277 H1267 0.929 . S
C1277 C1275 1.433 . S
C1277 N1280 1.384 . S
C1278 H1269 0.929 . S
C1278 C1270 1.378 . S
C1278 C1273 1.350 . S
C1279 H1266 0.929 . S
C1279 C1271 1.433 . S
C1279 N1281 1.384 . S
N1280 C1276 1.427 . S
N1280 C1277 1.384 . S
N1281 C1273 1.427 . S
N1281 C1279 1.384 . S
H1282 C1288 0.930 . S
H1283 C1292 0.930 . S
H1284 C1297 0.929 . S
H1285 C1295 0.929 . S
H1286 C1290 0.929 . S
H1287 C1296 0.929 . S
C1288 H1282 0.930 . S
C1288 C1289 1.367 . S
C1288 C1296 1.378 . S
C1289 C1288 1.367 . S
C1289 C1297 1.433 . S
C1290 H1286 0.929 . S
C1290 C1292 1.378 . S
C1290 C1294 1.350 . S
C1291 C1294 1.463 . S
C1291 C1296 1.350 . S
C1291 N1299 1.427 . S
C1292 H1283 0.930 . S
C1292 C1290 1.378 . S
C1292 C1293 1.367 . S
C1293 C1292 1.367 . S
C1293 C1295 1.433 . S
C1294 C1290 1.350 . S
C1294 C1291 1.463 . S
C1294 N1298 1.427 . S
C1295 H1285 0.929 . S
C1295 C1293 1.433 . S
C1295 N1298 1.384 . S
C1296 H1287 0.929 . S
C1296 C1288 1.378 . S
C1296 C1291 1.350 . S
C1297 H1284 0.929 . S
C1297 C1289 1.433 . S
C1297 N1299 1.384 . S
N1298 C1294 1.427 . S
N1298 C1295 1.384 . S
N1299 C1291 1.427 . S
N1299 C1297 1.384 . S
H1300 C1306 0.930 . S
H1301 C1310 0.930 . S
H1302 C1315 0.929 . S
H1303 C1313 0.929 . S
H1304 C1308 0.929 . S
H1305 C1314 0.929 . S
C1306 H1300 0.930 . S
C1306 C1307 1.367 . S
C1306 C1314 1.378 . S
C1307 C1306 1.367 . S
C1307 C1315 1.433 . S
C1308 H1304 0.929 . S
C1308 C1310 1.378 . S
C1308 C1312 1.350 . S
C1309 C1312 1.463 . S
C1309 C1314 1.350 . S
C1309 N1317 1.427 . S
C1310 H1301 0.930 . S
C1310 C1308 1.378 . S
C1310 C1311 1.367 . S
C1311 C1310 1.367 . S
C1311 C1313 1.433 . S
C1312 C1308 1.350 . S
C1312 C1309 1.463 . S
C1312 N1316 1.427 . S
C1313 H1303 0.929 . S
C1313 C1311 1.433 . S
C1313 N1316 1.384 . S
C1314 H1305 0.929 . S
C1314 C1306 1.378 . S
C1314 C1309 1.350 . S
C1315 H1302 0.929 . S
C1315 C1307 1.433 . S
C1315 N1317 1.384 . S
N1316 C1312 1.427 . S
N1316 C1313 1.384 . S
N1317 C1309 1.427 . S
N1317 C1315 1.384 . S
H1318 C1324 0.930 . S
H1319 C1328 0.930 . S
H1320 C1333 0.929 . S
H1321 C1331 0.929 . S
H1322 C1326 0.929 . S
H1323 C1332 0.929 . S
C1324 H1318 0.930 . S
C1324 C1325 1.367 . S
C1324 C1332 1.378 1_554 S
C1325 C1324 1.367 . S
C1325 C1333 1.433 . S
C1326 H1322 0.929 . S
C1326 C1328 1.378 1_554 S
C1326 C1330 1.350 1_554 S
C1327 C1330 1.463 1_454 S
C1327 C1332 1.350 1_554 S
C1327 N1335 1.427 1_455 S
C1328 H1319 0.930 . S
C1328 C1326 1.378 1_556 S
C1328 C1329 1.367 . S
C1329 C1328 1.367 . S
C1329 C1331 1.433 . S
C1330 C1326 1.350 1_556 S
C1330 C1327 1.463 1_656 S
C1330 N1334 1.427 1_655 S
C1331 H1321 0.929 . S
C1331 C1329 1.433 . S
C1331 N1334 1.384 1_655 S
C1332 H1323 0.929 . S
C1332 C1324 1.378 1_556 S
C1332 C1327 1.350 1_556 S
C1333 H1320 0.929 . S
C1333 C1325 1.433 . S
C1333 N1335 1.384 1_455 S
N1334 C1330 1.427 1_455 S
N1334 C1331 1.384 1_455 S
N1335 C1327 1.427 1_655 S
N1335 C1333 1.384 1_655 S
H1336 C1342 0.930 . S
H1337 C1346 0.930 . S
H1338 C1351 0.929 . S
H1339 C1349 0.929 . S
H1340 C1344 0.929 . S
H1341 C1350 0.929 . S
C1342 H1336 0.930 . S
C1342 C1343 1.367 . S
C1342 C1350 1.378 . S
C1343 C1342 1.367 . S
C1343 C1351 1.433 . S
C1344 H1340 0.929 . S
C1344 C1346 1.378 . S
C1344 C1348 1.350 . S
C1345 C1348 1.463 . S
C1345 C1350 1.350 . S
C1345 N1353 1.427 . S
C1346 H1337 0.930 . S
C1346 C1344 1.378 . S
C1346 C1347 1.367 . S
C1347 C1346 1.367 . S
C1347 C1349 1.433 . S
C1348 C1344 1.350 . S
C1348 C1345 1.463 . S
C1348 N1352 1.427 . S
C1349 H1339 0.929 . S
C1349 C1347 1.433 . S
C1349 N1352 1.384 . S
C1350 H1341 0.929 . S
C1350 C1342 1.378 . S
C1350 C1345 1.350 . S
C1351 H1338 0.929 . S
C1351 C1343 1.433 . S
C1351 N1353 1.384 . S
N1352 C1348 1.427 . S
N1352 C1349 1.384 . S
N1353 C1345 1.427 . S
N1353 C1351 1.384 . S
H1354 C1360 0.930 . S
H1355 C1364 0.930 . S
H1356 C1369 0.929 . S
H1357 C1367 0.929 . S
H1358 C1362 0.929 . S
H1359 C1368 0.929 . S
C1360 H1354 0.930 . S
C1360 C1361 1.367 . S
C1360 C1368 1.378 . S
C1361 C1360 1.367 . S
C1361 C1369 1.433 . S
C1362 H1358 0.929 . S
C1362 C1364 1.378 . S
C1362 C1366 1.350 . S
C1363 C1366 1.463 . S
C1363 C1368 1.350 . S
C1363 N1371 1.427 . S
C1364 H1355 0.930 . S
C1364 C1362 1.378 . S
C1364 C1365 1.367 . S
C1365 C1364 1.367 . S
C1365 C1367 1.433 . S
C1366 C1362 1.350 . S
C1366 C1363 1.463 . S
C1366 N1370 1.427 . S
C1367 H1357 0.929 . S
C1367 C1365 1.433 . S
C1367 N1370 1.384 . S
C1368 H1359 0.929 . S
C1368 C1360 1.378 . S
C1368 C1363 1.350 . S
C1369 H1356 0.929 . S
C1369 C1361 1.433 . S
C1369 N1371 1.384 . S
N1370 C1366 1.427 . S
N1370 C1367 1.384 . S
N1371 C1363 1.427 . S
N1371 C1369 1.384 . S
H1372 C1378 0.930 . S
H1373 C1382 0.930 . S
H1374 C1387 0.929 . S
H1375 C1385 0.929 . S
H1376 C1380 0.929 1_545 S
H1377 C1386 0.929 1_565 S
C1378 H1372 0.930 . S
C1378 C1379 1.367 . S
C1378 C1386 1.378 . S
C1379 C1378 1.367 . S
C1379 C1387 1.433 . S
C1380 H1376 0.929 1_565 S
C1380 C1382 1.378 . S
C1380 C1384 1.350 . S
C1381 C1384 1.463 1_446 S
C1381 C1386 1.350 . S
C1381 N1389 1.429 1_456 S
C1382 H1373 0.930 . S
C1382 C1380 1.378 . S
C1382 C1383 1.367 . S
C1383 C1382 1.367 . S
C1383 C1385 1.433 . S
C1384 C1380 1.350 . S
C1384 C1381 1.463 1_664 S
C1384 N1388 1.429 1_654 S
C1385 H1375 0.929 . S
C1385 C1383 1.433 . S
C1385 N1388 1.386 1_654 S
C1386 H1377 0.929 1_545 S
C1386 C1378 1.378 . S
C1386 C1381 1.350 . S
C1387 H1374 0.929 . S
C1387 C1379 1.433 . S
C1387 N1389 1.386 1_456 S
N1388 C1384 1.429 1_456 S
N1388 C1385 1.386 1_456 S
N1389 C1381 1.429 1_654 S
N1389 C1387 1.386 1_654 S
H1390 C1396 0.930 . S
H1391 C1400 0.930 . S
H1392 C1405 0.929 . S
H1393 C1403 0.929 . S
H1394 C1398 0.929 . S
H1395 C1404 0.929 . S
C1396 H1390 0.930 . S
C1396 C1397 1.367 . S
C1396 C1404 1.378 . S
C1397 C1396 1.367 . S
C1397 C1405 1.433 . S
C1398 H1394 0.929 . S
C1398 C1400 1.378 . S
C1398 C1402 1.350 . S
C1399 C1402 1.463 1_545 S
C1399 C1404 1.350 . S
C1399 N1407 1.427 . S
C1400 H1391 0.930 . S
C1400 C1398 1.378 . S
C1400 C1401 1.367 . S
C1401 C1400 1.367 . S
C1401 C1403 1.433 . S
C1402 C1398 1.350 . S
C1402 C1399 1.463 1_565 S
C1402 N1406 1.427 . S
C1403 H1393 0.929 . S
C1403 C1401 1.433 . S
C1403 N1406 1.384 . S
C1404 H1395 0.929 . S
C1404 C1396 1.378 . S
C1404 C1399 1.350 . S
C1405 H1392 0.929 . S
C1405 C1397 1.433 . S
C1405 N1407 1.384 . S
N1406 C1402 1.427 . S
N1406 C1403 1.384 . S
N1407 C1399 1.427 . S
N1407 C1405 1.384 . S
C551 C17 1.854 . S
C555 C357 1.854 . S
C569 C51 1.859 . S
C573 C391 1.856 . S
C587 C85 1.852 . S
C591 C289 1.857 . S
C605 C119 1.859 . S
C609 C323 1.855 . S
C623 C144 1.859 . S
C627 C484 1.856 . S
C641 C178 1.853 . S
C645 C518 1.859 . S
C659 C212 1.856 . S
C663 C416 1.852 . S
C677 C246 1.856 . S
C681 C450 1.858 . S
C695 C310 1.002 . S
C699 C8 1.036 . S
C713 C344 1.022 . S
C717 C42 1.037 . S
C731 C378 1.003 . S
C735 C76 1.035 . S
C749 C276 1.021 . S
C753 C110 1.038 . S
C767 C153 1.036 . S
C771 C455 1.002 . S
C785 C489 1.004 . S
C789 C187 1.035 . S
C803 C523 1.002 . S
C807 C221 1.036 . S
C821 C421 1.002 . S
C825 C255 1.036 . S
C839 C38 1.004 . S
C843 C280 1.037 . S
C857 C314 1.038 . S
C861 C72 1.006 . S
C875 C348 1.038 . S
C879 C106 1.019 . S
C893 C382 1.035 . S
C897 C4 1.017 . S
C911 C425 1.038 . S
C915 C183 1.007 . S
C929 C217 1.006 . S
C933 C459 1.038 . S
C947 C251 1.008 . S
C951 C493 1.038 . S
C965 C527 1.038 . S
C969 C149 1.016 . S
C983 C29 1.233 1_556 S
C987 C514 1.183 . S
C1001 C63 1.227 . S
C1005 C140 1.179 . S
C1019 C446 1.183 . S
C1023 C97 1.233 . S
C1037 C208 1.178 . S
C1041 C131 1.228 . S
C1055 C136 1.228 1_554 S
C1059 C387 1.186 . S
C1073 C170 1.237 . S
C1077 C13 1.193 . S
C1091 C319 1.180 . S
C1095 C204 1.231 . S
C1109 C81 1.188 . S
C1113 C238 1.229 . S
C1127 C301 1.227 . S
C1131 C242 1.179 . S
C1145 C335 1.228 . S
C1149 C412 1.184 . S
C1163 C174 1.192 . S
C1167 C369 1.230 1_556 S
C1181 C480 1.193 . S
C1185 C403 1.237 . S
C1199 C408 1.237 . S
C1203 C115 1.195 . S
C1217 C442 1.236 . S
C1221 C285 1.190 . S
C1235 C476 1.228 1_554 S
C1239 C47 1.184 . S
C1253 C353 1.188 . S
C1257 C510 1.235 . S
C1271 C0 2.128 . S
C1275 C437 2.128 . S
C1289 C34 2.130 . S
C1293 C199 2.130 . S
C1307 C68 2.129 . S
C1311 C505 2.129 . S
C1325 C267 2.132 . S
C1329 C102 2.132 . S
C1343 C165 2.131 . S
C1347 C272 2.131 . S
C1361 C340 2.131 . S
C1365 C233 2.131 . S
C1379 C306 2.128 . S
C1383 C471 2.128 . S
C1397 C539 2.131 . S
C1401 C374 2.131 . S
