# Generated by pormake.
# Topology afi, (4)-cn, num edge types: 1
# Building blocks:
#     Node 0, Type 0, BuildingBlock: QUQFOY_clean_sbu_1, # of connection points: 4
#     Node 1, Type 0, BuildingBlock: QUQFOY_clean_sbu_1, # of connection points: 4
#     Node 2, Type 0, BuildingBlock: QUQFOY_clean_sbu_1, # of connection points: 4
#     Node 3, Type 0, BuildingBlock: QUQFOY_clean_sbu_1, # of connection points: 4
#     Node 4, Type 0, BuildingBlock: QUQFOY_clean_sbu_1, # of connection points: 4
#     Node 5, Type 0, BuildingBlock: QUQFOY_clean_sbu_1, # of connection points: 4
#     Node 6, Type 0, BuildingBlock: QUQFOY_clean_sbu_1, # of connection points: 4
#     Node 7, Type 0, BuildingBlock: QUQFOY_clean_sbu_1, # of connection points: 4
#     Node 8, Type 0, BuildingBlock: QUQFOY_clean_sbu_1, # of connection points: 4
#     Node 9, Type 0, BuildingBlock: QUQFOY_clean_sbu_1, # of connection points: 4
#     Node 10, Type 0, BuildingBlock: QUQFOY_clean_sbu_1, # of connection points: 4
#     Node 11, Type 0, BuildingBlock: QUQFOY_clean_sbu_1, # of connection points: 4
#     Node 12, Type 0, BuildingBlock: QUQFOY_clean_sbu_1, # of connection points: 4
#     Node 13, Type 0, BuildingBlock: QUQFOY_clean_sbu_1, # of connection points: 4
#     Node 14, Type 0, BuildingBlock: QUQFOY_clean_sbu_1, # of connection points: 4
#     Node 15, Type 0, BuildingBlock: QUQFOY_clean_sbu_1, # of connection points: 4
#     Node 16, Type 0, BuildingBlock: QUQFOY_clean_sbu_1, # of connection points: 4
#     Node 17, Type 0, BuildingBlock: QUQFOY_clean_sbu_1, # of connection points: 4
#     Node 18, Type 0, BuildingBlock: QUQFOY_clean_sbu_1, # of connection points: 4
#     Node 19, Type 0, BuildingBlock: QUQFOY_clean_sbu_1, # of connection points: 4
#     Node 20, Type 0, BuildingBlock: QUQFOY_clean_sbu_1, # of connection points: 4
#     Node 21, Type 0, BuildingBlock: QUQFOY_clean_sbu_1, # of connection points: 4
#     Node 22, Type 0, BuildingBlock: QUQFOY_clean_sbu_1, # of connection points: 4
#     Node 23, Type 0, BuildingBlock: QUQFOY_clean_sbu_1, # of connection points: 4
#     Edge 24, Type (0, 0), BuildingBlock: KIFKEQ_clean_linker_1, # of connection points: 2
#     Edge 25, Type (0, 0), BuildingBlock: KIFKEQ_clean_linker_1, # of connection points: 2
#     Edge 26, Type (0, 0), BuildingBlock: KIFKEQ_clean_linker_1, # of connection points: 2
#     Edge 27, Type (0, 0), BuildingBlock: KIFKEQ_clean_linker_1, # of connection points: 2
#     Edge 28, Type (0, 0), BuildingBlock: KIFKEQ_clean_linker_1, # of connection points: 2
#     Edge 29, Type (0, 0), BuildingBlock: KIFKEQ_clean_linker_1, # of connection points: 2
#     Edge 30, Type (0, 0), BuildingBlock: KIFKEQ_clean_linker_1, # of connection points: 2
#     Edge 31, Type (0, 0), BuildingBlock: KIFKEQ_clean_linker_1, # of connection points: 2
#     Edge 32, Type (0, 0), BuildingBlock: KIFKEQ_clean_linker_1, # of connection points: 2
#     Edge 33, Type (0, 0), BuildingBlock: KIFKEQ_clean_linker_1, # of connection points: 2
#     Edge 34, Type (0, 0), BuildingBlock: KIFKEQ_clean_linker_1, # of connection points: 2
#     Edge 35, Type (0, 0), BuildingBlock: KIFKEQ_clean_linker_1, # of connection points: 2
#     Edge 36, Type (0, 0), BuildingBlock: KIFKEQ_clean_linker_1, # of connection points: 2
#     Edge 37, Type (0, 0), BuildingBlock: KIFKEQ_clean_linker_1, # of connection points: 2
#     Edge 38, Type (0, 0), BuildingBlock: KIFKEQ_clean_linker_1, # of connection points: 2
#     Edge 39, Type (0, 0), BuildingBlock: KIFKEQ_clean_linker_1, # of connection points: 2
#     Edge 40, Type (0, 0), BuildingBlock: KIFKEQ_clean_linker_1, # of connection points: 2
#     Edge 41, Type (0, 0), BuildingBlock: KIFKEQ_clean_linker_1, # of connection points: 2
#     Edge 42, Type (0, 0), BuildingBlock: KIFKEQ_clean_linker_1, # of connection points: 2
#     Edge 43, Type (0, 0), BuildingBlock: KIFKEQ_clean_linker_1, # of connection points: 2
#     Edge 44, Type (0, 0), BuildingBlock: KIFKEQ_clean_linker_1, # of connection points: 2
#     Edge 45, Type (0, 0), BuildingBlock: KIFKEQ_clean_linker_1, # of connection points: 2
#     Edge 46, Type (0, 0), BuildingBlock: KIFKEQ_clean_linker_1, # of connection points: 2
#     Edge 47, Type (0, 0), BuildingBlock: KIFKEQ_clean_linker_1, # of connection points: 2
#     Edge 48, Type (0, 0), BuildingBlock: KIFKEQ_clean_linker_1, # of connection points: 2
#     Edge 49, Type (0, 0), BuildingBlock: KIFKEQ_clean_linker_1, # of connection points: 2
#     Edge 50, Type (0, 0), BuildingBlock: KIFKEQ_clean_linker_1, # of connection points: 2
#     Edge 51, Type (0, 0), BuildingBlock: KIFKEQ_clean_linker_1, # of connection points: 2
#     Edge 52, Type (0, 0), BuildingBlock: KIFKEQ_clean_linker_1, # of connection points: 2
#     Edge 53, Type (0, 0), BuildingBlock: KIFKEQ_clean_linker_1, # of connection points: 2
#     Edge 54, Type (0, 0), BuildingBlock: KIFKEQ_clean_linker_1, # of connection points: 2
#     Edge 55, Type (0, 0), BuildingBlock: KIFKEQ_clean_linker_1, # of connection points: 2
#     Edge 56, Type (0, 0), BuildingBlock: KIFKEQ_clean_linker_1, # of connection points: 2
#     Edge 57, Type (0, 0), BuildingBlock: KIFKEQ_clean_linker_1, # of connection points: 2
#     Edge 58, Type (0, 0), BuildingBlock: KIFKEQ_clean_linker_1, # of connection points: 2
#     Edge 59, Type (0, 0), BuildingBlock: KIFKEQ_clean_linker_1, # of connection points: 2
#     Edge 60, Type (0, 0), BuildingBlock: KIFKEQ_clean_linker_1, # of connection points: 2
#     Edge 61, Type (0, 0), BuildingBlock: KIFKEQ_clean_linker_1, # of connection points: 2
#     Edge 62, Type (0, 0), BuildingBlock: KIFKEQ_clean_linker_1, # of connection points: 2
#     Edge 63, Type (0, 0), BuildingBlock: KIFKEQ_clean_linker_1, # of connection points: 2
#     Edge 64, Type (0, 0), BuildingBlock: KIFKEQ_clean_linker_1, # of connection points: 2
#     Edge 65, Type (0, 0), BuildingBlock: KIFKEQ_clean_linker_1, # of connection points: 2
#     Edge 66, Type (0, 0), BuildingBlock: KIFKEQ_clean_linker_1, # of connection points: 2
#     Edge 67, Type (0, 0), BuildingBlock: KIFKEQ_clean_linker_1, # of connection points: 2
#     Edge 68, Type (0, 0), BuildingBlock: KIFKEQ_clean_linker_1, # of connection points: 2
#     Edge 69, Type (0, 0), BuildingBlock: KIFKEQ_clean_linker_1, # of connection points: 2
#     Edge 70, Type (0, 0), BuildingBlock: KIFKEQ_clean_linker_1, # of connection points: 2
#     Edge 71, Type (0, 0), BuildingBlock: KIFKEQ_clean_linker_1, # of connection points: 2
# Relax obj value: 0.129
# Max RMSD: 0.169
# Mean RMSD: 0.169
data_MOF--net-afi--node1-QUQFOY_clean_sbu_1--edge1-KIFKEQ_clean_linker_1
_symmetry_space_group_name_H-M    P1
_symmetry_Int_Tables_number       1
_symmetry_cell_setting            triclinic
loop_
_symmetry_equiv_pos_as_xyz
'x, y, z'
_cell_length_a     69.726056
_cell_length_b     69.707928
_cell_length_c     45.436545
_cell_angle_alpha  90.022046
_cell_angle_beta   89.987741
_cell_angle_gamma 120.00974
loop_
_atom_site_label
_atom_site_type_symbol
_atom_site_fract_x
_atom_site_fract_y
_atom_site_fract_z
_atom_type_partial_charge
O0 O 0.48176 0.12787 0.23379 0.0
Cd1 Cd 0.45116 0.12295 0.22225 0.0
Cd2 Cd 0.45928 0.10473 0.17168 0.0
O3 O 0.49021 0.11836 0.19144 0.0
O4 O 0.44512 0.1397 0.25275 0.0
O5 O 0.44814 0.14804 0.20541 0.0
C6 C 0.44502 0.15228 0.2321 0.0
C7 C 0.45888 0.10757 0.12009 0.0
C8 C 0.49541 0.12577 0.21754 0.0
C9 C 0.42162 0.07436 0.21256 0.0
O10 O 0.4336 0.07615 0.19041 0.0
O11 O 0.42516 0.0914 0.22706 0.0
O12 O 0.46433 0.09452 0.13288 0.0
O13 O 0.4535 0.11921 0.13663 0.0
O14 O 0.35354 0.48179 0.23401 0.0
Cd15 Cd 0.32745 0.45096 0.22435 0.0
Cd16 Cd 0.35309 0.4572 0.17334 0.0
O17 O 0.37174 0.4884 0.19197 0.0
O18 O 0.30507 0.44624 0.25486 0.0
O19 O 0.29927 0.44759 0.20727 0.0
C20 C 0.2922 0.44546 0.23402 0.0
C21 C 0.34962 0.45584 0.12174 0.0
C22 C 0.3696 0.49456 0.21753 0.0
C23 C 0.34531 0.42032 0.21631 0.0
O24 O 0.35482 0.4312 0.19314 0.0
O25 O 0.33274 0.42496 0.23112 0.0
O26 O 0.36771 0.45984 0.13456 0.0
O27 O 0.33317 0.45259 0.13824 0.0
O28 O 0.86914 0.35408 0.23311 0.0
Cd29 Cd 0.87519 0.32879 0.22359 0.0
Cd30 Cd 0.89528 0.35505 0.17324 0.0
O31 O 0.88322 0.37377 0.19272 0.0
O32 O 0.85798 0.30629 0.25421 0.0
O33 O 0.8509 0.30017 0.20664 0.0
C34 C 0.84609 0.29317 0.23343 0.0
C35 C 0.89233 0.35175 0.1217 0.0
C36 C 0.87361 0.37089 0.21745 0.0
C37 C 0.92418 0.34728 0.21581 0.0
O38 O 0.92304 0.35662 0.19235 0.0
O39 O 0.90686 0.335 0.23066 0.0
O40 O 0.9061 0.37004 0.13442 0.0
O41 O 0.88009 0.33495 0.13827 0.0
O42 O 0.51724 0.87256 0.23493 0.0
Cd43 Cd 0.54783 0.87705 0.22435 0.0
Cd44 Cd 0.54099 0.89598 0.1737 0.0
O45 O 0.50999 0.88356 0.19288 0.0
O46 O 0.5529 0.85942 0.25452 0.0
O47 O 0.55079 0.8521 0.20689 0.0
C48 C 0.5533 0.84722 0.23351 0.0
C49 C 0.54197 0.89338 0.12212 0.0
C50 C 0.50422 0.87564 0.21867 0.0
C51 C 0.57832 0.92546 0.21582 0.0
O52 O 0.5671 0.92395 0.19296 0.0
O53 O 0.57397 0.90832 0.2306 0.0
O54 O 0.53792 0.9075 0.1348 0.0
O55 O 0.54545 0.88042 0.13877 0.0
O56 O 0.64438 0.51586 0.23484 0.0
Cd57 Cd 0.66999 0.54652 0.22335 0.0
Cd58 Cd 0.64391 0.53848 0.1728 0.0
O59 O 0.62654 0.5075 0.19242 0.0
O60 O 0.69302 0.55266 0.2535 0.0
O61 O 0.69798 0.54961 0.20603 0.0
C62 C 0.70555 0.55279 0.2326 0.0
C63 C 0.64735 0.53904 0.12123 0.0
C64 C 0.62868 0.50224 0.21851 0.0
C65 C 0.65083 0.57593 0.21387 0.0
O66 O 0.64082 0.56405 0.19156 0.0
O67 O 0.66429 0.57239 0.22842 0.0
O68 O 0.62878 0.53349 0.13391 0.0
O69 O 0.66432 0.54442 0.13786 0.0
O70 O 0.12653 0.64487 0.23511 0.0
Cd71 Cd 0.1222 0.67087 0.22323 0.0
Cd72 Cd 0.10481 0.64516 0.1722 0.0
O73 O 0.11804 0.62763 0.19224 0.0
O74 O 0.13914 0.69386 0.25344 0.0
O75 O 0.14763 0.69853 0.20609 0.0
C76 C 0.15193 0.70616 0.23265 0.0
C77 C 0.10807 0.64832 0.12067 0.0
C78 C 0.12482 0.62938 0.21862 0.0
C79 C 0.07397 0.65255 0.21202 0.0
O80 O 0.07605 0.64234 0.19011 0.0
O81 O 0.09077 0.66587 0.22701 0.0
O82 O 0.09486 0.62985 0.13344 0.0
O83 O 0.11964 0.66536 0.1372 0.0
O84 O 0.86917 0.51545 0.28801 0.0
Cd85 Cd 0.87517 0.54701 0.29578 0.0
Cd86 Cd 0.89635 0.54231 0.34608 0.0
O87 O 0.88513 0.51132 0.32758 0.0
O88 O 0.85728 0.55117 0.26506 0.0
O89 O 0.85113 0.55174 0.31269 0.0
C90 C 0.8458 0.55307 0.28585 0.0
C91 C 0.89409 0.54379 0.39759 0.0
C92 C 0.87462 0.5038 0.30355 0.0
C93 C 0.92405 0.57843 0.30197 0.0
O94 O 0.92327 0.56879 0.32607 0.0
O95 O 0.90658 0.57246 0.28703 0.0
O96 O 0.90873 0.54053 0.38492 0.0
O97 O 0.88041 0.5462 0.38098 0.0
O98 O 0.35406 0.87162 0.2851 0.0
Cd99 Cd 0.32783 0.87602 0.29522 0.0
Cd100 Cd 0.35348 0.89528 0.34602 0.0
O101 O 0.37235 0.88309 0.32709 0.0
O102 O 0.30544 0.85838 0.26469 0.0
O103 O 0.29975 0.85099 0.31225 0.0
C104 C 0.29264 0.84615 0.2855 0.0
C105 C 0.34976 0.89276 0.39758 0.0
C106 C 0.37023 0.87499 0.30141 0.0
C107 C 0.34549 0.92445 0.30353 0.0
O108 O 0.35513 0.92308 0.32656 0.0
O109 O 0.33288 0.90724 0.28873 0.0
O110 O 0.36791 0.90697 0.38498 0.0
O111 O 0.33342 0.87966 0.38088 0.0
O112 O 0.4817 0.35337 0.28577 0.0
Cd113 Cd 0.45111 0.32762 0.29721 0.0
Cd114 Cd 0.45917 0.35381 0.34803 0.0
O115 O 0.49006 0.37122 0.3282 0.0
O116 O 0.44512 0.3049 0.2666 0.0
O117 O 0.44811 0.29949 0.31391 0.0
C118 C 0.44502 0.29218 0.2872 0.0
C119 C 0.45898 0.35065 0.39962 0.0
C120 C 0.4953 0.36909 0.30209 0.0
C121 C 0.42148 0.34653 0.30718 0.0
O122 O 0.43341 0.35664 0.3294 0.0
O123 O 0.4251 0.33315 0.29254 0.0
O124 O 0.46432 0.36913 0.38681 0.0
O125 O 0.45354 0.3336 0.38311 0.0
O126 O 0.12734 0.48244 0.28449 0.0
Cd127 Cd 0.12261 0.45188 0.29593 0.0
Cd128 Cd 0.1048 0.45981 0.34682 0.0
O129 O 0.1181 0.49072 0.32715 0.0
O130 O 0.13961 0.44591 0.26573 0.0
O131 O 0.1477 0.4491 0.31318 0.0
C132 C 0.15212 0.44595 0.2866 0.0
C133 C 0.10783 0.45955 0.39836 0.0
C134 C 0.1253 0.49601 0.30098 0.0
C135 C 0.07419 0.4221 0.30615 0.0
O136 O 0.07614 0.43405 0.32841 0.0
O137 O 0.0911 0.42574 0.29131 0.0
O138 O 0.09466 0.46487 0.38563 0.0
O139 O 0.11948 0.45421 0.38178 0.0
O140 O 0.64469 0.12887 0.28565 0.0
Cd141 Cd 0.67041 0.12401 0.29719 0.0
Cd142 Cd 0.64406 0.10563 0.34768 0.0
O143 O 0.62664 0.11912 0.32792 0.0
O144 O 0.69328 0.14085 0.26683 0.0
O145 O 0.69846 0.14907 0.31422 0.0
C146 C 0.70591 0.15337 0.28758 0.0
C147 C 0.64727 0.10843 0.39928 0.0
C148 C 0.62886 0.12661 0.30186 0.0
C149 C 0.65152 0.07543 0.3067 0.0
O150 O 0.64132 0.07713 0.3289 0.0
O151 O 0.66493 0.0925 0.29223 0.0
O152 O 0.62878 0.09533 0.38645 0.0
O153 O 0.66428 0.12015 0.38278 0.0
O154 O 0.51611 0.64514 0.28232 0.0
Cd155 Cd 0.54668 0.67088 0.29376 0.0
Cd156 Cd 0.53881 0.64499 0.34449 0.0
O157 O 0.50785 0.62749 0.32489 0.0
O158 O 0.5526 0.69391 0.26369 0.0
O159 O 0.54966 0.6988 0.31122 0.0
C160 C 0.55271 0.70639 0.28466 0.0
C161 C 0.53922 0.64816 0.39611 0.0
C162 C 0.50256 0.62948 0.29875 0.0
C163 C 0.57621 0.65191 0.30329 0.0
O164 O 0.56441 0.64199 0.32568 0.0
O165 O 0.57261 0.66529 0.28864 0.0
O166 O 0.53382 0.62969 0.38324 0.0
O167 O 0.54457 0.66521 0.37964 0.0
O168 O 0.51608 0.87148 0.78505 0.0
Cd169 Cd 0.54652 0.87591 0.79663 0.0
Cd170 Cd 0.53834 0.89361 0.84778 0.0
O171 O 0.50753 0.88034 0.82781 0.0
O172 O 0.55253 0.85912 0.7661 0.0
O173 O 0.54896 0.85046 0.81336 0.0
C174 C 0.55223 0.84629 0.7867 0.0
C175 C 0.53846 0.89045 0.89935 0.0
C176 C 0.50241 0.87338 0.80151 0.0
C177 C 0.57638 0.9243 0.80758 0.0
O178 O 0.56422 0.92231 0.8296 0.0
O179 O 0.57284 0.90743 0.79268 0.0
O180 O 0.53311 0.9036 0.88664 0.0
O181 O 0.54388 0.87887 0.88276 0.0
O182 O 0.6436 0.51772 0.7862 0.0
Cd183 Cd 0.67032 0.54835 0.79527 0.0
Cd184 Cd 0.64509 0.54249 0.84691 0.0
O185 O 0.62543 0.5115 0.82818 0.0
O186 O 0.69179 0.55145 0.76417 0.0
O187 O 0.69882 0.552 0.8117 0.0
C188 C 0.70511 0.55283 0.78475 0.0
C189 C 0.64868 0.54354 0.8985 0.0
C190 C 0.62733 0.50524 0.80259 0.0
C191 C 0.65377 0.57998 0.80426 0.0
O192 O 0.64438 0.56916 0.82752 0.0
O193 O 0.66572 0.57485 0.78881 0.0
O194 O 0.63076 0.54019 0.88582 0.0
O195 O 0.66489 0.54631 0.88186 0.0
O196 O 0.1268 0.64397 0.78675 0.0
Cd197 Cd 0.12182 0.6701 0.79558 0.0
Cd198 Cd 0.1017 0.6446 0.84655 0.0
O199 O 0.11218 0.6245 0.82719 0.0
O200 O 0.13962 0.6923 0.76488 0.0
O201 O 0.14661 0.69845 0.81246 0.0
C202 C 0.15165 0.70534 0.78565 0.0
C203 C 0.10475 0.64828 0.89805 0.0
C204 C 0.12171 0.62701 0.80246 0.0
C205 C 0.07328 0.65343 0.80419 0.0
O206 O 0.0745 0.64433 0.82783 0.0
O207 O 0.09044 0.66491 0.78865 0.0
O208 O 0.08991 0.6304 0.88554 0.0
O209 O 0.11823 0.66436 0.88126 0.0
O210 O 0.48276 0.12863 0.78704 0.0
Cd211 Cd 0.45141 0.12303 0.79535 0.0
Cd212 Cd 0.45634 0.10206 0.84574 0.0
O213 O 0.48719 0.11313 0.82688 0.0
O214 O 0.44719 0.14112 0.76493 0.0
O215 O 0.44721 0.14733 0.81264 0.0
C216 C 0.44572 0.15274 0.7859 0.0
C217 C 0.45519 0.10455 0.89731 0.0
C218 C 0.4945 0.12328 0.80258 0.0
C219 C 0.41991 0.07419 0.802 0.0
O220 O 0.42976 0.07505 0.82595 0.0
O221 O 0.42573 0.09162 0.78701 0.0
O222 O 0.4584 0.08987 0.88463 0.0
O223 O 0.45262 0.11811 0.88067 0.0
O224 O 0.35405 0.48413 0.78715 0.0
Cd225 Cd 0.32836 0.45308 0.79718 0.0
Cd226 Cd 0.35479 0.45929 0.84741 0.0
O227 O 0.3738 0.48989 0.82753 0.0
O228 O 0.30577 0.44787 0.7667 0.0
O229 O 0.30007 0.44953 0.81425 0.0
C230 C 0.29291 0.44714 0.78753 0.0
C231 C 0.35136 0.45906 0.89894 0.0
C232 C 0.37099 0.49647 0.80263 0.0
C233 C 0.34611 0.42196 0.80545 0.0
O234 O 0.35582 0.43272 0.82861 0.0
O235 O 0.33388 0.42708 0.79063 0.0
O236 O 0.36964 0.46342 0.88635 0.0
O237 O 0.33467 0.45469 0.88224 0.0
O238 O 0.871 0.35392 0.78757 0.0
Cd239 Cd 0.87601 0.32788 0.79686 0.0
Cd240 Cd 0.8965 0.35414 0.84737 0.0
O241 O 0.88573 0.37388 0.82765 0.0
O242 O 0.85825 0.30552 0.7663 0.0
O243 O 0.85114 0.29967 0.8139 0.0
C244 C 0.84616 0.29263 0.78714 0.0
C245 C 0.89381 0.35089 0.89892 0.0
C246 C 0.87605 0.37103 0.80295 0.0
C247 C 0.92459 0.3446 0.80521 0.0
O248 O 0.92356 0.35414 0.82854 0.0
O249 O 0.90732 0.33288 0.78999 0.0
O250 O 0.90853 0.36868 0.88614 0.0
O251 O 0.88022 0.33467 0.8824 0.0
O252 O 0.12703 0.48237 0.73221 0.0
Cd253 Cd 0.12232 0.45136 0.72342 0.0
Cd254 Cd 0.10178 0.45643 0.67254 0.0
O255 O 0.11207 0.48697 0.69193 0.0
O256 O 0.14017 0.44718 0.75425 0.0
O257 O 0.14731 0.44807 0.70671 0.0
C258 C 0.15231 0.44628 0.73355 0.0
C259 C 0.10471 0.45583 0.62102 0.0
C260 C 0.12171 0.4941 0.71658 0.0
C261 C 0.07384 0.41903 0.71499 0.0
O262 O 0.07482 0.42929 0.69139 0.0
O263 O 0.09109 0.42493 0.73041 0.0
O264 O 0.08978 0.45866 0.63362 0.0
O265 O 0.11834 0.45341 0.63771 0.0
O266 O 0.64432 0.12887 0.73231 0.0
Cd267 Cd 0.67004 0.12319 0.72405 0.0
Cd268 Cd 0.64415 0.10224 0.67359 0.0
O269 O 0.62436 0.11329 0.69249 0.0
O270 O 0.69226 0.14107 0.75468 0.0
O271 O 0.69865 0.14747 0.70703 0.0
C272 C 0.70547 0.15272 0.73384 0.0
C273 C 0.64783 0.10483 0.62203 0.0
C274 C 0.62723 0.12349 0.71677 0.0
C275 C 0.65259 0.07432 0.71731 0.0
O276 O 0.64366 0.07519 0.69331 0.0
O277 O 0.66418 0.09174 0.73232 0.0
O278 O 0.62993 0.09013 0.63465 0.0
O279 O 0.66396 0.11836 0.63873 0.0
O280 O 0.51537 0.64505 0.72946 0.0
Cd281 Cd 0.54662 0.67101 0.72096 0.0
Cd282 Cd 0.54141 0.64481 0.67045 0.0
O283 O 0.51072 0.62494 0.6897 0.0
O284 O 0.55086 0.69297 0.75196 0.0
O285 O 0.55054 0.69961 0.70447 0.0
C286 C 0.55216 0.70624 0.73138 0.0
C287 C 0.54232 0.64838 0.6189 0.0
C288 C 0.50356 0.62787 0.71408 0.0
C289 C 0.57842 0.65405 0.7135 0.0
O290 O 0.56828 0.64475 0.68983 0.0
O291 O 0.57263 0.66565 0.72857 0.0
O292 O 0.53923 0.63053 0.63154 0.0
O293 O 0.54484 0.66449 0.63557 0.0
O294 O 0.86911 0.51428 0.73106 0.0
Cd295 Cd 0.87469 0.54567 0.72278 0.0
Cd296 Cd 0.89508 0.54024 0.6718 0.0
O297 O 0.88397 0.50947 0.69087 0.0
O298 O 0.85661 0.54914 0.75396 0.0
O299 O 0.85064 0.55069 0.70648 0.0
C300 C 0.8451 0.55131 0.73345 0.0
C301 C 0.8922 0.54078 0.62027 0.0
C302 C 0.87416 0.50236 0.7154 0.0
C303 C 0.92348 0.57712 0.71473 0.0
O304 O 0.92235 0.56688 0.69101 0.0
O305 O 0.90624 0.57149 0.73011 0.0
O306 O 0.90634 0.53677 0.63293 0.0
O307 O 0.87952 0.54469 0.63692 0.0
O308 O 0.35322 0.87126 0.73476 0.0
Cd309 Cd 0.3272 0.87565 0.72307 0.0
Cd310 Cd 0.35305 0.89327 0.67196 0.0
O311 O 0.37061 0.88005 0.69201 0.0
O312 O 0.30422 0.85867 0.75332 0.0
O313 O 0.29946 0.85023 0.70596 0.0
C314 C 0.29186 0.84592 0.73254 0.0
C315 C 0.34988 0.8901 0.62037 0.0
C316 C 0.36879 0.87315 0.71833 0.0
C317 C 0.34568 0.92401 0.7121 0.0
O318 O 0.35583 0.92197 0.69009 0.0
O319 O 0.33236 0.90716 0.72703 0.0
O320 O 0.36835 0.90328 0.63315 0.0
O321 O 0.33285 0.8785 0.6369 0.0
O322 O 0.48055 0.35497 0.73614 0.0
Cd323 Cd 0.45032 0.32835 0.72522 0.0
Cd324 Cd 0.45727 0.35387 0.67409 0.0
O325 O 0.48804 0.37285 0.69375 0.0
O326 O 0.44533 0.30567 0.75544 0.0
O327 O 0.44826 0.30076 0.70792 0.0
C328 C 0.44551 0.29329 0.73453 0.0
C329 C 0.45664 0.35046 0.62248 0.0
C330 C 0.49359 0.37103 0.71982 0.0
C331 C 0.41919 0.34533 0.71527 0.0
O332 O 0.43072 0.35523 0.6927 0.0
O333 O 0.4236 0.33272 0.7304 0.0
O334 O 0.46043 0.36853 0.6352 0.0
O335 O 0.45332 0.33405 0.63909 0.0
H336 H 0.39736 0.06458 0.26324 0.0
H337 H 0.40874 0.03386 0.18767 0.0
H338 H 0.37468 0.02826 0.28555 0.0
H339 H 0.38603 0.99754 0.21015 0.0
H340 H 0.33344 0.93372 0.25049 0.0
H341 H 0.34773 0.96994 0.22755 0.0
H342 H 0.38499 0.00127 0.30629 0.0
H343 H 0.37073 0.96508 0.32937 0.0
C344 C 0.39474 0.05008 0.25112 0.0
C345 C 0.40508 0.05217 0.22374 0.0
C346 C 0.38182 0.02929 0.26403 0.0
C347 C 0.37875 0.01011 0.24973 0.0
C348 C 0.38799 0.01204 0.22162 0.0
C349 C 0.40108 0.03286 0.20878 0.0
C350 C 0.34435 0.94833 0.26317 0.0
C351 C 0.35111 0.94647 0.29172 0.0
C352 C 0.35262 0.96906 0.24991 0.0
C353 C 0.36762 0.9884 0.26501 0.0
C354 C 0.37333 0.98666 0.29417 0.0
C355 C 0.36523 0.9659 0.30736 0.0
H356 H 0.40862 0.37413 0.33219 0.0
H357 H 0.39716 0.33206 0.25654 0.0
H358 H 0.38592 0.38778 0.30978 0.0
H359 H 0.3745 0.34574 0.23431 0.0
H360 H 0.37053 0.4049 0.1905 0.0
H361 H 0.38478 0.38297 0.21358 0.0
H362 H 0.3477 0.37723 0.29243 0.0
H363 H 0.33342 0.39916 0.26949 0.0
C364 C 0.40094 0.36748 0.31107 0.0
C365 C 0.40492 0.35217 0.29607 0.0
C366 C 0.38786 0.37523 0.29828 0.0
C367 C 0.37861 0.36795 0.27017 0.0
C368 C 0.38165 0.35183 0.25584 0.0
C369 C 0.39456 0.34394 0.2687 0.0
C370 C 0.36506 0.39862 0.21254 0.0
C371 C 0.351 0.40399 0.2282 0.0
C372 C 0.37317 0.38598 0.22573 0.0
C373 C 0.3675 0.37856 0.25492 0.0
C374 C 0.35256 0.38296 0.27005 0.0
C375 C 0.34429 0.39543 0.25679 0.0
H376 H 0.93312 0.33545 0.26926 0.0
H377 H 0.96489 0.37174 0.18993 0.0
H378 H 0.96928 0.34916 0.29216 0.0
H379 H 0.00099 0.38546 0.21297 0.0
H380 H 0.06398 0.39739 0.25581 0.0
H381 H 0.02752 0.37485 0.23383 0.0
H382 H 0.99747 0.38708 0.30925 0.0
H383 H 0.03392 0.4096 0.33142 0.0
C384 C 0.9478 0.34603 0.25649 0.0
C385 C 0.94608 0.35268 0.22781 0.0
C386 C 0.9685 0.35397 0.26972 0.0
C387 C 0.98793 0.36852 0.25447 0.0
C388 C 0.9863 0.37413 0.22522 0.0
C389 C 0.96559 0.36634 0.21205 0.0
C390 C 0.0496 0.39498 0.26802 0.0
C391 C 0.05191 0.40553 0.29528 0.0
C392 C 0.02872 0.38214 0.2553 0.0
C393 C 0.00968 0.37939 0.26967 0.0
C394 C 0.01184 0.38879 0.29772 0.0
C395 C 0.03274 0.40178 0.31037 0.0
H396 H 0.60005 0.93497 0.26858 0.0
H397 H 0.59318 0.966 0.19 0.0
H398 H 0.62186 0.97126 0.29143 0.0
H399 H 0.615 0.00227 0.21299 0.0
H400 H 0.62425 0.03487 0.33166 0.0
H401 H 0.61081 0.99858 0.30912 0.0
H402 H 0.65239 0.02953 0.23341 0.0
H403 H 0.66587 0.06581 0.25578 0.0
C404 C 0.60352 0.94953 0.25593 0.0
C405 C 0.59467 0.94755 0.22751 0.0
C406 C 0.61591 0.9703 0.26914 0.0
C407 C 0.61995 0.98955 0.25412 0.0
C408 C 0.61227 0.98771 0.22506 0.0
C409 C 0.59969 0.96692 0.21192 0.0
C410 C 0.63085 0.03393 0.31046 0.0
C411 C 0.64598 0.05328 0.29544 0.0
C412 C 0.62321 0.01313 0.29759 0.0
C413 C 0.63043 0.01127 0.26939 0.0
C414 C 0.64636 0.03051 0.25501 0.0
C415 C 0.65414 0.05128 0.26795 0.0
H416 H 0.58989 0.62527 0.32915 0.0
H417 H 0.59896 0.66462 0.25132 0.0
H418 H 0.61197 0.6109 0.30671 0.0
H419 H 0.62096 0.65018 0.22902 0.0
H420 H 0.62395 0.58942 0.18825 0.0
H421 H 0.60996 0.61185 0.21062 0.0
H422 H 0.65002 0.6215 0.28768 0.0
H423 H 0.66408 0.59914 0.26546 0.0
C424 C 0.59691 0.63118 0.30752 0.0
C425 C 0.59247 0.64594 0.29197 0.0
C426 C 0.60963 0.623 0.29471 0.0
C427 C 0.61801 0.62929 0.26601 0.0
C428 C 0.61448 0.64486 0.25103 0.0
C429 C 0.60197 0.6532 0.26393 0.0
C430 C 0.6301 0.59665 0.20972 0.0
C431 C 0.64498 0.59229 0.22513 0.0
C432 C 0.62214 0.60957 0.22249 0.0
C433 C 0.62878 0.61826 0.251 0.0
C434 C 0.64444 0.61479 0.26583 0.0
C435 C 0.65256 0.60207 0.25297 0.0
H436 H 0.03382 0.62394 0.18706 0.0
H437 H 0.06348 0.66844 0.26079 0.0
H438 H 0.99729 0.61042 0.20869 0.0
H439 H 0.02691 0.65497 0.28221 0.0
H440 H 0.96479 0.5965 0.32813 0.0
H441 H 0.00077 0.6187 0.30478 0.0
H442 H 0.96862 0.61974 0.22405 0.0
H443 H 0.93255 0.5974 0.24729 0.0
C444 C 0.03254 0.63118 0.20755 0.0
C445 C 0.05163 0.64707 0.22234 0.0
C446 C 0.01158 0.62349 0.21989 0.0
C447 C 0.00927 0.63149 0.24731 0.0
C448 C 0.02822 0.64829 0.26126 0.0
C449 C 0.04916 0.65606 0.24886 0.0
C450 C 0.96536 0.60179 0.30558 0.0
C451 C 0.94577 0.59495 0.28952 0.0
C452 C 0.986 0.61462 0.29222 0.0
C453 C 0.9875 0.62081 0.26249 0.0
C454 C 0.96796 0.61498 0.24688 0.0
C455 C 0.9473 0.60228 0.26029 0.0
H456 H 0.58819 0.96456 0.83245 0.0
H457 H 0.60233 0.93463 0.7584 0.0
H458 H 0.61118 0.00105 0.81063 0.0
H459 H 0.62539 0.97114 0.73679 0.0
H460 H 0.66314 0.06564 0.77184 0.0
H461 H 0.64916 0.02952 0.79503 0.0
H462 H 0.61551 0.99754 0.71444 0.0
H463 H 0.62953 0.03357 0.69113 0.0
C464 C 0.59654 0.96577 0.81184 0.0
C465 C 0.59318 0.94662 0.79704 0.0
C466 C 0.6098 0.98671 0.79939 0.0
C467 C 0.61992 0.98893 0.77184 0.0
C468 C 0.61755 0.96991 0.75784 0.0
C469 C 0.60441 0.949 0.77034 0.0
C470 C 0.65311 0.05091 0.75884 0.0
C471 C 0.64728 0.05252 0.72967 0.0
C472 C 0.64501 0.03023 0.77223 0.0
C473 C 0.63109 0.01071 0.75666 0.0
C474 C 0.62634 0.01227 0.72697 0.0
C475 C 0.6343 0.03295 0.71364 0.0
H476 H 0.62771 0.5944 0.82996 0.0
H477 H 0.66791 0.60364 0.75299 0.0
H478 H 0.61416 0.61709 0.80759 0.0
H479 H 0.65448 0.62656 0.73081 0.0
H480 H 0.5951 0.62997 0.68772 0.0
H481 H 0.61796 0.61686 0.71069 0.0
H482 H 0.62294 0.65389 0.78934 0.0
H483 H 0.59984 0.66687 0.76653 0.0
C484 C 0.63404 0.60166 0.80856 0.0
C485 C 0.64868 0.59693 0.79314 0.0
C486 C 0.62635 0.61478 0.79577 0.0
C487 C 0.63308 0.62344 0.76728 0.0
C488 C 0.64874 0.61984 0.75261 0.0
C489 C 0.65651 0.60679 0.76543 0.0
C490 C 0.60139 0.63567 0.7097 0.0
C491 C 0.59539 0.64926 0.72538 0.0
C492 C 0.61462 0.62824 0.72283 0.0
C493 C 0.6221 0.63418 0.75195 0.0
C494 C 0.61716 0.64879 0.76702 0.0
C495 C 0.60401 0.65631 0.75385 0.0
H496 H 0.93255 0.59984 0.7668 0.0
H497 H 0.96406 0.5928 0.68884 0.0
H498 H 0.9688 0.62341 0.7889 0.0
H499 H 0.0002 0.61607 0.71114 0.0
H500 H 0.06387 0.66638 0.75182 0.0
H501 H 0.02749 0.65283 0.72966 0.0
H502 H 0.99661 0.61503 0.80825 0.0
H503 H 0.03286 0.62877 0.83059 0.0
C504 C 0.94718 0.60358 0.75416 0.0
C505 C 0.94537 0.59418 0.72616 0.0
C506 C 0.96795 0.61701 0.76692 0.0
C507 C 0.98737 0.62143 0.75192 0.0
C508 C 0.98559 0.61315 0.72321 0.0
C509 C 0.96483 0.59967 0.71048 0.0
C510 C 0.04932 0.65554 0.76463 0.0
C511 C 0.05132 0.64844 0.79287 0.0
C512 C 0.02848 0.64768 0.75183 0.0
C513 C 0.00918 0.63266 0.76704 0.0
C514 C 0.01113 0.62672 0.79599 0.0
C515 C 0.03196 0.63451 0.80877 0.0
H516 H 0.40217 0.03349 0.82825 0.0
H517 H 0.40061 0.06547 0.74749 0.0
H518 H 0.38004 0.99743 0.80503 0.0
H519 H 0.37834 0.02931 0.7244 0.0
H520 H 0.37409 0.96421 0.68708 0.0
H521 H 0.38768 0.00075 0.70879 0.0
H522 H 0.34374 0.97104 0.78282 0.0
H523 H 0.33019 0.93447 0.76131 0.0
C524 C 0.39675 0.03284 0.80575 0.0
C525 C 0.40338 0.0524 0.78968 0.0
C526 C 0.38396 0.01215 0.79247 0.0
C527 C 0.3776 0.01055 0.76279 0.0
C528 C 0.38323 0.03005 0.74718 0.0
C529 C 0.39589 0.05075 0.76052 0.0
C530 C 0.367 0.96547 0.7077 0.0
C531 C 0.35124 0.94636 0.72258 0.0
C532 C 0.37473 0.98644 0.72009 0.0
C533 C 0.36692 0.98874 0.74767 0.0
C534 C 0.35028 0.96975 0.76175 0.0
C535 C 0.34246 0.94881 0.7493 0.0
H536 H 0.37082 0.40593 0.8311 0.0
H537 H 0.33285 0.39993 0.75293 0.0
H538 H 0.38373 0.3828 0.80829 0.0
H539 H 0.34573 0.3767 0.73027 0.0
H540 H 0.40526 0.37174 0.6894 0.0
H541 H 0.38292 0.38576 0.71175 0.0
H542 H 0.37299 0.34544 0.78864 0.0
H543 H 0.39542 0.33144 0.76645 0.0
C544 C 0.36487 0.39933 0.8093 0.0
C545 C 0.35099 0.40501 0.79375 0.0
C546 C 0.37219 0.38597 0.79628 0.0
C547 C 0.36588 0.37808 0.76737 0.0
C548 C 0.35108 0.38277 0.75242 0.0
C549 C 0.34363 0.396 0.76551 0.0
C550 C 0.39795 0.3655 0.71081 0.0
C551 C 0.40238 0.35067 0.72625 0.0
C552 C 0.38506 0.37347 0.72358 0.0
C553 C 0.3764 0.36687 0.7521 0.0
C554 C 0.37971 0.35105 0.76681 0.0
C555 C 0.39248 0.34296 0.75398 0.0
H556 H 0.03324 0.40276 0.68893 0.0
H557 H 0.06495 0.39662 0.76727 0.0
H558 H 0.99716 0.37978 0.71152 0.0
H559 H 0.02875 0.37336 0.78968 0.0
H560 H 0.9652 0.36951 0.83102 0.0
H561 H 0.00128 0.38248 0.80853 0.0
H562 H 0.96974 0.34339 0.73104 0.0
H563 H 0.93353 0.33058 0.75336 0.0
C564 C 0.03252 0.39611 0.7107 0.0
C565 C 0.05202 0.40182 0.72642 0.0
C566 C 0.0118 0.38281 0.72361 0.0
C567 C 0.0101 0.37493 0.75253 0.0
C568 C 0.02954 0.37946 0.76754 0.0
C569 C 0.05028 0.39271 0.7546 0.0
C570 C 0.96592 0.36332 0.80942 0.0
C571 C 0.94643 0.34925 0.79386 0.0
C572 C 0.98665 0.37067 0.79657 0.0
C573 C 0.98836 0.36413 0.76786 0.0
C574 C 0.96894 0.34898 0.75302 0.0
C575 C 0.94819 0.34156 0.76591 0.0
H576 H 0.45346 0.18751 0.19697 0.0
H577 H 0.43045 0.16031 0.28369 0.0
H578 H 0.45189 0.22051 0.2107 0.0
H579 H 0.42801 0.19281 0.2971 0.0
H580 H 0.45329 0.26527 0.3223 0.0
H581 H 0.4517 0.23071 0.30851 0.0
H582 H 0.42826 0.23483 0.22194 0.0
H583 H 0.43071 0.26976 0.23542 0.0
C584 C 0.44773 0.18844 0.2188 0.0
C585 C 0.44222 0.17141 0.23929 0.0
C586 C 0.44671 0.20731 0.22667 0.0
C587 C 0.43993 0.20942 0.25511 0.0
C588 C 0.43375 0.19199 0.27524 0.0
C589 C 0.435 0.17327 0.26747 0.0
C590 C 0.44765 0.25868 0.30042 0.0
C591 C 0.44225 0.27028 0.27991 0.0
C592 C 0.44662 0.2388 0.29251 0.0
C593 C 0.43995 0.22998 0.26401 0.0
C594 C 0.43391 0.24133 0.24385 0.0
C595 C 0.43516 0.26129 0.25166 0.0
H596 H 0.18737 0.45505 0.32203 0.0
H597 H 0.16036 0.43094 0.23552 0.0
H598 H 0.22048 0.45351 0.30893 0.0
H599 H 0.19295 0.42849 0.22277 0.0
H600 H 0.26531 0.45316 0.19807 0.0
H601 H 0.23078 0.45185 0.21124 0.0
H602 H 0.23497 0.42997 0.29884 0.0
H603 H 0.26989 0.43221 0.28596 0.0
C604 C 0.18837 0.44908 0.30039 0.0
C605 C 0.17135 0.44324 0.27976 0.0
C606 C 0.2073 0.44808 0.29287 0.0
C607 C 0.20949 0.44097 0.26469 0.0
C608 C 0.19208 0.43449 0.24443 0.0
C609 C 0.1733 0.43574 0.25182 0.0
C610 C 0.25874 0.44794 0.22005 0.0
C611 C 0.27036 0.44292 0.24101 0.0
C612 C 0.23888 0.44707 0.22761 0.0
C613 C 0.23007 0.44089 0.2562 0.0
C614 C 0.24144 0.43524 0.27683 0.0
C615 C 0.26141 0.43637 0.26938 0.0
H616 H 0.73235 0.1888 0.32261 0.0
H617 H 0.72898 0.16107 0.23646 0.0
H618 H 0.76704 0.22171 0.3091 0.0
H619 H 0.76407 0.19347 0.22331 0.0
H620 H 0.81157 0.26577 0.1977 0.0
H621 H 0.77854 0.23119 0.21126 0.0
H622 H 0.80502 0.23611 0.29877 0.0
H623 H 0.83751 0.27108 0.28549 0.0
C624 C 0.73922 0.18959 0.30097 0.0
C625 C 0.72789 0.17244 0.28055 0.0
C626 C 0.75918 0.20841 0.29322 0.0
C627 C 0.76837 0.21035 0.26501 0.0
C628 C 0.7573 0.19279 0.24498 0.0
C629 C 0.73724 0.17414 0.2526 0.0
C630 C 0.81037 0.25934 0.21974 0.0
C631 C 0.82704 0.27119 0.24057 0.0
C632 C 0.79148 0.23945 0.22752 0.0
C633 C 0.789 0.23086 0.25622 0.0
C634 C 0.8061 0.24243 0.2767 0.0
C635 C 0.82483 0.26241 0.26901 0.0
H636 H 0.5672 0.83823 0.28495 0.0
H637 H 0.54498 0.81249 0.19741 0.0
H638 H 0.56943 0.80548 0.29742 0.0
H639 H 0.54631 0.77921 0.2102 0.0
H640 H 0.56725 0.72953 0.23345 0.0
H641 H 0.56973 0.76464 0.22097 0.0
H642 H 0.54578 0.76746 0.30775 0.0
H643 H 0.54419 0.73274 0.32056 0.0
C644 C 0.56276 0.82552 0.26836 0.0
C645 C 0.55584 0.82788 0.24022 0.0
C646 C 0.56389 0.80666 0.27559 0.0
C647 C 0.55788 0.78956 0.25494 0.0
C648 C 0.55136 0.79215 0.22656 0.0
C649 C 0.55048 0.81118 0.21923 0.0
C650 C 0.56269 0.73776 0.24995 0.0
C651 C 0.55546 0.72836 0.27797 0.0
C652 C 0.56396 0.75782 0.24271 0.0
C653 C 0.55779 0.76886 0.26323 0.0
C654 C 0.55096 0.75962 0.2915 0.0
C655 C 0.54993 0.73965 0.29884 0.0
H656 H 0.73153 0.54323 0.19752 0.0
H657 H 0.72911 0.56869 0.28327 0.0
H658 H 0.76621 0.5449 0.21076 0.0
H659 H 0.76422 0.57133 0.29612 0.0
H660 H 0.81171 0.54666 0.32195 0.0
H661 H 0.77865 0.54819 0.30856 0.0
H662 H 0.80423 0.56821 0.22034 0.0
H663 H 0.83672 0.56569 0.23347 0.0
C664 C 0.73862 0.54955 0.21901 0.0
C665 C 0.72756 0.55569 0.23941 0.0
C666 C 0.75857 0.55062 0.2266 0.0
C667 C 0.76803 0.55816 0.25462 0.0
C668 C 0.75723 0.56499 0.27461 0.0
C669 C 0.73717 0.56363 0.26716 0.0
C670 C 0.8103 0.55154 0.29978 0.0
C671 C 0.82671 0.55591 0.27872 0.0
C672 C 0.7914 0.55253 0.29209 0.0
C673 C 0.78866 0.55822 0.26326 0.0
C674 C 0.80551 0.5633 0.24253 0.0
C675 C 0.82423 0.56201 0.25012 0.0
H676 H 0.16033 0.72944 0.28374 0.0
H677 H 0.1874 0.73201 0.19737 0.0
H678 H 0.19317 0.76428 0.29659 0.0
H679 H 0.22072 0.76645 0.21055 0.0
H680 H 0.27041 0.83715 0.23351 0.0
H681 H 0.23541 0.80456 0.22059 0.0
H682 H 0.231 0.77841 0.30818 0.0
H683 H 0.26564 0.81154 0.3214 0.0
C684 C 0.17334 0.73747 0.26749 0.0
C685 C 0.17132 0.72798 0.23955 0.0
C686 C 0.19225 0.75737 0.27493 0.0
C687 C 0.20972 0.76815 0.25473 0.0
C688 C 0.20749 0.75881 0.22656 0.0
C689 C 0.18843 0.739 0.219 0.0
C690 C 0.26187 0.8245 0.25008 0.0
C691 C 0.27079 0.82686 0.27846 0.0
C692 C 0.24187 0.80573 0.2426 0.0
C693 C 0.2304 0.78872 0.26323 0.0
C694 C 0.23918 0.79129 0.29182 0.0
C695 C 0.2591 0.81023 0.2994 0.0
H696 H 0.56468 0.72773 0.78397 0.0
H697 H 0.54526 0.73387 0.69579 0.0
H698 H 0.56699 0.76258 0.79753 0.0
H699 H 0.54662 0.76833 0.70963 0.0
H700 H 0.56758 0.83852 0.73557 0.0
H701 H 0.56983 0.80591 0.7222 0.0
H702 H 0.54374 0.77732 0.80757 0.0
H703 H 0.54242 0.81044 0.82131 0.0
C704 C 0.56086 0.73654 0.76747 0.0
C705 C 0.55473 0.72805 0.73882 0.0
C706 C 0.56203 0.75647 0.77532 0.0
C707 C 0.55682 0.76826 0.7548 0.0
C708 C 0.55106 0.75991 0.72594 0.0
C709 C 0.55016 0.74008 0.71799 0.0
C710 C 0.56249 0.82533 0.75157 0.0
C711 C 0.55477 0.82701 0.77948 0.0
C712 C 0.56363 0.80654 0.74381 0.0
C713 C 0.55681 0.78884 0.76366 0.0
C714 C 0.54944 0.79073 0.79182 0.0
C715 C 0.54857 0.80968 0.7997 0.0
H716 H 0.74089 0.56505 0.82075 0.0
H717 H 0.71776 0.54458 0.73186 0.0
H718 H 0.77596 0.56726 0.80817 0.0
H719 H 0.75215 0.54563 0.71962 0.0
H720 H 0.8225 0.56492 0.69782 0.0
H721 H 0.79003 0.56783 0.71048 0.0
H722 H 0.79098 0.54457 0.79843 0.0
H723 H 0.82394 0.54283 0.78615 0.0
C724 C 0.74328 0.56092 0.79858 0.0
C725 C 0.72658 0.55463 0.77732 0.0
C726 C 0.76333 0.56205 0.79136 0.0
C727 C 0.76697 0.55655 0.76284 0.0
C728 C 0.75023 0.55042 0.74161 0.0
C729 C 0.73037 0.54963 0.7487 0.0
C730 C 0.81581 0.5606 0.71989 0.0
C731 C 0.82575 0.55365 0.74096 0.0
C732 C 0.79711 0.56212 0.72715 0.0
C733 C 0.78772 0.55636 0.75551 0.0
C734 C 0.79789 0.54957 0.77657 0.0
C735 C 0.81674 0.5484 0.76945 0.0
H736 H 0.2685 0.83765 0.78355 0.0
H737 H 0.26603 0.81033 0.69738 0.0
H738 H 0.23362 0.80488 0.7964 0.0
H739 H 0.23156 0.77705 0.71059 0.0
H740 H 0.16088 0.72726 0.73338 0.0
H741 H 0.1935 0.76221 0.72037 0.0
H742 H 0.21925 0.76718 0.80835 0.0
H743 H 0.18608 0.73261 0.82163 0.0
C744 C 0.26049 0.8246 0.76734 0.0
C745 C 0.27002 0.82654 0.73946 0.0
C746 C 0.24055 0.80571 0.7748 0.0
C747 C 0.22978 0.78817 0.75467 0.0
C748 C 0.23917 0.79033 0.72655 0.0
C749 C 0.25901 0.80936 0.71897 0.0
C750 C 0.17345 0.73591 0.75001 0.0
C751 C 0.17096 0.72717 0.77852 0.0
C752 C 0.19225 0.7559 0.74248 0.0
C753 C 0.20916 0.76751 0.76319 0.0
C754 C 0.20645 0.75889 0.7919 0.0
C755 C 0.18749 0.73901 0.79953 0.0
H756 H 0.45529 0.26765 0.69902 0.0
H757 H 0.43073 0.26986 0.78548 0.0
H758 H 0.45408 0.2331 0.71184 0.0
H759 H 0.42855 0.23489 0.79793 0.0
H760 H 0.45281 0.1869 0.82236 0.0
H761 H 0.45158 0.22022 0.80954 0.0
H762 H 0.43088 0.19505 0.72128 0.0
H763 H 0.43309 0.1623 0.73384 0.0
C764 C 0.44931 0.26056 0.7206 0.0
C765 C 0.44323 0.27151 0.74128 0.0
C766 C 0.44849 0.24068 0.72795 0.0
C767 C 0.44129 0.23117 0.75602 0.0
C768 C 0.43463 0.24191 0.77636 0.0
C769 C 0.43573 0.2619 0.76914 0.0
C770 C 0.44786 0.18846 0.80031 0.0
C771 C 0.44317 0.17207 0.77908 0.0
C772 C 0.44704 0.20752 0.79293 0.0
C773 C 0.44123 0.21045 0.76427 0.0
C774 C 0.43589 0.19365 0.74336 0.0
C775 C 0.43699 0.17477 0.75062 0.0
H776 H 0.16122 0.43311 0.78566 0.0
H777 H 0.18721 0.45431 0.69801 0.0
H778 H 0.19391 0.431 0.79888 0.0
H779 H 0.22046 0.45319 0.71154 0.0
H780 H 0.27014 0.43264 0.73606 0.0
H781 H 0.23514 0.43016 0.72301 0.0
H782 H 0.23175 0.45419 0.80953 0.0
H783 H 0.26633 0.45568 0.82292 0.0
C784 C 0.17398 0.43738 0.76922 0.0
C785 C 0.17169 0.44393 0.7408 0.0
C786 C 0.19282 0.43632 0.77687 0.0
C787 C 0.20998 0.44208 0.75641 0.0
C788 C 0.20748 0.44831 0.72779 0.0
C789 C 0.18846 0.44907 0.72002 0.0
C790 C 0.2618 0.43722 0.75237 0.0
C791 C 0.27099 0.44441 0.78051 0.0
C792 C 0.2418 0.43596 0.74481 0.0
C793 C 0.23063 0.44215 0.76507 0.0
C794 C 0.23968 0.44898 0.79345 0.0
C795 C 0.25957 0.44995 0.80114 0.0
H796 H 0.83758 0.26985 0.73563 0.0
H797 H 0.81102 0.26626 0.82262 0.0
H798 H 0.80488 0.23495 0.72266 0.0
H799 H 0.77776 0.23181 0.80931 0.0
H800 H 0.72771 0.1615 0.78578 0.0
H801 H 0.76277 0.19398 0.79878 0.0
H802 H 0.76723 0.22035 0.71129 0.0
H803 H 0.7326 0.18727 0.69799 0.0
C804 C 0.82469 0.26159 0.75198 0.0
C805 C 0.82682 0.27081 0.78013 0.0
C806 C 0.80584 0.24164 0.74447 0.0
C807 C 0.78851 0.23056 0.7648 0.0
C808 C 0.79087 0.23965 0.79318 0.0
C809 C 0.80989 0.25948 0.80082 0.0
C810 C 0.7363 0.17417 0.76925 0.0
C811 C 0.7274 0.17188 0.74088 0.0
C812 C 0.75634 0.1929 0.77678 0.0
C813 C 0.76783 0.20997 0.75622 0.0
C814 C 0.75906 0.20744 0.72762 0.0
C815 C 0.73914 0.18852 0.71998 0.0
H816 H 0.44007 0.12591 0.08496 0.0
H817 H 0.47762 0.09203 0.08146 0.0
H818 H 0.43843 0.12563 0.0311 0.0
H819 H 0.4768 0.09251 0.02813 0.0
H820 H 0.45152 0.07329 0.93619 0.0
H821 H 0.45181 0.07476 0.9895 0.0
H822 H 0.45877 0.13992 0.98604 0.0
H823 H 0.45757 0.13798 0.93219 0.0
C824 C 0.44816 0.11862 0.0727 0.0
C825 C 0.45877 0.10878 0.0875 0.0
C826 C 0.44732 0.11854 0.04182 0.0
C827 C 0.45723 0.10878 0.02511 0.0
C828 C 0.46842 0.09962 0.04011 0.0
C829 C 0.46904 0.09948 0.0708 0.0
C830 C 0.45306 0.08794 0.94673 0.0
C831 C 0.45468 0.10559 0.9299 0.0
C832 C 0.45339 0.08887 0.97742 0.0
C833 C 0.45568 0.10762 0.99228 0.0
C834 C 0.45685 0.12515 0.97543 0.0
C835 C 0.45627 0.1241 0.94456 0.0
H836 H 0.31406 0.44103 0.93376 0.0
H837 H 0.3855 0.47725 0.9378 0.0
H838 H 0.31241 0.43941 0.9876 0.0
H839 H 0.38396 0.47657 0.99111 0.0
H840 H 0.37724 0.45185 0.08331 0.0
H841 H 0.37631 0.45198 0.02998 0.0
H842 H 0.31836 0.45938 0.03261 0.0
H843 H 0.31879 0.45822 0.08646 0.0
C844 C 0.32939 0.44885 0.94615 0.0
C845 C 0.34991 0.45906 0.93151 0.0
C846 C 0.32847 0.44802 0.97703 0.0
C847 C 0.34806 0.45759 0.9939 0.0
C848 C 0.3685 0.46842 0.97904 0.0
C849 C 0.36941 0.46898 0.94835 0.0
C850 C 0.36423 0.45344 0.07256 0.0
C851 C 0.34818 0.45518 0.08915 0.0
C852 C 0.36379 0.45369 0.04186 0.0
C853 C 0.34748 0.45608 0.02675 0.0
C854 C 0.33109 0.45737 0.04338 0.0
C855 C 0.33138 0.45682 0.07427 0.0
H856 H 0.92552 0.37815 0.9375 0.0
H857 H 0.86018 0.3204 0.93406 0.0
H858 H 0.92441 0.37703 0.99081 0.0
H859 H 0.85859 0.31976 0.98793 0.0
H860 H 0.87283 0.31462 0.08655 0.0
H861 H 0.87267 0.31324 0.03267 0.0
H862 H 0.90759 0.38482 0.02985 0.0
H863 H 0.90853 0.3861 0.08317 0.0
C864 C 0.9108 0.36527 0.94818 0.0
C865 C 0.89287 0.34946 0.93151 0.0
C866 C 0.91008 0.36471 0.97887 0.0
C867 C 0.89126 0.34851 0.99389 0.0
C868 C 0.87342 0.33239 0.9772 0.0
C869 C 0.87427 0.33281 0.94631 0.0
C870 C 0.88043 0.33001 0.07431 0.0
C871 C 0.89091 0.35046 0.08912 0.0
C872 C 0.88025 0.32924 0.04342 0.0
C873 C 0.89037 0.34892 0.02674 0.0
C874 C 0.90018 0.3693 0.04178 0.0
C875 C 0.9006 0.37005 0.07247 0.0
H876 H 0.54442 0.9241 0.08323 0.0
H877 H 0.54072 0.86045 0.08728 0.0
H878 H 0.54412 0.92261 0.02993 0.0
H879 H 0.53946 0.85843 0.03344 0.0
H880 H 0.55787 0.87275 0.93448 0.0
H881 H 0.55944 0.87298 0.98835 0.0
H882 H 0.51951 0.90445 0.99126 0.0
H883 H 0.51881 0.90503 0.93793 0.0
C884 C 0.54338 0.90966 0.07269 0.0
C885 C 0.54244 0.89232 0.08954 0.0
C886 C 0.54304 0.90871 0.04201 0.0
C887 C 0.5414 0.89022 0.02716 0.0
C888 C 0.54088 0.873 0.04402 0.0
C889 C 0.54149 0.87409 0.0749 0.0
C890 C 0.54942 0.87965 0.94674 0.0
C891 C 0.53843 0.88908 0.93193 0.0
C892 C 0.55022 0.87971 0.97763 0.0
C893 C 0.53986 0.88902 0.99432 0.0
C894 C 0.52825 0.89772 0.9793 0.0
C895 C 0.5277 0.89791 0.94861 0.0
H896 H 0.68463 0.55813 0.08633 0.0
H897 H 0.61322 0.52027 0.08239 0.0
H898 H 0.68618 0.55999 0.03248 0.0
H899 H 0.61471 0.5213 0.02907 0.0
H900 H 0.62094 0.54695 0.93737 0.0
H901 H 0.62198 0.54647 0.99068 0.0
H902 H 0.68037 0.53986 0.98723 0.0
H903 H 0.67976 0.54125 0.93338 0.0
C904 C 0.6693 0.55002 0.07397 0.0
C905 C 0.6488 0.53926 0.08864 0.0
C906 C 0.67017 0.55099 0.04309 0.0
C907 C 0.65056 0.54105 0.02627 0.0
C908 C 0.63016 0.5297 0.04114 0.0
C909 C 0.62929 0.52896 0.07183 0.0
C910 C 0.63406 0.54545 0.94791 0.0
C911 C 0.65018 0.54398 0.93109 0.0
C912 C 0.63458 0.54501 0.9786 0.0
C913 C 0.65105 0.54275 0.99345 0.0
C914 C 0.6675 0.54174 0.97662 0.0
C915 C 0.66711 0.54243 0.94575 0.0
H916 H 0.13841 0.67942 0.93257 0.0
H917 H 0.07372 0.62081 0.93721 0.0
H918 H 0.14057 0.68035 0.98642 0.0
H919 H 0.07543 0.62218 0.99049 0.0
H920 H 0.09291 0.61394 0.08227 0.0
H921 H 0.09347 0.61508 0.02894 0.0
H922 H 0.12625 0.68658 0.03151 0.0
H923 H 0.12644 0.68538 0.08539 0.0
C924 C 0.12459 0.66688 0.94508 0.0
C925 C 0.106 0.64991 0.93061 0.0
C926 C 0.12577 0.66746 0.97594 0.0
C927 C 0.1083 0.65117 0.99294 0.0
C928 C 0.08949 0.63465 0.97827 0.0
C929 C 0.08842 0.63395 0.9476 0.0
C930 C 0.10032 0.62994 0.07153 0.0
C931 C 0.10948 0.64956 0.0881 0.0
C932 C 0.10051 0.6306 0.04084 0.0
C933 C 0.10957 0.65091 0.02574 0.0
C934 C 0.11923 0.67064 0.04233 0.0
C935 C 0.11926 0.66997 0.07321 0.0
H936 H 0.90929 0.52366 0.58153 0.0
H937 H 0.87205 0.55784 0.58537 0.0
H938 H 0.90855 0.52435 0.52822 0.0
H939 H 0.87209 0.55946 0.53151 0.0
H940 H 0.8602 0.54007 0.43265 0.0
H941 H 0.85857 0.53907 0.48652 0.0
H942 H 0.92504 0.54933 0.48948 0.0
H943 H 0.92619 0.54935 0.43616 0.0
C944 C 0.90106 0.5315 0.57094 0.0
C945 C 0.89088 0.54085 0.58771 0.0
C946 C 0.90077 0.53205 0.54025 0.0
C947 C 0.89059 0.5423 0.52535 0.0
C948 C 0.87998 0.5513 0.54214 0.0
C949 C 0.88004 0.55048 0.57302 0.0
C950 C 0.87443 0.54214 0.44493 0.0
C951 C 0.89323 0.54454 0.43015 0.0
C952 C 0.87356 0.54167 0.47581 0.0
C953 C 0.89155 0.54381 0.49252 0.0
C954 C 0.91058 0.54697 0.47752 0.0
C955 C 0.91133 0.54715 0.44683 0.0
H956 H 0.3842 0.90495 0.58193 0.0
H957 H 0.31282 0.87212 0.58509 0.0
H958 H 0.38303 0.90433 0.5286 0.0
H959 H 0.31159 0.8723 0.53122 0.0
H960 H 0.31818 0.85972 0.43237 0.0
H961 H 0.3173 0.8578 0.48622 0.0
H962 H 0.37641 0.92229 0.48982 0.0
H963 H 0.37773 0.9237 0.43652 0.0
C964 C 0.36821 0.8977 0.57119 0.0
C965 C 0.34861 0.88873 0.58778 0.0
C966 C 0.36752 0.89748 0.54049 0.0
C967 C 0.34723 0.8886 0.52539 0.0
C968 C 0.32752 0.87917 0.54201 0.0
C969 C 0.32821 0.87914 0.5729 0.0
C970 C 0.33093 0.87346 0.44478 0.0
C971 C 0.34815 0.89175 0.43016 0.0
C972 C 0.33039 0.87242 0.47565 0.0
C973 C 0.34695 0.88976 0.49254 0.0
C974 C 0.36371 0.90831 0.47772 0.0
C975 C 0.36439 0.90921 0.44703 0.0
H976 H 0.45811 0.31895 0.58751 0.0
H977 H 0.45388 0.37861 0.58369 0.0
H978 H 0.45907 0.31812 0.53364 0.0
H979 H 0.45388 0.37734 0.53039 0.0
H980 H 0.47854 0.38502 0.43802 0.0
H981 H 0.4782 0.38389 0.49135 0.0
H982 H 0.43874 0.31243 0.48883 0.0
H983 H 0.43995 0.31362 0.43495 0.0
C984 C 0.45718 0.33175 0.57517 0.0
C985 C 0.45616 0.34897 0.58988 0.0
C986 C 0.45761 0.33123 0.54429 0.0
C987 C 0.45684 0.34782 0.52748 0.0
C988 C 0.45515 0.36462 0.54241 0.0
C989 C 0.45499 0.36527 0.5731 0.0
C990 C 0.46982 0.36903 0.44878 0.0
C991 C 0.45912 0.34942 0.43221 0.0
C992 C 0.46948 0.36837 0.47948 0.0
C993 C 0.45812 0.34808 0.49462 0.0
C994 C 0.44777 0.32836 0.47802 0.0
C995 C 0.44836 0.32902 0.44712 0.0
H996 H 0.07346 0.45194 0.58202 0.0
H997 H 0.13843 0.45872 0.58631 0.0
H998 H 0.07506 0.45232 0.52872 0.0
H999 H 0.14048 0.45999 0.53245 0.0
H1000 H 0.12642 0.44098 0.43347 0.0
H1001 H 0.12623 0.43944 0.48735 0.0
H1002 H 0.09285 0.47757 0.49027 0.0
H1003 H 0.09229 0.4783 0.43695 0.0
C1004 C 0.0882 0.45367 0.57154 0.0
C1005 C 0.10589 0.45547 0.58844 0.0
C1006 C 0.0892 0.45405 0.54087 0.0
C1007 C 0.10806 0.45655 0.5261 0.0
C1008 C 0.12564 0.45791 0.54301 0.0
C1009 C 0.12453 0.45729 0.57388 0.0
C1010 C 0.1191 0.44904 0.44573 0.0
C1011 C 0.10916 0.45955 0.43094 0.0
C1012 C 0.11908 0.44826 0.47661 0.0
C1013 C 0.10926 0.45812 0.49329 0.0
C1014 C 0.10001 0.46923 0.4783 0.0
C1015 C 0.09982 0.4698 0.44761 0.0
H1016 H 0.68439 0.12675 0.43445 0.0
H1017 H 0.61296 0.09276 0.43788 0.0
H1018 H 0.68574 0.12634 0.4883 0.0
H1019 H 0.61424 0.09311 0.49121 0.0
H1020 H 0.62029 0.07367 0.583 0.0
H1021 H 0.62149 0.07529 0.52969 0.0
H1022 H 0.67965 0.14047 0.53348 0.0
H1023 H 0.67889 0.13838 0.58732 0.0
C1024 C 0.66901 0.11941 0.4467 0.0
C1025 C 0.64857 0.10959 0.43188 0.0
C1026 C 0.66976 0.11926 0.47758 0.0
C1027 C 0.65009 0.10943 0.49426 0.0
C1028 C 0.62973 0.10028 0.47925 0.0
C1029 C 0.62899 0.10021 0.44855 0.0
C1030 C 0.6334 0.08835 0.57253 0.0
C1031 C 0.64941 0.10596 0.58945 0.0
C1032 C 0.634 0.08937 0.54184 0.0
C1033 C 0.65046 0.10817 0.52708 0.0
C1034 C 0.6668 0.12566 0.54401 0.0
C1035 C 0.66632 0.12452 0.57488 0.0
H1036 H 0.52057 0.61377 0.43457 0.0
H1037 H 0.55778 0.68524 0.43143 0.0
H1038 H 0.52122 0.61494 0.48789 0.0
H1039 H 0.55925 0.68648 0.4853 0.0
H1040 H 0.53977 0.67935 0.5841 0.0
H1041 H 0.53872 0.68019 0.53025 0.0
H1042 H 0.5461 0.62224 0.52666 0.0
H1043 H 0.54623 0.62095 0.57997 0.0
C1044 C 0.52905 0.62979 0.4453 0.0
C1045 C 0.53926 0.64941 0.42871 0.0
C1046 C 0.52956 0.63047 0.476 0.0
C1047 C 0.5406 0.6508 0.4911 0.0
C1048 C 0.55048 0.67052 0.4745 0.0
C1049 C 0.54973 0.66982 0.44361 0.0
C1050 C 0.54118 0.66684 0.5717 0.0
C1051 C 0.54285 0.64996 0.58632 0.0
C1052 C 0.54069 0.66737 0.54082 0.0
C1053 C 0.54204 0.65112 0.52394 0.0
C1054 C 0.54438 0.63469 0.53876 0.0
C1055 C 0.54462 0.63403 0.56945 0.0
H1056 H 0.50421 0.12146 0.27453 0.0
H1057 H 0.53464 0.1398 0.18875 0.0
H1058 H 0.53778 0.1245 0.29469 0.0
H1059 H 0.56911 0.14469 0.20922 0.0
H1060 H 0.61585 0.12232 0.24483 0.0
H1061 H 0.58507 0.12493 0.22466 0.0
H1062 H 0.57346 0.14466 0.31018 0.0
H1063 H 0.6033 0.1402 0.33066 0.0
C1064 C 0.51836 0.12672 0.26014 0.0
C1065 C 0.51679 0.13024 0.23004 0.0
C1066 C 0.53779 0.12866 0.27175 0.0
C1067 C 0.5564 0.13477 0.2537 0.0
C1068 C 0.55506 0.13935 0.22377 0.0
C1069 C 0.53536 0.13676 0.212 0.0
C1070 C 0.6068 0.1274 0.25923 0.0
C1071 C 0.61183 0.1309 0.28934 0.0
C1072 C 0.58917 0.12909 0.24761 0.0
C1073 C 0.57646 0.13492 0.26567 0.0
C1074 C 0.58233 0.13952 0.29562 0.0
C1075 C 0.59959 0.13718 0.3074 0.0
H1076 H 0.49404 0.6154 0.24213 0.0
H1077 H 0.46329 0.60461 0.32755 0.0
H1078 H 0.46072 0.5842 0.22246 0.0
H1079 H 0.42905 0.57438 0.3075 0.0
H1080 H 0.38288 0.50453 0.27427 0.0
H1081 H 0.41357 0.53842 0.29348 0.0
H1082 H 0.42509 0.56779 0.20665 0.0
H1083 H 0.39534 0.53294 0.1872 0.0
C1084 C 0.47985 0.60665 0.25651 0.0
C1085 C 0.48126 0.61228 0.2864 0.0
C1086 C 0.46057 0.58877 0.24518 0.0
C1087 C 0.44196 0.57643 0.26329 0.0
C1088 C 0.44312 0.58293 0.29294 0.0
C1089 C 0.46267 0.60042 0.30447 0.0
C1090 C 0.39192 0.51832 0.25936 0.0
C1091 C 0.38686 0.51609 0.22923 0.0
C1092 C 0.40949 0.53794 0.27042 0.0
C1093 C 0.4221 0.55611 0.25175 0.0
C1094 C 0.41628 0.55409 0.2217 0.0
C1095 C 0.39909 0.53418 0.2105 0.0
H1096 H 0.88423 0.47426 0.32995 0.0
H1097 H 0.85491 0.48392 0.25158 0.0
H1098 H 0.88046 0.44037 0.3089 0.0
H1099 H 0.85095 0.44992 0.23077 0.0
H1100 H 0.85692 0.37208 0.27152 0.0
H1101 H 0.85355 0.40233 0.29291 0.0
H1102 H 0.87739 0.43919 0.21187 0.0
H1103 H 0.88056 0.4089 0.1903 0.0
C1104 C 0.87669 0.46901 0.30844 0.0
C1105 C 0.87006 0.48194 0.29237 0.0
C1106 C 0.87442 0.44952 0.29644 0.0
C1107 C 0.86554 0.44256 0.26809 0.0
C1108 C 0.85814 0.45502 0.25249 0.0
C1109 C 0.86032 0.47446 0.26452 0.0
C1110 C 0.86117 0.3865 0.25809 0.0
C1111 C 0.86917 0.38812 0.22923 0.0
C1112 C 0.85935 0.40388 0.27044 0.0
C1113 C 0.86535 0.4232 0.25416 0.0
C1114 C 0.87245 0.42443 0.22491 0.0
C1115 C 0.87437 0.4071 0.21259 0.0
H1116 H 0.4652 0.86201 0.18958 0.0
H1117 H 0.49553 0.88068 0.27537 0.0
H1118 H 0.43079 0.85748 0.20979 0.0
H1119 H 0.46208 0.8781 0.29525 0.0
H1120 H 0.39637 0.86246 0.33091 0.0
H1121 H 0.4265 0.85828 0.31085 0.0
H1122 H 0.41465 0.87706 0.22483 0.0
H1123 H 0.38357 0.8793 0.2446 0.0
C1124 C 0.46447 0.86523 0.21276 0.0
C1125 C 0.48296 0.87168 0.23091 0.0
C1126 C 0.44481 0.86287 0.2244 0.0
C1127 C 0.44347 0.86764 0.25426 0.0
C1128 C 0.46205 0.87377 0.27237 0.0
C1129 C 0.48141 0.87546 0.26092 0.0
C1130 C 0.40012 0.86535 0.30765 0.0
C1131 C 0.38769 0.87119 0.28931 0.0
C1132 C 0.41755 0.86318 0.29609 0.0
C1133 C 0.4234 0.86754 0.2661 0.0
C1134 C 0.41057 0.87306 0.24781 0.0
C1135 C 0.39277 0.87455 0.2592 0.0
H1136 H 0.61545 0.49337 0.27545 0.0
H1137 H 0.60337 0.46309 0.18956 0.0
H1138 H 0.58471 0.45987 0.29544 0.0
H1139 H 0.57355 0.42867 0.20986 0.0
H1140 H 0.50422 0.38231 0.24514 0.0
H1141 H 0.53779 0.41298 0.22516 0.0
H1142 H 0.5689 0.4241 0.31077 0.0
H1143 H 0.53443 0.39437 0.33106 0.0
C1144 C 0.60652 0.47926 0.261 0.0
C1145 C 0.61167 0.48086 0.23092 0.0
C1146 C 0.58891 0.45987 0.27251 0.0
C1147 C 0.57633 0.44132 0.25438 0.0
C1148 C 0.58232 0.44268 0.22447 0.0
C1149 C 0.59957 0.46234 0.2128 0.0
C1150 C 0.51833 0.39123 0.2596 0.0
C1151 C 0.51669 0.38609 0.28968 0.0
C1152 C 0.53775 0.40879 0.24809 0.0
C1153 C 0.55629 0.42134 0.26623 0.0
C1154 C 0.5549 0.41536 0.29614 0.0
C1155 C 0.53521 0.39817 0.30782 0.0
H1156 H 0.1198 0.61555 0.27538 0.0
H1157 H 0.13918 0.60454 0.18966 0.0
H1158 H 0.12268 0.58478 0.2951 0.0
H1159 H 0.14384 0.57471 0.20971 0.0
H1160 H 0.12114 0.50519 0.24407 0.0
H1161 H 0.12374 0.53872 0.22444 0.0
H1162 H 0.14306 0.56933 0.31043 0.0
H1163 H 0.13868 0.53491 0.33035 0.0
C1164 C 0.12524 0.60683 0.26092 0.0
C1165 C 0.1291 0.6123 0.23095 0.0
C1166 C 0.12708 0.58922 0.27227 0.0
C1167 C 0.13342 0.57696 0.2541 0.0
C1168 C 0.13832 0.58324 0.22433 0.0
C1169 C 0.13586 0.60049 0.2128 0.0
C1170 C 0.12613 0.51918 0.25869 0.0
C1171 C 0.12956 0.51741 0.28876 0.0
C1172 C 0.12781 0.53858 0.24739 0.0
C1173 C 0.13353 0.55696 0.26575 0.0
C1174 C 0.13802 0.55544 0.29565 0.0
C1175 C 0.13573 0.53578 0.30711 0.0
H1176 H 0.4935 0.87793 0.7446 0.0
H1177 H 0.46332 0.85966 0.83053 0.0
H1178 H 0.45997 0.87522 0.72475 0.0
H1179 H 0.42892 0.85516 0.81038 0.0
H1180 H 0.3823 0.87785 0.77524 0.0
H1181 H 0.41317 0.87525 0.79511 0.0
H1182 H 0.42412 0.85501 0.70957 0.0
H1183 H 0.39415 0.85939 0.68938 0.0
C1184 C 0.47941 0.87277 0.75909 0.0
C1185 C 0.48105 0.86916 0.78914 0.0
C1186 C 0.46002 0.87102 0.74766 0.0
C1187 C 0.4415 0.86504 0.76585 0.0
C1188 C 0.4429 0.8604 0.79573 0.0
C1189 C 0.46256 0.86276 0.80732 0.0
C1190 C 0.39122 0.87267 0.76077 0.0
C1191 C 0.38595 0.86898 0.73073 0.0
C1192 C 0.40891 0.87099 0.77221 0.0
C1193 C 0.42145 0.865 0.75406 0.0
C1194 C 0.41537 0.86026 0.72419 0.0
C1195 C 0.39804 0.86256 0.71259 0.0
H1196 H 0.61397 0.496 0.74579 0.0
H1197 H 0.60059 0.46688 0.83246 0.0
H1198 H 0.58281 0.46268 0.72614 0.0
H1199 H 0.57034 0.43255 0.81256 0.0
H1200 H 0.50172 0.38526 0.77641 0.0
H1201 H 0.53487 0.4165 0.79639 0.0
H1202 H 0.56686 0.42689 0.71149 0.0
H1203 H 0.53277 0.39664 0.69115 0.0
C1204 C 0.60461 0.48217 0.76052 0.0
C1205 C 0.6096 0.48403 0.79066 0.0
C1206 C 0.58676 0.46287 0.7492 0.0
C1207 C 0.57376 0.44463 0.7676 0.0
C1208 C 0.57944 0.4463 0.79768 0.0
C1209 C 0.59693 0.46591 0.80915 0.0
C1210 C 0.51592 0.39419 0.76211 0.0
C1211 C 0.51466 0.38865 0.7322 0.0
C1212 C 0.53511 0.41208 0.77362 0.0
C1213 C 0.55381 0.42455 0.7557 0.0
C1214 C 0.55274 0.41825 0.72595 0.0
C1215 C 0.53326 0.40075 0.71424 0.0
H1216 H 0.13891 0.62554 0.74891 0.0
H1217 H 0.113 0.58832 0.82943 0.0
H1218 H 0.14199 0.59502 0.72793 0.0
H1219 H 0.11586 0.55773 0.80823 0.0
H1220 H 0.11256 0.52382 0.68977 0.0
H1221 H 0.11545 0.5573 0.71094 0.0
H1222 H 0.14234 0.54662 0.79086 0.0
H1223 H 0.13923 0.513 0.76991 0.0
C1224 C 0.13404 0.61094 0.76226 0.0
C1225 C 0.12557 0.60934 0.79083 0.0
C1226 C 0.1357 0.5934 0.75013 0.0
C1227 C 0.12904 0.57391 0.76633 0.0
C1228 C 0.12132 0.57261 0.79527 0.0
C1229 C 0.11958 0.59012 0.80737 0.0
C1230 C 0.11931 0.52871 0.71174 0.0
C1231 C 0.12551 0.51561 0.72819 0.0
C1232 C 0.12107 0.54798 0.72382 0.0
C1233 C 0.12901 0.55454 0.75265 0.0
C1234 C 0.13587 0.54183 0.76875 0.0
C1235 C 0.1342 0.52262 0.75664 0.0
H1236 H 0.62624 0.14147 0.76989 0.0
H1237 H 0.58851 0.11476 0.68989 0.0
H1238 H 0.59588 0.14479 0.79091 0.0
H1239 H 0.5581 0.11793 0.71113 0.0
H1240 H 0.51346 0.14131 0.7495 0.0
H1241 H 0.54719 0.14475 0.72849 0.0
H1242 H 0.55815 0.11787 0.8082 0.0
H1243 H 0.52452 0.11459 0.82943 0.0
C1244 C 0.61158 0.13651 0.75664 0.0
C1245 C 0.60976 0.12769 0.72824 0.0
C1246 C 0.59414 0.13831 0.7688 0.0
C1247 C 0.57455 0.13148 0.75278 0.0
C1248 C 0.57306 0.1235 0.72395 0.0
C1249 C 0.59046 0.12159 0.71182 0.0
C1250 C 0.52318 0.13637 0.76273 0.0
C1251 C 0.51618 0.12752 0.79111 0.0
C1252 C 0.54245 0.13824 0.75058 0.0
C1253 C 0.55523 0.13144 0.76659 0.0
C1254 C 0.54874 0.12342 0.7954 0.0
C1255 C 0.5294 0.12144 0.80751 0.0
H1256 H 0.40943 0.52737 0.82916 0.0
H1257 H 0.37213 0.51402 0.74834 0.0
H1258 H 0.4398 0.56052 0.8071 0.0
H1259 H 0.40246 0.54734 0.72647 0.0
H1260 H 0.48439 0.62769 0.76669 0.0
H1261 H 0.45069 0.59764 0.78811 0.0
H1262 H 0.44026 0.55837 0.7099 0.0
H1263 H 0.47383 0.5885 0.68823 0.0
C1264 C 0.40756 0.53165 0.80685 0.0
C1265 C 0.38839 0.51792 0.79048 0.0
C1266 C 0.42494 0.55073 0.79424 0.0
C1267 C 0.42358 0.55648 0.76497 0.0
C1268 C 0.40412 0.54318 0.74894 0.0
C1269 C 0.38669 0.52415 0.76157 0.0
C1270 C 0.4748 0.61275 0.75388 0.0
C1271 C 0.48193 0.61047 0.72578 0.0
C1272 C 0.45554 0.59549 0.76626 0.0
C1273 C 0.44289 0.57558 0.75081 0.0
C1274 C 0.44954 0.57359 0.72227 0.0
C1275 C 0.46886 0.59083 0.70991 0.0
H1276 H 0.85836 0.37164 0.74945 0.0
H1277 H 0.88448 0.40989 0.8292 0.0
H1278 H 0.85454 0.40159 0.72799 0.0
H1279 H 0.88087 0.43991 0.80752 0.0
H1280 H 0.88306 0.47243 0.68869 0.0
H1281 H 0.88053 0.43923 0.71025 0.0
H1282 H 0.85381 0.45026 0.7901 0.0
H1283 H 0.85655 0.48361 0.76875 0.0
C1284 C 0.86313 0.38634 0.76253 0.0
C1285 C 0.87187 0.3884 0.79102 0.0
C1286 C 0.86104 0.40355 0.75013 0.0
C1287 C 0.86752 0.42316 0.76597 0.0
C1288 C 0.87553 0.42492 0.79483 0.0
C1289 C 0.87771 0.40774 0.80721 0.0
C1290 C 0.87639 0.46765 0.71071 0.0
C1291 C 0.87018 0.4808 0.72704 0.0
C1292 C 0.87484 0.44855 0.72302 0.0
C1293 C 0.86711 0.44221 0.75197 0.0
C1294 C 0.86013 0.4549 0.7679 0.0
C1295 C 0.86159 0.47394 0.75556 0.0
loop_
_geom_bond_atom_site_label_1
_geom_bond_atom_site_label_2
_geom_bond_distance
_geom_bond_site_symmetry_2
_ccdc_geom_bond_type
O0 Cd1 2.223 . S
O0 C8 1.315 . S
Cd1 O0 2.223 . S
Cd1 O4 2.297 . S
Cd1 O5 2.439 . S
Cd1 O11 2.240 . S
Cd2 O3 2.240 . S
Cd2 O10 2.223 . S
Cd2 O12 2.297 . S
Cd2 O13 2.439 . S
O3 Cd2 2.240 . S
O3 C8 1.279 . S
O4 Cd1 2.297 . S
O4 C6 1.247 . S
O5 Cd1 2.439 . S
O5 C6 1.208 . S
C6 O4 1.247 . S
C6 O5 1.208 . S
C7 O12 1.247 . S
C7 O13 1.208 . S
C8 O0 1.315 . S
C8 O3 1.279 . S
C9 O10 1.315 . S
C9 O11 1.279 . S
O10 Cd2 2.223 . S
O10 C9 1.315 . S
O11 Cd1 2.240 . S
O11 C9 1.279 . S
O12 Cd2 2.297 . S
O12 C7 1.247 . S
O13 Cd2 2.439 . S
O13 C7 1.208 . S
O14 Cd15 2.223 . S
O14 C22 1.315 . S
Cd15 O14 2.223 . S
Cd15 O18 2.297 . S
Cd15 O19 2.439 . S
Cd15 O25 2.240 . S
Cd16 O17 2.240 . S
Cd16 O24 2.223 . S
Cd16 O26 2.297 . S
Cd16 O27 2.439 . S
O17 Cd16 2.240 . S
O17 C22 1.279 . S
O18 Cd15 2.297 . S
O18 C20 1.247 . S
O19 Cd15 2.439 . S
O19 C20 1.208 . S
C20 O18 1.247 . S
C20 O19 1.208 . S
C21 O26 1.247 . S
C21 O27 1.208 . S
C22 O14 1.315 . S
C22 O17 1.279 . S
C23 O24 1.315 . S
C23 O25 1.279 . S
O24 Cd16 2.223 . S
O24 C23 1.315 . S
O25 Cd15 2.240 . S
O25 C23 1.279 . S
O26 Cd16 2.297 . S
O26 C21 1.247 . S
O27 Cd16 2.439 . S
O27 C21 1.208 . S
O28 Cd29 2.223 . S
O28 C36 1.315 . S
Cd29 O28 2.223 . S
Cd29 O32 2.297 . S
Cd29 O33 2.439 . S
Cd29 O39 2.240 . S
Cd30 O31 2.240 . S
Cd30 O38 2.223 . S
Cd30 O40 2.297 . S
Cd30 O41 2.439 . S
O31 Cd30 2.240 . S
O31 C36 1.279 . S
O32 Cd29 2.297 . S
O32 C34 1.247 . S
O33 Cd29 2.439 . S
O33 C34 1.208 . S
C34 O32 1.247 . S
C34 O33 1.208 . S
C35 O40 1.247 . S
C35 O41 1.208 . S
C36 O28 1.315 . S
C36 O31 1.279 . S
C37 O38 1.315 . S
C37 O39 1.279 . S
O38 Cd30 2.223 . S
O38 C37 1.315 . S
O39 Cd29 2.240 . S
O39 C37 1.279 . S
O40 Cd30 2.297 . S
O40 C35 1.247 . S
O41 Cd30 2.439 . S
O41 C35 1.208 . S
O42 Cd43 2.223 . S
O42 C50 1.315 . S
Cd43 O42 2.223 . S
Cd43 O46 2.297 . S
Cd43 O47 2.439 . S
Cd43 O53 2.240 . S
Cd44 O45 2.240 . S
Cd44 O52 2.223 . S
Cd44 O54 2.297 . S
Cd44 O55 2.439 . S
O45 Cd44 2.240 . S
O45 C50 1.279 . S
O46 Cd43 2.297 . S
O46 C48 1.247 . S
O47 Cd43 2.439 . S
O47 C48 1.208 . S
C48 O46 1.247 . S
C48 O47 1.208 . S
C49 O54 1.247 . S
C49 O55 1.208 . S
C50 O42 1.315 . S
C50 O45 1.279 . S
C51 O52 1.315 . S
C51 O53 1.279 . S
O52 Cd44 2.223 . S
O52 C51 1.315 . S
O53 Cd43 2.240 . S
O53 C51 1.279 . S
O54 Cd44 2.297 . S
O54 C49 1.247 . S
O55 Cd44 2.439 . S
O55 C49 1.208 . S
O56 Cd57 2.223 . S
O56 C64 1.315 . S
Cd57 O56 2.223 . S
Cd57 O60 2.297 . S
Cd57 O61 2.439 . S
Cd57 O67 2.240 . S
Cd58 O59 2.240 . S
Cd58 O66 2.223 . S
Cd58 O68 2.297 . S
Cd58 O69 2.439 . S
O59 Cd58 2.240 . S
O59 C64 1.279 . S
O60 Cd57 2.297 . S
O60 C62 1.247 . S
O61 Cd57 2.439 . S
O61 C62 1.208 . S
C62 O60 1.247 . S
C62 O61 1.208 . S
C63 O68 1.247 . S
C63 O69 1.208 . S
C64 O56 1.315 . S
C64 O59 1.279 . S
C65 O66 1.315 . S
C65 O67 1.279 . S
O66 Cd58 2.223 . S
O66 C65 1.315 . S
O67 Cd57 2.240 . S
O67 C65 1.279 . S
O68 Cd58 2.297 . S
O68 C63 1.247 . S
O69 Cd58 2.439 . S
O69 C63 1.208 . S
O70 Cd71 2.223 . S
O70 C78 1.315 . S
Cd71 O70 2.223 . S
Cd71 O74 2.297 . S
Cd71 O75 2.439 . S
Cd71 O81 2.240 . S
Cd72 O73 2.240 . S
Cd72 O80 2.223 . S
Cd72 O82 2.297 . S
Cd72 O83 2.439 . S
O73 Cd72 2.240 . S
O73 C78 1.279 . S
O74 Cd71 2.297 . S
O74 C76 1.247 . S
O75 Cd71 2.439 . S
O75 C76 1.208 . S
C76 O74 1.247 . S
C76 O75 1.208 . S
C77 O82 1.247 . S
C77 O83 1.208 . S
C78 O70 1.315 . S
C78 O73 1.279 . S
C79 O80 1.315 . S
C79 O81 1.279 . S
O80 Cd72 2.223 . S
O80 C79 1.315 . S
O81 Cd71 2.240 . S
O81 C79 1.279 . S
O82 Cd72 2.297 . S
O82 C77 1.247 . S
O83 Cd72 2.439 . S
O83 C77 1.208 . S
O84 Cd85 2.223 . S
O84 C92 1.315 . S
Cd85 O84 2.223 . S
Cd85 O88 2.297 . S
Cd85 O89 2.439 . S
Cd85 O95 2.240 . S
Cd86 O87 2.240 . S
Cd86 O94 2.223 . S
Cd86 O96 2.297 . S
Cd86 O97 2.439 . S
O87 Cd86 2.240 . S
O87 C92 1.279 . S
O88 Cd85 2.297 . S
O88 C90 1.247 . S
O89 Cd85 2.439 . S
O89 C90 1.208 . S
C90 O88 1.247 . S
C90 O89 1.208 . S
C91 O96 1.247 . S
C91 O97 1.208 . S
C92 O84 1.315 . S
C92 O87 1.279 . S
C93 O94 1.315 . S
C93 O95 1.279 . S
O94 Cd86 2.223 . S
O94 C93 1.315 . S
O95 Cd85 2.240 . S
O95 C93 1.279 . S
O96 Cd86 2.297 . S
O96 C91 1.247 . S
O97 Cd86 2.439 . S
O97 C91 1.208 . S
O98 Cd99 2.223 . S
O98 C106 1.315 . S
Cd99 O98 2.223 . S
Cd99 O102 2.297 . S
Cd99 O103 2.439 . S
Cd99 O109 2.240 . S
Cd100 O101 2.240 . S
Cd100 O108 2.223 . S
Cd100 O110 2.297 . S
Cd100 O111 2.439 . S
O101 Cd100 2.240 . S
O101 C106 1.279 . S
O102 Cd99 2.297 . S
O102 C104 1.247 . S
O103 Cd99 2.439 . S
O103 C104 1.208 . S
C104 O102 1.247 . S
C104 O103 1.208 . S
C105 O110 1.247 . S
C105 O111 1.208 . S
C106 O98 1.315 . S
C106 O101 1.279 . S
C107 O108 1.315 . S
C107 O109 1.279 . S
O108 Cd100 2.223 . S
O108 C107 1.315 . S
O109 Cd99 2.240 . S
O109 C107 1.279 . S
O110 Cd100 2.297 . S
O110 C105 1.247 . S
O111 Cd100 2.439 . S
O111 C105 1.208 . S
O112 Cd113 2.223 . S
O112 C120 1.315 . S
Cd113 O112 2.223 . S
Cd113 O116 2.297 . S
Cd113 O117 2.439 . S
Cd113 O123 2.240 . S
Cd114 O115 2.240 . S
Cd114 O122 2.223 . S
Cd114 O124 2.297 . S
Cd114 O125 2.439 . S
O115 Cd114 2.240 . S
O115 C120 1.279 . S
O116 Cd113 2.297 . S
O116 C118 1.247 . S
O117 Cd113 2.439 . S
O117 C118 1.208 . S
C118 O116 1.247 . S
C118 O117 1.208 . S
C119 O124 1.247 . S
C119 O125 1.208 . S
C120 O112 1.315 . S
C120 O115 1.279 . S
C121 O122 1.315 . S
C121 O123 1.279 . S
O122 Cd114 2.223 . S
O122 C121 1.315 . S
O123 Cd113 2.240 . S
O123 C121 1.279 . S
O124 Cd114 2.297 . S
O124 C119 1.247 . S
O125 Cd114 2.439 . S
O125 C119 1.208 . S
O126 Cd127 2.223 . S
O126 C134 1.315 . S
Cd127 O126 2.223 . S
Cd127 O130 2.297 . S
Cd127 O131 2.439 . S
Cd127 O137 2.240 . S
Cd128 O129 2.240 . S
Cd128 O136 2.223 . S
Cd128 O138 2.297 . S
Cd128 O139 2.439 . S
O129 Cd128 2.240 . S
O129 C134 1.279 . S
O130 Cd127 2.297 . S
O130 C132 1.247 . S
O131 Cd127 2.439 . S
O131 C132 1.208 . S
C132 O130 1.247 . S
C132 O131 1.208 . S
C133 O138 1.247 . S
C133 O139 1.208 . S
C134 O126 1.315 . S
C134 O129 1.279 . S
C135 O136 1.315 . S
C135 O137 1.279 . S
O136 Cd128 2.223 . S
O136 C135 1.315 . S
O137 Cd127 2.240 . S
O137 C135 1.279 . S
O138 Cd128 2.297 . S
O138 C133 1.247 . S
O139 Cd128 2.439 . S
O139 C133 1.208 . S
O140 Cd141 2.223 . S
O140 C148 1.315 . S
Cd141 O140 2.223 . S
Cd141 O144 2.297 . S
Cd141 O145 2.439 . S
Cd141 O151 2.240 . S
Cd142 O143 2.240 . S
Cd142 O150 2.223 . S
Cd142 O152 2.297 . S
Cd142 O153 2.439 . S
O143 Cd142 2.240 . S
O143 C148 1.279 . S
O144 Cd141 2.297 . S
O144 C146 1.247 . S
O145 Cd141 2.439 . S
O145 C146 1.208 . S
C146 O144 1.247 . S
C146 O145 1.208 . S
C147 O152 1.247 . S
C147 O153 1.208 . S
C148 O140 1.315 . S
C148 O143 1.279 . S
C149 O150 1.315 . S
C149 O151 1.279 . S
O150 Cd142 2.223 . S
O150 C149 1.315 . S
O151 Cd141 2.240 . S
O151 C149 1.279 . S
O152 Cd142 2.297 . S
O152 C147 1.247 . S
O153 Cd142 2.439 . S
O153 C147 1.208 . S
O154 Cd155 2.223 . S
O154 C162 1.315 . S
Cd155 O154 2.223 . S
Cd155 O158 2.297 . S
Cd155 O159 2.439 . S
Cd155 O165 2.240 . S
Cd156 O157 2.240 . S
Cd156 O164 2.223 . S
Cd156 O166 2.297 . S
Cd156 O167 2.439 . S
O157 Cd156 2.240 . S
O157 C162 1.279 . S
O158 Cd155 2.297 . S
O158 C160 1.247 . S
O159 Cd155 2.439 . S
O159 C160 1.208 . S
C160 O158 1.247 . S
C160 O159 1.208 . S
C161 O166 1.247 . S
C161 O167 1.208 . S
C162 O154 1.315 . S
C162 O157 1.279 . S
C163 O164 1.315 . S
C163 O165 1.279 . S
O164 Cd156 2.223 . S
O164 C163 1.315 . S
O165 Cd155 2.240 . S
O165 C163 1.279 . S
O166 Cd156 2.297 . S
O166 C161 1.247 . S
O167 Cd156 2.439 . S
O167 C161 1.208 . S
O168 Cd169 2.223 . S
O168 C176 1.315 . S
Cd169 O168 2.223 . S
Cd169 O172 2.297 . S
Cd169 O173 2.439 . S
Cd169 O179 2.240 . S
Cd170 O171 2.240 . S
Cd170 O178 2.223 . S
Cd170 O180 2.297 . S
Cd170 O181 2.439 . S
O171 Cd170 2.240 . S
O171 C176 1.279 . S
O172 Cd169 2.297 . S
O172 C174 1.247 . S
O173 Cd169 2.439 . S
O173 C174 1.208 . S
C174 O172 1.247 . S
C174 O173 1.208 . S
C175 O180 1.247 . S
C175 O181 1.208 . S
C176 O168 1.315 . S
C176 O171 1.279 . S
C177 O178 1.315 . S
C177 O179 1.279 . S
O178 Cd170 2.223 . S
O178 C177 1.315 . S
O179 Cd169 2.240 . S
O179 C177 1.279 . S
O180 Cd170 2.297 . S
O180 C175 1.247 . S
O181 Cd170 2.439 . S
O181 C175 1.208 . S
O182 Cd183 2.223 . S
O182 C190 1.315 . S
Cd183 O182 2.223 . S
Cd183 O186 2.297 . S
Cd183 O187 2.439 . S
Cd183 O193 2.240 . S
Cd184 O185 2.240 . S
Cd184 O192 2.223 . S
Cd184 O194 2.297 . S
Cd184 O195 2.439 . S
O185 Cd184 2.240 . S
O185 C190 1.279 . S
O186 Cd183 2.297 . S
O186 C188 1.247 . S
O187 Cd183 2.439 . S
O187 C188 1.208 . S
C188 O186 1.247 . S
C188 O187 1.208 . S
C189 O194 1.247 . S
C189 O195 1.208 . S
C190 O182 1.315 . S
C190 O185 1.279 . S
C191 O192 1.315 . S
C191 O193 1.279 . S
O192 Cd184 2.223 . S
O192 C191 1.315 . S
O193 Cd183 2.240 . S
O193 C191 1.279 . S
O194 Cd184 2.297 . S
O194 C189 1.247 . S
O195 Cd184 2.439 . S
O195 C189 1.208 . S
O196 Cd197 2.223 . S
O196 C204 1.315 . S
Cd197 O196 2.223 . S
Cd197 O200 2.297 . S
Cd197 O201 2.439 . S
Cd197 O207 2.240 . S
Cd198 O199 2.240 . S
Cd198 O206 2.223 . S
Cd198 O208 2.297 . S
Cd198 O209 2.439 . S
O199 Cd198 2.240 . S
O199 C204 1.279 . S
O200 Cd197 2.297 . S
O200 C202 1.247 . S
O201 Cd197 2.439 . S
O201 C202 1.208 . S
C202 O200 1.247 . S
C202 O201 1.208 . S
C203 O208 1.247 . S
C203 O209 1.208 . S
C204 O196 1.315 . S
C204 O199 1.279 . S
C205 O206 1.315 . S
C205 O207 1.279 . S
O206 Cd198 2.223 . S
O206 C205 1.315 . S
O207 Cd197 2.240 . S
O207 C205 1.279 . S
O208 Cd198 2.297 . S
O208 C203 1.247 . S
O209 Cd198 2.439 . S
O209 C203 1.208 . S
O210 Cd211 2.223 . S
O210 C218 1.315 . S
Cd211 O210 2.223 . S
Cd211 O214 2.297 . S
Cd211 O215 2.439 . S
Cd211 O221 2.240 . S
Cd212 O213 2.240 . S
Cd212 O220 2.223 . S
Cd212 O222 2.297 . S
Cd212 O223 2.439 . S
O213 Cd212 2.240 . S
O213 C218 1.279 . S
O214 Cd211 2.297 . S
O214 C216 1.247 . S
O215 Cd211 2.439 . S
O215 C216 1.208 . S
C216 O214 1.247 . S
C216 O215 1.208 . S
C217 O222 1.247 . S
C217 O223 1.208 . S
C218 O210 1.315 . S
C218 O213 1.279 . S
C219 O220 1.315 . S
C219 O221 1.279 . S
O220 Cd212 2.223 . S
O220 C219 1.315 . S
O221 Cd211 2.240 . S
O221 C219 1.279 . S
O222 Cd212 2.297 . S
O222 C217 1.247 . S
O223 Cd212 2.439 . S
O223 C217 1.208 . S
O224 Cd225 2.223 . S
O224 C232 1.315 . S
Cd225 O224 2.223 . S
Cd225 O228 2.297 . S
Cd225 O229 2.439 . S
Cd225 O235 2.240 . S
Cd226 O227 2.240 . S
Cd226 O234 2.223 . S
Cd226 O236 2.297 . S
Cd226 O237 2.439 . S
O227 Cd226 2.240 . S
O227 C232 1.279 . S
O228 Cd225 2.297 . S
O228 C230 1.247 . S
O229 Cd225 2.439 . S
O229 C230 1.208 . S
C230 O228 1.247 . S
C230 O229 1.208 . S
C231 O236 1.247 . S
C231 O237 1.208 . S
C232 O224 1.315 . S
C232 O227 1.279 . S
C233 O234 1.315 . S
C233 O235 1.279 . S
O234 Cd226 2.223 . S
O234 C233 1.315 . S
O235 Cd225 2.240 . S
O235 C233 1.279 . S
O236 Cd226 2.297 . S
O236 C231 1.247 . S
O237 Cd226 2.439 . S
O237 C231 1.208 . S
O238 Cd239 2.223 . S
O238 C246 1.315 . S
Cd239 O238 2.223 . S
Cd239 O242 2.297 . S
Cd239 O243 2.439 . S
Cd239 O249 2.240 . S
Cd240 O241 2.240 . S
Cd240 O248 2.223 . S
Cd240 O250 2.297 . S
Cd240 O251 2.439 . S
O241 Cd240 2.240 . S
O241 C246 1.279 . S
O242 Cd239 2.297 . S
O242 C244 1.247 . S
O243 Cd239 2.439 . S
O243 C244 1.208 . S
C244 O242 1.247 . S
C244 O243 1.208 . S
C245 O250 1.247 . S
C245 O251 1.208 . S
C246 O238 1.315 . S
C246 O241 1.279 . S
C247 O248 1.315 . S
C247 O249 1.279 . S
O248 Cd240 2.223 . S
O248 C247 1.315 . S
O249 Cd239 2.240 . S
O249 C247 1.279 . S
O250 Cd240 2.297 . S
O250 C245 1.247 . S
O251 Cd240 2.439 . S
O251 C245 1.208 . S
O252 Cd253 2.223 . S
O252 C260 1.315 . S
Cd253 O252 2.223 . S
Cd253 O256 2.297 . S
Cd253 O257 2.439 . S
Cd253 O263 2.240 . S
Cd254 O255 2.240 . S
Cd254 O262 2.223 . S
Cd254 O264 2.297 . S
Cd254 O265 2.439 . S
O255 Cd254 2.240 . S
O255 C260 1.279 . S
O256 Cd253 2.297 . S
O256 C258 1.247 . S
O257 Cd253 2.439 . S
O257 C258 1.208 . S
C258 O256 1.247 . S
C258 O257 1.208 . S
C259 O264 1.247 . S
C259 O265 1.208 . S
C260 O252 1.315 . S
C260 O255 1.279 . S
C261 O262 1.315 . S
C261 O263 1.279 . S
O262 Cd254 2.223 . S
O262 C261 1.315 . S
O263 Cd253 2.240 . S
O263 C261 1.279 . S
O264 Cd254 2.297 . S
O264 C259 1.247 . S
O265 Cd254 2.439 . S
O265 C259 1.208 . S
O266 Cd267 2.223 . S
O266 C274 1.315 . S
Cd267 O266 2.223 . S
Cd267 O270 2.297 . S
Cd267 O271 2.439 . S
Cd267 O277 2.240 . S
Cd268 O269 2.240 . S
Cd268 O276 2.223 . S
Cd268 O278 2.297 . S
Cd268 O279 2.439 . S
O269 Cd268 2.240 . S
O269 C274 1.279 . S
O270 Cd267 2.297 . S
O270 C272 1.247 . S
O271 Cd267 2.439 . S
O271 C272 1.208 . S
C272 O270 1.247 . S
C272 O271 1.208 . S
C273 O278 1.247 . S
C273 O279 1.208 . S
C274 O266 1.315 . S
C274 O269 1.279 . S
C275 O276 1.315 . S
C275 O277 1.279 . S
O276 Cd268 2.223 . S
O276 C275 1.315 . S
O277 Cd267 2.240 . S
O277 C275 1.279 . S
O278 Cd268 2.297 . S
O278 C273 1.247 . S
O279 Cd268 2.439 . S
O279 C273 1.208 . S
O280 Cd281 2.223 . S
O280 C288 1.315 . S
Cd281 O280 2.223 . S
Cd281 O284 2.297 . S
Cd281 O285 2.439 . S
Cd281 O291 2.240 . S
Cd282 O283 2.240 . S
Cd282 O290 2.223 . S
Cd282 O292 2.297 . S
Cd282 O293 2.439 . S
O283 Cd282 2.240 . S
O283 C288 1.279 . S
O284 Cd281 2.297 . S
O284 C286 1.247 . S
O285 Cd281 2.439 . S
O285 C286 1.208 . S
C286 O284 1.247 . S
C286 O285 1.208 . S
C287 O292 1.247 . S
C287 O293 1.208 . S
C288 O280 1.315 . S
C288 O283 1.279 . S
C289 O290 1.315 . S
C289 O291 1.279 . S
O290 Cd282 2.223 . S
O290 C289 1.315 . S
O291 Cd281 2.240 . S
O291 C289 1.279 . S
O292 Cd282 2.297 . S
O292 C287 1.247 . S
O293 Cd282 2.439 . S
O293 C287 1.208 . S
O294 Cd295 2.223 . S
O294 C302 1.315 . S
Cd295 O294 2.223 . S
Cd295 O298 2.297 . S
Cd295 O299 2.439 . S
Cd295 O305 2.240 . S
Cd296 O297 2.240 . S
Cd296 O304 2.223 . S
Cd296 O306 2.297 . S
Cd296 O307 2.439 . S
O297 Cd296 2.240 . S
O297 C302 1.279 . S
O298 Cd295 2.297 . S
O298 C300 1.247 . S
O299 Cd295 2.439 . S
O299 C300 1.208 . S
C300 O298 1.247 . S
C300 O299 1.208 . S
C301 O306 1.247 . S
C301 O307 1.208 . S
C302 O294 1.315 . S
C302 O297 1.279 . S
C303 O304 1.315 . S
C303 O305 1.279 . S
O304 Cd296 2.223 . S
O304 C303 1.315 . S
O305 Cd295 2.240 . S
O305 C303 1.279 . S
O306 Cd296 2.297 . S
O306 C301 1.247 . S
O307 Cd296 2.439 . S
O307 C301 1.208 . S
O308 Cd309 2.223 . S
O308 C316 1.315 . S
Cd309 O308 2.223 . S
Cd309 O312 2.297 . S
Cd309 O313 2.439 . S
Cd309 O319 2.240 . S
Cd310 O311 2.240 . S
Cd310 O318 2.223 . S
Cd310 O320 2.297 . S
Cd310 O321 2.439 . S
O311 Cd310 2.240 . S
O311 C316 1.279 . S
O312 Cd309 2.297 . S
O312 C314 1.247 . S
O313 Cd309 2.439 . S
O313 C314 1.208 . S
C314 O312 1.247 . S
C314 O313 1.208 . S
C315 O320 1.247 . S
C315 O321 1.208 . S
C316 O308 1.315 . S
C316 O311 1.279 . S
C317 O318 1.315 . S
C317 O319 1.279 . S
O318 Cd310 2.223 . S
O318 C317 1.315 . S
O319 Cd309 2.240 . S
O319 C317 1.279 . S
O320 Cd310 2.297 . S
O320 C315 1.247 . S
O321 Cd310 2.439 . S
O321 C315 1.208 . S
O322 Cd323 2.223 . S
O322 C330 1.315 . S
Cd323 O322 2.223 . S
Cd323 O326 2.297 . S
Cd323 O327 2.439 . S
Cd323 O333 2.240 . S
Cd324 O325 2.240 . S
Cd324 O332 2.223 . S
Cd324 O334 2.297 . S
Cd324 O335 2.439 . S
O325 Cd324 2.240 . S
O325 C330 1.279 . S
O326 Cd323 2.297 . S
O326 C328 1.247 . S
O327 Cd323 2.439 . S
O327 C328 1.208 . S
C328 O326 1.247 . S
C328 O327 1.208 . S
C329 O334 1.247 . S
C329 O335 1.208 . S
C330 O322 1.315 . S
C330 O325 1.279 . S
C331 O332 1.315 . S
C331 O333 1.279 . S
O332 Cd324 2.223 . S
O332 C331 1.315 . S
O333 Cd323 2.240 . S
O333 C331 1.279 . S
O334 Cd324 2.297 . S
O334 C329 1.247 . S
O335 Cd324 2.439 . S
O335 C329 1.208 . S
H336 C344 0.950 . S
H337 C349 0.950 . S
H338 C346 0.950 . S
H339 C348 0.950 1_565 S
H340 C350 0.950 . S
H341 C352 0.950 . S
H342 C354 0.950 1_545 S
H343 C355 0.950 . S
C344 H336 0.950 . S
C344 C345 1.386 . S
C344 C346 1.391 . S
C345 C344 1.386 . S
C345 C349 1.393 . S
C346 H338 0.950 . S
C346 C344 1.391 . S
C346 C347 1.400 . S
C347 C346 1.400 . S
C347 C348 1.398 . S
C347 C353 1.491 1_545 S
C348 H339 0.950 1_545 S
C348 C347 1.398 . S
C348 C349 1.391 . S
C349 H337 0.950 . S
C349 C345 1.393 . S
C349 C348 1.391 . S
C350 H340 0.950 . S
C350 C351 1.386 . S
C350 C352 1.391 . S
C351 C350 1.386 . S
C351 C355 1.393 . S
C352 H341 0.950 . S
C352 C350 1.391 . S
C352 C353 1.400 . S
C353 C347 1.491 1_565 S
C353 C352 1.400 . S
C353 C354 1.398 . S
C354 H342 0.950 1_565 S
C354 C353 1.398 . S
C354 C355 1.391 . S
C355 H343 0.950 . S
C355 C351 1.393 . S
C355 C354 1.391 . S
H356 C364 0.950 . S
H357 C369 0.950 . S
H358 C366 0.950 . S
H359 C368 0.950 . S
H360 C370 0.950 . S
H361 C372 0.950 . S
H362 C374 0.950 . S
H363 C375 0.950 . S
C364 H356 0.950 . S
C364 C365 1.386 . S
C364 C366 1.391 . S
C365 C364 1.386 . S
C365 C369 1.393 . S
C366 H358 0.950 . S
C366 C364 1.391 . S
C366 C367 1.400 . S
C367 C366 1.400 . S
C367 C368 1.398 . S
C367 C373 1.491 . S
C368 H359 0.950 . S
C368 C367 1.398 . S
C368 C369 1.391 . S
C369 H357 0.950 . S
C369 C365 1.393 . S
C369 C368 1.391 . S
C370 H360 0.950 . S
C370 C371 1.386 . S
C370 C372 1.391 . S
C371 C370 1.386 . S
C371 C375 1.393 . S
C372 H361 0.950 . S
C372 C370 1.391 . S
C372 C373 1.400 . S
C373 C367 1.491 . S
C373 C372 1.400 . S
C373 C374 1.398 . S
C374 H362 0.950 . S
C374 C373 1.398 . S
C374 C375 1.391 . S
C375 H363 0.950 . S
C375 C371 1.393 . S
C375 C374 1.391 . S
H376 C384 0.950 . S
H377 C389 0.950 . S
H378 C386 0.950 . S
H379 C388 0.950 . S
H380 C390 0.950 . S
H381 C392 0.950 . S
H382 C394 0.950 . S
H383 C395 0.950 . S
C384 H376 0.950 . S
C384 C385 1.386 . S
C384 C386 1.391 . S
C385 C384 1.386 . S
C385 C389 1.393 . S
C386 H378 0.950 . S
C386 C384 1.391 . S
C386 C387 1.400 . S
C387 C386 1.400 . S
C387 C388 1.398 . S
C387 C393 1.491 1_655 S
C388 H379 0.950 . S
C388 C387 1.398 . S
C388 C389 1.391 . S
C389 H377 0.950 . S
C389 C385 1.393 . S
C389 C388 1.391 . S
C390 H380 0.950 . S
C390 C391 1.386 . S
C390 C392 1.391 . S
C391 C390 1.386 . S
C391 C395 1.393 . S
C392 H381 0.950 . S
C392 C390 1.391 . S
C392 C393 1.400 . S
C393 C387 1.491 1_455 S
C393 C392 1.400 . S
C393 C394 1.398 . S
C394 H382 0.950 . S
C394 C393 1.398 . S
C394 C395 1.391 . S
C395 H383 0.950 . S
C395 C391 1.393 . S
C395 C394 1.391 . S
H396 C404 0.950 . S
H397 C409 0.950 . S
H398 C406 0.950 . S
H399 C408 0.950 . S
H400 C410 0.950 . S
H401 C412 0.950 . S
H402 C414 0.950 . S
H403 C415 0.950 . S
C404 H396 0.950 . S
C404 C405 1.386 . S
C404 C406 1.391 . S
C405 C404 1.386 . S
C405 C409 1.393 . S
C406 H398 0.950 . S
C406 C404 1.391 . S
C406 C407 1.400 . S
C407 C406 1.400 . S
C407 C408 1.398 . S
C407 C413 1.491 1_565 S
C408 H399 0.950 . S
C408 C407 1.398 . S
C408 C409 1.391 . S
C409 H397 0.950 . S
C409 C405 1.393 . S
C409 C408 1.391 . S
C410 H400 0.950 . S
C410 C411 1.386 . S
C410 C412 1.391 . S
C411 C410 1.386 . S
C411 C415 1.393 . S
C412 H401 0.950 . S
C412 C410 1.391 . S
C412 C413 1.400 . S
C413 C407 1.491 1_545 S
C413 C412 1.400 . S
C413 C414 1.398 . S
C414 H402 0.950 . S
C414 C413 1.398 . S
C414 C415 1.391 . S
C415 H403 0.950 . S
C415 C411 1.393 . S
C415 C414 1.391 . S
H416 C424 0.950 . S
H417 C429 0.950 . S
H418 C426 0.950 . S
H419 C428 0.950 . S
H420 C430 0.950 . S
H421 C432 0.950 . S
H422 C434 0.950 . S
H423 C435 0.950 . S
C424 H416 0.950 . S
C424 C425 1.386 . S
C424 C426 1.391 . S
C425 C424 1.386 . S
C425 C429 1.393 . S
C426 H418 0.950 . S
C426 C424 1.391 . S
C426 C427 1.400 . S
C427 C426 1.400 . S
C427 C428 1.398 . S
C427 C433 1.491 . S
C428 H419 0.950 . S
C428 C427 1.398 . S
C428 C429 1.391 . S
C429 H417 0.950 . S
C429 C425 1.393 . S
C429 C428 1.391 . S
C430 H420 0.950 . S
C430 C431 1.386 . S
C430 C432 1.391 . S
C431 C430 1.386 . S
C431 C435 1.393 . S
C432 H421 0.950 . S
C432 C430 1.391 . S
C432 C433 1.400 . S
C433 C427 1.491 . S
C433 C432 1.400 . S
C433 C434 1.398 . S
C434 H422 0.950 . S
C434 C433 1.398 . S
C434 C435 1.391 . S
C435 H423 0.950 . S
C435 C431 1.393 . S
C435 C434 1.391 . S
H436 C444 0.950 . S
H437 C449 0.950 . S
H438 C446 0.994 . S
H439 C448 0.950 . S
H440 C450 0.950 . S
H441 C452 0.994 . S
H442 C454 0.950 . S
H443 C455 0.950 . S
C444 H436 0.950 . S
C444 C445 1.386 . S
C444 C446 1.391 . S
C445 C444 1.386 . S
C445 C449 1.393 . S
C446 H438 0.994 . S
C446 C444 1.391 . S
C446 C447 1.400 . S
C447 C446 1.400 . S
C447 C448 1.398 . S
C447 C453 1.491 1_455 S
C448 H439 0.950 . S
C448 C447 1.398 . S
C448 C449 1.391 . S
C449 H437 0.950 . S
C449 C445 1.393 . S
C449 C448 1.391 . S
C450 H440 0.950 . S
C450 C451 1.386 . S
C450 C452 1.391 . S
C451 C450 1.386 . S
C451 C455 1.393 . S
C452 H441 0.994 . S
C452 C450 1.391 . S
C452 C453 1.400 . S
C453 C447 1.491 1_655 S
C453 C452 1.400 . S
C453 C454 1.398 . S
C454 H442 0.950 . S
C454 C453 1.398 . S
C454 C455 1.391 . S
C455 H443 0.950 . S
C455 C451 1.393 . S
C455 C454 1.391 . S
H456 C464 0.950 . S
H457 C469 0.950 . S
H458 C466 0.950 . S
H459 C468 0.950 . S
H460 C470 0.950 . S
H461 C472 0.950 . S
H462 C474 0.950 . S
H463 C475 0.950 . S
C464 H456 0.950 . S
C464 C465 1.386 . S
C464 C466 1.391 . S
C465 C464 1.386 . S
C465 C469 1.393 . S
C466 H458 0.950 . S
C466 C464 1.391 . S
C466 C467 1.400 . S
C467 C466 1.400 . S
C467 C468 1.398 . S
C467 C473 1.491 1_565 S
C468 H459 0.950 . S
C468 C467 1.398 . S
C468 C469 1.391 . S
C469 H457 0.950 . S
C469 C465 1.393 . S
C469 C468 1.391 . S
C470 H460 0.950 . S
C470 C471 1.386 . S
C470 C472 1.391 . S
C471 C470 1.386 . S
C471 C475 1.393 . S
C472 H461 0.950 . S
C472 C470 1.391 . S
C472 C473 1.400 . S
C473 C467 1.491 1_545 S
C473 C472 1.400 . S
C473 C474 1.398 . S
C474 H462 0.950 . S
C474 C473 1.398 . S
C474 C475 1.391 . S
C475 H463 0.950 . S
C475 C471 1.393 . S
C475 C474 1.391 . S
H476 C484 0.950 . S
H477 C489 0.950 . S
H478 C486 0.950 . S
H479 C488 0.950 . S
H480 C490 0.950 . S
H481 C492 0.950 . S
H482 C494 0.950 . S
H483 C495 0.950 . S
C484 H476 0.950 . S
C484 C485 1.386 . S
C484 C486 1.391 . S
C485 C484 1.386 . S
C485 C489 1.393 . S
C486 H478 0.950 . S
C486 C484 1.391 . S
C486 C487 1.400 . S
C487 C486 1.400 . S
C487 C488 1.398 . S
C487 C493 1.491 . S
C488 H479 0.950 . S
C488 C487 1.398 . S
C488 C489 1.391 . S
C489 H477 0.950 . S
C489 C485 1.393 . S
C489 C488 1.391 . S
C490 H480 0.950 . S
C490 C491 1.386 . S
C490 C492 1.391 . S
C491 C490 1.386 . S
C491 C495 1.393 . S
C492 H481 0.950 . S
C492 C490 1.391 . S
C492 C493 1.400 . S
C493 C487 1.491 . S
C493 C492 1.400 . S
C493 C494 1.398 . S
C494 H482 0.950 . S
C494 C493 1.398 . S
C494 C495 1.391 . S
C495 H483 0.950 . S
C495 C491 1.393 . S
C495 C494 1.391 . S
H496 C504 0.950 . S
H497 C509 0.950 . S
H498 C506 0.950 . S
H499 C508 0.950 . S
H500 C510 0.950 . S
H501 C512 0.950 . S
H502 C514 0.950 . S
H503 C515 0.950 . S
C504 H496 0.950 . S
C504 C505 1.386 . S
C504 C506 1.391 . S
C505 C504 1.386 . S
C505 C509 1.393 . S
C506 H498 0.950 . S
C506 C504 1.391 . S
C506 C507 1.400 . S
C507 C506 1.400 . S
C507 C508 1.398 . S
C507 C513 1.491 1_655 S
C508 H499 0.950 . S
C508 C507 1.398 . S
C508 C509 1.391 . S
C509 H497 0.950 . S
C509 C505 1.393 . S
C509 C508 1.391 . S
C510 H500 0.950 . S
C510 C511 1.386 . S
C510 C512 1.391 . S
C511 C510 1.386 . S
C511 C515 1.393 . S
C512 H501 0.950 . S
C512 C510 1.391 . S
C512 C513 1.400 . S
C513 C507 1.491 1_455 S
C513 C512 1.400 . S
C513 C514 1.398 . S
C514 H502 0.950 . S
C514 C513 1.398 . S
C514 C515 1.391 . S
C515 H503 0.950 . S
C515 C511 1.393 . S
C515 C514 1.391 . S
H516 C524 0.950 . S
H517 C529 0.950 . S
H518 C526 0.933 1_565 S
H519 C528 0.950 . S
H520 C530 0.950 . S
H521 C532 0.933 1_545 S
H522 C534 0.950 . S
H523 C535 0.950 . S
C524 H516 0.950 . S
C524 C525 1.386 . S
C524 C526 1.391 . S
C525 C524 1.386 . S
C525 C529 1.393 . S
C526 H518 0.933 1_545 S
C526 C524 1.391 . S
C526 C527 1.400 . S
C527 C526 1.400 . S
C527 C528 1.398 . S
C527 C533 1.491 1_545 S
C528 H519 0.950 . S
C528 C527 1.398 . S
C528 C529 1.391 . S
C529 H517 0.950 . S
C529 C525 1.393 . S
C529 C528 1.391 . S
C530 H520 0.950 . S
C530 C531 1.386 . S
C530 C532 1.391 . S
C531 C530 1.386 . S
C531 C535 1.393 . S
C532 H521 0.933 1_565 S
C532 C530 1.391 . S
C532 C533 1.400 . S
C533 C527 1.491 1_565 S
C533 C532 1.400 . S
C533 C534 1.398 . S
C534 H522 0.950 . S
C534 C533 1.398 . S
C534 C535 1.391 . S
C535 H523 0.950 . S
C535 C531 1.393 . S
C535 C534 1.391 . S
H536 C544 0.950 . S
H537 C549 0.950 . S
H538 C546 0.950 . S
H539 C548 0.950 . S
H540 C550 0.950 . S
H541 C552 0.950 . S
H542 C554 0.950 . S
H543 C555 0.950 . S
C544 H536 0.950 . S
C544 C545 1.386 . S
C544 C546 1.391 . S
C545 C544 1.386 . S
C545 C549 1.393 . S
C546 H538 0.950 . S
C546 C544 1.391 . S
C546 C547 1.400 . S
C547 C546 1.400 . S
C547 C548 1.398 . S
C547 C553 1.491 . S
C548 H539 0.950 . S
C548 C547 1.398 . S
C548 C549 1.391 . S
C549 H537 0.950 . S
C549 C545 1.393 . S
C549 C548 1.391 . S
C550 H540 0.950 . S
C550 C551 1.386 . S
C550 C552 1.391 . S
C551 C550 1.386 . S
C551 C555 1.393 . S
C552 H541 0.950 . S
C552 C550 1.391 . S
C552 C553 1.400 . S
C553 C547 1.491 . S
C553 C552 1.400 . S
C553 C554 1.398 . S
C554 H542 0.950 . S
C554 C553 1.398 . S
C554 C555 1.391 . S
C555 H543 0.950 . S
C555 C551 1.393 . S
C555 C554 1.391 . S
H556 C564 0.950 . S
H557 C569 0.950 . S
H558 C566 0.950 1_655 S
H559 C568 0.950 . S
H560 C570 0.950 . S
H561 C572 0.950 1_455 S
H562 C574 0.950 . S
H563 C575 0.950 . S
C564 H556 0.950 . S
C564 C565 1.386 . S
C564 C566 1.391 . S
C565 C564 1.386 . S
C565 C569 1.393 . S
C566 H558 0.950 1_455 S
C566 C564 1.391 . S
C566 C567 1.400 . S
C567 C566 1.400 . S
C567 C568 1.398 . S
C567 C573 1.491 1_455 S
C568 H559 0.950 . S
C568 C567 1.398 . S
C568 C569 1.391 . S
C569 H557 0.950 . S
C569 C565 1.393 . S
C569 C568 1.391 . S
C570 H560 0.950 . S
C570 C571 1.386 . S
C570 C572 1.391 . S
C571 C570 1.386 . S
C571 C575 1.393 . S
C572 H561 0.950 1_655 S
C572 C570 1.391 . S
C572 C573 1.400 . S
C573 C567 1.491 1_655 S
C573 C572 1.400 . S
C573 C574 1.398 . S
C574 H562 0.950 . S
C574 C573 1.398 . S
C574 C575 1.391 . S
C575 H563 0.950 . S
C575 C571 1.393 . S
C575 C574 1.391 . S
H576 C584 0.950 . S
H577 C589 0.950 . S
H578 C586 0.950 . S
H579 C588 0.950 . S
H580 C590 0.950 . S
H581 C592 0.950 . S
H582 C594 0.950 . S
H583 C595 0.950 . S
C584 H576 0.950 . S
C584 C585 1.386 . S
C584 C586 1.391 . S
C585 C584 1.386 . S
C585 C589 1.393 . S
C586 H578 0.950 . S
C586 C584 1.391 . S
C586 C587 1.400 . S
C587 C586 1.400 . S
C587 C588 1.398 . S
C587 C593 1.491 . S
C588 H579 0.950 . S
C588 C587 1.398 . S
C588 C589 1.391 . S
C589 H577 0.950 . S
C589 C585 1.393 . S
C589 C588 1.391 . S
C590 H580 0.950 . S
C590 C591 1.386 . S
C590 C592 1.391 . S
C591 C590 1.386 . S
C591 C595 1.393 . S
C592 H581 0.950 . S
C592 C590 1.391 . S
C592 C593 1.400 . S
C593 C587 1.491 . S
C593 C592 1.400 . S
C593 C594 1.398 . S
C594 H582 0.950 . S
C594 C593 1.398 . S
C594 C595 1.391 . S
C595 H583 0.950 . S
C595 C591 1.393 . S
C595 C594 1.391 . S
H596 C604 0.950 . S
H597 C609 0.950 . S
H598 C606 0.950 . S
H599 C608 0.950 . S
H600 C610 0.950 . S
H601 C612 0.950 . S
H602 C614 0.950 . S
H603 C615 0.950 . S
C604 H596 0.950 . S
C604 C605 1.386 . S
C604 C606 1.391 . S
C605 C604 1.386 . S
C605 C609 1.393 . S
C606 H598 0.950 . S
C606 C604 1.391 . S
C606 C607 1.400 . S
C607 C606 1.400 . S
C607 C608 1.398 . S
C607 C613 1.491 . S
C608 H599 0.950 . S
C608 C607 1.398 . S
C608 C609 1.391 . S
C609 H597 0.950 . S
C609 C605 1.393 . S
C609 C608 1.391 . S
C610 H600 0.950 . S
C610 C611 1.386 . S
C610 C612 1.391 . S
C611 C610 1.386 . S
C611 C615 1.393 . S
C612 H601 0.950 . S
C612 C610 1.391 . S
C612 C613 1.400 . S
C613 C607 1.491 . S
C613 C612 1.400 . S
C613 C614 1.398 . S
C614 H602 0.950 . S
C614 C613 1.398 . S
C614 C615 1.391 . S
C615 H603 0.950 . S
C615 C611 1.393 . S
C615 C614 1.391 . S
H616 C624 0.950 . S
H617 C629 0.950 . S
H618 C626 0.950 . S
H619 C628 0.950 . S
H620 C630 0.950 . S
H621 C632 0.950 . S
H622 C634 0.950 . S
H623 C635 0.950 . S
C624 H616 0.950 . S
C624 C625 1.386 . S
C624 C626 1.391 . S
C625 C624 1.386 . S
C625 C629 1.393 . S
C626 H618 0.950 . S
C626 C624 1.391 . S
C626 C627 1.400 . S
C627 C626 1.400 . S
C627 C628 1.398 . S
C627 C633 1.491 . S
C628 H619 0.950 . S
C628 C627 1.398 . S
C628 C629 1.391 . S
C629 H617 0.950 . S
C629 C625 1.393 . S
C629 C628 1.391 . S
C630 H620 0.950 . S
C630 C631 1.386 . S
C630 C632 1.391 . S
C631 C630 1.386 . S
C631 C635 1.393 . S
C632 H621 0.950 . S
C632 C630 1.391 . S
C632 C633 1.400 . S
C633 C627 1.491 . S
C633 C632 1.400 . S
C633 C634 1.398 . S
C634 H622 0.950 . S
C634 C633 1.398 . S
C634 C635 1.391 . S
C635 H623 0.950 . S
C635 C631 1.393 . S
C635 C634 1.391 . S
H636 C644 0.950 . S
H637 C649 0.950 . S
H638 C646 0.950 . S
H639 C648 0.950 . S
H640 C650 0.950 . S
H641 C652 0.950 . S
H642 C654 0.950 . S
H643 C655 0.950 . S
C644 H636 0.950 . S
C644 C645 1.386 . S
C644 C646 1.391 . S
C645 C644 1.386 . S
C645 C649 1.393 . S
C646 H638 0.950 . S
C646 C644 1.391 . S
C646 C647 1.400 . S
C647 C646 1.400 . S
C647 C648 1.398 . S
C647 C653 1.491 . S
C648 H639 0.950 . S
C648 C647 1.398 . S
C648 C649 1.391 . S
C649 H637 0.950 . S
C649 C645 1.393 . S
C649 C648 1.391 . S
C650 H640 0.950 . S
C650 C651 1.386 . S
C650 C652 1.391 . S
C651 C650 1.386 . S
C651 C655 1.393 . S
C652 H641 0.950 . S
C652 C650 1.391 . S
C652 C653 1.400 . S
C653 C647 1.491 . S
C653 C652 1.400 . S
C653 C654 1.398 . S
C654 H642 0.950 . S
C654 C653 1.398 . S
C654 C655 1.391 . S
C655 H643 0.950 . S
C655 C651 1.393 . S
C655 C654 1.391 . S
H656 C664 0.950 . S
H657 C669 0.950 . S
H658 C666 0.950 . S
H659 C668 0.950 . S
H660 C670 0.950 . S
H661 C672 0.950 . S
H662 C674 0.950 . S
H663 C675 0.950 . S
C664 H656 0.950 . S
C664 C665 1.386 . S
C664 C666 1.391 . S
C665 C664 1.386 . S
C665 C669 1.393 . S
C666 H658 0.950 . S
C666 C664 1.391 . S
C666 C667 1.400 . S
C667 C666 1.400 . S
C667 C668 1.398 . S
C667 C673 1.491 . S
C668 H659 0.950 . S
C668 C667 1.398 . S
C668 C669 1.391 . S
C669 H657 0.950 . S
C669 C665 1.393 . S
C669 C668 1.391 . S
C670 H660 0.950 . S
C670 C671 1.386 . S
C670 C672 1.391 . S
C671 C670 1.386 . S
C671 C675 1.393 . S
C672 H661 0.950 . S
C672 C670 1.391 . S
C672 C673 1.400 . S
C673 C667 1.491 . S
C673 C672 1.400 . S
C673 C674 1.398 . S
C674 H662 0.950 . S
C674 C673 1.398 . S
C674 C675 1.391 . S
C675 H663 0.950 . S
C675 C671 1.393 . S
C675 C674 1.391 . S
H676 C684 0.950 . S
H677 C689 0.950 . S
H678 C686 0.950 . S
H679 C688 0.950 . S
H680 C690 0.950 . S
H681 C692 0.950 . S
H682 C694 0.950 . S
H683 C695 0.950 . S
C684 H676 0.950 . S
C684 C685 1.386 . S
C684 C686 1.391 . S
C685 C684 1.386 . S
C685 C689 1.393 . S
C686 H678 0.950 . S
C686 C684 1.391 . S
C686 C687 1.400 . S
C687 C686 1.400 . S
C687 C688 1.398 . S
C687 C693 1.491 . S
C688 H679 0.950 . S
C688 C687 1.398 . S
C688 C689 1.391 . S
C689 H677 0.950 . S
C689 C685 1.393 . S
C689 C688 1.391 . S
C690 H680 0.950 . S
C690 C691 1.386 . S
C690 C692 1.391 . S
C691 C690 1.386 . S
C691 C695 1.393 . S
C692 H681 0.950 . S
C692 C690 1.391 . S
C692 C693 1.400 . S
C693 C687 1.491 . S
C693 C692 1.400 . S
C693 C694 1.398 . S
C694 H682 0.950 . S
C694 C693 1.398 . S
C694 C695 1.391 . S
C695 H683 0.950 . S
C695 C691 1.393 . S
C695 C694 1.391 . S
H696 C704 0.950 . S
H697 C709 0.950 . S
H698 C706 0.950 . S
H699 C708 0.950 . S
H700 C710 0.950 . S
H701 C712 0.950 . S
H702 C714 0.950 . S
H703 C715 0.950 . S
C704 H696 0.950 . S
C704 C705 1.386 . S
C704 C706 1.391 . S
C705 C704 1.386 . S
C705 C709 1.393 . S
C706 H698 0.950 . S
C706 C704 1.391 . S
C706 C707 1.400 . S
C707 C706 1.400 . S
C707 C708 1.398 . S
C707 C713 1.491 . S
C708 H699 0.950 . S
C708 C707 1.398 . S
C708 C709 1.391 . S
C709 H697 0.950 . S
C709 C705 1.393 . S
C709 C708 1.391 . S
C710 H700 0.950 . S
C710 C711 1.386 . S
C710 C712 1.391 . S
C711 C710 1.386 . S
C711 C715 1.393 . S
C712 H701 0.950 . S
C712 C710 1.391 . S
C712 C713 1.400 . S
C713 C707 1.491 . S
C713 C712 1.400 . S
C713 C714 1.398 . S
C714 H702 0.950 . S
C714 C713 1.398 . S
C714 C715 1.391 . S
C715 H703 0.950 . S
C715 C711 1.393 . S
C715 C714 1.391 . S
H716 C724 0.950 . S
H717 C729 0.950 . S
H718 C726 0.950 . S
H719 C728 0.950 . S
H720 C730 0.950 . S
H721 C732 0.950 . S
H722 C734 0.950 . S
H723 C735 0.950 . S
C724 H716 0.950 . S
C724 C725 1.386 . S
C724 C726 1.391 . S
C725 C724 1.386 . S
C725 C729 1.393 . S
C726 H718 0.950 . S
C726 C724 1.391 . S
C726 C727 1.400 . S
C727 C726 1.400 . S
C727 C728 1.398 . S
C727 C733 1.491 . S
C728 H719 0.950 . S
C728 C727 1.398 . S
C728 C729 1.391 . S
C729 H717 0.950 . S
C729 C725 1.393 . S
C729 C728 1.391 . S
C730 H720 0.950 . S
C730 C731 1.386 . S
C730 C732 1.391 . S
C731 C730 1.386 . S
C731 C735 1.393 . S
C732 H721 0.950 . S
C732 C730 1.391 . S
C732 C733 1.400 . S
C733 C727 1.491 . S
C733 C732 1.400 . S
C733 C734 1.398 . S
C734 H722 0.950 . S
C734 C733 1.398 . S
C734 C735 1.391 . S
C735 H723 0.950 . S
C735 C731 1.393 . S
C735 C734 1.391 . S
H736 C744 0.950 . S
H737 C749 0.950 . S
H738 C746 0.950 . S
H739 C748 0.950 . S
H740 C750 0.950 . S
H741 C752 0.950 . S
H742 C754 0.950 . S
H743 C755 0.950 . S
C744 H736 0.950 . S
C744 C745 1.386 . S
C744 C746 1.391 . S
C745 C744 1.386 . S
C745 C749 1.393 . S
C746 H738 0.950 . S
C746 C744 1.391 . S
C746 C747 1.400 . S
C747 C746 1.400 . S
C747 C748 1.398 . S
C747 C753 1.491 . S
C748 H739 0.950 . S
C748 C747 1.398 . S
C748 C749 1.391 . S
C749 H737 0.950 . S
C749 C745 1.393 . S
C749 C748 1.391 . S
C750 H740 0.950 . S
C750 C751 1.386 . S
C750 C752 1.391 . S
C751 C750 1.386 . S
C751 C755 1.393 . S
C752 H741 0.950 . S
C752 C750 1.391 . S
C752 C753 1.400 . S
C753 C747 1.491 . S
C753 C752 1.400 . S
C753 C754 1.398 . S
C754 H742 0.950 . S
C754 C753 1.398 . S
C754 C755 1.391 . S
C755 H743 0.950 . S
C755 C751 1.393 . S
C755 C754 1.391 . S
H756 C764 0.950 . S
H757 C769 0.950 . S
H758 C766 0.950 . S
H759 C768 0.950 . S
H760 C770 0.950 . S
H761 C772 0.950 . S
H762 C774 0.950 . S
H763 C775 0.950 . S
C764 H756 0.950 . S
C764 C765 1.386 . S
C764 C766 1.391 . S
C765 C764 1.386 . S
C765 C769 1.393 . S
C766 H758 0.950 . S
C766 C764 1.391 . S
C766 C767 1.400 . S
C767 C766 1.400 . S
C767 C768 1.398 . S
C767 C773 1.491 . S
C768 H759 0.950 . S
C768 C767 1.398 . S
C768 C769 1.391 . S
C769 H757 0.950 . S
C769 C765 1.393 . S
C769 C768 1.391 . S
C770 H760 0.950 . S
C770 C771 1.386 . S
C770 C772 1.391 . S
C771 C770 1.386 . S
C771 C775 1.393 . S
C772 H761 0.950 . S
C772 C770 1.391 . S
C772 C773 1.400 . S
C773 C767 1.491 . S
C773 C772 1.400 . S
C773 C774 1.398 . S
C774 H762 0.950 . S
C774 C773 1.398 . S
C774 C775 1.391 . S
C775 H763 0.950 . S
C775 C771 1.393 . S
C775 C774 1.391 . S
H776 C784 0.950 . S
H777 C789 0.950 . S
H778 C786 0.950 . S
H779 C788 0.950 . S
H780 C790 0.950 . S
H781 C792 0.950 . S
H782 C794 0.950 . S
H783 C795 0.950 . S
C784 H776 0.950 . S
C784 C785 1.386 . S
C784 C786 1.391 . S
C785 C784 1.386 . S
C785 C789 1.393 . S
C786 H778 0.950 . S
C786 C784 1.391 . S
C786 C787 1.400 . S
C787 C786 1.400 . S
C787 C788 1.398 . S
C787 C793 1.491 . S
C788 H779 0.950 . S
C788 C787 1.398 . S
C788 C789 1.391 . S
C789 H777 0.950 . S
C789 C785 1.393 . S
C789 C788 1.391 . S
C790 H780 0.950 . S
C790 C791 1.386 . S
C790 C792 1.391 . S
C791 C790 1.386 . S
C791 C795 1.393 . S
C792 H781 0.950 . S
C792 C790 1.391 . S
C792 C793 1.400 . S
C793 C787 1.491 . S
C793 C792 1.400 . S
C793 C794 1.398 . S
C794 H782 0.950 . S
C794 C793 1.398 . S
C794 C795 1.391 . S
C795 H783 0.950 . S
C795 C791 1.393 . S
C795 C794 1.391 . S
H796 C804 0.950 . S
H797 C809 0.950 . S
H798 C806 0.950 . S
H799 C808 0.950 . S
H800 C810 0.950 . S
H801 C812 0.950 . S
H802 C814 0.950 . S
H803 C815 0.950 . S
C804 H796 0.950 . S
C804 C805 1.386 . S
C804 C806 1.391 . S
C805 C804 1.386 . S
C805 C809 1.393 . S
C806 H798 0.950 . S
C806 C804 1.391 . S
C806 C807 1.400 . S
C807 C806 1.400 . S
C807 C808 1.398 . S
C807 C813 1.491 . S
C808 H799 0.950 . S
C808 C807 1.398 . S
C808 C809 1.391 . S
C809 H797 0.950 . S
C809 C805 1.393 . S
C809 C808 1.391 . S
C810 H800 0.950 . S
C810 C811 1.386 . S
C810 C812 1.391 . S
C811 C810 1.386 . S
C811 C815 1.393 . S
C812 H801 0.950 . S
C812 C810 1.391 . S
C812 C813 1.400 . S
C813 C807 1.491 . S
C813 C812 1.400 . S
C813 C814 1.398 . S
C814 H802 0.950 . S
C814 C813 1.398 . S
C814 C815 1.391 . S
C815 H803 0.950 . S
C815 C811 1.393 . S
C815 C814 1.391 . S
H816 C824 0.950 . S
H817 C829 0.950 . S
H818 C826 0.950 . S
H819 C828 0.950 . S
H820 C830 0.950 . S
H821 C832 0.950 . S
H822 C834 0.950 . S
H823 C835 0.950 . S
C824 H816 0.950 . S
C824 C825 1.386 . S
C824 C826 1.391 . S
C825 C824 1.386 . S
C825 C829 1.393 . S
C826 H818 0.950 . S
C826 C824 1.391 . S
C826 C827 1.400 . S
C827 C826 1.400 . S
C827 C828 1.398 . S
C827 C833 1.491 1_554 S
C828 H819 0.950 . S
C828 C827 1.398 . S
C828 C829 1.391 . S
C829 H817 0.950 . S
C829 C825 1.393 . S
C829 C828 1.391 . S
C830 H820 0.950 . S
C830 C831 1.386 . S
C830 C832 1.391 . S
C831 C830 1.386 . S
C831 C835 1.393 . S
C832 H821 0.950 . S
C832 C830 1.391 . S
C832 C833 1.400 . S
C833 C827 1.491 1_556 S
C833 C832 1.400 . S
C833 C834 1.398 . S
C834 H822 0.950 . S
C834 C833 1.398 . S
C834 C835 1.391 . S
C835 H823 0.950 . S
C835 C831 1.393 . S
C835 C834 1.391 . S
H836 C844 0.950 . S
H837 C849 0.950 . S
H838 C846 0.950 . S
H839 C848 0.950 . S
H840 C850 0.950 . S
H841 C852 0.950 . S
H842 C854 0.950 . S
H843 C855 0.950 . S
C844 H836 0.950 . S
C844 C845 1.386 . S
C844 C846 1.391 . S
C845 C844 1.386 . S
C845 C849 1.393 . S
C846 H838 0.950 . S
C846 C844 1.391 . S
C846 C847 1.400 . S
C847 C846 1.400 . S
C847 C848 1.398 . S
C847 C853 1.491 1_556 S
C848 H839 0.950 . S
C848 C847 1.398 . S
C848 C849 1.391 . S
C849 H837 0.950 . S
C849 C845 1.393 . S
C849 C848 1.391 . S
C850 H840 0.950 . S
C850 C851 1.386 . S
C850 C852 1.391 . S
C851 C850 1.386 . S
C851 C855 1.393 . S
C852 H841 0.950 . S
C852 C850 1.391 . S
C852 C853 1.400 . S
C853 C847 1.491 1_554 S
C853 C852 1.400 . S
C853 C854 1.398 . S
C854 H842 0.950 . S
C854 C853 1.398 . S
C854 C855 1.391 . S
C855 H843 0.950 . S
C855 C851 1.393 . S
C855 C854 1.391 . S
H856 C864 0.950 . S
H857 C869 0.950 . S
H858 C866 0.950 . S
H859 C868 0.950 . S
H860 C870 0.950 . S
H861 C872 0.950 . S
H862 C874 0.950 . S
H863 C875 0.950 . S
C864 H856 0.950 . S
C864 C865 1.386 . S
C864 C866 1.391 . S
C865 C864 1.386 . S
C865 C869 1.393 . S
C866 H858 0.950 . S
C866 C864 1.391 . S
C866 C867 1.400 . S
C867 C866 1.400 . S
C867 C868 1.398 . S
C867 C873 1.491 1_556 S
C868 H859 0.950 . S
C868 C867 1.398 . S
C868 C869 1.391 . S
C869 H857 0.950 . S
C869 C865 1.393 . S
C869 C868 1.391 . S
C870 H860 0.950 . S
C870 C871 1.386 . S
C870 C872 1.391 . S
C871 C870 1.386 . S
C871 C875 1.393 . S
C872 H861 0.950 . S
C872 C870 1.391 . S
C872 C873 1.400 . S
C873 C867 1.491 1_554 S
C873 C872 1.400 . S
C873 C874 1.398 . S
C874 H862 0.950 . S
C874 C873 1.398 . S
C874 C875 1.391 . S
C875 H863 0.950 . S
C875 C871 1.393 . S
C875 C874 1.391 . S
H876 C884 0.950 . S
H877 C889 0.950 . S
H878 C886 0.950 . S
H879 C888 0.950 . S
H880 C890 0.950 . S
H881 C892 0.950 . S
H882 C894 0.950 . S
H883 C895 0.950 . S
C884 H876 0.950 . S
C884 C885 1.386 . S
C884 C886 1.391 . S
C885 C884 1.386 . S
C885 C889 1.393 . S
C886 H878 0.950 . S
C886 C884 1.391 . S
C886 C887 1.400 . S
C887 C886 1.400 . S
C887 C888 1.398 . S
C887 C893 1.491 1_554 S
C888 H879 0.950 . S
C888 C887 1.398 . S
C888 C889 1.391 . S
C889 H877 0.950 . S
C889 C885 1.393 . S
C889 C888 1.391 . S
C890 H880 0.950 . S
C890 C891 1.386 . S
C890 C892 1.391 . S
C891 C890 1.386 . S
C891 C895 1.393 . S
C892 H881 0.950 . S
C892 C890 1.391 . S
C892 C893 1.400 . S
C893 C887 1.491 1_556 S
C893 C892 1.400 . S
C893 C894 1.398 . S
C894 H882 0.950 . S
C894 C893 1.398 . S
C894 C895 1.391 . S
C895 H883 0.950 . S
C895 C891 1.393 . S
C895 C894 1.391 . S
H896 C904 0.950 . S
H897 C909 0.950 . S
H898 C906 0.950 . S
H899 C908 0.950 . S
H900 C910 0.950 . S
H901 C912 0.950 . S
H902 C914 0.950 . S
H903 C915 0.950 . S
C904 H896 0.950 . S
C904 C905 1.386 . S
C904 C906 1.391 . S
C905 C904 1.386 . S
C905 C909 1.393 . S
C906 H898 0.950 . S
C906 C904 1.391 . S
C906 C907 1.400 . S
C907 C906 1.400 . S
C907 C908 1.398 . S
C907 C913 1.491 1_554 S
C908 H899 0.950 . S
C908 C907 1.398 . S
C908 C909 1.391 . S
C909 H897 0.950 . S
C909 C905 1.393 . S
C909 C908 1.391 . S
C910 H900 0.950 . S
C910 C911 1.386 . S
C910 C912 1.391 . S
C911 C910 1.386 . S
C911 C915 1.393 . S
C912 H901 0.950 . S
C912 C910 1.391 . S
C912 C913 1.400 . S
C913 C907 1.491 1_556 S
C913 C912 1.400 . S
C913 C914 1.398 . S
C914 H902 0.950 . S
C914 C913 1.398 . S
C914 C915 1.391 . S
C915 H903 0.950 . S
C915 C911 1.393 . S
C915 C914 1.391 . S
H916 C924 0.950 . S
H917 C929 0.950 . S
H918 C926 0.950 . S
H919 C928 0.950 . S
H920 C930 0.950 . S
H921 C932 0.950 . S
H922 C934 0.950 . S
H923 C935 0.950 . S
C924 H916 0.950 . S
C924 C925 1.386 . S
C924 C926 1.391 . S
C925 C924 1.386 . S
C925 C929 1.393 . S
C926 H918 0.950 . S
C926 C924 1.391 . S
C926 C927 1.400 . S
C927 C926 1.400 . S
C927 C928 1.398 . S
C927 C933 1.491 1_556 S
C928 H919 0.950 . S
C928 C927 1.398 . S
C928 C929 1.391 . S
C929 H917 0.950 . S
C929 C925 1.393 . S
C929 C928 1.391 . S
C930 H920 0.950 . S
C930 C931 1.386 . S
C930 C932 1.391 . S
C931 C930 1.386 . S
C931 C935 1.393 . S
C932 H921 0.950 . S
C932 C930 1.391 . S
C932 C933 1.400 . S
C933 C927 1.491 1_554 S
C933 C932 1.400 . S
C933 C934 1.398 . S
C934 H922 0.950 . S
C934 C933 1.398 . S
C934 C935 1.391 . S
C935 H923 0.950 . S
C935 C931 1.393 . S
C935 C934 1.391 . S
H936 C944 0.950 . S
H937 C949 0.950 . S
H938 C946 0.950 . S
H939 C948 0.950 . S
H940 C950 0.950 . S
H941 C952 0.950 . S
H942 C954 0.950 . S
H943 C955 0.950 . S
C944 H936 0.950 . S
C944 C945 1.386 . S
C944 C946 1.391 . S
C945 C944 1.386 . S
C945 C949 1.393 . S
C946 H938 0.950 . S
C946 C944 1.391 . S
C946 C947 1.400 . S
C947 C946 1.400 . S
C947 C948 1.398 . S
C947 C953 1.491 . S
C948 H939 0.950 . S
C948 C947 1.398 . S
C948 C949 1.391 . S
C949 H937 0.950 . S
C949 C945 1.393 . S
C949 C948 1.391 . S
C950 H940 0.950 . S
C950 C951 1.386 . S
C950 C952 1.391 . S
C951 C950 1.386 . S
C951 C955 1.393 . S
C952 H941 0.950 . S
C952 C950 1.391 . S
C952 C953 1.400 . S
C953 C947 1.491 . S
C953 C952 1.400 . S
C953 C954 1.398 . S
C954 H942 0.950 . S
C954 C953 1.398 . S
C954 C955 1.391 . S
C955 H943 0.950 . S
C955 C951 1.393 . S
C955 C954 1.391 . S
H956 C964 0.950 . S
H957 C969 0.950 . S
H958 C966 0.950 . S
H959 C968 0.950 . S
H960 C970 0.950 . S
H961 C972 0.950 . S
H962 C974 0.950 . S
H963 C975 0.950 . S
C964 H956 0.950 . S
C964 C965 1.386 . S
C964 C966 1.391 . S
C965 C964 1.386 . S
C965 C969 1.393 . S
C966 H958 0.950 . S
C966 C964 1.391 . S
C966 C967 1.400 . S
C967 C966 1.400 . S
C967 C968 1.398 . S
C967 C973 1.491 . S
C968 H959 0.950 . S
C968 C967 1.398 . S
C968 C969 1.391 . S
C969 H957 0.950 . S
C969 C965 1.393 . S
C969 C968 1.391 . S
C970 H960 0.950 . S
C970 C971 1.386 . S
C970 C972 1.391 . S
C971 C970 1.386 . S
C971 C975 1.393 . S
C972 H961 0.950 . S
C972 C970 1.391 . S
C972 C973 1.400 . S
C973 C967 1.491 . S
C973 C972 1.400 . S
C973 C974 1.398 . S
C974 H962 0.950 . S
C974 C973 1.398 . S
C974 C975 1.391 . S
C975 H963 0.950 . S
C975 C971 1.393 . S
C975 C974 1.391 . S
H976 C984 0.950 . S
H977 C989 0.950 . S
H978 C986 0.950 . S
H979 C988 0.950 . S
H980 C990 0.950 . S
H981 C992 0.950 . S
H982 C994 0.950 . S
H983 C995 0.950 . S
C984 H976 0.950 . S
C984 C985 1.386 . S
C984 C986 1.391 . S
C985 C984 1.386 . S
C985 C989 1.393 . S
C986 H978 0.950 . S
C986 C984 1.391 . S
C986 C987 1.400 . S
C987 C986 1.400 . S
C987 C988 1.398 . S
C987 C993 1.491 . S
C988 H979 0.950 . S
C988 C987 1.398 . S
C988 C989 1.391 . S
C989 H977 0.950 . S
C989 C985 1.393 . S
C989 C988 1.391 . S
C990 H980 0.950 . S
C990 C991 1.386 . S
C990 C992 1.391 . S
C991 C990 1.386 . S
C991 C995 1.393 . S
C992 H981 0.950 . S
C992 C990 1.391 . S
C992 C993 1.400 . S
C993 C987 1.491 . S
C993 C992 1.400 . S
C993 C994 1.398 . S
C994 H982 0.950 . S
C994 C993 1.398 . S
C994 C995 1.391 . S
C995 H983 0.950 . S
C995 C991 1.393 . S
C995 C994 1.391 . S
H996 C1004 0.950 . S
H997 C1009 0.950 . S
H998 C1006 0.950 . S
H999 C1008 0.950 . S
H1000 C1010 0.950 . S
H1001 C1012 0.950 . S
H1002 C1014 0.950 . S
H1003 C1015 0.950 . S
C1004 H996 0.950 . S
C1004 C1005 1.386 . S
C1004 C1006 1.391 . S
C1005 C1004 1.386 . S
C1005 C1009 1.393 . S
C1006 H998 0.950 . S
C1006 C1004 1.391 . S
C1006 C1007 1.400 . S
C1007 C1006 1.400 . S
C1007 C1008 1.398 . S
C1007 C1013 1.491 . S
C1008 H999 0.950 . S
C1008 C1007 1.398 . S
C1008 C1009 1.391 . S
C1009 H997 0.950 . S
C1009 C1005 1.393 . S
C1009 C1008 1.391 . S
C1010 H1000 0.950 . S
C1010 C1011 1.386 . S
C1010 C1012 1.391 . S
C1011 C1010 1.386 . S
C1011 C1015 1.393 . S
C1012 H1001 0.950 . S
C1012 C1010 1.391 . S
C1012 C1013 1.400 . S
C1013 C1007 1.491 . S
C1013 C1012 1.400 . S
C1013 C1014 1.398 . S
C1014 H1002 0.950 . S
C1014 C1013 1.398 . S
C1014 C1015 1.391 . S
C1015 H1003 0.950 . S
C1015 C1011 1.393 . S
C1015 C1014 1.391 . S
H1016 C1024 0.950 . S
H1017 C1029 0.950 . S
H1018 C1026 0.950 . S
H1019 C1028 0.950 . S
H1020 C1030 0.950 . S
H1021 C1032 0.950 . S
H1022 C1034 0.950 . S
H1023 C1035 0.950 . S
C1024 H1016 0.950 . S
C1024 C1025 1.386 . S
C1024 C1026 1.391 . S
C1025 C1024 1.386 . S
C1025 C1029 1.393 . S
C1026 H1018 0.950 . S
C1026 C1024 1.391 . S
C1026 C1027 1.400 . S
C1027 C1026 1.400 . S
C1027 C1028 1.398 . S
C1027 C1033 1.491 . S
C1028 H1019 0.950 . S
C1028 C1027 1.398 . S
C1028 C1029 1.391 . S
C1029 H1017 0.950 . S
C1029 C1025 1.393 . S
C1029 C1028 1.391 . S
C1030 H1020 0.950 . S
C1030 C1031 1.386 . S
C1030 C1032 1.391 . S
C1031 C1030 1.386 . S
C1031 C1035 1.393 . S
C1032 H1021 0.950 . S
C1032 C1030 1.391 . S
C1032 C1033 1.400 . S
C1033 C1027 1.491 . S
C1033 C1032 1.400 . S
C1033 C1034 1.398 . S
C1034 H1022 0.950 . S
C1034 C1033 1.398 . S
C1034 C1035 1.391 . S
C1035 H1023 0.950 . S
C1035 C1031 1.393 . S
C1035 C1034 1.391 . S
H1036 C1044 0.950 . S
H1037 C1049 0.950 . S
H1038 C1046 0.950 . S
H1039 C1048 0.950 . S
H1040 C1050 0.950 . S
H1041 C1052 0.950 . S
H1042 C1054 0.950 . S
H1043 C1055 0.950 . S
C1044 H1036 0.950 . S
C1044 C1045 1.386 . S
C1044 C1046 1.391 . S
C1045 C1044 1.386 . S
C1045 C1049 1.393 . S
C1046 H1038 0.950 . S
C1046 C1044 1.391 . S
C1046 C1047 1.400 . S
C1047 C1046 1.400 . S
C1047 C1048 1.398 . S
C1047 C1053 1.491 . S
C1048 H1039 0.950 . S
C1048 C1047 1.398 . S
C1048 C1049 1.391 . S
C1049 H1037 0.950 . S
C1049 C1045 1.393 . S
C1049 C1048 1.391 . S
C1050 H1040 0.950 . S
C1050 C1051 1.386 . S
C1050 C1052 1.391 . S
C1051 C1050 1.386 . S
C1051 C1055 1.393 . S
C1052 H1041 0.950 . S
C1052 C1050 1.391 . S
C1052 C1053 1.400 . S
C1053 C1047 1.491 . S
C1053 C1052 1.400 . S
C1053 C1054 1.398 . S
C1054 H1042 0.950 . S
C1054 C1053 1.398 . S
C1054 C1055 1.391 . S
C1055 H1043 0.950 . S
C1055 C1051 1.393 . S
C1055 C1054 1.391 . S
H1056 C1064 0.950 . S
H1057 C1069 0.950 . S
H1058 C1066 0.950 . S
H1059 C1068 0.950 . S
H1060 C1070 0.950 . S
H1061 C1072 0.950 . S
H1062 C1074 0.950 . S
H1063 C1075 0.950 . S
C1064 H1056 0.950 . S
C1064 C1065 1.386 . S
C1064 C1066 1.391 . S
C1065 C1064 1.386 . S
C1065 C1069 1.393 . S
C1066 H1058 0.950 . S
C1066 C1064 1.391 . S
C1066 C1067 1.400 . S
C1067 C1066 1.400 . S
C1067 C1068 1.398 . S
C1067 C1073 1.491 . S
C1068 H1059 0.950 . S
C1068 C1067 1.398 . S
C1068 C1069 1.391 . S
C1069 H1057 0.950 . S
C1069 C1065 1.393 . S
C1069 C1068 1.391 . S
C1070 H1060 0.950 . S
C1070 C1071 1.386 . S
C1070 C1072 1.391 . S
C1071 C1070 1.386 . S
C1071 C1075 1.393 . S
C1072 H1061 0.950 . S
C1072 C1070 1.391 . S
C1072 C1073 1.400 . S
C1073 C1067 1.491 . S
C1073 C1072 1.400 . S
C1073 C1074 1.398 . S
C1074 H1062 0.950 . S
C1074 C1073 1.398 . S
C1074 C1075 1.391 . S
C1075 H1063 0.950 . S
C1075 C1071 1.393 . S
C1075 C1074 1.391 . S
H1076 C1084 0.950 . S
H1077 C1089 0.950 . S
H1078 C1086 0.950 . S
H1079 C1088 0.950 . S
H1080 C1090 0.950 . S
H1081 C1092 0.950 . S
H1082 C1094 0.950 . S
H1083 C1095 0.950 . S
C1084 H1076 0.950 . S
C1084 C1085 1.386 . S
C1084 C1086 1.391 . S
C1085 C1084 1.386 . S
C1085 C1089 1.393 . S
C1086 H1078 0.950 . S
C1086 C1084 1.391 . S
C1086 C1087 1.400 . S
C1087 C1086 1.400 . S
C1087 C1088 1.398 . S
C1087 C1093 1.491 . S
C1088 H1079 0.950 . S
C1088 C1087 1.398 . S
C1088 C1089 1.391 . S
C1089 H1077 0.950 . S
C1089 C1085 1.393 . S
C1089 C1088 1.391 . S
C1090 H1080 0.950 . S
C1090 C1091 1.386 . S
C1090 C1092 1.391 . S
C1091 C1090 1.386 . S
C1091 C1095 1.393 . S
C1092 H1081 0.950 . S
C1092 C1090 1.391 . S
C1092 C1093 1.400 . S
C1093 C1087 1.491 . S
C1093 C1092 1.400 . S
C1093 C1094 1.398 . S
C1094 H1082 0.950 . S
C1094 C1093 1.398 . S
C1094 C1095 1.391 . S
C1095 H1083 0.950 . S
C1095 C1091 1.393 . S
C1095 C1094 1.391 . S
H1096 C1104 0.950 . S
H1097 C1109 0.950 . S
H1098 C1106 0.950 . S
H1099 C1108 0.950 . S
H1100 C1110 0.950 . S
H1101 C1112 0.950 . S
H1102 C1114 0.950 . S
H1103 C1115 0.950 . S
C1104 H1096 0.950 . S
C1104 C1105 1.386 . S
C1104 C1106 1.391 . S
C1105 C1104 1.386 . S
C1105 C1109 1.393 . S
C1106 H1098 0.950 . S
C1106 C1104 1.391 . S
C1106 C1107 1.400 . S
C1107 C1106 1.400 . S
C1107 C1108 1.398 . S
C1107 C1113 1.491 . S
C1108 H1099 0.950 . S
C1108 C1107 1.398 . S
C1108 C1109 1.391 . S
C1109 H1097 0.950 . S
C1109 C1105 1.393 . S
C1109 C1108 1.391 . S
C1110 H1100 0.950 . S
C1110 C1111 1.386 . S
C1110 C1112 1.391 . S
C1111 C1110 1.386 . S
C1111 C1115 1.393 . S
C1112 H1101 0.950 . S
C1112 C1110 1.391 . S
C1112 C1113 1.400 . S
C1113 C1107 1.491 . S
C1113 C1112 1.400 . S
C1113 C1114 1.398 . S
C1114 H1102 0.950 . S
C1114 C1113 1.398 . S
C1114 C1115 1.391 . S
C1115 H1103 0.950 . S
C1115 C1111 1.393 . S
C1115 C1114 1.391 . S
H1116 C1124 0.950 . S
H1117 C1129 0.950 . S
H1118 C1126 0.950 . S
H1119 C1128 0.950 . S
H1120 C1130 0.950 . S
H1121 C1132 0.950 . S
H1122 C1134 0.950 . S
H1123 C1135 0.950 . S
C1124 H1116 0.950 . S
C1124 C1125 1.386 . S
C1124 C1126 1.391 . S
C1125 C1124 1.386 . S
C1125 C1129 1.393 . S
C1126 H1118 0.950 . S
C1126 C1124 1.391 . S
C1126 C1127 1.400 . S
C1127 C1126 1.400 . S
C1127 C1128 1.398 . S
C1127 C1133 1.491 . S
C1128 H1119 0.950 . S
C1128 C1127 1.398 . S
C1128 C1129 1.391 . S
C1129 H1117 0.950 . S
C1129 C1125 1.393 . S
C1129 C1128 1.391 . S
C1130 H1120 0.950 . S
C1130 C1131 1.386 . S
C1130 C1132 1.391 . S
C1131 C1130 1.386 . S
C1131 C1135 1.393 . S
C1132 H1121 0.950 . S
C1132 C1130 1.391 . S
C1132 C1133 1.400 . S
C1133 C1127 1.491 . S
C1133 C1132 1.400 . S
C1133 C1134 1.398 . S
C1134 H1122 0.950 . S
C1134 C1133 1.398 . S
C1134 C1135 1.391 . S
C1135 H1123 0.950 . S
C1135 C1131 1.393 . S
C1135 C1134 1.391 . S
H1136 C1144 0.950 . S
H1137 C1149 0.950 . S
H1138 C1146 0.950 . S
H1139 C1148 0.950 . S
H1140 C1150 0.950 . S
H1141 C1152 0.950 . S
H1142 C1154 0.950 . S
H1143 C1155 0.950 . S
C1144 H1136 0.950 . S
C1144 C1145 1.386 . S
C1144 C1146 1.391 . S
C1145 C1144 1.386 . S
C1145 C1149 1.393 . S
C1146 H1138 0.950 . S
C1146 C1144 1.391 . S
C1146 C1147 1.400 . S
C1147 C1146 1.400 . S
C1147 C1148 1.398 . S
C1147 C1153 1.491 . S
C1148 H1139 0.950 . S
C1148 C1147 1.398 . S
C1148 C1149 1.391 . S
C1149 H1137 0.950 . S
C1149 C1145 1.393 . S
C1149 C1148 1.391 . S
C1150 H1140 0.950 . S
C1150 C1151 1.386 . S
C1150 C1152 1.391 . S
C1151 C1150 1.386 . S
C1151 C1155 1.393 . S
C1152 H1141 0.950 . S
C1152 C1150 1.391 . S
C1152 C1153 1.400 . S
C1153 C1147 1.491 . S
C1153 C1152 1.400 . S
C1153 C1154 1.398 . S
C1154 H1142 0.950 . S
C1154 C1153 1.398 . S
C1154 C1155 1.391 . S
C1155 H1143 0.950 . S
C1155 C1151 1.393 . S
C1155 C1154 1.391 . S
H1156 C1164 0.950 . S
H1157 C1169 0.950 . S
H1158 C1166 0.950 . S
H1159 C1168 0.950 . S
H1160 C1170 0.950 . S
H1161 C1172 0.950 . S
H1162 C1174 0.950 . S
H1163 C1175 0.950 . S
C1164 H1156 0.950 . S
C1164 C1165 1.386 . S
C1164 C1166 1.391 . S
C1165 C1164 1.386 . S
C1165 C1169 1.393 . S
C1166 H1158 0.950 . S
C1166 C1164 1.391 . S
C1166 C1167 1.400 . S
C1167 C1166 1.400 . S
C1167 C1168 1.398 . S
C1167 C1173 1.491 . S
C1168 H1159 0.950 . S
C1168 C1167 1.398 . S
C1168 C1169 1.391 . S
C1169 H1157 0.950 . S
C1169 C1165 1.393 . S
C1169 C1168 1.391 . S
C1170 H1160 0.950 . S
C1170 C1171 1.386 . S
C1170 C1172 1.391 . S
C1171 C1170 1.386 . S
C1171 C1175 1.393 . S
C1172 H1161 0.950 . S
C1172 C1170 1.391 . S
C1172 C1173 1.400 . S
C1173 C1167 1.491 . S
C1173 C1172 1.400 . S
C1173 C1174 1.398 . S
C1174 H1162 0.950 . S
C1174 C1173 1.398 . S
C1174 C1175 1.391 . S
C1175 H1163 0.950 . S
C1175 C1171 1.393 . S
C1175 C1174 1.391 . S
H1176 C1184 0.950 . S
H1177 C1189 0.950 . S
H1178 C1186 0.950 . S
H1179 C1188 0.950 . S
H1180 C1190 0.950 . S
H1181 C1192 0.950 . S
H1182 C1194 0.950 . S
H1183 C1195 0.950 . S
C1184 H1176 0.950 . S
C1184 C1185 1.386 . S
C1184 C1186 1.391 . S
C1185 C1184 1.386 . S
C1185 C1189 1.393 . S
C1186 H1178 0.950 . S
C1186 C1184 1.391 . S
C1186 C1187 1.400 . S
C1187 C1186 1.400 . S
C1187 C1188 1.398 . S
C1187 C1193 1.491 . S
C1188 H1179 0.950 . S
C1188 C1187 1.398 . S
C1188 C1189 1.391 . S
C1189 H1177 0.950 . S
C1189 C1185 1.393 . S
C1189 C1188 1.391 . S
C1190 H1180 0.950 . S
C1190 C1191 1.386 . S
C1190 C1192 1.391 . S
C1191 C1190 1.386 . S
C1191 C1195 1.393 . S
C1192 H1181 0.950 . S
C1192 C1190 1.391 . S
C1192 C1193 1.400 . S
C1193 C1187 1.491 . S
C1193 C1192 1.400 . S
C1193 C1194 1.398 . S
C1194 H1182 0.950 . S
C1194 C1193 1.398 . S
C1194 C1195 1.391 . S
C1195 H1183 0.950 . S
C1195 C1191 1.393 . S
C1195 C1194 1.391 . S
H1196 C1204 0.950 . S
H1197 C1209 0.950 . S
H1198 C1206 0.950 . S
H1199 C1208 0.950 . S
H1200 C1210 0.950 . S
H1201 C1212 0.950 . S
H1202 C1214 0.950 . S
H1203 C1215 0.950 . S
C1204 H1196 0.950 . S
C1204 C1205 1.386 . S
C1204 C1206 1.391 . S
C1205 C1204 1.386 . S
C1205 C1209 1.393 . S
C1206 H1198 0.950 . S
C1206 C1204 1.391 . S
C1206 C1207 1.400 . S
C1207 C1206 1.400 . S
C1207 C1208 1.398 . S
C1207 C1213 1.491 . S
C1208 H1199 0.950 . S
C1208 C1207 1.398 . S
C1208 C1209 1.391 . S
C1209 H1197 0.950 . S
C1209 C1205 1.393 . S
C1209 C1208 1.391 . S
C1210 H1200 0.950 . S
C1210 C1211 1.386 . S
C1210 C1212 1.391 . S
C1211 C1210 1.386 . S
C1211 C1215 1.393 . S
C1212 H1201 0.950 . S
C1212 C1210 1.391 . S
C1212 C1213 1.400 . S
C1213 C1207 1.491 . S
C1213 C1212 1.400 . S
C1213 C1214 1.398 . S
C1214 H1202 0.950 . S
C1214 C1213 1.398 . S
C1214 C1215 1.391 . S
C1215 H1203 0.950 . S
C1215 C1211 1.393 . S
C1215 C1214 1.391 . S
H1216 C1224 0.950 . S
H1217 C1229 0.950 . S
H1218 C1226 0.950 . S
H1219 C1228 0.950 . S
H1220 C1230 0.950 . S
H1221 C1232 0.950 . S
H1222 C1234 0.950 . S
H1223 C1235 0.950 . S
C1224 H1216 0.950 . S
C1224 C1225 1.386 . S
C1224 C1226 1.391 . S
C1225 C1224 1.386 . S
C1225 C1229 1.393 . S
C1226 H1218 0.950 . S
C1226 C1224 1.391 . S
C1226 C1227 1.400 . S
C1227 C1226 1.400 . S
C1227 C1228 1.398 . S
C1227 C1233 1.491 . S
C1228 H1219 0.950 . S
C1228 C1227 1.398 . S
C1228 C1229 1.391 . S
C1229 H1217 0.950 . S
C1229 C1225 1.393 . S
C1229 C1228 1.391 . S
C1230 H1220 0.950 . S
C1230 C1231 1.386 . S
C1230 C1232 1.391 . S
C1231 C1230 1.386 . S
C1231 C1235 1.393 . S
C1232 H1221 0.950 . S
C1232 C1230 1.391 . S
C1232 C1233 1.400 . S
C1233 C1227 1.491 . S
C1233 C1232 1.400 . S
C1233 C1234 1.398 . S
C1234 H1222 0.950 . S
C1234 C1233 1.398 . S
C1234 C1235 1.391 . S
C1235 H1223 0.950 . S
C1235 C1231 1.393 . S
C1235 C1234 1.391 . S
H1236 C1244 0.950 . S
H1237 C1249 0.950 . S
H1238 C1246 0.950 . S
H1239 C1248 0.950 . S
H1240 C1250 0.950 . S
H1241 C1252 0.950 . S
H1242 C1254 0.950 . S
H1243 C1255 0.950 . S
C1244 H1236 0.950 . S
C1244 C1245 1.386 . S
C1244 C1246 1.391 . S
C1245 C1244 1.386 . S
C1245 C1249 1.393 . S
C1246 H1238 0.950 . S
C1246 C1244 1.391 . S
C1246 C1247 1.400 . S
C1247 C1246 1.400 . S
C1247 C1248 1.398 . S
C1247 C1253 1.491 . S
C1248 H1239 0.950 . S
C1248 C1247 1.398 . S
C1248 C1249 1.391 . S
C1249 H1237 0.950 . S
C1249 C1245 1.393 . S
C1249 C1248 1.391 . S
C1250 H1240 0.950 . S
C1250 C1251 1.386 . S
C1250 C1252 1.391 . S
C1251 C1250 1.386 . S
C1251 C1255 1.393 . S
C1252 H1241 0.950 . S
C1252 C1250 1.391 . S
C1252 C1253 1.400 . S
C1253 C1247 1.491 . S
C1253 C1252 1.400 . S
C1253 C1254 1.398 . S
C1254 H1242 0.950 . S
C1254 C1253 1.398 . S
C1254 C1255 1.391 . S
C1255 H1243 0.950 . S
C1255 C1251 1.393 . S
C1255 C1254 1.391 . S
H1256 C1264 0.950 . S
H1257 C1269 0.950 . S
H1258 C1266 0.950 . S
H1259 C1268 0.950 . S
H1260 C1270 0.950 . S
H1261 C1272 0.950 . S
H1262 C1274 0.950 . S
H1263 C1275 0.950 . S
C1264 H1256 0.950 . S
C1264 C1265 1.386 . S
C1264 C1266 1.391 . S
C1265 C1264 1.386 . S
C1265 C1269 1.393 . S
C1266 H1258 0.950 . S
C1266 C1264 1.391 . S
C1266 C1267 1.400 . S
C1267 C1266 1.400 . S
C1267 C1268 1.398 . S
C1267 C1273 1.491 . S
C1268 H1259 0.950 . S
C1268 C1267 1.398 . S
C1268 C1269 1.391 . S
C1269 H1257 0.950 . S
C1269 C1265 1.393 . S
C1269 C1268 1.391 . S
C1270 H1260 0.950 . S
C1270 C1271 1.386 . S
C1270 C1272 1.391 . S
C1271 C1270 1.386 . S
C1271 C1275 1.393 . S
C1272 H1261 0.950 . S
C1272 C1270 1.391 . S
C1272 C1273 1.400 . S
C1273 C1267 1.491 . S
C1273 C1272 1.400 . S
C1273 C1274 1.398 . S
C1274 H1262 0.950 . S
C1274 C1273 1.398 . S
C1274 C1275 1.391 . S
C1275 H1263 0.950 . S
C1275 C1271 1.393 . S
C1275 C1274 1.391 . S
H1276 C1284 0.950 . S
H1277 C1289 0.950 . S
H1278 C1286 0.950 . S
H1279 C1288 0.950 . S
H1280 C1290 0.950 . S
H1281 C1292 0.950 . S
H1282 C1294 0.950 . S
H1283 C1295 0.950 . S
C1284 H1276 0.950 . S
C1284 C1285 1.386 . S
C1284 C1286 1.391 . S
C1285 C1284 1.386 . S
C1285 C1289 1.393 . S
C1286 H1278 0.950 . S
C1286 C1284 1.391 . S
C1286 C1287 1.400 . S
C1287 C1286 1.400 . S
C1287 C1288 1.398 . S
C1287 C1293 1.491 . S
C1288 H1279 0.950 . S
C1288 C1287 1.398 . S
C1288 C1289 1.391 . S
C1289 H1277 0.950 . S
C1289 C1285 1.393 . S
C1289 C1288 1.391 . S
C1290 H1280 0.950 . S
C1290 C1291 1.386 . S
C1290 C1292 1.391 . S
C1291 C1290 1.386 . S
C1291 C1295 1.393 . S
C1292 H1281 0.950 . S
C1292 C1290 1.391 . S
C1292 C1293 1.400 . S
C1293 C1287 1.491 . S
C1293 C1292 1.400 . S
C1293 C1294 1.398 . S
C1294 H1282 0.950 . S
C1294 C1293 1.398 . S
C1294 C1295 1.391 . S
C1295 H1283 0.950 . S
C1295 C1291 1.393 . S
C1295 C1294 1.391 . S
C345 C9 1.808 . S
C351 C107 1.799 . S
C365 C121 1.799 . S
C371 C23 1.808 . S
C385 C37 1.808 . S
C391 C135 1.800 . S
C405 C51 1.804 . S
C411 C149 1.803 . S
C425 C163 1.800 . S
C431 C65 1.807 . S
C445 C79 1.800 . S
C451 C93 1.807 . S
C465 C177 1.803 . S
C471 C275 1.804 . S
C485 C191 1.807 . S
C491 C289 1.800 . S
C505 C303 1.800 . S
C511 C205 1.808 . S
C525 C219 1.807 . S
C531 C317 1.800 . S
C545 C233 1.808 . S
C551 C331 1.800 . S
C565 C261 1.808 . S
C571 C247 1.800 . S
C585 C6 1.491 . S
C591 C118 1.501 . S
C605 C132 1.482 . S
C611 C20 1.488 . S
C625 C146 1.488 . S
C631 C34 1.498 . S
C645 C48 1.486 . S
C651 C160 1.482 . S
C665 C62 1.484 . S
C671 C90 1.493 . S
C685 C76 1.487 . S
C691 C104 1.482 . S
C705 C286 1.483 . S
C711 C174 1.493 . S
C725 C188 1.494 . S
C731 C300 1.484 . S
C745 C314 1.485 . S
C751 C202 1.495 . S
C765 C328 1.502 . S
C771 C216 1.497 . S
C785 C258 1.482 . S
C791 C230 1.487 . S
C805 C244 1.491 . S
C811 C272 1.501 . S
C825 C7 1.573 . S
C831 C217 1.561 . S
C845 C231 1.579 . S
C851 C21 1.555 . S
C865 C245 1.556 . S
C871 C35 1.578 . S
C885 C49 1.578 . S
C891 C175 1.556 . S
C905 C63 1.566 . S
C911 C189 1.568 . S
C925 C203 1.564 . S
C931 C77 1.570 . S
C945 C301 1.556 . S
C951 C91 1.578 . S
C965 C315 1.564 . S
C971 C105 1.570 . S
C985 C329 1.559 . S
C991 C119 1.574 . S
C1005 C259 1.555 . S
C1011 C133 1.579 . S
C1025 C147 1.563 . S
C1031 C273 1.571 . S
C1045 C161 1.577 . S
C1051 C287 1.557 . S
C1065 C8 1.371 . S
C1071 C148 1.370 . S
C1085 C162 1.370 . S
C1091 C22 1.369 . S
C1105 C92 1.370 . S
C1111 C36 1.371 . S
C1125 C50 1.369 . S
C1131 C106 1.370 . S
C1145 C64 1.371 . S
C1151 C120 1.370 . S
C1165 C78 1.370 . S
C1171 C134 1.369 . S
C1185 C176 1.370 . S
C1191 C316 1.370 . S
C1205 C190 1.369 . S
C1211 C330 1.370 . S
C1225 C204 1.371 . S
C1231 C260 1.370 . S
C1245 C274 1.369 . S
C1251 C218 1.371 . S
C1265 C232 1.369 . S
C1271 C288 1.370 . S
C1285 C246 1.370 . S
C1291 C302 1.370 . S
