# Generated by pormake.
# Topology pts-e, (5)-cn, num edge types: 1
# Building blocks:
#     Node 0, Type 0, BuildingBlock: XOMCOT_clean_sbu_1, # of connection points: 5
#     Node 1, Type 0, BuildingBlock: XOMCOT_clean_sbu_1, # of connection points: 5
#     Node 2, Type 0, BuildingBlock: XOMCOT_clean_sbu_1, # of connection points: 5
#     Node 3, Type 0, BuildingBlock: XOMCOT_clean_sbu_1, # of connection points: 5
#     Node 4, Type 0, BuildingBlock: XOMCOT_clean_sbu_1, # of connection points: 5
#     Node 5, Type 0, BuildingBlock: XOMCOT_clean_sbu_1, # of connection points: 5
#     Node 6, Type 0, BuildingBlock: XOMCOT_clean_sbu_1, # of connection points: 5
#     Node 7, Type 0, BuildingBlock: XOMCOT_clean_sbu_1, # of connection points: 5
#     Edge 8, Type (0, 0), BuildingBlock: MIFKUJ_clean_linker_0, # of connection points: 2
#     Edge 9, Type (0, 0), BuildingBlock: MIFKUJ_clean_linker_0, # of connection points: 2
#     Edge 10, Type (0, 0), BuildingBlock: MIFKUJ_clean_linker_0, # of connection points: 2
#     Edge 11, Type (0, 0), BuildingBlock: MIFKUJ_clean_linker_0, # of connection points: 2
#     Edge 12, Type (0, 0), BuildingBlock: MIFKUJ_clean_linker_0, # of connection points: 2
#     Edge 13, Type (0, 0), BuildingBlock: MIFKUJ_clean_linker_0, # of connection points: 2
#     Edge 14, Type (0, 0), BuildingBlock: MIFKUJ_clean_linker_0, # of connection points: 2
#     Edge 15, Type (0, 0), BuildingBlock: MIFKUJ_clean_linker_0, # of connection points: 2
#     Edge 16, Type (0, 0), BuildingBlock: MIFKUJ_clean_linker_0, # of connection points: 2
#     Edge 17, Type (0, 0), BuildingBlock: MIFKUJ_clean_linker_0, # of connection points: 2
#     Edge 18, Type (0, 0), BuildingBlock: MIFKUJ_clean_linker_0, # of connection points: 2
#     Edge 19, Type (0, 0), BuildingBlock: MIFKUJ_clean_linker_0, # of connection points: 2
#     Edge 20, Type (0, 0), BuildingBlock: MIFKUJ_clean_linker_0, # of connection points: 2
#     Edge 21, Type (0, 0), BuildingBlock: MIFKUJ_clean_linker_0, # of connection points: 2
#     Edge 22, Type (0, 0), BuildingBlock: MIFKUJ_clean_linker_0, # of connection points: 2
#     Edge 23, Type (0, 0), BuildingBlock: MIFKUJ_clean_linker_0, # of connection points: 2
#     Edge 24, Type (0, 0), BuildingBlock: MIFKUJ_clean_linker_0, # of connection points: 2
#     Edge 25, Type (0, 0), BuildingBlock: MIFKUJ_clean_linker_0, # of connection points: 2
#     Edge 26, Type (0, 0), BuildingBlock: MIFKUJ_clean_linker_0, # of connection points: 2
#     Edge 27, Type (0, 0), BuildingBlock: MIFKUJ_clean_linker_0, # of connection points: 2
# Relax obj value: 0.499
# Max RMSD: 0.255
# Mean RMSD: 0.255
data_MOF--net-pts-e--node1-XOMCOT_clean_sbu_1--edge1-MIFKUJ_clean_linker_0
_symmetry_space_group_name_H-M    P1
_symmetry_Int_Tables_number       1
_symmetry_cell_setting            triclinic
loop_
_symmetry_equiv_pos_as_xyz
'x, y, z'
_cell_length_a     42.387636
_cell_length_b     42.393253
_cell_length_c     62.502484
_cell_angle_alpha  90.017363
_cell_angle_beta   90.035345
_cell_angle_gamma 89.992871
loop_
_atom_site_label
_atom_site_type_symbol
_atom_site_fract_x
_atom_site_fract_y
_atom_site_fract_z
_atom_type_partial_charge
C0 C 0.23828 0.04889 0.13119 0.0
C1 C 0.20755 0.05719 0.1268 0.0
N2 N 0.18845 0.03511 0.13534 0.0
N3 N 0.23844 0.02192 0.14259 0.0
C4 C 0.20783 0.01405 0.14479 0.0
H5 H 0.25922 0.0615 0.12623 0.0
Co6 Co 0.27385 0.00065 0.15198 0.0
C7 C 0.2539 0.96487 0.19029 0.0
O8 O 0.28017 0.97328 0.19991 0.0
N9 N 0.31018 0.97867 0.16104 0.0
C10 C 0.34453 0.93968 0.1667 0.0
C11 C 0.31441 0.94707 0.16009 0.0
C12 C 0.33798 0.98981 0.16841 0.0
N13 N 0.35909 0.96671 0.17207 0.0
O14 O 0.26747 0.97138 0.12934 0.0
H15 H 0.29686 0.93044 0.15455 0.0
H16 H 0.34363 0.01441 0.17027 0.0
O17 O 0.24824 0.9745 0.17127 0.0
C18 C 0.28584 0.9755 0.11348 0.0
O19 O 0.31128 0.99275 0.11619 0.0
N20 N 0.27974 0.03258 0.17226 0.0
C21 C 0.27944 0.09274 0.19027 0.0
C22 C 0.259 0.06924 0.19784 0.0
C23 C 0.25901 0.03952 0.18832 0.0
C24 C 0.30015 0.05505 0.16503 0.0
C25 C 0.30089 0.08508 0.17408 0.0
H26 H 0.24007 0.02372 0.1924 0.0
H27 H 0.31426 0.0504 0.15096 0.0
H28 H 0.19983 0.99326 0.15319 0.0
H29 H 0.19995 0.07745 0.11762 0.0
H30 H 0.35508 0.91643 0.16715 0.0
H31 H 0.24095 0.07461 0.20956 0.0
H32 H 0.31656 0.10273 0.16746 0.0
C33 C 0.95359 0.21859 0.64954 0.0
C34 C 0.94958 0.18677 0.64598 0.0
N35 N 0.97802 0.17267 0.64744 0.0
N36 N 0.98437 0.22434 0.65332 0.0
C37 C -0.0014 0.19603 0.65184 0.0
H38 H 0.9354 0.23643 0.64885 0.0
Co39 Co 0.00423 0.26277 0.65677 0.0
C40 C 0.04818 0.25337 0.69299 0.0
O41 O 0.03989 0.28122 0.70034 0.0
N42 N 0.02499 0.30192 0.65945 0.0
C43 C 0.06313 0.33819 0.65876 0.0
C44 C 0.05655 0.3064 0.6582 0.0
C45 C 0.01298 0.33141 0.66004 0.0
N46 N 0.03556 0.35373 0.65978 0.0
O47 O 0.029 0.25372 0.6321 0.0
H48 H 0.07372 0.2877 0.65646 0.0
H49 H 0.98823 0.33697 0.66008 0.0
O50 O 0.03573 0.24298 0.6757 0.0
C51 C 0.016 0.26733 0.61622 0.0
O52 O 0.99185 0.28603 0.61986 0.0
N53 N 0.97666 0.27173 0.67949 0.0
C54 C 0.92375 0.27871 0.70569 0.0
C55 C 0.94851 0.25846 0.71155 0.0
C56 C 0.97446 0.25481 0.69804 0.0
C57 C 0.95251 0.291 0.67345 0.0
C58 C 0.92641 0.29569 0.68657 0.0
H59 H 0.99108 0.23634 0.7017 0.0
H60 H 0.95218 0.30079 0.6575 0.0
H61 H 0.02389 0.19292 0.65291 0.0
H62 H 0.92755 0.1751 0.64229 0.0
H63 H 0.08618 0.34903 0.65759 0.0
H64 H 0.94668 0.24345 0.72552 0.0
H65 H 0.90751 0.31083 0.68105 0.0
C66 C 0.80618 0.97706 0.13176 0.0
C67 C 0.838 0.97158 0.1293 0.0
N68 N 0.85361 0.99829 0.1343 0.0
N69 N 0.80191 0.00693 0.13854 0.0
C70 C 0.83114 0.0193 0.13977 0.0
H71 H 0.78736 0.9606 0.12833 0.0
Co72 Co 0.76424 0.02793 0.14254 0.0
C73 C 0.77401 0.06845 0.18083 0.0
O74 O 0.74512 0.06213 0.18713 0.0
N75 N 0.72571 0.04987 0.14594 0.0
C76 C 0.68986 0.08836 0.14812 0.0
C77 C 0.72146 0.08152 0.14551 0.0
C78 C 0.69626 0.03817 0.14801 0.0
N79 N 0.67423 0.06088 0.1495 0.0
O80 O 0.77558 0.05501 0.11944 0.0
H81 H 0.74023 0.09857 0.14361 0.0
H82 H 0.69049 0.01351 0.14855 0.0
O83 O 0.78458 0.05617 0.16352 0.0
C84 C 0.76005 0.04768 0.10271 0.0
O85 O 0.73606 0.02825 0.10464 0.0
N86 N 0.75326 0.99807 0.16344 0.0
C87 C 0.73892 0.94485 0.18795 0.0
C88 C 0.75986 0.96798 0.19562 0.0
C89 C 0.76718 0.99411 0.18296 0.0
C90 C 0.73432 0.97499 0.15534 0.0
C91 C 0.72593 0.94883 0.16753 0.0
H92 H 0.7855 0.00978 0.18841 0.0
H93 H 0.72619 0.9766 0.13896 0.0
H94 H 0.83579 0.04347 0.14428 0.0
H95 H 0.84869 0.94996 0.12361 0.0
H96 H 0.67921 0.11156 0.14869 0.0
H97 H 0.77203 0.96506 0.21072 0.0
H98 H 0.71019 0.93143 0.16067 0.0
C99 C 0.08167 0.80527 0.63417 0.0
C100 C 0.08918 0.83559 0.62807 0.0
N101 N 0.06215 0.85106 0.62394 0.0
N102 N 0.04992 0.80188 0.63433 0.0
C103 C 0.03895 0.83007 0.62758 0.0
H104 H 0.09859 0.78751 0.6387 0.0
Co105 Co 0.02311 0.76856 0.64243 0.0
C106 C 0.00766 0.82026 0.6732 0.0
O107 O 0.03757 0.82819 0.67465 0.0
N108 N 0.99661 0.73575 0.64997 0.0
C109 C 0.96044 0.70446 0.66449 0.0
C110 C 0.96951 0.73534 0.66132 0.0
C111 C 0.00329 0.70524 0.6462 0.0
N112 N 0.98176 0.68573 0.65484 0.0
O113 O 0.99638 0.77903 0.61893 0.0
H114 H 0.95749 0.75594 0.66744 0.0
H115 H 0.02442 0.69739 0.63807 0.0
O116 O -0.00057 0.7972 0.66121 0.0
C117 C 0.00256 0.76155 0.60293 0.0
O118 O 0.0229 0.73845 0.60531 0.0
N119 N 0.05063 0.75582 0.66416 0.0
C120 C 0.09913 0.73648 0.69112 0.0
C121 C 0.07203 0.75121 0.69944 0.0
C122 C 0.04752 0.75984 0.68571 0.0
C123 C 0.07458 0.73785 0.65628 0.0
C124 C 0.09918 0.728 0.66944 0.0
H125 H 0.0266 0.77025 0.69248 0.0
H126 H 0.07537 0.7326 0.63934 0.0
H127 H 0.01409 0.83582 0.6268 0.0
H128 H 0.11261 0.84569 0.62731 0.0
H129 H 0.94007 0.69638 0.67338 0.0
H130 H 0.07033 0.75767 0.71615 0.0
H131 H 0.1188 0.71534 0.66242 0.0
C132 C 0.22799 0.9713 0.88083 0.0
C133 C 0.19693 0.96478 0.88539 0.0
N134 N 0.17884 0.98544 0.87454 0.0
N135 N 0.22931 0.99591 0.86723 0.0
C136 C 0.19906 0.00404 0.86369 0.0
H137 H 0.24841 0.9594 0.88736 0.0
Co138 Co 0.26606 0.01484 0.85855 0.0
C139 C 0.25037 0.05733 0.82229 0.0
O140 O 0.27694 0.04892 0.81308 0.0
N141 N 0.30422 0.03404 0.85051 0.0
C142 C 0.34196 0.06975 0.8452 0.0
C143 C 0.31166 0.06493 0.85243 0.0
C144 C 0.33048 0.02064 0.84238 0.0
N145 N 0.35356 0.04178 0.83876 0.0
O146 O 0.26231 0.04243 0.88245 0.0
H147 H 0.29595 0.08286 0.8586 0.0
H148 H 0.33333 0.99573 0.83968 0.0
O149 O 0.24265 0.04508 0.84031 0.0
C150 C 0.28072 0.03595 0.89794 0.0
O151 O 0.30469 0.01699 0.89446 0.0
N152 N 0.26915 0.98455 0.83677 0.0
C153 C 0.27036 0.93017 0.81179 0.0
C154 C 0.25225 0.95624 0.80559 0.0
C155 C 0.25113 0.98285 0.81867 0.0
C156 C 0.28623 0.95898 0.84324 0.0
C157 C 0.28744 0.93161 0.83089 0.0
H158 H 0.23416 0.00082 0.81477 0.0
H159 H 0.29835 0.95965 0.85848 0.0
H160 H 0.19192 0.02393 0.85403 0.0
H161 H 0.18835 0.94642 0.89591 0.0
H162 H 0.3544 0.09203 0.84471 0.0
H163 H 0.23739 0.95522 0.79149 0.0
H164 H 0.30089 0.9115 0.83649 0.0
C165 C 0.07597 0.21406 0.34907 0.0
C166 C 0.08071 0.18215 0.3518 0.0
N167 N 0.05231 0.16825 0.35422 0.0
N168 N 0.04475 0.21999 0.34953 0.0
C169 C 0.03104 0.19176 0.35261 0.0
H170 H 0.09412 0.23189 0.34793 0.0
Co171 Co 0.02458 0.25839 0.351 0.0
C172 C 0.96775 0.2521 0.32365 0.0
O173 O 0.9712 0.28168 0.31783 0.0
N174 N 0.00401 0.29745 0.35357 0.0
C175 C 0.96968 0.33342 0.36525 0.0
C176 C 0.97557 0.30169 0.36299 0.0
C177 C 0.01485 0.327 0.35032 0.0
N178 N 0.99448 0.34913 0.35718 0.0
O179 O 0.00948 0.24714 0.37872 0.0
H180 H 0.96048 0.28281 0.36854 0.0
H181 H 0.03791 0.33271 0.34428 0.0
O182 O 0.98713 0.24 0.33706 0.0
C183 C 0.02969 0.25676 0.39231 0.0
O184 O 0.05422 0.27264 0.38527 0.0
N185 N 0.04291 0.26938 0.32467 0.0
C186 C 0.08408 0.27887 0.29041 0.0
C187 C 0.0571 0.26 0.28803 0.0
C188 C 0.03715 0.25502 0.30547 0.0
C189 C 0.06917 0.28752 0.32721 0.0
C190 C 0.08951 0.29338 0.3102 0.0
H191 H 0.01893 0.23749 0.30382 0.0
H192 H 0.07551 0.2959 0.34298 0.0
H193 H 0.00587 0.18884 0.35448 0.0
H194 H 0.10333 0.17047 0.35302 0.0
H195 H 0.9492 0.34409 0.37264 0.0
H196 H 0.05283 0.24703 0.27338 0.0
H197 H 0.11034 0.30761 0.31293 0.0
C198 C 0.79648 0.04205 0.86836 0.0
C199 C 0.82742 0.04896 0.87302 0.0
N200 N 0.8449 0.02304 0.86914 0.0
N201 N 0.79463 0.01216 0.86109 0.0
C202 C 0.8244 0.00113 0.86197 0.0
H203 H 0.7766 0.05762 0.87066 0.0
Co204 Co 0.75859 0.98991 0.85422 0.0
C205 C 0.77591 0.94762 0.81783 0.0
O206 O 0.74735 0.95033 0.80985 0.0
N207 N 0.72156 0.96725 0.84809 0.0
C208 C 0.68566 0.92898 0.84532 0.0
C209 C 0.71679 0.93579 0.84985 0.0
C210 C 0.69296 0.97893 0.84301 0.0
N211 N 0.67084 0.95635 0.8412 0.0
O212 O 0.76706 0.96302 0.87792 0.0
H213 H 0.73477 0.91893 0.85433 0.0
H214 H 0.68789 0.00359 0.84086 0.0
O215 O 0.78313 0.96235 0.83505 0.0
C216 C 0.75029 0.97092 0.89393 0.0
O217 O 0.72689 0.99076 0.89085 0.0
N218 N 0.75026 0.01945 0.83252 0.0
C219 C 0.74356 0.07468 0.80889 0.0
C220 C 0.76165 0.04962 0.80098 0.0
C221 C 0.76543 0.02244 0.81333 0.0
C222 C 0.73212 0.04356 0.84012 0.0
C223 C 0.72831 0.07134 0.82855 0.0
H224 H 0.78248 0.00538 0.80802 0.0
H225 H 0.72198 0.04183 0.85597 0.0
H226 H 0.83081 0.97728 0.85768 0.0
H227 H 0.83613 0.07107 0.87932 0.0
H228 H 0.6746 0.90597 0.84573 0.0
H229 H 0.77487 0.05209 0.78625 0.0
H230 H 0.71491 0.09064 0.83538 0.0
C231 C 0.94997 0.79833 0.36977 0.0
C232 C 0.94843 0.82866 0.37761 0.0
N233 N 0.97414 0.84442 0.37076 0.0
N234 N 0.97632 0.79528 0.35791 0.0
C235 C 0.99059 0.82358 0.35889 0.0
H236 H 0.93331 0.77952 0.37279 0.0
Co237 Co 0.9913 0.75871 0.34557 0.0
C238 C 0.02278 0.78322 0.30591 0.0
O239 O 0.005 0.76526 0.29383 0.0
N240 N 0.00683 0.72043 0.33352 0.0
C241 C 0.01271 0.67692 0.3138 0.0
C242 C -0.00085 0.70623 0.3148 0.0
C243 C 0.02528 0.69886 0.34346 0.0
N244 N 0.02886 0.67217 0.33199 0.0
O245 O 0.02344 0.75885 0.3669 0.0
H246 H 0.98259 0.71507 0.30314 0.0
H247 H 0.03474 0.7016 0.35936 0.0
O248 O 0.0191 0.78307 0.32624 0.0
C249 C 0.01245 0.74572 0.38364 0.0
O250 O 0.98601 0.72967 0.38203 0.0
N251 N 0.95692 0.75928 0.32684 0.0
C252 C 0.89749 0.76303 0.30816 0.0
C253 C 0.91922 0.7877 0.30581 0.0
C254 C 0.9487 0.78556 0.31551 0.0
C255 C 0.93586 0.73523 0.3295 0.0
C256 C 0.90619 0.73626 0.31981 0.0
H257 H 0.96422 0.80575 0.31492 0.0
H258 H 0.94177 0.71561 0.33981 0.0
H259 H 0.01271 0.82877 0.35107 0.0
H260 H 0.93016 0.83813 0.38785 0.0
H261 H 0.00839 0.65933 0.30158 0.0
H262 H 0.91307 0.80891 0.29707 0.0
H263 H 0.88969 0.7171 0.3223 0.0
H264 H 0.22572 0.9835 0.09902 0.0
H265 H 0.21012 0.99231 0.0617 0.0
H266 H 0.30419 0.96852 0.04104 0.0
H267 H 0.32016 0.96065 0.07831 0.0
H268 H 0.24373 0.0403 0.037 0.0
H269 H 0.29455 0.93272 0.99121 0.0
H270 H 0.29998 0.87525 0.99608 0.0
H271 H 0.21953 0.87479 0.03778 0.0
H272 H 0.2133 0.93216 0.03292 0.0
H273 H 0.31685 0.04914 0.93258 0.0
H274 H 0.30233 0.04032 0.97006 0.0
H275 H 0.20709 0.01866 0.95085 0.0
H276 H 0.22113 0.02879 0.91338 0.0
H277 H 0.25171 0.9685 0.97455 0.0
H278 H 0.2012 0.06956 0.97867 0.0
H279 H 0.19751 0.12714 0.97381 0.0
H280 H 0.27696 0.14043 0.0155 0.0
H281 H 0.28144 0.08285 0.02035 0.0
C282 C 0.24272 0.97897 0.08646 0.0
C283 C 0.27413 0.9712 0.09148 0.0
C284 C 0.23385 0.98432 0.06519 0.0
C285 C 0.25603 0.98112 0.04868 0.0
C286 C 0.28669 0.9709 0.05356 0.0
C287 C 0.29575 0.96627 0.07481 0.0
C288 C 0.24877 0.99204 0.02673 0.0
C289 C 0.24489 0.02456 0.02333 0.0
C290 C 0.25025 0.97143 0.00899 0.0
C291 C 0.25359 0.93682 0.01179 0.0
C292 C 0.2779 0.92034 0.00133 0.0
C293 C 0.28114 0.88778 0.0041 0.0
C294 C 0.26015 0.87139 0.01727 0.0
C295 C 0.23583 0.88753 0.02764 0.0
C296 C 0.23247 0.92008 0.02491 0.0
C297 C 0.29251 0.04388 0.93648 0.0
C298 C 0.27006 0.03994 0.92019 0.0
C299 C 0.28428 0.03869 0.95782 0.0
C300 C 0.25371 0.02878 0.96311 0.0
C301 C 0.23074 0.02652 0.94702 0.0
C302 C 0.23874 0.03257 0.92569 0.0
C303 C 0.24748 0.01675 0.98489 0.0
C304 C 0.24946 0.98409 0.98824 0.0
C305 C 0.24438 0.03722 0.00257 0.0
C306 C 0.24181 0.07185 0.99972 0.0
C307 C 0.21809 0.08473 0.98663 0.0
C308 C 0.2158 0.11738 0.98392 0.0
C309 C 0.23703 0.13743 0.9943 0.0
C310 C 0.26054 0.12486 0.00746 0.0
C311 C 0.26294 0.09222 0.01021 0.0
H312 H 0.23521 0.16271 0.99219 0.0
H313 H 0.26272 0.84619 0.0194 0.0
H314 H 0.06491 0.28182 0.4242 0.0
H315 H 0.06325 0.26969 0.46209 0.0
H316 H 0.98804 0.20304 0.45108 0.0
H317 H 0.98919 0.21565 0.41265 0.0
H318 H 0.97548 0.23768 0.48487 0.0
H319 H 0.0622 0.17643 0.46414 0.0
H320 H 0.1117 0.16287 0.44563 0.0
H321 H 0.16104 0.23359 0.4817 0.0
H322 H 0.11175 0.24795 0.50019 0.0
H323 H 0.04247 0.21288 0.6003 0.0
H324 H 0.04541 0.19758 0.56231 0.0
H325 H 0.00995 0.28918 0.54423 0.0
H326 H 0.00668 0.3043 0.58173 0.0
H327 H 0.07448 0.22106 0.52588 0.0
H328 H 0.95323 0.28165 0.50813 0.0
H329 H 0.90295 0.29104 0.5269 0.0
H330 H 0.92081 0.21176 0.56789 0.0
H331 H 0.97092 0.20154 0.54915 0.0
C332 C 0.04801 0.26447 0.42972 0.0
C333 C 0.02722 0.24961 0.41539 0.0
C334 C 0.04731 0.25734 0.45144 0.0
C335 C 0.02611 0.23484 0.4594 0.0
C336 C 0.00486 0.22022 0.44523 0.0
C337 C 0.00544 0.22752 0.42334 0.0
C338 C 0.02534 0.22852 0.48276 0.0
C339 C 0.99703 0.23358 0.49381 0.0
C340 C 0.05327 0.22198 0.49446 0.0
C341 C 0.08318 0.21331 0.48354 0.0
C342 C 0.08356 0.18922 0.46806 0.0
C343 C 0.1116 0.18138 0.45757 0.0
C344 C 0.1395 0.19736 0.46248 0.0
C345 C 0.13942 0.22119 0.47793 0.0
C346 C 0.11143 0.22915 0.48846 0.0
C347 C 0.03603 0.2299 0.58813 0.0
C348 C 0.02412 0.25968 0.59389 0.0
C349 C 0.03751 0.22109 0.5665 0.0
C350 C 0.02708 0.24198 0.55054 0.0
C351 C 0.01734 0.27242 0.55632 0.0
C352 C 0.01568 0.28109 0.57775 0.0
C353 C 0.02511 0.23241 0.52777 0.0
C354 C 0.05283 0.2243 0.51689 0.0
C355 C 0.99648 0.23529 0.51622 0.0
C356 C 0.96595 0.24091 0.52726 0.0
C357 C 0.94633 0.26605 0.52103 0.0
C358 C 0.91787 0.27156 0.53169 0.0
C359 C 0.90871 0.25204 0.54859 0.0
C360 C 0.92795 0.22691 0.55483 0.0
C361 C 0.9564 0.22127 0.5442 0.0
H362 H 0.8867 0.25638 0.55685 0.0
H363 H 0.16118 0.19127 0.45433 0.0
H364 H 0.72777 0.061 0.06675 0.0
H365 H 0.74406 0.04607 0.03073 0.0
H366 H 0.83758 0.02529 0.0539 0.0
H367 H 0.82135 0.04058 0.09018 0.0
H368 H 0.82379 0.05117 0.00423 0.0
H369 H 0.809 0.96657 0.05562 0.0
H370 H 0.78235 0.94399 0.08716 0.0
H371 H 0.69358 0.94722 0.05408 0.0
H372 H 0.71967 0.97038 0.02248 0.0
H373 H 0.81088 0.96174 0.90821 0.0
H374 H 0.82912 0.96878 0.94521 0.0
H375 H 0.73249 0.97775 0.96611 0.0
H376 H 0.71436 0.97012 0.92955 0.0
H377 H 0.76632 0.94974 0.99622 0.0
H378 H 0.77954 0.04354 0.94912 0.0
H379 H 0.80403 0.07 0.91811 0.0
H380 H 0.89617 0.04917 0.94301 0.0
H381 H 0.87214 0.02252 0.97413 0.0
C382 C 0.75226 0.05494 0.06396 0.0
C383 C 0.77328 0.05191 0.08117 0.0
C384 C 0.76154 0.04632 0.0434 0.0
C385 C 0.79187 0.03424 0.03978 0.0
C386 C 0.81413 0.03474 0.05641 0.0
C387 C 0.80487 0.04365 0.07709 0.0
C388 C 0.79706 0.01514 0.02029 0.0
C389 C 0.81216 0.02851 0.00256 0.0
C390 C 0.78185 0.98561 0.01819 0.0
C391 C 0.76627 0.97032 0.03675 0.0
C392 C 0.78378 0.96257 0.05512 0.0
C393 C 0.76877 0.9497 0.07301 0.0
C394 C 0.73627 0.94423 0.07265 0.0
C395 C 0.71875 0.95147 0.05434 0.0
C396 C 0.73365 0.96443 0.03642 0.0
C397 C 0.79357 0.96392 0.92088 0.0
C398 C 0.76118 0.96561 0.91605 0.0
C399 C 0.80403 0.96831 0.94196 0.0
C400 C 0.78221 0.97452 0.95838 0.0
C401 C 0.74982 0.97315 0.95375 0.0
C402 C 0.73943 0.9688 0.93282 0.0
C403 C 0.79215 0.98618 0.97977 0.0
C404 C 0.77946 0.97156 0.99797 0.0
C405 C 0.80984 0.01437 0.98226 0.0
C406 C 0.8241 0.03089 0.9638 0.0
C407 C 0.80501 0.0446 0.94793 0.0
C408 C 0.81881 0.0596 0.93035 0.0
C409 C 0.85165 0.06121 0.92858 0.0
C410 C 0.87075 0.04789 0.9444 0.0
C411 C 0.85706 0.03288 0.96202 0.0
H412 H 0.86234 0.07286 0.915 0.0
H413 H 0.72468 0.93434 0.08653 0.0
H414 H 0.01675 0.70676 0.41749 0.0
H415 H 0.01619 0.72283 0.45498 0.0
H416 H 0.02934 0.81983 0.43623 0.0
H417 H 0.0305 0.80364 0.39845 0.0
H418 H 0.05827 0.79956 0.47877 0.0
H419 H 0.96026 0.805 0.44126 0.0
H420 H 0.92018 0.78587 0.41578 0.0
H421 H 0.90586 0.70314 0.45418 0.0
H422 H 0.94624 0.72154 0.47974 0.0
H423 H -0.00119 0.82021 0.58489 0.0
H424 H 0.99762 0.83138 0.54627 0.0
H425 H 0.98459 0.73222 0.5334 0.0
H426 H 0.98616 0.72109 0.57166 0.0
H427 H 0.95139 0.77092 0.50496 0.0
H428 H 0.05757 0.76182 0.53714 0.0
H429 H 0.09786 0.78038 0.56273 0.0
H430 H 0.09541 0.87252 0.53422 0.0
H431 H 0.05474 0.85455 0.50866 0.0
C432 C 0.021 0.7313 0.42141 0.0
C433 C 0.02365 0.75396 0.40518 0.0
C434 C 0.02052 0.7405 0.4428 0.0
C435 C 0.02212 0.77255 0.44828 0.0
C436 C 0.02809 0.79498 0.43227 0.0
C437 C 0.02893 0.78568 0.41073 0.0
C438 C 0.0123 0.78219 0.47005 0.0
C439 C 0.03469 0.79417 0.48441 0.0
C440 C 0.98142 0.77537 0.47733 0.0
C441 C 0.95638 0.76461 0.46238 0.0
C442 C 0.94867 0.78266 0.44423 0.0
C443 C 0.92591 0.77194 0.42976 0.0
C444 C 0.91053 0.74328 0.43333 0.0
C445 C 0.91779 0.72534 0.45143 0.0
C446 C 0.94058 0.73594 0.46594 0.0
C447 C 0.99444 0.80107 0.57379 0.0
C448 C 0.99258 0.76979 0.58111 0.0
C449 C 0.99402 0.80742 0.55178 0.0
C450 C 0.9914 0.78255 0.537 0.0
C451 C 0.98662 0.75175 0.54451 0.0
C452 C 0.9875 0.74539 0.56636 0.0
C453 C 0.99767 0.78715 0.5139 0.0
C454 C 0.97459 0.7776 0.4992 0.0
C455 C 0.02775 0.79658 0.50634 0.0
C456 C 0.05297 0.80695 0.52116 0.0
C457 C 0.06559 0.78605 0.53638 0.0
C458 C 0.08846 0.79647 0.55089 0.0
C459 C 0.09913 0.82764 0.55014 0.0
C460 C 0.08708 0.8484 0.53481 0.0
C461 C 0.06413 0.83812 0.52031 0.0
H462 H 0.11677 0.83568 0.56141 0.0
H463 H 0.89295 0.735 0.42209 0.0
H464 H 0.14746 0.27363 0.29648 0.0
H465 H 0.18716 0.2619 0.2699 0.0
H466 H 0.11747 0.27008 0.21984 0.0
H467 H 0.07709 0.28202 0.24671 0.0
H468 H 0.14373 0.21506 0.21851 0.0
H469 H 0.18518 0.31778 0.21973 0.0
H470 H 0.20301 0.36845 0.23482 0.0
H471 H 0.27735 0.32109 0.26867 0.0
H472 H 0.25973 0.27005 0.25407 0.0
H473 H 0.27646 0.14408 0.16398 0.0
H474 H 0.25247 0.19495 0.17253 0.0
H475 H 0.24377 0.16685 0.23851 0.0
H476 H 0.26847 0.11618 0.23028 0.0
H477 H 0.2572 0.24409 0.21839 0.0
H478 H 0.16415 0.15307 0.23113 0.0
H479 H 0.14802 0.10103 0.21713 0.0
H480 H 0.1761 0.12873 0.15387 0.0
H481 H 0.19209 0.18103 0.16752 0.0
C482 C 0.14066 0.27433 0.27979 0.0
C483 C 0.10899 0.27864 0.27374 0.0
C484 C 0.16356 0.26767 0.2645 0.0
C485 C 0.15544 0.26535 0.2428 0.0
C486 C 0.12429 0.27185 0.2365 0.0
C487 C 0.10123 0.27848 0.25186 0.0
C488 C 0.17796 0.25026 0.22783 0.0
C489 C 0.16828 0.22221 0.21783 0.0
C490 C 0.21013 0.25933 0.22692 0.0
C491 C 0.22108 0.29 0.23576 0.0
C492 C 0.20524 0.31811 0.23047 0.0
C493 C 0.21532 0.34692 0.23894 0.0
C494 C 0.2413 0.34799 0.25269 0.0
C495 C 0.25727 0.32023 0.25798 0.0
C496 C 0.24729 0.29135 0.24956 0.0
C497 C 0.27092 0.14929 0.18052 0.0
C498 C 0.27393 0.12599 0.19646 0.0
C499 C 0.25718 0.17838 0.18532 0.0
C500 C 0.24626 0.18434 0.20605 0.0
C501 C 0.25224 0.16253 0.22241 0.0
C502 C 0.26607 0.13355 0.21767 0.0
C503 C 0.22269 0.20914 0.20992 0.0
C504 C 0.23228 0.23833 0.2181 0.0
C505 C 0.1903 0.20161 0.20884 0.0
C506 C 0.17939 0.17082 0.20035 0.0
C507 C 0.16663 0.14809 0.21421 0.0
C508 C 0.15759 0.11855 0.20635 0.0
C509 C 0.16104 0.11155 0.18462 0.0
C510 C 0.17345 0.13415 0.1707 0.0
C511 C 0.18252 0.16373 0.17849 0.0
H512 H 0.15409 0.08865 0.17857 0.0
H513 H 0.24906 0.37032 0.25923 0.0
H514 H 0.76626 0.12825 0.82625 0.0
H515 H 0.78022 0.17658 0.80756 0.0
H516 H 0.73864 0.13985 0.74953 0.0
H517 H 0.72656 0.09035 0.76812 0.0
H518 H 0.79326 0.15645 0.74118 0.0
H519 H 0.71137 0.21079 0.77706 0.0
H520 H 0.67775 0.2275 0.80717 0.0
H521 H 0.75777 0.26983 0.83801 0.0
H522 H 0.792 0.253 0.80826 0.0
H523 H 0.86458 0.2773 0.68834 0.0
H524 H 0.81678 0.25925 0.70587 0.0
H525 H 0.86565 0.25634 0.76633 0.0
H526 H 0.91368 0.27554 0.74902 0.0
H527 H 0.79601 0.26622 0.76877 0.0
H528 H 0.8771 0.19693 0.7373 0.0
H529 H 0.91104 0.18129 0.70704 0.0
H530 H 0.82912 0.16751 0.66767 0.0
H531 H 0.79475 0.18377 0.69761 0.0
C532 C 0.7593 0.13094 0.80966 0.0
C533 C 0.74542 0.1058 0.79853 0.0
C534 C 0.76701 0.15874 0.79899 0.0
C535 C 0.76016 0.16222 0.77712 0.0
C536 C 0.74417 0.13779 0.76639 0.0
C537 C 0.73723 0.10959 0.77696 0.0
C538 C 0.77462 0.18855 0.76489 0.0
C539 C 0.7928 0.18061 0.74691 0.0
C540 C 0.77483 0.22011 0.77247 0.0
C541 C 0.7543 0.23052 0.7904 0.0
C542 C 0.72186 0.22351 0.79031 0.0
C543 C 0.70268 0.23303 0.80732 0.0
C544 C 0.71562 0.2497 0.82449 0.0
C545 C 0.74777 0.25694 0.82468 0.0
C546 C 0.76706 0.24748 0.80772 0.0
C547 C 0.86492 0.2745 0.70555 0.0
C548 C 0.89321 0.27719 0.71723 0.0
C549 C 0.83744 0.26415 0.71554 0.0
C550 C 0.83796 0.25597 0.73725 0.0
C551 C 0.86489 0.2625 0.74951 0.0
C552 C 0.89242 0.27304 0.73955 0.0
C553 C 0.81439 0.23357 0.74561 0.0
C554 C 0.79507 0.2422 0.76281 0.0
C555 C 0.81283 0.20257 0.73734 0.0
C556 C 0.83342 0.19186 0.71958 0.0
C557 C 0.86636 0.19073 0.72215 0.0
C558 C 0.88567 0.18178 0.70507 0.0
C559 C 0.87224 0.17346 0.68544 0.0
C560 C 0.83948 0.17401 0.68287 0.0
C561 C 0.82008 0.18312 0.69988 0.0
H562 H 0.88719 0.16648 0.67224 0.0
H563 H 0.70073 0.25703 0.83765 0.0
H564 H 0.73332 0.8847 0.17205 0.0
H565 H 0.73601 0.83563 0.19205 0.0
H566 H 0.73905 0.88824 0.25116 0.0
H567 H 0.73396 0.93728 0.23137 0.0
H568 H 0.78632 0.82223 0.21119 0.0
H569 H 0.7254 0.84753 0.29416 0.0
H570 H 0.67422 0.86722 0.30718 0.0
H571 H 0.63074 0.84186 0.24756 0.0
H572 H 0.68151 0.82147 0.23427 0.0
H573 H 0.85708 0.81143 0.31479 0.0
H574 H 0.8086 0.82255 0.29517 0.0
H575 H 0.81687 0.7335 0.26217 0.0
H576 H 0.86583 0.72231 0.28189 0.0
H577 H 0.74934 0.79643 0.28438 0.0
H578 H 0.80819 0.75219 0.2098 0.0
H579 H 0.86038 0.73506 0.19657 0.0
H580 H 0.90573 0.80158 0.23833 0.0
H581 H 0.85381 0.81929 0.25155 0.0
C582 C 0.73304 0.8859 0.18935 0.0
C583 C 0.73402 0.9151 0.20009 0.0
C584 C 0.73475 0.85768 0.20078 0.0
C585 C 0.73786 0.85806 0.22313 0.0
C586 C 0.73617 0.88707 0.23396 0.0
C587 C 0.73393 0.91527 0.22257 0.0
C588 C 0.74963 0.82977 0.23462 0.0
C589 C 0.77731 0.81568 0.22682 0.0
C590 C 0.73819 0.82113 0.25509 0.0
C591 C 0.7074 0.83293 0.26319 0.0
C592 C 0.7049 0.84582 0.28388 0.0
C593 C 0.67594 0.85721 0.2913 0.0
C594 C 0.64925 0.85581 0.27821 0.0
C595 C 0.65145 0.84298 0.25767 0.0
C596 C 0.68033 0.83154 0.25018 0.0
C597 C 0.84812 0.79392 0.3037 0.0
C598 C 0.86538 0.76642 0.29938 0.0
C599 C 0.82021 0.80006 0.29274 0.0
C600 C 0.80933 0.77896 0.27711 0.0
C601 C 0.82496 0.75005 0.27419 0.0
C602 C 0.85291 0.74377 0.28533 0.0
C603 C 0.7864 0.79078 0.26121 0.0
C604 C 0.75694 0.80179 0.26822 0.0
C605 C 0.79601 0.79668 0.23994 0.0
C606 C 0.82725 0.78672 0.2318 0.0
C607 C 0.82934 0.76316 0.21608 0.0
C608 C 0.85884 0.75337 0.20859 0.0
C609 C 0.88636 0.76715 0.21666 0.0
C610 C 0.88442 0.79087 0.23213 0.0
C611 C 0.85498 0.8008 0.23961 0.0
H612 H 0.90917 0.75948 0.21088 0.0
H613 H 0.62687 0.86467 0.28398 0.0
H614 H 0.25321 0.87271 0.82694 0.0
H615 H 0.23829 0.82659 0.80584 0.0
H616 H 0.26718 0.87461 0.74815 0.0
H617 H 0.2808 0.92133 0.76927 0.0
H618 H 0.21041 0.85655 0.74407 0.0
H619 H 0.30384 0.80449 0.76736 0.0
H620 H 0.34381 0.78539 0.79293 0.0
H621 H 0.27383 0.7287 0.82432 0.0
H622 H 0.23331 0.74779 0.79913 0.0
H623 H 0.15949 0.74505 0.67691 0.0
H624 H 0.20407 0.76108 0.69845 0.0
H625 H 0.15096 0.74335 0.75593 0.0
H626 H 0.10614 0.72558 0.73446 0.0
H627 H 0.22571 0.74223 0.75799 0.0
H628 H 0.13195 0.80712 0.73968 0.0
H629 H 0.09241 0.82329 0.71281 0.0
H630 H 0.1664 0.85468 0.67104 0.0
H631 H 0.20638 0.83819 0.69758 0.0
C632 C 0.25722 0.87299 0.80982 0.0
C633 C 0.26794 0.90047 0.79963 0.0
C634 C 0.24886 0.84656 0.79776 0.0
C635 C 0.25172 0.84701 0.77538 0.0
C636 C 0.26468 0.87374 0.76539 0.0
C637 C 0.27246 0.90037 0.7774 0.0
C638 C 0.23664 0.82202 0.76228 0.0
C639 C 0.2145 0.83162 0.74689 0.0
C640 C 0.24115 0.78937 0.76623 0.0
C641 C 0.26547 0.77777 0.78142 0.0
C642 C 0.2969 0.78814 0.77981 0.0
C643 C 0.31967 0.77728 0.79422 0.0
C644 C 0.31135 0.75589 0.81026 0.0
C645 C 0.28024 0.74527 0.81189 0.0
C646 C 0.25737 0.75607 0.79752 0.0
C647 C 0.15758 0.74261 0.6941 0.0
C648 C 0.12867 0.73501 0.70393 0.0
C649 C 0.18336 0.7518 0.70642 0.0
C650 C 0.18045 0.754 0.72868 0.0
C651 C 0.15349 0.7419 0.73871 0.0
C652 C 0.12769 0.73232 0.72638 0.0
C653 C 0.20011 0.77717 0.74012 0.0
C654 C 0.22251 0.76726 0.75515 0.0
C655 C 0.19609 0.80967 0.73592 0.0
C656 C 0.17209 0.82127 0.72052 0.0
C657 C 0.13975 0.81745 0.72475 0.0
C658 C 0.11728 0.82662 0.70958 0.0
C659 C 0.12689 0.83994 0.69021 0.0
C660 C 0.159 0.84432 0.68604 0.0
C661 C 0.18156 0.83511 0.70115 0.0
H662 H 0.10948 0.84691 0.67844 0.0
H663 H 0.32902 0.74751 0.8214 0.0
H664 H 0.01926 0.85796 0.70777 0.0
H665 H 0.98093 0.88075 0.73251 0.0
H666 H 0.90498 0.83896 0.69633 0.0
H667 H 0.94323 0.81644 0.67125 0.0
H668 H 0.89154 0.89962 0.70828 0.0
H669 H 0.92898 0.8045 0.74323 0.0
H670 H 0.97066 0.7691 0.7568 0.0
H671 H 0.00519 0.84294 0.79763 0.0
H672 H 0.96403 0.87887 0.78395 0.0
H673 H 0.76786 0.91075 0.78247 0.0
H674 H 0.80845 0.88985 0.75871 0.0
H675 H 0.88061 0.92941 0.79927 0.0
H676 H 0.84019 0.95 0.82334 0.0
H677 H 0.89805 0.87236 0.7854 0.0
H678 H 0.85862 0.96623 0.753 0.0
H679 H 0.81822 0.00284 0.73926 0.0
H680 H 0.78906 0.93383 0.693 0.0
H681 H 0.82898 0.89658 0.70669 0.0
C682 C 0.9944 0.85373 0.70498 0.0
C683 C 0.98429 0.83523 0.68759 0.0
C684 C 0.97251 0.86667 0.71921 0.0
C685 C 0.9401 0.86118 0.71646 0.0
C686 C 0.92988 0.84339 0.69881 0.0
C687 C 0.95177 0.83041 0.68456 0.0
C688 C 0.91691 0.87343 0.73224 0.0
C689 C 0.89267 0.89333 0.72509 0.0
C690 C 0.91899 0.86605 0.75428 0.0
C691 C 0.94345 0.84433 0.76265 0.0
C692 C 0.94553 0.81317 0.75507 0.0
C693 C 0.96907 0.79303 0.76274 0.0
C694 C 0.99055 0.80375 0.77808 0.0
C695 C 0.98851 0.83463 0.78579 0.0
C696 C 0.96504 0.85487 0.77813 0.0
C697 C 0.79239 0.91483 0.78646 0.0
C698 C 0.80074 0.93229 0.80475 0.0
C699 C 0.8156 0.90298 0.77278 0.0
C700 C 0.84767 0.90863 0.77691 0.0
C701 C 0.85611 0.9249 0.79564 0.0
C702 C 0.8329 0.93665 0.80943 0.0
C703 C 0.87217 0.89812 0.7614 0.0
C704 C 0.89679 0.87867 0.7686 0.0
C705 C 0.87051 0.90609 0.7394 0.0
C706 C 0.84661 0.9285 0.73101 0.0
C707 C 0.84344 0.95876 0.74 0.0
C708 C 0.82065 0.97965 0.73221 0.0
C709 C 0.80104 0.97064 0.7153 0.0
C710 C 0.80424 0.94076 0.70611 0.0
C711 C 0.82696 0.91976 0.71388 0.0
H712 H 0.78341 0.98684 0.70928 0.0
H713 H 0.00878 0.78813 0.78399 0.0
H714 H 0.20463 0.92992 0.17469 0.0
H715 H 0.16492 0.90102 0.19529 0.0
H716 H 0.20746 0.93369 0.25404 0.0
H717 H 0.24804 0.961 0.23357 0.0
H718 H 0.19376 0.87622 0.259 0.0
H719 H 0.13484 0.96438 0.23071 0.0
H720 H 0.113 -0.00065 0.20283 0.0
H721 H 0.06532 0.92069 0.17405 0.0
H722 H 0.08726 0.88517 0.20152 0.0
H723 H 0.06433 0.8251 0.32464 0.0
H724 H 0.10301 0.85886 0.30641 0.0
H725 H 0.07273 0.82201 0.24543 0.0
H726 H 0.03417 0.78882 0.26327 0.0
H727 H 0.07935 0.88436 0.24344 0.0
H728 H 0.14051 0.79624 0.26954 0.0
H729 H 0.1612 0.76033 0.29724 0.0
H730 H 0.20387 0.83866 0.32983 0.0
H731 H 0.18306 0.8751 0.30245 0.0
C732 C 0.20545 0.93087 0.192 0.0
C733 C 0.22949 0.94764 0.2025 0.0
C734 C 0.18259 0.91456 0.20379 0.0
C735 C 0.18272 0.91556 0.22631 0.0
C736 C 0.20674 0.93244 0.23674 0.0
C737 C 0.22996 0.9481 0.22499 0.0
C738 C 0.15851 0.89838 0.23912 0.0
C739 C 0.16871 0.87851 0.25577 0.0
C740 C 0.12575 0.90067 0.23476 0.0
C741 C 0.11288 0.92208 0.21811 0.0
C742 C 0.11991 0.95451 0.21834 0.0
C743 C 0.10747 0.97443 0.20261 0.0
C744 C 0.08778 0.96221 0.1867 0.0
C745 C 0.08057 0.93008 0.1864 0.0
C746 C 0.09298 0.91007 0.20204 0.0
C747 C 0.06592 0.82427 0.30735 0.0
C748 C 0.04619 0.80416 0.29545 0.0
C749 C 0.08808 0.84349 0.29696 0.0
C750 C 0.0909 0.84282 0.27453 0.0
C751 C 0.07095 0.82304 0.26271 0.0
C752 C 0.04894 0.80393 0.27301 0.0
C753 C 0.11471 0.86229 0.2631 0.0
C754 C 0.10441 0.88249 0.24674 0.0
C755 C 0.14732 0.86031 0.26768 0.0
C756 C 0.15993 0.83842 0.28409 0.0
C757 C 0.15409 0.80583 0.28271 0.0
C758 C 0.16588 0.78538 0.29833 0.0
C759 C 0.18376 0.79722 0.31532 0.0
C760 C 0.18997 0.82953 0.31668 0.0
C761 C 0.1782 0.85009 0.30111 0.0
H762 H 0.19287 0.78135 0.3274 0.0
H763 H 0.07793 0.97758 0.17463 0.0
H764 H 0.06948 0.19345 0.68409 0.0
H765 H 0.10266 0.15991 0.70678 0.0
H766 H 0.10633 0.23347 0.75444 0.0
H767 H 0.07409 0.26723 0.73177 0.0
H768 H 0.16224 0.20931 0.74976 0.0
H769 H 0.05774 0.16745 0.75974 0.0
H770 H 0.00698 0.14544 0.7475 0.0
H771 H 0.05524 0.06652 0.71952 0.0
H772 H 0.10636 0.08826 0.73138 0.0
H773 H 0.18956 0.07454 0.83288 0.0
H774 H 0.15346 0.10773 0.81191 0.0
H775 H 0.22504 0.11914 0.76352 0.0
H776 H 0.26106 0.08658 0.78425 0.0
H777 H 0.12934 0.10137 0.77085 0.0
H778 H 0.2224 0.19321 0.7443 0.0
H779 H 0.27177 0.21684 0.75773 0.0
H780 H 0.24284 0.19881 0.82241 0.0
H781 H 0.19312 0.17547 0.80938 0.0
C782 C 0.0775 0.20251 0.69936 0.0
C783 C 0.06909 0.23304 0.7061 0.0
C784 C 0.09629 0.18324 0.71238 0.0
C785 C 0.1067 0.194 0.73248 0.0
C786 C 0.09863 0.2246 0.73904 0.0
C787 C 0.08009 0.24389 0.72603 0.0
C788 C 0.12622 0.17372 0.74673 0.0
C789 C 0.15499 0.18571 0.75434 0.0
C790 C 0.11662 0.14308 0.75303 0.0
C791 C 0.08588 0.12961 0.74631 0.0
C792 C 0.05753 0.14547 0.7509 0.0
C793 C 0.0287 0.13304 0.74403 0.0
C794 C 0.02789 0.10463 0.7327 0.0
C795 C 0.05591 0.08853 0.72829 0.0
C796 C 0.08481 0.10087 0.73511 0.0
C797 C 0.19761 0.08423 0.81782 0.0
C798 C 0.22828 0.07797 0.81032 0.0
C799 C 0.17691 0.10303 0.8058 0.0
C800 C 0.18665 0.1161 0.78622 0.0
C801 C 0.21712 0.10964 0.77869 0.0
C802 C 0.2377 0.09093 0.7906 0.0
C803 C 0.1654 0.13693 0.77363 0.0
C804 C 0.13644 0.12501 0.76629 0.0
C805 C 0.17454 0.16787 0.76781 0.0
C806 C 0.20416 0.18235 0.77584 0.0
C807 C 0.22651 0.19443 0.76139 0.0
C808 C 0.25457 0.20774 0.76893 0.0
C809 C 0.26048 0.20924 0.79091 0.0
C810 C 0.23829 0.19753 0.80539 0.0
C811 C 0.21018 0.18422 0.79794 0.0
H812 H 0.28223 0.21953 0.79671 0.0
H813 H 0.00555 0.09508 0.72737 0.0
H814 H 0.75657 0.10621 0.21398 0.0
H815 H 0.7905 0.13519 0.23861 0.0
H816 H 0.87277 0.10035 0.20553 0.0
H817 H 0.83876 0.07198 0.18035 0.0
H818 H 0.83187 0.11776 0.26677 0.0
H819 H 0.93242 0.15327 0.20979 0.0
H820 H 0.94116 0.16368 0.17139 0.0
H821 H 0.84428 0.19146 0.16434 0.0
H822 H 0.83507 0.18153 0.20272 0.0
H823 H 0.96072 0.18755 0.32576 0.0
H824 H 0.9285 0.15417 0.3023 0.0
H825 H 0.89358 0.23702 0.27001 0.0
H826 H 0.92549 0.27039 0.29321 0.0
H827 H 0.91302 0.19344 0.24169 0.0
H828 H 0.84838 0.1975 0.30447 0.0
H829 H 0.83546 0.19106 0.34265 0.0
H830 H 0.85291 0.09156 0.33803 0.0
H831 H 0.86681 0.09751 0.29988 0.0
C832 C 0.78189 0.10484 0.21184 0.0
C833 C 0.79495 0.08693 0.1951 0.0
C834 C 0.80129 0.12131 0.22604 0.0
C835 C 0.83425 0.12016 0.22395 0.0
C836 C 0.84742 0.10208 0.20731 0.0
C837 C 0.82795 0.08586 0.1929 0.0
C838 C 0.8545 0.13814 0.23916 0.0
C839 C 0.84974 0.13417 0.26126 0.0
C840 C 0.87767 0.15982 0.23208 0.0
C841 C 0.88301 0.16633 0.20906 0.0
C842 C 0.91303 0.1617 0.20004 0.0
C843 C 0.91805 0.16749 0.17829 0.0
C844 C 0.89326 0.17812 0.16542 0.0
C845 C 0.86343 0.18311 0.17431 0.0
C846 C 0.85829 0.17737 0.19605 0.0
C847 C 0.94586 0.19868 0.31385 0.0
C848 C 0.94577 0.23169 0.31136 0.0
C849 C 0.92751 0.17955 0.30042 0.0
C850 C 0.90875 0.19309 0.2843 0.0
C851 C 0.90808 0.22602 0.28218 0.0
C852 C 0.92625 0.24509 0.29559 0.0
C853 C 0.89018 0.17323 0.26926 0.0
C854 C 0.89539 0.17675 0.24719 0.0
C855 C 0.86699 0.15166 0.27639 0.0
C856 C 0.8591 0.14804 0.29938 0.0
C857 C 0.84992 0.17431 0.31165 0.0
C858 C 0.84238 0.17073 0.33328 0.0
C859 C 0.84358 0.14094 0.34279 0.0
C860 C 0.85224 0.11464 0.33066 0.0
C861 C 0.85998 0.11811 0.30904 0.0
H862 H 0.83765 0.1382 0.35952 0.0
H863 H 0.89719 0.18256 0.14858 0.0
H864 H 0.14765 0.08396 0.13039 0.0
H865 H 0.09011 0.08091 0.12843 0.0
H866 H 0.09495 0.97986 0.13618 0.0
H867 H 0.15218 0.98261 0.13731 0.0
H868 H 0.05431 0.99372 0.10659 0.0
H869 H 0.07579 0.03313 0.17798 0.0
H870 H 0.09786 0.0704 0.20421 0.0
H871 H 0.04304 0.1454 0.1768 0.0
H872 H 0.02076 0.10844 0.15028 0.0
H873 H 0.9 0.95498 0.13919 0.0
H874 H 0.95685 0.96436 0.13793 0.0
H875 H 0.9402 0.0633 0.12642 0.0
H876 H 0.88337 0.05408 0.12752 0.0
H877 H 0.98593 0.05482 0.1559 0.0
H878 H 0.96256 0.0161 0.0859 0.0
H879 H 0.94023 0.97952 0.05921 0.0
H880 H -0.00118 0.90485 0.08324 0.0
H881 H 0.02118 0.94088 0.11029 0.0
C882 C 0.13645 0.06109 0.13151 0.0
C883 C 0.15455 0.03357 0.13418 0.0
C884 C 0.10354 0.05941 0.13062 0.0
C885 C 0.08816 0.03021 0.13258 0.0
C886 C 0.10624 0.00271 0.13487 0.0
C887 C 0.13903 0.00435 0.13571 0.0
C888 C 0.05327 0.02791 0.13211 0.0
C889 C 0.0394 0.00683 0.11755 0.0
C890 C 0.03373 0.04585 0.14589 0.0
C891 C 0.04684 0.06802 0.162 0.0
C892 C 0.06855 0.05755 0.17747 0.0
C893 C 0.08108 0.07864 0.19241 0.0
C894 C 0.07197 0.11031 0.19213 0.0
C895 C 0.05014 0.12088 0.17697 0.0
C896 C 0.03751 0.09984 0.16201 0.0
C897 C 0.90842 0.97867 0.13619 0.0
C898 C 0.88713 0.00374 0.13343 0.0
C899 C 0.9409 0.98402 0.13553 0.0
C900 C 0.95272 0.0145 0.13189 0.0
C901 C 0.93156 0.03963 0.1293 0.0
C902 C 0.89908 0.0343 0.13001 0.0
C903 C 0.98718 0.02004 0.13077 0.0
C904 C 0.00089 0.04181 0.14492 0.0
C905 C 0.00663 0.00285 0.11657 0.0
C906 C 0.99335 0.98113 0.10024 0.0
C907 C 0.97051 0.99182 0.0856 0.0
C908 C 0.95788 0.97119 0.07039 0.0
C909 C 0.96805 0.93986 0.06956 0.0
C910 C 0.99094 0.92912 0.08391 0.0
C911 C 0.00363 0.94964 0.09917 0.0
H912 H 0.95824 0.92393 0.05777 0.0
H913 H 0.08177 0.12664 0.20367 0.0
H914 H 0.02807 0.14027 0.66301 0.0
H915 H 0.04292 0.08608 0.65462 0.0
H916 H 0.96005 0.07634 0.61511 0.0
H917 H 0.94528 0.13087 0.62307 0.0
H918 H 0.9699 0.02537 0.64219 0.0
H919 H 0.02845 0.08607 0.59143 0.0
H920 H 0.06394 0.12886 0.57986 0.0
H921 H 0.13885 0.08974 0.61777 0.0
H922 H 0.10364 0.047 0.62987 0.0
H923 H 0.01595 0.87852 0.60085 0.0
H924 H 0.00253 0.93465 0.60047 0.0
H925 H 0.0845 0.95485 0.63906 0.0
H926 H 0.09798 0.8987 0.63948 0.0
H927 H 0.07369 0.00112 0.60925 0.0
H928 H 0.01487 0.94527 0.66318 0.0
H929 H 0.97969 0.90397 0.67717 0.0
H930 H 0.906 0.93451 0.63486 0.0
H931 H 0.94088 0.97607 0.62049 0.0
C932 C 0.01312 0.12676 0.65237 0.0
C933 C 0.98564 0.14006 0.64353 0.0
C934 C 0.02162 0.09577 0.64764 0.0
C935 C 0.00282 0.07745 0.63398 0.0
C936 C 0.9749 0.09022 0.62562 0.0
C937 C 0.96642 0.12132 0.63028 0.0
C938 C 0.01233 0.04483 0.62865 0.0
C939 C 0.9923 0.02007 0.6346 0.0
C940 C 0.0419 0.03804 0.61919 0.0
C941 C 0.06331 0.06345 0.61169 0.0
C942 C 0.05243 0.08671 0.59743 0.0
C943 C 0.0725 0.11094 0.59076 0.0
C944 C 0.10362 0.11204 0.5981 0.0
C945 C 0.11474 0.08886 0.6121 0.0
C946 C 0.09473 0.06461 0.61885 0.0
C947 C 0.03132 0.89503 0.60898 0.0
C948 C 0.05776 0.88427 0.62042 0.0
C949 C 0.02366 0.92703 0.60875 0.0
C950 C 0.04219 0.94876 0.62009 0.0
C951 C 0.06986 0.93841 0.63025 0.0
C952 C 0.0776 0.90636 0.63042 0.0
C953 C 0.03131 0.98167 0.62292 0.0
C954 C 0.0511 0.00647 0.61656 0.0
C955 C 0.00158 0.98857 0.63213 0.0
C956 C 0.9806 0.96351 0.64059 0.0
C957 C 0.99125 0.94301 0.65672 0.0
C958 C 0.97135 0.91957 0.66475 0.0
C959 C 0.94067 0.91645 0.65686 0.0
C960 C 0.9298 0.93689 0.64093 0.0
C961 C 0.94961 0.96043 0.63286 0.0
H962 H 0.9253 0.89828 0.66313 0.0
H963 H 0.11912 0.13083 0.59293 0.0
H964 H 0.88932 0.06902 0.86877 0.0
H965 H 0.94637 0.06205 0.87168 0.0
H966 H 0.93355 0.96171 0.87898 0.0
H967 H 0.87654 0.96847 0.87647 0.0
H968 H 0.98475 0.03738 0.90274 0.0
H969 H 0.99279 0.92503 0.85118 0.0
H970 H 0.9664 0.89869 0.82092 0.0
H971 H 0.9307 0.98784 0.79904 0.0
H972 H 0.95705 0.01475 0.82918 0.0
H973 H 0.1399 0.9706 0.90739 0.0
H974 H 0.08244 0.97669 0.90824 0.0
H975 H 0.08421 0.01353 0.84391 0.0
H976 H 0.14137 0.00681 0.84278 0.0
H977 H 0.03857 0.96972 0.84921 0.0
H978 H 0.07641 0.06261 0.88551 0.0
H979 H 0.10651 0.0913 0.91312 0.0
H980 H 0.05251 0.04592 0.9624 0.0
H981 H 0.02238 0.01661 0.93506 0.0
C982 C 0.89857 0.04553 0.87128 0.0
C983 C 0.87836 0.01926 0.87208 0.0
C984 C 0.93117 0.04159 0.8729 0.0
C985 C 0.94409 0.01134 0.87523 0.0
C986 C 0.924 0.9852 0.87679 0.0
C987 C 0.89142 0.98911 0.87522 0.0
C988 C 0.97865 0.00704 0.87538 0.0
C989 C 0.99654 0.02251 0.8911 0.0
C990 C 0.99396 0.9878 0.86008 0.0
C991 C 0.9767 0.97183 0.84251 0.0
C992 C 0.97923 0.93899 0.83994 0.0
C993 C 0.96433 0.92398 0.82279 0.0
C994 C 0.94706 0.94161 0.80798 0.0
C995 C 0.94415 0.97424 0.81051 0.0
C996 C 0.95896 0.98937 0.82768 0.0
C997 C 0.12796 0.97968 0.89338 0.0
C998 C 0.14508 0.98829 0.87503 0.0
C999 C 0.09524 0.98343 0.89396 0.0
C1000 C 0.07923 0.99582 0.8762 0.0
C1001 C 0.09622 0.00401 0.85779 0.0
C1002 C 0.12885 0.00037 0.85722 0.0
C1003 C 0.04467 -2e-05 0.87656 0.0
C1004 C 0.02676 0.98439 0.86098 0.0
C1005 C 0.02947 0.01936 0.89182 0.0
C1006 C 0.04737 0.03718 0.90825 0.0
C1007 C 0.07112 0.05857 0.90224 0.0
C1008 C 0.08816 0.07497 0.91784 0.0
C1009 C 0.08149 0.07037 0.9395 0.0
C1010 C 0.05768 0.04943 0.94561 0.0
C1011 C 0.0406 0.03293 0.93007 0.0
H1012 H 0.09471 0.08308 0.95156 0.0
H1013 H 0.93607 0.93001 0.79448 0.0
H1014 H 0.03264 0.87016 0.37014 0.0
H1015 H 0.04568 0.92592 0.3717 0.0
H1016 H 0.9477 0.94844 0.3826 0.0
H1017 H 0.93417 0.89256 0.37982 0.0
H1018 H 0.97015 0.98367 0.35213 0.0
H1019 H 0.00468 0.95696 0.42223 0.0
H1020 H 0.03286 0.92663 0.44994 0.0
H1021 H 0.12156 0.95034 0.42097 0.0
H1022 H 0.0939 0.98043 0.39288 0.0
H1023 H -5e-05 0.14473 0.3736 0.0
H1024 H 0.9875 0.08959 0.3799 0.0
H1025 H 0.07756 0.06222 0.35384 0.0
H1026 H 0.08997 0.1176 0.34659 0.0
H1027 H 0.05793 0.03076 0.39391 0.0
H1028 H 0.02058 0.05641 0.32291 0.0
H1029 H 0.9906 0.0876 0.29654 0.0
H1030 H 0.90435 0.06592 0.32933 0.0
H1031 H 0.93388 0.03545 0.35628 0.0
C1032 C 0.0138 0.8869 0.37282 0.0
C1033 C 0.98225 0.87691 0.37449 0.0
C1034 C 0.02139 0.91881 0.37405 0.0
C1035 C 0.9977 0.94135 0.37742 0.0
C1036 C 0.96635 0.93139 0.38 0.0
C1037 C 0.95868 0.89943 0.37857 0.0
C1038 C 0.00539 0.97536 0.37639 0.0
C1039 C 0.98894 0.99406 0.3616 0.0
C1040 C 0.03039 0.98874 0.3884 0.0
C1041 C 0.04717 0.97076 0.40533 0.0
C1042 C 0.03018 0.95552 0.42166 0.0
C1043 C 0.04607 0.9384 0.43746 0.0
C1044 C 0.07897 0.93651 0.43719 0.0
C1045 C 0.09606 0.95181 0.42115 0.0
C1046 C 0.08029 0.96893 0.4053 0.0
C1047 C 0.0171 0.12717 0.36891 0.0
C1048 C 0.0458 0.13571 0.35917 0.0
C1049 C 0.01 0.09564 0.37278 0.0
C1050 C 0.03154 0.07204 0.36719 0.0
C1051 C 0.06072 0.08031 0.35828 0.0
C1052 C 0.06775 0.11192 0.35417 0.0
C1053 C 0.02273 0.03865 0.36968 0.0
C1054 C 0.039 0.02021 0.38466 0.0
C1055 C 0.99731 0.02555 0.35805 0.0
C1056 C 0.97953 0.04397 0.3418 0.0
C1057 C 0.99527 0.05866 0.32468 0.0
C1058 C 0.97834 0.07622 0.30961 0.0
C1059 C 0.94559 0.07894 0.31133 0.0
C1060 C 0.92972 0.06404 0.3281 0.0
C1061 C 0.94655 0.04663 0.34329 0.0
H1062 H 0.9325 0.09243 0.29961 0.0
H1063 H 0.09122 0.92324 0.44943 0.0
H1064 H 0.38254 0.00956 0.19962 0.0
H1065 H 0.43786 0.02543 0.20279 0.0
H1066 H 0.4645 0.95121 0.15914 0.0
H1067 H 0.4092 0.93502 0.15622 0.0
H1068 H 0.51008 0.96181 0.1898 0.0
H1069 H 0.44625 0.02306 0.14029 0.0
H1070 H 0.40007 0.05591 0.13131 0.0
H1071 H 0.42921 0.1251 0.17746 0.0
H1072 H 0.4753 0.09234 0.18698 0.0
H1073 H 0.63934 0.01446 0.13225 0.0
H1074 H 0.5856 -0.0001 0.14204 0.0
H1075 H 0.58024 0.08035 0.18417 0.0
H1076 H 0.63453 0.09504 0.17435 0.0
H1077 H 0.52491 0.06985 0.16071 0.0
H1078 H 0.59432 0.01156 0.20575 0.0
H1079 H 0.64053 0.97827 0.21377 0.0
H1080 H 0.60156 0.90339 0.1758 0.0
H1081 H 0.55536 0.93644 0.1672 0.0
C1082 C 0.40036 0.99623 0.19111 0.0
C1083 C 0.39169 0.97144 0.1774 0.0
C1084 C 0.43187 0.00526 0.19296 0.0
C1085 C 0.4551 0.98993 0.18082 0.0
C1086 C 0.44687 0.96339 0.16859 0.0
C1087 C 0.41533 0.95415 0.16692 0.0
C1088 C 0.48691 0.00388 0.1786 0.0
C1089 C 0.51339 0.98539 0.18344 0.0
C1090 C 0.4911 0.03495 0.17072 0.0
C1091 C 0.46401 0.05512 0.1645 0.0
C1092 C 0.44273 0.04522 0.14858 0.0
C1093 C 0.41656 0.0638 0.1434 0.0
C1094 C 0.41166 0.09253 0.15385 0.0
C1095 C 0.43301 0.10281 0.16941 0.0
C1096 C 0.45915 0.08425 0.1747 0.0
C1097 C 0.62664 0.02914 0.14351 0.0
C1098 C 0.64114 0.05558 0.15282 0.0
C1099 C 0.59602 0.0208 0.1491 0.0
C1100 C 0.57935 0.03861 0.16423 0.0
C1101 C 0.59295 0.06617 0.17261 0.0
C1102 C 0.62376 0.07462 0.16693 0.0
C1103 C 0.54809 0.02754 0.1715 0.0
C1104 C 0.52169 0.04654 0.16754 0.0
C1105 C 0.54402 0.99693 0.18015 0.0
C1106 C 0.57141 0.9766 0.18572 0.0
C1107 C 0.59566 0.98806 0.19901 0.0
C1108 C 0.62187 0.96923 0.20366 0.0
C1109 C 0.62401 0.93876 0.19527 0.0
C1110 C 0.59987 0.92701 0.18228 0.0
C1111 C 0.57364 0.94577 0.17753 0.0
H1112 H 0.64436 0.92424 0.19886 0.0
H1113 H 0.39135 0.10686 0.14986 0.0
H1114 H 0.00092 0.6484 0.62264 0.0
H1115 H 0.00833 0.59124 0.62378 0.0
H1116 H 0.97545 0.58991 0.68916 0.0
H1117 H 0.96713 0.6471 0.68772 0.0
H1118 H 0.04663 0.55801 0.64649 0.0
H1119 H 0.94319 0.51864 0.70064 0.0
H1120 H 0.88871 0.53471 0.70927 0.0
H1121 H 0.87972 0.57834 0.64758 0.0
H1122 H 0.93399 0.56219 0.63848 0.0
H1123 H 0.07139 0.39863 0.67852 0.0
H1124 H 0.06143 0.45566 0.6785 0.0
H1125 H 0.97889 0.44109 0.63921 0.0
H1126 H 0.98847 0.38437 0.63959 0.0
H1127 H 0.96547 0.48088 0.66946 0.0
H1128 H 0.04941 0.46906 0.61842 0.0
H1129 H 0.1019 0.4524 0.60569 0.0
H1130 H 0.14607 0.51026 0.65349 0.0
H1131 H 0.0938 0.52695 0.66669 0.0
C1132 C 0.99501 0.63576 0.63715 0.0
C1133 C 0.98342 0.65196 0.65508 0.0
C1134 C -0.00068 0.6032 0.63783 0.0
C1135 C 0.99241 0.58627 0.65653 0.0
C1136 C 0.98045 0.60239 0.67443 0.0
C1137 C 0.97566 0.63498 0.67362 0.0
C1138 C -0.00126 0.55193 0.65738 0.0
C1139 C 0.02886 0.54115 0.65152 0.0
C1140 C 0.97553 0.5299 0.66378 0.0
C1141 C 0.94277 0.5395 0.669 0.0
C1142 C 0.92955 0.53159 0.6889 0.0
C1143 C 0.89871 0.54071 0.69388 0.0
C1144 C 0.88081 0.55763 0.67901 0.0
C1145 C 0.89366 0.56535 0.65911 0.0
C1146 C 0.92447 0.55625 0.65405 0.0
C1147 C 0.05129 0.40777 0.66981 0.0
C1148 C 0.03061 0.38722 0.65915 0.0
C1149 C 0.04559 0.44025 0.6698 0.0
C1150 C 0.01947 0.45263 0.65877 0.0
C1151 C -0.00099 0.43205 0.64798 0.0
C1152 C 0.00449 0.39967 0.64821 0.0
C1153 C 0.01323 0.48698 0.65836 0.0
C1154 C 0.98324 0.49777 0.66448 0.0
C1155 C 0.03626 0.50895 0.6516 0.0
C1156 C 0.0677 0.49898 0.64368 0.0
C1157 C 0.07032 0.47804 0.62632 0.0
C1158 C 0.10002 0.46862 0.619 0.0
C1159 C 0.1273 0.4802 0.62882 0.0
C1160 C 0.12492 0.50127 0.64593 0.0
C1161 C 0.09526 0.51073 0.65333 0.0
H1162 H 0.15028 0.47289 0.62312 0.0
H1163 H 0.85695 0.56469 0.6829 0.0
H1164 H 0.40759 0.0726 0.84855 0.0
H1165 H 0.46111 0.05598 0.83956 0.0
H1166 H 0.42389 0.97803 0.80301 0.0
H1167 H 0.37027 0.99475 0.81179 0.0
H1168 H 0.46616 0.9586 0.83204 0.0
H1169 H 0.46299 0.03605 0.77751 0.0
H1170 H 0.45293 0.08805 0.76125 0.0
H1171 H 0.52094 0.13041 0.80331 0.0
H1172 H 0.53109 0.07875 0.82007 0.0
H1173 H 0.63114 0.91868 0.8187 0.0
H1174 H 0.57575 0.93017 0.80973 0.0
H1175 H 0.58159 0.0173 0.84525 0.0
H1176 H 0.63626 0.00597 0.85415 0.0
H1177 H 0.554 0.02632 0.80686 0.0
H1178 H 0.54692 0.95142 0.86612 0.0
H1179 H 0.55609 0.8999 0.88338 0.0
H1180 H 0.50662 0.85338 0.83236 0.0
H1181 H 0.49749 0.90465 0.81467 0.0
C1182 C 0.41078 0.05243 0.83816 0.0
C1183 C 0.38477 0.03474 0.83113 0.0
C1184 C 0.44136 0.04295 0.833 0.0
C1185 C 0.44642 0.01579 0.82057 0.0
C1186 C 0.42046 -0.00103 0.81268 0.0
C1187 C 0.38989 0.00845 0.81782 0.0
C1188 C 0.47872 0.00327 0.8179 0.0
C1189 C 0.48529 0.97309 0.826 0.0
C1190 C 0.50361 0.02229 0.81019 0.0
C1191 C 0.4977 0.05348 0.80012 0.0
C1192 C 0.47565 0.05647 0.78341 0.0
C1193 C 0.46996 0.0859 0.77408 0.0
C1194 C 0.48626 0.11252 0.78125 0.0
C1195 C 0.50834 0.10976 0.79776 0.0
C1196 C 0.51411 0.08039 0.80715 0.0
C1197 C 0.62035 0.94009 0.82467 0.0
C1198 C 0.63797 0.96159 0.83693 0.0
C1199 C 0.5889 0.94671 0.81947 0.0
C1200 C 0.57473 0.97472 0.8267 0.0
C1201 C 0.59223 0.99581 0.83923 0.0
C1202 C 0.62346 0.98931 0.84431 0.0
C1203 C 0.54145 0.98235 0.8219 0.0
C1204 C 0.53472 0.01155 0.81232 0.0
C1205 C 0.5164 0.9625 0.82831 0.0
C1206 C 0.52191 0.93176 0.83894 0.0
C1207 C 0.53824 0.93016 0.8585 0.0
C1208 C 0.54338 0.90103 0.86838 0.0
C1209 C 0.53205 0.87337 0.85893 0.0
C1210 C 0.51546 0.87481 0.83963 0.0
C1211 C 0.51029 0.90389 0.82967 0.0
H1212 H 0.53604 0.85084 0.86661 0.0
H1213 H 0.48181 0.13528 0.77401 0.0
H1214 H 0.97921 0.38972 0.38885 0.0
H1215 H 0.99282 0.44585 0.39067 0.0
H1216 H 0.03645 0.43949 0.32839 0.0
H1217 H 0.02362 0.38332 0.3269 0.0
H1218 H 0.07254 0.47245 0.35405 0.0
H1219 H 0.9615 0.47147 0.33625 0.0
H1220 H 0.90539 0.45809 0.34142 0.0
H1221 H 0.90568 0.50586 0.40202 0.0
H1222 H 0.96193 0.51919 0.3973 0.0
H1223 H 0.05459 0.62488 0.30902 0.0
H1224 H 0.05884 0.56982 0.32033 0.0
H1225 H 0.02935 0.59588 0.38397 0.0
H1226 H 0.02466 0.65073 0.3727 0.0
H1227 H 0.98988 0.55371 0.36471 0.0
H1228 H 0.10003 0.56308 0.37769 0.0
H1229 H 0.15514 0.57775 0.37004 0.0
H1230 H 0.15584 0.51567 0.31576 0.0
H1231 H 0.10057 0.50094 0.32288 0.0
C1232 C 0.99139 0.40051 0.37551 0.0
C1233 C 0.00028 0.38243 0.35769 0.0
C1234 C -0.00073 0.43245 0.37657 0.0
C1235 C 0.01553 0.44687 0.35961 0.0
C1236 C 0.02414 0.42879 0.34174 0.0
C1237 C 0.01669 0.39683 0.34083 0.0
C1238 C 0.02319 0.48089 0.36012 0.0
C1239 C 0.05447 0.49027 0.35628 0.0
C1240 C -0.00023 0.50407 0.36367 0.0
C1241 C 0.966 0.49596 0.36655 0.0
C1242 C 0.94966 0.47888 0.35075 0.0
C1243 C 0.91783 0.47136 0.35359 0.0
C1244 C 0.90201 0.48102 0.37207 0.0
C1245 C 0.91798 0.49832 0.38774 0.0
C1246 C 0.94983 0.50587 0.38499 0.0
C1247 C 0.04991 0.61893 0.32556 0.0
C1248 C 0.03895 0.64198 0.33987 0.0
C1249 C 0.05257 0.58757 0.33206 0.0
C1250 C 0.04431 0.57887 0.35298 0.0
C1251 C 0.03589 0.60223 0.36778 0.0
C1252 C 0.0334 0.6336 0.36132 0.0
C1253 C 0.03907 0.5453 0.35808 0.0
C1254 C 0.00815 0.53595 0.36295 0.0
C1255 C 0.06273 0.52226 0.35514 0.0
C1256 C 0.09603 0.53104 0.35077 0.0
C1257 C 0.11183 0.55273 0.36402 0.0
C1258 C 0.14313 0.56102 0.3598 0.0
C1259 C 0.15897 0.54768 0.34241 0.0
C1260 C 0.14355 0.52598 0.32922 0.0
C1261 C 0.11224 0.51761 0.33337 0.0
H1262 H 0.1832 0.55413 0.33917 0.0
H1263 H 0.87736 0.47519 0.37423 0.0
loop_
_geom_bond_atom_site_label_1
_geom_bond_atom_site_label_2
_geom_bond_distance
_geom_bond_site_symmetry_2
_ccdc_geom_bond_type
C0 C1 1.351 . S
C0 N3 1.368 . S
C0 H5 0.931 . S
C1 C0 1.351 . S
C1 N2 1.373 . S
C1 H29 0.930 . S
N2 C1 1.373 . S
N2 C4 1.340 1_545 S
N3 C0 1.368 . S
N3 C4 1.321 1_545 S
N3 Co6 2.135 . S
C4 N2 1.340 1_565 S
C4 N3 1.321 1_565 S
C4 H28 0.930 . S
H5 C0 0.931 . S
Co6 N3 2.135 . S
Co6 N9 2.121 . S
Co6 O14 2.055 1_545 S
Co6 O17 2.039 1_545 S
Co6 N20 2.140 . S
C7 O8 1.227 . S
C7 O17 1.265 . S
O8 C7 1.227 . S
N9 Co6 2.121 . S
N9 C11 1.375 1_545 S
N9 C12 1.313 . S
C10 C11 1.339 . S
C10 N13 1.374 1_565 S
C10 H30 0.932 . S
C11 N9 1.375 1_565 S
C11 C10 1.339 . S
C11 H15 0.931 . S
C12 N9 1.313 . S
C12 N13 1.344 . S
C12 H16 0.930 . S
N13 C10 1.374 1_545 S
N13 C12 1.344 . S
O14 Co6 2.055 1_565 S
O14 C18 1.253 1_565 S
H15 C11 0.931 . S
H16 C12 0.930 . S
O17 Co6 2.039 1_565 S
O17 C7 1.265 . S
C18 O14 1.253 1_545 S
C18 O19 1.227 . S
O19 C18 1.227 . S
N20 Co6 2.140 . S
N20 C23 1.346 . S
N20 C24 1.345 . S
C21 C22 1.387 . S
C21 C25 1.391 . S
C22 C21 1.387 . S
C22 C23 1.369 . S
C22 H31 0.929 . S
C23 N20 1.346 . S
C23 C22 1.369 . S
C23 H26 0.928 . S
C24 N20 1.345 . S
C24 C25 1.371 . S
C24 H27 0.931 . S
C25 C21 1.391 . S
C25 C24 1.371 . S
C25 H32 0.930 . S
H26 C23 0.928 . S
H27 C24 0.931 . S
H28 C4 0.930 . S
H29 C1 0.930 . S
H30 C10 0.932 . S
H31 C22 0.929 . S
H32 C25 0.930 . S
C33 C34 1.351 . S
C33 N36 1.368 1_655 S
C33 H38 0.931 . S
C34 C33 1.351 . S
C34 N35 1.373 1_655 S
C34 H62 0.930 . S
N35 C34 1.373 1_455 S
N35 C37 1.340 . S
N36 C33 1.368 1_455 S
N36 C37 1.321 . S
N36 Co39 2.135 . S
C37 N35 1.340 . S
C37 N36 1.321 . S
C37 H61 0.930 . S
H38 C33 0.931 . S
Co39 N36 2.135 . S
Co39 N42 2.121 . S
Co39 O47 2.055 . S
Co39 O50 2.039 . S
Co39 N53 2.140 1_455 S
C40 O41 1.227 . S
C40 O50 1.265 . S
O41 C40 1.227 . S
N42 Co39 2.121 . S
N42 C44 1.375 . S
N42 C45 1.313 . S
C43 C44 1.338 . S
C43 N46 1.377 . S
C43 H63 0.930 . S
C44 N42 1.375 . S
C44 C43 1.338 . S
C44 H48 0.931 . S
C45 N42 1.313 . S
C45 N46 1.344 . S
C45 H49 0.930 . S
N46 C43 1.377 . S
N46 C45 1.344 . S
O47 Co39 2.055 . S
O47 C51 1.253 . S
H48 C44 0.931 . S
H49 C45 0.930 . S
O50 Co39 2.039 . S
O50 C40 1.265 . S
C51 O47 1.253 . S
C51 O52 1.227 1_455 S
O52 C51 1.227 1_655 S
N53 Co39 2.140 1_655 S
N53 C56 1.346 . S
N53 C57 1.345 . S
C54 C55 1.387 . S
C54 C58 1.391 . S
C55 C54 1.387 . S
C55 C56 1.369 . S
C55 H64 0.929 . S
C56 N53 1.346 . S
C56 C55 1.369 . S
C56 H59 0.928 . S
C57 N53 1.345 . S
C57 C58 1.371 . S
C57 H60 0.931 . S
C58 C54 1.391 . S
C58 C57 1.371 . S
C58 H65 0.930 . S
H59 C56 0.928 . S
H60 C57 0.931 . S
H61 C37 0.930 . S
H62 C34 0.930 . S
H63 C43 0.930 . S
H64 C55 0.929 . S
H65 C58 0.930 . S
C66 C67 1.351 . S
C66 N69 1.368 1_565 S
C66 H71 0.931 . S
C67 C66 1.351 . S
C67 N68 1.373 1_565 S
C67 H95 0.930 . S
N68 C67 1.373 1_545 S
N68 C70 1.340 . S
N69 C66 1.368 1_545 S
N69 C70 1.321 . S
N69 Co72 2.135 . S
C70 N68 1.340 . S
C70 N69 1.321 . S
C70 H94 0.930 . S
H71 C66 0.931 . S
Co72 N69 2.135 . S
Co72 N75 2.121 . S
Co72 O80 2.055 . S
Co72 O83 2.039 . S
Co72 N86 2.140 1_545 S
C73 O74 1.227 . S
C73 O83 1.265 . S
O74 C73 1.227 . S
N75 Co72 2.121 . S
N75 C77 1.375 . S
N75 C78 1.313 . S
C76 C77 1.338 . S
C76 N79 1.377 . S
C76 H96 0.930 . S
C77 N75 1.375 . S
C77 C76 1.338 . S
C77 H81 0.931 . S
C78 N75 1.313 . S
C78 N79 1.344 . S
C78 H82 0.930 . S
N79 C76 1.377 . S
N79 C78 1.344 . S
O80 Co72 2.055 . S
O80 C84 1.253 . S
H81 C77 0.931 . S
H82 C78 0.930 . S
O83 Co72 2.039 . S
O83 C73 1.265 . S
C84 O80 1.253 . S
C84 O85 1.227 1_545 S
O85 C84 1.227 1_565 S
N86 Co72 2.140 1_565 S
N86 C89 1.346 . S
N86 C90 1.345 . S
C87 C88 1.387 . S
C87 C91 1.391 . S
C88 C87 1.387 . S
C88 C89 1.369 . S
C88 H97 0.929 . S
C89 N86 1.346 . S
C89 C88 1.369 . S
C89 H92 0.928 . S
C90 N86 1.345 . S
C90 C91 1.371 . S
C90 H93 0.931 . S
C91 C87 1.391 . S
C91 C90 1.371 . S
C91 H98 0.930 . S
H92 C89 0.928 . S
H93 C90 0.931 . S
H94 C70 0.930 . S
H95 C67 0.930 . S
H96 C76 0.930 . S
H97 C88 0.929 . S
H98 C91 0.930 . S
C99 C100 1.351 . S
C99 N102 1.368 . S
C99 H104 0.931 . S
C100 C99 1.351 . S
C100 N101 1.373 . S
C100 H128 0.930 . S
N101 C100 1.373 . S
N101 C103 1.340 1_455 S
N102 C99 1.368 . S
N102 C103 1.321 1_455 S
N102 Co105 2.135 . S
C103 N101 1.340 1_655 S
C103 N102 1.321 1_655 S
C103 H127 0.930 . S
H104 C99 0.931 . S
Co105 N102 2.135 . S
Co105 N108 2.121 . S
Co105 O113 2.055 1_455 S
Co105 O116 2.039 1_455 S
Co105 N119 2.140 . S
C106 O107 1.227 . S
C106 O116 1.265 . S
O107 C106 1.227 . S
N108 Co105 2.121 . S
N108 C110 1.375 1_455 S
N108 C111 1.313 . S
C109 C110 1.340 . S
C109 N112 1.373 1_655 S
C109 H129 0.932 . S
C110 N108 1.375 1_655 S
C110 C109 1.340 . S
C110 H114 0.931 . S
C111 N108 1.313 . S
C111 N112 1.344 . S
C111 H115 0.930 . S
N112 C109 1.373 1_455 S
N112 C111 1.344 . S
O113 Co105 2.055 1_655 S
O113 C117 1.253 1_655 S
H114 C110 0.931 . S
H115 C111 0.930 . S
O116 Co105 2.039 1_655 S
O116 C106 1.265 . S
C117 O113 1.253 1_455 S
C117 O118 1.227 . S
O118 C117 1.227 . S
N119 Co105 2.140 . S
N119 C122 1.346 . S
N119 C123 1.345 . S
C120 C121 1.387 . S
C120 C124 1.391 . S
C121 C120 1.387 . S
C121 C122 1.369 . S
C121 H130 0.929 . S
C122 N119 1.346 . S
C122 C121 1.369 . S
C122 H125 0.928 . S
C123 N119 1.345 . S
C123 C124 1.371 . S
C123 H126 0.931 . S
C124 C120 1.391 . S
C124 C123 1.371 . S
C124 H131 0.930 . S
H125 C122 0.928 . S
H126 C123 0.931 . S
H127 C103 0.930 . S
H128 C100 0.930 . S
H129 C109 0.932 . S
H130 C121 0.929 . S
H131 C124 0.930 . S
C132 C133 1.351 . S
C132 N135 1.368 1_565 S
C132 H137 0.931 . S
C133 C132 1.351 . S
C133 N134 1.373 1_565 S
C133 H161 0.930 . S
N134 C133 1.373 1_545 S
N134 C136 1.340 . S
N135 C132 1.368 1_545 S
N135 C136 1.321 . S
N135 Co138 2.135 . S
C136 N134 1.340 . S
C136 N135 1.321 . S
C136 H160 0.930 . S
H137 C132 0.931 . S
Co138 N135 2.135 . S
Co138 N141 2.121 . S
Co138 O146 2.055 . S
Co138 O149 2.039 . S
Co138 N152 2.140 1_545 S
C139 O140 1.227 . S
C139 O149 1.265 . S
O140 C139 1.227 . S
N141 Co138 2.121 . S
N141 C143 1.375 . S
N141 C144 1.313 . S
C142 C143 1.338 . S
C142 N145 1.377 . S
C142 H162 0.930 . S
C143 N141 1.375 . S
C143 C142 1.338 . S
C143 H147 0.931 . S
C144 N141 1.313 . S
C144 N145 1.344 . S
C144 H148 0.930 . S
N145 C142 1.377 . S
N145 C144 1.344 . S
O146 Co138 2.055 . S
O146 C150 1.253 . S
H147 C143 0.931 . S
H148 C144 0.930 . S
O149 Co138 2.039 . S
O149 C139 1.265 . S
C150 O146 1.253 . S
C150 O151 1.227 1_545 S
O151 C150 1.227 1_565 S
N152 Co138 2.140 1_565 S
N152 C155 1.346 . S
N152 C156 1.345 . S
C153 C154 1.387 . S
C153 C157 1.391 . S
C154 C153 1.387 . S
C154 C155 1.369 . S
C154 H163 0.929 . S
C155 N152 1.346 . S
C155 C154 1.369 . S
C155 H158 0.928 . S
C156 N152 1.345 . S
C156 C157 1.371 . S
C156 H159 0.931 . S
C157 C153 1.391 . S
C157 C156 1.371 . S
C157 H164 0.930 . S
H158 C155 0.928 . S
H159 C156 0.931 . S
H160 C136 0.930 . S
H161 C133 0.930 . S
H162 C142 0.930 . S
H163 C154 0.929 . S
H164 C157 0.930 . S
C165 C166 1.351 . S
C165 N168 1.368 . S
C165 H170 0.931 . S
C166 C165 1.351 . S
C166 N167 1.373 . S
C166 H194 0.930 . S
N167 C166 1.373 . S
N167 C169 1.340 1_455 S
N168 C165 1.368 . S
N168 C169 1.321 1_455 S
N168 Co171 2.135 . S
C169 N167 1.340 1_655 S
C169 N168 1.321 1_655 S
C169 H193 0.930 . S
H170 C165 0.931 . S
Co171 N168 2.135 . S
Co171 N174 2.121 . S
Co171 O179 2.055 1_455 S
Co171 O182 2.039 1_455 S
Co171 N185 2.140 . S
C172 O173 1.227 . S
C172 O182 1.265 . S
O173 C172 1.227 . S
N174 Co171 2.121 . S
N174 C176 1.375 1_455 S
N174 C177 1.313 . S
C175 C176 1.339 . S
C175 N178 1.374 1_655 S
C175 H195 0.932 . S
C176 N174 1.375 1_655 S
C176 C175 1.339 . S
C176 H180 0.931 . S
C177 N174 1.313 . S
C177 N178 1.344 . S
C177 H181 0.930 . S
N178 C175 1.374 1_455 S
N178 C177 1.344 . S
O179 Co171 2.055 1_655 S
O179 C183 1.253 1_655 S
H180 C176 0.931 . S
H181 C177 0.930 . S
O182 Co171 2.039 1_655 S
O182 C172 1.265 . S
C183 O179 1.253 1_455 S
C183 O184 1.227 . S
O184 C183 1.227 . S
N185 Co171 2.140 . S
N185 C188 1.346 . S
N185 C189 1.345 . S
C186 C187 1.387 . S
C186 C190 1.391 . S
C187 C186 1.387 . S
C187 C188 1.369 . S
C187 H196 0.929 . S
C188 N185 1.346 . S
C188 C187 1.369 . S
C188 H191 0.928 . S
C189 N185 1.345 . S
C189 C190 1.371 . S
C189 H192 0.931 . S
C190 C186 1.391 . S
C190 C189 1.371 . S
C190 H197 0.930 . S
H191 C188 0.928 . S
H192 C189 0.931 . S
H193 C169 0.930 . S
H194 C166 0.930 . S
H195 C175 0.932 . S
H196 C187 0.929 . S
H197 C190 0.930 . S
C198 C199 1.351 . S
C198 N201 1.368 . S
C198 H203 0.931 . S
C199 C198 1.351 . S
C199 N200 1.373 . S
C199 H227 0.930 . S
N200 C199 1.373 . S
N200 C202 1.340 1_545 S
N201 C198 1.368 . S
N201 C202 1.321 1_545 S
N201 Co204 2.135 . S
C202 N200 1.340 1_565 S
C202 N201 1.321 1_565 S
C202 H226 0.930 . S
H203 C198 0.931 . S
Co204 N201 2.135 . S
Co204 N207 2.121 . S
Co204 O212 2.055 1_545 S
Co204 O215 2.039 1_545 S
Co204 N218 2.140 . S
C205 O206 1.227 . S
C205 O215 1.265 . S
O206 C205 1.227 . S
N207 Co204 2.121 . S
N207 C209 1.375 1_545 S
N207 C210 1.313 . S
C208 C209 1.340 . S
C208 N211 1.373 1_565 S
C208 H228 0.932 . S
C209 N207 1.375 1_565 S
C209 C208 1.340 . S
C209 H213 0.931 . S
C210 N207 1.313 . S
C210 N211 1.344 . S
C210 H214 0.930 . S
N211 C208 1.373 1_545 S
N211 C210 1.344 . S
O212 Co204 2.055 1_565 S
O212 C216 1.253 1_565 S
H213 C209 0.931 . S
H214 C210 0.930 . S
O215 Co204 2.039 1_565 S
O215 C205 1.265 . S
C216 O212 1.253 1_545 S
C216 O217 1.227 . S
O217 C216 1.227 . S
N218 Co204 2.140 . S
N218 C221 1.346 . S
N218 C222 1.345 . S
C219 C220 1.387 . S
C219 C223 1.391 . S
C220 C219 1.387 . S
C220 C221 1.369 . S
C220 H229 0.929 . S
C221 N218 1.346 . S
C221 C220 1.369 . S
C221 H224 0.928 . S
C222 N218 1.345 . S
C222 C223 1.371 . S
C222 H225 0.931 . S
C223 C219 1.391 . S
C223 C222 1.371 . S
C223 H230 0.930 . S
H224 C221 0.928 . S
H225 C222 0.931 . S
H226 C202 0.930 . S
H227 C199 0.930 . S
H228 C208 0.932 . S
H229 C220 0.929 . S
H230 C223 0.930 . S
C231 C232 1.351 . S
C231 N234 1.368 1_655 S
C231 H236 0.931 . S
C232 C231 1.351 . S
C232 N233 1.373 1_655 S
C232 H260 0.930 . S
N233 C232 1.373 1_455 S
N233 C235 1.340 . S
N234 C231 1.368 1_455 S
N234 C235 1.321 . S
N234 Co237 2.135 . S
C235 N233 1.340 . S
C235 N234 1.321 . S
C235 H259 0.930 . S
H236 C231 0.931 . S
Co237 N234 2.135 . S
Co237 N240 2.121 . S
Co237 O245 2.055 . S
Co237 O248 2.039 . S
Co237 N251 2.140 1_455 S
C238 O239 1.227 . S
C238 O248 1.265 . S
O239 C238 1.227 . S
N240 Co237 2.121 . S
N240 C242 1.375 . S
N240 C243 1.313 . S
C241 C242 1.338 . S
C241 N244 1.377 . S
C241 H261 0.930 . S
C242 N240 1.375 . S
C242 C241 1.338 . S
C242 H246 0.931 . S
C243 N240 1.313 . S
C243 N244 1.344 . S
C243 H247 0.930 . S
N244 C241 1.377 . S
N244 C243 1.344 . S
O245 Co237 2.055 . S
O245 C249 1.253 . S
H246 C242 0.931 . S
H247 C243 0.930 . S
O248 Co237 2.039 . S
O248 C238 1.265 . S
C249 O245 1.253 . S
C249 O250 1.227 1_455 S
O250 C249 1.227 1_655 S
N251 Co237 2.140 1_655 S
N251 C254 1.346 . S
N251 C255 1.345 . S
C252 C253 1.387 . S
C252 C256 1.391 . S
C253 C252 1.387 . S
C253 C254 1.369 . S
C253 H262 0.929 . S
C254 N251 1.346 . S
C254 C253 1.369 . S
C254 H257 0.928 . S
C255 N251 1.345 . S
C255 C256 1.371 . S
C255 H258 0.931 . S
C256 C252 1.391 . S
C256 C255 1.371 . S
C256 H263 0.930 . S
H257 C254 0.928 . S
H258 C255 0.931 . S
H259 C235 0.930 . S
H260 C232 0.930 . S
H261 C241 0.930 . S
H262 C253 0.929 . S
H263 C256 0.930 . S
H264 C282 0.951 . S
H265 C284 0.951 . S
H266 C286 0.950 . S
H267 C287 0.950 . S
H268 C289 0.950 . S
H269 C292 0.950 . S
H270 C293 0.950 . S
H271 C295 0.950 . S
H272 C296 0.950 . S
H273 C297 0.951 . S
H274 C299 0.951 . S
H275 C301 0.950 . S
H276 C302 0.950 . S
H277 C304 0.950 . S
H278 C307 0.950 . S
H279 C308 0.950 . S
H280 C310 0.950 . S
H281 C311 0.950 . S
C282 H264 0.951 . S
C282 C283 1.366 1_565 S
C282 C284 1.388 . S
C283 C282 1.366 1_545 S
C283 C287 1.385 . S
C284 H265 0.951 . S
C284 C282 1.388 . S
C284 C285 1.366 1_565 S
C285 C284 1.366 1_545 S
C285 C286 1.414 . S
C285 C288 1.499 . S
C286 H266 0.950 . S
C286 C285 1.414 . S
C286 C287 1.374 . S
C287 H267 0.950 . S
C287 C283 1.385 . S
C287 C286 1.374 . S
C288 C285 1.499 . S
C288 C289 1.373 . S
C288 C290 1.389 1_545 S
C289 H268 0.950 . S
C289 C288 1.373 . S
C289 C305 1.377 1_554 S
C290 C288 1.389 1_565 S
C290 C291 1.524 . S
C290 C304 1.377 1_554 S
C291 C290 1.524 . S
C291 C292 1.397 . S
C291 C296 1.363 . S
C292 H269 0.950 . S
C292 C291 1.397 . S
C292 C293 1.334 . S
C293 H270 0.950 . S
C293 C292 1.334 . S
C293 C294 1.287 . S
C294 C293 1.287 . S
C294 C295 1.524 . S
C294 H313 0.913 . S
C295 H271 0.950 . S
C295 C294 1.524 . S
C295 C296 1.415 . S
C296 H272 0.950 . S
C296 C291 1.363 . S
C296 C295 1.415 . S
C297 H273 0.951 . S
C297 C298 1.366 . S
C297 C299 1.388 . S
C298 C297 1.366 . S
C298 C302 1.385 1_545 S
C299 H274 0.951 . S
C299 C297 1.388 . S
C299 C300 1.366 . S
C300 C299 1.366 . S
C300 C301 1.414 1_545 S
C300 C303 1.499 . S
C301 H275 0.950 . S
C301 C300 1.414 1_565 S
C301 C302 1.374 . S
C302 H276 0.950 . S
C302 C298 1.385 1_565 S
C302 C301 1.374 . S
C303 C300 1.499 . S
C303 C304 1.373 1_545 S
C303 C305 1.389 . S
C304 H277 0.950 . S
C304 C290 1.377 1_556 S
C304 C303 1.373 1_565 S
C305 C289 1.377 1_556 S
C305 C303 1.389 . S
C305 C306 1.524 . S
C306 C305 1.524 . S
C306 C307 1.397 . S
C306 C311 1.363 . S
C307 H278 0.950 . S
C307 C306 1.397 . S
C307 C308 1.334 . S
C308 H279 0.950 . S
C308 C307 1.334 . S
C308 C309 1.287 . S
C309 C308 1.287 . S
C309 C310 1.524 . S
C309 H312 0.999 . S
C310 H280 0.950 . S
C310 C309 1.524 . S
C310 C311 1.415 . S
C311 H281 0.950 . S
C311 C306 1.363 . S
C311 C310 1.415 . S
H312 C309 0.999 . S
H313 C294 0.913 . S
H314 C332 0.951 . S
H315 C334 0.951 . S
H316 C336 0.950 . S
H317 C337 0.950 . S
H318 C339 0.950 . S
H319 C342 0.950 . S
H320 C343 0.950 . S
H321 C345 0.950 . S
H322 C346 0.950 . S
H323 C347 0.951 . S
H324 C349 0.951 . S
H325 C351 0.950 . S
H326 C352 0.950 . S
H327 C354 0.950 . S
H328 C357 0.950 . S
H329 C358 0.950 . S
H330 C360 0.950 . S
H331 C361 0.950 . S
C332 H314 0.951 . S
C332 C333 1.366 . S
C332 C334 1.388 . S
C333 C332 1.366 . S
C333 C337 1.385 1_455 S
C334 H315 0.951 . S
C334 C332 1.388 . S
C334 C335 1.366 . S
C335 C334 1.366 . S
C335 C336 1.414 1_455 S
C335 C338 1.499 . S
C336 H316 0.950 . S
C336 C335 1.414 1_655 S
C336 C337 1.374 . S
C337 H317 0.950 . S
C337 C333 1.385 1_655 S
C337 C336 1.374 . S
C338 C335 1.499 . S
C338 C339 1.373 1_455 S
C338 C340 1.389 . S
C339 H318 0.950 . S
C339 C338 1.373 1_655 S
C339 C355 1.377 . S
C340 C338 1.389 . S
C340 C341 1.524 . S
C340 C354 1.377 . S
C341 C340 1.524 . S
C341 C342 1.397 . S
C341 C346 1.363 . S
C342 H319 0.950 . S
C342 C341 1.397 . S
C342 C343 1.334 . S
C343 H320 0.950 . S
C343 C342 1.334 . S
C343 C344 1.287 . S
C344 C343 1.287 . S
C344 C345 1.524 . S
C344 H363 0.913 . S
C345 H321 0.950 . S
C345 C344 1.524 . S
C345 C346 1.415 . S
C346 H322 0.950 . S
C346 C341 1.363 . S
C346 C345 1.415 . S
C347 H323 0.951 . S
C347 C348 1.366 1_655 S
C347 C349 1.388 . S
C348 C347 1.366 1_455 S
C348 C352 1.385 . S
C349 H324 0.951 . S
C349 C347 1.388 . S
C349 C350 1.366 1_655 S
C350 C349 1.366 1_455 S
C350 C351 1.414 . S
C350 C353 1.499 . S
C351 H325 0.950 . S
C351 C350 1.414 . S
C351 C352 1.374 . S
C352 H326 0.950 . S
C352 C348 1.385 . S
C352 C351 1.374 . S
C353 C350 1.499 . S
C353 C354 1.373 . S
C353 C355 1.389 1_455 S
C354 H327 0.950 . S
C354 C340 1.377 . S
C354 C353 1.373 . S
C355 C339 1.377 . S
C355 C353 1.389 1_655 S
C355 C356 1.524 . S
C356 C355 1.524 . S
C356 C357 1.397 . S
C356 C361 1.363 . S
C357 H328 0.950 . S
C357 C356 1.397 . S
C357 C358 1.334 . S
C358 H329 0.950 . S
C358 C357 1.334 . S
C358 C359 1.287 . S
C359 C358 1.287 . S
C359 C360 1.524 . S
C359 H362 0.999 . S
C360 H330 0.950 . S
C360 C359 1.524 . S
C360 C361 1.415 . S
C361 H331 0.950 . S
C361 C356 1.363 . S
C361 C360 1.415 . S
H362 C359 0.999 . S
H363 C344 0.913 . S
H364 C382 0.951 . S
H365 C384 0.951 . S
H366 C386 0.950 . S
H367 C387 0.950 . S
H368 C389 0.950 . S
H369 C392 0.950 . S
H370 C393 0.950 . S
H371 C395 0.950 . S
H372 C396 0.950 . S
H373 C397 0.949 1_565 S
H374 C399 0.961 . S
H375 C401 0.950 . S
H376 C402 0.950 . S
H377 C404 0.950 . S
H378 C407 0.950 . S
H379 C408 0.950 . S
H380 C410 0.950 . S
H381 C411 0.950 1_565 S
C382 H364 0.951 . S
C382 C383 1.366 . S
C382 C384 1.388 . S
C383 C382 1.366 . S
C383 C387 1.385 1_545 S
C384 H365 0.951 . S
C384 C382 1.388 . S
C384 C385 1.366 . S
C385 C384 1.366 . S
C385 C386 1.414 1_545 S
C385 C388 1.499 . S
C386 H366 0.950 . S
C386 C385 1.414 1_565 S
C386 C387 1.374 . S
C387 H367 0.950 . S
C387 C383 1.385 1_565 S
C387 C386 1.374 . S
C388 C385 1.499 . S
C388 C389 1.373 . S
C388 C390 1.389 . S
C389 H368 0.950 . S
C389 C388 1.373 . S
C389 C405 1.377 1_554 S
C390 C388 1.389 . S
C390 C391 1.524 1_545 S
C390 C404 1.377 1_554 S
C391 C390 1.524 1_565 S
C391 C392 1.397 . S
C391 C396 1.363 1_565 S
C392 H369 0.950 . S
C392 C391 1.397 . S
C392 C393 1.334 . S
C393 H370 0.950 . S
C393 C392 1.334 . S
C393 C394 1.287 . S
C394 C393 1.287 . S
C394 C395 1.524 1_565 S
C394 H413 0.913 . S
C395 H371 0.950 . S
C395 C394 1.524 1_545 S
C395 C396 1.415 . S
C396 H372 0.950 . S
C396 C391 1.363 1_545 S
C396 C395 1.415 . S
C397 H373 0.949 1_545 S
C397 C398 1.368 . S
C397 C399 1.388 1_545 S
C398 C397 1.368 . S
C398 C402 1.385 . S
C399 H374 0.961 . S
C399 C397 1.388 1_565 S
C399 C400 1.356 1_565 S
C400 C399 1.356 1_545 S
C400 C401 1.414 . S
C400 C403 1.499 . S
C401 H375 0.950 . S
C401 C400 1.414 . S
C401 C402 1.374 . S
C402 H376 0.950 . S
C402 C398 1.385 . S
C402 C401 1.374 . S
C403 C400 1.499 . S
C403 C404 1.373 . S
C403 C405 1.389 . S
C404 H377 0.950 . S
C404 C390 1.377 1_556 S
C404 C403 1.373 . S
C405 C389 1.377 1_556 S
C405 C403 1.389 . S
C405 C406 1.524 . S
C406 C405 1.524 . S
C406 C407 1.397 . S
C406 C411 1.363 . S
C407 H378 0.950 . S
C407 C406 1.397 . S
C407 C408 1.334 . S
C408 H379 0.950 . S
C408 C407 1.334 . S
C408 C409 1.287 . S
C409 C408 1.287 . S
C409 C410 1.524 . S
C409 H412 0.999 . S
C410 H380 0.950 . S
C410 C409 1.524 . S
C410 C411 1.415 . S
C411 H381 0.950 1_545 S
C411 C406 1.363 . S
C411 C410 1.415 . S
H412 C409 0.999 . S
H413 C394 0.913 . S
H414 C432 0.951 . S
H415 C434 0.951 . S
H416 C436 0.950 . S
H417 C437 0.950 . S
H418 C439 0.950 . S
H419 C442 0.950 . S
H420 C443 0.950 . S
H421 C445 0.950 . S
H422 C446 0.950 1_455 S
H423 C447 0.946 1_655 S
H424 C449 0.951 1_655 S
H425 C451 0.950 . S
H426 C452 0.950 . S
H427 C454 0.950 1_655 S
H428 C457 0.950 . S
H429 C458 0.950 . S
H430 C460 0.950 . S
H431 C461 0.950 . S
C432 H414 0.951 . S
C432 C433 1.366 . S
C432 C434 1.388 . S
C433 C432 1.366 . S
C433 C437 1.385 1_455 S
C434 H415 0.951 . S
C434 C432 1.388 . S
C434 C435 1.366 . S
C435 C434 1.366 . S
C435 C436 1.414 1_455 S
C435 C438 1.499 . S
C436 H416 0.950 . S
C436 C435 1.414 1_655 S
C436 C437 1.374 . S
C437 H417 0.950 . S
C437 C433 1.385 1_655 S
C437 C436 1.374 . S
C438 C435 1.499 . S
C438 C439 1.373 . S
C438 C440 1.386 1_455 S
C439 H418 0.950 . S
C439 C438 1.373 . S
C439 C455 1.377 . S
C440 C438 1.386 1_655 S
C440 C441 1.530 . S
C440 C454 1.375 1_655 S
C441 C440 1.530 . S
C441 C442 1.397 . S
C441 C446 1.363 . S
C442 H419 0.950 . S
C442 C441 1.397 . S
C442 C443 1.334 . S
C443 H420 0.950 . S
C443 C442 1.334 . S
C443 C444 1.287 . S
C444 C443 1.287 . S
C444 C445 1.524 . S
C444 H463 0.913 . S
C445 H421 0.950 . S
C445 C444 1.524 . S
C445 C446 1.415 . S
C446 H422 0.950 1_655 S
C446 C441 1.363 . S
C446 C445 1.415 . S
C447 H423 0.946 1_455 S
C447 C448 1.366 . S
C447 C449 1.388 . S
C448 C447 1.366 . S
C448 C452 1.385 . S
C449 H424 0.951 1_455 S
C449 C447 1.388 . S
C449 C450 1.366 . S
C450 C449 1.366 . S
C450 C451 1.414 . S
C450 C453 1.499 . S
C451 H425 0.950 . S
C451 C450 1.414 . S
C451 C452 1.374 . S
C452 H426 0.950 . S
C452 C448 1.385 . S
C452 C451 1.374 . S
C453 C450 1.499 . S
C453 C454 1.373 . S
C453 C455 1.389 . S
C454 H427 0.950 1_455 S
C454 C440 1.375 1_455 S
C454 C453 1.373 . S
C455 C439 1.377 . S
C455 C453 1.389 . S
C455 C456 1.524 . S
C456 C455 1.524 . S
C456 C457 1.397 . S
C456 C461 1.363 . S
C457 H428 0.950 . S
C457 C456 1.397 . S
C457 C458 1.334 . S
C458 H429 0.950 . S
C458 C457 1.334 . S
C458 C459 1.287 . S
C459 C458 1.287 . S
C459 C460 1.524 . S
C459 H462 0.999 . S
C460 H430 0.950 . S
C460 C459 1.524 . S
C460 C461 1.415 . S
C461 H431 0.950 . S
C461 C456 1.363 . S
C461 C460 1.415 . S
H462 C459 0.999 . S
H463 C444 0.913 . S
H464 C482 0.951 . S
H465 C484 0.951 . S
H466 C486 0.950 . S
H467 C487 0.950 . S
H468 C489 0.950 . S
H469 C492 0.950 . S
H470 C493 0.950 . S
H471 C495 0.950 . S
H472 C496 0.950 . S
H473 C497 0.951 . S
H474 C499 0.951 . S
H475 C501 0.950 . S
H476 C502 0.950 . S
H477 C504 0.950 . S
H478 C507 0.950 . S
H479 C508 0.950 . S
H480 C510 0.950 . S
H481 C511 0.950 . S
C482 H464 0.951 . S
C482 C483 1.366 . S
C482 C484 1.388 . S
C483 C482 1.366 . S
C483 C487 1.385 . S
C484 H465 0.951 . S
C484 C482 1.388 . S
C484 C485 1.366 . S
C485 C484 1.366 . S
C485 C486 1.414 . S
C485 C488 1.499 . S
C486 H466 0.950 . S
C486 C485 1.414 . S
C486 C487 1.374 . S
C487 H467 0.950 . S
C487 C483 1.385 . S
C487 C486 1.374 . S
C488 C485 1.499 . S
C488 C489 1.373 . S
C488 C490 1.389 . S
C489 H468 0.950 . S
C489 C488 1.373 . S
C489 C505 1.377 . S
C490 C488 1.389 . S
C490 C491 1.524 . S
C490 C504 1.377 . S
C491 C490 1.524 . S
C491 C492 1.397 . S
C491 C496 1.363 . S
C492 H469 0.950 . S
C492 C491 1.397 . S
C492 C493 1.334 . S
C493 H470 0.950 . S
C493 C492 1.334 . S
C493 C494 1.287 . S
C494 C493 1.287 . S
C494 C495 1.524 . S
C494 H513 0.913 . S
C495 H471 0.950 . S
C495 C494 1.524 . S
C495 C496 1.415 . S
C496 H472 0.950 . S
C496 C491 1.363 . S
C496 C495 1.415 . S
C497 H473 0.951 . S
C497 C498 1.366 . S
C497 C499 1.388 . S
C498 C497 1.366 . S
C498 C502 1.385 . S
C499 H474 0.951 . S
C499 C497 1.388 . S
C499 C500 1.366 . S
C500 C499 1.366 . S
C500 C501 1.414 . S
C500 C503 1.499 . S
C501 H475 0.950 . S
C501 C500 1.414 . S
C501 C502 1.374 . S
C502 H476 0.950 . S
C502 C498 1.385 . S
C502 C501 1.374 . S
C503 C500 1.499 . S
C503 C504 1.373 . S
C503 C505 1.389 . S
C504 H477 0.950 . S
C504 C490 1.377 . S
C504 C503 1.373 . S
C505 C489 1.377 . S
C505 C503 1.389 . S
C505 C506 1.524 . S
C506 C505 1.524 . S
C506 C507 1.397 . S
C506 C511 1.363 . S
C507 H478 0.950 . S
C507 C506 1.397 . S
C507 C508 1.334 . S
C508 H479 0.950 . S
C508 C507 1.334 . S
C508 C509 1.287 . S
C509 C508 1.287 . S
C509 C510 1.524 . S
C509 H512 0.999 . S
C510 H480 0.950 . S
C510 C509 1.524 . S
C510 C511 1.415 . S
C511 H481 0.950 . S
C511 C506 1.363 . S
C511 C510 1.415 . S
H512 C509 0.999 . S
H513 C494 0.913 . S
H514 C532 0.951 . S
H515 C534 0.951 . S
H516 C536 0.950 . S
H517 C537 0.950 . S
H518 C539 0.950 . S
H519 C542 0.950 . S
H520 C543 0.950 . S
H521 C545 0.950 . S
H522 C546 0.950 . S
H523 C547 0.951 . S
H524 C549 0.951 . S
H525 C551 0.950 . S
H526 C552 0.950 . S
H527 C554 0.950 . S
H528 C557 0.950 . S
H529 C558 0.950 . S
H530 C560 0.950 . S
H531 C561 0.950 . S
C532 H514 0.951 . S
C532 C533 1.366 . S
C532 C534 1.388 . S
C533 C532 1.366 . S
C533 C537 1.385 . S
C534 H515 0.951 . S
C534 C532 1.388 . S
C534 C535 1.366 . S
C535 C534 1.366 . S
C535 C536 1.414 . S
C535 C538 1.499 . S
C536 H516 0.950 . S
C536 C535 1.414 . S
C536 C537 1.374 . S
C537 H517 0.950 . S
C537 C533 1.385 . S
C537 C536 1.374 . S
C538 C535 1.499 . S
C538 C539 1.373 . S
C538 C540 1.389 . S
C539 H518 0.950 . S
C539 C538 1.373 . S
C539 C555 1.377 . S
C540 C538 1.389 . S
C540 C541 1.524 . S
C540 C554 1.377 . S
C541 C540 1.524 . S
C541 C542 1.397 . S
C541 C546 1.363 . S
C542 H519 0.950 . S
C542 C541 1.397 . S
C542 C543 1.334 . S
C543 H520 0.950 . S
C543 C542 1.334 . S
C543 C544 1.287 . S
C544 C543 1.287 . S
C544 C545 1.524 . S
C544 H563 0.913 . S
C545 H521 0.950 . S
C545 C544 1.524 . S
C545 C546 1.415 . S
C546 H522 0.950 . S
C546 C541 1.363 . S
C546 C545 1.415 . S
C547 H523 0.951 . S
C547 C548 1.366 . S
C547 C549 1.388 . S
C548 C547 1.366 . S
C548 C552 1.385 . S
C549 H524 0.951 . S
C549 C547 1.388 . S
C549 C550 1.366 . S
C550 C549 1.366 . S
C550 C551 1.414 . S
C550 C553 1.499 . S
C551 H525 0.950 . S
C551 C550 1.414 . S
C551 C552 1.374 . S
C552 H526 0.950 . S
C552 C548 1.385 . S
C552 C551 1.374 . S
C553 C550 1.499 . S
C553 C554 1.373 . S
C553 C555 1.389 . S
C554 H527 0.950 . S
C554 C540 1.377 . S
C554 C553 1.373 . S
C555 C539 1.377 . S
C555 C553 1.389 . S
C555 C556 1.524 . S
C556 C555 1.524 . S
C556 C557 1.397 . S
C556 C561 1.363 . S
C557 H528 0.950 . S
C557 C556 1.397 . S
C557 C558 1.334 . S
C558 H529 0.950 . S
C558 C557 1.334 . S
C558 C559 1.287 . S
C559 C558 1.287 . S
C559 C560 1.524 . S
C559 H562 0.999 . S
C560 H530 0.950 . S
C560 C559 1.524 . S
C560 C561 1.415 . S
C561 H531 0.950 . S
C561 C556 1.363 . S
C561 C560 1.415 . S
H562 C559 0.999 . S
H563 C544 0.913 . S
H564 C582 0.951 . S
H565 C584 0.951 . S
H566 C586 0.950 . S
H567 C587 0.950 . S
H568 C589 0.950 . S
H569 C592 0.950 . S
H570 C593 0.950 . S
H571 C595 0.950 . S
H572 C596 0.950 . S
H573 C597 0.951 . S
H574 C599 0.951 . S
H575 C601 0.950 . S
H576 C602 0.950 . S
H577 C604 0.950 . S
H578 C607 0.950 . S
H579 C608 0.950 . S
H580 C610 0.950 . S
H581 C611 0.950 . S
C582 H564 0.951 . S
C582 C583 1.366 . S
C582 C584 1.388 . S
C583 C582 1.366 . S
C583 C587 1.385 . S
C584 H565 0.951 . S
C584 C582 1.388 . S
C584 C585 1.366 . S
C585 C584 1.366 . S
C585 C586 1.414 . S
C585 C588 1.499 . S
C586 H566 0.950 . S
C586 C585 1.414 . S
C586 C587 1.374 . S
C587 H567 0.950 . S
C587 C583 1.385 . S
C587 C586 1.374 . S
C588 C585 1.499 . S
C588 C589 1.373 . S
C588 C590 1.389 . S
C589 H568 0.950 . S
C589 C588 1.373 . S
C589 C605 1.377 . S
C590 C588 1.389 . S
C590 C591 1.524 . S
C590 C604 1.377 . S
C591 C590 1.524 . S
C591 C592 1.397 . S
C591 C596 1.363 . S
C592 H569 0.950 . S
C592 C591 1.397 . S
C592 C593 1.334 . S
C593 H570 0.950 . S
C593 C592 1.334 . S
C593 C594 1.287 . S
C594 C593 1.287 . S
C594 C595 1.524 . S
C594 H613 0.913 . S
C595 H571 0.950 . S
C595 C594 1.524 . S
C595 C596 1.415 . S
C596 H572 0.950 . S
C596 C591 1.363 . S
C596 C595 1.415 . S
C597 H573 0.951 . S
C597 C598 1.366 . S
C597 C599 1.388 . S
C598 C597 1.366 . S
C598 C602 1.385 . S
C599 H574 0.951 . S
C599 C597 1.388 . S
C599 C600 1.366 . S
C600 C599 1.366 . S
C600 C601 1.414 . S
C600 C603 1.499 . S
C601 H575 0.950 . S
C601 C600 1.414 . S
C601 C602 1.374 . S
C602 H576 0.950 . S
C602 C598 1.385 . S
C602 C601 1.374 . S
C603 C600 1.499 . S
C603 C604 1.373 . S
C603 C605 1.389 . S
C604 H577 0.950 . S
C604 C590 1.377 . S
C604 C603 1.373 . S
C605 C589 1.377 . S
C605 C603 1.389 . S
C605 C606 1.524 . S
C606 C605 1.524 . S
C606 C607 1.397 . S
C606 C611 1.363 . S
C607 H578 0.950 . S
C607 C606 1.397 . S
C607 C608 1.334 . S
C608 H579 0.950 . S
C608 C607 1.334 . S
C608 C609 1.287 . S
C609 C608 1.287 . S
C609 C610 1.524 . S
C609 H612 0.999 . S
C610 H580 0.950 . S
C610 C609 1.524 . S
C610 C611 1.415 . S
C611 H581 0.950 . S
C611 C606 1.363 . S
C611 C610 1.415 . S
H612 C609 0.999 . S
H613 C594 0.913 . S
H614 C632 0.951 . S
H615 C634 0.951 . S
H616 C636 0.950 . S
H617 C637 0.950 . S
H618 C639 0.950 . S
H619 C642 0.950 . S
H620 C643 0.950 . S
H621 C645 0.950 . S
H622 C646 0.950 . S
H623 C647 0.951 . S
H624 C649 0.951 . S
H625 C651 0.950 . S
H626 C652 0.950 . S
H627 C654 0.950 . S
H628 C657 0.950 . S
H629 C658 0.950 . S
H630 C660 0.950 . S
H631 C661 0.950 . S
C632 H614 0.951 . S
C632 C633 1.366 . S
C632 C634 1.388 . S
C633 C632 1.366 . S
C633 C637 1.385 . S
C634 H615 0.951 . S
C634 C632 1.388 . S
C634 C635 1.366 . S
C635 C634 1.366 . S
C635 C636 1.414 . S
C635 C638 1.499 . S
C636 H616 0.950 . S
C636 C635 1.414 . S
C636 C637 1.374 . S
C637 H617 0.950 . S
C637 C633 1.385 . S
C637 C636 1.374 . S
C638 C635 1.499 . S
C638 C639 1.373 . S
C638 C640 1.389 . S
C639 H618 0.950 . S
C639 C638 1.373 . S
C639 C655 1.377 . S
C640 C638 1.389 . S
C640 C641 1.524 . S
C640 C654 1.377 . S
C641 C640 1.524 . S
C641 C642 1.397 . S
C641 C646 1.363 . S
C642 H619 0.950 . S
C642 C641 1.397 . S
C642 C643 1.334 . S
C643 H620 0.950 . S
C643 C642 1.334 . S
C643 C644 1.287 . S
C644 C643 1.287 . S
C644 C645 1.524 . S
C644 H663 0.913 . S
C645 H621 0.950 . S
C645 C644 1.524 . S
C645 C646 1.415 . S
C646 H622 0.950 . S
C646 C641 1.363 . S
C646 C645 1.415 . S
C647 H623 0.951 . S
C647 C648 1.366 . S
C647 C649 1.388 . S
C648 C647 1.366 . S
C648 C652 1.385 . S
C649 H624 0.951 . S
C649 C647 1.388 . S
C649 C650 1.366 . S
C650 C649 1.366 . S
C650 C651 1.414 . S
C650 C653 1.499 . S
C651 H625 0.950 . S
C651 C650 1.414 . S
C651 C652 1.374 . S
C652 H626 0.950 . S
C652 C648 1.385 . S
C652 C651 1.374 . S
C653 C650 1.499 . S
C653 C654 1.373 . S
C653 C655 1.389 . S
C654 H627 0.950 . S
C654 C640 1.377 . S
C654 C653 1.373 . S
C655 C639 1.377 . S
C655 C653 1.389 . S
C655 C656 1.524 . S
C656 C655 1.524 . S
C656 C657 1.397 . S
C656 C661 1.363 . S
C657 H628 0.950 . S
C657 C656 1.397 . S
C657 C658 1.334 . S
C658 H629 0.950 . S
C658 C657 1.334 . S
C658 C659 1.287 . S
C659 C658 1.287 . S
C659 C660 1.524 . S
C659 H662 0.999 . S
C660 H630 0.950 . S
C660 C659 1.524 . S
C660 C661 1.415 . S
C661 H631 0.950 . S
C661 C656 1.363 . S
C661 C660 1.415 . S
H662 C659 0.999 . S
H663 C644 0.913 . S
H664 C682 0.951 . S
H665 C684 0.951 . S
H666 C686 0.950 . S
H667 C687 0.950 . S
H668 C689 0.950 . S
H669 C692 0.950 . S
H670 C693 0.950 . S
H671 C695 0.950 . S
H672 C696 0.950 . S
H673 C697 0.951 . S
H674 C699 0.951 . S
H675 C701 0.950 . S
H676 C702 0.950 . S
H677 C704 0.950 . S
H678 C707 0.950 . S
H679 C708 0.950 . S
H680 C710 0.950 . S
H681 C711 0.950 . S
C682 H664 0.951 . S
C682 C683 1.366 . S
C682 C684 1.388 . S
C683 C682 1.366 . S
C683 C687 1.385 . S
C684 H665 0.951 . S
C684 C682 1.388 . S
C684 C685 1.366 . S
C685 C684 1.366 . S
C685 C686 1.414 . S
C685 C688 1.499 . S
C686 H666 0.950 . S
C686 C685 1.414 . S
C686 C687 1.374 . S
C687 H667 0.950 . S
C687 C683 1.385 . S
C687 C686 1.374 . S
C688 C685 1.499 . S
C688 C689 1.373 . S
C688 C690 1.389 . S
C689 H668 0.950 . S
C689 C688 1.373 . S
C689 C705 1.377 . S
C690 C688 1.389 . S
C690 C691 1.524 . S
C690 C704 1.377 . S
C691 C690 1.524 . S
C691 C692 1.397 . S
C691 C696 1.363 . S
C692 H669 0.950 . S
C692 C691 1.397 . S
C692 C693 1.334 . S
C693 H670 0.950 . S
C693 C692 1.334 . S
C693 C694 1.287 . S
C694 C693 1.287 . S
C694 C695 1.524 . S
C694 H713 0.913 1_655 S
C695 H671 0.950 . S
C695 C694 1.524 . S
C695 C696 1.415 . S
C696 H672 0.950 . S
C696 C691 1.363 . S
C696 C695 1.415 . S
C697 H673 0.951 . S
C697 C698 1.366 . S
C697 C699 1.388 . S
C698 C697 1.366 . S
C698 C702 1.385 . S
C699 H674 0.951 . S
C699 C697 1.388 . S
C699 C700 1.366 . S
C700 C699 1.366 . S
C700 C701 1.414 . S
C700 C703 1.499 . S
C701 H675 0.950 . S
C701 C700 1.414 . S
C701 C702 1.374 . S
C702 H676 0.950 . S
C702 C698 1.385 . S
C702 C701 1.374 . S
C703 C700 1.499 . S
C703 C704 1.373 . S
C703 C705 1.389 . S
C704 H677 0.950 . S
C704 C690 1.377 . S
C704 C703 1.373 . S
C705 C689 1.377 . S
C705 C703 1.389 . S
C705 C706 1.524 . S
C706 C705 1.524 . S
C706 C707 1.397 . S
C706 C711 1.363 . S
C707 H678 0.950 . S
C707 C706 1.397 . S
C707 C708 1.334 . S
C708 H679 0.950 . S
C708 C707 1.334 . S
C708 C709 1.287 . S
C709 C708 1.287 . S
C709 C710 1.524 . S
C709 H712 0.999 . S
C710 H680 0.950 . S
C710 C709 1.524 . S
C710 C711 1.415 . S
C711 H681 0.950 . S
C711 C706 1.363 . S
C711 C710 1.415 . S
H712 C709 0.999 . S
H713 C694 0.913 1_455 S
H714 C732 0.951 . S
H715 C734 0.951 . S
H716 C736 0.950 . S
H717 C737 0.950 . S
H718 C739 0.950 . S
H719 C742 0.950 . S
H720 C743 0.950 . S
H721 C745 0.950 . S
H722 C746 0.950 . S
H723 C747 0.951 . S
H724 C749 0.951 . S
H725 C751 0.950 . S
H726 C752 0.950 . S
H727 C754 0.950 . S
H728 C757 0.950 . S
H729 C758 0.950 . S
H730 C760 0.950 . S
H731 C761 0.950 . S
C732 H714 0.951 . S
C732 C733 1.366 . S
C732 C734 1.388 . S
C733 C732 1.366 . S
C733 C737 1.385 . S
C734 H715 0.951 . S
C734 C732 1.388 . S
C734 C735 1.366 . S
C735 C734 1.366 . S
C735 C736 1.414 . S
C735 C738 1.499 . S
C736 H716 0.950 . S
C736 C735 1.414 . S
C736 C737 1.374 . S
C737 H717 0.950 . S
C737 C733 1.385 . S
C737 C736 1.374 . S
C738 C735 1.499 . S
C738 C739 1.373 . S
C738 C740 1.389 . S
C739 H718 0.950 . S
C739 C738 1.373 . S
C739 C755 1.377 . S
C740 C738 1.389 . S
C740 C741 1.524 . S
C740 C754 1.377 . S
C741 C740 1.524 . S
C741 C742 1.397 . S
C741 C746 1.363 . S
C742 H719 0.950 . S
C742 C741 1.397 . S
C742 C743 1.334 . S
C743 H720 0.950 . S
C743 C742 1.334 . S
C743 C744 1.287 . S
C744 C743 1.287 . S
C744 C745 1.524 . S
C744 H763 0.913 . S
C745 H721 0.950 . S
C745 C744 1.524 . S
C745 C746 1.415 . S
C746 H722 0.950 . S
C746 C741 1.363 . S
C746 C745 1.415 . S
C747 H723 0.951 . S
C747 C748 1.366 . S
C747 C749 1.388 . S
C748 C747 1.366 . S
C748 C752 1.385 . S
C749 H724 0.951 . S
C749 C747 1.388 . S
C749 C750 1.366 . S
C750 C749 1.366 . S
C750 C751 1.414 . S
C750 C753 1.499 . S
C751 H725 0.950 . S
C751 C750 1.414 . S
C751 C752 1.374 . S
C752 H726 0.950 . S
C752 C748 1.385 . S
C752 C751 1.374 . S
C753 C750 1.499 . S
C753 C754 1.373 . S
C753 C755 1.389 . S
C754 H727 0.950 . S
C754 C740 1.377 . S
C754 C753 1.373 . S
C755 C739 1.377 . S
C755 C753 1.389 . S
C755 C756 1.524 . S
C756 C755 1.524 . S
C756 C757 1.397 . S
C756 C761 1.363 . S
C757 H728 0.950 . S
C757 C756 1.397 . S
C757 C758 1.334 . S
C758 H729 0.950 . S
C758 C757 1.334 . S
C758 C759 1.287 . S
C759 C758 1.287 . S
C759 C760 1.524 . S
C759 H762 0.999 . S
C760 H730 0.950 . S
C760 C759 1.524 . S
C760 C761 1.415 . S
C761 H731 0.950 . S
C761 C756 1.363 . S
C761 C760 1.415 . S
H762 C759 0.999 . S
H763 C744 0.913 . S
H764 C782 0.951 . S
H765 C784 0.951 . S
H766 C786 0.950 . S
H767 C787 0.950 . S
H768 C789 0.950 . S
H769 C792 0.950 . S
H770 C793 0.950 . S
H771 C795 0.950 . S
H772 C796 0.950 . S
H773 C797 0.951 . S
H774 C799 0.951 . S
H775 C801 0.950 . S
H776 C802 0.950 . S
H777 C804 0.950 . S
H778 C807 0.950 . S
H779 C808 0.950 . S
H780 C810 0.950 . S
H781 C811 0.950 . S
C782 H764 0.951 . S
C782 C783 1.366 . S
C782 C784 1.388 . S
C783 C782 1.366 . S
C783 C787 1.385 . S
C784 H765 0.951 . S
C784 C782 1.388 . S
C784 C785 1.366 . S
C785 C784 1.366 . S
C785 C786 1.414 . S
C785 C788 1.499 . S
C786 H766 0.950 . S
C786 C785 1.414 . S
C786 C787 1.374 . S
C787 H767 0.950 . S
C787 C783 1.385 . S
C787 C786 1.374 . S
C788 C785 1.499 . S
C788 C789 1.373 . S
C788 C790 1.389 . S
C789 H768 0.950 . S
C789 C788 1.373 . S
C789 C805 1.377 . S
C790 C788 1.389 . S
C790 C791 1.524 . S
C790 C804 1.377 . S
C791 C790 1.524 . S
C791 C792 1.397 . S
C791 C796 1.363 . S
C792 H769 0.950 . S
C792 C791 1.397 . S
C792 C793 1.334 . S
C793 H770 0.950 . S
C793 C792 1.334 . S
C793 C794 1.287 . S
C794 C793 1.287 . S
C794 C795 1.524 . S
C794 H813 0.913 . S
C795 H771 0.950 . S
C795 C794 1.524 . S
C795 C796 1.415 . S
C796 H772 0.950 . S
C796 C791 1.363 . S
C796 C795 1.415 . S
C797 H773 0.951 . S
C797 C798 1.366 . S
C797 C799 1.388 . S
C798 C797 1.366 . S
C798 C802 1.385 . S
C799 H774 0.951 . S
C799 C797 1.388 . S
C799 C800 1.366 . S
C800 C799 1.366 . S
C800 C801 1.414 . S
C800 C803 1.499 . S
C801 H775 0.950 . S
C801 C800 1.414 . S
C801 C802 1.374 . S
C802 H776 0.950 . S
C802 C798 1.385 . S
C802 C801 1.374 . S
C803 C800 1.499 . S
C803 C804 1.373 . S
C803 C805 1.389 . S
C804 H777 0.950 . S
C804 C790 1.377 . S
C804 C803 1.373 . S
C805 C789 1.377 . S
C805 C803 1.389 . S
C805 C806 1.524 . S
C806 C805 1.524 . S
C806 C807 1.397 . S
C806 C811 1.363 . S
C807 H778 0.950 . S
C807 C806 1.397 . S
C807 C808 1.334 . S
C808 H779 0.950 . S
C808 C807 1.334 . S
C808 C809 1.287 . S
C809 C808 1.287 . S
C809 C810 1.524 . S
C809 H812 0.999 . S
C810 H780 0.950 . S
C810 C809 1.524 . S
C810 C811 1.415 . S
C811 H781 0.950 . S
C811 C806 1.363 . S
C811 C810 1.415 . S
H812 C809 0.999 . S
H813 C794 0.913 . S
H814 C832 0.951 . S
H815 C834 0.951 . S
H816 C836 0.950 . S
H817 C837 0.950 . S
H818 C839 0.950 . S
H819 C842 0.950 . S
H820 C843 0.950 . S
H821 C845 0.950 . S
H822 C846 0.950 . S
H823 C847 0.951 . S
H824 C849 0.951 . S
H825 C851 0.950 . S
H826 C852 0.950 . S
H827 C854 0.950 . S
H828 C857 0.950 . S
H829 C858 0.950 . S
H830 C860 0.950 . S
H831 C861 0.950 . S
C832 H814 0.951 . S
C832 C833 1.366 . S
C832 C834 1.388 . S
C833 C832 1.366 . S
C833 C837 1.385 . S
C834 H815 0.951 . S
C834 C832 1.388 . S
C834 C835 1.366 . S
C835 C834 1.366 . S
C835 C836 1.414 . S
C835 C838 1.499 . S
C836 H816 0.950 . S
C836 C835 1.414 . S
C836 C837 1.374 . S
C837 H817 0.950 . S
C837 C833 1.385 . S
C837 C836 1.374 . S
C838 C835 1.499 . S
C838 C839 1.373 . S
C838 C840 1.389 . S
C839 H818 0.950 . S
C839 C838 1.373 . S
C839 C855 1.377 . S
C840 C838 1.389 . S
C840 C841 1.524 . S
C840 C854 1.377 . S
C841 C840 1.524 . S
C841 C842 1.397 . S
C841 C846 1.363 . S
C842 H819 0.950 . S
C842 C841 1.397 . S
C842 C843 1.334 . S
C843 H820 0.950 . S
C843 C842 1.334 . S
C843 C844 1.287 . S
C844 C843 1.287 . S
C844 C845 1.524 . S
C844 H863 0.913 . S
C845 H821 0.950 . S
C845 C844 1.524 . S
C845 C846 1.415 . S
C846 H822 0.950 . S
C846 C841 1.363 . S
C846 C845 1.415 . S
C847 H823 0.951 . S
C847 C848 1.366 . S
C847 C849 1.388 . S
C848 C847 1.366 . S
C848 C852 1.385 . S
C849 H824 0.951 . S
C849 C847 1.388 . S
C849 C850 1.366 . S
C850 C849 1.366 . S
C850 C851 1.414 . S
C850 C853 1.499 . S
C851 H825 0.950 . S
C851 C850 1.414 . S
C851 C852 1.374 . S
C852 H826 0.950 . S
C852 C848 1.385 . S
C852 C851 1.374 . S
C853 C850 1.499 . S
C853 C854 1.373 . S
C853 C855 1.389 . S
C854 H827 0.950 . S
C854 C840 1.377 . S
C854 C853 1.373 . S
C855 C839 1.377 . S
C855 C853 1.389 . S
C855 C856 1.524 . S
C856 C855 1.524 . S
C856 C857 1.397 . S
C856 C861 1.363 . S
C857 H828 0.950 . S
C857 C856 1.397 . S
C857 C858 1.334 . S
C858 H829 0.950 . S
C858 C857 1.334 . S
C858 C859 1.287 . S
C859 C858 1.287 . S
C859 C860 1.524 . S
C859 H862 0.999 . S
C860 H830 0.950 . S
C860 C859 1.524 . S
C860 C861 1.415 . S
C861 H831 0.950 . S
C861 C856 1.363 . S
C861 C860 1.415 . S
H862 C859 0.999 . S
H863 C844 0.913 . S
H864 C882 0.951 . S
H865 C884 0.951 . S
H866 C886 0.950 . S
H867 C887 0.950 . S
H868 C889 0.950 . S
H869 C892 0.950 . S
H870 C893 0.950 . S
H871 C895 0.950 . S
H872 C896 0.950 . S
H873 C897 0.951 . S
H874 C899 0.951 . S
H875 C901 0.950 . S
H876 C902 0.950 . S
H877 C904 0.950 . S
H878 C907 0.962 . S
H879 C908 0.950 . S
H880 C910 0.950 . S
H881 C911 0.942 1_455 S
C882 H864 0.951 . S
C882 C883 1.366 . S
C882 C884 1.388 . S
C883 C882 1.366 . S
C883 C887 1.385 1_545 S
C884 H865 0.951 . S
C884 C882 1.388 . S
C884 C885 1.366 . S
C885 C884 1.366 . S
C885 C886 1.414 1_545 S
C885 C888 1.499 . S
C886 H866 0.950 . S
C886 C885 1.414 1_565 S
C886 C887 1.374 . S
C887 H867 0.950 . S
C887 C883 1.385 1_565 S
C887 C886 1.374 . S
C888 C885 1.499 . S
C888 C889 1.373 1_545 S
C888 C890 1.389 . S
C889 H868 0.950 . S
C889 C888 1.373 1_565 S
C889 C905 1.377 1_455 S
C890 C888 1.389 . S
C890 C891 1.524 . S
C890 C904 1.377 1_455 S
C891 C890 1.524 . S
C891 C892 1.397 . S
C891 C896 1.363 . S
C892 H869 0.950 . S
C892 C891 1.397 . S
C892 C893 1.334 . S
C893 H870 0.950 . S
C893 C892 1.334 . S
C893 C894 1.287 . S
C894 C893 1.287 . S
C894 C895 1.524 . S
C894 H913 0.913 . S
C895 H871 0.950 . S
C895 C894 1.524 . S
C895 C896 1.415 . S
C896 H872 0.950 . S
C896 C891 1.363 . S
C896 C895 1.415 . S
C897 H873 0.951 . S
C897 C898 1.366 1_565 S
C897 C899 1.388 . S
C898 C897 1.366 1_545 S
C898 C902 1.385 . S
C899 H874 0.951 . S
C899 C897 1.388 . S
C899 C900 1.366 1_565 S
C900 C899 1.366 1_545 S
C900 C901 1.414 . S
C900 C903 1.499 . S
C901 H875 0.950 . S
C901 C900 1.414 . S
C901 C902 1.374 . S
C902 H876 0.950 . S
C902 C898 1.385 . S
C902 C901 1.374 . S
C903 C900 1.499 . S
C903 C904 1.373 . S
C903 C905 1.389 1_545 S
C904 H877 0.950 . S
C904 C890 1.377 1_655 S
C904 C903 1.373 . S
C905 C889 1.377 1_655 S
C905 C903 1.389 1_565 S
C905 C906 1.524 . S
C906 C905 1.524 . S
C906 C907 1.397 . S
C906 C911 1.363 . S
C907 H878 0.962 . S
C907 C906 1.397 . S
C907 C908 1.334 . S
C908 H879 0.950 . S
C908 C907 1.334 . S
C908 C909 1.287 . S
C909 C908 1.287 . S
C909 C910 1.524 . S
C909 H912 0.999 . S
C910 H880 0.950 . S
C910 C909 1.524 . S
C910 C911 1.415 . S
C911 H881 0.942 1_655 S
C911 C906 1.363 . S
C911 C910 1.415 . S
H912 C909 0.999 . S
H913 C894 0.913 . S
H914 C932 0.951 . S
H915 C934 0.951 . S
H916 C936 0.950 1_655 S
H917 C937 0.950 1_655 S
H918 C939 0.950 . S
H919 C942 0.950 . S
H920 C943 0.950 . S
H921 C945 0.950 . S
H922 C946 0.950 . S
H923 C947 0.951 . S
H924 C949 0.951 . S
H925 C951 0.950 . S
H926 C952 0.950 . S
H927 C954 0.950 . S
H928 C957 0.950 . S
H929 C958 0.950 . S
H930 C960 0.950 . S
H931 C961 0.950 1_545 S
C932 H914 0.951 . S
C932 C933 1.366 . S
C932 C934 1.388 . S
C933 C932 1.366 . S
C933 C937 1.385 . S
C934 H915 0.951 . S
C934 C932 1.388 . S
C934 C935 1.366 . S
C935 C934 1.366 . S
C935 C936 1.414 . S
C935 C938 1.499 . S
C936 H916 0.950 1_455 S
C936 C935 1.414 . S
C936 C937 1.374 . S
C937 H917 0.950 1_455 S
C937 C933 1.385 . S
C937 C936 1.374 . S
C938 C935 1.499 . S
C938 C939 1.373 1_455 S
C938 C940 1.389 . S
C939 H918 0.950 . S
C939 C938 1.373 1_655 S
C939 C955 1.369 1_545 S
C940 C938 1.389 . S
C940 C941 1.524 . S
C940 C954 1.377 1_545 S
C941 C940 1.524 . S
C941 C942 1.397 . S
C941 C946 1.363 . S
C942 H919 0.950 . S
C942 C941 1.397 . S
C942 C943 1.334 . S
C943 H920 0.950 . S
C943 C942 1.334 . S
C943 C944 1.287 . S
C944 C943 1.287 . S
C944 C945 1.524 . S
C944 H963 0.913 . S
C945 H921 0.950 . S
C945 C944 1.524 . S
C945 C946 1.415 . S
C946 H922 0.950 . S
C946 C941 1.363 . S
C946 C945 1.415 . S
C947 H923 0.951 . S
C947 C948 1.366 1_655 S
C947 C949 1.388 . S
C948 C947 1.366 1_455 S
C948 C952 1.385 . S
C949 H924 0.951 . S
C949 C947 1.388 . S
C949 C950 1.366 1_655 S
C950 C949 1.366 1_455 S
C950 C951 1.414 . S
C950 C953 1.499 . S
C951 H925 0.950 . S
C951 C950 1.414 . S
C951 C952 1.374 . S
C952 H926 0.950 . S
C952 C948 1.385 . S
C952 C951 1.374 . S
C953 C950 1.499 . S
C953 C954 1.373 . S
C953 C955 1.394 1_455 S
C954 H927 0.950 . S
C954 C940 1.377 1_565 S
C954 C953 1.373 . S
C955 C939 1.369 1_565 S
C955 C953 1.394 1_655 S
C955 C956 1.527 . S
C956 C955 1.527 . S
C956 C957 1.397 . S
C956 C961 1.363 . S
C957 H928 0.950 . S
C957 C956 1.397 . S
C957 C958 1.334 . S
C958 H929 0.950 . S
C958 C957 1.334 . S
C958 C959 1.287 . S
C959 C958 1.287 . S
C959 C960 1.524 . S
C959 H962 0.999 . S
C960 H930 0.950 . S
C960 C959 1.524 . S
C960 C961 1.415 . S
C961 H931 0.950 1_565 S
C961 C956 1.363 . S
C961 C960 1.415 . S
H962 C959 0.999 . S
H963 C944 0.913 . S
H964 C982 0.951 . S
H965 C984 0.951 . S
H966 C986 0.950 . S
H967 C987 0.950 . S
H968 C989 0.950 . S
H969 C992 0.950 . S
H970 C993 0.950 . S
H971 C995 0.950 . S
H972 C996 0.950 1_445 S
H973 C997 0.951 . S
H974 C999 0.955 . S
H975 C1001 0.950 . S
H976 C1002 0.950 . S
H977 C1004 0.950 1_565 S
H978 C1007 0.950 . S
H979 C1008 0.950 . S
H980 C1010 0.950 . S
H981 C1011 0.950 . S
C982 H964 0.951 . S
C982 C983 1.366 . S
C982 C984 1.388 . S
C983 C982 1.366 . S
C983 C987 1.385 1_545 S
C984 H965 0.951 . S
C984 C982 1.388 . S
C984 C985 1.366 . S
C985 C984 1.366 . S
C985 C986 1.414 1_545 S
C985 C988 1.499 . S
C986 H966 0.950 . S
C986 C985 1.414 1_565 S
C986 C987 1.374 . S
C987 H967 0.950 . S
C987 C983 1.385 1_565 S
C987 C986 1.374 . S
C988 C985 1.499 . S
C988 C989 1.373 . S
C988 C990 1.389 1_545 S
C989 H968 0.950 . S
C989 C988 1.373 . S
C989 C1005 1.377 1_655 S
C990 C988 1.389 1_565 S
C990 C991 1.524 . S
C990 C1004 1.377 1_665 S
C991 C990 1.524 . S
C991 C992 1.397 . S
C991 C996 1.363 . S
C992 H969 0.950 . S
C992 C991 1.397 . S
C992 C993 1.334 . S
C993 H970 0.950 . S
C993 C992 1.334 . S
C993 C994 1.287 . S
C994 C993 1.287 . S
C994 C995 1.524 . S
C994 H1013 0.913 . S
C995 H971 0.950 . S
C995 C994 1.524 . S
C995 C996 1.415 . S
C996 H972 0.950 1_665 S
C996 C991 1.363 . S
C996 C995 1.415 . S
C997 H973 0.951 . S
C997 C998 1.366 . S
C997 C999 1.388 . S
C998 C997 1.366 . S
C998 C1002 1.385 . S
C999 H974 0.955 . S
C999 C997 1.388 . S
C999 C1000 1.366 . S
C1000 C999 1.366 . S
C1000 C1001 1.414 . S
C1000 C1003 1.499 . S
C1001 H975 0.950 . S
C1001 C1000 1.414 . S
C1001 C1002 1.374 . S
C1002 H976 0.950 . S
C1002 C998 1.385 . S
C1002 C1001 1.374 . S
C1003 C1000 1.499 . S
C1003 C1004 1.373 . S
C1003 C1005 1.389 . S
C1004 H977 0.950 1_545 S
C1004 C990 1.377 1_445 S
C1004 C1003 1.373 . S
C1005 C989 1.377 1_455 S
C1005 C1003 1.389 . S
C1005 C1006 1.524 . S
C1006 C1005 1.524 . S
C1006 C1007 1.397 . S
C1006 C1011 1.363 . S
C1007 H978 0.950 . S
C1007 C1006 1.397 . S
C1007 C1008 1.334 . S
C1008 H979 0.950 . S
C1008 C1007 1.334 . S
C1008 C1009 1.287 . S
C1009 C1008 1.287 . S
C1009 C1010 1.524 . S
C1009 H1012 0.999 . S
C1010 H980 0.950 . S
C1010 C1009 1.524 . S
C1010 C1011 1.415 . S
C1011 H981 0.950 . S
C1011 C1006 1.363 . S
C1011 C1010 1.415 . S
H1012 C1009 0.999 . S
H1013 C994 0.913 . S
H1014 C1032 0.951 . S
H1015 C1034 0.951 . S
H1016 C1036 0.950 . S
H1017 C1037 0.950 . S
H1018 C1039 0.950 . S
H1019 C1042 0.950 . S
H1020 C1043 0.950 . S
H1021 C1045 0.950 . S
H1022 C1046 0.950 1_545 S
H1023 C1047 0.951 . S
H1024 C1049 0.951 . S
H1025 C1051 0.950 . S
H1026 C1052 0.950 . S
H1027 C1054 0.950 . S
H1028 C1057 0.950 1_455 S
H1029 C1058 0.950 . S
H1030 C1060 0.950 . S
H1031 C1061 0.950 . S
C1032 H1014 0.951 . S
C1032 C1033 1.366 . S
C1032 C1034 1.388 . S
C1033 C1032 1.366 . S
C1033 C1037 1.385 1_455 S
C1034 H1015 0.951 . S
C1034 C1032 1.388 . S
C1034 C1035 1.366 . S
C1035 C1034 1.366 . S
C1035 C1036 1.414 1_455 S
C1035 C1038 1.499 . S
C1036 H1016 0.950 . S
C1036 C1035 1.414 1_655 S
C1036 C1037 1.374 . S
C1037 H1017 0.950 . S
C1037 C1033 1.385 1_655 S
C1037 C1036 1.374 . S
C1038 C1035 1.499 . S
C1038 C1039 1.373 1_455 S
C1038 C1040 1.406 . S
C1039 H1018 0.950 . S
C1039 C1038 1.373 1_655 S
C1039 C1055 1.377 1_565 S
C1040 C1038 1.406 . S
C1040 C1041 1.536 . S
C1040 C1054 1.347 1_565 S
C1041 C1040 1.536 . S
C1041 C1042 1.397 . S
C1041 C1046 1.363 . S
C1042 H1019 0.950 . S
C1042 C1041 1.397 . S
C1042 C1043 1.334 . S
C1043 H1020 0.950 . S
C1043 C1042 1.334 . S
C1043 C1044 1.287 . S
C1044 C1043 1.287 . S
C1044 C1045 1.524 . S
C1044 H1063 0.913 . S
C1045 H1021 0.950 . S
C1045 C1044 1.524 . S
C1045 C1046 1.415 . S
C1046 H1022 0.950 1_565 S
C1046 C1041 1.363 . S
C1046 C1045 1.415 . S
C1047 H1023 0.951 . S
C1047 C1048 1.366 1_655 S
C1047 C1049 1.388 . S
C1048 C1047 1.366 1_455 S
C1048 C1052 1.385 . S
C1049 H1024 0.951 . S
C1049 C1047 1.388 . S
C1049 C1050 1.366 1_655 S
C1050 C1049 1.366 1_455 S
C1050 C1051 1.414 . S
C1050 C1053 1.499 . S
C1051 H1025 0.950 . S
C1051 C1050 1.414 . S
C1051 C1052 1.374 . S
C1052 H1026 0.950 . S
C1052 C1048 1.385 . S
C1052 C1051 1.374 . S
C1053 C1050 1.499 . S
C1053 C1054 1.373 . S
C1053 C1055 1.389 1_455 S
C1054 H1027 0.950 . S
C1054 C1040 1.347 1_545 S
C1054 C1053 1.373 . S
C1055 C1039 1.377 1_545 S
C1055 C1053 1.389 1_655 S
C1055 C1056 1.524 . S
C1056 C1055 1.524 . S
C1056 C1057 1.397 . S
C1056 C1061 1.363 . S
C1057 H1028 0.950 1_655 S
C1057 C1056 1.397 . S
C1057 C1058 1.334 . S
C1058 H1029 0.950 . S
C1058 C1057 1.334 . S
C1058 C1059 1.287 . S
C1059 C1058 1.287 . S
C1059 C1060 1.524 . S
C1059 H1062 0.999 . S
C1060 H1030 0.950 . S
C1060 C1059 1.524 . S
C1060 C1061 1.415 . S
C1061 H1031 0.950 . S
C1061 C1056 1.363 . S
C1061 C1060 1.415 . S
H1062 C1059 0.999 . S
H1063 C1044 0.913 . S
H1064 C1082 0.951 . S
H1065 C1084 0.951 . S
H1066 C1086 0.950 . S
H1067 C1087 0.950 . S
H1068 C1089 0.950 . S
H1069 C1092 0.950 . S
H1070 C1093 0.950 . S
H1071 C1095 0.950 . S
H1072 C1096 0.950 . S
H1073 C1097 0.951 . S
H1074 C1099 0.951 . S
H1075 C1101 0.950 . S
H1076 C1102 0.950 . S
H1077 C1104 0.950 . S
H1078 C1107 0.950 1_545 S
H1079 C1108 0.950 . S
H1080 C1110 0.950 . S
H1081 C1111 0.950 . S
C1082 H1064 0.951 . S
C1082 C1083 1.366 . S
C1082 C1084 1.388 . S
C1083 C1082 1.366 . S
C1083 C1087 1.385 1_545 S
C1084 H1065 0.951 . S
C1084 C1082 1.388 . S
C1084 C1085 1.366 . S
C1085 C1084 1.366 . S
C1085 C1086 1.414 1_545 S
C1085 C1088 1.499 . S
C1086 H1066 0.950 . S
C1086 C1085 1.414 1_565 S
C1086 C1087 1.374 . S
C1087 H1067 0.950 . S
C1087 C1083 1.385 1_565 S
C1087 C1086 1.374 . S
C1088 C1085 1.499 . S
C1088 C1089 1.373 1_545 S
C1088 C1090 1.389 . S
C1089 H1068 0.950 . S
C1089 C1088 1.373 1_565 S
C1089 C1105 1.377 . S
C1090 C1088 1.389 . S
C1090 C1091 1.524 . S
C1090 C1104 1.377 . S
C1091 C1090 1.524 . S
C1091 C1092 1.397 . S
C1091 C1096 1.363 . S
C1092 H1069 0.950 . S
C1092 C1091 1.397 . S
C1092 C1093 1.334 . S
C1093 H1070 0.950 . S
C1093 C1092 1.334 . S
C1093 C1094 1.287 . S
C1094 C1093 1.287 . S
C1094 C1095 1.524 . S
C1094 H1113 0.913 . S
C1095 H1071 0.950 . S
C1095 C1094 1.524 . S
C1095 C1096 1.415 . S
C1096 H1072 0.950 . S
C1096 C1091 1.363 . S
C1096 C1095 1.415 . S
C1097 H1073 0.951 . S
C1097 C1098 1.366 1_565 S
C1097 C1099 1.388 . S
C1098 C1097 1.366 1_545 S
C1098 C1102 1.385 . S
C1099 H1074 0.951 . S
C1099 C1097 1.388 . S
C1099 C1100 1.366 1_565 S
C1100 C1099 1.366 1_545 S
C1100 C1101 1.414 . S
C1100 C1103 1.499 . S
C1101 H1075 0.950 . S
C1101 C1100 1.414 . S
C1101 C1102 1.374 . S
C1102 H1076 0.950 . S
C1102 C1098 1.385 . S
C1102 C1101 1.374 . S
C1103 C1100 1.499 . S
C1103 C1104 1.373 . S
C1103 C1105 1.389 1_545 S
C1104 H1077 0.950 . S
C1104 C1090 1.377 . S
C1104 C1103 1.373 . S
C1105 C1089 1.377 . S
C1105 C1103 1.389 1_565 S
C1105 C1106 1.524 . S
C1106 C1105 1.524 . S
C1106 C1107 1.397 . S
C1106 C1111 1.363 . S
C1107 H1078 0.950 1_565 S
C1107 C1106 1.397 . S
C1107 C1108 1.334 . S
C1108 H1079 0.950 . S
C1108 C1107 1.334 . S
C1108 C1109 1.287 . S
C1109 C1108 1.287 . S
C1109 C1110 1.524 . S
C1109 H1112 0.999 . S
C1110 H1080 0.950 . S
C1110 C1109 1.524 . S
C1110 C1111 1.415 . S
C1111 H1081 0.950 . S
C1111 C1106 1.363 . S
C1111 C1110 1.415 . S
H1112 C1109 0.999 . S
H1113 C1094 0.913 . S
H1114 C1132 0.951 . S
H1115 C1134 0.951 . S
H1116 C1136 0.950 . S
H1117 C1137 0.950 . S
H1118 C1139 0.950 . S
H1119 C1142 0.950 . S
H1120 C1143 0.950 . S
H1121 C1145 0.950 . S
H1122 C1146 0.950 . S
H1123 C1147 0.951 . S
H1124 C1149 0.951 . S
H1125 C1151 0.950 . S
H1126 C1152 0.950 . S
H1127 C1154 0.950 . S
H1128 C1157 0.950 . S
H1129 C1158 0.950 . S
H1130 C1160 0.950 . S
H1131 C1161 0.950 . S
C1132 H1114 0.951 . S
C1132 C1133 1.366 1_655 S
C1132 C1134 1.388 . S
C1133 C1132 1.366 1_455 S
C1133 C1137 1.385 . S
C1134 H1115 0.951 . S
C1134 C1132 1.388 . S
C1134 C1135 1.366 1_655 S
C1135 C1134 1.366 1_455 S
C1135 C1136 1.414 . S
C1135 C1138 1.499 . S
C1136 H1116 0.950 . S
C1136 C1135 1.414 . S
C1136 C1137 1.374 . S
C1137 H1117 0.950 . S
C1137 C1133 1.385 . S
C1137 C1136 1.374 . S
C1138 C1135 1.499 . S
C1138 C1139 1.373 . S
C1138 C1140 1.389 1_455 S
C1139 H1118 0.950 . S
C1139 C1138 1.373 . S
C1139 C1155 1.377 . S
C1140 C1138 1.389 1_655 S
C1140 C1141 1.524 . S
C1140 C1154 1.377 . S
C1141 C1140 1.524 . S
C1141 C1142 1.397 . S
C1141 C1146 1.363 . S
C1142 H1119 0.950 . S
C1142 C1141 1.397 . S
C1142 C1143 1.334 . S
C1143 H1120 0.950 . S
C1143 C1142 1.334 . S
C1143 C1144 1.287 . S
C1144 C1143 1.287 . S
C1144 C1145 1.524 . S
C1144 H1163 0.913 . S
C1145 H1121 0.950 . S
C1145 C1144 1.524 . S
C1145 C1146 1.415 . S
C1146 H1122 0.950 . S
C1146 C1141 1.363 . S
C1146 C1145 1.415 . S
C1147 H1123 0.951 . S
C1147 C1148 1.366 . S
C1147 C1149 1.388 . S
C1148 C1147 1.366 . S
C1148 C1152 1.385 1_455 S
C1149 H1124 0.951 . S
C1149 C1147 1.388 . S
C1149 C1150 1.366 . S
C1150 C1149 1.366 . S
C1150 C1151 1.414 1_455 S
C1150 C1153 1.499 . S
C1151 H1125 0.950 . S
C1151 C1150 1.414 1_655 S
C1151 C1152 1.374 . S
C1152 H1126 0.950 . S
C1152 C1148 1.385 1_655 S
C1152 C1151 1.374 . S
C1153 C1150 1.499 . S
C1153 C1154 1.373 1_455 S
C1153 C1155 1.389 . S
C1154 H1127 0.950 . S
C1154 C1140 1.377 . S
C1154 C1153 1.373 1_655 S
C1155 C1139 1.377 . S
C1155 C1153 1.389 . S
C1155 C1156 1.524 . S
C1156 C1155 1.524 . S
C1156 C1157 1.397 . S
C1156 C1161 1.363 . S
C1157 H1128 0.950 . S
C1157 C1156 1.397 . S
C1157 C1158 1.334 . S
C1158 H1129 0.950 . S
C1158 C1157 1.334 . S
C1158 C1159 1.287 . S
C1159 C1158 1.287 . S
C1159 C1160 1.524 . S
C1159 H1162 0.999 . S
C1160 H1130 0.950 . S
C1160 C1159 1.524 . S
C1160 C1161 1.415 . S
C1161 H1131 0.950 . S
C1161 C1156 1.363 . S
C1161 C1160 1.415 . S
H1162 C1159 0.999 . S
H1163 C1144 0.913 . S
H1164 C1182 0.951 . S
H1165 C1184 0.951 . S
H1166 C1186 0.950 . S
H1167 C1187 0.950 . S
H1168 C1189 0.950 . S
H1169 C1192 0.950 . S
H1170 C1193 0.950 . S
H1171 C1195 0.950 . S
H1172 C1196 0.950 . S
H1173 C1197 0.951 . S
H1174 C1199 0.951 . S
H1175 C1201 0.950 . S
H1176 C1202 0.950 . S
H1177 C1204 0.950 . S
H1178 C1207 0.950 . S
H1179 C1208 0.950 . S
H1180 C1210 0.950 . S
H1181 C1211 0.950 . S
C1182 H1164 0.951 . S
C1182 C1183 1.366 . S
C1182 C1184 1.388 . S
C1183 C1182 1.366 . S
C1183 C1187 1.385 1_545 S
C1184 H1165 0.951 . S
C1184 C1182 1.388 . S
C1184 C1185 1.366 . S
C1185 C1184 1.366 . S
C1185 C1186 1.414 1_545 S
C1185 C1188 1.499 . S
C1186 H1166 0.950 . S
C1186 C1185 1.414 1_565 S
C1186 C1187 1.374 . S
C1187 H1167 0.950 . S
C1187 C1183 1.385 1_565 S
C1187 C1186 1.374 . S
C1188 C1185 1.499 . S
C1188 C1189 1.373 1_545 S
C1188 C1190 1.389 . S
C1189 H1168 0.950 . S
C1189 C1188 1.373 1_565 S
C1189 C1205 1.377 . S
C1190 C1188 1.389 . S
C1190 C1191 1.524 . S
C1190 C1204 1.377 . S
C1191 C1190 1.524 . S
C1191 C1192 1.397 . S
C1191 C1196 1.363 . S
C1192 H1169 0.950 . S
C1192 C1191 1.397 . S
C1192 C1193 1.334 . S
C1193 H1170 0.950 . S
C1193 C1192 1.334 . S
C1193 C1194 1.287 . S
C1194 C1193 1.287 . S
C1194 C1195 1.524 . S
C1194 H1213 0.913 . S
C1195 H1171 0.950 . S
C1195 C1194 1.524 . S
C1195 C1196 1.415 . S
C1196 H1172 0.950 . S
C1196 C1191 1.363 . S
C1196 C1195 1.415 . S
C1197 H1173 0.951 . S
C1197 C1198 1.366 1_565 S
C1197 C1199 1.388 . S
C1198 C1197 1.366 1_545 S
C1198 C1202 1.385 . S
C1199 H1174 0.951 . S
C1199 C1197 1.388 . S
C1199 C1200 1.366 1_565 S
C1200 C1199 1.366 1_545 S
C1200 C1201 1.414 . S
C1200 C1203 1.499 . S
C1201 H1175 0.950 . S
C1201 C1200 1.414 . S
C1201 C1202 1.374 . S
C1202 H1176 0.950 . S
C1202 C1198 1.385 . S
C1202 C1201 1.374 . S
C1203 C1200 1.499 . S
C1203 C1204 1.373 . S
C1203 C1205 1.389 1_545 S
C1204 H1177 0.950 . S
C1204 C1190 1.377 . S
C1204 C1203 1.373 . S
C1205 C1189 1.377 . S
C1205 C1203 1.389 1_565 S
C1205 C1206 1.524 . S
C1206 C1205 1.524 . S
C1206 C1207 1.397 . S
C1206 C1211 1.363 . S
C1207 H1178 0.950 . S
C1207 C1206 1.397 . S
C1207 C1208 1.334 . S
C1208 H1179 0.950 . S
C1208 C1207 1.334 . S
C1208 C1209 1.287 . S
C1209 C1208 1.287 . S
C1209 C1210 1.524 . S
C1209 H1212 0.999 . S
C1210 H1180 0.950 . S
C1210 C1209 1.524 . S
C1210 C1211 1.415 . S
C1211 H1181 0.950 . S
C1211 C1206 1.363 . S
C1211 C1210 1.415 . S
H1212 C1209 0.999 . S
H1213 C1194 0.913 . S
H1214 C1232 0.959 . S
H1215 C1234 0.954 . S
H1216 C1236 0.950 . S
H1217 C1237 0.950 . S
H1218 C1239 0.950 . S
H1219 C1242 0.950 . S
H1220 C1243 0.950 . S
H1221 C1245 0.950 . S
H1222 C1246 0.950 . S
H1223 C1247 0.951 . S
H1224 C1249 0.951 . S
H1225 C1251 0.950 1_655 S
H1226 C1252 0.949 . S
H1227 C1254 0.950 . S
H1228 C1257 0.950 . S
H1229 C1258 0.950 . S
H1230 C1260 0.950 . S
H1231 C1261 0.950 . S
C1232 H1214 0.959 . S
C1232 C1233 1.359 1_655 S
C1232 C1234 1.388 . S
C1233 C1232 1.359 1_455 S
C1233 C1237 1.385 . S
C1234 H1215 0.954 . S
C1234 C1232 1.388 . S
C1234 C1235 1.362 1_655 S
C1235 C1234 1.362 1_455 S
C1235 C1236 1.414 . S
C1235 C1238 1.499 . S
C1236 H1216 0.950 . S
C1236 C1235 1.414 . S
C1236 C1237 1.374 . S
C1237 H1217 0.950 . S
C1237 C1233 1.385 . S
C1237 C1236 1.374 . S
C1238 C1235 1.499 . S
C1238 C1239 1.373 . S
C1238 C1240 1.389 1_455 S
C1239 H1218 0.950 . S
C1239 C1238 1.373 . S
C1239 C1255 1.377 . S
C1240 C1238 1.389 1_655 S
C1240 C1241 1.524 . S
C1240 C1254 1.377 . S
C1241 C1240 1.524 . S
C1241 C1242 1.397 . S
C1241 C1246 1.363 . S
C1242 H1219 0.950 . S
C1242 C1241 1.397 . S
C1242 C1243 1.334 . S
C1243 H1220 0.950 . S
C1243 C1242 1.334 . S
C1243 C1244 1.287 . S
C1244 C1243 1.287 . S
C1244 C1245 1.524 . S
C1244 H1263 0.913 . S
C1245 H1221 0.950 . S
C1245 C1244 1.524 . S
C1245 C1246 1.415 . S
C1246 H1222 0.950 . S
C1246 C1241 1.363 . S
C1246 C1245 1.415 . S
C1247 H1223 0.951 . S
C1247 C1248 1.366 . S
C1247 C1249 1.388 . S
C1248 C1247 1.366 . S
C1248 C1252 1.385 . S
C1249 H1224 0.951 . S
C1249 C1247 1.388 . S
C1249 C1250 1.366 . S
C1250 C1249 1.366 . S
C1250 C1251 1.414 . S
C1250 C1253 1.499 . S
C1251 H1225 0.950 1_455 S
C1251 C1250 1.414 . S
C1251 C1252 1.374 . S
C1252 H1226 0.949 . S
C1252 C1248 1.385 . S
C1252 C1251 1.374 . S
C1253 C1250 1.499 . S
C1253 C1254 1.373 1_455 S
C1253 C1255 1.389 . S
C1254 H1227 0.950 . S
C1254 C1240 1.377 . S
C1254 C1253 1.373 1_655 S
C1255 C1239 1.377 . S
C1255 C1253 1.389 . S
C1255 C1256 1.524 . S
C1256 C1255 1.524 . S
C1256 C1257 1.397 . S
C1256 C1261 1.363 . S
C1257 H1228 0.950 . S
C1257 C1256 1.397 . S
C1257 C1258 1.334 . S
C1258 H1229 0.950 . S
C1258 C1257 1.334 . S
C1258 C1259 1.287 . S
C1259 C1258 1.287 . S
C1259 C1260 1.524 . S
C1259 H1262 0.999 . S
C1260 H1230 0.950 . S
C1260 C1259 1.524 . S
C1260 C1261 1.415 . S
C1261 H1231 0.950 . S
C1261 C1256 1.363 . S
C1261 C1260 1.415 . S
H1262 C1259 0.999 . S
H1263 C1244 0.913 . S
C283 C18 1.710 . S
C298 C150 1.711 . S
C333 C183 1.711 . S
C348 C51 1.710 . S
C383 C84 1.710 . S
C398 C216 1.711 . S
C433 C249 1.710 . S
C448 C117 1.710 . S
C483 C186 0.572 . S
C498 C21 0.574 . S
C533 C219 0.573 . S
C548 C54 0.574 . S
C583 C87 0.573 . S
C598 C252 0.574 . S
C633 C153 0.572 . S
C648 C120 0.575 . S
C683 C106 0.908 . S
C698 C205 0.907 . S
C733 C7 0.908 . S
C748 C238 0.906 . S
C783 C40 0.908 . S
C798 C139 0.906 . S
C833 C73 0.907 . S
C848 C172 0.907 . S
C883 N2 0.452 . S
C898 N68 0.454 . S
C933 N35 0.451 . S
C948 N101 0.451 . S
C983 N200 0.451 . S
C998 N134 0.452 . S
C1033 N233 0.453 . S
C1048 N167 0.451 . S
C1083 N13 0.981 . S
C1098 N79 0.982 . S
C1133 N112 0.982 . S
C1148 N46 0.981 . S
C1183 N145 0.982 . S
C1198 N211 0.981 . S
C1233 N178 0.982 . S
C1248 N244 0.982 . S
