# Generated by pormake.
# Topology smk, (6)-cn, num edge types: 1
# Building blocks:
#     Node 0, Type 0, BuildingBlock: OJICUG_clean_sbu_0, # of connection points: 6
#     Node 1, Type 0, BuildingBlock: OJICUG_clean_sbu_0, # of connection points: 6
#     Node 2, Type 0, BuildingBlock: OJICUG_clean_sbu_0, # of connection points: 6
#     Node 3, Type 0, BuildingBlock: OJICUG_clean_sbu_0, # of connection points: 6
#     Node 4, Type 0, BuildingBlock: OJICUG_clean_sbu_0, # of connection points: 6
#     Node 5, Type 0, BuildingBlock: OJICUG_clean_sbu_0, # of connection points: 6
#     Edge 6, Type (0, 0), BuildingBlock: XUDNAN_clean_linker_2, # of connection points: 2
#     Edge 7, Type (0, 0), BuildingBlock: XUDNAN_clean_linker_2, # of connection points: 2
#     Edge 8, Type (0, 0), BuildingBlock: XUDNAN_clean_linker_2, # of connection points: 2
#     Edge 9, Type (0, 0), BuildingBlock: XUDNAN_clean_linker_2, # of connection points: 2
#     Edge 10, Type (0, 0), BuildingBlock: XUDNAN_clean_linker_2, # of connection points: 2
#     Edge 11, Type (0, 0), BuildingBlock: XUDNAN_clean_linker_2, # of connection points: 2
#     Edge 12, Type (0, 0), BuildingBlock: XUDNAN_clean_linker_2, # of connection points: 2
#     Edge 13, Type (0, 0), BuildingBlock: XUDNAN_clean_linker_2, # of connection points: 2
#     Edge 14, Type (0, 0), BuildingBlock: XUDNAN_clean_linker_2, # of connection points: 2
#     Edge 15, Type (0, 0), BuildingBlock: XUDNAN_clean_linker_2, # of connection points: 2
#     Edge 16, Type (0, 0), BuildingBlock: XUDNAN_clean_linker_2, # of connection points: 2
#     Edge 17, Type (0, 0), BuildingBlock: XUDNAN_clean_linker_2, # of connection points: 2
#     Edge 18, Type (0, 0), BuildingBlock: XUDNAN_clean_linker_2, # of connection points: 2
#     Edge 19, Type (0, 0), BuildingBlock: XUDNAN_clean_linker_2, # of connection points: 2
#     Edge 20, Type (0, 0), BuildingBlock: XUDNAN_clean_linker_2, # of connection points: 2
#     Edge 21, Type (0, 0), BuildingBlock: XUDNAN_clean_linker_2, # of connection points: 2
#     Edge 22, Type (0, 0), BuildingBlock: XUDNAN_clean_linker_2, # of connection points: 2
#     Edge 23, Type (0, 0), BuildingBlock: XUDNAN_clean_linker_2, # of connection points: 2
# Relax obj value: 0.194
# Max RMSD: 0.221
# Mean RMSD: 0.221
data_MOF--net-smk--node1-OJICUG_clean_sbu_0--edge1-XUDNAN_clean_linker_2
_symmetry_space_group_name_H-M    P1
_symmetry_Int_Tables_number       1
_symmetry_cell_setting            triclinic
loop_
_symmetry_equiv_pos_as_xyz
'x, y, z'
_cell_length_a     43.618896
_cell_length_b     43.704714
_cell_length_c     15.905601
_cell_angle_alpha  90.010675
_cell_angle_beta   90.012286
_cell_angle_gamma 119.93937
loop_
_atom_site_label
_atom_site_type_symbol
_atom_site_fract_x
_atom_site_fract_y
_atom_site_fract_z
_atom_type_partial_charge
Sc0 Sc 0.45583 0.20481 0.5121 0.0
Sc1 Sc 0.37499 0.18689 0.60553 0.0
Sc2 Sc 0.45653 0.25562 0.6812 0.0
O3 O 0.4289 0.21556 0.59968 0.0
C4 C 0.5039 0.21997 0.67561 0.0
C5 C 0.39609 0.12793 0.56553 0.0
C6 C 0.3934 0.20038 0.79909 0.0
C7 C 0.38813 0.19329 0.40821 0.0
C8 C 0.50096 0.28747 0.51328 0.0
C9 C 0.3924 0.2668 0.63392 0.0
O10 O 0.49658 0.21106 0.59896 0.0
O11 O 0.37408 0.13741 0.58852 0.0
O12 O 0.4223 0.22839 0.78391 0.0
O13 O 0.41907 0.19778 0.41519 0.0
O14 O 0.49521 0.28953 0.59063 0.0
O15 O 0.37108 0.23398 0.62192 0.0
O16 O 0.48603 0.25874 0.47249 0.0
O17 O 0.36862 0.19003 0.47091 0.0
O18 O 0.4252 0.27954 0.64965 0.0
O19 O 0.42737 0.14955 0.54129 0.0
O20 O 0.48919 0.2337 0.7184 0.0
O21 O 0.37386 0.17984 0.74105 0.0
Sc22 Sc 0.23778 0.45081 0.63752 0.0
Sc23 Sc 0.18061 0.37132 0.73568 0.0
Sc24 Sc 0.20402 0.45084 0.83504 0.0
O25 O 0.20788 0.42466 0.7361 0.0
C26 C 0.28553 0.50035 0.78329 0.0
C27 C 0.25492 0.38806 0.67535 0.0
C28 C 0.19739 0.38822 0.93202 0.0
C29 C 0.18 0.38704 0.53988 0.0
C30 C 0.20169 0.49691 0.68602 0.0
C31 C 0.12459 0.3896 0.79702 0.0
O32 O 0.28208 0.48521 0.71308 0.0
O33 O 0.22928 0.37065 0.7261 0.0
O34 O 0.21694 0.42091 0.91829 0.0
O35 O 0.19622 0.42008 0.55134 0.0
O36 O 0.19155 0.48294 0.75802 0.0
O37 O 0.1326 0.37338 0.74252 0.0
O38 O 0.21987 0.48922 0.63645 0.0
O39 O 0.17575 0.36569 0.59899 0.0
O40 O 0.14724 0.41365 0.84536 0.0
O41 O 0.25874 0.41472 0.63312 0.0
O42 O 0.25973 0.4916 0.83371 0.0
O43 O 0.17986 0.36674 0.87326 0.0
Sc44 Sc 0.78996 0.24785 0.85378 0.0
Sc45 Sc 0.82585 0.20024 0.94877 0.0
Sc46 Sc 0.74781 0.19423 0.02776 0.0
O47 O 0.78777 0.21401 0.94378 0.0
C48 C 0.77342 0.27733 0.01808 0.0
C49 C 0.87254 0.27874 0.89666 0.0
C50 C 0.81015 0.20099 0.14412 0.0
C51 C 0.81097 0.20064 0.75071 0.0
C52 C 0.70581 0.20011 0.87293 0.0
C53 C 0.75491 0.12689 0.97981 0.0
O54 O 0.78815 0.28244 0.94636 0.0
O55 O 0.86782 0.25399 0.94612 0.0
O56 O 0.78119 0.20017 0.13054 0.0
O57 O 0.79143 0.21443 0.75812 0.0
O58 O 0.70755 0.18478 0.93864 0.0
O59 O 0.78662 0.14533 0.95366 0.0
O60 O 0.73323 0.22394 0.83626 0.0
O61 O 0.82771 0.19703 0.81212 0.0
O62 O 0.73688 0.14037 0.00825 0.0
O63 O 0.84741 0.2782 0.8547 0.0
O64 O 0.75709 0.24715 0.05408 0.0
O65 O 0.83 0.20141 0.08514 0.0
Sc66 Sc 0.55134 0.80079 0.98076 0.0
Sc67 Sc 0.62371 0.79416 0.05553 0.0
Sc68 Sc 0.53964 0.74308 0.14574 0.0
O69 O 0.5716 0.77939 0.06025 0.0
C70 C 0.504 0.7918 0.13788 0.0
C71 C 0.62587 0.86764 0.03038 0.0
C72 C 0.60702 0.79028 0.25326 0.0
C73 C 0.60639 0.79467 0.86091 0.0
C74 C 0.49354 0.71746 0.9819 0.0
C75 C 0.59285 0.71461 0.09931 0.0
O76 O 0.52199 0.80974 0.07552 0.0
O77 O 0.6391 0.84899 0.05483 0.0
O78 O 0.57358 0.77463 0.24485 0.0
O79 O 0.57822 0.79541 0.87553 0.0
O80 O 0.50408 0.71036 0.04987 0.0
O81 O 0.61335 0.74086 0.05419 0.0
O82 O 0.50681 0.74863 0.95158 0.0
O83 O 0.62615 0.79418 0.9191 0.0
O84 O 0.56719 0.71335 0.14024 0.0
O85 O 0.59445 0.85434 0.00175 0.0
O86 O 0.50625 0.76593 0.16691 0.0
O87 O 0.62825 0.79614 0.19225 0.0
Sc88 Sc 0.75761 0.54753 0.15818 0.0
Sc89 Sc 0.81083 0.62635 0.26297 0.0
Sc90 Sc 0.78963 0.54636 0.35709 0.0
O91 O 0.78609 0.57308 0.25956 0.0
C92 C 0.708 0.49981 0.30385 0.0
C93 C 0.73693 0.6069 0.19746 0.0
C94 C 0.79505 0.60855 0.45854 0.0
C95 C 0.81475 0.61185 0.06685 0.0
C96 C 0.7903 0.49867 0.2096 0.0
C97 C 0.86914 0.61063 0.32388 0.0
O98 O 0.71237 0.51404 0.23197 0.0
O99 O 0.76015 0.62284 0.25429 0.0
O100 O 0.77765 0.57572 0.44463 0.0
O101 O 0.80145 0.579 0.07858 0.0
O102 O 0.80096 0.51322 0.28075 0.0
O103 O 0.86078 0.62832 0.2743 0.0
O104 O 0.77342 0.50743 0.15872 0.0
O105 O 0.81607 0.63229 0.12568 0.0
O106 O 0.84642 0.58314 0.36393 0.0
O107 O 0.7371 0.58395 0.14787 0.0
O108 O 0.73345 0.50755 0.35494 0.0
O109 O 0.8109 0.63068 0.39996 0.0
Sc110 Sc 0.20326 0.74851 0.32124 0.0
Sc111 Sc 0.18923 0.81454 0.41373 0.0
Sc112 Sc 0.25548 0.79799 0.49051 0.0
O113 O 0.21593 0.78711 0.40828 0.0
C114 C 0.21653 0.71452 0.48417 0.0
C115 C 0.12739 0.73577 0.37628 0.0
C116 C 0.20137 0.80769 0.60803 0.0
C117 C 0.19558 0.80675 0.21646 0.0
C118 C 0.28665 0.78379 0.32321 0.0
C119 C 0.26968 0.87463 0.44655 0.0
O120 O 0.20582 0.71257 0.40912 0.0
O121 O 0.13847 0.76741 0.39988 0.0
O122 O 0.22776 0.80377 0.5935 0.0
O123 O 0.19955 0.78001 0.22362 0.0
O124 O 0.28936 0.79462 0.39814 0.0
O125 O 0.23752 0.86457 0.42873 0.0
O126 O 0.2575 0.76788 0.28371 0.0
O127 O 0.19205 0.82294 0.27887 0.0
O128 O 0.2806 0.85342 0.46525 0.0
O129 O 0.14767 0.72482 0.34918 0.0
O130 O 0.23324 0.74335 0.52452 0.0
O131 O 0.18266 0.80994 0.54957 0.0
H132 H 0.4242 0.23944 0.28573 0.0
H133 H 0.32544 0.14363 0.33609 0.0
H134 H 0.31269 0.13574 0.18262 0.0
H135 H 0.39334 0.26912 0.10052 0.0
H136 H 0.43569 0.28595 0.04981 0.0
H137 H 0.43306 0.28609 0.16284 0.0
H138 H 0.46651 0.25107 0.17111 0.0
H139 H 0.46854 0.25002 0.05842 0.0
H140 H 0.44883 0.20934 0.1172 0.0
H141 H 0.31606 0.13508 0.01956 0.0
H142 H 0.33268 0.14435 0.86835 0.0
H143 H 0.42957 0.24046 0.9336 0.0
C144 C 0.39929 0.21746 0.26451 0.0
C145 C 0.37558 0.19234 0.32195 0.0
C146 C 0.34353 0.16351 0.29255 0.0
C147 C 0.33629 0.15874 0.20564 0.0
C148 C 0.3612 0.18335 0.14998 0.0
C149 C 0.39172 0.21253 0.17895 0.0
C150 C 0.4157 0.23399 0.10796 0.0
C151 C 0.41966 0.27097 0.10511 0.0
C152 C 0.45201 0.2362 0.11409 0.0
C153 C 0.39466 0.21183 0.03415 0.0
C154 C 0.36315 0.18284 0.05861 0.0
C155 C 0.34047 0.15802 -0.00011 0.0
C156 C 0.3502 0.16335 0.91424 0.0
C157 C 0.38244 0.19311 0.88862 0.0
C158 C 0.40466 0.21741 0.95013 0.0
H159 H 0.17585 0.42391 0.40747 0.0
H160 H 0.1652 0.32268 0.47251 0.0
H161 H 0.16293 0.30839 0.32086 0.0
H162 H 0.12178 0.39599 0.21207 0.0
H163 H 0.15146 0.43737 0.16183 0.0
H164 H 0.14492 0.43571 0.27396 0.0
H165 H 0.21267 0.46437 0.29576 0.0
H166 H 0.2194 0.46545 0.18417 0.0
H167 H 0.23563 0.44345 0.2514 0.0
H168 H 0.16881 0.30896 0.15796 0.0
H169 H 0.18198 0.32459 0.0064 0.0
H170 H 0.19293 0.42699 0.05759 0.0
C171 C 0.17201 0.39824 0.39028 0.0
C172 C 0.1706 0.3744 0.452 0.0
C173 C 0.16589 0.34124 0.42637 0.0
C174 C 0.16475 0.33298 0.3403 0.0
C175 C 0.16812 0.35807 0.28102 0.0
C176 C 0.17126 0.38989 0.30552 0.0
C177 C 0.17811 0.41414 0.23173 0.0
C178 C 0.14722 0.4212 0.21916 0.0
C179 C 0.21355 0.44887 0.24139 0.0
C180 C 0.17966 0.39167 0.16182 0.0
C181 C 0.17311 0.35908 0.19022 0.0
C182 C 0.17382 0.33439 0.13533 0.0
C183 C 0.18144 0.34346 0.04963 0.0
C184 C 0.18918 0.37722 0.02086 0.0
C185 C 0.18789 0.40123 0.07797 0.0
H186 H 0.76418 0.17971 0.27394 0.0
H187 H 0.87412 0.21503 0.2159 0.0
H188 H 0.88527 0.21054 0.36765 0.0
H189 H 0.77851 0.22777 0.45533 0.0
H190 H 0.73959 0.1942 0.50793 0.0
H191 H 0.74062 0.19664 0.39522 0.0
H192 H 0.72565 0.13128 0.38713 0.0
H193 H 0.72496 0.12878 0.50026 0.0
H194 H 0.75341 0.11787 0.44091 0.0
H195 H 0.88424 0.20698 0.53007 0.0
H196 H 0.87232 0.20858 0.68214 0.0
H197 H 0.76295 0.17528 0.62534 0.0
C198 C 0.79073 0.18643 0.29231 0.0
C199 C 0.81841 0.19809 0.23303 0.0
C200 C 0.85253 0.20612 0.26036 0.0
C201 C 0.859 0.20346 0.34622 0.0
C202 C 0.8309 0.19216 0.40298 0.0
C203 C 0.79744 0.18371 0.37641 0.0
C204 C 0.77195 0.17462 0.44855 0.0
C205 C 0.75682 0.19982 0.45194 0.0
C206 C 0.74225 0.13583 0.44391 0.0
C207 C 0.79646 0.18057 0.52109 0.0
C208 C 0.83025 0.19 0.49426 0.0
C209 C 0.85776 0.19908 0.55146 0.0
C210 C 0.85073 0.19971 0.63763 0.0
C211 C 0.81666 0.19186 0.66492 0.0
C212 C 0.78913 0.1811 0.60602 0.0
H213 H 0.58064 0.81238 0.37713 0.0
H214 H 0.66293 0.78716 0.32402 0.0
H215 H 0.67652 0.79052 0.47653 0.0
H216 H 0.6251 0.87231 0.55952 0.0
H217 H 0.5833 0.85631 0.6124 0.0
H218 H 0.58522 0.85798 0.49922 0.0
H219 H 0.53818 0.79137 0.49366 0.0
H220 H 0.53662 0.78926 0.60643 0.0
H221 H 0.54657 0.76002 0.54768 0.0
H222 H 0.67425 0.78824 0.63886 0.0
H223 H 0.65889 0.78439 0.7905 0.0
H224 H 0.57773 0.81061 0.72886 0.0
C225 C 0.60226 0.80863 0.39737 0.0
C226 C 0.62083 0.79965 0.33945 0.0
C227 C 0.64876 0.79459 0.36782 0.0
C228 C 0.65649 0.79626 0.4542 0.0
C229 C 0.63639 0.8036 0.51039 0.0
C230 C 0.6103 0.81036 0.48245 0.0
C231 C 0.59034 0.81481 0.55421 0.0
C232 C 0.59637 0.8526 0.55647 0.0
C233 C 0.55061 0.78721 0.55021 0.0
C234 C 0.60816 0.80805 0.62718 0.0
C235 C 0.63496 0.80204 0.60167 0.0
C236 C 0.65364 0.79344 0.65943 0.0
C237 C 0.64465 0.79113 0.74525 0.0
C238 C 0.61695 0.79693 0.77169 0.0
C239 C 0.59892 0.80575 0.71133 0.0
H240 H 0.80293 0.57197 0.58422 0.0
H241 H 0.8052 0.67048 0.53315 0.0
H242 H 0.81745 0.68652 0.68477 0.0
H243 H 0.76 0.55276 0.77753 0.0
H244 H 0.78557 0.53469 0.82209 0.0
H245 H 0.77878 0.53311 0.71041 0.0
H246 H 0.84675 0.56562 0.68738 0.0
H247 H 0.85372 0.56768 0.79937 0.0
H248 H 0.87427 0.60761 0.73772 0.0
H249 H 0.8239 0.68772 0.84788 0.0
H250 H 0.8237 0.67423 -0.00052 0.0
H251 H 0.82175 0.57695 0.93376 0.0
C252 C 0.80585 0.59694 0.60465 0.0
C253 C 0.8024 0.61971 0.54752 0.0
C254 C 0.80741 0.65254 0.57637 0.0
C255 C 0.81451 0.66184 0.66212 0.0
C256 C 0.81748 0.63841 0.71699 0.0
C257 C 0.81366 0.60682 0.6885 0.0
C258 C 0.81734 0.58559 0.75844 0.0
C259 C 0.78341 0.54943 0.76766 0.0
C260 C 0.84997 0.5814 0.7449 0.0
C261 C 0.82251 0.60938 0.83213 0.0
C262 C 0.82279 0.6399 0.80776 0.0
C263 C 0.82435 0.6642 0.86717 0.0
C264 C 0.82444 0.65643 0.95321 0.0
C265 C 0.82287 0.62458 0.97872 0.0
C266 C 0.82323 0.60165 0.91678 0.0
H267 H 0.24118 0.8154 0.09348 0.0
H268 H 0.14704 0.82164 0.14519 0.0
H269 H 0.13917 0.82687 0.99193 0.0
H270 H 0.27198 0.87584 0.90793 0.0
H271 H 0.28766 0.8494 0.857 0.0
H272 H 0.28819 0.85238 0.97002 0.0
H273 H 0.25154 0.78405 0.97879 0.0
H274 H 0.25011 0.78082 0.86614 0.0
H275 H 0.2095 0.76091 0.92548 0.0
H276 H 0.13807 0.82278 0.82886 0.0
H277 H 0.14656 0.81469 0.67752 0.0
H278 H 0.24118 0.81055 0.74193 0.0
C279 C 0.2196 0.81911 0.0726 0.0
C280 C 0.1949 0.81848 0.1303 0.0
C281 C 0.16659 0.82277 0.10139 0.0
C282 C 0.16183 0.82549 0.01462 0.0
C283 C 0.18596 0.82437 0.95865 0.0
C284 C 0.2147 0.82201 0.98719 0.0
C285 C 0.23558 0.81868 0.91596 0.0
C286 C 0.27306 0.85101 0.91252 0.0
C287 C 0.23671 0.78406 0.922 0.0
C288 C 0.2135 0.81815 0.84258 0.0
C289 C 0.18515 0.82179 0.86735 0.0
C290 C 0.16051 0.82042 0.80894 0.0
C291 C 0.16539 0.81559 0.72325 0.0
C292 C 0.19444 0.81183 0.69745 0.0
C293 C 0.21857 0.81323 0.75864 0.0
H294 H 0.32768 0.07379 0.55526 0.0
H295 H 0.4366 0.09636 0.55306 0.0
H296 H 0.41608 0.03399 0.51873 0.0
H297 H 0.28867 0.98522 0.64479 0.0
H298 H 0.24959 0.96857 0.58028 0.0
H299 H 0.273 0.01436 0.61076 0.0
H300 H 0.27871 0.03239 0.45376 0.0
H301 H 0.25597 0.98667 0.4227 0.0
H302 H 0.29928 0.01647 0.38105 0.0
H303 H 0.38394 0.96995 0.47933 0.0
H304 H 0.34199 0.90748 0.44613 0.0
H305 H 0.25443 0.92768 0.46953 0.0
C306 C 0.34721 0.06551 0.54945 0.0
C307 C 0.38373 0.08989 0.55728 0.0
C308 C 0.40846 0.07809 0.54748 0.0
C309 C 0.39709 0.04278 0.52776 0.0
C310 C 0.36097 0.01973 0.51775 0.0
C311 C 0.33638 0.03051 0.52895 0.0
C312 C 0.2992 0.00075 0.5121 0.0
C313 C 0.27627 0.99169 0.59173 0.0
C314 C 0.28231 0.00962 0.43799 0.0
C315 C 0.30675 0.97155 0.48944 0.0
C316 C 0.34252 0.98302 0.49317 0.0
C317 C 0.35585 0.96062 0.47627 0.0
C318 C 0.33184 0.92525 0.45722 0.0
C319 C 0.29497 0.91276 0.45485 0.0
C320 C 0.28247 0.9365 0.46966 0.0
H321 H 0.32485 0.25098 0.66967 0.0
H322 H 0.42768 0.33742 0.59646 0.0
H323 H 0.40349 0.378 0.59689 0.0
H324 H 0.27135 0.27703 0.55055 0.0
H325 H 0.23819 0.26396 0.6314 0.0
H326 H 0.26334 0.24167 0.62163 0.0
H327 H 0.28286 0.25607 0.77738 0.0
H328 H 0.25786 0.27849 0.78758 0.0
H329 H 0.30437 0.3013 0.81263 0.0
H330 H 0.36752 0.4087 0.60316 0.0
H331 H 0.32357 0.42808 0.62302 0.0
H332 H 0.24554 0.32196 0.70008 0.0
C333 C 0.3422 0.27837 0.65287 0.0
C334 C 0.37804 0.29105 0.63225 0.0
C335 C 0.40011 0.32721 0.61234 0.0
C336 C 0.3866 0.35039 0.61223 0.0
C337 C 0.35115 0.33703 0.63324 0.0
C338 C 0.32935 0.30192 0.65387 0.0
C339 C 0.29266 0.29446 0.67752 0.0
C340 C 0.26474 0.2677 0.61662 0.0
C341 C 0.28394 0.28185 0.76922 0.0
C342 C 0.29713 0.33083 0.66663 0.0
C343 C 0.33094 0.35497 0.6403 0.0
C344 C 0.34103 0.39008 0.62418 0.0
C345 C 0.31588 0.40081 0.63543 0.0
C346 C 0.28125 0.37657 0.66358 0.0
C347 C 0.27193 0.34119 0.67947 0.0
H348 H 0.93186 0.29772 0.9919 0.0
H349 H 0.89665 0.32064 0.75707 0.0
H350 H 0.95867 0.3569 0.71182 0.0
H351 H 0.0153 0.38657 0.01125 0.0
H352 H 0.03931 0.36669 0.05526 0.0
H353 H 0.99254 0.34731 0.07474 0.0
H354 H 0.98244 0.28765 0.01636 0.0
H355 H 0.02894 0.30688 0.99535 0.0
H356 H 0.99734 0.28588 0.91168 0.0
H357 H 0.02251 0.38009 0.68056 0.0
H358 H 0.08555 0.39621 0.67395 0.0
H359 H 0.08053 0.36241 0.93204 0.0
C360 C 0.93724 0.31129 0.93211 0.0
C361 C 0.90938 0.30634 0.87806 0.0
C362 C 0.9175 0.32429 0.79996 0.0
C363 C 0.95268 0.34486 0.77351 0.0
C364 C 0.97944 0.34789 0.82668 0.0
C365 C 0.97225 0.33239 0.90532 0.0
C366 C 0.00572 0.33795 0.94807 0.0
C367 C 0.01369 0.36101 0.02701 0.0
C368 C 0.00345 0.30248 0.96904 0.0
C369 C 0.03256 0.35742 0.87947 0.0
C370 C 0.01683 0.36293 0.80999 0.0
C371 C 0.03537 0.37692 0.73537 0.0
C372 C 0.07094 0.38572 0.73189 0.0
C373 C 0.08756 0.38089 0.80283 0.0
C374 C 0.06834 0.36699 0.87776 0.0
H375 H 0.60861 0.9208 0.0198 0.0
H376 H 0.69762 0.90231 0.03433 0.0
H377 H 0.73877 0.96579 0.02089 0.0
H378 H 0.64639 0.99128 0.8695 0.0
H379 H 0.62959 0.01721 0.91818 0.0
H380 H 0.606 0.96988 0.92965 0.0
H381 H 0.60878 0.97646 0.09172 0.0
H382 H 0.63214 0.02382 0.08074 0.0
H383 H 0.65103 0.00272 0.14236 0.0
H384 H 0.77047 0.02941 0.99781 0.0
H385 H 0.79244 0.09272 0.98173 0.0
H386 H 0.68456 0.07344 0.98991 0.0
C387 C 0.63675 0.9302 0.02063 0.0
C388 C 0.64977 0.90641 0.02813 0.0
C389 C 0.68683 0.91982 0.02931 0.0
C390 C 0.71055 0.95591 0.02122 0.0
C391 C 0.69697 0.97852 0.01304 0.0
C392 C 0.66108 0.96653 0.014 0.0
C393 C 0.65408 0.99719 0.00604 0.0
C394 C 0.63275 0.99367 0.92607 0.0
C395 C 0.6354 0.00022 0.08492 0.0
C396 C 0.69169 0.02802 -0.0005 0.0
C397 C 0.71578 0.01629 0.00287 0.0
C398 C 0.75198 0.03908 0.99574 0.0
C399 C 0.76414 0.07506 0.98606 0.0
C400 C 0.74026 0.0882 0.98449 0.0
C401 C 0.70346 0.06424 0.99123 0.0
H402 H 0.72408 0.63909 0.06657 0.0
H403 H 0.686 0.59312 0.31234 0.0
H404 H 0.63792 0.60755 0.3025 0.0
H405 H 0.71353 0.71223 0.10017 0.0
H406 H 0.70082 0.71493 0.99378 0.0
H407 H 0.72823 0.69581 0.0143 0.0
H408 H 0.6829 0.63859 0.93742 0.0
H409 H 0.65515 0.65752 0.91732 0.0
H410 H 0.63735 0.61577 0.97103 0.0
H411 H 0.59695 0.63037 0.27035 0.0
H412 H 0.57104 0.66689 0.22835 0.0
H413 H 0.63815 0.70148 0.0068 0.0
C414 C 0.70508 0.63153 0.11726 0.0
C415 C 0.70808 0.6147 0.18973 0.0
C416 C 0.68366 0.6059 0.25628 0.0
C417 C 0.65623 0.61371 0.25085 0.0
C418 C 0.65397 0.63062 0.17876 0.0
C419 C 0.678 0.63984 0.11356 0.0
C420 C 0.67242 0.66175 0.0481 0.0
C421 C 0.70572 0.69834 0.03861 0.0
C422 C 0.66129 0.64223 0.96345 0.0
C423 C 0.64223 0.6643 0.08791 0.0
C424 C 0.63133 0.64533 0.16199 0.0
C425 C 0.60501 0.64508 0.21207 0.0
C426 C 0.59034 0.66583 0.18744 0.0
C427 C 0.60257 0.6871 0.11428 0.0
C428 C 0.6281 0.68538 0.0628 0.0
H429 H 0.92468 0.67816 0.31323 0.0
H430 H 0.89884 0.5704 0.36492 0.0
H431 H 0.96231 0.59066 0.3863 0.0
H432 H 0.00553 0.7054 0.20238 0.0
H433 H 0.02778 0.74909 0.24735 0.0
H434 H 0.98043 0.72589 0.23516 0.0
H435 H 0.97323 0.73369 0.39422 0.0
H436 H 0.02058 0.75685 0.40696 0.0
H437 H 0.99331 0.71844 0.47011 0.0
H438 H 0.02893 0.6225 0.39475 0.0
H439 H 0.09347 0.6642 0.3992 0.0
H440 H 0.0748 0.75133 0.35183 0.0
C441 C 0.93241 0.65882 0.32867 0.0
C442 C 0.90698 0.62271 0.33684 0.0
C443 C 0.91799 0.59822 0.35847 0.0
C444 C 0.95392 0.60946 0.37055 0.0
C445 C 0.97835 0.6453 0.36206 0.0
C446 C 0.96803 0.66965 0.34251 0.0
C447 C -0.00061 0.70673 0.33904 0.0
C448 C 0.00352 0.7227 0.25073 0.0
C449 C 0.99644 0.73031 0.40662 0.0
C450 C 0.02904 0.69939 0.35866 0.0
C451 C 0.01643 0.66378 0.37108 0.0
C452 C 0.03909 0.6505 0.38611 0.0
C453 C 0.07562 0.6743 0.38833 0.0
C454 C 0.08896 0.71093 0.37684 0.0
C455 C 0.06527 0.72352 0.36243 0.0
H456 H 0.56125 0.34217 0.57808 0.0
H457 H 0.49879 0.30492 0.34977 0.0
H458 H 0.54278 0.35884 0.27554 0.0
H459 H 0.59473 0.43689 0.54884 0.0
H460 H 0.63805 0.44917 0.58873 0.0
H461 H 0.59979 0.40972 0.62657 0.0
H462 H 0.62885 0.3727 0.58438 0.0
H463 H 0.66717 0.41198 0.54668 0.0
H464 H 0.64367 0.37462 0.47769 0.0
H465 H 0.59372 0.41512 0.22583 0.0
H466 H 0.65153 0.46729 0.19754 0.0
H467 H 0.68322 0.46639 0.45632 0.0
C468 C 0.55661 0.34575 0.51285 0.0
C469 C 0.52659 0.31982 0.46956 0.0
C470 C 0.52169 0.32469 0.38374 0.0
C471 C 0.54634 0.35525 0.34142 0.0
C472 C 0.5758 0.38028 0.38579 0.0
C473 C 0.58129 0.37571 0.46927 0.0
C474 C 0.61677 0.40497 0.50002 0.0
C475 C 0.61204 0.42646 0.5702 0.0
C476 C 0.64051 0.39018 0.52885 0.0
C477 C 0.63061 0.42646 0.42031 0.0
C478 C 0.6062 0.41209 0.35584 0.0
C479 C 0.61304 0.42671 0.27578 0.0
C480 C 0.64603 0.45645 0.26053 0.0
C481 C 0.67207 0.47097 0.32474 0.0
C482 C 0.66393 0.45598 0.406 0.0
H483 H 0.21367 0.53214 0.53478 0.0
H484 H 0.17537 0.52819 0.78918 0.0
H485 H 0.17207 0.58167 0.76196 0.0
H486 H 0.26813 0.62307 0.52258 0.0
H487 H 0.25822 0.62762 0.41483 0.0
H488 H 0.25448 0.58678 0.4502 0.0
H489 H 0.18927 0.55244 0.40011 0.0
H490 H 0.19292 0.59315 0.3635 0.0
H491 H 0.15852 0.5657 0.43666 0.0
H492 H 0.18124 0.63978 0.71608 0.0
H493 H 0.19455 0.6955 0.64531 0.0
H494 H 0.22228 0.66019 0.41775 0.0
C495 C 0.2039 0.5421 0.58414 0.0
C496 C 0.19497 0.52594 0.66416 0.0
C497 C 0.18237 0.53993 0.72718 0.0
C498 C 0.18042 0.57041 0.71255 0.0
C499 C 0.1905 0.58631 0.63411 0.0
C500 C 0.20124 0.57232 0.57022 0.0
C501 C 0.21147 0.59533 0.49245 0.0
C502 C 0.25038 0.609 0.46868 0.0
C503 C 0.18655 0.57547 0.41883 0.0
C504 C 0.2059 0.62491 0.5239 0.0
C505 C 0.19397 0.61924 0.60597 0.0
C506 C 0.18978 0.64424 0.65115 0.0
C507 C 0.19762 0.6758 0.6109 0.0
C508 C 0.20893 0.68164 0.52625 0.0
C509 C 0.21294 0.65585 0.48213 0.0
H510 H 0.68698 0.22212 0.72832 0.0
H511 H 0.64425 0.16421 0.96122 0.0
H512 H 0.58792 0.16215 0.93403 0.0
H513 H 0.64819 0.27491 0.73936 0.0
H514 H 0.63751 0.27286 0.62928 0.0
H515 H 0.67414 0.26765 0.66209 0.0
H516 H 0.64705 0.20733 0.58573 0.0
H517 H 0.61059 0.21262 0.55133 0.0
H518 H 0.60223 0.17369 0.60893 0.0
H519 H 0.5396 0.17388 0.89388 0.0
H520 H 0.49769 0.18941 0.82818 0.0
H521 H 0.56839 0.23454 0.61531 0.0
C522 C 0.66552 0.2083 0.77257 0.0
C523 C 0.67032 0.19351 0.84709 0.0
C524 C 0.64146 0.17572 0.90348 0.0
C525 C 0.60926 0.17451 0.88894 0.0
C526 C 0.60587 0.19048 0.81678 0.0
C527 C 0.63276 0.20617 0.7582 0.0
C528 C 0.622 0.22148 0.68602 0.0
C529 C 0.64695 0.2616 0.67882 0.0
C530 C 0.62036 0.20264 0.60309 0.0
C531 C 0.58539 0.21285 0.71478 0.0
C532 C 0.57681 0.1953 0.79087 0.0
C533 C 0.54561 0.18691 0.83335 0.0
C534 C 0.52216 0.19606 0.79613 0.0
C535 C 0.52983 0.21278 0.71676 0.0
C536 C 0.56181 0.22126 0.67562 0.0
H537 H 0.43549 0.661 0.0498 0.0
H538 H 0.48641 0.70714 0.8122 0.0
H539 H 0.43971 0.65503 0.73698 0.0
H540 H 0.40587 0.57064 0.0011 0.0
H541 H 0.36387 0.55365 0.05369 0.0
H542 H 0.40151 0.59413 0.08927 0.0
H543 H 0.36613 0.62689 0.07168 0.0
H544 H 0.32826 0.58643 0.03694 0.0
H545 H 0.34581 0.62532 0.97185 0.0
H546 H 0.39006 0.59702 0.68946 0.0
H547 H 0.33548 0.54047 0.6678 0.0
H548 H 0.31338 0.53346 0.9357 0.0
C549 C 0.43671 0.66005 0.98189 0.0
C550 C 0.46457 0.68777 0.93643 0.0
C551 C 0.46517 0.6861 0.84776 0.0
C552 C 0.43894 0.65658 0.80478 0.0
C553 C 0.41207 0.62945 0.85155 0.0
C554 C 0.4103 0.63121 0.93793 0.0
C555 C 0.37766 0.59921 0.97266 0.0
C556 C 0.38785 0.57817 0.03273 0.0
C557 C 0.35301 0.61012 0.01581 0.0
C558 C 0.3615 0.57892 0.89223 0.0
C559 C 0.38217 0.59669 0.82348 0.0
C560 C 0.3735 0.583 0.74263 0.0
C561 C 0.34248 0.55063 0.73124 0.0
C562 C 0.32003 0.53241 0.80014 0.0
C563 C 0.32989 0.54675 0.88185 0.0
H564 H 0.78075 0.46317 0.05868 0.0
H565 H 0.80657 0.46201 0.32227 0.0
H566 H 0.80449 0.40544 0.30156 0.0
H567 H 0.72078 0.37185 0.03719 0.0
H568 H 0.73513 0.36767 0.93371 0.0
H569 H 0.73987 0.40921 0.96694 0.0
H570 H 0.80705 0.44068 0.93506 0.0
H571 H 0.80243 0.39931 0.90057 0.0
H572 H 0.83375 0.42437 0.982 0.0
H573 H 0.79355 0.34621 0.25761 0.0
H574 H 0.78384 0.29185 0.18569 0.0
H575 H 0.76996 0.33271 0.94889 0.0
C576 C 0.78649 0.45127 0.11164 0.0
C577 C 0.79372 0.46717 0.19207 0.0
C578 C 0.80111 0.45064 0.25979 0.0
C579 C 0.7998 0.41828 0.24898 0.0
C580 C 0.7917 0.4029 0.16975 0.0
C581 C 0.786 0.41912 0.10167 0.0
C582 C 0.77835 0.39687 0.023 0.0
C583 C 0.74133 0.38575 0.9882 0.0
C584 C 0.80712 0.41648 0.95622 0.0
C585 C 0.78003 0.36549 0.05821 0.0
C586 C 0.78731 0.36934 0.14325 0.0
C587 C 0.78837 0.34305 0.19071 0.0
C588 C 0.78257 0.31222 0.14966 0.0
C589 C 0.77645 0.30837 0.06202 0.0
C590 C 0.77503 0.33529 0.01593 0.0
H591 H 0.44242 0.74552 0.21795 0.0
H592 H 0.50235 0.85337 0.127 0.0
H593 H 0.45226 0.86246 0.16123 0.0
H594 H 0.36026 0.72772 0.13408 0.0
H595 H 0.33415 0.7011 0.22118 0.0
H596 H 0.37564 0.70362 0.19648 0.0
H597 H 0.39816 0.7246 0.34808 0.0
H598 H 0.35645 0.72141 0.37373 0.0
H599 H 0.39712 0.76236 0.39024 0.0
H600 H 0.39509 0.85927 0.20051 0.0
H601 H 0.33545 0.84469 0.25031 0.0
H602 H 0.31201 0.7385 0.31013 0.0
C603 C 0.44535 0.77132 0.20718 0.0
C604 C 0.4764 0.79886 0.17048 0.0
C605 C 0.47885 0.83196 0.15541 0.0
C606 C 0.45052 0.83734 0.17435 0.0
C607 C 0.41985 0.80928 0.20781 0.0
C608 C 0.41716 0.77701 0.22477 0.0
C609 C 0.38081 0.75084 0.25817 0.0
C610 C 0.3616 0.71894 0.19892 0.0
C611 C 0.38329 0.73913 0.34789 0.0
C612 C 0.3635 0.77346 0.25734 0.0
C613 C 0.38649 0.8071 0.22803 0.0
C614 C 0.37679 0.83298 0.22311 0.0
C615 C 0.34292 0.82448 0.25076 0.0
C616 C 0.3193 0.79037 0.28174 0.0
C617 C 0.32952 0.76448 0.28446 0.0
loop_
_geom_bond_atom_site_label_1
_geom_bond_atom_site_label_2
_geom_bond_distance
_geom_bond_site_symmetry_2
_ccdc_geom_bond_type
Sc0 O3 2.025 . S
Sc0 O10 2.105 . S
Sc0 O13 2.105 . S
Sc0 O16 2.105 . S
Sc0 O19 2.105 . S
Sc1 O3 2.025 . S
Sc1 O11 2.105 . S
Sc1 O15 2.105 . S
Sc1 O17 2.105 . S
Sc1 O21 2.105 . S
Sc2 O3 2.025 . S
Sc2 O12 2.105 . S
Sc2 O14 2.105 . S
Sc2 O18 2.105 . S
Sc2 O20 2.105 . S
O3 Sc0 2.025 . S
O3 Sc1 2.025 . S
O3 Sc2 2.025 . S
C4 O10 1.268 . S
C4 O20 1.268 . S
C5 O11 1.268 . S
C5 O19 1.268 . S
C6 O12 1.268 . S
C6 O21 1.268 . S
C7 O13 1.268 . S
C7 O17 1.268 . S
C8 O14 1.268 . S
C8 O16 1.268 . S
C9 O15 1.268 . S
C9 O18 1.268 . S
O10 Sc0 2.105 . S
O10 C4 1.268 . S
O11 Sc1 2.105 . S
O11 C5 1.268 . S
O12 Sc2 2.105 . S
O12 C6 1.268 . S
O13 Sc0 2.105 . S
O13 C7 1.268 . S
O14 Sc2 2.105 . S
O14 C8 1.268 . S
O15 Sc1 2.105 . S
O15 C9 1.268 . S
O16 Sc0 2.105 . S
O16 C8 1.268 . S
O17 Sc1 2.105 . S
O17 C7 1.268 . S
O18 Sc2 2.105 . S
O18 C9 1.268 . S
O19 Sc0 2.105 . S
O19 C5 1.268 . S
O20 Sc2 2.105 . S
O20 C4 1.268 . S
O21 Sc1 2.105 . S
O21 C6 1.268 . S
Sc22 O25 2.025 . S
Sc22 O32 2.105 . S
Sc22 O35 2.105 . S
Sc22 O38 2.105 . S
Sc22 O41 2.105 . S
Sc23 O25 2.025 . S
Sc23 O33 2.105 . S
Sc23 O37 2.105 . S
Sc23 O39 2.105 . S
Sc23 O43 2.105 . S
Sc24 O25 2.025 . S
Sc24 O34 2.105 . S
Sc24 O36 2.105 . S
Sc24 O40 2.105 . S
Sc24 O42 2.105 . S
O25 Sc22 2.025 . S
O25 Sc23 2.025 . S
O25 Sc24 2.025 . S
C26 O32 1.268 . S
C26 O42 1.268 . S
C27 O33 1.268 . S
C27 O41 1.268 . S
C28 O34 1.268 . S
C28 O43 1.268 . S
C29 O35 1.268 . S
C29 O39 1.268 . S
C30 O36 1.268 . S
C30 O38 1.268 . S
C31 O37 1.268 . S
C31 O40 1.268 . S
O32 Sc22 2.105 . S
O32 C26 1.268 . S
O33 Sc23 2.105 . S
O33 C27 1.268 . S
O34 Sc24 2.105 . S
O34 C28 1.268 . S
O35 Sc22 2.105 . S
O35 C29 1.268 . S
O36 Sc24 2.105 . S
O36 C30 1.268 . S
O37 Sc23 2.105 . S
O37 C31 1.268 . S
O38 Sc22 2.105 . S
O38 C30 1.268 . S
O39 Sc23 2.105 . S
O39 C29 1.268 . S
O40 Sc24 2.105 . S
O40 C31 1.268 . S
O41 Sc22 2.105 . S
O41 C27 1.268 . S
O42 Sc24 2.105 . S
O42 C26 1.268 . S
O43 Sc23 2.105 . S
O43 C28 1.268 . S
Sc44 O47 2.025 . S
Sc44 O54 2.105 . S
Sc44 O57 2.105 . S
Sc44 O60 2.105 . S
Sc44 O63 2.105 . S
Sc45 O47 2.025 . S
Sc45 O55 2.105 . S
Sc45 O59 2.105 . S
Sc45 O61 2.105 . S
Sc45 O65 2.105 1_556 S
Sc46 O47 2.025 1_554 S
Sc46 O56 2.105 . S
Sc46 O58 2.105 1_554 S
Sc46 O62 2.105 1_554 S
Sc46 O64 2.105 . S
O47 Sc44 2.025 . S
O47 Sc45 2.025 . S
O47 Sc46 2.025 1_556 S
C48 O54 1.268 . S
C48 O64 1.268 1_556 S
C49 O55 1.268 . S
C49 O63 1.268 . S
C50 O56 1.268 . S
C50 O65 1.268 . S
C51 O57 1.268 . S
C51 O61 1.268 . S
C52 O58 1.268 . S
C52 O60 1.268 . S
C53 O59 1.268 . S
C53 O62 1.268 . S
O54 Sc44 2.105 . S
O54 C48 1.268 . S
O55 Sc45 2.105 . S
O55 C49 1.268 . S
O56 Sc46 2.105 . S
O56 C50 1.268 . S
O57 Sc44 2.105 . S
O57 C51 1.268 . S
O58 Sc46 2.105 1_556 S
O58 C52 1.268 . S
O59 Sc45 2.105 . S
O59 C53 1.268 . S
O60 Sc44 2.105 . S
O60 C52 1.268 . S
O61 Sc45 2.105 . S
O61 C51 1.268 . S
O62 Sc46 2.105 1_556 S
O62 C53 1.268 . S
O63 Sc44 2.105 . S
O63 C49 1.268 . S
O64 Sc46 2.105 . S
O64 C48 1.268 1_554 S
O65 Sc45 2.105 1_554 S
O65 C50 1.268 . S
Sc66 O69 2.025 1_556 S
Sc66 O76 2.105 1_556 S
Sc66 O79 2.105 . S
Sc66 O82 2.105 . S
Sc66 O85 2.105 1_556 S
Sc67 O69 2.025 . S
Sc67 O77 2.105 . S
Sc67 O81 2.105 . S
Sc67 O83 2.105 1_554 S
Sc67 O87 2.105 . S
Sc68 O69 2.025 . S
Sc68 O78 2.105 . S
Sc68 O80 2.105 . S
Sc68 O84 2.105 . S
Sc68 O86 2.105 . S
O69 Sc66 2.025 1_554 S
O69 Sc67 2.025 . S
O69 Sc68 2.025 . S
C70 O76 1.268 . S
C70 O86 1.268 . S
C71 O77 1.268 . S
C71 O85 1.268 . S
C72 O78 1.268 . S
C72 O87 1.268 . S
C73 O79 1.268 . S
C73 O83 1.268 . S
C74 O80 1.268 . S
C74 O82 1.268 1_554 S
C75 O81 1.268 . S
C75 O84 1.268 . S
O76 Sc66 2.105 1_554 S
O76 C70 1.268 . S
O77 Sc67 2.105 . S
O77 C71 1.268 . S
O78 Sc68 2.105 . S
O78 C72 1.268 . S
O79 Sc66 2.105 . S
O79 C73 1.268 . S
O80 Sc68 2.105 . S
O80 C74 1.268 . S
O81 Sc67 2.105 . S
O81 C75 1.268 . S
O82 Sc66 2.105 . S
O82 C74 1.268 1_556 S
O83 Sc67 2.105 1_556 S
O83 C73 1.268 . S
O84 Sc68 2.105 . S
O84 C75 1.268 . S
O85 Sc66 2.105 1_554 S
O85 C71 1.268 . S
O86 Sc68 2.105 . S
O86 C70 1.268 . S
O87 Sc67 2.105 . S
O87 C72 1.268 . S
Sc88 O91 2.025 . S
Sc88 O98 2.105 . S
Sc88 O101 2.105 . S
Sc88 O104 2.105 . S
Sc88 O107 2.105 . S
Sc89 O91 2.025 . S
Sc89 O99 2.105 . S
Sc89 O103 2.105 . S
Sc89 O105 2.105 . S
Sc89 O109 2.105 . S
Sc90 O91 2.025 . S
Sc90 O100 2.105 . S
Sc90 O102 2.105 . S
Sc90 O106 2.105 . S
Sc90 O108 2.105 . S
O91 Sc88 2.025 . S
O91 Sc89 2.025 . S
O91 Sc90 2.025 . S
C92 O98 1.268 . S
C92 O108 1.268 . S
C93 O99 1.268 . S
C93 O107 1.268 . S
C94 O100 1.268 . S
C94 O109 1.268 . S
C95 O101 1.268 . S
C95 O105 1.268 . S
C96 O102 1.268 . S
C96 O104 1.268 . S
C97 O103 1.268 . S
C97 O106 1.268 . S
O98 Sc88 2.105 . S
O98 C92 1.268 . S
O99 Sc89 2.105 . S
O99 C93 1.268 . S
O100 Sc90 2.105 . S
O100 C94 1.268 . S
O101 Sc88 2.105 . S
O101 C95 1.268 . S
O102 Sc90 2.105 . S
O102 C96 1.268 . S
O103 Sc89 2.105 . S
O103 C97 1.268 . S
O104 Sc88 2.105 . S
O104 C96 1.268 . S
O105 Sc89 2.105 . S
O105 C95 1.268 . S
O106 Sc90 2.105 . S
O106 C97 1.268 . S
O107 Sc88 2.105 . S
O107 C93 1.268 . S
O108 Sc90 2.105 . S
O108 C92 1.268 . S
O109 Sc89 2.105 . S
O109 C94 1.268 . S
Sc110 O113 2.025 . S
Sc110 O120 2.105 . S
Sc110 O123 2.105 . S
Sc110 O126 2.105 . S
Sc110 O129 2.105 . S
Sc111 O113 2.025 . S
Sc111 O121 2.105 . S
Sc111 O125 2.105 . S
Sc111 O127 2.105 . S
Sc111 O131 2.105 . S
Sc112 O113 2.025 . S
Sc112 O122 2.105 . S
Sc112 O124 2.105 . S
Sc112 O128 2.105 . S
Sc112 O130 2.105 . S
O113 Sc110 2.025 . S
O113 Sc111 2.025 . S
O113 Sc112 2.025 . S
C114 O120 1.268 . S
C114 O130 1.268 . S
C115 O121 1.268 . S
C115 O129 1.268 . S
C116 O122 1.268 . S
C116 O131 1.268 . S
C117 O123 1.268 . S
C117 O127 1.268 . S
C118 O124 1.268 . S
C118 O126 1.268 . S
C119 O125 1.268 . S
C119 O128 1.268 . S
O120 Sc110 2.105 . S
O120 C114 1.268 . S
O121 Sc111 2.105 . S
O121 C115 1.268 . S
O122 Sc112 2.105 . S
O122 C116 1.268 . S
O123 Sc110 2.105 . S
O123 C117 1.268 . S
O124 Sc112 2.105 . S
O124 C118 1.268 . S
O125 Sc111 2.105 . S
O125 C119 1.268 . S
O126 Sc110 2.105 . S
O126 C118 1.268 . S
O127 Sc111 2.105 . S
O127 C117 1.268 . S
O128 Sc112 2.105 . S
O128 C119 1.268 . S
O129 Sc110 2.105 . S
O129 C115 1.268 . S
O130 Sc112 2.105 . S
O130 C114 1.268 . S
O131 Sc111 2.105 . S
O131 C116 1.268 . S
H132 C144 0.930 . S
H133 C146 0.930 . S
H134 C147 0.930 . S
H135 C151 0.959 . S
H136 C151 0.959 . S
H137 C151 0.961 . S
H138 C152 0.960 . S
H139 C152 0.961 . S
H140 C152 0.959 . S
H141 C155 0.929 1_554 S
H142 C156 0.931 . S
H143 C158 0.930 . S
C144 H132 0.930 . S
C144 C145 1.399 . S
C144 C149 1.399 . S
C145 C144 1.399 . S
C145 C146 1.376 . S
C146 H133 0.930 . S
C146 C145 1.376 . S
C146 C147 1.388 . S
C147 H134 0.930 . S
C147 C146 1.388 . S
C147 C148 1.390 . S
C148 C147 1.390 . S
C148 C149 1.394 . S
C148 C154 1.465 . S
C149 C144 1.399 . S
C149 C148 1.394 . S
C149 C150 1.516 . S
C150 C149 1.516 . S
C150 C151 1.502 . S
C150 C152 1.561 . S
C150 C153 1.526 . S
C151 H135 0.959 . S
C151 H136 0.959 . S
C151 H137 0.961 . S
C151 C150 1.502 . S
C152 H138 0.960 . S
C152 H139 0.961 . S
C152 H140 0.959 . S
C152 C150 1.561 . S
C153 C150 1.526 . S
C153 C154 1.396 . S
C153 C158 1.390 1_554 S
C154 C148 1.465 . S
C154 C153 1.396 . S
C154 C155 1.399 1_554 S
C155 H141 0.929 1_556 S
C155 C154 1.399 1_556 S
C155 C156 1.385 . S
C156 H142 0.931 . S
C156 C155 1.385 . S
C156 C157 1.389 . S
C157 C156 1.389 . S
C157 C158 1.387 . S
C158 H143 0.930 . S
C158 C153 1.390 1_556 S
C158 C157 1.387 . S
H159 C171 0.930 . S
H160 C173 0.930 . S
H161 C174 0.930 . S
H162 C178 0.959 . S
H163 C178 0.959 . S
H164 C178 0.961 . S
H165 C179 0.960 . S
H166 C179 0.961 . S
H167 C179 0.959 . S
H168 C182 0.929 . S
H169 C183 0.931 . S
H170 C185 0.930 . S
C171 H159 0.930 . S
C171 C172 1.399 . S
C171 C176 1.399 . S
C172 C171 1.399 . S
C172 C173 1.376 . S
C173 H160 0.930 . S
C173 C172 1.376 . S
C173 C174 1.388 . S
C174 H161 0.930 . S
C174 C173 1.388 . S
C174 C175 1.390 . S
C175 C174 1.390 . S
C175 C176 1.394 . S
C175 C181 1.465 . S
C176 C171 1.399 . S
C176 C175 1.394 . S
C176 C177 1.516 . S
C177 C176 1.516 . S
C177 C178 1.502 . S
C177 C179 1.561 . S
C177 C180 1.526 . S
C178 H162 0.959 . S
C178 H163 0.959 . S
C178 H164 0.961 . S
C178 C177 1.502 . S
C179 H165 0.960 . S
C179 H166 0.961 . S
C179 H167 0.959 . S
C179 C177 1.561 . S
C180 C177 1.526 . S
C180 C181 1.396 . S
C180 C185 1.390 . S
C181 C175 1.465 . S
C181 C180 1.396 . S
C181 C182 1.399 . S
C182 H168 0.929 . S
C182 C181 1.399 . S
C182 C183 1.385 . S
C183 H169 0.931 . S
C183 C182 1.385 . S
C183 C184 1.389 . S
C184 C183 1.389 . S
C184 C185 1.387 . S
C185 H170 0.930 . S
C185 C180 1.390 . S
C185 C184 1.387 . S
H186 C198 0.930 . S
H187 C200 0.930 . S
H188 C201 0.930 . S
H189 C205 0.959 . S
H190 C205 0.959 . S
H191 C205 0.961 . S
H192 C206 0.960 . S
H193 C206 0.961 . S
H194 C206 0.959 . S
H195 C209 0.929 . S
H196 C210 0.931 . S
H197 C212 0.930 . S
C198 H186 0.930 . S
C198 C199 1.399 . S
C198 C203 1.399 . S
C199 C198 1.399 . S
C199 C200 1.376 . S
C200 H187 0.930 . S
C200 C199 1.376 . S
C200 C201 1.388 . S
C201 H188 0.930 . S
C201 C200 1.388 . S
C201 C202 1.390 . S
C202 C201 1.390 . S
C202 C203 1.394 . S
C202 C208 1.465 . S
C203 C198 1.399 . S
C203 C202 1.394 . S
C203 C204 1.516 . S
C204 C203 1.516 . S
C204 C205 1.502 . S
C204 C206 1.561 . S
C204 C207 1.526 . S
C205 H189 0.959 . S
C205 H190 0.959 . S
C205 H191 0.961 . S
C205 C204 1.502 . S
C206 H192 0.960 . S
C206 H193 0.961 . S
C206 H194 0.959 . S
C206 C204 1.561 . S
C207 C204 1.526 . S
C207 C208 1.396 . S
C207 C212 1.390 . S
C208 C202 1.465 . S
C208 C207 1.396 . S
C208 C209 1.399 . S
C209 H195 0.929 . S
C209 C208 1.399 . S
C209 C210 1.385 . S
C210 H196 0.931 . S
C210 C209 1.385 . S
C210 C211 1.389 . S
C211 C210 1.389 . S
C211 C212 1.387 . S
C212 H197 0.930 . S
C212 C207 1.390 . S
C212 C211 1.387 . S
H213 C225 0.930 . S
H214 C227 0.930 . S
H215 C228 0.930 . S
H216 C232 0.959 . S
H217 C232 0.959 . S
H218 C232 0.961 . S
H219 C233 0.960 . S
H220 C233 0.961 . S
H221 C233 0.959 . S
H222 C236 0.929 . S
H223 C237 0.931 . S
H224 C239 0.930 . S
C225 H213 0.930 . S
C225 C226 1.399 . S
C225 C230 1.399 . S
C226 C225 1.399 . S
C226 C227 1.376 . S
C227 H214 0.930 . S
C227 C226 1.376 . S
C227 C228 1.388 . S
C228 H215 0.930 . S
C228 C227 1.388 . S
C228 C229 1.390 . S
C229 C228 1.390 . S
C229 C230 1.394 . S
C229 C235 1.465 . S
C230 C225 1.399 . S
C230 C229 1.394 . S
C230 C231 1.516 . S
C231 C230 1.516 . S
C231 C232 1.502 . S
C231 C233 1.561 . S
C231 C234 1.526 . S
C232 H216 0.959 . S
C232 H217 0.959 . S
C232 H218 0.961 . S
C232 C231 1.502 . S
C233 H219 0.960 . S
C233 H220 0.961 . S
C233 H221 0.959 . S
C233 C231 1.561 . S
C234 C231 1.526 . S
C234 C235 1.396 . S
C234 C239 1.390 . S
C235 C229 1.465 . S
C235 C234 1.396 . S
C235 C236 1.399 . S
C236 H222 0.929 . S
C236 C235 1.399 . S
C236 C237 1.385 . S
C237 H223 0.931 . S
C237 C236 1.385 . S
C237 C238 1.389 . S
C238 C237 1.389 . S
C238 C239 1.387 . S
C239 H224 0.930 . S
C239 C234 1.390 . S
C239 C238 1.387 . S
H240 C252 0.930 . S
H241 C254 0.930 . S
H242 C255 0.930 . S
H243 C259 0.959 . S
H244 C259 0.959 . S
H245 C259 0.961 . S
H246 C260 0.960 . S
H247 C260 0.961 . S
H248 C260 0.959 . S
H249 C263 0.929 . S
H250 C264 0.931 . S
H251 C266 0.930 . S
C252 H240 0.930 . S
C252 C253 1.399 . S
C252 C257 1.399 . S
C253 C252 1.399 . S
C253 C254 1.376 . S
C254 H241 0.930 . S
C254 C253 1.376 . S
C254 C255 1.388 . S
C255 H242 0.930 . S
C255 C254 1.388 . S
C255 C256 1.390 . S
C256 C255 1.390 . S
C256 C257 1.394 . S
C256 C262 1.465 . S
C257 C252 1.399 . S
C257 C256 1.394 . S
C257 C258 1.516 . S
C258 C257 1.516 . S
C258 C259 1.502 . S
C258 C260 1.561 . S
C258 C261 1.526 . S
C259 H243 0.959 . S
C259 H244 0.959 . S
C259 H245 0.961 . S
C259 C258 1.502 . S
C260 H246 0.960 . S
C260 H247 0.961 . S
C260 H248 0.959 . S
C260 C258 1.561 . S
C261 C258 1.526 . S
C261 C262 1.396 . S
C261 C266 1.390 . S
C262 C256 1.465 . S
C262 C261 1.396 . S
C262 C263 1.399 . S
C263 H249 0.929 . S
C263 C262 1.399 . S
C263 C264 1.385 . S
C264 H250 0.931 . S
C264 C263 1.385 . S
C264 C265 1.389 . S
C265 C264 1.389 . S
C265 C266 1.387 . S
C266 H251 0.930 . S
C266 C261 1.390 . S
C266 C265 1.387 . S
H267 C279 0.930 . S
H268 C281 0.930 . S
H269 C282 0.930 . S
H270 C286 0.959 . S
H271 C286 0.959 . S
H272 C286 0.961 . S
H273 C287 0.960 . S
H274 C287 0.961 . S
H275 C287 0.959 . S
H276 C290 0.929 . S
H277 C291 0.931 . S
H278 C293 0.930 . S
C279 H267 0.930 . S
C279 C280 1.399 . S
C279 C284 1.399 1_554 S
C280 C279 1.399 . S
C280 C281 1.376 . S
C281 H268 0.930 . S
C281 C280 1.376 . S
C281 C282 1.388 . S
C282 H269 0.930 . S
C282 C281 1.388 . S
C282 C283 1.390 1_554 S
C283 C282 1.390 1_556 S
C283 C284 1.394 . S
C283 C289 1.465 . S
C284 C279 1.399 1_556 S
C284 C283 1.394 . S
C284 C285 1.516 . S
C285 C284 1.516 . S
C285 C286 1.502 . S
C285 C287 1.561 . S
C285 C288 1.526 . S
C286 H270 0.959 . S
C286 H271 0.959 . S
C286 H272 0.961 . S
C286 C285 1.502 . S
C287 H273 0.960 . S
C287 H274 0.961 . S
C287 H275 0.959 . S
C287 C285 1.561 . S
C288 C285 1.526 . S
C288 C289 1.396 . S
C288 C293 1.390 . S
C289 C283 1.465 . S
C289 C288 1.396 . S
C289 C290 1.399 . S
C290 H276 0.929 . S
C290 C289 1.399 . S
C290 C291 1.385 . S
C291 H277 0.931 . S
C291 C290 1.385 . S
C291 C292 1.389 . S
C292 C291 1.389 . S
C292 C293 1.387 . S
C293 H278 0.930 . S
C293 C288 1.390 . S
C293 C292 1.387 . S
H294 C306 0.930 . S
H295 C308 0.930 . S
H296 C309 0.930 . S
H297 C313 0.959 . S
H298 C313 0.959 . S
H299 C313 0.961 1_545 S
H300 C314 0.960 1_545 S
H301 C314 0.961 . S
H302 C314 0.959 1_545 S
H303 C317 0.929 . S
H304 C318 0.931 . S
H305 C320 0.930 . S
C306 H294 0.930 . S
C306 C307 1.399 . S
C306 C311 1.399 . S
C307 C306 1.399 . S
C307 C308 1.376 . S
C308 H295 0.930 . S
C308 C307 1.376 . S
C308 C309 1.388 . S
C309 H296 0.930 . S
C309 C308 1.388 . S
C309 C310 1.390 . S
C310 C309 1.390 . S
C310 C311 1.394 . S
C310 C316 1.465 1_545 S
C311 C306 1.399 . S
C311 C310 1.394 . S
C311 C312 1.516 1_545 S
C312 C311 1.516 1_565 S
C312 C313 1.502 . S
C312 C314 1.561 . S
C312 C315 1.526 . S
C313 H297 0.959 . S
C313 H298 0.959 . S
C313 H299 0.961 1_565 S
C313 C312 1.502 . S
C314 H300 0.960 1_565 S
C314 H301 0.961 . S
C314 H302 0.959 1_565 S
C314 C312 1.561 . S
C315 C312 1.526 . S
C315 C316 1.396 . S
C315 C320 1.390 . S
C316 C310 1.465 1_565 S
C316 C315 1.396 . S
C316 C317 1.399 . S
C317 H303 0.929 . S
C317 C316 1.399 . S
C317 C318 1.385 . S
C318 H304 0.931 . S
C318 C317 1.385 . S
C318 C319 1.389 . S
C319 C318 1.389 . S
C319 C320 1.387 . S
C320 H305 0.930 . S
C320 C315 1.390 . S
C320 C319 1.387 . S
H321 C333 0.930 . S
H322 C335 0.930 . S
H323 C336 0.930 . S
H324 C340 0.959 . S
H325 C340 0.959 . S
H326 C340 0.961 . S
H327 C341 0.960 . S
H328 C341 0.961 . S
H329 C341 0.959 . S
H330 C344 0.929 . S
H331 C345 0.931 . S
H332 C347 0.930 . S
C333 H321 0.930 . S
C333 C334 1.399 . S
C333 C338 1.399 . S
C334 C333 1.399 . S
C334 C335 1.376 . S
C335 H322 0.930 . S
C335 C334 1.376 . S
C335 C336 1.388 . S
C336 H323 0.930 . S
C336 C335 1.388 . S
C336 C337 1.390 . S
C337 C336 1.390 . S
C337 C338 1.394 . S
C337 C343 1.465 . S
C338 C333 1.399 . S
C338 C337 1.394 . S
C338 C339 1.516 . S
C339 C338 1.516 . S
C339 C340 1.502 . S
C339 C341 1.561 . S
C339 C342 1.526 . S
C340 H324 0.959 . S
C340 H325 0.959 . S
C340 H326 0.961 . S
C340 C339 1.502 . S
C341 H327 0.960 . S
C341 H328 0.961 . S
C341 H329 0.959 . S
C341 C339 1.561 . S
C342 C339 1.526 . S
C342 C343 1.396 . S
C342 C347 1.390 . S
C343 C337 1.465 . S
C343 C342 1.396 . S
C343 C344 1.399 . S
C344 H330 0.929 . S
C344 C343 1.399 . S
C344 C345 1.385 . S
C345 H331 0.931 . S
C345 C344 1.385 . S
C345 C346 1.389 . S
C346 C345 1.389 . S
C346 C347 1.387 . S
C347 H332 0.930 . S
C347 C342 1.390 . S
C347 C346 1.387 . S
H348 C360 0.930 . S
H349 C362 0.930 . S
H350 C363 0.930 . S
H351 C367 0.959 . S
H352 C367 0.959 . S
H353 C367 0.961 1_654 S
H354 C368 0.960 1_655 S
H355 C368 0.961 . S
H356 C368 0.959 1_556 S
H357 C371 0.929 . S
H358 C372 0.931 . S
H359 C374 0.930 . S
C360 H348 0.930 . S
C360 C361 1.399 . S
C360 C365 1.399 . S
C361 C360 1.399 . S
C361 C362 1.376 . S
C362 H349 0.930 . S
C362 C361 1.376 . S
C362 C363 1.388 . S
C363 H350 0.930 . S
C363 C362 1.388 . S
C363 C364 1.390 . S
C364 C363 1.390 . S
C364 C365 1.394 . S
C364 C370 1.465 1_655 S
C365 C360 1.399 . S
C365 C364 1.394 . S
C365 C366 1.516 1_655 S
C366 C365 1.516 1_455 S
C366 C367 1.502 . S
C366 C368 1.561 1_556 S
C366 C369 1.526 . S
C367 H351 0.959 . S
C367 H352 0.959 . S
C367 H353 0.961 1_456 S
C367 C366 1.502 . S
C368 H354 0.960 1_455 S
C368 H355 0.961 . S
C368 H356 0.959 1_554 S
C368 C366 1.561 1_554 S
C369 C366 1.526 . S
C369 C370 1.396 . S
C369 C374 1.390 . S
C370 C364 1.465 1_455 S
C370 C369 1.396 . S
C370 C371 1.399 . S
C371 H357 0.929 . S
C371 C370 1.399 . S
C371 C372 1.385 . S
C372 H358 0.931 . S
C372 C371 1.385 . S
C372 C373 1.389 . S
C373 C372 1.389 . S
C373 C374 1.387 . S
C374 H359 0.930 . S
C374 C369 1.390 . S
C374 C373 1.387 . S
H375 C387 0.930 . S
H376 C389 0.929 1_556 S
H377 C390 0.930 . S
H378 C394 0.959 1_556 S
H379 C394 0.959 . S
H380 C394 0.961 1_565 S
H381 C395 0.960 1_565 S
H382 C395 0.961 . S
H383 C395 0.959 . S
H384 C398 0.929 . S
H385 C399 0.931 . S
H386 C401 0.930 1_554 S
C387 H375 0.930 . S
C387 C388 1.399 . S
C387 C392 1.399 . S
C388 C387 1.399 . S
C388 C389 1.379 . S
C389 H376 0.929 1_554 S
C389 C388 1.379 . S
C389 C390 1.387 1_554 S
C390 H377 0.930 . S
C390 C389 1.387 1_556 S
C390 C391 1.390 . S
C391 C390 1.390 . S
C391 C392 1.394 1_556 S
C391 C397 1.465 1_565 S
C392 C387 1.399 . S
C392 C391 1.394 1_554 S
C392 C393 1.516 1_565 S
C393 C392 1.516 1_545 S
C393 C394 1.502 . S
C393 C395 1.561 . S
C393 C396 1.526 . S
C394 H378 0.959 1_554 S
C394 H379 0.959 . S
C394 H380 0.961 1_545 S
C394 C393 1.502 . S
C395 H381 0.960 1_545 S
C395 H382 0.961 . S
C395 H383 0.959 . S
C395 C393 1.561 . S
C396 C393 1.526 . S
C396 C397 1.396 1_554 S
C396 C401 1.390 1_554 S
C397 C391 1.465 1_545 S
C397 C396 1.396 1_556 S
C397 C398 1.399 . S
C398 H384 0.929 . S
C398 C397 1.399 . S
C398 C399 1.385 . S
C399 H385 0.931 . S
C399 C398 1.385 . S
C399 C400 1.389 . S
C400 C399 1.389 . S
C400 C401 1.387 . S
C401 H386 0.930 1_556 S
C401 C396 1.390 1_556 S
C401 C400 1.387 . S
H402 C414 0.930 . S
H403 C416 0.930 . S
H404 C417 0.930 . S
H405 C421 0.959 . S
H406 C421 0.959 1_556 S
H407 C421 0.961 . S
H408 C422 0.960 1_556 S
H409 C422 0.961 1_556 S
H410 C422 0.959 . S
H411 C425 0.929 . S
H412 C426 0.931 . S
H413 C428 0.930 . S
C414 H402 0.930 . S
C414 C415 1.399 . S
C414 C419 1.399 . S
C415 C414 1.399 . S
C415 C416 1.376 . S
C416 H403 0.930 . S
C416 C415 1.376 . S
C416 C417 1.388 . S
C417 H404 0.930 . S
C417 C416 1.388 . S
C417 C418 1.390 . S
C418 C417 1.390 . S
C418 C419 1.394 . S
C418 C424 1.465 . S
C419 C414 1.399 . S
C419 C418 1.394 . S
C419 C420 1.516 . S
C420 C419 1.516 . S
C420 C421 1.502 . S
C420 C422 1.561 . S
C420 C423 1.526 . S
C421 H405 0.959 . S
C421 H406 0.959 1_554 S
C421 H407 0.961 . S
C421 C420 1.502 . S
C422 H408 0.960 1_554 S
C422 H409 0.961 1_554 S
C422 H410 0.959 . S
C422 C420 1.561 . S
C423 C420 1.526 . S
C423 C424 1.396 . S
C423 C428 1.390 . S
C424 C418 1.465 . S
C424 C423 1.396 . S
C424 C425 1.399 . S
C425 H411 0.929 . S
C425 C424 1.399 . S
C425 C426 1.385 . S
C426 H412 0.931 . S
C426 C425 1.385 . S
C426 C427 1.389 . S
C427 C426 1.389 . S
C427 C428 1.387 . S
C428 H413 0.930 . S
C428 C423 1.390 . S
C428 C427 1.387 . S
H429 C441 0.930 . S
H430 C443 0.930 . S
H431 C444 0.930 . S
H432 C448 0.959 . S
H433 C448 0.959 . S
H434 C448 0.961 1_655 S
H435 C449 0.960 . S
H436 C449 0.961 1_455 S
H437 C449 0.959 . S
H438 C452 0.929 . S
H439 C453 0.931 . S
H440 C455 0.930 . S
C441 H429 0.930 . S
C441 C442 1.399 . S
C441 C446 1.399 . S
C442 C441 1.399 . S
C442 C443 1.376 . S
C443 H430 0.930 . S
C443 C442 1.376 . S
C443 C444 1.388 . S
C444 H431 0.930 . S
C444 C443 1.388 . S
C444 C445 1.390 . S
C445 C444 1.390 . S
C445 C446 1.394 . S
C445 C451 1.465 1_655 S
C446 C441 1.399 . S
C446 C445 1.394 . S
C446 C447 1.516 1_655 S
C447 C446 1.516 1_455 S
C447 C448 1.502 . S
C447 C449 1.561 1_455 S
C447 C450 1.526 . S
C448 H432 0.959 . S
C448 H433 0.959 . S
C448 H434 0.961 1_455 S
C448 C447 1.502 . S
C449 H435 0.960 . S
C449 H436 0.961 1_655 S
C449 H437 0.959 . S
C449 C447 1.561 1_655 S
C450 C447 1.526 . S
C450 C451 1.396 . S
C450 C455 1.390 . S
C451 C445 1.465 1_455 S
C451 C450 1.396 . S
C451 C452 1.399 . S
C452 H438 0.929 . S
C452 C451 1.399 . S
C452 C453 1.385 . S
C453 H439 0.931 . S
C453 C452 1.385 . S
C453 C454 1.389 . S
C454 C453 1.389 . S
C454 C455 1.387 . S
C455 H440 0.930 . S
C455 C450 1.390 . S
C455 C454 1.387 . S
H456 C468 0.930 . S
H457 C470 0.930 . S
H458 C471 0.930 . S
H459 C475 0.959 . S
H460 C475 0.959 . S
H461 C475 0.961 . S
H462 C476 0.960 . S
H463 C476 0.961 . S
H464 C476 0.959 . S
H465 C479 0.929 . S
H466 C480 0.931 . S
H467 C482 0.930 . S
C468 H456 0.930 . S
C468 C469 1.399 . S
C468 C473 1.399 . S
C469 C468 1.399 . S
C469 C470 1.376 . S
C470 H457 0.930 . S
C470 C469 1.376 . S
C470 C471 1.388 . S
C471 H458 0.930 . S
C471 C470 1.388 . S
C471 C472 1.390 . S
C472 C471 1.390 . S
C472 C473 1.394 . S
C472 C478 1.465 . S
C473 C468 1.399 . S
C473 C472 1.394 . S
C473 C474 1.516 . S
C474 C473 1.516 . S
C474 C475 1.502 . S
C474 C476 1.561 . S
C474 C477 1.526 . S
C475 H459 0.959 . S
C475 H460 0.959 . S
C475 H461 0.961 . S
C475 C474 1.502 . S
C476 H462 0.960 . S
C476 H463 0.961 . S
C476 H464 0.959 . S
C476 C474 1.561 . S
C477 C474 1.526 . S
C477 C478 1.396 . S
C477 C482 1.390 . S
C478 C472 1.465 . S
C478 C477 1.396 . S
C478 C479 1.399 . S
C479 H465 0.929 . S
C479 C478 1.399 . S
C479 C480 1.385 . S
C480 H466 0.931 . S
C480 C479 1.385 . S
C480 C481 1.389 . S
C481 C480 1.389 . S
C481 C482 1.387 . S
C482 H467 0.930 . S
C482 C477 1.390 . S
C482 C481 1.387 . S
H483 C495 0.930 . S
H484 C497 0.930 . S
H485 C498 0.930 . S
H486 C502 0.959 . S
H487 C502 0.959 . S
H488 C502 0.961 . S
H489 C503 0.960 . S
H490 C503 0.961 . S
H491 C503 0.959 . S
H492 C506 0.929 . S
H493 C507 0.931 . S
H494 C509 0.930 . S
C495 H483 0.930 . S
C495 C496 1.399 . S
C495 C500 1.399 . S
C496 C495 1.399 . S
C496 C497 1.376 . S
C497 H484 0.930 . S
C497 C496 1.376 . S
C497 C498 1.388 . S
C498 H485 0.930 . S
C498 C497 1.388 . S
C498 C499 1.390 . S
C499 C498 1.390 . S
C499 C500 1.394 . S
C499 C505 1.465 . S
C500 C495 1.399 . S
C500 C499 1.394 . S
C500 C501 1.516 . S
C501 C500 1.516 . S
C501 C502 1.502 . S
C501 C503 1.561 . S
C501 C504 1.526 . S
C502 H486 0.959 . S
C502 H487 0.959 . S
C502 H488 0.961 . S
C502 C501 1.502 . S
C503 H489 0.960 . S
C503 H490 0.961 . S
C503 H491 0.959 . S
C503 C501 1.561 . S
C504 C501 1.526 . S
C504 C505 1.396 . S
C504 C509 1.390 . S
C505 C499 1.465 . S
C505 C504 1.396 . S
C505 C506 1.399 . S
C506 H492 0.929 . S
C506 C505 1.399 . S
C506 C507 1.385 . S
C507 H493 0.931 . S
C507 C506 1.385 . S
C507 C508 1.389 . S
C508 C507 1.389 . S
C508 C509 1.387 . S
C509 H494 0.930 . S
C509 C504 1.390 . S
C509 C508 1.387 . S
H510 C522 0.930 . S
H511 C524 0.930 . S
H512 C525 0.930 . S
H513 C529 0.959 . S
H514 C529 0.959 . S
H515 C529 0.961 . S
H516 C530 0.960 . S
H517 C530 0.961 . S
H518 C530 0.959 . S
H519 C533 0.929 . S
H520 C534 0.931 . S
H521 C536 0.930 . S
C522 H510 0.930 . S
C522 C523 1.399 . S
C522 C527 1.399 . S
C523 C522 1.399 . S
C523 C524 1.376 . S
C524 H511 0.930 . S
C524 C523 1.376 . S
C524 C525 1.388 . S
C525 H512 0.930 . S
C525 C524 1.388 . S
C525 C526 1.390 . S
C526 C525 1.390 . S
C526 C527 1.394 . S
C526 C532 1.465 . S
C527 C522 1.399 . S
C527 C526 1.394 . S
C527 C528 1.516 . S
C528 C527 1.516 . S
C528 C529 1.502 . S
C528 C530 1.561 . S
C528 C531 1.526 . S
C529 H513 0.959 . S
C529 H514 0.959 . S
C529 H515 0.961 . S
C529 C528 1.502 . S
C530 H516 0.960 . S
C530 H517 0.961 . S
C530 H518 0.959 . S
C530 C528 1.561 . S
C531 C528 1.526 . S
C531 C532 1.396 . S
C531 C536 1.390 . S
C532 C526 1.465 . S
C532 C531 1.396 . S
C532 C533 1.399 . S
C533 H519 0.929 . S
C533 C532 1.399 . S
C533 C534 1.385 . S
C534 H520 0.931 . S
C534 C533 1.385 . S
C534 C535 1.389 . S
C535 C534 1.389 . S
C535 C536 1.387 . S
C536 H521 0.930 . S
C536 C531 1.390 . S
C536 C535 1.387 . S
H537 C549 0.930 . S
H538 C551 0.930 . S
H539 C552 0.930 . S
H540 C556 0.959 1_556 S
H541 C556 0.959 . S
H542 C556 0.961 . S
H543 C557 0.960 . S
H544 C557 0.961 . S
H545 C557 0.959 . S
H546 C560 0.929 . S
H547 C561 0.931 . S
H548 C563 0.930 . S
C549 H537 0.930 . S
C549 C550 1.399 1_554 S
C549 C554 1.399 1_554 S
C550 C549 1.399 1_556 S
C550 C551 1.376 . S
C551 H538 0.930 . S
C551 C550 1.376 . S
C551 C552 1.388 . S
C552 H539 0.930 . S
C552 C551 1.388 . S
C552 C553 1.390 . S
C553 C552 1.390 . S
C553 C554 1.394 . S
C553 C559 1.465 . S
C554 C549 1.399 1_556 S
C554 C553 1.394 . S
C554 C555 1.516 1_556 S
C555 C554 1.516 1_554 S
C555 C556 1.502 . S
C555 C557 1.561 . S
C555 C558 1.526 1_554 S
C556 H540 0.959 1_554 S
C556 H541 0.959 . S
C556 H542 0.961 . S
C556 C555 1.502 . S
C557 H543 0.960 . S
C557 H544 0.961 . S
C557 H545 0.959 . S
C557 C555 1.561 . S
C558 C555 1.526 1_556 S
C558 C559 1.396 . S
C558 C563 1.390 . S
C559 C553 1.465 . S
C559 C558 1.396 . S
C559 C560 1.399 . S
C560 H546 0.929 . S
C560 C559 1.399 . S
C560 C561 1.385 . S
C561 H547 0.931 . S
C561 C560 1.385 . S
C561 C562 1.389 . S
C562 C561 1.389 . S
C562 C563 1.387 . S
C563 H548 0.930 . S
C563 C558 1.390 . S
C563 C562 1.387 . S
H564 C576 0.930 . S
H565 C578 0.930 . S
H566 C579 0.930 . S
H567 C583 0.959 . S
H568 C583 0.959 . S
H569 C583 0.961 . S
H570 C584 0.960 . S
H571 C584 0.961 . S
H572 C584 0.959 . S
H573 C587 0.929 . S
H574 C588 0.931 . S
H575 C590 0.930 . S
C576 H564 0.930 . S
C576 C577 1.399 . S
C576 C581 1.399 . S
C577 C576 1.399 . S
C577 C578 1.376 . S
C578 H565 0.930 . S
C578 C577 1.376 . S
C578 C579 1.388 . S
C579 H566 0.930 . S
C579 C578 1.388 . S
C579 C580 1.390 . S
C580 C579 1.390 . S
C580 C581 1.394 . S
C580 C586 1.465 . S
C581 C576 1.399 . S
C581 C580 1.394 . S
C581 C582 1.516 1_554 S
C582 C581 1.516 1_556 S
C582 C583 1.502 . S
C582 C584 1.561 . S
C582 C585 1.526 1_556 S
C583 H567 0.959 . S
C583 H568 0.959 . S
C583 H569 0.961 . S
C583 C582 1.502 . S
C584 H570 0.960 . S
C584 H571 0.961 . S
C584 H572 0.959 . S
C584 C582 1.561 . S
C585 C582 1.526 1_554 S
C585 C586 1.396 . S
C585 C590 1.390 1_554 S
C586 C580 1.465 . S
C586 C585 1.396 . S
C586 C587 1.399 . S
C587 H573 0.929 . S
C587 C586 1.399 . S
C587 C588 1.385 . S
C588 H574 0.931 . S
C588 C587 1.385 . S
C588 C589 1.389 . S
C589 C588 1.389 . S
C589 C590 1.387 1_554 S
C590 H575 0.930 . S
C590 C585 1.390 1_556 S
C590 C589 1.387 1_556 S
H591 C603 0.930 . S
H592 C605 0.930 . S
H593 C606 0.930 . S
H594 C610 0.959 . S
H595 C610 0.959 . S
H596 C610 0.961 . S
H597 C611 0.960 . S
H598 C611 0.961 . S
H599 C611 0.959 . S
H600 C614 0.929 . S
H601 C615 0.931 . S
H602 C617 0.930 . S
C603 H591 0.930 . S
C603 C604 1.399 . S
C603 C608 1.399 . S
C604 C603 1.399 . S
C604 C605 1.376 . S
C605 H592 0.930 . S
C605 C604 1.376 . S
C605 C606 1.388 . S
C606 H593 0.930 . S
C606 C605 1.388 . S
C606 C607 1.390 . S
C607 C606 1.390 . S
C607 C608 1.394 . S
C607 C613 1.465 . S
C608 C603 1.399 . S
C608 C607 1.394 . S
C608 C609 1.516 . S
C609 C608 1.516 . S
C609 C610 1.502 . S
C609 C611 1.561 . S
C609 C612 1.526 . S
C610 H594 0.959 . S
C610 H595 0.959 . S
C610 H596 0.961 . S
C610 C609 1.502 . S
C611 H597 0.960 . S
C611 H598 0.961 . S
C611 H599 0.959 . S
C611 C609 1.561 . S
C612 C609 1.526 . S
C612 C613 1.396 . S
C612 C617 1.390 . S
C613 C607 1.465 . S
C613 C612 1.396 . S
C613 C614 1.399 . S
C614 H600 0.929 . S
C614 C613 1.399 . S
C614 C615 1.385 . S
C615 H601 0.931 . S
C615 C614 1.385 . S
C615 C616 1.389 . S
C616 C615 1.389 . S
C616 C617 1.387 . S
C617 H602 0.930 . S
C617 C612 1.390 . S
C617 C616 1.387 . S
C145 C7 1.436 . S
C157 C6 1.503 . S
C172 C29 1.466 . S
C184 C28 1.508 1_554 S
C199 C50 1.516 . S
C211 C51 1.440 . S
C226 C72 1.451 . S
C238 C73 1.478 . S
C253 C94 1.494 . S
C265 C95 1.442 1_556 S
C280 C117 1.460 . S
C292 C116 1.468 . S
C307 C5 1.627 . S
C319 C119 1.678 . S
C334 C9 1.674 . S
C346 C27 1.638 . S
C361 C49 1.614 . S
C373 C31 1.663 . S
C388 C71 1.625 . S
C400 C53 1.644 . S
C415 C93 1.678 . S
C427 C75 1.627 . S
C442 C97 1.633 . S
C454 C115 1.676 . S
C469 C8 1.250 . S
C481 C92 1.210 . S
C496 C30 1.213 . S
C508 C114 1.261 . S
C523 C52 1.208 . S
C535 C4 1.249 . S
C550 C74 1.245 1_556 S
C562 C26 1.209 . S
C577 C96 1.236 . S
C589 C48 1.284 1_554 S
C604 C70 1.292 . S
C616 C118 1.264 . S
