# Generated by pormake.
# Topology umx, (4)-cn, num edge types: 1
# Building blocks:
#     Node 0, Type 0, BuildingBlock: MUDLON_clean_sbu_0, # of connection points: 4
#     Node 1, Type 0, BuildingBlock: MUDLON_clean_sbu_0, # of connection points: 4
#     Node 2, Type 0, BuildingBlock: MUDLON_clean_sbu_0, # of connection points: 4
#     Node 3, Type 0, BuildingBlock: MUDLON_clean_sbu_0, # of connection points: 4
#     Node 4, Type 0, BuildingBlock: MUDLON_clean_sbu_0, # of connection points: 4
#     Node 5, Type 0, BuildingBlock: MUDLON_clean_sbu_0, # of connection points: 4
#     Node 6, Type 0, BuildingBlock: MUDLON_clean_sbu_0, # of connection points: 4
#     Node 7, Type 0, BuildingBlock: MUDLON_clean_sbu_0, # of connection points: 4
#     Edge 8, Type (0, 0), BuildingBlock: MIFKUJ_clean_linker_0, # of connection points: 2
#     Edge 9, Type (0, 0), BuildingBlock: MIFKUJ_clean_linker_0, # of connection points: 2
#     Edge 10, Type (0, 0), BuildingBlock: MIFKUJ_clean_linker_0, # of connection points: 2
#     Edge 11, Type (0, 0), BuildingBlock: MIFKUJ_clean_linker_0, # of connection points: 2
#     Edge 12, Type (0, 0), BuildingBlock: MIFKUJ_clean_linker_0, # of connection points: 2
#     Edge 13, Type (0, 0), BuildingBlock: MIFKUJ_clean_linker_0, # of connection points: 2
#     Edge 14, Type (0, 0), BuildingBlock: MIFKUJ_clean_linker_0, # of connection points: 2
#     Edge 15, Type (0, 0), BuildingBlock: MIFKUJ_clean_linker_0, # of connection points: 2
#     Edge 16, Type (0, 0), BuildingBlock: MIFKUJ_clean_linker_0, # of connection points: 2
#     Edge 17, Type (0, 0), BuildingBlock: MIFKUJ_clean_linker_0, # of connection points: 2
#     Edge 18, Type (0, 0), BuildingBlock: MIFKUJ_clean_linker_0, # of connection points: 2
#     Edge 19, Type (0, 0), BuildingBlock: MIFKUJ_clean_linker_0, # of connection points: 2
#     Edge 20, Type (0, 0), BuildingBlock: MIFKUJ_clean_linker_0, # of connection points: 2
#     Edge 21, Type (0, 0), BuildingBlock: MIFKUJ_clean_linker_0, # of connection points: 2
#     Edge 22, Type (0, 0), BuildingBlock: MIFKUJ_clean_linker_0, # of connection points: 2
#     Edge 23, Type (0, 0), BuildingBlock: MIFKUJ_clean_linker_0, # of connection points: 2
# Relax obj value: 0.023
# Max RMSD: 0.223
# Mean RMSD: 0.222
data_MOF--net-umx--node1-MUDLON_clean_sbu_0--edge1-MIFKUJ_clean_linker_0
_symmetry_space_group_name_H-M    P1
_symmetry_Int_Tables_number       1
_symmetry_cell_setting            triclinic
loop_
_symmetry_equiv_pos_as_xyz
'x, y, z'
_cell_length_a     52.035664
_cell_length_b     52.191656
_cell_length_c     38.539748
_cell_angle_alpha  90.252039
_cell_angle_beta   90.398457
_cell_angle_gamma 90.028753
loop_
_atom_site_label
_atom_site_type_symbol
_atom_site_fract_x
_atom_site_fract_y
_atom_site_fract_z
_atom_type_partial_charge
Mg0 Mg 0.19199 0.45476 0.03905 0.0
C1 C 0.13362 0.44776 0.02613 0.0
O2 O 0.14063 0.42918 1.00515 0.0
C3 C 0.22599 0.41043 0.0244 0.0
O4 O 0.23848 0.42957 1.01025 0.0
C5 C 0.21909 0.45954 0.10853 0.0
O6 O 0.22351 0.43526 0.10181 0.0
O7 O 0.20774 0.47309 0.08568 0.0
O8 O 0.15067 0.45998 0.04323 0.0
O9 O 0.20319 0.47187 0.98967 0.0
C10 C 0.19868 0.45826 0.96279 0.0
O11 O 0.18839 0.43548 0.96682 0.0
O12 O 0.20449 0.41487 0.03875 0.0
Mg13 Mg 0.54386 0.19298 0.5417 0.0
C14 C 0.53227 0.22101 0.47332 0.0
O15 O 0.55078 0.23628 0.48407 0.0
C16 C 0.52815 0.22263 0.60695 0.0
O17 O 0.54279 0.24045 0.59341 0.0
C18 C 0.59903 0.20854 0.52218 0.0
O19 O 0.59513 0.19358 0.49514 0.0
O20 O 0.58148 0.21089 0.54476 0.0
O21 O 0.52461 0.20317 0.49316 0.0
O22 O 0.54541 0.15142 0.54045 0.0
C23 C 0.52333 0.141 0.54185 0.0
O24 O 0.50303 0.15587 0.54416 0.0
O25 O 0.52394 0.20214 0.58983 0.0
Mg26 Mg 0.81839 0.54971 0.03337 0.0
C27 C 0.86915 0.52833 1.01877 0.0
O28 O 0.8529 0.51115 1.00668 0.0
C29 C 0.80813 0.60907 0.02766 0.0
O30 O 0.8308 0.61129 1.01318 0.0
C31 C 0.80797 0.54357 0.10791 0.0
O32 O 0.81394 0.56791 0.10482 0.0
O33 O 0.80764 0.52961 0.08071 0.0
O34 O 0.86021 0.54883 0.032 0.0
O35 O 0.80494 0.53231 0.9847 0.0
C36 C 0.80011 0.54735 0.95953 0.0
O37 O 0.80171 0.57216 0.96484 0.0
O38 O 0.80037 0.58719 0.03752 0.0
Mg39 Mg 0.45365 0.81803 0.53135 0.0
C40 C 0.48826 0.80299 0.46723 0.0
O41 O 0.50838 0.80862 0.48656 0.0
C42 C 0.47006 0.82064 0.60445 0.0
O43 O 0.45582 0.84111 0.59956 0.0
C44 C 0.40542 0.79375 0.56184 0.0
O45 O 0.42029 0.79207 0.5894 0.0
O46 O 0.41392 0.80487 0.53493 0.0
O47 O 0.4659 0.80416 0.48033 0.0
O48 O 0.45665 0.85959 0.5295 0.0
C49 C 0.47934 0.86869 0.5301 0.0
O50 O 0.49882 0.85274 0.53174 0.0
O51 O 0.47403 0.80584 0.57862 0.0
Mg52 Mg 0.19176 0.54639 0.53726 0.0
C53 C 0.19669 0.54052 0.4621 0.0
O54 O 0.18218 0.56088 0.46638 0.0
C55 C 0.21014 0.54477 0.61064 0.0
O56 O 0.20739 0.56947 0.60541 0.0
C57 C 0.22694 0.58923 0.5233 0.0
O58 O 0.23906 0.56908 0.51106 0.0
O59 O 0.2047 0.58614 0.53617 0.0
O60 O 0.20467 0.52876 0.48898 0.0
O61 O 0.15044 0.54075 0.53777 0.0
C62 C 0.13292 0.55766 0.53649 0.0
O63 O 0.13927 0.58199 0.53489 0.0
O64 O 0.20602 0.52942 0.58542 0.0
Mg65 Mg 0.45974 0.19033 0.03641 0.0
C66 C 0.47082 0.18724 0.11181 0.0
O67 O 0.45727 0.16649 0.10541 0.0
C68 C 0.47593 0.22156 0.97311 0.0
O69 O 0.46008 0.23849 0.9864 0.0
C70 C 0.4051 0.20756 0.05532 0.0
O71 O 0.41038 0.19638 0.08499 0.0
O72 O 0.42157 0.20686 0.0311 0.0
O73 O 0.47596 0.20212 0.08666 0.0
O74 O 0.46008 0.14867 0.03518 0.0
C75 C 0.48242 0.13889 0.03735 0.0
O76 O 0.50229 0.15432 0.04022 0.0
O77 O 0.48075 0.20116 0.98991 0.0
Mg78 Mg 0.81879 0.45088 0.53315 0.0
C79 C 0.86745 0.47852 0.53398 0.0
O80 O 0.84971 0.49643 0.53443 0.0
C81 C 0.78321 0.40798 0.54809 0.0
O82 O 0.77127 0.42777 0.56163 0.0
C83 C 0.80572 0.45217 0.45858 0.0
O84 O 0.81255 0.42827 0.4639 0.0
O85 O 0.80541 0.46751 0.48438 0.0
O86 O 0.86032 0.4552 0.53323 0.0
O87 O 0.80623 0.46939 0.58105 0.0
C88 C 0.81237 0.45699 0.60826 0.0
O89 O 0.82473 0.4352 0.60465 0.0
O90 O 0.80503 0.41142 0.53416 0.0
Mg91 Mg 0.55147 0.81541 0.0314 0.0
C92 C 0.5162 0.80578 0.09571 0.0
O93 O 0.49775 0.81612 0.07704 0.0
C94 C 0.53896 0.7878 0.96298 0.0
O95 O 0.56001 0.77523 0.97105 0.0
C96 C 0.59365 0.77818 0.03821 0.0
O97 O 0.57372 0.76622 0.05126 0.0
O98 O 0.59057 0.80086 0.02696 0.0
O99 O 0.53823 0.80249 0.0823 0.0
O100 O 0.54977 0.85705 0.03249 0.0
C101 C 0.52782 0.86673 0.02602 0.0
O102 O 0.50858 0.85127 1.01868 0.0
O103 O 0.52998 0.80397 0.98459 0.0
H104 H 0.20421 0.50585 0.1357 0.0
H105 H 0.20668 0.51959 0.19632 0.0
H106 H 0.24676 0.44991 0.22261 0.0
H107 H 0.24397 0.43584 0.16217 0.0
H108 H 0.20845 0.45739 0.2657 0.0
H109 H 0.27733 0.50888 0.22405 0.0
H110 H 0.29894 0.53963 0.18561 0.0
H111 H 0.24459 0.59784 0.21387 0.0
H112 H 0.22242 0.56734 0.25213 0.0
H113 H 0.22482 0.49827 0.44226 0.0
H114 H 0.23466 0.48439 0.38287 0.0
H115 H 0.19327 0.54945 0.34241 0.0
H116 H 0.18368 0.56351 0.40122 0.0
H117 H 0.23735 0.54261 0.30797 0.0
H118 H 0.16616 0.48977 0.34435 0.0
H119 H 0.14409 0.459 0.38235 0.0
H120 H 0.20313 0.4033 0.36349 0.0
H121 H 0.22572 0.43388 0.32571 0.0
C122 C 0.21395 0.49364 0.15424 0.0
C123 C 0.22378 0.46969 0.14405 0.0
C124 C 0.21542 0.50156 0.18895 0.0
C125 C 0.22701 0.48584 0.21412 0.0
C126 C 0.23766 0.46234 0.20373 0.0
C127 C 0.23612 0.45437 0.16909 0.0
C128 C 0.22636 0.49306 0.25153 0.0
C129 C 0.21527 0.47584 0.27503 0.0
C130 C 0.23478 0.5173 0.26371 0.0
C131 C 0.24809 0.53574 0.24076 0.0
C132 C 0.26986 0.52818 0.22187 0.0
C133 C 0.28224 0.54558 0.20015 0.0
C134 C 0.27312 0.57066 0.19724 0.0
C135 C 0.25163 0.57841 0.21612 0.0
C136 C 0.23917 0.56107 0.23787 0.0
C137 C 0.2179 0.50963 0.42069 0.0
C138 C 0.20335 0.53193 0.42653 0.0
C139 C 0.22348 0.50166 0.38677 0.0
C140 C 0.21454 0.51579 0.35813 0.0
C141 C 0.20044 0.53826 0.36402 0.0
C142 C 0.19486 0.5462 0.39776 0.0
C143 C 0.21915 0.50708 0.3219 0.0
C144 C 0.23091 0.52403 0.29865 0.0
C145 C 0.21135 0.48259 0.3099 0.0
C146 C 0.19778 0.46421 0.33256 0.0
C147 C 0.17454 0.47103 0.34855 0.0
C148 C 0.16192 0.45361 0.37 0.0
C149 C 0.17225 0.42924 0.37543 0.0
C150 C 0.19518 0.4222 0.35933 0.0
C151 C 0.2079 0.43956 0.33788 0.0
H152 H 0.16244 0.41578 0.39203 0.0
H153 H 0.28273 0.58411 0.18041 0.0
H154 H 0.52648 0.26564 0.6479 0.0
H155 H 0.51682 0.26814 0.70985 0.0
H156 H 0.50311 0.18659 0.7114 0.0
H157 H 0.51154 0.18422 0.64928 0.0
H158 H 0.47043 0.2074 0.75104 0.0
H159 H 0.56172 0.21625 0.74013 0.0
H160 H 0.60218 0.23497 0.71895 0.0
H161 H 0.58244 0.30736 0.76491 0.0
H162 H 0.54169 0.28914 0.786 0.0
H163 H 0.49383 0.18388 0.93014 0.0
H164 H 0.50243 0.18692 0.86796 0.0
H165 H 0.48612 0.26784 0.871 0.0
H166 H 0.47683 0.2649 0.93323 0.0
H167 H 0.53314 0.24972 0.83021 0.0
H168 H 0.44135 0.23745 0.84276 0.0
H169 H 0.40308 0.2155 0.86553 0.0
H170 H 0.42715 0.14519 0.81749 0.0
H171 H 0.46581 0.16666 0.79488 0.0
C172 C 0.52111 0.2483 0.66138 0.0
C173 C 0.51989 0.22472 0.64365 0.0
C174 C 0.5158 0.2497 0.69693 0.0
C175 C 0.50982 0.22745 0.71571 0.0
C176 C 0.50775 0.20405 0.6977 0.0
C177 C 0.51258 0.20272 0.66208 0.0
C178 C 0.50615 0.22832 0.7541 0.0
C179 C 0.48434 0.21649 0.76822 0.0
C180 C 0.52402 0.24042 0.77687 0.0
C181 C 0.54853 0.25141 0.76431 0.0
C182 C 0.56593 0.23621 0.74551 0.0
C183 C 0.58892 0.24672 0.73355 0.0
C184 C 0.59484 0.27236 0.74049 0.0
C185 C 0.57781 0.28752 0.7595 0.0
C186 C 0.55477 0.27711 0.77148 0.0
C187 C 0.49244 0.20243 0.91778 0.0
C188 C 0.48457 0.22416 0.93666 0.0
C189 C 0.49728 0.20409 0.8822 0.0
C190 C 0.49476 0.22757 0.86492 0.0
C191 C 0.48816 0.24956 0.88393 0.0
C192 C 0.48283 0.24783 0.91944 0.0
C193 C 0.49767 0.22871 0.82668 0.0
C194 C 0.51928 0.24085 0.81276 0.0
C195 C 0.47993 0.21647 0.80413 0.0
C196 C 0.4566 0.2036 0.81744 0.0
C197 C 0.43861 0.21726 0.83732 0.0
C198 C 0.41682 0.20492 0.85015 0.0
C199 C 0.41272 0.17895 0.84304 0.0
C200 C 0.43037 0.1653 0.82301 0.0
C201 C 0.45221 0.17755 0.81017 0.0
H202 H 0.39584 0.16943 0.85299 0.0
H203 H 0.61266 0.28046 0.73121 0.0
H204 H 0.79884 0.50152 0.43544 0.0
H205 H 0.79472 0.51572 0.37511 0.0
H206 H 0.79722 0.4371 0.34028 0.0
H207 H 0.80167 0.42285 0.40016 0.0
H208 H 0.82946 0.46522 0.30402 0.0
H209 H 0.7413 0.47226 0.33732 0.0
H210 H 0.7049 0.48626 0.37335 0.0
H211 H 0.72321 0.56494 0.35277 0.0
H212 H 0.75996 0.55142 0.31698 0.0
H213 H 0.80244 0.49302 0.12664 0.0
H214 H 0.79754 0.476 0.18549 0.0
H215 H 0.79802 0.55292 0.22687 0.0
H216 H 0.80265 0.56999 0.1685 0.0
H217 H 0.76228 0.52386 0.25877 0.0
H218 H 0.85185 0.51678 0.22894 0.0
H219 H 0.88849 0.50298 0.19317 0.0
H220 H 0.86737 0.42423 0.20774 0.0
H221 H 0.83037 0.4376 0.24322 0.0
C222 C 0.79819 0.48726 0.41495 0.0
C223 C 0.80069 0.46107 0.42265 0.0
C224 C 0.79577 0.49539 0.38045 0.0
C225 C 0.79557 0.47747 0.35308 0.0
C226 C 0.79742 0.4513 0.36087 0.0
C227 C 0.79991 0.44319 0.39521 0.0
C228 C 0.79482 0.48591 0.31623 0.0
C229 C 0.81449 0.47769 0.29402 0.0
C230 C 0.77564 0.50261 0.30326 0.0
C231 C 0.75354 0.51082 0.32473 0.0
C232 C 0.7377 0.49255 0.3407 0.0
C233 C 0.71698 0.5004 0.36104 0.0
C234 C 0.71178 0.52647 0.36542 0.0
C235 C 0.72727 0.54475 0.34939 0.0
C236 C 0.74803 0.53701 0.32904 0.0
C237 C 0.80126 0.50629 0.14825 0.0
C238 C 0.80314 0.53285 0.14286 0.0
C239 C 0.79855 0.49654 0.18188 0.0
C240 C 0.79768 0.51319 0.21066 0.0
C241 C 0.79864 0.5397 0.20513 0.0
C242 C 0.80143 0.54942 0.17167 0.0
C243 C 0.79691 0.50317 0.24671 0.0
C244 C 0.77706 0.51118 0.26877 0.0
C245 C 0.81592 0.48626 0.25961 0.0
C246 C 0.83819 0.47819 0.23838 0.0
C247 C 0.8549 0.49653 0.22427 0.0
C248 C 0.87575 0.48878 0.2041 0.0
C249 C 0.88021 0.46274 0.1981 0.0
C250 C 0.86386 0.44439 0.21235 0.0
C251 C 0.84296 0.45204 0.2325 0.0
H252 H 0.89637 0.45679 0.18248 0.0
H253 H 0.69573 0.53251 0.38117 0.0
H254 H 0.55 0.75207 0.9131 0.0
H255 H 0.5372 0.75246 0.85197 0.0
H256 H 0.49249 0.8208 0.86979 0.0
H257 H 0.50458 0.82004 0.93119 0.0
H258 H 0.46793 0.7911 0.82587 0.0
H259 H 0.55523 0.82182 0.83526 0.0
H260 H 0.60102 0.81925 0.85188 0.0
H261 H 0.60987 0.752 0.78851 0.0
H262 H 0.56403 0.75399 0.77185 0.0
H263 H 0.46345 0.84922 0.66285 0.0
H264 H 0.47448 0.83834 0.72238 0.0
H265 H 0.50734 0.76694 0.68777 0.0
H266 H 0.49623 0.77775 0.62738 0.0
H267 H 0.53745 0.79243 0.73837 0.0
H268 H 0.45031 0.7654 0.72408 0.0
H269 H 0.40488 0.76997 0.70662 0.0
H270 H 0.39593 0.83212 0.7789 0.0
H271 H 0.44143 0.8282 0.7964 0.0
C272 C 0.53715 0.767 0.90413 0.0
C273 C 0.52847 0.78613 0.92706 0.0
C274 C 0.52998 0.7673 0.86904 0.0
C275 C 0.51435 0.78701 0.85593 0.0
C276 C 0.50467 0.80544 0.87913 0.0
C277 C 0.51159 0.80498 0.91432 0.0
C278 C 0.50881 0.78908 0.81796 0.0
C279 C 0.48317 0.79157 0.80683 0.0
C280 C 0.52859 0.78903 0.79278 0.0
C281 C 0.55616 0.78789 0.80263 0.0
C282 C 0.56691 0.80639 0.82506 0.0
C283 C 0.59287 0.80505 0.83446 0.0
C284 C 0.60832 0.78543 0.82135 0.0
C285 C 0.59786 0.76716 0.79871 0.0
C286 C 0.5719 0.76839 0.78926 0.0
C287 C 0.47311 0.83119 0.66765 0.0
C288 C 0.47879 0.81427 0.64021 0.0
C289 C 0.47932 0.82497 0.70186 0.0
C290 C 0.49134 0.80164 0.70967 0.0
C291 C 0.49791 0.78499 0.68234 0.0
C292 C 0.49156 0.79119 0.64787 0.0
C293 C 0.49667 0.79493 0.74653 0.0
C294 C 0.52222 0.7916 0.75742 0.0
C295 C 0.47685 0.79439 0.77153 0.0
C296 C 0.44935 0.7966 0.76139 0.0
C297 C 0.4387 0.78015 0.7361 0.0
C298 C 0.41293 0.78262 0.72621 0.0
C299 C 0.39753 0.80135 0.74161 0.0
C300 C 0.40788 0.81762 0.76699 0.0
C301 C 0.43366 0.81527 0.77693 0.0
H302 H 0.37759 0.80323 0.73391 0.0
H303 H 0.62842 0.78443 0.82866 0.0
H304 H 0.79443 0.50458 0.62733 0.0
H305 H 0.78727 0.52059 0.68648 0.0
H306 H 0.8098 0.44724 0.72781 0.0
H307 H 0.81686 0.43115 0.66917 0.0
H308 H 0.76802 0.46642 0.76146 0.0
H309 H 0.85191 0.49578 0.7268 0.0
H310 H 0.88265 0.51809 0.689 0.0
H311 H 0.84246 0.58895 0.705 0.0
H312 H 0.81124 0.56696 0.74253 0.0
H313 H 0.80423 0.49783 0.93562 0.0
H314 H 0.80113 0.48303 0.87534 0.0
H315 H 0.78262 0.5598 0.84253 0.0
H316 H 0.786 0.57474 0.90245 0.0
H317 H 0.81938 0.54058 0.80335 0.0
H318 H 0.73722 0.51185 0.84188 0.0
H319 H 0.70666 0.48946 0.87982 0.0
H320 H 0.74319 0.41765 0.85697 0.0
H321 H 0.77422 0.43966 0.81924 0.0
C322 C 0.79765 0.49183 0.64902 0.0
C323 C 0.8064 0.46666 0.64353 0.0
C324 C 0.79362 0.50101 0.6828 0.0
C325 C 0.79821 0.48515 0.7116 0.0
C326 C 0.80612 0.45981 0.70603 0.0
C327 C 0.81029 0.4507 0.67243 0.0
C328 C 0.79588 0.49508 0.74766 0.0
C329 C 0.77936 0.48253 0.77073 0.0
C330 C 0.81029 0.51641 0.75957 0.0
C331 C 0.82907 0.52967 0.73712 0.0
C332 C 0.8495 0.51607 0.72201 0.0
C333 C 0.86703 0.52867 0.70069 0.0
C334 C 0.86446 0.5549 0.69451 0.0
C335 C 0.84439 0.56862 0.70975 0.0
C336 C 0.82678 0.5561 0.73106 0.0
C337 C 0.79913 0.51147 0.91564 0.0
C338 C 0.79546 0.53748 0.92387 0.0
C339 C 0.79731 0.50298 0.88116 0.0
C340 C 0.79155 0.52029 0.85433 0.0
C341 C 0.78717 0.5461 0.8627 0.0
C342 C 0.78906 0.55459 0.89705 0.0
C343 C 0.79156 0.51188 0.81736 0.0
C344 C 0.80777 0.52465 0.7941 0.0
C345 C 0.77684 0.49077 0.80533 0.0
C346 C 0.7582 0.47745 0.82797 0.0
C347 C 0.73888 0.49131 0.84516 0.0
C348 C 0.72144 0.47868 0.86659 0.0
C349 C 0.72302 0.45216 0.87087 0.0
C350 C 0.74201 0.4382 0.85366 0.0
C351 C 0.75951 0.45074 0.83222 0.0
H352 H 0.7095 0.44242 0.88747 0.0
H353 H 0.87806 0.56462 0.678 0.0
H354 H 0.47115 0.80658 0.13232 0.0
H355 H 0.46573 0.80197 0.19497 0.0
H356 H 0.54734 0.79013 0.20712 0.0
H357 H 0.55275 0.7938 0.14446 0.0
H358 H 0.52361 0.76013 0.24985 0.0
H359 H 0.51757 0.84953 0.22316 0.0
H360 H 0.50097 0.88787 0.19329 0.0
H361 H 0.42556 0.87324 0.23321 0.0
H362 H 0.44165 0.8346 0.26295 0.0
H363 H 0.53272 0.79756 0.42972 0.0
H364 H 0.53685 0.7939 0.36656 0.0
H365 H 0.45435 0.79489 0.35565 0.0
H366 H 0.45001 0.79841 0.41852 0.0
H367 H 0.47813 0.82954 0.31271 0.0
H368 H 0.48637 0.74044 0.34205 0.0
H369 H 0.50486 0.70335 0.37275 0.0
H370 H 0.57878 0.71933 0.32899 0.0
H371 H 0.5608 0.75676 0.2984 0.0
C372 C 0.48792 0.80274 0.14827 0.0
C373 C 0.51241 0.80076 0.1333 0.0
C374 C 0.48482 0.80026 0.18419 0.0
C375 C 0.5062 0.79626 0.20605 0.0
C376 C 0.53052 0.79331 0.19097 0.0
C377 C 0.5336 0.79547 0.15504 0.0
C378 C 0.50341 0.79597 0.24461 0.0
C379 C 0.5139 0.77547 0.26357 0.0
C380 C 0.49047 0.81577 0.26274 0.0
C381 C 0.48076 0.83903 0.24497 0.0
C382 C 0.49741 0.85439 0.22536 0.0
C383 C 0.4881 0.87619 0.20849 0.0
C384 C 0.46222 0.88294 0.21127 0.0
C385 C 0.4456 0.86796 0.23103 0.0
C386 C 0.4548 0.84612 0.24792 0.0
C387 C 0.51544 0.79669 0.41393 0.0
C388 C 0.49104 0.79833 0.4293 0.0
C389 C 0.51784 0.79454 0.3778 0.0
C390 C 0.4959 0.79409 0.35632 0.0
C391 C 0.47155 0.79524 0.37165 0.0
C392 C 0.46912 0.79715 0.4077 0.0
C393 C 0.49824 0.79371 0.31782 0.0
C394 C 0.48774 0.81416 0.29891 0.0
C395 C 0.51145 0.77407 0.29987 0.0
C396 C 0.52229 0.75156 0.31821 0.0
C397 C 0.50662 0.73619 0.33922 0.0
C398 C 0.51699 0.71507 0.35655 0.0
C399 C 0.54299 0.70903 0.3529 0.0
C400 C 0.55866 0.72406 0.33183 0.0
C401 C 0.54837 0.74521 0.31447 0.0
H402 H 0.55099 0.69267 0.36633 0.0
H403 H 0.45505 0.89983 0.19819 0.0
H404 H 0.21512 0.50612 0.94301 0.0
H405 H 0.22208 0.52144 0.8837 0.0
H406 H 0.20163 0.44691 0.84335 0.0
H407 H 0.1949 0.43146 0.90217 0.0
H408 H 0.24263 0.46623 0.80958 0.0
H409 H 0.15837 0.49528 0.84334 0.0
H410 H 0.12725 0.51784 0.88052 0.0
H411 H 0.16689 0.58886 0.86379 0.0
H412 H 0.19847 0.56663 0.82686 0.0
H413 H 0.20721 0.49534 0.63469 0.0
H414 H 0.21035 0.48116 0.69505 0.0
H415 H 0.22725 0.55859 0.72758 0.0
H416 H 0.22369 0.57293 0.6676 0.0
H417 H 0.19085 0.53938 0.76645 0.0
H418 H 0.27347 0.51079 0.7289 0.0
H419 H 0.30432 0.48809 0.69148 0.0
H420 H 0.26804 0.41637 0.71486 0.0
H421 H 0.23673 0.43867 0.75207 0.0
C422 C 0.21228 0.49298 0.9215 0.0
C423 C 0.20428 0.46763 0.92735 0.0
C424 C 0.21619 0.50176 0.88763 0.0
C425 C 0.21214 0.48537 0.85904 0.0
C426 C 0.20489 0.4599 0.86495 0.0
C427 C 0.20092 0.45115 0.89867 0.0
C428 C 0.21447 0.49481 0.82284 0.0
C429 C 0.23119 0.48212 0.80004 0.0
C430 C 0.19994 0.51585 0.81056 0.0
C431 C 0.18094 0.52924 0.83268 0.0
C432 C 0.16057 0.51567 0.84782 0.0
C433 C 0.14283 0.5284 0.86881 0.0
C434 C 0.14514 0.55475 0.87461 0.0
C435 C 0.16516 0.56844 0.85934 0.0
C436 C 0.18297 0.55579 0.83836 0.0
C437 C 0.21198 0.50927 0.65463 0.0
C438 C 0.21509 0.53528 0.64631 0.0
C439 C 0.21384 0.50113 0.68916 0.0
C440 C 0.21913 0.51879 0.71595 0.0
C441 C 0.22305 0.54461 0.70746 0.0
C442 C 0.22107 0.55276 0.67307 0.0
C443 C 0.21898 0.51077 0.75298 0.0
C444 C 0.20256 0.52368 0.77596 0.0
C445 C 0.23379 0.48993 0.76536 0.0
C446 C 0.25261 0.47644 0.74303 0.0
C447 C 0.27194 0.4902 0.72585 0.0
C448 C 0.28954 0.4774 0.70471 0.0
C449 C 0.28811 0.45081 0.70073 0.0
C450 C 0.26911 0.43696 0.71794 0.0
C451 C 0.25145 0.44967 0.73909 0.0
H452 H 0.30175 0.44094 0.68436 0.0
H453 H 0.13138 0.56458 0.89085 0.0
H454 H 0.50148 0.18651 0.43916 0.0
H455 H 0.49182 0.1847 0.3771 0.0
H456 H 0.53337 0.25518 0.36183 0.0
H457 H 0.54332 0.25713 0.42407 0.0
H458 H 0.48658 0.25131 0.32201 0.0
H459 H 0.56364 0.20342 0.34413 0.0
H460 H 0.59034 0.17138 0.37436 0.0
H461 H 0.53812 0.11179 0.34291 0.0
H462 H 0.51089 0.14355 0.3129 0.0
H463 H 0.49467 0.23072 0.13738 0.0
H464 H 0.50615 0.24009 0.19808 0.0
H465 H 0.47603 0.1666 0.22859 0.0
H466 H 0.46491 0.15704 0.16852 0.0
H467 H 0.52062 0.1752 0.25989 0.0
H468 H 0.44223 0.22233 0.2411 0.0
H469 H 0.41408 0.25379 0.21217 0.0
H470 H 0.4672 0.31406 0.23786 0.0
H471 H 0.49585 0.28286 0.26655 0.0
C472 C 0.50827 0.20188 0.42279 0.0
C473 C 0.52336 0.22188 0.43663 0.0
C474 C 0.50279 0.20075 0.38725 0.0
C475 C 0.51216 0.21963 0.36479 0.0
C476 C 0.52602 0.24038 0.37871 0.0
C477 C 0.53172 0.24142 0.41428 0.0
C478 C 0.50878 0.21669 0.32665 0.0
C479 C 0.49435 0.2349 0.30825 0.0
C480 C 0.51864 0.19511 0.30884 0.0
C481 C 0.53512 0.1759 0.32652 0.0
C482 C 0.55775 0.18351 0.34387 0.0
C483 C 0.57299 0.1654 0.36094 0.0
C484 C 0.5659 0.13957 0.36062 0.0
C485 C 0.54358 0.1318 0.34316 0.0
C486 C 0.52825 0.14985 0.32608 0.0
C487 C 0.49063 0.21654 0.15704 0.0
C488 C 0.47882 0.19316 0.14804 0.0
C489 C 0.49706 0.22197 0.19175 0.0
C490 C 0.49176 0.20413 0.21802 0.0
C491 C 0.48035 0.18067 0.20888 0.0
C492 C 0.47392 0.17528 0.1744 0.0
C493 C 0.49792 0.20954 0.25514 0.0
C494 C 0.513 0.19177 0.27344 0.0
C495 C 0.48851 0.23144 0.27281 0.0
C496 C 0.47133 0.25022 0.25558 0.0
C497 C 0.44802 0.24225 0.2403 0.0
C498 C 0.43195 0.26004 0.22401 0.0
C499 C 0.43889 0.2859 0.22308 0.0
C500 C 0.46188 0.29402 0.23853 0.0
C501 C 0.47804 0.27629 0.25483 0.0
H502 H 0.42642 0.29964 0.21046 0.0
H503 H 0.57772 0.12558 0.37386 0.0
H504 H 0.90816 0.55414 0.05258 0.0
H505 H 0.95364 0.54188 0.05571 0.0
H506 H 0.93843 0.47754 0.98792 0.0
H507 H 0.8932 0.48932 0.98523 0.0
H508 H 0.96593 0.46266 0.04173 0.0
H509 H 0.97004 0.53214 0.96001 0.0
H510 H 0.96332 0.57636 0.93957 0.0
H511 H 0.00981 0.6051 0.02362 0.0
H512 H 0.01653 0.56104 0.04483 0.0
H513 H 0.09207 0.42681 0.99235 0.0
H514 H 0.04754 0.44174 0.99341 0.0
H515 H 0.06882 0.50191 0.06511 0.0
H516 H 0.11341 0.48728 0.064 0.0
H517 H 0.03874 0.52 1.0132 0.0
H518 H 0.03615 0.45017 0.09326 0.0
H519 H 0.04304 0.40586 0.11321 0.0
H520 H 0.99367 0.37771 0.03183 0.0
H521 H 0.98676 0.42184 1.01108 0.0
C522 C 0.9146 0.53754 0.0381 0.0
C523 C 0.89705 0.52267 1.01875 0.0
C524 C 0.9406 0.53057 0.03986 0.0
C525 C 0.94949 0.50879 1.02197 0.0
C526 C 0.93203 0.49431 1.00211 0.0
C527 C 0.90615 0.50114 1.00052 0.0
C528 C 0.97674 0.50039 0.02461 0.0
C529 C 0.98182 0.47514 0.0351 0.0
C530 C 0.99756 0.51684 1.01695 0.0
C531 C 0.99354 0.54332 1.00422 0.0
C532 C 0.97865 0.54791 0.9743 0.0
C533 C 0.97488 0.57293 0.96254 0.0
C534 C 0.98607 0.59353 0.98034 0.0
C535 C 1.00112 0.58913 1.00989 0.0
C536 C 0.00493 0.56413 1.02178 0.0
C537 C 0.08727 0.44311 1.00853 0.0
C538 C 0.10633 0.4558 0.02813 0.0
C539 C 0.06178 0.4516 1.00917 0.0
C540 C 0.05481 0.47285 0.02952 0.0
C541 C 0.07376 0.48549 0.0492 0.0
C542 C 0.09923 0.47701 0.04864 0.0
C543 C 0.02784 0.48218 0.02976 0.0
C544 C 0.02283 0.50759 1.01994 0.0
C545 C 0.00705 0.46586 0.03797 0.0
C546 C 0.01112 0.4393 0.05043 0.0
C547 C 0.02692 0.43451 0.07945 0.0
C548 C 0.0308 0.40943 0.09093 0.0
C549 C 0.01885 0.38898 0.07375 0.0
C550 C 1.00294 0.39357 0.04509 0.0
C551 C 0.99901 0.41862 0.03348 0.0
H552 H 0.02188 0.36957 0.08268 0.0
H553 H 0.98313 0.61289 0.9712 0.0
H554 H 0.52544 0.8932 0.52512 0.0
H555 H 0.53364 0.9392 0.52583 0.0
H556 H 0.4524 0.95372 0.53567 0.0
H557 H 0.44395 0.90754 0.53424 0.0
H558 H 0.47356 0.98571 0.48993 0.0
H559 H 0.49352 0.95822 0.60588 0.0
H560 H 0.51496 0.93175 0.65031 0.0
H561 H 0.58868 0.95771 0.61544 0.0
H562 H 0.56768 0.98408 0.57046 0.0
H563 H 0.47861 0.11414 0.54624 0.0
H564 H 0.47256 0.06793 0.54289 0.0
H565 H 0.55421 0.05751 0.53041 0.0
H566 H 0.56054 0.10404 0.53423 0.0
H567 H 0.53424 0.02339 0.576 0.0
H568 H 0.51409 0.05194 0.46112 0.0
H569 H 0.49251 0.07858 0.41702 0.0
H570 H 0.41902 0.05076 0.45012 0.0
H571 H 0.44015 0.0242 0.49477 0.0
C572 C 0.50927 0.90613 0.52741 0.0
C573 C 0.48403 0.89668 0.52982 0.0
C574 C 0.51403 0.93246 0.52796 0.0
C575 C 0.49369 0.94992 0.53137 0.0
C576 C 0.46841 0.94059 0.53313 0.0
C577 C 0.4636 0.9142 0.53238 0.0
C578 C 0.49885 0.97791 0.53308 0.0
C579 C 0.48657 0.99398 0.50904 0.0
C580 C 0.51638 0.98864 0.55741 0.0
C581 C 0.52903 0.97293 0.58459 0.0
C582 C 0.51431 0.95814 0.60752 0.0
C583 C 0.52638 0.94318 0.63283 0.0
C584 C 0.55317 0.943 0.63564 0.0
C585 C 0.56794 0.95785 0.61321 0.0
C586 C 0.55596 0.97282 0.58782 0.0
C587 C 0.49535 0.1021 0.54277 0.0
C588 C 0.52008 0.11281 0.54033 0.0
C589 C 0.49181 0.07564 0.54071 0.0
C590 C 0.51287 0.05928 0.53586 0.0
C591 C 0.53767 0.06982 0.53401 0.0
C592 C 0.54126 0.09638 0.53613 0.0
C593 C 0.50882 0.03118 0.53302 0.0
C594 C 0.5213 0.01509 0.55682 0.0
C595 C 0.49146 0.02043 0.5085 0.0
C596 C 0.4787 0.03624 0.48149 0.0
C597 C 0.49332 0.05163 0.45917 0.0
C598 C 0.48117 0.0667 0.43404 0.0
C599 C 0.45441 0.0664 0.43082 0.0
C600 C 0.43975 0.05098 0.45266 0.0
C601 C 0.4518 0.0359 0.47786 0.0
H602 H 0.44503 0.07809 0.41136 0.0
H603 H 0.56248 0.9314 0.65524 0.0
H604 H 0.08982 0.58805 0.53574 0.0
H605 H 0.04486 0.57412 0.53574 0.0
H606 H 0.06926 0.49517 0.53762 0.0
H607 H 0.11408 0.50883 0.53725 0.0
H608 H 0.03114 0.50199 0.49128 0.0
H609 H 0.04714 0.52419 0.61052 0.0
H610 H 0.06078 0.55213 0.65903 0.0
H611 H 1.00283 0.607 0.63116 0.0
H612 H 0.98906 0.57954 0.58217 0.0
H613 H 0.90977 0.44695 0.5342 0.0
H614 H 0.9551 0.45981 0.5351 0.0
H615 H 0.93255 0.53934 0.53525 0.0
H616 H 0.88746 0.52674 0.53489 0.0
H617 H 0.97002 0.53156 0.58117 0.0
H618 H 0.95441 0.5098 0.46148 0.0
H619 H 0.94074 0.48201 0.41283 0.0
H620 H 0.99789 0.42649 0.44133 0.0
H621 H 0.01168 0.45382 0.49046 0.0
C622 C 0.08562 0.56773 0.53617 0.0
C623 C 0.10558 0.54959 0.53659 0.0
C624 C 0.05991 0.5598 0.5363 0.0
C625 C 0.05369 0.53359 0.53698 0.0
C626 C 0.07358 0.51548 0.53708 0.0
C627 C 0.09923 0.52336 0.53699 0.0
C628 C 0.02649 0.52493 0.53742 0.0
C629 C 0.01785 0.50819 0.51119 0.0
C630 C 0.00903 0.53339 0.563 0.0
C631 C 0.01725 0.54993 0.59247 0.0
C632 C 0.03744 0.54231 0.61456 0.0
C633 C 0.04517 0.55804 0.64218 0.0
C634 C 0.03273 0.58135 0.64812 0.0
C635 C 0.01248 0.58895 0.6265 0.0
C636 C 0.00469 0.57331 0.59882 0.0
C637 C 0.91449 0.46717 0.53441 0.0
C638 C 0.89499 0.4858 0.53438 0.0
C639 C 0.9404 0.47449 0.5348 0.0
C640 C 0.94724 0.50057 0.53493 0.0
C641 C 0.92777 0.51913 0.53519 0.0
C642 C 0.90196 0.51185 0.53486 0.0
C643 C 0.97462 0.5087 0.53494 0.0
C644 C 0.98331 0.52532 0.56127 0.0
C645 C 0.99211 0.50015 0.50942 0.0
C646 C 0.98389 0.48373 0.47986 0.0
C647 C 0.96392 0.49157 0.45754 0.0
C648 C 0.95618 0.47592 0.42985 0.0
C649 C 0.96839 0.45247 0.42405 0.0
C650 C 0.98842 0.44465 0.44589 0.0
C651 C 0.99622 0.46021 0.47364 0.0
H652 H 0.96237 0.44038 0.4026 0.0
H653 H 0.03874 0.5935 0.66951 0.0
H654 H 0.48241 0.89208 1.01795 0.0
H655 H 0.47483 0.93812 1.0202 0.0
H656 H 0.55566 0.95122 0.03858 0.0
H657 H 0.56338 0.90489 0.03705 0.0
H658 H 0.52712 0.98046 0.08055 0.0
H659 H 0.52819 0.96213 0.95864 0.0
H660 H 0.51565 0.93959 0.90476 0.0
H661 H 0.43746 0.96373 0.91815 0.0
H662 H 0.44946 0.98613 0.9724 0.0
H663 H 0.52775 0.11316 0.04376 0.0
H664 H 0.53479 0.06701 0.04241 0.0
H665 H 0.45342 0.05454 0.02843 0.0
H666 H 0.44616 0.10097 0.02943 0.0
H667 H 0.48194 0.02505 0.98442 0.0
H668 H 0.48135 0.04386 0.10629 0.0
H669 H 0.49435 0.06668 0.15975 0.0
H670 H 0.57229 0.04189 0.14587 0.0
H671 H 0.55983 0.01921 0.09202 0.0
C672 C 0.49865 0.9047 1.02239 0.0
C673 C 0.52355 0.89479 0.02715 0.0
C674 C 0.49427 0.93107 0.02353 0.0
C675 C 0.51472 0.94818 0.02904 0.0
C676 C 0.53959 0.93837 0.03418 0.0
C677 C 0.54399 0.91191 0.0332 0.0
C678 C 0.50998 0.97625 0.02981 0.0
C679 C 0.51758 0.99027 0.0593 0.0
C680 C 0.49695 0.98897 1.00247 0.0
C681 C 0.48969 0.97561 0.96977 0.0
C682 C 0.50828 0.96247 0.95024 0.0
C683 C 0.50128 0.94975 0.91961 0.0
C684 C 0.47576 0.95018 0.90809 0.0
C685 C 0.45721 0.96339 0.92713 0.0
C686 C 0.46411 0.97613 0.95781 0.0
C687 C 0.51128 0.10067 0.04046 0.0
C688 C 0.48636 0.11078 0.03679 0.0
C689 C 0.51536 0.07424 0.03984 0.0
C690 C 0.49461 0.05731 0.03573 0.0
C691 C 0.4697 0.06728 0.03173 0.0
C692 C 0.46558 0.0938 0.0324 0.0
C693 C 0.4991 0.02921 0.03513 0.0
C694 C 0.49146 0.01521 1.00566 0.0
C695 C 0.51217 0.01653 0.06244 0.0
C696 C 0.51969 0.03003 0.09494 0.0
C697 C 0.5013 0.04343 0.11448 0.0
C698 C 0.50857 0.05632 0.14488 0.0
C699 C 0.53414 0.05578 0.15615 0.0
C700 C 0.55249 0.04231 0.13709 0.0
C701 C 0.54533 0.02941 0.10664 0.0
H702 H 0.53973 0.06577 0.17969 0.0
H703 H 0.47038 0.94031 0.88437 0.0
H704 H 0.21561 0.37087 0.06884 0.0
H705 H 0.23944 0.33045 0.07438 0.0
H706 H 0.28726 0.35195 0.98831 0.0
H707 H 0.26382 0.39226 0.98283 0.0
H708 H 0.27247 0.29976 0.98715 0.0
H709 H 0.30815 0.36342 0.06677 0.0
H710 H 0.30516 0.3944 0.11509 0.0
H711 H 0.27991 0.33454 0.18295 0.0
H712 H 0.28238 0.30327 0.13482 0.0
H713 H 0.3919 0.23843 1.001 0.0
H714 H 0.35504 0.26695 0.99644 0.0
H715 H 0.32744 0.24031 0.09526 0.0
H716 H 0.36486 0.21212 0.10049 0.0
H717 H 0.32542 0.29004 0.09385 0.0
H718 H 0.29619 0.22475 1.01722 0.0
H719 H 0.29842 0.19343 0.96928 0.0
H720 H 0.30982 0.25441 0.89657 0.0
H721 H 0.30802 0.28611 0.94414 0.0
C722 C 0.23094 0.36675 0.05078 0.0
C723 C 0.238 0.38478 0.02557 0.0
C724 C 0.24455 0.34372 0.05403 0.0
C725 C 0.26519 0.33832 0.03187 0.0
C726 C 0.27137 0.35574 1.00562 0.0
C727 C 0.25805 0.37882 1.00266 0.0
C728 C 0.28176 0.31557 0.03733 0.0
C729 C 0.2841 0.29756 1.01042 0.0
C730 C 0.29631 0.31238 0.06814 0.0
C731 C 0.29513 0.3311 0.09712 0.0
C732 C 0.30176 0.35692 0.09193 0.0
C733 C 0.30019 0.37451 0.11928 0.0
C734 C 0.29226 0.36646 0.15204 0.0
C735 C 0.28598 0.34076 0.15754 0.0
C736 C 0.28746 0.3231 0.13024 0.0
C737 C 0.37786 0.23835 1.02161 0.0
C738 C 0.38137 0.22298 0.05114 0.0
C739 C 0.35664 0.2546 1.01887 0.0
C740 C 0.33819 0.25558 0.04528 0.0
C741 C 0.34136 0.23986 0.07449 0.0
C742 C 0.36274 0.22371 0.07741 0.0
C743 C 0.31668 0.27431 0.04327 0.0
C744 C 0.31344 0.29171 0.07082 0.0
C745 C 0.30114 0.27678 1.01312 0.0
C746 C 0.30212 0.25781 0.98433 0.0
C747 C 0.29934 0.23149 0.99105 0.0
C748 C 0.3005 0.21366 0.96393 0.0
C749 C 0.3043 0.22192 0.92991 0.0
C750 C 0.30688 0.24804 0.92294 0.0
C751 C 0.30575 0.26595 0.94997 0.0
H752 H 0.3052 0.20809 0.90895 0.0
H753 H 0.29105 0.38012 0.17318 0.0
H754 H 0.79326 0.36691 0.50553 0.0
H755 H 0.76832 0.32706 0.50056 0.0
H756 H 0.71917 0.35247 0.58351 0.0
H757 H 0.74374 0.39217 0.58846 0.0
H758 H 0.73221 0.30052 0.58819 0.0
H759 H 0.70056 0.36148 0.50279 0.0
H760 H 0.70539 0.39024 0.45264 0.0
H761 H 0.73079 0.32702 0.39001 0.0
H762 H 0.72645 0.29794 0.43999 0.0
H763 H 0.61117 0.24331 0.57279 0.0
H764 H 0.64867 0.27108 0.57625 0.0
H765 H 0.67845 0.23712 0.48253 0.0
H766 H 0.64045 0.20946 0.47841 0.0
H767 H 0.68201 0.28752 0.47958 0.0
H768 H 0.70676 0.22502 0.56231 0.0
H769 H 0.70186 0.19611 0.61225 0.0
H770 H 0.6904 0.26078 0.67962 0.0
H771 H 0.69489 0.29008 0.63001 0.0
C772 C 0.77737 0.36379 0.52302 0.0
C773 C 0.77033 0.38272 0.54723 0.0
C774 C 0.76311 0.34108 0.52008 0.0
C775 C 0.74181 0.33692 0.54153 0.0
C776 C 0.73555 0.35529 0.56675 0.0
C777 C 0.74954 0.37803 0.56941 0.0
C778 C 0.72482 0.31436 0.53658 0.0
C779 C 0.72119 0.29762 0.56449 0.0
C780 C 0.71106 0.31019 0.50526 0.0
C781 C 0.71351 0.32762 0.47521 0.0
C782 C 0.70739 0.35376 0.4784 0.0
C783 C 0.71 0.37011 0.45 0.0
C784 C 0.71848 0.36049 0.41819 0.0
C785 C 0.72429 0.33446 0.41469 0.0
C786 C 0.72175 0.31804 0.44303 0.0
C787 C 0.62577 0.2415 0.55302 0.0
C788 C 0.62279 0.22411 0.52531 0.0
C789 C 0.64734 0.25734 0.55517 0.0
C790 C 0.66664 0.25596 0.52995 0.0
C791 C 0.66388 0.23844 0.50239 0.0
C792 C 0.64217 0.22261 0.50012 0.0
C793 C 0.68881 0.27392 0.53159 0.0
C794 C 0.6934 0.2899 0.50306 0.0
C795 C 0.70356 0.27728 0.56231 0.0
C796 C 0.70103 0.25975 0.59235 0.0
C797 C 0.70304 0.23308 0.58773 0.0
C798 C 0.70036 0.21662 0.61599 0.0
C799 C 0.69579 0.2266 0.64908 0.0
C800 C 0.69395 0.25307 0.65398 0.0
C801 C 0.69661 0.26962 0.6258 0.0
H802 H 0.69371 0.21382 0.67092 0.0
H803 H 0.72049 0.37317 0.39624 0.0
H804 H 0.76072 0.61 0.05699 0.0
H805 H 0.72887 0.64402 0.05444 0.0
H806 H 0.78216 0.69214 0.99961 0.0
H807 H 0.81454 0.65785 1.0019 0.0
H808 H 0.75158 0.71808 0.05303 0.0
H809 H 0.74059 0.66575 0.95227 0.0
H810 H 0.73709 0.62503 0.91991 0.0
H811 H 0.66929 0.60548 0.97688 0.0
H812 H 0.67263 0.64588 1.01005 0.0
H813 H 0.63951 0.79636 1.01267 0.0
H814 H 0.68006 0.77263 1.00683 0.0
H815 H 0.64443 0.70592 0.05142 0.0
H816 H 0.6042 0.72919 0.05719 0.0
H817 H 0.67039 0.69423 0.99272 0.0
H818 H 0.68507 0.74322 0.09849 0.0
H819 H 0.68906 0.78303 0.13283 0.0
H820 H 0.74981 0.80873 0.06663 0.0
H821 H 0.74594 0.76918 0.03161 0.0
C822 C 0.7659 0.62785 0.04461 0.0
C823 C 0.79013 0.63106 0.02927 0.0
C824 C 0.74762 0.6473 0.04321 0.0
C825 C 0.75306 0.67042 0.02642 0.0
C826 C 0.77762 0.67435 1.01257 0.0
C827 C 0.79604 0.65474 1.01386 0.0
C828 C 0.73226 0.68953 1.02193 0.0
C829 C 0.73401 0.7132 0.03919 0.0
C830 C 0.70932 0.68298 1.00407 0.0
C831 C 0.70696 0.65881 0.9838 0.0
C832 C 0.72502 0.6527 0.95807 0.0
C833 C 0.72306 0.62967 0.93956 0.0
C834 C 0.703 0.61266 0.94637 0.0
C835 C 0.68482 0.61867 0.97164 0.0
C836 C 0.68672 0.64165 0.99028 0.0
C837 C 0.6404 0.77666 1.02132 0.0
C838 C 0.6186 0.76466 0.03535 0.0
C839 C 0.66357 0.76317 1.01803 0.0
C840 C 0.66525 0.7375 0.0287 0.0
C841 C 0.64355 0.72565 0.04285 0.0
C842 C 0.62054 0.73906 0.04623 0.0
C843 C 0.68927 0.72245 0.0249 0.0
C844 C 0.68812 0.69946 1.00593 0.0
C845 C 0.71268 0.72969 0.04116 0.0
C846 C 0.71499 0.75342 0.06218 0.0
C847 C 0.69911 0.75747 0.09107 0.0
C848 C 0.70139 0.77996 0.11069 0.0
C849 C 0.71961 0.79844 0.10184 0.0
C850 C 0.73566 0.79443 0.07341 0.0
C851 C 0.73344 0.77198 0.05367 0.0
H852 H 0.72135 0.81583 0.11708 0.0
H853 H 0.70152 0.59484 0.93202 0.0
H854 H 0.38305 0.76629 0.61375 0.0
H855 H 0.3471 0.7364 0.60849 0.0
H856 H 0.33662 0.75779 0.50139 0.0
H857 H 0.37251 0.78794 0.50642 0.0
H858 H 0.28982 0.74745 0.53465 0.0
H859 H 0.37299 0.70833 0.51803 0.0
H860 H 0.41767 0.69791 0.53443 0.0
H861 H 0.39108 0.6607 0.62664 0.0
H862 H 0.34624 0.67124 0.61099 0.0
H863 H 0.27036 0.60254 0.48917 0.0
H864 H 0.29542 0.6417 0.4955 0.0
H865 H 0.23953 0.67173 0.56712 0.0
H866 H 0.21395 0.63243 0.56047 0.0
H867 H 0.31821 0.65772 0.55278 0.0
H868 H 0.24326 0.73877 0.5637 0.0
H869 H 0.19956 0.74904 0.54273 0.0
H870 H 0.21092 0.70123 0.45318 0.0
H871 H 0.25477 0.69095 0.47339 0.0
C872 C 0.37281 0.76506 0.58924 0.0
C873 C 0.38094 0.77921 0.56033 0.0
C874 C 0.35223 0.74797 0.58631 0.0
C875 C 0.33945 0.74462 0.55442 0.0
C876 C 0.34625 0.76008 0.52623 0.0
C877 C 0.36685 0.77722 0.52913 0.0
C878 C 0.32132 0.72295 0.54935 0.0
C879 C 0.29591 0.72782 0.53879 0.0
C880 C 0.32941 0.69734 0.55421 0.0
C881 C 0.35632 0.69081 0.56354 0.0
C882 C 0.3767 0.6981 0.54193 0.0
C883 C 0.40204 0.69215 0.55107 0.0
C884 C 0.40721 0.67872 0.58161 0.0
C885 C 0.38705 0.67114 0.60303 0.0
C886 C 0.36167 0.67709 0.59403 0.0
C887 C 0.26318 0.61756 0.50599 0.0
C888 C 0.24025 0.6143 0.52452 0.0
C889 C 0.27758 0.63995 0.50962 0.0
C890 C 0.26946 0.65963 0.53188 0.0
C891 C 0.24608 0.65689 0.54956 0.0
C892 C 0.2315 0.63442 0.54578 0.0
C893 C 0.28653 0.68205 0.53805 0.0
C894 C 0.31188 0.67732 0.54893 0.0
C895 C 0.27841 0.70766 0.53289 0.0
C896 C 0.25218 0.71387 0.52029 0.0
C897 C 0.23644 0.73051 0.5395 0.0
C898 C 0.21165 0.73633 0.52774 0.0
C899 C 0.20244 0.72572 0.49671 0.0
C900 C 0.21804 0.70934 0.47729 0.0
C901 C 0.24285 0.70348 0.48892 0.0
H902 H 0.18324 0.73024 0.48767 0.0
H903 H 0.42685 0.67412 0.58865 0.0
loop_
_geom_bond_atom_site_label_1
_geom_bond_atom_site_label_2
_geom_bond_distance
_geom_bond_site_symmetry_2
_ccdc_geom_bond_type
Mg0 O7 2.141 . S
Mg0 O8 2.048 . S
Mg0 O9 2.048 1_554 S
Mg0 O12 2.141 . S
C1 O2 1.313 . S
C1 O8 1.195 . S
O2 C1 1.313 . S
C3 O4 1.245 . S
C3 O12 1.289 . S
O4 C3 1.245 . S
C5 O6 1.245 . S
C5 O7 1.289 . S
O6 C5 1.245 . S
O7 Mg0 2.141 . S
O7 C5 1.289 . S
O8 Mg0 2.048 . S
O8 C1 1.195 . S
O9 Mg0 2.048 1_556 S
O9 C10 1.195 . S
C10 O9 1.195 . S
C10 O11 1.313 . S
O11 C10 1.313 . S
O12 Mg0 2.141 . S
O12 C3 1.289 . S
Mg13 O20 2.141 . S
Mg13 O21 2.048 . S
Mg13 O22 2.048 . S
Mg13 O25 2.141 . S
C14 O15 1.313 . S
C14 O21 1.195 . S
O15 C14 1.313 . S
C16 O17 1.245 . S
C16 O25 1.289 . S
O17 C16 1.245 . S
C18 O19 1.245 . S
C18 O20 1.289 . S
O19 C18 1.245 . S
O20 Mg13 2.141 . S
O20 C18 1.289 . S
O21 Mg13 2.048 . S
O21 C14 1.195 . S
O22 Mg13 2.048 . S
O22 C23 1.195 . S
C23 O22 1.195 . S
C23 O24 1.313 . S
O24 C23 1.313 . S
O25 Mg13 2.141 . S
O25 C16 1.289 . S
Mg26 O33 2.141 . S
Mg26 O34 2.048 . S
Mg26 O35 2.048 1_554 S
Mg26 O38 2.141 . S
C27 O28 1.313 . S
C27 O34 1.195 . S
O28 C27 1.313 . S
C29 O30 1.245 . S
C29 O38 1.289 . S
O30 C29 1.245 . S
C31 O32 1.245 . S
C31 O33 1.289 . S
O32 C31 1.245 . S
O33 Mg26 2.141 . S
O33 C31 1.289 . S
O34 Mg26 2.048 . S
O34 C27 1.195 . S
O35 Mg26 2.048 1_556 S
O35 C36 1.195 . S
C36 O35 1.195 . S
C36 O37 1.313 . S
O37 C36 1.313 . S
O38 Mg26 2.141 . S
O38 C29 1.289 . S
Mg39 O46 2.141 . S
Mg39 O47 2.048 . S
Mg39 O48 2.048 . S
Mg39 O51 2.141 . S
C40 O41 1.313 . S
C40 O47 1.195 . S
O41 C40 1.313 . S
C42 O43 1.245 . S
C42 O51 1.289 . S
O43 C42 1.245 . S
C44 O45 1.245 . S
C44 O46 1.289 . S
O45 C44 1.245 . S
O46 Mg39 2.141 . S
O46 C44 1.289 . S
O47 Mg39 2.048 . S
O47 C40 1.195 . S
O48 Mg39 2.048 . S
O48 C49 1.195 . S
C49 O48 1.195 . S
C49 O50 1.313 . S
O50 C49 1.313 . S
O51 Mg39 2.141 . S
O51 C42 1.289 . S
Mg52 O59 2.141 . S
Mg52 O60 2.048 . S
Mg52 O61 2.048 . S
Mg52 O64 2.141 . S
C53 O54 1.313 . S
C53 O60 1.195 . S
O54 C53 1.313 . S
C55 O56 1.245 . S
C55 O64 1.289 . S
O56 C55 1.245 . S
C57 O58 1.245 . S
C57 O59 1.289 . S
O58 C57 1.245 . S
O59 Mg52 2.141 . S
O59 C57 1.289 . S
O60 Mg52 2.048 . S
O60 C53 1.195 . S
O61 Mg52 2.048 . S
O61 C62 1.195 . S
C62 O61 1.195 . S
C62 O63 1.313 . S
O63 C62 1.313 . S
O64 Mg52 2.141 . S
O64 C55 1.289 . S
Mg65 O72 2.141 . S
Mg65 O73 2.048 . S
Mg65 O74 2.048 . S
Mg65 O77 2.141 1_554 S
C66 O67 1.313 . S
C66 O73 1.195 . S
O67 C66 1.313 . S
C68 O69 1.245 . S
C68 O77 1.289 . S
O69 C68 1.245 . S
C70 O71 1.245 . S
C70 O72 1.289 . S
O71 C70 1.245 . S
O72 Mg65 2.141 . S
O72 C70 1.289 . S
O73 Mg65 2.048 . S
O73 C66 1.195 . S
O74 Mg65 2.048 . S
O74 C75 1.195 . S
C75 O74 1.195 . S
C75 O76 1.313 . S
O76 C75 1.313 . S
O77 Mg65 2.141 1_556 S
O77 C68 1.289 . S
Mg78 O85 2.141 . S
Mg78 O86 2.048 . S
Mg78 O87 2.048 . S
Mg78 O90 2.141 . S
C79 O80 1.313 . S
C79 O86 1.195 . S
O80 C79 1.313 . S
C81 O82 1.245 . S
C81 O90 1.289 . S
O82 C81 1.245 . S
C83 O84 1.245 . S
C83 O85 1.289 . S
O84 C83 1.245 . S
O85 Mg78 2.141 . S
O85 C83 1.289 . S
O86 Mg78 2.048 . S
O86 C79 1.195 . S
O87 Mg78 2.048 . S
O87 C88 1.195 . S
C88 O87 1.195 . S
C88 O89 1.313 . S
O89 C88 1.313 . S
O90 Mg78 2.141 . S
O90 C81 1.289 . S
Mg91 O98 2.141 . S
Mg91 O99 2.048 . S
Mg91 O100 2.048 . S
Mg91 O103 2.141 1_554 S
C92 O93 1.313 . S
C92 O99 1.195 . S
O93 C92 1.313 . S
C94 O95 1.245 . S
C94 O103 1.289 . S
O95 C94 1.245 . S
C96 O97 1.245 . S
C96 O98 1.289 . S
O97 C96 1.245 . S
O98 Mg91 2.141 . S
O98 C96 1.289 . S
O99 Mg91 2.048 . S
O99 C92 1.195 . S
O100 Mg91 2.048 . S
O100 C101 1.195 . S
C101 O100 1.195 . S
C101 O102 1.313 . S
O102 C101 1.313 . S
O103 Mg91 2.141 1_556 S
O103 C94 1.289 . S
H104 C122 0.951 . S
H105 C124 0.951 . S
H106 C126 0.950 . S
H107 C127 0.950 . S
H108 C129 0.950 . S
H109 C132 0.950 . S
H110 C133 0.950 . S
H111 C135 0.950 . S
H112 C136 0.950 . S
H113 C137 0.951 . S
H114 C139 0.951 . S
H115 C141 0.950 . S
H116 C142 0.950 . S
H117 C144 0.950 . S
H118 C147 0.950 . S
H119 C148 0.950 . S
H120 C150 0.950 . S
H121 C151 0.950 . S
C122 H104 0.951 . S
C122 C123 1.366 . S
C122 C124 1.388 . S
C123 C122 1.366 . S
C123 C127 1.385 . S
C124 H105 0.951 . S
C124 C122 1.388 . S
C124 C125 1.366 . S
C125 C124 1.366 . S
C125 C126 1.414 . S
C125 C128 1.499 . S
C126 H106 0.950 . S
C126 C125 1.414 . S
C126 C127 1.374 . S
C127 H107 0.950 . S
C127 C123 1.385 . S
C127 C126 1.374 . S
C128 C125 1.499 . S
C128 C129 1.373 . S
C128 C130 1.389 . S
C129 H108 0.950 . S
C129 C128 1.373 . S
C129 C145 1.377 . S
C130 C128 1.389 . S
C130 C131 1.524 . S
C130 C144 1.377 . S
C131 C130 1.524 . S
C131 C132 1.397 . S
C131 C136 1.363 . S
C132 H109 0.950 . S
C132 C131 1.397 . S
C132 C133 1.334 . S
C133 H110 0.950 . S
C133 C132 1.334 . S
C133 C134 1.287 . S
C134 C133 1.287 . S
C134 C135 1.524 . S
C134 H153 0.913 . S
C135 H111 0.950 . S
C135 C134 1.524 . S
C135 C136 1.415 . S
C136 H112 0.950 . S
C136 C131 1.363 . S
C136 C135 1.415 . S
C137 H113 0.951 . S
C137 C138 1.366 . S
C137 C139 1.388 . S
C138 C137 1.366 . S
C138 C142 1.385 . S
C139 H114 0.951 . S
C139 C137 1.388 . S
C139 C140 1.366 . S
C140 C139 1.366 . S
C140 C141 1.414 . S
C140 C143 1.499 . S
C141 H115 0.950 . S
C141 C140 1.414 . S
C141 C142 1.374 . S
C142 H116 0.950 . S
C142 C138 1.385 . S
C142 C141 1.374 . S
C143 C140 1.499 . S
C143 C144 1.373 . S
C143 C145 1.389 . S
C144 H117 0.950 . S
C144 C130 1.377 . S
C144 C143 1.373 . S
C145 C129 1.377 . S
C145 C143 1.389 . S
C145 C146 1.524 . S
C146 C145 1.524 . S
C146 C147 1.397 . S
C146 C151 1.363 . S
C147 H118 0.950 . S
C147 C146 1.397 . S
C147 C148 1.334 . S
C148 H119 0.950 . S
C148 C147 1.334 . S
C148 C149 1.287 . S
C149 C148 1.287 . S
C149 C150 1.524 . S
C149 H152 0.999 . S
C150 H120 0.950 . S
C150 C149 1.524 . S
C150 C151 1.415 . S
C151 H121 0.950 . S
C151 C146 1.363 . S
C151 C150 1.415 . S
H152 C149 0.999 . S
H153 C134 0.913 . S
H154 C172 0.951 . S
H155 C174 0.951 . S
H156 C176 0.950 . S
H157 C177 0.950 . S
H158 C179 0.950 . S
H159 C182 0.950 . S
H160 C183 0.950 . S
H161 C185 0.950 . S
H162 C186 0.950 . S
H163 C187 0.951 . S
H164 C189 0.951 . S
H165 C191 0.950 . S
H166 C192 0.950 . S
H167 C194 0.950 . S
H168 C197 0.950 . S
H169 C198 0.950 . S
H170 C200 0.950 . S
H171 C201 0.950 . S
C172 H154 0.951 . S
C172 C173 1.366 . S
C172 C174 1.388 . S
C173 C172 1.366 . S
C173 C177 1.385 . S
C174 H155 0.951 . S
C174 C172 1.388 . S
C174 C175 1.366 . S
C175 C174 1.366 . S
C175 C176 1.414 . S
C175 C178 1.499 . S
C176 H156 0.950 . S
C176 C175 1.414 . S
C176 C177 1.374 . S
C177 H157 0.950 . S
C177 C173 1.385 . S
C177 C176 1.374 . S
C178 C175 1.499 . S
C178 C179 1.373 . S
C178 C180 1.389 . S
C179 H158 0.950 . S
C179 C178 1.373 . S
C179 C195 1.377 . S
C180 C178 1.389 . S
C180 C181 1.524 . S
C180 C194 1.377 . S
C181 C180 1.524 . S
C181 C182 1.397 . S
C181 C186 1.363 . S
C182 H159 0.950 . S
C182 C181 1.397 . S
C182 C183 1.334 . S
C183 H160 0.950 . S
C183 C182 1.334 . S
C183 C184 1.287 . S
C184 C183 1.287 . S
C184 C185 1.524 . S
C184 H203 0.913 . S
C185 H161 0.950 . S
C185 C184 1.524 . S
C185 C186 1.415 . S
C186 H162 0.950 . S
C186 C181 1.363 . S
C186 C185 1.415 . S
C187 H163 0.951 . S
C187 C188 1.366 . S
C187 C189 1.388 . S
C188 C187 1.366 . S
C188 C192 1.385 . S
C189 H164 0.951 . S
C189 C187 1.388 . S
C189 C190 1.366 . S
C190 C189 1.366 . S
C190 C191 1.414 . S
C190 C193 1.499 . S
C191 H165 0.950 . S
C191 C190 1.414 . S
C191 C192 1.374 . S
C192 H166 0.950 . S
C192 C188 1.385 . S
C192 C191 1.374 . S
C193 C190 1.499 . S
C193 C194 1.373 . S
C193 C195 1.389 . S
C194 H167 0.950 . S
C194 C180 1.377 . S
C194 C193 1.373 . S
C195 C179 1.377 . S
C195 C193 1.389 . S
C195 C196 1.524 . S
C196 C195 1.524 . S
C196 C197 1.397 . S
C196 C201 1.363 . S
C197 H168 0.950 . S
C197 C196 1.397 . S
C197 C198 1.334 . S
C198 H169 0.950 . S
C198 C197 1.334 . S
C198 C199 1.287 . S
C199 C198 1.287 . S
C199 C200 1.524 . S
C199 H202 0.999 . S
C200 H170 0.950 . S
C200 C199 1.524 . S
C200 C201 1.415 . S
C201 H171 0.950 . S
C201 C196 1.363 . S
C201 C200 1.415 . S
H202 C199 0.999 . S
H203 C184 0.913 . S
H204 C222 0.951 . S
H205 C224 0.951 . S
H206 C226 0.950 . S
H207 C227 0.950 . S
H208 C229 0.950 . S
H209 C232 0.950 . S
H210 C233 0.950 . S
H211 C235 0.950 . S
H212 C236 0.950 . S
H213 C237 0.951 . S
H214 C239 0.951 . S
H215 C241 0.950 . S
H216 C242 0.950 . S
H217 C244 0.950 . S
H218 C247 0.950 . S
H219 C248 0.950 . S
H220 C250 0.950 . S
H221 C251 0.950 . S
C222 H204 0.951 . S
C222 C223 1.366 . S
C222 C224 1.388 . S
C223 C222 1.366 . S
C223 C227 1.385 . S
C224 H205 0.951 . S
C224 C222 1.388 . S
C224 C225 1.366 . S
C225 C224 1.366 . S
C225 C226 1.414 . S
C225 C228 1.499 . S
C226 H206 0.950 . S
C226 C225 1.414 . S
C226 C227 1.374 . S
C227 H207 0.950 . S
C227 C223 1.385 . S
C227 C226 1.374 . S
C228 C225 1.499 . S
C228 C229 1.373 . S
C228 C230 1.389 . S
C229 H208 0.950 . S
C229 C228 1.373 . S
C229 C245 1.377 . S
C230 C228 1.389 . S
C230 C231 1.524 . S
C230 C244 1.377 . S
C231 C230 1.524 . S
C231 C232 1.397 . S
C231 C236 1.363 . S
C232 H209 0.950 . S
C232 C231 1.397 . S
C232 C233 1.334 . S
C233 H210 0.950 . S
C233 C232 1.334 . S
C233 C234 1.287 . S
C234 C233 1.287 . S
C234 C235 1.524 . S
C234 H253 0.913 . S
C235 H211 0.950 . S
C235 C234 1.524 . S
C235 C236 1.415 . S
C236 H212 0.950 . S
C236 C231 1.363 . S
C236 C235 1.415 . S
C237 H213 0.951 . S
C237 C238 1.366 . S
C237 C239 1.388 . S
C238 C237 1.366 . S
C238 C242 1.385 . S
C239 H214 0.951 . S
C239 C237 1.388 . S
C239 C240 1.366 . S
C240 C239 1.366 . S
C240 C241 1.414 . S
C240 C243 1.499 . S
C241 H215 0.950 . S
C241 C240 1.414 . S
C241 C242 1.374 . S
C242 H216 0.950 . S
C242 C238 1.385 . S
C242 C241 1.374 . S
C243 C240 1.499 . S
C243 C244 1.373 . S
C243 C245 1.389 . S
C244 H217 0.950 . S
C244 C230 1.377 . S
C244 C243 1.373 . S
C245 C229 1.377 . S
C245 C243 1.389 . S
C245 C246 1.524 . S
C246 C245 1.524 . S
C246 C247 1.397 . S
C246 C251 1.363 . S
C247 H218 0.950 . S
C247 C246 1.397 . S
C247 C248 1.334 . S
C248 H219 0.950 . S
C248 C247 1.334 . S
C248 C249 1.287 . S
C249 C248 1.287 . S
C249 C250 1.524 . S
C249 H252 0.999 . S
C250 H220 0.950 . S
C250 C249 1.524 . S
C250 C251 1.415 . S
C251 H221 0.950 . S
C251 C246 1.363 . S
C251 C250 1.415 . S
H252 C249 0.999 . S
H253 C234 0.913 . S
H254 C272 0.951 . S
H255 C274 0.951 . S
H256 C276 0.950 . S
H257 C277 0.950 . S
H258 C279 0.950 . S
H259 C282 0.950 . S
H260 C283 0.950 . S
H261 C285 0.950 . S
H262 C286 0.950 . S
H263 C287 0.951 . S
H264 C289 0.951 . S
H265 C291 0.950 . S
H266 C292 0.950 . S
H267 C294 0.950 . S
H268 C297 0.950 . S
H269 C298 0.950 . S
H270 C300 0.950 . S
H271 C301 0.950 . S
C272 H254 0.951 . S
C272 C273 1.366 . S
C272 C274 1.388 . S
C273 C272 1.366 . S
C273 C277 1.385 . S
C274 H255 0.951 . S
C274 C272 1.388 . S
C274 C275 1.366 . S
C275 C274 1.366 . S
C275 C276 1.414 . S
C275 C278 1.499 . S
C276 H256 0.950 . S
C276 C275 1.414 . S
C276 C277 1.374 . S
C277 H257 0.950 . S
C277 C273 1.385 . S
C277 C276 1.374 . S
C278 C275 1.499 . S
C278 C279 1.373 . S
C278 C280 1.389 . S
C279 H258 0.950 . S
C279 C278 1.373 . S
C279 C295 1.377 . S
C280 C278 1.389 . S
C280 C281 1.524 . S
C280 C294 1.377 . S
C281 C280 1.524 . S
C281 C282 1.397 . S
C281 C286 1.363 . S
C282 H259 0.950 . S
C282 C281 1.397 . S
C282 C283 1.334 . S
C283 H260 0.950 . S
C283 C282 1.334 . S
C283 C284 1.287 . S
C284 C283 1.287 . S
C284 C285 1.524 . S
C284 H303 0.913 . S
C285 H261 0.950 . S
C285 C284 1.524 . S
C285 C286 1.415 . S
C286 H262 0.950 . S
C286 C281 1.363 . S
C286 C285 1.415 . S
C287 H263 0.951 . S
C287 C288 1.366 . S
C287 C289 1.388 . S
C288 C287 1.366 . S
C288 C292 1.385 . S
C289 H264 0.951 . S
C289 C287 1.388 . S
C289 C290 1.366 . S
C290 C289 1.366 . S
C290 C291 1.414 . S
C290 C293 1.499 . S
C291 H265 0.950 . S
C291 C290 1.414 . S
C291 C292 1.374 . S
C292 H266 0.950 . S
C292 C288 1.385 . S
C292 C291 1.374 . S
C293 C290 1.499 . S
C293 C294 1.373 . S
C293 C295 1.389 . S
C294 H267 0.950 . S
C294 C280 1.377 . S
C294 C293 1.373 . S
C295 C279 1.377 . S
C295 C293 1.389 . S
C295 C296 1.524 . S
C296 C295 1.524 . S
C296 C297 1.397 . S
C296 C301 1.363 . S
C297 H268 0.950 . S
C297 C296 1.397 . S
C297 C298 1.334 . S
C298 H269 0.950 . S
C298 C297 1.334 . S
C298 C299 1.287 . S
C299 C298 1.287 . S
C299 C300 1.524 . S
C299 H302 0.999 . S
C300 H270 0.950 . S
C300 C299 1.524 . S
C300 C301 1.415 . S
C301 H271 0.950 . S
C301 C296 1.363 . S
C301 C300 1.415 . S
H302 C299 0.999 . S
H303 C284 0.913 . S
H304 C322 0.951 . S
H305 C324 0.951 . S
H306 C326 0.950 . S
H307 C327 0.950 . S
H308 C329 0.950 . S
H309 C332 0.950 . S
H310 C333 0.950 . S
H311 C335 0.950 . S
H312 C336 0.950 . S
H313 C337 0.951 . S
H314 C339 0.951 . S
H315 C341 0.950 . S
H316 C342 0.950 . S
H317 C344 0.950 . S
H318 C347 0.950 . S
H319 C348 0.950 . S
H320 C350 0.950 . S
H321 C351 0.950 . S
C322 H304 0.951 . S
C322 C323 1.366 . S
C322 C324 1.388 . S
C323 C322 1.366 . S
C323 C327 1.385 . S
C324 H305 0.951 . S
C324 C322 1.388 . S
C324 C325 1.366 . S
C325 C324 1.366 . S
C325 C326 1.414 . S
C325 C328 1.499 . S
C326 H306 0.950 . S
C326 C325 1.414 . S
C326 C327 1.374 . S
C327 H307 0.950 . S
C327 C323 1.385 . S
C327 C326 1.374 . S
C328 C325 1.499 . S
C328 C329 1.373 . S
C328 C330 1.389 . S
C329 H308 0.950 . S
C329 C328 1.373 . S
C329 C345 1.377 . S
C330 C328 1.389 . S
C330 C331 1.524 . S
C330 C344 1.377 . S
C331 C330 1.524 . S
C331 C332 1.397 . S
C331 C336 1.363 . S
C332 H309 0.950 . S
C332 C331 1.397 . S
C332 C333 1.334 . S
C333 H310 0.950 . S
C333 C332 1.334 . S
C333 C334 1.287 . S
C334 C333 1.287 . S
C334 C335 1.524 . S
C334 H353 0.913 . S
C335 H311 0.950 . S
C335 C334 1.524 . S
C335 C336 1.415 . S
C336 H312 0.950 . S
C336 C331 1.363 . S
C336 C335 1.415 . S
C337 H313 0.951 . S
C337 C338 1.366 . S
C337 C339 1.388 . S
C338 C337 1.366 . S
C338 C342 1.385 . S
C339 H314 0.951 . S
C339 C337 1.388 . S
C339 C340 1.366 . S
C340 C339 1.366 . S
C340 C341 1.414 . S
C340 C343 1.499 . S
C341 H315 0.950 . S
C341 C340 1.414 . S
C341 C342 1.374 . S
C342 H316 0.950 . S
C342 C338 1.385 . S
C342 C341 1.374 . S
C343 C340 1.499 . S
C343 C344 1.373 . S
C343 C345 1.389 . S
C344 H317 0.950 . S
C344 C330 1.377 . S
C344 C343 1.373 . S
C345 C329 1.377 . S
C345 C343 1.389 . S
C345 C346 1.524 . S
C346 C345 1.524 . S
C346 C347 1.397 . S
C346 C351 1.363 . S
C347 H318 0.950 . S
C347 C346 1.397 . S
C347 C348 1.334 . S
C348 H319 0.950 . S
C348 C347 1.334 . S
C348 C349 1.287 . S
C349 C348 1.287 . S
C349 C350 1.524 . S
C349 H352 0.999 . S
C350 H320 0.950 . S
C350 C349 1.524 . S
C350 C351 1.415 . S
C351 H321 0.950 . S
C351 C346 1.363 . S
C351 C350 1.415 . S
H352 C349 0.999 . S
H353 C334 0.913 . S
H354 C372 0.951 . S
H355 C374 0.951 . S
H356 C376 0.950 . S
H357 C377 0.950 . S
H358 C379 0.950 . S
H359 C382 0.950 . S
H360 C383 0.950 . S
H361 C385 0.950 . S
H362 C386 0.950 . S
H363 C387 0.951 . S
H364 C389 0.951 . S
H365 C391 0.950 . S
H366 C392 0.950 . S
H367 C394 0.950 . S
H368 C397 0.950 . S
H369 C398 0.950 . S
H370 C400 0.950 . S
H371 C401 0.950 . S
C372 H354 0.951 . S
C372 C373 1.366 . S
C372 C374 1.388 . S
C373 C372 1.366 . S
C373 C377 1.385 . S
C374 H355 0.951 . S
C374 C372 1.388 . S
C374 C375 1.366 . S
C375 C374 1.366 . S
C375 C376 1.414 . S
C375 C378 1.499 . S
C376 H356 0.950 . S
C376 C375 1.414 . S
C376 C377 1.374 . S
C377 H357 0.950 . S
C377 C373 1.385 . S
C377 C376 1.374 . S
C378 C375 1.499 . S
C378 C379 1.373 . S
C378 C380 1.389 . S
C379 H358 0.950 . S
C379 C378 1.373 . S
C379 C395 1.377 . S
C380 C378 1.389 . S
C380 C381 1.524 . S
C380 C394 1.377 . S
C381 C380 1.524 . S
C381 C382 1.397 . S
C381 C386 1.363 . S
C382 H359 0.950 . S
C382 C381 1.397 . S
C382 C383 1.334 . S
C383 H360 0.950 . S
C383 C382 1.334 . S
C383 C384 1.287 . S
C384 C383 1.287 . S
C384 C385 1.524 . S
C384 H403 0.913 . S
C385 H361 0.950 . S
C385 C384 1.524 . S
C385 C386 1.415 . S
C386 H362 0.950 . S
C386 C381 1.363 . S
C386 C385 1.415 . S
C387 H363 0.951 . S
C387 C388 1.366 . S
C387 C389 1.388 . S
C388 C387 1.366 . S
C388 C392 1.385 . S
C389 H364 0.951 . S
C389 C387 1.388 . S
C389 C390 1.366 . S
C390 C389 1.366 . S
C390 C391 1.414 . S
C390 C393 1.499 . S
C391 H365 0.950 . S
C391 C390 1.414 . S
C391 C392 1.374 . S
C392 H366 0.950 . S
C392 C388 1.385 . S
C392 C391 1.374 . S
C393 C390 1.499 . S
C393 C394 1.373 . S
C393 C395 1.389 . S
C394 H367 0.950 . S
C394 C380 1.377 . S
C394 C393 1.373 . S
C395 C379 1.377 . S
C395 C393 1.389 . S
C395 C396 1.524 . S
C396 C395 1.524 . S
C396 C397 1.397 . S
C396 C401 1.363 . S
C397 H368 0.950 . S
C397 C396 1.397 . S
C397 C398 1.334 . S
C398 H369 0.950 . S
C398 C397 1.334 . S
C398 C399 1.287 . S
C399 C398 1.287 . S
C399 C400 1.524 . S
C399 H402 0.999 . S
C400 H370 0.950 . S
C400 C399 1.524 . S
C400 C401 1.415 . S
C401 H371 0.950 . S
C401 C396 1.363 . S
C401 C400 1.415 . S
H402 C399 0.999 . S
H403 C384 0.913 . S
H404 C422 0.951 . S
H405 C424 0.951 . S
H406 C426 0.950 . S
H407 C427 0.950 . S
H408 C429 0.950 . S
H409 C432 0.950 . S
H410 C433 0.950 . S
H411 C435 0.950 . S
H412 C436 0.950 . S
H413 C437 0.951 . S
H414 C439 0.951 . S
H415 C441 0.950 . S
H416 C442 0.950 . S
H417 C444 0.950 . S
H418 C447 0.950 . S
H419 C448 0.950 . S
H420 C450 0.950 . S
H421 C451 0.950 . S
C422 H404 0.951 . S
C422 C423 1.366 . S
C422 C424 1.388 . S
C423 C422 1.366 . S
C423 C427 1.385 . S
C424 H405 0.951 . S
C424 C422 1.388 . S
C424 C425 1.366 . S
C425 C424 1.366 . S
C425 C426 1.414 . S
C425 C428 1.499 . S
C426 H406 0.950 . S
C426 C425 1.414 . S
C426 C427 1.374 . S
C427 H407 0.950 . S
C427 C423 1.385 . S
C427 C426 1.374 . S
C428 C425 1.499 . S
C428 C429 1.373 . S
C428 C430 1.389 . S
C429 H408 0.950 . S
C429 C428 1.373 . S
C429 C445 1.377 . S
C430 C428 1.389 . S
C430 C431 1.524 . S
C430 C444 1.377 . S
C431 C430 1.524 . S
C431 C432 1.397 . S
C431 C436 1.363 . S
C432 H409 0.950 . S
C432 C431 1.397 . S
C432 C433 1.334 . S
C433 H410 0.950 . S
C433 C432 1.334 . S
C433 C434 1.287 . S
C434 C433 1.287 . S
C434 C435 1.524 . S
C434 H453 0.913 . S
C435 H411 0.950 . S
C435 C434 1.524 . S
C435 C436 1.415 . S
C436 H412 0.950 . S
C436 C431 1.363 . S
C436 C435 1.415 . S
C437 H413 0.951 . S
C437 C438 1.366 . S
C437 C439 1.388 . S
C438 C437 1.366 . S
C438 C442 1.385 . S
C439 H414 0.951 . S
C439 C437 1.388 . S
C439 C440 1.366 . S
C440 C439 1.366 . S
C440 C441 1.414 . S
C440 C443 1.499 . S
C441 H415 0.950 . S
C441 C440 1.414 . S
C441 C442 1.374 . S
C442 H416 0.950 . S
C442 C438 1.385 . S
C442 C441 1.374 . S
C443 C440 1.499 . S
C443 C444 1.373 . S
C443 C445 1.389 . S
C444 H417 0.950 . S
C444 C430 1.377 . S
C444 C443 1.373 . S
C445 C429 1.377 . S
C445 C443 1.389 . S
C445 C446 1.524 . S
C446 C445 1.524 . S
C446 C447 1.397 . S
C446 C451 1.363 . S
C447 H418 0.950 . S
C447 C446 1.397 . S
C447 C448 1.334 . S
C448 H419 0.950 . S
C448 C447 1.334 . S
C448 C449 1.287 . S
C449 C448 1.287 . S
C449 C450 1.524 . S
C449 H452 0.999 . S
C450 H420 0.950 . S
C450 C449 1.524 . S
C450 C451 1.415 . S
C451 H421 0.950 . S
C451 C446 1.363 . S
C451 C450 1.415 . S
H452 C449 0.999 . S
H453 C434 0.913 . S
H454 C472 0.951 . S
H455 C474 0.951 . S
H456 C476 0.950 . S
H457 C477 0.950 . S
H458 C479 0.950 . S
H459 C482 0.950 . S
H460 C483 0.950 . S
H461 C485 0.950 . S
H462 C486 0.950 . S
H463 C487 0.951 . S
H464 C489 0.951 . S
H465 C491 0.950 . S
H466 C492 0.950 . S
H467 C494 0.950 . S
H468 C497 0.950 . S
H469 C498 0.950 . S
H470 C500 0.950 . S
H471 C501 0.950 . S
C472 H454 0.951 . S
C472 C473 1.366 . S
C472 C474 1.388 . S
C473 C472 1.366 . S
C473 C477 1.385 . S
C474 H455 0.951 . S
C474 C472 1.388 . S
C474 C475 1.366 . S
C475 C474 1.366 . S
C475 C476 1.414 . S
C475 C478 1.499 . S
C476 H456 0.950 . S
C476 C475 1.414 . S
C476 C477 1.374 . S
C477 H457 0.950 . S
C477 C473 1.385 . S
C477 C476 1.374 . S
C478 C475 1.499 . S
C478 C479 1.373 . S
C478 C480 1.389 . S
C479 H458 0.950 . S
C479 C478 1.373 . S
C479 C495 1.377 . S
C480 C478 1.389 . S
C480 C481 1.524 . S
C480 C494 1.377 . S
C481 C480 1.524 . S
C481 C482 1.397 . S
C481 C486 1.363 . S
C482 H459 0.950 . S
C482 C481 1.397 . S
C482 C483 1.334 . S
C483 H460 0.950 . S
C483 C482 1.334 . S
C483 C484 1.287 . S
C484 C483 1.287 . S
C484 C485 1.524 . S
C484 H503 0.913 . S
C485 H461 0.950 . S
C485 C484 1.524 . S
C485 C486 1.415 . S
C486 H462 0.950 . S
C486 C481 1.363 . S
C486 C485 1.415 . S
C487 H463 0.951 . S
C487 C488 1.366 . S
C487 C489 1.388 . S
C488 C487 1.366 . S
C488 C492 1.385 . S
C489 H464 0.951 . S
C489 C487 1.388 . S
C489 C490 1.366 . S
C490 C489 1.366 . S
C490 C491 1.414 . S
C490 C493 1.499 . S
C491 H465 0.950 . S
C491 C490 1.414 . S
C491 C492 1.374 . S
C492 H466 0.950 . S
C492 C488 1.385 . S
C492 C491 1.374 . S
C493 C490 1.499 . S
C493 C494 1.373 . S
C493 C495 1.389 . S
C494 H467 0.950 . S
C494 C480 1.377 . S
C494 C493 1.373 . S
C495 C479 1.377 . S
C495 C493 1.389 . S
C495 C496 1.524 . S
C496 C495 1.524 . S
C496 C497 1.397 . S
C496 C501 1.363 . S
C497 H468 0.950 . S
C497 C496 1.397 . S
C497 C498 1.334 . S
C498 H469 0.950 . S
C498 C497 1.334 . S
C498 C499 1.287 . S
C499 C498 1.287 . S
C499 C500 1.524 . S
C499 H502 0.999 . S
C500 H470 0.950 . S
C500 C499 1.524 . S
C500 C501 1.415 . S
C501 H471 0.950 . S
C501 C496 1.363 . S
C501 C500 1.415 . S
H502 C499 0.999 . S
H503 C484 0.913 . S
H504 C522 0.951 . S
H505 C524 0.951 . S
H506 C526 0.950 . S
H507 C527 0.950 . S
H508 C529 0.950 . S
H509 C532 0.950 . S
H510 C533 0.950 . S
H511 C535 0.950 . S
H512 C536 0.950 . S
H513 C537 0.951 . S
H514 C539 0.951 . S
H515 C541 0.950 . S
H516 C542 0.950 . S
H517 C544 0.950 . S
H518 C547 0.950 . S
H519 C548 0.950 . S
H520 C550 0.950 . S
H521 C551 0.950 1_556 S
C522 H504 0.951 . S
C522 C523 1.366 . S
C522 C524 1.388 . S
C523 C522 1.366 . S
C523 C527 1.385 1_554 S
C524 H505 0.951 . S
C524 C522 1.388 . S
C524 C525 1.366 . S
C525 C524 1.366 . S
C525 C526 1.414 1_554 S
C525 C528 1.499 . S
C526 H506 0.950 . S
C526 C525 1.414 1_556 S
C526 C527 1.374 . S
C527 H507 0.950 . S
C527 C523 1.385 1_556 S
C527 C526 1.374 . S
C528 C525 1.499 . S
C528 C529 1.373 . S
C528 C530 1.389 . S
C529 H508 0.950 . S
C529 C528 1.373 . S
C529 C545 1.377 1_655 S
C530 C528 1.389 . S
C530 C531 1.524 1_554 S
C530 C544 1.377 1_655 S
C531 C530 1.524 1_556 S
C531 C532 1.397 . S
C531 C536 1.363 1_556 S
C532 H509 0.950 . S
C532 C531 1.397 . S
C532 C533 1.334 . S
C533 H510 0.950 . S
C533 C532 1.334 . S
C533 C534 1.287 . S
C534 C533 1.287 . S
C534 C535 1.524 1_556 S
C534 H553 0.913 . S
C535 H511 0.950 . S
C535 C534 1.524 1_554 S
C535 C536 1.415 . S
C536 H512 0.950 . S
C536 C531 1.363 1_554 S
C536 C535 1.415 . S
C537 H513 0.951 . S
C537 C538 1.366 1_556 S
C537 C539 1.388 . S
C538 C537 1.366 1_554 S
C538 C542 1.385 . S
C539 H514 0.951 . S
C539 C537 1.388 . S
C539 C540 1.366 1_556 S
C540 C539 1.366 1_554 S
C540 C541 1.414 . S
C540 C543 1.499 . S
C541 H515 0.950 . S
C541 C540 1.414 . S
C541 C542 1.374 . S
C542 H516 0.950 . S
C542 C538 1.385 . S
C542 C541 1.374 . S
C543 C540 1.499 . S
C543 C544 1.373 . S
C543 C545 1.389 . S
C544 H517 0.950 . S
C544 C530 1.377 1_455 S
C544 C543 1.373 . S
C545 C529 1.377 1_455 S
C545 C543 1.389 . S
C545 C546 1.524 . S
C546 C545 1.524 . S
C546 C547 1.397 . S
C546 C551 1.363 . S
C547 H518 0.950 . S
C547 C546 1.397 . S
C547 C548 1.334 . S
C548 H519 0.950 . S
C548 C547 1.334 . S
C548 C549 1.287 . S
C549 C548 1.287 . S
C549 C550 1.524 . S
C549 H552 0.999 . S
C550 H520 0.950 . S
C550 C549 1.524 . S
C550 C551 1.415 . S
C551 H521 0.950 1_554 S
C551 C546 1.363 . S
C551 C550 1.415 . S
H552 C549 0.999 . S
H553 C534 0.913 . S
H554 C572 0.951 . S
H555 C574 0.951 . S
H556 C576 0.950 . S
H557 C577 0.950 . S
H558 C579 0.950 . S
H559 C582 0.950 . S
H560 C583 0.950 . S
H561 C585 0.950 . S
H562 C586 0.950 . S
H563 C587 0.951 . S
H564 C589 0.951 . S
H565 C591 0.950 . S
H566 C592 0.950 . S
H567 C594 0.950 . S
H568 C597 0.950 . S
H569 C598 0.950 . S
H570 C600 0.950 . S
H571 C601 0.950 . S
C572 H554 0.951 . S
C572 C573 1.366 . S
C572 C574 1.388 . S
C573 C572 1.366 . S
C573 C577 1.385 . S
C574 H555 0.951 . S
C574 C572 1.388 . S
C574 C575 1.366 . S
C575 C574 1.366 . S
C575 C576 1.414 . S
C575 C578 1.499 . S
C576 H556 0.950 . S
C576 C575 1.414 . S
C576 C577 1.374 . S
C577 H557 0.950 . S
C577 C573 1.385 . S
C577 C576 1.374 . S
C578 C575 1.499 . S
C578 C579 1.373 . S
C578 C580 1.389 . S
C579 H558 0.950 . S
C579 C578 1.373 . S
C579 C595 1.377 1_565 S
C580 C578 1.389 . S
C580 C581 1.524 . S
C580 C594 1.377 1_565 S
C581 C580 1.524 . S
C581 C582 1.397 . S
C581 C586 1.363 . S
C582 H559 0.950 . S
C582 C581 1.397 . S
C582 C583 1.334 . S
C583 H560 0.950 . S
C583 C582 1.334 . S
C583 C584 1.287 . S
C584 C583 1.287 . S
C584 C585 1.524 . S
C584 H603 0.913 . S
C585 H561 0.950 . S
C585 C584 1.524 . S
C585 C586 1.415 . S
C586 H562 0.950 . S
C586 C581 1.363 . S
C586 C585 1.415 . S
C587 H563 0.951 . S
C587 C588 1.366 . S
C587 C589 1.388 . S
C588 C587 1.366 . S
C588 C592 1.385 . S
C589 H564 0.951 . S
C589 C587 1.388 . S
C589 C590 1.366 . S
C590 C589 1.366 . S
C590 C591 1.414 . S
C590 C593 1.499 . S
C591 H565 0.950 . S
C591 C590 1.414 . S
C591 C592 1.374 . S
C592 H566 0.950 . S
C592 C588 1.385 . S
C592 C591 1.374 . S
C593 C590 1.499 . S
C593 C594 1.373 . S
C593 C595 1.389 . S
C594 H567 0.950 . S
C594 C580 1.377 1_545 S
C594 C593 1.373 . S
C595 C579 1.377 1_545 S
C595 C593 1.389 . S
C595 C596 1.524 . S
C596 C595 1.524 . S
C596 C597 1.397 . S
C596 C601 1.363 . S
C597 H568 0.950 . S
C597 C596 1.397 . S
C597 C598 1.334 . S
C598 H569 0.950 . S
C598 C597 1.334 . S
C598 C599 1.287 . S
C599 C598 1.287 . S
C599 C600 1.524 . S
C599 H602 0.999 . S
C600 H570 0.950 . S
C600 C599 1.524 . S
C600 C601 1.415 . S
C601 H571 0.950 . S
C601 C596 1.363 . S
C601 C600 1.415 . S
H602 C599 0.999 . S
H603 C584 0.913 . S
H604 C622 0.951 . S
H605 C624 0.951 . S
H606 C626 0.950 . S
H607 C627 0.950 . S
H608 C629 0.950 . S
H609 C632 0.950 . S
H610 C633 0.950 . S
H611 C635 0.950 . S
H612 C636 0.950 . S
H613 C637 0.951 . S
H614 C639 0.951 . S
H615 C641 0.950 . S
H616 C642 0.950 . S
H617 C644 0.950 . S
H618 C647 0.950 . S
H619 C648 0.950 . S
H620 C650 0.950 . S
H621 C651 0.950 . S
C622 H604 0.951 . S
C622 C623 1.366 . S
C622 C624 1.388 . S
C623 C622 1.366 . S
C623 C627 1.385 . S
C624 H605 0.951 . S
C624 C622 1.388 . S
C624 C625 1.366 . S
C625 C624 1.366 . S
C625 C626 1.414 . S
C625 C628 1.499 . S
C626 H606 0.950 . S
C626 C625 1.414 . S
C626 C627 1.374 . S
C627 H607 0.950 . S
C627 C623 1.385 . S
C627 C626 1.374 . S
C628 C625 1.499 . S
C628 C629 1.373 . S
C628 C630 1.389 . S
C629 H608 0.950 . S
C629 C628 1.373 . S
C629 C645 1.377 1_455 S
C630 C628 1.389 . S
C630 C631 1.524 . S
C630 C644 1.377 1_455 S
C631 C630 1.524 . S
C631 C632 1.397 . S
C631 C636 1.363 . S
C632 H609 0.950 . S
C632 C631 1.397 . S
C632 C633 1.334 . S
C633 H610 0.950 . S
C633 C632 1.334 . S
C633 C634 1.287 . S
C634 C633 1.287 . S
C634 C635 1.524 . S
C634 H653 0.913 . S
C635 H611 0.950 . S
C635 C634 1.524 . S
C635 C636 1.415 . S
C636 H612 0.950 . S
C636 C631 1.363 . S
C636 C635 1.415 . S
C637 H613 0.951 . S
C637 C638 1.366 . S
C637 C639 1.388 . S
C638 C637 1.366 . S
C638 C642 1.385 . S
C639 H614 0.951 . S
C639 C637 1.388 . S
C639 C640 1.366 . S
C640 C639 1.366 . S
C640 C641 1.414 . S
C640 C643 1.499 . S
C641 H615 0.950 . S
C641 C640 1.414 . S
C641 C642 1.374 . S
C642 H616 0.950 . S
C642 C638 1.385 . S
C642 C641 1.374 . S
C643 C640 1.499 . S
C643 C644 1.373 . S
C643 C645 1.389 . S
C644 H617 0.950 . S
C644 C630 1.377 1_655 S
C644 C643 1.373 . S
C645 C629 1.377 1_655 S
C645 C643 1.389 . S
C645 C646 1.524 . S
C646 C645 1.524 . S
C646 C647 1.397 . S
C646 C651 1.363 . S
C647 H618 0.950 . S
C647 C646 1.397 . S
C647 C648 1.334 . S
C648 H619 0.950 . S
C648 C647 1.334 . S
C648 C649 1.287 . S
C649 C648 1.287 . S
C649 C650 1.524 . S
C649 H652 0.999 . S
C650 H620 0.950 . S
C650 C649 1.524 . S
C650 C651 1.415 . S
C651 H621 0.950 . S
C651 C646 1.363 . S
C651 C650 1.415 . S
H652 C649 0.999 . S
H653 C634 0.913 . S
H654 C672 0.951 . S
H655 C674 0.951 . S
H656 C676 0.950 . S
H657 C677 0.950 . S
H658 C679 0.950 . S
H659 C682 0.950 . S
H660 C683 0.950 . S
H661 C685 0.950 . S
H662 C686 0.950 . S
H663 C687 0.951 . S
H664 C689 0.951 . S
H665 C691 0.959 . S
H666 C692 0.958 . S
H667 C694 0.950 . S
H668 C697 0.950 . S
H669 C698 0.950 . S
H670 C700 0.950 . S
H671 C701 0.950 . S
C672 H654 0.951 . S
C672 C673 1.366 1_556 S
C672 C674 1.388 . S
C673 C672 1.366 1_554 S
C673 C677 1.385 . S
C674 H655 0.951 . S
C674 C672 1.388 . S
C674 C675 1.366 1_556 S
C675 C674 1.366 1_554 S
C675 C676 1.414 . S
C675 C678 1.499 . S
C676 H656 0.950 . S
C676 C675 1.414 . S
C676 C677 1.374 . S
C677 H657 0.950 . S
C677 C673 1.385 . S
C677 C676 1.374 . S
C678 C675 1.499 . S
C678 C679 1.373 . S
C678 C680 1.389 1_554 S
C679 H658 0.950 . S
C679 C678 1.373 . S
C679 C695 1.377 1_565 S
C680 C678 1.389 1_556 S
C680 C681 1.524 . S
C680 C694 1.377 1_565 S
C681 C680 1.524 . S
C681 C682 1.397 . S
C681 C686 1.363 . S
C682 H659 0.950 . S
C682 C681 1.397 . S
C682 C683 1.334 . S
C683 H660 0.950 . S
C683 C682 1.334 . S
C683 C684 1.287 . S
C684 C683 1.287 . S
C684 C685 1.524 . S
C684 H703 0.913 . S
C685 H661 0.950 . S
C685 C684 1.524 . S
C685 C686 1.415 . S
C686 H662 0.950 . S
C686 C681 1.363 . S
C686 C685 1.415 . S
C687 H663 0.951 . S
C687 C688 1.366 . S
C687 C689 1.388 . S
C688 C687 1.366 . S
C688 C692 1.377 1_554 S
C689 H664 0.951 . S
C689 C687 1.388 . S
C689 C690 1.366 . S
C690 C689 1.366 . S
C690 C691 1.406 1_554 S
C690 C693 1.499 . S
C691 H665 0.959 . S
C691 C690 1.406 1_556 S
C691 C692 1.374 . S
C692 H666 0.958 . S
C692 C688 1.377 1_556 S
C692 C691 1.374 . S
C693 C690 1.499 . S
C693 C694 1.373 1_554 S
C693 C695 1.389 . S
C694 H667 0.950 . S
C694 C680 1.377 1_545 S
C694 C693 1.373 1_556 S
C695 C679 1.377 1_545 S
C695 C693 1.389 . S
C695 C696 1.524 . S
C696 C695 1.524 . S
C696 C697 1.397 . S
C696 C701 1.363 . S
C697 H668 0.950 . S
C697 C696 1.397 . S
C697 C698 1.334 . S
C698 H669 0.950 . S
C698 C697 1.334 . S
C698 C699 1.287 . S
C699 C698 1.287 . S
C699 C700 1.524 . S
C699 H702 0.999 . S
C700 H670 0.950 . S
C700 C699 1.524 . S
C700 C701 1.415 . S
C701 H671 0.950 . S
C701 C696 1.363 . S
C701 C700 1.415 . S
H702 C699 0.999 . S
H703 C684 0.913 . S
H704 C722 0.951 . S
H705 C724 0.951 . S
H706 C726 0.950 . S
H707 C727 0.950 . S
H708 C729 0.950 . S
H709 C732 0.950 . S
H710 C733 0.950 . S
H711 C735 0.950 . S
H712 C736 0.950 . S
H713 C737 0.951 . S
H714 C739 0.951 . S
H715 C741 0.950 . S
H716 C742 0.950 . S
H717 C744 0.950 . S
H718 C747 0.950 1_554 S
H719 C748 0.950 . S
H720 C750 0.950 . S
H721 C751 0.950 . S
C722 H704 0.951 . S
C722 C723 1.366 . S
C722 C724 1.388 . S
C723 C722 1.366 . S
C723 C727 1.385 1_554 S
C724 H705 0.951 . S
C724 C722 1.388 . S
C724 C725 1.366 . S
C725 C724 1.366 . S
C725 C726 1.414 1_554 S
C725 C728 1.499 . S
C726 H706 0.950 . S
C726 C725 1.414 1_556 S
C726 C727 1.374 . S
C727 H707 0.950 . S
C727 C723 1.385 1_556 S
C727 C726 1.374 . S
C728 C725 1.499 . S
C728 C729 1.373 1_554 S
C728 C730 1.389 . S
C729 H708 0.950 . S
C729 C728 1.373 1_556 S
C729 C745 1.377 . S
C730 C728 1.389 . S
C730 C731 1.524 . S
C730 C744 1.377 . S
C731 C730 1.524 . S
C731 C732 1.397 . S
C731 C736 1.363 . S
C732 H709 0.950 . S
C732 C731 1.397 . S
C732 C733 1.334 . S
C733 H710 0.950 . S
C733 C732 1.334 . S
C733 C734 1.287 . S
C734 C733 1.287 . S
C734 C735 1.524 . S
C734 H753 0.913 . S
C735 H711 0.950 . S
C735 C734 1.524 . S
C735 C736 1.415 . S
C736 H712 0.950 . S
C736 C731 1.363 . S
C736 C735 1.415 . S
C737 H713 0.951 . S
C737 C738 1.366 1_556 S
C737 C739 1.388 . S
C738 C737 1.366 1_554 S
C738 C742 1.385 . S
C739 H714 0.951 . S
C739 C737 1.388 . S
C739 C740 1.366 1_556 S
C740 C739 1.366 1_554 S
C740 C741 1.414 . S
C740 C743 1.499 . S
C741 H715 0.950 . S
C741 C740 1.414 . S
C741 C742 1.374 . S
C742 H716 0.950 . S
C742 C738 1.385 . S
C742 C741 1.374 . S
C743 C740 1.499 . S
C743 C744 1.373 . S
C743 C745 1.389 1_554 S
C744 H717 0.950 . S
C744 C730 1.377 . S
C744 C743 1.373 . S
C745 C729 1.377 . S
C745 C743 1.389 1_556 S
C745 C746 1.524 . S
C746 C745 1.524 . S
C746 C747 1.397 . S
C746 C751 1.363 . S
C747 H718 0.950 1_556 S
C747 C746 1.397 . S
C747 C748 1.334 . S
C748 H719 0.950 . S
C748 C747 1.334 . S
C748 C749 1.287 . S
C749 C748 1.287 . S
C749 C750 1.524 . S
C749 H752 0.999 . S
C750 H720 0.950 . S
C750 C749 1.524 . S
C750 C751 1.415 . S
C751 H721 0.950 . S
C751 C746 1.363 . S
C751 C750 1.415 . S
H752 C749 0.999 . S
H753 C734 0.913 . S
H754 C772 0.951 . S
H755 C774 0.951 . S
H756 C776 0.950 . S
H757 C777 0.950 . S
H758 C779 0.950 . S
H759 C782 0.950 . S
H760 C783 0.950 . S
H761 C785 0.950 . S
H762 C786 0.950 . S
H763 C787 0.951 . S
H764 C789 0.951 . S
H765 C791 0.950 . S
H766 C792 0.950 . S
H767 C794 0.950 . S
H768 C797 0.950 . S
H769 C798 0.950 . S
H770 C800 0.950 . S
H771 C801 0.950 . S
C772 H754 0.951 . S
C772 C773 1.366 . S
C772 C774 1.388 . S
C773 C772 1.366 . S
C773 C777 1.385 . S
C774 H755 0.951 . S
C774 C772 1.388 . S
C774 C775 1.366 . S
C775 C774 1.366 . S
C775 C776 1.414 . S
C775 C778 1.499 . S
C776 H756 0.950 . S
C776 C775 1.414 . S
C776 C777 1.374 . S
C777 H757 0.950 . S
C777 C773 1.385 . S
C777 C776 1.374 . S
C778 C775 1.499 . S
C778 C779 1.373 . S
C778 C780 1.389 . S
C779 H758 0.950 . S
C779 C778 1.373 . S
C779 C795 1.377 . S
C780 C778 1.389 . S
C780 C781 1.524 . S
C780 C794 1.377 . S
C781 C780 1.524 . S
C781 C782 1.397 . S
C781 C786 1.363 . S
C782 H759 0.950 . S
C782 C781 1.397 . S
C782 C783 1.334 . S
C783 H760 0.950 . S
C783 C782 1.334 . S
C783 C784 1.287 . S
C784 C783 1.287 . S
C784 C785 1.524 . S
C784 H803 0.913 . S
C785 H761 0.950 . S
C785 C784 1.524 . S
C785 C786 1.415 . S
C786 H762 0.950 . S
C786 C781 1.363 . S
C786 C785 1.415 . S
C787 H763 0.951 . S
C787 C788 1.366 . S
C787 C789 1.388 . S
C788 C787 1.366 . S
C788 C792 1.385 . S
C789 H764 0.951 . S
C789 C787 1.388 . S
C789 C790 1.366 . S
C790 C789 1.366 . S
C790 C791 1.414 . S
C790 C793 1.499 . S
C791 H765 0.950 . S
C791 C790 1.414 . S
C791 C792 1.374 . S
C792 H766 0.950 . S
C792 C788 1.385 . S
C792 C791 1.374 . S
C793 C790 1.499 . S
C793 C794 1.373 . S
C793 C795 1.389 . S
C794 H767 0.950 . S
C794 C780 1.377 . S
C794 C793 1.373 . S
C795 C779 1.377 . S
C795 C793 1.389 . S
C795 C796 1.524 . S
C796 C795 1.524 . S
C796 C797 1.397 . S
C796 C801 1.363 . S
C797 H768 0.950 . S
C797 C796 1.397 . S
C797 C798 1.334 . S
C798 H769 0.950 . S
C798 C797 1.334 . S
C798 C799 1.287 . S
C799 C798 1.287 . S
C799 C800 1.524 . S
C799 H802 0.999 . S
C800 H770 0.950 . S
C800 C799 1.524 . S
C800 C801 1.415 . S
C801 H771 0.950 . S
C801 C796 1.363 . S
C801 C800 1.415 . S
H802 C799 0.999 . S
H803 C784 0.913 . S
H804 C822 0.951 . S
H805 C824 0.951 . S
H806 C826 0.950 1_556 S
H807 C827 0.950 1_556 S
H808 C829 0.950 . S
H809 C832 0.950 . S
H810 C833 0.950 . S
H811 C835 0.950 . S
H812 C836 0.950 . S
H813 C837 0.951 1_556 S
H814 C839 0.947 1_556 S
H815 C841 0.950 . S
H816 C842 0.950 . S
H817 C844 0.950 . S
H818 C847 0.950 . S
H819 C848 0.950 . S
H820 C850 0.950 . S
H821 C851 0.950 . S
C822 H804 0.951 . S
C822 C823 1.366 . S
C822 C824 1.388 . S
C823 C822 1.366 . S
C823 C827 1.385 . S
C824 H805 0.951 . S
C824 C822 1.388 . S
C824 C825 1.366 . S
C825 C824 1.366 . S
C825 C826 1.414 . S
C825 C828 1.499 . S
C826 H806 0.950 1_554 S
C826 C825 1.414 . S
C826 C827 1.374 . S
C827 H807 0.950 1_554 S
C827 C823 1.385 . S
C827 C826 1.374 . S
C828 C825 1.499 . S
C828 C829 1.373 . S
C828 C830 1.389 1_554 S
C829 H808 0.950 . S
C829 C828 1.373 . S
C829 C845 1.377 . S
C830 C828 1.389 1_556 S
C830 C831 1.524 . S
C830 C844 1.377 . S
C831 C830 1.524 . S
C831 C832 1.397 . S
C831 C836 1.363 . S
C832 H809 0.950 . S
C832 C831 1.397 . S
C832 C833 1.334 . S
C833 H810 0.950 . S
C833 C832 1.334 . S
C833 C834 1.287 . S
C834 C833 1.287 . S
C834 C835 1.524 . S
C834 H853 0.913 . S
C835 H811 0.950 . S
C835 C834 1.524 . S
C835 C836 1.415 . S
C836 H812 0.950 . S
C836 C831 1.363 . S
C836 C835 1.415 . S
C837 H813 0.951 1_554 S
C837 C838 1.366 . S
C837 C839 1.388 . S
C838 C837 1.366 . S
C838 C842 1.385 . S
C839 H814 0.947 1_554 S
C839 C837 1.388 . S
C839 C840 1.366 . S
C840 C839 1.366 . S
C840 C841 1.414 . S
C840 C843 1.499 . S
C841 H815 0.950 . S
C841 C840 1.414 . S
C841 C842 1.374 . S
C842 H816 0.950 . S
C842 C838 1.385 . S
C842 C841 1.374 . S
C843 C840 1.499 . S
C843 C844 1.373 1_554 S
C843 C845 1.389 . S
C844 H817 0.950 . S
C844 C830 1.377 . S
C844 C843 1.373 1_556 S
C845 C829 1.377 . S
C845 C843 1.389 . S
C845 C846 1.524 . S
C846 C845 1.524 . S
C846 C847 1.397 . S
C846 C851 1.363 . S
C847 H818 0.950 . S
C847 C846 1.397 . S
C847 C848 1.334 . S
C848 H819 0.950 . S
C848 C847 1.334 . S
C848 C849 1.287 . S
C849 C848 1.287 . S
C849 C850 1.524 . S
C849 H852 0.999 . S
C850 H820 0.950 . S
C850 C849 1.524 . S
C850 C851 1.415 . S
C851 H821 0.950 . S
C851 C846 1.363 . S
C851 C850 1.415 . S
H852 C849 0.999 . S
H853 C834 0.913 . S
H854 C872 0.951 . S
H855 C874 0.951 . S
H856 C876 0.950 . S
H857 C877 0.950 . S
H858 C879 0.950 . S
H859 C882 0.950 . S
H860 C883 0.950 . S
H861 C885 0.950 . S
H862 C886 0.950 . S
H863 C887 0.951 . S
H864 C889 0.951 . S
H865 C891 0.950 . S
H866 C892 0.950 . S
H867 C894 0.950 . S
H868 C897 0.950 . S
H869 C898 0.950 . S
H870 C900 0.950 . S
H871 C901 0.950 . S
C872 H854 0.951 . S
C872 C873 1.366 . S
C872 C874 1.388 . S
C873 C872 1.366 . S
C873 C877 1.385 . S
C874 H855 0.951 . S
C874 C872 1.388 . S
C874 C875 1.366 . S
C875 C874 1.366 . S
C875 C876 1.414 . S
C875 C878 1.499 . S
C876 H856 0.950 . S
C876 C875 1.414 . S
C876 C877 1.374 . S
C877 H857 0.950 . S
C877 C873 1.385 . S
C877 C876 1.374 . S
C878 C875 1.499 . S
C878 C879 1.373 . S
C878 C880 1.389 . S
C879 H858 0.950 . S
C879 C878 1.373 . S
C879 C895 1.377 . S
C880 C878 1.389 . S
C880 C881 1.524 . S
C880 C894 1.377 . S
C881 C880 1.524 . S
C881 C882 1.397 . S
C881 C886 1.363 . S
C882 H859 0.950 . S
C882 C881 1.397 . S
C882 C883 1.334 . S
C883 H860 0.950 . S
C883 C882 1.334 . S
C883 C884 1.287 . S
C884 C883 1.287 . S
C884 C885 1.524 . S
C884 H903 0.913 . S
C885 H861 0.950 . S
C885 C884 1.524 . S
C885 C886 1.415 . S
C886 H862 0.950 . S
C886 C881 1.363 . S
C886 C885 1.415 . S
C887 H863 0.951 . S
C887 C888 1.366 . S
C887 C889 1.388 . S
C888 C887 1.366 . S
C888 C892 1.385 . S
C889 H864 0.951 . S
C889 C887 1.388 . S
C889 C890 1.366 . S
C890 C889 1.366 . S
C890 C891 1.414 . S
C890 C893 1.499 . S
C891 H865 0.950 . S
C891 C890 1.414 . S
C891 C892 1.374 . S
C892 H866 0.950 . S
C892 C888 1.385 . S
C892 C891 1.374 . S
C893 C890 1.499 . S
C893 C894 1.373 . S
C893 C895 1.389 . S
C894 H867 0.950 . S
C894 C880 1.377 . S
C894 C893 1.373 . S
C895 C879 1.377 . S
C895 C893 1.389 . S
C895 C896 1.524 . S
C896 C895 1.524 . S
C896 C897 1.397 . S
C896 C901 1.363 . S
C897 H868 0.950 . S
C897 C896 1.397 . S
C897 C898 1.334 . S
C898 H869 0.950 . S
C898 C897 1.334 . S
C898 C899 1.287 . S
C899 C898 1.287 . S
C899 C900 1.524 . S
C899 H902 0.999 . S
C900 H870 0.950 . S
C900 C899 1.524 . S
C900 C901 1.415 . S
C901 H871 0.950 . S
C901 C896 1.363 . S
C901 C900 1.415 . S
H902 C899 0.999 . S
H903 C884 0.913 . S
C123 C5 1.515 . S
C138 C53 1.513 . S
C173 C16 1.482 . S
C188 C68 1.481 . S
C223 C83 1.507 . S
C238 C31 1.507 . S
C273 C94 1.480 . S
C288 C42 1.480 . S
C323 C88 1.652 . S
C338 C36 1.651 . S
C373 C92 1.626 . S
C388 C40 1.626 . S
C423 C10 1.642 . S
C438 C55 1.645 . S
C473 C14 1.624 . S
C488 C66 1.624 . S
C523 C27 1.990 . S
C538 C1 1.990 . S
C573 C49 2.075 . S
C588 C23 2.074 . S
C623 C62 1.990 . S
C638 C79 1.990 . S
C673 C101 2.075 . S
C688 C75 2.075 . S
C723 C3 1.925 . S
C738 C70 2.000 . S
C773 C81 1.925 . S
C788 C18 2.000 . S
C823 C29 1.925 . S
C838 C96 2.000 . S
C873 C44 2.000 . S
C888 C57 1.928 . S
