# Generated by pormake.
# Topology irl, (4)-cn, num edge types: 1
# Building blocks:
#     Node 0, Type 0, BuildingBlock: TATPOV_clean_sbu_0, # of connection points: 4
#     Node 1, Type 0, BuildingBlock: TATPOV_clean_sbu_0, # of connection points: 4
#     Node 2, Type 0, BuildingBlock: TATPOV_clean_sbu_0, # of connection points: 4
#     Node 3, Type 0, BuildingBlock: TATPOV_clean_sbu_0, # of connection points: 4
#     Node 4, Type 0, BuildingBlock: TATPOV_clean_sbu_0, # of connection points: 4
#     Node 5, Type 0, BuildingBlock: TATPOV_clean_sbu_0, # of connection points: 4
#     Node 6, Type 0, BuildingBlock: TATPOV_clean_sbu_0, # of connection points: 4
#     Node 7, Type 0, BuildingBlock: TATPOV_clean_sbu_0, # of connection points: 4
#     Edge 8, Type (0, 0), BuildingBlock: ZUJKAS_clean_linker_0, # of connection points: 2
#     Edge 9, Type (0, 0), BuildingBlock: ZUJKAS_clean_linker_0, # of connection points: 2
#     Edge 10, Type (0, 0), BuildingBlock: ZUJKAS_clean_linker_0, # of connection points: 2
#     Edge 11, Type (0, 0), BuildingBlock: ZUJKAS_clean_linker_0, # of connection points: 2
#     Edge 12, Type (0, 0), BuildingBlock: ZUJKAS_clean_linker_0, # of connection points: 2
#     Edge 13, Type (0, 0), BuildingBlock: ZUJKAS_clean_linker_0, # of connection points: 2
#     Edge 14, Type (0, 0), BuildingBlock: ZUJKAS_clean_linker_0, # of connection points: 2
#     Edge 15, Type (0, 0), BuildingBlock: ZUJKAS_clean_linker_0, # of connection points: 2
#     Edge 16, Type (0, 0), BuildingBlock: ZUJKAS_clean_linker_0, # of connection points: 2
#     Edge 17, Type (0, 0), BuildingBlock: ZUJKAS_clean_linker_0, # of connection points: 2
#     Edge 18, Type (0, 0), BuildingBlock: ZUJKAS_clean_linker_0, # of connection points: 2
#     Edge 19, Type (0, 0), BuildingBlock: ZUJKAS_clean_linker_0, # of connection points: 2
#     Edge 20, Type (0, 0), BuildingBlock: ZUJKAS_clean_linker_0, # of connection points: 2
#     Edge 21, Type (0, 0), BuildingBlock: ZUJKAS_clean_linker_0, # of connection points: 2
#     Edge 22, Type (0, 0), BuildingBlock: ZUJKAS_clean_linker_0, # of connection points: 2
#     Edge 23, Type (0, 0), BuildingBlock: ZUJKAS_clean_linker_0, # of connection points: 2
# Relax obj value: 0.142
# Max RMSD: 0.156
# Mean RMSD: 0.156
data_MOF--net-irl--node1-TATPOV_clean_sbu_0--edge1-ZUJKAS_clean_linker_0
_symmetry_space_group_name_H-M    P1
_symmetry_Int_Tables_number       1
_symmetry_cell_setting            triclinic
loop_
_symmetry_equiv_pos_as_xyz
'x, y, z'
_cell_length_a     51.251814
_cell_length_b     39.916842
_cell_length_c     36.016835
_cell_angle_alpha  89.938721
_cell_angle_beta   90.246852
_cell_angle_gamma 90.150645
loop_
_atom_site_label
_atom_site_type_symbol
_atom_site_fract_x
_atom_site_fract_y
_atom_site_fract_z
_atom_type_partial_charge
Zn0 Zn 0.01818 0.24399 0.00319 0.0
Zn1 Zn 0.07029 0.23783 0.00146 0.0
O2 O 0.06051 0.26014 0.95119 0.0
O3 O 0.01773 0.26484 0.95309 0.0
O4 O 0.11006 0.23605 0.00043 0.0
O5 O 0.02022 0.27419 0.04702 0.0
O6 O 0.06273 0.26571 0.04879 0.0
C7 C 0.03905 0.26929 0.93626 0.0
C8 C 0.03557 0.17527 0.00806 0.0
O9 O 0.0582 0.18839 0.00491 0.0
O10 O 1.01553 0.19378 0.00887 0.0
C11 C 0.12283 0.26179 -0.01 0.0
O12 O 0.10989 0.28871 0.97994 0.0
C13 C 0.04219 0.27896 0.06219 0.0
Zn14 Zn 1.01063 0.75 -0.00967 0.0
Zn15 Zn 0.95901 0.75562 -0.00277 0.0
O16 O 0.96458 0.73236 0.9463 0.0
O17 O 1.00704 0.72394 0.94359 0.0
O18 O 0.91944 0.75595 0.00232 0.0
O19 O 1.01374 0.72493 0.03769 0.0
O20 O 0.9712 0.72952 0.04425 0.0
C21 C 0.9845 0.72058 0.92975 0.0
C22 C 0.99298 0.8188 -0.00583 0.0
O23 O 0.97047 0.8054 -0.00229 0.0
O24 O 1.01291 0.80049 -0.01004 0.0
C25 C 0.90466 0.76777 0.97704 0.0
O26 O 0.91532 0.78116 0.9474 0.0
C27 C 0.99329 0.71923 0.05615 0.0
Zn28 Zn 0.01735 0.7667 0.50031 0.0
Zn29 Zn 0.06901 0.76827 0.49753 0.0
O30 O 0.06049 0.74343 0.54675 0.0
O31 O 0.0178 0.73664 0.54441 0.0
O32 O 0.10873 0.76625 0.49522 0.0
O33 O 1.01466 0.74639 0.45024 0.0
O34 O 0.05756 0.74411 0.44894 0.0
C35 C 0.03944 0.73155 0.56032 0.0
C36 C 0.0378 0.83373 0.50254 0.0
O37 O 0.0596 0.81886 0.49817 0.0
O38 O 0.01701 0.81677 0.50576 0.0
C39 C 0.12366 0.78696 0.51183 0.0
O40 O 0.11322 0.81134 0.53116 0.0
C41 C 0.03543 0.73806 0.4339 0.0
Zn42 Zn 1.01427 0.25947 0.48641 0.0
Zn43 Zn 0.9623 0.25096 0.48981 0.0
O44 O 0.97246 0.27389 0.53959 0.0
O45 O 1.01503 0.28092 0.53612 0.0
O46 O 0.92251 0.2483 0.4908 0.0
O47 O 1.01136 0.28875 0.44188 0.0
O48 O 0.96917 0.2778 0.44141 0.0
C49 C 0.99392 0.28413 0.55375 0.0
C50 C 0.99792 0.18981 0.48366 0.0
O51 O 0.97507 0.20201 0.48726 0.0
O52 O 0.01754 0.20914 0.48172 0.0
C53 C 0.90921 0.24719 0.52057 0.0
O54 O 0.92149 0.24654 0.55265 0.0
C55 C 0.98913 0.29177 0.427 0.0
Zn56 Zn 0.51849 0.74818 0.00081 0.0
Zn57 Zn 0.57036 0.74232 0.00325 0.0
O58 O 0.56282 0.76819 0.95435 0.0
O59 O 0.52027 0.77626 0.95528 0.0
O60 O 0.61006 0.74181 0.00609 0.0
O61 O 0.5174 0.77123 0.04944 0.0
O62 O 0.56015 0.76631 0.05233 0.0
C63 C 0.54217 0.78056 0.94002 0.0
C64 C 0.53614 0.67936 -0.00119 0.0
O65 O 0.55882 0.69257 0.00107 0.0
O66 O 0.51608 0.69783 -0.00211 0.0
C67 C 0.62428 0.73198 0.97936 0.0
O68 O 0.61298 0.72064 0.94905 0.0
C69 C 0.53868 0.77617 0.06643 0.0
Zn70 Zn 0.50981 0.25341 -0.0133 0.0
Zn71 Zn 0.4583 0.26072 -0.00661 0.0
O72 O 0.46347 0.2367 0.94287 0.0
O73 O 0.50575 0.22687 0.94046 0.0
O74 O 0.41877 0.26151 -0.0013 0.0
O75 O 0.5127 0.22883 0.03431 0.0
O76 O 0.47034 0.23551 0.04104 0.0
C77 C 0.48318 0.22403 0.92662 0.0
C78 C 0.49316 0.32285 -0.01094 0.0
O79 O 0.4704 0.31019 -0.0074 0.0
O80 O 0.5128 0.3039 -0.01441 0.0
C81 C 0.40402 0.28072 0.9798 0.0
O82 O 0.41464 0.30196 0.95637 0.0
C83 C 0.49218 0.22451 0.05304 0.0
Zn84 Zn 0.5226 0.25994 0.49413 0.0
Zn85 Zn 0.57452 0.26696 0.49446 0.0
O86 O 0.56612 0.24139 0.54321 0.0
O87 O 0.52372 0.23219 0.53994 0.0
O88 O 0.61427 0.26872 0.49334 0.0
O89 O 0.5228 0.23652 0.44572 0.0
O90 O 0.56555 0.2423 0.44518 0.0
C91 C 0.54531 0.22862 0.5565 0.0
C92 C 0.53959 0.32915 0.49672 0.0
O93 O 0.5624 0.3164 0.49565 0.0
O94 O 0.51967 0.31028 0.49666 0.0
C95 C 0.62823 0.27216 0.52242 0.0
O96 O 0.61665 0.27588 0.55463 0.0
C97 C 0.54449 0.23183 0.43003 0.0
Zn98 Zn 0.50957 0.75459 0.50971 0.0
Zn99 Zn 0.45784 0.74578 0.50634 0.0
O100 O 0.46481 0.77056 0.55616 0.0
O101 O 0.50706 0.78116 0.55611 0.0
O102 O 0.41811 0.74267 0.5042 0.0
O103 O 0.50977 0.77913 0.46185 0.0
O104 O 0.46731 0.77109 0.45772 0.0
C105 C 0.48496 0.78369 0.57121 0.0
C106 C 0.49395 0.68475 0.50863 0.0
O107 O 0.47093 0.6968 0.50658 0.0
O108 O 0.51346 0.70423 0.51074 0.0
C109 C 0.40483 0.7689 0.5108 0.0
O110 O 0.41725 0.79689 0.51854 0.0
C111 C 0.48852 0.78275 0.44439 0.0
H112 H 0.0383 0.85399 -0.01367 0.0
H113 H 0.04483 0.91432 -0.00961 0.0
H114 H 0.96249 0.9281 0.00888 0.0
H115 H 0.95569 0.8673 0.00532 0.0
H116 H 0.02319 0.96473 0.94685 0.0
H117 H 0.99645 0.97967 0.09527 0.0
H118 H 1.00319 0.93934 0.07485 0.0
H119 H 0.97227 0.95926 0.06691 0.0
C120 C 0.02149 0.86972 -0.00867 0.0
C121 C 0.99644 0.8557 -0.00432 0.0
C122 C 0.0253 0.90427 -0.0064 0.0
C123 C 1.00424 0.92565 0.00044 0.0
C124 C 0.97911 0.91194 0.00428 0.0
H125 H 0.99026 0.14054 0.01844 0.0
H126 H 0.98365 0.08008 0.017 0.0
C127 C 0.97523 0.87723 0.002 0.0
C128 C 1.00879 0.9623 0.00285 0.0
H129 H 1.00513 0.02933 0.06144 0.0
C130 C 0.0193 0.97887 0.97192 0.0
C131 C 1.00378 0.98061 0.03565 0.0
C132 C 0.99351 0.96386 0.07022 0.0
C133 C 0.02456 0.0134 0.97266 0.0
C134 C 0.01959 0.03171 0.00546 0.0
C135 C 1.00903 0.01517 0.03639 0.0
C136 C 0.02425 0.06834 0.00773 0.0
C137 C 0.03482 0.03013 0.93806 0.0
C138 C 0.04944 0.08183 0.00373 0.0
C139 C 0.05335 0.11657 0.00451 0.0
C140 C 0.03213 0.13837 0.00941 0.0
C141 C 1.00706 0.12458 0.0144 0.0
C142 C 1.0032 0.08997 0.01366 0.0
H143 H 0.03189 0.01429 0.91303 0.0
H144 H 0.02511 0.05463 0.93339 0.0
H145 H 0.05605 0.03477 0.94136 0.0
H146 H 0.06603 0.06549 -0.0002 0.0
H147 H 0.07291 0.12633 0.00076 0.0
H148 H 0.07639 0.87993 0.48752 0.0
H149 H 0.07161 0.94102 0.48326 0.0
H150 H 0.99047 0.93213 0.51294 0.0
H151 H 0.99488 0.87155 0.51687 0.0
H152 H 0.99915 0.97129 0.44962 0.0
H153 H 0.06304 0.01019 0.56722 0.0
H154 H 0.07764 0.98267 0.53378 0.0
H155 H 0.05121 0.96779 0.56197 0.0
C156 C 0.05762 0.89105 0.49351 0.0
C157 C 0.03603 0.87081 0.50245 0.0
C158 C 0.05494 0.92594 0.49117 0.0
C159 C 0.03071 0.94108 0.49802 0.0
C160 C 1.00932 0.92096 0.50752 0.0
H161 H 0.96203 0.13968 0.49543 0.0
H162 H 0.97011 0.07923 0.49737 0.0
C163 C 1.01194 0.88627 0.50979 0.0
C164 C 0.02703 0.97773 0.49396 0.0
H165 H 0.04449 0.0533 0.53084 0.0
C166 C 1.00908 0.98927 0.46733 0.0
C167 C 0.04005 1.00104 0.51707 0.0
C168 C 0.05893 0.98994 0.54685 0.0
C169 C 1.00381 0.02355 0.46311 0.0
C170 C 0.01648 0.04686 0.48664 0.0
C171 C 0.03472 0.03535 0.51292 0.0
C172 C 1.01121 0.08333 0.48443 0.0
C173 C 0.98501 0.03451 0.43313 0.0
C174 C 0.03168 0.10569 0.47708 0.0
C175 C 0.02718 0.14016 0.47623 0.0
C176 C 1.00208 0.15307 0.48285 0.0
C177 C 0.98152 0.13058 0.48994 0.0
C178 C 0.98609 0.09602 0.4909 0.0
H179 H 0.98258 0.01501 0.4114 0.0
H180 H 0.96561 0.03914 0.44566 0.0
H181 H 0.9917 0.05807 0.41973 0.0
H182 H 0.05121 0.09645 0.47208 0.0
H183 H 0.04349 0.15669 0.47066 0.0
H184 H 0.57392 0.63043 -0.00357 0.0
H185 H 0.56716 0.56955 -0.00658 0.0
H186 H 0.48387 0.58427 -0.00413 0.0
H187 H 0.4903 0.64463 -0.0017 0.0
H188 H 0.5412 0.52748 0.04354 0.0
H189 H 0.49285 0.52414 0.90559 0.0
H190 H 0.51063 0.5603 0.92212 0.0
H191 H 0.47779 0.55263 0.93744 0.0
C192 C 0.55418 0.62068 -0.00384 0.0
C193 C 0.53268 0.64247 -0.00267 0.0
C194 C 0.55035 0.58592 -0.00555 0.0
C195 C 0.52499 0.57245 -0.00632 0.0
C196 C 0.50358 0.59413 -0.00453 0.0
H197 H 0.45629 0.37265 -0.00565 0.0
H198 H 0.464 0.43337 -0.00374 0.0
C199 C 0.50735 0.6287 -0.00291 0.0
C200 C 0.52068 0.53572 -0.00792 0.0
H201 H 0.49031 0.47427 0.94184 0.0
C202 C 0.53027 0.51578 0.02117 0.0
C203 C 0.50628 0.52057 0.96293 0.0
C204 C 0.4965 0.54045 0.93006 0.0
C205 C 0.52537 0.48116 0.0223 0.0
C206 C 0.5108 0.46609 -0.00668 0.0
C207 C 0.5013 0.48598 0.96415 0.0
C208 C 0.50599 0.42949 -0.00786 0.0
C209 C 0.53538 0.46109 0.05488 0.0
C210 C 0.52699 0.40736 -0.01144 0.0
C211 C 0.52268 0.37286 -0.01262 0.0
C212 C 0.49722 0.35966 -0.01039 0.0
C213 C 0.47612 0.38195 -0.00731 0.0
C214 C 0.48049 0.41661 -0.00622 0.0
H215 H 0.54031 0.47735 0.07894 0.0
H216 H 0.52076 0.44218 0.06381 0.0
H217 H 0.55334 0.44762 0.04657 0.0
H218 H 0.54677 0.41681 -0.01348 0.0
H219 H 0.53942 0.35653 -0.0152 0.0
H220 H 0.57701 0.37876 0.49934 0.0
H221 H 0.56984 0.43949 0.50259 0.0
H222 H 0.48666 0.42329 0.49989 0.0
H223 H 0.49348 0.36304 0.49711 0.0
H224 H 0.54282 0.48127 0.45224 0.0
H225 H 0.49634 0.48307 0.59101 0.0
H226 H 0.51444 0.44749 0.57416 0.0
H227 H 0.48135 0.45425 0.55915 0.0
C228 C 0.55721 0.38815 0.49957 0.0
C229 C 0.53585 0.36597 0.49822 0.0
C230 C 0.55315 0.42282 0.50142 0.0
C231 C 0.52771 0.43582 0.50218 0.0
C232 C 0.50643 0.41378 0.50023 0.0
H233 H 0.4575 0.6341 0.50473 0.0
H234 H 0.46574 0.57359 0.50239 0.0
C235 C 0.51043 0.37927 0.49842 0.0
C236 C 0.52317 0.47245 0.50405 0.0
H237 H 0.49327 0.53313 0.55528 0.0
C238 C 0.53218 0.49268 0.4749 0.0
C239 C 0.50915 0.48721 0.53357 0.0
C240 C 0.49995 0.46696 0.56643 0.0
C241 C 0.52704 0.52722 0.47406 0.0
C242 C 0.51287 0.54192 0.50345 0.0
C243 C 0.50397 0.52173 0.53268 0.0
C244 C 0.50778 0.57842 0.5049 0.0
C245 C 0.53634 0.54757 0.44133 0.0
C246 C 0.52864 0.60103 0.50771 0.0
C247 C 0.52403 0.63544 0.50912 0.0
C248 C 0.49839 0.64804 0.50791 0.0
C249 C 0.47745 0.62527 0.50561 0.0
C250 C 0.48213 0.59072 0.50428 0.0
H251 H 0.54083 0.53148 0.41704 0.0
H252 H 0.52149 0.56636 0.43293 0.0
H253 H 0.55443 0.56119 0.4492 0.0
H254 H 0.54855 0.59204 0.509 0.0
H255 H 0.54065 0.65216 0.51108 0.0
H256 H 0.01733 0.33694 0.07792 0.0
H257 H 1.01023 0.36088 0.13952 0.0
H258 H 0.05881 0.28371 0.18747 0.0
H259 H 0.06735 0.26145 0.12566 0.0
H260 H 0.98434 0.33303 0.1889 0.0
H261 H 0.07974 0.35709 0.25305 0.0
H262 H 0.0765 0.34984 0.20381 0.0
H263 H 0.08018 0.31515 0.23569 0.0
C264 C 0.02731 0.32606 0.1016 0.0
C265 C 0.04296 0.29754 0.09731 0.0
C266 C 0.02316 0.33961 0.13676 0.0
C267 C 0.03407 0.32433 0.16833 0.0
C268 C 0.05081 0.29676 0.16367 0.0
H269 H 0.96329 0.26977 0.36591 0.0
H270 H 0.97114 0.28778 0.30225 0.0
C271 C 0.05559 0.28383 0.12833 0.0
C272 C 0.02482 0.33355 0.206 0.0
H273 H 0.04528 0.33809 0.29585 0.0
C274 C 0.99776 0.3351 0.21215 0.0
C275 C 0.04205 0.33735 0.23646 0.0
C276 C 0.07121 0.34017 0.23171 0.0
C277 C 0.98755 0.33738 0.2481 0.0
C278 C 1.0048 0.33649 0.27883 0.0
C279 C 0.03185 0.33797 0.2725 0.0
C280 C 0.99564 0.33013 0.31728 0.0
C281 C 0.95838 0.3401 0.25256 0.0
C282 C 1.00656 0.3479 0.34722 0.0
C283 C 1.00282 0.33677 0.38356 0.0
C284 C 0.98754 0.30824 0.39061 0.0
C285 C 0.97476 0.2922 0.36111 0.0
C286 C 0.97915 0.30269 0.32466 0.0
H287 H 0.94977 0.35515 0.22962 0.0
H288 H 0.94956 0.31472 0.25103 0.0
H289 H 0.95301 0.35182 0.27939 0.0
H290 H 0.01929 0.36915 0.34237 0.0
H291 H 1.01292 0.34944 0.40603 0.0
H292 H 0.07456 0.71109 0.3912 0.0
H293 H 0.07069 0.69045 0.32722 0.0
H294 H 0.98817 0.7115 0.32832 0.0
H295 H 0.99159 0.73076 0.392 0.0
H296 H 0.99799 0.65411 0.29164 0.0
H297 H 0.06383 0.75624 0.24293 0.0
H298 H 0.07797 0.72743 0.27553 0.0
H299 H 0.05187 0.75446 0.28985 0.0
C300 C 0.05558 0.71095 0.37786 0.0
C301 C 0.03347 0.723 0.39651 0.0
C302 C 0.05341 0.69926 0.34132 0.0
C303 C 0.02922 0.70007 0.32281 0.0
C304 C 1.00702 0.71065 0.34202 0.0
H305 H 0.95831 0.71951 0.1136 0.0
H306 H 0.96764 0.70487 0.17836 0.0
C307 C 1.00909 0.72187 0.37847 0.0
C308 C 0.02683 0.69268 0.28267 0.0
H309 H 0.04356 0.7234 0.19764 0.0
C310 C 1.00823 0.66889 0.27102 0.0
C311 C 0.04012 0.71215 0.25583 0.0
C312 C 0.05941 0.73919 0.2665 0.0
C313 C 1.00188 0.66498 0.23332 0.0
C314 C 1.01448 0.68532 0.20681 0.0
C315 C 0.034 0.7078 0.21822 0.0
C316 C 1.00647 0.68619 0.16739 0.0
C317 C 0.98137 0.63974 0.22217 0.0
C318 C 0.02493 0.67967 0.1398 0.0
C319 C 0.01973 0.68818 0.10299 0.0
C320 C 0.99603 0.70361 0.09315 0.0
C321 C 0.97672 0.70766 0.12034 0.0
C322 C 0.98198 0.69915 0.15731 0.0
H323 H 0.97867 0.62024 0.24387 0.0
H324 H 0.96248 0.65278 0.21813 0.0
H325 H 0.98658 0.62738 0.19561 0.0
H326 H 0.04395 0.66979 0.1471 0.0
H327 H 0.03491 0.68436 0.08259 0.0
H328 H 0.0649 0.75023 0.62323 0.0
H329 H 0.05517 0.731 0.68605 0.0
H330 H 1.00375 0.655 0.64147 0.0
H331 H 1.01215 0.67589 0.57879 0.0
H332 H 0.97893 0.68672 0.68957 0.0
H333 H 0.07352 0.65815 0.7543 0.0
H334 H 0.07522 0.69956 0.7354 0.0
H335 H 0.07033 0.66421 0.70485 0.0
C336 C 0.05223 0.72871 0.6269 0.0
C337 C 0.03926 0.71446 0.59643 0.0
C338 C 0.04674 0.71756 0.66282 0.0
C339 C 0.02889 0.69122 0.66867 0.0
C340 C 0.01752 0.67536 0.63779 0.0
H341 H 1.00629 0.66286 0.90597 0.0
H342 H 1.01234 0.64576 0.84139 0.0
C343 C 0.02242 0.68715 0.60201 0.0
C344 C 0.01932 0.68371 0.70666 0.0
H345 H 0.03958 0.67797 0.79656 0.0
C346 C 0.99224 0.68393 0.71286 0.0
C347 C 0.03641 0.67918 0.73716 0.0
C348 C 0.06545 0.67486 0.73241 0.0
C349 C 0.98195 0.68215 0.74881 0.0
C350 C 0.9992 0.68167 0.77954 0.0
C351 C 0.02619 0.67899 0.77319 0.0
C352 C 0.99021 0.68704 0.81824 0.0
C353 C 0.95269 0.68116 0.75326 0.0
C354 C 0.97464 0.71493 0.82693 0.0
C355 C 0.97038 0.72394 0.86389 0.0
C356 C 0.98238 0.70586 0.89258 0.0
C357 C 0.99674 0.677 0.88413 0.0
C358 C 1.00033 0.6674 0.84727 0.0
H359 H 0.94339 0.66749 0.72981 0.0
H360 H 0.94686 0.66891 0.77965 0.0
H361 H 0.945 0.70712 0.75284 0.0
H362 H 0.96727 0.7312 0.80526 0.0
H363 H 0.95969 0.74668 0.86985 0.0
H364 H 0.07664 0.26562 0.88245 0.0
H365 H 0.07151 0.28055 0.81671 0.0
H366 H 0.99437 0.31834 0.83884 0.0
H367 H 0.99932 0.30381 0.90414 0.0
H368 H 0.03156 0.25059 0.77514 0.0
H369 H 0.02432 0.38899 0.76787 0.0
H370 H 0.03881 0.36735 0.80692 0.0
H371 H 1.00393 0.37054 0.80282 0.0
C372 C 0.0589 0.27793 0.87343 0.0
C373 C 0.03828 0.2832 0.8983 0.0
C374 C 0.05599 0.28643 0.83595 0.0
C375 C 0.03264 0.30079 0.82308 0.0
C376 C 1.01271 0.30786 0.84832 0.0
H377 H 0.95897 0.27303 0.60976 0.0
H378 H 0.96691 0.28193 0.67623 0.0
C379 C 1.0155 0.2992 0.88558 0.0
C380 C 0.02738 0.30379 0.78288 0.0
H381 H 1.00803 0.35846 0.7152 0.0
C382 C 0.02671 0.27422 0.76193 0.0
C383 C 0.02095 0.33465 0.76589 0.0
C384 C 0.02225 0.36725 0.78693 0.0
C385 C 0.01915 0.27453 0.72456 0.0
C386 C 1.01181 0.30518 0.70791 0.0
C387 C 1.01318 0.33496 0.72845 0.0
C388 C 1.00417 0.30649 0.66845 0.0
C389 C 0.01911 0.24207 0.70307 0.0
C390 C 0.02192 0.31888 0.6424 0.0
C391 C 0.01752 0.31374 0.60462 0.0
C392 C 0.99522 0.29627 0.59237 0.0
C393 C 0.97632 0.28653 0.6184 0.0
C394 C 0.98085 0.29149 0.65631 0.0
H395 H 0.02945 0.22176 0.7182 0.0
H396 H 0.99866 0.23392 0.69819 0.0
H397 H 0.02848 0.24557 0.67558 0.0
H398 H 0.03998 0.33057 0.65137 0.0
H399 H 0.0323 0.32184 0.58514 0.0
H400 H 0.49893 0.81179 0.09639 0.0
H401 H 0.49319 0.82665 0.16131 0.0
H402 H 0.5701 0.78914 0.18659 0.0
H403 H 0.57595 0.7737 0.12125 0.0
H404 H 0.53082 0.7584 0.22584 0.0
H405 H 0.52001 0.89613 0.23509 0.0
H406 H 0.50007 0.87789 0.19932 0.0
H407 H 0.53503 0.87573 0.19586 0.0
C408 C 0.51492 0.80739 0.11555 0.0
C409 C 0.53777 0.79112 0.10386 0.0
C410 C 0.51169 0.81628 0.15261 0.0
C411 C 0.53128 0.80925 0.17868 0.0
C412 C 0.55483 0.79498 0.16673 0.0
H413 H 0.52544 0.82472 0.41677 0.0
H414 H 0.53375 0.83657 0.35137 0.0
C415 C 0.55815 0.78618 0.12947 0.0
C416 C 0.52524 0.81148 0.21867 0.0
H417 H 0.50263 0.864 0.28604 0.0
C418 C 0.52499 0.78157 0.23911 0.0
C419 C 0.51751 0.84173 0.2358 0.0
C420 C 0.51839 0.87475 0.21547 0.0
C421 C 0.51656 0.78088 0.27597 0.0
C422 C 0.50781 0.81082 0.29264 0.0
C423 C 0.5088 0.841 0.27273 0.0
C424 C 0.49918 0.81098 0.33162 0.0
C425 C 0.51708 0.74808 0.29691 0.0
C426 C 0.47623 0.79421 0.34203 0.0
C427 C 0.47135 0.78743 0.37947 0.0
C428 C 0.48954 0.79713 0.4067 0.0
C429 C 0.51124 0.81659 0.39628 0.0
C430 C 0.51599 0.82353 0.35899 0.0
H431 H 0.52857 0.72866 0.28218 0.0
H432 H 0.52554 0.75162 0.32508 0.0
H433 H 0.49684 0.73865 0.30019 0.0
H434 H 0.46302 0.78449 0.32107 0.0
H435 H 0.45447 0.77243 0.38672 0.0
H436 H 0.50616 0.19392 0.39904 0.0
H437 H 0.50156 0.17852 0.33404 0.0
H438 H 0.57776 0.21962 0.31129 0.0
H439 H 0.58245 0.2356 0.37673 0.0
H440 H 0.53831 0.24874 0.27107 0.0
H441 H 0.53031 0.11078 0.26054 0.0
H442 H 0.50969 0.12775 0.29595 0.0
H443 H 0.54456 0.1315 0.30039 0.0
C444 C 0.52227 0.19896 0.38044 0.0
C445 C 0.54452 0.21643 0.39282 0.0
C446 C 0.5197 0.18976 0.34333 0.0
C447 C 0.53938 0.19768 0.31792 0.0
C448 C 0.56244 0.21307 0.33063 0.0
H449 H 0.53127 0.18487 0.0789 0.0
H450 H 0.54145 0.1728 0.14383 0.0
C451 C 0.56509 0.22219 0.36796 0.0
C452 C 0.5337 0.19542 0.27776 0.0
H453 H 0.51168 0.1426 0.20988 0.0
C454 C 0.53288 0.22545 0.25757 0.0
C455 C 0.52649 0.16501 0.26031 0.0
C456 C 0.52804 0.13189 0.28034 0.0
C457 C 0.52422 0.22611 0.22071 0.0
C458 C 0.51586 0.196 0.20381 0.0
C459 C 0.51757 0.1657 0.22338 0.0
C460 C 0.5065 0.19594 0.16508 0.0
C461 C 0.52391 0.25908 0.20011 0.0
C462 C 0.48282 0.21145 0.1557 0.0
C463 C 0.47687 0.21836 0.11856 0.0
C464 C 0.49472 0.21008 0.09058 0.0
C465 C 0.5173 0.19191 0.09998 0.0
C466 C 0.52312 0.18483 0.13699 0.0
H467 H 0.53515 0.27881 0.21496 0.0
H468 H 0.53214 0.25609 0.17184 0.0
H469 H 0.50345 0.26774 0.19707 0.0
H470 H 0.46977 0.22007 0.17724 0.0
H471 H 0.45934 0.23234 0.11212 0.0
H472 H 0.50186 0.1643 0.90328 0.0
H473 H 0.50974 0.14827 0.83866 0.0
H474 H 0.47062 0.23805 0.80168 0.0
H475 H 0.46112 0.2527 0.86613 0.0
H476 H 0.46402 0.19083 0.75277 0.0
H477 H 0.56913 0.19526 0.79096 0.0
H478 H 0.55122 0.16289 0.81421 0.0
H479 H 0.54382 0.20622 0.82318 0.0
C480 C 0.49408 0.17979 0.88115 0.0
C481 C 0.481 0.20971 0.88932 0.0
C482 C 0.49892 0.17093 0.84435 0.0
C483 C 0.49177 0.19268 0.81543 0.0
C484 C 0.47658 0.22103 0.82355 0.0
H485 H 0.56818 0.2521 0.61932 0.0
H486 H 0.55653 0.23607 0.6827 0.0
C487 C 0.47103 0.22934 0.86032 0.0
C488 C 0.50224 0.18822 0.77744 0.0
H489 H 0.55911 0.1857 0.72839 0.0
C490 C 0.4848 0.18941 0.74738 0.0
C491 C 0.52945 0.18687 0.77052 0.0
C492 C 0.54952 0.18806 0.80136 0.0
C493 C 0.49373 0.19083 0.71067 0.0
C494 C 0.52093 0.18928 0.70375 0.0
C495 C 0.53831 0.18654 0.73375 0.0
C496 C 0.53182 0.19446 0.6661 0.0
C497 C 0.47394 0.19624 0.68004 0.0
C498 C 0.52319 0.17515 0.6359 0.0
C499 C 0.52931 0.18486 0.59974 0.0
C500 C 0.54504 0.21312 0.59341 0.0
C501 C 0.55615 0.23008 0.62364 0.0
C502 C 0.54939 0.22099 0.65981 0.0
H503 H 0.45499 0.20531 0.69097 0.0
H504 H 0.48114 0.21473 0.65941 0.0
H505 H 0.47024 0.17215 0.66559 0.0
H506 H 0.51048 0.1538 0.64016 0.0
H507 H 0.52068 0.17133 0.57667 0.0
H508 H 0.56729 0.76 0.87799 0.0
H509 H 0.55787 0.77829 0.81465 0.0
H510 H 0.50857 0.85699 0.85697 0.0
H511 H 0.51664 0.83709 0.92021 0.0
H512 H 0.48261 0.82441 0.81019 0.0
H513 H 0.5771 0.84884 0.7439 0.0
H514 H 0.57817 0.80795 0.76422 0.0
H515 H 0.57426 0.84425 0.79356 0.0
C516 C 0.55522 0.78192 0.8737 0.0
C517 C 0.54267 0.7972 0.9037 0.0
C518 C 0.5499 0.79253 0.83748 0.0
C519 C 0.53266 0.81931 0.83087 0.0
C520 C 0.52187 0.83627 0.86126 0.0
H521 H 0.50787 0.8416 0.59295 0.0
H522 H 0.51497 0.86028 0.65685 0.0
C523 C 0.52659 0.82505 0.89735 0.0
C524 C 0.52288 0.82603 0.79273 0.0
H525 H 0.54236 0.82863 0.70255 0.0
C526 C 0.49574 0.82623 0.78673 0.0
C527 C 0.53976 0.82925 0.76199 0.0
C528 C 0.56891 0.83297 0.7664 0.0
C529 C 0.48513 0.82712 0.75081 0.0
C530 C 0.5021 0.8263 0.71999 0.0
C531 C 0.52919 0.8286 0.72604 0.0
C532 C 0.49264 0.81994 0.68161 0.0
C533 C 0.45586 0.82851 0.74649 0.0
C534 C 0.47666 0.792 0.67405 0.0
C535 C 0.47186 0.78205 0.63747 0.0
C536 C 0.4837 0.7992 0.60805 0.0
C537 C 0.49848 0.82811 0.61537 0.0
C538 C 0.50265 0.83864 0.65183 0.0
H539 H 0.44697 0.84299 0.76951 0.0
H540 H 0.44997 0.84012 0.71973 0.0
H541 H 0.44778 0.80271 0.74783 0.0
H542 H 0.46935 0.77646 0.69636 0.0
H543 H 0.46081 0.75931 0.63241 0.0
H544 H 0.36721 0.32084 0.9472 0.0
H545 H 0.31973 0.31599 0.95111 0.0
H546 H 0.32784 0.22968 0.0223 0.0
H547 H 0.37536 0.23483 0.01925 0.0
H548 H 0.2883 0.26515 0.92908 0.0
H549 H 0.27648 0.28501 0.08049 0.0
H550 H 0.30667 0.29375 0.05674 0.0
H551 H 0.29828 0.25144 0.06927 0.0
C552 C 0.35893 0.30098 0.96397 0.0
C553 C 0.37516 0.27833 0.98306 0.0
C554 C 0.33174 0.29821 0.96613 0.0
C555 C 0.32012 0.27277 -0.01256 0.0
C556 C 0.33627 0.25002 0.00642 0.0
H557 H 0.15648 0.21393 0.01701 0.0
H558 H 0.20438 0.21511 0.01614 0.0
C559 C 0.36348 0.25289 0.00445 0.0
C560 C 0.29116 0.26945 -0.01143 0.0
H561 H 0.23871 0.26786 0.04703 0.0
C562 C 0.27749 0.26585 0.9549 0.0
C563 C 0.27697 0.27024 0.02225 0.0
C564 C 0.29029 0.27563 0.05922 0.0
C565 C 0.25016 0.2629 0.95398 0.0
C566 C 0.23602 0.26384 -0.01241 0.0
C567 C 0.24962 0.267 0.02131 0.0
C568 C 0.20704 0.26292 -0.01192 0.0
C569 C 0.23658 0.25855 0.91704 0.0
C570 C 0.19268 0.28954 0.97294 0.0
C571 C 0.1654 0.28904 0.97356 0.0
C572 C 0.15183 0.26184 -0.01071 0.0
C573 C 0.16628 0.23518 0.00454 0.0
C574 C 0.19365 0.23584 0.00414 0.0
H575 H 0.25031 0.2506 0.89498 0.0
H576 H 0.22063 0.23975 0.91912 0.0
H577 H 0.2278 0.28277 0.90852 0.0
H578 H 0.20261 0.31089 0.96086 0.0
H579 H 0.15495 0.31004 0.96164 0.0
H580 H 0.65405 0.75813 0.03595 0.0
H581 H 0.7016 0.76419 0.03833 0.0
H582 H 0.70758 0.71832 0.93042 0.0
H583 H 0.66013 0.71192 0.92786 0.0
H584 H 0.7439 0.69355 0.98268 0.0
H585 H 0.74436 0.83267 0.97801 0.0
H586 H 0.72476 0.81458 0.01413 0.0
H587 H 0.71586 0.80809 0.96638 0.0
C588 C 0.66546 0.74926 0.01273 0.0
C589 C 0.6532 0.73467 0.98162 0.0
C590 C 0.69265 0.75293 0.01406 0.0
C591 C 0.70814 0.74216 -0.01569 0.0
C592 C 0.69602 0.72696 0.95361 0.0
H593 H 0.86784 0.79146 0.92848 0.0
H594 H 0.82045 0.78499 0.93183 0.0
C595 C 0.66885 0.72336 0.9522 0.0
C596 C 0.73698 0.74665 -0.01493 0.0
H597 H 0.78514 0.80608 -0.01329 0.0
C598 C 0.75294 0.71814 0.98366 0.0
C599 C 0.74874 0.77877 -0.01408 0.0
C600 C 0.73262 0.81035 -0.01413 0.0
C601 C 0.7803 0.72086 0.98326 0.0
C602 C 0.79207 0.75296 -0.01527 0.0
C603 C 0.77611 0.78148 -0.01407 0.0
C604 C 0.82089 0.75751 0.98362 0.0
C605 C 0.79639 0.68938 0.98034 0.0
C606 C 0.83694 0.74472 0.01196 0.0
C607 C 0.86411 0.74841 0.01017 0.0
C608 C 0.87579 0.76506 0.98 0.0
C609 C 0.85958 0.77841 0.95205 0.0
C610 C 0.83244 0.77477 0.95393 0.0
H611 H 0.78451 0.66763 0.97098 0.0
H612 H 0.81282 0.69294 0.96071 0.0
H613 H 0.80473 0.68328 0.00801 0.0
H614 H 0.82844 0.73184 0.03548 0.0
H615 H 0.87595 0.73795 0.03226 0.0
H616 H 0.16084 0.82951 0.53962 0.0
H617 H 0.20824 0.82337 0.53748 0.0
H618 H 0.19941 0.72972 0.47913 0.0
H619 H 0.15193 0.73604 0.4804 0.0
H620 H 0.23888 0.77486 0.56705 0.0
H621 H 0.25176 0.77752 0.41414 0.0
H622 H 0.22156 0.7893 0.43609 0.0
H623 H 0.22954 0.74581 0.42999 0.0
C624 C 0.16893 0.80769 0.52609 0.0
C625 C 0.15251 0.78335 0.51002 0.0
C626 C 0.19609 0.8042 0.52493 0.0
C627 C 0.2075 0.77634 0.50766 0.0
C628 C 0.19116 0.75185 0.49183 0.0
H629 H 0.37219 0.71761 0.48898 0.0
H630 H 0.32425 0.71742 0.48845 0.0
C631 C 0.16397 0.7554 0.49279 0.0
C632 C 0.23643 0.77262 0.5074 0.0
H633 H 0.28931 0.76524 0.4503 0.0
C634 C 0.24986 0.77279 0.54149 0.0
C635 C 0.25085 0.76977 0.47405 0.0
C636 C 0.23776 0.77088 0.43646 0.0
C637 C 0.27719 0.77028 0.54317 0.0
C638 C 0.29158 0.76783 0.50987 0.0
C639 C 0.27821 0.76702 0.47579 0.0
C640 C 0.32058 0.76777 0.50991 0.0
C641 C 0.2905 0.77015 0.58061 0.0
C642 C 0.33438 0.79625 0.52169 0.0
C643 C 0.36167 0.79652 0.52184 0.0
C644 C 0.37581 0.76824 0.51026 0.0
C645 C 0.36193 0.73975 0.49822 0.0
C646 C 0.33455 0.73961 0.49784 0.0
H647 H 0.27668 0.76409 0.60334 0.0
H648 H 0.30673 0.75176 0.58122 0.0
H649 H 0.29885 0.79535 0.58611 0.0
H650 H 0.32401 0.81842 0.53063 0.0
H651 H 0.37165 0.81893 0.5312 0.0
H652 H 0.66335 0.27557 0.57976 0.0
H653 H 0.71086 0.27107 0.57677 0.0
H654 H 0.70636 0.25985 0.45789 0.0
H655 H 0.65877 0.26457 0.46053 0.0
H656 H 0.74021 0.21689 0.54884 0.0
H657 H 0.76116 0.33446 0.47165 0.0
H658 H 0.73025 0.3267 0.49398 0.0
H659 H 0.73752 0.3072 0.45032 0.0
C660 C 0.67242 0.27239 0.5529 0.0
C661 C 0.65717 0.27055 0.52036 0.0
C662 C 0.69961 0.26976 0.55127 0.0
C663 C 0.71222 0.2655 0.51709 0.0
C664 C 0.69711 0.26372 0.48451 0.0
H665 H 0.87719 0.24665 0.45919 0.0
H666 H 0.82944 0.24933 0.45761 0.0
C667 C 0.66987 0.26627 0.48611 0.0
C668 C 0.74109 0.26185 0.51583 0.0
H669 H 0.79684 0.29841 0.48312 0.0
C670 C 0.75261 0.23473 0.53451 0.0
C671 C 0.75723 0.28502 0.49692 0.0
C672 C 0.74603 0.31517 0.4773 0.0
C673 C 0.77978 0.23002 0.53464 0.0
C674 C 0.796 0.2535 0.51628 0.0
C675 C 0.78444 0.28041 0.49721 0.0
C676 C 0.825 0.25107 0.51729 0.0
C677 C 0.7908 0.19956 0.55391 0.0
C678 C 0.83847 0.25145 0.55133 0.0
C679 C 0.86573 0.24974 0.55234 0.0
C680 C 0.88021 0.24799 0.51929 0.0
C681 C 0.86669 0.24786 0.48518 0.0
C682 C 0.83937 0.24945 0.48422 0.0
H683 H 0.77596 0.17936 0.55651 0.0
H684 H 0.8079 0.1895 0.53879 0.0
H685 H 0.79718 0.20659 0.58234 0.0
H686 H 0.82791 0.25354 0.57719 0.0
H687 H 0.87545 0.25021 0.57909 0.0
loop_
_geom_bond_atom_site_label_1
_geom_bond_atom_site_label_2
_geom_bond_distance
_geom_bond_site_symmetry_2
_ccdc_geom_bond_type
Zn0 O3 2.031 1_554 S
Zn0 O5 2.049 . S
Zn0 O10 2.067 . S
Zn1 O2 1.962 1_554 S
Zn1 O4 1.986 . S
Zn1 O6 1.996 . S
Zn1 O9 1.943 . S
O2 Zn1 1.962 1_556 S
O2 C7 1.254 . S
O3 Zn0 2.031 1_556 S
O3 C7 1.269 . S
O4 Zn1 1.986 . S
O4 C11 1.262 . S
O5 Zn0 2.049 . S
O5 C13 1.260 . S
O6 Zn1 1.996 . S
O6 C13 1.257 . S
C7 O2 1.254 . S
C7 O3 1.269 . S
C8 O9 1.249 . S
C8 O10 1.270 . S
O9 Zn1 1.943 . S
O9 C8 1.249 . S
O10 Zn0 2.067 . S
O10 C8 1.270 . S
C11 O4 1.262 . S
C11 O12 1.232 1_554 S
O12 C11 1.232 1_556 S
C13 O5 1.260 . S
C13 O6 1.257 . S
Zn14 O17 2.031 1_554 S
Zn14 O19 2.049 . S
Zn14 O24 2.067 . S
Zn15 O16 1.962 1_554 S
Zn15 O18 1.986 . S
Zn15 O20 1.996 . S
Zn15 O23 1.943 . S
O16 Zn15 1.962 1_556 S
O16 C21 1.254 . S
O17 Zn14 2.031 1_556 S
O17 C21 1.269 . S
O18 Zn15 1.986 . S
O18 C25 1.262 . S
O19 Zn14 2.049 . S
O19 C27 1.260 . S
O20 Zn15 1.996 . S
O20 C27 1.257 . S
C21 O16 1.254 . S
C21 O17 1.269 . S
C22 O23 1.249 . S
C22 O24 1.270 . S
O23 Zn15 1.943 . S
O23 C22 1.249 . S
O24 Zn14 2.067 . S
O24 C22 1.270 . S
C25 O18 1.262 . S
C25 O26 1.232 1_554 S
O26 C25 1.232 1_556 S
C27 O19 1.260 . S
C27 O20 1.257 . S
Zn28 O31 2.031 . S
Zn28 O33 2.049 . S
Zn28 O38 2.067 . S
Zn29 O30 1.962 . S
Zn29 O32 1.986 . S
Zn29 O34 1.996 . S
Zn29 O37 1.943 . S
O30 Zn29 1.962 . S
O30 C35 1.254 . S
O31 Zn28 2.031 . S
O31 C35 1.269 . S
O32 Zn29 1.986 . S
O32 C39 1.262 . S
O33 Zn28 2.049 . S
O33 C41 1.260 . S
O34 Zn29 1.996 . S
O34 C41 1.257 . S
C35 O30 1.254 . S
C35 O31 1.269 . S
C36 O37 1.249 . S
C36 O38 1.270 . S
O37 Zn29 1.943 . S
O37 C36 1.249 . S
O38 Zn28 2.067 . S
O38 C36 1.270 . S
C39 O32 1.262 . S
C39 O40 1.232 . S
O40 C39 1.232 . S
C41 O33 1.260 . S
C41 O34 1.257 . S
Zn42 O45 2.031 . S
Zn42 O47 2.049 . S
Zn42 O52 2.067 . S
Zn43 O44 1.962 . S
Zn43 O46 1.986 . S
Zn43 O48 1.996 . S
Zn43 O51 1.943 . S
O44 Zn43 1.962 . S
O44 C49 1.254 . S
O45 Zn42 2.031 . S
O45 C49 1.269 . S
O46 Zn43 1.986 . S
O46 C53 1.262 . S
O47 Zn42 2.049 . S
O47 C55 1.260 . S
O48 Zn43 1.996 . S
O48 C55 1.257 . S
C49 O44 1.254 . S
C49 O45 1.269 . S
C50 O51 1.249 . S
C50 O52 1.270 . S
O51 Zn43 1.943 . S
O51 C50 1.249 . S
O52 Zn42 2.067 . S
O52 C50 1.270 . S
C53 O46 1.262 . S
C53 O54 1.232 . S
O54 C53 1.232 . S
C55 O47 1.260 . S
C55 O48 1.257 . S
Zn56 O59 2.031 1_554 S
Zn56 O61 2.049 . S
Zn56 O66 2.067 . S
Zn57 O58 1.962 1_554 S
Zn57 O60 1.986 . S
Zn57 O62 1.996 . S
Zn57 O65 1.943 . S
O58 Zn57 1.962 1_556 S
O58 C63 1.254 . S
O59 Zn56 2.031 1_556 S
O59 C63 1.269 . S
O60 Zn57 1.986 . S
O60 C67 1.262 . S
O61 Zn56 2.049 . S
O61 C69 1.260 . S
O62 Zn57 1.996 . S
O62 C69 1.257 . S
C63 O58 1.254 . S
C63 O59 1.269 . S
C64 O65 1.249 . S
C64 O66 1.270 . S
O65 Zn57 1.943 . S
O65 C64 1.249 . S
O66 Zn56 2.067 . S
O66 C64 1.270 . S
C67 O60 1.262 . S
C67 O68 1.232 1_554 S
O68 C67 1.232 1_556 S
C69 O61 1.260 . S
C69 O62 1.257 . S
Zn70 O73 2.031 1_554 S
Zn70 O75 2.049 . S
Zn70 O80 2.067 . S
Zn71 O72 1.962 1_554 S
Zn71 O74 1.986 . S
Zn71 O76 1.996 . S
Zn71 O79 1.943 . S
O72 Zn71 1.962 1_556 S
O72 C77 1.254 . S
O73 Zn70 2.031 1_556 S
O73 C77 1.269 . S
O74 Zn71 1.986 . S
O74 C81 1.262 . S
O75 Zn70 2.049 . S
O75 C83 1.260 . S
O76 Zn71 1.996 . S
O76 C83 1.257 . S
C77 O72 1.254 . S
C77 O73 1.269 . S
C78 O79 1.249 . S
C78 O80 1.270 . S
O79 Zn71 1.943 . S
O79 C78 1.249 . S
O80 Zn70 2.067 . S
O80 C78 1.270 . S
C81 O74 1.262 . S
C81 O82 1.232 1_554 S
O82 C81 1.232 1_556 S
C83 O75 1.260 . S
C83 O76 1.257 . S
Zn84 O87 2.031 . S
Zn84 O89 2.049 . S
Zn84 O94 2.067 . S
Zn85 O86 1.962 . S
Zn85 O88 1.986 . S
Zn85 O90 1.996 . S
Zn85 O93 1.943 . S
O86 Zn85 1.962 . S
O86 C91 1.254 . S
O87 Zn84 2.031 . S
O87 C91 1.269 . S
O88 Zn85 1.986 . S
O88 C95 1.262 . S
O89 Zn84 2.049 . S
O89 C97 1.260 . S
O90 Zn85 1.996 . S
O90 C97 1.257 . S
C91 O86 1.254 . S
C91 O87 1.269 . S
C92 O93 1.249 . S
C92 O94 1.270 . S
O93 Zn85 1.943 . S
O93 C92 1.249 . S
O94 Zn84 2.067 . S
O94 C92 1.270 . S
C95 O88 1.262 . S
C95 O96 1.232 . S
O96 C95 1.232 . S
C97 O89 1.260 . S
C97 O90 1.257 . S
Zn98 O101 2.031 . S
Zn98 O103 2.049 . S
Zn98 O108 2.067 . S
Zn99 O100 1.962 . S
Zn99 O102 1.986 . S
Zn99 O104 1.996 . S
Zn99 O107 1.943 . S
O100 Zn99 1.962 . S
O100 C105 1.254 . S
O101 Zn98 2.031 . S
O101 C105 1.269 . S
O102 Zn99 1.986 . S
O102 C109 1.262 . S
O103 Zn98 2.049 . S
O103 C111 1.260 . S
O104 Zn99 1.996 . S
O104 C111 1.257 . S
C105 O100 1.254 . S
C105 O101 1.269 . S
C106 O107 1.249 . S
C106 O108 1.270 . S
O107 Zn99 1.943 . S
O107 C106 1.249 . S
O108 Zn98 2.067 . S
O108 C106 1.270 . S
C109 O102 1.262 . S
C109 O110 1.232 . S
O110 C109 1.232 . S
C111 O103 1.260 . S
C111 O104 1.257 . S
H112 C120 0.929 . S
H113 C122 0.930 1_455 S
H114 C124 0.930 . S
H115 C127 0.929 . S
H116 C130 0.930 . S
H117 C132 0.960 . S
H118 C132 0.960 . S
H119 C132 0.960 1_655 S
C120 H112 0.929 . S
C120 C121 1.377 1_556 S
C120 C122 1.384 . S
C121 C120 1.377 1_554 S
C121 C127 1.390 . S
C122 H113 0.930 1_655 S
C122 C120 1.384 . S
C122 C123 1.372 1_556 S
C123 C122 1.372 1_554 S
C123 C124 1.400 . S
C123 C128 1.490 . S
C124 H114 0.930 . S
C124 C123 1.400 . S
C124 C127 1.386 . S
H125 C141 0.930 . S
H126 C142 0.931 1_655 S
C127 H115 0.929 . S
C127 C121 1.390 . S
C127 C124 1.386 . S
C128 C123 1.490 . S
C128 C130 1.395 1_554 S
C128 C131 1.403 1_655 S
H129 C135 0.930 . S
C130 H116 0.930 . S
C130 C128 1.395 1_556 S
C130 C133 1.404 1_665 S
C131 C128 1.403 1_455 S
C131 C132 1.524 . S
C131 C135 1.400 1_565 S
C132 H117 0.960 . S
C132 H118 0.960 . S
C132 H119 0.960 1_455 S
C132 C131 1.524 . S
C133 C130 1.404 1_445 S
C133 C134 1.393 . S
C133 C137 1.495 1_455 S
C134 C133 1.393 . S
C134 C135 1.384 1_556 S
C134 C136 1.478 . S
C135 H129 0.930 . S
C135 C131 1.400 1_545 S
C135 C134 1.384 1_554 S
C136 C134 1.478 . S
C136 C138 1.381 . S
C136 C142 1.383 1_556 S
C137 C133 1.495 1_655 S
C137 H143 0.959 . S
C137 H144 0.961 . S
C137 H145 0.960 1_655 S
C138 C136 1.381 . S
C138 C139 1.394 . S
C138 H146 0.930 . S
C139 C138 1.394 . S
C139 C140 1.383 1_556 S
C139 H147 0.929 . S
C140 C139 1.383 1_554 S
C140 C141 1.377 . S
C141 H125 0.930 . S
C141 C140 1.377 . S
C141 C142 1.379 . S
C142 H126 0.931 1_455 S
C142 C136 1.383 1_554 S
C142 C141 1.379 . S
H143 C137 0.959 . S
H144 C137 0.961 . S
H145 C137 0.960 1_455 S
H146 C138 0.930 . S
H147 C139 0.929 . S
H148 C156 0.929 . S
H149 C158 0.930 . S
H150 C160 0.930 . S
H151 C163 0.929 . S
H152 C166 0.930 . S
H153 C168 0.960 1_545 S
H154 C168 0.960 . S
H155 C168 0.960 . S
C156 H148 0.929 . S
C156 C157 1.377 . S
C156 C158 1.384 . S
C157 C156 1.377 . S
C157 C163 1.390 . S
C158 H149 0.930 . S
C158 C156 1.384 . S
C158 C159 1.372 . S
C159 C158 1.372 . S
C159 C160 1.400 . S
C159 C164 1.490 . S
C160 H150 0.930 . S
C160 C159 1.400 . S
C160 C163 1.386 . S
H161 C177 0.930 . S
H162 C178 0.931 . S
C163 H151 0.929 . S
C163 C157 1.390 . S
C163 C160 1.386 . S
C164 C159 1.490 . S
C164 C166 1.395 1_455 S
C164 C167 1.403 . S
H165 C171 0.930 . S
C166 H152 0.930 . S
C166 C164 1.395 1_655 S
C166 C169 1.403 1_565 S
C167 C164 1.403 . S
C167 C168 1.524 . S
C167 C171 1.400 1_565 S
C168 H153 0.960 1_565 S
C168 H154 0.960 . S
C168 H155 0.960 . S
C168 C167 1.524 . S
C169 C166 1.403 1_545 S
C169 C170 1.392 . S
C169 C173 1.495 . S
C170 C169 1.392 . S
C170 C171 1.385 1_655 S
C170 C172 1.478 . S
C171 H165 0.930 . S
C171 C167 1.400 1_545 S
C171 C170 1.385 1_455 S
C172 C170 1.478 . S
C172 C174 1.381 . S
C172 C178 1.383 . S
C173 C169 1.495 . S
C173 H179 0.959 1_545 S
C173 H180 0.961 . S
C173 H181 0.960 . S
C174 C172 1.381 . S
C174 C175 1.394 . S
C174 H182 0.930 . S
C175 C174 1.394 . S
C175 C176 1.383 . S
C175 H183 0.929 . S
C176 C175 1.383 . S
C176 C177 1.377 . S
C177 H161 0.930 . S
C177 C176 1.377 . S
C177 C178 1.379 . S
C178 H162 0.931 . S
C178 C172 1.383 . S
C178 C177 1.379 . S
H179 C173 0.959 1_565 S
H180 C173 0.961 . S
H181 C173 0.960 . S
H182 C174 0.930 . S
H183 C175 0.929 . S
H184 C192 0.929 . S
H185 C194 0.930 . S
H186 C196 0.930 . S
H187 C199 0.929 . S
H188 C202 0.930 . S
H189 C204 0.960 . S
H190 C204 0.963 . S
H191 C204 0.958 1_554 S
C192 H184 0.929 . S
C192 C193 1.377 1_556 S
C192 C194 1.384 . S
C193 C192 1.377 1_554 S
C193 C199 1.390 . S
C194 H185 0.930 . S
C194 C192 1.384 . S
C194 C195 1.372 1_556 S
C195 C194 1.372 1_554 S
C195 C196 1.400 . S
C195 C200 1.490 . S
C196 H186 0.930 . S
C196 C195 1.400 . S
C196 C199 1.386 . S
H197 C213 0.930 . S
H198 C214 0.931 . S
C199 H187 0.929 . S
C199 C193 1.390 . S
C199 C196 1.386 . S
C200 C195 1.490 . S
C200 C202 1.395 . S
C200 C203 1.403 . S
H201 C207 0.930 . S
C202 H188 0.930 . S
C202 C200 1.395 . S
C202 C205 1.403 . S
C203 C200 1.403 . S
C203 C204 1.523 1_554 S
C203 C207 1.400 . S
C204 H189 0.960 . S
C204 H190 0.963 . S
C204 H191 0.958 1_556 S
C204 C203 1.523 1_556 S
C205 C202 1.403 . S
C205 C206 1.392 . S
C205 C209 1.495 . S
C206 C205 1.392 . S
C206 C207 1.385 . S
C206 C208 1.478 . S
C207 H201 0.930 . S
C207 C203 1.400 . S
C207 C206 1.385 . S
C208 C206 1.478 . S
C208 C210 1.381 1_554 S
C208 C214 1.383 . S
C209 C205 1.495 . S
C209 H215 0.959 . S
C209 H216 0.961 . S
C209 H217 0.960 1_554 S
C210 C208 1.381 1_556 S
C210 C211 1.394 . S
C210 H218 0.930 . S
C211 C210 1.394 . S
C211 C212 1.383 1_556 S
C211 H219 0.929 . S
C212 C211 1.383 1_554 S
C212 C213 1.377 . S
C213 H197 0.930 . S
C213 C212 1.377 . S
C213 C214 1.379 . S
C214 H198 0.931 . S
C214 C208 1.383 . S
C214 C213 1.379 . S
H215 C209 0.959 . S
H216 C209 0.961 . S
H217 C209 0.960 1_556 S
H218 C210 0.930 . S
H219 C211 0.929 . S
H220 C228 0.929 . S
H221 C230 0.930 . S
H222 C232 0.930 . S
H223 C235 0.929 . S
H224 C238 0.930 . S
H225 C240 0.960 . S
H226 C240 0.960 . S
H227 C240 0.960 . S
C228 H220 0.929 . S
C228 C229 1.377 . S
C228 C230 1.384 . S
C229 C228 1.377 . S
C229 C235 1.390 . S
C230 H221 0.930 . S
C230 C228 1.384 . S
C230 C231 1.372 . S
C231 C230 1.372 . S
C231 C232 1.400 . S
C231 C236 1.490 . S
C232 H222 0.930 . S
C232 C231 1.400 . S
C232 C235 1.386 . S
H233 C249 0.930 . S
H234 C250 0.931 . S
C235 H223 0.929 . S
C235 C229 1.390 . S
C235 C232 1.386 . S
C236 C231 1.490 . S
C236 C238 1.395 . S
C236 C239 1.403 . S
H237 C243 0.930 . S
C238 H224 0.930 . S
C238 C236 1.395 . S
C238 C241 1.403 . S
C239 C236 1.403 . S
C239 C240 1.524 . S
C239 C243 1.400 . S
C240 H225 0.960 . S
C240 H226 0.960 . S
C240 H227 0.960 . S
C240 C239 1.524 . S
C241 C238 1.403 . S
C241 C242 1.392 . S
C241 C245 1.495 . S
C242 C241 1.392 . S
C242 C243 1.385 . S
C242 C244 1.478 . S
C243 H237 0.930 . S
C243 C239 1.400 . S
C243 C242 1.385 . S
C244 C242 1.478 . S
C244 C246 1.381 . S
C244 C250 1.383 . S
C245 C241 1.495 . S
C245 H251 0.959 . S
C245 H252 0.961 . S
C245 H253 0.960 . S
C246 C244 1.381 . S
C246 C247 1.394 . S
C246 H254 0.930 . S
C247 C246 1.394 . S
C247 C248 1.383 . S
C247 H255 0.929 . S
C248 C247 1.383 . S
C248 C249 1.377 . S
C249 H233 0.930 . S
C249 C248 1.377 . S
C249 C250 1.379 . S
C250 H234 0.931 . S
C250 C244 1.383 . S
C250 C249 1.379 . S
H251 C245 0.959 . S
H252 C245 0.961 . S
H253 C245 0.960 . S
H254 C246 0.930 . S
H255 C247 0.929 . S
H256 C264 0.929 . S
H257 C266 0.950 . S
H258 C268 0.930 . S
H259 C271 0.929 . S
H260 C274 0.930 . S
H261 C276 0.960 . S
H262 C276 0.960 . S
H263 C276 0.960 . S
C264 H256 0.929 . S
C264 C265 1.377 . S
C264 C266 1.384 . S
C265 C264 1.377 . S
C265 C271 1.390 . S
C266 H257 0.950 . S
C266 C264 1.384 . S
C266 C267 1.372 . S
C267 C266 1.372 . S
C267 C268 1.400 . S
C267 C272 1.490 . S
C268 H258 0.930 . S
C268 C267 1.400 . S
C268 C271 1.386 . S
H269 C285 0.930 . S
H270 C286 0.931 . S
C271 H259 0.929 . S
C271 C265 1.390 . S
C271 C268 1.386 . S
C272 C267 1.490 . S
C272 C274 1.395 1_455 S
C272 C275 1.403 . S
H273 C279 0.930 . S
C274 H260 0.930 . S
C274 C272 1.395 1_655 S
C274 C277 1.403 . S
C275 C272 1.403 . S
C275 C276 1.524 . S
C275 C279 1.400 . S
C276 H261 0.960 . S
C276 H262 0.960 . S
C276 H263 0.960 . S
C276 C275 1.524 . S
C277 C274 1.403 . S
C277 C278 1.392 . S
C277 C281 1.495 . S
C278 C277 1.392 . S
C278 C279 1.385 1_655 S
C278 C280 1.478 . S
C279 H273 0.930 . S
C279 C275 1.400 . S
C279 C278 1.385 1_455 S
C280 C278 1.478 . S
C280 C282 1.381 . S
C280 C286 1.383 . S
C281 C277 1.495 . S
C281 H287 0.959 . S
C281 H288 0.961 . S
C281 H289 0.960 . S
C282 C280 1.381 . S
C282 C283 1.394 . S
C282 H290 0.930 . S
C283 C282 1.394 . S
C283 C284 1.383 . S
C283 H291 0.929 . S
C284 C283 1.383 . S
C284 C285 1.377 . S
C285 H269 0.930 . S
C285 C284 1.377 . S
C285 C286 1.379 . S
C286 H270 0.931 . S
C286 C280 1.383 . S
C286 C285 1.379 . S
H287 C281 0.959 . S
H288 C281 0.961 . S
H289 C281 0.960 . S
H290 C282 0.930 . S
H291 C283 0.929 . S
H292 C300 0.929 . S
H293 C302 0.930 . S
H294 C304 0.930 . S
H295 C307 0.929 . S
H296 C310 0.930 . S
H297 C312 0.960 . S
H298 C312 0.960 . S
H299 C312 0.960 . S
C300 H292 0.929 . S
C300 C301 1.377 . S
C300 C302 1.384 . S
C301 C300 1.377 . S
C301 C307 1.390 . S
C302 H293 0.930 . S
C302 C300 1.384 . S
C302 C303 1.372 . S
C303 C302 1.372 . S
C303 C304 1.400 . S
C303 C308 1.490 . S
C304 H294 0.930 . S
C304 C303 1.400 . S
C304 C307 1.386 . S
H305 C321 0.930 . S
H306 C322 0.931 . S
C307 H295 0.929 . S
C307 C301 1.390 . S
C307 C304 1.386 . S
C308 C303 1.490 . S
C308 C310 1.395 1_455 S
C308 C311 1.403 . S
H309 C315 0.930 . S
C310 H296 0.930 . S
C310 C308 1.395 1_655 S
C310 C313 1.403 . S
C311 C308 1.403 . S
C311 C312 1.524 . S
C311 C315 1.400 . S
C312 H297 0.960 . S
C312 H298 0.960 . S
C312 H299 0.960 . S
C312 C311 1.524 . S
C313 C310 1.403 . S
C313 C314 1.392 . S
C313 C317 1.495 . S
C314 C313 1.392 . S
C314 C315 1.385 1_655 S
C314 C316 1.478 . S
C315 H309 0.930 . S
C315 C311 1.400 . S
C315 C314 1.385 1_455 S
C316 C314 1.478 . S
C316 C318 1.381 . S
C316 C322 1.383 . S
C317 C313 1.495 . S
C317 H323 0.959 . S
C317 H324 0.961 . S
C317 H325 0.960 . S
C318 C316 1.381 . S
C318 C319 1.394 . S
C318 H326 0.930 . S
C319 C318 1.394 . S
C319 C320 1.383 . S
C319 H327 0.929 . S
C320 C319 1.383 . S
C320 C321 1.377 . S
C321 H305 0.930 . S
C321 C320 1.377 . S
C321 C322 1.379 . S
C322 H306 0.931 . S
C322 C316 1.383 . S
C322 C321 1.379 . S
H323 C317 0.959 . S
H324 C317 0.961 . S
H325 C317 0.960 . S
H326 C318 0.930 . S
H327 C319 0.929 . S
H328 C336 0.929 . S
H329 C338 0.930 . S
H330 C340 0.930 . S
H331 C343 0.929 . S
H332 C346 0.930 . S
H333 C348 0.960 . S
H334 C348 0.960 . S
H335 C348 0.960 . S
C336 H328 0.929 . S
C336 C337 1.377 . S
C336 C338 1.384 . S
C337 C336 1.377 . S
C337 C343 1.390 . S
C338 H329 0.930 . S
C338 C336 1.384 . S
C338 C339 1.372 . S
C339 C338 1.372 . S
C339 C340 1.400 . S
C339 C344 1.490 . S
C340 H330 0.930 . S
C340 C339 1.400 . S
C340 C343 1.386 . S
H341 C357 0.930 . S
H342 C358 0.931 . S
C343 H331 0.929 . S
C343 C337 1.390 . S
C343 C340 1.386 . S
C344 C339 1.490 . S
C344 C346 1.395 1_455 S
C344 C347 1.403 . S
H345 C351 0.930 . S
C346 H332 0.930 . S
C346 C344 1.395 1_655 S
C346 C349 1.403 . S
C347 C344 1.403 . S
C347 C348 1.524 . S
C347 C351 1.400 . S
C348 H333 0.960 . S
C348 H334 0.960 . S
C348 H335 0.960 . S
C348 C347 1.524 . S
C349 C346 1.403 . S
C349 C350 1.392 . S
C349 C353 1.495 . S
C350 C349 1.392 . S
C350 C351 1.385 1_655 S
C350 C352 1.478 . S
C351 H345 0.930 . S
C351 C347 1.400 . S
C351 C350 1.385 1_455 S
C352 C350 1.478 . S
C352 C354 1.381 . S
C352 C358 1.383 . S
C353 C349 1.495 . S
C353 H359 0.959 . S
C353 H360 0.961 . S
C353 H361 0.960 . S
C354 C352 1.381 . S
C354 C355 1.394 . S
C354 H362 0.939 . S
C355 C354 1.394 . S
C355 C356 1.383 . S
C355 H363 0.929 . S
C356 C355 1.383 . S
C356 C357 1.377 . S
C357 H341 0.930 . S
C357 C356 1.377 . S
C357 C358 1.379 . S
C358 H342 0.931 . S
C358 C352 1.383 . S
C358 C357 1.379 . S
H359 C353 0.959 . S
H360 C353 0.961 . S
H361 C353 0.960 . S
H362 C354 0.939 . S
H363 C355 0.929 . S
H364 C372 0.929 . S
H365 C374 0.930 . S
H366 C376 0.930 . S
H367 C379 0.929 1_655 S
H368 C382 0.930 . S
H369 C384 0.960 . S
H370 C384 0.960 . S
H371 C384 0.960 . S
C372 H364 0.929 . S
C372 C373 1.377 . S
C372 C374 1.384 . S
C373 C372 1.377 . S
C373 C379 1.390 . S
C374 H365 0.930 . S
C374 C372 1.384 . S
C374 C375 1.372 . S
C375 C374 1.372 . S
C375 C376 1.400 1_455 S
C375 C380 1.490 . S
C376 H366 0.930 . S
C376 C375 1.400 1_655 S
C376 C379 1.386 1_655 S
H377 C393 0.930 . S
H378 C394 0.931 . S
C379 H367 0.929 1_455 S
C379 C373 1.390 . S
C379 C376 1.386 1_455 S
C380 C375 1.490 . S
C380 C382 1.395 . S
C380 C383 1.403 1_455 S
H381 C387 0.930 . S
C382 H368 0.930 . S
C382 C380 1.395 . S
C382 C385 1.403 . S
C383 C380 1.403 1_655 S
C383 C384 1.524 . S
C383 C387 1.400 . S
C384 H369 0.960 . S
C384 H370 0.960 . S
C384 H371 0.960 . S
C384 C383 1.524 . S
C385 C382 1.403 . S
C385 C386 1.392 1_455 S
C385 C389 1.495 . S
C386 C385 1.392 1_655 S
C386 C387 1.385 . S
C386 C388 1.478 . S
C387 H381 0.930 . S
C387 C383 1.400 . S
C387 C386 1.385 . S
C388 C386 1.478 . S
C388 C390 1.381 1_655 S
C388 C394 1.383 . S
C389 C385 1.495 . S
C389 H395 0.959 . S
C389 H396 0.961 . S
C389 H397 0.960 . S
C390 C388 1.381 1_455 S
C390 C391 1.394 1_455 S
C390 H398 0.930 . S
C391 C390 1.394 1_655 S
C391 C392 1.383 . S
C391 H399 0.929 1_655 S
C392 C391 1.383 . S
C392 C393 1.377 . S
C393 H377 0.930 . S
C393 C392 1.377 . S
C393 C394 1.379 . S
C394 H378 0.931 . S
C394 C388 1.383 . S
C394 C393 1.379 . S
H395 C389 0.959 . S
H396 C389 0.961 . S
H397 C389 0.960 . S
H398 C390 0.930 . S
H399 C391 0.929 1_455 S
H400 C408 0.929 . S
H401 C410 0.930 . S
H402 C412 0.930 . S
H403 C415 0.929 . S
H404 C418 0.930 . S
H405 C420 0.960 . S
H406 C420 0.960 . S
H407 C420 0.960 . S
C408 H400 0.929 . S
C408 C409 1.377 . S
C408 C410 1.384 . S
C409 C408 1.377 . S
C409 C415 1.390 . S
C410 H401 0.930 . S
C410 C408 1.384 . S
C410 C411 1.372 . S
C411 C410 1.372 . S
C411 C412 1.400 . S
C411 C416 1.490 . S
C412 H402 0.930 . S
C412 C411 1.400 . S
C412 C415 1.386 . S
H413 C429 0.930 . S
H414 C430 0.931 . S
C415 H403 0.929 . S
C415 C409 1.390 . S
C415 C412 1.386 . S
C416 C411 1.490 . S
C416 C418 1.395 . S
C416 C419 1.403 . S
H417 C423 0.930 . S
C418 H404 0.930 . S
C418 C416 1.395 . S
C418 C421 1.403 . S
C419 C416 1.403 . S
C419 C420 1.524 . S
C419 C423 1.400 . S
C420 H405 0.960 . S
C420 H406 0.960 . S
C420 H407 0.960 . S
C420 C419 1.524 . S
C421 C418 1.403 . S
C421 C422 1.392 . S
C421 C425 1.495 . S
C422 C421 1.392 . S
C422 C423 1.385 . S
C422 C424 1.478 . S
C423 H417 0.930 . S
C423 C419 1.400 . S
C423 C422 1.385 . S
C424 C422 1.478 . S
C424 C426 1.381 . S
C424 C430 1.383 . S
C425 C421 1.495 . S
C425 H431 0.959 . S
C425 H432 0.961 . S
C425 H433 0.960 . S
C426 C424 1.381 . S
C426 C427 1.394 . S
C426 H434 0.930 . S
C427 C426 1.394 . S
C427 C428 1.383 . S
C427 H435 0.929 . S
C428 C427 1.383 . S
C428 C429 1.377 . S
C429 H413 0.930 . S
C429 C428 1.377 . S
C429 C430 1.379 . S
C430 H414 0.931 . S
C430 C424 1.383 . S
C430 C429 1.379 . S
H431 C425 0.959 . S
H432 C425 0.961 . S
H433 C425 0.960 . S
H434 C426 0.930 . S
H435 C427 0.929 . S
H436 C444 0.929 . S
H437 C446 0.930 . S
H438 C448 0.930 . S
H439 C451 0.929 . S
H440 C454 0.930 . S
H441 C456 0.960 . S
H442 C456 0.960 . S
H443 C456 0.960 . S
C444 H436 0.929 . S
C444 C445 1.377 . S
C444 C446 1.384 . S
C445 C444 1.377 . S
C445 C451 1.390 . S
C446 H437 0.930 . S
C446 C444 1.384 . S
C446 C447 1.372 . S
C447 C446 1.372 . S
C447 C448 1.400 . S
C447 C452 1.490 . S
C448 H438 0.930 . S
C448 C447 1.400 . S
C448 C451 1.386 . S
H449 C465 0.930 . S
H450 C466 0.931 . S
C451 H439 0.929 . S
C451 C445 1.390 . S
C451 C448 1.386 . S
C452 C447 1.490 . S
C452 C454 1.395 . S
C452 C455 1.403 . S
H453 C459 0.930 . S
C454 H440 0.930 . S
C454 C452 1.395 . S
C454 C457 1.403 . S
C455 C452 1.403 . S
C455 C456 1.524 . S
C455 C459 1.400 . S
C456 H441 0.960 . S
C456 H442 0.960 . S
C456 H443 0.960 . S
C456 C455 1.524 . S
C457 C454 1.403 . S
C457 C458 1.392 . S
C457 C461 1.495 . S
C458 C457 1.392 . S
C458 C459 1.385 . S
C458 C460 1.478 . S
C459 H453 0.930 . S
C459 C455 1.400 . S
C459 C458 1.385 . S
C460 C458 1.478 . S
C460 C462 1.381 . S
C460 C466 1.383 . S
C461 C457 1.495 . S
C461 H467 0.959 . S
C461 H468 0.961 . S
C461 H469 0.960 . S
C462 C460 1.381 . S
C462 C463 1.394 . S
C462 H470 0.930 . S
C463 C462 1.394 . S
C463 C464 1.383 . S
C463 H471 0.929 . S
C464 C463 1.383 . S
C464 C465 1.377 . S
C465 H449 0.930 . S
C465 C464 1.377 . S
C465 C466 1.379 . S
C466 H450 0.931 . S
C466 C460 1.383 . S
C466 C465 1.379 . S
H467 C461 0.959 . S
H468 C461 0.961 . S
H469 C461 0.960 . S
H470 C462 0.930 . S
H471 C463 0.929 . S
H472 C480 0.929 . S
H473 C482 0.930 . S
H474 C484 0.930 . S
H475 C487 0.929 . S
H476 C490 0.930 . S
H477 C492 0.960 . S
H478 C492 0.960 . S
H479 C492 0.960 . S
C480 H472 0.929 . S
C480 C481 1.377 . S
C480 C482 1.384 . S
C481 C480 1.377 . S
C481 C487 1.390 . S
C482 H473 0.930 . S
C482 C480 1.384 . S
C482 C483 1.372 . S
C483 C482 1.372 . S
C483 C484 1.400 . S
C483 C488 1.490 . S
C484 H474 0.930 . S
C484 C483 1.400 . S
C484 C487 1.386 . S
H485 C501 0.930 . S
H486 C502 0.931 . S
C487 H475 0.929 . S
C487 C481 1.390 . S
C487 C484 1.386 . S
C488 C483 1.490 . S
C488 C490 1.395 . S
C488 C491 1.403 . S
H489 C495 0.930 . S
C490 H476 0.930 . S
C490 C488 1.395 . S
C490 C493 1.403 . S
C491 C488 1.403 . S
C491 C492 1.524 . S
C491 C495 1.400 . S
C492 H477 0.960 . S
C492 H478 0.960 . S
C492 H479 0.960 . S
C492 C491 1.524 . S
C493 C490 1.403 . S
C493 C494 1.392 . S
C493 C497 1.495 . S
C494 C493 1.392 . S
C494 C495 1.385 . S
C494 C496 1.478 . S
C495 H489 0.930 . S
C495 C491 1.400 . S
C495 C494 1.385 . S
C496 C494 1.478 . S
C496 C498 1.381 . S
C496 C502 1.383 . S
C497 C493 1.495 . S
C497 H503 0.959 . S
C497 H504 0.961 . S
C497 H505 0.960 . S
C498 C496 1.381 . S
C498 C499 1.394 . S
C498 H506 0.930 . S
C499 C498 1.394 . S
C499 C500 1.383 . S
C499 H507 0.929 . S
C500 C499 1.383 . S
C500 C501 1.377 . S
C501 H485 0.930 . S
C501 C500 1.377 . S
C501 C502 1.379 . S
C502 H486 0.931 . S
C502 C496 1.383 . S
C502 C501 1.379 . S
H503 C497 0.959 . S
H504 C497 0.961 . S
H505 C497 0.960 . S
H506 C498 0.930 . S
H507 C499 0.929 . S
H508 C516 0.929 . S
H509 C518 0.930 . S
H510 C520 0.930 . S
H511 C523 0.929 . S
H512 C526 0.930 . S
H513 C528 0.960 . S
H514 C528 0.960 . S
H515 C528 0.960 . S
C516 H508 0.929 . S
C516 C517 1.377 . S
C516 C518 1.384 . S
C517 C516 1.377 . S
C517 C523 1.390 . S
C518 H509 0.930 . S
C518 C516 1.384 . S
C518 C519 1.372 . S
C519 C518 1.372 . S
C519 C520 1.400 . S
C519 C524 1.490 . S
C520 H510 0.930 . S
C520 C519 1.400 . S
C520 C523 1.386 . S
H521 C537 0.930 . S
H522 C538 0.931 . S
C523 H511 0.929 . S
C523 C517 1.390 . S
C523 C520 1.386 . S
C524 C519 1.490 . S
C524 C526 1.395 . S
C524 C527 1.403 . S
H525 C531 0.930 . S
C526 H512 0.930 . S
C526 C524 1.395 . S
C526 C529 1.403 . S
C527 C524 1.403 . S
C527 C528 1.524 . S
C527 C531 1.400 . S
C528 H513 0.960 . S
C528 H514 0.960 . S
C528 H515 0.960 . S
C528 C527 1.524 . S
C529 C526 1.403 . S
C529 C530 1.392 . S
C529 C533 1.495 . S
C530 C529 1.392 . S
C530 C531 1.385 . S
C530 C532 1.478 . S
C531 H525 0.930 . S
C531 C527 1.400 . S
C531 C530 1.385 . S
C532 C530 1.478 . S
C532 C534 1.381 . S
C532 C538 1.383 . S
C533 C529 1.495 . S
C533 H539 0.959 . S
C533 H540 0.961 . S
C533 H541 0.960 . S
C534 C532 1.381 . S
C534 C535 1.394 . S
C534 H542 0.930 . S
C535 C534 1.394 . S
C535 C536 1.383 . S
C535 H543 0.929 . S
C536 C535 1.383 . S
C536 C537 1.377 . S
C537 H521 0.930 . S
C537 C536 1.377 . S
C537 C538 1.379 . S
C538 H522 0.931 . S
C538 C532 1.383 . S
C538 C537 1.379 . S
H539 C533 0.959 . S
H540 C533 0.961 . S
H541 C533 0.960 . S
H542 C534 0.930 . S
H543 C535 0.929 . S
H544 C552 0.937 . S
H545 C554 0.930 . S
H546 C556 0.930 . S
H547 C559 0.929 . S
H548 C562 0.930 . S
H549 C564 0.960 . S
H550 C564 0.960 . S
H551 C564 0.960 . S
C552 H544 0.937 . S
C552 C553 1.370 1_556 S
C552 C554 1.384 . S
C553 C552 1.370 1_554 S
C553 C559 1.390 . S
C554 H545 0.930 . S
C554 C552 1.384 . S
C554 C555 1.372 1_556 S
C555 C554 1.372 1_554 S
C555 C556 1.400 . S
C555 C560 1.490 . S
C556 H546 0.930 . S
C556 C555 1.400 . S
C556 C559 1.386 . S
H557 C573 0.930 . S
H558 C574 0.931 . S
C559 H547 0.929 . S
C559 C553 1.390 . S
C559 C556 1.386 . S
C560 C555 1.490 . S
C560 C562 1.395 1_554 S
C560 C563 1.403 . S
H561 C567 0.930 . S
C562 H548 0.930 . S
C562 C560 1.395 1_556 S
C562 C565 1.403 . S
C563 C560 1.403 . S
C563 C564 1.524 . S
C563 C567 1.400 . S
C564 H549 0.960 . S
C564 H550 0.960 . S
C564 H551 0.960 . S
C564 C563 1.524 . S
C565 C562 1.403 . S
C565 C566 1.392 1_556 S
C565 C569 1.495 . S
C566 C565 1.392 1_554 S
C566 C567 1.385 . S
C566 C568 1.478 . S
C567 H561 0.930 . S
C567 C563 1.400 . S
C567 C566 1.385 . S
C568 C566 1.478 . S
C568 C570 1.381 1_554 S
C568 C574 1.383 . S
C569 C565 1.495 . S
C569 H575 0.959 . S
C569 H576 0.961 . S
C569 H577 0.960 . S
C570 C568 1.381 1_556 S
C570 C571 1.394 . S
C570 H578 0.930 . S
C571 C570 1.394 . S
C571 C572 1.383 1_556 S
C571 H579 0.929 . S
C572 C571 1.383 1_554 S
C572 C573 1.377 . S
C573 H557 0.930 . S
C573 C572 1.377 . S
C573 C574 1.379 . S
C574 H558 0.931 . S
C574 C568 1.383 . S
C574 C573 1.379 . S
H575 C569 0.959 . S
H576 C569 0.961 . S
H577 C569 0.960 . S
H578 C570 0.930 . S
H579 C571 0.929 . S
H580 C588 0.929 . S
H581 C590 0.930 . S
H582 C592 0.930 . S
H583 C595 0.929 . S
H584 C598 0.930 . S
H585 C600 0.960 . S
H586 C600 0.960 . S
H587 C600 0.960 1_556 S
C588 H580 0.929 . S
C588 C589 1.377 . S
C588 C590 1.384 . S
C589 C588 1.377 . S
C589 C595 1.390 1_554 S
C590 H581 0.930 . S
C590 C588 1.384 . S
C590 C591 1.372 . S
C591 C590 1.372 . S
C591 C592 1.400 1_554 S
C591 C596 1.490 . S
C592 H582 0.930 . S
C592 C591 1.400 1_556 S
C592 C595 1.386 . S
H593 C609 0.930 . S
H594 C610 0.931 . S
C595 H583 0.929 . S
C595 C589 1.390 1_556 S
C595 C592 1.386 . S
C596 C591 1.490 . S
C596 C598 1.395 . S
C596 C599 1.403 . S
H597 C603 0.930 . S
C598 H584 0.930 . S
C598 C596 1.395 . S
C598 C601 1.403 . S
C599 C596 1.403 . S
C599 C600 1.524 . S
C599 C603 1.400 . S
C600 H585 0.960 . S
C600 H586 0.960 . S
C600 H587 0.960 1_554 S
C600 C599 1.524 . S
C601 C598 1.403 . S
C601 C602 1.392 . S
C601 C605 1.495 . S
C602 C601 1.392 . S
C602 C603 1.385 . S
C602 C604 1.478 . S
C603 H597 0.930 . S
C603 C599 1.400 . S
C603 C602 1.385 . S
C604 C602 1.478 . S
C604 C606 1.381 . S
C604 C610 1.383 1_554 S
C605 C601 1.495 . S
C605 H611 0.959 . S
C605 H612 0.961 . S
C605 H613 0.960 . S
C606 C604 1.381 . S
C606 C607 1.394 . S
C606 H614 0.930 . S
C607 C606 1.394 . S
C607 C608 1.383 . S
C607 H615 0.929 . S
C608 C607 1.383 . S
C608 C609 1.377 1_554 S
C609 H593 0.930 . S
C609 C608 1.377 1_556 S
C609 C610 1.379 . S
C610 H594 0.931 . S
C610 C604 1.383 1_556 S
C610 C609 1.379 . S
H611 C605 0.959 . S
H612 C605 0.961 . S
H613 C605 0.960 . S
H614 C606 0.930 . S
H615 C607 0.929 . S
H616 C624 0.929 . S
H617 C626 0.930 . S
H618 C628 0.930 . S
H619 C631 0.929 . S
H620 C634 0.930 . S
H621 C636 0.960 . S
H622 C636 0.960 . S
H623 C636 0.960 . S
C624 H616 0.929 . S
C624 C625 1.377 . S
C624 C626 1.384 . S
C625 C624 1.377 . S
C625 C631 1.390 . S
C626 H617 0.930 . S
C626 C624 1.384 . S
C626 C627 1.372 . S
C627 C626 1.372 . S
C627 C628 1.400 . S
C627 C632 1.490 . S
C628 H618 0.930 . S
C628 C627 1.400 . S
C628 C631 1.386 . S
H629 C645 0.930 . S
H630 C646 0.931 . S
C631 H619 0.929 . S
C631 C625 1.390 . S
C631 C628 1.386 . S
C632 C627 1.490 . S
C632 C634 1.395 . S
C632 C635 1.403 . S
H633 C639 0.930 . S
C634 H620 0.930 . S
C634 C632 1.395 . S
C634 C637 1.403 . S
C635 C632 1.403 . S
C635 C636 1.524 . S
C635 C639 1.400 . S
C636 H621 0.960 . S
C636 H622 0.960 . S
C636 H623 0.960 . S
C636 C635 1.524 . S
C637 C634 1.403 . S
C637 C638 1.392 . S
C637 C641 1.495 . S
C638 C637 1.392 . S
C638 C639 1.385 . S
C638 C640 1.478 . S
C639 H633 0.930 . S
C639 C635 1.400 . S
C639 C638 1.385 . S
C640 C638 1.478 . S
C640 C642 1.381 . S
C640 C646 1.383 . S
C641 C637 1.495 . S
C641 H647 0.959 . S
C641 H648 0.961 . S
C641 H649 0.960 . S
C642 C640 1.381 . S
C642 C643 1.394 . S
C642 H650 0.930 . S
C643 C642 1.394 . S
C643 C644 1.383 . S
C643 H651 0.929 . S
C644 C643 1.383 . S
C644 C645 1.377 . S
C645 H629 0.930 . S
C645 C644 1.377 . S
C645 C646 1.379 . S
C646 H630 0.931 . S
C646 C640 1.383 . S
C646 C645 1.379 . S
H647 C641 0.959 . S
H648 C641 0.961 . S
H649 C641 0.960 . S
H650 C642 0.930 . S
H651 C643 0.929 . S
H652 C660 0.929 . S
H653 C662 0.930 . S
H654 C664 0.930 . S
H655 C667 0.929 . S
H656 C670 0.930 . S
H657 C672 0.960 . S
H658 C672 0.960 . S
H659 C672 0.960 . S
C660 H652 0.929 . S
C660 C661 1.377 . S
C660 C662 1.384 . S
C661 C660 1.377 . S
C661 C667 1.390 . S
C662 H653 0.930 . S
C662 C660 1.384 . S
C662 C663 1.372 . S
C663 C662 1.372 . S
C663 C664 1.400 . S
C663 C668 1.490 . S
C664 H654 0.930 . S
C664 C663 1.400 . S
C664 C667 1.386 . S
H665 C681 0.930 . S
H666 C682 0.931 . S
C667 H655 0.929 . S
C667 C661 1.390 . S
C667 C664 1.386 . S
C668 C663 1.490 . S
C668 C670 1.395 . S
C668 C671 1.403 . S
H669 C675 0.930 . S
C670 H656 0.930 . S
C670 C668 1.395 . S
C670 C673 1.403 . S
C671 C668 1.403 . S
C671 C672 1.524 . S
C671 C675 1.400 . S
C672 H657 0.960 . S
C672 H658 0.960 . S
C672 H659 0.960 . S
C672 C671 1.524 . S
C673 C670 1.403 . S
C673 C674 1.392 . S
C673 C677 1.495 . S
C674 C673 1.392 . S
C674 C675 1.385 . S
C674 C676 1.478 . S
C675 H669 0.930 . S
C675 C671 1.400 . S
C675 C674 1.385 . S
C676 C674 1.478 . S
C676 C678 1.381 . S
C676 C682 1.383 . S
C677 C673 1.495 . S
C677 H683 0.959 . S
C677 H684 0.961 . S
C677 H685 0.960 . S
C678 C676 1.381 . S
C678 C679 1.394 . S
C678 H686 0.930 . S
C679 C678 1.394 . S
C679 C680 1.383 . S
C679 H687 0.929 . S
C680 C679 1.383 . S
C680 C681 1.377 . S
C681 H665 0.930 . S
C681 C680 1.377 . S
C681 C682 1.379 . S
C682 H666 0.931 . S
C682 C676 1.383 . S
C682 C681 1.379 . S
H683 C677 0.959 . S
H684 C677 0.961 . S
H685 C677 0.960 . S
H686 C678 0.930 . S
H687 C679 0.929 . S
C121 C22 1.453 . S
C140 C8 1.464 . S
C157 C36 1.460 . S
C176 C50 1.468 . S
C193 C64 1.460 . S
C212 C78 1.431 . S
C229 C92 1.460 . S
C248 C106 1.430 . S
C265 C13 1.089 . S
C284 C55 1.116 . S
C301 C41 1.090 . S
C320 C27 1.124 . S
C337 C35 1.063 . S
C356 C21 1.048 . S
C373 C7 1.068 . S
C392 C49 1.043 . S
C409 C69 1.072 . S
C428 C111 1.036 . S
C445 C97 1.072 . S
C464 C83 1.036 . S
C481 C77 1.067 . S
C500 C91 1.061 . S
C517 C63 1.063 . S
C536 C105 1.050 . S
C553 C81 1.561 . S
C572 C11 1.549 . S
C589 C67 1.563 . S
C608 C25 1.560 . S
C625 C39 1.561 . S
C644 C109 1.549 . S
C661 C95 1.560 . S
C680 C53 1.550 . S
