# Generated by pormake.
# Topology wgj, (5)-cn, num edge types: 1
# Building blocks:
#     Node 0, Type 0, BuildingBlock: XOMCOT_clean_sbu_0, # of connection points: 5
#     Node 1, Type 0, BuildingBlock: XOMCOT_clean_sbu_0, # of connection points: 5
#     Node 2, Type 0, BuildingBlock: XOMCOT_clean_sbu_0, # of connection points: 5
#     Node 3, Type 0, BuildingBlock: XOMCOT_clean_sbu_0, # of connection points: 5
#     Node 4, Type 0, BuildingBlock: XOMCOT_clean_sbu_0, # of connection points: 5
#     Node 5, Type 0, BuildingBlock: XOMCOT_clean_sbu_0, # of connection points: 5
#     Node 6, Type 0, BuildingBlock: XOMCOT_clean_sbu_0, # of connection points: 5
#     Node 7, Type 0, BuildingBlock: XOMCOT_clean_sbu_0, # of connection points: 5
#     Node 8, Type 0, BuildingBlock: XOMCOT_clean_sbu_0, # of connection points: 5
#     Node 9, Type 0, BuildingBlock: XOMCOT_clean_sbu_0, # of connection points: 5
#     Node 10, Type 0, BuildingBlock: XOMCOT_clean_sbu_0, # of connection points: 5
#     Node 11, Type 0, BuildingBlock: XOMCOT_clean_sbu_0, # of connection points: 5
#     Node 12, Type 0, BuildingBlock: XOMCOT_clean_sbu_0, # of connection points: 5
#     Node 13, Type 0, BuildingBlock: XOMCOT_clean_sbu_0, # of connection points: 5
#     Node 14, Type 0, BuildingBlock: XOMCOT_clean_sbu_0, # of connection points: 5
#     Node 15, Type 0, BuildingBlock: XOMCOT_clean_sbu_0, # of connection points: 5
#     Node 16, Type 0, BuildingBlock: XOMCOT_clean_sbu_0, # of connection points: 5
#     Node 17, Type 0, BuildingBlock: XOMCOT_clean_sbu_0, # of connection points: 5
#     Node 18, Type 0, BuildingBlock: XOMCOT_clean_sbu_0, # of connection points: 5
#     Node 19, Type 0, BuildingBlock: XOMCOT_clean_sbu_0, # of connection points: 5
#     Node 20, Type 0, BuildingBlock: XOMCOT_clean_sbu_0, # of connection points: 5
#     Node 21, Type 0, BuildingBlock: XOMCOT_clean_sbu_0, # of connection points: 5
#     Node 22, Type 0, BuildingBlock: XOMCOT_clean_sbu_0, # of connection points: 5
#     Node 23, Type 0, BuildingBlock: XOMCOT_clean_sbu_0, # of connection points: 5
#     Node 24, Type 0, BuildingBlock: XOMCOT_clean_sbu_0, # of connection points: 5
#     Node 25, Type 0, BuildingBlock: XOMCOT_clean_sbu_0, # of connection points: 5
#     Node 26, Type 0, BuildingBlock: XOMCOT_clean_sbu_0, # of connection points: 5
#     Node 27, Type 0, BuildingBlock: XOMCOT_clean_sbu_0, # of connection points: 5
#     Node 28, Type 0, BuildingBlock: XOMCOT_clean_sbu_0, # of connection points: 5
#     Node 29, Type 0, BuildingBlock: XOMCOT_clean_sbu_0, # of connection points: 5
#     Node 30, Type 0, BuildingBlock: XOMCOT_clean_sbu_0, # of connection points: 5
#     Node 31, Type 0, BuildingBlock: XOMCOT_clean_sbu_0, # of connection points: 5
#     Edge 32, Type (0, 0), BuildingBlock: EZIPEK_clean_linker_0, # of connection points: 2
#     Edge 33, Type (0, 0), BuildingBlock: EZIPEK_clean_linker_0, # of connection points: 2
#     Edge 34, Type (0, 0), BuildingBlock: EZIPEK_clean_linker_0, # of connection points: 2
#     Edge 35, Type (0, 0), BuildingBlock: EZIPEK_clean_linker_0, # of connection points: 2
#     Edge 36, Type (0, 0), BuildingBlock: EZIPEK_clean_linker_0, # of connection points: 2
#     Edge 37, Type (0, 0), BuildingBlock: EZIPEK_clean_linker_0, # of connection points: 2
#     Edge 38, Type (0, 0), BuildingBlock: EZIPEK_clean_linker_0, # of connection points: 2
#     Edge 39, Type (0, 0), BuildingBlock: EZIPEK_clean_linker_0, # of connection points: 2
#     Edge 40, Type (0, 0), BuildingBlock: EZIPEK_clean_linker_0, # of connection points: 2
#     Edge 41, Type (0, 0), BuildingBlock: EZIPEK_clean_linker_0, # of connection points: 2
#     Edge 42, Type (0, 0), BuildingBlock: EZIPEK_clean_linker_0, # of connection points: 2
#     Edge 43, Type (0, 0), BuildingBlock: EZIPEK_clean_linker_0, # of connection points: 2
#     Edge 44, Type (0, 0), BuildingBlock: EZIPEK_clean_linker_0, # of connection points: 2
#     Edge 45, Type (0, 0), BuildingBlock: EZIPEK_clean_linker_0, # of connection points: 2
#     Edge 46, Type (0, 0), BuildingBlock: EZIPEK_clean_linker_0, # of connection points: 2
#     Edge 47, Type (0, 0), BuildingBlock: EZIPEK_clean_linker_0, # of connection points: 2
#     Edge 48, Type (0, 0), BuildingBlock: EZIPEK_clean_linker_0, # of connection points: 2
#     Edge 49, Type (0, 0), BuildingBlock: EZIPEK_clean_linker_0, # of connection points: 2
#     Edge 50, Type (0, 0), BuildingBlock: EZIPEK_clean_linker_0, # of connection points: 2
#     Edge 51, Type (0, 0), BuildingBlock: EZIPEK_clean_linker_0, # of connection points: 2
#     Edge 52, Type (0, 0), BuildingBlock: EZIPEK_clean_linker_0, # of connection points: 2
#     Edge 53, Type (0, 0), BuildingBlock: EZIPEK_clean_linker_0, # of connection points: 2
#     Edge 54, Type (0, 0), BuildingBlock: EZIPEK_clean_linker_0, # of connection points: 2
#     Edge 55, Type (0, 0), BuildingBlock: EZIPEK_clean_linker_0, # of connection points: 2
#     Edge 56, Type (0, 0), BuildingBlock: EZIPEK_clean_linker_0, # of connection points: 2
#     Edge 57, Type (0, 0), BuildingBlock: EZIPEK_clean_linker_0, # of connection points: 2
#     Edge 58, Type (0, 0), BuildingBlock: EZIPEK_clean_linker_0, # of connection points: 2
#     Edge 59, Type (0, 0), BuildingBlock: EZIPEK_clean_linker_0, # of connection points: 2
#     Edge 60, Type (0, 0), BuildingBlock: EZIPEK_clean_linker_0, # of connection points: 2
#     Edge 61, Type (0, 0), BuildingBlock: EZIPEK_clean_linker_0, # of connection points: 2
#     Edge 62, Type (0, 0), BuildingBlock: EZIPEK_clean_linker_0, # of connection points: 2
#     Edge 63, Type (0, 0), BuildingBlock: EZIPEK_clean_linker_0, # of connection points: 2
#     Edge 64, Type (0, 0), BuildingBlock: EZIPEK_clean_linker_0, # of connection points: 2
#     Edge 65, Type (0, 0), BuildingBlock: EZIPEK_clean_linker_0, # of connection points: 2
#     Edge 66, Type (0, 0), BuildingBlock: EZIPEK_clean_linker_0, # of connection points: 2
#     Edge 67, Type (0, 0), BuildingBlock: EZIPEK_clean_linker_0, # of connection points: 2
#     Edge 68, Type (0, 0), BuildingBlock: EZIPEK_clean_linker_0, # of connection points: 2
#     Edge 69, Type (0, 0), BuildingBlock: EZIPEK_clean_linker_0, # of connection points: 2
#     Edge 70, Type (0, 0), BuildingBlock: EZIPEK_clean_linker_0, # of connection points: 2
#     Edge 71, Type (0, 0), BuildingBlock: EZIPEK_clean_linker_0, # of connection points: 2
#     Edge 72, Type (0, 0), BuildingBlock: EZIPEK_clean_linker_0, # of connection points: 2
#     Edge 73, Type (0, 0), BuildingBlock: EZIPEK_clean_linker_0, # of connection points: 2
#     Edge 74, Type (0, 0), BuildingBlock: EZIPEK_clean_linker_0, # of connection points: 2
#     Edge 75, Type (0, 0), BuildingBlock: EZIPEK_clean_linker_0, # of connection points: 2
#     Edge 76, Type (0, 0), BuildingBlock: EZIPEK_clean_linker_0, # of connection points: 2
#     Edge 77, Type (0, 0), BuildingBlock: EZIPEK_clean_linker_0, # of connection points: 2
#     Edge 78, Type (0, 0), BuildingBlock: EZIPEK_clean_linker_0, # of connection points: 2
#     Edge 79, Type (0, 0), BuildingBlock: EZIPEK_clean_linker_0, # of connection points: 2
#     Edge 80, Type (0, 0), BuildingBlock: EZIPEK_clean_linker_0, # of connection points: 2
#     Edge 81, Type (0, 0), BuildingBlock: EZIPEK_clean_linker_0, # of connection points: 2
#     Edge 82, Type (0, 0), BuildingBlock: EZIPEK_clean_linker_0, # of connection points: 2
#     Edge 83, Type (0, 0), BuildingBlock: EZIPEK_clean_linker_0, # of connection points: 2
#     Edge 84, Type (0, 0), BuildingBlock: EZIPEK_clean_linker_0, # of connection points: 2
#     Edge 85, Type (0, 0), BuildingBlock: EZIPEK_clean_linker_0, # of connection points: 2
#     Edge 86, Type (0, 0), BuildingBlock: EZIPEK_clean_linker_0, # of connection points: 2
#     Edge 87, Type (0, 0), BuildingBlock: EZIPEK_clean_linker_0, # of connection points: 2
#     Edge 88, Type (0, 0), BuildingBlock: EZIPEK_clean_linker_0, # of connection points: 2
#     Edge 89, Type (0, 0), BuildingBlock: EZIPEK_clean_linker_0, # of connection points: 2
#     Edge 90, Type (0, 0), BuildingBlock: EZIPEK_clean_linker_0, # of connection points: 2
#     Edge 91, Type (0, 0), BuildingBlock: EZIPEK_clean_linker_0, # of connection points: 2
#     Edge 92, Type (0, 0), BuildingBlock: EZIPEK_clean_linker_0, # of connection points: 2
#     Edge 93, Type (0, 0), BuildingBlock: EZIPEK_clean_linker_0, # of connection points: 2
#     Edge 94, Type (0, 0), BuildingBlock: EZIPEK_clean_linker_0, # of connection points: 2
#     Edge 95, Type (0, 0), BuildingBlock: EZIPEK_clean_linker_0, # of connection points: 2
#     Edge 96, Type (0, 0), BuildingBlock: EZIPEK_clean_linker_0, # of connection points: 2
#     Edge 97, Type (0, 0), BuildingBlock: EZIPEK_clean_linker_0, # of connection points: 2
#     Edge 98, Type (0, 0), BuildingBlock: EZIPEK_clean_linker_0, # of connection points: 2
#     Edge 99, Type (0, 0), BuildingBlock: EZIPEK_clean_linker_0, # of connection points: 2
#     Edge 100, Type (0, 0), BuildingBlock: EZIPEK_clean_linker_0, # of connection points: 2
#     Edge 101, Type (0, 0), BuildingBlock: EZIPEK_clean_linker_0, # of connection points: 2
#     Edge 102, Type (0, 0), BuildingBlock: EZIPEK_clean_linker_0, # of connection points: 2
#     Edge 103, Type (0, 0), BuildingBlock: EZIPEK_clean_linker_0, # of connection points: 2
#     Edge 104, Type (0, 0), BuildingBlock: EZIPEK_clean_linker_0, # of connection points: 2
#     Edge 105, Type (0, 0), BuildingBlock: EZIPEK_clean_linker_0, # of connection points: 2
#     Edge 106, Type (0, 0), BuildingBlock: EZIPEK_clean_linker_0, # of connection points: 2
#     Edge 107, Type (0, 0), BuildingBlock: EZIPEK_clean_linker_0, # of connection points: 2
#     Edge 108, Type (0, 0), BuildingBlock: EZIPEK_clean_linker_0, # of connection points: 2
#     Edge 109, Type (0, 0), BuildingBlock: EZIPEK_clean_linker_0, # of connection points: 2
#     Edge 110, Type (0, 0), BuildingBlock: EZIPEK_clean_linker_0, # of connection points: 2
#     Edge 111, Type (0, 0), BuildingBlock: EZIPEK_clean_linker_0, # of connection points: 2
# Relax obj value: 0.275
# Max RMSD: 0.157
# Mean RMSD: 0.157
data_MOF--net-wgj--node1-XOMCOT_clean_sbu_0--edge1-EZIPEK_clean_linker_0
_symmetry_space_group_name_H-M    P1
_symmetry_Int_Tables_number       1
_symmetry_cell_setting            triclinic
loop_
_symmetry_equiv_pos_as_xyz
'x, y, z'
_cell_length_a     53.454089
_cell_length_b     53.612286
_cell_length_c     22.046049
_cell_angle_alpha  90.03359
_cell_angle_beta   89.94346
_cell_angle_gamma 89.923329
loop_
_atom_site_label
_atom_site_type_symbol
_atom_site_fract_x
_atom_site_fract_y
_atom_site_fract_z
_atom_type_partial_charge
Co0 Co 0.17508 0.1735 0.32244 0.0
C1 C 0.1268 0.15328 0.36433 0.0
C2 C 0.15363 0.14906 0.43535 0.0
C3 C 0.13044 0.14108 0.45614 0.0
N4 N 0.15134 0.15704 0.37756 0.0
N5 N 0.11365 0.14377 0.41098 0.0
H6 H 0.11812 0.15778 0.32152 0.0
H7 H 0.17062 0.14912 0.46131 0.0
C8 C 0.21046 0.18007 0.44072 0.0
O9 O 0.19272 0.19084 0.47261 0.0
N10 N 0.19629 0.19058 0.26424 0.0
C11 C 0.18831 0.20008 0.21059 0.0
C12 C 0.20472 0.21801 0.19112 0.0
C13 C 0.21768 0.20284 0.27588 0.0
N14 N 0.22251 0.22024 0.23358 0.0
C15 C 0.13822 0.21311 0.33545 0.0
C16 C 0.1708 0.24934 0.37578 0.0
C17 C 0.14636 0.25661 0.36109 0.0
C18 C 0.12968 0.23778 0.34298 0.0
C19 C 0.17827 0.22445 0.36935 0.0
N20 N 0.1624 0.20651 0.3484 0.0
H21 H 0.12556 0.1997 0.3161 0.0
H22 H 0.19733 0.22012 0.37759 0.0
H23 H 0.17052 0.19637 0.18936 0.0
H24 H 0.22826 0.20096 0.31706 0.0
O25 O 0.15171 0.16678 0.25542 0.0
O26 O 0.18213 0.14146 0.28144 0.0
O27 O 0.20551 0.1726 0.38564 0.0
C28 C 0.16371 0.14618 0.24456 0.0
H29 H 0.12621 0.13408 0.50102 0.0
H30 H 0.20213 0.23051 0.15308 0.0
H31 H 0.18449 0.26306 0.3898 0.0
H32 H 0.11052 0.24236 0.33149 0.0
Co33 Co 0.09407 0.92022 0.58172 0.0
C34 C 0.1159 0.87273 0.61917 0.0
C35 C 0.12721 0.9007 0.68254 0.0
C36 C 0.13534 0.87758 0.70295 0.0
N37 N 0.11425 0.89751 0.63071 0.0
N38 N 0.12816 0.86004 0.66261 0.0
H39 H 0.10774 0.86365 0.58026 0.0
H40 H 0.13072 0.91834 0.70421 0.0
C41 C 0.09367 0.95439 0.70318 0.0
O42 O 0.08957 0.93534 0.73927 0.0
N43 N 0.07298 0.94013 0.53034 0.0
C44 C 0.05595 0.92995 0.49244 0.0
C45 C 0.03913 0.94782 0.47544 0.0
C46 C 0.06635 0.96424 0.53566 0.0
N47 N 0.04552 0.96911 0.50336 0.0
C48 C 0.0552 0.88331 0.59097 0.0
C49 C 0.02183 0.91089 0.65887 0.0
C50 C 0.01305 0.88953 0.62906 0.0
C51 C 0.03038 0.8752 0.59663 0.0
C52 C 0.04672 0.91868 0.65084 0.0
N53 N 0.06307 0.90548 0.61541 0.0
H54 H 0.06734 0.87263 0.56192 0.0
H55 H 0.0517 0.93647 0.66886 0.0
H56 H 0.05459 0.91035 0.48157 0.0
H57 H 0.07524 0.97744 0.56563 0.0
O58 O 0.09879 0.89767 0.51209 0.0
O59 O 0.12386 0.9288 0.53159 0.0
O60 O 0.09573 0.95045 0.64497 0.0
C61 C 0.11841 0.91015 0.49599 0.0
H62 H 0.14565 0.87395 0.74425 0.0
H63 H 0.02217 0.94493 0.44955 0.0
H64 H 0.00903 0.92253 0.68446 0.0
H65 H 0.02445 0.85852 0.57293 0.0
Co66 Co 0.34418 0.84055 0.8263 0.0
C67 C 0.39529 0.85836 0.85481 0.0
C68 C 0.36956 0.86946 0.9246 0.0
C69 C 0.39308 0.87874 0.93838 0.0
N70 N 0.37095 0.85665 0.87207 0.0
N71 N 0.40917 0.87189 0.89413 0.0
H72 H 0.4028 0.85015 0.81382 0.0
H73 H 0.35266 0.87227 0.9507 0.0
C74 C 0.30179 0.82878 0.92152 0.0
O75 O 0.3013 0.80605 0.8993 0.0
N76 N 0.31874 0.8241 0.77739 0.0
C77 C 0.32362 0.80724 0.73359 0.0
C78 C 0.30185 0.79611 0.71632 0.0
C79 C 0.29353 0.82426 0.78242 0.0
N80 N 0.28277 0.80639 0.74759 0.0
C81 C 0.37133 0.79466 0.80993 0.0
C82 C 0.36077 0.77192 0.91886 0.0
C83 C 0.37191 0.75753 0.87253 0.0
C84 C 0.37791 0.76968 0.81842 0.0
C85 C 0.35403 0.79707 0.9078 0.0
N86 N 0.35743 0.80755 0.85174 0.0
H87 H 0.37697 0.80324 0.76802 0.0
H88 H 0.34591 0.80781 0.94422 0.0
H89 H 0.3418 0.80263 0.71579 0.0
H90 H 0.28352 0.83689 0.81163 0.0
O91 O 0.3641 0.84469 0.75201 0.0
O92 O 0.33711 0.8725 0.78396 0.0
O93 O 0.3187 0.84402 0.90041 0.0
C94 C 0.35352 0.86605 0.74294 0.0
H95 H 0.39791 0.89007 0.9773 0.0
H96 H 0.30037 0.7803 0.68591 0.0
H97 H 0.35686 0.76367 0.96266 0.0
H98 H 0.38744 0.7598 0.78225 0.0
Co99 Co 0.4281 0.08692 0.07211 0.0
C100 C 0.41149 0.13417 0.13081 0.0
C101 C 0.38567 0.10434 0.14635 0.0
C102 C 0.37455 0.12655 0.16378 0.0
N103 N 0.40887 0.10904 0.12527 0.0
N104 N 0.39075 0.14539 0.15377 0.0
H105 H 0.42722 0.14451 0.11335 0.0
H106 H 0.37661 0.08634 0.14415 0.0
C107 C 0.42375 0.05273 0.18927 0.0
O108 O 0.42845 0.07221 0.22361 0.0
N109 N 0.44748 0.06596 0.0178 0.0
C110 C 0.45579 0.07202 0.96209 0.0
C111 C 0.47584 0.05717 0.94812 0.0
C112 C 0.4625 0.04724 0.0359 0.0
N113 N 0.48018 0.04108 0.99426 0.0
C114 C 0.47018 0.11959 0.08118 0.0
C115 C 0.50151 0.08992 0.14927 0.0
C116 C 0.51177 0.1108 0.11967 0.0
C117 C 0.49544 0.12591 0.08657 0.0
C118 C 0.47591 0.08396 0.14199 0.0
N119 N 0.46045 0.09839 0.10676 0.0
H120 H 0.45899 0.13141 0.05267 0.0
H121 H 0.46937 0.06683 0.16164 0.0
H122 H 0.44991 0.08793 0.93568 0.0
H123 H 0.46201 0.04086 0.08162 0.0
O124 O 0.4252 0.11185 1.00812 0.0
O125 O 0.39801 0.08236 0.0194 0.0
O126 O 0.42356 0.05606 0.13097 0.0
C127 C 0.40523 0.10151 0.98725 0.0
H128 H 0.35542 0.12887 0.17898 0.0
H129 H 0.48797 0.06028 0.90958 0.0
H130 H 0.51343 0.07767 0.17557 0.0
H131 H 0.50237 0.14224 0.06303 0.0
Co132 Co 0.1764 0.84038 0.19622 0.0
C133 C 0.12693 0.85236 0.14521 0.0
C134 C 0.15458 0.87792 0.1126 0.0
C135 C 0.13113 0.88679 0.09692 0.0
N136 N 0.15205 0.85609 0.14225 0.0
N137 N 0.11364 0.87109 0.11912 0.0
H138 H 0.11845 0.8376 0.17163 0.0
H139 H 0.17203 0.88792 0.10762 0.0
C140 C 0.21002 0.84508 0.07445 0.0
O141 O 0.19102 0.8516 0.04034 0.0
N142 N 0.19955 0.82425 0.25154 0.0
C143 C 0.19842 0.82234 0.31234 0.0
C144 C 0.21361 0.80304 0.33053 0.0
C145 C 0.21535 0.80605 0.23429 0.0
N146 N 0.22516 0.79302 0.28144 0.0
C147 C 0.1554 0.79279 0.21769 0.0
C148 C 0.15949 0.77259 0.10296 0.0
C149 C 0.15046 0.75761 0.15059 0.0
C150 C 0.14817 0.76817 0.2081 0.0
C151 C 0.16648 0.79754 0.11454 0.0
N152 N 0.16495 0.80713 0.1719 0.0
H153 H 0.15401 0.80012 0.26315 0.0
H154 H 0.17326 0.80888 0.07773 0.0
H155 H 0.18539 0.83204 0.34143 0.0
H156 H 0.21666 0.80046 0.18749 0.0
O157 O 0.15246 0.84532 0.26262 0.0
O158 O 0.18115 0.87272 0.23944 0.0
O159 O 0.20631 0.84066 0.13192 0.0
C160 C 0.16248 0.86666 0.27498 0.0
H161 H 0.12717 0.90462 0.07596 0.0
H162 H 0.21331 0.7955 0.37585 0.0
H163 H 0.16133 0.76501 0.05763 0.0
H164 H 0.14126 0.75724 0.24589 0.0
Co165 Co 0.42335 0.92187 0.4449 0.0
C166 C 0.40782 0.8702 0.41593 0.0
C167 C 0.39724 0.8952 0.34443 0.0
C168 C 0.38874 0.87151 0.33041 0.0
N169 N 0.40916 0.8944 0.39826 0.0
N170 N 0.39517 0.85591 0.37584 0.0
H171 H 0.41537 0.86312 0.45805 0.0
H172 H 0.39434 0.91185 0.31769 0.0
C173 C 0.43414 0.96139 0.34049 0.0
O174 O 0.45813 0.96057 0.35295 0.0
N175 N 0.43785 0.94848 0.49408 0.0
C176 C 0.45036 0.94531 0.54665 0.0
C177 C 0.46286 0.96678 0.56056 0.0
C178 C 0.44159 0.97266 0.47971 0.0
N179 N 0.45772 0.98402 0.5179 0.0
C180 C 0.47202 0.90138 0.46809 0.0
C181 C 0.49142 0.90198 0.35237 0.0
C182 C 0.50727 0.89516 0.40075 0.0
C183 C 0.49689 0.89435 0.45878 0.0
C184 C 0.4663 0.90906 0.36399 0.0
N185 N 0.45736 0.9104 0.42216 0.0
H186 H 0.46465 0.89919 0.51303 0.0
H187 H 0.45424 0.91366 0.32632 0.0
H188 H 0.4512 0.92836 0.57289 0.0
H189 H 0.4321 0.98191 0.44363 0.0
O190 O 0.41944 0.90179 0.51898 0.0
O191 O 0.39055 0.92726 0.48536 0.0
O192 O 0.41904 0.94674 0.37032 0.0
C193 C 0.39743 0.91133 0.5269 0.0
H194 H 0.378 0.86625 0.29081 0.0
H195 H 0.47604 0.96907 0.59744 0.0
H196 H 0.49842 0.90197 0.30627 0.0
H197 H 0.508 0.88826 0.49711 0.0
Co198 Co 0.34423 0.17149 0.68896 0.0
C199 C 0.39299 0.14868 0.65818 0.0
C200 C 0.36905 0.14915 0.58027 0.0
C201 C 0.39262 0.14109 0.56274 0.0
N202 N 0.3693 0.15404 0.64032 0.0
N203 N 0.40756 0.14086 0.612 0.0
H204 H 0.4002 0.15165 0.70336 0.0
H205 H 0.35334 0.15238 0.55046 0.0
C206 C 0.30239 0.18409 0.59223 0.0
O207 O 0.30427 0.20772 0.60732 0.0
N208 N 0.32064 0.18955 0.74047 0.0
C209 C 0.32733 0.20394 0.78824 0.0
C210 C 0.30748 0.21795 0.80694 0.0
C211 C 0.29609 0.19456 0.73266 0.0
N212 N 0.28814 0.21259 0.77072 0.0
C213 C 0.37038 0.21807 0.69918 0.0
C214 C 0.36373 0.23583 0.58324 0.0
C215 C 0.37318 0.25216 0.62773 0.0
C216 C 0.37727 0.24251 0.68568 0.0
C217 C 0.35636 0.21141 0.59958 0.0
N218 N 0.35767 0.20355 0.65858 0.0
H219 H 0.37546 0.21102 0.743 0.0
H220 H 0.34934 0.1991 0.56494 0.0
H221 H 0.34588 0.20606 0.80605 0.0
H222 H 0.28439 0.18659 0.69806 0.0
O223 O 0.36594 0.1679 0.75989 0.0
O224 O 0.33762 0.14036 0.73636 0.0
O225 O 0.31703 0.16793 0.61876 0.0
C226 C 0.35535 0.14698 0.7738 0.0
H227 H 0.39856 0.13657 0.51708 0.0
H228 H 0.30803 0.23313 0.83937 0.0
H229 H 0.36159 0.24203 0.5368 0.0
H230 H 0.38589 0.25382 0.72061 0.0
Co231 Co 0.09585 0.08912 0.94832 0.0
C232 C 0.10675 0.13923 0.90295 0.0
C233 C 0.1337 0.11268 0.87032 0.0
C234 C 0.14234 0.13646 0.85828 0.0
N235 N 0.11146 0.11446 0.89873 0.0
N236 N 0.12547 0.15311 0.87938 0.0
H237 H 0.09106 0.14699 0.92768 0.0
H238 H 0.14393 0.09547 0.86377 0.0
C239 C 0.0833 0.04822 0.84671 0.0
O240 O 0.0593 0.04996 0.85839 0.0
N241 N 0.07999 0.06476 1.00141 0.0
C242 C 0.06773 0.07048 0.05338 0.0
C243 C 0.05172 0.05151 0.06793 0.0
C244 C 0.07261 0.04134 0.98844 0.0
N245 N 0.05443 0.03357 0.02604 0.0
C246 C 0.04942 0.11439 0.97061 0.0
C247 C 0.02711 0.1095 0.85883 0.0
C248 C 0.01304 0.11974 0.90695 0.0
C249 C 0.025 0.12299 0.96246 0.0
C250 C 0.05212 0.10163 0.86873 0.0
N251 N 0.06237 0.10227 0.92563 0.0
H252 H 0.05774 0.11776 0.01409 0.0
H253 H 0.06302 0.09494 0.83081 0.0
H254 H 0.06868 0.08803 0.07718 0.0
H255 H 0.0785 0.03064 0.94994 0.0
O256 O 0.10128 0.11073 0.01895 0.0
O257 O 0.12832 0.08253 0.98927 0.0
O258 O 0.0988 0.06261 0.87619 0.0
C259 C 0.12249 0.09985 0.02847 0.0
H260 H 0.1603 0.14123 0.83874 0.0
H261 H 0.03726 0.05204 0.10234 0.0
H262 H 0.01889 0.10766 0.81419 0.0
H263 H 0.01527 0.13169 1.00009 0.0
Co264 Co 0.84194 0.84181 0.70046 0.0
C265 C 0.8921 0.86036 0.66627 0.0
C266 C 0.86725 0.86241 0.59018 0.0
C267 C 0.89102 0.8693 0.57159 0.0
N268 N 0.86791 0.85674 0.64977 0.0
N269 N 0.90656 0.86805 0.61971 0.0
H270 H 0.89949 0.85669 0.711 0.0
H271 H 0.85094 0.86086 0.56148 0.0
C272 C 0.80025 0.82868 0.60281 0.0
O273 O 0.80151 0.80525 0.62007 0.0
N274 N 0.81756 0.8263 0.75493 0.0
C275 C 0.82353 0.81531 0.80842 0.0
C276 C 0.8043 0.80047 0.82726 0.0
C277 C 0.79378 0.81905 0.74475 0.0
N278 N 0.786 0.80231 0.78612 0.0
C279 C 0.8646 0.79379 0.71994 0.0
C280 C 0.86276 0.7756 0.60312 0.0
C281 C 0.87098 0.75957 0.64969 0.0
C282 C 0.87229 0.76934 0.70838 0.0
C283 C 0.85454 0.80003 0.61716 0.0
N284 N 0.85416 0.80843 0.67586 0.0
H285 H 0.86736 0.80087 0.76496 0.0
H286 H 0.84837 0.812 0.58076 0.0
H287 H 0.84129 0.81649 0.83139 0.0
H288 H 0.78241 0.82469 0.70706 0.0
O289 O 0.86348 0.84689 0.77157 0.0
O290 O 0.83582 0.87433 0.74084 0.0
O291 O 0.81527 0.84459 0.62879 0.0
C292 C 0.85278 0.86827 0.78072 0.0
H293 H 0.89657 0.87447 0.52607 0.0
H294 H 0.80481 0.78723 0.86432 0.0
H295 H 0.86234 0.76918 0.55656 0.0
H296 H 0.87946 0.75812 0.74536 0.0
Co297 Co 0.92517 0.09373 0.44021 0.0
C298 C 0.90425 0.14084 0.3974 0.0
C299 C 0.88571 0.11087 0.35178 0.0
C300 C 0.87445 0.1333 0.33547 0.0
N301 N 0.90481 0.11574 0.38987 0.0
N302 N 0.88605 0.15209 0.36508 0.0
H303 H 0.91618 0.15089 0.4283 0.0
H304 H 0.8796 0.0924 0.33886 0.0
C305 C 0.92412 0.05998 0.31862 0.0
O306 O 0.92407 0.07976 0.28349 0.0
N307 N 0.94622 0.07455 0.49354 0.0
C308 C 0.96184 0.0853 0.5341 0.0
C309 C 0.97969 0.06845 0.55105 0.0
C310 C 0.95443 0.05096 0.48766 0.0
N311 N 0.97512 0.04712 0.52128 0.0
C312 C 0.96484 0.12986 0.43709 0.0
C313 C 0.99753 0.10362 0.36431 0.0
C314 C 1.00693 0.12351 0.39882 0.0
C315 C 0.98994 0.13724 0.43367 0.0
C316 C 0.97224 0.09653 0.36985 0.0
N317 N 0.9563 0.10888 0.40815 0.0
H318 H 0.95306 0.13992 0.46826 0.0
H319 H 0.96651 0.07991 0.34693 0.0
H320 H 0.96163 0.10474 0.54695 0.0
H321 H 0.94675 0.03746 0.4566 0.0
O322 O 0.91908 0.11658 0.50868 0.0
O323 O 0.89532 0.0844 0.48874 0.0
O324 O 0.92482 0.06331 0.37726 0.0
C325 C 0.90001 0.10323 0.52438 0.0
H326 H 0.85836 0.13552 0.30616 0.0
H327 H 0.99589 0.07204 0.57915 0.0
H328 H 0.01001 0.09259 0.33631 0.0
H329 H 0.9963 0.15284 0.46083 0.0
Co330 Co 0.67794 0.1724 0.19382 0.0
C331 C 0.62979 0.15037 0.15421 0.0
C332 C 0.65686 0.14549 0.08379 0.0
C333 C 0.6342 0.13539 0.06505 0.0
N334 N 0.65401 0.15543 0.13966 0.0
N335 N 0.61723 0.13842 0.10985 0.0
H336 H 0.62101 0.15538 0.19666 0.0
H337 H 0.6741 0.14505 0.05834 0.0
C338 C 0.71062 0.18005 0.07433 0.0
O339 O 0.69138 0.19047 0.04728 0.0
N340 N 0.69953 0.18934 0.25128 0.0
C341 C 0.69051 0.20309 0.2975 0.0
C342 C 0.70878 0.21873 0.31761 0.0
C343 C 0.7235 0.19666 0.24484 0.0
N344 N 0.72963 0.2154 0.28376 0.0
C345 C 0.64164 0.21171 0.16972 0.0
C346 C 0.6763 0.24932 0.15418 0.0
C347 C 0.65094 0.25596 0.15825 0.0
C348 C 0.63346 0.23653 0.16364 0.0
C349 C 0.68352 0.2242 0.15682 0.0
N350 N 0.66646 0.20559 0.16644 0.0
H351 H 0.62794 0.19778 0.18068 0.0
H352 H 0.70318 0.22 0.15505 0.0
H353 H 0.67112 0.20402 0.31122 0.0
H354 H 0.73488 0.19005 0.20814 0.0
O355 O 0.65439 0.16716 0.26128 0.0
O356 O 0.68398 0.14056 0.23702 0.0
O357 O 0.70767 0.17139 0.12916 0.0
C358 C 0.6656 0.14628 0.27348 0.0
H359 H 0.63057 0.12631 0.0221 0.0
H360 H 0.70557 0.23393 0.34903 0.0
H361 H 0.69059 0.26354 0.15021 0.0
H362 H 0.61367 0.24066 0.16691 0.0
Co363 Co 0.59699 0.92559 0.94396 0.0
C364 C 0.61748 0.8754 0.91763 0.0
C365 C 0.62307 0.89974 0.84209 0.0
C366 C 0.63328 0.87666 0.82912 0.0
N367 N 0.61341 0.89905 0.89823 0.0
N368 N 0.63119 0.86144 0.87815 0.0
H369 H 0.60932 0.86834 0.95885 0.0
H370 H 0.62224 0.91557 0.81185 0.0
C371 C 0.58697 0.96853 0.8486 0.0
O372 O 0.56373 0.97002 0.86768 0.0
N373 N 0.58034 0.95087 0.9922 0.0
C374 C 0.56324 0.94617 0.03549 0.0
C375 C 0.55397 0.96817 0.05669 0.0
C376 C 0.58185 0.97598 0.9896 0.0
N377 N 0.56512 0.98717 0.02691 0.0
C378 C 0.55094 0.8984 0.95633 0.0
C379 C 0.52905 0.91005 0.84692 0.0
C380 C 0.51453 0.89787 0.89124 0.0
C381 C 0.52621 0.89133 0.9455 0.0
C382 C 0.55406 0.91687 0.85993 0.0
N383 N 0.5641 0.91284 0.9162 0.0
H384 H 0.5591 0.89252 0.99853 0.0
H385 H 0.56515 0.92529 0.82472 0.0
H386 H 0.55752 0.92803 0.05104 0.0
H387 H 0.59432 0.98578 0.95983 0.0
O388 O 0.60002 0.90546 0.01793 0.0
O389 O 0.62867 0.93196 0.9892 0.0
O390 O 0.60151 0.95132 0.87129 0.0
C391 C 0.62147 0.91552 0.02925 0.0
H392 H 0.64063 0.87154 0.7852 0.0
H393 H 0.53841 0.96987 0.08793 0.0
H394 H 0.52111 0.91441 0.80302 0.0
H395 H 0.51613 0.88103 0.97999 0.0
Co396 Co 0.84371 0.1734 0.81874 0.0
C397 C 0.89469 0.15988 0.85873 0.0
C398 C 0.86817 0.15201 0.92924 0.0
C399 C 0.89178 0.14483 0.9484 0.0
N400 N 0.86999 0.16137 0.87271 0.0
N401 N 0.90837 0.1495 0.90354 0.0
H402 H 0.90263 0.16561 0.81584 0.0
H403 H 0.85094 0.14999 0.95446 0.0
C404 C 0.80232 0.18847 0.91615 0.0
O405 O 0.80421 0.21157 0.89672 0.0
N406 N 0.81882 0.18574 0.76044 0.0
C407 C 0.82372 0.19167 0.70167 0.0
C408 C 0.80502 0.20649 0.67916 0.0
C409 C 0.79613 0.19593 0.77063 0.0
N410 N 0.78818 0.20966 0.72348 0.0
C411 C 0.86192 0.22224 0.7892 0.0
C412 C 0.86275 0.24257 0.90413 0.0
C413 C 0.86844 0.25806 0.85442 0.0
C414 C 0.8686 0.24726 0.79671 0.0
C415 C 0.85601 0.21739 0.89442 0.0
N416 N 0.85409 0.20793 0.83689 0.0
H417 H 0.86296 0.21451 0.74425 0.0
H418 H 0.85184 0.20571 0.93307 0.0
H419 H 0.84087 0.18784 0.67754 0.0
H420 H 0.78548 0.1943 0.81148 0.0
O421 O 0.86632 0.16721 0.75021 0.0
O422 O 0.83959 0.13949 0.78414 0.0
O423 O 0.81667 0.1718 0.89043 0.0
C424 C 0.85673 0.14516 0.74422 0.0
H425 H 0.89628 0.13594 0.99111 0.0
H426 H 0.80528 0.21658 0.63663 0.0
H427 H 0.86323 0.24993 0.94985 0.0
H428 H 0.87369 0.25821 0.75731 0.0
Co429 Co 0.59536 0.09118 0.57348 0.0
C430 C 0.61154 0.1381 0.62792 0.0
C431 C 0.63881 0.10963 0.64487 0.0
C432 C 0.64901 0.13266 0.65959 0.0
N433 N 0.61526 0.1131 0.62468 0.0
N434 N 0.63181 0.15051 0.64822 0.0
H435 H 0.5953 0.1475 0.61007 0.0
H436 H 0.64868 0.09201 0.64364 0.0
C437 C 0.60102 0.05827 0.69285 0.0
O438 O 0.60169 0.07862 0.72603 0.0
N439 N 0.57404 0.07145 0.52082 0.0
C440 C 0.56145 0.08152 0.47359 0.0
C441 C 0.54021 0.06804 0.46288 0.0
C442 C 0.56006 0.05153 0.53731 0.0
N443 N 0.53914 0.04938 0.50343 0.0
C444 C 0.55401 0.12501 0.5736 0.0
C445 C 0.52477 0.1016 0.65927 0.0
C446 C 0.51389 0.12002 0.6225 0.0
C447 C 0.52914 0.13239 0.581 0.0
C448 C 0.54998 0.09468 0.65035 0.0
N449 N 0.56414 0.10569 0.60613 0.0
H450 H 0.56454 0.13411 0.53838 0.0
H451 H 0.55708 0.07914 0.67584 0.0
H452 H 0.56566 0.09911 0.45214 0.0
H453 H 0.56346 0.04046 0.577 0.0
O454 O 0.60149 0.1148 0.50633 0.0
O455 O 0.62534 0.08254 0.52418 0.0
O456 O 0.59708 0.06092 0.63512 0.0
C457 C 0.62078 0.10183 0.49003 0.0
H458 H 0.66809 0.13617 0.67352 0.0
H459 H 0.52574 0.07252 0.43029 0.0
H460 H 0.51348 0.09162 0.69205 0.0
H461 H 0.52149 0.1468 0.55196 0.0
Co462 Co 0.67647 0.84149 0.32483 0.0
C463 C 0.62693 0.85416 0.37488 0.0
C464 C 0.655 0.87838 0.41109 0.0
C465 C 0.6317 0.8874 0.42757 0.0
N466 N 0.65211 0.85721 0.37888 0.0
N467 N 0.61394 0.87264 0.40298 0.0
H468 H 0.61826 0.84012 0.34655 0.0
H469 H 0.67265 0.88783 0.41778 0.0
C470 C 0.70894 0.84459 0.44828 0.0
O471 O 0.68948 0.85014 0.48197 0.0
N472 N 0.69956 0.82533 0.26923 0.0
C473 C 0.69786 0.82292 0.20857 0.0
C474 C 0.71284 0.80344 0.19031 0.0
C475 C 0.71545 0.80722 0.28628 0.0
N476 N 0.72481 0.7938 0.23914 0.0
C477 C 0.65458 0.79443 0.30023 0.0
C478 C 0.6592 0.77254 0.41289 0.0
C479 C 0.65022 0.7581 0.36419 0.0
C480 C 0.64766 0.76956 0.30772 0.0
C481 C 0.66608 0.79768 0.40333 0.0
N482 N 0.6643 0.80814 0.34695 0.0
H483 H 0.65293 0.80242 0.25554 0.0
H484 H 0.67304 0.80841 0.44094 0.0
H485 H 0.6845 0.83232 0.17989 0.0
H486 H 0.71714 0.80189 0.33317 0.0
O487 O 0.65307 0.84774 0.25787 0.0
O488 O 0.68241 0.87408 0.2839 0.0
O489 O 0.70589 0.84094 0.39025 0.0
C490 C 0.66393 0.86885 0.24717 0.0
H491 H 0.62806 0.90478 0.45103 0.0
H492 H 0.71203 0.79552 0.14541 0.0
H493 H 0.6612 0.76437 0.45753 0.0
H494 H 0.64072 0.75916 0.2691 0.0
Co495 Co 0.92462 0.92329 0.07512 0.0
C496 C 0.9085 0.87358 0.11533 0.0
C497 C 0.89421 0.90136 0.17632 0.0
C498 C 0.88505 0.87816 0.19339 0.0
N499 N 0.90889 0.89841 0.12713 0.0
N500 N 0.89374 0.8608 0.15416 0.0
H501 H 0.91811 0.86498 0.0775 0.0
H502 H 0.88977 0.91908 0.19716 0.0
C503 C 0.93719 0.96389 0.17938 0.0
O504 O 0.96093 0.95766 0.1805 0.0
N505 N 0.94104 0.94661 0.01971 0.0
C506 C 0.94425 0.9432 0.95908 0.0
C507 C 0.96288 0.95846 0.93812 0.0
C508 C 0.95814 0.96411 0.03405 0.0
N509 N 0.97156 0.97134 0.98559 0.0
C510 C 0.97271 0.90229 0.05212 0.0
C511 C 0.99042 0.89841 0.16912 0.0
C512 C 1.00679 0.89267 0.12077 0.0
C513 C 0.99709 0.89376 0.06201 0.0
C514 C 0.96576 0.90679 0.15704 0.0
N515 N 0.9578 0.91031 0.09867 0.0
H516 H 0.96602 0.90288 1.00606 0.0
H517 H 0.95334 0.91092 0.19448 0.0
H518 H 0.93606 0.92862 0.93207 0.0
H519 H 0.9625 0.97013 0.079 0.0
O520 O 0.91847 0.90077 1.00609 0.0
O521 O 0.89212 0.92986 0.03476 0.0
O522 O 0.92207 0.95154 0.14372 0.0
C523 C 0.89728 0.91197 0.99665 0.0
H524 H 0.8722 0.87447 0.23028 0.0
H525 H 0.9709 0.95856 0.89301 0.0
H526 H 0.99678 0.89688 0.21558 0.0
H527 H 0.00861 0.88873 0.02341 0.0
Co528 Co 0.67163 0.67251 0.82899 0.0
C529 C 0.6247 0.65383 0.87769 0.0
C530 C 0.65473 0.63086 0.90962 0.0
C531 C 0.63214 0.62007 0.92629 0.0
N532 N 0.64998 0.65237 0.88016 0.0
N533 N 0.61329 0.63442 0.90508 0.0
H534 H 0.61469 0.66795 0.85248 0.0
H535 H 0.67311 0.62273 0.91516 0.0
C536 C 0.70589 0.66848 0.94817 0.0
O537 O 0.68661 0.66347 0.983 0.0
N538 N 0.69092 0.6935 0.7752 0.0
C539 C 0.68064 0.70737 0.73039 0.0
C540 C 0.69689 0.72592 0.71415 0.0
C541 C 0.71351 0.70385 0.78516 0.0
N542 N 0.71729 0.72377 0.74913 0.0
C543 C 0.6375 0.71417 0.82951 0.0
C544 C 0.66078 0.7419 0.91825 0.0
C545 C 0.6437 0.75392 0.87977 0.0
C546 C 0.63072 0.73924 0.83782 0.0
C547 C 0.66683 0.71667 0.90884 0.0
N548 N 0.65656 0.70346 0.86198 0.0
H549 H 0.62848 0.70405 0.79342 0.0
H550 H 0.68075 0.70863 0.93752 0.0
H551 H 0.66168 0.70569 0.71404 0.0
H552 H 0.72601 0.69861 0.82133 0.0
O553 O 0.64827 0.66611 0.76171 0.0
O554 O 0.68089 0.64266 0.78049 0.0
O555 O 0.70215 0.67247 0.89069 0.0
C556 C 0.66166 0.64704 0.74578 0.0
H557 H 0.62975 0.60226 0.94866 0.0
H558 H 0.69304 0.74128 0.68366 0.0
H559 H 0.67069 0.75237 0.95271 0.0
H560 H 0.61681 0.74757 0.8084 0.0
Co561 Co 0.59424 0.42315 0.07907 0.0
C562 C 0.6068 0.37307 0.12869 0.0
C563 C 0.62749 0.40209 0.17293 0.0
C564 C 0.63644 0.37928 0.19268 0.0
N565 N 0.60901 0.39821 0.13247 0.0
N566 N 0.62363 0.36108 0.1642 0.0
H567 H 0.59429 0.3637 0.09757 0.0
H568 H 0.63512 0.42017 0.18429 0.0
C569 C 0.58239 0.46448 0.18089 0.0
O570 O 0.55823 0.46319 0.17097 0.0
N571 N 0.57945 0.44773 0.02404 0.0
C572 C 0.5688 0.44262 0.96975 0.0
C573 C 0.55248 0.46148 0.9548 0.0
C574 C 0.57094 0.47076 0.03792 0.0
N575 N 0.55363 0.47889 0.99851 0.0
C576 C 0.54737 0.39973 0.05521 0.0
C577 C 0.52377 0.40635 0.1649 0.0
C578 C 0.50997 0.39623 0.11613 0.0
C579 C 0.52278 0.39166 0.06221 0.0
C580 C 0.54934 0.41261 0.15703 0.0
N581 N 0.56024 0.4114 0.10091 0.0
H582 H 0.55574 0.39652 0.01167 0.0
H583 H 0.56008 0.41868 0.19573 0.0
H584 H 0.57059 0.42529 0.94515 0.0
H585 H 0.57518 0.48087 0.07819 0.0
O586 O 0.59888 0.40026 0.01049 0.0
O587 O 0.62708 0.42752 0.03688 0.0
O588 O 0.5976 0.45042 0.14939 0.0
C589 C 0.62044 0.4099 0.99913 0.0
H590 H 0.65228 0.37627 0.22234 0.0
H591 H 0.53892 0.46116 0.91837 0.0
H592 H 0.515 0.40901 0.20872 0.0
H593 H 0.51339 0.38287 0.02427 0.0
Co594 Co 0.83976 0.34234 0.32335 0.0
C595 C 0.89065 0.35912 0.35677 0.0
C596 C 0.86397 0.37083 0.42383 0.0
C597 C 0.8873 0.38011 0.43927 0.0
N598 N 0.86609 0.35761 0.37203 0.0
N599 N 0.90397 0.37288 0.39669 0.0
H600 H 0.8987 0.35073 0.31661 0.0
H601 H 0.84668 0.3741 0.44802 0.0
C602 C 0.79864 0.32997 0.42299 0.0
O603 O 0.79962 0.30634 0.4074 0.0
N604 N 0.81458 0.32674 0.27149 0.0
C605 C 0.81981 0.3143 0.21993 0.0
C606 C 0.79971 0.30031 0.20362 0.0
C607 C 0.79041 0.32112 0.28302 0.0
N608 N 0.78103 0.30391 0.24406 0.0
C609 C 0.86258 0.29472 0.30245 0.0
C610 C 0.85698 0.2739 0.41576 0.0
C611 C 0.8649 0.25851 0.3675 0.0
C612 C 0.86843 0.26962 0.31096 0.0
C613 C 0.85112 0.29929 0.40486 0.0
N614 N 0.85192 0.30886 0.3473 0.0
H615 H 0.86661 0.30255 0.25877 0.0
H616 H 0.84546 0.31097 0.44238 0.0
H617 H 0.8375 0.31413 0.19648 0.0
H618 H 0.78005 0.32944 0.31907 0.0
O619 O 0.86094 0.34671 0.25142 0.0
O620 O 0.83391 0.37478 0.28179 0.0
O621 O 0.81362 0.34566 0.39601 0.0
C622 C 0.8508 0.36826 0.24197 0.0
H623 H 0.8916 0.39181 0.4779 0.0
H624 H 0.8001 0.2864 0.16802 0.0
H625 H 0.85513 0.26634 0.46107 0.0
H626 H 0.87566 0.25888 0.27315 0.0
Co627 Co 0.92168 0.58867 0.57576 0.0
C628 C 0.91354 0.64053 0.61926 0.0
C629 C 0.89054 0.61428 0.66691 0.0
C630 C 0.8829 0.63814 0.68198 0.0
N631 N 0.90956 0.61576 0.627 0.0
N632 N 0.89702 0.65465 0.65096 0.0
H633 H 0.9269 0.64805 0.58721 0.0
H634 H 0.88146 0.59713 0.68028 0.0
C635 C 0.93211 0.55054 0.68341 0.0
O636 O 0.95575 0.55699 0.68454 0.0
N637 N 0.93344 0.56152 0.52433 0.0
C638 C 0.92982 0.55739 0.46433 0.0
C639 C 0.94514 0.53812 0.4456 0.0
C640 C 0.95096 0.54478 0.54054 0.0
N641 N 0.95834 0.53052 0.49399 0.0
C642 C 0.97292 0.59863 0.54757 0.0
C643 C 0.98993 0.61215 0.66097 0.0
C644 C 1.00707 0.61179 0.61236 0.0
C645 C 0.99805 0.6052 0.55509 0.0
C646 C 0.96469 0.6053 0.65139 0.0
N647 N 0.9567 0.59735 0.5956 0.0
H648 H 0.96641 0.59466 0.50225 0.0
H649 H 0.95172 0.60598 0.68906 0.0
H650 H 0.91869 0.56873 0.43444 0.0
H651 H 0.96037 0.54461 0.58342 0.0
O652 O 0.91865 0.61065 0.50455 0.0
O653 O 0.88813 0.58694 0.53655 0.0
O654 O 0.91691 0.56221 0.64682 0.0
C655 C 0.8957 0.60343 0.49688 0.0
H656 H 0.86686 0.64297 0.70964 0.0
H657 H 0.94792 0.53166 0.39955 0.0
H658 H 0.996 0.61772 0.70582 0.0
H659 H 0.01037 0.60532 0.51604 0.0
Co660 Co 0.67355 0.34021 0.69535 0.0
C661 C 0.62582 0.35894 0.65143 0.0
C662 C 0.65533 0.38139 0.61504 0.0
C663 C 0.63252 0.39234 0.60084 0.0
N664 N 0.65103 0.36012 0.64587 0.0
N665 N 0.61401 0.37827 0.62469 0.0
H666 H 0.61617 0.34511 0.67823 0.0
H667 H 0.67365 0.38925 0.60685 0.0
C668 C 0.70631 0.34361 0.57326 0.0
O669 O 0.68644 0.34696 0.53924 0.0
N670 N 0.69383 0.31945 0.74742 0.0
C671 C 0.68423 0.3047 0.79141 0.0
C672 C 0.70088 0.28604 0.80461 0.0
C673 C 0.71634 0.30943 0.73468 0.0
N674 N 0.72071 0.2888 0.76782 0.0
C675 C 0.63896 0.29898 0.69581 0.0
C676 C 0.66287 0.26957 0.6111 0.0
C677 C 0.64487 0.25842 0.64881 0.0
C678 C 0.63174 0.274 0.68868 0.0
C679 C 0.66933 0.2948 0.61914 0.0
N680 N 0.65853 0.30897 0.66373 0.0
H681 H 0.62976 0.30963 0.73077 0.0
H682 H 0.6839 0.30212 0.59126 0.0
H683 H 0.66532 0.30575 0.80859 0.0
H684 H 0.72846 0.31559 0.69867 0.0
O685 O 0.65094 0.34628 0.76433 0.0
O686 O 0.68274 0.37036 0.74319 0.0
O687 O 0.70333 0.34073 0.63137 0.0
C688 C 0.66388 0.36578 0.779 0.0
H689 H 0.62979 0.41 0.57797 0.0
H690 H 0.69744 0.27005 0.8334 0.0
H691 H 0.67306 0.25845 0.57828 0.0
H692 H 0.61714 0.26646 0.71741 0.0
Co693 Co 0.92521 0.42259 0.94762 0.0
C694 C 0.90856 0.37529 0.89305 0.0
C695 C 0.88828 0.40578 0.85418 0.0
C696 C 0.87808 0.38357 0.83338 0.0
N697 N 0.90773 0.40059 0.89099 0.0
N698 N 0.89055 0.36439 0.85918 0.0
H699 H 0.9207 0.36482 0.92269 0.0
H700 H 0.88092 0.42426 0.84613 0.0
C701 C 0.92515 0.45639 0.82795 0.0
O702 O 0.92787 0.43642 0.79403 0.0
N703 N 0.94316 0.44256 1.00688 0.0
C704 C 0.95156 0.43446 0.06144 0.0
C705 C 0.96977 0.45036 0.08229 0.0
C706 C 0.95642 0.46339 0.99598 0.0
N707 N 0.97293 0.46824 0.04045 0.0
C708 C 0.96698 0.38836 0.94459 0.0
C709 C 0.99953 0.4179 0.87951 0.0
C710 C 0.00915 0.39665 0.90844 0.0
C711 C 0.99212 0.3811 0.93848 0.0
C712 C 0.97414 0.42424 0.88573 0.0
N713 N 0.95811 0.41002 0.91949 0.0
H714 H 0.95517 0.37706 0.97301 0.0
H715 H 0.96818 0.44146 0.86651 0.0
H716 H 0.94674 0.41698 0.08269 0.0
H717 H 0.9557 0.47363 0.9545 0.0
O718 O 0.91848 0.39787 0.01165 0.0
O719 O 0.89353 0.42923 0.9916 0.0
O720 O 0.92445 0.45363 0.88673 0.0
C721 C 0.89829 0.40998 0.02579 0.0
H722 H 0.8617 0.38166 0.80496 0.0
H723 H 0.98154 0.44759 0.12167 0.0
H724 H 0.0119 0.43041 0.85524 0.0
H725 H 0.99856 0.36426 0.96072 0.0
Co726 Co 0.84053 0.67283 0.19265 0.0
C727 C 0.89007 0.6496 0.16683 0.0
C728 C 0.86841 0.65394 0.08566 0.0
C729 C 0.89216 0.64589 0.07008 0.0
N730 N 0.86699 0.65625 0.14648 0.0
N731 N 0.90576 0.64329 0.12118 0.0
H732 H 0.89591 0.65038 0.2137 0.0
H733 H 0.8537 0.65895 0.05432 0.0
C734 C 0.79768 0.68396 0.09781 0.0
O735 O 0.79681 0.70702 0.11792 0.0
N736 N 0.81542 0.69004 0.24058 0.0
C737 C 0.82085 0.70783 0.28143 0.0
C738 C 0.79933 0.71898 0.29983 0.0
C739 C 0.79015 0.68997 0.23692 0.0
N740 N 0.77975 0.70834 0.27095 0.0
C741 C 0.8698 0.71749 0.20522 0.0
C742 C 0.85624 0.74176 0.10033 0.0
C743 C 0.86921 0.75522 0.14525 0.0
C744 C 0.87682 0.7423 0.19693 0.0
C745 C 0.84942 0.71663 0.11088 0.0
N746 N 0.85419 0.70546 0.16552 0.0
H747 H 0.87627 0.70853 0.24589 0.0
H748 H 0.84033 0.70643 0.07514 0.0
H749 H 0.83928 0.71306 0.29633 0.0
H750 H 0.77984 0.67736 0.20847 0.0
O751 O 0.86057 0.66935 0.26664 0.0
O752 O 0.83344 0.64139 0.23846 0.0
O753 O 0.81469 0.66895 0.11972 0.0
C754 C 0.84996 0.64831 0.27873 0.0
H755 H 0.89918 0.6429 0.02456 0.0
H756 H 0.79851 0.73537 0.3285 0.0
H757 H 0.85114 0.75066 0.05803 0.0
H758 H 0.88778 0.75153 0.23161 0.0
Co759 Co 0.59334 0.59184 0.44426 0.0
C760 C 0.60891 0.64077 0.398 0.0
C761 C 0.62739 0.61165 0.34833 0.0
C762 C 0.63673 0.6345 0.32952 0.0
N763 N 0.61007 0.61567 0.39164 0.0
N764 N 0.62543 0.65273 0.3619 0.0
H765 H 0.59732 0.6501 0.43132 0.0
H766 H 0.63366 0.59345 0.33344 0.0
C767 C 0.5823 0.55178 0.33974 0.0
O768 O 0.55899 0.55896 0.33359 0.0
N769 N 0.57586 0.56888 0.49909 0.0
C770 C 0.57122 0.5734 0.55853 0.0
C771 C 0.54994 0.56112 0.57582 0.0
C772 C 0.55794 0.55233 0.48304 0.0
N773 N 0.5414 0.54801 0.52819 0.0
C774 C 0.54449 0.61223 0.46073 0.0
C775 C 0.53061 0.61834 0.34134 0.0
C776 C 0.51249 0.6225 0.38688 0.0
C777 C 0.52029 0.62028 0.44724 0.0
C778 C 0.55471 0.60949 0.35708 0.0
N779 N 0.56075 0.60478 0.41632 0.0
H780 H 0.54988 0.61147 0.5077 0.0
H781 H 0.5683 0.60608 0.32164 0.0
H782 H 0.58028 0.58727 0.58623 0.0
H783 H 0.55514 0.5456 0.43778 0.0
O784 O 0.59826 0.61544 0.5117 0.0
O785 O 0.62504 0.5859 0.48863 0.0
O786 O 0.59678 0.56305 0.37851 0.0
C787 C 0.61928 0.60446 0.52437 0.0
H788 H 0.65165 0.63742 0.29708 0.0
H789 H 0.54032 0.56333 0.61875 0.0
H790 H 0.52602 0.62135 0.29408 0.0
H791 H 0.50756 0.62438 0.4842 0.0
Co792 Co 0.34323 0.33774 0.1959 0.0
C793 C 0.38772 0.3663 0.1529 0.0
C794 C 0.37373 0.34235 0.08339 0.0
C795 C 0.39707 0.35086 0.06617 0.0
N796 N 0.3681 0.35128 0.1391 0.0
N797 N 0.40593 0.36559 0.11056 0.0
H798 H 0.38925 0.37721 0.19348 0.0
H799 H 0.36248 0.32944 0.05785 0.0
C800 C 0.29794 0.32624 0.10271 0.0
O801 O 0.29616 0.30297 0.12086 0.0
N802 N 0.31974 0.32404 0.25483 0.0
C803 C 0.32669 0.31214 0.30631 0.0
C804 C 0.30756 0.29708 0.32547 0.0
C805 C 0.29564 0.31754 0.24703 0.0
N806 N 0.28845 0.29982 0.28655 0.0
C807 C 0.3697 0.29166 0.21715 0.0
C808 C 0.35338 0.26397 0.12 0.0
C809 C 0.36753 0.25187 0.16516 0.0
C810 C 0.37656 0.26654 0.21259 0.0
C811 C 0.34761 0.28962 0.12528 0.0
N812 N 0.35425 0.30303 0.1757 0.0
H813 H 0.37679 0.30154 0.25579 0.0
H814 H 0.33802 0.29835 0.08828 0.0
H815 H 0.34531 0.31185 0.32513 0.0
H816 H 0.28379 0.32408 0.21117 0.0
O817 O 0.36671 0.34285 0.26306 0.0
O818 O 0.33957 0.371 0.23636 0.0
O819 O 0.31503 0.34068 0.12683 0.0
C820 C 0.35717 0.36441 0.27436 0.0
H821 H 0.40733 0.34552 0.02584 0.0
H822 H 0.30895 0.2826 0.35954 0.0
H823 H 0.34685 0.25367 0.08083 0.0
H824 H 0.3884 0.25843 0.24724 0.0
Co825 Co 0.42273 0.58877 0.95004 0.0
C826 C 0.41032 0.63771 0.89894 0.0
C827 C 0.3867 0.60967 0.86019 0.0
C828 C 0.37805 0.63295 0.84264 0.0
N829 N 0.40714 0.61266 0.89512 0.0
N830 N 0.39247 0.65066 0.86868 0.0
H831 H 0.424 0.64638 0.92838 0.0
H832 H 0.37753 0.59203 0.85193 0.0
C833 C 0.41961 0.5545 0.82983 0.0
O834 O 0.41842 0.57383 0.79339 0.0
N835 N 0.4392 0.56616 1.00583 0.0
C836 C 0.43945 0.56629 0.06725 0.0
C837 C 0.45872 0.55132 0.08731 0.0
C838 C 0.45861 0.5515 0.9898 0.0
N839 N 0.47061 0.54223 0.03829 0.0
C840 C 0.4702 0.6103 0.9724 0.0
C841 C 0.49132 0.60626 0.85867 0.0
C842 C 0.50638 0.61452 0.90707 0.0
C843 C 0.49515 0.61707 0.964 0.0
C844 C 0.46628 0.59916 0.86934 0.0
N845 N 0.45618 0.60057 0.92625 0.0
H846 H 0.46248 0.61177 0.0175 0.0
H847 H 0.45542 0.5924 0.83202 0.0
H848 H 0.42797 0.57784 0.09608 0.0
H849 H 0.46512 0.54924 0.94363 0.0
O850 O 0.41676 0.61264 0.01631 0.0
O851 O 0.39016 0.58337 0.99138 0.0
O852 O 0.42176 0.55858 0.88773 0.0
C853 C 0.39545 0.60201 0.02727 0.0
H854 H 0.36119 0.63661 0.81697 0.0
H855 H 0.46434 0.54827 0.13388 0.0
H856 H 0.49908 0.60459 0.81346 0.0
H857 H 0.50586 0.62358 1.00257 0.0
Co858 Co 0.17296 0.67171 0.69813 0.0
C859 C 0.12538 0.65356 0.64882 0.0
C860 C 0.15514 0.62922 0.62145 0.0
C861 C 0.13246 0.61854 0.60527 0.0
N862 N 0.15073 0.65147 0.64792 0.0
N863 N 0.11373 0.63381 0.62315 0.0
H864 H 0.11546 0.66838 0.67184 0.0
H865 H 0.17337 0.62056 0.61781 0.0
C866 C 0.20577 0.66756 0.57649 0.0
O867 O 0.18636 0.66095 0.54382 0.0
N868 N 0.19284 0.69314 0.75081 0.0
C869 C 0.18265 0.70545 0.79837 0.0
C870 C 0.19612 0.72656 0.80998 0.0
C871 C 0.21316 0.70693 0.73566 0.0
N872 N 0.21519 0.72772 0.77031 0.0
C873 C 0.13851 0.71249 0.70645 0.0
C874 C 0.15809 0.74158 0.61512 0.0
C875 C 0.14207 0.75271 0.65787 0.0
C876 C 0.13131 0.73749 0.70201 0.0
C877 C 0.16489 0.71627 0.62128 0.0
N878 N 0.15646 0.70246 0.66922 0.0
H879 H 0.1308 0.70184 0.74338 0.0
H880 H 0.17802 0.70854 0.58956 0.0
H881 H 0.16496 0.70111 0.8195 0.0
H882 H 0.22493 0.70327 0.69691 0.0
O883 O 0.15074 0.66397 0.76684 0.0
O884 O 0.18373 0.64168 0.7441 0.0
O885 O 0.20246 0.6728 0.63356 0.0
C886 C 0.16478 0.64512 0.78041 0.0
H887 H 0.12986 0.60026 0.58538 0.0
H888 H 0.1912 0.74101 0.84223 0.0
H889 H 0.16637 0.75268 0.57934 0.0
H890 H 0.11847 0.74522 0.73513 0.0
Co891 Co 0.09231 0.42387 0.44724 0.0
C892 C 0.10519 0.37504 0.39203 0.0
C893 C 0.13097 0.40358 0.36531 0.0
C894 C 0.14009 0.38084 0.34574 0.0
N895 N 0.10883 0.40009 0.39346 0.0
N896 N 0.12403 0.36288 0.36328 0.0
H897 H 0.09018 0.36573 0.41598 0.0
H898 H 0.14078 0.42119 0.3633 0.0
C899 C 0.09781 0.45662 0.32589 0.0
O900 O 0.10271 0.43709 0.29196 0.0
N901 N 0.07586 0.44703 0.50142 0.0
C902 C 0.07496 0.4479 0.56278 0.0
C903 C 0.05628 0.46428 0.58005 0.0
C904 C 0.05785 0.46269 0.48278 0.0
N905 N 0.04571 0.47325 0.52923 0.0
C906 C 0.04411 0.4034 0.46585 0.0
C907 C 0.02444 0.40823 0.35084 0.0
C908 C 0.009 0.39922 0.39772 0.0
C909 C 0.01932 0.39657 0.45539 0.0
C910 C 0.04953 0.41482 0.36327 0.0
N911 N 0.05895 0.41282 0.42074 0.0
H912 H 0.05107 0.40192 0.5116 0.0
H913 H 0.061 0.42169 0.3269 0.0
H914 H 0.08561 0.4363 0.5933 0.0
H915 H 0.05203 0.46457 0.4364 0.0
O916 O 0.096 0.39993 0.51354 0.0
O917 O 0.12426 0.42802 0.49292 0.0
O918 O 0.09383 0.45359 0.38367 0.0
C919 C 0.11741 0.40944 0.5277 0.0
H920 H 0.15813 0.3775 0.32491 0.0
H921 H 0.04993 0.46808 0.62577 0.0
H922 H 0.01713 0.41033 0.30534 0.0
H923 H 1.00808 0.38972 0.49273 0.0
Co924 Co 0.33968 0.67001 0.32932 0.0
C925 C 0.39121 0.65783 0.36274 0.0
C926 C 0.3658 0.63253 0.40628 0.0
C927 C 0.39013 0.62447 0.4163 0.0
N928 N 0.36657 0.65353 0.37283 0.0
N929 N 0.406 0.64044 0.38873 0.0
H930 H 0.3982 0.67248 0.33361 0.0
H931 H 0.34884 0.62292 0.41918 0.0
C932 C 0.29794 0.6813 0.42598 0.0
O933 O 0.29774 0.70445 0.40648 0.0
N934 N 0.31421 0.68714 0.28217 0.0
C935 C 0.31952 0.70385 0.23858 0.0
C936 C 0.29813 0.71538 0.22093 0.0
C937 C 0.289 0.68797 0.28792 0.0
N938 N 0.27869 0.70601 0.25277 0.0
C939 C 0.36704 0.71576 0.31617 0.0
C940 C 0.35743 0.73675 0.42782 0.0
C941 C 0.36894 0.7514 0.38284 0.0
C942 C 0.37458 0.74019 0.32749 0.0
C943 C 0.35025 0.71199 0.41438 0.0
N944 N 0.35306 0.70252 0.35706 0.0
H945 H 0.3724 0.7078 0.27332 0.0
H946 H 0.34234 0.70071 0.44997 0.0
H947 H 0.33779 0.70795 0.22069 0.0
H948 H 0.27866 0.67606 0.31803 0.0
O949 O 0.35968 0.66662 0.25518 0.0
O950 O 0.33253 0.6386 0.28428 0.0
O951 O 0.31442 0.66592 0.40323 0.0
C952 C 0.34914 0.64542 0.2441 0.0
H953 H 0.3957 0.60755 0.43943 0.0
H954 H 0.29742 0.73115 0.19032 0.0
H955 H 0.35384 0.74441 0.47244 0.0
H956 H 0.38446 0.75043 0.29254 0.0
Co957 Co 0.09512 0.58948 0.07634 0.0
C958 C 0.11053 0.63993 0.11356 0.0
C959 C 0.12304 0.61293 0.17869 0.0
C960 C 0.13164 0.63625 0.19579 0.0
N961 N 0.10986 0.61528 0.12691 0.0
N962 N 0.12404 0.65309 0.15416 0.0
H963 H 0.10204 0.6481 0.07371 0.0
H964 H 0.12682 0.5955 0.20156 0.0
C965 C 0.08228 0.54843 0.17711 0.0
O966 O 0.05848 0.54935 0.16293 0.0
N967 N 0.07986 0.56482 0.02258 0.0
C968 C 0.06804 0.57058 0.97007 0.0
C969 C 0.05163 0.55194 0.95541 0.0
C970 C 0.07191 0.54155 0.03555 0.0
N971 N 0.05373 0.53405 0.99754 0.0
C972 C 0.04829 0.61402 0.05351 0.0
C973 C 0.02567 0.60741 0.16462 0.0
C974 C 0.01135 0.61731 0.11665 0.0
C975 C 0.02349 0.62164 0.0616 0.0
C976 C 0.05102 0.6008 0.15499 0.0
N977 N 0.06141 0.60208 0.09829 0.0
H978 H 0.05672 0.61776 1.01023 0.0
H979 H 0.06202 0.59436 0.19291 0.0
H980 H 0.06935 0.5881 0.94627 0.0
H981 H 0.07783 0.5306 0.07363 0.0
O982 O 0.10086 0.61091 1.00532 0.0
O983 O 0.12801 0.58324 0.037 0.0
O984 O 0.09777 0.56319 0.14875 0.0
C985 C 0.12231 0.60027 0.99704 0.0
H986 H 0.1434 0.6404 0.23444 0.0
H987 H 0.03747 0.5526 0.92036 0.0
H988 H 0.01736 0.60487 0.209 0.0
H989 H 0.01357 0.63022 0.02418 0.0
Co990 Co 0.17212 0.33998 0.83301 0.0
C991 C 0.12764 0.35944 0.89284 0.0
C992 C 0.15777 0.38543 0.9017 0.0
C993 C 0.13559 0.39722 0.9177 0.0
N994 N 0.15274 0.36162 0.88607 0.0
N995 N 0.11673 0.38074 0.91157 0.0
H996 H 0.11693 0.34358 0.87803 0.0
H997 H 0.17577 0.39432 0.89595 0.0
C998 C 0.20754 0.34357 0.94868 0.0
O999 O 0.18806 0.3487 0.98286 0.0
N1000 N 0.18893 0.3175 0.77793 0.0
C1001 C 0.1765 0.30278 0.73826 0.0
C1002 C 0.19189 0.28406 0.71871 0.0
C1003 C 0.21186 0.30721 0.78241 0.0
N1004 N 0.21386 0.28672 0.74722 0.0
C1005 C 0.13562 0.30089 0.84291 0.0
C1006 C 0.16229 0.27001 0.91911 0.0
C1007 C 0.14207 0.26002 0.88677 0.0
C1008 C 0.12779 0.27624 0.85124 0.0
C1009 C 0.16934 0.29499 0.91009 0.0
N1010 N 0.15691 0.30991 0.86969 0.0
H1011 H 0.12539 0.31202 0.81067 0.0
H1012 H 0.1857 0.30138 0.93303 0.0
H1013 H 0.15687 0.30433 0.72729 0.0
H1014 H 0.22612 0.31325 0.8137 0.0
O1015 O 0.14733 0.34668 0.76877 0.0
O1016 O 0.18113 0.36897 0.78069 0.0
O1017 O 0.20387 0.33959 0.89111 0.0
C1018 C 0.16086 0.36503 0.74925 0.0
H1019 H 0.13323 0.41682 0.92805 0.0
H1020 H 0.1867 0.26836 0.69048 0.0
H1021 H 0.17359 0.25817 0.94799 0.0
H1022 H 0.11175 0.26939 0.8263 0.0
Co1023 Co 0.42417 0.42448 0.57428 0.0
C1024 C 0.41089 0.37222 0.59988 0.0
C1025 C 0.391 0.39706 0.65931 0.0
C1026 C 0.38262 0.37297 0.66906 0.0
N1027 N 0.40878 0.39654 0.616 0.0
N1028 N 0.39509 0.35745 0.63142 0.0
H1029 H 0.42303 0.36552 0.56406 0.0
H1030 H 0.38381 0.41382 0.68037 0.0
C1031 C 0.43347 0.46351 0.67834 0.0
O1032 O 0.4572 0.46364 0.66299 0.0
N1033 N 0.43994 0.45173 0.52972 0.0
C1034 C 0.45615 0.44889 0.48329 0.0
C1035 C 0.46708 0.47124 0.4705 0.0
C1036 C 0.44039 0.47647 0.54195 0.0
N1037 N 0.45757 0.48862 0.50802 0.0
C1038 C 0.47229 0.40202 0.55678 0.0
C1039 C 0.49116 0.40613 0.6724 0.0
C1040 C 0.50741 0.3988 0.62518 0.0
C1041 C 0.49726 0.39608 0.56732 0.0
C1042 C 0.466 0.41241 0.65925 0.0
N1043 N 0.45745 0.41241 0.6007 0.0
H1044 H 0.46514 0.39819 0.51229 0.0
H1045 H 0.45364 0.41752 0.69598 0.0
H1046 H 0.46072 0.43168 0.46081 0.0
H1047 H 0.42874 0.48541 0.57526 0.0
O1048 O 0.42211 0.40537 0.49883 0.0
O1049 O 0.39234 0.43035 0.52917 0.0
O1050 O 0.41859 0.44812 0.65033 0.0
C1051 C 0.40019 0.41455 0.48816 0.0
H1052 H 0.36781 0.36737 0.69968 0.0
H1053 H 0.48242 0.47412 0.43913 0.0
H1054 H 0.4979 0.40722 0.71862 0.0
H1055 H 0.50861 0.38923 0.53009 0.0
C1056 C 0.15796 0.12397 0.07921 0.0
C1057 C 0.13797 0.10663 0.08349 0.0
C1058 C 0.13816 0.11157 0.19506 0.0
C1059 C 0.15724 0.12991 0.19067 0.0
N1060 N 0.19067 0.14725 0.13115 0.0
N1061 N 0.11582 0.07755 0.14619 0.0
C1062 C 0.16882 0.13415 0.13339 0.0
C1063 C 0.13006 0.09857 0.14179 0.0
N1064 N 0.16628 0.13104 0.02327 0.0
N1065 N 0.12771 0.10658 0.25022 0.0
H1066 H 0.11195 0.06654 0.10837 0.0
H1067 H 0.11062 0.0694 0.18714 0.0
H1068 H 0.13496 0.11373 0.29047 0.0
H1069 H 0.11154 0.09601 0.25585 0.0
H1070 H 0.17856 0.1458 0.01607 0.0
H1071 H 0.15978 0.12277 0.98349 0.0
H1072 H 0.2012 0.14965 0.09186 0.0
H1073 H 0.19971 0.15341 0.17025 0.0
C1074 C 0.11804 0.90241 0.38308 0.0
C1075 C 0.13207 0.90389 0.43734 0.0
C1076 C 0.1686 0.88765 0.37956 0.0
C1077 C 0.15298 0.88199 0.3287 0.0
N1078 N 0.11064 0.88053 0.28974 0.0
N1079 N 0.17102 0.89601 0.48838 0.0
C1080 C 0.1271 0.88832 0.33289 0.0
C1081 C 0.1576 0.89628 0.43574 0.0
N1082 N 0.0964 0.91572 0.378 0.0
N1083 N 0.19386 0.88438 0.37501 0.0
H1084 H 0.16368 0.90231 0.52948 0.0
H1085 H 0.1887 0.88799 0.49218 0.0
H1086 H 0.20249 0.87744 0.33614 0.0
H1087 H 0.20641 0.89038 0.40801 0.0
H1088 H 0.08619 0.91697 0.33783 0.0
H1089 H 0.09099 0.92846 0.41113 0.0
H1090 H 0.09129 0.88183 0.29513 0.0
H1091 H 0.1161 0.87147 0.25041 0.0
C1092 C 0.37706 0.90205 0.69275 0.0
C1093 C 0.36026 0.88159 0.68784 0.0
C1094 C 0.36408 0.88381 0.57588 0.0
C1095 C 0.38147 0.90376 0.58084 0.0
N1096 N 0.39899 0.93617 0.64267 0.0
N1097 N 0.33307 0.85721 0.62466 0.0
C1098 C 0.38624 0.91417 0.63903 0.0
C1099 C 0.35238 0.87377 0.62922 0.0
N1100 N 0.38496 0.90938 0.74886 0.0
N1101 N 0.35913 0.87408 0.51999 0.0
H1102 H 0.32364 0.85045 0.66264 0.0
H1103 H 0.32477 0.85205 0.58388 0.0
H1104 H 0.36539 0.88249 0.48019 0.0
H1105 H 0.34958 0.85741 0.51315 0.0
H1106 H 0.39953 0.9219 0.75588 0.0
H1107 H 0.37761 0.90194 0.78875 0.0
H1108 H 0.40157 0.94608 0.68278 0.0
H1109 H 0.40468 0.94588 0.6041 0.0
C1110 C 0.37373 0.14723 0.87831 0.0
C1111 C 0.36393 0.13281 0.83039 0.0
C1112 C 0.37884 0.09566 0.88798 0.0
C1113 C 0.39222 0.11134 0.92986 0.0
N1114 N 0.41111 0.15291 0.93492 0.0
N1115 N 0.3606 0.09167 0.78671 0.0
C1116 C 0.39248 0.13734 0.91628 0.0
C1117 C 0.36718 0.10642 0.83451 0.0
N1118 N 0.36441 0.17033 0.88967 0.0
N1119 N 0.37826 0.07049 0.89679 0.0
H1120 H 0.35234 0.09868 0.74754 0.0
H1121 H 0.36505 0.07278 0.78409 0.0
H1122 H 0.3893 0.06139 0.9287 0.0
H1123 H 0.36632 0.05872 0.87285 0.0
H1124 H 0.371 0.18158 0.92471 0.0
H1125 H 0.34736 0.17566 0.87118 0.0
H1126 H 0.41169 0.1715 0.9208 0.0
H1127 H 0.42755 0.1472 0.95565 0.0
C1128 C 0.87511 0.90493 0.83201 0.0
C1129 C 0.85922 0.8838 0.83596 0.0
C1130 C 0.86451 0.88401 0.94724 0.0
C1131 C 0.88079 0.90485 0.94345 0.0
N1132 N 0.89244 0.9408 0.88471 0.0
N1133 N 0.83071 0.86119 0.89946 0.0
C1134 C 0.88333 0.91709 0.88649 0.0
C1135 C 0.85157 0.8756 0.89432 0.0
N1136 N 0.88284 0.91315 0.77652 0.0
N1137 N 0.86118 0.8723 1.00146 0.0
H1138 H 0.81909 0.85807 0.86232 0.0
H1139 H 0.82308 0.85574 0.94088 0.0
H1140 H 0.86842 0.8794 0.04173 0.0
H1141 H 0.85209 0.8552 1.00564 0.0
H1142 H 0.89662 0.9267 0.77103 0.0
H1143 H 0.87641 0.90534 0.73609 0.0
H1144 H 0.89315 0.95144 0.8452 0.0
H1145 H 0.89631 0.95075 0.92427 0.0
C1146 C 0.85077 0.12955 0.63615 0.0
C1147 C 0.86434 0.12862 0.69158 0.0
C1148 C 0.89678 0.10362 0.63938 0.0
C1149 C 0.88569 0.10887 0.58214 0.0
N1150 N 0.85177 0.12706 0.52587 0.0
N1151 N 0.89982 0.11325 0.74701 0.0
C1152 C 0.8624 0.12167 0.58059 0.0
C1153 C 0.88721 0.11511 0.69341 0.0
N1154 N 0.82647 0.13738 0.63699 0.0
N1155 N 0.91581 0.08667 0.64233 0.0
H1156 H 0.89191 0.11884 0.78805 0.0
H1157 H 0.91812 0.10677 0.75061 0.0
H1158 H 0.9216 0.07659 0.60443 0.0
H1159 H 0.92376 0.08046 0.68268 0.0
H1160 H 0.81475 0.13682 0.59933 0.0
H1161 H 0.81726 0.14183 0.6773 0.0
H1162 H 0.8364 0.13883 0.52093 0.0
H1163 H 0.85928 0.12079 0.48489 0.0
C1164 C 0.66771 0.13607 0.38646 0.0
C1165 C 0.65794 0.13065 0.32783 0.0
C1166 C 0.62758 0.10166 0.37522 0.0
C1167 C 0.63595 0.10873 0.43413 0.0
N1168 N 0.66818 0.12719 0.49498 0.0
N1169 N 0.63274 0.10409 0.26516 0.0
C1170 C 0.65731 0.12434 0.43938 0.0
C1171 C 0.63906 0.11214 0.32195 0.0
N1172 N 0.68693 0.15267 0.39146 0.0
N1173 N 0.60876 0.08459 0.37053 0.0
H1174 H 0.64191 0.1104 0.22635 0.0
H1175 H 0.61995 0.08999 0.25608 0.0
H1176 H 0.60271 0.07423 0.40768 0.0
H1177 H 0.59931 0.08042 0.33062 0.0
H1178 H 0.69287 0.16045 0.4322 0.0
H1179 H 0.6969 0.15892 0.35382 0.0
H1180 H 0.68484 0.13666 0.5026 0.0
H1181 H 0.66136 0.11826 0.53352 0.0
C1182 C 0.63037 0.89413 0.19223 0.0
C1183 C 0.65541 0.88508 0.19429 0.0
C1184 C 0.66008 0.89838 0.08664 0.0
C1185 C 0.6355 0.90867 0.08691 0.0
N1186 N 0.60203 0.92432 0.14887 0.0
N1187 N 0.69576 0.88344 0.14523 0.0
C1188 C 0.62214 0.90889 0.14244 0.0
C1189 C 0.67087 0.88899 0.14221 0.0
N1190 N 0.61389 0.88828 0.23714 0.0
N1191 N 0.67265 0.89624 0.03298 0.0
H1192 H 0.70413 0.87632 0.18422 0.0
H1193 H 0.70841 0.8879 0.11098 0.0
H1194 H 0.66546 0.9029 0.99213 0.0
H1195 H 0.6893 0.8863 0.02827 0.0
H1196 H 0.59472 0.89161 0.23367 0.0
H1197 H 0.61908 0.87863 0.27581 0.0
H1198 H 0.59255 0.92678 0.1898 0.0
H1199 H 0.59745 0.93732 0.11569 0.0
C1200 C 0.64704 0.63619 0.57831 0.0
C1201 C 0.63492 0.61257 0.57853 0.0
C1202 C 0.64484 0.60884 0.68827 0.0
C1203 C 0.65604 0.63288 0.68775 0.0
N1204 N 0.67685 0.66364 0.62732 0.0
N1205 N 0.62845 0.5736 0.63049 0.0
C1206 C 0.6597 0.6449 0.63125 0.0
C1207 C 0.63587 0.59794 0.63256 0.0
N1208 N 0.6467 0.6504 0.52715 0.0
N1209 N 0.64237 0.59665 0.74223 0.0
H1210 H 0.62229 0.56512 0.59068 0.0
H1211 H 0.6304 0.56118 0.66641 0.0
H1212 H 0.64982 0.60364 0.78251 0.0
H1213 H 0.63228 0.58022 0.74764 0.0
H1214 H 0.65197 0.6691 0.52624 0.0
H1215 H 0.64031 0.64349 0.48605 0.0
H1216 H 0.68195 0.6722 0.58677 0.0
H1217 H 0.68859 0.66791 0.66352 0.0
C1218 C 0.65755 0.36653 0.89195 0.0
C1219 C 0.6581 0.38002 0.83702 0.0
C1220 C 0.64036 0.41614 0.89347 0.0
C1221 C 0.6357 0.40068 0.94512 0.0
N1222 N 0.6351 0.35841 0.98379 0.0
N1223 N 0.6492 0.41829 0.78462 0.0
C1224 C 0.64288 0.37512 0.94142 0.0
C1225 C 0.64955 0.4052 0.83766 0.0
N1226 N 0.67232 0.34598 0.89837 0.0
N1227 N 0.63535 0.44107 0.89701 0.0
H1228 H 0.65622 0.41096 0.74418 0.0
H1229 H 0.64077 0.43569 0.7799 0.0
H1230 H 0.62768 0.44934 0.9356 0.0
H1231 H 0.64033 0.45377 0.86343 0.0
H1232 H 0.67389 0.33616 0.93902 0.0
H1233 H 0.68586 0.34159 0.86612 0.0
H1234 H 0.63724 0.33919 0.97823 0.0
H1235 H 0.62498 0.36348 0.02189 0.0
C1236 C 0.86748 0.38053 0.07727 0.0
C1237 C 0.88248 0.40236 0.07989 0.0
C1238 C 0.87374 0.40464 0.19047 0.0
C1239 C 0.85804 0.38333 0.1865 0.0
N1240 N 0.83272 0.35803 0.12131 0.0
N1241 N 0.8952 0.43836 0.13763 0.0
C1242 C 0.8528 0.37337 0.12839 0.0
C1243 C 0.88399 0.41551 0.13609 0.0
N1244 N 0.86753 0.36612 0.0264 0.0
N1245 N 0.87963 0.41397 0.24624 0.0
H1246 H 0.90257 0.44681 0.099 0.0
H1247 H 0.89514 0.44986 0.17572 0.0
H1248 H 0.87172 0.40702 0.28607 0.0
H1249 H 0.89322 0.42757 0.25316 0.0
H1250 H 0.85953 0.34841 0.02513 0.0
H1251 H 0.87725 0.37108 0.98739 0.0
H1252 H 0.82681 0.35136 0.07927 0.0
H1253 H 0.81997 0.35528 0.15644 0.0
C1254 C 0.86067 0.64912 0.39028 0.0
C1255 C 0.85649 0.63462 0.33743 0.0
C1256 C 0.87039 0.59783 0.3973 0.0
C1257 C 0.87982 0.61358 0.44449 0.0
N1258 N 0.88631 0.65614 0.47779 0.0
N1259 N 0.85989 0.5942 0.29006 0.0
C1260 C 0.87574 0.63974 0.43831 0.0
C1261 C 0.86177 0.60858 0.3409 0.0
N1262 N 0.84904 0.67162 0.39641 0.0
N1263 N 0.86954 0.57265 0.4058 0.0
H1264 H 0.85396 0.60124 0.24846 0.0
H1265 H 0.86615 0.5758 0.28816 0.0
H1266 H 0.8751 0.56417 0.44607 0.0
H1267 H 0.86093 0.56053 0.37532 0.0
H1268 H 0.84979 0.68224 0.43602 0.0
H1269 H 0.83559 0.67753 0.36559 0.0
H1270 H 0.88624 0.67539 0.47085 0.0
H1271 H 0.89654 0.65049 0.51499 0.0
C1272 C 0.36084 0.39869 0.43014 0.0
C1273 C 0.38625 0.40682 0.43086 0.0
C1274 C 0.39267 0.3857 0.33311 0.0
C1275 C 0.36668 0.38 0.32744 0.0
N1276 N 0.32531 0.38407 0.37064 0.0
N1277 N 0.4218 0.41664 0.36852 0.0
C1278 C 0.35047 0.38784 0.37558 0.0
C1279 C 0.4006 0.40308 0.37762 0.0
N1280 N 0.347 0.39979 0.48209 0.0
N1281 N 0.41042 0.37385 0.29905 0.0
H1282 H 0.42641 0.43143 0.39694 0.0
H1283 H 0.43219 0.41567 0.3285 0.0
H1284 H 0.40675 0.35884 0.27075 0.0
H1285 H 0.42952 0.37672 0.30564 0.0
H1286 H 0.32947 0.39151 0.4865 0.0
H1287 H 0.3538 0.40734 0.52235 0.0
H1288 H 0.31238 0.39161 0.40096 0.0
H1289 H 0.3172 0.37475 0.33414 0.0
C1290 C 0.37018 0.63591 0.08089 0.0
C1291 C 0.37898 0.61084 0.07948 0.0
C1292 C 0.36478 0.60635 0.18644 0.0
C1293 C 0.35555 0.63127 0.18638 0.0
N1294 N 0.34066 0.66498 0.12461 0.0
N1295 N 0.3784 0.57036 0.12745 0.0
C1296 C 0.35569 0.64459 0.13088 0.0
C1297 C 0.3741 0.59541 0.13102 0.0
N1298 N 0.37568 0.65181 0.03462 0.0
N1299 N 0.36586 0.59347 0.23975 0.0
H1300 H 0.38512 0.56175 0.08833 0.0
H1301 H 0.37312 0.55785 0.16124 0.0
H1302 H 0.35907 0.60068 0.28048 0.0
H1303 H 0.37511 0.57647 0.24443 0.0
H1304 H 0.37264 0.671 0.03707 0.0
H1305 H 0.38452 0.64599 0.99526 0.0
H1306 H 0.33834 0.67452 0.08382 0.0
H1307 H 0.3277 0.66978 0.15784 0.0
C1308 C 0.13637 0.59554 0.8869 0.0
C1309 C 0.13882 0.60771 0.94408 0.0
C1310 C 0.16514 0.63987 0.89491 0.0
C1311 C 0.15967 0.62977 0.83687 0.0
N1312 N 0.14691 0.59418 0.779 0.0
N1313 N 0.15688 0.64062 1.00341 0.0
C1314 C 0.14732 0.60638 0.83333 0.0
C1315 C 0.15384 0.62952 0.94823 0.0
N1316 N 0.12275 0.57405 0.88368 0.0
N1317 N 0.18253 0.65841 0.89913 0.0
H1318 H 0.15133 0.63197 0.04349 0.0
H1319 H 0.16428 0.65839 1.00939 0.0
H1320 H 0.19279 0.66428 0.86156 0.0
H1321 H 0.18895 0.66586 0.9398 0.0
H1322 H 0.11733 0.56556 0.84337 0.0
H1323 H 0.11642 0.56481 0.92235 0.0
H1324 H 0.14019 0.57615 0.773 0.0
H1325 H 0.15507 0.60161 0.74 0.0
C1326 C 0.14842 0.40439 0.68766 0.0
C1327 C 0.15422 0.3785 0.6905 0.0
C1328 C 0.13603 0.37332 0.58872 0.0
C1329 C 0.13194 0.3995 0.58232 0.0
N1330 N 0.1382 0.44056 0.62542 0.0
N1331 N 0.16341 0.34221 0.63122 0.0
C1332 C 0.13965 0.41527 0.63146 0.0
C1333 C 0.15077 0.36412 0.63746 0.0
N1334 N 0.15024 0.41842 0.73912 0.0
N1335 N 0.12583 0.3567 0.54901 0.0
H1336 H 0.17781 0.33762 0.66088 0.0
H1337 H 0.16275 0.33133 0.59206 0.0
H1338 H 0.11652 0.36174 0.50962 0.0
H1339 H 0.12579 0.33754 0.5573 0.0
H1340 H 0.14356 0.43662 0.74252 0.0
H1341 H 0.15697 0.41115 0.77985 0.0
H1342 H 0.14581 0.45295 0.65676 0.0
H1343 H 0.13099 0.44928 0.58706 0.0
C1344 C 0.12848 0.29579 0.31018 0.0
C1345 C 0.13908 0.2839 0.36218 0.0
C1346 C 0.14316 0.32518 0.40982 0.0
C1347 C 0.12894 0.33624 0.36287 0.0
N1348 N 0.10562 0.33157 0.27076 0.0
N1349 N 0.1506 0.28776 0.46788 0.0
C1350 C 0.12064 0.32128 0.31404 0.0
C1351 C 0.14471 0.29876 0.4139 0.0
N1352 N 0.12761 0.28356 0.25587 0.0
N1353 N 0.15616 0.33984 0.44918 0.0
H1354 H 0.1503 0.26848 0.47414 0.0
H1355 H 0.15292 0.29791 0.50783 0.0
H1356 H 0.1556 0.35927 0.44748 0.0
H1357 H 0.16906 0.33259 0.47994 0.0
H1358 H 0.12215 0.29214 0.21561 0.0
H1359 H 0.13506 0.26579 0.24939 0.0
H1360 H 0.09695 0.32109 0.23699 0.0
H1361 H 0.1004 0.35034 0.27177 0.0
C1362 C 0.94247 0.89679 0.60311 0.0
C1363 C 0.93326 0.87316 0.6213 0.0
C1364 C 0.97603 0.86102 0.6509 0.0
C1365 C 0.98553 0.88365 0.62651 0.0
N1366 N 0.97783 0.91974 0.56368 0.0
N1367 N 0.94234 0.83072 0.64958 0.0
C1368 C 0.96874 0.90062 0.59812 0.0
C1369 C 0.95037 0.85467 0.64169 0.0
N1370 N 0.92617 0.91593 0.59282 0.0
N1371 N 0.9913 0.84587 0.68423 0.0
H1372 H 0.92406 0.82519 0.64014 0.0
H1373 H 0.95437 0.81593 0.65906 0.0
H1374 H 0.01003 0.85006 0.69263 0.0
H1375 H 0.98478 0.83041 0.70807 0.0
H1376 H 0.93202 0.93419 0.58494 0.0
H1377 H 0.90691 0.91411 0.59871 0.0
H1378 H 0.96641 0.93139 0.5379 0.0
H1379 H 0.99687 0.92207 0.55521 0.0
C1380 C 0.36344 0.68642 0.8911 0.0
C1381 C 0.38741 0.67742 0.87284 0.0
C1382 C 0.40226 0.72097 0.87019 0.0
C1383 C 0.37743 0.72996 0.87873 0.0
N1384 N 0.3334 0.72021 0.88607 0.0
N1385 N 0.42847 0.68702 0.83455 0.0
C1386 C 0.35774 0.7124 0.88631 0.0
C1387 C 0.40655 0.69498 0.85982 0.0
N1388 N 0.34635 0.67043 0.91562 0.0
N1389 N 0.42188 0.7372 0.87327 0.0
H1390 H 0.43177 0.6684 0.82345 0.0
H1391 H 0.4422 0.69917 0.81873 0.0
H1392 H 0.41952 0.75614 0.88265 0.0
H1393 H 0.44051 0.73144 0.87294 0.0
H1394 H 0.32965 0.67645 0.93521 0.0
H1395 H 0.35006 0.65162 0.92316 0.0
H1396 H 0.31833 0.7079 0.88478 0.0
H1397 H 0.32817 0.73883 0.8812 0.0
C1398 C 0.55748 0.10016 0.09634 0.0
C1399 C 0.53939 0.11694 0.12069 0.0
C1400 C 0.57232 0.14892 0.12752 0.0
C1401 C 0.59092 0.13116 0.11137 0.0
N1402 N 0.60113 0.08789 0.09462 0.0
N1403 N 0.53156 0.15586 0.17252 0.0
C1404 C 0.58349 0.10617 0.09983 0.0
C1405 C 0.54745 0.14089 0.14037 0.0
N1406 N 0.54997 0.07911 0.06675 0.0
N1407 N 0.57804 0.17372 0.12742 0.0
H1408 H 0.51355 0.15029 0.18473 0.0
H1409 H 0.53722 0.17255 0.19246 0.0
H1410 H 0.59542 0.18036 0.11332 0.0
H1411 H 0.5647 0.18766 0.13396 0.0
H1412 H 0.56235 0.06778 0.04269 0.0
H1413 H 0.5312 0.07453 0.06061 0.0
H1414 H 0.59657 0.06903 0.09158 0.0
H1415 H 0.62018 0.09132 0.10007 0.0
C1416 C 0.11183 0.69785 0.15042 0.0
C1417 C 0.13078 0.67928 0.15013 0.0
C1418 C 0.16289 0.71216 0.14632 0.0
C1419 C 0.1439 0.73064 0.14272 0.0
N1420 N 0.10037 0.74098 0.13064 0.0
N1421 N 0.17415 0.66859 0.13511 0.0
C1422 C 0.11836 0.72339 0.14122 0.0
C1423 C 0.15627 0.6864 0.14446 0.0
N1424 N 0.08772 0.69116 0.1628 0.0
N1425 N 0.18724 0.71915 0.15413 0.0
H1426 H 0.17006 0.64963 0.13274 0.0
H1427 H 0.19261 0.67273 0.1239 0.0
H1428 H 0.19303 0.73773 0.15383 0.0
H1429 H 0.20134 0.70659 0.16546 0.0
H1430 H 0.07332 0.70395 0.16963 0.0
H1431 H 0.08253 0.67279 0.17192 0.0
H1432 H 0.08163 0.73669 0.12318 0.0
H1433 H 0.1046 0.75978 0.12394 0.0
C1434 C 0.55244 0.90761 0.37981 0.0
C1435 C 0.53461 0.8887 0.39285 0.0
C1436 C 0.5693 0.85965 0.4156 0.0
C1437 C 0.58715 0.87794 0.39823 0.0
N1438 N 0.5948 0.91763 0.3496 0.0
N1439 N 0.5263 0.84517 0.41044 0.0
C1440 C 0.57845 0.90144 0.37623 0.0
C1441 C 0.54318 0.86421 0.40664 0.0
N1442 N 0.54475 0.93179 0.37346 0.0
N1443 N 0.57722 0.83844 0.44397 0.0
H1444 H 0.50718 0.84781 0.40337 0.0
H1445 H 0.53149 0.82651 0.41457 0.0
H1446 H 0.59598 0.83501 0.45379 0.0
H1447 H 0.56506 0.8255 0.46322 0.0
H1448 H 0.55709 0.94679 0.37139 0.0
H1449 H 0.52601 0.93718 0.37535 0.0
H1450 H 0.58912 0.93371 0.32692 0.0
H1451 H 0.61374 0.91375 0.34389 0.0
C1452 C 0.40928 0.31328 0.63653 0.0
C1453 C 0.39053 0.33102 0.62234 0.0
C1454 C 0.36079 0.29696 0.60222 0.0
C1455 C 0.37971 0.27907 0.61568 0.0
N1456 N 0.42364 0.27043 0.62807 0.0
N1457 N 0.35101 0.33986 0.57534 0.0
C1458 C 0.40454 0.28737 0.62712 0.0
C1459 C 0.36706 0.32284 0.60006 0.0
N1460 N 0.43121 0.3211 0.66187 0.0
N1461 N 0.33657 0.28953 0.5945 0.0
H1462 H 0.35544 0.35875 0.572 0.0
H1463 H 0.33463 0.33495 0.55279 0.0
H1464 H 0.33108 0.27091 0.5948 0.0
H1465 H 0.3216 0.30194 0.59198 0.0
H1466 H 0.44462 0.30895 0.6792 0.0
H1467 H 0.43505 0.33986 0.67023 0.0
H1468 H 0.44242 0.27545 0.63087 0.0
H1469 H 0.42082 0.25148 0.61967 0.0
C1470 C 0.95365 0.15954 0.88668 0.0
C1471 C 0.93455 0.142 0.90065 0.0
C1472 C 0.96686 0.11078 0.92234 0.0
C1473 C 0.98591 0.1271 0.90123 0.0
N1474 N 0.99684 0.16653 0.85609 0.0
N1475 N 0.9235 0.09877 0.91323 0.0
C1476 C 0.97906 0.1513 0.88059 0.0
C1477 C 0.94132 0.11696 0.91282 0.0
N1478 N 0.94779 0.18428 0.8828 0.0
N1479 N 0.9729 0.09 0.95474 0.0
H1480 H 0.90484 0.10229 0.90238 0.0
H1481 H 0.92787 0.07987 0.91699 0.0
H1482 H 0.99119 0.08586 0.96707 0.0
H1483 H 0.95951 0.07885 0.97587 0.0
H1484 H 0.96115 0.19828 0.87837 0.0
H1485 H 0.92974 0.19102 0.89012 0.0
H1486 H 0.99263 0.18337 0.83487 0.0
H1487 H 0.01563 0.16139 0.85286 0.0
C1488 C 0.8611 0.71446 0.6212 0.0
C1489 C 0.87886 0.73283 0.63896 0.0
C1490 C 0.90922 0.69931 0.66181 0.0
C1491 C 0.89166 0.68109 0.64312 0.0
N1492 N 0.85355 0.67169 0.58991 0.0
N1493 N 0.92189 0.74282 0.66036 0.0
C1494 C 0.8684 0.68883 0.61816 0.0
C1495 C 0.9036 0.72522 0.65427 0.0
N1496 N 0.83688 0.72118 0.60999 0.0
N1497 N 0.93081 0.69185 0.68943 0.0
H1498 H 0.91853 0.7618 0.6535 0.0
H1499 H 0.94073 0.73848 0.66608 0.0
H1500 H 0.93528 0.6731 0.69593 0.0
H1501 H 0.94324 0.70412 0.7101 0.0
H1502 H 0.82244 0.70834 0.60463 0.0
H1503 H 0.83071 0.7396 0.61021 0.0
H1504 H 0.8377 0.67644 0.56501 0.0
H1505 H 0.85852 0.65296 0.58582 0.0
C1506 C 0.04425 0.15229 0.38383 0.0
C1507 C 0.03457 0.12885 0.40256 0.0
C1508 C 0.07755 0.11474 0.42413 0.0
C1509 C 0.08688 0.13892 0.41142 0.0
N1510 N 0.07786 0.18233 0.39415 0.0
N1511 N 0.04189 0.09066 0.45774 0.0
C1512 C 0.06982 0.15818 0.39552 0.0
C1513 C 0.0512 0.11084 0.4276 0.0
N1514 N 0.02928 0.16871 0.35339 0.0
N1515 N 0.09373 0.09522 0.43059 0.0
H1516 H 0.02282 0.08837 0.46574 0.0
H1517 H 0.05316 0.07798 0.48094 0.0
H1518 H 0.11304 0.0972 0.42604 0.0
H1519 H 0.08777 0.07678 0.43421 0.0
H1520 H 0.03602 0.18502 0.3336 0.0
H1521 H 0.01065 0.16487 0.34291 0.0
H1522 H 0.06588 0.19745 0.38789 0.0
H1523 H 0.09602 0.18737 0.40631 0.0
C1524 C 0.64826 0.32591 0.12107 0.0
C1525 C 0.63017 0.3348 0.16276 0.0
C1526 C 0.62798 0.29282 0.20729 0.0
C1527 C 0.64307 0.28309 0.15922 0.0
N1528 N 0.66246 0.29072 0.06177 0.0
N1529 N 0.60055 0.32624 0.24168 0.0
C1530 C 0.65179 0.29976 0.11364 0.0
C1531 C 0.61919 0.318 0.20439 0.0
N1532 N 0.66279 0.34242 0.08998 0.0
N1533 N 0.62343 0.27874 0.25772 0.0
H1534 H 0.59443 0.34474 0.2415 0.0
H1535 H 0.59001 0.31436 0.26899 0.0
H1536 H 0.6311 0.26106 0.26417 0.0
H1537 H 0.61445 0.28569 0.29614 0.0
H1538 H 0.67802 0.3369 0.06359 0.0
H1539 H 0.66077 0.36169 0.09446 0.0
H1540 H 0.66718 0.30211 0.02522 0.0
H1541 H 0.66394 0.2717 0.05249 0.0
C1542 C 0.45414 0.85961 0.88849 0.0
C1543 C 0.43551 0.8785 0.88867 0.0
C1544 C 0.46867 0.91051 0.88632 0.0
C1545 C 0.48727 0.89156 0.88274 0.0
N1546 N 0.4973 0.84822 0.8674 0.0
N1547 N 0.42489 0.92171 0.8747 0.0
C1548 C 0.47981 0.86613 0.87965 0.0
C1549 C 0.44277 0.9039 0.88369 0.0
N1550 N 0.44743 0.83551 0.90013 0.0
N1551 N 0.47564 0.93477 0.89513 0.0
H1552 H 0.4059 0.91748 0.87202 0.0
H1553 H 0.42898 0.9402 0.86425 0.0
H1554 H 0.49427 0.94046 0.89678 0.0
H1555 H 0.46301 0.94898 0.9053 0.0
H1556 H 0.4603 0.82118 0.90683 0.0
H1557 H 0.429 0.83026 0.90879 0.0
H1558 H 0.49282 0.82965 0.85877 0.0
H1559 H 0.51612 0.85242 0.86008 0.0
C1560 C 0.90283 0.32046 0.83818 0.0
C1561 C 0.88452 0.33785 0.85794 0.0
C1562 C 0.85541 0.30286 0.87723 0.0
C1563 C 0.87442 0.28545 0.86111 0.0
N1564 N 0.91784 0.27769 0.8386 0.0
N1565 N 0.84449 0.34535 0.90518 0.0
C1566 C 0.89862 0.29431 0.84523 0.0
C1567 C 0.86109 0.32896 0.87994 0.0
N1568 N 0.92391 0.32902 0.81005 0.0
N1569 N 0.83166 0.29455 0.8881 0.0
H1570 H 0.84774 0.36444 0.90791 0.0
H1571 H 0.82847 0.33996 0.92855 0.0
H1572 H 0.82665 0.27578 0.88634 0.0
H1573 H 0.81641 0.30628 0.89491 0.0
H1574 H 0.93692 0.3174 0.78901 0.0
H1575 H 0.92714 0.34794 0.80245 0.0
H1576 H 0.93643 0.28303 0.83309 0.0
H1577 H 0.91557 0.25852 0.84462 0.0
C1578 C 0.45111 0.1541 0.63584 0.0
C1579 C 0.43419 0.13563 0.61459 0.0
C1580 C 0.46974 0.10789 0.59376 0.0
C1581 C 0.48626 0.12497 0.62242 0.0
N1582 N 0.49199 0.16313 0.67844 0.0
N1583 N 0.42713 0.09304 0.58476 0.0
C1584 C 0.4767 0.14772 0.64595 0.0
C1585 C 0.44345 0.11195 0.59683 0.0
N1586 N 0.44302 0.17808 0.64318 0.0
N1587 N 0.47916 0.08851 0.56065 0.0
H1588 H 0.40779 0.0952 0.58832 0.0
H1589 H 0.43288 0.07471 0.57726 0.0
H1590 H 0.49831 0.08571 0.5547 0.0
H1591 H 0.46804 0.07693 0.53396 0.0
H1592 H 0.45494 0.19287 0.65324 0.0
H1593 H 0.42484 0.18368 0.63273 0.0
H1594 H 0.4855 0.17875 0.7018 0.0
H1595 H 0.5108 0.15905 0.68639 0.0
C1596 C 0.61848 0.72315 0.36292 0.0
C1597 C 0.64372 0.73093 0.37023 0.0
C1598 C 0.65642 0.6869 0.37925 0.0
C1599 C 0.63175 0.67912 0.36421 0.0
N1600 N 0.5902 0.69009 0.33216 0.0
N1601 N 0.68742 0.71982 0.37536 0.0
C1602 C 0.61299 0.69736 0.35374 0.0
C1603 C 0.66289 0.71269 0.37586 0.0
N1604 N 0.59969 0.74041 0.36581 0.0
N1605 N 0.67347 0.66982 0.39931 0.0
H1606 H 0.69305 0.73842 0.37318 0.0
H1607 H 0.70214 0.70716 0.37187 0.0
H1608 H 0.66938 0.65095 0.40415 0.0
H1609 H 0.69081 0.67475 0.41717 0.0
H1610 H 0.5808 0.7357 0.36673 0.0
H1611 H 0.60305 0.75934 0.37318 0.0
H1612 H 0.57647 0.70257 0.31795 0.0
H1613 H 0.58593 0.6715 0.32279 0.0
C1614 C 0.05156 0.90394 0.15047 0.0
C1615 C 0.03408 0.88591 0.12932 0.0
C1616 C 0.06933 0.85835 0.10078 0.0
C1617 C 0.08676 0.87579 0.12434 0.0
N1618 N 0.09385 0.91282 0.1842 0.0
N1619 N 0.02639 0.84356 0.09817 0.0
C1620 C 0.07766 0.89788 0.15299 0.0
C1621 C 0.04305 0.86236 0.10881 0.0
N1622 N 0.04346 0.92732 0.16569 0.0
N1623 N 0.07786 0.83852 0.06779 0.0
H1624 H 1.00717 0.84571 0.10487 0.0
H1625 H 0.03175 0.82528 0.08876 0.0
H1626 H 0.09683 0.83545 0.05954 0.0
H1627 H 0.06616 0.8265 0.04395 0.0
H1628 H 0.05543 0.942 0.1761 0.0
H1629 H 0.02479 0.93282 0.16345 0.0
H1630 H 0.08812 0.92751 0.21183 0.0
H1631 H 0.11287 0.90898 0.1881 0.0
C1632 C 0.65116 0.79638 0.83166 0.0
C1633 C 0.64127 0.78193 0.88038 0.0
C1634 C 0.63381 0.82087 0.93697 0.0
C1635 C 0.63911 0.83515 0.88413 0.0
N1636 N 0.66998 0.83575 0.8049 0.0
N1637 N 0.62117 0.78102 0.97842 0.0
C1638 C 0.6525 0.82284 0.83721 0.0
C1639 C 0.63209 0.79437 0.93283 0.0
N1640 N 0.65957 0.78509 0.77994 0.0
N1641 N 0.63478 0.83197 0.99258 0.0
H1642 H 0.61922 0.76167 0.97687 0.0
H1643 H 0.61201 0.78947 0.01482 0.0
H1644 H 0.64187 0.84995 0.99807 0.0
H1645 H 0.63299 0.82216 0.03316 0.0
H1646 H 0.66414 0.79507 0.74089 0.0
H1647 H 0.66056 0.76585 0.77431 0.0
H1648 H 0.68202 0.82743 0.77363 0.0
H1649 H 0.67541 0.85371 0.81743 0.0
C1650 C 0.43881 0.39628 0.08634 0.0
C1651 C 0.43139 0.37444 0.11688 0.0
C1652 C 0.47439 0.36902 0.15549 0.0
C1653 C 0.48249 0.38969 0.11985 0.0
N1654 N 0.4724 0.42007 0.04195 0.0
N1655 N 0.4419 0.33828 0.17569 0.0
C1656 C 0.46466 0.40259 0.08288 0.0
C1657 C 0.44909 0.36047 0.15071 0.0
N1658 N 0.4209 0.41117 0.06101 0.0
N1659 N 0.49097 0.35714 0.19279 0.0
H1660 H 0.4236 0.33166 0.17309 0.0
H1661 H 0.4542 0.3256 0.19534 0.0
H1662 H 0.51002 0.36117 0.19367 0.0
H1663 H 0.48571 0.34407 0.22525 0.0
H1664 H 0.42452 0.42891 0.04393 0.0
H1665 H 0.40193 0.4066 0.06215 0.0
H1666 H 0.46073 0.4279 1.00931 0.0
H1667 H 0.49095 0.42523 0.03644 0.0
C1668 C 0.89921 0.19627 0.35236 0.0
C1669 C 0.88018 0.17867 0.36592 0.0
C1670 C 0.85066 0.21354 0.38241 0.0
C1671 C 0.87036 0.23105 0.37419 0.0
N1672 N 0.91463 0.2385 0.36472 0.0
N1673 N 0.83909 0.17097 0.40687 0.0
C1674 C 0.89504 0.22217 0.36338 0.0
C1675 C 0.85623 0.18742 0.38459 0.0
N1676 N 0.92094 0.18831 0.32609 0.0
N1677 N 0.82646 0.22167 0.38569 0.0
H1678 H 0.84261 0.15193 0.41038 0.0
H1679 H 0.82237 0.17649 0.42716 0.0
H1680 H 0.82154 0.24049 0.3845 0.0
H1681 H 0.81114 0.20968 0.38465 0.0
H1682 H 0.93463 0.20042 0.30989 0.0
H1683 H 0.92407 0.16971 0.31448 0.0
H1684 H 0.93327 0.23285 0.36295 0.0
H1685 H 0.91231 0.25746 0.3739 0.0
C1686 C 0.05108 0.60177 0.64918 0.0
C1687 C 0.03434 0.61848 0.61983 0.0
C1688 C 0.07041 0.64453 0.58966 0.0
C1689 C 0.08688 0.62878 0.62256 0.0
N1690 N 0.09185 0.5957 0.69508 0.0
N1691 N 0.02769 0.65831 0.57187 0.0
C1692 C 0.07688 0.6083 0.65552 0.0
C1693 C 0.04394 0.64065 0.59297 0.0
N1694 N 0.0426 0.57917 0.66906 0.0
N1695 N 0.08019 0.66261 0.55311 0.0
H1696 H 1.0083 0.65621 0.57417 0.0
H1697 H 0.03328 0.67591 0.55729 0.0
H1698 H 0.0994 0.66555 0.54894 0.0
H1699 H 0.06953 0.67315 0.52304 0.0
H1700 H 0.05442 0.56507 0.68446 0.0
H1701 H 0.02395 0.57368 0.66555 0.0
H1702 H 0.08526 0.58226 0.7252 0.0
H1703 H 0.11045 0.60059 0.70201 0.0
C1704 C 0.63381 0.21785 0.59508 0.0
C1705 C 0.64093 0.23048 0.64913 0.0
C1706 C 0.63979 0.19015 0.70355 0.0
C1707 C 0.63539 0.17742 0.64832 0.0
N1708 N 0.63302 0.17885 0.53936 0.0
N1709 N 0.65496 0.22738 0.75343 0.0
C1710 C 0.63375 0.19122 0.59345 0.0
C1711 C 0.64505 0.21628 0.70308 0.0
N1712 N 0.62602 0.23126 0.54588 0.0
N1713 N 0.638 0.17738 0.75693 0.0
H1714 H 0.65928 0.24627 0.75588 0.0
H1715 H 0.6611 0.2174 0.79112 0.0
H1716 H 0.63393 0.15837 0.7587 0.0
H1717 H 0.63823 0.186 0.79928 0.0
H1718 H 0.61825 0.22308 0.50741 0.0
H1719 H 0.6249 0.25068 0.5459 0.0
H1720 H 0.63453 0.18775 0.49752 0.0
H1721 H 0.63339 0.15948 0.53642 0.0
C1722 C 0.07725 0.38846 0.8554 0.0
C1723 C 0.09007 0.38573 0.91126 0.0
C1724 C 0.05029 0.39083 0.96614 0.0
C1725 C 0.037 0.39167 0.90985 0.0
N1726 N 0.03784 0.3859 0.8013 0.0
N1727 N 0.08887 0.38039 0.01899 0.0
C1728 C 0.05054 0.38906 0.85453 0.0
C1729 C 0.07655 0.38581 0.96637 0.0
N1730 N 0.09076 0.39089 0.80314 0.0
N1731 N 0.03818 0.39588 0.0194 0.0
H1732 H 0.10814 0.37727 0.02037 0.0
H1733 H 0.07986 0.37713 0.06012 0.0
H1734 H 0.01912 0.39958 0.02233 0.0
H1735 H 0.0474 0.39852 0.06048 0.0
H1736 H 0.08285 0.39551 0.76149 0.0
H1737 H 0.11027 0.39045 0.80258 0.0
H1738 H 0.04652 0.38149 0.76037 0.0
H1739 H 0.01836 0.38516 0.79906 0.0
C1740 C 0.86196 0.82676 0.14362 0.0
C1741 C 0.88729 0.83442 0.15038 0.0
C1742 C 0.90049 0.79058 0.13898 0.0
C1743 C 0.87512 0.78264 0.14021 0.0
N1744 N 0.83159 0.79342 0.15366 0.0
N1745 N 0.93033 0.82289 0.16531 0.0
C1746 C 0.85579 0.80082 0.145 0.0
C1747 C 0.90648 0.81609 0.1507 0.0
N1748 N 0.84379 0.84419 0.13354 0.0
N1749 N 0.9189 0.77375 0.12554 0.0
H1750 H 0.93511 0.84113 0.1769 0.0
H1751 H 0.94475 0.81011 0.1721 0.0
H1752 H 0.91512 0.75509 0.11569 0.0
H1753 H 0.93747 0.77879 0.11825 0.0
H1754 H 0.8255 0.83961 0.12172 0.0
H1755 H 0.84751 0.86321 0.13084 0.0
H1756 H 0.81719 0.80575 0.16454 0.0
H1757 H 0.82618 0.77475 0.15507 0.0
C1758 C 0.46888 0.61365 0.34264 0.0
C1759 C 0.48559 0.62981 0.37441 0.0
C1760 C 0.44938 0.65406 0.41168 0.0
C1761 C 0.43286 0.63771 0.38125 0.0
N1762 N 0.42669 0.60661 0.3046 0.0
N1763 N 0.49171 0.6699 0.42145 0.0
C1764 C 0.44262 0.61895 0.34255 0.0
C1765 C 0.47574 0.65148 0.40331 0.0
N1766 N 0.47772 0.59267 0.31471 0.0
N1767 N 0.43984 0.6715 0.45049 0.0
H1768 H 0.51096 0.66895 0.4137 0.0
H1769 H 0.48573 0.68709 0.43808 0.0
H1770 H 0.42065 0.6738 0.45728 0.0
H1771 H 0.45086 0.68231 0.47919 0.0
H1772 H 0.46619 0.5787 0.29764 0.0
H1773 H 0.49659 0.58811 0.31214 0.0
H1774 H 0.4326 0.59453 0.27046 0.0
H1775 H 0.40755 0.61036 0.30362 0.0
C1776 C 0.38853 0.18768 0.10591 0.0
C1777 C 0.38524 0.17208 0.15725 0.0
C1778 C 0.36739 0.20811 0.21194 0.0
C1779 C 0.37361 0.22429 0.16269 0.0
N1780 N 0.39673 0.22945 0.06939 0.0
N1781 N 0.37628 0.16913 0.26385 0.0
C1782 C 0.38619 0.21407 0.11164 0.0
C1783 C 0.37598 0.1828 0.21167 0.0
N1784 N 0.39229 0.17728 0.05042 0.0
N1785 N 0.35259 0.21649 0.2582 0.0
H1786 H 0.38334 0.151 0.26556 0.0
H1787 H 0.37205 0.17663 0.30624 0.0
H1788 H 0.34566 0.23462 0.26036 0.0
H1789 H 0.3453 0.20479 0.29151 0.0
H1790 H 0.39307 0.18794 0.01111 0.0
H1791 H 0.39128 0.15811 0.04324 0.0
H1792 H 0.40821 0.2229 0.03459 0.0
H1793 H 0.39641 0.24884 0.07301 0.0
C1794 C 0.56948 0.64703 0.92778 0.0
C1795 C 0.58655 0.62918 0.9044 0.0
C1796 C 0.55109 0.60133 0.88128 0.0
C1797 C 0.5339 0.6201 0.90033 0.0
N1798 N 0.5272 0.66335 0.92607 0.0
N1799 N 0.59286 0.592 0.84489 0.0
C1800 C 0.54328 0.64374 0.91885 0.0
C1801 C 0.57712 0.60709 0.877 0.0
N1802 N 0.57827 0.6667 0.96076 0.0
N1803 N 0.54287 0.57767 0.86979 0.0
H1804 H 0.61179 0.59585 0.83987 0.0
H1805 H 0.58672 0.57718 0.81822 0.0
H1806 H 0.52436 0.57212 0.87553 0.0
H1807 H 0.55483 0.56283 0.86017 0.0
H1808 H 0.56662 0.67907 0.98392 0.0
H1809 H 0.59723 0.66911 0.97018 0.0
H1810 H 0.5332 0.68153 0.93408 0.0
H1811 H 0.50806 0.66193 0.91743 0.0
C1812 C 0.15523 0.82239 0.67584 0.0
C1813 C 0.13138 0.83311 0.66501 0.0
C1814 C 0.11478 0.79109 0.64399 0.0
C1815 C 0.1381 0.78041 0.66029 0.0
N1816 N 0.1768 0.7862 0.71443 0.0
N1817 N 0.08687 0.82632 0.65723 0.0
C1818 C 0.1573 0.79613 0.68285 0.0
C1819 C 0.11064 0.81706 0.65422 0.0
N1820 N 0.17614 0.83694 0.67679 0.0
N1821 N 0.09664 0.77658 0.61852 0.0
H1822 H 0.08309 0.84466 0.67013 0.0
H1823 H 0.07099 0.81514 0.65441 0.0
H1824 H 0.09902 0.75751 0.61088 0.0
H1825 H 0.08019 0.78391 0.60048 0.0
H1826 H 0.19412 0.82946 0.6798 0.0
H1827 H 0.17571 0.856 0.66762 0.0
H1828 H 0.19013 0.79717 0.73629 0.0
H1829 H 0.17768 0.76727 0.72503 0.0
C1830 C 0.94893 0.3607 0.39606 0.0
C1831 C 0.9303 0.37952 0.39276 0.0
C1832 C 0.96333 0.41158 0.38866 0.0
C1833 C 0.98195 0.39262 0.3886 0.0
N1834 N 0.99244 0.34906 0.3807 0.0
N1835 N 0.91964 0.42239 0.37365 0.0
C1836 C 0.97467 0.36713 0.38855 0.0
C1837 C 0.9375 0.40485 0.38549 0.0
N1838 N 0.94205 0.33682 0.40964 0.0
N1839 N 0.97025 0.43601 0.3942 0.0
H1840 H 0.90069 0.41803 0.37047 0.0
H1841 H 0.92373 0.44071 0.36161 0.0
H1842 H 0.98889 0.44173 0.39531 0.0
H1843 H 0.95759 0.45044 0.40199 0.0
H1844 H 0.95478 0.32261 0.41888 0.0
H1845 H 0.92349 0.33169 0.41714 0.0
H1846 H 0.98822 0.33029 0.37432 0.0
H1847 H 0.01138 0.35317 0.37505 0.0
C1848 C 0.35623 0.79691 0.38515 0.0
C1849 C 0.37519 0.77847 0.39137 0.0
C1850 C 0.40735 0.81127 0.38578 0.0
C1851 C 0.38842 0.8298 0.38249 0.0
N1852 N 0.34488 0.84067 0.39161 0.0
N1853 N 0.41839 0.76841 0.40987 0.0
C1854 C 0.36285 0.8227 0.38592 0.0
C1855 C 0.40065 0.78582 0.39574 0.0
N1856 N 0.33199 0.78978 0.37574 0.0
N1857 N 0.43169 0.81785 0.37594 0.0
H1858 H 0.414 0.74971 0.41761 0.0
H1859 H 0.43693 0.77283 0.41941 0.0
H1860 H 0.43709 0.83613 0.36649 0.0
H1861 H 0.4462 0.805 0.37159 0.0
H1862 H 0.31783 0.80213 0.3634 0.0
H1863 H 0.32625 0.7712 0.37618 0.0
H1864 H 0.32618 0.83678 0.40089 0.0
H1865 H 0.34903 0.85965 0.39277 0.0
C1866 C 0.97587 0.64574 0.15139 0.0
C1867 C 0.98385 0.62334 0.12253 0.0
C1868 C 0.93971 0.61269 0.10305 0.0
C1869 C 0.93199 0.63625 0.12512 0.0
N1870 N 0.94315 0.67707 0.16133 0.0
N1871 N 0.97299 0.58838 0.05836 0.0
C1872 C 0.95017 0.65324 0.14746 0.0
C1873 C 0.96565 0.60759 0.09492 0.0
N1874 N 0.99286 0.66011 0.18164 0.0
N1875 N 0.92215 0.5949 0.09107 0.0
H1876 H 0.99164 0.58467 0.04856 0.0
H1877 H 0.96056 0.57784 0.03254 0.0
H1878 H 0.90308 0.59796 0.09794 0.0
H1879 H 0.92667 0.57648 0.0806 0.0
H1880 H 0.98783 0.67514 0.20902 0.0
H1881 H 0.01192 0.65598 0.1828 0.0
H1882 H 0.95578 0.69118 0.17194 0.0
H1883 H 0.92481 0.68341 0.15672 0.0
C1884 C 0.13944 0.21901 0.82983 0.0
C1885 C 0.13721 0.23242 0.88541 0.0
C1886 C 0.1288 0.19287 0.93829 0.0
C1887 C 0.12848 0.18001 0.88183 0.0
N1888 N 0.12802 0.18203 0.773 0.0
N1889 N 0.12494 0.2325 0.9907 0.0
C1890 C 0.13223 0.19348 0.82737 0.0
C1891 C 0.1305 0.21944 0.93917 0.0
N1892 N 0.14943 0.23028 0.77978 0.0
N1893 N 0.12867 0.17972 0.99127 0.0
H1894 H 0.12556 0.25192 0.99286 0.0
H1895 H 0.11746 0.22425 0.02944 0.0
H1896 H 0.1279 0.16034 0.9927 0.0
H1897 H 0.1317 0.18786 0.03354 0.0
H1898 H 0.15403 0.2206 0.74032 0.0
H1899 H 0.15545 0.24875 0.77942 0.0
H1900 H 0.12803 0.19151 0.73176 0.0
H1901 H 0.12192 0.16361 0.7698 0.0
C1902 C 0.5782 0.40611 0.65318 0.0
C1903 C 0.58729 0.3835 0.62749 0.0
C1904 C 0.54384 0.36891 0.61806 0.0
C1905 C 0.53474 0.39295 0.63413 0.0
N1906 N 0.5441 0.4359 0.65846 0.0
N1907 N 0.5782 0.34504 0.57574 0.0
C1908 C 0.55215 0.41197 0.64967 0.0
C1909 C 0.56991 0.36529 0.60752 0.0
N1910 N 0.59423 0.42151 0.68336 0.0
N1911 N 0.52757 0.34936 0.61376 0.0
H1912 H 0.59698 0.34245 0.56451 0.0
H1913 H 0.56622 0.3323 0.55507 0.0
H1914 H 0.50849 0.35122 0.62293 0.0
H1915 H 0.53337 0.33098 0.60755 0.0
H1916 H 0.58827 0.43703 0.70797 0.0
H1917 H 0.61308 0.41725 0.68936 0.0
H1918 H 0.55631 0.45091 0.66328 0.0
H1919 H 0.52535 0.44113 0.65583 0.0
C1920 C 0.22895 0.26398 0.26543 0.0
C1921 C 0.23866 0.24118 0.24219 0.0
C1922 C 0.28056 0.2586 0.24061 0.0
C1923 C 0.27146 0.28018 0.27099 0.0
N1924 N 0.23787 0.30321 0.31623 0.0
N1925 N 0.27336 0.21555 0.21252 0.0
C1926 C 0.24582 0.28287 0.28424 0.0
C1927 C 0.2644 0.23818 0.23116 0.0
N1928 N 0.20372 0.26765 0.26867 0.0
N1929 N 0.30438 0.25805 0.21849 0.0
H1930 H 0.26163 0.20056 0.2024 0.0
H1931 H 0.29234 0.21119 0.21082 0.0
H1932 H 0.31704 0.27249 0.22489 0.0
H1933 H 0.31086 0.24423 0.18921 0.0
H1934 H 0.19554 0.28477 0.27895 0.0
H1935 H 0.19074 0.25398 0.25737 0.0
H1936 H 0.21979 0.3052 0.33319 0.0
H1937 H 0.25005 0.31743 0.32938 0.0
C1938 C 0.01086 0.98935 0.55778 0.0
C1939 C 0.02904 0.98982 0.5109 0.0
C1940 C 0.01013 0.02698 0.46777 0.0
C1941 C 0.99253 0.02705 0.516 0.0
N1942 N 0.97741 0.01097 0.61056 0.0
N1943 N 0.04853 0.00974 0.42611 0.0
C1944 C 0.99333 0.00899 0.56225 0.0
C1945 C 0.02941 0.00891 0.46724 0.0
N1946 N 0.00995 0.96957 0.59646 0.0
N1947 N 1.00807 0.04406 0.42235 0.0
H1948 H 0.06271 0.99632 0.42509 0.0
H1949 H 0.05143 0.02438 0.39599 0.0
H1950 H 0.9947 0.0581 0.42341 0.0
H1951 H 0.01854 0.04372 0.38259 0.0
H1952 H 0.99576 0.96658 0.62791 0.0
H1953 H 0.02294 0.9552 0.59429 0.0
H1954 H 0.97869 1.00003 0.6494 0.0
H1955 H 0.96356 0.02469 0.61313 0.0
C1956 C 0.24784 0.78378 0.70108 0.0
C1957 C 0.25877 0.79416 0.75374 0.0
C1958 C 0.24218 0.76013 0.81438 0.0
C1959 C 0.2311 0.74931 0.76241 0.0
N1960 N 0.21748 0.75547 0.65887 0.0
N1961 N 0.25166 0.79945 0.86086 0.0
C1962 C 0.23227 0.7624 0.70612 0.0
C1963 C 0.25163 0.78462 0.81085 0.0
N1964 N 0.25291 0.79438 0.64618 0.0
N1965 N 0.24399 0.74697 0.86712 0.0
H1966 H 0.25397 0.81865 0.8576 0.0
H1967 H 0.24513 0.79336 0.90292 0.0
H1968 H 0.23852 0.72834 0.8704 0.0
H1969 H 0.25345 0.75384 0.90499 0.0
H1970 H 0.24844 0.78613 0.60481 0.0
H1971 H 0.26263 0.81122 0.64282 0.0
H1972 H 0.21585 0.76559 0.61877 0.0
H1973 H 0.20456 0.74121 0.66262 0.0
C1974 C 0.53893 0.01922 0.06982 0.0
C1975 C 0.5532 0.01123 0.02003 0.0
C1976 C 0.51899 0.02186 0.95227 0.0
C1977 C 0.50325 0.0269 1.00291 0.0
N1978 N 0.49743 0.01468 0.10746 0.0
N1979 N 0.56165 0.02114 0.91614 0.0
C1980 C 0.51289 0.02223 0.06208 0.0
C1981 C 0.54482 0.01777 0.96168 0.0
N1982 N 0.54971 0.01979 0.12567 0.0
N1983 N 0.50887 0.0182 0.89624 0.0
H1984 H 0.58082 0.02114 0.92475 0.0
H1985 H 0.55652 0.02731 0.87304 0.0
H1986 H 0.48955 0.01742 0.88964 0.0
H1987 H 0.51951 0.01262 0.85891 0.0
H1988 H 0.54028 0.02634 0.16398 0.0
H1989 H 0.56872 0.01578 0.13115 0.0
H1990 H 0.50369 0.01036 0.15098 0.0
H1991 H 0.47998 0.0072 0.09717 0.0
C1992 C 0.24861 0.73446 0.21016 0.0
C1993 C 0.25544 0.71969 0.26003 0.0
C1994 C 0.2438 0.754 0.32778 0.0
C1995 C 0.23902 0.76954 0.27671 0.0
N1996 N 0.2551 0.77613 0.17629 0.0
N1997 N 0.2456 0.71154 0.36453 0.0
C1998 C 0.24581 0.7603 0.21885 0.0
C1999 C 0.24859 0.72817 0.31854 0.0
N2000 N 0.24913 0.72441 0.15347 0.0
N2001 N 0.24817 0.76427 0.38329 0.0
H2002 H 0.24574 0.6924 0.35657 0.0
H2003 H 0.23925 0.71674 0.40748 0.0
H2004 H 0.2513 0.78336 0.38833 0.0
H2005 H 0.25336 0.75371 0.42095 0.0
H2006 H 0.24397 0.7346 0.11511 0.0
H2007 H 0.25272 0.70543 0.14689 0.0
H2008 H 0.26353 0.76953 0.13685 0.0
H2009 H 0.25827 0.79497 0.18549 0.0
C2010 C 0.48572 0.01013 0.45482 0.0
C2011 C 0.47237 1.00644 0.50946 0.0
C2012 C 0.50298 0.03235 0.56303 0.0
C2013 C 0.51818 0.03261 0.50971 0.0
N2014 N 0.52627 0.01657 0.40975 0.0
N2015 N 0.46315 0.02072 0.60927 0.0
C2016 C 0.51019 0.01978 0.45726 0.0
C2017 C 0.47956 0.01975 0.56179 0.0
N2018 N 0.47417 0.00745 0.40028 0.0
N2019 N 0.51112 0.0434 0.61503 0.0
H2020 H 0.44563 0.01216 0.6068 0.0
H2021 H 0.46562 0.03143 0.64813 0.0
H2022 H 0.52764 0.05325 0.6175 0.0
H2023 H 0.50221 0.04196 0.65681 0.0
H2024 H 0.48298 0.01112 0.35903 0.0
H2025 H 0.45483 1.00673 0.39697 0.0
H2026 H 0.52199 1.00545 0.37235 0.0
H2027 H 0.54479 0.02269 0.4112 0.0
C2028 C 0.27322 0.25131 0.72331 0.0
C2029 C 0.26834 0.22982 0.75905 0.0
C2030 C 0.22804 0.24674 0.78968 0.0
C2031 C 0.23246 0.26769 0.75193 0.0
N2032 N 0.25663 0.28865 0.67596 0.0
N2033 N 0.24077 0.20498 0.81951 0.0
C2034 C 0.25433 0.26959 0.71667 0.0
C2035 C 0.24549 0.22685 0.78996 0.0
N2036 N 0.29628 0.25469 0.69798 0.0
N2037 N 0.20754 0.24646 0.82657 0.0
H2038 H 0.25373 0.19039 0.82057 0.0
H2039 H 0.22362 0.20055 0.83906 0.0
H2040 H 0.1947 0.26104 0.82726 0.0
H2041 H 0.20407 0.23284 0.85909 0.0
H2042 H 0.30204 0.27154 0.6793 0.0
H2043 H 0.31034 0.24123 0.69914 0.0
H2044 H 0.27093 0.28974 0.64397 0.0
H2045 H 0.2431 0.30259 0.67148 0.0
C2046 C 0.01512 0.02528 0.97167 0.0
C2047 C 0.03494 0.01674 1.00913 0.0
C2048 C 0.01565 0.97581 0.01506 0.0
C2049 C 0.99398 0.98579 0.98727 0.0
N2050 N 0.97232 0.0195 0.93874 0.0
N2051 N 0.05525 0.98424 0.06499 0.0
C2052 C 0.99366 0.01026 0.96439 0.0
C2053 C 0.03562 0.99198 0.03022 0.0
N2054 N 0.01695 0.04761 0.94264 0.0
N2055 N 0.01723 0.95077 0.02452 0.0
H2056 H 0.07033 0.99589 0.07518 0.0
H2057 H 0.05618 0.96684 0.08558 0.0
H2058 H 1.0033 0.93879 1.00916 0.0
H2059 H 0.03309 0.94174 0.04084 0.0
H2060 H 1.00547 0.05253 0.9064 0.0
H2061 H 0.03092 0.06055 0.9519 0.0
H2062 H 0.97006 0.03807 0.92623 0.0
H2063 H 0.95622 0.00876 0.93304 0.0
C2064 C 0.72863 0.76326 0.79875 0.0
C2065 C 0.73496 0.74329 0.75941 0.0
C2066 C 0.7756 0.76189 0.73968 0.0
C2067 C 0.76833 0.78292 0.77479 0.0
N2068 N 0.73771 0.80539 0.83241 0.0
N2069 N 0.76256 0.72434 0.68713 0.0
C2070 C 0.74471 0.78411 0.8028 0.0
C2071 C 0.75795 0.74281 0.72834 0.0
N2072 N 0.70758 0.76178 0.83337 0.0
N2073 N 0.79963 0.75971 0.71935 0.0
H2074 H 0.75 0.70977 0.67948 0.0
H2075 H 0.77788 0.72434 0.65791 0.0
H2076 H 0.813 0.77361 0.72488 0.0
H2077 H 0.80684 0.74327 0.70136 0.0
H2078 H 0.70317 0.77433 0.8678 0.0
H2079 H 0.6953 0.74682 0.83001 0.0
H2080 H 0.71975 0.80852 0.84908 0.0
H2081 H 0.74959 0.82076 0.83637 0.0
C2082 C 0.7535 0.24371 0.21681 0.0
C2083 C 0.74784 0.23526 0.27583 0.0
C2084 C 0.75589 0.27746 0.31415 0.0
C2085 C 0.76143 0.28557 0.25446 0.0
N2086 N 0.75307 0.27896 0.14897 0.0
N2087 N 0.75268 0.24226 0.38263 0.0
C2088 C 0.75549 0.26952 0.20595 0.0
C2089 C 0.75219 0.25164 0.3252 0.0
N2090 N 0.76154 0.22738 0.17388 0.0
N2091 N 0.75016 0.29449 0.35784 0.0
H2092 H 0.75058 0.22318 0.39074 0.0
H2093 H 0.75767 0.25291 0.42031 0.0
H2094 H 0.7465 0.31303 0.3468 0.0
H2095 H 0.74462 0.28958 0.40157 0.0
H2096 H 0.768 0.23338 0.13186 0.0
H2097 H 0.76708 0.20934 0.1852 0.0
H2098 H 0.74752 0.26799 0.11235 0.0
H2099 H 0.75437 0.29812 0.14081 0.0
C2100 C 0.72975 0.24778 0.72235 0.0
C2101 C 0.73821 0.26956 0.75254 0.0
C2102 C 0.7808 0.25351 0.75215 0.0
C2103 C 0.77162 0.23049 0.72915 0.0
N2104 N 0.73778 0.20459 0.69613 0.0
N2105 N 0.77091 0.2936 0.79788 0.0
C2106 C 0.74618 0.22734 0.71508 0.0
C2107 C 0.7636 0.27264 0.76749 0.0
N2108 N 0.70629 0.24721 0.69851 0.0
N2109 N 0.80593 0.25697 0.75873 0.0
H2110 H 0.75843 0.3078 0.80958 0.0
H2111 H 0.78887 0.29647 0.81427 0.0
H2112 H 0.8189 0.24315 0.74853 0.0
H2113 H 0.81415 0.27395 0.76971 0.0
H2114 H 0.69976 0.23297 0.67061 0.0
H2115 H 0.69417 0.26229 0.70241 0.0
H2116 H 0.71891 0.20021 0.69143 0.0
H2117 H 0.74983 0.18954 0.68876 0.0
C2118 C 0.74642 0.76211 0.30238 0.0
C2119 C 0.73872 0.77038 0.24444 0.0
C2120 C 0.74812 0.7284 0.20579 0.0
C2121 C 0.75593 0.72104 0.26442 0.0
N2122 N 0.75063 0.72736 0.3708 0.0
N2123 N 0.74613 0.76332 0.13756 0.0
C2124 C 0.74935 0.73646 0.31329 0.0
C2125 C 0.74279 0.754 0.19443 0.0
N2126 N 0.75648 0.77863 0.34224 0.0
N2127 N 0.74481 0.71092 0.16181 0.0
H2128 H 0.74924 0.78229 0.13039 0.0
H2129 H 0.75071 0.75215 0.10043 0.0
H2130 H 0.74561 0.69193 0.17164 0.0
H2131 H 0.73772 0.7152 0.11901 0.0
H2132 H 0.76585 0.77261 0.38088 0.0
H2133 H 0.75927 0.79736 0.33114 0.0
H2134 H 0.74589 0.73818 0.40849 0.0
H2135 H 0.75451 0.70853 0.37887 0.0
C2136 C 0.53587 0.52136 1.00141 0.0
C2137 C 0.5337 0.49568 0.01431 0.0
C2138 C 0.49104 0.50161 0.0514 0.0
C2139 C 0.49275 0.52712 0.03677 0.0
N2140 N 0.51793 0.56282 0.01379 0.0
N2141 N 0.51334 0.46365 0.07285 0.0
C2142 C 0.51565 0.53752 0.01658 0.0
C2143 C 0.51254 0.48647 0.04588 0.0
N2144 N 0.55735 0.53002 0.9754 0.0
N2145 N 0.46854 0.49156 0.06751 0.0
H2146 H 0.52822 0.45133 0.06748 0.0
H2147 H 0.50013 0.45798 0.10479 0.0
H2148 H 0.45225 0.50217 0.07146 0.0
H2149 H 0.46571 0.47244 0.07252 0.0
H2150 H 0.56031 0.54851 0.96339 0.0
H2151 H 0.57231 0.51825 0.96483 0.0
H2152 H 0.53431 0.57212 1.00223 0.0
H2153 H 0.50362 0.57453 0.02874 0.0
C2154 C 0.02564 0.51312 0.50665 0.0
C2155 C 0.02341 0.48777 0.52303 0.0
C2156 C 0.97789 0.49004 0.51396 0.0
C2157 C 0.98021 0.51514 0.49535 0.0
N2158 N 1.00555 0.55005 0.4657 0.0
N2159 N 0.99862 0.45064 0.53401 0.0
C2160 C 1.00396 0.52651 0.48899 0.0
C2161 C 0.99982 0.47577 0.52441 0.0
N2162 N 0.04858 0.52428 0.50928 0.0
N2163 N 0.95461 0.48029 0.52329 0.0
H2164 H 0.01441 0.43989 0.54345 0.0
H2165 H 0.98234 0.44019 0.52919 0.0
H2166 H 0.93831 0.49029 0.51377 0.0
H2167 H 0.9514 0.46295 0.54296 0.0
H2168 H 0.05152 0.54328 0.50304 0.0
H2169 H 0.06468 0.5146 0.52212 0.0
H2170 H 0.02231 0.55893 0.45537 0.0
H2171 H 0.98983 0.56015 0.45232 0.0
C2172 C 0.01541 0.47571 1.00124 0.0
C2173 C 0.99435 0.48409 0.03462 0.0
C2174 C 0.01453 0.52415 0.05165 0.0
C2175 C 0.03429 0.51672 0.01239 0.0
N2176 N 0.0533 0.48662 0.94653 0.0
N2177 N 0.97259 0.5161 0.08914 0.0
C2178 C 0.0347 0.49275 0.98639 0.0
C2179 C 0.99368 0.50821 0.05975 0.0
N2180 N 0.01715 0.45124 0.98541 0.0
N2181 N 0.01585 0.54638 0.08141 0.0
H2182 H 0.95728 0.50438 0.09649 0.0
H2183 H 0.96963 0.53442 0.10301 0.0
H2184 H 0.02936 0.55978 0.07175 0.0
H2185 H 1.00426 0.55108 0.11765 0.0
H2186 H 0.03311 0.44336 0.96639 0.0
H2187 H 1.00317 0.43844 0.99596 0.0
H2188 H 0.05338 0.47039 0.92063 0.0
H2189 H 0.06805 0.49874 0.93669 0.0
C2190 C 0.4783 0.52605 0.47032 0.0
C2191 C 0.47034 0.51176 0.52028 0.0
C2192 C 0.50859 0.52152 0.57411 0.0
C2193 C 0.51721 0.53595 0.5245 0.0
N2194 N 0.50504 0.55875 0.434 0.0
N2195 N 0.47126 0.51114 0.62914 0.0
C2196 C 0.50054 0.54036 0.47494 0.0
C2197 C 0.48332 0.51419 0.57549 0.0
N2198 N 0.46493 0.52501 0.41772 0.0
N2199 N 0.52449 0.51385 0.6187 0.0
H2200 H 0.45184 0.51001 0.63083 0.0
H2201 H 0.48005 0.51387 0.67087 0.0
H2202 H 0.54376 0.51672 0.61647 0.0
H2203 H 0.5187 0.50208 0.65368 0.0
H2204 H 0.4713 0.53233 0.37673 0.0
H2205 H 0.44781 0.51566 0.41537 0.0
H2206 H 0.49197 0.56403 0.40165 0.0
H2207 H 0.52022 0.57057 0.43659 0.0
C2208 C 0.25602 0.19515 0.46175 0.0
C2209 C 0.23655 0.17726 0.4709 0.0
C2210 C 0.26207 0.16042 0.55724 0.0
C2211 C 0.2819 0.17762 0.54546 0.0
N2212 N 0.30001 0.20554 0.4723 0.0
N2213 N 0.22473 0.13907 0.52034 0.0
C2214 C 0.27952 0.19295 0.49301 0.0
C2215 C 0.24085 0.1587 0.5164 0.0
N2216 N 0.25178 0.21555 0.42644 0.0
N2217 N 0.26267 0.14653 0.60906 0.0
H2218 H 0.20973 0.13696 0.49067 0.0
H2219 H 0.22776 0.12371 0.54829 0.0
H2220 H 0.27775 0.14672 0.6389 0.0
H2221 H 0.24752 0.13608 0.6244 0.0
H2222 H 0.26417 0.23049 0.42327 0.0
H2223 H 0.23475 0.2189 0.40594 0.0
H2224 H 0.30027 0.21509 0.43114 0.0
H2225 H 0.31752 0.20389 0.49267 0.0
C2226 C 0.10818 0.00763 0.8196 0.0
C2227 C 0.09115 0.02703 0.80294 0.0
C2228 C 0.0768 0.99977 0.71777 0.0
C2229 C 0.09455 0.98075 0.73239 0.0
N2230 N 0.13117 0.97016 0.79039 0.0
N2231 N 0.0647 0.04347 0.72429 0.0
C2232 C 0.11144 0.98589 0.78121 0.0
C2233 C 0.07733 0.02361 0.74815 0.0
N2234 N 0.12044 0.00907 0.87377 0.0
N2235 N 0.058 0.99464 0.67801 0.0
H2236 H 0.06516 0.06116 0.74405 0.0
H2237 H 0.05624 0.04308 0.68172 0.0
H2238 H 0.05613 0.97738 0.65731 0.0
H2239 H 0.04289 1.00655 0.67054 0.0
H2240 H 0.13032 0.9942 0.8925 0.0
H2241 H 0.11945 0.02455 0.90213 0.0
H2242 H 0.14565 0.97393 0.8206 0.0
H2243 H 0.13442 0.9546 0.76315 0.0
C2244 C 0.24701 0.86262 0.01108 0.0
C2245 C 0.2359 0.84222 0.04318 0.0
C2246 C 0.27211 0.8165 1.00865 0.0
C2247 C 0.28123 0.83559 0.96898 0.0
N2248 N 0.27323 0.87652 0.92722 0.0
N2249 N 0.23588 0.79772 0.05677 0.0
C2250 C 0.26769 0.85869 0.96927 0.0
C2251 C 0.24802 0.81865 0.03781 0.0
N2252 N 0.23793 0.88609 0.02089 0.0
N2253 N 0.28681 0.7962 0.02006 0.0
H2254 H 0.2185 0.79827 0.07809 0.0
H2255 H 0.242 0.77983 0.04559 0.0
H2256 H 0.30528 0.79491 1.00506 0.0
H2257 H 0.28179 0.78214 0.05015 0.0
H2258 H 0.24658 0.9021 1.00429 0.0
H2259 H 0.22316 0.88967 0.05067 0.0
H2260 H 0.26221 0.8923 0.92036 0.0
H2261 H 0.28747 0.87464 0.89538 0.0
C2262 C 0.43599 0.98331 0.23611 0.0
C2263 C 0.42545 0.98187 0.29563 0.0
C2264 C 0.40881 0.02501 0.27932 0.0
C2265 C 0.42045 0.02681 0.22073 0.0
N2266 N 0.4337 1.00162 0.13566 0.0
N2267 N 0.39523 0.99933 0.36475 0.0
C2268 C 0.43069 1.00421 0.19674 0.0
C2269 C 0.4098 1.0021 0.3143 0.0
N2270 N 0.45121 0.96451 0.21635 0.0
N2271 N 0.39609 0.04517 0.30139 0.0
H2272 H 0.39469 0.98295 0.38995 0.0
H2273 H 0.38171 0.01215 0.37837 0.0
H2274 H 0.39083 0.06017 0.27411 0.0
H2275 H 0.39088 0.04715 0.34664 0.0
H2276 H 0.46213 0.96594 0.1773 0.0
H2277 H 0.45382 0.94801 0.24059 0.0
H2278 H 0.43892 0.98486 0.11527 0.0
H2279 H 0.42735 0.01475 0.10466 0.0
C2280 C 0.76481 0.85803 0.55854 0.0
C2281 C 0.77937 0.83554 0.55636 0.0
C2282 C 0.74745 0.81881 0.48394 0.0
C2283 C 0.73455 0.842 0.48064 0.0
N2284 N 0.73478 0.88543 0.5082 0.0
N2285 N 0.78717 0.79783 0.49953 0.0
C2286 C 0.74455 0.86211 0.51581 0.0
C2287 C 0.77142 0.81704 0.51363 0.0
N2288 N 0.76892 0.875 0.60359 0.0
N2289 N 0.73621 0.79781 0.46239 0.0
H2290 H 0.80575 0.79727 0.51389 0.0
H2291 H 0.78282 0.78414 0.46788 0.0
H2292 H 0.71884 0.79807 0.44105 0.0
H2293 H 0.74303 0.77999 0.47174 0.0
H2294 H 0.75714 0.89015 0.61153 0.0
H2295 H 0.78249 0.87281 0.63689 0.0
H2296 H 0.7427 0.90135 0.52732 0.0
H2297 H 0.7203 0.88914 0.47778 0.0
C2298 C 0.90939 0.02844 0.2358 0.0
C2299 C 0.92474 0.03375 0.28764 0.0
C2300 C 0.94114 0.99028 0.27689 0.0
C2301 C 0.92945 0.98669 0.21913 0.0
N2302 N 0.90482 1.00604 0.14027 0.0
N2303 N 0.9603 0.01983 0.34565 0.0
C2304 C 0.91406 1.00674 0.19792 0.0
C2305 C 0.94181 0.01456 0.30522 0.0
N2306 N 0.88967 0.04377 0.22322 0.0
N2307 N 0.95142 0.97028 0.30597 0.0
H2308 H 0.96309 0.03772 0.36231 0.0
H2309 H 0.97463 0.00735 0.35612 0.0
H2310 H 0.95014 0.95215 0.28898 0.0
H2311 H 0.95834 0.9713 0.35011 0.0
H2312 H 0.87644 0.03975 0.18995 0.0
H2313 H 0.88491 0.05893 0.25058 0.0
H2314 H 0.89599 0.02124 0.12003 0.0
H2315 H 0.90795 0.99125 0.11065 0.0
C2316 C 0.77272 0.20384 1.00014 0.0
C2317 C 0.78156 0.18325 0.96474 0.0
C2318 C 0.74727 0.1585 0.01511 0.0
C2319 C 0.73617 0.18044 0.04067 0.0
N2320 N 0.73661 0.22553 0.03973 0.0
N2321 N 0.77359 0.14033 0.936 0.0
C2322 C 0.74834 0.20349 0.02757 0.0
C2323 C 0.76797 0.16026 0.97202 0.0
N2324 N 0.78811 0.22374 1.01025 0.0
N2325 N 0.73777 0.13581 0.0309 0.0
H2326 H 0.78803 0.14031 0.90449 0.0
H2327 H 0.76258 0.12435 0.934 0.0
H2328 H 0.72246 0.13394 0.05993 0.0
H2329 H 0.74632 0.11899 0.0194 0.0
H2330 H 0.78292 0.23915 0.03616 0.0
H2331 H 0.80713 0.22334 0.9996 0.0
H2332 H 0.74338 0.24252 0.0236 0.0
H2333 H 0.71922 0.22675 0.06061 0.0
C2334 C 0.61573 0.02969 0.78221 0.0
C2335 C 0.60271 0.03241 0.72554 0.0
C2336 C 0.58359 0.99077 0.7448 0.0
C2337 C 0.59562 0.9884 0.80238 0.0
N2338 N 0.62865 1.0032 0.86697 0.0
N2339 N 0.58677 0.00755 0.64314 0.0
C2340 C 0.61341 0.00714 0.8182 0.0
C2341 C 0.59016 0.01068 0.70387 0.0
N2342 N 0.63122 0.04838 0.80099 0.0
N2343 N 0.56594 0.97375 0.72806 0.0
H2344 H 0.59603 0.01863 0.61161 0.0
H2345 H 0.57896 0.99152 0.62429 0.0
H2346 H 0.5618 0.95799 0.75378 0.0
H2347 H 0.55451 0.9762 0.69022 0.0
H2348 H 0.63777 0.05012 0.84522 0.0
H2349 H 0.63777 0.06218 0.77173 0.0
H2350 H 0.64352 0.01472 0.87867 0.0
H2351 H 0.62797 0.987 0.8929 0.0
C2352 C 0.74754 0.69196 0.97245 0.0
C2353 C 0.73197 0.67045 0.9785 0.0
C2354 C 0.76129 0.65549 0.05952 0.0
C2355 C 0.77745 0.67642 0.05115 0.0
N2356 N 0.7887 0.71046 0.9854 0.0
N2357 N 0.72867 0.62872 0.01816 0.0
C2358 C 0.77135 0.69326 1.00309 0.0
C2359 C 0.74034 0.65136 0.01915 0.0
N2360 N 0.73911 0.71211 0.94067 0.0
N2361 N 0.76492 0.64006 0.10794 0.0
H2362 H 0.71403 0.62466 0.9885 0.0
H2363 H 0.73524 0.61321 0.04177 0.0
H2364 H 0.77992 0.64182 0.13766 0.0
H2365 H 0.75199 0.62659 0.1212 0.0
H2366 H 0.74818 0.7293 0.94055 0.0
H2367 H 0.72186 0.7125 0.91916 0.0
H2368 H 0.78659 0.72164 0.9471 0.0
H2369 H 0.80646 0.71145 1.00478 0.0
C2370 C 0.58562 0.48293 0.28818 0.0
C2371 C 0.59095 0.48501 0.22494 0.0
C2372 C 0.59614 0.53082 0.23996 0.0
C2373 C 0.5904 0.52878 0.30296 0.0
N2374 N 0.58655 0.50171 0.38912 0.0
N2375 N 0.60871 0.51021 0.14592 0.0
C2376 C 0.58742 0.50439 0.3276 0.0
C2377 C 0.59863 0.50876 0.20267 0.0
N2378 N 0.5781 0.46039 0.31046 0.0
N2379 N 0.59848 0.55402 0.21511 0.0
H2380 H 0.61201 0.49437 0.11965 0.0
H2381 H 0.61641 0.52643 0.12792 0.0
H2382 H 0.59808 0.57025 0.24129 0.0
H2383 H 0.59953 0.55724 0.1686 0.0
H2384 H 0.57084 0.45792 0.35387 0.0
H2385 H 0.57819 0.4442 0.28413 0.0
H2386 H 0.58641 0.48452 0.41101 0.0
H2387 H 0.58869 0.51682 0.41844 0.0
C2388 C 0.73916 0.36079 0.49772 0.0
C2389 C 0.73223 0.34233 0.54156 0.0
C2390 C 0.77308 0.32162 0.51938 0.0
C2391 C 0.77783 0.33741 0.46845 0.0
N2392 N 0.76226 0.37096 0.40584 0.0
N2393 N 0.74214 0.30194 0.58377 0.0
C2394 C 0.76012 0.35686 0.4571 0.0
C2395 C 0.74923 0.32201 0.54998 0.0
N2396 N 0.72611 0.38269 0.49576 0.0
N2397 N 0.7917 0.30628 0.53967 0.0
H2398 H 0.72468 0.30059 0.60405 0.0
H2399 H 0.75253 0.2855 0.5862 0.0
H2400 H 0.80952 0.30609 0.52032 0.0
H2401 H 0.79036 0.29608 0.57978 0.0
H2402 H 0.73159 0.39788 0.46948 0.0
H2403 H 0.71142 0.38667 0.52542 0.0
H2404 H 0.7483 0.38309 0.39112 0.0
H2405 H 0.77702 0.36922 0.37535 0.0
C2406 C 0.90821 0.48552 0.74294 0.0
C2407 C 0.92369 0.48213 0.79547 0.0
C2408 C 0.93613 0.52658 0.78309 0.0
C2409 C 0.92475 0.52846 0.72476 0.0
N2410 N 0.90233 0.50656 0.64604 0.0
N2411 N 0.95866 0.49927 0.85041 0.0
C2412 C 0.91122 0.50711 0.70402 0.0
C2413 C 0.93908 0.50277 0.81205 0.0
N2414 N 0.89011 0.46835 0.73039 0.0
N2415 N 0.94457 0.54765 0.81111 0.0
H2416 H 0.96441 0.48154 0.86271 0.0
H2417 H 0.97152 0.51323 0.86089 0.0
H2418 H 0.94199 0.5654 0.79265 0.0
H2419 H 0.95135 0.5476 0.85547 0.0
H2420 H 0.87682 0.47086 0.69639 0.0
H2421 H 0.88669 0.45299 0.75814 0.0
H2422 H 0.89505 0.49049 0.62619 0.0
H2423 H 0.9041 0.52145 0.6161 0.0
C2424 C 0.26122 0.35478 0.06633 0.0
C2425 C 0.27826 0.33475 0.05554 0.0
C2426 C 0.25012 0.32086 0.97129 0.0
C2427 C 0.23354 0.34154 0.98009 0.0
N2428 N 0.22859 0.38199 0.02655 0.0
N2429 N 0.29181 0.30338 0.98468 0.0
C2430 C 0.24078 0.3596 0.0248 0.0
C2431 C 0.27354 0.31938 1.00381 0.0
N2432 N 0.26358 0.36863 0.11795 0.0
N2433 N 0.24307 0.30152 0.93496 0.0
H2434 H 0.30923 0.30232 1.00579 0.0
H2435 H 0.29079 0.29345 0.94411 0.0
H2436 H 0.22618 0.30114 0.91194 0.0
H2437 H 0.25287 0.28475 0.93236 0.0
H2438 H 0.25007 0.38135 0.13238 0.0
H2439 H 0.27811 0.3661 0.14881 0.0
H2440 H 0.23432 0.39682 0.05372 0.0
H2441 H 0.21457 0.38674 0.99577 0.0
C2442 C 0.43363 0.50756 0.82012 0.0
C2443 C 0.41839 0.52796 0.80058 0.0
C2444 C 0.40586 0.50133 0.71145 0.0
C2445 C 0.42489 0.48339 0.72499 0.0
N2446 N 0.45664 0.46972 0.79508 0.0
N2447 N 0.3858 0.54138 0.73262 0.0
C2448 C 0.43861 0.48673 0.78015 0.0
C2449 C 0.40327 0.52381 0.7477 0.0
N2450 N 0.44206 0.50694 0.87846 0.0
N2451 N 0.38993 0.49689 0.66423 0.0
H2452 H 0.37989 0.55511 0.76295 0.0
H2453 H 0.37705 0.54249 0.69061 0.0
H2454 H 0.39115 0.4813 0.63638 0.0
H2455 H 0.37419 0.50758 0.65459 0.0
H2456 H 0.45174 0.49195 0.89717 0.0
H2457 H 0.43594 0.51942 0.91117 0.0
H2458 H 0.47008 0.47285 0.82839 0.0
H2459 H 0.4588 0.45277 0.77243 0.0
C2460 C 0.26123 0.65322 0.46513 0.0
C2461 C 0.27747 0.67417 0.47248 0.0
C2462 C 0.24709 0.69085 0.54845 0.0
C2463 C 0.23164 0.66923 0.54461 0.0
N2464 N 0.22869 0.62687 0.50857 0.0
N2465 N 0.28848 0.70882 0.53673 0.0
C2466 C 0.2402 0.64956 0.50571 0.0
C2467 C 0.27117 0.69156 0.5192 0.0
N2468 N 0.26483 0.6373 0.41759 0.0
N2469 N 0.23814 0.71173 0.5761 0.0
H2470 H 0.3065 0.70934 0.51859 0.0
H2471 H 0.28593 0.72053 0.57402 0.0
H2472 H 0.22023 0.71257 0.59408 0.0
H2473 H 0.24731 0.72886 0.57461 0.0
H2474 H 0.2519 0.62369 0.40533 0.0
H2475 H 0.27974 0.63884 0.38745 0.0
H2476 H 0.23541 0.6111 0.48618 0.0
H2477 H 0.21408 0.62312 0.5386 0.0
C2478 C 0.07418 0.49747 0.29897 0.0
C2479 C 0.09594 0.48226 0.2942 0.0
C2480 C 0.11083 0.51132 0.21293 0.0
C2481 C 0.09007 0.52779 0.22238 0.0
N2482 N 0.05668 0.53907 0.29105 0.0
N2483 N 0.13783 0.4789 0.25457 0.0
C2484 C 0.0734 0.52166 0.27094 0.0
C2485 C 0.11513 0.49058 0.2537 0.0
N2486 N 0.05316 0.48808 0.32541 0.0
N2487 N 0.12575 0.51425 0.1632 0.0
H2488 H 0.14187 0.46425 0.28414 0.0
H2489 H 0.15333 0.48546 0.23076 0.0
H2490 H 0.1234 0.52847 0.13168 0.0
H2491 H 0.13917 0.50116 0.15032 0.0
H2492 H 0.03616 0.49762 0.32622 0.0
H2493 H 0.05188 0.46945 0.33824 0.0
H2494 H 0.04546 0.53627 0.32918 0.0
H2495 H 0.0563 0.55726 0.27423 0.0
loop_
_geom_bond_atom_site_label_1
_geom_bond_atom_site_label_2
_geom_bond_distance
_geom_bond_site_symmetry_2
_ccdc_geom_bond_type
Co0 N4 2.148 . S
Co0 N10 2.128 . S
Co0 N20 2.194 . S
Co0 O25 2.351 . S
Co0 O26 2.155 . S
Co0 O27 2.096 . S
C1 N4 1.301 . S
C1 N5 1.328 . S
C1 H6 0.930 . S
C2 C3 1.333 . S
C2 N4 1.317 . S
C2 H7 0.930 . S
C3 C2 1.333 . S
C3 N5 1.350 . S
C3 H29 0.931 . S
N4 Co0 2.148 . S
N4 C1 1.301 . S
N4 C2 1.317 . S
N5 C1 1.328 . S
N5 C3 1.350 . S
H6 C1 0.930 . S
H7 C2 0.930 . S
C8 O9 1.224 . S
C8 O27 1.247 . S
O9 C8 1.224 . S
N10 Co0 2.128 . S
N10 C11 1.355 . S
N10 C13 1.311 . S
C11 N10 1.355 . S
C11 C12 1.363 . S
C11 H23 0.929 . S
C12 C11 1.363 . S
C12 N14 1.375 . S
C12 H30 0.931 . S
C13 N10 1.311 . S
C13 N14 1.347 . S
C13 H24 0.929 . S
N14 C12 1.375 . S
N14 C13 1.347 . S
C15 C18 1.365 . S
C15 N20 1.328 . S
C15 H21 0.929 . S
C16 C17 1.362 . S
C16 C19 1.378 . S
C16 H31 0.929 . S
C17 C16 1.362 . S
C17 C18 1.366 . S
C18 C15 1.365 . S
C18 C17 1.366 . S
C18 H32 0.930 . S
C19 C16 1.378 . S
C19 N20 1.315 . S
C19 H22 0.930 . S
N20 Co0 2.194 . S
N20 C15 1.328 . S
N20 C19 1.315 . S
H21 C15 0.929 . S
H22 C19 0.930 . S
H23 C11 0.929 . S
H24 C13 0.929 . S
O25 Co0 2.351 . S
O25 C28 1.244 . S
O26 Co0 2.155 . S
O26 C28 1.240 . S
O27 Co0 2.096 . S
O27 C8 1.247 . S
C28 O25 1.244 . S
C28 O26 1.240 . S
H29 C3 0.931 . S
H30 C12 0.931 . S
H31 C16 0.929 . S
H32 C18 0.930 . S
Co33 N37 2.148 . S
Co33 N43 2.128 . S
Co33 N53 2.194 . S
Co33 O58 2.351 . S
Co33 O59 2.155 . S
Co33 O60 2.096 . S
C34 N37 1.301 . S
C34 N38 1.328 . S
C34 H39 0.930 . S
C35 C36 1.333 . S
C35 N37 1.317 . S
C35 H40 0.930 . S
C36 C35 1.333 . S
C36 N38 1.350 . S
C36 H62 0.931 . S
N37 Co33 2.148 . S
N37 C34 1.301 . S
N37 C35 1.317 . S
N38 C34 1.328 . S
N38 C36 1.350 . S
H39 C34 0.930 . S
H40 C35 0.930 . S
C41 O42 1.224 . S
C41 O60 1.247 . S
O42 C41 1.224 . S
N43 Co33 2.128 . S
N43 C44 1.355 . S
N43 C46 1.311 . S
C44 N43 1.355 . S
C44 C45 1.363 . S
C44 H56 0.929 . S
C45 C44 1.363 . S
C45 N47 1.375 . S
C45 H63 0.931 . S
C46 N43 1.311 . S
C46 N47 1.347 . S
C46 H57 0.929 . S
N47 C45 1.375 . S
N47 C46 1.347 . S
C48 C51 1.365 . S
C48 N53 1.328 . S
C48 H54 0.929 . S
C49 C50 1.362 1_455 S
C49 C52 1.378 . S
C49 H64 0.918 1_455 S
C50 C49 1.362 1_655 S
C50 C51 1.366 1_655 S
C51 C48 1.365 . S
C51 C50 1.366 1_455 S
C51 H65 0.930 . S
C52 C49 1.378 . S
C52 N53 1.315 . S
C52 H55 0.930 . S
N53 Co33 2.194 . S
N53 C48 1.328 . S
N53 C52 1.315 . S
H54 C48 0.929 . S
H55 C52 0.930 . S
H56 C44 0.929 . S
H57 C46 0.929 . S
O58 Co33 2.351 . S
O58 C61 1.244 . S
O59 Co33 2.155 . S
O59 C61 1.240 . S
O60 Co33 2.096 . S
O60 C41 1.247 . S
C61 O58 1.244 . S
C61 O59 1.240 . S
H62 C36 0.931 . S
H63 C45 0.931 . S
H64 C49 0.918 1_655 S
H65 C51 0.930 . S
Co66 N70 2.148 . S
Co66 N76 2.128 . S
Co66 N86 2.194 . S
Co66 O91 2.351 . S
Co66 O92 2.155 . S
Co66 O93 2.096 . S
C67 N70 1.301 . S
C67 N71 1.328 . S
C67 H72 0.930 . S
C68 C69 1.333 . S
C68 N70 1.317 . S
C68 H73 0.930 . S
C69 C68 1.333 . S
C69 N71 1.350 . S
C69 H95 0.931 . S
N70 Co66 2.148 . S
N70 C67 1.301 . S
N70 C68 1.317 . S
N71 C67 1.328 . S
N71 C69 1.350 . S
H72 C67 0.930 . S
H73 C68 0.930 . S
C74 O75 1.224 . S
C74 O93 1.247 . S
O75 C74 1.224 . S
N76 Co66 2.128 . S
N76 C77 1.355 . S
N76 C79 1.311 . S
C77 N76 1.355 . S
C77 C78 1.363 . S
C77 H89 0.929 . S
C78 C77 1.363 . S
C78 N80 1.375 . S
C78 H96 0.931 . S
C79 N76 1.311 . S
C79 N80 1.347 . S
C79 H90 0.929 . S
N80 C78 1.375 . S
N80 C79 1.347 . S
C81 C84 1.365 . S
C81 N86 1.328 . S
C81 H87 0.929 . S
C82 C83 1.362 . S
C82 C85 1.378 . S
C82 H97 0.929 . S
C83 C82 1.362 . S
C83 C84 1.366 . S
C84 C81 1.365 . S
C84 C83 1.366 . S
C84 H98 0.930 . S
C85 C82 1.378 . S
C85 N86 1.315 . S
C85 H88 0.930 . S
N86 Co66 2.194 . S
N86 C81 1.328 . S
N86 C85 1.315 . S
H87 C81 0.929 . S
H88 C85 0.930 . S
H89 C77 0.929 . S
H90 C79 0.929 . S
O91 Co66 2.351 . S
O91 C94 1.244 . S
O92 Co66 2.155 . S
O92 C94 1.240 . S
O93 Co66 2.096 . S
O93 C74 1.247 . S
C94 O91 1.244 . S
C94 O92 1.240 . S
H95 C69 0.931 . S
H96 C78 0.931 . S
H97 C82 0.929 . S
H98 C84 0.930 . S
Co99 N103 2.148 . S
Co99 N109 2.128 . S
Co99 N119 2.194 . S
Co99 O124 2.351 1_554 S
Co99 O125 2.155 . S
Co99 O126 2.096 . S
C100 N103 1.301 . S
C100 N104 1.328 . S
C100 H105 0.930 . S
C101 C102 1.333 . S
C101 N103 1.317 . S
C101 H106 0.930 . S
C102 C101 1.333 . S
C102 N104 1.350 . S
C102 H128 0.931 . S
N103 Co99 2.148 . S
N103 C100 1.301 . S
N103 C101 1.317 . S
N104 C100 1.328 . S
N104 C102 1.350 . S
H105 C100 0.930 . S
H106 C101 0.930 . S
C107 O108 1.224 . S
C107 O126 1.247 . S
O108 C107 1.224 . S
N109 Co99 2.128 . S
N109 C110 1.355 1_554 S
N109 C112 1.311 . S
C110 N109 1.355 1_556 S
C110 C111 1.363 . S
C110 H122 0.929 . S
C111 C110 1.363 . S
C111 N113 1.375 1_556 S
C111 H129 0.931 . S
C112 N109 1.311 . S
C112 N113 1.347 . S
C112 H123 0.929 . S
N113 C111 1.375 1_554 S
N113 C112 1.347 . S
C114 C117 1.365 . S
C114 N119 1.328 . S
C114 H120 0.929 . S
C115 C116 1.362 . S
C115 C118 1.378 . S
C115 H130 0.929 . S
C116 C115 1.362 . S
C116 C117 1.366 . S
C117 C114 1.365 . S
C117 C116 1.366 . S
C117 H131 0.930 . S
C118 C115 1.378 . S
C118 N119 1.315 . S
C118 H121 0.930 . S
N119 Co99 2.194 . S
N119 C114 1.328 . S
N119 C118 1.315 . S
H120 C114 0.929 . S
H121 C118 0.930 . S
H122 C110 0.929 . S
H123 C112 0.929 . S
O124 Co99 2.351 1_556 S
O124 C127 1.244 . S
O125 Co99 2.155 . S
O125 C127 1.240 1_554 S
O126 Co99 2.096 . S
O126 C107 1.247 . S
C127 O124 1.244 . S
C127 O125 1.240 1_556 S
H128 C102 0.931 . S
H129 C111 0.931 . S
H130 C115 0.929 . S
H131 C117 0.930 . S
Co132 N136 2.148 . S
Co132 N142 2.128 . S
Co132 N152 2.194 . S
Co132 O157 2.351 . S
Co132 O158 2.155 . S
Co132 O159 2.096 . S
C133 N136 1.301 . S
C133 N137 1.328 . S
C133 H138 0.930 . S
C134 C135 1.333 . S
C134 N136 1.317 . S
C134 H139 0.930 . S
C135 C134 1.333 . S
C135 N137 1.350 . S
C135 H161 0.931 . S
N136 Co132 2.148 . S
N136 C133 1.301 . S
N136 C134 1.317 . S
N137 C133 1.328 . S
N137 C135 1.350 . S
H138 C133 0.930 . S
H139 C134 0.930 . S
C140 O141 1.224 . S
C140 O159 1.247 . S
O141 C140 1.224 . S
N142 Co132 2.128 . S
N142 C143 1.355 . S
N142 C145 1.311 . S
C143 N142 1.355 . S
C143 C144 1.363 . S
C143 H155 0.929 . S
C144 C143 1.363 . S
C144 N146 1.375 . S
C144 H162 0.931 . S
C145 N142 1.311 . S
C145 N146 1.347 . S
C145 H156 0.929 . S
N146 C144 1.375 . S
N146 C145 1.347 . S
C147 C150 1.365 . S
C147 N152 1.328 . S
C147 H153 0.929 . S
C148 C149 1.362 . S
C148 C151 1.378 . S
C148 H163 0.929 . S
C149 C148 1.362 . S
C149 C150 1.366 . S
C150 C147 1.365 . S
C150 C149 1.366 . S
C150 H164 0.930 . S
C151 C148 1.378 . S
C151 N152 1.315 . S
C151 H154 0.930 . S
N152 Co132 2.194 . S
N152 C147 1.328 . S
N152 C151 1.315 . S
H153 C147 0.929 . S
H154 C151 0.930 . S
H155 C143 0.929 . S
H156 C145 0.929 . S
O157 Co132 2.351 . S
O157 C160 1.244 . S
O158 Co132 2.155 . S
O158 C160 1.240 . S
O159 Co132 2.096 . S
O159 C140 1.247 . S
C160 O157 1.244 . S
C160 O158 1.240 . S
H161 C135 0.931 . S
H162 C144 0.931 . S
H163 C148 0.929 . S
H164 C150 0.930 . S
Co165 N169 2.148 . S
Co165 N175 2.128 . S
Co165 N185 2.194 . S
Co165 O190 2.351 . S
Co165 O191 2.155 . S
Co165 O192 2.096 . S
C166 N169 1.301 . S
C166 N170 1.328 . S
C166 H171 0.930 . S
C167 C168 1.333 . S
C167 N169 1.317 . S
C167 H172 0.930 . S
C168 C167 1.333 . S
C168 N170 1.350 . S
C168 H194 0.931 . S
N169 Co165 2.148 . S
N169 C166 1.301 . S
N169 C167 1.317 . S
N170 C166 1.328 . S
N170 C168 1.350 . S
H171 C166 0.930 . S
H172 C167 0.930 . S
C173 O174 1.224 . S
C173 O192 1.247 . S
O174 C173 1.224 . S
N175 Co165 2.128 . S
N175 C176 1.355 . S
N175 C178 1.311 . S
C176 N175 1.355 . S
C176 C177 1.363 . S
C176 H188 0.929 . S
C177 C176 1.363 . S
C177 N179 1.375 . S
C177 H195 0.931 . S
C178 N175 1.311 . S
C178 N179 1.347 . S
C178 H189 0.929 . S
N179 C177 1.375 . S
N179 C178 1.347 . S
C180 C183 1.365 . S
C180 N185 1.328 . S
C180 H186 0.929 . S
C181 C182 1.362 . S
C181 C184 1.378 . S
C181 H196 0.929 . S
C182 C181 1.362 . S
C182 C183 1.366 . S
C183 C180 1.365 . S
C183 C182 1.366 . S
C183 H197 0.930 . S
C184 C181 1.378 . S
C184 N185 1.315 . S
C184 H187 0.930 . S
N185 Co165 2.194 . S
N185 C180 1.328 . S
N185 C184 1.315 . S
H186 C180 0.929 . S
H187 C184 0.930 . S
H188 C176 0.929 . S
H189 C178 0.929 . S
O190 Co165 2.351 . S
O190 C193 1.244 . S
O191 Co165 2.155 . S
O191 C193 1.240 . S
O192 Co165 2.096 . S
O192 C173 1.247 . S
C193 O190 1.244 . S
C193 O191 1.240 . S
H194 C168 0.931 . S
H195 C177 0.931 . S
H196 C181 0.929 . S
H197 C183 0.930 . S
Co198 N202 2.148 . S
Co198 N208 2.128 . S
Co198 N218 2.194 . S
Co198 O223 2.351 . S
Co198 O224 2.155 . S
Co198 O225 2.096 . S
C199 N202 1.301 . S
C199 N203 1.328 . S
C199 H204 0.930 . S
C200 C201 1.333 . S
C200 N202 1.317 . S
C200 H205 0.930 . S
C201 C200 1.333 . S
C201 N203 1.350 . S
C201 H227 0.931 . S
N202 Co198 2.148 . S
N202 C199 1.301 . S
N202 C200 1.317 . S
N203 C199 1.328 . S
N203 C201 1.350 . S
H204 C199 0.930 . S
H205 C200 0.930 . S
C206 O207 1.224 . S
C206 O225 1.247 . S
O207 C206 1.224 . S
N208 Co198 2.128 . S
N208 C209 1.355 . S
N208 C211 1.311 . S
C209 N208 1.355 . S
C209 C210 1.363 . S
C209 H221 0.929 . S
C210 C209 1.363 . S
C210 N212 1.375 . S
C210 H228 0.931 . S
C211 N208 1.311 . S
C211 N212 1.347 . S
C211 H222 0.929 . S
N212 C210 1.375 . S
N212 C211 1.347 . S
C213 C216 1.365 . S
C213 N218 1.328 . S
C213 H219 0.929 . S
C214 C215 1.362 . S
C214 C217 1.378 . S
C214 H229 0.929 . S
C215 C214 1.362 . S
C215 C216 1.366 . S
C216 C213 1.365 . S
C216 C215 1.366 . S
C216 H230 0.930 . S
C217 C214 1.378 . S
C217 N218 1.315 . S
C217 H220 0.930 . S
N218 Co198 2.194 . S
N218 C213 1.328 . S
N218 C217 1.315 . S
H219 C213 0.929 . S
H220 C217 0.930 . S
H221 C209 0.929 . S
H222 C211 0.929 . S
O223 Co198 2.351 . S
O223 C226 1.244 . S
O224 Co198 2.155 . S
O224 C226 1.240 . S
O225 Co198 2.096 . S
O225 C206 1.247 . S
C226 O223 1.244 . S
C226 O224 1.240 . S
H227 C201 0.931 . S
H228 C210 0.931 . S
H229 C214 0.929 . S
H230 C216 0.930 . S
Co231 N235 2.148 . S
Co231 N241 2.128 . S
Co231 N251 2.194 . S
Co231 O256 2.351 1_556 S
Co231 O257 2.155 . S
Co231 O258 2.096 . S
C232 N235 1.301 . S
C232 N236 1.328 . S
C232 H237 0.930 . S
C233 C234 1.333 . S
C233 N235 1.317 . S
C233 H238 0.930 . S
C234 C233 1.333 . S
C234 N236 1.350 . S
C234 H260 0.931 . S
N235 Co231 2.148 . S
N235 C232 1.301 . S
N235 C233 1.317 . S
N236 C232 1.328 . S
N236 C234 1.350 . S
H237 C232 0.930 . S
H238 C233 0.930 . S
C239 O240 1.224 . S
C239 O258 1.247 . S
O240 C239 1.224 . S
N241 Co231 2.128 . S
N241 C242 1.355 1_556 S
N241 C244 1.311 . S
C242 N241 1.355 1_554 S
C242 C243 1.363 . S
C242 H254 0.929 . S
C243 C242 1.363 . S
C243 N245 1.375 1_554 S
C243 H261 0.931 . S
C244 N241 1.311 . S
C244 N245 1.347 . S
C244 H255 0.929 . S
N245 C243 1.375 1_556 S
N245 C244 1.347 . S
C246 C249 1.365 . S
C246 N251 1.328 . S
C246 H252 0.929 . S
C247 C248 1.362 1_455 S
C247 C250 1.378 . S
C247 H262 0.918 1_455 S
C248 C247 1.362 1_655 S
C248 C249 1.366 1_655 S
C249 C246 1.365 . S
C249 C248 1.366 1_455 S
C249 H263 0.930 . S
C250 C247 1.378 . S
C250 N251 1.315 . S
C250 H253 0.930 . S
N251 Co231 2.194 . S
N251 C246 1.328 . S
N251 C250 1.315 . S
H252 C246 0.929 . S
H253 C250 0.930 . S
H254 C242 0.929 . S
H255 C244 0.929 . S
O256 Co231 2.351 1_554 S
O256 C259 1.244 . S
O257 Co231 2.155 . S
O257 C259 1.240 1_556 S
O258 Co231 2.096 . S
O258 C239 1.247 . S
C259 O256 1.244 . S
C259 O257 1.240 1_554 S
H260 C234 0.931 . S
H261 C243 0.931 . S
H262 C247 0.918 1_655 S
H263 C249 0.930 . S
Co264 N268 2.148 . S
Co264 N274 2.128 . S
Co264 N284 2.194 . S
Co264 O289 2.351 . S
Co264 O290 2.155 . S
Co264 O291 2.096 . S
C265 N268 1.301 . S
C265 N269 1.328 . S
C265 H270 0.930 . S
C266 C267 1.333 . S
C266 N268 1.317 . S
C266 H271 0.930 . S
C267 C266 1.333 . S
C267 N269 1.350 . S
C267 H293 0.931 . S
N268 Co264 2.148 . S
N268 C265 1.301 . S
N268 C266 1.317 . S
N269 C265 1.328 . S
N269 C267 1.350 . S
H270 C265 0.930 . S
H271 C266 0.930 . S
C272 O273 1.224 . S
C272 O291 1.247 . S
O273 C272 1.224 . S
N274 Co264 2.128 . S
N274 C275 1.355 . S
N274 C277 1.311 . S
C275 N274 1.355 . S
C275 C276 1.363 . S
C275 H287 0.929 . S
C276 C275 1.363 . S
C276 N278 1.375 . S
C276 H294 0.931 . S
C277 N274 1.311 . S
C277 N278 1.347 . S
C277 H288 0.929 . S
N278 C276 1.375 . S
N278 C277 1.347 . S
C279 C282 1.365 . S
C279 N284 1.328 . S
C279 H285 0.929 . S
C280 C281 1.362 . S
C280 C283 1.378 . S
C280 H295 0.929 . S
C281 C280 1.362 . S
C281 C282 1.366 . S
C282 C279 1.365 . S
C282 C281 1.366 . S
C282 H296 0.930 . S
C283 C280 1.378 . S
C283 N284 1.315 . S
C283 H286 0.930 . S
N284 Co264 2.194 . S
N284 C279 1.328 . S
N284 C283 1.315 . S
H285 C279 0.929 . S
H286 C283 0.930 . S
H287 C275 0.929 . S
H288 C277 0.929 . S
O289 Co264 2.351 . S
O289 C292 1.244 . S
O290 Co264 2.155 . S
O290 C292 1.240 . S
O291 Co264 2.096 . S
O291 C272 1.247 . S
C292 O289 1.244 . S
C292 O290 1.240 . S
H293 C267 0.931 . S
H294 C276 0.931 . S
H295 C280 0.929 . S
H296 C282 0.930 . S
Co297 N301 2.148 . S
Co297 N307 2.128 . S
Co297 N317 2.194 . S
Co297 O322 2.351 . S
Co297 O323 2.155 . S
Co297 O324 2.096 . S
C298 N301 1.301 . S
C298 N302 1.328 . S
C298 H303 0.930 . S
C299 C300 1.333 . S
C299 N301 1.317 . S
C299 H304 0.930 . S
C300 C299 1.333 . S
C300 N302 1.350 . S
C300 H326 0.931 . S
N301 Co297 2.148 . S
N301 C298 1.301 . S
N301 C299 1.317 . S
N302 C298 1.328 . S
N302 C300 1.350 . S
H303 C298 0.930 . S
H304 C299 0.930 . S
C305 O306 1.224 . S
C305 O324 1.247 . S
O306 C305 1.224 . S
N307 Co297 2.128 . S
N307 C308 1.355 . S
N307 C310 1.311 . S
C308 N307 1.355 . S
C308 C309 1.363 . S
C308 H320 0.929 . S
C309 C308 1.363 . S
C309 N311 1.375 . S
C309 H327 0.931 . S
C310 N307 1.311 . S
C310 N311 1.347 . S
C310 H321 0.929 . S
N311 C309 1.375 . S
N311 C310 1.347 . S
C312 C315 1.365 . S
C312 N317 1.328 . S
C312 H318 0.929 . S
C313 C314 1.362 1_655 S
C313 C316 1.378 . S
C313 H328 0.918 1_655 S
C314 C313 1.362 1_455 S
C314 C315 1.366 1_455 S
C315 C312 1.365 . S
C315 C314 1.366 1_655 S
C315 H329 0.930 . S
C316 C313 1.378 . S
C316 N317 1.315 . S
C316 H319 0.930 . S
N317 Co297 2.194 . S
N317 C312 1.328 . S
N317 C316 1.315 . S
H318 C312 0.929 . S
H319 C316 0.930 . S
H320 C308 0.929 . S
H321 C310 0.929 . S
O322 Co297 2.351 . S
O322 C325 1.244 . S
O323 Co297 2.155 . S
O323 C325 1.240 . S
O324 Co297 2.096 . S
O324 C305 1.247 . S
C325 O322 1.244 . S
C325 O323 1.240 . S
H326 C300 0.931 . S
H327 C309 0.931 . S
H328 C313 0.918 1_455 S
H329 C315 0.930 . S
Co330 N334 2.148 . S
Co330 N340 2.128 . S
Co330 N350 2.194 . S
Co330 O355 2.351 . S
Co330 O356 2.155 . S
Co330 O357 2.096 . S
C331 N334 1.301 . S
C331 N335 1.328 . S
C331 H336 0.930 . S
C332 C333 1.333 . S
C332 N334 1.317 . S
C332 H337 0.930 . S
C333 C332 1.333 . S
C333 N335 1.350 . S
C333 H359 0.931 . S
N334 Co330 2.148 . S
N334 C331 1.301 . S
N334 C332 1.317 . S
N335 C331 1.328 . S
N335 C333 1.350 . S
H336 C331 0.930 . S
H337 C332 0.930 . S
C338 O339 1.224 . S
C338 O357 1.247 . S
O339 C338 1.224 . S
N340 Co330 2.128 . S
N340 C341 1.355 . S
N340 C343 1.311 . S
C341 N340 1.355 . S
C341 C342 1.363 . S
C341 H353 0.929 . S
C342 C341 1.363 . S
C342 N344 1.375 . S
C342 H360 0.931 . S
C343 N340 1.311 . S
C343 N344 1.347 . S
C343 H354 0.929 . S
N344 C342 1.375 . S
N344 C343 1.347 . S
C345 C348 1.365 . S
C345 N350 1.328 . S
C345 H351 0.929 . S
C346 C347 1.362 . S
C346 C349 1.378 . S
C346 H361 0.929 . S
C347 C346 1.362 . S
C347 C348 1.366 . S
C348 C345 1.365 . S
C348 C347 1.366 . S
C348 H362 0.930 . S
C349 C346 1.378 . S
C349 N350 1.315 . S
C349 H352 0.930 . S
N350 Co330 2.194 . S
N350 C345 1.328 . S
N350 C349 1.315 . S
H351 C345 0.929 . S
H352 C349 0.930 . S
H353 C341 0.929 . S
H354 C343 0.929 . S
O355 Co330 2.351 . S
O355 C358 1.244 . S
O356 Co330 2.155 . S
O356 C358 1.240 . S
O357 Co330 2.096 . S
O357 C338 1.247 . S
C358 O355 1.244 . S
C358 O356 1.240 . S
H359 C333 0.931 . S
H360 C342 0.931 . S
H361 C346 0.929 . S
H362 C348 0.930 . S
Co363 N367 2.148 . S
Co363 N373 2.128 . S
Co363 N383 2.194 . S
Co363 O388 2.351 1_556 S
Co363 O389 2.155 . S
Co363 O390 2.096 . S
C364 N367 1.301 . S
C364 N368 1.328 . S
C364 H369 0.930 . S
C365 C366 1.333 . S
C365 N367 1.317 . S
C365 H370 0.930 . S
C366 C365 1.333 . S
C366 N368 1.350 . S
C366 H392 0.931 . S
N367 Co363 2.148 . S
N367 C364 1.301 . S
N367 C365 1.317 . S
N368 C364 1.328 . S
N368 C366 1.350 . S
H369 C364 0.930 . S
H370 C365 0.930 . S
C371 O372 1.224 . S
C371 O390 1.247 . S
O372 C371 1.224 . S
N373 Co363 2.128 . S
N373 C374 1.355 1_556 S
N373 C376 1.311 . S
C374 N373 1.355 1_554 S
C374 C375 1.363 . S
C374 H386 0.929 . S
C375 C374 1.363 . S
C375 N377 1.375 1_554 S
C375 H393 0.931 . S
C376 N373 1.311 . S
C376 N377 1.347 . S
C376 H387 0.929 . S
N377 C375 1.375 1_556 S
N377 C376 1.347 . S
C378 C381 1.365 . S
C378 N383 1.328 . S
C378 H384 0.929 . S
C379 C380 1.362 . S
C379 C382 1.378 . S
C379 H394 0.929 . S
C380 C379 1.362 . S
C380 C381 1.366 . S
C381 C378 1.365 . S
C381 C380 1.366 . S
C381 H395 0.930 . S
C382 C379 1.378 . S
C382 N383 1.315 . S
C382 H385 0.930 . S
N383 Co363 2.194 . S
N383 C378 1.328 . S
N383 C382 1.315 . S
H384 C378 0.929 . S
H385 C382 0.930 . S
H386 C374 0.929 . S
H387 C376 0.929 . S
O388 Co363 2.351 1_554 S
O388 C391 1.244 . S
O389 Co363 2.155 . S
O389 C391 1.240 1_556 S
O390 Co363 2.096 . S
O390 C371 1.247 . S
C391 O388 1.244 . S
C391 O389 1.240 1_554 S
H392 C366 0.931 . S
H393 C375 0.931 . S
H394 C379 0.929 . S
H395 C381 0.930 . S
Co396 N400 2.148 . S
Co396 N406 2.128 . S
Co396 N416 2.194 . S
Co396 O421 2.351 . S
Co396 O422 2.155 . S
Co396 O423 2.096 . S
C397 N400 1.301 . S
C397 N401 1.328 . S
C397 H402 0.930 . S
C398 C399 1.333 . S
C398 N400 1.317 . S
C398 H403 0.930 . S
C399 C398 1.333 . S
C399 N401 1.350 . S
C399 H425 0.931 . S
N400 Co396 2.148 . S
N400 C397 1.301 . S
N400 C398 1.317 . S
N401 C397 1.328 . S
N401 C399 1.350 . S
H402 C397 0.930 . S
H403 C398 0.930 . S
C404 O405 1.224 . S
C404 O423 1.247 . S
O405 C404 1.224 . S
N406 Co396 2.128 . S
N406 C407 1.355 . S
N406 C409 1.311 . S
C407 N406 1.355 . S
C407 C408 1.363 . S
C407 H419 0.929 . S
C408 C407 1.363 . S
C408 N410 1.375 . S
C408 H426 0.931 . S
C409 N406 1.311 . S
C409 N410 1.347 . S
C409 H420 0.929 . S
N410 C408 1.375 . S
N410 C409 1.347 . S
C411 C414 1.365 . S
C411 N416 1.328 . S
C411 H417 0.929 . S
C412 C413 1.362 . S
C412 C415 1.378 . S
C412 H427 0.929 . S
C413 C412 1.362 . S
C413 C414 1.366 . S
C414 C411 1.365 . S
C414 C413 1.366 . S
C414 H428 0.930 . S
C415 C412 1.378 . S
C415 N416 1.315 . S
C415 H418 0.930 . S
N416 Co396 2.194 . S
N416 C411 1.328 . S
N416 C415 1.315 . S
H417 C411 0.929 . S
H418 C415 0.930 . S
H419 C407 0.929 . S
H420 C409 0.929 . S
O421 Co396 2.351 . S
O421 C424 1.244 . S
O422 Co396 2.155 . S
O422 C424 1.240 . S
O423 Co396 2.096 . S
O423 C404 1.247 . S
C424 O421 1.244 . S
C424 O422 1.240 . S
H425 C399 0.931 . S
H426 C408 0.931 . S
H427 C412 0.929 . S
H428 C414 0.930 . S
Co429 N433 2.148 . S
Co429 N439 2.128 . S
Co429 N449 2.194 . S
Co429 O454 2.351 . S
Co429 O455 2.155 . S
Co429 O456 2.096 . S
C430 N433 1.301 . S
C430 N434 1.328 . S
C430 H435 0.930 . S
C431 C432 1.333 . S
C431 N433 1.317 . S
C431 H436 0.930 . S
C432 C431 1.333 . S
C432 N434 1.350 . S
C432 H458 0.931 . S
N433 Co429 2.148 . S
N433 C430 1.301 . S
N433 C431 1.317 . S
N434 C430 1.328 . S
N434 C432 1.350 . S
H435 C430 0.930 . S
H436 C431 0.930 . S
C437 O438 1.224 . S
C437 O456 1.247 . S
O438 C437 1.224 . S
N439 Co429 2.128 . S
N439 C440 1.355 . S
N439 C442 1.311 . S
C440 N439 1.355 . S
C440 C441 1.363 . S
C440 H452 0.929 . S
C441 C440 1.363 . S
C441 N443 1.375 . S
C441 H459 0.931 . S
C442 N439 1.311 . S
C442 N443 1.347 . S
C442 H453 0.929 . S
N443 C441 1.375 . S
N443 C442 1.347 . S
C444 C447 1.365 . S
C444 N449 1.328 . S
C444 H450 0.929 . S
C445 C446 1.362 . S
C445 C448 1.378 . S
C445 H460 0.929 . S
C446 C445 1.362 . S
C446 C447 1.366 . S
C447 C444 1.365 . S
C447 C446 1.366 . S
C447 H461 0.930 . S
C448 C445 1.378 . S
C448 N449 1.315 . S
C448 H451 0.930 . S
N449 Co429 2.194 . S
N449 C444 1.328 . S
N449 C448 1.315 . S
H450 C444 0.929 . S
H451 C448 0.930 . S
H452 C440 0.929 . S
H453 C442 0.929 . S
O454 Co429 2.351 . S
O454 C457 1.244 . S
O455 Co429 2.155 . S
O455 C457 1.240 . S
O456 Co429 2.096 . S
O456 C437 1.247 . S
C457 O454 1.244 . S
C457 O455 1.240 . S
H458 C432 0.931 . S
H459 C441 0.931 . S
H460 C445 0.929 . S
H461 C447 0.930 . S
Co462 N466 2.148 . S
Co462 N472 2.128 . S
Co462 N482 2.194 . S
Co462 O487 2.351 . S
Co462 O488 2.155 . S
Co462 O489 2.096 . S
C463 N466 1.301 . S
C463 N467 1.328 . S
C463 H468 0.930 . S
C464 C465 1.333 . S
C464 N466 1.317 . S
C464 H469 0.930 . S
C465 C464 1.333 . S
C465 N467 1.350 . S
C465 H491 0.931 . S
N466 Co462 2.148 . S
N466 C463 1.301 . S
N466 C464 1.317 . S
N467 C463 1.328 . S
N467 C465 1.350 . S
H468 C463 0.930 . S
H469 C464 0.930 . S
C470 O471 1.224 . S
C470 O489 1.247 . S
O471 C470 1.224 . S
N472 Co462 2.128 . S
N472 C473 1.355 . S
N472 C475 1.311 . S
C473 N472 1.355 . S
C473 C474 1.363 . S
C473 H485 0.929 . S
C474 C473 1.363 . S
C474 N476 1.375 . S
C474 H492 0.931 . S
C475 N472 1.311 . S
C475 N476 1.347 . S
C475 H486 0.929 . S
N476 C474 1.375 . S
N476 C475 1.347 . S
C477 C480 1.365 . S
C477 N482 1.328 . S
C477 H483 0.929 . S
C478 C479 1.362 . S
C478 C481 1.378 . S
C478 H493 0.929 . S
C479 C478 1.362 . S
C479 C480 1.366 . S
C480 C477 1.365 . S
C480 C479 1.366 . S
C480 H494 0.930 . S
C481 C478 1.378 . S
C481 N482 1.315 . S
C481 H484 0.930 . S
N482 Co462 2.194 . S
N482 C477 1.328 . S
N482 C481 1.315 . S
H483 C477 0.929 . S
H484 C481 0.930 . S
H485 C473 0.929 . S
H486 C475 0.929 . S
O487 Co462 2.351 . S
O487 C490 1.244 . S
O488 Co462 2.155 . S
O488 C490 1.240 . S
O489 Co462 2.096 . S
O489 C470 1.247 . S
C490 O487 1.244 . S
C490 O488 1.240 . S
H491 C465 0.931 . S
H492 C474 0.931 . S
H493 C478 0.929 . S
H494 C480 0.930 . S
Co495 N499 2.148 . S
Co495 N505 2.128 . S
Co495 N515 2.194 . S
Co495 O520 2.351 1_554 S
Co495 O521 2.155 . S
Co495 O522 2.096 . S
C496 N499 1.301 . S
C496 N500 1.328 . S
C496 H501 0.930 . S
C497 C498 1.333 . S
C497 N499 1.317 . S
C497 H502 0.930 . S
C498 C497 1.333 . S
C498 N500 1.350 . S
C498 H524 0.931 . S
N499 Co495 2.148 . S
N499 C496 1.301 . S
N499 C497 1.317 . S
N500 C496 1.328 . S
N500 C498 1.350 . S
H501 C496 0.930 . S
H502 C497 0.930 . S
C503 O504 1.224 . S
C503 O522 1.247 . S
O504 C503 1.224 . S
N505 Co495 2.128 . S
N505 C506 1.355 1_554 S
N505 C508 1.311 . S
C506 N505 1.355 1_556 S
C506 C507 1.363 . S
C506 H518 0.929 . S
C507 C506 1.363 . S
C507 N509 1.375 1_556 S
C507 H525 0.931 . S
C508 N505 1.311 . S
C508 N509 1.347 . S
C508 H519 0.929 . S
N509 C507 1.375 1_554 S
N509 C508 1.347 . S
C510 C513 1.365 . S
C510 N515 1.328 . S
C510 H516 0.929 . S
C511 C512 1.362 1_655 S
C511 C514 1.378 . S
C511 H526 0.918 1_655 S
C512 C511 1.362 1_455 S
C512 C513 1.366 1_455 S
C513 C510 1.365 . S
C513 C512 1.366 1_655 S
C513 H527 0.930 . S
C514 C511 1.378 . S
C514 N515 1.315 . S
C514 H517 0.930 . S
N515 Co495 2.194 . S
N515 C510 1.328 . S
N515 C514 1.315 . S
H516 C510 0.929 . S
H517 C514 0.930 . S
H518 C506 0.929 . S
H519 C508 0.929 . S
O520 Co495 2.351 1_556 S
O520 C523 1.244 . S
O521 Co495 2.155 . S
O521 C523 1.240 1_554 S
O522 Co495 2.096 . S
O522 C503 1.247 . S
C523 O520 1.244 . S
C523 O521 1.240 1_556 S
H524 C498 0.931 . S
H525 C507 0.931 . S
H526 C511 0.918 1_455 S
H527 C513 0.930 . S
Co528 N532 2.148 . S
Co528 N538 2.128 . S
Co528 N548 2.194 . S
Co528 O553 2.351 . S
Co528 O554 2.155 . S
Co528 O555 2.096 . S
C529 N532 1.301 . S
C529 N533 1.328 . S
C529 H534 0.930 . S
C530 C531 1.333 . S
C530 N532 1.317 . S
C530 H535 0.930 . S
C531 C530 1.333 . S
C531 N533 1.350 . S
C531 H557 0.931 . S
N532 Co528 2.148 . S
N532 C529 1.301 . S
N532 C530 1.317 . S
N533 C529 1.328 . S
N533 C531 1.350 . S
H534 C529 0.930 . S
H535 C530 0.930 . S
C536 O537 1.224 . S
C536 O555 1.247 . S
O537 C536 1.224 . S
N538 Co528 2.128 . S
N538 C539 1.355 . S
N538 C541 1.311 . S
C539 N538 1.355 . S
C539 C540 1.363 . S
C539 H551 0.929 . S
C540 C539 1.363 . S
C540 N542 1.375 . S
C540 H558 0.931 . S
C541 N538 1.311 . S
C541 N542 1.347 . S
C541 H552 0.929 . S
N542 C540 1.375 . S
N542 C541 1.347 . S
C543 C546 1.365 . S
C543 N548 1.328 . S
C543 H549 0.929 . S
C544 C545 1.362 . S
C544 C547 1.378 . S
C544 H559 0.929 . S
C545 C544 1.362 . S
C545 C546 1.366 . S
C546 C543 1.365 . S
C546 C545 1.366 . S
C546 H560 0.930 . S
C547 C544 1.378 . S
C547 N548 1.315 . S
C547 H550 0.930 . S
N548 Co528 2.194 . S
N548 C543 1.328 . S
N548 C547 1.315 . S
H549 C543 0.929 . S
H550 C547 0.930 . S
H551 C539 0.929 . S
H552 C541 0.929 . S
O553 Co528 2.351 . S
O553 C556 1.244 . S
O554 Co528 2.155 . S
O554 C556 1.240 . S
O555 Co528 2.096 . S
O555 C536 1.247 . S
C556 O553 1.244 . S
C556 O554 1.240 . S
H557 C531 0.931 . S
H558 C540 0.931 . S
H559 C544 0.929 . S
H560 C546 0.930 . S
Co561 N565 2.148 . S
Co561 N571 2.128 . S
Co561 N581 2.194 . S
Co561 O586 2.351 1_554 S
Co561 O587 2.155 . S
Co561 O588 2.096 . S
C562 N565 1.301 . S
C562 N566 1.328 . S
C562 H567 0.930 . S
C563 C564 1.333 . S
C563 N565 1.317 . S
C563 H568 0.930 . S
C564 C563 1.333 . S
C564 N566 1.350 . S
C564 H590 0.931 . S
N565 Co561 2.148 . S
N565 C562 1.301 . S
N565 C563 1.317 . S
N566 C562 1.328 . S
N566 C564 1.350 . S
H567 C562 0.930 . S
H568 C563 0.930 . S
C569 O570 1.224 . S
C569 O588 1.247 . S
O570 C569 1.224 . S
N571 Co561 2.128 . S
N571 C572 1.355 1_554 S
N571 C574 1.311 . S
C572 N571 1.355 1_556 S
C572 C573 1.363 . S
C572 H584 0.929 . S
C573 C572 1.363 . S
C573 N575 1.375 1_556 S
C573 H591 0.931 . S
C574 N571 1.311 . S
C574 N575 1.347 . S
C574 H585 0.929 . S
N575 C573 1.375 1_554 S
N575 C574 1.347 . S
C576 C579 1.365 . S
C576 N581 1.328 . S
C576 H582 0.929 . S
C577 C578 1.362 . S
C577 C580 1.378 . S
C577 H592 0.929 . S
C578 C577 1.362 . S
C578 C579 1.366 . S
C579 C576 1.365 . S
C579 C578 1.366 . S
C579 H593 0.930 . S
C580 C577 1.378 . S
C580 N581 1.315 . S
C580 H583 0.930 . S
N581 Co561 2.194 . S
N581 C576 1.328 . S
N581 C580 1.315 . S
H582 C576 0.929 . S
H583 C580 0.930 . S
H584 C572 0.929 . S
H585 C574 0.929 . S
O586 Co561 2.351 1_556 S
O586 C589 1.244 . S
O587 Co561 2.155 . S
O587 C589 1.240 1_554 S
O588 Co561 2.096 . S
O588 C569 1.247 . S
C589 O586 1.244 . S
C589 O587 1.240 1_556 S
H590 C564 0.931 . S
H591 C573 0.931 . S
H592 C577 0.929 . S
H593 C579 0.930 . S
Co594 N598 2.148 . S
Co594 N604 2.128 . S
Co594 N614 2.194 . S
Co594 O619 2.351 . S
Co594 O620 2.155 . S
Co594 O621 2.096 . S
C595 N598 1.301 . S
C595 N599 1.328 . S
C595 H600 0.930 . S
C596 C597 1.333 . S
C596 N598 1.317 . S
C596 H601 0.930 . S
C597 C596 1.333 . S
C597 N599 1.350 . S
C597 H623 0.931 . S
N598 Co594 2.148 . S
N598 C595 1.301 . S
N598 C596 1.317 . S
N599 C595 1.328 . S
N599 C597 1.350 . S
H600 C595 0.930 . S
H601 C596 0.930 . S
C602 O603 1.224 . S
C602 O621 1.247 . S
O603 C602 1.224 . S
N604 Co594 2.128 . S
N604 C605 1.355 . S
N604 C607 1.311 . S
C605 N604 1.355 . S
C605 C606 1.363 . S
C605 H617 0.929 . S
C606 C605 1.363 . S
C606 N608 1.375 . S
C606 H624 0.931 . S
C607 N604 1.311 . S
C607 N608 1.347 . S
C607 H618 0.929 . S
N608 C606 1.375 . S
N608 C607 1.347 . S
C609 C612 1.365 . S
C609 N614 1.328 . S
C609 H615 0.929 . S
C610 C611 1.362 . S
C610 C613 1.378 . S
C610 H625 0.929 . S
C611 C610 1.362 . S
C611 C612 1.366 . S
C612 C609 1.365 . S
C612 C611 1.366 . S
C612 H626 0.930 . S
C613 C610 1.378 . S
C613 N614 1.315 . S
C613 H616 0.930 . S
N614 Co594 2.194 . S
N614 C609 1.328 . S
N614 C613 1.315 . S
H615 C609 0.929 . S
H616 C613 0.930 . S
H617 C605 0.929 . S
H618 C607 0.929 . S
O619 Co594 2.351 . S
O619 C622 1.244 . S
O620 Co594 2.155 . S
O620 C622 1.240 . S
O621 Co594 2.096 . S
O621 C602 1.247 . S
C622 O619 1.244 . S
C622 O620 1.240 . S
H623 C597 0.931 . S
H624 C606 0.931 . S
H625 C610 0.929 . S
H626 C612 0.930 . S
Co627 N631 2.148 . S
Co627 N637 2.128 . S
Co627 N647 2.194 . S
Co627 O652 2.351 . S
Co627 O653 2.155 . S
Co627 O654 2.096 . S
C628 N631 1.301 . S
C628 N632 1.328 . S
C628 H633 0.930 . S
C629 C630 1.333 . S
C629 N631 1.317 . S
C629 H634 0.930 . S
C630 C629 1.333 . S
C630 N632 1.350 . S
C630 H656 0.931 . S
N631 Co627 2.148 . S
N631 C628 1.301 . S
N631 C629 1.317 . S
N632 C628 1.328 . S
N632 C630 1.350 . S
H633 C628 0.930 . S
H634 C629 0.930 . S
C635 O636 1.224 . S
C635 O654 1.247 . S
O636 C635 1.224 . S
N637 Co627 2.128 . S
N637 C638 1.355 . S
N637 C640 1.311 . S
C638 N637 1.355 . S
C638 C639 1.363 . S
C638 H650 0.929 . S
C639 C638 1.363 . S
C639 N641 1.375 . S
C639 H657 0.931 . S
C640 N637 1.311 . S
C640 N641 1.347 . S
C640 H651 0.929 . S
N641 C639 1.375 . S
N641 C640 1.347 . S
C642 C645 1.365 . S
C642 N647 1.328 . S
C642 H648 0.929 . S
C643 C644 1.362 1_655 S
C643 C646 1.378 . S
C643 H658 0.918 1_655 S
C644 C643 1.362 1_455 S
C644 C645 1.366 1_455 S
C645 C642 1.365 . S
C645 C644 1.366 1_655 S
C645 H659 0.930 . S
C646 C643 1.378 . S
C646 N647 1.315 . S
C646 H649 0.930 . S
N647 Co627 2.194 . S
N647 C642 1.328 . S
N647 C646 1.315 . S
H648 C642 0.929 . S
H649 C646 0.930 . S
H650 C638 0.929 . S
H651 C640 0.929 . S
O652 Co627 2.351 . S
O652 C655 1.244 . S
O653 Co627 2.155 . S
O653 C655 1.240 . S
O654 Co627 2.096 . S
O654 C635 1.247 . S
C655 O652 1.244 . S
C655 O653 1.240 . S
H656 C630 0.931 . S
H657 C639 0.931 . S
H658 C643 0.918 1_455 S
H659 C645 0.930 . S
Co660 N664 2.148 . S
Co660 N670 2.128 . S
Co660 N680 2.194 . S
Co660 O685 2.351 . S
Co660 O686 2.155 . S
Co660 O687 2.096 . S
C661 N664 1.301 . S
C661 N665 1.328 . S
C661 H666 0.930 . S
C662 C663 1.333 . S
C662 N664 1.317 . S
C662 H667 0.930 . S
C663 C662 1.333 . S
C663 N665 1.350 . S
C663 H689 0.931 . S
N664 Co660 2.148 . S
N664 C661 1.301 . S
N664 C662 1.317 . S
N665 C661 1.328 . S
N665 C663 1.350 . S
H666 C661 0.930 . S
H667 C662 0.930 . S
C668 O669 1.224 . S
C668 O687 1.247 . S
O669 C668 1.224 . S
N670 Co660 2.128 . S
N670 C671 1.355 . S
N670 C673 1.311 . S
C671 N670 1.355 . S
C671 C672 1.363 . S
C671 H683 0.929 . S
C672 C671 1.363 . S
C672 N674 1.375 . S
C672 H690 0.931 . S
C673 N670 1.311 . S
C673 N674 1.347 . S
C673 H684 0.929 . S
N674 C672 1.375 . S
N674 C673 1.347 . S
C675 C678 1.365 . S
C675 N680 1.328 . S
C675 H681 0.929 . S
C676 C677 1.362 . S
C676 C679 1.378 . S
C676 H691 0.929 . S
C677 C676 1.362 . S
C677 C678 1.366 . S
C678 C675 1.365 . S
C678 C677 1.366 . S
C678 H692 0.930 . S
C679 C676 1.378 . S
C679 N680 1.315 . S
C679 H682 0.930 . S
N680 Co660 2.194 . S
N680 C675 1.328 . S
N680 C679 1.315 . S
H681 C675 0.929 . S
H682 C679 0.930 . S
H683 C671 0.929 . S
H684 C673 0.929 . S
O685 Co660 2.351 . S
O685 C688 1.244 . S
O686 Co660 2.155 . S
O686 C688 1.240 . S
O687 Co660 2.096 . S
O687 C668 1.247 . S
C688 O685 1.244 . S
C688 O686 1.240 . S
H689 C663 0.931 . S
H690 C672 0.931 . S
H691 C676 0.929 . S
H692 C678 0.930 . S
Co693 N697 2.148 . S
Co693 N703 2.128 . S
Co693 N713 2.194 . S
Co693 O718 2.351 1_556 S
Co693 O719 2.155 . S
Co693 O720 2.096 . S
C694 N697 1.301 . S
C694 N698 1.328 . S
C694 H699 0.930 . S
C695 C696 1.333 . S
C695 N697 1.317 . S
C695 H700 0.930 . S
C696 C695 1.333 . S
C696 N698 1.350 . S
C696 H722 0.931 . S
N697 Co693 2.148 . S
N697 C694 1.301 . S
N697 C695 1.317 . S
N698 C694 1.328 . S
N698 C696 1.350 . S
H699 C694 0.930 . S
H700 C695 0.930 . S
C701 O702 1.224 . S
C701 O720 1.247 . S
O702 C701 1.224 . S
N703 Co693 2.128 . S
N703 C704 1.355 1_556 S
N703 C706 1.311 . S
C704 N703 1.355 1_554 S
C704 C705 1.363 . S
C704 H716 0.929 . S
C705 C704 1.363 . S
C705 N707 1.375 1_554 S
C705 H723 0.931 . S
C706 N703 1.311 . S
C706 N707 1.347 . S
C706 H717 0.929 . S
N707 C705 1.375 1_556 S
N707 C706 1.347 . S
C708 C711 1.365 . S
C708 N713 1.328 . S
C708 H714 0.929 . S
C709 C710 1.362 1_655 S
C709 C712 1.378 . S
C709 H724 0.918 1_655 S
C710 C709 1.362 1_455 S
C710 C711 1.366 1_455 S
C711 C708 1.365 . S
C711 C710 1.366 1_655 S
C711 H725 0.930 . S
C712 C709 1.378 . S
C712 N713 1.315 . S
C712 H715 0.930 . S
N713 Co693 2.194 . S
N713 C708 1.328 . S
N713 C712 1.315 . S
H714 C708 0.929 . S
H715 C712 0.930 . S
H716 C704 0.929 . S
H717 C706 0.929 . S
O718 Co693 2.351 1_554 S
O718 C721 1.244 . S
O719 Co693 2.155 . S
O719 C721 1.240 1_556 S
O720 Co693 2.096 . S
O720 C701 1.247 . S
C721 O718 1.244 . S
C721 O719 1.240 1_554 S
H722 C696 0.931 . S
H723 C705 0.931 . S
H724 C709 0.918 1_455 S
H725 C711 0.930 . S
Co726 N730 2.148 . S
Co726 N736 2.128 . S
Co726 N746 2.194 . S
Co726 O751 2.351 . S
Co726 O752 2.155 . S
Co726 O753 2.096 . S
C727 N730 1.301 . S
C727 N731 1.328 . S
C727 H732 0.930 . S
C728 C729 1.333 . S
C728 N730 1.317 . S
C728 H733 0.930 . S
C729 C728 1.333 . S
C729 N731 1.350 . S
C729 H755 0.931 . S
N730 Co726 2.148 . S
N730 C727 1.301 . S
N730 C728 1.317 . S
N731 C727 1.328 . S
N731 C729 1.350 . S
H732 C727 0.930 . S
H733 C728 0.930 . S
C734 O735 1.224 . S
C734 O753 1.247 . S
O735 C734 1.224 . S
N736 Co726 2.128 . S
N736 C737 1.355 . S
N736 C739 1.311 . S
C737 N736 1.355 . S
C737 C738 1.363 . S
C737 H749 0.929 . S
C738 C737 1.363 . S
C738 N740 1.375 . S
C738 H756 0.931 . S
C739 N736 1.311 . S
C739 N740 1.347 . S
C739 H750 0.929 . S
N740 C738 1.375 . S
N740 C739 1.347 . S
C741 C744 1.365 . S
C741 N746 1.328 . S
C741 H747 0.929 . S
C742 C743 1.362 . S
C742 C745 1.378 . S
C742 H757 0.929 . S
C743 C742 1.362 . S
C743 C744 1.366 . S
C744 C741 1.365 . S
C744 C743 1.366 . S
C744 H758 0.930 . S
C745 C742 1.378 . S
C745 N746 1.315 . S
C745 H748 0.930 . S
N746 Co726 2.194 . S
N746 C741 1.328 . S
N746 C745 1.315 . S
H747 C741 0.929 . S
H748 C745 0.930 . S
H749 C737 0.929 . S
H750 C739 0.929 . S
O751 Co726 2.351 . S
O751 C754 1.244 . S
O752 Co726 2.155 . S
O752 C754 1.240 . S
O753 Co726 2.096 . S
O753 C734 1.247 . S
C754 O751 1.244 . S
C754 O752 1.240 . S
H755 C729 0.931 . S
H756 C738 0.931 . S
H757 C742 0.929 . S
H758 C744 0.930 . S
Co759 N763 2.148 . S
Co759 N769 2.128 . S
Co759 N779 2.194 . S
Co759 O784 2.351 . S
Co759 O785 2.155 . S
Co759 O786 2.096 . S
C760 N763 1.301 . S
C760 N764 1.328 . S
C760 H765 0.930 . S
C761 C762 1.333 . S
C761 N763 1.317 . S
C761 H766 0.930 . S
C762 C761 1.333 . S
C762 N764 1.350 . S
C762 H788 0.931 . S
N763 Co759 2.148 . S
N763 C760 1.301 . S
N763 C761 1.317 . S
N764 C760 1.328 . S
N764 C762 1.350 . S
H765 C760 0.930 . S
H766 C761 0.930 . S
C767 O768 1.224 . S
C767 O786 1.247 . S
O768 C767 1.224 . S
N769 Co759 2.128 . S
N769 C770 1.355 . S
N769 C772 1.311 . S
C770 N769 1.355 . S
C770 C771 1.363 . S
C770 H782 0.929 . S
C771 C770 1.363 . S
C771 N773 1.375 . S
C771 H789 0.931 . S
C772 N769 1.311 . S
C772 N773 1.347 . S
C772 H783 0.929 . S
N773 C771 1.375 . S
N773 C772 1.347 . S
C774 C777 1.365 . S
C774 N779 1.328 . S
C774 H780 0.929 . S
C775 C776 1.362 . S
C775 C778 1.378 . S
C775 H790 0.929 . S
C776 C775 1.362 . S
C776 C777 1.366 . S
C777 C774 1.365 . S
C777 C776 1.366 . S
C777 H791 0.930 . S
C778 C775 1.378 . S
C778 N779 1.315 . S
C778 H781 0.930 . S
N779 Co759 2.194 . S
N779 C774 1.328 . S
N779 C778 1.315 . S
H780 C774 0.929 . S
H781 C778 0.930 . S
H782 C770 0.929 . S
H783 C772 0.929 . S
O784 Co759 2.351 . S
O784 C787 1.244 . S
O785 Co759 2.155 . S
O785 C787 1.240 . S
O786 Co759 2.096 . S
O786 C767 1.247 . S
C787 O784 1.244 . S
C787 O785 1.240 . S
H788 C762 0.931 . S
H789 C771 0.931 . S
H790 C775 0.929 . S
H791 C777 0.930 . S
Co792 N796 2.148 . S
Co792 N802 2.128 . S
Co792 N812 2.194 . S
Co792 O817 2.351 . S
Co792 O818 2.155 . S
Co792 O819 2.096 . S
C793 N796 1.301 . S
C793 N797 1.328 . S
C793 H798 0.930 . S
C794 C795 1.333 . S
C794 N796 1.317 . S
C794 H799 0.930 . S
C795 C794 1.333 . S
C795 N797 1.350 . S
C795 H821 0.931 . S
N796 Co792 2.148 . S
N796 C793 1.301 . S
N796 C794 1.317 . S
N797 C793 1.328 . S
N797 C795 1.350 . S
H798 C793 0.930 . S
H799 C794 0.930 . S
C800 O801 1.224 . S
C800 O819 1.247 . S
O801 C800 1.224 . S
N802 Co792 2.128 . S
N802 C803 1.355 . S
N802 C805 1.311 . S
C803 N802 1.355 . S
C803 C804 1.363 . S
C803 H815 0.929 . S
C804 C803 1.363 . S
C804 N806 1.375 . S
C804 H822 0.931 . S
C805 N802 1.311 . S
C805 N806 1.347 . S
C805 H816 0.929 . S
N806 C804 1.375 . S
N806 C805 1.347 . S
C807 C810 1.365 . S
C807 N812 1.328 . S
C807 H813 0.929 . S
C808 C809 1.362 . S
C808 C811 1.378 . S
C808 H823 0.929 . S
C809 C808 1.362 . S
C809 C810 1.366 . S
C810 C807 1.365 . S
C810 C809 1.366 . S
C810 H824 0.930 . S
C811 C808 1.378 . S
C811 N812 1.315 . S
C811 H814 0.930 . S
N812 Co792 2.194 . S
N812 C807 1.328 . S
N812 C811 1.315 . S
H813 C807 0.929 . S
H814 C811 0.930 . S
H815 C803 0.929 . S
H816 C805 0.929 . S
O817 Co792 2.351 . S
O817 C820 1.244 . S
O818 Co792 2.155 . S
O818 C820 1.240 . S
O819 Co792 2.096 . S
O819 C800 1.247 . S
C820 O817 1.244 . S
C820 O818 1.240 . S
H821 C795 0.931 . S
H822 C804 0.931 . S
H823 C808 0.929 . S
H824 C810 0.930 . S
Co825 N829 2.148 . S
Co825 N835 2.128 . S
Co825 N845 2.194 . S
Co825 O850 2.351 1_556 S
Co825 O851 2.155 . S
Co825 O852 2.096 . S
C826 N829 1.301 . S
C826 N830 1.328 . S
C826 H831 0.930 . S
C827 C828 1.333 . S
C827 N829 1.317 . S
C827 H832 0.930 . S
C828 C827 1.333 . S
C828 N830 1.350 . S
C828 H854 0.931 . S
N829 Co825 2.148 . S
N829 C826 1.301 . S
N829 C827 1.317 . S
N830 C826 1.328 . S
N830 C828 1.350 . S
H831 C826 0.930 . S
H832 C827 0.930 . S
C833 O834 1.224 . S
C833 O852 1.247 . S
O834 C833 1.224 . S
N835 Co825 2.128 . S
N835 C836 1.355 1_556 S
N835 C838 1.311 . S
C836 N835 1.355 1_554 S
C836 C837 1.363 . S
C836 H848 0.929 . S
C837 C836 1.363 . S
C837 N839 1.375 1_554 S
C837 H855 0.931 . S
C838 N835 1.311 . S
C838 N839 1.347 . S
C838 H849 0.929 . S
N839 C837 1.375 1_556 S
N839 C838 1.347 . S
C840 C843 1.365 . S
C840 N845 1.328 . S
C840 H846 0.929 . S
C841 C842 1.362 . S
C841 C844 1.378 . S
C841 H856 0.929 . S
C842 C841 1.362 . S
C842 C843 1.366 . S
C843 C840 1.365 . S
C843 C842 1.366 . S
C843 H857 0.930 . S
C844 C841 1.378 . S
C844 N845 1.315 . S
C844 H847 0.930 . S
N845 Co825 2.194 . S
N845 C840 1.328 . S
N845 C844 1.315 . S
H846 C840 0.929 . S
H847 C844 0.930 . S
H848 C836 0.929 . S
H849 C838 0.929 . S
O850 Co825 2.351 1_554 S
O850 C853 1.244 . S
O851 Co825 2.155 . S
O851 C853 1.240 1_556 S
O852 Co825 2.096 . S
O852 C833 1.247 . S
C853 O850 1.244 . S
C853 O851 1.240 1_554 S
H854 C828 0.931 . S
H855 C837 0.931 . S
H856 C841 0.929 . S
H857 C843 0.930 . S
Co858 N862 2.148 . S
Co858 N868 2.128 . S
Co858 N878 2.194 . S
Co858 O883 2.351 . S
Co858 O884 2.155 . S
Co858 O885 2.096 . S
C859 N862 1.301 . S
C859 N863 1.328 . S
C859 H864 0.930 . S
C860 C861 1.333 . S
C860 N862 1.317 . S
C860 H865 0.930 . S
C861 C860 1.333 . S
C861 N863 1.350 . S
C861 H887 0.931 . S
N862 Co858 2.148 . S
N862 C859 1.301 . S
N862 C860 1.317 . S
N863 C859 1.328 . S
N863 C861 1.350 . S
H864 C859 0.930 . S
H865 C860 0.930 . S
C866 O867 1.224 . S
C866 O885 1.247 . S
O867 C866 1.224 . S
N868 Co858 2.128 . S
N868 C869 1.355 . S
N868 C871 1.311 . S
C869 N868 1.355 . S
C869 C870 1.363 . S
C869 H881 0.929 . S
C870 C869 1.363 . S
C870 N872 1.375 . S
C870 H888 0.931 . S
C871 N868 1.311 . S
C871 N872 1.347 . S
C871 H882 0.929 . S
N872 C870 1.375 . S
N872 C871 1.347 . S
C873 C876 1.365 . S
C873 N878 1.328 . S
C873 H879 0.929 . S
C874 C875 1.362 . S
C874 C877 1.378 . S
C874 H889 0.929 . S
C875 C874 1.362 . S
C875 C876 1.366 . S
C876 C873 1.365 . S
C876 C875 1.366 . S
C876 H890 0.930 . S
C877 C874 1.378 . S
C877 N878 1.315 . S
C877 H880 0.930 . S
N878 Co858 2.194 . S
N878 C873 1.328 . S
N878 C877 1.315 . S
H879 C873 0.929 . S
H880 C877 0.930 . S
H881 C869 0.929 . S
H882 C871 0.929 . S
O883 Co858 2.351 . S
O883 C886 1.244 . S
O884 Co858 2.155 . S
O884 C886 1.240 . S
O885 Co858 2.096 . S
O885 C866 1.247 . S
C886 O883 1.244 . S
C886 O884 1.240 . S
H887 C861 0.931 . S
H888 C870 0.931 . S
H889 C874 0.929 . S
H890 C876 0.930 . S
Co891 N895 2.148 . S
Co891 N901 2.128 . S
Co891 N911 2.194 . S
Co891 O916 2.351 . S
Co891 O917 2.155 . S
Co891 O918 2.096 . S
C892 N895 1.301 . S
C892 N896 1.328 . S
C892 H897 0.930 . S
C893 C894 1.333 . S
C893 N895 1.317 . S
C893 H898 0.930 . S
C894 C893 1.333 . S
C894 N896 1.350 . S
C894 H920 0.931 . S
N895 Co891 2.148 . S
N895 C892 1.301 . S
N895 C893 1.317 . S
N896 C892 1.328 . S
N896 C894 1.350 . S
H897 C892 0.930 . S
H898 C893 0.930 . S
C899 O900 1.224 . S
C899 O918 1.247 . S
O900 C899 1.224 . S
N901 Co891 2.128 . S
N901 C902 1.355 . S
N901 C904 1.311 . S
C902 N901 1.355 . S
C902 C903 1.363 . S
C902 H914 0.929 . S
C903 C902 1.363 . S
C903 N905 1.375 . S
C903 H921 0.931 . S
C904 N901 1.311 . S
C904 N905 1.347 . S
C904 H915 0.929 . S
N905 C903 1.375 . S
N905 C904 1.347 . S
C906 C909 1.365 . S
C906 N911 1.328 . S
C906 H912 0.929 . S
C907 C908 1.362 1_455 S
C907 C910 1.378 . S
C907 H922 0.918 1_455 S
C908 C907 1.362 1_655 S
C908 C909 1.366 1_655 S
C909 C906 1.365 . S
C909 C908 1.366 1_455 S
C909 H923 0.930 . S
C910 C907 1.378 . S
C910 N911 1.315 . S
C910 H913 0.930 . S
N911 Co891 2.194 . S
N911 C906 1.328 . S
N911 C910 1.315 . S
H912 C906 0.929 . S
H913 C910 0.930 . S
H914 C902 0.929 . S
H915 C904 0.929 . S
O916 Co891 2.351 . S
O916 C919 1.244 . S
O917 Co891 2.155 . S
O917 C919 1.240 . S
O918 Co891 2.096 . S
O918 C899 1.247 . S
C919 O916 1.244 . S
C919 O917 1.240 . S
H920 C894 0.931 . S
H921 C903 0.931 . S
H922 C907 0.918 1_655 S
H923 C909 0.930 . S
Co924 N928 2.148 . S
Co924 N934 2.128 . S
Co924 N944 2.194 . S
Co924 O949 2.351 . S
Co924 O950 2.155 . S
Co924 O951 2.096 . S
C925 N928 1.301 . S
C925 N929 1.328 . S
C925 H930 0.930 . S
C926 C927 1.333 . S
C926 N928 1.317 . S
C926 H931 0.930 . S
C927 C926 1.333 . S
C927 N929 1.350 . S
C927 H953 0.931 . S
N928 Co924 2.148 . S
N928 C925 1.301 . S
N928 C926 1.317 . S
N929 C925 1.328 . S
N929 C927 1.350 . S
H930 C925 0.930 . S
H931 C926 0.930 . S
C932 O933 1.224 . S
C932 O951 1.247 . S
O933 C932 1.224 . S
N934 Co924 2.128 . S
N934 C935 1.355 . S
N934 C937 1.311 . S
C935 N934 1.355 . S
C935 C936 1.363 . S
C935 H947 0.929 . S
C936 C935 1.363 . S
C936 N938 1.375 . S
C936 H954 0.931 . S
C937 N934 1.311 . S
C937 N938 1.347 . S
C937 H948 0.929 . S
N938 C936 1.375 . S
N938 C937 1.347 . S
C939 C942 1.365 . S
C939 N944 1.328 . S
C939 H945 0.929 . S
C940 C941 1.362 . S
C940 C943 1.378 . S
C940 H955 0.929 . S
C941 C940 1.362 . S
C941 C942 1.366 . S
C942 C939 1.365 . S
C942 C941 1.366 . S
C942 H956 0.930 . S
C943 C940 1.378 . S
C943 N944 1.315 . S
C943 H946 0.930 . S
N944 Co924 2.194 . S
N944 C939 1.328 . S
N944 C943 1.315 . S
H945 C939 0.929 . S
H946 C943 0.930 . S
H947 C935 0.929 . S
H948 C937 0.929 . S
O949 Co924 2.351 . S
O949 C952 1.244 . S
O950 Co924 2.155 . S
O950 C952 1.240 . S
O951 Co924 2.096 . S
O951 C932 1.247 . S
C952 O949 1.244 . S
C952 O950 1.240 . S
H953 C927 0.931 . S
H954 C936 0.931 . S
H955 C940 0.929 . S
H956 C942 0.930 . S
Co957 N961 2.148 . S
Co957 N967 2.128 . S
Co957 N977 2.194 . S
Co957 O982 2.351 1_554 S
Co957 O983 2.155 . S
Co957 O984 2.096 . S
C958 N961 1.301 . S
C958 N962 1.328 . S
C958 H963 0.930 . S
C959 C960 1.333 . S
C959 N961 1.317 . S
C959 H964 0.930 . S
C960 C959 1.333 . S
C960 N962 1.350 . S
C960 H986 0.931 . S
N961 Co957 2.148 . S
N961 C958 1.301 . S
N961 C959 1.317 . S
N962 C958 1.328 . S
N962 C960 1.350 . S
H963 C958 0.930 . S
H964 C959 0.930 . S
C965 O966 1.224 . S
C965 O984 1.247 . S
O966 C965 1.224 . S
N967 Co957 2.128 . S
N967 C968 1.355 1_554 S
N967 C970 1.311 . S
C968 N967 1.355 1_556 S
C968 C969 1.363 . S
C968 H980 0.929 . S
C969 C968 1.363 . S
C969 N971 1.375 1_556 S
C969 H987 0.931 . S
C970 N967 1.311 . S
C970 N971 1.347 . S
C970 H981 0.929 . S
N971 C969 1.375 1_554 S
N971 C970 1.347 . S
C972 C975 1.365 . S
C972 N977 1.328 . S
C972 H978 0.929 . S
C973 C974 1.362 1_455 S
C973 C976 1.378 . S
C973 H988 0.918 1_455 S
C974 C973 1.362 1_655 S
C974 C975 1.366 1_655 S
C975 C972 1.365 . S
C975 C974 1.366 1_455 S
C975 H989 0.930 . S
C976 C973 1.378 . S
C976 N977 1.315 . S
C976 H979 0.930 . S
N977 Co957 2.194 . S
N977 C972 1.328 . S
N977 C976 1.315 . S
H978 C972 0.929 . S
H979 C976 0.930 . S
H980 C968 0.929 . S
H981 C970 0.929 . S
O982 Co957 2.351 1_556 S
O982 C985 1.244 . S
O983 Co957 2.155 . S
O983 C985 1.240 1_554 S
O984 Co957 2.096 . S
O984 C965 1.247 . S
C985 O982 1.244 . S
C985 O983 1.240 1_556 S
H986 C960 0.931 . S
H987 C969 0.931 . S
H988 C973 0.918 1_655 S
H989 C975 0.930 . S
Co990 N994 2.148 . S
Co990 N1000 2.128 . S
Co990 N1010 2.194 . S
Co990 O1015 2.351 . S
Co990 O1016 2.155 . S
Co990 O1017 2.096 . S
C991 N994 1.301 . S
C991 N995 1.328 . S
C991 H996 0.930 . S
C992 C993 1.333 . S
C992 N994 1.317 . S
C992 H997 0.930 . S
C993 C992 1.333 . S
C993 N995 1.350 . S
C993 H1019 0.931 . S
N994 Co990 2.148 . S
N994 C991 1.301 . S
N994 C992 1.317 . S
N995 C991 1.328 . S
N995 C993 1.350 . S
H996 C991 0.930 . S
H997 C992 0.930 . S
C998 O999 1.224 . S
C998 O1017 1.247 . S
O999 C998 1.224 . S
N1000 Co990 2.128 . S
N1000 C1001 1.355 . S
N1000 C1003 1.311 . S
C1001 N1000 1.355 . S
C1001 C1002 1.363 . S
C1001 H1013 0.929 . S
C1002 C1001 1.363 . S
C1002 N1004 1.375 . S
C1002 H1020 0.931 . S
C1003 N1000 1.311 . S
C1003 N1004 1.347 . S
C1003 H1014 0.929 . S
N1004 C1002 1.375 . S
N1004 C1003 1.347 . S
C1005 C1008 1.365 . S
C1005 N1010 1.328 . S
C1005 H1011 0.929 . S
C1006 C1007 1.362 . S
C1006 C1009 1.378 . S
C1006 H1021 0.929 . S
C1007 C1006 1.362 . S
C1007 C1008 1.366 . S
C1008 C1005 1.365 . S
C1008 C1007 1.366 . S
C1008 H1022 0.930 . S
C1009 C1006 1.378 . S
C1009 N1010 1.315 . S
C1009 H1012 0.930 . S
N1010 Co990 2.194 . S
N1010 C1005 1.328 . S
N1010 C1009 1.315 . S
H1011 C1005 0.929 . S
H1012 C1009 0.930 . S
H1013 C1001 0.929 . S
H1014 C1003 0.929 . S
O1015 Co990 2.351 . S
O1015 C1018 1.244 . S
O1016 Co990 2.155 . S
O1016 C1018 1.240 . S
O1017 Co990 2.096 . S
O1017 C998 1.247 . S
C1018 O1015 1.244 . S
C1018 O1016 1.240 . S
H1019 C993 0.931 . S
H1020 C1002 0.931 . S
H1021 C1006 0.929 . S
H1022 C1008 0.930 . S
Co1023 N1027 2.148 . S
Co1023 N1033 2.128 . S
Co1023 N1043 2.194 . S
Co1023 O1048 2.351 . S
Co1023 O1049 2.155 . S
Co1023 O1050 2.096 . S
C1024 N1027 1.301 . S
C1024 N1028 1.328 . S
C1024 H1029 0.930 . S
C1025 C1026 1.333 . S
C1025 N1027 1.317 . S
C1025 H1030 0.930 . S
C1026 C1025 1.333 . S
C1026 N1028 1.350 . S
C1026 H1052 0.931 . S
N1027 Co1023 2.148 . S
N1027 C1024 1.301 . S
N1027 C1025 1.317 . S
N1028 C1024 1.328 . S
N1028 C1026 1.350 . S
H1029 C1024 0.930 . S
H1030 C1025 0.930 . S
C1031 O1032 1.224 . S
C1031 O1050 1.247 . S
O1032 C1031 1.224 . S
N1033 Co1023 2.128 . S
N1033 C1034 1.355 . S
N1033 C1036 1.311 . S
C1034 N1033 1.355 . S
C1034 C1035 1.363 . S
C1034 H1046 0.929 . S
C1035 C1034 1.363 . S
C1035 N1037 1.375 . S
C1035 H1053 0.931 . S
C1036 N1033 1.311 . S
C1036 N1037 1.347 . S
C1036 H1047 0.929 . S
N1037 C1035 1.375 . S
N1037 C1036 1.347 . S
C1038 C1041 1.365 . S
C1038 N1043 1.328 . S
C1038 H1044 0.929 . S
C1039 C1040 1.362 . S
C1039 C1042 1.378 . S
C1039 H1054 0.929 . S
C1040 C1039 1.362 . S
C1040 C1041 1.366 . S
C1041 C1038 1.365 . S
C1041 C1040 1.366 . S
C1041 H1055 0.930 . S
C1042 C1039 1.378 . S
C1042 N1043 1.315 . S
C1042 H1045 0.930 . S
N1043 Co1023 2.194 . S
N1043 C1038 1.328 . S
N1043 C1042 1.315 . S
H1044 C1038 0.929 . S
H1045 C1042 0.930 . S
H1046 C1034 0.929 . S
H1047 C1036 0.929 . S
O1048 Co1023 2.351 . S
O1048 C1051 1.244 . S
O1049 Co1023 2.155 . S
O1049 C1051 1.240 . S
O1050 Co1023 2.096 . S
O1050 C1031 1.247 . S
C1051 O1048 1.244 . S
C1051 O1049 1.240 . S
H1052 C1026 0.931 . S
H1053 C1035 0.931 . S
H1054 C1039 0.929 . S
H1055 C1041 0.930 . S
C1056 C1057 1.363 . S
C1056 C1062 1.379 . S
C1056 N1064 1.356 . S
C1057 C1056 1.363 . S
C1057 C1063 1.363 . S
C1058 C1059 1.363 . S
C1058 C1063 1.379 . S
C1058 N1065 1.356 . S
C1059 C1058 1.363 . S
C1059 C1062 1.363 . S
N1060 C1062 1.356 . S
N1060 H1072 0.984 . S
N1060 H1073 0.985 . S
N1061 C1063 1.356 . S
N1061 H1066 0.984 . S
N1061 H1067 0.985 . S
C1062 C1056 1.379 . S
C1062 C1059 1.363 . S
C1062 N1060 1.356 . S
C1063 C1057 1.363 . S
C1063 C1058 1.379 . S
C1063 N1061 1.356 . S
N1064 C1056 1.356 . S
N1064 H1070 0.984 1_554 S
N1064 H1071 0.984 1_554 S
N1065 C1058 1.356 . S
N1065 H1068 0.984 . S
N1065 H1069 0.985 . S
H1066 N1061 0.984 . S
H1067 N1061 0.985 . S
H1068 N1065 0.984 . S
H1069 N1065 0.985 . S
H1070 N1064 0.984 1_556 S
H1071 N1064 0.984 1_556 S
H1072 N1060 0.984 . S
H1073 N1060 0.985 . S
C1074 C1075 1.363 . S
C1074 C1080 1.379 . S
C1074 N1082 1.356 . S
C1075 C1074 1.363 . S
C1075 C1081 1.363 . S
C1076 C1077 1.363 . S
C1076 C1081 1.379 . S
C1076 N1083 1.356 . S
C1077 C1076 1.363 . S
C1077 C1080 1.363 . S
N1078 C1080 1.356 . S
N1078 H1090 0.984 . S
N1078 H1091 0.985 . S
N1079 C1081 1.356 . S
N1079 H1084 0.984 . S
N1079 H1085 0.985 . S
C1080 C1074 1.379 . S
C1080 C1077 1.363 . S
C1080 N1078 1.356 . S
C1081 C1075 1.363 . S
C1081 C1076 1.379 . S
C1081 N1079 1.356 . S
N1082 C1074 1.356 . S
N1082 H1088 0.984 . S
N1082 H1089 0.984 . S
N1083 C1076 1.356 . S
N1083 H1086 0.984 . S
N1083 H1087 0.985 . S
H1084 N1079 0.984 . S
H1085 N1079 0.985 . S
H1086 N1083 0.984 . S
H1087 N1083 0.985 . S
H1088 N1082 0.984 . S
H1089 N1082 0.984 . S
H1090 N1078 0.984 . S
H1091 N1078 0.985 . S
C1092 C1093 1.363 . S
C1092 C1098 1.379 . S
C1092 N1100 1.356 . S
C1093 C1092 1.363 . S
C1093 C1099 1.363 . S
C1094 C1095 1.363 . S
C1094 C1099 1.379 . S
C1094 N1101 1.356 . S
C1095 C1094 1.363 . S
C1095 C1098 1.363 . S
N1096 C1098 1.356 . S
N1096 H1108 0.984 . S
N1096 H1109 0.985 . S
N1097 C1099 1.356 . S
N1097 H1102 0.984 . S
N1097 H1103 0.985 . S
C1098 C1092 1.379 . S
C1098 C1095 1.363 . S
C1098 N1096 1.356 . S
C1099 C1093 1.363 . S
C1099 C1094 1.379 . S
C1099 N1097 1.356 . S
N1100 C1092 1.356 . S
N1100 H1106 0.984 . S
N1100 H1107 0.984 . S
N1101 C1094 1.356 . S
N1101 H1104 0.984 . S
N1101 H1105 0.985 . S
H1102 N1097 0.984 . S
H1103 N1097 0.985 . S
H1104 N1101 0.984 . S
H1105 N1101 0.985 . S
H1106 N1100 0.984 . S
H1107 N1100 0.984 . S
H1108 N1096 0.984 . S
H1109 N1096 0.985 . S
C1110 C1111 1.363 . S
C1110 C1116 1.379 . S
C1110 N1118 1.356 . S
C1111 C1110 1.363 . S
C1111 C1117 1.363 . S
C1112 C1113 1.363 . S
C1112 C1117 1.379 . S
C1112 N1119 1.356 . S
C1113 C1112 1.363 . S
C1113 C1116 1.363 . S
N1114 C1116 1.356 . S
N1114 H1126 0.984 . S
N1114 H1127 0.985 . S
N1115 C1117 1.356 . S
N1115 H1120 0.984 . S
N1115 H1121 0.985 . S
C1116 C1110 1.379 . S
C1116 C1113 1.363 . S
C1116 N1114 1.356 . S
C1117 C1111 1.363 . S
C1117 C1112 1.379 . S
C1117 N1115 1.356 . S
N1118 C1110 1.356 . S
N1118 H1124 0.984 . S
N1118 H1125 0.984 . S
N1119 C1112 1.356 . S
N1119 H1122 0.984 . S
N1119 H1123 0.985 . S
H1120 N1115 0.984 . S
H1121 N1115 0.985 . S
H1122 N1119 0.984 . S
H1123 N1119 0.985 . S
H1124 N1118 0.984 . S
H1125 N1118 0.984 . S
H1126 N1114 0.984 . S
H1127 N1114 0.985 . S
C1128 C1129 1.363 . S
C1128 C1134 1.379 . S
C1128 N1136 1.356 . S
C1129 C1128 1.363 . S
C1129 C1135 1.363 . S
C1130 C1131 1.363 . S
C1130 C1135 1.379 . S
C1130 N1137 1.356 . S
C1131 C1130 1.363 . S
C1131 C1134 1.363 . S
N1132 C1134 1.356 . S
N1132 H1144 0.984 . S
N1132 H1145 0.985 . S
N1133 C1135 1.356 . S
N1133 H1138 0.984 . S
N1133 H1139 0.985 . S
C1134 C1128 1.379 . S
C1134 C1131 1.363 . S
C1134 N1132 1.356 . S
C1135 C1129 1.363 . S
C1135 C1130 1.379 . S
C1135 N1133 1.356 . S
N1136 C1128 1.356 . S
N1136 H1142 0.984 . S
N1136 H1143 0.984 . S
N1137 C1130 1.356 . S
N1137 H1140 0.984 1_556 S
N1137 H1141 0.985 1_556 S
H1138 N1133 0.984 . S
H1139 N1133 0.985 . S
H1140 N1137 0.984 1_554 S
H1141 N1137 0.985 1_554 S
H1142 N1136 0.984 . S
H1143 N1136 0.984 . S
H1144 N1132 0.984 . S
H1145 N1132 0.985 . S
C1146 C1147 1.363 . S
C1146 C1152 1.379 . S
C1146 N1154 1.356 . S
C1147 C1146 1.363 . S
C1147 C1153 1.363 . S
C1148 C1149 1.363 . S
C1148 C1153 1.379 . S
C1148 N1155 1.356 . S
C1149 C1148 1.363 . S
C1149 C1152 1.363 . S
N1150 C1152 1.356 . S
N1150 H1162 0.984 . S
N1150 H1163 0.985 . S
N1151 C1153 1.356 . S
N1151 H1156 0.984 . S
N1151 H1157 0.985 . S
C1152 C1146 1.379 . S
C1152 C1149 1.363 . S
C1152 N1150 1.356 . S
C1153 C1147 1.363 . S
C1153 C1148 1.379 . S
C1153 N1151 1.356 . S
N1154 C1146 1.356 . S
N1154 H1160 0.984 . S
N1154 H1161 0.984 . S
N1155 C1148 1.356 . S
N1155 H1158 0.984 . S
N1155 H1159 0.985 . S
H1156 N1151 0.984 . S
H1157 N1151 0.985 . S
H1158 N1155 0.984 . S
H1159 N1155 0.985 . S
H1160 N1154 0.984 . S
H1161 N1154 0.984 . S
H1162 N1150 0.984 . S
H1163 N1150 0.985 . S
C1164 C1165 1.363 . S
C1164 C1170 1.379 . S
C1164 N1172 1.356 . S
C1165 C1164 1.363 . S
C1165 C1171 1.363 . S
C1166 C1167 1.363 . S
C1166 C1171 1.379 . S
C1166 N1173 1.356 . S
C1167 C1166 1.363 . S
C1167 C1170 1.363 . S
N1168 C1170 1.356 . S
N1168 H1180 0.984 . S
N1168 H1181 0.985 . S
N1169 C1171 1.356 . S
N1169 H1174 0.984 . S
N1169 H1175 0.985 . S
C1170 C1164 1.379 . S
C1170 C1167 1.363 . S
C1170 N1168 1.356 . S
C1171 C1165 1.363 . S
C1171 C1166 1.379 . S
C1171 N1169 1.356 . S
N1172 C1164 1.356 . S
N1172 H1178 0.984 . S
N1172 H1179 0.984 . S
N1173 C1166 1.356 . S
N1173 H1176 0.984 . S
N1173 H1177 0.985 . S
H1174 N1169 0.984 . S
H1175 N1169 0.985 . S
H1176 N1173 0.984 . S
H1177 N1173 0.985 . S
H1178 N1172 0.984 . S
H1179 N1172 0.984 . S
H1180 N1168 0.984 . S
H1181 N1168 0.985 . S
C1182 C1183 1.363 . S
C1182 C1188 1.379 . S
C1182 N1190 1.356 . S
C1183 C1182 1.363 . S
C1183 C1189 1.363 . S
C1184 C1185 1.363 . S
C1184 C1189 1.379 . S
C1184 N1191 1.356 . S
C1185 C1184 1.363 . S
C1185 C1188 1.363 . S
N1186 C1188 1.356 . S
N1186 H1198 0.984 . S
N1186 H1199 0.985 . S
N1187 C1189 1.356 . S
N1187 H1192 0.984 . S
N1187 H1193 0.985 . S
C1188 C1182 1.379 . S
C1188 C1185 1.363 . S
C1188 N1186 1.356 . S
C1189 C1183 1.363 . S
C1189 C1184 1.379 . S
C1189 N1187 1.356 . S
N1190 C1182 1.356 . S
N1190 H1196 0.984 . S
N1190 H1197 0.984 . S
N1191 C1184 1.356 . S
N1191 H1194 0.984 1_554 S
N1191 H1195 0.985 1_554 S
H1192 N1187 0.984 . S
H1193 N1187 0.985 . S
H1194 N1191 0.984 1_556 S
H1195 N1191 0.985 1_556 S
H1196 N1190 0.984 . S
H1197 N1190 0.984 . S
H1198 N1186 0.984 . S
H1199 N1186 0.985 . S
C1200 C1201 1.363 . S
C1200 C1206 1.379 . S
C1200 N1208 1.356 . S
C1201 C1200 1.363 . S
C1201 C1207 1.363 . S
C1202 C1203 1.363 . S
C1202 C1207 1.379 . S
C1202 N1209 1.356 . S
C1203 C1202 1.363 . S
C1203 C1206 1.363 . S
N1204 C1206 1.356 . S
N1204 H1216 0.984 . S
N1204 H1217 0.985 . S
N1205 C1207 1.356 . S
N1205 H1210 0.984 . S
N1205 H1211 0.985 . S
C1206 C1200 1.379 . S
C1206 C1203 1.363 . S
C1206 N1204 1.356 . S
C1207 C1201 1.363 . S
C1207 C1202 1.379 . S
C1207 N1205 1.356 . S
N1208 C1200 1.356 . S
N1208 H1214 0.984 . S
N1208 H1215 0.984 . S
N1209 C1202 1.356 . S
N1209 H1212 0.984 . S
N1209 H1213 0.985 . S
H1210 N1205 0.984 . S
H1211 N1205 0.985 . S
H1212 N1209 0.984 . S
H1213 N1209 0.985 . S
H1214 N1208 0.984 . S
H1215 N1208 0.984 . S
H1216 N1204 0.984 . S
H1217 N1204 0.985 . S
C1218 C1219 1.363 . S
C1218 C1224 1.379 . S
C1218 N1226 1.356 . S
C1219 C1218 1.363 . S
C1219 C1225 1.363 . S
C1220 C1221 1.363 . S
C1220 C1225 1.379 . S
C1220 N1227 1.356 . S
C1221 C1220 1.363 . S
C1221 C1224 1.363 . S
N1222 C1224 1.356 . S
N1222 H1234 0.984 . S
N1222 H1235 0.985 . S
N1223 C1225 1.356 . S
N1223 H1228 0.984 . S
N1223 H1229 0.985 . S
C1224 C1218 1.379 . S
C1224 C1221 1.363 . S
C1224 N1222 1.356 . S
C1225 C1219 1.363 . S
C1225 C1220 1.379 . S
C1225 N1223 1.356 . S
N1226 C1218 1.356 . S
N1226 H1232 0.984 . S
N1226 H1233 0.984 . S
N1227 C1220 1.356 . S
N1227 H1230 0.984 . S
N1227 H1231 0.985 . S
H1228 N1223 0.984 . S
H1229 N1223 0.985 . S
H1230 N1227 0.984 . S
H1231 N1227 0.985 . S
H1232 N1226 0.984 . S
H1233 N1226 0.984 . S
H1234 N1222 0.984 . S
H1235 N1222 0.985 . S
C1236 C1237 1.363 . S
C1236 C1242 1.379 . S
C1236 N1244 1.356 . S
C1237 C1236 1.363 . S
C1237 C1243 1.363 . S
C1238 C1239 1.363 . S
C1238 C1243 1.379 . S
C1238 N1245 1.356 . S
C1239 C1238 1.363 . S
C1239 C1242 1.363 . S
N1240 C1242 1.356 . S
N1240 H1252 0.984 . S
N1240 H1253 0.985 . S
N1241 C1243 1.356 . S
N1241 H1246 0.984 . S
N1241 H1247 0.985 . S
C1242 C1236 1.379 . S
C1242 C1239 1.363 . S
C1242 N1240 1.356 . S
C1243 C1237 1.363 . S
C1243 C1238 1.379 . S
C1243 N1241 1.356 . S
N1244 C1236 1.356 . S
N1244 H1250 0.984 1_554 S
N1244 H1251 0.984 1_554 S
N1245 C1238 1.356 . S
N1245 H1248 0.984 . S
N1245 H1249 0.985 . S
H1246 N1241 0.984 . S
H1247 N1241 0.985 . S
H1248 N1245 0.984 . S
H1249 N1245 0.985 . S
H1250 N1244 0.984 1_556 S
H1251 N1244 0.984 1_556 S
H1252 N1240 0.984 . S
H1253 N1240 0.985 . S
C1254 C1255 1.363 . S
C1254 C1260 1.379 . S
C1254 N1262 1.356 . S
C1255 C1254 1.363 . S
C1255 C1261 1.363 . S
C1256 C1257 1.363 . S
C1256 C1261 1.379 . S
C1256 N1263 1.356 . S
C1257 C1256 1.363 . S
C1257 C1260 1.363 . S
N1258 C1260 1.356 . S
N1258 H1270 0.984 . S
N1258 H1271 0.985 . S
N1259 C1261 1.356 . S
N1259 H1264 0.984 . S
N1259 H1265 0.985 . S
C1260 C1254 1.379 . S
C1260 C1257 1.363 . S
C1260 N1258 1.356 . S
C1261 C1255 1.363 . S
C1261 C1256 1.379 . S
C1261 N1259 1.356 . S
N1262 C1254 1.356 . S
N1262 H1268 0.984 . S
N1262 H1269 0.984 . S
N1263 C1256 1.356 . S
N1263 H1266 0.984 . S
N1263 H1267 0.985 . S
H1264 N1259 0.984 . S
H1265 N1259 0.985 . S
H1266 N1263 0.984 . S
H1267 N1263 0.985 . S
H1268 N1262 0.984 . S
H1269 N1262 0.984 . S
H1270 N1258 0.984 . S
H1271 N1258 0.985 . S
C1272 C1273 1.363 . S
C1272 C1278 1.379 . S
C1272 N1280 1.356 . S
C1273 C1272 1.363 . S
C1273 C1279 1.363 . S
C1274 C1275 1.363 . S
C1274 C1279 1.379 . S
C1274 N1281 1.356 . S
C1275 C1274 1.363 . S
C1275 C1278 1.363 . S
N1276 C1278 1.356 . S
N1276 H1288 0.984 . S
N1276 H1289 0.985 . S
N1277 C1279 1.356 . S
N1277 H1282 0.984 . S
N1277 H1283 0.985 . S
C1278 C1272 1.379 . S
C1278 C1275 1.363 . S
C1278 N1276 1.356 . S
C1279 C1273 1.363 . S
C1279 C1274 1.379 . S
C1279 N1277 1.356 . S
N1280 C1272 1.356 . S
N1280 H1286 0.984 . S
N1280 H1287 0.984 . S
N1281 C1274 1.356 . S
N1281 H1284 0.984 . S
N1281 H1285 0.985 . S
H1282 N1277 0.984 . S
H1283 N1277 0.985 . S
H1284 N1281 0.984 . S
H1285 N1281 0.985 . S
H1286 N1280 0.984 . S
H1287 N1280 0.984 . S
H1288 N1276 0.984 . S
H1289 N1276 0.985 . S
C1290 C1291 1.363 . S
C1290 C1296 1.379 . S
C1290 N1298 1.356 . S
C1291 C1290 1.363 . S
C1291 C1297 1.363 . S
C1292 C1293 1.363 . S
C1292 C1297 1.379 . S
C1292 N1299 1.356 . S
C1293 C1292 1.363 . S
C1293 C1296 1.363 . S
N1294 C1296 1.356 . S
N1294 H1306 0.984 . S
N1294 H1307 0.985 . S
N1295 C1297 1.356 . S
N1295 H1300 0.984 . S
N1295 H1301 0.985 . S
C1296 C1290 1.379 . S
C1296 C1293 1.363 . S
C1296 N1294 1.356 . S
C1297 C1291 1.363 . S
C1297 C1292 1.379 . S
C1297 N1295 1.356 . S
N1298 C1290 1.356 . S
N1298 H1304 0.984 . S
N1298 H1305 0.984 . S
N1299 C1292 1.356 . S
N1299 H1302 0.984 . S
N1299 H1303 0.985 . S
H1300 N1295 0.984 . S
H1301 N1295 0.985 . S
H1302 N1299 0.984 . S
H1303 N1299 0.985 . S
H1304 N1298 0.984 . S
H1305 N1298 0.984 . S
H1306 N1294 0.984 . S
H1307 N1294 0.985 . S
C1308 C1309 1.363 . S
C1308 C1314 1.379 . S
C1308 N1316 1.356 . S
C1309 C1308 1.363 . S
C1309 C1315 1.363 . S
C1310 C1311 1.363 . S
C1310 C1315 1.379 . S
C1310 N1317 1.356 . S
C1311 C1310 1.363 . S
C1311 C1314 1.363 . S
N1312 C1314 1.356 . S
N1312 H1324 0.984 . S
N1312 H1325 0.985 . S
N1313 C1315 1.356 . S
N1313 H1318 0.984 . S
N1313 H1319 0.985 . S
C1314 C1308 1.379 . S
C1314 C1311 1.363 . S
C1314 N1312 1.356 . S
C1315 C1309 1.363 . S
C1315 C1310 1.379 . S
C1315 N1313 1.356 . S
N1316 C1308 1.356 . S
N1316 H1322 0.984 . S
N1316 H1323 0.984 . S
N1317 C1310 1.356 . S
N1317 H1320 0.984 . S
N1317 H1321 0.985 . S
H1318 N1313 0.984 . S
H1319 N1313 0.985 . S
H1320 N1317 0.984 . S
H1321 N1317 0.985 . S
H1322 N1316 0.984 . S
H1323 N1316 0.984 . S
H1324 N1312 0.984 . S
H1325 N1312 0.985 . S
C1326 C1327 1.363 . S
C1326 C1332 1.379 . S
C1326 N1334 1.356 . S
C1327 C1326 1.363 . S
C1327 C1333 1.363 . S
C1328 C1329 1.363 . S
C1328 C1333 1.379 . S
C1328 N1335 1.356 . S
C1329 C1328 1.363 . S
C1329 C1332 1.363 . S
N1330 C1332 1.356 . S
N1330 H1342 0.984 . S
N1330 H1343 0.985 . S
N1331 C1333 1.356 . S
N1331 H1336 0.984 . S
N1331 H1337 0.985 . S
C1332 C1326 1.379 . S
C1332 C1329 1.363 . S
C1332 N1330 1.356 . S
C1333 C1327 1.363 . S
C1333 C1328 1.379 . S
C1333 N1331 1.356 . S
N1334 C1326 1.356 . S
N1334 H1340 0.984 . S
N1334 H1341 0.984 . S
N1335 C1328 1.356 . S
N1335 H1338 0.984 . S
N1335 H1339 0.985 . S
H1336 N1331 0.984 . S
H1337 N1331 0.985 . S
H1338 N1335 0.984 . S
H1339 N1335 0.985 . S
H1340 N1334 0.984 . S
H1341 N1334 0.984 . S
H1342 N1330 0.984 . S
H1343 N1330 0.985 . S
C1344 C1345 1.363 . S
C1344 C1350 1.379 . S
C1344 N1352 1.356 . S
C1345 C1344 1.363 . S
C1345 C1351 1.363 . S
C1346 C1347 1.363 . S
C1346 C1351 1.379 . S
C1346 N1353 1.356 . S
C1347 C1346 1.363 . S
C1347 C1350 1.363 . S
N1348 C1350 1.356 . S
N1348 H1360 0.984 . S
N1348 H1361 0.985 . S
N1349 C1351 1.356 . S
N1349 H1354 0.984 . S
N1349 H1355 0.985 . S
C1350 C1344 1.379 . S
C1350 C1347 1.363 . S
C1350 N1348 1.356 . S
C1351 C1345 1.363 . S
C1351 C1346 1.379 . S
C1351 N1349 1.356 . S
N1352 C1344 1.356 . S
N1352 H1358 0.984 . S
N1352 H1359 0.984 . S
N1353 C1346 1.356 . S
N1353 H1356 0.984 . S
N1353 H1357 0.985 . S
H1354 N1349 0.984 . S
H1355 N1349 0.985 . S
H1356 N1353 0.984 . S
H1357 N1353 0.985 . S
H1358 N1352 0.984 . S
H1359 N1352 0.984 . S
H1360 N1348 0.984 . S
H1361 N1348 0.985 . S
C1362 C1363 1.363 . S
C1362 C1368 1.379 . S
C1362 N1370 1.356 . S
C1363 C1362 1.363 . S
C1363 C1369 1.363 . S
C1364 C1365 1.363 . S
C1364 C1369 1.379 . S
C1364 N1371 1.356 . S
C1365 C1364 1.363 . S
C1365 C1368 1.363 . S
N1366 C1368 1.356 . S
N1366 H1378 0.984 . S
N1366 H1379 0.985 . S
N1367 C1369 1.356 . S
N1367 H1372 0.984 . S
N1367 H1373 0.985 . S
C1368 C1362 1.379 . S
C1368 C1365 1.363 . S
C1368 N1366 1.356 . S
C1369 C1363 1.363 . S
C1369 C1364 1.379 . S
C1369 N1367 1.356 . S
N1370 C1362 1.356 . S
N1370 H1376 0.984 . S
N1370 H1377 0.984 . S
N1371 C1364 1.356 . S
N1371 H1374 0.984 . S
N1371 H1375 0.985 . S
H1372 N1367 0.984 . S
H1373 N1367 0.985 . S
H1374 N1371 0.984 . S
H1375 N1371 0.985 . S
H1376 N1370 0.984 . S
H1377 N1370 0.984 . S
H1378 N1366 0.984 . S
H1379 N1366 0.985 . S
C1380 C1381 1.363 . S
C1380 C1386 1.379 . S
C1380 N1388 1.356 . S
C1381 C1380 1.363 . S
C1381 C1387 1.363 . S
C1382 C1383 1.363 . S
C1382 C1387 1.379 . S
C1382 N1389 1.356 . S
C1383 C1382 1.363 . S
C1383 C1386 1.363 . S
N1384 C1386 1.356 . S
N1384 H1396 0.984 . S
N1384 H1397 0.985 . S
N1385 C1387 1.356 . S
N1385 H1390 0.984 . S
N1385 H1391 0.985 . S
C1386 C1380 1.379 . S
C1386 C1383 1.363 . S
C1386 N1384 1.356 . S
C1387 C1381 1.363 . S
C1387 C1382 1.379 . S
C1387 N1385 1.356 . S
N1388 C1380 1.356 . S
N1388 H1394 0.984 . S
N1388 H1395 0.984 . S
N1389 C1382 1.356 . S
N1389 H1392 0.984 . S
N1389 H1393 0.985 . S
H1390 N1385 0.984 . S
H1391 N1385 0.985 . S
H1392 N1389 0.984 . S
H1393 N1389 0.985 . S
H1394 N1388 0.984 . S
H1395 N1388 0.984 . S
H1396 N1384 0.984 . S
H1397 N1384 0.985 . S
C1398 C1399 1.363 . S
C1398 C1404 1.379 . S
C1398 N1406 1.356 . S
C1399 C1398 1.363 . S
C1399 C1405 1.363 . S
C1400 C1401 1.363 . S
C1400 C1405 1.379 . S
C1400 N1407 1.356 . S
C1401 C1400 1.363 . S
C1401 C1404 1.363 . S
N1402 C1404 1.356 . S
N1402 H1414 0.984 . S
N1402 H1415 0.985 . S
N1403 C1405 1.356 . S
N1403 H1408 0.984 . S
N1403 H1409 0.985 . S
C1404 C1398 1.379 . S
C1404 C1401 1.363 . S
C1404 N1402 1.356 . S
C1405 C1399 1.363 . S
C1405 C1400 1.379 . S
C1405 N1403 1.356 . S
N1406 C1398 1.356 . S
N1406 H1412 0.984 . S
N1406 H1413 0.984 . S
N1407 C1400 1.356 . S
N1407 H1410 0.984 . S
N1407 H1411 0.985 . S
H1408 N1403 0.984 . S
H1409 N1403 0.985 . S
H1410 N1407 0.984 . S
H1411 N1407 0.985 . S
H1412 N1406 0.984 . S
H1413 N1406 0.984 . S
H1414 N1402 0.984 . S
H1415 N1402 0.985 . S
C1416 C1417 1.363 . S
C1416 C1422 1.379 . S
C1416 N1424 1.356 . S
C1417 C1416 1.363 . S
C1417 C1423 1.363 . S
C1418 C1419 1.363 . S
C1418 C1423 1.379 . S
C1418 N1425 1.356 . S
C1419 C1418 1.363 . S
C1419 C1422 1.363 . S
N1420 C1422 1.356 . S
N1420 H1432 0.984 . S
N1420 H1433 0.985 . S
N1421 C1423 1.356 . S
N1421 H1426 0.984 . S
N1421 H1427 0.985 . S
C1422 C1416 1.379 . S
C1422 C1419 1.363 . S
C1422 N1420 1.356 . S
C1423 C1417 1.363 . S
C1423 C1418 1.379 . S
C1423 N1421 1.356 . S
N1424 C1416 1.356 . S
N1424 H1430 0.984 . S
N1424 H1431 0.984 . S
N1425 C1418 1.356 . S
N1425 H1428 0.984 . S
N1425 H1429 0.985 . S
H1426 N1421 0.984 . S
H1427 N1421 0.985 . S
H1428 N1425 0.984 . S
H1429 N1425 0.985 . S
H1430 N1424 0.984 . S
H1431 N1424 0.984 . S
H1432 N1420 0.984 . S
H1433 N1420 0.985 . S
C1434 C1435 1.363 . S
C1434 C1440 1.379 . S
C1434 N1442 1.356 . S
C1435 C1434 1.363 . S
C1435 C1441 1.363 . S
C1436 C1437 1.363 . S
C1436 C1441 1.379 . S
C1436 N1443 1.356 . S
C1437 C1436 1.363 . S
C1437 C1440 1.363 . S
N1438 C1440 1.356 . S
N1438 H1450 0.984 . S
N1438 H1451 0.985 . S
N1439 C1441 1.356 . S
N1439 H1444 0.984 . S
N1439 H1445 0.985 . S
C1440 C1434 1.379 . S
C1440 C1437 1.363 . S
C1440 N1438 1.356 . S
C1441 C1435 1.363 . S
C1441 C1436 1.379 . S
C1441 N1439 1.356 . S
N1442 C1434 1.356 . S
N1442 H1448 0.984 . S
N1442 H1449 0.984 . S
N1443 C1436 1.356 . S
N1443 H1446 0.984 . S
N1443 H1447 0.985 . S
H1444 N1439 0.984 . S
H1445 N1439 0.985 . S
H1446 N1443 0.984 . S
H1447 N1443 0.985 . S
H1448 N1442 0.984 . S
H1449 N1442 0.984 . S
H1450 N1438 0.984 . S
H1451 N1438 0.985 . S
C1452 C1453 1.363 . S
C1452 C1458 1.379 . S
C1452 N1460 1.356 . S
C1453 C1452 1.363 . S
C1453 C1459 1.363 . S
C1454 C1455 1.363 . S
C1454 C1459 1.379 . S
C1454 N1461 1.356 . S
C1455 C1454 1.363 . S
C1455 C1458 1.363 . S
N1456 C1458 1.356 . S
N1456 H1468 0.984 . S
N1456 H1469 0.985 . S
N1457 C1459 1.356 . S
N1457 H1462 0.984 . S
N1457 H1463 0.985 . S
C1458 C1452 1.379 . S
C1458 C1455 1.363 . S
C1458 N1456 1.356 . S
C1459 C1453 1.363 . S
C1459 C1454 1.379 . S
C1459 N1457 1.356 . S
N1460 C1452 1.356 . S
N1460 H1466 0.984 . S
N1460 H1467 0.984 . S
N1461 C1454 1.356 . S
N1461 H1464 0.984 . S
N1461 H1465 0.985 . S
H1462 N1457 0.984 . S
H1463 N1457 0.985 . S
H1464 N1461 0.984 . S
H1465 N1461 0.985 . S
H1466 N1460 0.984 . S
H1467 N1460 0.984 . S
H1468 N1456 0.984 . S
H1469 N1456 0.985 . S
C1470 C1471 1.363 . S
C1470 C1476 1.379 . S
C1470 N1478 1.356 . S
C1471 C1470 1.363 . S
C1471 C1477 1.363 . S
C1472 C1473 1.363 . S
C1472 C1477 1.379 . S
C1472 N1479 1.356 . S
C1473 C1472 1.363 . S
C1473 C1476 1.363 . S
N1474 C1476 1.356 . S
N1474 H1486 0.984 . S
N1474 H1487 0.985 . S
N1475 C1477 1.356 . S
N1475 H1480 0.984 . S
N1475 H1481 0.985 . S
C1476 C1470 1.379 . S
C1476 C1473 1.363 . S
C1476 N1474 1.356 . S
C1477 C1471 1.363 . S
C1477 C1472 1.379 . S
C1477 N1475 1.356 . S
N1478 C1470 1.356 . S
N1478 H1484 0.984 . S
N1478 H1485 0.984 . S
N1479 C1472 1.356 . S
N1479 H1482 0.984 . S
N1479 H1483 0.985 . S
H1480 N1475 0.984 . S
H1481 N1475 0.985 . S
H1482 N1479 0.984 . S
H1483 N1479 0.985 . S
H1484 N1478 0.984 . S
H1485 N1478 0.984 . S
H1486 N1474 0.984 . S
H1487 N1474 0.985 . S
C1488 C1489 1.363 . S
C1488 C1494 1.379 . S
C1488 N1496 1.356 . S
C1489 C1488 1.363 . S
C1489 C1495 1.363 . S
C1490 C1491 1.363 . S
C1490 C1495 1.379 . S
C1490 N1497 1.356 . S
C1491 C1490 1.363 . S
C1491 C1494 1.363 . S
N1492 C1494 1.356 . S
N1492 H1504 0.984 . S
N1492 H1505 0.985 . S
N1493 C1495 1.356 . S
N1493 H1498 0.984 . S
N1493 H1499 0.985 . S
C1494 C1488 1.379 . S
C1494 C1491 1.363 . S
C1494 N1492 1.356 . S
C1495 C1489 1.363 . S
C1495 C1490 1.379 . S
C1495 N1493 1.356 . S
N1496 C1488 1.356 . S
N1496 H1502 0.984 . S
N1496 H1503 0.984 . S
N1497 C1490 1.356 . S
N1497 H1500 0.984 . S
N1497 H1501 0.985 . S
H1498 N1493 0.984 . S
H1499 N1493 0.985 . S
H1500 N1497 0.984 . S
H1501 N1497 0.985 . S
H1502 N1496 0.984 . S
H1503 N1496 0.984 . S
H1504 N1492 0.984 . S
H1505 N1492 0.985 . S
C1506 C1507 1.363 . S
C1506 C1512 1.379 . S
C1506 N1514 1.356 . S
C1507 C1506 1.363 . S
C1507 C1513 1.363 . S
C1508 C1509 1.363 . S
C1508 C1513 1.379 . S
C1508 N1515 1.356 . S
C1509 C1508 1.363 . S
C1509 C1512 1.363 . S
N1510 C1512 1.356 . S
N1510 H1522 0.984 . S
N1510 H1523 0.985 . S
N1511 C1513 1.356 . S
N1511 H1516 0.984 . S
N1511 H1517 0.985 . S
C1512 C1506 1.379 . S
C1512 C1509 1.363 . S
C1512 N1510 1.356 . S
C1513 C1507 1.363 . S
C1513 C1508 1.379 . S
C1513 N1511 1.356 . S
N1514 C1506 1.356 . S
N1514 H1520 0.984 . S
N1514 H1521 0.984 . S
N1515 C1508 1.356 . S
N1515 H1518 0.984 . S
N1515 H1519 0.985 . S
H1516 N1511 0.984 . S
H1517 N1511 0.985 . S
H1518 N1515 0.984 . S
H1519 N1515 0.985 . S
H1520 N1514 0.984 . S
H1521 N1514 0.984 . S
H1522 N1510 0.984 . S
H1523 N1510 0.985 . S
C1524 C1525 1.363 . S
C1524 C1530 1.379 . S
C1524 N1532 1.356 . S
C1525 C1524 1.363 . S
C1525 C1531 1.363 . S
C1526 C1527 1.363 . S
C1526 C1531 1.379 . S
C1526 N1533 1.356 . S
C1527 C1526 1.363 . S
C1527 C1530 1.363 . S
N1528 C1530 1.356 . S
N1528 H1540 0.984 . S
N1528 H1541 0.985 . S
N1529 C1531 1.356 . S
N1529 H1534 0.984 . S
N1529 H1535 0.985 . S
C1530 C1524 1.379 . S
C1530 C1527 1.363 . S
C1530 N1528 1.356 . S
C1531 C1525 1.363 . S
C1531 C1526 1.379 . S
C1531 N1529 1.356 . S
N1532 C1524 1.356 . S
N1532 H1538 0.984 . S
N1532 H1539 0.984 . S
N1533 C1526 1.356 . S
N1533 H1536 0.984 . S
N1533 H1537 0.985 . S
H1534 N1529 0.984 . S
H1535 N1529 0.985 . S
H1536 N1533 0.984 . S
H1537 N1533 0.985 . S
H1538 N1532 0.984 . S
H1539 N1532 0.984 . S
H1540 N1528 0.984 . S
H1541 N1528 0.985 . S
C1542 C1543 1.363 . S
C1542 C1548 1.379 . S
C1542 N1550 1.356 . S
C1543 C1542 1.363 . S
C1543 C1549 1.363 . S
C1544 C1545 1.363 . S
C1544 C1549 1.379 . S
C1544 N1551 1.356 . S
C1545 C1544 1.363 . S
C1545 C1548 1.363 . S
N1546 C1548 1.356 . S
N1546 H1558 0.984 . S
N1546 H1559 0.985 . S
N1547 C1549 1.356 . S
N1547 H1552 0.984 . S
N1547 H1553 0.985 . S
C1548 C1542 1.379 . S
C1548 C1545 1.363 . S
C1548 N1546 1.356 . S
C1549 C1543 1.363 . S
C1549 C1544 1.379 . S
C1549 N1547 1.356 . S
N1550 C1542 1.356 . S
N1550 H1556 0.984 . S
N1550 H1557 0.984 . S
N1551 C1544 1.356 . S
N1551 H1554 0.984 . S
N1551 H1555 0.985 . S
H1552 N1547 0.984 . S
H1553 N1547 0.985 . S
H1554 N1551 0.984 . S
H1555 N1551 0.985 . S
H1556 N1550 0.984 . S
H1557 N1550 0.984 . S
H1558 N1546 0.984 . S
H1559 N1546 0.985 . S
C1560 C1561 1.363 . S
C1560 C1566 1.379 . S
C1560 N1568 1.356 . S
C1561 C1560 1.363 . S
C1561 C1567 1.363 . S
C1562 C1563 1.363 . S
C1562 C1567 1.379 . S
C1562 N1569 1.356 . S
C1563 C1562 1.363 . S
C1563 C1566 1.363 . S
N1564 C1566 1.356 . S
N1564 H1576 0.984 . S
N1564 H1577 0.985 . S
N1565 C1567 1.356 . S
N1565 H1570 0.984 . S
N1565 H1571 0.985 . S
C1566 C1560 1.379 . S
C1566 C1563 1.363 . S
C1566 N1564 1.356 . S
C1567 C1561 1.363 . S
C1567 C1562 1.379 . S
C1567 N1565 1.356 . S
N1568 C1560 1.356 . S
N1568 H1574 0.984 . S
N1568 H1575 0.984 . S
N1569 C1562 1.356 . S
N1569 H1572 0.984 . S
N1569 H1573 0.985 . S
H1570 N1565 0.984 . S
H1571 N1565 0.985 . S
H1572 N1569 0.984 . S
H1573 N1569 0.985 . S
H1574 N1568 0.984 . S
H1575 N1568 0.984 . S
H1576 N1564 0.984 . S
H1577 N1564 0.985 . S
C1578 C1579 1.363 . S
C1578 C1584 1.379 . S
C1578 N1586 1.356 . S
C1579 C1578 1.363 . S
C1579 C1585 1.363 . S
C1580 C1581 1.363 . S
C1580 C1585 1.379 . S
C1580 N1587 1.356 . S
C1581 C1580 1.363 . S
C1581 C1584 1.363 . S
N1582 C1584 1.356 . S
N1582 H1594 0.984 . S
N1582 H1595 0.985 . S
N1583 C1585 1.356 . S
N1583 H1588 0.984 . S
N1583 H1589 0.985 . S
C1584 C1578 1.379 . S
C1584 C1581 1.363 . S
C1584 N1582 1.356 . S
C1585 C1579 1.363 . S
C1585 C1580 1.379 . S
C1585 N1583 1.356 . S
N1586 C1578 1.356 . S
N1586 H1592 0.984 . S
N1586 H1593 0.984 . S
N1587 C1580 1.356 . S
N1587 H1590 0.984 . S
N1587 H1591 0.985 . S
H1588 N1583 0.984 . S
H1589 N1583 0.985 . S
H1590 N1587 0.984 . S
H1591 N1587 0.985 . S
H1592 N1586 0.984 . S
H1593 N1586 0.984 . S
H1594 N1582 0.984 . S
H1595 N1582 0.985 . S
C1596 C1597 1.363 . S
C1596 C1602 1.379 . S
C1596 N1604 1.356 . S
C1597 C1596 1.363 . S
C1597 C1603 1.363 . S
C1598 C1599 1.363 . S
C1598 C1603 1.379 . S
C1598 N1605 1.356 . S
C1599 C1598 1.363 . S
C1599 C1602 1.363 . S
N1600 C1602 1.356 . S
N1600 H1612 0.984 . S
N1600 H1613 0.985 . S
N1601 C1603 1.356 . S
N1601 H1606 0.984 . S
N1601 H1607 0.985 . S
C1602 C1596 1.379 . S
C1602 C1599 1.363 . S
C1602 N1600 1.356 . S
C1603 C1597 1.363 . S
C1603 C1598 1.379 . S
C1603 N1601 1.356 . S
N1604 C1596 1.356 . S
N1604 H1610 0.984 . S
N1604 H1611 0.984 . S
N1605 C1598 1.356 . S
N1605 H1608 0.984 . S
N1605 H1609 0.985 . S
H1606 N1601 0.984 . S
H1607 N1601 0.985 . S
H1608 N1605 0.984 . S
H1609 N1605 0.985 . S
H1610 N1604 0.984 . S
H1611 N1604 0.984 . S
H1612 N1600 0.984 . S
H1613 N1600 0.985 . S
C1614 C1615 1.363 . S
C1614 C1620 1.379 . S
C1614 N1622 1.356 . S
C1615 C1614 1.363 . S
C1615 C1621 1.363 . S
C1616 C1617 1.363 . S
C1616 C1621 1.379 . S
C1616 N1623 1.356 . S
C1617 C1616 1.363 . S
C1617 C1620 1.363 . S
N1618 C1620 1.356 . S
N1618 H1630 0.984 . S
N1618 H1631 0.985 . S
N1619 C1621 1.356 . S
N1619 H1624 0.984 . S
N1619 H1625 0.985 . S
C1620 C1614 1.379 . S
C1620 C1617 1.363 . S
C1620 N1618 1.356 . S
C1621 C1615 1.363 . S
C1621 C1616 1.379 . S
C1621 N1619 1.356 . S
N1622 C1614 1.356 . S
N1622 H1628 0.984 . S
N1622 H1629 0.984 . S
N1623 C1616 1.356 . S
N1623 H1626 0.984 . S
N1623 H1627 0.985 . S
H1624 N1619 0.984 . S
H1625 N1619 0.985 . S
H1626 N1623 0.984 . S
H1627 N1623 0.985 . S
H1628 N1622 0.984 . S
H1629 N1622 0.984 . S
H1630 N1618 0.984 . S
H1631 N1618 0.985 . S
C1632 C1633 1.363 . S
C1632 C1638 1.379 . S
C1632 N1640 1.356 . S
C1633 C1632 1.363 . S
C1633 C1639 1.363 . S
C1634 C1635 1.363 . S
C1634 C1639 1.379 . S
C1634 N1641 1.356 . S
C1635 C1634 1.363 . S
C1635 C1638 1.363 . S
N1636 C1638 1.356 . S
N1636 H1648 0.984 . S
N1636 H1649 0.985 . S
N1637 C1639 1.356 . S
N1637 H1642 0.984 . S
N1637 H1643 0.985 . S
C1638 C1632 1.379 . S
C1638 C1635 1.363 . S
C1638 N1636 1.356 . S
C1639 C1633 1.363 . S
C1639 C1634 1.379 . S
C1639 N1637 1.356 . S
N1640 C1632 1.356 . S
N1640 H1646 0.984 . S
N1640 H1647 0.984 . S
N1641 C1634 1.356 . S
N1641 H1644 0.984 . S
N1641 H1645 0.985 . S
H1642 N1637 0.984 . S
H1643 N1637 0.985 . S
H1644 N1641 0.984 . S
H1645 N1641 0.985 . S
H1646 N1640 0.984 . S
H1647 N1640 0.984 . S
H1648 N1636 0.984 . S
H1649 N1636 0.985 . S
C1650 C1651 1.363 . S
C1650 C1656 1.379 . S
C1650 N1658 1.356 . S
C1651 C1650 1.363 . S
C1651 C1657 1.363 . S
C1652 C1653 1.363 . S
C1652 C1657 1.379 . S
C1652 N1659 1.356 . S
C1653 C1652 1.363 . S
C1653 C1656 1.363 . S
N1654 C1656 1.356 . S
N1654 H1666 0.984 . S
N1654 H1667 0.985 . S
N1655 C1657 1.356 . S
N1655 H1660 0.984 . S
N1655 H1661 0.985 . S
C1656 C1650 1.379 . S
C1656 C1653 1.363 . S
C1656 N1654 1.356 . S
C1657 C1651 1.363 . S
C1657 C1652 1.379 . S
C1657 N1655 1.356 . S
N1658 C1650 1.356 . S
N1658 H1664 0.984 . S
N1658 H1665 0.984 . S
N1659 C1652 1.356 . S
N1659 H1662 0.984 . S
N1659 H1663 0.985 . S
H1660 N1655 0.984 . S
H1661 N1655 0.985 . S
H1662 N1659 0.984 . S
H1663 N1659 0.985 . S
H1664 N1658 0.984 . S
H1665 N1658 0.984 . S
H1666 N1654 0.984 . S
H1667 N1654 0.985 . S
C1668 C1669 1.363 . S
C1668 C1674 1.379 . S
C1668 N1676 1.356 . S
C1669 C1668 1.363 . S
C1669 C1675 1.363 . S
C1670 C1671 1.363 . S
C1670 C1675 1.379 . S
C1670 N1677 1.356 . S
C1671 C1670 1.363 . S
C1671 C1674 1.363 . S
N1672 C1674 1.356 . S
N1672 H1684 0.984 . S
N1672 H1685 0.985 . S
N1673 C1675 1.356 . S
N1673 H1678 0.984 . S
N1673 H1679 0.985 . S
C1674 C1668 1.379 . S
C1674 C1671 1.363 . S
C1674 N1672 1.356 . S
C1675 C1669 1.363 . S
C1675 C1670 1.379 . S
C1675 N1673 1.356 . S
N1676 C1668 1.356 . S
N1676 H1682 0.984 . S
N1676 H1683 0.984 . S
N1677 C1670 1.356 . S
N1677 H1680 0.984 . S
N1677 H1681 0.985 . S
H1678 N1673 0.984 . S
H1679 N1673 0.985 . S
H1680 N1677 0.984 . S
H1681 N1677 0.985 . S
H1682 N1676 0.984 . S
H1683 N1676 0.984 . S
H1684 N1672 0.984 . S
H1685 N1672 0.985 . S
C1686 C1687 1.363 . S
C1686 C1692 1.379 . S
C1686 N1694 1.356 . S
C1687 C1686 1.363 . S
C1687 C1693 1.363 . S
C1688 C1689 1.363 . S
C1688 C1693 1.379 . S
C1688 N1695 1.356 . S
C1689 C1688 1.363 . S
C1689 C1692 1.363 . S
N1690 C1692 1.356 . S
N1690 H1702 0.984 . S
N1690 H1703 0.985 . S
N1691 C1693 1.356 . S
N1691 H1696 0.984 . S
N1691 H1697 0.985 . S
C1692 C1686 1.379 . S
C1692 C1689 1.363 . S
C1692 N1690 1.356 . S
C1693 C1687 1.363 . S
C1693 C1688 1.379 . S
C1693 N1691 1.356 . S
N1694 C1686 1.356 . S
N1694 H1700 0.984 . S
N1694 H1701 0.984 . S
N1695 C1688 1.356 . S
N1695 H1698 0.984 . S
N1695 H1699 0.985 . S
H1696 N1691 0.984 . S
H1697 N1691 0.985 . S
H1698 N1695 0.984 . S
H1699 N1695 0.985 . S
H1700 N1694 0.984 . S
H1701 N1694 0.984 . S
H1702 N1690 0.984 . S
H1703 N1690 0.985 . S
C1704 C1705 1.363 . S
C1704 C1710 1.379 . S
C1704 N1712 1.356 . S
C1705 C1704 1.363 . S
C1705 C1711 1.363 . S
C1706 C1707 1.363 . S
C1706 C1711 1.379 . S
C1706 N1713 1.356 . S
C1707 C1706 1.363 . S
C1707 C1710 1.363 . S
N1708 C1710 1.356 . S
N1708 H1720 0.984 . S
N1708 H1721 0.985 . S
N1709 C1711 1.356 . S
N1709 H1714 0.984 . S
N1709 H1715 0.985 . S
C1710 C1704 1.379 . S
C1710 C1707 1.363 . S
C1710 N1708 1.356 . S
C1711 C1705 1.363 . S
C1711 C1706 1.379 . S
C1711 N1709 1.356 . S
N1712 C1704 1.356 . S
N1712 H1718 0.984 . S
N1712 H1719 0.984 . S
N1713 C1706 1.356 . S
N1713 H1716 0.984 . S
N1713 H1717 0.985 . S
H1714 N1709 0.984 . S
H1715 N1709 0.985 . S
H1716 N1713 0.984 . S
H1717 N1713 0.985 . S
H1718 N1712 0.984 . S
H1719 N1712 0.984 . S
H1720 N1708 0.984 . S
H1721 N1708 0.985 . S
C1722 C1723 1.363 . S
C1722 C1728 1.379 . S
C1722 N1730 1.356 . S
C1723 C1722 1.363 . S
C1723 C1729 1.363 . S
C1724 C1725 1.363 . S
C1724 C1729 1.379 . S
C1724 N1731 1.356 . S
C1725 C1724 1.363 . S
C1725 C1728 1.363 . S
N1726 C1728 1.356 . S
N1726 H1738 0.984 . S
N1726 H1739 0.985 . S
N1727 C1729 1.356 . S
N1727 H1732 0.984 . S
N1727 H1733 0.985 1_556 S
C1728 C1722 1.379 . S
C1728 C1725 1.363 . S
C1728 N1726 1.356 . S
C1729 C1723 1.363 . S
C1729 C1724 1.379 . S
C1729 N1727 1.356 . S
N1730 C1722 1.356 . S
N1730 H1736 0.984 . S
N1730 H1737 0.984 . S
N1731 C1724 1.356 . S
N1731 H1734 1.001 . S
N1731 H1735 0.985 1_556 S
H1732 N1727 0.984 . S
H1733 N1727 0.985 1_554 S
H1734 N1731 1.001 . S
H1735 N1731 0.985 1_554 S
H1736 N1730 0.984 . S
H1737 N1730 0.984 . S
H1738 N1726 0.984 . S
H1739 N1726 0.985 . S
C1740 C1741 1.363 . S
C1740 C1746 1.379 . S
C1740 N1748 1.356 . S
C1741 C1740 1.363 . S
C1741 C1747 1.363 . S
C1742 C1743 1.363 . S
C1742 C1747 1.379 . S
C1742 N1749 1.356 . S
C1743 C1742 1.363 . S
C1743 C1746 1.363 . S
N1744 C1746 1.356 . S
N1744 H1756 0.984 . S
N1744 H1757 0.985 . S
N1745 C1747 1.356 . S
N1745 H1750 0.984 . S
N1745 H1751 0.985 . S
C1746 C1740 1.379 . S
C1746 C1743 1.363 . S
C1746 N1744 1.356 . S
C1747 C1741 1.363 . S
C1747 C1742 1.379 . S
C1747 N1745 1.356 . S
N1748 C1740 1.356 . S
N1748 H1754 0.984 . S
N1748 H1755 0.984 . S
N1749 C1742 1.356 . S
N1749 H1752 0.984 . S
N1749 H1753 0.985 . S
H1750 N1745 0.984 . S
H1751 N1745 0.985 . S
H1752 N1749 0.984 . S
H1753 N1749 0.985 . S
H1754 N1748 0.984 . S
H1755 N1748 0.984 . S
H1756 N1744 0.984 . S
H1757 N1744 0.985 . S
C1758 C1759 1.363 . S
C1758 C1764 1.379 . S
C1758 N1766 1.356 . S
C1759 C1758 1.363 . S
C1759 C1765 1.363 . S
C1760 C1761 1.363 . S
C1760 C1765 1.379 . S
C1760 N1767 1.356 . S
C1761 C1760 1.363 . S
C1761 C1764 1.363 . S
N1762 C1764 1.356 . S
N1762 H1774 0.984 . S
N1762 H1775 0.985 . S
N1763 C1765 1.356 . S
N1763 H1768 0.984 . S
N1763 H1769 0.985 . S
C1764 C1758 1.379 . S
C1764 C1761 1.363 . S
C1764 N1762 1.356 . S
C1765 C1759 1.363 . S
C1765 C1760 1.379 . S
C1765 N1763 1.356 . S
N1766 C1758 1.356 . S
N1766 H1772 0.984 . S
N1766 H1773 0.984 . S
N1767 C1760 1.356 . S
N1767 H1770 0.984 . S
N1767 H1771 0.985 . S
H1768 N1763 0.984 . S
H1769 N1763 0.985 . S
H1770 N1767 0.984 . S
H1771 N1767 0.985 . S
H1772 N1766 0.984 . S
H1773 N1766 0.984 . S
H1774 N1762 0.984 . S
H1775 N1762 0.985 . S
C1776 C1777 1.363 . S
C1776 C1782 1.379 . S
C1776 N1784 1.356 . S
C1777 C1776 1.363 . S
C1777 C1783 1.363 . S
C1778 C1779 1.363 . S
C1778 C1783 1.379 . S
C1778 N1785 1.356 . S
C1779 C1778 1.363 . S
C1779 C1782 1.363 . S
N1780 C1782 1.356 . S
N1780 H1792 0.984 . S
N1780 H1793 0.985 . S
N1781 C1783 1.356 . S
N1781 H1786 0.984 . S
N1781 H1787 0.985 . S
C1782 C1776 1.379 . S
C1782 C1779 1.363 . S
C1782 N1780 1.356 . S
C1783 C1777 1.363 . S
C1783 C1778 1.379 . S
C1783 N1781 1.356 . S
N1784 C1776 1.356 . S
N1784 H1790 0.984 . S
N1784 H1791 0.984 . S
N1785 C1778 1.356 . S
N1785 H1788 0.984 . S
N1785 H1789 0.985 . S
H1786 N1781 0.984 . S
H1787 N1781 0.985 . S
H1788 N1785 0.984 . S
H1789 N1785 0.985 . S
H1790 N1784 0.984 . S
H1791 N1784 0.984 . S
H1792 N1780 0.984 . S
H1793 N1780 0.985 . S
C1794 C1795 1.363 . S
C1794 C1800 1.379 . S
C1794 N1802 1.356 . S
C1795 C1794 1.363 . S
C1795 C1801 1.363 . S
C1796 C1797 1.363 . S
C1796 C1801 1.379 . S
C1796 N1803 1.356 . S
C1797 C1796 1.363 . S
C1797 C1800 1.363 . S
N1798 C1800 1.356 . S
N1798 H1810 0.984 . S
N1798 H1811 0.985 . S
N1799 C1801 1.356 . S
N1799 H1804 0.984 . S
N1799 H1805 0.985 . S
C1800 C1794 1.379 . S
C1800 C1797 1.363 . S
C1800 N1798 1.356 . S
C1801 C1795 1.363 . S
C1801 C1796 1.379 . S
C1801 N1799 1.356 . S
N1802 C1794 1.356 . S
N1802 H1808 0.984 . S
N1802 H1809 0.984 . S
N1803 C1796 1.356 . S
N1803 H1806 0.984 . S
N1803 H1807 0.985 . S
H1804 N1799 0.984 . S
H1805 N1799 0.985 . S
H1806 N1803 0.984 . S
H1807 N1803 0.985 . S
H1808 N1802 0.984 . S
H1809 N1802 0.984 . S
H1810 N1798 0.984 . S
H1811 N1798 0.985 . S
C1812 C1813 1.363 . S
C1812 C1818 1.379 . S
C1812 N1820 1.356 . S
C1813 C1812 1.363 . S
C1813 C1819 1.363 . S
C1814 C1815 1.363 . S
C1814 C1819 1.379 . S
C1814 N1821 1.356 . S
C1815 C1814 1.363 . S
C1815 C1818 1.363 . S
N1816 C1818 1.356 . S
N1816 H1828 0.984 . S
N1816 H1829 0.985 . S
N1817 C1819 1.356 . S
N1817 H1822 0.984 . S
N1817 H1823 0.985 . S
C1818 C1812 1.379 . S
C1818 C1815 1.363 . S
C1818 N1816 1.356 . S
C1819 C1813 1.363 . S
C1819 C1814 1.379 . S
C1819 N1817 1.356 . S
N1820 C1812 1.356 . S
N1820 H1826 0.984 . S
N1820 H1827 0.984 . S
N1821 C1814 1.356 . S
N1821 H1824 0.984 . S
N1821 H1825 0.985 . S
H1822 N1817 0.984 . S
H1823 N1817 0.985 . S
H1824 N1821 0.984 . S
H1825 N1821 0.985 . S
H1826 N1820 0.984 . S
H1827 N1820 0.984 . S
H1828 N1816 0.984 . S
H1829 N1816 0.985 . S
C1830 C1831 1.363 . S
C1830 C1836 1.379 . S
C1830 N1838 1.356 . S
C1831 C1830 1.363 . S
C1831 C1837 1.363 . S
C1832 C1833 1.363 . S
C1832 C1837 1.379 . S
C1832 N1839 1.356 . S
C1833 C1832 1.363 . S
C1833 C1836 1.363 . S
N1834 C1836 1.356 . S
N1834 H1846 0.984 . S
N1834 H1847 0.985 . S
N1835 C1837 1.356 . S
N1835 H1840 0.984 . S
N1835 H1841 0.985 . S
C1836 C1830 1.379 . S
C1836 C1833 1.363 . S
C1836 N1834 1.356 . S
C1837 C1831 1.363 . S
C1837 C1832 1.379 . S
C1837 N1835 1.356 . S
N1838 C1830 1.356 . S
N1838 H1844 0.984 . S
N1838 H1845 0.984 . S
N1839 C1832 1.356 . S
N1839 H1842 0.984 . S
N1839 H1843 0.985 . S
H1840 N1835 0.984 . S
H1841 N1835 0.985 . S
H1842 N1839 0.984 . S
H1843 N1839 0.985 . S
H1844 N1838 0.984 . S
H1845 N1838 0.984 . S
H1846 N1834 0.984 . S
H1847 N1834 0.985 . S
C1848 C1849 1.363 . S
C1848 C1854 1.379 . S
C1848 N1856 1.356 . S
C1849 C1848 1.363 . S
C1849 C1855 1.363 . S
C1850 C1851 1.363 . S
C1850 C1855 1.379 . S
C1850 N1857 1.356 . S
C1851 C1850 1.363 . S
C1851 C1854 1.363 . S
N1852 C1854 1.356 . S
N1852 H1864 0.984 . S
N1852 H1865 0.985 . S
N1853 C1855 1.356 . S
N1853 H1858 0.984 . S
N1853 H1859 0.985 . S
C1854 C1848 1.379 . S
C1854 C1851 1.363 . S
C1854 N1852 1.356 . S
C1855 C1849 1.363 . S
C1855 C1850 1.379 . S
C1855 N1853 1.356 . S
N1856 C1848 1.356 . S
N1856 H1862 0.984 . S
N1856 H1863 0.984 . S
N1857 C1850 1.356 . S
N1857 H1860 0.984 . S
N1857 H1861 0.985 . S
H1858 N1853 0.984 . S
H1859 N1853 0.985 . S
H1860 N1857 0.984 . S
H1861 N1857 0.985 . S
H1862 N1856 0.984 . S
H1863 N1856 0.984 . S
H1864 N1852 0.984 . S
H1865 N1852 0.985 . S
C1866 C1867 1.363 . S
C1866 C1872 1.379 . S
C1866 N1874 1.356 . S
C1867 C1866 1.363 . S
C1867 C1873 1.363 . S
C1868 C1869 1.363 . S
C1868 C1873 1.379 . S
C1868 N1875 1.356 . S
C1869 C1868 1.363 . S
C1869 C1872 1.363 . S
N1870 C1872 1.356 . S
N1870 H1882 0.984 . S
N1870 H1883 0.985 . S
N1871 C1873 1.356 . S
N1871 H1876 0.984 . S
N1871 H1877 0.985 . S
C1872 C1866 1.379 . S
C1872 C1869 1.363 . S
C1872 N1870 1.356 . S
C1873 C1867 1.363 . S
C1873 C1868 1.379 . S
C1873 N1871 1.356 . S
N1874 C1866 1.356 . S
N1874 H1880 0.984 . S
N1874 H1881 0.984 . S
N1875 C1868 1.356 . S
N1875 H1878 0.984 . S
N1875 H1879 0.985 . S
H1876 N1871 0.984 . S
H1877 N1871 0.985 . S
H1878 N1875 0.984 . S
H1879 N1875 0.985 . S
H1880 N1874 0.984 . S
H1881 N1874 0.984 . S
H1882 N1870 0.984 . S
H1883 N1870 0.985 . S
C1884 C1885 1.363 . S
C1884 C1890 1.379 . S
C1884 N1892 1.356 . S
C1885 C1884 1.363 . S
C1885 C1891 1.363 . S
C1886 C1887 1.363 . S
C1886 C1891 1.379 . S
C1886 N1893 1.356 . S
C1887 C1886 1.363 . S
C1887 C1890 1.363 . S
N1888 C1890 1.356 . S
N1888 H1900 0.984 . S
N1888 H1901 0.985 . S
N1889 C1891 1.356 . S
N1889 H1894 0.984 . S
N1889 H1895 0.985 . S
C1890 C1884 1.379 . S
C1890 C1887 1.363 . S
C1890 N1888 1.356 . S
C1891 C1885 1.363 . S
C1891 C1886 1.379 . S
C1891 N1889 1.356 . S
N1892 C1884 1.356 . S
N1892 H1898 0.984 . S
N1892 H1899 0.984 . S
N1893 C1886 1.356 . S
N1893 H1896 0.984 . S
N1893 H1897 0.985 . S
H1894 N1889 0.984 . S
H1895 N1889 0.985 . S
H1896 N1893 0.984 . S
H1897 N1893 0.985 . S
H1898 N1892 0.984 . S
H1899 N1892 0.984 . S
H1900 N1888 0.984 . S
H1901 N1888 0.985 . S
C1902 C1903 1.363 . S
C1902 C1908 1.379 . S
C1902 N1910 1.356 . S
C1903 C1902 1.363 . S
C1903 C1909 1.363 . S
C1904 C1905 1.363 . S
C1904 C1909 1.379 . S
C1904 N1911 1.356 . S
C1905 C1904 1.363 . S
C1905 C1908 1.363 . S
N1906 C1908 1.356 . S
N1906 H1918 0.984 . S
N1906 H1919 0.985 . S
N1907 C1909 1.356 . S
N1907 H1912 0.984 . S
N1907 H1913 0.985 . S
C1908 C1902 1.379 . S
C1908 C1905 1.363 . S
C1908 N1906 1.356 . S
C1909 C1903 1.363 . S
C1909 C1904 1.379 . S
C1909 N1907 1.356 . S
N1910 C1902 1.356 . S
N1910 H1916 0.984 . S
N1910 H1917 0.984 . S
N1911 C1904 1.356 . S
N1911 H1914 0.984 . S
N1911 H1915 0.985 . S
H1912 N1907 0.984 . S
H1913 N1907 0.985 . S
H1914 N1911 0.984 . S
H1915 N1911 0.985 . S
H1916 N1910 0.984 . S
H1917 N1910 0.984 . S
H1918 N1906 0.984 . S
H1919 N1906 0.985 . S
C1920 C1921 1.363 . S
C1920 C1926 1.379 . S
C1920 N1928 1.356 . S
C1921 C1920 1.363 . S
C1921 C1927 1.363 . S
C1922 C1923 1.363 . S
C1922 C1927 1.379 . S
C1922 N1929 1.356 . S
C1923 C1922 1.363 . S
C1923 C1926 1.363 . S
N1924 C1926 1.356 . S
N1924 H1936 0.984 . S
N1924 H1937 0.985 . S
N1925 C1927 1.356 . S
N1925 H1930 0.984 . S
N1925 H1931 0.985 . S
C1926 C1920 1.379 . S
C1926 C1923 1.363 . S
C1926 N1924 1.356 . S
C1927 C1921 1.363 . S
C1927 C1922 1.379 . S
C1927 N1925 1.356 . S
N1928 C1920 1.356 . S
N1928 H1934 0.984 . S
N1928 H1935 0.984 . S
N1929 C1922 1.356 . S
N1929 H1932 0.984 . S
N1929 H1933 0.985 . S
H1930 N1925 0.984 . S
H1931 N1925 0.985 . S
H1932 N1929 0.984 . S
H1933 N1929 0.985 . S
H1934 N1928 0.984 . S
H1935 N1928 0.984 . S
H1936 N1924 0.984 . S
H1937 N1924 0.985 . S
C1938 C1939 1.363 . S
C1938 C1944 1.379 1_455 S
C1938 N1946 1.356 . S
C1939 C1938 1.363 . S
C1939 C1945 1.363 1_565 S
C1940 C1941 1.363 . S
C1940 C1945 1.379 1_655 S
C1940 N1947 1.356 . S
C1941 C1940 1.363 . S
C1941 C1944 1.363 1_545 S
N1942 C1944 1.356 . S
N1942 H1954 0.984 . S
N1942 H1955 0.985 . S
N1943 C1945 1.356 . S
N1943 H1948 0.984 . S
N1943 H1949 0.985 . S
C1944 C1938 1.379 1_655 S
C1944 C1941 1.363 1_565 S
C1944 N1942 1.356 . S
C1945 C1939 1.363 1_545 S
C1945 C1940 1.379 1_455 S
C1945 N1943 1.356 . S
N1946 C1938 1.356 . S
N1946 H1952 0.984 . S
N1946 H1953 0.984 . S
N1947 C1940 1.356 . S
N1947 H1950 0.984 . S
N1947 H1951 0.985 . S
H1948 N1943 0.984 . S
H1949 N1943 0.985 . S
H1950 N1947 0.984 . S
H1951 N1947 0.985 . S
H1952 N1946 0.984 . S
H1953 N1946 0.984 . S
H1954 N1942 0.984 . S
H1955 N1942 0.985 . S
C1956 C1957 1.363 . S
C1956 C1962 1.379 . S
C1956 N1964 1.356 . S
C1957 C1956 1.363 . S
C1957 C1963 1.363 . S
C1958 C1959 1.363 . S
C1958 C1963 1.379 . S
C1958 N1965 1.356 . S
C1959 C1958 1.363 . S
C1959 C1962 1.363 . S
N1960 C1962 1.356 . S
N1960 H1972 0.984 . S
N1960 H1973 0.985 . S
N1961 C1963 1.356 . S
N1961 H1966 0.984 . S
N1961 H1967 0.985 . S
C1962 C1956 1.379 . S
C1962 C1959 1.363 . S
C1962 N1960 1.356 . S
C1963 C1957 1.363 . S
C1963 C1958 1.379 . S
C1963 N1961 1.356 . S
N1964 C1956 1.356 . S
N1964 H1970 0.984 . S
N1964 H1971 0.984 . S
N1965 C1958 1.356 . S
N1965 H1968 0.984 . S
N1965 H1969 0.985 . S
H1966 N1961 0.984 . S
H1967 N1961 0.985 . S
H1968 N1965 0.984 . S
H1969 N1965 0.985 . S
H1970 N1964 0.984 . S
H1971 N1964 0.984 . S
H1972 N1960 0.984 . S
H1973 N1960 0.985 . S
C1974 C1975 1.363 1_554 S
C1974 C1980 1.379 . S
C1974 N1982 1.356 . S
C1975 C1974 1.363 1_556 S
C1975 C1981 1.363 1_565 S
C1976 C1977 1.363 1_556 S
C1976 C1981 1.379 . S
C1976 N1983 1.356 . S
C1977 C1976 1.363 1_554 S
C1977 C1980 1.363 1_545 S
N1978 C1980 1.356 . S
N1978 H1990 0.984 . S
N1978 H1991 0.985 . S
N1979 C1981 1.356 . S
N1979 H1984 0.984 . S
N1979 H1985 0.985 . S
C1980 C1974 1.379 . S
C1980 C1977 1.363 1_565 S
C1980 N1978 1.356 . S
C1981 C1975 1.363 1_545 S
C1981 C1976 1.379 . S
C1981 N1979 1.356 . S
N1982 C1974 1.356 . S
N1982 H1988 0.984 . S
N1982 H1989 0.984 . S
N1983 C1976 1.356 . S
N1983 H1986 0.984 . S
N1983 H1987 0.985 . S
H1984 N1979 0.984 . S
H1985 N1979 0.985 . S
H1986 N1983 0.984 . S
H1987 N1983 0.985 . S
H1988 N1982 0.984 . S
H1989 N1982 0.984 . S
H1990 N1978 0.984 . S
H1991 N1978 0.985 . S
C1992 C1993 1.363 . S
C1992 C1998 1.379 . S
C1992 N2000 1.356 . S
C1993 C1992 1.363 . S
C1993 C1999 1.363 . S
C1994 C1995 1.363 . S
C1994 C1999 1.379 . S
C1994 N2001 1.356 . S
C1995 C1994 1.363 . S
C1995 C1998 1.363 . S
N1996 C1998 1.356 . S
N1996 H2008 0.984 . S
N1996 H2009 0.985 . S
N1997 C1999 1.356 . S
N1997 H2002 0.984 . S
N1997 H2003 0.985 . S
C1998 C1992 1.379 . S
C1998 C1995 1.363 . S
C1998 N1996 1.356 . S
C1999 C1993 1.363 . S
C1999 C1994 1.379 . S
C1999 N1997 1.356 . S
N2000 C1992 1.356 . S
N2000 H2006 0.984 . S
N2000 H2007 0.984 . S
N2001 C1994 1.356 . S
N2001 H2004 0.984 . S
N2001 H2005 0.985 . S
H2002 N1997 0.984 . S
H2003 N1997 0.985 . S
H2004 N2001 0.984 . S
H2005 N2001 0.985 . S
H2006 N2000 0.984 . S
H2007 N2000 0.984 . S
H2008 N1996 0.984 . S
H2009 N1996 0.985 . S
C2010 C2011 1.363 . S
C2010 C2016 1.379 1_565 S
C2010 N2018 1.356 . S
C2011 C2010 1.363 . S
C2011 C2017 1.363 . S
C2012 C2013 1.363 . S
C2012 C2017 1.379 1_545 S
C2012 N2019 1.356 . S
C2013 C2012 1.363 . S
C2013 C2016 1.363 . S
N2014 C2016 1.356 . S
N2014 H2026 0.984 . S
N2014 H2027 0.985 . S
N2015 C2017 1.356 . S
N2015 H2020 0.984 . S
N2015 H2021 0.985 . S
C2016 C2010 1.379 1_545 S
C2016 C2013 1.363 . S
C2016 N2014 1.356 . S
C2017 C2011 1.363 . S
C2017 C2012 1.379 1_565 S
C2017 N2015 1.356 . S
N2018 C2010 1.356 . S
N2018 H2024 0.984 1_565 S
N2018 H2025 0.984 . S
N2019 C2012 1.356 . S
N2019 H2022 0.984 . S
N2019 H2023 0.985 1_545 S
H2020 N2015 0.984 . S
H2021 N2015 0.985 . S
H2022 N2019 0.984 . S
H2023 N2019 0.985 1_565 S
H2024 N2018 0.984 1_545 S
H2025 N2018 0.984 . S
H2026 N2014 0.984 . S
H2027 N2014 0.985 . S
C2028 C2029 1.363 . S
C2028 C2034 1.379 . S
C2028 N2036 1.356 . S
C2029 C2028 1.363 . S
C2029 C2035 1.363 . S
C2030 C2031 1.363 . S
C2030 C2035 1.379 . S
C2030 N2037 1.356 . S
C2031 C2030 1.363 . S
C2031 C2034 1.363 . S
N2032 C2034 1.356 . S
N2032 H2044 0.984 . S
N2032 H2045 0.985 . S
N2033 C2035 1.356 . S
N2033 H2038 0.984 . S
N2033 H2039 0.985 . S
C2034 C2028 1.379 . S
C2034 C2031 1.363 . S
C2034 N2032 1.356 . S
C2035 C2029 1.363 . S
C2035 C2030 1.379 . S
C2035 N2033 1.356 . S
N2036 C2028 1.356 . S
N2036 H2042 0.984 . S
N2036 H2043 0.984 . S
N2037 C2030 1.356 . S
N2037 H2040 0.984 . S
N2037 H2041 0.985 . S
H2038 N2033 0.984 . S
H2039 N2033 0.985 . S
H2040 N2037 0.984 . S
H2041 N2037 0.985 . S
H2042 N2036 0.984 . S
H2043 N2036 0.984 . S
H2044 N2032 0.984 . S
H2045 N2032 0.985 . S
C2046 C2047 1.363 . S
C2046 C2052 1.379 1_455 S
C2046 N2054 1.356 . S
C2047 C2046 1.363 . S
C2047 C2053 1.363 1_546 S
C2048 C2049 1.363 . S
C2048 C2053 1.379 1_655 S
C2048 N2055 1.356 . S
C2049 C2048 1.363 . S
C2049 C2052 1.363 1_564 S
N2050 C2052 1.356 . S
N2050 H2062 0.984 . S
N2050 H2063 0.985 . S
N2051 C2053 1.356 . S
N2051 H2056 0.984 . S
N2051 H2057 0.985 . S
C2052 C2046 1.379 1_655 S
C2052 C2049 1.363 1_546 S
C2052 N2050 1.356 . S
C2053 C2047 1.363 1_564 S
C2053 C2048 1.379 1_455 S
C2053 N2051 1.356 . S
N2054 C2046 1.356 . S
N2054 H2060 0.984 . S
N2054 H2061 0.984 . S
N2055 C2048 1.356 . S
N2055 H2058 0.984 . S
N2055 H2059 0.985 . S
H2056 N2051 0.984 . S
H2057 N2051 0.985 . S
H2058 N2055 0.984 . S
H2059 N2055 0.985 . S
H2060 N2054 0.984 . S
H2061 N2054 0.984 . S
H2062 N2050 0.984 . S
H2063 N2050 0.985 . S
C2064 C2065 1.363 . S
C2064 C2070 1.379 . S
C2064 N2072 1.356 . S
C2065 C2064 1.363 . S
C2065 C2071 1.363 . S
C2066 C2067 1.363 . S
C2066 C2071 1.379 . S
C2066 N2073 1.356 . S
C2067 C2066 1.363 . S
C2067 C2070 1.363 . S
N2068 C2070 1.356 . S
N2068 H2080 0.984 . S
N2068 H2081 0.985 . S
N2069 C2071 1.356 . S
N2069 H2074 0.984 . S
N2069 H2075 0.985 . S
C2070 C2064 1.379 . S
C2070 C2067 1.363 . S
C2070 N2068 1.356 . S
C2071 C2065 1.363 . S
C2071 C2066 1.379 . S
C2071 N2069 1.356 . S
N2072 C2064 1.356 . S
N2072 H2078 0.984 . S
N2072 H2079 0.984 . S
N2073 C2066 1.356 . S
N2073 H2076 0.984 . S
N2073 H2077 0.985 . S
H2074 N2069 0.984 . S
H2075 N2069 0.985 . S
H2076 N2073 0.984 . S
H2077 N2073 0.985 . S
H2078 N2072 0.984 . S
H2079 N2072 0.984 . S
H2080 N2068 0.984 . S
H2081 N2068 0.985 . S
C2082 C2083 1.363 . S
C2082 C2088 1.379 . S
C2082 N2090 1.356 . S
C2083 C2082 1.363 . S
C2083 C2089 1.363 . S
C2084 C2085 1.363 . S
C2084 C2089 1.379 . S
C2084 N2091 1.356 . S
C2085 C2084 1.363 . S
C2085 C2088 1.363 . S
N2086 C2088 1.356 . S
N2086 H2098 0.984 . S
N2086 H2099 0.985 . S
N2087 C2089 1.356 . S
N2087 H2092 0.984 . S
N2087 H2093 0.985 . S
C2088 C2082 1.379 . S
C2088 C2085 1.363 . S
C2088 N2086 1.356 . S
C2089 C2083 1.363 . S
C2089 C2084 1.379 . S
C2089 N2087 1.356 . S
N2090 C2082 1.356 . S
N2090 H2096 0.984 . S
N2090 H2097 0.984 . S
N2091 C2084 1.356 . S
N2091 H2094 0.984 . S
N2091 H2095 0.985 . S
H2092 N2087 0.984 . S
H2093 N2087 0.985 . S
H2094 N2091 0.984 . S
H2095 N2091 0.985 . S
H2096 N2090 0.984 . S
H2097 N2090 0.984 . S
H2098 N2086 0.984 . S
H2099 N2086 0.985 . S
C2100 C2101 1.363 . S
C2100 C2106 1.379 . S
C2100 N2108 1.356 . S
C2101 C2100 1.363 . S
C2101 C2107 1.363 . S
C2102 C2103 1.363 . S
C2102 C2107 1.379 . S
C2102 N2109 1.356 . S
C2103 C2102 1.363 . S
C2103 C2106 1.363 . S
N2104 C2106 1.356 . S
N2104 H2116 0.984 . S
N2104 H2117 0.985 . S
N2105 C2107 1.356 . S
N2105 H2110 0.984 . S
N2105 H2111 0.985 . S
C2106 C2100 1.379 . S
C2106 C2103 1.363 . S
C2106 N2104 1.356 . S
C2107 C2101 1.363 . S
C2107 C2102 1.379 . S
C2107 N2105 1.356 . S
N2108 C2100 1.356 . S
N2108 H2114 0.984 . S
N2108 H2115 0.984 . S
N2109 C2102 1.356 . S
N2109 H2112 0.984 . S
N2109 H2113 0.985 . S
H2110 N2105 0.984 . S
H2111 N2105 0.985 . S
H2112 N2109 0.984 . S
H2113 N2109 0.985 . S
H2114 N2108 0.984 . S
H2115 N2108 0.984 . S
H2116 N2104 0.984 . S
H2117 N2104 0.985 . S
C2118 C2119 1.363 . S
C2118 C2124 1.379 . S
C2118 N2126 1.356 . S
C2119 C2118 1.363 . S
C2119 C2125 1.363 . S
C2120 C2121 1.363 . S
C2120 C2125 1.379 . S
C2120 N2127 1.356 . S
C2121 C2120 1.363 . S
C2121 C2124 1.363 . S
N2122 C2124 1.356 . S
N2122 H2134 0.984 . S
N2122 H2135 0.985 . S
N2123 C2125 1.356 . S
N2123 H2128 0.984 . S
N2123 H2129 0.985 . S
C2124 C2118 1.379 . S
C2124 C2121 1.363 . S
C2124 N2122 1.356 . S
C2125 C2119 1.363 . S
C2125 C2120 1.379 . S
C2125 N2123 1.356 . S
N2126 C2118 1.356 . S
N2126 H2132 0.984 . S
N2126 H2133 0.984 . S
N2127 C2120 1.356 . S
N2127 H2130 0.984 . S
N2127 H2131 0.985 . S
H2128 N2123 0.984 . S
H2129 N2123 0.985 . S
H2130 N2127 0.984 . S
H2131 N2127 0.985 . S
H2132 N2126 0.984 . S
H2133 N2126 0.984 . S
H2134 N2122 0.984 . S
H2135 N2122 0.985 . S
C2136 C2137 1.363 1_556 S
C2136 C2142 1.379 . S
C2136 N2144 1.356 . S
C2137 C2136 1.363 1_554 S
C2137 C2143 1.363 . S
C2138 C2139 1.363 1_554 S
C2138 C2143 1.379 . S
C2138 N2145 1.356 . S
C2139 C2138 1.363 1_556 S
C2139 C2142 1.363 . S
N2140 C2142 1.356 . S
N2140 H2152 0.984 . S
N2140 H2153 0.985 . S
N2141 C2143 1.356 . S
N2141 H2146 0.984 . S
N2141 H2147 0.985 . S
C2142 C2136 1.379 . S
C2142 C2139 1.363 . S
C2142 N2140 1.356 . S
C2143 C2137 1.363 . S
C2143 C2138 1.379 . S
C2143 N2141 1.356 . S
N2144 C2136 1.356 . S
N2144 H2150 0.984 . S
N2144 H2151 0.984 . S
N2145 C2138 1.356 . S
N2145 H2148 0.984 . S
N2145 H2149 0.985 . S
H2146 N2141 0.984 . S
H2147 N2141 0.985 . S
H2148 N2145 0.984 . S
H2149 N2145 0.985 . S
H2150 N2144 0.984 . S
H2151 N2144 0.984 . S
H2152 N2140 0.984 . S
H2153 N2140 0.985 . S
C2154 C2155 1.363 . S
C2154 C2160 1.379 1_455 S
C2154 N2162 1.356 . S
C2155 C2154 1.363 . S
C2155 C2161 1.363 . S
C2156 C2157 1.363 . S
C2156 C2161 1.379 1_655 S
C2156 N2163 1.356 . S
C2157 C2156 1.363 . S
C2157 C2160 1.363 . S
N2158 C2160 1.356 . S
N2158 H2170 0.984 . S
N2158 H2171 0.985 . S
N2159 C2161 1.356 . S
N2159 H2164 0.984 . S
N2159 H2165 0.985 . S
C2160 C2154 1.379 1_655 S
C2160 C2157 1.363 . S
C2160 N2158 1.356 . S
C2161 C2155 1.363 . S
C2161 C2156 1.379 1_455 S
C2161 N2159 1.356 . S
N2162 C2154 1.356 . S
N2162 H2168 0.984 . S
N2162 H2169 0.984 . S
N2163 C2156 1.356 . S
N2163 H2166 0.984 . S
N2163 H2167 0.985 . S
H2164 N2159 0.984 . S
H2165 N2159 0.985 . S
H2166 N2163 0.984 . S
H2167 N2163 0.985 . S
H2168 N2162 0.984 . S
H2169 N2162 0.984 . S
H2170 N2158 0.984 . S
H2171 N2158 0.985 . S
C2172 C2173 1.363 . S
C2172 C2178 1.379 1_655 S
C2172 N2180 1.356 . S
C2173 C2172 1.363 . S
C2173 C2179 1.363 1_556 S
C2174 C2175 1.363 . S
C2174 C2179 1.379 1_455 S
C2174 N2181 1.356 . S
C2175 C2174 1.363 . S
C2175 C2178 1.363 1_554 S
N2176 C2178 1.356 . S
N2176 H2188 0.984 . S
N2176 H2189 0.985 . S
N2177 C2179 1.356 . S
N2177 H2182 0.984 . S
N2177 H2183 0.985 . S
C2178 C2172 1.379 1_455 S
C2178 C2175 1.363 1_556 S
C2178 N2176 1.356 . S
C2179 C2173 1.363 1_554 S
C2179 C2174 1.379 1_655 S
C2179 N2177 1.356 . S
N2180 C2172 1.356 . S
N2180 H2186 0.984 . S
N2180 H2187 0.984 . S
N2181 C2174 1.356 . S
N2181 H2184 0.984 . S
N2181 H2185 0.985 . S
H2182 N2177 0.984 . S
H2183 N2177 0.985 . S
H2184 N2181 0.984 . S
H2185 N2181 0.985 . S
H2186 N2180 0.984 . S
H2187 N2180 0.984 . S
H2188 N2176 0.984 . S
H2189 N2176 0.985 . S
C2190 C2191 1.363 . S
C2190 C2196 1.379 . S
C2190 N2198 1.356 . S
C2191 C2190 1.363 . S
C2191 C2197 1.363 . S
C2192 C2193 1.363 . S
C2192 C2197 1.379 . S
C2192 N2199 1.356 . S
C2193 C2192 1.363 . S
C2193 C2196 1.363 . S
N2194 C2196 1.356 . S
N2194 H2206 0.984 . S
N2194 H2207 0.985 . S
N2195 C2197 1.356 . S
N2195 H2200 0.984 . S
N2195 H2201 0.985 . S
C2196 C2190 1.379 . S
C2196 C2193 1.363 . S
C2196 N2194 1.356 . S
C2197 C2191 1.363 . S
C2197 C2192 1.379 . S
C2197 N2195 1.356 . S
N2198 C2190 1.356 . S
N2198 H2204 0.984 . S
N2198 H2205 0.984 . S
N2199 C2192 1.356 . S
N2199 H2202 0.984 . S
N2199 H2203 0.985 . S
H2200 N2195 0.984 . S
H2201 N2195 0.985 . S
H2202 N2199 0.984 . S
H2203 N2199 0.985 . S
H2204 N2198 0.984 . S
H2205 N2198 0.984 . S
H2206 N2194 0.984 . S
H2207 N2194 0.985 . S
C2208 C2209 1.363 . S
C2208 C2214 1.379 . S
C2208 N2216 1.356 . S
C2209 C2208 1.363 . S
C2209 C2215 1.363 . S
C2210 C2211 1.363 . S
C2210 C2215 1.379 . S
C2210 N2217 1.356 . S
C2211 C2210 1.363 . S
C2211 C2214 1.363 . S
N2212 C2214 1.356 . S
N2212 H2224 0.984 . S
N2212 H2225 0.985 . S
N2213 C2215 1.356 . S
N2213 H2218 0.984 . S
N2213 H2219 0.985 . S
C2214 C2208 1.379 . S
C2214 C2211 1.363 . S
C2214 N2212 1.356 . S
C2215 C2209 1.363 . S
C2215 C2210 1.379 . S
C2215 N2213 1.356 . S
N2216 C2208 1.356 . S
N2216 H2222 0.984 . S
N2216 H2223 0.984 . S
N2217 C2210 1.356 . S
N2217 H2220 0.984 . S
N2217 H2221 0.985 . S
H2218 N2213 0.984 . S
H2219 N2213 0.985 . S
H2220 N2217 0.984 . S
H2221 N2217 0.985 . S
H2222 N2216 0.984 . S
H2223 N2216 0.984 . S
H2224 N2212 0.984 . S
H2225 N2212 0.985 . S
C2226 C2227 1.363 . S
C2226 C2232 1.379 1_545 S
C2226 N2234 1.356 . S
C2227 C2226 1.363 . S
C2227 C2233 1.363 . S
C2228 C2229 1.363 . S
C2228 C2233 1.379 1_565 S
C2228 N2235 1.356 . S
C2229 C2228 1.363 . S
C2229 C2232 1.363 . S
N2230 C2232 1.356 . S
N2230 H2242 0.984 . S
N2230 H2243 0.985 . S
N2231 C2233 1.356 . S
N2231 H2236 0.984 . S
N2231 H2237 0.985 . S
C2232 C2226 1.379 1_565 S
C2232 C2229 1.363 . S
C2232 N2230 1.356 . S
C2233 C2227 1.363 . S
C2233 C2228 1.379 1_545 S
C2233 N2231 1.356 . S
N2234 C2226 1.356 . S
N2234 H2240 0.993 . S
N2234 H2241 0.984 . S
N2235 C2228 1.356 . S
N2235 H2238 0.984 . S
N2235 H2239 0.993 . S
H2236 N2231 0.984 . S
H2237 N2231 0.985 . S
H2238 N2235 0.984 . S
H2239 N2235 0.993 . S
H2240 N2234 0.993 . S
H2241 N2234 0.984 . S
H2242 N2230 0.984 . S
H2243 N2230 0.985 . S
C2244 C2245 1.363 1_556 S
C2244 C2250 1.379 . S
C2244 N2252 1.358 . S
C2245 C2244 1.363 1_554 S
C2245 C2251 1.363 . S
C2246 C2247 1.363 1_554 S
C2246 C2251 1.379 . S
C2246 N2253 1.358 . S
C2247 C2246 1.363 1_556 S
C2247 C2250 1.363 . S
N2248 C2250 1.356 . S
N2248 H2260 0.984 . S
N2248 H2261 0.985 . S
N2249 C2251 1.356 . S
N2249 H2254 0.984 . S
N2249 H2255 0.985 . S
C2250 C2244 1.379 . S
C2250 C2247 1.363 . S
C2250 N2248 1.356 . S
C2251 C2245 1.363 . S
C2251 C2246 1.379 . S
C2251 N2249 1.356 . S
N2252 C2244 1.358 . S
N2252 H2258 0.996 . S
N2252 H2259 0.972 1_556 S
N2253 C2246 1.358 . S
N2253 H2256 0.972 1_554 S
N2253 H2257 0.996 . S
H2254 N2249 0.984 . S
H2255 N2249 0.985 . S
H2256 N2253 0.972 1_556 S
H2257 N2253 0.996 . S
H2258 N2252 0.996 . S
H2259 N2252 0.972 1_554 S
H2260 N2248 0.984 . S
H2261 N2248 0.985 . S
C2262 C2263 1.363 . S
C2262 C2268 1.415 . S
C2262 N2270 1.356 . S
C2263 C2262 1.363 . S
C2263 C2269 1.324 1_565 S
C2264 C2265 1.363 . S
C2264 C2269 1.415 . S
C2264 N2271 1.356 . S
C2265 C2264 1.363 . S
C2265 C2268 1.325 1_545 S
N2266 C2268 1.346 1_545 S
N2266 H2278 0.984 1_545 S
N2266 H2279 0.985 . S
N2267 C2269 1.346 1_565 S
N2267 H2272 0.984 . S
N2267 H2273 0.985 1_565 S
C2268 C2262 1.415 . S
C2268 C2265 1.325 1_565 S
C2268 N2266 1.346 1_565 S
C2269 C2263 1.324 1_545 S
C2269 C2264 1.415 . S
C2269 N2267 1.346 1_545 S
N2270 C2262 1.356 . S
N2270 H2276 0.984 . S
N2270 H2277 0.984 . S
N2271 C2264 1.356 . S
N2271 H2274 0.984 . S
N2271 H2275 0.985 . S
H2272 N2267 0.984 . S
H2273 N2267 0.985 1_545 S
H2274 N2271 0.984 . S
H2275 N2271 0.985 . S
H2276 N2270 0.984 . S
H2277 N2270 0.984 . S
H2278 N2266 0.984 1_565 S
H2279 N2266 0.985 . S
C2280 C2281 1.363 . S
C2280 C2286 1.379 . S
C2280 N2288 1.356 . S
C2281 C2280 1.363 . S
C2281 C2287 1.363 . S
C2282 C2283 1.363 . S
C2282 C2287 1.379 . S
C2282 N2289 1.356 . S
C2283 C2282 1.363 . S
C2283 C2286 1.363 . S
N2284 C2286 1.356 . S
N2284 H2296 0.984 . S
N2284 H2297 0.985 . S
N2285 C2287 1.356 . S
N2285 H2290 0.984 . S
N2285 H2291 0.985 . S
C2286 C2280 1.379 . S
C2286 C2283 1.363 . S
C2286 N2284 1.356 . S
C2287 C2281 1.363 . S
C2287 C2282 1.379 . S
C2287 N2285 1.356 . S
N2288 C2280 1.356 . S
N2288 H2294 0.984 . S
N2288 H2295 0.984 . S
N2289 C2282 1.356 . S
N2289 H2292 0.984 . S
N2289 H2293 0.985 . S
H2290 N2285 0.984 . S
H2291 N2285 0.985 . S
H2292 N2289 0.984 . S
H2293 N2289 0.985 . S
H2294 N2288 0.984 . S
H2295 N2288 0.984 . S
H2296 N2284 0.984 . S
H2297 N2284 0.985 . S
C2298 C2299 1.363 . S
C2298 C2304 1.375 . S
C2298 N2306 1.356 . S
C2299 C2298 1.363 . S
C2299 C2305 1.367 1_545 S
C2300 C2301 1.363 . S
C2300 C2305 1.375 . S
C2300 N2307 1.356 . S
C2301 C2300 1.363 . S
C2301 C2304 1.367 1_565 S
N2302 C2304 1.358 1_565 S
N2302 H2314 0.984 1_565 S
N2302 H2315 0.985 . S
N2303 C2305 1.358 1_545 S
N2303 H2308 0.984 . S
N2303 H2309 0.985 1_545 S
C2304 C2298 1.375 . S
C2304 C2301 1.367 1_545 S
C2304 N2302 1.358 1_545 S
C2305 C2299 1.367 1_565 S
C2305 C2300 1.375 . S
C2305 N2303 1.358 1_565 S
N2306 C2298 1.356 . S
N2306 H2312 0.984 . S
N2306 H2313 0.984 . S
N2307 C2300 1.356 . S
N2307 H2310 0.984 . S
N2307 H2311 0.985 . S
H2308 N2303 0.984 . S
H2309 N2303 0.985 1_565 S
H2310 N2307 0.984 . S
H2311 N2307 0.985 . S
H2312 N2306 0.984 . S
H2313 N2306 0.984 . S
H2314 N2302 0.984 1_545 S
H2315 N2302 0.985 . S
C2316 C2317 1.363 1_554 S
C2316 C2322 1.379 . S
C2316 N2324 1.358 . S
C2317 C2316 1.363 1_556 S
C2317 C2323 1.363 . S
C2318 C2319 1.363 1_556 S
C2318 C2323 1.379 . S
C2318 N2325 1.358 . S
C2319 C2318 1.363 1_554 S
C2319 C2322 1.363 . S
N2320 C2322 1.356 . S
N2320 H2332 0.984 . S
N2320 H2333 0.985 . S
N2321 C2323 1.356 . S
N2321 H2326 0.984 . S
N2321 H2327 0.985 . S
C2322 C2316 1.379 . S
C2322 C2319 1.363 . S
C2322 N2320 1.356 . S
C2323 C2317 1.363 . S
C2323 C2318 1.379 . S
C2323 N2321 1.356 . S
N2324 C2316 1.358 . S
N2324 H2330 0.996 . S
N2324 H2331 0.972 1_554 S
N2325 C2318 1.358 . S
N2325 H2328 0.972 1_556 S
N2325 H2329 0.996 . S
H2326 N2321 0.984 . S
H2327 N2321 0.985 . S
H2328 N2325 0.972 1_554 S
H2329 N2325 0.996 . S
H2330 N2324 0.996 . S
H2331 N2324 0.972 1_556 S
H2332 N2320 0.984 . S
H2333 N2320 0.985 . S
C2334 C2335 1.363 . S
C2334 C2340 1.379 1_545 S
C2334 N2342 1.356 . S
C2335 C2334 1.363 . S
C2335 C2341 1.363 . S
C2336 C2337 1.363 . S
C2336 C2341 1.379 1_565 S
C2336 N2343 1.356 . S
C2337 C2336 1.363 . S
C2337 C2340 1.363 . S
N2338 C2340 1.356 . S
N2338 H2350 0.984 1_565 S
N2338 H2351 0.985 . S
N2339 C2341 1.356 . S
N2339 H2344 0.984 . S
N2339 H2345 0.985 1_545 S
C2340 C2334 1.379 1_565 S
C2340 C2337 1.363 . S
C2340 N2338 1.356 . S
C2341 C2335 1.363 . S
C2341 C2336 1.379 1_545 S
C2341 N2339 1.356 . S
N2342 C2334 1.356 . S
N2342 H2348 0.984 . S
N2342 H2349 0.984 . S
N2343 C2336 1.356 . S
N2343 H2346 0.984 . S
N2343 H2347 0.985 . S
H2344 N2339 0.984 . S
H2345 N2339 0.985 1_565 S
H2346 N2343 0.984 . S
H2347 N2343 0.985 . S
H2348 N2342 0.984 . S
H2349 N2342 0.984 . S
H2350 N2338 0.984 1_545 S
H2351 N2338 0.985 . S
C2352 C2353 1.363 . S
C2352 C2358 1.379 . S
C2352 N2360 1.356 . S
C2353 C2352 1.363 . S
C2353 C2359 1.363 1_556 S
C2354 C2355 1.363 . S
C2354 C2359 1.379 . S
C2354 N2361 1.356 . S
C2355 C2354 1.363 . S
C2355 C2358 1.363 1_554 S
N2356 C2358 1.358 . S
N2356 H2368 0.995 . S
N2356 H2369 0.972 1_556 S
N2357 C2359 1.358 . S
N2357 H2362 0.972 1_554 S
N2357 H2363 0.995 . S
C2358 C2352 1.379 . S
C2358 C2355 1.363 1_556 S
C2358 N2356 1.358 . S
C2359 C2353 1.363 1_554 S
C2359 C2354 1.379 . S
C2359 N2357 1.358 . S
N2360 C2352 1.356 . S
N2360 H2366 0.984 . S
N2360 H2367 0.984 . S
N2361 C2354 1.356 . S
N2361 H2364 0.984 . S
N2361 H2365 0.985 . S
H2362 N2357 0.972 1_556 S
H2363 N2357 0.995 . S
H2364 N2361 0.984 . S
H2365 N2361 0.985 . S
H2366 N2360 0.984 . S
H2367 N2360 0.984 . S
H2368 N2356 0.995 . S
H2369 N2356 0.972 1_554 S
C2370 C2371 1.363 . S
C2370 C2376 1.379 . S
C2370 N2378 1.356 . S
C2371 C2370 1.363 . S
C2371 C2377 1.363 . S
C2372 C2373 1.363 . S
C2372 C2377 1.379 . S
C2372 N2379 1.356 . S
C2373 C2372 1.363 . S
C2373 C2376 1.363 . S
N2374 C2376 1.356 . S
N2374 H2386 0.984 . S
N2374 H2387 0.985 . S
N2375 C2377 1.356 . S
N2375 H2380 0.984 . S
N2375 H2381 0.985 . S
C2376 C2370 1.379 . S
C2376 C2373 1.363 . S
C2376 N2374 1.356 . S
C2377 C2371 1.363 . S
C2377 C2372 1.379 . S
C2377 N2375 1.356 . S
N2378 C2370 1.356 . S
N2378 H2384 0.984 . S
N2378 H2385 0.984 . S
N2379 C2372 1.356 . S
N2379 H2382 0.984 . S
N2379 H2383 0.985 . S
H2380 N2375 0.984 . S
H2381 N2375 0.985 . S
H2382 N2379 0.984 . S
H2383 N2379 0.985 . S
H2384 N2378 0.984 . S
H2385 N2378 0.984 . S
H2386 N2374 0.984 . S
H2387 N2374 0.985 . S
C2388 C2389 1.363 . S
C2388 C2394 1.379 . S
C2388 N2396 1.356 . S
C2389 C2388 1.363 . S
C2389 C2395 1.363 . S
C2390 C2391 1.363 . S
C2390 C2395 1.379 . S
C2390 N2397 1.356 . S
C2391 C2390 1.363 . S
C2391 C2394 1.363 . S
N2392 C2394 1.356 . S
N2392 H2404 0.984 . S
N2392 H2405 0.985 . S
N2393 C2395 1.356 . S
N2393 H2398 0.984 . S
N2393 H2399 0.985 . S
C2394 C2388 1.379 . S
C2394 C2391 1.363 . S
C2394 N2392 1.356 . S
C2395 C2389 1.363 . S
C2395 C2390 1.379 . S
C2395 N2393 1.356 . S
N2396 C2388 1.356 . S
N2396 H2402 0.984 . S
N2396 H2403 0.984 . S
N2397 C2390 1.356 . S
N2397 H2400 0.984 . S
N2397 H2401 0.985 . S
H2398 N2393 0.984 . S
H2399 N2393 0.985 . S
H2400 N2397 0.984 . S
H2401 N2397 0.985 . S
H2402 N2396 0.984 . S
H2403 N2396 0.984 . S
H2404 N2392 0.984 . S
H2405 N2392 0.985 . S
C2406 C2407 1.363 . S
C2406 C2412 1.379 . S
C2406 N2414 1.356 . S
C2407 C2406 1.363 . S
C2407 C2413 1.363 . S
C2408 C2409 1.363 . S
C2408 C2413 1.379 . S
C2408 N2415 1.356 . S
C2409 C2408 1.363 . S
C2409 C2412 1.363 . S
N2410 C2412 1.356 . S
N2410 H2422 0.984 . S
N2410 H2423 0.985 . S
N2411 C2413 1.356 . S
N2411 H2416 0.984 . S
N2411 H2417 0.985 . S
C2412 C2406 1.379 . S
C2412 C2409 1.363 . S
C2412 N2410 1.356 . S
C2413 C2407 1.363 . S
C2413 C2408 1.379 . S
C2413 N2411 1.356 . S
N2414 C2406 1.356 . S
N2414 H2420 0.984 . S
N2414 H2421 0.984 . S
N2415 C2408 1.356 . S
N2415 H2418 0.984 . S
N2415 H2419 0.985 . S
H2416 N2411 0.984 . S
H2417 N2411 0.985 . S
H2418 N2415 0.984 . S
H2419 N2415 0.985 . S
H2420 N2414 0.984 . S
H2421 N2414 0.984 . S
H2422 N2410 0.984 . S
H2423 N2410 0.985 . S
C2424 C2425 1.363 . S
C2424 C2430 1.379 . S
C2424 N2432 1.356 . S
C2425 C2424 1.363 . S
C2425 C2431 1.363 1_554 S
C2426 C2427 1.363 . S
C2426 C2431 1.379 . S
C2426 N2433 1.356 . S
C2427 C2426 1.363 . S
C2427 C2430 1.363 1_556 S
N2428 C2430 1.358 . S
N2428 H2440 0.995 . S
N2428 H2441 0.972 1_554 S
N2429 C2431 1.358 . S
N2429 H2434 0.972 1_556 S
N2429 H2435 0.995 . S
C2430 C2424 1.379 . S
C2430 C2427 1.363 1_554 S
C2430 N2428 1.358 . S
C2431 C2425 1.363 1_556 S
C2431 C2426 1.379 . S
C2431 N2429 1.358 . S
N2432 C2424 1.356 . S
N2432 H2438 0.984 . S
N2432 H2439 0.984 . S
N2433 C2426 1.356 . S
N2433 H2436 0.984 . S
N2433 H2437 0.985 . S
H2434 N2429 0.972 1_554 S
H2435 N2429 0.995 . S
H2436 N2433 0.984 . S
H2437 N2433 0.985 . S
H2438 N2432 0.984 . S
H2439 N2432 0.984 . S
H2440 N2428 0.995 . S
H2441 N2428 0.972 1_556 S
C2442 C2443 1.363 . S
C2442 C2448 1.379 . S
C2442 N2450 1.356 . S
C2443 C2442 1.363 . S
C2443 C2449 1.363 . S
C2444 C2445 1.363 . S
C2444 C2449 1.379 . S
C2444 N2451 1.356 . S
C2445 C2444 1.363 . S
C2445 C2448 1.363 . S
N2446 C2448 1.356 . S
N2446 H2458 0.984 . S
N2446 H2459 0.985 . S
N2447 C2449 1.356 . S
N2447 H2452 0.984 . S
N2447 H2453 0.985 . S
C2448 C2442 1.379 . S
C2448 C2445 1.363 . S
C2448 N2446 1.356 . S
C2449 C2443 1.363 . S
C2449 C2444 1.379 . S
C2449 N2447 1.356 . S
N2450 C2442 1.356 . S
N2450 H2456 0.984 . S
N2450 H2457 0.984 . S
N2451 C2444 1.356 . S
N2451 H2454 0.984 . S
N2451 H2455 0.985 . S
H2452 N2447 0.984 . S
H2453 N2447 0.985 . S
H2454 N2451 0.984 . S
H2455 N2451 0.985 . S
H2456 N2450 0.984 . S
H2457 N2450 0.984 . S
H2458 N2446 0.984 . S
H2459 N2446 0.985 . S
C2460 C2461 1.363 . S
C2460 C2466 1.379 . S
C2460 N2468 1.356 . S
C2461 C2460 1.363 . S
C2461 C2467 1.363 . S
C2462 C2463 1.363 . S
C2462 C2467 1.379 . S
C2462 N2469 1.356 . S
C2463 C2462 1.363 . S
C2463 C2466 1.363 . S
N2464 C2466 1.356 . S
N2464 H2476 0.984 . S
N2464 H2477 0.985 . S
N2465 C2467 1.356 . S
N2465 H2470 0.984 . S
N2465 H2471 0.985 . S
C2466 C2460 1.379 . S
C2466 C2463 1.363 . S
C2466 N2464 1.356 . S
C2467 C2461 1.363 . S
C2467 C2462 1.379 . S
C2467 N2465 1.356 . S
N2468 C2460 1.356 . S
N2468 H2474 0.984 . S
N2468 H2475 0.984 . S
N2469 C2462 1.356 . S
N2469 H2472 0.984 . S
N2469 H2473 0.985 . S
H2470 N2465 0.984 . S
H2471 N2465 0.985 . S
H2472 N2469 0.984 . S
H2473 N2469 0.985 . S
H2474 N2468 0.984 . S
H2475 N2468 0.984 . S
H2476 N2464 0.984 . S
H2477 N2464 0.985 . S
C2478 C2479 1.363 . S
C2478 C2484 1.379 . S
C2478 N2486 1.356 . S
C2479 C2478 1.363 . S
C2479 C2485 1.363 . S
C2480 C2481 1.363 . S
C2480 C2485 1.379 . S
C2480 N2487 1.356 . S
C2481 C2480 1.363 . S
C2481 C2484 1.363 . S
N2482 C2484 1.356 . S
N2482 H2494 0.984 . S
N2482 H2495 0.985 . S
N2483 C2485 1.356 . S
N2483 H2488 0.984 . S
N2483 H2489 0.985 . S
C2484 C2478 1.379 . S
C2484 C2481 1.363 . S
C2484 N2482 1.356 . S
C2485 C2479 1.363 . S
C2485 C2480 1.379 . S
C2485 N2483 1.356 . S
N2486 C2478 1.356 . S
N2486 H2492 0.984 . S
N2486 H2493 0.984 . S
N2487 C2480 1.356 . S
N2487 H2490 0.984 . S
N2487 H2491 0.985 . S
H2488 N2483 0.984 . S
H2489 N2483 0.985 . S
H2490 N2487 0.984 . S
H2491 N2487 0.985 . S
H2492 N2486 0.984 . S
H2493 N2486 0.984 . S
H2494 N2482 0.984 . S
H2495 N2482 0.985 . S
C1057 C259 1.665 . S
C1059 C28 1.665 . S
C1075 C61 1.665 . S
C1077 C160 1.665 . S
C1093 C94 1.665 . S
C1095 C193 1.665 . S
C1111 C226 1.665 . S
C1113 C127 1.665 . S
C1129 C292 1.665 . S
C1131 C523 1.665 . S
C1147 C424 1.665 . S
C1149 C325 1.665 . S
C1165 C358 1.665 . S
C1167 C457 1.665 . S
C1183 C490 1.665 . S
C1185 C391 1.665 . S
C1201 C787 1.665 . S
C1203 C556 1.665 . S
C1219 C688 1.665 . S
C1221 C589 1.665 . S
C1237 C721 1.665 . S
C1239 C622 1.665 . S
C1255 C754 1.665 . S
C1257 C655 1.665 . S
C1273 C1051 1.665 . S
C1275 C820 1.665 . S
C1291 C853 1.665 . S
C1293 C952 1.665 . S
C1309 C985 1.665 . S
C1311 C886 1.665 . S
C1327 C1018 1.665 . S
C1329 C919 1.665 . S
C1345 C17 1.458 . S
C1347 N896 1.476 . S
C1363 N269 1.476 . S
C1365 C50 1.458 . S
C1381 N830 1.476 . S
C1383 C83 1.458 . S
C1399 C116 1.458 . S
C1401 N335 1.476 . S
C1417 N962 1.476 . S
C1419 C149 1.458 . S
C1435 C182 1.458 . S
C1437 N467 1.476 . S
C1453 N1028 1.476 . S
C1455 C215 1.458 . S
C1471 N401 1.476 . S
C1473 C248 1.458 . S
C1489 C281 1.458 . S
C1491 N632 1.476 . S
C1507 C314 1.458 . S
C1509 N5 1.476 . S
C1525 N566 1.476 . S
C1527 C347 1.458 . S
C1543 N71 1.476 . S
C1545 C380 1.458 . S
C1561 N698 1.476 . S
C1563 C413 1.458 . S
C1579 N203 1.476 . S
C1581 C446 1.458 . S
C1597 C479 1.458 . S
C1599 N764 1.476 . S
C1615 C512 1.458 . S
C1617 N137 1.476 . S
C1633 C545 1.458 . S
C1635 N368 1.476 . S
C1651 N797 1.476 . S
C1653 C578 1.458 . S
C1669 N302 1.476 . S
C1671 C611 1.458 . S
C1687 C644 1.458 . S
C1689 N863 1.476 . S
C1705 C677 1.458 . S
C1707 N434 1.476 . S
C1723 N995 1.476 . S
C1725 C710 1.458 . S
C1741 N500 1.476 . S
C1743 C743 1.458 . S
C1759 C776 1.458 . S
C1761 N929 1.476 . S
C1777 N104 1.476 . S
C1779 C809 1.458 . S
C1795 N533 1.476 . S
C1797 C842 1.458 . S
C1813 N38 1.476 . S
C1815 C875 1.458 . S
C1831 N599 1.476 . S
C1833 C908 1.458 . S
C1849 C941 1.458 . S
C1851 N170 1.476 . S
C1867 C974 1.458 . S
C1869 N731 1.476 . S
C1885 C1007 1.458 . S
C1887 N236 1.476 . S
C1903 N665 1.476 . S
C1905 C1040 1.458 . S
C1921 N14 1.103 . S
C1923 N806 1.103 . S
C1939 N47 1.103 . S
C1941 N311 1.103 . S
C1957 N80 1.103 . S
C1959 N872 1.103 . S
C1975 N377 1.103 . S
C1977 N113 1.103 . S
C1993 N938 1.103 . S
C1995 N146 1.103 . S
C2011 N179 1.103 . S
C2013 N443 1.103 . S
C2029 N212 1.103 . S
C2031 N1004 1.103 . S
C2047 N245 1.103 . S
C2049 N509 1.103 . S
C2065 N542 1.103 . S
C2067 N278 1.103 . S
C2083 N344 1.103 . S
C2085 N608 1.103 . S
C2101 N674 1.103 . S
C2103 N410 1.103 . S
C2119 N476 1.103 . S
C2121 N740 1.103 . S
C2137 N575 1.103 . S
C2139 N839 1.103 . S
C2155 N905 1.103 . S
C2157 N641 1.103 . S
C2173 N707 1.103 . S
C2175 N971 1.103 . S
C2191 N1037 1.103 . S
C2193 N773 1.103 . S
C2209 C8 1.872 . S
C2211 C206 1.872 . S
C2227 C239 1.872 . S
C2229 C41 1.872 . S
C2245 C140 1.872 . S
C2247 C74 1.872 . S
C2263 C173 1.872 . S
C2265 C107 1.872 . S
C2281 C272 1.872 . S
C2283 C470 1.872 . S
C2299 C305 1.872 . S
C2301 C503 1.872 . S
C2317 C404 1.872 . S
C2319 C338 1.872 . S
C2335 C437 1.872 . S
C2337 C371 1.872 . S
C2353 C536 1.872 . S
C2355 C734 1.872 . S
C2371 C569 1.872 . S
C2373 C767 1.872 . S
C2389 C668 1.872 . S
C2391 C602 1.872 . S
C2407 C701 1.872 . S
C2409 C635 1.872 . S
C2425 C800 1.872 . S
C2427 C998 1.872 . S
C2443 C833 1.872 . S
C2445 C1031 1.872 . S
C2461 C932 1.872 . S
C2463 C866 1.872 . S
C2479 C899 1.872 . S
C2481 C965 1.872 . S
