# Generated by pormake.
# Topology ske, (6)-cn, num edge types: 1
# Building blocks:
#     Node 0, Type 0, BuildingBlock: VOLQOD_clean_sbu_1, # of connection points: 6
#     Node 1, Type 0, BuildingBlock: VOLQOD_clean_sbu_1, # of connection points: 6
#     Node 2, Type 0, BuildingBlock: VOLQOD_clean_sbu_1, # of connection points: 6
#     Node 3, Type 0, BuildingBlock: VOLQOD_clean_sbu_1, # of connection points: 6
#     Node 4, Type 0, BuildingBlock: VOLQOD_clean_sbu_1, # of connection points: 6
#     Node 5, Type 0, BuildingBlock: VOLQOD_clean_sbu_1, # of connection points: 6
#     Node 6, Type 0, BuildingBlock: VOLQOD_clean_sbu_1, # of connection points: 6
#     Node 7, Type 0, BuildingBlock: VOLQOD_clean_sbu_1, # of connection points: 6
#     Edge 8, Type (0, 0), BuildingBlock: TEMPAE_clean_linker_10, # of connection points: 2
#     Edge 9, Type (0, 0), BuildingBlock: TEMPAE_clean_linker_10, # of connection points: 2
#     Edge 10, Type (0, 0), BuildingBlock: TEMPAE_clean_linker_10, # of connection points: 2
#     Edge 11, Type (0, 0), BuildingBlock: TEMPAE_clean_linker_10, # of connection points: 2
#     Edge 12, Type (0, 0), BuildingBlock: TEMPAE_clean_linker_10, # of connection points: 2
#     Edge 13, Type (0, 0), BuildingBlock: TEMPAE_clean_linker_10, # of connection points: 2
#     Edge 14, Type (0, 0), BuildingBlock: TEMPAE_clean_linker_10, # of connection points: 2
#     Edge 15, Type (0, 0), BuildingBlock: TEMPAE_clean_linker_10, # of connection points: 2
#     Edge 16, Type (0, 0), BuildingBlock: TEMPAE_clean_linker_10, # of connection points: 2
#     Edge 17, Type (0, 0), BuildingBlock: TEMPAE_clean_linker_10, # of connection points: 2
#     Edge 18, Type (0, 0), BuildingBlock: TEMPAE_clean_linker_10, # of connection points: 2
#     Edge 19, Type (0, 0), BuildingBlock: TEMPAE_clean_linker_10, # of connection points: 2
#     Edge 20, Type (0, 0), BuildingBlock: TEMPAE_clean_linker_10, # of connection points: 2
#     Edge 21, Type (0, 0), BuildingBlock: TEMPAE_clean_linker_10, # of connection points: 2
#     Edge 22, Type (0, 0), BuildingBlock: TEMPAE_clean_linker_10, # of connection points: 2
#     Edge 23, Type (0, 0), BuildingBlock: TEMPAE_clean_linker_10, # of connection points: 2
#     Edge 24, Type (0, 0), BuildingBlock: TEMPAE_clean_linker_10, # of connection points: 2
#     Edge 25, Type (0, 0), BuildingBlock: TEMPAE_clean_linker_10, # of connection points: 2
#     Edge 26, Type (0, 0), BuildingBlock: TEMPAE_clean_linker_10, # of connection points: 2
#     Edge 27, Type (0, 0), BuildingBlock: TEMPAE_clean_linker_10, # of connection points: 2
#     Edge 28, Type (0, 0), BuildingBlock: TEMPAE_clean_linker_10, # of connection points: 2
#     Edge 29, Type (0, 0), BuildingBlock: TEMPAE_clean_linker_10, # of connection points: 2
#     Edge 30, Type (0, 0), BuildingBlock: TEMPAE_clean_linker_10, # of connection points: 2
#     Edge 31, Type (0, 0), BuildingBlock: TEMPAE_clean_linker_10, # of connection points: 2
# Relax obj value: 0.030
# Max RMSD: 0.058
# Mean RMSD: 0.058
data_MOF--net-ske--node1-VOLQOD_clean_sbu_1--edge1-TEMPAE_clean_linker_10
_symmetry_space_group_name_H-M    P1
_symmetry_Int_Tables_number       1
_symmetry_cell_setting            triclinic
loop_
_symmetry_equiv_pos_as_xyz
'x, y, z'
_cell_length_a     67.362145
_cell_length_b     33.790808
_cell_length_c     17.415986
_cell_angle_alpha  90.047677
_cell_angle_beta   90.00062
_cell_angle_gamma 90.037714
loop_
_atom_site_label
_atom_site_type_symbol
_atom_site_fract_x
_atom_site_fract_y
_atom_site_fract_z
_atom_type_partial_charge
O0 O 0.11033 0.27396 0.77034 0.0
Zn1 Zn 0.10364 0.28067 0.65819 0.0
O2 O 0.11793 0.24176 0.59705 0.0
Zn3 Zn 0.13892 0.26612 0.53688 0.0
Zn4 Zn 0.12881 0.20199 0.6643 0.0
Zn5 Zn 0.09994 0.21681 0.5272 0.0
O6 O 0.13642 0.25341 0.42338 0.0
O7 O 0.10515 0.23284 0.41956 0.0
O8 O 0.11063 0.33585 0.62257 0.0
O9 O 0.13568 0.32462 0.5424 0.0
O10 O 0.16601 0.25235 0.57924 0.0
O11 O 0.15812 0.2071 0.66635 0.0
O12 O 0.12222 0.14659 0.63027 0.0
O13 O 0.07393 0.27275 0.64821 0.0
O14 O 0.10286 0.15845 0.53001 0.0
O15 O 0.07209 0.2286 0.55419 0.0
C16 C 0.1157 0.24332 0.80764 0.0
C17 C 0.12092 0.24385 0.38559 0.0
C18 C 0.17098 0.22809 0.63186 0.0
C19 C 0.12391 0.34833 0.57632 0.0
C20 C 0.11184 0.1344 0.57391 0.0
C21 C 0.06377 0.25072 0.60361 0.0
O22 O 0.12087 0.21166 0.77332 0.0
O23 O 0.86746 0.21421 0.75223 0.0
Zn24 Zn 0.87503 0.20797 0.6409 0.0
O25 O 0.86101 0.24651 0.57905 0.0
Zn26 Zn 0.8401 0.22209 0.51897 0.0
Zn27 Zn 0.85037 0.28656 0.64599 0.0
Zn28 Zn 0.87908 0.27067 0.50896 0.0
O29 O 0.84239 0.23605 0.40585 0.0
O30 O 0.87425 0.25282 0.40182 0.0
O31 O 0.86893 0.15283 0.60285 0.0
O32 O 0.84401 0.16357 0.52178 0.0
O33 O 0.81305 0.23487 0.56365 0.0
O34 O 0.82115 0.28063 0.64968 0.0
O35 O 0.85651 0.34177 0.6093 0.0
O36 O 0.90463 0.21741 0.63485 0.0
O37 O 0.87551 0.32886 0.50839 0.0
O38 O 0.90695 0.26073 0.5396 0.0
C39 C 0.8629 0.24541 0.78956 0.0
C40 C 0.85816 0.24363 0.36793 0.0
C41 C 0.80823 0.25918 0.61655 0.0
C42 C 0.85602 0.14015 0.5552 0.0
C43 C 0.86653 0.35334 0.55149 0.0
C44 C 0.91498 0.2396 0.5913 0.0
O45 O 0.85872 0.27763 0.75517 0.0
O46 O 0.11369 0.70842 0.22184 0.0
Zn47 Zn 0.10603 0.70212 0.33294 0.0
O48 O 0.11979 0.7409 0.39525 0.0
Zn49 Zn 0.14094 0.71702 0.45475 0.0
Zn50 Zn 0.13001 0.78142 0.3285 0.0
Zn51 Zn 0.10154 0.76417 0.46592 0.0
O52 O 0.13864 0.73046 0.56815 0.0
O53 O 0.10674 0.74669 0.57286 0.0
O54 O 0.11246 0.64718 0.37069 0.0
O55 O 0.13754 0.65837 0.45088 0.0
O56 O 0.16783 0.73112 0.41035 0.0
O57 O 0.15931 0.7771 0.32554 0.0
O58 O 0.12308 0.83624 0.36496 0.0
O59 O 0.07638 0.71086 0.3386 0.0
O60 O 0.10437 0.82258 0.46631 0.0
O61 O 0.07375 0.75272 0.43626 0.0
C62 C 0.11811 0.73968 0.18459 0.0
C63 C 0.12289 0.73774 0.6064 0.0
C64 C 0.17243 0.75603 0.35826 0.0
C65 C 0.12559 0.63473 0.41759 0.0
C66 C 0.11297 0.84742 0.42286 0.0
C67 C 0.06586 0.73193 0.38362 0.0
O68 O 0.122 0.77207 0.21905 0.0
O69 O 0.87125 0.78007 0.20014 0.0
Zn70 Zn 0.8782 0.78591 0.31231 0.0
O71 O 0.86351 0.74734 0.37247 0.0
Zn72 Zn 0.84249 0.77182 0.43212 0.0
Zn73 Zn 0.85298 0.70753 0.30448 0.0
Zn74 Zn 0.88106 0.72224 0.44311 0.0
O75 O 0.84514 0.75981 0.54608 0.0
O76 O 0.87664 0.74078 0.54985 0.0
O77 O 0.87174 0.84112 0.34945 0.0
O78 O 0.84582 0.83038 0.42582 0.0
O79 O 0.8154 0.75715 0.39005 0.0
O80 O 0.82373 0.71233 0.30255 0.0
O81 O 0.85924 0.65207 0.33918 0.0
O82 O 0.90784 0.77605 0.32093 0.0
O83 O 0.87684 0.66424 0.44409 0.0
O84 O 0.90895 0.73071 0.41291 0.0
C85 C 0.86606 0.74953 0.16198 0.0
C86 C 0.86084 0.75157 0.58383 0.0
C87 C 0.81067 0.73269 0.33728 0.0
C88 C 0.85811 0.85384 0.39396 0.0
C89 C 0.86842 0.64008 0.39868 0.0
C90 C 0.91759 0.75233 0.36352 0.0
O91 O 0.86108 0.71751 0.19548 0.0
O92 O 0.61213 0.77053 0.26221 0.0
Zn93 Zn 0.60511 0.77737 0.15053 0.0
O94 O 0.61902 0.73839 0.0886 0.0
Zn95 Zn 0.63991 0.76262 0.028 0.0
Zn96 Zn 0.62994 0.69844 0.15534 0.0
Zn97 Zn 0.60075 0.71392 0.01914 0.0
O98 O 0.6374 0.74922 0.91495 0.0
O99 O 0.60592 0.72988 0.91127 0.0
O100 O 0.61194 0.83249 0.11437 0.0
O101 O 0.63658 0.82116 0.03237 0.0
O102 O 0.66699 0.74917 0.07051 0.0
O103 O 0.65926 0.70367 0.15735 0.0
O104 O 0.62325 0.6432 0.12061 0.0
O105 O 0.57541 0.76956 0.14235 0.0
O106 O 0.60347 0.6555 0.02173 0.0
O107 O 0.57297 0.72611 0.04728 0.0
C108 C 0.61719 0.73959 0.2992 0.0
C109 C 0.62181 0.74014 0.87724 0.0
C110 C 0.67205 0.7249 0.12298 0.0
C111 C 0.62495 0.8449 0.06691 0.0
C112 C 0.6126 0.63126 0.06479 0.0
C113 C 0.56497 0.74801 0.09788 0.0
O114 O 0.622 0.70778 0.26456 0.0
O115 O 0.36912 0.71245 0.26351 0.0
Zn116 Zn 0.37638 0.70624 0.15178 0.0
O117 O 0.36219 0.74489 0.09055 0.0
Zn118 Zn 0.3412 0.72057 0.03058 0.0
Zn119 Zn 0.35164 0.78482 0.15798 0.0
Zn120 Zn 0.3801 0.76944 0.02038 0.0
O121 O 0.34357 0.73407 0.91721 0.0
O122 O 0.37534 0.75148 0.91337 0.0
O123 O 0.37005 0.65113 0.11408 0.0
O124 O 0.3449 0.66202 0.03412 0.0
O125 O 0.31415 0.73384 0.07483 0.0
O126 O 0.32244 0.77907 0.16165 0.0
O127 O 0.35768 0.84012 0.12176 0.0
O128 O 0.406 0.71549 0.14435 0.0
O129 O 0.37635 0.8276 0.01981 0.0
O130 O 0.40798 0.7597 0.05053 0.0
C131 C 0.36444 0.74349 0.30109 0.0
C132 C 0.35933 0.74184 0.87939 0.0
C133 C 0.30943 0.75804 0.12806 0.0
C134 C 0.35694 0.63851 0.06717 0.0
C135 C 0.36746 0.8519 0.06353 0.0
C136 C 0.41619 0.73815 0.10112 0.0
O137 O 0.36004 0.77567 0.26695 0.0
O138 O 0.61211 0.20486 0.71359 0.0
Zn139 Zn 0.6048 0.19868 0.8252 0.0
O140 O 0.61887 0.23752 0.88666 0.0
Zn141 Zn 0.64019 0.21369 0.94566 0.0
Zn142 Zn 0.62893 0.27796 0.81931 0.0
Zn143 Zn 0.60089 0.26116 0.9578 0.0
O144 O 0.63791 0.22641 0.05957 0.0
O145 O 0.60613 0.2435 0.06444 0.0
O146 O 0.61151 0.14376 0.86248 0.0
O147 O 0.63701 0.15502 0.94065 0.0
O148 O 0.66704 0.22837 0.90124 0.0
O149 O 0.65821 0.27392 0.81606 0.0
O150 O 0.62202 0.33288 0.85522 0.0
O151 O 0.5751 0.20732 0.83271 0.0
O152 O 0.60385 0.31954 0.95811 0.0
O153 O 0.57305 0.24995 0.92929 0.0
C154 C 0.61671 0.23591 0.67599 0.0
C155 C 0.6222 0.23393 0.09789 0.0
C156 C 0.67148 0.25324 0.84888 0.0
C157 C 0.62494 0.13133 0.90808 0.0
C158 C 0.61223 0.34424 0.91375 0.0
C159 C 0.56485 0.22886 0.87788 0.0
O160 O 0.62086 0.26826 0.7101 0.0
O161 O 0.36972 0.27829 0.7108 0.0
Zn162 Zn 0.37699 0.2841 0.82259 0.0
O163 O 0.36239 0.24572 0.88333 0.0
Zn164 Zn 0.34148 0.27038 0.94306 0.0
Zn165 Zn 0.35175 0.20584 0.81578 0.0
Zn166 Zn 0.38006 0.22092 0.95395 0.0
O167 O 0.34399 0.25781 0.05679 0.0
O168 O 0.3756 0.23947 0.06074 0.0
O169 O 0.37086 0.33936 0.86023 0.0
O170 O 0.34514 0.3289 0.93769 0.0
O171 O 0.31436 0.25644 0.90033 0.0
O172 O 0.32249 0.21111 0.81353 0.0
O173 O 0.35795 0.15043 0.85118 0.0
O174 O 0.40659 0.27383 0.8298 0.0
O175 O 0.37589 0.16293 0.95511 0.0
O176 O 0.40795 0.22933 0.92324 0.0
C177 C 0.36464 0.24759 0.67288 0.0
C178 C 0.35971 0.24981 0.09465 0.0
C179 C 0.30953 0.23196 0.84773 0.0
C180 C 0.35744 0.35221 0.90555 0.0
C181 C 0.36733 0.13863 0.91038 0.0
C182 C 0.41646 0.25048 0.87274 0.0
O183 O 0.35988 0.2155 0.70663 0.0
C184 C 0.20625 0.25185 0.62919 0.0
C185 C 0.19174 0.2265 0.6594 0.0
C186 C 0.22544 0.25286 0.66044 0.0
C187 C 0.23013 0.22803 0.72333 0.0
C188 C 0.21568 0.20193 0.75316 0.0
C189 C 0.1967 0.20136 0.72067 0.0
C190 C 0.24065 0.28075 0.62678 0.0
C191 C 0.22018 0.17493 0.82007 0.0
C192 C 0.28395 0.20324 0.76062 0.0
C193 C 0.28878 0.2295 0.82037 0.0
C194 C 0.26494 0.20258 0.72849 0.0
C195 C 0.2503 0.22861 0.7571 0.0
C196 C 0.25485 0.25461 0.81847 0.0
C197 C 0.27409 0.2548 0.84941 0.0
C198 C 0.2606 0.17437 0.66321 0.0
C199 C 0.23945 0.28248 0.85076 0.0
H200 H 0.20253 0.2714 0.58203 0.0
H201 H 0.18562 0.18163 0.74454 0.0
H202 H 0.24577 0.30186 0.67142 0.0
H203 H 0.25383 0.26388 0.6072 0.0
H204 H 0.23468 0.29785 0.57746 0.0
H205 H 0.20722 0.15646 0.83659 0.0
H206 H 0.23273 0.15505 0.80547 0.0
H207 H 0.22479 0.19273 0.87058 0.0
H208 H 0.29516 0.18348 0.7377 0.0
H209 H 0.2777 0.27521 0.89539 0.0
H210 H 0.25584 0.19119 0.61173 0.0
H211 H 0.2482 0.15434 0.67906 0.0
H212 H 0.27368 0.15605 0.64764 0.0
H213 H 0.23416 0.30276 0.80506 0.0
H214 H 0.2453 0.30049 0.89913 0.0
H215 H 0.2264 0.26548 0.87127 0.0
C216 C 0.70701 0.23099 0.84673 0.0
C217 C 0.69202 0.25606 0.8194 0.0
C218 C 0.72598 0.23127 0.81332 0.0
C219 C 0.72993 0.25709 0.75114 0.0
C220 C 0.71499 0.28289 0.72423 0.0
C221 C 0.69628 0.2822 0.75887 0.0
C222 C 0.74173 0.2037 0.84392 0.0
C223 C 0.71868 0.31091 0.65813 0.0
C224 C 0.78303 0.28546 0.70803 0.0
C225 C 0.78767 0.26028 0.64635 0.0
C226 C 0.76435 0.28448 0.74288 0.0
C227 C 0.74983 0.25793 0.71502 0.0
C228 C 0.75416 0.23304 0.65174 0.0
C229 C 0.7731 0.23444 0.61815 0.0
C230 C 0.76023 0.31154 0.81017 0.0
C231 C 0.73887 0.20472 0.62011 0.0
H232 H 0.70385 0.21067 0.89327 0.0
H233 H 0.68483 0.30176 0.73721 0.0
H234 H 0.74672 0.18336 0.79776 0.0
H235 H 0.75489 0.22094 0.8627 0.0
H236 H 0.73634 0.18576 0.89313 0.0
H237 H 0.70539 0.32892 0.64387 0.0
H238 H 0.73109 0.33124 0.6723 0.0
H239 H 0.72313 0.29397 0.60632 0.0
H240 H 0.79416 0.30558 0.73041 0.0
H241 H 0.77657 0.21484 0.57072 0.0
H242 H 0.75607 0.29378 0.86125 0.0
H243 H 0.7475 0.33119 0.79688 0.0
H244 H 0.77323 0.33025 0.82518 0.0
H245 H 0.73421 0.18364 0.66549 0.0
H246 H 0.74454 0.1876 0.57024 0.0
H247 H 0.72544 0.22124 0.60196 0.0
C248 C 0.27415 0.73411 0.12914 0.0
C249 C 0.28884 0.75966 0.15742 0.0
C250 C 0.25516 0.73331 0.16227 0.0
C251 C 0.25088 0.75851 0.22514 0.0
C252 C 0.26551 0.78478 0.25305 0.0
C253 C 0.28426 0.78517 0.21867 0.0
C254 C 0.23973 0.70525 0.13064 0.0
C255 C 0.26146 0.81217 0.3199 0.0
C256 C 0.19744 0.78414 0.26808 0.0
C257 C 0.193 0.75831 0.3289 0.0
C258 C 0.21617 0.78428 0.23358 0.0
C259 C 0.23094 0.75821 0.26095 0.0
C260 C 0.22681 0.73269 0.3234 0.0
C261 C 0.20783 0.73297 0.35665 0.0
C262 C 0.22007 0.81199 0.16719 0.0
C263 C 0.24238 0.70486 0.35449 0.0
H264 H 0.27758 0.71428 0.08203 0.0
H265 H 0.29547 0.80509 0.24107 0.0
H266 H 0.23491 0.68439 0.17614 0.0
H267 H 0.22642 0.72203 0.11211 0.0
H268 H 0.24537 0.68788 0.08103 0.0
H269 H 0.27454 0.83066 0.3349 0.0
H270 H 0.24885 0.83204 0.30612 0.0
H271 H 0.25714 0.79467 0.37113 0.0
H272 H 0.18612 0.80389 0.24608 0.0
H273 H 0.20452 0.71288 0.40343 0.0
H274 H 0.22447 0.79478 0.11565 0.0
H275 H 0.23258 0.8321 0.18127 0.0
H276 H 0.20689 0.83023 0.15253 0.0
H277 H 0.24731 0.6843 0.30859 0.0
H278 H 0.23684 0.68715 0.40377 0.0
H279 H 0.25561 0.72186 0.37333 0.0
C280 C 0.70723 0.74898 0.11965 0.0
C281 C 0.69279 0.7237 0.15057 0.0
C282 C 0.72642 0.75046 0.15087 0.0
C283 C 0.73117 0.72619 0.2145 0.0
C284 C 0.7168 0.70015 0.24508 0.0
C285 C 0.69782 0.6991 0.21258 0.0
C286 C 0.74154 0.77825 0.11638 0.0
C287 C 0.72138 0.67375 0.31279 0.0
C288 C 0.78512 0.70263 0.25183 0.0
C289 C 0.78989 0.72953 0.31056 0.0
C290 C 0.76606 0.70128 0.22017 0.0
C291 C 0.75134 0.72728 0.2482 0.0
C292 C 0.75583 0.75389 0.30863 0.0
C293 C 0.77512 0.75475 0.33915 0.0
C294 C 0.76178 0.67242 0.15591 0.0
C295 C 0.74034 0.78176 0.34025 0.0
H296 H 0.70347 0.76811 0.0719 0.0
H297 H 0.68679 0.67944 0.23704 0.0
H298 H 0.74662 0.79975 0.1604 0.0
H299 H 0.75478 0.76137 0.09726 0.0
H300 H 0.73553 0.79491 0.06658 0.0
H301 H 0.70847 0.65524 0.32983 0.0
H302 H 0.73399 0.65392 0.29883 0.0
H303 H 0.72592 0.692 0.36278 0.0
H304 H 0.79639 0.6829 0.22935 0.0
H305 H 0.77868 0.77564 0.38435 0.0
H306 H 0.75698 0.68872 0.10385 0.0
H307 H 0.74944 0.65243 0.17246 0.0
H308 H 0.77491 0.65408 0.14097 0.0
H309 H 0.73498 0.80167 0.29406 0.0
H310 H 0.74613 0.80016 0.38817 0.0
H311 H 0.72734 0.76473 0.36119 0.0
C312 C 0.09921 0.9023 0.50225 0.0
C313 C 0.11181 0.88981 0.44279 0.0
C314 C 0.09867 0.94193 0.52533 0.0
C315 C 0.11107 0.96968 0.48816 0.0
C316 C 0.12363 0.9575 0.42746 0.0
C317 C 0.12382 0.91762 0.40528 0.0
C318 C 0.08496 0.95404 0.58988 0.0
C319 C 0.13703 0.9865 0.38661 0.0
C320 C 0.09776 0.07812 0.49917 0.0
C321 C 0.11088 0.09177 0.55594 0.0
C322 C 0.09753 0.03833 0.47712 0.0
C323 C 0.11079 0.0116 0.51257 0.0
C324 C 0.1238 0.02489 0.57094 0.0
C325 C 0.12366 0.06491 0.59217 0.0
C326 C 0.08331 0.02501 0.41515 0.0
C327 C 0.13811 -0.00301 0.60994 0.0
H328 H 0.0898 0.88102 0.53137 0.0
H329 H 0.13363 0.90816 0.35949 0.0
H330 H 0.09372 0.96669 0.63794 0.0
H331 H 0.07464 0.97742 0.56987 0.0
H332 H 0.07608 0.92881 0.6121 0.0
H333 H 0.14585 0.97225 0.34032 0.0
H334 H 0.12807 0.01068 0.36108 0.0
H335 H 0.1474 0.00027 0.42831 0.0
H336 H 0.08774 0.09865 0.47118 0.0
H337 H 0.13386 0.07527 0.63593 0.0
H338 H 0.07377 0.00071 0.4369 0.0
H339 H 0.09174 0.01318 0.36546 0.0
H340 H 0.07363 0.04942 0.3947 0.0
H341 H 0.12988 0.97205 0.63643 0.0
H342 H 0.14702 0.01193 0.65516 0.0
H343 H 0.1484 0.98416 0.56684 0.0
C344 C 0.88029 0.40876 0.47372 0.0
C345 C 0.86727 0.39573 0.53136 0.0
C346 C 0.88061 0.44838 0.45073 0.0
C347 C 0.86757 0.47559 0.48605 0.0
C348 C 0.85449 0.46283 0.54465 0.0
C349 C 0.85454 0.42296 0.56688 0.0
C350 C 0.8949 0.46111 0.38853 0.0
C351 C 0.84038 0.49123 0.58339 0.0
C352 C 0.88095 0.58407 0.47779 0.0
C353 C 0.86873 0.59759 0.41807 0.0
C354 C 0.88073 0.54438 0.50037 0.0
C355 C 0.86791 0.51762 0.46249 0.0
C356 C 0.85568 0.53085 0.40163 0.0
C357 C 0.85628 0.57077 0.37989 0.0
C358 C 0.89413 0.53114 0.56502 0.0
C359 C 0.84184 0.50292 0.3601 0.0
H360 H 0.89024 0.38793 0.44617 0.0
H361 H 0.8444 0.41304 0.61117 0.0
H362 H 0.88658 0.47393 0.33953 0.0
H363 H 0.90493 0.48453 0.4107 0.0
H364 H 0.90409 0.43618 0.36699 0.0
H365 H 0.83105 0.47649 0.62754 0.0
H366 H 0.84883 0.5155 0.61121 0.0
H367 H 0.83049 0.50496 0.54 0.0
H368 H 0.89069 0.60458 0.50737 0.0
H369 H 0.84674 0.58107 0.33395 0.0
H370 H 0.90416 0.50732 0.54468 0.0
H371 H 0.8851 0.5187 0.61251 0.0
H372 H 0.90331 0.55573 0.58815 0.0
H373 H 0.85042 0.47831 0.33409 0.0
H374 H 0.83328 0.51795 0.31408 0.0
H375 H 0.83124 0.4896 0.40144 0.0
C376 C 0.84365 0.90953 0.46967 0.0
C377 C 0.85718 0.89638 0.41387 0.0
C378 C 0.84332 0.94908 0.49347 0.0
C379 C 0.85676 0.97628 0.46032 0.0
C380 C 0.87023 0.96352 0.40306 0.0
C381 C 0.87032 0.92362 0.38059 0.0
C382 C 0.82875 0.96166 0.55476 0.0
C383 C 0.88464 0.99194 0.36604 0.0
C384 C 0.84356 0.08492 0.47301 0.0
C385 C 0.85571 0.0978 0.53364 0.0
C386 C 0.84388 0.04551 0.44824 0.0
C387 C 0.85654 0.01821 0.48534 0.0
C388 C 0.86866 0.03075 0.54717 0.0
C389 C 0.86814 0.07049 0.57049 0.0
C390 C 0.83078 0.03316 0.38199 0.0
C391 C 0.88219 0.00222 0.58846 0.0
H392 H 0.83344 0.88875 0.49597 0.0
H393 H 0.88082 0.91375 0.33748 0.0
H394 H 0.83686 0.97394 0.60485 0.0
H395 H 0.81898 0.98545 0.53249 0.0
H396 H 0.81929 0.93677 0.57474 0.0
H397 H 0.89397 0.97741 0.32161 0.0
H398 H 0.87643 0.01673 0.33898 0.0
H399 H 0.89453 0.00494 0.41035 0.0
H400 H 0.83396 0.10578 0.44383 0.0
H401 H 0.87757 0.08018 0.61731 0.0
H402 H 0.82042 0.00951 0.40066 0.0
H403 H 0.83999 0.02077 0.33495 0.0
H404 H 0.82194 0.05819 0.35881 0.0
H405 H 0.87337 0.97753 0.61299 0.0
H406 H 0.89063 0.01668 0.63557 0.0
H407 H 0.8929 0.98909 0.54732 0.0
C408 C 0.11363 0.56494 0.40239 0.0
C409 C 0.12619 0.59234 0.43854 0.0
C410 C 0.11331 0.52519 0.42545 0.0
C411 C 0.12576 0.51271 0.48626 0.0
C412 C 0.13859 0.54007 0.52248 0.0
C413 C 0.1387 0.57951 0.49801 0.0
C414 C 0.09958 0.49659 0.38512 0.0
C415 C 0.15206 0.52776 0.58759 0.0
C416 C 0.11218 0.41828 0.59157 0.0
C417 C 0.12501 0.39089 0.55699 0.0
C418 C 0.11236 0.45821 0.56949 0.0
C419 C 0.12561 0.47084 0.51136 0.0
C420 C 0.13877 0.44351 0.47707 0.0
C421 C 0.13837 0.40392 0.50045 0.0
C422 C 0.09823 0.48677 0.60771 0.0
C423 C 0.15311 0.45597 0.41486 0.0
H424 H 0.10393 0.57458 0.35644 0.0
H425 H 0.14842 0.60044 0.52658 0.0
H426 H 0.10827 0.47184 0.36014 0.0
H427 H 0.08903 0.48356 0.42699 0.0
H428 H 0.09095 0.51097 0.33849 0.0
H429 H 0.1611 0.55278 0.60983 0.0
H430 H 0.1431 0.51556 0.6355 0.0
H431 H 0.16223 0.50398 0.56815 0.0
H432 H 0.10184 0.4085 0.63528 0.0
H433 H 0.14834 0.38303 0.47323 0.0
H434 H 0.08811 0.49973 0.56423 0.0
H435 H 0.10665 0.51158 0.63393 0.0
H436 H 0.08914 0.47237 0.65301 0.0
H437 H 0.1448 0.46812 0.3652 0.0
H438 H 0.16248 0.43105 0.39444 0.0
H439 H 0.16297 0.47983 0.43638 0.0
C440 C 0.59805 0.57528 -0.00949 0.0
C441 C 0.61145 0.58867 0.04653 0.0
C442 C 0.59759 0.5355 0.96833 0.0
C443 C 0.61089 0.50854 0.00283 0.0
C444 C 0.62422 0.5216 0.06038 0.0
C445 C 0.6243 0.56159 0.08178 0.0
C446 C 0.58305 0.52245 0.90727 0.0
C447 C 0.63859 0.49346 0.09834 0.0
C448 C 0.5989 0.39939 -0.00645 0.0
C449 C 0.61122 0.38669 0.93338 0.0
C450 C 0.59857 0.43906 0.01645 0.0
C451 C 0.61089 0.46663 0.9784 0.0
C452 C 0.62315 0.45423 0.91692 0.0
C453 C 0.62313 0.41433 0.89493 0.0
C454 C 0.58518 0.4514 0.08184 0.0
C455 C 0.63646 0.48303 0.87511 0.0
H456 H 0.58799 0.59597 0.96327 0.0
H457 H 0.63472 0.57176 0.12493 0.0
H458 H 0.59121 0.51046 0.85705 0.0
H459 H 0.57349 0.49832 0.92962 0.0
H460 H 0.57339 0.54703 0.88743 0.0
H461 H 0.64778 0.50824 0.14289 0.0
H462 H 0.63038 0.46867 0.12546 0.0
H463 H 0.6486 0.48043 0.05453 0.0
H464 H 0.58957 0.37825 0.02337 0.0
H465 H 0.63272 0.40469 0.84858 0.0
H466 H 0.57489 0.47499 0.0625 0.0
H467 H 0.59419 0.46386 0.12938 0.0
H468 H 0.57627 0.42633 0.10456 0.0
H469 H 0.62748 0.50737 0.85028 0.0
H470 H 0.64499 0.46865 0.82817 0.0
H471 H 0.6471 0.4966 0.91606 0.0
C472 C 0.35517 0.92125 0.07974 0.0
C473 C 0.36793 0.89432 0.04352 0.0
C474 C 0.35479 0.96111 0.05751 0.0
C475 C 0.36756 0.97418 -0.00182 0.0
C476 C 0.38065 0.94729 0.96217 0.0
C477 C 0.38065 0.90766 0.98519 0.0
C478 C 0.34064 0.98917 0.09702 0.0
C479 C 0.39462 0.96036 0.8992 0.0
C480 C 0.35537 0.0691 0.89261 0.0
C481 C 0.36782 0.09618 0.93006 0.0
C482 C 0.35505 0.02918 0.91445 0.0
C483 C 0.36757 0.01621 0.97465 0.0
C484 C 0.38036 0.04326 0.01186 0.0
C485 C 0.38031 0.08293 -0.0108 0.0
C486 C 0.34121 0.00095 0.87368 0.0
C487 C 0.39406 0.03032 0.0758 0.0
H488 H 0.34524 0.9111 0.12457 0.0
H489 H 0.39062 0.88707 0.95708 0.0
H490 H 0.34905 0.01365 0.12438 0.0
H491 H 0.3305 0.00265 0.05418 0.0
H492 H 0.33157 0.9742 0.14169 0.0
H493 H 0.40388 0.93565 0.87715 0.0
H494 H 0.38605 0.97297 0.85066 0.0
H495 H 0.40459 0.98402 0.92082 0.0
H496 H 0.34563 0.07919 0.84712 0.0
H497 H 0.39006 0.10364 0.01822 0.0
H498 H 0.33086 0.98734 0.91561 0.0
H499 H 0.34984 0.97657 0.84708 0.0
H500 H 0.33237 0.0158 0.82822 0.0
H501 H 0.38528 0.01761 0.12371 0.0
H502 H 0.40317 0.05512 0.09854 0.0
H503 H 0.40418 0.00677 0.05489 0.0
C504 C 0.36987 0.42183 0.89199 0.0
C505 C 0.35679 0.3947 0.92601 0.0
C506 C 0.37002 0.46168 0.91475 0.0
C507 C 0.35687 0.47452 0.97305 0.0
C508 C 0.34353 0.44742 0.00707 0.0
C509 C 0.3436 0.40791 0.98297 0.0
C510 C 0.38433 0.49 0.8768 0.0
C511 C 0.3293 0.46008 0.0695 0.0
C512 C 0.36896 0.56875 0.08208 0.0
C513 C 0.35642 0.59612 0.04596 0.0
C514 C 0.36927 0.52897 0.05893 0.0
C515 C 0.35683 0.51645 -0.00196 0.0
C516 C 0.34406 0.54381 0.96175 0.0
C517 C 0.34395 0.58326 -0.01368 0.0
C518 C 0.38294 0.50037 0.09936 0.0
C519 C 0.3306 0.5315 0.89651 0.0
H520 H 0.3801 0.41191 0.848 0.0
H521 H 0.33346 0.38721 0.00988 0.0
H522 H 0.37604 0.51482 0.85018 0.0
H523 H 0.39441 0.50296 0.92047 0.0
H524 H 0.39345 0.47539 0.83184 0.0
H525 H 0.31992 0.43523 0.09026 0.0
H526 H 0.33768 0.47235 0.11892 0.0
H527 H 0.31943 0.48389 0.04797 0.0
H528 H 0.37864 0.57842 0.12814 0.0
H529 H 0.33425 0.60416 0.95772 0.0
H530 H 0.39345 0.48717 0.05752 0.0
H531 H 0.3742 0.47574 0.12449 0.0
H532 H 0.39161 0.5148 0.14589 0.0
H533 H 0.33956 0.51904 0.84882 0.0
H534 H 0.32168 0.55656 0.87395 0.0
H535 H 0.32031 0.50791 0.916 0.0
C536 C 0.63898 0.07594 -0.01428 0.0
C537 C 0.62583 0.08887 0.92841 0.0
C538 C 0.63915 0.03645 0.00985 0.0
C539 C 0.62596 0.00914 0.97552 0.0
C540 C 0.61288 0.0217 0.91677 0.0
C541 C 0.61294 0.0615 0.89398 0.0
C542 C 0.65329 0.02405 0.07273 0.0
C543 C 0.59874 0.99315 0.87847 0.0
C544 C 0.63861 0.90029 -0.01171 0.0
C545 C 0.62585 0.88741 0.04697 0.0
C546 C 0.63878 0.93985 0.96456 0.0
C547 C 0.626 0.96727 0.00069 0.0
C548 C 0.61335 0.95477 0.06089 0.0
C549 C 0.61339 0.91489 0.08326 0.0
C550 C 0.65247 0.95216 0.9001 0.0
C551 C 0.59965 0.98344 0.10111 0.0
H552 H 0.64897 0.09684 0.01291 0.0
H553 H 0.60275 0.07121 0.84969 0.0
H554 H 0.64483 0.01195 0.12208 0.0
H555 H 0.6632 0.00017 0.05171 0.0
H556 H 0.66262 0.049 0.09343 0.0
H557 H 0.5897 0.00755 0.83306 0.0
H558 H 0.60715 0.96833 0.85234 0.0
H559 H 0.58858 0.98022 0.92186 0.0
H560 H 0.64828 0.87932 0.9597 0.0
H561 H 0.6035 0.90521 0.12863 0.0
H562 H 0.66259 0.97597 0.91998 0.0
H563 H 0.64366 0.96434 0.85176 0.0
H564 H 0.66157 0.92716 0.87829 0.0
H565 H 0.60836 0.00818 0.12607 0.0
H566 H 0.59099 0.96911 0.14771 0.0
H567 H 0.58914 -0.00354 0.05913 0.0
C568 C 0.10378 0.2341 0.26008 0.0
C569 C 0.12088 0.24544 0.30067 0.0
C570 C 0.10323 0.23516 0.17984 0.0
C571 C 0.12018 0.24788 0.13892 0.0
C572 C 0.13747 0.25968 0.17918 0.0
C573 C 0.13762 0.25831 0.25978 0.0
C574 C 0.08453 0.22225 0.13885 0.0
C575 C 0.15581 0.27341 0.13707 0.0
C576 C 0.12377 0.21186 0.9336 0.0
C577 C 0.11683 0.24478 0.89247 0.0
C578 C 0.12537 0.21285 0.01373 0.0
C579 C 0.11987 0.24756 0.05381 0.0
C580 C 0.11302 0.28103 0.01286 0.0
C581 C 0.11158 0.27925 0.93257 0.0
C582 C 0.13268 0.17653 0.05559 0.0
C583 C 0.10697 0.3185 0.05395 0.0
H584 H 0.09074 0.22415 0.29097 0.0
H585 H 0.15086 0.26723 0.29065 0.0
H586 H 0.07909 0.24637 0.10118 0.0
H587 H 0.08776 0.19641 0.10155 0.0
H588 H 0.07248 0.21401 0.17933 0.0
H589 H 0.16785 0.28257 0.17689 0.0
H590 H 0.16145 0.24927 0.09978 0.0
H591 H 0.15211 0.29873 0.09918 0.0
H592 H 0.12797 0.18515 0.90322 0.0
H593 H 0.10629 0.30489 0.9013 0.0
H594 H 0.12083 0.16512 0.09393 0.0
H595 H 0.14557 0.18421 0.09234 0.0
H596 H 0.13715 0.15248 0.01566 0.0
H597 H 0.09414 0.3124 0.09207 0.0
H598 H 0.1028 0.3425 0.01348 0.0
H599 H 0.11929 0.32915 0.09087 0.0
C600 C 0.87564 0.24991 0.24222 0.0
C601 C 0.85807 0.24214 0.28293 0.0
C602 C 0.87603 0.24928 0.16192 0.0
C603 C 0.85843 0.24067 0.12102 0.0
C604 C 0.84066 0.23243 0.1614 0.0
C605 C 0.84068 0.23325 0.24206 0.0
C606 C 0.89528 0.25822 0.12083 0.0
C607 C 0.82161 0.22313 0.11938 0.0
C608 C 0.85661 0.27805 0.91617 0.0
C609 C 0.86168 0.24398 0.87441 0.0
C610 C 0.85507 0.27714 -0.00362 0.0
C611 C 0.85867 0.24129 0.03585 0.0
C612 C 0.86359 0.20668 -0.00578 0.0
C613 C 0.86507 0.20844 0.91394 0.0
C614 C 0.84988 0.3147 0.03897 0.0
C615 C 0.86755 0.16794 0.03456 0.0
H616 H 0.88919 0.25672 0.27308 0.0
H617 H 0.82706 0.22715 0.27299 0.0
H618 H 0.89933 0.23322 0.0826 0.0
H619 H 0.89346 0.28478 0.08409 0.0
H620 H 0.90776 0.26361 0.16126 0.0
H621 H 0.80918 0.21645 0.15924 0.0
H622 H 0.81731 0.2486 0.08283 0.0
H623 H 0.82382 0.19738 0.08076 0.0
H624 H 0.85389 0.30563 0.88624 0.0
H625 H 0.86888 0.1819 0.88222 0.0
H626 H 0.86233 0.32326 0.07725 0.0
H627 H 0.83668 0.30977 0.07585 0.0
H628 H 0.84673 0.33973 -0.00049 0.0
H629 H 0.88068 0.17101 0.07256 0.0
H630 H 0.87032 0.14332 -0.00639 0.0
H631 H 0.85475 0.15994 0.0715 0.0
C632 C 0.12451 0.77228 0.05812 0.0
C633 C 0.11949 0.73817 0.09979 0.0
C634 C 0.12614 0.77131 0.97794 0.0
C635 C 0.12268 0.73537 0.93843 0.0
C636 C 0.11786 0.70071 0.97999 0.0
C637 C 0.1163 0.70253 0.06023 0.0
C638 C 0.13124 0.80892 0.93541 0.0
C639 C 0.11406 0.66188 0.9396 0.0
C640 C 0.10552 0.7437 0.73234 0.0
C641 C 0.12308 0.73622 0.69138 0.0
C642 C 0.1052 0.74306 0.81264 0.0
C643 C 0.12287 0.73474 0.85327 0.0
C644 C 0.14063 0.72679 0.81263 0.0
C645 C 0.14054 0.72761 0.73197 0.0
C646 C 0.08595 0.7517 0.854 0.0
C647 C 0.15974 0.71779 0.85438 0.0
H648 H 0.1271 0.79993 0.08808 0.0
H649 H 0.11253 0.67596 0.0919 0.0
H650 H 0.14441 0.80413 0.89833 0.0
H651 H 0.11873 0.81736 0.89733 0.0
H652 H 0.13437 0.83398 0.97492 0.0
H653 H 0.11146 0.63721 0.98053 0.0
H654 H 0.10086 0.66465 0.90184 0.0
H655 H 0.12685 0.65415 0.90241 0.0
H656 H 0.09192 0.75029 0.7017 0.0
H657 H 0.15415 0.72173 0.70083 0.0
H658 H 0.08772 0.77828 0.89081 0.0
H659 H 0.08202 0.72663 0.89219 0.0
H660 H 0.07343 0.75688 0.81375 0.0
H661 H 0.16399 0.74333 0.89094 0.0
H662 H 0.17216 0.7113 0.81434 0.0
H663 H 0.15765 0.69201 0.89296 0.0
C664 C 0.84383 0.76409 0.70993 0.0
C665 C 0.86099 0.75399 0.66875 0.0
C666 C 0.84399 0.76537 0.79056 0.0
C667 C 0.86171 0.75635 0.8306 0.0
C668 C 0.87913 0.74678 0.78935 0.0
C669 C 0.87856 0.74572 0.70908 0.0
C670 C 0.82515 0.77574 0.83296 0.0
C671 C 0.89833 0.73698 0.83003 0.0
C672 C 0.86887 0.7871 0.03836 0.0
C673 C 0.86497 0.75154 0.07713 0.0
C674 C 0.86742 0.78939 0.95811 0.0
C675 C 0.86201 0.75529 0.91575 0.0
C676 C 0.85792 0.71942 0.95447 0.0
C677 C 0.85944 0.71798 0.03463 0.0
C678 C 0.8719 0.82813 0.91856 0.0
C679 C 0.85221 0.68238 0.91111 0.0
H680 H 0.83022 0.77063 0.67928 0.0
H681 H 0.89195 0.73806 0.67797 0.0
H682 H 0.82038 0.75031 0.86878 0.0
H683 H 0.82784 0.80102 0.8723 0.0
H684 H 0.81284 0.78359 0.79335 0.0
H685 H 0.91072 0.7314 0.78935 0.0
H686 H 0.90264 0.7616 0.86876 0.0
H687 H 0.89628 0.71027 0.8662 0.0
H688 H 0.87304 0.81324 0.07067 0.0
H689 H 0.85633 0.69038 0.06394 0.0
H690 H 0.85919 0.83702 0.88194 0.0
H691 H 0.88496 0.82459 0.88033 0.0
H692 H 0.87505 0.85235 0.96001 0.0
H693 H 0.83904 0.68816 0.87457 0.0
H694 H 0.84879 0.65726 0.95004 0.0
H695 H 0.86451 0.67345 0.87243 0.0
C696 C 0.61353 0.77554 0.42425 0.0
C697 C 0.61829 0.74082 0.38404 0.0
C698 C 0.61488 0.77709 0.50457 0.0
C699 C 0.6211 0.74312 0.54544 0.0
C700 C 0.62609 0.70814 0.50527 0.0
C701 C 0.62462 0.70739 0.42508 0.0
C702 C 0.60939 0.81488 0.54575 0.0
C703 C 0.63274 0.67129 0.54708 0.0
C704 C 0.63884 0.75305 0.75152 0.0
C705 C 0.62186 0.74142 0.7923 0.0
C706 C 0.63879 0.75416 0.67092 0.0
C707 C 0.62137 0.74338 0.63054 0.0
C708 C 0.60418 0.73185 0.67133 0.0
C709 C 0.60463 0.73101 0.7516 0.0
C710 C 0.65739 0.76658 0.62896 0.0
C711 C 0.58532 0.72008 0.63018 0.0
H712 H 0.60871 0.80156 0.39306 0.0
H713 H 0.62842 0.68047 0.3946 0.0
H714 H 0.59645 0.80955 0.58375 0.0
H715 H 0.62185 0.82472 0.5828 0.0
H716 H 0.60563 0.83917 0.50535 0.0
H717 H 0.63683 0.64699 0.50709 0.0
H718 H 0.64573 0.67805 0.584 0.0
H719 H 0.62067 0.66066 0.58523 0.0
H720 H 0.65219 0.76122 0.78247 0.0
H721 H 0.5914 0.72203 0.78243 0.0
H722 H 0.65417 0.79218 0.59113 0.0
H723 H 0.66261 0.74208 0.59162 0.0
H724 H 0.66958 0.77485 0.66887 0.0
H725 H 0.58026 0.74455 0.59252 0.0
H726 H 0.57312 0.71255 0.67056 0.0
H727 H 0.58817 0.69408 0.59284 0.0
C728 C 0.37694 0.74796 0.75394 0.0
C729 C 0.35934 0.74008 0.79441 0.0
C730 C 0.37743 0.74716 0.67365 0.0
C731 C 0.3599 0.73826 0.63252 0.0
C732 C 0.34211 0.72984 0.67267 0.0
C733 C 0.34204 0.73084 0.75333 0.0
C734 C 0.39669 0.75631 0.63283 0.0
C735 C 0.32314 0.72023 0.63039 0.0
C736 C 0.35808 0.77588 0.42786 0.0
C737 C 0.36328 0.74193 0.38595 0.0
C738 C 0.3565 0.77484 0.50804 0.0
C739 C 0.36021 0.73898 0.54736 0.0
C740 C 0.36528 0.7045 0.50558 0.0
C741 C 0.36678 0.70639 0.42532 0.0
C742 C 0.35116 0.81227 0.55078 0.0
C743 C 0.36935 0.66577 0.54577 0.0
H744 H 0.39043 0.75502 0.78496 0.0
H745 H 0.3284 0.72463 0.78407 0.0
H746 H 0.40083 0.73141 0.59452 0.0
H747 H 0.39484 0.78291 0.59621 0.0
H748 H 0.40912 0.76175 0.67343 0.0
H749 H 0.31072 0.71324 0.67009 0.0
H750 H 0.31874 0.74568 0.59398 0.0
H751 H 0.32551 0.69459 0.59162 0.0
H752 H 0.35526 0.80346 0.39807 0.0
H753 H 0.3707 0.67996 0.39347 0.0
H754 H 0.36354 0.82093 0.5893 0.0
H755 H 0.33794 0.80712 0.58744 0.0
H756 H 0.34797 0.83733 0.51143 0.0
H757 H 0.38243 0.66898 0.58398 0.0
H758 H 0.37225 0.64126 0.50472 0.0
H759 H 0.35655 0.65752 0.58248 0.0
C760 C 0.60467 0.23925 0.22358 0.0
C761 C 0.6223 0.23199 0.18286 0.0
C762 C 0.60424 0.23838 0.30385 0.0
C763 C 0.62187 0.23006 0.34475 0.0
C764 C 0.63969 0.22222 0.30437 0.0
C765 C 0.6397 0.22326 0.22369 0.0
C766 C 0.58494 0.2469 0.3449 0.0
C767 C 0.65875 0.21321 0.34642 0.0
C768 C 0.6232 0.26814 0.54925 0.0
C769 C 0.61812 0.23415 0.5912 0.0
C770 C 0.62497 0.26693 0.46913 0.0
C771 C 0.6216 0.23087 0.42992 0.0
C772 C 0.61671 0.19634 0.47177 0.0
C773 C 0.615 0.19839 0.55196 0.0
C774 C 0.63011 0.30443 0.42632 0.0
C775 C 0.61299 0.15738 0.43171 0.0
H776 H 0.5911 0.24587 0.19277 0.0
H777 H 0.65336 0.21754 0.19275 0.0
H778 H 0.58103 0.22188 0.38324 0.0
H779 H 0.58661 0.27358 0.38151 0.0
H780 H 0.57244 0.25188 0.30445 0.0
H781 H 0.67118 0.20651 0.30657 0.0
H782 H 0.66302 0.23886 0.38268 0.0
H783 H 0.65659 0.18759 0.38532 0.0
H784 H 0.62574 0.29588 0.57895 0.0
H785 H 0.6112 0.17192 0.58385 0.0
H786 H 0.61765 0.31276 0.38793 0.0
H787 H 0.64333 0.29957 0.38955 0.0
H788 H 0.63318 0.32961 0.46564 0.0
H789 H 0.59984 0.15999 0.3937 0.0
H790 H 0.61037 0.13281 0.47285 0.0
H791 H 0.62584 0.14961 0.39481 0.0
C792 C 0.37731 0.24385 0.22013 0.0
C793 C 0.35976 0.25196 0.17959 0.0
C794 C 0.3778 0.24474 0.30042 0.0
C795 C 0.36031 0.25397 0.34148 0.0
C796 C 0.34258 0.26277 0.30125 0.0
C797 C 0.34251 0.26166 0.2206 0.0
C798 C 0.39699 0.23519 0.34132 0.0
C799 C 0.32366 0.27278 0.34343 0.0
C800 C 0.3581 0.21578 0.54568 0.0
C801 C 0.36349 0.24947 0.58804 0.0
C802 C 0.35659 0.21711 0.4655 0.0
C803 C 0.36055 0.253 0.42664 0.0
C804 C 0.3658 0.28724 0.46887 0.0
C805 C 0.36725 0.28506 0.54913 0.0
C806 C 0.35105 0.17993 0.42227 0.0
C807 C 0.37014 0.32601 0.42918 0.0
H808 H 0.39077 0.23647 0.18916 0.0
H809 H 0.32891 0.26807 0.1898 0.0
H810 H 0.40121 0.25991 0.37998 0.0
H811 H 0.395 0.2085 0.3776 0.0
H812 H 0.40943 0.2297 0.30078 0.0
H813 H 0.31133 0.2803 0.30369 0.0
H814 H 0.31902 0.2473 0.37937 0.0
H815 H 0.32619 0.29818 0.38265 0.0
H816 H 0.3551 0.18817 0.57511 0.0
H817 H 0.37131 0.31131 0.58132 0.0
H818 H 0.36341 0.17113 0.38378 0.0
H819 H 0.33789 0.18547 0.38554 0.0
H820 H 0.34769 0.15482 0.46129 0.0
H821 H 0.38324 0.32265 0.39112 0.0
H822 H 0.37314 0.35034 0.47054 0.0
H823 H 0.35742 0.33463 0.39237 0.0
C824 C 0.03103 0.22473 0.56048 0.0
C825 C 0.04188 0.24962 0.60954 0.0
C826 C 0.01034 0.2229 0.56427 0.0
C827 C 0.00018 0.24658 0.61841 0.0
C828 C 0.01097 0.27135 0.66906 0.0
C829 C 0.03176 0.27261 0.66401 0.0
C830 C -0.00068 0.19622 0.50905 0.0
C831 C 0.00052 0.29698 0.72744 0.0
C832 C 0.9476 0.27045 0.56033 0.0
C833 C 0.93671 0.24218 0.60174 0.0
C834 C 0.96821 0.27326 0.5679 0.0
C835 C 0.97822 0.24707 0.61785 0.0
C836 C 0.96734 0.21916 0.66149 0.0
C837 C 0.94665 0.21707 0.65299 0.0
C838 C 0.97933 0.30343 0.5204 0.0
C839 C 0.97762 0.19073 0.71518 0.0
H840 H 0.03868 0.20667 0.51839 0.0
H841 H 0.04005 0.29174 0.70237 0.0
H842 H 0.98943 0.17582 0.54108 0.0
H843 H 0.9898 0.2143 0.47072 0.0
H844 H 0.00951 0.17833 0.47288 0.0
H845 H 0.0111 0.31275 0.76565 0.0
H846 H -0.0088 0.31923 0.69758 0.0
H847 H -0.00954 0.2787 0.76329 0.0
H848 H 0.94005 0.29033 0.52124 0.0
H849 H 0.93833 0.19534 0.68552 0.0
H850 H 0.98895 0.28804 0.47817 0.0
H851 H 0.98913 0.32156 0.55762 0.0
H852 H 0.96919 0.32352 0.48868 0.0
H853 H 0.98693 0.16995 0.68149 0.0
H854 H 0.96692 0.17324 0.74986 0.0
H855 H 0.98765 0.20703 0.75463 0.0
C856 C 0.95042 0.77634 0.31387 0.0
C857 C 0.93931 0.7485 0.35524 0.0
C858 C 0.97118 0.77335 0.30974 0.0
C859 C 0.98088 0.74169 0.34751 0.0
C860 C 0.96966 0.71266 0.38653 0.0
C861 C 0.94904 0.71647 0.39006 0.0
C862 C 0.98278 0.80482 0.26767 0.0
C863 C 0.97948 0.67839 0.42732 0.0
C864 C 0.03483 0.71607 0.31017 0.0
C865 C 0.04412 0.7341 0.37326 0.0
C866 C 0.01424 0.71925 0.29947 0.0
C867 C 0.0028 0.74077 0.35331 0.0
C868 C 0.01211 0.75929 0.41659 0.0
C869 C 0.03263 0.75572 0.42578 0.0
C870 C 0.0047 0.69914 0.23137 0.0
C871 C 0.00034 0.78225 0.47559 0.0
H872 H 0.94297 0.80099 0.28646 0.0
H873 H 0.94055 0.69442 0.42112 0.0
H874 H -0.0085 0.82251 0.30948 0.0
H875 H -0.00651 0.79103 0.22734 0.0
H876 H 0.97297 0.82516 0.235 0.0
H877 H 0.96852 0.65667 0.44962 0.0
H878 H 0.9898 0.6628 0.38799 0.0
H879 H 0.98838 0.68965 0.47631 0.0
H880 H 0.04363 0.69959 0.26903 0.0
H881 H 0.03966 0.76984 0.47466 0.0
H882 H -0.00427 0.72073 0.1983 0.0
H883 H -0.00556 0.67565 0.25154 0.0
H884 H 0.01583 0.68557 0.19233 0.0
H885 H -0.00859 0.80557 0.44708 0.0
H886 H 0.00999 0.79645 0.51941 0.0
H887 H 0.98983 0.76215 0.50534 0.0
C888 C 0.53351 0.76865 0.16373 0.0
C889 C 0.54313 0.74712 0.10577 0.0
C890 C 0.51277 0.76735 0.17126 0.0
C891 C 0.50152 0.74409 0.11949 0.0
C892 C 0.51117 0.72193 0.06164 0.0
C893 C 0.53183 0.72372 0.05548 0.0
C894 C 0.50287 0.79134 0.23359 0.0
C895 C 0.49963 0.69692 0.00509 0.0
C896 C 0.44822 0.71404 0.15755 0.0
C897 C 0.43796 0.74059 0.11014 0.0
C898 C 0.46898 0.71576 0.16375 0.0
C899 C 0.47957 0.74475 0.12176 0.0
C900 C 0.46924 0.77243 0.076 0.0
C901 C 0.44858 0.76996 0.07063 0.0
C902 C 0.47961 0.68576 0.21301 0.0
C903 C 0.48004 0.80382 0.03045 0.0
H904 H 0.54215 0.78659 0.20309 0.0
H905 H 0.5391 0.70684 0.01064 0.0
H906 H 0.49333 0.81442 0.20736 0.0
H907 H 0.49311 0.77211 0.26876 0.0
H908 H 0.51381 0.80601 0.27199 0.0
H909 H 0.50948 0.68003 0.96578 0.0
H910 H 0.48997 0.67569 0.03612 0.0
H911 H 0.48983 0.71611 0.96999 0.0
H912 H 0.4401 0.69144 0.18858 0.0
H913 H 0.44077 0.79096 0.03461 0.0
H914 H 0.49006 0.70082 0.25269 0.0
H915 H 0.48852 0.6658 0.17598 0.0
H916 H 0.46915 0.66749 0.24729 0.0
H917 H 0.49021 0.82077 0.06829 0.0
H918 H 0.4697 0.82489 0.00228 0.0
H919 H 0.48925 0.78959 -0.01459 0.0
C920 C 0.44901 0.27297 0.81788 0.0
C921 C 0.43814 0.24635 0.86309 0.0
C922 C 0.46972 0.26954 0.81148 0.0
C923 C 0.47962 0.23869 0.85092 0.0
C924 C 0.46863 0.2109 0.8941 0.0
C925 C 0.44806 0.21512 0.89982 0.0
C926 C 0.48106 0.29972 0.76504 0.0
C927 C 0.47868 0.17754 0.93685 0.0
C928 C 0.53322 0.21163 0.80933 0.0
C929 C 0.54304 0.23109 0.86953 0.0
C930 C 0.51254 0.21469 0.80094 0.0
C931 C 0.50157 0.23761 0.85412 0.0
C932 C 0.51143 0.2576 0.91438 0.0
C933 C 0.53201 0.25407 0.92136 0.0
C934 C 0.50241 0.19298 0.73607 0.0
C935 C 0.5002 0.28213 0.97257 0.0
H936 H 0.44142 0.29698 0.78896 0.0
H937 H 0.43977 0.194 0.93395 0.0
H938 H 0.49022 0.31824 0.80399 0.0
H939 H 0.49134 0.28476 0.72463 0.0
H940 H 0.47105 0.31944 0.73184 0.0
H941 H 0.46784 0.15657 0.9625 0.0
H942 H 0.48862 0.16083 0.8978 0.0
H943 H 0.48801 0.18986 0.98362 0.0
H944 H 0.54165 0.19404 0.76877 0.0
H945 H 0.53944 0.26933 0.96801 0.0
H946 H 0.4932 0.21379 0.70209 0.0
H947 H 0.49228 0.17014 0.75973 0.0
H948 H 0.51318 0.17832 0.69702 0.0
H949 H 0.49109 0.30481 0.94302 0.0
H950 H 0.51023 0.2973 0.01381 0.0
H951 H 0.4899 0.26291 0.00546 0.0
loop_
_geom_bond_atom_site_label_1
_geom_bond_atom_site_label_2
_geom_bond_distance
_geom_bond_site_symmetry_2
_ccdc_geom_bond_type
O0 Zn1 1.953 . S
O0 C16 1.225 . S
Zn1 O0 1.953 . S
Zn1 O2 1.949 . S
Zn1 O8 1.919 . S
Zn1 O13 1.924 . S
O2 Zn1 1.949 . S
O2 Zn3 1.923 . S
O2 Zn4 1.950 . S
O2 Zn5 1.945 . S
Zn3 O2 1.923 . S
Zn3 O6 1.933 . S
Zn3 O9 1.941 . S
Zn3 O10 1.965 . S
Zn4 O2 1.950 . S
Zn4 O11 1.938 . S
Zn4 O12 1.906 . S
Zn4 O22 1.953 . S
Zn5 O2 1.945 . S
Zn5 O7 1.932 . S
Zn5 O14 1.977 . S
Zn5 O15 1.910 . S
O6 Zn3 1.933 . S
O6 C17 1.226 . S
O7 Zn5 1.932 . S
O7 C17 1.307 . S
O8 Zn1 1.919 . S
O8 C19 1.253 . S
O9 Zn3 1.941 . S
O9 C19 1.283 . S
O10 Zn3 1.965 . S
O10 C18 1.303 . S
O11 Zn4 1.938 . S
O11 C18 1.247 . S
O12 Zn4 1.906 . S
O12 C20 1.304 . S
O13 Zn1 1.924 . S
O13 C21 1.311 . S
O14 Zn5 1.977 . S
O14 C20 1.272 . S
O15 Zn5 1.910 . S
O15 C21 1.231 . S
C16 O0 1.225 . S
C16 O22 1.298 . S
C17 O6 1.226 . S
C17 O7 1.307 . S
C18 O10 1.303 . S
C18 O11 1.247 . S
C19 O8 1.253 . S
C19 O9 1.283 . S
C20 O12 1.304 . S
C20 O14 1.272 . S
C21 O13 1.311 . S
C21 O15 1.231 . S
O22 Zn4 1.953 . S
O22 C16 1.298 . S
O23 Zn24 1.953 . S
O23 C39 1.225 . S
Zn24 O23 1.953 . S
Zn24 O25 1.949 . S
Zn24 O31 1.919 . S
Zn24 O36 1.924 . S
O25 Zn24 1.949 . S
O25 Zn26 1.923 . S
O25 Zn27 1.950 . S
O25 Zn28 1.945 . S
Zn26 O25 1.923 . S
Zn26 O29 1.933 . S
Zn26 O32 1.941 . S
Zn26 O33 1.965 . S
Zn27 O25 1.950 . S
Zn27 O34 1.938 . S
Zn27 O35 1.906 . S
Zn27 O45 1.953 . S
Zn28 O25 1.945 . S
Zn28 O30 1.932 . S
Zn28 O37 1.977 . S
Zn28 O38 1.910 . S
O29 Zn26 1.933 . S
O29 C40 1.226 . S
O30 Zn28 1.932 . S
O30 C40 1.307 . S
O31 Zn24 1.919 . S
O31 C42 1.253 . S
O32 Zn26 1.941 . S
O32 C42 1.283 . S
O33 Zn26 1.965 . S
O33 C41 1.303 . S
O34 Zn27 1.938 . S
O34 C41 1.247 . S
O35 Zn27 1.906 . S
O35 C43 1.304 . S
O36 Zn24 1.924 . S
O36 C44 1.311 . S
O37 Zn28 1.977 . S
O37 C43 1.272 . S
O38 Zn28 1.910 . S
O38 C44 1.231 . S
C39 O23 1.225 . S
C39 O45 1.298 . S
C40 O29 1.226 . S
C40 O30 1.307 . S
C41 O33 1.303 . S
C41 O34 1.247 . S
C42 O31 1.253 . S
C42 O32 1.283 . S
C43 O35 1.304 . S
C43 O37 1.272 . S
C44 O36 1.311 . S
C44 O38 1.231 . S
O45 Zn27 1.953 . S
O45 C39 1.298 . S
O46 Zn47 1.953 . S
O46 C62 1.225 . S
Zn47 O46 1.953 . S
Zn47 O48 1.949 . S
Zn47 O54 1.919 . S
Zn47 O59 1.924 . S
O48 Zn47 1.949 . S
O48 Zn49 1.923 . S
O48 Zn50 1.950 . S
O48 Zn51 1.945 . S
Zn49 O48 1.923 . S
Zn49 O52 1.933 . S
Zn49 O55 1.941 . S
Zn49 O56 1.965 . S
Zn50 O48 1.950 . S
Zn50 O57 1.938 . S
Zn50 O58 1.906 . S
Zn50 O68 1.953 . S
Zn51 O48 1.945 . S
Zn51 O53 1.932 . S
Zn51 O60 1.977 . S
Zn51 O61 1.910 . S
O52 Zn49 1.933 . S
O52 C63 1.226 . S
O53 Zn51 1.932 . S
O53 C63 1.307 . S
O54 Zn47 1.919 . S
O54 C65 1.253 . S
O55 Zn49 1.941 . S
O55 C65 1.283 . S
O56 Zn49 1.965 . S
O56 C64 1.303 . S
O57 Zn50 1.938 . S
O57 C64 1.247 . S
O58 Zn50 1.906 . S
O58 C66 1.304 . S
O59 Zn47 1.924 . S
O59 C67 1.311 . S
O60 Zn51 1.977 . S
O60 C66 1.272 . S
O61 Zn51 1.910 . S
O61 C67 1.231 . S
C62 O46 1.225 . S
C62 O68 1.298 . S
C63 O52 1.226 . S
C63 O53 1.307 . S
C64 O56 1.303 . S
C64 O57 1.247 . S
C65 O54 1.253 . S
C65 O55 1.283 . S
C66 O58 1.304 . S
C66 O60 1.272 . S
C67 O59 1.311 . S
C67 O61 1.231 . S
O68 Zn50 1.953 . S
O68 C62 1.298 . S
O69 Zn70 1.953 . S
O69 C85 1.225 . S
Zn70 O69 1.953 . S
Zn70 O71 1.949 . S
Zn70 O77 1.919 . S
Zn70 O82 1.924 . S
O71 Zn70 1.949 . S
O71 Zn72 1.923 . S
O71 Zn73 1.950 . S
O71 Zn74 1.945 . S
Zn72 O71 1.923 . S
Zn72 O75 1.933 . S
Zn72 O78 1.941 . S
Zn72 O79 1.965 . S
Zn73 O71 1.950 . S
Zn73 O80 1.938 . S
Zn73 O81 1.906 . S
Zn73 O91 1.953 . S
Zn74 O71 1.945 . S
Zn74 O76 1.932 . S
Zn74 O83 1.977 . S
Zn74 O84 1.910 . S
O75 Zn72 1.933 . S
O75 C86 1.226 . S
O76 Zn74 1.932 . S
O76 C86 1.307 . S
O77 Zn70 1.919 . S
O77 C88 1.253 . S
O78 Zn72 1.941 . S
O78 C88 1.283 . S
O79 Zn72 1.965 . S
O79 C87 1.303 . S
O80 Zn73 1.938 . S
O80 C87 1.247 . S
O81 Zn73 1.906 . S
O81 C89 1.304 . S
O82 Zn70 1.924 . S
O82 C90 1.311 . S
O83 Zn74 1.977 . S
O83 C89 1.272 . S
O84 Zn74 1.910 . S
O84 C90 1.231 . S
C85 O69 1.225 . S
C85 O91 1.298 . S
C86 O75 1.226 . S
C86 O76 1.307 . S
C87 O79 1.303 . S
C87 O80 1.247 . S
C88 O77 1.253 . S
C88 O78 1.283 . S
C89 O81 1.304 . S
C89 O83 1.272 . S
C90 O82 1.311 . S
C90 O84 1.231 . S
O91 Zn73 1.953 . S
O91 C85 1.298 . S
O92 Zn93 1.953 . S
O92 C108 1.225 . S
Zn93 O92 1.953 . S
Zn93 O94 1.949 . S
Zn93 O100 1.919 . S
Zn93 O105 1.924 . S
O94 Zn93 1.949 . S
O94 Zn95 1.923 . S
O94 Zn96 1.950 . S
O94 Zn97 1.945 . S
Zn95 O94 1.923 . S
Zn95 O98 1.933 1_554 S
Zn95 O101 1.941 . S
Zn95 O102 1.965 . S
Zn96 O94 1.950 . S
Zn96 O103 1.938 . S
Zn96 O104 1.906 . S
Zn96 O114 1.953 . S
Zn97 O94 1.945 . S
Zn97 O99 1.932 1_554 S
Zn97 O106 1.977 . S
Zn97 O107 1.910 . S
O98 Zn95 1.933 1_556 S
O98 C109 1.226 . S
O99 Zn97 1.932 1_556 S
O99 C109 1.307 . S
O100 Zn93 1.919 . S
O100 C111 1.253 . S
O101 Zn95 1.941 . S
O101 C111 1.283 . S
O102 Zn95 1.965 . S
O102 C110 1.303 . S
O103 Zn96 1.938 . S
O103 C110 1.247 . S
O104 Zn96 1.906 . S
O104 C112 1.304 . S
O105 Zn93 1.924 . S
O105 C113 1.311 . S
O106 Zn97 1.977 . S
O106 C112 1.272 . S
O107 Zn97 1.910 . S
O107 C113 1.231 . S
C108 O92 1.225 . S
C108 O114 1.298 . S
C109 O98 1.226 . S
C109 O99 1.307 . S
C110 O102 1.303 . S
C110 O103 1.247 . S
C111 O100 1.253 . S
C111 O101 1.283 . S
C112 O104 1.304 . S
C112 O106 1.272 . S
C113 O105 1.311 . S
C113 O107 1.231 . S
O114 Zn96 1.953 . S
O114 C108 1.298 . S
O115 Zn116 1.953 . S
O115 C131 1.225 . S
Zn116 O115 1.953 . S
Zn116 O117 1.949 . S
Zn116 O123 1.919 . S
Zn116 O128 1.924 . S
O117 Zn116 1.949 . S
O117 Zn118 1.923 . S
O117 Zn119 1.950 . S
O117 Zn120 1.945 . S
Zn118 O117 1.923 . S
Zn118 O121 1.933 1_554 S
Zn118 O124 1.941 . S
Zn118 O125 1.965 . S
Zn119 O117 1.950 . S
Zn119 O126 1.938 . S
Zn119 O127 1.906 . S
Zn119 O137 1.953 . S
Zn120 O117 1.945 . S
Zn120 O122 1.932 1_554 S
Zn120 O129 1.977 . S
Zn120 O130 1.910 . S
O121 Zn118 1.933 1_556 S
O121 C132 1.226 . S
O122 Zn120 1.932 1_556 S
O122 C132 1.307 . S
O123 Zn116 1.919 . S
O123 C134 1.253 . S
O124 Zn118 1.941 . S
O124 C134 1.283 . S
O125 Zn118 1.965 . S
O125 C133 1.303 . S
O126 Zn119 1.938 . S
O126 C133 1.247 . S
O127 Zn119 1.906 . S
O127 C135 1.304 . S
O128 Zn116 1.924 . S
O128 C136 1.311 . S
O129 Zn120 1.977 . S
O129 C135 1.272 . S
O130 Zn120 1.910 . S
O130 C136 1.231 . S
C131 O115 1.225 . S
C131 O137 1.298 . S
C132 O121 1.226 . S
C132 O122 1.307 . S
C133 O125 1.303 . S
C133 O126 1.247 . S
C134 O123 1.253 . S
C134 O124 1.283 . S
C135 O127 1.304 . S
C135 O129 1.272 . S
C136 O128 1.311 . S
C136 O130 1.231 . S
O137 Zn119 1.953 . S
O137 C131 1.298 . S
O138 Zn139 1.953 . S
O138 C154 1.225 . S
Zn139 O138 1.953 . S
Zn139 O140 1.949 . S
Zn139 O146 1.919 . S
Zn139 O151 1.924 . S
O140 Zn139 1.949 . S
O140 Zn141 1.923 . S
O140 Zn142 1.950 . S
O140 Zn143 1.945 . S
Zn141 O140 1.923 . S
Zn141 O144 1.933 1_556 S
Zn141 O147 1.941 . S
Zn141 O148 1.965 . S
Zn142 O140 1.950 . S
Zn142 O149 1.938 . S
Zn142 O150 1.906 . S
Zn142 O160 1.953 . S
Zn143 O140 1.945 . S
Zn143 O145 1.932 1_556 S
Zn143 O152 1.977 . S
Zn143 O153 1.910 . S
O144 Zn141 1.933 1_554 S
O144 C155 1.226 . S
O145 Zn143 1.932 1_554 S
O145 C155 1.307 . S
O146 Zn139 1.919 . S
O146 C157 1.253 . S
O147 Zn141 1.941 . S
O147 C157 1.283 . S
O148 Zn141 1.965 . S
O148 C156 1.303 . S
O149 Zn142 1.938 . S
O149 C156 1.247 . S
O150 Zn142 1.906 . S
O150 C158 1.304 . S
O151 Zn139 1.924 . S
O151 C159 1.311 . S
O152 Zn143 1.977 . S
O152 C158 1.272 . S
O153 Zn143 1.910 . S
O153 C159 1.231 . S
C154 O138 1.225 . S
C154 O160 1.298 . S
C155 O144 1.226 . S
C155 O145 1.307 . S
C156 O148 1.303 . S
C156 O149 1.247 . S
C157 O146 1.253 . S
C157 O147 1.283 . S
C158 O150 1.304 . S
C158 O152 1.272 . S
C159 O151 1.311 . S
C159 O153 1.231 . S
O160 Zn142 1.953 . S
O160 C154 1.298 . S
O161 Zn162 1.953 . S
O161 C177 1.225 . S
Zn162 O161 1.953 . S
Zn162 O163 1.949 . S
Zn162 O169 1.919 . S
Zn162 O174 1.924 . S
O163 Zn162 1.949 . S
O163 Zn164 1.923 . S
O163 Zn165 1.950 . S
O163 Zn166 1.945 . S
Zn164 O163 1.923 . S
Zn164 O167 1.933 1_556 S
Zn164 O170 1.941 . S
Zn164 O171 1.965 . S
Zn165 O163 1.950 . S
Zn165 O172 1.938 . S
Zn165 O173 1.906 . S
Zn165 O183 1.953 . S
Zn166 O163 1.945 . S
Zn166 O168 1.932 1_556 S
Zn166 O175 1.977 . S
Zn166 O176 1.910 . S
O167 Zn164 1.933 1_554 S
O167 C178 1.226 . S
O168 Zn166 1.932 1_554 S
O168 C178 1.307 . S
O169 Zn162 1.919 . S
O169 C180 1.253 . S
O170 Zn164 1.941 . S
O170 C180 1.283 . S
O171 Zn164 1.965 . S
O171 C179 1.303 . S
O172 Zn165 1.938 . S
O172 C179 1.247 . S
O173 Zn165 1.906 . S
O173 C181 1.304 . S
O174 Zn162 1.924 . S
O174 C182 1.311 . S
O175 Zn166 1.977 . S
O175 C181 1.272 . S
O176 Zn166 1.910 . S
O176 C182 1.231 . S
C177 O161 1.225 . S
C177 O183 1.298 . S
C178 O167 1.226 . S
C178 O168 1.307 . S
C179 O171 1.303 . S
C179 O172 1.247 . S
C180 O169 1.253 . S
C180 O170 1.283 . S
C181 O173 1.304 . S
C181 O175 1.272 . S
C182 O174 1.311 . S
C182 O176 1.231 . S
O183 Zn165 1.953 . S
O183 C177 1.298 . S
C184 C185 1.391 . S
C184 C186 1.394 . S
C184 H200 0.931 . S
C185 C184 1.391 . S
C185 C189 1.376 . S
C186 C184 1.394 . S
C186 C187 1.369 . S
C186 C190 1.531 . S
C187 C186 1.369 . S
C187 C188 1.410 . S
C187 C195 1.503 . S
C188 C187 1.410 . S
C188 C189 1.392 . S
C188 C191 1.511 . S
C189 C185 1.376 . S
C189 C188 1.392 . S
C189 H201 0.929 . S
C190 C186 1.531 . S
C190 H202 0.960 . S
C190 H203 0.962 . S
C190 H204 0.960 . S
C191 C188 1.511 . S
C191 H205 0.961 . S
C191 H206 0.961 . S
C191 H207 0.961 . S
C192 C193 1.370 . S
C192 C194 1.363 . S
C192 H208 0.931 . S
C193 C192 1.370 . S
C193 C197 1.408 . S
C194 C192 1.363 . S
C194 C195 1.370 . S
C194 C198 1.524 . S
C195 C187 1.503 . S
C195 C194 1.370 . S
C195 C196 1.403 . S
C196 C195 1.403 . S
C196 C197 1.404 . S
C196 C199 1.539 . S
C197 C193 1.408 . S
C197 C196 1.404 . S
C197 H209 0.930 . S
C198 C194 1.524 . S
C198 H210 0.956 . S
C198 H211 0.961 . S
C198 H212 0.961 . S
C199 C196 1.539 . S
C199 H213 0.958 . S
C199 H214 0.961 . S
C199 H215 0.960 . S
H200 C184 0.931 . S
H201 C189 0.929 . S
H202 C190 0.960 . S
H203 C190 0.962 . S
H204 C190 0.960 . S
H205 C191 0.961 . S
H206 C191 0.961 . S
H207 C191 0.961 . S
H208 C192 0.931 . S
H209 C197 0.930 . S
H210 C198 0.956 . S
H211 C198 0.961 . S
H212 C198 0.961 . S
H213 C199 0.958 . S
H214 C199 0.961 . S
H215 C199 0.960 . S
C216 C217 1.391 . S
C216 C218 1.394 . S
C216 H232 0.931 . S
C217 C216 1.391 . S
C217 C221 1.376 . S
C218 C216 1.394 . S
C218 C219 1.369 . S
C218 C222 1.531 . S
C219 C218 1.369 . S
C219 C220 1.410 . S
C219 C227 1.503 . S
C220 C219 1.410 . S
C220 C221 1.392 . S
C220 C223 1.511 . S
C221 C217 1.376 . S
C221 C220 1.392 . S
C221 H233 0.929 . S
C222 C218 1.531 . S
C222 H234 0.960 . S
C222 H235 0.962 . S
C222 H236 0.960 . S
C223 C220 1.511 . S
C223 H237 0.961 . S
C223 H238 0.961 . S
C223 H239 0.961 . S
C224 C225 1.370 . S
C224 C226 1.363 . S
C224 H240 0.931 . S
C225 C224 1.370 . S
C225 C229 1.408 . S
C226 C224 1.363 . S
C226 C227 1.370 . S
C226 C230 1.524 . S
C227 C219 1.503 . S
C227 C226 1.370 . S
C227 C228 1.403 . S
C228 C227 1.403 . S
C228 C229 1.404 . S
C228 C231 1.539 . S
C229 C225 1.408 . S
C229 C228 1.404 . S
C229 H241 0.930 . S
C230 C226 1.524 . S
C230 H242 0.956 . S
C230 H243 0.961 . S
C230 H244 0.961 . S
C231 C228 1.539 . S
C231 H245 0.958 . S
C231 H246 0.961 . S
C231 H247 0.960 . S
H232 C216 0.931 . S
H233 C221 0.929 . S
H234 C222 0.960 . S
H235 C222 0.962 . S
H236 C222 0.960 . S
H237 C223 0.961 . S
H238 C223 0.961 . S
H239 C223 0.961 . S
H240 C224 0.931 . S
H241 C229 0.930 . S
H242 C230 0.956 . S
H243 C230 0.961 . S
H244 C230 0.961 . S
H245 C231 0.958 . S
H246 C231 0.961 . S
H247 C231 0.960 . S
C248 C249 1.391 . S
C248 C250 1.394 . S
C248 H264 0.931 . S
C249 C248 1.391 . S
C249 C253 1.376 . S
C250 C248 1.394 . S
C250 C251 1.369 . S
C250 C254 1.531 . S
C251 C250 1.369 . S
C251 C252 1.410 . S
C251 C259 1.503 . S
C252 C251 1.410 . S
C252 C253 1.392 . S
C252 C255 1.511 . S
C253 C249 1.376 . S
C253 C252 1.392 . S
C253 H265 0.929 . S
C254 C250 1.531 . S
C254 H266 0.960 . S
C254 H267 0.962 . S
C254 H268 0.960 . S
C255 C252 1.511 . S
C255 H269 0.961 . S
C255 H270 0.961 . S
C255 H271 0.961 . S
C256 C257 1.370 . S
C256 C258 1.363 . S
C256 H272 0.931 . S
C257 C256 1.370 . S
C257 C261 1.408 . S
C258 C256 1.363 . S
C258 C259 1.370 . S
C258 C262 1.524 . S
C259 C251 1.503 . S
C259 C258 1.370 . S
C259 C260 1.403 . S
C260 C259 1.403 . S
C260 C261 1.404 . S
C260 C263 1.539 . S
C261 C257 1.408 . S
C261 C260 1.404 . S
C261 H273 0.930 . S
C262 C258 1.524 . S
C262 H274 0.956 . S
C262 H275 0.961 . S
C262 H276 0.961 . S
C263 C260 1.539 . S
C263 H277 0.958 . S
C263 H278 0.961 . S
C263 H279 0.960 . S
H264 C248 0.931 . S
H265 C253 0.929 . S
H266 C254 0.960 . S
H267 C254 0.962 . S
H268 C254 0.960 . S
H269 C255 0.961 . S
H270 C255 0.961 . S
H271 C255 0.961 . S
H272 C256 0.931 . S
H273 C261 0.930 . S
H274 C262 0.956 . S
H275 C262 0.961 . S
H276 C262 0.961 . S
H277 C263 0.958 . S
H278 C263 0.961 . S
H279 C263 0.960 . S
C280 C281 1.391 . S
C280 C282 1.394 . S
C280 H296 0.931 . S
C281 C280 1.391 . S
C281 C285 1.376 . S
C282 C280 1.394 . S
C282 C283 1.369 . S
C282 C286 1.531 . S
C283 C282 1.369 . S
C283 C284 1.410 . S
C283 C291 1.503 . S
C284 C283 1.410 . S
C284 C285 1.392 . S
C284 C287 1.511 . S
C285 C281 1.376 . S
C285 C284 1.392 . S
C285 H297 0.929 . S
C286 C282 1.531 . S
C286 H298 0.960 . S
C286 H299 0.962 . S
C286 H300 0.960 . S
C287 C284 1.511 . S
C287 H301 0.961 . S
C287 H302 0.961 . S
C287 H303 0.961 . S
C288 C289 1.370 . S
C288 C290 1.363 . S
C288 H304 0.931 . S
C289 C288 1.370 . S
C289 C293 1.408 . S
C290 C288 1.363 . S
C290 C291 1.370 . S
C290 C294 1.524 . S
C291 C283 1.503 . S
C291 C290 1.370 . S
C291 C292 1.403 . S
C292 C291 1.403 . S
C292 C293 1.404 . S
C292 C295 1.539 . S
C293 C289 1.408 . S
C293 C292 1.404 . S
C293 H305 0.930 . S
C294 C290 1.524 . S
C294 H306 0.956 . S
C294 H307 0.961 . S
C294 H308 0.961 . S
C295 C292 1.539 . S
C295 H309 0.958 . S
C295 H310 0.961 . S
C295 H311 0.960 . S
H296 C280 0.931 . S
H297 C285 0.929 . S
H298 C286 0.960 . S
H299 C286 0.962 . S
H300 C286 0.960 . S
H301 C287 0.961 . S
H302 C287 0.961 . S
H303 C287 0.961 . S
H304 C288 0.931 . S
H305 C293 0.930 . S
H306 C294 0.956 . S
H307 C294 0.961 . S
H308 C294 0.961 . S
H309 C295 0.958 . S
H310 C295 0.961 . S
H311 C295 0.960 . S
C312 C313 1.391 . S
C312 C314 1.394 . S
C312 H328 0.931 . S
C313 C312 1.391 . S
C313 C317 1.376 . S
C314 C312 1.394 . S
C314 C315 1.369 . S
C314 C318 1.531 . S
C315 C314 1.369 . S
C315 C316 1.410 . S
C315 C323 1.503 1_565 S
C316 C315 1.410 . S
C316 C317 1.392 . S
C316 C319 1.511 . S
C317 C313 1.376 . S
C317 C316 1.392 . S
C317 H329 0.929 . S
C318 C314 1.531 . S
C318 H330 0.960 1_565 S
C318 H331 0.962 . S
C318 H332 0.960 . S
C319 C316 1.511 . S
C319 H333 0.961 . S
C319 H334 0.961 . S
C319 H335 0.961 . S
C320 C321 1.370 . S
C320 C322 1.363 . S
C320 H336 0.931 . S
C321 C320 1.370 . S
C321 C325 1.408 . S
C322 C320 1.363 . S
C322 C323 1.370 . S
C322 C326 1.524 . S
C323 C315 1.503 1_545 S
C323 C322 1.370 . S
C323 C324 1.403 . S
C324 C323 1.403 . S
C324 C325 1.404 . S
C324 C327 1.539 . S
C325 C321 1.408 . S
C325 C324 1.404 . S
C325 H337 0.930 . S
C326 C322 1.524 . S
C326 H338 0.956 . S
C326 H339 0.961 . S
C326 H340 0.961 . S
C327 C324 1.539 . S
C327 H341 0.958 . S
C327 H342 0.961 . S
C327 H343 0.960 1_545 S
H328 C312 0.931 . S
H329 C317 0.929 . S
H330 C318 0.960 1_545 S
H331 C318 0.962 . S
H332 C318 0.960 . S
H333 C319 0.961 . S
H334 C319 0.961 . S
H335 C319 0.961 . S
H336 C320 0.931 . S
H337 C325 0.930 . S
H338 C326 0.956 . S
H339 C326 0.961 . S
H340 C326 0.961 . S
H341 C327 0.958 . S
H342 C327 0.961 . S
H343 C327 0.960 1_565 S
C344 C345 1.391 . S
C344 C346 1.394 . S
C344 H360 0.931 . S
C345 C344 1.391 . S
C345 C349 1.376 . S
C346 C344 1.394 . S
C346 C347 1.369 . S
C346 C350 1.531 . S
C347 C346 1.369 . S
C347 C348 1.410 . S
C347 C355 1.503 . S
C348 C347 1.410 . S
C348 C349 1.392 . S
C348 C351 1.511 . S
C349 C345 1.376 . S
C349 C348 1.392 . S
C349 H361 0.929 . S
C350 C346 1.531 . S
C350 H362 0.960 . S
C350 H363 0.962 . S
C350 H364 0.960 . S
C351 C348 1.511 . S
C351 H365 0.961 . S
C351 H366 0.961 . S
C351 H367 0.961 . S
C352 C353 1.370 . S
C352 C354 1.363 . S
C352 H368 0.931 . S
C353 C352 1.370 . S
C353 C357 1.408 . S
C354 C352 1.363 . S
C354 C355 1.370 . S
C354 C358 1.524 . S
C355 C347 1.503 . S
C355 C354 1.370 . S
C355 C356 1.403 . S
C356 C355 1.403 . S
C356 C357 1.404 . S
C356 C359 1.539 . S
C357 C353 1.408 . S
C357 C356 1.404 . S
C357 H369 0.930 . S
C358 C354 1.524 . S
C358 H370 0.956 . S
C358 H371 0.961 . S
C358 H372 0.961 . S
C359 C356 1.539 . S
C359 H373 0.958 . S
C359 H374 0.961 . S
C359 H375 0.960 . S
H360 C344 0.931 . S
H361 C349 0.929 . S
H362 C350 0.960 . S
H363 C350 0.962 . S
H364 C350 0.960 . S
H365 C351 0.961 . S
H366 C351 0.961 . S
H367 C351 0.961 . S
H368 C352 0.931 . S
H369 C357 0.930 . S
H370 C358 0.956 . S
H371 C358 0.961 . S
H372 C358 0.961 . S
H373 C359 0.958 . S
H374 C359 0.961 . S
H375 C359 0.960 . S
C376 C377 1.391 . S
C376 C378 1.394 . S
C376 H392 0.931 . S
C377 C376 1.391 . S
C377 C381 1.376 . S
C378 C376 1.394 . S
C378 C379 1.369 . S
C378 C382 1.531 . S
C379 C378 1.369 . S
C379 C380 1.410 . S
C379 C387 1.503 1_565 S
C380 C379 1.410 . S
C380 C381 1.392 . S
C380 C383 1.511 . S
C381 C377 1.376 . S
C381 C380 1.392 . S
C381 H393 0.929 . S
C382 C378 1.531 . S
C382 H394 0.960 . S
C382 H395 0.962 . S
C382 H396 0.960 . S
C383 C380 1.511 . S
C383 H397 0.961 . S
C383 H398 0.961 1_565 S
C383 H399 0.961 . S
C384 C385 1.370 . S
C384 C386 1.363 . S
C384 H400 0.931 . S
C385 C384 1.370 . S
C385 C389 1.408 . S
C386 C384 1.363 . S
C386 C387 1.370 . S
C386 C390 1.524 . S
C387 C379 1.503 1_545 S
C387 C386 1.370 . S
C387 C388 1.403 . S
C388 C387 1.403 . S
C388 C389 1.404 . S
C388 C391 1.539 . S
C389 C385 1.408 . S
C389 C388 1.404 . S
C389 H401 0.930 . S
C390 C386 1.524 . S
C390 H402 0.956 . S
C390 H403 0.961 . S
C390 H404 0.961 . S
C391 C388 1.539 . S
C391 H405 0.958 1_545 S
C391 H406 0.961 . S
C391 H407 0.960 1_545 S
H392 C376 0.931 . S
H393 C381 0.929 . S
H394 C382 0.960 . S
H395 C382 0.962 . S
H396 C382 0.960 . S
H397 C383 0.961 . S
H398 C383 0.961 1_545 S
H399 C383 0.961 . S
H400 C384 0.931 . S
H401 C389 0.930 . S
H402 C390 0.956 . S
H403 C390 0.961 . S
H404 C390 0.961 . S
H405 C391 0.958 1_565 S
H406 C391 0.961 . S
H407 C391 0.960 1_565 S
C408 C409 1.391 . S
C408 C410 1.394 . S
C408 H424 0.931 . S
C409 C408 1.391 . S
C409 C413 1.376 . S
C410 C408 1.394 . S
C410 C411 1.369 . S
C410 C414 1.531 . S
C411 C410 1.369 . S
C411 C412 1.410 . S
C411 C419 1.503 . S
C412 C411 1.410 . S
C412 C413 1.392 . S
C412 C415 1.511 . S
C413 C409 1.376 . S
C413 C412 1.392 . S
C413 H425 0.929 . S
C414 C410 1.531 . S
C414 H426 0.960 . S
C414 H427 0.962 . S
C414 H428 0.960 . S
C415 C412 1.511 . S
C415 H429 0.961 . S
C415 H430 0.961 . S
C415 H431 0.961 . S
C416 C417 1.370 . S
C416 C418 1.363 . S
C416 H432 0.931 . S
C417 C416 1.370 . S
C417 C421 1.408 . S
C418 C416 1.363 . S
C418 C419 1.370 . S
C418 C422 1.524 . S
C419 C411 1.503 . S
C419 C418 1.370 . S
C419 C420 1.403 . S
C420 C419 1.403 . S
C420 C421 1.404 . S
C420 C423 1.539 . S
C421 C417 1.408 . S
C421 C420 1.404 . S
C421 H433 0.930 . S
C422 C418 1.524 . S
C422 H434 0.956 . S
C422 H435 0.961 . S
C422 H436 0.961 . S
C423 C420 1.539 . S
C423 H437 0.958 . S
C423 H438 0.961 . S
C423 H439 0.960 . S
H424 C408 0.931 . S
H425 C413 0.929 . S
H426 C414 0.960 . S
H427 C414 0.962 . S
H428 C414 0.960 . S
H429 C415 0.961 . S
H430 C415 0.961 . S
H431 C415 0.961 . S
H432 C416 0.931 . S
H433 C421 0.930 . S
H434 C422 0.956 . S
H435 C422 0.961 . S
H436 C422 0.961 . S
H437 C423 0.958 . S
H438 C423 0.961 . S
H439 C423 0.960 . S
C440 C441 1.391 1_556 S
C440 C442 1.394 . S
C440 H456 0.931 . S
C441 C440 1.391 1_554 S
C441 C445 1.376 . S
C442 C440 1.394 . S
C442 C443 1.369 1_556 S
C442 C446 1.531 . S
C443 C442 1.369 1_554 S
C443 C444 1.410 . S
C443 C451 1.503 1_554 S
C444 C443 1.410 . S
C444 C445 1.392 . S
C444 C447 1.511 . S
C445 C441 1.376 . S
C445 C444 1.392 . S
C445 H457 0.929 . S
C446 C442 1.531 . S
C446 H458 0.960 . S
C446 H459 0.962 . S
C446 H460 0.960 . S
C447 C444 1.511 . S
C447 H461 0.961 . S
C447 H462 0.961 . S
C447 H463 0.961 . S
C448 C449 1.370 . S
C448 C450 1.363 . S
C448 H464 0.931 . S
C449 C448 1.370 . S
C449 C453 1.408 . S
C450 C448 1.363 . S
C450 C451 1.370 . S
C450 C454 1.524 1_556 S
C451 C443 1.503 1_556 S
C451 C450 1.370 . S
C451 C452 1.403 . S
C452 C451 1.403 . S
C452 C453 1.404 . S
C452 C455 1.539 . S
C453 C449 1.408 . S
C453 C452 1.404 . S
C453 H465 0.930 . S
C454 C450 1.524 1_554 S
C454 H466 0.956 1_554 S
C454 H467 0.961 . S
C454 H468 0.961 . S
C455 C452 1.539 . S
C455 H469 0.958 . S
C455 H470 0.961 . S
C455 H471 0.960 . S
H456 C440 0.931 . S
H457 C445 0.929 . S
H458 C446 0.960 . S
H459 C446 0.962 . S
H460 C446 0.960 . S
H461 C447 0.961 . S
H462 C447 0.961 . S
H463 C447 0.961 . S
H464 C448 0.931 . S
H465 C453 0.930 . S
H466 C454 0.956 1_556 S
H467 C454 0.961 . S
H468 C454 0.961 . S
H469 C455 0.958 . S
H470 C455 0.961 . S
H471 C455 0.960 . S
C472 C473 1.391 . S
C472 C474 1.394 . S
C472 H488 0.931 . S
C473 C472 1.391 . S
C473 C477 1.376 1_554 S
C474 C472 1.394 . S
C474 C475 1.369 . S
C474 C478 1.531 . S
C475 C474 1.369 . S
C475 C476 1.410 1_554 S
C475 C483 1.503 1_564 S
C476 C475 1.410 1_556 S
C476 C477 1.392 . S
C476 C479 1.511 . S
C477 C473 1.376 1_556 S
C477 C476 1.392 . S
C477 H489 0.929 . S
C478 C474 1.531 . S
C478 H490 0.960 1_565 S
C478 H491 0.962 . S
C478 H492 0.960 . S
C479 C476 1.511 . S
C479 H493 0.961 . S
C479 H494 0.961 . S
C479 H495 0.961 . S
C480 C481 1.370 . S
C480 C482 1.363 . S
C480 H496 0.931 . S
C481 C480 1.370 . S
C481 C485 1.408 1_556 S
C482 C480 1.363 . S
C482 C483 1.370 . S
C482 C486 1.524 . S
C483 C475 1.503 1_546 S
C483 C482 1.370 . S
C483 C484 1.403 1_556 S
C484 C483 1.403 1_554 S
C484 C485 1.404 . S
C484 C487 1.539 . S
C485 C481 1.408 1_554 S
C485 C484 1.404 . S
C485 H497 0.930 . S
C486 C482 1.524 . S
C486 H498 0.956 1_545 S
C486 H499 0.961 1_545 S
C486 H500 0.961 . S
C487 C484 1.539 . S
C487 H501 0.958 . S
C487 H502 0.961 . S
C487 H503 0.960 . S
H488 C472 0.931 . S
H489 C477 0.929 . S
H490 C478 0.960 1_545 S
H491 C478 0.962 . S
H492 C478 0.960 . S
H493 C479 0.961 . S
H494 C479 0.961 . S
H495 C479 0.961 . S
H496 C480 0.931 . S
H497 C485 0.930 . S
H498 C486 0.956 1_565 S
H499 C486 0.961 1_565 S
H500 C486 0.961 . S
H501 C487 0.958 . S
H502 C487 0.961 . S
H503 C487 0.960 . S
C504 C505 1.391 . S
C504 C506 1.394 . S
C504 H520 0.931 . S
C505 C504 1.391 . S
C505 C509 1.376 . S
C506 C504 1.394 . S
C506 C507 1.369 . S
C506 C510 1.531 1_556 S
C507 C506 1.369 . S
C507 C508 1.410 . S
C507 C515 1.503 1_556 S
C508 C507 1.410 . S
C508 C509 1.392 . S
C508 C511 1.511 . S
C509 C505 1.376 . S
C509 C508 1.392 . S
C509 H521 0.929 . S
C510 C506 1.531 1_554 S
C510 H522 0.960 . S
C510 H523 0.962 . S
C510 H524 0.960 . S
C511 C508 1.511 . S
C511 H525 0.961 . S
C511 H526 0.961 . S
C511 H527 0.961 . S
C512 C513 1.370 . S
C512 C514 1.363 . S
C512 H528 0.931 . S
C513 C512 1.370 . S
C513 C517 1.408 1_554 S
C514 C512 1.363 . S
C514 C515 1.371 . S
C514 C518 1.524 . S
C515 C507 1.503 1_554 S
C515 C514 1.371 . S
C515 C516 1.402 1_554 S
C516 C515 1.402 1_556 S
C516 C517 1.404 . S
C516 C519 1.539 . S
C517 C513 1.408 1_556 S
C517 C516 1.404 . S
C517 H529 0.930 . S
C518 C514 1.524 . S
C518 H530 0.956 . S
C518 H531 0.961 . S
C518 H532 0.961 . S
C519 C516 1.539 . S
C519 H533 0.958 . S
C519 H534 0.961 . S
C519 H535 0.960 . S
H520 C504 0.931 . S
H521 C509 0.929 . S
H522 C510 0.960 . S
H523 C510 0.962 . S
H524 C510 0.960 . S
H525 C511 0.961 . S
H526 C511 0.961 . S
H527 C511 0.961 . S
H528 C512 0.931 . S
H529 C517 0.930 . S
H530 C518 0.956 . S
H531 C518 0.961 . S
H532 C518 0.961 . S
H533 C519 0.958 . S
H534 C519 0.961 . S
H535 C519 0.960 . S
C536 C537 1.391 . S
C536 C538 1.394 . S
C536 H552 0.931 . S
C537 C536 1.391 . S
C537 C541 1.376 1_556 S
C538 C536 1.394 . S
C538 C539 1.369 1_556 S
C538 C542 1.531 . S
C539 C538 1.369 1_554 S
C539 C540 1.410 . S
C539 C547 1.503 1_545 S
C540 C539 1.410 . S
C540 C541 1.392 . S
C540 C543 1.511 . S
C541 C537 1.376 1_554 S
C541 C540 1.392 . S
C541 H553 0.929 . S
C542 C538 1.531 . S
C542 H554 0.960 1_545 S
C542 H555 0.962 1_545 S
C542 H556 0.960 . S
C543 C540 1.511 . S
C543 H557 0.961 . S
C543 H558 0.961 . S
C543 H559 0.961 . S
C544 C545 1.370 1_556 S
C544 C546 1.363 . S
C544 H560 0.931 . S
C545 C544 1.370 1_554 S
C545 C549 1.408 . S
C546 C544 1.363 . S
C546 C547 1.370 1_556 S
C546 C550 1.524 . S
C547 C539 1.503 1_565 S
C547 C546 1.370 1_554 S
C547 C548 1.403 . S
C548 C547 1.403 . S
C548 C549 1.404 . S
C548 C551 1.539 . S
C549 C545 1.408 . S
C549 C548 1.404 . S
C549 H561 0.930 . S
C550 C546 1.524 . S
C550 H562 0.956 . S
C550 H563 0.961 . S
C550 H564 0.961 . S
C551 C548 1.539 . S
C551 H565 0.958 . S
C551 H566 0.961 . S
C551 H567 0.960 1_565 S
H552 C536 0.931 . S
H553 C541 0.929 . S
H554 C542 0.960 1_565 S
H555 C542 0.962 1_565 S
H556 C542 0.960 . S
H557 C543 0.961 . S
H558 C543 0.961 . S
H559 C543 0.961 . S
H560 C544 0.931 . S
H561 C549 0.930 . S
H562 C550 0.956 . S
H563 C550 0.961 . S
H564 C550 0.961 . S
H565 C551 0.958 . S
H566 C551 0.961 . S
H567 C551 0.960 1_545 S
C568 C569 1.391 . S
C568 C570 1.394 . S
C568 H584 0.931 . S
C569 C568 1.391 . S
C569 C573 1.376 . S
C570 C568 1.394 . S
C570 C571 1.369 . S
C570 C574 1.531 . S
C571 C570 1.369 . S
C571 C572 1.410 . S
C571 C579 1.503 . S
C572 C571 1.410 . S
C572 C573 1.392 . S
C572 C575 1.511 . S
C573 C569 1.376 . S
C573 C572 1.392 . S
C573 H585 0.929 . S
C574 C570 1.531 . S
C574 H586 0.960 . S
C574 H587 0.962 . S
C574 H588 0.960 . S
C575 C572 1.511 . S
C575 H589 0.961 . S
C575 H590 0.961 . S
C575 H591 0.961 . S
C576 C577 1.370 . S
C576 C578 1.363 1_556 S
C576 H592 0.931 . S
C577 C576 1.370 . S
C577 C581 1.408 . S
C578 C576 1.363 1_554 S
C578 C579 1.370 . S
C578 C582 1.524 . S
C579 C571 1.503 . S
C579 C578 1.370 . S
C579 C580 1.403 . S
C580 C579 1.403 . S
C580 C581 1.404 1_554 S
C580 C583 1.539 . S
C581 C577 1.408 . S
C581 C580 1.404 1_556 S
C581 H593 0.930 . S
C582 C578 1.524 . S
C582 H594 0.956 . S
C582 H595 0.961 . S
C582 H596 0.961 . S
C583 C580 1.539 . S
C583 H597 0.958 . S
C583 H598 0.961 . S
C583 H599 0.960 . S
H584 C568 0.931 . S
H585 C573 0.929 . S
H586 C574 0.960 . S
H587 C574 0.962 . S
H588 C574 0.960 . S
H589 C575 0.961 . S
H590 C575 0.961 . S
H591 C575 0.961 . S
H592 C576 0.931 . S
H593 C581 0.930 . S
H594 C582 0.956 . S
H595 C582 0.961 . S
H596 C582 0.961 . S
H597 C583 0.958 . S
H598 C583 0.961 . S
H599 C583 0.960 . S
C600 C601 1.391 . S
C600 C602 1.394 . S
C600 H616 0.931 . S
C601 C600 1.391 . S
C601 C605 1.376 . S
C602 C600 1.394 . S
C602 C603 1.369 . S
C602 C606 1.531 . S
C603 C602 1.369 . S
C603 C604 1.410 . S
C603 C611 1.503 . S
C604 C603 1.410 . S
C604 C605 1.392 . S
C604 C607 1.511 . S
C605 C601 1.376 . S
C605 C604 1.392 . S
C605 H617 0.929 . S
C606 C602 1.531 . S
C606 H618 0.960 . S
C606 H619 0.962 . S
C606 H620 0.960 . S
C607 C604 1.511 . S
C607 H621 0.961 . S
C607 H622 0.961 . S
C607 H623 0.961 . S
C608 C609 1.370 . S
C608 C610 1.363 1_556 S
C608 H624 0.931 . S
C609 C608 1.370 . S
C609 C613 1.408 . S
C610 C608 1.363 1_554 S
C610 C611 1.370 . S
C610 C614 1.524 . S
C611 C603 1.503 . S
C611 C610 1.370 . S
C611 C612 1.403 . S
C612 C611 1.403 . S
C612 C613 1.404 1_554 S
C612 C615 1.539 . S
C613 C609 1.408 . S
C613 C612 1.404 1_556 S
C613 H625 0.930 . S
C614 C610 1.524 . S
C614 H626 0.956 . S
C614 H627 0.961 . S
C614 H628 0.961 . S
C615 C612 1.539 . S
C615 H629 0.958 . S
C615 H630 0.961 . S
C615 H631 0.960 . S
H616 C600 0.931 . S
H617 C605 0.929 . S
H618 C606 0.960 . S
H619 C606 0.962 . S
H620 C606 0.960 . S
H621 C607 0.961 . S
H622 C607 0.961 . S
H623 C607 0.961 . S
H624 C608 0.931 . S
H625 C613 0.930 . S
H626 C614 0.956 . S
H627 C614 0.961 . S
H628 C614 0.961 . S
H629 C615 0.958 . S
H630 C615 0.961 . S
H631 C615 0.960 . S
C632 C633 1.391 . S
C632 C634 1.394 1_554 S
C632 H648 0.931 . S
C633 C632 1.391 . S
C633 C637 1.376 . S
C634 C632 1.394 1_556 S
C634 C635 1.369 . S
C634 C638 1.531 . S
C635 C634 1.369 . S
C635 C636 1.410 . S
C635 C643 1.503 . S
C636 C635 1.410 . S
C636 C637 1.392 1_556 S
C636 C639 1.511 . S
C637 C633 1.376 . S
C637 C636 1.392 1_554 S
C637 H649 0.929 . S
C638 C634 1.531 . S
C638 H650 0.960 . S
C638 H651 0.962 . S
C638 H652 0.960 . S
C639 C636 1.511 . S
C639 H653 0.961 . S
C639 H654 0.961 . S
C639 H655 0.961 . S
C640 C641 1.370 . S
C640 C642 1.363 . S
C640 H656 0.931 . S
C641 C640 1.370 . S
C641 C645 1.408 . S
C642 C640 1.363 . S
C642 C643 1.370 . S
C642 C646 1.524 . S
C643 C635 1.503 . S
C643 C642 1.370 . S
C643 C644 1.403 . S
C644 C643 1.403 . S
C644 C645 1.404 . S
C644 C647 1.539 . S
C645 C641 1.408 . S
C645 C644 1.404 . S
C645 H657 0.930 . S
C646 C642 1.524 . S
C646 H658 0.956 . S
C646 H659 0.961 . S
C646 H660 0.961 . S
C647 C644 1.539 . S
C647 H661 0.958 . S
C647 H662 0.961 . S
C647 H663 0.960 . S
H648 C632 0.931 . S
H649 C637 0.929 . S
H650 C638 0.960 . S
H651 C638 0.962 . S
H652 C638 0.960 . S
H653 C639 0.961 . S
H654 C639 0.961 . S
H655 C639 0.961 . S
H656 C640 0.931 . S
H657 C645 0.930 . S
H658 C646 0.956 . S
H659 C646 0.961 . S
H660 C646 0.961 . S
H661 C647 0.958 . S
H662 C647 0.961 . S
H663 C647 0.960 . S
C664 C665 1.391 . S
C664 C666 1.394 . S
C664 H680 0.931 . S
C665 C664 1.391 . S
C665 C669 1.376 . S
C666 C664 1.394 . S
C666 C667 1.369 . S
C666 C670 1.531 . S
C667 C666 1.369 . S
C667 C668 1.410 . S
C667 C675 1.503 . S
C668 C667 1.410 . S
C668 C669 1.392 . S
C668 C671 1.511 . S
C669 C665 1.376 . S
C669 C668 1.392 . S
C669 H681 0.929 . S
C670 C666 1.531 . S
C670 H682 0.960 . S
C670 H683 0.962 . S
C670 H684 0.960 . S
C671 C668 1.511 . S
C671 H685 0.961 . S
C671 H686 0.961 . S
C671 H687 0.961 . S
C672 C673 1.370 . S
C672 C674 1.363 1_554 S
C672 H688 0.931 . S
C673 C672 1.370 . S
C673 C677 1.408 . S
C674 C672 1.363 1_556 S
C674 C675 1.370 . S
C674 C678 1.524 . S
C675 C667 1.503 . S
C675 C674 1.370 . S
C675 C676 1.403 . S
C676 C675 1.403 . S
C676 C677 1.404 1_556 S
C676 C679 1.539 . S
C677 C673 1.408 . S
C677 C676 1.404 1_554 S
C677 H689 0.930 . S
C678 C674 1.524 . S
C678 H690 0.956 . S
C678 H691 0.961 . S
C678 H692 0.961 . S
C679 C676 1.539 . S
C679 H693 0.958 . S
C679 H694 0.961 . S
C679 H695 0.960 . S
H680 C664 0.931 . S
H681 C669 0.929 . S
H682 C670 0.960 . S
H683 C670 0.962 . S
H684 C670 0.960 . S
H685 C671 0.961 . S
H686 C671 0.961 . S
H687 C671 0.961 . S
H688 C672 0.931 . S
H689 C677 0.930 . S
H690 C678 0.956 . S
H691 C678 0.961 . S
H692 C678 0.961 . S
H693 C679 0.958 . S
H694 C679 0.961 . S
H695 C679 0.960 . S
C696 C697 1.391 . S
C696 C698 1.394 . S
C696 H712 0.931 . S
C697 C696 1.391 . S
C697 C701 1.376 . S
C698 C696 1.394 . S
C698 C699 1.369 . S
C698 C702 1.531 . S
C699 C698 1.369 . S
C699 C700 1.410 . S
C699 C707 1.503 . S
C700 C699 1.410 . S
C700 C701 1.392 . S
C700 C703 1.511 . S
C701 C697 1.376 . S
C701 C700 1.392 . S
C701 H713 0.929 . S
C702 C698 1.531 . S
C702 H714 0.960 . S
C702 H715 0.962 . S
C702 H716 0.960 . S
C703 C700 1.511 . S
C703 H717 0.961 . S
C703 H718 0.961 . S
C703 H719 0.961 . S
C704 C705 1.370 . S
C704 C706 1.363 . S
C704 H720 0.931 . S
C705 C704 1.370 . S
C705 C709 1.408 . S
C706 C704 1.363 . S
C706 C707 1.370 . S
C706 C710 1.524 . S
C707 C699 1.503 . S
C707 C706 1.370 . S
C707 C708 1.403 . S
C708 C707 1.403 . S
C708 C709 1.404 . S
C708 C711 1.539 . S
C709 C705 1.408 . S
C709 C708 1.404 . S
C709 H721 0.930 . S
C710 C706 1.524 . S
C710 H722 0.956 . S
C710 H723 0.961 . S
C710 H724 0.961 . S
C711 C708 1.539 . S
C711 H725 0.958 . S
C711 H726 0.961 . S
C711 H727 0.960 . S
H712 C696 0.931 . S
H713 C701 0.929 . S
H714 C702 0.960 . S
H715 C702 0.962 . S
H716 C702 0.960 . S
H717 C703 0.961 . S
H718 C703 0.961 . S
H719 C703 0.961 . S
H720 C704 0.931 . S
H721 C709 0.930 . S
H722 C710 0.956 . S
H723 C710 0.961 . S
H724 C710 0.961 . S
H725 C711 0.958 . S
H726 C711 0.961 . S
H727 C711 0.960 . S
C728 C729 1.391 . S
C728 C730 1.394 . S
C728 H744 0.931 . S
C729 C728 1.391 . S
C729 C733 1.376 . S
C730 C728 1.394 . S
C730 C731 1.369 . S
C730 C734 1.531 . S
C731 C730 1.369 . S
C731 C732 1.410 . S
C731 C739 1.503 . S
C732 C731 1.410 . S
C732 C733 1.392 . S
C732 C735 1.511 . S
C733 C729 1.376 . S
C733 C732 1.392 . S
C733 H745 0.929 . S
C734 C730 1.531 . S
C734 H746 0.960 . S
C734 H747 0.962 . S
C734 H748 0.960 . S
C735 C732 1.511 . S
C735 H749 0.961 . S
C735 H750 0.961 . S
C735 H751 0.961 . S
C736 C737 1.370 . S
C736 C738 1.363 . S
C736 H752 0.931 . S
C737 C736 1.370 . S
C737 C741 1.408 . S
C738 C736 1.363 . S
C738 C739 1.370 . S
C738 C742 1.524 . S
C739 C731 1.503 . S
C739 C738 1.370 . S
C739 C740 1.403 . S
C740 C739 1.403 . S
C740 C741 1.404 . S
C740 C743 1.539 . S
C741 C737 1.408 . S
C741 C740 1.404 . S
C741 H753 0.930 . S
C742 C738 1.524 . S
C742 H754 0.956 . S
C742 H755 0.961 . S
C742 H756 0.961 . S
C743 C740 1.539 . S
C743 H757 0.958 . S
C743 H758 0.961 . S
C743 H759 0.960 . S
H744 C728 0.931 . S
H745 C733 0.929 . S
H746 C734 0.960 . S
H747 C734 0.962 . S
H748 C734 0.960 . S
H749 C735 0.961 . S
H750 C735 0.961 . S
H751 C735 0.961 . S
H752 C736 0.931 . S
H753 C741 0.930 . S
H754 C742 0.956 . S
H755 C742 0.961 . S
H756 C742 0.961 . S
H757 C743 0.958 . S
H758 C743 0.961 . S
H759 C743 0.960 . S
C760 C761 1.391 . S
C760 C762 1.394 . S
C760 H776 0.931 . S
C761 C760 1.391 . S
C761 C765 1.376 . S
C762 C760 1.394 . S
C762 C763 1.369 . S
C762 C766 1.531 . S
C763 C762 1.369 . S
C763 C764 1.410 . S
C763 C771 1.503 . S
C764 C763 1.410 . S
C764 C765 1.392 . S
C764 C767 1.511 . S
C765 C761 1.376 . S
C765 C764 1.392 . S
C765 H777 0.929 . S
C766 C762 1.531 . S
C766 H778 0.960 . S
C766 H779 0.962 . S
C766 H780 0.960 . S
C767 C764 1.511 . S
C767 H781 0.961 . S
C767 H782 0.961 . S
C767 H783 0.961 . S
C768 C769 1.370 . S
C768 C770 1.363 . S
C768 H784 0.931 . S
C769 C768 1.370 . S
C769 C773 1.408 . S
C770 C768 1.363 . S
C770 C771 1.370 . S
C770 C774 1.524 . S
C771 C763 1.503 . S
C771 C770 1.370 . S
C771 C772 1.403 . S
C772 C771 1.403 . S
C772 C773 1.404 . S
C772 C775 1.539 . S
C773 C769 1.408 . S
C773 C772 1.404 . S
C773 H785 0.930 . S
C774 C770 1.524 . S
C774 H786 0.956 . S
C774 H787 0.961 . S
C774 H788 0.961 . S
C775 C772 1.539 . S
C775 H789 0.958 . S
C775 H790 0.961 . S
C775 H791 0.960 . S
H776 C760 0.931 . S
H777 C765 0.929 . S
H778 C766 0.960 . S
H779 C766 0.962 . S
H780 C766 0.960 . S
H781 C767 0.961 . S
H782 C767 0.961 . S
H783 C767 0.961 . S
H784 C768 0.931 . S
H785 C773 0.930 . S
H786 C774 0.956 . S
H787 C774 0.961 . S
H788 C774 0.961 . S
H789 C775 0.958 . S
H790 C775 0.961 . S
H791 C775 0.960 . S
C792 C793 1.391 . S
C792 C794 1.394 . S
C792 H808 0.931 . S
C793 C792 1.391 . S
C793 C797 1.376 . S
C794 C792 1.394 . S
C794 C795 1.369 . S
C794 C798 1.531 . S
C795 C794 1.369 . S
C795 C796 1.410 . S
C795 C803 1.503 . S
C796 C795 1.410 . S
C796 C797 1.392 . S
C796 C799 1.511 . S
C797 C793 1.376 . S
C797 C796 1.392 . S
C797 H809 0.929 . S
C798 C794 1.531 . S
C798 H810 0.960 . S
C798 H811 0.962 . S
C798 H812 0.960 . S
C799 C796 1.511 . S
C799 H813 0.961 . S
C799 H814 0.961 . S
C799 H815 0.961 . S
C800 C801 1.370 . S
C800 C802 1.363 . S
C800 H816 0.931 . S
C801 C800 1.370 . S
C801 C805 1.408 . S
C802 C800 1.363 . S
C802 C803 1.370 . S
C802 C806 1.524 . S
C803 C795 1.503 . S
C803 C802 1.370 . S
C803 C804 1.403 . S
C804 C803 1.403 . S
C804 C805 1.404 . S
C804 C807 1.539 . S
C805 C801 1.408 . S
C805 C804 1.404 . S
C805 H817 0.930 . S
C806 C802 1.524 . S
C806 H818 0.956 . S
C806 H819 0.961 . S
C806 H820 0.961 . S
C807 C804 1.539 . S
C807 H821 0.958 . S
C807 H822 0.961 . S
C807 H823 0.960 . S
H808 C792 0.931 . S
H809 C797 0.929 . S
H810 C798 0.960 . S
H811 C798 0.962 . S
H812 C798 0.960 . S
H813 C799 0.961 . S
H814 C799 0.961 . S
H815 C799 0.961 . S
H816 C800 0.931 . S
H817 C805 0.930 . S
H818 C806 0.956 . S
H819 C806 0.961 . S
H820 C806 0.961 . S
H821 C807 0.958 . S
H822 C807 0.961 . S
H823 C807 0.960 . S
C824 C825 1.391 . S
C824 C826 1.394 . S
C824 H840 0.931 . S
C825 C824 1.391 . S
C825 C829 1.376 . S
C826 C824 1.394 . S
C826 C827 1.369 . S
C826 C830 1.531 . S
C827 C826 1.369 . S
C827 C828 1.410 . S
C827 C835 1.503 1_455 S
C828 C827 1.410 . S
C828 C829 1.392 . S
C828 C831 1.511 . S
C829 C825 1.376 . S
C829 C828 1.392 . S
C829 H841 0.929 . S
C830 C826 1.531 . S
C830 H842 0.960 1_455 S
C830 H843 0.962 . S
C830 H844 0.960 . S
C831 C828 1.511 . S
C831 H845 0.961 . S
C831 H846 0.961 1_455 S
C831 H847 0.961 . S
C832 C833 1.370 . S
C832 C834 1.363 . S
C832 H848 0.931 . S
C833 C832 1.370 . S
C833 C837 1.408 . S
C834 C832 1.363 . S
C834 C835 1.370 . S
C834 C838 1.524 . S
C835 C827 1.503 1_655 S
C835 C834 1.370 . S
C835 C836 1.403 . S
C836 C835 1.403 . S
C836 C837 1.404 . S
C836 C839 1.539 . S
C837 C833 1.408 . S
C837 C836 1.404 . S
C837 H849 0.930 . S
C838 C834 1.524 . S
C838 H850 0.956 . S
C838 H851 0.929 1_655 S
C838 H852 0.961 . S
C839 C836 1.539 . S
C839 H853 0.958 . S
C839 H854 0.961 . S
C839 H855 0.960 1_655 S
H840 C824 0.931 . S
H841 C829 0.929 . S
H842 C830 0.960 1_655 S
H843 C830 0.962 . S
H844 C830 0.960 . S
H845 C831 0.961 . S
H846 C831 0.961 1_655 S
H847 C831 0.961 . S
H848 C832 0.931 . S
H849 C837 0.930 . S
H850 C838 0.956 . S
H851 C838 0.929 1_455 S
H852 C838 0.961 . S
H853 C839 0.958 . S
H854 C839 0.961 . S
H855 C839 0.960 1_455 S
C856 C857 1.391 . S
C856 C858 1.394 . S
C856 H872 0.931 . S
C857 C856 1.391 . S
C857 C861 1.376 . S
C858 C856 1.394 . S
C858 C859 1.369 . S
C858 C862 1.531 . S
C859 C858 1.369 . S
C859 C860 1.410 . S
C859 C867 1.503 1_655 S
C860 C859 1.410 . S
C860 C861 1.392 . S
C860 C863 1.511 . S
C861 C857 1.376 . S
C861 C860 1.392 . S
C861 H873 0.929 . S
C862 C858 1.531 . S
C862 H874 0.960 1_655 S
C862 H875 0.962 . S
C862 H876 0.960 . S
C863 C860 1.511 . S
C863 H877 0.961 . S
C863 H878 0.961 1_655 S
C863 H879 0.961 . S
C864 C865 1.370 . S
C864 C866 1.363 . S
C864 H880 0.931 . S
C865 C864 1.370 . S
C865 C869 1.408 . S
C866 C864 1.363 . S
C866 C867 1.370 . S
C866 C870 1.524 . S
C867 C859 1.503 1_455 S
C867 C866 1.370 . S
C867 C868 1.403 . S
C868 C867 1.403 . S
C868 C869 1.404 . S
C868 C871 1.539 . S
C869 C865 1.408 . S
C869 C868 1.404 . S
C869 H881 0.930 . S
C870 C866 1.524 . S
C870 H882 0.956 . S
C870 H883 0.961 1_455 S
C870 H884 0.961 . S
C871 C868 1.539 . S
C871 H885 0.958 . S
C871 H886 0.961 . S
C871 H887 0.955 . S
H872 C856 0.931 . S
H873 C861 0.929 . S
H874 C862 0.960 1_455 S
H875 C862 0.962 . S
H876 C862 0.960 . S
H877 C863 0.961 . S
H878 C863 0.961 1_455 S
H879 C863 0.961 . S
H880 C864 0.931 . S
H881 C869 0.930 . S
H882 C870 0.956 . S
H883 C870 0.961 1_655 S
H884 C870 0.961 . S
H885 C871 0.958 . S
H886 C871 0.961 . S
H887 C871 0.955 . S
C888 C889 1.391 . S
C888 C890 1.394 . S
C888 H904 0.931 . S
C889 C888 1.391 . S
C889 C893 1.376 . S
C890 C888 1.394 . S
C890 C891 1.369 . S
C890 C894 1.531 . S
C891 C890 1.369 . S
C891 C892 1.410 . S
C891 C899 1.503 . S
C892 C891 1.410 . S
C892 C893 1.392 . S
C892 C895 1.511 1_554 S
C893 C889 1.376 . S
C893 C892 1.392 . S
C893 H905 0.929 . S
C894 C890 1.531 . S
C894 H906 0.960 . S
C894 H907 0.962 . S
C894 H908 0.960 . S
C895 C892 1.511 1_556 S
C895 H909 0.961 . S
C895 H910 0.961 . S
C895 H911 0.961 . S
C896 C897 1.370 . S
C896 C898 1.363 . S
C896 H912 0.931 . S
C897 C896 1.370 . S
C897 C901 1.408 . S
C898 C896 1.363 . S
C898 C899 1.370 . S
C898 C902 1.524 . S
C899 C891 1.503 . S
C899 C898 1.370 . S
C899 C900 1.403 . S
C900 C899 1.403 . S
C900 C901 1.404 . S
C900 C903 1.539 . S
C901 C897 1.408 . S
C901 C900 1.404 . S
C901 H913 0.930 . S
C902 C898 1.524 . S
C902 H914 0.956 . S
C902 H915 0.961 . S
C902 H916 0.961 . S
C903 C900 1.539 . S
C903 H917 0.958 . S
C903 H918 0.961 . S
C903 H919 0.960 . S
H904 C888 0.931 . S
H905 C893 0.929 . S
H906 C894 0.960 . S
H907 C894 0.962 . S
H908 C894 0.960 . S
H909 C895 0.961 . S
H910 C895 0.961 . S
H911 C895 0.961 . S
H912 C896 0.931 . S
H913 C901 0.930 . S
H914 C902 0.956 . S
H915 C902 0.961 . S
H916 C902 0.961 . S
H917 C903 0.958 . S
H918 C903 0.961 . S
H919 C903 0.960 . S
C920 C921 1.391 . S
C920 C922 1.394 . S
C920 H936 0.931 . S
C921 C920 1.391 . S
C921 C925 1.376 . S
C922 C920 1.394 . S
C922 C923 1.369 . S
C922 C926 1.531 . S
C923 C922 1.369 . S
C923 C924 1.410 . S
C923 C931 1.503 . S
C924 C923 1.410 . S
C924 C925 1.392 . S
C924 C927 1.511 . S
C925 C921 1.376 . S
C925 C924 1.392 . S
C925 H937 0.929 . S
C926 C922 1.531 . S
C926 H938 0.960 . S
C926 H939 0.962 . S
C926 H940 0.960 . S
C927 C924 1.511 . S
C927 H941 0.961 . S
C927 H942 0.961 . S
C927 H943 0.961 . S
C928 C929 1.370 . S
C928 C930 1.363 . S
C928 H944 0.931 . S
C929 C928 1.370 . S
C929 C933 1.408 . S
C930 C928 1.363 . S
C930 C931 1.370 . S
C930 C934 1.524 . S
C931 C923 1.503 . S
C931 C930 1.370 . S
C931 C932 1.403 . S
C932 C931 1.403 . S
C932 C933 1.404 . S
C932 C935 1.539 1_556 S
C933 C929 1.408 . S
C933 C932 1.404 . S
C933 H945 0.930 . S
C934 C930 1.524 . S
C934 H946 0.956 . S
C934 H947 0.961 . S
C934 H948 0.961 . S
C935 C932 1.539 1_554 S
C935 H949 0.958 . S
C935 H950 0.961 . S
C935 H951 0.960 . S
H936 C920 0.931 . S
H937 C925 0.929 . S
H938 C926 0.960 . S
H939 C926 0.962 . S
H940 C926 0.960 . S
H941 C927 0.961 . S
H942 C927 0.961 . S
H943 C927 0.961 . S
H944 C928 0.931 . S
H945 C933 0.930 . S
H946 C934 0.956 . S
H947 C934 0.961 . S
H948 C934 0.961 . S
H949 C935 0.958 . S
H950 C935 0.961 . S
H951 C935 0.960 . S
C185 C18 1.450 . S
C193 C179 1.446 . S
C217 C156 1.465 . S
C225 C41 1.453 . S
C249 C133 1.467 . S
C257 C64 1.454 . S
C281 C110 1.462 . S
C289 C87 1.462 . S
C313 C66 1.564 . S
C321 C20 1.563 . S
C345 C43 1.570 . S
C353 C89 1.566 . S
C377 C88 1.526 . S
C385 C42 1.514 . S
C409 C65 1.501 . S
C417 C19 1.521 . S
C441 C112 1.576 . S
C449 C158 1.572 . S
C473 C135 1.550 . S
C481 C181 1.564 . S
C505 C180 1.507 . S
C513 C134 1.524 . S
C537 C157 1.521 . S
C545 C111 1.513 . S
C569 C17 1.376 . S
C577 C16 1.385 . S
C601 C40 1.386 . S
C609 C39 1.379 . S
C633 C62 1.372 . S
C641 C63 1.386 . S
C665 C86 1.375 . S
C673 C85 1.385 . S
C697 C108 1.386 . S
C705 C109 1.381 . S
C729 C132 1.384 . S
C737 C131 1.380 . S
C761 C155 1.385 . S
C769 C154 1.379 . S
C793 C178 1.384 . S
C801 C177 1.380 . S
C825 C21 1.472 . S
C833 C44 1.465 . S
C857 C90 1.449 . S
C865 C67 1.457 . S
C889 C113 1.461 . S
C897 C136 1.471 . S
C921 C182 1.444 . S
C929 C159 1.457 . S
