# Generated by pormake.
# Topology smk, (6)-cn, num edge types: 1
# Building blocks:
#     Node 0, Type 0, BuildingBlock: MIDCAF_clean_sbu_0, # of connection points: 6
#     Node 1, Type 0, BuildingBlock: MIDCAF_clean_sbu_0, # of connection points: 6
#     Node 2, Type 0, BuildingBlock: MIDCAF_clean_sbu_0, # of connection points: 6
#     Node 3, Type 0, BuildingBlock: MIDCAF_clean_sbu_0, # of connection points: 6
#     Node 4, Type 0, BuildingBlock: MIDCAF_clean_sbu_0, # of connection points: 6
#     Node 5, Type 0, BuildingBlock: MIDCAF_clean_sbu_0, # of connection points: 6
#     Edge 6, Type (0, 0), BuildingBlock: AJUNOK_clean_linker_0, # of connection points: 2
#     Edge 7, Type (0, 0), BuildingBlock: AJUNOK_clean_linker_0, # of connection points: 2
#     Edge 8, Type (0, 0), BuildingBlock: AJUNOK_clean_linker_0, # of connection points: 2
#     Edge 9, Type (0, 0), BuildingBlock: AJUNOK_clean_linker_0, # of connection points: 2
#     Edge 10, Type (0, 0), BuildingBlock: AJUNOK_clean_linker_0, # of connection points: 2
#     Edge 11, Type (0, 0), BuildingBlock: AJUNOK_clean_linker_0, # of connection points: 2
#     Edge 12, Type (0, 0), BuildingBlock: AJUNOK_clean_linker_0, # of connection points: 2
#     Edge 13, Type (0, 0), BuildingBlock: AJUNOK_clean_linker_0, # of connection points: 2
#     Edge 14, Type (0, 0), BuildingBlock: AJUNOK_clean_linker_0, # of connection points: 2
#     Edge 15, Type (0, 0), BuildingBlock: AJUNOK_clean_linker_0, # of connection points: 2
#     Edge 16, Type (0, 0), BuildingBlock: AJUNOK_clean_linker_0, # of connection points: 2
#     Edge 17, Type (0, 0), BuildingBlock: AJUNOK_clean_linker_0, # of connection points: 2
#     Edge 18, Type (0, 0), BuildingBlock: AJUNOK_clean_linker_0, # of connection points: 2
#     Edge 19, Type (0, 0), BuildingBlock: AJUNOK_clean_linker_0, # of connection points: 2
#     Edge 20, Type (0, 0), BuildingBlock: AJUNOK_clean_linker_0, # of connection points: 2
#     Edge 21, Type (0, 0), BuildingBlock: AJUNOK_clean_linker_0, # of connection points: 2
#     Edge 22, Type (0, 0), BuildingBlock: AJUNOK_clean_linker_0, # of connection points: 2
#     Edge 23, Type (0, 0), BuildingBlock: AJUNOK_clean_linker_0, # of connection points: 2
# Relax obj value: 0.124
# Max RMSD: 0.126
# Mean RMSD: 0.126
data_MOF--net-smk--node1-MIDCAF_clean_sbu_0--edge1-AJUNOK_clean_linker_0
_symmetry_space_group_name_H-M    P1
_symmetry_Int_Tables_number       1
_symmetry_cell_setting            triclinic
loop_
_symmetry_equiv_pos_as_xyz
'x, y, z'
_cell_length_a     31.087174
_cell_length_b     31.202175
_cell_length_c     11.054031
_cell_angle_alpha  89.923086
_cell_angle_beta   90.086384
_cell_angle_gamma 119.80401
loop_
_atom_site_label
_atom_site_type_symbol
_atom_site_fract_x
_atom_site_fract_y
_atom_site_fract_z
_atom_type_partial_charge
Zn0 Zn 0.44421 0.26198 0.428 0.0
Zn1 Zn 0.43026 0.10049 0.78919 0.0
Zn2 Zn 0.43169 0.2022 0.54862 0.0
C3 C 0.38821 0.17185 0.77802 0.0
C4 C 0.5249 0.19225 0.7 0.0
O5 O 0.39839 0.17 0.36619 0.0
O6 O 0.38663 0.23167 0.32115 0.0
C7 C 0.4071 0.28789 0.59878 0.0
O8 O 0.38901 0.20393 0.70506 0.0
O9 O 0.40586 0.14631 0.73586 0.0
O10 O 0.50199 0.15315 0.76494 0.0
O11 O 0.50327 0.20885 0.62743 0.0
O12 O 0.44354 0.31272 0.53012 0.0
O13 O 0.39409 0.24234 0.61999 0.0
O14 O 0.51375 0.25143 0.53297 0.0
O15 O 0.50753 0.27693 0.35281 0.0
C16 C 0.53476 0.27641 0.4366 0.0
O17 O 0.38834 0.13108 0.4563 0.0
O18 O 0.4088 0.11596 0.6292 0.0
C19 C 0.38098 0.19015 0.29334 0.0
C20 C 0.38472 0.09872 0.53227 0.0
Zn21 Zn 0.16964 0.42496 0.58892 0.0
Zn22 Zn 0.29052 0.4431 0.83155 0.0
Zn23 Zn 0.22627 0.43019 0.72655 0.0
C24 C 0.22014 0.42068 0.99218 0.0
C25 C 0.32968 0.53063 0.76596 0.0
O26 O 0.23015 0.39248 0.56475 0.0
O27 O 0.15209 0.35965 0.51633 0.0
C28 C 0.11274 0.39111 0.7766 0.0
O29 O 0.19397 0.39658 0.90049 0.0
O30 O 0.26292 0.45656 0.97439 0.0
O31 O 0.34838 0.5028 0.76548 0.0
O32 O 0.28202 0.51121 0.76057 0.0
O33 O 0.11697 0.4199 0.69168 0.0
O34 O 0.15059 0.38722 0.80843 0.0
O35 O 0.2436 0.50545 0.67371 0.0
O36 O 0.20677 0.48812 0.49643 0.0
C37 C 0.23508 0.52007 0.572 0.0
O38 O 0.26434 0.39077 0.65314 0.0
O39 O 0.28854 0.379 0.83065 0.0
C40 C 0.19443 0.3665 0.49106 0.0
C41 C 0.28207 0.3692 0.71957 0.0
Zn42 Zn 0.6726 0.11057 0.71369 0.0
Zn43 Zn 0.8483 0.2794 0.10233 0.0
Zn44 Zn 0.79634 0.22172 0.96934 0.0
C45 C 0.82126 0.19545 0.226 0.0
C46 C 0.78518 0.3116 0.07697 0.0
O47 O 0.82703 0.21107 0.79842 0.0
O48 O 0.74808 0.16123 0.76929 0.0
C49 C 0.71999 0.11817 0.97418 0.0
O50 O 0.78859 0.1801 0.14057 0.0
O51 O 0.85721 0.23883 0.22174 0.0
O52 O 0.81603 0.31639 0.15726 0.0
O53 O 0.77446 0.27957 0.99198 0.0
O54 O 0.71571 0.13755 0.87628 0.0
O55 O 0.75391 0.147 0.04782 0.0
O56 O 0.74372 0.24644 0.90801 0.0
O57 O 0.71155 0.17729 0.81073 0.0
C58 C 0.71045 0.21675 0.83449 0.0
O59 O 0.87043 0.24802 0.88804 0.0
O60 O 0.90694 0.31415 0.00423 0.0
C61 C 0.79228 0.18052 0.72826 0.0
C62 C 0.90965 0.28766 0.92214 0.0
Zn63 Zn 0.61131 0.72642 0.87738 0.0
Zn64 Zn 0.56072 0.84811 0.18181 0.0
Zn65 Zn 0.57558 0.79741 0.07605 0.0
C66 C 0.62431 0.84068 0.32688 0.0
C67 C 0.4721 0.76799 0.1891 0.0
O68 O 0.61341 0.83697 0.90825 0.0
O69 O 0.65853 0.80153 0.89084 0.0
C70 C 0.64713 0.76073 0.11361 0.0
O71 O 0.60761 0.8017 0.26025 0.0
O72 O 0.61816 0.87555 0.29092 0.0
O73 O 0.49858 0.8022 0.26138 0.0
O74 O 0.49279 0.76158 0.09509 0.0
O75 O 0.65584 0.77701 0.0067 0.0
O76 O 0.61453 0.76561 0.17315 0.0
O77 O 0.50724 0.7371 0.0019 0.0
O78 O 0.53601 0.70115 0.87455 0.0
C79 C 0.50034 0.70498 0.91959 0.0
O80 O 0.61344 0.87423 0.00316 0.0
O81 O 0.56029 0.89626 0.06687 0.0
C82 C 0.64359 0.82924 0.84554 0.0
C83 C 0.59937 0.90662 0.00985 0.0
Zn84 Zn 0.83157 0.5739 0.13378 0.0
Zn85 Zn 0.71083 0.5607 0.38359 0.0
Zn86 Zn 0.7782 0.57261 0.27364 0.0
C87 C 0.79141 0.62352 0.51834 0.0
C88 C 0.69576 0.46934 0.39454 0.0
O89 O 0.77921 0.61248 0.10852 0.0
O90 O 0.85674 0.63994 0.05879 0.0
C91 C 0.88606 0.5984 0.32989 0.0
O92 O 0.81143 0.60526 0.44925 0.0
O93 O 0.75036 0.61912 0.48792 0.0
O94 O 0.68342 0.49444 0.45995 0.0
O95 O 0.72758 0.49119 0.30905 0.0
O96 O 0.87718 0.56814 0.24532 0.0
O97 O 0.85342 0.61077 0.35684 0.0
O98 O 0.75829 0.49728 0.21166 0.0
O99 O 0.7928 0.51454 0.03141 0.0
C100 C 0.76598 0.48267 0.10873 0.0
O101 O 0.74277 0.61511 0.19953 0.0
O102 O 0.66769 0.57204 0.27471 0.0
C103 C 0.81572 0.637 0.0355 0.0
C104 C 0.69842 0.60816 0.21212 0.0
Zn105 Zn 0.29191 0.86529 0.16409 0.0
Zn106 Zn 0.16431 0.71772 0.53946 0.0
Zn107 Zn 0.20955 0.77952 0.42505 0.0
C108 C 0.17344 0.78828 0.68179 0.0
C109 C 0.23674 0.70163 0.52738 0.0
O110 O 0.16176 0.77851 0.27827 0.0
O111 O 0.22923 0.84604 0.24919 0.0
C112 C 0.27204 0.888 0.44957 0.0
O113 O 0.21219 0.80995 0.61326 0.0
O114 O 0.13713 0.74919 0.64314 0.0
O115 O 0.21083 0.70048 0.6161 0.0
O116 O 0.23928 0.72755 0.43384 0.0
O117 O 0.27975 0.87974 0.34138 0.0
O118 O 0.24449 0.85109 0.51752 0.0
O119 O 0.2678 0.76537 0.33716 0.0
O120 O 0.30857 0.81058 0.17208 0.0
C121 C 0.29896 0.7761 0.24799 0.0
O122 O 0.12906 0.74067 0.36878 0.0
O123 O 0.11371 0.6679 0.43353 0.0
C124 C 0.18824 0.81403 0.20666 0.0
C125 C 0.0983 0.69413 0.38364 0.0
C126 C 0.37969 0.1407 0.11359 0.0
C127 C 0.36723 0.17404 0.16573 0.0
C128 C 0.38309 0.13792 0.98747 0.0
C129 C 0.37506 0.16895 0.90854 0.0
H130 H 0.39044 0.11922 0.17023 0.0
H131 H 0.39485 0.11309 0.95289 0.0
S132 S 0.33086 0.25488 -0.00127 0.0
N133 N 0.33745 0.23194 0.12746 0.0
N134 N 0.34668 0.22843 0.8921 0.0
C135 C 0.35788 0.19883 0.95922 0.0
C136 C 0.3531 0.20078 0.08725 0.0
C137 C 0.23784 0.42277 0.32612 0.0
C138 C 0.20598 0.37393 0.36222 0.0
C139 C 0.23793 0.43757 0.20806 0.0
C140 C 0.20866 0.40363 0.11808 0.0
H141 H 0.26058 0.45098 0.39131 0.0
H142 H 0.26228 0.47626 0.18692 0.0
S143 S 0.12244 0.26985 0.16389 0.0
N144 N 0.14427 0.29106 0.30058 0.0
N145 N 0.14975 0.3177 0.07138 0.0
C146 C 0.17815 0.35393 0.15117 0.0
C147 C 0.1759 0.33931 0.27463 0.0
C148 C 0.76489 0.1511 0.39516 0.0
C149 C 0.81231 0.17111 0.3451 0.0
C150 C 0.7588 0.15144 0.52048 0.0
C151 C 0.79975 0.17116 0.60047 0.0
H152 H 0.73301 0.14083 0.33744 0.0
H153 H 0.72197 0.14012 0.55271 0.0
S154 S 0.92995 0.21415 0.5147 0.0
N155 N 0.89973 0.20101 0.38471 0.0
N156 N 0.88792 0.20119 0.62099 0.0
C157 C 0.84645 0.18486 0.55224 0.0
C158 C 0.85269 0.1844 0.42436 0.0
C159 C 0.63666 0.79994 0.50982 0.0
C160 C 0.6398 0.8421 0.45526 0.0
C161 C 0.64008 0.797 0.63604 0.0
C162 C 0.64571 0.83565 0.71261 0.0
H163 H 0.62922 0.76811 0.4555 0.0
H164 H 0.63585 0.76313 0.67405 0.0
S165 S 0.66348 0.9569 0.61636 0.0
N166 N 0.65575 0.92632 0.48894 0.0
N167 N 0.65957 0.91894 0.72533 0.0
C168 C 0.6517 0.8789 0.65954 0.0
C169 C 0.6496 0.88265 0.53116 0.0
C170 C 0.83965 0.67023 0.70315 0.0
C171 C 0.80049 0.62818 0.64946 0.0
C172 C 0.84263 0.67536 0.83013 0.0
C173 C 0.80568 0.63944 0.90597 0.0
H174 H 0.86786 0.69896 0.64726 0.0
H175 H 0.87462 0.70687 0.86956 0.0
S176 S 0.69628 0.52232 0.80641 0.0
N177 N 0.72509 0.54977 0.68028 0.0
N178 N 0.72926 0.56033 0.916 0.0
C179 C 0.76586 0.59804 0.85177 0.0
C180 C 0.76378 0.59214 0.7243 0.0
C181 C 0.21477 0.8473 0.99437 0.0
C182 C 0.18 0.81036 0.07275 0.0
C183 C 0.21188 0.84147 0.86761 0.0
C184 C 0.17286 0.7994 0.8135 0.0
H185 H 0.24539 0.8807 0.03085 0.0
H186 H 0.24096 0.86955 0.81212 0.0
S187 S 0.06674 0.69615 0.97754 0.0
N188 N 0.10234 0.73315 0.08562 0.0
N189 N 0.09469 0.72281 0.84994 0.0
C190 C 0.13533 0.7643 0.89104 0.0
C191 C 0.13928 0.76969 0.01966 0.0
C192 C 0.3569 0.01135 0.59474 0.0
C193 C 0.35275 0.04462 0.51506 0.0
C194 C 0.32752 0.9599 0.5804 0.0
C195 C 0.29293 0.94005 0.48608 0.0
H196 H 0.38407 0.02503 0.66685 0.0
H197 H 0.33384 0.93573 0.63909 0.0
S198 S 0.26281 0.01024 0.26286 0.0
N199 N 0.30759 0.05326 0.34598 0.0
N200 N 0.25292 0.95692 0.31832 0.0
C201 C 0.28662 0.97271 0.40983 0.0
C202 C 0.31641 0.02489 0.42432 0.0
C203 C 0.3257 0.27783 0.66848 0.0
C204 C 0.37513 0.30891 0.63167 0.0
C205 C 0.29374 0.29673 0.6895 0.0
C206 C 0.30937 0.3467 0.66797 0.0
H207 H 0.31147 0.23865 0.68088 0.0
H208 H 0.25696 0.2724 0.72483 0.0
S209 S 0.43376 0.44361 0.56861 0.0
N210 N 0.4377 0.39282 0.57548 0.0
N211 N 0.37635 0.4269 0.60783 0.0
C212 C 0.35777 0.37777 0.62748 0.0
C213 C 0.39092 0.35924 0.61071 0.0
C214 C 0.97334 0.31156 0.76076 0.0
C215 C 0.95999 0.30146 0.88232 0.0
C216 C 0.02345 0.33829 0.72802 0.0
C217 C 0.0617 0.35611 0.81581 0.0
H218 H 0.94521 0.30215 0.69196 0.0
H219 H 0.03227 0.34712 0.63321 0.0
S220 S 0.04526 0.33493 0.14559 0.0
N221 N 0.98835 0.30677 0.09029 0.0
N222 N 0.08245 0.3586 0.02785 0.0
C223 C 0.04877 0.34331 0.93663 0.0
C224 C 0.99782 0.31565 0.97003 0.0
C225 C 0.61433 0.98789 0.93671 0.0
C226 C 0.63352 0.95905 0.98365 0.0
C227 C 0.64251 0.03944 0.93724 0.0
C228 C 0.69043 0.06414 0.98772 0.0
H229 H 0.57674 0.97045 0.90217 0.0
H230 H 0.62627 0.06021 0.89935 0.0
S231 S 0.75746 0.00551 0.12335 0.0
N232 N 0.70344 0.95863 0.08161 0.0
N233 N 0.75624 0.05602 0.08423 0.0
C234 C 0.71023 0.03586 0.03469 0.0
C235 C 0.68186 0.98315 0.03176 0.0
C236 C 0.64091 0.64266 0.2235 0.0
C237 C 0.68539 0.64661 0.17855 0.0
C238 C 0.6297 0.6807 0.20849 0.0
C239 C 0.66216 0.72406 0.14638 0.0
H240 H 0.61456 0.61011 0.27283 0.0
H241 H 0.59477 0.67547 0.24276 0.0
S242 S 0.78333 0.75402 0.01141 0.0
N243 N 0.76223 0.69859 0.07079 0.0
N244 N 0.74069 0.76945 0.04002 0.0
C245 C 0.70662 0.72872 0.10079 0.0
C246 C 0.71831 0.69021 0.11719 0.0
C247 C 0.96233 0.5977 0.38381 0.0
C248 C 0.93791 0.62512 0.37172 0.0
C249 C 0.01393 0.62049 0.38182 0.0
C250 C 0.04387 0.67201 0.36844 0.0
H251 H 0.94115 0.55772 0.38849 0.0
H252 H 0.03041 0.59712 0.39033 0.0
S253 S 0.99812 0.76106 0.33799 0.0
N254 N 0.94713 0.70665 0.34772 0.0
N255 N 0.04491 0.75022 0.34804 0.0
C256 C 0.02003 0.70029 0.35974 0.0
C257 C 0.96696 0.67674 0.36134 0.0
C258 C 0.60752 0.33637 0.31638 0.0
C259 C 0.5878 0.31559 0.43074 0.0
C260 C 0.64627 0.38526 0.30481 0.0
C261 C 0.66764 0.41484 0.4073 0.0
H262 H 0.58922 0.31665 0.2345 0.0
H263 H 0.65617 0.40124 0.21511 0.0
S264 S 0.63875 0.3747 0.72708 0.0
N265 N 0.59885 0.32608 0.64834 0.0
N266 N 0.67301 0.41733 0.62659 0.0
C267 C 0.65292 0.39257 0.52195 0.0
C268 C 0.61299 0.34289 0.53378 0.0
C269 C 0.26313 0.60493 0.65001 0.0
C270 C 0.25147 0.57293 0.55065 0.0
C271 C 0.26404 0.65005 0.6383 0.0
C272 C 0.25374 0.66497 0.52682 0.0
H273 H 0.2672 0.59335 0.73968 0.0
H274 H 0.26885 0.67152 0.7193 0.0
S275 S 0.23358 0.60025 0.23349 0.0
N276 N 0.23927 0.56371 0.33256 0.0
N277 N 0.24001 0.6482 0.31144 0.0
C278 C 0.24828 0.63631 0.42403 0.0
C279 C 0.24734 0.59026 0.43584 0.0
C280 C 0.6492 0.20399 0.67297 0.0
C281 C 0.67029 0.22434 0.78613 0.0
C282 C 0.60447 0.20058 0.63535 0.0
C283 C 0.57916 0.21704 0.7101 0.0
H284 H 0.66577 0.18775 0.61637 0.0
H285 H 0.58718 0.18053 0.55301 0.0
S286 S 0.62094 0.27767 0.00865 0.0
N287 N 0.66455 0.26518 0.96724 0.0
N288 N 0.5802 0.25816 0.89699 0.0
C289 C 0.60185 0.24107 0.81861 0.0
C290 C 0.64758 0.24494 0.85659 0.0
C291 C 0.44427 0.65407 0.75338 0.0
C292 C 0.44996 0.66914 0.87538 0.0
C293 C 0.40164 0.61156 0.71341 0.0
C294 C 0.36274 0.58318 0.79332 0.0
H295 H 0.47456 0.67325 0.69012 0.0
H296 H 0.40078 0.59872 0.62191 0.0
S297 S 0.35685 0.60848 0.11844 0.0
N298 N 0.41152 0.6534 0.07375 0.0
N299 N 0.3303 0.57483 -0.00315 0.0
C300 C 0.3658 0.60018 0.91246 0.0
C301 C 0.40973 0.64298 0.95406 0.0
C302 C 0.75261 0.40391 0.19706 0.0
C303 C 0.75523 0.43123 0.09328 0.0
C304 C 0.7576 0.36199 0.18923 0.0
C305 C 0.76577 0.34599 0.07752 0.0
H306 H 0.75129 0.41728 0.28644 0.0
H307 H 0.75868 0.34408 0.27235 0.0
S308 S 0.76918 0.40027 0.77692 0.0
N309 N 0.76074 0.43581 0.87342 0.0
N310 N 0.77116 0.3571 0.85937 0.0
C311 C 0.76416 0.37013 0.97178 0.0
C312 C 0.75877 0.41287 0.97958 0.0
C313 C 0.38848 0.7431 0.10514 0.0
C314 C 0.41782 0.74572 0.20461 0.0
C315 C 0.34538 0.74639 0.12164 0.0
C316 C 0.3307 0.75311 0.23774 0.0
H317 H 0.40174 0.74431 0.0139 0.0
H318 H 0.32631 0.74879 0.04203 0.0
S319 S 0.39033 0.75241 0.52798 0.0
N320 N 0.42378 0.74469 0.42363 0.0
N321 N 0.3464 0.75647 0.45371 0.0
C322 C 0.35663 0.74989 0.33812 0.0
C323 C 0.39919 0.74448 0.32151 0.0
loop_
_geom_bond_atom_site_label_1
_geom_bond_atom_site_label_2
_geom_bond_distance
_geom_bond_site_symmetry_2
_ccdc_geom_bond_type
Zn0 O6 1.920 . S
Zn0 O12 1.898 . S
Zn0 O15 1.905 . S
Zn1 O9 1.905 . S
Zn1 O10 1.898 . S
Zn1 O18 1.920 . S
Zn2 O5 2.080 . S
Zn2 O8 2.114 . S
Zn2 O11 2.120 . S
Zn2 O13 2.120 . S
Zn2 O14 2.114 . S
Zn2 O17 2.080 . S
C3 O8 1.166 . S
C3 O9 1.182 . S
C4 O10 1.167 . S
C4 O11 1.299 . S
O5 Zn2 2.080 . S
O5 C19 1.305 . S
O6 Zn0 1.920 . S
O6 C19 1.234 . S
C7 O12 1.167 . S
C7 O13 1.299 . S
O8 Zn2 2.114 . S
O8 C3 1.166 . S
O9 Zn1 1.905 . S
O9 C3 1.182 . S
O10 Zn1 1.898 . S
O10 C4 1.167 . S
O11 Zn2 2.120 . S
O11 C4 1.299 . S
O12 Zn0 1.898 . S
O12 C7 1.167 . S
O13 Zn2 2.120 . S
O13 C7 1.299 . S
O14 Zn2 2.114 . S
O14 C16 1.166 . S
O15 Zn0 1.905 . S
O15 C16 1.182 . S
C16 O14 1.166 . S
C16 O15 1.182 . S
O17 Zn2 2.080 . S
O17 C20 1.305 . S
O18 Zn1 1.920 . S
O18 C20 1.234 . S
C19 O5 1.305 . S
C19 O6 1.234 . S
C20 O17 1.305 . S
C20 O18 1.234 . S
Zn21 O27 1.920 . S
Zn21 O33 1.898 . S
Zn21 O36 1.905 . S
Zn22 O30 1.905 1_556 S
Zn22 O31 1.898 . S
Zn22 O39 1.920 . S
Zn23 O26 2.080 . S
Zn23 O29 2.114 . S
Zn23 O32 2.120 . S
Zn23 O34 2.120 . S
Zn23 O35 2.114 . S
Zn23 O38 2.080 . S
C24 O29 1.166 1_554 S
C24 O30 1.182 . S
C25 O31 1.167 . S
C25 O32 1.299 . S
O26 Zn23 2.080 . S
O26 C40 1.305 . S
O27 Zn21 1.920 . S
O27 C40 1.234 . S
C28 O33 1.167 . S
C28 O34 1.299 . S
O29 Zn23 2.114 . S
O29 C24 1.166 1_556 S
O30 Zn22 1.905 1_554 S
O30 C24 1.182 . S
O31 Zn22 1.898 . S
O31 C25 1.167 . S
O32 Zn23 2.120 . S
O32 C25 1.299 . S
O33 Zn21 1.898 . S
O33 C28 1.167 . S
O34 Zn23 2.120 . S
O34 C28 1.299 . S
O35 Zn23 2.114 . S
O35 C37 1.166 . S
O36 Zn21 1.905 . S
O36 C37 1.182 . S
C37 O35 1.166 . S
C37 O36 1.182 . S
O38 Zn23 2.080 . S
O38 C41 1.305 . S
O39 Zn22 1.920 . S
O39 C41 1.234 . S
C40 O26 1.305 . S
C40 O27 1.234 . S
C41 O38 1.305 . S
C41 O39 1.234 . S
Zn42 O48 1.920 . S
Zn42 O54 1.898 . S
Zn42 O57 1.905 . S
Zn43 O51 1.905 . S
Zn43 O52 1.898 . S
Zn43 O60 1.926 . S
Zn44 O47 2.080 . S
Zn44 O50 2.114 1_556 S
Zn44 O53 2.120 . S
Zn44 O55 2.120 . S
Zn44 O56 2.114 . S
Zn44 O59 2.080 . S
C45 O50 1.166 . S
C45 O51 1.182 . S
C46 O52 1.167 1_556 S
C46 O53 1.299 . S
O47 Zn44 2.080 . S
O47 C61 1.305 . S
O48 Zn42 1.920 . S
O48 C61 1.234 . S
C49 O54 1.167 . S
C49 O55 1.299 . S
O50 Zn44 2.114 1_554 S
O50 C45 1.166 . S
O51 Zn43 1.905 . S
O51 C45 1.182 . S
O52 Zn43 1.898 . S
O52 C46 1.167 1_554 S
O53 Zn44 2.120 . S
O53 C46 1.299 . S
O54 Zn42 1.898 . S
O54 C49 1.167 . S
O55 Zn44 2.120 . S
O55 C49 1.299 . S
O56 Zn44 2.114 . S
O56 C58 1.166 . S
O57 Zn42 1.905 . S
O57 C58 1.182 . S
C58 O56 1.166 . S
C58 O57 1.182 . S
O59 Zn44 2.080 . S
O59 C62 1.305 . S
O60 Zn43 1.926 . S
O60 C62 1.228 1_554 S
C61 O47 1.305 . S
C61 O48 1.234 . S
C62 O59 1.305 . S
C62 O60 1.228 1_556 S
Zn63 O69 1.920 . S
Zn63 O75 1.896 1_556 S
Zn63 O78 1.905 . S
Zn64 O72 1.905 . S
Zn64 O73 1.898 . S
Zn64 O81 1.920 . S
Zn65 O68 2.080 1_554 S
Zn65 O71 2.114 . S
Zn65 O74 2.120 . S
Zn65 O76 2.120 . S
Zn65 O77 2.114 . S
Zn65 O80 2.080 . S
C66 O71 1.166 . S
C66 O72 1.182 . S
C67 O73 1.167 . S
C67 O74 1.299 . S
O68 Zn65 2.080 1_556 S
O68 C82 1.305 . S
O69 Zn63 1.920 . S
O69 C82 1.234 . S
C70 O75 1.170 . S
C70 O76 1.299 . S
O71 Zn65 2.114 . S
O71 C66 1.166 . S
O72 Zn64 1.905 . S
O72 C66 1.182 . S
O73 Zn64 1.898 . S
O73 C67 1.167 . S
O74 Zn65 2.120 . S
O74 C67 1.299 . S
O75 Zn63 1.896 1_554 S
O75 C70 1.170 . S
O76 Zn65 2.120 . S
O76 C70 1.299 . S
O77 Zn65 2.114 . S
O77 C79 1.166 . S
O78 Zn63 1.905 . S
O78 C79 1.182 1_556 S
C79 O77 1.166 . S
C79 O78 1.182 1_554 S
O80 Zn65 2.080 . S
O80 C83 1.305 . S
O81 Zn64 1.920 . S
O81 C83 1.234 . S
C82 O68 1.305 . S
C82 O69 1.234 . S
C83 O80 1.305 . S
C83 O81 1.234 . S
Zn84 O90 1.920 1_554 S
Zn84 O96 1.898 . S
Zn84 O99 1.905 . S
Zn85 O93 1.905 . S
Zn85 O94 1.898 . S
Zn85 O102 1.920 . S
Zn86 O89 2.080 . S
Zn86 O92 2.114 . S
Zn86 O95 2.120 . S
Zn86 O97 2.120 . S
Zn86 O98 2.114 . S
Zn86 O101 2.080 . S
C87 O92 1.166 . S
C87 O93 1.182 . S
C88 O94 1.167 . S
C88 O95 1.299 . S
O89 Zn86 2.080 . S
O89 C103 1.305 1_554 S
O90 Zn84 1.920 1_556 S
O90 C103 1.234 . S
C91 O96 1.167 . S
C91 O97 1.299 . S
O92 Zn86 2.114 . S
O92 C87 1.166 . S
O93 Zn85 1.905 . S
O93 C87 1.182 . S
O94 Zn85 1.898 . S
O94 C88 1.167 . S
O95 Zn86 2.120 . S
O95 C88 1.299 . S
O96 Zn84 1.898 . S
O96 C91 1.167 . S
O97 Zn86 2.120 . S
O97 C91 1.299 . S
O98 Zn86 2.114 . S
O98 C100 1.166 . S
O99 Zn84 1.905 . S
O99 C100 1.182 . S
C100 O98 1.166 . S
C100 O99 1.182 . S
O101 Zn86 2.080 . S
O101 C104 1.305 . S
O102 Zn85 1.920 . S
O102 C104 1.234 . S
C103 O89 1.305 1_556 S
C103 O90 1.234 . S
C104 O101 1.305 . S
C104 O102 1.234 . S
Zn105 O111 1.920 . S
Zn105 O117 1.898 . S
Zn105 O120 1.905 . S
Zn106 O114 1.905 . S
Zn106 O115 1.898 . S
Zn106 O123 1.920 . S
Zn107 O110 2.080 . S
Zn107 O113 2.114 . S
Zn107 O116 2.120 . S
Zn107 O118 2.120 . S
Zn107 O119 2.114 . S
Zn107 O122 2.080 . S
C108 O113 1.166 . S
C108 O114 1.182 . S
C109 O115 1.167 . S
C109 O116 1.299 . S
O110 Zn107 2.080 . S
O110 C124 1.305 . S
O111 Zn105 1.920 . S
O111 C124 1.234 . S
C112 O117 1.167 . S
C112 O118 1.299 . S
O113 Zn107 2.114 . S
O113 C108 1.166 . S
O114 Zn106 1.905 . S
O114 C108 1.182 . S
O115 Zn106 1.898 . S
O115 C109 1.167 . S
O116 Zn107 2.120 . S
O116 C109 1.299 . S
O117 Zn105 1.898 . S
O117 C112 1.167 . S
O118 Zn107 2.120 . S
O118 C112 1.299 . S
O119 Zn107 2.114 . S
O119 C121 1.166 . S
O120 Zn105 1.905 . S
O120 C121 1.182 . S
C121 O119 1.166 . S
C121 O120 1.182 . S
O122 Zn107 2.080 . S
O122 C125 1.305 . S
O123 Zn106 1.920 . S
O123 C125 1.234 . S
C124 O110 1.305 . S
C124 O111 1.234 . S
C125 O122 1.305 . S
C125 O123 1.234 . S
C126 C127 1.369 . S
C126 C128 1.419 . S
C126 H130 0.930 . S
C127 C126 1.369 . S
C127 C136 1.429 . S
C128 C126 1.419 . S
C128 C129 1.363 1_554 S
C128 H131 0.929 1_554 S
C129 C128 1.363 1_556 S
C129 C135 1.428 1_556 S
H130 C126 0.930 . S
H131 C128 0.929 1_556 S
S132 N133 1.613 . S
S132 N134 1.610 1_554 S
N133 S132 1.613 . S
N133 C136 1.350 . S
N134 S132 1.610 1_556 S
N134 C135 1.351 1_556 S
C135 C129 1.428 1_554 S
C135 N134 1.351 1_554 S
C135 C136 1.434 . S
C136 C127 1.429 . S
C136 N133 1.350 . S
C136 C135 1.434 . S
C137 C138 1.369 . S
C137 C139 1.419 . S
C137 H141 0.930 . S
C138 C137 1.369 . S
C138 C147 1.429 . S
C139 C137 1.419 . S
C139 C140 1.363 . S
C139 H142 0.929 . S
C140 C139 1.363 . S
C140 C146 1.428 . S
H141 C137 0.930 . S
H142 C139 0.929 . S
S143 N144 1.613 . S
S143 N145 1.610 . S
N144 S143 1.613 . S
N144 C147 1.350 . S
N145 S143 1.610 . S
N145 C146 1.351 . S
C146 C140 1.428 . S
C146 N145 1.351 . S
C146 C147 1.434 . S
C147 C138 1.429 . S
C147 N144 1.350 . S
C147 C146 1.434 . S
C148 C149 1.369 . S
C148 C150 1.419 . S
C148 H152 0.930 . S
C149 C148 1.369 . S
C149 C158 1.429 . S
C150 C148 1.419 . S
C150 C151 1.363 . S
C150 H153 0.929 . S
C151 C150 1.363 . S
C151 C157 1.428 . S
H152 C148 0.930 . S
H153 C150 0.929 . S
S154 N155 1.613 . S
S154 N156 1.610 . S
N155 S154 1.613 . S
N155 C158 1.350 . S
N156 S154 1.610 . S
N156 C157 1.351 . S
C157 C151 1.428 . S
C157 N156 1.351 . S
C157 C158 1.434 . S
C158 C149 1.429 . S
C158 N155 1.350 . S
C158 C157 1.434 . S
C159 C160 1.369 . S
C159 C161 1.419 . S
C159 H163 0.930 . S
C160 C159 1.369 . S
C160 C169 1.429 . S
C161 C159 1.419 . S
C161 C162 1.363 . S
C161 H164 0.929 . S
C162 C161 1.363 . S
C162 C168 1.428 . S
H163 C159 0.930 . S
H164 C161 0.929 . S
S165 N166 1.613 . S
S165 N167 1.610 . S
N166 S165 1.613 . S
N166 C169 1.350 . S
N167 S165 1.610 . S
N167 C168 1.351 . S
C168 C162 1.428 . S
C168 N167 1.351 . S
C168 C169 1.434 . S
C169 C160 1.429 . S
C169 N166 1.350 . S
C169 C168 1.434 . S
C170 C171 1.369 . S
C170 C172 1.419 . S
C170 H174 0.930 . S
C171 C170 1.369 . S
C171 C180 1.429 . S
C172 C170 1.419 . S
C172 C173 1.363 . S
C172 H175 0.929 . S
C173 C172 1.363 . S
C173 C179 1.428 . S
H174 C170 0.930 . S
H175 C172 0.929 . S
S176 N177 1.613 . S
S176 N178 1.610 . S
N177 S176 1.613 . S
N177 C180 1.350 . S
N178 S176 1.610 . S
N178 C179 1.351 . S
C179 C173 1.428 . S
C179 N178 1.351 . S
C179 C180 1.434 . S
C180 C171 1.429 . S
C180 N177 1.350 . S
C180 C179 1.434 . S
C181 C182 1.369 1_556 S
C181 C183 1.419 . S
C181 H185 0.930 1_556 S
C182 C181 1.369 1_554 S
C182 C191 1.429 1_554 S
C183 C181 1.419 . S
C183 C184 1.363 . S
C183 H186 0.929 . S
C184 C183 1.363 . S
C184 C190 1.428 . S
H185 C181 0.930 1_554 S
H186 C183 0.929 . S
S187 N188 1.613 . S
S187 N189 1.610 . S
N188 S187 1.613 . S
N188 C191 1.350 . S
N189 S187 1.610 . S
N189 C190 1.351 . S
C190 C184 1.428 . S
C190 N189 1.351 . S
C190 C191 1.434 . S
C191 C182 1.429 1_556 S
C191 N188 1.350 . S
C191 C190 1.434 . S
C192 C193 1.369 . S
C192 C194 1.419 1_545 S
C192 H196 0.930 . S
C193 C192 1.369 . S
C193 C202 1.429 . S
C194 C192 1.419 1_565 S
C194 C195 1.363 . S
C194 H197 0.929 . S
C195 C194 1.363 . S
C195 C201 1.428 . S
H196 C192 0.930 . S
H197 C194 0.929 . S
S198 N199 1.613 . S
S198 N200 1.610 1_545 S
N199 S198 1.613 . S
N199 C202 1.350 . S
N200 S198 1.610 1_565 S
N200 C201 1.351 . S
C201 C195 1.428 . S
C201 N200 1.351 . S
C201 C202 1.434 1_565 S
C202 C193 1.429 . S
C202 N199 1.350 . S
C202 C201 1.434 1_545 S
C203 C204 1.369 . S
C203 C205 1.419 . S
C203 H207 0.930 . S
C204 C203 1.369 . S
C204 C213 1.429 . S
C205 C203 1.419 . S
C205 C206 1.363 . S
C205 H208 0.929 . S
C206 C205 1.363 . S
C206 C212 1.428 . S
H207 C203 0.930 . S
H208 C205 0.929 . S
S209 N210 1.613 . S
S209 N211 1.610 . S
N210 S209 1.613 . S
N210 C213 1.350 . S
N211 S209 1.610 . S
N211 C212 1.351 . S
C212 C206 1.428 . S
C212 N211 1.351 . S
C212 C213 1.434 . S
C213 C204 1.429 . S
C213 N210 1.350 . S
C213 C212 1.434 . S
C214 C215 1.369 . S
C214 C216 1.419 1_655 S
C214 H218 0.930 . S
C215 C214 1.369 . S
C215 C224 1.429 . S
C216 C214 1.419 1_455 S
C216 C217 1.363 . S
C216 H219 0.929 . S
C217 C216 1.363 . S
C217 C223 1.428 . S
H218 C214 0.930 . S
H219 C216 0.929 . S
S220 N221 1.613 1_455 S
S220 N222 1.610 . S
N221 S220 1.613 1_655 S
N221 C224 1.350 1_554 S
N222 S220 1.610 . S
N222 C223 1.351 1_554 S
C223 C217 1.428 . S
C223 N222 1.351 1_556 S
C223 C224 1.434 1_455 S
C224 C215 1.429 . S
C224 N221 1.350 1_556 S
C224 C223 1.434 1_655 S
C225 C226 1.369 1_556 S
C225 C227 1.419 1_565 S
C225 H229 0.930 . S
C226 C225 1.369 1_554 S
C226 C235 1.429 . S
C227 C225 1.419 1_545 S
C227 C228 1.363 . S
C227 H230 0.929 . S
C228 C227 1.363 . S
C228 C234 1.428 1_556 S
H229 C225 0.930 . S
H230 C227 0.929 . S
S231 N232 1.613 1_545 S
S231 N233 1.610 . S
N232 S231 1.613 1_565 S
N232 C235 1.350 . S
N233 S231 1.610 . S
N233 C234 1.351 . S
C234 C228 1.428 1_554 S
C234 N233 1.351 . S
C234 C235 1.434 1_545 S
C235 C226 1.429 . S
C235 N232 1.350 . S
C235 C234 1.434 1_565 S
C236 C237 1.369 . S
C236 C238 1.419 . S
C236 H240 0.930 . S
C237 C236 1.369 . S
C237 C246 1.429 . S
C238 C236 1.419 . S
C238 C239 1.363 . S
C238 H241 0.929 . S
C239 C238 1.363 . S
C239 C245 1.428 . S
H240 C236 0.930 . S
H241 C238 0.929 . S
S242 N243 1.613 . S
S242 N244 1.610 . S
N243 S242 1.613 . S
N243 C246 1.350 . S
N244 S242 1.610 . S
N244 C245 1.351 . S
C245 C239 1.428 . S
C245 N244 1.351 . S
C245 C246 1.434 . S
C246 C237 1.429 . S
C246 N243 1.350 . S
C246 C245 1.434 . S
C247 C248 1.369 . S
C247 C249 1.419 1_655 S
C247 H251 0.930 . S
C248 C247 1.369 . S
C248 C257 1.429 . S
C249 C247 1.419 1_455 S
C249 C250 1.363 . S
C249 H252 0.929 . S
C250 C249 1.363 . S
C250 C256 1.428 . S
H251 C247 0.930 . S
H252 C249 0.929 . S
S253 N254 1.613 . S
S253 N255 1.610 1_655 S
N254 S253 1.613 . S
N254 C257 1.350 . S
N255 S253 1.610 1_455 S
N255 C256 1.351 . S
C256 C250 1.428 . S
C256 N255 1.351 . S
C256 C257 1.434 1_455 S
C257 C248 1.429 . S
C257 N254 1.350 . S
C257 C256 1.434 1_655 S
C258 C259 1.369 . S
C258 C260 1.419 . S
C258 H262 0.930 . S
C259 C258 1.369 . S
C259 C268 1.429 . S
C260 C258 1.419 . S
C260 C261 1.363 . S
C260 H263 0.929 . S
C261 C260 1.363 . S
C261 C267 1.428 . S
H262 C258 0.930 . S
H263 C260 0.929 . S
S264 N265 1.613 . S
S264 N266 1.610 . S
N265 S264 1.613 . S
N265 C268 1.350 . S
N266 S264 1.610 . S
N266 C267 1.351 . S
C267 C261 1.428 . S
C267 N266 1.351 . S
C267 C268 1.434 . S
C268 C259 1.429 . S
C268 N265 1.350 . S
C268 C267 1.434 . S
C269 C270 1.369 . S
C269 C271 1.419 . S
C269 H273 0.930 . S
C270 C269 1.369 . S
C270 C279 1.429 . S
C271 C269 1.419 . S
C271 C272 1.363 . S
C271 H274 0.929 . S
C272 C271 1.363 . S
C272 C278 1.428 . S
H273 C269 0.930 . S
H274 C271 0.929 . S
S275 N276 1.613 . S
S275 N277 1.610 . S
N276 S275 1.613 . S
N276 C279 1.350 . S
N277 S275 1.610 . S
N277 C278 1.351 . S
C278 C272 1.428 . S
C278 N277 1.351 . S
C278 C279 1.434 . S
C279 C270 1.429 . S
C279 N276 1.350 . S
C279 C278 1.434 . S
C280 C281 1.369 . S
C280 C282 1.419 . S
C280 H284 0.930 . S
C281 C280 1.369 . S
C281 C290 1.429 . S
C282 C280 1.419 . S
C282 C283 1.363 . S
C282 H285 0.929 . S
C283 C282 1.363 . S
C283 C289 1.428 . S
H284 C280 0.930 . S
H285 C282 0.929 . S
S286 N287 1.613 1_554 S
S286 N288 1.610 1_554 S
N287 S286 1.613 1_556 S
N287 C290 1.350 . S
N288 S286 1.610 1_556 S
N288 C289 1.351 . S
C289 C283 1.428 . S
C289 N288 1.351 . S
C289 C290 1.434 . S
C290 C281 1.429 . S
C290 N287 1.350 . S
C290 C289 1.434 . S
C291 C292 1.369 . S
C291 C293 1.419 . S
C291 H295 0.930 . S
C292 C291 1.369 . S
C292 C301 1.429 1_556 S
C293 C291 1.419 . S
C293 C294 1.363 . S
C293 H296 0.929 . S
C294 C293 1.363 . S
C294 C300 1.428 . S
H295 C291 0.930 . S
H296 C293 0.929 . S
S297 N298 1.613 . S
S297 N299 1.610 1_554 S
N298 S297 1.613 . S
N298 C301 1.350 . S
N299 S297 1.610 1_556 S
N299 C300 1.351 . S
C300 C294 1.428 . S
C300 N299 1.351 . S
C300 C301 1.434 1_556 S
C301 C292 1.429 1_554 S
C301 N298 1.350 . S
C301 C300 1.434 1_554 S
C302 C303 1.369 . S
C302 C304 1.419 . S
C302 H306 0.930 . S
C303 C302 1.369 . S
C303 C312 1.429 . S
C304 C302 1.419 . S
C304 C305 1.363 . S
C304 H307 0.929 . S
C305 C304 1.363 . S
C305 C311 1.428 . S
H306 C302 0.930 . S
H307 C304 0.929 . S
S308 N309 1.613 . S
S308 N310 1.610 1_554 S
N309 S308 1.613 . S
N309 C312 1.350 . S
N310 S308 1.610 1_556 S
N310 C311 1.351 1_556 S
C311 C305 1.428 . S
C311 N310 1.351 1_554 S
C311 C312 1.434 . S
C312 C303 1.429 . S
C312 N309 1.350 . S
C312 C311 1.434 . S
C313 C314 1.369 . S
C313 C315 1.419 . S
C313 H317 0.930 . S
C314 C313 1.369 . S
C314 C323 1.429 . S
C315 C313 1.419 . S
C315 C316 1.363 . S
C315 H318 0.929 . S
C316 C315 1.363 . S
C316 C322 1.428 . S
H317 C313 0.930 . S
H318 C315 0.929 . S
S319 N320 1.613 . S
S319 N321 1.610 . S
N320 S319 1.613 . S
N320 C323 1.350 . S
N321 S319 1.610 . S
N321 C322 1.351 . S
C322 C316 1.428 . S
C322 N321 1.351 . S
C322 C323 1.434 . S
C323 C314 1.429 . S
C323 N320 1.350 . S
C323 C322 1.434 . S
C127 C19 1.086 . S
C129 C3 1.109 . S
C138 C40 1.105 . S
C140 C24 1.099 . S
C149 C45 1.109 . S
C151 C61 1.095 . S
C160 C66 1.094 . S
C162 C82 1.104 . S
C171 C87 1.092 . S
C173 C103 1.099 . S
C182 C124 1.102 . S
C184 C108 1.094 . S
C193 C20 1.422 . S
C195 C112 1.410 . S
C204 C7 1.408 . S
C206 C41 1.411 . S
C215 C62 1.409 . S
C217 C28 1.412 . S
C226 C83 1.412 . S
C228 C49 1.415 . S
C237 C104 1.420 . S
C239 C70 1.412 . S
C248 C91 1.413 . S
C250 C125 1.419 . S
C259 C16 1.515 . S
C261 C88 1.508 . S
C270 C37 1.511 . S
C272 C109 1.509 . S
C281 C58 1.517 . S
C283 C4 1.499 . S
C292 C79 1.518 1_556 S
C294 C25 1.501 . S
C303 C100 1.504 . S
C305 C46 1.503 1_554 S
C314 C67 1.496 . S
C316 C121 1.514 . S
