# Generated by pormake.
# Topology umv, (4)-cn, num edge types: 1
# Building blocks:
#     Node 0, Type 0, BuildingBlock: UXUYUI_clean_sbu_0, # of connection points: 4
#     Node 1, Type 0, BuildingBlock: UXUYUI_clean_sbu_0, # of connection points: 4
#     Node 2, Type 0, BuildingBlock: UXUYUI_clean_sbu_0, # of connection points: 4
#     Node 3, Type 0, BuildingBlock: UXUYUI_clean_sbu_0, # of connection points: 4
#     Node 4, Type 0, BuildingBlock: UXUYUI_clean_sbu_0, # of connection points: 4
#     Node 5, Type 0, BuildingBlock: UXUYUI_clean_sbu_0, # of connection points: 4
#     Node 6, Type 0, BuildingBlock: UXUYUI_clean_sbu_0, # of connection points: 4
#     Node 7, Type 0, BuildingBlock: UXUYUI_clean_sbu_0, # of connection points: 4
#     Node 8, Type 0, BuildingBlock: UXUYUI_clean_sbu_0, # of connection points: 4
#     Node 9, Type 0, BuildingBlock: UXUYUI_clean_sbu_0, # of connection points: 4
#     Node 10, Type 0, BuildingBlock: UXUYUI_clean_sbu_0, # of connection points: 4
#     Node 11, Type 0, BuildingBlock: UXUYUI_clean_sbu_0, # of connection points: 4
#     Node 12, Type 0, BuildingBlock: UXUYUI_clean_sbu_0, # of connection points: 4
#     Node 13, Type 0, BuildingBlock: UXUYUI_clean_sbu_0, # of connection points: 4
#     Node 14, Type 0, BuildingBlock: UXUYUI_clean_sbu_0, # of connection points: 4
#     Node 15, Type 0, BuildingBlock: UXUYUI_clean_sbu_0, # of connection points: 4
#     Node 16, Type 0, BuildingBlock: UXUYUI_clean_sbu_0, # of connection points: 4
#     Node 17, Type 0, BuildingBlock: UXUYUI_clean_sbu_0, # of connection points: 4
#     Node 18, Type 0, BuildingBlock: UXUYUI_clean_sbu_0, # of connection points: 4
#     Node 19, Type 0, BuildingBlock: UXUYUI_clean_sbu_0, # of connection points: 4
#     Node 20, Type 0, BuildingBlock: UXUYUI_clean_sbu_0, # of connection points: 4
#     Node 21, Type 0, BuildingBlock: UXUYUI_clean_sbu_0, # of connection points: 4
#     Node 22, Type 0, BuildingBlock: UXUYUI_clean_sbu_0, # of connection points: 4
#     Node 23, Type 0, BuildingBlock: UXUYUI_clean_sbu_0, # of connection points: 4
#     Node 24, Type 0, BuildingBlock: UXUYUI_clean_sbu_0, # of connection points: 4
#     Node 25, Type 0, BuildingBlock: UXUYUI_clean_sbu_0, # of connection points: 4
#     Node 26, Type 0, BuildingBlock: UXUYUI_clean_sbu_0, # of connection points: 4
#     Node 27, Type 0, BuildingBlock: UXUYUI_clean_sbu_0, # of connection points: 4
#     Node 28, Type 0, BuildingBlock: UXUYUI_clean_sbu_0, # of connection points: 4
#     Node 29, Type 0, BuildingBlock: UXUYUI_clean_sbu_0, # of connection points: 4
#     Node 30, Type 0, BuildingBlock: UXUYUI_clean_sbu_0, # of connection points: 4
#     Node 31, Type 0, BuildingBlock: UXUYUI_clean_sbu_0, # of connection points: 4
#     Edge 32, Type (0, 0), BuildingBlock: AJUNOK_clean_linker_0, # of connection points: 2
#     Edge 33, Type (0, 0), BuildingBlock: AJUNOK_clean_linker_0, # of connection points: 2
#     Edge 34, Type (0, 0), BuildingBlock: AJUNOK_clean_linker_0, # of connection points: 2
#     Edge 35, Type (0, 0), BuildingBlock: AJUNOK_clean_linker_0, # of connection points: 2
#     Edge 36, Type (0, 0), BuildingBlock: AJUNOK_clean_linker_0, # of connection points: 2
#     Edge 37, Type (0, 0), BuildingBlock: AJUNOK_clean_linker_0, # of connection points: 2
#     Edge 38, Type (0, 0), BuildingBlock: AJUNOK_clean_linker_0, # of connection points: 2
#     Edge 39, Type (0, 0), BuildingBlock: AJUNOK_clean_linker_0, # of connection points: 2
#     Edge 40, Type (0, 0), BuildingBlock: AJUNOK_clean_linker_0, # of connection points: 2
#     Edge 41, Type (0, 0), BuildingBlock: AJUNOK_clean_linker_0, # of connection points: 2
#     Edge 42, Type (0, 0), BuildingBlock: AJUNOK_clean_linker_0, # of connection points: 2
#     Edge 43, Type (0, 0), BuildingBlock: AJUNOK_clean_linker_0, # of connection points: 2
#     Edge 44, Type (0, 0), BuildingBlock: AJUNOK_clean_linker_0, # of connection points: 2
#     Edge 45, Type (0, 0), BuildingBlock: AJUNOK_clean_linker_0, # of connection points: 2
#     Edge 46, Type (0, 0), BuildingBlock: AJUNOK_clean_linker_0, # of connection points: 2
#     Edge 47, Type (0, 0), BuildingBlock: AJUNOK_clean_linker_0, # of connection points: 2
#     Edge 48, Type (0, 0), BuildingBlock: AJUNOK_clean_linker_0, # of connection points: 2
#     Edge 49, Type (0, 0), BuildingBlock: AJUNOK_clean_linker_0, # of connection points: 2
#     Edge 50, Type (0, 0), BuildingBlock: AJUNOK_clean_linker_0, # of connection points: 2
#     Edge 51, Type (0, 0), BuildingBlock: AJUNOK_clean_linker_0, # of connection points: 2
#     Edge 52, Type (0, 0), BuildingBlock: AJUNOK_clean_linker_0, # of connection points: 2
#     Edge 53, Type (0, 0), BuildingBlock: AJUNOK_clean_linker_0, # of connection points: 2
#     Edge 54, Type (0, 0), BuildingBlock: AJUNOK_clean_linker_0, # of connection points: 2
#     Edge 55, Type (0, 0), BuildingBlock: AJUNOK_clean_linker_0, # of connection points: 2
#     Edge 56, Type (0, 0), BuildingBlock: AJUNOK_clean_linker_0, # of connection points: 2
#     Edge 57, Type (0, 0), BuildingBlock: AJUNOK_clean_linker_0, # of connection points: 2
#     Edge 58, Type (0, 0), BuildingBlock: AJUNOK_clean_linker_0, # of connection points: 2
#     Edge 59, Type (0, 0), BuildingBlock: AJUNOK_clean_linker_0, # of connection points: 2
#     Edge 60, Type (0, 0), BuildingBlock: AJUNOK_clean_linker_0, # of connection points: 2
#     Edge 61, Type (0, 0), BuildingBlock: AJUNOK_clean_linker_0, # of connection points: 2
#     Edge 62, Type (0, 0), BuildingBlock: AJUNOK_clean_linker_0, # of connection points: 2
#     Edge 63, Type (0, 0), BuildingBlock: AJUNOK_clean_linker_0, # of connection points: 2
#     Edge 64, Type (0, 0), BuildingBlock: AJUNOK_clean_linker_0, # of connection points: 2
#     Edge 65, Type (0, 0), BuildingBlock: AJUNOK_clean_linker_0, # of connection points: 2
#     Edge 66, Type (0, 0), BuildingBlock: AJUNOK_clean_linker_0, # of connection points: 2
#     Edge 67, Type (0, 0), BuildingBlock: AJUNOK_clean_linker_0, # of connection points: 2
#     Edge 68, Type (0, 0), BuildingBlock: AJUNOK_clean_linker_0, # of connection points: 2
#     Edge 69, Type (0, 0), BuildingBlock: AJUNOK_clean_linker_0, # of connection points: 2
#     Edge 70, Type (0, 0), BuildingBlock: AJUNOK_clean_linker_0, # of connection points: 2
#     Edge 71, Type (0, 0), BuildingBlock: AJUNOK_clean_linker_0, # of connection points: 2
#     Edge 72, Type (0, 0), BuildingBlock: AJUNOK_clean_linker_0, # of connection points: 2
#     Edge 73, Type (0, 0), BuildingBlock: AJUNOK_clean_linker_0, # of connection points: 2
#     Edge 74, Type (0, 0), BuildingBlock: AJUNOK_clean_linker_0, # of connection points: 2
#     Edge 75, Type (0, 0), BuildingBlock: AJUNOK_clean_linker_0, # of connection points: 2
#     Edge 76, Type (0, 0), BuildingBlock: AJUNOK_clean_linker_0, # of connection points: 2
#     Edge 77, Type (0, 0), BuildingBlock: AJUNOK_clean_linker_0, # of connection points: 2
#     Edge 78, Type (0, 0), BuildingBlock: AJUNOK_clean_linker_0, # of connection points: 2
#     Edge 79, Type (0, 0), BuildingBlock: AJUNOK_clean_linker_0, # of connection points: 2
#     Edge 80, Type (0, 0), BuildingBlock: AJUNOK_clean_linker_0, # of connection points: 2
#     Edge 81, Type (0, 0), BuildingBlock: AJUNOK_clean_linker_0, # of connection points: 2
#     Edge 82, Type (0, 0), BuildingBlock: AJUNOK_clean_linker_0, # of connection points: 2
#     Edge 83, Type (0, 0), BuildingBlock: AJUNOK_clean_linker_0, # of connection points: 2
#     Edge 84, Type (0, 0), BuildingBlock: AJUNOK_clean_linker_0, # of connection points: 2
#     Edge 85, Type (0, 0), BuildingBlock: AJUNOK_clean_linker_0, # of connection points: 2
#     Edge 86, Type (0, 0), BuildingBlock: AJUNOK_clean_linker_0, # of connection points: 2
#     Edge 87, Type (0, 0), BuildingBlock: AJUNOK_clean_linker_0, # of connection points: 2
#     Edge 88, Type (0, 0), BuildingBlock: AJUNOK_clean_linker_0, # of connection points: 2
#     Edge 89, Type (0, 0), BuildingBlock: AJUNOK_clean_linker_0, # of connection points: 2
#     Edge 90, Type (0, 0), BuildingBlock: AJUNOK_clean_linker_0, # of connection points: 2
#     Edge 91, Type (0, 0), BuildingBlock: AJUNOK_clean_linker_0, # of connection points: 2
#     Edge 92, Type (0, 0), BuildingBlock: AJUNOK_clean_linker_0, # of connection points: 2
#     Edge 93, Type (0, 0), BuildingBlock: AJUNOK_clean_linker_0, # of connection points: 2
#     Edge 94, Type (0, 0), BuildingBlock: AJUNOK_clean_linker_0, # of connection points: 2
#     Edge 95, Type (0, 0), BuildingBlock: AJUNOK_clean_linker_0, # of connection points: 2
# Relax obj value: 0.218
# Max RMSD: 0.127
# Mean RMSD: 0.126
data_MOF--net-umv--node1-UXUYUI_clean_sbu_0--edge1-AJUNOK_clean_linker_0
_symmetry_space_group_name_H-M    P1
_symmetry_Int_Tables_number       1
_symmetry_cell_setting            triclinic
loop_
_symmetry_equiv_pos_as_xyz
'x, y, z'
_cell_length_a     104.12226
_cell_length_b     28.996477
_cell_length_c     100.60496
_cell_angle_alpha  89.99564
_cell_angle_beta   90.003262
_cell_angle_gamma 89.992814
loop_
_atom_site_label
_atom_site_type_symbol
_atom_site_fract_x
_atom_site_fract_y
_atom_site_fract_z
_atom_type_partial_charge
Li0 Li 0.03225 0.14168 0.31091 0.0
Li1 Li 0.03673 0.16732 0.33347 0.0
Li2 Li 0.05357 0.12911 0.32149 0.0
Li3 Li 0.03591 0.08444 0.33039 0.0
C4 C 0.04757 0.23278 0.31822 0.0
N5 N 0.05224 0.3256 0.32217 0.0
C6 C 0.03794 0.26522 0.3157 0.0
C7 C 0.05964 0.24762 0.32257 0.0
C8 C 0.04048 0.31196 0.31781 0.0
C9 C 0.06179 0.29468 0.32455 0.0
C10 C 0.00984 0.14923 0.32972 0.0
C11 C 0.98973 0.1501 0.34163 0.0
N12 N 0.98582 0.18678 0.33424 0.0
C13 C 0.00561 0.18694 0.32224 0.0
C14 C 0.00182 0.13058 0.33948 0.0
C15 C 0.99345 0.20541 0.32467 0.0
C16 C 0.01172 0.15018 0.29131 0.0
N17 N 0.02408 0.16029 0.29461 0.0
C18 C 0.02573 0.21268 0.27631 0.0
C19 C 0.03117 0.19004 0.28717 0.0
C20 C 0.01279 0.20514 0.27308 0.0
C21 C 0.00585 0.17237 0.2805 0.0
H22 H 0.00623 0.12667 0.29743 0.0
H23 H 0.04099 0.19742 0.28996 0.0
C24 C 0.04553 0.23328 0.35112 0.0
N25 N 0.03437 0.21692 0.34591 0.0
C26 C 0.04555 0.27272 0.35903 0.0
C27 C 0.02244 0.27584 0.35707 0.0
C28 C 0.02289 0.23668 0.34901 0.0
C29 C 0.03391 0.29484 0.36186 0.0
H30 H 0.05451 0.21642 0.34876 0.0
H31 H 0.01408 0.223 0.3451 0.0
C32 C 0.05206 0.0641 0.30387 0.0
N33 N 0.07184 0.02925 0.28857 0.0
C34 C 0.05967 0.02812 0.3087 0.0
C35 C 0.05443 0.08213 0.29123 0.0
C36 C 0.06965 0.01105 0.30083 0.0
C37 C 0.06449 0.06408 0.28365 0.0
C38 C 0.04747 0.11531 0.35362 0.0
C39 C 0.05823 0.11213 0.36186 0.0
C40 C 0.03518 0.11311 0.35918 0.0
C41 C 0.05652 0.10639 0.37553 0.0
C42 C 0.03387 0.10732 0.37289 0.0
N43 N 0.04448 0.10409 0.38072 0.0
C44 C 0.07889 0.10409 0.32738 0.0
C45 C 0.07699 0.14935 0.30784 0.0
C46 C 0.09224 0.10421 0.32631 0.0
N47 N 0.07159 0.1271 0.31836 0.0
C48 C 0.09034 0.15004 0.30632 0.0
C49 C 0.09811 0.1281 0.31581 0.0
H50 H 0.07431 0.08616 0.33552 0.0
H51 H 0.07092 0.16735 0.30081 0.0
C52 C 0.02061 0.00967 0.34179 0.0
N53 N 0.03252 0.02676 0.33918 0.0
C54 C 0.01917 0.97087 0.35001 0.0
C55 C 0.04223 0.96769 0.3524 0.0
C56 C 0.04322 0.00627 0.34419 0.0
C57 C 0.03009 0.94951 0.35549 0.0
H58 H 0.01223 0.02676 0.33779 0.0
H59 H 0.05256 0.02114 0.34223 0.0
O60 O 0.04519 0.18674 0.31651 0.0
O61 O 0.02164 0.13002 0.32734 0.0
O62 O 0.04252 0.08233 0.3116 0.0
O63 O 0.04901 0.12087 0.34019 0.0
H64 H 0.0286 0.25447 0.31221 0.0
H65 H 0.06719 0.22302 0.32463 0.0
H66 H 0.03308 0.3374 0.31599 0.0
H67 H 0.07104 0.3066 0.32804 0.0
H68 H 0.98344 0.13606 0.34918 0.0
H69 H 0.0117 0.20225 0.31478 0.0
H70 H 0.00488 0.1014 0.34538 0.0
H71 H 0.99009 0.23468 0.31897 0.0
H72 H 0.03156 0.2365 0.27062 0.0
H73 H 0.99586 0.16537 0.2783 0.0
H74 H 0.05456 0.28615 0.36277 0.0
H75 H 0.01328 0.292 0.35917 0.0
H76 H 0.05798 0.01385 0.31847 0.0
H77 H 0.04864 0.11005 0.28736 0.0
H78 H 0.07567 0.98341 0.30447 0.0
H79 H 0.06648 0.07786 0.27387 0.0
H80 H 0.06782 0.11414 0.35774 0.0
H81 H 0.02676 0.1158 0.35298 0.0
H82 H 0.06478 0.10381 0.38202 0.0
H83 H 0.02441 0.10543 0.37731 0.0
H84 H 0.09794 0.08623 0.33368 0.0
H85 H 0.09457 0.16873 0.29808 0.0
H86 H 0.00963 0.95801 0.35218 0.0
H87 H 0.05089 0.95325 0.35668 0.0
Li88 Li 0.1985 0.13029 0.31872 0.0
Li89 Li 0.21628 0.17105 0.32993 0.0
Li90 Li 0.22007 0.11728 0.31034 0.0
Li91 Li 0.21494 0.08545 0.33217 0.0
C92 C 0.20257 0.20511 0.3037 0.0
N93 N 0.18612 0.26087 0.28934 0.0
C94 C 0.2008 0.25115 0.30738 0.0
C95 C 0.19609 0.18756 0.29264 0.0
C96 C 0.19241 0.27876 0.30001 0.0
C97 C 0.18777 0.21625 0.28553 0.0
C98 C 0.19754 0.1414 0.35028 0.0
C99 C 0.19825 0.13265 0.37415 0.0
N100 N 0.18726 0.15765 0.37522 0.0
C101 C 0.18613 0.1664 0.35165 0.0
C102 C 0.20355 0.12388 0.36165 0.0
C103 C 0.18113 0.17452 0.36432 0.0
C104 C 0.17409 0.09463 0.31177 0.0
N105 N 0.18049 0.13388 0.31508 0.0
C106 C 0.16078 0.17601 0.31611 0.0
C107 C 0.17414 0.17432 0.31702 0.0
C108 C 0.15389 0.13564 0.31322 0.0
C109 C 0.1607 0.09482 0.31069 0.0
H110 H 0.17933 0.06277 0.31047 0.0
H111 H 0.17941 0.20493 0.3198 0.0
C112 C 0.23164 0.24165 0.34337 0.0
N113 N 0.21969 0.22702 0.3398 0.0
C114 C 0.23309 0.27849 0.3523 0.0
C115 C 0.21002 0.28609 0.35308 0.0
C116 C 0.20902 0.24951 0.34412 0.0
C117 C 0.22215 0.30045 0.3575 0.0
H118 H 0.24003 0.22387 0.33967 0.0
H119 H 0.19967 0.23834 0.3408 0.0
C120 C 0.20853 0.03676 0.30565 0.0
N121 N 0.21289 0.97022 0.28652 0.0
C122 C 0.21657 0.99936 0.3084 0.0
C123 C 0.20257 0.04001 0.29324 0.0
C124 C 0.21868 0.96614 0.29858 0.0
C125 C 0.20493 0.00611 0.28368 0.0
C126 C 0.24013 0.12136 0.33622 0.0
C127 C 0.25239 0.10758 0.33216 0.0
C128 C 0.23802 0.13295 0.34951 0.0
C129 C 0.26227 0.10504 0.34153 0.0
C130 C 0.24814 0.13004 0.35858 0.0
N131 N 0.25996 0.11618 0.35444 0.0
C132 C 0.22606 0.11263 0.28234 0.0
C133 C 0.23899 0.06738 0.29665 0.0
C134 C 0.23143 0.09112 0.27117 0.0
N135 N 0.22974 0.09982 0.29478 0.0
C136 C 0.24463 0.04518 0.28579 0.0
C137 C 0.2407 0.05628 0.27283 0.0
H138 H 0.21849 0.13771 0.28108 0.0
H139 H 0.24143 0.05663 0.30662 0.0
C140 C 0.20572 0.01476 0.3481 0.0
N141 N 0.21681 0.03362 0.34351 0.0
C142 C 0.20605 0.97582 0.35623 0.0
C143 C 0.22923 0.97615 0.35465 0.0
C144 C 0.22844 0.01497 0.34648 0.0
C145 C 0.21793 0.95625 0.35964 0.0
H146 H 0.1966 0.03004 0.34541 0.0
H147 H 0.2371 0.02964 0.34238 0.0
O148 O 0.21068 0.17753 0.31085 0.0
O149 O 0.2025 0.13278 0.33789 0.0
O150 O 0.20668 0.07043 0.31498 0.0
O151 O 0.23029 0.12328 0.3272 0.0
H152 H 0.20584 0.26543 0.31582 0.0
H153 H 0.19729 0.15197 0.2897 0.0
H154 H 0.19091 0.31442 0.30277 0.0
H155 H 0.18261 0.20301 0.27702 0.0
H156 H 0.20286 0.11937 0.383 0.0
H157 H 0.18122 0.17989 0.34305 0.0
H158 H 0.21215 0.10322 0.36089 0.0
H159 H 0.17238 0.19419 0.36549 0.0
H160 H 0.15584 0.20823 0.31801 0.0
H161 H 0.15569 0.06297 0.3085 0.0
H162 H 0.24263 0.28852 0.35547 0.0
H163 H 0.20135 0.30266 0.35664 0.0
H164 H 0.2213 0.99638 0.31794 0.0
H165 H 0.19629 0.06865 0.29096 0.0
H166 H 0.22498 0.93724 0.30053 0.0
H167 H 0.20048 0.0084 0.27399 0.0
H168 H 0.25427 0.09896 0.32189 0.0
H169 H 0.22873 0.14492 0.35274 0.0
H170 H 0.27179 0.09426 0.33853 0.0
H171 H 0.24661 0.139 0.3689 0.0
H172 H 0.22789 0.10013 0.26139 0.0
H173 H 0.25174 0.0186 0.28755 0.0
H174 H 0.19714 0.96131 0.35989 0.0
H175 H 0.23854 0.96133 0.35685 0.0
Li176 Li 0.05251 0.12473 0.93408 0.0
Li177 Li 0.0351 0.16858 0.9231 0.0
Li178 Li 0.03071 0.11354 0.94244 0.0
Li179 Li 0.03554 0.08347 0.92033 0.0
C180 C 0.04875 0.20005 0.94963 0.0
N181 N 0.06494 0.25536 0.96445 0.0
C182 C 0.051 0.24567 0.9458 0.0
C183 C 0.05458 0.18278 0.96111 0.0
C184 C 0.05925 0.27304 0.9534 0.0
C185 C 0.06279 0.2112 0.96843 0.0
C186 C 0.05361 0.14315 0.90295 0.0
C187 C 0.05244 0.14854 0.87903 0.0
N188 N 0.06378 0.17178 0.87892 0.0
C189 C 0.06538 0.16632 0.90255 0.0
C190 C 0.0472 0.13352 0.89106 0.0
C191 C 0.07032 0.18081 0.89033 0.0
C192 C 0.0762 0.08249 0.93975 0.0
N193 N 0.07051 0.12428 0.93802 0.0
C194 C 0.09081 0.16233 0.93993 0.0
C195 C 0.07752 0.16386 0.93807 0.0
C196 C 0.09695 0.11961 0.9416 0.0
C197 C 0.08948 0.07934 0.94155 0.0
H198 H 0.07047 0.05144 0.9394 0.0
H199 H 0.07288 0.19655 0.93622 0.0
C200 C 0.01987 0.23922 0.9098 0.0
N201 N 0.03186 0.22522 0.91346 0.0
C202 C 0.01832 0.27589 0.90083 0.0
C203 C 0.04137 0.28444 0.90011 0.0
C204 C 0.04246 0.2483 0.9092 0.0
C205 C 0.02921 0.29787 0.89559 0.0
H206 H 0.01154 0.22097 0.91345 0.0
H207 H 0.05185 0.23775 0.9126 0.0
C208 C 0.04255 0.03264 0.94699 0.0
N209 N 0.03974 0.96709 0.96673 0.0
C210 C 0.03519 0.99311 0.9447 0.0
C211 C 0.04867 0.03838 0.95925 0.0
C212 C 0.03385 0.96046 0.95481 0.0
C213 C 0.04707 0.00501 0.96913 0.0
C214 C 0.01046 0.11737 0.91719 0.0
C215 C 0.99878 0.10026 0.92195 0.0
C216 C 0.01163 0.12894 0.90377 0.0
C217 C 0.98855 0.09418 0.91314 0.0
C218 C 0.00118 0.12244 0.89527 0.0
N219 N 0.98996 0.10525 0.90008 0.0
C220 C 0.02384 0.11138 0.97026 0.0
C221 C 0.01259 0.0602 0.95608 0.0
C222 C 0.01856 0.08992 0.98148 0.0
N223 N 0.02099 0.0956 0.95787 0.0
C224 C 0.00709 0.03789 0.96699 0.0
C225 C 0.01033 0.05183 0.97991 0.0
H226 H 0.03064 0.13921 0.97147 0.0
H227 H 0.01083 0.04721 0.94618 0.0
C228 C 0.04267 0.01947 0.90088 0.0
N229 N 0.03277 0.03289 0.90878 0.0
C230 C 0.04154 0.98025 0.89296 0.0
C231 C 0.02008 0.96897 0.90157 0.0
C232 C 0.02159 0.00869 0.90925 0.0
C233 C 0.03019 0.95421 0.8934 0.0
H234 H 0.05157 0.03871 0.90098 0.0
H235 H 0.014 0.01938 0.91589 0.0
O236 O 0.04075 0.17272 0.94226 0.0
O237 O 0.04859 0.12911 0.91488 0.0
O238 O 0.04361 0.06578 0.93736 0.0
O239 O 0.02066 0.1229 0.92565 0.0
H240 H 0.04642 0.25985 0.93707 0.0
H241 H 0.05291 0.14771 0.96426 0.0
H242 H 0.06112 0.30834 0.95051 0.0
H243 H 0.06745 0.19814 0.97728 0.0
H244 H 0.04752 0.14151 0.86978 0.0
H245 H 0.07058 0.17369 0.91159 0.0
H246 H 0.03836 0.1141 0.89104 0.0
H247 H 0.07934 0.19926 0.88992 0.0
H248 H 0.09628 0.19408 0.93956 0.0
H249 H 0.09389 0.04575 0.94274 0.0
H250 H 0.00878 0.28567 0.89761 0.0
H251 H 0.04997 0.30117 0.89642 0.0
H252 H 0.03042 0.98799 0.93527 0.0
H253 H 0.05453 0.06841 0.96114 0.0
H254 H 0.02808 0.92994 0.95321 0.0
H255 H 0.05164 0.00927 0.9787 0.0
H256 H 0.99758 0.0919 0.93235 0.0
H257 H 0.02043 0.14346 0.90001 0.0
H258 H 0.97948 0.08078 0.91668 0.0
H259 H 0.00198 0.13126 0.88485 0.0
H260 H 0.02114 0.10225 0.99129 0.0
H261 H 0.00089 0.00846 0.96533 0.0
H262 H 0.04958 0.96956 0.88686 0.0
H263 H 0.01117 0.94977 0.90209 0.0
Li264 Li 0.21323 0.1713 0.91974 0.0
Li265 Li 0.21878 0.13991 0.94141 0.0
Li266 Li 0.21556 0.08786 0.92256 0.0
Li267 Li 0.19707 0.12434 0.93341 0.0
C268 C 0.24075 0.11747 0.92633 0.0
N269 N 0.26457 0.07756 0.93 0.0
C270 C 0.24227 0.08145 0.93543 0.0
C271 C 0.25133 0.1332 0.9191 0.0
C272 C 0.2544 0.06174 0.93714 0.0
C273 C 0.2633 0.11256 0.92109 0.0
C274 C 0.20626 0.21868 0.94659 0.0
C275 C 0.20083 0.25011 0.96807 0.0
N276 N 0.20946 0.28467 0.96614 0.0
C277 C 0.21494 0.25488 0.94475 0.0
C278 C 0.19903 0.21655 0.95828 0.0
C279 C 0.21646 0.28778 0.95477 0.0
C280 C 0.20495 0.2351 0.90058 0.0
N281 N 0.21505 0.2223 0.9083 0.0
C282 C 0.22737 0.28676 0.90088 0.0
C283 C 0.22619 0.24669 0.90847 0.0
C284 C 0.21701 0.30133 0.89301 0.0
C285 C 0.20577 0.27466 0.89272 0.0
H286 H 0.19621 0.21496 0.90071 0.0
H287 H 0.23404 0.23552 0.91474 0.0
C288 C 0.2248 0.14842 0.96943 0.0
N289 N 0.22859 0.15876 0.95684 0.0
C290 C 0.23046 0.17058 0.98033 0.0
C291 C 0.24408 0.21264 0.96518 0.0
C292 C 0.23823 0.18945 0.95459 0.0
C293 C 0.24008 0.20389 0.97828 0.0
H294 H 0.21701 0.12459 0.97105 0.0
H295 H 0.24085 0.19815 0.94449 0.0
C296 C 0.19909 0.09862 0.90261 0.0
N297 N 0.1958 0.0478 0.87965 0.0
C298 C 0.18987 0.06368 0.90213 0.0
C299 C 0.20656 0.10807 0.8914 0.0
C300 C 0.18837 0.03829 0.89043 0.0
C301 C 0.20477 0.08189 0.87989 0.0
C302 C 0.20486 0.05374 0.95135 0.0
C303 C 0.20756 0.00658 0.95199 0.0
C304 C 0.19709 0.07388 0.96106 0.0
C305 C 0.20239 0.98032 0.96234 0.0
C306 C 0.1921 0.04651 0.97126 0.0
N307 N 0.19483 1.00066 0.97167 0.0
C308 C 0.22918 0.03552 0.90295 0.0
C309 C 0.21275 0.99472 0.91421 0.0
C310 C 0.23096 0.99862 0.89416 0.0
N311 N 0.22009 0.03314 0.91265 0.0
C312 C 0.21425 0.95698 0.90568 0.0
C313 C 0.22336 0.9588 0.89538 0.0
H314 H 0.23465 0.06689 0.90164 0.0
H315 H 0.20525 0.99431 0.92164 0.0
C316 C 0.17257 0.15954 0.93834 0.0
N317 N 0.17926 0.11945 0.93736 0.0
C318 C 0.1593 0.15883 0.9403 0.0
C319 C 0.16004 0.07551 0.94032 0.0
C320 C 0.17332 0.07782 0.93832 0.0
C321 C 0.15285 0.11643 0.94128 0.0
H322 H 0.17751 0.19212 0.93727 0.0
H323 H 0.17886 0.04646 0.93731 0.0
O324 O 0.22898 0.13731 0.92438 0.0
O325 O 0.20494 0.18533 0.93705 0.0
O326 O 0.20103 0.12275 0.91411 0.0
O327 O 0.20951 0.07955 0.94104 0.0
H328 H 0.2342 0.06881 0.94113 0.0
H329 H 0.25029 0.16102 0.912 0.0
H330 H 0.25572 0.03385 0.94415 0.0
H331 H 0.27158 0.12435 0.91555 0.0
H332 H 0.19537 0.24866 0.97721 0.0
H333 H 0.22062 0.25709 0.93578 0.0
H334 H 0.19211 0.18931 0.95981 0.0
H335 H 0.22326 0.31564 0.95353 0.0
H336 H 0.23624 0.30625 0.90119 0.0
H337 H 0.1976 0.28499 0.88675 0.0
H338 H 0.22711 0.16256 0.99025 0.0
H339 H 0.2512 0.23882 0.96304 0.0
H340 H 0.18405 0.05588 0.91075 0.0
H341 H 0.2138 0.13487 0.89166 0.0
H342 H 0.18133 0.01089 0.88993 0.0
H343 H 0.21056 0.08852 0.87116 0.0
H344 H 0.21361 0.99042 0.94459 0.0
H345 H 0.19484 0.1102 0.96068 0.0
H346 H 0.20439 0.94377 0.96294 0.0
H347 H 0.18604 0.06169 0.97881 0.0
H348 H 0.23804 0.00153 0.88631 0.0
H349 H 0.20794 0.92753 0.90676 0.0
H350 H 0.1541 0.19116 0.9406 0.0
H351 H 0.15542 0.04212 0.94097 0.0
Li352 Li 0.96659 0.92112 0.67221 0.0
Li353 Li 0.97108 0.86646 0.691 0.0
Li354 Li 0.96513 0.83828 0.66966 0.0
Li355 Li 0.94933 0.87648 0.68273 0.0
C356 C 0.98905 0.85703 0.66503 0.0
N357 N 0.00521 0.81793 0.64639 0.0
C358 C 0.99821 0.82449 0.66892 0.0
C359 C 0.98816 0.86991 0.65167 0.0
C360 C 0.00627 0.80505 0.65934 0.0
C361 C 0.99641 0.84971 0.64239 0.0
C362 C 0.96648 0.95915 0.69787 0.0
C363 C 0.96662 0.01959 0.71433 0.0
N364 N 0.97914 0.02841 0.71143 0.0
C365 C 0.97935 0.9688 0.69504 0.0
C366 C 0.96005 0.98472 0.70757 0.0
C367 C 0.98558 0.00397 0.70201 0.0
C368 C 0.95932 0.00434 0.6604 0.0
N369 N 0.96982 0.97798 0.663 0.0
C370 C 0.98296 0.02758 0.64965 0.0
C371 C 0.98157 0.9893 0.65805 0.0
C372 C 0.97216 0.05448 0.64642 0.0
C373 C 0.96029 0.04301 0.65216 0.0
H374 H 0.95008 0.99433 0.66438 0.0
H375 H 0.98979 0.96784 0.66027 0.0
C376 C 0.98558 0.80427 0.70525 0.0
N377 N 0.98077 0.84771 0.70635 0.0
C378 C 0.99101 0.78218 0.71622 0.0
C379 C 0.98669 0.85016 0.72934 0.0
C380 C 0.9813 0.87104 0.71807 0.0
C381 C 0.9914 0.80473 0.72855 0.0
H382 H 0.9846 0.78584 0.69596 0.0
H383 H 0.97711 0.90502 0.71886 0.0
C384 C 0.94265 0.87041 0.65628 0.0
N385 N 0.92154 0.84123 0.64192 0.0
C386 C 0.93807 0.82537 0.65773 0.0
C387 C 0.93649 0.9006 0.64753 0.0
C388 C 0.92738 0.81128 0.65039 0.0
C389 C 0.92584 0.88518 0.64035 0.0
C390 C 0.95376 0.80038 0.69854 0.0
C391 C 0.95267 0.75266 0.70013 0.0
C392 C 0.9504 0.82962 0.70904 0.0
C393 C 0.94825 0.73494 0.7122 0.0
C394 C 0.94603 0.81055 0.72096 0.0
N395 N 0.94505 0.764 0.72229 0.0
C396 C 0.97064 0.74672 0.66373 0.0
C397 C 0.96609 0.79184 0.64461 0.0
C398 C 0.97144 0.7069 0.65602 0.0
N399 N 0.96777 0.78782 0.65797 0.0
C400 C 0.96693 0.7529 0.6365 0.0
C401 C 0.96934 0.70972 0.64227 0.0
H402 H 0.97201 0.74479 0.67436 0.0
H403 H 0.96379 0.82504 0.64033 0.0
C404 C 0.925 0.91817 0.68739 0.0
N405 N 0.93134 0.87727 0.68658 0.0
C406 C 0.9116 0.91894 0.68856 0.0
C407 C 0.91162 0.8356 0.68838 0.0
C408 C 0.92495 0.83642 0.68721 0.0
C409 C 0.90475 0.8772 0.68876 0.0
H410 H 0.93031 0.95015 0.68669 0.0
H411 H 0.93014 0.80432 0.68633 0.0
O412 O 0.98088 0.87578 0.6742 0.0
O413 O 0.96012 0.92483 0.69126 0.0
O414 O 0.95294 0.88537 0.66355 0.0
O415 O 0.95836 0.81798 0.68684 0.0
H416 H 0.9991 0.81437 0.67922 0.0
H417 H 0.98101 0.89456 0.64845 0.0
H418 H 0.01338 0.77972 0.66221 0.0
H419 H 0.99576 0.85909 0.63201 0.0
H420 H 0.96176 0.03963 0.72188 0.0
H421 H 0.98452 0.94945 0.68759 0.0
H422 H 0.95009 0.97759 0.70988 0.0
H423 H 0.99553 0.01181 0.69993 0.0
H424 H 0.99232 0.03569 0.6456 0.0
H425 H 0.95173 0.06274 0.6499 0.0
H426 H 0.99438 0.74702 0.71518 0.0
H427 H 0.98695 0.86902 0.73863 0.0
H428 H 0.94263 0.80164 0.66455 0.0
H429 H 0.9399 0.93562 0.64632 0.0
H430 H 0.92371 0.77658 0.65146 0.0
H431 H 0.92098 0.90819 0.63354 0.0
H432 H 0.95524 0.72953 0.69212 0.0
H433 H 0.95119 0.8666 0.70806 0.0
H434 H 0.94737 0.69807 0.71356 0.0
H435 H 0.94344 0.83276 0.72917 0.0
H436 H 0.97348 0.67414 0.66075 0.0
H437 H 0.96524 0.75615 0.62591 0.0
H438 H 0.90662 0.95172 0.68879 0.0
H439 H 0.9067 0.80271 0.68872 0.0
Li440 Li 0.80438 0.88021 0.68386 0.0
Li441 Li 0.78778 0.92163 0.66987 0.0
Li442 Li 0.78221 0.89033 0.69148 0.0
Li443 Li 0.78557 0.83812 0.6728 0.0
C444 C 0.79399 0.97123 0.69664 0.0
N445 N 0.79037 0.03628 0.71633 0.0
C446 C 0.78578 0.00861 0.69448 0.0
C447 C 0.80047 0.96713 0.70874 0.0
C448 C 0.78405 0.04109 0.70458 0.0
C449 C 0.79848 1.00033 0.7186 0.0
C450 C 0.80408 0.88154 0.6521 0.0
C451 C 0.80002 0.885 0.62854 0.0
N452 N 0.81211 0.90145 0.62659 0.0
C453 C 0.81649 0.89816 0.64988 0.0
C454 C 0.79579 0.87462 0.64137 0.0
C455 C 0.82036 0.90814 0.6369 0.0
C456 C 0.82834 0.83688 0.68798 0.0
N457 N 0.8222 0.87818 0.68748 0.0
C458 C 0.84212 0.91863 0.6893 0.0
C459 C 0.82874 0.91866 0.68827 0.0
C460 C 0.84879 0.87654 0.68937 0.0
C461 C 0.84172 0.83524 0.68898 0.0
H462 H 0.82287 0.80528 0.68723 0.0
H463 H 0.82359 0.95098 0.68766 0.0
C464 C 0.7739 0.98645 0.65455 0.0
N465 N 0.78582 0.97235 0.65829 0.0
C466 C 0.77245 0.02544 0.64655 0.0
C467 C 0.79555 0.03452 0.64647 0.0
C468 C 0.79654 0.99565 0.65455 0.0
C469 C 0.78338 0.04995 0.64247 0.0
H470 H 0.76553 0.96786 0.65795 0.0
H471 H 0.80585 0.9844 0.65802 0.0
C472 C 0.78799 0.80345 0.70094 0.0
N473 N 0.77838 0.74595 0.72043 0.0
C474 C 0.77598 0.78274 0.69933 0.0
C475 C 0.79519 0.79457 0.71237 0.0
C476 C 0.77126 0.75387 0.70932 0.0
C477 C 0.79014 0.76549 0.72214 0.0
C478 C 0.76073 0.87061 0.67042 0.0
C479 C 0.75174 0.85364 0.67949 0.0
C480 C 0.75786 0.87077 0.65684 0.0
C481 C 0.74003 0.8366 0.67481 0.0
C482 C 0.74605 0.85339 0.65256 0.0
N483 N 0.73746 0.83679 0.66155 0.0
C484 C 0.76266 0.9383 0.70461 0.0
C485 C 0.77658 0.89975 0.71956 0.0
C486 C 0.7568 0.96185 0.7151 0.0
N487 N 0.77251 0.90857 0.70696 0.0
C488 C 0.77085 0.92214 0.73039 0.0
C489 C 0.76107 0.95458 0.72815 0.0
H490 H 0.75983 0.94569 0.69448 0.0
H491 H 0.78474 0.87752 0.7212 0.0
C492 C 0.79315 0.76497 0.65692 0.0
N493 N 0.7824 0.78206 0.66281 0.0
C494 C 0.79243 0.72739 0.64827 0.0
C495 C 0.76958 0.72404 0.65215 0.0
C496 C 0.77075 0.76176 0.66081 0.0
C497 C 0.78051 0.70682 0.6456 0.0
H498 H 0.80233 0.78124 0.65873 0.0
H499 H 0.76233 0.77493 0.66577 0.0
O500 O 0.79555 0.93847 0.68701 0.0
O501 O 0.80007 0.87209 0.66475 0.0
O502 O 0.79274 0.83199 0.69132 0.0
O503 O 0.7722 0.88778 0.67482 0.0
H504 H 0.78067 0.01216 0.68516 0.0
H505 H 0.80683 0.93827 0.71056 0.0
H506 H 0.77765 0.07002 0.70309 0.0
H507 H 0.80334 0.99742 0.72806 0.0
H508 H 0.7937 0.87998 0.62013 0.0
H509 H 0.82303 0.90358 0.6581 0.0
H510 H 0.7862 0.86142 0.64294 0.0
H511 H 0.82992 0.92125 0.63502 0.0
H512 H 0.84724 0.95115 0.6895 0.0
H513 H 0.84651 0.8021 0.68922 0.0
H514 H 0.76292 0.03629 0.64358 0.0
H515 H 0.80416 0.05293 0.6436 0.0
H516 H 0.77037 0.7889 0.69046 0.0
H517 H 0.80454 0.81026 0.71372 0.0
H518 H 0.76196 0.73773 0.70823 0.0
H519 H 0.79557 0.75848 0.73108 0.0
H520 H 0.75378 0.85352 0.69004 0.0
H521 H 0.76468 0.88407 0.6497 0.0
H522 H 0.733 0.8232 0.68171 0.0
H523 H 0.74371 0.85311 0.64208 0.0
H524 H 0.7492 0.98633 0.713 0.0
H525 H 0.77444 0.91587 0.74033 0.0
H526 H 0.8011 0.71527 0.64346 0.0
H527 H 0.76024 0.70852 0.65061 0.0
Li528 Li 0.94832 0.87353 0.0709 0.0
Li529 Li 0.96559 0.91392 0.08454 0.0
Li530 Li 0.97045 0.88426 0.06263 0.0
Li531 Li 0.96611 0.83175 0.08123 0.0
C532 C 0.95682 0.96017 0.05677 0.0
N533 N 0.9561 0.01595 0.03453 0.0
C534 C 0.96294 0.00305 0.0569 0.0
C535 C 0.95024 0.94579 0.0454 0.0
C536 C 0.96249 0.03072 0.04554 0.0
C537 C 0.95001 0.97447 0.03424 0.0
C538 C 0.94807 0.84063 0.10011 0.0
C539 C 0.94973 0.81052 0.1224 0.0
N540 N 0.93965 0.78197 0.11994 0.0
C541 C 0.93763 0.81135 0.09785 0.0
C542 C 0.95408 0.84062 0.11253 0.0
C543 C 0.93354 0.78186 0.10799 0.0
C544 C 0.92397 0.83705 0.0629 0.0
N545 N 0.93049 0.87516 0.06697 0.0
C546 C 0.91106 0.91888 0.0679 0.0
C547 C 0.92437 0.91575 0.06928 0.0
C548 C 0.90396 0.87964 0.0643 0.0
C549 C 0.9106 0.83855 0.06149 0.0
H550 H 0.9291 0.80515 0.0612 0.0
H551 H 0.92983 0.94549 0.07248 0.0
C552 C 0.97764 0.99574 0.09343 0.0
N553 N 0.9681 0.96489 0.0959 0.0
C554 C 0.97861 0.0359 0.10103 0.0
C555 C 0.95998 0.0114 0.11354 0.0
C556 C 0.95942 0.97164 0.10579 0.0
C557 C 0.96952 0.0444 0.11102 0.0
H558 H 0.98428 0.98968 0.08535 0.0
H559 H 0.95185 0.94673 0.10739 0.0
C560 C 0.96567 0.79124 0.056 0.0
N561 N 0.97808 0.71926 0.04341 0.0
C562 C 0.97908 0.78895 0.05603 0.0
C563 C 0.95857 0.75689 0.04961 0.0
C564 C 0.98518 0.75231 0.04959 0.0
C565 C 0.96503 0.72078 0.04329 0.0
C566 C 0.99101 0.88905 0.08642 0.0
C567 C 0.00262 0.89924 0.0801 0.0
C568 C 0.99018 0.89221 0.10025 0.0
C569 C 0.01314 0.91333 0.08771 0.0
C570 C 0.00089 0.90646 0.10752 0.0
N571 N 0.01206 0.91669 0.10115 0.0
C572 C 0.98812 0.93888 0.04898 0.0
C573 C 0.97707 0.88756 0.03467 0.0
C574 C 0.99385 0.96085 0.03815 0.0
N575 N 0.97987 0.90311 0.04709 0.0
C576 C 0.98255 0.9088 0.0235 0.0
C577 C 0.991 0.94621 0.02518 0.0
H578 H 0.9897 0.95207 0.05889 0.0
H579 H 0.97015 0.86008 0.03339 0.0
C580 C 0.96061 0.74044 0.08922 0.0
N581 N 0.96956 0.77438 0.09027 0.0
C582 C 0.9611 0.70188 0.09756 0.0
C583 C 0.98056 0.73207 0.10727 0.0
C584 C 0.97958 0.77041 0.09887 0.0
C585 C 0.97109 0.6975 0.10689 0.0
H586 H 0.95265 0.7446 0.08241 0.0
H587 H 0.98659 0.79769 0.09957 0.0
O588 O 0.95756 0.93182 0.0676 0.0
O589 O 0.9524 0.86895 0.09018 0.0
O590 O 0.95942 0.82649 0.06232 0.0
O591 O 0.98059 0.87554 0.07907 0.0
H592 H 0.96811 0.01456 0.06561 0.0
H593 H 0.94554 0.91251 0.04512 0.0
H594 H 0.96726 0.06385 0.04545 0.0
H595 H 0.94504 0.96366 0.02533 0.0
H596 H 0.95437 0.8099 0.13202 0.0
H597 H 0.93286 0.81084 0.08832 0.0
H598 H 0.96203 0.8635 0.11455 0.0
H599 H 0.92555 0.75871 0.10633 0.0
H600 H 0.90636 0.95151 0.06984 0.0
H601 H 0.90547 0.80753 0.0587 0.0
H602 H 0.98607 0.0608 0.09881 0.0
H603 H 0.95289 0.01674 0.12128 0.0
H604 H 0.98476 0.81512 0.06091 0.0
H605 H 0.94818 0.7581 0.04955 0.0
H606 H 0.99555 0.75013 0.04951 0.0
H607 H 0.95966 0.69394 0.0383 0.0
H608 H 0.00356 0.89584 0.06944 0.0
H609 H 0.98132 0.88409 0.1053 0.0
H610 H 0.02217 0.92143 0.08294 0.0
H611 H 1.00034 0.90939 0.11822 0.0
H612 H 0.99999 0.99038 0.03989 0.0
H613 H 0.98003 0.89671 0.01366 0.0
H614 H 0.95338 0.67695 0.0971 0.0
H615 H 0.98849 0.73003 0.11421 0.0
Li616 Li 0.78137 0.86616 0.06048 0.0
Li617 Li 0.78473 0.91824 0.07918 0.0
Li618 Li 0.80353 0.87645 0.06791 0.0
Li619 Li 0.78702 0.83445 0.08202 0.0
C620 C 0.78674 0.95204 0.05087 0.0
N621 N 0.7765 0.00681 0.03109 0.0
C622 C 0.77475 0.97273 0.05263 0.0
C623 C 0.79361 0.95956 0.03914 0.0
C624 C 0.76971 1.00021 0.04248 0.0
C625 C 0.78824 0.98726 0.02923 0.0
C626 C 0.76008 0.88492 0.08217 0.0
C627 C 0.74602 0.89975 0.10073 0.0
N628 N 0.7371 0.91728 0.09224 0.0
C629 C 0.75076 0.9029 0.07362 0.0
C630 C 0.75769 0.8831 0.09583 0.0
C631 C 0.73921 0.91914 0.07891 0.0
C632 C 0.76093 0.82264 0.04717 0.0
N633 N 0.77159 0.84861 0.04495 0.0
C634 C 0.77066 0.8314 0.02168 0.0
C635 C 0.77642 0.85382 0.03247 0.0
C636 C 0.75987 0.80316 0.02374 0.0
C637 C 0.7549 0.79956 0.03668 0.0
H638 H 0.75757 0.81742 0.05723 0.0
H639 H 0.78521 0.87288 0.03098 0.0
C640 C 0.79259 0.99201 0.09461 0.0
N641 N 0.78167 0.97431 0.08921 0.0
C642 C 0.7921 0.0301 0.10309 0.0
C643 C 0.7691 0.03241 0.10016 0.0
C644 C 0.77005 0.99417 0.09166 0.0
C645 C 0.78024 0.0508 0.10602 0.0
H646 H 0.80174 0.97589 0.09253 0.0
H647 H 0.76148 0.98034 0.08716 0.0
C648 C 0.79251 0.78438 0.05547 0.0
N649 N 0.78739 0.71836 0.03641 0.0
C650 C 0.78346 0.74984 0.05798 0.0
C651 C 0.79905 0.78509 0.04335 0.0
C652 C 0.78098 0.71683 0.04819 0.0
C653 C 0.7963 0.75145 0.03382 0.0
C654 C 0.80364 0.87602 0.09963 0.0
C655 C 0.8162 0.86054 0.10164 0.0
C656 C 0.79559 0.88337 0.11053 0.0
C657 C 0.82046 0.85212 0.11458 0.0
C658 C 0.80021 0.87456 0.12332 0.0
N659 N 0.81245 0.85921 0.12506 0.0
C660 C 0.82752 0.92053 0.06601 0.0
C661 C 0.82795 0.8402 0.0616 0.0
C662 C 0.84091 0.92276 0.06521 0.0
N663 N 0.82139 0.87958 0.06436 0.0
C664 C 0.84134 0.8409 0.06064 0.0
C665 C 0.84798 0.88239 0.06276 0.0
H666 H 0.82204 0.95115 0.06836 0.0
H667 H 0.82283 0.80795 0.0606 0.0
C668 C 0.77325 0.76851 0.09705 0.0
N669 N 0.78516 0.78377 0.09369 0.0
C670 C 0.77185 0.72958 0.10509 0.0
C671 C 0.79499 0.72287 0.10599 0.0
C672 C 0.79594 0.76167 0.09786 0.0
C673 C 0.78283 0.70626 0.1096 0.0
H674 H 0.76485 0.7861 0.0933 0.0
H675 H 0.80527 0.77375 0.09469 0.0
O676 O 0.79179 0.92479 0.06064 0.0
O677 O 0.77139 0.86844 0.07717 0.0
O678 O 0.79476 0.81783 0.06476 0.0
O679 O 0.79927 0.8841 0.08703 0.0
H680 H 0.7694 0.9676 0.06172 0.0
H681 H 0.80294 0.94386 0.03769 0.0
H682 H 0.76041 0.01631 0.04367 0.0
H683 H 0.7934 0.9932 0.02006 0.0
H684 H 0.74405 0.8987 0.11129 0.0
H685 H 0.75244 0.90443 0.06301 0.0
H686 H 0.76476 0.86904 0.10258 0.0
H687 H 0.73192 0.93328 0.07241 0.0
H688 H 0.77486 0.83495 0.01188 0.0
H689 H 0.74683 0.7772 0.03882 0.0
H690 H 0.8009 0.04259 0.10755 0.0
H691 H 0.75978 0.04754 0.10211 0.0
H692 H 0.77828 0.74895 0.0673 0.0
H693 H 0.80602 0.81181 0.04124 0.0
H694 H 0.77393 0.69013 0.04994 0.0
H695 H 0.80119 0.75181 0.02434 0.0
H696 H 0.82255 0.85482 0.09328 0.0
H697 H 0.78589 0.89577 0.10913 0.0
H698 H 0.83014 0.83992 0.11629 0.0
H699 H 0.79408 0.87996 0.13186 0.0
H700 H 0.8457 0.95548 0.06676 0.0
H701 H 0.84648 0.80904 0.05883 0.0
H702 H 0.76232 0.71786 0.10775 0.0
H703 H 0.80366 0.70541 0.10919 0.0
Li704 Li 0.03142 0.63632 0.81149 0.0
Li705 Li 0.03596 0.65985 0.8343 0.0
Li706 Li 0.05327 0.62133 0.82066 0.0
Li707 Li 0.03522 0.57748 0.83024 0.0
C708 C 0.04791 0.71376 0.80879 0.0
N709 N 0.05493 0.78017 0.79045 0.0
C710 C 0.0435 0.75908 0.81011 0.0
C711 C 0.05611 0.70253 0.79828 0.0
C712 C 0.04708 0.79206 0.8007 0.0
C713 C 0.0595 0.73649 0.78908 0.0
C714 C 0.01099 0.64165 0.83497 0.0
C715 C 0.00049 0.65617 0.85593 0.0
N716 N 0.99126 0.68072 0.84949 0.0
C717 C 0.00132 0.66654 0.82854 0.0
C718 C 0.0105 0.63596 0.84875 0.0
C719 C 0.99145 0.68619 0.83606 0.0
C720 C 0.02089 0.63586 0.78446 0.0
N721 N 0.02219 0.65883 0.79619 0.0
C722 C 0.01204 0.72567 0.78694 0.0
C723 C 0.01769 0.70259 0.79761 0.0
C724 C 0.0109 0.70349 0.7746 0.0
C725 C 0.01533 0.65782 0.77345 0.0
H726 H 0.02437 0.60088 0.78356 0.0
H727 H 0.01873 0.72001 0.80704 0.0
C728 C 0.03914 0.71071 0.85813 0.0
N729 N 0.03281 0.70884 0.84633 0.0
C730 C 0.03765 0.74886 0.86645 0.0
C731 C 0.02309 0.78211 0.85035 0.0
C732 C 0.0248 0.74324 0.84239 0.0
C733 C 0.02965 0.78534 0.86248 0.0
H734 H 0.04563 0.68325 0.86089 0.0
H735 H 0.01999 0.74096 0.83289 0.0
C736 C 0.04734 0.55354 0.80107 0.0
N737 N 0.0591 0.50639 0.78052 0.0
C738 C 0.05032 0.50677 0.80246 0.0
C739 C 0.05018 0.5761 0.78915 0.0
C740 C 0.05631 0.48359 0.79198 0.0
C741 C 0.05617 0.55175 0.7789 0.0
C742 C 0.05341 0.58593 0.84963 0.0
C743 C 0.06499 0.56221 0.84793 0.0
C744 C 0.04658 0.58106 0.86151 0.0
C745 C 0.06943 0.53342 0.85807 0.0
C746 C 0.05133 0.55184 0.8714 0.0
N747 N 0.06255 0.5288 0.86949 0.0
C748 C 0.07751 0.65884 0.82337 0.0
C749 C 0.078 0.59032 0.81053 0.0
C750 C 0.09083 0.66309 0.82248 0.0
N751 N 0.07138 0.62284 0.81748 0.0
C752 C 0.09134 0.59349 0.80928 0.0
C753 C 0.0979 0.63012 0.81538 0.0
H754 H 0.07201 0.68395 0.82893 0.0
H755 H 0.07304 0.5614 0.80619 0.0
C756 C 0.02008 0.51211 0.8452 0.0
N757 N 0.03141 0.51928 0.83877 0.0
C758 C 0.0185 0.47358 0.85347 0.0
C759 C 0.04011 0.45001 0.84809 0.0
C760 C 0.04121 0.4885 0.83982 0.0
C761 C 0.02868 0.44222 0.85519 0.0
H762 H 0.01243 0.53708 0.8443 0.0
H763 H 0.05021 0.49526 0.83484 0.0
O764 O 0.04443 0.68093 0.81791 0.0
O765 O 0.02085 0.62281 0.82779 0.0
O766 O 0.04151 0.57676 0.81127 0.0
O767 O 0.04879 0.61367 0.8397 0.0
H768 H 0.03731 0.76871 0.81827 0.0
H769 H 0.05995 0.66815 0.79729 0.0
H770 H 0.04364 0.82714 0.80155 0.0
H771 H 0.0658 0.72815 0.78088 0.0
H772 H 1.00006 0.65237 0.86661 0.0
H773 H 0.00139 0.67056 0.81786 0.0
H774 H 0.01784 0.61653 0.85386 0.0
H775 H 0.98394 0.70575 0.83122 0.0
H776 H 0.00893 0.76103 0.78823 0.0
H777 H 0.01455 0.63942 0.76412 0.0
H778 H 0.04306 0.75063 0.87563 0.0
H779 H 0.01687 0.80969 0.84697 0.0
H780 H 0.04801 0.48848 0.8115 0.0
H781 H 0.04772 0.61194 0.78777 0.0
H782 H 0.05872 0.44746 0.79294 0.0
H783 H 0.05846 0.56888 0.76965 0.0
H784 H 0.07041 0.56546 0.83882 0.0
H785 H 0.03768 0.59939 0.86307 0.0
H786 H 0.07832 0.5146 0.85684 0.0
H787 H 0.04608 0.54747 0.88059 0.0
H788 H 0.09558 0.69174 0.82735 0.0
H789 H 0.09652 0.5669 0.80395 0.0
H790 H 0.0095 0.46895 0.85869 0.0
H791 H 0.04839 0.42786 0.84937 0.0
Li792 Li 0.19846 0.63949 0.82001 0.0
Li793 Li 0.21705 0.67923 0.82978 0.0
Li794 Li 0.22018 0.62055 0.811 0.0
Li795 Li 0.21498 0.597 0.83372 0.0
C796 C 0.20552 0.70237 0.79977 0.0
N797 N 0.19462 0.74335 0.77767 0.0
C798 C 0.20297 0.74971 0.7997 0.0
C799 C 0.20266 0.67604 0.78852 0.0
C800 C 0.19742 0.76975 0.78845 0.0
C801 C 0.19712 0.69732 0.77747 0.0
C802 C 0.19897 0.67597 0.84874 0.0
C803 C 0.20156 0.71021 0.87043 0.0
N804 N 0.19148 0.73873 0.8679 0.0
C805 C 0.18858 0.7054 0.8464 0.0
C806 C 0.20546 0.6781 0.86089 0.0
C807 C 0.18495 0.73692 0.85621 0.0
C808 C 0.17383 0.60854 0.82391 0.0
N809 N 0.18035 0.64126 0.81698 0.0
C810 C 0.16069 0.67097 0.80812 0.0
C811 C 0.17408 0.67235 0.80918 0.0
C812 C 0.15374 0.6377 0.81528 0.0
C813 C 0.16047 0.60622 0.82325 0.0
H814 H 0.17907 0.58448 0.83009 0.0
H815 H 0.17937 0.69863 0.80394 0.0
C816 C 0.2318 0.73786 0.847 0.0
N817 N 0.22158 0.73642 0.83858 0.0
C818 C 0.23337 0.77501 0.85575 0.0
C819 C 0.21435 0.81 0.84645 0.0
C820 C 0.2131 0.77208 0.83794 0.0
C821 C 0.22435 0.81109 0.85581 0.0
H822 H 0.23841 0.70922 0.8474 0.0
H823 H 0.20486 0.76972 0.83146 0.0
C824 C 0.20254 0.54515 0.80832 0.0
N825 N 0.19459 0.47766 0.79071 0.0
C826 C 0.20695 0.49982 0.80966 0.0
C827 C 0.19383 0.55578 0.7982 0.0
C828 C 0.2029 0.46631 0.80061 0.0
C829 C 0.18999 0.52129 0.78936 0.0
C830 C 0.24027 0.60961 0.83447 0.0
C831 C 0.24993 0.58566 0.82773 0.0
C832 C 0.24049 0.61159 0.84835 0.0
C833 C 0.25952 0.56335 0.83502 0.0
C834 C 0.25023 0.58878 0.85528 0.0
N835 N 0.25946 0.56529 0.84852 0.0
C836 C 0.23148 0.62042 0.78427 0.0
C837 C 0.23335 0.55232 0.79709 0.0
C838 C 0.2371 0.59832 0.77331 0.0
N839 N 0.22945 0.59687 0.79578 0.0
C840 C 0.23904 0.52905 0.78646 0.0
C841 C 0.24086 0.55178 0.77429 0.0
H842 H 0.2285 0.65602 0.78346 0.0
H843 H 0.23192 0.53462 0.80642 0.0
C844 C 0.21001 0.54579 0.85711 0.0
N845 N 0.217 0.54696 0.84571 0.0
C846 C 0.21066 0.50739 0.86546 0.0
C847 C 0.2257 0.47234 0.85018 0.0
C848 C 0.22484 0.51151 0.84219 0.0
C849 C 0.21848 0.46992 0.86192 0.0
H850 H 0.20369 0.57413 0.85955 0.0
H851 H 0.23023 0.5133 0.83302 0.0
O852 O 0.21087 0.68215 0.81076 0.0
O853 O 0.20289 0.64573 0.83911 0.0
O854 O 0.20641 0.57845 0.81714 0.0
O855 O 0.23071 0.6312 0.82749 0.0
H856 H 0.20527 0.77084 0.80822 0.0
H857 H 0.20479 0.63964 0.78827 0.0
H858 H 0.19535 0.80631 0.78829 0.0
H859 H 0.19483 0.67725 0.76872 0.0
H860 H 0.20657 0.71252 0.87982 0.0
H861 H 0.18349 0.70444 0.83703 0.0
H862 H 0.21348 0.65552 0.8629 0.0
H863 H 0.17699 0.76013 0.85449 0.0
H864 H 0.15579 0.69632 0.80205 0.0
H865 H 0.15543 0.58009 0.82891 0.0
H866 H 0.24134 0.77492 0.86266 0.0
H867 H 0.20715 0.83694 0.84622 0.0
H868 H 0.2135 0.49056 0.81754 0.0
H869 H 0.18995 0.59011 0.79721 0.0
H870 H 0.20636 0.43125 0.80147 0.0
H871 H 0.1833 0.52919 0.78145 0.0
H872 H 0.25008 0.58448 0.817 0.0
H873 H 0.2331 0.62991 0.85373 0.0
H874 H 0.26703 0.54454 0.82993 0.0
H875 H 0.25043 0.58966 0.86603 0.0
H876 H 0.23816 0.61713 0.76408 0.0
H877 H 0.24196 0.49348 0.78775 0.0
H878 H 0.20479 0.50631 0.87435 0.0
H879 H 0.23183 0.44403 0.84716 0.0
Li880 Li 0.03585 0.6773 0.42375 0.0
Li881 Li 0.05371 0.63386 0.43455 0.0
Li882 Li 0.03684 0.59237 0.42057 0.0
Li883 Li 0.03158 0.62116 0.44292 0.0
C884 C 0.05289 0.65517 0.40282 0.0
N885 N 0.05944 0.68714 0.3778 0.0
C886 C 0.06327 0.68528 0.4012 0.0
C887 C 0.04607 0.64045 0.39163 0.0
C888 C 0.06636 0.70134 0.38851 0.0
C889 C 0.04947 0.65719 0.37909 0.0
C890 C 0.04839 0.70858 0.45145 0.0
C891 C 0.05816 0.72257 0.47284 0.0
N892 N 0.06142 0.7658 0.46885 0.0
C893 C 0.05173 0.75334 0.44763 0.0
C894 C 0.05153 0.69327 0.46421 0.0
C895 C 0.05836 0.78167 0.45653 0.0
C896 C 0.02033 0.74472 0.40937 0.0
N897 N 0.03217 0.7341 0.41425 0.0
C898 C 0.04155 0.7962 0.40194 0.0
C899 C 0.04256 0.76038 0.41114 0.0
C900 C 0.02968 0.80568 0.39597 0.0
C901 C 0.01885 0.7807 0.40015 0.0
H902 H 0.0121 0.72425 0.41218 0.0
H903 H 0.05181 0.75228 0.41537 0.0
C904 C 0.07938 0.62511 0.42719 0.0
N905 N 0.07191 0.63259 0.43806 0.0
C906 C 0.09273 0.62398 0.42829 0.0
C907 C 0.0906 0.63544 0.45195 0.0
C908 C 0.07725 0.63659 0.45037 0.0
C909 C 0.0985 0.62945 0.44078 0.0
H910 H 0.07498 0.61947 0.41762 0.0
H911 H 0.07123 0.64011 0.45901 0.0
C912 C 0.01105 0.62336 0.41839 0.0
N913 N 0.98951 0.60782 0.40294 0.0
C914 C 0.99978 0.6065 0.42417 0.0
C915 C 0.01128 0.63291 0.40478 0.0
C916 C 0.98901 0.5987 0.41619 0.0
C917 C 1.00033 0.6247 0.39713 0.0
C918 C 0.04433 0.54051 0.4469 0.0
C919 C 0.03831 0.49871 0.44389 0.0
C920 C 0.04957 0.54735 0.45953 0.0
C921 C 0.03745 0.46466 0.45367 0.0
C922 C 0.04848 0.51251 0.46906 0.0
N923 N 0.04248 0.47225 0.46596 0.0
C924 C 0.04595 0.52546 0.40346 0.0
C925 C 0.02346 0.5201 0.40677 0.0
C926 C 0.0458 0.48655 0.39533 0.0
N927 N 0.03489 0.54152 0.40891 0.0
C928 C 0.02284 0.4813 0.39857 0.0
C929 C 0.03412 0.46411 0.39272 0.0
H930 H 0.05494 0.54259 0.40563 0.0
H931 H 0.01486 0.53246 0.41158 0.0
C932 C 0.02265 0.61877 0.47044 0.0
N933 N 0.02156 0.60074 0.458 0.0
C934 C 0.01726 0.59576 0.48135 0.0
C935 C 0.0088 0.53833 0.46634 0.0
C936 C 0.01452 0.56192 0.45578 0.0
C937 C 0.01047 0.55451 0.47935 0.0
H938 H 0.02803 0.65005 0.47201 0.0
H939 H 0.01393 0.54785 0.44585 0.0
O940 O 0.04962 0.63944 0.41524 0.0
O941 O 0.04169 0.68064 0.44293 0.0
O942 O 0.02174 0.6305 0.42604 0.0
O943 O 0.04485 0.57488 0.4376 0.0
H944 H 0.06876 0.69686 0.40971 0.0
H945 H 0.03831 0.616 0.39254 0.0
H946 H 0.07426 0.72514 0.38717 0.0
H947 H 0.04421 0.64623 0.37037 0.0
H948 H 0.06076 0.71084 0.48269 0.0
H949 H 0.04911 0.76641 0.43797 0.0
H950 H 0.04918 0.65866 0.46734 0.0
H951 H 0.06101 0.81635 0.45366 0.0
H952 H 0.05007 0.81546 0.39922 0.0
H953 H 0.00949 0.78746 0.39588 0.0
H954 H 0.09849 0.61829 0.41947 0.0
H955 H 0.0947 0.63963 0.46177 0.0
H956 H 0.9993 0.59972 0.43472 0.0
H957 H 0.01977 0.64711 0.4002 0.0
H958 H 0.98025 0.5855 0.42053 0.0
H959 H 0.00041 0.63191 0.38658 0.0
H960 H 0.0342 0.49288 0.43415 0.0
H961 H 0.05428 0.57943 0.462 0.0
H962 H 0.03272 0.43229 0.45152 0.0
H963 H 0.05236 0.51753 0.47892 0.0
H964 H 0.05478 0.47357 0.39139 0.0
H965 H 0.01366 0.46478 0.39689 0.0
H966 H 0.01859 0.60952 0.49126 0.0
H967 H 0.00365 0.50655 0.46443 0.0
Li968 Li 0.22063 0.63429 0.44297 0.0
Li969 Li 0.21533 0.66452 0.42096 0.0
Li970 Li 0.19887 0.62181 0.43497 0.0
Li971 Li 0.21645 0.57913 0.42394 0.0
C972 C 0.20945 0.71584 0.44716 0.0
N973 N 0.21411 0.7841 0.4657 0.0
C974 C 0.21797 0.75169 0.44424 0.0
C975 C 0.20319 0.71498 0.45945 0.0
C976 C 0.22022 0.78582 0.45376 0.0
C977 C 0.20571 0.74973 0.46871 0.0
C978 C 0.23997 0.62613 0.41641 0.0
C979 C 0.24647 0.61531 0.39361 0.0
N980 N 0.25876 0.62606 0.397 0.0
C981 C 0.25268 0.63686 0.41969 0.0
C982 C 0.23686 0.61516 0.40329 0.0
C983 C 0.26203 0.63673 0.40972 0.0
C984 C 0.22654 0.64359 0.47086 0.0
N985 N 0.23053 0.65276 0.45826 0.0
C986 C 0.24617 0.70625 0.46642 0.0
C987 C 0.24035 0.68258 0.45592 0.0
C988 C 0.24173 0.69968 0.47947 0.0
C989 C 0.23205 0.66673 0.48167 0.0
H990 H 0.2186 0.62031 0.4725 0.0
H991 H 0.24314 0.69016 0.44581 0.0
C992 C 0.20603 0.73445 0.40483 0.0
N993 N 0.21714 0.71531 0.40925 0.0
C994 C 0.20632 0.77321 0.39663 0.0
C995 C 0.22952 0.77197 0.39772 0.0
C996 C 0.22877 0.7333 0.40595 0.0
C997 C 0.21817 0.79261 0.39305 0.0
H998 H 0.19692 0.71972 0.4078 0.0
H999 H 0.23747 0.71814 0.40983 0.0
C1000 C 0.20296 0.54817 0.45068 0.0
N1001 N 0.18679 0.49447 0.46599 0.0
C1002 C 0.20113 0.50166 0.44757 0.0
C1003 C 0.19665 0.56729 0.46164 0.0
C1004 C 0.1929 0.4751 0.45542 0.0
C1005 C 0.18848 0.5396 0.46923 0.0
C1006 C 0.1968 0.60677 0.40401 0.0
C1007 C 0.18555 0.58045 0.40389 0.0
C1008 C 0.20168 0.62379 0.39202 0.0
C1009 C 0.17956 0.57065 0.3918 0.0
C1010 C 0.1954 0.61332 0.38013 0.0
N1011 N 0.18457 0.58713 0.38026 0.0
C1012 C 0.17503 0.66247 0.44071 0.0
C1013 C 0.174 0.58107 0.4389 0.0
C1014 C 0.16173 0.665 0.44237 0.0
N1015 N 0.18087 0.62099 0.43893 0.0
C1016 C 0.16068 0.58199 0.44059 0.0
C1017 C 0.15438 0.62442 0.44222 0.0
H1018 H 0.18066 0.69377 0.44046 0.0
H1019 H 0.17877 0.5486 0.43709 0.0
C1020 C 0.23172 0.5077 0.41089 0.0
N1021 N 0.21977 0.52215 0.4145 0.0
C1022 C 0.23321 0.46989 0.40233 0.0
C1023 C 0.21018 0.4608 0.40205 0.0
C1024 C 0.20915 0.49852 0.4106 0.0
C1025 C 0.22231 0.44661 0.3975 0.0
H1026 H 0.2401 0.5261 0.41436 0.0
H1027 H 0.1998 0.5096 0.41394 0.0
O1028 O 0.20742 0.68135 0.43813 0.0
O1029 O 0.23067 0.62684 0.42602 0.0
O1030 O 0.21096 0.57469 0.44307 0.0
O1031 O 0.20272 0.61715 0.41582 0.0
H1032 H 0.22293 0.75276 0.4348 0.0
H1033 H 0.19655 0.68753 0.46186 0.0
H1034 H 0.22688 0.81353 0.45169 0.0
H1035 H 0.20101 0.74931 0.4783 0.0
H1036 H 0.24418 0.60672 0.38342 0.0
H1037 H 0.2553 0.6452 0.42981 0.0
H1038 H 0.22716 0.60582 0.40066 0.0
H1039 H 0.27189 0.64506 0.41211 0.0
H1040 H 0.25379 0.73054 0.46428 0.0
H1041 H 0.22834 0.66059 0.49157 0.0
H1042 H 0.19736 0.78834 0.39332 0.0
H1043 H 0.23885 0.78552 0.39502 0.0
H1044 H 0.20603 0.48622 0.4392 0.0
H1045 H 0.19785 0.60332 0.46409 0.0
H1046 H 0.19137 0.43908 0.45312 0.0
H1047 H 0.18345 0.55405 0.47766 0.0
H1048 H 0.18155 0.56722 0.41302 0.0
H1049 H 0.21016 0.64525 0.39184 0.0
H1050 H 0.17091 0.54997 0.39159 0.0
H1051 H 0.19911 0.62619 0.37079 0.0
H1052 H 0.1572 0.69839 0.44355 0.0
H1053 H 0.15532 0.55002 0.44008 0.0
H1054 H 0.24278 0.45927 0.39943 0.0
H1055 H 0.2015 0.44379 0.3987 0.0
Li1056 Li 0.96821 0.36611 0.19173 0.0
Li1057 Li 0.96283 0.41988 0.17318 0.0
Li1058 Li 0.94637 0.3715 0.1834 0.0
Li1059 Li 0.96292 0.33771 0.17019 0.0
C1060 C 0.96209 0.45767 0.19866 0.0
N1061 N 0.97352 0.53052 0.21183 0.0
C1062 C 0.97534 0.4647 0.19768 0.0
C1063 C 0.95466 0.48767 0.20634 0.0
C1064 C 0.98093 0.50173 0.20442 0.0
C1065 C 0.96061 0.5243 0.21292 0.0
C1066 C 0.98621 0.3661 0.16508 0.0
C1067 C 0.9928 0.36925 0.14211 0.0
N1068 N 0.00275 0.34045 0.14491 0.0
C1069 C 0.99652 0.33667 0.16774 0.0
C1070 C 0.98434 0.38264 0.15217 0.0
C1071 C 0.00477 0.32405 0.15741 0.0
C1072 C 0.98518 0.30999 0.20526 0.0
N1073 N 0.97813 0.34897 0.20704 0.0
C1074 C 0.9825 0.34746 0.23041 0.0
C1075 C 0.97673 0.36809 0.21931 0.0
C1076 C 0.98973 0.30677 0.22885 0.0
C1077 C 0.99113 0.28844 0.21602 0.0
H1078 H 0.98566 0.29436 0.19552 0.0
H1079 H 0.97063 0.39794 0.2206 0.0
C1080 C 0.95499 0.49358 0.15746 0.0
N1081 N 0.96545 0.47719 0.16403 0.0
C1082 C 0.95617 0.53032 0.14857 0.0
C1083 C 0.97875 0.53495 0.15398 0.0
C1084 C 0.97717 0.49745 0.16265 0.0
C1085 C 0.96821 0.55086 0.14657 0.0
H1086 H 0.94579 0.47696 0.15879 0.0
H1087 H 0.98538 0.48337 0.16784 0.0
C1088 C 0.95225 0.29524 0.19886 0.0
N1089 N 0.94431 0.25483 0.22233 0.0
C1090 C 0.95256 0.24733 0.20029 0.0
C1091 C 0.9479 0.32263 0.20938 0.0
C1092 C 0.9485 0.22754 0.21223 0.0
C1093 C 0.94392 0.30154 0.22116 0.0
C1094 C 0.9403 0.36035 0.1569 0.0
C1095 C 0.9368 0.31479 0.15966 0.0
C1096 C 0.93418 0.38399 0.14658 0.0
C1097 C 0.92717 0.29379 0.15213 0.0
C1098 C 0.92459 0.36179 0.13927 0.0
N1099 N 0.9213 0.31753 0.14218 0.0
C1100 C 0.9218 0.40965 0.18789 0.0
C1101 C 0.92231 0.32794 0.18843 0.0
C1102 C 0.90842 0.40941 0.18918 0.0
N1103 N 0.92841 0.36927 0.18738 0.0
C1104 C 0.90898 0.32611 0.1897 0.0
C1105 C 0.90185 0.36717 0.18979 0.0
H1106 H 0.92689 0.44199 0.18689 0.0
H1107 H 0.92772 0.29622 0.18785 0.0
C1108 C 0.9709 0.24874 0.16348 0.0
N1109 N 0.96674 0.2892 0.1582 0.0
C1110 C 0.97253 0.21018 0.15537 0.0
C1111 C 0.96605 0.25632 0.13648 0.0
C1112 C 0.96462 0.29405 0.14494 0.0
C1113 C 0.96973 0.21354 0.14177 0.0
H1114 H 0.97258 0.24616 0.17406 0.0
H1115 H 0.96145 0.32684 0.14101 0.0
O1116 O 0.95631 0.42176 0.19218 0.0
O1117 O 0.97784 0.37807 0.17498 0.0
O1118 O 0.95646 0.31496 0.18729 0.0
O1119 O 0.9497 0.38185 0.16415 0.0
H1120 H 0.98129 0.44183 0.19186 0.0
H1121 H 0.94439 0.48265 0.20719 0.0
H1122 H 0.99118 0.50756 0.20375 0.0
H1123 H 0.95497 0.54779 0.2189 0.0
H1124 H 0.99142 0.38156 0.13206 0.0
H1125 H 0.99816 0.3237 0.17767 0.0
H1126 H 0.9763 0.40489 0.14988 0.0
H1127 H 0.01277 0.30122 0.15932 0.0
H1128 H 0.98087 0.36211 0.24017 0.0
H1129 H 0.99657 0.25713 0.21435 0.0
H1130 H 0.94782 0.542 0.1431 0.0
H1131 H 0.98818 0.55002 0.15264 0.0
H1132 H 0.95594 0.22565 0.19226 0.0
H1133 H 0.94762 0.35976 0.20851 0.0
H1134 H 0.9487 0.1905 0.21348 0.0
H1135 H 0.94055 0.32231 0.22938 0.0
H1136 H 0.94147 0.29565 0.16751 0.0
H1137 H 0.93681 0.41911 0.1442 0.0
H1138 H 0.92436 0.25858 0.15419 0.0
H1139 H 0.91976 0.37974 0.13127 0.0
H1140 H 0.90323 0.44179 0.18918 0.0
H1141 H 0.90427 0.29288 0.19035 0.0
H1142 H 0.97539 0.17765 0.15975 0.0
H1143 H 0.964 0.2602 0.12598 0.0
Li1144 Li 0.80146 0.37461 0.18312 0.0
Li1145 Li 0.78585 0.41312 0.16977 0.0
Li1146 Li 0.77963 0.38467 0.19102 0.0
Li1147 Li 0.78436 0.33017 0.17236 0.0
C1148 C 0.79678 0.45108 0.19885 0.0
N1149 N 0.80505 0.48779 0.22271 0.0
C1150 C 0.79714 0.49884 0.20065 0.0
C1151 C 0.80064 0.42197 0.20919 0.0
C1152 C 0.80135 0.51674 0.21278 0.0
C1153 C 0.80478 0.44121 0.22117 0.0
C1154 C 0.80839 0.38203 0.15673 0.0
C1155 C 0.825 0.36994 0.14039 0.0
N1156 N 0.8293 0.41364 0.14248 0.0
C1157 C 0.81297 0.42683 0.15871 0.0
C1158 C 0.81444 0.35333 0.14749 0.0
C1159 C 0.82355 0.44216 0.15141 0.0
C1160 C 0.82514 0.33046 0.1879 0.0
N1161 N 0.81936 0.37241 0.18723 0.0
C1162 C 0.83959 0.41058 0.18952 0.0
C1163 C 0.82625 0.41212 0.18819 0.0
C1164 C 0.84589 0.3678 0.18978 0.0
C1165 C 0.83848 0.32733 0.18924 0.0
H1166 H 0.81942 0.29947 0.18701 0.0
H1167 H 0.82147 0.44509 0.18741 0.0
C1168 C 0.77965 0.50409 0.16363 0.0
N1169 N 0.78324 0.46348 0.15802 0.0
C1170 C 0.77848 0.54364 0.15584 0.0
C1171 C 0.7843 0.4984 0.13656 0.0
C1172 C 0.78543 0.45974 0.14474 0.0
C1173 C 0.78092 0.54107 0.14215 0.0
H1174 H 0.77791 0.50584 0.17422 0.0
H1175 H 0.7883 0.42697 0.14056 0.0
C1176 C 0.78399 0.29211 0.19795 0.0
N1177 N 0.77102 0.22291 0.21123 0.0
C1178 C 0.771 0.28407 0.19531 0.0
C1179 C 0.79038 0.26497 0.20732 0.0
C1180 C 0.76462 0.24891 0.20213 0.0
C1181 C 0.78366 0.23016 0.21394 0.0
C1182 C 0.76229 0.39033 0.16387 0.0
C1183 C 0.75208 0.42027 0.16647 0.0
C1184 C 0.76466 0.37598 0.15084 0.0
C1185 C 0.74444 0.43563 0.15594 0.0
C1186 C 0.7568 0.39209 0.14058 0.0
N1187 N 0.74695 0.42137 0.14332 0.0
C1188 C 0.76266 0.44171 0.20448 0.0
C1189 C 0.77127 0.38408 0.21859 0.0
C1190 C 0.75679 0.46352 0.21526 0.0
N1191 N 0.76973 0.40279 0.20628 0.0
C1192 C 0.76569 0.40522 0.22972 0.0
C1193 C 0.7584 0.44567 0.22811 0.0
H1194 H 0.76214 0.45722 0.19473 0.0
H1195 H 0.77734 0.35413 0.21988 0.0
C1196 C 0.79238 0.25026 0.15963 0.0
N1197 N 0.78149 0.27339 0.16295 0.0
C1198 C 0.7919 0.21307 0.15082 0.0
C1199 C 0.76889 0.2224 0.14946 0.0
C1200 C 0.76981 0.25961 0.15834 0.0
C1201 C 0.7801 0.19957 0.14527 0.0
H1202 H 0.80153 0.26194 0.16343 0.0
H1203 H 0.76128 0.27871 0.16107 0.0
O1204 O 0.79241 0.43323 0.18709 0.0
O1205 O 0.79816 0.36593 0.16389 0.0
O1206 O 0.7905 0.32642 0.1915 0.0
O1207 O 0.77007 0.37563 0.17399 0.0
H1208 H 0.79416 0.52186 0.19276 0.0
H1209 H 0.8004 0.38493 0.20804 0.0
H1210 H 0.80166 0.55365 0.21431 0.0
H1211 H 0.80777 0.41909 0.22926 0.0
H1212 H 0.82978 0.34808 0.13322 0.0
H1213 H 0.80845 0.44949 0.16586 0.0
H1214 H 0.81102 0.31855 0.14584 0.0
H1215 H 0.8272 0.47671 0.15287 0.0
H1216 H 0.84497 0.44255 0.18982 0.0
H1217 H 0.84297 0.29366 0.18962 0.0
H1218 H 0.77582 0.57599 0.16047 0.0
H1219 H 0.78645 0.49531 0.12606 0.0
H1220 H 0.76585 0.30464 0.18812 0.0
H1221 H 0.80044 0.27086 0.20948 0.0
H1222 H 0.75456 0.24229 0.2002 0.0
H1223 H 0.78849 0.20892 0.22123 0.0
H1224 H 0.75002 0.43147 0.17649 0.0
H1225 H 0.77265 0.35339 0.14862 0.0
H1226 H 0.73652 0.45889 0.15779 0.0
H1227 H 0.75859 0.38153 0.13044 0.0
H1228 H 0.75153 0.49527 0.21364 0.0
H1229 H 0.76725 0.39068 0.23951 0.0
H1230 H 0.80074 0.19572 0.14811 0.0
H1231 H 0.7596 0.21295 0.14546 0.0
Li1232 Li 0.94702 0.37589 0.56797 0.0
Li1233 Li 0.9636 0.41804 0.5816 0.0
Li1234 Li 0.96936 0.38377 0.56054 0.0
Li1235 Li 0.96567 0.33452 0.57978 0.0
C1236 C 0.95732 0.46258 0.55373 0.0
N1237 N 0.96033 0.5209 0.53226 0.0
C1238 C 0.96535 0.50102 0.55471 0.0
C1239 C 0.95069 0.45405 0.54191 0.0
C1240 C 0.96678 0.53003 0.54372 0.0
C1241 C 0.95237 0.48391 0.53115 0.0
C1242 C 0.94713 0.38521 0.59948 0.0
C1243 C 0.95132 0.39892 0.62271 0.0
N1244 N 0.93949 0.41843 0.62396 0.0
C1245 C 0.93499 0.40504 0.60099 0.0
C1246 C 0.95534 0.38177 0.61042 0.0
C1247 C 0.93132 0.42175 0.61345 0.0
C1248 C 0.92288 0.33409 0.56283 0.0
N1249 N 0.92926 0.37478 0.56392 0.0
C1250 C 0.90969 0.41714 0.56167 0.0
C1251 C 0.92301 0.41586 0.56326 0.0
C1252 C 0.90277 0.37569 0.56076 0.0
C1253 C 0.90953 0.33375 0.56124 0.0
H1254 H 0.92811 0.30195 0.56355 0.0
H1255 H 0.92834 0.44764 0.5644 0.0
C1256 C 0.97695 0.4812 0.59818 0.0
N1257 N 0.96544 0.47025 0.59266 0.0
C1258 C 0.97805 0.51991 0.60636 0.0
C1259 C 0.95547 0.53535 0.60284 0.0
C1260 C 0.95485 0.49678 0.59461 0.0
C1261 C 0.96716 0.54701 0.60888 0.0
H1262 H 0.98527 0.45998 0.59621 0.0
H1263 H 0.94591 0.48781 0.58979 0.0
C1264 C 0.96242 0.29827 0.55113 0.0
N1265 N 0.97012 0.24202 0.53048 0.0
C1266 C 0.97434 0.27624 0.55163 0.0
C1267 C 0.95433 0.2913 0.54023 0.0
C1268 C 0.97808 0.24806 0.54106 0.0
C1269 C 0.95842 0.26282 0.52986 0.0
C1270 C 0.99051 0.36368 0.5814 0.0
C1271 C 0.99907 0.34553 0.57205 0.0
C1272 C 0.99365 0.36242 0.5949 0.0
C1273 C 0.0106 0.32608 0.5764 0.0
C1274 C 0.00527 0.3426 0.59885 0.0
N1275 N 0.01344 0.32499 0.58959 0.0
C1276 C 0.98906 0.42997 0.54721 0.0
C1277 C 0.97543 0.38965 0.5324 0.0
C1278 C 0.99503 0.4526 0.53662 0.0
N1279 N 0.9793 0.39979 0.54498 0.0
C1280 C 0.98125 0.41113 0.52148 0.0
C1281 C 0.99103 0.44385 0.52352 0.0
H1282 H 0.99164 0.43883 0.55731 0.0
H1283 H 0.96732 0.36719 0.53081 0.0
C1284 C 0.95862 0.26626 0.59779 0.0
N1285 N 0.96883 0.27954 0.59028 0.0
C1286 C 0.95964 0.22943 0.60666 0.0
C1287 C 0.98164 0.21904 0.59975 0.0
C1288 C 0.98016 0.2561 0.5909 0.0
C1289 C 0.97131 0.20548 0.60788 0.0
H1290 H 0.94962 0.28466 0.597 0.0
H1291 H 0.98812 0.26637 0.58472 0.0
O1292 O 0.95613 0.43296 0.56422 0.0
O1293 O 0.95104 0.36975 0.58729 0.0
O1294 O 0.95858 0.32602 0.56135 0.0
O1295 O 0.97924 0.3833 0.57734 0.0
H1296 H 0.97056 0.50797 0.56381 0.0
H1297 H 0.94447 0.42429 0.541 0.0
H1298 H 0.97306 0.55969 0.54428 0.0
H1299 H 0.9474 0.47753 0.52189 0.0
H1300 H 0.9576 0.39678 0.63125 0.0
H1301 H 0.92852 0.4079 0.59261 0.0
H1302 H 0.96475 0.36635 0.6094 0.0
H1303 H 0.92198 0.43747 0.61477 0.0
H1304 H 0.90482 0.45014 0.56166 0.0
H1305 H 0.90453 0.30109 0.5606 0.0
H1306 H 0.98724 0.52825 0.61082 0.0
H1307 H 0.94695 0.55608 0.6044 0.0
H1308 H 0.98061 0.28086 0.56009 0.0
H1309 H 0.94504 0.30801 0.53976 0.0
H1310 H 0.98731 0.23092 0.54127 0.0
H1311 H 0.95231 0.25729 0.52131 0.0
H1312 H 0.99681 0.34629 0.56156 0.0
H1313 H 0.98715 0.37636 0.60226 0.0
H1314 H 0.0173 0.31179 0.56928 0.0
H1315 H 0.0078 0.3412 0.60927 0.0
H1316 H 0.00222 0.47854 0.53875 0.0
H1317 H 0.97782 0.40337 0.51157 0.0
H1318 H 0.95135 0.21979 0.61254 0.0
H1319 H 0.99086 0.20194 0.60042 0.0
Li1320 Li 0.78045 0.37123 0.56119 0.0
Li1321 Li 0.78542 0.42552 0.5799 0.0
Li1322 Li 0.80238 0.38003 0.56913 0.0
Li1323 Li 0.78657 0.34287 0.58244 0.0
C1324 C 0.78535 0.46366 0.55425 0.0
N1325 N 0.77282 0.53375 0.5409 0.0
C1326 C 0.77247 0.47332 0.55704 0.0
C1327 C 0.79185 0.48964 0.54469 0.0
C1328 C 0.76631 0.50891 0.55018 0.0
C1329 C 0.78535 0.52492 0.53804 0.0
C1330 C 0.76288 0.36373 0.58765 0.0
C1331 C 0.75612 0.3587 0.61054 0.0
N1332 N 0.74706 0.3272 0.60702 0.0
C1333 C 0.75346 0.3315 0.58425 0.0
C1334 C 0.76421 0.37761 0.60089 0.0
C1335 C 0.74558 0.31336 0.5942 0.0
C1336 C 0.76525 0.3102 0.5473 0.0
N1337 N 0.77054 0.35281 0.54596 0.0
C1338 C 0.76508 0.35386 0.52283 0.0
C1339 C 0.77046 0.3751 0.53405 0.0
C1340 C 0.75989 0.30916 0.52388 0.0
C1341 C 0.75979 0.28782 0.53639 0.0
H1342 H 0.76591 0.29245 0.55672 0.0
H1343 H 0.77506 0.40834 0.53309 0.0
C1344 C 0.79328 0.50591 0.59275 0.0
N1345 N 0.78251 0.48234 0.58927 0.0
C1346 C 0.79252 0.54374 0.60132 0.0
C1347 C 0.76952 0.53353 0.60227 0.0
C1348 C 0.77072 0.49582 0.59363 0.0
C1349 C 0.78055 0.55759 0.60642 0.0
H1350 H 0.80254 0.49425 0.58922 0.0
H1351 H 0.76231 0.47619 0.59084 0.0
C1352 C 0.79733 0.30409 0.55341 0.0
N1353 N 0.80538 0.26699 0.52951 0.0
C1354 C 0.79798 0.25629 0.55177 0.0
C1355 C 0.8008 0.33304 0.54288 0.0
C1356 C 0.80208 0.2382 0.53962 0.0
C1357 C 0.80483 0.3136 0.53088 0.0
C1358 C 0.80916 0.37197 0.59559 0.0
C1359 C 0.81347 0.32687 0.59353 0.0
C1360 C 0.81526 0.39976 0.60502 0.0
C1361 C 0.82385 0.31034 0.60093 0.0
C1362 C 0.82561 0.38196 0.61222 0.0
N1363 N 0.82965 0.338 0.61004 0.0
C1364 C 0.8267 0.4208 0.56403 0.0
C1365 C 0.8266 0.33906 0.56389 0.0
C1366 C 0.84003 0.42132 0.56232 0.0
N1367 N 0.8203 0.38003 0.56489 0.0
C1368 C 0.83988 0.33799 0.56215 0.0
C1369 C 0.8468 0.37945 0.56148 0.0
H1370 H 0.82148 0.45285 0.56509 0.0
H1371 H 0.82138 0.30704 0.56485 0.0
C1372 C 0.78035 0.25196 0.58849 0.0
N1373 N 0.78375 0.29266 0.59417 0.0
C1374 C 0.77912 0.21243 0.59626 0.0
C1375 C 0.78446 0.25788 0.61566 0.0
C1376 C 0.78567 0.29654 0.60749 0.0
C1377 C 0.78131 0.21511 0.60999 0.0
H1378 H 0.77883 0.25013 0.57787 0.0
H1379 H 0.7884 0.3294 0.61171 0.0
O1380 O 0.79164 0.42894 0.56075 0.0
O1381 O 0.77092 0.38109 0.57813 0.0
O1382 O 0.793 0.32209 0.56517 0.0
O1383 O 0.7991 0.3892 0.58838 0.0
H1384 H 0.76724 0.45364 0.56437 0.0
H1385 H 0.80182 0.48251 0.54242 0.0
H1386 H 0.75635 0.51676 0.55223 0.0
H1387 H 0.79027 0.54528 0.5306 0.0
H1388 H 0.75711 0.36886 0.62083 0.0
H1389 H 0.75224 0.32059 0.57406 0.0
H1390 H 0.77157 0.40202 0.60372 0.0
H1391 H 0.73827 0.28827 0.59172 0.0
H1392 H 0.76523 0.37177 0.51339 0.0
H1393 H 0.75605 0.25321 0.53762 0.0
H1394 H 0.80126 0.56146 0.60415 0.0
H1395 H 0.76013 0.54248 0.6061 0.0
H1396 H 0.7953 0.23338 0.5598 0.0
H1397 H 0.80034 0.37009 0.54389 0.0
H1398 H 0.8026 0.20126 0.53822 0.0
H1399 H 0.8075 0.33559 0.52264 0.0
H1400 H 0.80889 0.30485 0.58627 0.0
H1401 H 0.81204 0.43476 0.60673 0.0
H1402 H 0.82729 0.27554 0.59941 0.0
H1403 H 0.83043 0.40311 0.61954 0.0
H1404 H 0.84504 0.45405 0.56213 0.0
H1405 H 0.84473 0.305 0.56155 0.0
H1406 H 0.77664 0.17997 0.59159 0.0
H1407 H 0.78641 0.26103 0.62619 0.0
Li1408 Li 0.53073 0.14034 0.81088 0.0
Li1409 Li 0.53589 0.17037 0.83266 0.0
Li1410 Li 0.55191 0.12701 0.81915 0.0
Li1411 Li 0.53403 0.08472 0.82985 0.0
C1412 C 0.54181 0.22173 0.80671 0.0
N1413 N 0.53658 0.29013 0.78834 0.0
C1414 C 0.53423 0.25956 0.81026 0.0
C1415 C 0.54686 0.219 0.79385 0.0
C1416 C 0.53168 0.29374 0.80082 0.0
C1417 C 0.54406 0.25381 0.78469 0.0
C1418 C 0.51158 0.12978 0.83776 0.0
C1419 C 0.50674 0.12156 0.86108 0.0
N1420 N 0.494 0.12032 0.85814 0.0
C1421 C 0.49845 0.12852 0.83496 0.0
C1422 C 0.51578 0.12634 0.85092 0.0
C1423 C 0.4897 0.12369 0.8454 0.0
C1424 C 0.52435 0.14448 0.78304 0.0
N1425 N 0.52096 0.15832 0.79547 0.0
C1426 C 0.50653 0.21454 0.78647 0.0
C1427 C 0.51193 0.19158 0.79734 0.0
C1428 C 0.51041 0.20302 0.77351 0.0
C1429 C 0.5191 0.1663 0.77187 0.0
H1430 H 0.53157 0.11808 0.78178 0.0
H1431 H 0.50952 0.20233 0.80734 0.0
C1432 C 0.54476 0.24259 0.84865 0.0
N1433 N 0.53386 0.22141 0.84444 0.0
C1434 C 0.54409 0.28136 0.8568 0.0
C1435 C 0.52093 0.27714 0.85577 0.0
C1436 C 0.52206 0.23827 0.84765 0.0
C1437 C 0.53206 0.29901 0.86049 0.0
H1438 H 0.55399 0.23005 0.84542 0.0
H1439 H 0.51351 0.22237 0.84366 0.0
C1440 C 0.54898 0.05432 0.8042 0.0
N1441 N 0.56755 0.00342 0.79116 0.0
C1442 C 0.55181 0.00945 0.80834 0.0
C1443 C 0.55547 0.07305 0.7933 0.0
C1444 C 0.56125 0.98432 0.80165 0.0
C1445 C 0.56486 0.04686 0.78688 0.0
C1446 C 0.55541 0.12491 0.84909 0.0
C1447 C 0.56683 0.15014 0.84833 0.0
C1448 C 0.55208 0.10338 0.86105 0.0
C1449 C 0.5747 0.15358 0.85953 0.0
C1450 C 0.5602 0.10768 0.87204 0.0
N1451 N 0.57124 0.13246 0.87106 0.0
C1452 C 0.57643 0.15696 0.80999 0.0
C1453 C 0.57622 0.08583 0.82163 0.0
C1454 C 0.58985 0.15653 0.80958 0.0
N1455 N 0.56995 0.12221 0.8161 0.0
C1456 C 0.58962 0.08417 0.82152 0.0
C1457 C 0.59658 0.12038 0.81571 0.0
H1458 H 0.57123 0.18597 0.80595 0.0
H1459 H 0.57081 0.05907 0.82661 0.0
C1460 C 0.5188 0.0129 0.84302 0.0
N1461 N 0.53066 0.02857 0.83953 0.0
C1462 C 0.51755 0.97454 0.85144 0.0
C1463 C 0.54067 0.96849 0.85215 0.0
C1464 C 0.54147 0.0069 0.84383 0.0
C1465 C 0.5286 0.95188 0.85613 0.0
H1466 H 0.51031 0.03064 0.83954 0.0
H1467 H 0.55079 0.02035 0.84107 0.0
O1468 O 0.54412 0.18728 0.8157 0.0
O1469 O 0.52024 0.13404 0.82761 0.0
O1470 O 0.53992 0.07976 0.81078 0.0
O1471 O 0.54773 0.12008 0.83811 0.0
H1472 H 0.5302 0.26227 0.82013 0.0
H1473 H 0.55271 0.18997 0.79089 0.0
H1474 H 0.52574 0.32301 0.80341 0.0
H1475 H 0.5478 0.25187 0.77468 0.0
H1476 H 0.50986 0.11888 0.87131 0.0
H1477 H 0.49505 0.13114 0.82481 0.0
H1478 H 0.52588 0.12768 0.85325 0.0
H1479 H 0.4795 0.1226 0.84338 0.0
H1480 H 0.49987 0.24259 0.78823 0.0
H1481 H 0.52209 0.15533 0.76205 0.0
H1482 H 0.5529 0.29752 0.86013 0.0
H1483 H 0.51148 0.29059 0.85805 0.0
H1484 H 0.54675 0.99412 0.81662 0.0
H1485 H 0.55342 0.1077 0.78997 0.0
H1486 H 0.56358 0.94963 0.80479 0.0
H1487 H 0.57005 0.06112 0.77851 0.0
H1488 H 0.56956 0.16735 0.83923 0.0
H1489 H 0.54335 0.08338 0.86186 0.0
H1490 H 0.58354 0.17308 0.85906 0.0
H1491 H 0.55772 0.0912 0.88134 0.0
H1492 H 0.59492 0.18517 0.80508 0.0
H1493 H 0.59449 0.05547 0.82622 0.0
H1494 H 0.50807 0.96281 0.8543 0.0
H1495 H 0.54944 0.95273 0.85574 0.0
Li1496 Li 0.69743 0.12485 0.82203 0.0
Li1497 Li 0.7162 0.16525 0.83125 0.0
Li1498 Li 0.71875 0.11255 0.81102 0.0
Li1499 Li 0.71434 0.08298 0.83286 0.0
C1500 C 0.70431 0.18485 0.8005 0.0
N1501 N 0.69614 0.20944 0.77535 0.0
C1502 C 0.70665 0.22923 0.79567 0.0
C1503 C 0.69782 0.15295 0.79254 0.0
C1504 C 0.70244 0.24102 0.78293 0.0
C1505 C 0.69376 0.16605 0.77985 0.0
C1506 C 0.69497 0.15938 0.84732 0.0
C1507 C 0.68383 0.18301 0.86721 0.0
N1508 N 0.67966 0.22156 0.86084 0.0
C1509 C 0.69059 0.19933 0.84098 0.0
C1510 C 0.69158 0.15118 0.86055 0.0
C1511 C 0.68285 0.23028 0.84797 0.0
C1512 C 0.67256 0.09417 0.82666 0.0
N1513 N 0.67913 0.12752 0.82004 0.0
C1514 C 0.65944 0.16082 0.81236 0.0
C1515 C 0.67286 0.16103 0.81313 0.0
C1516 C 0.65244 0.12628 0.81894 0.0
C1517 C 0.65918 0.09256 0.82613 0.0
H1518 H 0.67775 0.06907 0.8325 0.0
H1519 H 0.6782 0.18836 0.80838 0.0
C1520 C 0.72043 0.26305 0.8367 0.0
N1521 N 0.72071 0.21913 0.84148 0.0
C1522 C 0.72114 0.30065 0.84548 0.0
C1523 C 0.72279 0.24706 0.86377 0.0
C1524 C 0.72208 0.21077 0.85471 0.0
C1525 C 0.72194 0.29269 0.85925 0.0
H1526 H 0.71899 0.26891 0.82618 0.0
H1527 H 0.72178 0.17577 0.85835 0.0
C1528 C 0.70658 0.01982 0.81585 0.0
N1529 N 0.70892 0.92481 0.81604 0.0
C1530 C 0.7183 0.99903 0.81265 0.0
C1531 C 0.69603 0.99218 0.81905 0.0
C1532 C 0.71929 0.95099 0.8128 0.0
C1533 C 0.69741 0.94425 0.81913 0.0
C1534 C 0.74037 0.09817 0.83251 0.0
C1535 C 0.74889 0.07332 0.82448 0.0
C1536 C 0.7428 0.10199 0.84613 0.0
C1537 C 0.75963 0.05247 0.83024 0.0
C1538 C 0.75363 0.08056 0.85152 0.0
N1539 N 0.76175 0.05646 0.84353 0.0
C1540 C 0.73874 0.11067 0.79065 0.0
C1541 C 0.71986 0.06746 0.78646 0.0
C1542 C 0.74469 0.09135 0.77943 0.0
N1543 N 0.72665 0.09746 0.79414 0.0
C1544 C 0.72545 0.04711 0.77532 0.0
C1545 C 0.73811 0.05817 0.77184 0.0
H1546 H 0.74398 0.13442 0.79692 0.0
H1547 H 0.71027 0.05742 0.78935 0.0
C1548 C 0.70701 0.02385 0.85323 0.0
N1549 N 0.71669 0.03122 0.84442 0.0
C1550 C 0.70718 0.98526 0.8615 0.0
C1551 C 0.72731 0.96242 0.85154 0.0
C1552 C 0.72673 0.00136 0.84343 0.0
C1553 C 0.71736 0.95376 0.8606 0.0
H1554 H 0.69897 0.04737 0.85358 0.0
H1555 H 0.73412 0.00676 0.83611 0.0
O1556 O 0.70855 0.17266 0.81288 0.0
O1557 O 0.70292 0.12916 0.84083 0.0
O1558 O 0.70551 0.06694 0.81598 0.0
O1559 O 0.72987 0.11921 0.827 0.0
H1560 H 0.71171 0.25427 0.8017 0.0
H1561 H 0.6958 0.11862 0.79616 0.0
H1562 H 0.70419 0.27526 0.77906 0.0
H1563 H 0.6887 0.14173 0.7736 0.0
H1564 H 0.68117 0.17714 0.87746 0.0
H1565 H 0.69323 0.20671 0.83081 0.0
H1566 H 0.69501 0.12077 0.86568 0.0
H1567 H 0.67942 0.26135 0.84319 0.0
H1568 H 0.65458 0.18783 0.80687 0.0
H1569 H 0.65417 0.06507 0.83125 0.0
H1570 H 0.7204 0.33543 0.84162 0.0
H1571 H 0.72351 0.23945 0.87428 0.0
H1572 H 0.72664 0.01975 0.81035 0.0
H1573 H 0.68685 0.00741 0.82143 0.0
H1574 H 0.72834 0.93454 0.81045 0.0
H1575 H 0.68933 0.92249 0.82165 0.0
H1576 H 0.74716 0.06968 0.81395 0.0
H1577 H 0.73631 0.12071 0.85251 0.0
H1578 H 0.76625 0.03298 0.82415 0.0
H1579 H 0.75557 0.08302 0.86206 0.0
H1580 H 0.7545 0.10062 0.77708 0.0
H1581 H 0.72003 0.02203 0.76964 0.0
H1582 H 0.69926 0.97946 0.86829 0.0
H1583 H 0.7354 0.93914 0.85064 0.0
Li1584 Li 0.53515 0.17219 0.42221 0.0
Li1585 Li 0.55334 0.13487 0.43231 0.0
Li1586 Li 0.53691 0.08827 0.41949 0.0
Li1587 Li 0.5321 0.12059 0.44142 0.0
C1588 C 0.54992 0.15536 0.40074 0.0
N1589 N 0.55171 0.19409 0.37571 0.0
C1590 C 0.55799 0.19313 0.39854 0.0
C1591 C 0.54284 0.13706 0.39017 0.0
C1592 C 0.55872 0.21234 0.38583 0.0
C1593 C 0.54387 0.15718 0.3776 0.0
C1594 C 0.55014 0.20948 0.44688 0.0
C1595 C 0.5591 0.24419 0.4666 0.0
N1596 N 0.56801 0.26612 0.45898 0.0
C1597 C 0.55928 0.23279 0.43925 0.0
C1598 C 0.54997 0.21555 0.46066 0.0
C1599 C 0.56827 0.26109 0.44555 0.0
C1600 C 0.53431 0.26881 0.41529 0.0
N1601 N 0.52994 0.22593 0.41216 0.0
C1602 C 0.52145 0.25393 0.39155 0.0
C1603 C 0.52319 0.21841 0.40078 0.0
C1604 C 0.52652 0.29785 0.39416 0.0
C1605 C 0.53264 0.30554 0.4064 0.0
H1606 H 0.53957 0.27421 0.4244 0.0
H1607 H 0.51975 0.1841 0.39853 0.0
C1608 C 0.5789 0.13151 0.42445 0.0
N1609 N 0.57146 0.13624 0.43546 0.0
C1610 C 0.59221 0.12882 0.42556 0.0
C1611 C 0.59012 0.13644 0.44938 0.0
C1612 C 0.57676 0.13883 0.44781 0.0
C1613 C 0.59797 0.13055 0.43815 0.0
H1614 H 0.57447 0.12896 0.41477 0.0
H1615 H 0.57064 0.14208 0.45644 0.0
C1616 C 0.50998 0.14519 0.42641 0.0
N1617 N 0.48672 0.18952 0.42979 0.0
C1618 C 0.5085 0.17802 0.43647 0.0
C1619 C 0.49965 0.13502 0.41805 0.0
C1620 C 0.49666 0.2 0.43803 0.0
C1621 C 0.48796 0.15779 0.41992 0.0
C1622 C 0.54408 0.0398 0.4454 0.0
C1623 C 0.53462 0.00631 0.4434 0.0
C1624 C 0.55184 0.03777 0.45672 0.0
C1625 C 0.53297 0.97159 0.45288 0.0
C1626 C 0.54989 0.00246 0.46596 0.0
N1627 N 0.54057 0.97043 0.46387 0.0
C1628 C 0.54613 0.01555 0.40454 0.0
C1629 C 0.52336 0.01859 0.40534 0.0
C1630 C 0.5457 0.97515 0.39707 0.0
N1631 N 0.53507 0.03607 0.40856 0.0
C1632 C 0.52249 0.97812 0.39785 0.0
C1633 C 0.53378 0.95564 0.3938 0.0
H1634 H 0.55527 0.03047 0.40729 0.0
H1635 H 0.51475 0.03565 0.40879 0.0
C1636 C 0.52865 0.10401 0.46936 0.0
N1637 N 0.52297 0.10111 0.4572 0.0
C1638 C 0.52339 0.08086 0.4803 0.0
C1639 C 0.5064 0.05282 0.46612 0.0
C1640 C 0.51193 0.07668 0.45548 0.0
C1641 C 0.51231 0.05383 0.47866 0.0
H1642 H 0.53772 0.1217 0.47039 0.0
H1643 H 0.5078 0.07347 0.44567 0.0
O1644 O 0.54895 0.13634 0.41316 0.0
O1645 O 0.54134 0.18123 0.44089 0.0
O1646 O 0.52151 0.12351 0.42457 0.0
O1647 O 0.54554 0.07499 0.43648 0.0
H1648 H 0.56363 0.20751 0.40655 0.0
H1649 H 0.53649 0.10806 0.39168 0.0
H1650 H 0.56487 0.24173 0.384 0.0
H1651 H 0.53838 0.14357 0.36935 0.0
H1652 H 0.5591 0.24908 0.47726 0.0
H1653 H 0.55952 0.22859 0.42859 0.0
H1654 H 0.54279 0.19867 0.4667 0.0
H1655 H 0.57546 0.27898 0.43975 0.0
H1656 H 0.51654 0.24681 0.38228 0.0
H1657 H 0.53665 0.339 0.40878 0.0
H1658 H 0.59796 0.12514 0.41664 0.0
H1659 H 0.59424 0.13796 0.45925 0.0
H1660 H 0.51638 0.18646 0.44303 0.0
H1661 H 0.50067 0.10991 0.41016 0.0
H1662 H 0.49537 0.22542 0.44579 0.0
H1663 H 0.47988 0.15026 0.41351 0.0
H1664 H 0.52846 0.00761 0.43475 0.0
H1665 H 0.55917 0.06352 0.45843 0.0
H1666 H 0.5256 0.9457 0.45153 0.0
H1667 H 0.55576 1.00064 0.47481 0.0
H1668 H 0.55461 0.95932 0.39387 0.0
H1669 H 0.51313 0.96402 0.39549 0.0
H1670 H 0.52831 0.08211 0.48978 0.0
H1671 H 0.49778 0.0327 0.46447 0.0
Li1672 Li 0.72029 0.137 0.44142 0.0
Li1673 Li 0.71521 0.16102 0.41879 0.0
Li1674 Li 0.69834 0.12107 0.43284 0.0
Li1675 Li 0.7163 0.07834 0.42256 0.0
C1676 C 0.70429 0.2139 0.44493 0.0
N1677 N 0.69908 0.27962 0.46411 0.0
C1678 C 0.70914 0.25865 0.44365 0.0
C1679 C 0.69655 0.20297 0.45583 0.0
C1680 C 0.70647 0.29127 0.45349 0.0
C1681 C 0.69408 0.23655 0.46545 0.0
C1682 C 0.74035 0.14289 0.41749 0.0
C1683 C 0.7505 0.15756 0.39635 0.0
N1684 N 0.75998 0.18125 0.40266 0.0
C1685 C 0.7503 0.16682 0.42378 0.0
C1686 C 0.74055 0.13768 0.40369 0.0
C1687 C 0.7601 0.18616 0.4161 0.0
C1688 C 0.73028 0.13797 0.46863 0.0
N1689 N 0.72967 0.15958 0.45663 0.0
C1690 C 0.74034 0.22589 0.46556 0.0
C1691 C 0.73474 0.2024 0.45493 0.0
C1692 C 0.74081 0.20513 0.47815 0.0
C1693 C 0.73577 0.16038 0.4796 0.0
H1694 H 0.72627 0.10384 0.46978 0.0
H1695 H 0.73409 0.21898 0.44533 0.0
C1696 C 0.71152 0.2121 0.39504 0.0
N1697 N 0.71807 0.21019 0.40671 0.0
C1698 C 0.71294 0.25009 0.38664 0.0
C1699 C 0.72785 0.28319 0.40241 0.0
C1700 C 0.72625 0.24438 0.41043 0.0
C1701 C 0.72106 0.28642 0.39042 0.0
H1702 H 0.70493 0.18478 0.39243 0.0
H1703 H 0.73132 0.24193 0.41978 0.0
C1704 C 0.70482 0.05128 0.45151 0.0
N1705 N 0.69319 0.99951 0.4712 0.0
C1706 C 0.70275 0.00407 0.44966 0.0
C1707 C 0.70118 0.07192 0.46348 0.0
C1708 C 0.69681 0.97855 0.4597 0.0
C1709 C 0.69526 0.04525 0.47328 0.0
C1710 C 0.69765 0.08766 0.4035 0.0
C1711 C 0.68602 0.06413 0.40505 0.0
C1712 C 0.70443 0.08357 0.39157 0.0
C1713 C 0.68151 0.0362 0.39474 0.0
C1714 C 0.69963 0.05519 0.3815 0.0
N1715 N 0.68837 0.03226 0.38329 0.0
C1716 C 0.67375 0.15956 0.4341 0.0
C1717 C 0.67421 0.08164 0.44119 0.0
C1718 C 0.66042 0.16108 0.4356 0.0
N1719 N 0.68034 0.12018 0.43681 0.0
C1720 C 0.66088 0.08165 0.44283 0.0
C1721 C 0.6538 0.12151 0.43978 0.0
H1722 H 0.67883 0.18952 0.43045 0.0
H1723 H 0.67955 0.05038 0.44298 0.0
C1724 C 0.7313 0.01393 0.40701 0.0
N1725 N 0.72003 0.02074 0.41362 0.0
C1726 C 0.73266 0.97656 0.39826 0.0
C1727 C 0.71101 0.9532 0.40359 0.0
C1728 C 0.71014 0.99042 0.41236 0.0
C1729 C 0.72228 0.94644 0.39621 0.0
H1730 H 0.73901 0.03857 0.40806 0.0
H1731 H 0.70123 0.99667 0.41757 0.0
O1732 O 0.70694 0.18129 0.43545 0.0
O1733 O 0.73055 0.12437 0.42483 0.0
O1734 O 0.71055 0.07681 0.44171 0.0
O1735 O 0.70235 0.11439 0.41362 0.0
H1736 H 0.71497 0.26811 0.4352 0.0
H1737 H 0.69235 0.16912 0.4568 0.0
H1738 H 0.71027 0.32588 0.45267 0.0
H1739 H 0.68814 0.22841 0.47395 0.0
H1740 H 0.75069 0.15414 0.38564 0.0
H1741 H 0.75051 0.17023 0.43447 0.0
H1742 H 0.73304 0.11882 0.39868 0.0
H1743 H 0.76782 0.20498 0.42084 0.0
H1744 H 0.74389 0.2606 0.46403 0.0
H1745 H 0.736 0.1431 0.48914 0.0
H1746 H 0.70738 0.2519 0.37755 0.0
H1747 H 0.73416 0.3107 0.40563 0.0
H1748 H 0.70574 0.98722 0.4406 0.0
H1749 H 0.70299 0.10802 0.46525 0.0
H1750 H 0.69509 0.94204 0.45837 0.0
H1751 H 0.69235 0.06089 0.48257 0.0
H1752 H 0.68059 0.06693 0.41415 0.0
H1753 H 0.71335 0.10184 0.39009 0.0
H1754 H 0.67258 0.01754 0.39586 0.0
H1755 H 0.70486 0.05139 0.37228 0.0
H1756 H 0.65529 0.19237 0.43305 0.0
H1757 H 0.65614 0.05055 0.44621 0.0
H1758 H 0.74149 0.97257 0.39268 0.0
H1759 H 0.70282 0.93064 0.4023 0.0
Li1760 Li 0.4645 0.9241 0.17305 0.0
Li1761 Li 0.46974 0.87074 0.19172 0.0
Li1762 Li 0.46401 0.8415 0.17039 0.0
Li1763 Li 0.44783 0.87774 0.18367 0.0
C1764 C 0.4872 0.86883 0.1645 0.0
N1765 N 0.50278 0.84245 0.14361 0.0
C1766 C 0.4979 0.84087 0.16681 0.0
C1767 C 0.48445 0.88353 0.15158 0.0
C1768 C 0.50565 0.82787 0.15612 0.0
C1769 C 0.49243 0.86979 0.14115 0.0
C1770 C 0.46435 0.96282 0.19845 0.0
C1771 C 0.46353 0.0298 0.21263 0.0
N1772 N 0.47645 0.03499 0.21128 0.0
C1773 C 0.47762 0.96879 0.1972 0.0
C1774 C 0.45724 0.99352 0.20622 0.0
C1775 C 0.48355 0.00551 0.20377 0.0
C1776 C 0.45617 1.00026 0.15872 0.0
N1777 N 0.46704 0.98139 0.16385 0.0
C1778 C 0.47988 0.03891 0.15308 0.0
C1779 C 0.47878 1.00004 0.16132 0.0
C1780 C 0.4688 0.05859 0.14739 0.0
C1781 C 0.45683 0.03866 0.15037 0.0
H1782 H 0.44698 0.9845 0.1608 0.0
H1783 H 0.4873 0.98405 0.16539 0.0
C1784 C 0.48742 0.8165 0.20515 0.0
N1785 N 0.47966 0.85363 0.20704 0.0
C1786 C 0.49325 0.79464 0.21595 0.0
C1787 C 0.48297 0.84942 0.23058 0.0
C1788 C 0.47744 0.87066 0.21944 0.0
C1789 C 0.49091 0.81061 0.22889 0.0
H1790 H 0.4885 0.80224 0.19529 0.0
H1791 H 0.47085 0.89913 0.22076 0.0
C1792 C 0.44132 0.86685 0.15725 0.0
N1793 N 0.42145 0.82756 0.14297 0.0
C1794 C 0.43737 0.82174 0.15998 0.0
C1795 C 0.43518 0.8919 0.14723 0.0
C1796 C 0.42731 0.80251 0.15265 0.0
C1797 C 0.42515 0.87145 0.14012 0.0
C1798 C 0.45344 0.80115 0.19928 0.0
C1799 C 0.4541 0.75337 0.20094 0.0
C1800 C 0.44891 0.82874 0.20967 0.0
C1801 C 0.4502 0.73391 0.21299 0.0
C1802 C 0.4451 0.80797 0.22157 0.0
N1803 N 0.44583 0.76139 0.22296 0.0
C1804 C 0.47266 0.75314 0.16464 0.0
C1805 C 0.46446 0.79204 0.14572 0.0
C1806 C 0.4744 0.7129 0.15728 0.0
N1807 N 0.46751 0.7912 0.15886 0.0
C1808 C 0.46589 0.75235 0.13801 0.0
C1809 C 0.4706 0.71177 0.14389 0.0
H1810 H 0.47517 0.75386 0.17507 0.0
H1811 H 0.46056 0.82306 0.14133 0.0
C1812 C 0.42389 0.91944 0.18837 0.0
N1813 N 0.42993 0.87794 0.18781 0.0
C1814 C 0.41055 0.92162 0.18972 0.0
C1815 C 0.40992 0.83832 0.19022 0.0
C1816 C 0.42327 0.83774 0.18891 0.0
C1817 C 0.40337 0.88064 0.19034 0.0
H1818 H 0.42943 0.95083 0.1874 0.0
H1819 H 0.42826 0.80512 0.18827 0.0
O1820 O 0.47928 0.88104 0.17476 0.0
O1821 O 0.45824 0.92725 0.19214 0.0
O1822 O 0.45106 0.88673 0.16437 0.0
O1823 O 0.45754 0.82061 0.18764 0.0
H1824 H 0.50021 0.82934 0.17675 0.0
H1825 H 0.4761 0.90465 0.14958 0.0
H1826 H 0.51395 0.80616 0.15776 0.0
H1827 H 0.49037 0.88067 0.13109 0.0
H1828 H 0.45814 0.05382 0.21868 0.0
H1829 H 0.48332 0.94541 0.19129 0.0
H1830 H 0.44696 0.98932 0.20728 0.0
H1831 H 0.49381 0.01054 0.2029 0.0
H1832 H 0.4893 0.05308 0.15106 0.0
H1833 H 0.44806 0.05157 0.14595 0.0
H1834 H 0.49902 0.76413 0.21424 0.0
H1835 H 0.48085 0.86249 0.24042 0.0
H1836 H 0.44201 0.80168 0.16765 0.0
H1837 H 0.43812 0.92679 0.14494 0.0
H1838 H 0.42416 0.76766 0.15468 0.0
H1839 H 0.4203 0.89048 0.13235 0.0
H1840 H 0.45764 0.73156 0.19301 0.0
H1841 H 0.4484 0.8658 0.20863 0.0
H1842 H 0.45068 0.69698 0.21441 0.0
H1843 H 0.44161 0.82891 0.2297 0.0
H1844 H 0.47844 0.68278 0.16207 0.0
H1845 H 0.46291 0.75293 0.1277 0.0
H1846 H 0.40588 0.95497 0.19003 0.0
H1847 H 0.40474 0.80597 0.19061 0.0
Li1848 Li 0.30307 0.87468 0.18381 0.0
Li1849 Li 0.28636 0.91419 0.16945 0.0
Li1850 Li 0.28095 0.88453 0.19124 0.0
Li1851 Li 0.28502 0.83038 0.17333 0.0
C1852 C 0.29212 0.96628 0.19589 0.0
N1853 N 0.28796 0.03225 0.21522 0.0
C1854 C 0.28374 0.00297 0.19346 0.0
C1855 C 0.29848 0.96332 0.2081 0.0
C1856 C 0.28175 0.03595 0.20337 0.0
C1857 C 0.29621 0.99697 0.21776 0.0
C1858 C 0.30538 0.86674 0.15303 0.0
C1859 C 0.30692 0.84848 0.12969 0.0
N1860 N 0.31863 0.86916 0.12923 0.0
C1861 C 0.3175 0.88736 0.15235 0.0
C1862 C 0.30009 0.84674 0.14163 0.0
C1863 C 0.32401 0.88844 0.14022 0.0
C1864 C 0.32762 0.83487 0.18805 0.0
N1865 N 0.32088 0.875 0.18774 0.0
C1866 C 0.34013 0.91895 0.19032 0.0
C1867 C 0.3268 0.91655 0.18903 0.0
C1868 C 0.34741 0.8782 0.19023 0.0
C1869 C 0.341 0.83568 0.18937 0.0
H1870 H 0.32265 0.80238 0.18685 0.0
H1871 H 0.3212 0.94792 0.18859 0.0
C1872 C 0.27243 0.98261 0.1552 0.0
N1873 N 0.28424 0.96412 0.15743 0.0
C1874 C 0.27105 0.02054 0.14676 0.0
C1875 C 0.29405 0.02037 0.14339 0.0
C1876 C 0.29497 0.9826 0.15191 0.0
C1877 C 0.28196 0.03956 0.14066 0.0
H1878 H 0.26409 0.96832 0.1601 0.0
H1879 H 0.30429 0.96868 0.15434 0.0
C1880 C 0.28526 0.79318 0.19892 0.0
N1881 N 0.27226 0.72456 0.21241 0.0
C1882 C 0.27213 0.78639 0.19672 0.0
C1883 C 0.29176 0.76512 0.20798 0.0
C1884 C 0.26574 0.7515 0.20363 0.0
C1885 C 0.28502 0.7306 0.21471 0.0
C1886 C 0.26167 0.87055 0.16522 0.0
C1887 C 0.24905 0.86153 0.16915 0.0
C1888 C 0.26474 0.87165 0.1517 0.0
C1889 C 0.2397 0.85348 0.15947 0.0
C1890 C 0.25512 0.86344 0.14232 0.0
N1891 N 0.24291 0.85456 0.14636 0.0
C1892 C 0.26106 0.93135 0.2044 0.0
C1893 C 0.27542 0.89347 0.21907 0.0
C1894 C 0.25531 0.95461 0.21502 0.0
N1895 N 0.27113 0.90245 0.20656 0.0
C1896 C 0.26989 0.91585 0.23 0.0
C1897 C 0.25998 0.94802 0.22798 0.0
H1898 H 0.25798 0.93844 0.19433 0.0
H1899 H 0.28362 0.87111 0.22048 0.0
C1900 C 0.29318 0.75095 0.16047 0.0
N1901 N 0.28219 0.77276 0.16417 0.0
C1902 C 0.29275 0.71228 0.1522 0.0
C1903 C 0.26961 0.71771 0.15204 0.0
C1904 C 0.27049 0.75643 0.16035 0.0
C1905 C 0.28086 0.69533 0.14775 0.0
H1906 H 0.30236 0.76479 0.16354 0.0
H1907 H 0.26184 0.77393 0.16346 0.0
O1908 O 0.29397 0.93309 0.18644 0.0
O1909 O 0.29894 0.86491 0.16489 0.0
O1910 O 0.29177 0.82713 0.19231 0.0
O1911 O 0.27093 0.87785 0.17462 0.0
H1912 H 0.27873 0.00565 0.18407 0.0
H1913 H 0.30495 0.93498 0.21014 0.0
H1914 H 0.27522 0.06437 0.20167 0.0
H1915 H 0.30098 0.99493 0.22729 0.0
H1916 H 0.30292 0.83321 0.12079 0.0
H1917 H 0.32178 0.90281 0.16106 0.0
H1918 H 0.29087 0.82967 0.14198 0.0
H1919 H 0.33336 0.90458 0.13955 0.0
H1920 H 0.34472 0.95235 0.19114 0.0
H1921 H 0.34631 0.80356 0.18921 0.0
H1922 H 0.2616 0.03487 0.14501 0.0
H1923 H 0.30272 0.03507 0.13923 0.0
H1924 H 0.26692 0.80773 0.18977 0.0
H1925 H 0.30192 0.77001 0.2098 0.0
H1926 H 0.25559 0.74584 0.20202 0.0
H1927 H 0.28993 0.70862 0.22175 0.0
H1928 H 0.24653 0.86054 0.17959 0.0
H1929 H 0.27441 0.87915 0.14851 0.0
H1930 H 0.2299 0.84631 0.16237 0.0
H1931 H 0.25737 0.8642 0.13182 0.0
H1932 H 0.24756 0.97859 0.21307 0.0
H1933 H 0.27377 0.90991 0.23984 0.0
H1934 H 0.30168 0.69681 0.14895 0.0
H1935 H 0.26025 0.70563 0.14889 0.0
Li1936 Li 0.44916 0.87489 0.56781 0.0
Li1937 Li 0.46575 0.91747 0.58165 0.0
Li1938 Li 0.47121 0.88537 0.56028 0.0
Li1939 Li 0.46748 0.83312 0.57868 0.0
C1940 C 0.45963 0.96481 0.55442 0.0
N1941 N 0.46364 0.02589 0.53376 0.0
C1942 C 0.46851 1.00063 0.55579 0.0
C1943 C 0.45269 0.9603 0.5426 0.0
C1944 C 0.47043 0.03106 0.54521 0.0
C1945 C 0.45487 0.99152 0.53226 0.0
C1946 C 0.44666 0.8681 0.59844 0.0
C1947 C 0.44461 0.84798 0.62162 0.0
N1948 N 0.43264 0.86677 0.62178 0.0
C1949 C 0.4343 0.8869 0.59883 0.0
C1950 C 0.45183 0.84821 0.60992 0.0
C1951 C 0.42739 0.88605 0.61072 0.0
C1952 C 0.42502 0.83179 0.56433 0.0
N1953 N 0.43133 0.8728 0.56395 0.0
C1954 C 0.41163 0.91341 0.56053 0.0
C1955 C 0.42496 0.91317 0.562 0.0
C1956 C 0.4048 0.87169 0.56108 0.0
C1957 C 0.41167 0.83044 0.56291 0.0
H1958 H 0.43034 0.80031 0.56608 0.0
H1959 H 0.4302 0.94537 0.56206 0.0
C1960 C 0.47927 0.99139 0.59348 0.0
N1961 N 0.46781 0.96894 0.59312 0.0
C1962 C 0.48072 0.03107 0.60121 0.0
C1963 C 0.45856 0.02359 0.60805 0.0
C1964 C 0.45753 0.98434 0.60014 0.0
C1965 C 0.47026 0.04759 0.60862 0.0
H1966 H 0.48721 0.97903 0.58752 0.0
H1967 H 0.44843 0.96674 0.59938 0.0
C1968 C 0.46742 0.79308 0.55346 0.0
N1969 N 0.48081 0.72417 0.54051 0.0
C1970 C 0.48052 0.78676 0.55594 0.0
C1971 C 0.46114 0.76441 0.54438 0.0
C1972 C 0.48711 0.75171 0.5493 0.0
C1973 C 0.46808 0.72975 0.53793 0.0
C1974 C 0.49022 0.87708 0.5869 0.0
C1975 C 0.50312 0.86951 0.58379 0.0
C1976 C 0.48644 0.8801 0.60019 0.0
C1977 C 0.51205 0.86476 0.59408 0.0
C1978 C 0.49564 0.87518 0.61019 0.0
N1979 N 0.50815 0.86764 0.60696 0.0
C1980 C 0.49165 0.92789 0.54658 0.0
C1981 C 0.47622 0.89355 0.53237 0.0
C1982 C 0.49756 0.94952 0.53576 0.0
N1983 N 0.48102 0.90143 0.54474 0.0
C1984 C 0.48182 0.91465 0.52127 0.0
C1985 C 0.49249 0.94388 0.52291 0.0
H1986 H 0.4951 0.93434 0.55655 0.0
H1987 H 0.46757 0.87329 0.53122 0.0
C1988 C 0.45972 0.75363 0.59189 0.0
N1989 N 0.47057 0.77669 0.58836 0.0
C1990 C 0.46033 0.71608 0.60057 0.0
C1991 C 0.48337 0.7248 0.60136 0.0
C1992 C 0.48232 0.7624 0.59266 0.0
C1993 C 0.47224 0.70173 0.60568 0.0
H1994 H 0.4505 0.7657 0.58837 0.0
H1995 H 0.49086 0.78068 0.58961 0.0
O1996 O 0.45792 0.93378 0.5645 0.0
O1997 O 0.45348 0.86807 0.58679 0.0
O1998 O 0.46072 0.8272 0.55978 0.0
O1999 O 0.48139 0.88126 0.5769 0.0
H2000 H 0.474 0.00445 0.56485 0.0
H2001 H 0.44584 0.93255 0.54135 0.0
H2002 H 0.47737 0.05867 0.54607 0.0
H2003 H 0.44964 0.98824 0.52302 0.0
H2004 H 0.44851 0.83272 0.63057 0.0
H2005 H 0.43012 0.90247 0.59007 0.0
H2006 H 0.46128 0.83275 0.60982 0.0
H2007 H 0.41784 0.90072 0.61117 0.0
H2008 H 0.40667 0.94606 0.55948 0.0
H2009 H 0.40674 0.79759 0.56342 0.0
H2010 H 0.4898 0.04925 0.60109 0.0
H2011 H 0.45026 0.03529 0.6136 0.0
H2012 H 0.48556 0.80858 0.5629 0.0
H2013 H 0.45101 0.76894 0.54235 0.0
H2014 H 0.49724 0.7464 0.55113 0.0
H2015 H 0.46334 0.7073 0.53088 0.0
H2016 H 0.50619 0.86708 0.57353 0.0
H2017 H 0.47654 0.88647 0.60276 0.0
H2018 H 0.52206 0.85874 0.59182 0.0
H2019 H 0.49284 0.87742 0.62053 0.0
H2020 H 0.50579 0.97158 0.53748 0.0
H2021 H 0.47742 0.91007 0.51161 0.0
H2022 H 0.45149 0.69947 0.60362 0.0
H2023 H 0.49278 0.71418 0.60477 0.0
Li2024 Li 0.28246 0.86945 0.56125 0.0
Li2025 Li 0.28609 0.92025 0.58004 0.0
Li2026 Li 0.30452 0.87758 0.56928 0.0
Li2027 Li 0.28739 0.83616 0.58288 0.0
C2028 C 0.29037 0.95696 0.55197 0.0
N2029 N 0.28443 0.01943 0.53218 0.0
C2030 C 0.28005 0.98725 0.55357 0.0
C2031 C 0.29787 0.95915 0.54047 0.0
C2032 C 0.27715 0.01839 0.5434 0.0
C2033 C 0.29465 0.99076 0.53053 0.0
C2034 C 0.26014 0.89013 0.57905 0.0
C2035 C 0.24056 0.89979 0.59156 0.0
N2036 N 0.23556 0.92511 0.58142 0.0
C2037 C 0.25477 0.9159 0.56871 0.0
C2038 C 0.25296 0.88166 0.59054 0.0
C2039 C 0.24235 0.93341 0.57012 0.0
C2040 C 0.26247 0.82539 0.54736 0.0
N2041 N 0.27292 0.85285 0.54546 0.0
C2042 C 0.27207 0.8391 0.52199 0.0
C2043 C 0.27767 0.86042 0.53305 0.0
C2044 C 0.26158 0.80926 0.52374 0.0
C2045 C 0.25665 0.80312 0.53661 0.0
H2046 H 0.25912 0.81859 0.55734 0.0
H2047 H 0.28631 0.88046 0.53179 0.0
C2048 C 0.29418 0.99954 0.59302 0.0
N2049 N 0.28319 0.97659 0.58993 0.0
C2050 C 0.29392 0.03771 0.60149 0.0
C2051 C 0.27092 0.02928 0.60323 0.0
C2052 C 0.27164 0.99096 0.59476 0.0
C2053 C 0.28218 0.0531 0.60677 0.0
H2054 H 0.30327 0.9871 0.58924 0.0
H2055 H 0.263 0.97239 0.59231 0.0
C2056 C 0.29389 0.78854 0.55571 0.0
N2057 N 0.29042 0.72671 0.53515 0.0
C2058 C 0.28506 0.75254 0.55701 0.0
C2059 C 0.30108 0.79282 0.54405 0.0
C2060 C 0.28341 0.72172 0.54647 0.0
C2061 C 0.29916 0.76124 0.53375 0.0
C2062 C 0.30041 0.88999 0.60203 0.0
C2063 C 0.31202 0.89973 0.60839 0.0
C2064 C 0.28907 0.88771 0.60944 0.0
C2065 C 0.3121 0.90706 0.62212 0.0
C2066 C 0.28955 0.89528 0.62314 0.0
N2067 N 0.30095 0.90471 0.62914 0.0
C2068 C 0.32881 0.91764 0.56345 0.0
C2069 C 0.32852 0.83627 0.56581 0.0
C2070 C 0.34214 0.91716 0.56171 0.0
N2071 N 0.32235 0.87756 0.56553 0.0
C2072 C 0.34181 0.83419 0.56411 0.0
C2073 C 0.34881 0.87501 0.56213 0.0
H2074 H 0.32364 0.95001 0.56345 0.0
H2075 H 0.32312 0.80502 0.5676 0.0
C2076 C 0.27323 0.76648 0.59601 0.0
N2077 N 0.28504 0.78554 0.59433 0.0
C2078 C 0.27175 0.7275 0.60402 0.0
C2079 C 0.2946 0.72892 0.60839 0.0
C2080 C 0.29563 0.76781 0.60032 0.0
C2081 C 0.28256 0.70805 0.61022 0.0
H2082 H 0.26501 0.78125 0.591 0.0
H2083 H 0.30491 0.78362 0.59866 0.0
O2084 O 0.29348 0.92661 0.56185 0.0
O2085 O 0.27225 0.87238 0.57789 0.0
O2086 O 0.29533 0.81997 0.56573 0.0
O2087 O 0.30014 0.8834 0.58858 0.0
H2088 H 0.2744 0.98698 0.56259 0.0
H2089 H 0.30602 0.93637 0.53921 0.0
H2090 H 0.26914 0.04188 0.54446 0.0
H2091 H 0.30029 0.99254 0.52152 0.0
H2092 H 0.23492 0.89373 0.60042 0.0
H2093 H 0.26008 0.92201 0.55966 0.0
H2094 H 0.25694 0.86153 0.5986 0.0
H2095 H 0.23808 0.9535 0.5622 0.0
H2096 H 0.27634 0.84393 0.51228 0.0
H2097 H 0.2486 0.78027 0.53838 0.0
H2098 H 0.30288 0.05412 0.6042 0.0
H2099 H 0.26166 0.03998 0.60705 0.0
H2100 H 0.27941 0.7489 0.56598 0.0
H2101 H 0.30792 0.82065 0.5429 0.0
H2102 H 0.27651 0.69397 0.54727 0.0
H2103 H 0.30456 0.76433 0.52461 0.0
H2104 H 0.32087 0.90175 0.60276 0.0
H2105 H 0.28 0.88042 0.60464 0.0
H2106 H 0.32101 0.91468 0.62718 0.0
H2107 H 0.28085 0.89371 0.62899 0.0
H2108 H 0.34721 0.94948 0.56049 0.0
H2109 H 0.34659 0.80103 0.56448 0.0
H2110 H 0.26228 0.71281 0.60538 0.0
H2111 H 0.30316 0.71476 0.61294 0.0
Li2112 Li 0.53643 0.6647 0.33215 0.0
Li2113 Li 0.53062 0.63606 0.31032 0.0
Li2114 Li 0.5343 0.57928 0.32895 0.0
Li2115 Li 0.55197 0.62199 0.31794 0.0
C2116 C 0.51211 0.625 0.33761 0.0
N2117 N 0.49486 0.61572 0.3583 0.0
C2118 C 0.49891 0.62514 0.33508 0.0
C2119 C 0.51653 0.62027 0.35066 0.0
C2120 C 0.49034 0.62037 0.34568 0.0
C2121 C 0.50766 0.61559 0.36098 0.0
C2122 C 0.54156 0.71796 0.30641 0.0
C2123 C 0.54293 0.75204 0.28456 0.0
N2124 N 0.53583 0.78847 0.28887 0.0
C2125 C 0.53435 0.7559 0.31063 0.0
C2126 C 0.54596 0.71615 0.29328 0.0
C2127 C 0.53154 0.79114 0.30162 0.0
C2128 C 0.54587 0.73533 0.34841 0.0
N2129 N 0.53482 0.71485 0.34434 0.0
C2130 C 0.52233 0.76939 0.35664 0.0
C2131 C 0.52315 0.73163 0.34806 0.0
C2132 C 0.53363 0.79015 0.36132 0.0
C2133 C 0.54551 0.77297 0.35701 0.0
H2134 H 0.55498 0.72318 0.34471 0.0
H2135 H 0.51445 0.71639 0.3442 0.0
C2136 C 0.5236 0.64133 0.2827 0.0
N2137 N 0.52053 0.65499 0.29523 0.0
C2138 C 0.51828 0.66398 0.2717 0.0
C2139 C 0.50623 0.71251 0.2867 0.0
C2140 C 0.51171 0.68877 0.29739 0.0
C2141 C 0.50984 0.70127 0.27364 0.0
H2142 H 0.53065 0.61449 0.28121 0.0
H2143 H 0.50957 0.69936 0.30747 0.0
C2144 C 0.55622 0.61769 0.34782 0.0
N2145 N 0.57245 0.62384 0.36951 0.0
C2146 C 0.56765 0.64281 0.34695 0.0
C2147 C 0.55309 0.59549 0.35973 0.0
C2148 C 0.57571 0.64556 0.35802 0.0
C2149 C 0.5614 0.5991 0.37058 0.0
C2150 C 0.5487 0.55041 0.30281 0.0
C2151 C 0.55179 0.50558 0.30678 0.0
C2152 C 0.55486 0.56973 0.29179 0.0
C2153 C 0.56116 0.48108 0.29979 0.0
C2154 C 0.56419 0.54415 0.28507 0.0
N2155 N 0.56713 0.50073 0.28918 0.0
C2156 C 0.51884 0.50888 0.34225 0.0
C2157 C 0.54143 0.49922 0.34246 0.0
C2158 C 0.51732 0.47084 0.35073 0.0
N2159 N 0.5308 0.52279 0.33849 0.0
C2160 C 0.54034 0.46066 0.3507 0.0
C2161 C 0.52818 0.44639 0.35509 0.0
H2162 H 0.51049 0.52788 0.33899 0.0
H2163 H 0.55084 0.51126 0.33949 0.0
C2164 C 0.57588 0.65227 0.30741 0.0
N2165 N 0.56992 0.61779 0.31418 0.0
C2166 C 0.58924 0.6526 0.30619 0.0
C2167 C 0.59006 0.58171 0.31882 0.0
C2168 C 0.57668 0.58242 0.31965 0.0
C2169 C 0.59648 0.61762 0.31223 0.0
H2170 H 0.57033 0.68047 0.30341 0.0
H2171 H 0.57168 0.55581 0.32514 0.0
O2172 O 0.5206 0.62925 0.32731 0.0
O2173 O 0.54416 0.68259 0.31502 0.0
O2174 O 0.54832 0.61366 0.33698 0.0
O2175 O 0.53972 0.57529 0.30969 0.0
H2176 H 0.49534 0.6288 0.32503 0.0
H2177 H 0.52669 0.62053 0.35278 0.0
H2178 H 0.4801 0.62035 0.34388 0.0
H2179 H 0.51096 0.61191 0.37112 0.0
H2180 H 0.54618 0.75085 0.27436 0.0
H2181 H 0.53081 0.75794 0.32071 0.0
H2182 H 0.55146 0.68698 0.28978 0.0
H2183 H 0.52589 0.82053 0.30474 0.0
H2184 H 0.51298 0.78223 0.35959 0.0
H2185 H 0.55443 0.78914 0.36002 0.0
H2186 H 0.52105 0.65328 0.2618 0.0
H2187 H 0.49977 0.74097 0.28867 0.0
H2188 H 0.57023 0.66046 0.33787 0.0
H2189 H 0.54436 0.57551 0.36061 0.0
H2190 H 0.58457 0.66499 0.35747 0.0
H2191 H 0.55908 0.58212 0.37985 0.0
H2192 H 0.54699 0.48981 0.31515 0.0
H2193 H 0.55262 0.6044 0.2886 0.0
H2194 H 0.56369 0.44642 0.30279 0.0
H2195 H 0.56912 0.55888 0.27661 0.0
H2196 H 0.50778 0.46076 0.3539 0.0
H2197 H 0.54895 0.44303 0.35398 0.0
H2198 H 0.59391 0.68097 0.30112 0.0
H2199 H 0.59537 0.55405 0.32354 0.0
Li2200 Li 0.69671 0.62625 0.3182 0.0
Li2201 Li 0.71428 0.66862 0.32941 0.0
Li2202 Li 0.71805 0.61375 0.31034 0.0
Li2203 Li 0.71258 0.58299 0.33203 0.0
C2204 C 0.69968 0.70048 0.30397 0.0
N2205 N 0.68103 0.75297 0.2916 0.0
C2206 C 0.69624 0.74343 0.30916 0.0
C2207 C 0.69376 0.68449 0.29239 0.0
C2208 C 0.68677 0.76941 0.30278 0.0
C2209 C 0.68431 0.71144 0.28631 0.0
C2210 C 0.6924 0.62665 0.34803 0.0
C2211 C 0.68707 0.64019 0.37106 0.0
N2212 N 0.67592 0.61646 0.3694 0.0
C2213 C 0.68089 0.60226 0.34659 0.0
C2214 C 0.69552 0.64573 0.36039 0.0
C2215 C 0.67269 0.59755 0.35749 0.0
C2216 C 0.67284 0.5968 0.30724 0.0
N2217 N 0.67876 0.63051 0.31437 0.0
C2218 C 0.65857 0.66579 0.3193 0.0
C2219 C 0.67195 0.66512 0.32017 0.0
C2220 C 0.6522 0.63061 0.31235 0.0
C2221 C 0.65948 0.59646 0.30598 0.0
H2222 H 0.67843 0.56912 0.303 0.0
H2223 H 0.6769 0.69108 0.32595 0.0
C2224 C 0.72973 0.74187 0.34146 0.0
N2225 N 0.71778 0.72421 0.33935 0.0
C2226 C 0.73142 0.77967 0.35001 0.0
C2227 C 0.70854 0.78072 0.35382 0.0
C2228 C 0.70728 0.74344 0.34514 0.0
C2229 C 0.72074 0.79913 0.35654 0.0
H2230 H 0.73796 0.72624 0.3367 0.0
H2231 H 0.69788 0.72897 0.34327 0.0
C2232 C 0.70689 0.53264 0.30552 0.0
N2233 N 0.71182 0.46591 0.28656 0.0
C2234 C 0.7135 0.49241 0.30897 0.0
C2235 C 0.70266 0.53861 0.29244 0.0
C2236 C 0.71592 0.45915 0.29924 0.0
C2237 C 0.70529 0.50458 0.28299 0.0
C2238 C 0.73669 0.62408 0.3375 0.0
C2239 C 0.74983 0.627 0.33483 0.0
C2240 C 0.73237 0.62591 0.35064 0.0
C2241 C 0.75845 0.63193 0.34538 0.0
C2242 C 0.74129 0.63087 0.36091 0.0
N2243 N 0.75404 0.63378 0.35809 0.0
C2244 C 0.72548 0.61177 0.28271 0.0
C2245 C 0.73675 0.56146 0.29714 0.0
C2246 C 0.7309 0.59013 0.27159 0.0
N2247 N 0.7282 0.59625 0.29515 0.0
C2248 C 0.7423 0.53866 0.28633 0.0
C2249 C 0.73907 0.5519 0.27332 0.0
H2250 H 0.71862 0.63933 0.28136 0.0
H2251 H 0.7386 0.5494 0.30714 0.0
C2252 C 0.70539 0.51495 0.35097 0.0
N2253 N 0.71532 0.53201 0.34371 0.0
C2254 C 0.7071 0.47617 0.35895 0.0
C2255 C 0.72918 0.47218 0.35162 0.0
C2256 C 0.72708 0.51154 0.3439 0.0
C2257 C 0.71907 0.45413 0.35921 0.0
H2258 H 0.69604 0.53056 0.35034 0.0
H2259 H 0.73475 0.5251 0.3378 0.0
O2260 O 0.70876 0.67414 0.31023 0.0
O2261 O 0.70042 0.63275 0.33737 0.0
O2262 O 0.7047 0.56614 0.31486 0.0
O2263 O 0.72815 0.61981 0.32725 0.0
H2264 H 0.70081 0.75658 0.31803 0.0
H2265 H 0.69629 0.65136 0.28823 0.0
H2266 H 0.68396 0.80262 0.30673 0.0
H2267 H 0.67957 0.69929 0.27741 0.0
H2268 H 0.68937 0.65483 0.38066 0.0
H2269 H 0.67841 0.58629 0.33723 0.0
H2270 H 0.70435 0.66476 0.36176 0.0
H2271 H 0.66378 0.5787 0.35649 0.0
H2272 H 0.65323 0.69282 0.32427 0.0
H2273 H 0.65485 0.56864 0.30063 0.0
H2274 H 0.74098 0.79338 0.3515 0.0
H2275 H 0.70002 0.79422 0.35862 0.0
H2276 H 0.7168 0.48698 0.31903 0.0
H2277 H 0.69759 0.56954 0.28954 0.0
H2278 H 0.7211 0.42801 0.30177 0.0
H2279 H 0.70218 0.50902 0.27281 0.0
H2280 H 0.75332 0.62562 0.32469 0.0
H2281 H 0.72226 0.62337 0.35287 0.0
H2282 H 0.76865 0.63434 0.34345 0.0
H2283 H 0.73807 0.63239 0.37112 0.0
H2284 H 0.72843 0.60236 0.26175 0.0
H2285 H 0.74853 0.50941 0.28814 0.0
H2286 H 0.69906 0.46271 0.36457 0.0
H2287 H 0.73854 0.4559 0.35161 0.0
Li2288 Li 0.5339 0.67727 0.92408 0.0
Li2289 Li 0.55136 0.63375 0.93518 0.0
Li2290 Li 0.53525 0.59148 0.9216 0.0
Li2291 Li 0.52997 0.62294 0.94322 0.0
C2292 C 0.55511 0.6334 0.90519 0.0
N2293 N 0.57079 0.62118 0.88327 0.0
C2294 C 0.56635 0.6072 0.90621 0.0
C2295 C 0.55191 0.65359 0.893 0.0
C2296 C 0.57413 0.60136 0.89502 0.0
C2297 C 0.55994 0.64694 0.88205 0.0
C2298 C 0.5489 0.70766 0.94956 0.0
C2299 C 0.56493 0.71491 0.96676 0.0
N2300 N 0.56795 0.75763 0.96214 0.0
C2301 C 0.55211 0.75177 0.94505 0.0
C2302 C 0.55529 0.68918 0.96057 0.0
C2303 C 0.56179 0.77644 0.95152 0.0
C2304 C 0.519 0.74925 0.91069 0.0
N2305 N 0.53082 0.73281 0.91402 0.0
C2306 C 0.54092 0.78851 0.89992 0.0
C2307 C 0.54167 0.75246 0.90907 0.0
C2308 C 0.52887 0.80461 0.89571 0.0
C2309 C 0.5178 0.78546 0.90151 0.0
H2310 H 0.51048 0.73329 0.91476 0.0
H2311 H 0.55096 0.7389 0.9119 0.0
C2312 C 0.5754 0.60245 0.94534 0.0
N2313 N 0.5694 0.6368 0.93855 0.0
C2314 C 0.58878 0.6018 0.94634 0.0
C2315 C 0.58955 0.67204 0.93342 0.0
C2316 C 0.57616 0.6716 0.93278 0.0
C2317 C 0.596 0.63633 0.94006 0.0
H2318 H 0.56984 0.57463 0.94956 0.0
H2319 H 0.57114 0.69809 0.92727 0.0
C2320 C 0.51114 0.63391 0.91617 0.0
N2321 N 0.49357 0.64459 0.89583 0.0
C2322 C 0.49802 0.63633 0.919 0.0
C2323 C 0.51532 0.63687 0.903 0.0
C2324 C 0.48928 0.64173 0.90858 0.0
C2325 C 0.50629 0.64228 0.89286 0.0
C2326 C 0.53996 0.54043 0.94767 0.0
C2327 C 0.53144 0.50535 0.94403 0.0
C2328 C 0.54508 0.54109 0.96052 0.0
C2329 C 0.52811 0.4717 0.95336 0.0
C2330 C 0.54149 0.50685 0.96956 0.0
N2331 N 0.53315 0.47318 0.96583 0.0
C2332 C 0.5441 0.51731 0.90652 0.0
C2333 C 0.52146 0.52491 0.90587 0.0
C2334 C 0.54356 0.47871 0.89829 0.0
N2335 N 0.53319 0.54013 0.90992 0.0
C2336 C 0.52046 0.4862 0.89766 0.0
C2337 C 0.53163 0.46277 0.89377 0.0
H2338 H 0.55322 0.52846 0.91045 0.0
H2339 H 0.51284 0.54219 0.90916 0.0
C2340 C 0.52398 0.6154 0.97105 0.0
N2341 N 0.51979 0.60666 0.95849 0.0
C2342 C 0.51823 0.59344 0.98193 0.0
C2343 C 0.50344 0.55634 0.96684 0.0
C2344 C 0.50952 0.57872 0.95626 0.0
C2345 C 0.50799 0.5627 0.97985 0.0
H2346 H 0.53226 0.63716 0.97258 0.0
H2347 H 0.50657 0.57148 0.94616 0.0
O2348 O 0.54752 0.64048 0.91614 0.0
O2349 O 0.53961 0.68266 0.9432 0.0
O2350 O 0.5198 0.62928 0.9263 0.0
O2351 O 0.54305 0.57446 0.93878 0.0
H2352 H 0.569 0.59106 0.9155 0.0
H2353 H 0.54334 0.67438 0.89198 0.0
H2354 H 0.58282 0.58105 0.89569 0.0
H2355 H 0.55755 0.66238 0.87257 0.0
H2356 H 0.57004 0.70082 0.97519 0.0
H2357 H 0.54717 0.7668 0.93665 0.0
H2358 H 0.55302 0.65494 0.96411 0.0
H2359 H 0.5644 0.81055 0.94811 0.0
H2360 H 0.54971 0.80306 0.89596 0.0
H2361 H 0.50833 0.79714 0.89859 0.0
H2362 H 0.59347 0.57357 0.95147 0.0
H2363 H 0.59483 0.6994 0.92853 0.0
H2364 H 0.49464 0.63418 0.92916 0.0
H2365 H 0.52541 0.63466 0.90066 0.0
H2366 H 0.4791 0.64371 0.91062 0.0
H2367 H 0.50941 0.64458 0.88262 0.0
H2368 H 0.52729 0.50442 0.93419 0.0
H2369 H 0.55153 0.5683 0.96358 0.0
H2370 H 0.52147 0.44455 0.9507 0.0
H2371 H 0.54527 0.50725 0.97957 0.0
H2372 H 0.55237 0.46091 0.89571 0.0
H2373 H 0.51107 0.4748 0.89438 0.0
H2374 H 0.522 0.59931 0.99182 0.0
H2375 H 0.49571 0.53236 0.96478 0.0
Li2376 Li 0.71318 0.66126 0.92176 0.0
Li2377 Li 0.71788 0.63006 0.94347 0.0
Li2378 Li 0.71362 0.57591 0.92428 0.0
Li2379 Li 0.69647 0.62186 0.93498 0.0
C2380 C 0.737 0.61664 0.91671 0.0
N2381 N 0.75487 0.60447 0.8967 0.0
C2382 C 0.75009 0.62184 0.91939 0.0
C2383 C 0.73301 0.6051 0.90387 0.0
C2384 C 0.75897 0.61565 0.90913 0.0
C2385 C 0.74218 0.59909 0.89389 0.0
C2386 C 0.70849 0.7138 0.9476 0.0
C2387 C 0.70646 0.74911 0.96921 0.0
N2388 N 0.71513 0.78184 0.96558 0.0
C2389 C 0.71738 0.74782 0.94408 0.0
C2390 C 0.703 0.71438 0.96028 0.0
C2391 C 0.72061 0.78189 0.95332 0.0
C2392 C 0.7057 0.74401 0.91041 0.0
N2393 N 0.71546 0.71285 0.91011 0.0
C2394 C 0.72673 0.75852 0.89412 0.0
C2395 C 0.72601 0.71992 0.90237 0.0
C2396 C 0.71661 0.79042 0.894 0.0
C2397 C 0.70606 0.78315 0.90238 0.0
H2398 H 0.69766 0.73862 0.91701 0.0
H2399 H 0.73397 0.69629 0.90265 0.0
C2400 C 0.72348 0.637 0.97144 0.0
N2401 N 0.72789 0.64573 0.95896 0.0
C2402 C 0.72904 0.65894 0.98243 0.0
C2403 C 0.74412 0.69598 0.96764 0.0
C2404 C 0.73825 0.67349 0.95694 0.0
C2405 C 0.73923 0.69009 0.98054 0.0
H2406 H 0.71517 0.61522 0.97281 0.0
H2407 H 0.7414 0.68067 0.94691 0.0
C2408 C 0.69334 0.62977 0.90541 0.0
N2409 N 0.67892 0.66088 0.88414 0.0
C2410 C 0.68363 0.66236 0.90737 0.0
C2411 C 0.69564 0.61273 0.89263 0.0
C2412 C 0.67647 0.67773 0.8965 0.0
C2413 C 0.68827 0.62897 0.88201 0.0
C2414 C 0.69784 0.54773 0.94929 0.0
C2415 C 0.69403 0.50499 0.94424 0.0
C2416 C 0.69157 0.56606 0.96038 0.0
C2417 C 0.68389 0.48146 0.95029 0.0
C2418 C 0.68145 0.54151 0.96614 0.0
N2419 N 0.67785 0.50008 0.96101 0.0
C2420 C 0.72796 0.49864 0.91293 0.0
C2421 C 0.70573 0.50354 0.90811 0.0
C2422 C 0.72924 0.46081 0.90432 0.0
N2423 N 0.71633 0.51946 0.91452 0.0
C2424 C 0.70655 0.46584 0.89952 0.0
C2425 C 0.71843 0.44402 0.89748 0.0
H2426 H 0.73629 0.51209 0.91804 0.0
H2427 H 0.69662 0.52089 0.90946 0.0
C2428 C 0.67252 0.65444 0.94534 0.0
N2429 N 0.67834 0.62087 0.93808 0.0
C2430 C 0.65914 0.65585 0.94635 0.0
C2431 C 0.658 0.58818 0.93237 0.0
C2432 C 0.6714 0.5878 0.93174 0.0
C2433 C 0.65174 0.62295 0.93959 0.0
H2434 H 0.67821 0.68103 0.94998 0.0
H2435 H 0.67628 0.56191 0.92588 0.0
O2436 O 0.72823 0.62157 0.92673 0.0
O2437 O 0.70534 0.67969 0.93876 0.0
O2438 O 0.70044 0.61409 0.91594 0.0
O2439 O 0.70758 0.57172 0.94332 0.0
H2440 H 0.75335 0.63044 0.9293 0.0
H2441 H 0.72294 0.60112 0.90162 0.0
H2442 H 0.76914 0.61961 0.91106 0.0
H2443 H 0.73921 0.59021 0.88391 0.0
H2444 H 0.7023 0.74986 0.97907 0.0
H2445 H 0.7219 0.74757 0.93441 0.0
H2446 H 0.69634 0.6878 0.96332 0.0
H2447 H 0.72753 0.80826 0.95075 0.0
H2448 H 0.7352 0.76375 0.88804 0.0
H2449 H 0.69812 0.8073 0.90264 0.0
H2450 H 0.72514 0.65282 0.99225 0.0
H2451 H 0.75192 0.71979 0.96574 0.0
H2452 H 0.68171 0.67609 0.91716 0.0
H2453 H 0.703 0.58711 0.8909 0.0
H2454 H 0.66897 0.70311 0.89789 0.0
H2455 H 0.68997 0.61614 0.87207 0.0
H2456 H 0.69883 0.49018 0.93571 0.0
H2457 H 0.69428 0.59935 0.96432 0.0
H2458 H 0.6808 0.44842 0.94645 0.0
H2459 H 0.67643 0.5555 0.97464 0.0
H2460 H 0.73856 0.44491 0.90301 0.0
H2461 H 0.69803 0.45459 0.89427 0.0
H2462 H 0.65461 0.68337 0.95192 0.0
H2463 H 0.65259 0.56204 0.9271 0.0
Li2464 Li 0.47049 0.36801 0.69053 0.0
Li2465 Li 0.46572 0.42229 0.67185 0.0
Li2466 Li 0.44875 0.3759 0.68207 0.0
Li2467 Li 0.46501 0.33968 0.669 0.0
C2468 C 0.46518 0.46009 0.6974 0.0
N2469 N 0.47718 0.53102 0.71088 0.0
C2470 C 0.47836 0.46754 0.6958 0.0
C2471 C 0.45812 0.48867 0.70586 0.0
C2472 C 0.48424 0.50361 0.7027 0.0
C2473 C 0.46436 0.52435 0.71259 0.0
C2474 C 0.4886 0.36594 0.66383 0.0
C2475 C 0.49502 0.36808 0.6408 0.0
N2476 N 0.50501 0.33949 0.64362 0.0
C2477 C 0.49896 0.33672 0.66652 0.0
C2478 C 0.48663 0.38186 0.65087 0.0
C2479 C 0.50713 0.32369 0.65616 0.0
C2480 C 0.4877 0.3128 0.70435 0.0
N2481 N 0.48017 0.35067 0.70602 0.0
C2482 C 0.48358 0.3481 0.72957 0.0
C2483 C 0.47809 0.36881 0.71832 0.0
C2484 C 0.49133 0.30872 0.7281 0.0
C2485 C 0.4935 0.2915 0.71526 0.0
H2486 H 0.48866 0.29766 0.69459 0.0
H2487 H 0.47169 0.39788 0.71948 0.0
C2488 C 0.45789 0.49973 0.65766 0.0
N2489 N 0.46863 0.47951 0.66266 0.0
C2490 C 0.45884 0.53719 0.64898 0.0
C2491 C 0.48193 0.53392 0.65114 0.0
C2492 C 0.48053 0.49624 0.65978 0.0
C2493 C 0.47098 0.55432 0.64542 0.0
H2494 H 0.44855 0.48565 0.66007 0.0
H2495 H 0.48894 0.47917 0.66374 0.0
C2496 C 0.45373 0.2995 0.69773 0.0
N2497 N 0.44508 0.26119 0.72124 0.0
C2498 C 0.45353 0.25164 0.69934 0.0
C2499 C 0.4495 0.32789 0.70808 0.0
C2500 C 0.44913 0.23293 0.71129 0.0
C2501 C 0.44518 0.30786 0.71989 0.0
C2502 C 0.4427 0.36652 0.65544 0.0
C2503 C 0.43863 0.32129 0.65779 0.0
C2504 C 0.43687 0.39238 0.64539 0.0
C2505 C 0.42875 0.30275 0.65007 0.0
C2506 C 0.42701 0.37261 0.63789 0.0
N2507 N 0.42319 0.32858 0.64036 0.0
C2508 C 0.42472 0.41738 0.68725 0.0
C2509 C 0.42419 0.33567 0.68689 0.0
C2510 C 0.41142 0.41913 0.68911 0.0
N2511 N 0.43079 0.37608 0.6861 0.0
C2512 C 0.41091 0.33581 0.68874 0.0
C2513 C 0.40434 0.37794 0.68981 0.0
H2514 H 0.43019 0.44898 0.68645 0.0
H2515 H 0.42918 0.30324 0.68574 0.0
C2516 C 0.47174 0.24925 0.66254 0.0
N2517 N 0.46839 0.29038 0.65709 0.0
C2518 C 0.47333 0.21051 0.6545 0.0
C2519 C 0.46848 0.25769 0.63531 0.0
C2520 C 0.4669 0.29547 0.64375 0.0
C2521 C 0.47159 0.21441 0.6407 0.0
H2522 H 0.47284 0.24637 0.6732 0.0
H2523 H 0.46422 0.32865 0.63969 0.0
O2524 O 0.45913 0.425 0.69081 0.0
O2525 O 0.48032 0.3784 0.67376 0.0
O2526 O 0.45823 0.31814 0.68612 0.0
O2527 O 0.45234 0.3856 0.66288 0.0
H2528 H 0.48402 0.4458 0.68935 0.0
H2529 H 0.44791 0.48327 0.70721 0.0
H2530 H 0.49443 0.50978 0.70156 0.0
H2531 H 0.45901 0.54674 0.71917 0.0
H2532 H 0.49354 0.37989 0.63071 0.0
H2533 H 0.5007 0.3243 0.67648 0.0
H2534 H 0.47854 0.40387 0.64856 0.0
H2535 H 0.51517 0.30103 0.6581 0.0
H2536 H 0.48158 0.3621 0.73933 0.0
H2537 H 0.49915 0.26056 0.71374 0.0
H2538 H 0.45016 0.55211 0.64489 0.0
H2539 H 0.49147 0.54566 0.64854 0.0
H2540 H 0.45677 0.22916 0.69143 0.0
H2541 H 0.44959 0.36499 0.70707 0.0
H2542 H 0.44894 0.19594 0.71268 0.0
H2543 H 0.44191 0.32942 0.72798 0.0
H2544 H 0.44305 0.30062 0.66547 0.0
H2545 H 0.43993 0.42737 0.6434 0.0
H2546 H 0.42551 0.26782 0.65179 0.0
H2547 H 0.4224 0.39226 0.63009 0.0
H2548 H 0.4067 0.45231 0.68987 0.0
H2549 H 0.40578 0.30332 0.68889 0.0
H2550 H 0.47544 0.17759 0.65908 0.0
H2551 H 0.46708 0.26207 0.62472 0.0
Li2552 Li 0.3039 0.37902 0.68378 0.0
Li2553 Li 0.28793 0.41527 0.67037 0.0
Li2554 Li 0.28191 0.38687 0.69168 0.0
Li2555 Li 0.28716 0.33264 0.67305 0.0
C2556 C 0.29842 0.45547 0.69932 0.0
N2557 N 0.3058 0.49422 0.72323 0.0
C2558 C 0.29834 0.50333 0.70093 0.0
C2559 C 0.30226 0.42728 0.70989 0.0
C2560 C 0.3021 0.52227 0.71309 0.0
C2561 C 0.30596 0.44755 0.72188 0.0
C2562 C 0.31061 0.38825 0.65733 0.0
C2563 C 0.32688 0.38116 0.6404 0.0
N2564 N 0.33073 0.42511 0.64292 0.0
C2565 C 0.31471 0.43339 0.65974 0.0
C2566 C 0.31672 0.36192 0.64757 0.0
C2567 C 0.32491 0.45138 0.65236 0.0
C2568 C 0.32813 0.33821 0.68847 0.0
N2569 N 0.32182 0.37921 0.68799 0.0
C2570 C 0.34153 0.42047 0.69064 0.0
C2571 C 0.32821 0.41992 0.68916 0.0
C2572 C 0.34836 0.37875 0.69091 0.0
C2573 C 0.34149 0.33716 0.68995 0.0
H2574 H 0.32283 0.3064 0.68727 0.0
H2575 H 0.32304 0.45214 0.6885 0.0
C2576 C 0.2805 0.50498 0.66413 0.0
N2577 N 0.28477 0.46513 0.65857 0.0
C2578 C 0.27879 0.54419 0.65631 0.0
C2579 C 0.28558 0.50023 0.63712 0.0
C2580 C 0.28712 0.46178 0.64532 0.0
C2581 C 0.28148 0.54222 0.64265 0.0
H2582 H 0.27863 0.50639 0.67469 0.0
H2583 H 0.29047 0.42954 0.64116 0.0
C2584 C 0.28716 0.29487 0.69876 0.0
N2585 N 0.27489 0.22436 0.71218 0.0
C2586 C 0.27426 0.285 0.69612 0.0
C2587 C 0.29381 0.2689 0.70822 0.0
C2588 C 0.26824 0.24919 0.70301 0.0
C2589 C 0.28744 0.23339 0.71491 0.0
C2590 C 0.26442 0.39244 0.66506 0.0
C2591 C 0.25488 0.42453 0.66822 0.0
C2592 C 0.26587 0.37771 0.65192 0.0
C2593 C 0.247 0.44167 0.65812 0.0
C2594 C 0.25778 0.39563 0.64211 0.0
N2595 N 0.2486 0.42701 0.64539 0.0
C2596 C 0.26669 0.44811 0.70528 0.0
C2597 C 0.27156 0.38345 0.71878 0.0
C2598 C 0.26121 0.47113 0.71606 0.0
N2599 N 0.27187 0.40539 0.70681 0.0
C2600 C 0.26605 0.40522 0.72986 0.0
C2601 C 0.2611 0.45016 0.72862 0.0
H2602 H 0.26743 0.46537 0.69579 0.0
H2603 H 0.27609 0.35014 0.7199 0.0
C2604 C 0.29553 0.25519 0.65927 0.0
N2605 N 0.28458 0.27571 0.66366 0.0
C2606 C 0.29495 0.21807 0.65044 0.0
C2607 C 0.2718 0.222 0.65128 0.0
C2608 C 0.27282 0.25943 0.66007 0.0
C2609 C 0.28298 0.20176 0.64607 0.0
H2610 H 0.30475 0.26885 0.66227 0.0
H2611 H 0.26424 0.27664 0.66357 0.0
O2612 O 0.29427 0.43654 0.68762 0.0
O2613 O 0.30072 0.36961 0.66451 0.0
O2614 O 0.29332 0.32981 0.69223 0.0
O2615 O 0.27248 0.37619 0.67472 0.0
H2616 H 0.29532 0.52561 0.69288 0.0
H2617 H 0.3023 0.39017 0.7089 0.0
H2618 H 0.30205 0.55926 0.71448 0.0
H2619 H 0.30892 0.42616 0.73014 0.0
H2620 H 0.3317 0.36114 0.63282 0.0
H2621 H 0.3101 0.45437 0.66723 0.0
H2622 H 0.31364 0.32696 0.64555 0.0
H2623 H 0.32819 0.48623 0.65414 0.0
H2624 H 0.34648 0.45324 0.69134 0.0
H2625 H 0.34642 0.30428 0.68983 0.0
H2626 H 0.27556 0.5759 0.66092 0.0
H2627 H 0.28799 0.49754 0.62668 0.0
H2628 H 0.26892 0.30469 0.68888 0.0
H2629 H 0.30379 0.27619 0.71039 0.0
H2630 H 0.25827 0.24118 0.70107 0.0
H2631 H 0.29247 0.21303 0.72226 0.0
H2632 H 0.2536 0.43618 0.67834 0.0
H2633 H 0.27332 0.35337 0.64927 0.0
H2634 H 0.2396 0.46666 0.66041 0.0
H2635 H 0.25886 0.3848 0.63188 0.0
H2636 H 0.25739 0.50552 0.71465 0.0
H2637 H 0.26619 0.38803 0.73942 0.0
H2638 H 0.3038 0.20289 0.64684 0.0
H2639 H 0.26239 0.21034 0.64815 0.0
Li2640 Li 0.44721 0.37557 0.07008 0.0
Li2641 Li 0.46458 0.41939 0.08349 0.0
Li2642 Li 0.46896 0.38659 0.06139 0.0
Li2643 Li 0.46609 0.33536 0.08004 0.0
C2644 C 0.45678 0.46651 0.05646 0.0
N2645 N 0.45915 0.52911 0.03593 0.0
C2646 C 0.46552 0.50291 0.05746 0.0
C2647 C 0.44914 0.46217 0.04511 0.0
C2648 C 0.46661 0.53413 0.04694 0.0
C2649 C 0.45051 0.49414 0.03481 0.0
C2650 C 0.45075 0.35388 0.10163 0.0
C2651 C 0.45889 0.34039 0.12372 0.0
N2652 N 0.44809 0.3161 0.12667 0.0
C2653 C 0.4397 0.32895 0.10488 0.0
C2654 C 0.46041 0.35986 0.11111 0.0
C2655 C 0.43855 0.31004 0.1176 0.0
C2656 C 0.42333 0.33193 0.06533 0.0
N2657 N 0.42928 0.37326 0.06696 0.0
C2658 C 0.40919 0.41298 0.06596 0.0
C2659 C 0.42255 0.41342 0.0672 0.0
C2660 C 0.40272 0.37076 0.0646 0.0
C2661 C 0.40996 0.32989 0.06409 0.0
H2662 H 0.42895 0.30056 0.06524 0.0
H2663 H 0.42756 0.44573 0.06862 0.0
C2664 C 0.47838 0.4919 0.09582 0.0
N2665 N 0.46694 0.46949 0.09511 0.0
C2666 C 0.47978 0.52996 0.10422 0.0
C2667 C 0.45755 0.52124 0.11075 0.0
C2668 C 0.45661 0.48329 0.10231 0.0
C2669 C 0.46927 0.54491 0.11185 0.0
H2670 H 0.48636 0.48047 0.08979 0.0
H2671 H 0.44759 0.46509 0.10134 0.0
C2672 C 0.46317 0.29799 0.05276 0.0
N2673 N 0.47264 0.23661 0.0342 0.0
C2674 C 0.47463 0.27441 0.05519 0.0
C2675 C 0.45642 0.28989 0.04099 0.0
C2676 C 0.47929 0.24364 0.04566 0.0
C2677 C 0.46139 0.25887 0.0317 0.0
C2678 C 0.49181 0.37135 0.08071 0.0
C2679 C 0.49938 0.34848 0.07132 0.0
C2680 C 0.49698 0.38227 0.09314 0.0
C2681 C 0.51195 0.33612 0.07463 0.0
C2682 C 0.50959 0.36934 0.09607 0.0
N2683 N 0.51675 0.34668 0.08683 0.0
C2684 C 0.48854 0.43134 0.04707 0.0
C2685 C 0.47273 0.39759 0.03322 0.0
C2686 C 0.49391 0.45452 0.03622 0.0
N2687 N 0.47799 0.40425 0.04545 0.0
C2688 C 0.47782 0.42003 0.02208 0.0
C2689 C 0.48832 0.4501 0.02358 0.0
H2690 H 0.49231 0.43732 0.05693 0.0
H2691 H 0.4641 0.37722 0.03221 0.0
C2692 C 0.45921 0.25059 0.09099 0.0
N2693 N 0.46956 0.27893 0.08979 0.0
C2694 C 0.4594 0.21367 0.09993 0.0
C2695 C 0.48128 0.23311 0.10551 0.0
C2696 C 0.4806 0.27024 0.09661 0.0
C2697 C 0.47044 0.20526 0.10755 0.0
H2698 H 0.45052 0.25826 0.08552 0.0
H2699 H 0.48873 0.29292 0.09563 0.0
O2700 O 0.45585 0.43481 0.06647 0.0
O2701 O 0.45221 0.37157 0.08913 0.0
O2702 O 0.45843 0.32828 0.06194 0.0
O2703 O 0.47954 0.38424 0.07763 0.0
H2704 H 0.47152 0.5066 0.06618 0.0
H2705 H 0.44237 0.43402 0.04419 0.0
H2706 H 0.47341 0.56224 0.0475 0.0
H2707 H 0.44475 0.49102 0.02591 0.0
H2708 H 0.46632 0.34448 0.13114 0.0
H2709 H 0.43216 0.32392 0.0976 0.0
H2710 H 0.46903 0.3789 0.10871 0.0
H2711 H 0.43009 0.29042 0.12025 0.0
H2712 H 0.40394 0.44519 0.06647 0.0
H2713 H 0.40534 0.29671 0.06283 0.0
H2714 H 0.48895 0.5475 0.10474 0.0
H2715 H 0.44912 0.53249 0.11616 0.0
H2716 H 0.47984 0.27964 0.06436 0.0
H2717 H 0.44746 0.30765 0.03903 0.0
H2718 H 0.48818 0.22526 0.04739 0.0
H2719 H 0.45631 0.25247 0.0225 0.0
H2720 H 0.49564 0.34066 0.06155 0.0
H2721 H 0.49127 0.40019 0.1005 0.0
H2722 H 0.51791 0.31829 0.06747 0.0
H2723 H 0.51369 0.3773 0.10568 0.0
H2724 H 0.50194 0.47756 0.03785 0.0
H2725 H 0.47334 0.41501 0.01248 0.0
H2726 H 0.45088 0.19263 0.10114 0.0
H2727 H 0.48997 0.2276 0.11121 0.0
Li2728 Li 0.28014 0.36807 0.06105 0.0
Li2729 Li 0.28554 0.41935 0.08013 0.0
Li2730 Li 0.30214 0.37364 0.06902 0.0
Li2731 Li 0.28602 0.33615 0.08211 0.0
C2732 C 0.28567 0.46057 0.05504 0.0
N2733 N 0.27354 0.53385 0.04276 0.0
C2734 C 0.27252 0.4678 0.05691 0.0
C2735 C 0.29264 0.49058 0.04692 0.0
C2736 C 0.26656 0.50506 0.05062 0.0
C2737 C 0.28634 0.52743 0.04079 0.0
C2738 C 0.26281 0.36342 0.08838 0.0
C2739 C 0.25768 0.36192 0.11175 0.0
N2740 N 0.24714 0.33586 0.10907 0.0
C2741 C 0.25191 0.33673 0.08584 0.0
C2742 C 0.26572 0.37622 0.10143 0.0
C2743 C 0.24411 0.32311 0.09644 0.0
C2744 C 0.26215 0.31614 0.04716 0.0
N2745 N 0.27014 0.35284 0.04561 0.0
C2746 C 0.26738 0.34991 0.02198 0.0
C2747 C 0.27268 0.37046 0.03334 0.0
C2748 C 0.25938 0.31112 0.02331 0.0
C2749 C 0.25651 0.29505 0.03612 0.0
H2750 H 0.26079 0.30144 0.05692 0.0
H2751 H 0.27941 0.39864 0.0323 0.0
C2752 C 0.29401 0.49556 0.0945 0.0
N2753 N 0.28306 0.47544 0.08998 0.0
C2754 C 0.29344 0.53201 0.10356 0.0
C2755 C 0.27028 0.52816 0.10272 0.0
C2756 C 0.2713 0.49152 0.09366 0.0
C2757 C 0.28147 0.54797 0.10807 0.0
H2758 H 0.30323 0.48215 0.09139 0.0
H2759 H 0.26272 0.47472 0.09001 0.0
C2760 C 0.29606 0.29888 0.05267 0.0
N2761 N 0.30269 0.26196 0.02829 0.0
C2762 C 0.29465 0.25165 0.05033 0.0
C2763 C 0.30085 0.32735 0.0426 0.0
C2764 C 0.29806 0.23364 0.03794 0.0
C2765 C 0.30415 0.30801 0.03035 0.0
C2766 C 0.30888 0.36144 0.0953 0.0
C2767 C 0.31289 0.31642 0.09255 0.0
C2768 C 0.31521 0.38703 0.10507 0.0
C2769 C 0.32322 0.29781 0.09961 0.0
C2770 C 0.3255 0.36717 0.11192 0.0
N2771 N 0.32926 0.32336 0.10906 0.0
C2772 C 0.32672 0.41331 0.06553 0.0
C2773 C 0.32627 0.33193 0.06332 0.0
C2774 C 0.34012 0.41339 0.06459 0.0
N2775 N 0.32012 0.37289 0.06506 0.0
C2776 C 0.33962 0.33043 0.06234 0.0
C2777 C 0.34674 0.3714 0.06329 0.0
H2778 H 0.32159 0.44529 0.06712 0.0
H2779 H 0.32086 0.30013 0.06321 0.0
C2780 C 0.27818 0.24624 0.08752 0.0
N2781 N 0.28274 0.28506 0.09341 0.0
C2782 C 0.27675 0.20578 0.09487 0.0
C2783 C 0.28422 0.24665 0.11435 0.0
C2784 C 0.28548 0.28638 0.10662 0.0
C2785 C 0.28012 0.20545 0.10837 0.0
H2786 H 0.27591 0.24655 0.07703 0.0
H2787 H 0.28899 0.3179 0.11107 0.0
O2788 O 0.29178 0.42439 0.06104 0.0
O2789 O 0.27074 0.37631 0.07819 0.0
O2790 O 0.29227 0.3172 0.06458 0.0
O2791 O 0.29895 0.38083 0.08835 0.0
H2792 H 0.26692 0.44499 0.06311 0.0
H2793 H 0.30283 0.48539 0.04536 0.0
H2794 H 0.2564 0.51107 0.05198 0.0
H2795 H 0.29162 0.55093 0.03448 0.0
H2796 H 0.25987 0.37133 0.12191 0.0
H2797 H 0.24946 0.32671 0.07581 0.0
H2798 H 0.27423 0.39626 0.1036 0.0
H2799 H 0.23565 0.3024 0.09463 0.0
H2800 H 0.2698 0.36329 0.01225 0.0
H2801 H 0.25054 0.26487 0.03754 0.0
H2802 H 0.30229 0.547 0.1072 0.0
H2803 H 0.26087 0.53959 0.10591 0.0
H2804 H 0.29088 0.22917 0.05798 0.0
H2805 H 0.30189 0.36405 0.04415 0.0
H2806 H 0.29699 0.19716 0.03599 0.0
H2807 H 0.30782 0.32966 0.02246 0.0
H2808 H 0.30813 0.29607 0.08501 0.0
H2809 H 0.31223 0.42192 0.10734 0.0
H2810 H 0.32644 0.26307 0.09755 0.0
H2811 H 0.3305 0.38662 0.1195 0.0
H2812 H 0.34529 0.44568 0.06541 0.0
H2813 H 0.34436 0.29744 0.06114 0.0
H2814 H 0.27328 0.1749 0.08999 0.0
H2815 H 0.28687 0.24769 0.12476 0.0
C2816 C 0.11892 0.11704 0.30362 0.0
C2817 C 0.1123 0.1314 0.31509 0.0
C2818 C 0.1324 0.11853 0.30303 0.0
C2819 C 0.13966 0.13531 0.31379 0.0
H2820 H 0.11365 0.10377 0.29516 0.0
H2821 H 0.13717 0.10665 0.2941 0.0
S2822 S 0.12687 0.17795 0.34593 0.0
N2823 N 0.11397 0.16356 0.33732 0.0
N2824 N 0.13924 0.16652 0.33621 0.0
C2825 C 0.13312 0.15031 0.32523 0.0
C2826 C 0.11946 0.14831 0.32588 0.0
C2827 C 0.13144 0.08652 0.93386 0.0
C2828 C 0.13861 0.11509 0.9424 0.0
C2829 C 0.11798 0.08737 0.93392 0.0
C2830 C 0.11117 0.1169 0.94248 0.0
H2831 H 0.13627 0.06441 0.92676 0.0
H2832 H 0.11287 0.0658 0.92689 0.0
S2833 S 0.12532 0.19443 0.96786 0.0
N2834 N 0.13785 0.17076 0.96046 0.0
N2835 N 0.11253 0.17263 0.96046 0.0
C2836 C 0.11819 0.14445 0.95139 0.0
C2837 C 0.1319 0.14347 0.95137 0.0
C2838 C 0.88358 0.90307 0.69813 0.0
C2839 C 0.89049 0.87682 0.68879 0.0
C2840 C 0.8701 0.90262 0.69833 0.0
C2841 C 0.86305 0.8759 0.6892 0.0
H2842 H 0.88865 0.92367 0.70543 0.0
H2843 H 0.86514 0.92302 0.70576 0.0
S2844 S 0.87657 0.80502 0.66188 0.0
N2845 N 0.88928 0.826 0.66962 0.0
N2846 N 0.86399 0.82513 0.67 0.0
C2847 C 0.86985 0.85023 0.67966 0.0
C2848 C 0.88355 0.85072 0.67945 0.0
C2849 C 0.8829 0.8626 0.0531 0.0
C2850 C 0.88968 0.88116 0.06396 0.0
C2851 C 0.86942 0.86338 0.0527 0.0
C2852 C 0.86224 0.88291 0.06313 0.0
H2853 H 0.88806 0.84765 0.0448 0.0
H2854 H 0.86457 0.84886 0.04414 0.0
S2855 S 0.87529 0.93205 0.09437 0.0
N2856 N 0.88812 0.91684 0.08579 0.0
N2857 N 0.86285 0.91868 0.08496 0.0
C2858 C 0.86889 0.90103 0.07411 0.0
C2859 C 0.88258 0.90007 0.07455 0.0
C2860 C 0.11909 0.63619 0.82691 0.0
C2861 C 0.11212 0.63277 0.81497 0.0
C2862 C 0.13253 0.63775 0.82689 0.0
C2863 C 0.13951 0.63662 0.81492 0.0
H2864 H 0.1141 0.63697 0.83636 0.0
H2865 H 0.13752 0.64013 0.83631 0.0
S2866 S 0.12582 0.62865 0.78098 0.0
N2867 N 0.11316 0.62882 0.79087 0.0
N2868 N 0.13849 0.63207 0.79083 0.0
C2869 C 0.13267 0.63372 0.8029 0.0
C2870 C 0.11897 0.63159 0.80293 0.0
C2871 C 0.12011 0.65738 0.43356 0.0
C2872 C 0.11271 0.6291 0.44195 0.0
C2873 C 0.13356 0.6564 0.43397 0.0
C2874 C 0.14014 0.62672 0.44269 0.0
H2875 H 0.11545 0.68037 0.42657 0.0
H2876 H 0.13885 0.67823 0.42716 0.0
S2877 S 0.12526 0.54642 0.46691 0.0
N2878 N 0.11294 0.57104 0.45938 0.0
N2879 N 0.13826 0.56931 0.46019 0.0
C2880 C 0.13287 0.59868 0.45126 0.0
C2881 C 0.11915 0.59993 0.45091 0.0
C2882 C 0.88064 0.39281 0.19905 0.0
C2883 C 0.88759 0.36589 0.18992 0.0
C2884 C 0.86716 0.39272 0.1991 0.0
C2885 C 0.86015 0.36576 0.18999 0.0
H2886 H 0.88566 0.41395 0.20625 0.0
H2887 H 0.86217 0.41387 0.20632 0.0
S2888 S 0.87384 0.29237 0.16331 0.0
N2889 N 0.8865 0.3135 0.17109 0.0
N2890 N 0.8612 0.31346 0.17114 0.0
C2891 C 0.867 0.33903 0.18073 0.0
C2892 C 0.88071 0.33908 0.1807 0.0
C2893 C 0.88147 0.34853 0.56917 0.0
C2894 C 0.8885 0.37615 0.56028 0.0
C2895 C 0.86802 0.34973 0.56941 0.0
C2896 C 0.86106 0.37856 0.56075 0.0
H2897 H 0.8864 0.32653 0.57622 0.0
H2898 H 0.86304 0.32851 0.57662 0.0
S2899 S 0.87487 0.45485 0.53485 0.0
N2900 N 0.88751 0.43136 0.54212 0.0
N2901 N 0.86219 0.43353 0.54255 0.0
C2902 C 0.86795 0.40579 0.55166 0.0
C2903 C 0.88168 0.40459 0.55142 0.0
C2904 C 0.6318 0.13013 0.80607 0.0
C2905 C 0.63817 0.12545 0.81835 0.0
C2906 C 0.61834 0.12846 0.80526 0.0
C2907 C 0.61079 0.12181 0.81669 0.0
H2908 H 0.63726 0.13447 0.797 0.0
H2909 H 0.61382 0.13182 0.79561 0.0
S2910 S 0.62265 0.11252 0.85135 0.0
N2911 N 0.6358 0.11732 0.84229 0.0
N2912 N 0.61057 0.11372 0.84073 0.0
C2913 C 0.61701 0.11799 0.82904 0.0
C2914 C 0.63068 0.1199 0.82988 0.0
C2915 C 0.6328 0.15722 0.44654 0.0
C2916 C 0.63953 0.12133 0.44017 0.0
C2917 C 0.61932 0.15921 0.44625 0.0
C2918 C 0.61212 0.12574 0.43942 0.0
H2919 H 0.63801 0.18418 0.45169 0.0
H2920 H 0.61453 0.18789 0.45105 0.0
S2921 S 0.62504 0.02402 0.42149 0.0
N2922 N 0.6379 0.05114 0.42705 0.0
N2923 N 0.61263 0.05461 0.42665 0.0
C2924 C 0.6187 0.08916 0.43327 0.0
C2925 C 0.63239 0.087 0.43362 0.0
C2926 C 0.3687 0.85342 0.19948 0.0
C2927 C 0.36165 0.88016 0.19038 0.0
C2928 C 0.38219 0.85423 0.19954 0.0
C2929 C 0.3891 0.8817 0.19049 0.0
H2930 H 0.36376 0.83189 0.20664 0.0
H2931 H 0.38724 0.83326 0.20676 0.0
S2932 S 0.37513 0.95478 0.16387 0.0
N2933 N 0.36255 0.9329 0.17163 0.0
N2934 N 0.38784 0.93418 0.17167 0.0
C2935 C 0.38214 0.90818 0.18124 0.0
C2936 C 0.36844 0.90744 0.1812 0.0
C2937 C 0.37012 0.84826 0.57071 0.0
C2938 C 0.36307 0.87359 0.56127 0.0
C2939 C 0.38358 0.84725 0.57042 0.0
C2940 C 0.39052 0.87152 0.56067 0.0
H2941 H 0.36522 0.82982 0.57858 0.0
H2942 H 0.38859 0.82816 0.57808 0.0
S2943 S 0.3766 0.9397 0.53298 0.0
N2944 N 0.364 0.92125 0.54141 0.0
N2945 N 0.38932 0.91937 0.54086 0.0
C2946 C 0.38359 0.89622 0.551 0.0
C2947 C 0.36987 0.89726 0.5513 0.0
C2948 C 0.63108 0.62623 0.30044 0.0
C2949 C 0.63799 0.62776 0.31244 0.0
C2950 C 0.61762 0.62308 0.30041 0.0
C2951 C 0.61069 0.6203 0.31238 0.0
H2952 H 0.63611 0.62795 0.29102 0.0
H2953 H 0.6126 0.62239 0.29098 0.0
S2954 S 0.62431 0.62221 0.34643 0.0
N2955 N 0.63695 0.62592 0.33656 0.0
N2956 N 0.61169 0.61956 0.33651 0.0
C2957 C 0.6175 0.62144 0.32443 0.0
C2958 C 0.63115 0.62531 0.32446 0.0
C2959 C 0.63068 0.62735 0.95161 0.0
C2960 C 0.63754 0.62625 0.93956 0.0
C2961 C 0.61722 0.63047 0.95173 0.0
C2962 C 0.61021 0.63357 0.93981 0.0
H2963 H 0.63576 0.62526 0.96099 0.0
H2964 H 0.61227 0.63087 0.96119 0.0
S2965 S 0.62365 0.63278 0.90567 0.0
N2966 N 0.63634 0.62889 0.91545 0.0
N2967 N 0.61108 0.63503 0.91567 0.0
C2968 C 0.61697 0.63284 0.92772 0.0
C2969 C 0.63062 0.62908 0.92759 0.0
C2970 C 0.36951 0.40756 0.68248 0.0
C2971 C 0.36263 0.37898 0.69127 0.0
C2972 C 0.38296 0.40754 0.68225 0.0
C2973 C 0.39009 0.37893 0.6908 0.0
H2974 H 0.36443 0.42942 0.6755 0.0
H2975 H 0.38782 0.42931 0.67508 0.0
S2976 S 0.37674 0.30073 0.71652 0.0
N2977 N 0.36396 0.32336 0.70929 0.0
N2978 N 0.38929 0.32335 0.70888 0.0
C2979 C 0.38335 0.3509 0.69985 0.0
C2980 C 0.36963 0.3509 0.70007 0.0
C2981 C 0.36819 0.39957 0.05529 0.0
C2982 C 0.361 0.37012 0.06355 0.0
C2983 C 0.38167 0.39925 0.05558 0.0
C2984 C 0.38845 0.36951 0.06414 0.0
H2985 H 0.36336 0.42282 0.04851 0.0
H2986 H 0.38684 0.42232 0.04901 0.0
S2987 S 0.37409 0.28873 0.08858 0.0
N2988 N 0.36163 0.31239 0.08106 0.0
N2989 N 0.38693 0.3118 0.0816 0.0
C2990 C 0.38136 0.3403 0.07255 0.0
C2991 C 0.36766 0.34062 0.07225 0.0
C2992 C 0.99927 0.20943 0.25239 0.0
C2993 C 0.00657 0.23201 0.26219 0.0
C2994 C 0.99381 0.23391 0.24175 0.0
C2995 C 0.99534 0.28204 0.2405 0.0
H2996 H 0.99797 0.17239 0.25281 0.0
H2997 H 0.98832 0.21492 0.23442 0.0
S2998 S 0.01306 0.35783 0.26388 0.0
N2999 N 0.01453 0.3057 0.27031 0.0
N3000 N 0.00453 0.35139 0.25018 0.0
C3001 C 0.00241 0.30516 0.25038 0.0
C3002 C 0.00797 0.28024 0.26122 0.0
C3003 C 0.2464 0.98104 0.26186 0.0
C3004 C 0.2457 0.02958 0.26124 0.0
C3005 C 0.251 0.95492 0.2511 0.0
C3006 C 0.25499 0.97622 0.23924 0.0
H3007 H 0.24321 0.96298 0.27069 0.0
H3008 H 0.2513 0.91771 0.25202 0.0
S3009 S 0.25605 0.1022 0.23281 0.0
N3010 N 0.2501 0.09786 0.24798 0.0
N3011 N 0.25855 0.0488 0.22774 0.0
C3012 C 0.25445 0.02467 0.23851 0.0
C3013 C 0.24985 0.05129 0.24949 0.0
C3014 C 0.99252 0.01323 0.99263 0.0
C3015 C 0.0056 0.02517 0.9916 0.0
C3016 C 0.98792 0.98712 0.00339 0.0
C3017 C 0.99622 0.97182 0.01353 0.0
H3018 H 0.98576 0.0246 0.98513 0.0
H3019 H 0.97774 0.97958 0.00391 0.0
S3020 S 0.03147 0.98986 0.01483 0.0
N3021 N 0.0269 0.01696 1.00119 0.0
N3022 N 0.01826 0.96816 0.02141 0.0
C3023 C 0.00934 0.98278 0.01248 0.0
C3024 C 0.01402 0.00934 1.00154 0.0
C3025 C 0.2369 0.24935 0.99933 0.0
C3026 C 0.2453 0.23129 0.98965 0.0
C3027 C 0.24149 0.27562 0.01007 0.0
C3028 C 0.25464 0.2854 0.01148 0.0
H3029 H 0.22665 0.2435 0.99856 0.0
H3030 H 0.23467 0.28856 0.0173 0.0
S3031 S 0.2808 0.24399 0.9895 0.0
N3032 N 0.26757 0.22337 0.98266 0.0
N3033 N 0.2761 0.27344 0.00268 0.0
C3034 C 0.26317 0.26759 0.00194 0.0
C3035 C 0.25853 0.24045 0.99107 0.0
C3036 C 0.00782 0.75461 0.73986 0.0
C3037 C 0.99628 0.77989 0.74052 0.0
C3038 C 0.01237 0.72951 0.75084 0.0
C3039 C 0.00558 0.7287 0.76292 0.0
H3040 H 0.01344 0.75451 0.7308 0.0
H3041 H 0.0214 0.7112 0.74992 0.0
S3042 S 0.9743 0.78562 0.76951 0.0
N3043 N 0.97777 0.80011 0.75405 0.0
N3044 N 0.98637 0.75331 0.77467 0.0
C3045 C 0.99394 0.75327 0.76367 0.0
C3046 C 0.98929 0.77876 0.75249 0.0
C3047 C 0.74465 0.98427 0.76084 0.0
C3048 C 0.74449 0.03287 0.76079 0.0
C3049 C 0.75021 0.9592 0.75037 0.0
C3050 C 0.75561 0.98178 0.73934 0.0
H3051 H 0.74045 0.96546 0.76906 0.0
H3052 H 0.75007 0.92187 0.75079 0.0
S3053 S 0.7579 0.10836 0.7345 0.0
N3054 N 0.75048 0.10254 0.74892 0.0
N3055 N 0.76077 0.05549 0.72915 0.0
C3056 C 0.75561 0.03033 0.73921 0.0
C3057 C 0.75011 0.05585 0.74997 0.0
C3058 C 0.75759 0.722 0.99397 0.0
C3059 C 0.74428 0.71842 0.99176 0.0
C3060 C 0.76254 0.74966 0.00424 0.0
C3061 C 0.75437 0.77517 0.01265 0.0
H3062 H 0.76424 0.70289 0.98778 0.0
H3063 H 0.77284 0.75053 0.00572 0.0
S3064 S 0.71884 0.781 0.01026 0.0
N3065 N 0.72307 0.74473 0.99839 0.0
N3066 N 0.73234 0.797 0.01755 0.0
C3067 C 0.74105 0.77247 0.0104 0.0
C3068 C 0.73603 0.74409 1.0 0.0
C3069 C 0.24191 0.48162 0.75958 0.0
C3070 C 0.24633 0.52637 0.76266 0.0
C3071 C 0.24684 0.4569 0.74869 0.0
C3072 C 0.2563 0.47606 0.7404 0.0
H3073 H 0.23444 0.46576 0.76551 0.0
H3074 H 0.24304 0.42289 0.7466 0.0
S3075 S 0.27203 0.58986 0.74481 0.0
N3076 N 0.26141 0.58726 0.75698 0.0
N3077 N 0.27051 0.5411 0.73647 0.0
C3078 C 0.26097 0.52032 0.74349 0.0
C3079 C 0.25602 0.5454 0.7546 0.0
C3080 C 0.99256 0.51646 0.49191 0.0
C3081 C 0.00569 0.52696 0.49076 0.0
C3082 C 0.98794 0.4894 0.50246 0.0
C3083 C 0.9963 0.47119 0.51217 0.0
H3084 H 0.9858 0.52968 0.48466 0.0
H3085 H 0.9777 0.48329 0.50311 0.0
S3086 S 0.03176 0.48526 0.51276 0.0
N3087 N 0.02708 0.51545 0.49971 0.0
N3088 N 0.01854 0.46351 0.51932 0.0
C3089 C 0.00952 0.48076 0.51091 0.0
C3090 C 0.01417 0.50882 0.50027 0.0
C3091 C 0.25026 0.70765 0.50278 0.0
C3092 C 0.24677 0.72833 0.49064 0.0
C3093 C 0.25494 0.73409 0.51343 0.0
C3094 C 0.25633 0.78227 0.51238 0.0
H3095 H 0.24951 0.67063 0.504 0.0
H3096 H 0.25768 0.71657 0.52251 0.0
S3097 S 0.24751 0.85379 0.48322 0.0
N3098 N 0.24428 0.80046 0.47854 0.0
N3099 N 0.25321 0.84985 0.4985 0.0
C3100 C 0.25272 0.80348 0.50039 0.0
C3101 C 0.24791 0.77662 0.48955 0.0
C3102 C 0.76131 0.48404 0.2503 0.0
C3103 C 0.75316 0.471 0.23979 0.0
C3104 C 0.75672 0.51038 0.26103 0.0
C3105 C 0.74379 0.52461 0.2617 0.0
H3106 H 0.77138 0.47465 0.25008 0.0
H3107 H 0.76341 0.52019 0.26878 0.0
S3108 S 0.71827 0.49526 0.23734 0.0
N3109 N 0.73141 0.47187 0.23109 0.0
N3110 N 0.72272 0.52047 0.25131 0.0
C3111 C 0.73549 0.51075 0.25139 0.0
C3112 C 0.74018 0.4842 0.24044 0.0
C3113 C 0.74331 0.26002 0.51247 0.0
C3114 C 0.75512 0.28366 0.51198 0.0
C3115 C 0.73885 0.23423 0.50159 0.0
C3116 C 0.74602 0.23102 0.48976 0.0
H3117 H 0.73741 0.26174 0.52133 0.0
H3118 H 0.72961 0.21727 0.50236 0.0
S3119 S 0.77808 0.28291 0.48376 0.0
N3120 N 0.77425 0.29974 0.49893 0.0
N3121 N 0.76585 0.25161 0.47849 0.0
C3122 C 0.75792 0.25394 0.4892 0.0
C3123 C 0.76247 0.28015 0.50028 0.0
C3124 C 0.48816 0.26884 0.75001 0.0
C3125 C 0.49649 0.28373 0.73987 0.0
C3126 C 0.4927 0.24265 0.7608 0.0
C3127 C 0.50576 0.23046 0.76189 0.0
H3128 H 0.47799 0.2766 0.74945 0.0
H3129 H 0.48588 0.23129 0.76824 0.0
S3130 S 0.53171 0.26532 0.73863 0.0
N3131 N 0.5185 0.28687 0.73198 0.0
N3132 N 0.52711 0.23866 0.75233 0.0
C3133 C 0.51423 0.24628 0.75196 0.0
C3134 C 0.50959 0.27263 0.74095 0.0
C3135 C 0.50026 0.0184 0.51296 0.0
C3136 C 0.49778 0.97086 0.51151 0.0
C3137 C 0.50498 0.04495 0.50234 0.0
C3138 C 0.50731 0.02513 0.48981 0.0
H3139 H 0.49836 0.03547 0.52233 0.0
H3140 H 0.50665 0.08143 0.50389 0.0
S3141 S 0.50347 0.90158 0.48106 0.0
N3142 N 0.49878 0.90468 0.49672 0.0
N3143 N 0.5075 0.9546 0.47677 0.0
C3144 C 0.50505 0.97757 0.48826 0.0
C3145 C 0.50031 0.95048 0.49909 0.0
C3146 C 0.48771 0.76955 0.25063 0.0
C3147 C 0.49605 0.78477 0.24053 0.0
C3148 C 0.49221 0.7425 0.26125 0.0
C3149 C 0.50523 0.72966 0.26221 0.0
H3150 H 0.47756 0.77771 0.25015 0.0
H3151 H 0.48539 0.73096 0.26867 0.0
S3152 S 0.5312 0.76492 0.23904 0.0
N3153 N 0.51805 0.78757 0.23259 0.0
N3154 N 0.52655 0.73748 0.25259 0.0
C3155 C 0.51371 0.74575 0.25233 0.0
C3156 C 0.50911 0.77308 0.2415 0.0
C3157 C 0.50635 0.48228 0.00974 0.0
C3158 C 0.49308 0.47853 0.01223 0.0
C3159 C 0.51107 0.5099 0.99936 0.0
C3160 C 0.50271 0.53491 0.99104 0.0
H3161 H 0.51315 0.46338 0.0158 0.0
H3162 H 0.52135 0.51113 0.99771 0.0
S3163 S 0.46724 0.54005 0.99398 0.0
N3164 N 0.47171 0.50448 0.00593 0.0
N3165 N 0.48059 0.55588 0.98638 0.0
C3166 C 0.48945 0.5319 0.99349 0.0
C3167 C 0.48464 0.50389 0.00408 0.0
C3168 C 0.02685 0.38288 0.38871 0.0
C3169 C 0.03379 0.42183 0.3844 0.0
C3170 C 0.0268 0.34195 0.3813 0.0
C3171 C 0.03379 0.33846 0.36941 0.0
H3172 H 0.02162 0.38371 0.39802 0.0
H3173 H 0.02147 0.31256 0.38501 0.0
S3174 S 0.05247 0.43129 0.35309 0.0
N3175 N 0.047 0.45508 0.36689 0.0
N3176 N 0.04715 0.37765 0.35318 0.0
C3177 C 0.04055 0.3772 0.36484 0.0
C3178 C 0.0405 0.419 0.37228 0.0
C3179 C 0.21101 0.83648 0.37296 0.0
C3180 C 0.2186 0.83433 0.38452 0.0
C3181 C 0.21091 0.87595 0.36494 0.0
C3182 C 0.21843 0.91464 0.36815 0.0
H3183 H 0.20514 0.80734 0.37006 0.0
H3184 H 0.20496 0.87611 0.3561 0.0
S3185 S 0.23937 0.92769 0.39771 0.0
N3186 N 0.23341 0.87512 0.39906 0.0
N3187 N 0.23332 0.94915 0.38385 0.0
C3188 C 0.22606 0.91303 0.37966 0.0
C3189 C 0.22612 0.87292 0.38787 0.0
C3190 C 0.03185 0.91155 0.87192 0.0
C3191 C 0.02917 0.9111 0.88561 0.0
C3192 C 0.03164 0.87079 0.86446 0.0
C3193 C 0.02891 0.82811 0.87047 0.0
H3194 H 0.0342 0.94363 0.86696 0.0
H3195 H 0.03396 0.87253 0.85397 0.0
S3196 S 0.02106 0.80852 0.90596 0.0
N3197 N 0.02354 0.86466 0.90487 0.0
N3198 N 0.02315 0.7879 0.8908 0.0
C3199 C 0.02607 0.82725 0.88411 0.0
C3200 C 0.02616 0.86881 0.89169 0.0
C3201 C 0.21575 0.38471 0.86402 0.0
C3202 C 0.21856 0.42734 0.87003 0.0
C3203 C 0.21529 0.34405 0.87153 0.0
C3204 C 0.21781 0.34456 0.88525 0.0
H3205 H 0.21367 0.38293 0.85348 0.0
H3206 H 0.21298 0.31195 0.86656 0.0
S3207 S 0.22582 0.4471 0.90564 0.0
N3208 N 0.22403 0.46762 0.89043 0.0
N3209 N 0.22322 0.39104 0.90456 0.0
C3210 C 0.22077 0.38684 0.89135 0.0
C3211 C 0.22111 0.42831 0.88373 0.0
C3212 C 0.97703 0.66303 0.62295 0.0
C3213 C 0.96899 0.66744 0.6341 0.0
C3214 C 0.9766 0.6234 0.61496 0.0
C3215 C 0.96795 0.58747 0.61775 0.0
H3216 H 0.98371 0.69032 0.62042 0.0
H3217 H 0.98289 0.62123 0.6064 0.0
S3218 S 0.94488 0.58251 0.64576 0.0
N3219 N 0.95219 0.63268 0.64755 0.0
N3220 N 0.95131 0.55841 0.63246 0.0
C3221 C 0.95989 0.59148 0.62888 0.0
C3222 C 0.96044 0.63144 0.63708 0.0
C3223 C 0.78929 0.09506 0.62227 0.0
C3224 C 0.7822 0.09169 0.63412 0.0
C3225 C 0.78872 0.13481 0.6144 0.0
C3226 C 0.78116 0.17279 0.61819 0.0
H3227 H 0.79534 0.06673 0.61908 0.0
H3228 H 0.79445 0.13623 0.60542 0.0
S3229 S 0.7607 0.1811 0.64825 0.0
N3230 N 0.76731 0.12941 0.64923 0.0
N3231 N 0.76625 0.20433 0.6344 0.0
C3232 C 0.77395 0.16977 0.62996 0.0
C3233 C 0.77444 0.12911 0.63792 0.0
C3234 C 0.98071 0.14323 0.13285 0.0
C3235 C 0.96979 0.17174 0.13336 0.0
C3236 C 0.98067 0.10237 0.12538 0.0
C3237 C 0.96962 0.08841 0.11842 0.0
H3238 H 0.98932 0.15258 0.13826 0.0
H3239 H 0.98922 0.08109 0.12526 0.0
S3240 S 0.93864 0.15108 0.11653 0.0
N3241 N 0.94772 0.18339 0.12624 0.0
N3242 N 0.94764 0.10664 0.11222 0.0
C3243 C 0.9587 0.1168 0.11878 0.0
C3244 C 0.95879 0.1585 0.12625 0.0
C3245 C 0.78798 0.62193 0.13787 0.0
C3246 C 0.78074 0.58337 0.13392 0.0
C3247 C 0.78852 0.66167 0.12999 0.0
C3248 C 0.7817 0.66445 0.11795 0.0
H3249 H 0.79351 0.621 0.147 0.0
H3250 H 0.79432 0.69045 0.13332 0.0
S3251 S 0.76106 0.57337 0.10335 0.0
N3252 N 0.76639 0.55068 0.11736 0.0
N3253 N 0.76741 0.62549 0.10249 0.0
C3254 C 0.77426 0.62643 0.11398 0.0
C3255 C 0.7738 0.5858 0.12197 0.0
C3256 C 0.5389 0.37958 0.86574 0.0
C3257 C 0.53126 0.34105 0.86884 0.0
C3258 C 0.53879 0.41905 0.87374 0.0
C3259 C 0.53098 0.42155 0.88512 0.0
H3260 H 0.54505 0.37922 0.85705 0.0
H3261 H 0.54488 0.44784 0.87102 0.0
S3262 S 0.50953 0.32961 0.89788 0.0
N3263 N 0.51588 0.30749 0.88425 0.0
N3264 N 0.5156 0.38201 0.89926 0.0
C3265 C 0.52319 0.38354 0.88828 0.0
C3266 C 0.52334 0.34321 0.88015 0.0
C3267 C 0.71491 0.87559 0.89072 0.0
C3268 C 0.71709 0.83155 0.88532 0.0
C3269 C 0.7151 0.91498 0.88267 0.0
C3270 C 0.71745 0.91167 0.86893 0.0
H3271 H 0.71314 0.87963 0.90127 0.0
H3272 H 0.71348 0.94831 0.88724 0.0
S3273 S 0.72274 0.80391 0.84982 0.0
N3274 N 0.7211 0.78659 0.86537 0.0
N3275 N 0.72135 0.86063 0.85018 0.0
C3276 C 0.71952 0.86777 0.8634 0.0
C3277 C 0.71937 0.8277 0.87161 0.0
C3278 C 0.52548 0.86908 0.36683 0.0
C3279 C 0.53309 0.83076 0.37022 0.0
C3280 C 0.52553 0.90908 0.37466 0.0
C3281 C 0.53319 0.91206 0.38614 0.0
H3282 H 0.51973 0.86864 0.35785 0.0
H3283 H 0.51981 0.93832 0.37151 0.0
S3284 S 0.55357 0.81913 0.40019 0.0
N3285 N 0.54762 0.7968 0.3864 0.0
N3286 N 0.54769 0.87191 0.40114 0.0
C3287 C 0.54046 0.87334 0.3899 0.0
C3288 C 0.54042 0.83271 0.38193 0.0
C3289 C 0.71846 0.37154 0.38834 0.0
C3290 C 0.72164 0.32912 0.38242 0.0
C3291 C 0.71791 0.41209 0.3808 0.0
C3292 C 0.72074 0.41166 0.36714 0.0
H3293 H 0.71599 0.37313 0.39879 0.0
H3294 H 0.71511 0.44392 0.38564 0.0
S3295 S 0.73012 0.30989 0.34708 0.0
N3296 N 0.72801 0.28925 0.36223 0.0
N3297 N 0.72712 0.36575 0.34805 0.0
C3298 C 0.72428 0.36976 0.36118 0.0
C3299 C 0.72467 0.32836 0.36882 0.0
C3300 C 0.47567 0.62717 0.11552 0.0
C3301 C 0.47035 0.58608 0.12053 0.0
C3302 C 0.47593 0.66747 0.12322 0.0
C3303 C 0.47095 0.66808 0.13621 0.0
H3304 H 0.47934 0.62855 0.10546 0.0
H3305 H 0.47998 0.69849 0.11892 0.0
S3306 S 0.45642 0.56899 0.15411 0.0
N3307 N 0.46054 0.54784 0.13948 0.0
N3308 N 0.46065 0.62384 0.15379 0.0
C3309 C 0.46583 0.62695 0.14142 0.0
C3310 C 0.46561 0.58593 0.13361 0.0
C3311 C 0.27434 0.12002 0.13635 0.0
C3312 C 0.28086 0.08041 0.1319 0.0
C3313 C 0.27398 0.1602 0.1286 0.0
C3314 C 0.27998 0.16194 0.11609 0.0
H3315 H 0.2698 0.12035 0.14603 0.0
H3316 H 0.26903 0.19022 0.13246 0.0
S3317 S 0.29789 0.06689 0.09977 0.0
N3318 N 0.29305 0.0448 0.11405 0.0
N3319 N 0.29251 0.12045 0.09956 0.0
C3320 C 0.28629 0.12223 0.11143 0.0
C3321 C 0.28671 0.08146 0.11932 0.0
C3322 C 0.46196 0.16466 0.62307 0.0
C3323 C 0.47202 0.17289 0.63209 0.0
C3324 C 0.46158 0.12434 0.61544 0.0
C3325 C 0.47125 0.09066 0.61651 0.0
H3326 H 0.45413 0.18905 0.62212 0.0
H3327 H 0.45361 0.11945 0.60867 0.0
S3328 S 0.49995 0.09642 0.63831 0.0
N3329 N 0.49218 0.14499 0.64128 0.0
N3330 N 0.4913 0.06848 0.62716 0.0
C3331 C 0.4815 0.09879 0.62531 0.0
C3332 C 0.4819 0.13998 0.63308 0.0
C3333 C 0.28698 0.62503 0.63897 0.0
C3334 C 0.2809 0.58464 0.63445 0.0
C3335 C 0.28727 0.66493 0.63115 0.0
C3336 C 0.28145 0.66606 0.61855 0.0
H3337 H 0.29182 0.62549 0.6485 0.0
H3338 H 0.29218 0.6951 0.63498 0.0
S3339 S 0.2639 0.56996 0.60234 0.0
N3340 N 0.26851 0.54864 0.61679 0.0
N3341 N 0.26927 0.62352 0.60195 0.0
C3342 C 0.27512 0.62621 0.614 0.0
C3343 C 0.27483 0.58549 0.62197 0.0
C3344 C 0.02048 0.87776 0.38571 0.0
C3345 C 0.0289 0.83991 0.38499 0.0
C3346 C 0.02055 0.91229 0.37586 0.0
C3347 C 0.02899 0.91 0.36493 0.0
H3348 H 0.01413 0.88153 0.39417 0.0
H3349 H 0.01429 0.94184 0.3771 0.0
S3350 S 0.05151 0.81414 0.35748 0.0
N3351 N 0.04494 0.79972 0.37183 0.0
N3352 N 0.04496 0.86396 0.3533 0.0
C3353 C 0.03695 0.87096 0.36378 0.0
C3354 C 0.03693 0.83612 0.3738 0.0
C3355 C 0.21588 0.36818 0.38923 0.0
C3356 C 0.22335 0.40829 0.38763 0.0
C3357 C 0.21576 0.33332 0.37956 0.0
C3358 C 0.22316 0.33689 0.3679 0.0
H3359 H 0.20996 0.36383 0.39799 0.0
H3360 H 0.20976 0.30334 0.3812 0.0
S3361 S 0.24422 0.43493 0.35869 0.0
N3362 N 0.23825 0.44962 0.3733 0.0
N3363 N 0.23816 0.38366 0.35525 0.0
C3364 C 0.23089 0.37624 0.36626 0.0
C3365 C 0.23095 0.41199 0.37609 0.0
C3366 C 0.02255 0.41112 0.87773 0.0
C3367 C 0.02778 0.40348 0.86497 0.0
C3368 C 0.02266 0.37643 0.88751 0.0
C3369 C 0.0281 0.33301 0.88493 0.0
H3370 H 0.01874 0.44466 0.88035 0.0
H3371 H 0.01883 0.38407 0.89728 0.0
S3372 S 0.04169 0.29316 0.8529 0.0
N3373 N 0.03741 0.34712 0.85005 0.0
N3374 N 0.03798 0.28287 0.86858 0.0
C3375 C 0.03296 0.32431 0.87216 0.0
C3376 C 0.03271 0.35927 0.86216 0.0
C3377 C 0.22387 0.93044 0.87176 0.0
C3378 C 0.22435 0.92064 0.88548 0.0
C3379 C 0.22403 0.89497 0.86223 0.0
C3380 C 0.22486 0.84833 0.86602 0.0
H3381 H 0.22305 0.96578 0.86838 0.0
H3382 H 0.22346 0.90412 0.85181 0.0
S3383 S 0.22653 0.8042 0.9006 0.0
N3384 N 0.22589 0.8608 0.90231 0.0
N3385 N 0.22613 0.7943 0.88445 0.0
C3386 C 0.22552 0.8381 0.87968 0.0
C3387 C 0.22526 0.87416 0.88938 0.0
C3388 C 0.96747 0.1727 0.63067 0.0
C3389 C 0.97252 0.16723 0.61777 0.0
C3390 C 0.96767 0.13653 0.63994 0.0
C3391 C 0.97303 0.09339 0.63677 0.0
H3392 H 0.96322 0.20523 0.63362 0.0
H3393 H 0.96351 0.1423 0.64968 0.0
S3394 S 0.98725 0.06039 0.60432 0.0
N3395 N 0.98288 0.11468 0.60228 0.0
N3396 N 0.9834 0.04698 0.61976 0.0
C3397 C 0.97833 0.08757 0.624 0.0
C3398 C 0.97805 0.12437 0.61451 0.0
C3399 C 0.78855 0.59558 0.62726 0.0
C3400 C 0.77984 0.59521 0.61654 0.0
C3401 C 0.78848 0.63113 0.63673 0.0
C3402 C 0.77968 0.66786 0.63593 0.0
H3403 H 0.79551 0.56807 0.62837 0.0
H3404 H 0.79543 0.62989 0.64474 0.0
S3405 S 0.7551 0.68418 0.60963 0.0
N3406 N 0.76228 0.63535 0.6056 0.0
N3407 N 0.76213 0.70208 0.62341 0.0
C3408 C 0.7708 0.66773 0.62537 0.0
C3409 C 0.77089 0.63148 0.61569 0.0
C3410 C 0.97322 0.63227 0.13983 0.0
C3411 C 0.96974 0.58713 0.13628 0.0
C3412 C 0.97386 0.6675 0.13024 0.0
C3413 C 0.97119 0.65876 0.11671 0.0
H3414 H 0.97511 0.64067 0.15014 0.0
H3415 H 0.97613 0.70212 0.13353 0.0
S3416 S 0.96311 0.54456 0.10223 0.0
N3417 N 0.96441 0.53462 0.11834 0.0
N3418 N 0.96603 0.60011 0.10024 0.0
C3419 C 0.96818 0.61314 0.11303 0.0
C3420 C 0.96737 0.57754 0.12282 0.0
C3421 C 0.77102 0.12599 0.13571 0.0
C3422 C 0.77967 0.1632 0.13478 0.0
C3423 C 0.771 0.09037 0.12619 0.0
C3424 C 0.77961 0.09067 0.11539 0.0
H3425 H 0.76445 0.12377 0.14404 0.0
H3426 H 0.76445 0.0617 0.12752 0.0
S3427 S 0.8029 0.18348 0.10741 0.0
N3428 N 0.79618 0.20031 0.12146 0.0
N3429 N 0.79614 0.13365 0.10368 0.0
C3430 C 0.78792 0.12864 0.11407 0.0
C3431 C 0.78795 0.16478 0.12373 0.0
C3432 C 0.52049 0.88017 0.88682 0.0
C3433 C 0.528 0.84025 0.88506 0.0
C3434 C 0.52037 0.91552 0.87722 0.0
C3435 C 0.52774 0.91218 0.86551 0.0
H3436 H 0.51499 0.88479 0.89586 0.0
H3437 H 0.51482 0.94637 0.8792 0.0
S3438 S 0.5475 0.81179 0.85528 0.0
N3439 N 0.54191 0.79746 0.87007 0.0
N3440 N 0.5417 0.86365 0.85213 0.0
C3441 C 0.53479 0.87149 0.86338 0.0
C3442 C 0.53492 0.83563 0.87311 0.0
C3443 C 0.72872 0.40499 0.87779 0.0
C3444 C 0.71947 0.40457 0.88802 0.0
C3445 C 0.72939 0.36912 0.86838 0.0
C3446 C 0.72098 0.3312 0.869 0.0
H3447 H 0.73533 0.43367 0.87691 0.0
H3448 H 0.73662 0.37082 0.86066 0.0
S3449 S 0.6951 0.31341 0.89384 0.0
N3450 N 0.7018 0.36273 0.89821 0.0
N3451 N 0.70302 0.29576 0.88057 0.0
C3452 C 0.71173 0.33035 0.8792 0.0
C3453 C 0.71099 0.36688 0.88869 0.0
C3454 C 0.52129 0.41386 0.37711 0.0
C3455 C 0.52699 0.40722 0.36456 0.0
C3456 C 0.52106 0.3783 0.38663 0.0
C3457 C 0.52626 0.33456 0.38382 0.0
H3458 H 0.51733 0.4472 0.37972 0.0
H3459 H 0.51683 0.38508 0.39627 0.0
S3460 S 0.54194 0.29923 0.35231 0.0
N3461 N 0.53777 0.3535 0.34978 0.0
N3462 N 0.53712 0.28659 0.36752 0.0
C3463 C 0.53171 0.32727 0.3712 0.0
C3464 C 0.53214 0.36361 0.36162 0.0
C3465 C 0.71335 0.9094 0.37575 0.0
C3466 C 0.72273 0.91002 0.3858 0.0
C3467 C 0.71307 0.87438 0.36613 0.0
C3468 C 0.72208 0.83806 0.36622 0.0
H3469 H 0.70611 0.93625 0.37535 0.0
H3470 H 0.70564 0.87563 0.35861 0.0
S3471 S 0.74848 0.82348 0.39073 0.0
N3472 N 0.7413 0.87175 0.3953 0.0
N3473 N 0.74061 0.80499 0.3775 0.0
C3474 C 0.73163 0.83866 0.37617 0.0
C3475 C 0.73199 0.87479 0.38589 0.0
C3476 C 0.47934 0.13315 0.118 0.0
C3477 C 0.47034 0.1693 0.11809 0.0
C3478 C 0.47898 0.09807 0.12767 0.0
C3479 C 0.46967 0.09811 0.13787 0.0
H3480 H 0.48651 0.13138 0.11022 0.0
H3481 H 0.48582 0.07006 0.12692 0.0
S3482 S 0.44508 0.18893 0.14343 0.0
N3483 N 0.45255 0.20519 0.12974 0.0
N3484 N 0.45206 0.1404 0.14809 0.0
C3485 C 0.46098 0.13533 0.13834 0.0
C3486 C 0.46126 0.17059 0.12842 0.0
C3487 C 0.27289 0.6588 0.12657 0.0
C3488 C 0.28034 0.65584 0.13824 0.0
C3489 C 0.27308 0.62351 0.11696 0.0
C3490 C 0.28077 0.58399 0.11864 0.0
H3491 H 0.26716 0.68926 0.12465 0.0
H3492 H 0.26745 0.62776 0.10799 0.0
S3493 S 0.30068 0.55659 0.1482 0.0
N3494 N 0.29465 0.60803 0.15145 0.0
N3495 N 0.29506 0.54209 0.13344 0.0
C3496 C 0.28787 0.57984 0.13049 0.0
C3497 C 0.28764 0.61561 0.14026 0.0
C3498 C 0.46517 0.58802 0.62324 0.0
C3499 C 0.47207 0.59157 0.63524 0.0
C3500 C 0.46554 0.62316 0.61366 0.0
C3501 C 0.47282 0.66351 0.61564 0.0
H3502 H 0.4594 0.55771 0.62124 0.0
H3503 H 0.46003 0.61873 0.60461 0.0
S3504 S 0.49227 0.69063 0.64558 0.0
N3505 N 0.48627 0.63899 0.64866 0.0
N3506 N 0.48689 0.70529 0.63072 0.0
C3507 C 0.47987 0.66737 0.62755 0.0
C3508 C 0.47952 0.6314 0.63731 0.0
C3509 C 0.27477 0.08934 0.62824 0.0
C3510 C 0.28181 0.09263 0.6163 0.0
C3511 C 0.27497 0.12502 0.63773 0.0
C3512 C 0.28229 0.16519 0.63568 0.0
H3513 H 0.26933 0.05844 0.63044 0.0
H3514 H 0.26964 0.12061 0.64689 0.0
S3515 S 0.30109 0.19352 0.60543 0.0
N3516 N 0.29532 0.14147 0.6025 0.0
N3517 N 0.29584 0.20789 0.62036 0.0
C3518 C 0.28901 0.16957 0.62362 0.0
C3519 C 0.28874 0.1335 0.61394 0.0
loop_
_geom_bond_atom_site_label_1
_geom_bond_atom_site_label_2
_geom_bond_distance
_geom_bond_site_symmetry_2
_ccdc_geom_bond_type
Li0 N17 1.990 . S
Li0 O60 1.956 . S
Li0 O61 1.970 . S
Li0 O62 1.961 . S
Li1 N25 1.990 . S
Li1 O60 1.970 . S
Li1 O61 1.956 . S
Li1 O63 1.961 . S
Li2 N47 1.990 . S
Li2 O60 1.961 . S
Li2 O62 1.956 . S
Li2 O63 1.970 . S
Li3 N53 1.990 . S
Li3 O61 1.961 . S
Li3 O62 1.970 . S
Li3 O63 1.956 . S
C4 C6 1.348 . S
C4 C7 1.356 . S
C4 O60 1.325 . S
N5 C8 1.314 . S
N5 C9 1.279 . S
C6 C4 1.348 . S
C6 C8 1.353 . S
C6 H64 0.929 . S
C7 C4 1.356 . S
C7 C9 1.358 . S
C7 H65 0.930 . S
C8 N5 1.314 . S
C8 C6 1.353 . S
C8 H66 0.930 . S
C9 N5 1.279 . S
C9 C7 1.358 . S
C9 H67 0.930 . S
C10 C13 1.348 1_455 S
C10 C14 1.356 . S
C10 O61 1.325 . S
C11 N12 1.279 . S
C11 C14 1.358 1_655 S
C11 H68 0.930 . S
N12 C11 1.279 . S
N12 C15 1.314 . S
C13 C10 1.348 1_655 S
C13 C15 1.353 . S
C13 H69 0.916 1_655 S
C14 C10 1.356 . S
C14 C11 1.358 1_455 S
C14 H70 0.930 . S
C15 N12 1.314 . S
C15 C13 1.353 . S
C15 H71 0.930 . S
C16 N17 1.314 . S
C16 C21 1.353 . S
C16 H22 0.930 . S
N17 Li0 1.990 . S
N17 C16 1.314 . S
N17 C19 1.279 . S
C18 C19 1.358 . S
C18 C20 1.356 . S
C18 H72 0.930 . S
C19 N17 1.279 . S
C19 C18 1.358 . S
C19 H23 0.930 . S
C20 C18 1.356 . S
C20 C21 1.348 . S
C21 C16 1.353 . S
C21 C20 1.348 . S
C21 H73 0.929 . S
H22 C16 0.930 . S
H23 C19 0.930 . S
C24 N25 1.314 . S
C24 C26 1.353 . S
C24 H30 0.930 . S
N25 Li1 1.990 . S
N25 C24 1.314 . S
N25 C28 1.279 . S
C26 C24 1.353 . S
C26 C29 1.348 . S
C26 H74 0.929 . S
C27 C28 1.358 . S
C27 C29 1.356 . S
C27 H75 0.930 . S
C28 N25 1.279 . S
C28 C27 1.358 . S
C28 H31 0.930 . S
C29 C26 1.348 . S
C29 C27 1.356 . S
H30 C24 0.930 . S
H31 C28 0.930 . S
C32 C34 1.348 . S
C32 C35 1.356 . S
C32 O62 1.325 . S
N33 C36 1.314 . S
N33 C37 1.279 1_565 S
C34 C32 1.348 . S
C34 C36 1.353 1_545 S
C34 H76 0.929 . S
C35 C32 1.356 . S
C35 C37 1.358 . S
C35 H77 0.930 . S
C36 N33 1.314 . S
C36 C34 1.353 1_565 S
C36 H78 0.930 . S
C37 N33 1.279 1_545 S
C37 C35 1.358 . S
C37 H79 0.930 . S
C38 C39 1.348 . S
C38 C40 1.356 . S
C38 O63 1.325 . S
C39 C38 1.348 . S
C39 C41 1.353 . S
C39 H80 0.929 . S
C40 C38 1.356 . S
C40 C42 1.358 . S
C40 H81 0.930 . S
C41 C39 1.353 . S
C41 N43 1.314 . S
C41 H82 0.930 . S
C42 C40 1.358 . S
C42 N43 1.279 . S
C42 H83 0.930 . S
N43 C41 1.314 . S
N43 C42 1.279 . S
C44 C46 1.353 . S
C44 N47 1.314 . S
C44 H50 0.930 . S
C45 N47 1.279 . S
C45 C48 1.358 . S
C45 H51 0.930 . S
C46 C44 1.353 . S
C46 C49 1.348 . S
C46 H84 0.929 . S
N47 Li2 1.990 . S
N47 C44 1.314 . S
N47 C45 1.279 . S
C48 C45 1.358 . S
C48 C49 1.356 . S
C48 H85 0.930 . S
C49 C46 1.348 . S
C49 C48 1.356 . S
H50 C44 0.930 . S
H51 C45 0.930 . S
C52 N53 1.314 . S
C52 C54 1.353 1_545 S
C52 H58 0.930 . S
N53 Li3 1.990 . S
N53 C52 1.314 . S
N53 C56 1.279 . S
C54 C52 1.353 1_565 S
C54 C57 1.348 . S
C54 H86 0.929 . S
C55 C56 1.358 1_565 S
C55 C57 1.356 . S
C55 H87 0.930 . S
C56 N53 1.279 . S
C56 C55 1.358 1_545 S
C56 H59 0.930 . S
C57 C54 1.348 . S
C57 C55 1.356 . S
H58 C52 0.930 . S
H59 C56 0.930 . S
O60 Li0 1.956 . S
O60 Li1 1.970 . S
O60 Li2 1.961 . S
O60 C4 1.325 . S
O61 Li0 1.970 . S
O61 Li1 1.956 . S
O61 Li3 1.961 . S
O61 C10 1.325 . S
O62 Li0 1.961 . S
O62 Li2 1.956 . S
O62 Li3 1.970 . S
O62 C32 1.325 . S
O63 Li1 1.961 . S
O63 Li2 1.970 . S
O63 Li3 1.956 . S
O63 C38 1.325 . S
H64 C6 0.929 . S
H65 C7 0.930 . S
H66 C8 0.930 . S
H67 C9 0.930 . S
H68 C11 0.930 . S
H69 C13 0.916 1_455 S
H70 C14 0.930 . S
H71 C15 0.930 . S
H72 C18 0.930 . S
H73 C21 0.929 . S
H74 C26 0.929 . S
H75 C27 0.930 . S
H76 C34 0.929 . S
H77 C35 0.930 . S
H78 C36 0.930 . S
H79 C37 0.930 . S
H80 C39 0.929 . S
H81 C40 0.930 . S
H82 C41 0.930 . S
H83 C42 0.930 . S
H84 C46 0.929 . S
H85 C48 0.930 . S
H86 C54 0.929 . S
H87 C55 0.930 . S
Li88 N105 1.990 . S
Li88 O148 1.956 . S
Li88 O149 1.970 . S
Li88 O150 1.961 . S
Li89 N113 1.990 . S
Li89 O148 1.970 . S
Li89 O149 1.956 . S
Li89 O151 1.961 . S
Li90 N135 1.990 . S
Li90 O148 1.961 . S
Li90 O150 1.956 . S
Li90 O151 1.970 . S
Li91 N141 1.990 . S
Li91 O149 1.961 . S
Li91 O150 1.970 . S
Li91 O151 1.956 . S
C92 C94 1.348 . S
C92 C95 1.356 . S
C92 O148 1.325 . S
N93 C96 1.314 . S
N93 C97 1.279 . S
C94 C92 1.348 . S
C94 C96 1.353 . S
C94 H152 0.929 . S
C95 C92 1.356 . S
C95 C97 1.358 . S
C95 H153 0.930 . S
C96 N93 1.314 . S
C96 C94 1.353 . S
C96 H154 0.930 . S
C97 N93 1.279 . S
C97 C95 1.358 . S
C97 H155 0.930 . S
C98 C101 1.348 . S
C98 C102 1.356 . S
C98 O149 1.325 . S
C99 N100 1.279 . S
C99 C102 1.358 . S
C99 H156 0.930 . S
N100 C99 1.279 . S
N100 C103 1.314 . S
C101 C98 1.348 . S
C101 C103 1.353 . S
C101 H157 0.929 . S
C102 C98 1.356 . S
C102 C99 1.358 . S
C102 H158 0.930 . S
C103 N100 1.314 . S
C103 C101 1.353 . S
C103 H159 0.930 . S
C104 N105 1.314 . S
C104 C109 1.353 . S
C104 H110 0.930 . S
N105 Li88 1.990 . S
N105 C104 1.314 . S
N105 C107 1.279 . S
C106 C107 1.358 . S
C106 C108 1.356 . S
C106 H160 0.930 . S
C107 N105 1.279 . S
C107 C106 1.358 . S
C107 H111 0.930 . S
C108 C106 1.356 . S
C108 C109 1.348 . S
C109 C104 1.353 . S
C109 C108 1.348 . S
C109 H161 0.929 . S
H110 C104 0.930 . S
H111 C107 0.930 . S
C112 N113 1.314 . S
C112 C114 1.353 . S
C112 H118 0.930 . S
N113 Li89 1.990 . S
N113 C112 1.314 . S
N113 C116 1.279 . S
C114 C112 1.353 . S
C114 C117 1.348 . S
C114 H162 0.929 . S
C115 C116 1.358 . S
C115 C117 1.356 . S
C115 H163 0.930 . S
C116 N113 1.279 . S
C116 C115 1.358 . S
C116 H119 0.930 . S
C117 C114 1.348 . S
C117 C115 1.356 . S
H118 C112 0.930 . S
H119 C116 0.930 . S
C120 C122 1.348 1_545 S
C120 C123 1.356 . S
C120 O150 1.325 . S
N121 C124 1.314 . S
N121 C125 1.279 . S
C122 C120 1.348 1_565 S
C122 C124 1.353 . S
C122 H164 0.929 . S
C123 C120 1.356 . S
C123 C125 1.358 1_545 S
C123 H165 0.930 . S
C124 N121 1.314 . S
C124 C122 1.353 . S
C124 H166 0.930 . S
C125 N121 1.279 . S
C125 C123 1.358 1_565 S
C125 H167 0.930 . S
C126 C127 1.348 . S
C126 C128 1.356 . S
C126 O151 1.325 . S
C127 C126 1.348 . S
C127 C129 1.353 . S
C127 H168 0.929 . S
C128 C126 1.356 . S
C128 C130 1.358 . S
C128 H169 0.930 . S
C129 C127 1.353 . S
C129 N131 1.314 . S
C129 H170 0.930 . S
C130 C128 1.358 . S
C130 N131 1.279 . S
C130 H171 0.930 . S
N131 C129 1.314 . S
N131 C130 1.279 . S
C132 C134 1.353 . S
C132 N135 1.314 . S
C132 H138 0.930 . S
C133 N135 1.279 . S
C133 C136 1.358 . S
C133 H139 0.930 . S
C134 C132 1.353 . S
C134 C137 1.348 . S
C134 H172 0.929 . S
N135 Li90 1.990 . S
N135 C132 1.314 . S
N135 C133 1.279 . S
C136 C133 1.358 . S
C136 C137 1.356 . S
C136 H173 0.930 . S
C137 C134 1.348 . S
C137 C136 1.356 . S
H138 C132 0.930 . S
H139 C133 0.930 . S
C140 N141 1.311 1_565 S
C140 C142 1.359 . S
C140 H146 0.927 1_565 S
N141 Li91 1.990 . S
N141 C140 1.311 1_545 S
N141 C144 1.279 . S
C142 C140 1.359 . S
C142 C145 1.348 . S
C142 H174 0.929 . S
C143 C144 1.358 1_565 S
C143 C145 1.356 . S
C143 H175 0.930 . S
C144 N141 1.279 . S
C144 C143 1.358 1_545 S
C144 H147 0.930 . S
C145 C142 1.348 . S
C145 C143 1.356 . S
H146 C140 0.927 1_545 S
H147 C144 0.930 . S
O148 Li88 1.956 . S
O148 Li89 1.970 . S
O148 Li90 1.961 . S
O148 C92 1.325 . S
O149 Li88 1.970 . S
O149 Li89 1.956 . S
O149 Li91 1.961 . S
O149 C98 1.325 . S
O150 Li88 1.961 . S
O150 Li90 1.956 . S
O150 Li91 1.970 . S
O150 C120 1.325 . S
O151 Li89 1.961 . S
O151 Li90 1.970 . S
O151 Li91 1.956 . S
O151 C126 1.325 . S
H152 C94 0.929 . S
H153 C95 0.930 . S
H154 C96 0.930 . S
H155 C97 0.930 . S
H156 C99 0.930 . S
H157 C101 0.929 . S
H158 C102 0.930 . S
H159 C103 0.930 . S
H160 C106 0.930 . S
H161 C109 0.929 . S
H162 C114 0.929 . S
H163 C115 0.930 . S
H164 C122 0.929 . S
H165 C123 0.930 . S
H166 C124 0.930 . S
H167 C125 0.930 . S
H168 C127 0.929 . S
H169 C128 0.930 . S
H170 C129 0.930 . S
H171 C130 0.930 . S
H172 C134 0.929 . S
H173 C136 0.930 . S
H174 C142 0.929 . S
H175 C143 0.930 . S
Li176 N193 1.990 . S
Li176 O236 1.956 . S
Li176 O237 1.970 . S
Li176 O238 1.961 . S
Li177 N201 1.990 . S
Li177 O236 1.970 . S
Li177 O237 1.956 . S
Li177 O239 1.961 . S
Li178 N223 1.990 . S
Li178 O236 1.961 . S
Li178 O238 1.956 . S
Li178 O239 1.970 . S
Li179 N229 1.990 . S
Li179 O237 1.961 . S
Li179 O238 1.970 . S
Li179 O239 1.956 . S
C180 C182 1.348 . S
C180 C183 1.356 . S
C180 O236 1.325 . S
N181 C184 1.314 . S
N181 C185 1.279 . S
C182 C180 1.348 . S
C182 C184 1.353 . S
C182 H240 0.929 . S
C183 C180 1.356 . S
C183 C185 1.358 . S
C183 H241 0.930 . S
C184 N181 1.314 . S
C184 C182 1.353 . S
C184 H242 0.930 . S
C185 N181 1.279 . S
C185 C183 1.358 . S
C185 H243 0.930 . S
C186 C189 1.348 . S
C186 C190 1.356 . S
C186 O237 1.325 . S
C187 N188 1.279 . S
C187 C190 1.358 . S
C187 H244 0.930 . S
N188 C187 1.279 . S
N188 C191 1.314 . S
C189 C186 1.348 . S
C189 C191 1.353 . S
C189 H245 0.929 . S
C190 C186 1.356 . S
C190 C187 1.358 . S
C190 H246 0.930 . S
C191 N188 1.314 . S
C191 C189 1.353 . S
C191 H247 0.930 . S
C192 N193 1.314 . S
C192 C197 1.353 . S
C192 H198 0.930 . S
N193 Li176 1.990 . S
N193 C192 1.314 . S
N193 C195 1.279 . S
C194 C195 1.358 . S
C194 C196 1.356 . S
C194 H248 0.930 . S
C195 N193 1.279 . S
C195 C194 1.358 . S
C195 H199 0.930 . S
C196 C194 1.356 . S
C196 C197 1.348 . S
C197 C192 1.353 . S
C197 C196 1.348 . S
C197 H249 0.929 . S
H198 C192 0.930 . S
H199 C195 0.930 . S
C200 N201 1.314 . S
C200 C202 1.353 . S
C200 H206 0.930 . S
N201 Li177 1.990 . S
N201 C200 1.314 . S
N201 C204 1.279 . S
C202 C200 1.353 . S
C202 C205 1.348 . S
C202 H250 0.929 . S
C203 C204 1.358 . S
C203 C205 1.356 . S
C203 H251 0.930 . S
C204 N201 1.279 . S
C204 C203 1.358 . S
C204 H207 0.930 . S
C205 C202 1.348 . S
C205 C203 1.356 . S
H206 C200 0.930 . S
H207 C204 0.930 . S
C208 C210 1.348 1_545 S
C208 C211 1.356 . S
C208 O238 1.325 . S
N209 C212 1.314 . S
N209 C213 1.279 . S
C210 C208 1.348 1_565 S
C210 C212 1.353 . S
C210 H252 0.929 . S
C211 C208 1.356 . S
C211 C213 1.358 1_545 S
C211 H253 0.930 . S
C212 N209 1.314 . S
C212 C210 1.353 . S
C212 H254 0.930 . S
C213 N209 1.279 . S
C213 C211 1.358 1_565 S
C213 H255 0.930 . S
C214 C215 1.348 1_455 S
C214 C216 1.356 . S
C214 O239 1.325 . S
C215 C214 1.348 1_655 S
C215 C217 1.353 . S
C215 H256 0.916 1_655 S
C216 C214 1.356 . S
C216 C218 1.358 1_455 S
C216 H257 0.930 . S
C217 C215 1.353 . S
C217 N219 1.314 . S
C217 H258 0.930 . S
C218 C216 1.358 1_655 S
C218 N219 1.279 . S
C218 H259 0.930 . S
N219 C217 1.314 . S
N219 C218 1.279 . S
C220 C222 1.353 . S
C220 N223 1.314 . S
C220 H226 0.930 . S
C221 N223 1.279 . S
C221 C224 1.358 . S
C221 H227 0.930 . S
C222 C220 1.353 . S
C222 C225 1.348 . S
C222 H260 0.929 . S
N223 Li178 1.990 . S
N223 C220 1.314 . S
N223 C221 1.279 . S
C224 C221 1.358 . S
C224 C225 1.356 . S
C224 H261 0.930 . S
C225 C222 1.348 . S
C225 C224 1.356 . S
H226 C220 0.930 . S
H227 C221 0.930 . S
C228 N229 1.311 1_565 S
C228 C230 1.359 . S
C228 H234 0.927 1_565 S
N229 Li179 1.990 . S
N229 C228 1.311 1_545 S
N229 C232 1.279 . S
C230 C228 1.359 . S
C230 C233 1.348 . S
C230 H262 0.929 . S
C231 C232 1.358 1_565 S
C231 C233 1.356 . S
C231 H263 0.930 . S
C232 N229 1.279 . S
C232 C231 1.358 1_545 S
C232 H235 0.930 . S
C233 C230 1.348 . S
C233 C231 1.356 . S
H234 C228 0.927 1_545 S
H235 C232 0.930 . S
O236 Li176 1.956 . S
O236 Li177 1.970 . S
O236 Li178 1.961 . S
O236 C180 1.325 . S
O237 Li176 1.970 . S
O237 Li177 1.956 . S
O237 Li179 1.961 . S
O237 C186 1.325 . S
O238 Li176 1.961 . S
O238 Li178 1.956 . S
O238 Li179 1.970 . S
O238 C208 1.325 . S
O239 Li177 1.961 . S
O239 Li178 1.970 . S
O239 Li179 1.956 . S
O239 C214 1.325 . S
H240 C182 0.929 . S
H241 C183 0.930 . S
H242 C184 0.930 . S
H243 C185 0.930 . S
H244 C187 0.930 . S
H245 C189 0.929 . S
H246 C190 0.930 . S
H247 C191 0.930 . S
H248 C194 0.930 . S
H249 C197 0.929 . S
H250 C202 0.929 . S
H251 C203 0.930 . S
H252 C210 0.929 . S
H253 C211 0.930 . S
H254 C212 0.930 . S
H255 C213 0.930 . S
H256 C215 0.916 1_455 S
H257 C216 0.930 . S
H258 C217 0.930 . S
H259 C218 0.930 . S
H260 C222 0.929 . S
H261 C224 0.930 . S
H262 C230 0.929 . S
H263 C231 0.930 . S
Li264 N281 1.990 . S
Li264 O324 1.956 . S
Li264 O325 1.970 . S
Li264 O326 1.961 . S
Li265 N289 1.990 . S
Li265 O324 1.970 . S
Li265 O325 1.956 . S
Li265 O327 1.961 . S
Li266 N311 1.990 . S
Li266 O324 1.961 . S
Li266 O326 1.956 . S
Li266 O327 1.970 . S
Li267 N317 1.990 . S
Li267 O325 1.961 . S
Li267 O326 1.970 . S
Li267 O327 1.956 . S
C268 C270 1.348 . S
C268 C271 1.356 . S
C268 O324 1.325 . S
N269 C272 1.314 . S
N269 C273 1.279 . S
C270 C268 1.348 . S
C270 C272 1.353 . S
C270 H328 0.929 . S
C271 C268 1.356 . S
C271 C273 1.358 . S
C271 H329 0.930 . S
C272 N269 1.314 . S
C272 C270 1.353 . S
C272 H330 0.930 . S
C273 N269 1.279 . S
C273 C271 1.358 . S
C273 H331 0.930 . S
C274 C277 1.348 . S
C274 C278 1.356 . S
C274 O325 1.325 . S
C275 N276 1.279 . S
C275 C278 1.358 . S
C275 H332 0.930 . S
N276 C275 1.279 . S
N276 C279 1.314 . S
C277 C274 1.348 . S
C277 C279 1.353 . S
C277 H333 0.929 . S
C278 C274 1.356 . S
C278 C275 1.358 . S
C278 H334 0.930 . S
C279 N276 1.314 . S
C279 C277 1.353 . S
C279 H335 0.930 . S
C280 N281 1.314 . S
C280 C285 1.353 . S
C280 H286 0.930 . S
N281 Li264 1.990 . S
N281 C280 1.314 . S
N281 C283 1.279 . S
C282 C283 1.358 . S
C282 C284 1.356 . S
C282 H336 0.930 . S
C283 N281 1.279 . S
C283 C282 1.358 . S
C283 H287 0.930 . S
C284 C282 1.356 . S
C284 C285 1.348 . S
C285 C280 1.353 . S
C285 C284 1.348 . S
C285 H337 0.929 . S
H286 C280 0.930 . S
H287 C283 0.930 . S
C288 N289 1.314 . S
C288 C290 1.353 . S
C288 H294 0.930 . S
N289 Li265 1.990 . S
N289 C288 1.314 . S
N289 C292 1.279 . S
C290 C288 1.353 . S
C290 C293 1.348 . S
C290 H338 0.929 . S
C291 C292 1.358 . S
C291 C293 1.356 . S
C291 H339 0.930 . S
C292 N289 1.279 . S
C292 C291 1.358 . S
C292 H295 0.930 . S
C293 C290 1.348 . S
C293 C291 1.356 . S
H294 C288 0.930 . S
H295 C292 0.930 . S
C296 C298 1.348 . S
C296 C299 1.356 . S
C296 O326 1.325 . S
N297 C300 1.314 . S
N297 C301 1.279 . S
C298 C296 1.348 . S
C298 C300 1.353 . S
C298 H340 0.929 . S
C299 C296 1.356 . S
C299 C301 1.358 . S
C299 H341 0.930 . S
C300 N297 1.314 . S
C300 C298 1.353 . S
C300 H342 0.930 . S
C301 N297 1.279 . S
C301 C299 1.358 . S
C301 H343 0.930 . S
C302 C303 1.348 . S
C302 C304 1.356 . S
C302 O327 1.325 . S
C303 C302 1.348 . S
C303 C305 1.353 1_545 S
C303 H344 0.929 . S
C304 C302 1.356 . S
C304 C306 1.358 . S
C304 H345 0.930 . S
C305 C303 1.353 1_565 S
C305 N307 1.314 . S
C305 H346 0.930 . S
C306 C304 1.358 . S
C306 N307 1.279 1_545 S
C306 H347 0.930 . S
N307 C305 1.314 . S
N307 C306 1.279 1_565 S
C308 C310 1.353 1_545 S
C308 N311 1.314 . S
C308 H314 0.930 . S
C309 N311 1.279 . S
C309 C312 1.358 1_545 S
C309 H315 0.930 . S
C310 C308 1.353 1_565 S
C310 C313 1.348 . S
C310 H348 0.929 . S
N311 Li266 1.990 . S
N311 C308 1.314 . S
N311 C309 1.279 . S
C312 C309 1.358 1_565 S
C312 C313 1.356 . S
C312 H349 0.930 . S
C313 C310 1.348 . S
C313 C312 1.356 . S
H314 C308 0.930 . S
H315 C309 0.930 . S
C316 N317 1.314 . S
C316 C318 1.353 . S
C316 H322 0.930 . S
N317 Li267 1.990 . S
N317 C316 1.314 . S
N317 C320 1.279 . S
C318 C316 1.353 . S
C318 C321 1.348 . S
C318 H350 0.929 . S
C319 C320 1.358 . S
C319 C321 1.356 . S
C319 H351 0.930 . S
C320 N317 1.279 . S
C320 C319 1.358 . S
C320 H323 0.930 . S
C321 C318 1.348 . S
C321 C319 1.356 . S
H322 C316 0.930 . S
H323 C320 0.930 . S
O324 Li264 1.956 . S
O324 Li265 1.970 . S
O324 Li266 1.961 . S
O324 C268 1.325 . S
O325 Li264 1.970 . S
O325 Li265 1.956 . S
O325 Li267 1.961 . S
O325 C274 1.325 . S
O326 Li264 1.961 . S
O326 Li266 1.956 . S
O326 Li267 1.970 . S
O326 C296 1.325 . S
O327 Li265 1.961 . S
O327 Li266 1.970 . S
O327 Li267 1.956 . S
O327 C302 1.325 . S
H328 C270 0.929 . S
H329 C271 0.930 . S
H330 C272 0.930 . S
H331 C273 0.930 . S
H332 C275 0.930 . S
H333 C277 0.929 . S
H334 C278 0.930 . S
H335 C279 0.930 . S
H336 C282 0.930 . S
H337 C285 0.929 . S
H338 C290 0.929 . S
H339 C291 0.930 . S
H340 C298 0.929 . S
H341 C299 0.930 . S
H342 C300 0.930 . S
H343 C301 0.930 . S
H344 C303 0.929 . S
H345 C304 0.930 . S
H346 C305 0.930 . S
H347 C306 0.930 . S
H348 C310 0.929 . S
H349 C312 0.930 . S
H350 C318 0.929 . S
H351 C319 0.930 . S
Li352 N369 1.990 . S
Li352 O412 1.956 . S
Li352 O413 1.970 . S
Li352 O414 1.961 . S
Li353 N377 1.990 . S
Li353 O412 1.970 . S
Li353 O413 1.956 . S
Li353 O415 1.961 . S
Li354 N399 1.990 . S
Li354 O412 1.961 . S
Li354 O414 1.956 . S
Li354 O415 1.970 . S
Li355 N405 1.990 . S
Li355 O413 1.961 . S
Li355 O414 1.970 . S
Li355 O415 1.956 . S
C356 C358 1.348 1_655 S
C356 C359 1.356 . S
C356 O412 1.325 . S
N357 C360 1.314 . S
N357 C361 1.279 . S
C358 C356 1.348 1_455 S
C358 C360 1.353 . S
C358 H416 0.936 . S
C359 C356 1.356 . S
C359 C361 1.358 1_655 S
C359 H417 0.930 . S
C360 N357 1.314 . S
C360 C358 1.353 . S
C360 H418 0.930 . S
C361 N357 1.279 . S
C361 C359 1.358 1_455 S
C361 H419 0.930 . S
C362 C365 1.348 . S
C362 C366 1.356 . S
C362 O413 1.325 . S
C363 N364 1.279 1_565 S
C363 C366 1.358 . S
C363 H420 0.930 . S
N364 C363 1.279 1_545 S
N364 C367 1.314 . S
C365 C362 1.348 . S
C365 C367 1.353 1_565 S
C365 H421 0.929 . S
C366 C362 1.356 . S
C366 C363 1.358 . S
C366 H422 0.930 . S
C367 N364 1.314 . S
C367 C365 1.353 1_545 S
C367 H423 0.930 . S
C368 N369 1.314 . S
C368 C373 1.353 1_565 S
C368 H374 0.930 . S
N369 Li352 1.990 . S
N369 C368 1.314 . S
N369 C371 1.279 . S
C370 C371 1.358 1_545 S
C370 C372 1.356 . S
C370 H424 0.894 1_655 S
C371 N369 1.279 . S
C371 C370 1.358 1_565 S
C371 H375 0.930 . S
C372 C370 1.356 . S
C372 C373 1.348 . S
C373 C368 1.353 1_545 S
C373 C372 1.348 . S
C373 H425 0.929 . S
H374 C368 0.930 . S
H375 C371 0.930 . S
C376 N377 1.314 . S
C376 C378 1.353 . S
C376 H382 0.930 . S
N377 Li353 1.990 . S
N377 C376 1.314 . S
N377 C380 1.279 . S
C378 C376 1.353 . S
C378 C381 1.348 . S
C378 H426 0.929 . S
C379 C380 1.358 . S
C379 C381 1.356 . S
C379 H427 0.930 . S
C380 N377 1.279 . S
C380 C379 1.358 . S
C380 H383 0.930 . S
C381 C378 1.348 . S
C381 C379 1.356 . S
H382 C376 0.930 . S
H383 C380 0.930 . S
C384 C386 1.348 . S
C384 C387 1.356 . S
C384 O414 1.325 . S
N385 C388 1.314 . S
N385 C389 1.279 . S
C386 C384 1.348 . S
C386 C388 1.353 . S
C386 H428 0.929 . S
C387 C384 1.356 . S
C387 C389 1.358 . S
C387 H429 0.930 . S
C388 N385 1.314 . S
C388 C386 1.353 . S
C388 H430 0.930 . S
C389 N385 1.279 . S
C389 C387 1.358 . S
C389 H431 0.930 . S
C390 C391 1.348 . S
C390 C392 1.356 . S
C390 O415 1.325 . S
C391 C390 1.348 . S
C391 C393 1.353 . S
C391 H432 0.929 . S
C392 C390 1.356 . S
C392 C394 1.358 . S
C392 H433 0.930 . S
C393 C391 1.353 . S
C393 N395 1.314 . S
C393 H434 0.930 . S
C394 C392 1.358 . S
C394 N395 1.279 . S
C394 H435 0.930 . S
N395 C393 1.314 . S
N395 C394 1.279 . S
C396 C398 1.353 . S
C396 N399 1.314 . S
C396 H402 0.930 . S
C397 N399 1.279 . S
C397 C400 1.358 . S
C397 H403 0.930 . S
C398 C396 1.353 . S
C398 C401 1.348 . S
C398 H436 0.929 . S
N399 Li354 1.990 . S
N399 C396 1.314 . S
N399 C397 1.279 . S
C400 C397 1.358 . S
C400 C401 1.356 . S
C400 H437 0.930 . S
C401 C398 1.348 . S
C401 C400 1.356 . S
H402 C396 0.930 . S
H403 C397 0.930 . S
C404 N405 1.314 . S
C404 C406 1.353 . S
C404 H410 0.930 . S
N405 Li355 1.990 . S
N405 C404 1.314 . S
N405 C408 1.279 . S
C406 C404 1.353 . S
C406 C409 1.348 . S
C406 H438 0.929 . S
C407 C408 1.358 . S
C407 C409 1.356 . S
C407 H439 0.930 . S
C408 N405 1.279 . S
C408 C407 1.358 . S
C408 H411 0.930 . S
C409 C406 1.348 . S
C409 C407 1.356 . S
H410 C404 0.930 . S
H411 C408 0.930 . S
O412 Li352 1.956 . S
O412 Li353 1.970 . S
O412 Li354 1.961 . S
O412 C356 1.325 . S
O413 Li352 1.970 . S
O413 Li353 1.956 . S
O413 Li355 1.961 . S
O413 C362 1.325 . S
O414 Li352 1.961 . S
O414 Li354 1.956 . S
O414 Li355 1.970 . S
O414 C384 1.325 . S
O415 Li353 1.961 . S
O415 Li354 1.970 . S
O415 Li355 1.956 . S
O415 C390 1.325 . S
H416 C358 0.936 . S
H417 C359 0.930 . S
H418 C360 0.930 . S
H419 C361 0.930 . S
H420 C363 0.930 . S
H421 C365 0.929 . S
H422 C366 0.930 . S
H423 C367 0.930 . S
H424 C370 0.894 1_455 S
H425 C373 0.929 . S
H426 C378 0.929 . S
H427 C379 0.930 . S
H428 C386 0.929 . S
H429 C387 0.930 . S
H430 C388 0.930 . S
H431 C389 0.930 . S
H432 C391 0.929 . S
H433 C392 0.930 . S
H434 C393 0.930 . S
H435 C394 0.930 . S
H436 C398 0.929 . S
H437 C400 0.930 . S
H438 C406 0.929 . S
H439 C407 0.930 . S
Li440 N457 1.990 . S
Li440 O500 1.956 . S
Li440 O501 1.970 . S
Li440 O502 1.961 . S
Li441 N465 1.990 . S
Li441 O500 1.970 . S
Li441 O501 1.956 . S
Li441 O503 1.961 . S
Li442 N487 1.990 . S
Li442 O500 1.961 . S
Li442 O502 1.956 . S
Li442 O503 1.970 . S
Li443 N493 1.990 . S
Li443 O501 1.961 . S
Li443 O502 1.970 . S
Li443 O503 1.956 . S
C444 C446 1.348 1_565 S
C444 C447 1.356 . S
C444 O500 1.325 . S
N445 C448 1.314 . S
N445 C449 1.279 . S
C446 C444 1.348 1_545 S
C446 C448 1.353 . S
C446 H504 0.929 . S
C447 C444 1.356 . S
C447 C449 1.358 1_565 S
C447 H505 0.930 . S
C448 N445 1.314 . S
C448 C446 1.353 . S
C448 H506 0.930 . S
C449 N445 1.279 . S
C449 C447 1.358 1_545 S
C449 H507 0.930 . S
C450 C453 1.348 . S
C450 C454 1.356 . S
C450 O501 1.325 . S
C451 N452 1.279 . S
C451 C454 1.358 . S
C451 H508 0.930 . S
N452 C451 1.279 . S
N452 C455 1.314 . S
C453 C450 1.348 . S
C453 C455 1.353 . S
C453 H509 0.929 . S
C454 C450 1.356 . S
C454 C451 1.358 . S
C454 H510 0.930 . S
C455 N452 1.314 . S
C455 C453 1.353 . S
C455 H511 0.930 . S
C456 N457 1.314 . S
C456 C461 1.353 . S
C456 H462 0.930 . S
N457 Li440 1.990 . S
N457 C456 1.314 . S
N457 C459 1.279 . S
C458 C459 1.358 . S
C458 C460 1.356 . S
C458 H512 0.930 . S
C459 N457 1.279 . S
C459 C458 1.358 . S
C459 H463 0.930 . S
C460 C458 1.356 . S
C460 C461 1.348 . S
C461 C456 1.353 . S
C461 C460 1.348 . S
C461 H513 0.929 . S
H462 C456 0.930 . S
H463 C459 0.930 . S
C464 N465 1.314 1_545 S
C464 C466 1.353 . S
C464 H470 0.930 . S
N465 Li441 1.990 . S
N465 C464 1.314 1_565 S
N465 C468 1.279 . S
C466 C464 1.353 . S
C466 C469 1.348 . S
C466 H514 0.929 . S
C467 C468 1.358 1_545 S
C467 C469 1.356 . S
C467 H515 0.930 . S
C468 N465 1.279 . S
C468 C467 1.358 1_565 S
C468 H471 0.930 . S
C469 C466 1.348 . S
C469 C467 1.356 . S
H470 C464 0.930 . S
H471 C468 0.930 . S
C472 C474 1.348 . S
C472 C475 1.356 . S
C472 O502 1.325 . S
N473 C476 1.314 . S
N473 C477 1.279 . S
C474 C472 1.348 . S
C474 C476 1.353 . S
C474 H516 0.929 . S
C475 C472 1.356 . S
C475 C477 1.358 . S
C475 H517 0.930 . S
C476 N473 1.314 . S
C476 C474 1.353 . S
C476 H518 0.930 . S
C477 N473 1.279 . S
C477 C475 1.358 . S
C477 H519 0.930 . S
C478 C479 1.348 . S
C478 C480 1.356 . S
C478 O503 1.325 . S
C479 C478 1.348 . S
C479 C481 1.353 . S
C479 H520 0.929 . S
C480 C478 1.356 . S
C480 C482 1.358 . S
C480 H521 0.930 . S
C481 C479 1.353 . S
C481 N483 1.314 . S
C481 H522 0.930 . S
C482 C480 1.358 . S
C482 N483 1.279 . S
C482 H523 0.930 . S
N483 C481 1.314 . S
N483 C482 1.279 . S
C484 C486 1.353 . S
C484 N487 1.314 . S
C484 H490 0.930 . S
C485 N487 1.279 . S
C485 C488 1.358 . S
C485 H491 0.930 . S
C486 C484 1.353 . S
C486 C489 1.348 . S
C486 H524 0.929 . S
N487 Li442 1.990 . S
N487 C484 1.314 . S
N487 C485 1.279 . S
C488 C485 1.358 . S
C488 C489 1.356 . S
C488 H525 0.930 . S
C489 C486 1.348 . S
C489 C488 1.356 . S
H490 C484 0.930 . S
H491 C485 0.930 . S
C492 N493 1.314 . S
C492 C494 1.353 . S
C492 H498 0.930 . S
N493 Li443 1.990 . S
N493 C492 1.314 . S
N493 C496 1.279 . S
C494 C492 1.353 . S
C494 C497 1.348 . S
C494 H526 0.929 . S
C495 C496 1.358 . S
C495 C497 1.356 . S
C495 H527 0.930 . S
C496 N493 1.279 . S
C496 C495 1.358 . S
C496 H499 0.930 . S
C497 C494 1.348 . S
C497 C495 1.356 . S
H498 C492 0.930 . S
H499 C496 0.930 . S
O500 Li440 1.956 . S
O500 Li441 1.970 . S
O500 Li442 1.961 . S
O500 C444 1.325 . S
O501 Li440 1.970 . S
O501 Li441 1.956 . S
O501 Li443 1.961 . S
O501 C450 1.325 . S
O502 Li440 1.961 . S
O502 Li442 1.956 . S
O502 Li443 1.970 . S
O502 C472 1.325 . S
O503 Li441 1.961 . S
O503 Li442 1.970 . S
O503 Li443 1.956 . S
O503 C478 1.325 . S
H504 C446 0.929 . S
H505 C447 0.930 . S
H506 C448 0.930 . S
H507 C449 0.930 . S
H508 C451 0.930 . S
H509 C453 0.929 . S
H510 C454 0.930 . S
H511 C455 0.930 . S
H512 C458 0.930 . S
H513 C461 0.929 . S
H514 C466 0.929 . S
H515 C467 0.930 . S
H516 C474 0.929 . S
H517 C475 0.930 . S
H518 C476 0.930 . S
H519 C477 0.930 . S
H520 C479 0.929 . S
H521 C480 0.930 . S
H522 C481 0.930 . S
H523 C482 0.930 . S
H524 C486 0.929 . S
H525 C488 0.930 . S
H526 C494 0.929 . S
H527 C495 0.930 . S
Li528 N545 1.990 . S
Li528 O588 1.956 . S
Li528 O589 1.970 . S
Li528 O590 1.961 . S
Li529 N553 1.990 . S
Li529 O588 1.970 . S
Li529 O589 1.956 . S
Li529 O591 1.961 . S
Li530 N575 1.990 . S
Li530 O588 1.961 . S
Li530 O590 1.956 . S
Li530 O591 1.970 . S
Li531 N581 1.990 . S
Li531 O589 1.961 . S
Li531 O590 1.970 . S
Li531 O591 1.956 . S
C532 C534 1.348 1_565 S
C532 C535 1.356 . S
C532 O588 1.325 . S
N533 C536 1.314 . S
N533 C537 1.279 . S
C534 C532 1.348 1_545 S
C534 C536 1.353 . S
C534 H592 0.929 . S
C535 C532 1.356 . S
C535 C537 1.358 1_565 S
C535 H593 0.930 . S
C536 N533 1.314 . S
C536 C534 1.353 . S
C536 H594 0.930 . S
C537 N533 1.279 . S
C537 C535 1.358 1_545 S
C537 H595 0.930 . S
C538 C541 1.348 . S
C538 C542 1.356 . S
C538 O589 1.325 . S
C539 N540 1.279 . S
C539 C542 1.358 . S
C539 H596 0.930 . S
N540 C539 1.279 . S
N540 C543 1.314 . S
C541 C538 1.348 . S
C541 C543 1.353 . S
C541 H597 0.929 . S
C542 C538 1.356 . S
C542 C539 1.358 . S
C542 H598 0.930 . S
C543 N540 1.314 . S
C543 C541 1.353 . S
C543 H599 0.930 . S
C544 N545 1.314 . S
C544 C549 1.353 . S
C544 H550 0.930 . S
N545 Li528 1.990 . S
N545 C544 1.314 . S
N545 C547 1.279 . S
C546 C547 1.358 . S
C546 C548 1.356 . S
C546 H600 0.930 . S
C547 N545 1.279 . S
C547 C546 1.358 . S
C547 H551 0.930 . S
C548 C546 1.356 . S
C548 C549 1.348 . S
C549 C544 1.353 . S
C549 C548 1.348 . S
C549 H601 0.929 . S
H550 C544 0.930 . S
H551 C547 0.930 . S
C552 N553 1.314 1_545 S
C552 C554 1.353 . S
C552 H558 0.930 . S
N553 Li529 1.990 . S
N553 C552 1.314 1_565 S
N553 C556 1.279 . S
C554 C552 1.353 . S
C554 C557 1.348 . S
C554 H602 0.929 . S
C555 C556 1.358 1_545 S
C555 C557 1.356 . S
C555 H603 0.930 . S
C556 N553 1.279 . S
C556 C555 1.358 1_565 S
C556 H559 0.930 . S
C557 C554 1.348 . S
C557 C555 1.356 . S
H558 C552 0.930 . S
H559 C556 0.930 . S
C560 C562 1.348 . S
C560 C563 1.356 . S
C560 O590 1.325 . S
N561 C564 1.314 . S
N561 C565 1.279 . S
C562 C560 1.348 . S
C562 C564 1.353 . S
C562 H604 0.929 . S
C563 C560 1.356 . S
C563 C565 1.358 . S
C563 H605 0.930 . S
C564 N561 1.314 . S
C564 C562 1.353 . S
C564 H606 0.930 . S
C565 N561 1.279 . S
C565 C563 1.358 . S
C565 H607 0.930 . S
C566 C567 1.348 1_655 S
C566 C568 1.356 . S
C566 O591 1.325 . S
C567 C566 1.348 1_455 S
C567 C569 1.353 . S
C567 H608 0.936 . S
C568 C566 1.356 . S
C568 C570 1.358 1_655 S
C568 H609 0.930 . S
C569 C567 1.353 . S
C569 N571 1.314 . S
C569 H610 0.930 . S
C570 C568 1.358 1_455 S
C570 N571 1.279 . S
C570 H611 0.930 . S
N571 C569 1.314 . S
N571 C570 1.279 . S
C572 C574 1.353 . S
C572 N575 1.314 . S
C572 H578 0.930 . S
C573 N575 1.279 . S
C573 C576 1.358 . S
C573 H579 0.930 . S
C574 C572 1.353 . S
C574 C577 1.348 . S
C574 H612 0.929 . S
N575 Li530 1.990 . S
N575 C572 1.314 . S
N575 C573 1.279 . S
C576 C573 1.358 . S
C576 C577 1.356 . S
C576 H613 0.930 . S
C577 C574 1.348 . S
C577 C576 1.356 . S
H578 C572 0.930 . S
H579 C573 0.930 . S
C580 N581 1.314 . S
C580 C582 1.353 . S
C580 H586 0.930 . S
N581 Li531 1.990 . S
N581 C580 1.314 . S
N581 C584 1.279 . S
C582 C580 1.353 . S
C582 C585 1.348 . S
C582 H614 0.929 . S
C583 C584 1.358 . S
C583 C585 1.356 . S
C583 H615 0.894 1_655 S
C584 N581 1.279 . S
C584 C583 1.358 . S
C584 H587 0.930 . S
C585 C582 1.348 . S
C585 C583 1.356 . S
H586 C580 0.930 . S
H587 C584 0.930 . S
O588 Li528 1.956 . S
O588 Li529 1.970 . S
O588 Li530 1.961 . S
O588 C532 1.325 . S
O589 Li528 1.970 . S
O589 Li529 1.956 . S
O589 Li531 1.961 . S
O589 C538 1.325 . S
O590 Li528 1.961 . S
O590 Li530 1.956 . S
O590 Li531 1.970 . S
O590 C560 1.325 . S
O591 Li529 1.961 . S
O591 Li530 1.970 . S
O591 Li531 1.956 . S
O591 C566 1.325 . S
H592 C534 0.929 . S
H593 C535 0.930 . S
H594 C536 0.930 . S
H595 C537 0.930 . S
H596 C539 0.930 . S
H597 C541 0.929 . S
H598 C542 0.930 . S
H599 C543 0.930 . S
H600 C546 0.930 . S
H601 C549 0.929 . S
H602 C554 0.929 . S
H603 C555 0.930 . S
H604 C562 0.929 . S
H605 C563 0.930 . S
H606 C564 0.930 . S
H607 C565 0.930 . S
H608 C567 0.936 . S
H609 C568 0.930 . S
H610 C569 0.930 . S
H611 C570 0.930 . S
H612 C574 0.929 . S
H613 C576 0.930 . S
H614 C582 0.929 . S
H615 C583 0.894 1_455 S
Li616 N633 1.990 . S
Li616 O676 1.956 . S
Li616 O677 1.970 . S
Li616 O678 1.961 . S
Li617 N641 1.990 . S
Li617 O676 1.970 . S
Li617 O677 1.956 . S
Li617 O679 1.961 . S
Li618 N663 1.990 . S
Li618 O676 1.961 . S
Li618 O678 1.956 . S
Li618 O679 1.970 . S
Li619 N669 1.990 . S
Li619 O677 1.961 . S
Li619 O678 1.970 . S
Li619 O679 1.956 . S
C620 C622 1.348 . S
C620 C623 1.356 . S
C620 O676 1.325 . S
N621 C624 1.314 . S
N621 C625 1.279 1_545 S
C622 C620 1.348 . S
C622 C624 1.353 1_565 S
C622 H680 0.929 . S
C623 C620 1.356 . S
C623 C625 1.358 . S
C623 H681 0.930 . S
C624 N621 1.314 . S
C624 C622 1.353 1_545 S
C624 H682 0.930 . S
C625 N621 1.279 1_565 S
C625 C623 1.358 . S
C625 H683 0.930 . S
C626 C629 1.348 . S
C626 C630 1.356 . S
C626 O677 1.325 . S
C627 N628 1.279 . S
C627 C630 1.358 . S
C627 H684 0.930 . S
N628 C627 1.279 . S
N628 C631 1.314 . S
C629 C626 1.348 . S
C629 C631 1.353 . S
C629 H685 0.929 . S
C630 C626 1.356 . S
C630 C627 1.358 . S
C630 H686 0.930 . S
C631 N628 1.314 . S
C631 C629 1.353 . S
C631 H687 0.930 . S
C632 N633 1.314 . S
C632 C637 1.353 . S
C632 H638 0.930 . S
N633 Li616 1.990 . S
N633 C632 1.314 . S
N633 C635 1.279 . S
C634 C635 1.358 . S
C634 C636 1.356 . S
C634 H688 0.930 . S
C635 N633 1.279 . S
C635 C634 1.358 . S
C635 H639 0.930 . S
C636 C634 1.356 . S
C636 C637 1.348 . S
C637 C632 1.353 . S
C637 C636 1.348 . S
C637 H689 0.929 . S
H638 C632 0.930 . S
H639 C635 0.930 . S
C640 N641 1.314 . S
C640 C642 1.353 1_565 S
C640 H646 0.930 . S
N641 Li617 1.990 . S
N641 C640 1.314 . S
N641 C644 1.279 . S
C642 C640 1.353 1_545 S
C642 C645 1.348 . S
C642 H690 0.929 . S
C643 C644 1.358 1_545 S
C643 C645 1.356 . S
C643 H691 0.930 . S
C644 N641 1.279 . S
C644 C643 1.358 1_565 S
C644 H647 0.930 . S
C645 C642 1.348 . S
C645 C643 1.356 . S
H646 C640 0.930 . S
H647 C644 0.930 . S
C648 C650 1.348 . S
C648 C651 1.356 . S
C648 O678 1.325 . S
N649 C652 1.314 . S
N649 C653 1.279 . S
C650 C648 1.348 . S
C650 C652 1.353 . S
C650 H692 0.929 . S
C651 C648 1.356 . S
C651 C653 1.358 . S
C651 H693 0.930 . S
C652 N649 1.314 . S
C652 C650 1.353 . S
C652 H694 0.930 . S
C653 N649 1.279 . S
C653 C651 1.358 . S
C653 H695 0.930 . S
C654 C655 1.348 . S
C654 C656 1.356 . S
C654 O679 1.325 . S
C655 C654 1.348 . S
C655 C657 1.353 . S
C655 H696 0.929 . S
C656 C654 1.356 . S
C656 C658 1.358 . S
C656 H697 0.930 . S
C657 C655 1.353 . S
C657 N659 1.314 . S
C657 H698 0.930 . S
C658 C656 1.358 . S
C658 N659 1.279 . S
C658 H699 0.930 . S
N659 C657 1.314 . S
N659 C658 1.279 . S
C660 C662 1.353 . S
C660 N663 1.314 . S
C660 H666 0.930 . S
C661 N663 1.279 . S
C661 C664 1.358 . S
C661 H667 0.930 . S
C662 C660 1.353 . S
C662 C665 1.348 . S
C662 H700 0.929 . S
N663 Li618 1.990 . S
N663 C660 1.314 . S
N663 C661 1.279 . S
C664 C661 1.358 . S
C664 C665 1.356 . S
C664 H701 0.930 . S
C665 C662 1.348 . S
C665 C664 1.356 . S
H666 C660 0.930 . S
H667 C661 0.930 . S
C668 N669 1.314 . S
C668 C670 1.353 . S
C668 H674 0.930 . S
N669 Li619 1.990 . S
N669 C668 1.314 . S
N669 C672 1.279 . S
C670 C668 1.353 . S
C670 C673 1.348 . S
C670 H702 0.929 . S
C671 C672 1.358 . S
C671 C673 1.356 . S
C671 H703 0.930 . S
C672 N669 1.279 . S
C672 C671 1.358 . S
C672 H675 0.930 . S
C673 C670 1.348 . S
C673 C671 1.356 . S
H674 C668 0.930 . S
H675 C672 0.930 . S
O676 Li616 1.956 . S
O676 Li617 1.970 . S
O676 Li618 1.961 . S
O676 C620 1.325 . S
O677 Li616 1.970 . S
O677 Li617 1.956 . S
O677 Li619 1.961 . S
O677 C626 1.325 . S
O678 Li616 1.961 . S
O678 Li618 1.956 . S
O678 Li619 1.970 . S
O678 C648 1.325 . S
O679 Li617 1.961 . S
O679 Li618 1.970 . S
O679 Li619 1.956 . S
O679 C654 1.325 . S
H680 C622 0.929 . S
H681 C623 0.930 . S
H682 C624 0.930 . S
H683 C625 0.930 . S
H684 C627 0.930 . S
H685 C629 0.929 . S
H686 C630 0.930 . S
H687 C631 0.930 . S
H688 C634 0.930 . S
H689 C637 0.929 . S
H690 C642 0.929 . S
H691 C643 0.930 . S
H692 C650 0.929 . S
H693 C651 0.930 . S
H694 C652 0.930 . S
H695 C653 0.930 . S
H696 C655 0.929 . S
H697 C656 0.930 . S
H698 C657 0.930 . S
H699 C658 0.930 . S
H700 C662 0.929 . S
H701 C664 0.930 . S
H702 C670 0.929 . S
H703 C671 0.930 . S
Li704 N721 1.990 . S
Li704 O764 1.956 . S
Li704 O765 1.970 . S
Li704 O766 1.961 . S
Li705 N729 1.990 . S
Li705 O764 1.970 . S
Li705 O765 1.956 . S
Li705 O767 1.961 . S
Li706 N751 1.990 . S
Li706 O764 1.961 . S
Li706 O766 1.956 . S
Li706 O767 1.970 . S
Li707 N757 1.990 . S
Li707 O765 1.961 . S
Li707 O766 1.970 . S
Li707 O767 1.956 . S
C708 C710 1.348 . S
C708 C711 1.356 . S
C708 O764 1.325 . S
N709 C712 1.314 . S
N709 C713 1.279 . S
C710 C708 1.348 . S
C710 C712 1.353 . S
C710 H768 0.929 . S
C711 C708 1.356 . S
C711 C713 1.358 . S
C711 H769 0.930 . S
C712 N709 1.314 . S
C712 C710 1.353 . S
C712 H770 0.930 . S
C713 N709 1.279 . S
C713 C711 1.358 . S
C713 H771 0.930 . S
C714 C717 1.348 1_455 S
C714 C718 1.356 . S
C714 O765 1.325 . S
C715 N716 1.279 . S
C715 C718 1.358 1_655 S
C715 H772 0.930 . S
N716 C715 1.279 . S
N716 C719 1.314 . S
C717 C714 1.348 1_655 S
C717 C719 1.353 . S
C717 H773 0.916 1_655 S
C718 C714 1.356 . S
C718 C715 1.358 1_455 S
C718 H774 0.930 . S
C719 N716 1.314 . S
C719 C717 1.353 . S
C719 H775 0.930 . S
C720 N721 1.314 . S
C720 C725 1.353 . S
C720 H726 0.930 . S
N721 Li704 1.990 . S
N721 C720 1.314 . S
N721 C723 1.279 . S
C722 C723 1.358 . S
C722 C724 1.356 . S
C722 H776 0.930 . S
C723 N721 1.279 . S
C723 C722 1.358 . S
C723 H727 0.930 . S
C724 C722 1.356 . S
C724 C725 1.348 . S
C725 C720 1.353 . S
C725 C724 1.348 . S
C725 H777 0.929 . S
H726 C720 0.930 . S
H727 C723 0.930 . S
C728 N729 1.314 . S
C728 C730 1.353 . S
C728 H734 0.930 . S
N729 Li705 1.990 . S
N729 C728 1.314 . S
N729 C732 1.279 . S
C730 C728 1.353 . S
C730 C733 1.348 . S
C730 H778 0.929 . S
C731 C732 1.358 . S
C731 C733 1.356 . S
C731 H779 0.930 . S
C732 N729 1.279 . S
C732 C731 1.358 . S
C732 H735 0.930 . S
C733 C730 1.348 . S
C733 C731 1.356 . S
H734 C728 0.930 . S
H735 C732 0.930 . S
C736 C738 1.348 . S
C736 C739 1.356 . S
C736 O766 1.325 . S
N737 C740 1.314 . S
N737 C741 1.279 . S
C738 C736 1.348 . S
C738 C740 1.353 . S
C738 H780 0.929 . S
C739 C736 1.356 . S
C739 C741 1.358 . S
C739 H781 0.930 . S
C740 N737 1.314 . S
C740 C738 1.353 . S
C740 H782 0.930 . S
C741 N737 1.279 . S
C741 C739 1.358 . S
C741 H783 0.930 . S
C742 C743 1.348 . S
C742 C744 1.356 . S
C742 O767 1.325 . S
C743 C742 1.348 . S
C743 C745 1.353 . S
C743 H784 0.929 . S
C744 C742 1.356 . S
C744 C746 1.358 . S
C744 H785 0.930 . S
C745 C743 1.353 . S
C745 N747 1.314 . S
C745 H786 0.930 . S
C746 C744 1.358 . S
C746 N747 1.279 . S
C746 H787 0.930 . S
N747 C745 1.314 . S
N747 C746 1.279 . S
C748 C750 1.353 . S
C748 N751 1.314 . S
C748 H754 0.930 . S
C749 N751 1.279 . S
C749 C752 1.358 . S
C749 H755 0.930 . S
C750 C748 1.353 . S
C750 C753 1.348 . S
C750 H788 0.929 . S
N751 Li706 1.990 . S
N751 C748 1.314 . S
N751 C749 1.279 . S
C752 C749 1.358 . S
C752 C753 1.356 . S
C752 H789 0.930 . S
C753 C750 1.348 . S
C753 C752 1.356 . S
H754 C748 0.930 . S
H755 C749 0.930 . S
C756 N757 1.314 . S
C756 C758 1.353 . S
C756 H762 0.930 . S
N757 Li707 1.990 . S
N757 C756 1.314 . S
N757 C760 1.279 . S
C758 C756 1.353 . S
C758 C761 1.348 . S
C758 H790 0.929 . S
C759 C760 1.358 . S
C759 C761 1.356 . S
C759 H791 0.930 . S
C760 N757 1.279 . S
C760 C759 1.358 . S
C760 H763 0.930 . S
C761 C758 1.348 . S
C761 C759 1.356 . S
H762 C756 0.930 . S
H763 C760 0.930 . S
O764 Li704 1.956 . S
O764 Li705 1.970 . S
O764 Li706 1.961 . S
O764 C708 1.325 . S
O765 Li704 1.970 . S
O765 Li705 1.956 . S
O765 Li707 1.961 . S
O765 C714 1.325 . S
O766 Li704 1.961 . S
O766 Li706 1.956 . S
O766 Li707 1.970 . S
O766 C736 1.325 . S
O767 Li705 1.961 . S
O767 Li706 1.970 . S
O767 Li707 1.956 . S
O767 C742 1.325 . S
H768 C710 0.929 . S
H769 C711 0.930 . S
H770 C712 0.930 . S
H771 C713 0.930 . S
H772 C715 0.930 . S
H773 C717 0.916 1_455 S
H774 C718 0.930 . S
H775 C719 0.930 . S
H776 C722 0.930 . S
H777 C725 0.929 . S
H778 C730 0.929 . S
H779 C731 0.930 . S
H780 C738 0.929 . S
H781 C739 0.930 . S
H782 C740 0.930 . S
H783 C741 0.930 . S
H784 C743 0.929 . S
H785 C744 0.930 . S
H786 C745 0.930 . S
H787 C746 0.930 . S
H788 C750 0.929 . S
H789 C752 0.930 . S
H790 C758 0.929 . S
H791 C759 0.930 . S
Li792 N809 1.990 . S
Li792 O852 1.956 . S
Li792 O853 1.970 . S
Li792 O854 1.961 . S
Li793 N817 1.990 . S
Li793 O852 1.970 . S
Li793 O853 1.956 . S
Li793 O855 1.961 . S
Li794 N839 1.990 . S
Li794 O852 1.961 . S
Li794 O854 1.956 . S
Li794 O855 1.970 . S
Li795 N845 1.990 . S
Li795 O853 1.961 . S
Li795 O854 1.970 . S
Li795 O855 1.956 . S
C796 C798 1.348 . S
C796 C799 1.356 . S
C796 O852 1.325 . S
N797 C800 1.314 . S
N797 C801 1.279 . S
C798 C796 1.348 . S
C798 C800 1.353 . S
C798 H856 0.929 . S
C799 C796 1.356 . S
C799 C801 1.358 . S
C799 H857 0.930 . S
C800 N797 1.314 . S
C800 C798 1.353 . S
C800 H858 0.930 . S
C801 N797 1.279 . S
C801 C799 1.358 . S
C801 H859 0.930 . S
C802 C805 1.348 . S
C802 C806 1.356 . S
C802 O853 1.325 . S
C803 N804 1.279 . S
C803 C806 1.358 . S
C803 H860 0.930 . S
N804 C803 1.279 . S
N804 C807 1.314 . S
C805 C802 1.348 . S
C805 C807 1.353 . S
C805 H861 0.929 . S
C806 C802 1.356 . S
C806 C803 1.358 . S
C806 H862 0.930 . S
C807 N804 1.314 . S
C807 C805 1.353 . S
C807 H863 0.930 . S
C808 N809 1.314 . S
C808 C813 1.353 . S
C808 H814 0.930 . S
N809 Li792 1.990 . S
N809 C808 1.314 . S
N809 C811 1.279 . S
C810 C811 1.358 . S
C810 C812 1.356 . S
C810 H864 0.930 . S
C811 N809 1.279 . S
C811 C810 1.358 . S
C811 H815 0.930 . S
C812 C810 1.356 . S
C812 C813 1.348 . S
C813 C808 1.353 . S
C813 C812 1.348 . S
C813 H865 0.929 . S
H814 C808 0.930 . S
H815 C811 0.930 . S
C816 N817 1.314 . S
C816 C818 1.353 . S
C816 H822 0.930 . S
N817 Li793 1.990 . S
N817 C816 1.314 . S
N817 C820 1.279 . S
C818 C816 1.353 . S
C818 C821 1.348 . S
C818 H866 0.929 . S
C819 C820 1.358 . S
C819 C821 1.356 . S
C819 H867 0.930 . S
C820 N817 1.279 . S
C820 C819 1.358 . S
C820 H823 0.930 . S
C821 C818 1.348 . S
C821 C819 1.356 . S
H822 C816 0.930 . S
H823 C820 0.930 . S
C824 C826 1.348 . S
C824 C827 1.356 . S
C824 O854 1.325 . S
N825 C828 1.314 . S
N825 C829 1.279 . S
C826 C824 1.348 . S
C826 C828 1.353 . S
C826 H868 0.929 . S
C827 C824 1.356 . S
C827 C829 1.358 . S
C827 H869 0.930 . S
C828 N825 1.314 . S
C828 C826 1.353 . S
C828 H870 0.930 . S
C829 N825 1.279 . S
C829 C827 1.358 . S
C829 H871 0.930 . S
C830 C831 1.348 . S
C830 C832 1.356 . S
C830 O855 1.325 . S
C831 C830 1.348 . S
C831 C833 1.353 . S
C831 H872 0.929 . S
C832 C830 1.356 . S
C832 C834 1.358 . S
C832 H873 0.930 . S
C833 C831 1.353 . S
C833 N835 1.314 . S
C833 H874 0.930 . S
C834 C832 1.358 . S
C834 N835 1.279 . S
C834 H875 0.930 . S
N835 C833 1.314 . S
N835 C834 1.279 . S
C836 C838 1.353 . S
C836 N839 1.314 . S
C836 H842 0.930 . S
C837 N839 1.279 . S
C837 C840 1.358 . S
C837 H843 0.930 . S
C838 C836 1.353 . S
C838 C841 1.348 . S
C838 H876 0.929 . S
N839 Li794 1.990 . S
N839 C836 1.314 . S
N839 C837 1.279 . S
C840 C837 1.358 . S
C840 C841 1.356 . S
C840 H877 0.930 . S
C841 C838 1.348 . S
C841 C840 1.356 . S
H842 C836 0.930 . S
H843 C837 0.930 . S
C844 N845 1.314 . S
C844 C846 1.353 . S
C844 H850 0.930 . S
N845 Li795 1.990 . S
N845 C844 1.314 . S
N845 C848 1.279 . S
C846 C844 1.353 . S
C846 C849 1.348 . S
C846 H878 0.929 . S
C847 C848 1.358 . S
C847 C849 1.356 . S
C847 H879 0.930 . S
C848 N845 1.279 . S
C848 C847 1.358 . S
C848 H851 0.930 . S
C849 C846 1.348 . S
C849 C847 1.356 . S
H850 C844 0.930 . S
H851 C848 0.930 . S
O852 Li792 1.956 . S
O852 Li793 1.970 . S
O852 Li794 1.961 . S
O852 C796 1.325 . S
O853 Li792 1.970 . S
O853 Li793 1.956 . S
O853 Li795 1.961 . S
O853 C802 1.325 . S
O854 Li792 1.961 . S
O854 Li794 1.956 . S
O854 Li795 1.970 . S
O854 C824 1.325 . S
O855 Li793 1.961 . S
O855 Li794 1.970 . S
O855 Li795 1.956 . S
O855 C830 1.325 . S
H856 C798 0.929 . S
H857 C799 0.930 . S
H858 C800 0.930 . S
H859 C801 0.930 . S
H860 C803 0.930 . S
H861 C805 0.929 . S
H862 C806 0.930 . S
H863 C807 0.930 . S
H864 C810 0.930 . S
H865 C813 0.929 . S
H866 C818 0.929 . S
H867 C819 0.930 . S
H868 C826 0.929 . S
H869 C827 0.930 . S
H870 C828 0.930 . S
H871 C829 0.930 . S
H872 C831 0.929 . S
H873 C832 0.930 . S
H874 C833 0.930 . S
H875 C834 0.930 . S
H876 C838 0.929 . S
H877 C840 0.930 . S
H878 C846 0.929 . S
H879 C847 0.930 . S
Li880 N897 1.990 . S
Li880 O940 1.956 . S
Li880 O941 1.970 . S
Li880 O942 1.961 . S
Li881 N905 1.990 . S
Li881 O940 1.970 . S
Li881 O941 1.956 . S
Li881 O943 1.961 . S
Li882 N927 1.990 . S
Li882 O940 1.961 . S
Li882 O942 1.956 . S
Li882 O943 1.970 . S
Li883 N933 1.990 . S
Li883 O941 1.961 . S
Li883 O942 1.970 . S
Li883 O943 1.956 . S
C884 C886 1.348 . S
C884 C887 1.356 . S
C884 O940 1.325 . S
N885 C888 1.314 . S
N885 C889 1.279 . S
C886 C884 1.348 . S
C886 C888 1.353 . S
C886 H944 0.929 . S
C887 C884 1.356 . S
C887 C889 1.358 . S
C887 H945 0.930 . S
C888 N885 1.314 . S
C888 C886 1.353 . S
C888 H946 0.930 . S
C889 N885 1.279 . S
C889 C887 1.358 . S
C889 H947 0.930 . S
C890 C893 1.348 . S
C890 C894 1.356 . S
C890 O941 1.325 . S
C891 N892 1.279 . S
C891 C894 1.358 . S
C891 H948 0.930 . S
N892 C891 1.279 . S
N892 C895 1.314 . S
C893 C890 1.348 . S
C893 C895 1.353 . S
C893 H949 0.929 . S
C894 C890 1.356 . S
C894 C891 1.358 . S
C894 H950 0.930 . S
C895 N892 1.314 . S
C895 C893 1.353 . S
C895 H951 0.930 . S
C896 N897 1.314 . S
C896 C901 1.353 . S
C896 H902 0.930 . S
N897 Li880 1.990 . S
N897 C896 1.314 . S
N897 C899 1.279 . S
C898 C899 1.358 . S
C898 C900 1.356 . S
C898 H952 0.930 . S
C899 N897 1.279 . S
C899 C898 1.358 . S
C899 H903 0.930 . S
C900 C898 1.356 . S
C900 C901 1.348 . S
C901 C896 1.353 . S
C901 C900 1.348 . S
C901 H953 0.929 . S
H902 C896 0.930 . S
H903 C899 0.930 . S
C904 N905 1.314 . S
C904 C906 1.353 . S
C904 H910 0.930 . S
N905 Li881 1.990 . S
N905 C904 1.314 . S
N905 C908 1.279 . S
C906 C904 1.353 . S
C906 C909 1.348 . S
C906 H954 0.929 . S
C907 C908 1.358 . S
C907 C909 1.356 . S
C907 H955 0.930 . S
C908 N905 1.279 . S
C908 C907 1.358 . S
C908 H911 0.930 . S
C909 C906 1.348 . S
C909 C907 1.356 . S
H910 C904 0.930 . S
H911 C908 0.930 . S
C912 C914 1.348 1_455 S
C912 C915 1.356 . S
C912 O942 1.325 . S
N913 C916 1.314 . S
N913 C917 1.279 . S
C914 C912 1.348 1_655 S
C914 C916 1.353 . S
C914 H956 0.916 1_655 S
C915 C912 1.356 . S
C915 C917 1.358 1_455 S
C915 H957 0.930 . S
C916 N913 1.314 . S
C916 C914 1.353 . S
C916 H958 0.930 . S
C917 N913 1.279 . S
C917 C915 1.358 1_655 S
C917 H959 0.930 . S
C918 C919 1.348 . S
C918 C920 1.356 . S
C918 O943 1.325 . S
C919 C918 1.348 . S
C919 C921 1.353 . S
C919 H960 0.929 . S
C920 C918 1.356 . S
C920 C922 1.358 . S
C920 H961 0.930 . S
C921 C919 1.353 . S
C921 N923 1.314 . S
C921 H962 0.930 . S
C922 C920 1.358 . S
C922 N923 1.279 . S
C922 H963 0.930 . S
N923 C921 1.314 . S
N923 C922 1.279 . S
C924 C926 1.353 . S
C924 N927 1.314 . S
C924 H930 0.930 . S
C925 N927 1.279 . S
C925 C928 1.358 . S
C925 H931 0.930 . S
C926 C924 1.353 . S
C926 C929 1.348 . S
C926 H964 0.929 . S
N927 Li882 1.990 . S
N927 C924 1.314 . S
N927 C925 1.279 . S
C928 C925 1.358 . S
C928 C929 1.356 . S
C928 H965 0.930 . S
C929 C926 1.348 . S
C929 C928 1.356 . S
H930 C924 0.930 . S
H931 C925 0.930 . S
C932 N933 1.314 . S
C932 C934 1.353 . S
C932 H938 0.930 . S
N933 Li883 1.990 . S
N933 C932 1.314 . S
N933 C936 1.279 . S
C934 C932 1.353 . S
C934 C937 1.348 . S
C934 H966 0.929 . S
C935 C936 1.358 . S
C935 C937 1.356 . S
C935 H967 0.930 . S
C936 N933 1.279 . S
C936 C935 1.358 . S
C936 H939 0.930 . S
C937 C934 1.348 . S
C937 C935 1.356 . S
H938 C932 0.930 . S
H939 C936 0.930 . S
O940 Li880 1.956 . S
O940 Li881 1.970 . S
O940 Li882 1.961 . S
O940 C884 1.325 . S
O941 Li880 1.970 . S
O941 Li881 1.956 . S
O941 Li883 1.961 . S
O941 C890 1.325 . S
O942 Li880 1.961 . S
O942 Li882 1.956 . S
O942 Li883 1.970 . S
O942 C912 1.325 . S
O943 Li881 1.961 . S
O943 Li882 1.970 . S
O943 Li883 1.956 . S
O943 C918 1.325 . S
H944 C886 0.929 . S
H945 C887 0.930 . S
H946 C888 0.930 . S
H947 C889 0.930 . S
H948 C891 0.930 . S
H949 C893 0.929 . S
H950 C894 0.930 . S
H951 C895 0.930 . S
H952 C898 0.930 . S
H953 C901 0.929 . S
H954 C906 0.929 . S
H955 C907 0.930 . S
H956 C914 0.916 1_455 S
H957 C915 0.930 . S
H958 C916 0.930 . S
H959 C917 0.930 . S
H960 C919 0.929 . S
H961 C920 0.930 . S
H962 C921 0.930 . S
H963 C922 0.930 . S
H964 C926 0.929 . S
H965 C928 0.930 . S
H966 C934 0.929 . S
H967 C935 0.930 . S
Li968 N985 1.990 . S
Li968 O1028 1.956 . S
Li968 O1029 1.970 . S
Li968 O1030 1.961 . S
Li969 N993 1.990 . S
Li969 O1028 1.970 . S
Li969 O1029 1.956 . S
Li969 O1031 1.961 . S
Li970 N1015 1.990 . S
Li970 O1028 1.961 . S
Li970 O1030 1.956 . S
Li970 O1031 1.970 . S
Li971 N1021 1.990 . S
Li971 O1029 1.961 . S
Li971 O1030 1.970 . S
Li971 O1031 1.956 . S
C972 C974 1.348 . S
C972 C975 1.356 . S
C972 O1028 1.325 . S
N973 C976 1.314 . S
N973 C977 1.279 . S
C974 C972 1.348 . S
C974 C976 1.353 . S
C974 H1032 0.929 . S
C975 C972 1.356 . S
C975 C977 1.358 . S
C975 H1033 0.930 . S
C976 N973 1.314 . S
C976 C974 1.353 . S
C976 H1034 0.930 . S
C977 N973 1.279 . S
C977 C975 1.358 . S
C977 H1035 0.930 . S
C978 C981 1.348 . S
C978 C982 1.356 . S
C978 O1029 1.325 . S
C979 N980 1.279 . S
C979 C982 1.358 . S
C979 H1036 0.930 . S
N980 C979 1.279 . S
N980 C983 1.314 . S
C981 C978 1.348 . S
C981 C983 1.353 . S
C981 H1037 0.929 . S
C982 C978 1.356 . S
C982 C979 1.358 . S
C982 H1038 0.930 . S
C983 N980 1.314 . S
C983 C981 1.353 . S
C983 H1039 0.930 . S
C984 N985 1.314 . S
C984 C989 1.353 . S
C984 H990 0.930 . S
N985 Li968 1.990 . S
N985 C984 1.314 . S
N985 C987 1.279 . S
C986 C987 1.358 . S
C986 C988 1.356 . S
C986 H1040 0.930 . S
C987 N985 1.279 . S
C987 C986 1.358 . S
C987 H991 0.930 . S
C988 C986 1.356 . S
C988 C989 1.348 . S
C989 C984 1.353 . S
C989 C988 1.348 . S
C989 H1041 0.929 . S
H990 C984 0.930 . S
H991 C987 0.930 . S
C992 N993 1.314 . S
C992 C994 1.353 . S
C992 H998 0.930 . S
N993 Li969 1.990 . S
N993 C992 1.314 . S
N993 C996 1.279 . S
C994 C992 1.353 . S
C994 C997 1.348 . S
C994 H1042 0.929 . S
C995 C996 1.358 . S
C995 C997 1.356 . S
C995 H1043 0.930 . S
C996 N993 1.279 . S
C996 C995 1.358 . S
C996 H999 0.930 . S
C997 C994 1.348 . S
C997 C995 1.356 . S
H998 C992 0.930 . S
H999 C996 0.930 . S
C1000 C1002 1.348 . S
C1000 C1003 1.356 . S
C1000 O1030 1.325 . S
N1001 C1004 1.314 . S
N1001 C1005 1.279 . S
C1002 C1000 1.348 . S
C1002 C1004 1.353 . S
C1002 H1044 0.929 . S
C1003 C1000 1.356 . S
C1003 C1005 1.358 . S
C1003 H1045 0.930 . S
C1004 N1001 1.314 . S
C1004 C1002 1.353 . S
C1004 H1046 0.930 . S
C1005 N1001 1.279 . S
C1005 C1003 1.358 . S
C1005 H1047 0.930 . S
C1006 C1007 1.348 . S
C1006 C1008 1.356 . S
C1006 O1031 1.325 . S
C1007 C1006 1.348 . S
C1007 C1009 1.353 . S
C1007 H1048 0.929 . S
C1008 C1006 1.356 . S
C1008 C1010 1.358 . S
C1008 H1049 0.930 . S
C1009 C1007 1.353 . S
C1009 N1011 1.314 . S
C1009 H1050 0.930 . S
C1010 C1008 1.358 . S
C1010 N1011 1.279 . S
C1010 H1051 0.930 . S
N1011 C1009 1.314 . S
N1011 C1010 1.279 . S
C1012 C1014 1.353 . S
C1012 N1015 1.314 . S
C1012 H1018 0.930 . S
C1013 N1015 1.279 . S
C1013 C1016 1.358 . S
C1013 H1019 0.930 . S
C1014 C1012 1.353 . S
C1014 C1017 1.348 . S
C1014 H1052 0.929 . S
N1015 Li970 1.990 . S
N1015 C1012 1.314 . S
N1015 C1013 1.279 . S
C1016 C1013 1.358 . S
C1016 C1017 1.356 . S
C1016 H1053 0.930 . S
C1017 C1014 1.348 . S
C1017 C1016 1.356 . S
H1018 C1012 0.930 . S
H1019 C1013 0.930 . S
C1020 N1021 1.314 . S
C1020 C1022 1.353 . S
C1020 H1026 0.930 . S
N1021 Li971 1.990 . S
N1021 C1020 1.314 . S
N1021 C1024 1.279 . S
C1022 C1020 1.353 . S
C1022 C1025 1.348 . S
C1022 H1054 0.929 . S
C1023 C1024 1.358 . S
C1023 C1025 1.356 . S
C1023 H1055 0.930 . S
C1024 N1021 1.279 . S
C1024 C1023 1.358 . S
C1024 H1027 0.930 . S
C1025 C1022 1.348 . S
C1025 C1023 1.356 . S
H1026 C1020 0.930 . S
H1027 C1024 0.930 . S
O1028 Li968 1.956 . S
O1028 Li969 1.970 . S
O1028 Li970 1.961 . S
O1028 C972 1.325 . S
O1029 Li968 1.970 . S
O1029 Li969 1.956 . S
O1029 Li971 1.961 . S
O1029 C978 1.325 . S
O1030 Li968 1.961 . S
O1030 Li970 1.956 . S
O1030 Li971 1.970 . S
O1030 C1000 1.325 . S
O1031 Li969 1.961 . S
O1031 Li970 1.970 . S
O1031 Li971 1.956 . S
O1031 C1006 1.325 . S
H1032 C974 0.929 . S
H1033 C975 0.930 . S
H1034 C976 0.930 . S
H1035 C977 0.930 . S
H1036 C979 0.930 . S
H1037 C981 0.929 . S
H1038 C982 0.930 . S
H1039 C983 0.930 . S
H1040 C986 0.930 . S
H1041 C989 0.929 . S
H1042 C994 0.929 . S
H1043 C995 0.930 . S
H1044 C1002 0.929 . S
H1045 C1003 0.930 . S
H1046 C1004 0.930 . S
H1047 C1005 0.930 . S
H1048 C1007 0.929 . S
H1049 C1008 0.930 . S
H1050 C1009 0.930 . S
H1051 C1010 0.930 . S
H1052 C1014 0.929 . S
H1053 C1016 0.930 . S
H1054 C1022 0.929 . S
H1055 C1023 0.930 . S
Li1056 N1073 1.990 . S
Li1056 O1116 1.956 . S
Li1056 O1117 1.970 . S
Li1056 O1118 1.961 . S
Li1057 N1081 1.990 . S
Li1057 O1116 1.970 . S
Li1057 O1117 1.956 . S
Li1057 O1119 1.961 . S
Li1058 N1103 1.990 . S
Li1058 O1116 1.961 . S
Li1058 O1118 1.956 . S
Li1058 O1119 1.970 . S
Li1059 N1109 1.990 . S
Li1059 O1117 1.961 . S
Li1059 O1118 1.970 . S
Li1059 O1119 1.956 . S
C1060 C1062 1.348 . S
C1060 C1063 1.356 . S
C1060 O1116 1.325 . S
N1061 C1064 1.314 . S
N1061 C1065 1.279 . S
C1062 C1060 1.348 . S
C1062 C1064 1.353 . S
C1062 H1120 0.929 . S
C1063 C1060 1.356 . S
C1063 C1065 1.358 . S
C1063 H1121 0.930 . S
C1064 N1061 1.314 . S
C1064 C1062 1.353 . S
C1064 H1122 0.930 . S
C1065 N1061 1.279 . S
C1065 C1063 1.358 . S
C1065 H1123 0.930 . S
C1066 C1069 1.348 1_655 S
C1066 C1070 1.356 . S
C1066 O1117 1.325 . S
C1067 N1068 1.279 . S
C1067 C1070 1.358 1_455 S
C1067 H1124 0.930 . S
N1068 C1067 1.279 . S
N1068 C1071 1.314 . S
C1069 C1066 1.348 1_455 S
C1069 C1071 1.353 . S
C1069 H1125 0.936 . S
C1070 C1066 1.356 . S
C1070 C1067 1.358 1_655 S
C1070 H1126 0.930 . S
C1071 N1068 1.314 . S
C1071 C1069 1.353 . S
C1071 H1127 0.930 . S
C1072 N1073 1.314 . S
C1072 C1077 1.353 . S
C1072 H1078 0.930 . S
N1073 Li1056 1.990 . S
N1073 C1072 1.314 . S
N1073 C1075 1.279 . S
C1074 C1075 1.358 . S
C1074 C1076 1.356 . S
C1074 H1128 0.930 . S
C1075 N1073 1.279 . S
C1075 C1074 1.358 . S
C1075 H1079 0.930 . S
C1076 C1074 1.356 . S
C1076 C1077 1.348 . S
C1077 C1072 1.353 . S
C1077 C1076 1.348 . S
C1077 H1129 0.929 . S
H1078 C1072 0.930 . S
H1079 C1075 0.930 . S
C1080 N1081 1.314 . S
C1080 C1082 1.353 . S
C1080 H1086 0.930 . S
N1081 Li1057 1.990 . S
N1081 C1080 1.314 . S
N1081 C1084 1.279 . S
C1082 C1080 1.353 . S
C1082 C1085 1.348 . S
C1082 H1130 0.929 . S
C1083 C1084 1.358 . S
C1083 C1085 1.356 . S
C1083 H1131 0.894 1_655 S
C1084 N1081 1.279 . S
C1084 C1083 1.358 . S
C1084 H1087 0.930 . S
C1085 C1082 1.348 . S
C1085 C1083 1.356 . S
H1086 C1080 0.930 . S
H1087 C1084 0.930 . S
C1088 C1090 1.348 . S
C1088 C1091 1.356 . S
C1088 O1118 1.325 . S
N1089 C1092 1.314 . S
N1089 C1093 1.279 . S
C1090 C1088 1.348 . S
C1090 C1092 1.353 . S
C1090 H1132 0.929 . S
C1091 C1088 1.356 . S
C1091 C1093 1.358 . S
C1091 H1133 0.930 . S
C1092 N1089 1.314 . S
C1092 C1090 1.353 . S
C1092 H1134 0.930 . S
C1093 N1089 1.279 . S
C1093 C1091 1.358 . S
C1093 H1135 0.930 . S
C1094 C1095 1.348 . S
C1094 C1096 1.356 . S
C1094 O1119 1.325 . S
C1095 C1094 1.348 . S
C1095 C1097 1.353 . S
C1095 H1136 0.929 . S
C1096 C1094 1.356 . S
C1096 C1098 1.358 . S
C1096 H1137 0.930 . S
C1097 C1095 1.353 . S
C1097 N1099 1.314 . S
C1097 H1138 0.930 . S
C1098 C1096 1.358 . S
C1098 N1099 1.279 . S
C1098 H1139 0.930 . S
N1099 C1097 1.314 . S
N1099 C1098 1.279 . S
C1100 C1102 1.353 . S
C1100 N1103 1.314 . S
C1100 H1106 0.930 . S
C1101 N1103 1.279 . S
C1101 C1104 1.358 . S
C1101 H1107 0.930 . S
C1102 C1100 1.353 . S
C1102 C1105 1.348 . S
C1102 H1140 0.929 . S
N1103 Li1058 1.990 . S
N1103 C1100 1.314 . S
N1103 C1101 1.279 . S
C1104 C1101 1.358 . S
C1104 C1105 1.356 . S
C1104 H1141 0.930 . S
C1105 C1102 1.348 . S
C1105 C1104 1.356 . S
H1106 C1100 0.930 . S
H1107 C1101 0.930 . S
C1108 N1109 1.314 . S
C1108 C1110 1.353 . S
C1108 H1114 0.930 . S
N1109 Li1059 1.990 . S
N1109 C1108 1.314 . S
N1109 C1112 1.279 . S
C1110 C1108 1.353 . S
C1110 C1113 1.348 . S
C1110 H1142 0.929 . S
C1111 C1112 1.358 . S
C1111 C1113 1.356 . S
C1111 H1143 0.930 . S
C1112 N1109 1.279 . S
C1112 C1111 1.358 . S
C1112 H1115 0.930 . S
C1113 C1110 1.348 . S
C1113 C1111 1.356 . S
H1114 C1108 0.930 . S
H1115 C1112 0.930 . S
O1116 Li1056 1.956 . S
O1116 Li1057 1.970 . S
O1116 Li1058 1.961 . S
O1116 C1060 1.325 . S
O1117 Li1056 1.970 . S
O1117 Li1057 1.956 . S
O1117 Li1059 1.961 . S
O1117 C1066 1.325 . S
O1118 Li1056 1.961 . S
O1118 Li1058 1.956 . S
O1118 Li1059 1.970 . S
O1118 C1088 1.325 . S
O1119 Li1057 1.961 . S
O1119 Li1058 1.970 . S
O1119 Li1059 1.956 . S
O1119 C1094 1.325 . S
H1120 C1062 0.929 . S
H1121 C1063 0.930 . S
H1122 C1064 0.930 . S
H1123 C1065 0.930 . S
H1124 C1067 0.930 . S
H1125 C1069 0.936 . S
H1126 C1070 0.930 . S
H1127 C1071 0.930 . S
H1128 C1074 0.930 . S
H1129 C1077 0.929 . S
H1130 C1082 0.929 . S
H1131 C1083 0.894 1_455 S
H1132 C1090 0.929 . S
H1133 C1091 0.930 . S
H1134 C1092 0.930 . S
H1135 C1093 0.930 . S
H1136 C1095 0.929 . S
H1137 C1096 0.930 . S
H1138 C1097 0.930 . S
H1139 C1098 0.930 . S
H1140 C1102 0.929 . S
H1141 C1104 0.930 . S
H1142 C1110 0.929 . S
H1143 C1111 0.930 . S
Li1144 N1161 1.990 . S
Li1144 O1204 1.956 . S
Li1144 O1205 1.970 . S
Li1144 O1206 1.961 . S
Li1145 N1169 1.990 . S
Li1145 O1204 1.970 . S
Li1145 O1205 1.956 . S
Li1145 O1207 1.961 . S
Li1146 N1191 1.990 . S
Li1146 O1204 1.961 . S
Li1146 O1206 1.956 . S
Li1146 O1207 1.970 . S
Li1147 N1197 1.990 . S
Li1147 O1205 1.961 . S
Li1147 O1206 1.970 . S
Li1147 O1207 1.956 . S
C1148 C1150 1.348 . S
C1148 C1151 1.356 . S
C1148 O1204 1.325 . S
N1149 C1152 1.314 . S
N1149 C1153 1.279 . S
C1150 C1148 1.348 . S
C1150 C1152 1.353 . S
C1150 H1208 0.929 . S
C1151 C1148 1.356 . S
C1151 C1153 1.358 . S
C1151 H1209 0.930 . S
C1152 N1149 1.314 . S
C1152 C1150 1.353 . S
C1152 H1210 0.930 . S
C1153 N1149 1.279 . S
C1153 C1151 1.358 . S
C1153 H1211 0.930 . S
C1154 C1157 1.348 . S
C1154 C1158 1.356 . S
C1154 O1205 1.325 . S
C1155 N1156 1.279 . S
C1155 C1158 1.358 . S
C1155 H1212 0.930 . S
N1156 C1155 1.279 . S
N1156 C1159 1.314 . S
C1157 C1154 1.348 . S
C1157 C1159 1.353 . S
C1157 H1213 0.929 . S
C1158 C1154 1.356 . S
C1158 C1155 1.358 . S
C1158 H1214 0.930 . S
C1159 N1156 1.314 . S
C1159 C1157 1.353 . S
C1159 H1215 0.930 . S
C1160 N1161 1.314 . S
C1160 C1165 1.353 . S
C1160 H1166 0.930 . S
N1161 Li1144 1.990 . S
N1161 C1160 1.314 . S
N1161 C1163 1.279 . S
C1162 C1163 1.358 . S
C1162 C1164 1.356 . S
C1162 H1216 0.930 . S
C1163 N1161 1.279 . S
C1163 C1162 1.358 . S
C1163 H1167 0.930 . S
C1164 C1162 1.356 . S
C1164 C1165 1.348 . S
C1165 C1160 1.353 . S
C1165 C1164 1.348 . S
C1165 H1217 0.929 . S
H1166 C1160 0.930 . S
H1167 C1163 0.930 . S
C1168 N1169 1.314 . S
C1168 C1170 1.353 . S
C1168 H1174 0.930 . S
N1169 Li1145 1.990 . S
N1169 C1168 1.314 . S
N1169 C1172 1.279 . S
C1170 C1168 1.353 . S
C1170 C1173 1.348 . S
C1170 H1218 0.929 . S
C1171 C1172 1.358 . S
C1171 C1173 1.356 . S
C1171 H1219 0.930 . S
C1172 N1169 1.279 . S
C1172 C1171 1.358 . S
C1172 H1175 0.930 . S
C1173 C1170 1.348 . S
C1173 C1171 1.356 . S
H1174 C1168 0.930 . S
H1175 C1172 0.930 . S
C1176 C1178 1.348 . S
C1176 C1179 1.356 . S
C1176 O1206 1.325 . S
N1177 C1180 1.314 . S
N1177 C1181 1.279 . S
C1178 C1176 1.348 . S
C1178 C1180 1.353 . S
C1178 H1220 0.929 . S
C1179 C1176 1.356 . S
C1179 C1181 1.358 . S
C1179 H1221 0.930 . S
C1180 N1177 1.314 . S
C1180 C1178 1.353 . S
C1180 H1222 0.930 . S
C1181 N1177 1.279 . S
C1181 C1179 1.358 . S
C1181 H1223 0.930 . S
C1182 C1183 1.348 . S
C1182 C1184 1.356 . S
C1182 O1207 1.325 . S
C1183 C1182 1.348 . S
C1183 C1185 1.353 . S
C1183 H1224 0.929 . S
C1184 C1182 1.356 . S
C1184 C1186 1.358 . S
C1184 H1225 0.930 . S
C1185 C1183 1.353 . S
C1185 N1187 1.314 . S
C1185 H1226 0.930 . S
C1186 C1184 1.358 . S
C1186 N1187 1.279 . S
C1186 H1227 0.930 . S
N1187 C1185 1.314 . S
N1187 C1186 1.279 . S
C1188 C1190 1.353 . S
C1188 N1191 1.314 . S
C1188 H1194 0.930 . S
C1189 N1191 1.279 . S
C1189 C1192 1.358 . S
C1189 H1195 0.930 . S
C1190 C1188 1.353 . S
C1190 C1193 1.348 . S
C1190 H1228 0.929 . S
N1191 Li1146 1.990 . S
N1191 C1188 1.314 . S
N1191 C1189 1.279 . S
C1192 C1189 1.358 . S
C1192 C1193 1.356 . S
C1192 H1229 0.930 . S
C1193 C1190 1.348 . S
C1193 C1192 1.356 . S
H1194 C1188 0.930 . S
H1195 C1189 0.930 . S
C1196 N1197 1.314 . S
C1196 C1198 1.353 . S
C1196 H1202 0.930 . S
N1197 Li1147 1.990 . S
N1197 C1196 1.314 . S
N1197 C1200 1.279 . S
C1198 C1196 1.353 . S
C1198 C1201 1.348 . S
C1198 H1230 0.929 . S
C1199 C1200 1.358 . S
C1199 C1201 1.356 . S
C1199 H1231 0.930 . S
C1200 N1197 1.279 . S
C1200 C1199 1.358 . S
C1200 H1203 0.930 . S
C1201 C1198 1.348 . S
C1201 C1199 1.356 . S
H1202 C1196 0.930 . S
H1203 C1200 0.930 . S
O1204 Li1144 1.956 . S
O1204 Li1145 1.970 . S
O1204 Li1146 1.961 . S
O1204 C1148 1.325 . S
O1205 Li1144 1.970 . S
O1205 Li1145 1.956 . S
O1205 Li1147 1.961 . S
O1205 C1154 1.325 . S
O1206 Li1144 1.961 . S
O1206 Li1146 1.956 . S
O1206 Li1147 1.970 . S
O1206 C1176 1.325 . S
O1207 Li1145 1.961 . S
O1207 Li1146 1.970 . S
O1207 Li1147 1.956 . S
O1207 C1182 1.325 . S
H1208 C1150 0.929 . S
H1209 C1151 0.930 . S
H1210 C1152 0.930 . S
H1211 C1153 0.930 . S
H1212 C1155 0.930 . S
H1213 C1157 0.929 . S
H1214 C1158 0.930 . S
H1215 C1159 0.930 . S
H1216 C1162 0.930 . S
H1217 C1165 0.929 . S
H1218 C1170 0.929 . S
H1219 C1171 0.930 . S
H1220 C1178 0.929 . S
H1221 C1179 0.930 . S
H1222 C1180 0.930 . S
H1223 C1181 0.930 . S
H1224 C1183 0.929 . S
H1225 C1184 0.930 . S
H1226 C1185 0.930 . S
H1227 C1186 0.930 . S
H1228 C1190 0.929 . S
H1229 C1192 0.930 . S
H1230 C1198 0.929 . S
H1231 C1199 0.930 . S
Li1232 N1249 1.990 . S
Li1232 O1292 1.956 . S
Li1232 O1293 1.970 . S
Li1232 O1294 1.961 . S
Li1233 N1257 1.990 . S
Li1233 O1292 1.970 . S
Li1233 O1293 1.956 . S
Li1233 O1295 1.961 . S
Li1234 N1279 1.990 . S
Li1234 O1292 1.961 . S
Li1234 O1294 1.956 . S
Li1234 O1295 1.970 . S
Li1235 N1285 1.990 . S
Li1235 O1293 1.961 . S
Li1235 O1294 1.970 . S
Li1235 O1295 1.956 . S
C1236 C1238 1.348 . S
C1236 C1239 1.356 . S
C1236 O1292 1.325 . S
N1237 C1240 1.314 . S
N1237 C1241 1.279 . S
C1238 C1236 1.348 . S
C1238 C1240 1.353 . S
C1238 H1296 0.929 . S
C1239 C1236 1.356 . S
C1239 C1241 1.358 . S
C1239 H1297 0.930 . S
C1240 N1237 1.314 . S
C1240 C1238 1.353 . S
C1240 H1298 0.930 . S
C1241 N1237 1.279 . S
C1241 C1239 1.358 . S
C1241 H1299 0.930 . S
C1242 C1245 1.348 . S
C1242 C1246 1.356 . S
C1242 O1293 1.325 . S
C1243 N1244 1.279 . S
C1243 C1246 1.358 . S
C1243 H1300 0.930 . S
N1244 C1243 1.279 . S
N1244 C1247 1.314 . S
C1245 C1242 1.348 . S
C1245 C1247 1.353 . S
C1245 H1301 0.929 . S
C1246 C1242 1.356 . S
C1246 C1243 1.358 . S
C1246 H1302 0.930 . S
C1247 N1244 1.314 . S
C1247 C1245 1.353 . S
C1247 H1303 0.930 . S
C1248 N1249 1.314 . S
C1248 C1253 1.353 . S
C1248 H1254 0.930 . S
N1249 Li1232 1.990 . S
N1249 C1248 1.314 . S
N1249 C1251 1.279 . S
C1250 C1251 1.358 . S
C1250 C1252 1.356 . S
C1250 H1304 0.930 . S
C1251 N1249 1.279 . S
C1251 C1250 1.358 . S
C1251 H1255 0.930 . S
C1252 C1250 1.356 . S
C1252 C1253 1.348 . S
C1253 C1248 1.353 . S
C1253 C1252 1.348 . S
C1253 H1305 0.929 . S
H1254 C1248 0.930 . S
H1255 C1251 0.930 . S
C1256 N1257 1.314 . S
C1256 C1258 1.353 . S
C1256 H1262 0.930 . S
N1257 Li1233 1.990 . S
N1257 C1256 1.314 . S
N1257 C1260 1.279 . S
C1258 C1256 1.353 . S
C1258 C1261 1.348 . S
C1258 H1306 0.929 . S
C1259 C1260 1.358 . S
C1259 C1261 1.356 . S
C1259 H1307 0.930 . S
C1260 N1257 1.279 . S
C1260 C1259 1.358 . S
C1260 H1263 0.930 . S
C1261 C1258 1.348 . S
C1261 C1259 1.356 . S
H1262 C1256 0.930 . S
H1263 C1260 0.930 . S
C1264 C1266 1.348 . S
C1264 C1267 1.356 . S
C1264 O1294 1.325 . S
N1265 C1268 1.314 . S
N1265 C1269 1.279 . S
C1266 C1264 1.348 . S
C1266 C1268 1.353 . S
C1266 H1308 0.929 . S
C1267 C1264 1.356 . S
C1267 C1269 1.358 . S
C1267 H1309 0.930 . S
C1268 N1265 1.314 . S
C1268 C1266 1.353 . S
C1268 H1310 0.930 . S
C1269 N1265 1.279 . S
C1269 C1267 1.358 . S
C1269 H1311 0.930 . S
C1270 C1271 1.348 1_655 S
C1270 C1272 1.356 . S
C1270 O1295 1.325 . S
C1271 C1270 1.348 1_455 S
C1271 C1273 1.353 . S
C1271 H1312 0.936 . S
C1272 C1270 1.356 . S
C1272 C1274 1.358 1_655 S
C1272 H1313 0.930 . S
C1273 C1271 1.353 . S
C1273 N1275 1.314 . S
C1273 H1314 0.930 . S
C1274 C1272 1.358 1_455 S
C1274 N1275 1.279 . S
C1274 H1315 0.930 . S
N1275 C1273 1.314 . S
N1275 C1274 1.279 . S
C1276 C1278 1.353 . S
C1276 N1279 1.314 . S
C1276 H1282 0.930 . S
C1277 N1279 1.279 . S
C1277 C1280 1.358 . S
C1277 H1283 0.930 . S
C1278 C1276 1.353 . S
C1278 C1281 1.348 . S
C1278 H1316 0.929 . S
N1279 Li1234 1.990 . S
N1279 C1276 1.314 . S
N1279 C1277 1.279 . S
C1280 C1277 1.358 . S
C1280 C1281 1.356 . S
C1280 H1317 0.930 . S
C1281 C1278 1.348 . S
C1281 C1280 1.356 . S
H1282 C1276 0.930 . S
H1283 C1277 0.930 . S
C1284 N1285 1.314 . S
C1284 C1286 1.353 . S
C1284 H1290 0.930 . S
N1285 Li1235 1.990 . S
N1285 C1284 1.314 . S
N1285 C1288 1.279 . S
C1286 C1284 1.353 . S
C1286 C1289 1.348 . S
C1286 H1318 0.929 . S
C1287 C1288 1.358 . S
C1287 C1289 1.356 . S
C1287 H1319 0.894 1_655 S
C1288 N1285 1.279 . S
C1288 C1287 1.358 . S
C1288 H1291 0.930 . S
C1289 C1286 1.348 . S
C1289 C1287 1.356 . S
H1290 C1284 0.930 . S
H1291 C1288 0.930 . S
O1292 Li1232 1.956 . S
O1292 Li1233 1.970 . S
O1292 Li1234 1.961 . S
O1292 C1236 1.325 . S
O1293 Li1232 1.970 . S
O1293 Li1233 1.956 . S
O1293 Li1235 1.961 . S
O1293 C1242 1.325 . S
O1294 Li1232 1.961 . S
O1294 Li1234 1.956 . S
O1294 Li1235 1.970 . S
O1294 C1264 1.325 . S
O1295 Li1233 1.961 . S
O1295 Li1234 1.970 . S
O1295 Li1235 1.956 . S
O1295 C1270 1.325 . S
H1296 C1238 0.929 . S
H1297 C1239 0.930 . S
H1298 C1240 0.930 . S
H1299 C1241 0.930 . S
H1300 C1243 0.930 . S
H1301 C1245 0.929 . S
H1302 C1246 0.930 . S
H1303 C1247 0.930 . S
H1304 C1250 0.930 . S
H1305 C1253 0.929 . S
H1306 C1258 0.929 . S
H1307 C1259 0.930 . S
H1308 C1266 0.929 . S
H1309 C1267 0.930 . S
H1310 C1268 0.930 . S
H1311 C1269 0.930 . S
H1312 C1271 0.936 . S
H1313 C1272 0.930 . S
H1314 C1273 0.930 . S
H1315 C1274 0.930 . S
H1316 C1278 0.929 . S
H1317 C1280 0.930 . S
H1318 C1286 0.929 . S
H1319 C1287 0.894 1_455 S
Li1320 N1337 1.990 . S
Li1320 O1380 1.956 . S
Li1320 O1381 1.970 . S
Li1320 O1382 1.961 . S
Li1321 N1345 1.990 . S
Li1321 O1380 1.970 . S
Li1321 O1381 1.956 . S
Li1321 O1383 1.961 . S
Li1322 N1367 1.990 . S
Li1322 O1380 1.961 . S
Li1322 O1382 1.956 . S
Li1322 O1383 1.970 . S
Li1323 N1373 1.990 . S
Li1323 O1381 1.961 . S
Li1323 O1382 1.970 . S
Li1323 O1383 1.956 . S
C1324 C1326 1.348 . S
C1324 C1327 1.356 . S
C1324 O1380 1.325 . S
N1325 C1328 1.314 . S
N1325 C1329 1.279 . S
C1326 C1324 1.348 . S
C1326 C1328 1.353 . S
C1326 H1384 0.929 . S
C1327 C1324 1.356 . S
C1327 C1329 1.358 . S
C1327 H1385 0.930 . S
C1328 N1325 1.314 . S
C1328 C1326 1.353 . S
C1328 H1386 0.930 . S
C1329 N1325 1.279 . S
C1329 C1327 1.358 . S
C1329 H1387 0.930 . S
C1330 C1333 1.348 . S
C1330 C1334 1.356 . S
C1330 O1381 1.325 . S
C1331 N1332 1.279 . S
C1331 C1334 1.358 . S
C1331 H1388 0.930 . S
N1332 C1331 1.279 . S
N1332 C1335 1.314 . S
C1333 C1330 1.348 . S
C1333 C1335 1.353 . S
C1333 H1389 0.929 . S
C1334 C1330 1.356 . S
C1334 C1331 1.358 . S
C1334 H1390 0.930 . S
C1335 N1332 1.314 . S
C1335 C1333 1.353 . S
C1335 H1391 0.930 . S
C1336 N1337 1.314 . S
C1336 C1341 1.353 . S
C1336 H1342 0.930 . S
N1337 Li1320 1.990 . S
N1337 C1336 1.314 . S
N1337 C1339 1.279 . S
C1338 C1339 1.358 . S
C1338 C1340 1.356 . S
C1338 H1392 0.930 . S
C1339 N1337 1.279 . S
C1339 C1338 1.358 . S
C1339 H1343 0.930 . S
C1340 C1338 1.356 . S
C1340 C1341 1.348 . S
C1341 C1336 1.353 . S
C1341 C1340 1.348 . S
C1341 H1393 0.929 . S
H1342 C1336 0.930 . S
H1343 C1339 0.930 . S
C1344 N1345 1.314 . S
C1344 C1346 1.353 . S
C1344 H1350 0.930 . S
N1345 Li1321 1.990 . S
N1345 C1344 1.314 . S
N1345 C1348 1.279 . S
C1346 C1344 1.353 . S
C1346 C1349 1.348 . S
C1346 H1394 0.929 . S
C1347 C1348 1.358 . S
C1347 C1349 1.356 . S
C1347 H1395 0.930 . S
C1348 N1345 1.279 . S
C1348 C1347 1.358 . S
C1348 H1351 0.930 . S
C1349 C1346 1.348 . S
C1349 C1347 1.356 . S
H1350 C1344 0.930 . S
H1351 C1348 0.930 . S
C1352 C1354 1.348 . S
C1352 C1355 1.356 . S
C1352 O1382 1.325 . S
N1353 C1356 1.314 . S
N1353 C1357 1.279 . S
C1354 C1352 1.348 . S
C1354 C1356 1.353 . S
C1354 H1396 0.929 . S
C1355 C1352 1.356 . S
C1355 C1357 1.358 . S
C1355 H1397 0.930 . S
C1356 N1353 1.314 . S
C1356 C1354 1.353 . S
C1356 H1398 0.930 . S
C1357 N1353 1.279 . S
C1357 C1355 1.358 . S
C1357 H1399 0.930 . S
C1358 C1359 1.348 . S
C1358 C1360 1.356 . S
C1358 O1383 1.325 . S
C1359 C1358 1.348 . S
C1359 C1361 1.353 . S
C1359 H1400 0.929 . S
C1360 C1358 1.356 . S
C1360 C1362 1.358 . S
C1360 H1401 0.930 . S
C1361 C1359 1.353 . S
C1361 N1363 1.314 . S
C1361 H1402 0.930 . S
C1362 C1360 1.358 . S
C1362 N1363 1.279 . S
C1362 H1403 0.930 . S
N1363 C1361 1.314 . S
N1363 C1362 1.279 . S
C1364 C1366 1.353 . S
C1364 N1367 1.314 . S
C1364 H1370 0.930 . S
C1365 N1367 1.279 . S
C1365 C1368 1.358 . S
C1365 H1371 0.930 . S
C1366 C1364 1.353 . S
C1366 C1369 1.348 . S
C1366 H1404 0.929 . S
N1367 Li1322 1.990 . S
N1367 C1364 1.314 . S
N1367 C1365 1.279 . S
C1368 C1365 1.358 . S
C1368 C1369 1.356 . S
C1368 H1405 0.930 . S
C1369 C1366 1.348 . S
C1369 C1368 1.356 . S
H1370 C1364 0.930 . S
H1371 C1365 0.930 . S
C1372 N1373 1.314 . S
C1372 C1374 1.353 . S
C1372 H1378 0.930 . S
N1373 Li1323 1.990 . S
N1373 C1372 1.314 . S
N1373 C1376 1.279 . S
C1374 C1372 1.353 . S
C1374 C1377 1.348 . S
C1374 H1406 0.929 . S
C1375 C1376 1.358 . S
C1375 C1377 1.356 . S
C1375 H1407 0.930 . S
C1376 N1373 1.279 . S
C1376 C1375 1.358 . S
C1376 H1379 0.930 . S
C1377 C1374 1.348 . S
C1377 C1375 1.356 . S
H1378 C1372 0.930 . S
H1379 C1376 0.930 . S
O1380 Li1320 1.956 . S
O1380 Li1321 1.970 . S
O1380 Li1322 1.961 . S
O1380 C1324 1.325 . S
O1381 Li1320 1.970 . S
O1381 Li1321 1.956 . S
O1381 Li1323 1.961 . S
O1381 C1330 1.325 . S
O1382 Li1320 1.961 . S
O1382 Li1322 1.956 . S
O1382 Li1323 1.970 . S
O1382 C1352 1.325 . S
O1383 Li1321 1.961 . S
O1383 Li1322 1.970 . S
O1383 Li1323 1.956 . S
O1383 C1358 1.325 . S
H1384 C1326 0.929 . S
H1385 C1327 0.930 . S
H1386 C1328 0.930 . S
H1387 C1329 0.930 . S
H1388 C1331 0.930 . S
H1389 C1333 0.929 . S
H1390 C1334 0.930 . S
H1391 C1335 0.930 . S
H1392 C1338 0.930 . S
H1393 C1341 0.929 . S
H1394 C1346 0.929 . S
H1395 C1347 0.930 . S
H1396 C1354 0.929 . S
H1397 C1355 0.930 . S
H1398 C1356 0.930 . S
H1399 C1357 0.930 . S
H1400 C1359 0.929 . S
H1401 C1360 0.930 . S
H1402 C1361 0.930 . S
H1403 C1362 0.930 . S
H1404 C1366 0.929 . S
H1405 C1368 0.930 . S
H1406 C1374 0.929 . S
H1407 C1375 0.930 . S
Li1408 N1425 1.990 . S
Li1408 O1468 1.956 . S
Li1408 O1469 1.970 . S
Li1408 O1470 1.961 . S
Li1409 N1433 1.990 . S
Li1409 O1468 1.970 . S
Li1409 O1469 1.956 . S
Li1409 O1471 1.961 . S
Li1410 N1455 1.990 . S
Li1410 O1468 1.961 . S
Li1410 O1470 1.956 . S
Li1410 O1471 1.970 . S
Li1411 N1461 1.990 . S
Li1411 O1469 1.961 . S
Li1411 O1470 1.970 . S
Li1411 O1471 1.956 . S
C1412 C1414 1.348 . S
C1412 C1415 1.356 . S
C1412 O1468 1.325 . S
N1413 C1416 1.314 . S
N1413 C1417 1.279 . S
C1414 C1412 1.348 . S
C1414 C1416 1.353 . S
C1414 H1472 0.929 . S
C1415 C1412 1.356 . S
C1415 C1417 1.358 . S
C1415 H1473 0.930 . S
C1416 N1413 1.314 . S
C1416 C1414 1.353 . S
C1416 H1474 0.930 . S
C1417 N1413 1.279 . S
C1417 C1415 1.358 . S
C1417 H1475 0.930 . S
C1418 C1421 1.348 . S
C1418 C1422 1.356 . S
C1418 O1469 1.325 . S
C1419 N1420 1.279 . S
C1419 C1422 1.358 . S
C1419 H1476 0.930 . S
N1420 C1419 1.279 . S
N1420 C1423 1.314 . S
C1421 C1418 1.348 . S
C1421 C1423 1.353 . S
C1421 H1477 0.929 . S
C1422 C1418 1.356 . S
C1422 C1419 1.358 . S
C1422 H1478 0.930 . S
C1423 N1420 1.314 . S
C1423 C1421 1.353 . S
C1423 H1479 0.930 . S
C1424 N1425 1.314 . S
C1424 C1429 1.353 . S
C1424 H1430 0.930 . S
N1425 Li1408 1.990 . S
N1425 C1424 1.314 . S
N1425 C1427 1.279 . S
C1426 C1427 1.358 . S
C1426 C1428 1.356 . S
C1426 H1480 0.930 . S
C1427 N1425 1.279 . S
C1427 C1426 1.358 . S
C1427 H1431 0.930 . S
C1428 C1426 1.356 . S
C1428 C1429 1.348 . S
C1429 C1424 1.353 . S
C1429 C1428 1.348 . S
C1429 H1481 0.929 . S
H1430 C1424 0.930 . S
H1431 C1427 0.930 . S
C1432 N1433 1.314 . S
C1432 C1434 1.353 . S
C1432 H1438 0.930 . S
N1433 Li1409 1.990 . S
N1433 C1432 1.314 . S
N1433 C1436 1.279 . S
C1434 C1432 1.353 . S
C1434 C1437 1.348 . S
C1434 H1482 0.929 . S
C1435 C1436 1.358 . S
C1435 C1437 1.356 . S
C1435 H1483 0.930 . S
C1436 N1433 1.279 . S
C1436 C1435 1.358 . S
C1436 H1439 0.930 . S
C1437 C1434 1.348 . S
C1437 C1435 1.356 . S
H1438 C1432 0.930 . S
H1439 C1436 0.930 . S
C1440 C1442 1.348 . S
C1440 C1443 1.356 . S
C1440 O1470 1.325 . S
N1441 C1444 1.314 . S
N1441 C1445 1.279 1_565 S
C1442 C1440 1.348 . S
C1442 C1444 1.353 1_545 S
C1442 H1484 0.929 . S
C1443 C1440 1.356 . S
C1443 C1445 1.358 . S
C1443 H1485 0.930 . S
C1444 N1441 1.314 . S
C1444 C1442 1.353 1_565 S
C1444 H1486 0.930 . S
C1445 N1441 1.279 1_545 S
C1445 C1443 1.358 . S
C1445 H1487 0.930 . S
C1446 C1447 1.348 . S
C1446 C1448 1.356 . S
C1446 O1471 1.325 . S
C1447 C1446 1.348 . S
C1447 C1449 1.353 . S
C1447 H1488 0.929 . S
C1448 C1446 1.356 . S
C1448 C1450 1.358 . S
C1448 H1489 0.930 . S
C1449 C1447 1.353 . S
C1449 N1451 1.314 . S
C1449 H1490 0.930 . S
C1450 C1448 1.358 . S
C1450 N1451 1.279 . S
C1450 H1491 0.930 . S
N1451 C1449 1.314 . S
N1451 C1450 1.279 . S
C1452 C1454 1.353 . S
C1452 N1455 1.314 . S
C1452 H1458 0.930 . S
C1453 N1455 1.279 . S
C1453 C1456 1.358 . S
C1453 H1459 0.930 . S
C1454 C1452 1.353 . S
C1454 C1457 1.348 . S
C1454 H1492 0.929 . S
N1455 Li1410 1.990 . S
N1455 C1452 1.314 . S
N1455 C1453 1.279 . S
C1456 C1453 1.358 . S
C1456 C1457 1.356 . S
C1456 H1493 0.930 . S
C1457 C1454 1.348 . S
C1457 C1456 1.356 . S
H1458 C1452 0.930 . S
H1459 C1453 0.930 . S
C1460 N1461 1.314 . S
C1460 C1462 1.353 1_545 S
C1460 H1466 0.930 . S
N1461 Li1411 1.990 . S
N1461 C1460 1.314 . S
N1461 C1464 1.279 . S
C1462 C1460 1.353 1_565 S
C1462 C1465 1.348 . S
C1462 H1494 0.929 . S
C1463 C1464 1.358 1_565 S
C1463 C1465 1.356 . S
C1463 H1495 0.930 . S
C1464 N1461 1.279 . S
C1464 C1463 1.358 1_545 S
C1464 H1467 0.930 . S
C1465 C1462 1.348 . S
C1465 C1463 1.356 . S
H1466 C1460 0.930 . S
H1467 C1464 0.930 . S
O1468 Li1408 1.956 . S
O1468 Li1409 1.970 . S
O1468 Li1410 1.961 . S
O1468 C1412 1.325 . S
O1469 Li1408 1.970 . S
O1469 Li1409 1.956 . S
O1469 Li1411 1.961 . S
O1469 C1418 1.325 . S
O1470 Li1408 1.961 . S
O1470 Li1410 1.956 . S
O1470 Li1411 1.970 . S
O1470 C1440 1.325 . S
O1471 Li1409 1.961 . S
O1471 Li1410 1.970 . S
O1471 Li1411 1.956 . S
O1471 C1446 1.325 . S
H1472 C1414 0.929 . S
H1473 C1415 0.930 . S
H1474 C1416 0.930 . S
H1475 C1417 0.930 . S
H1476 C1419 0.930 . S
H1477 C1421 0.929 . S
H1478 C1422 0.930 . S
H1479 C1423 0.930 . S
H1480 C1426 0.930 . S
H1481 C1429 0.929 . S
H1482 C1434 0.929 . S
H1483 C1435 0.930 . S
H1484 C1442 0.929 . S
H1485 C1443 0.930 . S
H1486 C1444 0.930 . S
H1487 C1445 0.930 . S
H1488 C1447 0.929 . S
H1489 C1448 0.930 . S
H1490 C1449 0.930 . S
H1491 C1450 0.930 . S
H1492 C1454 0.929 . S
H1493 C1456 0.930 . S
H1494 C1462 0.929 . S
H1495 C1463 0.930 . S
Li1496 N1513 1.990 . S
Li1496 O1556 1.956 . S
Li1496 O1557 1.970 . S
Li1496 O1558 1.961 . S
Li1497 N1521 1.990 . S
Li1497 O1556 1.970 . S
Li1497 O1557 1.956 . S
Li1497 O1559 1.961 . S
Li1498 N1543 1.990 . S
Li1498 O1556 1.961 . S
Li1498 O1558 1.956 . S
Li1498 O1559 1.970 . S
Li1499 N1549 1.990 . S
Li1499 O1557 1.961 . S
Li1499 O1558 1.970 . S
Li1499 O1559 1.956 . S
C1500 C1502 1.348 . S
C1500 C1503 1.356 . S
C1500 O1556 1.325 . S
N1501 C1504 1.314 . S
N1501 C1505 1.279 . S
C1502 C1500 1.348 . S
C1502 C1504 1.353 . S
C1502 H1560 0.929 . S
C1503 C1500 1.356 . S
C1503 C1505 1.358 . S
C1503 H1561 0.930 . S
C1504 N1501 1.314 . S
C1504 C1502 1.353 . S
C1504 H1562 0.930 . S
C1505 N1501 1.279 . S
C1505 C1503 1.358 . S
C1505 H1563 0.930 . S
C1506 C1509 1.348 . S
C1506 C1510 1.356 . S
C1506 O1557 1.325 . S
C1507 N1508 1.279 . S
C1507 C1510 1.358 . S
C1507 H1564 0.930 . S
N1508 C1507 1.279 . S
N1508 C1511 1.314 . S
C1509 C1506 1.348 . S
C1509 C1511 1.353 . S
C1509 H1565 0.929 . S
C1510 C1506 1.356 . S
C1510 C1507 1.358 . S
C1510 H1566 0.930 . S
C1511 N1508 1.314 . S
C1511 C1509 1.353 . S
C1511 H1567 0.930 . S
C1512 N1513 1.314 . S
C1512 C1517 1.353 . S
C1512 H1518 0.930 . S
N1513 Li1496 1.990 . S
N1513 C1512 1.314 . S
N1513 C1515 1.279 . S
C1514 C1515 1.358 . S
C1514 C1516 1.356 . S
C1514 H1568 0.930 . S
C1515 N1513 1.279 . S
C1515 C1514 1.358 . S
C1515 H1519 0.930 . S
C1516 C1514 1.356 . S
C1516 C1517 1.348 . S
C1517 C1512 1.353 . S
C1517 C1516 1.348 . S
C1517 H1569 0.929 . S
H1518 C1512 0.930 . S
H1519 C1515 0.930 . S
C1520 N1521 1.314 . S
C1520 C1522 1.353 . S
C1520 H1526 0.930 . S
N1521 Li1497 1.990 . S
N1521 C1520 1.314 . S
N1521 C1524 1.279 . S
C1522 C1520 1.353 . S
C1522 C1525 1.348 . S
C1522 H1570 0.929 . S
C1523 C1524 1.358 . S
C1523 C1525 1.356 . S
C1523 H1571 0.930 . S
C1524 N1521 1.279 . S
C1524 C1523 1.358 . S
C1524 H1527 0.930 . S
C1525 C1522 1.348 . S
C1525 C1523 1.356 . S
H1526 C1520 0.930 . S
H1527 C1524 0.930 . S
C1528 C1530 1.348 1_545 S
C1528 C1531 1.356 . S
C1528 O1558 1.325 . S
N1529 C1532 1.314 . S
N1529 C1533 1.279 . S
C1530 C1528 1.348 1_565 S
C1530 C1532 1.353 . S
C1530 H1572 0.929 . S
C1531 C1528 1.356 . S
C1531 C1533 1.358 1_545 S
C1531 H1573 0.930 . S
C1532 N1529 1.314 . S
C1532 C1530 1.353 . S
C1532 H1574 0.930 . S
C1533 N1529 1.279 . S
C1533 C1531 1.358 1_565 S
C1533 H1575 0.930 . S
C1534 C1535 1.348 . S
C1534 C1536 1.356 . S
C1534 O1559 1.325 . S
C1535 C1534 1.348 . S
C1535 C1537 1.353 . S
C1535 H1576 0.929 . S
C1536 C1534 1.356 . S
C1536 C1538 1.358 . S
C1536 H1577 0.930 . S
C1537 C1535 1.353 . S
C1537 N1539 1.314 . S
C1537 H1578 0.930 . S
C1538 C1536 1.358 . S
C1538 N1539 1.279 . S
C1538 H1579 0.930 . S
N1539 C1537 1.314 . S
N1539 C1538 1.279 . S
C1540 C1542 1.353 . S
C1540 N1543 1.314 . S
C1540 H1546 0.930 . S
C1541 N1543 1.279 . S
C1541 C1544 1.358 . S
C1541 H1547 0.930 . S
C1542 C1540 1.353 . S
C1542 C1545 1.348 . S
C1542 H1580 0.929 . S
N1543 Li1498 1.990 . S
N1543 C1540 1.314 . S
N1543 C1541 1.279 . S
C1544 C1541 1.358 . S
C1544 C1545 1.356 . S
C1544 H1581 0.930 . S
C1545 C1542 1.348 . S
C1545 C1544 1.356 . S
H1546 C1540 0.930 . S
H1547 C1541 0.930 . S
C1548 N1549 1.311 1_565 S
C1548 C1550 1.359 . S
C1548 H1554 0.927 1_565 S
N1549 Li1499 1.990 . S
N1549 C1548 1.311 1_545 S
N1549 C1552 1.279 . S
C1550 C1548 1.359 . S
C1550 C1553 1.348 . S
C1550 H1582 0.929 . S
C1551 C1552 1.358 1_565 S
C1551 C1553 1.356 . S
C1551 H1583 0.930 . S
C1552 N1549 1.279 . S
C1552 C1551 1.358 1_545 S
C1552 H1555 0.930 . S
C1553 C1550 1.348 . S
C1553 C1551 1.356 . S
H1554 C1548 0.927 1_545 S
H1555 C1552 0.930 . S
O1556 Li1496 1.956 . S
O1556 Li1497 1.970 . S
O1556 Li1498 1.961 . S
O1556 C1500 1.325 . S
O1557 Li1496 1.970 . S
O1557 Li1497 1.956 . S
O1557 Li1499 1.961 . S
O1557 C1506 1.325 . S
O1558 Li1496 1.961 . S
O1558 Li1498 1.956 . S
O1558 Li1499 1.970 . S
O1558 C1528 1.325 . S
O1559 Li1497 1.961 . S
O1559 Li1498 1.970 . S
O1559 Li1499 1.956 . S
O1559 C1534 1.325 . S
H1560 C1502 0.929 . S
H1561 C1503 0.930 . S
H1562 C1504 0.930 . S
H1563 C1505 0.930 . S
H1564 C1507 0.930 . S
H1565 C1509 0.929 . S
H1566 C1510 0.930 . S
H1567 C1511 0.930 . S
H1568 C1514 0.930 . S
H1569 C1517 0.929 . S
H1570 C1522 0.929 . S
H1571 C1523 0.930 . S
H1572 C1530 0.929 . S
H1573 C1531 0.930 . S
H1574 C1532 0.930 . S
H1575 C1533 0.930 . S
H1576 C1535 0.929 . S
H1577 C1536 0.930 . S
H1578 C1537 0.930 . S
H1579 C1538 0.930 . S
H1580 C1542 0.929 . S
H1581 C1544 0.930 . S
H1582 C1550 0.929 . S
H1583 C1551 0.930 . S
Li1584 N1601 1.990 . S
Li1584 O1644 1.956 . S
Li1584 O1645 1.970 . S
Li1584 O1646 1.961 . S
Li1585 N1609 1.990 . S
Li1585 O1644 1.970 . S
Li1585 O1645 1.956 . S
Li1585 O1647 1.961 . S
Li1586 N1631 1.990 . S
Li1586 O1644 1.961 . S
Li1586 O1646 1.956 . S
Li1586 O1647 1.970 . S
Li1587 N1637 1.990 . S
Li1587 O1645 1.961 . S
Li1587 O1646 1.970 . S
Li1587 O1647 1.956 . S
C1588 C1590 1.348 . S
C1588 C1591 1.356 . S
C1588 O1644 1.325 . S
N1589 C1592 1.314 . S
N1589 C1593 1.279 . S
C1590 C1588 1.348 . S
C1590 C1592 1.353 . S
C1590 H1648 0.929 . S
C1591 C1588 1.356 . S
C1591 C1593 1.358 . S
C1591 H1649 0.930 . S
C1592 N1589 1.314 . S
C1592 C1590 1.353 . S
C1592 H1650 0.930 . S
C1593 N1589 1.279 . S
C1593 C1591 1.358 . S
C1593 H1651 0.930 . S
C1594 C1597 1.348 . S
C1594 C1598 1.356 . S
C1594 O1645 1.325 . S
C1595 N1596 1.279 . S
C1595 C1598 1.358 . S
C1595 H1652 0.930 . S
N1596 C1595 1.279 . S
N1596 C1599 1.314 . S
C1597 C1594 1.348 . S
C1597 C1599 1.353 . S
C1597 H1653 0.929 . S
C1598 C1594 1.356 . S
C1598 C1595 1.358 . S
C1598 H1654 0.930 . S
C1599 N1596 1.314 . S
C1599 C1597 1.353 . S
C1599 H1655 0.930 . S
C1600 N1601 1.314 . S
C1600 C1605 1.353 . S
C1600 H1606 0.930 . S
N1601 Li1584 1.990 . S
N1601 C1600 1.314 . S
N1601 C1603 1.279 . S
C1602 C1603 1.358 . S
C1602 C1604 1.356 . S
C1602 H1656 0.930 . S
C1603 N1601 1.279 . S
C1603 C1602 1.358 . S
C1603 H1607 0.930 . S
C1604 C1602 1.356 . S
C1604 C1605 1.348 . S
C1605 C1600 1.353 . S
C1605 C1604 1.348 . S
C1605 H1657 0.929 . S
H1606 C1600 0.930 . S
H1607 C1603 0.930 . S
C1608 N1609 1.314 . S
C1608 C1610 1.353 . S
C1608 H1614 0.930 . S
N1609 Li1585 1.990 . S
N1609 C1608 1.314 . S
N1609 C1612 1.279 . S
C1610 C1608 1.353 . S
C1610 C1613 1.348 . S
C1610 H1658 0.929 . S
C1611 C1612 1.358 . S
C1611 C1613 1.356 . S
C1611 H1659 0.930 . S
C1612 N1609 1.279 . S
C1612 C1611 1.358 . S
C1612 H1615 0.930 . S
C1613 C1610 1.348 . S
C1613 C1611 1.356 . S
H1614 C1608 0.930 . S
H1615 C1612 0.930 . S
C1616 C1618 1.348 . S
C1616 C1619 1.356 . S
C1616 O1646 1.325 . S
N1617 C1620 1.314 . S
N1617 C1621 1.279 . S
C1618 C1616 1.348 . S
C1618 C1620 1.353 . S
C1618 H1660 0.929 . S
C1619 C1616 1.356 . S
C1619 C1621 1.358 . S
C1619 H1661 0.930 . S
C1620 N1617 1.314 . S
C1620 C1618 1.353 . S
C1620 H1662 0.930 . S
C1621 N1617 1.279 . S
C1621 C1619 1.358 . S
C1621 H1663 0.930 . S
C1622 C1623 1.348 1_545 S
C1622 C1624 1.356 . S
C1622 O1647 1.325 . S
C1623 C1622 1.348 1_565 S
C1623 C1625 1.353 . S
C1623 H1664 0.929 . S
C1624 C1622 1.356 . S
C1624 C1626 1.358 1_545 S
C1624 H1665 0.930 . S
C1625 C1623 1.353 . S
C1625 N1627 1.314 . S
C1625 H1666 0.930 . S
C1626 C1624 1.358 1_565 S
C1626 N1627 1.279 . S
C1626 H1667 0.930 . S
N1627 C1625 1.314 . S
N1627 C1626 1.279 . S
C1628 C1630 1.359 . S
C1628 N1631 1.311 1_565 S
C1628 H1634 0.927 1_565 S
C1629 N1631 1.279 . S
C1629 C1632 1.358 1_545 S
C1629 H1635 0.930 . S
C1630 C1628 1.359 . S
C1630 C1633 1.348 . S
C1630 H1668 0.929 . S
N1631 Li1586 1.990 . S
N1631 C1628 1.311 1_545 S
N1631 C1629 1.279 . S
C1632 C1629 1.358 1_565 S
C1632 C1633 1.356 . S
C1632 H1669 0.930 . S
C1633 C1630 1.348 . S
C1633 C1632 1.356 . S
H1634 C1628 0.927 1_545 S
H1635 C1629 0.930 . S
C1636 N1637 1.314 . S
C1636 C1638 1.353 . S
C1636 H1642 0.930 . S
N1637 Li1587 1.990 . S
N1637 C1636 1.314 . S
N1637 C1640 1.279 . S
C1638 C1636 1.353 . S
C1638 C1641 1.348 . S
C1638 H1670 0.929 . S
C1639 C1640 1.358 . S
C1639 C1641 1.356 . S
C1639 H1671 0.930 . S
C1640 N1637 1.279 . S
C1640 C1639 1.358 . S
C1640 H1643 0.930 . S
C1641 C1638 1.348 . S
C1641 C1639 1.356 . S
H1642 C1636 0.930 . S
H1643 C1640 0.930 . S
O1644 Li1584 1.956 . S
O1644 Li1585 1.970 . S
O1644 Li1586 1.961 . S
O1644 C1588 1.325 . S
O1645 Li1584 1.970 . S
O1645 Li1585 1.956 . S
O1645 Li1587 1.961 . S
O1645 C1594 1.325 . S
O1646 Li1584 1.961 . S
O1646 Li1586 1.956 . S
O1646 Li1587 1.970 . S
O1646 C1616 1.325 . S
O1647 Li1585 1.961 . S
O1647 Li1586 1.970 . S
O1647 Li1587 1.956 . S
O1647 C1622 1.325 . S
H1648 C1590 0.929 . S
H1649 C1591 0.930 . S
H1650 C1592 0.930 . S
H1651 C1593 0.930 . S
H1652 C1595 0.930 . S
H1653 C1597 0.929 . S
H1654 C1598 0.930 . S
H1655 C1599 0.930 . S
H1656 C1602 0.930 . S
H1657 C1605 0.929 . S
H1658 C1610 0.929 . S
H1659 C1611 0.930 . S
H1660 C1618 0.929 . S
H1661 C1619 0.930 . S
H1662 C1620 0.930 . S
H1663 C1621 0.930 . S
H1664 C1623 0.929 . S
H1665 C1624 0.930 . S
H1666 C1625 0.930 . S
H1667 C1626 0.930 . S
H1668 C1630 0.929 . S
H1669 C1632 0.930 . S
H1670 C1638 0.929 . S
H1671 C1639 0.930 . S
Li1672 N1689 1.990 . S
Li1672 O1732 1.956 . S
Li1672 O1733 1.970 . S
Li1672 O1734 1.961 . S
Li1673 N1697 1.990 . S
Li1673 O1732 1.970 . S
Li1673 O1733 1.956 . S
Li1673 O1735 1.961 . S
Li1674 N1719 1.990 . S
Li1674 O1732 1.961 . S
Li1674 O1734 1.956 . S
Li1674 O1735 1.970 . S
Li1675 N1725 1.990 . S
Li1675 O1733 1.961 . S
Li1675 O1734 1.970 . S
Li1675 O1735 1.956 . S
C1676 C1678 1.348 . S
C1676 C1679 1.356 . S
C1676 O1732 1.325 . S
N1677 C1680 1.314 . S
N1677 C1681 1.279 . S
C1678 C1676 1.348 . S
C1678 C1680 1.353 . S
C1678 H1736 0.929 . S
C1679 C1676 1.356 . S
C1679 C1681 1.358 . S
C1679 H1737 0.930 . S
C1680 N1677 1.314 . S
C1680 C1678 1.353 . S
C1680 H1738 0.930 . S
C1681 N1677 1.279 . S
C1681 C1679 1.358 . S
C1681 H1739 0.930 . S
C1682 C1685 1.348 . S
C1682 C1686 1.356 . S
C1682 O1733 1.325 . S
C1683 N1684 1.279 . S
C1683 C1686 1.358 . S
C1683 H1740 0.930 . S
N1684 C1683 1.279 . S
N1684 C1687 1.314 . S
C1685 C1682 1.348 . S
C1685 C1687 1.353 . S
C1685 H1741 0.929 . S
C1686 C1682 1.356 . S
C1686 C1683 1.358 . S
C1686 H1742 0.930 . S
C1687 N1684 1.314 . S
C1687 C1685 1.353 . S
C1687 H1743 0.930 . S
C1688 N1689 1.314 . S
C1688 C1693 1.353 . S
C1688 H1694 0.930 . S
N1689 Li1672 1.990 . S
N1689 C1688 1.314 . S
N1689 C1691 1.279 . S
C1690 C1691 1.358 . S
C1690 C1692 1.356 . S
C1690 H1744 0.930 . S
C1691 N1689 1.279 . S
C1691 C1690 1.358 . S
C1691 H1695 0.930 . S
C1692 C1690 1.356 . S
C1692 C1693 1.348 . S
C1693 C1688 1.353 . S
C1693 C1692 1.348 . S
C1693 H1745 0.929 . S
H1694 C1688 0.930 . S
H1695 C1691 0.930 . S
C1696 N1697 1.314 . S
C1696 C1698 1.353 . S
C1696 H1702 0.930 . S
N1697 Li1673 1.990 . S
N1697 C1696 1.314 . S
N1697 C1700 1.279 . S
C1698 C1696 1.353 . S
C1698 C1701 1.348 . S
C1698 H1746 0.929 . S
C1699 C1700 1.358 . S
C1699 C1701 1.356 . S
C1699 H1747 0.930 . S
C1700 N1697 1.279 . S
C1700 C1699 1.358 . S
C1700 H1703 0.930 . S
C1701 C1698 1.348 . S
C1701 C1699 1.356 . S
H1702 C1696 0.930 . S
H1703 C1700 0.930 . S
C1704 C1706 1.348 . S
C1704 C1707 1.356 . S
C1704 O1734 1.325 . S
N1705 C1708 1.314 . S
N1705 C1709 1.279 1_565 S
C1706 C1704 1.348 . S
C1706 C1708 1.353 1_545 S
C1706 H1748 0.929 . S
C1707 C1704 1.356 . S
C1707 C1709 1.358 . S
C1707 H1749 0.930 . S
C1708 N1705 1.314 . S
C1708 C1706 1.353 1_565 S
C1708 H1750 0.930 . S
C1709 N1705 1.279 1_545 S
C1709 C1707 1.358 . S
C1709 H1751 0.930 . S
C1710 C1711 1.348 . S
C1710 C1712 1.356 . S
C1710 O1735 1.325 . S
C1711 C1710 1.348 . S
C1711 C1713 1.353 . S
C1711 H1752 0.929 . S
C1712 C1710 1.356 . S
C1712 C1714 1.358 . S
C1712 H1753 0.930 . S
C1713 C1711 1.353 . S
C1713 N1715 1.314 . S
C1713 H1754 0.930 . S
C1714 C1712 1.358 . S
C1714 N1715 1.279 . S
C1714 H1755 0.930 . S
N1715 C1713 1.314 . S
N1715 C1714 1.279 . S
C1716 C1718 1.353 . S
C1716 N1719 1.314 . S
C1716 H1722 0.930 . S
C1717 N1719 1.279 . S
C1717 C1720 1.358 . S
C1717 H1723 0.930 . S
C1718 C1716 1.353 . S
C1718 C1721 1.348 . S
C1718 H1756 0.929 . S
N1719 Li1674 1.990 . S
N1719 C1716 1.314 . S
N1719 C1717 1.279 . S
C1720 C1717 1.358 . S
C1720 C1721 1.356 . S
C1720 H1757 0.930 . S
C1721 C1718 1.348 . S
C1721 C1720 1.356 . S
H1722 C1716 0.930 . S
H1723 C1717 0.930 . S
C1724 N1725 1.314 . S
C1724 C1726 1.353 1_545 S
C1724 H1730 0.930 . S
N1725 Li1675 1.990 . S
N1725 C1724 1.314 . S
N1725 C1728 1.279 . S
C1726 C1724 1.353 1_565 S
C1726 C1729 1.348 . S
C1726 H1758 0.929 . S
C1727 C1728 1.358 1_565 S
C1727 C1729 1.356 . S
C1727 H1759 0.930 . S
C1728 N1725 1.279 . S
C1728 C1727 1.358 1_545 S
C1728 H1731 0.930 . S
C1729 C1726 1.348 . S
C1729 C1727 1.356 . S
H1730 C1724 0.930 . S
H1731 C1728 0.930 . S
O1732 Li1672 1.956 . S
O1732 Li1673 1.970 . S
O1732 Li1674 1.961 . S
O1732 C1676 1.325 . S
O1733 Li1672 1.970 . S
O1733 Li1673 1.956 . S
O1733 Li1675 1.961 . S
O1733 C1682 1.325 . S
O1734 Li1672 1.961 . S
O1734 Li1674 1.956 . S
O1734 Li1675 1.970 . S
O1734 C1704 1.325 . S
O1735 Li1673 1.961 . S
O1735 Li1674 1.970 . S
O1735 Li1675 1.956 . S
O1735 C1710 1.325 . S
H1736 C1678 0.929 . S
H1737 C1679 0.930 . S
H1738 C1680 0.930 . S
H1739 C1681 0.930 . S
H1740 C1683 0.930 . S
H1741 C1685 0.929 . S
H1742 C1686 0.930 . S
H1743 C1687 0.930 . S
H1744 C1690 0.930 . S
H1745 C1693 0.929 . S
H1746 C1698 0.929 . S
H1747 C1699 0.930 . S
H1748 C1706 0.929 . S
H1749 C1707 0.930 . S
H1750 C1708 0.930 . S
H1751 C1709 0.930 . S
H1752 C1711 0.929 . S
H1753 C1712 0.930 . S
H1754 C1713 0.930 . S
H1755 C1714 0.930 . S
H1756 C1718 0.929 . S
H1757 C1720 0.930 . S
H1758 C1726 0.929 . S
H1759 C1727 0.930 . S
Li1760 N1777 1.990 . S
Li1760 O1820 1.956 . S
Li1760 O1821 1.970 . S
Li1760 O1822 1.961 . S
Li1761 N1785 1.990 . S
Li1761 O1820 1.970 . S
Li1761 O1821 1.956 . S
Li1761 O1823 1.961 . S
Li1762 N1807 1.990 . S
Li1762 O1820 1.961 . S
Li1762 O1822 1.956 . S
Li1762 O1823 1.970 . S
Li1763 N1813 1.990 . S
Li1763 O1821 1.961 . S
Li1763 O1822 1.970 . S
Li1763 O1823 1.956 . S
C1764 C1766 1.348 . S
C1764 C1767 1.356 . S
C1764 O1820 1.325 . S
N1765 C1768 1.314 . S
N1765 C1769 1.279 . S
C1766 C1764 1.348 . S
C1766 C1768 1.353 . S
C1766 H1824 0.929 . S
C1767 C1764 1.356 . S
C1767 C1769 1.358 . S
C1767 H1825 0.930 . S
C1768 N1765 1.314 . S
C1768 C1766 1.353 . S
C1768 H1826 0.930 . S
C1769 N1765 1.279 . S
C1769 C1767 1.358 . S
C1769 H1827 0.930 . S
C1770 C1773 1.348 . S
C1770 C1774 1.356 . S
C1770 O1821 1.325 . S
C1771 N1772 1.279 1_565 S
C1771 C1774 1.358 . S
C1771 H1828 0.930 . S
N1772 C1771 1.279 1_545 S
N1772 C1775 1.314 . S
C1773 C1770 1.348 . S
C1773 C1775 1.353 1_565 S
C1773 H1829 0.929 . S
C1774 C1770 1.356 . S
C1774 C1771 1.358 . S
C1774 H1830 0.930 . S
C1775 N1772 1.314 . S
C1775 C1773 1.353 1_545 S
C1775 H1831 0.930 . S
C1776 N1777 1.314 . S
C1776 C1781 1.353 1_565 S
C1776 H1782 0.930 . S
N1777 Li1760 1.990 . S
N1777 C1776 1.314 . S
N1777 C1779 1.279 . S
C1778 C1779 1.358 1_545 S
C1778 C1780 1.356 . S
C1778 H1832 0.930 . S
C1779 N1777 1.279 . S
C1779 C1778 1.358 1_565 S
C1779 H1783 0.930 . S
C1780 C1778 1.356 . S
C1780 C1781 1.348 . S
C1781 C1776 1.353 1_545 S
C1781 C1780 1.348 . S
C1781 H1833 0.929 . S
H1782 C1776 0.930 . S
H1783 C1779 0.930 . S
C1784 N1785 1.314 . S
C1784 C1786 1.353 . S
C1784 H1790 0.930 . S
N1785 Li1761 1.990 . S
N1785 C1784 1.314 . S
N1785 C1788 1.279 . S
C1786 C1784 1.353 . S
C1786 C1789 1.348 . S
C1786 H1834 0.929 . S
C1787 C1788 1.358 . S
C1787 C1789 1.356 . S
C1787 H1835 0.930 . S
C1788 N1785 1.279 . S
C1788 C1787 1.358 . S
C1788 H1791 0.930 . S
C1789 C1786 1.348 . S
C1789 C1787 1.356 . S
H1790 C1784 0.930 . S
H1791 C1788 0.930 . S
C1792 C1794 1.348 . S
C1792 C1795 1.356 . S
C1792 O1822 1.325 . S
N1793 C1796 1.314 . S
N1793 C1797 1.279 . S
C1794 C1792 1.348 . S
C1794 C1796 1.353 . S
C1794 H1836 0.929 . S
C1795 C1792 1.356 . S
C1795 C1797 1.358 . S
C1795 H1837 0.930 . S
C1796 N1793 1.314 . S
C1796 C1794 1.353 . S
C1796 H1838 0.930 . S
C1797 N1793 1.279 . S
C1797 C1795 1.358 . S
C1797 H1839 0.930 . S
C1798 C1799 1.348 . S
C1798 C1800 1.356 . S
C1798 O1823 1.325 . S
C1799 C1798 1.348 . S
C1799 C1801 1.353 . S
C1799 H1840 0.929 . S
C1800 C1798 1.356 . S
C1800 C1802 1.358 . S
C1800 H1841 0.930 . S
C1801 C1799 1.353 . S
C1801 N1803 1.314 . S
C1801 H1842 0.930 . S
C1802 C1800 1.358 . S
C1802 N1803 1.279 . S
C1802 H1843 0.930 . S
N1803 C1801 1.314 . S
N1803 C1802 1.279 . S
C1804 C1806 1.353 . S
C1804 N1807 1.314 . S
C1804 H1810 0.930 . S
C1805 N1807 1.279 . S
C1805 C1808 1.358 . S
C1805 H1811 0.930 . S
C1806 C1804 1.353 . S
C1806 C1809 1.348 . S
C1806 H1844 0.929 . S
N1807 Li1762 1.990 . S
N1807 C1804 1.314 . S
N1807 C1805 1.279 . S
C1808 C1805 1.358 . S
C1808 C1809 1.356 . S
C1808 H1845 0.930 . S
C1809 C1806 1.348 . S
C1809 C1808 1.356 . S
H1810 C1804 0.930 . S
H1811 C1805 0.930 . S
C1812 N1813 1.314 . S
C1812 C1814 1.353 . S
C1812 H1818 0.930 . S
N1813 Li1763 1.990 . S
N1813 C1812 1.314 . S
N1813 C1816 1.279 . S
C1814 C1812 1.353 . S
C1814 C1817 1.348 . S
C1814 H1846 0.929 . S
C1815 C1816 1.358 . S
C1815 C1817 1.356 . S
C1815 H1847 0.930 . S
C1816 N1813 1.279 . S
C1816 C1815 1.358 . S
C1816 H1819 0.930 . S
C1817 C1814 1.348 . S
C1817 C1815 1.356 . S
H1818 C1812 0.930 . S
H1819 C1816 0.930 . S
O1820 Li1760 1.956 . S
O1820 Li1761 1.970 . S
O1820 Li1762 1.961 . S
O1820 C1764 1.325 . S
O1821 Li1760 1.970 . S
O1821 Li1761 1.956 . S
O1821 Li1763 1.961 . S
O1821 C1770 1.325 . S
O1822 Li1760 1.961 . S
O1822 Li1762 1.956 . S
O1822 Li1763 1.970 . S
O1822 C1792 1.325 . S
O1823 Li1761 1.961 . S
O1823 Li1762 1.970 . S
O1823 Li1763 1.956 . S
O1823 C1798 1.325 . S
H1824 C1766 0.929 . S
H1825 C1767 0.930 . S
H1826 C1768 0.930 . S
H1827 C1769 0.930 . S
H1828 C1771 0.930 . S
H1829 C1773 0.929 . S
H1830 C1774 0.930 . S
H1831 C1775 0.930 . S
H1832 C1778 0.930 . S
H1833 C1781 0.929 . S
H1834 C1786 0.929 . S
H1835 C1787 0.930 . S
H1836 C1794 0.929 . S
H1837 C1795 0.930 . S
H1838 C1796 0.930 . S
H1839 C1797 0.930 . S
H1840 C1799 0.929 . S
H1841 C1800 0.930 . S
H1842 C1801 0.930 . S
H1843 C1802 0.930 . S
H1844 C1806 0.929 . S
H1845 C1808 0.930 . S
H1846 C1814 0.929 . S
H1847 C1815 0.930 . S
Li1848 N1865 1.990 . S
Li1848 O1908 1.956 . S
Li1848 O1909 1.970 . S
Li1848 O1910 1.961 . S
Li1849 N1873 1.990 . S
Li1849 O1908 1.970 . S
Li1849 O1909 1.956 . S
Li1849 O1911 1.961 . S
Li1850 N1895 1.990 . S
Li1850 O1908 1.961 . S
Li1850 O1910 1.956 . S
Li1850 O1911 1.970 . S
Li1851 N1901 1.990 . S
Li1851 O1909 1.961 . S
Li1851 O1910 1.970 . S
Li1851 O1911 1.956 . S
C1852 C1854 1.348 1_565 S
C1852 C1855 1.356 . S
C1852 O1908 1.325 . S
N1853 C1856 1.314 . S
N1853 C1857 1.279 . S
C1854 C1852 1.348 1_545 S
C1854 C1856 1.353 . S
C1854 H1912 0.929 . S
C1855 C1852 1.356 . S
C1855 C1857 1.358 1_565 S
C1855 H1913 0.930 . S
C1856 N1853 1.314 . S
C1856 C1854 1.353 . S
C1856 H1914 0.930 . S
C1857 N1853 1.279 . S
C1857 C1855 1.358 1_545 S
C1857 H1915 0.930 . S
C1858 C1861 1.348 . S
C1858 C1862 1.356 . S
C1858 O1909 1.325 . S
C1859 N1860 1.279 . S
C1859 C1862 1.358 . S
C1859 H1916 0.930 . S
N1860 C1859 1.279 . S
N1860 C1863 1.314 . S
C1861 C1858 1.348 . S
C1861 C1863 1.353 . S
C1861 H1917 0.929 . S
C1862 C1858 1.356 . S
C1862 C1859 1.358 . S
C1862 H1918 0.930 . S
C1863 N1860 1.314 . S
C1863 C1861 1.353 . S
C1863 H1919 0.930 . S
C1864 N1865 1.314 . S
C1864 C1869 1.353 . S
C1864 H1870 0.930 . S
N1865 Li1848 1.990 . S
N1865 C1864 1.314 . S
N1865 C1867 1.279 . S
C1866 C1867 1.358 . S
C1866 C1868 1.356 . S
C1866 H1920 0.930 . S
C1867 N1865 1.279 . S
C1867 C1866 1.358 . S
C1867 H1871 0.930 . S
C1868 C1866 1.356 . S
C1868 C1869 1.348 . S
C1869 C1864 1.353 . S
C1869 C1868 1.348 . S
C1869 H1921 0.929 . S
H1870 C1864 0.930 . S
H1871 C1867 0.930 . S
C1872 N1873 1.314 1_545 S
C1872 C1874 1.353 . S
C1872 H1878 0.930 . S
N1873 Li1849 1.990 . S
N1873 C1872 1.314 1_565 S
N1873 C1876 1.279 . S
C1874 C1872 1.353 . S
C1874 C1877 1.348 . S
C1874 H1922 0.929 . S
C1875 C1876 1.358 1_545 S
C1875 C1877 1.356 . S
C1875 H1923 0.930 . S
C1876 N1873 1.279 . S
C1876 C1875 1.358 1_565 S
C1876 H1879 0.930 . S
C1877 C1874 1.348 . S
C1877 C1875 1.356 . S
H1878 C1872 0.930 . S
H1879 C1876 0.930 . S
C1880 C1882 1.348 . S
C1880 C1883 1.356 . S
C1880 O1910 1.325 . S
N1881 C1884 1.314 . S
N1881 C1885 1.279 . S
C1882 C1880 1.348 . S
C1882 C1884 1.353 . S
C1882 H1924 0.929 . S
C1883 C1880 1.356 . S
C1883 C1885 1.358 . S
C1883 H1925 0.930 . S
C1884 N1881 1.314 . S
C1884 C1882 1.353 . S
C1884 H1926 0.930 . S
C1885 N1881 1.279 . S
C1885 C1883 1.358 . S
C1885 H1927 0.930 . S
C1886 C1887 1.348 . S
C1886 C1888 1.356 . S
C1886 O1911 1.325 . S
C1887 C1886 1.348 . S
C1887 C1889 1.353 . S
C1887 H1928 0.929 . S
C1888 C1886 1.356 . S
C1888 C1890 1.358 . S
C1888 H1929 0.930 . S
C1889 C1887 1.353 . S
C1889 N1891 1.314 . S
C1889 H1930 0.930 . S
C1890 C1888 1.358 . S
C1890 N1891 1.279 . S
C1890 H1931 0.930 . S
N1891 C1889 1.314 . S
N1891 C1890 1.279 . S
C1892 C1894 1.353 . S
C1892 N1895 1.314 . S
C1892 H1898 0.930 . S
C1893 N1895 1.279 . S
C1893 C1896 1.358 . S
C1893 H1899 0.930 . S
C1894 C1892 1.353 . S
C1894 C1897 1.348 . S
C1894 H1932 0.929 . S
N1895 Li1850 1.990 . S
N1895 C1892 1.314 . S
N1895 C1893 1.279 . S
C1896 C1893 1.358 . S
C1896 C1897 1.356 . S
C1896 H1933 0.930 . S
C1897 C1894 1.348 . S
C1897 C1896 1.356 . S
H1898 C1892 0.930 . S
H1899 C1893 0.930 . S
C1900 N1901 1.314 . S
C1900 C1902 1.353 . S
C1900 H1906 0.930 . S
N1901 Li1851 1.990 . S
N1901 C1900 1.314 . S
N1901 C1904 1.279 . S
C1902 C1900 1.353 . S
C1902 C1905 1.348 . S
C1902 H1934 0.929 . S
C1903 C1904 1.358 . S
C1903 C1905 1.356 . S
C1903 H1935 0.930 . S
C1904 N1901 1.279 . S
C1904 C1903 1.358 . S
C1904 H1907 0.930 . S
C1905 C1902 1.348 . S
C1905 C1903 1.356 . S
H1906 C1900 0.930 . S
H1907 C1904 0.930 . S
O1908 Li1848 1.956 . S
O1908 Li1849 1.970 . S
O1908 Li1850 1.961 . S
O1908 C1852 1.325 . S
O1909 Li1848 1.970 . S
O1909 Li1849 1.956 . S
O1909 Li1851 1.961 . S
O1909 C1858 1.325 . S
O1910 Li1848 1.961 . S
O1910 Li1850 1.956 . S
O1910 Li1851 1.970 . S
O1910 C1880 1.325 . S
O1911 Li1849 1.961 . S
O1911 Li1850 1.970 . S
O1911 Li1851 1.956 . S
O1911 C1886 1.325 . S
H1912 C1854 0.929 . S
H1913 C1855 0.930 . S
H1914 C1856 0.930 . S
H1915 C1857 0.930 . S
H1916 C1859 0.930 . S
H1917 C1861 0.929 . S
H1918 C1862 0.930 . S
H1919 C1863 0.930 . S
H1920 C1866 0.930 . S
H1921 C1869 0.929 . S
H1922 C1874 0.929 . S
H1923 C1875 0.930 . S
H1924 C1882 0.929 . S
H1925 C1883 0.930 . S
H1926 C1884 0.930 . S
H1927 C1885 0.930 . S
H1928 C1887 0.929 . S
H1929 C1888 0.930 . S
H1930 C1889 0.930 . S
H1931 C1890 0.930 . S
H1932 C1894 0.929 . S
H1933 C1896 0.930 . S
H1934 C1902 0.929 . S
H1935 C1903 0.930 . S
Li1936 N1953 1.990 . S
Li1936 O1996 1.956 . S
Li1936 O1997 1.970 . S
Li1936 O1998 1.961 . S
Li1937 N1961 1.990 . S
Li1937 O1996 1.970 . S
Li1937 O1997 1.956 . S
Li1937 O1999 1.961 . S
Li1938 N1983 1.990 . S
Li1938 O1996 1.961 . S
Li1938 O1998 1.956 . S
Li1938 O1999 1.970 . S
Li1939 N1989 1.990 . S
Li1939 O1997 1.961 . S
Li1939 O1998 1.970 . S
Li1939 O1999 1.956 . S
C1940 C1942 1.348 1_565 S
C1940 C1943 1.356 . S
C1940 O1996 1.325 . S
N1941 C1944 1.314 . S
N1941 C1945 1.279 . S
C1942 C1940 1.348 1_545 S
C1942 C1944 1.353 . S
C1942 H2000 0.929 . S
C1943 C1940 1.356 . S
C1943 C1945 1.358 1_565 S
C1943 H2001 0.930 . S
C1944 N1941 1.314 . S
C1944 C1942 1.353 . S
C1944 H2002 0.930 . S
C1945 N1941 1.279 . S
C1945 C1943 1.358 1_545 S
C1945 H2003 0.930 . S
C1946 C1949 1.348 . S
C1946 C1950 1.356 . S
C1946 O1997 1.325 . S
C1947 N1948 1.279 . S
C1947 C1950 1.358 . S
C1947 H2004 0.930 . S
N1948 C1947 1.279 . S
N1948 C1951 1.314 . S
C1949 C1946 1.348 . S
C1949 C1951 1.353 . S
C1949 H2005 0.929 . S
C1950 C1946 1.356 . S
C1950 C1947 1.358 . S
C1950 H2006 0.930 . S
C1951 N1948 1.314 . S
C1951 C1949 1.353 . S
C1951 H2007 0.930 . S
C1952 N1953 1.314 . S
C1952 C1957 1.353 . S
C1952 H1958 0.930 . S
N1953 Li1936 1.990 . S
N1953 C1952 1.314 . S
N1953 C1955 1.279 . S
C1954 C1955 1.358 . S
C1954 C1956 1.356 . S
C1954 H2008 0.930 . S
C1955 N1953 1.279 . S
C1955 C1954 1.358 . S
C1955 H1959 0.930 . S
C1956 C1954 1.356 . S
C1956 C1957 1.348 . S
C1957 C1952 1.353 . S
C1957 C1956 1.348 . S
C1957 H2009 0.929 . S
H1958 C1952 0.930 . S
H1959 C1955 0.930 . S
C1960 N1961 1.314 1_545 S
C1960 C1962 1.353 . S
C1960 H1966 0.930 . S
N1961 Li1937 1.990 . S
N1961 C1960 1.314 1_565 S
N1961 C1964 1.279 . S
C1962 C1960 1.353 . S
C1962 C1965 1.348 . S
C1962 H2010 0.929 . S
C1963 C1964 1.358 1_545 S
C1963 C1965 1.356 . S
C1963 H2011 0.930 . S
C1964 N1961 1.279 . S
C1964 C1963 1.358 1_565 S
C1964 H1967 0.930 . S
C1965 C1962 1.348 . S
C1965 C1963 1.356 . S
H1966 C1960 0.930 . S
H1967 C1964 0.930 . S
C1968 C1970 1.348 . S
C1968 C1971 1.356 . S
C1968 O1998 1.325 . S
N1969 C1972 1.314 . S
N1969 C1973 1.279 . S
C1970 C1968 1.348 . S
C1970 C1972 1.353 . S
C1970 H2012 0.929 . S
C1971 C1968 1.356 . S
C1971 C1973 1.358 . S
C1971 H2013 0.930 . S
C1972 N1969 1.314 . S
C1972 C1970 1.353 . S
C1972 H2014 0.930 . S
C1973 N1969 1.279 . S
C1973 C1971 1.358 . S
C1973 H2015 0.930 . S
C1974 C1975 1.348 . S
C1974 C1976 1.356 . S
C1974 O1999 1.325 . S
C1975 C1974 1.348 . S
C1975 C1977 1.353 . S
C1975 H2016 0.929 . S
C1976 C1974 1.356 . S
C1976 C1978 1.358 . S
C1976 H2017 0.930 . S
C1977 C1975 1.353 . S
C1977 N1979 1.314 . S
C1977 H2018 0.930 . S
C1978 C1976 1.358 . S
C1978 N1979 1.279 . S
C1978 H2019 0.930 . S
N1979 C1977 1.314 . S
N1979 C1978 1.279 . S
C1980 C1982 1.353 . S
C1980 N1983 1.314 . S
C1980 H1986 0.930 . S
C1981 N1983 1.279 . S
C1981 C1984 1.358 . S
C1981 H1987 0.930 . S
C1982 C1980 1.353 . S
C1982 C1985 1.348 . S
C1982 H2020 0.929 . S
N1983 Li1938 1.990 . S
N1983 C1980 1.314 . S
N1983 C1981 1.279 . S
C1984 C1981 1.358 . S
C1984 C1985 1.356 . S
C1984 H2021 0.930 . S
C1985 C1982 1.348 . S
C1985 C1984 1.356 . S
H1986 C1980 0.930 . S
H1987 C1981 0.930 . S
C1988 N1989 1.314 . S
C1988 C1990 1.353 . S
C1988 H1994 0.930 . S
N1989 Li1939 1.990 . S
N1989 C1988 1.314 . S
N1989 C1992 1.279 . S
C1990 C1988 1.353 . S
C1990 C1993 1.348 . S
C1990 H2022 0.929 . S
C1991 C1992 1.358 . S
C1991 C1993 1.356 . S
C1991 H2023 0.930 . S
C1992 N1989 1.279 . S
C1992 C1991 1.358 . S
C1992 H1995 0.930 . S
C1993 C1990 1.348 . S
C1993 C1991 1.356 . S
H1994 C1988 0.930 . S
H1995 C1992 0.930 . S
O1996 Li1936 1.956 . S
O1996 Li1937 1.970 . S
O1996 Li1938 1.961 . S
O1996 C1940 1.325 . S
O1997 Li1936 1.970 . S
O1997 Li1937 1.956 . S
O1997 Li1939 1.961 . S
O1997 C1946 1.325 . S
O1998 Li1936 1.961 . S
O1998 Li1938 1.956 . S
O1998 Li1939 1.970 . S
O1998 C1968 1.325 . S
O1999 Li1937 1.961 . S
O1999 Li1938 1.970 . S
O1999 Li1939 1.956 . S
O1999 C1974 1.325 . S
H2000 C1942 0.929 . S
H2001 C1943 0.930 . S
H2002 C1944 0.930 . S
H2003 C1945 0.930 . S
H2004 C1947 0.930 . S
H2005 C1949 0.929 . S
H2006 C1950 0.930 . S
H2007 C1951 0.930 . S
H2008 C1954 0.930 . S
H2009 C1957 0.929 . S
H2010 C1962 0.929 . S
H2011 C1963 0.930 . S
H2012 C1970 0.929 . S
H2013 C1971 0.930 . S
H2014 C1972 0.930 . S
H2015 C1973 0.930 . S
H2016 C1975 0.929 . S
H2017 C1976 0.930 . S
H2018 C1977 0.930 . S
H2019 C1978 0.930 . S
H2020 C1982 0.929 . S
H2021 C1984 0.930 . S
H2022 C1990 0.929 . S
H2023 C1991 0.930 . S
Li2024 N2041 1.990 . S
Li2024 O2084 1.956 . S
Li2024 O2085 1.970 . S
Li2024 O2086 1.961 . S
Li2025 N2049 1.990 . S
Li2025 O2084 1.970 . S
Li2025 O2085 1.956 . S
Li2025 O2087 1.961 . S
Li2026 N2071 1.990 . S
Li2026 O2084 1.961 . S
Li2026 O2086 1.956 . S
Li2026 O2087 1.970 . S
Li2027 N2077 1.990 . S
Li2027 O2085 1.961 . S
Li2027 O2086 1.970 . S
Li2027 O2087 1.956 . S
C2028 C2030 1.348 . S
C2028 C2031 1.356 . S
C2028 O2084 1.325 . S
N2029 C2032 1.314 . S
N2029 C2033 1.279 1_545 S
C2030 C2028 1.348 . S
C2030 C2032 1.353 1_565 S
C2030 H2088 0.929 . S
C2031 C2028 1.356 . S
C2031 C2033 1.358 . S
C2031 H2089 0.930 . S
C2032 N2029 1.314 . S
C2032 C2030 1.353 1_545 S
C2032 H2090 0.930 . S
C2033 N2029 1.279 1_565 S
C2033 C2031 1.358 . S
C2033 H2091 0.930 . S
C2034 C2037 1.348 . S
C2034 C2038 1.356 . S
C2034 O2085 1.325 . S
C2035 N2036 1.279 . S
C2035 C2038 1.358 . S
C2035 H2092 0.930 . S
N2036 C2035 1.279 . S
N2036 C2039 1.314 . S
C2037 C2034 1.348 . S
C2037 C2039 1.353 . S
C2037 H2093 0.929 . S
C2038 C2034 1.356 . S
C2038 C2035 1.358 . S
C2038 H2094 0.930 . S
C2039 N2036 1.314 . S
C2039 C2037 1.353 . S
C2039 H2095 0.930 . S
C2040 N2041 1.314 . S
C2040 C2045 1.353 . S
C2040 H2046 0.930 . S
N2041 Li2024 1.990 . S
N2041 C2040 1.314 . S
N2041 C2043 1.279 . S
C2042 C2043 1.358 . S
C2042 C2044 1.356 . S
C2042 H2096 0.930 . S
C2043 N2041 1.279 . S
C2043 C2042 1.358 . S
C2043 H2047 0.930 . S
C2044 C2042 1.356 . S
C2044 C2045 1.348 . S
C2045 C2040 1.353 . S
C2045 C2044 1.348 . S
C2045 H2097 0.929 . S
H2046 C2040 0.930 . S
H2047 C2043 0.930 . S
C2048 N2049 1.314 . S
C2048 C2050 1.353 1_565 S
C2048 H2054 0.930 . S
N2049 Li2025 1.990 . S
N2049 C2048 1.314 . S
N2049 C2052 1.279 . S
C2050 C2048 1.353 1_545 S
C2050 C2053 1.348 . S
C2050 H2098 0.929 . S
C2051 C2052 1.358 1_545 S
C2051 C2053 1.356 . S
C2051 H2099 0.930 . S
C2052 N2049 1.279 . S
C2052 C2051 1.358 1_565 S
C2052 H2055 0.930 . S
C2053 C2050 1.348 . S
C2053 C2051 1.356 . S
H2054 C2048 0.930 . S
H2055 C2052 0.930 . S
C2056 C2058 1.348 . S
C2056 C2059 1.356 . S
C2056 O2086 1.325 . S
N2057 C2060 1.314 . S
N2057 C2061 1.279 . S
C2058 C2056 1.348 . S
C2058 C2060 1.353 . S
C2058 H2100 0.929 . S
C2059 C2056 1.356 . S
C2059 C2061 1.358 . S
C2059 H2101 0.930 . S
C2060 N2057 1.314 . S
C2060 C2058 1.353 . S
C2060 H2102 0.930 . S
C2061 N2057 1.279 . S
C2061 C2059 1.358 . S
C2061 H2103 0.930 . S
C2062 C2063 1.348 . S
C2062 C2064 1.356 . S
C2062 O2087 1.325 . S
C2063 C2062 1.348 . S
C2063 C2065 1.353 . S
C2063 H2104 0.929 . S
C2064 C2062 1.356 . S
C2064 C2066 1.358 . S
C2064 H2105 0.930 . S
C2065 C2063 1.353 . S
C2065 N2067 1.314 . S
C2065 H2106 0.930 . S
C2066 C2064 1.358 . S
C2066 N2067 1.279 . S
C2066 H2107 0.930 . S
N2067 C2065 1.314 . S
N2067 C2066 1.279 . S
C2068 C2070 1.353 . S
C2068 N2071 1.314 . S
C2068 H2074 0.930 . S
C2069 N2071 1.279 . S
C2069 C2072 1.358 . S
C2069 H2075 0.930 . S
C2070 C2068 1.353 . S
C2070 C2073 1.348 . S
C2070 H2108 0.929 . S
N2071 Li2026 1.990 . S
N2071 C2068 1.314 . S
N2071 C2069 1.279 . S
C2072 C2069 1.358 . S
C2072 C2073 1.356 . S
C2072 H2109 0.930 . S
C2073 C2070 1.348 . S
C2073 C2072 1.356 . S
H2074 C2068 0.930 . S
H2075 C2069 0.930 . S
C2076 N2077 1.314 . S
C2076 C2078 1.353 . S
C2076 H2082 0.930 . S
N2077 Li2027 1.990 . S
N2077 C2076 1.314 . S
N2077 C2080 1.279 . S
C2078 C2076 1.353 . S
C2078 C2081 1.348 . S
C2078 H2110 0.929 . S
C2079 C2080 1.358 . S
C2079 C2081 1.356 . S
C2079 H2111 0.930 . S
C2080 N2077 1.279 . S
C2080 C2079 1.358 . S
C2080 H2083 0.930 . S
C2081 C2078 1.348 . S
C2081 C2079 1.356 . S
H2082 C2076 0.930 . S
H2083 C2080 0.930 . S
O2084 Li2024 1.956 . S
O2084 Li2025 1.970 . S
O2084 Li2026 1.961 . S
O2084 C2028 1.325 . S
O2085 Li2024 1.970 . S
O2085 Li2025 1.956 . S
O2085 Li2027 1.961 . S
O2085 C2034 1.325 . S
O2086 Li2024 1.961 . S
O2086 Li2026 1.956 . S
O2086 Li2027 1.970 . S
O2086 C2056 1.325 . S
O2087 Li2025 1.961 . S
O2087 Li2026 1.970 . S
O2087 Li2027 1.956 . S
O2087 C2062 1.325 . S
H2088 C2030 0.929 . S
H2089 C2031 0.930 . S
H2090 C2032 0.930 . S
H2091 C2033 0.930 . S
H2092 C2035 0.930 . S
H2093 C2037 0.929 . S
H2094 C2038 0.930 . S
H2095 C2039 0.930 . S
H2096 C2042 0.930 . S
H2097 C2045 0.929 . S
H2098 C2050 0.929 . S
H2099 C2051 0.930 . S
H2100 C2058 0.929 . S
H2101 C2059 0.930 . S
H2102 C2060 0.930 . S
H2103 C2061 0.930 . S
H2104 C2063 0.929 . S
H2105 C2064 0.930 . S
H2106 C2065 0.930 . S
H2107 C2066 0.930 . S
H2108 C2070 0.929 . S
H2109 C2072 0.930 . S
H2110 C2078 0.929 . S
H2111 C2079 0.930 . S
Li2112 N2129 1.990 . S
Li2112 O2172 1.956 . S
Li2112 O2173 1.970 . S
Li2112 O2174 1.961 . S
Li2113 N2137 1.990 . S
Li2113 O2172 1.970 . S
Li2113 O2173 1.956 . S
Li2113 O2175 1.961 . S
Li2114 N2159 1.990 . S
Li2114 O2172 1.961 . S
Li2114 O2174 1.956 . S
Li2114 O2175 1.970 . S
Li2115 N2165 1.990 . S
Li2115 O2173 1.961 . S
Li2115 O2174 1.970 . S
Li2115 O2175 1.956 . S
C2116 C2118 1.348 . S
C2116 C2119 1.356 . S
C2116 O2172 1.325 . S
N2117 C2120 1.314 . S
N2117 C2121 1.279 . S
C2118 C2116 1.348 . S
C2118 C2120 1.353 . S
C2118 H2176 0.929 . S
C2119 C2116 1.356 . S
C2119 C2121 1.358 . S
C2119 H2177 0.930 . S
C2120 N2117 1.314 . S
C2120 C2118 1.353 . S
C2120 H2178 0.930 . S
C2121 N2117 1.279 . S
C2121 C2119 1.358 . S
C2121 H2179 0.930 . S
C2122 C2125 1.348 . S
C2122 C2126 1.356 . S
C2122 O2173 1.325 . S
C2123 N2124 1.279 . S
C2123 C2126 1.358 . S
C2123 H2180 0.930 . S
N2124 C2123 1.279 . S
N2124 C2127 1.314 . S
C2125 C2122 1.348 . S
C2125 C2127 1.353 . S
C2125 H2181 0.929 . S
C2126 C2122 1.356 . S
C2126 C2123 1.358 . S
C2126 H2182 0.930 . S
C2127 N2124 1.314 . S
C2127 C2125 1.353 . S
C2127 H2183 0.930 . S
C2128 N2129 1.314 . S
C2128 C2133 1.353 . S
C2128 H2134 0.930 . S
N2129 Li2112 1.990 . S
N2129 C2128 1.314 . S
N2129 C2131 1.279 . S
C2130 C2131 1.358 . S
C2130 C2132 1.356 . S
C2130 H2184 0.930 . S
C2131 N2129 1.279 . S
C2131 C2130 1.358 . S
C2131 H2135 0.930 . S
C2132 C2130 1.356 . S
C2132 C2133 1.348 . S
C2133 C2128 1.353 . S
C2133 C2132 1.348 . S
C2133 H2185 0.929 . S
H2134 C2128 0.930 . S
H2135 C2131 0.930 . S
C2136 N2137 1.314 . S
C2136 C2138 1.353 . S
C2136 H2142 0.930 . S
N2137 Li2113 1.990 . S
N2137 C2136 1.314 . S
N2137 C2140 1.279 . S
C2138 C2136 1.353 . S
C2138 C2141 1.348 . S
C2138 H2186 0.929 . S
C2139 C2140 1.358 . S
C2139 C2141 1.356 . S
C2139 H2187 0.930 . S
C2140 N2137 1.279 . S
C2140 C2139 1.358 . S
C2140 H2143 0.930 . S
C2141 C2138 1.348 . S
C2141 C2139 1.356 . S
H2142 C2136 0.930 . S
H2143 C2140 0.930 . S
C2144 C2146 1.348 . S
C2144 C2147 1.356 . S
C2144 O2174 1.325 . S
N2145 C2148 1.314 . S
N2145 C2149 1.279 . S
C2146 C2144 1.348 . S
C2146 C2148 1.353 . S
C2146 H2188 0.929 . S
C2147 C2144 1.356 . S
C2147 C2149 1.358 . S
C2147 H2189 0.930 . S
C2148 N2145 1.314 . S
C2148 C2146 1.353 . S
C2148 H2190 0.930 . S
C2149 N2145 1.279 . S
C2149 C2147 1.358 . S
C2149 H2191 0.930 . S
C2150 C2151 1.348 . S
C2150 C2152 1.356 . S
C2150 O2175 1.325 . S
C2151 C2150 1.348 . S
C2151 C2153 1.353 . S
C2151 H2192 0.929 . S
C2152 C2150 1.356 . S
C2152 C2154 1.358 . S
C2152 H2193 0.930 . S
C2153 C2151 1.353 . S
C2153 N2155 1.314 . S
C2153 H2194 0.930 . S
C2154 C2152 1.358 . S
C2154 N2155 1.279 . S
C2154 H2195 0.930 . S
N2155 C2153 1.314 . S
N2155 C2154 1.279 . S
C2156 C2158 1.353 . S
C2156 N2159 1.314 . S
C2156 H2162 0.930 . S
C2157 N2159 1.279 . S
C2157 C2160 1.358 . S
C2157 H2163 0.930 . S
C2158 C2156 1.353 . S
C2158 C2161 1.348 . S
C2158 H2196 0.929 . S
N2159 Li2114 1.990 . S
N2159 C2156 1.314 . S
N2159 C2157 1.279 . S
C2160 C2157 1.358 . S
C2160 C2161 1.356 . S
C2160 H2197 0.930 . S
C2161 C2158 1.348 . S
C2161 C2160 1.356 . S
H2162 C2156 0.930 . S
H2163 C2157 0.930 . S
C2164 N2165 1.314 . S
C2164 C2166 1.353 . S
C2164 H2170 0.930 . S
N2165 Li2115 1.990 . S
N2165 C2164 1.314 . S
N2165 C2168 1.279 . S
C2166 C2164 1.353 . S
C2166 C2169 1.348 . S
C2166 H2198 0.929 . S
C2167 C2168 1.358 . S
C2167 C2169 1.356 . S
C2167 H2199 0.930 . S
C2168 N2165 1.279 . S
C2168 C2167 1.358 . S
C2168 H2171 0.930 . S
C2169 C2166 1.348 . S
C2169 C2167 1.356 . S
H2170 C2164 0.930 . S
H2171 C2168 0.930 . S
O2172 Li2112 1.956 . S
O2172 Li2113 1.970 . S
O2172 Li2114 1.961 . S
O2172 C2116 1.325 . S
O2173 Li2112 1.970 . S
O2173 Li2113 1.956 . S
O2173 Li2115 1.961 . S
O2173 C2122 1.325 . S
O2174 Li2112 1.961 . S
O2174 Li2114 1.956 . S
O2174 Li2115 1.970 . S
O2174 C2144 1.325 . S
O2175 Li2113 1.961 . S
O2175 Li2114 1.970 . S
O2175 Li2115 1.956 . S
O2175 C2150 1.325 . S
H2176 C2118 0.929 . S
H2177 C2119 0.930 . S
H2178 C2120 0.930 . S
H2179 C2121 0.930 . S
H2180 C2123 0.930 . S
H2181 C2125 0.929 . S
H2182 C2126 0.930 . S
H2183 C2127 0.930 . S
H2184 C2130 0.930 . S
H2185 C2133 0.929 . S
H2186 C2138 0.929 . S
H2187 C2139 0.930 . S
H2188 C2146 0.929 . S
H2189 C2147 0.930 . S
H2190 C2148 0.930 . S
H2191 C2149 0.930 . S
H2192 C2151 0.929 . S
H2193 C2152 0.930 . S
H2194 C2153 0.930 . S
H2195 C2154 0.930 . S
H2196 C2158 0.929 . S
H2197 C2160 0.930 . S
H2198 C2166 0.929 . S
H2199 C2167 0.930 . S
Li2200 N2217 1.990 . S
Li2200 O2260 1.956 . S
Li2200 O2261 1.970 . S
Li2200 O2262 1.961 . S
Li2201 N2225 1.990 . S
Li2201 O2260 1.970 . S
Li2201 O2261 1.956 . S
Li2201 O2263 1.961 . S
Li2202 N2247 1.990 . S
Li2202 O2260 1.961 . S
Li2202 O2262 1.956 . S
Li2202 O2263 1.970 . S
Li2203 N2253 1.990 . S
Li2203 O2261 1.961 . S
Li2203 O2262 1.970 . S
Li2203 O2263 1.956 . S
C2204 C2206 1.348 . S
C2204 C2207 1.356 . S
C2204 O2260 1.325 . S
N2205 C2208 1.314 . S
N2205 C2209 1.279 . S
C2206 C2204 1.348 . S
C2206 C2208 1.353 . S
C2206 H2264 0.929 . S
C2207 C2204 1.356 . S
C2207 C2209 1.358 . S
C2207 H2265 0.930 . S
C2208 N2205 1.314 . S
C2208 C2206 1.353 . S
C2208 H2266 0.930 . S
C2209 N2205 1.279 . S
C2209 C2207 1.358 . S
C2209 H2267 0.930 . S
C2210 C2213 1.348 . S
C2210 C2214 1.356 . S
C2210 O2261 1.325 . S
C2211 N2212 1.279 . S
C2211 C2214 1.358 . S
C2211 H2268 0.930 . S
N2212 C2211 1.279 . S
N2212 C2215 1.314 . S
C2213 C2210 1.348 . S
C2213 C2215 1.353 . S
C2213 H2269 0.929 . S
C2214 C2210 1.356 . S
C2214 C2211 1.358 . S
C2214 H2270 0.930 . S
C2215 N2212 1.314 . S
C2215 C2213 1.353 . S
C2215 H2271 0.930 . S
C2216 N2217 1.314 . S
C2216 C2221 1.353 . S
C2216 H2222 0.930 . S
N2217 Li2200 1.990 . S
N2217 C2216 1.314 . S
N2217 C2219 1.279 . S
C2218 C2219 1.358 . S
C2218 C2220 1.356 . S
C2218 H2272 0.930 . S
C2219 N2217 1.279 . S
C2219 C2218 1.358 . S
C2219 H2223 0.930 . S
C2220 C2218 1.356 . S
C2220 C2221 1.348 . S
C2221 C2216 1.353 . S
C2221 C2220 1.348 . S
C2221 H2273 0.929 . S
H2222 C2216 0.930 . S
H2223 C2219 0.930 . S
C2224 N2225 1.314 . S
C2224 C2226 1.353 . S
C2224 H2230 0.930 . S
N2225 Li2201 1.990 . S
N2225 C2224 1.314 . S
N2225 C2228 1.279 . S
C2226 C2224 1.353 . S
C2226 C2229 1.348 . S
C2226 H2274 0.929 . S
C2227 C2228 1.358 . S
C2227 C2229 1.356 . S
C2227 H2275 0.930 . S
C2228 N2225 1.279 . S
C2228 C2227 1.358 . S
C2228 H2231 0.930 . S
C2229 C2226 1.348 . S
C2229 C2227 1.356 . S
H2230 C2224 0.930 . S
H2231 C2228 0.930 . S
C2232 C2234 1.348 . S
C2232 C2235 1.356 . S
C2232 O2262 1.325 . S
N2233 C2236 1.314 . S
N2233 C2237 1.279 . S
C2234 C2232 1.348 . S
C2234 C2236 1.353 . S
C2234 H2276 0.929 . S
C2235 C2232 1.356 . S
C2235 C2237 1.358 . S
C2235 H2277 0.930 . S
C2236 N2233 1.314 . S
C2236 C2234 1.353 . S
C2236 H2278 0.930 . S
C2237 N2233 1.279 . S
C2237 C2235 1.358 . S
C2237 H2279 0.930 . S
C2238 C2239 1.348 . S
C2238 C2240 1.356 . S
C2238 O2263 1.325 . S
C2239 C2238 1.348 . S
C2239 C2241 1.353 . S
C2239 H2280 0.929 . S
C2240 C2238 1.356 . S
C2240 C2242 1.358 . S
C2240 H2281 0.930 . S
C2241 C2239 1.353 . S
C2241 N2243 1.314 . S
C2241 H2282 0.930 . S
C2242 C2240 1.358 . S
C2242 N2243 1.279 . S
C2242 H2283 0.930 . S
N2243 C2241 1.314 . S
N2243 C2242 1.279 . S
C2244 C2246 1.353 . S
C2244 N2247 1.314 . S
C2244 H2250 0.930 . S
C2245 N2247 1.279 . S
C2245 C2248 1.358 . S
C2245 H2251 0.930 . S
C2246 C2244 1.353 . S
C2246 C2249 1.348 . S
C2246 H2284 0.929 . S
N2247 Li2202 1.990 . S
N2247 C2244 1.314 . S
N2247 C2245 1.279 . S
C2248 C2245 1.358 . S
C2248 C2249 1.356 . S
C2248 H2285 0.930 . S
C2249 C2246 1.348 . S
C2249 C2248 1.356 . S
H2250 C2244 0.930 . S
H2251 C2245 0.930 . S
C2252 N2253 1.314 . S
C2252 C2254 1.353 . S
C2252 H2258 0.930 . S
N2253 Li2203 1.990 . S
N2253 C2252 1.314 . S
N2253 C2256 1.279 . S
C2254 C2252 1.353 . S
C2254 C2257 1.348 . S
C2254 H2286 0.929 . S
C2255 C2256 1.358 . S
C2255 C2257 1.356 . S
C2255 H2287 0.930 . S
C2256 N2253 1.279 . S
C2256 C2255 1.358 . S
C2256 H2259 0.930 . S
C2257 C2254 1.348 . S
C2257 C2255 1.356 . S
H2258 C2252 0.930 . S
H2259 C2256 0.930 . S
O2260 Li2200 1.956 . S
O2260 Li2201 1.970 . S
O2260 Li2202 1.961 . S
O2260 C2204 1.325 . S
O2261 Li2200 1.970 . S
O2261 Li2201 1.956 . S
O2261 Li2203 1.961 . S
O2261 C2210 1.325 . S
O2262 Li2200 1.961 . S
O2262 Li2202 1.956 . S
O2262 Li2203 1.970 . S
O2262 C2232 1.325 . S
O2263 Li2201 1.961 . S
O2263 Li2202 1.970 . S
O2263 Li2203 1.956 . S
O2263 C2238 1.325 . S
H2264 C2206 0.929 . S
H2265 C2207 0.930 . S
H2266 C2208 0.930 . S
H2267 C2209 0.930 . S
H2268 C2211 0.930 . S
H2269 C2213 0.929 . S
H2270 C2214 0.930 . S
H2271 C2215 0.930 . S
H2272 C2218 0.930 . S
H2273 C2221 0.929 . S
H2274 C2226 0.929 . S
H2275 C2227 0.930 . S
H2276 C2234 0.929 . S
H2277 C2235 0.930 . S
H2278 C2236 0.930 . S
H2279 C2237 0.930 . S
H2280 C2239 0.929 . S
H2281 C2240 0.930 . S
H2282 C2241 0.930 . S
H2283 C2242 0.930 . S
H2284 C2246 0.929 . S
H2285 C2248 0.930 . S
H2286 C2254 0.929 . S
H2287 C2255 0.930 . S
Li2288 N2305 1.990 . S
Li2288 O2348 1.956 . S
Li2288 O2349 1.970 . S
Li2288 O2350 1.961 . S
Li2289 N2313 1.990 . S
Li2289 O2348 1.970 . S
Li2289 O2349 1.956 . S
Li2289 O2351 1.961 . S
Li2290 N2335 1.990 . S
Li2290 O2348 1.961 . S
Li2290 O2350 1.956 . S
Li2290 O2351 1.970 . S
Li2291 N2341 1.990 . S
Li2291 O2349 1.961 . S
Li2291 O2350 1.970 . S
Li2291 O2351 1.956 . S
C2292 C2294 1.348 . S
C2292 C2295 1.356 . S
C2292 O2348 1.325 . S
N2293 C2296 1.314 . S
N2293 C2297 1.279 . S
C2294 C2292 1.348 . S
C2294 C2296 1.353 . S
C2294 H2352 0.929 . S
C2295 C2292 1.356 . S
C2295 C2297 1.358 . S
C2295 H2353 0.930 . S
C2296 N2293 1.314 . S
C2296 C2294 1.353 . S
C2296 H2354 0.930 . S
C2297 N2293 1.279 . S
C2297 C2295 1.358 . S
C2297 H2355 0.930 . S
C2298 C2301 1.348 . S
C2298 C2302 1.356 . S
C2298 O2349 1.325 . S
C2299 N2300 1.279 . S
C2299 C2302 1.358 . S
C2299 H2356 0.930 . S
N2300 C2299 1.279 . S
N2300 C2303 1.314 . S
C2301 C2298 1.348 . S
C2301 C2303 1.353 . S
C2301 H2357 0.929 . S
C2302 C2298 1.356 . S
C2302 C2299 1.358 . S
C2302 H2358 0.930 . S
C2303 N2300 1.314 . S
C2303 C2301 1.353 . S
C2303 H2359 0.930 . S
C2304 N2305 1.314 . S
C2304 C2309 1.353 . S
C2304 H2310 0.930 . S
N2305 Li2288 1.990 . S
N2305 C2304 1.314 . S
N2305 C2307 1.279 . S
C2306 C2307 1.358 . S
C2306 C2308 1.356 . S
C2306 H2360 0.930 . S
C2307 N2305 1.279 . S
C2307 C2306 1.358 . S
C2307 H2311 0.930 . S
C2308 C2306 1.356 . S
C2308 C2309 1.348 . S
C2309 C2304 1.353 . S
C2309 C2308 1.348 . S
C2309 H2361 0.929 . S
H2310 C2304 0.930 . S
H2311 C2307 0.930 . S
C2312 N2313 1.314 . S
C2312 C2314 1.353 . S
C2312 H2318 0.930 . S
N2313 Li2289 1.990 . S
N2313 C2312 1.314 . S
N2313 C2316 1.279 . S
C2314 C2312 1.353 . S
C2314 C2317 1.348 . S
C2314 H2362 0.929 . S
C2315 C2316 1.358 . S
C2315 C2317 1.356 . S
C2315 H2363 0.930 . S
C2316 N2313 1.279 . S
C2316 C2315 1.358 . S
C2316 H2319 0.930 . S
C2317 C2314 1.348 . S
C2317 C2315 1.356 . S
H2318 C2312 0.930 . S
H2319 C2316 0.930 . S
C2320 C2322 1.348 . S
C2320 C2323 1.356 . S
C2320 O2350 1.325 . S
N2321 C2324 1.314 . S
N2321 C2325 1.279 . S
C2322 C2320 1.348 . S
C2322 C2324 1.353 . S
C2322 H2364 0.929 . S
C2323 C2320 1.356 . S
C2323 C2325 1.358 . S
C2323 H2365 0.930 . S
C2324 N2321 1.314 . S
C2324 C2322 1.353 . S
C2324 H2366 0.930 . S
C2325 N2321 1.279 . S
C2325 C2323 1.358 . S
C2325 H2367 0.930 . S
C2326 C2327 1.348 . S
C2326 C2328 1.356 . S
C2326 O2351 1.325 . S
C2327 C2326 1.348 . S
C2327 C2329 1.353 . S
C2327 H2368 0.929 . S
C2328 C2326 1.356 . S
C2328 C2330 1.358 . S
C2328 H2369 0.930 . S
C2329 C2327 1.353 . S
C2329 N2331 1.314 . S
C2329 H2370 0.930 . S
C2330 C2328 1.358 . S
C2330 N2331 1.279 . S
C2330 H2371 0.930 . S
N2331 C2329 1.314 . S
N2331 C2330 1.279 . S
C2332 C2334 1.353 . S
C2332 N2335 1.314 . S
C2332 H2338 0.930 . S
C2333 N2335 1.279 . S
C2333 C2336 1.358 . S
C2333 H2339 0.930 . S
C2334 C2332 1.353 . S
C2334 C2337 1.348 . S
C2334 H2372 0.929 . S
N2335 Li2290 1.990 . S
N2335 C2332 1.314 . S
N2335 C2333 1.279 . S
C2336 C2333 1.358 . S
C2336 C2337 1.356 . S
C2336 H2373 0.930 . S
C2337 C2334 1.348 . S
C2337 C2336 1.356 . S
H2338 C2332 0.930 . S
H2339 C2333 0.930 . S
C2340 N2341 1.314 . S
C2340 C2342 1.353 . S
C2340 H2346 0.930 . S
N2341 Li2291 1.990 . S
N2341 C2340 1.314 . S
N2341 C2344 1.279 . S
C2342 C2340 1.353 . S
C2342 C2345 1.348 . S
C2342 H2374 0.929 . S
C2343 C2344 1.358 . S
C2343 C2345 1.356 . S
C2343 H2375 0.930 . S
C2344 N2341 1.279 . S
C2344 C2343 1.358 . S
C2344 H2347 0.930 . S
C2345 C2342 1.348 . S
C2345 C2343 1.356 . S
H2346 C2340 0.930 . S
H2347 C2344 0.930 . S
O2348 Li2288 1.956 . S
O2348 Li2289 1.970 . S
O2348 Li2290 1.961 . S
O2348 C2292 1.325 . S
O2349 Li2288 1.970 . S
O2349 Li2289 1.956 . S
O2349 Li2291 1.961 . S
O2349 C2298 1.325 . S
O2350 Li2288 1.961 . S
O2350 Li2290 1.956 . S
O2350 Li2291 1.970 . S
O2350 C2320 1.325 . S
O2351 Li2289 1.961 . S
O2351 Li2290 1.970 . S
O2351 Li2291 1.956 . S
O2351 C2326 1.325 . S
H2352 C2294 0.929 . S
H2353 C2295 0.930 . S
H2354 C2296 0.930 . S
H2355 C2297 0.930 . S
H2356 C2299 0.930 . S
H2357 C2301 0.929 . S
H2358 C2302 0.930 . S
H2359 C2303 0.930 . S
H2360 C2306 0.930 . S
H2361 C2309 0.929 . S
H2362 C2314 0.929 . S
H2363 C2315 0.930 . S
H2364 C2322 0.929 . S
H2365 C2323 0.930 . S
H2366 C2324 0.930 . S
H2367 C2325 0.930 . S
H2368 C2327 0.929 . S
H2369 C2328 0.930 . S
H2370 C2329 0.930 . S
H2371 C2330 0.930 . S
H2372 C2334 0.929 . S
H2373 C2336 0.930 . S
H2374 C2342 0.929 . S
H2375 C2343 0.930 . S
Li2376 N2393 1.990 . S
Li2376 O2436 1.956 . S
Li2376 O2437 1.970 . S
Li2376 O2438 1.961 . S
Li2377 N2401 1.990 . S
Li2377 O2436 1.970 . S
Li2377 O2437 1.956 . S
Li2377 O2439 1.961 . S
Li2378 N2423 1.990 . S
Li2378 O2436 1.961 . S
Li2378 O2438 1.956 . S
Li2378 O2439 1.970 . S
Li2379 N2429 1.990 . S
Li2379 O2437 1.961 . S
Li2379 O2438 1.970 . S
Li2379 O2439 1.956 . S
C2380 C2382 1.348 . S
C2380 C2383 1.356 . S
C2380 O2436 1.325 . S
N2381 C2384 1.314 . S
N2381 C2385 1.279 . S
C2382 C2380 1.348 . S
C2382 C2384 1.353 . S
C2382 H2440 0.929 . S
C2383 C2380 1.356 . S
C2383 C2385 1.358 . S
C2383 H2441 0.930 . S
C2384 N2381 1.314 . S
C2384 C2382 1.353 . S
C2384 H2442 0.930 . S
C2385 N2381 1.279 . S
C2385 C2383 1.358 . S
C2385 H2443 0.930 . S
C2386 C2389 1.348 . S
C2386 C2390 1.356 . S
C2386 O2437 1.325 . S
C2387 N2388 1.279 . S
C2387 C2390 1.358 . S
C2387 H2444 0.930 . S
N2388 C2387 1.279 . S
N2388 C2391 1.314 . S
C2389 C2386 1.348 . S
C2389 C2391 1.353 . S
C2389 H2445 0.929 . S
C2390 C2386 1.356 . S
C2390 C2387 1.358 . S
C2390 H2446 0.930 . S
C2391 N2388 1.314 . S
C2391 C2389 1.353 . S
C2391 H2447 0.930 . S
C2392 N2393 1.314 . S
C2392 C2397 1.353 . S
C2392 H2398 0.930 . S
N2393 Li2376 1.990 . S
N2393 C2392 1.314 . S
N2393 C2395 1.279 . S
C2394 C2395 1.358 . S
C2394 C2396 1.356 . S
C2394 H2448 0.930 . S
C2395 N2393 1.279 . S
C2395 C2394 1.358 . S
C2395 H2399 0.930 . S
C2396 C2394 1.356 . S
C2396 C2397 1.348 . S
C2397 C2392 1.353 . S
C2397 C2396 1.348 . S
C2397 H2449 0.929 . S
H2398 C2392 0.930 . S
H2399 C2395 0.930 . S
C2400 N2401 1.314 . S
C2400 C2402 1.353 . S
C2400 H2406 0.930 . S
N2401 Li2377 1.990 . S
N2401 C2400 1.314 . S
N2401 C2404 1.279 . S
C2402 C2400 1.353 . S
C2402 C2405 1.348 . S
C2402 H2450 0.929 . S
C2403 C2404 1.358 . S
C2403 C2405 1.356 . S
C2403 H2451 0.930 . S
C2404 N2401 1.279 . S
C2404 C2403 1.358 . S
C2404 H2407 0.930 . S
C2405 C2402 1.348 . S
C2405 C2403 1.356 . S
H2406 C2400 0.930 . S
H2407 C2404 0.930 . S
C2408 C2410 1.348 . S
C2408 C2411 1.356 . S
C2408 O2438 1.325 . S
N2409 C2412 1.314 . S
N2409 C2413 1.279 . S
C2410 C2408 1.348 . S
C2410 C2412 1.353 . S
C2410 H2452 0.929 . S
C2411 C2408 1.356 . S
C2411 C2413 1.358 . S
C2411 H2453 0.930 . S
C2412 N2409 1.314 . S
C2412 C2410 1.353 . S
C2412 H2454 0.930 . S
C2413 N2409 1.279 . S
C2413 C2411 1.358 . S
C2413 H2455 0.930 . S
C2414 C2415 1.348 . S
C2414 C2416 1.356 . S
C2414 O2439 1.325 . S
C2415 C2414 1.348 . S
C2415 C2417 1.353 . S
C2415 H2456 0.929 . S
C2416 C2414 1.356 . S
C2416 C2418 1.358 . S
C2416 H2457 0.930 . S
C2417 C2415 1.353 . S
C2417 N2419 1.314 . S
C2417 H2458 0.930 . S
C2418 C2416 1.358 . S
C2418 N2419 1.279 . S
C2418 H2459 0.930 . S
N2419 C2417 1.314 . S
N2419 C2418 1.279 . S
C2420 C2422 1.353 . S
C2420 N2423 1.314 . S
C2420 H2426 0.930 . S
C2421 N2423 1.279 . S
C2421 C2424 1.358 . S
C2421 H2427 0.930 . S
C2422 C2420 1.353 . S
C2422 C2425 1.348 . S
C2422 H2460 0.929 . S
N2423 Li2378 1.990 . S
N2423 C2420 1.314 . S
N2423 C2421 1.279 . S
C2424 C2421 1.358 . S
C2424 C2425 1.356 . S
C2424 H2461 0.930 . S
C2425 C2422 1.348 . S
C2425 C2424 1.356 . S
H2426 C2420 0.930 . S
H2427 C2421 0.930 . S
C2428 N2429 1.314 . S
C2428 C2430 1.353 . S
C2428 H2434 0.930 . S
N2429 Li2379 1.990 . S
N2429 C2428 1.314 . S
N2429 C2432 1.279 . S
C2430 C2428 1.353 . S
C2430 C2433 1.348 . S
C2430 H2462 0.929 . S
C2431 C2432 1.358 . S
C2431 C2433 1.356 . S
C2431 H2463 0.930 . S
C2432 N2429 1.279 . S
C2432 C2431 1.358 . S
C2432 H2435 0.930 . S
C2433 C2430 1.348 . S
C2433 C2431 1.356 . S
H2434 C2428 0.930 . S
H2435 C2432 0.930 . S
O2436 Li2376 1.956 . S
O2436 Li2377 1.970 . S
O2436 Li2378 1.961 . S
O2436 C2380 1.325 . S
O2437 Li2376 1.970 . S
O2437 Li2377 1.956 . S
O2437 Li2379 1.961 . S
O2437 C2386 1.325 . S
O2438 Li2376 1.961 . S
O2438 Li2378 1.956 . S
O2438 Li2379 1.970 . S
O2438 C2408 1.325 . S
O2439 Li2377 1.961 . S
O2439 Li2378 1.970 . S
O2439 Li2379 1.956 . S
O2439 C2414 1.325 . S
H2440 C2382 0.929 . S
H2441 C2383 0.930 . S
H2442 C2384 0.930 . S
H2443 C2385 0.930 . S
H2444 C2387 0.930 . S
H2445 C2389 0.929 . S
H2446 C2390 0.930 . S
H2447 C2391 0.930 . S
H2448 C2394 0.930 . S
H2449 C2397 0.929 . S
H2450 C2402 0.929 . S
H2451 C2403 0.930 . S
H2452 C2410 0.929 . S
H2453 C2411 0.930 . S
H2454 C2412 0.930 . S
H2455 C2413 0.930 . S
H2456 C2415 0.929 . S
H2457 C2416 0.930 . S
H2458 C2417 0.930 . S
H2459 C2418 0.930 . S
H2460 C2422 0.929 . S
H2461 C2424 0.930 . S
H2462 C2430 0.929 . S
H2463 C2431 0.930 . S
Li2464 N2481 1.990 . S
Li2464 O2524 1.956 . S
Li2464 O2525 1.970 . S
Li2464 O2526 1.961 . S
Li2465 N2489 1.990 . S
Li2465 O2524 1.970 . S
Li2465 O2525 1.956 . S
Li2465 O2527 1.961 . S
Li2466 N2511 1.990 . S
Li2466 O2524 1.961 . S
Li2466 O2526 1.956 . S
Li2466 O2527 1.970 . S
Li2467 N2517 1.990 . S
Li2467 O2525 1.961 . S
Li2467 O2526 1.970 . S
Li2467 O2527 1.956 . S
C2468 C2470 1.348 . S
C2468 C2471 1.356 . S
C2468 O2524 1.325 . S
N2469 C2472 1.314 . S
N2469 C2473 1.279 . S
C2470 C2468 1.348 . S
C2470 C2472 1.353 . S
C2470 H2528 0.929 . S
C2471 C2468 1.356 . S
C2471 C2473 1.358 . S
C2471 H2529 0.930 . S
C2472 N2469 1.314 . S
C2472 C2470 1.353 . S
C2472 H2530 0.930 . S
C2473 N2469 1.279 . S
C2473 C2471 1.358 . S
C2473 H2531 0.930 . S
C2474 C2477 1.348 . S
C2474 C2478 1.356 . S
C2474 O2525 1.325 . S
C2475 N2476 1.279 . S
C2475 C2478 1.358 . S
C2475 H2532 0.930 . S
N2476 C2475 1.279 . S
N2476 C2479 1.314 . S
C2477 C2474 1.348 . S
C2477 C2479 1.353 . S
C2477 H2533 0.929 . S
C2478 C2474 1.356 . S
C2478 C2475 1.358 . S
C2478 H2534 0.930 . S
C2479 N2476 1.314 . S
C2479 C2477 1.353 . S
C2479 H2535 0.930 . S
C2480 N2481 1.314 . S
C2480 C2485 1.353 . S
C2480 H2486 0.930 . S
N2481 Li2464 1.990 . S
N2481 C2480 1.314 . S
N2481 C2483 1.279 . S
C2482 C2483 1.358 . S
C2482 C2484 1.356 . S
C2482 H2536 0.930 . S
C2483 N2481 1.279 . S
C2483 C2482 1.358 . S
C2483 H2487 0.930 . S
C2484 C2482 1.356 . S
C2484 C2485 1.348 . S
C2485 C2480 1.353 . S
C2485 C2484 1.348 . S
C2485 H2537 0.929 . S
H2486 C2480 0.930 . S
H2487 C2483 0.930 . S
C2488 N2489 1.314 . S
C2488 C2490 1.353 . S
C2488 H2494 0.930 . S
N2489 Li2465 1.990 . S
N2489 C2488 1.314 . S
N2489 C2492 1.279 . S
C2490 C2488 1.353 . S
C2490 C2493 1.348 . S
C2490 H2538 0.929 . S
C2491 C2492 1.358 . S
C2491 C2493 1.356 . S
C2491 H2539 0.930 . S
C2492 N2489 1.279 . S
C2492 C2491 1.358 . S
C2492 H2495 0.930 . S
C2493 C2490 1.348 . S
C2493 C2491 1.356 . S
H2494 C2488 0.930 . S
H2495 C2492 0.930 . S
C2496 C2498 1.348 . S
C2496 C2499 1.356 . S
C2496 O2526 1.325 . S
N2497 C2500 1.314 . S
N2497 C2501 1.279 . S
C2498 C2496 1.348 . S
C2498 C2500 1.353 . S
C2498 H2540 0.929 . S
C2499 C2496 1.356 . S
C2499 C2501 1.358 . S
C2499 H2541 0.930 . S
C2500 N2497 1.314 . S
C2500 C2498 1.353 . S
C2500 H2542 0.930 . S
C2501 N2497 1.279 . S
C2501 C2499 1.358 . S
C2501 H2543 0.930 . S
C2502 C2503 1.348 . S
C2502 C2504 1.356 . S
C2502 O2527 1.325 . S
C2503 C2502 1.348 . S
C2503 C2505 1.353 . S
C2503 H2544 0.929 . S
C2504 C2502 1.356 . S
C2504 C2506 1.358 . S
C2504 H2545 0.930 . S
C2505 C2503 1.353 . S
C2505 N2507 1.314 . S
C2505 H2546 0.930 . S
C2506 C2504 1.358 . S
C2506 N2507 1.279 . S
C2506 H2547 0.930 . S
N2507 C2505 1.314 . S
N2507 C2506 1.279 . S
C2508 C2510 1.353 . S
C2508 N2511 1.314 . S
C2508 H2514 0.930 . S
C2509 N2511 1.279 . S
C2509 C2512 1.358 . S
C2509 H2515 0.930 . S
C2510 C2508 1.353 . S
C2510 C2513 1.348 . S
C2510 H2548 0.929 . S
N2511 Li2466 1.990 . S
N2511 C2508 1.314 . S
N2511 C2509 1.279 . S
C2512 C2509 1.358 . S
C2512 C2513 1.356 . S
C2512 H2549 0.930 . S
C2513 C2510 1.348 . S
C2513 C2512 1.356 . S
H2514 C2508 0.930 . S
H2515 C2509 0.930 . S
C2516 N2517 1.314 . S
C2516 C2518 1.353 . S
C2516 H2522 0.930 . S
N2517 Li2467 1.990 . S
N2517 C2516 1.314 . S
N2517 C2520 1.279 . S
C2518 C2516 1.353 . S
C2518 C2521 1.348 . S
C2518 H2550 0.929 . S
C2519 C2520 1.358 . S
C2519 C2521 1.356 . S
C2519 H2551 0.930 . S
C2520 N2517 1.279 . S
C2520 C2519 1.358 . S
C2520 H2523 0.930 . S
C2521 C2518 1.348 . S
C2521 C2519 1.356 . S
H2522 C2516 0.930 . S
H2523 C2520 0.930 . S
O2524 Li2464 1.956 . S
O2524 Li2465 1.970 . S
O2524 Li2466 1.961 . S
O2524 C2468 1.325 . S
O2525 Li2464 1.970 . S
O2525 Li2465 1.956 . S
O2525 Li2467 1.961 . S
O2525 C2474 1.325 . S
O2526 Li2464 1.961 . S
O2526 Li2466 1.956 . S
O2526 Li2467 1.970 . S
O2526 C2496 1.325 . S
O2527 Li2465 1.961 . S
O2527 Li2466 1.970 . S
O2527 Li2467 1.956 . S
O2527 C2502 1.325 . S
H2528 C2470 0.929 . S
H2529 C2471 0.930 . S
H2530 C2472 0.930 . S
H2531 C2473 0.930 . S
H2532 C2475 0.930 . S
H2533 C2477 0.929 . S
H2534 C2478 0.930 . S
H2535 C2479 0.930 . S
H2536 C2482 0.930 . S
H2537 C2485 0.929 . S
H2538 C2490 0.929 . S
H2539 C2491 0.930 . S
H2540 C2498 0.929 . S
H2541 C2499 0.930 . S
H2542 C2500 0.930 . S
H2543 C2501 0.930 . S
H2544 C2503 0.929 . S
H2545 C2504 0.930 . S
H2546 C2505 0.930 . S
H2547 C2506 0.930 . S
H2548 C2510 0.929 . S
H2549 C2512 0.930 . S
H2550 C2518 0.929 . S
H2551 C2519 0.930 . S
Li2552 N2569 1.990 . S
Li2552 O2612 1.956 . S
Li2552 O2613 1.970 . S
Li2552 O2614 1.961 . S
Li2553 N2577 1.990 . S
Li2553 O2612 1.970 . S
Li2553 O2613 1.956 . S
Li2553 O2615 1.961 . S
Li2554 N2599 1.990 . S
Li2554 O2612 1.961 . S
Li2554 O2614 1.956 . S
Li2554 O2615 1.970 . S
Li2555 N2605 1.990 . S
Li2555 O2613 1.961 . S
Li2555 O2614 1.970 . S
Li2555 O2615 1.956 . S
C2556 C2558 1.348 . S
C2556 C2559 1.356 . S
C2556 O2612 1.325 . S
N2557 C2560 1.314 . S
N2557 C2561 1.279 . S
C2558 C2556 1.348 . S
C2558 C2560 1.353 . S
C2558 H2616 0.929 . S
C2559 C2556 1.356 . S
C2559 C2561 1.358 . S
C2559 H2617 0.930 . S
C2560 N2557 1.314 . S
C2560 C2558 1.353 . S
C2560 H2618 0.930 . S
C2561 N2557 1.279 . S
C2561 C2559 1.358 . S
C2561 H2619 0.930 . S
C2562 C2565 1.348 . S
C2562 C2566 1.356 . S
C2562 O2613 1.325 . S
C2563 N2564 1.279 . S
C2563 C2566 1.358 . S
C2563 H2620 0.930 . S
N2564 C2563 1.279 . S
N2564 C2567 1.314 . S
C2565 C2562 1.348 . S
C2565 C2567 1.353 . S
C2565 H2621 0.929 . S
C2566 C2562 1.356 . S
C2566 C2563 1.358 . S
C2566 H2622 0.930 . S
C2567 N2564 1.314 . S
C2567 C2565 1.353 . S
C2567 H2623 0.930 . S
C2568 N2569 1.314 . S
C2568 C2573 1.353 . S
C2568 H2574 0.930 . S
N2569 Li2552 1.990 . S
N2569 C2568 1.314 . S
N2569 C2571 1.279 . S
C2570 C2571 1.358 . S
C2570 C2572 1.356 . S
C2570 H2624 0.930 . S
C2571 N2569 1.279 . S
C2571 C2570 1.358 . S
C2571 H2575 0.930 . S
C2572 C2570 1.356 . S
C2572 C2573 1.348 . S
C2573 C2568 1.353 . S
C2573 C2572 1.348 . S
C2573 H2625 0.929 . S
H2574 C2568 0.930 . S
H2575 C2571 0.930 . S
C2576 N2577 1.314 . S
C2576 C2578 1.353 . S
C2576 H2582 0.930 . S
N2577 Li2553 1.990 . S
N2577 C2576 1.314 . S
N2577 C2580 1.279 . S
C2578 C2576 1.353 . S
C2578 C2581 1.348 . S
C2578 H2626 0.929 . S
C2579 C2580 1.358 . S
C2579 C2581 1.356 . S
C2579 H2627 0.930 . S
C2580 N2577 1.279 . S
C2580 C2579 1.358 . S
C2580 H2583 0.930 . S
C2581 C2578 1.348 . S
C2581 C2579 1.356 . S
H2582 C2576 0.930 . S
H2583 C2580 0.930 . S
C2584 C2586 1.348 . S
C2584 C2587 1.356 . S
C2584 O2614 1.325 . S
N2585 C2588 1.314 . S
N2585 C2589 1.279 . S
C2586 C2584 1.348 . S
C2586 C2588 1.353 . S
C2586 H2628 0.929 . S
C2587 C2584 1.356 . S
C2587 C2589 1.358 . S
C2587 H2629 0.930 . S
C2588 N2585 1.314 . S
C2588 C2586 1.353 . S
C2588 H2630 0.930 . S
C2589 N2585 1.279 . S
C2589 C2587 1.358 . S
C2589 H2631 0.930 . S
C2590 C2591 1.348 . S
C2590 C2592 1.356 . S
C2590 O2615 1.325 . S
C2591 C2590 1.348 . S
C2591 C2593 1.353 . S
C2591 H2632 0.929 . S
C2592 C2590 1.356 . S
C2592 C2594 1.358 . S
C2592 H2633 0.930 . S
C2593 C2591 1.353 . S
C2593 N2595 1.314 . S
C2593 H2634 0.930 . S
C2594 C2592 1.358 . S
C2594 N2595 1.279 . S
C2594 H2635 0.930 . S
N2595 C2593 1.314 . S
N2595 C2594 1.279 . S
C2596 C2598 1.353 . S
C2596 N2599 1.314 . S
C2596 H2602 0.930 . S
C2597 N2599 1.279 . S
C2597 C2600 1.358 . S
C2597 H2603 0.930 . S
C2598 C2596 1.353 . S
C2598 C2601 1.348 . S
C2598 H2636 0.929 . S
N2599 Li2554 1.990 . S
N2599 C2596 1.314 . S
N2599 C2597 1.279 . S
C2600 C2597 1.358 . S
C2600 C2601 1.356 . S
C2600 H2637 0.930 . S
C2601 C2598 1.348 . S
C2601 C2600 1.356 . S
H2602 C2596 0.930 . S
H2603 C2597 0.930 . S
C2604 N2605 1.314 . S
C2604 C2606 1.353 . S
C2604 H2610 0.930 . S
N2605 Li2555 1.990 . S
N2605 C2604 1.314 . S
N2605 C2608 1.279 . S
C2606 C2604 1.353 . S
C2606 C2609 1.348 . S
C2606 H2638 0.929 . S
C2607 C2608 1.358 . S
C2607 C2609 1.356 . S
C2607 H2639 0.930 . S
C2608 N2605 1.279 . S
C2608 C2607 1.358 . S
C2608 H2611 0.930 . S
C2609 C2606 1.348 . S
C2609 C2607 1.356 . S
H2610 C2604 0.930 . S
H2611 C2608 0.930 . S
O2612 Li2552 1.956 . S
O2612 Li2553 1.970 . S
O2612 Li2554 1.961 . S
O2612 C2556 1.325 . S
O2613 Li2552 1.970 . S
O2613 Li2553 1.956 . S
O2613 Li2555 1.961 . S
O2613 C2562 1.325 . S
O2614 Li2552 1.961 . S
O2614 Li2554 1.956 . S
O2614 Li2555 1.970 . S
O2614 C2584 1.325 . S
O2615 Li2553 1.961 . S
O2615 Li2554 1.970 . S
O2615 Li2555 1.956 . S
O2615 C2590 1.325 . S
H2616 C2558 0.929 . S
H2617 C2559 0.930 . S
H2618 C2560 0.930 . S
H2619 C2561 0.930 . S
H2620 C2563 0.930 . S
H2621 C2565 0.929 . S
H2622 C2566 0.930 . S
H2623 C2567 0.930 . S
H2624 C2570 0.930 . S
H2625 C2573 0.929 . S
H2626 C2578 0.929 . S
H2627 C2579 0.930 . S
H2628 C2586 0.929 . S
H2629 C2587 0.930 . S
H2630 C2588 0.930 . S
H2631 C2589 0.930 . S
H2632 C2591 0.929 . S
H2633 C2592 0.930 . S
H2634 C2593 0.930 . S
H2635 C2594 0.930 . S
H2636 C2598 0.929 . S
H2637 C2600 0.930 . S
H2638 C2606 0.929 . S
H2639 C2607 0.930 . S
Li2640 N2657 1.990 . S
Li2640 O2700 1.956 . S
Li2640 O2701 1.970 . S
Li2640 O2702 1.961 . S
Li2641 N2665 1.990 . S
Li2641 O2700 1.970 . S
Li2641 O2701 1.956 . S
Li2641 O2703 1.961 . S
Li2642 N2687 1.990 . S
Li2642 O2700 1.961 . S
Li2642 O2702 1.956 . S
Li2642 O2703 1.970 . S
Li2643 N2693 1.990 . S
Li2643 O2701 1.961 . S
Li2643 O2702 1.970 . S
Li2643 O2703 1.956 . S
C2644 C2646 1.348 . S
C2644 C2647 1.356 . S
C2644 O2700 1.325 . S
N2645 C2648 1.314 . S
N2645 C2649 1.279 . S
C2646 C2644 1.348 . S
C2646 C2648 1.353 . S
C2646 H2704 0.929 . S
C2647 C2644 1.356 . S
C2647 C2649 1.358 . S
C2647 H2705 0.930 . S
C2648 N2645 1.314 . S
C2648 C2646 1.353 . S
C2648 H2706 0.930 . S
C2649 N2645 1.279 . S
C2649 C2647 1.358 . S
C2649 H2707 0.930 . S
C2650 C2653 1.348 . S
C2650 C2654 1.356 . S
C2650 O2701 1.325 . S
C2651 N2652 1.279 . S
C2651 C2654 1.358 . S
C2651 H2708 0.930 . S
N2652 C2651 1.279 . S
N2652 C2655 1.314 . S
C2653 C2650 1.348 . S
C2653 C2655 1.353 . S
C2653 H2709 0.929 . S
C2654 C2650 1.356 . S
C2654 C2651 1.358 . S
C2654 H2710 0.930 . S
C2655 N2652 1.314 . S
C2655 C2653 1.353 . S
C2655 H2711 0.930 . S
C2656 N2657 1.314 . S
C2656 C2661 1.353 . S
C2656 H2662 0.930 . S
N2657 Li2640 1.990 . S
N2657 C2656 1.314 . S
N2657 C2659 1.279 . S
C2658 C2659 1.358 . S
C2658 C2660 1.356 . S
C2658 H2712 0.930 . S
C2659 N2657 1.279 . S
C2659 C2658 1.358 . S
C2659 H2663 0.930 . S
C2660 C2658 1.356 . S
C2660 C2661 1.348 . S
C2661 C2656 1.353 . S
C2661 C2660 1.348 . S
C2661 H2713 0.929 . S
H2662 C2656 0.930 . S
H2663 C2659 0.930 . S
C2664 N2665 1.314 . S
C2664 C2666 1.353 . S
C2664 H2670 0.930 . S
N2665 Li2641 1.990 . S
N2665 C2664 1.314 . S
N2665 C2668 1.279 . S
C2666 C2664 1.353 . S
C2666 C2669 1.348 . S
C2666 H2714 0.929 . S
C2667 C2668 1.358 . S
C2667 C2669 1.356 . S
C2667 H2715 0.930 . S
C2668 N2665 1.279 . S
C2668 C2667 1.358 . S
C2668 H2671 0.930 . S
C2669 C2666 1.348 . S
C2669 C2667 1.356 . S
H2670 C2664 0.930 . S
H2671 C2668 0.930 . S
C2672 C2674 1.348 . S
C2672 C2675 1.356 . S
C2672 O2702 1.325 . S
N2673 C2676 1.314 . S
N2673 C2677 1.279 . S
C2674 C2672 1.348 . S
C2674 C2676 1.353 . S
C2674 H2716 0.929 . S
C2675 C2672 1.356 . S
C2675 C2677 1.358 . S
C2675 H2717 0.930 . S
C2676 N2673 1.314 . S
C2676 C2674 1.353 . S
C2676 H2718 0.930 . S
C2677 N2673 1.279 . S
C2677 C2675 1.358 . S
C2677 H2719 0.930 . S
C2678 C2679 1.348 . S
C2678 C2680 1.356 . S
C2678 O2703 1.325 . S
C2679 C2678 1.348 . S
C2679 C2681 1.353 . S
C2679 H2720 0.929 . S
C2680 C2678 1.356 . S
C2680 C2682 1.358 . S
C2680 H2721 0.930 . S
C2681 C2679 1.353 . S
C2681 N2683 1.314 . S
C2681 H2722 0.930 . S
C2682 C2680 1.358 . S
C2682 N2683 1.279 . S
C2682 H2723 0.930 . S
N2683 C2681 1.314 . S
N2683 C2682 1.279 . S
C2684 C2686 1.353 . S
C2684 N2687 1.314 . S
C2684 H2690 0.930 . S
C2685 N2687 1.279 . S
C2685 C2688 1.358 . S
C2685 H2691 0.930 . S
C2686 C2684 1.353 . S
C2686 C2689 1.348 . S
C2686 H2724 0.929 . S
N2687 Li2642 1.990 . S
N2687 C2684 1.314 . S
N2687 C2685 1.279 . S
C2688 C2685 1.358 . S
C2688 C2689 1.356 . S
C2688 H2725 0.930 . S
C2689 C2686 1.348 . S
C2689 C2688 1.356 . S
H2690 C2684 0.930 . S
H2691 C2685 0.930 . S
C2692 N2693 1.314 . S
C2692 C2694 1.353 . S
C2692 H2698 0.930 . S
N2693 Li2643 1.990 . S
N2693 C2692 1.314 . S
N2693 C2696 1.279 . S
C2694 C2692 1.353 . S
C2694 C2697 1.348 . S
C2694 H2726 0.929 . S
C2695 C2696 1.358 . S
C2695 C2697 1.356 . S
C2695 H2727 0.930 . S
C2696 N2693 1.279 . S
C2696 C2695 1.358 . S
C2696 H2699 0.930 . S
C2697 C2694 1.348 . S
C2697 C2695 1.356 . S
H2698 C2692 0.930 . S
H2699 C2696 0.930 . S
O2700 Li2640 1.956 . S
O2700 Li2641 1.970 . S
O2700 Li2642 1.961 . S
O2700 C2644 1.325 . S
O2701 Li2640 1.970 . S
O2701 Li2641 1.956 . S
O2701 Li2643 1.961 . S
O2701 C2650 1.325 . S
O2702 Li2640 1.961 . S
O2702 Li2642 1.956 . S
O2702 Li2643 1.970 . S
O2702 C2672 1.325 . S
O2703 Li2641 1.961 . S
O2703 Li2642 1.970 . S
O2703 Li2643 1.956 . S
O2703 C2678 1.325 . S
H2704 C2646 0.929 . S
H2705 C2647 0.930 . S
H2706 C2648 0.930 . S
H2707 C2649 0.930 . S
H2708 C2651 0.930 . S
H2709 C2653 0.929 . S
H2710 C2654 0.930 . S
H2711 C2655 0.930 . S
H2712 C2658 0.930 . S
H2713 C2661 0.929 . S
H2714 C2666 0.929 . S
H2715 C2667 0.930 . S
H2716 C2674 0.929 . S
H2717 C2675 0.930 . S
H2718 C2676 0.930 . S
H2719 C2677 0.930 . S
H2720 C2679 0.929 . S
H2721 C2680 0.930 . S
H2722 C2681 0.930 . S
H2723 C2682 0.930 . S
H2724 C2686 0.929 . S
H2725 C2688 0.930 . S
H2726 C2694 0.929 . S
H2727 C2695 0.930 . S
Li2728 N2745 1.990 . S
Li2728 O2788 1.956 . S
Li2728 O2789 1.970 . S
Li2728 O2790 1.961 . S
Li2729 N2753 1.990 . S
Li2729 O2788 1.970 . S
Li2729 O2789 1.956 . S
Li2729 O2791 1.961 . S
Li2730 N2775 1.990 . S
Li2730 O2788 1.961 . S
Li2730 O2790 1.956 . S
Li2730 O2791 1.970 . S
Li2731 N2781 1.990 . S
Li2731 O2789 1.961 . S
Li2731 O2790 1.970 . S
Li2731 O2791 1.956 . S
C2732 C2734 1.348 . S
C2732 C2735 1.356 . S
C2732 O2788 1.325 . S
N2733 C2736 1.314 . S
N2733 C2737 1.279 . S
C2734 C2732 1.348 . S
C2734 C2736 1.353 . S
C2734 H2792 0.929 . S
C2735 C2732 1.356 . S
C2735 C2737 1.358 . S
C2735 H2793 0.930 . S
C2736 N2733 1.314 . S
C2736 C2734 1.353 . S
C2736 H2794 0.930 . S
C2737 N2733 1.279 . S
C2737 C2735 1.358 . S
C2737 H2795 0.930 . S
C2738 C2741 1.348 . S
C2738 C2742 1.356 . S
C2738 O2789 1.325 . S
C2739 N2740 1.279 . S
C2739 C2742 1.358 . S
C2739 H2796 0.930 . S
N2740 C2739 1.279 . S
N2740 C2743 1.314 . S
C2741 C2738 1.348 . S
C2741 C2743 1.353 . S
C2741 H2797 0.929 . S
C2742 C2738 1.356 . S
C2742 C2739 1.358 . S
C2742 H2798 0.930 . S
C2743 N2740 1.314 . S
C2743 C2741 1.353 . S
C2743 H2799 0.930 . S
C2744 N2745 1.314 . S
C2744 C2749 1.353 . S
C2744 H2750 0.930 . S
N2745 Li2728 1.990 . S
N2745 C2744 1.314 . S
N2745 C2747 1.279 . S
C2746 C2747 1.358 . S
C2746 C2748 1.356 . S
C2746 H2800 0.930 . S
C2747 N2745 1.279 . S
C2747 C2746 1.358 . S
C2747 H2751 0.930 . S
C2748 C2746 1.356 . S
C2748 C2749 1.348 . S
C2749 C2744 1.353 . S
C2749 C2748 1.348 . S
C2749 H2801 0.929 . S
H2750 C2744 0.930 . S
H2751 C2747 0.930 . S
C2752 N2753 1.314 . S
C2752 C2754 1.353 . S
C2752 H2758 0.930 . S
N2753 Li2729 1.990 . S
N2753 C2752 1.314 . S
N2753 C2756 1.279 . S
C2754 C2752 1.353 . S
C2754 C2757 1.348 . S
C2754 H2802 0.929 . S
C2755 C2756 1.358 . S
C2755 C2757 1.356 . S
C2755 H2803 0.930 . S
C2756 N2753 1.279 . S
C2756 C2755 1.358 . S
C2756 H2759 0.930 . S
C2757 C2754 1.348 . S
C2757 C2755 1.356 . S
H2758 C2752 0.930 . S
H2759 C2756 0.930 . S
C2760 C2762 1.348 . S
C2760 C2763 1.356 . S
C2760 O2790 1.325 . S
N2761 C2764 1.314 . S
N2761 C2765 1.279 . S
C2762 C2760 1.348 . S
C2762 C2764 1.353 . S
C2762 H2804 0.929 . S
C2763 C2760 1.356 . S
C2763 C2765 1.358 . S
C2763 H2805 0.930 . S
C2764 N2761 1.314 . S
C2764 C2762 1.353 . S
C2764 H2806 0.930 . S
C2765 N2761 1.279 . S
C2765 C2763 1.358 . S
C2765 H2807 0.930 . S
C2766 C2767 1.348 . S
C2766 C2768 1.356 . S
C2766 O2791 1.325 . S
C2767 C2766 1.348 . S
C2767 C2769 1.353 . S
C2767 H2808 0.929 . S
C2768 C2766 1.356 . S
C2768 C2770 1.358 . S
C2768 H2809 0.930 . S
C2769 C2767 1.353 . S
C2769 N2771 1.314 . S
C2769 H2810 0.930 . S
C2770 C2768 1.358 . S
C2770 N2771 1.279 . S
C2770 H2811 0.930 . S
N2771 C2769 1.314 . S
N2771 C2770 1.279 . S
C2772 C2774 1.353 . S
C2772 N2775 1.314 . S
C2772 H2778 0.930 . S
C2773 N2775 1.279 . S
C2773 C2776 1.358 . S
C2773 H2779 0.930 . S
C2774 C2772 1.353 . S
C2774 C2777 1.348 . S
C2774 H2812 0.929 . S
N2775 Li2730 1.990 . S
N2775 C2772 1.314 . S
N2775 C2773 1.279 . S
C2776 C2773 1.358 . S
C2776 C2777 1.356 . S
C2776 H2813 0.930 . S
C2777 C2774 1.348 . S
C2777 C2776 1.356 . S
H2778 C2772 0.930 . S
H2779 C2773 0.930 . S
C2780 N2781 1.314 . S
C2780 C2782 1.353 . S
C2780 H2786 0.930 . S
N2781 Li2731 1.990 . S
N2781 C2780 1.314 . S
N2781 C2784 1.279 . S
C2782 C2780 1.353 . S
C2782 C2785 1.348 . S
C2782 H2814 0.929 . S
C2783 C2784 1.358 . S
C2783 C2785 1.356 . S
C2783 H2815 0.930 . S
C2784 N2781 1.279 . S
C2784 C2783 1.358 . S
C2784 H2787 0.930 . S
C2785 C2782 1.348 . S
C2785 C2783 1.356 . S
H2786 C2780 0.930 . S
H2787 C2784 0.930 . S
O2788 Li2728 1.956 . S
O2788 Li2729 1.970 . S
O2788 Li2730 1.961 . S
O2788 C2732 1.325 . S
O2789 Li2728 1.970 . S
O2789 Li2729 1.956 . S
O2789 Li2731 1.961 . S
O2789 C2738 1.325 . S
O2790 Li2728 1.961 . S
O2790 Li2730 1.956 . S
O2790 Li2731 1.970 . S
O2790 C2760 1.325 . S
O2791 Li2729 1.961 . S
O2791 Li2730 1.970 . S
O2791 Li2731 1.956 . S
O2791 C2766 1.325 . S
H2792 C2734 0.929 . S
H2793 C2735 0.930 . S
H2794 C2736 0.930 . S
H2795 C2737 0.930 . S
H2796 C2739 0.930 . S
H2797 C2741 0.929 . S
H2798 C2742 0.930 . S
H2799 C2743 0.930 . S
H2800 C2746 0.930 . S
H2801 C2749 0.929 . S
H2802 C2754 0.929 . S
H2803 C2755 0.930 . S
H2804 C2762 0.929 . S
H2805 C2763 0.930 . S
H2806 C2764 0.930 . S
H2807 C2765 0.930 . S
H2808 C2767 0.929 . S
H2809 C2768 0.930 . S
H2810 C2769 0.930 . S
H2811 C2770 0.930 . S
H2812 C2774 0.929 . S
H2813 C2776 0.930 . S
H2814 C2782 0.929 . S
H2815 C2783 0.930 . S
C2816 C2817 1.369 . S
C2816 C2818 1.419 . S
C2816 H2820 0.930 . S
C2817 C2816 1.369 . S
C2817 C2826 1.429 . S
C2818 C2816 1.419 . S
C2818 C2819 1.363 . S
C2818 H2821 0.929 . S
C2819 C2818 1.363 . S
C2819 C2825 1.428 . S
H2820 C2816 0.930 . S
H2821 C2818 0.929 . S
S2822 N2823 1.613 . S
S2822 N2824 1.610 . S
N2823 S2822 1.613 . S
N2823 C2826 1.350 . S
N2824 S2822 1.610 . S
N2824 C2825 1.351 . S
C2825 C2819 1.428 . S
C2825 N2824 1.351 . S
C2825 C2826 1.434 . S
C2826 C2817 1.429 . S
C2826 N2823 1.350 . S
C2826 C2825 1.434 . S
C2827 C2828 1.369 . S
C2827 C2829 1.419 . S
C2827 H2831 0.930 . S
C2828 C2827 1.369 . S
C2828 C2837 1.429 . S
C2829 C2827 1.419 . S
C2829 C2830 1.363 . S
C2829 H2832 0.929 . S
C2830 C2829 1.363 . S
C2830 C2836 1.428 . S
H2831 C2827 0.930 . S
H2832 C2829 0.929 . S
S2833 N2834 1.613 . S
S2833 N2835 1.610 . S
N2834 S2833 1.613 . S
N2834 C2837 1.350 . S
N2835 S2833 1.610 . S
N2835 C2836 1.351 . S
C2836 C2830 1.428 . S
C2836 N2835 1.351 . S
C2836 C2837 1.434 . S
C2837 C2828 1.429 . S
C2837 N2834 1.350 . S
C2837 C2836 1.434 . S
C2838 C2839 1.369 . S
C2838 C2840 1.419 . S
C2838 H2842 0.930 . S
C2839 C2838 1.369 . S
C2839 C2848 1.429 . S
C2840 C2838 1.419 . S
C2840 C2841 1.363 . S
C2840 H2843 0.929 . S
C2841 C2840 1.363 . S
C2841 C2847 1.428 . S
H2842 C2838 0.930 . S
H2843 C2840 0.929 . S
S2844 N2845 1.613 . S
S2844 N2846 1.610 . S
N2845 S2844 1.613 . S
N2845 C2848 1.350 . S
N2846 S2844 1.610 . S
N2846 C2847 1.351 . S
C2847 C2841 1.428 . S
C2847 N2846 1.351 . S
C2847 C2848 1.434 . S
C2848 C2839 1.429 . S
C2848 N2845 1.350 . S
C2848 C2847 1.434 . S
C2849 C2850 1.369 . S
C2849 C2851 1.419 . S
C2849 H2853 0.930 . S
C2850 C2849 1.369 . S
C2850 C2859 1.429 . S
C2851 C2849 1.419 . S
C2851 C2852 1.363 . S
C2851 H2854 0.929 . S
C2852 C2851 1.363 . S
C2852 C2858 1.428 . S
H2853 C2849 0.930 . S
H2854 C2851 0.929 . S
S2855 N2856 1.613 . S
S2855 N2857 1.610 . S
N2856 S2855 1.613 . S
N2856 C2859 1.350 . S
N2857 S2855 1.610 . S
N2857 C2858 1.351 . S
C2858 C2852 1.428 . S
C2858 N2857 1.351 . S
C2858 C2859 1.434 . S
C2859 C2850 1.429 . S
C2859 N2856 1.350 . S
C2859 C2858 1.434 . S
C2860 C2861 1.369 . S
C2860 C2862 1.419 . S
C2860 H2864 0.930 . S
C2861 C2860 1.369 . S
C2861 C2870 1.429 . S
C2862 C2860 1.419 . S
C2862 C2863 1.363 . S
C2862 H2865 0.929 . S
C2863 C2862 1.363 . S
C2863 C2869 1.428 . S
H2864 C2860 0.930 . S
H2865 C2862 0.929 . S
S2866 N2867 1.613 . S
S2866 N2868 1.610 . S
N2867 S2866 1.613 . S
N2867 C2870 1.350 . S
N2868 S2866 1.610 . S
N2868 C2869 1.351 . S
C2869 C2863 1.428 . S
C2869 N2868 1.351 . S
C2869 C2870 1.434 . S
C2870 C2861 1.429 . S
C2870 N2867 1.350 . S
C2870 C2869 1.434 . S
C2871 C2872 1.369 . S
C2871 C2873 1.419 . S
C2871 H2875 0.930 . S
C2872 C2871 1.369 . S
C2872 C2881 1.429 . S
C2873 C2871 1.419 . S
C2873 C2874 1.363 . S
C2873 H2876 0.929 . S
C2874 C2873 1.363 . S
C2874 C2880 1.428 . S
H2875 C2871 0.930 . S
H2876 C2873 0.929 . S
S2877 N2878 1.613 . S
S2877 N2879 1.610 . S
N2878 S2877 1.613 . S
N2878 C2881 1.350 . S
N2879 S2877 1.610 . S
N2879 C2880 1.351 . S
C2880 C2874 1.428 . S
C2880 N2879 1.351 . S
C2880 C2881 1.434 . S
C2881 C2872 1.429 . S
C2881 N2878 1.350 . S
C2881 C2880 1.434 . S
C2882 C2883 1.369 . S
C2882 C2884 1.419 . S
C2882 H2886 0.930 . S
C2883 C2882 1.369 . S
C2883 C2892 1.429 . S
C2884 C2882 1.419 . S
C2884 C2885 1.363 . S
C2884 H2887 0.929 . S
C2885 C2884 1.363 . S
C2885 C2891 1.428 . S
H2886 C2882 0.930 . S
H2887 C2884 0.929 . S
S2888 N2889 1.613 . S
S2888 N2890 1.610 . S
N2889 S2888 1.613 . S
N2889 C2892 1.350 . S
N2890 S2888 1.610 . S
N2890 C2891 1.351 . S
C2891 C2885 1.428 . S
C2891 N2890 1.351 . S
C2891 C2892 1.434 . S
C2892 C2883 1.429 . S
C2892 N2889 1.350 . S
C2892 C2891 1.434 . S
C2893 C2894 1.369 . S
C2893 C2895 1.419 . S
C2893 H2897 0.930 . S
C2894 C2893 1.369 . S
C2894 C2903 1.429 . S
C2895 C2893 1.419 . S
C2895 C2896 1.363 . S
C2895 H2898 0.929 . S
C2896 C2895 1.363 . S
C2896 C2902 1.428 . S
H2897 C2893 0.930 . S
H2898 C2895 0.929 . S
S2899 N2900 1.613 . S
S2899 N2901 1.610 . S
N2900 S2899 1.613 . S
N2900 C2903 1.350 . S
N2901 S2899 1.610 . S
N2901 C2902 1.351 . S
C2902 C2896 1.428 . S
C2902 N2901 1.351 . S
C2902 C2903 1.434 . S
C2903 C2894 1.429 . S
C2903 N2900 1.350 . S
C2903 C2902 1.434 . S
C2904 C2905 1.369 . S
C2904 C2906 1.419 . S
C2904 H2908 0.930 . S
C2905 C2904 1.369 . S
C2905 C2914 1.429 . S
C2906 C2904 1.419 . S
C2906 C2907 1.363 . S
C2906 H2909 0.929 . S
C2907 C2906 1.363 . S
C2907 C2913 1.428 . S
H2908 C2904 0.930 . S
H2909 C2906 0.929 . S
S2910 N2911 1.613 . S
S2910 N2912 1.610 . S
N2911 S2910 1.613 . S
N2911 C2914 1.350 . S
N2912 S2910 1.610 . S
N2912 C2913 1.351 . S
C2913 C2907 1.428 . S
C2913 N2912 1.351 . S
C2913 C2914 1.434 . S
C2914 C2905 1.429 . S
C2914 N2911 1.350 . S
C2914 C2913 1.434 . S
C2915 C2916 1.369 . S
C2915 C2917 1.419 . S
C2915 H2919 0.930 . S
C2916 C2915 1.369 . S
C2916 C2925 1.429 . S
C2917 C2915 1.419 . S
C2917 C2918 1.363 . S
C2917 H2920 0.929 . S
C2918 C2917 1.363 . S
C2918 C2924 1.428 . S
H2919 C2915 0.930 . S
H2920 C2917 0.929 . S
S2921 N2922 1.613 . S
S2921 N2923 1.610 . S
N2922 S2921 1.613 . S
N2922 C2925 1.350 . S
N2923 S2921 1.610 . S
N2923 C2924 1.351 . S
C2924 C2918 1.428 . S
C2924 N2923 1.351 . S
C2924 C2925 1.434 . S
C2925 C2916 1.429 . S
C2925 N2922 1.350 . S
C2925 C2924 1.434 . S
C2926 C2927 1.369 . S
C2926 C2928 1.419 . S
C2926 H2930 0.930 . S
C2927 C2926 1.369 . S
C2927 C2936 1.429 . S
C2928 C2926 1.419 . S
C2928 C2929 1.363 . S
C2928 H2931 0.929 . S
C2929 C2928 1.363 . S
C2929 C2935 1.428 . S
H2930 C2926 0.930 . S
H2931 C2928 0.929 . S
S2932 N2933 1.613 . S
S2932 N2934 1.610 . S
N2933 S2932 1.613 . S
N2933 C2936 1.350 . S
N2934 S2932 1.610 . S
N2934 C2935 1.351 . S
C2935 C2929 1.428 . S
C2935 N2934 1.351 . S
C2935 C2936 1.434 . S
C2936 C2927 1.429 . S
C2936 N2933 1.350 . S
C2936 C2935 1.434 . S
C2937 C2938 1.369 . S
C2937 C2939 1.419 . S
C2937 H2941 0.930 . S
C2938 C2937 1.369 . S
C2938 C2947 1.429 . S
C2939 C2937 1.419 . S
C2939 C2940 1.363 . S
C2939 H2942 0.929 . S
C2940 C2939 1.363 . S
C2940 C2946 1.428 . S
H2941 C2937 0.930 . S
H2942 C2939 0.929 . S
S2943 N2944 1.613 . S
S2943 N2945 1.610 . S
N2944 S2943 1.613 . S
N2944 C2947 1.350 . S
N2945 S2943 1.610 . S
N2945 C2946 1.351 . S
C2946 C2940 1.428 . S
C2946 N2945 1.351 . S
C2946 C2947 1.434 . S
C2947 C2938 1.429 . S
C2947 N2944 1.350 . S
C2947 C2946 1.434 . S
C2948 C2949 1.369 . S
C2948 C2950 1.419 . S
C2948 H2952 0.930 . S
C2949 C2948 1.369 . S
C2949 C2958 1.429 . S
C2950 C2948 1.419 . S
C2950 C2951 1.363 . S
C2950 H2953 0.929 . S
C2951 C2950 1.363 . S
C2951 C2957 1.428 . S
H2952 C2948 0.930 . S
H2953 C2950 0.929 . S
S2954 N2955 1.613 . S
S2954 N2956 1.610 . S
N2955 S2954 1.613 . S
N2955 C2958 1.350 . S
N2956 S2954 1.610 . S
N2956 C2957 1.351 . S
C2957 C2951 1.428 . S
C2957 N2956 1.351 . S
C2957 C2958 1.434 . S
C2958 C2949 1.429 . S
C2958 N2955 1.350 . S
C2958 C2957 1.434 . S
C2959 C2960 1.369 . S
C2959 C2961 1.419 . S
C2959 H2963 0.930 . S
C2960 C2959 1.369 . S
C2960 C2969 1.429 . S
C2961 C2959 1.419 . S
C2961 C2962 1.363 . S
C2961 H2964 0.929 . S
C2962 C2961 1.363 . S
C2962 C2968 1.428 . S
H2963 C2959 0.930 . S
H2964 C2961 0.929 . S
S2965 N2966 1.613 . S
S2965 N2967 1.610 . S
N2966 S2965 1.613 . S
N2966 C2969 1.350 . S
N2967 S2965 1.610 . S
N2967 C2968 1.351 . S
C2968 C2962 1.428 . S
C2968 N2967 1.351 . S
C2968 C2969 1.434 . S
C2969 C2960 1.429 . S
C2969 N2966 1.350 . S
C2969 C2968 1.434 . S
C2970 C2971 1.369 . S
C2970 C2972 1.419 . S
C2970 H2974 0.930 . S
C2971 C2970 1.369 . S
C2971 C2980 1.429 . S
C2972 C2970 1.419 . S
C2972 C2973 1.363 . S
C2972 H2975 0.929 . S
C2973 C2972 1.363 . S
C2973 C2979 1.428 . S
H2974 C2970 0.930 . S
H2975 C2972 0.929 . S
S2976 N2977 1.613 . S
S2976 N2978 1.610 . S
N2977 S2976 1.613 . S
N2977 C2980 1.350 . S
N2978 S2976 1.610 . S
N2978 C2979 1.351 . S
C2979 C2973 1.428 . S
C2979 N2978 1.351 . S
C2979 C2980 1.434 . S
C2980 C2971 1.429 . S
C2980 N2977 1.350 . S
C2980 C2979 1.434 . S
C2981 C2982 1.369 . S
C2981 C2983 1.419 . S
C2981 H2985 0.930 . S
C2982 C2981 1.369 . S
C2982 C2991 1.429 . S
C2983 C2981 1.419 . S
C2983 C2984 1.363 . S
C2983 H2986 0.929 . S
C2984 C2983 1.363 . S
C2984 C2990 1.428 . S
H2985 C2981 0.930 . S
H2986 C2983 0.929 . S
S2987 N2988 1.613 . S
S2987 N2989 1.610 . S
N2988 S2987 1.613 . S
N2988 C2991 1.350 . S
N2989 S2987 1.610 . S
N2989 C2990 1.351 . S
C2990 C2984 1.428 . S
C2990 N2989 1.351 . S
C2990 C2991 1.434 . S
C2991 C2982 1.429 . S
C2991 N2988 1.350 . S
C2991 C2990 1.434 . S
C2992 C2993 1.357 1_655 S
C2992 C2994 1.419 . S
C2992 H2996 0.930 . S
C2993 C2992 1.357 1_455 S
C2993 C3002 1.439 . S
C2994 C2992 1.419 . S
C2994 C2995 1.376 . S
C2994 H2997 0.929 . S
C2995 C2994 1.376 . S
C2995 C3001 1.416 1_655 S
H2996 C2992 0.930 . S
H2997 C2994 0.929 . S
S2998 N2999 1.613 . S
S2998 N3000 1.610 . S
N2999 S2998 1.613 . S
N2999 C3002 1.350 . S
N3000 S2998 1.610 . S
N3000 C3001 1.351 . S
C3001 C2995 1.416 1_455 S
C3001 N3000 1.351 . S
C3001 C3002 1.434 . S
C3002 C2993 1.439 . S
C3002 N2999 1.350 . S
C3002 C3001 1.434 . S
C3003 C3004 1.369 . S
C3003 C3005 1.419 1_545 S
C3003 H3007 0.930 . S
C3004 C3003 1.369 . S
C3004 C3013 1.429 . S
C3005 C3003 1.419 1_565 S
C3005 C3006 1.363 . S
C3005 H3008 0.929 . S
C3006 C3005 1.363 . S
C3006 C3012 1.428 . S
H3007 C3003 0.930 . S
H3008 C3005 0.929 . S
S3009 N3010 1.613 . S
S3009 N3011 1.610 1_545 S
N3010 S3009 1.613 . S
N3010 C3013 1.350 . S
N3011 S3009 1.610 1_565 S
N3011 C3012 1.351 . S
C3012 C3006 1.428 . S
C3012 N3011 1.351 . S
C3012 C3013 1.434 1_565 S
C3013 C3004 1.429 . S
C3013 N3010 1.350 . S
C3013 C3012 1.434 1_545 S
C3014 C3015 1.326 1_655 S
C3014 C3016 1.419 1_545 S
C3014 H3018 0.930 . S
C3015 C3014 1.326 1_455 S
C3015 C3024 1.472 1_556 S
C3016 C3014 1.419 1_565 S
C3016 C3017 1.388 1_556 S
C3016 H3019 0.929 . S
C3017 C3016 1.388 1_554 S
C3017 C3023 1.401 1_655 S
H3018 C3014 0.930 . S
H3019 C3016 0.929 . S
S3020 N3021 1.613 . S
S3020 N3022 1.610 1_545 S
N3021 S3020 1.613 . S
N3021 C3024 1.350 . S
N3022 S3020 1.610 1_565 S
N3022 C3023 1.351 . S
C3023 C3017 1.401 1_455 S
C3023 N3022 1.351 . S
C3023 C3024 1.434 1_565 S
C3024 C3015 1.472 1_554 S
C3024 N3021 1.350 . S
C3024 C3023 1.434 1_545 S
C3025 C3026 1.369 1_554 S
C3025 C3027 1.419 . S
C3025 H3029 0.930 . S
C3026 C3025 1.369 1_556 S
C3026 C3035 1.429 . S
C3027 C3025 1.419 . S
C3027 C3028 1.363 . S
C3027 H3030 0.929 . S
C3028 C3027 1.363 . S
C3028 C3034 1.428 1_554 S
H3029 C3025 0.930 . S
H3030 C3027 0.929 . S
S3031 N3032 1.613 . S
S3031 N3033 1.610 . S
N3032 S3031 1.613 . S
N3032 C3035 1.350 . S
N3033 S3031 1.610 . S
N3033 C3034 1.351 . S
C3034 C3028 1.428 1_556 S
C3034 N3033 1.351 . S
C3034 C3035 1.434 . S
C3035 C3026 1.429 . S
C3035 N3032 1.350 . S
C3035 C3034 1.434 . S
C3036 C3037 1.355 1_455 S
C3036 C3038 1.419 . S
C3036 H3040 0.930 . S
C3037 C3036 1.355 1_655 S
C3037 C3046 1.442 . S
C3038 C3036 1.419 . S
C3038 C3039 1.377 . S
C3038 H3041 0.929 . S
C3039 C3038 1.377 . S
C3039 C3045 1.414 1_455 S
H3040 C3036 0.930 . S
H3041 C3038 0.929 . S
S3042 N3043 1.613 . S
S3042 N3044 1.610 . S
N3043 S3042 1.613 . S
N3043 C3046 1.350 . S
N3044 S3042 1.610 . S
N3044 C3045 1.351 . S
C3045 C3039 1.414 1_655 S
C3045 N3044 1.351 . S
C3045 C3046 1.434 . S
C3046 C3037 1.442 . S
C3046 N3043 1.350 . S
C3046 C3045 1.434 . S
C3047 C3048 1.369 . S
C3047 C3049 1.419 1_545 S
C3047 H3051 0.930 . S
C3048 C3047 1.369 . S
C3048 C3057 1.429 . S
C3049 C3047 1.419 1_565 S
C3049 C3050 1.363 . S
C3049 H3052 0.929 . S
C3050 C3049 1.363 . S
C3050 C3056 1.428 . S
H3051 C3047 0.930 . S
H3052 C3049 0.929 . S
S3053 N3054 1.613 . S
S3053 N3055 1.610 . S
N3054 S3053 1.613 . S
N3054 C3057 1.350 . S
N3055 S3053 1.610 . S
N3055 C3056 1.351 1_545 S
C3056 C3050 1.428 . S
C3056 N3055 1.351 1_565 S
C3056 C3057 1.434 1_565 S
C3057 C3048 1.429 . S
C3057 N3054 1.350 . S
C3057 C3056 1.434 1_545 S
C3058 C3059 1.369 . S
C3058 C3060 1.419 . S
C3058 H3062 0.930 . S
C3059 C3058 1.369 . S
C3059 C3068 1.429 1_556 S
C3060 C3058 1.419 . S
C3060 C3061 1.363 1_556 S
C3060 H3063 0.929 . S
C3061 C3060 1.363 1_554 S
C3061 C3067 1.428 . S
H3062 C3058 0.930 . S
H3063 C3060 0.929 . S
S3064 N3065 1.613 . S
S3064 N3066 1.610 . S
N3065 S3064 1.613 . S
N3065 C3068 1.350 . S
N3066 S3064 1.610 . S
N3066 C3067 1.351 . S
C3067 C3061 1.428 . S
C3067 N3066 1.351 . S
C3067 C3068 1.434 . S
C3068 C3059 1.429 1_554 S
C3068 N3065 1.350 . S
C3068 C3067 1.434 . S
C3069 C3070 1.369 . S
C3069 C3071 1.419 . S
C3069 H3073 0.930 . S
C3070 C3069 1.369 . S
C3070 C3079 1.429 . S
C3071 C3069 1.419 . S
C3071 C3072 1.363 . S
C3071 H3074 0.929 . S
C3072 C3071 1.363 . S
C3072 C3078 1.428 . S
H3073 C3069 0.930 . S
H3074 C3071 0.929 . S
S3075 N3076 1.613 . S
S3075 N3077 1.610 . S
N3076 S3075 1.613 . S
N3076 C3079 1.350 . S
N3077 S3075 1.610 . S
N3077 C3078 1.351 . S
C3078 C3072 1.428 . S
C3078 N3077 1.351 . S
C3078 C3079 1.434 . S
C3079 C3070 1.429 . S
C3079 N3076 1.350 . S
C3079 C3078 1.434 . S
C3080 C3081 1.369 . S
C3080 C3082 1.418 1_455 S
C3080 H3084 0.930 . S
C3081 C3080 1.369 . S
C3081 C3090 1.428 . S
C3082 C3080 1.418 1_655 S
C3082 C3083 1.362 . S
C3082 H3085 0.929 . S
C3083 C3082 1.362 . S
C3083 C3089 1.428 . S
H3084 C3080 0.930 . S
H3085 C3082 0.929 . S
S3086 N3087 1.613 . S
S3086 N3088 1.610 . S
N3087 S3086 1.613 . S
N3087 C3090 1.352 . S
N3088 S3086 1.610 . S
N3088 C3089 1.351 1_455 S
C3089 C3083 1.428 . S
C3089 N3088 1.351 1_655 S
C3089 C3090 1.432 1_655 S
C3090 C3081 1.428 . S
C3090 N3087 1.352 . S
C3090 C3089 1.432 1_455 S
C3091 C3092 1.369 . S
C3091 C3093 1.419 . S
C3091 H3095 0.930 . S
C3092 C3091 1.369 . S
C3092 C3101 1.429 . S
C3093 C3091 1.419 . S
C3093 C3094 1.363 . S
C3093 H3096 0.929 . S
C3094 C3093 1.363 . S
C3094 C3100 1.428 . S
H3095 C3091 0.930 . S
H3096 C3093 0.929 . S
S3097 N3098 1.613 . S
S3097 N3099 1.610 . S
N3098 S3097 1.613 . S
N3098 C3101 1.350 . S
N3099 S3097 1.610 . S
N3099 C3100 1.351 . S
C3100 C3094 1.428 . S
C3100 N3099 1.351 . S
C3100 C3101 1.434 . S
C3101 C3092 1.429 . S
C3101 N3098 1.350 . S
C3101 C3100 1.434 . S
C3102 C3103 1.369 . S
C3102 C3104 1.419 . S
C3102 H3106 0.930 . S
C3103 C3102 1.369 . S
C3103 C3112 1.429 . S
C3104 C3102 1.419 . S
C3104 C3105 1.363 . S
C3104 H3107 0.929 . S
C3105 C3104 1.363 . S
C3105 C3111 1.428 . S
H3106 C3102 0.930 . S
H3107 C3104 0.929 . S
S3108 N3109 1.613 . S
S3108 N3110 1.610 . S
N3109 S3108 1.613 . S
N3109 C3112 1.350 . S
N3110 S3108 1.610 . S
N3110 C3111 1.351 . S
C3111 C3105 1.428 . S
C3111 N3110 1.351 . S
C3111 C3112 1.434 . S
C3112 C3103 1.429 . S
C3112 N3109 1.350 . S
C3112 C3111 1.434 . S
C3113 C3114 1.369 . S
C3113 C3115 1.419 . S
C3113 H3117 0.930 . S
C3114 C3113 1.369 . S
C3114 C3123 1.429 . S
C3115 C3113 1.419 . S
C3115 C3116 1.363 . S
C3115 H3118 0.929 . S
C3116 C3115 1.363 . S
C3116 C3122 1.428 . S
H3117 C3113 0.930 . S
H3118 C3115 0.929 . S
S3119 N3120 1.613 . S
S3119 N3121 1.610 . S
N3120 S3119 1.613 . S
N3120 C3123 1.350 . S
N3121 S3119 1.610 . S
N3121 C3122 1.351 . S
C3122 C3116 1.428 . S
C3122 N3121 1.351 . S
C3122 C3123 1.434 . S
C3123 C3114 1.429 . S
C3123 N3120 1.350 . S
C3123 C3122 1.434 . S
C3124 C3125 1.369 . S
C3124 C3126 1.419 . S
C3124 H3128 0.930 . S
C3125 C3124 1.369 . S
C3125 C3134 1.429 . S
C3126 C3124 1.419 . S
C3126 C3127 1.363 . S
C3126 H3129 0.929 . S
C3127 C3126 1.363 . S
C3127 C3133 1.428 . S
H3128 C3124 0.930 . S
H3129 C3126 0.929 . S
S3130 N3131 1.613 . S
S3130 N3132 1.610 . S
N3131 S3130 1.613 . S
N3131 C3134 1.350 . S
N3132 S3130 1.610 . S
N3132 C3133 1.351 . S
C3133 C3127 1.428 . S
C3133 N3132 1.351 . S
C3133 C3134 1.434 . S
C3134 C3125 1.429 . S
C3134 N3131 1.350 . S
C3134 C3133 1.434 . S
C3135 C3136 1.369 . S
C3135 C3137 1.419 1_565 S
C3135 H3139 0.930 . S
C3136 C3135 1.369 . S
C3136 C3145 1.429 . S
C3137 C3135 1.419 1_545 S
C3137 C3138 1.363 . S
C3137 H3140 0.929 . S
C3138 C3137 1.363 . S
C3138 C3144 1.428 . S
H3139 C3135 0.930 . S
H3140 C3137 0.929 . S
S3141 N3142 1.613 . S
S3141 N3143 1.610 1_565 S
N3142 S3141 1.613 . S
N3142 C3145 1.350 . S
N3143 S3141 1.610 1_545 S
N3143 C3144 1.351 . S
C3144 C3138 1.428 . S
C3144 N3143 1.351 . S
C3144 C3145 1.434 1_545 S
C3145 C3136 1.429 . S
C3145 N3142 1.350 . S
C3145 C3144 1.434 1_565 S
C3146 C3147 1.369 . S
C3146 C3148 1.419 . S
C3146 H3150 0.930 . S
C3147 C3146 1.369 . S
C3147 C3156 1.429 . S
C3148 C3146 1.419 . S
C3148 C3149 1.363 . S
C3148 H3151 0.929 . S
C3149 C3148 1.363 . S
C3149 C3155 1.428 . S
H3150 C3146 0.930 . S
H3151 C3148 0.929 . S
S3152 N3153 1.613 . S
S3152 N3154 1.610 . S
N3153 S3152 1.613 . S
N3153 C3156 1.350 . S
N3154 S3152 1.610 . S
N3154 C3155 1.351 . S
C3155 C3149 1.428 . S
C3155 N3154 1.351 . S
C3155 C3156 1.434 . S
C3156 C3147 1.429 . S
C3156 N3153 1.350 . S
C3156 C3155 1.434 . S
C3157 C3158 1.369 . S
C3157 C3159 1.419 . S
C3157 H3161 0.930 . S
C3158 C3157 1.369 . S
C3158 C3167 1.429 1_554 S
C3159 C3157 1.419 . S
C3159 C3160 1.363 1_554 S
C3159 H3162 0.929 . S
C3160 C3159 1.363 1_556 S
C3160 C3166 1.428 . S
H3161 C3157 0.930 . S
H3162 C3159 0.929 . S
S3163 N3164 1.613 . S
S3163 N3165 1.610 . S
N3164 S3163 1.613 . S
N3164 C3167 1.350 . S
N3165 S3163 1.610 . S
N3165 C3166 1.351 . S
C3166 C3160 1.428 . S
C3166 N3165 1.351 . S
C3166 C3167 1.434 . S
C3167 C3158 1.429 1_556 S
C3167 N3164 1.350 . S
C3167 C3166 1.434 . S
C3168 C3169 1.369 . S
C3168 C3170 1.419 . S
C3168 H3172 0.930 . S
C3169 C3168 1.369 . S
C3169 C3178 1.429 . S
C3170 C3168 1.419 . S
C3170 C3171 1.363 . S
C3170 H3173 0.929 . S
C3171 C3170 1.363 . S
C3171 C3177 1.428 . S
H3172 C3168 0.930 . S
H3173 C3170 0.929 . S
S3174 N3175 1.613 . S
S3174 N3176 1.610 . S
N3175 S3174 1.613 . S
N3175 C3178 1.350 . S
N3176 S3174 1.610 . S
N3176 C3177 1.351 . S
C3177 C3171 1.428 . S
C3177 N3176 1.351 . S
C3177 C3178 1.434 . S
C3178 C3169 1.429 . S
C3178 N3175 1.350 . S
C3178 C3177 1.434 . S
C3179 C3180 1.369 . S
C3179 C3181 1.419 . S
C3179 H3183 0.930 . S
C3180 C3179 1.369 . S
C3180 C3189 1.429 . S
C3181 C3179 1.419 . S
C3181 C3182 1.363 . S
C3181 H3184 0.929 . S
C3182 C3181 1.363 . S
C3182 C3188 1.428 . S
H3183 C3179 0.930 . S
H3184 C3181 0.929 . S
S3185 N3186 1.613 . S
S3185 N3187 1.610 . S
N3186 S3185 1.613 . S
N3186 C3189 1.350 . S
N3187 S3185 1.610 . S
N3187 C3188 1.351 . S
C3188 C3182 1.428 . S
C3188 N3187 1.351 . S
C3188 C3189 1.434 . S
C3189 C3180 1.429 . S
C3189 N3186 1.350 . S
C3189 C3188 1.434 . S
C3190 C3191 1.369 . S
C3190 C3192 1.419 . S
C3190 H3194 0.930 . S
C3191 C3190 1.369 . S
C3191 C3200 1.429 . S
C3192 C3190 1.419 . S
C3192 C3193 1.363 . S
C3192 H3195 0.929 . S
C3193 C3192 1.363 . S
C3193 C3199 1.428 . S
H3194 C3190 0.930 . S
H3195 C3192 0.929 . S
S3196 N3197 1.613 . S
S3196 N3198 1.610 . S
N3197 S3196 1.613 . S
N3197 C3200 1.350 . S
N3198 S3196 1.610 . S
N3198 C3199 1.351 . S
C3199 C3193 1.428 . S
C3199 N3198 1.351 . S
C3199 C3200 1.434 . S
C3200 C3191 1.429 . S
C3200 N3197 1.350 . S
C3200 C3199 1.434 . S
C3201 C3202 1.369 . S
C3201 C3203 1.419 . S
C3201 H3205 0.930 . S
C3202 C3201 1.369 . S
C3202 C3211 1.429 . S
C3203 C3201 1.419 . S
C3203 C3204 1.363 . S
C3203 H3206 0.929 . S
C3204 C3203 1.363 . S
C3204 C3210 1.428 . S
H3205 C3201 0.930 . S
H3206 C3203 0.929 . S
S3207 N3208 1.613 . S
S3207 N3209 1.610 . S
N3208 S3207 1.613 . S
N3208 C3211 1.350 . S
N3209 S3207 1.610 . S
N3209 C3210 1.351 . S
C3210 C3204 1.428 . S
C3210 N3209 1.351 . S
C3210 C3211 1.434 . S
C3211 C3202 1.429 . S
C3211 N3208 1.350 . S
C3211 C3210 1.434 . S
C3212 C3213 1.369 . S
C3212 C3214 1.419 . S
C3212 H3216 0.930 . S
C3213 C3212 1.369 . S
C3213 C3222 1.429 . S
C3214 C3212 1.419 . S
C3214 C3215 1.363 . S
C3214 H3217 0.929 . S
C3215 C3214 1.363 . S
C3215 C3221 1.428 . S
H3216 C3212 0.930 . S
H3217 C3214 0.929 . S
S3218 N3219 1.613 . S
S3218 N3220 1.610 . S
N3219 S3218 1.613 . S
N3219 C3222 1.350 . S
N3220 S3218 1.610 . S
N3220 C3221 1.351 . S
C3221 C3215 1.428 . S
C3221 N3220 1.351 . S
C3221 C3222 1.434 . S
C3222 C3213 1.429 . S
C3222 N3219 1.350 . S
C3222 C3221 1.434 . S
C3223 C3224 1.369 . S
C3223 C3225 1.419 . S
C3223 H3227 0.930 . S
C3224 C3223 1.369 . S
C3224 C3233 1.429 . S
C3225 C3223 1.419 . S
C3225 C3226 1.363 . S
C3225 H3228 0.929 . S
C3226 C3225 1.363 . S
C3226 C3232 1.428 . S
H3227 C3223 0.930 . S
H3228 C3225 0.929 . S
S3229 N3230 1.613 . S
S3229 N3231 1.610 . S
N3230 S3229 1.613 . S
N3230 C3233 1.350 . S
N3231 S3229 1.610 . S
N3231 C3232 1.351 . S
C3232 C3226 1.428 . S
C3232 N3231 1.351 . S
C3232 C3233 1.434 . S
C3233 C3224 1.429 . S
C3233 N3230 1.350 . S
C3233 C3232 1.434 . S
C3234 C3235 1.369 . S
C3234 C3236 1.419 . S
C3234 H3238 0.930 . S
C3235 C3234 1.369 . S
C3235 C3244 1.429 . S
C3236 C3234 1.419 . S
C3236 C3237 1.363 . S
C3236 H3239 0.929 . S
C3237 C3236 1.363 . S
C3237 C3243 1.428 . S
H3238 C3234 0.930 . S
H3239 C3236 0.929 . S
S3240 N3241 1.613 . S
S3240 N3242 1.610 . S
N3241 S3240 1.613 . S
N3241 C3244 1.350 . S
N3242 S3240 1.610 . S
N3242 C3243 1.351 . S
C3243 C3237 1.428 . S
C3243 N3242 1.351 . S
C3243 C3244 1.434 . S
C3244 C3235 1.429 . S
C3244 N3241 1.350 . S
C3244 C3243 1.434 . S
C3245 C3246 1.369 . S
C3245 C3247 1.419 . S
C3245 H3249 0.930 . S
C3246 C3245 1.369 . S
C3246 C3255 1.429 . S
C3247 C3245 1.419 . S
C3247 C3248 1.363 . S
C3247 H3250 0.929 . S
C3248 C3247 1.363 . S
C3248 C3254 1.428 . S
H3249 C3245 0.930 . S
H3250 C3247 0.929 . S
S3251 N3252 1.613 . S
S3251 N3253 1.610 . S
N3252 S3251 1.613 . S
N3252 C3255 1.350 . S
N3253 S3251 1.610 . S
N3253 C3254 1.351 . S
C3254 C3248 1.428 . S
C3254 N3253 1.351 . S
C3254 C3255 1.434 . S
C3255 C3246 1.429 . S
C3255 N3252 1.350 . S
C3255 C3254 1.434 . S
C3256 C3257 1.369 . S
C3256 C3258 1.419 . S
C3256 H3260 0.930 . S
C3257 C3256 1.369 . S
C3257 C3266 1.429 . S
C3258 C3256 1.419 . S
C3258 C3259 1.363 . S
C3258 H3261 0.929 . S
C3259 C3258 1.363 . S
C3259 C3265 1.428 . S
H3260 C3256 0.930 . S
H3261 C3258 0.929 . S
S3262 N3263 1.613 . S
S3262 N3264 1.610 . S
N3263 S3262 1.613 . S
N3263 C3266 1.350 . S
N3264 S3262 1.610 . S
N3264 C3265 1.351 . S
C3265 C3259 1.428 . S
C3265 N3264 1.351 . S
C3265 C3266 1.434 . S
C3266 C3257 1.429 . S
C3266 N3263 1.350 . S
C3266 C3265 1.434 . S
C3267 C3268 1.369 . S
C3267 C3269 1.419 . S
C3267 H3271 0.930 . S
C3268 C3267 1.369 . S
C3268 C3277 1.429 . S
C3269 C3267 1.419 . S
C3269 C3270 1.363 . S
C3269 H3272 0.929 . S
C3270 C3269 1.363 . S
C3270 C3276 1.428 . S
H3271 C3267 0.930 . S
H3272 C3269 0.929 . S
S3273 N3274 1.613 . S
S3273 N3275 1.610 . S
N3274 S3273 1.613 . S
N3274 C3277 1.350 . S
N3275 S3273 1.610 . S
N3275 C3276 1.351 . S
C3276 C3270 1.428 . S
C3276 N3275 1.351 . S
C3276 C3277 1.434 . S
C3277 C3268 1.429 . S
C3277 N3274 1.350 . S
C3277 C3276 1.434 . S
C3278 C3279 1.369 . S
C3278 C3280 1.419 . S
C3278 H3282 0.930 . S
C3279 C3278 1.369 . S
C3279 C3288 1.429 . S
C3280 C3278 1.419 . S
C3280 C3281 1.363 . S
C3280 H3283 0.929 . S
C3281 C3280 1.363 . S
C3281 C3287 1.428 . S
H3282 C3278 0.930 . S
H3283 C3280 0.929 . S
S3284 N3285 1.613 . S
S3284 N3286 1.610 . S
N3285 S3284 1.613 . S
N3285 C3288 1.350 . S
N3286 S3284 1.610 . S
N3286 C3287 1.351 . S
C3287 C3281 1.428 . S
C3287 N3286 1.351 . S
C3287 C3288 1.434 . S
C3288 C3279 1.429 . S
C3288 N3285 1.350 . S
C3288 C3287 1.434 . S
C3289 C3290 1.369 . S
C3289 C3291 1.419 . S
C3289 H3293 0.930 . S
C3290 C3289 1.369 . S
C3290 C3299 1.429 . S
C3291 C3289 1.419 . S
C3291 C3292 1.363 . S
C3291 H3294 0.929 . S
C3292 C3291 1.363 . S
C3292 C3298 1.428 . S
H3293 C3289 0.930 . S
H3294 C3291 0.929 . S
S3295 N3296 1.613 . S
S3295 N3297 1.610 . S
N3296 S3295 1.613 . S
N3296 C3299 1.350 . S
N3297 S3295 1.610 . S
N3297 C3298 1.351 . S
C3298 C3292 1.428 . S
C3298 N3297 1.351 . S
C3298 C3299 1.434 . S
C3299 C3290 1.429 . S
C3299 N3296 1.350 . S
C3299 C3298 1.434 . S
C3300 C3301 1.369 . S
C3300 C3302 1.419 . S
C3300 H3304 0.930 . S
C3301 C3300 1.369 . S
C3301 C3310 1.429 . S
C3302 C3300 1.419 . S
C3302 C3303 1.363 . S
C3302 H3305 0.929 . S
C3303 C3302 1.363 . S
C3303 C3309 1.428 . S
H3304 C3300 0.930 . S
H3305 C3302 0.929 . S
S3306 N3307 1.613 . S
S3306 N3308 1.610 . S
N3307 S3306 1.613 . S
N3307 C3310 1.350 . S
N3308 S3306 1.610 . S
N3308 C3309 1.351 . S
C3309 C3303 1.428 . S
C3309 N3308 1.351 . S
C3309 C3310 1.434 . S
C3310 C3301 1.429 . S
C3310 N3307 1.350 . S
C3310 C3309 1.434 . S
C3311 C3312 1.369 . S
C3311 C3313 1.419 . S
C3311 H3315 0.930 . S
C3312 C3311 1.369 . S
C3312 C3321 1.429 . S
C3313 C3311 1.419 . S
C3313 C3314 1.363 . S
C3313 H3316 0.929 . S
C3314 C3313 1.363 . S
C3314 C3320 1.428 . S
H3315 C3311 0.930 . S
H3316 C3313 0.929 . S
S3317 N3318 1.613 . S
S3317 N3319 1.610 . S
N3318 S3317 1.613 . S
N3318 C3321 1.350 . S
N3319 S3317 1.610 . S
N3319 C3320 1.351 . S
C3320 C3314 1.428 . S
C3320 N3319 1.351 . S
C3320 C3321 1.434 . S
C3321 C3312 1.429 . S
C3321 N3318 1.350 . S
C3321 C3320 1.434 . S
C3322 C3323 1.369 . S
C3322 C3324 1.419 . S
C3322 H3326 0.930 . S
C3323 C3322 1.369 . S
C3323 C3332 1.429 . S
C3324 C3322 1.419 . S
C3324 C3325 1.363 . S
C3324 H3327 0.929 . S
C3325 C3324 1.363 . S
C3325 C3331 1.428 . S
H3326 C3322 0.930 . S
H3327 C3324 0.929 . S
S3328 N3329 1.613 . S
S3328 N3330 1.610 . S
N3329 S3328 1.613 . S
N3329 C3332 1.350 . S
N3330 S3328 1.610 . S
N3330 C3331 1.351 . S
C3331 C3325 1.428 . S
C3331 N3330 1.351 . S
C3331 C3332 1.434 . S
C3332 C3323 1.429 . S
C3332 N3329 1.350 . S
C3332 C3331 1.434 . S
C3333 C3334 1.369 . S
C3333 C3335 1.419 . S
C3333 H3337 0.930 . S
C3334 C3333 1.369 . S
C3334 C3343 1.429 . S
C3335 C3333 1.419 . S
C3335 C3336 1.363 . S
C3335 H3338 0.929 . S
C3336 C3335 1.363 . S
C3336 C3342 1.428 . S
H3337 C3333 0.930 . S
H3338 C3335 0.929 . S
S3339 N3340 1.613 . S
S3339 N3341 1.610 . S
N3340 S3339 1.613 . S
N3340 C3343 1.350 . S
N3341 S3339 1.610 . S
N3341 C3342 1.351 . S
C3342 C3336 1.428 . S
C3342 N3341 1.351 . S
C3342 C3343 1.434 . S
C3343 C3334 1.429 . S
C3343 N3340 1.350 . S
C3343 C3342 1.434 . S
C3344 C3345 1.369 . S
C3344 C3346 1.419 . S
C3344 H3348 0.930 . S
C3345 C3344 1.369 . S
C3345 C3354 1.429 . S
C3346 C3344 1.419 . S
C3346 C3347 1.363 . S
C3346 H3349 0.929 . S
C3347 C3346 1.363 . S
C3347 C3353 1.428 . S
H3348 C3344 0.930 . S
H3349 C3346 0.929 . S
S3350 N3351 1.613 . S
S3350 N3352 1.610 . S
N3351 S3350 1.613 . S
N3351 C3354 1.350 . S
N3352 S3350 1.610 . S
N3352 C3353 1.351 . S
C3353 C3347 1.428 . S
C3353 N3352 1.351 . S
C3353 C3354 1.434 . S
C3354 C3345 1.429 . S
C3354 N3351 1.350 . S
C3354 C3353 1.434 . S
C3355 C3356 1.369 . S
C3355 C3357 1.419 . S
C3355 H3359 0.930 . S
C3356 C3355 1.369 . S
C3356 C3365 1.429 . S
C3357 C3355 1.419 . S
C3357 C3358 1.363 . S
C3357 H3360 0.929 . S
C3358 C3357 1.363 . S
C3358 C3364 1.428 . S
H3359 C3355 0.930 . S
H3360 C3357 0.929 . S
S3361 N3362 1.613 . S
S3361 N3363 1.610 . S
N3362 S3361 1.613 . S
N3362 C3365 1.350 . S
N3363 S3361 1.610 . S
N3363 C3364 1.351 . S
C3364 C3358 1.428 . S
C3364 N3363 1.351 . S
C3364 C3365 1.434 . S
C3365 C3356 1.429 . S
C3365 N3362 1.350 . S
C3365 C3364 1.434 . S
C3366 C3367 1.369 . S
C3366 C3368 1.419 . S
C3366 H3370 0.930 . S
C3367 C3366 1.369 . S
C3367 C3376 1.429 . S
C3368 C3366 1.419 . S
C3368 C3369 1.363 . S
C3368 H3371 0.929 . S
C3369 C3368 1.363 . S
C3369 C3375 1.428 . S
H3370 C3366 0.930 . S
H3371 C3368 0.929 . S
S3372 N3373 1.613 . S
S3372 N3374 1.610 . S
N3373 S3372 1.613 . S
N3373 C3376 1.350 . S
N3374 S3372 1.610 . S
N3374 C3375 1.351 . S
C3375 C3369 1.428 . S
C3375 N3374 1.351 . S
C3375 C3376 1.434 . S
C3376 C3367 1.429 . S
C3376 N3373 1.350 . S
C3376 C3375 1.434 . S
C3377 C3378 1.369 . S
C3377 C3379 1.419 . S
C3377 H3381 0.930 . S
C3378 C3377 1.369 . S
C3378 C3387 1.429 . S
C3379 C3377 1.419 . S
C3379 C3380 1.363 . S
C3379 H3382 0.929 . S
C3380 C3379 1.363 . S
C3380 C3386 1.428 . S
H3381 C3377 0.930 . S
H3382 C3379 0.929 . S
S3383 N3384 1.613 . S
S3383 N3385 1.610 . S
N3384 S3383 1.613 . S
N3384 C3387 1.350 . S
N3385 S3383 1.610 . S
N3385 C3386 1.351 . S
C3386 C3380 1.428 . S
C3386 N3385 1.351 . S
C3386 C3387 1.434 . S
C3387 C3378 1.429 . S
C3387 N3384 1.350 . S
C3387 C3386 1.434 . S
C3388 C3389 1.369 . S
C3388 C3390 1.419 . S
C3388 H3392 0.930 . S
C3389 C3388 1.369 . S
C3389 C3398 1.429 . S
C3390 C3388 1.419 . S
C3390 C3391 1.363 . S
C3390 H3393 0.929 . S
C3391 C3390 1.363 . S
C3391 C3397 1.428 . S
H3392 C3388 0.930 . S
H3393 C3390 0.929 . S
S3394 N3395 1.634 . S
S3394 N3396 1.635 . S
N3395 S3394 1.634 . S
N3395 C3398 1.322 1_455 S
N3396 S3394 1.635 . S
N3396 C3397 1.316 1_455 S
C3397 C3391 1.428 . S
C3397 N3396 1.316 1_655 S
C3397 C3398 1.434 . S
C3398 C3389 1.429 . S
C3398 N3395 1.322 1_655 S
C3398 C3397 1.434 . S
C3399 C3400 1.369 . S
C3399 C3401 1.419 . S
C3399 H3403 0.930 . S
C3400 C3399 1.369 . S
C3400 C3409 1.429 . S
C3401 C3399 1.419 . S
C3401 C3402 1.363 . S
C3401 H3404 0.929 . S
C3402 C3401 1.363 . S
C3402 C3408 1.428 . S
H3403 C3399 0.930 . S
H3404 C3401 0.929 . S
S3405 N3406 1.613 . S
S3405 N3407 1.610 . S
N3406 S3405 1.613 . S
N3406 C3409 1.350 . S
N3407 S3405 1.610 . S
N3407 C3408 1.351 . S
C3408 C3402 1.428 . S
C3408 N3407 1.351 . S
C3408 C3409 1.434 . S
C3409 C3400 1.429 . S
C3409 N3406 1.350 . S
C3409 C3408 1.434 . S
C3410 C3411 1.369 . S
C3410 C3412 1.419 . S
C3410 H3414 0.930 . S
C3411 C3410 1.369 . S
C3411 C3420 1.429 . S
C3412 C3410 1.419 . S
C3412 C3413 1.363 . S
C3412 H3415 0.929 . S
C3413 C3412 1.363 . S
C3413 C3419 1.428 . S
H3414 C3410 0.930 . S
H3415 C3412 0.929 . S
S3416 N3417 1.613 . S
S3416 N3418 1.610 . S
N3417 S3416 1.613 . S
N3417 C3420 1.350 . S
N3418 S3416 1.610 . S
N3418 C3419 1.351 . S
C3419 C3413 1.428 . S
C3419 N3418 1.351 . S
C3419 C3420 1.434 . S
C3420 C3411 1.429 . S
C3420 N3417 1.350 . S
C3420 C3419 1.434 . S
C3421 C3422 1.369 . S
C3421 C3423 1.419 . S
C3421 H3425 0.930 . S
C3422 C3421 1.369 . S
C3422 C3431 1.429 . S
C3423 C3421 1.419 . S
C3423 C3424 1.363 . S
C3423 H3426 0.929 . S
C3424 C3423 1.363 . S
C3424 C3430 1.428 . S
H3425 C3421 0.930 . S
H3426 C3423 0.929 . S
S3427 N3428 1.613 . S
S3427 N3429 1.610 . S
N3428 S3427 1.613 . S
N3428 C3431 1.350 . S
N3429 S3427 1.610 . S
N3429 C3430 1.351 . S
C3430 C3424 1.428 . S
C3430 N3429 1.351 . S
C3430 C3431 1.434 . S
C3431 C3422 1.429 . S
C3431 N3428 1.350 . S
C3431 C3430 1.434 . S
C3432 C3433 1.369 . S
C3432 C3434 1.419 . S
C3432 H3436 0.930 . S
C3433 C3432 1.369 . S
C3433 C3442 1.429 . S
C3434 C3432 1.419 . S
C3434 C3435 1.363 . S
C3434 H3437 0.929 . S
C3435 C3434 1.363 . S
C3435 C3441 1.428 . S
H3436 C3432 0.930 . S
H3437 C3434 0.929 . S
S3438 N3439 1.613 . S
S3438 N3440 1.610 . S
N3439 S3438 1.613 . S
N3439 C3442 1.350 . S
N3440 S3438 1.610 . S
N3440 C3441 1.351 . S
C3441 C3435 1.428 . S
C3441 N3440 1.351 . S
C3441 C3442 1.434 . S
C3442 C3433 1.429 . S
C3442 N3439 1.350 . S
C3442 C3441 1.434 . S
C3443 C3444 1.369 . S
C3443 C3445 1.419 . S
C3443 H3447 0.930 . S
C3444 C3443 1.369 . S
C3444 C3453 1.429 . S
C3445 C3443 1.419 . S
C3445 C3446 1.363 . S
C3445 H3448 0.929 . S
C3446 C3445 1.363 . S
C3446 C3452 1.428 . S
H3447 C3443 0.930 . S
H3448 C3445 0.929 . S
S3449 N3450 1.613 . S
S3449 N3451 1.610 . S
N3450 S3449 1.613 . S
N3450 C3453 1.350 . S
N3451 S3449 1.610 . S
N3451 C3452 1.351 . S
C3452 C3446 1.428 . S
C3452 N3451 1.351 . S
C3452 C3453 1.434 . S
C3453 C3444 1.429 . S
C3453 N3450 1.350 . S
C3453 C3452 1.434 . S
C3454 C3455 1.369 . S
C3454 C3456 1.419 . S
C3454 H3458 0.930 . S
C3455 C3454 1.369 . S
C3455 C3464 1.429 . S
C3456 C3454 1.419 . S
C3456 C3457 1.363 . S
C3456 H3459 0.929 . S
C3457 C3456 1.363 . S
C3457 C3463 1.428 . S
H3458 C3454 0.930 . S
H3459 C3456 0.929 . S
S3460 N3461 1.613 . S
S3460 N3462 1.610 . S
N3461 S3460 1.613 . S
N3461 C3464 1.350 . S
N3462 S3460 1.610 . S
N3462 C3463 1.351 . S
C3463 C3457 1.428 . S
C3463 N3462 1.351 . S
C3463 C3464 1.434 . S
C3464 C3455 1.429 . S
C3464 N3461 1.350 . S
C3464 C3463 1.434 . S
C3465 C3466 1.369 . S
C3465 C3467 1.419 . S
C3465 H3469 0.930 . S
C3466 C3465 1.369 . S
C3466 C3475 1.429 . S
C3467 C3465 1.419 . S
C3467 C3468 1.363 . S
C3467 H3470 0.929 . S
C3468 C3467 1.363 . S
C3468 C3474 1.428 . S
H3469 C3465 0.930 . S
H3470 C3467 0.929 . S
S3471 N3472 1.613 . S
S3471 N3473 1.610 . S
N3472 S3471 1.613 . S
N3472 C3475 1.350 . S
N3473 S3471 1.610 . S
N3473 C3474 1.351 . S
C3474 C3468 1.428 . S
C3474 N3473 1.351 . S
C3474 C3475 1.434 . S
C3475 C3466 1.429 . S
C3475 N3472 1.350 . S
C3475 C3474 1.434 . S
C3476 C3477 1.369 . S
C3476 C3478 1.419 . S
C3476 H3480 0.930 . S
C3477 C3476 1.369 . S
C3477 C3486 1.429 . S
C3478 C3476 1.419 . S
C3478 C3479 1.363 . S
C3478 H3481 0.929 . S
C3479 C3478 1.363 . S
C3479 C3485 1.428 . S
H3480 C3476 0.930 . S
H3481 C3478 0.929 . S
S3482 N3483 1.613 . S
S3482 N3484 1.610 . S
N3483 S3482 1.613 . S
N3483 C3486 1.350 . S
N3484 S3482 1.610 . S
N3484 C3485 1.351 . S
C3485 C3479 1.428 . S
C3485 N3484 1.351 . S
C3485 C3486 1.434 . S
C3486 C3477 1.429 . S
C3486 N3483 1.350 . S
C3486 C3485 1.434 . S
C3487 C3488 1.369 . S
C3487 C3489 1.419 . S
C3487 H3491 0.930 . S
C3488 C3487 1.369 . S
C3488 C3497 1.429 . S
C3489 C3487 1.419 . S
C3489 C3490 1.363 . S
C3489 H3492 0.929 . S
C3490 C3489 1.363 . S
C3490 C3496 1.428 . S
H3491 C3487 0.930 . S
H3492 C3489 0.929 . S
S3493 N3494 1.613 . S
S3493 N3495 1.610 . S
N3494 S3493 1.613 . S
N3494 C3497 1.350 . S
N3495 S3493 1.610 . S
N3495 C3496 1.351 . S
C3496 C3490 1.428 . S
C3496 N3495 1.351 . S
C3496 C3497 1.434 . S
C3497 C3488 1.429 . S
C3497 N3494 1.350 . S
C3497 C3496 1.434 . S
C3498 C3499 1.369 . S
C3498 C3500 1.419 . S
C3498 H3502 0.930 . S
C3499 C3498 1.369 . S
C3499 C3508 1.429 . S
C3500 C3498 1.419 . S
C3500 C3501 1.363 . S
C3500 H3503 0.929 . S
C3501 C3500 1.363 . S
C3501 C3507 1.428 . S
H3502 C3498 0.930 . S
H3503 C3500 0.929 . S
S3504 N3505 1.613 . S
S3504 N3506 1.610 . S
N3505 S3504 1.613 . S
N3505 C3508 1.350 . S
N3506 S3504 1.610 . S
N3506 C3507 1.351 . S
C3507 C3501 1.428 . S
C3507 N3506 1.351 . S
C3507 C3508 1.434 . S
C3508 C3499 1.429 . S
C3508 N3505 1.350 . S
C3508 C3507 1.434 . S
C3509 C3510 1.369 . S
C3509 C3511 1.419 . S
C3509 H3513 0.930 . S
C3510 C3509 1.369 . S
C3510 C3519 1.429 . S
C3511 C3509 1.419 . S
C3511 C3512 1.363 . S
C3511 H3514 0.929 . S
C3512 C3511 1.363 . S
C3512 C3518 1.428 . S
H3513 C3509 0.930 . S
H3514 C3511 0.929 . S
S3515 N3516 1.613 . S
S3515 N3517 1.610 . S
N3516 S3515 1.613 . S
N3516 C3519 1.350 . S
N3517 S3515 1.610 . S
N3517 C3518 1.351 . S
C3518 C3512 1.428 . S
C3518 N3517 1.351 . S
C3518 C3519 1.434 . S
C3519 C3510 1.429 . S
C3519 N3516 1.350 . S
C3519 C3518 1.434 . S
C2817 C49 1.558 . S
C2819 C108 1.559 . S
C2828 C321 1.559 . S
C2830 C196 1.559 . S
C2839 C409 1.556 . S
C2841 C460 1.557 . S
C2850 C548 1.556 . S
C2852 C665 1.557 . S
C2861 C753 1.559 . S
C2863 C812 1.559 . S
C2872 C909 1.559 . S
C2874 C1017 1.559 . S
C2883 C1105 1.556 . S
C2885 C1164 1.557 . S
C2894 C1252 1.558 . S
C2896 C1369 1.559 . S
C2905 C1516 1.557 . S
C2907 C1457 1.557 . S
C2916 C1721 1.557 . S
C2918 C1613 1.557 . S
C2927 C1868 1.556 . S
C2929 C1817 1.557 . S
C2938 C2073 1.559 . S
C2940 C1956 1.558 . S
C2949 C2220 1.557 . S
C2951 C2169 1.557 . S
C2960 C2433 1.557 . S
C2962 C2317 1.557 . S
C2971 C2572 1.559 . S
C2973 C2513 1.558 . S
C2982 C2777 1.556 . S
C2984 C2660 1.558 . S
C2993 C20 1.754 . S
C2995 C1076 1.774 . S
C3004 C137 1.750 . S
C3006 C1897 1.751 . S
C3015 C225 1.761 . S
C3017 C577 1.769 . S
C3026 C293 1.742 . S
C3028 C2748 1.758 . S
C3037 C381 1.775 . S
C3039 C724 1.755 . S
C3048 C1545 1.750 . S
C3050 C489 1.751 . S
C3059 C2405 1.743 . S
C3061 C636 1.756 . S
C3070 C841 1.750 . S
C3072 C2601 1.751 . S
C3081 C937 1.763 . S
C3083 C1281 1.767 . S
C3092 C988 1.738 . S
C3094 C2044 1.760 . S
C3103 C1193 1.754 . S
C3105 C2249 1.746 . S
C3114 C1340 1.759 . S
C3116 C1692 1.742 . S
C3125 C2484 1.753 . S
C3127 C1428 1.747 . S
C3136 C1985 1.761 . S
C3138 C1641 1.740 . S
C3147 C1789 1.752 . S
C3149 C2141 1.747 . S
C3158 C2689 1.762 . S
C3160 C2345 1.740 . S
C3169 C929 0.840 . S
C3171 C29 0.835 . S
C3180 C997 0.836 . S
C3182 C145 0.841 . S
C3191 C233 0.834 . S
C3193 C733 0.840 . S
C3202 C849 0.842 . S
C3204 C284 0.836 . S
C3213 C401 0.829 . S
C3215 C1261 0.833 . S
C3224 C469 0.831 . S
C3226 C1377 0.835 . S
C3235 C1113 0.830 . S
C3237 C557 0.830 . S
C3246 C1173 0.836 . S
C3248 C673 0.831 . S
C3257 C1437 0.842 . S
C3259 C2337 0.839 . S
C3268 C2396 0.842 . S
C3270 C1553 0.837 . S
C3279 C2132 0.841 . S
C3281 C1633 0.835 . S
C3290 C1701 0.842 . S
C3292 C2257 0.836 . S
C3301 C2669 0.831 . S
C3303 C1809 0.829 . S
C3312 C1877 0.834 . S
C3314 C2785 0.830 . S
C3323 C2521 0.835 . S
C3325 C1965 0.835 . S
C3334 C2581 0.836 . S
C3336 C2081 0.831 . S
C3345 C900 1.749 . S
C3347 C57 1.755 . S
C3356 C1025 1.750 . S
C3358 C117 1.756 . S
C3367 C761 1.757 . S
C3369 C205 1.751 . S
C3378 C313 1.757 . S
C3380 C821 1.754 . S
C3389 C1289 1.761 . S
C3391 C372 1.756 . S
C3400 C1349 1.761 . S
C3402 C497 1.755 . S
C3411 C1085 1.754 . S
C3413 C585 1.760 . S
C3422 C1201 1.754 . S
C3424 C645 1.760 . S
C3433 C2308 1.750 . S
C3435 C1465 1.754 . S
C3444 C2425 1.755 . S
C3446 C1525 1.750 . S
C3455 C2161 1.754 . S
C3457 C1604 1.751 . S
C3466 C1729 1.758 . S
C3468 C2229 1.752 . S
C3477 C2697 1.754 . S
C3479 C1780 1.760 . S
C3488 C1905 1.758 . S
C3490 C2757 1.754 . S
C3499 C2493 1.760 . S
C3501 C1993 1.754 . S
C3510 C2053 1.757 . S
C3512 C2609 1.754 . S
