# Generated by pormake.
# Topology wko, (6)-cn, num edge types: 1
# Building blocks:
#     Node 0, Type 0, BuildingBlock: IZENUY_clean_sbu_0, # of connection points: 6
#     Node 1, Type 0, BuildingBlock: IZENUY_clean_sbu_0, # of connection points: 6
#     Node 2, Type 0, BuildingBlock: IZENUY_clean_sbu_0, # of connection points: 6
#     Node 3, Type 0, BuildingBlock: IZENUY_clean_sbu_0, # of connection points: 6
#     Node 4, Type 0, BuildingBlock: IZENUY_clean_sbu_0, # of connection points: 6
#     Node 5, Type 0, BuildingBlock: IZENUY_clean_sbu_0, # of connection points: 6
#     Node 6, Type 0, BuildingBlock: IZENUY_clean_sbu_0, # of connection points: 6
#     Node 7, Type 0, BuildingBlock: IZENUY_clean_sbu_0, # of connection points: 6
#     Node 8, Type 0, BuildingBlock: IZENUY_clean_sbu_0, # of connection points: 6
#     Node 9, Type 0, BuildingBlock: IZENUY_clean_sbu_0, # of connection points: 6
#     Node 10, Type 0, BuildingBlock: IZENUY_clean_sbu_0, # of connection points: 6
#     Node 11, Type 0, BuildingBlock: IZENUY_clean_sbu_0, # of connection points: 6
#     Edge 12, Type (0, 0), BuildingBlock: XIVTED_clean_linker_0, # of connection points: 2
#     Edge 13, Type (0, 0), BuildingBlock: XIVTED_clean_linker_0, # of connection points: 2
#     Edge 14, Type (0, 0), BuildingBlock: XIVTED_clean_linker_0, # of connection points: 2
#     Edge 15, Type (0, 0), BuildingBlock: XIVTED_clean_linker_0, # of connection points: 2
#     Edge 16, Type (0, 0), BuildingBlock: XIVTED_clean_linker_0, # of connection points: 2
#     Edge 17, Type (0, 0), BuildingBlock: XIVTED_clean_linker_0, # of connection points: 2
#     Edge 18, Type (0, 0), BuildingBlock: XIVTED_clean_linker_0, # of connection points: 2
#     Edge 19, Type (0, 0), BuildingBlock: XIVTED_clean_linker_0, # of connection points: 2
#     Edge 20, Type (0, 0), BuildingBlock: XIVTED_clean_linker_0, # of connection points: 2
#     Edge 21, Type (0, 0), BuildingBlock: XIVTED_clean_linker_0, # of connection points: 2
#     Edge 22, Type (0, 0), BuildingBlock: XIVTED_clean_linker_0, # of connection points: 2
#     Edge 23, Type (0, 0), BuildingBlock: XIVTED_clean_linker_0, # of connection points: 2
#     Edge 24, Type (0, 0), BuildingBlock: XIVTED_clean_linker_0, # of connection points: 2
#     Edge 25, Type (0, 0), BuildingBlock: XIVTED_clean_linker_0, # of connection points: 2
#     Edge 26, Type (0, 0), BuildingBlock: XIVTED_clean_linker_0, # of connection points: 2
#     Edge 27, Type (0, 0), BuildingBlock: XIVTED_clean_linker_0, # of connection points: 2
#     Edge 28, Type (0, 0), BuildingBlock: XIVTED_clean_linker_0, # of connection points: 2
#     Edge 29, Type (0, 0), BuildingBlock: XIVTED_clean_linker_0, # of connection points: 2
#     Edge 30, Type (0, 0), BuildingBlock: XIVTED_clean_linker_0, # of connection points: 2
#     Edge 31, Type (0, 0), BuildingBlock: XIVTED_clean_linker_0, # of connection points: 2
#     Edge 32, Type (0, 0), BuildingBlock: XIVTED_clean_linker_0, # of connection points: 2
#     Edge 33, Type (0, 0), BuildingBlock: XIVTED_clean_linker_0, # of connection points: 2
#     Edge 34, Type (0, 0), BuildingBlock: XIVTED_clean_linker_0, # of connection points: 2
#     Edge 35, Type (0, 0), BuildingBlock: XIVTED_clean_linker_0, # of connection points: 2
#     Edge 36, Type (0, 0), BuildingBlock: XIVTED_clean_linker_0, # of connection points: 2
#     Edge 37, Type (0, 0), BuildingBlock: XIVTED_clean_linker_0, # of connection points: 2
#     Edge 38, Type (0, 0), BuildingBlock: XIVTED_clean_linker_0, # of connection points: 2
#     Edge 39, Type (0, 0), BuildingBlock: XIVTED_clean_linker_0, # of connection points: 2
#     Edge 40, Type (0, 0), BuildingBlock: XIVTED_clean_linker_0, # of connection points: 2
#     Edge 41, Type (0, 0), BuildingBlock: XIVTED_clean_linker_0, # of connection points: 2
#     Edge 42, Type (0, 0), BuildingBlock: XIVTED_clean_linker_0, # of connection points: 2
#     Edge 43, Type (0, 0), BuildingBlock: XIVTED_clean_linker_0, # of connection points: 2
#     Edge 44, Type (0, 0), BuildingBlock: XIVTED_clean_linker_0, # of connection points: 2
#     Edge 45, Type (0, 0), BuildingBlock: XIVTED_clean_linker_0, # of connection points: 2
#     Edge 46, Type (0, 0), BuildingBlock: XIVTED_clean_linker_0, # of connection points: 2
#     Edge 47, Type (0, 0), BuildingBlock: XIVTED_clean_linker_0, # of connection points: 2
# Relax obj value: 0.320
# Max RMSD: 0.278
# Mean RMSD: 0.278
data_MOF--net-wko--node1-IZENUY_clean_sbu_0--edge1-XIVTED_clean_linker_0
_symmetry_space_group_name_H-M    P1
_symmetry_Int_Tables_number       1
_symmetry_cell_setting            triclinic
loop_
_symmetry_equiv_pos_as_xyz
'x, y, z'
_cell_length_a     45.379873
_cell_length_b     45.411197
_cell_length_c     29.836931
_cell_angle_alpha  89.980745
_cell_angle_beta   89.917806
_cell_angle_gamma 120.10645
loop_
_atom_site_label
_atom_site_type_symbol
_atom_site_fract_x
_atom_site_fract_y
_atom_site_fract_z
_atom_type_partial_charge
Fe0 Fe 0.37028 0.34731 0.40264 0.0
Fe1 Fe 0.34258 0.27543 0.44014 0.0
O2 O 0.37149 0.30886 0.40458 0.0
Fe3 Fe 0.40211 0.30471 0.37215 0.0
O4 O 0.4379 0.34277 0.39656 0.0
O5 O 0.41531 0.37509 0.38898 0.0
O6 O 0.38184 0.35549 0.46159 0.0
C7 C 0.36563 0.33426 0.4923 0.0
C8 C 0.3761 0.33599 0.3143 0.0
O9 O 0.34261 0.30419 0.48298 0.0
C10 C 0.34709 0.2397 0.36374 0.0
O11 O 0.32477 0.32752 0.4155 0.0
O12 O 0.30522 0.27249 0.41286 0.0
O13 O 0.39876 0.32851 0.32452 0.0
O14 O 0.35905 0.34075 0.34403 0.0
C15 C 0.40271 0.27593 0.45577 0.0
O16 O 0.33818 0.24057 0.4038 0.0
O17 O 0.36966 0.26639 0.34474 0.0
C18 C 0.30015 0.29742 0.41143 0.0
O19 O 0.37715 0.27651 0.47094 0.0
O20 O 0.41001 0.27999 0.41444 0.0
C21 C 0.44106 0.37195 0.39557 0.0
Fe22 Fe 0.11575 0.39767 0.53865 0.0
Fe23 Fe 0.04337 0.3652 0.57763 0.0
O24 O 0.08389 0.3684 0.5756 0.0
Fe25 Fe 0.09345 0.34299 0.61108 0.0
O26 O 0.13878 0.37483 0.61597 0.0
O27 O 0.14348 0.42099 0.5853 0.0
O28 O 0.10142 0.42908 0.53816 0.0
C29 C 0.08331 0.43422 0.56566 0.0
C30 C 0.12403 0.33975 0.53428 0.0
O31 O 0.06162 0.41027 0.58947 0.0
C32 C 1.02288 0.29824 0.59175 0.0
O33 O 0.0898 0.37599 0.4911 0.0
O34 O 0.04185 0.37119 0.5166 0.0
O35 O 0.10138 0.32272 0.56332 0.0
O36 O 0.13595 0.37161 0.53069 0.0
C37 C 0.06091 0.36454 0.66853 0.0
O38 O 1.02109 0.31969 0.56681 0.0
O39 O 0.04954 0.30675 0.61439 0.0
C40 C 0.05962 0.36937 0.48488 0.0
O41 O 0.03878 0.35882 0.63867 0.0
O42 O 0.08686 0.36213 0.66015 0.0
C43 C 0.15286 0.4069 0.61379 0.0
Fe44 Fe 0.68677 0.03205 0.73409 0.0
Fe45 Fe 0.75605 0.07553 0.77881 0.0
O46 O 0.72465 0.07177 0.74029 0.0
Fe47 Fe 0.73024 0.10736 0.70861 0.0
O48 O 0.6911 0.10413 0.73064 0.0
O49 O 0.65973 0.04956 0.71825 0.0
O50 O 0.67478 0.03287 0.79192 0.0
C51 C 0.69369 0.03569 0.82449 0.0
C52 C 0.7026 0.05213 0.6474 0.0
O53 O 0.72491 0.04519 0.81887 0.0
C54 C 0.79535 0.1177 0.7052 0.0
O55 O 0.70591 1.00607 0.74849 0.0
O56 O 0.76081 0.04207 0.75188 0.0
O57 O 0.70863 0.08163 0.65872 0.0
O58 O 0.69714 0.02971 0.67643 0.0
C59 C 0.7557 0.13506 0.79442 0.0
O60 O 0.79271 0.10726 0.74534 0.0
O61 O 0.76956 0.11377 0.68412 0.0
C62 C 0.73624 1.01192 0.74833 0.0
O63 O 0.75314 0.10807 0.80967 0.0
O64 O 0.75327 0.13896 0.75283 0.0
C65 C 0.66214 0.07787 0.72698 0.0
Fe66 Fe 0.70226 0.75304 0.93886 0.0
Fe67 Fe 0.64216 0.72605 0.87231 0.0
O68 O 0.67313 0.72092 0.9022 0.0
Fe69 Fe 0.67451 0.68289 0.89625 0.0
O70 O 0.66385 0.67235 0.95492 0.0
O71 O 0.70318 0.72283 0.97892 0.0
O72 O 0.66784 0.75035 0.97198 0.0
C73 C 0.64248 0.75198 0.95845 0.0
C74 C 0.74475 0.73278 0.90518 0.0
O75 O 0.6352 0.7498 0.91717 0.0
C76 C 0.66705 0.69659 0.80974 0.0
O77 O 0.70595 0.78907 0.90536 0.0
O78 O 0.67452 0.76475 0.84585 0.0
O79 O 0.72024 0.70245 0.90743 0.0
O80 O 0.73938 0.7574 0.90918 0.0
C81 C 0.60379 0.65845 0.89344 0.0
O82 O 0.64438 0.70345 0.82229 0.0
O83 O 0.68496 0.6917 0.83778 0.0
C84 C 0.69723 0.79088 0.86548 0.0
O85 O 0.60677 0.6875 0.89635 0.0
O86 O 0.62929 0.6556 0.88362 0.0
C87 C 0.68144 0.69186 0.98623 0.0
Fe88 Fe 1.00361 0.66852 0.06922 0.0
Fe89 Fe 0.95436 0.69154 0.10341 0.0
O90 O 0.96284 0.66484 0.06894 0.0
Fe91 Fe 0.92983 0.63394 0.03487 0.0
O92 O 0.94406 0.60243 0.03686 0.0
O93 O 0.98617 0.6243 0.08482 0.0
O94 O 1.01064 0.67814 0.12913 0.0
C95 C 0.98979 0.67343 0.16037 0.0
C96 C 0.98407 0.65937 0.97792 0.0
O97 O 0.96297 0.67453 0.15321 0.0
C98 C 0.92144 0.69165 0.02726 0.0
O99 O 0.0251 0.71351 0.05451 0.0
O100 O 0.99824 0.72791 0.10289 0.0
O101 O 0.95422 0.6534 0.98504 0.0
O102 O 1.00283 0.65909 0.00918 0.0
C103 C 0.89511 0.62781 0.11164 0.0
O104 O 0.94464 0.70975 0.055 0.0
O105 O 0.9095 0.6597 0.02563 0.0
C106 C 0.02422 0.73575 0.07892 0.0
O107 O 0.90929 0.65992 0.11188 0.0
O108 O 0.90352 0.6127 0.0835 0.0
C109 C 0.96344 0.59896 0.06409 0.0
Fe110 Fe 0.3154 0.92328 0.20755 0.0
Fe111 Fe 0.35844 0.99855 0.23369 0.0
O112 O 0.32004 0.95901 0.23815 0.0
Fe113 Fe 0.28728 0.95571 0.27396 0.0
O114 O 0.28819 0.92271 0.30631 0.0
O115 O 0.29102 0.89175 0.25149 0.0
O116 O 0.35381 0.92631 0.23204 0.0
C117 C 0.38292 0.95249 0.22963 0.0
C118 C 0.25048 0.91336 0.19925 0.0
O119 O 0.38575 0.98088 0.22043 0.0
C120 C 0.30939 0.01978 0.24305 0.0
O121 O 0.33857 0.9491 0.15824 0.0
O122 O 0.35039 1.00128 0.17532 0.0
O123 O 0.25177 0.92447 0.23871 0.0
O124 O 0.27688 0.9167 0.18042 0.0
C125 C 0.34791 0.99475 0.32341 0.0
O126 O 0.33943 0.02501 0.24571 0.0
O127 O 0.28434 0.98978 0.24542 0.0
C128 C 0.34547 0.97886 0.14661 0.0
O129 O 0.36796 0.99715 0.29244 0.0
O130 O 0.31703 0.98558 0.31548 0.0
C131 C 0.2867 0.89585 0.29247 0.0
Fe132 Fe 0.68814 0.66569 0.39895 0.0
Fe133 Fe 0.76104 0.69443 0.36472 0.0
O134 O 0.72673 0.66456 0.39837 0.0
Fe135 Fe 0.73 0.63311 0.43007 0.0
O136 O 0.69228 0.59791 0.40403 0.0
O137 O 0.66001 0.62056 0.41108 0.0
O138 O 0.68152 0.65516 0.33954 0.0
C139 C 0.70366 0.672 0.31 0.0
C140 C 0.69758 0.65835 0.48748 0.0
O141 O 0.73328 0.69514 0.321 0.0
C142 C 0.79507 0.6876 0.44153 0.0
O143 O 0.70799 0.71135 0.38742 0.0
O144 O 0.76292 0.73107 0.39294 0.0
O145 O 0.70538 0.6359 0.47722 0.0
O146 O 0.69329 0.6758 0.45789 0.0
C147 C 0.76119 0.63471 0.34729 0.0
O148 O 0.79496 0.69811 0.4022 0.0
O149 O 0.76799 0.66456 0.45921 0.0
C150 C 0.73784 0.73599 0.3932 0.0
O151 O 0.7612 0.66079 0.33305 0.0
O152 O 0.75537 0.62579 0.38803 0.0
C153 C 0.66314 0.59491 0.40405 0.0
Fe154 Fe 0.08868 0.75511 0.53479 0.0
Fe155 Fe 0.11466 0.72419 0.60436 0.0
O156 O 0.08125 0.72055 0.56982 0.0
Fe157 Fe 0.04118 0.68247 0.56995 0.0
O158 O 0.03361 0.6841 0.51001 0.0
O159 O 0.08026 0.72919 0.48539 0.0
O160 O 0.13386 0.76929 0.52586 0.0
C161 C 0.1488 0.75207 0.52689 0.0
C162 C 1.0187 0.72777 0.56007 0.0
O163 O 0.14111 0.7291 0.55586 0.0
C164 C 0.06046 0.69522 0.6611 0.0
O165 O 0.09819 0.78361 0.5826 0.0
O166 O 0.13443 0.77038 0.61197 0.0
O167 O 1.01829 0.70464 0.58402 0.0
O168 O 0.04444 0.74649 0.53593 0.0
C169 C 0.08279 0.65517 0.57727 0.0
O170 O 0.09001 0.71969 0.65371 0.0
O171 O 0.04247 0.67482 0.63035 0.0
C172 C 0.1218 0.78972 0.61007 0.0
O173 O 0.10112 0.67856 0.60452 0.0
O174 O 0.06019 0.65685 0.55492 0.0
C175 C 0.05388 0.70081 0.47851 0.0
Fe176 Fe 0.36909 0.0298 0.73475 0.0
Fe177 Fe 0.34111 0.07412 0.69919 0.0
O178 O 0.37 0.06933 0.73413 0.0
Fe179 Fe 0.40034 0.10379 0.76713 0.0
O180 O 0.43629 0.10242 0.74181 0.0
O181 O 0.41418 0.04736 0.74781 0.0
O182 O 0.3807 0.03416 0.67569 0.0
C183 C 0.36448 0.03959 0.64559 0.0
C184 C 0.37497 0.0456 0.8235 0.0
O185 O 0.34109 0.04584 0.65572 0.0
C186 C 0.34513 0.11301 0.77662 0.0
O187 O 0.32354 1.004 0.7222 0.0
O188 O 0.30387 0.03931 0.72636 0.0
O189 O 0.39734 0.07604 0.8138 0.0
O190 O 0.35794 0.02415 0.79345 0.0
C191 C 0.40107 0.1342 0.6844 0.0
O192 O 0.3367 0.1041 0.73627 0.0
O193 O 0.36755 0.10865 0.79536 0.0
C194 C 0.29889 1.00931 0.72718 0.0
O195 O 0.37576 0.10809 0.6687 0.0
O196 O 0.40793 0.13698 0.72582 0.0
C197 C 0.43966 0.07653 0.74133 0.0
Fe198 Fe 0.35803 0.36685 0.90516 0.0
Fe199 Fe 0.28799 0.339 0.86183 0.0
O200 O 0.31961 0.36763 0.89945 0.0
Fe201 Fe 0.31367 0.39757 0.9307 0.0
O202 O 0.3521 0.43375 0.90763 0.0
O203 O 0.38456 0.4118 0.91971 0.0
O204 O 0.36906 0.37896 0.84695 0.0
C205 C 0.34987 0.3623 0.81486 0.0
C206 C 0.34303 0.37188 -0.00801 0.0
O207 O 0.31894 0.33996 0.82128 0.0
C208 C 0.24922 0.34172 0.936 0.0
O209 O 0.33946 0.32158 0.89198 0.0
O210 O 0.28433 0.30148 0.88961 0.0
O211 O 0.33621 0.39473 0.98032 0.0
O212 O 0.34866 0.35491 0.96322 0.0
C213 C 0.28758 0.39845 0.84514 0.0
O214 O 0.25143 0.3337 0.89583 0.0
O215 O 0.27507 0.36433 0.95622 0.0
C216 C 0.30934 0.29667 0.89337 0.0
O217 O 0.28993 0.37378 0.83037 0.0
O218 O 0.28973 0.405 0.88662 0.0
C219 C 0.38135 0.43719 0.91068 0.0
Fe220 Fe 1.00954 0.3536 0.077 0.0
Fe221 Fe 0.9661 0.28469 0.0307 0.0
O222 O 0.96988 0.31565 0.06999 0.0
Fe223 Fe 0.93425 0.30955 0.10211 0.0
O224 O 0.93703 0.34833 0.07982 0.0
O225 O 0.99144 0.38014 0.09363 0.0
O226 O 1.00905 0.3664 0.01972 0.0
C227 C 1.00505 0.34779 0.98627 0.0
C228 C 0.98912 0.33679 0.16333 0.0
O229 O 0.99532 0.31641 -0.00969 0.0
C230 C 0.92564 0.24512 0.10533 0.0
O231 O 0.03592 0.33514 0.06153 0.0
O232 O 1.0003 0.28034 0.05589 0.0
O233 O 0.95996 0.33156 0.1518 0.0
O234 O 1.01162 0.34229 0.13435 0.0
C235 C 0.90559 0.28356 0.01704 0.0
O236 O 0.93546 0.24777 0.06481 0.0
O237 O 0.92878 0.27062 0.1264 0.0
C238 C 0.03033 0.30497 0.05982 0.0
O239 O 0.9327 0.28691 0.00104 0.0
O240 O 0.90219 0.2859 0.05872 0.0
C241 C 0.96305 0.37741 0.0841 0.0
Fe242 Fe 0.67662 1.00202 0.23517 0.0
Fe243 Fe 0.70516 0.95829 0.19895 0.0
O244 O 0.67616 0.96269 0.23434 0.0
Fe245 Fe 0.64615 0.92812 0.2677 0.0
O246 O 0.60985 0.92921 0.24305 0.0
O247 O 0.63163 0.98414 0.24949 0.0
O248 O 0.66438 0.99736 0.1764 0.0
C249 C 0.68043 0.99203 0.14584 0.0
C250 C 0.6719 0.98633 0.32393 0.0
O251 O 0.70403 0.98591 0.15529 0.0
C252 C 0.70193 0.91956 0.27649 0.0
O253 O 0.72191 0.02835 0.22133 0.0
O254 O 0.74238 0.99375 0.22508 0.0
O255 O 0.6494 0.95589 0.3145 0.0
O256 O 0.68846 1.00786 0.29362 0.0
C257 C 0.64566 0.89741 0.1851 0.0
O258 O 0.71059 0.92896 0.23625 0.0
O259 O 0.67918 0.92341 0.29534 0.0
C260 C 0.74694 0.02358 0.22537 0.0
O261 O 0.67075 0.92369 0.16918 0.0
O262 O 0.63846 0.89492 0.22643 0.0
C263 C 0.6062 0.95494 0.24323 0.0
H264 H 0.43102 0.2359 0.43987 0.0
H265 H 0.42811 0.2023 0.70121 0.0
H266 H 0.41651 0.29403 0.5429 0.0
H267 H 0.41691 0.13117 0.59774 0.0
H268 H 0.44651 0.24709 0.64411 0.0
H269 H 0.44852 0.20929 0.49762 0.0
C270 C 0.4325 0.24375 0.47447 0.0
C271 C 0.42144 0.26633 0.48706 0.0
C272 C 0.44084 0.22185 0.63411 0.0
C273 C 0.4411 0.23618 0.55283 0.0
C274 C 0.43047 0.19641 0.66667 0.0
C275 C 0.42007 0.16298 0.6537 0.0
C276 C 0.44078 0.21355 0.58865 0.0
C277 C 0.42377 0.15654 0.60869 0.0
C278 C 0.44235 0.22854 0.5074 0.0
C279 C 0.42398 0.27592 0.53218 0.0
N280 N 0.43326 0.18146 0.5776 0.0
N281 N 0.43298 0.26036 0.5636 0.0
H282 H 0.31064 0.41543 0.76017 0.0
H283 H 0.15353 0.43539 0.69365 0.0
H284 H 0.24434 0.42378 0.85655 0.0
H285 H 0.21739 0.4204 0.60062 0.0
H286 H 0.19625 0.44917 0.75242 0.0
H287 H 0.2874 0.43529 0.70165 0.0
C288 C 0.29151 0.42205 0.76905 0.0
C289 C 0.27878 0.41731 0.81287 0.0
C290 C 0.20152 0.44404 0.7188 0.0
C291 C 0.2514 0.43925 0.74592 0.0
C292 C 0.1773 0.4365 0.68527 0.0
C293 C 0.18228 0.42692 0.64259 0.0
C294 C 0.23051 0.44149 0.70935 0.0
C295 C 0.21295 0.42794 0.63323 0.0
C296 C 0.27826 0.43342 0.73566 0.0
C297 C 0.25452 0.42681 0.82295 0.0
N298 N 0.23572 0.43453 0.66658 0.0
N299 N 0.24094 0.43657 0.78939 0.0
H300 H 0.83776 0.24209 0.03626 0.0
H301 H 0.79593 0.2032 0.77661 0.0
H302 H 0.90693 0.29743 0.92829 0.0
H303 H 0.74185 0.1322 0.88344 0.0
H304 H 0.82544 0.24815 0.83256 0.0
H305 H 0.79203 0.21255 0.98119 0.0
C306 C 0.84306 0.24872 0.00114 0.0
C307 C 0.87625 0.27164 -0.01342 0.0
C308 C 0.80649 0.2229 0.84362 0.0
C309 C 0.82442 0.23815 0.92377 0.0
C310 C 0.78956 0.19733 0.81172 0.0
C311 C 0.76711 0.16388 0.82564 0.0
C312 C 0.80069 0.21482 0.88949 0.0
C313 C 0.75964 0.15759 0.8715 0.0
C314 C 0.81706 0.2318 0.96975 0.0
C315 C 0.8818 0.2794 0.94074 0.0
N316 N 0.7768 0.1827 0.90188 0.0
N317 N 0.85628 0.26234 0.91088 0.0
H318 H 0.61268 0.8291 0.20554 0.0
H319 H 0.6316 0.73354 0.04582 0.0
H320 H 0.63631 0.89925 0.09571 0.0
H321 H 0.61329 0.79173 0.94691 0.0
H322 H 0.61565 0.75979 0.10454 0.0
H323 H 0.59371 0.78247 0.15149 0.0
C324 C 0.61342 0.83457 0.17008 0.0
C325 C 0.62731 0.86814 0.15484 0.0
C326 C 0.61372 0.76606 0.07011 0.0
C327 C 0.60685 0.81548 0.09295 0.0
C328 C 0.62321 0.75124 0.03648 0.0
C329 C 0.62447 0.76114 -0.00832 0.0
C330 C 0.6059 0.7914 0.05883 0.0
C331 C 0.61298 0.78373 0.98118 0.0
C332 C 0.60299 0.80804 0.13916 0.0
C333 C 0.62702 0.87384 0.10869 0.0
N334 N 0.60505 0.79885 0.01472 0.0
N335 N 0.61756 0.84788 0.07935 0.0
H336 H 0.80226 0.60712 0.36086 0.0
H337 H 0.82876 0.60813 0.09825 0.0
H338 H 0.74179 0.62096 0.26083 0.0
H339 H 0.89818 0.60694 0.1954 0.0
H340 H 0.78619 0.5933 0.15746 0.0
H341 H 0.82713 0.58859 0.30167 0.0
C342 C 0.79359 0.60533 0.32663 0.0
C343 C 0.77065 0.61626 0.31528 0.0
C344 C 0.81036 0.59534 0.16579 0.0
C345 C 0.79874 0.59536 0.24789 0.0
C346 C 0.83444 0.60349 0.13191 0.0
C347 C 0.8667 0.60869 0.14241 0.0
C348 C 0.81916 0.59338 0.21046 0.0
C349 C 0.87337 0.60307 0.1864 0.0
C350 C 0.80781 0.59491 0.29289 0.0
C351 C 0.76008 0.61347 0.27062 0.0
N352 N 0.85001 0.59636 0.21918 0.0
N353 N 0.77454 0.60375 0.23848 0.0
H354 H 0.21479 0.79955 0.54158 0.0
H355 H 0.24596 0.82697 0.27901 0.0
H356 H 0.14706 0.72939 0.44264 0.0
H357 H 0.30354 0.90167 0.38025 0.0
H358 H 0.21976 0.78355 0.33806 0.0
H359 H 0.2578 0.82874 0.48317 0.0
C360 C 0.20959 0.78961 0.50772 0.0
C361 C 0.17766 0.76218 0.49654 0.0
C362 C 0.23871 0.8093 0.34718 0.0
C363 C 0.22575 0.79605 0.42937 0.0
C364 C 0.25373 0.83398 0.31351 0.0
C365 C 0.27633 0.86795 0.32505 0.0
C366 C 0.24665 0.81883 0.39238 0.0
C367 C 0.28563 0.87581 0.37014 0.0
C368 C 0.23391 0.8064 0.47429 0.0
C369 C 0.1716 0.75052 0.45223 0.0
N370 N 0.27044 0.85157 0.40218 0.0
N371 N 0.19522 0.76791 0.41995 0.0
H372 H 0.50529 0.37848 0.40086 0.0
H373 H 0.59841 0.58242 0.39383 0.0
H374 H 0.45485 0.43759 0.39471 0.0
H375 H 0.65541 0.53008 0.40564 0.0
H376 H 0.54605 0.52815 0.39184 0.0
H377 H 0.56063 0.43195 0.40153 0.0
C378 C 0.50577 0.40255 0.39976 0.0
C379 C 0.4752 0.40337 0.39759 0.0
C380 C 0.56987 0.52825 0.39485 0.0
C381 C 0.5383 0.46447 0.39814 0.0
C382 C 0.6 0.55945 0.39597 0.0
C383 C 0.63158 0.56105 0.40023 0.0
C384 C 0.5708 0.49787 0.39803 0.0
C385 C 0.63168 0.53012 0.40239 0.0
C386 C 0.53736 0.43304 0.40006 0.0
C387 C 0.4775 0.43538 0.39624 0.0
N388 N 0.60171 0.49974 0.40146 0.0
N389 N 0.50828 0.46436 0.39647 0.0
H390 H 0.10029 0.4804 0.49749 0.0
H391 H 0.10165 0.62688 0.64428 0.0
H392 H 0.07054 0.46436 0.63672 0.0
H393 H 0.06878 0.61173 0.50643 0.0
H394 H 0.10281 0.57341 0.64169 0.0
H395 H 0.10121 0.53495 0.49977 0.0
C396 C 0.09423 0.48849 0.52861 0.0
C397 C 0.08524 0.4678 0.56697 0.0
C398 C 0.09547 0.58192 0.61203 0.0
C399 C 0.08681 0.53027 0.56989 0.0
C400 C 0.09499 0.61247 0.61336 0.0
C401 C 0.08505 0.62372 0.57551 0.0
C402 C 0.08683 0.56294 0.57223 0.0
C403 C 0.07643 0.60388 0.53641 0.0
C404 C 0.09459 0.51947 0.52978 0.0
C405 C 0.07741 0.47945 0.60634 0.0
N406 N 0.07778 0.57459 0.53565 0.0
N407 N 0.07866 0.51004 0.60691 0.0
H408 H 0.5972 0.02518 0.7204 0.0
H409 H 0.50372 0.13467 0.74211 0.0
H410 H 0.65402 0.13428 0.73763 0.0
H411 H 0.4535 0.02522 0.73121 0.0
H412 H 0.55915 0.13702 0.73822 0.0
H413 H 0.54475 0.02667 0.72233 0.0
C414 C 0.59875 0.04962 0.72459 0.0
C415 C 0.63032 0.07969 0.72878 0.0
C416 C 0.53591 0.11259 0.73664 0.0
C417 C 0.56941 0.08155 0.73115 0.0
C418 C 0.50428 0.11121 0.73874 0.0
C419 C 0.47379 0.07967 0.73724 0.0
C420 C 0.53691 0.08222 0.73281 0.0
C421 C 0.47614 0.05014 0.73285 0.0
C422 C 0.56855 0.05043 0.72572 0.0
C423 C 0.6303 0.11046 0.73426 0.0
N424 N 0.50695 0.05219 0.73087 0.0
N425 N 0.60027 0.11063 0.73528 0.0
H426 H 0.38765 0.50111 0.90273 0.0
H427 H 0.59149 0.59356 0.89754 0.0
H428 H 0.44686 0.45088 0.91194 0.0
H429 H 0.53921 0.651 0.89857 0.0
H430 H 0.53726 0.54133 0.90148 0.0
H431 H 0.44115 0.55634 0.89947 0.0
C432 C 0.41175 0.50163 0.90402 0.0
C433 C 0.41265 0.4712 0.90776 0.0
C434 C 0.53736 0.56522 0.90092 0.0
C435 C 0.47366 0.53404 0.90405 0.0
C436 C 0.56853 0.59526 0.89859 0.0
C437 C 0.57008 0.6269 0.8975 0.0
C438 C 0.50702 0.56635 0.9021 0.0
C439 C 0.53923 0.62718 0.89933 0.0
C440 C 0.44223 0.53313 0.90227 0.0
C441 C 0.44464 0.47347 0.90927 0.0
N442 N 0.50886 0.5973 0.90138 0.0
N443 N 0.47361 0.50415 0.90741 0.0
H444 H 0.91004 0.38533 0.05298 0.0
H445 H 1.00571 0.58431 0.1124 0.0
H446 H 1.01041 0.44124 0.1112 0.0
H447 H 0.9169 0.53703 0.02735 0.0
H448 H 1.00379 0.52994 0.11862 0.0
H449 H 0.90829 0.43858 0.04919 0.0
C450 C 0.93159 0.40867 0.06514 0.0
C451 C 0.96043 0.40873 0.08237 0.0
C452 C 0.98467 0.53136 0.09857 0.0
C453 C 0.95854 0.46956 0.0783 0.0
C454 C 0.9857 0.56249 0.09505 0.0
C455 C 0.96155 0.56546 0.06905 0.0
C456 C 0.95918 0.50265 0.07618 0.0
C457 C 0.93617 0.53604 0.04756 0.0
C458 C 0.93062 0.43905 0.06283 0.0
C459 C 0.98767 0.43981 0.09747 0.0
N460 N 0.93565 0.50587 0.05158 0.0
N461 N 0.98599 0.46879 0.09516 0.0
H462 H 0.44773 1.00554 0.23332 0.0
H463 H 0.54229 0.89643 0.24069 0.0
H464 H 0.39108 0.89565 0.23436 0.0
H465 H 0.59168 1.00613 0.2392 0.0
H466 H 0.4866 0.89368 0.23829 0.0
H467 H 0.50027 1.00432 0.23618 0.0
C468 C 0.44624 0.98098 0.23415 0.0
C469 C 0.41468 0.95063 0.23332 0.0
C470 C 0.50973 0.91826 0.23848 0.0
C471 C 0.47577 0.94904 0.23665 0.0
C472 C 0.54151 0.91987 0.23976 0.0
C473 C 0.57187 0.95158 0.24033 0.0
C474 C 0.50842 0.94857 0.2377 0.0
C475 C 0.5692 0.98106 0.23905 0.0
C476 C 0.4765 0.98031 0.23581 0.0
C477 C 0.41479 0.91969 0.23488 0.0
N478 N 0.53826 0.97878 0.23786 0.0
N479 N 0.44491 0.91966 0.23634 0.0
H480 H 0.39016 0.39739 0.53195 0.0
H481 H 0.35801 0.31357 0.77579 0.0
H482 H 0.35714 0.29216 0.56076 0.0
H483 H 0.37312 0.414 0.75398 0.0
H484 H 0.37175 0.31119 0.6973 0.0
H485 H 0.39635 0.4092 0.61316 0.0
C486 C 0.38458 0.37696 0.55529 0.0
C487 C 0.37244 0.34364 0.53991 0.0
C488 C 0.37257 0.33403 0.70958 0.0
C489 C 0.37996 0.35691 0.63176 0.0
C490 C 0.36493 0.33538 0.75435 0.0
C491 C 0.36451 0.36395 0.77073 0.0
C492 C 0.37894 0.36113 0.68078 0.0
C493 C 0.37342 0.39162 0.74208 0.0
C494 C 0.38811 0.38367 0.60143 0.0
C495 C 0.36582 0.31807 0.57126 0.0
N496 N 0.37978 0.38935 0.698 0.0
N497 N 0.36953 0.32522 0.61555 0.0
H498 H 0.96395 0.34637 0.9202 0.0
H499 H 0.10599 0.3858 0.73798 0.0
H500 H 0.06893 0.38161 0.95209 0.0
H501 H 1.00296 0.35938 0.70492 0.0
H502 H 0.09496 0.39273 0.81593 0.0
H503 H 0.97953 0.35984 0.84117 0.0
C504 C 0.99043 0.35776 0.9104 0.0
C505 C 1.0153 0.36299 0.94195 0.0
C506 C 0.07484 0.38576 0.79161 0.0
C507 C 0.03328 0.37759 0.85229 0.0
C508 C 0.08106 0.38163 0.74706 0.0
C509 C 0.05512 0.37135 0.71503 0.0
C510 C 0.04231 0.37916 0.8044 0.0
C511 C 1.02354 0.36689 0.72863 0.0
C512 C 0.99935 0.36537 0.86546 0.0
C513 C 0.04923 0.37751 0.9283 0.0
N514 N 1.01786 0.37035 0.77248 0.0
N515 N 0.05723 0.3839 0.88418 0.0
H516 H 0.66229 0.05821 0.88189 0.0
H517 H 0.68786 0.9563 0.07957 0.0
H518 H 0.69271 0.98289 0.86617 0.0
H519 H 0.65476 0.02887 0.10407 0.0
H520 H 0.6794 0.95927 0.00017 0.0
H521 H 0.64921 0.04183 0.96137 0.0
C522 C 0.66519 0.03756 0.89504 0.0
C523 C 0.67864 0.02183 0.86818 0.0
C524 C 0.67375 0.97454 0.0226 0.0
C525 C 0.66431 1.00338 0.95789 0.0
C526 C 0.67871 0.97291 0.06808 0.0
C527 C 0.67259 0.99286 0.09825 0.0
C528 C 0.66344 0.99702 0.00664 0.0
C529 C 0.66011 1.0134 0.08164 0.0
C530 C 0.65796 0.02838 0.94021 0.0
C531 C 0.68251 0.99562 0.88623 0.0
N532 N 0.65654 1.0155 0.03658 0.0
N533 N 0.67563 0.9874 0.93006 0.0
H534 H 0.64147 0.64535 0.26676 0.0
H535 H 0.73507 0.69556 0.0294 0.0
H536 H 0.74868 0.68409 0.24393 0.0
H537 H 0.62739 0.65764 0.04306 0.0
H538 H 0.73732 0.68141 0.10747 0.0
H539 H 0.63253 0.64076 0.18493 0.0
C540 C 0.66296 0.65255 0.2446 0.0
C541 C 0.69596 0.66592 0.26189 0.0
C542 C 0.71299 0.67572 0.09359 0.0
C543 C 0.68601 0.66031 0.16931 0.0
C544 C 0.71179 0.68373 0.04901 0.0
C545 C 0.68109 0.67783 0.03041 0.0
C546 C 0.68343 0.66263 0.12015 0.0
C547 C 0.65149 0.6624 0.0567 0.0
C548 C 0.65788 0.64989 0.19809 0.0
C549 C 0.72293 0.67452 0.232 0.0
N550 N 0.65345 0.65585 0.10079 0.0
N551 N 0.71736 0.67175 0.18736 0.0
H552 H 0.99134 0.6533 0.44688 0.0
H553 H 0.0513 0.68517 0.19163 0.0
H554 H 0.09496 0.72173 0.40478 0.0
H555 H 0.94874 0.6542 0.23433 0.0
H556 H 0.06687 0.68421 0.2697 0.0
H557 H 0.9751 0.63907 0.36834 0.0
C558 C 1.01075 0.66495 0.42119 0.0
C559 C 0.04445 0.68911 0.43215 0.0
C560 C 0.04089 0.6773 0.26176 0.0
C561 C 0.02611 0.67279 0.34292 0.0
C562 C 0.03196 0.67782 0.21733 0.0
C563 C 0.9988 0.67026 0.20666 0.0
C564 C 1.01639 0.66883 0.29548 0.0
C565 C 0.97471 0.66064 0.24121 0.0
C566 C 1.00144 0.65687 0.37652 0.0
C567 C 0.06862 0.70332 0.39766 0.0
N568 N 0.98405 0.66039 0.28426 0.0
N569 N 0.05892 0.69508 0.35444 0.0
H570 H 0.38726 0.97973 0.37778 0.0
H571 H 0.35825 0.07685 0.58047 0.0
H572 H 0.338 0.0397 0.36971 0.0
H573 H 0.3883 1.00165 0.60236 0.0
H574 H 0.36499 0.07333 0.50056 0.0
H575 H 0.40073 0.99638 0.45718 0.0
C576 C 0.38003 0.99698 0.39258 0.0
C577 C 0.36129 1.00823 0.36789 0.0
C578 C 0.37025 0.05757 0.52259 0.0
C579 C 0.37649 0.02725 0.45726 0.0
C580 C 0.36631 0.05951 0.56829 0.0
C581 C 0.37193 0.03887 0.59782 0.0
C582 C 0.3791 0.03419 0.50588 0.0
C583 C 0.38326 0.01759 0.58039 0.0
C584 C 0.38751 1.00628 0.43767 0.0
C585 C 0.35217 0.03026 0.38805 0.0
N586 N 0.38588 1.01525 0.53517 0.0
N587 N 0.35972 0.03891 0.43158 0.0
H588 H 0.30006 0.17542 0.39393 0.0
H589 H 0.34577 0.08183 0.2038 0.0
H590 H 0.3646 0.22735 0.28051 0.0
H591 H 0.26546 0.02682 0.29977 0.0
H592 H 0.34949 0.13493 0.22828 0.0
H593 H 0.28408 0.12078 0.35826 0.0
C594 C 0.3106 0.17544 0.36134 0.0
C595 C 0.33401 0.20627 0.34051 0.0
C596 C 0.33052 0.11126 0.24348 0.0
C597 C 0.31588 0.14351 0.29951 0.0
C598 C 0.32822 0.08087 0.22921 0.0
C599 C 0.30503 0.0498 0.2494 0.0
C600 C 0.31005 0.1109 0.27912 0.0
C601 C 0.2833 0.05012 0.28276 0.0
C602 C 0.30141 0.14414 0.34095 0.0
C603 C 0.34668 0.20443 0.29817 0.0
N604 N 0.28673 0.08025 0.29712 0.0
N605 N 0.33776 0.17374 0.27943 0.0
H606 H 0.27486 0.33328 0.37084 0.0
H607 H 0.12894 0.28277 0.55458 0.0
H608 H 0.24806 0.25248 0.46625 0.0
H609 H 0.15891 0.36235 0.45605 0.0
H610 H 0.16527 0.26447 0.51652 0.0
H611 H 0.22508 0.33666 0.39389 0.0
C612 C 0.25785 0.31557 0.39585 0.0
C613 C 0.2655 0.2925 0.41651 0.0
C614 C 0.16345 0.28561 0.50292 0.0
C615 C 0.20895 0.29711 0.4447 0.0
C616 C 0.14262 0.29599 0.52454 0.0
C617 C 0.14123 0.32445 0.50884 0.0
C618 C 0.18278 0.30373 0.46524 0.0
C619 C 0.15958 0.34063 0.46982 0.0
C620 C 0.22953 0.31768 0.40937 0.0
C621 C 0.24282 0.27037 0.44912 0.0
N622 N 0.17968 0.33025 0.44972 0.0
N623 N 0.21588 0.27363 0.46286 0.0
H624 H 0.81016 0.14515 0.62061 0.0
H625 H 1.01213 0.25243 0.659 0.0
H626 H 0.85893 0.13895 0.74151 0.0
H627 H 0.9605 0.27011 0.54994 0.0
H628 H 0.95761 0.2046 0.6837 0.0
H629 H 0.86599 0.18451 0.58907 0.0
C630 C 0.83259 0.15177 0.64051 0.0
C631 C 0.82959 0.13875 0.68413 0.0
C632 C 0.95827 0.2187 0.65407 0.0
C633 C 0.89407 0.18425 0.64781 0.0
C634 C 0.98949 0.24595 0.63967 0.0
C635 C 0.99108 0.26564 0.60234 0.0
C636 C 0.92825 0.21079 0.63092 0.0
C637 C 0.96066 0.25589 0.57898 0.0
C638 C 0.86456 0.17439 0.62238 0.0
C639 C 0.85983 0.14832 0.70789 0.0
N640 N 0.93059 0.22939 0.59379 0.0
N641 N 0.89072 0.17061 0.68957 0.0
H642 H 0.78011 1.00652 0.80675 0.0
H643 H 0.68382 0.80346 0.78037 0.0
H644 H 0.7014 0.94946 0.70992 0.0
H645 H 0.74092 0.85536 0.89871 0.0
H646 H 0.70039 0.85831 0.74617 0.0
H647 H 0.77651 0.9532 0.83207 0.0
C648 C 0.76293 0.98296 0.78979 0.0
C649 C 0.74114 0.9824 0.75597 0.0
C650 C 0.70955 0.85779 0.77949 0.0
C651 C 0.73649 0.92139 0.7852 0.0
C652 C 0.7001 0.82637 0.79916 0.0
C653 C 0.71058 0.82455 0.8429 0.0
C654 C 0.72977 0.88796 0.80345 0.0
C655 C 0.73199 0.85539 0.8651 0.0
C656 C 0.76056 0.9525 0.80466 0.0
C657 C 0.71874 0.95103 0.73596 0.0
N658 N 0.74065 0.8858 0.84529 0.0
N659 N 0.71689 0.92188 0.75097 0.0
H660 H 0.79762 0.78011 0.95671 0.0
H661 H 0.88771 0.66765 0.94881 0.0
H662 H 0.76973 0.69532 0.86791 0.0
H663 H 0.91498 0.748 0.04516 0.0
H664 H 0.85193 0.68529 0.91016 0.0
H665 H 0.84783 0.77684 0.98026 0.0
C666 C 0.80271 0.76161 0.94101 0.0
C667 C 0.77947 0.7379 0.91032 0.0
C668 C 0.86592 0.6994 0.93948 0.0
C669 C 0.83632 0.73357 0.93769 0.0
C670 C 0.8864 0.68929 0.96162 0.0
C671 C 0.90402 0.70606 0.00065 0.0
C672 C 0.86244 0.72631 0.95664 0.0
C673 C 0.90172 0.73427 0.01527 0.0
C674 C 0.83115 0.75949 0.95485 0.0
C675 C 0.78694 0.71402 0.89173 0.0
N676 N 0.88084 0.7432 -0.00634 0.0
N677 N 0.81442 0.71227 0.906 0.0
H678 H 0.2382 0.88304 0.11646 0.0
H679 H 0.03482 0.78485 0.14091 0.0
H680 H 0.18597 0.89547 0.22951 0.0
H681 H 0.08791 0.76008 0.04114 0.0
H682 H 0.08937 0.83171 0.16663 0.0
H683 H 0.18323 0.84436 0.08234 0.0
C684 C 0.21522 0.87795 0.13406 0.0
C685 C 0.21697 0.89254 0.1763 0.0
C686 C 0.08908 0.81628 0.13878 0.0
C687 C 0.15347 0.84786 0.13696 0.0
C688 C 0.05783 0.78956 0.12375 0.0
C689 C 0.05652 0.7681 0.0888 0.0
C690 C 0.11951 0.82194 0.11872 0.0
C691 C 0.08746 0.77572 0.0682 0.0
C692 C 0.18375 0.85571 0.11446 0.0
C693 C 0.18607 0.88485 0.19707 0.0
N694 N 0.11759 0.80176 0.08366 0.0
N695 N 0.15569 0.86296 0.17735 0.0
H696 H 0.95545 0.68715 0.59842 0.0
H697 H 0.85925 0.73725 0.41532 0.0
H698 H 1.00736 0.76778 0.50155 0.0
H699 H 0.80694 0.66425 0.52091 0.0
H700 H 0.91366 0.75138 0.44968 0.0
H701 H 0.90115 0.68129 0.57448 0.0
C702 C 0.95559 0.70404 0.57267 0.0
C703 C 0.98626 0.72789 0.5519 0.0
C704 C 0.89029 0.7325 0.46563 0.0
C705 C 0.92378 0.72087 0.5237 0.0
C706 C 0.8591 0.72441 0.44599 0.0
C707 C 0.82823 0.69933 0.46496 0.0
C708 C 0.89089 0.71526 0.50449 0.0
C709 C 0.82993 0.68368 0.50486 0.0
C710 C 0.92447 0.70056 0.55885 0.0
C711 C 0.98455 0.74895 0.51858 0.0
N712 N 0.86063 0.69165 0.52296 0.0
N713 N 0.95395 0.74468 0.50526 0.0
H714 H 0.15463 0.80038 0.68928 0.0
H715 H 0.24518 1.00325 0.67716 0.0
H716 H 0.12841 0.85235 0.58994 0.0
H717 H 0.2749 0.94703 0.76438 0.0
H718 H 0.19462 0.94938 0.65484 0.0
H719 H 0.19048 0.85438 0.72679 0.0
C720 C 0.15616 0.82322 0.67559 0.0
C721 C 0.13885 0.82189 0.63605 0.0
C722 C 0.2118 0.94896 0.67965 0.0
C723 C 0.18056 0.88436 0.6787 0.0
C724 C 0.24042 0.97972 0.69277 0.0
C725 C 0.26421 0.97952 0.72267 0.0
C726 C 0.20699 0.91798 0.69682 0.0
C727 C 0.25722 0.94829 0.74119 0.0
C728 C 0.17671 0.85414 0.69706 0.0
C729 C 0.14142 0.85226 0.62027 0.0
N730 N 0.22952 0.91888 0.72771 0.0
N731 N 0.16239 0.88241 0.64124 0.0
H732 H 0.29728 0.12909 0.74752 0.0
H733 H 0.34653 0.27201 0.93247 0.0
H734 H 0.36337 0.14342 0.8594 0.0
H735 H 0.26423 0.24432 0.83937 0.0
H736 H 0.34941 0.22183 0.90983 0.0
H737 H 0.2816 0.16796 0.78295 0.0
C738 C 0.30821 0.14003 0.77977 0.0
C739 C 0.33201 0.1331 0.80018 0.0
C740 C 0.33022 0.22622 0.89488 0.0
C741 C 0.31425 0.17797 0.84086 0.0
C742 C 0.32845 0.2548 0.90803 0.0
C743 C 0.30501 0.26226 0.88796 0.0
C744 C 0.30892 0.20519 0.86052 0.0
C745 C 0.28241 0.2393 0.8561 0.0
C746 C 0.29918 0.16224 0.80002 0.0
C747 C 0.34513 0.14806 0.8421 0.0
N748 N 0.28533 0.21212 0.84276 0.0
N749 N 0.33641 0.17 0.86068 0.0
H750 H 0.18494 0.29882 0.90151 0.0
H751 H 0.09269 0.33909 0.09873 0.0
H752 H 0.23601 0.35343 0.02167 0.0
H753 H 0.03614 0.26261 -0.00085 0.0
H754 H 0.14504 0.34182 0.07264 0.0
H755 H 0.13 0.28264 0.93709 0.0
C756 C 0.18468 0.30706 0.93549 0.0
C757 C 0.21535 0.3279 0.9583 0.0
C758 C 0.12117 0.32391 0.05691 0.0
C759 C 0.15248 0.30964 -0.00089 0.0
C760 C 0.09123 0.32223 0.07204 0.0
C761 C 0.06 0.30042 0.05134 0.0
C762 C 0.12019 0.30428 0.01991 0.0
C763 C 0.05963 0.27944 0.01646 0.0
C764 C 0.15326 0.29779 0.9558 0.0
C765 C 0.21323 0.33769 0.00238 0.0
N766 N 0.08936 0.28231 0.00127 0.0
N767 N 0.18252 0.32884 0.02099 0.0
H768 H 0.7735 0.08506 0.26585 0.0
H769 H 0.90595 0.18151 0.06997 0.0
H770 H 0.79655 0.03094 0.16619 0.0
H771 H 0.90069 0.23075 0.19103 0.0
H772 H 0.86847 0.12602 0.10512 0.0
H773 H 0.82268 0.13835 0.24087 0.0
C774 C 0.7896 0.08436 0.2395 0.0
C775 C 0.78121 0.05355 0.21843 0.0
C776 C 0.87594 0.14901 0.12411 0.0
C777 C 0.83686 0.11476 0.18808 0.0
C778 C 0.89732 0.18074 0.10404 0.0
C779 C 0.90629 0.21105 0.12725 0.0
C780 C 0.86318 0.14753 0.16757 0.0
C781 C 0.89429 0.20827 0.17144 0.0
C782 C 0.81756 0.11482 0.22496 0.0
C783 C 0.80252 0.05411 0.18383 0.0
N784 N 0.87317 0.17725 0.18982 0.0
N785 N 0.82902 0.08433 0.16913 0.0
H786 H 0.70071 0.76061 0.43247 0.0
H787 H 0.74978 0.9034 0.24698 0.0
H788 H 0.78358 0.78866 0.33992 0.0
H789 H 0.68415 0.88943 0.35957 0.0
H790 H 0.76565 0.86465 0.28251 0.0
H791 H 0.69787 0.81083 0.40974 0.0
C792 C 0.71899 0.77797 0.40823 0.0
C793 C 0.74262 0.77063 0.38839 0.0
C794 C 0.74814 0.87044 0.29969 0.0
C795 C 0.73864 0.82765 0.36061 0.0
C796 C 0.73901 0.89259 0.27939 0.0
C797 C 0.71528 0.89959 0.29998 0.0
C798 C 0.73323 0.85483 0.34076 0.0
C799 C 0.70233 0.88475 0.3421 0.0
C800 C 0.71721 0.80655 0.39496 0.0
C801 C 0.76533 0.79368 0.35657 0.0
N802 N 0.71114 0.86287 0.36071 0.0
N803 N 0.76238 0.82082 0.34305 0.0
H804 H 0.40159 0.32038 0.24104 0.0
H805 H 0.32696 0.39804 0.06457 0.0
H806 H 0.33954 0.36372 0.27948 0.0
H807 H 0.3689 0.33438 0.02824 0.0
H808 H 0.33475 0.38947 0.14363 0.0
H809 H 0.39337 0.32925 0.16262 0.0
C810 C 0.38632 0.33187 0.233 0.0
C811 C 0.37132 0.34144 0.26685 0.0
C812 C 0.34218 0.37738 0.11827 0.0
C813 C 0.36177 0.35159 0.17713 0.0
C814 C 0.33787 0.38235 0.0732 0.0
C815 C 0.34743 0.36701 0.03979 0.0
C816 C 0.35636 0.35717 0.12988 0.0
C817 C 0.3612 0.34673 0.05285 0.0
C818 C 0.38152 0.3368 0.1882 0.0
C819 C 0.35157 0.35597 0.25443 0.0
N820 N 0.36536 0.34251 0.09689 0.0
N821 N 0.34745 0.36072 0.21048 0.0
H822 H 0.99939 0.3619 0.45227 0.0
H823 H 0.04712 0.34341 0.19983 0.0
H824 H 0.08974 0.35955 0.41215 0.0
H825 H 0.95154 0.33641 0.23577 0.0
H826 H 0.06233 0.34903 0.27858 0.0
H827 H 0.98026 0.35186 0.37398 0.0
C828 C 1.01511 0.35918 0.42714 0.0
C829 C 0.04636 0.36193 0.4387 0.0
C830 C 0.03797 0.34621 0.26939 0.0
C831 C 0.02475 0.35051 0.34964 0.0
C832 C 0.02931 0.3431 0.22432 0.0
C833 C 0.99812 0.33968 0.21117 0.0
C834 C 1.01538 0.34605 0.30172 0.0
C835 C 0.97593 0.33913 0.24448 0.0
C836 C 1.0042 0.35346 0.38256 0.0
C837 C 0.06565 0.35803 0.40486 0.0
N838 N 0.98507 0.34245 0.28835 0.0
N839 N 0.05459 0.35267 0.36198 0.0
H840 H 0.67912 0.98883 0.6119 0.0
H841 H 0.70812 0.05123 0.35741 0.0
H842 H 0.71751 0.09377 0.57421 0.0
H843 H 0.64784 0.94597 0.39805 0.0
H844 H 0.71644 0.06795 0.43637 0.0
H845 H 0.67238 0.97334 0.53301 0.0
C846 C 0.68614 1.00866 0.58703 0.0
C847 C 0.69871 0.04265 0.59967 0.0
C848 C 0.70133 0.04123 0.42788 0.0
C849 C 0.69111 0.02501 0.50921 0.0
C850 C 0.69662 0.03166 0.38289 0.0
C851 C 0.67711 0.99716 0.37116 0.0
C852 C 0.68671 0.01609 0.4612 0.0
C853 C 0.66286 0.97287 0.40552 0.0
C854 C 0.6822 0.99975 0.54197 0.0
C855 C 0.70749 0.06723 0.56592 0.0
N856 N 0.66802 0.98282 0.44898 0.0
N857 N 0.70356 0.05792 0.52212 0.0
H858 H 0.71188 0.63183 0.56076 0.0
H859 H 0.63909 0.71118 0.73777 0.0
H860 H 0.67021 0.69528 0.52218 0.0
H861 H 0.703 0.66927 0.77282 0.0
H862 H 0.64535 0.70121 0.65861 0.0
H863 H 0.70349 0.64065 0.63915 0.0
C864 C 0.7008 0.64749 0.56876 0.0
C865 C 0.6917 0.66283 0.53489 0.0
C866 C 0.65798 0.69426 0.68373 0.0
C867 C 0.68216 0.6731 0.62457 0.0
C868 C 0.65435 0.69983 0.72884 0.0
C869 C 0.67049 0.69098 0.7619 0.0
C870 C 0.67763 0.6795 0.67181 0.0
C871 C 0.69012 0.67654 0.74849 0.0
C872 C 0.69616 0.65263 0.61354 0.0
C873 C 0.67764 0.68302 0.54726 0.0
N874 N 0.69304 0.67116 0.70448 0.0
N875 N 0.67323 0.68755 0.5912 0.0
H876 H 0.06496 0.74252 0.71959 0.0
H877 H 1.02005 0.63359 0.93713 0.0
H878 H 0.02853 0.63504 0.70663 0.0
H879 H 0.9749 0.69628 0.91425 0.0
H880 H 0.03768 0.64098 0.85785 0.0
H881 H 0.04583 0.73325 0.79793 0.0
C882 C 0.0529 0.71701 0.73342 0.0
C883 C 0.04797 0.68939 0.70713 0.0
C884 C 0.02392 0.65302 0.87052 0.0
C885 C 0.02727 0.67899 0.79589 0.0
C886 C 1.01418 0.6491 0.91543 0.0
C887 C 0.99615 0.66443 0.93167 0.0
C888 C 1.01639 0.67323 0.84269 0.0
C889 C 0.98873 0.68404 0.90258 0.0
C890 C 0.04204 0.7118 0.77774 0.0
C891 C 0.03234 0.65679 0.72612 0.0
N892 N 0.99929 0.68827 0.85937 0.0
N893 N 1.02283 0.65245 0.76989 0.0
H894 H 0.33858 0.98066 0.85699 0.0
H895 H 0.37179 0.04255 0.11125 0.0
H896 H 0.40109 0.08563 0.89741 0.0
H897 H 0.33008 0.93718 0.07342 0.0
H898 H 0.37896 0.05825 0.03246 0.0
H899 H 0.33154 0.96368 0.93587 0.0
C900 C 0.35085 1.00012 0.8824 0.0
C901 C 0.37054 0.03462 0.87065 0.0
C902 C 0.36837 0.0317 0.04134 0.0
C903 C 0.36245 1.01538 0.96056 0.0
C904 C 0.36419 0.02268 0.08635 0.0
C905 C 0.35042 0.98848 0.09892 0.0
C906 C 0.35848 1.00637 0.00853 0.0
C907 C 0.34099 0.96387 0.06516 0.0
C908 C 0.34688 0.99039 0.92733 0.0
C909 C 0.38584 0.05874 0.9049 0.0
N910 N 0.34511 0.9733 0.02136 0.0
N911 N 0.38137 0.04865 0.94831 0.0
loop_
_geom_bond_atom_site_label_1
_geom_bond_atom_site_label_2
_geom_bond_distance
_geom_bond_site_symmetry_2
_ccdc_geom_bond_type
Fe0 O2 1.918 . S
Fe0 O5 1.997 . S
Fe0 O6 2.002 . S
Fe0 O11 1.976 . S
Fe0 O14 1.996 . S
Fe1 O2 1.918 . S
Fe1 O9 1.997 . S
Fe1 O12 1.996 . S
Fe1 O16 1.976 . S
Fe1 O19 2.002 . S
O2 Fe0 1.918 . S
O2 Fe1 1.918 . S
O2 Fe3 1.918 . S
Fe3 O2 1.918 . S
Fe3 O4 2.002 . S
Fe3 O13 1.976 . S
Fe3 O17 1.996 . S
Fe3 O20 1.997 . S
O4 Fe3 2.002 . S
O4 C21 1.295 . S
O5 Fe0 1.997 . S
O5 C21 1.235 . S
O6 Fe0 2.002 . S
O6 C7 1.295 . S
C7 O6 1.295 . S
C7 O9 1.235 . S
C8 O13 1.287 . S
C8 O14 1.255 . S
O9 Fe1 1.997 . S
O9 C7 1.235 . S
C10 O16 1.287 . S
C10 O17 1.255 . S
O11 Fe0 1.976 . S
O11 C18 1.287 . S
O12 Fe1 1.996 . S
O12 C18 1.255 . S
O13 Fe3 1.976 . S
O13 C8 1.287 . S
O14 Fe0 1.996 . S
O14 C8 1.255 . S
C15 O19 1.295 . S
C15 O20 1.235 . S
O16 Fe1 1.976 . S
O16 C10 1.287 . S
O17 Fe3 1.996 . S
O17 C10 1.255 . S
C18 O11 1.287 . S
C18 O12 1.255 . S
O19 Fe1 2.002 . S
O19 C15 1.295 . S
O20 Fe3 1.997 . S
O20 C15 1.235 . S
C21 O4 1.295 . S
C21 O5 1.235 . S
Fe22 O24 1.918 . S
Fe22 O27 1.997 . S
Fe22 O28 2.002 . S
Fe22 O33 1.976 . S
Fe22 O36 1.996 . S
Fe23 O24 1.918 . S
Fe23 O31 1.997 . S
Fe23 O34 1.996 . S
Fe23 O38 1.976 1_455 S
Fe23 O41 2.002 . S
O24 Fe22 1.918 . S
O24 Fe23 1.918 . S
O24 Fe25 1.918 . S
Fe25 O24 1.918 . S
Fe25 O26 2.002 . S
Fe25 O35 1.976 . S
Fe25 O39 1.996 . S
Fe25 O42 1.997 . S
O26 Fe25 2.002 . S
O26 C43 1.295 . S
O27 Fe22 1.997 . S
O27 C43 1.235 . S
O28 Fe22 2.002 . S
O28 C29 1.295 . S
C29 O28 1.295 . S
C29 O31 1.235 . S
C30 O35 1.287 . S
C30 O36 1.255 . S
O31 Fe23 1.997 . S
O31 C29 1.235 . S
C32 O38 1.287 . S
C32 O39 1.255 1_655 S
O33 Fe22 1.976 . S
O33 C40 1.287 . S
O34 Fe23 1.996 . S
O34 C40 1.255 . S
O35 Fe25 1.976 . S
O35 C30 1.287 . S
O36 Fe22 1.996 . S
O36 C30 1.255 . S
C37 O41 1.295 . S
C37 O42 1.235 . S
O38 Fe23 1.976 1_655 S
O38 C32 1.287 . S
O39 Fe25 1.996 . S
O39 C32 1.255 1_455 S
C40 O33 1.287 . S
C40 O34 1.255 . S
O41 Fe23 2.002 . S
O41 C37 1.295 . S
O42 Fe25 1.997 . S
O42 C37 1.235 . S
C43 O26 1.295 . S
C43 O27 1.235 . S
Fe44 O46 1.918 . S
Fe44 O49 1.997 . S
Fe44 O50 2.002 . S
Fe44 O55 1.976 1_545 S
Fe44 O58 1.996 . S
Fe45 O46 1.918 . S
Fe45 O53 1.997 . S
Fe45 O56 1.996 . S
Fe45 O60 1.976 . S
Fe45 O63 2.002 . S
O46 Fe44 1.918 . S
O46 Fe45 1.918 . S
O46 Fe47 1.918 . S
Fe47 O46 1.918 . S
Fe47 O48 2.002 . S
Fe47 O57 1.976 . S
Fe47 O61 1.996 . S
Fe47 O64 1.997 . S
O48 Fe47 2.002 . S
O48 C65 1.295 . S
O49 Fe44 1.997 . S
O49 C65 1.235 . S
O50 Fe44 2.002 . S
O50 C51 1.295 . S
C51 O50 1.295 . S
C51 O53 1.235 . S
C52 O57 1.287 . S
C52 O58 1.255 . S
O53 Fe45 1.997 . S
O53 C51 1.235 . S
C54 O60 1.287 . S
C54 O61 1.255 . S
O55 Fe44 1.976 1_565 S
O55 C62 1.287 . S
O56 Fe45 1.996 . S
O56 C62 1.255 1_545 S
O57 Fe47 1.976 . S
O57 C52 1.287 . S
O58 Fe44 1.996 . S
O58 C52 1.255 . S
C59 O63 1.295 . S
C59 O64 1.235 . S
O60 Fe45 1.976 . S
O60 C54 1.287 . S
O61 Fe47 1.996 . S
O61 C54 1.255 . S
C62 O55 1.287 . S
C62 O56 1.255 1_565 S
O63 Fe45 2.002 . S
O63 C59 1.295 . S
O64 Fe47 1.997 . S
O64 C59 1.235 . S
C65 O48 1.295 . S
C65 O49 1.235 . S
Fe66 O68 1.918 . S
Fe66 O71 1.997 1_556 S
Fe66 O72 2.002 . S
Fe66 O77 1.976 . S
Fe66 O80 1.996 . S
Fe67 O68 1.918 . S
Fe67 O75 1.997 . S
Fe67 O78 1.996 . S
Fe67 O82 1.976 . S
Fe67 O85 2.002 . S
O68 Fe66 1.918 . S
O68 Fe67 1.918 . S
O68 Fe69 1.918 . S
Fe69 O68 1.918 . S
Fe69 O70 2.002 . S
Fe69 O79 1.976 . S
Fe69 O83 1.996 . S
Fe69 O86 1.997 . S
O70 Fe69 2.002 . S
O70 C87 1.295 1_556 S
O71 Fe66 1.997 1_554 S
O71 C87 1.235 . S
O72 Fe66 2.002 . S
O72 C73 1.295 . S
C73 O72 1.295 . S
C73 O75 1.235 . S
C74 O79 1.287 . S
C74 O80 1.255 . S
O75 Fe67 1.997 . S
O75 C73 1.235 . S
C76 O82 1.287 . S
C76 O83 1.255 . S
O77 Fe66 1.976 . S
O77 C84 1.287 . S
O78 Fe67 1.996 . S
O78 C84 1.255 . S
O79 Fe69 1.976 . S
O79 C74 1.287 . S
O80 Fe66 1.996 . S
O80 C74 1.255 . S
C81 O85 1.295 . S
C81 O86 1.235 . S
O82 Fe67 1.976 . S
O82 C76 1.287 . S
O83 Fe69 1.996 . S
O83 C76 1.255 . S
C84 O77 1.287 . S
C84 O78 1.255 . S
O85 Fe67 2.002 . S
O85 C81 1.295 . S
O86 Fe69 1.997 . S
O86 C81 1.235 . S
C87 O70 1.295 1_554 S
C87 O71 1.235 . S
Fe88 O90 1.918 . S
Fe88 O93 1.997 . S
Fe88 O94 2.002 . S
Fe88 O99 1.976 1_655 S
Fe88 O102 1.996 . S
Fe89 O90 1.918 . S
Fe89 O97 1.997 . S
Fe89 O100 1.996 . S
Fe89 O104 1.976 . S
Fe89 O107 2.002 . S
O90 Fe88 1.918 . S
O90 Fe89 1.918 . S
O90 Fe91 1.918 . S
Fe91 O90 1.918 . S
Fe91 O92 2.002 . S
Fe91 O101 1.976 1_554 S
Fe91 O105 1.996 . S
Fe91 O108 1.997 . S
O92 Fe91 2.002 . S
O92 C109 1.295 . S
O93 Fe88 1.997 . S
O93 C109 1.235 . S
O94 Fe88 2.002 . S
O94 C95 1.295 . S
C95 O94 1.295 . S
C95 O97 1.235 . S
C96 O101 1.287 . S
C96 O102 1.255 1_556 S
O97 Fe89 1.997 . S
O97 C95 1.235 . S
C98 O104 1.287 . S
C98 O105 1.255 . S
O99 Fe88 1.976 1_455 S
O99 C106 1.287 . S
O100 Fe89 1.996 . S
O100 C106 1.255 1_655 S
O101 Fe91 1.976 1_556 S
O101 C96 1.287 . S
O102 Fe88 1.996 . S
O102 C96 1.255 1_554 S
C103 O107 1.295 . S
C103 O108 1.235 . S
O104 Fe89 1.976 . S
O104 C98 1.287 . S
O105 Fe91 1.996 . S
O105 C98 1.255 . S
C106 O99 1.287 . S
C106 O100 1.255 1_455 S
O107 Fe89 2.002 . S
O107 C103 1.295 . S
O108 Fe91 1.997 . S
O108 C103 1.235 . S
C109 O92 1.295 . S
C109 O93 1.235 . S
Fe110 O112 1.918 . S
Fe110 O115 1.997 . S
Fe110 O116 2.002 . S
Fe110 O121 1.976 . S
Fe110 O124 1.996 . S
Fe111 O112 1.918 . S
Fe111 O119 1.997 . S
Fe111 O122 1.996 . S
Fe111 O126 1.976 1_565 S
Fe111 O129 2.002 . S
O112 Fe110 1.918 . S
O112 Fe111 1.918 . S
O112 Fe113 1.918 . S
Fe113 O112 1.918 . S
Fe113 O114 2.002 . S
Fe113 O123 1.976 . S
Fe113 O127 1.996 . S
Fe113 O130 1.997 . S
O114 Fe113 2.002 . S
O114 C131 1.295 . S
O115 Fe110 1.997 . S
O115 C131 1.235 . S
O116 Fe110 2.002 . S
O116 C117 1.295 . S
C117 O116 1.295 . S
C117 O119 1.235 . S
C118 O123 1.287 . S
C118 O124 1.255 . S
O119 Fe111 1.997 . S
O119 C117 1.235 . S
C120 O126 1.287 . S
C120 O127 1.255 1_545 S
O121 Fe110 1.976 . S
O121 C128 1.287 . S
O122 Fe111 1.996 . S
O122 C128 1.255 . S
O123 Fe113 1.976 . S
O123 C118 1.287 . S
O124 Fe110 1.996 . S
O124 C118 1.255 . S
C125 O129 1.295 . S
C125 O130 1.235 . S
O126 Fe111 1.976 1_545 S
O126 C120 1.287 . S
O127 Fe113 1.996 . S
O127 C120 1.255 1_565 S
C128 O121 1.287 . S
C128 O122 1.255 . S
O129 Fe111 2.002 . S
O129 C125 1.295 . S
O130 Fe113 1.997 . S
O130 C125 1.235 . S
C131 O114 1.295 . S
C131 O115 1.235 . S
Fe132 O134 1.918 . S
Fe132 O137 1.997 . S
Fe132 O138 2.002 . S
Fe132 O143 1.976 . S
Fe132 O146 1.996 . S
Fe133 O134 1.918 . S
Fe133 O141 1.997 . S
Fe133 O144 1.996 . S
Fe133 O148 1.976 . S
Fe133 O151 2.002 . S
O134 Fe132 1.918 . S
O134 Fe133 1.918 . S
O134 Fe135 1.918 . S
Fe135 O134 1.918 . S
Fe135 O136 2.002 . S
Fe135 O145 1.976 . S
Fe135 O149 1.996 . S
Fe135 O152 1.997 . S
O136 Fe135 2.002 . S
O136 C153 1.295 . S
O137 Fe132 1.997 . S
O137 C153 1.235 . S
O138 Fe132 2.002 . S
O138 C139 1.295 . S
C139 O138 1.295 . S
C139 O141 1.235 . S
C140 O145 1.287 . S
C140 O146 1.255 . S
O141 Fe133 1.997 . S
O141 C139 1.235 . S
C142 O148 1.287 . S
C142 O149 1.255 . S
O143 Fe132 1.976 . S
O143 C150 1.287 . S
O144 Fe133 1.996 . S
O144 C150 1.255 . S
O145 Fe135 1.976 . S
O145 C140 1.287 . S
O146 Fe132 1.996 . S
O146 C140 1.255 . S
C147 O151 1.295 . S
C147 O152 1.235 . S
O148 Fe133 1.976 . S
O148 C142 1.287 . S
O149 Fe135 1.996 . S
O149 C142 1.255 . S
C150 O143 1.287 . S
C150 O144 1.255 . S
O151 Fe133 2.002 . S
O151 C147 1.295 . S
O152 Fe135 1.997 . S
O152 C147 1.235 . S
C153 O136 1.295 . S
C153 O137 1.235 . S
Fe154 O156 1.918 . S
Fe154 O159 1.997 . S
Fe154 O160 2.002 . S
Fe154 O165 1.976 . S
Fe154 O168 1.996 . S
Fe155 O156 1.918 . S
Fe155 O163 1.997 . S
Fe155 O166 1.996 . S
Fe155 O170 1.976 . S
Fe155 O173 2.002 . S
O156 Fe154 1.918 . S
O156 Fe155 1.918 . S
O156 Fe157 1.918 . S
Fe157 O156 1.918 . S
Fe157 O158 2.002 . S
Fe157 O167 1.976 1_455 S
Fe157 O171 1.996 . S
Fe157 O174 1.997 . S
O158 Fe157 2.002 . S
O158 C175 1.295 . S
O159 Fe154 1.997 . S
O159 C175 1.235 . S
O160 Fe154 2.002 . S
O160 C161 1.295 . S
C161 O160 1.295 . S
C161 O163 1.235 . S
C162 O167 1.287 . S
C162 O168 1.255 1_655 S
O163 Fe155 1.997 . S
O163 C161 1.235 . S
C164 O170 1.287 . S
C164 O171 1.255 . S
O165 Fe154 1.976 . S
O165 C172 1.287 . S
O166 Fe155 1.996 . S
O166 C172 1.255 . S
O167 Fe157 1.976 1_655 S
O167 C162 1.287 . S
O168 Fe154 1.996 . S
O168 C162 1.255 1_455 S
C169 O173 1.295 . S
C169 O174 1.235 . S
O170 Fe155 1.976 . S
O170 C164 1.287 . S
O171 Fe157 1.996 . S
O171 C164 1.255 . S
C172 O165 1.287 . S
C172 O166 1.255 . S
O173 Fe155 2.002 . S
O173 C169 1.295 . S
O174 Fe157 1.997 . S
O174 C169 1.235 . S
C175 O158 1.295 . S
C175 O159 1.235 . S
Fe176 O178 1.918 . S
Fe176 O181 1.997 . S
Fe176 O182 2.002 . S
Fe176 O187 1.976 1_545 S
Fe176 O190 1.996 . S
Fe177 O178 1.918 . S
Fe177 O185 1.997 . S
Fe177 O188 1.996 . S
Fe177 O192 1.976 . S
Fe177 O195 2.002 . S
O178 Fe176 1.918 . S
O178 Fe177 1.918 . S
O178 Fe179 1.918 . S
Fe179 O178 1.918 . S
Fe179 O180 2.002 . S
Fe179 O189 1.976 . S
Fe179 O193 1.996 . S
Fe179 O196 1.997 . S
O180 Fe179 2.002 . S
O180 C197 1.295 . S
O181 Fe176 1.997 . S
O181 C197 1.235 . S
O182 Fe176 2.002 . S
O182 C183 1.295 . S
C183 O182 1.295 . S
C183 O185 1.235 . S
C184 O189 1.287 . S
C184 O190 1.255 . S
O185 Fe177 1.997 . S
O185 C183 1.235 . S
C186 O192 1.287 . S
C186 O193 1.255 . S
O187 Fe176 1.976 1_565 S
O187 C194 1.287 . S
O188 Fe177 1.996 . S
O188 C194 1.255 1_545 S
O189 Fe179 1.976 . S
O189 C184 1.287 . S
O190 Fe176 1.996 . S
O190 C184 1.255 . S
C191 O195 1.295 . S
C191 O196 1.235 . S
O192 Fe177 1.976 . S
O192 C186 1.287 . S
O193 Fe179 1.996 . S
O193 C186 1.255 . S
C194 O187 1.287 . S
C194 O188 1.255 1_565 S
O195 Fe177 2.002 . S
O195 C191 1.295 . S
O196 Fe179 1.997 . S
O196 C191 1.235 . S
C197 O180 1.295 . S
C197 O181 1.235 . S
Fe198 O200 1.918 . S
Fe198 O203 1.997 . S
Fe198 O204 2.002 . S
Fe198 O209 1.976 . S
Fe198 O212 1.996 . S
Fe199 O200 1.918 . S
Fe199 O207 1.997 . S
Fe199 O210 1.996 . S
Fe199 O214 1.976 . S
Fe199 O217 2.002 . S
O200 Fe198 1.918 . S
O200 Fe199 1.918 . S
O200 Fe201 1.918 . S
Fe201 O200 1.918 . S
Fe201 O202 2.002 . S
Fe201 O211 1.976 1_556 S
Fe201 O215 1.996 . S
Fe201 O218 1.997 . S
O202 Fe201 2.002 . S
O202 C219 1.295 . S
O203 Fe198 1.997 . S
O203 C219 1.235 . S
O204 Fe198 2.002 . S
O204 C205 1.295 . S
C205 O204 1.295 . S
C205 O207 1.235 . S
C206 O211 1.287 . S
C206 O212 1.255 1_554 S
O207 Fe199 1.997 . S
O207 C205 1.235 . S
C208 O214 1.287 . S
C208 O215 1.255 . S
O209 Fe198 1.976 . S
O209 C216 1.287 . S
O210 Fe199 1.996 . S
O210 C216 1.255 . S
O211 Fe201 1.976 1_554 S
O211 C206 1.287 . S
O212 Fe198 1.996 . S
O212 C206 1.255 1_556 S
C213 O217 1.295 . S
C213 O218 1.235 . S
O214 Fe199 1.976 . S
O214 C208 1.287 . S
O215 Fe201 1.996 . S
O215 C208 1.255 . S
C216 O209 1.287 . S
C216 O210 1.255 . S
O217 Fe199 2.002 . S
O217 C213 1.295 . S
O218 Fe201 1.997 . S
O218 C213 1.235 . S
C219 O202 1.295 . S
C219 O203 1.235 . S
Fe220 O222 1.918 . S
Fe220 O225 1.997 . S
Fe220 O226 2.002 . S
Fe220 O231 1.976 1_655 S
Fe220 O234 1.996 . S
Fe221 O222 1.918 . S
Fe221 O229 1.997 1_554 S
Fe221 O232 1.996 . S
Fe221 O236 1.976 . S
Fe221 O239 2.002 . S
O222 Fe220 1.918 . S
O222 Fe221 1.918 . S
O222 Fe223 1.918 . S
Fe223 O222 1.918 . S
Fe223 O224 2.002 . S
Fe223 O233 1.976 . S
Fe223 O237 1.996 . S
Fe223 O240 1.997 . S
O224 Fe223 2.002 . S
O224 C241 1.295 . S
O225 Fe220 1.997 . S
O225 C241 1.235 . S
O226 Fe220 2.002 . S
O226 C227 1.295 1_554 S
C227 O226 1.295 1_556 S
C227 O229 1.235 . S
C228 O233 1.287 . S
C228 O234 1.255 . S
O229 Fe221 1.997 1_556 S
O229 C227 1.235 . S
C230 O236 1.287 . S
C230 O237 1.255 . S
O231 Fe220 1.976 1_455 S
O231 C238 1.287 . S
O232 Fe221 1.996 . S
O232 C238 1.255 1_655 S
O233 Fe223 1.976 . S
O233 C228 1.287 . S
O234 Fe220 1.996 . S
O234 C228 1.255 . S
C235 O239 1.295 . S
C235 O240 1.235 . S
O236 Fe221 1.976 . S
O236 C230 1.287 . S
O237 Fe223 1.996 . S
O237 C230 1.255 . S
C238 O231 1.287 . S
C238 O232 1.255 1_455 S
O239 Fe221 2.002 . S
O239 C235 1.295 . S
O240 Fe223 1.997 . S
O240 C235 1.235 . S
C241 O224 1.295 . S
C241 O225 1.235 . S
Fe242 O244 1.918 . S
Fe242 O247 1.997 . S
Fe242 O248 2.002 . S
Fe242 O253 1.976 1_565 S
Fe242 O256 1.996 . S
Fe243 O244 1.918 . S
Fe243 O251 1.997 . S
Fe243 O254 1.996 . S
Fe243 O258 1.976 . S
Fe243 O261 2.002 . S
O244 Fe242 1.918 . S
O244 Fe243 1.918 . S
O244 Fe245 1.918 . S
Fe245 O244 1.918 . S
Fe245 O246 2.002 . S
Fe245 O255 1.976 . S
Fe245 O259 1.996 . S
Fe245 O262 1.997 . S
O246 Fe245 2.002 . S
O246 C263 1.295 . S
O247 Fe242 1.997 . S
O247 C263 1.235 . S
O248 Fe242 2.002 . S
O248 C249 1.295 . S
C249 O248 1.295 . S
C249 O251 1.235 . S
C250 O255 1.287 . S
C250 O256 1.255 . S
O251 Fe243 1.997 . S
O251 C249 1.235 . S
C252 O258 1.287 . S
C252 O259 1.255 . S
O253 Fe242 1.976 1_545 S
O253 C260 1.287 . S
O254 Fe243 1.996 . S
O254 C260 1.255 1_565 S
O255 Fe245 1.976 . S
O255 C250 1.287 . S
O256 Fe242 1.996 . S
O256 C250 1.255 . S
C257 O261 1.295 . S
C257 O262 1.235 . S
O258 Fe243 1.976 . S
O258 C252 1.287 . S
O259 Fe245 1.996 . S
O259 C252 1.255 . S
C260 O253 1.287 . S
C260 O254 1.255 1_545 S
O261 Fe243 2.002 . S
O261 C257 1.295 . S
O262 Fe245 1.997 . S
O262 C257 1.235 . S
C263 O246 1.295 . S
C263 O247 1.235 . S
H264 C270 0.930 . S
H265 C274 0.930 . S
H266 C279 0.929 . S
H267 C277 0.929 . S
H268 C272 0.929 . S
H269 C278 0.929 . S
C270 H264 0.930 . S
C270 C271 1.367 . S
C270 C278 1.378 . S
C271 C270 1.367 . S
C271 C279 1.433 . S
C272 H268 0.929 . S
C272 C274 1.378 . S
C272 C276 1.350 . S
C273 C276 1.463 . S
C273 C278 1.350 . S
C273 N281 1.427 . S
C274 H265 0.930 . S
C274 C272 1.378 . S
C274 C275 1.367 . S
C275 C274 1.367 . S
C275 C277 1.433 . S
C276 C272 1.350 . S
C276 C273 1.463 . S
C276 N280 1.427 . S
C277 H267 0.929 . S
C277 C275 1.433 . S
C277 N280 1.384 . S
C278 H269 0.929 . S
C278 C270 1.378 . S
C278 C273 1.350 . S
C279 H266 0.929 . S
C279 C271 1.433 . S
C279 N281 1.384 . S
N280 C276 1.427 . S
N280 C277 1.384 . S
N281 C273 1.427 . S
N281 C279 1.384 . S
H282 C288 0.930 . S
H283 C292 0.930 . S
H284 C297 0.929 . S
H285 C295 0.929 . S
H286 C290 0.929 . S
H287 C296 0.929 . S
C288 H282 0.930 . S
C288 C289 1.367 . S
C288 C296 1.378 . S
C289 C288 1.367 . S
C289 C297 1.433 . S
C290 H286 0.929 . S
C290 C292 1.378 . S
C290 C294 1.350 . S
C291 C294 1.463 . S
C291 C296 1.350 . S
C291 N299 1.427 . S
C292 H283 0.930 . S
C292 C290 1.378 . S
C292 C293 1.367 . S
C293 C292 1.367 . S
C293 C295 1.433 . S
C294 C290 1.350 . S
C294 C291 1.463 . S
C294 N298 1.427 . S
C295 H285 0.929 . S
C295 C293 1.433 . S
C295 N298 1.384 . S
C296 H287 0.929 . S
C296 C288 1.378 . S
C296 C291 1.350 . S
C297 H284 0.929 . S
C297 C289 1.433 . S
C297 N299 1.384 . S
N298 C294 1.427 . S
N298 C295 1.384 . S
N299 C291 1.427 . S
N299 C297 1.384 . S
H300 C306 0.930 . S
H301 C310 0.930 . S
H302 C315 0.929 . S
H303 C313 0.929 . S
H304 C308 0.929 . S
H305 C314 0.929 . S
C306 H300 0.930 . S
C306 C307 1.367 . S
C306 C314 1.378 1_554 S
C307 C306 1.367 . S
C307 C315 1.433 1_554 S
C308 H304 0.929 . S
C308 C310 1.378 . S
C308 C312 1.350 . S
C309 C312 1.463 . S
C309 C314 1.350 . S
C309 N317 1.427 . S
C310 H301 0.930 . S
C310 C308 1.378 . S
C310 C311 1.367 . S
C311 C310 1.367 . S
C311 C313 1.433 . S
C312 C308 1.350 . S
C312 C309 1.463 . S
C312 N316 1.427 . S
C313 H303 0.929 . S
C313 C311 1.433 . S
C313 N316 1.384 . S
C314 H305 0.929 . S
C314 C306 1.378 1_556 S
C314 C309 1.350 . S
C315 H302 0.929 . S
C315 C307 1.433 1_556 S
C315 N317 1.384 . S
N316 C312 1.427 . S
N316 C313 1.384 . S
N317 C309 1.427 . S
N317 C315 1.384 . S
H318 C324 0.930 . S
H319 C328 0.930 . S
H320 C333 0.929 . S
H321 C331 0.929 1_556 S
H322 C326 0.929 . S
H323 C332 0.929 . S
C324 H318 0.930 . S
C324 C325 1.367 . S
C324 C332 1.378 . S
C325 C324 1.367 . S
C325 C333 1.433 . S
C326 H322 0.929 . S
C326 C328 1.378 . S
C326 C330 1.350 . S
C327 C330 1.463 . S
C327 C332 1.350 . S
C327 N335 1.427 . S
C328 H319 0.930 . S
C328 C326 1.378 . S
C328 C329 1.367 1_554 S
C329 C328 1.367 1_556 S
C329 C331 1.433 1_556 S
C330 C326 1.350 . S
C330 C327 1.463 . S
C330 N334 1.427 . S
C331 H321 0.929 1_554 S
C331 C329 1.433 1_554 S
C331 N334 1.384 . S
C332 H323 0.929 . S
C332 C324 1.378 . S
C332 C327 1.350 . S
C333 H320 0.929 . S
C333 C325 1.433 . S
C333 N335 1.384 . S
N334 C330 1.427 . S
N334 C331 1.384 . S
N335 C327 1.427 . S
N335 C333 1.384 . S
H336 C342 0.930 . S
H337 C346 0.930 . S
H338 C351 0.929 . S
H339 C349 0.929 . S
H340 C344 0.929 . S
H341 C350 0.929 . S
C342 H336 0.930 . S
C342 C343 1.367 . S
C342 C350 1.378 . S
C343 C342 1.367 . S
C343 C351 1.433 . S
C344 H340 0.929 . S
C344 C346 1.378 . S
C344 C348 1.350 . S
C345 C348 1.463 . S
C345 C350 1.350 . S
C345 N353 1.427 . S
C346 H337 0.930 . S
C346 C344 1.378 . S
C346 C347 1.367 . S
C347 C346 1.367 . S
C347 C349 1.433 . S
C348 C344 1.350 . S
C348 C345 1.463 . S
C348 N352 1.427 . S
C349 H339 0.929 . S
C349 C347 1.433 . S
C349 N352 1.384 . S
C350 H341 0.929 . S
C350 C342 1.378 . S
C350 C345 1.350 . S
C351 H338 0.929 . S
C351 C343 1.433 . S
C351 N353 1.384 . S
N352 C348 1.427 . S
N352 C349 1.384 . S
N353 C345 1.427 . S
N353 C351 1.384 . S
H354 C360 0.930 . S
H355 C364 0.930 . S
H356 C369 0.929 . S
H357 C367 0.929 . S
H358 C362 0.929 . S
H359 C368 0.929 . S
C360 H354 0.930 . S
C360 C361 1.367 . S
C360 C368 1.378 . S
C361 C360 1.367 . S
C361 C369 1.433 . S
C362 H358 0.929 . S
C362 C364 1.378 . S
C362 C366 1.350 . S
C363 C366 1.463 . S
C363 C368 1.350 . S
C363 N371 1.427 . S
C364 H355 0.930 . S
C364 C362 1.378 . S
C364 C365 1.367 . S
C365 C364 1.367 . S
C365 C367 1.433 . S
C366 C362 1.350 . S
C366 C363 1.463 . S
C366 N370 1.427 . S
C367 H357 0.929 . S
C367 C365 1.433 . S
C367 N370 1.384 . S
C368 H359 0.929 . S
C368 C360 1.378 . S
C368 C363 1.350 . S
C369 H356 0.929 . S
C369 C361 1.433 . S
C369 N371 1.384 . S
N370 C366 1.427 . S
N370 C367 1.384 . S
N371 C363 1.427 . S
N371 C369 1.384 . S
H372 C378 0.930 . S
H373 C382 0.930 . S
H374 C387 0.929 . S
H375 C385 0.929 . S
H376 C380 0.929 . S
H377 C386 0.929 . S
C378 H372 0.930 . S
C378 C379 1.367 . S
C378 C386 1.378 . S
C379 C378 1.367 . S
C379 C387 1.433 . S
C380 H376 0.929 . S
C380 C382 1.378 . S
C380 C384 1.350 . S
C381 C384 1.463 . S
C381 C386 1.350 . S
C381 N389 1.427 . S
C382 H373 0.930 . S
C382 C380 1.378 . S
C382 C383 1.367 . S
C383 C382 1.367 . S
C383 C385 1.433 . S
C384 C380 1.350 . S
C384 C381 1.463 . S
C384 N388 1.427 . S
C385 H375 0.929 . S
C385 C383 1.433 . S
C385 N388 1.384 . S
C386 H377 0.929 . S
C386 C378 1.378 . S
C386 C381 1.350 . S
C387 H374 0.929 . S
C387 C379 1.433 . S
C387 N389 1.384 . S
N388 C384 1.427 . S
N388 C385 1.384 . S
N389 C381 1.427 . S
N389 C387 1.384 . S
H390 C396 0.930 . S
H391 C400 0.930 . S
H392 C405 0.929 . S
H393 C403 0.929 . S
H394 C398 0.929 . S
H395 C404 0.929 . S
C396 H390 0.930 . S
C396 C397 1.367 . S
C396 C404 1.378 . S
C397 C396 1.367 . S
C397 C405 1.433 . S
C398 H394 0.929 . S
C398 C400 1.378 . S
C398 C402 1.350 . S
C399 C402 1.463 . S
C399 C404 1.350 . S
C399 N407 1.427 . S
C400 H391 0.930 . S
C400 C398 1.378 . S
C400 C401 1.367 . S
C401 C400 1.367 . S
C401 C403 1.433 . S
C402 C398 1.350 . S
C402 C399 1.463 . S
C402 N406 1.427 . S
C403 H393 0.929 . S
C403 C401 1.433 . S
C403 N406 1.384 . S
C404 H395 0.929 . S
C404 C396 1.378 . S
C404 C399 1.350 . S
C405 H392 0.929 . S
C405 C397 1.433 . S
C405 N407 1.384 . S
N406 C402 1.427 . S
N406 C403 1.384 . S
N407 C399 1.427 . S
N407 C405 1.384 . S
H408 C414 0.930 . S
H409 C418 0.930 . S
H410 C423 0.929 . S
H411 C421 0.929 . S
H412 C416 0.929 . S
H413 C422 0.929 . S
C414 H408 0.930 . S
C414 C415 1.367 . S
C414 C422 1.378 . S
C415 C414 1.367 . S
C415 C423 1.433 . S
C416 H412 0.929 . S
C416 C418 1.378 . S
C416 C420 1.350 . S
C417 C420 1.463 . S
C417 C422 1.350 . S
C417 N425 1.427 . S
C418 H409 0.930 . S
C418 C416 1.378 . S
C418 C419 1.367 . S
C419 C418 1.367 . S
C419 C421 1.433 . S
C420 C416 1.350 . S
C420 C417 1.463 . S
C420 N424 1.427 . S
C421 H411 0.929 . S
C421 C419 1.433 . S
C421 N424 1.384 . S
C422 H413 0.929 . S
C422 C414 1.378 . S
C422 C417 1.350 . S
C423 H410 0.929 . S
C423 C415 1.433 . S
C423 N425 1.384 . S
N424 C420 1.427 . S
N424 C421 1.384 . S
N425 C417 1.427 . S
N425 C423 1.384 . S
H426 C432 0.930 . S
H427 C436 0.930 . S
H428 C441 0.929 . S
H429 C439 0.929 . S
H430 C434 0.929 . S
H431 C440 0.929 . S
C432 H426 0.930 . S
C432 C433 1.367 . S
C432 C440 1.378 . S
C433 C432 1.367 . S
C433 C441 1.433 . S
C434 H430 0.929 . S
C434 C436 1.378 . S
C434 C438 1.350 . S
C435 C438 1.463 . S
C435 C440 1.350 . S
C435 N443 1.427 . S
C436 H427 0.930 . S
C436 C434 1.378 . S
C436 C437 1.367 . S
C437 C436 1.367 . S
C437 C439 1.433 . S
C438 C434 1.350 . S
C438 C435 1.463 . S
C438 N442 1.427 . S
C439 H429 0.929 . S
C439 C437 1.433 . S
C439 N442 1.384 . S
C440 H431 0.929 . S
C440 C432 1.378 . S
C440 C435 1.350 . S
C441 H428 0.929 . S
C441 C433 1.433 . S
C441 N443 1.384 . S
N442 C438 1.427 . S
N442 C439 1.384 . S
N443 C435 1.427 . S
N443 C441 1.384 . S
H444 C450 0.930 . S
H445 C454 0.930 . S
H446 C459 0.929 . S
H447 C457 0.929 . S
H448 C452 0.929 . S
H449 C458 0.929 . S
C450 H444 0.930 . S
C450 C451 1.367 . S
C450 C458 1.378 . S
C451 C450 1.367 . S
C451 C459 1.433 . S
C452 H448 0.929 . S
C452 C454 1.378 . S
C452 C456 1.350 . S
C453 C456 1.463 . S
C453 C458 1.350 . S
C453 N461 1.427 . S
C454 H445 0.930 . S
C454 C452 1.378 . S
C454 C455 1.367 . S
C455 C454 1.367 . S
C455 C457 1.433 . S
C456 C452 1.350 . S
C456 C453 1.463 . S
C456 N460 1.427 . S
C457 H447 0.929 . S
C457 C455 1.433 . S
C457 N460 1.384 . S
C458 H449 0.929 . S
C458 C450 1.378 . S
C458 C453 1.350 . S
C459 H446 0.929 . S
C459 C451 1.433 . S
C459 N461 1.384 . S
N460 C456 1.427 . S
N460 C457 1.384 . S
N461 C453 1.427 . S
N461 C459 1.384 . S
H462 C468 0.930 . S
H463 C472 0.930 . S
H464 C477 0.929 . S
H465 C475 0.929 . S
H466 C470 0.929 . S
H467 C476 0.929 . S
C468 H462 0.930 . S
C468 C469 1.367 . S
C468 C476 1.378 . S
C469 C468 1.367 . S
C469 C477 1.433 . S
C470 H466 0.929 . S
C470 C472 1.378 . S
C470 C474 1.350 . S
C471 C474 1.463 . S
C471 C476 1.350 . S
C471 N479 1.427 . S
C472 H463 0.930 . S
C472 C470 1.378 . S
C472 C473 1.367 . S
C473 C472 1.367 . S
C473 C475 1.433 . S
C474 C470 1.350 . S
C474 C471 1.463 . S
C474 N478 1.427 . S
C475 H465 0.929 . S
C475 C473 1.433 . S
C475 N478 1.384 . S
C476 H467 0.929 . S
C476 C468 1.378 . S
C476 C471 1.350 . S
C477 H464 0.929 . S
C477 C469 1.433 . S
C477 N479 1.384 . S
N478 C474 1.427 . S
N478 C475 1.384 . S
N479 C471 1.427 . S
N479 C477 1.384 . S
H480 C486 0.930 . S
H481 C490 0.930 . S
H482 C495 0.929 . S
H483 C493 0.929 . S
H484 C488 0.929 . S
H485 C494 0.929 . S
C486 H480 0.930 . S
C486 C487 1.367 . S
C486 C494 1.378 . S
C487 C486 1.367 . S
C487 C495 1.433 . S
C488 H484 0.929 . S
C488 C490 1.378 . S
C488 C492 1.350 . S
C489 C492 1.463 . S
C489 C494 1.350 . S
C489 N497 1.427 . S
C490 H481 0.930 . S
C490 C488 1.378 . S
C490 C491 1.367 . S
C491 C490 1.367 . S
C491 C493 1.433 . S
C492 C488 1.350 . S
C492 C489 1.463 . S
C492 N496 1.427 . S
C493 H483 0.929 . S
C493 C491 1.433 . S
C493 N496 1.384 . S
C494 H485 0.929 . S
C494 C486 1.378 . S
C494 C489 1.350 . S
C495 H482 0.929 . S
C495 C487 1.433 . S
C495 N497 1.384 . S
N496 C492 1.427 . S
N496 C493 1.384 . S
N497 C489 1.427 . S
N497 C495 1.384 . S
H498 C504 0.930 . S
H499 C508 0.930 . S
H500 C513 0.929 . S
H501 C511 0.929 . S
H502 C506 0.929 . S
H503 C512 0.929 . S
C504 H498 0.930 . S
C504 C505 1.367 . S
C504 C512 1.378 . S
C505 C504 1.367 . S
C505 C513 1.433 1_655 S
C506 H502 0.929 . S
C506 C508 1.378 . S
C506 C510 1.350 . S
C507 C510 1.463 1_655 S
C507 C512 1.350 . S
C507 N515 1.427 1_655 S
C508 H499 0.930 . S
C508 C506 1.378 . S
C508 C509 1.367 . S
C509 C508 1.367 . S
C509 C511 1.433 1_455 S
C510 C506 1.350 . S
C510 C507 1.463 1_455 S
C510 N514 1.427 1_455 S
C511 H501 0.929 . S
C511 C509 1.433 1_655 S
C511 N514 1.384 . S
C512 H503 0.929 . S
C512 C504 1.378 . S
C512 C507 1.350 . S
C513 H500 0.929 . S
C513 C505 1.433 1_455 S
C513 N515 1.384 . S
N514 C510 1.427 1_655 S
N514 C511 1.384 . S
N515 C507 1.427 1_455 S
N515 C513 1.384 . S
H516 C522 0.930 . S
H517 C526 0.930 . S
H518 C531 0.929 . S
H519 C529 0.929 . S
H520 C524 0.929 . S
H521 C530 0.929 . S
C522 H516 0.930 . S
C522 C523 1.367 . S
C522 C530 1.378 . S
C523 C522 1.367 . S
C523 C531 1.433 1_545 S
C524 H520 0.929 . S
C524 C526 1.378 . S
C524 C528 1.350 . S
C525 C528 1.463 1_546 S
C525 C530 1.350 . S
C525 N533 1.427 1_545 S
C526 H517 0.930 . S
C526 C524 1.378 . S
C526 C527 1.367 . S
C527 C526 1.367 . S
C527 C529 1.433 1_565 S
C528 C524 1.350 . S
C528 C525 1.463 1_564 S
C528 N532 1.427 1_565 S
C529 H519 0.929 . S
C529 C527 1.433 1_545 S
C529 N532 1.384 . S
C530 H521 0.929 . S
C530 C522 1.378 . S
C530 C525 1.350 . S
C531 H518 0.929 . S
C531 C523 1.433 1_565 S
C531 N533 1.384 . S
N532 C528 1.427 1_545 S
N532 C529 1.384 . S
N533 C525 1.427 1_565 S
N533 C531 1.384 . S
H534 C540 0.930 . S
H535 C544 0.930 . S
H536 C549 0.929 . S
H537 C547 0.929 . S
H538 C542 0.929 . S
H539 C548 0.929 . S
C540 H534 0.930 . S
C540 C541 1.367 . S
C540 C548 1.378 . S
C541 C540 1.367 . S
C541 C549 1.433 . S
C542 H538 0.929 . S
C542 C544 1.378 . S
C542 C546 1.350 . S
C543 C546 1.463 . S
C543 C548 1.350 . S
C543 N551 1.427 . S
C544 H535 0.930 . S
C544 C542 1.378 . S
C544 C545 1.367 . S
C545 C544 1.367 . S
C545 C547 1.433 . S
C546 C542 1.350 . S
C546 C543 1.463 . S
C546 N550 1.427 . S
C547 H537 0.929 . S
C547 C545 1.433 . S
C547 N550 1.384 . S
C548 H539 0.929 . S
C548 C540 1.378 . S
C548 C543 1.350 . S
C549 H536 0.929 . S
C549 C541 1.433 . S
C549 N551 1.384 . S
N550 C546 1.427 . S
N550 C547 1.384 . S
N551 C543 1.427 . S
N551 C549 1.384 . S
H552 C558 0.930 . S
H553 C562 0.930 . S
H554 C567 0.929 . S
H555 C565 0.929 . S
H556 C560 0.929 . S
H557 C566 0.929 . S
C558 H552 0.930 . S
C558 C559 1.367 1_655 S
C558 C566 1.378 . S
C559 C558 1.367 1_455 S
C559 C567 1.433 . S
C560 H556 0.929 . S
C560 C562 1.378 . S
C560 C564 1.350 1_455 S
C561 C564 1.463 1_455 S
C561 C566 1.350 1_455 S
C561 N569 1.427 . S
C562 H553 0.930 . S
C562 C560 1.378 . S
C562 C563 1.367 1_455 S
C563 C562 1.367 1_655 S
C563 C565 1.433 . S
C564 C560 1.350 1_655 S
C564 C561 1.463 1_655 S
C564 N568 1.427 . S
C565 H555 0.929 . S
C565 C563 1.433 . S
C565 N568 1.384 . S
C566 H557 0.929 . S
C566 C558 1.378 . S
C566 C561 1.350 1_655 S
C567 H554 0.929 . S
C567 C559 1.433 . S
C567 N569 1.384 . S
N568 C564 1.427 . S
N568 C565 1.384 . S
N569 C561 1.427 . S
N569 C567 1.384 . S
H570 C576 0.930 . S
H571 C580 0.930 . S
H572 C585 0.929 . S
H573 C583 0.929 . S
H574 C578 0.929 . S
H575 C584 0.929 . S
C576 H570 0.930 . S
C576 C577 1.367 . S
C576 C584 1.378 . S
C577 C576 1.367 . S
C577 C585 1.433 1_565 S
C578 H574 0.929 . S
C578 C580 1.378 . S
C578 C582 1.350 . S
C579 C582 1.463 1_565 S
C579 C584 1.350 . S
C579 N587 1.427 1_565 S
C580 H571 0.930 . S
C580 C578 1.378 . S
C580 C581 1.367 . S
C581 C580 1.367 . S
C581 C583 1.433 1_545 S
C582 C578 1.350 . S
C582 C579 1.463 1_545 S
C582 N586 1.427 1_545 S
C583 H573 0.929 . S
C583 C581 1.433 1_565 S
C583 N586 1.384 . S
C584 H575 0.929 . S
C584 C576 1.378 . S
C584 C579 1.350 . S
C585 H572 0.929 . S
C585 C577 1.433 1_545 S
C585 N587 1.384 . S
N586 C582 1.427 1_565 S
N586 C583 1.384 . S
N587 C579 1.427 1_545 S
N587 C585 1.384 . S
H588 C594 0.930 . S
H589 C598 0.930 . S
H590 C603 0.929 . S
H591 C601 0.929 . S
H592 C596 0.929 . S
H593 C602 0.929 . S
C594 H588 0.930 . S
C594 C595 1.367 . S
C594 C602 1.378 . S
C595 C594 1.367 . S
C595 C603 1.433 . S
C596 H592 0.929 . S
C596 C598 1.378 . S
C596 C600 1.350 . S
C597 C600 1.463 . S
C597 C602 1.350 . S
C597 N605 1.427 . S
C598 H589 0.930 . S
C598 C596 1.378 . S
C598 C599 1.367 . S
C599 C598 1.367 . S
C599 C601 1.433 . S
C600 C596 1.350 . S
C600 C597 1.463 . S
C600 N604 1.427 . S
C601 H591 0.929 . S
C601 C599 1.433 . S
C601 N604 1.384 . S
C602 H593 0.929 . S
C602 C594 1.378 . S
C602 C597 1.350 . S
C603 H590 0.929 . S
C603 C595 1.433 . S
C603 N605 1.384 . S
N604 C600 1.427 . S
N604 C601 1.384 . S
N605 C597 1.427 . S
N605 C603 1.384 . S
H606 C612 0.930 . S
H607 C616 0.930 . S
H608 C621 0.929 . S
H609 C619 0.929 . S
H610 C614 0.929 . S
H611 C620 0.929 . S
C612 H606 0.930 . S
C612 C613 1.367 . S
C612 C620 1.378 . S
C613 C612 1.367 . S
C613 C621 1.433 . S
C614 H610 0.929 . S
C614 C616 1.378 . S
C614 C618 1.350 . S
C615 C618 1.463 . S
C615 C620 1.350 . S
C615 N623 1.427 . S
C616 H607 0.930 . S
C616 C614 1.378 . S
C616 C617 1.367 . S
C617 C616 1.367 . S
C617 C619 1.433 . S
C618 C614 1.350 . S
C618 C615 1.463 . S
C618 N622 1.427 . S
C619 H609 0.929 . S
C619 C617 1.433 . S
C619 N622 1.384 . S
C620 H611 0.929 . S
C620 C612 1.378 . S
C620 C615 1.350 . S
C621 H608 0.929 . S
C621 C613 1.433 . S
C621 N623 1.384 . S
N622 C618 1.427 . S
N622 C619 1.384 . S
N623 C615 1.427 . S
N623 C621 1.384 . S
H624 C630 0.930 . S
H625 C634 0.930 . S
H626 C639 0.929 . S
H627 C637 0.929 . S
H628 C632 0.929 . S
H629 C638 0.929 . S
C630 H624 0.930 . S
C630 C631 1.367 . S
C630 C638 1.378 . S
C631 C630 1.367 . S
C631 C639 1.433 . S
C632 H628 0.929 . S
C632 C634 1.378 . S
C632 C636 1.350 . S
C633 C636 1.463 . S
C633 C638 1.350 . S
C633 N641 1.427 . S
C634 H625 0.930 . S
C634 C632 1.378 . S
C634 C635 1.367 . S
C635 C634 1.367 . S
C635 C637 1.433 . S
C636 C632 1.350 . S
C636 C633 1.463 . S
C636 N640 1.427 . S
C637 H627 0.929 . S
C637 C635 1.433 . S
C637 N640 1.384 . S
C638 H629 0.929 . S
C638 C630 1.378 . S
C638 C633 1.350 . S
C639 H626 0.929 . S
C639 C631 1.433 . S
C639 N641 1.384 . S
N640 C636 1.427 . S
N640 C637 1.384 . S
N641 C633 1.427 . S
N641 C639 1.384 . S
H642 C648 0.930 . S
H643 C652 0.930 . S
H644 C657 0.929 . S
H645 C655 0.929 . S
H646 C650 0.929 . S
H647 C656 0.929 . S
C648 H642 0.930 . S
C648 C649 1.367 . S
C648 C656 1.378 . S
C649 C648 1.367 . S
C649 C657 1.433 . S
C650 H646 0.929 . S
C650 C652 1.378 . S
C650 C654 1.350 . S
C651 C654 1.463 . S
C651 C656 1.350 . S
C651 N659 1.427 . S
C652 H643 0.930 . S
C652 C650 1.378 . S
C652 C653 1.367 . S
C653 C652 1.367 . S
C653 C655 1.433 . S
C654 C650 1.350 . S
C654 C651 1.463 . S
C654 N658 1.427 . S
C655 H645 0.929 . S
C655 C653 1.433 . S
C655 N658 1.384 . S
C656 H647 0.929 . S
C656 C648 1.378 . S
C656 C651 1.350 . S
C657 H644 0.929 . S
C657 C649 1.433 . S
C657 N659 1.384 . S
N658 C654 1.427 . S
N658 C655 1.384 . S
N659 C651 1.427 . S
N659 C657 1.384 . S
H660 C666 0.930 . S
H661 C670 0.930 . S
H662 C675 0.929 . S
H663 C673 0.929 . S
H664 C668 0.929 . S
H665 C674 0.929 . S
C666 H660 0.930 . S
C666 C667 1.367 . S
C666 C674 1.378 . S
C667 C666 1.367 . S
C667 C675 1.433 . S
C668 H664 0.929 . S
C668 C670 1.378 . S
C668 C672 1.350 1_554 S
C669 C672 1.463 . S
C669 C674 1.350 . S
C669 N677 1.427 . S
C670 H661 0.930 . S
C670 C668 1.378 . S
C670 C671 1.367 . S
C671 C670 1.367 . S
C671 C673 1.433 . S
C672 C668 1.350 1_556 S
C672 C669 1.463 . S
C672 N676 1.427 . S
C673 H663 0.929 . S
C673 C671 1.433 . S
C673 N676 1.384 1_554 S
C674 H665 0.929 . S
C674 C666 1.378 . S
C674 C669 1.350 . S
C675 H662 0.929 . S
C675 C667 1.433 . S
C675 N677 1.384 . S
N676 C672 1.427 . S
N676 C673 1.384 1_556 S
N677 C669 1.427 . S
N677 C675 1.384 . S
H678 C684 0.930 . S
H679 C688 0.930 . S
H680 C693 0.929 . S
H681 C691 0.929 . S
H682 C686 0.929 . S
H683 C692 0.929 . S
C684 H678 0.930 . S
C684 C685 1.367 . S
C684 C692 1.378 . S
C685 C684 1.367 . S
C685 C693 1.433 . S
C686 H682 0.929 . S
C686 C688 1.378 . S
C686 C690 1.350 . S
C687 C690 1.463 . S
C687 C692 1.350 . S
C687 N695 1.427 . S
C688 H679 0.930 . S
C688 C686 1.378 . S
C688 C689 1.367 . S
C689 C688 1.367 . S
C689 C691 1.433 . S
C690 C686 1.350 . S
C690 C687 1.463 . S
C690 N694 1.427 . S
C691 H681 0.929 . S
C691 C689 1.433 . S
C691 N694 1.384 . S
C692 H683 0.929 . S
C692 C684 1.378 . S
C692 C687 1.350 . S
C693 H680 0.929 . S
C693 C685 1.433 . S
C693 N695 1.384 . S
N694 C690 1.427 . S
N694 C691 1.384 . S
N695 C687 1.427 . S
N695 C693 1.384 . S
H696 C702 0.930 . S
H697 C706 0.930 . S
H698 C711 0.929 . S
H699 C709 0.929 . S
H700 C704 0.929 . S
H701 C710 0.929 . S
C702 H696 0.930 . S
C702 C703 1.367 . S
C702 C710 1.378 . S
C703 C702 1.367 . S
C703 C711 1.433 . S
C704 H700 0.929 . S
C704 C706 1.378 . S
C704 C708 1.350 . S
C705 C708 1.463 . S
C705 C710 1.350 . S
C705 N713 1.427 . S
C706 H697 0.930 . S
C706 C704 1.378 . S
C706 C707 1.367 . S
C707 C706 1.367 . S
C707 C709 1.433 . S
C708 C704 1.350 . S
C708 C705 1.463 . S
C708 N712 1.427 . S
C709 H699 0.929 . S
C709 C707 1.433 . S
C709 N712 1.384 . S
C710 H701 0.929 . S
C710 C702 1.378 . S
C710 C705 1.350 . S
C711 H698 0.929 . S
C711 C703 1.433 . S
C711 N713 1.384 . S
N712 C708 1.427 . S
N712 C709 1.384 . S
N713 C705 1.427 . S
N713 C711 1.384 . S
H714 C720 0.930 . S
H715 C724 0.930 . S
H716 C729 0.929 . S
H717 C727 0.929 . S
H718 C722 0.929 . S
H719 C728 0.929 . S
C720 H714 0.930 . S
C720 C721 1.367 . S
C720 C728 1.378 . S
C721 C720 1.367 . S
C721 C729 1.433 . S
C722 H718 0.929 . S
C722 C724 1.378 . S
C722 C726 1.350 . S
C723 C726 1.463 . S
C723 C728 1.350 . S
C723 N731 1.427 . S
C724 H715 0.930 . S
C724 C722 1.378 . S
C724 C725 1.367 . S
C725 C724 1.367 . S
C725 C727 1.433 . S
C726 C722 1.350 . S
C726 C723 1.463 . S
C726 N730 1.427 . S
C727 H717 0.929 . S
C727 C725 1.433 . S
C727 N730 1.384 . S
C728 H719 0.929 . S
C728 C720 1.378 . S
C728 C723 1.350 . S
C729 H716 0.929 . S
C729 C721 1.433 . S
C729 N731 1.384 . S
N730 C726 1.427 . S
N730 C727 1.384 . S
N731 C723 1.427 . S
N731 C729 1.384 . S
H732 C738 0.930 . S
H733 C742 0.930 . S
H734 C747 0.929 . S
H735 C745 0.929 . S
H736 C740 0.929 . S
H737 C746 0.929 . S
C738 H732 0.930 . S
C738 C739 1.367 . S
C738 C746 1.378 . S
C739 C738 1.367 . S
C739 C747 1.433 . S
C740 H736 0.929 . S
C740 C742 1.378 . S
C740 C744 1.350 . S
C741 C744 1.463 . S
C741 C746 1.350 . S
C741 N749 1.427 . S
C742 H733 0.930 . S
C742 C740 1.378 . S
C742 C743 1.367 . S
C743 C742 1.367 . S
C743 C745 1.433 . S
C744 C740 1.350 . S
C744 C741 1.463 . S
C744 N748 1.427 . S
C745 H735 0.929 . S
C745 C743 1.433 . S
C745 N748 1.384 . S
C746 H737 0.929 . S
C746 C738 1.378 . S
C746 C741 1.350 . S
C747 H734 0.929 . S
C747 C739 1.433 . S
C747 N749 1.384 . S
N748 C744 1.427 . S
N748 C745 1.384 . S
N749 C741 1.427 . S
N749 C747 1.384 . S
H750 C756 0.930 . S
H751 C760 0.930 . S
H752 C765 0.929 . S
H753 C763 0.929 1_556 S
H754 C758 0.929 . S
H755 C764 0.929 . S
C756 H750 0.930 . S
C756 C757 1.367 . S
C756 C764 1.378 . S
C757 C756 1.367 . S
C757 C765 1.433 1_556 S
C758 H754 0.929 . S
C758 C760 1.378 . S
C758 C762 1.350 . S
C759 C762 1.463 . S
C759 C764 1.350 1_554 S
C759 N767 1.427 . S
C760 H751 0.930 . S
C760 C758 1.378 . S
C760 C761 1.367 . S
C761 C760 1.367 . S
C761 C763 1.433 . S
C762 C758 1.350 . S
C762 C759 1.463 . S
C762 N766 1.427 1_554 S
C763 H753 0.929 1_554 S
C763 C761 1.433 . S
C763 N766 1.384 1_554 S
C764 H755 0.929 . S
C764 C756 1.378 . S
C764 C759 1.350 1_556 S
C765 H752 0.929 . S
C765 C757 1.433 1_554 S
C765 N767 1.384 . S
N766 C762 1.427 1_556 S
N766 C763 1.384 1_556 S
N767 C759 1.427 . S
N767 C765 1.384 . S
H768 C774 0.930 . S
H769 C778 0.930 . S
H770 C783 0.929 . S
H771 C781 0.929 . S
H772 C776 0.929 . S
H773 C782 0.929 . S
C774 H768 0.930 . S
C774 C775 1.367 . S
C774 C782 1.378 . S
C775 C774 1.367 . S
C775 C783 1.433 . S
C776 H772 0.929 . S
C776 C778 1.378 . S
C776 C780 1.350 . S
C777 C780 1.463 . S
C777 C782 1.350 . S
C777 N785 1.427 . S
C778 H769 0.930 . S
C778 C776 1.378 . S
C778 C779 1.367 . S
C779 C778 1.367 . S
C779 C781 1.433 . S
C780 C776 1.350 . S
C780 C777 1.463 . S
C780 N784 1.427 . S
C781 H771 0.929 . S
C781 C779 1.433 . S
C781 N784 1.384 . S
C782 H773 0.929 . S
C782 C774 1.378 . S
C782 C777 1.350 . S
C783 H770 0.929 . S
C783 C775 1.433 . S
C783 N785 1.384 . S
N784 C780 1.427 . S
N784 C781 1.384 . S
N785 C777 1.427 . S
N785 C783 1.384 . S
H786 C792 0.930 . S
H787 C796 0.930 . S
H788 C801 0.929 . S
H789 C799 0.929 . S
H790 C794 0.929 . S
H791 C800 0.929 . S
C792 H786 0.930 . S
C792 C793 1.367 . S
C792 C800 1.378 . S
C793 C792 1.367 . S
C793 C801 1.433 . S
C794 H790 0.929 . S
C794 C796 1.378 . S
C794 C798 1.350 . S
C795 C798 1.463 . S
C795 C800 1.350 . S
C795 N803 1.427 . S
C796 H787 0.930 . S
C796 C794 1.378 . S
C796 C797 1.367 . S
C797 C796 1.367 . S
C797 C799 1.433 . S
C798 C794 1.350 . S
C798 C795 1.463 . S
C798 N802 1.427 . S
C799 H789 0.929 . S
C799 C797 1.433 . S
C799 N802 1.384 . S
C800 H791 0.929 . S
C800 C792 1.378 . S
C800 C795 1.350 . S
C801 H788 0.929 . S
C801 C793 1.433 . S
C801 N803 1.384 . S
N802 C798 1.427 . S
N802 C799 1.384 . S
N803 C795 1.427 . S
N803 C801 1.384 . S
H804 C810 0.930 . S
H805 C814 0.930 . S
H806 C819 0.929 . S
H807 C817 0.929 . S
H808 C812 0.929 . S
H809 C818 0.929 . S
C810 H804 0.930 . S
C810 C811 1.367 . S
C810 C818 1.378 . S
C811 C810 1.367 . S
C811 C819 1.433 . S
C812 H808 0.929 . S
C812 C814 1.378 . S
C812 C816 1.350 . S
C813 C816 1.463 . S
C813 C818 1.350 . S
C813 N821 1.427 . S
C814 H805 0.930 . S
C814 C812 1.378 . S
C814 C815 1.367 . S
C815 C814 1.367 . S
C815 C817 1.433 . S
C816 C812 1.350 . S
C816 C813 1.463 . S
C816 N820 1.427 . S
C817 H807 0.929 . S
C817 C815 1.433 . S
C817 N820 1.384 . S
C818 H809 0.929 . S
C818 C810 1.378 . S
C818 C813 1.350 . S
C819 H806 0.929 . S
C819 C811 1.433 . S
C819 N821 1.384 . S
N820 C816 1.427 . S
N820 C817 1.384 . S
N821 C813 1.427 . S
N821 C819 1.384 . S
H822 C828 0.930 . S
H823 C832 0.930 . S
H824 C837 0.929 . S
H825 C835 0.929 . S
H826 C830 0.929 . S
H827 C836 0.929 . S
C828 H822 0.930 . S
C828 C829 1.367 1_655 S
C828 C836 1.378 . S
C829 C828 1.367 1_455 S
C829 C837 1.433 . S
C830 H826 0.929 . S
C830 C832 1.378 . S
C830 C834 1.350 1_455 S
C831 C834 1.463 1_455 S
C831 C836 1.350 1_455 S
C831 N839 1.427 . S
C832 H823 0.930 . S
C832 C830 1.378 . S
C832 C833 1.367 1_455 S
C833 C832 1.367 1_655 S
C833 C835 1.433 . S
C834 C830 1.350 1_655 S
C834 C831 1.463 1_655 S
C834 N838 1.427 . S
C835 H825 0.929 . S
C835 C833 1.433 . S
C835 N838 1.384 . S
C836 H827 0.929 . S
C836 C828 1.378 . S
C836 C831 1.350 1_655 S
C837 H824 0.929 . S
C837 C829 1.433 . S
C837 N839 1.384 . S
N838 C834 1.427 . S
N838 C835 1.384 . S
N839 C831 1.427 . S
N839 C837 1.384 . S
H840 C846 0.930 . S
H841 C850 0.930 . S
H842 C855 0.929 . S
H843 C853 0.929 . S
H844 C848 0.929 . S
H845 C854 0.929 . S
C846 H840 0.930 . S
C846 C847 1.367 1_565 S
C846 C854 1.378 . S
C847 C846 1.367 1_545 S
C847 C855 1.433 . S
C848 H844 0.929 . S
C848 C850 1.378 . S
C848 C852 1.350 1_545 S
C849 C852 1.463 1_545 S
C849 C854 1.350 1_545 S
C849 N857 1.427 . S
C850 H841 0.930 . S
C850 C848 1.378 . S
C850 C851 1.367 1_545 S
C851 C850 1.367 1_565 S
C851 C853 1.433 . S
C852 C848 1.350 1_565 S
C852 C849 1.463 1_565 S
C852 N856 1.427 . S
C853 H843 0.929 . S
C853 C851 1.433 . S
C853 N856 1.384 . S
C854 H845 0.929 . S
C854 C846 1.378 . S
C854 C849 1.350 1_565 S
C855 H842 0.929 . S
C855 C847 1.433 . S
C855 N857 1.384 . S
N856 C852 1.427 . S
N856 C853 1.384 . S
N857 C849 1.427 . S
N857 C855 1.384 . S
H858 C864 0.930 . S
H859 C868 0.930 . S
H860 C873 0.929 . S
H861 C871 0.929 . S
H862 C866 0.929 . S
H863 C872 0.929 . S
C864 H858 0.930 . S
C864 C865 1.367 . S
C864 C872 1.378 . S
C865 C864 1.367 . S
C865 C873 1.433 . S
C866 H862 0.929 . S
C866 C868 1.378 . S
C866 C870 1.350 . S
C867 C870 1.463 . S
C867 C872 1.350 . S
C867 N875 1.427 . S
C868 H859 0.930 . S
C868 C866 1.378 . S
C868 C869 1.367 . S
C869 C868 1.367 . S
C869 C871 1.433 . S
C870 C866 1.350 . S
C870 C867 1.463 . S
C870 N874 1.427 . S
C871 H861 0.929 . S
C871 C869 1.433 . S
C871 N874 1.384 . S
C872 H863 0.929 . S
C872 C864 1.378 . S
C872 C867 1.350 . S
C873 H860 0.929 . S
C873 C865 1.433 . S
C873 N875 1.384 . S
N874 C870 1.427 . S
N874 C871 1.384 . S
N875 C867 1.427 . S
N875 C873 1.384 . S
H876 C882 0.930 . S
H877 C886 0.930 . S
H878 C891 0.929 . S
H879 C889 0.929 . S
H880 C884 0.929 . S
H881 C890 0.929 . S
C882 H876 0.930 . S
C882 C883 1.367 . S
C882 C890 1.378 . S
C883 C882 1.367 . S
C883 C891 1.433 . S
C884 H880 0.929 . S
C884 C886 1.378 . S
C884 C888 1.350 . S
C885 C888 1.463 1_455 S
C885 C890 1.350 . S
C885 N893 1.427 . S
C886 H877 0.930 . S
C886 C884 1.378 . S
C886 C887 1.367 . S
C887 C886 1.367 . S
C887 C889 1.433 . S
C888 C884 1.350 . S
C888 C885 1.463 1_655 S
C888 N892 1.427 . S
C889 H879 0.929 . S
C889 C887 1.433 . S
C889 N892 1.384 . S
C890 H881 0.929 . S
C890 C882 1.378 . S
C890 C885 1.350 . S
C891 H878 0.929 . S
C891 C883 1.433 . S
C891 N893 1.384 . S
N892 C888 1.427 . S
N892 C889 1.384 . S
N893 C885 1.427 . S
N893 C891 1.384 . S
H894 C900 0.930 1_565 S
H895 C904 0.930 1_545 S
H896 C909 0.929 . S
H897 C907 0.929 . S
H898 C902 0.929 . S
H899 C908 0.929 . S
C900 H894 0.930 1_545 S
C900 C901 1.367 . S
C900 C908 1.378 1_545 S
C901 C900 1.367 . S
C901 C909 1.433 . S
C902 H898 0.929 . S
C902 C904 1.378 1_545 S
C902 C906 1.350 1_545 S
C903 C906 1.463 1_546 S
C903 C908 1.350 1_545 S
C903 N911 1.427 . S
C904 H895 0.930 1_565 S
C904 C902 1.378 1_565 S
C904 C905 1.367 . S
C905 C904 1.367 . S
C905 C907 1.433 . S
C906 C902 1.350 1_565 S
C906 C903 1.463 1_564 S
C906 N910 1.427 . S
C907 H897 0.929 . S
C907 C905 1.433 . S
C907 N910 1.384 . S
C908 H899 0.929 . S
C908 C900 1.378 1_565 S
C908 C903 1.350 1_565 S
C909 H896 0.929 . S
C909 C901 1.433 . S
C909 N911 1.384 . S
N910 C906 1.427 . S
N910 C907 1.384 . S
N911 C903 1.427 . S
N911 C909 1.384 . S
C271 C15 0.918 . S
C275 C191 0.915 . S
C289 C213 0.923 . S
C293 C43 0.907 . S
C307 C235 0.913 . S
C311 C59 0.920 . S
C325 C257 0.903 . S
C329 C73 0.928 . S
C343 C147 0.922 . S
C347 C103 0.911 . S
C361 C161 0.926 . S
C365 C131 0.907 . S
C379 C21 1.591 . S
C383 C153 1.587 . S
C397 C29 1.587 . S
C401 C169 1.589 . S
C415 C65 1.589 . S
C419 C197 1.594 . S
C433 C219 1.594 . S
C437 C81 1.592 . S
C451 C241 1.594 . S
C455 C109 1.592 . S
C469 C117 1.590 . S
C473 C263 1.594 . S
C487 C7 0.934 . S
C491 C205 0.928 . S
C505 C227 0.932 . S
C509 C37 0.933 . S
C523 C51 0.934 . S
C527 C249 0.931 . S
C541 C139 0.938 . S
C545 C87 0.925 . S
C559 C175 0.935 . S
C563 C95 0.927 . S
C577 C125 0.936 . S
C581 C183 0.929 . S
C595 C10 1.603 . S
C599 C120 1.591 . S
C613 C18 1.587 . S
C617 C30 1.605 . S
C631 C54 1.597 . S
C635 C32 1.587 . S
C649 C62 1.592 . S
C653 C84 1.594 . S
C667 C74 1.594 . S
C671 C98 1.594 . S
C685 C118 1.602 . S
C689 C106 1.583 . S
C703 C162 1.594 . S
C707 C142 1.600 . S
C721 C172 1.595 . S
C725 C194 1.596 . S
C739 C186 1.600 . S
C743 C216 1.594 . S
C757 C208 1.596 . S
C761 C238 1.596 . S
C775 C260 1.594 . S
C779 C230 1.600 . S
C793 C150 1.596 . S
C797 C252 1.597 . S
C811 C8 1.331 . S
C815 C206 1.335 . S
C829 C40 1.330 . S
C833 C228 1.331 . S
C847 C52 1.331 . S
C851 C250 1.330 . S
C865 C140 1.335 . S
C869 C76 1.334 . S
C883 C164 1.331 . S
C887 C96 1.335 . S
C901 C184 1.330 . S
C905 C128 1.333 . S
