# Generated by pormake.
# Topology wlg, (5)-cn, num edge types: 1
# Building blocks:
#     Node 0, Type 0, BuildingBlock: BEQFEK_clean_sbu_0, # of connection points: 5
#     Node 1, Type 0, BuildingBlock: BEQFEK_clean_sbu_0, # of connection points: 5
#     Node 2, Type 0, BuildingBlock: BEQFEK_clean_sbu_0, # of connection points: 5
#     Node 3, Type 0, BuildingBlock: BEQFEK_clean_sbu_0, # of connection points: 5
#     Node 4, Type 0, BuildingBlock: BEQFEK_clean_sbu_0, # of connection points: 5
#     Node 5, Type 0, BuildingBlock: BEQFEK_clean_sbu_0, # of connection points: 5
#     Node 6, Type 0, BuildingBlock: BEQFEK_clean_sbu_0, # of connection points: 5
#     Node 7, Type 0, BuildingBlock: BEQFEK_clean_sbu_0, # of connection points: 5
#     Node 8, Type 0, BuildingBlock: BEQFEK_clean_sbu_0, # of connection points: 5
#     Node 9, Type 0, BuildingBlock: BEQFEK_clean_sbu_0, # of connection points: 5
#     Node 10, Type 0, BuildingBlock: BEQFEK_clean_sbu_0, # of connection points: 5
#     Node 11, Type 0, BuildingBlock: BEQFEK_clean_sbu_0, # of connection points: 5
#     Node 12, Type 0, BuildingBlock: BEQFEK_clean_sbu_0, # of connection points: 5
#     Node 13, Type 0, BuildingBlock: BEQFEK_clean_sbu_0, # of connection points: 5
#     Node 14, Type 0, BuildingBlock: BEQFEK_clean_sbu_0, # of connection points: 5
#     Node 15, Type 0, BuildingBlock: BEQFEK_clean_sbu_0, # of connection points: 5
#     Node 16, Type 0, BuildingBlock: BEQFEK_clean_sbu_0, # of connection points: 5
#     Node 17, Type 0, BuildingBlock: BEQFEK_clean_sbu_0, # of connection points: 5
#     Node 18, Type 0, BuildingBlock: BEQFEK_clean_sbu_0, # of connection points: 5
#     Node 19, Type 0, BuildingBlock: BEQFEK_clean_sbu_0, # of connection points: 5
#     Node 20, Type 0, BuildingBlock: BEQFEK_clean_sbu_0, # of connection points: 5
#     Node 21, Type 0, BuildingBlock: BEQFEK_clean_sbu_0, # of connection points: 5
#     Node 22, Type 0, BuildingBlock: BEQFEK_clean_sbu_0, # of connection points: 5
#     Node 23, Type 0, BuildingBlock: BEQFEK_clean_sbu_0, # of connection points: 5
#     Node 24, Type 0, BuildingBlock: BEQFEK_clean_sbu_0, # of connection points: 5
#     Node 25, Type 0, BuildingBlock: BEQFEK_clean_sbu_0, # of connection points: 5
#     Node 26, Type 0, BuildingBlock: BEQFEK_clean_sbu_0, # of connection points: 5
#     Node 27, Type 0, BuildingBlock: BEQFEK_clean_sbu_0, # of connection points: 5
#     Node 28, Type 0, BuildingBlock: BEQFEK_clean_sbu_0, # of connection points: 5
#     Node 29, Type 0, BuildingBlock: BEQFEK_clean_sbu_0, # of connection points: 5
#     Node 30, Type 0, BuildingBlock: BEQFEK_clean_sbu_0, # of connection points: 5
#     Node 31, Type 0, BuildingBlock: BEQFEK_clean_sbu_0, # of connection points: 5
#     Node 32, Type 0, BuildingBlock: BEQFEK_clean_sbu_0, # of connection points: 5
#     Node 33, Type 0, BuildingBlock: BEQFEK_clean_sbu_0, # of connection points: 5
#     Node 34, Type 0, BuildingBlock: BEQFEK_clean_sbu_0, # of connection points: 5
#     Node 35, Type 0, BuildingBlock: BEQFEK_clean_sbu_0, # of connection points: 5
#     Edge 36, Type (0, 0), BuildingBlock: KIFKEQ_clean_linker_1, # of connection points: 2
#     Edge 37, Type (0, 0), BuildingBlock: KIFKEQ_clean_linker_1, # of connection points: 2
#     Edge 38, Type (0, 0), BuildingBlock: KIFKEQ_clean_linker_1, # of connection points: 2
#     Edge 39, Type (0, 0), BuildingBlock: KIFKEQ_clean_linker_1, # of connection points: 2
#     Edge 40, Type (0, 0), BuildingBlock: KIFKEQ_clean_linker_1, # of connection points: 2
#     Edge 41, Type (0, 0), BuildingBlock: KIFKEQ_clean_linker_1, # of connection points: 2
#     Edge 42, Type (0, 0), BuildingBlock: KIFKEQ_clean_linker_1, # of connection points: 2
#     Edge 43, Type (0, 0), BuildingBlock: KIFKEQ_clean_linker_1, # of connection points: 2
#     Edge 44, Type (0, 0), BuildingBlock: KIFKEQ_clean_linker_1, # of connection points: 2
#     Edge 45, Type (0, 0), BuildingBlock: KIFKEQ_clean_linker_1, # of connection points: 2
#     Edge 46, Type (0, 0), BuildingBlock: KIFKEQ_clean_linker_1, # of connection points: 2
#     Edge 47, Type (0, 0), BuildingBlock: KIFKEQ_clean_linker_1, # of connection points: 2
#     Edge 48, Type (0, 0), BuildingBlock: KIFKEQ_clean_linker_1, # of connection points: 2
#     Edge 49, Type (0, 0), BuildingBlock: KIFKEQ_clean_linker_1, # of connection points: 2
#     Edge 50, Type (0, 0), BuildingBlock: KIFKEQ_clean_linker_1, # of connection points: 2
#     Edge 51, Type (0, 0), BuildingBlock: KIFKEQ_clean_linker_1, # of connection points: 2
#     Edge 52, Type (0, 0), BuildingBlock: KIFKEQ_clean_linker_1, # of connection points: 2
#     Edge 53, Type (0, 0), BuildingBlock: KIFKEQ_clean_linker_1, # of connection points: 2
#     Edge 54, Type (0, 0), BuildingBlock: KIFKEQ_clean_linker_1, # of connection points: 2
#     Edge 55, Type (0, 0), BuildingBlock: KIFKEQ_clean_linker_1, # of connection points: 2
#     Edge 56, Type (0, 0), BuildingBlock: KIFKEQ_clean_linker_1, # of connection points: 2
#     Edge 57, Type (0, 0), BuildingBlock: KIFKEQ_clean_linker_1, # of connection points: 2
#     Edge 58, Type (0, 0), BuildingBlock: KIFKEQ_clean_linker_1, # of connection points: 2
#     Edge 59, Type (0, 0), BuildingBlock: KIFKEQ_clean_linker_1, # of connection points: 2
#     Edge 60, Type (0, 0), BuildingBlock: KIFKEQ_clean_linker_1, # of connection points: 2
#     Edge 61, Type (0, 0), BuildingBlock: KIFKEQ_clean_linker_1, # of connection points: 2
#     Edge 62, Type (0, 0), BuildingBlock: KIFKEQ_clean_linker_1, # of connection points: 2
#     Edge 63, Type (0, 0), BuildingBlock: KIFKEQ_clean_linker_1, # of connection points: 2
#     Edge 64, Type (0, 0), BuildingBlock: KIFKEQ_clean_linker_1, # of connection points: 2
#     Edge 65, Type (0, 0), BuildingBlock: KIFKEQ_clean_linker_1, # of connection points: 2
#     Edge 66, Type (0, 0), BuildingBlock: KIFKEQ_clean_linker_1, # of connection points: 2
#     Edge 67, Type (0, 0), BuildingBlock: KIFKEQ_clean_linker_1, # of connection points: 2
#     Edge 68, Type (0, 0), BuildingBlock: KIFKEQ_clean_linker_1, # of connection points: 2
#     Edge 69, Type (0, 0), BuildingBlock: KIFKEQ_clean_linker_1, # of connection points: 2
#     Edge 70, Type (0, 0), BuildingBlock: KIFKEQ_clean_linker_1, # of connection points: 2
#     Edge 71, Type (0, 0), BuildingBlock: KIFKEQ_clean_linker_1, # of connection points: 2
#     Edge 72, Type (0, 0), BuildingBlock: KIFKEQ_clean_linker_1, # of connection points: 2
#     Edge 73, Type (0, 0), BuildingBlock: KIFKEQ_clean_linker_1, # of connection points: 2
#     Edge 74, Type (0, 0), BuildingBlock: KIFKEQ_clean_linker_1, # of connection points: 2
#     Edge 75, Type (0, 0), BuildingBlock: KIFKEQ_clean_linker_1, # of connection points: 2
#     Edge 76, Type (0, 0), BuildingBlock: KIFKEQ_clean_linker_1, # of connection points: 2
#     Edge 77, Type (0, 0), BuildingBlock: KIFKEQ_clean_linker_1, # of connection points: 2
#     Edge 78, Type (0, 0), BuildingBlock: KIFKEQ_clean_linker_1, # of connection points: 2
#     Edge 79, Type (0, 0), BuildingBlock: KIFKEQ_clean_linker_1, # of connection points: 2
#     Edge 80, Type (0, 0), BuildingBlock: KIFKEQ_clean_linker_1, # of connection points: 2
#     Edge 81, Type (0, 0), BuildingBlock: KIFKEQ_clean_linker_1, # of connection points: 2
#     Edge 82, Type (0, 0), BuildingBlock: KIFKEQ_clean_linker_1, # of connection points: 2
#     Edge 83, Type (0, 0), BuildingBlock: KIFKEQ_clean_linker_1, # of connection points: 2
#     Edge 84, Type (0, 0), BuildingBlock: KIFKEQ_clean_linker_1, # of connection points: 2
#     Edge 85, Type (0, 0), BuildingBlock: KIFKEQ_clean_linker_1, # of connection points: 2
#     Edge 86, Type (0, 0), BuildingBlock: KIFKEQ_clean_linker_1, # of connection points: 2
#     Edge 87, Type (0, 0), BuildingBlock: KIFKEQ_clean_linker_1, # of connection points: 2
#     Edge 88, Type (0, 0), BuildingBlock: KIFKEQ_clean_linker_1, # of connection points: 2
#     Edge 89, Type (0, 0), BuildingBlock: KIFKEQ_clean_linker_1, # of connection points: 2
#     Edge 90, Type (0, 0), BuildingBlock: KIFKEQ_clean_linker_1, # of connection points: 2
#     Edge 91, Type (0, 0), BuildingBlock: KIFKEQ_clean_linker_1, # of connection points: 2
#     Edge 92, Type (0, 0), BuildingBlock: KIFKEQ_clean_linker_1, # of connection points: 2
#     Edge 93, Type (0, 0), BuildingBlock: KIFKEQ_clean_linker_1, # of connection points: 2
#     Edge 94, Type (0, 0), BuildingBlock: KIFKEQ_clean_linker_1, # of connection points: 2
#     Edge 95, Type (0, 0), BuildingBlock: KIFKEQ_clean_linker_1, # of connection points: 2
#     Edge 96, Type (0, 0), BuildingBlock: KIFKEQ_clean_linker_1, # of connection points: 2
#     Edge 97, Type (0, 0), BuildingBlock: KIFKEQ_clean_linker_1, # of connection points: 2
#     Edge 98, Type (0, 0), BuildingBlock: KIFKEQ_clean_linker_1, # of connection points: 2
#     Edge 99, Type (0, 0), BuildingBlock: KIFKEQ_clean_linker_1, # of connection points: 2
#     Edge 100, Type (0, 0), BuildingBlock: KIFKEQ_clean_linker_1, # of connection points: 2
#     Edge 101, Type (0, 0), BuildingBlock: KIFKEQ_clean_linker_1, # of connection points: 2
#     Edge 102, Type (0, 0), BuildingBlock: KIFKEQ_clean_linker_1, # of connection points: 2
#     Edge 103, Type (0, 0), BuildingBlock: KIFKEQ_clean_linker_1, # of connection points: 2
#     Edge 104, Type (0, 0), BuildingBlock: KIFKEQ_clean_linker_1, # of connection points: 2
#     Edge 105, Type (0, 0), BuildingBlock: KIFKEQ_clean_linker_1, # of connection points: 2
#     Edge 106, Type (0, 0), BuildingBlock: KIFKEQ_clean_linker_1, # of connection points: 2
#     Edge 107, Type (0, 0), BuildingBlock: KIFKEQ_clean_linker_1, # of connection points: 2
#     Edge 108, Type (0, 0), BuildingBlock: KIFKEQ_clean_linker_1, # of connection points: 2
#     Edge 109, Type (0, 0), BuildingBlock: KIFKEQ_clean_linker_1, # of connection points: 2
#     Edge 110, Type (0, 0), BuildingBlock: KIFKEQ_clean_linker_1, # of connection points: 2
#     Edge 111, Type (0, 0), BuildingBlock: KIFKEQ_clean_linker_1, # of connection points: 2
#     Edge 112, Type (0, 0), BuildingBlock: KIFKEQ_clean_linker_1, # of connection points: 2
#     Edge 113, Type (0, 0), BuildingBlock: KIFKEQ_clean_linker_1, # of connection points: 2
#     Edge 114, Type (0, 0), BuildingBlock: KIFKEQ_clean_linker_1, # of connection points: 2
#     Edge 115, Type (0, 0), BuildingBlock: KIFKEQ_clean_linker_1, # of connection points: 2
#     Edge 116, Type (0, 0), BuildingBlock: KIFKEQ_clean_linker_1, # of connection points: 2
#     Edge 117, Type (0, 0), BuildingBlock: KIFKEQ_clean_linker_1, # of connection points: 2
#     Edge 118, Type (0, 0), BuildingBlock: KIFKEQ_clean_linker_1, # of connection points: 2
#     Edge 119, Type (0, 0), BuildingBlock: KIFKEQ_clean_linker_1, # of connection points: 2
#     Edge 120, Type (0, 0), BuildingBlock: KIFKEQ_clean_linker_1, # of connection points: 2
#     Edge 121, Type (0, 0), BuildingBlock: KIFKEQ_clean_linker_1, # of connection points: 2
#     Edge 122, Type (0, 0), BuildingBlock: KIFKEQ_clean_linker_1, # of connection points: 2
#     Edge 123, Type (0, 0), BuildingBlock: KIFKEQ_clean_linker_1, # of connection points: 2
#     Edge 124, Type (0, 0), BuildingBlock: KIFKEQ_clean_linker_1, # of connection points: 2
#     Edge 125, Type (0, 0), BuildingBlock: KIFKEQ_clean_linker_1, # of connection points: 2
# Relax obj value: 0.281
# Max RMSD: 0.180
# Mean RMSD: 0.180
data_MOF--net-wlg--node1-BEQFEK_clean_sbu_0--edge1-KIFKEQ_clean_linker_1
_symmetry_space_group_name_H-M    P1
_symmetry_Int_Tables_number       1
_symmetry_cell_setting            triclinic
loop_
_symmetry_equiv_pos_as_xyz
'x, y, z'
_cell_length_a     56.43492
_cell_length_b     56.426324
_cell_length_c     71.403206
_cell_angle_alpha  89.997915
_cell_angle_beta   90.000163
_cell_angle_gamma 120.01057
loop_
_atom_site_label
_atom_site_type_symbol
_atom_site_fract_x
_atom_site_fract_y
_atom_site_fract_z
_atom_type_partial_charge
Co0 Co 0.96753 0.18177 0.14437 0.0
Co1 Co 0.01713 0.17144 0.14083 0.0
C2 C 0.96053 0.12751 0.13181 0.0
O3 O 0.9513 0.14319 0.13623 0.0
O4 O 0.98606 0.13592 0.13237 0.0
C5 C 0.91519 0.17515 0.13642 0.0
O6 O 0.91382 0.1567 0.12458 0.0
C7 C 0.05436 0.1502 0.13283 0.0
C8 C 0.09474 0.18591 0.1394 0.0
C9 C 0.08217 0.15904 0.13326 0.0
N10 N 0.05078 0.17117 0.13789 0.0
N11 N 0.07499 0.19235 0.14199 0.0
C12 C 0.03133 0.12148 0.13035 0.0
H13 H 0.0157 0.1167 0.14134 0.0
H14 H 0.02175 0.1196 0.11645 0.0
H15 H 0.03822 0.10628 0.13145 0.0
C16 C 0.00274 0.22863 0.11992 0.0
N17 N 0.99742 0.20578 0.12926 0.0
N18 N 0.01791 0.20112 0.12704 0.0
C19 C 0.0365 0.22046 0.1155 0.0
C20 C 0.02774 0.23879 0.11083 0.0
C21 C 0.98509 0.24144 0.12103 0.0
H22 H 0.97594 0.23834 0.1352 0.0
H23 H 0.96821 0.23139 0.11072 0.0
H24 H 0.99693 0.26369 0.118 0.0
O25 O 0.97938 0.18441 0.17033 0.0
O26 O 0.01312 0.1751 0.16845 0.0
H27 H 0.07878 0.23222 0.11737 0.0
H28 H 0.06663 0.23019 0.09387 0.0
C29 C 0.06117 0.22039 0.10789 0.0
H30 H 0.05728 0.19915 0.10673 0.0
H31 H 0.07798 0.21103 0.14697 0.0
O32 O 0.93748 0.19022 0.14503 0.0
C33 C 0.99745 0.18061 0.17808 0.0
Co34 Co 0.81617 0.78789 0.14615 0.0
Co35 Co 0.82622 0.84767 0.14257 0.0
C36 C 0.87027 0.83545 0.13344 0.0
O37 O 0.85458 0.81058 0.13796 0.0
O38 O 0.8619 0.8526 0.13395 0.0
C39 C 0.82302 0.7429 0.13676 0.0
O40 O 0.83999 0.76012 0.12428 0.0
C41 C 0.84626 0.9059 0.13421 0.0
C42 C 0.8106 0.91003 0.14201 0.0
C43 C 0.83708 0.92458 0.13515 0.0
N44 N 0.82586 0.88129 0.13975 0.0
N45 N 0.8047 0.88399 0.14453 0.0
C46 C 0.87489 0.91189 0.13069 0.0
H47 H 0.88094 0.90222 0.14179 0.0
H48 H 0.87568 0.90301 0.117 0.0
H49 H 0.88985 0.93412 0.13073 0.0
C50 C 0.7689 0.7758 0.12212 0.0
N51 N 0.79195 0.7935 0.13118 0.0
N52 N 0.79655 0.81861 0.12885 0.0
C53 C 0.77699 0.81767 0.11746 0.0
C54 C 0.75855 0.79048 0.11303 0.0
C55 C 0.75596 0.74536 0.1237 0.0
H56 H 0.76016 0.73976 0.1377 0.0
H57 H 0.76495 0.73797 0.11296 0.0
H58 H 0.7335 0.73504 0.12158 0.0
O59 O 0.81352 0.79686 0.17211 0.0
O60 O 0.82284 0.83993 0.17023 0.0
H61 H 0.76544 0.84832 0.11962 0.0
H62 H 0.76664 0.83788 0.09604 0.0
C63 C 0.77687 0.84235 0.10991 0.0
H64 H 0.79809 0.85967 0.10847 0.0
H65 H 0.78641 0.86816 0.14991 0.0
O66 O 0.80846 0.74968 0.14644 0.0
C67 C 0.81739 0.81876 0.17986 0.0
Co68 Co 0.20818 0.0306 0.14772 0.0
Co69 Co 0.14943 0.97904 0.14404 0.0
C70 C 0.16082 0.03513 0.13314 0.0
O71 O 0.18582 0.04537 0.13764 0.0
O72 O 0.14423 0.00953 0.13464 0.0
C73 C 0.25383 0.08239 0.13888 0.0
O74 O 0.23721 0.08248 0.12605 0.0
C75 C 0.09163 0.94045 0.13484 0.0
C76 C 0.08694 0.901 0.14417 0.0
C77 C 0.07275 0.91268 0.1363 0.0
N78 N 0.11602 0.9448 0.14101 0.0
N79 N 0.11297 0.92114 0.14672 0.0
C80 C 0.08583 0.96306 0.13064 0.0
H81 H 0.09464 0.97863 0.14191 0.0
H82 H 0.09572 0.97288 0.1172 0.0
H83 H 0.06366 0.95586 0.12989 0.0
C84 C 0.22286 0.99594 0.12551 0.0
N85 N 0.20407 0.00049 0.13373 0.0
N86 N 0.17953 0.97901 0.13138 0.0
C87 C 0.18203 0.96034 0.12099 0.0
C88 C 0.2096 0.97033 0.1172 0.0
C89 C 0.25295 0.01589 0.12578 0.0
H90 H 0.25677 0.03574 0.11999 0.0
H91 H 0.2646 0.00852 0.11748 0.0
H92 H 0.26031 0.01947 0.14049 0.0
O93 O 0.19752 0.02023 0.17378 0.0
O94 O 0.15612 0.98367 0.17168 0.0
H95 H 0.15485 0.91818 0.12707 0.0
H96 H 0.16361 0.92498 0.1028 0.0
C97 C 0.15877 0.9329 0.11557 0.0
H98 H 0.14008 0.93418 0.11301 0.0
H99 H 0.12844 0.91888 0.15296 0.0
O100 O 0.24633 0.06104 0.14872 0.0
C101 C 0.17613 0.00122 0.18145 0.0
Co102 Co 0.17734 0.96762 0.35634 0.0
Co103 Co 0.16885 0.01837 0.35996 0.0
C104 C 0.12465 0.96238 0.3705 0.0
O105 O 0.13977 0.95255 0.36597 0.0
O106 O 0.13335 0.98793 0.36927 0.0
C107 C 0.17091 0.91581 0.36571 0.0
O108 O 0.15444 0.91614 0.37857 0.0
C109 C 0.14892 0.05669 0.36772 0.0
C110 C 0.18486 0.09653 0.36039 0.0
C111 C 0.15813 0.08455 0.36676 0.0
N112 N 0.16953 0.05252 0.36273 0.0
N113 N 0.19087 0.07641 0.3582 0.0
C114 C 0.12008 0.03404 0.37053 0.0
H115 H 0.11485 0.01812 0.35969 0.0
H116 H 0.11832 0.0247 0.38451 0.0
H117 H 0.10513 0.04125 0.36947 0.0
C118 C 0.22618 0.00311 0.37915 0.0
N119 N 0.20293 0.99799 0.37047 0.0
N120 N 0.19885 0.01881 0.37295 0.0
C121 C 0.21898 0.03743 0.384 0.0
C122 C 0.23722 0.02833 0.38807 0.0
C123 C 0.2384 0.98497 0.37763 0.0
H124 H 0.23404 0.97519 0.36362 0.0
H125 H 0.22895 0.96858 0.38834 0.0
H126 H 0.26086 0.99661 0.37984 0.0
O127 O 0.17745 0.97789 0.33021 0.0
O128 O 0.17124 0.01362 0.33235 0.0
H129 H 0.23141 0.0799 0.38222 0.0
H130 H 0.23 0.06777 0.40566 0.0
C131 C 0.21969 0.06239 0.39181 0.0
H132 H 0.19864 0.05892 0.39337 0.0
H133 H 0.20929 0.07889 0.35308 0.0
O134 O 0.18488 0.937 0.35574 0.0
C135 C 0.17447 0.99655 0.32256 0.0
Co136 Co 0.0287 0.21151 0.35286 0.0
Co137 Co 0.97794 0.15219 0.35628 0.0
C138 C 0.03425 0.16367 0.36562 0.0
O139 O 0.04404 0.18866 0.36124 0.0
O140 O 0.00862 0.14693 0.36484 0.0
C141 C 0.08103 0.25662 0.36126 0.0
O142 O 0.08166 0.23934 0.3733 0.0
C143 C 0.93955 0.09417 0.36517 0.0
C144 C 0.90002 0.08958 0.35614 0.0
C145 C 0.91177 0.07531 0.36378 0.0
N146 N 0.94385 0.11862 0.35916 0.0
N147 N 0.92014 0.11563 0.35365 0.0
C148 C 0.96218 0.08839 0.3693 0.0
H149 H 0.97766 0.09711 0.35798 0.0
H150 H 0.97215 0.0984 0.38269 0.0
H151 H 0.95497 0.06621 0.37014 0.0
C152 C 0.99454 0.22462 0.37687 0.0
N153 N -0.00084 0.2064 0.36788 0.0
N154 N 0.97789 0.18164 0.36994 0.0
C155 C 0.95933 0.18342 0.38094 0.0
C156 C 0.96915 0.21075 0.38543 0.0
C157 C 0.01404 0.25482 0.37684 0.0
H158 H 0.01671 0.26261 0.36228 0.0
H159 H 0.03431 0.25888 0.38191 0.0
H160 H 0.00676 0.2659 0.38586 0.0
O161 O 0.01689 0.20241 0.32689 0.0
O162 O 0.9822 0.1598 0.32866 0.0
H163 H 0.91722 0.15603 0.37488 0.0
H164 H 0.9242 0.16409 0.39925 0.0
C165 C 0.93208 0.15977 0.38624 0.0
H166 H 0.93365 0.14115 0.38833 0.0
H167 H 0.91782 0.13121 0.34765 0.0
O168 O 0.05911 0.24976 0.35225 0.0
C169 C -0.00159 0.18081 0.31908 0.0
Co170 Co 0.78586 0.81844 0.35438 0.0
Co171 Co 0.84553 0.82836 0.3583 0.0
C172 C 0.83322 0.87254 0.36711 0.0
O173 O 0.80835 0.8569 0.36257 0.0
O174 O 0.8503 0.86407 0.36669 0.0
C175 C 0.74036 0.82509 0.36284 0.0
O176 O 0.75747 0.8431 0.3749 0.0
C177 C 0.9036 0.84861 0.36721 0.0
C178 C 0.90794 0.81285 0.36013 0.0
C179 C 0.9223 0.83941 0.36685 0.0
N180 N 0.87915 0.82812 0.36152 0.0
N181 N 0.88198 0.80691 0.35715 0.0
C182 C 0.90953 0.87732 0.37028 0.0
H183 H 0.89974 0.883 0.35905 0.0
H184 H 0.90079 0.87849 0.38394 0.0
H185 H 0.93175 0.89232 0.37007 0.0
C186 C 0.77345 0.77123 0.37854 0.0
N187 N 0.7913 0.79425 0.36951 0.0
N188 N 0.81635 0.79877 0.37199 0.0
C189 C 0.81522 0.77919 0.38344 0.0
C190 C 0.78798 0.76083 0.38777 0.0
C191 C 0.74304 0.75836 0.37681 0.0
H192 H 0.7376 0.76212 0.36263 0.0
H193 H 0.73565 0.7678 0.38721 0.0
H194 H 0.73259 0.73597 0.3793 0.0
O195 O 0.79518 0.81573 0.32851 0.0
O196 O 0.83813 0.82475 0.3306 0.0
H197 H 0.84571 0.76738 0.38161 0.0
H198 H 0.83506 0.76876 0.40509 0.0
C199 C 0.83974 0.77895 0.3912 0.0
H200 H 0.85711 0.80013 0.39266 0.0
H201 H 0.86629 0.78853 0.35176 0.0
O202 O 0.74754 0.81035 0.35376 0.0
C203 C 0.81706 0.81937 0.32088 0.0
Co204 Co 0.02605 0.81956 0.84927 0.0
Co205 Co 0.97575 0.82748 0.85608 0.0
C206 C 0.03231 0.87006 0.86777 0.0
O207 O 0.04217 0.85562 0.86165 0.0
O208 O 0.00674 0.86155 0.86684 0.0
C209 C 0.07683 0.821 0.85557 0.0
O210 O 0.07815 0.83458 0.87085 0.0
C211 C 0.93808 0.84726 0.86617 0.0
C212 C 0.89775 0.81112 0.86015 0.0
C213 C 0.91015 0.83793 0.86642 0.0
N214 N 0.94188 0.82662 0.86063 0.0
N215 N 0.91769 0.80519 0.85685 0.0
C216 C 0.96086 0.87621 0.86827 0.0
H217 H 0.97713 0.88065 0.85787 0.0
H218 H 0.96965 0.879 0.88253 0.0
H219 H 0.9537 0.89107 0.86608 0.0
C220 C 0.99105 0.76797 0.86966 0.0
N221 N 0.99586 0.79206 0.86254 0.0
N222 N 0.97529 0.79591 0.86661 0.0
C223 C 0.9573 0.77486 0.87737 0.0
C224 C 0.96641 0.75616 0.87941 0.0
C225 C 0.00899 0.75594 0.86601 0.0
H226 H 0.01799 0.76167 0.8518 0.0
H227 H 0.02594 0.76427 0.87635 0.0
H228 H 0.99737 0.7333 0.86714 0.0
O229 O 0.01557 0.8234 0.82402 0.0
O230 O 0.97953 0.82856 0.82802 0.0
H231 H 0.9148 0.76255 0.87868 0.0
H232 H 0.92989 0.76332 0.90094 0.0
C233 C 0.93351 0.77401 0.88729 0.0
H234 H 0.93731 0.79503 0.88975 0.0
H235 H 0.91486 0.7868 0.8514 0.0
O236 O 0.05548 0.81117 0.84548 0.0
C237 C 0.99682 0.82705 0.81735 0.0
Co238 Co 0.17624 0.20816 0.85715 0.0
Co239 Co 0.16898 0.14937 0.86077 0.0
C240 C 0.12337 0.1605 0.8698 0.0
O241 O 0.13842 0.1857 0.86594 0.0
O242 O 0.13248 0.14397 0.86859 0.0
C243 C 0.16856 0.25367 0.86313 0.0
O244 O 0.14905 0.23656 0.87436 0.0
C245 C 0.15048 0.09358 0.87426 0.0
C246 C 0.17817 0.08298 0.85935 0.0
C247 C 0.15554 0.07228 0.87102 0.0
N248 N 0.16894 0.11574 0.86474 0.0
N249 N 0.18564 0.10932 0.85601 0.0
C250 C 0.12837 0.09286 0.88619 0.0
H251 H 0.13604 0.11274 0.89348 0.0
H252 H 0.12106 0.07617 0.89671 0.0
H253 H 0.11095 0.08929 0.87711 0.0
C254 C 0.22434 0.22225 0.88069 0.0
N255 N 0.20123 0.2037 0.8721 0.0
N256 N 0.1984 0.17919 0.87394 0.0
C257 C 0.21969 0.18145 0.88402 0.0
C258 C 0.23693 0.20887 0.88849 0.0
C259 C 0.2344 0.25233 0.88084 0.0
H260 H 0.21749 0.25586 0.88506 0.0
H261 H 0.25188 0.26342 0.89058 0.0
H262 H 0.24079 0.26057 0.86647 0.0
O263 O 0.17762 0.19766 0.83126 0.0
O264 O 0.17295 0.1563 0.83309 0.0
H265 H 0.23041 0.1523 0.87431 0.0
H266 H 0.2415 0.16387 0.89788 0.0
C267 C 0.22474 0.15823 0.88765 0.0
H268 H 0.20574 0.14032 0.89296 0.0
H269 H 0.20144 0.12259 0.84714 0.0
O270 O 0.18441 0.2465 0.8556 0.0
C271 C 0.17592 0.17664 0.82345 0.0
Co272 Co 0.78462 0.96735 0.85303 0.0
Co273 Co 0.84371 0.01846 0.8559 0.0
C274 C 0.83205 0.96208 0.86629 0.0
O275 O 0.80681 0.95205 0.86263 0.0
O276 O 0.84882 0.98756 0.86433 0.0
C277 C 0.73888 0.9158 0.86208 0.0
O278 O 0.75565 0.91584 0.87485 0.0
C279 C 0.89888 0.05596 0.87005 0.0
C280 C 0.91115 0.09307 0.85317 0.0
C281 C 0.92073 0.08179 0.86628 0.0
N282 N 0.87747 0.05191 0.85947 0.0
N283 N 0.88486 0.07434 0.84956 0.0
C284 C 0.89837 0.0355 0.88358 0.0
H285 H 0.8777 0.02339 0.88986 0.0
H286 H 0.91375 0.04581 0.89484 0.0
H287 H 0.90336 0.02145 0.87599 0.0
C288 C 0.77163 0.00273 0.87621 0.0
N289 N 0.7896 0.9976 0.86733 0.0
N290 N 0.81436 0.01899 0.86889 0.0
C291 C 0.8129 0.03839 0.87905 0.0
C292 C 0.78573 0.02876 0.88393 0.0
C293 C 0.74154 0.98292 0.87713 0.0
H294 H 0.73268 0.98016 0.86288 0.0
H295 H 0.73808 0.96273 0.88192 0.0
H296 H 0.73097 0.99003 0.88678 0.0
O297 O 0.79506 0.97788 0.82681 0.0
O298 O 0.83663 0.01434 0.82835 0.0
H299 H 0.844 0.07731 0.86913 0.0
H300 H 0.83131 0.07849 0.89206 0.0
C301 C 0.83674 0.06631 0.88264 0.0
H302 H 0.85373 0.06445 0.88889 0.0
H303 H 0.87228 0.07646 0.8398 0.0
O304 O 0.74623 0.93713 0.85224 0.0
C305 C 0.81629 0.99675 0.81884 0.0
Co306 Co 0.82143 0.02642 0.64314 0.0
Co307 Co 0.8241 0.97257 0.64083 0.0
C308 C 0.87114 0.02738 0.62885 0.0
O309 O 0.8575 0.03934 0.63179 0.0
O310 O 0.86096 0.00194 0.63219 0.0
C311 C 0.83502 0.07588 0.6565 0.0
O312 O 0.85332 0.07035 0.66336 0.0
C313 C 0.83624 0.93319 0.62336 0.0
C314 C 0.81901 0.89931 0.64378 0.0
C315 C 0.83481 0.90838 0.62763 0.0
N316 N 0.82265 0.93856 0.63659 0.0
N317 N 0.81199 0.91801 0.64859 0.0
C318 C 0.84968 0.95163 0.60696 0.0
H319 H 0.8391 0.96323 0.60365 0.0
H320 H 0.84923 0.93964 0.59451 0.0
H321 H 0.87124 0.96663 0.61053 0.0
C322 C 0.77076 0.99315 0.62126 0.0
N323 N 0.7938 0.99692 0.62953 0.0
N324 N 0.79493 0.97421 0.62836 0.0
C325 C 0.77254 0.9552 0.61921 0.0
C326 C 0.75641 0.96655 0.61444 0.0
C327 C 0.76258 0.01457 0.62027 0.0
H328 H 0.75379 0.01555 0.63395 0.0
H329 H 0.78085 0.03487 0.61759 0.0
H330 H 0.74713 0.00986 0.60913 0.0
O331 O 0.82151 0.01519 0.66924 0.0
O332 O 0.82172 0.9761 0.66844 0.0
H333 H 0.7666 0.91754 0.63053 0.0
H334 H 0.74502 0.91323 0.61064 0.0
C335 C 0.76567 0.92611 0.61675 0.0
H336 H 0.78117 0.9255 0.60751 0.0
H337 H 0.8011 0.91742 0.66056 0.0
O338 O 0.81683 0.05875 0.64544 0.0
C339 C 0.82148 0.99533 0.6776 0.0
Co340 Co 0.96509 0.79003 0.64382 0.0
Co341 Co 0.01662 0.84811 0.63869 0.0
C342 C 0.96084 0.83512 0.62519 0.0
O343 O 0.95006 0.81028 0.63038 0.0
O344 O 0.98625 0.85187 0.6276 0.0
C345 C 0.91315 0.74098 0.63842 0.0
O346 O 0.91032 0.75384 0.62401 0.0
C347 C 0.05475 0.9059 0.63004 0.0
C348 C 0.09492 0.90982 0.63615 0.0
C349 C 0.08266 0.92454 0.63025 0.0
N350 N 0.05082 0.88117 0.63491 0.0
N351 N 0.07491 0.88375 0.63878 0.0
C352 C 0.03199 0.91215 0.62845 0.0
H353 H 0.01608 0.90019 0.63905 0.0
H354 H 0.02269 0.90616 0.61431 0.0
H355 H 0.03917 0.93413 0.63079 0.0
C356 C 0.0006 0.77337 0.62411 0.0
N357 N 0.99594 0.79263 0.63145 0.0
N358 N 0.01702 0.81705 0.62803 0.0
C359 C 0.03527 0.81403 0.61755 0.0
C360 C 0.02574 0.78624 0.61498 0.0
C361 C 0.98182 0.74328 0.62675 0.0
H362 H 0.9725 0.73927 0.6409 0.0
H363 H 0.96513 0.7359 0.61624 0.0
H364 H 0.99283 0.73173 0.62511 0.0
O365 O 0.9742 0.80416 0.66939 0.0
O366 O 0.01161 0.84464 0.66649 0.0
H367 H 0.07801 0.84359 0.61713 0.0
H368 H 0.06364 0.8304 0.59452 0.0
C369 C 0.05969 0.83708 0.60822 0.0
H370 H 0.05644 0.85468 0.60594 0.0
H371 H 0.07761 0.86796 0.64391 0.0
O372 O 0.93551 0.75205 0.64745 0.0
C373 C 0.99315 0.82598 0.67663 0.0
Co374 Co 0.20876 0.17979 0.64743 0.0
Co375 Co 0.14949 0.17116 0.64552 0.0
C376 C 0.1615 0.1271 0.63404 0.0
O377 O 0.18681 0.14236 0.63751 0.0
O378 O 0.1447 0.13565 0.63648 0.0
C379 C 0.25498 0.17455 0.63854 0.0
O380 O 0.2382 0.15698 0.62614 0.0
C381 C 0.09557 0.15437 0.62998 0.0
C382 C 0.07852 0.17059 0.65087 0.0
C383 C 0.07165 0.15415 0.63505 0.0
N384 N 0.11519 0.16956 0.64247 0.0
N385 N 0.105 0.17956 0.65476 0.0
C386 C 0.1003 0.1411 0.61338 0.0
H387 H 0.12207 0.15294 0.60899 0.0
H388 H 0.0869 0.13969 0.60154 0.0
H389 H 0.09571 0.1202 0.61723 0.0
C390 C 0.22064 0.22856 0.62489 0.0
N391 N 0.2031 0.20515 0.63366 0.0
N392 N 0.1782 0.20152 0.6326 0.0
C393 C 0.17912 0.22254 0.62299 0.0
C394 C 0.20609 0.24045 0.61784 0.0
C395 C 0.25075 0.23919 0.62343 0.0
H396 H 0.26017 0.24606 0.63747 0.0
H397 H 0.25434 0.22246 0.61885 0.0
H398 H 0.26068 0.25647 0.61341 0.0
O399 O 0.19872 0.17922 0.67388 0.0
O400 O 0.15705 0.1739 0.67294 0.0
H401 H 0.14577 0.22599 0.63399 0.0
H402 H 0.16063 0.24589 0.61301 0.0
C403 C 0.15495 0.22633 0.62019 0.0
H404 H 0.13926 0.20902 0.61181 0.0
H405 H 0.11574 0.19142 0.66631 0.0
O406 O 0.24739 0.1887 0.64796 0.0
C407 C 0.17762 0.17666 0.68216 0.0
Co408 Co 0.63485 0.51181 0.47769 0.0
Co409 Co 0.68724 0.50634 0.47656 0.0
C410 C 0.63216 0.4607 0.46404 0.0
O411 O 0.62069 0.47485 0.46698 0.0
O412 O 0.65754 0.47034 0.46731 0.0
C413 C 0.58196 0.50591 0.47115 0.0
O414 O 0.57894 0.48759 0.45859 0.0
C415 C 0.72724 0.49164 0.46303 0.0
C416 C 0.76044 0.5127 0.48368 0.0
C417 C 0.75194 0.49448 0.46883 0.0
N418 N 0.72136 0.50741 0.47396 0.0
N419 N 0.74164 0.52048 0.48598 0.0
C420 C 0.70778 0.47137 0.44918 0.0
H421 H 0.69534 0.47931 0.44257 0.0
H422 H 0.71892 0.46692 0.43821 0.0
H423 H 0.69388 0.45199 0.45657 0.0
C424 C 0.67054 0.56188 0.45614 0.0
N425 N 0.66549 0.53845 0.46447 0.0
N426 N 0.68761 0.53624 0.46376 0.0
C427 C 0.70746 0.55821 0.45472 0.0
C428 C 0.69731 0.57526 0.44969 0.0
C429 C 0.65017 0.57141 0.45486 0.0
H430 H 0.63025 0.55433 0.44998 0.0
H431 H 0.65714 0.58903 0.44516 0.0
H432 H 0.647 0.57749 0.46901 0.0
O433 O 0.64441 0.51168 0.50413 0.0
O434 O 0.68174 0.5081 0.50395 0.0
H435 H 0.74542 0.56588 0.46648 0.0
H436 H 0.74894 0.58274 0.44432 0.0
C437 C 0.73615 0.56378 0.45245 0.0
H438 H 0.73586 0.54617 0.44531 0.0
H439 H 0.74173 0.53323 0.4966 0.0
O440 O 0.60492 0.52 0.4792 0.0
C441 C 0.66324 0.51012 0.51277 0.0
Co442 Co 0.48454 0.12246 0.47931 0.0
Co443 Co 0.49349 0.18164 0.4755 0.0
C444 C 0.53578 0.1675 0.46273 0.0
O445 O 0.52077 0.14263 0.46753 0.0
O446 O 0.52781 0.18486 0.4649 0.0
C447 C 0.48641 0.0732 0.47319 0.0
O448 O 0.50351 0.08699 0.45961 0.0
C449 C 0.50963 0.23586 0.46002 0.0
C450 C 0.49078 0.25096 0.48034 0.0
C451 C 0.50825 0.25901 0.46503 0.0
N452 N 0.49432 0.21559 0.47209 0.0
N453 N 0.48277 0.22463 0.48401 0.0
C454 C 0.52461 0.23247 0.44392 0.0
H455 H 0.51393 0.21082 0.4392 0.0
H456 H 0.52617 0.24593 0.43208 0.0
H457 H 0.54548 0.23792 0.44854 0.0
C458 C 0.43407 0.10894 0.45861 0.0
N459 N 0.45814 0.12716 0.46629 0.0
N460 N 0.46175 0.15197 0.46442 0.0
C461 C 0.44003 0.1503 0.45531 0.0
C462 C 0.42169 0.12292 0.45143 0.0
C463 C 0.42339 0.07875 0.45817 0.0
H464 H 0.4397 0.07482 0.45313 0.0
H465 H 0.40523 0.068 0.44894 0.0
H466 H 0.41786 0.07048 0.4726 0.0
O467 O 0.48786 0.135 0.50521 0.0
O468 O 0.49347 0.17665 0.50321 0.0
H469 H 0.4358 0.1837 0.46517 0.0
H470 H 0.41698 0.1683 0.44392 0.0
C471 C 0.43623 0.17428 0.45163 0.0
H472 H 0.4539 0.18989 0.44347 0.0
H473 H 0.47041 0.21321 0.49519 0.0
O474 O 0.4745 0.08386 0.48199 0.0
C475 C 0.49137 0.15678 0.51294 0.0
Co476 Co 0.86996 0.36204 0.47425 0.0
Co477 Co 0.81265 0.30858 0.47221 0.0
C478 C 0.82138 0.36396 0.46077 0.0
O479 O 0.84706 0.37573 0.46332 0.0
O480 O 0.80607 0.33855 0.46408 0.0
C481 C 0.91494 0.41658 0.47073 0.0
O482 O 0.89688 0.42094 0.46217 0.0
C483 C 0.75857 0.27056 0.45713 0.0
C484 C 0.74611 0.23333 0.47392 0.0
C485 C 0.73682 0.24455 0.46055 0.0
N486 N 0.77964 0.27474 0.46813 0.0
N487 N 0.77217 0.25224 0.47797 0.0
C488 C 0.75928 0.29118 0.44363 0.0
H489 H 0.77996 0.30304 0.43732 0.0
H490 H 0.74383 0.28105 0.43239 0.0
H491 H 0.7547 0.30556 0.45121 0.0
C492 C 0.88578 0.32777 0.45223 0.0
N493 N 0.86686 0.33193 0.46067 0.0
N494 N 0.8428 0.30952 0.45947 0.0
C495 C 0.84566 0.29035 0.4501 0.0
C496 C 0.87305 0.30125 0.44528 0.0
C497 C 0.9155 0.34885 0.45111 0.0
H498 H 0.91775 0.36876 0.4468 0.0
H499 H 0.92651 0.34284 0.44102 0.0
H500 H 0.92483 0.35156 0.46519 0.0
O501 O 0.85876 0.35181 0.50055 0.0
O502 O 0.81935 0.31263 0.49964 0.0
H503 H 0.81616 0.25167 0.46139 0.0
H504 H 0.82962 0.24925 0.43906 0.0
C505 C 0.82306 0.26146 0.44747 0.0
H506 H 0.80545 0.26141 0.44053 0.0
H507 H 0.78445 0.25024 0.48806 0.0
O508 O 0.90818 0.39246 0.47589 0.0
C509 C 0.83873 0.33194 0.50885 0.0
Co510 Co 0.84553 0.30144 0.68314 0.0
Co511 Co 0.83684 0.35168 0.68806 0.0
C512 C 0.79367 0.2948 0.69904 0.0
O513 O 0.80871 0.28504 0.69415 0.0
O514 O 0.80196 0.32026 0.69748 0.0
C515 C 0.84642 0.25311 0.69331 0.0
O516 O 0.83518 0.25505 0.70893 0.0
C517 C 0.81696 0.38816 0.70083 0.0
C518 C 0.84632 0.42738 0.68758 0.0
C519 C 0.82245 0.41475 0.69802 0.0
N520 N 0.83638 0.38501 0.69221 0.0
N521 N 0.85407 0.40866 0.68449 0.0
C522 C 0.79377 0.36618 0.71174 0.0
H523 H 0.80128 0.35483 0.72025 0.0
H524 H 0.78438 0.37481 0.72119 0.0
H525 H 0.77799 0.35169 0.70186 0.0
C526 C 0.89532 0.33695 0.70512 0.0
N527 N 0.87166 0.33174 0.69706 0.0
N528 N 0.86767 0.35253 0.69991 0.0
C529 C 0.88838 0.37135 0.71047 0.0
C530 C 0.90677 0.36222 0.71404 0.0
C531 C 0.90766 0.319 0.70281 0.0
H532 H 0.90285 0.30952 0.68871 0.0
H533 H 0.89874 0.3024 0.71341 0.0
H534 H 0.9302 0.33072 0.70457 0.0
O535 O 0.84382 0.31201 0.65744 0.0
O536 O 0.83836 0.3481 0.66014 0.0
H537 H 0.89862 0.41297 0.70682 0.0
H538 H 0.90262 0.40439 0.73051 0.0
C539 C 0.88973 0.39687 0.71775 0.0
H540 H 0.86888 0.3929 0.72112 0.0
H541 H 0.87086 0.41174 0.67651 0.0
O542 O 0.85406 0.27186 0.6811 0.0
C543 C 0.84085 0.33082 0.65006 0.0
Co544 Co 0.69097 0.54037 0.68738 0.0
Co545 Co 0.64079 0.48112 0.69083 0.0
C546 C 0.69707 0.49251 0.69951 0.0
O547 O 0.70675 0.51755 0.69528 0.0
O548 O 0.67146 0.47575 0.6989 0.0
C549 C 0.74347 0.58572 0.69559 0.0
O550 O 0.74474 0.56837 0.70724 0.0
C551 C 0.60297 0.42718 0.70622 0.0
C552 C 0.56836 0.41201 0.68645 0.0
C553 C 0.57821 0.40405 0.70158 0.0
N554 N 0.60761 0.44731 0.69413 0.0
N555 N 0.58665 0.43827 0.68253 0.0
C556 C 0.62173 0.4309 0.72216 0.0
H557 H 0.63325 0.45274 0.72643 0.0
H558 H 0.61003 0.41813 0.73431 0.0
H559 H 0.63673 0.42486 0.7176 0.0
C560 C 0.65611 0.55273 0.7117 0.0
N561 N 0.66137 0.53497 0.70264 0.0
N562 N 0.64028 0.51007 0.70434 0.0
C563 C 0.62102 0.51115 0.71489 0.0
C564 C 0.63033 0.53827 0.71987 0.0
C565 C 0.67437 0.58314 0.71078 0.0
H566 H 0.68348 0.58919 0.69661 0.0
H567 H 0.69129 0.58942 0.721 0.0
H568 H 0.66309 0.59406 0.71399 0.0
O569 O 0.67877 0.53142 0.66137 0.0
O570 O 0.64448 0.48859 0.66327 0.0
H571 H 0.58085 0.47914 0.70776 0.0
H572 H 0.58407 0.49119 0.73165 0.0
C573 C 0.59442 0.48655 0.72021 0.0
H574 H 0.5981 0.46995 0.7249 0.0
H575 H 0.58539 0.44965 0.67145 0.0
O576 O 0.72129 0.57867 0.68688 0.0
C577 C 0.66032 0.5097 0.65365 0.0
Co578 Co 0.45715 0.15215 0.68774 0.0
Co579 Co 0.51536 0.15865 0.69134 0.0
C580 C 0.50352 0.20315 0.70297 0.0
O581 O 0.47809 0.18855 0.69951 0.0
O582 O 0.51987 0.19415 0.70008 0.0
C583 C 0.40853 0.15539 0.69398 0.0
O584 O 0.42193 0.17102 0.70829 0.0
C585 C 0.57054 0.17661 0.70559 0.0
C586 C 0.5815 0.14931 0.69049 0.0
C587 C 0.59186 0.17155 0.70251 0.0
N588 N 0.54873 0.15855 0.69561 0.0
N589 N 0.55531 0.14203 0.68681 0.0
C590 C 0.57074 0.19802 0.71804 0.0
H591 H 0.55064 0.18983 0.72512 0.0
H592 H 0.58712 0.20486 0.72876 0.0
H593 H 0.57441 0.21588 0.70943 0.0
C594 C 0.4421 0.10173 0.7095 0.0
N595 N 0.46064 0.1252 0.70122 0.0
N596 N 0.48523 0.12835 0.70335 0.0
C597 C 0.48317 0.10721 0.71345 0.0
C598 C 0.45572 0.08946 0.71759 0.0
C599 C 0.41185 0.09057 0.70843 0.0
H600 H 0.4063 0.09463 0.69438 0.0
H601 H 0.40592 0.10113 0.71896 0.0
H602 H 0.40028 0.06822 0.71114 0.0
O603 O 0.46995 0.15471 0.66184 0.0
O604 O 0.51017 0.15689 0.6637 0.0
H605 H 0.51424 0.09707 0.70798 0.0
H606 H 0.50181 0.09061 0.7318 0.0
C607 C 0.50718 0.10481 0.71975 0.0
H608 H 0.52419 0.12518 0.72392 0.0
H609 H 0.54226 0.12646 0.67772 0.0
O610 O 0.41906 0.14375 0.68473 0.0
C611 C 0.49088 0.15621 0.65403 0.0
Co612 Co 0.69331 0.15392 0.1905 0.0
Co613 Co 0.64134 0.16018 0.19307 0.0
C614 C 0.69797 0.20575 0.20364 0.0
O615 O 0.70887 0.191 0.20113 0.0
O616 O 0.67258 0.1964 0.20062 0.0
C617 C 0.7459 0.15843 0.19612 0.0
O618 O 0.74915 0.17588 0.20943 0.0
C619 C 0.60489 0.17912 0.20723 0.0
C620 C 0.56628 0.15212 0.19241 0.0
C621 C 0.57863 0.17449 0.20429 0.0
N622 N 0.60813 0.16068 0.19732 0.0
N623 N 0.58482 0.14435 0.18868 0.0
C624 C 0.62643 0.20044 0.21956 0.0
H625 H 0.63834 0.19211 0.22646 0.0
H626 H 0.61718 0.20741 0.23041 0.0
H627 H 0.64058 0.21826 0.2109 0.0
C628 C 0.65827 0.10456 0.21321 0.0
N629 N 0.6631 0.12772 0.20452 0.0
N630 N 0.64152 0.13072 0.20619 0.0
C631 C 0.62239 0.10975 0.2164 0.0
C632 C 0.63225 0.0923 0.22111 0.0
C633 C 0.67737 0.0934 0.21241 0.0
H634 H 0.68679 0.09696 0.19831 0.0
H635 H 0.694 0.10435 0.22278 0.0
H636 H 0.66669 0.07115 0.21545 0.0
O637 O 0.68252 0.15472 0.16449 0.0
O638 O 0.64411 0.15631 0.16551 0.0
H639 H 0.58132 0.09911 0.20987 0.0
H640 H 0.5863 0.09274 0.23395 0.0
C641 C 0.59555 0.10697 0.22196 0.0
H642 H 0.59847 0.12725 0.22592 0.0
H643 H 0.5819 0.12855 0.17967 0.0
O644 O 0.72298 0.1454 0.18784 0.0
C645 C 0.66286 0.15528 0.15624 0.0
Co646 Co 0.85054 0.54395 0.18313 0.0
Co647 Co 0.8407 0.48442 0.18567 0.0
C648 C 0.79729 0.49769 0.19659 0.0
O649 O 0.81289 0.5229 0.1929 0.0
O650 O 0.80546 0.4805 0.19451 0.0
C651 C 0.84819 0.59249 0.19111 0.0
O652 O 0.83193 0.57812 0.20491 0.0
C653 C 0.82338 0.43033 0.20139 0.0
C654 C 0.84179 0.41408 0.18159 0.0
C655 C 0.82432 0.4068 0.19688 0.0
N656 N 0.83896 0.45009 0.18909 0.0
N657 N 0.85024 0.44039 0.17746 0.0
C658 C 0.80898 0.43473 0.21744 0.0
H659 H 0.82003 0.45658 0.2217 0.0
H660 H 0.80754 0.42175 0.22956 0.0
H661 H 0.78806 0.42941 0.21302 0.0
C662 C 0.89824 0.55552 0.20665 0.0
N663 N 0.87529 0.53816 0.19736 0.0
N664 N 0.87129 0.51314 0.19864 0.0
C665 C 0.89156 0.51378 0.20904 0.0
C666 C 0.90939 0.54071 0.21447 0.0
C667 C 0.91011 0.58592 0.20672 0.0
H668 H 0.90798 0.59291 0.19264 0.0
H669 H 0.89853 0.59125 0.2168 0.0
H670 H 0.93205 0.5968 0.2107 0.0
O671 O 0.85079 0.53366 0.157 0.0
O672 O 0.84325 0.49119 0.15804 0.0
H673 H 0.89821 0.48096 0.20143 0.0
H674 H 0.90877 0.49334 0.22509 0.0
C675 C 0.89317 0.48889 0.21413 0.0
H676 H 0.87299 0.47272 0.21933 0.0
H677 H 0.86282 0.45138 0.16625 0.0
O678 O 0.86006 0.5825 0.18155 0.0
C679 C 0.84739 0.51223 0.14878 0.0
Co680 Co 0.45889 0.3071 0.18353 0.0
Co681 Co 0.51792 0.3568 0.18934 0.0
C682 C 0.50296 0.30015 0.20155 0.0
O683 O 0.47855 0.2906 0.19574 0.0
O684 O 0.52042 0.32558 0.20027 0.0
C685 C 0.40901 0.25702 0.19061 0.0
O686 O 0.42155 0.25561 0.20571 0.0
C687 C 0.576 0.3937 0.19839 0.0
C688 C 0.58093 0.43431 0.1923 0.0
C689 C 0.59508 0.42152 0.19831 0.0
N690 N 0.55156 0.39036 0.19329 0.0
N691 N 0.55476 0.41471 0.18947 0.0
C692 C 0.58157 0.37052 0.20046 0.0
H693 H 0.569 0.35406 0.19034 0.0
H694 H 0.57604 0.36215 0.21486 0.0
H695 H 0.60338 0.37715 0.19785 0.0
C696 C 0.44416 0.34286 0.20472 0.0
N697 N 0.46281 0.33781 0.19678 0.0
N698 N 0.48757 0.35825 0.20028 0.0
C699 C 0.48539 0.37649 0.21135 0.0
C700 C 0.4578 0.36757 0.2143 0.0
C701 C 0.41392 0.3248 0.20232 0.0
H702 H 0.40935 0.31609 0.18799 0.0
H703 H 0.40641 0.30763 0.21245 0.0
H704 H 0.40291 0.33623 0.20469 0.0
O705 O 0.47252 0.31679 0.15804 0.0
O706 O 0.51426 0.35229 0.16138 0.0
H707 H 0.51598 0.41887 0.21205 0.0
H708 H 0.50281 0.40427 0.23462 0.0
C709 C 0.50901 0.40028 0.22076 0.0
H710 H 0.52617 0.39626 0.22271 0.0
H711 H 0.53926 0.41788 0.18433 0.0
O712 O 0.42064 0.27818 0.18034 0.0
C713 C 0.49493 0.33501 0.15102 0.0
Co714 Co 0.48839 0.36426 0.97745 0.0
Co715 Co 0.49537 0.31296 0.97216 0.0
C716 C 0.53827 0.36863 0.95927 0.0
O717 O 0.52412 0.37903 0.96495 0.0
O718 O 0.52949 0.34308 0.96084 0.0
C719 C 0.49997 0.41413 0.98991 0.0
O720 O 0.52012 0.41116 0.99638 0.0
C721 C 0.51485 0.27456 0.9636 0.0
C722 C 0.47882 0.23465 0.97063 0.0
C723 C 0.50556 0.24665 0.96429 0.0
N724 N 0.49424 0.2787 0.96866 0.0
N725 N 0.47287 0.25476 0.97305 0.0
C726 C 0.5438 0.29719 0.96117 0.0
H727 H 0.54836 0.31393 0.9712 0.0
H728 H 0.54647 0.30534 0.94672 0.0
H729 H 0.55866 0.29013 0.96367 0.0
C730 C 0.43657 0.32887 0.95731 0.0
N731 N 0.46055 0.33366 0.96464 0.0
N732 N 0.46384 0.31248 0.96145 0.0
C733 C 0.44241 0.29398 0.9512 0.0
C734 C 0.42417 0.3035 0.94851 0.0
C735 C 0.42527 0.34767 0.95977 0.0
H736 H 0.43135 0.35789 0.97361 0.0
H737 H 0.43387 0.36367 0.94875 0.0
H738 H 0.40263 0.33642 0.95867 0.0
O739 O 0.49182 0.35447 0.00311 0.0
O740 O 0.49692 0.31826 3e-05 0.0
H741 H 0.42904 0.25122 0.95178 0.0
H742 H 0.42953 0.26443 0.92886 0.0
C743 C 0.44061 0.26905 0.94242 0.0
H744 H 0.46134 0.27208 0.93998 0.0
H745 H 0.45456 0.25226 0.97841 0.0
O746 O 0.48167 0.3952 0.97987 0.0
C747 C 0.49549 0.33599 0.01027 0.0
Co748 Co 0.63407 0.11973 0.98075 0.0
Co749 Co 0.68538 0.17866 0.97796 0.0
C750 C 0.62912 0.1674 0.96752 0.0
O751 O 0.61898 0.14213 0.97117 0.0
O752 O 0.65464 0.18407 0.96946 0.0
C753 C 0.58208 0.07404 0.97238 0.0
O754 O 0.58147 0.09087 0.95994 0.0
C755 C 0.7235 0.23374 0.96394 0.0
C756 C 0.76038 0.24547 0.98096 0.0
C757 C 0.74946 0.25535 0.9678 0.0
N758 N 0.71905 0.21222 0.97454 0.0
N759 N 0.74133 0.21927 0.98452 0.0
C760 C 0.70329 0.23349 0.95029 0.0
H761 H 0.69107 0.21284 0.944 0.0
H762 H 0.71381 0.24885 0.93906 0.0
H763 H 0.68927 0.23862 0.95779 0.0
C764 C 0.6692 0.10648 0.95754 0.0
N765 N 0.66425 0.12454 0.96646 0.0
N766 N 0.68573 0.14923 0.96492 0.0
C767 C 0.70504 0.14764 0.95475 0.0
C768 C 0.69524 0.12045 0.94983 0.0
C769 C 0.64924 0.07643 0.95658 0.0
H770 H 0.62905 0.07312 0.95195 0.0
H771 H 0.65615 0.06583 0.94679 0.0
H772 H 0.6466 0.06746 0.97079 0.0
O773 O 0.64457 0.13006 0.00697 0.0
O774 O 0.68117 0.17151 0.0055 0.0
H775 H 0.74407 0.17852 0.96466 0.0
H776 H 0.74509 0.16586 0.94168 0.0
C777 C 0.73303 0.17137 0.95115 0.0
H778 H 0.7313 0.18847 0.94495 0.0
H779 H 0.74316 0.20652 0.9943 0.0
O780 O 0.60387 0.08138 0.98166 0.0
C781 C 0.66349 0.15118 0.01498 0.0
Co782 Co 0.87634 0.51226 0.97464 0.0
Co783 Co 0.81711 0.50301 0.97017 0.0
C784 C 0.82893 0.45808 0.96256 0.0
O785 O 0.85383 0.47358 0.96701 0.0
O786 O 0.8121 0.46684 0.9627 0.0
C787 C 0.92138 0.5057 0.96532 0.0
O788 O 0.9044 0.4892 0.95253 0.0
C789 C 0.76131 0.48384 0.95663 0.0
C790 C 0.75108 0.51283 0.97003 0.0
C791 C 0.74028 0.4895 0.95903 0.0
N792 N 0.78343 0.50266 0.96599 0.0
N793 N 0.77726 0.52012 0.97382 0.0
C794 C 0.76057 0.46121 0.94528 0.0
H795 H 0.78032 0.46868 0.93787 0.0
H796 H 0.74373 0.45324 0.93486 0.0
H797 H 0.75734 0.44431 0.9548 0.0
C798 C 0.88952 0.55957 0.95036 0.0
N799 N 0.87138 0.53632 0.95903 0.0
N800 N 0.84651 0.53227 0.9566 0.0
C801 C 0.84799 0.55251 0.9457 0.0
C802 C 0.87537 0.5707 0.94148 0.0
C803 C 0.91987 0.57227 0.95254 0.0
H804 H 0.92481 0.568 0.96672 0.0
H805 H 0.92754 0.56312 0.94211 0.0
H806 H 0.93051 0.59475 0.95043 0.0
O807 O 0.86689 0.51581 0.00033 0.0
O808 O 0.8241 0.50733 0.99796 0.0
H809 H 0.81688 0.56282 0.95048 0.0
H810 H 0.82844 0.56702 0.92649 0.0
C811 C 0.82359 0.55402 0.93916 0.0
H812 H 0.80654 0.53322 0.9359 0.0
H813 H 0.79067 0.53654 0.98221 0.0
O814 O 0.91435 0.51975 0.97533 0.0
C815 C 0.84509 0.5127 0.0078 0.0
Co816 Co 0.30229 0.84742 0.81344 0.0
Co817 Co 0.3522 0.8375 0.81165 0.0
C818 C 0.29584 0.79397 0.80051 0.0
O819 O 0.28639 0.80967 0.80422 0.0
O820 O 0.32118 0.80204 0.80254 0.0
C821 C 0.25193 0.84316 0.803 0.0
O822 O 0.25201 0.82628 0.79037 0.0
C823 C 0.38956 0.81831 0.7997 0.0
C824 C 0.42685 0.84496 0.81594 0.0
C825 C 0.41546 0.82278 0.80387 0.0
N826 N 0.38556 0.83666 0.80908 0.0
N827 N 0.40809 0.85276 0.8186 0.0
C828 C 0.36895 0.79687 0.787 0.0
H829 H 0.35453 0.77906 0.79555 0.0
H830 H 0.35731 0.80495 0.77943 0.0
H831 H 0.37899 0.78998 0.7767 0.0
C832 C 0.33892 0.89517 0.79056 0.0
N833 N 0.33307 0.8719 0.79947 0.0
N834 N 0.35413 0.86796 0.79835 0.0
C835 C 0.37404 0.88863 0.78832 0.0
C836 C 0.36508 0.90662 0.7832 0.0
C837 C 0.31978 0.90626 0.78945 0.0
H838 H 0.29991 0.89033 0.78362 0.0
H839 H 0.32809 0.92483 0.78054 0.0
H840 H 0.31592 0.91117 0.80377 0.0
O841 O 0.3121 0.84819 0.83978 0.0
O842 O 0.34666 0.83999 0.83917 0.0
H843 H 0.4133 0.89756 0.79824 0.0
H844 H 0.41347 0.90842 0.77447 0.0
C845 C 0.40173 0.89207 0.78488 0.0
H846 H 0.39957 0.87248 0.77987 0.0
H847 H 0.41029 0.86843 0.82748 0.0
O848 O 0.27286 0.85656 0.81328 0.0
C849 C 0.32978 0.84443 0.8482 0.0
Co850 Co 0.15508 0.45791 0.80674 0.0
Co851 Co 0.16093 0.51582 0.80269 0.0
C852 C 0.20433 0.50392 0.78878 0.0
O853 O 0.19038 0.47882 0.79343 0.0
O854 O 0.19542 0.52037 0.79168 0.0
C855 C 0.1595 0.40954 0.80188 0.0
O856 O 0.17712 0.42327 0.78854 0.0
C857 C 0.17976 0.57353 0.79446 0.0
C858 C 0.14341 0.5769 0.80139 0.0
C859 C 0.17019 0.59191 0.79517 0.0
N860 N 0.15929 0.54866 0.7994 0.0
N861 N 0.13771 0.55089 0.80372 0.0
C862 C 0.20881 0.58012 0.79231 0.0
H863 H 0.21154 0.57349 0.77824 0.0
H864 H 0.22352 0.60224 0.79409 0.0
H865 H 0.21346 0.56882 0.80304 0.0
C866 C 0.10282 0.44137 0.78723 0.0
N867 N 0.12671 0.46057 0.79465 0.0
N868 N 0.12985 0.48498 0.79159 0.0
C869 C 0.10857 0.48209 0.7812 0.0
C870 C 0.09044 0.45432 0.77835 0.0
C871 C 0.0916 0.41126 0.78968 0.0
H872 H 0.09712 0.40711 0.80372 0.0
H873 H 0.10076 0.404 0.77898 0.0
H874 H 0.06901 0.39969 0.78823 0.0
O875 O 0.15986 0.47128 0.83248 0.0
O876 O 0.16198 0.51141 0.83042 0.0
H877 H 0.09531 0.51159 0.78142 0.0
H878 H 0.0964 0.49896 0.75857 0.0
C879 C 0.10708 0.50531 0.77227 0.0
H880 H 0.1279 0.523 0.77006 0.0
H881 H 0.11941 0.53488 0.80894 0.0
O882 O 0.14676 0.41991 0.80993 0.0
C883 C 0.16213 0.49258 0.84016 0.0
Co884 Co 0.53757 0.68857 0.8167 0.0
Co885 Co 0.47853 0.63897 0.81122 0.0
C886 C 0.49158 0.69622 0.80307 0.0
O887 O 0.51635 0.70558 0.80796 0.0
O888 O 0.47455 0.67062 0.80328 0.0
C889 C 0.58576 0.73992 0.80986 0.0
O890 O 0.57166 0.74156 0.79578 0.0
C891 C 0.42665 0.60219 0.79267 0.0
C892 C 0.40842 0.56712 0.81213 0.0
C893 C 0.40282 0.57738 0.7961 0.0
N894 N 0.44486 0.60638 0.80623 0.0
N895 N 0.434 0.58517 0.81767 0.0
C896 C 0.43286 0.62149 0.77664 0.0
H897 H 0.45525 0.63319 0.77403 0.0
H898 H 0.42212 0.61018 0.76377 0.0
H899 H 0.4261 0.63631 0.7802 0.0
C900 C 0.55133 0.65476 0.79251 0.0
N901 N 0.53306 0.65978 0.80103 0.0
N902 N 0.50829 0.63871 0.79867 0.0
C903 C 0.51004 0.61962 0.78835 0.0
C904 C 0.53741 0.62915 0.78417 0.0
C905 C 0.58159 0.67389 0.79295 0.0
H906 H 0.58609 0.69461 0.78861 0.0
H907 H 0.59259 0.66694 0.78358 0.0
H908 H 0.58906 0.67539 0.80752 0.0
O909 O 0.52621 0.67489 0.8422 0.0
O910 O 0.48357 0.64071 0.83903 0.0
H911 H 0.47622 0.58162 0.79742 0.0
H912 H 0.49263 0.57893 0.77642 0.0
C913 C 0.48627 0.59191 0.78412 0.0
H914 H 0.47107 0.5942 0.77565 0.0
H915 H 0.44367 0.58352 0.82965 0.0
O916 O 0.57583 0.71799 0.81937 0.0
C917 C 0.50409 0.65609 0.84925 0.0
Co918 Co 0.50682 0.6372 0.02629 0.0
Co919 Co 0.50359 0.6909 0.02483 0.0
C920 C 0.4576 0.63852 0.04022 0.0
O921 O 0.4711 0.62624 0.03795 0.0
O922 O 0.46753 0.66348 0.03553 0.0
C923 C 0.49166 0.58355 0.02171 0.0
O924 O 0.46959 0.58422 0.01672 0.0
C925 C 0.49184 0.73406 0.0358 0.0
C926 C 0.51342 0.76477 0.01368 0.0
C927 C 0.49576 0.75862 0.02871 0.0
N928 N 0.5065 0.72605 0.02545 0.0
N929 N 0.51988 0.74487 0.01253 0.0
C930 C 0.47153 0.71663 0.05037 0.0
H931 H 0.47907 0.70457 0.05802 0.0
H932 H 0.46769 0.72931 0.06044 0.0
H933 H 0.4519 0.70226 0.04344 0.0
C934 C 0.55853 0.67375 0.04594 0.0
N935 N 0.53499 0.66872 0.03779 0.0
N936 N 0.53354 0.6913 0.03764 0.0
C937 C 0.55611 0.71142 0.04597 0.0
C938 C 0.57275 0.70098 0.05141 0.0
C939 C 0.5672 0.65282 0.04815 0.0
H940 H 0.55008 0.6338 0.05415 0.0
H941 H 0.58544 0.6603 0.05731 0.0
H942 H 0.57193 0.6477 0.03414 0.0
O943 O 0.50551 0.6437 0.99934 0.0
O944 O 0.50344 0.68186 0.99786 0.0
H945 H 0.5648 0.74904 0.03306 0.0
H946 H 0.58155 0.75331 0.05536 0.0
C947 C 0.56247 0.74048 0.04736 0.0
H948 H 0.54516 0.74112 0.05421 0.0
H949 H 0.53194 0.74317 0.00213 0.0
O950 O 0.51235 0.60544 0.02748 0.0
C951 C 0.50413 0.66204 0.98988 0.0
Co952 Co 0.35708 0.8735 0.02189 0.0
Co953 Co 0.30639 0.81466 0.02692 0.0
C954 C 0.3635 0.82686 0.03546 0.0
O955 O 0.37351 0.85196 0.0312 0.0
O956 O 0.33786 0.8102 0.03455 0.0
C957 C 0.40907 0.92167 0.02832 0.0
O958 O 0.41123 0.90784 0.04237 0.0
C959 C 0.27033 0.7559 0.03341 0.0
C960 C 0.22938 0.75171 0.03516 0.0
C961 C 0.24286 0.73688 0.03657 0.0
N962 N 0.27298 0.7808 0.03132 0.0
N963 N 0.2483 0.77798 0.03182 0.0
C964 C 0.29292 0.75016 0.02905 0.0
H965 H 0.30746 0.7655 0.01898 0.0
H966 H 0.304 0.75128 0.04215 0.0
H967 H 0.28487 0.72963 0.02266 0.0
C968 C 0.32434 0.88834 0.0461 0.0
N969 N 0.32819 0.86955 0.03718 0.0
N970 N 0.30743 0.84486 0.04051 0.0
C971 C 0.29038 0.84729 0.05267 0.0
C972 C 0.30019 0.87489 0.05625 0.0
C973 C 0.34255 0.91856 0.04369 0.0
H974 H 0.34995 0.92319 0.02903 0.0
H975 H 0.36059 0.92568 0.05301 0.0
H976 H 0.33176 0.92989 0.04714 0.0
O977 O 0.34407 0.86242 0.99642 0.0
O978 O 0.3084 0.82056 0.99907 0.0
H979 H 0.24758 0.81862 0.05549 0.0
H980 H 0.26554 0.82999 0.0772 0.0
C981 C 0.26706 0.82396 0.06264 0.0
H982 H 0.26992 0.80592 0.06305 0.0
H983 H 0.24424 0.79381 0.0293 0.0
O984 O 0.38686 0.91154 0.01914 0.0
C985 C 0.32478 0.84096 0.98908 0.0
Co986 Co 0.12138 0.48105 0.01339 0.0
Co987 Co 0.18097 0.49225 0.01935 0.0
C988 C 0.16463 0.53372 0.02952 0.0
O989 O 0.1402 0.51805 0.02409 0.0
O990 O 0.18253 0.52631 0.0288 0.0
C991 C 0.07128 0.48037 0.01977 0.0
O992 O 0.08399 0.49507 0.03458 0.0
C993 C 0.23409 0.51107 0.0372 0.0
C994 C 0.25251 0.49338 0.01865 0.0
C995 C 0.25832 0.51098 0.03372 0.0
N996 N 0.21532 0.49487 0.02454 0.0
N997 N 0.22633 0.48404 0.01366 0.0
C998 C 0.22833 0.52564 0.05246 0.0
H999 H 0.20645 0.51375 0.05658 0.0
H1000 H 0.24138 0.52865 0.06488 0.0
H1001 H 0.23252 0.5459 0.04725 0.0
C1002 C 0.10834 0.43181 0.03552 0.0
N1003 N 0.1264 0.45584 0.02769 0.0
N1004 N 0.15138 0.4603 0.03036 0.0
C1005 C 0.14999 0.43919 0.04016 0.0
C1006 C 0.12261 0.42034 0.04365 0.0
C1007 C 0.07803 0.42037 0.03523 0.0
H1008 H 0.07331 0.43624 0.04004 0.0
H1009 H 0.06718 0.40207 0.04434 0.0
H1010 H 0.07051 0.41486 0.02064 0.0
O1011 O 0.13519 0.48375 0.98796 0.0
O1012 O 0.17752 0.49157 0.99139 0.0
H1013 H 0.18487 0.43652 0.03172 0.0
H1014 H 0.16848 0.41724 0.05263 0.0
C1015 C 0.17431 0.4364 0.04485 0.0
H1016 H 0.18892 0.45426 0.05333 0.0
H1017 H 0.21635 0.47124 0.00231 0.0
O1018 O 0.08279 0.47029 0.00991 0.0
C1019 C 0.15775 0.48827 0.98097 0.0
Co1020 Co 0.36049 0.48219 0.52198 0.0
Co1021 Co 0.31077 0.49214 0.52444 0.0
C1022 C 0.3675 0.53583 0.53482 0.0
O1023 O 0.37683 0.51999 0.53126 0.0
O1024 O 0.34214 0.52775 0.53295 0.0
C1025 C 0.41169 0.48696 0.53045 0.0
O1026 O 0.4128 0.50471 0.54282 0.0
C1027 C 0.27419 0.50952 0.54021 0.0
C1028 C 0.23999 0.49219 0.52002 0.0
C1029 C 0.25006 0.50916 0.53557 0.0
N1030 N 0.27832 0.49408 0.52776 0.0
N1031 N 0.25761 0.48346 0.51589 0.0
C1032 C 0.29285 0.52351 0.5564 0.0
H1033 H 0.30317 0.51202 0.56072 0.0
H1034 H 0.2813 0.52519 0.56842 0.0
H1035 H 0.30883 0.54434 0.5521 0.0
C1036 C 0.32377 0.43424 0.54511 0.0
N1037 N 0.3298 0.45763 0.53626 0.0
N1038 N 0.30888 0.46176 0.53756 0.0
C1039 C 0.28882 0.44108 0.54745 0.0
C1040 C 0.29757 0.42287 0.55249 0.0
C1041 C 0.3428 0.42304 0.54622 0.0
H1042 H 0.36335 0.43948 0.55067 0.0
H1043 H 0.33533 0.4057 0.55621 0.0
H1044 H 0.3449 0.41609 0.5321 0.0
O1045 O 0.35034 0.48219 0.49569 0.0
O1046 O 0.3148 0.48879 0.49695 0.0
H1047 H 0.24739 0.4187 0.55829 0.0
H1048 H 0.26329 0.45565 0.55853 0.0
C1049 C 0.26112 0.43779 0.55056 0.0
H1050 H 0.25176 0.43745 0.53683 0.0
H1051 H 0.25611 0.47119 0.5045 0.0
O1052 O 0.38975 0.47272 0.52128 0.0
C1053 C 0.33198 0.48522 0.48757 0.0
Co1054 Co 0.50756 0.87216 0.52365 0.0
Co1055 Co 0.5029 0.8143 0.5263 0.0
C1056 C 0.45642 0.82338 0.53722 0.0
O1057 O 0.47047 0.84884 0.53382 0.0
O1058 O 0.4664 0.80774 0.53484 0.0
C1059 C 0.49871 0.91685 0.5305 0.0
O1060 O 0.47978 0.89944 0.54194 0.0
C1061 C 0.48418 0.75657 0.53499 0.0
C1062 C 0.52004 0.75275 0.52734 0.0
C1063 C 0.4936 0.73807 0.53424 0.0
N1064 N 0.50444 0.78124 0.52943 0.0
N1065 N 0.52571 0.7787 0.52468 0.0
C1066 C 0.45523 0.75008 0.53758 0.0
H1067 H 0.44954 0.75884 0.52569 0.0
H1068 H 0.45356 0.75958 0.55076 0.0
H1069 H 0.44052 0.72781 0.5379 0.0
C1070 C 0.55681 0.88786 0.54634 0.0
N1071 N 0.53409 0.86881 0.53761 0.0
N1072 N 0.53189 0.84458 0.53968 0.0
C1073 C 0.5529 0.84752 0.55046 0.0
C1074 C 0.56952 0.87505 0.55477 0.0
C1075 C 0.56606 0.91776 0.5464 0.0
H1076 H 0.57016 0.92554 0.5318 0.0
H1077 H 0.54942 0.92078 0.55199 0.0
H1078 H 0.58473 0.9296 0.55502 0.0
O1079 O 0.50764 0.8618 0.49744 0.0
O1080 O 0.50571 0.82163 0.49877 0.0
H1081 H 0.56956 0.82165 0.54484 0.0
H1082 H 0.56982 0.82968 0.56913 0.0
C1083 C 0.55774 0.82473 0.55602 0.0
H1084 H 0.53798 0.80557 0.55807 0.0
H1085 H 0.54381 0.79448 0.51903 0.0
O1086 O 0.51459 0.91016 0.52246 0.0
C1087 C 0.50688 0.84137 0.48935 0.0
Co1088 Co 0.12336 0.632 0.52663 0.0
Co1089 Co 0.18001 0.68608 0.52639 0.0
C1090 C 0.17354 0.63309 0.54083 0.0
O1091 O 0.1478 0.6207 0.53834 0.0
O1092 O 0.18848 0.65823 0.53652 0.0
C1093 C 0.08641 0.57942 0.51896 0.0
O1094 O 0.10998 0.58198 0.51393 0.0
C1095 C 0.23461 0.72851 0.53852 0.0
C1096 C 0.24462 0.76019 0.517 0.0
C1097 C 0.25563 0.7532 0.53189 0.0
N1098 N 0.21222 0.7212 0.52801 0.0
N1099 N 0.21817 0.74061 0.51547 0.0
C1100 C 0.23695 0.71033 0.55274 0.0
H1101 H 0.21707 0.69786 0.55998 0.0
H1102 H 0.25305 0.7225 0.56319 0.0
H1103 H 0.24256 0.6964 0.54555 0.0
C1104 C 0.10712 0.66719 0.54711 0.0
N1105 N 0.12595 0.66281 0.53877 0.0
N1106 N 0.14985 0.68554 0.53907 0.0
C1107 C 0.14697 0.70513 0.54785 0.0
C1108 C 0.11975 0.69416 0.55315 0.0
C1109 C 0.07759 0.64587 0.54902 0.0
H1110 H 0.07586 0.62632 0.55373 0.0
H1111 H 0.06686 0.65225 0.5591 0.0
H1112 H 0.06758 0.64226 0.53512 0.0
O1113 O 0.13232 0.64001 0.4999 0.0
O1114 O 0.17222 0.67856 0.49914 0.0
H1115 H 0.17631 0.74317 0.53563 0.0
H1116 H 0.16274 0.74675 0.55767 0.0
C1117 C 0.16944 0.73421 0.54978 0.0
H1118 H 0.18715 0.73478 0.55698 0.0
H1119 H 0.20475 0.7395 0.505 0.0
O1120 O 0.08623 0.59981 0.52639 0.0
C1121 C 0.15207 0.65887 0.49078 0.0
Co1122 Co 0.1454 0.69007 0.31824 0.0
Co1123 Co 0.15824 0.64278 0.31155 0.0
C1124 C 0.20043 0.70138 0.30471 0.0
O1125 O 0.18384 0.70921 0.30976 0.0
O1126 O 0.19323 0.67609 0.30448 0.0
C1127 C 0.14577 0.74002 0.3118 0.0
O1128 O 0.16108 0.74202 0.29736 0.0
C1129 C 0.18067 0.60921 0.29697 0.0
C1130 C 0.15216 0.56864 0.30892 0.0
C1131 C 0.17596 0.58271 0.29855 0.0
N1132 N 0.16074 0.61087 0.30614 0.0
N1133 N 0.14364 0.58645 0.31313 0.0
C1134 C 0.20376 0.63258 0.28692 0.0
H1135 H 0.21946 0.64578 0.29731 0.0
H1136 H 0.19624 0.6449 0.27962 0.0
H1137 H 0.21328 0.62523 0.27655 0.0
C1138 C 0.09925 0.65603 0.29308 0.0
N1139 N 0.12249 0.66153 0.30191 0.0
N1140 N 0.12777 0.64164 0.29874 0.0
C1141 C 0.10817 0.62304 0.28736 0.0
C1142 C 0.08933 0.63145 0.28356 0.0
C1143 C 0.08668 0.67389 0.29414 0.0
H1144 H 0.10199 0.69494 0.28973 0.0
H1145 H 0.06831 0.66622 0.28509 0.0
H1146 H 0.08104 0.67494 0.30888 0.0
O1147 O 0.14335 0.6756 0.34342 0.0
O1148 O 0.15404 0.64308 0.33943 0.0
H1149 H 0.09941 0.58245 0.29343 0.0
H1150 H 0.09168 0.58701 0.26973 0.0
C1151 C 0.10638 0.59679 0.2814 0.0
H1152 H 0.12686 0.60063 0.27701 0.0
H1153 H 0.12666 0.58218 0.32134 0.0
O1154 O 0.13481 0.71818 0.32143 0.0
C1155 C 0.14772 0.65725 0.35002 0.0
Co1156 Co 0.3051 0.45771 0.31186 0.0
Co1157 Co 0.35645 0.51634 0.30958 0.0
C1158 C 0.30026 0.50477 0.2979 0.0
O1159 O 0.28972 0.47941 0.3015 0.0
O1160 O 0.32573 0.5213 0.30033 0.0
C1161 C 0.25315 0.40977 0.30505 0.0
O1162 O 0.25045 0.42453 0.2919 0.0
C1163 C 0.39479 0.57001 0.29388 0.0
C1164 C 0.42783 0.58625 0.31494 0.0
C1165 C 0.41881 0.59361 0.29907 0.0
N1166 N 0.3897 0.5502 0.30637 0.0
N1167 N 0.40978 0.55988 0.31874 0.0
C1168 C 0.37707 0.56573 0.27721 0.0
H1169 H 0.36644 0.54388 0.27295 0.0
H1170 H 0.38941 0.57877 0.26534 0.0
H1171 H 0.3613 0.57113 0.28094 0.0
C1172 C 0.34089 0.44436 0.28943 0.0
N1173 N 0.33572 0.46242 0.29814 0.0
N1174 N 0.3574 0.48703 0.29697 0.0
C1175 C 0.37711 0.48541 0.28735 0.0
C1176 C 0.36731 0.45825 0.28232 0.0
C1177 C 0.32073 0.4144 0.28804 0.0
H1178 H 0.30052 0.41138 0.28375 0.0
H1179 H 0.32742 0.40411 0.27781 0.0
H1180 H 0.3183 0.40488 0.30203 0.0
O1181 O 0.31491 0.46847 0.33805 0.0
O1182 O 0.352 0.50953 0.33714 0.0
H1183 H 0.4188 0.50283 0.27727 0.0
H1184 H 0.40408 0.52487 0.27584 0.0
C1185 C 0.40532 0.50909 0.28437 0.0
H1186 H 0.41439 0.51842 0.29809 0.0
H1187 H 0.41045 0.54891 0.33029 0.0
O1188 O 0.27572 0.41931 0.31374 0.0
C1189 C 0.33376 0.48927 0.34635 0.0
Co1190 Co 0.53691 0.8446 0.31365 0.0
Co1191 Co 0.47867 0.83845 0.31115 0.0
C1192 C 0.48987 0.79388 0.29831 0.0
O1193 O 0.51527 0.80832 0.30195 0.0
O1194 O 0.4735 0.80288 0.30135 0.0
C1195 C 0.5852 0.8409 0.30699 0.0
O1196 O 0.57097 0.82387 0.29349 0.0
C1197 C 0.42123 0.82065 0.30157 0.0
C1198 C 0.41666 0.85426 0.31356 0.0
C1199 C 0.40238 0.82936 0.30441 0.0
N1200 N 0.44558 0.83984 0.30841 0.0
N1201 N 0.44265 0.85984 0.31556 0.0
C1202 C 0.41553 0.79292 0.29544 0.0
H1203 H 0.42194 0.78386 0.30673 0.0
H1204 H 0.42783 0.79501 0.28278 0.0
H1205 H 0.39362 0.77871 0.29251 0.0
C1206 C 0.55188 0.89486 0.29227 0.0
N1207 N 0.53317 0.87157 0.30061 0.0
N1208 N 0.50871 0.86884 0.29874 0.0
C1209 C 0.51114 0.89019 0.28862 0.0
C1210 C 0.53859 0.90748 0.28441 0.0
C1211 C 0.58186 0.90455 0.29181 0.0
H1212 H 0.58507 0.88814 0.28598 0.0
H1213 H 0.59328 0.92333 0.28322 0.0
H1214 H 0.58997 0.90866 0.30633 0.0
O1215 O 0.5255 0.84235 0.33981 0.0
O1216 O 0.48511 0.83979 0.33873 0.0
H1217 H 0.48351 0.90418 0.2958 0.0
H1218 H 0.49301 0.90861 0.27155 0.0
C1219 C 0.4879 0.89467 0.2837 0.0
H1220 H 0.46936 0.87486 0.28043 0.0
H1221 H 0.45815 0.87677 0.32251 0.0
O1222 O 0.57516 0.85332 0.31586 0.0
C1223 C 0.50481 0.84074 0.34803 0.0
H1224 H 0.07101 0.12068 0.10594 0.0
H1225 H 0.12507 0.16192 0.15242 0.0
H1226 H 0.09122 0.09136 0.10242 0.0
H1227 H 0.14558 0.13307 0.14873 0.0
H1228 H 0.19047 0.09084 0.13029 0.0
H1229 H 0.17317 0.12236 0.12706 0.0
H1230 H 0.09092 0.05409 0.12175 0.0
H1231 H 0.10818 0.02238 0.12477 0.0
C1232 C 0.08711 0.12336 0.11545 0.0
C1233 C 0.0959 0.14295 0.12984 0.0
C1234 C 0.09877 0.10672 0.11336 0.0
C1235 C 0.11981 0.10978 0.12538 0.0
C1236 C 0.12953 0.13036 0.13915 0.0
C1237 C 0.11773 0.14682 0.14131 0.0
C1238 C 0.16872 0.08243 0.12813 0.0
C1239 C 0.15065 0.05396 0.12809 0.0
C1240 C 0.15883 0.10057 0.12637 0.0
C1241 C 0.13067 0.0907 0.12443 0.0
C1242 C 0.11276 0.06231 0.12317 0.0
C1243 C 0.12265 0.04411 0.125 0.0
H1244 H 0.87265 0.95176 0.10644 0.0
H1245 H 0.83559 0.9645 0.15542 0.0
H1246 H 0.90109 0.0013 0.1024 0.0
H1247 H 0.86371 0.0139 0.15134 0.0
H1248 H 0.90462 0.1014 0.13301 0.0
H1249 H 0.87265 0.05244 0.1308 0.0
H1250 H 0.93983 0.03828 0.11987 0.0
H1251 H 0.97182 0.08726 0.12176 0.0
C1252 C 0.87071 0.96518 0.11638 0.0
C1253 C 0.85257 0.95438 0.13158 0.0
C1254 C 0.88686 0.99349 0.11401 0.0
C1255 C 0.88482 0.0115 0.12664 0.0
C1256 C 0.86562 0.00059 0.14128 0.0
C1257 C 0.84959 0.97231 0.14367 0.0
C1258 C 0.9126 0.08794 0.12983 0.0
C1259 C 0.94091 0.0983 0.1278 0.0
C1260 C 0.89425 0.05985 0.12867 0.0
C1261 C 0.90375 0.04148 0.12539 0.0
C1262 C 0.93185 0.05192 0.12232 0.0
C1263 C 0.95023 0.08003 0.12352 0.0
H1264 H 0.03255 0.8726 0.15726 0.0
H1265 H 0.04578 0.91995 0.10689 0.0
H1266 H 0.98321 0.85191 0.15324 0.0
H1267 H 0.99626 0.89965 0.10305 0.0
H1268 H 0.91085 0.88689 0.12328 0.0
H1269 H 0.95979 0.90328 0.12112 0.0
H1270 H 0.94463 0.82163 0.1322 0.0
H1271 H 0.89583 0.80519 0.13452 0.0
C1272 C 0.02487 0.8784 0.14523 0.0
C1273 C 0.04295 0.89849 0.13271 0.0
C1274 C 0.99663 0.86651 0.14289 0.0
C1275 C 0.9859 0.87441 0.12793 0.0
C1276 C 0.00399 0.89358 0.11489 0.0
C1277 C 0.03227 0.90528 0.11716 0.0
C1278 C 0.91787 0.87234 0.12499 0.0
C1279 C 0.89939 0.84481 0.12933 0.0
C1280 C 0.94591 0.88171 0.12365 0.0
C1281 C 0.95602 0.86377 0.1267 0.0
C1282 C 0.93744 0.83599 0.13006 0.0
C1283 C 0.90944 0.82659 0.1313 0.0
H1284 H 0.16066 0.12619 0.34616 0.0
H1285 H 0.12077 0.07552 0.39433 0.0
H1286 H 0.13197 0.14702 0.34901 0.0
H1287 H 0.09171 0.09612 0.39708 0.0
H1288 H 0.02208 0.11157 0.37509 0.0
H1289 H 0.05391 0.09446 0.37805 0.0
H1290 H 0.12181 0.17613 0.36929 0.0
H1291 H 0.09012 0.19325 0.36605 0.0
C1292 C 0.14591 0.11971 0.35746 0.0
C1293 C 0.14235 0.0987 0.36968 0.0
C1294 C 0.12954 0.13168 0.35915 0.0
C1295 C 0.10938 0.12299 0.37316 0.0
C1296 C 0.1067 0.10284 0.38593 0.0
C1297 C 0.12322 0.09098 0.3843 0.0
C1298 C 0.04377 0.12595 0.37402 0.0
C1299 C 0.05344 0.15371 0.37007 0.0
C1300 C 0.06205 0.11616 0.37583 0.0
C1301 C 0.09034 0.13392 0.37369 0.0
C1302 C 0.10008 0.16189 0.37069 0.0
C1303 C 0.08186 0.17169 0.36894 0.0
H1304 H 0.87159 0.03521 0.34285 0.0
H1305 H 0.91905 0.04825 0.39312 0.0
H1306 H 0.85058 0.98584 0.34693 0.0
H1307 H 0.89838 -0.0013 0.39707 0.0
H1308 H 0.88466 0.91289 0.37743 0.0
H1309 H 0.90144 0.96189 0.37938 0.0
H1310 H 0.82015 0.9474 0.36779 0.0
H1311 H 0.80335 0.8985 0.36564 0.0
C1312 C 0.87734 0.02748 0.35486 0.0
C1313 C 0.89755 0.0455 0.36734 0.0
C1314 C 0.86526 -0.00078 0.35725 0.0
C1315 C 0.87305 0.98841 0.37222 0.0
C1316 C 0.89237 0.00647 0.3852 0.0
C1317 C 0.90429 0.03477 0.38289 0.0
C1318 C 0.87027 0.92006 0.37555 0.0
C1319 C 0.84274 0.90172 0.37111 0.0
C1320 C 0.87987 0.94815 0.37678 0.0
C1321 C 0.86215 0.95848 0.37353 0.0
C1322 C 0.83436 0.94005 0.37008 0.0
C1323 C 0.82474 0.91199 0.36894 0.0
H1324 H 0.96276 0.83703 0.34794 0.0
H1325 H 0.94864 0.87596 0.39528 0.0
H1326 H 0.01201 0.86523 0.35263 0.0
H1327 H -0.00194 0.90462 0.39982 0.0
H1328 H 0.08458 0.97458 0.3793 0.0
H1329 H 0.03557 0.94273 0.38157 0.0
H1330 H 0.04973 0.87481 0.37452 0.0
H1331 H 0.09866 0.90653 0.37203 0.0
C1332 C 0.97022 0.85147 0.35946 0.0
C1333 C 0.95196 0.85495 0.37087 0.0
C1334 C -0.00159 0.86755 0.3622 0.0
C1335 C 0.00889 0.88733 0.3765 0.0
C1336 C 0.99056 0.88989 0.38848 0.0
C1337 C 0.96233 0.87365 0.3858 0.0
C1338 C 0.07735 0.95288 0.37855 0.0
C1339 C 0.09559 0.94322 0.37518 0.0
C1340 C 0.04924 0.93459 0.37995 0.0
C1341 C 0.03881 0.90629 0.37797 0.0
C1342 C 0.05716 0.89654 0.37577 0.0
C1343 C 0.08524 0.91478 0.37444 0.0
H1344 H 0.88504 0.97445 0.8723 0.0
H1345 H 0.80198 0.90659 0.87091 0.0
H1346 H 0.90188 0.94253 0.87586 0.0
H1347 H 0.81893 0.87476 0.87445 0.0
H1348 H 0.86546 0.83321 0.84863 0.0
H1349 H 0.8449 0.86199 0.85238 0.0
H1350 H 0.9023 0.9067 0.89661 0.0
H1351 H 0.92255 0.87743 0.8931 0.0
C1352 C 0.87034 0.95283 0.87315 0.0
C1353 C 0.84219 0.94318 0.87117 0.0
C1354 C 0.88 0.93451 0.87524 0.0
C1355 C 0.86171 0.90615 0.87527 0.0
C1356 C 0.8335 0.89651 0.87423 0.0
C1357 C 0.82383 0.91482 0.87226 0.0
C1358 C 0.87343 0.84892 0.85933 0.0
C1359 C 0.89616 0.85368 0.87015 0.0
C1360 C 0.8616 0.86534 0.86153 0.0
C1361 C 0.87222 0.88679 0.87465 0.0
C1362 C 0.89406 0.89064 0.88615 0.0
C1363 C 0.90574 0.87404 0.88405 0.0
H1364 H 0.02013 0.90555 0.88587 0.0
H1365 H 0.08772 0.89921 0.8632 0.0
H1366 H 0.05057 0.95431 0.8912 0.0
H1367 H 0.11779 0.94792 0.86774 0.0
H1368 H 0.17104 0.03605 0.8827 0.0
H1369 H 0.14191 0.98661 0.88693 0.0
H1370 H 0.07117 0.99303 0.87163 0.0
H1371 H 0.10009 0.04207 0.86801 0.0
C1372 C 0.0415 0.91449 0.88217 0.0
C1373 C 0.05135 0.89852 0.87387 0.0
C1374 C 0.05897 0.94251 0.88511 0.0
C1375 C 0.08661 0.95528 0.8796 0.0
C1376 C 0.09675 0.93891 0.87234 0.0
C1377 C 0.07939 0.91087 0.86962 0.0
C1378 C 0.14917 0.0268 0.88063 0.0
C1379 C 0.13776 0.04293 0.87541 0.0
C1380 C 0.13247 -0.00151 0.88293 0.0
C1381 C 0.10408 0.98568 0.87967 0.0
C1382 C 0.09275 0.00209 0.87477 0.0
C1383 C 0.10938 0.03033 0.87269 0.0
H1384 H 0.09402 0.1856 0.86217 0.0
H1385 H 0.08637 0.11205 0.88656 0.0
H1386 H 0.0451 0.16681 0.86479 0.0
H1387 H 0.03719 0.09348 0.88998 0.0
H1388 H 0.94999 0.05545 0.86571 0.0
H1389 H -0.00118 0.075 0.87032 0.0
H1390 H 0.00609 0.15338 0.88292 0.0
H1391 H 0.95701 0.13368 0.87749 0.0
C1392 C 0.08194 0.16559 0.8685 0.0
C1393 C 0.09408 0.15012 0.8739 0.0
C1394 C 0.05377 0.15484 0.87014 0.0
C1395 C 0.03696 0.12847 0.87749 0.0
C1396 C 0.04935 0.11359 0.88385 0.0
C1397 C 0.07758 0.12424 0.88195 0.0
C1398 C 0.96189 0.07666 0.86997 0.0
C1399 C 0.94971 0.093 0.8715 0.0
C1400 C 0.99 0.08794 0.87263 0.0
C1401 C 0.00661 0.11585 0.877 0.0
C1402 C 0.9941 0.13193 0.87925 0.0
C1403 C 0.96599 0.12068 0.87629 0.0
H1404 H 0.97237 0.88813 0.62347 0.0
H1405 H 0.90817 0.80539 0.61223 0.0
H1406 H 0.9406 0.90441 0.61876 0.0
H1407 H 0.87629 0.82188 0.6065 0.0
H1408 H 0.82262 0.8555 0.63086 0.0
H1409 H 0.85255 0.837 0.62514 0.0
H1410 H 0.9126 0.91406 0.60072 0.0
H1411 H 0.88408 0.93324 0.60813 0.0
C1412 C 0.95165 0.87348 0.61938 0.0
C1413 C 0.94279 0.84541 0.61848 0.0
C1414 C 0.93329 0.88287 0.61654 0.0
C1415 C 0.90561 0.86448 0.6124 0.0
C1416 C 0.89724 0.8366 0.6101 0.0
C1417 C 0.91558 0.82714 0.61325 0.0
C1418 C 0.84205 0.86842 0.62401 0.0
C1419 C 0.85062 0.89594 0.61996 0.0
C1420 C 0.8592 0.85767 0.62052 0.0
C1421 C 0.88531 0.87409 0.61265 0.0
C1422 C 0.89293 0.90092 0.60719 0.0
C1423 C 0.87605 0.91184 0.61107 0.0
H1424 H 0.12688 0.96366 0.64899 0.0
H1425 H 0.07083 0.95294 0.60429 0.0
H1426 H 0.14756 0.0132 0.64633 0.0
H1427 H 0.09117 0.0026 0.60188 0.0
H1428 H 0.10849 0.08692 0.62753 0.0
H1429 H 0.0914 0.03816 0.62331 0.0
H1430 H 0.17412 0.05275 0.62494 0.0
H1431 H 0.19134 0.1015 0.62915 0.0
C1432 C 0.11916 0.97192 0.63848 0.0
C1433 C 0.09669 0.95447 0.62726 0.0
C1434 C 0.13104 0.00027 0.63691 0.0
C1435 C 0.12075 0.01174 0.62403 0.0
C1436 C 0.09915 0.99429 0.61216 0.0
C1437 C 0.08742 0.96591 0.61364 0.0
C1438 C 0.1231 0.07987 0.62661 0.0
C1439 C 0.15127 0.09816 0.62883 0.0
C1440 C 0.11329 0.05191 0.62414 0.0
C1441 C 0.13143 0.04166 0.62396 0.0
C1442 C 0.15966 0.06006 0.62527 0.0
C1443 C 0.16949 0.08802 0.62761 0.0
H1444 H 0.89655 0.0784 0.6133 0.0
H1445 H 0.91171 0.01467 0.63269 0.0
H1446 H 0.94552 0.10919 0.60961 0.0
H1447 H 0.96069 0.04575 0.62985 0.0
H1448 H 0.04822 0.10255 0.61927 0.0
H1449 H 0.00042 0.07215 0.61208 0.0
H1450 H 0.98182 0.13398 0.63061 0.0
H1451 H 0.03009 0.16518 0.63644 0.0
C1452 C 0.91035 0.07088 0.61659 0.0
C1453 C 0.90028 0.04421 0.62352 0.0
C1454 C 0.93847 0.08861 0.6146 0.0
C1455 C 0.95721 0.08023 0.61976 0.0
C1456 C 0.94698 0.05295 0.62557 0.0
C1457 C 0.91882 0.03509 0.6273 0.0
C1458 C 0.03431 0.11028 0.62097 0.0
C1459 C 0.04327 0.13668 0.62809 0.0
C1460 C 0.00661 0.09249 0.61723 0.0
C1461 C 0.98706 0.10041 0.62087 0.0
C1462 C 0.99619 0.12719 0.62732 0.0
C1463 C 0.02392 0.14507 0.63084 0.0
H1464 H 0.75297 0.45863 0.49314 0.0
H1465 H 0.7725 0.48702 0.43609 0.0
H1466 H 0.76749 0.42513 0.48729 0.0
H1467 H 0.78769 0.45361 0.43023 0.0
H1468 H 0.84636 0.41573 0.44615 0.0
H1469 H 0.82791 0.44678 0.44514 0.0
H1470 H 0.75018 0.38203 0.46522 0.0
H1471 H 0.76836 0.3509 0.46617 0.0
C1472 C 0.76055 0.4577 0.47937 0.0
C1473 C 0.76178 0.47527 0.46505 0.0
C1474 C 0.76858 0.43844 0.47597 0.0
C1475 C 0.7784 0.43668 0.45826 0.0
C1476 C 0.78006 0.45457 0.44396 0.0
C1477 C 0.77147 0.47358 0.44729 0.0
C1478 C 0.82513 0.40793 0.44992 0.0
C1479 C 0.80889 0.38093 0.45642 0.0
C1480 C 0.81459 0.42567 0.44925 0.0
C1481 C 0.78778 0.41678 0.45529 0.0
C1482 C 0.771 0.38935 0.46061 0.0
C1483 C 0.78139 0.37152 0.46105 0.0
H1484 H 0.64472 0.42005 0.46714 0.0
H1485 H 0.5807 0.4355 0.44889 0.0
H1486 H 0.61429 0.37134 0.46297 0.0
H1487 H 0.55041 0.38661 0.44387 0.0
H1488 H 0.49519 0.29916 0.46717 0.0
H1489 H 0.52531 0.348 0.46285 0.0
H1490 H 0.58956 0.33326 0.4439 0.0
H1491 H 0.56038 0.28495 0.44977 0.0
C1492 C 0.62436 0.4131 0.46172 0.0
C1493 C 0.61507 0.43165 0.45853 0.0
C1494 C 0.60685 0.38504 0.45921 0.0
C1495 C 0.57968 0.37483 0.4532 0.0
C1496 C 0.57096 0.39361 0.44891 0.0
C1497 C 0.58838 0.42168 0.45167 0.0
C1498 C 0.51563 0.3063 0.46181 0.0
C1499 C 0.52506 0.28783 0.45864 0.0
C1500 C 0.53289 0.33439 0.45915 0.0
C1501 C 0.56006 0.34477 0.45312 0.0
C1502 C 0.56894 0.32613 0.44885 0.0
C1503 C 0.55181 0.29809 0.45181 0.0
H1504 H 0.70762 0.27084 0.46129 0.0
H1505 H 0.7007 0.19281 0.4489 0.0
H1506 H 0.65879 0.25123 0.45706 0.0
H1507 H 0.65151 0.17302 0.4438 0.0
H1508 H 0.5647 0.14121 0.46751 0.0
H1509 H 0.61317 0.15936 0.4626 0.0
H1510 H 0.6197 0.23267 0.43836 0.0
H1511 H 0.57114 0.21485 0.44423 0.0
C1512 C 0.69573 0.24967 0.45693 0.0
C1513 C 0.70793 0.23338 0.45518 0.0
C1514 C 0.66761 0.23834 0.45447 0.0
C1515 C 0.65098 0.21044 0.45008 0.0
C1516 C 0.66353 0.19446 0.44748 0.0
C1517 C 0.69169 0.20576 0.45026 0.0
C1518 C 0.57635 0.16104 0.46086 0.0
C1519 C 0.56414 0.17683 0.45658 0.0
C1520 C 0.60426 0.17142 0.45789 0.0
C1521 C 0.62062 0.19771 0.45028 0.0
C1522 C 0.60794 0.21266 0.44472 0.0
C1523 C 0.58005 0.20242 0.448 0.0
H1524 H 0.83668 0.46551 0.71121 0.0
H1525 H 0.76759 0.38995 0.69211 0.0
H1526 H 0.80684 0.48504 0.71544 0.0
H1527 H 0.738 0.40932 0.69581 0.0
H1528 H 0.68518 0.44261 0.71368 0.0
H1529 H 0.71602 0.4244 0.71687 0.0
H1530 H 0.78299 0.501 0.69675 0.0
H1531 H 0.75244 0.51951 0.69433 0.0
C1532 C 0.81506 0.45305 0.7081 0.0
C1533 C 0.80431 0.42606 0.70176 0.0
C1534 C 0.79798 0.46421 0.71042 0.0
C1535 C 0.7699 0.44872 0.70609 0.0
C1536 C 0.75929 0.42165 0.69981 0.0
C1537 C 0.77628 0.41048 0.69768 0.0
C1538 C 0.70655 0.45568 0.7102 0.0
C1539 C 0.71623 0.4824 0.70357 0.0
C1540 C 0.72424 0.44519 0.71192 0.0
C1541 C 0.75197 0.46106 0.70681 0.0
C1542 C 0.76188 0.48823 0.701 0.0
C1543 C 0.74425 0.49881 0.6995 0.0
H1544 H 0.52506 0.36356 0.69932 0.0
H1545 H 0.60444 0.37854 0.71752 0.0
H1546 H 0.50667 0.31479 0.70391 0.0
H1547 H 0.58559 0.3305 0.72375 0.0
H1548 H 0.55616 0.24472 0.69995 0.0
H1549 H 0.57334 0.29312 0.70426 0.0
H1550 H 0.49334 0.27591 0.72288 0.0
H1551 H 0.47586 0.22715 0.71783 0.0
C1552 C 0.53841 0.35664 0.70492 0.0
C1553 C 0.56625 0.37532 0.70818 0.0
C1554 C 0.52777 0.32861 0.70774 0.0
C1555 C 0.54468 0.31854 0.71406 0.0
C1556 C 0.57204 0.3374 0.71855 0.0
C1557 C 0.58279 0.36534 0.71538 0.0
C1558 C 0.54235 0.25113 0.70539 0.0
C1559 C 0.51464 0.23207 0.70849 0.0
C1560 C 0.55225 0.27903 0.70794 0.0
C1561 C 0.53475 0.28861 0.71389 0.0
C1562 C 0.5073 0.26936 0.71797 0.0
C1563 C 0.49731 0.24139 0.71519 0.0
H1564 H 0.62176 0.22707 0.7005 0.0
H1565 H 0.62808 0.15583 0.71374 0.0
H1566 H 0.67076 0.25599 0.70406 0.0
H1567 H 0.67754 0.18497 0.71787 0.0
H1568 H 0.76424 0.23976 0.69321 0.0
H1569 H 0.71561 0.20954 0.69807 0.0
H1570 H 0.7098 0.27603 0.72346 0.0
H1571 H 0.75847 0.30657 0.7179 0.0
C1572 C 0.63355 0.21771 0.70489 0.0
C1573 C 0.62107 0.18926 0.70717 0.0
C1574 C 0.66177 0.23433 0.70692 0.0
C1575 C 0.67825 0.2229 0.71131 0.0
C1576 C 0.66556 0.19445 0.71425 0.0
C1577 C 0.63726 0.17776 0.71201 0.0
C1578 C 0.7527 0.24787 0.70009 0.0
C1579 C 0.76513 0.27574 0.70482 0.0
C1580 C 0.72474 0.23044 0.703 0.0
C1581 C 0.70859 0.24036 0.71096 0.0
C1582 C 0.72146 0.26783 0.71686 0.0
C1583 C 0.74939 0.28537 0.71372 0.0
H1584 H 0.55039 0.31169 0.2197 0.0
H1585 H 0.47588 0.24472 0.19714 0.0
H1586 H 0.56792 0.28063 0.22522 0.0
H1587 H 0.49373 0.21405 0.20181 0.0
H1588 H 0.52719 0.15967 0.21626 0.0
H1589 H 0.5077 0.18944 0.22086 0.0
H1590 H 0.58552 0.25955 0.2058 0.0
H1591 H 0.60483 0.23001 0.20187 0.0
C1592 C 0.53767 0.29032 0.21606 0.0
C1593 C 0.51192 0.28082 0.20773 0.0
C1594 C 0.54776 0.2725 0.21912 0.0
C1595 C 0.53249 0.24485 0.21367 0.0
C1596 C 0.50605 0.23507 0.20638 0.0
C1597 C 0.49583 0.25279 0.20357 0.0
C1598 C 0.54014 0.18155 0.21434 0.0
C1599 C 0.56761 0.1926 0.20906 0.0
C1600 C 0.529 0.19861 0.21685 0.0
C1601 C 0.54499 0.22701 0.21372 0.0
C1602 C 0.57269 0.23797 0.20884 0.0
C1603 C 0.58384 0.22099 0.20657 0.0
H1604 H 0.77253 0.38229 0.21254 0.0
H1605 H 0.83663 0.36602 0.19583 0.0
H1606 H 0.74306 0.33449 0.21978 0.0
H1607 H 0.80613 0.31753 0.20155 0.0
H1608 H 0.74972 0.23105 0.21837 0.0
H1609 H 0.78089 0.28015 0.22184 0.0
H1610 H 0.71776 0.29563 0.20137 0.0
H1611 H 0.68661 0.24689 0.19861 0.0
C1612 C 0.78082 0.36884 0.21094 0.0
C1613 C 0.80734 0.37835 0.2039 0.0
C1614 C 0.76351 0.34107 0.2147 0.0
C1615 C 0.77196 0.32193 0.21104 0.0
C1616 C 0.7989 0.33159 0.20478 0.0
C1617 C 0.81637 0.35944 0.20132 0.0
C1618 C 0.7424 0.245 0.21497 0.0
C1619 C 0.71568 0.23507 0.2082 0.0
C1620 C 0.76032 0.27316 0.21684 0.0
C1621 C 0.75201 0.292 0.21177 0.0
C1622 C 0.72486 0.28189 0.20577 0.0
C1623 C 0.70691 0.2538 0.20411 0.0
H1624 H 0.75655 0.44501 0.20331 0.0
H1625 H 0.77233 0.52826 0.20089 0.0
H1626 H 0.70786 0.42856 0.20702 0.0
H1627 H 0.72362 0.51169 0.20465 0.0
H1628 H 0.63504 0.46559 0.17997 0.0
H1629 H 0.68441 0.48567 0.1832 0.0
H1630 H 0.67198 0.42857 0.22759 0.0
H1631 H 0.62247 0.40877 0.22456 0.0
C1632 C 0.74976 0.45986 0.20395 0.0
C1633 C 0.76838 0.48794 0.20162 0.0
C1634 C 0.72183 0.45042 0.20614 0.0
C1635 C 0.71192 0.46883 0.20595 0.0
C1636 C 0.73065 0.497 0.20458 0.0
C1637 C 0.75858 0.50646 0.2025 0.0
C1638 C 0.64286 0.45756 0.19058 0.0
C1639 C 0.62493 0.43506 0.2016 0.0
C1640 C 0.67113 0.46913 0.19249 0.0
C1641 C 0.68205 0.45849 0.20552 0.0
C1642 C 0.66412 0.43683 0.21718 0.0
C1643 C 0.63581 0.42539 0.21535 0.0
H1644 H 0.54477 0.25726 0.93773 0.0
H1645 H 0.50126 0.20336 0.98383 0.0
H1646 H 0.57399 0.2368 0.93537 0.0
H1647 H 0.52999 0.18256 0.98123 0.0
H1648 H 0.57346 0.1377 0.96403 0.0
H1649 H 0.54193 0.15493 0.96012 0.0
H1650 H 0.6102 0.23741 0.95634 0.0
H1651 H 0.64186 0.22026 0.96024 0.0
C1652 C 0.54153 0.24112 0.94739 0.0
C1653 C 0.52136 0.2325 0.96137 0.0
C1654 C 0.55812 0.22932 0.94596 0.0
C1655 C 0.55444 0.20829 0.95823 0.0
C1656 C 0.53322 0.19863 0.9715 0.0
C1657 C 0.51681 0.21058 0.97303 0.0
C1658 C 0.58186 0.15949 0.96209 0.0
C1659 C 0.61031 0.17764 0.9626 0.0
C1660 C 0.56373 0.16933 0.95993 0.0
C1661 C 0.5736 0.19751 0.95809 0.0
C1662 C 0.60201 0.21554 0.9576 0.0
C1663 C 0.62018 0.20572 0.95989 0.0
H1664 H 0.7237 0.2852 0.96725 0.0
H1665 H 0.80202 0.29127 0.95767 0.0
H1666 H 0.7439 0.33402 0.96232 0.0
H1667 H 0.82245 0.34044 0.95207 0.0
H1668 H 0.85385 0.42905 0.97197 0.0
H1669 H 0.83522 0.37999 0.96988 0.0
H1670 H 0.76348 0.37169 0.9419 0.0
H1671 H 0.78179 0.42087 0.94474 0.0
C1672 C 0.74509 0.29687 0.9634 0.0
C1673 C 0.76122 0.28439 0.96251 0.0
C1674 C 0.75676 0.32498 0.96057 0.0
C1675 C 0.78487 0.34133 0.95673 0.0
C1676 C 0.80082 0.3286 0.95526 0.0
C1677 C 0.78915 0.30045 0.95833 0.0
C1678 C 0.83424 0.41682 0.96516 0.0
C1679 C 0.81906 0.42881 0.95882 0.0
C1680 C 0.82359 0.3886 0.96383 0.0
C1681 C 0.79765 0.37168 0.95588 0.0
C1682 C 0.78321 0.38395 0.94853 0.0
C1683 C 0.79372 0.41217 0.9501 0.0
H1684 H 0.70533 0.50538 0.94526 0.0
H1685 H 0.7092 0.43433 0.96304 0.0
H1686 H 0.65608 0.47665 0.93991 0.0
H1687 H 0.66033 0.40582 0.9583 0.0
H1688 H 0.57372 0.35523 0.94242 0.0
H1689 H 0.62271 0.38507 0.93763 0.0
H1690 H 0.61648 0.45366 0.95854 0.0
H1691 H 0.56763 0.4242 0.96257 0.0
C1692 C 0.69565 0.48357 0.9478 0.0
C1693 C 0.71109 0.47198 0.95422 0.0
C1694 C 0.66747 0.46711 0.94483 0.0
C1695 C 0.65412 0.43882 0.94861 0.0
C1696 C 0.66986 0.42731 0.95473 0.0
C1697 C 0.69798 0.44369 0.95749 0.0
C1698 C 0.58275 0.37677 0.94564 0.0
C1699 C 0.5668 0.38719 0.95315 0.0
C1700 C 0.61089 0.39389 0.94301 0.0
C1701 C 0.62374 0.42173 0.94803 0.0
C1702 C 0.6074 0.43244 0.95436 0.0
C1703 C 0.57927 0.41542 0.95678 0.0
H1704 H 0.38934 0.76741 0.80698 0.0
H1705 H 0.46724 0.83749 0.79279 0.0
H1706 H 0.40851 0.73766 0.80332 0.0
H1707 H 0.48659 0.80754 0.78842 0.0
H1708 H 0.51835 0.75123 0.80961 0.0
H1709 H 0.50038 0.78213 0.80681 0.0
H1710 H 0.42549 0.71673 0.78328 0.0
H1711 H 0.44307 0.68541 0.78698 0.0
C1712 C 0.4104 0.77633 0.80246 0.0
C1713 C 0.42671 0.80468 0.79984 0.0
C1714 C 0.42146 0.75924 0.80034 0.0
C1715 C 0.44913 0.77007 0.79545 0.0
C1716 C 0.4653 0.79848 0.79241 0.0
C1717 C 0.45425 0.81564 0.79479 0.0
C1718 C 0.49816 0.74347 0.80362 0.0
C1719 C 0.48199 0.71571 0.79875 0.0
C1720 C 0.48789 0.76132 0.80189 0.0
C1721 C 0.46131 0.75196 0.79499 0.0
C1722 C 0.44578 0.72454 0.78908 0.0
C1723 C 0.45592 0.70657 0.79108 0.0
H1724 H 0.24012 0.76904 0.79805 0.0
H1725 H 0.30729 0.75352 0.79132 0.0
H1726 H 0.20775 0.7206 0.79346 0.0
H1727 H 0.27483 0.70504 0.78694 0.0
H1728 H 0.20865 0.62079 0.76835 0.0
H1729 H 0.23804 0.67049 0.76634 0.0
H1730 H 0.19536 0.68012 0.81334 0.0
H1731 H 0.16634 0.63054 0.81547 0.0
C1732 C 0.24806 0.75542 0.79537 0.0
C1733 C 0.27642 0.7652 0.7953 0.0
C1734 C 0.22945 0.72763 0.79283 0.0
C1735 C 0.23875 0.70901 0.79003 0.0
C1736 C 0.26705 0.71893 0.78895 0.0
C1737 C 0.28568 0.74674 0.79159 0.0
C1738 C 0.20568 0.63359 0.77827 0.0
C1739 C 0.18584 0.62187 0.79244 0.0
C1740 C 0.22239 0.66198 0.77707 0.0
C1741 C 0.21919 0.67915 0.7898 0.0
C1742 C 0.19821 0.66743 0.80325 0.0
C1743 C 0.18165 0.63905 0.80451 0.0
H1744 H 0.24551 0.55714 0.78833 0.0
H1745 H 0.22799 0.47526 0.77508 0.0
H1746 H 0.2938 0.57394 0.78446 0.0
H1747 H 0.27665 0.49234 0.77019 0.0
H1748 H 0.36203 0.52436 0.7973 0.0
H1749 H 0.31412 0.50624 0.78999 0.0
H1750 H 0.33273 0.58483 0.76748 0.0
H1751 H 0.37991 0.60354 0.77645 0.0
C1752 C 0.25187 0.54283 0.78396 0.0
C1753 C 0.23286 0.51479 0.78232 0.0
C1754 C 0.27978 0.55253 0.78161 0.0
C1755 C 0.28941 0.53449 0.77723 0.0
C1756 C 0.27012 0.50675 0.77404 0.0
C1757 C 0.24217 0.49697 0.7767 0.0
C1758 C 0.356 0.53772 0.79054 0.0
C1759 C 0.37518 0.56549 0.7875 0.0
C1760 C 0.32842 0.5272 0.78612 0.0
C1761 C 0.31928 0.5441 0.77831 0.0
C1762 C 0.33883 0.57129 0.77386 0.0
C1763 C 0.36632 0.58196 0.77865 0.0
H1764 H 0.41738 0.85598 0.04596 0.0
H1765 H 0.3526 0.77411 0.03292 0.0
H1766 H 0.45018 0.83954 0.04683 0.0
H1767 H 0.38537 0.75802 0.03358 0.0
H1768 H 0.46008 0.75907 0.00395 0.0
H1769 H 0.42753 0.77508 0.00893 0.0
H1770 H 0.45832 0.80015 0.06507 0.0
H1771 H 0.49071 0.78339 0.06017 0.0
C1772 C 0.41003 0.83443 0.04365 0.0
C1773 C 0.38237 0.81636 0.03927 0.0
C1774 C 0.42877 0.82507 0.04422 0.0
C1775 C 0.4202 0.79763 0.04012 0.0
C1776 C 0.3924 0.77932 0.03671 0.0
C1777 C 0.37363 0.78854 0.03644 0.0
C1778 C 0.45997 0.76815 0.0173 0.0
C1779 C 0.47775 0.77012 0.03169 0.0
C1780 C 0.44129 0.77709 0.02019 0.0
C1781 C 0.44039 0.78858 0.03742 0.0
C1782 C 0.45869 0.79127 0.0517 0.0
C1783 C 0.4771 0.78177 0.04892 0.0
H1784 H 0.20198 0.56673 0.05581 0.0
H1785 H 0.1465 0.56504 0.0136 0.0
H1786 H 0.21789 0.61501 0.0616 0.0
H1787 H 0.16381 0.61337 0.01787 0.0
H1788 H 0.18932 0.69872 0.03074 0.0
H1789 H 0.16762 0.64946 0.03343 0.0
H1790 H 0.24487 0.65756 0.05075 0.0
H1791 H 0.26513 0.7066 0.05074 0.0
C1792 C 0.19329 0.57681 0.04776 0.0
C1793 C 0.17304 0.56225 0.03431 0.0
C1794 C 0.20256 0.6046 0.05088 0.0
C1795 C 0.19247 0.61864 0.04011 0.0
C1796 C 0.17178 0.60359 0.02688 0.0
C1797 C 0.16192 0.57573 0.02425 0.0
C1798 C 0.20159 0.68997 0.03535 0.0
C1799 C 0.22952 0.70678 0.0394 0.0
C1800 C 0.18919 0.66152 0.03666 0.0
C1801 C 0.20455 0.649 0.04158 0.0
C1802 C 0.23212 0.666 0.04676 0.0
C1803 C 0.24418 0.69446 0.04613 0.0
H1804 H 0.41694 0.6506 0.03476 0.0
H1805 H 0.43267 0.58937 0.05846 0.0
H1806 H 0.3681 0.6197 0.03806 0.0
H1807 H 0.38371 0.55877 0.06264 0.0
H1808 H 0.29987 0.5 0.03564 0.0
H1809 H 0.34778 0.53179 0.04208 0.0
H1810 H 0.32811 0.59469 0.05552 0.0
H1811 H 0.28076 0.56364 0.04759 0.0
C1812 C 0.40998 0.63085 0.04126 0.0
C1813 C 0.42865 0.62229 0.04609 0.0
C1814 C 0.38187 0.61307 0.04324 0.0
C1815 C 0.37178 0.58645 0.05037 0.0
C1816 C 0.39065 0.5788 0.05663 0.0
C1817 C 0.41875 0.59643 0.05438 0.0
C1818 C 0.30571 0.52049 0.04027 0.0
C1819 C 0.28622 0.52898 0.0413 0.0
C1820 C 0.33323 0.53873 0.04416 0.0
C1821 C 0.342 0.56598 0.0493 0.0
C1822 C 0.32223 0.574 0.05138 0.0
C1823 C 0.29475 0.55585 0.04722 0.0
H1824 H 0.14911 0.58297 0.55779 0.0
H1825 H 0.22683 0.64634 0.53643 0.0
H1826 H 0.16815 0.55296 0.56201 0.0
H1827 H 0.24554 0.6161 0.53987 0.0
H1828 H 0.27806 0.56118 0.55068 0.0
H1829 H 0.26011 0.59107 0.55801 0.0
H1830 H 0.1794 0.52764 0.54122 0.0
H1831 H 0.19708 0.49698 0.53526 0.0
C1832 C 0.17038 0.59062 0.55423 0.0
C1833 C 0.18639 0.61694 0.5466 0.0
C1834 C 0.18125 0.57334 0.55652 0.0
C1835 C 0.20826 0.58184 0.55099 0.0
C1836 C 0.22475 0.60883 0.54448 0.0
C1837 C 0.21398 0.62624 0.54243 0.0
C1838 C 0.25628 0.55301 0.54941 0.0
C1839 C 0.23894 0.52634 0.54271 0.0
C1840 C 0.24604 0.5705 0.55324 0.0
C1841 C 0.21832 0.56197 0.55008 0.0
C1842 C 0.20078 0.53491 0.54412 0.0
C1843 C 0.21097 0.51734 0.54052 0.0
H1844 H 0.3563 0.57684 0.54278 0.0
H1845 H 0.42325 0.56081 0.53664 0.0
H1846 H 0.38906 0.62564 0.54574 0.0
H1847 H 0.4558 0.60953 0.53955 0.0
H1848 H 0.49555 0.69813 0.5142 0.0
H1849 H 0.46647 0.64868 0.51777 0.0
H1850 H 0.42768 0.66126 0.56588 0.0
H1851 H 0.45734 0.71081 0.56257 0.0
C1852 C 0.37794 0.58359 0.54241 0.0
C1853 C 0.38707 0.56486 0.53932 0.0
C1854 C 0.39671 0.61156 0.54416 0.0
C1855 C 0.42496 0.62135 0.54271 0.0
C1856 C 0.43413 0.60255 0.54049 0.0
C1857 C 0.41542 0.57461 0.53891 0.0
C1858 C 0.48111 0.69031 0.5257 0.0
C1859 C 0.47804 0.70825 0.53774 0.0
C1860 C 0.4645 0.66202 0.52777 0.0
C1861 C 0.44457 0.65117 0.54196 0.0
C1862 C 0.44251 0.66911 0.55461 0.0
C1863 C 0.45935 0.6974 0.55265 0.0
H1864 H 0.29172 0.75402 0.50693 0.0
H1865 H 0.28529 0.77617 0.56375 0.0
H1866 H 0.34015 0.76946 0.51182 0.0
H1867 H 0.33431 0.79229 0.56862 0.0
H1868 H 0.43042 0.84975 0.55083 0.0
H1869 H 0.38103 0.83196 0.55222 0.0
H1870 H 0.36652 0.7528 0.53427 0.0
H1871 H 0.41564 0.77029 0.533 0.0
C1872 C 0.30085 0.76244 0.52042 0.0
C1873 C 0.28505 0.76405 0.53497 0.0
C1874 C 0.3284 0.77101 0.52327 0.0
C1875 C 0.34076 0.78177 0.54064 0.0
C1876 C 0.32511 0.78396 0.55513 0.0
C1877 C 0.29726 0.77483 0.55237 0.0
C1878 C 0.4167 0.82838 0.54759 0.0
C1879 C 0.42701 0.81149 0.54164 0.0
C1880 C 0.38847 0.81823 0.54847 0.0
C1881 C 0.37014 0.79115 0.54316 0.0
C1882 C 0.38035 0.77383 0.5383 0.0
C1883 C 0.4085 0.78384 0.53769 0.0
H1884 H 0.31435 0.55594 0.2849 0.0
H1885 H 0.2445 0.47787 0.29953 0.0
H1886 H 0.28437 0.57494 0.28051 0.0
H1887 H 0.21479 0.49708 0.29611 0.0
H1888 H 0.16286 0.5338 0.28268 0.0
H1889 H 0.19305 0.51491 0.27768 0.0
H1890 H 0.2607 0.58892 0.30049 0.0
H1891 H 0.23079 0.60781 0.30475 0.0
C1892 C 0.29261 0.54277 0.28703 0.0
C1893 C 0.28193 0.51547 0.29274 0.0
C1894 C 0.27538 0.5537 0.28465 0.0
C1895 C 0.24713 0.53772 0.28822 0.0
C1896 C 0.23633 0.51002 0.29301 0.0
C1897 C 0.25348 0.499 0.29511 0.0
C1898 C 0.18434 0.5461 0.28625 0.0
C1899 C 0.19462 0.57238 0.29378 0.0
C1900 C 0.20162 0.53528 0.28351 0.0
C1901 C 0.22941 0.55034 0.28868 0.0
C1902 C 0.23967 0.57692 0.29588 0.0
C1903 C 0.22248 0.58781 0.29836 0.0
H1904 H 0.43702 0.7518 0.30009 0.0
H1905 H 0.51823 0.77067 0.28354 0.0
H1906 H 0.42065 0.70348 0.29569 0.0
H1907 H 0.50161 0.72217 0.27835 0.0
H1908 H 0.47136 0.63508 0.30211 0.0
H1909 H 0.48865 0.68368 0.29759 0.0
H1910 H 0.4097 0.66594 0.27639 0.0
H1911 H 0.39194 0.61788 0.28234 0.0
C1912 C 0.45123 0.74572 0.29497 0.0
C1913 C 0.47898 0.76512 0.29236 0.0
C1914 C 0.4418 0.71787 0.29234 0.0
C1915 C 0.45983 0.70873 0.28679 0.0
C1916 C 0.48725 0.72835 0.28302 0.0
C1917 C 0.49675 0.7562 0.28588 0.0
C1918 C 0.4578 0.64151 0.29619 0.0
C1919 C 0.43028 0.62227 0.29245 0.0
C1920 C 0.4678 0.66946 0.29343 0.0
C1921 C 0.45054 0.6789 0.28673 0.0
C1922 C 0.4235 0.65952 0.28185 0.0
C1923 C 0.41341 0.63162 0.28488 0.0
H1924 H 0.24096 0.69369 0.28993 0.0
H1925 H 0.22511 0.75664 0.31015 0.0
H1926 H 0.28946 0.72737 0.28719 0.0
H1927 H 0.27356 0.79031 0.30718 0.0
H1928 H 0.36334 0.82541 0.32837 0.0
H1929 H 0.31386 0.79678 0.32534 0.0
H1930 H 0.32422 0.77013 0.27078 0.0
H1931 H 0.37394 0.79932 0.27373 0.0
C1932 C 0.24772 0.71471 0.29358 0.0
C1933 C 0.22917 0.72229 0.30057 0.0
C1934 C 0.2755 0.73408 0.29185 0.0
C1935 C 0.28533 0.76142 0.29715 0.0
C1936 C 0.26661 0.7693 0.30324 0.0
C1937 C 0.23883 0.74999 0.30485 0.0
C1938 C 0.35502 0.81374 0.31562 0.0
C1939 C 0.37243 0.8139 0.30152 0.0
C1940 C 0.32669 0.79741 0.31385 0.0
C1941 C 0.31518 0.78099 0.2979 0.0
C1942 C 0.33257 0.78219 0.28338 0.0
C1943 C 0.36095 0.79872 0.2851 0.0
H1944 H 0.01681 0.22438 0.2956 0.0
H1945 H 0.97703 0.13607 0.2959 0.0
H1946 H 0.01728 0.22425 0.26147 0.0
H1947 H 0.97784 0.13608 0.26152 0.0
H1948 H 0.01761 0.15599 0.20117 0.0
H1949 H 0.01682 0.15508 0.23554 0.0
H1950 H 0.98002 0.2062 0.23578 0.0
H1951 H 0.98046 0.20691 0.20165 0.0
C1952 C 0.00808 0.20492 0.28837 0.0
C1953 C 0.99682 0.18021 0.29842 0.0
C1954 C 0.00834 0.20488 0.26884 0.0
C1955 C -0.00227 0.18018 0.25893 0.0
C1956 C 0.98636 0.1554 0.2689 0.0
C1957 C 0.98566 0.1554 0.28851 0.0
C1958 C 0.00957 0.16719 0.20859 0.0
C1959 C -0.00086 0.18155 0.19874 0.0
C1960 C 0.00888 0.16644 0.2282 0.0
C1961 C -0.00175 0.18048 0.23822 0.0
C1962 C 0.98839 0.19528 0.22837 0.0
C1963 C 0.98863 0.19564 0.20884 0.0
H1964 H 0.86196 0.84363 0.29782 0.0
H1965 H 0.77382 0.79326 0.29727 0.0
H1966 H 0.86213 0.84449 0.26344 0.0
H1967 H 0.77412 0.79397 0.26317 0.0
H1968 H 0.79174 0.7754 0.20345 0.0
H1969 H 0.79266 0.77563 0.23755 0.0
H1970 H 0.84274 0.86369 0.23734 0.0
H1971 H 0.84168 0.8636 0.20297 0.0
C1972 C 0.84272 0.83254 0.29038 0.0
C1973 C 0.81789 0.81835 0.30022 0.0
C1974 C 0.8428 0.83327 0.27077 0.0
C1975 C 0.81812 0.81938 0.26073 0.0
C1976 C 0.79343 0.80476 0.27058 0.0
C1977 C 0.79329 0.8044 0.2901 0.0
C1978 C 0.80284 0.79486 0.21063 0.0
C1979 C 0.81659 0.8195 0.20053 0.0
C1980 C 0.80333 0.79496 0.23015 0.0
C1981 C 0.81787 0.81965 0.24002 0.0
C1982 C 0.83159 0.84436 0.23 0.0
C1983 C 0.83074 0.84432 0.21039 0.0
H1984 H 0.13924 0.95944 0.20385 0.0
H1985 H 0.20934 0.0412 0.20591 0.0
H1986 H 0.13741 0.9585 0.23812 0.0
H1987 H 0.20739 0.04015 0.23995 0.0
H1988 H 0.17743 0.0376 0.30028 0.0
H1989 H 0.17612 0.0385 0.26603 0.0
H1990 H 0.16822 0.95839 0.26395 0.0
H1991 H 0.16955 0.95738 0.29799 0.0
C1992 C 0.15417 0.97719 0.21157 0.0
C1993 C 0.17451 0.00031 0.20215 0.0
C1994 C 0.15317 0.97662 0.23116 0.0
C1995 C 0.17224 -0.00071 0.24165 0.0
C1996 C 0.19227 0.02252 0.23222 0.0
C1997 C 0.19349 0.02298 0.21271 0.0
C1998 C 0.17539 0.02019 0.2925 0.0
C1999 C 0.17375 0.99751 0.30186 0.0
C2000 C 0.17469 0.02073 0.27293 0.0
C2001 C 0.17199 0.99846 0.26238 0.0
C2002 C 0.17001 0.97569 0.27174 0.0
C2003 C 0.17102 0.97526 0.29124 0.0
H2004 H 0.03386 0.86505 0.69865 0.0
H2005 H 0.95242 0.79454 0.70121 0.0
H2006 H 0.03422 0.86867 0.73281 0.0
H2007 H 0.95294 0.79813 0.73515 0.0
H2008 H 0.95514 0.82465 0.79587 0.0
H2009 H 0.95401 0.8278 0.76166 0.0
H2010 H 0.0356 0.83949 0.75844 0.0
H2011 H 0.03685 0.83649 0.79228 0.0
C2012 C 0.01601 0.85047 0.70645 0.0
C2013 C 0.99325 0.82936 0.69721 0.0
C2014 C 0.01623 0.8525 0.72599 0.0
C2015 C 0.9936 0.83365 0.73664 0.0
C2016 C 0.97054 0.81314 0.72734 0.0
C2017 C 0.9704 0.81095 0.70787 0.0
C2018 C 0.97286 0.82809 0.78784 0.0
C2019 C 0.99595 0.83007 0.7968 0.0
C2020 C 0.9722 0.82983 0.76828 0.0
C2021 C 0.99476 0.83395 0.7574 0.0
C2022 C 0.01805 0.83666 0.76644 0.0
C2023 C 0.01861 0.83465 0.78586 0.0
H2024 H 0.17103 0.21119 0.79922 0.0
H2025 H 0.18116 0.14014 0.8007 0.0
H2026 H 0.1706 0.20999 0.76521 0.0
H2027 H 0.18077 0.13909 0.76638 0.0
H2028 H 0.21246 0.17106 0.70588 0.0
H2029 H 0.21129 0.16965 0.74 0.0
H2030 H 0.13986 0.17894 0.73959 0.0
H2031 H 0.14089 0.18033 0.70537 0.0
C2032 C 0.17324 0.19531 0.79231 0.0
C2033 C 0.1762 0.17577 0.80272 0.0
C2034 C 0.17276 0.19454 0.77279 0.0
C2035 C 0.17551 0.17439 0.76317 0.0
C2036 C 0.17872 0.15493 0.77348 0.0
C2037 C 0.17887 0.15549 0.7931 0.0
C2038 C 0.19648 0.17283 0.71303 0.0
C2039 C 0.17684 0.17597 0.70289 0.0
C2040 C 0.19571 0.17177 0.73257 0.0
C2041 C 0.17549 0.17415 0.74242 0.0
C2042 C 0.1558 0.17724 0.73233 0.0
C2043 C 0.15636 0.17798 0.71275 0.0
H2044 H 0.85517 0.03622 0.79603 0.0
H2045 H 0.78054 0.95773 0.79469 0.0
H2046 H 0.85761 0.03556 0.76185 0.0
H2047 H 0.78306 0.95723 0.76069 0.0
H2048 H 0.81289 0.95345 0.70137 0.0
H2049 H 0.81272 0.95404 0.73566 0.0
H2050 H 0.83048 0.03788 0.73483 0.0
H2051 H 0.83075 0.03744 0.7008 0.0
C2052 C 0.83928 0.01889 0.78848 0.0
C2053 C 0.81762 0.9971 0.79811 0.0
C2054 C 0.84066 0.01854 0.76892 0.0
C2055 C 0.82058 0.99626 0.75864 0.0
C2056 C 0.79901 0.97448 0.76826 0.0
C2057 C 0.79748 0.97493 0.78775 0.0
C2058 C 0.81683 0.972 0.70852 0.0
C2059 C 0.82169 0.99532 0.69834 0.0
C2060 C 0.81663 0.97231 0.72813 0.0
C2061 C 0.82161 0.99603 0.73789 0.0
C2062 C 0.82686 0.01942 0.7277 0.0
C2063 C 0.82679 0.01904 0.70817 0.0
H2064 H 0.63937 0.53084 0.53551 0.0
H2065 H 0.68619 0.48929 0.53673 0.0
H2066 H 0.63743 0.52989 0.56967 0.0
H2067 H 0.68371 0.48794 0.57106 0.0
H2068 H 0.64142 0.46502 0.63069 0.0
H2069 H 0.6423 0.46481 0.59633 0.0
H2070 H 0.67587 0.55233 0.59586 0.0
H2071 H 0.67557 0.55274 0.63006 0.0
C2072 C 0.64921 0.52147 0.54308 0.0
C2073 C 0.663 0.51019 0.53346 0.0
C2074 C 0.64811 0.52098 0.5626 0.0
C2075 C 0.6603 0.50873 0.57289 0.0
C2076 C 0.67397 0.4973 0.56335 0.0
C2077 C 0.67557 0.49827 0.54378 0.0
C2078 C 0.64875 0.48415 0.62322 0.0
C2079 C 0.65842 0.5089 0.63302 0.0
C2080 C 0.64946 0.48403 0.60363 0.0
C2081 C 0.65926 0.50857 0.59357 0.0
C2082 C 0.66818 0.53316 0.60334 0.0
C2083 C 0.66802 0.53337 0.62288 0.0
H2084 H 0.52783 0.15196 0.63129 0.0
H2085 H 0.45833 0.16461 0.62992 0.0
H2086 H 0.53017 0.15444 0.59707 0.0
H2087 H 0.46073 0.167 0.59592 0.0
H2088 H 0.48936 0.19493 0.53577 0.0
H2089 H 0.49146 0.19677 0.57002 0.0
H2090 H 0.50013 0.12496 0.57092 0.0
H2091 H 0.49812 0.12306 0.53691 0.0
C2092 C 0.51313 0.15532 0.62373 0.0
C2093 C 0.4928 0.15791 0.63334 0.0
C2094 C 0.51444 0.15669 0.60416 0.0
C2095 C 0.49566 0.16098 0.59386 0.0
C2096 C 0.47567 0.16401 0.60349 0.0
C2097 C 0.47417 0.16238 0.62298 0.0
C2098 C 0.49185 0.17964 0.54329 0.0
C2099 C 0.49339 0.15877 0.53361 0.0
C2100 C 0.49297 0.18065 0.56287 0.0
C2101 C 0.49599 0.16101 0.57311 0.0
C2102 C 0.4981 0.14053 0.56341 0.0
C2103 C 0.4967 0.13935 0.54391 0.0
H2104 H 0.83551 0.29158 0.62551 0.0
H2105 H 0.84291 0.3716 0.62774 0.0
H2106 H 0.83357 0.2922 0.59158 0.0
H2107 H 0.84086 0.37208 0.59345 0.0
H2108 H 0.8719 0.37345 0.53252 0.0
H2109 H 0.87084 0.37367 0.56662 0.0
H2110 H 0.80236 0.29106 0.56634 0.0
H2111 H 0.80339 0.29067 0.53214 0.0
C2112 C 0.83671 0.30935 0.61877 0.0
C2113 C 0.83949 0.33164 0.62937 0.0
C2114 C 0.83535 0.30955 0.5993 0.0
C2115 C 0.83695 0.33211 0.58988 0.0
C2116 C 0.83972 0.35446 0.60038 0.0
C2117 C 0.8408 0.35416 0.61998 0.0
C2118 C 0.85658 0.35529 0.53969 0.0
C2119 C 0.83783 0.33194 0.52958 0.0
C2120 C 0.85585 0.35556 0.55923 0.0
C2121 C 0.83652 0.33242 0.56912 0.0
C2122 C 0.81763 0.30913 0.55906 0.0
C2123 C 0.81819 0.30893 0.53948 0.0
H2124 H 0.62116 0.14793 0.13271 0.0
H2125 H 0.70426 0.16315 0.1328 0.0
H2126 H 0.62149 0.14801 0.09841 0.0
H2127 H 0.70445 0.16319 0.09876 0.0
H2128 H 0.70341 0.18937 0.03789 0.0
H2129 H 0.70288 0.19144 0.07209 0.0
H2130 H 0.62364 0.11798 0.07305 0.0
H2131 H 0.62402 0.11582 0.03902 0.0
C2132 C 0.63946 0.15133 0.12545 0.0
C2133 C 0.66261 0.15541 0.1355 0.0
C2134 C 0.63962 0.15129 0.10584 0.0
C2135 C 0.66304 0.15567 0.09595 0.0
C2136 C 0.68624 0.16007 0.106 0.0
C2137 C 0.686 0.15982 0.12553 0.0
C2138 C 0.6859 0.17366 0.04539 0.0
C2139 C 0.66383 0.15239 0.03571 0.0
C2140 C 0.68562 0.17482 0.06496 0.0
C2141 C 0.66315 0.15492 0.0752 0.0
C2142 C 0.64106 0.13378 0.06551 0.0
C2143 C 0.64145 0.13244 0.04601 0.0
H2144 H 0.82404 0.46779 0.12526 0.0
H2145 H 0.87024 0.55622 0.12553 0.0
H2146 H 0.82194 0.46831 0.09093 0.0
H2147 H 0.86832 0.55659 0.09146 0.0
H2148 H 0.88814 0.5407 0.03122 0.0
H2149 H 0.88812 0.54003 0.06533 0.0
H2150 H 0.80051 0.48653 0.06536 0.0
H2151 H 0.80039 0.48741 0.03095 0.0
C2152 C 0.8339 0.48726 0.11801 0.0
C2153 C 0.84736 0.51195 0.12808 0.0
C2154 C 0.83245 0.48755 0.09843 0.0
C2155 C 0.84487 0.5125 0.08863 0.0
C2156 C 0.85864 0.53709 0.09869 0.0
C2157 C 0.8597 0.53683 0.11819 0.0
C2158 C 0.8688 0.52898 0.03847 0.0
C2159 C 0.84424 0.51415 0.02843 0.0
C2160 C 0.86882 0.52863 0.05799 0.0
C2161 C 0.84435 0.51311 0.06792 0.0
C2162 C 0.81967 0.49847 0.05796 0.0
C2163 C 0.81958 0.4992 0.03834 0.0
H2164 H 0.49345 0.29521 0.03248 0.0
H2165 H 0.50506 0.37694 0.03463 0.0
H2166 H 0.49693 0.29523 0.06668 0.0
H2167 H 0.50842 0.37682 0.06855 0.0
H2168 H 0.53418 0.3757 0.12895 0.0
H2169 H 0.53772 0.37587 0.09472 0.0
H2170 H 0.46676 0.29485 0.0926 0.0
H2171 H 0.4632 0.29456 0.12649 0.0
C2172 C 0.49691 0.31319 0.0402 0.0
C2173 C 0.49869 0.33592 0.03084 0.0
C2174 C 0.49885 0.31319 0.05975 0.0
C2175 C 0.50296 0.33606 0.07026 0.0
C2176 C 0.50557 0.35905 0.06083 0.0
C2177 C 0.50335 0.35895 0.04138 0.0
C2178 C 0.51949 0.35789 0.12116 0.0
C2179 C 0.49828 0.33526 0.13044 0.0
C2180 C 0.52148 0.358 0.1016 0.0
C2181 C 0.50253 0.33533 0.09102 0.0
C2182 C 0.48185 0.31246 0.10037 0.0
C2183 C 0.47968 0.31246 0.11981 0.0
H2184 H 0.30828 0.86716 0.87126 0.0
H2185 H 0.34994 0.82043 0.87191 0.0
H2186 H 0.30504 0.86464 0.90529 0.0
H2187 H 0.34639 0.81775 0.9062 0.0
H2188 H 0.30497 0.79614 0.96596 0.0
H2189 H 0.30621 0.79632 0.93152 0.0
H2190 H 0.34111 0.88405 0.93161 0.0
H2191 H 0.34023 0.88399 0.9657 0.0
C2192 C 0.3168 0.85638 0.87867 0.0
C2193 C 0.32949 0.84409 0.86891 0.0
C2194 C 0.31491 0.85495 0.89815 0.0
C2195 C 0.32532 0.84088 0.9083 0.0
C2196 C 0.33796 0.82849 0.89862 0.0
C2197 C 0.34025 0.83028 0.87907 0.0
C2198 C 0.31257 0.81535 0.95856 0.0
C2199 C 0.32248 0.84004 0.96846 0.0
C2200 C 0.31354 0.81549 0.93893 0.0
C2201 C 0.32387 0.84023 0.929 0.0
C2202 C 0.33297 0.86471 0.93894 0.0
C2203 C 0.33248 0.86465 0.95844 0.0
H2204 H 0.17407 0.46212 0.86382 0.0
H2205 H 0.15672 0.52858 0.86318 0.0
H2206 H 0.17604 0.46381 0.89785 0.0
H2207 H 0.1588 0.53023 0.89743 0.0
H2208 H 0.12414 0.49338 0.95604 0.0
H2209 H 0.1285 0.49754 0.92222 0.0
H2210 H 0.20297 0.49377 0.92506 0.0
H2211 H 0.19867 0.48955 0.95924 0.0
C2212 C 0.17084 0.47724 0.87093 0.0
C2213 C 0.16494 0.49506 0.86078 0.0
C2214 C 0.17224 0.47833 0.89044 0.0
C2215 C 0.16753 0.49709 0.90028 0.0
C2216 C 0.16231 0.51541 0.89017 0.0
C2217 C 0.16118 0.51451 0.87059 0.0
C2218 C 0.14152 0.49345 0.94954 0.0
C2219 C 0.16098 0.49092 0.96036 0.0
C2220 C 0.14413 0.49613 0.93014 0.0
C2221 C 0.16613 0.49613 0.92102 0.0
C2222 C 0.18574 0.49374 0.93177 0.0
C2223 C 0.1833 0.49135 0.95129 0.0
H2224 H 0.48457 0.68515 0.96505 0.0
H2225 H 0.52104 0.63371 0.96809 0.0
H2226 H 0.48237 0.68064 0.93084 0.0
H2227 H 0.51927 0.62975 0.934 0.0
H2228 H 0.54566 0.66802 0.87342 0.0
H2229 H 0.54418 0.6677 0.90759 0.0
H2230 H 0.45749 0.63872 0.90585 0.0
H2231 H 0.45877 0.63842 0.87145 0.0
C2232 C 0.49217 0.67298 0.95843 0.0
C2233 C 0.50306 0.65986 0.96923 0.0
C2234 C 0.49069 0.67023 0.93892 0.0
C2235 C 0.50057 0.65478 0.9299 0.0
C2236 C 0.51153 0.64176 0.94067 0.0
C2237 C 0.51252 0.64405 0.96015 0.0
C2238 C 0.52621 0.66126 0.88032 0.0
C2239 C 0.50232 0.65322 0.86982 0.0
C2240 C 0.52539 0.66105 0.89984 0.0
C2241 C 0.50076 0.65332 0.90925 0.0
C2242 C 0.47673 0.6449 0.89883 0.0
C2243 C 0.47743 0.64452 0.87923 0.0
H2244 H 0.37157 0.48923 0.46372 0.0
H2245 H 0.29218 0.48336 0.4645 0.0
H2246 H 0.37214 0.49163 0.42968 0.0
H2247 H 0.29286 0.48572 0.43027 0.0
H2248 H 0.29231 0.45538 0.36964 0.0
H2249 H 0.29175 0.4554 0.4037 0.0
H2250 H 0.37418 0.52416 0.40429 0.0
H2251 H 0.37485 0.52428 0.36999 0.0
C2252 C 0.35418 0.48837 0.45665 0.0
C2253 C 0.33174 0.48598 0.46685 0.0
C2254 C 0.35467 0.49 0.43714 0.0
C2255 C 0.33262 0.48898 0.42736 0.0
C2256 C 0.31009 0.48643 0.43749 0.0
C2257 C 0.30972 0.48512 0.45706 0.0
C2258 C 0.31037 0.47056 0.37697 0.0
C2259 C 0.33371 0.48978 0.36708 0.0
C2260 C 0.30991 0.47067 0.3965 0.0
C2261 C 0.33288 0.48978 0.40662 0.0
C2262 C 0.35624 0.50907 0.3968 0.0
C2263 C 0.35659 0.5092 0.37719 0.0
H2264 H 0.51118 0.80477 0.46624 0.0
H2265 H 0.50071 0.87563 0.46546 0.0
H2266 H 0.50918 0.8032 0.43201 0.0
H2267 H 0.49881 0.874 0.43144 0.0
H2268 H 0.46867 0.84512 0.37154 0.0
H2269 H 0.46815 0.84387 0.4058 0.0
H2270 H 0.53831 0.83244 0.40552 0.0
H2271 H 0.53886 0.83358 0.37147 0.0
C2272 C 0.50849 0.81999 0.45881 0.0
C2273 C 0.50621 0.84036 0.46861 0.0
C2274 C 0.5074 0.81912 0.43922 0.0
C2275 C 0.50372 0.83842 0.42908 0.0
C2276 C 0.5013 0.85865 0.43888 0.0
C2277 C 0.50264 0.85969 0.45839 0.0
C2278 C 0.48391 0.84225 0.37879 0.0
C2279 C 0.50386 0.83958 0.36876 0.0
C2280 C 0.48368 0.84163 0.39839 0.0
C2281 C 0.5032 0.83804 0.40831 0.0
C2282 C 0.52284 0.83494 0.39826 0.0
C2283 C 0.52325 0.83582 0.37873 0.0
H2284 H 0.17728 0.64133 0.3718 0.0
H2285 H 0.11602 0.66576 0.37452 0.0
H2286 H 0.17868 0.64069 0.40619 0.0
H2287 H 0.11705 0.66454 0.40866 0.0
H2288 H 0.10749 0.62978 0.46856 0.0
H2289 H 0.10587 0.62684 0.43445 0.0
H2290 H 0.19328 0.68087 0.43195 0.0
H2291 H 0.19501 0.6843 0.46623 0.0
C2292 C 0.16382 0.64607 0.37973 0.0
C2293 C 0.14655 0.6536 0.37054 0.0
C2294 C 0.1648 0.64594 0.39933 0.0
C2295 C 0.14804 0.65266 0.40997 0.0
C2296 C 0.1301 0.65919 0.40075 0.0
C2297 C 0.12955 0.65992 0.38125 0.0
C2298 C 0.12641 0.64105 0.46078 0.0
C2299 C 0.15138 0.6574 0.47008 0.0
C2300 C 0.12543 0.63934 0.44127 0.0
C2301 C 0.14946 0.65353 0.43066 0.0
C2302 C 0.17452 0.66954 0.43989 0.0
C2303 C 0.17545 0.67169 0.45945 0.0
H2304 H 0.08695 0.371 0.02859 0.0
H2305 H 0.13168 0.40903 0.07911 0.0
H2306 H 0.06525 0.32634 0.04395 0.0
H2307 H 0.10945 0.36456 0.09487 0.0
H2308 H 0.08157 0.27791 0.11377 0.0
H2309 H 0.1061 0.32088 0.09659 0.0
H2310 H 0.03164 0.30152 0.06709 0.0
H2311 H 0.00767 0.25783 0.08354 0.0
C2312 C 0.09207 0.36967 0.04303 0.0
C2313 C 0.11087 0.39326 0.05274 0.0
C2314 C 0.07955 0.34417 0.05189 0.0
C2315 C 0.0854 0.34178 0.07072 0.0
C2316 C 0.10469 0.3655 0.08029 0.0
C2317 C 0.11737 0.39098 0.07135 0.0
C2318 C 0.07062 0.28264 0.10335 0.0
C2319 C 0.04273 0.26452 0.09995 0.0
C2320 C 0.08457 0.30746 0.09368 0.0
C2321 C 0.07089 0.31483 0.08048 0.0
C2322 C 0.04299 0.29645 0.07697 0.0
C2323 C 0.02912 0.27154 0.08654 0.0
H2324 H 0.58732 0.72577 0.08539 0.0
H2325 H 0.62007 0.70936 0.03574 0.0
H2326 H 0.63277 0.74837 0.09963 0.0
H2327 H 0.66592 0.73317 0.04934 0.0
H2328 H 0.73783 0.74956 0.08697 0.0
H2329 H 0.69315 0.72861 0.07193 0.0
H2330 H 0.67639 0.78693 0.0995 0.0
H2331 H 0.7201 0.8062 0.11565 0.0
C2332 C 0.60447 0.72743 0.07748 0.0
C2333 C 0.60043 0.7159 0.05958 0.0
C2334 C 0.63056 0.74053 0.08552 0.0
C2335 C 0.65322 0.74269 0.07568 0.0
C2336 C 0.64901 0.7315 0.05753 0.0
C2337 C 0.62283 0.71804 0.04964 0.0
C2338 C 0.72446 0.75771 0.08989 0.0
C2339 C 0.73242 0.77941 0.10256 0.0
C2340 C 0.69894 0.74596 0.08107 0.0
C2341 C 0.68093 0.75596 0.08448 0.0
C2342 C 0.68938 0.77829 0.09675 0.0
C2343 C 0.71472 0.78972 0.10578 0.0
H2344 H 0.24463 0.95712 0.13376 0.0
H2345 H 0.20338 0.95074 0.0816 0.0
H2346 H 0.26599 0.93269 0.12 0.0
H2347 H 0.22497 0.92667 0.06758 0.0
H2348 H 0.24698 0.86182 0.0534 0.0
H2349 H 0.22441 0.88368 0.06892 0.0
H2350 H 0.30009 0.93887 0.09711 0.0
H2351 H 0.32223 0.916 0.08216 0.0
C2352 C 0.24026 0.95049 0.1193 0.0
C2353 C 0.22233 0.95555 0.10871 0.0
C2354 C 0.25254 0.93663 0.11139 0.0
C2355 C 0.24717 0.92765 0.09269 0.0
C2356 C 0.22918 0.93285 0.08212 0.0
C2357 C 0.21687 0.94667 0.09008 0.0
C2358 C 0.2586 0.87824 0.06322 0.0
C2359 C 0.28631 0.88722 0.06663 0.0
C2360 C 0.2458 0.89106 0.07189 0.0
C2361 C 0.26048 0.9132 0.08415 0.0
C2362 C 0.28811 0.92175 0.08787 0.0
C2363 C 0.30087 0.90885 0.07921 0.0
H2364 H 0.25731 0.00795 0.41444 0.0
H2365 H 0.27651 0.08204 0.38475 0.0
H2366 H 0.30178 0.03158 0.42986 0.0
H2367 H 0.32019 0.10631 0.40107 0.0
H2368 H 0.40878 0.1323 0.41657 0.0
H2369 H 0.36372 0.10993 0.40168 0.0
H2370 H 0.32794 0.06459 0.4527 0.0
H2371 H 0.37325 0.08632 0.4671 0.0
C2372 C 0.271 0.02937 0.41133 0.0
C2373 C 0.26349 0.04312 0.39837 0.0
C2374 C 0.29636 0.04306 0.42035 0.0
C2375 C 0.3147 0.07094 0.41675 0.0
C2376 C 0.30684 0.08478 0.40401 0.0
C2377 C 0.2816 0.07098 0.39486 0.0
C2378 C 0.39114 0.11767 0.42453 0.0
C2379 C 0.39428 0.11089 0.44288 0.0
C2380 C 0.36531 0.10492 0.41609 0.0
C2381 C 0.34207 0.08532 0.42595 0.0
C2382 C 0.34535 0.07913 0.44453 0.0
C2383 C 0.37122 0.09168 0.45286 0.0
H2384 H 0.9139 0.2948 0.45984 0.0
H2385 H 0.86185 0.27582 0.4114 0.0
H2386 H 0.93649 0.27189 0.44548 0.0
H2387 H 0.88414 0.25256 0.39701 0.0
H2388 H 0.95418 0.24474 0.36945 0.0
H2389 H 0.93008 0.2659 0.38405 0.0
H2390 H 0.92623 0.22507 0.43611 0.0
H2391 H 0.95065 0.20416 0.4214 0.0
C2392 C 0.90732 0.28563 0.44611 0.0
C2393 C 0.88625 0.28699 0.43666 0.0
C2394 C 0.92005 0.27236 0.43796 0.0
C2395 C 0.91206 0.2604 0.42013 0.0
C2396 C 0.89088 0.26177 0.41071 0.0
C2397 C 0.87803 0.27488 0.41894 0.0
C2398 C 0.94808 0.24033 0.384 0.0
C2399 C 0.9541 0.22288 0.39436 0.0
C2400 C 0.93417 0.25225 0.39232 0.0
C2401 C 0.9262 0.2471 0.41121 0.0
C2402 C 0.93227 0.22957 0.42156 0.0
C2403 C 0.94604 0.21747 0.41316 0.0
H2404 H 0.8032 0.72203 0.38506 0.0
H2405 H 0.74719 0.74051 0.41389 0.0
H2406 H 0.78355 0.67823 0.4012 0.0
H2407 H 0.72599 0.69583 0.429 0.0
H2408 H 0.70695 0.62297 0.46543 0.0
H2409 H 0.73099 0.66871 0.45168 0.0
H2410 H 0.74423 0.63474 0.40106 0.0
H2411 H 0.72125 0.58931 0.41539 0.0
C2412 C 0.78678 0.71679 0.39497 0.0
C2413 C 0.77674 0.7347 0.39824 0.0
C2414 C 0.77516 0.69143 0.40399 0.0
C2415 C 0.75295 0.68323 0.41633 0.0
C2416 C 0.74324 0.70146 0.4198 0.0
C2417 C 0.75514 0.72696 0.41095 0.0
C2418 C 0.7152 0.6255 0.45141 0.0
C2419 C 0.71238 0.60286 0.4414 0.0
C2420 C 0.72881 0.65162 0.44345 0.0
C2421 C 0.73953 0.65556 0.42517 0.0
C2422 C 0.73673 0.63269 0.41526 0.0
C2423 C 0.72343 0.60663 0.42336 0.0
H2424 H 0.98911 0.73357 0.90197 0.0
H2425 H 0.91201 0.71778 0.87853 0.0
H2426 H 0.9663 0.68801 0.91622 0.0
H2427 H 0.88903 0.67293 0.89373 0.0
H2428 H 0.86113 0.61029 0.94501 0.0
H2429 H 0.88229 0.6551 0.92972 0.0
H2430 H 0.93886 0.63695 0.90138 0.0
H2431 H 0.91675 0.5915 0.91582 0.0
C2432 C 0.96734 0.72041 0.89985 0.0
C2433 C 0.9524 0.72923 0.88903 0.0
C2434 C 0.9543 0.69443 0.90807 0.0
C2435 C 0.92597 0.67704 0.90599 0.0
C2436 C 0.91088 0.68607 0.89561 0.0
C2437 C 0.92402 0.71181 0.88705 0.0
C2438 C 0.87762 0.61557 0.93516 0.0
C2439 C 0.88724 0.59734 0.93156 0.0
C2440 C 0.88985 0.64128 0.92656 0.0
C2441 C 0.91227 0.64944 0.91451 0.0
C2442 C 0.92178 0.63119 0.91079 0.0
C2443 C 0.90917 0.60527 0.91907 0.0
H2444 H 0.28493 0.24595 0.87253 0.0
H2445 H 0.25066 0.20061 0.92348 0.0
H2446 H 0.33053 0.26817 0.8865 0.0
H2447 H 0.29611 0.22335 0.93788 0.0
H2448 H 0.38436 0.25012 0.95248 0.0
H2449 H 0.33966 0.22638 0.93738 0.0
H2450 H 0.35745 0.30139 0.90929 0.0
H2451 H 0.40279 0.32455 0.92357 0.0
C2452 C 0.28728 0.24088 0.88679 0.0
C2453 C 0.26448 0.22164 0.89698 0.0
C2454 C 0.31332 0.2537 0.89486 0.0
C2455 C 0.31709 0.2477 0.91338 0.0
C2456 C 0.29411 0.22821 0.9235 0.0
C2457 C 0.26807 0.21525 0.91534 0.0
C2458 C 0.37886 0.26138 0.94283 0.0
C2459 C 0.39707 0.28916 0.93916 0.0
C2460 C 0.35306 0.24788 0.93438 0.0
C2461 C 0.34479 0.26193 0.92214 0.0
C2462 C 0.36317 0.28977 0.91844 0.0
C2463 C 0.38905 0.30319 0.9268 0.0
H2464 H 0.7169 0.13162 0.9147 0.0
H2465 H 0.70661 0.08241 0.96352 0.0
H2466 H 0.74036 0.11075 0.8986 0.0
H2467 H 0.72988 0.06138 0.94752 0.0
H2468 H 0.797 0.0504 0.91905 0.0
H2469 H 0.77644 0.07417 0.93514 0.0
H2470 H 0.72723 0.0641 0.8862 0.0
H2471 H 0.74795 0.04052 0.87021 0.0
C2472 C 0.71984 0.11643 0.92196 0.0
C2473 C 0.71007 0.10853 0.94027 0.0
C2474 C 0.73307 0.10439 0.91276 0.0
C2475 C 0.73696 0.08444 0.92181 0.0
C2476 C 0.72745 0.07689 0.94026 0.0
C2477 C 0.714 0.08874 0.94937 0.0
C2478 C 0.78191 0.0535 0.91178 0.0
C2479 C 0.77397 0.04374 0.89348 0.0
C2480 C 0.77004 0.0669 0.92097 0.0
C2481 C 0.75023 0.07099 0.91191 0.0
C2482 C 0.74263 0.0615 0.89346 0.0
C2483 C 0.75431 0.04788 0.88437 0.0
H2484 H 0.58171 0.8702 0.59098 0.0
H2485 H 0.61824 0.90955 0.53862 0.0
H2486 H 0.62714 0.892 0.60563 0.0
H2487 H 0.66366 0.93144 0.55313 0.0
H2488 H 0.74148 0.93984 0.58102 0.0
H2489 H 0.69592 0.91718 0.56663 0.0
H2490 H 0.66414 0.93977 0.61419 0.0
H2491 H 0.70968 0.96225 0.62852 0.0
C2492 C 0.59955 0.88349 0.58266 0.0
C2493 C 0.59672 0.88823 0.56374 0.0
C2494 C 0.62545 0.89607 0.59101 0.0
C2495 C 0.64895 0.91337 0.5805 0.0
C2496 C 0.64598 0.91799 0.56152 0.0
C2497 C 0.62007 0.90565 0.55325 0.0
C2498 C 0.72466 0.93982 0.58835 0.0
C2499 C 0.72893 0.95273 0.6058 0.0
C2500 C 0.69869 0.92704 0.58011 0.0
C2501 C 0.67648 0.92672 0.5893 0.0
C2502 C 0.68081 0.93949 0.60686 0.0
C2503 C 0.70683 0.9525 0.61499 0.0
H2504 H 0.00368 0.74292 0.59069 0.0
H2505 H 0.0795 0.80062 0.61739 0.0
H2506 H 0.02634 0.72053 0.57607 0.0
H2507 H 0.10281 0.77983 0.60165 0.0
H2508 H 0.13066 0.71899 0.58718 0.0
H2509 H 0.10781 0.74119 0.60201 0.0
H2510 H 0.05711 0.72439 0.55278 0.0
H2511 H 0.07924 0.70108 0.53856 0.0
C2512 C 0.02525 0.75089 0.59336 0.0
C2513 C 0.03977 0.77342 0.60527 0.0
C2514 C 0.0384 0.73833 0.58475 0.0
C2515 C 0.06652 0.74828 0.58762 0.0
C2516 C 0.08108 0.77121 0.59931 0.0
C2517 C 0.06782 0.78348 0.60811 0.0
C2518 C 0.11463 0.72017 0.57963 0.0
C2519 C 0.1066 0.70842 0.56182 0.0
C2520 C 0.10162 0.73302 0.58802 0.0
C2521 C 0.08053 0.7347 0.57863 0.0
C2522 C 0.07284 0.7231 0.56063 0.0
C2523 C 0.0856 0.70992 0.55239 0.0
H2524 H 0.19297 0.25114 0.58338 0.0
H2525 H 0.24447 0.28992 0.63132 0.0
H2526 H 0.21319 0.29555 0.56737 0.0
H2527 H 0.26466 0.33432 0.61545 0.0
H2528 H 0.27503 0.41257 0.58736 0.0
H2529 H 0.25079 0.36819 0.60342 0.0
H2530 H 0.26057 0.32878 0.55455 0.0
H2531 H 0.28482 0.37313 0.53864 0.0
C2532 C 0.20848 0.26926 0.59049 0.0
C2533 C 0.21731 0.2673 0.60848 0.0
C2534 C 0.22011 0.29457 0.58135 0.0
C2535 C 0.24049 0.31837 0.59018 0.0
C2536 C 0.24883 0.31638 0.60838 0.0
C2537 C 0.23745 0.29103 0.61739 0.0
C2538 C 0.27175 0.39431 0.58009 0.0
C2539 C 0.28174 0.39607 0.56186 0.0
C2540 C 0.25805 0.36902 0.58926 0.0
C2541 C 0.25381 0.34505 0.58022 0.0
C2542 C 0.26331 0.34685 0.56179 0.0
C2543 C 0.2773 0.37217 0.55274 0.0
H2544 H 0.05105 0.46885 0.78054 0.0
H2545 H 0.06923 0.41093 0.7541 0.0
H2546 H 0.00665 0.44757 0.76474 0.0
H2547 H 0.02406 0.38863 0.73926 0.0
H2548 H 0.92707 0.34048 0.7392 0.0
H2549 H 0.9721 0.36322 0.75421 0.0
H2550 H 0.99067 0.43927 0.72767 0.0
H2551 H 0.9463 0.41622 0.71173 0.0
C2552 C 0.04569 0.45174 0.77126 0.0
C2553 C 0.06365 0.44155 0.76858 0.0
C2554 C 0.02022 0.43947 0.76235 0.0
C2555 C 0.01202 0.41644 0.75092 0.0
C2556 C 0.0299 0.40623 0.7482 0.0
C2557 C 0.05562 0.41888 0.75676 0.0
C2558 C 0.94088 0.36197 0.7364 0.0
C2559 C 0.93322 0.37653 0.7242 0.0
C2560 C 0.96653 0.37495 0.74503 0.0
C2561 C 0.98474 0.40289 0.74199 0.0
C2562 C 0.97686 0.4177 0.73026 0.0
C2563 C 0.95142 0.40457 0.72128 0.0
H2564 H 0.57773 0.52689 0.71457 0.0
H2565 H 0.64969 0.57577 0.74803 0.0
H2566 H 0.55376 0.54666 0.73092 0.0
H2567 H 0.62663 0.59711 0.7635 0.0
H2568 H 0.57174 0.61435 0.79991 0.0
H2569 H 0.59271 0.59031 0.78515 0.0
H2570 H 0.55186 0.58723 0.73315 0.0
H2571 H 0.53 0.61016 0.74842 0.0
C2572 C 0.58835 0.54178 0.72552 0.0
C2573 C 0.61549 0.5497 0.73013 0.0
C2574 C 0.57478 0.55347 0.7347 0.0
C2575 C 0.58821 0.57363 0.74854 0.0
C2576 C 0.6154 0.58137 0.75316 0.0
C2577 C 0.62879 0.5694 0.74415 0.0
C2578 C 0.56725 0.60834 0.78535 0.0
C2579 C 0.54944 0.61405 0.77521 0.0
C2580 C 0.57937 0.59475 0.77683 0.0
C2581 C 0.57421 0.58693 0.75787 0.0
C2582 C 0.55605 0.59252 0.74783 0.0
C2583 C 0.54365 0.6058 0.75647 0.0
H2584 H 0.38438 0.91733 0.74748 0.0
H2585 H 0.3804 0.95612 0.79841 0.0
H2586 H 0.40696 0.96175 0.73164 0.0
H2587 H 0.40398 0.00075 0.78306 0.0
H2588 H 0.417 0.07082 0.74506 0.0
H2589 H 0.39589 0.02657 0.76077 0.0
H2590 H 0.44747 0.00466 0.72911 0.0
H2591 H 0.46713 0.04827 0.71257 0.0
C2592 C 0.38882 0.93555 0.7553 0.0
C2593 C 0.38074 0.93355 0.77405 0.0
C2594 C 0.40183 0.961 0.74632 0.0
C2595 C 0.40722 0.98495 0.75602 0.0
C2596 C 0.39968 0.98278 0.77501 0.0
C2597 C 0.38642 0.95731 0.78388 0.0
C2598 C 0.42358 0.05639 0.74136 0.0
C2599 C 0.44365 0.06293 0.7276 0.0
C2600 C 0.41178 0.03114 0.75054 0.0
C2601 C 0.42002 0.01195 0.74631 0.0
C2602 C 0.44034 0.01871 0.7326 0.0
C2603 C 0.4519 0.04386 0.72329 0.0
H2604 H 0.58002 0.05065 0.21536 0.0
H2605 H 0.6518 0.07386 0.24905 0.0
H2606 H 0.5563 0.00655 0.2313 0.0
H2607 H 0.62894 0.02913 0.26416 0.0
H2608 H 0.57302 0.95642 0.30031 0.0
H2609 H 0.59458 0.00157 0.28565 0.0
H2610 H 0.55504 0.96421 0.23324 0.0
H2611 H 0.53272 0.91929 0.24835 0.0
C2612 C 0.59067 0.04631 0.22625 0.0
C2613 C 0.6177 0.06569 0.23104 0.0
C2614 C 0.57725 0.02087 0.2352 0.0
C2615 C 0.59067 0.01409 0.24901 0.0
C2616 C 0.61774 0.03366 0.25381 0.0
C2617 C 0.63101 0.0592 0.245 0.0
C2618 C 0.56895 0.95807 0.28568 0.0
C2619 C 0.55126 0.93463 0.27541 0.0
C2620 C 0.58141 0.98385 0.27722 0.0
C2621 C 0.57669 0.98667 0.25819 0.0
C2622 C 0.55883 0.96299 0.24797 0.0
C2623 C 0.54615 0.93724 0.25654 0.0
H2624 H 0.92482 0.57535 0.2442 0.0
H2625 H 0.95171 0.53094 0.2093 0.0
H2626 H 0.96826 0.59625 0.26093 0.0
H2627 H 0.99475 0.5506 0.22668 0.0
H2628 H 0.08036 0.61652 0.24684 0.0
H2629 H 0.03635 0.59299 0.23051 0.0
H2630 H 0.99476 0.58764 0.28258 0.0
H2631 H 0.03889 0.61199 0.29853 0.0
C2632 C 0.94 0.56988 0.24026 0.0
C2633 C 0.93498 0.55161 0.22547 0.0
C2634 C 0.96481 0.58161 0.24997 0.0
C2635 C 0.98511 0.57513 0.2452 0.0
C2636 C 0.97978 0.55636 0.23059 0.0
C2637 C 0.955 0.5448 0.22079 0.0
C2638 C 0.06169 0.61011 0.25469 0.0
C2639 C 0.0628 0.61603 0.27384 0.0
C2640 C 0.03648 0.59651 0.24542 0.0
C2641 C 0.0119 0.58844 0.25519 0.0
C2642 C 0.01322 0.59397 0.27451 0.0
C2643 C 0.03841 0.60775 0.28369 0.0
H2644 H 0.47283 0.42162 0.2134 0.0
H2645 H 0.41565 0.34495 0.2394 0.0
H2646 H 0.45284 0.4446 0.23068 0.0
H2647 H 0.39429 0.36735 0.25572 0.0
H2648 H 0.37687 0.41886 0.29576 0.0
H2649 H 0.40025 0.39786 0.2801 0.0
H2650 H 0.41344 0.44907 0.23165 0.0
H2651 H 0.39095 0.47067 0.24783 0.0
C2652 C 0.45599 0.4097 0.22285 0.0
C2653 C 0.44576 0.38149 0.22503 0.0
C2654 C 0.44424 0.42277 0.23257 0.0
C2655 C 0.42179 0.40788 0.24457 0.0
C2656 C 0.41174 0.37963 0.24681 0.0
C2657 C 0.42371 0.36665 0.23725 0.0
C2658 C 0.38493 0.4256 0.28179 0.0
C2659 C 0.3822 0.44627 0.27293 0.0
C2660 C 0.39816 0.41349 0.27274 0.0
C2661 C 0.40866 0.42159 0.25452 0.0
C2662 C 0.40604 0.44255 0.24577 0.0
C2663 C 0.39305 0.45486 0.25494 0.0
H2664 H 0.86284 0.13381 0.13133 0.0
H2665 H 0.91037 0.21343 0.15691 0.0
H2666 H 0.82185 0.12827 0.1464 0.0
H2667 H 0.869 0.20854 0.17134 0.0
H2668 H 0.79734 0.18021 0.21097 0.0
H2669 H 0.83796 0.18438 0.19577 0.0
H2670 H 0.7894 0.14222 0.14713 0.0
H2671 H 0.74885 0.13688 0.16265 0.0
C2672 C 0.86441 0.15046 0.1398 0.0
C2673 C 0.88985 0.17405 0.14297 0.0
C2674 C 0.84084 0.14729 0.14848 0.0
C2675 C 0.84206 0.16783 0.16028 0.0
C2676 C 0.86737 0.19198 0.16274 0.0
C2677 C 0.89104 0.19497 0.15428 0.0
C2678 C 0.79534 0.17147 0.19716 0.0
C2679 C 0.76989 0.15819 0.18805 0.0
C2680 C 0.81867 0.17416 0.18832 0.0
C2681 C 0.8171 0.16394 0.17009 0.0
C2682 C 0.79144 0.15006 0.16123 0.0
C2683 C 0.76811 0.14703 0.17016 0.0
H2684 H 0.86762 0.61806 0.15762 0.0
H2685 H 0.82722 0.62151 0.20812 0.0
H2686 H 0.86049 0.65303 0.14353 0.0
H2687 H 0.82128 0.65775 0.19432 0.0
H2688 H 0.78724 0.69925 0.15796 0.0
H2689 H 0.79463 0.66367 0.17125 0.0
H2690 H 0.87315 0.69916 0.14345 0.0
H2691 H 0.86509 0.73371 0.1295 0.0
C2692 C 0.85777 0.62676 0.16591 0.0
C2693 C 0.84786 0.6169 0.18398 0.0
C2694 C 0.85371 0.64693 0.15781 0.0
C2695 C 0.84004 0.65809 0.16768 0.0
C2696 C 0.83126 0.64912 0.18611 0.0
C2697 C 0.83498 0.62861 0.19414 0.0
C2698 C 0.80584 0.69909 0.15446 0.0
C2699 C 0.82553 0.7192 0.14265 0.0
C2700 C 0.81028 0.67894 0.16227 0.0
C2701 C 0.83468 0.67872 0.15867 0.0
C2702 C 0.85398 0.69843 0.1464 0.0
C2703 C 0.84935 0.71829 0.13836 0.0
H2704 H 0.37714 0.20851 0.20881 0.0
H2705 H 0.38564 0.24987 0.15617 0.0
H2706 H 0.33983 0.1665 0.19561 0.0
H2707 H 0.34944 0.20783 0.14277 0.0
H2708 H 0.26616 0.13416 0.12974 0.0
H2709 H 0.30223 0.17672 0.14285 0.0
H2710 H 0.3329 0.13176 0.17379 0.0
H2711 H 0.29595 0.08899 0.16125 0.0
C2712 C 0.37096 0.20867 0.19447 0.0
C2713 C 0.38436 0.23249 0.18355 0.0
C2714 C 0.34981 0.18452 0.18682 0.0
C2715 C 0.34184 0.18365 0.16803 0.0
C2716 C 0.35478 0.20775 0.15733 0.0
C2717 C 0.37564 0.23192 0.16503 0.0
C2718 C 0.28083 0.13338 0.13914 0.0
C2719 C 0.2782 0.10824 0.14451 0.0
C2720 C 0.30154 0.15782 0.14667 0.0
C2721 C 0.32034 0.1577 0.15955 0.0
C2722 C 0.31837 0.13257 0.16429 0.0
C2723 C 0.29741 0.10808 0.15693 0.0
H2724 H 0.13023 0.86441 0.37452 0.0
H2725 H 0.2057 0.90805 0.34335 0.0
H2726 H 0.12218 0.82155 0.36094 0.0
H2727 H 0.19834 0.86494 0.33037 0.0
H2728 H 0.16409 0.78929 0.29435 0.0
H2729 H 0.17011 0.83145 0.30817 0.0
H2730 H 0.13602 0.78876 0.36027 0.0
H2731 H 0.12885 0.74655 0.3462 0.0
C2732 C 0.14547 0.86477 0.36511 0.0
C2733 C 0.16857 0.88961 0.35995 0.0
C2734 C 0.14084 0.84014 0.3573 0.0
C2735 C 0.15943 0.83975 0.34436 0.0
C2736 C 0.1832 0.86453 0.33989 0.0
C2737 C 0.18764 0.88921 0.34751 0.0
C2738 C 0.15748 0.78887 0.30865 0.0
C2739 C 0.14603 0.76461 0.31917 0.0
C2740 C 0.16124 0.8131 0.31667 0.0
C2741 C 0.15395 0.81366 0.33545 0.0
C2742 C 0.14166 0.78912 0.34573 0.0
C2743 C 0.13756 0.76486 0.33764 0.0
H2744 H 0.20239 0.38081 0.28913 0.0
H2745 H 0.24878 0.3839 0.33814 0.0
H2746 H 0.16106 0.344 0.30341 0.0
H2747 H 0.20751 0.34833 0.35276 0.0
H2748 H 0.13287 0.26657 0.36701 0.0
H2749 H 0.17462 0.30201 0.35266 0.0
H2750 H 0.1293 0.3369 0.32737 0.0
H2751 H 0.08719 0.30044 0.34104 0.0
C2752 C 0.20378 0.37352 0.30289 0.0
C2753 C 0.22884 0.38524 0.31248 0.0
C2754 C 0.18004 0.35267 0.3112 0.0
C2755 C 0.18081 0.34338 0.32937 0.0
C2756 C 0.2061 0.35466 0.33869 0.0
C2757 C 0.22984 0.37516 0.33028 0.0
C2758 C 0.13187 0.28204 0.35861 0.0
C2759 C 0.10675 0.28072 0.35512 0.0
C2760 C 0.15587 0.30241 0.35035 0.0
C2761 C 0.15538 0.32224 0.33867 0.0
C2762 C 0.13036 0.32158 0.33588 0.0
C2763 C 0.10627 0.30091 0.34391 0.0
H2764 H 0.72927 0.86618 0.3689 0.0
H2765 H 0.697 0.78712 0.34244 0.0
H2766 H 0.6933 0.87174 0.35466 0.0
H2767 H 0.66006 0.79201 0.32885 0.0
H2768 H 0.61516 0.82034 0.29085 0.0
H2769 H 0.65249 0.81662 0.30504 0.0
H2770 H 0.64666 0.85717 0.35478 0.0
H2771 H 0.61055 0.86207 0.34028 0.0
C2772 C 0.71406 0.84966 0.36041 0.0
C2773 C 0.71598 0.82623 0.35676 0.0
C2774 C 0.69338 0.85284 0.35221 0.0
C2775 C 0.67387 0.83245 0.34041 0.0
C2776 C 0.67513 0.80845 0.33745 0.0
C2777 C 0.69608 0.80546 0.34544 0.0
C2778 C 0.6222 0.82882 0.30469 0.0
C2779 C 0.60991 0.84148 0.31442 0.0
C2780 C 0.64336 0.8264 0.31294 0.0
C2781 C 0.65239 0.83627 0.33119 0.0
C2782 C 0.64053 0.8496 0.34065 0.0
C2783 C 0.61971 0.85237 0.33231 0.0
H2784 H 0.24508 0.87882 0.82503 0.0
H2785 H 0.2003 0.80394 0.79335 0.0
H2786 H 0.20218 0.8727 0.83754 0.0
H2787 H 0.15763 0.79715 0.80643 0.0
H2788 H 0.08389 0.80575 0.82077 0.0
H2789 H 0.12605 0.8127 0.80684 0.0
H2790 H 0.16797 0.84427 0.85952 0.0
H2791 H 0.12583 0.83845 0.87326 0.0
C2792 C 0.22604 0.86118 0.82063 0.0
C2793 C 0.22604 0.84186 0.80823 0.0
C2794 C 0.20149 0.85747 0.82798 0.0
C2795 C 0.17646 0.83419 0.82324 0.0
C2796 C 0.17646 0.81544 0.81027 0.0
C2797 C 0.20097 0.81934 0.80274 0.0
C2798 C 0.10202 0.81392 0.82948 0.0
C2799 C 0.10155 0.82166 0.84813 0.0
C2800 C 0.12624 0.81787 0.82146 0.0
C2801 C 0.15052 0.82929 0.83198 0.0
C2802 C 0.1498 0.83604 0.85087 0.0
C2803 C 0.12558 0.8324 0.85884 0.0
H2804 H 0.20864 0.29658 0.84347 0.0
H2805 H 0.12759 0.26555 0.86647 0.0
H2806 H 0.20564 0.33387 0.82856 0.0
H2807 H 0.12401 0.30185 0.85092 0.0
H2808 H 0.13608 0.38487 0.83492 0.0
H2809 H 0.13949 0.34872 0.85071 0.0
H2810 H 0.1833 0.34185 0.80325 0.0
H2811 H 0.18104 0.37922 0.78777 0.0
C2812 C 0.19026 0.29784 0.84542 0.0
C2813 C 0.16838 0.27819 0.85616 0.0
C2814 C 0.18838 0.31898 0.83668 0.0
C2815 C 0.16444 0.32071 0.83832 0.0
C2816 C 0.14289 0.30142 0.84951 0.0
C2817 C 0.14494 0.28054 0.85845 0.0
C2818 C 0.14621 0.37549 0.82773 0.0
C2819 C 0.15837 0.38497 0.81009 0.0
C2820 C 0.14811 0.35465 0.8368 0.0
C2821 C 0.16184 0.34242 0.82834 0.0
C2822 C 0.17313 0.35123 0.81037 0.0
C2823 C 0.17155 0.37241 0.80138 0.0
H2824 H 0.72768 0.86423 0.87067 0.0
H2825 H 0.6961 0.90862 0.84014 0.0
H2826 H 0.69209 0.82155 0.85746 0.0
H2827 H 0.65947 0.86564 0.82758 0.0
H2828 H 0.6157 0.7892 0.79217 0.0
H2829 H 0.65237 0.83152 0.80549 0.0
H2830 H 0.64555 0.78935 0.85754 0.0
H2831 H 0.6101 0.74702 0.84394 0.0
C2832 C 0.71269 0.8648 0.86149 0.0
C2833 C 0.7147 0.88978 0.85642 0.0
C2834 C 0.69222 0.84026 0.85389 0.0
C2835 C 0.67298 0.84008 0.84128 0.0
C2836 C 0.67433 0.86504 0.83686 0.0
C2837 C 0.6951 0.88965 0.84424 0.0
C2838 C 0.62239 0.78895 0.80635 0.0
C2839 C 0.61004 0.76477 0.81697 0.0
C2840 C 0.64316 0.81327 0.81409 0.0
C2841 C 0.65176 0.814 0.8327 0.0
C2842 C 0.63978 0.78958 0.84311 0.0
C2843 C 0.61935 0.76524 0.8353 0.0
H2844 H 0.80985 0.10114 0.63969 0.0
H2845 H 0.86163 0.10782 0.68637 0.0
H2846 H 0.8128 0.14434 0.64911 0.0
H2847 H 0.86436 0.1506 0.69574 0.0
H2848 H 0.83556 0.21027 0.71652 0.0
H2849 H 0.83167 0.16653 0.70777 0.0
H2850 H 0.85248 0.1945 0.65067 0.0
H2851 H 0.8566 0.23817 0.65931 0.0
C2852 C 0.8217 0.11174 0.65197 0.0
C2853 C 0.83564 0.10126 0.66222 0.0
C2854 C 0.82348 0.13642 0.6573 0.0
C2855 C 0.83885 0.15069 0.67312 0.0
C2856 C 0.85225 0.13988 0.68357 0.0
C2857 C 0.85081 0.1155 0.67811 0.0
C2858 C 0.83953 0.20715 0.70215 0.0
C2859 C 0.8464 0.22765 0.68862 0.0
C2860 C 0.83728 0.18216 0.69716 0.0
C2861 C 0.8415 0.17717 0.67852 0.0
C2862 C 0.84873 0.19776 0.66507 0.0
C2863 C 0.85134 0.22283 0.67009 0.0
H2864 H 0.8625 0.71002 0.62267 0.0
H2865 H 0.90942 0.71731 0.67236 0.0
H2866 H 0.82178 0.673 0.63739 0.0
H2867 H 0.8687 0.68137 0.68734 0.0
H2868 H 0.79599 0.59785 0.70181 0.0
H2869 H 0.83723 0.63423 0.68751 0.0
H2870 H 0.78966 0.66595 0.66137 0.0
H2871 H 0.74813 0.62872 0.67509 0.0
C2872 C 0.86414 0.70364 0.63669 0.0
C2873 C 0.88917 0.71659 0.64632 0.0
C2874 C 0.84075 0.68266 0.64523 0.0
C2875 C 0.84184 0.6744 0.66366 0.0
C2876 C 0.86709 0.68694 0.67308 0.0
C2877 C 0.8905 0.70764 0.66447 0.0
C2878 C 0.79437 0.61282 0.69324 0.0
C2879 C 0.7688 0.61037 0.68952 0.0
C2880 C 0.81806 0.63372 0.68501 0.0
C2881 C 0.81678 0.65289 0.67308 0.0
C2882 C 0.79132 0.65114 0.67009 0.0
C2883 C 0.76756 0.63002 0.67813 0.0
H2884 H 0.37778 0.17463 0.71065 0.0
H2885 H 0.38525 0.13759 0.65967 0.0
H2886 H 0.3412 0.1796 0.69642 0.0
H2887 H 0.34988 0.14376 0.64519 0.0
H2888 H 0.26729 0.13471 0.63076 0.0
H2889 H 0.30314 0.12868 0.64466 0.0
H2890 H 0.3342 0.20594 0.67362 0.0
H2891 H 0.29734 0.21126 0.66033 0.0
C2892 C 0.37153 0.16746 0.69645 0.0
C2893 C 0.38437 0.15568 0.68632 0.0
C2894 C 0.35081 0.17061 0.68819 0.0
C2895 C 0.34275 0.16238 0.66955 0.0
C2896 C 0.35524 0.15004 0.65962 0.0
C2897 C 0.37562 0.14653 0.66795 0.0
C2898 C 0.282 0.15062 0.63987 0.0
C2899 C 0.27945 0.17343 0.64449 0.0
C2900 C 0.30263 0.14717 0.64787 0.0
C2901 C 0.32148 0.16668 0.66045 0.0
C2902 C 0.31964 0.19015 0.66438 0.0
C2903 C 0.29874 0.1934 0.65658 0.0
H2904 H 0.46372 0.52868 0.53556 0.0
H2905 H 0.41698 0.44894 0.51002 0.0
H2906 H 0.50486 0.53484 0.52042 0.0
H2907 H 0.45858 0.45435 0.49561 0.0
H2908 H 0.53047 0.48301 0.45622 0.0
H2909 H 0.48952 0.47831 0.47127 0.0
H2910 H 0.5378 0.5219 0.51969 0.0
H2911 H 0.5786 0.52789 0.50426 0.0
C2912 C 0.46239 0.51211 0.52711 0.0
C2913 C 0.43713 0.48832 0.52396 0.0
C2914 C 0.48605 0.51564 0.51839 0.0
C2915 C 0.48511 0.4952 0.50661 0.0
C2916 C 0.45998 0.47083 0.50418 0.0
C2917 C 0.4362 0.46753 0.51264 0.0
C2918 C 0.53231 0.49197 0.46994 0.0
C2919 C 0.55775 0.50586 0.47901 0.0
C2920 C 0.5088 0.48897 0.4787 0.0
C2921 C 0.51021 0.49943 0.49683 0.0
C2922 C 0.53586 0.51389 0.50565 0.0
C2923 C 0.55935 0.5173 0.49677 0.0
H2924 H 0.46397 0.04775 0.50625 0.0
H2925 H 0.50681 0.04281 0.45757 0.0
H2926 H 0.46791 0.01121 0.52103 0.0
H2927 H 0.50963 0.00515 0.47204 0.0
H2928 H 0.53757 0.96021 0.51051 0.0
H2929 H 0.53344 0.99737 0.4965 0.0
H2930 H 0.45273 0.96428 0.52069 0.0
H2931 H 0.45744 0.92803 0.53532 0.0
C2932 C 0.47372 0.03844 0.49851 0.0
C2933 C 0.48519 0.04826 0.48075 0.0
C2934 C 0.47593 0.01739 0.507 0.0
C2935 C 0.48932 0.00534 0.49783 0.0
C2936 C 0.49978 0.0144 0.47971 0.0
C2937 C 0.49787 0.03576 0.4713 0.0
C2938 C 0.51915 0.96118 0.51304 0.0
C2939 C 0.49786 0.94124 0.52402 0.0
C2940 C 0.51661 0.98226 0.50483 0.0
C2941 C 0.49258 0.98365 0.50723 0.0
C2942 C 0.47164 0.96408 0.51867 0.0
C2943 C 0.47434 0.94324 0.52708 0.0
H2944 H 0.93387 0.47091 0.46467 0.0
H2945 H 0.95517 0.41514 0.49114 0.0
H2946 H 0.97501 0.50959 0.47758 0.0
H2947 H 0.99606 0.45387 0.50429 0.0
H2948 H 0.08113 0.53178 0.50593 0.0
H2949 H 0.04003 0.49214 0.49411 0.0
H2950 H 0.99264 0.53039 0.50867 0.0
H2951 H 0.03404 0.57049 0.52028 0.0
C2952 C 0.9474 0.46689 0.47315 0.0
C2953 C 0.94124 0.43995 0.47691 0.0
C2954 C 0.9708 0.48905 0.48071 0.0
C2955 C 0.98855 0.48473 0.49213 0.0
C2956 C 0.9828 0.45782 0.49547 0.0
C2957 C 0.95938 0.43565 0.48793 0.0
C2958 C 0.06191 0.53168 0.50677 0.0
C2959 C 0.06082 0.55432 0.51393 0.0
C2960 C 0.03835 0.5089 0.50006 0.0
C2961 C 0.01318 0.50827 0.50032 0.0
C2962 C 0.01188 0.53053 0.50803 0.0
C2963 C 0.0355 0.55335 0.51483 0.0
H2964 H 0.46594 0.43103 0.97544 0.0
H2965 H 0.5307 0.4527 0.01578 0.0
H2966 H 0.46419 0.47205 0.98384 0.0
H2967 H 0.52829 0.49298 0.02465 0.0
H2968 H 0.53702 0.57791 0.02101 0.0
H2969 H 0.53894 0.53683 0.01324 0.0
H2970 H 0.45072 0.49103 0.00872 0.0
H2971 H 0.44894 0.53228 0.01579 0.0
C2972 C 0.47966 0.44446 0.98617 0.0
C2973 C 0.4985 0.43872 0.99489 0.0
C2974 C 0.47856 0.46785 0.99109 0.0
C2975 C 0.4961 0.4858 0.00495 0.0
C2976 C 0.51481 0.47988 0.01371 0.0
C2977 C 0.51608 0.45668 0.00868 0.0
C2978 C 0.51806 0.55899 0.01851 0.0
C2979 C 0.49286 0.5583 0.01891 0.0
C2980 C 0.51912 0.53543 0.0141 0.0
C2981 C 0.49497 0.51066 0.01022 0.0
C2982 C 0.46973 0.50988 0.01121 0.0
C2983 C 0.46871 0.53347 0.01543 0.0
H2984 H 0.57605 0.0313 0.99387 0.0
H2985 H 0.53012 0.06285 0.9653 0.0
H2986 H 0.53379 0.99484 0.0074 0.0
H2987 H 0.4882 0.02743 0.97946 0.0
H2988 H 0.41443 0.94573 0.99434 0.0
H2989 H 0.456 0.98091 0.97981 0.0
H2990 H 0.50098 0.98805 0.03055 0.0
H2991 H 0.45935 0.9516 0.0448 0.0
C2992 C 0.55689 0.03032 0.9904 0.0
C2993 C 0.55638 0.04988 0.9785 0.0
C2994 C 0.53271 0.00966 0.99834 0.0
C2995 C 0.50756 0.00836 0.99475 0.0
C2996 C 0.50707 0.02753 0.98239 0.0
C2997 C 0.53117 0.0479 0.97425 0.0
C2998 C 0.4331 0.95498 0.00251 0.0
C2999 C 0.43361 0.94582 0.02073 0.0
C3000 C 0.45702 0.97527 0.99416 0.0
C3001 C 0.48198 0.98726 0.00392 0.0
C3002 C 0.48226 0.97882 0.02244 0.0
C3003 C 0.45835 0.95818 0.03072 0.0
H3004 H 0.04818 0.46344 0.9853 0.0
H3005 H 0.03983 0.49812 0.03715 0.0
H3006 H 0.01319 0.47049 0.97105 0.0
H3007 H 0.00377 0.50407 0.02312 0.0
H3008 H 0.9641 0.54053 0.98748 0.0
H3009 H -0.00046 0.53287 0.00064 0.0
H3010 H 0.96632 0.45647 0.97031 0.0
H3011 H 0.93174 0.46476 0.95658 0.0
C3012 C 0.03842 0.47201 0.99381 0.0
C3013 C 0.0469 0.4804 0.01234 0.0
C3014 C 0.01828 0.47603 0.98562 0.0
C3015 C 0.00588 0.48819 0.99584 0.0
C3016 C 0.01342 0.49532 0.01468 0.0
C3017 C 0.03383 0.4916 0.02282 0.0
C3018 C 0.96471 0.52234 0.9834 0.0
C3019 C 0.94517 0.50325 0.97101 0.0
C3020 C 0.98477 0.51776 0.99113 0.0
C3021 C 0.98551 0.49381 0.9868 0.0
C3022 C 0.96653 0.47523 0.97386 0.0
C3023 C 0.94669 0.48 0.96595 0.0
loop_
_geom_bond_atom_site_label_1
_geom_bond_atom_site_label_2
_geom_bond_distance
_geom_bond_site_symmetry_2
_ccdc_geom_bond_type
Co0 O3 1.970 . S
Co0 N17 2.010 . S
Co0 O25 1.967 . S
Co0 O32 1.920 . S
Co1 O4 1.966 1_455 S
Co1 N10 2.022 . S
Co1 N18 1.993 . S
Co1 O26 1.941 . S
C2 O3 1.258 . S
C2 O4 1.263 . S
O3 Co0 1.970 . S
O3 C2 1.258 . S
O4 Co1 1.966 1_655 S
O4 C2 1.263 . S
C5 O6 1.235 . S
C5 O32 1.289 . S
O6 C5 1.235 . S
C7 C9 1.400 . S
C7 N10 1.351 . S
C7 C12 1.501 . S
C8 C9 1.387 . S
C8 N11 1.341 . S
C9 C7 1.400 . S
C9 C8 1.387 . S
N10 Co1 2.022 . S
N10 C7 1.351 . S
N10 N11 1.365 . S
N11 C8 1.341 . S
N11 N10 1.365 . S
N11 H31 0.862 . S
C12 C7 1.501 . S
C12 H13 0.961 . S
C12 H14 0.961 . S
C12 H15 0.960 . S
H13 C12 0.961 . S
H14 C12 0.961 . S
H15 C12 0.960 . S
C16 N17 1.351 1_455 S
C16 C20 1.401 . S
C16 C21 1.499 1_455 S
N17 Co0 2.010 . S
N17 C16 1.351 1_655 S
N17 N18 1.349 1_655 S
N18 Co1 1.993 . S
N18 N17 1.349 1_455 S
N18 C19 1.346 . S
C19 N18 1.346 . S
C19 C20 1.396 . S
C19 C29 1.510 . S
C20 C16 1.401 . S
C20 C19 1.396 . S
C21 C16 1.499 1_655 S
C21 H22 0.959 . S
C21 H23 0.960 . S
C21 H24 0.961 . S
H22 C21 0.959 . S
H23 C21 0.960 . S
H24 C21 0.961 . S
O25 Co0 1.967 . S
O25 C33 1.217 1_655 S
O26 Co1 1.941 . S
O26 C33 1.308 . S
H27 C29 0.959 . S
H28 C29 0.961 . S
C29 C19 1.510 . S
C29 H27 0.959 . S
C29 H28 0.961 . S
C29 H30 0.960 . S
H30 C29 0.960 . S
H31 N11 0.862 . S
O32 Co0 1.920 . S
O32 C5 1.289 . S
C33 O25 1.217 1_455 S
C33 O26 1.308 . S
Co34 O37 1.970 . S
Co34 N51 1.989 . S
Co34 O59 1.967 . S
Co34 O66 1.920 . S
Co35 O38 1.966 . S
Co35 N44 2.022 . S
Co35 N52 1.993 . S
Co35 O60 1.941 . S
C36 O37 1.258 . S
C36 O38 1.263 . S
O37 Co34 1.970 . S
O37 C36 1.258 . S
O38 Co35 1.966 . S
O38 C36 1.263 . S
C39 O40 1.235 . S
C39 O66 1.289 . S
O40 C39 1.235 . S
C41 C43 1.400 . S
C41 N44 1.351 . S
C41 C46 1.501 . S
C42 C43 1.387 . S
C42 N45 1.341 . S
C43 C41 1.400 . S
C43 C42 1.387 . S
N44 Co35 2.022 . S
N44 C41 1.351 . S
N44 N45 1.365 . S
N45 C42 1.341 . S
N45 N44 1.365 . S
N45 H65 0.862 . S
C46 C41 1.501 . S
C46 H47 0.961 . S
C46 H48 0.961 . S
C46 H49 0.960 . S
H47 C46 0.961 . S
H48 C46 0.961 . S
H49 C46 0.960 . S
C50 N51 1.342 . S
C50 C54 1.401 . S
C50 C55 1.499 . S
N51 Co34 1.989 . S
N51 C50 1.342 . S
N51 N52 1.388 . S
N52 Co35 1.993 . S
N52 N51 1.388 . S
N52 C53 1.346 . S
C53 N52 1.346 . S
C53 C54 1.396 . S
C53 C63 1.510 . S
C54 C50 1.401 . S
C54 C53 1.396 . S
C55 C50 1.499 . S
C55 H56 0.959 . S
C55 H57 0.960 . S
C55 H58 0.961 . S
H56 C55 0.959 . S
H57 C55 0.960 . S
H58 C55 0.961 . S
O59 Co34 1.967 . S
O59 C67 1.258 . S
O60 Co35 1.941 . S
O60 C67 1.266 . S
H61 C63 0.959 . S
H62 C63 0.961 . S
C63 C53 1.510 . S
C63 H61 0.959 . S
C63 H62 0.961 . S
C63 H64 0.960 . S
H64 C63 0.960 . S
H65 N45 0.862 . S
O66 Co34 1.920 . S
O66 C39 1.289 . S
C67 O59 1.258 . S
C67 O60 1.266 . S
Co68 O71 1.970 . S
Co68 N85 2.022 . S
Co68 O93 1.967 . S
Co68 O100 1.920 . S
Co69 O72 1.966 1_565 S
Co69 N78 2.022 . S
Co69 N86 1.993 . S
Co69 O94 1.941 . S
C70 O71 1.258 . S
C70 O72 1.263 . S
O71 Co68 1.970 . S
O71 C70 1.258 . S
O72 Co69 1.966 1_545 S
O72 C70 1.263 . S
C73 O74 1.235 . S
C73 O100 1.289 . S
O74 C73 1.235 . S
C75 C77 1.400 . S
C75 N78 1.351 . S
C75 C80 1.501 . S
C76 C77 1.387 . S
C76 N79 1.341 . S
C77 C75 1.400 . S
C77 C76 1.387 . S
N78 Co69 2.022 . S
N78 C75 1.351 . S
N78 N79 1.365 . S
N79 C76 1.341 . S
N79 N78 1.365 . S
N79 H99 0.862 . S
C80 C75 1.501 . S
C80 H81 0.961 . S
C80 H82 0.961 . S
C80 H83 0.960 . S
H81 C80 0.961 . S
H82 C80 0.961 . S
H83 C80 0.960 . S
C84 N85 1.318 1_565 S
C84 C88 1.401 . S
C84 C89 1.499 1_565 S
N85 Co68 2.022 . S
N85 C84 1.318 1_545 S
N85 N86 1.375 1_545 S
N86 Co69 1.993 . S
N86 N85 1.375 1_565 S
N86 C87 1.346 . S
C87 N86 1.346 . S
C87 C88 1.396 . S
C87 C97 1.510 . S
C88 C84 1.401 . S
C88 C87 1.396 . S
C89 C84 1.499 1_545 S
C89 H90 0.959 . S
C89 H91 0.960 . S
C89 H92 0.961 . S
H90 C89 0.959 . S
H91 C89 0.960 . S
H92 C89 0.961 . S
O93 Co68 1.967 . S
O93 C101 1.236 1_545 S
O94 Co69 1.941 . S
O94 C101 1.286 . S
H95 C97 0.959 . S
H96 C97 0.961 . S
C97 C87 1.510 . S
C97 H95 0.959 . S
C97 H96 0.961 . S
C97 H98 0.960 . S
H98 C97 0.960 . S
H99 N79 0.862 . S
O100 Co68 1.920 . S
O100 C73 1.289 . S
C101 O93 1.236 1_565 S
C101 O94 1.286 . S
Co102 O105 1.970 . S
Co102 N119 2.010 . S
Co102 O127 1.967 . S
Co102 O134 1.920 . S
Co103 O106 1.966 1_545 S
Co103 N112 2.022 . S
Co103 N120 1.993 . S
Co103 O128 1.941 . S
C104 O105 1.258 . S
C104 O106 1.263 . S
O105 Co102 1.970 . S
O105 C104 1.258 . S
O106 Co103 1.966 1_565 S
O106 C104 1.263 . S
C107 O108 1.235 . S
C107 O134 1.289 . S
O108 C107 1.235 . S
C109 C111 1.400 . S
C109 N112 1.351 . S
C109 C114 1.501 . S
C110 C111 1.387 . S
C110 N113 1.341 . S
C111 C109 1.400 . S
C111 C110 1.387 . S
N112 Co103 2.022 . S
N112 C109 1.351 . S
N112 N113 1.365 . S
N113 C110 1.341 . S
N113 N112 1.365 . S
N113 H133 0.862 . S
C114 C109 1.501 . S
C114 H115 0.961 . S
C114 H116 0.961 . S
C114 H117 0.960 . S
H115 C114 0.961 . S
H116 C114 0.961 . S
H117 C114 0.960 . S
C118 N119 1.351 1_545 S
C118 C122 1.401 . S
C118 C123 1.499 1_545 S
N119 Co102 2.010 . S
N119 C118 1.351 1_565 S
N119 N120 1.349 1_565 S
N120 Co103 1.993 . S
N120 N119 1.349 1_545 S
N120 C121 1.346 . S
C121 N120 1.346 . S
C121 C122 1.396 . S
C121 C131 1.510 . S
C122 C118 1.401 . S
C122 C121 1.396 . S
C123 C118 1.499 1_565 S
C123 H124 0.959 . S
C123 H125 0.960 . S
C123 H126 0.961 . S
H124 C123 0.959 . S
H125 C123 0.960 . S
H126 C123 0.961 . S
O127 Co102 1.967 . S
O127 C135 1.217 1_565 S
O128 Co103 1.941 . S
O128 C135 1.308 . S
H129 C131 0.959 . S
H130 C131 0.961 . S
C131 C121 1.510 . S
C131 H129 0.959 . S
C131 H130 0.961 . S
C131 H132 0.960 . S
H132 C131 0.960 . S
H133 N113 0.862 . S
O134 Co102 1.920 . S
O134 C107 1.289 . S
C135 O127 1.217 1_545 S
C135 O128 1.308 . S
Co136 O139 1.970 . S
Co136 N153 2.022 . S
Co136 O161 1.967 . S
Co136 O168 1.920 . S
Co137 O140 1.966 1_655 S
Co137 N146 2.022 . S
Co137 N154 1.993 . S
Co137 O162 1.941 . S
C138 O139 1.258 . S
C138 O140 1.263 . S
O139 Co136 1.970 . S
O139 C138 1.258 . S
O140 Co137 1.966 1_455 S
O140 C138 1.263 . S
C141 O142 1.235 . S
C141 O168 1.289 . S
O142 C141 1.235 . S
C143 C145 1.400 . S
C143 N146 1.351 . S
C143 C148 1.501 . S
C144 C145 1.387 . S
C144 N147 1.341 . S
C145 C143 1.400 . S
C145 C144 1.387 . S
N146 Co137 2.022 . S
N146 C143 1.351 . S
N146 N147 1.365 . S
N147 C144 1.341 . S
N147 N146 1.365 . S
N147 H167 0.862 . S
C148 C143 1.501 . S
C148 H149 0.961 . S
C148 H150 0.961 . S
C148 H151 0.960 . S
H149 C148 0.961 . S
H150 C148 0.961 . S
H151 C148 0.960 . S
C152 N153 1.318 1_655 S
C152 C156 1.401 . S
C152 C157 1.499 1_655 S
N153 Co136 2.022 . S
N153 C152 1.318 1_455 S
N153 N154 1.375 1_455 S
N154 Co137 1.993 . S
N154 N153 1.375 1_655 S
N154 C155 1.346 . S
C155 N154 1.346 . S
C155 C156 1.396 . S
C155 C165 1.510 . S
C156 C152 1.401 . S
C156 C155 1.396 . S
C157 C152 1.499 1_455 S
C157 H158 0.959 . S
C157 H159 0.960 . S
C157 H160 0.961 . S
H158 C157 0.959 . S
H159 C157 0.960 . S
H160 C157 0.961 . S
O161 Co136 1.967 . S
O161 C169 1.236 1_455 S
O162 Co137 1.941 . S
O162 C169 1.286 . S
H163 C165 0.959 . S
H164 C165 0.961 . S
C165 C155 1.510 . S
C165 H163 0.959 . S
C165 H164 0.961 . S
C165 H166 0.960 . S
H166 C165 0.960 . S
H167 N147 0.862 . S
O168 Co136 1.920 . S
O168 C141 1.289 . S
C169 O161 1.236 1_655 S
C169 O162 1.286 . S
Co170 O173 1.970 . S
Co170 N187 1.989 . S
Co170 O195 1.967 . S
Co170 O202 1.920 . S
Co171 O174 1.966 . S
Co171 N180 2.022 . S
Co171 N188 1.993 . S
Co171 O196 1.941 . S
C172 O173 1.258 . S
C172 O174 1.263 . S
O173 Co170 1.970 . S
O173 C172 1.258 . S
O174 Co171 1.966 . S
O174 C172 1.263 . S
C175 O176 1.235 . S
C175 O202 1.289 . S
O176 C175 1.235 . S
C177 C179 1.400 . S
C177 N180 1.351 . S
C177 C182 1.501 . S
C178 C179 1.387 . S
C178 N181 1.341 . S
C179 C177 1.400 . S
C179 C178 1.387 . S
N180 Co171 2.022 . S
N180 C177 1.351 . S
N180 N181 1.365 . S
N181 C178 1.341 . S
N181 N180 1.365 . S
N181 H201 0.862 . S
C182 C177 1.501 . S
C182 H183 0.961 . S
C182 H184 0.961 . S
C182 H185 0.960 . S
H183 C182 0.961 . S
H184 C182 0.961 . S
H185 C182 0.960 . S
C186 N187 1.342 . S
C186 C190 1.401 . S
C186 C191 1.499 . S
N187 Co170 1.989 . S
N187 C186 1.342 . S
N187 N188 1.388 . S
N188 Co171 1.993 . S
N188 N187 1.388 . S
N188 C189 1.346 . S
C189 N188 1.346 . S
C189 C190 1.396 . S
C189 C199 1.510 . S
C190 C186 1.401 . S
C190 C189 1.396 . S
C191 C186 1.499 . S
C191 H192 0.959 . S
C191 H193 0.960 . S
C191 H194 0.961 . S
H192 C191 0.959 . S
H193 C191 0.960 . S
H194 C191 0.961 . S
O195 Co170 1.967 . S
O195 C203 1.258 . S
O196 Co171 1.941 . S
O196 C203 1.266 . S
H197 C199 0.959 . S
H198 C199 0.961 . S
C199 C189 1.510 . S
C199 H197 0.959 . S
C199 H198 0.961 . S
C199 H200 0.960 . S
H200 C199 0.960 . S
H201 N181 0.862 . S
O202 Co170 1.920 . S
O202 C175 1.289 . S
C203 O195 1.258 . S
C203 O196 1.266 . S
Co204 O207 1.970 . S
Co204 N221 2.010 . S
Co204 O229 1.967 . S
Co204 O236 1.920 . S
Co205 O208 1.966 1_655 S
Co205 N214 2.022 . S
Co205 N222 1.993 . S
Co205 O230 1.941 . S
C206 O207 1.258 . S
C206 O208 1.263 . S
O207 Co204 1.970 . S
O207 C206 1.258 . S
O208 Co205 1.966 1_455 S
O208 C206 1.263 . S
C209 O210 1.235 . S
C209 O236 1.289 . S
O210 C209 1.235 . S
C211 C213 1.400 . S
C211 N214 1.351 . S
C211 C216 1.501 . S
C212 C213 1.387 . S
C212 N215 1.341 . S
C213 C211 1.400 . S
C213 C212 1.387 . S
N214 Co205 2.022 . S
N214 C211 1.351 . S
N214 N215 1.365 . S
N215 C212 1.341 . S
N215 N214 1.365 . S
N215 H235 0.862 . S
C216 C211 1.501 . S
C216 H217 0.961 . S
C216 H218 0.961 . S
C216 H219 0.960 . S
H217 C216 0.961 . S
H218 C216 0.961 . S
H219 C216 0.960 . S
C220 N221 1.351 1_655 S
C220 C224 1.401 . S
C220 C225 1.499 1_655 S
N221 Co204 2.010 . S
N221 C220 1.351 1_455 S
N221 N222 1.349 1_455 S
N222 Co205 1.993 . S
N222 N221 1.349 1_655 S
N222 C223 1.346 . S
C223 N222 1.346 . S
C223 C224 1.396 . S
C223 C233 1.510 . S
C224 C220 1.401 . S
C224 C223 1.396 . S
C225 C220 1.499 1_455 S
C225 H226 0.959 . S
C225 H227 0.960 . S
C225 H228 0.961 . S
H226 C225 0.959 . S
H227 C225 0.960 . S
H228 C225 0.961 . S
O229 Co204 1.967 . S
O229 C237 1.217 1_455 S
O230 Co205 1.941 . S
O230 C237 1.308 . S
H231 C233 0.959 . S
H232 C233 0.961 . S
C233 C223 1.510 . S
C233 H231 0.959 . S
C233 H232 0.961 . S
C233 H234 0.960 . S
H234 C233 0.960 . S
H235 N215 0.862 . S
O236 Co204 1.920 . S
O236 C209 1.289 . S
C237 O229 1.217 1_655 S
C237 O230 1.308 . S
Co238 O241 1.970 . S
Co238 N255 1.989 . S
Co238 O263 1.967 . S
Co238 O270 1.920 . S
Co239 O242 1.966 . S
Co239 N248 2.022 . S
Co239 N256 1.993 . S
Co239 O264 1.941 . S
C240 O241 1.258 . S
C240 O242 1.263 . S
O241 Co238 1.970 . S
O241 C240 1.258 . S
O242 Co239 1.966 . S
O242 C240 1.263 . S
C243 O244 1.235 . S
C243 O270 1.289 . S
O244 C243 1.235 . S
C245 C247 1.400 . S
C245 N248 1.351 . S
C245 C250 1.501 . S
C246 C247 1.387 . S
C246 N249 1.341 . S
C247 C245 1.400 . S
C247 C246 1.387 . S
N248 Co239 2.022 . S
N248 C245 1.351 . S
N248 N249 1.365 . S
N249 C246 1.341 . S
N249 N248 1.365 . S
N249 H269 0.862 . S
C250 C245 1.501 . S
C250 H251 0.961 . S
C250 H252 0.961 . S
C250 H253 0.960 . S
H251 C250 0.961 . S
H252 C250 0.961 . S
H253 C250 0.960 . S
C254 N255 1.342 . S
C254 C258 1.401 . S
C254 C259 1.499 . S
N255 Co238 1.989 . S
N255 C254 1.342 . S
N255 N256 1.388 . S
N256 Co239 1.993 . S
N256 N255 1.388 . S
N256 C257 1.346 . S
C257 N256 1.346 . S
C257 C258 1.396 . S
C257 C267 1.510 . S
C258 C254 1.401 . S
C258 C257 1.396 . S
C259 C254 1.499 . S
C259 H260 0.959 . S
C259 H261 0.960 . S
C259 H262 0.961 . S
H260 C259 0.959 . S
H261 C259 0.960 . S
H262 C259 0.961 . S
O263 Co238 1.967 . S
O263 C271 1.258 . S
O264 Co239 1.941 . S
O264 C271 1.266 . S
H265 C267 0.959 . S
H266 C267 0.961 . S
C267 C257 1.510 . S
C267 H265 0.959 . S
C267 H266 0.961 . S
C267 H268 0.960 . S
H268 C267 0.960 . S
H269 N249 0.862 . S
O270 Co238 1.920 . S
O270 C243 1.289 . S
C271 O263 1.258 . S
C271 O264 1.266 . S
Co272 O275 1.970 . S
Co272 N289 2.022 . S
Co272 O297 1.967 . S
Co272 O304 1.920 . S
Co273 O276 1.966 1_545 S
Co273 N282 2.022 . S
Co273 N290 1.993 . S
Co273 O298 1.941 . S
C274 O275 1.258 . S
C274 O276 1.263 . S
O275 Co272 1.970 . S
O275 C274 1.258 . S
O276 Co273 1.966 1_565 S
O276 C274 1.263 . S
C277 O278 1.235 . S
C277 O304 1.289 . S
O278 C277 1.235 . S
C279 C281 1.400 . S
C279 N282 1.351 . S
C279 C284 1.501 . S
C280 C281 1.387 . S
C280 N283 1.341 . S
C281 C279 1.400 . S
C281 C280 1.387 . S
N282 Co273 2.022 . S
N282 C279 1.351 . S
N282 N283 1.365 . S
N283 C280 1.341 . S
N283 N282 1.365 . S
N283 H303 0.862 . S
C284 C279 1.501 . S
C284 H285 0.961 . S
C284 H286 0.961 . S
C284 H287 0.960 . S
H285 C284 0.961 . S
H286 C284 0.961 . S
H287 C284 0.960 . S
C288 N289 1.318 1_545 S
C288 C292 1.401 . S
C288 C293 1.499 1_545 S
N289 Co272 2.022 . S
N289 C288 1.318 1_565 S
N289 N290 1.375 1_565 S
N290 Co273 1.993 . S
N290 N289 1.375 1_545 S
N290 C291 1.346 . S
C291 N290 1.346 . S
C291 C292 1.396 . S
C291 C301 1.510 . S
C292 C288 1.401 . S
C292 C291 1.396 . S
C293 C288 1.499 1_565 S
C293 H294 0.959 . S
C293 H295 0.960 . S
C293 H296 0.961 . S
H294 C293 0.959 . S
H295 C293 0.960 . S
H296 C293 0.961 . S
O297 Co272 1.967 . S
O297 C305 1.236 1_565 S
O298 Co273 1.941 . S
O298 C305 1.286 . S
H299 C301 0.959 . S
H300 C301 0.961 . S
C301 C291 1.510 . S
C301 H299 0.959 . S
C301 H300 0.961 . S
C301 H302 0.960 . S
H302 C301 0.960 . S
H303 N283 0.862 . S
O304 Co272 1.920 . S
O304 C277 1.289 . S
C305 O297 1.236 1_545 S
C305 O298 1.286 . S
Co306 O309 1.970 . S
Co306 N323 2.010 . S
Co306 O331 1.967 . S
Co306 O338 1.920 . S
Co307 O310 1.966 1_565 S
Co307 N316 2.022 . S
Co307 N324 1.993 . S
Co307 O332 1.941 . S
C308 O309 1.258 . S
C308 O310 1.263 . S
O309 Co306 1.970 . S
O309 C308 1.258 . S
O310 Co307 1.966 1_545 S
O310 C308 1.263 . S
C311 O312 1.235 . S
C311 O338 1.289 . S
O312 C311 1.235 . S
C313 C315 1.400 . S
C313 N316 1.351 . S
C313 C318 1.501 . S
C314 C315 1.387 . S
C314 N317 1.341 . S
C315 C313 1.400 . S
C315 C314 1.387 . S
N316 Co307 2.022 . S
N316 C313 1.351 . S
N316 N317 1.365 . S
N317 C314 1.341 . S
N317 N316 1.365 . S
N317 H337 0.862 . S
C318 C313 1.501 . S
C318 H319 0.961 . S
C318 H320 0.961 . S
C318 H321 0.960 . S
H319 C318 0.961 . S
H320 C318 0.961 . S
H321 C318 0.960 . S
C322 N323 1.351 1_565 S
C322 C326 1.401 . S
C322 C327 1.499 1_565 S
N323 Co306 2.010 . S
N323 C322 1.351 1_545 S
N323 N324 1.349 1_545 S
N324 Co307 1.993 . S
N324 N323 1.349 1_565 S
N324 C325 1.346 . S
C325 N324 1.346 . S
C325 C326 1.396 . S
C325 C335 1.510 . S
C326 C322 1.401 . S
C326 C325 1.396 . S
C327 C322 1.499 1_545 S
C327 H328 0.959 . S
C327 H329 0.960 . S
C327 H330 0.961 . S
H328 C327 0.959 . S
H329 C327 0.960 . S
H330 C327 0.961 . S
O331 Co306 1.967 . S
O331 C339 1.217 1_545 S
O332 Co307 1.941 . S
O332 C339 1.308 . S
H333 C335 0.959 . S
H334 C335 0.961 . S
C335 C325 1.510 . S
C335 H333 0.959 . S
C335 H334 0.961 . S
C335 H336 0.960 . S
H336 C335 0.960 . S
H337 N317 0.862 . S
O338 Co306 1.920 . S
O338 C311 1.289 . S
C339 O331 1.217 1_565 S
C339 O332 1.308 . S
Co340 O343 1.970 . S
Co340 N357 2.022 . S
Co340 O365 1.967 . S
Co340 O372 1.920 . S
Co341 O344 1.966 1_455 S
Co341 N350 2.022 . S
Co341 N358 1.993 . S
Co341 O366 1.941 . S
C342 O343 1.258 . S
C342 O344 1.263 . S
O343 Co340 1.970 . S
O343 C342 1.258 . S
O344 Co341 1.966 1_655 S
O344 C342 1.263 . S
C345 O346 1.235 . S
C345 O372 1.289 . S
O346 C345 1.235 . S
C347 C349 1.400 . S
C347 N350 1.351 . S
C347 C352 1.501 . S
C348 C349 1.387 . S
C348 N351 1.341 . S
C349 C347 1.400 . S
C349 C348 1.387 . S
N350 Co341 2.022 . S
N350 C347 1.351 . S
N350 N351 1.365 . S
N351 C348 1.341 . S
N351 N350 1.365 . S
N351 H371 0.862 . S
C352 C347 1.501 . S
C352 H353 0.961 . S
C352 H354 0.961 . S
C352 H355 0.960 . S
H353 C352 0.961 . S
H354 C352 0.961 . S
H355 C352 0.960 . S
C356 N357 1.318 1_455 S
C356 C360 1.401 . S
C356 C361 1.499 1_455 S
N357 Co340 2.022 . S
N357 C356 1.318 1_655 S
N357 N358 1.375 1_655 S
N358 Co341 1.993 . S
N358 N357 1.375 1_455 S
N358 C359 1.346 . S
C359 N358 1.346 . S
C359 C360 1.396 . S
C359 C369 1.510 . S
C360 C356 1.401 . S
C360 C359 1.396 . S
C361 C356 1.499 1_655 S
C361 H362 0.959 . S
C361 H363 0.960 . S
C361 H364 0.961 . S
H362 C361 0.959 . S
H363 C361 0.960 . S
H364 C361 0.961 . S
O365 Co340 1.967 . S
O365 C373 1.236 1_655 S
O366 Co341 1.941 . S
O366 C373 1.286 . S
H367 C369 0.959 . S
H368 C369 0.961 . S
C369 C359 1.510 . S
C369 H367 0.959 . S
C369 H368 0.961 . S
C369 H370 0.960 . S
H370 C369 0.960 . S
H371 N351 0.862 . S
O372 Co340 1.920 . S
O372 C345 1.289 . S
C373 O365 1.236 1_455 S
C373 O366 1.286 . S
Co374 O377 1.970 . S
Co374 N391 1.989 . S
Co374 O399 1.967 . S
Co374 O406 1.920 . S
Co375 O378 1.966 . S
Co375 N384 2.022 . S
Co375 N392 1.993 . S
Co375 O400 1.941 . S
C376 O377 1.258 . S
C376 O378 1.263 . S
O377 Co374 1.970 . S
O377 C376 1.258 . S
O378 Co375 1.966 . S
O378 C376 1.263 . S
C379 O380 1.235 . S
C379 O406 1.289 . S
O380 C379 1.235 . S
C381 C383 1.400 . S
C381 N384 1.351 . S
C381 C386 1.501 . S
C382 C383 1.387 . S
C382 N385 1.341 . S
C383 C381 1.400 . S
C383 C382 1.387 . S
N384 Co375 2.022 . S
N384 C381 1.351 . S
N384 N385 1.365 . S
N385 C382 1.341 . S
N385 N384 1.365 . S
N385 H405 0.862 . S
C386 C381 1.501 . S
C386 H387 0.961 . S
C386 H388 0.961 . S
C386 H389 0.960 . S
H387 C386 0.961 . S
H388 C386 0.961 . S
H389 C386 0.960 . S
C390 N391 1.342 . S
C390 C394 1.401 . S
C390 C395 1.499 . S
N391 Co374 1.989 . S
N391 C390 1.342 . S
N391 N392 1.388 . S
N392 Co375 1.993 . S
N392 N391 1.388 . S
N392 C393 1.346 . S
C393 N392 1.346 . S
C393 C394 1.396 . S
C393 C403 1.510 . S
C394 C390 1.401 . S
C394 C393 1.396 . S
C395 C390 1.499 . S
C395 H396 0.959 . S
C395 H397 0.960 . S
C395 H398 0.961 . S
H396 C395 0.959 . S
H397 C395 0.960 . S
H398 C395 0.961 . S
O399 Co374 1.967 . S
O399 C407 1.258 . S
O400 Co375 1.941 . S
O400 C407 1.266 . S
H401 C403 0.959 . S
H402 C403 0.961 . S
C403 C393 1.510 . S
C403 H401 0.959 . S
C403 H402 0.961 . S
C403 H404 0.960 . S
H404 C403 0.960 . S
H405 N385 0.862 . S
O406 Co374 1.920 . S
O406 C379 1.289 . S
C407 O399 1.258 . S
C407 O400 1.266 . S
Co408 O411 1.970 . S
Co408 N425 1.989 . S
Co408 O433 1.967 . S
Co408 O440 1.920 . S
Co409 O412 1.966 . S
Co409 N418 2.022 . S
Co409 N426 1.993 . S
Co409 O434 1.941 . S
C410 O411 1.258 . S
C410 O412 1.263 . S
O411 Co408 1.970 . S
O411 C410 1.258 . S
O412 Co409 1.966 . S
O412 C410 1.263 . S
C413 O414 1.235 . S
C413 O440 1.289 . S
O414 C413 1.235 . S
C415 C417 1.400 . S
C415 N418 1.351 . S
C415 C420 1.501 . S
C416 C417 1.387 . S
C416 N419 1.341 . S
C417 C415 1.400 . S
C417 C416 1.387 . S
N418 Co409 2.022 . S
N418 C415 1.351 . S
N418 N419 1.365 . S
N419 C416 1.341 . S
N419 N418 1.365 . S
N419 H439 0.862 . S
C420 C415 1.501 . S
C420 H421 0.961 . S
C420 H422 0.961 . S
C420 H423 0.960 . S
H421 C420 0.961 . S
H422 C420 0.961 . S
H423 C420 0.960 . S
C424 N425 1.342 . S
C424 C428 1.401 . S
C424 C429 1.499 . S
N425 Co408 1.989 . S
N425 C424 1.342 . S
N425 N426 1.388 . S
N426 Co409 1.993 . S
N426 N425 1.388 . S
N426 C427 1.346 . S
C427 N426 1.346 . S
C427 C428 1.396 . S
C427 C437 1.510 . S
C428 C424 1.401 . S
C428 C427 1.396 . S
C429 C424 1.499 . S
C429 H430 0.959 . S
C429 H431 0.960 . S
C429 H432 0.961 . S
H430 C429 0.959 . S
H431 C429 0.960 . S
H432 C429 0.961 . S
O433 Co408 1.967 . S
O433 C441 1.258 . S
O434 Co409 1.941 . S
O434 C441 1.266 . S
H435 C437 0.959 . S
H436 C437 0.961 . S
C437 C427 1.510 . S
C437 H435 0.959 . S
C437 H436 0.961 . S
C437 H438 0.960 . S
H438 C437 0.960 . S
H439 N419 0.862 . S
O440 Co408 1.920 . S
O440 C413 1.289 . S
C441 O433 1.258 . S
C441 O434 1.266 . S
Co442 O445 1.970 . S
Co442 N459 1.989 . S
Co442 O467 1.967 . S
Co442 O474 1.920 . S
Co443 O446 1.966 . S
Co443 N452 2.022 . S
Co443 N460 1.993 . S
Co443 O468 1.941 . S
C444 O445 1.258 . S
C444 O446 1.263 . S
O445 Co442 1.970 . S
O445 C444 1.258 . S
O446 Co443 1.966 . S
O446 C444 1.263 . S
C447 O448 1.235 . S
C447 O474 1.289 . S
O448 C447 1.235 . S
C449 C451 1.400 . S
C449 N452 1.351 . S
C449 C454 1.501 . S
C450 C451 1.387 . S
C450 N453 1.341 . S
C451 C449 1.400 . S
C451 C450 1.387 . S
N452 Co443 2.022 . S
N452 C449 1.351 . S
N452 N453 1.365 . S
N453 C450 1.341 . S
N453 N452 1.365 . S
N453 H473 0.862 . S
C454 C449 1.501 . S
C454 H455 0.961 . S
C454 H456 0.961 . S
C454 H457 0.960 . S
H455 C454 0.961 . S
H456 C454 0.961 . S
H457 C454 0.960 . S
C458 N459 1.342 . S
C458 C462 1.401 . S
C458 C463 1.499 . S
N459 Co442 1.989 . S
N459 C458 1.342 . S
N459 N460 1.388 . S
N460 Co443 1.993 . S
N460 N459 1.388 . S
N460 C461 1.346 . S
C461 N460 1.346 . S
C461 C462 1.396 . S
C461 C471 1.510 . S
C462 C458 1.401 . S
C462 C461 1.396 . S
C463 C458 1.499 . S
C463 H464 0.959 . S
C463 H465 0.960 . S
C463 H466 0.961 . S
H464 C463 0.959 . S
H465 C463 0.960 . S
H466 C463 0.961 . S
O467 Co442 1.967 . S
O467 C475 1.258 . S
O468 Co443 1.941 . S
O468 C475 1.266 . S
H469 C471 0.959 . S
H470 C471 0.961 . S
C471 C461 1.510 . S
C471 H469 0.959 . S
C471 H470 0.961 . S
C471 H472 0.960 . S
H472 C471 0.960 . S
H473 N453 0.862 . S
O474 Co442 1.920 . S
O474 C447 1.289 . S
C475 O467 1.258 . S
C475 O468 1.266 . S
Co476 O479 1.970 . S
Co476 N493 1.989 . S
Co476 O501 1.967 . S
Co476 O508 1.920 . S
Co477 O480 1.966 . S
Co477 N486 2.022 . S
Co477 N494 1.993 . S
Co477 O502 1.941 . S
C478 O479 1.258 . S
C478 O480 1.263 . S
O479 Co476 1.970 . S
O479 C478 1.258 . S
O480 Co477 1.966 . S
O480 C478 1.263 . S
C481 O482 1.235 . S
C481 O508 1.289 . S
O482 C481 1.235 . S
C483 C485 1.400 . S
C483 N486 1.351 . S
C483 C488 1.501 . S
C484 C485 1.387 . S
C484 N487 1.341 . S
C485 C483 1.400 . S
C485 C484 1.387 . S
N486 Co477 2.022 . S
N486 C483 1.351 . S
N486 N487 1.365 . S
N487 C484 1.341 . S
N487 N486 1.365 . S
N487 H507 0.862 . S
C488 C483 1.501 . S
C488 H489 0.961 . S
C488 H490 0.961 . S
C488 H491 0.960 . S
H489 C488 0.961 . S
H490 C488 0.961 . S
H491 C488 0.960 . S
C492 N493 1.342 . S
C492 C496 1.401 . S
C492 C497 1.499 . S
N493 Co476 1.989 . S
N493 C492 1.342 . S
N493 N494 1.388 . S
N494 Co477 1.993 . S
N494 N493 1.388 . S
N494 C495 1.346 . S
C495 N494 1.346 . S
C495 C496 1.396 . S
C495 C505 1.510 . S
C496 C492 1.401 . S
C496 C495 1.396 . S
C497 C492 1.499 . S
C497 H498 0.959 . S
C497 H499 0.960 . S
C497 H500 0.961 . S
H498 C497 0.959 . S
H499 C497 0.960 . S
H500 C497 0.961 . S
O501 Co476 1.967 . S
O501 C509 1.258 . S
O502 Co477 1.941 . S
O502 C509 1.266 . S
H503 C505 0.959 . S
H504 C505 0.961 . S
C505 C495 1.510 . S
C505 H503 0.959 . S
C505 H504 0.961 . S
C505 H506 0.960 . S
H506 C505 0.960 . S
H507 N487 0.862 . S
O508 Co476 1.920 . S
O508 C481 1.289 . S
C509 O501 1.258 . S
C509 O502 1.266 . S
Co510 O513 1.970 . S
Co510 N527 1.989 . S
Co510 O535 1.967 . S
Co510 O542 1.920 . S
Co511 O514 1.966 . S
Co511 N520 2.022 . S
Co511 N528 1.993 . S
Co511 O536 1.941 . S
C512 O513 1.258 . S
C512 O514 1.263 . S
O513 Co510 1.970 . S
O513 C512 1.258 . S
O514 Co511 1.966 . S
O514 C512 1.263 . S
C515 O516 1.235 . S
C515 O542 1.289 . S
O516 C515 1.235 . S
C517 C519 1.400 . S
C517 N520 1.351 . S
C517 C522 1.501 . S
C518 C519 1.387 . S
C518 N521 1.341 . S
C519 C517 1.400 . S
C519 C518 1.387 . S
N520 Co511 2.022 . S
N520 C517 1.351 . S
N520 N521 1.365 . S
N521 C518 1.341 . S
N521 N520 1.365 . S
N521 H541 0.862 . S
C522 C517 1.501 . S
C522 H523 0.961 . S
C522 H524 0.961 . S
C522 H525 0.960 . S
H523 C522 0.961 . S
H524 C522 0.961 . S
H525 C522 0.960 . S
C526 N527 1.342 . S
C526 C530 1.401 . S
C526 C531 1.499 . S
N527 Co510 1.989 . S
N527 C526 1.342 . S
N527 N528 1.388 . S
N528 Co511 1.993 . S
N528 N527 1.388 . S
N528 C529 1.346 . S
C529 N528 1.346 . S
C529 C530 1.396 . S
C529 C539 1.510 . S
C530 C526 1.401 . S
C530 C529 1.396 . S
C531 C526 1.499 . S
C531 H532 0.959 . S
C531 H533 0.960 . S
C531 H534 0.961 . S
H532 C531 0.959 . S
H533 C531 0.960 . S
H534 C531 0.961 . S
O535 Co510 1.967 . S
O535 C543 1.258 . S
O536 Co511 1.941 . S
O536 C543 1.266 . S
H537 C539 0.959 . S
H538 C539 0.961 . S
C539 C529 1.510 . S
C539 H537 0.959 . S
C539 H538 0.961 . S
C539 H540 0.960 . S
H540 C539 0.960 . S
H541 N521 0.862 . S
O542 Co510 1.920 . S
O542 C515 1.289 . S
C543 O535 1.258 . S
C543 O536 1.266 . S
Co544 O547 1.970 . S
Co544 N561 1.989 . S
Co544 O569 1.967 . S
Co544 O576 1.920 . S
Co545 O548 1.966 . S
Co545 N554 2.022 . S
Co545 N562 1.993 . S
Co545 O570 1.941 . S
C546 O547 1.258 . S
C546 O548 1.263 . S
O547 Co544 1.970 . S
O547 C546 1.258 . S
O548 Co545 1.966 . S
O548 C546 1.263 . S
C549 O550 1.235 . S
C549 O576 1.289 . S
O550 C549 1.235 . S
C551 C553 1.400 . S
C551 N554 1.351 . S
C551 C556 1.501 . S
C552 C553 1.387 . S
C552 N555 1.341 . S
C553 C551 1.400 . S
C553 C552 1.387 . S
N554 Co545 2.022 . S
N554 C551 1.351 . S
N554 N555 1.365 . S
N555 C552 1.341 . S
N555 N554 1.365 . S
N555 H575 0.862 . S
C556 C551 1.501 . S
C556 H557 0.961 . S
C556 H558 0.961 . S
C556 H559 0.960 . S
H557 C556 0.961 . S
H558 C556 0.961 . S
H559 C556 0.960 . S
C560 N561 1.342 . S
C560 C564 1.401 . S
C560 C565 1.499 . S
N561 Co544 1.989 . S
N561 C560 1.342 . S
N561 N562 1.388 . S
N562 Co545 1.993 . S
N562 N561 1.388 . S
N562 C563 1.346 . S
C563 N562 1.346 . S
C563 C564 1.396 . S
C563 C573 1.510 . S
C564 C560 1.401 . S
C564 C563 1.396 . S
C565 C560 1.499 . S
C565 H566 0.959 . S
C565 H567 0.960 . S
C565 H568 0.961 . S
H566 C565 0.959 . S
H567 C565 0.960 . S
H568 C565 0.961 . S
O569 Co544 1.967 . S
O569 C577 1.258 . S
O570 Co545 1.941 . S
O570 C577 1.266 . S
H571 C573 0.959 . S
H572 C573 0.961 . S
C573 C563 1.510 . S
C573 H571 0.959 . S
C573 H572 0.961 . S
C573 H574 0.960 . S
H574 C573 0.960 . S
H575 N555 0.862 . S
O576 Co544 1.920 . S
O576 C549 1.289 . S
C577 O569 1.258 . S
C577 O570 1.266 . S
Co578 O581 1.970 . S
Co578 N595 1.989 . S
Co578 O603 1.967 . S
Co578 O610 1.920 . S
Co579 O582 1.966 . S
Co579 N588 2.022 . S
Co579 N596 1.993 . S
Co579 O604 1.941 . S
C580 O581 1.258 . S
C580 O582 1.263 . S
O581 Co578 1.970 . S
O581 C580 1.258 . S
O582 Co579 1.966 . S
O582 C580 1.263 . S
C583 O584 1.235 . S
C583 O610 1.289 . S
O584 C583 1.235 . S
C585 C587 1.400 . S
C585 N588 1.351 . S
C585 C590 1.501 . S
C586 C587 1.387 . S
C586 N589 1.341 . S
C587 C585 1.400 . S
C587 C586 1.387 . S
N588 Co579 2.022 . S
N588 C585 1.351 . S
N588 N589 1.365 . S
N589 C586 1.341 . S
N589 N588 1.365 . S
N589 H609 0.862 . S
C590 C585 1.501 . S
C590 H591 0.961 . S
C590 H592 0.961 . S
C590 H593 0.960 . S
H591 C590 0.961 . S
H592 C590 0.961 . S
H593 C590 0.960 . S
C594 N595 1.342 . S
C594 C598 1.401 . S
C594 C599 1.499 . S
N595 Co578 1.989 . S
N595 C594 1.342 . S
N595 N596 1.388 . S
N596 Co579 1.993 . S
N596 N595 1.388 . S
N596 C597 1.346 . S
C597 N596 1.346 . S
C597 C598 1.396 . S
C597 C607 1.510 . S
C598 C594 1.401 . S
C598 C597 1.396 . S
C599 C594 1.499 . S
C599 H600 0.959 . S
C599 H601 0.960 . S
C599 H602 0.961 . S
H600 C599 0.959 . S
H601 C599 0.960 . S
H602 C599 0.961 . S
O603 Co578 1.967 . S
O603 C611 1.258 . S
O604 Co579 1.941 . S
O604 C611 1.266 . S
H605 C607 0.959 . S
H606 C607 0.961 . S
C607 C597 1.510 . S
C607 H605 0.959 . S
C607 H606 0.961 . S
C607 H608 0.960 . S
H608 C607 0.960 . S
H609 N589 0.862 . S
O610 Co578 1.920 . S
O610 C583 1.289 . S
C611 O603 1.258 . S
C611 O604 1.266 . S
Co612 O615 1.970 . S
Co612 N629 1.989 . S
Co612 O637 1.967 . S
Co612 O644 1.920 . S
Co613 O616 1.966 . S
Co613 N622 2.022 . S
Co613 N630 1.993 . S
Co613 O638 1.941 . S
C614 O615 1.258 . S
C614 O616 1.263 . S
O615 Co612 1.970 . S
O615 C614 1.258 . S
O616 Co613 1.966 . S
O616 C614 1.263 . S
C617 O618 1.235 . S
C617 O644 1.289 . S
O618 C617 1.235 . S
C619 C621 1.400 . S
C619 N622 1.351 . S
C619 C624 1.501 . S
C620 C621 1.387 . S
C620 N623 1.341 . S
C621 C619 1.400 . S
C621 C620 1.387 . S
N622 Co613 2.022 . S
N622 C619 1.351 . S
N622 N623 1.365 . S
N623 C620 1.341 . S
N623 N622 1.365 . S
N623 H643 0.862 . S
C624 C619 1.501 . S
C624 H625 0.961 . S
C624 H626 0.961 . S
C624 H627 0.960 . S
H625 C624 0.961 . S
H626 C624 0.961 . S
H627 C624 0.960 . S
C628 N629 1.342 . S
C628 C632 1.401 . S
C628 C633 1.499 . S
N629 Co612 1.989 . S
N629 C628 1.342 . S
N629 N630 1.388 . S
N630 Co613 1.993 . S
N630 N629 1.388 . S
N630 C631 1.346 . S
C631 N630 1.346 . S
C631 C632 1.396 . S
C631 C641 1.510 . S
C632 C628 1.401 . S
C632 C631 1.396 . S
C633 C628 1.499 . S
C633 H634 0.959 . S
C633 H635 0.960 . S
C633 H636 0.961 . S
H634 C633 0.959 . S
H635 C633 0.960 . S
H636 C633 0.961 . S
O637 Co612 1.967 . S
O637 C645 1.258 . S
O638 Co613 1.941 . S
O638 C645 1.266 . S
H639 C641 0.959 . S
H640 C641 0.961 . S
C641 C631 1.510 . S
C641 H639 0.959 . S
C641 H640 0.961 . S
C641 H642 0.960 . S
H642 C641 0.960 . S
H643 N623 0.862 . S
O644 Co612 1.920 . S
O644 C617 1.289 . S
C645 O637 1.258 . S
C645 O638 1.266 . S
Co646 O649 1.970 . S
Co646 N663 1.989 . S
Co646 O671 1.967 . S
Co646 O678 1.920 . S
Co647 O650 1.966 . S
Co647 N656 2.022 . S
Co647 N664 1.993 . S
Co647 O672 1.941 . S
C648 O649 1.258 . S
C648 O650 1.263 . S
O649 Co646 1.970 . S
O649 C648 1.258 . S
O650 Co647 1.966 . S
O650 C648 1.263 . S
C651 O652 1.235 . S
C651 O678 1.289 . S
O652 C651 1.235 . S
C653 C655 1.400 . S
C653 N656 1.351 . S
C653 C658 1.501 . S
C654 C655 1.387 . S
C654 N657 1.341 . S
C655 C653 1.400 . S
C655 C654 1.387 . S
N656 Co647 2.022 . S
N656 C653 1.351 . S
N656 N657 1.365 . S
N657 C654 1.341 . S
N657 N656 1.365 . S
N657 H677 0.862 . S
C658 C653 1.501 . S
C658 H659 0.961 . S
C658 H660 0.961 . S
C658 H661 0.960 . S
H659 C658 0.961 . S
H660 C658 0.961 . S
H661 C658 0.960 . S
C662 N663 1.342 . S
C662 C666 1.401 . S
C662 C667 1.499 . S
N663 Co646 1.989 . S
N663 C662 1.342 . S
N663 N664 1.388 . S
N664 Co647 1.993 . S
N664 N663 1.388 . S
N664 C665 1.346 . S
C665 N664 1.346 . S
C665 C666 1.396 . S
C665 C675 1.510 . S
C666 C662 1.401 . S
C666 C665 1.396 . S
C667 C662 1.499 . S
C667 H668 0.959 . S
C667 H669 0.960 . S
C667 H670 0.961 . S
H668 C667 0.959 . S
H669 C667 0.960 . S
H670 C667 0.961 . S
O671 Co646 1.967 . S
O671 C679 1.258 . S
O672 Co647 1.941 . S
O672 C679 1.266 . S
H673 C675 0.959 . S
H674 C675 0.961 . S
C675 C665 1.510 . S
C675 H673 0.959 . S
C675 H674 0.961 . S
C675 H676 0.960 . S
H676 C675 0.960 . S
H677 N657 0.862 . S
O678 Co646 1.920 . S
O678 C651 1.289 . S
C679 O671 1.258 . S
C679 O672 1.266 . S
Co680 O683 1.970 . S
Co680 N697 1.989 . S
Co680 O705 1.967 . S
Co680 O712 1.920 . S
Co681 O684 1.966 . S
Co681 N690 2.022 . S
Co681 N698 1.993 . S
Co681 O706 1.941 . S
C682 O683 1.258 . S
C682 O684 1.263 . S
O683 Co680 1.970 . S
O683 C682 1.258 . S
O684 Co681 1.966 . S
O684 C682 1.263 . S
C685 O686 1.235 . S
C685 O712 1.289 . S
O686 C685 1.235 . S
C687 C689 1.400 . S
C687 N690 1.351 . S
C687 C692 1.501 . S
C688 C689 1.387 . S
C688 N691 1.341 . S
C689 C687 1.400 . S
C689 C688 1.387 . S
N690 Co681 2.022 . S
N690 C687 1.351 . S
N690 N691 1.365 . S
N691 C688 1.341 . S
N691 N690 1.365 . S
N691 H711 0.862 . S
C692 C687 1.501 . S
C692 H693 0.961 . S
C692 H694 0.961 . S
C692 H695 0.960 . S
H693 C692 0.961 . S
H694 C692 0.961 . S
H695 C692 0.960 . S
C696 N697 1.342 . S
C696 C700 1.401 . S
C696 C701 1.499 . S
N697 Co680 1.989 . S
N697 C696 1.342 . S
N697 N698 1.388 . S
N698 Co681 1.993 . S
N698 N697 1.388 . S
N698 C699 1.346 . S
C699 N698 1.346 . S
C699 C700 1.396 . S
C699 C709 1.510 . S
C700 C696 1.401 . S
C700 C699 1.396 . S
C701 C696 1.499 . S
C701 H702 0.959 . S
C701 H703 0.960 . S
C701 H704 0.961 . S
H702 C701 0.959 . S
H703 C701 0.960 . S
H704 C701 0.961 . S
O705 Co680 1.967 . S
O705 C713 1.258 . S
O706 Co681 1.941 . S
O706 C713 1.266 . S
H707 C709 0.959 . S
H708 C709 0.961 . S
C709 C699 1.510 . S
C709 H707 0.959 . S
C709 H708 0.961 . S
C709 H710 0.960 . S
H710 C709 0.960 . S
H711 N691 0.862 . S
O712 Co680 1.920 . S
O712 C685 1.289 . S
C713 O705 1.258 . S
C713 O706 1.266 . S
Co714 O717 1.970 . S
Co714 N731 1.989 . S
Co714 O739 1.967 1_556 S
Co714 O746 1.920 . S
Co715 O718 1.966 . S
Co715 N724 2.022 . S
Co715 N732 1.993 . S
Co715 O740 1.941 1_556 S
C716 O717 1.258 . S
C716 O718 1.263 . S
O717 Co714 1.970 . S
O717 C716 1.258 . S
O718 Co715 1.966 . S
O718 C716 1.263 . S
C719 O720 1.235 . S
C719 O746 1.289 . S
O720 C719 1.235 . S
C721 C723 1.400 . S
C721 N724 1.351 . S
C721 C726 1.501 . S
C722 C723 1.387 . S
C722 N725 1.341 . S
C723 C721 1.400 . S
C723 C722 1.387 . S
N724 Co715 2.022 . S
N724 C721 1.351 . S
N724 N725 1.365 . S
N725 C722 1.341 . S
N725 N724 1.365 . S
N725 H745 0.862 . S
C726 C721 1.501 . S
C726 H727 0.961 . S
C726 H728 0.961 . S
C726 H729 0.960 . S
H727 C726 0.961 . S
H728 C726 0.961 . S
H729 C726 0.960 . S
C730 N731 1.342 . S
C730 C734 1.401 . S
C730 C735 1.499 . S
N731 Co714 1.989 . S
N731 C730 1.342 . S
N731 N732 1.388 . S
N732 Co715 1.993 . S
N732 N731 1.388 . S
N732 C733 1.346 . S
C733 N732 1.346 . S
C733 C734 1.396 . S
C733 C743 1.510 . S
C734 C730 1.401 . S
C734 C733 1.396 . S
C735 C730 1.499 . S
C735 H736 0.959 . S
C735 H737 0.960 . S
C735 H738 0.961 . S
H736 C735 0.959 . S
H737 C735 0.960 . S
H738 C735 0.961 . S
O739 Co714 1.967 1_554 S
O739 C747 1.258 . S
O740 Co715 1.941 1_554 S
O740 C747 1.266 . S
H741 C743 0.959 . S
H742 C743 0.961 . S
C743 C733 1.510 . S
C743 H741 0.959 . S
C743 H742 0.961 . S
C743 H744 0.960 . S
H744 C743 0.960 . S
H745 N725 0.862 . S
O746 Co714 1.920 . S
O746 C719 1.289 . S
C747 O739 1.258 . S
C747 O740 1.266 . S
Co748 O751 1.970 . S
Co748 N765 1.989 . S
Co748 O773 1.967 1_556 S
Co748 O780 1.920 . S
Co749 O752 1.966 . S
Co749 N758 2.022 . S
Co749 N766 1.993 . S
Co749 O774 1.941 1_556 S
C750 O751 1.258 . S
C750 O752 1.263 . S
O751 Co748 1.970 . S
O751 C750 1.258 . S
O752 Co749 1.966 . S
O752 C750 1.263 . S
C753 O754 1.235 . S
C753 O780 1.289 . S
O754 C753 1.235 . S
C755 C757 1.400 . S
C755 N758 1.351 . S
C755 C760 1.501 . S
C756 C757 1.387 . S
C756 N759 1.341 . S
C757 C755 1.400 . S
C757 C756 1.387 . S
N758 Co749 2.022 . S
N758 C755 1.351 . S
N758 N759 1.365 . S
N759 C756 1.341 . S
N759 N758 1.365 . S
N759 H779 0.862 . S
C760 C755 1.501 . S
C760 H761 0.961 . S
C760 H762 0.961 . S
C760 H763 0.960 . S
H761 C760 0.961 . S
H762 C760 0.961 . S
H763 C760 0.960 . S
C764 N765 1.342 . S
C764 C768 1.401 . S
C764 C769 1.499 . S
N765 Co748 1.989 . S
N765 C764 1.342 . S
N765 N766 1.388 . S
N766 Co749 1.993 . S
N766 N765 1.388 . S
N766 C767 1.346 . S
C767 N766 1.346 . S
C767 C768 1.396 . S
C767 C777 1.510 . S
C768 C764 1.401 . S
C768 C767 1.396 . S
C769 C764 1.499 . S
C769 H770 0.959 . S
C769 H771 0.960 . S
C769 H772 0.961 . S
H770 C769 0.959 . S
H771 C769 0.960 . S
H772 C769 0.961 . S
O773 Co748 1.967 1_554 S
O773 C781 1.258 . S
O774 Co749 1.941 1_554 S
O774 C781 1.266 . S
H775 C777 0.959 . S
H776 C777 0.961 . S
C777 C767 1.510 . S
C777 H775 0.959 . S
C777 H776 0.961 . S
C777 H778 0.960 . S
H778 C777 0.960 . S
H779 N759 0.862 . S
O780 Co748 1.920 . S
O780 C753 1.289 . S
C781 O773 1.258 . S
C781 O774 1.266 . S
Co782 O785 1.970 . S
Co782 N799 1.989 . S
Co782 O807 1.967 1_556 S
Co782 O814 1.920 . S
Co783 O786 1.966 . S
Co783 N792 2.022 . S
Co783 N800 1.993 . S
Co783 O808 1.941 1_556 S
C784 O785 1.258 . S
C784 O786 1.263 . S
O785 Co782 1.970 . S
O785 C784 1.258 . S
O786 Co783 1.966 . S
O786 C784 1.263 . S
C787 O788 1.235 . S
C787 O814 1.289 . S
O788 C787 1.235 . S
C789 C791 1.400 . S
C789 N792 1.351 . S
C789 C794 1.501 . S
C790 C791 1.387 . S
C790 N793 1.341 . S
C791 C789 1.400 . S
C791 C790 1.387 . S
N792 Co783 2.022 . S
N792 C789 1.351 . S
N792 N793 1.365 . S
N793 C790 1.341 . S
N793 N792 1.365 . S
N793 H813 0.862 . S
C794 C789 1.501 . S
C794 H795 0.961 . S
C794 H796 0.961 . S
C794 H797 0.960 . S
H795 C794 0.961 . S
H796 C794 0.961 . S
H797 C794 0.960 . S
C798 N799 1.342 . S
C798 C802 1.401 . S
C798 C803 1.499 . S
N799 Co782 1.989 . S
N799 C798 1.342 . S
N799 N800 1.388 . S
N800 Co783 1.993 . S
N800 N799 1.388 . S
N800 C801 1.346 . S
C801 N800 1.346 . S
C801 C802 1.396 . S
C801 C811 1.510 . S
C802 C798 1.401 . S
C802 C801 1.396 . S
C803 C798 1.499 . S
C803 H804 0.959 . S
C803 H805 0.960 . S
C803 H806 0.961 . S
H804 C803 0.959 . S
H805 C803 0.960 . S
H806 C803 0.961 . S
O807 Co782 1.967 1_554 S
O807 C815 1.258 . S
O808 Co783 1.941 1_554 S
O808 C815 1.266 . S
H809 C811 0.959 . S
H810 C811 0.961 . S
C811 C801 1.510 . S
C811 H809 0.959 . S
C811 H810 0.961 . S
C811 H812 0.960 . S
H812 C811 0.960 . S
H813 N793 0.862 . S
O814 Co782 1.920 . S
O814 C787 1.289 . S
C815 O807 1.258 . S
C815 O808 1.266 . S
Co816 O819 1.970 . S
Co816 N833 1.989 . S
Co816 O841 1.967 . S
Co816 O848 1.920 . S
Co817 O820 1.966 . S
Co817 N826 2.022 . S
Co817 N834 1.993 . S
Co817 O842 1.941 . S
C818 O819 1.258 . S
C818 O820 1.263 . S
O819 Co816 1.970 . S
O819 C818 1.258 . S
O820 Co817 1.966 . S
O820 C818 1.263 . S
C821 O822 1.235 . S
C821 O848 1.289 . S
O822 C821 1.235 . S
C823 C825 1.400 . S
C823 N826 1.351 . S
C823 C828 1.501 . S
C824 C825 1.387 . S
C824 N827 1.341 . S
C825 C823 1.400 . S
C825 C824 1.387 . S
N826 Co817 2.022 . S
N826 C823 1.351 . S
N826 N827 1.365 . S
N827 C824 1.341 . S
N827 N826 1.365 . S
N827 H847 0.862 . S
C828 C823 1.501 . S
C828 H829 0.961 . S
C828 H830 0.961 . S
C828 H831 0.960 . S
H829 C828 0.961 . S
H830 C828 0.961 . S
H831 C828 0.960 . S
C832 N833 1.342 . S
C832 C836 1.401 . S
C832 C837 1.499 . S
N833 Co816 1.989 . S
N833 C832 1.342 . S
N833 N834 1.388 . S
N834 Co817 1.993 . S
N834 N833 1.388 . S
N834 C835 1.346 . S
C835 N834 1.346 . S
C835 C836 1.396 . S
C835 C845 1.510 . S
C836 C832 1.401 . S
C836 C835 1.396 . S
C837 C832 1.499 . S
C837 H838 0.959 . S
C837 H839 0.960 . S
C837 H840 0.961 . S
H838 C837 0.959 . S
H839 C837 0.960 . S
H840 C837 0.961 . S
O841 Co816 1.967 . S
O841 C849 1.258 . S
O842 Co817 1.941 . S
O842 C849 1.266 . S
H843 C845 0.959 . S
H844 C845 0.961 . S
C845 C835 1.510 . S
C845 H843 0.959 . S
C845 H844 0.961 . S
C845 H846 0.960 . S
H846 C845 0.960 . S
H847 N827 0.862 . S
O848 Co816 1.920 . S
O848 C821 1.289 . S
C849 O841 1.258 . S
C849 O842 1.266 . S
Co850 O853 1.970 . S
Co850 N867 1.989 . S
Co850 O875 1.967 . S
Co850 O882 1.920 . S
Co851 O854 1.966 . S
Co851 N860 2.022 . S
Co851 N868 1.993 . S
Co851 O876 1.941 . S
C852 O853 1.258 . S
C852 O854 1.263 . S
O853 Co850 1.970 . S
O853 C852 1.258 . S
O854 Co851 1.966 . S
O854 C852 1.263 . S
C855 O856 1.235 . S
C855 O882 1.289 . S
O856 C855 1.235 . S
C857 C859 1.400 . S
C857 N860 1.351 . S
C857 C862 1.501 . S
C858 C859 1.387 . S
C858 N861 1.341 . S
C859 C857 1.400 . S
C859 C858 1.387 . S
N860 Co851 2.022 . S
N860 C857 1.351 . S
N860 N861 1.365 . S
N861 C858 1.341 . S
N861 N860 1.365 . S
N861 H881 0.862 . S
C862 C857 1.501 . S
C862 H863 0.961 . S
C862 H864 0.961 . S
C862 H865 0.960 . S
H863 C862 0.961 . S
H864 C862 0.961 . S
H865 C862 0.960 . S
C866 N867 1.342 . S
C866 C870 1.401 . S
C866 C871 1.499 . S
N867 Co850 1.989 . S
N867 C866 1.342 . S
N867 N868 1.388 . S
N868 Co851 1.993 . S
N868 N867 1.388 . S
N868 C869 1.346 . S
C869 N868 1.346 . S
C869 C870 1.396 . S
C869 C879 1.510 . S
C870 C866 1.401 . S
C870 C869 1.396 . S
C871 C866 1.499 . S
C871 H872 0.959 . S
C871 H873 0.960 . S
C871 H874 0.961 . S
H872 C871 0.959 . S
H873 C871 0.960 . S
H874 C871 0.961 . S
O875 Co850 1.967 . S
O875 C883 1.258 . S
O876 Co851 1.941 . S
O876 C883 1.266 . S
H877 C879 0.959 . S
H878 C879 0.961 . S
C879 C869 1.510 . S
C879 H877 0.959 . S
C879 H878 0.961 . S
C879 H880 0.960 . S
H880 C879 0.960 . S
H881 N861 0.862 . S
O882 Co850 1.920 . S
O882 C855 1.289 . S
C883 O875 1.258 . S
C883 O876 1.266 . S
Co884 O887 1.970 . S
Co884 N901 1.989 . S
Co884 O909 1.967 . S
Co884 O916 1.920 . S
Co885 O888 1.966 . S
Co885 N894 2.022 . S
Co885 N902 1.993 . S
Co885 O910 1.941 . S
C886 O887 1.258 . S
C886 O888 1.263 . S
O887 Co884 1.970 . S
O887 C886 1.258 . S
O888 Co885 1.966 . S
O888 C886 1.263 . S
C889 O890 1.235 . S
C889 O916 1.289 . S
O890 C889 1.235 . S
C891 C893 1.400 . S
C891 N894 1.351 . S
C891 C896 1.501 . S
C892 C893 1.387 . S
C892 N895 1.341 . S
C893 C891 1.400 . S
C893 C892 1.387 . S
N894 Co885 2.022 . S
N894 C891 1.351 . S
N894 N895 1.365 . S
N895 C892 1.341 . S
N895 N894 1.365 . S
N895 H915 0.862 . S
C896 C891 1.501 . S
C896 H897 0.961 . S
C896 H898 0.961 . S
C896 H899 0.960 . S
H897 C896 0.961 . S
H898 C896 0.961 . S
H899 C896 0.960 . S
C900 N901 1.342 . S
C900 C904 1.401 . S
C900 C905 1.499 . S
N901 Co884 1.989 . S
N901 C900 1.342 . S
N901 N902 1.388 . S
N902 Co885 1.993 . S
N902 N901 1.388 . S
N902 C903 1.346 . S
C903 N902 1.346 . S
C903 C904 1.396 . S
C903 C913 1.510 . S
C904 C900 1.401 . S
C904 C903 1.396 . S
C905 C900 1.499 . S
C905 H906 0.959 . S
C905 H907 0.960 . S
C905 H908 0.961 . S
H906 C905 0.959 . S
H907 C905 0.960 . S
H908 C905 0.961 . S
O909 Co884 1.967 . S
O909 C917 1.258 . S
O910 Co885 1.941 . S
O910 C917 1.266 . S
H911 C913 0.959 . S
H912 C913 0.961 . S
C913 C903 1.510 . S
C913 H911 0.959 . S
C913 H912 0.961 . S
C913 H914 0.960 . S
H914 C913 0.960 . S
H915 N895 0.862 . S
O916 Co884 1.920 . S
O916 C889 1.289 . S
C917 O909 1.258 . S
C917 O910 1.266 . S
Co918 O921 1.970 . S
Co918 N935 1.989 . S
Co918 O943 1.967 1_554 S
Co918 O950 1.920 . S
Co919 O922 1.966 . S
Co919 N928 2.022 . S
Co919 N936 1.993 . S
Co919 O944 1.941 1_554 S
C920 O921 1.258 . S
C920 O922 1.263 . S
O921 Co918 1.970 . S
O921 C920 1.258 . S
O922 Co919 1.966 . S
O922 C920 1.263 . S
C923 O924 1.235 . S
C923 O950 1.289 . S
O924 C923 1.235 . S
C925 C927 1.400 . S
C925 N928 1.351 . S
C925 C930 1.501 . S
C926 C927 1.387 . S
C926 N929 1.341 . S
C927 C925 1.400 . S
C927 C926 1.387 . S
N928 Co919 2.022 . S
N928 C925 1.351 . S
N928 N929 1.365 . S
N929 C926 1.341 . S
N929 N928 1.365 . S
N929 H949 0.862 . S
C930 C925 1.501 . S
C930 H931 0.961 . S
C930 H932 0.961 . S
C930 H933 0.960 . S
H931 C930 0.961 . S
H932 C930 0.961 . S
H933 C930 0.960 . S
C934 N935 1.342 . S
C934 C938 1.401 . S
C934 C939 1.499 . S
N935 Co918 1.989 . S
N935 C934 1.342 . S
N935 N936 1.388 . S
N936 Co919 1.993 . S
N936 N935 1.388 . S
N936 C937 1.346 . S
C937 N936 1.346 . S
C937 C938 1.396 . S
C937 C947 1.510 . S
C938 C934 1.401 . S
C938 C937 1.396 . S
C939 C934 1.499 . S
C939 H940 0.959 . S
C939 H941 0.960 . S
C939 H942 0.961 . S
H940 C939 0.959 . S
H941 C939 0.960 . S
H942 C939 0.961 . S
O943 Co918 1.967 1_556 S
O943 C951 1.258 . S
O944 Co919 1.941 1_556 S
O944 C951 1.266 . S
H945 C947 0.959 . S
H946 C947 0.961 . S
C947 C937 1.510 . S
C947 H945 0.959 . S
C947 H946 0.961 . S
C947 H948 0.960 . S
H948 C947 0.960 . S
H949 N929 0.862 . S
O950 Co918 1.920 . S
O950 C923 1.289 . S
C951 O943 1.258 . S
C951 O944 1.266 . S
Co952 O955 1.970 . S
Co952 N969 1.989 . S
Co952 O977 1.967 1_554 S
Co952 O984 1.920 . S
Co953 O956 1.966 . S
Co953 N962 2.022 . S
Co953 N970 1.993 . S
Co953 O978 1.941 1_554 S
C954 O955 1.258 . S
C954 O956 1.263 . S
O955 Co952 1.970 . S
O955 C954 1.258 . S
O956 Co953 1.966 . S
O956 C954 1.263 . S
C957 O958 1.235 . S
C957 O984 1.289 . S
O958 C957 1.235 . S
C959 C961 1.400 . S
C959 N962 1.351 . S
C959 C964 1.501 . S
C960 C961 1.387 . S
C960 N963 1.341 . S
C961 C959 1.400 . S
C961 C960 1.387 . S
N962 Co953 2.022 . S
N962 C959 1.351 . S
N962 N963 1.365 . S
N963 C960 1.341 . S
N963 N962 1.365 . S
N963 H983 0.862 . S
C964 C959 1.501 . S
C964 H965 0.961 . S
C964 H966 0.961 . S
C964 H967 0.960 . S
H965 C964 0.961 . S
H966 C964 0.961 . S
H967 C964 0.960 . S
C968 N969 1.342 . S
C968 C972 1.401 . S
C968 C973 1.499 . S
N969 Co952 1.989 . S
N969 C968 1.342 . S
N969 N970 1.388 . S
N970 Co953 1.993 . S
N970 N969 1.388 . S
N970 C971 1.346 . S
C971 N970 1.346 . S
C971 C972 1.396 . S
C971 C981 1.510 . S
C972 C968 1.401 . S
C972 C971 1.396 . S
C973 C968 1.499 . S
C973 H974 0.959 . S
C973 H975 0.960 . S
C973 H976 0.961 . S
H974 C973 0.959 . S
H975 C973 0.960 . S
H976 C973 0.961 . S
O977 Co952 1.967 1_556 S
O977 C985 1.258 . S
O978 Co953 1.941 1_556 S
O978 C985 1.266 . S
H979 C981 0.959 . S
H980 C981 0.961 . S
C981 C971 1.510 . S
C981 H979 0.959 . S
C981 H980 0.961 . S
C981 H982 0.960 . S
H982 C981 0.960 . S
H983 N963 0.862 . S
O984 Co952 1.920 . S
O984 C957 1.289 . S
C985 O977 1.258 . S
C985 O978 1.266 . S
Co986 O989 1.970 . S
Co986 N1003 1.989 . S
Co986 O1011 1.967 1_554 S
Co986 O1018 1.920 . S
Co987 O990 1.966 . S
Co987 N996 2.022 . S
Co987 N1004 1.993 . S
Co987 O1012 1.941 1_554 S
C988 O989 1.258 . S
C988 O990 1.263 . S
O989 Co986 1.970 . S
O989 C988 1.258 . S
O990 Co987 1.966 . S
O990 C988 1.263 . S
C991 O992 1.235 . S
C991 O1018 1.289 . S
O992 C991 1.235 . S
C993 C995 1.400 . S
C993 N996 1.351 . S
C993 C998 1.501 . S
C994 C995 1.387 . S
C994 N997 1.341 . S
C995 C993 1.400 . S
C995 C994 1.387 . S
N996 Co987 2.022 . S
N996 C993 1.351 . S
N996 N997 1.365 . S
N997 C994 1.341 . S
N997 N996 1.365 . S
N997 H1017 0.862 . S
C998 C993 1.501 . S
C998 H999 0.961 . S
C998 H1000 0.961 . S
C998 H1001 0.960 . S
H999 C998 0.961 . S
H1000 C998 0.961 . S
H1001 C998 0.960 . S
C1002 N1003 1.342 . S
C1002 C1006 1.401 . S
C1002 C1007 1.499 . S
N1003 Co986 1.989 . S
N1003 C1002 1.342 . S
N1003 N1004 1.388 . S
N1004 Co987 1.993 . S
N1004 N1003 1.388 . S
N1004 C1005 1.346 . S
C1005 N1004 1.346 . S
C1005 C1006 1.396 . S
C1005 C1015 1.510 . S
C1006 C1002 1.401 . S
C1006 C1005 1.396 . S
C1007 C1002 1.499 . S
C1007 H1008 0.959 . S
C1007 H1009 0.960 . S
C1007 H1010 0.961 . S
H1008 C1007 0.959 . S
H1009 C1007 0.960 . S
H1010 C1007 0.961 . S
O1011 Co986 1.967 1_556 S
O1011 C1019 1.258 . S
O1012 Co987 1.941 1_556 S
O1012 C1019 1.266 . S
H1013 C1015 0.959 . S
H1014 C1015 0.961 . S
C1015 C1005 1.510 . S
C1015 H1013 0.959 . S
C1015 H1014 0.961 . S
C1015 H1016 0.960 . S
H1016 C1015 0.960 . S
H1017 N997 0.862 . S
O1018 Co986 1.920 . S
O1018 C991 1.289 . S
C1019 O1011 1.258 . S
C1019 O1012 1.266 . S
Co1020 O1023 1.970 . S
Co1020 N1037 1.989 . S
Co1020 O1045 1.967 . S
Co1020 O1052 1.920 . S
Co1021 O1024 1.966 . S
Co1021 N1030 2.022 . S
Co1021 N1038 1.993 . S
Co1021 O1046 1.941 . S
C1022 O1023 1.258 . S
C1022 O1024 1.263 . S
O1023 Co1020 1.970 . S
O1023 C1022 1.258 . S
O1024 Co1021 1.966 . S
O1024 C1022 1.263 . S
C1025 O1026 1.235 . S
C1025 O1052 1.289 . S
O1026 C1025 1.235 . S
C1027 C1029 1.400 . S
C1027 N1030 1.351 . S
C1027 C1032 1.501 . S
C1028 C1029 1.387 . S
C1028 N1031 1.341 . S
C1029 C1027 1.400 . S
C1029 C1028 1.387 . S
N1030 Co1021 2.022 . S
N1030 C1027 1.351 . S
N1030 N1031 1.365 . S
N1031 C1028 1.341 . S
N1031 N1030 1.365 . S
N1031 H1051 0.862 . S
C1032 C1027 1.501 . S
C1032 H1033 0.961 . S
C1032 H1034 0.961 . S
C1032 H1035 0.960 . S
H1033 C1032 0.961 . S
H1034 C1032 0.961 . S
H1035 C1032 0.960 . S
C1036 N1037 1.342 . S
C1036 C1040 1.401 . S
C1036 C1041 1.499 . S
N1037 Co1020 1.989 . S
N1037 C1036 1.342 . S
N1037 N1038 1.388 . S
N1038 Co1021 1.993 . S
N1038 N1037 1.388 . S
N1038 C1039 1.346 . S
C1039 N1038 1.346 . S
C1039 C1040 1.396 . S
C1039 C1049 1.510 . S
C1040 C1036 1.401 . S
C1040 C1039 1.396 . S
C1041 C1036 1.499 . S
C1041 H1042 0.959 . S
C1041 H1043 0.960 . S
C1041 H1044 0.961 . S
H1042 C1041 0.959 . S
H1043 C1041 0.960 . S
H1044 C1041 0.961 . S
O1045 Co1020 1.967 . S
O1045 C1053 1.258 . S
O1046 Co1021 1.941 . S
O1046 C1053 1.266 . S
H1047 C1049 0.959 . S
H1048 C1049 0.961 . S
C1049 C1039 1.510 . S
C1049 H1047 0.959 . S
C1049 H1048 0.961 . S
C1049 H1050 0.960 . S
H1050 C1049 0.960 . S
H1051 N1031 0.862 . S
O1052 Co1020 1.920 . S
O1052 C1025 1.289 . S
C1053 O1045 1.258 . S
C1053 O1046 1.266 . S
Co1054 O1057 1.970 . S
Co1054 N1071 1.989 . S
Co1054 O1079 1.967 . S
Co1054 O1086 1.920 . S
Co1055 O1058 1.966 . S
Co1055 N1064 2.022 . S
Co1055 N1072 1.993 . S
Co1055 O1080 1.941 . S
C1056 O1057 1.258 . S
C1056 O1058 1.263 . S
O1057 Co1054 1.970 . S
O1057 C1056 1.258 . S
O1058 Co1055 1.966 . S
O1058 C1056 1.263 . S
C1059 O1060 1.235 . S
C1059 O1086 1.289 . S
O1060 C1059 1.235 . S
C1061 C1063 1.400 . S
C1061 N1064 1.351 . S
C1061 C1066 1.501 . S
C1062 C1063 1.387 . S
C1062 N1065 1.341 . S
C1063 C1061 1.400 . S
C1063 C1062 1.387 . S
N1064 Co1055 2.022 . S
N1064 C1061 1.351 . S
N1064 N1065 1.365 . S
N1065 C1062 1.341 . S
N1065 N1064 1.365 . S
N1065 H1085 0.862 . S
C1066 C1061 1.501 . S
C1066 H1067 0.961 . S
C1066 H1068 0.961 . S
C1066 H1069 0.960 . S
H1067 C1066 0.961 . S
H1068 C1066 0.961 . S
H1069 C1066 0.960 . S
C1070 N1071 1.342 . S
C1070 C1074 1.401 . S
C1070 C1075 1.499 . S
N1071 Co1054 1.989 . S
N1071 C1070 1.342 . S
N1071 N1072 1.388 . S
N1072 Co1055 1.993 . S
N1072 N1071 1.388 . S
N1072 C1073 1.346 . S
C1073 N1072 1.346 . S
C1073 C1074 1.396 . S
C1073 C1083 1.510 . S
C1074 C1070 1.401 . S
C1074 C1073 1.396 . S
C1075 C1070 1.499 . S
C1075 H1076 0.959 . S
C1075 H1077 0.960 . S
C1075 H1078 0.961 . S
H1076 C1075 0.959 . S
H1077 C1075 0.960 . S
H1078 C1075 0.961 . S
O1079 Co1054 1.967 . S
O1079 C1087 1.258 . S
O1080 Co1055 1.941 . S
O1080 C1087 1.266 . S
H1081 C1083 0.959 . S
H1082 C1083 0.961 . S
C1083 C1073 1.510 . S
C1083 H1081 0.959 . S
C1083 H1082 0.961 . S
C1083 H1084 0.960 . S
H1084 C1083 0.960 . S
H1085 N1065 0.862 . S
O1086 Co1054 1.920 . S
O1086 C1059 1.289 . S
C1087 O1079 1.258 . S
C1087 O1080 1.266 . S
Co1088 O1091 1.970 . S
Co1088 N1105 1.989 . S
Co1088 O1113 1.967 . S
Co1088 O1120 1.920 . S
Co1089 O1092 1.966 . S
Co1089 N1098 2.022 . S
Co1089 N1106 1.993 . S
Co1089 O1114 1.941 . S
C1090 O1091 1.258 . S
C1090 O1092 1.263 . S
O1091 Co1088 1.970 . S
O1091 C1090 1.258 . S
O1092 Co1089 1.966 . S
O1092 C1090 1.263 . S
C1093 O1094 1.235 . S
C1093 O1120 1.289 . S
O1094 C1093 1.235 . S
C1095 C1097 1.400 . S
C1095 N1098 1.351 . S
C1095 C1100 1.501 . S
C1096 C1097 1.387 . S
C1096 N1099 1.341 . S
C1097 C1095 1.400 . S
C1097 C1096 1.387 . S
N1098 Co1089 2.022 . S
N1098 C1095 1.351 . S
N1098 N1099 1.365 . S
N1099 C1096 1.341 . S
N1099 N1098 1.365 . S
N1099 H1119 0.862 . S
C1100 C1095 1.501 . S
C1100 H1101 0.961 . S
C1100 H1102 0.961 . S
C1100 H1103 0.960 . S
H1101 C1100 0.961 . S
H1102 C1100 0.961 . S
H1103 C1100 0.960 . S
C1104 N1105 1.342 . S
C1104 C1108 1.401 . S
C1104 C1109 1.499 . S
N1105 Co1088 1.989 . S
N1105 C1104 1.342 . S
N1105 N1106 1.388 . S
N1106 Co1089 1.993 . S
N1106 N1105 1.388 . S
N1106 C1107 1.346 . S
C1107 N1106 1.346 . S
C1107 C1108 1.396 . S
C1107 C1117 1.510 . S
C1108 C1104 1.401 . S
C1108 C1107 1.396 . S
C1109 C1104 1.499 . S
C1109 H1110 0.959 . S
C1109 H1111 0.960 . S
C1109 H1112 0.961 . S
H1110 C1109 0.959 . S
H1111 C1109 0.960 . S
H1112 C1109 0.961 . S
O1113 Co1088 1.967 . S
O1113 C1121 1.258 . S
O1114 Co1089 1.941 . S
O1114 C1121 1.266 . S
H1115 C1117 0.959 . S
H1116 C1117 0.961 . S
C1117 C1107 1.510 . S
C1117 H1115 0.959 . S
C1117 H1116 0.961 . S
C1117 H1118 0.960 . S
H1118 C1117 0.960 . S
H1119 N1099 0.862 . S
O1120 Co1088 1.920 . S
O1120 C1093 1.289 . S
C1121 O1113 1.258 . S
C1121 O1114 1.266 . S
Co1122 O1125 1.970 . S
Co1122 N1139 1.989 . S
Co1122 O1147 1.967 . S
Co1122 O1154 1.920 . S
Co1123 O1126 1.966 . S
Co1123 N1132 2.022 . S
Co1123 N1140 1.993 . S
Co1123 O1148 1.941 . S
C1124 O1125 1.258 . S
C1124 O1126 1.263 . S
O1125 Co1122 1.970 . S
O1125 C1124 1.258 . S
O1126 Co1123 1.966 . S
O1126 C1124 1.263 . S
C1127 O1128 1.235 . S
C1127 O1154 1.289 . S
O1128 C1127 1.235 . S
C1129 C1131 1.400 . S
C1129 N1132 1.351 . S
C1129 C1134 1.501 . S
C1130 C1131 1.387 . S
C1130 N1133 1.341 . S
C1131 C1129 1.400 . S
C1131 C1130 1.387 . S
N1132 Co1123 2.022 . S
N1132 C1129 1.351 . S
N1132 N1133 1.365 . S
N1133 C1130 1.341 . S
N1133 N1132 1.365 . S
N1133 H1153 0.862 . S
C1134 C1129 1.501 . S
C1134 H1135 0.961 . S
C1134 H1136 0.961 . S
C1134 H1137 0.960 . S
H1135 C1134 0.961 . S
H1136 C1134 0.961 . S
H1137 C1134 0.960 . S
C1138 N1139 1.342 . S
C1138 C1142 1.401 . S
C1138 C1143 1.499 . S
N1139 Co1122 1.989 . S
N1139 C1138 1.342 . S
N1139 N1140 1.388 . S
N1140 Co1123 1.993 . S
N1140 N1139 1.388 . S
N1140 C1141 1.346 . S
C1141 N1140 1.346 . S
C1141 C1142 1.396 . S
C1141 C1151 1.510 . S
C1142 C1138 1.401 . S
C1142 C1141 1.396 . S
C1143 C1138 1.499 . S
C1143 H1144 0.959 . S
C1143 H1145 0.960 . S
C1143 H1146 0.961 . S
H1144 C1143 0.959 . S
H1145 C1143 0.960 . S
H1146 C1143 0.961 . S
O1147 Co1122 1.967 . S
O1147 C1155 1.258 . S
O1148 Co1123 1.941 . S
O1148 C1155 1.266 . S
H1149 C1151 0.959 . S
H1150 C1151 0.961 . S
C1151 C1141 1.510 . S
C1151 H1149 0.959 . S
C1151 H1150 0.961 . S
C1151 H1152 0.960 . S
H1152 C1151 0.960 . S
H1153 N1133 0.862 . S
O1154 Co1122 1.920 . S
O1154 C1127 1.289 . S
C1155 O1147 1.258 . S
C1155 O1148 1.266 . S
Co1156 O1159 1.970 . S
Co1156 N1173 1.989 . S
Co1156 O1181 1.967 . S
Co1156 O1188 1.920 . S
Co1157 O1160 1.966 . S
Co1157 N1166 2.022 . S
Co1157 N1174 1.993 . S
Co1157 O1182 1.941 . S
C1158 O1159 1.258 . S
C1158 O1160 1.263 . S
O1159 Co1156 1.970 . S
O1159 C1158 1.258 . S
O1160 Co1157 1.966 . S
O1160 C1158 1.263 . S
C1161 O1162 1.235 . S
C1161 O1188 1.289 . S
O1162 C1161 1.235 . S
C1163 C1165 1.400 . S
C1163 N1166 1.351 . S
C1163 C1168 1.501 . S
C1164 C1165 1.387 . S
C1164 N1167 1.341 . S
C1165 C1163 1.400 . S
C1165 C1164 1.387 . S
N1166 Co1157 2.022 . S
N1166 C1163 1.351 . S
N1166 N1167 1.365 . S
N1167 C1164 1.341 . S
N1167 N1166 1.365 . S
N1167 H1187 0.862 . S
C1168 C1163 1.501 . S
C1168 H1169 0.961 . S
C1168 H1170 0.961 . S
C1168 H1171 0.960 . S
H1169 C1168 0.961 . S
H1170 C1168 0.961 . S
H1171 C1168 0.960 . S
C1172 N1173 1.342 . S
C1172 C1176 1.401 . S
C1172 C1177 1.499 . S
N1173 Co1156 1.989 . S
N1173 C1172 1.342 . S
N1173 N1174 1.388 . S
N1174 Co1157 1.993 . S
N1174 N1173 1.388 . S
N1174 C1175 1.346 . S
C1175 N1174 1.346 . S
C1175 C1176 1.396 . S
C1175 C1185 1.510 . S
C1176 C1172 1.401 . S
C1176 C1175 1.396 . S
C1177 C1172 1.499 . S
C1177 H1178 0.959 . S
C1177 H1179 0.960 . S
C1177 H1180 0.961 . S
H1178 C1177 0.959 . S
H1179 C1177 0.960 . S
H1180 C1177 0.961 . S
O1181 Co1156 1.967 . S
O1181 C1189 1.258 . S
O1182 Co1157 1.941 . S
O1182 C1189 1.266 . S
H1183 C1185 0.959 . S
H1184 C1185 0.961 . S
C1185 C1175 1.510 . S
C1185 H1183 0.959 . S
C1185 H1184 0.961 . S
C1185 H1186 0.960 . S
H1186 C1185 0.960 . S
H1187 N1167 0.862 . S
O1188 Co1156 1.920 . S
O1188 C1161 1.289 . S
C1189 O1181 1.258 . S
C1189 O1182 1.266 . S
Co1190 O1193 1.970 . S
Co1190 N1207 1.989 . S
Co1190 O1215 1.967 . S
Co1190 O1222 1.920 . S
Co1191 O1194 1.966 . S
Co1191 N1200 2.022 . S
Co1191 N1208 1.993 . S
Co1191 O1216 1.941 . S
C1192 O1193 1.258 . S
C1192 O1194 1.263 . S
O1193 Co1190 1.970 . S
O1193 C1192 1.258 . S
O1194 Co1191 1.966 . S
O1194 C1192 1.263 . S
C1195 O1196 1.235 . S
C1195 O1222 1.289 . S
O1196 C1195 1.235 . S
C1197 C1199 1.400 . S
C1197 N1200 1.351 . S
C1197 C1202 1.501 . S
C1198 C1199 1.387 . S
C1198 N1201 1.341 . S
C1199 C1197 1.400 . S
C1199 C1198 1.387 . S
N1200 Co1191 2.022 . S
N1200 C1197 1.351 . S
N1200 N1201 1.365 . S
N1201 C1198 1.341 . S
N1201 N1200 1.365 . S
N1201 H1221 0.862 . S
C1202 C1197 1.501 . S
C1202 H1203 0.961 . S
C1202 H1204 0.961 . S
C1202 H1205 0.960 . S
H1203 C1202 0.961 . S
H1204 C1202 0.961 . S
H1205 C1202 0.960 . S
C1206 N1207 1.342 . S
C1206 C1210 1.401 . S
C1206 C1211 1.499 . S
N1207 Co1190 1.989 . S
N1207 C1206 1.342 . S
N1207 N1208 1.388 . S
N1208 Co1191 1.993 . S
N1208 N1207 1.388 . S
N1208 C1209 1.346 . S
C1209 N1208 1.346 . S
C1209 C1210 1.396 . S
C1209 C1219 1.510 . S
C1210 C1206 1.401 . S
C1210 C1209 1.396 . S
C1211 C1206 1.499 . S
C1211 H1212 0.959 . S
C1211 H1213 0.960 . S
C1211 H1214 0.961 . S
H1212 C1211 0.959 . S
H1213 C1211 0.960 . S
H1214 C1211 0.961 . S
O1215 Co1190 1.967 . S
O1215 C1223 1.258 . S
O1216 Co1191 1.941 . S
O1216 C1223 1.266 . S
H1217 C1219 0.959 . S
H1218 C1219 0.961 . S
C1219 C1209 1.510 . S
C1219 H1217 0.959 . S
C1219 H1218 0.961 . S
C1219 H1220 0.960 . S
H1220 C1219 0.960 . S
H1221 N1201 0.862 . S
O1222 Co1190 1.920 . S
O1222 C1195 1.289 . S
C1223 O1215 1.258 . S
C1223 O1216 1.266 . S
H1224 C1232 0.950 . S
H1225 C1237 0.950 . S
H1226 C1234 0.950 . S
H1227 C1236 0.950 . S
H1228 C1238 0.950 . S
H1229 C1240 0.950 . S
H1230 C1242 0.950 . S
H1231 C1243 0.950 . S
C1232 H1224 0.950 . S
C1232 C1233 1.386 . S
C1232 C1234 1.391 . S
C1233 C1232 1.386 . S
C1233 C1237 1.393 . S
C1234 H1226 0.950 . S
C1234 C1232 1.391 . S
C1234 C1235 1.400 . S
C1235 C1234 1.400 . S
C1235 C1236 1.398 . S
C1235 C1241 1.491 . S
C1236 H1227 0.950 . S
C1236 C1235 1.398 . S
C1236 C1237 1.391 . S
C1237 H1225 0.950 . S
C1237 C1233 1.393 . S
C1237 C1236 1.391 . S
C1238 H1228 0.950 . S
C1238 C1239 1.386 . S
C1238 C1240 1.391 . S
C1239 C1238 1.386 . S
C1239 C1243 1.393 . S
C1240 H1229 0.950 . S
C1240 C1238 1.391 . S
C1240 C1241 1.400 . S
C1241 C1235 1.491 . S
C1241 C1240 1.400 . S
C1241 C1242 1.398 . S
C1242 H1230 0.950 . S
C1242 C1241 1.398 . S
C1242 C1243 1.391 . S
C1243 H1231 0.950 . S
C1243 C1239 1.393 . S
C1243 C1242 1.391 . S
H1244 C1252 0.950 . S
H1245 C1257 0.950 . S
H1246 C1254 0.950 1_545 S
H1247 C1256 0.950 1_545 S
H1248 C1258 0.950 . S
H1249 C1260 0.950 . S
H1250 C1262 0.950 . S
H1251 C1263 0.950 . S
C1252 H1244 0.950 . S
C1252 C1253 1.386 . S
C1252 C1254 1.391 . S
C1253 C1252 1.386 . S
C1253 C1257 1.393 . S
C1254 H1246 0.950 1_565 S
C1254 C1252 1.391 . S
C1254 C1255 1.400 1_565 S
C1255 C1254 1.400 1_545 S
C1255 C1256 1.398 1_545 S
C1255 C1261 1.491 . S
C1256 H1247 0.950 1_565 S
C1256 C1255 1.398 1_565 S
C1256 C1257 1.391 . S
C1257 H1245 0.950 . S
C1257 C1253 1.393 . S
C1257 C1256 1.391 . S
C1258 H1248 0.950 . S
C1258 C1259 1.386 . S
C1258 C1260 1.391 . S
C1259 C1258 1.386 . S
C1259 C1263 1.393 . S
C1260 H1249 0.950 . S
C1260 C1258 1.391 . S
C1260 C1261 1.400 . S
C1261 C1255 1.491 . S
C1261 C1260 1.400 . S
C1261 C1262 1.398 . S
C1262 H1250 0.950 . S
C1262 C1261 1.398 . S
C1262 C1263 1.391 . S
C1263 H1251 0.950 . S
C1263 C1259 1.393 . S
C1263 C1262 1.391 . S
H1264 C1272 0.950 . S
H1265 C1277 0.950 . S
H1266 C1274 0.950 1_655 S
H1267 C1276 0.950 1_655 S
H1268 C1278 0.950 . S
H1269 C1280 0.950 . S
H1270 C1282 0.950 . S
H1271 C1283 0.950 . S
C1272 H1264 0.950 . S
C1272 C1273 1.386 . S
C1272 C1274 1.391 . S
C1273 C1272 1.386 . S
C1273 C1277 1.393 . S
C1274 H1266 0.950 1_455 S
C1274 C1272 1.391 . S
C1274 C1275 1.400 1_455 S
C1275 C1274 1.400 1_655 S
C1275 C1276 1.398 1_655 S
C1275 C1281 1.491 . S
C1276 H1267 0.950 1_455 S
C1276 C1275 1.398 1_455 S
C1276 C1277 1.391 . S
C1277 H1265 0.950 . S
C1277 C1273 1.393 . S
C1277 C1276 1.391 . S
C1278 H1268 0.950 . S
C1278 C1279 1.386 . S
C1278 C1280 1.391 . S
C1279 C1278 1.386 . S
C1279 C1283 1.393 . S
C1280 H1269 0.950 . S
C1280 C1278 1.391 . S
C1280 C1281 1.400 . S
C1281 C1275 1.491 . S
C1281 C1280 1.400 . S
C1281 C1282 1.398 . S
C1282 H1270 0.950 . S
C1282 C1281 1.398 . S
C1282 C1283 1.391 . S
C1283 H1271 0.950 . S
C1283 C1279 1.393 . S
C1283 C1282 1.391 . S
H1284 C1292 0.950 . S
H1285 C1297 0.950 . S
H1286 C1294 0.950 . S
H1287 C1296 0.950 . S
H1288 C1298 0.950 . S
H1289 C1300 0.950 . S
H1290 C1302 0.950 . S
H1291 C1303 0.950 . S
C1292 H1284 0.950 . S
C1292 C1293 1.386 . S
C1292 C1294 1.391 . S
C1293 C1292 1.386 . S
C1293 C1297 1.393 . S
C1294 H1286 0.950 . S
C1294 C1292 1.391 . S
C1294 C1295 1.400 . S
C1295 C1294 1.400 . S
C1295 C1296 1.398 . S
C1295 C1301 1.491 . S
C1296 H1287 0.950 . S
C1296 C1295 1.398 . S
C1296 C1297 1.391 . S
C1297 H1285 0.950 . S
C1297 C1293 1.393 . S
C1297 C1296 1.391 . S
C1298 H1288 0.950 . S
C1298 C1299 1.386 . S
C1298 C1300 1.391 . S
C1299 C1298 1.386 . S
C1299 C1303 1.393 . S
C1300 H1289 0.950 . S
C1300 C1298 1.391 . S
C1300 C1301 1.400 . S
C1301 C1295 1.491 . S
C1301 C1300 1.400 . S
C1301 C1302 1.398 . S
C1302 H1290 0.950 . S
C1302 C1301 1.398 . S
C1302 C1303 1.391 . S
C1303 H1291 0.950 . S
C1303 C1299 1.393 . S
C1303 C1302 1.391 . S
H1304 C1312 0.950 . S
H1305 C1317 0.950 . S
H1306 C1314 0.950 . S
H1307 C1316 0.950 1_565 S
H1308 C1318 0.950 . S
H1309 C1320 0.950 . S
H1310 C1322 0.950 . S
H1311 C1323 0.950 . S
C1312 H1304 0.950 . S
C1312 C1313 1.386 . S
C1312 C1314 1.391 . S
C1313 C1312 1.386 . S
C1313 C1317 1.393 . S
C1314 H1306 0.950 . S
C1314 C1312 1.391 . S
C1314 C1315 1.400 1_545 S
C1315 C1314 1.400 1_565 S
C1315 C1316 1.398 1_565 S
C1315 C1321 1.491 . S
C1316 H1307 0.950 1_545 S
C1316 C1315 1.398 1_545 S
C1316 C1317 1.391 . S
C1317 H1305 0.950 . S
C1317 C1313 1.393 . S
C1317 C1316 1.391 . S
C1318 H1308 0.950 . S
C1318 C1319 1.386 . S
C1318 C1320 1.391 . S
C1319 C1318 1.386 . S
C1319 C1323 1.393 . S
C1320 H1309 0.950 . S
C1320 C1318 1.391 . S
C1320 C1321 1.400 . S
C1321 C1315 1.491 . S
C1321 C1320 1.400 . S
C1321 C1322 1.398 . S
C1322 H1310 0.950 . S
C1322 C1321 1.398 . S
C1322 C1323 1.391 . S
C1323 H1311 0.950 . S
C1323 C1319 1.393 . S
C1323 C1322 1.391 . S
H1324 C1332 0.950 . S
H1325 C1337 0.950 . S
H1326 C1334 0.950 1_455 S
H1327 C1336 0.950 1_455 S
H1328 C1338 0.950 . S
H1329 C1340 0.950 . S
H1330 C1342 0.950 . S
H1331 C1343 0.950 . S
C1332 H1324 0.950 . S
C1332 C1333 1.386 . S
C1332 C1334 1.391 . S
C1333 C1332 1.386 . S
C1333 C1337 1.393 . S
C1334 H1326 0.950 1_655 S
C1334 C1332 1.391 . S
C1334 C1335 1.400 1_655 S
C1335 C1334 1.400 1_455 S
C1335 C1336 1.398 1_455 S
C1335 C1341 1.491 . S
C1336 H1327 0.950 1_655 S
C1336 C1335 1.398 1_655 S
C1336 C1337 1.391 . S
C1337 H1325 0.950 . S
C1337 C1333 1.393 . S
C1337 C1336 1.391 . S
C1338 H1328 0.950 . S
C1338 C1339 1.386 . S
C1338 C1340 1.391 . S
C1339 C1338 1.386 . S
C1339 C1343 1.393 . S
C1340 H1329 0.950 . S
C1340 C1338 1.391 . S
C1340 C1341 1.400 . S
C1341 C1335 1.491 . S
C1341 C1340 1.400 . S
C1341 C1342 1.398 . S
C1342 H1330 0.950 . S
C1342 C1341 1.398 . S
C1342 C1343 1.391 . S
C1343 H1331 0.950 . S
C1343 C1339 1.393 . S
C1343 C1342 1.391 . S
H1344 C1352 0.950 . S
H1345 C1357 0.950 . S
H1346 C1354 0.950 . S
H1347 C1356 0.950 . S
H1348 C1358 0.950 . S
H1349 C1360 0.950 . S
H1350 C1362 0.950 . S
H1351 C1363 0.950 . S
C1352 H1344 0.950 . S
C1352 C1353 1.386 . S
C1352 C1354 1.391 . S
C1353 C1352 1.386 . S
C1353 C1357 1.393 . S
C1354 H1346 0.950 . S
C1354 C1352 1.391 . S
C1354 C1355 1.400 . S
C1355 C1354 1.400 . S
C1355 C1356 1.398 . S
C1355 C1361 1.491 . S
C1356 H1347 0.950 . S
C1356 C1355 1.398 . S
C1356 C1357 1.391 . S
C1357 H1345 0.950 . S
C1357 C1353 1.393 . S
C1357 C1356 1.391 . S
C1358 H1348 0.950 . S
C1358 C1359 1.386 . S
C1358 C1360 1.391 . S
C1359 C1358 1.386 . S
C1359 C1363 1.393 . S
C1360 H1349 0.950 . S
C1360 C1358 1.391 . S
C1360 C1361 1.400 . S
C1361 C1355 1.491 . S
C1361 C1360 1.400 . S
C1361 C1362 1.398 . S
C1362 H1350 0.950 . S
C1362 C1361 1.398 . S
C1362 C1363 1.391 . S
C1363 H1351 0.950 . S
C1363 C1359 1.393 . S
C1363 C1362 1.391 . S
H1364 C1372 0.950 . S
H1365 C1377 0.950 . S
H1366 C1374 0.950 . S
H1367 C1376 0.950 . S
H1368 C1378 0.950 . S
H1369 C1380 0.950 1_565 S
H1370 C1382 0.950 . S
H1371 C1383 0.950 . S
C1372 H1364 0.950 . S
C1372 C1373 1.386 . S
C1372 C1374 1.391 . S
C1373 C1372 1.386 . S
C1373 C1377 1.393 . S
C1374 H1366 0.950 . S
C1374 C1372 1.391 . S
C1374 C1375 1.400 . S
C1375 C1374 1.400 . S
C1375 C1376 1.398 . S
C1375 C1381 1.491 . S
C1376 H1367 0.950 . S
C1376 C1375 1.398 . S
C1376 C1377 1.391 . S
C1377 H1365 0.950 . S
C1377 C1373 1.393 . S
C1377 C1376 1.391 . S
C1378 H1368 0.950 . S
C1378 C1379 1.386 . S
C1378 C1380 1.391 . S
C1379 C1378 1.386 . S
C1379 C1383 1.393 . S
C1380 H1369 0.950 1_545 S
C1380 C1378 1.391 . S
C1380 C1381 1.400 1_545 S
C1381 C1375 1.491 . S
C1381 C1380 1.400 1_565 S
C1381 C1382 1.398 1_565 S
C1382 H1370 0.950 . S
C1382 C1381 1.398 1_545 S
C1382 C1383 1.391 . S
C1383 H1371 0.950 . S
C1383 C1379 1.393 . S
C1383 C1382 1.391 . S
H1384 C1392 0.950 . S
H1385 C1397 0.950 . S
H1386 C1394 0.950 . S
H1387 C1396 0.950 . S
H1388 C1398 0.950 . S
H1389 C1400 0.950 . S
H1390 C1402 0.934 1_455 S
H1391 C1403 0.950 . S
C1392 H1384 0.950 . S
C1392 C1393 1.386 . S
C1392 C1394 1.391 . S
C1393 C1392 1.386 . S
C1393 C1397 1.393 . S
C1394 H1386 0.950 . S
C1394 C1392 1.391 . S
C1394 C1395 1.400 . S
C1395 C1394 1.400 . S
C1395 C1396 1.398 . S
C1395 C1401 1.491 . S
C1396 H1387 0.950 . S
C1396 C1395 1.398 . S
C1396 C1397 1.391 . S
C1397 H1385 0.950 . S
C1397 C1393 1.393 . S
C1397 C1396 1.391 . S
C1398 H1388 0.950 . S
C1398 C1399 1.386 . S
C1398 C1400 1.391 . S
C1399 C1398 1.386 . S
C1399 C1403 1.393 . S
C1400 H1389 0.950 . S
C1400 C1398 1.391 . S
C1400 C1401 1.400 1_655 S
C1401 C1395 1.491 . S
C1401 C1400 1.400 1_455 S
C1401 C1402 1.373 1_455 S
C1402 H1390 0.934 1_655 S
C1402 C1401 1.373 1_655 S
C1402 C1403 1.434 . S
C1403 H1391 0.950 . S
C1403 C1399 1.393 . S
C1403 C1402 1.434 . S
H1404 C1412 0.950 . S
H1405 C1417 0.950 . S
H1406 C1414 0.950 . S
H1407 C1416 0.950 . S
H1408 C1418 0.950 . S
H1409 C1420 0.950 . S
H1410 C1422 0.950 . S
H1411 C1423 0.950 . S
C1412 H1404 0.950 . S
C1412 C1413 1.386 . S
C1412 C1414 1.391 . S
C1413 C1412 1.386 . S
C1413 C1417 1.393 . S
C1414 H1406 0.950 . S
C1414 C1412 1.391 . S
C1414 C1415 1.400 . S
C1415 C1414 1.400 . S
C1415 C1416 1.398 . S
C1415 C1421 1.491 . S
C1416 H1407 0.950 . S
C1416 C1415 1.398 . S
C1416 C1417 1.391 . S
C1417 H1405 0.950 . S
C1417 C1413 1.393 . S
C1417 C1416 1.391 . S
C1418 H1408 0.950 . S
C1418 C1419 1.386 . S
C1418 C1420 1.391 . S
C1419 C1418 1.386 . S
C1419 C1423 1.393 . S
C1420 H1409 0.950 . S
C1420 C1418 1.391 . S
C1420 C1421 1.400 . S
C1421 C1415 1.491 . S
C1421 C1420 1.400 . S
C1421 C1422 1.398 . S
C1422 H1410 0.950 . S
C1422 C1421 1.398 . S
C1422 C1423 1.391 . S
C1423 H1411 0.950 . S
C1423 C1419 1.393 . S
C1423 C1422 1.391 . S
H1424 C1432 0.950 . S
H1425 C1437 0.950 . S
H1426 C1434 0.950 1_545 S
H1427 C1436 0.950 1_545 S
H1428 C1438 0.950 . S
H1429 C1440 0.950 . S
H1430 C1442 0.950 . S
H1431 C1443 0.950 . S
C1432 H1424 0.950 . S
C1432 C1433 1.386 . S
C1432 C1434 1.391 . S
C1433 C1432 1.386 . S
C1433 C1437 1.393 . S
C1434 H1426 0.950 1_565 S
C1434 C1432 1.391 . S
C1434 C1435 1.400 1_565 S
C1435 C1434 1.400 1_545 S
C1435 C1436 1.398 1_545 S
C1435 C1441 1.491 . S
C1436 H1427 0.950 1_565 S
C1436 C1435 1.398 1_565 S
C1436 C1437 1.391 . S
C1437 H1425 0.950 . S
C1437 C1433 1.393 . S
C1437 C1436 1.391 . S
C1438 H1428 0.950 . S
C1438 C1439 1.386 . S
C1438 C1440 1.391 . S
C1439 C1438 1.386 . S
C1439 C1443 1.393 . S
C1440 H1429 0.950 . S
C1440 C1438 1.391 . S
C1440 C1441 1.400 . S
C1441 C1435 1.491 . S
C1441 C1440 1.400 . S
C1441 C1442 1.398 . S
C1442 H1430 0.950 . S
C1442 C1441 1.398 . S
C1442 C1443 1.391 . S
C1443 H1431 0.950 . S
C1443 C1439 1.393 . S
C1443 C1442 1.391 . S
H1444 C1452 0.950 . S
H1445 C1457 0.950 . S
H1446 C1454 0.950 . S
H1447 C1456 0.950 . S
H1448 C1458 0.950 . S
H1449 C1460 0.950 . S
H1450 C1462 0.950 1_655 S
H1451 C1463 0.950 . S
C1452 H1444 0.950 . S
C1452 C1453 1.386 . S
C1452 C1454 1.391 . S
C1453 C1452 1.386 . S
C1453 C1457 1.393 . S
C1454 H1446 0.950 . S
C1454 C1452 1.391 . S
C1454 C1455 1.400 . S
C1455 C1454 1.400 . S
C1455 C1456 1.398 . S
C1455 C1461 1.491 . S
C1456 H1447 0.950 . S
C1456 C1455 1.398 . S
C1456 C1457 1.391 . S
C1457 H1445 0.950 . S
C1457 C1453 1.393 . S
C1457 C1456 1.391 . S
C1458 H1448 0.950 . S
C1458 C1459 1.386 . S
C1458 C1460 1.391 . S
C1459 C1458 1.386 . S
C1459 C1463 1.393 . S
C1460 H1449 0.950 . S
C1460 C1458 1.391 . S
C1460 C1461 1.400 1_455 S
C1461 C1455 1.491 . S
C1461 C1460 1.400 1_655 S
C1461 C1462 1.398 1_655 S
C1462 H1450 0.950 1_455 S
C1462 C1461 1.398 1_455 S
C1462 C1463 1.391 . S
C1463 H1451 0.950 . S
C1463 C1459 1.393 . S
C1463 C1462 1.391 . S
H1464 C1472 0.950 . S
H1465 C1477 0.950 . S
H1466 C1474 0.950 . S
H1467 C1476 0.950 . S
H1468 C1478 0.950 . S
H1469 C1480 0.950 . S
H1470 C1482 0.950 . S
H1471 C1483 0.950 . S
C1472 H1464 0.950 . S
C1472 C1473 1.386 . S
C1472 C1474 1.391 . S
C1473 C1472 1.386 . S
C1473 C1477 1.393 . S
C1474 H1466 0.950 . S
C1474 C1472 1.391 . S
C1474 C1475 1.400 . S
C1475 C1474 1.400 . S
C1475 C1476 1.398 . S
C1475 C1481 1.491 . S
C1476 H1467 0.950 . S
C1476 C1475 1.398 . S
C1476 C1477 1.391 . S
C1477 H1465 0.950 . S
C1477 C1473 1.393 . S
C1477 C1476 1.391 . S
C1478 H1468 0.950 . S
C1478 C1479 1.386 . S
C1478 C1480 1.391 . S
C1479 C1478 1.386 . S
C1479 C1483 1.393 . S
C1480 H1469 0.950 . S
C1480 C1478 1.391 . S
C1480 C1481 1.400 . S
C1481 C1475 1.491 . S
C1481 C1480 1.400 . S
C1481 C1482 1.398 . S
C1482 H1470 0.950 . S
C1482 C1481 1.398 . S
C1482 C1483 1.391 . S
C1483 H1471 0.950 . S
C1483 C1479 1.393 . S
C1483 C1482 1.391 . S
H1484 C1492 0.950 . S
H1485 C1497 0.950 . S
H1486 C1494 0.950 . S
H1487 C1496 0.950 . S
H1488 C1498 0.950 . S
H1489 C1500 0.950 . S
H1490 C1502 0.950 . S
H1491 C1503 0.950 . S
C1492 H1484 0.950 . S
C1492 C1493 1.386 . S
C1492 C1494 1.391 . S
C1493 C1492 1.386 . S
C1493 C1497 1.393 . S
C1494 H1486 0.950 . S
C1494 C1492 1.391 . S
C1494 C1495 1.400 . S
C1495 C1494 1.400 . S
C1495 C1496 1.398 . S
C1495 C1501 1.491 . S
C1496 H1487 0.950 . S
C1496 C1495 1.398 . S
C1496 C1497 1.391 . S
C1497 H1485 0.950 . S
C1497 C1493 1.393 . S
C1497 C1496 1.391 . S
C1498 H1488 0.950 . S
C1498 C1499 1.386 . S
C1498 C1500 1.391 . S
C1499 C1498 1.386 . S
C1499 C1503 1.393 . S
C1500 H1489 0.950 . S
C1500 C1498 1.391 . S
C1500 C1501 1.400 . S
C1501 C1495 1.491 . S
C1501 C1500 1.400 . S
C1501 C1502 1.398 . S
C1502 H1490 0.950 . S
C1502 C1501 1.398 . S
C1502 C1503 1.391 . S
C1503 H1491 0.950 . S
C1503 C1499 1.393 . S
C1503 C1502 1.391 . S
H1504 C1512 0.950 . S
H1505 C1517 0.950 . S
H1506 C1514 0.950 . S
H1507 C1516 0.950 . S
H1508 C1518 0.950 . S
H1509 C1520 0.950 . S
H1510 C1522 0.950 . S
H1511 C1523 0.950 . S
C1512 H1504 0.950 . S
C1512 C1513 1.386 . S
C1512 C1514 1.391 . S
C1513 C1512 1.386 . S
C1513 C1517 1.393 . S
C1514 H1506 0.950 . S
C1514 C1512 1.391 . S
C1514 C1515 1.400 . S
C1515 C1514 1.400 . S
C1515 C1516 1.398 . S
C1515 C1521 1.491 . S
C1516 H1507 0.950 . S
C1516 C1515 1.398 . S
C1516 C1517 1.391 . S
C1517 H1505 0.950 . S
C1517 C1513 1.393 . S
C1517 C1516 1.391 . S
C1518 H1508 0.950 . S
C1518 C1519 1.386 . S
C1518 C1520 1.391 . S
C1519 C1518 1.386 . S
C1519 C1523 1.393 . S
C1520 H1509 0.950 . S
C1520 C1518 1.391 . S
C1520 C1521 1.400 . S
C1521 C1515 1.491 . S
C1521 C1520 1.400 . S
C1521 C1522 1.398 . S
C1522 H1510 0.950 . S
C1522 C1521 1.398 . S
C1522 C1523 1.391 . S
C1523 H1511 0.950 . S
C1523 C1519 1.393 . S
C1523 C1522 1.391 . S
H1524 C1532 0.950 . S
H1525 C1537 0.950 . S
H1526 C1534 0.950 . S
H1527 C1536 0.950 . S
H1528 C1538 0.950 . S
H1529 C1540 0.950 . S
H1530 C1542 0.950 . S
H1531 C1543 0.950 . S
C1532 H1524 0.950 . S
C1532 C1533 1.386 . S
C1532 C1534 1.391 . S
C1533 C1532 1.386 . S
C1533 C1537 1.393 . S
C1534 H1526 0.950 . S
C1534 C1532 1.391 . S
C1534 C1535 1.400 . S
C1535 C1534 1.400 . S
C1535 C1536 1.398 . S
C1535 C1541 1.491 . S
C1536 H1527 0.950 . S
C1536 C1535 1.398 . S
C1536 C1537 1.391 . S
C1537 H1525 0.950 . S
C1537 C1533 1.393 . S
C1537 C1536 1.391 . S
C1538 H1528 0.950 . S
C1538 C1539 1.386 . S
C1538 C1540 1.391 . S
C1539 C1538 1.386 . S
C1539 C1543 1.393 . S
C1540 H1529 0.950 . S
C1540 C1538 1.391 . S
C1540 C1541 1.400 . S
C1541 C1535 1.491 . S
C1541 C1540 1.400 . S
C1541 C1542 1.398 . S
C1542 H1530 0.950 . S
C1542 C1541 1.398 . S
C1542 C1543 1.391 . S
C1543 H1531 0.950 . S
C1543 C1539 1.393 . S
C1543 C1542 1.391 . S
H1544 C1552 0.950 . S
H1545 C1557 0.950 . S
H1546 C1554 0.950 . S
H1547 C1556 0.950 . S
H1548 C1558 0.950 . S
H1549 C1560 0.950 . S
H1550 C1562 0.950 . S
H1551 C1563 0.950 . S
C1552 H1544 0.950 . S
C1552 C1553 1.386 . S
C1552 C1554 1.391 . S
C1553 C1552 1.386 . S
C1553 C1557 1.393 . S
C1554 H1546 0.950 . S
C1554 C1552 1.391 . S
C1554 C1555 1.400 . S
C1555 C1554 1.400 . S
C1555 C1556 1.398 . S
C1555 C1561 1.491 . S
C1556 H1547 0.950 . S
C1556 C1555 1.398 . S
C1556 C1557 1.391 . S
C1557 H1545 0.950 . S
C1557 C1553 1.393 . S
C1557 C1556 1.391 . S
C1558 H1548 0.950 . S
C1558 C1559 1.386 . S
C1558 C1560 1.391 . S
C1559 C1558 1.386 . S
C1559 C1563 1.393 . S
C1560 H1549 0.950 . S
C1560 C1558 1.391 . S
C1560 C1561 1.400 . S
C1561 C1555 1.491 . S
C1561 C1560 1.400 . S
C1561 C1562 1.398 . S
C1562 H1550 0.950 . S
C1562 C1561 1.398 . S
C1562 C1563 1.391 . S
C1563 H1551 0.950 . S
C1563 C1559 1.393 . S
C1563 C1562 1.391 . S
H1564 C1572 0.950 . S
H1565 C1577 0.950 . S
H1566 C1574 0.950 . S
H1567 C1576 0.950 . S
H1568 C1578 0.950 . S
H1569 C1580 0.950 . S
H1570 C1582 0.950 . S
H1571 C1583 0.950 . S
C1572 H1564 0.950 . S
C1572 C1573 1.386 . S
C1572 C1574 1.391 . S
C1573 C1572 1.386 . S
C1573 C1577 1.393 . S
C1574 H1566 0.950 . S
C1574 C1572 1.391 . S
C1574 C1575 1.400 . S
C1575 C1574 1.400 . S
C1575 C1576 1.398 . S
C1575 C1581 1.491 . S
C1576 H1567 0.950 . S
C1576 C1575 1.398 . S
C1576 C1577 1.391 . S
C1577 H1565 0.950 . S
C1577 C1573 1.393 . S
C1577 C1576 1.391 . S
C1578 H1568 0.950 . S
C1578 C1579 1.386 . S
C1578 C1580 1.391 . S
C1579 C1578 1.386 . S
C1579 C1583 1.393 . S
C1580 H1569 0.950 . S
C1580 C1578 1.391 . S
C1580 C1581 1.400 . S
C1581 C1575 1.491 . S
C1581 C1580 1.400 . S
C1581 C1582 1.398 . S
C1582 H1570 0.950 . S
C1582 C1581 1.398 . S
C1582 C1583 1.391 . S
C1583 H1571 0.950 . S
C1583 C1579 1.393 . S
C1583 C1582 1.391 . S
H1584 C1592 0.950 . S
H1585 C1597 0.950 . S
H1586 C1594 0.950 . S
H1587 C1596 0.950 . S
H1588 C1598 0.950 . S
H1589 C1600 0.950 . S
H1590 C1602 0.950 . S
H1591 C1603 0.950 . S
C1592 H1584 0.950 . S
C1592 C1593 1.386 . S
C1592 C1594 1.391 . S
C1593 C1592 1.386 . S
C1593 C1597 1.393 . S
C1594 H1586 0.950 . S
C1594 C1592 1.391 . S
C1594 C1595 1.400 . S
C1595 C1594 1.400 . S
C1595 C1596 1.398 . S
C1595 C1601 1.491 . S
C1596 H1587 0.950 . S
C1596 C1595 1.398 . S
C1596 C1597 1.391 . S
C1597 H1585 0.950 . S
C1597 C1593 1.393 . S
C1597 C1596 1.391 . S
C1598 H1588 0.950 . S
C1598 C1599 1.386 . S
C1598 C1600 1.391 . S
C1599 C1598 1.386 . S
C1599 C1603 1.393 . S
C1600 H1589 0.950 . S
C1600 C1598 1.391 . S
C1600 C1601 1.400 . S
C1601 C1595 1.491 . S
C1601 C1600 1.400 . S
C1601 C1602 1.398 . S
C1602 H1590 0.950 . S
C1602 C1601 1.398 . S
C1602 C1603 1.391 . S
C1603 H1591 0.950 . S
C1603 C1599 1.393 . S
C1603 C1602 1.391 . S
H1604 C1612 0.950 . S
H1605 C1617 0.950 . S
H1606 C1614 0.950 . S
H1607 C1616 0.950 . S
H1608 C1618 0.950 . S
H1609 C1620 0.950 . S
H1610 C1622 0.950 . S
H1611 C1623 0.950 . S
C1612 H1604 0.950 . S
C1612 C1613 1.386 . S
C1612 C1614 1.391 . S
C1613 C1612 1.386 . S
C1613 C1617 1.393 . S
C1614 H1606 0.950 . S
C1614 C1612 1.391 . S
C1614 C1615 1.400 . S
C1615 C1614 1.400 . S
C1615 C1616 1.398 . S
C1615 C1621 1.491 . S
C1616 H1607 0.950 . S
C1616 C1615 1.398 . S
C1616 C1617 1.391 . S
C1617 H1605 0.950 . S
C1617 C1613 1.393 . S
C1617 C1616 1.391 . S
C1618 H1608 0.950 . S
C1618 C1619 1.386 . S
C1618 C1620 1.391 . S
C1619 C1618 1.386 . S
C1619 C1623 1.393 . S
C1620 H1609 0.950 . S
C1620 C1618 1.391 . S
C1620 C1621 1.400 . S
C1621 C1615 1.491 . S
C1621 C1620 1.400 . S
C1621 C1622 1.398 . S
C1622 H1610 0.950 . S
C1622 C1621 1.398 . S
C1622 C1623 1.391 . S
C1623 H1611 0.950 . S
C1623 C1619 1.393 . S
C1623 C1622 1.391 . S
H1624 C1632 0.950 . S
H1625 C1637 0.950 . S
H1626 C1634 0.950 . S
H1627 C1636 0.950 . S
H1628 C1638 0.950 . S
H1629 C1640 0.950 . S
H1630 C1642 0.950 . S
H1631 C1643 0.950 . S
C1632 H1624 0.950 . S
C1632 C1633 1.386 . S
C1632 C1634 1.391 . S
C1633 C1632 1.386 . S
C1633 C1637 1.393 . S
C1634 H1626 0.950 . S
C1634 C1632 1.391 . S
C1634 C1635 1.400 . S
C1635 C1634 1.400 . S
C1635 C1636 1.398 . S
C1635 C1641 1.491 . S
C1636 H1627 0.950 . S
C1636 C1635 1.398 . S
C1636 C1637 1.391 . S
C1637 H1625 0.950 . S
C1637 C1633 1.393 . S
C1637 C1636 1.391 . S
C1638 H1628 0.950 . S
C1638 C1639 1.386 . S
C1638 C1640 1.391 . S
C1639 C1638 1.386 . S
C1639 C1643 1.393 . S
C1640 H1629 0.950 . S
C1640 C1638 1.391 . S
C1640 C1641 1.400 . S
C1641 C1635 1.491 . S
C1641 C1640 1.400 . S
C1641 C1642 1.398 . S
C1642 H1630 0.950 . S
C1642 C1641 1.398 . S
C1642 C1643 1.391 . S
C1643 H1631 0.950 . S
C1643 C1639 1.393 . S
C1643 C1642 1.391 . S
H1644 C1652 0.950 . S
H1645 C1657 0.950 . S
H1646 C1654 0.950 . S
H1647 C1656 0.950 . S
H1648 C1658 0.950 . S
H1649 C1660 0.950 . S
H1650 C1662 0.950 . S
H1651 C1663 0.950 . S
C1652 H1644 0.950 . S
C1652 C1653 1.386 . S
C1652 C1654 1.391 . S
C1653 C1652 1.386 . S
C1653 C1657 1.393 . S
C1654 H1646 0.950 . S
C1654 C1652 1.391 . S
C1654 C1655 1.400 . S
C1655 C1654 1.400 . S
C1655 C1656 1.398 . S
C1655 C1661 1.491 . S
C1656 H1647 0.950 . S
C1656 C1655 1.398 . S
C1656 C1657 1.391 . S
C1657 H1645 0.950 . S
C1657 C1653 1.393 . S
C1657 C1656 1.391 . S
C1658 H1648 0.950 . S
C1658 C1659 1.386 . S
C1658 C1660 1.391 . S
C1659 C1658 1.386 . S
C1659 C1663 1.393 . S
C1660 H1649 0.950 . S
C1660 C1658 1.391 . S
C1660 C1661 1.400 . S
C1661 C1655 1.491 . S
C1661 C1660 1.400 . S
C1661 C1662 1.398 . S
C1662 H1650 0.950 . S
C1662 C1661 1.398 . S
C1662 C1663 1.391 . S
C1663 H1651 0.950 . S
C1663 C1659 1.393 . S
C1663 C1662 1.391 . S
H1664 C1672 0.950 . S
H1665 C1677 0.950 . S
H1666 C1674 0.950 . S
H1667 C1676 0.950 . S
H1668 C1678 0.950 . S
H1669 C1680 0.950 . S
H1670 C1682 0.950 . S
H1671 C1683 0.950 . S
C1672 H1664 0.950 . S
C1672 C1673 1.386 . S
C1672 C1674 1.391 . S
C1673 C1672 1.386 . S
C1673 C1677 1.393 . S
C1674 H1666 0.950 . S
C1674 C1672 1.391 . S
C1674 C1675 1.400 . S
C1675 C1674 1.400 . S
C1675 C1676 1.398 . S
C1675 C1681 1.491 . S
C1676 H1667 0.950 . S
C1676 C1675 1.398 . S
C1676 C1677 1.391 . S
C1677 H1665 0.950 . S
C1677 C1673 1.393 . S
C1677 C1676 1.391 . S
C1678 H1668 0.950 . S
C1678 C1679 1.386 . S
C1678 C1680 1.391 . S
C1679 C1678 1.386 . S
C1679 C1683 1.393 . S
C1680 H1669 0.950 . S
C1680 C1678 1.391 . S
C1680 C1681 1.400 . S
C1681 C1675 1.491 . S
C1681 C1680 1.400 . S
C1681 C1682 1.398 . S
C1682 H1670 0.950 . S
C1682 C1681 1.398 . S
C1682 C1683 1.391 . S
C1683 H1671 0.950 . S
C1683 C1679 1.393 . S
C1683 C1682 1.391 . S
H1684 C1692 0.950 . S
H1685 C1697 0.950 . S
H1686 C1694 0.950 . S
H1687 C1696 0.950 . S
H1688 C1698 0.950 1_554 S
H1689 C1700 0.950 . S
H1690 C1702 0.950 . S
H1691 C1703 0.950 . S
C1692 H1684 0.950 . S
C1692 C1693 1.386 . S
C1692 C1694 1.391 . S
C1693 C1692 1.386 . S
C1693 C1697 1.393 . S
C1694 H1686 0.950 . S
C1694 C1692 1.391 . S
C1694 C1695 1.400 . S
C1695 C1694 1.400 . S
C1695 C1696 1.398 . S
C1695 C1701 1.491 . S
C1696 H1687 0.950 . S
C1696 C1695 1.398 . S
C1696 C1697 1.391 . S
C1697 H1685 0.950 . S
C1697 C1693 1.393 . S
C1697 C1696 1.391 . S
C1698 H1688 0.950 1_556 S
C1698 C1699 1.386 . S
C1698 C1700 1.391 . S
C1699 C1698 1.386 . S
C1699 C1703 1.393 . S
C1700 H1689 0.950 . S
C1700 C1698 1.391 . S
C1700 C1701 1.400 . S
C1701 C1695 1.491 . S
C1701 C1700 1.400 . S
C1701 C1702 1.398 . S
C1702 H1690 0.950 . S
C1702 C1701 1.398 . S
C1702 C1703 1.391 . S
C1703 H1691 0.950 . S
C1703 C1699 1.393 . S
C1703 C1702 1.391 . S
H1704 C1712 0.950 . S
H1705 C1717 0.950 . S
H1706 C1714 0.950 . S
H1707 C1716 0.950 . S
H1708 C1718 0.950 . S
H1709 C1720 0.950 . S
H1710 C1722 0.950 . S
H1711 C1723 0.950 . S
C1712 H1704 0.950 . S
C1712 C1713 1.386 . S
C1712 C1714 1.391 . S
C1713 C1712 1.386 . S
C1713 C1717 1.393 . S
C1714 H1706 0.950 . S
C1714 C1712 1.391 . S
C1714 C1715 1.400 . S
C1715 C1714 1.400 . S
C1715 C1716 1.398 . S
C1715 C1721 1.491 . S
C1716 H1707 0.950 . S
C1716 C1715 1.398 . S
C1716 C1717 1.391 . S
C1717 H1705 0.950 . S
C1717 C1713 1.393 . S
C1717 C1716 1.391 . S
C1718 H1708 0.950 . S
C1718 C1719 1.386 . S
C1718 C1720 1.391 . S
C1719 C1718 1.386 . S
C1719 C1723 1.393 . S
C1720 H1709 0.950 . S
C1720 C1718 1.391 . S
C1720 C1721 1.400 . S
C1721 C1715 1.491 . S
C1721 C1720 1.400 . S
C1721 C1722 1.398 . S
C1722 H1710 0.950 . S
C1722 C1721 1.398 . S
C1722 C1723 1.391 . S
C1723 H1711 0.950 . S
C1723 C1719 1.393 . S
C1723 C1722 1.391 . S
H1724 C1732 0.950 . S
H1725 C1737 0.950 . S
H1726 C1734 0.950 . S
H1727 C1736 0.950 . S
H1728 C1738 0.950 . S
H1729 C1740 0.950 . S
H1730 C1742 0.950 . S
H1731 C1743 0.950 . S
C1732 H1724 0.950 . S
C1732 C1733 1.386 . S
C1732 C1734 1.391 . S
C1733 C1732 1.386 . S
C1733 C1737 1.393 . S
C1734 H1726 0.950 . S
C1734 C1732 1.391 . S
C1734 C1735 1.400 . S
C1735 C1734 1.400 . S
C1735 C1736 1.398 . S
C1735 C1741 1.491 . S
C1736 H1727 0.950 . S
C1736 C1735 1.398 . S
C1736 C1737 1.391 . S
C1737 H1725 0.950 . S
C1737 C1733 1.393 . S
C1737 C1736 1.391 . S
C1738 H1728 0.950 . S
C1738 C1739 1.386 . S
C1738 C1740 1.391 . S
C1739 C1738 1.386 . S
C1739 C1743 1.393 . S
C1740 H1729 0.950 . S
C1740 C1738 1.391 . S
C1740 C1741 1.400 . S
C1741 C1735 1.491 . S
C1741 C1740 1.400 . S
C1741 C1742 1.398 . S
C1742 H1730 0.950 . S
C1742 C1741 1.398 . S
C1742 C1743 1.391 . S
C1743 H1731 0.950 . S
C1743 C1739 1.393 . S
C1743 C1742 1.391 . S
H1744 C1752 0.950 . S
H1745 C1757 0.950 . S
H1746 C1754 0.950 . S
H1747 C1756 0.950 . S
H1748 C1758 0.950 . S
H1749 C1760 0.950 . S
H1750 C1762 0.950 . S
H1751 C1763 0.950 . S
C1752 H1744 0.950 . S
C1752 C1753 1.386 . S
C1752 C1754 1.391 . S
C1753 C1752 1.386 . S
C1753 C1757 1.393 . S
C1754 H1746 0.950 . S
C1754 C1752 1.391 . S
C1754 C1755 1.400 . S
C1755 C1754 1.400 . S
C1755 C1756 1.398 . S
C1755 C1761 1.491 . S
C1756 H1747 0.950 . S
C1756 C1755 1.398 . S
C1756 C1757 1.391 . S
C1757 H1745 0.950 . S
C1757 C1753 1.393 . S
C1757 C1756 1.391 . S
C1758 H1748 0.950 . S
C1758 C1759 1.386 . S
C1758 C1760 1.391 . S
C1759 C1758 1.386 . S
C1759 C1763 1.393 . S
C1760 H1749 0.950 . S
C1760 C1758 1.391 . S
C1760 C1761 1.400 . S
C1761 C1755 1.491 . S
C1761 C1760 1.400 . S
C1761 C1762 1.398 . S
C1762 H1750 0.950 . S
C1762 C1761 1.398 . S
C1762 C1763 1.391 . S
C1763 H1751 0.950 . S
C1763 C1759 1.393 . S
C1763 C1762 1.391 . S
H1764 C1772 0.950 . S
H1765 C1777 0.944 . S
H1766 C1774 0.950 . S
H1767 C1776 0.950 . S
H1768 C1778 0.950 . S
H1769 C1780 0.950 . S
H1770 C1782 0.950 . S
H1771 C1783 0.950 . S
C1772 H1764 0.950 . S
C1772 C1773 1.386 . S
C1772 C1774 1.391 . S
C1773 C1772 1.386 . S
C1773 C1777 1.393 . S
C1774 H1766 0.950 . S
C1774 C1772 1.391 . S
C1774 C1775 1.400 . S
C1775 C1774 1.400 . S
C1775 C1776 1.398 . S
C1775 C1781 1.491 . S
C1776 H1767 0.950 . S
C1776 C1775 1.398 . S
C1776 C1777 1.391 . S
C1777 H1765 0.944 . S
C1777 C1773 1.393 . S
C1777 C1776 1.391 . S
C1778 H1768 0.950 . S
C1778 C1779 1.386 . S
C1778 C1780 1.391 . S
C1779 C1778 1.386 . S
C1779 C1783 1.393 . S
C1780 H1769 0.950 . S
C1780 C1778 1.391 . S
C1780 C1781 1.400 . S
C1781 C1775 1.491 . S
C1781 C1780 1.400 . S
C1781 C1782 1.398 . S
C1782 H1770 0.950 . S
C1782 C1781 1.398 . S
C1782 C1783 1.391 . S
C1783 H1771 0.950 . S
C1783 C1779 1.393 . S
C1783 C1782 1.391 . S
H1784 C1792 0.950 . S
H1785 C1797 0.915 1_556 S
H1786 C1794 0.950 . S
H1787 C1796 0.950 . S
H1788 C1798 0.950 . S
H1789 C1800 0.950 . S
H1790 C1802 0.950 . S
H1791 C1803 0.950 . S
C1792 H1784 0.950 . S
C1792 C1793 1.386 . S
C1792 C1794 1.391 . S
C1793 C1792 1.386 . S
C1793 C1797 1.393 . S
C1794 H1786 0.950 . S
C1794 C1792 1.391 . S
C1794 C1795 1.400 . S
C1795 C1794 1.400 . S
C1795 C1796 1.398 . S
C1795 C1801 1.491 . S
C1796 H1787 0.950 . S
C1796 C1795 1.398 . S
C1796 C1797 1.391 . S
C1797 H1785 0.915 1_554 S
C1797 C1793 1.393 . S
C1797 C1796 1.391 . S
C1798 H1788 0.950 . S
C1798 C1799 1.386 . S
C1798 C1800 1.391 . S
C1799 C1798 1.386 . S
C1799 C1803 1.393 . S
C1800 H1789 0.950 . S
C1800 C1798 1.391 . S
C1800 C1801 1.400 . S
C1801 C1795 1.491 . S
C1801 C1800 1.400 . S
C1801 C1802 1.398 . S
C1802 H1790 0.950 . S
C1802 C1801 1.398 . S
C1802 C1803 1.391 . S
C1803 H1791 0.950 . S
C1803 C1799 1.393 . S
C1803 C1802 1.391 . S
H1804 C1812 0.950 . S
H1805 C1817 0.950 . S
H1806 C1814 0.950 . S
H1807 C1816 0.950 . S
H1808 C1818 0.950 . S
H1809 C1820 0.950 . S
H1810 C1822 0.950 . S
H1811 C1823 0.950 . S
C1812 H1804 0.950 . S
C1812 C1813 1.386 . S
C1812 C1814 1.391 . S
C1813 C1812 1.386 . S
C1813 C1817 1.393 . S
C1814 H1806 0.950 . S
C1814 C1812 1.391 . S
C1814 C1815 1.400 . S
C1815 C1814 1.400 . S
C1815 C1816 1.398 . S
C1815 C1821 1.491 . S
C1816 H1807 0.950 . S
C1816 C1815 1.398 . S
C1816 C1817 1.391 . S
C1817 H1805 0.950 . S
C1817 C1813 1.393 . S
C1817 C1816 1.391 . S
C1818 H1808 0.950 . S
C1818 C1819 1.386 . S
C1818 C1820 1.391 . S
C1819 C1818 1.386 . S
C1819 C1823 1.393 . S
C1820 H1809 0.950 . S
C1820 C1818 1.391 . S
C1820 C1821 1.400 . S
C1821 C1815 1.491 . S
C1821 C1820 1.400 . S
C1821 C1822 1.398 . S
C1822 H1810 0.950 . S
C1822 C1821 1.398 . S
C1822 C1823 1.391 . S
C1823 H1811 0.950 . S
C1823 C1819 1.393 . S
C1823 C1822 1.391 . S
H1824 C1832 0.950 . S
H1825 C1837 0.950 . S
H1826 C1834 0.950 . S
H1827 C1836 0.950 . S
H1828 C1838 0.950 . S
H1829 C1840 0.950 . S
H1830 C1842 0.950 . S
H1831 C1843 0.950 . S
C1832 H1824 0.950 . S
C1832 C1833 1.386 . S
C1832 C1834 1.391 . S
C1833 C1832 1.386 . S
C1833 C1837 1.393 . S
C1834 H1826 0.950 . S
C1834 C1832 1.391 . S
C1834 C1835 1.400 . S
C1835 C1834 1.400 . S
C1835 C1836 1.398 . S
C1835 C1841 1.491 . S
C1836 H1827 0.950 . S
C1836 C1835 1.398 . S
C1836 C1837 1.391 . S
C1837 H1825 0.950 . S
C1837 C1833 1.393 . S
C1837 C1836 1.391 . S
C1838 H1828 0.950 . S
C1838 C1839 1.386 . S
C1838 C1840 1.391 . S
C1839 C1838 1.386 . S
C1839 C1843 1.393 . S
C1840 H1829 0.950 . S
C1840 C1838 1.391 . S
C1840 C1841 1.400 . S
C1841 C1835 1.491 . S
C1841 C1840 1.400 . S
C1841 C1842 1.398 . S
C1842 H1830 0.950 . S
C1842 C1841 1.398 . S
C1842 C1843 1.391 . S
C1843 H1831 0.950 . S
C1843 C1839 1.393 . S
C1843 C1842 1.391 . S
H1844 C1852 0.950 . S
H1845 C1857 0.950 . S
H1846 C1854 0.950 . S
H1847 C1856 0.950 . S
H1848 C1858 0.950 . S
H1849 C1860 0.950 . S
H1850 C1862 0.950 . S
H1851 C1863 0.950 . S
C1852 H1844 0.950 . S
C1852 C1853 1.386 . S
C1852 C1854 1.391 . S
C1853 C1852 1.386 . S
C1853 C1857 1.393 . S
C1854 H1846 0.950 . S
C1854 C1852 1.391 . S
C1854 C1855 1.400 . S
C1855 C1854 1.400 . S
C1855 C1856 1.398 . S
C1855 C1861 1.491 . S
C1856 H1847 0.950 . S
C1856 C1855 1.398 . S
C1856 C1857 1.391 . S
C1857 H1845 0.950 . S
C1857 C1853 1.393 . S
C1857 C1856 1.391 . S
C1858 H1848 0.950 . S
C1858 C1859 1.386 . S
C1858 C1860 1.391 . S
C1859 C1858 1.386 . S
C1859 C1863 1.393 . S
C1860 H1849 0.950 . S
C1860 C1858 1.391 . S
C1860 C1861 1.400 . S
C1861 C1855 1.491 . S
C1861 C1860 1.400 . S
C1861 C1862 1.398 . S
C1862 H1850 0.950 . S
C1862 C1861 1.398 . S
C1862 C1863 1.391 . S
C1863 H1851 0.950 . S
C1863 C1859 1.393 . S
C1863 C1862 1.391 . S
H1864 C1872 0.950 . S
H1865 C1877 0.950 . S
H1866 C1874 0.950 . S
H1867 C1876 0.950 . S
H1868 C1878 0.950 . S
H1869 C1880 0.950 . S
H1870 C1882 0.950 . S
H1871 C1883 0.950 . S
C1872 H1864 0.950 . S
C1872 C1873 1.386 . S
C1872 C1874 1.391 . S
C1873 C1872 1.386 . S
C1873 C1877 1.393 . S
C1874 H1866 0.950 . S
C1874 C1872 1.391 . S
C1874 C1875 1.400 . S
C1875 C1874 1.400 . S
C1875 C1876 1.398 . S
C1875 C1881 1.491 . S
C1876 H1867 0.950 . S
C1876 C1875 1.398 . S
C1876 C1877 1.391 . S
C1877 H1865 0.950 . S
C1877 C1873 1.393 . S
C1877 C1876 1.391 . S
C1878 H1868 0.950 . S
C1878 C1879 1.386 . S
C1878 C1880 1.391 . S
C1879 C1878 1.386 . S
C1879 C1883 1.393 . S
C1880 H1869 0.950 . S
C1880 C1878 1.391 . S
C1880 C1881 1.400 . S
C1881 C1875 1.491 . S
C1881 C1880 1.400 . S
C1881 C1882 1.398 . S
C1882 H1870 0.950 . S
C1882 C1881 1.398 . S
C1882 C1883 1.391 . S
C1883 H1871 0.950 . S
C1883 C1879 1.393 . S
C1883 C1882 1.391 . S
H1884 C1892 0.950 . S
H1885 C1897 0.950 . S
H1886 C1894 0.950 . S
H1887 C1896 0.950 . S
H1888 C1898 0.950 . S
H1889 C1900 0.950 . S
H1890 C1902 0.950 . S
H1891 C1903 0.950 . S
C1892 H1884 0.950 . S
C1892 C1893 1.386 . S
C1892 C1894 1.391 . S
C1893 C1892 1.386 . S
C1893 C1897 1.393 . S
C1894 H1886 0.950 . S
C1894 C1892 1.391 . S
C1894 C1895 1.400 . S
C1895 C1894 1.400 . S
C1895 C1896 1.398 . S
C1895 C1901 1.491 . S
C1896 H1887 0.950 . S
C1896 C1895 1.398 . S
C1896 C1897 1.391 . S
C1897 H1885 0.950 . S
C1897 C1893 1.393 . S
C1897 C1896 1.391 . S
C1898 H1888 0.950 . S
C1898 C1899 1.386 . S
C1898 C1900 1.391 . S
C1899 C1898 1.386 . S
C1899 C1903 1.393 . S
C1900 H1889 0.950 . S
C1900 C1898 1.391 . S
C1900 C1901 1.400 . S
C1901 C1895 1.491 . S
C1901 C1900 1.400 . S
C1901 C1902 1.398 . S
C1902 H1890 0.950 . S
C1902 C1901 1.398 . S
C1902 C1903 1.391 . S
C1903 H1891 0.950 . S
C1903 C1899 1.393 . S
C1903 C1902 1.391 . S
H1904 C1912 0.950 . S
H1905 C1917 0.950 . S
H1906 C1914 0.950 . S
H1907 C1916 0.950 . S
H1908 C1918 0.950 . S
H1909 C1920 0.950 . S
H1910 C1922 0.950 . S
H1911 C1923 0.950 . S
C1912 H1904 0.950 . S
C1912 C1913 1.386 . S
C1912 C1914 1.391 . S
C1913 C1912 1.386 . S
C1913 C1917 1.393 . S
C1914 H1906 0.950 . S
C1914 C1912 1.391 . S
C1914 C1915 1.400 . S
C1915 C1914 1.400 . S
C1915 C1916 1.398 . S
C1915 C1921 1.491 . S
C1916 H1907 0.950 . S
C1916 C1915 1.398 . S
C1916 C1917 1.391 . S
C1917 H1905 0.950 . S
C1917 C1913 1.393 . S
C1917 C1916 1.391 . S
C1918 H1908 0.950 . S
C1918 C1919 1.386 . S
C1918 C1920 1.391 . S
C1919 C1918 1.386 . S
C1919 C1923 1.393 . S
C1920 H1909 0.950 . S
C1920 C1918 1.391 . S
C1920 C1921 1.400 . S
C1921 C1915 1.491 . S
C1921 C1920 1.400 . S
C1921 C1922 1.398 . S
C1922 H1910 0.950 . S
C1922 C1921 1.398 . S
C1922 C1923 1.391 . S
C1923 H1911 0.950 . S
C1923 C1919 1.393 . S
C1923 C1922 1.391 . S
H1924 C1932 0.950 . S
H1925 C1937 0.950 . S
H1926 C1934 0.950 . S
H1927 C1936 0.950 . S
H1928 C1938 0.950 . S
H1929 C1940 0.950 . S
H1930 C1942 0.950 . S
H1931 C1943 0.950 . S
C1932 H1924 0.950 . S
C1932 C1933 1.386 . S
C1932 C1934 1.391 . S
C1933 C1932 1.386 . S
C1933 C1937 1.393 . S
C1934 H1926 0.950 . S
C1934 C1932 1.391 . S
C1934 C1935 1.400 . S
C1935 C1934 1.400 . S
C1935 C1936 1.398 . S
C1935 C1941 1.491 . S
C1936 H1927 0.950 . S
C1936 C1935 1.398 . S
C1936 C1937 1.391 . S
C1937 H1925 0.950 . S
C1937 C1933 1.393 . S
C1937 C1936 1.391 . S
C1938 H1928 0.950 . S
C1938 C1939 1.386 . S
C1938 C1940 1.391 . S
C1939 C1938 1.386 . S
C1939 C1943 1.393 . S
C1940 H1929 0.950 . S
C1940 C1938 1.391 . S
C1940 C1941 1.400 . S
C1941 C1935 1.491 . S
C1941 C1940 1.400 . S
C1941 C1942 1.398 . S
C1942 H1930 0.950 . S
C1942 C1941 1.398 . S
C1942 C1943 1.391 . S
C1943 H1931 0.950 . S
C1943 C1939 1.393 . S
C1943 C1942 1.391 . S
H1944 C1952 0.950 . S
H1945 C1957 0.950 . S
H1946 C1954 0.950 . S
H1947 C1956 0.950 . S
H1948 C1958 0.950 . S
H1949 C1960 0.950 . S
H1950 C1962 0.950 . S
H1951 C1963 0.950 . S
C1952 H1944 0.950 . S
C1952 C1953 1.395 . S
C1952 C1954 1.391 . S
C1953 C1952 1.395 . S
C1953 C1957 1.384 1_655 S
C1954 H1946 0.950 . S
C1954 C1952 1.391 . S
C1954 C1955 1.398 1_655 S
C1955 C1954 1.398 1_455 S
C1955 C1956 1.400 . S
C1955 C1961 1.491 1_455 S
C1956 H1947 0.950 . S
C1956 C1955 1.400 . S
C1956 C1957 1.391 . S
C1957 H1945 0.950 . S
C1957 C1953 1.384 1_455 S
C1957 C1956 1.391 . S
C1958 H1948 0.950 . S
C1958 C1959 1.387 . S
C1958 C1960 1.391 . S
C1959 C1958 1.387 . S
C1959 C1963 1.391 1_455 S
C1960 H1949 0.950 . S
C1960 C1958 1.391 . S
C1960 C1961 1.391 1_455 S
C1961 C1955 1.491 1_655 S
C1961 C1960 1.391 1_655 S
C1961 C1962 1.408 . S
C1962 H1950 0.950 . S
C1962 C1961 1.408 . S
C1962 C1963 1.391 . S
C1963 H1951 0.950 . S
C1963 C1959 1.391 1_655 S
C1963 C1962 1.391 . S
H1964 C1972 0.950 . S
H1965 C1977 0.950 . S
H1966 C1974 0.950 . S
H1967 C1976 0.950 . S
H1968 C1978 0.950 . S
H1969 C1980 0.950 . S
H1970 C1982 0.950 . S
H1971 C1983 0.950 . S
C1972 H1964 0.950 . S
C1972 C1973 1.386 . S
C1972 C1974 1.391 . S
C1973 C1972 1.386 . S
C1973 C1977 1.393 . S
C1974 H1966 0.950 . S
C1974 C1972 1.391 . S
C1974 C1975 1.400 . S
C1975 C1974 1.400 . S
C1975 C1976 1.398 . S
C1975 C1981 1.491 . S
C1976 H1967 0.950 . S
C1976 C1975 1.398 . S
C1976 C1977 1.391 . S
C1977 H1965 0.950 . S
C1977 C1973 1.393 . S
C1977 C1976 1.391 . S
C1978 H1968 0.950 . S
C1978 C1979 1.386 . S
C1978 C1980 1.391 . S
C1979 C1978 1.386 . S
C1979 C1983 1.393 . S
C1980 H1969 0.950 . S
C1980 C1978 1.391 . S
C1980 C1981 1.400 . S
C1981 C1975 1.491 . S
C1981 C1980 1.400 . S
C1981 C1982 1.398 . S
C1982 H1970 0.950 . S
C1982 C1981 1.398 . S
C1982 C1983 1.391 . S
C1983 H1971 0.950 . S
C1983 C1979 1.393 . S
C1983 C1982 1.391 . S
H1984 C1992 0.950 . S
H1985 C1997 0.950 . S
H1986 C1994 0.950 . S
H1987 C1996 0.950 . S
H1988 C1998 0.950 . S
H1989 C2000 0.950 . S
H1990 C2002 0.950 . S
H1991 C2003 0.950 . S
C1992 H1984 0.950 . S
C1992 C1993 1.407 . S
C1992 C1994 1.391 . S
C1993 C1992 1.407 . S
C1993 C1997 1.371 1_565 S
C1994 H1986 0.950 . S
C1994 C1992 1.391 . S
C1994 C1995 1.403 1_565 S
C1995 C1994 1.403 1_545 S
C1995 C1996 1.396 . S
C1995 C2001 1.491 1_545 S
C1996 H1987 0.950 . S
C1996 C1995 1.396 . S
C1996 C1997 1.391 . S
C1997 H1985 0.950 . S
C1997 C1993 1.371 1_545 S
C1997 C1996 1.391 . S
C1998 H1988 0.950 . S
C1998 C1999 1.397 . S
C1998 C2000 1.391 . S
C1999 C1998 1.397 . S
C1999 C2003 1.381 1_545 S
C2000 H1989 0.950 . S
C2000 C1998 1.391 . S
C2000 C2001 1.393 1_545 S
C2001 C1995 1.491 1_565 S
C2001 C2000 1.393 1_565 S
C2001 C2002 1.405 . S
C2002 H1990 0.950 . S
C2002 C2001 1.405 . S
C2002 C2003 1.391 . S
C2003 H1991 0.950 . S
C2003 C1999 1.381 1_565 S
C2003 C2002 1.391 . S
H2004 C2012 0.950 . S
H2005 C2017 0.950 . S
H2006 C2014 0.950 . S
H2007 C2016 0.950 . S
H2008 C2018 0.950 . S
H2009 C2020 0.950 . S
H2010 C2022 0.950 . S
H2011 C2023 0.950 . S
C2012 H2004 0.950 . S
C2012 C2013 1.416 . S
C2012 C2014 1.391 . S
C2013 C2012 1.416 . S
C2013 C2017 1.362 1_455 S
C2014 H2006 0.950 . S
C2014 C2012 1.391 . S
C2014 C2015 1.403 . S
C2015 C2014 1.403 . S
C2015 C2016 1.395 1_455 S
C2015 C2021 1.491 . S
C2016 H2007 0.950 . S
C2016 C2015 1.395 1_655 S
C2016 C2017 1.391 . S
C2017 H2005 0.950 . S
C2017 C2013 1.362 1_655 S
C2017 C2016 1.391 . S
C2018 H2008 0.950 . S
C2018 C2019 1.409 . S
C2018 C2020 1.391 . S
C2019 C2018 1.409 . S
C2019 C2023 1.369 1_655 S
C2020 H2009 0.950 . S
C2020 C2018 1.391 . S
C2020 C2021 1.403 1_655 S
C2021 C2015 1.491 . S
C2021 C2020 1.403 1_455 S
C2021 C2022 1.396 . S
C2022 H2010 0.950 . S
C2022 C2021 1.396 . S
C2022 C2023 1.391 . S
C2023 H2011 0.950 . S
C2023 C2019 1.369 1_455 S
C2023 C2022 1.391 . S
H2024 C2032 0.950 . S
H2025 C2037 0.950 . S
H2026 C2034 0.950 . S
H2027 C2036 0.950 . S
H2028 C2038 0.950 . S
H2029 C2040 0.950 . S
H2030 C2042 0.950 . S
H2031 C2043 0.950 . S
C2032 H2024 0.950 . S
C2032 C2033 1.386 . S
C2032 C2034 1.391 . S
C2033 C2032 1.386 . S
C2033 C2037 1.393 . S
C2034 H2026 0.950 . S
C2034 C2032 1.391 . S
C2034 C2035 1.400 . S
C2035 C2034 1.400 . S
C2035 C2036 1.398 . S
C2035 C2041 1.491 . S
C2036 H2027 0.950 . S
C2036 C2035 1.398 . S
C2036 C2037 1.391 . S
C2037 H2025 0.950 . S
C2037 C2033 1.393 . S
C2037 C2036 1.391 . S
C2038 H2028 0.950 . S
C2038 C2039 1.386 . S
C2038 C2040 1.391 . S
C2039 C2038 1.386 . S
C2039 C2043 1.393 . S
C2040 H2029 0.950 . S
C2040 C2038 1.391 . S
C2040 C2041 1.400 . S
C2041 C2035 1.491 . S
C2041 C2040 1.400 . S
C2041 C2042 1.398 . S
C2042 H2030 0.950 . S
C2042 C2041 1.398 . S
C2042 C2043 1.391 . S
C2043 H2031 0.950 . S
C2043 C2039 1.393 . S
C2043 C2042 1.391 . S
H2044 C2052 0.950 . S
H2045 C2057 0.950 . S
H2046 C2054 0.950 . S
H2047 C2056 0.950 . S
H2048 C2058 0.950 . S
H2049 C2060 0.950 . S
H2050 C2062 0.950 . S
H2051 C2063 0.950 . S
C2052 H2044 0.950 . S
C2052 C2053 1.386 . S
C2052 C2054 1.391 . S
C2053 C2052 1.386 . S
C2053 C2057 1.393 1_545 S
C2054 H2046 0.950 . S
C2054 C2052 1.391 . S
C2054 C2055 1.423 . S
C2055 C2054 1.423 . S
C2055 C2056 1.376 1_545 S
C2055 C2061 1.491 1_545 S
C2056 H2047 0.950 . S
C2056 C2055 1.376 1_565 S
C2056 C2057 1.391 . S
C2057 H2045 0.950 . S
C2057 C2053 1.393 1_565 S
C2057 C2056 1.391 . S
C2058 H2048 0.950 . S
C2058 C2059 1.386 . S
C2058 C2060 1.391 . S
C2059 C2058 1.386 . S
C2059 C2063 1.393 1_565 S
C2060 H2049 0.950 . S
C2060 C2058 1.391 . S
C2060 C2061 1.413 . S
C2061 C2055 1.491 1_565 S
C2061 C2060 1.413 . S
C2061 C2062 1.386 1_565 S
C2062 H2050 0.950 . S
C2062 C2061 1.386 1_545 S
C2062 C2063 1.391 . S
C2063 H2051 0.950 . S
C2063 C2059 1.393 1_545 S
C2063 C2062 1.391 . S
H2064 C2072 0.950 . S
H2065 C2077 0.950 . S
H2066 C2074 0.950 . S
H2067 C2076 0.950 . S
H2068 C2078 0.950 . S
H2069 C2080 0.950 . S
H2070 C2082 0.950 . S
H2071 C2083 0.950 . S
C2072 H2064 0.950 . S
C2072 C2073 1.386 . S
C2072 C2074 1.391 . S
C2073 C2072 1.386 . S
C2073 C2077 1.393 . S
C2074 H2066 0.950 . S
C2074 C2072 1.391 . S
C2074 C2075 1.400 . S
C2075 C2074 1.400 . S
C2075 C2076 1.398 . S
C2075 C2081 1.491 . S
C2076 H2067 0.950 . S
C2076 C2075 1.398 . S
C2076 C2077 1.391 . S
C2077 H2065 0.950 . S
C2077 C2073 1.393 . S
C2077 C2076 1.391 . S
C2078 H2068 0.950 . S
C2078 C2079 1.386 . S
C2078 C2080 1.391 . S
C2079 C2078 1.386 . S
C2079 C2083 1.393 . S
C2080 H2069 0.950 . S
C2080 C2078 1.391 . S
C2080 C2081 1.400 . S
C2081 C2075 1.491 . S
C2081 C2080 1.400 . S
C2081 C2082 1.398 . S
C2082 H2070 0.950 . S
C2082 C2081 1.398 . S
C2082 C2083 1.391 . S
C2083 H2071 0.950 . S
C2083 C2079 1.393 . S
C2083 C2082 1.391 . S
H2084 C2092 0.950 . S
H2085 C2097 0.950 . S
H2086 C2094 0.950 . S
H2087 C2096 0.950 . S
H2088 C2098 0.950 . S
H2089 C2100 0.950 . S
H2090 C2102 0.950 . S
H2091 C2103 0.950 . S
C2092 H2084 0.950 . S
C2092 C2093 1.386 . S
C2092 C2094 1.391 . S
C2093 C2092 1.386 . S
C2093 C2097 1.393 . S
C2094 H2086 0.950 . S
C2094 C2092 1.391 . S
C2094 C2095 1.400 . S
C2095 C2094 1.400 . S
C2095 C2096 1.398 . S
C2095 C2101 1.491 . S
C2096 H2087 0.950 . S
C2096 C2095 1.398 . S
C2096 C2097 1.391 . S
C2097 H2085 0.950 . S
C2097 C2093 1.393 . S
C2097 C2096 1.391 . S
C2098 H2088 0.950 . S
C2098 C2099 1.386 . S
C2098 C2100 1.391 . S
C2099 C2098 1.386 . S
C2099 C2103 1.393 . S
C2100 H2089 0.950 . S
C2100 C2098 1.391 . S
C2100 C2101 1.400 . S
C2101 C2095 1.491 . S
C2101 C2100 1.400 . S
C2101 C2102 1.398 . S
C2102 H2090 0.950 . S
C2102 C2101 1.398 . S
C2102 C2103 1.391 . S
C2103 H2091 0.950 . S
C2103 C2099 1.393 . S
C2103 C2102 1.391 . S
H2104 C2112 0.950 . S
H2105 C2117 0.950 . S
H2106 C2114 0.950 . S
H2107 C2116 0.950 . S
H2108 C2118 0.950 . S
H2109 C2120 0.950 . S
H2110 C2122 0.950 . S
H2111 C2123 0.950 . S
C2112 H2104 0.950 . S
C2112 C2113 1.386 . S
C2112 C2114 1.391 . S
C2113 C2112 1.386 . S
C2113 C2117 1.393 . S
C2114 H2106 0.950 . S
C2114 C2112 1.391 . S
C2114 C2115 1.400 . S
C2115 C2114 1.400 . S
C2115 C2116 1.398 . S
C2115 C2121 1.491 . S
C2116 H2107 0.950 . S
C2116 C2115 1.398 . S
C2116 C2117 1.391 . S
C2117 H2105 0.950 . S
C2117 C2113 1.393 . S
C2117 C2116 1.391 . S
C2118 H2108 0.950 . S
C2118 C2119 1.386 . S
C2118 C2120 1.391 . S
C2119 C2118 1.386 . S
C2119 C2123 1.393 . S
C2120 H2109 0.950 . S
C2120 C2118 1.391 . S
C2120 C2121 1.400 . S
C2121 C2115 1.491 . S
C2121 C2120 1.400 . S
C2121 C2122 1.398 . S
C2122 H2110 0.950 . S
C2122 C2121 1.398 . S
C2122 C2123 1.391 . S
C2123 H2111 0.950 . S
C2123 C2119 1.393 . S
C2123 C2122 1.391 . S
H2124 C2132 0.950 . S
H2125 C2137 0.950 . S
H2126 C2134 0.950 . S
H2127 C2136 0.950 . S
H2128 C2138 0.950 . S
H2129 C2140 0.950 . S
H2130 C2142 0.950 . S
H2131 C2143 0.950 . S
C2132 H2124 0.950 . S
C2132 C2133 1.386 . S
C2132 C2134 1.391 . S
C2133 C2132 1.386 . S
C2133 C2137 1.393 . S
C2134 H2126 0.950 . S
C2134 C2132 1.391 . S
C2134 C2135 1.400 . S
C2135 C2134 1.400 . S
C2135 C2136 1.398 . S
C2135 C2141 1.491 . S
C2136 H2127 0.950 . S
C2136 C2135 1.398 . S
C2136 C2137 1.391 . S
C2137 H2125 0.950 . S
C2137 C2133 1.393 . S
C2137 C2136 1.391 . S
C2138 H2128 0.950 . S
C2138 C2139 1.386 . S
C2138 C2140 1.391 . S
C2139 C2138 1.386 . S
C2139 C2143 1.393 . S
C2140 H2129 0.950 . S
C2140 C2138 1.391 . S
C2140 C2141 1.400 . S
C2141 C2135 1.491 . S
C2141 C2140 1.400 . S
C2141 C2142 1.398 . S
C2142 H2130 0.950 . S
C2142 C2141 1.398 . S
C2142 C2143 1.391 . S
C2143 H2131 0.950 . S
C2143 C2139 1.393 . S
C2143 C2142 1.391 . S
H2144 C2152 0.950 . S
H2145 C2157 0.950 . S
H2146 C2154 0.950 . S
H2147 C2156 0.950 . S
H2148 C2158 0.950 . S
H2149 C2160 0.950 . S
H2150 C2162 0.950 . S
H2151 C2163 0.950 . S
C2152 H2144 0.950 . S
C2152 C2153 1.386 . S
C2152 C2154 1.391 . S
C2153 C2152 1.386 . S
C2153 C2157 1.393 . S
C2154 H2146 0.950 . S
C2154 C2152 1.391 . S
C2154 C2155 1.400 . S
C2155 C2154 1.400 . S
C2155 C2156 1.398 . S
C2155 C2161 1.491 . S
C2156 H2147 0.950 . S
C2156 C2155 1.398 . S
C2156 C2157 1.391 . S
C2157 H2145 0.950 . S
C2157 C2153 1.393 . S
C2157 C2156 1.391 . S
C2158 H2148 0.950 . S
C2158 C2159 1.386 . S
C2158 C2160 1.391 . S
C2159 C2158 1.386 . S
C2159 C2163 1.393 . S
C2160 H2149 0.950 . S
C2160 C2158 1.391 . S
C2160 C2161 1.400 . S
C2161 C2155 1.491 . S
C2161 C2160 1.400 . S
C2161 C2162 1.398 . S
C2162 H2150 0.950 . S
C2162 C2161 1.398 . S
C2162 C2163 1.391 . S
C2163 H2151 0.950 . S
C2163 C2159 1.393 . S
C2163 C2162 1.391 . S
H2164 C2172 0.950 . S
H2165 C2177 0.950 . S
H2166 C2174 0.950 . S
H2167 C2176 0.950 . S
H2168 C2178 0.950 . S
H2169 C2180 0.950 . S
H2170 C2182 0.950 . S
H2171 C2183 0.950 . S
C2172 H2164 0.950 . S
C2172 C2173 1.386 . S
C2172 C2174 1.391 . S
C2173 C2172 1.386 . S
C2173 C2177 1.393 . S
C2174 H2166 0.950 . S
C2174 C2172 1.391 . S
C2174 C2175 1.400 . S
C2175 C2174 1.400 . S
C2175 C2176 1.398 . S
C2175 C2181 1.491 . S
C2176 H2167 0.950 . S
C2176 C2175 1.398 . S
C2176 C2177 1.391 . S
C2177 H2165 0.950 . S
C2177 C2173 1.393 . S
C2177 C2176 1.391 . S
C2178 H2168 0.950 . S
C2178 C2179 1.386 . S
C2178 C2180 1.391 . S
C2179 C2178 1.386 . S
C2179 C2183 1.393 . S
C2180 H2169 0.950 . S
C2180 C2178 1.391 . S
C2180 C2181 1.400 . S
C2181 C2175 1.491 . S
C2181 C2180 1.400 . S
C2181 C2182 1.398 . S
C2182 H2170 0.950 . S
C2182 C2181 1.398 . S
C2182 C2183 1.391 . S
C2183 H2171 0.950 . S
C2183 C2179 1.393 . S
C2183 C2182 1.391 . S
H2184 C2192 0.950 . S
H2185 C2197 0.950 . S
H2186 C2194 0.950 . S
H2187 C2196 0.950 . S
H2188 C2198 0.950 . S
H2189 C2200 0.950 . S
H2190 C2202 0.950 . S
H2191 C2203 0.950 . S
C2192 H2184 0.950 . S
C2192 C2193 1.386 . S
C2192 C2194 1.391 . S
C2193 C2192 1.386 . S
C2193 C2197 1.393 . S
C2194 H2186 0.950 . S
C2194 C2192 1.391 . S
C2194 C2195 1.400 . S
C2195 C2194 1.400 . S
C2195 C2196 1.398 . S
C2195 C2201 1.491 . S
C2196 H2187 0.950 . S
C2196 C2195 1.398 . S
C2196 C2197 1.391 . S
C2197 H2185 0.950 . S
C2197 C2193 1.393 . S
C2197 C2196 1.391 . S
C2198 H2188 0.950 . S
C2198 C2199 1.386 . S
C2198 C2200 1.391 . S
C2199 C2198 1.386 . S
C2199 C2203 1.393 . S
C2200 H2189 0.950 . S
C2200 C2198 1.391 . S
C2200 C2201 1.400 . S
C2201 C2195 1.491 . S
C2201 C2200 1.400 . S
C2201 C2202 1.398 . S
C2202 H2190 0.950 . S
C2202 C2201 1.398 . S
C2202 C2203 1.391 . S
C2203 H2191 0.950 . S
C2203 C2199 1.393 . S
C2203 C2202 1.391 . S
H2204 C2212 0.950 . S
H2205 C2217 0.950 . S
H2206 C2214 0.950 . S
H2207 C2216 0.950 . S
H2208 C2218 0.950 . S
H2209 C2220 0.950 . S
H2210 C2222 0.950 . S
H2211 C2223 0.950 . S
C2212 H2204 0.950 . S
C2212 C2213 1.386 . S
C2212 C2214 1.391 . S
C2213 C2212 1.386 . S
C2213 C2217 1.393 . S
C2214 H2206 0.950 . S
C2214 C2212 1.391 . S
C2214 C2215 1.400 . S
C2215 C2214 1.400 . S
C2215 C2216 1.398 . S
C2215 C2221 1.491 . S
C2216 H2207 0.950 . S
C2216 C2215 1.398 . S
C2216 C2217 1.391 . S
C2217 H2205 0.950 . S
C2217 C2213 1.393 . S
C2217 C2216 1.391 . S
C2218 H2208 0.950 . S
C2218 C2219 1.386 . S
C2218 C2220 1.391 . S
C2219 C2218 1.386 . S
C2219 C2223 1.393 . S
C2220 H2209 0.950 . S
C2220 C2218 1.391 . S
C2220 C2221 1.400 . S
C2221 C2215 1.491 . S
C2221 C2220 1.400 . S
C2221 C2222 1.398 . S
C2222 H2210 0.950 . S
C2222 C2221 1.398 . S
C2222 C2223 1.391 . S
C2223 H2211 0.950 . S
C2223 C2219 1.393 . S
C2223 C2222 1.391 . S
H2224 C2232 0.950 . S
H2225 C2237 0.950 . S
H2226 C2234 0.950 . S
H2227 C2236 0.950 . S
H2228 C2238 0.950 . S
H2229 C2240 0.950 . S
H2230 C2242 0.950 . S
H2231 C2243 0.950 . S
C2232 H2224 0.950 . S
C2232 C2233 1.386 . S
C2232 C2234 1.391 . S
C2233 C2232 1.386 . S
C2233 C2237 1.393 . S
C2234 H2226 0.950 . S
C2234 C2232 1.391 . S
C2234 C2235 1.400 . S
C2235 C2234 1.400 . S
C2235 C2236 1.398 . S
C2235 C2241 1.491 . S
C2236 H2227 0.950 . S
C2236 C2235 1.398 . S
C2236 C2237 1.391 . S
C2237 H2225 0.950 . S
C2237 C2233 1.393 . S
C2237 C2236 1.391 . S
C2238 H2228 0.950 . S
C2238 C2239 1.386 . S
C2238 C2240 1.391 . S
C2239 C2238 1.386 . S
C2239 C2243 1.393 . S
C2240 H2229 0.950 . S
C2240 C2238 1.391 . S
C2240 C2241 1.400 . S
C2241 C2235 1.491 . S
C2241 C2240 1.400 . S
C2241 C2242 1.398 . S
C2242 H2230 0.950 . S
C2242 C2241 1.398 . S
C2242 C2243 1.391 . S
C2243 H2231 0.950 . S
C2243 C2239 1.393 . S
C2243 C2242 1.391 . S
H2244 C2252 0.950 . S
H2245 C2257 0.950 . S
H2246 C2254 0.950 . S
H2247 C2256 0.950 . S
H2248 C2258 0.950 . S
H2249 C2260 0.950 . S
H2250 C2262 0.950 . S
H2251 C2263 0.950 . S
C2252 H2244 0.950 . S
C2252 C2253 1.386 . S
C2252 C2254 1.391 . S
C2253 C2252 1.386 . S
C2253 C2257 1.393 . S
C2254 H2246 0.950 . S
C2254 C2252 1.391 . S
C2254 C2255 1.400 . S
C2255 C2254 1.400 . S
C2255 C2256 1.398 . S
C2255 C2261 1.491 . S
C2256 H2247 0.950 . S
C2256 C2255 1.398 . S
C2256 C2257 1.391 . S
C2257 H2245 0.950 . S
C2257 C2253 1.393 . S
C2257 C2256 1.391 . S
C2258 H2248 0.950 . S
C2258 C2259 1.386 . S
C2258 C2260 1.391 . S
C2259 C2258 1.386 . S
C2259 C2263 1.393 . S
C2260 H2249 0.950 . S
C2260 C2258 1.391 . S
C2260 C2261 1.400 . S
C2261 C2255 1.491 . S
C2261 C2260 1.400 . S
C2261 C2262 1.398 . S
C2262 H2250 0.950 . S
C2262 C2261 1.398 . S
C2262 C2263 1.391 . S
C2263 H2251 0.950 . S
C2263 C2259 1.393 . S
C2263 C2262 1.391 . S
H2264 C2272 0.950 . S
H2265 C2277 0.950 . S
H2266 C2274 0.950 . S
H2267 C2276 0.950 . S
H2268 C2278 0.950 . S
H2269 C2280 0.950 . S
H2270 C2282 0.950 . S
H2271 C2283 0.950 . S
C2272 H2264 0.950 . S
C2272 C2273 1.386 . S
C2272 C2274 1.391 . S
C2273 C2272 1.386 . S
C2273 C2277 1.393 . S
C2274 H2266 0.950 . S
C2274 C2272 1.391 . S
C2274 C2275 1.400 . S
C2275 C2274 1.400 . S
C2275 C2276 1.398 . S
C2275 C2281 1.491 . S
C2276 H2267 0.950 . S
C2276 C2275 1.398 . S
C2276 C2277 1.391 . S
C2277 H2265 0.950 . S
C2277 C2273 1.393 . S
C2277 C2276 1.391 . S
C2278 H2268 0.950 . S
C2278 C2279 1.386 . S
C2278 C2280 1.391 . S
C2279 C2278 1.386 . S
C2279 C2283 1.393 . S
C2280 H2269 0.950 . S
C2280 C2278 1.391 . S
C2280 C2281 1.400 . S
C2281 C2275 1.491 . S
C2281 C2280 1.400 . S
C2281 C2282 1.398 . S
C2282 H2270 0.950 . S
C2282 C2281 1.398 . S
C2282 C2283 1.391 . S
C2283 H2271 0.950 . S
C2283 C2279 1.393 . S
C2283 C2282 1.391 . S
H2284 C2292 0.950 . S
H2285 C2297 0.950 . S
H2286 C2294 0.950 . S
H2287 C2296 0.950 . S
H2288 C2298 0.950 . S
H2289 C2300 0.950 . S
H2290 C2302 0.950 . S
H2291 C2303 0.950 . S
C2292 H2284 0.950 . S
C2292 C2293 1.386 . S
C2292 C2294 1.391 . S
C2293 C2292 1.386 . S
C2293 C2297 1.393 . S
C2294 H2286 0.950 . S
C2294 C2292 1.391 . S
C2294 C2295 1.400 . S
C2295 C2294 1.400 . S
C2295 C2296 1.398 . S
C2295 C2301 1.491 . S
C2296 H2287 0.950 . S
C2296 C2295 1.398 . S
C2296 C2297 1.391 . S
C2297 H2285 0.950 . S
C2297 C2293 1.393 . S
C2297 C2296 1.391 . S
C2298 H2288 0.950 . S
C2298 C2299 1.386 . S
C2298 C2300 1.391 . S
C2299 C2298 1.386 . S
C2299 C2303 1.393 . S
C2300 H2289 0.950 . S
C2300 C2298 1.391 . S
C2300 C2301 1.400 . S
C2301 C2295 1.491 . S
C2301 C2300 1.400 . S
C2301 C2302 1.398 . S
C2302 H2290 0.950 . S
C2302 C2301 1.398 . S
C2302 C2303 1.391 . S
C2303 H2291 0.950 . S
C2303 C2299 1.393 . S
C2303 C2302 1.391 . S
H2304 C2312 0.950 . S
H2305 C2317 0.950 . S
H2306 C2314 0.950 . S
H2307 C2316 0.950 . S
H2308 C2318 0.950 . S
H2309 C2320 0.950 . S
H2310 C2322 0.950 . S
H2311 C2323 0.950 . S
C2312 H2304 0.950 . S
C2312 C2313 1.386 . S
C2312 C2314 1.391 . S
C2313 C2312 1.386 . S
C2313 C2317 1.393 . S
C2314 H2306 0.950 . S
C2314 C2312 1.391 . S
C2314 C2315 1.400 . S
C2315 C2314 1.400 . S
C2315 C2316 1.398 . S
C2315 C2321 1.491 . S
C2316 H2307 0.950 . S
C2316 C2315 1.398 . S
C2316 C2317 1.391 . S
C2317 H2305 0.950 . S
C2317 C2313 1.393 . S
C2317 C2316 1.391 . S
C2318 H2308 0.950 . S
C2318 C2319 1.386 . S
C2318 C2320 1.391 . S
C2319 C2318 1.386 . S
C2319 C2323 1.393 . S
C2320 H2309 0.950 . S
C2320 C2318 1.391 . S
C2320 C2321 1.400 . S
C2321 C2315 1.491 . S
C2321 C2320 1.400 . S
C2321 C2322 1.398 . S
C2322 H2310 0.950 . S
C2322 C2321 1.398 . S
C2322 C2323 1.391 . S
C2323 H2311 0.950 . S
C2323 C2319 1.393 . S
C2323 C2322 1.391 . S
H2324 C2332 0.950 . S
H2325 C2337 0.950 . S
H2326 C2334 0.950 . S
H2327 C2336 0.950 . S
H2328 C2338 0.950 . S
H2329 C2340 0.950 . S
H2330 C2342 0.950 . S
H2331 C2343 0.950 . S
C2332 H2324 0.950 . S
C2332 C2333 1.386 . S
C2332 C2334 1.391 . S
C2333 C2332 1.386 . S
C2333 C2337 1.393 . S
C2334 H2326 0.950 . S
C2334 C2332 1.391 . S
C2334 C2335 1.400 . S
C2335 C2334 1.400 . S
C2335 C2336 1.398 . S
C2335 C2341 1.491 . S
C2336 H2327 0.950 . S
C2336 C2335 1.398 . S
C2336 C2337 1.391 . S
C2337 H2325 0.950 . S
C2337 C2333 1.393 . S
C2337 C2336 1.391 . S
C2338 H2328 0.950 . S
C2338 C2339 1.386 . S
C2338 C2340 1.391 . S
C2339 C2338 1.386 . S
C2339 C2343 1.393 . S
C2340 H2329 0.950 . S
C2340 C2338 1.391 . S
C2340 C2341 1.400 . S
C2341 C2335 1.491 . S
C2341 C2340 1.400 . S
C2341 C2342 1.398 . S
C2342 H2330 0.950 . S
C2342 C2341 1.398 . S
C2342 C2343 1.391 . S
C2343 H2331 0.950 . S
C2343 C2339 1.393 . S
C2343 C2342 1.391 . S
H2344 C2352 0.950 . S
H2345 C2357 0.950 . S
H2346 C2354 0.950 . S
H2347 C2356 0.950 . S
H2348 C2358 0.950 . S
H2349 C2360 0.950 . S
H2350 C2362 0.950 . S
H2351 C2363 0.950 . S
C2352 H2344 0.950 . S
C2352 C2353 1.386 . S
C2352 C2354 1.391 . S
C2353 C2352 1.386 . S
C2353 C2357 1.393 . S
C2354 H2346 0.950 . S
C2354 C2352 1.391 . S
C2354 C2355 1.400 . S
C2355 C2354 1.400 . S
C2355 C2356 1.398 . S
C2355 C2361 1.491 . S
C2356 H2347 0.950 . S
C2356 C2355 1.398 . S
C2356 C2357 1.391 . S
C2357 H2345 0.950 . S
C2357 C2353 1.393 . S
C2357 C2356 1.391 . S
C2358 H2348 0.950 . S
C2358 C2359 1.386 . S
C2358 C2360 1.391 . S
C2359 C2358 1.386 . S
C2359 C2363 1.393 . S
C2360 H2349 0.950 . S
C2360 C2358 1.391 . S
C2360 C2361 1.400 . S
C2361 C2355 1.491 . S
C2361 C2360 1.400 . S
C2361 C2362 1.398 . S
C2362 H2350 0.950 . S
C2362 C2361 1.398 . S
C2362 C2363 1.391 . S
C2363 H2351 0.950 . S
C2363 C2359 1.393 . S
C2363 C2362 1.391 . S
H2364 C2372 0.950 . S
H2365 C2377 0.950 . S
H2366 C2374 0.950 . S
H2367 C2376 0.950 . S
H2368 C2378 0.950 . S
H2369 C2380 0.950 . S
H2370 C2382 0.950 . S
H2371 C2383 0.950 . S
C2372 H2364 0.950 . S
C2372 C2373 1.386 . S
C2372 C2374 1.391 . S
C2373 C2372 1.386 . S
C2373 C2377 1.393 . S
C2374 H2366 0.950 . S
C2374 C2372 1.391 . S
C2374 C2375 1.400 . S
C2375 C2374 1.400 . S
C2375 C2376 1.398 . S
C2375 C2381 1.491 . S
C2376 H2367 0.950 . S
C2376 C2375 1.398 . S
C2376 C2377 1.391 . S
C2377 H2365 0.950 . S
C2377 C2373 1.393 . S
C2377 C2376 1.391 . S
C2378 H2368 0.950 . S
C2378 C2379 1.386 . S
C2378 C2380 1.391 . S
C2379 C2378 1.386 . S
C2379 C2383 1.393 . S
C2380 H2369 0.950 . S
C2380 C2378 1.391 . S
C2380 C2381 1.400 . S
C2381 C2375 1.491 . S
C2381 C2380 1.400 . S
C2381 C2382 1.398 . S
C2382 H2370 0.950 . S
C2382 C2381 1.398 . S
C2382 C2383 1.391 . S
C2383 H2371 0.950 . S
C2383 C2379 1.393 . S
C2383 C2382 1.391 . S
H2384 C2392 0.950 . S
H2385 C2397 0.950 . S
H2386 C2394 0.950 . S
H2387 C2396 0.950 . S
H2388 C2398 0.950 . S
H2389 C2400 0.950 . S
H2390 C2402 0.950 . S
H2391 C2403 0.950 . S
C2392 H2384 0.950 . S
C2392 C2393 1.386 . S
C2392 C2394 1.391 . S
C2393 C2392 1.386 . S
C2393 C2397 1.393 . S
C2394 H2386 0.950 . S
C2394 C2392 1.391 . S
C2394 C2395 1.400 . S
C2395 C2394 1.400 . S
C2395 C2396 1.398 . S
C2395 C2401 1.491 . S
C2396 H2387 0.950 . S
C2396 C2395 1.398 . S
C2396 C2397 1.391 . S
C2397 H2385 0.950 . S
C2397 C2393 1.393 . S
C2397 C2396 1.391 . S
C2398 H2388 0.950 . S
C2398 C2399 1.386 . S
C2398 C2400 1.391 . S
C2399 C2398 1.386 . S
C2399 C2403 1.393 . S
C2400 H2389 0.950 . S
C2400 C2398 1.391 . S
C2400 C2401 1.400 . S
C2401 C2395 1.491 . S
C2401 C2400 1.400 . S
C2401 C2402 1.398 . S
C2402 H2390 0.950 . S
C2402 C2401 1.398 . S
C2402 C2403 1.391 . S
C2403 H2391 0.950 . S
C2403 C2399 1.393 . S
C2403 C2402 1.391 . S
H2404 C2412 0.950 . S
H2405 C2417 0.950 . S
H2406 C2414 0.950 . S
H2407 C2416 0.950 . S
H2408 C2418 0.950 . S
H2409 C2420 0.950 . S
H2410 C2422 0.950 . S
H2411 C2423 0.950 . S
C2412 H2404 0.950 . S
C2412 C2413 1.386 . S
C2412 C2414 1.391 . S
C2413 C2412 1.386 . S
C2413 C2417 1.393 . S
C2414 H2406 0.950 . S
C2414 C2412 1.391 . S
C2414 C2415 1.400 . S
C2415 C2414 1.400 . S
C2415 C2416 1.398 . S
C2415 C2421 1.491 . S
C2416 H2407 0.950 . S
C2416 C2415 1.398 . S
C2416 C2417 1.391 . S
C2417 H2405 0.950 . S
C2417 C2413 1.393 . S
C2417 C2416 1.391 . S
C2418 H2408 0.950 . S
C2418 C2419 1.386 . S
C2418 C2420 1.391 . S
C2419 C2418 1.386 . S
C2419 C2423 1.393 . S
C2420 H2409 0.950 . S
C2420 C2418 1.391 . S
C2420 C2421 1.400 . S
C2421 C2415 1.491 . S
C2421 C2420 1.400 . S
C2421 C2422 1.398 . S
C2422 H2410 0.950 . S
C2422 C2421 1.398 . S
C2422 C2423 1.391 . S
C2423 H2411 0.950 . S
C2423 C2419 1.393 . S
C2423 C2422 1.391 . S
H2424 C2432 0.950 . S
H2425 C2437 0.950 . S
H2426 C2434 0.950 . S
H2427 C2436 0.950 . S
H2428 C2438 0.950 . S
H2429 C2440 0.950 . S
H2430 C2442 0.950 . S
H2431 C2443 0.950 . S
C2432 H2424 0.950 . S
C2432 C2433 1.386 . S
C2432 C2434 1.391 . S
C2433 C2432 1.386 . S
C2433 C2437 1.393 . S
C2434 H2426 0.950 . S
C2434 C2432 1.391 . S
C2434 C2435 1.400 . S
C2435 C2434 1.400 . S
C2435 C2436 1.398 . S
C2435 C2441 1.491 . S
C2436 H2427 0.950 . S
C2436 C2435 1.398 . S
C2436 C2437 1.391 . S
C2437 H2425 0.950 . S
C2437 C2433 1.393 . S
C2437 C2436 1.391 . S
C2438 H2428 0.950 . S
C2438 C2439 1.386 . S
C2438 C2440 1.391 . S
C2439 C2438 1.386 . S
C2439 C2443 1.393 . S
C2440 H2429 0.950 . S
C2440 C2438 1.391 . S
C2440 C2441 1.400 . S
C2441 C2435 1.491 . S
C2441 C2440 1.400 . S
C2441 C2442 1.398 . S
C2442 H2430 0.950 . S
C2442 C2441 1.398 . S
C2442 C2443 1.391 . S
C2443 H2431 0.950 . S
C2443 C2439 1.393 . S
C2443 C2442 1.391 . S
H2444 C2452 0.950 . S
H2445 C2457 0.950 . S
H2446 C2454 0.950 . S
H2447 C2456 0.950 . S
H2448 C2458 0.950 . S
H2449 C2460 0.950 . S
H2450 C2462 0.950 . S
H2451 C2463 0.950 . S
C2452 H2444 0.950 . S
C2452 C2453 1.386 . S
C2452 C2454 1.391 . S
C2453 C2452 1.386 . S
C2453 C2457 1.393 . S
C2454 H2446 0.950 . S
C2454 C2452 1.391 . S
C2454 C2455 1.400 . S
C2455 C2454 1.400 . S
C2455 C2456 1.398 . S
C2455 C2461 1.491 . S
C2456 H2447 0.950 . S
C2456 C2455 1.398 . S
C2456 C2457 1.391 . S
C2457 H2445 0.950 . S
C2457 C2453 1.393 . S
C2457 C2456 1.391 . S
C2458 H2448 0.950 . S
C2458 C2459 1.386 . S
C2458 C2460 1.391 . S
C2459 C2458 1.386 . S
C2459 C2463 1.393 . S
C2460 H2449 0.950 . S
C2460 C2458 1.391 . S
C2460 C2461 1.400 . S
C2461 C2455 1.491 . S
C2461 C2460 1.400 . S
C2461 C2462 1.398 . S
C2462 H2450 0.950 . S
C2462 C2461 1.398 . S
C2462 C2463 1.391 . S
C2463 H2451 0.950 . S
C2463 C2459 1.393 . S
C2463 C2462 1.391 . S
H2464 C2472 0.950 . S
H2465 C2477 0.950 . S
H2466 C2474 0.950 . S
H2467 C2476 0.950 . S
H2468 C2478 0.950 . S
H2469 C2480 0.950 . S
H2470 C2482 0.950 . S
H2471 C2483 0.950 . S
C2472 H2464 0.950 . S
C2472 C2473 1.386 . S
C2472 C2474 1.391 . S
C2473 C2472 1.386 . S
C2473 C2477 1.393 . S
C2474 H2466 0.950 . S
C2474 C2472 1.391 . S
C2474 C2475 1.400 . S
C2475 C2474 1.400 . S
C2475 C2476 1.398 . S
C2475 C2481 1.491 . S
C2476 H2467 0.950 . S
C2476 C2475 1.398 . S
C2476 C2477 1.391 . S
C2477 H2465 0.950 . S
C2477 C2473 1.393 . S
C2477 C2476 1.391 . S
C2478 H2468 0.950 . S
C2478 C2479 1.386 . S
C2478 C2480 1.391 . S
C2479 C2478 1.386 . S
C2479 C2483 1.393 . S
C2480 H2469 0.950 . S
C2480 C2478 1.391 . S
C2480 C2481 1.400 . S
C2481 C2475 1.491 . S
C2481 C2480 1.400 . S
C2481 C2482 1.398 . S
C2482 H2470 0.950 . S
C2482 C2481 1.398 . S
C2482 C2483 1.391 . S
C2483 H2471 0.950 . S
C2483 C2479 1.393 . S
C2483 C2482 1.391 . S
H2484 C2492 0.950 . S
H2485 C2497 0.950 . S
H2486 C2494 0.950 . S
H2487 C2496 0.950 . S
H2488 C2498 0.950 . S
H2489 C2500 0.950 . S
H2490 C2502 0.950 . S
H2491 C2503 0.950 . S
C2492 H2484 0.950 . S
C2492 C2493 1.386 . S
C2492 C2494 1.391 . S
C2493 C2492 1.386 . S
C2493 C2497 1.393 . S
C2494 H2486 0.950 . S
C2494 C2492 1.391 . S
C2494 C2495 1.400 . S
C2495 C2494 1.400 . S
C2495 C2496 1.398 . S
C2495 C2501 1.491 . S
C2496 H2487 0.950 . S
C2496 C2495 1.398 . S
C2496 C2497 1.391 . S
C2497 H2485 0.950 . S
C2497 C2493 1.393 . S
C2497 C2496 1.391 . S
C2498 H2488 0.950 . S
C2498 C2499 1.386 . S
C2498 C2500 1.391 . S
C2499 C2498 1.386 . S
C2499 C2503 1.393 . S
C2500 H2489 0.950 . S
C2500 C2498 1.391 . S
C2500 C2501 1.400 . S
C2501 C2495 1.491 . S
C2501 C2500 1.400 . S
C2501 C2502 1.398 . S
C2502 H2490 0.950 . S
C2502 C2501 1.398 . S
C2502 C2503 1.391 . S
C2503 H2491 0.950 . S
C2503 C2499 1.393 . S
C2503 C2502 1.391 . S
H2504 C2512 0.950 . S
H2505 C2517 0.950 . S
H2506 C2514 0.950 . S
H2507 C2516 0.950 . S
H2508 C2518 0.950 . S
H2509 C2520 0.950 . S
H2510 C2522 0.950 . S
H2511 C2523 0.950 . S
C2512 H2504 0.950 . S
C2512 C2513 1.386 . S
C2512 C2514 1.391 . S
C2513 C2512 1.386 . S
C2513 C2517 1.393 . S
C2514 H2506 0.950 . S
C2514 C2512 1.391 . S
C2514 C2515 1.400 . S
C2515 C2514 1.400 . S
C2515 C2516 1.398 . S
C2515 C2521 1.491 . S
C2516 H2507 0.950 . S
C2516 C2515 1.398 . S
C2516 C2517 1.391 . S
C2517 H2505 0.950 . S
C2517 C2513 1.393 . S
C2517 C2516 1.391 . S
C2518 H2508 0.950 . S
C2518 C2519 1.386 . S
C2518 C2520 1.391 . S
C2519 C2518 1.386 . S
C2519 C2523 1.393 . S
C2520 H2509 0.950 . S
C2520 C2518 1.391 . S
C2520 C2521 1.400 . S
C2521 C2515 1.491 . S
C2521 C2520 1.400 . S
C2521 C2522 1.398 . S
C2522 H2510 0.950 . S
C2522 C2521 1.398 . S
C2522 C2523 1.391 . S
C2523 H2511 0.950 . S
C2523 C2519 1.393 . S
C2523 C2522 1.391 . S
H2524 C2532 0.950 . S
H2525 C2537 0.950 . S
H2526 C2534 0.950 . S
H2527 C2536 0.950 . S
H2528 C2538 0.950 . S
H2529 C2540 0.950 . S
H2530 C2542 0.950 . S
H2531 C2543 0.950 . S
C2532 H2524 0.950 . S
C2532 C2533 1.386 . S
C2532 C2534 1.391 . S
C2533 C2532 1.386 . S
C2533 C2537 1.393 . S
C2534 H2526 0.950 . S
C2534 C2532 1.391 . S
C2534 C2535 1.400 . S
C2535 C2534 1.400 . S
C2535 C2536 1.398 . S
C2535 C2541 1.491 . S
C2536 H2527 0.950 . S
C2536 C2535 1.398 . S
C2536 C2537 1.391 . S
C2537 H2525 0.950 . S
C2537 C2533 1.393 . S
C2537 C2536 1.391 . S
C2538 H2528 0.950 . S
C2538 C2539 1.386 . S
C2538 C2540 1.391 . S
C2539 C2538 1.386 . S
C2539 C2543 1.393 . S
C2540 H2529 0.950 . S
C2540 C2538 1.391 . S
C2540 C2541 1.400 . S
C2541 C2535 1.491 . S
C2541 C2540 1.400 . S
C2541 C2542 1.398 . S
C2542 H2530 0.950 . S
C2542 C2541 1.398 . S
C2542 C2543 1.391 . S
C2543 H2531 0.950 . S
C2543 C2539 1.393 . S
C2543 C2542 1.391 . S
H2544 C2552 0.950 . S
H2545 C2557 0.950 . S
H2546 C2554 0.950 . S
H2547 C2556 0.950 . S
H2548 C2558 0.950 . S
H2549 C2560 0.950 . S
H2550 C2562 0.950 . S
H2551 C2563 0.950 . S
C2552 H2544 0.950 . S
C2552 C2553 1.386 . S
C2552 C2554 1.391 . S
C2553 C2552 1.386 . S
C2553 C2557 1.393 . S
C2554 H2546 0.950 . S
C2554 C2552 1.391 . S
C2554 C2555 1.400 . S
C2555 C2554 1.400 . S
C2555 C2556 1.398 . S
C2555 C2561 1.491 1_455 S
C2556 H2547 0.950 . S
C2556 C2555 1.398 . S
C2556 C2557 1.391 . S
C2557 H2545 0.950 . S
C2557 C2553 1.393 . S
C2557 C2556 1.391 . S
C2558 H2548 0.950 . S
C2558 C2559 1.386 . S
C2558 C2560 1.391 . S
C2559 C2558 1.386 . S
C2559 C2563 1.393 . S
C2560 H2549 0.950 . S
C2560 C2558 1.391 . S
C2560 C2561 1.400 . S
C2561 C2555 1.491 1_655 S
C2561 C2560 1.400 . S
C2561 C2562 1.398 . S
C2562 H2550 0.950 . S
C2562 C2561 1.398 . S
C2562 C2563 1.391 . S
C2563 H2551 0.950 . S
C2563 C2559 1.393 . S
C2563 C2562 1.391 . S
H2564 C2572 0.950 . S
H2565 C2577 0.950 . S
H2566 C2574 0.950 . S
H2567 C2576 0.950 . S
H2568 C2578 0.950 . S
H2569 C2580 0.950 . S
H2570 C2582 0.950 . S
H2571 C2583 0.950 . S
C2572 H2564 0.950 . S
C2572 C2573 1.386 . S
C2572 C2574 1.391 . S
C2573 C2572 1.386 . S
C2573 C2577 1.393 . S
C2574 H2566 0.950 . S
C2574 C2572 1.391 . S
C2574 C2575 1.400 . S
C2575 C2574 1.400 . S
C2575 C2576 1.398 . S
C2575 C2581 1.491 . S
C2576 H2567 0.950 . S
C2576 C2575 1.398 . S
C2576 C2577 1.391 . S
C2577 H2565 0.950 . S
C2577 C2573 1.393 . S
C2577 C2576 1.391 . S
C2578 H2568 0.950 . S
C2578 C2579 1.386 . S
C2578 C2580 1.391 . S
C2579 C2578 1.386 . S
C2579 C2583 1.393 . S
C2580 H2569 0.950 . S
C2580 C2578 1.391 . S
C2580 C2581 1.400 . S
C2581 C2575 1.491 . S
C2581 C2580 1.400 . S
C2581 C2582 1.398 . S
C2582 H2570 0.950 . S
C2582 C2581 1.398 . S
C2582 C2583 1.391 . S
C2583 H2571 0.950 . S
C2583 C2579 1.393 . S
C2583 C2582 1.391 . S
H2584 C2592 0.950 . S
H2585 C2597 0.950 . S
H2586 C2594 0.950 . S
H2587 C2596 0.950 . S
H2588 C2598 0.950 . S
H2589 C2600 0.950 . S
H2590 C2602 0.950 . S
H2591 C2603 0.950 . S
C2592 H2584 0.950 . S
C2592 C2593 1.386 . S
C2592 C2594 1.391 . S
C2593 C2592 1.386 . S
C2593 C2597 1.393 . S
C2594 H2586 0.950 . S
C2594 C2592 1.391 . S
C2594 C2595 1.400 . S
C2595 C2594 1.400 . S
C2595 C2596 1.398 . S
C2595 C2601 1.491 1_565 S
C2596 H2587 0.950 . S
C2596 C2595 1.398 . S
C2596 C2597 1.391 . S
C2597 H2585 0.950 . S
C2597 C2593 1.393 . S
C2597 C2596 1.391 . S
C2598 H2588 0.950 . S
C2598 C2599 1.386 . S
C2598 C2600 1.391 . S
C2599 C2598 1.386 . S
C2599 C2603 1.393 . S
C2600 H2589 0.950 . S
C2600 C2598 1.391 . S
C2600 C2601 1.400 . S
C2601 C2595 1.491 1_545 S
C2601 C2600 1.400 . S
C2601 C2602 1.398 . S
C2602 H2590 0.950 . S
C2602 C2601 1.398 . S
C2602 C2603 1.391 . S
C2603 H2591 0.950 . S
C2603 C2599 1.393 . S
C2603 C2602 1.391 . S
H2604 C2612 0.950 . S
H2605 C2617 0.950 . S
H2606 C2614 0.950 . S
H2607 C2616 0.950 . S
H2608 C2618 0.950 . S
H2609 C2620 0.950 . S
H2610 C2622 0.950 . S
H2611 C2623 0.950 . S
C2612 H2604 0.950 . S
C2612 C2613 1.386 . S
C2612 C2614 1.391 . S
C2613 C2612 1.386 . S
C2613 C2617 1.393 . S
C2614 H2606 0.950 . S
C2614 C2612 1.391 . S
C2614 C2615 1.400 . S
C2615 C2614 1.400 . S
C2615 C2616 1.398 . S
C2615 C2621 1.491 1_545 S
C2616 H2607 0.950 . S
C2616 C2615 1.398 . S
C2616 C2617 1.391 . S
C2617 H2605 0.950 . S
C2617 C2613 1.393 . S
C2617 C2616 1.391 . S
C2618 H2608 0.950 . S
C2618 C2619 1.386 . S
C2618 C2620 1.391 . S
C2619 C2618 1.386 . S
C2619 C2623 1.393 . S
C2620 H2609 0.950 . S
C2620 C2618 1.391 . S
C2620 C2621 1.400 . S
C2621 C2615 1.491 1_565 S
C2621 C2620 1.400 . S
C2621 C2622 1.398 . S
C2622 H2610 0.950 . S
C2622 C2621 1.398 . S
C2622 C2623 1.391 . S
C2623 H2611 0.950 . S
C2623 C2619 1.393 . S
C2623 C2622 1.391 . S
H2624 C2632 0.950 . S
H2625 C2637 0.950 . S
H2626 C2634 0.950 . S
H2627 C2636 0.950 . S
H2628 C2638 0.950 . S
H2629 C2640 0.950 . S
H2630 C2642 0.950 . S
H2631 C2643 0.950 . S
C2632 H2624 0.950 . S
C2632 C2633 1.386 . S
C2632 C2634 1.391 . S
C2633 C2632 1.386 . S
C2633 C2637 1.393 . S
C2634 H2626 0.950 . S
C2634 C2632 1.391 . S
C2634 C2635 1.400 . S
C2635 C2634 1.400 . S
C2635 C2636 1.398 . S
C2635 C2641 1.491 1_655 S
C2636 H2627 0.950 . S
C2636 C2635 1.398 . S
C2636 C2637 1.391 . S
C2637 H2625 0.950 . S
C2637 C2633 1.393 . S
C2637 C2636 1.391 . S
C2638 H2628 0.950 . S
C2638 C2639 1.386 . S
C2638 C2640 1.391 . S
C2639 C2638 1.386 . S
C2639 C2643 1.393 . S
C2640 H2629 0.950 . S
C2640 C2638 1.391 . S
C2640 C2641 1.400 . S
C2641 C2635 1.491 1_455 S
C2641 C2640 1.400 . S
C2641 C2642 1.398 . S
C2642 H2630 0.950 . S
C2642 C2641 1.398 . S
C2642 C2643 1.391 . S
C2643 H2631 0.950 . S
C2643 C2639 1.393 . S
C2643 C2642 1.391 . S
H2644 C2652 0.950 . S
H2645 C2657 0.950 . S
H2646 C2654 0.950 . S
H2647 C2656 0.950 . S
H2648 C2658 0.950 . S
H2649 C2660 0.950 . S
H2650 C2662 0.950 . S
H2651 C2663 0.950 . S
C2652 H2644 0.950 . S
C2652 C2653 1.386 . S
C2652 C2654 1.391 . S
C2653 C2652 1.386 . S
C2653 C2657 1.393 . S
C2654 H2646 0.950 . S
C2654 C2652 1.391 . S
C2654 C2655 1.400 . S
C2655 C2654 1.400 . S
C2655 C2656 1.398 . S
C2655 C2661 1.491 . S
C2656 H2647 0.950 . S
C2656 C2655 1.398 . S
C2656 C2657 1.391 . S
C2657 H2645 0.950 . S
C2657 C2653 1.393 . S
C2657 C2656 1.391 . S
C2658 H2648 0.950 . S
C2658 C2659 1.386 . S
C2658 C2660 1.391 . S
C2659 C2658 1.386 . S
C2659 C2663 1.393 . S
C2660 H2649 0.950 . S
C2660 C2658 1.391 . S
C2660 C2661 1.400 . S
C2661 C2655 1.491 . S
C2661 C2660 1.400 . S
C2661 C2662 1.398 . S
C2662 H2650 0.950 . S
C2662 C2661 1.398 . S
C2662 C2663 1.391 . S
C2663 H2651 0.950 . S
C2663 C2659 1.393 . S
C2663 C2662 1.391 . S
H2664 C2672 0.950 . S
H2665 C2677 0.950 . S
H2666 C2674 0.950 . S
H2667 C2676 0.950 . S
H2668 C2678 0.950 . S
H2669 C2680 0.950 . S
H2670 C2682 0.950 . S
H2671 C2683 0.950 . S
C2672 H2664 0.950 . S
C2672 C2673 1.386 . S
C2672 C2674 1.391 . S
C2673 C2672 1.386 . S
C2673 C2677 1.393 . S
C2674 H2666 0.950 . S
C2674 C2672 1.391 . S
C2674 C2675 1.400 . S
C2675 C2674 1.400 . S
C2675 C2676 1.398 . S
C2675 C2681 1.491 . S
C2676 H2667 0.950 . S
C2676 C2675 1.398 . S
C2676 C2677 1.391 . S
C2677 H2665 0.950 . S
C2677 C2673 1.393 . S
C2677 C2676 1.391 . S
C2678 H2668 0.950 . S
C2678 C2679 1.386 . S
C2678 C2680 1.391 . S
C2679 C2678 1.386 . S
C2679 C2683 1.393 . S
C2680 H2669 0.950 . S
C2680 C2678 1.391 . S
C2680 C2681 1.400 . S
C2681 C2675 1.491 . S
C2681 C2680 1.400 . S
C2681 C2682 1.398 . S
C2682 H2670 0.950 . S
C2682 C2681 1.398 . S
C2682 C2683 1.391 . S
C2683 H2671 0.950 . S
C2683 C2679 1.393 . S
C2683 C2682 1.391 . S
H2684 C2692 0.950 . S
H2685 C2697 0.950 . S
H2686 C2694 0.950 . S
H2687 C2696 0.950 . S
H2688 C2698 0.950 . S
H2689 C2700 0.950 . S
H2690 C2702 0.950 . S
H2691 C2703 0.950 . S
C2692 H2684 0.950 . S
C2692 C2693 1.386 . S
C2692 C2694 1.391 . S
C2693 C2692 1.386 . S
C2693 C2697 1.393 . S
C2694 H2686 0.950 . S
C2694 C2692 1.391 . S
C2694 C2695 1.400 . S
C2695 C2694 1.400 . S
C2695 C2696 1.398 . S
C2695 C2701 1.491 . S
C2696 H2687 0.950 . S
C2696 C2695 1.398 . S
C2696 C2697 1.391 . S
C2697 H2685 0.950 . S
C2697 C2693 1.393 . S
C2697 C2696 1.391 . S
C2698 H2688 0.950 . S
C2698 C2699 1.386 . S
C2698 C2700 1.391 . S
C2699 C2698 1.386 . S
C2699 C2703 1.393 . S
C2700 H2689 0.950 . S
C2700 C2698 1.391 . S
C2700 C2701 1.400 . S
C2701 C2695 1.491 . S
C2701 C2700 1.400 . S
C2701 C2702 1.398 . S
C2702 H2690 0.950 . S
C2702 C2701 1.398 . S
C2702 C2703 1.391 . S
C2703 H2691 0.950 . S
C2703 C2699 1.393 . S
C2703 C2702 1.391 . S
H2704 C2712 0.950 . S
H2705 C2717 0.950 . S
H2706 C2714 0.950 . S
H2707 C2716 0.950 . S
H2708 C2718 0.950 . S
H2709 C2720 0.950 . S
H2710 C2722 0.950 . S
H2711 C2723 0.950 . S
C2712 H2704 0.950 . S
C2712 C2713 1.386 . S
C2712 C2714 1.391 . S
C2713 C2712 1.386 . S
C2713 C2717 1.393 . S
C2714 H2706 0.950 . S
C2714 C2712 1.391 . S
C2714 C2715 1.400 . S
C2715 C2714 1.400 . S
C2715 C2716 1.398 . S
C2715 C2721 1.491 . S
C2716 H2707 0.950 . S
C2716 C2715 1.398 . S
C2716 C2717 1.391 . S
C2717 H2705 0.950 . S
C2717 C2713 1.393 . S
C2717 C2716 1.391 . S
C2718 H2708 0.950 . S
C2718 C2719 1.386 . S
C2718 C2720 1.391 . S
C2719 C2718 1.386 . S
C2719 C2723 1.393 . S
C2720 H2709 0.950 . S
C2720 C2718 1.391 . S
C2720 C2721 1.400 . S
C2721 C2715 1.491 . S
C2721 C2720 1.400 . S
C2721 C2722 1.398 . S
C2722 H2710 0.950 . S
C2722 C2721 1.398 . S
C2722 C2723 1.391 . S
C2723 H2711 0.950 . S
C2723 C2719 1.393 . S
C2723 C2722 1.391 . S
H2724 C2732 0.950 . S
H2725 C2737 0.950 . S
H2726 C2734 0.950 . S
H2727 C2736 0.950 . S
H2728 C2738 0.950 . S
H2729 C2740 0.950 . S
H2730 C2742 0.950 . S
H2731 C2743 0.950 . S
C2732 H2724 0.950 . S
C2732 C2733 1.386 . S
C2732 C2734 1.391 . S
C2733 C2732 1.386 . S
C2733 C2737 1.393 . S
C2734 H2726 0.950 . S
C2734 C2732 1.391 . S
C2734 C2735 1.400 . S
C2735 C2734 1.400 . S
C2735 C2736 1.398 . S
C2735 C2741 1.491 . S
C2736 H2727 0.950 . S
C2736 C2735 1.398 . S
C2736 C2737 1.391 . S
C2737 H2725 0.950 . S
C2737 C2733 1.393 . S
C2737 C2736 1.391 . S
C2738 H2728 0.950 . S
C2738 C2739 1.386 . S
C2738 C2740 1.391 . S
C2739 C2738 1.386 . S
C2739 C2743 1.393 . S
C2740 H2729 0.950 . S
C2740 C2738 1.391 . S
C2740 C2741 1.400 . S
C2741 C2735 1.491 . S
C2741 C2740 1.400 . S
C2741 C2742 1.398 . S
C2742 H2730 0.950 . S
C2742 C2741 1.398 . S
C2742 C2743 1.391 . S
C2743 H2731 0.950 . S
C2743 C2739 1.393 . S
C2743 C2742 1.391 . S
H2744 C2752 0.950 . S
H2745 C2757 0.950 . S
H2746 C2754 0.950 . S
H2747 C2756 0.950 . S
H2748 C2758 0.950 . S
H2749 C2760 0.950 . S
H2750 C2762 0.950 . S
H2751 C2763 0.950 . S
C2752 H2744 0.950 . S
C2752 C2753 1.386 . S
C2752 C2754 1.391 . S
C2753 C2752 1.386 . S
C2753 C2757 1.393 . S
C2754 H2746 0.950 . S
C2754 C2752 1.391 . S
C2754 C2755 1.400 . S
C2755 C2754 1.400 . S
C2755 C2756 1.398 . S
C2755 C2761 1.491 . S
C2756 H2747 0.950 . S
C2756 C2755 1.398 . S
C2756 C2757 1.391 . S
C2757 H2745 0.950 . S
C2757 C2753 1.393 . S
C2757 C2756 1.391 . S
C2758 H2748 0.950 . S
C2758 C2759 1.386 . S
C2758 C2760 1.391 . S
C2759 C2758 1.386 . S
C2759 C2763 1.393 . S
C2760 H2749 0.950 . S
C2760 C2758 1.391 . S
C2760 C2761 1.400 . S
C2761 C2755 1.491 . S
C2761 C2760 1.400 . S
C2761 C2762 1.398 . S
C2762 H2750 0.950 . S
C2762 C2761 1.398 . S
C2762 C2763 1.391 . S
C2763 H2751 0.950 . S
C2763 C2759 1.393 . S
C2763 C2762 1.391 . S
H2764 C2772 0.950 . S
H2765 C2777 0.950 . S
H2766 C2774 0.950 . S
H2767 C2776 0.950 . S
H2768 C2778 0.950 . S
H2769 C2780 0.950 . S
H2770 C2782 0.950 . S
H2771 C2783 0.950 . S
C2772 H2764 0.950 . S
C2772 C2773 1.386 . S
C2772 C2774 1.391 . S
C2773 C2772 1.386 . S
C2773 C2777 1.393 . S
C2774 H2766 0.950 . S
C2774 C2772 1.391 . S
C2774 C2775 1.400 . S
C2775 C2774 1.400 . S
C2775 C2776 1.398 . S
C2775 C2781 1.491 . S
C2776 H2767 0.950 . S
C2776 C2775 1.398 . S
C2776 C2777 1.391 . S
C2777 H2765 0.950 . S
C2777 C2773 1.393 . S
C2777 C2776 1.391 . S
C2778 H2768 0.950 . S
C2778 C2779 1.386 . S
C2778 C2780 1.391 . S
C2779 C2778 1.386 . S
C2779 C2783 1.393 . S
C2780 H2769 0.950 . S
C2780 C2778 1.391 . S
C2780 C2781 1.400 . S
C2781 C2775 1.491 . S
C2781 C2780 1.400 . S
C2781 C2782 1.398 . S
C2782 H2770 0.950 . S
C2782 C2781 1.398 . S
C2782 C2783 1.391 . S
C2783 H2771 0.950 . S
C2783 C2779 1.393 . S
C2783 C2782 1.391 . S
H2784 C2792 0.950 . S
H2785 C2797 0.950 . S
H2786 C2794 0.950 . S
H2787 C2796 0.950 . S
H2788 C2798 0.950 . S
H2789 C2800 0.950 . S
H2790 C2802 0.950 . S
H2791 C2803 0.950 . S
C2792 H2784 0.950 . S
C2792 C2793 1.386 . S
C2792 C2794 1.391 . S
C2793 C2792 1.386 . S
C2793 C2797 1.393 . S
C2794 H2786 0.950 . S
C2794 C2792 1.391 . S
C2794 C2795 1.400 . S
C2795 C2794 1.400 . S
C2795 C2796 1.398 . S
C2795 C2801 1.491 . S
C2796 H2787 0.950 . S
C2796 C2795 1.398 . S
C2796 C2797 1.391 . S
C2797 H2785 0.950 . S
C2797 C2793 1.393 . S
C2797 C2796 1.391 . S
C2798 H2788 0.950 . S
C2798 C2799 1.386 . S
C2798 C2800 1.391 . S
C2799 C2798 1.386 . S
C2799 C2803 1.393 . S
C2800 H2789 0.950 . S
C2800 C2798 1.391 . S
C2800 C2801 1.400 . S
C2801 C2795 1.491 . S
C2801 C2800 1.400 . S
C2801 C2802 1.398 . S
C2802 H2790 0.950 . S
C2802 C2801 1.398 . S
C2802 C2803 1.391 . S
C2803 H2791 0.950 . S
C2803 C2799 1.393 . S
C2803 C2802 1.391 . S
H2804 C2812 0.950 . S
H2805 C2817 0.950 . S
H2806 C2814 0.950 . S
H2807 C2816 0.950 . S
H2808 C2818 0.950 . S
H2809 C2820 0.950 . S
H2810 C2822 0.950 . S
H2811 C2823 0.950 . S
C2812 H2804 0.950 . S
C2812 C2813 1.386 . S
C2812 C2814 1.391 . S
C2813 C2812 1.386 . S
C2813 C2817 1.393 . S
C2814 H2806 0.950 . S
C2814 C2812 1.391 . S
C2814 C2815 1.400 . S
C2815 C2814 1.400 . S
C2815 C2816 1.398 . S
C2815 C2821 1.491 . S
C2816 H2807 0.950 . S
C2816 C2815 1.398 . S
C2816 C2817 1.391 . S
C2817 H2805 0.950 . S
C2817 C2813 1.393 . S
C2817 C2816 1.391 . S
C2818 H2808 0.950 . S
C2818 C2819 1.386 . S
C2818 C2820 1.391 . S
C2819 C2818 1.386 . S
C2819 C2823 1.393 . S
C2820 H2809 0.950 . S
C2820 C2818 1.391 . S
C2820 C2821 1.400 . S
C2821 C2815 1.491 . S
C2821 C2820 1.400 . S
C2821 C2822 1.398 . S
C2822 H2810 0.950 . S
C2822 C2821 1.398 . S
C2822 C2823 1.391 . S
C2823 H2811 0.950 . S
C2823 C2819 1.393 . S
C2823 C2822 1.391 . S
H2824 C2832 0.950 . S
H2825 C2837 0.950 . S
H2826 C2834 0.950 . S
H2827 C2836 0.950 . S
H2828 C2838 0.950 . S
H2829 C2840 0.950 . S
H2830 C2842 0.950 . S
H2831 C2843 0.950 . S
C2832 H2824 0.950 . S
C2832 C2833 1.386 . S
C2832 C2834 1.391 . S
C2833 C2832 1.386 . S
C2833 C2837 1.393 . S
C2834 H2826 0.950 . S
C2834 C2832 1.391 . S
C2834 C2835 1.400 . S
C2835 C2834 1.400 . S
C2835 C2836 1.398 . S
C2835 C2841 1.491 . S
C2836 H2827 0.950 . S
C2836 C2835 1.398 . S
C2836 C2837 1.391 . S
C2837 H2825 0.950 . S
C2837 C2833 1.393 . S
C2837 C2836 1.391 . S
C2838 H2828 0.950 . S
C2838 C2839 1.386 . S
C2838 C2840 1.391 . S
C2839 C2838 1.386 . S
C2839 C2843 1.393 . S
C2840 H2829 0.950 . S
C2840 C2838 1.391 . S
C2840 C2841 1.400 . S
C2841 C2835 1.491 . S
C2841 C2840 1.400 . S
C2841 C2842 1.398 . S
C2842 H2830 0.950 . S
C2842 C2841 1.398 . S
C2842 C2843 1.391 . S
C2843 H2831 0.950 . S
C2843 C2839 1.393 . S
C2843 C2842 1.391 . S
H2844 C2852 0.950 . S
H2845 C2857 0.950 . S
H2846 C2854 0.950 . S
H2847 C2856 0.950 . S
H2848 C2858 0.950 . S
H2849 C2860 0.950 . S
H2850 C2862 0.950 . S
H2851 C2863 0.950 . S
C2852 H2844 0.950 . S
C2852 C2853 1.386 . S
C2852 C2854 1.391 . S
C2853 C2852 1.386 . S
C2853 C2857 1.393 . S
C2854 H2846 0.950 . S
C2854 C2852 1.391 . S
C2854 C2855 1.400 . S
C2855 C2854 1.400 . S
C2855 C2856 1.398 . S
C2855 C2861 1.491 . S
C2856 H2847 0.950 . S
C2856 C2855 1.398 . S
C2856 C2857 1.391 . S
C2857 H2845 0.950 . S
C2857 C2853 1.393 . S
C2857 C2856 1.391 . S
C2858 H2848 0.950 . S
C2858 C2859 1.386 . S
C2858 C2860 1.391 . S
C2859 C2858 1.386 . S
C2859 C2863 1.393 . S
C2860 H2849 0.950 . S
C2860 C2858 1.391 . S
C2860 C2861 1.400 . S
C2861 C2855 1.491 . S
C2861 C2860 1.400 . S
C2861 C2862 1.398 . S
C2862 H2850 0.950 . S
C2862 C2861 1.398 . S
C2862 C2863 1.391 . S
C2863 H2851 0.950 . S
C2863 C2859 1.393 . S
C2863 C2862 1.391 . S
H2864 C2872 0.950 . S
H2865 C2877 0.950 . S
H2866 C2874 0.950 . S
H2867 C2876 0.950 . S
H2868 C2878 0.950 . S
H2869 C2880 0.950 . S
H2870 C2882 0.950 . S
H2871 C2883 0.950 . S
C2872 H2864 0.950 . S
C2872 C2873 1.386 . S
C2872 C2874 1.391 . S
C2873 C2872 1.386 . S
C2873 C2877 1.393 . S
C2874 H2866 0.950 . S
C2874 C2872 1.391 . S
C2874 C2875 1.400 . S
C2875 C2874 1.400 . S
C2875 C2876 1.398 . S
C2875 C2881 1.491 . S
C2876 H2867 0.950 . S
C2876 C2875 1.398 . S
C2876 C2877 1.391 . S
C2877 H2865 0.950 . S
C2877 C2873 1.393 . S
C2877 C2876 1.391 . S
C2878 H2868 0.950 . S
C2878 C2879 1.386 . S
C2878 C2880 1.391 . S
C2879 C2878 1.386 . S
C2879 C2883 1.393 . S
C2880 H2869 0.950 . S
C2880 C2878 1.391 . S
C2880 C2881 1.400 . S
C2881 C2875 1.491 . S
C2881 C2880 1.400 . S
C2881 C2882 1.398 . S
C2882 H2870 0.950 . S
C2882 C2881 1.398 . S
C2882 C2883 1.391 . S
C2883 H2871 0.950 . S
C2883 C2879 1.393 . S
C2883 C2882 1.391 . S
H2884 C2892 0.950 . S
H2885 C2897 0.950 . S
H2886 C2894 0.950 . S
H2887 C2896 0.950 . S
H2888 C2898 0.950 . S
H2889 C2900 0.950 . S
H2890 C2902 0.950 . S
H2891 C2903 0.950 . S
C2892 H2884 0.950 . S
C2892 C2893 1.386 . S
C2892 C2894 1.391 . S
C2893 C2892 1.386 . S
C2893 C2897 1.393 . S
C2894 H2886 0.950 . S
C2894 C2892 1.391 . S
C2894 C2895 1.400 . S
C2895 C2894 1.400 . S
C2895 C2896 1.398 . S
C2895 C2901 1.491 . S
C2896 H2887 0.950 . S
C2896 C2895 1.398 . S
C2896 C2897 1.391 . S
C2897 H2885 0.950 . S
C2897 C2893 1.393 . S
C2897 C2896 1.391 . S
C2898 H2888 0.950 . S
C2898 C2899 1.386 . S
C2898 C2900 1.391 . S
C2899 C2898 1.386 . S
C2899 C2903 1.393 . S
C2900 H2889 0.950 . S
C2900 C2898 1.391 . S
C2900 C2901 1.400 . S
C2901 C2895 1.491 . S
C2901 C2900 1.400 . S
C2901 C2902 1.398 . S
C2902 H2890 0.950 . S
C2902 C2901 1.398 . S
C2902 C2903 1.391 . S
C2903 H2891 0.950 . S
C2903 C2899 1.393 . S
C2903 C2902 1.391 . S
H2904 C2912 0.950 . S
H2905 C2917 0.950 . S
H2906 C2914 0.950 . S
H2907 C2916 0.950 . S
H2908 C2918 0.950 . S
H2909 C2920 0.950 . S
H2910 C2922 0.950 . S
H2911 C2923 0.950 . S
C2912 H2904 0.950 . S
C2912 C2913 1.386 . S
C2912 C2914 1.391 . S
C2913 C2912 1.386 . S
C2913 C2917 1.393 . S
C2914 H2906 0.950 . S
C2914 C2912 1.391 . S
C2914 C2915 1.400 . S
C2915 C2914 1.400 . S
C2915 C2916 1.398 . S
C2915 C2921 1.491 . S
C2916 H2907 0.950 . S
C2916 C2915 1.398 . S
C2916 C2917 1.391 . S
C2917 H2905 0.950 . S
C2917 C2913 1.393 . S
C2917 C2916 1.391 . S
C2918 H2908 0.950 . S
C2918 C2919 1.386 . S
C2918 C2920 1.391 . S
C2919 C2918 1.386 . S
C2919 C2923 1.393 . S
C2920 H2909 0.950 . S
C2920 C2918 1.391 . S
C2920 C2921 1.400 . S
C2921 C2915 1.491 . S
C2921 C2920 1.400 . S
C2921 C2922 1.398 . S
C2922 H2910 0.950 . S
C2922 C2921 1.398 . S
C2922 C2923 1.391 . S
C2923 H2911 0.950 . S
C2923 C2919 1.393 . S
C2923 C2922 1.391 . S
H2924 C2932 0.950 . S
H2925 C2937 0.950 . S
H2926 C2934 0.950 1_565 S
H2927 C2936 0.950 . S
H2928 C2938 0.950 . S
H2929 C2940 0.950 1_545 S
H2930 C2942 0.950 . S
H2931 C2943 0.950 . S
C2932 H2924 0.950 . S
C2932 C2933 1.386 . S
C2932 C2934 1.391 . S
C2933 C2932 1.386 . S
C2933 C2937 1.393 . S
C2934 H2926 0.950 1_545 S
C2934 C2932 1.391 . S
C2934 C2935 1.400 . S
C2935 C2934 1.400 . S
C2935 C2936 1.398 . S
C2935 C2941 1.491 1_545 S
C2936 H2927 0.950 . S
C2936 C2935 1.398 . S
C2936 C2937 1.391 . S
C2937 H2925 0.950 . S
C2937 C2933 1.393 . S
C2937 C2936 1.391 . S
C2938 H2928 0.950 . S
C2938 C2939 1.386 . S
C2938 C2940 1.391 . S
C2939 C2938 1.386 . S
C2939 C2943 1.393 . S
C2940 H2929 0.950 1_565 S
C2940 C2938 1.391 . S
C2940 C2941 1.400 . S
C2941 C2935 1.491 1_565 S
C2941 C2940 1.400 . S
C2941 C2942 1.398 . S
C2942 H2930 0.950 . S
C2942 C2941 1.398 . S
C2942 C2943 1.391 . S
C2943 H2931 0.950 . S
C2943 C2939 1.393 . S
C2943 C2942 1.391 . S
H2944 C2952 0.950 . S
H2945 C2957 0.950 . S
H2946 C2954 0.950 . S
H2947 C2956 0.950 . S
H2948 C2958 0.950 . S
H2949 C2960 0.950 . S
H2950 C2962 0.950 . S
H2951 C2963 0.950 . S
C2952 H2944 0.950 . S
C2952 C2953 1.386 . S
C2952 C2954 1.391 . S
C2953 C2952 1.386 . S
C2953 C2957 1.393 . S
C2954 H2946 0.950 . S
C2954 C2952 1.391 . S
C2954 C2955 1.400 . S
C2955 C2954 1.400 . S
C2955 C2956 1.398 . S
C2955 C2961 1.491 1_655 S
C2956 H2947 0.950 . S
C2956 C2955 1.398 . S
C2956 C2957 1.391 . S
C2957 H2945 0.950 . S
C2957 C2953 1.393 . S
C2957 C2956 1.391 . S
C2958 H2948 0.950 . S
C2958 C2959 1.386 . S
C2958 C2960 1.391 . S
C2959 C2958 1.386 . S
C2959 C2963 1.393 . S
C2960 H2949 0.950 . S
C2960 C2958 1.391 . S
C2960 C2961 1.400 . S
C2961 C2955 1.491 1_455 S
C2961 C2960 1.400 . S
C2961 C2962 1.398 . S
C2962 H2950 0.950 . S
C2962 C2961 1.398 . S
C2962 C2963 1.391 . S
C2963 H2951 0.950 . S
C2963 C2959 1.393 . S
C2963 C2962 1.391 . S
H2964 C2972 0.950 . S
H2965 C2977 0.950 . S
H2966 C2974 0.950 . S
H2967 C2976 0.950 1_554 S
H2968 C2978 0.950 . S
H2969 C2980 0.950 . S
H2970 C2982 0.950 1_556 S
H2971 C2983 0.950 . S
C2972 H2964 0.950 . S
C2972 C2973 1.386 . S
C2972 C2974 1.391 . S
C2973 C2972 1.386 . S
C2973 C2977 1.393 . S
C2974 H2966 0.950 . S
C2974 C2972 1.391 . S
C2974 C2975 1.400 . S
C2975 C2974 1.400 . S
C2975 C2976 1.398 . S
C2975 C2981 1.491 1_556 S
C2976 H2967 0.950 1_556 S
C2976 C2975 1.398 . S
C2976 C2977 1.391 . S
C2977 H2965 0.950 . S
C2977 C2973 1.393 . S
C2977 C2976 1.391 . S
C2978 H2968 0.950 . S
C2978 C2979 1.386 . S
C2978 C2980 1.391 . S
C2979 C2978 1.386 . S
C2979 C2983 1.393 . S
C2980 H2969 0.950 . S
C2980 C2978 1.391 . S
C2980 C2981 1.400 . S
C2981 C2975 1.491 1_554 S
C2981 C2980 1.400 . S
C2981 C2982 1.398 . S
C2982 H2970 0.950 1_554 S
C2982 C2981 1.398 . S
C2982 C2983 1.391 . S
C2983 H2971 0.950 . S
C2983 C2979 1.393 . S
C2983 C2982 1.391 . S
H2984 C2992 0.950 1_554 S
H2985 C2997 0.950 . S
H2986 C2994 0.950 . S
H2987 C2996 0.950 1_565 S
H2988 C2998 0.950 1_556 S
H2989 C3000 0.950 . S
H2990 C3002 0.950 1_545 S
H2991 C3003 0.950 . S
C2992 H2984 0.950 1_556 S
C2992 C2993 1.386 . S
C2992 C2994 1.391 1_556 S
C2993 C2992 1.386 . S
C2993 C2997 1.393 . S
C2994 H2986 0.950 . S
C2994 C2992 1.391 1_554 S
C2994 C2995 1.400 1_554 S
C2995 C2994 1.400 1_556 S
C2995 C2996 1.398 . S
C2995 C3001 1.491 1_546 S
C2996 H2987 0.950 1_545 S
C2996 C2995 1.398 . S
C2996 C2997 1.391 . S
C2997 H2985 0.950 . S
C2997 C2993 1.393 . S
C2997 C2996 1.391 . S
C2998 H2988 0.950 1_554 S
C2998 C2999 1.386 . S
C2998 C3000 1.391 1_554 S
C2999 C2998 1.386 . S
C2999 C3003 1.393 . S
C3000 H2989 0.950 . S
C3000 C2998 1.391 1_556 S
C3000 C3001 1.400 1_556 S
C3001 C2995 1.491 1_564 S
C3001 C3000 1.400 1_554 S
C3001 C3002 1.398 . S
C3002 H2990 0.950 1_565 S
C3002 C3001 1.398 . S
C3002 C3003 1.391 . S
C3003 H2991 0.950 . S
C3003 C2999 1.393 . S
C3003 C3002 1.391 . S
H3004 C3012 0.935 1_556 S
H3005 C3017 0.950 . S
H3006 C3014 0.950 . S
H3007 C3016 0.950 . S
H3008 C3018 0.935 1_554 S
H3009 C3020 0.950 . S
H3010 C3022 0.950 . S
H3011 C3023 0.950 . S
C3012 H3004 0.935 1_554 S
C3012 C3013 1.410 . S
C3012 C3014 1.382 1_554 S
C3013 C3012 1.410 . S
C3013 C3017 1.393 . S
C3014 H3006 0.950 . S
C3014 C3012 1.382 1_556 S
C3014 C3015 1.400 1_556 S
C3015 C3014 1.400 1_554 S
C3015 C3016 1.398 . S
C3015 C3021 1.491 1_454 S
C3016 H3007 0.950 . S
C3016 C3015 1.398 . S
C3016 C3017 1.391 . S
C3017 H3005 0.950 . S
C3017 C3013 1.393 . S
C3017 C3016 1.391 . S
C3018 H3008 0.935 1_556 S
C3018 C3019 1.410 . S
C3018 C3020 1.382 1_556 S
C3019 C3018 1.410 . S
C3019 C3023 1.393 . S
C3020 H3009 0.950 . S
C3020 C3018 1.382 1_554 S
C3020 C3021 1.400 1_554 S
C3021 C3015 1.491 1_656 S
C3021 C3020 1.400 1_556 S
C3021 C3022 1.398 . S
C3022 H3010 0.950 . S
C3022 C3021 1.398 . S
C3022 C3023 1.391 . S
C3023 H3011 0.950 . S
C3023 C3019 1.393 . S
C3023 C3022 1.391 . S
C1233 C9 1.285 . S
C1239 C70 1.399 . S
C1253 C43 1.285 . S
C1259 C2 1.400 . S
C1273 C77 1.245 . S
C1279 C36 1.383 . S
C1293 C111 1.265 . S
C1299 C138 1.392 . S
C1313 C145 1.248 . S
C1319 C172 1.383 . S
C1333 C179 1.250 . S
C1339 C104 1.392 . S
C1353 C274 1.389 . S
C1359 C213 1.246 . S
C1373 C206 1.396 . S
C1379 C247 1.259 . S
C1393 C240 1.387 . S
C1399 C281 1.275 . S
C1413 C342 1.390 . S
C1419 C315 1.244 . S
C1433 C349 1.280 . S
C1439 C376 1.390 . S
C1453 C308 1.400 . S
C1459 C383 1.290 . S
C1473 C417 1.264 . S
C1479 C478 1.387 . S
C1493 C410 1.391 . S
C1499 C451 1.280 . S
C1513 C485 1.277 . S
C1519 C444 1.389 . S
C1533 C519 1.259 . S
C1539 C546 1.392 . S
C1553 C553 1.241 . S
C1559 C580 1.385 . S
C1573 C587 1.271 . S
C1579 C512 1.389 . S
C1593 C682 1.390 . S
C1599 C621 1.252 . S
C1613 C655 1.239 . S
C1619 C614 1.385 . S
C1633 C648 1.386 . S
C1639 C689 1.244 . S
C1653 C723 1.239 . S
C1659 C750 1.384 . S
C1673 C757 1.241 . S
C1679 C784 1.386 . S
C1693 C791 1.262 . S
C1699 C716 1.387 . S
C1713 C825 1.267 . S
C1719 C886 1.389 . S
C1733 C818 1.385 . S
C1739 C859 1.255 . S
C1753 C852 1.392 . S
C1759 C893 1.282 . S
C1773 C954 1.390 . S
C1779 C927 1.259 . S
C1793 C988 1.392 . S
C1799 C961 1.274 . S
C1813 C920 1.392 . S
C1819 C995 1.282 . S
C1833 C1090 1.392 . S
C1839 C1029 1.283 . S
C1853 C1022 1.385 . S
C1859 C1063 1.246 . S
C1873 C1097 1.257 . S
C1879 C1056 1.389 . S
C1893 C1158 1.393 . S
C1899 C1131 1.269 . S
C1913 C1192 1.386 . S
C1919 C1165 1.239 . S
C1933 C1124 1.384 . S
C1939 C1199 1.242 . S
C1953 C169 1.163 . S
C1959 C33 1.159 . S
C1973 C203 1.172 . S
C1979 C67 1.169 . S
C1993 C101 1.165 . S
C1999 C135 1.159 . S
C2013 C373 1.159 . S
C2019 C237 1.166 . S
C2033 C271 1.172 . S
C2039 C407 1.165 . S
C2053 C305 1.163 . S
C2059 C339 1.167 . S
C2073 C441 1.166 . S
C2079 C577 1.170 . S
C2093 C611 1.173 . S
C2099 C475 1.166 . S
C2113 C543 1.167 . S
C2119 C509 1.173 . S
C2133 C645 1.166 . S
C2139 C781 1.174 . S
C2153 C679 1.168 . S
C2159 C815 1.169 . S
C2173 C747 1.166 . S
C2179 C713 1.171 . S
C2193 C849 1.168 . S
C2199 C985 1.168 . S
C2213 C883 1.168 . S
C2219 C1019 1.173 . S
C2233 C951 1.171 . S
C2239 C917 1.171 . S
C2253 C1053 1.174 . S
C2259 C1189 1.168 . S
C2273 C1087 1.166 . S
C2279 C1223 1.171 . S
C2293 C1155 1.169 . S
C2299 C1121 1.167 . S
C2313 C1006 1.835 . S
C2319 C20 1.830 . S
C2333 C938 1.835 . S
C2339 C54 1.839 . S
C2353 C88 1.831 . S
C2359 C972 1.823 . S
C2373 C122 1.831 . S
C2379 C462 1.834 . S
C2393 C496 1.833 . S
C2399 C156 1.824 . S
C2413 C190 1.839 . S
C2419 C428 1.835 . S
C2433 C224 1.835 . S
C2439 C802 1.835 . S
C2453 C258 1.836 . S
C2459 C734 1.839 . S
C2473 C768 1.832 . S
C2479 C292 1.823 . S
C2493 C1074 1.836 . S
C2499 C326 1.831 . S
C2513 C360 1.833 . S
C2519 C1108 1.826 . S
C2533 C394 1.838 . S
C2539 C1040 1.836 . S
C2553 C870 1.840 . S
C2559 C530 1.841 . S
C2573 C564 1.844 . S
C2579 C904 1.840 . S
C2593 C836 1.837 . S
C2599 C598 1.842 . S
C2613 C632 1.837 . S
C2619 C1210 1.841 . S
C2633 C666 1.842 . S
C2639 C1142 1.838 . S
C2653 C700 1.839 . S
C2659 C1176 1.841 . S
C2673 C5 1.489 . S
C2679 C617 1.494 . S
C2693 C651 1.476 . S
C2699 C39 1.476 . S
C2713 C685 1.498 . S
C2719 C73 1.500 . S
C2733 C107 1.498 . S
C2739 C1127 1.504 . S
C2753 C1161 1.501 . S
C2759 C141 1.503 . S
C2773 C175 1.477 . S
C2779 C1195 1.477 . S
C2793 C821 1.504 . S
C2799 C209 1.509 . S
C2813 C243 1.482 . S
C2819 C855 1.482 . S
C2833 C277 1.500 . S
C2839 C889 1.502 . S
C2853 C311 1.497 . S
C2859 C515 1.503 . S
C2873 C345 1.500 . S
C2879 C549 1.502 . S
C2893 C583 1.476 . S
C2899 C379 1.476 . S
C2913 C1025 1.495 . S
C2919 C413 1.495 . S
C2933 C447 1.493 . S
C2939 C1059 1.493 . S
C2953 C481 1.481 . S
C2959 C1093 1.481 . S
C2973 C719 1.487 . S
C2979 C923 1.487 . S
C2993 C753 1.482 . S
C2999 C957 1.482 . S
C3013 C991 1.502 . S
C3019 C787 1.502 . S
