# Generated by pormake.
# Topology utp, (3)-cn, num edge types: 1
# Building blocks:
#     Node 0, Type 0, BuildingBlock: WUSLED_clean_sbu_0, # of connection points: 3
#     Node 1, Type 0, BuildingBlock: WUSLED_clean_sbu_0, # of connection points: 3
#     Node 2, Type 0, BuildingBlock: WUSLED_clean_sbu_0, # of connection points: 3
#     Node 3, Type 0, BuildingBlock: WUSLED_clean_sbu_0, # of connection points: 3
#     Node 4, Type 0, BuildingBlock: WUSLED_clean_sbu_0, # of connection points: 3
#     Node 5, Type 0, BuildingBlock: WUSLED_clean_sbu_0, # of connection points: 3
#     Node 6, Type 0, BuildingBlock: WUSLED_clean_sbu_0, # of connection points: 3
#     Node 7, Type 0, BuildingBlock: WUSLED_clean_sbu_0, # of connection points: 3
#     Edge 8, Type (0, 0), BuildingBlock: UVAHIK_clean_linker_0, # of connection points: 2
#     Edge 9, Type (0, 0), BuildingBlock: UVAHIK_clean_linker_0, # of connection points: 2
#     Edge 10, Type (0, 0), BuildingBlock: UVAHIK_clean_linker_0, # of connection points: 2
#     Edge 11, Type (0, 0), BuildingBlock: UVAHIK_clean_linker_0, # of connection points: 2
#     Edge 12, Type (0, 0), BuildingBlock: UVAHIK_clean_linker_0, # of connection points: 2
#     Edge 13, Type (0, 0), BuildingBlock: UVAHIK_clean_linker_0, # of connection points: 2
#     Edge 14, Type (0, 0), BuildingBlock: UVAHIK_clean_linker_0, # of connection points: 2
#     Edge 15, Type (0, 0), BuildingBlock: UVAHIK_clean_linker_0, # of connection points: 2
#     Edge 16, Type (0, 0), BuildingBlock: UVAHIK_clean_linker_0, # of connection points: 2
#     Edge 17, Type (0, 0), BuildingBlock: UVAHIK_clean_linker_0, # of connection points: 2
#     Edge 18, Type (0, 0), BuildingBlock: UVAHIK_clean_linker_0, # of connection points: 2
#     Edge 19, Type (0, 0), BuildingBlock: UVAHIK_clean_linker_0, # of connection points: 2
# Relax obj value: 0.000
# Max RMSD: 0.004
# Mean RMSD: 0.004
data_MOF--net-utp--node1-WUSLED_clean_sbu_0--edge1-UVAHIK_clean_linker_0
_symmetry_space_group_name_H-M    P1
_symmetry_Int_Tables_number       1
_symmetry_cell_setting            triclinic
loop_
_symmetry_equiv_pos_as_xyz
'x, y, z'
_cell_length_a     92.802224
_cell_length_b     81.540166
_cell_length_c     22.338937
_cell_angle_alpha  90.031253
_cell_angle_beta   90.030645
_cell_angle_gamma 90.057516
loop_
_atom_site_label
_atom_site_type_symbol
_atom_site_fract_x
_atom_site_fract_y
_atom_site_fract_z
_atom_type_partial_charge
C0 C 0.09937 0.09325 0.08467 0.0
C1 C 0.10149 0.07621 0.08511 0.0
C2 C 0.0765 0.07179 0.05472 0.0
C3 C 0.09015 0.06557 0.07042 0.0
C4 C 0.07452 0.0889 0.05396 0.0
C5 C 0.08583 0.0995 0.06883 0.0
U6 U 0.13913 0.10311 0.11542 0.0
O7 O 0.15184 0.12489 0.09095 0.0
O8 O 0.1488 0.11861 0.1856 0.0
C9 C 0.15383 0.12933 0.14695 0.0
C10 C 0.11104 0.10469 0.10102 0.0
C11 C 0.15105 0.14672 0.16101 0.0
C12 C 0.13599 0.17114 0.15747 0.0
C13 C 0.13818 0.1545 0.14419 0.0
C14 C 0.15943 0.17229 0.20496 0.0
C15 C 0.14661 0.18025 0.18809 0.0
C16 C 0.16161 0.15572 0.19154 0.0
C17 C 0.16717 0.06841 0.10091 0.0
C18 C 0.19307 0.07191 0.11257 0.0
C19 C 0.18316 0.04491 0.09371 0.0
C20 C 0.16929 0.05157 0.09239 0.0
C21 C 0.19526 0.05498 0.10353 0.0
C22 C 0.17914 0.07857 0.11122 0.0
C23 C 0.15241 0.07501 0.09836 0.0
O24 O 0.11724 0.10203 0.15302 0.0
O25 O 0.12028 0.10815 0.05828 0.0
O26 O 0.14981 0.08556 0.05522 0.0
O27 O 0.14672 0.07933 0.14985 0.0
H28 H 0.1119 0.07115 0.09695 0.0
H29 H 0.09211 0.05248 0.07078 0.0
H30 H 0.06413 0.09413 0.04289 0.0
H31 H 0.08398 0.11262 0.06833 0.0
H32 H 0.12593 0.17682 0.14434 0.0
H33 H 0.12985 0.14773 0.12077 0.0
H34 H 0.16793 0.17893 0.22772 0.0
H35 H 0.17163 0.14995 0.20474 0.0
H36 H 0.20213 0.08006 0.11971 0.0
H37 H 0.18438 0.0318 0.08763 0.0
H38 H 0.16017 0.04352 0.08464 0.0
H39 H 0.1777 0.09163 0.11786 0.0
C40 C 0.43324 0.94287 0.09134 0.0
C41 C 0.43037 0.95895 0.07234 0.0
C42 C 0.45617 0.96448 0.06384 0.0
C43 C 0.44174 0.96965 0.05857 0.0
C44 C 0.45892 0.94832 0.08286 0.0
C45 C 0.44757 0.93765 0.09643 0.0
U46 U 0.39341 0.93274 0.12039 0.0
O47 O 0.38083 0.91098 0.09442 0.0
O48 O 0.38383 0.91683 0.18951 0.0
C49 C 0.37892 0.90623 0.15011 0.0
C50 C 0.42152 0.93139 0.10639 0.0
C51 C 0.3818 0.88879 0.16317 0.0
C52 C 0.39583 0.8638 0.15058 0.0
C53 C 0.39364 0.88049 0.1384 0.0
C54 C 0.37452 0.86362 0.21306 0.0
C55 C 0.38627 0.85514 0.18805 0.0
C56 C 0.37232 0.88024 0.2007 0.0
C57 C 0.36505 0.96719 0.10946 0.0
C58 C 0.33904 0.96343 0.10588 0.0
C59 C 0.34905 0.9906 0.11996 0.0
C60 C 0.36296 0.98406 0.11774 0.0
C61 C 0.33689 0.9804 0.11383 0.0
C62 C 0.353 0.95687 0.10389 0.0
C63 C 0.37989 0.96079 0.10592 0.0
O64 O 0.41528 0.93378 0.15845 0.0
O65 O 0.4123 0.92819 0.06322 0.0
O66 O 0.38259 0.95057 0.0618 0.0
O67 O 0.38572 0.95627 0.15691 0.0
H68 H 0.41936 0.96322 0.06838 0.0
H69 H 0.43922 0.98204 0.04468 0.0
H70 H 0.46986 0.94384 0.0866 0.0
H71 H 0.44999 0.92528 0.1109 0.0
H72 H 0.40507 0.85771 0.13108 0.0
H73 H 0.40115 0.88689 0.10954 0.0
H74 H 0.36682 0.85733 0.24138 0.0
H75 H 0.3631 0.88641 0.22014 0.0
H76 H 0.32993 0.9552 0.10168 0.0
H77 H 0.34783 1.00373 0.1253 0.0
H78 H 0.37212 0.99222 0.12199 0.0
H79 H 0.35439 0.94379 0.09778 0.0
C80 C 0.09873 0.4425 0.39631 0.0
C81 C 0.10161 0.45868 0.41423 0.0
C82 C 0.07582 0.46424 0.42205 0.0
C83 C 0.09025 0.46945 0.42711 0.0
C84 C 0.07306 0.44801 0.40384 0.0
C85 C 0.08441 0.43727 0.39115 0.0
U86 U 0.13865 0.43219 0.37145 0.0
O87 O 0.15113 0.41082 0.40246 0.0
O88 O 0.14865 0.41549 0.30627 0.0
C89 C 0.15333 0.40539 0.34782 0.0
C90 C 0.11047 0.43088 0.38324 0.0
C91 C 0.15049 0.38777 0.33792 0.0
C92 C 0.13535 0.36536 0.30247 0.0
C93 C 0.13748 0.38215 0.31316 0.0
C94 C 0.1591 0.35963 0.3422 0.0
C95 C 0.14616 0.35388 0.31676 0.0
C96 C 0.16123 0.37638 0.35256 0.0
C97 C 0.16677 0.46701 0.38199 0.0
C98 C 0.19262 0.4635 0.36879 0.0
C99 C 0.18291 0.49037 0.3912 0.0
C100 C 0.169 0.48376 0.39239 0.0
C101 C 0.19492 0.48034 0.3796 0.0
C102 C 0.17865 0.45688 0.37006 0.0
C103 C 0.15197 0.46048 0.38406 0.0
O104 O 0.11695 0.43282 0.33143 0.0
O105 O 0.11949 0.42806 0.42744 0.0
O106 O 0.14902 0.45067 0.42907 0.0
O107 O 0.14662 0.45533 0.3329 0.0
H108 H 0.11263 0.46296 0.41828 0.0
H109 H 0.09278 0.4819 0.44034 0.0
H110 H 0.06211 0.44349 0.40027 0.0
H111 H 0.08198 0.42481 0.37755 0.0
H112 H 0.1252 0.36135 0.28345 0.0
H113 H 0.129 0.39072 0.3018 0.0
H114 H 0.16773 0.35121 0.35302 0.0
H115 H 0.17136 0.38046 0.37156 0.0
H116 H 0.20162 0.45539 0.36025 0.0
H117 H 0.18421 0.50341 0.3987 0.0
H118 H 0.15995 0.49177 0.40143 0.0
H119 H 0.17713 0.44389 0.362 0.0
C120 C 0.43317 0.5918 0.39591 0.0
C121 C 0.43021 0.57625 0.4199 0.0
C122 C 0.45595 0.57005 0.42372 0.0
C123 C 0.4415 0.56548 0.43382 0.0
C124 C 0.45878 0.58563 0.39922 0.0
C125 C 0.44751 0.59637 0.38553 0.0
U126 U 0.39344 0.60265 0.3675 0.0
O127 O 0.38106 0.6242 0.39778 0.0
O128 O 0.38399 0.61958 0.30174 0.0
C129 C 0.37927 0.62975 0.34304 0.0
C130 C 0.42155 0.60353 0.38212 0.0
C131 C 0.38235 0.64737 0.33376 0.0
C132 C 0.39657 0.66953 0.29049 0.0
C133 C 0.39441 0.65276 0.30115 0.0
C134 C 0.37487 0.67577 0.34605 0.0
C135 C 0.38677 0.68125 0.31256 0.0
C136 C 0.37268 0.65903 0.35638 0.0
C137 C 0.36478 0.56829 0.37325 0.0
C138 C 0.3388 0.57204 0.37903 0.0
C139 C 0.34865 0.54507 0.35951 0.0
C140 C 0.36259 0.55156 0.36203 0.0
C141 C 0.33656 0.55519 0.36826 0.0
C142 C 0.35279 0.57854 0.38134 0.0
C143 C 0.37966 0.57458 0.37744 0.0
O144 O 0.41535 0.60177 0.3296 0.0
O145 O 0.41232 0.60637 0.42551 0.0
O146 O 0.3825 0.58421 0.42317 0.0
O147 O 0.38545 0.5797 0.32713 0.0
H148 H 0.41919 0.57247 0.42799 0.0
H149 H 0.43891 0.55353 0.45196 0.0
H150 H 0.46975 0.58966 0.39159 0.0
H151 H 0.45001 0.60834 0.36718 0.0
H152 H 0.40594 0.67333 0.26515 0.0
H153 H 0.40209 0.64402 0.28345 0.0
H154 H 0.36701 0.6844 0.36311 0.0
H155 H 0.36328 0.65515 0.38145 0.0
H156 H 0.32974 0.58022 0.38529 0.0
H157 H 0.34737 0.53203 0.35196 0.0
H158 H 0.37171 0.54345 0.35582 0.0
H159 H 0.35425 0.59152 0.38976 0.0
C160 C 0.93319 0.94304 0.89192 0.0
C161 C 0.93101 0.96006 0.89027 0.0
C162 C 0.956 0.96474 0.92035 0.0
C163 C 0.94232 0.97082 0.90423 0.0
C164 C 0.95804 0.94763 0.92202 0.0
C165 C 0.94675 0.93692 0.90794 0.0
U166 U 0.89351 0.93279 0.85975 0.0
O167 O 0.8842 0.91578 0.79371 0.0
O168 O 0.88059 0.91163 0.88957 0.0
C169 C 0.87892 0.90596 0.83491 0.0
C170 C 0.92151 0.93144 0.87721 0.0
C171 C 0.88169 0.88829 0.82667 0.0
C172 C 0.89766 0.8654 0.80446 0.0
C173 C 0.89549 0.88227 0.81324 0.0
C174 C 0.87232 0.86046 0.82315 0.0
C175 C 0.88608 0.85428 0.80936 0.0
C176 C 0.87017 0.87727 0.83167 0.0
C177 C 0.86522 0.96739 0.86273 0.0
C178 C 0.83922 0.96361 0.86706 0.0
C179 C 0.84916 0.99063 0.84907 0.0
C180 C 0.86309 0.98414 0.852 0.0
C181 C 0.83703 0.98048 0.85695 0.0
C182 C 0.85319 0.95711 0.86977 0.0
C183 C 0.88006 0.96108 0.86793 0.0
O184 O 0.91202 0.92887 0.91981 0.0
O185 O 0.91561 0.93317 0.82408 0.0
O186 O 0.88599 0.95576 0.81816 0.0
O187 O 0.88266 0.95155 0.91414 0.0
H188 H 0.92057 0.96501 0.87825 0.0
H189 H 0.94031 0.9839 0.90312 0.0
H190 H 0.96845 0.9425 0.93337 0.0
H191 H 0.94864 0.92381 0.90936 0.0
H192 H 0.90841 0.86106 0.79449 0.0
H193 H 0.90455 0.89059 0.80942 0.0
H194 H 0.86312 0.85232 0.8264 0.0
H195 H 0.85943 0.88168 0.8418 0.0
H196 H 0.83013 0.9554 0.87261 0.0
H197 H 0.84791 1.00369 0.842 0.0
H198 H 0.87224 0.99228 0.8466 0.0
H199 H 0.85461 0.94411 0.87782 0.0
C200 C 0.5991 0.09255 0.89007 0.0
C201 C 0.60145 0.07558 0.89411 0.0
C202 C 0.57617 0.07121 0.9202 0.0
C203 C 0.59008 0.065 0.90893 0.0
C204 C 0.57395 0.08825 0.91614 0.0
C205 C 0.5853 0.09879 0.90122 0.0
U206 U 0.63892 0.10231 0.85973 0.0
O207 O 0.64858 0.1181 0.79047 0.0
O208 O 0.65168 0.12395 0.88548 0.0
C209 C 0.65362 0.12865 0.82978 0.0
C210 C 0.61083 0.10393 0.87417 0.0
C211 C 0.65082 0.1461 0.81692 0.0
C212 C 0.6359 0.17058 0.82369 0.0
C213 C 0.63809 0.15386 0.83555 0.0
C214 C 0.65905 0.17183 0.7739 0.0
C215 C 0.64638 0.17978 0.79269 0.0
C216 C 0.66123 0.15519 0.78592 0.0
C217 C 0.66701 0.06765 0.87241 0.0
C218 C 0.69283 0.07127 0.85864 0.0
C219 C 0.68317 0.04433 0.88056 0.0
C220 C 0.66926 0.05089 0.88227 0.0
C221 C 0.69517 0.05443 0.86899 0.0
C222 C 0.67886 0.07783 0.8604 0.0
C223 C 0.65222 0.07416 0.87528 0.0
O224 O 0.6201 0.1072 0.91706 0.0
O225 O 0.61702 0.10135 0.82209 0.0
O226 O 0.64651 0.07867 0.82403 0.0
O227 O 0.64959 0.08452 0.91902 0.0
H228 H 0.61206 0.07054 0.88586 0.0
H229 H 0.59222 0.05198 0.9123 0.0
H230 H 0.56337 0.09345 0.92366 0.0
H231 H 0.58327 0.11184 0.89815 0.0
H232 H 0.62596 0.17625 0.83826 0.0
H233 H 0.62988 0.14703 0.85936 0.0
H234 H 0.66744 0.17854 0.75076 0.0
H235 H 0.67114 0.14942 0.77133 0.0
H236 H 0.7018 0.07944 0.85015 0.0
H237 H 0.6845 0.03129 0.88772 0.0
H238 H 0.66023 0.04283 0.89135 0.0
H239 H 0.67731 0.09083 0.85272 0.0
C240 C 0.93338 0.59264 0.59699 0.0
C241 C 0.931 0.57566 0.59398 0.0
C242 C 0.95617 0.57119 0.56645 0.0
C243 C 0.9423 0.56502 0.57896 0.0
C244 C 0.95843 0.58824 0.5695 0.0
C245 C 0.94715 0.59884 0.58463 0.0
U246 U 0.89371 0.6024 0.62996 0.0
O247 O 0.88431 0.61855 0.69857 0.0
O248 O 0.88077 0.62381 0.60341 0.0
C249 C 0.87897 0.62877 0.6589 0.0
C250 C 0.92171 0.60408 0.61294 0.0
C251 C 0.8816 0.64633 0.67037 0.0
C252 C 0.89743 0.67011 0.67532 0.0
C253 C 0.89531 0.65337 0.66345 0.0
C254 C 0.8722 0.67284 0.70095 0.0
C255 C 0.8859 0.68004 0.69456 0.0
C256 C 0.87009 0.65618 0.689 0.0
C257 C 0.86555 0.56767 0.62326 0.0
C258 C 0.83954 0.57145 0.62247 0.0
C259 C 0.84956 0.54423 0.63428 0.0
C260 C 0.86348 0.55078 0.63101 0.0
C261 C 0.8374 0.55445 0.62975 0.0
C262 C 0.8535 0.57801 0.61942 0.0
C263 C 0.88036 0.57411 0.61828 0.0
O264 O 0.91222 0.607 0.5706 0.0
O265 O 0.9158 0.60183 0.66577 0.0
O266 O 0.88638 0.57895 0.66852 0.0
O267 O 0.88282 0.58412 0.57331 0.0
H268 H 0.92041 0.57065 0.60318 0.0
H269 H 0.94013 0.55199 0.57639 0.0
H270 H 0.96898 0.59342 0.56103 0.0
H271 H 0.9492 0.61191 0.58688 0.0
H272 H 0.90815 0.67521 0.67039 0.0
H273 H 0.90434 0.64593 0.64918 0.0
H274 H 0.86302 0.68012 0.71462 0.0
H275 H 0.85942 0.65097 0.69435 0.0
H276 H 0.83043 0.5797 0.61953 0.0
H277 H 0.84835 0.53109 0.63909 0.0
H278 H 0.87265 0.54261 0.63395 0.0
H279 H 0.85488 0.59111 0.61375 0.0
C280 C 0.599 0.44331 0.60556 0.0
C281 C 0.60185 0.45893 0.58197 0.0
C282 C 0.57608 0.46501 0.57926 0.0
C283 C 0.59049 0.46967 0.56879 0.0
C284 C 0.57336 0.44938 0.60351 0.0
C285 C 0.5847 0.43866 0.61645 0.0
U286 U 0.63889 0.43275 0.63006 0.0
O287 O 0.64885 0.41573 0.69424 0.0
O288 O 0.65131 0.41148 0.59777 0.0
C289 C 0.65349 0.4058 0.65206 0.0
C290 C 0.61071 0.43161 0.61822 0.0
C291 C 0.65061 0.38814 0.66078 0.0
C292 C 0.63555 0.36562 0.69576 0.0
C293 C 0.63771 0.38245 0.68634 0.0
C294 C 0.65901 0.35997 0.65318 0.0
C295 C 0.6462 0.35416 0.67939 0.0
C296 C 0.66119 0.37676 0.64408 0.0
C297 C 0.66713 0.46746 0.6213 0.0
C298 C 0.69303 0.46365 0.63103 0.0
C299 C 0.6833 0.49087 0.61555 0.0
C300 C 0.66936 0.48434 0.61439 0.0
C301 C 0.69534 0.48062 0.62359 0.0
C302 C 0.67903 0.45712 0.62982 0.0
C303 C 0.6523 0.46102 0.61899 0.0
O304 O 0.61971 0.42885 0.57394 0.0
O305 O 0.61719 0.43335 0.67015 0.0
O306 O 0.64697 0.45569 0.66989 0.0
O307 O 0.64928 0.4514 0.57344 0.0
H308 H 0.61284 0.46278 0.5735 0.0
H309 H 0.593 0.48167 0.55086 0.0
H310 H 0.56242 0.44528 0.61143 0.0
H311 H 0.58229 0.42663 0.63453 0.0
H312 H 0.6255 0.36156 0.71543 0.0
H313 H 0.62935 0.39101 0.69927 0.0
H314 H 0.66752 0.35155 0.64076 0.0
H315 H 0.67123 0.38089 0.62444 0.0
H316 H 0.70205 0.45538 0.63679 0.0
H317 H 0.68461 0.504 0.61073 0.0
H318 H 0.66029 0.49252 0.60803 0.0
H319 H 0.6775 0.44403 0.63518 0.0
C320 C 0.13829 0.20869 0.15988 0.0
C321 C 0.14448 0.19799 0.20208 0.0
C322 C 0.13698 0.22548 0.17214 0.0
C323 C 0.13737 0.2558 0.2969 0.0
H324 H 0.14713 0.28682 0.17184 0.0
C325 C 0.14894 0.32421 0.34581 0.0
C326 C 0.14414 0.33603 0.30451 0.0
C327 C 0.14769 0.30745 0.3333 0.0
C328 C 0.14416 0.27836 0.20708 0.0
H329 H 0.15369 0.19661 0.29118 0.0
H330 H 0.15165 0.22582 0.31208 0.0
H331 H 0.1472 0.25752 0.15005 0.0
H332 H 0.13411 0.33936 0.21769 0.0
H333 H 0.13175 0.3101 0.19615 0.0
H334 H 0.13451 0.27663 0.35413 0.0
C335 C 0.14771 0.22125 0.26958 0.0
C336 C 0.1442 0.26152 0.19456 0.0
C337 C 0.14904 0.20449 0.25729 0.0
C338 C 0.13783 0.33061 0.25073 0.0
C339 C 0.13662 0.31383 0.23809 0.0
C340 C 0.13735 0.27263 0.30942 0.0
C341 C 0.14177 0.23201 0.22702 0.0
C342 C 0.14094 0.25 0.23947 0.0
C343 C 0.14162 0.30202 0.27905 0.0
C344 C 0.14088 0.28413 0.26486 0.0
H345 H 0.13475 0.20415 0.11673 0.0
H346 H 0.1322 0.23336 0.13855 0.0
H347 H 0.13454 0.24733 0.33233 0.0
H348 H 0.15371 0.32792 0.38796 0.0
H349 H 0.15178 0.29874 0.36568 0.0
C350 C 0.38581 0.83096 0.2582 0.0
C351 C 0.38833 0.83731 0.20059 0.0
C352 C 0.38705 0.81414 0.26952 0.0
C353 C 0.38615 0.77385 0.19316 0.0
H354 H 0.40167 0.75805 0.34361 0.0
C355 C 0.3929 0.70448 0.24254 0.0
C356 C 0.38871 0.69909 0.29977 0.0
C357 C 0.39399 0.72126 0.22975 0.0
C358 C 0.39719 0.76225 0.30156 0.0
H359 H 0.39431 0.83081 0.10981 0.0
H360 H 0.3967 0.8015 0.12974 0.0
H361 H 0.40164 0.78739 0.32245 0.0
H362 H 0.38282 0.7072 0.38891 0.0
H363 H 0.38456 0.73639 0.3665 0.0
H364 H 0.38159 0.74872 0.17249 0.0
C365 C 0.3936 0.80954 0.1661 0.0
C366 C 0.39717 0.7791 0.2894 0.0
C367 C 0.39239 0.82639 0.15481 0.0
C368 C 0.38592 0.7109 0.34417 0.0
C369 C 0.38707 0.72766 0.33148 0.0
C370 C 0.38618 0.757 0.20529 0.0
C371 C 0.39084 0.80317 0.22353 0.0
C372 C 0.39153 0.78515 0.23526 0.0
C373 C 0.39099 0.73308 0.27395 0.0
C374 C 0.39159 0.75098 0.25988 0.0
H375 H 0.38284 0.83901 0.29473 0.0
H376 H 0.38471 0.80971 0.31415 0.0
H377 H 0.38152 0.77804 0.15139 0.0
H378 H 0.39501 0.69574 0.20711 0.0
H379 H 0.39718 0.72497 0.18515 0.0
C380 C 0.89693 0.83047 0.75288 0.0
C381 C 0.88821 0.83632 0.79976 0.0
C382 C 0.89829 0.81359 0.7423 0.0
C383 C 0.89286 0.77283 0.81364 0.0
H384 H 0.8906 0.75702 0.6502 0.0
C385 C 0.88108 0.70504 0.75753 0.0
C386 C 0.88802 0.69782 0.70817 0.0
C387 C 0.88252 0.72181 0.76924 0.0
C388 C 0.89147 0.76121 0.69606 0.0
H389 H 0.87448 0.82888 0.87346 0.0
H390 H 0.87668 0.79959 0.85459 0.0
H391 H 0.89064 0.78646 0.66974 0.0
H392 H 0.90209 0.70268 0.63275 0.0
H393 H 0.90477 0.73195 0.65371 0.0
H394 H 0.89353 0.74761 0.84006 0.0
C395 C 0.88254 0.80801 0.82609 0.0
C396 C 0.89149 0.77813 0.70729 0.0
C397 C 0.88114 0.82485 0.83651 0.0
C398 C 0.89666 0.7078 0.67137 0.0
C399 C 0.89807 0.72462 0.68303 0.0
C400 C 0.89285 0.75594 0.80243 0.0
C401 C 0.89105 0.80214 0.77858 0.0
C402 C 0.89199 0.78416 0.76629 0.0
C403 C 0.89095 0.73188 0.73197 0.0
C404 C 0.89195 0.74989 0.74355 0.0
H405 H 0.90244 0.83895 0.72343 0.0
H406 H 0.90504 0.80952 0.70569 0.0
H407 H 0.89354 0.77702 0.85957 0.0
H408 H 0.8745 0.69772 0.78732 0.0
H409 H 0.87674 0.72696 0.80693 0.0
C410 C 0.63814 0.33054 0.74416 0.0
C411 C 0.64414 0.33625 0.69023 0.0
C412 C 0.6369 0.31368 0.75541 0.0
C413 C 0.63692 0.27296 0.68038 0.0
H414 H 0.64773 0.25676 0.83723 0.0
C415 C 0.64852 0.20442 0.7253 0.0
C416 C 0.64427 0.19762 0.78041 0.0
C417 C 0.64722 0.22126 0.71459 0.0
C418 C 0.64446 0.26107 0.79343 0.0
H419 H 0.65312 0.32861 0.60507 0.0
H420 H 0.65115 0.29932 0.62491 0.0
H421 H 0.6477 0.2862 0.81805 0.0
H422 H 0.63513 0.20332 0.86727 0.0
H423 H 0.63263 0.23267 0.84824 0.0
H424 H 0.63381 0.24783 0.65557 0.0
C425 C 0.64732 0.30784 0.6585 0.0
C426 C 0.64444 0.27798 0.78242 0.0
C427 C 0.6486 0.32467 0.64737 0.0
C428 C 0.63842 0.20809 0.82416 0.0
C429 C 0.63714 0.22497 0.81348 0.0
C430 C 0.63692 0.25605 0.6914 0.0
C431 C 0.64157 0.30211 0.71288 0.0
C432 C 0.64082 0.28414 0.72555 0.0
C433 C 0.64162 0.2318 0.75868 0.0
C434 C 0.64084 0.24986 0.7479 0.0
H435 H 0.63469 0.33909 0.77836 0.0
H436 H 0.63229 0.30972 0.79751 0.0
H437 H 0.63382 0.27726 0.63637 0.0
H438 H 0.65291 0.19671 0.69027 0.0
H439 H 0.65091 0.22605 0.67209 0.0
C440 C 0.31149 0.98218 0.07429 0.0
C441 C 0.32209 0.98756 0.11483 0.0
C442 C 0.2978 0.9894 0.07362 0.0
C443 C 0.2727 1.0144 0.16524 0.0
H444 H 0.25488 0.02395 0.0122 0.0
C445 C 0.22043 0.05297 0.14595 0.0
C446 C 0.21005 0.04776 0.1041 0.0
C447 C 0.23415 0.04582 0.14732 0.0
C448 C 0.25961 0.02121 0.05537 0.0
H449 H 0.32641 1.00449 0.18759 0.0
H450 H 0.30263 1.01719 0.18593 0.0
H451 H 0.27842 1.01077 0.01513 0.0
H452 H 0.2062 0.03116 0.02986 0.0
H453 H 0.22993 0.0185 0.03304 0.0
H454 H 0.25386 0.0248 0.2055 0.0
C455 C 0.30487 1.00733 0.15478 0.0
C456 C 0.27313 1.01363 0.05704 0.0
C457 C 0.31857 1.00016 0.1553 0.0
C458 C 0.21383 0.03535 0.06325 0.0
C459 C 0.22753 0.02821 0.06458 0.0
C460 C 0.25916 0.02196 0.16358 0.0
C461 C 0.29433 1.00213 0.11364 0.0
C462 C 0.27986 1.01011 0.11199 0.0
C463 C 0.23787 0.0333 0.10677 0.0
C464 C 0.25241 0.02546 0.10861 0.0
H465 H 0.31385 0.97261 0.04215 0.0
H466 H 0.2899 0.98495 0.0418 0.0
H467 H 0.27746 1.01168 0.20838 0.0
H468 H 0.21788 0.0624 0.17841 0.0
H469 H 0.24188 0.05019 0.17998 0.0
C470 C 0.31799 0.53593 0.32512 0.0
C471 C 0.32174 0.54806 0.36722 0.0
C472 C 0.3043 0.52872 0.3257 0.0
C473 C 0.27309 0.52122 0.42525 0.0
H474 H 0.25305 0.51151 0.27704 0.0
C475 C 0.21373 0.49954 0.42098 0.0
C476 C 0.20974 0.48751 0.3789 0.0
C477 C 0.22744 0.50668 0.41948 0.0
C478 C 0.25857 0.51394 0.31885 0.0
H479 H 0.31387 0.56213 0.44282 0.0
H480 H 0.28992 0.54974 0.44326 0.0
H481 H 0.27662 0.52475 0.27395 0.0
H482 H 0.21718 0.47357 0.30226 0.0
H483 H 0.2412 0.4858 0.30033 0.0
H484 H 0.25507 0.51039 0.47018 0.0
C485 C 0.29765 0.54568 0.41012 0.0
C486 C 0.27209 0.52156 0.31708 0.0
C487 C 0.31134 0.55294 0.40941 0.0
C488 C 0.21991 0.48269 0.33566 0.0
C489 C 0.23363 0.48986 0.33411 0.0
C490 C 0.25958 0.51358 0.42702 0.0
C491 C 0.29398 0.5334 0.36851 0.0
C492 C 0.27953 0.52534 0.37026 0.0
C493 C 0.23757 0.502 0.37589 0.0
C494 C 0.25211 0.50987 0.37387 0.0
H495 H 0.32566 0.532 0.29154 0.0
H496 H 0.30191 0.51922 0.29327 0.0
H497 H 0.2786 0.52366 0.46707 0.0
H498 H 0.20627 0.50342 0.45541 0.0
H499 H 0.23001 0.51609 0.45202 0.0
C500 C 0.71404 0.03526 0.90974 0.0
C501 C 0.70999 0.04733 0.868 0.0
C502 C 0.72778 0.02824 0.9081 0.0
C503 C 0.75902 0.02149 0.80758 0.0
H504 H 0.77896 1.01162 0.95579 0.0
C505 C 0.81853 0.99985 0.81425 0.0
C506 C 0.82222 0.9876 0.8559 0.0
C507 C 0.80482 1.00701 0.81482 0.0
C508 C 0.77348 1.0141 0.91396 0.0
H509 H 0.71739 0.06147 0.79177 0.0
H510 H 0.74147 0.04945 0.78962 0.0
H511 H 0.75537 0.02468 0.95897 0.0
H512 H 0.81426 0.9733 0.93072 0.0
H513 H 0.79031 0.9856 0.93114 0.0
H514 H 0.77717 1.01093 0.76262 0.0
C515 C 0.73391 0.04527 0.82324 0.0
C516 C 0.75993 0.02162 0.91578 0.0
C517 C 0.72015 0.05231 0.82492 0.0
C518 C 0.81177 0.98258 0.89765 0.0
C519 C 0.79808 0.98979 0.89836 0.0
C520 C 0.77259 1.01399 0.80577 0.0
C521 C 0.7379 0.03309 0.86472 0.0
C522 C 0.75249 0.02537 0.86263 0.0
C523 C 0.79445 1.00217 0.85718 0.0
C524 C 0.77998 1.01015 0.85895 0.0
H525 H 0.70659 0.03125 0.94406 0.0
H526 H 0.73038 0.01879 0.94039 0.0
H527 H 0.75353 0.02395 0.76577 0.0
H528 H 0.82624 1.0039 0.78103 0.0
H529 H 0.80246 1.01659 0.78274 0.0
C530 C 0.71393 0.50033 0.58389 0.0
C531 C 0.71019 0.4877 0.6239 0.0
C532 C 0.72769 0.50733 0.58496 0.0
C533 C 0.75973 0.51275 0.68228 0.0
H534 H 0.77849 0.5246 0.53339 0.0
C535 C 0.81921 0.53452 0.6714 0.0
C536 C 0.82259 0.5473 0.63147 0.0
C537 C 0.80549 0.52735 0.67142 0.0
C538 C 0.77335 0.52155 0.57544 0.0
H539 H 0.71815 0.47254 0.69642 0.0
H540 H 0.74227 0.48454 0.69755 0.0
H541 H 0.75486 0.51157 0.53108 0.0
H542 H 0.81407 0.56258 0.56039 0.0
H543 H 0.7901 0.55027 0.56103 0.0
H544 H 0.77827 0.52271 0.72658 0.0
C545 C 0.73446 0.48917 0.66575 0.0
C546 C 0.75978 0.51406 0.57412 0.0
C547 C 0.72067 0.48214 0.66463 0.0
C548 C 0.81183 0.55286 0.59209 0.0
C549 C 0.79812 0.54566 0.59197 0.0
C550 C 0.77333 0.52023 0.68359 0.0
C551 C 0.73814 0.5019 0.62603 0.0
C552 C 0.75275 0.50959 0.62752 0.0
C553 C 0.79479 0.53274 0.63139 0.0
C554 C 0.7803 0.52478 0.63018 0.0
H555 H 0.70621 0.50479 0.55136 0.0
H556 H 0.73006 0.51721 0.5541 0.0
H557 H 0.75458 0.50972 0.72433 0.0
H558 H 0.82718 0.53004 0.70281 0.0
H559 H 0.80336 0.51736 0.70209 0.0
C560 C 0.97044 0.99045 0.90156 0.0
C561 C 0.96812 0.97609 0.9351 0.0
C562 C 0.98207 1.00083 0.91444 0.0
C563 C 0.01773 1.00135 0.98982 0.0
H564 H 1.01313 0.04856 0.98268 0.0
C565 C 0.06198 0.04611 0.07291 0.0
C566 C 0.06432 0.06053 0.03975 0.0
C567 C 0.05032 0.03579 0.05982 0.0
C568 C 1.01467 0.0354 0.9842 0.0
H569 H 0.97607 0.96171 0.00976 0.0
H570 H 0.99629 0.97978 0.03226 0.0
H571 H 0.99264 0.0308 0.96094 0.0
H572 H 0.05636 0.07512 0.96564 0.0
H573 H 0.0361 0.05713 0.94269 0.0
H574 H 0.03976 1.00594 0.01304 0.0
C575 C 0.98928 0.98287 -0.00482 0.0
C576 C 1.00289 0.0252 0.97173 0.0
C577 C 0.97766 0.97249 0.98228 0.0
C578 C 0.05476 0.06427 0.99278 0.0
C579 C 0.04312 0.05394 0.97964 0.0
C580 C 0.02951 1.01154 0.00226 0.0
C581 C 0.9917 0.99714 0.96125 0.0
C582 C 1.00425 1.00804 0.97443 0.0
C583 C 0.04069 0.0396 0.01314 0.0
C584 C 0.02814 0.02871 -0.00034 0.0
H585 H 0.96344 0.9935 0.86439 0.0
H586 H 0.9837 1.01159 0.88683 0.0
H587 H 0.01926 0.98819 0.99137 0.0
H588 H 0.06899 0.04297 0.10994 0.0
H589 H 0.04869 0.02499 0.08716 0.0
C590 C 0.46772 0.98634 -0.0001 0.0
C591 C 0.46834 0.97582 0.04971 0.0
C592 C 0.47931 0.99669 0.98606 0.0
C593 C 0.51181 1.01602 0.0525 0.0
H594 H 0.52346 0.02152 0.88705 0.0
C595 C 0.55393 0.06452 0.9801 0.0
C596 C 0.564 0.06003 0.93595 0.0
C597 C 0.54234 0.05423 0.99415 0.0
C598 C 0.52042 0.02003 0.93354 0.0
H599 H 0.48161 0.96824 0.12473 0.0
H600 H 0.50184 0.98607 0.10019 0.0
H601 H 0.50317 1.00364 0.91119 0.0
H602 H 0.56966 0.04112 0.87188 0.0
H603 H 0.54956 0.02305 0.89702 0.0
H604 H 0.52919 0.03218 0.07497 0.0
C605 C 0.49236 0.98641 0.07193 0.0
C606 C 0.50867 1.00993 0.94732 0.0
C607 C 0.4808 0.97604 0.08563 0.0
C608 C 0.5622 0.04491 0.90648 0.0
C609 C 0.55057 0.03463 0.92041 0.0
C610 C 0.52353 0.02615 0.0387 0.0
C611 C 0.4918 0.99684 0.02186 0.0
C612 C 0.50422 1.00776 0.00701 0.0
C613 C 0.54047 0.03917 0.96438 0.0
C614 C 0.52801 0.02829 0.97904 0.0
H615 H 0.45836 0.9864 0.97095 0.0
H616 H 0.47844 1.00468 0.94753 0.0
H617 H 0.50862 1.01478 0.09889 0.0
H618 H 0.55505 0.07598 0.0042 0.0
H619 H 0.53472 0.0582 0.02784 0.0
C620 C 0.97015 0.54495 0.5805 0.0
C621 C 0.96826 0.55995 0.55045 0.0
C622 C 0.98171 0.53462 0.56634 0.0
C623 C 1.00838 0.52573 0.44698 0.0
H624 H 0.0291 0.50374 0.57452 0.0
C625 C 0.05113 0.47565 0.40038 0.0
C626 C 0.06366 0.4756 0.43593 0.0
C627 C 0.03958 0.48602 0.41403 0.0
C628 C 0.02351 0.50988 0.53836 0.0
H629 H 0.97698 0.57563 0.4809 0.0
H630 H 0.99721 0.55778 0.45687 0.0
H631 H 1.00888 0.52164 0.59882 0.0
H632 H 0.07376 0.48649 0.51398 0.0
H633 H 0.05371 0.50476 0.53723 0.0
H634 H 0.02315 0.51418 0.3866 0.0
C635 C 0.9897 0.55393 0.49119 0.0
C636 C 1.01179 0.52 0.55226 0.0
C637 C 0.97818 0.56427 0.50547 0.0
C638 C 0.06435 0.48629 0.48529 0.0
C639 C 0.05277 0.49664 0.49905 0.0
C640 C 0.02007 0.51558 0.43308 0.0
C641 C 0.99166 0.53899 0.52157 0.0
C642 C 1.00407 0.52807 0.50676 0.0
C643 C 0.04021 0.49662 0.46368 0.0
C644 C 0.0278 0.50752 0.47858 0.0
H645 H 0.96281 0.54128 0.61574 0.0
H646 H 0.98278 0.52313 0.59021 0.0
H647 H 1.00262 0.53161 0.41072 0.0
H648 H 0.05027 0.46771 0.36164 0.0
H649 H 0.03005 0.48554 0.3861 0.0
C650 C 0.48008 0.55734 0.40114 0.0
C651 C 0.46804 0.55876 0.43909 0.0
C652 C 0.49163 0.54712 0.41626 0.0
C653 C 0.5089 0.52667 0.54587 0.0
H654 H 0.52793 0.50083 0.42353 0.0
C655 C 0.5519 0.47756 0.6024 0.0
C656 C 0.56391 0.47624 0.56426 0.0
C657 C 0.54029 0.48772 0.58753 0.0
C658 C 0.52286 0.50811 0.45816 0.0
H659 H 0.4588 0.55045 0.5229 0.0
H660 H 0.47884 0.53243 0.54882 0.0
H661 H 0.50744 0.51801 0.3967 0.0
H662 H 0.57304 0.48467 0.48039 0.0
H663 H 0.55291 0.50258 0.45494 0.0
H664 H 0.52433 0.51676 0.60733 0.0
C665 C 0.4794 0.53936 0.50756 0.0
C666 C 0.51108 0.51797 0.44276 0.0
C667 C 0.46782 0.54956 0.49234 0.0
C668 C 0.56405 0.48548 0.5111 0.0
C669 C 0.55241 0.49561 0.49614 0.0
C670 C 0.52068 0.5168 0.56128 0.0
C671 C 0.49149 0.53805 0.46982 0.0
C672 C 0.50394 0.52739 0.48639 0.0
C673 C 0.54035 0.49682 0.53404 0.0
C674 C 0.52783 0.5074 0.51762 0.0
H675 H 0.48056 0.56409 0.35946 0.0
H676 H 0.50079 0.54655 0.38635 0.0
H677 H 0.50383 0.53395 0.58049 0.0
H678 H 0.55149 0.47077 0.64401 0.0
H679 H 0.53115 0.48822 0.61757 0.0
loop_
_geom_bond_atom_site_label_1
_geom_bond_atom_site_label_2
_geom_bond_distance
_geom_bond_site_symmetry_2
_ccdc_geom_bond_type
C0 C1 1.264 . S
C0 C5 1.479 . S
C0 C10 1.465 . S
C1 C0 1.264 . S
C1 C3 1.339 . S
C1 H28 0.931 . S
C2 C3 1.395 . S
C2 C4 1.320 . S
C3 C1 1.339 . S
C3 C2 1.395 . S
C3 H29 0.929 . S
C4 C2 1.320 . S
C4 C5 1.405 . S
C4 H30 0.930 . S
C5 C0 1.479 . S
C5 C4 1.405 . S
C5 H31 0.931 . S
U6 O7 2.454 . S
U6 O8 2.458 . S
U6 C9 2.984 . S
U6 C10 2.847 . S
U6 C23 2.882 . S
U6 O24 2.441 . S
U6 O25 2.420 . S
U6 O26 2.455 . S
U6 O27 2.449 . S
O7 U6 2.454 . S
O7 C9 1.353 . S
O8 U6 2.458 . S
O8 C9 1.286 . S
C9 U6 2.984 . S
C9 O7 1.353 . S
C9 O8 1.286 . S
C9 C11 1.363 . S
C10 C0 1.465 . S
C10 U6 2.847 . S
C10 O24 1.249 . S
C10 O25 1.202 . S
C11 C9 1.363 . S
C11 C13 1.408 . S
C11 C16 1.342 . S
C12 C13 1.310 . S
C12 C15 1.461 . S
C12 H32 0.932 . S
C13 C11 1.408 . S
C13 C12 1.310 . S
C13 H33 0.930 . S
C14 C15 1.474 . S
C14 C16 1.285 . S
C14 H34 0.929 . S
C15 C12 1.461 . S
C15 C14 1.474 . S
C16 C11 1.342 . S
C16 C14 1.285 . S
C16 H35 0.930 . S
C17 C20 1.424 . S
C17 C22 1.245 . S
C17 C23 1.428 . S
C18 C21 1.260 . S
C18 C22 1.477 . S
C18 H36 0.932 . S
C19 C20 1.384 . S
C19 C21 1.479 . S
C19 H37 0.929 . S
C20 C17 1.424 . S
C20 C19 1.384 . S
C20 H38 0.928 . S
C21 C18 1.260 . S
C21 C19 1.479 . S
C22 C17 1.245 . S
C22 C18 1.477 . S
C22 H39 0.932 . S
C23 U6 2.882 . S
C23 C17 1.428 . S
C23 O26 1.301 . S
C23 O27 1.282 . S
O24 U6 2.441 . S
O24 C10 1.249 . S
O25 U6 2.420 . S
O25 C10 1.202 . S
O26 U6 2.455 . S
O26 C23 1.301 . S
O27 U6 2.449 . S
O27 C23 1.282 . S
H28 C1 0.931 . S
H29 C3 0.929 . S
H30 C4 0.930 . S
H31 C5 0.931 . S
H32 C12 0.932 . S
H33 C13 0.930 . S
H34 C14 0.929 . S
H35 C16 0.930 . S
H36 C18 0.932 . S
H37 C19 0.929 . S
H38 C20 0.928 . S
H39 C22 0.932 . S
C40 C41 1.264 . S
C40 C45 1.479 . S
C40 C50 1.465 . S
C41 C40 1.264 . S
C41 C43 1.339 . S
C41 H68 0.931 . S
C42 C43 1.395 . S
C42 C44 1.320 . S
C43 C41 1.339 . S
C43 C42 1.395 . S
C43 H69 0.929 . S
C44 C42 1.320 . S
C44 C45 1.405 . S
C44 H70 0.930 . S
C45 C40 1.479 . S
C45 C44 1.405 . S
C45 H71 0.931 . S
U46 O47 2.454 . S
U46 O48 2.458 . S
U46 C49 2.984 . S
U46 C50 2.847 . S
U46 C63 2.882 . S
U46 O64 2.441 . S
U46 O65 2.420 . S
U46 O66 2.455 . S
U46 O67 2.449 . S
O47 U46 2.454 . S
O47 C49 1.353 . S
O48 U46 2.458 . S
O48 C49 1.286 . S
C49 U46 2.984 . S
C49 O47 1.353 . S
C49 O48 1.286 . S
C49 C51 1.363 . S
C50 C40 1.465 . S
C50 U46 2.847 . S
C50 O64 1.249 . S
C50 O65 1.202 . S
C51 C49 1.363 . S
C51 C53 1.408 . S
C51 C56 1.342 . S
C52 C53 1.310 . S
C52 C55 1.461 . S
C52 H72 0.932 . S
C53 C51 1.408 . S
C53 C52 1.310 . S
C53 H73 0.930 . S
C54 C55 1.474 . S
C54 C56 1.285 . S
C54 H74 0.929 . S
C55 C52 1.461 . S
C55 C54 1.474 . S
C56 C51 1.342 . S
C56 C54 1.285 . S
C56 H75 0.930 . S
C57 C60 1.424 . S
C57 C62 1.245 . S
C57 C63 1.428 . S
C58 C61 1.260 . S
C58 C62 1.477 . S
C58 H76 0.932 . S
C59 C60 1.384 . S
C59 C61 1.479 . S
C59 H77 0.929 . S
C60 C57 1.424 . S
C60 C59 1.384 . S
C60 H78 0.928 . S
C61 C58 1.260 . S
C61 C59 1.479 . S
C62 C57 1.245 . S
C62 C58 1.477 . S
C62 H79 0.932 . S
C63 U46 2.882 . S
C63 C57 1.428 . S
C63 O66 1.301 . S
C63 O67 1.282 . S
O64 U46 2.441 . S
O64 C50 1.249 . S
O65 U46 2.420 . S
O65 C50 1.202 . S
O66 U46 2.455 . S
O66 C63 1.301 . S
O67 U46 2.449 . S
O67 C63 1.282 . S
H68 C41 0.931 . S
H69 C43 0.929 . S
H70 C44 0.930 . S
H71 C45 0.931 . S
H72 C52 0.932 . S
H73 C53 0.930 . S
H74 C54 0.929 . S
H75 C56 0.930 . S
H76 C58 0.932 . S
H77 C59 0.929 . S
H78 C60 0.928 . S
H79 C62 0.932 . S
C80 C81 1.264 . S
C80 C85 1.479 . S
C80 C90 1.465 . S
C81 C80 1.264 . S
C81 C83 1.339 . S
C81 H108 0.931 . S
C82 C83 1.395 . S
C82 C84 1.320 . S
C83 C81 1.339 . S
C83 C82 1.395 . S
C83 H109 0.929 . S
C84 C82 1.320 . S
C84 C85 1.405 . S
C84 H110 0.930 . S
C85 C80 1.479 . S
C85 C84 1.405 . S
C85 H111 0.931 . S
U86 O87 2.454 . S
U86 O88 2.458 . S
U86 C89 2.984 . S
U86 C90 2.847 . S
U86 C103 2.882 . S
U86 O104 2.441 . S
U86 O105 2.420 . S
U86 O106 2.455 . S
U86 O107 2.449 . S
O87 U86 2.454 . S
O87 C89 1.353 . S
O88 U86 2.458 . S
O88 C89 1.286 . S
C89 U86 2.984 . S
C89 O87 1.353 . S
C89 O88 1.286 . S
C89 C91 1.363 . S
C90 C80 1.465 . S
C90 U86 2.847 . S
C90 O104 1.249 . S
C90 O105 1.202 . S
C91 C89 1.363 . S
C91 C93 1.408 . S
C91 C96 1.342 . S
C92 C93 1.310 . S
C92 C95 1.461 . S
C92 H112 0.932 . S
C93 C91 1.408 . S
C93 C92 1.310 . S
C93 H113 0.930 . S
C94 C95 1.474 . S
C94 C96 1.285 . S
C94 H114 0.929 . S
C95 C92 1.461 . S
C95 C94 1.474 . S
C96 C91 1.342 . S
C96 C94 1.285 . S
C96 H115 0.930 . S
C97 C100 1.424 . S
C97 C102 1.245 . S
C97 C103 1.428 . S
C98 C101 1.260 . S
C98 C102 1.477 . S
C98 H116 0.932 . S
C99 C100 1.384 . S
C99 C101 1.479 . S
C99 H117 0.929 . S
C100 C97 1.424 . S
C100 C99 1.384 . S
C100 H118 0.928 . S
C101 C98 1.260 . S
C101 C99 1.479 . S
C102 C97 1.245 . S
C102 C98 1.477 . S
C102 H119 0.932 . S
C103 U86 2.882 . S
C103 C97 1.428 . S
C103 O106 1.301 . S
C103 O107 1.282 . S
O104 U86 2.441 . S
O104 C90 1.249 . S
O105 U86 2.420 . S
O105 C90 1.202 . S
O106 U86 2.455 . S
O106 C103 1.301 . S
O107 U86 2.449 . S
O107 C103 1.282 . S
H108 C81 0.931 . S
H109 C83 0.929 . S
H110 C84 0.930 . S
H111 C85 0.931 . S
H112 C92 0.932 . S
H113 C93 0.930 . S
H114 C94 0.929 . S
H115 C96 0.930 . S
H116 C98 0.932 . S
H117 C99 0.929 . S
H118 C100 0.928 . S
H119 C102 0.932 . S
C120 C121 1.264 . S
C120 C125 1.479 . S
C120 C130 1.465 . S
C121 C120 1.264 . S
C121 C123 1.339 . S
C121 H148 0.931 . S
C122 C123 1.395 . S
C122 C124 1.320 . S
C123 C121 1.339 . S
C123 C122 1.395 . S
C123 H149 0.929 . S
C124 C122 1.320 . S
C124 C125 1.405 . S
C124 H150 0.930 . S
C125 C120 1.479 . S
C125 C124 1.405 . S
C125 H151 0.931 . S
U126 O127 2.454 . S
U126 O128 2.458 . S
U126 C129 2.984 . S
U126 C130 2.847 . S
U126 C143 2.882 . S
U126 O144 2.441 . S
U126 O145 2.420 . S
U126 O146 2.455 . S
U126 O147 2.449 . S
O127 U126 2.454 . S
O127 C129 1.353 . S
O128 U126 2.458 . S
O128 C129 1.286 . S
C129 U126 2.984 . S
C129 O127 1.353 . S
C129 O128 1.286 . S
C129 C131 1.363 . S
C130 C120 1.465 . S
C130 U126 2.847 . S
C130 O144 1.249 . S
C130 O145 1.202 . S
C131 C129 1.363 . S
C131 C133 1.408 . S
C131 C136 1.342 . S
C132 C133 1.310 . S
C132 C135 1.461 . S
C132 H152 0.932 . S
C133 C131 1.408 . S
C133 C132 1.310 . S
C133 H153 0.930 . S
C134 C135 1.474 . S
C134 C136 1.285 . S
C134 H154 0.929 . S
C135 C132 1.461 . S
C135 C134 1.474 . S
C136 C131 1.342 . S
C136 C134 1.285 . S
C136 H155 0.930 . S
C137 C140 1.424 . S
C137 C142 1.245 . S
C137 C143 1.428 . S
C138 C141 1.260 . S
C138 C142 1.477 . S
C138 H156 0.932 . S
C139 C140 1.384 . S
C139 C141 1.479 . S
C139 H157 0.929 . S
C140 C137 1.424 . S
C140 C139 1.384 . S
C140 H158 0.928 . S
C141 C138 1.260 . S
C141 C139 1.479 . S
C142 C137 1.245 . S
C142 C138 1.477 . S
C142 H159 0.932 . S
C143 U126 2.882 . S
C143 C137 1.428 . S
C143 O146 1.301 . S
C143 O147 1.282 . S
O144 U126 2.441 . S
O144 C130 1.249 . S
O145 U126 2.420 . S
O145 C130 1.202 . S
O146 U126 2.455 . S
O146 C143 1.301 . S
O147 U126 2.449 . S
O147 C143 1.282 . S
H148 C121 0.931 . S
H149 C123 0.929 . S
H150 C124 0.930 . S
H151 C125 0.931 . S
H152 C132 0.932 . S
H153 C133 0.930 . S
H154 C134 0.929 . S
H155 C136 0.930 . S
H156 C138 0.932 . S
H157 C139 0.929 . S
H158 C140 0.928 . S
H159 C142 0.932 . S
C160 C161 1.264 . S
C160 C165 1.479 . S
C160 C170 1.465 . S
C161 C160 1.264 . S
C161 C163 1.339 . S
C161 H188 0.931 . S
C162 C163 1.395 . S
C162 C164 1.320 . S
C163 C161 1.339 . S
C163 C162 1.395 . S
C163 H189 0.929 . S
C164 C162 1.320 . S
C164 C165 1.405 . S
C164 H190 0.930 . S
C165 C160 1.479 . S
C165 C164 1.405 . S
C165 H191 0.931 . S
U166 O167 2.454 . S
U166 O168 2.458 . S
U166 C169 2.984 . S
U166 C170 2.847 . S
U166 C183 2.882 . S
U166 O184 2.441 . S
U166 O185 2.420 . S
U166 O186 2.455 . S
U166 O187 2.449 . S
O167 U166 2.454 . S
O167 C169 1.353 . S
O168 U166 2.458 . S
O168 C169 1.286 . S
C169 U166 2.984 . S
C169 O167 1.353 . S
C169 O168 1.286 . S
C169 C171 1.363 . S
C170 C160 1.465 . S
C170 U166 2.847 . S
C170 O184 1.249 . S
C170 O185 1.202 . S
C171 C169 1.363 . S
C171 C173 1.408 . S
C171 C176 1.342 . S
C172 C173 1.310 . S
C172 C175 1.461 . S
C172 H192 0.932 . S
C173 C171 1.408 . S
C173 C172 1.310 . S
C173 H193 0.930 . S
C174 C175 1.474 . S
C174 C176 1.285 . S
C174 H194 0.929 . S
C175 C172 1.461 . S
C175 C174 1.474 . S
C176 C171 1.342 . S
C176 C174 1.285 . S
C176 H195 0.930 . S
C177 C180 1.424 . S
C177 C182 1.245 . S
C177 C183 1.428 . S
C178 C181 1.260 . S
C178 C182 1.477 . S
C178 H196 0.932 . S
C179 C180 1.384 . S
C179 C181 1.479 . S
C179 H197 0.929 . S
C180 C177 1.424 . S
C180 C179 1.384 . S
C180 H198 0.928 . S
C181 C178 1.260 . S
C181 C179 1.479 . S
C182 C177 1.245 . S
C182 C178 1.477 . S
C182 H199 0.932 . S
C183 U166 2.882 . S
C183 C177 1.428 . S
C183 O186 1.301 . S
C183 O187 1.282 . S
O184 U166 2.441 . S
O184 C170 1.249 . S
O185 U166 2.420 . S
O185 C170 1.202 . S
O186 U166 2.455 . S
O186 C183 1.301 . S
O187 U166 2.449 . S
O187 C183 1.282 . S
H188 C161 0.931 . S
H189 C163 0.929 . S
H190 C164 0.930 . S
H191 C165 0.931 . S
H192 C172 0.932 . S
H193 C173 0.930 . S
H194 C174 0.929 . S
H195 C176 0.930 . S
H196 C178 0.932 . S
H197 C179 0.929 . S
H198 C180 0.928 . S
H199 C182 0.932 . S
C200 C201 1.264 . S
C200 C205 1.479 . S
C200 C210 1.465 . S
C201 C200 1.264 . S
C201 C203 1.339 . S
C201 H228 0.931 . S
C202 C203 1.395 . S
C202 C204 1.320 . S
C203 C201 1.339 . S
C203 C202 1.395 . S
C203 H229 0.929 . S
C204 C202 1.320 . S
C204 C205 1.405 . S
C204 H230 0.930 . S
C205 C200 1.479 . S
C205 C204 1.405 . S
C205 H231 0.931 . S
U206 O207 2.454 . S
U206 O208 2.458 . S
U206 C209 2.984 . S
U206 C210 2.847 . S
U206 C223 2.882 . S
U206 O224 2.441 . S
U206 O225 2.420 . S
U206 O226 2.455 . S
U206 O227 2.449 . S
O207 U206 2.454 . S
O207 C209 1.353 . S
O208 U206 2.458 . S
O208 C209 1.286 . S
C209 U206 2.984 . S
C209 O207 1.353 . S
C209 O208 1.286 . S
C209 C211 1.363 . S
C210 C200 1.465 . S
C210 U206 2.847 . S
C210 O224 1.249 . S
C210 O225 1.202 . S
C211 C209 1.363 . S
C211 C213 1.408 . S
C211 C216 1.342 . S
C212 C213 1.310 . S
C212 C215 1.461 . S
C212 H232 0.932 . S
C213 C211 1.408 . S
C213 C212 1.310 . S
C213 H233 0.930 . S
C214 C215 1.474 . S
C214 C216 1.285 . S
C214 H234 0.929 . S
C215 C212 1.461 . S
C215 C214 1.474 . S
C216 C211 1.342 . S
C216 C214 1.285 . S
C216 H235 0.930 . S
C217 C220 1.424 . S
C217 C222 1.245 . S
C217 C223 1.428 . S
C218 C221 1.260 . S
C218 C222 1.477 . S
C218 H236 0.932 . S
C219 C220 1.384 . S
C219 C221 1.479 . S
C219 H237 0.929 . S
C220 C217 1.424 . S
C220 C219 1.384 . S
C220 H238 0.928 . S
C221 C218 1.260 . S
C221 C219 1.479 . S
C222 C217 1.245 . S
C222 C218 1.477 . S
C222 H239 0.932 . S
C223 U206 2.882 . S
C223 C217 1.428 . S
C223 O226 1.301 . S
C223 O227 1.282 . S
O224 U206 2.441 . S
O224 C210 1.249 . S
O225 U206 2.420 . S
O225 C210 1.202 . S
O226 U206 2.455 . S
O226 C223 1.301 . S
O227 U206 2.449 . S
O227 C223 1.282 . S
H228 C201 0.931 . S
H229 C203 0.929 . S
H230 C204 0.930 . S
H231 C205 0.931 . S
H232 C212 0.932 . S
H233 C213 0.930 . S
H234 C214 0.929 . S
H235 C216 0.930 . S
H236 C218 0.932 . S
H237 C219 0.929 . S
H238 C220 0.928 . S
H239 C222 0.932 . S
C240 C241 1.264 . S
C240 C245 1.479 . S
C240 C250 1.465 . S
C241 C240 1.264 . S
C241 C243 1.339 . S
C241 H268 0.931 . S
C242 C243 1.395 . S
C242 C244 1.320 . S
C243 C241 1.339 . S
C243 C242 1.395 . S
C243 H269 0.929 . S
C244 C242 1.320 . S
C244 C245 1.405 . S
C244 H270 0.930 . S
C245 C240 1.479 . S
C245 C244 1.405 . S
C245 H271 0.931 . S
U246 O247 2.454 . S
U246 O248 2.458 . S
U246 C249 2.984 . S
U246 C250 2.847 . S
U246 C263 2.882 . S
U246 O264 2.441 . S
U246 O265 2.420 . S
U246 O266 2.455 . S
U246 O267 2.449 . S
O247 U246 2.454 . S
O247 C249 1.353 . S
O248 U246 2.458 . S
O248 C249 1.286 . S
C249 U246 2.984 . S
C249 O247 1.353 . S
C249 O248 1.286 . S
C249 C251 1.363 . S
C250 C240 1.465 . S
C250 U246 2.847 . S
C250 O264 1.249 . S
C250 O265 1.202 . S
C251 C249 1.363 . S
C251 C253 1.408 . S
C251 C256 1.342 . S
C252 C253 1.310 . S
C252 C255 1.461 . S
C252 H272 0.932 . S
C253 C251 1.408 . S
C253 C252 1.310 . S
C253 H273 0.930 . S
C254 C255 1.474 . S
C254 C256 1.285 . S
C254 H274 0.929 . S
C255 C252 1.461 . S
C255 C254 1.474 . S
C256 C251 1.342 . S
C256 C254 1.285 . S
C256 H275 0.930 . S
C257 C260 1.424 . S
C257 C262 1.245 . S
C257 C263 1.428 . S
C258 C261 1.260 . S
C258 C262 1.477 . S
C258 H276 0.932 . S
C259 C260 1.384 . S
C259 C261 1.479 . S
C259 H277 0.929 . S
C260 C257 1.424 . S
C260 C259 1.384 . S
C260 H278 0.928 . S
C261 C258 1.260 . S
C261 C259 1.479 . S
C262 C257 1.245 . S
C262 C258 1.477 . S
C262 H279 0.932 . S
C263 U246 2.882 . S
C263 C257 1.428 . S
C263 O266 1.301 . S
C263 O267 1.282 . S
O264 U246 2.441 . S
O264 C250 1.249 . S
O265 U246 2.420 . S
O265 C250 1.202 . S
O266 U246 2.455 . S
O266 C263 1.301 . S
O267 U246 2.449 . S
O267 C263 1.282 . S
H268 C241 0.931 . S
H269 C243 0.929 . S
H270 C244 0.930 . S
H271 C245 0.931 . S
H272 C252 0.932 . S
H273 C253 0.930 . S
H274 C254 0.929 . S
H275 C256 0.930 . S
H276 C258 0.932 . S
H277 C259 0.929 . S
H278 C260 0.928 . S
H279 C262 0.932 . S
C280 C281 1.264 . S
C280 C285 1.479 . S
C280 C290 1.465 . S
C281 C280 1.264 . S
C281 C283 1.339 . S
C281 H308 0.931 . S
C282 C283 1.395 . S
C282 C284 1.320 . S
C283 C281 1.339 . S
C283 C282 1.395 . S
C283 H309 0.929 . S
C284 C282 1.320 . S
C284 C285 1.405 . S
C284 H310 0.930 . S
C285 C280 1.479 . S
C285 C284 1.405 . S
C285 H311 0.931 . S
U286 O287 2.454 . S
U286 O288 2.458 . S
U286 C289 2.984 . S
U286 C290 2.847 . S
U286 C303 2.882 . S
U286 O304 2.441 . S
U286 O305 2.420 . S
U286 O306 2.455 . S
U286 O307 2.449 . S
O287 U286 2.454 . S
O287 C289 1.353 . S
O288 U286 2.458 . S
O288 C289 1.286 . S
C289 U286 2.984 . S
C289 O287 1.353 . S
C289 O288 1.286 . S
C289 C291 1.363 . S
C290 C280 1.465 . S
C290 U286 2.847 . S
C290 O304 1.249 . S
C290 O305 1.202 . S
C291 C289 1.363 . S
C291 C293 1.408 . S
C291 C296 1.342 . S
C292 C293 1.310 . S
C292 C295 1.461 . S
C292 H312 0.932 . S
C293 C291 1.408 . S
C293 C292 1.310 . S
C293 H313 0.930 . S
C294 C295 1.474 . S
C294 C296 1.285 . S
C294 H314 0.929 . S
C295 C292 1.461 . S
C295 C294 1.474 . S
C296 C291 1.342 . S
C296 C294 1.285 . S
C296 H315 0.930 . S
C297 C300 1.424 . S
C297 C302 1.245 . S
C297 C303 1.428 . S
C298 C301 1.260 . S
C298 C302 1.477 . S
C298 H316 0.932 . S
C299 C300 1.384 . S
C299 C301 1.479 . S
C299 H317 0.929 . S
C300 C297 1.424 . S
C300 C299 1.384 . S
C300 H318 0.928 . S
C301 C298 1.260 . S
C301 C299 1.479 . S
C302 C297 1.245 . S
C302 C298 1.477 . S
C302 H319 0.932 . S
C303 U286 2.882 . S
C303 C297 1.428 . S
C303 O306 1.301 . S
C303 O307 1.282 . S
O304 U286 2.441 . S
O304 C290 1.249 . S
O305 U286 2.420 . S
O305 C290 1.202 . S
O306 U286 2.455 . S
O306 C303 1.301 . S
O307 U286 2.449 . S
O307 C303 1.282 . S
H308 C281 0.931 . S
H309 C283 0.929 . S
H310 C284 0.930 . S
H311 C285 0.931 . S
H312 C292 0.932 . S
H313 C293 0.930 . S
H314 C294 0.929 . S
H315 C296 0.930 . S
H316 C298 0.932 . S
H317 C299 0.929 . S
H318 C300 0.928 . S
H319 C302 0.932 . S
C320 C321 1.349 . S
C320 C322 1.327 . S
C320 H345 0.950 . S
C321 C320 1.349 . S
C321 C337 1.349 . S
C322 C320 1.327 . S
C322 C341 1.429 . S
C322 H346 0.950 . S
C323 C340 1.574 . S
C323 C342 1.368 . S
C323 H347 0.949 . S
H324 C328 0.949 . S
C325 C326 1.349 . S
C325 C327 1.327 . S
C325 H348 0.950 . S
C326 C325 1.349 . S
C326 C338 1.349 . S
C327 C325 1.327 . S
C327 C343 1.429 . S
C327 H349 0.950 . S
C328 H324 0.949 . S
C328 C336 1.574 . S
C328 C344 1.368 . S
H329 C337 0.950 . S
H330 C335 0.950 . S
H331 C336 0.949 . S
H332 C338 0.950 . S
H333 C339 0.950 . S
H334 C340 0.949 . S
C335 H330 0.950 . S
C335 C337 1.327 . S
C335 C341 1.429 . S
C336 C328 1.574 . S
C336 H331 0.949 . S
C336 C342 1.368 . S
C337 C321 1.349 . S
C337 H329 0.950 . S
C337 C335 1.327 . S
C338 C326 1.349 . S
C338 H332 0.950 . S
C338 C339 1.327 . S
C339 H333 0.950 . S
C339 C338 1.327 . S
C339 C343 1.429 . S
C340 C323 1.574 . S
C340 H334 0.949 . S
C340 C344 1.368 . S
C341 C322 1.429 . S
C341 C335 1.429 . S
C341 C342 1.523 . S
C342 C323 1.368 . S
C342 C336 1.368 . S
C342 C341 1.523 . S
C343 C327 1.429 . S
C343 C339 1.429 . S
C343 C344 1.523 . S
C344 C328 1.368 . S
C344 C340 1.368 . S
C344 C343 1.523 . S
H345 C320 0.950 . S
H346 C322 0.950 . S
H347 C323 0.949 . S
H348 C325 0.950 . S
H349 C327 0.950 . S
C350 C351 1.349 . S
C350 C352 1.327 . S
C350 H375 0.950 . S
C351 C350 1.349 . S
C351 C367 1.349 . S
C352 C350 1.327 . S
C352 C371 1.429 . S
C352 H376 0.950 . S
C353 C370 1.574 . S
C353 C372 1.368 . S
C353 H377 0.949 . S
H354 C358 0.949 . S
C355 C356 1.349 . S
C355 C357 1.327 . S
C355 H378 0.950 . S
C356 C355 1.349 . S
C356 C368 1.349 . S
C357 C355 1.327 . S
C357 C373 1.429 . S
C357 H379 0.950 . S
C358 H354 0.949 . S
C358 C366 1.574 . S
C358 C374 1.368 . S
H359 C367 0.950 . S
H360 C365 0.950 . S
H361 C366 0.949 . S
H362 C368 0.950 . S
H363 C369 0.950 . S
H364 C370 0.949 . S
C365 H360 0.950 . S
C365 C367 1.327 . S
C365 C371 1.429 . S
C366 C358 1.574 . S
C366 H361 0.949 . S
C366 C372 1.368 . S
C367 C351 1.349 . S
C367 H359 0.950 . S
C367 C365 1.327 . S
C368 C356 1.349 . S
C368 H362 0.950 . S
C368 C369 1.327 . S
C369 H363 0.950 . S
C369 C368 1.327 . S
C369 C373 1.429 . S
C370 C353 1.574 . S
C370 H364 0.949 . S
C370 C374 1.368 . S
C371 C352 1.429 . S
C371 C365 1.429 . S
C371 C372 1.523 . S
C372 C353 1.368 . S
C372 C366 1.368 . S
C372 C371 1.523 . S
C373 C357 1.429 . S
C373 C369 1.429 . S
C373 C374 1.523 . S
C374 C358 1.368 . S
C374 C370 1.368 . S
C374 C373 1.523 . S
H375 C350 0.950 . S
H376 C352 0.950 . S
H377 C353 0.949 . S
H378 C355 0.950 . S
H379 C357 0.950 . S
C380 C381 1.349 . S
C380 C382 1.327 . S
C380 H405 0.950 . S
C381 C380 1.349 . S
C381 C397 1.349 . S
C382 C380 1.327 . S
C382 C401 1.429 . S
C382 H406 0.950 . S
C383 C400 1.574 . S
C383 C402 1.368 . S
C383 H407 0.949 . S
H384 C388 0.949 . S
C385 C386 1.349 . S
C385 C387 1.327 . S
C385 H408 0.950 . S
C386 C385 1.349 . S
C386 C398 1.349 . S
C387 C385 1.327 . S
C387 C403 1.429 . S
C387 H409 0.950 . S
C388 H384 0.949 . S
C388 C396 1.574 . S
C388 C404 1.368 . S
H389 C397 0.950 . S
H390 C395 0.950 . S
H391 C396 0.949 . S
H392 C398 0.950 . S
H393 C399 0.950 . S
H394 C400 0.949 . S
C395 H390 0.950 . S
C395 C397 1.327 . S
C395 C401 1.429 . S
C396 C388 1.574 . S
C396 H391 0.949 . S
C396 C402 1.368 . S
C397 C381 1.349 . S
C397 H389 0.950 . S
C397 C395 1.327 . S
C398 C386 1.349 . S
C398 H392 0.950 . S
C398 C399 1.327 . S
C399 H393 0.950 . S
C399 C398 1.327 . S
C399 C403 1.429 . S
C400 C383 1.574 . S
C400 H394 0.949 . S
C400 C404 1.368 . S
C401 C382 1.429 . S
C401 C395 1.429 . S
C401 C402 1.523 . S
C402 C383 1.368 . S
C402 C396 1.368 . S
C402 C401 1.523 . S
C403 C387 1.429 . S
C403 C399 1.429 . S
C403 C404 1.523 . S
C404 C388 1.368 . S
C404 C400 1.368 . S
C404 C403 1.523 . S
H405 C380 0.950 . S
H406 C382 0.950 . S
H407 C383 0.949 . S
H408 C385 0.950 . S
H409 C387 0.950 . S
C410 C411 1.349 . S
C410 C412 1.327 . S
C410 H435 0.950 . S
C411 C410 1.349 . S
C411 C427 1.349 . S
C412 C410 1.327 . S
C412 C431 1.429 . S
C412 H436 0.950 . S
C413 C430 1.574 . S
C413 C432 1.368 . S
C413 H437 0.949 . S
H414 C418 0.949 . S
C415 C416 1.349 . S
C415 C417 1.327 . S
C415 H438 0.950 . S
C416 C415 1.349 . S
C416 C428 1.349 . S
C417 C415 1.327 . S
C417 C433 1.429 . S
C417 H439 0.950 . S
C418 H414 0.949 . S
C418 C426 1.574 . S
C418 C434 1.368 . S
H419 C427 0.950 . S
H420 C425 0.950 . S
H421 C426 0.949 . S
H422 C428 0.950 . S
H423 C429 0.950 . S
H424 C430 0.949 . S
C425 H420 0.950 . S
C425 C427 1.327 . S
C425 C431 1.429 . S
C426 C418 1.574 . S
C426 H421 0.949 . S
C426 C432 1.368 . S
C427 C411 1.349 . S
C427 H419 0.950 . S
C427 C425 1.327 . S
C428 C416 1.349 . S
C428 H422 0.950 . S
C428 C429 1.327 . S
C429 H423 0.950 . S
C429 C428 1.327 . S
C429 C433 1.429 . S
C430 C413 1.574 . S
C430 H424 0.949 . S
C430 C434 1.368 . S
C431 C412 1.429 . S
C431 C425 1.429 . S
C431 C432 1.523 . S
C432 C413 1.368 . S
C432 C426 1.368 . S
C432 C431 1.523 . S
C433 C417 1.429 . S
C433 C429 1.429 . S
C433 C434 1.523 . S
C434 C418 1.368 . S
C434 C430 1.368 . S
C434 C433 1.523 . S
H435 C410 0.950 . S
H436 C412 0.950 . S
H437 C413 0.949 . S
H438 C415 0.950 . S
H439 C417 0.950 . S
C440 C441 1.349 . S
C440 C442 1.327 . S
C440 H465 0.950 . S
C441 C440 1.349 . S
C441 C457 1.349 . S
C442 C440 1.327 . S
C442 C461 1.429 . S
C442 H466 0.950 . S
C443 C460 1.574 . S
C443 C462 1.368 1_545 S
C443 H467 0.949 . S
H444 C448 0.949 . S
C445 C446 1.349 . S
C445 C447 1.327 . S
C445 H468 0.950 . S
C446 C445 1.349 . S
C446 C458 1.349 . S
C447 C445 1.327 . S
C447 C463 1.429 . S
C447 H469 0.950 . S
C448 H444 0.949 . S
C448 C456 1.574 . S
C448 C464 1.368 1_565 S
H449 C457 0.950 . S
H450 C455 0.950 . S
H451 C456 0.949 . S
H452 C458 0.950 . S
H453 C459 0.950 . S
H454 C460 0.949 . S
C455 H450 0.950 . S
C455 C457 1.327 . S
C455 C461 1.429 . S
C456 C448 1.574 . S
C456 H451 0.949 . S
C456 C462 1.368 . S
C457 C441 1.349 . S
C457 H449 0.950 . S
C457 C455 1.327 . S
C458 C446 1.349 . S
C458 H452 0.950 . S
C458 C459 1.327 . S
C459 H453 0.950 . S
C459 C458 1.327 . S
C459 C463 1.429 . S
C460 C443 1.574 . S
C460 H454 0.949 . S
C460 C464 1.368 . S
C461 C442 1.429 . S
C461 C455 1.429 . S
C461 C462 1.523 . S
C462 C443 1.368 1_565 S
C462 C456 1.368 . S
C462 C461 1.523 . S
C463 C447 1.429 . S
C463 C459 1.429 . S
C463 C464 1.523 . S
C464 C448 1.368 1_545 S
C464 C460 1.368 . S
C464 C463 1.523 . S
H465 C440 0.950 . S
H466 C442 0.950 . S
H467 C443 0.949 . S
H468 C445 0.950 . S
H469 C447 0.950 . S
C470 C471 1.349 . S
C470 C472 1.327 . S
C470 H495 0.950 . S
C471 C470 1.349 . S
C471 C487 1.349 . S
C472 C470 1.327 . S
C472 C491 1.429 . S
C472 H496 0.950 . S
C473 C490 1.574 . S
C473 C492 1.368 . S
C473 H497 0.949 . S
H474 C478 0.949 . S
C475 C476 1.349 . S
C475 C477 1.327 . S
C475 H498 0.950 . S
C476 C475 1.349 . S
C476 C488 1.349 . S
C477 C475 1.327 . S
C477 C493 1.429 . S
C477 H499 0.950 . S
C478 H474 0.949 . S
C478 C486 1.574 . S
C478 C494 1.368 . S
H479 C487 0.950 . S
H480 C485 0.950 . S
H481 C486 0.949 . S
H482 C488 0.950 . S
H483 C489 0.950 . S
H484 C490 0.949 . S
C485 H480 0.950 . S
C485 C487 1.327 . S
C485 C491 1.429 . S
C486 C478 1.574 . S
C486 H481 0.949 . S
C486 C492 1.368 . S
C487 C471 1.349 . S
C487 H479 0.950 . S
C487 C485 1.327 . S
C488 C476 1.349 . S
C488 H482 0.950 . S
C488 C489 1.327 . S
C489 H483 0.950 . S
C489 C488 1.327 . S
C489 C493 1.429 . S
C490 C473 1.574 . S
C490 H484 0.949 . S
C490 C494 1.368 . S
C491 C472 1.429 . S
C491 C485 1.429 . S
C491 C492 1.523 . S
C492 C473 1.368 . S
C492 C486 1.368 . S
C492 C491 1.523 . S
C493 C477 1.429 . S
C493 C489 1.429 . S
C493 C494 1.523 . S
C494 C478 1.368 . S
C494 C490 1.368 . S
C494 C493 1.523 . S
H495 C470 0.950 . S
H496 C472 0.950 . S
H497 C473 0.949 . S
H498 C475 0.950 . S
H499 C477 0.950 . S
C500 C501 1.349 . S
C500 C502 1.327 . S
C500 H525 0.950 . S
C501 C500 1.349 . S
C501 C517 1.349 . S
C502 C500 1.327 . S
C502 C521 1.429 . S
C502 H526 0.950 . S
C503 C520 1.574 . S
C503 C522 1.368 . S
C503 H527 0.949 . S
H504 C508 0.949 . S
C505 C506 1.349 . S
C505 C507 1.327 . S
C505 H528 0.950 . S
C506 C505 1.349 . S
C506 C518 1.349 . S
C507 C505 1.327 . S
C507 C523 1.429 . S
C507 H529 0.950 . S
C508 H504 0.949 . S
C508 C516 1.574 . S
C508 C524 1.368 . S
H509 C517 0.950 . S
H510 C515 0.950 . S
H511 C516 0.949 . S
H512 C518 0.950 . S
H513 C519 0.950 . S
H514 C520 0.949 . S
C515 H510 0.950 . S
C515 C517 1.327 . S
C515 C521 1.429 . S
C516 C508 1.574 . S
C516 H511 0.949 . S
C516 C522 1.368 1_565 S
C517 C501 1.349 . S
C517 H509 0.950 . S
C517 C515 1.327 . S
C518 C506 1.349 . S
C518 H512 0.950 . S
C518 C519 1.327 . S
C519 H513 0.950 . S
C519 C518 1.327 . S
C519 C523 1.429 . S
C520 C503 1.574 . S
C520 H514 0.949 . S
C520 C524 1.368 1_545 S
C521 C502 1.429 . S
C521 C515 1.429 . S
C521 C522 1.523 . S
C522 C503 1.368 . S
C522 C516 1.368 1_545 S
C522 C521 1.523 . S
C523 C507 1.429 . S
C523 C519 1.429 . S
C523 C524 1.523 . S
C524 C508 1.368 . S
C524 C520 1.368 1_565 S
C524 C523 1.523 . S
H525 C500 0.950 . S
H526 C502 0.950 . S
H527 C503 0.949 . S
H528 C505 0.950 . S
H529 C507 0.950 . S
C530 C531 1.349 . S
C530 C532 1.327 . S
C530 H555 0.950 . S
C531 C530 1.349 . S
C531 C547 1.349 . S
C532 C530 1.327 . S
C532 C551 1.429 . S
C532 H556 0.950 . S
C533 C550 1.574 . S
C533 C552 1.368 . S
C533 H557 0.949 . S
H534 C538 0.949 . S
C535 C536 1.349 . S
C535 C537 1.327 . S
C535 H558 0.950 . S
C536 C535 1.349 . S
C536 C548 1.349 . S
C537 C535 1.327 . S
C537 C553 1.429 . S
C537 H559 0.950 . S
C538 H534 0.949 . S
C538 C546 1.574 . S
C538 C554 1.368 . S
H539 C547 0.950 . S
H540 C545 0.950 . S
H541 C546 0.949 . S
H542 C548 0.950 . S
H543 C549 0.950 . S
H544 C550 0.949 . S
C545 H540 0.950 . S
C545 C547 1.327 . S
C545 C551 1.429 . S
C546 C538 1.574 . S
C546 H541 0.949 . S
C546 C552 1.368 . S
C547 C531 1.349 . S
C547 H539 0.950 . S
C547 C545 1.327 . S
C548 C536 1.349 . S
C548 H542 0.950 . S
C548 C549 1.327 . S
C549 H543 0.950 . S
C549 C548 1.327 . S
C549 C553 1.429 . S
C550 C533 1.574 . S
C550 H544 0.949 . S
C550 C554 1.368 . S
C551 C532 1.429 . S
C551 C545 1.429 . S
C551 C552 1.523 . S
C552 C533 1.368 . S
C552 C546 1.368 . S
C552 C551 1.523 . S
C553 C537 1.429 . S
C553 C549 1.429 . S
C553 C554 1.523 . S
C554 C538 1.368 . S
C554 C550 1.368 . S
C554 C553 1.523 . S
H555 C530 0.950 . S
H556 C532 0.950 . S
H557 C533 0.949 . S
H558 C535 0.950 . S
H559 C537 0.950 . S
C560 C561 1.349 . S
C560 C562 1.327 . S
C560 H585 0.950 . S
C561 C560 1.349 . S
C561 C577 1.349 . S
C562 C560 1.327 . S
C562 C581 1.429 . S
C562 H586 0.933 1_565 S
C563 C580 1.574 1_655 S
C563 C582 1.368 1_554 S
C563 H587 0.949 . S
H564 C568 0.949 . S
C565 C566 1.349 . S
C565 C567 1.327 . S
C565 H588 0.950 . S
C566 C565 1.349 . S
C566 C578 1.349 . S
C567 C565 1.327 . S
C567 C583 1.429 . S
C567 H589 0.933 1_545 S
C568 H564 0.949 . S
C568 C576 1.574 1_455 S
C568 C584 1.368 1_556 S
H569 C577 0.950 . S
H570 C575 0.950 1_554 S
H571 C576 0.949 . S
H572 C578 0.950 . S
H573 C579 0.950 1_556 S
H574 C580 0.949 . S
C575 H570 0.950 1_556 S
C575 C577 1.327 . S
C575 C581 1.429 . S
C576 C568 1.574 1_655 S
C576 H571 0.949 . S
C576 C582 1.368 1_545 S
C577 C561 1.349 . S
C577 H569 0.950 . S
C577 C575 1.327 . S
C578 C566 1.349 . S
C578 H572 0.950 . S
C578 C579 1.327 . S
C579 H573 0.950 1_554 S
C579 C578 1.327 . S
C579 C583 1.429 . S
C580 C563 1.574 1_455 S
C580 H574 0.949 . S
C580 C584 1.368 1_565 S
C581 C562 1.429 . S
C581 C575 1.429 . S
C581 C582 1.523 . S
C582 C563 1.368 1_556 S
C582 C576 1.368 1_565 S
C582 C581 1.523 . S
C583 C567 1.429 . S
C583 C579 1.429 . S
C583 C584 1.523 . S
C584 C568 1.368 1_554 S
C584 C580 1.368 1_545 S
C584 C583 1.523 . S
H585 C560 0.950 . S
H586 C562 0.933 1_545 S
H587 C563 0.949 . S
H588 C565 0.950 . S
H589 C567 0.933 1_565 S
C590 C591 1.349 1_556 S
C590 C592 1.327 . S
C590 H615 0.950 . S
C591 C590 1.349 1_554 S
C591 C607 1.349 . S
C592 C590 1.327 . S
C592 C611 1.429 1_556 S
C592 H616 0.950 . S
C593 C610 1.574 1_565 S
C593 C612 1.368 . S
C593 H617 0.949 . S
H594 C598 0.949 . S
C595 C596 1.349 1_554 S
C595 C597 1.327 . S
C595 H618 0.950 . S
C596 C595 1.349 1_556 S
C596 C608 1.349 . S
C597 C595 1.327 . S
C597 C613 1.429 1_554 S
C597 H619 0.950 . S
C598 H594 0.949 . S
C598 C606 1.574 1_545 S
C598 C614 1.368 . S
H599 C607 0.950 . S
H600 C605 0.950 . S
H601 C606 0.949 . S
H602 C608 0.950 . S
H603 C609 0.950 . S
H604 C610 0.949 . S
C605 H600 0.950 . S
C605 C607 1.327 . S
C605 C611 1.429 . S
C606 C598 1.574 1_565 S
C606 H601 0.949 . S
C606 C612 1.368 1_556 S
C607 C591 1.349 . S
C607 H599 0.950 . S
C607 C605 1.327 . S
C608 C596 1.349 . S
C608 H602 0.950 . S
C608 C609 1.327 . S
C609 H603 0.950 . S
C609 C608 1.327 . S
C609 C613 1.429 . S
C610 C593 1.574 1_545 S
C610 H604 0.949 . S
C610 C614 1.368 1_554 S
C611 C592 1.429 1_554 S
C611 C605 1.429 . S
C611 C612 1.523 . S
C612 C593 1.368 . S
C612 C606 1.368 1_554 S
C612 C611 1.523 . S
C613 C597 1.429 1_556 S
C613 C609 1.429 . S
C613 C614 1.523 . S
C614 C598 1.368 . S
C614 C610 1.368 1_556 S
C614 C613 1.523 . S
H615 C590 0.950 . S
H616 C592 0.950 . S
H617 C593 0.949 . S
H618 C595 0.950 . S
H619 C597 0.950 . S
C620 C621 1.349 . S
C620 C622 1.327 . S
C620 H645 0.950 . S
C621 C620 1.349 . S
C621 C637 1.349 . S
C622 C620 1.327 . S
C622 C641 1.429 . S
C622 H646 0.950 . S
C623 C640 1.574 1_655 S
C623 C642 1.368 . S
C623 H647 0.949 . S
H624 C628 0.949 . S
C625 C626 1.349 . S
C625 C627 1.327 . S
C625 H648 0.950 . S
C626 C625 1.349 . S
C626 C638 1.349 . S
C627 C625 1.327 . S
C627 C643 1.429 . S
C627 H649 0.950 . S
C628 H624 0.949 . S
C628 C636 1.574 1_455 S
C628 C644 1.368 . S
H629 C637 0.950 . S
H630 C635 0.950 . S
H631 C636 0.949 . S
H632 C638 0.950 . S
H633 C639 0.950 . S
H634 C640 0.949 . S
C635 H630 0.950 . S
C635 C637 1.327 . S
C635 C641 1.429 . S
C636 C628 1.574 1_655 S
C636 H631 0.949 . S
C636 C642 1.368 . S
C637 C621 1.349 . S
C637 H629 0.950 . S
C637 C635 1.327 . S
C638 C626 1.349 . S
C638 H632 0.950 . S
C638 C639 1.327 . S
C639 H633 0.950 . S
C639 C638 1.327 . S
C639 C643 1.429 . S
C640 C623 1.574 1_455 S
C640 H634 0.949 . S
C640 C644 1.368 . S
C641 C622 1.429 . S
C641 C635 1.429 . S
C641 C642 1.523 . S
C642 C623 1.368 . S
C642 C636 1.368 . S
C642 C641 1.523 . S
C643 C627 1.429 . S
C643 C639 1.429 . S
C643 C644 1.523 . S
C644 C628 1.368 . S
C644 C640 1.368 . S
C644 C643 1.523 . S
H645 C620 0.950 . S
H646 C622 0.950 . S
H647 C623 0.949 . S
H648 C625 0.950 . S
H649 C627 0.950 . S
C650 C651 1.349 . S
C650 C652 1.327 . S
C650 H675 0.950 . S
C651 C650 1.349 . S
C651 C667 1.349 . S
C652 C650 1.327 . S
C652 C671 1.429 . S
C652 H676 0.950 . S
C653 C670 1.574 . S
C653 C672 1.368 . S
C653 H677 0.949 . S
H654 C658 0.949 . S
C655 C656 1.349 . S
C655 C657 1.327 . S
C655 H678 0.950 . S
C656 C655 1.349 . S
C656 C668 1.349 . S
C657 C655 1.327 . S
C657 C673 1.429 . S
C657 H679 0.950 . S
C658 H654 0.949 . S
C658 C666 1.574 . S
C658 C674 1.368 . S
H659 C667 0.950 . S
H660 C665 0.950 . S
H661 C666 0.949 . S
H662 C668 0.950 . S
H663 C669 0.950 . S
H664 C670 0.949 . S
C665 H660 0.950 . S
C665 C667 1.327 . S
C665 C671 1.429 . S
C666 C658 1.574 . S
C666 H661 0.949 . S
C666 C672 1.368 . S
C667 C651 1.349 . S
C667 H659 0.950 . S
C667 C665 1.327 . S
C668 C656 1.349 . S
C668 H662 0.950 . S
C668 C669 1.327 . S
C669 H663 0.950 . S
C669 C668 1.327 . S
C669 C673 1.429 . S
C670 C653 1.574 . S
C670 H664 0.949 . S
C670 C674 1.368 . S
C671 C652 1.429 . S
C671 C665 1.429 . S
C671 C672 1.523 . S
C672 C653 1.368 . S
C672 C666 1.368 . S
C672 C671 1.523 . S
C673 C657 1.429 . S
C673 C669 1.429 . S
C673 C674 1.523 . S
C674 C658 1.368 . S
C674 C670 1.368 . S
C674 C673 1.523 . S
H675 C650 0.950 . S
H676 C652 0.950 . S
H677 C653 0.949 . S
H678 C655 0.950 . S
H679 C657 0.950 . S
C321 C15 1.500 . S
C326 C95 1.500 . S
C351 C55 1.500 . S
C356 C135 1.500 . S
C381 C175 1.500 . S
C386 C255 1.500 . S
C411 C295 1.500 . S
C416 C215 1.500 . S
C441 C61 1.488 . S
C446 C21 1.488 . S
C471 C141 1.488 . S
C476 C101 1.488 . S
C501 C221 1.489 . S
C506 C181 1.489 . S
C531 C301 1.489 . S
C536 C261 1.489 . S
C561 C162 1.488 . S
C566 C2 1.486 . S
C591 C42 1.486 . S
C596 C202 1.488 . S
C621 C242 1.488 . S
C626 C82 1.487 . S
C651 C122 1.487 . S
C656 C282 1.488 . S
