# Generated by pormake.
# Topology wjd, (6)-cn, num edge types: 1
# Building blocks:
#     Node 0, Type 0, BuildingBlock: MIFKUJ_clean_sbu_0, # of connection points: 6
#     Node 1, Type 0, BuildingBlock: MIFKUJ_clean_sbu_0, # of connection points: 6
#     Node 2, Type 0, BuildingBlock: MIFKUJ_clean_sbu_0, # of connection points: 6
#     Node 3, Type 0, BuildingBlock: MIFKUJ_clean_sbu_0, # of connection points: 6
#     Node 4, Type 0, BuildingBlock: MIFKUJ_clean_sbu_0, # of connection points: 6
#     Node 5, Type 0, BuildingBlock: MIFKUJ_clean_sbu_0, # of connection points: 6
#     Node 6, Type 0, BuildingBlock: MIFKUJ_clean_sbu_0, # of connection points: 6
#     Node 7, Type 0, BuildingBlock: MIFKUJ_clean_sbu_0, # of connection points: 6
#     Node 8, Type 0, BuildingBlock: MIFKUJ_clean_sbu_0, # of connection points: 6
#     Node 9, Type 0, BuildingBlock: MIFKUJ_clean_sbu_0, # of connection points: 6
#     Node 10, Type 0, BuildingBlock: MIFKUJ_clean_sbu_0, # of connection points: 6
#     Node 11, Type 0, BuildingBlock: MIFKUJ_clean_sbu_0, # of connection points: 6
#     Edge 12, Type (0, 0), BuildingBlock: XUDNAN_clean_linker_2, # of connection points: 2
#     Edge 13, Type (0, 0), BuildingBlock: XUDNAN_clean_linker_2, # of connection points: 2
#     Edge 14, Type (0, 0), BuildingBlock: XUDNAN_clean_linker_2, # of connection points: 2
#     Edge 15, Type (0, 0), BuildingBlock: XUDNAN_clean_linker_2, # of connection points: 2
#     Edge 16, Type (0, 0), BuildingBlock: XUDNAN_clean_linker_2, # of connection points: 2
#     Edge 17, Type (0, 0), BuildingBlock: XUDNAN_clean_linker_2, # of connection points: 2
#     Edge 18, Type (0, 0), BuildingBlock: XUDNAN_clean_linker_2, # of connection points: 2
#     Edge 19, Type (0, 0), BuildingBlock: XUDNAN_clean_linker_2, # of connection points: 2
#     Edge 20, Type (0, 0), BuildingBlock: XUDNAN_clean_linker_2, # of connection points: 2
#     Edge 21, Type (0, 0), BuildingBlock: XUDNAN_clean_linker_2, # of connection points: 2
#     Edge 22, Type (0, 0), BuildingBlock: XUDNAN_clean_linker_2, # of connection points: 2
#     Edge 23, Type (0, 0), BuildingBlock: XUDNAN_clean_linker_2, # of connection points: 2
#     Edge 24, Type (0, 0), BuildingBlock: XUDNAN_clean_linker_2, # of connection points: 2
#     Edge 25, Type (0, 0), BuildingBlock: XUDNAN_clean_linker_2, # of connection points: 2
#     Edge 26, Type (0, 0), BuildingBlock: XUDNAN_clean_linker_2, # of connection points: 2
#     Edge 27, Type (0, 0), BuildingBlock: XUDNAN_clean_linker_2, # of connection points: 2
#     Edge 28, Type (0, 0), BuildingBlock: XUDNAN_clean_linker_2, # of connection points: 2
#     Edge 29, Type (0, 0), BuildingBlock: XUDNAN_clean_linker_2, # of connection points: 2
#     Edge 30, Type (0, 0), BuildingBlock: XUDNAN_clean_linker_2, # of connection points: 2
#     Edge 31, Type (0, 0), BuildingBlock: XUDNAN_clean_linker_2, # of connection points: 2
#     Edge 32, Type (0, 0), BuildingBlock: XUDNAN_clean_linker_2, # of connection points: 2
#     Edge 33, Type (0, 0), BuildingBlock: XUDNAN_clean_linker_2, # of connection points: 2
#     Edge 34, Type (0, 0), BuildingBlock: XUDNAN_clean_linker_2, # of connection points: 2
#     Edge 35, Type (0, 0), BuildingBlock: XUDNAN_clean_linker_2, # of connection points: 2
#     Edge 36, Type (0, 0), BuildingBlock: XUDNAN_clean_linker_2, # of connection points: 2
#     Edge 37, Type (0, 0), BuildingBlock: XUDNAN_clean_linker_2, # of connection points: 2
#     Edge 38, Type (0, 0), BuildingBlock: XUDNAN_clean_linker_2, # of connection points: 2
#     Edge 39, Type (0, 0), BuildingBlock: XUDNAN_clean_linker_2, # of connection points: 2
#     Edge 40, Type (0, 0), BuildingBlock: XUDNAN_clean_linker_2, # of connection points: 2
#     Edge 41, Type (0, 0), BuildingBlock: XUDNAN_clean_linker_2, # of connection points: 2
#     Edge 42, Type (0, 0), BuildingBlock: XUDNAN_clean_linker_2, # of connection points: 2
#     Edge 43, Type (0, 0), BuildingBlock: XUDNAN_clean_linker_2, # of connection points: 2
#     Edge 44, Type (0, 0), BuildingBlock: XUDNAN_clean_linker_2, # of connection points: 2
#     Edge 45, Type (0, 0), BuildingBlock: XUDNAN_clean_linker_2, # of connection points: 2
#     Edge 46, Type (0, 0), BuildingBlock: XUDNAN_clean_linker_2, # of connection points: 2
#     Edge 47, Type (0, 0), BuildingBlock: XUDNAN_clean_linker_2, # of connection points: 2
# Relax obj value: 0.084
# Max RMSD: 0.185
# Mean RMSD: 0.185
data_MOF--net-wjd--node1-MIFKUJ_clean_sbu_0--edge1-XUDNAN_clean_linker_2
_symmetry_space_group_name_H-M    P1
_symmetry_Int_Tables_number       1
_symmetry_cell_setting            triclinic
loop_
_symmetry_equiv_pos_as_xyz
'x, y, z'
_cell_length_a     34.855932
_cell_length_b     34.924326
_cell_length_c     52.456683
_cell_angle_alpha  90.034041
_cell_angle_beta   89.897458
_cell_angle_gamma 120.22273
loop_
_atom_site_label
_atom_site_type_symbol
_atom_site_fract_x
_atom_site_fract_y
_atom_site_fract_z
_atom_type_partial_charge
Zn0 Zn 0.27128 0.07911 0.11724 0.0
Zn1 Zn 0.41114 0.15442 0.10968 0.0
C2 C 0.2472 0.14478 0.13102 0.0
O3 O 0.27985 0.15697 0.14733 0.0
C4 C 0.4891 0.15034 0.10503 0.0
O5 O 0.48807 0.16789 0.08307 0.0
O6 O 0.22398 0.01544 0.11566 0.0
O7 O 0.3172 0.09135 0.08861 0.0
O8 O 0.38737 0.12709 0.07562 0.0
C9 C 0.19239 0.00304 0.09985 0.0
O10 O 0.19312 0.03196 0.08356 0.0
O11 O 0.23973 0.11458 0.11487 0.0
C12 C 0.43975 0.24101 0.12936 0.0
O13 O 0.42383 0.21879 0.15066 0.0
O14 O 0.4369 0.22008 0.10898 0.0
O15 O 0.35765 0.12514 0.13031 0.0
O16 O 0.2983 0.08824 0.15258 0.0
O17 O 0.45782 0.14029 0.12088 0.0
C18 C 0.34635 0.09972 0.07135 0.0
C19 C 0.34013 0.11133 0.15178 0.0
Zn20 Zn 0.78149 0.60057 0.3727 0.0
Zn21 Zn 0.80453 0.71093 0.35768 0.0
C22 C 0.70157 0.51671 0.38165 0.0
O23 O 0.72426 0.51566 0.40134 0.0
C24 C 0.89723 0.76038 0.34295 0.0
O25 O 0.88263 0.78143 0.32885 0.0
O26 O 0.81955 0.57403 0.38075 0.0
O27 O 0.802 0.63018 0.33834 0.0
O28 O 0.7642 0.66394 0.33346 0.0
C29 C 0.81731 0.54595 0.3645 0.0
O30 O 0.79143 0.53714 0.34455 0.0
O31 O 0.71937 0.54977 0.36665 0.0
C32 C 0.76962 0.76984 0.35516 0.0
O33 O 0.73633 0.73807 0.3679 0.0
O34 O 0.80195 0.76498 0.34849 0.0
O35 O 0.78327 0.69804 0.39327 0.0
O36 O 0.77523 0.63278 0.40359 0.0
O37 O 0.86947 0.72702 0.35598 0.0
C38 C 0.77311 0.63474 0.32629 0.0
C39 C 0.77432 0.66775 0.40946 0.0
Zn40 Zn 0.93502 0.22949 0.14057 0.0
Zn41 Zn 0.87026 0.28354 0.11758 0.0
C42 C 0.86121 0.14457 0.15422 0.0
O43 O 0.86883 0.16277 0.17695 0.0
C44 C 0.86271 0.35207 0.08926 0.0
O45 O 0.87264 0.33668 0.06898 0.0
O46 O 0.9863 0.22103 0.15044 0.0
O47 O 0.95612 0.26287 0.1084 0.0
O48 O 0.91784 0.29224 0.09226 0.0
C49 C 0.99525 0.19741 0.13586 0.0
O50 O 0.96957 0.17799 0.11611 0.0
O51 O 0.88306 0.16826 0.13529 0.0
C52 C 0.78726 0.20434 0.13024 0.0
O53 O 0.80602 0.20916 0.15262 0.0
O54 O 0.81027 0.22927 0.11194 0.0
O55 O 0.88659 0.29264 0.15481 0.0
O56 O 0.92615 0.26281 0.16855 0.0
O57 O 0.85988 0.33428 0.11084 0.0
C58 C 0.94971 0.28444 0.0912 0.0
C59 C 0.90731 0.28542 0.17229 0.0
Zn60 Zn 0.3915 0.13951 0.37534 0.0
Zn61 Zn 0.28991 0.04498 0.36244 0.0
C62 C 0.45469 0.11177 0.39119 0.0
O63 O 0.4314 0.09967 0.41237 0.0
C64 C 0.24567 0.0935 0.35052 0.0
O65 O 0.23285 0.06723 0.33055 0.0
O66 O 0.42456 0.20576 0.381 0.0
O67 O 0.36223 0.12794 0.34089 0.0
O68 O 0.33414 0.05659 0.33509 0.0
C69 C 0.42369 0.23331 0.3655 0.0
O70 O 0.39613 0.21852 0.34614 0.0
O71 O 0.4424 0.12699 0.37287 0.0
C72 C 0.21883 0.95158 0.36543 0.0
O73 O 0.24566 0.94782 0.38145 0.0
O74 O 0.23157 0.9887 0.35462 0.0
O75 O 0.31046 0.038 0.3962 0.0
O76 O 0.35503 0.10861 0.40685 0.0
O77 O 0.2734 0.09253 0.36585 0.0
C78 C 0.35921 0.0961 0.3277 0.0
C79 C 0.33049 0.06794 0.41288 0.0
Zn80 Zn 0.79764 0.76358 0.13214 0.0
Zn81 Zn 0.74156 0.63232 0.10769 0.0
C82 C 0.88766 0.77917 0.13477 0.0
O83 O 0.87077 0.7473 0.15179 0.0
C84 C 0.66372 0.55062 0.10394 0.0
O85 O 0.67997 0.55514 0.0808 0.0
O86 O 0.78516 0.81258 0.14025 0.0
O87 O 0.76171 0.72905 0.1003 0.0
O88 O 0.72972 0.66438 0.07991 0.0
C89 C 0.79682 0.84419 0.12451 0.0
O90 O 0.81564 0.84335 0.10295 0.0
O91 O 0.86272 0.79116 0.12399 0.0
C92 C 0.78608 0.58419 0.1123 0.0
O93 O 0.76882 0.57909 0.13521 0.0
O94 O 0.78124 0.60899 0.09649 0.0
O95 O 0.76674 0.67767 0.13365 0.0
O96 O 0.78499 0.72526 0.16373 0.0
O97 O 0.68451 0.58146 0.11998 0.0
C98 C 0.73962 0.7049 0.0814 0.0
C99 C 0.77078 0.68558 0.15715 0.0
Zn100 Zn 0.86088 0.22793 0.38162 0.0
Zn101 Zn 0.93884 0.17208 0.36303 0.0
C102 C 0.90674 0.32435 0.38165 0.0
O103 O 0.9337 0.321 0.39776 0.0
C104 C 0.89087 0.08546 0.34456 0.0
O105 O 0.92303 0.10354 0.32765 0.0
O106 O 0.79403 0.19012 0.38714 0.0
O107 O 0.88417 0.20194 0.35698 0.0
O108 O 0.93356 0.20227 0.33196 0.0
C109 C 0.76885 0.20073 0.37526 0.0
O110 O 0.78685 0.23475 0.35966 0.0
O111 O 0.87542 0.28946 0.37162 0.0
C112 C 0.0136 0.1661 0.3823 0.0
O113 O 0.99211 0.15848 0.404 0.0
O114 O 0.99744 0.17315 0.36234 0.0
O115 O 0.93314 0.20372 0.39437 0.0
O116 O 0.89668 0.23285 0.41329 0.0
O117 O 0.88981 0.10919 0.36256 0.0
C118 C 0.90643 0.21548 0.33657 0.0
C119 C 0.92765 0.22333 0.41331 0.0
Zn120 Zn 0.17469 0.3873 0.60433 0.0
Zn121 Zn 0.07762 0.27743 0.61009 0.0
C122 C 0.15369 0.45273 0.58482 0.0
O123 O 0.15514 0.43613 0.5626 0.0
C124 C 0.1187 0.22722 0.61404 0.0
O125 O 0.09441 0.21717 0.63483 0.0
O126 O 0.24158 0.42119 0.59985 0.0
O127 O 0.15918 0.35848 0.63956 0.0
O128 O 0.09315 0.29799 0.64568 0.0
C129 C 0.26664 0.43632 0.61927 0.0
O130 O 0.24877 0.42722 0.64209 0.0
O131 O 0.15938 0.4361 0.60503 0.0
C132 C 0.00428 0.20245 0.58722 0.0
O133 O 0.03034 0.21974 0.56731 0.0
O134 O 0.0165 0.2225 0.60852 0.0
O135 O 0.07912 0.32382 0.58735 0.0
O136 O 0.14673 0.34983 0.57288 0.0
O137 O 0.11906 0.25586 0.59888 0.0
C138 C 0.12997 0.32886 0.65411 0.0
C139 C 0.1054 0.3326 0.56875 0.0
Zn140 Zn 0.16915 0.91556 0.8839 0.0
Zn141 Zn 0.19624 0.82966 0.89677 0.0
C142 C 0.07785 0.86379 0.88193 0.0
O143 O 0.08886 0.87943 0.85863 0.0
C144 C 0.28091 0.83713 0.90903 0.0
O145 O 0.25665 0.80341 0.92413 0.0
O146 O 0.17057 0.9742 0.88063 0.0
O147 O 0.21895 0.92663 0.90686 0.0
O148 O 0.18664 0.86182 0.92627 0.0
C149 C 0.17971 0.99854 0.90036 0.0
O150 O 0.18889 0.98534 0.92176 0.0
O151 O 0.1086 0.87311 0.898 0.0
C152 C 0.14009 0.73441 0.88842 0.0
O153 O 0.12312 0.74699 0.87016 0.0
O154 O 0.16917 0.76358 0.90309 0.0
O155 O 0.18384 0.83845 0.86022 0.0
O156 O 0.175 0.89508 0.84983 0.0
O157 O 0.26231 0.85402 0.89612 0.0
C158 C 0.21375 0.9033 0.92642 0.0
C159 C 0.17788 0.86148 0.84363 0.0
Zn160 Zn 0.63633 0.78153 0.59618 0.0
Zn161 Zn 0.74114 0.7977 0.61031 0.0
C162 C 0.55699 0.69676 0.5866 0.0
O163 O 0.55472 0.7169 0.566 0.0
C164 C 0.78363 0.89029 0.60969 0.0
O165 O 0.78966 0.88149 0.6332 0.0
O166 O 0.60006 0.8102 0.5867 0.0
O167 O 0.65975 0.80216 0.63235 0.0
O168 O 0.71806 0.79744 0.64471 0.0
C169 C 0.60487 0.84448 0.59814 0.0
O170 O 0.63818 0.86541 0.61403 0.0
O171 O 0.58966 0.71743 0.60168 0.0
C172 C 0.82698 0.8103 0.59662 0.0
O173 O 0.82353 0.83412 0.57838 0.0
O174 O 0.79595 0.79176 0.61303 0.0
O175 O 0.69811 0.74558 0.58986 0.0
O176 O 0.6743 0.78104 0.56626 0.0
O177 O 0.76097 0.85807 0.59459 0.0
C178 C 0.68669 0.80482 0.64961 0.0
C179 C 0.68789 0.75351 0.5682 0.0
Zn180 Zn 0.0714 0.28915 0.88285 0.0
Zn181 Zn 0.16647 0.38827 0.88841 0.0
C182 C 0.10787 0.23402 0.87686 0.0
O183 O 0.08254 0.22421 0.85658 0.0
C184 C 0.15469 0.46146 0.89861 0.0
O185 O 0.1823 0.46558 0.91686 0.0
O186 O 0.00986 0.23429 0.881 0.0
O187 O 0.07133 0.32865 0.91039 0.0
O188 O 0.14122 0.35506 0.92135 0.0
C189 C 0.98669 0.21741 0.90102 0.0
O190 O 1.00146 0.23785 0.92292 0.0
O191 O 0.11092 0.26419 0.89179 0.0
C192 C 0.25589 0.44793 0.8729 0.0
O193 O 0.23629 0.43687 0.85058 0.0
O194 O 0.23288 0.43065 0.89291 0.0
O195 O 0.16023 0.35399 0.85597 0.0
O196 O 0.088 0.3164 0.84836 0.0
O197 O 0.14106 0.42884 0.88331 0.0
C198 C 0.1013 0.34281 0.92735 0.0
C199 C 0.12787 0.33492 0.84053 0.0
Zn200 Zn 0.24251 0.8447 0.60794 0.0
Zn201 Zn 0.20661 0.92757 0.61678 0.0
C202 C 0.32161 0.8411 0.5954 0.0
O203 O 0.29528 0.81357 0.57787 0.0
C204 C 0.12317 0.8474 0.60434 0.0
O205 O 0.13676 0.82829 0.62065 0.0
O206 O 0.20615 0.77968 0.59914 0.0
O207 O 0.22411 0.85434 0.64347 0.0
O208 O 0.20304 0.90377 0.6511 0.0
C209 C 0.20704 0.75185 0.61439 0.0
O210 O 0.22922 0.76629 0.63583 0.0
O211 O 0.30641 0.85861 0.61069 0.0
C212 C 0.20874 0.00434 0.59762 0.0
O213 O 0.21092 0.9856 0.57638 0.0
O214 O 0.20728 0.98577 0.61877 0.0
O215 O 0.26375 0.94018 0.60114 0.0
O216 O 0.24258 0.8811 0.57774 0.0
O217 O 0.1498 0.8872 0.59764 0.0
C218 C 0.21092 0.87388 0.65871 0.0
C219 C 0.26068 0.92288 0.5796 0.0
Zn220 Zn 0.70669 0.81102 0.87971 0.0
Zn221 Zn 0.61211 0.8083 0.88349 0.0
C222 C 0.76333 0.90406 0.87573 0.0
O223 O 0.77465 0.89027 0.85528 0.0
C224 C 0.54063 0.72085 0.89511 0.0
O225 O 0.53772 0.74193 0.9151 0.0
O226 O 0.75865 0.80084 0.88056 0.0
O227 O 0.66292 0.76911 0.90502 0.0
O228 O 0.64665 0.81934 0.91641 0.0
C229 C 0.77531 0.801 0.90214 0.0
O230 O 0.75737 0.80657 0.92281 0.0
O231 O 0.73246 0.87551 0.88989 0.0
C232 C 0.57067 0.8638 0.88028 0.0
O233 O 0.60411 0.89021 0.8655 0.0
O234 O 0.56906 0.82952 0.88966 0.0
O235 O 0.6419 0.83287 0.84908 0.0
O236 O 0.68469 0.80329 0.84423 0.0
O237 O 0.5718 0.74207 0.8791 0.0
C238 C 0.65511 0.78921 0.92252 0.0
C239 C 0.66384 0.82109 0.83487 0.0
H240 H 0.02122 0.14658 0.10926 0.0
H241 H 0.06127 0.24183 0.17107 0.0
H242 H 0.13099 0.24024 0.17566 0.0
H243 H 0.06581 0.08167 0.13631 0.0
H244 H 0.08293 0.0714 0.10585 0.0
H245 H 0.03604 0.07971 0.10781 0.0
H246 H 0.07331 0.14342 0.07483 0.0
H247 H 0.12054 0.13563 0.07298 0.0
H248 H 0.12826 0.18927 0.08097 0.0
H249 H 0.1972 0.22974 0.17274 0.0
H250 H 0.25293 0.20746 0.16456 0.0
H251 H 0.16945 0.11861 0.10477 0.0
C252 C 0.04452 0.16699 0.12386 0.0
C253 C 0.03579 0.19446 0.13977 0.0
C254 C 0.06716 0.2205 0.15868 0.0
C255 C 0.10693 0.21993 0.16137 0.0
C256 C 0.11477 0.19301 0.14509 0.0
C257 C 0.08427 0.16669 0.12687 0.0
C258 C 0.10059 0.14048 0.11191 0.0
C259 C 0.0695 0.09035 0.11571 0.0
C260 C 0.106 0.15297 0.08349 0.0
C261 C 0.14519 0.15635 0.12449 0.0
C262 C 0.15277 0.18674 0.14352 0.0
C263 C 0.19159 0.20593 0.15791 0.0
C264 C 0.22314 0.19314 0.15304 0.0
C265 C 0.21573 0.16136 0.13397 0.0
C266 C 0.17634 0.14321 0.11935 0.0
H267 H 0.15149 0.95112 0.33787 0.0
H268 H 0.18144 0.86782 0.38541 0.0
H269 H 0.10337 0.80756 0.38229 0.0
H270 H 0.04718 0.91888 0.36473 0.0
H271 H 0.02148 0.92012 0.33519 0.0
H272 H 0.08044 0.95521 0.33929 0.0
H273 H 0.09449 0.92173 0.29869 0.0
H274 H 0.03548 0.88654 0.29442 0.0
H275 H 0.07065 0.86255 0.29626 0.0
H276 H 0.02051 0.75817 0.3766 0.0
H277 H 0.93989 0.72393 0.36865 0.0
H278 H 0.96451 0.83933 0.32458 0.0
C279 C 0.14188 0.91997 0.34728 0.0
C280 C 0.17279 0.91421 0.36179 0.0
C281 C 0.15853 0.87305 0.37409 0.0
C282 C 0.1142 0.83856 0.37241 0.0
C283 C 0.08447 0.84557 0.35827 0.0
C284 C 0.09777 0.88521 0.34583 0.0
C285 C 0.05886 0.88512 0.33292 0.0
C286 C 0.05157 0.92201 0.34369 0.0
C287 C 0.06526 0.88922 0.30384 0.0
C288 C 0.02145 0.83957 0.34045 0.0
C289 C 0.03689 0.81712 0.35493 0.0
C290 C 0.00812 0.77525 0.36503 0.0
C291 C 0.96236 0.75606 0.36043 0.0
C292 C 0.94577 0.77872 0.34587 0.0
C293 C 0.97602 0.82079 0.33552 0.0
H294 H 0.8602 0.0953 0.11347 0.0
H295 H 0.80665 0.08361 0.18966 0.0
H296 H 0.77569 1.00256 0.18815 0.0
H297 H 0.77013 0.98664 0.08814 0.0
H298 H 0.80962 0.97802 0.07054 0.0
H299 H 0.81999 0.03346 0.07579 0.0
H300 H 0.89602 0.05499 0.09607 0.0
H301 H 0.88575 0.99967 0.09117 0.0
H302 H 0.89797 0.0234 0.1227 0.0
H303 H 0.76011 0.92481 0.18073 0.0
H304 H 0.76028 0.85686 0.16783 0.0
H305 H 0.82533 0.9202 0.09681 0.0
C306 C 0.8406 0.0756 0.1295 0.0
C307 C 0.83552 0.09576 0.15161 0.0
C308 C 0.81069 0.06884 0.17245 0.0
C309 C 0.79294 0.02276 0.17175 0.0
C310 C 0.80016 0.00416 0.15004 0.0
C311 C 0.82308 0.02974 0.12919 0.0
C312 C 0.8306 0.0027 0.10935 0.0
C313 C 0.80611 1.00005 0.08448 0.0
C314 C 0.88053 0.0213 0.10456 0.0
C315 C 0.80966 0.95823 0.12261 0.0
C316 C 0.79171 0.95951 0.1459 0.0
C317 C 0.77335 0.92321 0.16234 0.0
C318 C 0.77373 0.8848 0.15487 0.0
C319 C 0.79268 0.88313 0.13126 0.0
C320 C 0.81016 0.92019 0.11484 0.0
H321 H 0.18264 0.10033 0.32282 0.0
H322 H 0.25331 0.13839 0.39487 0.0
H323 H 0.20491 0.16661 0.40965 0.0
H324 H 0.1619 0.19492 0.31881 0.0
H325 H 0.10773 0.1607 0.30501 0.0
H326 H 0.15132 0.14837 0.29904 0.0
H327 H 0.1006 0.06856 0.31591 0.0
H328 H 0.05709 0.08071 0.32222 0.0
H329 H 0.07725 0.06054 0.34748 0.0
H330 H 0.1422 0.18056 0.4189 0.0
H331 H 0.07406 0.18586 0.4203 0.0
H332 H 0.04634 0.14221 0.34164 0.0
C333 C 0.18872 0.11562 0.34146 0.0
C334 C 0.22185 0.11713 0.35766 0.0
C335 C 0.22834 0.13701 0.38203 0.0
C336 C 0.20093 0.15308 0.39064 0.0
C337 C 0.1676 0.14965 0.37453 0.0
C338 C 0.16189 0.13214 0.35027 0.0
C339 C 0.12216 0.13016 0.33723 0.0
C340 C 0.13666 0.16035 0.31362 0.0
C341 C 0.08723 0.08215 0.33032 0.0
C342 C 0.10564 0.1481 0.35821 0.0
C343 C 0.13229 0.15913 0.37958 0.0
C344 C 0.12164 0.17294 0.4021 0.0
C345 C 0.08279 0.17562 0.40278 0.0
C346 C 0.05536 0.16497 0.381 0.0
C347 C 0.06728 0.15149 0.35839 0.0
H348 H 0.11153 0.97391 0.07769 0.0
H349 H 0.18162 0.93441 0.13006 0.0
H350 H 0.11101 0.8671 0.14104 0.0
H351 H 0.02297 0.94682 0.11628 0.0
H352 H 0.9813 0.92669 0.09166 0.0
H353 H 0.03783 0.96704 0.08408 0.0
H354 H 0.0396 0.91522 0.04924 0.0
H355 H 0.98267 0.87481 0.05646 0.0
H356 H 0.02477 0.8593 0.05744 0.0
H357 H 0.03222 0.81025 0.15079 0.0
H358 H 0.95124 0.76716 0.15785 0.0
H359 H 0.93279 0.84483 0.09967 0.0
C360 C 0.11229 0.9504 0.09083 0.0
C361 C 0.15204 0.95928 0.10295 0.0
C362 C 0.15151 0.92815 0.12047 0.0
C363 C 0.1116 0.88978 0.12679 0.0
C364 C 0.07266 0.88294 0.11528 0.0
C365 C 0.07275 0.91215 0.09746 0.0
C366 C 0.02604 0.89967 0.08984 0.0
C367 C 0.01651 0.93728 0.09584 0.0
C368 C 0.01779 0.88646 0.06156 0.0
C369 C 0.99965 0.86002 0.10694 0.0
C370 C 0.02709 0.85041 0.12115 0.0
C371 C 0.01034 0.81692 0.13943 0.0
C372 C 0.96431 0.79273 0.14336 0.0
C373 C 0.9357 0.80255 0.12924 0.0
C374 C 0.95374 0.8363 0.11061 0.0
H375 H 0.82824 0.8374 0.3248 0.0
H376 H 0.71849 0.80007 0.37721 0.0
H377 H 0.73126 0.8763 0.37534 0.0
H378 H 0.8986 0.93722 0.35117 0.0
H379 H 0.9228 0.96629 0.32181 0.0
H380 H 0.89997 0.90738 0.32345 0.0
H381 H 0.84817 0.89636 0.28532 0.0
H382 H 0.87115 0.95549 0.28341 0.0
H383 H 0.81204 0.91932 0.28672 0.0
H384 H 0.76414 0.9586 0.37366 0.0
H385 H 0.81239 0.0399 0.37067 0.0
H386 H 0.89919 0.0226 0.31846 0.0
C387 C 0.80609 0.84491 0.33535 0.0
C388 C 0.77239 0.81292 0.35114 0.0
C389 C 0.74433 0.82405 0.36484 0.0
C390 C 0.7513 0.86723 0.36387 0.0
C391 C 0.78591 0.89846 0.34879 0.0
C392 C 0.81242 0.88761 0.33446 0.0
C393 C 0.84995 0.92795 0.32171 0.0
C394 C 0.89548 0.93511 0.33005 0.0
C395 C 0.84501 0.92457 0.29256 0.0
C396 C 0.84179 0.96357 0.33214 0.0
C397 C 0.8044 0.94591 0.34745 0.0
C398 C 0.79284 0.97276 0.36122 0.0
C399 C 0.82054 0.01884 0.35952 0.0
C400 C 0.85925 0.03742 0.34417 0.0
C401 C 0.86932 0.00934 0.32992 0.0
H402 H 0.17901 0.03804 0.63508 0.0
H403 H 0.22841 0.0608 0.55734 0.0
H404 H 0.21645 0.12459 0.55405 0.0
H405 H 0.09236 0.05938 0.62369 0.0
H406 H 0.09688 0.08586 0.65392 0.0
H407 H 0.11379 0.04514 0.65109 0.0
H408 H 0.19186 0.10179 0.66832 0.0
H409 H 0.17512 0.14273 0.67126 0.0
H410 H 0.22362 0.15482 0.65282 0.0
H411 H 0.19446 0.18316 0.55835 0.0
H412 H 0.16221 0.22997 0.56963 0.0
H413 H 0.1262 0.1676 0.64416 0.0
C414 C 0.18816 0.05699 0.61755 0.0
C415 C 0.20493 0.04465 0.59653 0.0
C416 C 0.21558 0.06972 0.57372 0.0
C417 C 0.20905 0.1061 0.57168 0.0
C418 C 0.19175 0.11697 0.59261 0.0
C419 C 0.18145 0.09313 0.61511 0.0
C420 C 0.16039 0.10962 0.63416 0.0
C421 C 0.11306 0.07281 0.64111 0.0
C422 C 0.1895 0.12836 0.65805 0.0
C423 C 0.15984 0.14597 0.61875 0.0
C424 C 0.17847 0.1501 0.59493 0.0
C425 C 0.18014 0.18048 0.57704 0.0
C426 C 0.16179 0.20696 0.58361 0.0
C427 C 0.14176 0.20254 0.60777 0.0
C428 C 0.14142 0.17199 0.62556 0.0
H429 H 0.00624 0.84073 0.85149 0.0
H430 H 0.04326 0.83883 0.93024 0.0
H431 H 0.96592 0.81299 0.9436 0.0
H432 H 0.94092 0.88597 0.86276 0.0
H433 H 0.89971 0.85475 0.83888 0.0
H434 H 0.95546 0.86533 0.83506 0.0
H435 H 0.92612 0.78109 0.83102 0.0
H436 H 0.87004 0.77017 0.8346 0.0
H437 H 0.89086 0.74402 0.85565 0.0
H438 H 0.88785 0.79831 0.9488 0.0
H439 H 0.81518 0.79403 0.94537 0.0
H440 H 0.82962 0.80525 0.8631 0.0
C441 C 0.99793 0.83375 0.8715 0.0
C442 C 0.03075 0.84169 0.88983 0.0
C443 C 0.01857 0.83268 0.91584 0.0
C444 C 0.97473 0.81798 0.9236 0.0
C445 C 0.94352 0.81202 0.90507 0.0
C446 C 0.95452 0.81916 0.87951 0.0
C447 C 0.91619 0.81441 0.86359 0.0
C448 C 0.92884 0.85769 0.84925 0.0
C449 C 0.89983 0.77507 0.84513 0.0
C450 C 0.88237 0.80519 0.88428 0.0
C451 C 0.8985 0.80337 0.90804 0.0
C452 C 0.87455 0.79877 0.93025 0.0
C453 C 0.83334 0.79649 0.92811 0.0
C454 C 0.81656 0.79894 0.90395 0.0
C455 C 0.84118 0.80255 0.88179 0.0
H456 H 0.82591 0.96476 0.63896 0.0
H457 H 0.79605 0.92114 0.56033 0.0
H458 H 0.84384 0.99864 0.54591 0.0
H459 H 0.83208 0.07319 0.63016 0.0
H460 H 0.8771 0.10019 0.65257 0.0
H461 H 0.83629 0.04239 0.6565 0.0
H462 H 0.89897 0.02302 0.65672 0.0
H463 H 0.93986 0.08057 0.65266 0.0
H464 H 0.93729 0.04013 0.63032 0.0
H465 H 0.90257 0.07919 0.54028 0.0
H466 H 0.96478 0.15612 0.54376 0.0
H467 H 0.95433 0.14722 0.62621 0.0
C468 C 0.82862 0.97152 0.61869 0.0
C469 C 0.80718 0.93687 0.60075 0.0
C470 C 0.81188 0.94718 0.57442 0.0
C471 C 0.839 0.9911 0.56607 0.0
C472 C 0.86062 0.02431 0.58431 0.0
C473 C 0.85525 0.01504 0.6101 0.0
C474 C 0.88422 0.056 0.62584 0.0
C475 C 0.85571 0.06869 0.64223 0.0
C476 C 0.91702 0.04952 0.64234 0.0
C477 C 0.90798 0.08959 0.6049 0.0
C478 C 0.89369 0.07079 0.58107 0.0
C479 C 0.9133 0.09446 0.55883 0.0
C480 C 0.94866 0.13819 0.56101 0.0
C481 C 0.96402 0.158 0.58524 0.0
C482 C 0.94279 0.13341 0.60741 0.0
H483 H 0.1032 0.16488 0.84966 0.0
H484 H 0.15815 0.24137 0.91888 0.0
H485 H 0.18665 0.1919 0.93112 0.0
H486 H 0.06575 0.06025 0.87695 0.0
H487 H 0.07894 0.03739 0.84975 0.0
H488 H 0.0663 0.08097 0.8454 0.0
H489 H 0.14148 0.12865 0.82222 0.0
H490 H 0.15432 0.0851 0.8264 0.0
H491 H 0.19228 0.14021 0.83779 0.0
H492 H 0.20388 0.13056 0.93735 0.0
H493 H 0.2102 0.06329 0.93673 0.0
H494 H 0.14458 0.02735 0.86313 0.0
C495 C 0.12183 0.17175 0.86722 0.0
C496 C 0.12856 0.20715 0.88329 0.0
C497 C 0.15275 0.21461 0.90621 0.0
C498 C 0.16905 0.18668 0.91332 0.0
C499 C 0.16111 0.15162 0.89723 0.0
C500 C 0.13831 0.14427 0.87457 0.0
C501 C 0.13244 0.10315 0.86123 0.0
C502 C 0.08293 0.0684 0.85817 0.0
C503 C 0.15658 0.115 0.83538 0.0
C504 C 0.15486 0.088 0.88013 0.0
C505 C 0.17132 0.1165 0.90072 0.0
C506 C 0.19157 0.10831 0.92119 0.0
C507 C 0.19489 0.06992 0.92068 0.0
C508 C 0.17812 0.04014 0.89981 0.0
C509 C 0.15824 0.04971 0.87919 0.0
H510 H 0.08148 0.88381 0.57763 0.0
H511 H 0.05557 0.76755 0.62127 0.0
H512 H 0.97561 0.74243 0.62135 0.0
H513 H 0.00904 0.90587 0.60965 0.0
H514 H 0.99017 0.9232 0.58239 0.0
H515 H 0.04442 0.92894 0.58211 0.0
H516 H 0.02535 0.88265 0.54063 0.0
H517 H 0.97118 0.87738 0.54049 0.0
H518 H 0.97624 0.82852 0.53949 0.0
H519 H 0.90062 0.7362 0.62273 0.0
H520 H 0.83457 0.745 0.62089 0.0
H521 H 0.90862 0.86378 0.57519 0.0
C522 C 0.0589 0.85233 0.58649 0.0
C523 C 0.07495 0.82769 0.59945 0.0
C524 C 0.0442 0.78699 0.61113 0.0
C525 C 0.99864 0.77245 0.61134 0.0
C526 C 0.9842 0.79862 0.59947 0.0
C527 C 0.01328 0.83724 0.58679 0.0
C528 C 0.98967 0.8607 0.57693 0.0
C529 C 0.00951 0.90742 0.58847 0.0
C530 C 0.99066 0.86239 0.54764 0.0
C531 C 0.94313 0.83006 0.58681 0.0
C532 C 0.94063 0.7944 0.59973 0.0
C533 C 0.90192 0.76347 0.61219 0.0
C534 C 0.86469 0.76891 0.61122 0.0
C535 C 0.86637 0.80483 0.59774 0.0
C536 C 0.90611 0.83557 0.5853 0.0
H537 H 0.95966 0.15494 0.86302 0.0
H538 H 0.92248 0.17897 0.93777 0.0
H539 H 0.85809 0.10276 0.93832 0.0
H540 H 0.84678 0.08316 0.83856 0.0
H541 H 0.8619 0.04734 0.8221 0.0
H542 H 0.9025 0.10501 0.82662 0.0
H543 H 0.95507 0.08284 0.84857 0.0
H544 H 0.91463 0.02518 0.8442 0.0
H545 H 0.93535 0.04607 0.87565 0.0
H546 H 0.79999 0.02211 0.93174 0.0
H547 H 0.75412 0.94357 0.91886 0.0
H548 H 0.83045 0.97225 0.84887 0.0
C549 C 0.93747 0.1445 0.87928 0.0
C550 C 0.94591 0.1731 0.90026 0.0
C551 C 0.9166 0.15774 0.92143 0.0
C552 C 0.87987 0.11451 0.9219 0.0
C553 C 0.87292 0.08691 0.9011 0.0
C554 C 0.90091 0.10133 0.88017 0.0
C555 C 0.88777 0.06433 0.86099 0.0
C556 C 0.87391 0.07564 0.83556 0.0
C557 C 0.92544 0.05401 0.85714 0.0
C558 C 0.84837 0.02672 0.87451 0.0
C559 C 0.84004 0.04044 0.89751 0.0
C560 C 0.80603 0.0111 0.91367 0.0
C561 C 0.78012 0.96653 0.90619 0.0
C562 C 0.78854 0.95165 0.88284 0.0
C563 C 0.82293 0.98247 0.86679 0.0
H564 H 0.36865 0.16106 0.29555 0.0
H565 H 0.38687 0.0475 0.30108 0.0
H566 H 0.40574 0.05428 0.25531 0.0
H567 H 0.3081 0.12835 0.24401 0.0
H568 H 0.32836 0.18152 0.22893 0.0
H569 H 0.33224 0.17838 0.26281 0.0
H570 H 0.41714 0.23272 0.26049 0.0
H571 H 0.41347 0.23598 0.22633 0.0
H572 H 0.45103 0.22035 0.23998 0.0
H573 H 0.40636 0.06235 0.20881 0.0
H574 H 0.38009 0.06531 0.16547 0.0
H575 H 0.35504 0.16916 0.18956 0.0
C576 C 0.37855 0.13893 0.28726 0.0
C577 C 0.37682 0.10407 0.30163 0.0
C578 C 0.38827 0.07454 0.29021 0.0
C579 C 0.39954 0.07851 0.26434 0.0
C580 C 0.39898 0.11207 0.25024 0.0
C581 C 0.3887 0.14182 0.26133 0.0
C582 C 0.38082 0.16839 0.24141 0.0
C583 C 0.33465 0.1638 0.24448 0.0
C584 C 0.41783 0.21726 0.2421 0.0
C585 C 0.38393 0.14595 0.2175 0.0
C586 C 0.39693 0.11532 0.22288 0.0
C587 C 0.39737 0.08703 0.20423 0.0
C588 C 0.38237 0.08879 0.17976 0.0
C589 C 0.3664 0.11788 0.17458 0.0
C590 C 0.36837 0.1476 0.19328 0.0
H591 H 0.82456 0.63283 0.28808 0.0
H592 H 0.69006 0.59798 0.30703 0.0
H593 H 0.66907 0.58312 0.26171 0.0
H594 H 0.83676 0.69788 0.24188 0.0
H595 H 0.86959 0.68562 0.22037 0.0
H596 H 0.8699 0.67538 0.25374 0.0
H597 H 0.84527 0.59332 0.2444 0.0
H598 H 0.8449 0.60347 0.21071 0.0
H599 H 0.79594 0.55981 0.22588 0.0
H600 H 0.66747 0.59295 0.21582 0.0
H601 H 0.68701 0.63232 0.17451 0.0
H602 H 0.82332 0.6652 0.18411 0.0
C603 C 0.79021 0.61961 0.28264 0.0
C604 C 0.75864 0.61574 0.30077 0.0
C605 C 0.71441 0.60051 0.29324 0.0
C606 C 0.70219 0.59165 0.26757 0.0
C607 C 0.73471 0.59849 0.24969 0.0
C608 C 0.77794 0.61188 0.25692 0.0
C609 C 0.80879 0.62689 0.23409 0.0
C610 C 0.84851 0.67423 0.23775 0.0
C611 C 0.82465 0.59389 0.22844 0.0
C612 C 0.77741 0.62496 0.21355 0.0
C613 C 0.73427 0.606 0.22256 0.0
C614 C 0.70072 0.60646 0.20826 0.0
C615 C 0.71198 0.62886 0.18486 0.0
C616 C 0.75638 0.6508 0.17636 0.0
C617 C 0.78895 0.64727 0.19019 0.0
H618 H 0.97374 0.31722 0.20653 0.0
H619 H 0.83675 0.28219 0.19683 0.0
H620 H 0.82839 0.28389 0.24348 0.0
H621 H 0.96105 0.25008 0.24965 0.0
H622 H 0.00903 0.28337 0.26926 0.0
H623 H 0.00968 0.29739 0.2365 0.0
H624 H 0.02739 0.37634 0.24911 0.0
H625 H 0.02715 0.36256 0.28228 0.0
H626 H 0.99207 0.38342 0.27144 0.0
H627 H 0.82726 0.26276 0.28831 0.0
H628 H 0.8347 0.22404 0.32566 0.0
H629 H 0.97347 0.2768 0.30807 0.0
C630 C 0.94282 0.31232 0.21437 0.0
C631 C 0.90596 0.2996 0.19845 0.0
C632 C 0.86554 0.29258 0.20889 0.0
C633 C 0.8606 0.29362 0.23537 0.0
C634 C 0.8968 0.30301 0.25092 0.0
C635 C 0.93772 0.31371 0.24069 0.0
C636 C 0.96885 0.31431 0.26091 0.0
C637 C 0.98815 0.28446 0.25364 0.0
C638 C 0.00605 0.362 0.26625 0.0
C639 C 0.93719 0.29602 0.28322 0.0
C640 C 0.89636 0.29168 0.27757 0.0
C641 C 0.85954 0.26781 0.29343 0.0
C642 C 0.86395 0.24599 0.3147 0.0
C643 C 0.90473 0.24812 0.3197 0.0
C644 C 0.94217 0.27542 0.30468 0.0
H645 H 0.0689 0.29566 0.69272 0.0
H646 H 0.21065 0.36733 0.67769 0.0
H647 H 0.22544 0.3735 0.72392 0.0
H648 H 0.07216 0.35934 0.74603 0.0
H649 H 0.02911 0.31315 0.76345 0.0
H650 H 0.02965 0.31197 0.72916 0.0
H651 H 0.02971 0.23778 0.73041 0.0
H652 H 0.02917 0.23875 0.76475 0.0
H653 H 0.07216 0.23442 0.74816 0.0
H654 H 0.22483 0.37334 0.77142 0.0
H655 H 0.20913 0.36967 0.81739 0.0
H656 H 0.06756 0.29957 0.8015 0.0
C657 C 0.10304 0.31225 0.69916 0.0
C658 C 0.1387 0.33132 0.68168 0.0
C659 C 0.1829 0.35315 0.6908 0.0
C660 C 0.19161 0.35646 0.71699 0.0
C661 C 0.15571 0.33774 0.73372 0.0
C662 C 0.11232 0.31614 0.72522 0.0
C663 C 0.07981 0.30073 0.74724 0.0
C664 C 0.051 0.32262 0.74641 0.0
C665 C 0.05102 0.2499 0.74766 0.0
C666 C 0.11179 0.3176 0.76943 0.0
C667 C 0.15537 0.33839 0.7612 0.0
C668 C 0.19085 0.35716 0.77813 0.0
C669 C 0.18154 0.35506 0.80421 0.0
C670 C 0.13711 0.33477 0.81307 0.0
C671 C 0.10187 0.3154 0.79537 0.0
H672 H 0.16302 0.90129 0.80312 0.0
H673 H 0.19398 0.79892 0.82249 0.0
H674 H 0.20138 0.78724 0.77672 0.0
H675 H 0.10036 0.84889 0.74472 0.0
H676 H 0.12198 0.90141 0.72867 0.0
H677 H 0.11488 0.89828 0.76278 0.0
H678 H 0.19781 0.95818 0.76822 0.0
H679 H 0.20525 0.96123 0.7342 0.0
H680 H 0.23998 0.94934 0.75419 0.0
H681 H 0.21198 0.79174 0.72891 0.0
H682 H 0.22231 0.81042 0.68299 0.0
H683 H 0.184 0.90952 0.69604 0.0
C684 C 0.1707 0.87592 0.79781 0.0
C685 C 0.17803 0.85113 0.81638 0.0
C686 C 0.18814 0.81831 0.80857 0.0
C687 C 0.1924 0.8114 0.78263 0.0
C688 C 0.18602 0.83726 0.76485 0.0
C689 C 0.17497 0.86855 0.77213 0.0
C690 C 0.17201 0.89362 0.74951 0.0
C691 C 0.12447 0.88501 0.74623 0.0
C692 C 0.20578 0.94353 0.75167 0.0
C693 C 0.18428 0.87237 0.72839 0.0
C694 C 0.19194 0.83972 0.7375 0.0
C695 C 0.20557 0.8169 0.7215 0.0
C696 C 0.21149 0.82784 0.6955 0.0
C697 C 0.20394 0.8614 0.6859 0.0
C698 C 0.18989 0.88357 0.70267 0.0
H699 H 0.7293 0.80086 0.69246 0.0
H700 H 0.62798 0.82966 0.66698 0.0
H701 H 0.61446 0.84218 0.71163 0.0
H702 H 0.67219 0.73999 0.74676 0.0
H703 H 0.72112 0.76014 0.76628 0.0
H704 H 0.72537 0.7573 0.73223 0.0
H705 H 0.78471 0.84087 0.73099 0.0
H706 H 0.78067 0.84396 0.7651 0.0
H707 H 0.77218 0.88064 0.74477 0.0
H708 H 0.60961 0.84797 0.75949 0.0
H709 H 0.61224 0.84411 0.80649 0.0
H710 H 0.71586 0.81021 0.79994 0.0
C711 C 0.70463 0.81035 0.69616 0.0
C712 C 0.6798 0.81438 0.67617 0.0
C713 C 0.64748 0.82638 0.68196 0.0
C714 C 0.63964 0.83371 0.70726 0.0
C715 C 0.66441 0.82893 0.72652 0.0
C716 C 0.69623 0.81752 0.72123 0.0
C717 C 0.71665 0.81208 0.74537 0.0
C718 C 0.70831 0.76456 0.74779 0.0
C719 C 0.76651 0.84644 0.74662 0.0
C720 C 0.69079 0.82143 0.76511 0.0
C721 C 0.66116 0.83159 0.75393 0.0
C722 C 0.63289 0.84031 0.76846 0.0
C723 C 0.63464 0.83807 0.79513 0.0
C724 C 0.66417 0.82677 0.80691 0.0
C725 C 0.69286 0.8189 0.79157 0.0
H726 H 0.18664 0.90942 0.9743 0.0
H727 H 0.30287 0.95043 0.92691 0.0
H728 H 0.35004 0.00354 0.96 0.0
H729 H 0.21485 0.01399 0.99486 0.0
H730 H 0.19463 0.99935 0.02709 0.0
H731 H 0.17037 0.95883 0.00207 0.0
H732 H 0.18755 0.90516 0.02697 0.0
H733 H 0.21079 0.94517 0.05238 0.0
H734 H 0.24339 0.9242 0.03774 0.0
H735 H 0.38256 0.05823 0.9947 0.0
H736 H 0.40103 0.10706 0.03201 0.0
H737 H 0.26375 0.03194 0.05735 0.0
C738 C 0.22228 0.92823 0.97157 0.0
C739 C 0.24162 0.92549 0.94853 0.0
C740 C 0.28795 0.95182 0.94478 0.0
C741 C 0.31484 0.98211 0.96336 0.0
C742 C 0.29469 0.98563 0.98546 0.0
C743 C 0.24962 0.95902 0.98992 0.0
C744 C 0.2361 0.97225 0.0144 0.0
C745 C 0.20198 0.98699 0.00928 0.0
C746 C 0.21843 0.93445 0.03404 0.0
C747 C 0.2804 0.01097 0.02256 0.0
C748 C 0.31364 0.01795 0.00559 0.0
C749 C 0.35702 0.05274 0.00839 0.0
C750 C 0.36707 0.0805 0.02956 0.0
C751 C 0.33387 0.0733 0.04767 0.0
C752 C 0.28986 0.03833 0.04387 0.0
H753 H 0.76228 0.73503 0.42696 0.0
H754 H 0.75286 0.61116 0.45025 0.0
H755 H 0.72587 0.61824 0.49257 0.0
H756 H 0.80063 0.79126 0.48665 0.0
H757 H 0.76931 0.81935 0.48427 0.0
H758 H 0.78744 0.80423 0.45579 0.0
H759 H 0.70625 0.76122 0.43967 0.0
H760 H 0.68774 0.77586 0.46821 0.0
H761 H 0.66395 0.71845 0.45936 0.0
H762 H 0.70188 0.63945 0.53234 0.0
H763 H 0.684 0.67413 0.56776 0.0
H764 H 0.70699 0.78353 0.5185 0.0
C765 C 0.7547 0.70935 0.44093 0.0
C766 C 0.75984 0.67251 0.43525 0.0
C767 C 0.74933 0.63969 0.45413 0.0
C768 C 0.73383 0.64336 0.47819 0.0
C769 C 0.72882 0.67988 0.483 0.0
C770 C 0.73902 0.71236 0.46496 0.0
C771 C 0.73123 0.74857 0.47511 0.0
C772 C 0.77474 0.7935 0.47548 0.0
C773 C 0.69514 0.75115 0.45967 0.0
C774 C 0.71535 0.73155 0.50185 0.0
C775 C 0.71419 0.69183 0.50591 0.0
C776 C 0.7024 0.67037 0.52935 0.0
C777 C 0.69234 0.69038 0.54934 0.0
C778 C 0.6939 0.73139 0.54581 0.0
C779 C 0.70482 0.75184 0.5216 0.0
H780 H 0.02128 0.32722 0.94566 0.0
H781 H 0.15249 0.35642 0.96973 0.0
H782 H 0.129 0.34992 0.01472 0.0
H783 H 1.002 0.3859 -0.00241 0.0
H784 H 0.94391 0.34478 -4e-05 0.0
H785 H 0.97212 0.35511 0.96974 0.0
H786 H 0.94776 0.27187 0.96613 0.0
H787 H 0.91958 0.26126 -0.00368 0.0
H788 H 0.96124 0.24584 0.99148 0.0
H789 H 0.08935 0.33277 0.05634 0.0
H790 H 0.03708 0.30979 0.0925 0.0
H791 H 0.93248 0.2948 0.04151 0.0
C792 C 0.04532 0.3328 0.96037 0.0
C793 C 0.0887 0.34222 0.95423 0.0
C794 C 0.11911 0.34926 0.97402 0.0
C795 C 0.1061 0.34567 -0.0004 0.0
C796 C 0.06283 0.33558 0.00495 0.0
C797 C 0.03301 0.32966 0.98592 0.0
C798 C 0.98791 0.31722 -0.00328 0.0
C799 C 0.97579 0.35289 0.99064 0.0
C800 C 0.95202 0.27133 0.9871 0.0
C801 C 0.99678 0.31627 0.02485 0.0
C802 C 0.04021 0.32693 0.02913 0.0
C803 C 0.05552 0.32515 0.05331 0.0
C804 C 0.02558 0.31191 0.07367 0.0
C805 C 0.98102 0.30104 0.06971 0.0
C806 C 0.96663 0.30385 0.04506 0.0
H807 H 0.28579 0.98391 0.43224 0.0
H808 H 0.3644 0.12224 0.45456 0.0
H809 H 0.35598 0.09961 0.49973 0.0
H810 H 0.20845 0.94898 0.48377 0.0
H811 H 0.20473 0.89584 0.48704 0.0
H812 H 0.21735 0.92299 0.45647 0.0
H813 H 0.28908 0.91819 0.45374 0.0
H814 H 0.27679 0.89113 0.48434 0.0
H815 H 0.32928 0.94104 0.47911 0.0
H816 H 0.33823 0.0623 0.54203 0.0
H817 H 0.31249 0.01276 0.57927 0.0
H818 H 0.24596 0.8986 0.52917 0.0
C819 C 0.30129 0.00956 0.44657 0.0
C820 C 0.32571 0.05487 0.43989 0.0
C821 C 0.34553 0.08732 0.45925 0.0
C822 C 0.34097 0.07482 0.48492 0.0
C823 C 0.31668 0.02984 0.49078 0.0
C824 C 0.29723 0.99772 0.47218 0.0
C825 C 0.27272 0.95168 0.48354 0.0
C826 C 0.22286 0.92853 0.47734 0.0
C827 C 0.29321 0.92388 0.47465 0.0
C828 C 0.28126 0.96295 0.51152 0.0
C829 C 0.30669 0.00821 0.51524 0.0
C830 C 0.31843 0.0268 0.5394 0.0
C831 C 0.3036 0.99833 0.5604 0.0
C832 C 0.27719 0.95181 0.55706 0.0
C833 C 0.26623 0.93397 0.53228 0.0
H834 H 0.7178 0.67487 0.03258 0.0
H835 H 0.73034 0.77819 0.08379 0.0
H836 H 0.70616 0.80945 0.04923 0.0
H837 H 0.76069 0.74425 0.9781 0.0
H838 H 0.72435 0.70243 0.95578 0.0
H839 H 0.74024 0.68655 0.98478 0.0
H840 H 0.6578 0.63581 -0.00278 0.0
H841 H 0.64108 0.65065 0.96813 0.0
H842 H 0.62134 0.65841 -0.00161 0.0
H843 H 0.68071 0.82932 0.00859 0.0
H844 H 0.66125 0.83903 0.96461 0.0
H845 H 0.66692 0.72293 0.94074 0.0
C846 C 0.71517 0.70389 0.0366 0.0
C847 C 0.7258 0.72409 0.06083 0.0
C848 C 0.7226 0.76241 0.06525 0.0
C849 C 0.70863 0.78019 0.04582 0.0
C850 C 0.6983 0.75936 0.02211 0.0
C851 C 0.70178 0.72226 0.01742 0.0
C852 C 0.6909 0.70727 0.99005 0.0
C853 C 0.73144 0.71031 0.97637 0.0
C854 C 0.65036 0.66025 0.98837 0.0
C855 C 0.68035 0.74149 0.98008 0.0
C856 C 0.68457 0.77119 -0.00119 0.0
C857 C 0.67726 0.80622 0.99377 0.0
C858 C 0.66609 0.81139 0.9688 0.0
C859 C 0.6627 0.78182 0.94928 0.0
C860 C 0.66928 0.74613 0.95523 0.0
H861 H 0.02126 0.30658 0.55309 0.0
H862 H 0.1479 0.32612 0.52637 0.0
H863 H 0.11539 0.29905 0.48371 0.0
H864 H 0.95149 0.20635 0.51808 0.0
H865 H 0.90988 0.22132 0.51208 0.0
H866 H 0.94388 0.24147 0.54024 0.0
H867 H 0.96726 0.32209 0.5265 0.0
H868 H 0.93408 0.30146 0.4981 0.0
H869 H 0.99238 0.34184 0.49564 0.0
H870 H 0.06913 0.26934 0.4445 0.0
H871 H 0.01309 0.24191 0.4104 0.0
H872 H 0.91641 0.24148 0.46283 0.0
C873 C 0.04222 0.30522 0.53827 0.0
C874 C 0.08705 0.31824 0.54299 0.0
C875 C 0.11349 0.31632 0.5231 0.0
C876 C 0.09529 0.30087 0.49889 0.0
C877 C 0.05082 0.28782 0.49499 0.0
C878 C 0.0247 0.29008 0.51407 0.0
C879 C 0.97803 0.27462 0.50485 0.0
C880 C 0.94381 0.23351 0.51971 0.0
C881 C 0.96733 0.31225 0.50636 0.0
C882 C 0.98192 0.2632 0.47754 0.0
C883 C 0.02414 0.27087 0.47232 0.0
C884 C 0.0359 0.26291 0.4484 0.0
C885 C 1.00367 0.24682 0.42926 0.0
C886 C 0.96018 0.2386 0.43419 0.0
C887 C 0.9493 0.24716 0.45862 0.0
H888 H 0.73684 0.20317 0.09001 0.0
H889 H 0.7268 0.1508 0.16628 0.0
H890 H 0.6461 0.12281 0.16618 0.0
H891 H 0.66917 0.24518 0.10028 0.0
H892 H 0.64349 0.23277 0.06927 0.0
H893 H 0.69821 0.2406 0.07303 0.0
H894 H 0.67224 0.16321 0.05342 0.0
H895 H 0.61741 0.15535 0.04919 0.0
H896 H 0.6247 0.11509 0.06672 0.0
H897 H 0.56915 0.11154 0.16046 0.0
H898 H 0.50216 0.11481 0.14868 0.0
H899 H 0.56347 0.17516 0.07638 0.0
C900 C 0.71751 0.1844 0.10635 0.0
C901 C 0.7382 0.17906 0.12811 0.0
C902 C 0.7117 0.15511 0.14931 0.0
C903 C 0.66579 0.13909 0.14944 0.0
C904 C 0.64684 0.14691 0.12814 0.0
C905 C 0.67182 0.16847 0.10683 0.0
C906 C 0.64473 0.17687 0.08748 0.0
C907 C 0.66512 0.2268 0.08223 0.0
C908 C 0.63946 0.15108 0.06274 0.0
C909 C 0.6011 0.15822 0.10161 0.0
C910 C 0.60266 0.14057 0.1249 0.0
C911 C 0.56726 0.12446 0.14205 0.0
C912 C 0.52942 0.12662 0.13524 0.0
C913 C 0.52746 0.14502 0.11155 0.0
C914 C 0.56365 0.1604 0.0945 0.0
H915 H 0.65812 0.43649 0.40611 0.0
H916 H 0.64231 0.51279 0.34596 0.0
H917 H 0.56682 0.45036 0.33748 0.0
H918 H 0.60388 0.33331 0.37372 0.0
H919 H 0.5785 0.30109 0.40202 0.0
H920 H 0.63005 0.3528 0.40431 0.0
H921 H 0.59454 0.38103 0.43735 0.0
H922 H 0.54274 0.32943 0.43504 0.0
H923 H 0.5443 0.38108 0.42928 0.0
H924 H 0.49419 0.37836 0.3344 0.0
H925 H 0.43151 0.3013 0.33566 0.0
H926 H 0.49518 0.27236 0.39779 0.0
C927 C 0.63866 0.4403 0.39132 0.0
C928 C 0.65604 0.47964 0.3768 0.0
C929 C 0.62967 0.483 0.35738 0.0
C930 C 0.58669 0.44778 0.35248 0.0
C931 C 0.5706 0.40944 0.36713 0.0
C932 C 0.59585 0.40543 0.38609 0.0
C933 C 0.57171 0.35993 0.39824 0.0
C934 C 0.59757 0.33534 0.39432 0.0
C935 C 0.56279 0.36308 0.42666 0.0
C936 C 0.52906 0.33881 0.38302 0.0
C937 C 0.52891 0.36797 0.36528 0.0
C938 C 0.49379 0.35533 0.34834 0.0
C939 C 0.45829 0.31149 0.34923 0.0
C940 C 0.45824 0.28078 0.3669 0.0
C941 C 0.49385 0.29508 0.38426 0.0
H942 H 0.83947 0.38953 0.12762 0.0
H943 H 0.86936 0.40092 0.04666 0.0
H944 H 0.85737 0.46487 0.04401 0.0
H945 H 0.75247 0.41418 0.12384 0.0
H946 H 0.76683 0.44458 0.15341 0.0
H947 H 0.77948 0.40105 0.1488 0.0
H948 H 0.86223 0.45613 0.15899 0.0
H949 H 0.84989 0.49997 0.16345 0.0
H950 H 0.89186 0.50667 0.14086 0.0
H951 H 0.84017 0.52684 0.05034 0.0
H952 H 0.8161 0.57899 0.06463 0.0
H953 H 0.79798 0.52608 0.14138 0.0
C954 C 0.84374 0.40551 0.10931 0.0
C955 C 0.8555 0.39027 0.08735 0.0
C956 C 0.86043 0.41204 0.06376 0.0
C957 C 0.85382 0.44847 0.06208 0.0
C958 C 0.84238 0.46268 0.08417 0.0
C959 C 0.83727 0.44173 0.10731 0.0
C960 C 0.82349 0.46239 0.1281 0.0
C961 C 0.77786 0.42853 0.13917 0.0
C962 C 0.85899 0.48249 0.14908 0.0
C963 C 0.82116 0.49805 0.11304 0.0
C964 C 0.83244 0.49798 0.08778 0.0
C965 C 0.83149 0.5273 0.07011 0.0
C966 C 0.81788 0.55688 0.07842 0.0
C967 C 0.80522 0.55671 0.10414 0.0
C968 C 0.80763 0.52728 0.12164 0.0
H969 H 0.52399 0.15991 0.35842 0.0
H970 H 0.48373 0.06851 0.42216 0.0
H971 H 0.55856 0.07703 0.4232 0.0
H972 H 0.59825 0.12769 0.32743 0.0
H973 H 0.63799 0.18397 0.31871 0.0
H974 H 0.57995 0.16677 0.32128 0.0
H975 H 0.59911 0.2302 0.3535 0.0
H976 H 0.65709 0.24743 0.35117 0.0
H977 H 0.63006 0.23415 0.38185 0.0
H978 H 0.63969 0.09947 0.41896 0.0
H979 H 0.72033 0.13513 0.41033 0.0
H980 H 0.70724 0.21324 0.35026 0.0
C981 C 0.53055 0.14086 0.37221 0.0
C982 C 0.49785 0.11315 0.39004 0.0
C983 C 0.50819 0.08972 0.40821 0.0
C984 C 0.55059 0.09431 0.40893 0.0
C985 C 0.58236 0.12261 0.39142 0.0
C986 C 0.5728 0.14548 0.37339 0.0
C987 C 0.61359 0.17627 0.35794 0.0
C988 C 0.60705 0.16285 0.32967 0.0
C989 C 0.62566 0.22487 0.36133 0.0
C990 C 0.64773 0.16757 0.37027 0.0
C991 C 0.62908 0.13623 0.38938 0.0
C992 C 0.65457 0.12382 0.40391 0.0
C993 C 0.70035 0.14424 0.39887 0.0
C994 C 0.72018 0.17696 0.37962 0.0
C995 C 0.6932 0.18829 0.36508 0.0
H996 H 0.48542 0.29604 0.08976 0.0
H997 H 0.45239 0.29635 0.16959 0.0
H998 H 0.50135 0.3777 0.17079 0.0
H999 H 0.59742 0.37288 0.09545 0.0
H1000 H 0.6025 0.39926 0.06512 0.0
H1001 H 0.56056 0.34218 0.06964 0.0
H1002 H 0.49965 0.3599 0.05605 0.0
H1003 H 0.54154 0.41712 0.05132 0.0
H1004 H 0.49529 0.40306 0.0723 0.0
H1005 H 0.55977 0.45776 0.16432 0.0
H1006 H 0.62235 0.53008 0.15058 0.0
H1007 H 0.61648 0.47629 0.0751 0.0
C1008 C 0.48764 0.31324 0.10738 0.0
C1009 C 0.46497 0.2899 0.12956 0.0
C1010 C 0.46935 0.31361 0.15232 0.0
C1011 C 0.497 0.3598 0.15318 0.0
C1012 C 0.51974 0.38165 0.13109 0.0
C1013 C 0.51511 0.35914 0.10858 0.0
C1014 C 0.54563 0.38966 0.08804 0.0
C1015 C 0.57846 0.37512 0.07905 0.0
C1016 C 0.51892 0.39261 0.0656 0.0
C1017 C 0.56896 0.43272 0.10266 0.0
C1018 C 0.55336 0.42761 0.12739 0.0
C1019 C 0.5718 0.46232 0.14489 0.0
C1020 C 0.60735 0.50322 0.13692 0.0
C1021 C 0.62408 0.50884 0.11173 0.0
C1022 C 0.60414 0.4732 0.09439 0.0
H1023 H 0.80383 0.4714 0.33984 0.0
H1024 H 0.88509 0.56572 0.39809 0.0
H1025 H 0.92353 0.52336 0.40526 0.0
H1026 H 0.78656 0.377 0.37257 0.0
H1027 H 0.78779 0.34765 0.34459 0.0
H1028 H 0.77069 0.38824 0.34202 0.0
H1029 H 0.83116 0.43021 0.30762 0.0
H1030 H 0.8486 0.38976 0.3102 0.0
H1031 H 0.88828 0.44773 0.31466 0.0
H1032 H 0.94956 0.46801 0.40788 0.0
H1033 H 0.95707 0.40139 0.40822 0.0
H1034 H 0.85724 0.34282 0.34886 0.0
C1035 C 0.83025 0.48365 0.3538 0.0
C1036 C 0.84176 0.52203 0.36828 0.0
C1037 C 0.87586 0.53643 0.38674 0.0
C1038 C 0.89803 0.51275 0.39083 0.0
C1039 C 0.88559 0.4748 0.37632 0.0
C1040 C 0.85233 0.46025 0.35826 0.0
C1041 C 0.8425 0.41647 0.34677 0.0
C1042 C 0.79403 0.38022 0.35181 0.0
C1043 C 0.85329 0.42136 0.31811 0.0
C1044 C 0.87471 0.40811 0.3616 0.0
C1045 C 0.89983 0.44245 0.37824 0.0
C1046 C 0.93037 0.44111 0.39477 0.0
C1047 C 0.93446 0.40315 0.39478 0.0
C1048 C 0.90772 0.36689 0.37858 0.0
C1049 C 0.87831 0.37005 0.36138 0.0
H1050 H 0.20711 0.68524 0.64192 0.0
H1051 H 0.165 0.7123 0.56963 0.0
H1052 H 0.14027 0.63581 0.55558 0.0
H1053 H 0.2518 0.62353 0.61727 0.0
H1054 H 0.23422 0.58448 0.64324 0.0
H1055 H 0.24396 0.63953 0.64867 0.0
H1056 H 0.16418 0.60697 0.66659 0.0
H1057 H 0.1542 0.55169 0.66129 0.0
H1058 H 0.11754 0.56844 0.64758 0.0
H1059 H 0.12762 0.55911 0.54774 0.0
H1060 H 0.12628 0.48769 0.54716 0.0
H1061 H 0.17525 0.5104 0.6249 0.0
C1062 C 0.1919 0.6749 0.62331 0.0
C1063 C 0.18789 0.70479 0.6069 0.0
C1064 C 0.16825 0.68998 0.58259 0.0
C1065 C 0.15406 0.64656 0.57445 0.0
C1066 C 0.15939 0.61825 0.59091 0.0
C1067 C 0.1775 0.63173 0.61492 0.0
C1068 C 0.18202 0.59583 0.62837 0.0
C1069 C 0.2309 0.6118 0.63474 0.0
C1070 C 0.15273 0.57978 0.65238 0.0
C1071 C 0.16466 0.56042 0.60793 0.0
C1072 C 0.15153 0.57387 0.58652 0.0
C1073 C 0.13714 0.54795 0.56455 0.0
C1074 C 0.1366 0.50749 0.56437 0.0
C1075 C 0.15028 0.49328 0.58605 0.0
C1076 C 0.16381 0.51992 0.6082 0.0
H1077 H 0.32677 0.79693 0.92497 0.0
H1078 H 0.34251 0.91193 0.88398 0.0
H1079 H 0.42062 0.93455 0.87467 0.0
H1080 H 0.43911 0.84947 0.95204 0.0
H1081 H 0.44296 0.80024 0.94805 0.0
H1082 H 0.3897 0.79558 0.95349 0.0
H1083 H 0.35954 0.74909 0.91218 0.0
H1084 H 0.41266 0.75372 0.90661 0.0
H1085 H 0.38822 0.77141 0.88245 0.0
H1086 H 0.49547 0.94158 0.86721 0.0
H1087 H 0.56081 0.93217 0.86213 0.0
H1088 H 0.49517 0.81232 0.90786 0.0
C1089 C 0.34684 0.82733 0.91445 0.0
C1090 C 0.32862 0.85278 0.90529 0.0
C1091 C 0.35581 0.89194 0.89121 0.0
C1092 C 0.40023 0.90512 0.88588 0.0
C1093 C 0.41693 0.87882 0.8948 0.0
C1094 C 0.39108 0.84081 0.90885 0.0
C1095 C 0.41607 0.81691 0.91493 0.0
C1096 C 0.42234 0.81549 0.94385 0.0
C1097 C 0.39274 0.77003 0.90334 0.0
C1098 C 0.45974 0.84699 0.90171 0.0
C1099 C 0.4598 0.88272 0.89038 0.0
C1100 C 0.49597 0.91398 0.87622 0.0
C1101 C 0.53291 0.90834 0.87342 0.0
C1102 C 0.53322 0.87162 0.88465 0.0
C1103 C 0.49621 0.84095 0.89918 0.0
H1104 H 0.47905 0.64586 0.56055 0.0
H1105 H 0.55028 0.64755 0.62878 0.0
H1106 H 0.48561 0.57697 0.64255 0.0
H1107 H 0.37575 0.60666 0.58963 0.0
H1108 H 0.3435 0.57213 0.5634 0.0
H1109 H 0.3969 0.6203 0.55752 0.0
H1110 H 0.42291 0.57152 0.53461 0.0
H1111 H 0.36945 0.52311 0.54038 0.0
H1112 H 0.41927 0.5244 0.55094 0.0
H1113 H 0.41083 0.51116 0.6513 0.0
H1114 H 0.33172 0.45304 0.65364 0.0
H1115 H 0.30952 0.49217 0.57915 0.0
C1116 C 0.48142 0.63098 0.57815 0.0
C1117 C 0.51986 0.65226 0.59355 0.0
C1118 C 0.52131 0.63188 0.6166 0.0
C1119 C 0.48474 0.59172 0.62458 0.0
C1120 C 0.44708 0.57209 0.60921 0.0
C1121 C 0.44525 0.59079 0.58636 0.0
C1122 C 0.39989 0.56422 0.57413 0.0
C1123 C 0.37771 0.59251 0.571 0.0
C1124 C 0.40309 0.54465 0.54849 0.0
C1125 C 0.37618 0.52825 0.59396 0.0
C1126 C 0.40408 0.53335 0.614 0.0
C1127 C 0.38889 0.5063 0.63551 0.0
C1128 C 0.34392 0.47346 0.6367 0.0
C1129 C 0.31473 0.46773 0.61643 0.0
C1130 C 0.33134 0.49508 0.59463 0.0
H1131 H 0.1814 0.70026 0.9175 0.0
H1132 H 0.07769 0.6635 0.86106 0.0
H1133 H 0.06705 0.5881 0.85914 0.0
H1134 H 0.22978 0.6435 0.88943 0.0
H1135 H 0.24279 0.6265 0.91906 0.0
H1136 H 0.23939 0.6762 0.91783 0.0
H1137 H 0.18064 0.64619 0.95398 0.0
H1138 H 0.18407 0.59645 0.95545 0.0
H1139 H 0.13116 0.59277 0.95047 0.0
H1140 H 0.07209 0.51835 0.86076 0.0
H1141 H 0.09078 0.45936 0.867 0.0
H1142 H 0.19065 0.54187 0.92255 0.0
C1143 C 0.15579 0.67614 0.90512 0.0
C1144 C 0.1302 0.68783 0.88953 0.0
C1145 C 0.09759 0.65536 0.87327 0.0
C1146 C 0.0913 0.6124 0.87204 0.0
C1147 C 0.11778 0.60229 0.88723 0.0
C1148 C 0.14916 0.63316 0.9036 0.0
C1149 C 0.17484 0.61466 0.91697 0.0
C1150 C 0.22463 0.64183 0.91042 0.0
C1151 C 0.1672 0.61238 0.94594 0.0
C1152 C 0.15341 0.56877 0.90531 0.0
C1153 C 0.12051 0.56218 0.88824 0.0
C1154 C 0.09745 0.52297 0.8743 0.0
C1155 C 0.10836 0.48969 0.87792 0.0
C1156 C 0.14195 0.4958 0.89536 0.0
C1157 C 0.16443 0.53586 0.90928 0.0
H1158 H 0.35925 0.79721 0.57253 0.0
H1159 H 0.38946 0.90781 0.62264 0.0
H1160 H 0.46711 0.92442 0.62585 0.0
H1161 H 0.42397 0.76092 0.60561 0.0
H1162 H 0.44165 0.74489 0.57726 0.0
H1163 H 0.38945 0.74375 0.57757 0.0
H1164 H 0.41412 0.79522 0.53801 0.0
H1165 H 0.46657 0.79673 0.53769 0.0
H1166 H 0.4653 0.84766 0.53906 0.0
H1167 H 0.54083 0.92743 0.62473 0.0
H1168 H 0.60362 0.91382 0.62171 0.0
H1169 H 0.52493 0.80038 0.57287 0.0
C1170 C 0.38227 0.82521 0.58399 0.0
C1171 C 0.3683 0.85139 0.59724 0.0
C1172 C 0.39937 0.88731 0.61232 0.0
C1173 C 0.4436 0.89712 0.61416 0.0
C1174 C 0.45624 0.87062 0.60088 0.0
C1175 C 0.42641 0.83523 0.58621 0.0
C1176 C 0.4478 0.81044 0.57498 0.0
C1177 C 0.42433 0.76215 0.58443 0.0
C1178 C 0.44849 0.81266 0.5457 0.0
C1179 C 0.4942 0.83711 0.58587 0.0
C1180 C 0.49852 0.87196 0.60052 0.0
C1181 C 0.53789 0.90038 0.6132 0.0
C1182 C 0.57344 0.8924 0.61132 0.0
C1183 C 0.56939 0.85611 0.59699 0.0
C1184 C 0.52937 0.82868 0.58376 0.0
H1185 H 0.466 0.66877 0.92367 0.0
H1186 H 0.53388 0.66901 0.85413 0.0
H1187 H 0.47065 0.59556 0.84295 0.0
H1188 H 0.4126 0.54836 0.93662 0.0
H1189 H 0.36234 0.54517 0.94819 0.0
H1190 H 0.41487 0.5956 0.95205 0.0
H1191 H 0.38341 0.63941 0.92888 0.0
H1192 H 0.33094 0.58919 0.92485 0.0
H1193 H 0.36004 0.62236 0.89746 0.0
H1194 H 0.39698 0.5268 0.83683 0.0
H1195 H 0.31907 0.46568 0.83706 0.0
H1196 H 0.29942 0.5082 0.91121 0.0
C1197 C 0.46804 0.65302 0.90634 0.0
C1198 C 0.50506 0.6747 0.8898 0.0
C1199 C 0.50604 0.65308 0.86716 0.0
C1200 C 0.47026 0.61131 0.86065 0.0
C1201 C 0.43389 0.59136 0.87709 0.0
C1202 C 0.43266 0.61126 0.8996 0.0
C1203 C 0.38854 0.58391 0.91318 0.0
C1204 C 0.39499 0.56727 0.93904 0.0
C1205 C 0.36432 0.61029 0.91626 0.0
C1206 C 0.36472 0.54603 0.89447 0.0
C1207 C 0.39158 0.55096 0.87383 0.0
C1208 C 0.37594 0.52213 0.85311 0.0
C1209 C 0.33162 0.4876 0.85338 0.0
C1210 C 0.3035 0.48191 0.8743 0.0
C1211 C 0.32053 0.51115 0.89527 0.0
loop_
_geom_bond_atom_site_label_1
_geom_bond_atom_site_label_2
_geom_bond_distance
_geom_bond_site_symmetry_2
_ccdc_geom_bond_type
Zn0 O6 1.969 . S
Zn0 O7 1.965 . S
Zn0 O11 2.024 . S
Zn0 O16 1.969 . S
Zn1 O8 1.969 . S
Zn1 O14 1.969 . S
Zn1 O15 1.965 . S
Zn1 O17 2.024 . S
C2 O3 1.229 . S
C2 O11 1.058 . S
O3 C2 1.229 . S
C4 O5 1.229 . S
C4 O17 1.058 . S
O5 C4 1.229 . S
O6 Zn0 1.969 . S
O6 C9 1.267 . S
O7 Zn0 1.965 . S
O7 C18 1.260 . S
O8 Zn1 1.969 . S
O8 C18 1.258 . S
C9 O6 1.267 . S
C9 O10 1.228 . S
O10 C9 1.228 . S
O11 Zn0 2.024 . S
O11 C2 1.058 . S
C12 O13 1.228 . S
C12 O14 1.267 . S
O13 C12 1.228 . S
O14 Zn1 1.969 . S
O14 C12 1.267 . S
O15 Zn1 1.965 . S
O15 C19 1.260 . S
O16 Zn0 1.969 . S
O16 C19 1.258 . S
O17 Zn1 2.024 . S
O17 C4 1.058 . S
C18 O7 1.260 . S
C18 O8 1.258 . S
C19 O15 1.260 . S
C19 O16 1.258 . S
Zn20 O26 1.969 . S
Zn20 O27 1.965 . S
Zn20 O31 2.024 . S
Zn20 O36 1.969 . S
Zn21 O28 1.969 . S
Zn21 O34 1.969 . S
Zn21 O35 1.965 . S
Zn21 O37 2.024 . S
C22 O23 1.229 . S
C22 O31 1.058 . S
O23 C22 1.229 . S
C24 O25 1.229 . S
C24 O37 1.058 . S
O25 C24 1.229 . S
O26 Zn20 1.969 . S
O26 C29 1.267 . S
O27 Zn20 1.965 . S
O27 C38 1.260 . S
O28 Zn21 1.969 . S
O28 C38 1.258 . S
C29 O26 1.267 . S
C29 O30 1.228 . S
O30 C29 1.228 . S
O31 Zn20 2.024 . S
O31 C22 1.058 . S
C32 O33 1.228 . S
C32 O34 1.267 . S
O33 C32 1.228 . S
O34 Zn21 1.969 . S
O34 C32 1.267 . S
O35 Zn21 1.965 . S
O35 C39 1.260 . S
O36 Zn20 1.969 . S
O36 C39 1.258 . S
O37 Zn21 2.024 . S
O37 C24 1.058 . S
C38 O27 1.260 . S
C38 O28 1.258 . S
C39 O35 1.260 . S
C39 O36 1.258 . S
Zn40 O46 1.969 . S
Zn40 O47 1.965 . S
Zn40 O51 2.024 . S
Zn40 O56 1.969 . S
Zn41 O48 1.969 . S
Zn41 O54 1.969 . S
Zn41 O55 1.965 . S
Zn41 O57 2.024 . S
C42 O43 1.229 . S
C42 O51 1.058 . S
O43 C42 1.229 . S
C44 O45 1.229 . S
C44 O57 1.058 . S
O45 C44 1.229 . S
O46 Zn40 1.969 . S
O46 C49 1.267 . S
O47 Zn40 1.965 . S
O47 C58 1.260 . S
O48 Zn41 1.969 . S
O48 C58 1.258 . S
C49 O46 1.267 . S
C49 O50 1.228 . S
O50 C49 1.228 . S
O51 Zn40 2.024 . S
O51 C42 1.058 . S
C52 O53 1.228 . S
C52 O54 1.267 . S
O53 C52 1.228 . S
O54 Zn41 1.969 . S
O54 C52 1.267 . S
O55 Zn41 1.965 . S
O55 C59 1.260 . S
O56 Zn40 1.969 . S
O56 C59 1.258 . S
O57 Zn41 2.024 . S
O57 C44 1.058 . S
C58 O47 1.260 . S
C58 O48 1.258 . S
C59 O55 1.260 . S
C59 O56 1.258 . S
Zn60 O66 1.969 . S
Zn60 O67 1.965 . S
Zn60 O71 2.024 . S
Zn60 O76 1.969 . S
Zn61 O68 1.969 . S
Zn61 O74 1.969 . S
Zn61 O75 1.965 . S
Zn61 O77 2.024 . S
C62 O63 1.229 . S
C62 O71 1.058 . S
O63 C62 1.229 . S
C64 O65 1.229 . S
C64 O77 1.058 . S
O65 C64 1.229 . S
O66 Zn60 1.969 . S
O66 C69 1.267 . S
O67 Zn60 1.965 . S
O67 C78 1.260 . S
O68 Zn61 1.969 . S
O68 C78 1.258 . S
C69 O66 1.267 . S
C69 O70 1.228 . S
O70 C69 1.228 . S
O71 Zn60 2.024 . S
O71 C62 1.058 . S
C72 O73 1.228 . S
C72 O74 1.267 . S
O73 C72 1.228 . S
O74 Zn61 1.969 . S
O74 C72 1.267 . S
O75 Zn61 1.965 . S
O75 C79 1.260 . S
O76 Zn60 1.969 . S
O76 C79 1.258 . S
O77 Zn61 2.024 . S
O77 C64 1.058 . S
C78 O67 1.260 . S
C78 O68 1.258 . S
C79 O75 1.260 . S
C79 O76 1.258 . S
Zn80 O86 1.969 . S
Zn80 O87 1.965 . S
Zn80 O91 2.024 . S
Zn80 O96 1.969 . S
Zn81 O88 1.969 . S
Zn81 O94 1.969 . S
Zn81 O95 1.965 . S
Zn81 O97 2.024 . S
C82 O83 1.229 . S
C82 O91 1.058 . S
O83 C82 1.229 . S
C84 O85 1.229 . S
C84 O97 1.058 . S
O85 C84 1.229 . S
O86 Zn80 1.969 . S
O86 C89 1.267 . S
O87 Zn80 1.965 . S
O87 C98 1.260 . S
O88 Zn81 1.969 . S
O88 C98 1.258 . S
C89 O86 1.267 . S
C89 O90 1.228 . S
O90 C89 1.228 . S
O91 Zn80 2.024 . S
O91 C82 1.058 . S
C92 O93 1.228 . S
C92 O94 1.267 . S
O93 C92 1.228 . S
O94 Zn81 1.969 . S
O94 C92 1.267 . S
O95 Zn81 1.965 . S
O95 C99 1.260 . S
O96 Zn80 1.969 . S
O96 C99 1.258 . S
O97 Zn81 2.024 . S
O97 C84 1.058 . S
C98 O87 1.260 . S
C98 O88 1.258 . S
C99 O95 1.260 . S
C99 O96 1.258 . S
Zn100 O106 1.969 . S
Zn100 O107 1.965 . S
Zn100 O111 2.024 . S
Zn100 O116 1.969 . S
Zn101 O108 1.969 . S
Zn101 O114 1.969 . S
Zn101 O115 1.965 . S
Zn101 O117 2.024 . S
C102 O103 1.229 . S
C102 O111 1.058 . S
O103 C102 1.229 . S
C104 O105 1.229 . S
C104 O117 1.058 . S
O105 C104 1.229 . S
O106 Zn100 1.969 . S
O106 C109 1.267 . S
O107 Zn100 1.965 . S
O107 C118 1.260 . S
O108 Zn101 1.969 . S
O108 C118 1.258 . S
C109 O106 1.267 . S
C109 O110 1.228 . S
O110 C109 1.228 . S
O111 Zn100 2.024 . S
O111 C102 1.058 . S
C112 O113 1.228 . S
C112 O114 1.267 . S
O113 C112 1.228 . S
O114 Zn101 1.969 . S
O114 C112 1.267 . S
O115 Zn101 1.965 . S
O115 C119 1.260 . S
O116 Zn100 1.969 . S
O116 C119 1.258 . S
O117 Zn101 2.024 . S
O117 C104 1.058 . S
C118 O107 1.260 . S
C118 O108 1.258 . S
C119 O115 1.260 . S
C119 O116 1.258 . S
Zn120 O126 1.969 . S
Zn120 O127 1.965 . S
Zn120 O131 2.024 . S
Zn120 O136 1.969 . S
Zn121 O128 1.969 . S
Zn121 O134 1.969 . S
Zn121 O135 1.965 . S
Zn121 O137 2.024 . S
C122 O123 1.229 . S
C122 O131 1.058 . S
O123 C122 1.229 . S
C124 O125 1.229 . S
C124 O137 1.058 . S
O125 C124 1.229 . S
O126 Zn120 1.969 . S
O126 C129 1.267 . S
O127 Zn120 1.965 . S
O127 C138 1.260 . S
O128 Zn121 1.969 . S
O128 C138 1.258 . S
C129 O126 1.267 . S
C129 O130 1.228 . S
O130 C129 1.228 . S
O131 Zn120 2.024 . S
O131 C122 1.058 . S
C132 O133 1.228 . S
C132 O134 1.267 . S
O133 C132 1.228 . S
O134 Zn121 1.969 . S
O134 C132 1.267 . S
O135 Zn121 1.965 . S
O135 C139 1.260 . S
O136 Zn120 1.969 . S
O136 C139 1.258 . S
O137 Zn121 2.024 . S
O137 C124 1.058 . S
C138 O127 1.260 . S
C138 O128 1.258 . S
C139 O135 1.260 . S
C139 O136 1.258 . S
Zn140 O146 1.969 . S
Zn140 O147 1.965 . S
Zn140 O151 2.024 . S
Zn140 O156 1.969 . S
Zn141 O148 1.969 . S
Zn141 O154 1.969 . S
Zn141 O155 1.965 . S
Zn141 O157 2.024 . S
C142 O143 1.229 . S
C142 O151 1.058 . S
O143 C142 1.229 . S
C144 O145 1.229 . S
C144 O157 1.058 . S
O145 C144 1.229 . S
O146 Zn140 1.969 . S
O146 C149 1.267 . S
O147 Zn140 1.965 . S
O147 C158 1.260 . S
O148 Zn141 1.969 . S
O148 C158 1.258 . S
C149 O146 1.267 . S
C149 O150 1.228 . S
O150 C149 1.228 . S
O151 Zn140 2.024 . S
O151 C142 1.058 . S
C152 O153 1.228 . S
C152 O154 1.267 . S
O153 C152 1.228 . S
O154 Zn141 1.969 . S
O154 C152 1.267 . S
O155 Zn141 1.965 . S
O155 C159 1.260 . S
O156 Zn140 1.969 . S
O156 C159 1.258 . S
O157 Zn141 2.024 . S
O157 C144 1.058 . S
C158 O147 1.260 . S
C158 O148 1.258 . S
C159 O155 1.260 . S
C159 O156 1.258 . S
Zn160 O166 1.969 . S
Zn160 O167 1.965 . S
Zn160 O171 2.024 . S
Zn160 O176 1.969 . S
Zn161 O168 1.969 . S
Zn161 O174 1.969 . S
Zn161 O175 1.965 . S
Zn161 O177 2.024 . S
C162 O163 1.229 . S
C162 O171 1.058 . S
O163 C162 1.229 . S
C164 O165 1.229 . S
C164 O177 1.058 . S
O165 C164 1.229 . S
O166 Zn160 1.969 . S
O166 C169 1.267 . S
O167 Zn160 1.965 . S
O167 C178 1.260 . S
O168 Zn161 1.969 . S
O168 C178 1.258 . S
C169 O166 1.267 . S
C169 O170 1.228 . S
O170 C169 1.228 . S
O171 Zn160 2.024 . S
O171 C162 1.058 . S
C172 O173 1.228 . S
C172 O174 1.267 . S
O173 C172 1.228 . S
O174 Zn161 1.969 . S
O174 C172 1.267 . S
O175 Zn161 1.965 . S
O175 C179 1.260 . S
O176 Zn160 1.969 . S
O176 C179 1.258 . S
O177 Zn161 2.024 . S
O177 C164 1.058 . S
C178 O167 1.260 . S
C178 O168 1.258 . S
C179 O175 1.260 . S
C179 O176 1.258 . S
Zn180 O186 1.969 . S
Zn180 O187 1.965 . S
Zn180 O191 2.024 . S
Zn180 O196 1.969 . S
Zn181 O188 1.969 . S
Zn181 O194 1.969 . S
Zn181 O195 1.965 . S
Zn181 O197 2.024 . S
C182 O183 1.229 . S
C182 O191 1.058 . S
O183 C182 1.229 . S
C184 O185 1.229 . S
C184 O197 1.058 . S
O185 C184 1.229 . S
O186 Zn180 1.969 . S
O186 C189 1.267 . S
O187 Zn180 1.965 . S
O187 C198 1.260 . S
O188 Zn181 1.969 . S
O188 C198 1.258 . S
C189 O186 1.267 . S
C189 O190 1.228 . S
O190 C189 1.228 . S
O191 Zn180 2.024 . S
O191 C182 1.058 . S
C192 O193 1.228 . S
C192 O194 1.267 . S
O193 C192 1.228 . S
O194 Zn181 1.969 . S
O194 C192 1.267 . S
O195 Zn181 1.965 . S
O195 C199 1.260 . S
O196 Zn180 1.969 . S
O196 C199 1.258 . S
O197 Zn181 2.024 . S
O197 C184 1.058 . S
C198 O187 1.260 . S
C198 O188 1.258 . S
C199 O195 1.260 . S
C199 O196 1.258 . S
Zn200 O206 1.969 . S
Zn200 O207 1.965 . S
Zn200 O211 2.024 . S
Zn200 O216 1.969 . S
Zn201 O208 1.969 . S
Zn201 O214 1.969 . S
Zn201 O215 1.965 . S
Zn201 O217 2.024 . S
C202 O203 1.229 . S
C202 O211 1.058 . S
O203 C202 1.229 . S
C204 O205 1.229 . S
C204 O217 1.058 . S
O205 C204 1.229 . S
O206 Zn200 1.969 . S
O206 C209 1.267 . S
O207 Zn200 1.965 . S
O207 C218 1.260 . S
O208 Zn201 1.969 . S
O208 C218 1.258 . S
C209 O206 1.267 . S
C209 O210 1.228 . S
O210 C209 1.228 . S
O211 Zn200 2.024 . S
O211 C202 1.058 . S
C212 O213 1.228 . S
C212 O214 1.267 . S
O213 C212 1.228 . S
O214 Zn201 1.969 . S
O214 C212 1.267 . S
O215 Zn201 1.965 . S
O215 C219 1.260 . S
O216 Zn200 1.969 . S
O216 C219 1.258 . S
O217 Zn201 2.024 . S
O217 C204 1.058 . S
C218 O207 1.260 . S
C218 O208 1.258 . S
C219 O215 1.260 . S
C219 O216 1.258 . S
Zn220 O226 1.969 . S
Zn220 O227 1.965 . S
Zn220 O231 2.024 . S
Zn220 O236 1.969 . S
Zn221 O228 1.969 . S
Zn221 O234 1.969 . S
Zn221 O235 1.965 . S
Zn221 O237 2.024 . S
C222 O223 1.229 . S
C222 O231 1.058 . S
O223 C222 1.229 . S
C224 O225 1.229 . S
C224 O237 1.058 . S
O225 C224 1.229 . S
O226 Zn220 1.969 . S
O226 C229 1.267 . S
O227 Zn220 1.965 . S
O227 C238 1.260 . S
O228 Zn221 1.969 . S
O228 C238 1.258 . S
C229 O226 1.267 . S
C229 O230 1.228 . S
O230 C229 1.228 . S
O231 Zn220 2.024 . S
O231 C222 1.058 . S
C232 O233 1.228 . S
C232 O234 1.267 . S
O233 C232 1.228 . S
O234 Zn221 1.969 . S
O234 C232 1.267 . S
O235 Zn221 1.965 . S
O235 C239 1.260 . S
O236 Zn220 1.969 . S
O236 C239 1.258 . S
O237 Zn221 2.024 . S
O237 C224 1.058 . S
C238 O227 1.260 . S
C238 O228 1.258 . S
C239 O235 1.260 . S
C239 O236 1.258 . S
H240 C252 0.930 . S
H241 C254 0.930 . S
H242 C255 0.930 . S
H243 C259 0.959 . S
H244 C259 0.959 . S
H245 C259 0.961 . S
H246 C260 0.960 . S
H247 C260 0.961 . S
H248 C260 0.959 . S
H249 C263 0.929 . S
H250 C264 0.931 . S
H251 C266 0.930 . S
C252 H240 0.930 . S
C252 C253 1.399 . S
C252 C257 1.399 . S
C253 C252 1.399 . S
C253 C254 1.376 . S
C254 H241 0.930 . S
C254 C253 1.376 . S
C254 C255 1.388 . S
C255 H242 0.930 . S
C255 C254 1.388 . S
C255 C256 1.390 . S
C256 C255 1.390 . S
C256 C257 1.394 . S
C256 C262 1.465 . S
C257 C252 1.399 . S
C257 C256 1.394 . S
C257 C258 1.516 . S
C258 C257 1.516 . S
C258 C259 1.502 . S
C258 C260 1.561 . S
C258 C261 1.526 . S
C259 H243 0.959 . S
C259 H244 0.959 . S
C259 H245 0.961 . S
C259 C258 1.502 . S
C260 H246 0.960 . S
C260 H247 0.961 . S
C260 H248 0.959 . S
C260 C258 1.561 . S
C261 C258 1.526 . S
C261 C262 1.396 . S
C261 C266 1.390 . S
C262 C256 1.465 . S
C262 C261 1.396 . S
C262 C263 1.399 . S
C263 H249 0.929 . S
C263 C262 1.399 . S
C263 C264 1.385 . S
C264 H250 0.931 . S
C264 C263 1.385 . S
C264 C265 1.389 . S
C265 C264 1.389 . S
C265 C266 1.387 . S
C266 H251 0.930 . S
C266 C261 1.390 . S
C266 C265 1.387 . S
H267 C279 0.930 . S
H268 C281 0.931 1_545 S
H269 C282 0.930 . S
H270 C286 0.959 . S
H271 C286 0.959 . S
H272 C286 0.961 . S
H273 C287 0.960 . S
H274 C287 0.961 . S
H275 C287 0.959 . S
H276 C290 0.929 . S
H277 C291 0.931 . S
H278 C293 0.930 . S
C279 H267 0.930 . S
C279 C280 1.399 . S
C279 C284 1.399 . S
C280 C279 1.399 . S
C280 C281 1.376 . S
C281 H268 0.931 1_565 S
C281 C280 1.376 . S
C281 C282 1.388 . S
C282 H269 0.930 . S
C282 C281 1.388 . S
C282 C283 1.390 . S
C283 C282 1.390 . S
C283 C284 1.394 . S
C283 C289 1.465 . S
C284 C279 1.399 . S
C284 C283 1.394 . S
C284 C285 1.516 . S
C285 C284 1.516 . S
C285 C286 1.502 . S
C285 C287 1.561 . S
C285 C288 1.526 . S
C286 H270 0.959 . S
C286 H271 0.959 . S
C286 H272 0.961 . S
C286 C285 1.502 . S
C287 H273 0.960 . S
C287 H274 0.961 . S
C287 H275 0.959 . S
C287 C285 1.561 . S
C288 C285 1.526 . S
C288 C289 1.396 . S
C288 C293 1.390 1_455 S
C289 C283 1.465 . S
C289 C288 1.396 . S
C289 C290 1.399 . S
C290 H276 0.929 . S
C290 C289 1.399 . S
C290 C291 1.385 1_455 S
C291 H277 0.931 . S
C291 C290 1.385 1_655 S
C291 C292 1.389 . S
C292 C291 1.389 . S
C292 C293 1.387 . S
C293 H278 0.930 . S
C293 C288 1.390 1_655 S
C293 C292 1.387 . S
H294 C306 0.930 . S
H295 C308 0.930 . S
H296 C309 0.930 . S
H297 C313 0.959 . S
H298 C313 0.959 . S
H299 C313 0.961 . S
H300 C314 0.960 . S
H301 C314 0.961 . S
H302 C314 0.959 . S
H303 C317 0.929 . S
H304 C318 0.931 . S
H305 C320 0.930 . S
C306 H294 0.930 . S
C306 C307 1.399 . S
C306 C311 1.399 1_545 S
C307 C306 1.399 . S
C307 C308 1.376 . S
C308 H295 0.930 . S
C308 C307 1.376 . S
C308 C309 1.388 1_545 S
C309 H296 0.930 . S
C309 C308 1.388 1_565 S
C309 C310 1.390 . S
C310 C309 1.390 . S
C310 C311 1.394 . S
C310 C316 1.465 . S
C311 C306 1.399 1_565 S
C311 C310 1.394 . S
C311 C312 1.516 . S
C312 C311 1.516 . S
C312 C313 1.502 . S
C312 C314 1.561 . S
C312 C315 1.526 . S
C313 H297 0.959 . S
C313 H298 0.959 . S
C313 H299 0.961 . S
C313 C312 1.502 . S
C314 H300 0.960 . S
C314 H301 0.961 . S
C314 H302 0.959 . S
C314 C312 1.561 . S
C315 C312 1.526 . S
C315 C316 1.396 . S
C315 C320 1.390 . S
C316 C310 1.465 . S
C316 C315 1.396 . S
C316 C317 1.399 . S
C317 H303 0.929 . S
C317 C316 1.399 . S
C317 C318 1.385 . S
C318 H304 0.931 . S
C318 C317 1.385 . S
C318 C319 1.389 . S
C319 C318 1.389 . S
C319 C320 1.387 . S
C320 H305 0.930 . S
C320 C315 1.390 . S
C320 C319 1.387 . S
H321 C333 0.930 . S
H322 C335 0.930 . S
H323 C336 0.930 . S
H324 C340 0.959 . S
H325 C340 0.959 . S
H326 C340 0.961 . S
H327 C341 0.960 . S
H328 C341 0.961 . S
H329 C341 0.959 . S
H330 C344 0.929 . S
H331 C345 0.931 1_655 S
H332 C347 0.930 . S
C333 H321 0.930 . S
C333 C334 1.399 . S
C333 C338 1.399 . S
C334 C333 1.399 . S
C334 C335 1.376 . S
C335 H322 0.930 . S
C335 C334 1.376 . S
C335 C336 1.388 . S
C336 H323 0.930 . S
C336 C335 1.388 . S
C336 C337 1.390 . S
C337 C336 1.390 . S
C337 C338 1.394 . S
C337 C343 1.465 . S
C338 C333 1.399 . S
C338 C337 1.394 . S
C338 C339 1.516 . S
C339 C338 1.516 . S
C339 C340 1.502 . S
C339 C341 1.561 . S
C339 C342 1.526 . S
C340 H324 0.959 . S
C340 H325 0.959 . S
C340 H326 0.961 . S
C340 C339 1.502 . S
C341 H327 0.960 . S
C341 H328 0.961 . S
C341 H329 0.959 . S
C341 C339 1.561 . S
C342 C339 1.526 . S
C342 C343 1.396 . S
C342 C347 1.390 . S
C343 C337 1.465 . S
C343 C342 1.396 . S
C343 C344 1.399 . S
C344 H330 0.929 . S
C344 C343 1.399 . S
C344 C345 1.385 . S
C345 H331 0.931 1_455 S
C345 C344 1.385 . S
C345 C346 1.389 . S
C346 C345 1.389 . S
C346 C347 1.387 . S
C347 H332 0.930 . S
C347 C342 1.390 . S
C347 C346 1.387 . S
H348 C360 0.930 . S
H349 C362 0.930 . S
H350 C363 0.930 . S
H351 C367 0.959 . S
H352 C367 0.959 . S
H353 C367 0.961 . S
H354 C368 0.960 . S
H355 C368 0.961 . S
H356 C368 0.959 . S
H357 C371 0.929 . S
H358 C372 0.931 . S
H359 C374 0.930 . S
C360 H348 0.930 . S
C360 C361 1.399 . S
C360 C365 1.399 . S
C361 C360 1.399 . S
C361 C362 1.376 . S
C362 H349 0.930 . S
C362 C361 1.376 . S
C362 C363 1.388 . S
C363 H350 0.930 . S
C363 C362 1.388 . S
C363 C364 1.390 . S
C364 C363 1.390 . S
C364 C365 1.394 . S
C364 C370 1.465 . S
C365 C360 1.399 . S
C365 C364 1.394 . S
C365 C366 1.516 . S
C366 C365 1.516 . S
C366 C367 1.502 . S
C366 C368 1.561 . S
C366 C369 1.526 . S
C367 H351 0.959 . S
C367 H352 0.959 . S
C367 H353 0.961 . S
C367 C366 1.502 . S
C368 H354 0.960 . S
C368 H355 0.961 . S
C368 H356 0.959 . S
C368 C366 1.561 . S
C369 C366 1.526 . S
C369 C370 1.396 . S
C369 C374 1.390 1_455 S
C370 C364 1.465 . S
C370 C369 1.396 . S
C370 C371 1.399 . S
C371 H357 0.929 . S
C371 C370 1.399 . S
C371 C372 1.385 1_455 S
C372 H358 0.931 . S
C372 C371 1.385 1_655 S
C372 C373 1.389 . S
C373 C372 1.389 . S
C373 C374 1.387 . S
C374 H359 0.930 . S
C374 C369 1.390 1_655 S
C374 C373 1.387 . S
H375 C387 0.930 . S
H376 C389 0.930 . S
H377 C390 0.930 . S
H378 C394 0.959 . S
H379 C394 0.959 . S
H380 C394 0.961 . S
H381 C395 0.960 . S
H382 C395 0.961 . S
H383 C395 0.959 . S
H384 C398 0.929 . S
H385 C399 0.931 . S
H386 C401 0.930 . S
C387 H375 0.930 . S
C387 C388 1.399 . S
C387 C392 1.399 . S
C388 C387 1.399 . S
C388 C389 1.376 . S
C389 H376 0.930 . S
C389 C388 1.376 . S
C389 C390 1.388 . S
C390 H377 0.930 . S
C390 C389 1.388 . S
C390 C391 1.390 . S
C391 C390 1.390 . S
C391 C392 1.394 . S
C391 C397 1.465 . S
C392 C387 1.399 . S
C392 C391 1.394 . S
C392 C393 1.516 . S
C393 C392 1.516 . S
C393 C394 1.502 . S
C393 C395 1.561 . S
C393 C396 1.526 . S
C394 H378 0.959 . S
C394 H379 0.959 . S
C394 H380 0.961 . S
C394 C393 1.502 . S
C395 H381 0.960 . S
C395 H382 0.961 . S
C395 H383 0.959 . S
C395 C393 1.561 . S
C396 C393 1.526 . S
C396 C397 1.396 . S
C396 C401 1.390 1_565 S
C397 C391 1.465 . S
C397 C396 1.396 . S
C397 C398 1.399 . S
C398 H384 0.929 . S
C398 C397 1.399 . S
C398 C399 1.385 1_565 S
C399 H385 0.931 . S
C399 C398 1.385 1_545 S
C399 C400 1.389 . S
C400 C399 1.389 . S
C400 C401 1.387 . S
C401 H386 0.930 . S
C401 C396 1.390 1_545 S
C401 C400 1.387 . S
H402 C414 0.930 . S
H403 C416 0.930 . S
H404 C417 0.930 . S
H405 C421 0.959 . S
H406 C421 0.959 . S
H407 C421 0.961 . S
H408 C422 0.960 . S
H409 C422 0.961 . S
H410 C422 0.959 . S
H411 C425 0.929 . S
H412 C426 0.931 . S
H413 C428 0.930 . S
C414 H402 0.930 . S
C414 C415 1.399 . S
C414 C419 1.399 . S
C415 C414 1.399 . S
C415 C416 1.376 . S
C416 H403 0.930 . S
C416 C415 1.376 . S
C416 C417 1.388 . S
C417 H404 0.930 . S
C417 C416 1.388 . S
C417 C418 1.390 . S
C418 C417 1.390 . S
C418 C419 1.394 . S
C418 C424 1.465 . S
C419 C414 1.399 . S
C419 C418 1.394 . S
C419 C420 1.516 . S
C420 C419 1.516 . S
C420 C421 1.502 . S
C420 C422 1.561 . S
C420 C423 1.526 . S
C421 H405 0.959 . S
C421 H406 0.959 . S
C421 H407 0.961 . S
C421 C420 1.502 . S
C422 H408 0.960 . S
C422 H409 0.961 . S
C422 H410 0.959 . S
C422 C420 1.561 . S
C423 C420 1.526 . S
C423 C424 1.396 . S
C423 C428 1.390 . S
C424 C418 1.465 . S
C424 C423 1.396 . S
C424 C425 1.399 . S
C425 H411 0.929 . S
C425 C424 1.399 . S
C425 C426 1.385 . S
C426 H412 0.931 . S
C426 C425 1.385 . S
C426 C427 1.389 . S
C427 C426 1.389 . S
C427 C428 1.387 . S
C428 H413 0.930 . S
C428 C423 1.390 . S
C428 C427 1.387 . S
H429 C441 0.930 . S
H430 C443 0.930 . S
H431 C444 0.930 . S
H432 C448 0.959 . S
H433 C448 0.959 . S
H434 C448 0.961 . S
H435 C449 0.960 . S
H436 C449 0.961 . S
H437 C449 0.959 . S
H438 C452 0.929 . S
H439 C453 0.931 . S
H440 C455 0.930 . S
C441 H429 0.930 . S
C441 C442 1.399 . S
C441 C446 1.399 1_455 S
C442 C441 1.399 . S
C442 C443 1.376 . S
C443 H430 0.930 . S
C443 C442 1.376 . S
C443 C444 1.388 1_455 S
C444 H431 0.930 . S
C444 C443 1.388 1_655 S
C444 C445 1.390 . S
C445 C444 1.390 . S
C445 C446 1.394 . S
C445 C451 1.465 . S
C446 C441 1.399 1_655 S
C446 C445 1.394 . S
C446 C447 1.516 . S
C447 C446 1.516 . S
C447 C448 1.502 . S
C447 C449 1.561 . S
C447 C450 1.526 . S
C448 H432 0.959 . S
C448 H433 0.959 . S
C448 H434 0.961 . S
C448 C447 1.502 . S
C449 H435 0.960 . S
C449 H436 0.961 . S
C449 H437 0.959 . S
C449 C447 1.561 . S
C450 C447 1.526 . S
C450 C451 1.396 . S
C450 C455 1.390 . S
C451 C445 1.465 . S
C451 C450 1.396 . S
C451 C452 1.399 . S
C452 H438 0.929 . S
C452 C451 1.399 . S
C452 C453 1.385 . S
C453 H439 0.931 . S
C453 C452 1.385 . S
C453 C454 1.389 . S
C454 C453 1.389 . S
C454 C455 1.387 . S
C455 H440 0.930 . S
C455 C450 1.390 . S
C455 C454 1.387 . S
H456 C468 0.930 . S
H457 C470 0.930 . S
H458 C471 0.930 . S
H459 C475 0.959 . S
H460 C475 0.959 . S
H461 C475 0.961 . S
H462 C476 0.960 . S
H463 C476 0.961 . S
H464 C476 0.959 . S
H465 C479 0.929 . S
H466 C480 0.931 1_455 S
H467 C482 0.930 . S
C468 H456 0.930 . S
C468 C469 1.399 . S
C468 C473 1.399 1_565 S
C469 C468 1.399 . S
C469 C470 1.376 . S
C470 H457 0.930 . S
C470 C469 1.376 . S
C470 C471 1.388 1_565 S
C471 H458 0.930 . S
C471 C470 1.388 1_545 S
C471 C472 1.390 . S
C472 C471 1.390 . S
C472 C473 1.394 . S
C472 C478 1.465 . S
C473 C468 1.399 1_545 S
C473 C472 1.394 . S
C473 C474 1.516 . S
C474 C473 1.516 . S
C474 C475 1.502 . S
C474 C476 1.561 . S
C474 C477 1.526 . S
C475 H459 0.959 . S
C475 H460 0.959 . S
C475 H461 0.961 . S
C475 C474 1.502 . S
C476 H462 0.960 . S
C476 H463 0.961 . S
C476 H464 0.959 . S
C476 C474 1.561 . S
C477 C474 1.526 . S
C477 C478 1.396 . S
C477 C482 1.390 . S
C478 C472 1.465 . S
C478 C477 1.396 . S
C478 C479 1.399 . S
C479 H465 0.929 . S
C479 C478 1.399 . S
C479 C480 1.385 . S
C480 H466 0.931 1_655 S
C480 C479 1.385 . S
C480 C481 1.389 . S
C481 C480 1.389 . S
C481 C482 1.387 . S
C482 H467 0.930 . S
C482 C477 1.390 . S
C482 C481 1.387 . S
H483 C495 0.930 . S
H484 C497 0.930 . S
H485 C498 0.930 . S
H486 C502 0.959 . S
H487 C502 0.959 . S
H488 C502 0.961 . S
H489 C503 0.960 . S
H490 C503 0.961 . S
H491 C503 0.959 . S
H492 C506 0.929 . S
H493 C507 0.931 . S
H494 C509 0.930 . S
C495 H483 0.930 . S
C495 C496 1.399 . S
C495 C500 1.399 . S
C496 C495 1.399 . S
C496 C497 1.376 . S
C497 H484 0.930 . S
C497 C496 1.376 . S
C497 C498 1.388 . S
C498 H485 0.930 . S
C498 C497 1.388 . S
C498 C499 1.390 . S
C499 C498 1.390 . S
C499 C500 1.394 . S
C499 C505 1.465 . S
C500 C495 1.399 . S
C500 C499 1.394 . S
C500 C501 1.516 . S
C501 C500 1.516 . S
C501 C502 1.502 . S
C501 C503 1.561 . S
C501 C504 1.526 . S
C502 H486 0.959 . S
C502 H487 0.959 . S
C502 H488 0.961 . S
C502 C501 1.502 . S
C503 H489 0.960 . S
C503 H490 0.961 . S
C503 H491 0.959 . S
C503 C501 1.561 . S
C504 C501 1.526 . S
C504 C505 1.396 . S
C504 C509 1.390 . S
C505 C499 1.465 . S
C505 C504 1.396 . S
C505 C506 1.399 . S
C506 H492 0.929 . S
C506 C505 1.399 . S
C506 C507 1.385 . S
C507 H493 0.931 . S
C507 C506 1.385 . S
C507 C508 1.389 . S
C508 C507 1.389 . S
C508 C509 1.387 . S
C509 H494 0.930 . S
C509 C504 1.390 . S
C509 C508 1.387 . S
H510 C522 0.930 . S
H511 C524 0.930 . S
H512 C525 0.930 . S
H513 C529 0.959 . S
H514 C529 0.959 . S
H515 C529 0.961 . S
H516 C530 0.960 . S
H517 C530 0.961 . S
H518 C530 0.959 . S
H519 C533 0.929 . S
H520 C534 0.931 . S
H521 C536 0.930 . S
C522 H510 0.930 . S
C522 C523 1.399 . S
C522 C527 1.399 1_455 S
C523 C522 1.399 . S
C523 C524 1.376 . S
C524 H511 0.930 . S
C524 C523 1.376 . S
C524 C525 1.388 1_455 S
C525 H512 0.930 . S
C525 C524 1.388 1_655 S
C525 C526 1.390 . S
C526 C525 1.390 . S
C526 C527 1.394 . S
C526 C532 1.465 . S
C527 C522 1.399 1_655 S
C527 C526 1.394 . S
C527 C528 1.516 . S
C528 C527 1.516 . S
C528 C529 1.502 . S
C528 C530 1.561 . S
C528 C531 1.526 . S
C529 H513 0.959 . S
C529 H514 0.959 . S
C529 H515 0.961 . S
C529 C528 1.502 . S
C530 H516 0.960 . S
C530 H517 0.961 . S
C530 H518 0.959 . S
C530 C528 1.561 . S
C531 C528 1.526 . S
C531 C532 1.396 . S
C531 C536 1.390 . S
C532 C526 1.465 . S
C532 C531 1.396 . S
C532 C533 1.399 . S
C533 H519 0.929 . S
C533 C532 1.399 . S
C533 C534 1.385 . S
C534 H520 0.931 . S
C534 C533 1.385 . S
C534 C535 1.389 . S
C535 C534 1.389 . S
C535 C536 1.387 . S
C536 H521 0.930 . S
C536 C531 1.390 . S
C536 C535 1.387 . S
H537 C549 0.930 . S
H538 C551 0.930 1_455 S
H539 C552 0.930 . S
H540 C556 0.959 . S
H541 C556 0.959 . S
H542 C556 0.961 . S
H543 C557 0.960 . S
H544 C557 0.961 . S
H545 C557 0.959 . S
H546 C560 0.929 . S
H547 C561 0.931 . S
H548 C563 0.930 . S
C549 H537 0.930 . S
C549 C550 1.399 . S
C549 C554 1.399 . S
C550 C549 1.399 . S
C550 C551 1.376 . S
C551 H538 0.930 1_655 S
C551 C550 1.376 . S
C551 C552 1.388 . S
C552 H539 0.930 . S
C552 C551 1.388 . S
C552 C553 1.390 . S
C553 C552 1.390 . S
C553 C554 1.394 . S
C553 C559 1.465 . S
C554 C549 1.399 . S
C554 C553 1.394 . S
C554 C555 1.516 . S
C555 C554 1.516 . S
C555 C556 1.502 . S
C555 C557 1.561 . S
C555 C558 1.526 . S
C556 H540 0.959 . S
C556 H541 0.959 . S
C556 H542 0.961 . S
C556 C555 1.502 . S
C557 H543 0.960 . S
C557 H544 0.961 . S
C557 H545 0.959 . S
C557 C555 1.561 . S
C558 C555 1.526 . S
C558 C559 1.396 . S
C558 C563 1.390 1_545 S
C559 C553 1.465 . S
C559 C558 1.396 . S
C559 C560 1.399 . S
C560 H546 0.929 . S
C560 C559 1.399 . S
C560 C561 1.385 1_545 S
C561 H547 0.931 . S
C561 C560 1.385 1_565 S
C561 C562 1.389 . S
C562 C561 1.389 . S
C562 C563 1.387 . S
C563 H548 0.930 . S
C563 C558 1.390 1_565 S
C563 C562 1.387 . S
H564 C576 0.930 . S
H565 C578 0.930 . S
H566 C579 0.930 . S
H567 C583 0.959 . S
H568 C583 0.959 . S
H569 C583 0.961 . S
H570 C584 0.960 . S
H571 C584 0.961 . S
H572 C584 0.959 . S
H573 C587 0.929 . S
H574 C588 0.931 . S
H575 C590 0.930 . S
C576 H564 0.930 . S
C576 C577 1.399 . S
C576 C581 1.399 . S
C577 C576 1.399 . S
C577 C578 1.376 . S
C578 H565 0.930 . S
C578 C577 1.376 . S
C578 C579 1.388 . S
C579 H566 0.930 . S
C579 C578 1.388 . S
C579 C580 1.390 . S
C580 C579 1.390 . S
C580 C581 1.394 . S
C580 C586 1.465 . S
C581 C576 1.399 . S
C581 C580 1.394 . S
C581 C582 1.516 . S
C582 C581 1.516 . S
C582 C583 1.502 . S
C582 C584 1.561 . S
C582 C585 1.526 . S
C583 H567 0.959 . S
C583 H568 0.959 . S
C583 H569 0.961 . S
C583 C582 1.502 . S
C584 H570 0.960 . S
C584 H571 0.961 . S
C584 H572 0.959 . S
C584 C582 1.561 . S
C585 C582 1.526 . S
C585 C586 1.396 . S
C585 C590 1.390 . S
C586 C580 1.465 . S
C586 C585 1.396 . S
C586 C587 1.399 . S
C587 H573 0.929 . S
C587 C586 1.399 . S
C587 C588 1.385 . S
C588 H574 0.931 . S
C588 C587 1.385 . S
C588 C589 1.389 . S
C589 C588 1.389 . S
C589 C590 1.387 . S
C590 H575 0.930 . S
C590 C585 1.390 . S
C590 C589 1.387 . S
H591 C603 0.930 . S
H592 C605 0.930 . S
H593 C606 0.930 . S
H594 C610 0.959 . S
H595 C610 0.959 . S
H596 C610 0.961 . S
H597 C611 0.960 . S
H598 C611 0.961 . S
H599 C611 0.959 . S
H600 C614 0.929 . S
H601 C615 0.931 . S
H602 C617 0.930 . S
C603 H591 0.930 . S
C603 C604 1.399 . S
C603 C608 1.399 . S
C604 C603 1.399 . S
C604 C605 1.376 . S
C605 H592 0.930 . S
C605 C604 1.376 . S
C605 C606 1.388 . S
C606 H593 0.930 . S
C606 C605 1.388 . S
C606 C607 1.390 . S
C607 C606 1.390 . S
C607 C608 1.394 . S
C607 C613 1.465 . S
C608 C603 1.399 . S
C608 C607 1.394 . S
C608 C609 1.516 . S
C609 C608 1.516 . S
C609 C610 1.502 . S
C609 C611 1.561 . S
C609 C612 1.526 . S
C610 H594 0.959 . S
C610 H595 0.959 . S
C610 H596 0.961 . S
C610 C609 1.502 . S
C611 H597 0.960 . S
C611 H598 0.961 . S
C611 H599 0.959 . S
C611 C609 1.561 . S
C612 C609 1.526 . S
C612 C613 1.396 . S
C612 C617 1.390 . S
C613 C607 1.465 . S
C613 C612 1.396 . S
C613 C614 1.399 . S
C614 H600 0.929 . S
C614 C613 1.399 . S
C614 C615 1.385 . S
C615 H601 0.931 . S
C615 C614 1.385 . S
C615 C616 1.389 . S
C616 C615 1.389 . S
C616 C617 1.387 . S
C617 H602 0.930 . S
C617 C612 1.390 . S
C617 C616 1.387 . S
H618 C630 0.930 . S
H619 C632 0.930 . S
H620 C633 0.930 . S
H621 C637 0.959 . S
H622 C637 0.959 . S
H623 C637 0.961 . S
H624 C638 0.960 . S
H625 C638 0.961 . S
H626 C638 0.959 . S
H627 C641 0.929 . S
H628 C642 0.931 . S
H629 C644 0.930 . S
C630 H618 0.930 . S
C630 C631 1.399 . S
C630 C635 1.399 . S
C631 C630 1.399 . S
C631 C632 1.376 . S
C632 H619 0.930 . S
C632 C631 1.376 . S
C632 C633 1.388 . S
C633 H620 0.930 . S
C633 C632 1.388 . S
C633 C634 1.390 . S
C634 C633 1.390 . S
C634 C635 1.394 . S
C634 C640 1.465 . S
C635 C630 1.399 . S
C635 C634 1.394 . S
C635 C636 1.516 . S
C636 C635 1.516 . S
C636 C637 1.502 . S
C636 C638 1.561 . S
C636 C639 1.526 . S
C637 H621 0.959 . S
C637 H622 0.959 . S
C637 H623 0.961 . S
C637 C636 1.502 . S
C638 H624 0.960 . S
C638 H625 0.961 . S
C638 H626 0.959 . S
C638 C636 1.561 . S
C639 C636 1.526 . S
C639 C640 1.396 . S
C639 C644 1.390 . S
C640 C634 1.465 . S
C640 C639 1.396 . S
C640 C641 1.399 . S
C641 H627 0.929 . S
C641 C640 1.399 . S
C641 C642 1.385 . S
C642 H628 0.931 . S
C642 C641 1.385 . S
C642 C643 1.389 . S
C643 C642 1.389 . S
C643 C644 1.387 . S
C644 H629 0.930 . S
C644 C639 1.390 . S
C644 C643 1.387 . S
H645 C657 0.930 . S
H646 C659 0.930 . S
H647 C660 0.930 . S
H648 C664 0.959 . S
H649 C664 0.959 . S
H650 C664 0.961 . S
H651 C665 0.960 . S
H652 C665 0.961 . S
H653 C665 0.959 . S
H654 C668 0.929 . S
H655 C669 0.931 . S
H656 C671 0.930 . S
C657 H645 0.930 . S
C657 C658 1.399 . S
C657 C662 1.399 . S
C658 C657 1.399 . S
C658 C659 1.376 . S
C659 H646 0.930 . S
C659 C658 1.376 . S
C659 C660 1.388 . S
C660 H647 0.930 . S
C660 C659 1.388 . S
C660 C661 1.390 . S
C661 C660 1.390 . S
C661 C662 1.394 . S
C661 C667 1.465 . S
C662 C657 1.399 . S
C662 C661 1.394 . S
C662 C663 1.516 . S
C663 C662 1.516 . S
C663 C664 1.502 . S
C663 C665 1.561 . S
C663 C666 1.526 . S
C664 H648 0.959 . S
C664 H649 0.959 . S
C664 H650 0.961 . S
C664 C663 1.502 . S
C665 H651 0.960 . S
C665 H652 0.961 . S
C665 H653 0.959 . S
C665 C663 1.561 . S
C666 C663 1.526 . S
C666 C667 1.396 . S
C666 C671 1.390 . S
C667 C661 1.465 . S
C667 C666 1.396 . S
C667 C668 1.399 . S
C668 H654 0.929 . S
C668 C667 1.399 . S
C668 C669 1.385 . S
C669 H655 0.931 . S
C669 C668 1.385 . S
C669 C670 1.389 . S
C670 C669 1.389 . S
C670 C671 1.387 . S
C671 H656 0.930 . S
C671 C666 1.390 . S
C671 C670 1.387 . S
H672 C684 0.930 . S
H673 C686 0.930 . S
H674 C687 0.930 . S
H675 C691 0.959 . S
H676 C691 0.959 . S
H677 C691 0.961 . S
H678 C692 0.960 . S
H679 C692 0.961 . S
H680 C692 0.959 . S
H681 C695 0.929 . S
H682 C696 0.931 . S
H683 C698 0.930 . S
C684 H672 0.930 . S
C684 C685 1.399 . S
C684 C689 1.399 . S
C685 C684 1.399 . S
C685 C686 1.376 . S
C686 H673 0.930 . S
C686 C685 1.376 . S
C686 C687 1.388 . S
C687 H674 0.930 . S
C687 C686 1.388 . S
C687 C688 1.390 . S
C688 C687 1.390 . S
C688 C689 1.394 . S
C688 C694 1.465 . S
C689 C684 1.399 . S
C689 C688 1.394 . S
C689 C690 1.516 . S
C690 C689 1.516 . S
C690 C691 1.502 . S
C690 C692 1.561 . S
C690 C693 1.526 . S
C691 H675 0.959 . S
C691 H676 0.959 . S
C691 H677 0.961 . S
C691 C690 1.502 . S
C692 H678 0.960 . S
C692 H679 0.961 . S
C692 H680 0.959 . S
C692 C690 1.561 . S
C693 C690 1.526 . S
C693 C694 1.396 . S
C693 C698 1.390 . S
C694 C688 1.465 . S
C694 C693 1.396 . S
C694 C695 1.399 . S
C695 H681 0.929 . S
C695 C694 1.399 . S
C695 C696 1.385 . S
C696 H682 0.931 . S
C696 C695 1.385 . S
C696 C697 1.389 . S
C697 C696 1.389 . S
C697 C698 1.387 . S
C698 H683 0.930 . S
C698 C693 1.390 . S
C698 C697 1.387 . S
H699 C711 0.930 . S
H700 C713 0.930 . S
H701 C714 0.930 . S
H702 C718 0.959 . S
H703 C718 0.959 . S
H704 C718 0.961 . S
H705 C719 0.960 . S
H706 C719 0.961 . S
H707 C719 0.959 . S
H708 C722 0.929 . S
H709 C723 0.931 . S
H710 C725 0.930 . S
C711 H699 0.930 . S
C711 C712 1.399 . S
C711 C716 1.399 . S
C712 C711 1.399 . S
C712 C713 1.376 . S
C713 H700 0.930 . S
C713 C712 1.376 . S
C713 C714 1.388 . S
C714 H701 0.930 . S
C714 C713 1.388 . S
C714 C715 1.390 . S
C715 C714 1.390 . S
C715 C716 1.394 . S
C715 C721 1.465 . S
C716 C711 1.399 . S
C716 C715 1.394 . S
C716 C717 1.516 . S
C717 C716 1.516 . S
C717 C718 1.502 . S
C717 C719 1.561 . S
C717 C720 1.526 . S
C718 H702 0.959 . S
C718 H703 0.959 . S
C718 H704 0.961 . S
C718 C717 1.502 . S
C719 H705 0.960 . S
C719 H706 0.961 . S
C719 H707 0.959 . S
C719 C717 1.561 . S
C720 C717 1.526 . S
C720 C721 1.396 . S
C720 C725 1.390 . S
C721 C715 1.465 . S
C721 C720 1.396 . S
C721 C722 1.399 . S
C722 H708 0.929 . S
C722 C721 1.399 . S
C722 C723 1.385 . S
C723 H709 0.931 . S
C723 C722 1.385 . S
C723 C724 1.389 . S
C724 C723 1.389 . S
C724 C725 1.387 . S
C725 H710 0.930 . S
C725 C720 1.390 . S
C725 C724 1.387 . S
H726 C738 0.930 . S
H727 C740 0.930 . S
H728 C741 0.930 1_545 S
H729 C745 0.959 . S
H730 C745 0.959 . S
H731 C745 0.961 . S
H732 C746 0.960 . S
H733 C746 0.961 . S
H734 C746 0.959 . S
H735 C749 0.929 . S
H736 C750 0.931 . S
H737 C752 0.930 . S
C738 H726 0.930 . S
C738 C739 1.399 . S
C738 C743 1.399 . S
C739 C738 1.399 . S
C739 C740 1.376 . S
C740 H727 0.930 . S
C740 C739 1.376 . S
C740 C741 1.388 . S
C741 H728 0.930 1_565 S
C741 C740 1.388 . S
C741 C742 1.390 . S
C742 C741 1.390 . S
C742 C743 1.394 . S
C742 C748 1.456 1_566 S
C743 C738 1.399 . S
C743 C742 1.394 . S
C743 C744 1.516 1_556 S
C744 C743 1.516 1_554 S
C744 C745 1.502 . S
C744 C746 1.561 . S
C744 C747 1.526 1_565 S
C745 H729 0.959 . S
C745 H730 0.959 . S
C745 H731 0.961 . S
C745 C744 1.502 . S
C746 H732 0.960 . S
C746 H733 0.961 . S
C746 H734 0.959 . S
C746 C744 1.561 . S
C747 C744 1.526 1_545 S
C747 C748 1.408 . S
C747 C752 1.390 . S
C748 C742 1.456 1_544 S
C748 C747 1.408 . S
C748 C749 1.397 1_554 S
C749 H735 0.929 . S
C749 C748 1.397 1_556 S
C749 C750 1.385 1_556 S
C750 H736 0.931 . S
C750 C749 1.385 1_554 S
C750 C751 1.389 . S
C751 C750 1.389 . S
C751 C752 1.387 . S
C752 H737 0.930 . S
C752 C747 1.390 . S
C752 C751 1.387 . S
H753 C765 0.930 . S
H754 C767 0.930 . S
H755 C768 0.930 . S
H756 C772 0.959 . S
H757 C772 0.959 . S
H758 C772 0.961 . S
H759 C773 0.960 . S
H760 C773 0.961 . S
H761 C773 0.959 . S
H762 C776 0.929 . S
H763 C777 0.931 . S
H764 C779 0.930 . S
C765 H753 0.930 . S
C765 C766 1.399 . S
C765 C770 1.399 . S
C766 C765 1.399 . S
C766 C767 1.376 . S
C767 H754 0.930 . S
C767 C766 1.376 . S
C767 C768 1.388 . S
C768 H755 0.930 . S
C768 C767 1.388 . S
C768 C769 1.390 . S
C769 C768 1.390 . S
C769 C770 1.394 . S
C769 C775 1.465 . S
C770 C765 1.399 . S
C770 C769 1.394 . S
C770 C771 1.516 . S
C771 C770 1.516 . S
C771 C772 1.502 . S
C771 C773 1.561 . S
C771 C774 1.526 . S
C772 H756 0.959 . S
C772 H757 0.959 . S
C772 H758 0.961 . S
C772 C771 1.502 . S
C773 H759 0.960 . S
C773 H760 0.961 . S
C773 H761 0.959 . S
C773 C771 1.561 . S
C774 C771 1.526 . S
C774 C775 1.396 . S
C774 C779 1.390 . S
C775 C769 1.465 . S
C775 C774 1.396 . S
C775 C776 1.399 . S
C776 H762 0.929 . S
C776 C775 1.399 . S
C776 C777 1.385 . S
C777 H763 0.931 . S
C777 C776 1.385 . S
C777 C778 1.389 . S
C778 C777 1.389 . S
C778 C779 1.387 . S
C779 H764 0.930 . S
C779 C774 1.390 . S
C779 C778 1.387 . S
H780 C792 0.930 . S
H781 C794 0.930 . S
H782 C795 0.898 1_554 S
H783 C799 0.959 . S
H784 C799 0.959 . S
H785 C799 0.961 . S
H786 C800 0.960 . S
H787 C800 0.961 . S
H788 C800 0.959 . S
H789 C803 0.929 1_455 S
H790 C804 0.931 . S
H791 C806 0.930 . S
C792 H780 0.930 . S
C792 C793 1.399 . S
C792 C797 1.399 . S
C793 C792 1.399 . S
C793 C794 1.376 . S
C794 H781 0.930 . S
C794 C793 1.376 . S
C794 C795 1.420 . S
C795 H782 0.898 1_556 S
C795 C794 1.420 . S
C795 C796 1.392 . S
C796 C795 1.392 . S
C796 C797 1.394 . S
C796 C802 1.465 1_456 S
C797 C792 1.399 . S
C797 C796 1.394 . S
C797 C798 1.516 1_455 S
C798 C797 1.516 1_655 S
C798 C799 1.502 . S
C798 C800 1.561 . S
C798 C801 1.526 1_556 S
C799 H783 0.959 . S
C799 H784 0.959 . S
C799 H785 0.961 . S
C799 C798 1.502 . S
C800 H786 0.960 . S
C800 H787 0.961 . S
C800 H788 0.959 . S
C800 C798 1.561 . S
C801 C798 1.526 1_554 S
C801 C802 1.396 . S
C801 C806 1.390 . S
C802 C796 1.465 1_654 S
C802 C801 1.396 . S
C802 C803 1.399 . S
C803 H789 0.929 1_655 S
C803 C802 1.399 . S
C803 C804 1.385 . S
C804 H790 0.931 . S
C804 C803 1.385 . S
C804 C805 1.389 . S
C805 C804 1.389 . S
C805 C806 1.387 . S
C806 H791 0.930 . S
C806 C801 1.390 . S
C806 C805 1.387 . S
H807 C819 0.930 . S
H808 C821 0.930 . S
H809 C822 0.930 . S
H810 C826 0.959 . S
H811 C826 0.959 . S
H812 C826 0.961 . S
H813 C827 0.960 . S
H814 C827 0.961 . S
H815 C827 0.959 . S
H816 C830 0.929 1_545 S
H817 C831 0.931 . S
H818 C833 0.930 . S
C819 H807 0.930 . S
C819 C820 1.399 . S
C819 C824 1.399 . S
C820 C819 1.399 . S
C820 C821 1.376 . S
C821 H808 0.930 . S
C821 C820 1.376 . S
C821 C822 1.388 . S
C822 H809 0.930 . S
C822 C821 1.388 . S
C822 C823 1.390 . S
C823 C822 1.390 . S
C823 C824 1.394 . S
C823 C829 1.465 1_545 S
C824 C819 1.399 . S
C824 C823 1.394 . S
C824 C825 1.516 1_545 S
C825 C824 1.516 1_565 S
C825 C826 1.502 . S
C825 C827 1.561 . S
C825 C828 1.526 . S
C826 H810 0.959 . S
C826 H811 0.959 . S
C826 H812 0.961 . S
C826 C825 1.502 . S
C827 H813 0.960 . S
C827 H814 0.961 . S
C827 H815 0.959 . S
C827 C825 1.561 . S
C828 C825 1.526 . S
C828 C829 1.396 . S
C828 C833 1.390 . S
C829 C823 1.465 1_565 S
C829 C828 1.396 . S
C829 C830 1.399 . S
C830 H816 0.929 1_565 S
C830 C829 1.399 . S
C830 C831 1.385 . S
C831 H817 0.931 . S
C831 C830 1.385 . S
C831 C832 1.389 . S
C832 C831 1.389 . S
C832 C833 1.387 . S
C833 H818 0.930 . S
C833 C828 1.390 . S
C833 C832 1.387 . S
H834 C846 0.930 . S
H835 C848 0.930 . S
H836 C849 0.930 . S
H837 C853 0.959 . S
H838 C853 0.959 . S
H839 C853 0.961 . S
H840 C854 0.960 . S
H841 C854 0.961 . S
H842 C854 0.959 . S
H843 C857 0.929 . S
H844 C858 0.931 . S
H845 C860 0.930 . S
C846 H834 0.930 . S
C846 C847 1.399 . S
C846 C851 1.399 . S
C847 C846 1.399 . S
C847 C848 1.376 . S
C848 H835 0.930 . S
C848 C847 1.376 . S
C848 C849 1.388 . S
C849 H836 0.930 . S
C849 C848 1.388 . S
C849 C850 1.390 . S
C850 C849 1.390 . S
C850 C851 1.394 . S
C850 C856 1.465 1_554 S
C851 C846 1.399 . S
C851 C850 1.394 . S
C851 C852 1.516 . S
C852 C851 1.516 . S
C852 C853 1.502 1_554 S
C852 C854 1.561 . S
C852 C855 1.526 1_554 S
C853 H837 0.959 . S
C853 H838 0.959 . S
C853 H839 0.961 . S
C853 C852 1.502 1_556 S
C854 H840 0.960 . S
C854 H841 0.961 . S
C854 H842 0.959 . S
C854 C852 1.561 . S
C855 C852 1.526 1_556 S
C855 C856 1.396 . S
C855 C860 1.390 . S
C856 C850 1.465 1_556 S
C856 C855 1.396 . S
C856 C857 1.399 . S
C857 H843 0.929 . S
C857 C856 1.399 . S
C857 C858 1.385 . S
C858 H844 0.931 . S
C858 C857 1.385 . S
C858 C859 1.389 . S
C859 C858 1.389 . S
C859 C860 1.387 . S
C860 H845 0.930 . S
C860 C855 1.390 . S
C860 C859 1.387 . S
H861 C873 0.930 . S
H862 C875 0.930 . S
H863 C876 0.930 . S
H864 C880 0.959 . S
H865 C880 0.959 . S
H866 C880 0.961 . S
H867 C881 0.960 1_455 S
H868 C881 0.961 . S
H869 C881 0.959 1_455 S
H870 C884 0.929 1_455 S
H871 C885 0.931 . S
H872 C887 0.930 . S
C873 H861 0.930 . S
C873 C874 1.399 . S
C873 C878 1.399 . S
C874 C873 1.399 . S
C874 C875 1.376 . S
C875 H862 0.930 . S
C875 C874 1.376 . S
C875 C876 1.388 . S
C876 H863 0.930 . S
C876 C875 1.388 . S
C876 C877 1.390 . S
C877 C876 1.390 . S
C877 C878 1.394 . S
C877 C883 1.465 1_455 S
C878 C873 1.399 . S
C878 C877 1.394 . S
C878 C879 1.516 1_455 S
C879 C878 1.516 1_655 S
C879 C880 1.502 . S
C879 C881 1.561 . S
C879 C882 1.526 . S
C880 H864 0.959 . S
C880 H865 0.959 . S
C880 H866 0.961 . S
C880 C879 1.502 . S
C881 H867 0.960 1_655 S
C881 H868 0.961 . S
C881 H869 0.959 1_655 S
C881 C879 1.561 . S
C882 C879 1.526 . S
C882 C883 1.396 . S
C882 C887 1.390 . S
C883 C877 1.465 1_655 S
C883 C882 1.396 . S
C883 C884 1.399 . S
C884 H870 0.929 1_655 S
C884 C883 1.399 . S
C884 C885 1.385 . S
C885 H871 0.931 . S
C885 C884 1.385 . S
C885 C886 1.389 . S
C886 C885 1.389 . S
C886 C887 1.387 . S
C887 H872 0.930 . S
C887 C882 1.390 . S
C887 C886 1.387 . S
H888 C900 0.930 . S
H889 C902 0.930 . S
H890 C903 0.930 . S
H891 C907 0.959 . S
H892 C907 0.959 . S
H893 C907 0.961 . S
H894 C908 0.960 . S
H895 C908 0.961 . S
H896 C908 0.959 . S
H897 C911 0.929 . S
H898 C912 0.931 . S
H899 C914 0.930 . S
C900 H888 0.930 . S
C900 C901 1.399 . S
C900 C905 1.399 . S
C901 C900 1.399 . S
C901 C902 1.376 . S
C902 H889 0.930 . S
C902 C901 1.376 . S
C902 C903 1.388 . S
C903 H890 0.930 . S
C903 C902 1.388 . S
C903 C904 1.390 . S
C904 C903 1.390 . S
C904 C905 1.394 . S
C904 C910 1.465 . S
C905 C900 1.399 . S
C905 C904 1.394 . S
C905 C906 1.516 . S
C906 C905 1.516 . S
C906 C907 1.502 . S
C906 C908 1.561 . S
C906 C909 1.526 . S
C907 H891 0.959 . S
C907 H892 0.959 . S
C907 H893 0.961 . S
C907 C906 1.502 . S
C908 H894 0.960 . S
C908 H895 0.961 . S
C908 H896 0.959 . S
C908 C906 1.561 . S
C909 C906 1.526 . S
C909 C910 1.396 . S
C909 C914 1.390 . S
C910 C904 1.465 . S
C910 C909 1.396 . S
C910 C911 1.399 . S
C911 H897 0.929 . S
C911 C910 1.399 . S
C911 C912 1.385 . S
C912 H898 0.931 . S
C912 C911 1.385 . S
C912 C913 1.389 . S
C913 C912 1.389 . S
C913 C914 1.387 . S
C914 H899 0.930 . S
C914 C909 1.390 . S
C914 C913 1.387 . S
H915 C927 0.930 . S
H916 C929 0.930 . S
H917 C930 0.930 . S
H918 C934 0.959 . S
H919 C934 0.959 . S
H920 C934 0.961 . S
H921 C935 0.960 . S
H922 C935 0.961 . S
H923 C935 0.959 . S
H924 C938 0.929 . S
H925 C939 0.931 . S
H926 C941 0.930 . S
C927 H915 0.930 . S
C927 C928 1.399 . S
C927 C932 1.399 . S
C928 C927 1.399 . S
C928 C929 1.376 . S
C929 H916 0.930 . S
C929 C928 1.376 . S
C929 C930 1.388 . S
C930 H917 0.930 . S
C930 C929 1.388 . S
C930 C931 1.390 . S
C931 C930 1.390 . S
C931 C932 1.394 . S
C931 C937 1.465 . S
C932 C927 1.399 . S
C932 C931 1.394 . S
C932 C933 1.516 . S
C933 C932 1.516 . S
C933 C934 1.502 . S
C933 C935 1.561 . S
C933 C936 1.526 . S
C934 H918 0.959 . S
C934 H919 0.959 . S
C934 H920 0.961 . S
C934 C933 1.502 . S
C935 H921 0.960 . S
C935 H922 0.961 . S
C935 H923 0.959 . S
C935 C933 1.561 . S
C936 C933 1.526 . S
C936 C937 1.396 . S
C936 C941 1.390 . S
C937 C931 1.465 . S
C937 C936 1.396 . S
C937 C938 1.399 . S
C938 H924 0.929 . S
C938 C937 1.399 . S
C938 C939 1.385 . S
C939 H925 0.931 . S
C939 C938 1.385 . S
C939 C940 1.389 . S
C940 C939 1.389 . S
C940 C941 1.387 . S
C941 H926 0.930 . S
C941 C936 1.390 . S
C941 C940 1.387 . S
H942 C954 0.930 . S
H943 C956 0.930 . S
H944 C957 0.930 . S
H945 C961 0.959 . S
H946 C961 0.959 . S
H947 C961 0.961 . S
H948 C962 0.960 . S
H949 C962 0.961 . S
H950 C962 0.959 . S
H951 C965 0.929 . S
H952 C966 0.931 . S
H953 C968 0.930 . S
C954 H942 0.930 . S
C954 C955 1.399 . S
C954 C959 1.399 . S
C955 C954 1.399 . S
C955 C956 1.376 . S
C956 H943 0.930 . S
C956 C955 1.376 . S
C956 C957 1.388 . S
C957 H944 0.930 . S
C957 C956 1.388 . S
C957 C958 1.390 . S
C958 C957 1.390 . S
C958 C959 1.394 . S
C958 C964 1.465 . S
C959 C954 1.399 . S
C959 C958 1.394 . S
C959 C960 1.516 . S
C960 C959 1.516 . S
C960 C961 1.502 . S
C960 C962 1.561 . S
C960 C963 1.526 . S
C961 H945 0.959 . S
C961 H946 0.959 . S
C961 H947 0.961 . S
C961 C960 1.502 . S
C962 H948 0.960 . S
C962 H949 0.961 . S
C962 H950 0.959 . S
C962 C960 1.561 . S
C963 C960 1.526 . S
C963 C964 1.396 . S
C963 C968 1.390 . S
C964 C958 1.465 . S
C964 C963 1.396 . S
C964 C965 1.399 . S
C965 H951 0.929 . S
C965 C964 1.399 . S
C965 C966 1.385 . S
C966 H952 0.931 . S
C966 C965 1.385 . S
C966 C967 1.389 . S
C967 C966 1.389 . S
C967 C968 1.387 . S
C968 H953 0.930 . S
C968 C963 1.390 . S
C968 C967 1.387 . S
H969 C981 0.930 . S
H970 C983 0.930 . S
H971 C984 0.930 . S
H972 C988 0.959 . S
H973 C988 0.959 . S
H974 C988 0.961 . S
H975 C989 0.960 . S
H976 C989 0.961 . S
H977 C989 0.959 . S
H978 C992 0.929 . S
H979 C993 0.931 . S
H980 C995 0.930 . S
C981 H969 0.930 . S
C981 C982 1.399 . S
C981 C986 1.399 . S
C982 C981 1.399 . S
C982 C983 1.376 . S
C983 H970 0.930 . S
C983 C982 1.376 . S
C983 C984 1.388 . S
C984 H971 0.930 . S
C984 C983 1.388 . S
C984 C985 1.390 . S
C985 C984 1.390 . S
C985 C986 1.394 . S
C985 C991 1.465 . S
C986 C981 1.399 . S
C986 C985 1.394 . S
C986 C987 1.516 . S
C987 C986 1.516 . S
C987 C988 1.502 . S
C987 C989 1.561 . S
C987 C990 1.526 . S
C988 H972 0.959 . S
C988 H973 0.959 . S
C988 H974 0.961 . S
C988 C987 1.502 . S
C989 H975 0.960 . S
C989 H976 0.961 . S
C989 H977 0.959 . S
C989 C987 1.561 . S
C990 C987 1.526 . S
C990 C991 1.396 . S
C990 C995 1.390 . S
C991 C985 1.465 . S
C991 C990 1.396 . S
C991 C992 1.399 . S
C992 H978 0.929 . S
C992 C991 1.399 . S
C992 C993 1.385 . S
C993 H979 0.931 . S
C993 C992 1.385 . S
C993 C994 1.389 . S
C994 C993 1.389 . S
C994 C995 1.387 . S
C995 H980 0.930 . S
C995 C990 1.390 . S
C995 C994 1.387 . S
H996 C1008 0.930 . S
H997 C1010 0.930 . S
H998 C1011 0.930 . S
H999 C1015 0.959 . S
H1000 C1015 0.959 . S
H1001 C1015 0.961 . S
H1002 C1016 0.960 . S
H1003 C1016 0.961 . S
H1004 C1016 0.959 . S
H1005 C1019 0.929 . S
H1006 C1020 0.931 . S
H1007 C1022 0.930 . S
C1008 H996 0.930 . S
C1008 C1009 1.399 . S
C1008 C1013 1.399 . S
C1009 C1008 1.399 . S
C1009 C1010 1.376 . S
C1010 H997 0.930 . S
C1010 C1009 1.376 . S
C1010 C1011 1.388 . S
C1011 H998 0.930 . S
C1011 C1010 1.388 . S
C1011 C1012 1.390 . S
C1012 C1011 1.390 . S
C1012 C1013 1.394 . S
C1012 C1018 1.465 . S
C1013 C1008 1.399 . S
C1013 C1012 1.394 . S
C1013 C1014 1.516 . S
C1014 C1013 1.516 . S
C1014 C1015 1.502 . S
C1014 C1016 1.561 . S
C1014 C1017 1.526 . S
C1015 H999 0.959 . S
C1015 H1000 0.959 . S
C1015 H1001 0.961 . S
C1015 C1014 1.502 . S
C1016 H1002 0.960 . S
C1016 H1003 0.961 . S
C1016 H1004 0.959 . S
C1016 C1014 1.561 . S
C1017 C1014 1.526 . S
C1017 C1018 1.396 . S
C1017 C1022 1.390 . S
C1018 C1012 1.465 . S
C1018 C1017 1.396 . S
C1018 C1019 1.399 . S
C1019 H1005 0.929 . S
C1019 C1018 1.399 . S
C1019 C1020 1.385 . S
C1020 H1006 0.931 . S
C1020 C1019 1.385 . S
C1020 C1021 1.389 . S
C1021 C1020 1.389 . S
C1021 C1022 1.387 . S
C1022 H1007 0.930 . S
C1022 C1017 1.390 . S
C1022 C1021 1.387 . S
H1023 C1035 0.930 . S
H1024 C1037 0.930 . S
H1025 C1038 0.930 . S
H1026 C1042 0.959 . S
H1027 C1042 0.959 . S
H1028 C1042 0.961 . S
H1029 C1043 0.960 . S
H1030 C1043 0.961 . S
H1031 C1043 0.959 . S
H1032 C1046 0.929 . S
H1033 C1047 0.931 . S
H1034 C1049 0.930 . S
C1035 H1023 0.930 . S
C1035 C1036 1.399 . S
C1035 C1040 1.399 . S
C1036 C1035 1.399 . S
C1036 C1037 1.376 . S
C1037 H1024 0.930 . S
C1037 C1036 1.376 . S
C1037 C1038 1.388 . S
C1038 H1025 0.930 . S
C1038 C1037 1.388 . S
C1038 C1039 1.390 . S
C1039 C1038 1.390 . S
C1039 C1040 1.394 . S
C1039 C1045 1.465 . S
C1040 C1035 1.399 . S
C1040 C1039 1.394 . S
C1040 C1041 1.516 . S
C1041 C1040 1.516 . S
C1041 C1042 1.502 . S
C1041 C1043 1.561 . S
C1041 C1044 1.526 . S
C1042 H1026 0.959 . S
C1042 H1027 0.959 . S
C1042 H1028 0.961 . S
C1042 C1041 1.502 . S
C1043 H1029 0.960 . S
C1043 H1030 0.961 . S
C1043 H1031 0.959 . S
C1043 C1041 1.561 . S
C1044 C1041 1.526 . S
C1044 C1045 1.396 . S
C1044 C1049 1.390 . S
C1045 C1039 1.465 . S
C1045 C1044 1.396 . S
C1045 C1046 1.399 . S
C1046 H1032 0.929 . S
C1046 C1045 1.399 . S
C1046 C1047 1.385 . S
C1047 H1033 0.931 . S
C1047 C1046 1.385 . S
C1047 C1048 1.389 . S
C1048 C1047 1.389 . S
C1048 C1049 1.387 . S
C1049 H1034 0.930 . S
C1049 C1044 1.390 . S
C1049 C1048 1.387 . S
H1050 C1062 0.930 . S
H1051 C1064 0.930 . S
H1052 C1065 0.930 . S
H1053 C1069 0.959 . S
H1054 C1069 0.959 . S
H1055 C1069 0.961 . S
H1056 C1070 0.960 . S
H1057 C1070 0.961 . S
H1058 C1070 0.959 . S
H1059 C1073 0.929 . S
H1060 C1074 0.931 . S
H1061 C1076 0.930 . S
C1062 H1050 0.930 . S
C1062 C1063 1.399 . S
C1062 C1067 1.399 . S
C1063 C1062 1.399 . S
C1063 C1064 1.376 . S
C1064 H1051 0.930 . S
C1064 C1063 1.376 . S
C1064 C1065 1.388 . S
C1065 H1052 0.930 . S
C1065 C1064 1.388 . S
C1065 C1066 1.390 . S
C1066 C1065 1.390 . S
C1066 C1067 1.394 . S
C1066 C1072 1.465 . S
C1067 C1062 1.399 . S
C1067 C1066 1.394 . S
C1067 C1068 1.516 . S
C1068 C1067 1.516 . S
C1068 C1069 1.502 . S
C1068 C1070 1.561 . S
C1068 C1071 1.526 . S
C1069 H1053 0.959 . S
C1069 H1054 0.959 . S
C1069 H1055 0.961 . S
C1069 C1068 1.502 . S
C1070 H1056 0.960 . S
C1070 H1057 0.961 . S
C1070 H1058 0.959 . S
C1070 C1068 1.561 . S
C1071 C1068 1.526 . S
C1071 C1072 1.396 . S
C1071 C1076 1.390 . S
C1072 C1066 1.465 . S
C1072 C1071 1.396 . S
C1072 C1073 1.399 . S
C1073 H1059 0.929 . S
C1073 C1072 1.399 . S
C1073 C1074 1.385 . S
C1074 H1060 0.931 . S
C1074 C1073 1.385 . S
C1074 C1075 1.389 . S
C1075 C1074 1.389 . S
C1075 C1076 1.387 . S
C1076 H1061 0.930 . S
C1076 C1071 1.390 . S
C1076 C1075 1.387 . S
H1077 C1089 0.930 . S
H1078 C1091 0.930 . S
H1079 C1092 0.930 . S
H1080 C1096 0.959 . S
H1081 C1096 0.959 . S
H1082 C1096 0.961 . S
H1083 C1097 0.960 . S
H1084 C1097 0.961 . S
H1085 C1097 0.959 . S
H1086 C1100 0.929 . S
H1087 C1101 0.931 . S
H1088 C1103 0.930 . S
C1089 H1077 0.930 . S
C1089 C1090 1.399 . S
C1089 C1094 1.399 . S
C1090 C1089 1.399 . S
C1090 C1091 1.376 . S
C1091 H1078 0.930 . S
C1091 C1090 1.376 . S
C1091 C1092 1.388 . S
C1092 H1079 0.930 . S
C1092 C1091 1.388 . S
C1092 C1093 1.390 . S
C1093 C1092 1.390 . S
C1093 C1094 1.394 . S
C1093 C1099 1.465 . S
C1094 C1089 1.399 . S
C1094 C1093 1.394 . S
C1094 C1095 1.516 . S
C1095 C1094 1.516 . S
C1095 C1096 1.502 . S
C1095 C1097 1.561 . S
C1095 C1098 1.526 . S
C1096 H1080 0.959 . S
C1096 H1081 0.959 . S
C1096 H1082 0.961 . S
C1096 C1095 1.502 . S
C1097 H1083 0.960 . S
C1097 H1084 0.961 . S
C1097 H1085 0.959 . S
C1097 C1095 1.561 . S
C1098 C1095 1.526 . S
C1098 C1099 1.396 . S
C1098 C1103 1.390 . S
C1099 C1093 1.465 . S
C1099 C1098 1.396 . S
C1099 C1100 1.399 . S
C1100 H1086 0.929 . S
C1100 C1099 1.399 . S
C1100 C1101 1.385 . S
C1101 H1087 0.931 . S
C1101 C1100 1.385 . S
C1101 C1102 1.389 . S
C1102 C1101 1.389 . S
C1102 C1103 1.387 . S
C1103 H1088 0.930 . S
C1103 C1098 1.390 . S
C1103 C1102 1.387 . S
H1104 C1116 0.930 . S
H1105 C1118 0.930 . S
H1106 C1119 0.930 . S
H1107 C1123 0.959 . S
H1108 C1123 0.959 . S
H1109 C1123 0.961 . S
H1110 C1124 0.960 . S
H1111 C1124 0.961 . S
H1112 C1124 0.959 . S
H1113 C1127 0.929 . S
H1114 C1128 0.931 . S
H1115 C1130 0.930 . S
C1116 H1104 0.930 . S
C1116 C1117 1.399 . S
C1116 C1121 1.399 . S
C1117 C1116 1.399 . S
C1117 C1118 1.376 . S
C1118 H1105 0.930 . S
C1118 C1117 1.376 . S
C1118 C1119 1.388 . S
C1119 H1106 0.930 . S
C1119 C1118 1.388 . S
C1119 C1120 1.390 . S
C1120 C1119 1.390 . S
C1120 C1121 1.394 . S
C1120 C1126 1.465 . S
C1121 C1116 1.399 . S
C1121 C1120 1.394 . S
C1121 C1122 1.516 . S
C1122 C1121 1.516 . S
C1122 C1123 1.502 . S
C1122 C1124 1.561 . S
C1122 C1125 1.526 . S
C1123 H1107 0.959 . S
C1123 H1108 0.959 . S
C1123 H1109 0.961 . S
C1123 C1122 1.502 . S
C1124 H1110 0.960 . S
C1124 H1111 0.961 . S
C1124 H1112 0.959 . S
C1124 C1122 1.561 . S
C1125 C1122 1.526 . S
C1125 C1126 1.396 . S
C1125 C1130 1.390 . S
C1126 C1120 1.465 . S
C1126 C1125 1.396 . S
C1126 C1127 1.399 . S
C1127 H1113 0.929 . S
C1127 C1126 1.399 . S
C1127 C1128 1.385 . S
C1128 H1114 0.931 . S
C1128 C1127 1.385 . S
C1128 C1129 1.389 . S
C1129 C1128 1.389 . S
C1129 C1130 1.387 . S
C1130 H1115 0.930 . S
C1130 C1125 1.390 . S
C1130 C1129 1.387 . S
H1131 C1143 0.930 . S
H1132 C1145 0.930 . S
H1133 C1146 0.930 . S
H1134 C1150 0.959 . S
H1135 C1150 0.959 . S
H1136 C1150 0.961 . S
H1137 C1151 0.960 . S
H1138 C1151 0.961 . S
H1139 C1151 0.959 . S
H1140 C1154 0.929 . S
H1141 C1155 0.931 . S
H1142 C1157 0.930 . S
C1143 H1131 0.930 . S
C1143 C1144 1.399 . S
C1143 C1148 1.399 . S
C1144 C1143 1.399 . S
C1144 C1145 1.376 . S
C1145 H1132 0.930 . S
C1145 C1144 1.376 . S
C1145 C1146 1.388 . S
C1146 H1133 0.930 . S
C1146 C1145 1.388 . S
C1146 C1147 1.390 . S
C1147 C1146 1.390 . S
C1147 C1148 1.394 . S
C1147 C1153 1.465 . S
C1148 C1143 1.399 . S
C1148 C1147 1.394 . S
C1148 C1149 1.516 . S
C1149 C1148 1.516 . S
C1149 C1150 1.502 . S
C1149 C1151 1.561 . S
C1149 C1152 1.526 . S
C1150 H1134 0.959 . S
C1150 H1135 0.959 . S
C1150 H1136 0.961 . S
C1150 C1149 1.502 . S
C1151 H1137 0.960 . S
C1151 H1138 0.961 . S
C1151 H1139 0.959 . S
C1151 C1149 1.561 . S
C1152 C1149 1.526 . S
C1152 C1153 1.396 . S
C1152 C1157 1.390 . S
C1153 C1147 1.465 . S
C1153 C1152 1.396 . S
C1153 C1154 1.399 . S
C1154 H1140 0.929 . S
C1154 C1153 1.399 . S
C1154 C1155 1.385 . S
C1155 H1141 0.931 . S
C1155 C1154 1.385 . S
C1155 C1156 1.389 . S
C1156 C1155 1.389 . S
C1156 C1157 1.387 . S
C1157 H1142 0.930 . S
C1157 C1152 1.390 . S
C1157 C1156 1.387 . S
H1158 C1170 0.930 . S
H1159 C1172 0.930 . S
H1160 C1173 0.930 . S
H1161 C1177 0.959 . S
H1162 C1177 0.959 . S
H1163 C1177 0.961 . S
H1164 C1178 0.960 . S
H1165 C1178 0.961 . S
H1166 C1178 0.959 . S
H1167 C1181 0.929 . S
H1168 C1182 0.931 . S
H1169 C1184 0.930 . S
C1170 H1158 0.930 . S
C1170 C1171 1.399 . S
C1170 C1175 1.399 . S
C1171 C1170 1.399 . S
C1171 C1172 1.376 . S
C1172 H1159 0.930 . S
C1172 C1171 1.376 . S
C1172 C1173 1.388 . S
C1173 H1160 0.930 . S
C1173 C1172 1.388 . S
C1173 C1174 1.390 . S
C1174 C1173 1.390 . S
C1174 C1175 1.394 . S
C1174 C1180 1.465 . S
C1175 C1170 1.399 . S
C1175 C1174 1.394 . S
C1175 C1176 1.516 . S
C1176 C1175 1.516 . S
C1176 C1177 1.502 . S
C1176 C1178 1.561 . S
C1176 C1179 1.526 . S
C1177 H1161 0.959 . S
C1177 H1162 0.959 . S
C1177 H1163 0.961 . S
C1177 C1176 1.502 . S
C1178 H1164 0.960 . S
C1178 H1165 0.961 . S
C1178 H1166 0.959 . S
C1178 C1176 1.561 . S
C1179 C1176 1.526 . S
C1179 C1180 1.396 . S
C1179 C1184 1.390 . S
C1180 C1174 1.465 . S
C1180 C1179 1.396 . S
C1180 C1181 1.399 . S
C1181 H1167 0.929 . S
C1181 C1180 1.399 . S
C1181 C1182 1.385 . S
C1182 H1168 0.931 . S
C1182 C1181 1.385 . S
C1182 C1183 1.389 . S
C1183 C1182 1.389 . S
C1183 C1184 1.387 . S
C1184 H1169 0.930 . S
C1184 C1179 1.390 . S
C1184 C1183 1.387 . S
H1185 C1197 0.930 . S
H1186 C1199 0.930 . S
H1187 C1200 0.930 . S
H1188 C1204 0.959 . S
H1189 C1204 0.959 . S
H1190 C1204 0.961 . S
H1191 C1205 0.960 . S
H1192 C1205 0.961 . S
H1193 C1205 0.959 . S
H1194 C1208 0.929 . S
H1195 C1209 0.931 . S
H1196 C1211 0.930 . S
C1197 H1185 0.930 . S
C1197 C1198 1.399 . S
C1197 C1202 1.399 . S
C1198 C1197 1.399 . S
C1198 C1199 1.376 . S
C1199 H1186 0.930 . S
C1199 C1198 1.376 . S
C1199 C1200 1.388 . S
C1200 H1187 0.930 . S
C1200 C1199 1.388 . S
C1200 C1201 1.390 . S
C1201 C1200 1.390 . S
C1201 C1202 1.394 . S
C1201 C1207 1.465 . S
C1202 C1197 1.399 . S
C1202 C1201 1.394 . S
C1202 C1203 1.516 . S
C1203 C1202 1.516 . S
C1203 C1204 1.502 . S
C1203 C1205 1.561 . S
C1203 C1206 1.526 . S
C1204 H1188 0.959 . S
C1204 H1189 0.959 . S
C1204 H1190 0.961 . S
C1204 C1203 1.502 . S
C1205 H1191 0.960 . S
C1205 H1192 0.961 . S
C1205 H1193 0.959 . S
C1205 C1203 1.561 . S
C1206 C1203 1.526 . S
C1206 C1207 1.396 . S
C1206 C1211 1.390 . S
C1207 C1201 1.465 . S
C1207 C1206 1.396 . S
C1207 C1208 1.399 . S
C1208 H1194 0.929 . S
C1208 C1207 1.399 . S
C1208 C1209 1.385 . S
C1209 H1195 0.931 . S
C1209 C1208 1.385 . S
C1209 C1210 1.389 . S
C1210 C1209 1.389 . S
C1210 C1211 1.387 . S
C1211 H1196 0.930 . S
C1211 C1206 1.390 . S
C1211 C1210 1.387 . S
C253 C49 1.108 1_455 S
C265 C2 1.060 . S
C280 C72 1.054 1_565 S
C292 C24 1.116 . S
C307 C42 1.046 . S
C319 C89 1.080 . S
C334 C64 1.088 . S
C346 C112 1.026 1_455 S
C361 C9 1.137 1_565 S
C373 C82 1.092 . S
C388 C32 1.115 . S
C400 C104 1.150 . S
C415 C212 1.118 1_545 S
C427 C124 1.151 . S
C442 C142 1.153 . S
C454 C229 1.086 . S
C469 C164 1.084 . S
C481 C132 1.023 1_655 S
C496 C182 1.150 . S
C508 C149 1.074 1_545 S
C523 C204 1.098 . S
C535 C172 1.116 . S
C550 C189 1.013 1_655 S
C562 C222 1.103 . S
C577 C78 1.748 . S
C589 C19 1.741 . S
C604 C38 1.763 . S
C616 C99 1.759 . S
C631 C59 1.750 . S
C643 C118 1.743 . S
C658 C138 1.754 . S
C670 C199 1.760 . S
C685 C159 1.721 . S
C697 C218 1.726 . S
C712 C178 1.720 . S
C724 C239 1.723 . S
C739 C158 1.914 . S
C751 C18 1.970 . S
C766 C39 1.924 . S
C778 C179 1.930 . S
C793 C198 1.981 . S
C805 C58 1.935 . S
C820 C79 1.944 . S
C832 C219 1.916 . S
C847 C98 1.950 . S
C859 C238 1.971 . S
C874 C139 1.984 . S
C886 C119 1.942 . S
C901 C52 1.378 . S
C913 C4 1.300 . S
C928 C22 1.344 . S
C940 C69 1.392 . S
C955 C44 1.286 . S
C967 C92 1.418 . S
C982 C62 1.237 . S
C994 C109 1.416 . S
C1009 C12 1.382 . S
C1021 C84 1.310 . S
C1036 C29 1.424 . S
C1048 C102 1.300 . S
C1063 C209 1.424 . S
C1075 C122 1.299 . S
C1090 C144 1.232 . S
C1102 C232 1.362 . S
C1117 C162 1.333 . S
C1129 C129 1.378 . S
C1144 C152 1.395 . S
C1156 C184 1.329 . S
C1171 C202 1.340 . S
C1183 C169 1.408 . S
C1198 C224 1.247 . S
C1210 C192 1.363 . S
