# Generated by pormake.
# Topology zfb, (5)-cn, num edge types: 1
# Building blocks:
#     Node 0, Type 0, BuildingBlock: BEQFEK_clean_sbu_0, # of connection points: 5
#     Node 1, Type 0, BuildingBlock: BEQFEK_clean_sbu_0, # of connection points: 5
#     Node 2, Type 0, BuildingBlock: BEQFEK_clean_sbu_0, # of connection points: 5
#     Node 3, Type 0, BuildingBlock: BEQFEK_clean_sbu_0, # of connection points: 5
#     Node 4, Type 0, BuildingBlock: BEQFEK_clean_sbu_0, # of connection points: 5
#     Node 5, Type 0, BuildingBlock: BEQFEK_clean_sbu_0, # of connection points: 5
#     Node 6, Type 0, BuildingBlock: BEQFEK_clean_sbu_0, # of connection points: 5
#     Node 7, Type 0, BuildingBlock: BEQFEK_clean_sbu_0, # of connection points: 5
#     Edge 8, Type (0, 0), BuildingBlock: OJICUG_clean_linker_0, # of connection points: 2
#     Edge 9, Type (0, 0), BuildingBlock: OJICUG_clean_linker_0, # of connection points: 2
#     Edge 10, Type (0, 0), BuildingBlock: OJICUG_clean_linker_0, # of connection points: 2
#     Edge 11, Type (0, 0), BuildingBlock: OJICUG_clean_linker_0, # of connection points: 2
#     Edge 12, Type (0, 0), BuildingBlock: OJICUG_clean_linker_0, # of connection points: 2
#     Edge 13, Type (0, 0), BuildingBlock: OJICUG_clean_linker_0, # of connection points: 2
#     Edge 14, Type (0, 0), BuildingBlock: OJICUG_clean_linker_0, # of connection points: 2
#     Edge 15, Type (0, 0), BuildingBlock: OJICUG_clean_linker_0, # of connection points: 2
#     Edge 16, Type (0, 0), BuildingBlock: OJICUG_clean_linker_0, # of connection points: 2
#     Edge 17, Type (0, 0), BuildingBlock: OJICUG_clean_linker_0, # of connection points: 2
#     Edge 18, Type (0, 0), BuildingBlock: OJICUG_clean_linker_0, # of connection points: 2
#     Edge 19, Type (0, 0), BuildingBlock: OJICUG_clean_linker_0, # of connection points: 2
#     Edge 20, Type (0, 0), BuildingBlock: OJICUG_clean_linker_0, # of connection points: 2
#     Edge 21, Type (0, 0), BuildingBlock: OJICUG_clean_linker_0, # of connection points: 2
#     Edge 22, Type (0, 0), BuildingBlock: OJICUG_clean_linker_0, # of connection points: 2
#     Edge 23, Type (0, 0), BuildingBlock: OJICUG_clean_linker_0, # of connection points: 2
#     Edge 24, Type (0, 0), BuildingBlock: OJICUG_clean_linker_0, # of connection points: 2
#     Edge 25, Type (0, 0), BuildingBlock: OJICUG_clean_linker_0, # of connection points: 2
#     Edge 26, Type (0, 0), BuildingBlock: OJICUG_clean_linker_0, # of connection points: 2
#     Edge 27, Type (0, 0), BuildingBlock: OJICUG_clean_linker_0, # of connection points: 2
# Relax obj value: 0.107
# Max RMSD: 0.133
# Mean RMSD: 0.133
data_MOF--net-zfb--node1-BEQFEK_clean_sbu_0--edge1-OJICUG_clean_linker_0
_symmetry_space_group_name_H-M    P1
_symmetry_Int_Tables_number       1
_symmetry_cell_setting            triclinic
loop_
_symmetry_equiv_pos_as_xyz
'x, y, z'
_cell_length_a     22.94094
_cell_length_b     22.93249
_cell_length_c     30.612631
_cell_angle_alpha  90.00449
_cell_angle_beta   90.05348
_cell_angle_gamma 90.024514
loop_
_atom_site_label
_atom_site_type_symbol
_atom_site_fract_x
_atom_site_fract_y
_atom_site_fract_z
_atom_type_partial_charge
Co0 Co 0.19729 0.3767 0.10967 0.0
Co1 Co 0.19674 0.38855 0.00705 0.0
C2 C 0.09439 0.42342 0.06075 0.0
O3 O 0.118 0.4068 0.09643 0.0
O4 O 0.11999 0.41795 0.02405 0.0
C5 C 0.16185 0.33455 0.19535 0.0
O6 O 0.11665 0.31387 0.17399 0.0
C7 C 0.16476 0.38541 0.91408 0.0
C8 C 0.25142 0.37444 0.88361 0.0
C9 C 0.19249 0.378 0.87431 0.0
N10 N 0.20547 0.38511 0.9456 0.0
N11 N 0.25722 0.3795 0.92715 0.0
C12 C 0.10128 0.3955 0.92222 0.0
H13 H 0.08415 0.3615 0.94456 0.0
H14 H 0.0756 0.3961 0.89152 0.0
H15 H 0.09612 0.43827 0.93864 0.0
C16 C 0.21624 0.25085 0.0836 0.0
N17 N 0.21266 0.30849 0.0744 0.0
N18 N 0.20874 0.3145 0.03176 0.0
C19 C 0.20716 0.26162 0.0127 0.0
C20 C 0.21261 0.21912 0.04467 0.0
C21 C 0.22235 0.22673 0.12874 0.0
H22 H 0.24585 0.25812 0.14994 0.0
H23 H 0.17838 0.21902 0.14263 0.0
H24 H 0.24623 0.18464 0.12818 0.0
O25 O 0.24668 0.44687 0.09701 0.0
O26 O 0.25241 0.44809 0.02484 0.0
H27 H 0.22812 0.26161 0.94456 0.0
H28 H 0.17496 0.20707 0.9597 0.0
C29 C 0.19026 0.25214 0.96592 0.0
H30 H 0.15421 0.28195 0.95724 0.0
H31 H 0.29639 0.37766 0.94445 0.0
O32 O 0.20177 0.36091 0.17422 0.0
C33 C 0.26403 0.47054 0.06162 0.0
Co34 Co 0.61813 0.19995 0.60813 0.0
Co35 Co 0.60637 0.19632 0.50486 0.0
C36 C 0.57329 0.09512 0.56014 0.0
O37 O 0.58892 0.12041 0.59541 0.0
O38 O 0.57875 0.11924 0.52284 0.0
C39 C 0.6596 0.16541 0.69452 0.0
O40 O 0.68029 0.11989 0.67359 0.0
C41 C 0.61503 0.16667 0.41034 0.0
C42 C 0.62077 0.25575 0.38304 0.0
C43 C 0.62292 0.19737 0.37172 0.0
N44 N 0.60942 0.20546 0.44308 0.0
N45 N 0.61144 0.25849 0.42628 0.0
C46 C 0.61921 0.10206 0.4166 0.0
H47 H 0.62963 0.09128 0.45101 0.0
H48 H 0.65298 0.08334 0.39478 0.0
H49 H 0.57672 0.08193 0.40806 0.0
C50 C 0.74349 0.21982 0.58187 0.0
N51 N 0.68595 0.21546 0.57257 0.0
N52 N 0.68004 0.21111 0.52991 0.0
C53 C 0.73299 0.21065 0.51097 0.0
C54 C 0.77528 0.21669 0.54303 0.0
C55 C 0.76758 0.22548 0.62706 0.0
H56 H 0.77466 0.18135 0.6409 0.0
H57 H 0.80997 0.24884 0.62663 0.0
H58 H 0.73641 0.24925 0.64823 0.0
O59 O 0.54758 0.24841 0.59493 0.0
O60 O 0.54514 0.25033 0.5226 0.0
H61 H 0.73011 0.23092 0.44272 0.0
H62 H 0.78885 0.18226 0.45744 0.0
C63 C 0.74296 0.19417 0.4642 0.0
H64 H 0.71595 0.15576 0.4562 0.0
H65 H 0.60916 0.29667 0.44474 0.0
O66 O 0.63367 0.20521 0.6729 0.0
C67 C 0.52324 0.26365 0.55923 0.0
Co68 Co 0.79394 0.62195 0.10875 0.0
Co69 Co 0.78592 0.60451 0.00678 0.0
C70 C 0.89123 0.5706 0.06122 0.0
O71 O 0.87346 0.5941 0.09654 0.0
O72 O 0.86086 0.5718 0.02636 0.0
C73 C 0.82848 0.66411 0.19512 0.0
O74 O 0.87506 0.68271 0.17444 0.0
C75 C 0.82358 0.61111 0.91459 0.0
C76 C 0.74071 0.59098 0.88099 0.0
C77 C 0.79862 0.60502 0.87317 0.0
N78 N 0.78192 0.60182 0.9447 0.0
N79 N 0.7328 0.58904 0.92438 0.0
C80 C 0.88454 0.62862 0.9262 0.0
H81 H 0.88749 0.64097 0.96117 0.0
H82 H 0.89874 0.66606 0.90586 0.0
H83 H 0.91437 0.59136 0.92038 0.0
C84 C 0.77511 0.74643 0.07961 0.0
N85 N 0.77705 0.68843 0.07173 0.0
N86 N 0.77505 0.68035 0.02915 0.0
C87 C 0.77195 0.7323 0.0087 0.0
C88 C 0.77233 0.77626 0.03991 0.0
C89 C 0.77691 0.77286 0.12423 0.0
H90 H 0.75348 0.74456 0.14774 0.0
H91 H 0.82296 0.77684 0.1349 0.0
H92 H 0.75692 0.81693 0.12422 0.0
O93 O 0.74829 0.54858 0.09631 0.0
O94 O 0.72606 0.55023 0.02601 0.0
H95 H 0.74255 0.71262 0.94388 0.0
H96 H 0.77265 0.785 0.94914 0.0
C97 C 0.77653 0.7393 0.96015 0.0
H98 H 0.81976 0.72367 0.9495 0.0
H99 H 0.69357 0.5799 0.94019 0.0
O100 O 0.78813 0.63909 0.17339 0.0
C101 C 0.72415 0.52546 0.06295 0.0
Co102 Co 0.3737 0.79633 0.61205 0.0
Co103 Co 0.38986 0.78652 0.51019 0.0
C104 C 0.4264 0.89191 0.5637 0.0
O105 O 0.40202 0.87565 0.5991 0.0
O106 O 0.42462 0.86074 0.52928 0.0
C107 C 0.33318 0.83161 0.69828 0.0
O108 O 0.31424 0.87787 0.67731 0.0
C109 C 0.38404 0.82369 0.41772 0.0
C110 C 0.38798 0.73817 0.38453 0.0
C111 C 0.38197 0.79736 0.377 0.0
N112 N 0.38957 0.78168 0.44811 0.0
N113 N 0.3929 0.73082 0.42795 0.0
C114 C 0.38209 0.88768 0.42749 0.0
H115 H 0.41481 0.89847 0.45266 0.0
H116 H 0.33865 0.89963 0.44053 0.0
H117 H 0.39111 0.91403 0.39786 0.0
C118 C 0.2487 0.77734 0.58408 0.0
N119 N 0.3066 0.77937 0.57583 0.0
N120 N 0.31415 0.77762 0.53322 0.0
C121 C 0.26193 0.77529 0.5131 0.0
C122 C 0.21837 0.77503 0.54453 0.0
C123 C 0.22292 0.77832 0.62891 0.0
H124 H 0.21822 0.82423 0.63976 0.0
H125 H 0.17926 0.75745 0.62915 0.0
H126 H 0.25199 0.7553 0.65214 0.0
O127 O 0.44662 0.75087 0.59898 0.0
O128 O 0.44347 0.7257 0.52929 0.0
H129 H 0.27322 0.74302 0.448 0.0
H130 H 0.20804 0.78639 0.45478 0.0
C131 C 0.25413 0.78142 0.46471 0.0
H132 H 0.27721 0.82091 0.45361 0.0
H133 H 0.39704 0.69087 0.44397 0.0
O134 O 0.35784 0.79096 0.67674 0.0
C135 C 0.46924 0.72571 0.56592 0.0
Co136 Co 0.69792 0.12139 0.97058 0.0
Co137 Co 0.70799 0.10508 0.07266 0.0
C138 C 0.60152 0.07039 0.0208 0.0
O139 O 0.61899 0.09312 0.98506 0.0
O140 O 0.63221 0.07208 0.05553 0.0
C141 C 0.66127 0.16247 0.88427 0.0
O142 O 0.6151 0.18164 0.90517 0.0
C143 C 0.67838 0.1099 0.16697 0.0
C144 C 0.76708 0.11416 0.19511 0.0
C145 C 0.70856 0.11599 0.20602 0.0
N146 N 0.71755 0.1056 0.13443 0.0
N147 N 0.77036 0.1067 0.15167 0.0
C148 C 0.61393 0.11482 0.1602 0.0
H149 H 0.60384 0.12715 0.12601 0.0
H150 H 0.595 0.14753 0.18282 0.0
H151 H 0.59342 0.072 0.16721 0.0
C152 C 0.7172 0.24617 0.99838 0.0
N153 N 0.7158 0.18824 0.00668 0.0
N154 N 0.71683 0.18072 0.04932 0.0
C155 C 0.71743 0.23303 0.06938 0.0
C156 C 0.718 0.27657 0.03792 0.0
C157 C 0.71645 0.27189 0.95351 0.0
H158 H 0.73958 0.24279 0.93039 0.0
H159 H 0.67061 0.27662 0.94251 0.0
H160 H 0.73731 0.31557 0.95333 0.0
O161 O 0.74391 0.04859 0.98219 0.0
O162 O 0.76666 0.0498 0.05238 0.0
H163 H 0.74642 0.22511 0.13563 0.0
H164 H 0.69881 0.28669 0.12658 0.0
C165 C 0.70772 0.24088 0.11742 0.0
H166 H 0.66938 0.21499 0.12737 0.0
H167 H 0.80875 0.10509 0.13345 0.0
O168 O 0.70182 0.13765 0.90586 0.0
C169 C 0.76815 0.02523 0.01534 0.0
Co170 Co 0.87235 0.70024 0.47127 0.0
Co171 Co 0.8887 0.70189 0.57375 0.0
C172 C 0.91888 0.59834 0.51671 0.0
O173 O 0.89862 0.6197 0.48142 0.0
O174 O 0.91739 0.62632 0.55261 0.0
C175 C 0.83031 0.66795 0.38484 0.0
O176 O 0.81122 0.62149 0.40547 0.0
C177 C 0.8769 0.65873 0.66394 0.0
C178 C 0.90527 0.73574 0.70176 0.0
C179 C 0.88558 0.67905 0.70597 0.0
N180 N 0.89092 0.70153 0.63587 0.0
N181 N 0.90861 0.74718 0.65871 0.0
C182 C 0.85646 0.59927 0.65084 0.0
H183 H 0.84427 0.59826 0.61577 0.0
H184 H 0.81872 0.58581 0.67112 0.0
H185 H 0.89207 0.56748 0.65671 0.0
C186 C 0.74807 0.72052 0.50047 0.0
N187 N 0.80595 0.71692 0.50852 0.0
N188 N 0.81377 0.71737 0.55118 0.0
C189 C 0.76181 0.72148 0.57146 0.0
C190 C 0.71811 0.72301 0.54008 0.0
C191 C 0.72178 0.72007 0.45577 0.0
H192 H 0.75042 0.74373 0.43263 0.0
H193 H 0.71734 0.67431 0.44452 0.0
H194 H 0.67794 0.74053 0.45595 0.0
O195 O 0.94609 0.74472 0.48499 0.0
O196 O 0.94615 0.75974 0.55647 0.0
H197 H 0.78472 0.74583 0.63692 0.0
H198 H 0.70945 0.72502 0.63107 0.0
C199 C 0.75429 0.7159 0.61993 0.0
H200 H 0.7644 0.6706 0.62963 0.0
H201 H 0.922 0.78656 0.64491 0.0
O202 O 0.85556 0.70804 0.40668 0.0
C203 C 0.96987 0.76548 0.51938 0.0
Co204 Co 0.2951 0.87656 0.97411 0.0
Co205 Co 0.29655 0.8883 0.07706 0.0
C206 C 0.39846 0.923 0.02292 0.0
O207 O 0.3744 0.9066 0.98734 0.0
O208 O 0.3733 0.91741 0.05979 0.0
C209 C 0.33011 0.8345 0.88799 0.0
O210 O 0.3753 0.81347 0.90915 0.0
C211 C 0.32904 0.88428 0.17012 0.0
C212 C 0.2426 0.87203 0.20065 0.0
C213 C 0.30156 0.87566 0.2099 0.0
N214 N 0.28819 0.8844 0.13867 0.0
N215 N 0.23657 0.87807 0.1572 0.0
C216 C 0.39242 0.89495 0.16193 0.0
H217 H 0.4101 0.86027 0.14044 0.0
H218 H 0.41789 0.89708 0.19269 0.0
H219 H 0.39717 0.93709 0.14457 0.0
C220 C 0.2761 0.75079 1.00025 0.0
N221 N 0.27983 0.80841 0.00947 0.0
N222 N 0.2841 0.81438 0.05211 0.0
C223 C 0.28578 0.76148 0.07111 0.0
C224 C 0.27997 0.71904 0.03914 0.0
C225 C 0.2698 0.72667 0.95512 0.0
H226 H 0.24628 0.7581 0.93397 0.0
H227 H 0.31371 0.71893 0.94115 0.0
H228 H 0.24587 0.6846 0.95572 0.0
O229 O 0.24582 0.94669 0.9871 0.0
O230 O 0.24118 0.94826 0.05936 0.0
H231 H 0.2657 0.76116 0.1394 0.0
H232 H 0.31868 0.70678 0.12376 0.0
C233 C 0.30329 0.75186 0.11775 0.0
H234 H 0.33946 0.78165 0.1262 0.0
H235 H 0.19733 0.87626 0.13998 0.0
O236 O 0.29045 0.86094 0.90936 0.0
C237 C 0.22905 0.97053 0.02259 0.0
Co238 Co 0.11754 0.29625 0.47072 0.0
Co239 Co 0.10447 0.29356 0.57316 0.0
C240 C 0.06604 0.3954 0.51803 0.0
O241 O 0.08749 0.37552 0.4826 0.0
O242 O 0.07009 0.36756 0.55391 0.0
C243 C 0.15834 0.33074 0.38486 0.0
O244 O 0.17797 0.37655 0.40604 0.0
C245 C 0.11066 0.32951 0.66609 0.0
C246 C 0.11111 0.24298 0.69795 0.0
C247 C 0.11436 0.30215 0.70633 0.0
N248 N 0.10669 0.28813 0.63509 0.0
N249 N 0.10608 0.23663 0.65447 0.0
C250 C 0.10951 0.39378 0.65747 0.0
H251 H 0.0783 0.40352 0.63103 0.0
H252 H 0.15319 0.40875 0.64682 0.0
H253 H 0.09676 0.41838 0.68718 0.0
C254 C 0.24335 0.27823 0.49731 0.0
N255 N 0.18569 0.28155 0.50633 0.0
N256 N 0.17934 0.2836 0.54903 0.0
C257 C 0.23208 0.28333 0.56838 0.0
C258 C 0.27479 0.27957 0.53643 0.0
C259 C 0.2678 0.27399 0.45217 0.0
H260 H 0.23703 0.25039 0.43053 0.0
H261 H 0.27447 0.31855 0.43899 0.0
H262 H 0.31039 0.25105 0.45242 0.0
O263 O 0.04649 0.24849 0.4846 0.0
O264 O 0.04899 0.23345 0.55597 0.0
H265 H 0.22694 0.25709 0.63539 0.0
H266 H 0.28712 0.30585 0.62405 0.0
C267 C 0.24125 0.29534 0.616 0.0
H268 H 0.2148 0.33341 0.6255 0.0
H269 H 0.10352 0.19698 0.63785 0.0
O270 O 0.13298 0.29034 0.4062 0.0
C271 C 0.02419 0.2272 0.51928 0.0
C272 C 0.24192 0.07098 0.99419 0.0
C273 C 0.21292 0.03298 0.02282 0.0
H274 H 0.26788 0.15858 0.98062 0.0
C275 C 0.18145 0.05681 0.05802 0.0
H276 H 0.2682 0.0541 0.96766 0.0
C277 C 0.18032 0.11726 0.06498 0.0
C278 C 0.21189 0.15489 0.03755 0.0
H279 H 0.15961 0.02848 0.08113 0.0
H280 H 0.15542 0.13433 0.09212 0.0
C281 C 0.2423 0.13096 1.00196 0.0
C282 C 0.93683 0.18147 0.55486 0.0
C283 C 0.96103 0.21387 0.52024 0.0
H284 H 0.85905 0.15613 0.58899 0.0
C285 C 0.92344 0.24566 0.49293 0.0
H286 H 0.9648 0.15747 0.57701 0.0
C287 C 0.86367 0.24741 0.50127 0.0
C288 C 0.83944 0.21572 0.53609 0.0
H289 H 0.94056 0.27266 0.46688 0.0
H290 H 0.83635 0.27455 0.48076 0.0
C291 C 0.87651 0.18188 0.56241 0.0
C292 C 0.73848 0.92552 0.99321 0.0
C293 C 0.77838 0.96155 0.01531 0.0
H294 H 0.70249 0.83996 0.98627 0.0
C295 C 0.81741 0.93593 0.04513 0.0
H296 H 0.70623 0.94403 0.97136 0.0
C297 C 0.81614 0.87563 0.05285 0.0
C298 C 0.77473 0.84015 0.03182 0.0
H299 H 0.84759 0.96281 0.06348 0.0
H300 H 0.84699 0.85693 0.07567 0.0
C301 C 0.73591 0.86587 1.00207 0.0
C302 C 0.07017 0.74023 0.49621 0.0
C303 C 0.03313 0.77768 0.51956 0.0
H304 H 0.15663 0.70712 0.48825 0.0
C305 C 0.0576 0.81545 0.55083 0.0
H306 H 0.05251 0.70896 0.47318 0.0
C307 C 0.11783 0.81528 0.55878 0.0
C308 C 0.15442 0.77615 0.53652 0.0
H309 H 0.02987 0.84369 0.57012 0.0
H310 H 0.1356 0.84523 0.58267 0.0
C311 C 0.1298 0.73866 0.50524 0.0
C312 C 0.74918 0.42512 0.08708 0.0
C313 C 0.71257 0.46194 0.0627 0.0
H314 H 0.78228 0.3388 0.09616 0.0
C315 C 0.67609 0.43701 0.03074 0.0
H316 H 0.77929 0.44293 0.11088 0.0
C317 C 0.67715 0.37677 0.02281 0.0
C318 C 0.71569 0.34053 0.04596 0.0
H319 H 0.6483 0.46443 0.0108 0.0
H320 H 0.64832 0.35875 0.99826 0.0
C321 C 0.75146 0.36544 0.07824 0.0
C322 C 0.55863 0.67753 0.53527 0.0
C323 C 0.53309 0.71655 0.56511 0.0
H324 H 0.63753 0.64826 0.50448 0.0
C325 C 0.56904 0.75703 0.5867 0.0
H326 H 0.53179 0.64693 0.51729 0.0
C327 C 0.62855 0.75993 0.57752 0.0
C328 C 0.65423 0.7209 0.54796 0.0
H329 H 0.55058 0.78932 0.60851 0.0
H330 H 0.65443 0.7936 0.59305 0.0
C331 C 0.61882 0.67919 0.52722 0.0
C332 C 0.31144 0.55682 0.02605 0.0
C333 C 0.28006 0.53302 0.06132 0.0
H334 H 0.33715 0.63429 0.99171 0.0
C335 C 0.25099 0.57104 0.08989 0.0
H336 H 0.33333 0.52847 1.00299 0.0
C337 C 0.25043 0.63097 0.08197 0.0
C338 C 0.28071 0.65484 0.04629 0.0
H339 H 0.22478 0.55419 0.11648 0.0
H340 H 0.22486 0.65862 0.10329 0.0
C341 C 0.31235 0.61723 0.01892 0.0
C342 C 0.37649 0.31379 0.51781 0.0
C343 C 0.33897 0.27975 0.54364 0.0
H344 H 0.46523 0.33651 0.50305 0.0
C345 C 0.36297 0.24638 0.5777 0.0
H346 H 0.35933 0.34068 0.49174 0.0
C347 C 0.42282 0.2469 0.58588 0.0
C348 C 0.46068 0.27886 0.55898 0.0
H349 H 0.33546 0.21865 0.59758 0.0
H350 H 0.43984 0.21862 0.61122 0.0
C351 C 0.43689 0.31264 0.52498 0.0
C352 C 0.00974 0.46899 0.02314 0.0
C353 C 0.03986 0.4573 0.06208 0.0
H354 H 0.94064 0.51507 0.99208 0.0
C355 C 0.0213 0.48399 0.10099 0.0
H356 H 0.02268 0.44894 0.99269 0.0
C357 C 0.97403 0.52241 0.1007 0.0
C358 C 0.94448 0.53462 0.06151 0.0
H359 H 0.04409 0.47636 0.13146 0.0
H360 H 0.96044 0.54212 0.13119 0.0
C361 C 0.96281 0.50731 0.0228 0.0
C362 C 0.4946 0.95916 0.52529 0.0
C363 C 0.46352 0.94446 0.56332 0.0
H364 H 0.55451 0.01747 0.49476 0.0
C365 C 0.47235 0.97746 0.60143 0.0
H366 H 0.49039 0.93385 0.49566 0.0
C367 C 0.51062 0.02486 0.60114 0.0
C368 C 0.54026 0.04028 0.56265 0.0
H369 H 0.44985 0.9667 0.63146 0.0
H370 H 0.5155 0.05048 0.63065 0.0
C371 C 0.53222 0.00667 0.52489 0.0
C372 C 0.48338 0.96899 0.06001 0.0
C373 C 0.45294 0.95695 0.02126 0.0
H374 H 0.55276 0.0154 0.09052 0.0
C375 C 0.47112 0.98341 0.98216 0.0
H376 H 0.47071 0.94915 0.09061 0.0
C377 C 0.51831 0.02192 0.98206 0.0
C378 C 0.54822 0.03445 0.02105 0.0
H379 H 0.44807 0.97552 0.95182 0.0
H380 H 0.53158 0.04141 0.95141 0.0
C381 C 0.53028 0.0074 0.05996 0.0
C382 C 0.97831 0.5241 0.4768 0.0
C383 C 0.95206 0.54355 0.51562 0.0
H384 H 0.03656 0.46278 0.44718 0.0
C385 C 0.96377 0.51424 0.55482 0.0
H386 H 0.97058 0.54645 0.44616 0.0
C387 C 0.00166 0.46705 0.55549 0.0
C388 C 0.02921 0.44814 0.51703 0.0
H389 H 0.94417 0.52823 0.58525 0.0
H390 H 0.00879 0.44525 0.58633 0.0
C391 C 0.01679 0.47685 0.47752 0.0
C392 C 0.20172 0.36648 0.26808 0.0
C393 C 0.16437 0.33021 0.24378 0.0
H394 H 0.22884 0.39535 0.33153 0.0
C395 C 0.12737 0.29168 0.26637 0.0
H396 H 0.23073 0.39671 0.25176 0.0
C397 C 0.12685 0.29033 0.31215 0.0
C398 C 0.16262 0.32819 0.33644 0.0
H399 H 0.09825 0.26293 0.24867 0.0
H400 H 0.0971 0.26085 0.32849 0.0
C401 C 0.2005 0.36582 0.31385 0.0
C402 C 0.62651 0.2041 0.81281 0.0
C403 C 0.66419 0.16662 0.83579 0.0
H404 H 0.59616 0.23394 0.75039 0.0
C405 C 0.70261 0.13117 0.81182 0.0
H406 H 0.59653 0.2322 0.83023 0.0
C407 C 0.70182 0.13159 0.76601 0.0
C408 C 0.66332 0.16822 0.74303 0.0
H409 H 0.73215 0.10172 0.82842 0.0
H410 H 0.73102 0.10268 0.7486 0.0
C411 C 0.62643 0.20526 0.767 0.0
C412 C 0.86254 0.70841 0.31226 0.0
C413 C 0.82602 0.67112 0.33636 0.0
H414 H 0.89226 0.73512 0.24893 0.0
C415 C 0.78769 0.63414 0.31347 0.0
H416 H 0.89267 0.73735 0.32879 0.0
C417 C 0.78685 0.63344 0.26766 0.0
C418 C 0.82508 0.66895 0.24357 0.0
H419 H 0.75878 0.60502 0.33098 0.0
H420 H 0.75757 0.60361 0.25116 0.0
C421 C 0.86244 0.70695 0.26644 0.0
C422 C 0.29044 0.86724 0.81533 0.0
C423 C 0.32739 0.83043 0.8395 0.0
H424 H 0.26357 0.89673 0.75197 0.0
C425 C 0.36388 0.79162 0.81672 0.0
H426 H 0.26183 0.89771 0.83177 0.0
C427 C 0.3643 0.79049 0.77091 0.0
C428 C 0.32895 0.82885 0.74675 0.0
H429 H 0.3927 0.76247 0.8343 0.0
H430 H 0.39366 0.76076 0.75446 0.0
C431 C 0.29158 0.86679 0.76953 0.0
C432 C 0.88303 0.61889 0.82051 0.0
C433 C 0.82274 0.61812 0.82916 0.0
H434 H 0.95044 0.63997 0.77437 0.0
C435 C 0.78394 0.63186 0.79496 0.0
H436 H 0.91446 0.60553 0.8447 0.0
C437 C 0.80475 0.64897 0.7542 0.0
C438 C 0.86473 0.65307 0.74678 0.0
H439 H 0.73722 0.63134 0.79995 0.0
H440 H 0.77395 0.66135 0.72898 0.0
C441 C 0.90386 0.63742 0.77987 0.0
C442 C 0.39311 0.80279 0.29631 0.0
C443 C 0.36681 0.82353 0.33461 0.0
H444 H 0.39295 0.80323 0.22645 0.0
C445 C 0.32136 0.86436 0.33159 0.0
H446 H 0.42748 0.77046 0.29788 0.0
C447 C 0.30189 0.88337 0.29084 0.0
C448 C 0.32773 0.86209 0.25255 0.0
H449 H 0.29881 0.87938 0.36053 0.0
H450 H 0.26548 0.91337 0.28919 0.0
C451 C 0.37381 0.82201 0.25556 0.0
C452 C 0.17224 0.37037 0.75261 0.0
C453 C 0.12843 0.32785 0.74903 0.0
H454 H 0.22664 0.41996 0.79576 0.0
C455 C 0.10303 0.30497 0.78698 0.0
H456 H 0.194 0.38717 0.72388 0.0
C457 C 0.12182 0.32361 0.82799 0.0
C458 C 0.16651 0.36518 0.83155 0.0
H459 H 0.06989 0.2714 0.78491 0.0
H460 H 0.10351 0.30329 0.85682 0.0
C461 C 0.1913 0.38872 0.79363 0.0
C462 C 0.6375 0.10799 0.26813 0.0
C463 C 0.68578 0.13516 0.2486 0.0
H464 H 0.57957 0.10629 0.3233 0.0
C465 C 0.71279 0.18217 0.26979 0.0
H466 H 0.61628 0.0714 0.25238 0.0
C467 C 0.69158 0.20236 0.30955 0.0
C468 C 0.64367 0.17518 0.32939 0.0
H469 H 0.74987 0.20406 0.25523 0.0
H470 H 0.71322 0.2389 0.3251 0.0
C471 C 0.61682 0.12762 0.3086 0.0
loop_
_geom_bond_atom_site_label_1
_geom_bond_atom_site_label_2
_geom_bond_distance
_geom_bond_site_symmetry_2
_ccdc_geom_bond_type
Co0 O3 1.970 . S
Co0 N17 1.989 . S
Co0 O25 1.967 . S
Co0 O32 1.920 . S
Co1 O4 1.966 1_556 S
Co1 N10 2.022 . S
Co1 N18 1.993 1_556 S
Co1 O26 1.941 1_556 S
C2 O3 1.258 . S
C2 O4 1.263 . S
O3 Co0 1.970 . S
O3 C2 1.258 . S
O4 Co1 1.966 1_554 S
O4 C2 1.263 . S
C5 O6 1.235 . S
C5 O32 1.289 . S
O6 C5 1.235 . S
C7 C9 1.400 . S
C7 N10 1.351 . S
C7 C12 1.501 . S
C8 C9 1.387 . S
C8 N11 1.341 . S
C9 C7 1.400 . S
C9 C8 1.387 . S
N10 Co1 2.022 . S
N10 C7 1.351 . S
N10 N11 1.365 . S
N11 C8 1.341 . S
N11 N10 1.365 . S
N11 H31 0.862 . S
C12 C7 1.501 . S
C12 H13 0.961 . S
C12 H14 0.961 . S
C12 H15 0.960 . S
H13 C12 0.961 . S
H14 C12 0.961 . S
H15 C12 0.960 . S
C16 N17 1.342 . S
C16 C20 1.401 . S
C16 C21 1.499 . S
N17 Co0 1.989 . S
N17 C16 1.342 . S
N17 N18 1.388 . S
N18 Co1 1.993 1_554 S
N18 N17 1.388 . S
N18 C19 1.346 . S
C19 N18 1.346 . S
C19 C20 1.396 . S
C19 C29 1.510 1_554 S
C20 C16 1.401 . S
C20 C19 1.396 . S
C21 C16 1.499 . S
C21 H22 0.959 . S
C21 H23 0.960 . S
C21 H24 0.961 . S
H22 C21 0.959 . S
H23 C21 0.960 . S
H24 C21 0.961 . S
O25 Co0 1.967 . S
O25 C33 1.258 . S
O26 Co1 1.941 1_554 S
O26 C33 1.266 . S
H27 C29 0.959 . S
H28 C29 0.961 . S
C29 C19 1.510 1_556 S
C29 H27 0.959 . S
C29 H28 0.961 . S
C29 H30 0.960 . S
H30 C29 0.960 . S
H31 N11 0.862 . S
O32 Co0 1.920 . S
O32 C5 1.289 . S
C33 O25 1.258 . S
C33 O26 1.266 . S
Co34 O37 1.970 . S
Co34 N51 1.989 . S
Co34 O59 1.967 . S
Co34 O66 1.920 . S
Co35 O38 1.966 . S
Co35 N44 2.022 . S
Co35 N52 1.993 . S
Co35 O60 1.941 . S
C36 O37 1.258 . S
C36 O38 1.263 . S
O37 Co34 1.970 . S
O37 C36 1.258 . S
O38 Co35 1.966 . S
O38 C36 1.263 . S
C39 O40 1.235 . S
C39 O66 1.289 . S
O40 C39 1.235 . S
C41 C43 1.400 . S
C41 N44 1.351 . S
C41 C46 1.501 . S
C42 C43 1.387 . S
C42 N45 1.341 . S
C43 C41 1.400 . S
C43 C42 1.387 . S
N44 Co35 2.022 . S
N44 C41 1.351 . S
N44 N45 1.365 . S
N45 C42 1.341 . S
N45 N44 1.365 . S
N45 H65 0.862 . S
C46 C41 1.501 . S
C46 H47 0.961 . S
C46 H48 0.961 . S
C46 H49 0.960 . S
H47 C46 0.961 . S
H48 C46 0.961 . S
H49 C46 0.960 . S
C50 N51 1.342 . S
C50 C54 1.401 . S
C50 C55 1.499 . S
N51 Co34 1.989 . S
N51 C50 1.342 . S
N51 N52 1.388 . S
N52 Co35 1.993 . S
N52 N51 1.388 . S
N52 C53 1.346 . S
C53 N52 1.346 . S
C53 C54 1.396 . S
C53 C63 1.510 . S
C54 C50 1.401 . S
C54 C53 1.396 . S
C55 C50 1.499 . S
C55 H56 0.959 . S
C55 H57 0.960 . S
C55 H58 0.961 . S
H56 C55 0.959 . S
H57 C55 0.960 . S
H58 C55 0.961 . S
O59 Co34 1.967 . S
O59 C67 1.258 . S
O60 Co35 1.941 . S
O60 C67 1.266 . S
H61 C63 0.959 . S
H62 C63 0.961 . S
C63 C53 1.510 . S
C63 H61 0.959 . S
C63 H62 0.961 . S
C63 H64 0.960 . S
H64 C63 0.960 . S
H65 N45 0.862 . S
O66 Co34 1.920 . S
O66 C39 1.289 . S
C67 O59 1.258 . S
C67 O60 1.266 . S
Co68 O71 1.970 . S
Co68 N85 1.989 . S
Co68 O93 1.967 . S
Co68 O100 1.920 . S
Co69 O72 1.966 1_556 S
Co69 N78 2.022 . S
Co69 N86 1.993 1_556 S
Co69 O94 1.941 1_556 S
C70 O71 1.258 . S
C70 O72 1.263 . S
O71 Co68 1.970 . S
O71 C70 1.258 . S
O72 Co69 1.966 1_554 S
O72 C70 1.263 . S
C73 O74 1.235 . S
C73 O100 1.289 . S
O74 C73 1.235 . S
C75 C77 1.400 . S
C75 N78 1.351 . S
C75 C80 1.501 . S
C76 C77 1.387 . S
C76 N79 1.341 . S
C77 C75 1.400 . S
C77 C76 1.387 . S
N78 Co69 2.022 . S
N78 C75 1.351 . S
N78 N79 1.365 . S
N79 C76 1.341 . S
N79 N78 1.365 . S
N79 H99 0.862 . S
C80 C75 1.501 . S
C80 H81 0.961 . S
C80 H82 0.961 . S
C80 H83 0.960 . S
H81 C80 0.961 . S
H82 C80 0.961 . S
H83 C80 0.960 . S
C84 N85 1.342 . S
C84 C88 1.401 . S
C84 C89 1.499 . S
N85 Co68 1.989 . S
N85 C84 1.342 . S
N85 N86 1.388 . S
N86 Co69 1.993 1_554 S
N86 N85 1.388 . S
N86 C87 1.346 . S
C87 N86 1.346 . S
C87 C88 1.396 . S
C87 C97 1.510 1_554 S
C88 C84 1.401 . S
C88 C87 1.396 . S
C89 C84 1.499 . S
C89 H90 0.959 . S
C89 H91 0.960 . S
C89 H92 0.961 . S
H90 C89 0.959 . S
H91 C89 0.960 . S
H92 C89 0.961 . S
O93 Co68 1.967 . S
O93 C101 1.258 . S
O94 Co69 1.941 1_554 S
O94 C101 1.266 . S
H95 C97 0.959 . S
H96 C97 0.961 . S
C97 C87 1.510 1_556 S
C97 H95 0.959 . S
C97 H96 0.961 . S
C97 H98 0.960 . S
H98 C97 0.960 . S
H99 N79 0.862 . S
O100 Co68 1.920 . S
O100 C73 1.289 . S
C101 O93 1.258 . S
C101 O94 1.266 . S
Co102 O105 1.970 . S
Co102 N119 1.989 . S
Co102 O127 1.967 . S
Co102 O134 1.920 . S
Co103 O106 1.966 . S
Co103 N112 2.022 . S
Co103 N120 1.993 . S
Co103 O128 1.941 . S
C104 O105 1.258 . S
C104 O106 1.263 . S
O105 Co102 1.970 . S
O105 C104 1.258 . S
O106 Co103 1.966 . S
O106 C104 1.263 . S
C107 O108 1.235 . S
C107 O134 1.289 . S
O108 C107 1.235 . S
C109 C111 1.400 . S
C109 N112 1.351 . S
C109 C114 1.501 . S
C110 C111 1.387 . S
C110 N113 1.341 . S
C111 C109 1.400 . S
C111 C110 1.387 . S
N112 Co103 2.022 . S
N112 C109 1.351 . S
N112 N113 1.365 . S
N113 C110 1.341 . S
N113 N112 1.365 . S
N113 H133 0.862 . S
C114 C109 1.501 . S
C114 H115 0.961 . S
C114 H116 0.961 . S
C114 H117 0.960 . S
H115 C114 0.961 . S
H116 C114 0.961 . S
H117 C114 0.960 . S
C118 N119 1.342 . S
C118 C122 1.401 . S
C118 C123 1.499 . S
N119 Co102 1.989 . S
N119 C118 1.342 . S
N119 N120 1.388 . S
N120 Co103 1.993 . S
N120 N119 1.388 . S
N120 C121 1.346 . S
C121 N120 1.346 . S
C121 C122 1.396 . S
C121 C131 1.510 . S
C122 C118 1.401 . S
C122 C121 1.396 . S
C123 C118 1.499 . S
C123 H124 0.959 . S
C123 H125 0.960 . S
C123 H126 0.961 . S
H124 C123 0.959 . S
H125 C123 0.960 . S
H126 C123 0.961 . S
O127 Co102 1.967 . S
O127 C135 1.258 . S
O128 Co103 1.941 . S
O128 C135 1.266 . S
H129 C131 0.959 . S
H130 C131 0.961 . S
C131 C121 1.510 . S
C131 H129 0.959 . S
C131 H130 0.961 . S
C131 H132 0.960 . S
H132 C131 0.960 . S
H133 N113 0.862 . S
O134 Co102 1.920 . S
O134 C107 1.289 . S
C135 O127 1.258 . S
C135 O128 1.266 . S
Co136 O139 1.970 . S
Co136 N153 1.989 1_556 S
Co136 O161 1.967 . S
Co136 O168 1.920 . S
Co137 O140 1.966 . S
Co137 N146 2.022 . S
Co137 N154 1.993 . S
Co137 O162 1.941 . S
C138 O139 1.258 1_554 S
C138 O140 1.263 . S
O139 Co136 1.970 . S
O139 C138 1.258 1_556 S
O140 Co137 1.966 . S
O140 C138 1.263 . S
C141 O142 1.235 . S
C141 O168 1.289 . S
O142 C141 1.235 . S
C143 C145 1.400 . S
C143 N146 1.351 . S
C143 C148 1.501 . S
C144 C145 1.387 . S
C144 N147 1.341 . S
C145 C143 1.400 . S
C145 C144 1.387 . S
N146 Co137 2.022 . S
N146 C143 1.351 . S
N146 N147 1.365 . S
N147 C144 1.341 . S
N147 N146 1.365 . S
N147 H167 0.862 . S
C148 C143 1.501 . S
C148 H149 0.961 . S
C148 H150 0.961 . S
C148 H151 0.960 . S
H149 C148 0.961 . S
H150 C148 0.961 . S
H151 C148 0.960 . S
C152 N153 1.342 1_556 S
C152 C156 1.401 1_556 S
C152 C157 1.499 . S
N153 Co136 1.989 1_554 S
N153 C152 1.342 1_554 S
N153 N154 1.388 . S
N154 Co137 1.993 . S
N154 N153 1.388 . S
N154 C155 1.346 . S
C155 N154 1.346 . S
C155 C156 1.396 . S
C155 C165 1.510 . S
C156 C152 1.401 1_554 S
C156 C155 1.396 . S
C157 C152 1.499 . S
C157 H158 0.959 . S
C157 H159 0.960 . S
C157 H160 0.961 . S
H158 C157 0.959 . S
H159 C157 0.960 . S
H160 C157 0.961 . S
O161 Co136 1.967 . S
O161 C169 1.258 1_556 S
O162 Co137 1.941 . S
O162 C169 1.266 . S
H163 C165 0.959 . S
H164 C165 0.961 . S
C165 C155 1.510 . S
C165 H163 0.959 . S
C165 H164 0.961 . S
C165 H166 0.960 . S
H166 C165 0.960 . S
H167 N147 0.862 . S
O168 Co136 1.920 . S
O168 C141 1.289 . S
C169 O161 1.258 1_554 S
C169 O162 1.266 . S
Co170 O173 1.970 . S
Co170 N187 1.989 . S
Co170 O195 1.967 . S
Co170 O202 1.920 . S
Co171 O174 1.966 . S
Co171 N180 2.022 . S
Co171 N188 1.993 . S
Co171 O196 1.941 . S
C172 O173 1.258 . S
C172 O174 1.263 . S
O173 Co170 1.970 . S
O173 C172 1.258 . S
O174 Co171 1.966 . S
O174 C172 1.263 . S
C175 O176 1.235 . S
C175 O202 1.289 . S
O176 C175 1.235 . S
C177 C179 1.400 . S
C177 N180 1.351 . S
C177 C182 1.501 . S
C178 C179 1.387 . S
C178 N181 1.341 . S
C179 C177 1.400 . S
C179 C178 1.387 . S
N180 Co171 2.022 . S
N180 C177 1.351 . S
N180 N181 1.365 . S
N181 C178 1.341 . S
N181 N180 1.365 . S
N181 H201 0.862 . S
C182 C177 1.501 . S
C182 H183 0.961 . S
C182 H184 0.961 . S
C182 H185 0.960 . S
H183 C182 0.961 . S
H184 C182 0.961 . S
H185 C182 0.960 . S
C186 N187 1.342 . S
C186 C190 1.401 . S
C186 C191 1.499 . S
N187 Co170 1.989 . S
N187 C186 1.342 . S
N187 N188 1.388 . S
N188 Co171 1.993 . S
N188 N187 1.388 . S
N188 C189 1.346 . S
C189 N188 1.346 . S
C189 C190 1.396 . S
C189 C199 1.510 . S
C190 C186 1.401 . S
C190 C189 1.396 . S
C191 C186 1.499 . S
C191 H192 0.959 . S
C191 H193 0.960 . S
C191 H194 0.961 . S
H192 C191 0.959 . S
H193 C191 0.960 . S
H194 C191 0.961 . S
O195 Co170 1.967 . S
O195 C203 1.258 . S
O196 Co171 1.941 . S
O196 C203 1.266 . S
H197 C199 0.959 . S
H198 C199 0.961 . S
C199 C189 1.510 . S
C199 H197 0.959 . S
C199 H198 0.961 . S
C199 H200 0.960 . S
H200 C199 0.960 . S
H201 N181 0.862 . S
O202 Co170 1.920 . S
O202 C175 1.289 . S
C203 O195 1.258 . S
C203 O196 1.266 . S
Co204 O207 1.970 . S
Co204 N221 1.989 1_556 S
Co204 O229 1.967 . S
Co204 O236 1.920 . S
Co205 O208 1.966 . S
Co205 N214 2.022 . S
Co205 N222 1.993 . S
Co205 O230 1.941 . S
C206 O207 1.258 1_554 S
C206 O208 1.263 . S
O207 Co204 1.970 . S
O207 C206 1.258 1_556 S
O208 Co205 1.966 . S
O208 C206 1.263 . S
C209 O210 1.235 . S
C209 O236 1.289 . S
O210 C209 1.235 . S
C211 C213 1.400 . S
C211 N214 1.351 . S
C211 C216 1.501 . S
C212 C213 1.387 . S
C212 N215 1.341 . S
C213 C211 1.400 . S
C213 C212 1.387 . S
N214 Co205 2.022 . S
N214 C211 1.351 . S
N214 N215 1.365 . S
N215 C212 1.341 . S
N215 N214 1.365 . S
N215 H235 0.862 . S
C216 C211 1.501 . S
C216 H217 0.961 . S
C216 H218 0.961 . S
C216 H219 0.960 . S
H217 C216 0.961 . S
H218 C216 0.961 . S
H219 C216 0.960 . S
C220 N221 1.342 1_556 S
C220 C224 1.401 1_556 S
C220 C225 1.499 . S
N221 Co204 1.989 1_554 S
N221 C220 1.342 1_554 S
N221 N222 1.388 . S
N222 Co205 1.993 . S
N222 N221 1.388 . S
N222 C223 1.346 . S
C223 N222 1.346 . S
C223 C224 1.396 . S
C223 C233 1.510 . S
C224 C220 1.401 1_554 S
C224 C223 1.396 . S
C225 C220 1.499 . S
C225 H226 0.959 . S
C225 H227 0.960 . S
C225 H228 0.961 . S
H226 C225 0.959 . S
H227 C225 0.960 . S
H228 C225 0.961 . S
O229 Co204 1.967 . S
O229 C237 1.258 1_556 S
O230 Co205 1.941 . S
O230 C237 1.266 . S
H231 C233 0.959 . S
H232 C233 0.961 . S
C233 C223 1.510 . S
C233 H231 0.959 . S
C233 H232 0.961 . S
C233 H234 0.960 . S
H234 C233 0.960 . S
H235 N215 0.862 . S
O236 Co204 1.920 . S
O236 C209 1.289 . S
C237 O229 1.258 1_554 S
C237 O230 1.266 . S
Co238 O241 1.970 . S
Co238 N255 1.989 . S
Co238 O263 1.967 . S
Co238 O270 1.920 . S
Co239 O242 1.966 . S
Co239 N248 2.022 . S
Co239 N256 1.993 . S
Co239 O264 1.941 . S
C240 O241 1.258 . S
C240 O242 1.263 . S
O241 Co238 1.970 . S
O241 C240 1.258 . S
O242 Co239 1.966 . S
O242 C240 1.263 . S
C243 O244 1.235 . S
C243 O270 1.289 . S
O244 C243 1.235 . S
C245 C247 1.400 . S
C245 N248 1.351 . S
C245 C250 1.501 . S
C246 C247 1.387 . S
C246 N249 1.341 . S
C247 C245 1.400 . S
C247 C246 1.387 . S
N248 Co239 2.022 . S
N248 C245 1.351 . S
N248 N249 1.365 . S
N249 C246 1.341 . S
N249 N248 1.365 . S
N249 H269 0.862 . S
C250 C245 1.501 . S
C250 H251 0.961 . S
C250 H252 0.961 . S
C250 H253 0.960 . S
H251 C250 0.961 . S
H252 C250 0.961 . S
H253 C250 0.960 . S
C254 N255 1.342 . S
C254 C258 1.401 . S
C254 C259 1.499 . S
N255 Co238 1.989 . S
N255 C254 1.342 . S
N255 N256 1.388 . S
N256 Co239 1.993 . S
N256 N255 1.388 . S
N256 C257 1.346 . S
C257 N256 1.346 . S
C257 C258 1.396 . S
C257 C267 1.510 . S
C258 C254 1.401 . S
C258 C257 1.396 . S
C259 C254 1.499 . S
C259 H260 0.959 . S
C259 H261 0.960 . S
C259 H262 0.961 . S
H260 C259 0.959 . S
H261 C259 0.960 . S
H262 C259 0.961 . S
O263 Co238 1.967 . S
O263 C271 1.258 . S
O264 Co239 1.941 . S
O264 C271 1.266 . S
H265 C267 0.959 . S
H266 C267 0.961 . S
C267 C257 1.510 . S
C267 H265 0.959 . S
C267 H266 0.961 . S
C267 H268 0.960 . S
H268 C267 0.960 . S
H269 N249 0.862 . S
O270 Co238 1.920 . S
O270 C243 1.289 . S
C271 O263 1.258 . S
C271 O264 1.266 . S
C272 C273 1.387 1_556 S
C272 H276 0.950 . S
C272 C281 1.390 1_556 S
C273 C272 1.387 1_554 S
C273 C275 1.387 . S
H274 C281 0.950 1_556 S
C275 C273 1.387 . S
C275 C277 1.390 . S
C275 H279 0.950 . S
H276 C272 0.950 . S
C277 C275 1.390 . S
C277 C278 1.387 . S
C277 H280 0.950 . S
C278 C277 1.387 . S
C278 C281 1.387 . S
H279 C275 0.950 . S
H280 C277 0.950 . S
C281 C272 1.390 1_554 S
C281 H274 0.950 1_554 S
C281 C278 1.387 . S
C282 C283 1.387 . S
C282 H286 0.950 . S
C282 C291 1.390 . S
C283 C282 1.387 . S
C283 C285 1.387 . S
H284 C291 0.950 . S
C285 C283 1.387 . S
C285 C287 1.390 . S
C285 H289 0.950 . S
H286 C282 0.950 . S
C287 C285 1.390 . S
C287 C288 1.387 . S
C287 H290 0.950 . S
C288 C287 1.387 . S
C288 C291 1.387 . S
H289 C285 0.950 . S
H290 C287 0.950 . S
C291 C282 1.390 . S
C291 H284 0.950 . S
C291 C288 1.387 . S
C292 C293 1.387 . S
C292 H296 0.950 . S
C292 C301 1.390 . S
C293 C292 1.387 . S
C293 C295 1.387 . S
H294 C301 0.950 . S
C295 C293 1.387 . S
C295 C297 1.390 . S
C295 H299 0.950 . S
H296 C292 0.950 . S
C297 C295 1.390 . S
C297 C298 1.387 . S
C297 H300 0.950 . S
C298 C297 1.387 . S
C298 C301 1.387 . S
H299 C295 0.950 . S
H300 C297 0.950 . S
C301 C292 1.390 . S
C301 H294 0.950 . S
C301 C298 1.387 . S
C302 C303 1.387 . S
C302 H306 0.950 . S
C302 C311 1.390 . S
C303 C302 1.387 . S
C303 C305 1.387 . S
H304 C311 0.950 . S
C305 C303 1.387 . S
C305 C307 1.390 . S
C305 H309 0.950 . S
H306 C302 0.950 . S
C307 C305 1.390 . S
C307 C308 1.387 . S
C307 H310 0.950 . S
C308 C307 1.387 . S
C308 C311 1.387 . S
H309 C305 0.950 . S
H310 C307 0.950 . S
C311 C302 1.390 . S
C311 H304 0.950 . S
C311 C308 1.387 . S
C312 C313 1.387 . S
C312 H316 0.950 . S
C312 C321 1.390 . S
C313 C312 1.387 . S
C313 C315 1.387 . S
H314 C321 0.950 . S
C315 C313 1.387 . S
C315 C317 1.390 . S
C315 H319 0.950 . S
H316 C312 0.950 . S
C317 C315 1.390 . S
C317 C318 1.387 . S
C317 H320 0.950 . S
C318 C317 1.387 . S
C318 C321 1.387 . S
H319 C315 0.950 . S
H320 C317 0.950 . S
C321 C312 1.390 . S
C321 H314 0.950 . S
C321 C318 1.387 . S
C322 C323 1.387 . S
C322 H326 0.950 . S
C322 C331 1.390 . S
C323 C322 1.387 . S
C323 C325 1.387 . S
H324 C331 0.950 . S
C325 C323 1.387 . S
C325 C327 1.390 . S
C325 H329 0.950 . S
H326 C322 0.950 . S
C327 C325 1.390 . S
C327 C328 1.387 . S
C327 H330 0.950 . S
C328 C327 1.387 . S
C328 C331 1.387 . S
H329 C325 0.950 . S
H330 C327 0.950 . S
C331 C322 1.390 . S
C331 H324 0.950 . S
C331 C328 1.387 . S
C332 C333 1.387 . S
C332 H336 0.950 . S
C332 C341 1.390 . S
C333 C332 1.387 . S
C333 C335 1.387 . S
H334 C341 0.950 . S
C335 C333 1.387 . S
C335 C337 1.390 . S
C335 H339 0.950 . S
H336 C332 0.950 . S
C337 C335 1.390 . S
C337 C338 1.387 . S
C337 H340 0.950 . S
C338 C337 1.387 . S
C338 C341 1.387 . S
H339 C335 0.950 . S
H340 C337 0.950 . S
C341 C332 1.390 . S
C341 H334 0.950 . S
C341 C338 1.387 . S
C342 C343 1.387 . S
C342 H346 0.950 . S
C342 C351 1.390 . S
C343 C342 1.387 . S
C343 C345 1.387 . S
H344 C351 0.950 . S
C345 C343 1.387 . S
C345 C347 1.390 . S
C345 H349 0.950 . S
H346 C342 0.950 . S
C347 C345 1.390 . S
C347 C348 1.387 . S
C347 H350 0.950 . S
C348 C347 1.387 . S
C348 C351 1.387 . S
H349 C345 0.950 . S
H350 C347 0.950 . S
C351 C342 1.390 . S
C351 H344 0.950 . S
C351 C348 1.387 . S
C352 C353 1.387 . S
C352 H356 0.950 1_554 S
C352 C361 1.390 1_455 S
C353 C352 1.387 . S
C353 C355 1.387 . S
H354 C361 0.950 1_556 S
C355 C353 1.387 . S
C355 C357 1.390 1_455 S
C355 H359 0.950 . S
H356 C352 0.950 1_556 S
C357 C355 1.390 1_655 S
C357 C358 1.387 . S
C357 H360 0.950 . S
C358 C357 1.387 . S
C358 C361 1.387 . S
H359 C355 0.950 . S
H360 C357 0.950 . S
C361 C352 1.390 1_655 S
C361 H354 0.950 1_554 S
C361 C358 1.387 . S
C362 C363 1.387 . S
C362 H366 0.950 . S
C362 C371 1.390 1_565 S
C363 C362 1.387 . S
C363 C365 1.387 . S
H364 C371 0.950 . S
C365 C363 1.387 . S
C365 C367 1.390 1_565 S
C365 H369 0.950 . S
H366 C362 0.950 . S
C367 C365 1.390 1_545 S
C367 C368 1.387 . S
C367 H370 0.950 . S
C368 C367 1.387 . S
C368 C371 1.387 . S
H369 C365 0.950 . S
H370 C367 0.950 . S
C371 C362 1.390 1_545 S
C371 H364 0.950 . S
C371 C368 1.387 . S
C372 C373 1.387 . S
C372 H376 0.950 . S
C372 C381 1.390 1_565 S
C373 C372 1.387 . S
C373 C375 1.387 1_554 S
H374 C381 0.950 . S
C375 C373 1.387 1_556 S
C375 C377 1.390 1_565 S
C375 H379 0.950 . S
H376 C372 0.950 . S
C377 C375 1.390 1_545 S
C377 C378 1.387 1_556 S
C377 H380 0.950 . S
C378 C377 1.387 1_554 S
C378 C381 1.387 . S
H379 C375 0.950 . S
H380 C377 0.950 . S
C381 C372 1.390 1_545 S
C381 H374 0.950 . S
C381 C378 1.387 . S
C382 C383 1.387 . S
C382 H386 0.950 . S
C382 C391 1.390 1_655 S
C383 C382 1.387 . S
C383 C385 1.387 . S
H384 C391 0.950 . S
C385 C383 1.387 . S
C385 C387 1.390 1_655 S
C385 H389 0.950 . S
H386 C382 0.950 . S
C387 C385 1.390 1_455 S
C387 C388 1.387 . S
C387 H390 0.950 . S
C388 C387 1.387 . S
C388 C391 1.387 . S
H389 C385 0.950 . S
H390 C387 0.950 . S
C391 C382 1.390 1_455 S
C391 H384 0.950 . S
C391 C388 1.387 . S
C392 C393 1.387 . S
C392 H396 0.950 . S
C392 C401 1.390 . S
C393 C392 1.387 . S
C393 C395 1.387 . S
H394 C401 0.950 . S
C395 C393 1.387 . S
C395 C397 1.390 . S
C395 H399 0.950 . S
H396 C392 0.950 . S
C397 C395 1.390 . S
C397 C398 1.387 . S
C397 H400 0.950 . S
C398 C397 1.387 . S
C398 C401 1.387 . S
H399 C395 0.950 . S
H400 C397 0.950 . S
C401 C392 1.390 . S
C401 H394 0.950 . S
C401 C398 1.387 . S
C402 C403 1.387 . S
C402 H406 0.950 . S
C402 C411 1.390 . S
C403 C402 1.387 . S
C403 C405 1.387 . S
H404 C411 0.950 . S
C405 C403 1.387 . S
C405 C407 1.390 . S
C405 H409 0.950 . S
H406 C402 0.950 . S
C407 C405 1.390 . S
C407 C408 1.387 . S
C407 H410 0.950 . S
C408 C407 1.387 . S
C408 C411 1.387 . S
H409 C405 0.950 . S
H410 C407 0.950 . S
C411 C402 1.390 . S
C411 H404 0.950 . S
C411 C408 1.387 . S
C412 C413 1.387 . S
C412 H416 0.950 . S
C412 C421 1.390 . S
C413 C412 1.387 . S
C413 C415 1.387 . S
H414 C421 0.950 . S
C415 C413 1.387 . S
C415 C417 1.390 . S
C415 H419 0.950 . S
H416 C412 0.950 . S
C417 C415 1.390 . S
C417 C418 1.387 . S
C417 H420 0.950 . S
C418 C417 1.387 . S
C418 C421 1.387 . S
H419 C415 0.950 . S
H420 C417 0.950 . S
C421 C412 1.390 . S
C421 H414 0.950 . S
C421 C418 1.387 . S
C422 C423 1.387 . S
C422 H426 0.950 . S
C422 C431 1.390 . S
C423 C422 1.387 . S
C423 C425 1.387 . S
H424 C431 0.950 . S
C425 C423 1.387 . S
C425 C427 1.390 . S
C425 H429 0.950 . S
H426 C422 0.950 . S
C427 C425 1.390 . S
C427 C428 1.387 . S
C427 H430 0.950 . S
C428 C427 1.387 . S
C428 C431 1.387 . S
H429 C425 0.950 . S
H430 C427 0.950 . S
C431 C422 1.390 . S
C431 H424 0.950 . S
C431 C428 1.387 . S
C432 C433 1.387 . S
C432 H436 0.950 . S
C432 C441 1.390 . S
C433 C432 1.387 . S
C433 C435 1.387 . S
H434 C441 0.950 . S
C435 C433 1.387 . S
C435 C437 1.390 . S
C435 H439 0.950 . S
H436 C432 0.950 . S
C437 C435 1.390 . S
C437 C438 1.387 . S
C437 H440 0.950 . S
C438 C437 1.387 . S
C438 C441 1.387 . S
H439 C435 0.950 . S
H440 C437 0.950 . S
C441 C432 1.390 . S
C441 H434 0.950 . S
C441 C438 1.387 . S
C442 C443 1.387 . S
C442 H446 0.950 . S
C442 C451 1.390 . S
C443 C442 1.387 . S
C443 C445 1.387 . S
H444 C451 0.950 . S
C445 C443 1.387 . S
C445 C447 1.390 . S
C445 H449 0.950 . S
H446 C442 0.950 . S
C447 C445 1.390 . S
C447 C448 1.387 . S
C447 H450 0.950 . S
C448 C447 1.387 . S
C448 C451 1.387 . S
H449 C445 0.950 . S
H450 C447 0.950 . S
C451 C442 1.390 . S
C451 H444 0.950 . S
C451 C448 1.387 . S
C452 C453 1.387 . S
C452 H456 0.950 . S
C452 C461 1.390 . S
C453 C452 1.387 . S
C453 C455 1.387 . S
H454 C461 0.950 . S
C455 C453 1.387 . S
C455 C457 1.390 . S
C455 H459 0.950 . S
H456 C452 0.950 . S
C457 C455 1.390 . S
C457 C458 1.387 . S
C457 H460 0.950 . S
C458 C457 1.387 . S
C458 C461 1.387 . S
H459 C455 0.950 . S
H460 C457 0.950 . S
C461 C452 1.390 . S
C461 H454 0.950 . S
C461 C458 1.387 . S
C462 C463 1.387 . S
C462 H466 0.950 . S
C462 C471 1.390 . S
C463 C462 1.387 . S
C463 C465 1.387 . S
H464 C471 0.950 . S
C465 C463 1.387 . S
C465 C467 1.390 . S
C465 H469 0.950 . S
H466 C462 0.950 . S
C467 C465 1.390 . S
C467 C468 1.387 . S
C467 H470 0.950 . S
C468 C467 1.387 . S
C468 C471 1.387 . S
H469 C465 0.950 . S
H470 C467 0.950 . S
C471 C462 1.390 . S
C471 H464 0.950 . S
C471 C468 1.387 . S
C273 C237 1.567 1_545 S
C278 C20 1.608 . S
C283 C271 1.570 1_655 S
C288 C54 1.610 . S
C293 C169 1.567 1_565 S
C298 C88 1.609 . S
C303 C203 1.568 1_455 S
C308 C122 1.609 . S
C313 C101 1.568 . S
C318 C156 1.609 . S
C323 C135 1.569 . S
C328 C190 1.610 . S
C333 C33 1.569 . S
C338 C224 1.610 . S
C343 C258 1.610 . S
C348 C67 1.570 . S
C353 C2 0.759 . S
C358 C70 0.759 . S
C363 C104 0.759 . S
C368 C36 0.759 . S
C373 C206 0.759 . S
C378 C138 0.759 . S
C383 C172 0.763 . S
C388 C240 0.763 . S
C393 C5 1.753 . S
C398 C243 1.753 . S
C403 C141 1.752 . S
C408 C39 1.752 . S
C413 C175 1.753 . S
C418 C73 1.752 . S
C423 C209 1.753 . S
C428 C107 1.753 . S
C433 C77 1.161 . S
C438 C179 1.162 . S
C443 C111 1.160 . S
C448 C213 1.158 . S
C453 C247 1.159 . S
C458 C9 1.160 . S
C463 C145 1.162 . S
C468 C43 1.162 . S
