# Generated by pormake.
# Topology whm, (6)-cn, num edge types: 1
# Building blocks:
#     Node 0, Type 0, BuildingBlock: OJICUG_clean_sbu_0, # of connection points: 6
#     Node 1, Type 0, BuildingBlock: OJICUG_clean_sbu_0, # of connection points: 6
#     Node 2, Type 0, BuildingBlock: OJICUG_clean_sbu_0, # of connection points: 6
#     Node 3, Type 0, BuildingBlock: OJICUG_clean_sbu_0, # of connection points: 6
#     Node 4, Type 0, BuildingBlock: OJICUG_clean_sbu_0, # of connection points: 6
#     Node 5, Type 0, BuildingBlock: OJICUG_clean_sbu_0, # of connection points: 6
#     Node 6, Type 0, BuildingBlock: OJICUG_clean_sbu_0, # of connection points: 6
#     Node 7, Type 0, BuildingBlock: OJICUG_clean_sbu_0, # of connection points: 6
#     Node 8, Type 0, BuildingBlock: OJICUG_clean_sbu_0, # of connection points: 6
#     Node 9, Type 0, BuildingBlock: OJICUG_clean_sbu_0, # of connection points: 6
#     Node 10, Type 0, BuildingBlock: OJICUG_clean_sbu_0, # of connection points: 6
#     Node 11, Type 0, BuildingBlock: OJICUG_clean_sbu_0, # of connection points: 6
#     Node 12, Type 0, BuildingBlock: OJICUG_clean_sbu_0, # of connection points: 6
#     Node 13, Type 0, BuildingBlock: OJICUG_clean_sbu_0, # of connection points: 6
#     Node 14, Type 0, BuildingBlock: OJICUG_clean_sbu_0, # of connection points: 6
#     Node 15, Type 0, BuildingBlock: OJICUG_clean_sbu_0, # of connection points: 6
#     Edge 16, Type (0, 0), BuildingBlock: UVAHIK_clean_linker_0, # of connection points: 2
#     Edge 17, Type (0, 0), BuildingBlock: UVAHIK_clean_linker_0, # of connection points: 2
#     Edge 18, Type (0, 0), BuildingBlock: UVAHIK_clean_linker_0, # of connection points: 2
#     Edge 19, Type (0, 0), BuildingBlock: UVAHIK_clean_linker_0, # of connection points: 2
#     Edge 20, Type (0, 0), BuildingBlock: UVAHIK_clean_linker_0, # of connection points: 2
#     Edge 21, Type (0, 0), BuildingBlock: UVAHIK_clean_linker_0, # of connection points: 2
#     Edge 22, Type (0, 0), BuildingBlock: UVAHIK_clean_linker_0, # of connection points: 2
#     Edge 23, Type (0, 0), BuildingBlock: UVAHIK_clean_linker_0, # of connection points: 2
#     Edge 24, Type (0, 0), BuildingBlock: UVAHIK_clean_linker_0, # of connection points: 2
#     Edge 25, Type (0, 0), BuildingBlock: UVAHIK_clean_linker_0, # of connection points: 2
#     Edge 26, Type (0, 0), BuildingBlock: UVAHIK_clean_linker_0, # of connection points: 2
#     Edge 27, Type (0, 0), BuildingBlock: UVAHIK_clean_linker_0, # of connection points: 2
#     Edge 28, Type (0, 0), BuildingBlock: UVAHIK_clean_linker_0, # of connection points: 2
#     Edge 29, Type (0, 0), BuildingBlock: UVAHIK_clean_linker_0, # of connection points: 2
#     Edge 30, Type (0, 0), BuildingBlock: UVAHIK_clean_linker_0, # of connection points: 2
#     Edge 31, Type (0, 0), BuildingBlock: UVAHIK_clean_linker_0, # of connection points: 2
#     Edge 32, Type (0, 0), BuildingBlock: UVAHIK_clean_linker_0, # of connection points: 2
#     Edge 33, Type (0, 0), BuildingBlock: UVAHIK_clean_linker_0, # of connection points: 2
#     Edge 34, Type (0, 0), BuildingBlock: UVAHIK_clean_linker_0, # of connection points: 2
#     Edge 35, Type (0, 0), BuildingBlock: UVAHIK_clean_linker_0, # of connection points: 2
#     Edge 36, Type (0, 0), BuildingBlock: UVAHIK_clean_linker_0, # of connection points: 2
#     Edge 37, Type (0, 0), BuildingBlock: UVAHIK_clean_linker_0, # of connection points: 2
#     Edge 38, Type (0, 0), BuildingBlock: UVAHIK_clean_linker_0, # of connection points: 2
#     Edge 39, Type (0, 0), BuildingBlock: UVAHIK_clean_linker_0, # of connection points: 2
#     Edge 40, Type (0, 0), BuildingBlock: UVAHIK_clean_linker_0, # of connection points: 2
#     Edge 41, Type (0, 0), BuildingBlock: UVAHIK_clean_linker_0, # of connection points: 2
#     Edge 42, Type (0, 0), BuildingBlock: UVAHIK_clean_linker_0, # of connection points: 2
#     Edge 43, Type (0, 0), BuildingBlock: UVAHIK_clean_linker_0, # of connection points: 2
#     Edge 44, Type (0, 0), BuildingBlock: UVAHIK_clean_linker_0, # of connection points: 2
#     Edge 45, Type (0, 0), BuildingBlock: UVAHIK_clean_linker_0, # of connection points: 2
#     Edge 46, Type (0, 0), BuildingBlock: UVAHIK_clean_linker_0, # of connection points: 2
#     Edge 47, Type (0, 0), BuildingBlock: UVAHIK_clean_linker_0, # of connection points: 2
#     Edge 48, Type (0, 0), BuildingBlock: UVAHIK_clean_linker_0, # of connection points: 2
#     Edge 49, Type (0, 0), BuildingBlock: UVAHIK_clean_linker_0, # of connection points: 2
#     Edge 50, Type (0, 0), BuildingBlock: UVAHIK_clean_linker_0, # of connection points: 2
#     Edge 51, Type (0, 0), BuildingBlock: UVAHIK_clean_linker_0, # of connection points: 2
#     Edge 52, Type (0, 0), BuildingBlock: UVAHIK_clean_linker_0, # of connection points: 2
#     Edge 53, Type (0, 0), BuildingBlock: UVAHIK_clean_linker_0, # of connection points: 2
#     Edge 54, Type (0, 0), BuildingBlock: UVAHIK_clean_linker_0, # of connection points: 2
#     Edge 55, Type (0, 0), BuildingBlock: UVAHIK_clean_linker_0, # of connection points: 2
#     Edge 56, Type (0, 0), BuildingBlock: UVAHIK_clean_linker_0, # of connection points: 2
#     Edge 57, Type (0, 0), BuildingBlock: UVAHIK_clean_linker_0, # of connection points: 2
#     Edge 58, Type (0, 0), BuildingBlock: UVAHIK_clean_linker_0, # of connection points: 2
#     Edge 59, Type (0, 0), BuildingBlock: UVAHIK_clean_linker_0, # of connection points: 2
#     Edge 60, Type (0, 0), BuildingBlock: UVAHIK_clean_linker_0, # of connection points: 2
#     Edge 61, Type (0, 0), BuildingBlock: UVAHIK_clean_linker_0, # of connection points: 2
#     Edge 62, Type (0, 0), BuildingBlock: UVAHIK_clean_linker_0, # of connection points: 2
#     Edge 63, Type (0, 0), BuildingBlock: UVAHIK_clean_linker_0, # of connection points: 2
# Relax obj value: 0.342
# Max RMSD: 0.245
# Mean RMSD: 0.245
data_MOF--net-whm--node1-OJICUG_clean_sbu_0--edge1-UVAHIK_clean_linker_0
_symmetry_space_group_name_H-M    P1
_symmetry_Int_Tables_number       1
_symmetry_cell_setting            triclinic
loop_
_symmetry_equiv_pos_as_xyz
'x, y, z'
_cell_length_a     65.068682
_cell_length_b     65.0303
_cell_length_c     37.041069
_cell_angle_alpha  89.947084
_cell_angle_beta   89.985827
_cell_angle_gamma 89.948732
loop_
_atom_site_label
_atom_site_type_symbol
_atom_site_fract_x
_atom_site_fract_y
_atom_site_fract_z
_atom_type_partial_charge
Sc0 Sc 0.5705 0.17286 0.14099 0.0
Sc1 Sc 0.52929 0.16802 0.20222 0.0
Sc2 Sc 0.55322 0.12388 0.16658 0.0
O3 O 0.55102 0.15492 0.17 0.0
C4 C 0.5641 0.1355 0.08594 0.0
C5 C 0.52641 0.19299 0.12812 0.0
C6 C 0.50496 0.12939 0.17033 0.0
C7 C 0.56565 0.19998 0.21235 0.0
C8 C 0.60023 0.13865 0.17197 0.0
C9 C 0.54498 0.13103 0.25086 0.0
O10 O 0.57009 0.15349 0.09392 0.0
O11 O 0.51872 0.1874 0.15825 0.0
O12 O 0.52068 0.1196 0.15939 0.0
O13 O 0.5746 0.19522 0.18313 0.0
O14 O 0.5861 0.12512 0.17393 0.0
O15 O 0.53799 0.14928 0.24823 0.0
O16 O 0.59701 0.15703 0.16151 0.0
O17 O 0.54931 0.19128 0.22285 0.0
O18 O 0.55021 0.12035 0.22369 0.0
O19 O 0.54482 0.18905 0.11865 0.0
O20 O 0.55655 0.12333 0.10912 0.0
O21 O 0.50617 0.14642 0.18685 0.0
Sc22 Sc 0.32541 0.56908 0.63419 0.0
Sc23 Sc 0.323 0.53327 0.70527 0.0
Sc24 Sc 0.371 0.55097 0.67462 0.0
O25 O 0.33981 0.55111 0.67126 0.0
C26 C 0.36534 0.55588 0.58986 0.0
C27 C 0.30162 0.52628 0.62886 0.0
C28 C 0.36113 0.50397 0.687 0.0
C29 C 0.2943 0.57273 0.7004 0.0
C30 C 0.36008 0.59868 0.66549 0.0
C31 C 0.35762 0.54959 0.75764 0.0
O32 O 0.34688 0.56205 0.59197 0.0
O33 O 0.3055 0.5205 0.66102 0.0
O34 O 0.37272 0.51786 0.67394 0.0
O35 O 0.3016 0.57921 0.67073 0.0
O36 O 0.37173 0.58409 0.67605 0.0
O37 O 0.339 0.54459 0.75215 0.0
O38 O 0.34293 0.59572 0.64974 0.0
O39 O 0.3005 0.5564 0.71549 0.0
O40 O 0.37081 0.55113 0.73255 0.0
O41 O 0.30747 0.54344 0.6159 0.0
O42 O 0.37598 0.5512 0.61733 0.0
O43 O 0.34357 0.50778 0.70034 0.0
Sc44 Sc 0.91396 0.31532 0.1381 0.0
Sc45 Sc 0.95397 0.32243 0.20096 0.0
Sc46 Sc 0.9274 0.36502 0.16502 0.0
O47 O 0.93181 0.33427 0.16814 0.0
C48 C 0.91833 0.3536 0.08421 0.0
C49 C 0.959 0.29777 0.12686 0.0
C50 C 0.9762 0.36229 0.16993 0.0
C51 C 0.91957 0.28857 0.20994 0.0
C52 C 0.88153 0.34675 0.16836 0.0
C53 C 0.93497 0.35821 0.24932 0.0
O54 O 0.91236 0.33559 0.09219 0.0
O55 O 0.96531 0.3026 0.15832 0.0
O56 O 0.95976 0.37166 0.16133 0.0
O57 O 0.91185 0.29197 0.17907 0.0
O58 O 0.89449 0.36144 0.1691 0.0
O59 O 0.94501 0.34148 0.24626 0.0
O60 O 0.88627 0.32845 0.15948 0.0
O61 O 0.93431 0.29905 0.22255 0.0
O62 O 0.92788 0.36804 0.22244 0.0
O63 O 0.94102 0.30182 0.11529 0.0
O64 O 0.92622 0.36565 0.10721 0.0
O65 O 0.97631 0.34455 0.1842 0.0
Sc66 Sc 0.17032 0.92404 0.62605 0.0
Sc67 Sc 0.17055 0.95839 0.69948 0.0
Sc68 Sc 0.12387 0.93842 0.66651 0.0
O69 O 0.15492 0.94035 0.66405 0.0
C70 C 0.12942 0.93638 0.58255 0.0
C71 C 0.19069 0.96839 0.62267 0.0
C72 C 0.13078 0.98569 0.6854 0.0
C73 C 0.20223 0.92171 0.69157 0.0
C74 C 0.13795 0.89167 0.65328 0.0
C75 C 0.13718 0.93659 0.74934 0.0
O76 O 0.14723 0.92853 0.5852 0.0
O77 O 0.18794 0.97245 0.65602 0.0
O78 O 0.11959 0.97104 0.67404 0.0
O79 O 0.19595 0.91644 0.66051 0.0
O80 O 0.12467 0.90554 0.66004 0.0
O81 O 0.15423 0.94596 0.74559 0.0
O82 O 0.1561 0.8957 0.6426 0.0
O83 O 0.19392 0.93604 0.70949 0.0
O84 O 0.12493 0.9331 0.7234 0.0
O85 O 0.18486 0.95172 0.60783 0.0
O86 O 0.11943 0.94283 0.60969 0.0
O87 O 0.14928 0.98319 0.69505 0.0
Sc88 Sc 0.5627 0.3197 0.8473 0.0
Sc89 Sc 0.528 0.32435 0.77476 0.0
Sc90 Sc 0.54519 0.36849 0.82031 0.0
O91 O 0.5453 0.33748 0.8142 0.0
C92 C 0.54922 0.35477 0.90248 0.0
C93 C 0.51991 0.2959 0.8433 0.0
C94 C 0.49852 0.36027 0.80341 0.0
C95 C 0.56719 0.29499 0.77349 0.0
C96 C 0.59268 0.35661 0.82672 0.0
C97 C 0.54458 0.36363 0.73416 0.0
O98 O 0.55519 0.33663 0.89546 0.0
O99 O 0.51421 0.30359 0.81331 0.0
O100 O 0.51211 0.37012 0.821 0.0
O101 O 0.57324 0.30017 0.80467 0.0
O102 O 0.5783 0.36929 0.81956 0.0
O103 O 0.54 0.3446 0.73345 0.0
O104 O 0.58948 0.33832 0.83764 0.0
O105 O 0.55094 0.30216 0.75934 0.0
O106 O 0.54566 0.37386 0.76326 0.0
O107 O 0.53705 0.29982 0.85836 0.0
O108 O 0.545 0.36777 0.87809 0.0
O109 O 0.50268 0.3446 0.78435 0.0
Sc110 Sc 0.11549 0.55185 0.31902 0.0
Sc111 Sc 0.16142 0.52996 0.2861 0.0
Sc112 Sc 0.16174 0.56111 0.36394 0.0
O113 O 0.14622 0.54756 0.32297 0.0
C114 C 0.13166 0.59676 0.34094 0.0
C115 C 0.12982 0.5552 0.23725 0.0
C116 C 0.19422 0.56502 0.29943 0.0
C117 C 0.12002 0.50488 0.29481 0.0
C118 C 0.11952 0.54889 0.40317 0.0
C119 C 0.18073 0.51627 0.36175 0.0
O120 O 0.11784 0.58416 0.33093 0.0
O121 O 0.14573 0.54395 0.24065 0.0
O122 O 0.18801 0.56885 0.33122 0.0
O123 O 0.1096 0.52016 0.30591 0.0
O124 O 0.13782 0.55566 0.40289 0.0
O125 O 0.1785 0.51388 0.32784 0.0
O126 O 0.10961 0.54486 0.37458 0.0
O127 O 0.13909 0.50589 0.28794 0.0
O128 O 0.17478 0.53211 0.37891 0.0
O129 O 0.11801 0.55974 0.2633 0.0
O130 O 0.14935 0.59103 0.35159 0.0
O131 O 0.18544 0.55208 0.27903 0.0
Sc132 Sc 0.94365 0.11902 0.82615 0.0
Sc133 Sc 0.96145 0.16382 0.7838 0.0
Sc134 Sc 0.92655 0.16727 0.85618 0.0
O135 O 0.94388 0.15009 0.82218 0.0
C136 C 0.89631 0.13115 0.83186 0.0
C137 C 0.94496 0.12584 0.74051 0.0
C138 C 0.92266 0.19381 0.78433 0.0
C139 C 0.99028 0.12688 0.81089 0.0
C140 C 0.9389 0.13091 0.90918 0.0
C141 C 0.96971 0.19066 0.85379 0.0
O142 O 0.91064 0.11879 0.82297 0.0
O143 O 0.94887 0.14501 0.7412 0.0
O144 O 0.91607 0.18756 0.81458 0.0
O145 O 0.97665 0.11727 0.82881 0.0
O146 O 0.93409 0.14951 0.90332 0.0
O147 O 0.97561 0.1832 0.82379 0.0
O148 O 0.94245 0.11825 0.88396 0.0
O149 O 0.98625 0.1426 0.79177 0.0
O150 O 0.9523 0.18696 0.86814 0.0
O151 O 0.94441 0.11484 0.76881 0.0
O152 O 0.89965 0.14879 0.84567 0.0
O153 O 0.93912 0.18707 0.77027 0.0
Sc154 Sc 0.37547 0.93831 0.32768 0.0
Sc155 Sc 0.32904 0.95674 0.29069 0.0
Sc156 Sc 0.32883 0.92816 0.37123 0.0
O157 O 0.34448 0.94111 0.32978 0.0
C158 C 0.36042 0.89325 0.35185 0.0
C159 C 0.36265 0.93193 0.24553 0.0
C160 C 0.29734 0.92115 0.30609 0.0
C161 C 0.3689 0.98429 0.29939 0.0
C162 C 0.37009 0.94244 0.41148 0.0
C163 C 0.3086 0.9722 0.36426 0.0
O164 O 0.37405 0.90611 0.34181 0.0
O165 O 0.34596 0.94211 0.24743 0.0
O166 O 0.303 0.91883 0.33863 0.0
O167 O 0.38013 0.97011 0.31259 0.0
O168 O 0.35212 0.93488 0.41062 0.0
O169 O 0.31082 0.97335 0.33015 0.0
O170 O 0.38012 0.94673 0.38309 0.0
O171 O 0.35015 0.98169 0.29139 0.0
O172 O 0.31502 0.95724 0.38333 0.0
O173 O 0.37445 0.92904 0.27233 0.0
O174 O 0.34236 0.89856 0.36122 0.0
O175 O 0.30619 0.93345 0.28463 0.0
Sc176 Sc 0.4457 0.87174 0.82414 0.0
Sc177 Sc 0.46534 0.8272 0.78363 0.0
Sc178 Sc 0.42855 0.82324 0.85297 0.0
O179 O 0.44651 0.84067 0.82036 0.0
C180 C 0.43898 0.85974 0.90678 0.0
C181 C 0.49278 0.86459 0.81271 0.0
C182 C 0.47213 0.80054 0.85446 0.0
C183 C 0.44952 0.86491 0.73868 0.0
C184 C 0.39845 0.85902 0.82636 0.0
C185 C 0.42714 0.79656 0.78113 0.0
O186 O 0.44295 0.87246 0.8818 0.0
O187 O 0.48947 0.84882 0.79337 0.0
O188 O 0.45422 0.80388 0.8671 0.0
O189 O 0.44801 0.8759 0.76687 0.0
O190 O 0.40171 0.84142 0.84043 0.0
O191 O 0.44387 0.80354 0.76855 0.0
O192 O 0.41281 0.87153 0.81834 0.0
O193 O 0.45357 0.84577 0.7398 0.0
O194 O 0.41951 0.80281 0.81062 0.0
O195 O 0.47857 0.87401 0.82953 0.0
O196 O 0.43462 0.84106 0.90063 0.0
O197 O 0.47878 0.80817 0.82507 0.0
Sc198 Sc 0.65877 0.42656 0.36226 0.0
Sc199 Sc 0.65756 0.45379 0.28025 0.0
Sc200 Sc 0.61139 0.43882 0.32288 0.0
O201 O 0.64255 0.43979 0.32176 0.0
C202 C 0.62466 0.39325 0.34695 0.0
C203 C 0.68756 0.4165 0.29448 0.0
C204 C 0.62107 0.43071 0.23973 0.0
C205 C 0.68168 0.46892 0.35055 0.0
C206 C 0.61983 0.4436 0.40609 0.0
C207 C 0.61981 0.48404 0.29261 0.0
O208 O 0.64306 0.39781 0.35541 0.0
O209 O 0.67896 0.42912 0.27319 0.0
O210 O 0.60988 0.42931 0.26768 0.0
O211 O 0.67509 0.45471 0.37112 0.0
O212 O 0.6089 0.44759 0.37861 0.0
O213 O 0.63786 0.47998 0.28183 0.0
O214 O 0.63753 0.43551 0.40373 0.0
O215 O 0.67803 0.46985 0.31681 0.0
O216 O 0.60832 0.47085 0.30806 0.0
O217 O 0.68261 0.41496 0.3275 0.0
O218 O 0.61147 0.40661 0.33704 0.0
O219 O 0.63855 0.43946 0.23955 0.0
Sc220 Sc 0.06545 0.66917 0.8542 0.0
Sc221 Sc 0.03149 0.66648 0.78023 0.0
Sc222 Sc 0.05268 0.6212 0.81748 0.0
O223 O 0.04983 0.65227 0.81728 0.0
C224 C 0.09894 0.63683 0.82911 0.0
C225 C 0.06819 0.69831 0.78476 0.0
C226 C 0.05228 0.63131 0.73317 0.0
C227 C 0.02122 0.68967 0.85402 0.0
C228 C 0.05438 0.62944 0.90139 0.0
C229 C 0.00505 0.62691 0.8004 0.0
O230 O 0.09412 0.65467 0.84042 0.0
O231 O 0.05382 0.68962 0.76743 0.0
O232 O 0.05642 0.62016 0.7603 0.0
O233 O 0.03771 0.6845 0.87005 0.0
O234 O 0.04975 0.61811 0.8748 0.0
O235 O 0.00716 0.64498 0.78804 0.0
O236 O 0.06056 0.64782 0.89772 0.0
O237 O 0.01723 0.68538 0.82126 0.0
O238 O 0.01998 0.61636 0.81269 0.0
O239 O 0.07319 0.69305 0.81655 0.0
O240 O 0.08567 0.62312 0.82148 0.0
O241 O 0.04327 0.64862 0.73553 0.0
Sc242 Sc 0.82515 0.06279 0.36721 0.0
Sc243 Sc 0.82806 0.0317 0.28967 0.0
Sc244 Sc 0.87297 0.05222 0.32868 0.0
O245 O 0.84206 0.04886 0.3284 0.0
C246 C 0.85685 0.09753 0.34865 0.0
C247 C 0.79529 0.06716 0.29906 0.0
C248 C 0.86208 0.05666 0.24544 0.0
C249 C 0.8059 0.01812 0.36293 0.0
C250 C 0.86531 0.04951 0.41186 0.0
C251 C 0.86838 0.00552 0.30303 0.0
O252 O 0.83847 0.09233 0.35597 0.0
O253 O 0.8048 0.05421 0.27972 0.0
O254 O 0.87296 0.06069 0.27298 0.0
O255 O 0.81138 0.03396 0.38061 0.0
O256 O 0.87603 0.04448 0.38466 0.0
O257 O 0.84966 0.00716 0.29409 0.0
O258 O 0.84747 0.0573 0.409 0.0
O259 O 0.80921 0.0158 0.32924 0.0
O260 O 0.87879 0.02048 0.31539 0.0
O261 O 0.80019 0.07082 0.33159 0.0
O262 O 0.87087 0.08453 0.34128 0.0
O263 O 0.84585 0.04571 0.24663 0.0
Sc264 Sc 0.43539 0.62575 0.16924 0.0
Sc265 Sc 0.45805 0.66943 0.20894 0.0
Sc266 Sc 0.41788 0.67477 0.14585 0.0
O267 O 0.43715 0.65665 0.1748 0.0
C268 C 0.42597 0.63834 0.08934 0.0
C269 C 0.48369 0.63178 0.17726 0.0
C270 C 0.46175 0.69544 0.13592 0.0
C271 C 0.44065 0.63162 0.25432 0.0
C272 C 0.38809 0.6401 0.17279 0.0
C273 C 0.42134 0.70088 0.21865 0.0
O274 O 0.43509 0.62654 0.11139 0.0
O275 O 0.4821 0.64908 0.19275 0.0
O276 O 0.44392 0.69072 0.12441 0.0
O277 O 0.43525 0.62167 0.22641 0.0
O278 O 0.39133 0.65901 0.16608 0.0
O279 O 0.43692 0.69143 0.23065 0.0
O280 O 0.40221 0.6265 0.17204 0.0
O281 O 0.44932 0.64918 0.25296 0.0
O282 O 0.41368 0.69716 0.18788 0.0
O283 O 0.4682 0.62153 0.16674 0.0
O284 O 0.41811 0.65538 0.09878 0.0
O285 O 0.46854 0.69031 0.16699 0.0
Sc286 Sc 0.86688 0.43736 0.67323 0.0
Sc287 Sc 0.81973 0.4604 0.6946 0.0
Sc288 Sc 0.82178 0.42139 0.62916 0.0
O289 O 0.83612 0.43967 0.66553 0.0
C290 C 0.86406 0.42964 0.58851 0.0
C291 C 0.86148 0.48498 0.67987 0.0
C292 C 0.80265 0.46621 0.61523 0.0
C293 C 0.84966 0.44311 0.75354 0.0
C294 C 0.8527 0.39051 0.66846 0.0
C295 C 0.7872 0.42396 0.68933 0.0
O296 O 0.87408 0.43361 0.61702 0.0
O297 O 0.84353 0.48306 0.6928 0.0
O298 O 0.80607 0.44756 0.60645 0.0
O299 O 0.86405 0.44063 0.73076 0.0
O300 O 0.83698 0.39411 0.64893 0.0
O301 O 0.79348 0.44109 0.70116 0.0
O302 O 0.86458 0.40459 0.68006 0.0
O303 O 0.83146 0.44822 0.74477 0.0
O304 O 0.79646 0.41414 0.6646 0.0
O305 O 0.87163 0.4699 0.66728 0.0
O306 O 0.84494 0.42581 0.58857 0.0
O307 O 0.807 0.47364 0.64611 0.0
Sc308 Sc 0.05673 0.86753 0.16995 0.0
Sc309 Sc 0.03352 0.82315 0.20574 0.0
Sc310 Sc 0.07307 0.81886 0.14102 0.0
O311 O 0.05446 0.83649 0.17224 0.0
C312 C 0.0667 0.85705 0.08814 0.0
C313 C 0.0087 0.86176 0.17412 0.0
C314 C 0.02893 0.79847 0.13166 0.0
C315 C 0.04867 0.86003 0.25423 0.0
C316 C 0.10345 0.85231 0.17372 0.0
C317 C 0.07029 0.79127 0.21238 0.0
O318 O 0.06089 0.86921 0.11278 0.0
O319 O 0.01015 0.84504 0.19173 0.0
O320 O 0.04691 0.80272 0.12033 0.0
O321 O 0.05306 0.87095 0.22693 0.0
O322 O 0.10005 0.83463 0.16016 0.0
O323 O 0.05425 0.79984 0.22462 0.0
O324 O 0.08943 0.86575 0.17847 0.0
O325 O 0.04275 0.84145 0.25174 0.0
O326 O 0.07829 0.79624 0.1824 0.0
O327 O 0.02424 0.87134 0.16181 0.0
O328 O 0.07131 0.83843 0.09424 0.0
O329 O 0.02215 0.80385 0.16253 0.0
Sc330 Sc 0.62281 0.05379 0.66383 0.0
Sc331 Sc 0.66917 0.03429 0.69869 0.0
Sc332 Sc 0.66976 0.06818 0.62445 0.0
O333 O 0.65391 0.0521 0.66234 0.0
C334 C 0.62923 0.05678 0.57959 0.0
C335 C 0.62974 0.0067 0.68198 0.0
C336 C 0.6898 0.0236 0.62277 0.0
C337 C 0.63475 0.05462 0.74765 0.0
C338 C 0.63722 0.10064 0.65217 0.0
C339 C 0.70107 0.07074 0.69091 0.0
O340 O 0.61873 0.05115 0.60665 0.0
O341 O 0.6476 0.00979 0.69447 0.0
O342 O 0.68449 0.04028 0.60732 0.0
O343 O 0.62255 0.05699 0.72124 0.0
O344 O 0.65503 0.09652 0.6398 0.0
O345 O 0.69272 0.05635 0.70857 0.0
O346 O 0.62406 0.08687 0.66033 0.0
O347 O 0.65277 0.04726 0.74413 0.0
O348 O 0.69496 0.07609 0.65976 0.0
O349 O 0.61884 0.02093 0.6682 0.0
O350 O 0.64742 0.06358 0.58245 0.0
O351 O 0.68653 0.01962 0.65597 0.0
C352 C 0.5893 0.22995 0.22059 0.0
C353 C 0.57426 0.21671 0.23469 0.0
C354 C 0.59635 0.24661 0.2408 0.0
C355 C 0.57973 0.2806 0.31434 0.0
H356 H 0.63507 0.30187 0.30428 0.0
C357 C 0.59922 0.3656 0.33285 0.0
C358 C 0.61868 0.3713 0.3459 0.0
C359 C 0.59437 0.34495 0.32756 0.0
C360 C 0.61966 0.29597 0.30803 0.0
H361 H 0.55564 0.20991 0.28187 0.0
H362 H 0.56824 0.23876 0.31734 0.0
H363 H 0.62671 0.2682 0.27971 0.0
H364 H 0.64787 0.35963 0.36567 0.0
H365 H 0.63923 0.32351 0.35684 0.0
H366 H 0.57266 0.30838 0.34259 0.0
C367 C 0.57422 0.23656 0.29032 0.0
C368 C 0.61479 0.27679 0.29348 0.0
C369 C 0.56703 0.22 0.27 0.0
C370 C 0.63279 0.3558 0.35529 0.0
C371 C 0.6279 0.3351 0.35009 0.0
C372 C 0.58462 0.29971 0.32909 0.0
C373 C 0.58867 0.25028 0.2757 0.0
C374 C 0.59462 0.26917 0.29553 0.0
C375 C 0.6088 0.32949 0.33537 0.0
C376 C 0.60447 0.30789 0.32512 0.0
H377 H 0.59518 0.22787 0.19347 0.0
H378 H 0.60726 0.25704 0.22847 0.0
H379 H 0.564 0.27528 0.31624 0.0
H380 H 0.58794 0.37709 0.32533 0.0
H381 H 0.57963 0.34122 0.31571 0.0
C382 C 0.26413 0.59674 0.69805 0.0
C383 C 0.27746 0.58414 0.71808 0.0
C384 C 0.24677 0.60536 0.71441 0.0
C385 C 0.21209 0.59482 0.79039 0.0
H386 H 0.18781 0.64718 0.76401 0.0
C387 C 0.12674 0.61222 0.81157 0.0
C388 C 0.12087 0.63203 0.82267 0.0
C389 C 0.14714 0.60795 0.80292 0.0
C390 C 0.19454 0.63264 0.77204 0.0
H391 H 0.28408 0.57209 0.77149 0.0
H392 H 0.25419 0.58749 0.80008 0.0
H393 H 0.22195 0.63817 0.74144 0.0
H394 H 0.13204 0.66282 0.83412 0.0
H395 H 0.1678 0.65522 0.81918 0.0
H396 H 0.18479 0.58923 0.82089 0.0
C397 C 0.25669 0.59018 0.77155 0.0
C398 C 0.21398 0.62739 0.75879 0.0
C399 C 0.27385 0.5814 0.75517 0.0
C400 C 0.13602 0.64738 0.82567 0.0
C401 C 0.15647 0.64309 0.81689 0.0
C402 C 0.19275 0.60007 0.80362 0.0
C403 C 0.24259 0.6017 0.75114 0.0
C404 C 0.22282 0.60828 0.76742 0.0
C405 C 0.16219 0.62336 0.80516 0.0
C406 C 0.1836 0.61885 0.79405 0.0
H407 H 0.26656 0.59912 0.66942 0.0
H408 H 0.23614 0.61406 0.69787 0.0
H409 H 0.21831 0.57986 0.79722 0.0
H410 H 0.11552 0.60002 0.80888 0.0
H411 H 0.15101 0.59266 0.79348 0.0
C412 C 0.88216 0.12565 0.33729 0.0
C413 C 0.86212 0.11963 0.34668 0.0
C414 C 0.88687 0.1463 0.33189 0.0
C415 C 0.89567 0.19163 0.33278 0.0
H416 H 0.85685 0.22116 0.27258 0.0
C417 C 0.91628 0.26967 0.26869 0.0
C418 C 0.91092 0.27175 0.2321 0.0
C419 C 0.90831 0.25357 0.28936 0.0
C420 C 0.86786 0.21312 0.28941 0.0
H421 H 0.83153 0.1308 0.3596 0.0
H422 H 0.83989 0.16703 0.35049 0.0
H423 H 0.8472 0.18811 0.29826 0.0
H424 H 0.89276 0.25868 0.18866 0.0
H425 H 0.87939 0.23036 0.22427 0.0
H426 H 0.91685 0.21591 0.32186 0.0
C427 C 0.85185 0.15563 0.34678 0.0
C428 C 0.86221 0.19431 0.30458 0.0
C429 C 0.8471 0.13488 0.35213 0.0
C430 C 0.89718 0.25758 0.21679 0.0
C431 C 0.88934 0.24142 0.23734 0.0
C432 C 0.90138 0.21035 0.31737 0.0
C433 C 0.8717 0.16151 0.33591 0.0
C434 C 0.87631 0.18303 0.32545 0.0
C435 C 0.8949 0.23914 0.2738 0.0
C436 C 0.88776 0.22098 0.29456 0.0
H437 H 0.89416 0.11437 0.33293 0.0
H438 H 0.90223 0.15021 0.32296 0.0
H439 H 0.90675 0.18348 0.3493 0.0
H440 H 0.92666 0.28047 0.28144 0.0
H441 H 0.9127 0.25239 0.31748 0.0
C442 C 0.36067 0.85129 0.82429 0.0
C443 C 0.37711 0.86465 0.8166 0.0
C444 C 0.34085 0.85579 0.8121 0.0
C445 C 0.31427 0.88487 0.74128 0.0
H446 H 0.26607 0.87863 0.80191 0.0
C447 C 0.23278 0.89834 0.68596 0.0
C448 C 0.22049 0.91142 0.70711 0.0
C449 C 0.25095 0.89011 0.69994 0.0
C450 C 0.27941 0.8804 0.78468 0.0
H451 H 0.38538 0.89359 0.79109 0.0
H452 H 0.35084 0.90141 0.77015 0.0
H453 H 0.30002 0.8702 0.82611 0.0
H454 H 0.21719 0.92529 0.76014 0.0
H455 H 0.24887 0.91105 0.78428 0.0
H456 H 0.29382 0.89554 0.70016 0.0
C457 C 0.35337 0.88732 0.78514 0.0
C458 C 0.29879 0.87546 0.79844 0.0
C459 C 0.37314 0.88289 0.79741 0.0
C460 C 0.22634 0.91539 0.74298 0.0
C461 C 0.24443 0.90709 0.75698 0.0
C462 C 0.29492 0.8897 0.72749 0.0
C463 C 0.33711 0.87367 0.79187 0.0
C464 C 0.31643 0.87795 0.77702 0.0
C465 C 0.25711 0.89469 0.7354 0.0
C466 C 0.27733 0.88777 0.74918 0.0
H467 H 0.36316 0.83711 0.83902 0.0
H468 H 0.32859 0.84497 0.81757 0.0
H469 H 0.32758 0.88665 0.72399 0.0
H470 H 0.22867 0.89489 0.65828 0.0
H471 H 0.26035 0.8804 0.68285 0.0
C472 C 0.59699 0.2708 0.76939 0.0
C473 C 0.57889 0.27887 0.75416 0.0
C474 C 0.60659 0.25375 0.75406 0.0
C475 C 0.60964 0.20862 0.73627 0.0
H476 H 0.61723 0.19742 0.63426 0.0
C477 C 0.61481 0.12695 0.68138 0.0
C478 C 0.63173 0.12233 0.65921 0.0
C479 C 0.61023 0.14724 0.69022 0.0
C480 C 0.61534 0.20047 0.66281 0.0
H481 H 0.55761 0.27626 0.70927 0.0
H482 H 0.57438 0.24631 0.68266 0.0
H483 H 0.607 0.23202 0.65393 0.0
H484 H 0.6567 0.13549 0.62792 0.0
H485 H 0.64837 0.17122 0.64318 0.0
H486 H 0.61737 0.17707 0.74523 0.0
C487 C 0.58109 0.25327 0.70645 0.0
C488 C 0.60941 0.22015 0.67401 0.0
C489 C 0.57142 0.27034 0.72185 0.0
C490 C 0.64362 0.13855 0.6452 0.0
C491 C 0.63884 0.15896 0.65374 0.0
C492 C 0.61531 0.18899 0.72509 0.0
C493 C 0.59836 0.24443 0.72313 0.0
C494 C 0.60633 0.22431 0.71085 0.0
C495 C 0.62232 0.16339 0.67684 0.0
C496 C 0.61791 0.18467 0.68828 0.0
H497 H 0.60338 0.27715 0.79397 0.0
H498 H 0.62008 0.2474 0.76713 0.0
H499 H 0.60714 0.21131 0.7648 0.0
H500 H 0.60533 0.11487 0.69269 0.0
H501 H 0.59727 0.15033 0.70778 0.0
C502 C 0.35046 0.64726 0.18079 0.0
C503 C 0.3672 0.63364 0.18364 0.0
C504 C 0.33098 0.64139 0.19285 0.0
C505 C 0.30594 0.60614 0.25611 0.0
H506 H 0.25713 0.61505 0.19805 0.0
C507 C 0.22499 0.58749 0.30922 0.0
C508 C 0.21274 0.57569 0.28584 0.0
C509 C 0.24308 0.59658 0.29677 0.0
C510 C 0.27065 0.6125 0.21453 0.0
H511 H 0.37649 0.6031 0.20105 0.0
H512 H 0.34256 0.59297 0.22197 0.0
H513 H 0.29058 0.62657 0.17564 0.0
H514 H 0.20955 0.56481 0.23069 0.0
H515 H 0.24113 0.58066 0.20912 0.0
H516 H 0.28617 0.59174 0.29467 0.0
C517 C 0.34456 0.6082 0.21064 0.0
C518 C 0.28972 0.61921 0.20184 0.0
C519 C 0.36397 0.61397 0.19837 0.0
C520 C 0.21867 0.5737 0.24949 0.0
C521 C 0.23668 0.58291 0.23702 0.0
C522 C 0.28689 0.59958 0.26889 0.0
C523 C 0.32794 0.6219 0.20828 0.0
C524 C 0.30756 0.61583 0.22233 0.0
C525 C 0.24919 0.59419 0.26065 0.0
C526 C 0.2691 0.60249 0.24805 0.0
H527 H 0.35242 0.66251 0.16954 0.0
H528 H 0.31841 0.65226 0.19087 0.0
H529 H 0.31944 0.60356 0.27262 0.0
H530 H 0.22084 0.5894 0.33735 0.0
H531 H 0.25236 0.60538 0.31546 0.0
C532 C 0.87199 0.36469 0.70531 0.0
C533 C 0.85746 0.36897 0.67824 0.0
C534 C 0.87657 0.34444 0.71468 0.0
C535 C 0.87635 0.29182 0.68063 0.0
H536 H 0.88078 0.27771 0.78209 0.0
C537 C 0.91964 0.22065 0.73583 0.0
C538 C 0.91138 0.21072 0.76629 0.0
C539 C 0.91027 0.23831 0.72192 0.0
C540 C 0.87935 0.28131 0.75364 0.0
H541 H 0.83644 0.35527 0.63963 0.0
H542 H 0.84463 0.31977 0.65601 0.0
H543 H 0.86973 0.31211 0.76476 0.0
H544 H 0.88594 0.21072 0.80432 0.0
H545 H 0.8697 0.24142 0.77996 0.0
H546 H 0.88631 0.26101 0.66962 0.0
C547 C 0.85242 0.33219 0.66985 0.0
C548 C 0.87323 0.30106 0.74375 0.0
C549 C 0.84767 0.3525 0.66066 0.0
C550 C 0.89291 0.21813 0.78115 0.0
C551 C 0.8836 0.23575 0.76728 0.0
C552 C 0.88263 0.27204 0.69055 0.0
C553 C 0.86685 0.328 0.69706 0.0
C554 C 0.87193 0.3066 0.70719 0.0
C555 C 0.8925 0.24636 0.73822 0.0
C556 C 0.88437 0.26668 0.72718 0.0
H557 H 0.8798 0.37698 0.71945 0.0
H558 H 0.88794 0.34163 0.73547 0.0
H559 H 0.87555 0.29575 0.65224 0.0
H560 H 0.93379 0.21531 0.72361 0.0
H561 H 0.91753 0.24624 0.69957 0.0
C562 C 0.12849 0.87592 0.20375 0.0
C563 C 0.12449 0.8572 0.18614 0.0
C564 C 0.14799 0.88012 0.21739 0.0
C565 C 0.20233 0.86657 0.20838 0.0
H566 H 0.20638 0.89234 0.30252 0.0
C567 C 0.27355 0.91092 0.25625 0.0
C568 C 0.27928 0.90963 0.29279 0.0
C569 C 0.25575 0.90129 0.24398 0.0
C570 C 0.20555 0.88487 0.27644 0.0
H571 H 0.13806 0.82837 0.16853 0.0
H572 H 0.17219 0.83582 0.1924 0.0
H573 H 0.17288 0.88188 0.2797 0.0
H574 H 0.2712 0.89647 0.34478 0.0
H575 H 0.24005 0.87962 0.32319 0.0
H576 H 0.23502 0.86973 0.20505 0.0
C577 C 0.16016 0.84721 0.1955 0.0
C578 C 0.18635 0.87912 0.26319 0.0
C579 C 0.14059 0.84294 0.18191 0.0
C580 C 0.26717 0.89788 0.31652 0.0
C581 C 0.2493 0.88829 0.30422 0.0
C582 C 0.22156 0.87237 0.2216 0.0
C583 C 0.16396 0.86575 0.21369 0.0
C584 C 0.18451 0.87028 0.22876 0.0
C585 C 0.24326 0.89017 0.26795 0.0
C586 C 0.2233 0.8819 0.25551 0.0
H587 H 0.1165 0.88729 0.20744 0.0
H588 H 0.15058 0.89471 0.23072 0.0
H589 H 0.20134 0.85983 0.1817 0.0
H590 H 0.28256 0.91974 0.23715 0.0
H591 H 0.25137 0.90321 0.21597 0.0
C592 C 0.38273 0.62401 0.69699 0.0
C593 C 0.36655 0.62006 0.67284 0.0
C594 C 0.38818 0.64415 0.70547 0.0
C595 C 0.38588 0.69745 0.67435 0.0
H596 H 0.39216 0.71006 0.77609 0.0
C597 C 0.399 0.77049 0.7771 0.0
C598 C 0.4169 0.77927 0.76242 0.0
C599 C 0.3909 0.75245 0.7627 0.0
C600 C 0.39027 0.70683 0.7476 0.0
H601 H 0.34382 0.63424 0.6378 0.0
H602 H 0.35355 0.66953 0.65258 0.0
H603 H 0.38252 0.67542 0.7578 0.0
H604 H 0.43944 0.77672 0.71939 0.0
H605 H 0.42519 0.74511 0.69428 0.0
H606 H 0.39391 0.72895 0.66429 0.0
C607 C 0.36191 0.65694 0.66489 0.0
C608 C 0.38498 0.68697 0.73714 0.0
C609 C 0.3563 0.63675 0.65664 0.0
C610 C 0.42572 0.7703 0.73152 0.0
C611 C 0.41752 0.75225 0.717 0.0
C612 C 0.39141 0.71735 0.68484 0.0
C613 C 0.37771 0.66079 0.68977 0.0
C614 C 0.38286 0.68205 0.70045 0.0
C615 C 0.40043 0.74284 0.73319 0.0
C616 C 0.39367 0.72218 0.72158 0.0
H617 H 0.39096 0.61154 0.70995 0.0
H618 H 0.40058 0.64674 0.72444 0.0
H619 H 0.38439 0.69399 0.64587 0.0
H620 H 0.39164 0.77709 0.80063 0.0
H621 H 0.37749 0.74566 0.7753 0.0
C622 C 0.71077 0.40522 0.2443 0.0
C623 C 0.70476 0.40386 0.28069 0.0
C624 C 0.72825 0.39491 0.2321 0.0
C625 C 0.77753 0.37736 0.2663 0.0
H626 H 0.78338 0.35311 0.17118 0.0
C627 C 0.85546 0.36993 0.19654 0.0
C628 C 0.86022 0.35111 0.17987 0.0
C629 C 0.83566 0.37377 0.20916 0.0
C630 C 0.78189 0.35963 0.19795 0.0
H631 H 0.71175 0.38959 0.3323 0.0
H632 H 0.74226 0.37162 0.31088 0.0
H633 H 0.74926 0.36307 0.19294 0.0
H634 H 0.84776 0.32172 0.16274 0.0
H635 H 0.813 0.32862 0.18468 0.0
H636 H 0.81013 0.37431 0.27112 0.0
C637 C 0.73355 0.38088 0.29197 0.0
C638 C 0.76244 0.36544 0.21029 0.0
C639 C 0.71604 0.39115 0.30418 0.0
C640 C 0.84461 0.33636 0.17552 0.0
C641 C 0.82471 0.3403 0.18794 0.0
C642 C 0.79693 0.37168 0.25391 0.0
C643 C 0.74008 0.38306 0.25604 0.0
C644 C 0.76015 0.37467 0.24435 0.0
C645 C 0.82016 0.35895 0.20524 0.0
C646 C 0.79934 0.36314 0.21937 0.0
H647 H 0.70236 0.41476 0.22539 0.0
H648 H 0.73302 0.39702 0.20432 0.0
H649 H 0.77628 0.38463 0.29251 0.0
H650 H 0.86708 0.38163 0.2004 0.0
H651 H 0.83247 0.38841 0.22191 0.0
C652 C 0.14586 0.85379 0.65355 0.0
C653 C 0.13222 0.87008 0.66079 0.0
C654 C 0.14094 0.83371 0.66402 0.0
C655 C 0.11131 0.80698 0.73251 0.0
H656 H 0.11366 0.7591 0.67025 0.0
C657 C 0.07459 0.72185 0.73226 0.0
C658 C 0.07923 0.71566 0.76774 0.0
C659 C 0.08403 0.73914 0.71727 0.0
C660 C 0.11303 0.77236 0.68788 0.0
H661 H 0.10236 0.87784 0.68344 0.0
H662 H 0.09402 0.84302 0.70171 0.0
H663 H 0.12398 0.79286 0.64666 0.0
H664 H 0.09822 0.72224 0.81458 0.0
H665 H 0.11452 0.75242 0.7884 0.0
H666 H 0.10003 0.78684 0.77349 0.0
C667 C 0.10853 0.84581 0.68821 0.0
C668 C 0.11903 0.79156 0.6745 0.0
C669 C 0.11331 0.86575 0.67754 0.0
C670 C 0.09411 0.72666 0.78732 0.0
C671 C 0.10345 0.74397 0.77238 0.0
C672 C 0.10555 0.78785 0.74594 0.0
C673 C 0.12244 0.8297 0.6822 0.0
C674 C 0.11781 0.80906 0.69657 0.0
C675 C 0.0982 0.75061 0.73752 0.0
C676 C 0.10607 0.77041 0.72365 0.0
H677 H 0.16051 0.8566 0.64058 0.0
H678 H 0.15189 0.82147 0.65913 0.0
H679 H 0.11046 0.82024 0.75014 0.0
H680 H 0.06332 0.71365 0.71632 0.0
H681 H 0.07959 0.74404 0.69041 0.0
C682 C 0.6255 0.11259 0.19445 0.0
C683 C 0.62133 0.13271 0.18263 0.0
C684 C 0.64531 0.10696 0.20481 0.0
C685 C 0.69042 0.09608 0.20462 0.0
H686 H 0.72225 0.13213 0.26643 0.0
C687 C 0.77267 0.07548 0.24644 0.0
C688 C 0.77729 0.07776 0.28331 0.0
C689 C 0.75486 0.08412 0.23199 0.0
C690 C 0.71351 0.12191 0.24922 0.0
H691 H 0.63482 0.16271 0.17239 0.0
H692 H 0.66948 0.15276 0.1903 0.0
H693 H 0.68832 0.14301 0.24556 0.0
H694 H 0.76717 0.0916 0.33359 0.0
H695 H 0.7359 0.10642 0.30839 0.0
H696 H 0.7152 0.07469 0.20917 0.0
C697 C 0.65731 0.14143 0.19181 0.0
C698 C 0.6942 0.12821 0.23699 0.0
C699 C 0.63747 0.14708 0.18139 0.0
C700 C 0.76407 0.08952 0.3051 0.0
C701 C 0.7462 0.09812 0.29062 0.0
C702 C 0.70969 0.0898 0.2168 0.0
C703 C 0.66142 0.12131 0.20359 0.0
C704 C 0.68237 0.11524 0.21493 0.0
C705 C 0.74124 0.09518 0.25407 0.0
C706 C 0.72136 0.10255 0.2395 0.0
H707 H 0.61345 0.10113 0.19591 0.0
H708 H 0.64796 0.09142 0.2143 0.0
H709 H 0.68175 0.08587 0.18727 0.0
H710 H 0.78263 0.06673 0.22876 0.0
H711 H 0.75163 0.08192 0.20357 0.0
C712 C 0.38534 0.86485 0.33949 0.0
C713 C 0.36565 0.87111 0.35058 0.0
C714 C 0.38984 0.84409 0.33477 0.0
C715 C 0.36437 0.79569 0.31272 0.0
H716 H 0.41932 0.77407 0.32703 0.0
C717 C 0.39755 0.73083 0.22612 0.0
C718 C 0.41203 0.71723 0.24105 0.0
C719 C 0.38974 0.74708 0.24652 0.0
C720 C 0.40376 0.77963 0.32344 0.0
H721 H 0.33552 0.86029 0.36715 0.0
H722 H 0.34352 0.8239 0.35917 0.0
H723 H 0.4101 0.80714 0.35295 0.0
H724 H 0.42886 0.7094 0.28978 0.0
H725 H 0.41496 0.73759 0.32554 0.0
H726 H 0.35808 0.76822 0.28303 0.0
C727 C 0.35535 0.83517 0.35365 0.0
C728 C 0.39856 0.79872 0.33795 0.0
C729 C 0.35081 0.85602 0.35836 0.0
C730 C 0.41793 0.71977 0.2773 0.0
C731 C 0.40999 0.73595 0.2978 0.0
C732 C 0.36953 0.77652 0.29841 0.0
C733 C 0.3748 0.82903 0.34115 0.0
C734 C 0.37906 0.80729 0.33165 0.0
C735 C 0.3961 0.75001 0.28243 0.0
C736 C 0.38951 0.76861 0.30254 0.0
H737 H 0.39718 0.87601 0.33332 0.0
H738 H 0.40488 0.83994 0.32456 0.0
H739 H 0.34923 0.80188 0.30724 0.0
H740 H 0.39267 0.72933 0.19829 0.0
H741 H 0.37933 0.7578 0.23361 0.0
C742 C 0.62912 0.348 0.81157 0.0
C743 C 0.61403 0.36289 0.81898 0.0
C744 C 0.64859 0.35388 0.79956 0.0
C745 C 0.67429 0.3978 0.75511 0.0
H746 H 0.72423 0.36808 0.77876 0.0
C747 C 0.75445 0.4289 0.72306 0.0
C748 C 0.76795 0.41566 0.70467 0.0
C749 C 0.73608 0.42153 0.73728 0.0
C750 C 0.71033 0.37635 0.77175 0.0
H751 H 0.60788 0.39561 0.82187 0.0
H752 H 0.64206 0.40593 0.80232 0.0
H753 H 0.6916 0.35751 0.80585 0.0
H754 H 0.77293 0.38419 0.68733 0.0
H755 H 0.74065 0.37118 0.71297 0.0
H756 H 0.69314 0.41695 0.72183 0.0
C757 C 0.63867 0.38967 0.80446 0.0
C758 C 0.69167 0.37034 0.78719 0.0
C759 C 0.61912 0.38379 0.81595 0.0
C760 C 0.76278 0.39476 0.70122 0.0
C761 C 0.74443 0.38731 0.71601 0.0
C762 C 0.69293 0.40394 0.74012 0.0
C763 C 0.65345 0.37479 0.79514 0.0
C764 C 0.67343 0.38109 0.77918 0.0
C765 C 0.73088 0.40072 0.73383 0.0
C766 C 0.71111 0.39335 0.74844 0.0
H767 H 0.62562 0.33174 0.81341 0.0
H768 H 0.6595 0.342 0.79234 0.0
H769 H 0.66051 0.40608 0.7475 0.0
H770 H 0.75792 0.44509 0.72613 0.0
H771 H 0.72594 0.43212 0.75119 0.0
C772 C 0.09416 0.7612 0.21739 0.0
C773 C 0.07982 0.77448 0.23353 0.0
C774 C 0.10219 0.74457 0.2366 0.0
C775 C 0.08919 0.71079 0.31289 0.0
H776 H 0.1433 0.68846 0.29307 0.0
C777 C 0.14215 0.63393 0.34496 0.0
C778 C 0.12696 0.619 0.33847 0.0
C779 C 0.13783 0.65482 0.33976 0.0
C780 C 0.12829 0.69466 0.29952 0.0
H781 H 0.0635 0.78136 0.28319 0.0
H782 H 0.07786 0.75258 0.31696 0.0
H783 H 0.13417 0.7224 0.27021 0.0
H784 H 0.09513 0.61445 0.32262 0.0
H785 H 0.08784 0.6505 0.31307 0.0
H786 H 0.0833 0.68309 0.34217 0.0
C787 C 0.0825 0.75471 0.28913 0.0
C788 C 0.12294 0.714 0.28597 0.0
C789 C 0.0743 0.77123 0.26979 0.0
C790 C 0.10725 0.62546 0.32784 0.0
C791 C 0.10297 0.64623 0.32267 0.0
C792 C 0.09458 0.69156 0.32664 0.0
C793 C 0.09624 0.74094 0.27256 0.0
C794 C 0.10309 0.72199 0.2915 0.0
C795 C 0.11826 0.66115 0.32811 0.0
C796 C 0.11392 0.68296 0.31904 0.0
H797 H 0.09873 0.76324 0.18949 0.0
H798 H 0.11246 0.73411 0.22274 0.0
H799 H 0.07373 0.71636 0.31756 0.0
H800 H 0.15748 0.6295 0.35327 0.0
H801 H 0.14988 0.66598 0.34446 0.0
C802 C 0.85856 0.13915 0.82962 0.0
C803 C 0.87489 0.12548 0.82276 0.0
C804 C 0.83879 0.13483 0.81704 0.0
C805 C 0.8128 0.10572 0.74575 0.0
H806 H 0.76366 0.11389 0.80324 0.0
C807 C 0.72426 0.07739 0.7434 0.0
C808 C 0.71917 0.08099 0.70703 0.0
C809 C 0.74222 0.0855 0.75811 0.0
C810 C 0.77726 0.11159 0.78688 0.0
H811 H 0.88292 0.09608 0.79872 0.0
H812 H 0.84845 0.08858 0.77715 0.0
H813 H 0.79733 0.1216 0.82921 0.0
H814 H 0.72856 0.0967 0.65803 0.0
H815 H 0.76005 0.11088 0.68387 0.0
H816 H 0.79288 0.09524 0.70375 0.0
C817 C 0.85106 0.10278 0.79171 0.0
C818 C 0.79649 0.1161 0.80165 0.0
C819 C 0.87078 0.10703 0.80435 0.0
C820 C 0.73207 0.09356 0.68608 0.0
C821 C 0.75015 0.1016 0.7008 0.0
C822 C 0.7936 0.10131 0.73094 0.0
C823 C 0.83496 0.11682 0.79727 0.0
C824 C 0.81446 0.11291 0.78139 0.0
C825 C 0.75555 0.09735 0.73679 0.0
C826 C 0.77566 0.10394 0.75149 0.0
H827 H 0.86115 0.15349 0.84373 0.0
H828 H 0.82666 0.14595 0.82166 0.0
H829 H 0.82638 0.10342 0.72931 0.0
H830 H 0.7146 0.0679 0.76042 0.0
H831 H 0.74606 0.08179 0.78582 0.0
C832 C 0.57806 0.13997 0.02336 0.0
C833 C 0.56808 0.12762 0.04913 0.0
C834 C 0.58446 0.13163 0.99051 0.0
C835 C 0.57748 0.08738 0.92935 0.0
H836 H 0.63227 0.1019 0.89681 0.0
C837 C 0.64049 0.06163 0.81376 0.0
C838 C 0.62736 0.06119 0.78364 0.0
C839 C 0.6333 0.06874 0.84712 0.0
C840 C 0.61705 0.09752 0.90578 0.0
H841 H 0.5561 0.09702 0.05971 0.0
H842 H 0.56737 0.08252 0.0026 0.0
H843 H 0.61877 0.1169 0.95232 0.0
H844 H 0.59624 0.06758 0.76526 0.0
H845 H 0.58397 0.08002 0.82286 0.0
H846 H 0.57586 0.06778 0.88315 0.0
C847 C 0.57018 0.09867 0.00773 0.0
C848 C 0.60919 0.10635 0.93725 0.0
C849 C 0.56377 0.107 0.04055 0.0
C850 C 0.60686 0.06768 0.78778 0.0
C851 C 0.59971 0.0747 0.82095 0.0
C852 C 0.58533 0.07857 0.89793 0.0
C853 C 0.581 0.11077 0.98272 0.0
C854 C 0.58927 0.10147 0.94922 0.0
C855 C 0.61283 0.07541 0.85094 0.0
C856 C 0.60513 0.08367 0.88565 0.0
H857 H 0.58151 0.15595 0.02893 0.0
H858 H 0.59238 0.14144 0.97141 0.0
H859 H 0.56205 0.08339 0.9378 0.0
H860 H 0.65636 0.05674 0.81149 0.0
H861 H 0.64371 0.06898 0.86992 0.0
C862 C 0.364 0.55604 0.52257 0.0
C863 C 0.37558 0.55713 0.55443 0.0
C864 C 0.37279 0.56144 0.48955 0.0
C865 C 0.42213 0.57569 0.44413 0.0
H866 H 0.38523 0.60763 0.38388 0.0
C867 C 0.44574 0.62779 0.32141 0.0
C868 C 0.43522 0.62254 0.28959 0.0
C869 C 0.44003 0.61893 0.35443 0.0
C870 C 0.39568 0.59874 0.40051 0.0
H871 H 0.40576 0.56349 0.57658 0.0
H872 H 0.42091 0.57362 0.51927 0.0
H873 H 0.37237 0.59222 0.4392 0.0
H874 H 0.41037 0.60411 0.26747 0.0
H875 H 0.40028 0.58919 0.32489 0.0
H876 H 0.44558 0.58302 0.40533 0.0
C877 C 0.40518 0.5682 0.51944 0.0
C878 C 0.38829 0.58966 0.43198 0.0
C879 C 0.39648 0.5624 0.55238 0.0
C880 C 0.41892 0.60838 0.29142 0.0
C881 C 0.41305 0.59988 0.32426 0.0
C882 C 0.4296 0.58508 0.41277 0.0
C883 C 0.39321 0.56851 0.48783 0.0
C884 C 0.40133 0.57779 0.45402 0.0
C885 C 0.42348 0.6051 0.35601 0.0
C886 C 0.41634 0.59648 0.3906 0.0
H887 H 0.34791 0.55178 0.52336 0.0
H888 H 0.36331 0.5608 0.46555 0.0
H889 H 0.43258 0.56656 0.4603 0.0
H890 H 0.45838 0.63862 0.32074 0.0
H891 H 0.4482 0.62319 0.37878 0.0
C892 C 0.89747 0.3532 0.02768 0.0
C893 C 0.9136 0.36177 0.04794 0.0
C894 C 0.89069 0.36276 -0.00388 0.0
C895 C 0.90503 0.39708 0.92343 0.0
H896 H 0.84718 0.41154 0.91998 0.0
C897 C 0.87367 0.44422 0.80543 0.0
C898 C 0.85453 0.43842 0.79138 0.0
C899 C 0.8802 0.43676 0.83879 0.0
C900 C 0.8633 0.40741 0.92023 0.0
H901 H 0.93603 0.38641 0.04993 0.0
H902 H 0.92452 0.40276 0.99392 0.0
H903 H 0.8608 0.39315 0.97224 0.0
H904 H 0.82679 0.421 0.80136 0.0
H905 H 0.83844 0.40719 0.85915 0.0
H906 H 0.90759 0.41043 0.87104 0.0
C907 C 0.91698 0.38882 0.00296 0.0
C908 C 0.87108 0.39694 0.95021 0.0
C909 C 0.92354 0.37948 0.03493 0.0
C910 C 0.84154 0.42584 0.81194 0.0
C911 C 0.84826 0.41795 0.84505 0.0
C912 C 0.89721 0.40721 0.89317 0.0
C913 C 0.90017 0.38082 0.98387 0.0
C914 C 0.89199 0.39172 0.95201 0.0
C915 C 0.86795 0.42287 0.85838 0.0
C916 C 0.87625 0.41258 0.8912 0.0
H917 H 0.88942 0.33963 0.03706 0.0
H918 H 0.87782 0.35622 0.98155 0.0
H919 H 0.92118 0.39305 0.92417 0.0
H920 H 0.88387 0.45407 0.79006 0.0
H921 H 0.89513 0.44144 0.84867 0.0
C922 C 0.05469 0.85777 0.32122 0.0
C923 C 0.0515 0.86964 0.29002 0.0
C924 C 0.06008 0.8673 0.35377 0.0
C925 C 0.06376 0.89322 0.42284 0.0
H926 H 0.10655 0.93435 0.41212 0.0
C927 C 0.09738 0.93617 0.54516 0.0
C928 C 0.11895 0.9353 0.54719 0.0
C929 C 0.08727 0.931 0.51317 0.0
C930 C 0.09456 0.92296 0.41551 0.0
H931 H 0.0498 0.90084 0.26913 0.0
H932 H 0.05895 0.91727 0.32564 0.0
H933 H 0.09164 0.91851 0.35864 0.0
H934 H 0.14685 0.92988 0.51651 0.0
H935 H 0.12922 0.92108 0.46071 0.0
H936 H 0.06722 0.89729 0.47988 0.0
C937 C 0.05784 0.90065 0.32486 0.0
C938 C 0.0859 0.914 0.38493 0.0
C939 C 0.05255 0.8912 0.29251 0.0
C940 C 0.13022 0.9306 0.51589 0.0
C941 C 0.12012 0.92562 0.48387 0.0
C942 C 0.07236 0.9023 0.4535 0.0
C943 C 0.06227 0.88881 0.35554 0.0
C944 C 0.07056 0.89889 0.38827 0.0
C945 C 0.09855 0.92513 0.48254 0.0
C946 C 0.08803 0.91707 0.4501 0.0
H947 H 0.05397 0.84114 0.32011 0.0
H948 H 0.06347 0.85779 0.37704 0.0
H949 H 0.05189 0.88171 0.42616 0.0
H950 H 0.08823 0.93973 0.56878 0.0
H951 H 0.07063 0.93103 0.51267 0.0
C952 C 0.55209 0.38306 0.94754 0.0
C953 C 0.55001 0.36196 0.9403 0.0
C954 C 0.55683 0.38985 0.98222 0.0
C955 C 0.58074 0.3705 0.06639 0.0
H956 H 0.56766 0.42543 0.10015 0.0
C957 C 0.60061 0.40408 0.20764 0.0
C958 C 0.61304 0.42173 0.20612 0.0
C959 C 0.59195 0.39604 0.17625 0.0
C960 C 0.5714 0.41007 0.09088 0.0
H961 H 0.54948 0.33157 0.96436 0.0
H962 H 0.5567 0.34351 0.02544 0.0
H963 H 0.55137 0.41239 0.04542 0.0
H964 H 0.62624 0.44481 0.17085 0.0
H965 H 0.61041 0.431 0.11576 0.0
H966 H 0.60028 0.36816 0.11286 0.0
C967 C 0.55559 0.35477 0.00398 0.0
C968 C 0.56218 0.40259 0.05951 0.0
C969 C 0.55123 0.34791 0.96905 0.0
C970 C 0.6168 0.43113 0.17263 0.0
C971 C 0.6077 0.42335 0.14131 0.0
C972 C 0.58958 0.37784 0.09819 0.0
C973 C 0.55919 0.37576 0.01076 0.0
C974 C 0.56704 0.38285 0.0464 0.0
C975 C 0.59518 0.4058 0.14301 0.0
C976 C 0.58526 0.39779 0.11022 0.0
H977 H 0.55136 0.39431 0.926 0.0
H978 H 0.55973 0.40609 0.98603 0.0
H979 H 0.58523 0.3554 0.05695 0.0
H980 H 0.59757 0.3965 0.23315 0.0
H981 H 0.58234 0.38248 0.17802 0.0
C982 C 0.08719 0.55284 0.43864 0.0
C983 C 0.10844 0.54886 0.43788 0.0
C984 C 0.07755 0.55809 0.47102 0.0
C985 C 0.08246 0.55923 0.5696 0.0
H986 H 0.06016 0.61445 0.56234 0.0
C987 C 0.07472 0.60992 0.69425 0.0
C988 C 0.05762 0.62293 0.69751 0.0
C989 C 0.07862 0.59966 0.66203 0.0
C990 C 0.0659 0.59889 0.56485 0.0
H991 H 0.13579 0.54518 0.47067 0.0
H992 H 0.1188 0.55385 0.52739 0.0
H993 H 0.06959 0.59587 0.50768 0.0
H994 H 0.0314 0.6359 0.66955 0.0
H995 H 0.03791 0.61752 0.61306 0.0
H996 H 0.07888 0.56213 0.62665 0.0
C997 C 0.1097 0.55318 0.50292 0.0
C998 C 0.07129 0.58825 0.53354 0.0
C999 C 0.11943 0.54829 0.47049 0.0
C1000 C 0.0448 0.62607 0.66754 0.0
C1001 C 0.04853 0.6155 0.63529 0.0
C1002 C 0.0768 0.56973 0.60088 0.0
C1003 C 0.08892 0.559 0.50315 0.0
C1004 C 0.08009 0.56856 0.53575 0.0
C1005 C 0.06528 0.60187 0.63245 0.0
C1006 C 0.06905 0.58993 0.59895 0.0
H1007 H 0.07833 0.55345 0.41391 0.0
H1008 H 0.06147 0.56239 0.4707 0.0
H1009 H 0.0891 0.544 0.57188 0.0
H1010 H 0.08499 0.60743 0.71689 0.0
H1011 H 0.09205 0.58986 0.66046 0.0
C1012 C 0.93625 0.13648 0.97594 0.0
C1013 C 0.93727 0.12295 0.94646 0.0
C1014 C 0.93069 0.12924 0.0101 0.0
C1015 C 0.92023 0.08125 0.06296 0.0
H1016 H 0.88249 0.11702 0.11426 0.0
C1017 C 0.86675 0.05379 0.17853 0.0
C1018 C 0.86916 0.06499 0.21064 0.0
C1019 C 0.87558 0.06094 0.14645 0.0
C1020 C 0.89305 0.10693 0.10019 0.0
H1021 H 0.93448 0.09101 0.93018 0.0
H1022 H 0.92414 0.07858 0.98903 0.0
H1023 H 0.89904 0.12927 0.05935 0.0
H1024 H 0.8818 0.09275 0.23428 0.0
H1025 H 0.89662 0.10548 0.17802 0.0
H1026 H 0.9134 0.05865 0.10343 0.0
C1027 C 0.92801 0.09469 0.98627 0.0
C1028 C 0.90274 0.11398 0.06896 0.0
C1029 C 0.93391 0.10186 0.95232 0.0
C1030 C 0.8798 0.08378 0.20989 0.0
C1031 C 0.88822 0.0911 0.17778 0.0
C1032 C 0.91023 0.07408 0.09387 0.0
C1033 C 0.92568 0.10839 0.01534 0.0
C1034 C 0.91646 0.10124 0.04988 0.0
C1035 C 0.8865 0.07957 0.14597 0.0
C1036 C 0.89656 0.08688 0.11267 0.0
H1037 H 0.939 0.15278 0.97237 0.0
H1038 H 0.92967 0.14014 0.03211 0.0
H1039 H 0.93093 0.07111 0.04938 0.0
H1040 H 0.85872 0.03921 0.17851 0.0
H1041 H 0.87398 0.05189 0.12206 0.0
C1042 C 0.44525 0.89682 0.70208 0.0
C1043 C 0.44578 0.8752 0.70365 0.0
C1044 C 0.44003 0.90692 0.67023 0.0
C1045 C 0.43423 0.90061 0.57189 0.0
H1046 H 0.39398 0.94427 0.58249 0.0
C1047 C 0.36954 0.94027 0.47878 0.0
C1048 C 0.38075 0.94309 0.44671 0.0
C1049 C 0.37965 0.93593 0.51109 0.0
C1050 C 0.40529 0.9322 0.57912 0.0
H1051 H 0.44208 0.84726 0.67243 0.0
H1052 H 0.43268 0.86501 0.61651 0.0
H1053 H 0.40777 0.92739 0.63601 0.0
H1054 H 0.41145 0.94533 0.42408 0.0
H1055 H 0.42909 0.93783 0.48071 0.0
H1056 H 0.43111 0.9049 0.51488 0.0
C1057 C 0.43648 0.87408 0.64009 0.0
C1058 C 0.4133 0.92261 0.60975 0.0
C1059 C 0.44178 0.86392 0.67211 0.0
C1060 C 0.40234 0.94316 0.44826 0.0
C1061 C 0.41246 0.93868 0.4806 0.0
C1062 C 0.42626 0.91025 0.54122 0.0
C1063 C 0.43516 0.89568 0.6391 0.0
C1064 C 0.42765 0.90653 0.60645 0.0
C1065 C 0.40117 0.93426 0.51199 0.0
C1066 C 0.41147 0.92593 0.54453 0.0
H1067 H 0.44856 0.90606 0.72569 0.0
H1068 H 0.43956 0.92357 0.67011 0.0
H1069 H 0.4454 0.8884 0.56855 0.0
H1070 H 0.35289 0.94025 0.47856 0.0
H1071 H 0.37051 0.93255 0.53481 0.0
C1072 C 0.43501 0.8541 0.97341 0.0
C1073 C 0.43645 0.86765 0.94391 0.0
C1074 C 0.42896 0.86134 0.0073 0.0
C1075 C 0.39531 0.89903 0.04529 0.0
H1076 H 0.42352 0.89047 0.13617 0.0
C1077 C 0.36557 0.93427 0.17839 0.0
C1078 C 0.36928 0.92351 0.21055 0.0
C1079 C 0.37402 0.92733 0.1459 0.0
C1080 C 0.41522 0.89267 0.11114 0.0
H1081 H 0.43372 0.89961 0.92737 0.0
H1082 H 0.42276 0.91204 0.98637 0.0
H1083 H 0.43929 0.87859 0.08015 0.0
H1084 H 0.38363 0.89653 0.23395 0.0
H1085 H 0.39737 0.88378 0.17718 0.0
H1086 H 0.37084 0.91227 0.07584 0.0
C1087 C 0.4264 0.89588 0.98314 0.0
C1088 C 0.42439 0.88602 0.07911 0.0
C1089 C 0.4328 0.88874 0.94949 0.0
C1090 C 0.38076 0.90524 0.2095 0.0
C1091 C 0.3888 0.89806 0.17699 0.0
C1092 C 0.38594 0.90532 0.07731 0.0
C1093 C 0.42394 0.88215 0.01201 0.0
C1094 C 0.41454 0.88928 0.04598 0.0
C1095 C 0.38596 0.90925 0.14486 0.0
C1096 C 0.39579 0.9023 0.1107 0.0
H1097 H 0.4378 0.83779 0.96999 0.0
H1098 H 0.42714 0.85051 0.02932 0.0
H1099 H 0.38733 0.90143 0.01995 0.0
H1100 H 0.35693 0.94852 0.1786 0.0
H1101 H 0.3717 0.93654 0.12187 0.0
C1102 C 0.58891 0.44618 0.44608 0.0
C1103 C 0.61039 0.445 0.44235 0.0
C1104 C 0.57963 0.44193 0.47927 0.0
C1105 C 0.56639 0.41318 0.53948 0.0
H1106 H 0.58896 0.4267 0.63331 0.0
C1107 C 0.55183 0.36414 0.66736 0.0
C1108 C 0.5492 0.37468 0.70014 0.0
C1109 C 0.55724 0.37488 0.63599 0.0
C1110 C 0.5823 0.42294 0.60736 0.0
H1111 H 0.63904 0.44069 0.47143 0.0
H1112 H 0.62289 0.4333 0.52908 0.0
H1113 H 0.60169 0.44439 0.57978 0.0
H1114 H 0.5494 0.40491 0.72523 0.0
H1115 H 0.55856 0.42342 0.67077 0.0
H1116 H 0.54712 0.3916 0.56706 0.0
C1117 C 0.61317 0.43736 0.50642 0.0
C1118 C 0.58969 0.43299 0.57669 0.0
C1119 C 0.62244 0.44153 0.47327 0.0
C1120 C 0.55154 0.3962 0.7006 0.0
C1121 C 0.55687 0.40687 0.66938 0.0
C1122 C 0.55901 0.40311 0.57016 0.0
C1123 C 0.59166 0.4366 0.50937 0.0
C1124 C 0.58204 0.428 0.54237 0.0
C1125 C 0.56007 0.39634 0.63685 0.0
C1126 C 0.56708 0.40769 0.60437 0.0
H1127 H 0.57916 0.44893 0.42288 0.0
H1128 H 0.56301 0.44185 0.48097 0.0
H1129 H 0.56038 0.40878 0.51334 0.0
H1130 H 0.55016 0.34759 0.66607 0.0
H1131 H 0.55977 0.36631 0.61133 0.0
C1132 C 0.05827 0.59861 0.94098 0.0
C1133 C 0.05562 0.61999 0.93758 0.0
C1134 C 0.06399 0.59003 0.97403 0.0
C1135 C 0.06706 0.59838 0.07136 0.0
H1136 H 0.11882 0.56887 0.06541 0.0
C1137 C 0.11393 0.58189 0.1984 0.0
C1138 C 0.12384 0.5628 0.20137 0.0
C1139 C 0.10546 0.58813 0.16568 0.0
C1140 C 0.1042 0.57674 0.06759 0.0
H1141 H 0.05509 0.6489 0.96675 0.0
H1142 H 0.0646 0.63376 0.02477 0.0
H1143 H 0.10162 0.57993 0.01022 0.0
H1144 H 0.13329 0.53546 0.17246 0.0
H1145 H 0.11789 0.54604 0.11517 0.0
H1146 H 0.06932 0.59501 0.12852 0.0
C1147 C 0.06253 0.62375 0.0017 0.0
C1148 C 0.09438 0.58308 0.03598 0.0
C1149 C 0.05714 0.63239 0.96851 0.0
C1150 C 0.12586 0.55035 0.17068 0.0
C1151 C 0.11702 0.55643 0.13794 0.0
C1152 C 0.0767 0.59177 0.10295 0.0
C1153 C 0.06675 0.60263 0.00435 0.0
C1154 C 0.0759 0.5942 0.03766 0.0
C1155 C 0.10631 0.57521 0.13531 0.0
C1156 C 0.0956 0.58121 0.10149 0.0
H1157 H 0.05725 0.58862 0.91766 0.0
H1158 H 0.06699 0.57366 0.97561 0.0
H1159 H 0.05274 0.60682 0.07324 0.0
H1160 H 0.11239 0.59187 0.22167 0.0
H1161 H 0.09795 0.60298 0.16439 0.0
C1162 C 0.86316 0.05352 0.47881 0.0
C1163 C 0.87497 0.04919 0.44795 0.0
C1164 C 0.87269 0.05778 0.51166 0.0
C1165 C 0.92019 0.08045 0.54413 0.0
H1166 H 0.89858 0.06605 0.63834 0.0
C1167 C 0.93803 0.09406 0.70493 0.0
C1168 C 0.94021 0.11558 0.70588 0.0
C1169 C 0.93215 0.08414 0.67331 0.0
C1170 C 0.90495 0.07005 0.61224 0.0
H1171 H 0.906 0.04418 0.42817 0.0
H1172 H 0.9226 0.05155 0.48573 0.0
H1173 H 0.88464 0.04953 0.5846 0.0
H1174 H 0.93861 0.14348 0.67386 0.0
H1175 H 0.92814 0.12604 0.61834 0.0
H1176 H 0.94033 0.10117 0.5718 0.0
C1177 C 0.90598 0.05196 0.48421 0.0
C1178 C 0.89687 0.06068 0.58151 0.0
C1179 C 0.89644 0.04758 0.45136 0.0
C1180 C 0.93704 0.1269 0.67403 0.0
C1181 C 0.93114 0.11691 0.64224 0.0
C1182 C 0.92821 0.08989 0.57488 0.0
C1183 C 0.89423 0.05782 0.51429 0.0
C1184 C 0.90426 0.06596 0.54714 0.0
C1185 C 0.92831 0.09547 0.64182 0.0
C1186 C 0.92052 0.08493 0.60919 0.0
H1187 H 0.84658 0.05472 0.47718 0.0
H1188 H 0.86323 0.06229 0.53437 0.0
H1189 H 0.92598 0.08504 0.51792 0.0
H1190 H 0.94058 0.08476 0.72879 0.0
H1191 H 0.93046 0.06757 0.6736 0.0
C1192 C 0.38467 0.55182 0.80492 0.0
C1193 C 0.36425 0.55524 0.79429 0.0
C1194 C 0.39186 0.55942 0.83776 0.0
C1195 C 0.3748 0.58338 0.92427 0.0
H1196 H 0.43055 0.60456 0.92455 0.0
C1197 C 0.40517 0.6385 0.03281 0.0
C1198 C 0.42199 0.63077 0.05243 0.0
C1199 C 0.39913 0.6292 0.00063 0.0
C1200 C 0.41501 0.59861 0.92476 0.0
H1201 H 0.33516 0.5688 0.80976 0.0
H1202 H 0.34784 0.58288 0.86645 0.0
H1203 H 0.41731 0.58758 0.87069 0.0
H1204 H 0.44647 0.60808 0.05252 0.0
H1205 H 0.4362 0.59223 0.9953 0.0
H1206 H 0.37239 0.59538 0.97795 0.0
C1207 C 0.35824 0.5738 0.85011 0.0
C1208 C 0.40742 0.58872 0.8941 0.0
C1209 C 0.35093 0.5658 0.81756 0.0
C1210 C 0.43341 0.61433 0.03805 0.0
C1211 C 0.42757 0.60527 0.00541 0.0
C1212 C 0.38227 0.59363 0.9546 0.0
C1213 C 0.37892 0.57103 0.86032 0.0
C1214 C 0.38719 0.58097 0.89343 0.0
C1215 C 0.41005 0.61229 0.9871 0.0
C1216 C 0.40239 0.60134 0.95501 0.0
H1217 H 0.39519 0.54352 0.78755 0.0
H1218 H 0.40769 0.55643 0.84512 0.0
H1219 H 0.35933 0.57729 0.92511 0.0
H1220 H 0.39599 0.65109 0.04319 0.0
H1221 H 0.38566 0.63493 0.98667 0.0
C1222 C 0.91455 0.38064 0.2902 0.0
C1223 C 0.93093 0.36682 0.28551 0.0
C1224 C 0.91068 0.38941 0.32376 0.0
C1225 C 0.92038 0.3826 0.42109 0.0
H1226 H 0.89809 0.43795 0.42479 0.0
C1227 C 0.89624 0.4218 0.55437 0.0
C1228 C 0.87539 0.42751 0.55421 0.0
C1229 C 0.90623 0.41686 0.52214 0.0
C1230 C 0.90442 0.42253 0.42411 0.0
H1231 H 0.95613 0.35129 0.31241 0.0
H1232 H 0.94965 0.36706 0.37132 0.0
H1233 H 0.91027 0.42411 0.36746 0.0
H1234 H 0.84899 0.43372 0.52016 0.0
H1235 H 0.86663 0.42555 0.46373 0.0
H1236 H 0.91445 0.38119 0.47795 0.0
C1237 C 0.9396 0.37084 0.34899 0.0
C1238 C 0.91126 0.41452 0.39132 0.0
C1239 C 0.94334 0.36183 0.31529 0.0
C1240 C 0.86504 0.42929 0.52108 0.0
C1241 C 0.87514 0.42472 0.48883 0.0
C1242 C 0.91382 0.39076 0.45402 0.0
C1243 C 0.92326 0.38482 0.35353 0.0
C1244 C 0.91871 0.39422 0.38919 0.0
C1245 C 0.89564 0.41796 0.48921 0.0
C1246 C 0.90528 0.41057 0.45556 0.0
H1247 H 0.90449 0.38458 0.26793 0.0
H1248 H 0.89759 0.39958 0.32641 0.0
H1249 H 0.92584 0.36687 0.42045 0.0
H1250 H 0.90459 0.4202 0.57952 0.0
H1251 H 0.92207 0.41175 0.52298 0.0
C1252 C 0.12049 0.90981 0.78691 0.0
C1253 C 0.13131 0.92846 0.78495 0.0
C1254 C 0.11387 0.9022 0.82006 0.0
C1255 C 0.09615 0.91772 0.90705 0.0
H1256 H 0.10996 0.86244 0.93807 0.0
C1257 C 0.07403 0.88676 0.04753 0.0
C1258 C 0.07048 0.86558 0.05178 0.0
C1259 C 0.08055 0.89464 0.01445 0.0
C1260 C 0.10559 0.87776 0.92955 0.0
H1261 H 0.14389 0.95375 0.81588 0.0
H1262 H 0.1316 0.94061 0.87436 0.0
H1263 H 0.12436 0.8759 0.8821 0.0
H1264 H 0.0697 0.83624 0.02412 0.0
H1265 H 0.08013 0.85013 0.96577 0.0
H1266 H 0.0767 0.91945 0.9534 0.0
C1267 C 0.12854 0.93188 0.85005 0.0
C1268 C 0.11406 0.88551 0.89773 0.0
C1269 C 0.13562 0.9393 0.81681 0.0
C1270 C 0.07252 0.8526 0.02173 0.0
C1271 C 0.07869 0.86056 0.98839 0.0
C1272 C 0.08735 0.90985 0.93855 0.0
C1273 C 0.11759 0.91329 0.85179 0.0
C1274 C 0.10946 0.90555 0.88634 0.0
C1275 C 0.08334 0.8816 0.98459 0.0
C1276 C 0.092 0.88977 0.95029 0.0
H1277 H 0.11711 0.90108 0.76272 0.0
H1278 H 0.10538 0.88787 0.82082 0.0
H1279 H 0.09216 0.93313 0.89836 0.0
H1280 H 0.07277 0.89717 0.07024 0.0
H1281 H 0.08422 0.91085 0.01284 0.0
C1282 C 0.59743 0.05671 0.54152 0.0
C1283 C 0.61896 0.05819 0.54403 0.0
C1284 C 0.58735 0.06195 0.50953 0.0
C1285 C 0.59484 0.07106 0.41225 0.0
H1286 H 0.54988 0.10988 0.42297 0.0
C1287 C 0.55064 0.1002 0.28945 0.0
C1288 C 0.54827 0.12165 0.28675 0.0
C1289 C 0.55664 0.09116 0.32182 0.0
C1290 C 0.56241 0.09906 0.41962 0.0
H1291 H 0.64683 0.06489 0.51404 0.0
H1292 H 0.62922 0.07385 0.45823 0.0
H1293 H 0.56603 0.09503 0.47666 0.0
H1294 H 0.54915 0.15031 0.31654 0.0
H1295 H 0.55984 0.13439 0.37352 0.0
H1296 H 0.59167 0.07546 0.35537 0.0
C1297 C 0.62016 0.06875 0.48107 0.0
C1298 C 0.57149 0.0904 0.45026 0.0
C1299 C 0.63024 0.06367 0.51311 0.0
C1300 C 0.55085 0.13376 0.31781 0.0
C1301 C 0.55695 0.12464 0.35038 0.0
C1302 C 0.5857 0.07962 0.38168 0.0
C1303 C 0.59859 0.06855 0.47932 0.0
C1304 C 0.58793 0.07646 0.44685 0.0
C1305 C 0.56048 0.10331 0.35232 0.0
C1306 C 0.56949 0.09381 0.38504 0.0
H1307 H 0.58824 0.05251 0.56476 0.0
H1308 H 0.57072 0.06134 0.50869 0.0
H1309 H 0.60742 0.06032 0.40883 0.0
H1310 H 0.5484 0.09037 0.26618 0.0
H1311 H 0.55877 0.07464 0.32274 0.0
C1312 C 0.36782 0.01724 0.26503 0.0
C1313 C 0.37836 0.00401 0.28883 0.0
C1314 C 0.37765 0.03425 0.25018 0.0
C1315 C 0.41973 0.0701 0.25969 0.0
H1316 H 0.42426 0.06786 0.15517 0.0
C1317 C 0.46757 0.12898 0.18505 0.0
C1318 C 0.48466 0.11927 0.16914 0.0
C1319 C 0.45007 0.11769 0.19366 0.0
C1320 C 0.42281 0.0688 0.18426 0.0
H1321 H 0.407 -0.00087 0.3176 0.0
H1322 H 0.42405 0.02936 0.29207 0.0
H1323 H 0.40245 0.04299 0.18696 0.0
H1324 H 0.49564 0.09083 0.14519 0.0
H1325 H 0.46485 0.0712 0.15997 0.0
H1326 H 0.44043 0.09555 0.25721 0.0
C1327 C 0.40824 0.02623 0.28477 0.0
C1328 C 0.4104 0.05469 0.20238 0.0
C1329 C 0.39852 0.00895 0.29925 0.0
C1330 C 0.48286 0.09871 0.15788 0.0
C1331 C 0.46522 0.08747 0.1662 0.0
C1332 C 0.43182 0.08444 0.24156 0.0
C1333 C 0.39803 0.0386 0.25935 0.0
C1334 C 0.40919 0.05497 0.24025 0.0
C1335 C 0.44924 0.09663 0.18595 0.0
C1336 C 0.4338 0.08361 0.2038 0.0
H1337 H 0.35226 0.01395 0.25642 0.0
H1338 H 0.36951 0.04373 0.2308 0.0
H1339 H 0.41894 0.07054 0.2889 0.0
H1340 H 0.46824 0.14491 0.19347 0.0
H1341 H 0.43775 0.12508 0.20849 0.0
C1342 C 0.46255 0.35804 0.78053 0.0
C1343 C 0.47743 0.36856 0.801 0.0
C1344 C 0.44433 0.36775 0.77065 0.0
C1345 C 0.42315 0.40078 0.7261 0.0
H1346 H 0.3888 0.43682 0.7836 0.0
C1347 C 0.38905 0.47775 0.67941 0.0
C1348 C 0.36914 0.48283 0.69107 0.0
C1349 C 0.39796 0.45912 0.68975 0.0
C1350 C 0.39802 0.42653 0.76725 0.0
H1351 H 0.48374 0.3966 0.83074 0.0
H1352 H 0.45171 0.4135 0.81362 0.0
H1353 H 0.41164 0.4123 0.81368 0.0
H1354 H 0.34226 0.47146 0.71983 0.0
H1355 H 0.35808 0.43925 0.73828 0.0
H1356 H 0.41053 0.41594 0.67973 0.0
C1357 C 0.45434 0.3978 0.805 0.0
C1358 C 0.4111 0.41264 0.78445 0.0
C1359 C 0.47271 0.38815 0.81466 0.0
C1360 C 0.35775 0.4682 0.71073 0.0
C1361 C 0.36674 0.44973 0.72137 0.0
C1362 C 0.41031 0.41489 0.70892 0.0
C1363 C 0.44052 0.38801 0.7815 0.0
C1364 C 0.42411 0.40002 0.76399 0.0
C1365 C 0.38714 0.4454 0.71206 0.0
C1366 C 0.39803 0.42819 0.72941 0.0
H1367 H 0.4655 0.34276 0.7701 0.0
H1368 H 0.43373 0.35985 0.75289 0.0
H1369 H 0.43324 0.39134 0.70976 0.0
H1370 H 0.39817 0.48858 0.66402 0.0
H1371 H 0.41378 0.45608 0.68236 0.0
C1372 C 0.01302 0.36615 0.1872 0.0
C1373 C -0.00413 0.37355 0.16809 0.0
C1374 C 0.0299 0.37882 0.1933 0.0
C1375 C 0.03862 0.43383 0.20397 0.0
H1376 H 0.09384 0.41603 0.22802 0.0
C1377 C 0.08852 0.483 0.29536 0.0
C1378 C 0.10894 0.48602 0.28444 0.0
C1379 C 0.07672 0.46751 0.27972 0.0
C1380 C 0.07854 0.42129 0.22114 0.0
H1381 H 0.98417 0.39895 0.13611 0.0
H1382 H 0.01402 0.42086 0.14573 0.0
H1383 H 0.0711 0.39293 0.19497 0.0
H1384 H 0.1335 0.47421 0.25048 0.0
H1385 H 0.11277 0.44754 0.22268 0.0
H1386 H 0.04607 0.46226 0.22933 0.0
C1387 C 0.01401 0.40557 0.15733 0.0
C1388 C 0.06548 0.40803 0.20238 0.0
C1389 C -0.00305 0.39299 0.15165 0.0
C1390 C 0.11778 0.47231 0.2595 0.0
C1391 C 0.1059 0.45697 0.24354 0.0
C1392 C 0.0517 0.4471 0.22233 0.0
C1393 C 0.0301 0.39905 0.17998 0.0
C1394 C 0.04521 0.41401 0.19427 0.0
C1395 C 0.08505 0.45492 0.25253 0.0
C1396 C 0.07161 0.44082 0.23191 0.0
H1397 H 0.01282 0.35115 0.19993 0.0
H1398 H 0.04197 0.37325 0.21091 0.0
H1399 H 0.02304 0.4389 0.19877 0.0
H1400 H 0.08137 0.49314 0.31489 0.0
H1401 H 0.06085 0.46587 0.28805 0.0
C1402 C 0.13208 0.02078 0.71245 0.0
C1403 C 0.12139 0.00602 0.69194 0.0
C1404 C 0.12212 0.03839 0.72472 0.0
C1405 C 0.07739 0.07158 0.71409 0.0
H1406 H 0.0764 0.07341 0.81891 0.0
C1407 C 0.02616 0.12856 0.78745 0.0
C1408 C 0.0112 0.1182 0.80803 0.0
C1409 C 0.04413 0.11855 0.77708 0.0
C1410 C 0.07681 0.07324 0.78967 0.0
H1411 H 0.09243 -0.00088 0.66556 0.0
H1412 H 0.07512 0.03022 0.68665 0.0
H1413 H 0.09941 0.04933 0.78806 0.0
H1414 H 0.0045 0.0901 0.83743 0.0
H1415 H 0.03611 0.07268 0.81945 0.0
H1416 H 0.05431 0.09498 0.71564 0.0
C1417 C 0.09116 0.0279 0.69343 0.0
C1418 C 0.08997 0.0596 0.77205 0.0
C1419 C 0.10103 0.01009 0.68152 0.0
C1420 C 0.01561 0.09843 0.82129 0.0
C1421 C 0.03372 0.08848 0.81112 0.0
C1422 C 0.06449 0.08545 0.73167 0.0
C1423 C 0.10143 0.04176 0.71619 0.0
C1424 C 0.08992 0.05831 0.73418 0.0
C1425 C 0.04759 0.09815 0.78752 0.0
C1426 C 0.06372 0.08599 0.76959 0.0
H1427 H 0.14783 0.01825 0.7208 0.0
H1428 H 0.13034 0.04901 0.742 0.0
H1429 H 0.07715 0.0708 0.68488 0.0
H1430 H 0.02346 0.14396 0.77732 0.0
H1431 H 0.05479 0.12636 0.75926 0.0
C1432 C 0.63176 0.97135 0.70781 0.0
C1433 C 0.62064 0.98621 0.68815 0.0
C1434 C 0.62207 0.95376 0.7207 0.0
C1435 C 0.5905 0.93365 0.77079 0.0
H1436 H 0.55515 0.89647 0.7177 0.0
C1437 C 0.51703 0.89394 0.82252 0.0
C1438 C 0.51353 0.87369 0.8109 0.0
C1439 C 0.53489 0.90424 0.81208 0.0
C1440 C 0.56524 0.90654 0.73279 0.0
H1441 H 0.59118 0.99315 0.66347 0.0
H1442 H 0.57434 0.962 0.68559 0.0
H1443 H 0.57706 0.92062 0.68473 0.0
H1444 H 0.5272 0.84748 0.78339 0.0
H1445 H 0.55803 0.8657 0.76469 0.0
H1446 H 0.57769 0.92047 0.81888 0.0
C1447 C 0.5905 0.9643 0.69131 0.0
C1448 C 0.57761 0.92036 0.71396 0.0
C1449 C 0.60012 0.98212 0.67877 0.0
C1450 C 0.5292 0.86324 0.79214 0.0
C1451 C 0.54688 0.87359 0.78144 0.0
C1452 C 0.57783 0.9201 0.78964 0.0
C1453 C 0.60122 0.95049 0.71358 0.0
C1454 C 0.59007 0.9342 0.73286 0.0
C1455 C 0.54936 0.89442 0.78985 0.0
C1456 C 0.56491 0.90667 0.77074 0.0
H1457 H 0.64768 0.97382 0.71517 0.0
H1458 H 0.63062 0.94313 0.73754 0.0
H1459 H 0.5999 0.94439 0.78584 0.0
H1460 H 0.50536 0.90235 0.83726 0.0
H1461 H 0.53655 0.92036 0.81884 0.0
C1462 C 0.62181 0.51714 0.25866 0.0
C1463 C 0.61135 0.50446 0.28342 0.0
C1464 C 0.61268 0.53502 0.2456 0.0
C1465 C 0.58015 0.55838 0.20223 0.0
H1466 H 0.55153 0.59839 0.26132 0.0
C1467 C 0.50666 0.60186 0.1636 0.0
C1468 C 0.50423 0.62208 0.17628 0.0
C1469 C 0.52471 0.59101 0.17082 0.0
C1470 C 0.55978 0.58757 0.24444 0.0
H1471 H 0.58371 0.50141 0.31578 0.0
H1472 H 0.56786 0.53298 0.29319 0.0
H1473 H 0.57373 0.57286 0.29005 0.0
H1474 H 0.51982 0.64758 0.20257 0.0
H1475 H 0.55109 0.62843 0.21555 0.0
H1476 H 0.56521 0.57234 0.1568 0.0
C1477 C 0.58309 0.52885 0.28382 0.0
C1478 C 0.57229 0.57291 0.26091 0.0
C1479 C 0.5921 0.51077 0.29658 0.0
C1480 C 0.52101 0.6319 0.19295 0.0
C1481 C 0.53894 0.62099 0.20043 0.0
C1482 C 0.56737 0.57285 0.18579 0.0
C1483 C 0.59307 0.54076 0.25747 0.0
C1484 C 0.58219 0.55795 0.23999 0.0
C1485 C 0.54052 0.6002 0.19091 0.0
C1486 C 0.55676 0.58727 0.20686 0.0
H1487 H 0.63671 0.51282 0.24801 0.0
H1488 H 0.62068 0.54409 0.22546 0.0
H1489 H 0.58756 0.54684 0.18562 0.0
H1490 H 0.49414 0.59393 0.1503 0.0
H1491 H 0.52559 0.57495 0.16323 0.0
C1492 C 0.86191 0.52074 0.70403 0.0
C1493 C 0.87169 0.50509 0.68415 0.0
C1494 C 0.8728 0.53808 0.71486 0.0
C1495 C 0.90653 0.55767 0.76054 0.0
H1496 H 0.94237 0.59186 0.70232 0.0
C1497 C 0.98143 0.59677 0.80767 0.0
C1498 C 0.98481 0.61702 0.79582 0.0
C1499 C 0.96381 0.58619 0.79693 0.0
C1500 C 0.9322 0.58259 0.71881 0.0
H1501 H 0.89995 0.49639 0.65695 0.0
H1502 H 0.91889 0.52701 0.67556 0.0
H1503 H 0.91859 0.56808 0.67271 0.0
H1504 H 0.97143 0.64264 0.76609 0.0
H1505 H 0.94103 0.62392 0.74692 0.0
H1506 H 0.92097 0.57135 0.80666 0.0
C1507 C 0.90285 0.52559 0.68301 0.0
C1508 C 0.91875 0.569 0.70191 0.0
C1509 C 0.89203 0.50806 0.67251 0.0
C1510 C 0.96947 0.62697 0.77542 0.0
C1511 C 0.95206 0.61631 0.76433 0.0
C1512 C 0.92025 0.57099 0.77744 0.0
C1513 C 0.89352 0.54025 0.70548 0.0
C1514 C 0.90603 0.55628 0.7227 0.0
C1515 C 0.94948 0.59567 0.77399 0.0
C1516 C 0.93334 0.58334 0.75667 0.0
H1517 H 0.84618 0.51911 0.71314 0.0
H1518 H 0.8653 0.54936 0.73189 0.0
H1519 H 0.89697 0.54779 0.77705 0.0
H1520 H 0.99285 0.58874 0.82363 0.0
H1521 H 0.96206 0.57021 0.8046 0.0
C1522 C 0.86943 0.97167 0.27138 0.0
C1523 C 0.87912 0.98625 0.29368 0.0
C1524 C 0.88072 0.95576 0.25582 0.0
C1525 C 0.93382 0.9456 0.22854 0.0
H1526 H 0.91396 0.89059 0.20849 0.0
C1527 C 0.97238 0.86468 0.19485 0.0
C1528 C 0.98844 0.87196 0.17289 0.0
C1529 C 0.95535 0.87703 0.20188 0.0
C1530 C 0.91968 0.90592 0.2138 0.0
H1531 H 0.90773 0.99425 0.32025 0.0
H1532 H 0.92728 0.96605 0.29399 0.0
H1533 H 0.89255 0.91434 0.24301 0.0
H1534 H -0.00224 0.89648 0.13665 0.0
H1535 H 0.96765 0.91778 0.14803 0.0
H1536 H 0.9613 0.93707 0.20125 0.0
C1537 C 0.91112 0.96744 0.28743 0.0
C1538 C 0.9074 0.91953 0.23345 0.0
C1539 C 0.89989 0.98348 0.30272 0.0
C1540 C 0.98588 0.89066 0.15441 0.0
C1541 C 0.96868 0.9029 0.16108 0.0
C1542 C 0.94611 0.93201 0.20923 0.0
C1543 C 0.90185 0.954 0.26257 0.0
C1544 C 0.91453 0.93939 0.24155 0.0
C1545 C 0.95393 0.89677 0.18668 0.0
C1546 C 0.93934 0.91191 0.20207 0.0
H1547 H 0.8534 0.97324 0.26399 0.0
H1548 H 0.87312 0.94566 0.23683 0.0
H1549 H 0.93954 0.96098 0.23347 0.0
H1550 H 0.97368 0.8502 0.20913 0.0
H1551 H 0.9443 0.87176 0.22168 0.0
C1552 C 0.49649 0.21535 0.10966 0.0
C1553 C 0.51293 0.2023 0.10061 0.0
C1554 C 0.48448 0.2243 0.08233 0.0
C1555 C 0.47296 0.22034 0.98429 0.0
H1556 H 0.48085 0.27936 0.982 0.0
C1557 C 0.51118 0.26288 0.87256 0.0
C1558 C 0.50552 0.28297 0.86343 0.0
C1559 C 0.49998 0.25202 0.89832 0.0
C1560 C 0.47776 0.26299 0.98239 0.0
H1561 H 0.52887 0.18728 0.05641 0.0
H1562 H 0.50813 0.20258 0.00941 0.0
H1563 H 0.48316 0.2611 0.03929 0.0
H1564 H 0.48346 0.30738 0.8723 0.0
H1565 H 0.4642 0.28857 0.91892 0.0
H1566 H 0.46999 0.22198 0.92679 0.0
C1567 C 0.50438 0.20606 0.03725 0.0
C1568 C 0.47907 0.25253 0.01528 0.0
C1569 C 0.51653 0.19757 0.0642 0.0
C1570 C 0.48784 0.29172 0.87879 0.0
C1571 C 0.47688 0.28103 0.90535 0.0
C1572 C 0.47181 0.23077 0.95143 0.0
C1573 C 0.48842 0.21973 0.04586 0.0
C1574 C 0.47831 0.23096 0.01597 0.0
C1575 C 0.48327 0.26132 0.91609 0.0
C1576 C 0.47575 0.25196 0.94997 0.0
H1577 H 0.49335 0.21909 0.13761 0.0
H1578 H 0.47238 0.23498 0.08958 0.0
H1579 H 0.47194 0.20371 0.98429 0.0
H1580 H 0.52492 0.25602 0.8612 0.0
H1581 H 0.50548 0.23699 0.90653 0.0
C1582 C 0.18113 0.49076 0.41128 0.0
C1583 C 0.19142 0.50049 0.38277 0.0
C1584 C 0.19222 0.48031 0.43783 0.0
C1585 C 0.24619 0.46848 0.46835 0.0
H1586 H 0.22563 0.49146 0.55792 0.0
C1587 C 0.29443 0.51293 0.56736 0.0
C1588 C 0.29042 0.51227 0.60459 0.0
C1589 C 0.28301 0.50099 0.54352 0.0
C1590 C 0.23145 0.48434 0.53354 0.0
H1591 H 0.22088 0.50582 0.35759 0.0
H1592 H 0.24048 0.48857 0.40462 0.0
H1593 H 0.20284 0.48835 0.50683 0.0
H1594 H 0.27211 0.49782 0.64638 0.0
H1595 H 0.25139 0.47739 0.60415 0.0
H1596 H 0.27547 0.46656 0.49469 0.0
C1597 C 0.22388 0.48819 0.40631 0.0
C1598 C 0.21832 0.48249 0.50399 0.0
C1599 C 0.21271 0.49821 0.37931 0.0
C1600 C 0.2754 0.49868 0.61775 0.0
C1601 C 0.26364 0.48697 0.59369 0.0
C1602 C 0.25941 0.47059 0.49786 0.0
C1603 C 0.21385 0.48013 0.43698 0.0
C1604 C 0.22583 0.47571 0.47035 0.0
C1605 C 0.26712 0.48835 0.55629 0.0
C1606 C 0.25239 0.47966 0.53001 0.0
H1607 H 0.16464 0.49237 0.41423 0.0
H1608 H 0.18392 0.47378 0.46043 0.0
H1609 H 0.25235 0.4626 0.44323 0.0
H1610 H 0.30614 0.52303 0.55652 0.0
H1611 H 0.28584 0.50264 0.51484 0.0
C1612 C 0.97136 0.29288 0.06426 0.0
C1613 C 0.97362 0.28856 0.10114 0.0
C1614 C 0.98454 0.28415 0.03909 0.0
C1615 C 0.01031 0.23712 0.02314 0.0
H1616 H 0.02085 0.26522 0.93261 0.0
C1617 C 0.00148 0.19476 0.89016 0.0
C1618 C 0.98399 0.20353 0.87416 0.0
C1619 C 0.01268 0.20584 0.91583 0.0
C1620 C 0.01866 0.25711 0.95789 0.0
H1621 H 0.99195 0.27237 0.14093 0.0
H1622 H 0.01473 0.25613 0.09613 0.0
H1623 H 0.01822 0.28502 0.98836 0.0
H1624 H 0.96517 0.2308 0.86977 0.0
H1625 H 0.98498 0.25045 0.91367 0.0
H1626 H 0.00876 0.20946 0.99215 0.0
C1627 C 0.00289 0.26665 0.08707 0.0
C1628 C 0.01712 0.26841 0.98975 0.0
C1629 C 0.98983 0.2758 0.11255 0.0
C1630 C 0.97872 0.22391 0.88177 0.0
C1631 C 0.99016 0.23513 0.90664 0.0
C1632 C 0.01202 0.22579 0.99128 0.0
C1633 C 0.00021 0.27065 0.05005 0.0
C1634 C 0.0111 0.25869 0.02197 0.0
C1635 C 0.00673 0.22594 0.92498 0.0
C1636 C 0.01445 0.23595 0.95806 0.0
H1637 H 0.95923 0.30293 0.0547 0.0
H1638 H 0.98175 0.28719 0.01074 0.0
H1639 H 0.00576 0.22921 0.04762 0.0
H1640 H 0.00559 0.17891 0.8847 0.0
H1641 H 0.02524 0.19839 0.92991 0.0
C1642 C 0.27693 0.99146 0.37984 0.0
C1643 C 0.29817 0.98889 0.38334 0.0
C1644 C 0.26619 0.00332 0.40501 0.0
C1645 C 0.27241 0.01376 0.50084 0.0
H1646 H 0.21559 0.03037 0.48954 0.0
C1647 C 0.21577 -0.00276 0.6132 0.0
C1648 C 0.20086 0.98374 0.59945 0.0
C1649 C 0.22708 0.00977 0.58971 0.0
C1650 C 0.23157 0.02619 0.49327 0.0
H1651 H 0.32538 -0.00177 0.41253 0.0
H1652 H 0.30683 0.01982 0.45552 0.0
H1653 H 0.23883 0.03209 0.43785 0.0
H1654 H 0.18457 0.97425 0.55119 0.0
H1655 H 0.20418 -0.00416 0.51051 0.0
H1656 H 0.26488 0.0065 0.55539 0.0
C1657 C 0.29824 0.01222 0.43435 0.0
C1658 C 0.24485 0.02705 0.46364 0.0
C1659 C 0.30889 -1e-05 0.4097 0.0
C1660 C 0.19626 0.98422 0.56244 0.0
C1661 C 0.20728 -0.00311 0.53918 0.0
C1662 C 0.2592 0.01305 0.53042 0.0
C1663 C 0.27664 0.01291 0.4338 0.0
C1664 C 0.265 0.01937 0.46649 0.0
C1665 C 0.22334 0.00921 0.55231 0.0
C1666 C 0.2383 0.01779 0.5262 0.0
H1667 H 0.26844 0.98289 0.35969 0.0
H1668 H 0.24957 0.00329 0.40371 0.0
H1669 H 0.28778 0.00769 0.50436 0.0
H1670 H 0.21947 -0.00272 0.64171 0.0
H1671 H 0.23938 0.01913 0.60053 0.0
C1672 C 0.49131 0.71904 0.12103 0.0
C1673 C 0.47579 0.70538 0.11003 0.0
C1674 C 0.50384 0.72865 0.0952 0.0
C1675 C 0.51859 0.7261 -0.00173 0.0
H1676 H 0.50796 0.78472 -0.00302 0.0
C1677 C 0.50322 0.79741 0.89295 0.0
C1678 C 0.48611 0.78819 0.87653 0.0
C1679 C 0.5139 0.78704 0.92025 0.0
C1680 C 0.51182 0.76851 -0.00281 0.0
H1681 H 0.46211 0.68998 0.06399 0.0
H1682 H 0.48374 0.70644 0.01955 0.0
H1683 H 0.50502 0.76579 0.05351 0.0
H1684 H 0.46746 0.76077 0.8733 0.0
H1685 H 0.48647 0.74231 0.91996 0.0
H1686 H 0.52288 0.72846 0.94111 0.0
C1687 C 0.48638 0.70988 0.04779 0.0
C1688 C 0.51015 0.75766 0.02963 0.0
C1689 C 0.4737 0.70072 0.07325 0.0
C1690 C 0.48074 0.76801 0.88554 0.0
C1691 C 0.49171 0.75747 0.91202 0.0
C1692 C 0.52006 0.7369 0.96583 0.0
C1693 C 0.50137 0.72418 0.0583 0.0
C1694 C 0.51188 0.73613 0.02976 0.0
C1695 C 0.50785 0.76717 0.93061 0.0
C1696 C 0.51514 0.75789 0.96468 0.0
H1697 H 0.49329 0.72275 0.14931 0.0
H1698 H 0.51517 0.73979 0.1039 0.0
H1699 H 0.52038 0.70953 -0.00213 0.0
H1700 H 0.50738 0.81312 0.88649 0.0
H1701 H 0.52613 0.79488 0.9345 0.0
C1702 C 0.79717 0.4757 0.55096 0.0
C1703 C 0.79356 0.47978 0.58762 0.0
C1704 C 0.78731 0.48715 0.52434 0.0
C1705 C 0.73824 0.50968 0.51064 0.0
H1706 H 0.76043 0.51977 0.41509 0.0
C1707 C 0.68596 0.49837 0.39204 0.0
C1708 C 0.6946 0.48465 0.36717 0.0
C1709 C 0.69859 0.50968 0.4151 0.0
C1710 C 0.75394 0.51722 0.44164 0.0
H1711 H 0.7778 0.49981 0.62532 0.0
H1712 H 0.7598 0.51949 0.57838 0.0
H1713 H 0.78359 0.51761 0.46683 0.0
H1714 H 0.72283 0.47282 0.34459 0.0
H1715 H 0.745 0.4917 0.38571 0.0
H1716 H 0.70896 0.50712 0.48566 0.0
C1717 C 0.77052 0.50757 0.57044 0.0
C1718 C 0.7672 0.51612 0.47126 0.0
C1719 C 0.78073 0.49629 0.59721 0.0
C1720 C 0.71596 0.48352 0.3635 0.0
C1721 C 0.72862 0.49449 0.38701 0.0
C1722 C 0.72503 0.51054 0.48107 0.0
C1723 C 0.77339 0.50276 0.53377 0.0
C1724 C 0.75955 0.51108 0.50562 0.0
C1725 C 0.72004 0.50687 0.41441 0.0
C1726 C 0.73288 0.51298 0.44588 0.0
H1727 H 0.80725 0.46327 0.54279 0.0
H1728 H 0.7896 0.48286 0.49637 0.0
H1729 H 0.7319 0.50572 0.53679 0.0
H1730 H 0.66942 0.4994 0.3951 0.0
H1731 H 0.69147 0.51945 0.4352 0.0
C1732 C 0.00594 0.72194 0.87699 0.0
C1733 C 0.00578 0.70047 0.87547 0.0
C1734 C -0.00504 0.73211 0.90398 0.0
C1735 C 0.98274 0.72165 -0.00268 0.0
H1736 H 0.96962 0.77975 0.99439 0.0
C1737 C 0.00012 0.77399 0.1178 0.0
C1738 C 0.01489 0.78829 0.10619 0.0
C1739 C 0.98799 0.76358 0.09245 0.0
C1740 C 0.97275 0.7634 0.99578 0.0
H1741 H 0.99309 0.67263 0.89832 0.0
H1742 H 0.97351 0.69039 0.94536 0.0
H1743 H 0.96675 0.75922 0.93946 0.0
H1744 H 0.02749 0.80418 0.05972 0.0
H1745 H 0.00639 0.78633 0.01588 0.0
H1746 H 0.99027 0.72618 0.05289 0.0
C1747 C 0.98217 0.69944 0.9261 0.0
C1748 C 0.97121 0.75168 0.96434 0.0
C1749 C 0.99326 0.68928 0.89918 0.0
C1750 C 0.01646 0.79296 0.06932 0.0
C1751 C 0.00411 0.78298 0.04427 0.0
C1752 C 0.98414 0.73335 0.02877 0.0
C1753 C 0.98375 0.72089 0.92995 0.0
C1754 C 0.97771 0.73106 0.96423 0.0
C1755 C 0.9901 0.76784 0.0554 0.0
C1756 C 0.98064 0.75462 0.02756 0.0
H1757 H 0.01572 0.73073 0.85903 0.0
H1758 H -0.00319 0.7486 0.90632 0.0
H1759 H 0.98785 0.70581 -0.00163 0.0
H1760 H -0.00143 0.77027 0.14618 0.0
H1761 H 0.9774 0.75183 0.10161 0.0
C1762 C 0.77821 0.99151 0.36826 0.0
C1763 C 0.79503 0.00197 0.38317 0.0
C1764 C 0.76545 0.97963 0.3905 0.0
C1765 C 0.75848 0.96196 0.48626 0.0
H1766 H 0.70657 0.99055 0.47651 0.0
C1767 C 0.71939 0.00232 0.60234 0.0
C1768 C 0.69858 0.00753 0.59987 0.0
C1769 C 0.72838 0.98998 0.57578 0.0
C1770 C 0.72061 0.98178 0.47961 0.0
H1771 H 0.81336 0.00626 0.4314 0.0
H1772 H 0.79133 0.98585 0.46994 0.0
H1773 H 0.7291 0.988 0.42517 0.0
H1774 H 0.67023 0.00262 0.57065 0.0
H1775 H 0.68567 0.9804 0.52497 0.0
H1776 H 0.75051 0.95722 0.54175 0.0
C1777 C 0.78772 0.98663 0.44143 0.0
C1778 C 0.73361 0.98027 0.44985 0.0
C1779 C 0.80022 -0.00138 0.41945 0.0
C1780 C 0.68643 -0.00112 0.57261 0.0
C1781 C 0.69529 0.98623 0.54651 0.0
C1782 C 0.74542 0.96343 0.51612 0.0
C1783 C 0.76957 0.97794 0.42772 0.0
C1784 C 0.75331 0.97173 0.45359 0.0
C1785 C 0.71658 0.98252 0.54665 0.0
C1786 C 0.727 0.97466 0.5137 0.0
H1787 H 0.77403 0.99375 0.34023 0.0
H1788 H 0.75164 0.97297 0.37914 0.0
H1789 H 0.77342 0.95484 0.48967 0.0
H1790 H 0.72894 0.00893 0.62328 0.0
H1791 H 0.74486 0.98768 0.57666 0.0
loop_
_geom_bond_atom_site_label_1
_geom_bond_atom_site_label_2
_geom_bond_distance
_geom_bond_site_symmetry_2
_ccdc_geom_bond_type
Sc0 O3 2.025 . S
Sc0 O10 2.105 . S
Sc0 O13 2.105 . S
Sc0 O16 2.105 . S
Sc0 O19 2.105 . S
Sc1 O3 2.025 . S
Sc1 O11 2.105 . S
Sc1 O15 2.105 . S
Sc1 O17 2.105 . S
Sc1 O21 2.105 . S
Sc2 O3 2.025 . S
Sc2 O12 2.105 . S
Sc2 O14 2.105 . S
Sc2 O18 2.105 . S
Sc2 O20 2.105 . S
O3 Sc0 2.025 . S
O3 Sc1 2.025 . S
O3 Sc2 2.025 . S
C4 O10 1.268 . S
C4 O20 1.268 . S
C5 O11 1.268 . S
C5 O19 1.268 . S
C6 O12 1.268 . S
C6 O21 1.268 . S
C7 O13 1.268 . S
C7 O17 1.268 . S
C8 O14 1.268 . S
C8 O16 1.268 . S
C9 O15 1.268 . S
C9 O18 1.268 . S
O10 Sc0 2.105 . S
O10 C4 1.268 . S
O11 Sc1 2.105 . S
O11 C5 1.268 . S
O12 Sc2 2.105 . S
O12 C6 1.268 . S
O13 Sc0 2.105 . S
O13 C7 1.268 . S
O14 Sc2 2.105 . S
O14 C8 1.268 . S
O15 Sc1 2.105 . S
O15 C9 1.268 . S
O16 Sc0 2.105 . S
O16 C8 1.268 . S
O17 Sc1 2.105 . S
O17 C7 1.268 . S
O18 Sc2 2.105 . S
O18 C9 1.268 . S
O19 Sc0 2.105 . S
O19 C5 1.268 . S
O20 Sc2 2.105 . S
O20 C4 1.268 . S
O21 Sc1 2.105 . S
O21 C6 1.268 . S
Sc22 O25 2.025 . S
Sc22 O32 2.105 . S
Sc22 O35 2.105 . S
Sc22 O38 2.105 . S
Sc22 O41 2.105 . S
Sc23 O25 2.025 . S
Sc23 O33 2.105 . S
Sc23 O37 2.105 . S
Sc23 O39 2.105 . S
Sc23 O43 2.105 . S
Sc24 O25 2.025 . S
Sc24 O34 2.105 . S
Sc24 O36 2.105 . S
Sc24 O40 2.105 . S
Sc24 O42 2.105 . S
O25 Sc22 2.025 . S
O25 Sc23 2.025 . S
O25 Sc24 2.025 . S
C26 O32 1.268 . S
C26 O42 1.268 . S
C27 O33 1.268 . S
C27 O41 1.268 . S
C28 O34 1.268 . S
C28 O43 1.268 . S
C29 O35 1.268 . S
C29 O39 1.268 . S
C30 O36 1.268 . S
C30 O38 1.268 . S
C31 O37 1.268 . S
C31 O40 1.268 . S
O32 Sc22 2.105 . S
O32 C26 1.268 . S
O33 Sc23 2.105 . S
O33 C27 1.268 . S
O34 Sc24 2.105 . S
O34 C28 1.268 . S
O35 Sc22 2.105 . S
O35 C29 1.268 . S
O36 Sc24 2.105 . S
O36 C30 1.268 . S
O37 Sc23 2.105 . S
O37 C31 1.268 . S
O38 Sc22 2.105 . S
O38 C30 1.268 . S
O39 Sc23 2.105 . S
O39 C29 1.268 . S
O40 Sc24 2.105 . S
O40 C31 1.268 . S
O41 Sc22 2.105 . S
O41 C27 1.268 . S
O42 Sc24 2.105 . S
O42 C26 1.268 . S
O43 Sc23 2.105 . S
O43 C28 1.268 . S
Sc44 O47 2.025 . S
Sc44 O54 2.105 . S
Sc44 O57 2.105 . S
Sc44 O60 2.105 . S
Sc44 O63 2.105 . S
Sc45 O47 2.025 . S
Sc45 O55 2.105 . S
Sc45 O59 2.105 . S
Sc45 O61 2.105 . S
Sc45 O65 2.105 . S
Sc46 O47 2.025 . S
Sc46 O56 2.105 . S
Sc46 O58 2.105 . S
Sc46 O62 2.105 . S
Sc46 O64 2.105 . S
O47 Sc44 2.025 . S
O47 Sc45 2.025 . S
O47 Sc46 2.025 . S
C48 O54 1.268 . S
C48 O64 1.268 . S
C49 O55 1.268 . S
C49 O63 1.268 . S
C50 O56 1.268 . S
C50 O65 1.268 . S
C51 O57 1.268 . S
C51 O61 1.268 . S
C52 O58 1.268 . S
C52 O60 1.268 . S
C53 O59 1.268 . S
C53 O62 1.268 . S
O54 Sc44 2.105 . S
O54 C48 1.268 . S
O55 Sc45 2.105 . S
O55 C49 1.268 . S
O56 Sc46 2.105 . S
O56 C50 1.268 . S
O57 Sc44 2.105 . S
O57 C51 1.268 . S
O58 Sc46 2.105 . S
O58 C52 1.268 . S
O59 Sc45 2.105 . S
O59 C53 1.268 . S
O60 Sc44 2.105 . S
O60 C52 1.268 . S
O61 Sc45 2.105 . S
O61 C51 1.268 . S
O62 Sc46 2.105 . S
O62 C53 1.268 . S
O63 Sc44 2.105 . S
O63 C49 1.268 . S
O64 Sc46 2.105 . S
O64 C48 1.268 . S
O65 Sc45 2.105 . S
O65 C50 1.268 . S
Sc66 O69 2.025 . S
Sc66 O76 2.105 . S
Sc66 O79 2.105 . S
Sc66 O82 2.105 . S
Sc66 O85 2.105 . S
Sc67 O69 2.025 . S
Sc67 O77 2.105 . S
Sc67 O81 2.105 . S
Sc67 O83 2.105 . S
Sc67 O87 2.105 . S
Sc68 O69 2.025 . S
Sc68 O78 2.105 . S
Sc68 O80 2.105 . S
Sc68 O84 2.105 . S
Sc68 O86 2.105 . S
O69 Sc66 2.025 . S
O69 Sc67 2.025 . S
O69 Sc68 2.025 . S
C70 O76 1.268 . S
C70 O86 1.268 . S
C71 O77 1.268 . S
C71 O85 1.268 . S
C72 O78 1.268 . S
C72 O87 1.268 . S
C73 O79 1.268 . S
C73 O83 1.268 . S
C74 O80 1.268 . S
C74 O82 1.268 . S
C75 O81 1.268 . S
C75 O84 1.268 . S
O76 Sc66 2.105 . S
O76 C70 1.268 . S
O77 Sc67 2.105 . S
O77 C71 1.268 . S
O78 Sc68 2.105 . S
O78 C72 1.268 . S
O79 Sc66 2.105 . S
O79 C73 1.268 . S
O80 Sc68 2.105 . S
O80 C74 1.268 . S
O81 Sc67 2.105 . S
O81 C75 1.268 . S
O82 Sc66 2.105 . S
O82 C74 1.268 . S
O83 Sc67 2.105 . S
O83 C73 1.268 . S
O84 Sc68 2.105 . S
O84 C75 1.268 . S
O85 Sc66 2.105 . S
O85 C71 1.268 . S
O86 Sc68 2.105 . S
O86 C70 1.268 . S
O87 Sc67 2.105 . S
O87 C72 1.268 . S
Sc88 O91 2.025 . S
Sc88 O98 2.105 . S
Sc88 O101 2.105 . S
Sc88 O104 2.105 . S
Sc88 O107 2.105 . S
Sc89 O91 2.025 . S
Sc89 O99 2.105 . S
Sc89 O103 2.105 . S
Sc89 O105 2.105 . S
Sc89 O109 2.105 . S
Sc90 O91 2.025 . S
Sc90 O100 2.105 . S
Sc90 O102 2.105 . S
Sc90 O106 2.105 . S
Sc90 O108 2.105 . S
O91 Sc88 2.025 . S
O91 Sc89 2.025 . S
O91 Sc90 2.025 . S
C92 O98 1.268 . S
C92 O108 1.268 . S
C93 O99 1.268 . S
C93 O107 1.268 . S
C94 O100 1.268 . S
C94 O109 1.268 . S
C95 O101 1.268 . S
C95 O105 1.268 . S
C96 O102 1.268 . S
C96 O104 1.268 . S
C97 O103 1.268 . S
C97 O106 1.268 . S
O98 Sc88 2.105 . S
O98 C92 1.268 . S
O99 Sc89 2.105 . S
O99 C93 1.268 . S
O100 Sc90 2.105 . S
O100 C94 1.268 . S
O101 Sc88 2.105 . S
O101 C95 1.268 . S
O102 Sc90 2.105 . S
O102 C96 1.268 . S
O103 Sc89 2.105 . S
O103 C97 1.268 . S
O104 Sc88 2.105 . S
O104 C96 1.268 . S
O105 Sc89 2.105 . S
O105 C95 1.268 . S
O106 Sc90 2.105 . S
O106 C97 1.268 . S
O107 Sc88 2.105 . S
O107 C93 1.268 . S
O108 Sc90 2.105 . S
O108 C92 1.268 . S
O109 Sc89 2.105 . S
O109 C94 1.268 . S
Sc110 O113 2.025 . S
Sc110 O120 2.105 . S
Sc110 O123 2.105 . S
Sc110 O126 2.105 . S
Sc110 O129 2.105 . S
Sc111 O113 2.025 . S
Sc111 O121 2.105 . S
Sc111 O125 2.105 . S
Sc111 O127 2.105 . S
Sc111 O131 2.105 . S
Sc112 O113 2.025 . S
Sc112 O122 2.105 . S
Sc112 O124 2.105 . S
Sc112 O128 2.105 . S
Sc112 O130 2.105 . S
O113 Sc110 2.025 . S
O113 Sc111 2.025 . S
O113 Sc112 2.025 . S
C114 O120 1.268 . S
C114 O130 1.268 . S
C115 O121 1.268 . S
C115 O129 1.268 . S
C116 O122 1.268 . S
C116 O131 1.268 . S
C117 O123 1.268 . S
C117 O127 1.268 . S
C118 O124 1.268 . S
C118 O126 1.268 . S
C119 O125 1.268 . S
C119 O128 1.268 . S
O120 Sc110 2.105 . S
O120 C114 1.268 . S
O121 Sc111 2.105 . S
O121 C115 1.268 . S
O122 Sc112 2.105 . S
O122 C116 1.268 . S
O123 Sc110 2.105 . S
O123 C117 1.268 . S
O124 Sc112 2.105 . S
O124 C118 1.268 . S
O125 Sc111 2.105 . S
O125 C119 1.268 . S
O126 Sc110 2.105 . S
O126 C118 1.268 . S
O127 Sc111 2.105 . S
O127 C117 1.268 . S
O128 Sc112 2.105 . S
O128 C119 1.268 . S
O129 Sc110 2.105 . S
O129 C115 1.268 . S
O130 Sc112 2.105 . S
O130 C114 1.268 . S
O131 Sc111 2.105 . S
O131 C116 1.268 . S
Sc132 O135 2.025 . S
Sc132 O142 2.105 . S
Sc132 O145 2.105 . S
Sc132 O148 2.105 . S
Sc132 O151 2.105 . S
Sc133 O135 2.025 . S
Sc133 O143 2.105 . S
Sc133 O147 2.105 . S
Sc133 O149 2.105 . S
Sc133 O153 2.105 . S
Sc134 O135 2.025 . S
Sc134 O144 2.105 . S
Sc134 O146 2.105 . S
Sc134 O150 2.105 . S
Sc134 O152 2.105 . S
O135 Sc132 2.025 . S
O135 Sc133 2.025 . S
O135 Sc134 2.025 . S
C136 O142 1.268 . S
C136 O152 1.268 . S
C137 O143 1.268 . S
C137 O151 1.268 . S
C138 O144 1.268 . S
C138 O153 1.268 . S
C139 O145 1.268 . S
C139 O149 1.268 . S
C140 O146 1.268 . S
C140 O148 1.268 . S
C141 O147 1.268 . S
C141 O150 1.268 . S
O142 Sc132 2.105 . S
O142 C136 1.268 . S
O143 Sc133 2.105 . S
O143 C137 1.268 . S
O144 Sc134 2.105 . S
O144 C138 1.268 . S
O145 Sc132 2.105 . S
O145 C139 1.268 . S
O146 Sc134 2.105 . S
O146 C140 1.268 . S
O147 Sc133 2.105 . S
O147 C141 1.268 . S
O148 Sc132 2.105 . S
O148 C140 1.268 . S
O149 Sc133 2.105 . S
O149 C139 1.268 . S
O150 Sc134 2.105 . S
O150 C141 1.268 . S
O151 Sc132 2.105 . S
O151 C137 1.268 . S
O152 Sc134 2.105 . S
O152 C136 1.268 . S
O153 Sc133 2.105 . S
O153 C138 1.268 . S
Sc154 O157 2.025 . S
Sc154 O164 2.105 . S
Sc154 O167 2.105 . S
Sc154 O170 2.105 . S
Sc154 O173 2.105 . S
Sc155 O157 2.025 . S
Sc155 O165 2.105 . S
Sc155 O169 2.105 . S
Sc155 O171 2.105 . S
Sc155 O175 2.105 . S
Sc156 O157 2.025 . S
Sc156 O166 2.105 . S
Sc156 O168 2.105 . S
Sc156 O172 2.105 . S
Sc156 O174 2.105 . S
O157 Sc154 2.025 . S
O157 Sc155 2.025 . S
O157 Sc156 2.025 . S
C158 O164 1.268 . S
C158 O174 1.268 . S
C159 O165 1.268 . S
C159 O173 1.268 . S
C160 O166 1.268 . S
C160 O175 1.268 . S
C161 O167 1.268 . S
C161 O171 1.268 . S
C162 O168 1.268 . S
C162 O170 1.268 . S
C163 O169 1.268 . S
C163 O172 1.268 . S
O164 Sc154 2.105 . S
O164 C158 1.268 . S
O165 Sc155 2.105 . S
O165 C159 1.268 . S
O166 Sc156 2.105 . S
O166 C160 1.268 . S
O167 Sc154 2.105 . S
O167 C161 1.268 . S
O168 Sc156 2.105 . S
O168 C162 1.268 . S
O169 Sc155 2.105 . S
O169 C163 1.268 . S
O170 Sc154 2.105 . S
O170 C162 1.268 . S
O171 Sc155 2.105 . S
O171 C161 1.268 . S
O172 Sc156 2.105 . S
O172 C163 1.268 . S
O173 Sc154 2.105 . S
O173 C159 1.268 . S
O174 Sc156 2.105 . S
O174 C158 1.268 . S
O175 Sc155 2.105 . S
O175 C160 1.268 . S
Sc176 O179 2.025 . S
Sc176 O186 2.105 . S
Sc176 O189 2.105 . S
Sc176 O192 2.105 . S
Sc176 O195 2.105 . S
Sc177 O179 2.025 . S
Sc177 O187 2.105 . S
Sc177 O191 2.105 . S
Sc177 O193 2.105 . S
Sc177 O197 2.105 . S
Sc178 O179 2.025 . S
Sc178 O188 2.105 . S
Sc178 O190 2.105 . S
Sc178 O194 2.105 . S
Sc178 O196 2.105 . S
O179 Sc176 2.025 . S
O179 Sc177 2.025 . S
O179 Sc178 2.025 . S
C180 O186 1.268 . S
C180 O196 1.268 . S
C181 O187 1.268 . S
C181 O195 1.268 . S
C182 O188 1.268 . S
C182 O197 1.268 . S
C183 O189 1.268 . S
C183 O193 1.268 . S
C184 O190 1.268 . S
C184 O192 1.268 . S
C185 O191 1.268 . S
C185 O194 1.268 . S
O186 Sc176 2.105 . S
O186 C180 1.268 . S
O187 Sc177 2.105 . S
O187 C181 1.268 . S
O188 Sc178 2.105 . S
O188 C182 1.268 . S
O189 Sc176 2.105 . S
O189 C183 1.268 . S
O190 Sc178 2.105 . S
O190 C184 1.268 . S
O191 Sc177 2.105 . S
O191 C185 1.268 . S
O192 Sc176 2.105 . S
O192 C184 1.268 . S
O193 Sc177 2.105 . S
O193 C183 1.268 . S
O194 Sc178 2.105 . S
O194 C185 1.268 . S
O195 Sc176 2.105 . S
O195 C181 1.268 . S
O196 Sc178 2.105 . S
O196 C180 1.268 . S
O197 Sc177 2.105 . S
O197 C182 1.268 . S
Sc198 O201 2.025 . S
Sc198 O208 2.105 . S
Sc198 O211 2.105 . S
Sc198 O214 2.105 . S
Sc198 O217 2.105 . S
Sc199 O201 2.025 . S
Sc199 O209 2.105 . S
Sc199 O213 2.105 . S
Sc199 O215 2.105 . S
Sc199 O219 2.105 . S
Sc200 O201 2.025 . S
Sc200 O210 2.105 . S
Sc200 O212 2.105 . S
Sc200 O216 2.105 . S
Sc200 O218 2.105 . S
O201 Sc198 2.025 . S
O201 Sc199 2.025 . S
O201 Sc200 2.025 . S
C202 O208 1.268 . S
C202 O218 1.268 . S
C203 O209 1.268 . S
C203 O217 1.268 . S
C204 O210 1.268 . S
C204 O219 1.268 . S
C205 O211 1.268 . S
C205 O215 1.268 . S
C206 O212 1.268 . S
C206 O214 1.268 . S
C207 O213 1.268 . S
C207 O216 1.268 . S
O208 Sc198 2.105 . S
O208 C202 1.268 . S
O209 Sc199 2.105 . S
O209 C203 1.268 . S
O210 Sc200 2.105 . S
O210 C204 1.268 . S
O211 Sc198 2.105 . S
O211 C205 1.268 . S
O212 Sc200 2.105 . S
O212 C206 1.268 . S
O213 Sc199 2.105 . S
O213 C207 1.268 . S
O214 Sc198 2.105 . S
O214 C206 1.268 . S
O215 Sc199 2.105 . S
O215 C205 1.268 . S
O216 Sc200 2.105 . S
O216 C207 1.268 . S
O217 Sc198 2.105 . S
O217 C203 1.268 . S
O218 Sc200 2.105 . S
O218 C202 1.268 . S
O219 Sc199 2.105 . S
O219 C204 1.268 . S
Sc220 O223 2.025 . S
Sc220 O230 2.105 . S
Sc220 O233 2.105 . S
Sc220 O236 2.105 . S
Sc220 O239 2.105 . S
Sc221 O223 2.025 . S
Sc221 O231 2.105 . S
Sc221 O235 2.105 . S
Sc221 O237 2.105 . S
Sc221 O241 2.105 . S
Sc222 O223 2.025 . S
Sc222 O232 2.105 . S
Sc222 O234 2.105 . S
Sc222 O238 2.105 . S
Sc222 O240 2.105 . S
O223 Sc220 2.025 . S
O223 Sc221 2.025 . S
O223 Sc222 2.025 . S
C224 O230 1.268 . S
C224 O240 1.268 . S
C225 O231 1.268 . S
C225 O239 1.268 . S
C226 O232 1.268 . S
C226 O241 1.268 . S
C227 O233 1.268 . S
C227 O237 1.268 . S
C228 O234 1.268 . S
C228 O236 1.268 . S
C229 O235 1.268 . S
C229 O238 1.268 . S
O230 Sc220 2.105 . S
O230 C224 1.268 . S
O231 Sc221 2.105 . S
O231 C225 1.268 . S
O232 Sc222 2.105 . S
O232 C226 1.268 . S
O233 Sc220 2.105 . S
O233 C227 1.268 . S
O234 Sc222 2.105 . S
O234 C228 1.268 . S
O235 Sc221 2.105 . S
O235 C229 1.268 . S
O236 Sc220 2.105 . S
O236 C228 1.268 . S
O237 Sc221 2.105 . S
O237 C227 1.268 . S
O238 Sc222 2.105 . S
O238 C229 1.268 . S
O239 Sc220 2.105 . S
O239 C225 1.268 . S
O240 Sc222 2.105 . S
O240 C224 1.268 . S
O241 Sc221 2.105 . S
O241 C226 1.268 . S
Sc242 O245 2.025 . S
Sc242 O252 2.105 . S
Sc242 O255 2.105 . S
Sc242 O258 2.105 . S
Sc242 O261 2.105 . S
Sc243 O245 2.025 . S
Sc243 O253 2.105 . S
Sc243 O257 2.105 . S
Sc243 O259 2.105 . S
Sc243 O263 2.105 . S
Sc244 O245 2.025 . S
Sc244 O254 2.105 . S
Sc244 O256 2.105 . S
Sc244 O260 2.105 . S
Sc244 O262 2.105 . S
O245 Sc242 2.025 . S
O245 Sc243 2.025 . S
O245 Sc244 2.025 . S
C246 O252 1.268 . S
C246 O262 1.268 . S
C247 O253 1.268 . S
C247 O261 1.268 . S
C248 O254 1.268 . S
C248 O263 1.268 . S
C249 O255 1.268 . S
C249 O259 1.268 . S
C250 O256 1.268 . S
C250 O258 1.268 . S
C251 O257 1.268 . S
C251 O260 1.268 . S
O252 Sc242 2.105 . S
O252 C246 1.268 . S
O253 Sc243 2.105 . S
O253 C247 1.268 . S
O254 Sc244 2.105 . S
O254 C248 1.268 . S
O255 Sc242 2.105 . S
O255 C249 1.268 . S
O256 Sc244 2.105 . S
O256 C250 1.268 . S
O257 Sc243 2.105 . S
O257 C251 1.268 . S
O258 Sc242 2.105 . S
O258 C250 1.268 . S
O259 Sc243 2.105 . S
O259 C249 1.268 . S
O260 Sc244 2.105 . S
O260 C251 1.268 . S
O261 Sc242 2.105 . S
O261 C247 1.268 . S
O262 Sc244 2.105 . S
O262 C246 1.268 . S
O263 Sc243 2.105 . S
O263 C248 1.268 . S
Sc264 O267 2.025 . S
Sc264 O274 2.105 . S
Sc264 O277 2.105 . S
Sc264 O280 2.105 . S
Sc264 O283 2.105 . S
Sc265 O267 2.025 . S
Sc265 O275 2.105 . S
Sc265 O279 2.105 . S
Sc265 O281 2.105 . S
Sc265 O285 2.105 . S
Sc266 O267 2.025 . S
Sc266 O276 2.105 . S
Sc266 O278 2.105 . S
Sc266 O282 2.105 . S
Sc266 O284 2.105 . S
O267 Sc264 2.025 . S
O267 Sc265 2.025 . S
O267 Sc266 2.025 . S
C268 O274 1.268 . S
C268 O284 1.268 . S
C269 O275 1.268 . S
C269 O283 1.268 . S
C270 O276 1.268 . S
C270 O285 1.268 . S
C271 O277 1.268 . S
C271 O281 1.268 . S
C272 O278 1.268 . S
C272 O280 1.268 . S
C273 O279 1.268 . S
C273 O282 1.268 . S
O274 Sc264 2.105 . S
O274 C268 1.268 . S
O275 Sc265 2.105 . S
O275 C269 1.268 . S
O276 Sc266 2.105 . S
O276 C270 1.268 . S
O277 Sc264 2.105 . S
O277 C271 1.268 . S
O278 Sc266 2.105 . S
O278 C272 1.268 . S
O279 Sc265 2.105 . S
O279 C273 1.268 . S
O280 Sc264 2.105 . S
O280 C272 1.268 . S
O281 Sc265 2.105 . S
O281 C271 1.268 . S
O282 Sc266 2.105 . S
O282 C273 1.268 . S
O283 Sc264 2.105 . S
O283 C269 1.268 . S
O284 Sc266 2.105 . S
O284 C268 1.268 . S
O285 Sc265 2.105 . S
O285 C270 1.268 . S
Sc286 O289 2.025 . S
Sc286 O296 2.105 . S
Sc286 O299 2.105 . S
Sc286 O302 2.105 . S
Sc286 O305 2.105 . S
Sc287 O289 2.025 . S
Sc287 O297 2.105 . S
Sc287 O301 2.105 . S
Sc287 O303 2.105 . S
Sc287 O307 2.105 . S
Sc288 O289 2.025 . S
Sc288 O298 2.105 . S
Sc288 O300 2.105 . S
Sc288 O304 2.105 . S
Sc288 O306 2.105 . S
O289 Sc286 2.025 . S
O289 Sc287 2.025 . S
O289 Sc288 2.025 . S
C290 O296 1.268 . S
C290 O306 1.268 . S
C291 O297 1.268 . S
C291 O305 1.268 . S
C292 O298 1.268 . S
C292 O307 1.268 . S
C293 O299 1.268 . S
C293 O303 1.268 . S
C294 O300 1.268 . S
C294 O302 1.268 . S
C295 O301 1.268 . S
C295 O304 1.268 . S
O296 Sc286 2.105 . S
O296 C290 1.268 . S
O297 Sc287 2.105 . S
O297 C291 1.268 . S
O298 Sc288 2.105 . S
O298 C292 1.268 . S
O299 Sc286 2.105 . S
O299 C293 1.268 . S
O300 Sc288 2.105 . S
O300 C294 1.268 . S
O301 Sc287 2.105 . S
O301 C295 1.268 . S
O302 Sc286 2.105 . S
O302 C294 1.268 . S
O303 Sc287 2.105 . S
O303 C293 1.268 . S
O304 Sc288 2.105 . S
O304 C295 1.268 . S
O305 Sc286 2.105 . S
O305 C291 1.268 . S
O306 Sc288 2.105 . S
O306 C290 1.268 . S
O307 Sc287 2.105 . S
O307 C292 1.268 . S
Sc308 O311 2.025 . S
Sc308 O318 2.105 . S
Sc308 O321 2.105 . S
Sc308 O324 2.105 . S
Sc308 O327 2.105 . S
Sc309 O311 2.025 . S
Sc309 O319 2.105 . S
Sc309 O323 2.105 . S
Sc309 O325 2.105 . S
Sc309 O329 2.105 . S
Sc310 O311 2.025 . S
Sc310 O320 2.105 . S
Sc310 O322 2.105 . S
Sc310 O326 2.105 . S
Sc310 O328 2.105 . S
O311 Sc308 2.025 . S
O311 Sc309 2.025 . S
O311 Sc310 2.025 . S
C312 O318 1.268 . S
C312 O328 1.268 . S
C313 O319 1.268 . S
C313 O327 1.268 . S
C314 O320 1.268 . S
C314 O329 1.268 . S
C315 O321 1.268 . S
C315 O325 1.268 . S
C316 O322 1.268 . S
C316 O324 1.268 . S
C317 O323 1.268 . S
C317 O326 1.268 . S
O318 Sc308 2.105 . S
O318 C312 1.268 . S
O319 Sc309 2.105 . S
O319 C313 1.268 . S
O320 Sc310 2.105 . S
O320 C314 1.268 . S
O321 Sc308 2.105 . S
O321 C315 1.268 . S
O322 Sc310 2.105 . S
O322 C316 1.268 . S
O323 Sc309 2.105 . S
O323 C317 1.268 . S
O324 Sc308 2.105 . S
O324 C316 1.268 . S
O325 Sc309 2.105 . S
O325 C315 1.268 . S
O326 Sc310 2.105 . S
O326 C317 1.268 . S
O327 Sc308 2.105 . S
O327 C313 1.268 . S
O328 Sc310 2.105 . S
O328 C312 1.268 . S
O329 Sc309 2.105 . S
O329 C314 1.268 . S
Sc330 O333 2.025 . S
Sc330 O340 2.105 . S
Sc330 O343 2.105 . S
Sc330 O346 2.105 . S
Sc330 O349 2.105 . S
Sc331 O333 2.025 . S
Sc331 O341 2.105 . S
Sc331 O345 2.105 . S
Sc331 O347 2.105 . S
Sc331 O351 2.105 . S
Sc332 O333 2.025 . S
Sc332 O342 2.105 . S
Sc332 O344 2.105 . S
Sc332 O348 2.105 . S
Sc332 O350 2.105 . S
O333 Sc330 2.025 . S
O333 Sc331 2.025 . S
O333 Sc332 2.025 . S
C334 O340 1.268 . S
C334 O350 1.268 . S
C335 O341 1.268 . S
C335 O349 1.268 . S
C336 O342 1.268 . S
C336 O351 1.268 . S
C337 O343 1.268 . S
C337 O347 1.268 . S
C338 O344 1.268 . S
C338 O346 1.268 . S
C339 O345 1.268 . S
C339 O348 1.268 . S
O340 Sc330 2.105 . S
O340 C334 1.268 . S
O341 Sc331 2.105 . S
O341 C335 1.268 . S
O342 Sc332 2.105 . S
O342 C336 1.268 . S
O343 Sc330 2.105 . S
O343 C337 1.268 . S
O344 Sc332 2.105 . S
O344 C338 1.268 . S
O345 Sc331 2.105 . S
O345 C339 1.268 . S
O346 Sc330 2.105 . S
O346 C338 1.268 . S
O347 Sc331 2.105 . S
O347 C337 1.268 . S
O348 Sc332 2.105 . S
O348 C339 1.268 . S
O349 Sc330 2.105 . S
O349 C335 1.268 . S
O350 Sc332 2.105 . S
O350 C334 1.268 . S
O351 Sc331 2.105 . S
O351 C336 1.268 . S
C352 C353 1.349 . S
C352 C354 1.327 . S
C352 H377 0.950 . S
C353 C352 1.349 . S
C353 C369 1.349 . S
C354 C352 1.327 . S
C354 C373 1.429 . S
C354 H378 0.950 . S
C355 C372 1.574 . S
C355 C374 1.368 . S
C355 H379 0.949 . S
H356 C360 0.949 . S
C357 C358 1.349 . S
C357 C359 1.327 . S
C357 H380 0.950 . S
C358 C357 1.349 . S
C358 C370 1.349 . S
C359 C357 1.327 . S
C359 C375 1.429 . S
C359 H381 0.950 . S
C360 H356 0.949 . S
C360 C368 1.574 . S
C360 C376 1.368 . S
H361 C369 0.950 . S
H362 C367 0.950 . S
H363 C368 0.949 . S
H364 C370 0.950 . S
H365 C371 0.950 . S
H366 C372 0.949 . S
C367 H362 0.950 . S
C367 C369 1.327 . S
C367 C373 1.429 . S
C368 C360 1.574 . S
C368 H363 0.949 . S
C368 C374 1.368 . S
C369 C353 1.349 . S
C369 H361 0.950 . S
C369 C367 1.327 . S
C370 C358 1.349 . S
C370 H364 0.950 . S
C370 C371 1.327 . S
C371 H365 0.950 . S
C371 C370 1.327 . S
C371 C375 1.429 . S
C372 C355 1.574 . S
C372 H366 0.949 . S
C372 C376 1.368 . S
C373 C354 1.429 . S
C373 C367 1.429 . S
C373 C374 1.523 . S
C374 C355 1.368 . S
C374 C368 1.368 . S
C374 C373 1.523 . S
C375 C359 1.429 . S
C375 C371 1.429 . S
C375 C376 1.523 . S
C376 C360 1.368 . S
C376 C372 1.368 . S
C376 C375 1.523 . S
H377 C352 0.950 . S
H378 C354 0.950 . S
H379 C355 0.949 . S
H380 C357 0.950 . S
H381 C359 0.950 . S
C382 C383 1.349 . S
C382 C384 1.327 . S
C382 H407 0.950 . S
C383 C382 1.349 . S
C383 C399 1.349 . S
C384 C382 1.327 . S
C384 C403 1.429 . S
C384 H408 0.950 . S
C385 C402 1.574 . S
C385 C404 1.368 . S
C385 H409 0.949 . S
H386 C390 0.949 . S
C387 C388 1.349 . S
C387 C389 1.327 . S
C387 H410 0.950 . S
C388 C387 1.349 . S
C388 C400 1.349 . S
C389 C387 1.327 . S
C389 C405 1.429 . S
C389 H411 0.950 . S
C390 H386 0.949 . S
C390 C398 1.574 . S
C390 C406 1.368 . S
H391 C399 0.950 . S
H392 C397 0.950 . S
H393 C398 0.949 . S
H394 C400 0.950 . S
H395 C401 0.950 . S
H396 C402 0.949 . S
C397 H392 0.950 . S
C397 C399 1.327 . S
C397 C403 1.429 . S
C398 C390 1.574 . S
C398 H393 0.949 . S
C398 C404 1.368 . S
C399 C383 1.349 . S
C399 H391 0.950 . S
C399 C397 1.327 . S
C400 C388 1.349 . S
C400 H394 0.950 . S
C400 C401 1.327 . S
C401 H395 0.950 . S
C401 C400 1.327 . S
C401 C405 1.429 . S
C402 C385 1.574 . S
C402 H396 0.949 . S
C402 C406 1.368 . S
C403 C384 1.429 . S
C403 C397 1.429 . S
C403 C404 1.523 . S
C404 C385 1.368 . S
C404 C398 1.368 . S
C404 C403 1.523 . S
C405 C389 1.429 . S
C405 C401 1.429 . S
C405 C406 1.523 . S
C406 C390 1.368 . S
C406 C402 1.368 . S
C406 C405 1.523 . S
H407 C382 0.950 . S
H408 C384 0.950 . S
H409 C385 0.949 . S
H410 C387 0.950 . S
H411 C389 0.950 . S
C412 C413 1.349 . S
C412 C414 1.327 . S
C412 H437 0.950 . S
C413 C412 1.349 . S
C413 C429 1.349 . S
C414 C412 1.327 . S
C414 C433 1.429 . S
C414 H438 0.950 . S
C415 C432 1.574 . S
C415 C434 1.368 . S
C415 H439 0.949 . S
H416 C420 0.949 . S
C417 C418 1.349 . S
C417 C419 1.327 . S
C417 H440 0.950 . S
C418 C417 1.349 . S
C418 C430 1.349 . S
C419 C417 1.327 . S
C419 C435 1.429 . S
C419 H441 0.950 . S
C420 H416 0.949 . S
C420 C428 1.574 . S
C420 C436 1.368 . S
H421 C429 0.950 . S
H422 C427 0.950 . S
H423 C428 0.949 . S
H424 C430 0.950 . S
H425 C431 0.950 . S
H426 C432 0.949 . S
C427 H422 0.950 . S
C427 C429 1.327 . S
C427 C433 1.429 . S
C428 C420 1.574 . S
C428 H423 0.949 . S
C428 C434 1.368 . S
C429 C413 1.349 . S
C429 H421 0.950 . S
C429 C427 1.327 . S
C430 C418 1.349 . S
C430 H424 0.950 . S
C430 C431 1.327 . S
C431 H425 0.950 . S
C431 C430 1.327 . S
C431 C435 1.429 . S
C432 C415 1.574 . S
C432 H426 0.949 . S
C432 C436 1.368 . S
C433 C414 1.429 . S
C433 C427 1.429 . S
C433 C434 1.523 . S
C434 C415 1.368 . S
C434 C428 1.368 . S
C434 C433 1.523 . S
C435 C419 1.429 . S
C435 C431 1.429 . S
C435 C436 1.523 . S
C436 C420 1.368 . S
C436 C432 1.368 . S
C436 C435 1.523 . S
H437 C412 0.950 . S
H438 C414 0.950 . S
H439 C415 0.949 . S
H440 C417 0.950 . S
H441 C419 0.950 . S
C442 C443 1.349 . S
C442 C444 1.327 . S
C442 H467 0.950 . S
C443 C442 1.349 . S
C443 C459 1.349 . S
C444 C442 1.327 . S
C444 C463 1.429 . S
C444 H468 0.950 . S
C445 C462 1.574 . S
C445 C464 1.368 . S
C445 H469 0.949 . S
H446 C450 0.949 . S
C447 C448 1.349 . S
C447 C449 1.327 . S
C447 H470 0.950 . S
C448 C447 1.349 . S
C448 C460 1.349 . S
C449 C447 1.327 . S
C449 C465 1.429 . S
C449 H471 0.950 . S
C450 H446 0.949 . S
C450 C458 1.574 . S
C450 C466 1.368 . S
H451 C459 0.950 . S
H452 C457 0.950 . S
H453 C458 0.949 . S
H454 C460 0.950 . S
H455 C461 0.950 . S
H456 C462 0.949 . S
C457 H452 0.950 . S
C457 C459 1.327 . S
C457 C463 1.429 . S
C458 C450 1.574 . S
C458 H453 0.949 . S
C458 C464 1.368 . S
C459 C443 1.349 . S
C459 H451 0.950 . S
C459 C457 1.327 . S
C460 C448 1.349 . S
C460 H454 0.950 . S
C460 C461 1.327 . S
C461 H455 0.950 . S
C461 C460 1.327 . S
C461 C465 1.429 . S
C462 C445 1.574 . S
C462 H456 0.949 . S
C462 C466 1.368 . S
C463 C444 1.429 . S
C463 C457 1.429 . S
C463 C464 1.523 . S
C464 C445 1.368 . S
C464 C458 1.368 . S
C464 C463 1.523 . S
C465 C449 1.429 . S
C465 C461 1.429 . S
C465 C466 1.523 . S
C466 C450 1.368 . S
C466 C462 1.368 . S
C466 C465 1.523 . S
H467 C442 0.950 . S
H468 C444 0.950 . S
H469 C445 0.949 . S
H470 C447 0.950 . S
H471 C449 0.950 . S
C472 C473 1.349 . S
C472 C474 1.327 . S
C472 H497 0.950 . S
C473 C472 1.349 . S
C473 C489 1.349 . S
C474 C472 1.327 . S
C474 C493 1.429 . S
C474 H498 0.950 . S
C475 C492 1.574 . S
C475 C494 1.368 . S
C475 H499 0.949 . S
H476 C480 0.949 . S
C477 C478 1.349 . S
C477 C479 1.327 . S
C477 H500 0.950 . S
C478 C477 1.349 . S
C478 C490 1.349 . S
C479 C477 1.327 . S
C479 C495 1.429 . S
C479 H501 0.950 . S
C480 H476 0.949 . S
C480 C488 1.574 . S
C480 C496 1.368 . S
H481 C489 0.950 . S
H482 C487 0.950 . S
H483 C488 0.949 . S
H484 C490 0.950 . S
H485 C491 0.950 . S
H486 C492 0.949 . S
C487 H482 0.950 . S
C487 C489 1.327 . S
C487 C493 1.429 . S
C488 C480 1.574 . S
C488 H483 0.949 . S
C488 C494 1.368 . S
C489 C473 1.349 . S
C489 H481 0.950 . S
C489 C487 1.327 . S
C490 C478 1.349 . S
C490 H484 0.950 . S
C490 C491 1.327 . S
C491 H485 0.950 . S
C491 C490 1.327 . S
C491 C495 1.429 . S
C492 C475 1.574 . S
C492 H486 0.949 . S
C492 C496 1.368 . S
C493 C474 1.429 . S
C493 C487 1.429 . S
C493 C494 1.523 . S
C494 C475 1.368 . S
C494 C488 1.368 . S
C494 C493 1.523 . S
C495 C479 1.429 . S
C495 C491 1.429 . S
C495 C496 1.523 . S
C496 C480 1.368 . S
C496 C492 1.368 . S
C496 C495 1.523 . S
H497 C472 0.950 . S
H498 C474 0.950 . S
H499 C475 0.949 . S
H500 C477 0.950 . S
H501 C479 0.950 . S
C502 C503 1.349 . S
C502 C504 1.327 . S
C502 H527 0.950 . S
C503 C502 1.349 . S
C503 C519 1.349 . S
C504 C502 1.327 . S
C504 C523 1.429 . S
C504 H528 0.950 . S
C505 C522 1.574 . S
C505 C524 1.368 . S
C505 H529 0.949 . S
H506 C510 0.949 . S
C507 C508 1.349 . S
C507 C509 1.327 . S
C507 H530 0.950 . S
C508 C507 1.349 . S
C508 C520 1.349 . S
C509 C507 1.327 . S
C509 C525 1.429 . S
C509 H531 0.950 . S
C510 H506 0.949 . S
C510 C518 1.574 . S
C510 C526 1.368 . S
H511 C519 0.950 . S
H512 C517 0.950 . S
H513 C518 0.949 . S
H514 C520 0.950 . S
H515 C521 0.950 . S
H516 C522 0.949 . S
C517 H512 0.950 . S
C517 C519 1.327 . S
C517 C523 1.429 . S
C518 C510 1.574 . S
C518 H513 0.949 . S
C518 C524 1.368 . S
C519 C503 1.349 . S
C519 H511 0.950 . S
C519 C517 1.327 . S
C520 C508 1.349 . S
C520 H514 0.950 . S
C520 C521 1.327 . S
C521 H515 0.950 . S
C521 C520 1.327 . S
C521 C525 1.429 . S
C522 C505 1.574 . S
C522 H516 0.949 . S
C522 C526 1.368 . S
C523 C504 1.429 . S
C523 C517 1.429 . S
C523 C524 1.523 . S
C524 C505 1.368 . S
C524 C518 1.368 . S
C524 C523 1.523 . S
C525 C509 1.429 . S
C525 C521 1.429 . S
C525 C526 1.523 . S
C526 C510 1.368 . S
C526 C522 1.368 . S
C526 C525 1.523 . S
H527 C502 0.950 . S
H528 C504 0.950 . S
H529 C505 0.949 . S
H530 C507 0.950 . S
H531 C509 0.950 . S
C532 C533 1.349 . S
C532 C534 1.327 . S
C532 H557 0.950 . S
C533 C532 1.349 . S
C533 C549 1.349 . S
C534 C532 1.327 . S
C534 C553 1.429 . S
C534 H558 0.950 . S
C535 C552 1.574 . S
C535 C554 1.368 . S
C535 H559 0.949 . S
H536 C540 0.949 . S
C537 C538 1.349 . S
C537 C539 1.327 . S
C537 H560 0.950 . S
C538 C537 1.349 . S
C538 C550 1.349 . S
C539 C537 1.327 . S
C539 C555 1.429 . S
C539 H561 0.950 . S
C540 H536 0.949 . S
C540 C548 1.574 . S
C540 C556 1.368 . S
H541 C549 0.950 . S
H542 C547 0.950 . S
H543 C548 0.949 . S
H544 C550 0.950 . S
H545 C551 0.950 . S
H546 C552 0.949 . S
C547 H542 0.950 . S
C547 C549 1.327 . S
C547 C553 1.429 . S
C548 C540 1.574 . S
C548 H543 0.949 . S
C548 C554 1.368 . S
C549 C533 1.349 . S
C549 H541 0.950 . S
C549 C547 1.327 . S
C550 C538 1.349 . S
C550 H544 0.950 . S
C550 C551 1.327 . S
C551 H545 0.950 . S
C551 C550 1.327 . S
C551 C555 1.429 . S
C552 C535 1.574 . S
C552 H546 0.949 . S
C552 C556 1.368 . S
C553 C534 1.429 . S
C553 C547 1.429 . S
C553 C554 1.523 . S
C554 C535 1.368 . S
C554 C548 1.368 . S
C554 C553 1.523 . S
C555 C539 1.429 . S
C555 C551 1.429 . S
C555 C556 1.523 . S
C556 C540 1.368 . S
C556 C552 1.368 . S
C556 C555 1.523 . S
H557 C532 0.950 . S
H558 C534 0.950 . S
H559 C535 0.949 . S
H560 C537 0.950 . S
H561 C539 0.950 . S
C562 C563 1.349 . S
C562 C564 1.327 . S
C562 H587 0.950 . S
C563 C562 1.349 . S
C563 C579 1.349 . S
C564 C562 1.327 . S
C564 C583 1.429 . S
C564 H588 0.950 . S
C565 C582 1.574 . S
C565 C584 1.368 . S
C565 H589 0.949 . S
H566 C570 0.949 . S
C567 C568 1.349 . S
C567 C569 1.327 . S
C567 H590 0.950 . S
C568 C567 1.349 . S
C568 C580 1.349 . S
C569 C567 1.327 . S
C569 C585 1.429 . S
C569 H591 0.950 . S
C570 H566 0.949 . S
C570 C578 1.574 . S
C570 C586 1.368 . S
H571 C579 0.950 . S
H572 C577 0.950 . S
H573 C578 0.949 . S
H574 C580 0.950 . S
H575 C581 0.950 . S
H576 C582 0.949 . S
C577 H572 0.950 . S
C577 C579 1.327 . S
C577 C583 1.429 . S
C578 C570 1.574 . S
C578 H573 0.949 . S
C578 C584 1.368 . S
C579 C563 1.349 . S
C579 H571 0.950 . S
C579 C577 1.327 . S
C580 C568 1.349 . S
C580 H574 0.950 . S
C580 C581 1.327 . S
C581 H575 0.950 . S
C581 C580 1.327 . S
C581 C585 1.429 . S
C582 C565 1.574 . S
C582 H576 0.949 . S
C582 C586 1.368 . S
C583 C564 1.429 . S
C583 C577 1.429 . S
C583 C584 1.523 . S
C584 C565 1.368 . S
C584 C578 1.368 . S
C584 C583 1.523 . S
C585 C569 1.429 . S
C585 C581 1.429 . S
C585 C586 1.523 . S
C586 C570 1.368 . S
C586 C582 1.368 . S
C586 C585 1.523 . S
H587 C562 0.950 . S
H588 C564 0.950 . S
H589 C565 0.949 . S
H590 C567 0.950 . S
H591 C569 0.950 . S
C592 C593 1.349 . S
C592 C594 1.327 . S
C592 H617 0.950 . S
C593 C592 1.349 . S
C593 C609 1.349 . S
C594 C592 1.327 . S
C594 C613 1.429 . S
C594 H618 0.950 . S
C595 C612 1.574 . S
C595 C614 1.368 . S
C595 H619 0.949 . S
H596 C600 0.949 . S
C597 C598 1.349 . S
C597 C599 1.327 . S
C597 H620 0.950 . S
C598 C597 1.349 . S
C598 C610 1.349 . S
C599 C597 1.327 . S
C599 C615 1.429 . S
C599 H621 0.950 . S
C600 H596 0.949 . S
C600 C608 1.574 . S
C600 C616 1.368 . S
H601 C609 0.950 . S
H602 C607 0.950 . S
H603 C608 0.949 . S
H604 C610 0.950 . S
H605 C611 0.950 . S
H606 C612 0.949 . S
C607 H602 0.950 . S
C607 C609 1.327 . S
C607 C613 1.429 . S
C608 C600 1.574 . S
C608 H603 0.949 . S
C608 C614 1.368 . S
C609 C593 1.349 . S
C609 H601 0.950 . S
C609 C607 1.327 . S
C610 C598 1.349 . S
C610 H604 0.950 . S
C610 C611 1.327 . S
C611 H605 0.950 . S
C611 C610 1.327 . S
C611 C615 1.429 . S
C612 C595 1.574 . S
C612 H606 0.949 . S
C612 C616 1.368 . S
C613 C594 1.429 . S
C613 C607 1.429 . S
C613 C614 1.523 . S
C614 C595 1.368 . S
C614 C608 1.368 . S
C614 C613 1.523 . S
C615 C599 1.429 . S
C615 C611 1.429 . S
C615 C616 1.523 . S
C616 C600 1.368 . S
C616 C612 1.368 . S
C616 C615 1.523 . S
H617 C592 0.950 . S
H618 C594 0.950 . S
H619 C595 0.949 . S
H620 C597 0.950 . S
H621 C599 0.950 . S
C622 C623 1.349 . S
C622 C624 1.327 . S
C622 H647 0.950 . S
C623 C622 1.349 . S
C623 C639 1.349 . S
C624 C622 1.327 . S
C624 C643 1.429 . S
C624 H648 0.950 . S
C625 C642 1.574 . S
C625 C644 1.368 . S
C625 H649 0.949 . S
H626 C630 0.949 . S
C627 C628 1.349 . S
C627 C629 1.327 . S
C627 H650 0.950 . S
C628 C627 1.349 . S
C628 C640 1.349 . S
C629 C627 1.327 . S
C629 C645 1.429 . S
C629 H651 0.950 . S
C630 H626 0.949 . S
C630 C638 1.574 . S
C630 C646 1.368 . S
H631 C639 0.950 . S
H632 C637 0.950 . S
H633 C638 0.949 . S
H634 C640 0.950 . S
H635 C641 0.950 . S
H636 C642 0.949 . S
C637 H632 0.950 . S
C637 C639 1.327 . S
C637 C643 1.429 . S
C638 C630 1.574 . S
C638 H633 0.949 . S
C638 C644 1.368 . S
C639 C623 1.349 . S
C639 H631 0.950 . S
C639 C637 1.327 . S
C640 C628 1.349 . S
C640 H634 0.950 . S
C640 C641 1.327 . S
C641 H635 0.950 . S
C641 C640 1.327 . S
C641 C645 1.429 . S
C642 C625 1.574 . S
C642 H636 0.949 . S
C642 C646 1.368 . S
C643 C624 1.429 . S
C643 C637 1.429 . S
C643 C644 1.523 . S
C644 C625 1.368 . S
C644 C638 1.368 . S
C644 C643 1.523 . S
C645 C629 1.429 . S
C645 C641 1.429 . S
C645 C646 1.523 . S
C646 C630 1.368 . S
C646 C642 1.368 . S
C646 C645 1.523 . S
H647 C622 0.950 . S
H648 C624 0.950 . S
H649 C625 0.949 . S
H650 C627 0.950 . S
H651 C629 0.950 . S
C652 C653 1.349 . S
C652 C654 1.327 . S
C652 H677 0.950 . S
C653 C652 1.349 . S
C653 C669 1.349 . S
C654 C652 1.327 . S
C654 C673 1.429 . S
C654 H678 0.950 . S
C655 C672 1.574 . S
C655 C674 1.368 . S
C655 H679 0.949 . S
H656 C660 0.949 . S
C657 C658 1.349 . S
C657 C659 1.327 . S
C657 H680 0.950 . S
C658 C657 1.349 . S
C658 C670 1.349 . S
C659 C657 1.327 . S
C659 C675 1.429 . S
C659 H681 0.950 . S
C660 H656 0.949 . S
C660 C668 1.574 . S
C660 C676 1.368 . S
H661 C669 0.950 . S
H662 C667 0.950 . S
H663 C668 0.949 . S
H664 C670 0.950 . S
H665 C671 0.950 . S
H666 C672 0.949 . S
C667 H662 0.950 . S
C667 C669 1.327 . S
C667 C673 1.429 . S
C668 C660 1.574 . S
C668 H663 0.949 . S
C668 C674 1.368 . S
C669 C653 1.349 . S
C669 H661 0.950 . S
C669 C667 1.327 . S
C670 C658 1.349 . S
C670 H664 0.950 . S
C670 C671 1.327 . S
C671 H665 0.950 . S
C671 C670 1.327 . S
C671 C675 1.429 . S
C672 C655 1.574 . S
C672 H666 0.949 . S
C672 C676 1.368 . S
C673 C654 1.429 . S
C673 C667 1.429 . S
C673 C674 1.523 . S
C674 C655 1.368 . S
C674 C668 1.368 . S
C674 C673 1.523 . S
C675 C659 1.429 . S
C675 C671 1.429 . S
C675 C676 1.523 . S
C676 C660 1.368 . S
C676 C672 1.368 . S
C676 C675 1.523 . S
H677 C652 0.950 . S
H678 C654 0.950 . S
H679 C655 0.949 . S
H680 C657 0.950 . S
H681 C659 0.950 . S
C682 C683 1.349 . S
C682 C684 1.327 . S
C682 H707 0.950 . S
C683 C682 1.349 . S
C683 C699 1.349 . S
C684 C682 1.327 . S
C684 C703 1.429 . S
C684 H708 0.950 . S
C685 C702 1.574 . S
C685 C704 1.368 . S
C685 H709 0.949 . S
H686 C690 0.949 . S
C687 C688 1.349 . S
C687 C689 1.327 . S
C687 H710 0.950 . S
C688 C687 1.349 . S
C688 C700 1.349 . S
C689 C687 1.327 . S
C689 C705 1.429 . S
C689 H711 0.950 . S
C690 H686 0.949 . S
C690 C698 1.574 . S
C690 C706 1.368 . S
H691 C699 0.950 . S
H692 C697 0.950 . S
H693 C698 0.949 . S
H694 C700 0.950 . S
H695 C701 0.950 . S
H696 C702 0.949 . S
C697 H692 0.950 . S
C697 C699 1.327 . S
C697 C703 1.429 . S
C698 C690 1.574 . S
C698 H693 0.949 . S
C698 C704 1.368 . S
C699 C683 1.349 . S
C699 H691 0.950 . S
C699 C697 1.327 . S
C700 C688 1.349 . S
C700 H694 0.950 . S
C700 C701 1.327 . S
C701 H695 0.950 . S
C701 C700 1.327 . S
C701 C705 1.429 . S
C702 C685 1.574 . S
C702 H696 0.949 . S
C702 C706 1.368 . S
C703 C684 1.429 . S
C703 C697 1.429 . S
C703 C704 1.523 . S
C704 C685 1.368 . S
C704 C698 1.368 . S
C704 C703 1.523 . S
C705 C689 1.429 . S
C705 C701 1.429 . S
C705 C706 1.523 . S
C706 C690 1.368 . S
C706 C702 1.368 . S
C706 C705 1.523 . S
H707 C682 0.950 . S
H708 C684 0.950 . S
H709 C685 0.949 . S
H710 C687 0.950 . S
H711 C689 0.950 . S
C712 C713 1.349 . S
C712 C714 1.327 . S
C712 H737 0.950 . S
C713 C712 1.349 . S
C713 C729 1.349 . S
C714 C712 1.327 . S
C714 C733 1.429 . S
C714 H738 0.950 . S
C715 C732 1.574 . S
C715 C734 1.368 . S
C715 H739 0.949 . S
H716 C720 0.949 . S
C717 C718 1.349 . S
C717 C719 1.327 . S
C717 H740 0.950 . S
C718 C717 1.349 . S
C718 C730 1.349 . S
C719 C717 1.327 . S
C719 C735 1.429 . S
C719 H741 0.950 . S
C720 H716 0.949 . S
C720 C728 1.574 . S
C720 C736 1.368 . S
H721 C729 0.950 . S
H722 C727 0.950 . S
H723 C728 0.949 . S
H724 C730 0.950 . S
H725 C731 0.950 . S
H726 C732 0.949 . S
C727 H722 0.950 . S
C727 C729 1.327 . S
C727 C733 1.429 . S
C728 C720 1.574 . S
C728 H723 0.949 . S
C728 C734 1.368 . S
C729 C713 1.349 . S
C729 H721 0.950 . S
C729 C727 1.327 . S
C730 C718 1.349 . S
C730 H724 0.950 . S
C730 C731 1.327 . S
C731 H725 0.950 . S
C731 C730 1.327 . S
C731 C735 1.429 . S
C732 C715 1.574 . S
C732 H726 0.949 . S
C732 C736 1.368 . S
C733 C714 1.429 . S
C733 C727 1.429 . S
C733 C734 1.523 . S
C734 C715 1.368 . S
C734 C728 1.368 . S
C734 C733 1.523 . S
C735 C719 1.429 . S
C735 C731 1.429 . S
C735 C736 1.523 . S
C736 C720 1.368 . S
C736 C732 1.368 . S
C736 C735 1.523 . S
H737 C712 0.950 . S
H738 C714 0.950 . S
H739 C715 0.949 . S
H740 C717 0.950 . S
H741 C719 0.950 . S
C742 C743 1.349 . S
C742 C744 1.327 . S
C742 H767 0.950 . S
C743 C742 1.349 . S
C743 C759 1.349 . S
C744 C742 1.327 . S
C744 C763 1.429 . S
C744 H768 0.950 . S
C745 C762 1.574 . S
C745 C764 1.368 . S
C745 H769 0.949 . S
H746 C750 0.949 . S
C747 C748 1.349 . S
C747 C749 1.327 . S
C747 H770 0.950 . S
C748 C747 1.349 . S
C748 C760 1.349 . S
C749 C747 1.327 . S
C749 C765 1.429 . S
C749 H771 0.950 . S
C750 H746 0.949 . S
C750 C758 1.574 . S
C750 C766 1.368 . S
H751 C759 0.950 . S
H752 C757 0.950 . S
H753 C758 0.949 . S
H754 C760 0.950 . S
H755 C761 0.950 . S
H756 C762 0.949 . S
C757 H752 0.950 . S
C757 C759 1.327 . S
C757 C763 1.429 . S
C758 C750 1.574 . S
C758 H753 0.949 . S
C758 C764 1.368 . S
C759 C743 1.349 . S
C759 H751 0.950 . S
C759 C757 1.327 . S
C760 C748 1.349 . S
C760 H754 0.950 . S
C760 C761 1.327 . S
C761 H755 0.950 . S
C761 C760 1.327 . S
C761 C765 1.429 . S
C762 C745 1.574 . S
C762 H756 0.949 . S
C762 C766 1.368 . S
C763 C744 1.429 . S
C763 C757 1.429 . S
C763 C764 1.523 . S
C764 C745 1.368 . S
C764 C758 1.368 . S
C764 C763 1.523 . S
C765 C749 1.429 . S
C765 C761 1.429 . S
C765 C766 1.523 . S
C766 C750 1.368 . S
C766 C762 1.368 . S
C766 C765 1.523 . S
H767 C742 0.950 . S
H768 C744 0.950 . S
H769 C745 0.949 . S
H770 C747 0.950 . S
H771 C749 0.950 . S
C772 C773 1.349 . S
C772 C774 1.327 . S
C772 H797 0.950 . S
C773 C772 1.349 . S
C773 C789 1.349 . S
C774 C772 1.327 . S
C774 C793 1.429 . S
C774 H798 0.950 . S
C775 C792 1.574 . S
C775 C794 1.368 . S
C775 H799 0.949 . S
H776 C780 0.949 . S
C777 C778 1.349 . S
C777 C779 1.327 . S
C777 H800 0.950 . S
C778 C777 1.349 . S
C778 C790 1.349 . S
C779 C777 1.327 . S
C779 C795 1.429 . S
C779 H801 0.950 . S
C780 H776 0.949 . S
C780 C788 1.574 . S
C780 C796 1.368 . S
H781 C789 0.950 . S
H782 C787 0.950 . S
H783 C788 0.949 . S
H784 C790 0.950 . S
H785 C791 0.950 . S
H786 C792 0.949 . S
C787 H782 0.950 . S
C787 C789 1.327 . S
C787 C793 1.429 . S
C788 C780 1.574 . S
C788 H783 0.949 . S
C788 C794 1.368 . S
C789 C773 1.349 . S
C789 H781 0.950 . S
C789 C787 1.327 . S
C790 C778 1.349 . S
C790 H784 0.950 . S
C790 C791 1.327 . S
C791 H785 0.950 . S
C791 C790 1.327 . S
C791 C795 1.429 . S
C792 C775 1.574 . S
C792 H786 0.949 . S
C792 C796 1.368 . S
C793 C774 1.429 . S
C793 C787 1.429 . S
C793 C794 1.523 . S
C794 C775 1.368 . S
C794 C788 1.368 . S
C794 C793 1.523 . S
C795 C779 1.429 . S
C795 C791 1.429 . S
C795 C796 1.523 . S
C796 C780 1.368 . S
C796 C792 1.368 . S
C796 C795 1.523 . S
H797 C772 0.950 . S
H798 C774 0.950 . S
H799 C775 0.949 . S
H800 C777 0.950 . S
H801 C779 0.950 . S
C802 C803 1.349 . S
C802 C804 1.327 . S
C802 H827 0.950 . S
C803 C802 1.349 . S
C803 C819 1.349 . S
C804 C802 1.327 . S
C804 C823 1.429 . S
C804 H828 0.950 . S
C805 C822 1.574 . S
C805 C824 1.368 . S
C805 H829 0.949 . S
H806 C810 0.949 . S
C807 C808 1.349 . S
C807 C809 1.327 . S
C807 H830 0.950 . S
C808 C807 1.349 . S
C808 C820 1.349 . S
C809 C807 1.327 . S
C809 C825 1.429 . S
C809 H831 0.950 . S
C810 H806 0.949 . S
C810 C818 1.574 . S
C810 C826 1.368 . S
H811 C819 0.950 . S
H812 C817 0.950 . S
H813 C818 0.949 . S
H814 C820 0.950 . S
H815 C821 0.950 . S
H816 C822 0.949 . S
C817 H812 0.950 . S
C817 C819 1.327 . S
C817 C823 1.429 . S
C818 C810 1.574 . S
C818 H813 0.949 . S
C818 C824 1.368 . S
C819 C803 1.349 . S
C819 H811 0.950 . S
C819 C817 1.327 . S
C820 C808 1.349 . S
C820 H814 0.950 . S
C820 C821 1.327 . S
C821 H815 0.950 . S
C821 C820 1.327 . S
C821 C825 1.429 . S
C822 C805 1.574 . S
C822 H816 0.949 . S
C822 C826 1.368 . S
C823 C804 1.429 . S
C823 C817 1.429 . S
C823 C824 1.523 . S
C824 C805 1.368 . S
C824 C818 1.368 . S
C824 C823 1.523 . S
C825 C809 1.429 . S
C825 C821 1.429 . S
C825 C826 1.523 . S
C826 C810 1.368 . S
C826 C822 1.368 . S
C826 C825 1.523 . S
H827 C802 0.950 . S
H828 C804 0.950 . S
H829 C805 0.949 . S
H830 C807 0.950 . S
H831 C809 0.950 . S
C832 C833 1.349 . S
C832 C834 1.327 . S
C832 H857 0.950 . S
C833 C832 1.349 . S
C833 C849 1.349 . S
C834 C832 1.327 . S
C834 C853 1.429 . S
C834 H858 0.950 . S
C835 C852 1.574 . S
C835 C854 1.368 . S
C835 H859 0.949 1_556 S
H836 C840 0.949 . S
C837 C838 1.349 . S
C837 C839 1.327 . S
C837 H860 0.950 . S
C838 C837 1.349 . S
C838 C850 1.349 . S
C839 C837 1.327 . S
C839 C855 1.429 . S
C839 H861 0.950 . S
C840 H836 0.949 . S
C840 C848 1.574 . S
C840 C856 1.368 . S
H841 C849 0.950 . S
H842 C847 0.950 . S
H843 C848 0.949 . S
H844 C850 0.950 . S
H845 C851 0.950 . S
H846 C852 0.949 . S
C847 H842 0.950 . S
C847 C849 1.327 . S
C847 C853 1.429 . S
C848 C840 1.574 . S
C848 H843 0.949 . S
C848 C854 1.368 . S
C849 C833 1.349 . S
C849 H841 0.950 . S
C849 C847 1.327 . S
C850 C838 1.349 . S
C850 H844 0.950 . S
C850 C851 1.327 . S
C851 H845 0.950 . S
C851 C850 1.327 . S
C851 C855 1.429 . S
C852 C835 1.574 . S
C852 H846 0.949 . S
C852 C856 1.368 . S
C853 C834 1.429 . S
C853 C847 1.429 . S
C853 C854 1.523 1_554 S
C854 C835 1.368 . S
C854 C848 1.368 . S
C854 C853 1.523 1_556 S
C855 C839 1.429 . S
C855 C851 1.429 . S
C855 C856 1.523 . S
C856 C840 1.368 . S
C856 C852 1.368 . S
C856 C855 1.523 . S
H857 C832 0.950 . S
H858 C834 0.950 . S
H859 C835 0.949 1_554 S
H860 C837 0.950 . S
H861 C839 0.950 . S
C862 C863 1.349 . S
C862 C864 1.327 . S
C862 H887 0.950 . S
C863 C862 1.349 . S
C863 C879 1.349 . S
C864 C862 1.327 . S
C864 C883 1.429 . S
C864 H888 0.950 . S
C865 C882 1.574 . S
C865 C884 1.368 . S
C865 H889 0.949 . S
H866 C870 0.949 . S
C867 C868 1.349 . S
C867 C869 1.327 . S
C867 H890 0.950 . S
C868 C867 1.349 . S
C868 C880 1.349 . S
C869 C867 1.327 . S
C869 C885 1.429 . S
C869 H891 0.950 . S
C870 H866 0.949 . S
C870 C878 1.574 . S
C870 C886 1.368 . S
H871 C879 0.950 . S
H872 C877 0.950 . S
H873 C878 0.949 . S
H874 C880 0.950 . S
H875 C881 0.950 . S
H876 C882 0.949 . S
C877 H872 0.950 . S
C877 C879 1.327 . S
C877 C883 1.429 . S
C878 C870 1.574 . S
C878 H873 0.949 . S
C878 C884 1.368 . S
C879 C863 1.349 . S
C879 H871 0.950 . S
C879 C877 1.327 . S
C880 C868 1.349 . S
C880 H874 0.950 . S
C880 C881 1.327 . S
C881 H875 0.950 . S
C881 C880 1.327 . S
C881 C885 1.429 . S
C882 C865 1.574 . S
C882 H876 0.949 . S
C882 C886 1.368 . S
C883 C864 1.429 . S
C883 C877 1.429 . S
C883 C884 1.523 . S
C884 C865 1.368 . S
C884 C878 1.368 . S
C884 C883 1.523 . S
C885 C869 1.429 . S
C885 C881 1.429 . S
C885 C886 1.523 . S
C886 C870 1.368 . S
C886 C882 1.368 . S
C886 C885 1.523 . S
H887 C862 0.950 . S
H888 C864 0.950 . S
H889 C865 0.949 . S
H890 C867 0.950 . S
H891 C869 0.950 . S
C892 C893 1.349 . S
C892 C894 1.327 . S
C892 H917 0.950 . S
C893 C892 1.349 . S
C893 C909 1.349 . S
C894 C892 1.327 . S
C894 C913 1.429 . S
C894 H918 0.950 . S
C895 C912 1.574 . S
C895 C914 1.368 . S
C895 H919 0.949 . S
H896 C900 0.949 . S
C897 C898 1.349 . S
C897 C899 1.327 . S
C897 H920 0.950 . S
C898 C897 1.349 . S
C898 C910 1.349 . S
C899 C897 1.327 . S
C899 C915 1.429 . S
C899 H921 0.950 . S
C900 H896 0.949 . S
C900 C908 1.574 . S
C900 C916 1.368 . S
H901 C909 0.950 . S
H902 C907 0.950 . S
H903 C908 0.949 . S
H904 C910 0.950 . S
H905 C911 0.950 . S
H906 C912 0.949 . S
C907 H902 0.950 . S
C907 C909 1.327 . S
C907 C913 1.429 . S
C908 C900 1.574 . S
C908 H903 0.949 . S
C908 C914 1.368 . S
C909 C893 1.349 . S
C909 H901 0.950 . S
C909 C907 1.327 . S
C910 C898 1.349 . S
C910 H904 0.950 . S
C910 C911 1.327 . S
C911 H905 0.950 . S
C911 C910 1.327 . S
C911 C915 1.429 . S
C912 C895 1.574 . S
C912 H906 0.949 . S
C912 C916 1.368 . S
C913 C894 1.429 . S
C913 C907 1.429 . S
C913 C914 1.523 1_554 S
C914 C895 1.368 . S
C914 C908 1.368 . S
C914 C913 1.523 1_556 S
C915 C899 1.429 . S
C915 C911 1.429 . S
C915 C916 1.523 . S
C916 C900 1.368 . S
C916 C912 1.368 . S
C916 C915 1.523 . S
H917 C892 0.950 . S
H918 C894 0.950 . S
H919 C895 0.949 . S
H920 C897 0.950 . S
H921 C899 0.950 . S
C922 C923 1.349 . S
C922 C924 1.327 . S
C922 H947 0.950 . S
C923 C922 1.349 . S
C923 C939 1.349 . S
C924 C922 1.327 . S
C924 C943 1.429 . S
C924 H948 0.950 . S
C925 C942 1.574 . S
C925 C944 1.368 . S
C925 H949 0.949 . S
H926 C930 0.949 . S
C927 C928 1.349 . S
C927 C929 1.327 . S
C927 H950 0.950 . S
C928 C927 1.349 . S
C928 C940 1.349 . S
C929 C927 1.327 . S
C929 C945 1.429 . S
C929 H951 0.950 . S
C930 H926 0.949 . S
C930 C938 1.574 . S
C930 C946 1.368 . S
H931 C939 0.950 . S
H932 C937 0.950 . S
H933 C938 0.949 . S
H934 C940 0.950 . S
H935 C941 0.950 . S
H936 C942 0.949 . S
C937 H932 0.950 . S
C937 C939 1.327 . S
C937 C943 1.429 . S
C938 C930 1.574 . S
C938 H933 0.949 . S
C938 C944 1.368 . S
C939 C923 1.349 . S
C939 H931 0.950 . S
C939 C937 1.327 . S
C940 C928 1.349 . S
C940 H934 0.950 . S
C940 C941 1.327 . S
C941 H935 0.950 . S
C941 C940 1.327 . S
C941 C945 1.429 . S
C942 C925 1.574 . S
C942 H936 0.949 . S
C942 C946 1.368 . S
C943 C924 1.429 . S
C943 C937 1.429 . S
C943 C944 1.523 . S
C944 C925 1.368 . S
C944 C938 1.368 . S
C944 C943 1.523 . S
C945 C929 1.429 . S
C945 C941 1.429 . S
C945 C946 1.523 . S
C946 C930 1.368 . S
C946 C942 1.368 . S
C946 C945 1.523 . S
H947 C922 0.950 . S
H948 C924 0.950 . S
H949 C925 0.949 . S
H950 C927 0.950 . S
H951 C929 0.950 . S
C952 C953 1.349 . S
C952 C954 1.327 . S
C952 H977 0.950 . S
C953 C952 1.349 . S
C953 C969 1.349 . S
C954 C952 1.327 . S
C954 C973 1.429 . S
C954 H978 0.950 . S
C955 C972 1.574 . S
C955 C974 1.368 . S
C955 H979 0.949 . S
H956 C960 0.949 . S
C957 C958 1.349 . S
C957 C959 1.327 . S
C957 H980 0.950 . S
C958 C957 1.349 . S
C958 C970 1.349 . S
C959 C957 1.327 . S
C959 C975 1.429 . S
C959 H981 0.950 . S
C960 H956 0.949 . S
C960 C968 1.574 . S
C960 C976 1.368 . S
H961 C969 0.950 . S
H962 C967 0.950 . S
H963 C968 0.949 . S
H964 C970 0.950 . S
H965 C971 0.950 . S
H966 C972 0.949 . S
C967 H962 0.950 . S
C967 C969 1.327 . S
C967 C973 1.429 . S
C968 C960 1.574 . S
C968 H963 0.949 . S
C968 C974 1.368 . S
C969 C953 1.349 . S
C969 H961 0.950 . S
C969 C967 1.327 . S
C970 C958 1.349 . S
C970 H964 0.950 . S
C970 C971 1.327 . S
C971 H965 0.950 . S
C971 C970 1.327 . S
C971 C975 1.429 . S
C972 C955 1.574 . S
C972 H966 0.949 . S
C972 C976 1.368 . S
C973 C954 1.429 . S
C973 C967 1.429 . S
C973 C974 1.523 1_556 S
C974 C955 1.368 . S
C974 C968 1.368 . S
C974 C973 1.523 1_554 S
C975 C959 1.429 . S
C975 C971 1.429 . S
C975 C976 1.523 . S
C976 C960 1.368 . S
C976 C972 1.368 . S
C976 C975 1.523 . S
H977 C952 0.950 . S
H978 C954 0.950 . S
H979 C955 0.949 . S
H980 C957 0.950 . S
H981 C959 0.950 . S
C982 C983 1.349 . S
C982 C984 1.327 . S
C982 H1007 0.950 . S
C983 C982 1.349 . S
C983 C999 1.349 . S
C984 C982 1.327 . S
C984 C1003 1.429 . S
C984 H1008 0.950 . S
C985 C1002 1.574 . S
C985 C1004 1.368 . S
C985 H1009 0.949 . S
H986 C990 0.949 . S
C987 C988 1.349 . S
C987 C989 1.327 . S
C987 H1010 0.950 . S
C988 C987 1.349 . S
C988 C1000 1.349 . S
C989 C987 1.327 . S
C989 C1005 1.429 . S
C989 H1011 0.950 . S
C990 H986 0.949 . S
C990 C998 1.574 . S
C990 C1006 1.368 . S
H991 C999 0.950 . S
H992 C997 0.950 . S
H993 C998 0.949 . S
H994 C1000 0.950 . S
H995 C1001 0.950 . S
H996 C1002 0.949 . S
C997 H992 0.950 . S
C997 C999 1.327 . S
C997 C1003 1.429 . S
C998 C990 1.574 . S
C998 H993 0.949 . S
C998 C1004 1.368 . S
C999 C983 1.349 . S
C999 H991 0.950 . S
C999 C997 1.327 . S
C1000 C988 1.349 . S
C1000 H994 0.950 . S
C1000 C1001 1.327 . S
C1001 H995 0.950 . S
C1001 C1000 1.327 . S
C1001 C1005 1.429 . S
C1002 C985 1.574 . S
C1002 H996 0.949 . S
C1002 C1006 1.368 . S
C1003 C984 1.429 . S
C1003 C997 1.429 . S
C1003 C1004 1.523 . S
C1004 C985 1.368 . S
C1004 C998 1.368 . S
C1004 C1003 1.523 . S
C1005 C989 1.429 . S
C1005 C1001 1.429 . S
C1005 C1006 1.523 . S
C1006 C990 1.368 . S
C1006 C1002 1.368 . S
C1006 C1005 1.523 . S
H1007 C982 0.950 . S
H1008 C984 0.950 . S
H1009 C985 0.949 . S
H1010 C987 0.950 . S
H1011 C989 0.950 . S
C1012 C1013 1.349 . S
C1012 C1014 1.327 . S
C1012 H1037 0.950 . S
C1013 C1012 1.349 . S
C1013 C1029 1.349 . S
C1014 C1012 1.327 . S
C1014 C1033 1.429 . S
C1014 H1038 0.950 . S
C1015 C1032 1.574 . S
C1015 C1034 1.368 . S
C1015 H1039 0.949 . S
H1016 C1020 0.949 . S
C1017 C1018 1.349 . S
C1017 C1019 1.327 . S
C1017 H1040 0.950 . S
C1018 C1017 1.349 . S
C1018 C1030 1.349 . S
C1019 C1017 1.327 . S
C1019 C1035 1.429 . S
C1019 H1041 0.950 . S
C1020 H1016 0.949 . S
C1020 C1028 1.574 . S
C1020 C1036 1.368 . S
H1021 C1029 0.950 . S
H1022 C1027 0.950 . S
H1023 C1028 0.949 . S
H1024 C1030 0.950 . S
H1025 C1031 0.950 . S
H1026 C1032 0.949 . S
C1027 H1022 0.950 . S
C1027 C1029 1.327 . S
C1027 C1033 1.429 . S
C1028 C1020 1.574 . S
C1028 H1023 0.949 . S
C1028 C1034 1.368 . S
C1029 C1013 1.349 . S
C1029 H1021 0.950 . S
C1029 C1027 1.327 . S
C1030 C1018 1.349 . S
C1030 H1024 0.950 . S
C1030 C1031 1.327 . S
C1031 H1025 0.950 . S
C1031 C1030 1.327 . S
C1031 C1035 1.429 . S
C1032 C1015 1.574 . S
C1032 H1026 0.949 . S
C1032 C1036 1.368 . S
C1033 C1014 1.429 . S
C1033 C1027 1.429 . S
C1033 C1034 1.523 1_556 S
C1034 C1015 1.368 . S
C1034 C1028 1.368 . S
C1034 C1033 1.523 1_554 S
C1035 C1019 1.429 . S
C1035 C1031 1.429 . S
C1035 C1036 1.523 . S
C1036 C1020 1.368 . S
C1036 C1032 1.368 . S
C1036 C1035 1.523 . S
H1037 C1012 0.950 . S
H1038 C1014 0.950 . S
H1039 C1015 0.949 . S
H1040 C1017 0.950 . S
H1041 C1019 0.950 . S
C1042 C1043 1.349 . S
C1042 C1044 1.327 . S
C1042 H1067 0.950 . S
C1043 C1042 1.349 . S
C1043 C1059 1.349 . S
C1044 C1042 1.327 . S
C1044 C1063 1.429 . S
C1044 H1068 0.950 . S
C1045 C1062 1.574 . S
C1045 C1064 1.368 . S
C1045 H1069 0.949 . S
H1046 C1050 0.949 . S
C1047 C1048 1.349 . S
C1047 C1049 1.327 . S
C1047 H1070 0.950 . S
C1048 C1047 1.349 . S
C1048 C1060 1.349 . S
C1049 C1047 1.327 . S
C1049 C1065 1.429 . S
C1049 H1071 0.950 . S
C1050 H1046 0.949 . S
C1050 C1058 1.574 . S
C1050 C1066 1.368 . S
H1051 C1059 0.950 . S
H1052 C1057 0.950 . S
H1053 C1058 0.949 . S
H1054 C1060 0.950 . S
H1055 C1061 0.950 . S
H1056 C1062 0.949 . S
C1057 H1052 0.950 . S
C1057 C1059 1.327 . S
C1057 C1063 1.429 . S
C1058 C1050 1.574 . S
C1058 H1053 0.949 . S
C1058 C1064 1.368 . S
C1059 C1043 1.349 . S
C1059 H1051 0.950 . S
C1059 C1057 1.327 . S
C1060 C1048 1.349 . S
C1060 H1054 0.950 . S
C1060 C1061 1.327 . S
C1061 H1055 0.950 . S
C1061 C1060 1.327 . S
C1061 C1065 1.429 . S
C1062 C1045 1.574 . S
C1062 H1056 0.949 . S
C1062 C1066 1.368 . S
C1063 C1044 1.429 . S
C1063 C1057 1.429 . S
C1063 C1064 1.523 . S
C1064 C1045 1.368 . S
C1064 C1058 1.368 . S
C1064 C1063 1.523 . S
C1065 C1049 1.429 . S
C1065 C1061 1.429 . S
C1065 C1066 1.523 . S
C1066 C1050 1.368 . S
C1066 C1062 1.368 . S
C1066 C1065 1.523 . S
H1067 C1042 0.950 . S
H1068 C1044 0.950 . S
H1069 C1045 0.949 . S
H1070 C1047 0.950 . S
H1071 C1049 0.950 . S
C1072 C1073 1.349 . S
C1072 C1074 1.327 . S
C1072 H1097 0.950 . S
C1073 C1072 1.349 . S
C1073 C1089 1.349 . S
C1074 C1072 1.327 . S
C1074 C1093 1.429 . S
C1074 H1098 0.950 . S
C1075 C1092 1.574 . S
C1075 C1094 1.368 . S
C1075 H1099 0.949 1_554 S
H1076 C1080 0.949 . S
C1077 C1078 1.349 . S
C1077 C1079 1.327 . S
C1077 H1100 0.950 . S
C1078 C1077 1.349 . S
C1078 C1090 1.349 . S
C1079 C1077 1.327 . S
C1079 C1095 1.429 . S
C1079 H1101 0.950 . S
C1080 H1076 0.949 . S
C1080 C1088 1.574 . S
C1080 C1096 1.368 . S
H1081 C1089 0.950 . S
H1082 C1087 0.950 . S
H1083 C1088 0.949 . S
H1084 C1090 0.950 . S
H1085 C1091 0.950 . S
H1086 C1092 0.949 . S
C1087 H1082 0.950 . S
C1087 C1089 1.327 . S
C1087 C1093 1.429 . S
C1088 C1080 1.574 . S
C1088 H1083 0.949 . S
C1088 C1094 1.368 . S
C1089 C1073 1.349 . S
C1089 H1081 0.950 . S
C1089 C1087 1.327 . S
C1090 C1078 1.349 . S
C1090 H1084 0.950 . S
C1090 C1091 1.327 . S
C1091 H1085 0.950 . S
C1091 C1090 1.327 . S
C1091 C1095 1.429 . S
C1092 C1075 1.574 . S
C1092 H1086 0.949 . S
C1092 C1096 1.368 . S
C1093 C1074 1.429 . S
C1093 C1087 1.429 . S
C1093 C1094 1.523 1_556 S
C1094 C1075 1.368 . S
C1094 C1088 1.368 . S
C1094 C1093 1.523 1_554 S
C1095 C1079 1.429 . S
C1095 C1091 1.429 . S
C1095 C1096 1.523 . S
C1096 C1080 1.368 . S
C1096 C1092 1.368 . S
C1096 C1095 1.523 . S
H1097 C1072 0.950 . S
H1098 C1074 0.950 . S
H1099 C1075 0.949 1_556 S
H1100 C1077 0.950 . S
H1101 C1079 0.950 . S
C1102 C1103 1.349 . S
C1102 C1104 1.327 . S
C1102 H1127 0.950 . S
C1103 C1102 1.349 . S
C1103 C1119 1.349 . S
C1104 C1102 1.327 . S
C1104 C1123 1.429 . S
C1104 H1128 0.950 . S
C1105 C1122 1.574 . S
C1105 C1124 1.368 . S
C1105 H1129 0.949 . S
H1106 C1110 0.949 . S
C1107 C1108 1.349 . S
C1107 C1109 1.327 . S
C1107 H1130 0.950 . S
C1108 C1107 1.349 . S
C1108 C1120 1.349 . S
C1109 C1107 1.327 . S
C1109 C1125 1.429 . S
C1109 H1131 0.950 . S
C1110 H1106 0.949 . S
C1110 C1118 1.574 . S
C1110 C1126 1.368 . S
H1111 C1119 0.950 . S
H1112 C1117 0.950 . S
H1113 C1118 0.949 . S
H1114 C1120 0.950 . S
H1115 C1121 0.950 . S
H1116 C1122 0.949 . S
C1117 H1112 0.950 . S
C1117 C1119 1.327 . S
C1117 C1123 1.429 . S
C1118 C1110 1.574 . S
C1118 H1113 0.949 . S
C1118 C1124 1.368 . S
C1119 C1103 1.349 . S
C1119 H1111 0.950 . S
C1119 C1117 1.327 . S
C1120 C1108 1.349 . S
C1120 H1114 0.950 . S
C1120 C1121 1.327 . S
C1121 H1115 0.950 . S
C1121 C1120 1.327 . S
C1121 C1125 1.429 . S
C1122 C1105 1.574 . S
C1122 H1116 0.949 . S
C1122 C1126 1.368 . S
C1123 C1104 1.429 . S
C1123 C1117 1.429 . S
C1123 C1124 1.523 . S
C1124 C1105 1.368 . S
C1124 C1118 1.368 . S
C1124 C1123 1.523 . S
C1125 C1109 1.429 . S
C1125 C1121 1.429 . S
C1125 C1126 1.523 . S
C1126 C1110 1.368 . S
C1126 C1122 1.368 . S
C1126 C1125 1.523 . S
H1127 C1102 0.950 . S
H1128 C1104 0.950 . S
H1129 C1105 0.949 . S
H1130 C1107 0.950 . S
H1131 C1109 0.950 . S
C1132 C1133 1.349 . S
C1132 C1134 1.327 . S
C1132 H1157 0.950 . S
C1133 C1132 1.349 . S
C1133 C1149 1.349 . S
C1134 C1132 1.327 . S
C1134 C1153 1.429 . S
C1134 H1158 0.950 . S
C1135 C1152 1.574 . S
C1135 C1154 1.368 . S
C1135 H1159 0.949 . S
H1136 C1140 0.949 . S
C1137 C1138 1.349 . S
C1137 C1139 1.327 . S
C1137 H1160 0.950 . S
C1138 C1137 1.349 . S
C1138 C1150 1.349 . S
C1139 C1137 1.327 . S
C1139 C1155 1.429 . S
C1139 H1161 0.950 . S
C1140 H1136 0.949 . S
C1140 C1148 1.574 . S
C1140 C1156 1.368 . S
H1141 C1149 0.950 . S
H1142 C1147 0.950 . S
H1143 C1148 0.949 1_556 S
H1144 C1150 0.950 . S
H1145 C1151 0.950 . S
H1146 C1152 0.949 . S
C1147 H1142 0.950 . S
C1147 C1149 1.327 . S
C1147 C1153 1.429 . S
C1148 C1140 1.574 . S
C1148 H1143 0.949 1_554 S
C1148 C1154 1.368 . S
C1149 C1133 1.349 . S
C1149 H1141 0.950 . S
C1149 C1147 1.327 . S
C1150 C1138 1.349 . S
C1150 H1144 0.950 . S
C1150 C1151 1.327 . S
C1151 H1145 0.950 . S
C1151 C1150 1.327 . S
C1151 C1155 1.429 . S
C1152 C1135 1.574 . S
C1152 H1146 0.949 . S
C1152 C1156 1.368 . S
C1153 C1134 1.429 . S
C1153 C1147 1.429 . S
C1153 C1154 1.523 1_556 S
C1154 C1135 1.368 . S
C1154 C1148 1.368 . S
C1154 C1153 1.523 1_554 S
C1155 C1139 1.429 . S
C1155 C1151 1.429 . S
C1155 C1156 1.523 . S
C1156 C1140 1.368 . S
C1156 C1152 1.368 . S
C1156 C1155 1.523 . S
H1157 C1132 0.950 . S
H1158 C1134 0.950 . S
H1159 C1135 0.949 . S
H1160 C1137 0.950 . S
H1161 C1139 0.950 . S
C1162 C1163 1.349 . S
C1162 C1164 1.327 . S
C1162 H1187 0.950 . S
C1163 C1162 1.349 . S
C1163 C1179 1.349 . S
C1164 C1162 1.327 . S
C1164 C1183 1.429 . S
C1164 H1188 0.950 . S
C1165 C1182 1.574 . S
C1165 C1184 1.368 . S
C1165 H1189 0.949 . S
H1166 C1170 0.949 . S
C1167 C1168 1.349 . S
C1167 C1169 1.327 . S
C1167 H1190 0.950 . S
C1168 C1167 1.349 . S
C1168 C1180 1.349 . S
C1169 C1167 1.327 . S
C1169 C1185 1.429 . S
C1169 H1191 0.950 . S
C1170 H1166 0.949 . S
C1170 C1178 1.574 . S
C1170 C1186 1.368 . S
H1171 C1179 0.950 . S
H1172 C1177 0.950 . S
H1173 C1178 0.949 . S
H1174 C1180 0.950 . S
H1175 C1181 0.950 . S
H1176 C1182 0.949 . S
C1177 H1172 0.950 . S
C1177 C1179 1.327 . S
C1177 C1183 1.429 . S
C1178 C1170 1.574 . S
C1178 H1173 0.949 . S
C1178 C1184 1.368 . S
C1179 C1163 1.349 . S
C1179 H1171 0.950 . S
C1179 C1177 1.327 . S
C1180 C1168 1.349 . S
C1180 H1174 0.950 . S
C1180 C1181 1.327 . S
C1181 H1175 0.950 . S
C1181 C1180 1.327 . S
C1181 C1185 1.429 . S
C1182 C1165 1.574 . S
C1182 H1176 0.949 . S
C1182 C1186 1.368 . S
C1183 C1164 1.429 . S
C1183 C1177 1.429 . S
C1183 C1184 1.523 . S
C1184 C1165 1.368 . S
C1184 C1178 1.368 . S
C1184 C1183 1.523 . S
C1185 C1169 1.429 . S
C1185 C1181 1.429 . S
C1185 C1186 1.523 . S
C1186 C1170 1.368 . S
C1186 C1182 1.368 . S
C1186 C1185 1.523 . S
H1187 C1162 0.950 . S
H1188 C1164 0.950 . S
H1189 C1165 0.949 . S
H1190 C1167 0.950 . S
H1191 C1169 0.950 . S
C1192 C1193 1.349 . S
C1192 C1194 1.327 . S
C1192 H1217 0.950 . S
C1193 C1192 1.349 . S
C1193 C1209 1.349 . S
C1194 C1192 1.327 . S
C1194 C1213 1.429 . S
C1194 H1218 0.950 . S
C1195 C1212 1.574 . S
C1195 C1214 1.368 . S
C1195 H1219 0.949 . S
H1196 C1200 0.949 . S
C1197 C1198 1.349 . S
C1197 C1199 1.327 . S
C1197 H1220 0.950 . S
C1198 C1197 1.349 . S
C1198 C1210 1.349 . S
C1199 C1197 1.327 . S
C1199 C1215 1.429 . S
C1199 H1221 0.950 . S
C1200 H1196 0.949 . S
C1200 C1208 1.574 . S
C1200 C1216 1.368 . S
H1201 C1209 0.950 . S
H1202 C1207 0.950 . S
H1203 C1208 0.949 . S
H1204 C1210 0.950 . S
H1205 C1211 0.950 . S
H1206 C1212 0.949 1_554 S
C1207 H1202 0.950 . S
C1207 C1209 1.327 . S
C1207 C1213 1.429 . S
C1208 C1200 1.574 . S
C1208 H1203 0.949 . S
C1208 C1214 1.368 . S
C1209 C1193 1.349 . S
C1209 H1201 0.950 . S
C1209 C1207 1.327 . S
C1210 C1198 1.349 . S
C1210 H1204 0.950 . S
C1210 C1211 1.327 . S
C1211 H1205 0.950 . S
C1211 C1210 1.327 . S
C1211 C1215 1.429 . S
C1212 C1195 1.574 . S
C1212 H1206 0.949 1_556 S
C1212 C1216 1.368 . S
C1213 C1194 1.429 . S
C1213 C1207 1.429 . S
C1213 C1214 1.523 . S
C1214 C1195 1.368 . S
C1214 C1208 1.368 . S
C1214 C1213 1.523 . S
C1215 C1199 1.429 . S
C1215 C1211 1.429 . S
C1215 C1216 1.523 1_554 S
C1216 C1200 1.368 . S
C1216 C1212 1.368 . S
C1216 C1215 1.523 1_556 S
H1217 C1192 0.950 . S
H1218 C1194 0.950 . S
H1219 C1195 0.949 . S
H1220 C1197 0.950 . S
H1221 C1199 0.950 . S
C1222 C1223 1.349 . S
C1222 C1224 1.327 . S
C1222 H1247 0.950 . S
C1223 C1222 1.349 . S
C1223 C1239 1.349 . S
C1224 C1222 1.327 . S
C1224 C1243 1.429 . S
C1224 H1248 0.950 . S
C1225 C1242 1.574 . S
C1225 C1244 1.368 . S
C1225 H1249 0.949 . S
H1226 C1230 0.949 . S
C1227 C1228 1.349 . S
C1227 C1229 1.327 . S
C1227 H1250 0.950 . S
C1228 C1227 1.349 . S
C1228 C1240 1.349 . S
C1229 C1227 1.327 . S
C1229 C1245 1.429 . S
C1229 H1251 0.950 . S
C1230 H1226 0.949 . S
C1230 C1238 1.574 . S
C1230 C1246 1.368 . S
H1231 C1239 0.950 . S
H1232 C1237 0.950 . S
H1233 C1238 0.949 . S
H1234 C1240 0.950 . S
H1235 C1241 0.950 . S
H1236 C1242 0.949 . S
C1237 H1232 0.950 . S
C1237 C1239 1.327 . S
C1237 C1243 1.429 . S
C1238 C1230 1.574 . S
C1238 H1233 0.949 . S
C1238 C1244 1.368 . S
C1239 C1223 1.349 . S
C1239 H1231 0.950 . S
C1239 C1237 1.327 . S
C1240 C1228 1.349 . S
C1240 H1234 0.950 . S
C1240 C1241 1.327 . S
C1241 H1235 0.950 . S
C1241 C1240 1.327 . S
C1241 C1245 1.429 . S
C1242 C1225 1.574 . S
C1242 H1236 0.949 . S
C1242 C1246 1.368 . S
C1243 C1224 1.429 . S
C1243 C1237 1.429 . S
C1243 C1244 1.523 . S
C1244 C1225 1.368 . S
C1244 C1238 1.368 . S
C1244 C1243 1.523 . S
C1245 C1229 1.429 . S
C1245 C1241 1.429 . S
C1245 C1246 1.523 . S
C1246 C1230 1.368 . S
C1246 C1242 1.368 . S
C1246 C1245 1.523 . S
H1247 C1222 0.950 . S
H1248 C1224 0.950 . S
H1249 C1225 0.949 . S
H1250 C1227 0.950 . S
H1251 C1229 0.950 . S
C1252 C1253 1.349 . S
C1252 C1254 1.327 . S
C1252 H1277 0.950 . S
C1253 C1252 1.349 . S
C1253 C1269 1.349 . S
C1254 C1252 1.327 . S
C1254 C1273 1.429 . S
C1254 H1278 0.950 . S
C1255 C1272 1.574 . S
C1255 C1274 1.368 . S
C1255 H1279 0.949 . S
H1256 C1260 0.949 . S
C1257 C1258 1.349 . S
C1257 C1259 1.327 . S
C1257 H1280 0.950 . S
C1258 C1257 1.349 . S
C1258 C1270 1.349 . S
C1259 C1257 1.327 . S
C1259 C1275 1.429 . S
C1259 H1281 0.950 . S
C1260 H1256 0.949 . S
C1260 C1268 1.574 . S
C1260 C1276 1.368 . S
H1261 C1269 0.950 . S
H1262 C1267 0.950 . S
H1263 C1268 0.949 . S
H1264 C1270 0.950 . S
H1265 C1271 0.950 . S
H1266 C1272 0.949 . S
C1267 H1262 0.950 . S
C1267 C1269 1.327 . S
C1267 C1273 1.429 . S
C1268 C1260 1.574 . S
C1268 H1263 0.949 . S
C1268 C1274 1.368 . S
C1269 C1253 1.349 . S
C1269 H1261 0.950 . S
C1269 C1267 1.327 . S
C1270 C1258 1.349 . S
C1270 H1264 0.950 . S
C1270 C1271 1.327 . S
C1271 H1265 0.950 . S
C1271 C1270 1.327 . S
C1271 C1275 1.429 . S
C1272 C1255 1.574 . S
C1272 H1266 0.949 . S
C1272 C1276 1.368 . S
C1273 C1254 1.429 . S
C1273 C1267 1.429 . S
C1273 C1274 1.523 . S
C1274 C1255 1.368 . S
C1274 C1268 1.368 . S
C1274 C1273 1.523 . S
C1275 C1259 1.429 . S
C1275 C1271 1.429 . S
C1275 C1276 1.523 1_554 S
C1276 C1260 1.368 . S
C1276 C1272 1.368 . S
C1276 C1275 1.523 1_556 S
H1277 C1252 0.950 . S
H1278 C1254 0.950 . S
H1279 C1255 0.949 . S
H1280 C1257 0.950 . S
H1281 C1259 0.950 . S
C1282 C1283 1.349 . S
C1282 C1284 1.327 . S
C1282 H1307 0.950 . S
C1283 C1282 1.349 . S
C1283 C1299 1.349 . S
C1284 C1282 1.327 . S
C1284 C1303 1.429 . S
C1284 H1308 0.950 . S
C1285 C1302 1.574 . S
C1285 C1304 1.368 . S
C1285 H1309 0.949 . S
H1286 C1290 0.949 . S
C1287 C1288 1.349 . S
C1287 C1289 1.327 . S
C1287 H1310 0.950 . S
C1288 C1287 1.349 . S
C1288 C1300 1.349 . S
C1289 C1287 1.327 . S
C1289 C1305 1.429 . S
C1289 H1311 0.950 . S
C1290 H1286 0.949 . S
C1290 C1298 1.574 . S
C1290 C1306 1.368 . S
H1291 C1299 0.950 . S
H1292 C1297 0.950 . S
H1293 C1298 0.949 . S
H1294 C1300 0.950 . S
H1295 C1301 0.950 . S
H1296 C1302 0.949 . S
C1297 H1292 0.950 . S
C1297 C1299 1.327 . S
C1297 C1303 1.429 . S
C1298 C1290 1.574 . S
C1298 H1293 0.949 . S
C1298 C1304 1.368 . S
C1299 C1283 1.349 . S
C1299 H1291 0.950 . S
C1299 C1297 1.327 . S
C1300 C1288 1.349 . S
C1300 H1294 0.950 . S
C1300 C1301 1.327 . S
C1301 H1295 0.950 . S
C1301 C1300 1.327 . S
C1301 C1305 1.429 . S
C1302 C1285 1.574 . S
C1302 H1296 0.949 . S
C1302 C1306 1.368 . S
C1303 C1284 1.429 . S
C1303 C1297 1.429 . S
C1303 C1304 1.523 . S
C1304 C1285 1.368 . S
C1304 C1298 1.368 . S
C1304 C1303 1.523 . S
C1305 C1289 1.429 . S
C1305 C1301 1.429 . S
C1305 C1306 1.523 . S
C1306 C1290 1.368 . S
C1306 C1302 1.368 . S
C1306 C1305 1.523 . S
H1307 C1282 0.950 . S
H1308 C1284 0.950 . S
H1309 C1285 0.949 . S
H1310 C1287 0.950 . S
H1311 C1289 0.950 . S
C1312 C1313 1.349 . S
C1312 C1314 1.329 1_565 S
C1312 H1337 0.948 . S
C1313 C1312 1.349 . S
C1313 C1329 1.349 1_565 S
C1314 C1312 1.329 1_545 S
C1314 C1333 1.429 . S
C1314 H1338 0.950 . S
C1315 C1332 1.574 . S
C1315 C1334 1.368 . S
C1315 H1339 0.949 . S
H1316 C1320 0.949 . S
C1317 C1318 1.349 . S
C1317 C1319 1.327 . S
C1317 H1340 0.950 . S
C1318 C1317 1.349 . S
C1318 C1330 1.349 . S
C1319 C1317 1.327 . S
C1319 C1335 1.429 . S
C1319 H1341 0.950 . S
C1320 H1316 0.949 . S
C1320 C1328 1.574 . S
C1320 C1336 1.368 . S
H1321 C1329 0.950 . S
H1322 C1327 0.950 . S
H1323 C1328 0.949 . S
H1324 C1330 0.950 . S
H1325 C1331 0.950 . S
H1326 C1332 0.949 . S
C1327 H1322 0.950 . S
C1327 C1329 1.327 . S
C1327 C1333 1.429 . S
C1328 C1320 1.574 . S
C1328 H1323 0.949 . S
C1328 C1334 1.368 . S
C1329 C1313 1.349 1_545 S
C1329 H1321 0.950 . S
C1329 C1327 1.327 . S
C1330 C1318 1.349 . S
C1330 H1324 0.950 . S
C1330 C1331 1.327 . S
C1331 H1325 0.950 . S
C1331 C1330 1.327 . S
C1331 C1335 1.429 . S
C1332 C1315 1.574 . S
C1332 H1326 0.949 . S
C1332 C1336 1.368 . S
C1333 C1314 1.429 . S
C1333 C1327 1.429 . S
C1333 C1334 1.523 . S
C1334 C1315 1.368 . S
C1334 C1328 1.368 . S
C1334 C1333 1.523 . S
C1335 C1319 1.429 . S
C1335 C1331 1.429 . S
C1335 C1336 1.523 . S
C1336 C1320 1.368 . S
C1336 C1332 1.368 . S
C1336 C1335 1.523 . S
H1337 C1312 0.948 . S
H1338 C1314 0.950 . S
H1339 C1315 0.949 . S
H1340 C1317 0.950 . S
H1341 C1319 0.950 . S
C1342 C1343 1.349 . S
C1342 C1344 1.327 . S
C1342 H1367 0.950 . S
C1343 C1342 1.349 . S
C1343 C1359 1.349 . S
C1344 C1342 1.327 . S
C1344 C1363 1.429 . S
C1344 H1368 0.950 . S
C1345 C1362 1.574 . S
C1345 C1364 1.368 . S
C1345 H1369 0.949 . S
H1346 C1350 0.949 . S
C1347 C1348 1.349 . S
C1347 C1349 1.327 . S
C1347 H1370 0.950 . S
C1348 C1347 1.349 . S
C1348 C1360 1.349 . S
C1349 C1347 1.327 . S
C1349 C1365 1.429 . S
C1349 H1371 0.950 . S
C1350 H1346 0.949 . S
C1350 C1358 1.574 . S
C1350 C1366 1.368 . S
H1351 C1359 0.950 . S
H1352 C1357 0.950 . S
H1353 C1358 0.949 . S
H1354 C1360 0.950 . S
H1355 C1361 0.950 . S
H1356 C1362 0.949 . S
C1357 H1352 0.950 . S
C1357 C1359 1.327 . S
C1357 C1363 1.429 . S
C1358 C1350 1.574 . S
C1358 H1353 0.949 . S
C1358 C1364 1.368 . S
C1359 C1343 1.349 . S
C1359 H1351 0.950 . S
C1359 C1357 1.327 . S
C1360 C1348 1.349 . S
C1360 H1354 0.950 . S
C1360 C1361 1.327 . S
C1361 H1355 0.950 . S
C1361 C1360 1.327 . S
C1361 C1365 1.429 . S
C1362 C1345 1.574 . S
C1362 H1356 0.949 . S
C1362 C1366 1.368 . S
C1363 C1344 1.429 . S
C1363 C1357 1.429 . S
C1363 C1364 1.523 . S
C1364 C1345 1.368 . S
C1364 C1358 1.368 . S
C1364 C1363 1.523 . S
C1365 C1349 1.429 . S
C1365 C1361 1.429 . S
C1365 C1366 1.523 . S
C1366 C1350 1.368 . S
C1366 C1362 1.368 . S
C1366 C1365 1.523 . S
H1367 C1342 0.950 . S
H1368 C1344 0.950 . S
H1369 C1345 0.949 . S
H1370 C1347 0.950 . S
H1371 C1349 0.950 . S
C1372 C1373 1.349 1_455 S
C1372 C1374 1.327 . S
C1372 H1397 0.950 . S
C1373 C1372 1.349 1_655 S
C1373 C1389 1.349 . S
C1374 C1372 1.327 . S
C1374 C1393 1.429 . S
C1374 H1398 0.950 . S
C1375 C1392 1.574 . S
C1375 C1394 1.368 . S
C1375 H1399 0.949 . S
H1376 C1380 0.949 . S
C1377 C1378 1.349 . S
C1377 C1379 1.327 . S
C1377 H1400 0.950 . S
C1378 C1377 1.349 . S
C1378 C1390 1.349 . S
C1379 C1377 1.327 . S
C1379 C1395 1.429 . S
C1379 H1401 0.950 . S
C1380 H1376 0.949 . S
C1380 C1388 1.574 . S
C1380 C1396 1.368 . S
H1381 C1389 0.950 . S
H1382 C1387 0.950 . S
H1383 C1388 0.949 . S
H1384 C1390 0.950 . S
H1385 C1391 0.950 . S
H1386 C1392 0.949 . S
C1387 H1382 0.950 . S
C1387 C1389 1.327 1_455 S
C1387 C1393 1.429 . S
C1388 C1380 1.574 . S
C1388 H1383 0.949 . S
C1388 C1394 1.368 . S
C1389 C1373 1.349 . S
C1389 H1381 0.950 . S
C1389 C1387 1.327 1_655 S
C1390 C1378 1.349 . S
C1390 H1384 0.950 . S
C1390 C1391 1.327 . S
C1391 H1385 0.950 . S
C1391 C1390 1.327 . S
C1391 C1395 1.429 . S
C1392 C1375 1.574 . S
C1392 H1386 0.949 . S
C1392 C1396 1.368 . S
C1393 C1374 1.429 . S
C1393 C1387 1.429 . S
C1393 C1394 1.523 . S
C1394 C1375 1.368 . S
C1394 C1388 1.368 . S
C1394 C1393 1.523 . S
C1395 C1379 1.429 . S
C1395 C1391 1.429 . S
C1395 C1396 1.523 . S
C1396 C1380 1.368 . S
C1396 C1392 1.368 . S
C1396 C1395 1.523 . S
H1397 C1372 0.950 . S
H1398 C1374 0.950 . S
H1399 C1375 0.949 . S
H1400 C1377 0.950 . S
H1401 C1379 0.950 . S
C1402 C1403 1.349 1_545 S
C1402 C1404 1.327 . S
C1402 H1427 0.950 . S
C1403 C1402 1.349 1_565 S
C1403 C1419 1.349 1_565 S
C1404 C1402 1.327 . S
C1404 C1423 1.429 . S
C1404 H1428 0.950 . S
C1405 C1422 1.574 . S
C1405 C1424 1.368 . S
C1405 H1429 0.949 . S
H1406 C1410 0.949 . S
C1407 C1408 1.349 . S
C1407 C1409 1.327 1_655 S
C1407 H1430 0.950 . S
C1408 C1407 1.349 . S
C1408 C1420 1.349 1_655 S
C1409 C1407 1.327 1_455 S
C1409 C1425 1.429 . S
C1409 H1431 0.950 . S
C1410 H1406 0.949 . S
C1410 C1418 1.574 . S
C1410 C1426 1.368 . S
H1411 C1419 0.950 1_565 S
H1412 C1417 0.950 . S
H1413 C1418 0.949 . S
H1414 C1420 0.950 . S
H1415 C1421 0.950 . S
H1416 C1422 0.949 . S
C1417 H1412 0.950 . S
C1417 C1419 1.327 . S
C1417 C1423 1.429 . S
C1418 C1410 1.574 . S
C1418 H1413 0.949 . S
C1418 C1424 1.368 . S
C1419 C1403 1.349 1_545 S
C1419 H1411 0.950 1_545 S
C1419 C1417 1.327 . S
C1420 C1408 1.349 1_455 S
C1420 H1414 0.950 . S
C1420 C1421 1.327 . S
C1421 H1415 0.950 . S
C1421 C1420 1.327 . S
C1421 C1425 1.429 . S
C1422 C1405 1.574 . S
C1422 H1416 0.949 . S
C1422 C1426 1.368 . S
C1423 C1404 1.429 . S
C1423 C1417 1.429 . S
C1423 C1424 1.523 . S
C1424 C1405 1.368 . S
C1424 C1418 1.368 . S
C1424 C1423 1.523 . S
C1425 C1409 1.429 . S
C1425 C1421 1.429 . S
C1425 C1426 1.523 . S
C1426 C1410 1.368 . S
C1426 C1422 1.368 . S
C1426 C1425 1.523 . S
H1427 C1402 0.950 . S
H1428 C1404 0.950 . S
H1429 C1405 0.949 . S
H1430 C1407 0.950 . S
H1431 C1409 0.950 . S
C1432 C1433 1.350 1_565 S
C1432 C1434 1.327 . S
C1432 H1457 0.950 . S
C1433 C1432 1.350 1_545 S
C1433 C1449 1.349 . S
C1434 C1432 1.327 . S
C1434 C1453 1.429 . S
C1434 H1458 0.950 . S
C1435 C1452 1.574 . S
C1435 C1454 1.368 . S
C1435 H1459 0.949 . S
H1436 C1440 0.949 . S
C1437 C1438 1.349 . S
C1437 C1439 1.327 . S
C1437 H1460 0.950 . S
C1438 C1437 1.349 . S
C1438 C1450 1.349 . S
C1439 C1437 1.327 . S
C1439 C1455 1.429 . S
C1439 H1461 0.950 . S
C1440 H1436 0.949 . S
C1440 C1448 1.574 . S
C1440 C1456 1.368 . S
H1441 C1449 0.950 . S
H1442 C1447 0.950 . S
H1443 C1448 0.949 . S
H1444 C1450 0.950 . S
H1445 C1451 0.950 . S
H1446 C1452 0.949 . S
C1447 H1442 0.950 . S
C1447 C1449 1.327 1_565 S
C1447 C1453 1.429 . S
C1448 C1440 1.574 . S
C1448 H1443 0.949 . S
C1448 C1454 1.368 . S
C1449 C1433 1.349 . S
C1449 H1441 0.950 . S
C1449 C1447 1.327 1_545 S
C1450 C1438 1.349 . S
C1450 H1444 0.950 . S
C1450 C1451 1.327 . S
C1451 H1445 0.950 . S
C1451 C1450 1.327 . S
C1451 C1455 1.429 . S
C1452 C1435 1.574 . S
C1452 H1446 0.949 . S
C1452 C1456 1.368 . S
C1453 C1434 1.429 . S
C1453 C1447 1.429 . S
C1453 C1454 1.523 . S
C1454 C1435 1.368 . S
C1454 C1448 1.368 . S
C1454 C1453 1.523 . S
C1455 C1439 1.429 . S
C1455 C1451 1.429 . S
C1455 C1456 1.523 . S
C1456 C1440 1.368 . S
C1456 C1452 1.368 . S
C1456 C1455 1.523 . S
H1457 C1432 0.950 . S
H1458 C1434 0.950 . S
H1459 C1435 0.949 . S
H1460 C1437 0.950 . S
H1461 C1439 0.950 . S
C1462 C1463 1.349 . S
C1462 C1464 1.327 . S
C1462 H1487 0.950 . S
C1463 C1462 1.349 . S
C1463 C1479 1.349 . S
C1464 C1462 1.327 . S
C1464 C1483 1.429 . S
C1464 H1488 0.950 . S
C1465 C1482 1.574 . S
C1465 C1484 1.368 . S
C1465 H1489 0.949 . S
H1466 C1470 0.949 . S
C1467 C1468 1.349 . S
C1467 C1469 1.327 . S
C1467 H1490 0.950 . S
C1468 C1467 1.349 . S
C1468 C1480 1.349 . S
C1469 C1467 1.327 . S
C1469 C1485 1.429 . S
C1469 H1491 0.950 . S
C1470 H1466 0.949 . S
C1470 C1478 1.574 . S
C1470 C1486 1.368 . S
H1471 C1479 0.950 . S
H1472 C1477 0.950 . S
H1473 C1478 0.949 . S
H1474 C1480 0.950 . S
H1475 C1481 0.950 . S
H1476 C1482 0.949 . S
C1477 H1472 0.950 . S
C1477 C1479 1.327 . S
C1477 C1483 1.429 . S
C1478 C1470 1.574 . S
C1478 H1473 0.949 . S
C1478 C1484 1.368 . S
C1479 C1463 1.349 . S
C1479 H1471 0.950 . S
C1479 C1477 1.327 . S
C1480 C1468 1.349 . S
C1480 H1474 0.950 . S
C1480 C1481 1.327 . S
C1481 H1475 0.950 . S
C1481 C1480 1.327 . S
C1481 C1485 1.429 . S
C1482 C1465 1.574 . S
C1482 H1476 0.949 . S
C1482 C1486 1.368 . S
C1483 C1464 1.429 . S
C1483 C1477 1.429 . S
C1483 C1484 1.523 . S
C1484 C1465 1.368 . S
C1484 C1478 1.368 . S
C1484 C1483 1.523 . S
C1485 C1469 1.429 . S
C1485 C1481 1.429 . S
C1485 C1486 1.523 . S
C1486 C1470 1.368 . S
C1486 C1482 1.368 . S
C1486 C1485 1.523 . S
H1487 C1462 0.950 . S
H1488 C1464 0.950 . S
H1489 C1465 0.949 . S
H1490 C1467 0.950 . S
H1491 C1469 0.950 . S
C1492 C1493 1.349 . S
C1492 C1494 1.327 . S
C1492 H1517 0.950 . S
C1493 C1492 1.349 . S
C1493 C1509 1.349 . S
C1494 C1492 1.327 . S
C1494 C1513 1.429 . S
C1494 H1518 0.950 . S
C1495 C1512 1.574 . S
C1495 C1514 1.368 . S
C1495 H1519 0.949 . S
H1496 C1500 0.949 . S
C1497 C1498 1.349 . S
C1497 C1499 1.314 1_455 S
C1497 H1520 0.963 . S
C1498 C1497 1.349 . S
C1498 C1510 1.349 1_455 S
C1499 C1497 1.314 1_655 S
C1499 C1515 1.429 . S
C1499 H1521 0.950 . S
C1500 H1496 0.949 . S
C1500 C1508 1.574 . S
C1500 C1516 1.368 . S
H1501 C1509 0.950 . S
H1502 C1507 0.950 . S
H1503 C1508 0.949 . S
H1504 C1510 0.950 . S
H1505 C1511 0.950 . S
H1506 C1512 0.949 . S
C1507 H1502 0.950 . S
C1507 C1509 1.327 . S
C1507 C1513 1.429 . S
C1508 C1500 1.574 . S
C1508 H1503 0.949 . S
C1508 C1514 1.368 . S
C1509 C1493 1.349 . S
C1509 H1501 0.950 . S
C1509 C1507 1.327 . S
C1510 C1498 1.349 1_655 S
C1510 H1504 0.950 . S
C1510 C1511 1.327 . S
C1511 H1505 0.950 . S
C1511 C1510 1.327 . S
C1511 C1515 1.429 . S
C1512 C1495 1.574 . S
C1512 H1506 0.949 . S
C1512 C1516 1.368 . S
C1513 C1494 1.429 . S
C1513 C1507 1.429 . S
C1513 C1514 1.523 . S
C1514 C1495 1.368 . S
C1514 C1508 1.368 . S
C1514 C1513 1.523 . S
C1515 C1499 1.429 . S
C1515 C1511 1.429 . S
C1515 C1516 1.523 . S
C1516 C1500 1.368 . S
C1516 C1512 1.368 . S
C1516 C1515 1.523 . S
H1517 C1492 0.950 . S
H1518 C1494 0.950 . S
H1519 C1495 0.949 . S
H1520 C1497 0.963 . S
H1521 C1499 0.950 . S
C1522 C1523 1.349 1_565 S
C1522 C1524 1.327 . S
C1522 H1547 0.950 . S
C1523 C1522 1.349 1_545 S
C1523 C1539 1.349 1_545 S
C1524 C1522 1.327 . S
C1524 C1543 1.429 . S
C1524 H1548 0.950 . S
C1525 C1542 1.574 . S
C1525 C1544 1.368 . S
C1525 H1549 0.949 . S
H1526 C1530 0.949 . S
C1527 C1528 1.349 . S
C1527 C1529 1.327 1_455 S
C1527 H1550 0.950 . S
C1528 C1527 1.349 . S
C1528 C1540 1.349 1_455 S
C1529 C1527 1.327 1_655 S
C1529 C1545 1.429 . S
C1529 H1551 0.950 . S
C1530 H1526 0.949 . S
C1530 C1538 1.574 . S
C1530 C1546 1.368 . S
H1531 C1539 0.951 1_545 S
H1532 C1537 0.950 . S
H1533 C1538 0.949 . S
H1534 C1540 0.950 . S
H1535 C1541 0.950 . S
H1536 C1542 0.949 . S
C1537 H1532 0.950 . S
C1537 C1539 1.326 . S
C1537 C1543 1.429 . S
C1538 C1530 1.574 . S
C1538 H1533 0.949 . S
C1538 C1544 1.368 . S
C1539 C1523 1.349 1_565 S
C1539 H1531 0.951 1_565 S
C1539 C1537 1.326 . S
C1540 C1528 1.349 1_655 S
C1540 H1534 0.950 . S
C1540 C1541 1.327 . S
C1541 H1535 0.950 . S
C1541 C1540 1.327 . S
C1541 C1545 1.429 . S
C1542 C1525 1.574 . S
C1542 H1536 0.949 . S
C1542 C1546 1.368 . S
C1543 C1524 1.429 . S
C1543 C1537 1.429 . S
C1543 C1544 1.523 . S
C1544 C1525 1.368 . S
C1544 C1538 1.368 . S
C1544 C1543 1.523 . S
C1545 C1529 1.429 . S
C1545 C1541 1.429 . S
C1545 C1546 1.523 . S
C1546 C1530 1.368 . S
C1546 C1542 1.368 . S
C1546 C1545 1.523 . S
H1547 C1522 0.950 . S
H1548 C1524 0.950 . S
H1549 C1525 0.949 . S
H1550 C1527 0.950 . S
H1551 C1529 0.950 . S
C1552 C1553 1.349 . S
C1552 C1554 1.327 . S
C1552 H1577 0.950 . S
C1553 C1552 1.349 . S
C1553 C1569 1.349 . S
C1554 C1552 1.327 . S
C1554 C1573 1.429 . S
C1554 H1578 0.950 . S
C1555 C1572 1.574 . S
C1555 C1574 1.368 1_556 S
C1555 H1579 0.949 . S
H1556 C1560 0.949 . S
C1557 C1558 1.349 . S
C1557 C1559 1.327 . S
C1557 H1580 0.950 . S
C1558 C1557 1.349 . S
C1558 C1570 1.349 . S
C1559 C1557 1.327 . S
C1559 C1575 1.429 . S
C1559 H1581 0.950 . S
C1560 H1556 0.949 . S
C1560 C1568 1.574 . S
C1560 C1576 1.368 1_554 S
H1561 C1569 0.950 . S
H1562 C1567 0.950 . S
H1563 C1568 0.949 . S
H1564 C1570 0.950 . S
H1565 C1571 0.950 . S
H1566 C1572 0.949 . S
C1567 H1562 0.950 . S
C1567 C1569 1.327 . S
C1567 C1573 1.429 . S
C1568 C1560 1.574 . S
C1568 H1563 0.949 . S
C1568 C1574 1.368 . S
C1569 C1553 1.349 . S
C1569 H1561 0.950 . S
C1569 C1567 1.327 . S
C1570 C1558 1.349 . S
C1570 H1564 0.950 . S
C1570 C1571 1.327 . S
C1571 H1565 0.950 . S
C1571 C1570 1.327 . S
C1571 C1575 1.429 . S
C1572 C1555 1.574 . S
C1572 H1566 0.949 . S
C1572 C1576 1.368 . S
C1573 C1554 1.429 . S
C1573 C1567 1.429 . S
C1573 C1574 1.523 . S
C1574 C1555 1.368 1_554 S
C1574 C1568 1.368 . S
C1574 C1573 1.523 . S
C1575 C1559 1.429 . S
C1575 C1571 1.429 . S
C1575 C1576 1.523 . S
C1576 C1560 1.368 1_556 S
C1576 C1572 1.368 . S
C1576 C1575 1.523 . S
H1577 C1552 0.950 . S
H1578 C1554 0.950 . S
H1579 C1555 0.949 . S
H1580 C1557 0.950 . S
H1581 C1559 0.950 . S
C1582 C1583 1.349 . S
C1582 C1584 1.327 . S
C1582 H1607 0.950 . S
C1583 C1582 1.349 . S
C1583 C1599 1.349 . S
C1584 C1582 1.327 . S
C1584 C1603 1.429 . S
C1584 H1608 0.950 . S
C1585 C1602 1.574 . S
C1585 C1604 1.368 . S
C1585 H1609 0.949 . S
H1586 C1590 0.949 . S
C1587 C1588 1.349 . S
C1587 C1589 1.327 . S
C1587 H1610 0.950 . S
C1588 C1587 1.349 . S
C1588 C1600 1.349 . S
C1589 C1587 1.327 . S
C1589 C1605 1.429 . S
C1589 H1611 0.950 . S
C1590 H1586 0.949 . S
C1590 C1598 1.574 . S
C1590 C1606 1.368 . S
H1591 C1599 0.950 . S
H1592 C1597 0.950 . S
H1593 C1598 0.949 . S
H1594 C1600 0.950 . S
H1595 C1601 0.950 . S
H1596 C1602 0.949 . S
C1597 H1592 0.950 . S
C1597 C1599 1.327 . S
C1597 C1603 1.429 . S
C1598 C1590 1.574 . S
C1598 H1593 0.949 . S
C1598 C1604 1.368 . S
C1599 C1583 1.349 . S
C1599 H1591 0.950 . S
C1599 C1597 1.327 . S
C1600 C1588 1.349 . S
C1600 H1594 0.950 . S
C1600 C1601 1.327 . S
C1601 H1595 0.950 . S
C1601 C1600 1.327 . S
C1601 C1605 1.429 . S
C1602 C1585 1.574 . S
C1602 H1596 0.949 . S
C1602 C1606 1.368 . S
C1603 C1584 1.429 . S
C1603 C1597 1.429 . S
C1603 C1604 1.523 . S
C1604 C1585 1.368 . S
C1604 C1598 1.368 . S
C1604 C1603 1.523 . S
C1605 C1589 1.429 . S
C1605 C1601 1.429 . S
C1605 C1606 1.523 . S
C1606 C1590 1.368 . S
C1606 C1602 1.368 . S
C1606 C1605 1.523 . S
H1607 C1582 0.950 . S
H1608 C1584 0.950 . S
H1609 C1585 0.949 . S
H1610 C1587 0.950 . S
H1611 C1589 0.950 . S
C1612 C1613 1.349 . S
C1612 C1614 1.327 . S
C1612 H1637 0.950 . S
C1613 C1612 1.349 . S
C1613 C1629 1.349 . S
C1614 C1612 1.327 . S
C1614 C1633 1.429 . S
C1614 H1638 0.950 . S
C1615 C1632 1.574 . S
C1615 C1634 1.368 . S
C1615 H1639 0.949 . S
H1616 C1620 0.949 . S
C1617 C1618 1.349 . S
C1617 C1619 1.327 . S
C1617 H1640 0.950 . S
C1618 C1617 1.349 . S
C1618 C1630 1.349 . S
C1619 C1617 1.327 . S
C1619 C1635 1.429 . S
C1619 H1641 0.950 . S
C1620 H1616 0.949 . S
C1620 C1628 1.574 . S
C1620 C1636 1.368 . S
H1621 C1629 0.950 . S
H1622 C1627 0.950 . S
H1623 C1628 0.949 . S
H1624 C1630 0.950 . S
H1625 C1631 0.950 . S
H1626 C1632 0.949 . S
C1627 H1622 0.950 . S
C1627 C1629 1.327 . S
C1627 C1633 1.429 . S
C1628 C1620 1.574 . S
C1628 H1623 0.949 . S
C1628 C1634 1.368 1_556 S
C1629 C1613 1.349 . S
C1629 H1621 0.950 . S
C1629 C1627 1.327 . S
C1630 C1618 1.349 . S
C1630 H1624 0.950 . S
C1630 C1631 1.327 . S
C1631 H1625 0.950 . S
C1631 C1630 1.327 . S
C1631 C1635 1.429 . S
C1632 C1615 1.574 . S
C1632 H1626 0.949 . S
C1632 C1636 1.368 1_554 S
C1633 C1614 1.429 . S
C1633 C1627 1.429 . S
C1633 C1634 1.523 . S
C1634 C1615 1.368 . S
C1634 C1628 1.368 1_554 S
C1634 C1633 1.523 . S
C1635 C1619 1.429 . S
C1635 C1631 1.429 . S
C1635 C1636 1.523 . S
C1636 C1620 1.368 . S
C1636 C1632 1.368 1_556 S
C1636 C1635 1.523 . S
H1637 C1612 0.950 . S
H1638 C1614 0.950 . S
H1639 C1615 0.949 . S
H1640 C1617 0.950 . S
H1641 C1619 0.950 . S
C1642 C1643 1.349 . S
C1642 C1644 1.327 . S
C1642 H1667 0.950 . S
C1643 C1642 1.349 . S
C1643 C1659 1.349 . S
C1644 C1642 1.327 . S
C1644 C1663 1.429 . S
C1644 H1668 0.950 . S
C1645 C1662 1.574 . S
C1645 C1664 1.368 . S
C1645 H1669 0.949 . S
H1646 C1650 0.949 . S
C1647 C1648 1.349 . S
C1647 C1649 1.327 . S
C1647 H1670 0.950 . S
C1648 C1647 1.349 . S
C1648 C1660 1.349 . S
C1649 C1647 1.327 . S
C1649 C1665 1.429 . S
C1649 H1671 0.950 . S
C1650 H1646 0.949 . S
C1650 C1658 1.574 . S
C1650 C1666 1.368 . S
H1651 C1659 0.950 . S
H1652 C1657 0.950 . S
H1653 C1658 0.949 . S
H1654 C1660 0.950 . S
H1655 C1661 0.950 . S
H1656 C1662 0.949 . S
C1657 H1652 0.950 . S
C1657 C1659 1.327 . S
C1657 C1663 1.429 . S
C1658 C1650 1.574 . S
C1658 H1653 0.949 . S
C1658 C1664 1.368 . S
C1659 C1643 1.349 . S
C1659 H1651 0.950 . S
C1659 C1657 1.327 . S
C1660 C1648 1.349 . S
C1660 H1654 0.950 . S
C1660 C1661 1.327 . S
C1661 H1655 0.950 . S
C1661 C1660 1.327 . S
C1661 C1665 1.429 . S
C1662 C1645 1.574 . S
C1662 H1656 0.949 . S
C1662 C1666 1.368 . S
C1663 C1644 1.429 . S
C1663 C1657 1.429 . S
C1663 C1664 1.523 . S
C1664 C1645 1.368 . S
C1664 C1658 1.368 . S
C1664 C1663 1.523 . S
C1665 C1649 1.429 . S
C1665 C1661 1.429 . S
C1665 C1666 1.523 . S
C1666 C1650 1.368 . S
C1666 C1662 1.368 . S
C1666 C1665 1.523 . S
H1667 C1642 0.950 . S
H1668 C1644 0.950 . S
H1669 C1645 0.949 . S
H1670 C1647 0.950 . S
H1671 C1649 0.950 . S
C1672 C1673 1.349 . S
C1672 C1674 1.327 . S
C1672 H1697 0.950 . S
C1673 C1672 1.349 . S
C1673 C1689 1.349 . S
C1674 C1672 1.327 . S
C1674 C1693 1.429 . S
C1674 H1698 0.950 . S
C1675 C1692 1.574 1_554 S
C1675 C1694 1.368 . S
C1675 H1699 0.949 . S
H1676 C1680 0.949 . S
C1677 C1678 1.349 . S
C1677 C1679 1.327 . S
C1677 H1700 0.950 . S
C1678 C1677 1.349 . S
C1678 C1690 1.349 . S
C1679 C1677 1.327 . S
C1679 C1695 1.429 . S
C1679 H1701 0.950 . S
C1680 H1676 0.949 . S
C1680 C1688 1.574 1_556 S
C1680 C1696 1.368 . S
H1681 C1689 0.950 . S
H1682 C1687 0.950 . S
H1683 C1688 0.949 . S
H1684 C1690 0.950 . S
H1685 C1691 0.950 . S
H1686 C1692 0.949 . S
C1687 H1682 0.950 . S
C1687 C1689 1.327 . S
C1687 C1693 1.429 . S
C1688 C1680 1.574 1_554 S
C1688 H1683 0.949 . S
C1688 C1694 1.368 . S
C1689 C1673 1.349 . S
C1689 H1681 0.950 . S
C1689 C1687 1.327 . S
C1690 C1678 1.349 . S
C1690 H1684 0.950 . S
C1690 C1691 1.327 . S
C1691 H1685 0.950 . S
C1691 C1690 1.327 . S
C1691 C1695 1.429 . S
C1692 C1675 1.574 1_556 S
C1692 H1686 0.949 . S
C1692 C1696 1.368 . S
C1693 C1674 1.429 . S
C1693 C1687 1.429 . S
C1693 C1694 1.523 . S
C1694 C1675 1.368 . S
C1694 C1688 1.368 . S
C1694 C1693 1.523 . S
C1695 C1679 1.429 . S
C1695 C1691 1.429 . S
C1695 C1696 1.523 . S
C1696 C1680 1.368 . S
C1696 C1692 1.368 . S
C1696 C1695 1.523 . S
H1697 C1672 0.950 . S
H1698 C1674 0.950 . S
H1699 C1675 0.949 . S
H1700 C1677 0.950 . S
H1701 C1679 0.950 . S
C1702 C1703 1.349 . S
C1702 C1704 1.327 . S
C1702 H1727 0.950 . S
C1703 C1702 1.349 . S
C1703 C1719 1.349 . S
C1704 C1702 1.327 . S
C1704 C1723 1.429 . S
C1704 H1728 0.950 . S
C1705 C1722 1.574 . S
C1705 C1724 1.368 . S
C1705 H1729 0.949 . S
H1706 C1710 0.949 . S
C1707 C1708 1.349 . S
C1707 C1709 1.327 . S
C1707 H1730 0.950 . S
C1708 C1707 1.349 . S
C1708 C1720 1.349 . S
C1709 C1707 1.327 . S
C1709 C1725 1.429 . S
C1709 H1731 0.950 . S
C1710 H1706 0.949 . S
C1710 C1718 1.574 . S
C1710 C1726 1.368 . S
H1711 C1719 0.950 . S
H1712 C1717 0.950 . S
H1713 C1718 0.949 . S
H1714 C1720 0.950 . S
H1715 C1721 0.950 . S
H1716 C1722 0.949 . S
C1717 H1712 0.950 . S
C1717 C1719 1.327 . S
C1717 C1723 1.429 . S
C1718 C1710 1.574 . S
C1718 H1713 0.949 . S
C1718 C1724 1.368 . S
C1719 C1703 1.349 . S
C1719 H1711 0.950 . S
C1719 C1717 1.327 . S
C1720 C1708 1.349 . S
C1720 H1714 0.950 . S
C1720 C1721 1.327 . S
C1721 H1715 0.950 . S
C1721 C1720 1.327 . S
C1721 C1725 1.429 . S
C1722 C1705 1.574 . S
C1722 H1716 0.949 . S
C1722 C1726 1.368 . S
C1723 C1704 1.429 . S
C1723 C1717 1.429 . S
C1723 C1724 1.523 . S
C1724 C1705 1.368 . S
C1724 C1718 1.368 . S
C1724 C1723 1.523 . S
C1725 C1709 1.429 . S
C1725 C1721 1.429 . S
C1725 C1726 1.523 . S
C1726 C1710 1.368 . S
C1726 C1722 1.368 . S
C1726 C1725 1.523 . S
H1727 C1702 0.950 . S
H1728 C1704 0.950 . S
H1729 C1705 0.949 . S
H1730 C1707 0.950 . S
H1731 C1709 0.950 . S
C1732 C1733 1.349 . S
C1732 C1734 1.327 . S
C1732 H1757 0.950 . S
C1733 C1732 1.349 . S
C1733 C1749 1.349 . S
C1734 C1732 1.327 . S
C1734 C1753 1.429 . S
C1734 H1758 0.950 . S
C1735 C1752 1.574 1_556 S
C1735 C1754 1.368 . S
C1735 H1759 0.949 . S
H1736 C1740 0.949 . S
C1737 C1738 1.349 . S
C1737 C1739 1.327 . S
C1737 H1760 0.950 . S
C1738 C1737 1.349 . S
C1738 C1750 1.349 . S
C1739 C1737 1.327 . S
C1739 C1755 1.429 . S
C1739 H1761 0.950 . S
C1740 H1736 0.949 . S
C1740 C1748 1.574 1_554 S
C1740 C1756 1.368 . S
H1741 C1749 0.950 . S
H1742 C1747 0.950 . S
H1743 C1748 0.949 . S
H1744 C1750 0.950 . S
H1745 C1751 0.950 . S
H1746 C1752 0.949 . S
C1747 H1742 0.950 . S
C1747 C1749 1.327 . S
C1747 C1753 1.429 . S
C1748 C1740 1.574 1_556 S
C1748 H1743 0.949 . S
C1748 C1754 1.368 . S
C1749 C1733 1.349 . S
C1749 H1741 0.950 . S
C1749 C1747 1.327 . S
C1750 C1738 1.349 . S
C1750 H1744 0.950 . S
C1750 C1751 1.327 . S
C1751 H1745 0.950 . S
C1751 C1750 1.327 . S
C1751 C1755 1.429 . S
C1752 C1735 1.574 1_554 S
C1752 H1746 0.949 . S
C1752 C1756 1.368 . S
C1753 C1734 1.429 . S
C1753 C1747 1.429 . S
C1753 C1754 1.523 . S
C1754 C1735 1.368 . S
C1754 C1748 1.368 . S
C1754 C1753 1.523 . S
C1755 C1739 1.429 . S
C1755 C1751 1.429 . S
C1755 C1756 1.523 . S
C1756 C1740 1.368 . S
C1756 C1752 1.368 . S
C1756 C1755 1.523 . S
H1757 C1732 0.950 . S
H1758 C1734 0.950 . S
H1759 C1735 0.949 . S
H1760 C1737 0.950 . S
H1761 C1739 0.950 . S
C1762 C1763 1.349 . S
C1762 C1764 1.327 . S
C1762 H1787 0.950 . S
C1763 C1762 1.349 . S
C1763 C1779 1.349 . S
C1764 C1762 1.327 . S
C1764 C1783 1.429 . S
C1764 H1788 0.950 . S
C1765 C1782 1.574 . S
C1765 C1784 1.368 . S
C1765 H1789 0.949 . S
H1766 C1770 0.949 . S
C1767 C1768 1.349 . S
C1767 C1769 1.327 . S
C1767 H1790 0.950 . S
C1768 C1767 1.349 . S
C1768 C1780 1.349 . S
C1769 C1767 1.327 . S
C1769 C1785 1.429 . S
C1769 H1791 0.950 . S
C1770 H1766 0.949 . S
C1770 C1778 1.574 . S
C1770 C1786 1.368 . S
H1771 C1779 0.950 . S
H1772 C1777 0.950 . S
H1773 C1778 0.949 . S
H1774 C1780 0.950 . S
H1775 C1781 0.950 . S
H1776 C1782 0.949 . S
C1777 H1772 0.950 . S
C1777 C1779 1.327 . S
C1777 C1783 1.429 . S
C1778 C1770 1.574 . S
C1778 H1773 0.949 . S
C1778 C1784 1.368 . S
C1779 C1763 1.349 . S
C1779 H1771 0.950 . S
C1779 C1777 1.327 . S
C1780 C1768 1.349 . S
C1780 H1774 0.950 . S
C1780 C1781 1.327 . S
C1781 H1775 0.950 . S
C1781 C1780 1.327 . S
C1781 C1785 1.429 . S
C1782 C1765 1.574 . S
C1782 H1776 0.949 . S
C1782 C1786 1.368 . S
C1783 C1764 1.429 . S
C1783 C1777 1.429 . S
C1783 C1784 1.523 . S
C1784 C1765 1.368 . S
C1784 C1778 1.368 . S
C1784 C1783 1.523 . S
C1785 C1769 1.429 . S
C1785 C1781 1.429 . S
C1785 C1786 1.523 . S
C1786 C1770 1.368 . S
C1786 C1782 1.368 . S
C1786 C1785 1.523 . S
H1787 C1762 0.950 . S
H1788 C1764 0.950 . S
H1789 C1765 0.949 . S
H1790 C1767 0.950 . S
H1791 C1769 0.950 . S
C353 C7 1.040 . S
C358 C202 1.052 . S
C383 C29 1.040 . S
C388 C224 1.052 . S
C413 C246 1.052 . S
C418 C51 1.040 . S
C443 C184 1.052 . S
C448 C73 1.040 . S
C473 C95 1.040 . S
C478 C338 1.052 . S
C503 C272 1.052 . S
C508 C116 1.040 . S
C533 C294 1.052 . S
C538 C138 1.040 . S
C563 C316 1.052 . S
C568 C160 1.040 . S
C593 C30 1.052 . S
C598 C185 1.040 . S
C623 C203 1.040 . S
C628 C52 1.052 . S
C653 C74 1.052 . S
C658 C225 1.040 . S
C683 C8 1.052 . S
C688 C247 1.040 . S
C713 C158 1.052 . S
C718 C273 1.040 . S
C743 C96 1.052 . S
C748 C295 1.040 . S
C773 C317 1.040 . S
C778 C114 1.052 . S
C803 C136 1.052 . S
C808 C339 1.040 . S
C833 C4 1.418 . S
C838 C337 1.450 . S
C863 C26 1.418 . S
C868 C271 1.450 . S
C893 C48 1.418 . S
C898 C293 1.450 . S
C923 C315 1.450 . S
C928 C70 1.418 . S
C953 C92 1.418 . S
C958 C204 1.450 . S
C983 C118 1.418 . S
C988 C226 1.450 . S
C1013 C140 1.418 . S
C1018 C248 1.450 . S
C1043 C183 1.450 . S
C1048 C162 1.418 . S
C1073 C180 1.418 . S
C1078 C159 1.450 . S
C1103 C206 1.418 . S
C1108 C97 1.450 . S
C1133 C228 1.418 . S
C1138 C115 1.450 . S
C1163 C250 1.418 . S
C1168 C137 1.450 . S
C1193 C31 1.450 . S
C1198 C268 1.418 . S
C1223 C53 1.450 . S
C1228 C290 1.418 . S
C1253 C75 1.450 . S
C1258 C312 1.418 . S
C1283 C334 1.418 . S
C1288 C9 1.450 . S
C1313 C161 1.247 . S
C1318 C6 1.248 . S
C1343 C94 1.247 . S
C1348 C28 1.247 . S
C1373 C50 1.247 . S
C1378 C117 1.248 . S
C1403 C72 1.247 . S
C1408 C139 1.247 . S
C1433 C335 1.247 . S
C1438 C181 1.248 . S
C1463 C207 1.247 . S
C1468 C269 1.247 . S
C1493 C291 1.248 . S
C1498 C229 1.247 . S
C1523 C251 1.247 . S
C1528 C313 1.247 . S
C1553 C5 1.124 . S
C1558 C93 1.124 . S
C1583 C119 1.124 . S
C1588 C27 1.124 . S
C1613 C49 1.124 . S
C1618 C141 1.124 . S
C1643 C163 1.124 . S
C1648 C71 1.124 . S
C1673 C270 1.124 . S
C1678 C182 1.124 . S
C1703 C292 1.124 . S
C1708 C205 1.124 . S
C1733 C227 1.124 . S
C1738 C314 1.124 . S
C1763 C249 1.124 . S
C1768 C336 1.124 . S
