# Generated by pormake.
# Topology qtz-e, (6)-cn, num edge types: 1
# Building blocks:
#     Node 0, Type 0, BuildingBlock: INOVEN_clean_sbu_0, # of connection points: 6
#     Node 1, Type 0, BuildingBlock: INOVEN_clean_sbu_0, # of connection points: 6
#     Node 2, Type 0, BuildingBlock: INOVEN_clean_sbu_0, # of connection points: 6
#     Node 3, Type 0, BuildingBlock: INOVEN_clean_sbu_0, # of connection points: 6
#     Node 4, Type 0, BuildingBlock: INOVEN_clean_sbu_0, # of connection points: 6
#     Node 5, Type 0, BuildingBlock: INOVEN_clean_sbu_0, # of connection points: 6
#     Edge 6, Type (0, 0), BuildingBlock: FUNLAD_clean_linker_0, # of connection points: 2
#     Edge 7, Type (0, 0), BuildingBlock: FUNLAD_clean_linker_0, # of connection points: 2
#     Edge 8, Type (0, 0), BuildingBlock: FUNLAD_clean_linker_0, # of connection points: 2
#     Edge 9, Type (0, 0), BuildingBlock: FUNLAD_clean_linker_0, # of connection points: 2
#     Edge 10, Type (0, 0), BuildingBlock: FUNLAD_clean_linker_0, # of connection points: 2
#     Edge 11, Type (0, 0), BuildingBlock: FUNLAD_clean_linker_0, # of connection points: 2
#     Edge 12, Type (0, 0), BuildingBlock: FUNLAD_clean_linker_0, # of connection points: 2
#     Edge 13, Type (0, 0), BuildingBlock: FUNLAD_clean_linker_0, # of connection points: 2
#     Edge 14, Type (0, 0), BuildingBlock: FUNLAD_clean_linker_0, # of connection points: 2
#     Edge 15, Type (0, 0), BuildingBlock: FUNLAD_clean_linker_0, # of connection points: 2
#     Edge 16, Type (0, 0), BuildingBlock: FUNLAD_clean_linker_0, # of connection points: 2
#     Edge 17, Type (0, 0), BuildingBlock: FUNLAD_clean_linker_0, # of connection points: 2
#     Edge 18, Type (0, 0), BuildingBlock: FUNLAD_clean_linker_0, # of connection points: 2
#     Edge 19, Type (0, 0), BuildingBlock: FUNLAD_clean_linker_0, # of connection points: 2
#     Edge 20, Type (0, 0), BuildingBlock: FUNLAD_clean_linker_0, # of connection points: 2
#     Edge 21, Type (0, 0), BuildingBlock: FUNLAD_clean_linker_0, # of connection points: 2
#     Edge 22, Type (0, 0), BuildingBlock: FUNLAD_clean_linker_0, # of connection points: 2
#     Edge 23, Type (0, 0), BuildingBlock: FUNLAD_clean_linker_0, # of connection points: 2
# Relax obj value: 0.093
# Max RMSD: 0.172
# Mean RMSD: 0.172
data_MOF--net-qtz-e--node1-INOVEN_clean_sbu_0--edge1-FUNLAD_clean_linker_0
_symmetry_space_group_name_H-M    P1
_symmetry_Int_Tables_number       1
_symmetry_cell_setting            triclinic
loop_
_symmetry_equiv_pos_as_xyz
'x, y, z'
_cell_length_a     29.788618
_cell_length_b     29.893281
_cell_length_c     57.936544
_cell_angle_alpha  89.950959
_cell_angle_beta   90.159423
_cell_angle_gamma 120.17354
loop_
_atom_site_label
_atom_site_type_symbol
_atom_site_fract_x
_atom_site_fract_y
_atom_site_fract_z
_atom_type_partial_charge
Gd0 Gd 0.18299 0.46548 0.04837 0.0
Gd1 Gd 0.17625 0.36122 0.03953 0.0
C2 C 0.15848 0.3825 0.09113 0.0
C3 C 0.16636 0.5367 0.06422 0.0
C4 C 0.16816 0.55544 0.08791 0.0
C5 C 0.19562 0.54615 0.10517 0.0
C6 C 0.14149 0.58139 0.09364 0.0
C7 C 0.17035 0.5892 0.1337 0.0
C8 C 0.14258 0.59818 0.11633 0.0
C9 C 0.19667 0.56277 0.1278 0.0
C10 C 0.2743 0.46829 0.0493 0.0
C11 C 0.20074 0.4443 0.99714 0.0
C12 C 0.19116 0.28891 0.02355 0.0
C13 C 0.20425 0.27697 1.00058 0.0
C14 C 0.17684 0.22615 0.9921 0.0
C15 C 0.24197 0.31603 0.98651 0.0
C16 C 0.2237 0.25368 0.95557 0.0
C17 C 0.25153 0.30453 0.96425 0.0
C18 C 0.18647 0.21457 0.96987 0.0
C19 C 0.08593 0.36088 0.03898 0.0
O20 O 0.15816 0.42363 0.08274 0.0
O21 O 0.17045 0.3536 0.07813 0.0
O22 O 0.21096 0.54632 0.05566 0.0
O23 O 0.12906 0.48945 0.06001 0.0
O24 O 0.26859 0.50597 0.04174 0.0
O25 O 0.23243 0.43247 0.0575 0.0
O26 O 0.20617 0.40626 1.00592 0.0
O27 O 0.18368 0.4694 1.00982 0.0
O28 O 0.14515 0.28407 0.02529 0.0
O29 O 0.22731 0.3301 0.03418 0.0
O30 O 0.09094 0.32433 0.04852 0.0
O31 O 0.12806 0.39456 0.03027 0.0
H32 H 0.21602 0.52565 0.10118 0.0
H33 H 0.11988 0.58871 0.08057 0.0
H34 H 0.12218 0.61873 0.1202 0.0
H35 H 0.21752 0.55416 0.14076 0.0
H36 H 0.14734 0.19544 1.00257 0.0
H37 H 0.26371 0.35564 0.99257 0.0
H38 H 0.28093 0.33554 0.95388 0.0
H39 H 0.16383 0.17513 0.96371 0.0
Gd40 Gd 0.7332 0.2123 0.3861 0.0
Gd41 Gd 0.82082 0.1933 0.37268 0.0
C42 C 0.77113 0.15112 0.42149 0.0
C43 C 0.64743 0.20045 0.40264 0.0
C44 C 0.63129 0.19984 0.42671 0.0
C45 C 0.66863 0.21926 0.44441 0.0
C46 C 0.57873 0.17886 0.43231 0.0
C47 C 0.60118 0.19819 0.47307 0.0
C48 C 0.56375 0.17794 0.45531 0.0
C49 C 0.65378 0.21864 0.46733 0.0
C50 C 0.82725 0.28941 0.39846 0.0
C51 C 0.78515 0.25633 0.33784 0.0
C52 C 0.90371 0.19899 0.35544 0.0
C53 C 0.92965 0.21282 0.3326 0.0
C54 C 0.94044 0.17789 0.32118 0.0
C55 C 0.94282 0.25995 0.32174 0.0
C56 C 0.97636 0.23648 0.2883 0.0
C57 C 0.96584 0.2716 0.29986 0.0
C58 C 0.96346 0.18951 0.29929 0.0
C59 C 0.72327 0.11912 0.36129 0.0
O60 O 0.734 0.15986 0.41426 0.0
O61 O 0.81419 0.1669 0.40945 0.0
O62 O 0.68518 0.24495 0.39526 0.0
O63 O 0.65342 0.16154 0.39672 0.0
O64 O 0.7889 0.29566 0.3924 0.0
O65 O 0.81335 0.24203 0.39942 0.0
O66 O 0.82343 0.25012 0.3458 0.0
O67 O 0.74045 0.23673 0.34897 0.0
O68 O 0.85899 0.15594 0.35633 0.0
O69 O 0.90412 0.23625 0.36748 0.0
O70 O 0.75741 0.10852 0.36951 0.0
O71 O 0.74288 0.16693 0.35948 0.0
H72 H 0.70939 0.2349 0.44049 0.0
H73 H 0.54934 0.16329 0.4189 0.0
H74 H 0.52297 0.16215 0.45914 0.0
H75 H 0.68347 0.2337 0.4806 0.0
H76 H 0.93086 0.14139 0.32919 0.0
H77 H 0.93505 0.28775 0.33007 0.0
H78 H 0.97459 0.30784 0.29184 0.0
H79 H 0.9716 0.16183 0.29107 0.0
Gd80 Gd 0.52979 0.75062 0.72278 0.0
Gd81 Gd 0.6387 0.82935 0.70625 0.0
C82 C 0.62762 0.77954 0.75548 0.0
C83 C 0.4403 0.67444 0.73458 0.0
C84 C 0.41517 0.65543 0.75721 0.0
C85 C 0.43309 0.68779 0.77666 0.0
C86 C 0.3742 0.6044 0.75971 0.0
C87 C 0.36891 0.61856 0.80089 0.0
C88 C 0.35128 0.58607 0.78136 0.0
C89 C 0.41015 0.66965 0.79823 0.0
C90 C 0.56898 0.84652 0.74113 0.0
C91 C 0.54087 0.79764 0.67143 0.0
C92 C 0.71871 0.90596 0.68702 0.0
C93 C 0.7272 0.92911 0.66374 0.0
C94 C 0.70405 0.89768 0.64428 0.0
C95 C 0.75834 0.98275 0.66075 0.0
C96 C 0.74332 0.97314 0.61909 0.0
C97 C 0.76638 0.0046 0.63864 0.0
C98 C 0.71206 0.91939 0.62225 0.0
C99 C 0.60917 0.72871 0.70055 0.0
O100 O 0.58304 0.74136 0.7475 0.0
O101 O 0.65376 0.82373 0.74404 0.0
O102 O 0.44756 0.71974 0.7282 0.0
O103 O 0.4807 0.6691 0.73061 0.0
O104 O 0.5421 0.80389 0.75242 0.0
O105 O 0.57353 0.8361 0.72051 0.0
O106 O 0.59152 0.82537 0.67504 0.0
O107 O 0.50875 0.76504 0.6871 0.0
O108 O 0.7111 0.85895 0.68784 0.0
O109 O 0.68733 0.91237 0.70062 0.0
O110 O 0.65542 0.76302 0.70738 0.0
O111 O 0.58227 0.74944 0.6971 0.0
H112 H 0.46508 0.7271 0.77522 0.0
H113 H 0.36003 0.57871 0.74494 0.0
H114 H 0.31941 0.54663 0.78277 0.0
H115 H 0.42539 0.69546 0.81292 0.0
H116 H 0.67972 0.85614 0.64605 0.0
H117 H 0.7764 0.00774 0.67551 0.0
H118 H 0.79015 0.04619 0.63691 0.0
H119 H 0.69424 0.8938 0.60765 0.0
Gd120 Gd 0.8014 0.5226 0.04774 0.0
Gd121 Gd 0.81307 0.62806 0.03767 0.0
C122 C 0.83315 0.60961 0.08928 0.0
C123 C 0.81494 0.45019 0.06456 0.0
C124 C 0.8102 0.43177 0.0885 0.0
C125 C 0.78211 0.44297 0.10462 0.0
C126 C 0.83459 0.40438 0.09563 0.0
C127 C 0.80107 0.39784 0.13466 0.0
C128 C 0.8301 0.38754 0.11855 0.0
C129 C 0.77748 0.42609 0.12742 0.0
C130 C 0.7126 0.52445 0.04988 0.0
C131 C 0.77935 0.54037 0.99662 0.0
C132 C 0.80238 0.70239 0.02084 0.0
C133 C 0.79284 0.7148 0.99731 0.0
C134 C 0.80788 0.69745 0.9779 0.0
C135 C 0.76742 0.74306 0.99411 0.0
C136 C 0.77225 0.73671 0.95224 0.0
C137 C 0.75723 0.75396 0.97181 0.0
C138 C 0.79778 0.70834 0.95562 0.0
C139 C 0.90011 0.62157 0.03531 0.0
O140 O 0.83219 0.5676 0.08126 0.0
O141 O 0.82032 0.63766 0.07611 0.0
O142 O 0.77156 0.44132 0.05478 0.0
O143 O 0.85319 0.49715 0.06083 0.0
O144 O 0.71554 0.48481 0.04296 0.0
O145 O 0.75593 0.55992 0.05717 0.0
O146 O 0.77695 0.58028 1.00515 0.0
O147 O 0.79693 0.51546 1.0092 0.0
O148 O 0.84755 0.70611 0.02436 0.0
O149 O 0.76407 0.66094 0.03022 0.0
O150 O 0.89903 0.66022 0.04494 0.0
O151 O 0.85599 0.58981 0.02767 0.0
H152 H 0.76371 0.46487 0.09955 0.0
H153 H 0.85692 0.39591 0.08348 0.0
H154 H 0.84859 0.36573 0.12357 0.0
H155 H 0.75576 0.43559 0.13945 0.0
H156 H 0.82741 0.67537 0.97994 0.0
H157 H 0.75512 0.75641 1.00886 0.0
H158 H 0.7368 0.77518 0.96993 0.0
H159 H 0.8105 0.69492 0.94105 0.0
Gd160 Gd 0.26988 0.79579 0.38497 0.0
Gd161 Gd 0.16702 0.7907 0.37452 0.0
C162 C 0.2154 0.83566 0.42322 0.0
C163 C 0.36255 0.82587 0.39995 0.0
C164 C 0.38215 0.82915 0.42365 0.0
C165 C 0.34722 0.80381 0.44177 0.0
C166 C 0.43548 0.8574 0.42841 0.0
C167 C 0.41895 0.83327 0.46916 0.0
C168 C 0.45376 0.8595 0.45094 0.0
C169 C 0.36538 0.80568 0.46424 0.0
C170 C 0.1861 0.70585 0.39655 0.0
C171 C 0.22062 0.75025 0.33639 0.0
C172 C 0.07596 0.76396 0.35824 0.0
C173 C 0.05481 0.75108 0.33452 0.0
C174 C 0.08847 0.76507 0.31555 0.0
C175 C 0.00104 0.72339 0.33066 0.0
C176 C 0.01482 0.72313 0.28908 0.0
C177 C 0.98119 0.70968 0.30816 0.0
C178 C 0.06875 0.75119 0.29311 0.0
C179 C 0.25431 0.8788 0.36276 0.0
O180 O 0.25802 0.83863 0.4146 0.0
O181 O 0.17055 0.81127 0.41204 0.0
O182 O 0.33114 0.77897 0.39237 0.0
O183 O 0.34622 0.85808 0.39505 0.0
O184 O 0.22909 0.70992 0.38932 0.0
O185 O 0.19049 0.74972 0.39907 0.0
O186 O 0.17753 0.74544 0.34541 0.0
O187 O 0.26565 0.77664 0.34728 0.0
O188 O 0.112 0.81216 0.36173 0.0
O189 O 0.08719 0.73108 0.36781 0.0
O190 O 0.21496 0.87889 0.37225 0.0
O191 O 0.24481 0.83347 0.36016 0.0
H192 H 0.30579 0.78202 0.43848 0.0
H193 H 0.463 0.8777 0.41469 0.0
H194 H 0.49517 0.88192 0.4541 0.0
H195 H 0.33736 0.78447 0.47764 0.0
H196 H 0.13016 0.78651 0.31809 0.0
H197 H 0.97439 0.71196 0.34506 0.0
H198 H 0.9395 0.68759 0.30576 0.0
H199 H 0.09586 0.76278 0.27889 0.0
Gd200 Gd 0.44604 0.23191 0.72272 0.0
Gd201 Gd 0.33535 0.15369 0.70679 0.0
C202 C 0.35022 0.20411 0.75642 0.0
C203 C 0.53632 0.30751 0.7341 0.0
C204 C 0.56134 0.32757 0.7567 0.0
C205 C 0.61514 0.36097 0.75827 0.0
C206 C 0.5315 0.31292 0.77695 0.0
C207 C 0.60906 0.36542 0.80016 0.0
C208 C 0.55506 0.33174 0.79843 0.0
C209 C 0.63884 0.37969 0.77979 0.0
C210 C 0.40686 0.13516 0.73996 0.0
C211 C 0.43189 0.18444 0.67142 0.0
C212 C 0.25373 0.0772 0.68825 0.0
C213 C 0.24423 0.04596 0.66711 0.0
C214 C 0.1991 0.03112 0.65412 0.0
C215 C 0.28172 0.03495 0.65856 0.0
C216 C 0.22983 -0.00347 0.62377 0.0
C217 C 0.27457 0.01044 0.63714 0.0
C218 C 0.1919 0.00665 0.63272 0.0
C219 C 0.36527 0.25456 0.70218 0.0
O220 O 0.39502 0.24162 0.7484 0.0
O221 O 0.32239 0.16035 0.74478 0.0
O222 O 0.52818 0.26148 0.72855 0.0
O223 O 0.49652 0.31352 0.72947 0.0
O224 O 0.43513 0.17718 0.75156 0.0
O225 O 0.40128 0.14663 0.71966 0.0
O226 O 0.38172 0.15544 0.67581 0.0
O227 O 0.46482 0.21822 0.68658 0.0
O228 O 0.26791 0.12568 0.68462 0.0
O229 O 0.28001 0.07119 0.705 0.0
O230 O 0.31913 0.22025 0.7091 0.0
O231 O 0.39175 0.23368 0.69806 0.0
H232 H 0.63882 0.37264 0.74284 0.0
H233 H 0.48991 0.28678 0.77615 0.0
H234 H 0.53102 0.31927 0.81374 0.0
H235 H 0.6804 0.4059 0.78045 0.0
H236 H 0.16997 0.03979 0.66025 0.0
H237 H 0.31712 0.04635 0.66817 0.0
H238 H 0.30432 0.00273 0.63101 0.0
H239 H 0.15733 -0.00275 0.62285 0.0
C240 C 0.17114 0.70481 0.30057 0.0
C241 C 0.21852 0.73037 0.31268 0.0
C242 C 0.16925 0.68912 0.27767 0.0
C243 C 0.21482 0.69808 0.2663 0.0
C244 C 0.26203 0.7231 0.27857 0.0
C245 C 0.26391 0.739 0.30145 0.0
C246 C 0.21558 0.68364 0.24164 0.0
C247 C 0.17288 0.65226 0.22902 0.0
C248 C 0.17418 0.63808 0.2044 0.0
C249 C 0.12837 0.61787 0.19121 0.0
C250 C 0.12719 0.60265 0.16826 0.0
C251 C 0.17182 0.60692 0.15791 0.0
H252 H 0.25476 0.65637 0.20353 0.0
C253 C 0.21772 0.6272 0.17108 0.0
C254 C 0.2189 0.64238 0.19402 0.0
H255 H 0.25297 0.63145 0.16364 0.0
H256 H 0.13534 0.69756 0.30863 0.0
H257 H 0.13204 0.67109 0.26904 0.0
H258 H 0.29785 0.73078 0.27036 0.0
H259 H 0.30112 0.75874 0.31019 0.0
H260 H 0.25352 0.70012 0.23368 0.0
H261 H 0.13476 0.63614 0.23672 0.0
H262 H 0.09315 0.61363 0.19871 0.0
H263 H 0.09095 0.58651 0.15879 0.0
C264 C 0.50318 0.20973 0.64206 0.0
C265 C 0.45055 0.17993 0.64822 0.0
C266 C 0.51971 0.20633 0.6198 0.0
C267 C 0.48377 0.1732 0.6031 0.0
C268 C 0.43147 0.14273 0.60952 0.0
C269 C 0.41505 0.14611 0.63168 0.0
C270 C 0.49844 0.16849 0.57893 0.0
C271 C 0.5434 0.20299 0.56867 0.0
C272 C 0.55682 0.19976 0.54406 0.0
C273 C 0.60024 0.24291 0.53439 0.0
C274 C 0.61454 0.24236 0.51146 0.0
C275 C 0.58573 0.19855 0.49749 0.0
H276 H 0.49543 0.12071 0.53672 0.0
C277 C 0.54246 0.15515 0.50708 0.0
C278 C 0.52831 0.15552 0.5301 0.0
H279 H 0.51998 0.12046 0.49689 0.0
H280 H 0.53168 0.23587 0.6544 0.0
H281 H 0.56064 0.22948 0.61597 0.0
H282 H 0.40282 0.11653 0.59723 0.0
H283 H 0.37419 0.12245 0.63567 0.0
H284 H 0.46921 0.13627 0.56897 0.0
H285 H 0.57122 0.23681 0.57828 0.0
H286 H 0.62318 0.27752 0.54458 0.0
H287 H 0.64785 0.27664 0.50458 0.0
C288 C 0.21801 0.50404 0.96342 0.0
C289 C 0.21461 0.45885 0.97256 0.0
C290 C 0.23304 0.51845 0.94044 0.0
C291 C 0.2451 0.48791 0.92606 0.0
C292 C 0.24031 0.4421 0.93509 0.0
C293 C 0.22553 0.42787 0.95803 0.0
C294 C 0.26193 0.50166 0.90155 0.0
C295 C 0.28423 0.55028 0.89308 0.0
C296 C 0.30353 0.56513 0.86889 0.0
C297 C 0.31587 0.61448 0.861 0.0
C298 C 0.33621 0.63139 0.8389 0.0
C299 C 0.34502 0.59944 0.82404 0.0
H300 H 0.30448 0.49512 0.85927 0.0
C301 C 0.33226 0.54983 0.83176 0.0
C302 C 0.31199 0.53289 0.85392 0.0
H303 H 0.33934 0.52454 0.82091 0.0
H304 H 0.20949 0.52862 0.97405 0.0
H305 H 0.23449 0.55315 0.93405 0.0
H306 H 0.2487 0.41742 0.92444 0.0
H307 H 0.22266 0.39246 0.96433 0.0
H308 H 0.25698 0.4703 0.89047 0.0
H309 H 0.28944 0.58145 0.9044 0.0
H310 H 0.30996 0.64032 0.87202 0.0
H311 H 0.34496 0.6696 0.83345 0.0
C312 C 0.74853 0.2773 0.30298 0.0
C313 C 0.79143 0.28111 0.31496 0.0
C314 C 0.75426 0.29718 0.28057 0.0
C315 C 0.80314 0.3213 0.26965 0.0
C316 C 0.84617 0.32668 0.28202 0.0
C317 C 0.8404 0.30668 0.30431 0.0
C318 C 0.81138 0.34179 0.24561 0.0
C319 C 0.77348 0.32538 0.22954 0.0
C320 C 0.78228 0.34474 0.20529 0.0
C321 C 0.73998 0.34033 0.19264 0.0
C322 C 0.74613 0.35745 0.16979 0.0
C323 C 0.79472 0.37894 0.15888 0.0
H324 H 0.86416 0.36823 0.20311 0.0
C325 C 0.83695 0.38248 0.17135 0.0
C326 C 0.83087 0.36559 0.19429 0.0
H327 H 0.87491 0.39888 0.16345 0.0
H328 H 0.71029 0.2581 0.31072 0.0
H329 H 0.72033 0.29369 0.27203 0.0
H330 H 0.88439 0.34558 0.27424 0.0
H331 H 0.87442 0.31092 0.3131 0.0
H332 H 0.85079 0.37059 0.24095 0.0
H333 H 0.73399 0.29676 0.23414 0.0
H334 H 0.70197 0.32383 0.20051 0.0
H335 H 0.71257 0.35333 0.16057 0.0
C336 C 0.55417 0.83843 0.63227 0.0
C337 C 0.52055 0.80212 0.64856 0.0
C338 C 0.53617 0.84197 0.61042 0.0
C339 C 0.4839 0.80909 0.60417 0.0
C340 C 0.44995 0.77375 0.62064 0.0
C341 C 0.46805 0.77009 0.64254 0.0
C342 C 0.46334 0.81148 0.58094 0.0
C343 C 0.49321 0.82879 0.56183 0.0
C344 C 0.47309 0.83019 0.53837 0.0
C345 C 0.50119 0.83013 0.51895 0.0
C346 C 0.48391 0.83145 0.49661 0.0
C347 C 0.43825 0.83353 0.49305 0.0
H348 H 0.40595 0.83502 0.54936 0.0
C349 C 0.41068 0.83474 0.51253 0.0
C350 C 0.42783 0.8331 0.5349 0.0
H351 H 0.37604 0.83757 0.51054 0.0
H352 H 0.59464 0.86446 0.63637 0.0
H353 H 0.56332 0.87108 0.59865 0.0
H354 H 0.40935 0.74833 0.61645 0.0
H355 H 0.44095 0.74187 0.65465 0.0
H356 H 0.42174 0.79581 0.57942 0.0
H357 H 0.5339 0.83991 0.56301 0.0
H358 H 0.53639 0.8283 0.52105 0.0
H359 H 0.50593 0.82981 0.48212 0.0
C360 C 0.76112 0.48038 0.96281 0.0
C361 C 0.76112 0.52346 0.97257 0.0
C362 C 0.74158 0.46343 0.94048 0.0
C363 C 0.72178 0.48944 0.92734 0.0
C364 C 0.72229 0.53269 0.93709 0.0
C365 C 0.74175 0.54956 0.95933 0.0
C366 C 0.69777 0.47153 0.90403 0.0
C367 C 0.7059 0.44003 0.89015 0.0
C368 C 0.68077 0.4222 0.86703 0.0
C369 C 0.70443 0.40652 0.85045 0.0
C370 C 0.68158 0.38866 0.82873 0.0
C371 C 0.63404 0.3854 0.82312 0.0
H372 H 0.61258 0.42884 0.87388 0.0
C373 C 0.61009 0.40064 0.83978 0.0
C374 C 0.63303 0.41869 0.86146 0.0
H375 H 0.57359 0.39886 0.83604 0.0
H376 H 0.77541 0.45913 0.97256 0.0
H377 H 0.74086 0.42921 0.93394 0.0
H378 H 0.70715 0.55344 0.92752 0.0
H379 H 0.74086 0.58276 0.96622 0.0
H380 H 0.67363 0.48669 0.89781 0.0
H381 H 0.73355 0.42836 0.89533 0.0
H382 H 0.74085 0.40817 0.85429 0.0
H383 H 0.70073 0.37651 0.81647 0.0
C384 C 0.32916 0.43107 0.06152 0.0
C385 C 0.32465 0.47073 0.05081 0.0
C386 C 0.37746 0.4342 0.06296 0.0
C387 C 0.42198 0.47723 0.05398 0.0
C388 C 0.41716 0.51663 0.04304 0.0
C389 C 0.36894 0.5134 0.04154 0.0
C390 C 0.4722 0.47841 0.05504 0.0
C391 C 0.51851 0.52248 0.05426 0.0
C392 C 0.56821 0.52259 0.0533 0.0
C393 C 0.61373 0.5654 0.06184 0.0
C394 C 0.66115 0.56644 0.06082 0.0
C395 C 0.6636 0.52484 0.051 0.0
H396 H 0.53744 0.44889 0.03544 0.0
C397 C 0.61836 0.48263 0.04203 0.0
C398 C 0.57119 0.48155 0.04307 0.0
H399 H 0.61937 0.45037 0.03406 0.0
H400 H 0.29547 0.39776 0.06879 0.0
H401 H 0.3801 0.40304 0.0712 0.0
H402 H 0.45017 0.54945 0.03515 0.0
H403 H 0.36632 0.54425 0.03298 0.0
H404 H 0.47072 0.44154 0.05694 0.0
H405 H 0.52041 0.55971 0.05483 0.0
H406 H 0.61249 0.59783 0.06949 0.0
H407 H 0.69569 0.59952 0.06775 0.0
C408 C 0.14501 0.61182 0.40409 0.0
C409 C 0.14264 0.65743 0.40525 0.0
C410 C 0.10347 0.56516 0.41165 0.0
C411 C 0.05876 0.56336 0.42061 0.0
C412 C 0.05689 0.60929 0.42211 0.0
C413 C 0.09863 0.65609 0.41457 0.0
C414 C 0.01101 0.51372 0.42543 0.0
C415 C 0.0103 0.46893 0.42941 0.0
C416 C 0.96212 0.4184 0.4266 0.0
C417 C 0.96544 0.37657 0.41752 0.0
C418 C 0.92082 0.33247 0.40954 0.0
C419 C 0.8728 0.33031 0.41035 0.0
H420 H 0.90854 0.44323 0.43802 0.0
C421 C 0.86882 0.36981 0.42146 0.0
C422 C 0.91296 0.41309 0.4299 0.0
H423 H 0.83169 0.368 0.42302 0.0
H424 H 0.17858 0.61193 0.39687 0.0
H425 H 0.10588 0.53053 0.40938 0.0
H426 H 0.02256 0.60876 0.42862 0.0
H427 H 0.09605 0.69091 0.41565 0.0
H428 H 0.97487 0.51381 0.42325 0.0
H429 H 0.04641 0.46874 0.43152 0.0
H430 H 0.00286 0.37941 0.41516 0.0
H431 H 0.92438 0.30177 0.40149 0.0
C432 C 0.43014 0.08396 0.76611 0.0
C433 C 0.4077 0.08758 0.74537 0.0
C434 C 0.44489 0.0467 0.76862 0.0
C435 C 0.4374 0.01266 0.75035 0.0
C436 C 0.40933 0.0125 0.7308 0.0
C437 C 0.39463 0.04976 0.72829 0.0
C438 C 0.46206 0.98031 0.74983 0.0
C439 C 0.50374 0.98977 0.76262 0.0
C440 C 0.53104 0.96117 0.75799 0.0
C441 C 0.53839 0.9337 0.77575 0.0
C442 C 0.55538 0.89903 0.77052 0.0
C443 C 0.56608 0.89247 0.74756 0.0
H444 H 0.54199 0.98014 0.72157 0.0
C445 C 0.56418 0.92432 0.73025 0.0
C446 C 0.54629 0.95815 0.73541 0.0
H447 H 0.57253 0.92023 0.71243 0.0
H448 H 0.43957 0.11208 0.77976 0.0
H449 H 0.46409 0.04641 0.78444 0.0
H450 H 0.40203 0.98591 0.71669 0.0
H451 H 0.37662 0.05128 0.71225 0.0
H452 H 0.44856 0.9503 0.73667 0.0
H453 H 0.51861 0.01854 0.77624 0.0
H454 H 0.52747 0.93625 0.79332 0.0
H455 H 0.55693 0.87501 0.78416 0.0
C456 C 0.53705 0.6409 0.69184 0.0
C457 C 0.58684 0.67247 0.70108 0.0
C458 C 0.51294 0.5874 0.6936 0.0
C459 C 0.53814 0.56434 0.70475 0.0
C460 C 0.58876 0.59587 0.7133 0.0
C461 C 0.61296 0.64975 0.71158 0.0
C462 C 0.51339 0.50748 0.70645 0.0
C463 C 0.46147 0.47601 0.70688 0.0
C464 C 0.43662 0.41908 0.70558 0.0
C465 C 0.38684 0.38786 0.71492 0.0
C466 C 0.36254 0.33391 0.71354 0.0
C467 C 0.38771 0.31082 0.7026 0.0
H468 H 0.49815 0.41836 0.68574 0.0
C469 C 0.43664 0.34206 0.69262 0.0
C470 C 0.46084 0.39561 0.69403 0.0
H471 H 0.45651 0.32507 0.68378 0.0
H472 H 0.5164 0.65761 0.68338 0.0
H473 H 0.47487 0.56435 0.68591 0.0
H474 H 0.60925 0.57882 0.72159 0.0
H475 H 0.65146 0.6735 0.71879 0.0
H476 H 0.53882 0.49129 0.70754 0.0
H477 H 0.43615 0.49225 0.70836 0.0
H478 H 0.36709 0.40521 0.72355 0.0
H479 H 0.3247 0.31041 0.72132 0.0
C480 C 0.03413 0.38207 0.06563 0.0
C481 C 0.04343 0.37073 0.04324 0.0
C482 C 0.00571 0.40727 0.06875 0.0
C483 C 0.98482 0.41911 0.04952 0.0
C484 C 0.98975 0.40277 0.02749 0.0
C485 C 0.0199 0.37979 0.0243 0.0
C486 C 0.96264 0.45313 0.05113 0.0
C487 C 0.99005 0.50121 0.05995 0.0
C488 C 0.97758 0.54132 0.05298 0.0
C489 C 0.97646 0.57561 0.0692 0.0
C490 C 0.95634 0.60746 0.06292 0.0
C491 C 0.93776 0.60513 0.04036 0.0
H492 H 0.96733 0.51952 1.01678 0.0
C493 C 0.94443 0.57516 0.02369 0.0
C494 C 0.96457 0.54387 0.02988 0.0
H495 H 0.93045 0.57302 1.0062 0.0
H496 H 0.05248 0.37565 0.08042 0.0
H497 H 0.00193 0.41941 0.08589 0.0
H498 H 0.97378 0.41161 1.01249 0.0
H499 H 0.0272 0.37169 1.00691 0.0
H500 H 0.92867 0.44296 0.04049 0.0
H501 H 0.02423 0.51233 0.07055 0.0
H502 H 0.98743 0.57498 0.08699 0.0
H503 H 0.95092 0.63001 0.0761 0.0
C504 C 0.32764 0.96299 0.37714 0.0
C505 C 0.30744 0.92222 0.36114 0.0
C506 C 0.38149 -0.0038 0.37871 0.0
C507 C 0.41496 0.98807 0.36456 0.0
C508 C 0.3941 0.94981 0.34742 0.0
C509 C 0.34086 0.91725 0.34574 0.0
C510 C 0.47168 0.01899 0.36755 0.0
C511 C 0.50128 -0.00324 0.36613 0.0
C512 C 0.55833 0.02724 0.36454 0.0
C513 C 0.58875 0.00764 0.37369 0.0
C514 C 0.64295 0.03633 0.37198 0.0
C515 C 0.66687 0.08435 0.36073 0.0
H516 H 0.55993 0.08937 0.34446 0.0
C517 C 0.63613 0.10237 0.35055 0.0
C518 C 0.58246 0.07431 0.35253 0.0
H519 H 0.65367 0.13903 0.34149 0.0
H520 H 0.30236 0.96705 0.38931 0.0
H521 H 0.39706 0.02626 0.39175 0.0
H522 H 0.41906 0.94409 0.3357 0.0
H523 H 0.32592 0.88626 0.33312 0.0
H524 H 0.48922 0.0603 0.37062 0.0
H525 H 0.48301 0.95482 0.36547 0.0
H526 H 0.57063 0.97079 0.38259 0.0
H527 H 0.66601 0.02178 0.37997 0.0
C528 C 0.28962 0.17203 0.79072 0.0
C529 C 0.33198 0.21241 0.77904 0.0
C530 C 0.27461 0.18051 0.81252 0.0
C531 C 0.3017 0.22969 0.82305 0.0
C532 C 0.3432 0.27004 0.81108 0.0
C533 C 0.35834 0.26154 0.7895 0.0
C534 C 0.28787 0.24139 0.84615 0.0
C535 C 0.26178 0.20568 0.86263 0.0
C536 C 0.25163 0.21893 0.88621 0.0
C537 C 0.24237 0.18439 0.90447 0.0
C538 C 0.23343 0.19559 0.92689 0.0
C539 C 0.23312 0.24159 0.93165 0.0
H540 H 0.25542 0.29147 0.87726 0.0
C541 C 0.24146 0.27579 0.9133 0.0
C542 C 0.25039 0.26457 0.89088 0.0
H543 H 0.24025 0.31096 0.91618 0.0
H544 H 0.26834 0.13378 0.78314 0.0
H545 H 0.24155 0.14864 0.82087 0.0
H546 H 0.36459 0.3084 0.81857 0.0
H547 H 0.39098 0.29377 0.78105 0.0
H548 H 0.30318 0.28198 0.85018 0.0
H549 H 0.25027 0.16555 0.85939 0.0
H550 H 0.24275 0.14881 0.90146 0.0
H551 H 0.22754 0.16848 0.94057 0.0
C552 C 0.04044 0.29896 0.25939 0.0
C553 C 0.0004 0.24871 0.26484 0.0
C554 C 0.06254 0.31066 0.23732 0.0
C555 C 0.04474 0.27244 0.21996 0.0
C556 C 0.00542 0.22203 0.22557 0.0
C557 C 0.98344 0.2103 0.24766 0.0
C558 C 0.06623 0.2833 0.19596 0.0
C559 C 0.09103 0.33109 0.18654 0.0
C560 C 0.10953 0.34265 0.16212 0.0
C561 C 0.11909 0.38982 0.1526 0.0
C562 C 0.13551 0.40263 0.12978 0.0
C563 C 0.14359 0.36893 0.11575 0.0
H564 H 0.11286 0.27289 0.15507 0.0
C565 C 0.13531 0.32212 0.12535 0.0
C566 C 0.11843 0.30905 0.14829 0.0
H567 H 0.14125 0.29529 0.11507 0.0
H568 H 0.05531 0.32924 0.27232 0.0
H569 H 0.09398 0.34957 0.23417 0.0
H570 H 0.99103 0.19162 0.2127 0.0
H571 H 0.95244 0.17126 0.25114 0.0
H572 H 0.05825 0.2502 0.18535 0.0
H573 H 0.09522 0.36353 0.19663 0.0
H574 H 0.11307 0.41677 0.16276 0.0
H575 H 0.14141 0.43904 0.12313 0.0
C576 C 0.71126 0.97621 0.57916 0.0
C577 C 0.75185 -0.00406 0.59546 0.0
C578 C 0.71942 -0.0035 0.5568 0.0
C579 C 0.76838 0.03768 0.55019 0.0
C580 C 0.80897 0.05717 0.56645 0.0
C581 C 0.80083 0.03674 0.58881 0.0
C582 C 0.77897 0.06054 0.52649 0.0
C583 C 0.74147 0.05654 0.51206 0.0
C584 C 0.75108 0.08067 0.48869 0.0
C585 C 0.71174 0.087 0.4786 0.0
C586 C 0.7183 0.10933 0.45681 0.0
C587 C 0.76441 0.12575 0.4443 0.0
H588 H 0.82786 0.09091 0.48288 0.0
C589 C 0.80364 0.1187 0.45413 0.0
C590 C 0.79707 0.09632 0.47608 0.0
H591 H 0.83952 0.13065 0.44493 0.0
H592 H 0.6729 0.94504 0.58367 0.0
H593 H 0.6873 0.97904 0.54477 0.0
H594 H 0.84723 0.08845 0.56186 0.0
H595 H 0.83326 0.05235 0.60074 0.0
H596 H 0.81934 0.08364 0.52139 0.0
H597 H 0.70155 0.03704 0.51799 0.0
H598 H 0.67574 0.07504 0.48773 0.0
H599 H 0.68706 0.11394 0.44986 0.0
C600 C 0.6911 0.81226 0.78882 0.0
C601 C 0.64733 0.77179 0.77785 0.0
C602 C 0.70779 0.80443 0.81038 0.0
C603 C 0.68087 0.75586 0.82141 0.0
C604 C 0.63786 0.71541 0.81014 0.0
C605 C 0.62118 0.72323 0.78876 0.0
C606 C 0.69622 0.74479 0.84435 0.0
C607 C 0.7265 0.78119 0.85993 0.0
C608 C 0.7386 0.76875 0.88333 0.0
C609 C 0.75456 0.80618 0.90087 0.0
C610 C 0.76549 0.79592 0.92313 0.0
C611 C 0.76105 0.74792 0.92845 0.0
H612 H 0.72465 0.69153 0.8755 0.0
C613 C 0.74593 0.71073 0.9108 0.0
C614 C 0.73514 0.72103 0.88853 0.0
H615 H 0.74182 0.67322 0.91423 0.0
H616 H 0.71229 0.85008 0.78086 0.0
H617 H 0.74195 0.83637 0.8181 0.0
H618 H 0.61652 0.67747 0.81802 0.0
H619 H 0.58747 0.69096 0.78085 0.0
H620 H 0.67883 0.70429 0.84901 0.0
H621 H 0.74059 0.82164 0.85612 0.0
H622 H 0.75822 0.8435 0.89739 0.0
H623 H 0.77797 0.82591 0.93612 0.0
C624 C 0.95015 0.70969 0.25763 0.0
C625 C -0.00601 0.70745 0.26511 0.0
C626 C 0.93089 0.69505 0.2351 0.0
C627 C 0.95509 0.67781 0.21944 0.0
C628 C -0.00148 0.67509 0.22704 0.0
C629 C 0.01784 0.68988 0.24949 0.0
C630 C 0.93547 0.6604 0.19542 0.0
C631 C 0.90436 0.67345 0.18373 0.0
C632 C 0.88573 0.65599 0.1596 0.0
C633 C 0.87039 0.68488 0.14588 0.0
C634 C 0.85295 0.66987 0.12315 0.0
C635 C 0.84995 0.6252 0.11362 0.0
H636 H 0.89128 0.58617 0.16029 0.0
C637 C 0.86425 0.59566 0.12751 0.0
C638 C 0.88171 0.61069 0.15018 0.0
H639 H 0.86209 0.56074 0.12091 0.0
H640 H 0.93089 0.7232 0.26915 0.0
H641 H 0.8966 0.69657 0.23025 0.0
H642 H 0.01773 0.66146 0.21555 0.0
H643 H 0.05111 0.68675 0.25471 0.0
H644 H 0.94942 0.63759 0.18673 0.0
H645 H 0.89395 0.69995 0.19155 0.0
H646 H 0.87246 0.71962 0.15269 0.0
H647 H 0.84213 0.69349 0.11303 0.0
C648 C 0.26614 0.99019 0.58539 0.0
C649 C 0.22342 0.97316 0.60031 0.0
C650 C 0.26003 0.96939 0.56317 0.0
C651 C 0.21074 0.9311 0.55511 0.0
C652 C 0.16826 0.91364 0.57018 0.0
C653 C 0.17441 0.93437 0.59241 0.0
C654 C 0.20188 0.90741 0.53153 0.0
C655 C 0.23653 0.92702 0.5141 0.0
C656 C 0.22875 0.90239 0.4909 0.0
C657 C 0.27292 0.91358 0.47794 0.0
C658 C 0.26825 0.892 0.45608 0.0
C659 C 0.21912 0.85908 0.4463 0.0
H660 H 0.14433 0.86119 0.49028 0.0
C661 C 0.17466 0.84846 0.45902 0.0
C662 C 0.17937 0.86975 0.48113 0.0
H663 H 0.13624 0.82338 0.45199 0.0
H664 H 0.30443 0.0203 0.59073 0.0
H665 H 0.29439 0.9834 0.55266 0.0
H666 H 0.12992 0.88385 0.5647 0.0
H667 H 0.14071 0.91961 0.60349 0.0
H668 H 0.16515 0.87209 0.52858 0.0
H669 H 0.27346 0.96206 0.51685 0.0
H670 H 0.31144 0.93882 0.48486 0.0
H671 H 0.30346 0.90137 0.44682 0.0
loop_
_geom_bond_atom_site_label_1
_geom_bond_atom_site_label_2
_geom_bond_distance
_geom_bond_site_symmetry_2
_ccdc_geom_bond_type
Gd0 C3 2.818 . S
Gd0 O20 2.377 . S
Gd0 O22 2.448 . S
Gd0 O23 2.506 . S
Gd0 O24 2.435 . S
Gd0 O25 2.717 . S
Gd0 O27 2.395 . S
Gd0 O31 2.327 . S
Gd1 C12 2.818 1_554 S
Gd1 O21 2.395 . S
Gd1 O25 2.327 . S
Gd1 O26 2.377 1_554 S
Gd1 O28 2.448 1_554 S
Gd1 O29 2.506 1_554 S
Gd1 O30 2.435 . S
Gd1 O31 2.717 . S
C2 O20 1.240 . S
C2 O21 1.240 . S
C3 Gd0 2.818 . S
C3 C4 1.510 . S
C3 O22 1.249 . S
C3 O23 1.252 . S
C4 C3 1.510 . S
C4 C5 1.404 . S
C4 C6 1.352 . S
C5 C4 1.404 . S
C5 C9 1.389 . S
C5 H32 0.930 . S
C6 C4 1.352 . S
C6 C8 1.374 . S
C6 H33 0.931 . S
C7 C8 1.359 . S
C7 C9 1.364 . S
C8 C6 1.374 . S
C8 C7 1.359 . S
C8 H34 0.931 . S
C9 C5 1.389 . S
C9 C7 1.364 . S
C9 H35 0.931 . S
C10 O24 1.256 . S
C10 O25 1.257 . S
C11 O26 1.240 . S
C11 O27 1.240 1_556 S
C12 Gd1 2.818 1_556 S
C12 C13 1.510 . S
C12 O28 1.249 . S
C12 O29 1.252 . S
C13 C12 1.510 . S
C13 C14 1.404 . S
C13 C15 1.352 . S
C14 C13 1.404 . S
C14 C18 1.389 . S
C14 H36 0.930 . S
C15 C13 1.352 . S
C15 C17 1.374 . S
C15 H37 0.931 . S
C16 C17 1.359 . S
C16 C18 1.364 . S
C17 C15 1.374 . S
C17 C16 1.359 . S
C17 H38 0.931 . S
C18 C14 1.389 . S
C18 C16 1.364 . S
C18 H39 0.931 . S
C19 O30 1.256 . S
C19 O31 1.257 . S
O20 Gd0 2.377 . S
O20 C2 1.240 . S
O21 Gd1 2.395 . S
O21 C2 1.240 . S
O22 Gd0 2.448 . S
O22 C3 1.249 . S
O23 Gd0 2.506 . S
O23 C3 1.252 . S
O24 Gd0 2.435 . S
O24 C10 1.256 . S
O25 Gd0 2.717 . S
O25 Gd1 2.327 . S
O25 C10 1.257 . S
O26 Gd1 2.377 1_556 S
O26 C11 1.240 . S
O27 Gd0 2.395 . S
O27 C11 1.240 1_554 S
O28 Gd1 2.448 1_556 S
O28 C12 1.249 . S
O29 Gd1 2.506 1_556 S
O29 C12 1.252 . S
O30 Gd1 2.435 . S
O30 C19 1.256 . S
O31 Gd0 2.327 . S
O31 Gd1 2.717 . S
O31 C19 1.257 . S
H32 C5 0.930 . S
H33 C6 0.931 . S
H34 C8 0.931 . S
H35 C9 0.931 . S
H36 C14 0.930 . S
H37 C15 0.931 . S
H38 C17 0.931 . S
H39 C18 0.931 . S
Gd40 C43 2.818 . S
Gd40 O60 2.377 . S
Gd40 O62 2.448 . S
Gd40 O63 2.506 . S
Gd40 O64 2.435 . S
Gd40 O65 2.717 . S
Gd40 O67 2.395 . S
Gd40 O71 2.327 . S
Gd41 C52 2.818 . S
Gd41 O61 2.395 . S
Gd41 O65 2.327 . S
Gd41 O66 2.377 . S
Gd41 O68 2.448 . S
Gd41 O69 2.506 . S
Gd41 O70 2.435 . S
Gd41 O71 2.717 . S
C42 O60 1.240 . S
C42 O61 1.240 . S
C43 Gd40 2.818 . S
C43 C44 1.510 . S
C43 O62 1.249 . S
C43 O63 1.252 . S
C44 C43 1.510 . S
C44 C45 1.404 . S
C44 C46 1.352 . S
C45 C44 1.404 . S
C45 C49 1.389 . S
C45 H72 0.930 . S
C46 C44 1.352 . S
C46 C48 1.374 . S
C46 H73 0.931 . S
C47 C48 1.359 . S
C47 C49 1.364 . S
C48 C46 1.374 . S
C48 C47 1.359 . S
C48 H74 0.931 . S
C49 C45 1.389 . S
C49 C47 1.364 . S
C49 H75 0.931 . S
C50 O64 1.256 . S
C50 O65 1.257 . S
C51 O66 1.240 . S
C51 O67 1.240 . S
C52 Gd41 2.818 . S
C52 C53 1.510 . S
C52 O68 1.249 . S
C52 O69 1.252 . S
C53 C52 1.510 . S
C53 C54 1.404 . S
C53 C55 1.352 . S
C54 C53 1.404 . S
C54 C58 1.389 . S
C54 H76 0.930 . S
C55 C53 1.352 . S
C55 C57 1.374 . S
C55 H77 0.931 . S
C56 C57 1.359 . S
C56 C58 1.364 . S
C57 C55 1.374 . S
C57 C56 1.359 . S
C57 H78 0.931 . S
C58 C54 1.389 . S
C58 C56 1.364 . S
C58 H79 0.931 . S
C59 O70 1.256 . S
C59 O71 1.257 . S
O60 Gd40 2.377 . S
O60 C42 1.240 . S
O61 Gd41 2.395 . S
O61 C42 1.240 . S
O62 Gd40 2.448 . S
O62 C43 1.249 . S
O63 Gd40 2.506 . S
O63 C43 1.252 . S
O64 Gd40 2.435 . S
O64 C50 1.256 . S
O65 Gd40 2.717 . S
O65 Gd41 2.327 . S
O65 C50 1.257 . S
O66 Gd41 2.377 . S
O66 C51 1.240 . S
O67 Gd40 2.395 . S
O67 C51 1.240 . S
O68 Gd41 2.448 . S
O68 C52 1.249 . S
O69 Gd41 2.506 . S
O69 C52 1.252 . S
O70 Gd41 2.435 . S
O70 C59 1.256 . S
O71 Gd40 2.327 . S
O71 Gd41 2.717 . S
O71 C59 1.257 . S
H72 C45 0.930 . S
H73 C46 0.931 . S
H74 C48 0.931 . S
H75 C49 0.931 . S
H76 C54 0.930 . S
H77 C55 0.931 . S
H78 C57 0.931 . S
H79 C58 0.931 . S
Gd80 C83 2.818 . S
Gd80 O100 2.377 . S
Gd80 O102 2.448 . S
Gd80 O103 2.506 . S
Gd80 O104 2.435 . S
Gd80 O105 2.717 . S
Gd80 O107 2.395 . S
Gd80 O111 2.327 . S
Gd81 C92 2.818 . S
Gd81 O101 2.395 . S
Gd81 O105 2.327 . S
Gd81 O106 2.377 . S
Gd81 O108 2.448 . S
Gd81 O109 2.506 . S
Gd81 O110 2.435 . S
Gd81 O111 2.717 . S
C82 O100 1.240 . S
C82 O101 1.240 . S
C83 Gd80 2.818 . S
C83 C84 1.510 . S
C83 O102 1.249 . S
C83 O103 1.252 . S
C84 C83 1.510 . S
C84 C85 1.404 . S
C84 C86 1.352 . S
C85 C84 1.404 . S
C85 C89 1.389 . S
C85 H112 0.930 . S
C86 C84 1.352 . S
C86 C88 1.374 . S
C86 H113 0.931 . S
C87 C88 1.359 . S
C87 C89 1.364 . S
C88 C86 1.374 . S
C88 C87 1.359 . S
C88 H114 0.931 . S
C89 C85 1.389 . S
C89 C87 1.364 . S
C89 H115 0.931 . S
C90 O104 1.256 . S
C90 O105 1.257 . S
C91 O106 1.240 . S
C91 O107 1.240 . S
C92 Gd81 2.818 . S
C92 C93 1.510 . S
C92 O108 1.249 . S
C92 O109 1.252 . S
C93 C92 1.510 . S
C93 C94 1.404 . S
C93 C95 1.352 . S
C94 C93 1.404 . S
C94 C98 1.389 . S
C94 H116 0.930 . S
C95 C93 1.352 . S
C95 C97 1.374 . S
C95 H117 0.931 . S
C96 C97 1.359 . S
C96 C98 1.364 . S
C97 C95 1.374 . S
C97 C96 1.359 . S
C97 H118 0.931 . S
C98 C94 1.389 . S
C98 C96 1.364 . S
C98 H119 0.931 . S
C99 O110 1.256 . S
C99 O111 1.257 . S
O100 Gd80 2.377 . S
O100 C82 1.240 . S
O101 Gd81 2.395 . S
O101 C82 1.240 . S
O102 Gd80 2.448 . S
O102 C83 1.249 . S
O103 Gd80 2.506 . S
O103 C83 1.252 . S
O104 Gd80 2.435 . S
O104 C90 1.256 . S
O105 Gd80 2.717 . S
O105 Gd81 2.327 . S
O105 C90 1.257 . S
O106 Gd81 2.377 . S
O106 C91 1.240 . S
O107 Gd80 2.395 . S
O107 C91 1.240 . S
O108 Gd81 2.448 . S
O108 C92 1.249 . S
O109 Gd81 2.506 . S
O109 C92 1.252 . S
O110 Gd81 2.435 . S
O110 C99 1.256 . S
O111 Gd80 2.327 . S
O111 Gd81 2.717 . S
O111 C99 1.257 . S
H112 C85 0.930 . S
H113 C86 0.931 . S
H114 C88 0.931 . S
H115 C89 0.931 . S
H116 C94 0.930 . S
H117 C95 0.931 . S
H118 C97 0.931 . S
H119 C98 0.931 . S
Gd120 C123 2.818 . S
Gd120 O140 2.377 . S
Gd120 O142 2.448 . S
Gd120 O143 2.506 . S
Gd120 O144 2.435 . S
Gd120 O145 2.717 . S
Gd120 O147 2.395 . S
Gd120 O151 2.327 . S
Gd121 C132 2.818 1_554 S
Gd121 O141 2.395 . S
Gd121 O145 2.327 . S
Gd121 O146 2.377 1_554 S
Gd121 O148 2.448 1_554 S
Gd121 O149 2.506 1_554 S
Gd121 O150 2.435 . S
Gd121 O151 2.717 . S
C122 O140 1.240 . S
C122 O141 1.240 . S
C123 Gd120 2.818 . S
C123 C124 1.510 . S
C123 O142 1.249 . S
C123 O143 1.252 . S
C124 C123 1.510 . S
C124 C125 1.404 . S
C124 C126 1.352 . S
C125 C124 1.404 . S
C125 C129 1.389 . S
C125 H152 0.930 . S
C126 C124 1.352 . S
C126 C128 1.374 . S
C126 H153 0.931 . S
C127 C128 1.359 . S
C127 C129 1.364 . S
C128 C126 1.374 . S
C128 C127 1.359 . S
C128 H154 0.931 . S
C129 C125 1.389 . S
C129 C127 1.364 . S
C129 H155 0.931 . S
C130 O144 1.256 . S
C130 O145 1.257 . S
C131 O146 1.240 . S
C131 O147 1.240 1_556 S
C132 Gd121 2.818 1_556 S
C132 C133 1.510 . S
C132 O148 1.249 . S
C132 O149 1.252 . S
C133 C132 1.510 . S
C133 C134 1.404 . S
C133 C135 1.352 . S
C134 C133 1.404 . S
C134 C138 1.389 . S
C134 H156 0.930 . S
C135 C133 1.352 . S
C135 C137 1.374 . S
C135 H157 0.931 . S
C136 C137 1.359 . S
C136 C138 1.364 . S
C137 C135 1.374 . S
C137 C136 1.359 . S
C137 H158 0.931 . S
C138 C134 1.389 . S
C138 C136 1.364 . S
C138 H159 0.931 . S
C139 O150 1.256 . S
C139 O151 1.257 . S
O140 Gd120 2.377 . S
O140 C122 1.240 . S
O141 Gd121 2.395 . S
O141 C122 1.240 . S
O142 Gd120 2.448 . S
O142 C123 1.249 . S
O143 Gd120 2.506 . S
O143 C123 1.252 . S
O144 Gd120 2.435 . S
O144 C130 1.256 . S
O145 Gd120 2.717 . S
O145 Gd121 2.327 . S
O145 C130 1.257 . S
O146 Gd121 2.377 1_556 S
O146 C131 1.240 . S
O147 Gd120 2.395 . S
O147 C131 1.240 1_554 S
O148 Gd121 2.448 1_556 S
O148 C132 1.249 . S
O149 Gd121 2.506 1_556 S
O149 C132 1.252 . S
O150 Gd121 2.435 . S
O150 C139 1.256 . S
O151 Gd120 2.327 . S
O151 Gd121 2.717 . S
O151 C139 1.257 . S
H152 C125 0.930 . S
H153 C126 0.931 . S
H154 C128 0.931 . S
H155 C129 0.931 . S
H156 C134 0.930 . S
H157 C135 0.931 . S
H158 C137 0.931 . S
H159 C138 0.931 . S
Gd160 C163 2.818 . S
Gd160 O180 2.377 . S
Gd160 O182 2.448 . S
Gd160 O183 2.506 . S
Gd160 O184 2.435 . S
Gd160 O185 2.717 . S
Gd160 O187 2.395 . S
Gd160 O191 2.327 . S
Gd161 C172 2.818 . S
Gd161 O181 2.395 . S
Gd161 O185 2.327 . S
Gd161 O186 2.377 . S
Gd161 O188 2.448 . S
Gd161 O189 2.506 . S
Gd161 O190 2.435 . S
Gd161 O191 2.717 . S
C162 O180 1.240 . S
C162 O181 1.240 . S
C163 Gd160 2.818 . S
C163 C164 1.510 . S
C163 O182 1.249 . S
C163 O183 1.252 . S
C164 C163 1.510 . S
C164 C165 1.404 . S
C164 C166 1.352 . S
C165 C164 1.404 . S
C165 C169 1.389 . S
C165 H192 0.930 . S
C166 C164 1.352 . S
C166 C168 1.374 . S
C166 H193 0.931 . S
C167 C168 1.359 . S
C167 C169 1.364 . S
C168 C166 1.374 . S
C168 C167 1.359 . S
C168 H194 0.931 . S
C169 C165 1.389 . S
C169 C167 1.364 . S
C169 H195 0.931 . S
C170 O184 1.256 . S
C170 O185 1.257 . S
C171 O186 1.240 . S
C171 O187 1.240 . S
C172 Gd161 2.818 . S
C172 C173 1.510 . S
C172 O188 1.249 . S
C172 O189 1.252 . S
C173 C172 1.510 . S
C173 C174 1.404 . S
C173 C175 1.352 . S
C174 C173 1.404 . S
C174 C178 1.389 . S
C174 H196 0.930 . S
C175 C173 1.352 . S
C175 C177 1.374 . S
C175 H197 0.931 . S
C176 C177 1.359 . S
C176 C178 1.364 . S
C177 C175 1.374 . S
C177 C176 1.359 . S
C177 H198 0.931 . S
C178 C174 1.389 . S
C178 C176 1.364 . S
C178 H199 0.931 . S
C179 O190 1.256 . S
C179 O191 1.257 . S
O180 Gd160 2.377 . S
O180 C162 1.240 . S
O181 Gd161 2.395 . S
O181 C162 1.240 . S
O182 Gd160 2.448 . S
O182 C163 1.249 . S
O183 Gd160 2.506 . S
O183 C163 1.252 . S
O184 Gd160 2.435 . S
O184 C170 1.256 . S
O185 Gd160 2.717 . S
O185 Gd161 2.327 . S
O185 C170 1.257 . S
O186 Gd161 2.377 . S
O186 C171 1.240 . S
O187 Gd160 2.395 . S
O187 C171 1.240 . S
O188 Gd161 2.448 . S
O188 C172 1.249 . S
O189 Gd161 2.506 . S
O189 C172 1.252 . S
O190 Gd161 2.435 . S
O190 C179 1.256 . S
O191 Gd160 2.327 . S
O191 Gd161 2.717 . S
O191 C179 1.257 . S
H192 C165 0.930 . S
H193 C166 0.931 . S
H194 C168 0.931 . S
H195 C169 0.931 . S
H196 C174 0.930 . S
H197 C175 0.931 . S
H198 C177 0.931 . S
H199 C178 0.931 . S
Gd200 C203 2.818 . S
Gd200 O220 2.377 . S
Gd200 O222 2.448 . S
Gd200 O223 2.506 . S
Gd200 O224 2.435 . S
Gd200 O225 2.717 . S
Gd200 O227 2.395 . S
Gd200 O231 2.327 . S
Gd201 C212 2.818 . S
Gd201 O221 2.395 . S
Gd201 O225 2.327 . S
Gd201 O226 2.377 . S
Gd201 O228 2.448 . S
Gd201 O229 2.506 . S
Gd201 O230 2.435 . S
Gd201 O231 2.717 . S
C202 O220 1.240 . S
C202 O221 1.240 . S
C203 Gd200 2.818 . S
C203 C204 1.510 . S
C203 O222 1.249 . S
C203 O223 1.252 . S
C204 C203 1.510 . S
C204 C205 1.404 . S
C204 C206 1.352 . S
C205 C204 1.404 . S
C205 C209 1.389 . S
C205 H232 0.930 . S
C206 C204 1.352 . S
C206 C208 1.374 . S
C206 H233 0.931 . S
C207 C208 1.359 . S
C207 C209 1.364 . S
C208 C206 1.374 . S
C208 C207 1.359 . S
C208 H234 0.931 . S
C209 C205 1.389 . S
C209 C207 1.364 . S
C209 H235 0.931 . S
C210 O224 1.256 . S
C210 O225 1.257 . S
C211 O226 1.240 . S
C211 O227 1.240 . S
C212 Gd201 2.818 . S
C212 C213 1.510 . S
C212 O228 1.249 . S
C212 O229 1.252 . S
C213 C212 1.510 . S
C213 C214 1.404 . S
C213 C215 1.352 . S
C214 C213 1.404 . S
C214 C218 1.389 . S
C214 H236 0.930 . S
C215 C213 1.352 . S
C215 C217 1.374 . S
C215 H237 0.931 . S
C216 C217 1.359 . S
C216 C218 1.364 . S
C217 C215 1.374 . S
C217 C216 1.359 . S
C217 H238 0.931 . S
C218 C214 1.389 . S
C218 C216 1.364 . S
C218 H239 0.931 . S
C219 O230 1.256 . S
C219 O231 1.257 . S
O220 Gd200 2.377 . S
O220 C202 1.240 . S
O221 Gd201 2.395 . S
O221 C202 1.240 . S
O222 Gd200 2.448 . S
O222 C203 1.249 . S
O223 Gd200 2.506 . S
O223 C203 1.252 . S
O224 Gd200 2.435 . S
O224 C210 1.256 . S
O225 Gd200 2.717 . S
O225 Gd201 2.327 . S
O225 C210 1.257 . S
O226 Gd201 2.377 . S
O226 C211 1.240 . S
O227 Gd200 2.395 . S
O227 C211 1.240 . S
O228 Gd201 2.448 . S
O228 C212 1.249 . S
O229 Gd201 2.506 . S
O229 C212 1.252 . S
O230 Gd201 2.435 . S
O230 C219 1.256 . S
O231 Gd200 2.327 . S
O231 Gd201 2.717 . S
O231 C219 1.257 . S
H232 C205 0.930 . S
H233 C206 0.931 . S
H234 C208 0.931 . S
H235 C209 0.931 . S
H236 C214 0.930 . S
H237 C215 0.931 . S
H238 C217 0.931 . S
H239 C218 0.931 . S
C240 C241 1.386 . S
C240 C242 1.383 . S
C240 H256 0.951 . S
C241 C240 1.386 . S
C241 C245 1.383 . S
C242 C240 1.383 . S
C242 C243 1.402 . S
C242 H257 0.951 . S
C243 C242 1.402 . S
C243 C244 1.375 . S
C243 C246 1.481 . S
C244 C243 1.375 . S
C244 C245 1.367 . S
C244 H258 0.951 . S
C245 C241 1.383 . S
C245 C244 1.367 . S
C245 H259 0.950 . S
C246 C243 1.481 . S
C246 C247 1.297 . S
C246 H260 0.950 . S
C247 C246 1.297 . S
C247 C248 1.479 . S
C247 H261 0.950 . S
C248 C247 1.479 . S
C248 C249 1.375 . S
C248 C254 1.404 . S
C249 C248 1.375 . S
C249 C250 1.369 . S
C249 H262 0.950 . S
C250 C249 1.369 . S
C250 C251 1.392 . S
C250 H263 0.951 . S
C251 C250 1.392 . S
C251 C253 1.384 . S
H252 C254 0.949 . S
C253 C251 1.384 . S
C253 C254 1.385 . S
C253 H255 0.950 . S
C254 C248 1.404 . S
C254 H252 0.949 . S
C254 C253 1.385 . S
H255 C253 0.950 . S
H256 C240 0.951 . S
H257 C242 0.951 . S
H258 C244 0.951 . S
H259 C245 0.950 . S
H260 C246 0.950 . S
H261 C247 0.950 . S
H262 C249 0.950 . S
H263 C250 0.951 . S
C264 C265 1.386 . S
C264 C266 1.383 . S
C264 H280 0.951 . S
C265 C264 1.386 . S
C265 C269 1.383 . S
C266 C264 1.383 . S
C266 C267 1.402 . S
C266 H281 0.951 . S
C267 C266 1.402 . S
C267 C268 1.375 . S
C267 C270 1.481 . S
C268 C267 1.375 . S
C268 C269 1.367 . S
C268 H282 0.951 . S
C269 C265 1.383 . S
C269 C268 1.367 . S
C269 H283 0.950 . S
C270 C267 1.481 . S
C270 C271 1.297 . S
C270 H284 0.950 . S
C271 C270 1.297 . S
C271 C272 1.479 . S
C271 H285 0.950 . S
C272 C271 1.479 . S
C272 C273 1.375 . S
C272 C278 1.404 . S
C273 C272 1.375 . S
C273 C274 1.369 . S
C273 H286 0.950 . S
C274 C273 1.369 . S
C274 C275 1.392 . S
C274 H287 0.951 . S
C275 C274 1.392 . S
C275 C277 1.384 . S
H276 C278 0.949 . S
C277 C275 1.384 . S
C277 C278 1.385 . S
C277 H279 0.950 . S
C278 C272 1.404 . S
C278 H276 0.949 . S
C278 C277 1.385 . S
H279 C277 0.950 . S
H280 C264 0.951 . S
H281 C266 0.951 . S
H282 C268 0.951 . S
H283 C269 0.950 . S
H284 C270 0.950 . S
H285 C271 0.950 . S
H286 C273 0.950 . S
H287 C274 0.951 . S
C288 C289 1.386 . S
C288 C290 1.383 . S
C288 H304 0.951 . S
C289 C288 1.386 . S
C289 C293 1.383 . S
C290 C288 1.383 . S
C290 C291 1.402 . S
C290 H305 0.951 . S
C291 C290 1.402 . S
C291 C292 1.375 . S
C291 C294 1.481 . S
C292 C291 1.375 . S
C292 C293 1.367 . S
C292 H306 0.951 . S
C293 C289 1.383 . S
C293 C292 1.367 . S
C293 H307 0.950 . S
C294 C291 1.481 . S
C294 C295 1.297 . S
C294 H308 0.950 . S
C295 C294 1.297 . S
C295 C296 1.479 . S
C295 H309 0.950 . S
C296 C295 1.479 . S
C296 C297 1.375 . S
C296 C302 1.404 . S
C297 C296 1.375 . S
C297 C298 1.369 . S
C297 H310 0.950 . S
C298 C297 1.369 . S
C298 C299 1.392 . S
C298 H311 0.951 . S
C299 C298 1.392 . S
C299 C301 1.384 . S
H300 C302 0.949 . S
C301 C299 1.384 . S
C301 C302 1.385 . S
C301 H303 0.950 . S
C302 C296 1.404 . S
C302 H300 0.949 . S
C302 C301 1.385 . S
H303 C301 0.950 . S
H304 C288 0.951 . S
H305 C290 0.951 . S
H306 C292 0.951 . S
H307 C293 0.950 . S
H308 C294 0.950 . S
H309 C295 0.950 . S
H310 C297 0.950 . S
H311 C298 0.951 . S
C312 C313 1.386 . S
C312 C314 1.383 . S
C312 H328 0.951 . S
C313 C312 1.386 . S
C313 C317 1.383 . S
C314 C312 1.383 . S
C314 C315 1.402 . S
C314 H329 0.951 . S
C315 C314 1.402 . S
C315 C316 1.375 . S
C315 C318 1.481 . S
C316 C315 1.375 . S
C316 C317 1.367 . S
C316 H330 0.951 . S
C317 C313 1.383 . S
C317 C316 1.367 . S
C317 H331 0.950 . S
C318 C315 1.481 . S
C318 C319 1.297 . S
C318 H332 0.950 . S
C319 C318 1.297 . S
C319 C320 1.479 . S
C319 H333 0.950 . S
C320 C319 1.479 . S
C320 C321 1.375 . S
C320 C326 1.404 . S
C321 C320 1.375 . S
C321 C322 1.369 . S
C321 H334 0.950 . S
C322 C321 1.369 . S
C322 C323 1.392 . S
C322 H335 0.951 . S
C323 C322 1.392 . S
C323 C325 1.384 . S
H324 C326 0.949 . S
C325 C323 1.384 . S
C325 C326 1.385 . S
C325 H327 0.950 . S
C326 C320 1.404 . S
C326 H324 0.949 . S
C326 C325 1.385 . S
H327 C325 0.950 . S
H328 C312 0.951 . S
H329 C314 0.951 . S
H330 C316 0.951 . S
H331 C317 0.950 . S
H332 C318 0.950 . S
H333 C319 0.950 . S
H334 C321 0.950 . S
H335 C322 0.951 . S
C336 C337 1.386 . S
C336 C338 1.383 . S
C336 H352 0.951 . S
C337 C336 1.386 . S
C337 C341 1.383 . S
C338 C336 1.383 . S
C338 C339 1.402 . S
C338 H353 0.951 . S
C339 C338 1.402 . S
C339 C340 1.375 . S
C339 C342 1.481 . S
C340 C339 1.375 . S
C340 C341 1.367 . S
C340 H354 0.951 . S
C341 C337 1.383 . S
C341 C340 1.367 . S
C341 H355 0.950 . S
C342 C339 1.481 . S
C342 C343 1.297 . S
C342 H356 0.950 . S
C343 C342 1.297 . S
C343 C344 1.479 . S
C343 H357 0.950 . S
C344 C343 1.479 . S
C344 C345 1.375 . S
C344 C350 1.404 . S
C345 C344 1.375 . S
C345 C346 1.369 . S
C345 H358 0.950 . S
C346 C345 1.369 . S
C346 C347 1.392 . S
C346 H359 0.951 . S
C347 C346 1.392 . S
C347 C349 1.384 . S
H348 C350 0.949 . S
C349 C347 1.384 . S
C349 C350 1.385 . S
C349 H351 0.950 . S
C350 C344 1.404 . S
C350 H348 0.949 . S
C350 C349 1.385 . S
H351 C349 0.950 . S
H352 C336 0.951 . S
H353 C338 0.951 . S
H354 C340 0.951 . S
H355 C341 0.950 . S
H356 C342 0.950 . S
H357 C343 0.950 . S
H358 C345 0.950 . S
H359 C346 0.951 . S
C360 C361 1.386 . S
C360 C362 1.383 . S
C360 H376 0.951 . S
C361 C360 1.386 . S
C361 C365 1.383 . S
C362 C360 1.383 . S
C362 C363 1.402 . S
C362 H377 0.951 . S
C363 C362 1.402 . S
C363 C364 1.375 . S
C363 C366 1.481 . S
C364 C363 1.375 . S
C364 C365 1.367 . S
C364 H378 0.951 . S
C365 C361 1.383 . S
C365 C364 1.367 . S
C365 H379 0.950 . S
C366 C363 1.481 . S
C366 C367 1.297 . S
C366 H380 0.950 . S
C367 C366 1.297 . S
C367 C368 1.479 . S
C367 H381 0.950 . S
C368 C367 1.479 . S
C368 C369 1.375 . S
C368 C374 1.404 . S
C369 C368 1.375 . S
C369 C370 1.369 . S
C369 H382 0.950 . S
C370 C369 1.369 . S
C370 C371 1.392 . S
C370 H383 0.951 . S
C371 C370 1.392 . S
C371 C373 1.384 . S
H372 C374 0.949 . S
C373 C371 1.384 . S
C373 C374 1.385 . S
C373 H375 0.950 . S
C374 C368 1.404 . S
C374 H372 0.949 . S
C374 C373 1.385 . S
H375 C373 0.950 . S
H376 C360 0.951 . S
H377 C362 0.951 . S
H378 C364 0.951 . S
H379 C365 0.950 . S
H380 C366 0.950 . S
H381 C367 0.950 . S
H382 C369 0.950 . S
H383 C370 0.951 . S
C384 C385 1.386 . S
C384 C386 1.383 . S
C384 H400 0.951 . S
C385 C384 1.386 . S
C385 C389 1.383 . S
C386 C384 1.383 . S
C386 C387 1.402 . S
C386 H401 0.951 . S
C387 C386 1.402 . S
C387 C388 1.375 . S
C387 C390 1.481 . S
C388 C387 1.375 . S
C388 C389 1.367 . S
C388 H402 0.951 . S
C389 C385 1.383 . S
C389 C388 1.367 . S
C389 H403 0.950 . S
C390 C387 1.481 . S
C390 C391 1.297 . S
C390 H404 0.950 . S
C391 C390 1.297 . S
C391 C392 1.479 . S
C391 H405 0.950 . S
C392 C391 1.479 . S
C392 C393 1.375 . S
C392 C398 1.404 . S
C393 C392 1.375 . S
C393 C394 1.369 . S
C393 H406 0.950 . S
C394 C393 1.369 . S
C394 C395 1.392 . S
C394 H407 0.951 . S
C395 C394 1.392 . S
C395 C397 1.384 . S
H396 C398 0.949 . S
C397 C395 1.384 . S
C397 C398 1.385 . S
C397 H399 0.950 . S
C398 C392 1.404 . S
C398 H396 0.949 . S
C398 C397 1.385 . S
H399 C397 0.950 . S
H400 C384 0.951 . S
H401 C386 0.951 . S
H402 C388 0.951 . S
H403 C389 0.950 . S
H404 C390 0.950 . S
H405 C391 0.950 . S
H406 C393 0.950 . S
H407 C394 0.951 . S
C408 C409 1.386 . S
C408 C410 1.383 . S
C408 H424 0.951 . S
C409 C408 1.386 . S
C409 C413 1.383 . S
C410 C408 1.383 . S
C410 C411 1.402 . S
C410 H425 0.951 . S
C411 C410 1.402 . S
C411 C412 1.375 . S
C411 C414 1.481 . S
C412 C411 1.375 . S
C412 C413 1.367 . S
C412 H426 0.951 . S
C413 C409 1.383 . S
C413 C412 1.367 . S
C413 H427 0.950 . S
C414 C411 1.481 . S
C414 C415 1.297 . S
C414 H428 0.951 1_455 S
C415 C414 1.297 . S
C415 C416 1.479 1_455 S
C415 H429 0.950 . S
C416 C415 1.479 1_655 S
C416 C417 1.375 . S
C416 C422 1.404 . S
C417 C416 1.375 . S
C417 C418 1.369 . S
C417 H430 0.950 . S
C418 C417 1.369 . S
C418 C419 1.392 . S
C418 H431 0.951 . S
C419 C418 1.392 . S
C419 C421 1.384 . S
H420 C422 0.949 . S
C421 C419 1.384 . S
C421 C422 1.385 . S
C421 H423 0.950 . S
C422 C416 1.404 . S
C422 H420 0.949 . S
C422 C421 1.385 . S
H423 C421 0.950 . S
H424 C408 0.951 . S
H425 C410 0.951 . S
H426 C412 0.951 . S
H427 C413 0.950 . S
H428 C414 0.951 1_655 S
H429 C415 0.950 . S
H430 C417 0.950 . S
H431 C418 0.951 . S
C432 C433 1.386 . S
C432 C434 1.383 . S
C432 H448 0.951 . S
C433 C432 1.386 . S
C433 C437 1.383 . S
C434 C432 1.383 . S
C434 C435 1.402 . S
C434 H449 0.951 . S
C435 C434 1.402 . S
C435 C436 1.375 . S
C435 C438 1.481 1_545 S
C436 C435 1.375 . S
C436 C437 1.367 . S
C436 H450 0.951 1_545 S
C437 C433 1.383 . S
C437 C436 1.367 . S
C437 H451 0.950 . S
C438 C435 1.481 1_565 S
C438 C439 1.297 . S
C438 H452 0.950 . S
C439 C438 1.297 . S
C439 C440 1.479 . S
C439 H453 0.950 1_565 S
C440 C439 1.479 . S
C440 C441 1.375 . S
C440 C446 1.404 . S
C441 C440 1.375 . S
C441 C442 1.369 . S
C441 H454 0.950 1_565 S
C442 C441 1.369 . S
C442 C443 1.392 . S
C442 H455 0.951 . S
C443 C442 1.392 . S
C443 C445 1.384 . S
H444 C446 0.949 . S
C445 C443 1.384 . S
C445 C446 1.385 . S
C445 H447 0.950 . S
C446 C440 1.404 . S
C446 H444 0.949 . S
C446 C445 1.385 . S
H447 C445 0.950 . S
H448 C432 0.951 . S
H449 C434 0.951 . S
H450 C436 0.951 1_565 S
H451 C437 0.950 . S
H452 C438 0.950 . S
H453 C439 0.950 1_545 S
H454 C441 0.950 1_545 S
H455 C442 0.951 . S
C456 C457 1.386 . S
C456 C458 1.383 . S
C456 H472 0.951 . S
C457 C456 1.386 . S
C457 C461 1.383 . S
C458 C456 1.383 . S
C458 C459 1.402 . S
C458 H473 0.951 . S
C459 C458 1.402 . S
C459 C460 1.375 . S
C459 C462 1.481 . S
C460 C459 1.375 . S
C460 C461 1.367 . S
C460 H474 0.951 . S
C461 C457 1.383 . S
C461 C460 1.367 . S
C461 H475 0.950 . S
C462 C459 1.481 . S
C462 C463 1.297 . S
C462 H476 0.950 . S
C463 C462 1.297 . S
C463 C464 1.479 . S
C463 H477 0.950 . S
C464 C463 1.479 . S
C464 C465 1.375 . S
C464 C470 1.404 . S
C465 C464 1.375 . S
C465 C466 1.369 . S
C465 H478 0.950 . S
C466 C465 1.369 . S
C466 C467 1.392 . S
C466 H479 0.951 . S
C467 C466 1.392 . S
C467 C469 1.384 . S
H468 C470 0.949 . S
C469 C467 1.384 . S
C469 C470 1.385 . S
C469 H471 0.950 . S
C470 C464 1.404 . S
C470 H468 0.949 . S
C470 C469 1.385 . S
H471 C469 0.950 . S
H472 C456 0.951 . S
H473 C458 0.951 . S
H474 C460 0.951 . S
H475 C461 0.950 . S
H476 C462 0.950 . S
H477 C463 0.950 . S
H478 C465 0.950 . S
H479 C466 0.951 . S
C480 C481 1.386 . S
C480 C482 1.383 . S
C480 H496 0.951 . S
C481 C480 1.386 . S
C481 C485 1.383 . S
C482 C480 1.383 . S
C482 C483 1.402 . S
C482 H497 0.951 . S
C483 C482 1.402 . S
C483 C484 1.371 1_554 S
C483 C486 1.481 . S
C484 C483 1.371 1_556 S
C484 C485 1.366 1_556 S
C484 H498 0.956 . S
C485 C481 1.383 . S
C485 C484 1.366 1_554 S
C485 H499 0.950 1_554 S
C486 C483 1.481 . S
C486 C487 1.297 . S
C486 H500 0.950 . S
C487 C486 1.297 . S
C487 C488 1.479 1_455 S
C487 H501 0.950 . S
C488 C487 1.479 1_655 S
C488 C489 1.375 . S
C488 C494 1.404 . S
C489 C488 1.375 . S
C489 C490 1.369 . S
C489 H502 0.950 . S
C490 C489 1.369 . S
C490 C491 1.392 . S
C490 H503 0.951 . S
C491 C490 1.392 . S
C491 C493 1.384 . S
H492 C494 0.952 1_556 S
C493 C491 1.384 . S
C493 C494 1.385 . S
C493 H495 0.950 1_554 S
C494 C488 1.404 . S
C494 H492 0.952 1_554 S
C494 C493 1.385 . S
H495 C493 0.950 1_556 S
H496 C480 0.951 . S
H497 C482 0.951 . S
H498 C484 0.956 . S
H499 C485 0.950 1_556 S
H500 C486 0.950 . S
H501 C487 0.950 . S
H502 C489 0.950 . S
H503 C490 0.951 . S
C504 C505 1.386 . S
C504 C506 1.383 . S
C504 H520 0.951 . S
C505 C504 1.386 . S
C505 C509 1.383 . S
C506 C504 1.383 . S
C506 C507 1.402 . S
C506 H521 0.951 . S
C507 C506 1.402 . S
C507 C508 1.375 . S
C507 C510 1.481 . S
C508 C507 1.375 . S
C508 C509 1.367 . S
C508 H522 0.951 . S
C509 C505 1.383 . S
C509 C508 1.367 . S
C509 H523 0.950 . S
C510 C507 1.481 . S
C510 C511 1.297 . S
C510 H524 0.950 1_565 S
C511 C510 1.297 . S
C511 C512 1.479 1_565 S
C511 H525 0.950 . S
C512 C511 1.479 1_545 S
C512 C513 1.375 . S
C512 C518 1.404 . S
C513 C512 1.375 . S
C513 C514 1.369 . S
C513 H526 0.946 1_545 S
C514 C513 1.369 . S
C514 C515 1.392 . S
C514 H527 0.951 . S
C515 C514 1.392 . S
C515 C517 1.384 . S
H516 C518 0.949 . S
C517 C515 1.384 . S
C517 C518 1.385 . S
C517 H519 0.950 . S
C518 C512 1.404 . S
C518 H516 0.949 . S
C518 C517 1.385 . S
H519 C517 0.950 . S
H520 C504 0.951 . S
H521 C506 0.951 . S
H522 C508 0.951 . S
H523 C509 0.950 . S
H524 C510 0.950 1_545 S
H525 C511 0.950 . S
H526 C513 0.946 1_565 S
H527 C514 0.951 . S
C528 C529 1.386 . S
C528 C530 1.383 . S
C528 H544 0.951 . S
C529 C528 1.386 . S
C529 C533 1.383 . S
C530 C528 1.383 . S
C530 C531 1.402 . S
C530 H545 0.951 . S
C531 C530 1.402 . S
C531 C532 1.375 . S
C531 C534 1.481 . S
C532 C531 1.375 . S
C532 C533 1.367 . S
C532 H546 0.951 . S
C533 C529 1.383 . S
C533 C532 1.367 . S
C533 H547 0.950 . S
C534 C531 1.481 . S
C534 C535 1.297 . S
C534 H548 0.950 . S
C535 C534 1.297 . S
C535 C536 1.479 . S
C535 H549 0.950 . S
C536 C535 1.479 . S
C536 C537 1.375 . S
C536 C542 1.404 . S
C537 C536 1.375 . S
C537 C538 1.369 . S
C537 H550 0.950 . S
C538 C537 1.369 . S
C538 C539 1.392 . S
C538 H551 0.951 . S
C539 C538 1.392 . S
C539 C541 1.384 . S
H540 C542 0.949 . S
C541 C539 1.384 . S
C541 C542 1.385 . S
C541 H543 0.950 . S
C542 C536 1.404 . S
C542 H540 0.949 . S
C542 C541 1.385 . S
H543 C541 0.950 . S
H544 C528 0.951 . S
H545 C530 0.951 . S
H546 C532 0.951 . S
H547 C533 0.950 . S
H548 C534 0.950 . S
H549 C535 0.950 . S
H550 C537 0.950 . S
H551 C538 0.951 . S
C552 C553 1.386 1_455 S
C552 C554 1.383 . S
C552 H568 0.951 . S
C553 C552 1.386 1_655 S
C553 C557 1.383 . S
C554 C552 1.383 . S
C554 C555 1.402 . S
C554 H569 0.951 . S
C555 C554 1.402 . S
C555 C556 1.375 1_455 S
C555 C558 1.481 . S
C556 C555 1.375 1_655 S
C556 C557 1.367 . S
C556 H570 0.951 . S
C557 C553 1.383 . S
C557 C556 1.367 . S
C557 H571 0.950 . S
C558 C555 1.481 . S
C558 C559 1.297 . S
C558 H572 0.950 . S
C559 C558 1.297 . S
C559 C560 1.479 . S
C559 H573 0.950 . S
C560 C559 1.479 . S
C560 C561 1.375 . S
C560 C566 1.404 . S
C561 C560 1.375 . S
C561 C562 1.369 . S
C561 H574 0.950 . S
C562 C561 1.369 . S
C562 C563 1.392 . S
C562 H575 0.951 . S
C563 C562 1.392 . S
C563 C565 1.384 . S
H564 C566 0.949 . S
C565 C563 1.384 . S
C565 C566 1.385 . S
C565 H567 0.950 . S
C566 C560 1.404 . S
C566 H564 0.949 . S
C566 C565 1.385 . S
H567 C565 0.950 . S
H568 C552 0.951 . S
H569 C554 0.951 . S
H570 C556 0.951 . S
H571 C557 0.950 . S
H572 C558 0.950 . S
H573 C559 0.950 . S
H574 C561 0.950 . S
H575 C562 0.951 . S
C576 C577 1.386 . S
C576 C578 1.383 . S
C576 H592 0.951 . S
C577 C576 1.386 . S
C577 C581 1.383 1_565 S
C578 C576 1.383 . S
C578 C579 1.402 1_565 S
C578 H593 0.951 . S
C579 C578 1.402 1_545 S
C579 C580 1.375 . S
C579 C582 1.481 . S
C580 C579 1.375 . S
C580 C581 1.367 . S
C580 H594 0.951 . S
C581 C577 1.383 1_545 S
C581 C580 1.367 . S
C581 H595 0.950 . S
C582 C579 1.481 . S
C582 C583 1.297 . S
C582 H596 0.950 . S
C583 C582 1.297 . S
C583 C584 1.479 . S
C583 H597 0.950 . S
C584 C583 1.479 . S
C584 C585 1.375 . S
C584 C590 1.404 . S
C585 C584 1.375 . S
C585 C586 1.369 . S
C585 H598 0.950 . S
C586 C585 1.369 . S
C586 C587 1.392 . S
C586 H599 0.951 . S
C587 C586 1.392 . S
C587 C589 1.384 . S
H588 C590 0.949 . S
C589 C587 1.384 . S
C589 C590 1.385 . S
C589 H591 0.950 . S
C590 C584 1.404 . S
C590 H588 0.949 . S
C590 C589 1.385 . S
H591 C589 0.950 . S
H592 C576 0.951 . S
H593 C578 0.951 . S
H594 C580 0.951 . S
H595 C581 0.950 . S
H596 C582 0.950 . S
H597 C583 0.950 . S
H598 C585 0.950 . S
H599 C586 0.951 . S
C600 C601 1.386 . S
C600 C602 1.383 . S
C600 H616 0.951 . S
C601 C600 1.386 . S
C601 C605 1.383 . S
C602 C600 1.383 . S
C602 C603 1.402 . S
C602 H617 0.951 . S
C603 C602 1.402 . S
C603 C604 1.375 . S
C603 C606 1.481 . S
C604 C603 1.375 . S
C604 C605 1.367 . S
C604 H618 0.951 . S
C605 C601 1.383 . S
C605 C604 1.367 . S
C605 H619 0.950 . S
C606 C603 1.481 . S
C606 C607 1.297 . S
C606 H620 0.950 . S
C607 C606 1.297 . S
C607 C608 1.479 . S
C607 H621 0.950 . S
C608 C607 1.479 . S
C608 C609 1.375 . S
C608 C614 1.404 . S
C609 C608 1.375 . S
C609 C610 1.369 . S
C609 H622 0.950 . S
C610 C609 1.369 . S
C610 C611 1.392 . S
C610 H623 0.951 . S
C611 C610 1.392 . S
C611 C613 1.384 . S
H612 C614 0.949 . S
C613 C611 1.384 . S
C613 C614 1.385 . S
C613 H615 0.950 . S
C614 C608 1.404 . S
C614 H612 0.949 . S
C614 C613 1.385 . S
H615 C613 0.950 . S
H616 C600 0.951 . S
H617 C602 0.951 . S
H618 C604 0.951 . S
H619 C605 0.950 . S
H620 C606 0.950 . S
H621 C607 0.950 . S
H622 C609 0.950 . S
H623 C610 0.951 . S
C624 C625 1.386 1_655 S
C624 C626 1.383 . S
C624 H640 0.951 . S
C625 C624 1.386 1_455 S
C625 C629 1.383 . S
C626 C624 1.383 . S
C626 C627 1.402 . S
C626 H641 0.951 . S
C627 C626 1.402 . S
C627 C628 1.375 1_655 S
C627 C630 1.481 . S
C628 C627 1.375 1_455 S
C628 C629 1.367 . S
C628 H642 0.951 . S
C629 C625 1.383 . S
C629 C628 1.367 . S
C629 H643 0.950 . S
C630 C627 1.481 . S
C630 C631 1.297 . S
C630 H644 0.950 1_655 S
C631 C630 1.297 . S
C631 C632 1.479 . S
C631 H645 0.950 . S
C632 C631 1.479 . S
C632 C633 1.375 . S
C632 C638 1.404 . S
C633 C632 1.375 . S
C633 C634 1.369 . S
C633 H646 0.950 . S
C634 C633 1.369 . S
C634 C635 1.392 . S
C634 H647 0.951 . S
C635 C634 1.392 . S
C635 C637 1.384 . S
H636 C638 0.949 . S
C637 C635 1.384 . S
C637 C638 1.385 . S
C637 H639 0.950 . S
C638 C632 1.404 . S
C638 H636 0.949 . S
C638 C637 1.385 . S
H639 C637 0.950 . S
H640 C624 0.951 . S
H641 C626 0.951 . S
H642 C628 0.951 . S
H643 C629 0.950 . S
H644 C630 0.950 1_455 S
H645 C631 0.950 . S
H646 C633 0.950 . S
H647 C634 0.951 . S
C648 C649 1.386 . S
C648 C650 1.383 . S
C648 H664 0.951 . S
C649 C648 1.386 . S
C649 C653 1.383 1_545 S
C650 C648 1.383 . S
C650 C651 1.402 1_545 S
C650 H665 0.951 . S
C651 C650 1.402 1_565 S
C651 C652 1.375 . S
C651 C654 1.481 . S
C652 C651 1.375 . S
C652 C653 1.367 . S
C652 H666 0.951 . S
C653 C649 1.383 1_565 S
C653 C652 1.367 . S
C653 H667 0.950 . S
C654 C651 1.481 . S
C654 C655 1.297 . S
C654 H668 0.950 . S
C655 C654 1.297 . S
C655 C656 1.479 . S
C655 H669 0.950 . S
C656 C655 1.479 . S
C656 C657 1.375 . S
C656 C662 1.404 . S
C657 C656 1.375 . S
C657 C658 1.369 . S
C657 H670 0.950 . S
C658 C657 1.369 . S
C658 C659 1.392 . S
C658 H671 0.951 . S
C659 C658 1.392 . S
C659 C661 1.384 . S
H660 C662 0.949 . S
C661 C659 1.384 . S
C661 C662 1.385 . S
C661 H663 0.950 . S
C662 C656 1.404 . S
C662 H660 0.949 . S
C662 C661 1.385 . S
H663 C661 0.950 . S
H664 C648 0.951 . S
H665 C650 0.951 . S
H666 C652 0.951 . S
H667 C653 0.950 . S
H668 C654 0.950 . S
H669 C655 0.950 . S
H670 C657 0.950 . S
H671 C658 0.951 . S
C241 C171 1.159 . S
C251 C7 1.161 . S
C265 C211 1.176 . S
C275 C47 1.166 . S
C289 C11 1.175 . S
C299 C87 1.166 . S
C313 C51 1.173 . S
C323 C127 1.166 . S
C337 C91 1.159 . S
C347 C167 1.162 . S
C361 C131 1.175 . S
C371 C207 1.165 . S
C385 C10 0.821 . S
C395 C130 0.716 . S
C409 C170 0.769 . S
C419 C50 0.935 . S
C433 C210 0.884 . S
C443 C90 0.744 . S
C457 C99 0.869 . S
C467 C219 0.851 . S
C481 C19 0.858 . S
C491 C139 0.890 . S
C505 C179 0.858 . S
C515 C59 0.875 . S
C529 C202 1.269 . S
C539 C16 1.205 . S
C553 C56 1.271 . S
C563 C2 1.262 . S
C577 C96 1.232 . S
C587 C42 1.261 . S
C601 C82 1.270 . S
C611 C136 1.198 . S
C625 C176 1.262 . S
C635 C122 1.265 . S
C649 C216 1.239 . S
C659 C162 1.261 . S
