# Generated by pormake.
# Topology gis, (4)-cn, num edge types: 1
# Building blocks:
#     Node 0, Type 0, BuildingBlock: KUFVIS_clean_sbu_0, # of connection points: 4
#     Node 1, Type 0, BuildingBlock: KUFVIS_clean_sbu_0, # of connection points: 4
#     Node 2, Type 0, BuildingBlock: KUFVIS_clean_sbu_0, # of connection points: 4
#     Node 3, Type 0, BuildingBlock: KUFVIS_clean_sbu_0, # of connection points: 4
#     Node 4, Type 0, BuildingBlock: KUFVIS_clean_sbu_0, # of connection points: 4
#     Node 5, Type 0, BuildingBlock: KUFVIS_clean_sbu_0, # of connection points: 4
#     Node 6, Type 0, BuildingBlock: KUFVIS_clean_sbu_0, # of connection points: 4
#     Node 7, Type 0, BuildingBlock: KUFVIS_clean_sbu_0, # of connection points: 4
#     Node 8, Type 0, BuildingBlock: KUFVIS_clean_sbu_0, # of connection points: 4
#     Node 9, Type 0, BuildingBlock: KUFVIS_clean_sbu_0, # of connection points: 4
#     Node 10, Type 0, BuildingBlock: KUFVIS_clean_sbu_0, # of connection points: 4
#     Node 11, Type 0, BuildingBlock: KUFVIS_clean_sbu_0, # of connection points: 4
#     Node 12, Type 0, BuildingBlock: KUFVIS_clean_sbu_0, # of connection points: 4
#     Node 13, Type 0, BuildingBlock: KUFVIS_clean_sbu_0, # of connection points: 4
#     Node 14, Type 0, BuildingBlock: KUFVIS_clean_sbu_0, # of connection points: 4
#     Node 15, Type 0, BuildingBlock: KUFVIS_clean_sbu_0, # of connection points: 4
#     Edge 16, Type (0, 0), BuildingBlock: MIFKUJ_clean_linker_0, # of connection points: 2
#     Edge 17, Type (0, 0), BuildingBlock: MIFKUJ_clean_linker_0, # of connection points: 2
#     Edge 18, Type (0, 0), BuildingBlock: MIFKUJ_clean_linker_0, # of connection points: 2
#     Edge 19, Type (0, 0), BuildingBlock: MIFKUJ_clean_linker_0, # of connection points: 2
#     Edge 20, Type (0, 0), BuildingBlock: MIFKUJ_clean_linker_0, # of connection points: 2
#     Edge 21, Type (0, 0), BuildingBlock: MIFKUJ_clean_linker_0, # of connection points: 2
#     Edge 22, Type (0, 0), BuildingBlock: MIFKUJ_clean_linker_0, # of connection points: 2
#     Edge 23, Type (0, 0), BuildingBlock: MIFKUJ_clean_linker_0, # of connection points: 2
#     Edge 24, Type (0, 0), BuildingBlock: MIFKUJ_clean_linker_0, # of connection points: 2
#     Edge 25, Type (0, 0), BuildingBlock: MIFKUJ_clean_linker_0, # of connection points: 2
#     Edge 26, Type (0, 0), BuildingBlock: MIFKUJ_clean_linker_0, # of connection points: 2
#     Edge 27, Type (0, 0), BuildingBlock: MIFKUJ_clean_linker_0, # of connection points: 2
#     Edge 28, Type (0, 0), BuildingBlock: MIFKUJ_clean_linker_0, # of connection points: 2
#     Edge 29, Type (0, 0), BuildingBlock: MIFKUJ_clean_linker_0, # of connection points: 2
#     Edge 30, Type (0, 0), BuildingBlock: MIFKUJ_clean_linker_0, # of connection points: 2
#     Edge 31, Type (0, 0), BuildingBlock: MIFKUJ_clean_linker_0, # of connection points: 2
#     Edge 32, Type (0, 0), BuildingBlock: MIFKUJ_clean_linker_0, # of connection points: 2
#     Edge 33, Type (0, 0), BuildingBlock: MIFKUJ_clean_linker_0, # of connection points: 2
#     Edge 34, Type (0, 0), BuildingBlock: MIFKUJ_clean_linker_0, # of connection points: 2
#     Edge 35, Type (0, 0), BuildingBlock: MIFKUJ_clean_linker_0, # of connection points: 2
#     Edge 36, Type (0, 0), BuildingBlock: MIFKUJ_clean_linker_0, # of connection points: 2
#     Edge 37, Type (0, 0), BuildingBlock: MIFKUJ_clean_linker_0, # of connection points: 2
#     Edge 38, Type (0, 0), BuildingBlock: MIFKUJ_clean_linker_0, # of connection points: 2
#     Edge 39, Type (0, 0), BuildingBlock: MIFKUJ_clean_linker_0, # of connection points: 2
#     Edge 40, Type (0, 0), BuildingBlock: MIFKUJ_clean_linker_0, # of connection points: 2
#     Edge 41, Type (0, 0), BuildingBlock: MIFKUJ_clean_linker_0, # of connection points: 2
#     Edge 42, Type (0, 0), BuildingBlock: MIFKUJ_clean_linker_0, # of connection points: 2
#     Edge 43, Type (0, 0), BuildingBlock: MIFKUJ_clean_linker_0, # of connection points: 2
#     Edge 44, Type (0, 0), BuildingBlock: MIFKUJ_clean_linker_0, # of connection points: 2
#     Edge 45, Type (0, 0), BuildingBlock: MIFKUJ_clean_linker_0, # of connection points: 2
#     Edge 46, Type (0, 0), BuildingBlock: MIFKUJ_clean_linker_0, # of connection points: 2
#     Edge 47, Type (0, 0), BuildingBlock: MIFKUJ_clean_linker_0, # of connection points: 2
# Relax obj value: 0.088
# Max RMSD: 0.145
# Mean RMSD: 0.139
data_MOF--net-gis--node1-KUFVIS_clean_sbu_0--edge1-MIFKUJ_clean_linker_0
_symmetry_space_group_name_H-M    P1
_symmetry_Int_Tables_number       1
_symmetry_cell_setting            triclinic
loop_
_symmetry_equiv_pos_as_xyz
'x, y, z'
_cell_length_a     64.643842
_cell_length_b     69.859554
_cell_length_c     49.45005
_cell_angle_alpha  90.406414
_cell_angle_beta   90.165653
_cell_angle_gamma 90.094079
loop_
_atom_site_label
_atom_site_type_symbol
_atom_site_fract_x
_atom_site_fract_y
_atom_site_fract_z
_atom_type_partial_charge
Mn0 Mn 0.13628 0.61292 0.11396 0.0
Mn1 Mn 0.11231 0.63114 0.16885 0.0
C2 C 0.10132 0.61959 0.11151 0.0
C3 C 0.14839 0.58599 0.0909 0.0
C4 C 0.1395 0.6547 0.13156 0.0
O5 O 0.15699 0.60871 0.14432 0.0
O6 O 0.13811 0.61797 0.18017 0.0
C7 C 0.10101 0.59492 0.19583 0.0
N8 N 0.09538 0.61214 0.18541 0.0
C9 C 0.06005 0.60762 0.19915 0.0
C10 C 0.06547 0.58987 0.21017 0.0
C11 C 0.08603 0.58346 0.20839 0.0
C12 C 0.07564 0.61837 0.18682 0.0
H13 H 0.11681 0.59 0.19456 0.0
C14 C 0.15445 0.61076 0.16972 0.0
O15 O 0.15636 0.6028 0.08675 0.0
O16 O 0.13359 0.5849 0.10845 0.0
N17 N 0.08704 0.64431 0.16157 0.0
C18 C 0.08422 0.66133 0.14882 0.0
C19 C 0.06457 0.66982 0.14889 0.0
C20 C 0.04808 0.66077 0.16214 0.0
C21 C 0.05127 0.64312 0.17474 0.0
C22 C 0.07128 0.63552 0.17445 0.0
H23 H 0.09693 0.66851 0.13903 0.0
O24 O 0.11224 0.6174 0.08975 0.0
O25 O 0.11108 0.61703 0.13434 0.0
O26 O 0.14303 0.64166 0.11393 0.0
O27 O 0.12901 0.6519 0.15305 0.0
C28 C 0.0354 0.63277 0.18757 0.0
C29 C 0.03976 0.61496 0.1996 0.0
H30 H 0.05396 0.58099 0.21986 0.0
H31 H 0.09032 0.56975 0.21675 0.0
H32 H 0.06223 0.68345 0.13909 0.0
H33 H 0.03305 0.66754 0.16272 0.0
H34 H 0.01975 0.63827 0.18802 0.0
H35 H 0.02738 0.607 0.20906 0.0
Mn36 Mn 0.65721 0.88356 0.38922 0.0
Mn37 Mn 0.64596 0.86746 0.45165 0.0
C38 C 0.65243 0.85132 0.39608 0.0
C39 C 0.68192 0.89204 0.35742 0.0
C40 C 0.61417 0.88573 0.41475 0.0
O41 O 0.66414 0.90632 0.41327 0.0
O42 O 0.65749 0.89389 0.45419 0.0
C43 C 0.68891 0.86491 0.47217 0.0
N44 N 0.67041 0.85637 0.46663 0.0
C45 C 0.68288 0.82593 0.48223 0.0
C46 C 0.70203 0.83442 0.48827 0.0
C47 C 0.70506 0.85399 0.48317 0.0
C48 C 0.66736 0.83754 0.47134 0.0
H49 H 0.69134 0.87991 0.46813 0.0
C50 C 0.66336 0.90764 0.43896 0.0
O51 O 0.66323 0.89882 0.35605 0.0
O52 O 0.68631 0.88103 0.37759 0.0
N53 N 0.63469 0.84211 0.45261 0.0
C54 C 0.61536 0.83609 0.44546 0.0
C55 C 0.60985 0.81683 0.44913 0.0
C56 C 0.62418 0.80402 0.46035 0.0
C57 C 0.64381 0.81065 0.46812 0.0
C58 C 0.64836 0.83004 0.4642 0.0
H59 H 0.60428 0.84587 0.43684 0.0
O60 O 0.65089 0.85838 0.37198 0.0
O61 O 0.65722 0.86329 0.41539 0.0
O62 O 0.62624 0.88863 0.39476 0.0
O63 O 0.62003 0.87815 0.43698 0.0
C64 C 0.65911 0.79874 0.47936 0.0
C65 C 0.67866 0.80636 0.4863 0.0
H66 H 0.71454 0.82604 0.49668 0.0
H67 H 0.71983 0.86063 0.48766 0.0
H68 H 0.59463 0.81184 0.44319 0.0
H69 H 0.61995 0.78913 0.46288 0.0
H70 H 0.65606 0.78368 0.48257 0.0
H71 H 0.69037 0.79702 0.49469 0.0
Mn72 Mn 0.35309 0.39194 0.616 0.0
Mn73 Mn 0.36668 0.37047 0.6743 0.0
C74 C 0.38762 0.3862 0.62552 0.0
C75 C 0.34485 0.41913 0.59121 0.0
C76 C 0.351 0.34855 0.62561 0.0
O77 O 0.32675 0.3944 0.63835 0.0
O78 O 0.33768 0.37932 0.67566 0.0
C79 C 0.36452 0.40514 0.70893 0.0
N80 N 0.37537 0.38989 0.6992 0.0
C81 C 0.40414 0.397 0.72848 0.0
C82 C 0.39329 0.41276 0.7389 0.0
C83 C 0.37345 0.41694 0.7289 0.0
C84 C 0.39467 0.38607 0.70808 0.0
H85 H 0.34913 0.40821 0.70163 0.0
C86 C 0.32376 0.38798 0.66207 0.0
O87 O 0.33852 0.40226 0.58373 0.0
O88 O 0.35562 0.42025 0.61335 0.0
N89 N 0.39433 0.36104 0.67673 0.0
C90 C 0.40265 0.34522 0.66471 0.0
C91 C 0.42255 0.3392 0.67224 0.0
C92 C 0.43333 0.34906 0.69275 0.0
C93 C 0.4242 0.36499 0.7053 0.0
C94 C 0.40461 0.37065 0.69641 0.0
H95 H 0.39415 0.33727 0.6495 0.0
O96 O 0.38146 0.38904 0.60089 0.0
O97 O 0.37351 0.38743 0.64418 0.0
O98 O 0.34792 0.36313 0.6107 0.0
O99 O 0.35822 0.34959 0.64965 0.0
C100 C 0.43348 0.37513 0.72682 0.0
C101 C 0.42373 0.39138 0.73801 0.0
H102 H 0.39999 0.42169 0.75465 0.0
H103 H 0.36496 0.42908 0.73682 0.0
H104 H 0.42941 0.3268 0.6626 0.0
H105 H 0.44853 0.34418 0.69886 0.0
H106 H 0.44783 0.37023 0.7354 0.0
H107 H 0.43123 0.39918 0.75432 0.0
Mn108 Mn 0.85799 0.10543 0.87727 0.0
Mn109 Mn 0.88306 0.12057 0.82159 0.0
C110 C 0.89312 0.11102 0.87964 0.0
C111 C 0.84462 0.08002 0.90196 0.0
C112 C 0.85801 0.1469 0.85807 0.0
O113 O 0.83701 0.10107 0.84734 0.0
O114 O 0.85586 0.1094 0.8112 0.0
C115 C 0.89011 0.08251 0.79663 0.0
N116 N 0.89768 0.09955 0.80587 0.0
C117 C 0.93223 0.09119 0.79232 0.0
C118 C 0.9248 0.0736 0.78248 0.0
C119 C 0.90365 0.0692 0.78476 0.0
C120 C 0.918 0.10382 0.80408 0.0
H121 H 0.87386 0.07911 0.79831 0.0
C122 C 0.83927 0.10305 0.82196 0.0
O123 O 0.83737 0.09726 0.9049 0.0
O124 O 0.85929 0.07762 0.88446 0.0
N125 N 0.90969 0.13179 0.82746 0.0
C126 C 0.91441 0.14918 0.83853 0.0
C127 C 0.93487 0.15588 0.83751 0.0
C128 C 0.95017 0.14472 0.82491 0.0
C129 C 0.945 0.12683 0.81389 0.0
C130 C 0.9243 0.12104 0.8151 0.0
H131 H 0.90262 0.15796 0.84776 0.0
O132 O 0.88208 0.10988 0.9014 0.0
O133 O 0.88344 0.10778 0.85684 0.0
O134 O 0.85282 0.13437 0.87551 0.0
O135 O 0.86879 0.14308 0.83704 0.0
C136 C 0.95956 0.11453 0.80169 0.0
C137 C 0.9532 0.09666 0.7911 0.0
H138 H 0.93519 0.06332 0.77328 0.0
H139 H 0.89781 0.05562 0.77732 0.0
H140 H 0.93875 0.16974 0.84603 0.0
H141 H 0.9658 0.1501 0.82341 0.0
H142 H 0.97571 0.11861 0.8006 0.0
H143 H 0.96456 0.08722 0.78206 0.0
Mn144 Mn 0.15526 0.38566 0.89986 0.0
Mn145 Mn 0.14956 0.36684 0.96216 0.0
C146 C 0.15371 0.35293 0.90497 0.0
C147 C 0.17596 0.39708 0.8651 0.0
C148 C 0.11393 0.38315 0.93004 0.0
O149 O 0.16226 0.40813 0.92436 0.0
O150 O 0.15801 0.39427 0.9649 0.0
C151 C 0.19373 0.36843 0.97799 0.0
N152 N 0.17604 0.35814 0.97414 0.0
C153 C 0.19282 0.32905 0.98786 0.0
C154 C 0.21118 0.33935 0.99215 0.0
C155 C 0.21165 0.35912 0.98713 0.0
C156 C 0.17546 0.3391 0.97874 0.0
H157 H 0.19418 0.38361 0.97405 0.0
C158 C 0.16233 0.40874 0.95012 0.0
O159 O 0.1567 0.40214 0.86718 0.0
O160 O 0.18329 0.38601 0.88378 0.0
N161 N 0.14148 0.34047 0.96322 0.0
C162 C 0.12263 0.33257 0.95773 0.0
C163 C 0.11958 0.31287 0.96164 0.0
C164 C 0.13585 0.30156 0.97145 0.0
C165 C 0.155 0.31006 0.9774 0.0
C166 C 0.15707 0.32979 0.97334 0.0
H167 H 0.11007 0.34118 0.95015 0.0
O168 O 0.14969 0.36066 0.88179 0.0
O169 O 0.15901 0.36455 0.92454 0.0
O170 O 0.12464 0.38827 0.90967 0.0
O171 O 0.12162 0.37491 0.95076 0.0
C172 C 0.1722 0.29969 0.98686 0.0
C173 C 0.19112 0.30917 0.992 0.0
H174 H 0.22505 0.33222 0.99915 0.0
H175 H 0.22579 0.36716 0.99028 0.0
H176 H 0.10474 0.30642 0.95702 0.0
H177 H 0.13348 0.28635 0.97431 0.0
H178 H 0.17111 0.28439 0.99002 0.0
H179 H 0.20429 0.30101 0.99903 0.0
Mn180 Mn 0.85578 0.89558 0.09838 0.0
Mn181 Mn 0.88255 0.87697 0.15051 0.0
C182 C 0.89098 0.89121 0.09422 0.0
C183 C 0.84157 0.92257 0.07827 0.0
C184 C 0.85517 0.85341 0.11265 0.0
O185 O 0.8358 0.89726 0.12993 0.0
O186 O 0.85684 0.88921 0.16448 0.0
C187 C 0.89414 0.91266 0.17944 0.0
N188 N 0.89976 0.89596 0.16718 0.0
C189 C 0.93572 0.90165 0.17718 0.0
C190 C 0.9303 0.91884 0.19013 0.0
C191 C 0.90943 0.92439 0.19118 0.0
C192 C 0.91981 0.89053 0.16592 0.0
H193 H 0.87813 0.917 0.18018 0.0
C194 C 0.83957 0.89529 0.15507 0.0
O195 O 0.83442 0.90556 0.07286 0.0
O196 O 0.85658 0.92381 0.09562 0.0
N197 N 0.90786 0.86479 0.14012 0.0
C198 C 0.91063 0.8484 0.12546 0.0
C199 C 0.93068 0.84112 0.1219 0.0
C200 C 0.94766 0.85065 0.13361 0.0
C201 C 0.94444 0.86744 0.1487 0.0
C202 C 0.92408 0.87393 0.15177 0.0
H203 H 0.89765 0.84092 0.11654 0.0
O204 O 0.87956 0.89351 0.0729 0.0
O205 O 0.88154 0.89218 0.1174 0.0
O206 O 0.85094 0.86669 0.09593 0.0
O207 O 0.86576 0.85613 0.13424 0.0
C208 C 0.96067 0.87819 0.16037 0.0
C209 C 0.95632 0.89532 0.17453 0.0
H210 H 0.94205 0.92798 0.1991 0.0
H211 H 0.90514 0.9377 0.20099 0.0
H212 H 0.93305 0.82817 0.11018 0.0
H213 H 0.9631 0.845 0.1308 0.0
H214 H 0.97658 0.87359 0.15817 0.0
H215 H 0.96895 0.90363 0.18303 0.0
Mn216 Mn 0.36082 0.60311 0.38405 0.0
Mn217 Mn 0.37679 0.61978 0.3239 0.0
C218 C 0.39574 0.60796 0.37641 0.0
C219 C 0.35124 0.57739 0.41103 0.0
C220 C 0.35709 0.64477 0.36715 0.0
O221 O 0.33558 0.59956 0.35969 0.0
O222 O 0.34927 0.60753 0.31946 0.0
C223 C 0.38212 0.58317 0.29431 0.0
N224 N 0.39015 0.59996 0.3038 0.0
C225 C 0.42254 0.59412 0.28153 0.0
C226 C 0.41464 0.57678 0.2714 0.0
C227 C 0.39439 0.5712 0.27802 0.0
C228 C 0.40977 0.60521 0.29816 0.0
H229 H 0.36645 0.579 0.29902 0.0
C230 C 0.33445 0.60121 0.33403 0.0
O231 O 0.34481 0.59462 0.41623 0.0
O232 O 0.36286 0.57509 0.38991 0.0
N233 N 0.40328 0.63196 0.32511 0.0
C234 C 0.40863 0.64905 0.33666 0.0
C235 C 0.42859 0.65642 0.33262 0.0
C236 C 0.44264 0.64641 0.3162 0.0
C237 C 0.43662 0.62905 0.3041 0.0
C238 C 0.41669 0.62221 0.30932 0.0
H239 H 0.39778 0.65702 0.34887 0.0
O240 O 0.38872 0.6067 0.40089 0.0
O241 O 0.38221 0.60572 0.35718 0.0
O242 O 0.35585 0.63203 0.38541 0.0
O243 O 0.36371 0.64137 0.34328 0.0
C244 C 0.44944 0.6185 0.28659 0.0
C245 C 0.44245 0.601 0.27539 0.0
H246 H 0.42397 0.56765 0.25852 0.0
H247 H 0.38818 0.55784 0.27032 0.0
H248 H 0.43306 0.66989 0.3419 0.0
H249 H 0.45795 0.65224 0.31286 0.0
H250 H 0.4646 0.62388 0.28138 0.0
H251 H 0.45235 0.59305 0.26177 0.0
Mn252 Mn 0.63236 0.10884 0.6078 0.0
Mn253 Mn 0.61396 0.12375 0.66802 0.0
C254 C 0.59715 0.11308 0.61333 0.0
C255 C 0.6436 0.08335 0.58108 0.0
C256 C 0.63442 0.15027 0.62755 0.0
O257 O 0.65688 0.10539 0.63315 0.0
O258 O 0.64186 0.11254 0.67287 0.0
C259 C 0.60958 0.08596 0.69399 0.0
N260 N 0.60099 0.10271 0.68562 0.0
C261 C 0.5681 0.09428 0.70467 0.0
C262 C 0.57656 0.07696 0.7136 0.0
C263 C 0.59737 0.07272 0.70805 0.0
C264 C 0.58087 0.10669 0.69019 0.0
H265 H 0.62564 0.08278 0.69006 0.0
C266 C 0.65729 0.10681 0.65885 0.0
O267 O 0.64954 0.10077 0.57618 0.0
O268 O 0.63118 0.08087 0.60127 0.0
N269 N 0.58703 0.13498 0.66692 0.0
C270 C 0.58156 0.15277 0.65834 0.0
C271 C 0.56121 0.15921 0.6623 0.0
C272 C 0.54692 0.14757 0.67583 0.0
C273 C 0.55315 0.12964 0.68545 0.0
C274 C 0.57351 0.12384 0.68049 0.0
H275 H 0.5926 0.16196 0.64845 0.0
O276 O 0.6051 0.11211 0.58932 0.0
O277 O 0.60993 0.11071 0.63335 0.0
O278 O 0.63686 0.13796 0.60857 0.0
O279 O 0.62669 0.14621 0.65061 0.0
C280 C 0.54017 0.11759 0.70054 0.0
C281 C 0.54762 0.09989 0.71007 0.0
H282 H 0.56726 0.06685 0.7248 0.0
H283 H 0.60402 0.05939 0.71484 0.0
H284 H 0.55663 0.17319 0.65518 0.0
H285 H 0.5313 0.15266 0.6791 0.0
H286 H 0.52452 0.12194 0.70525 0.0
H287 H 0.53761 0.0908 0.72193 0.0
Mn288 Mn 0.85819 0.38989 0.89737 0.0
Mn289 Mn 0.88581 0.37554 0.8432 0.0
C290 C 0.89343 0.38603 0.90144 0.0
C291 C 0.84366 0.41532 0.92126 0.0
C292 C 0.85885 0.34887 0.87651 0.0
O293 O 0.83843 0.39362 0.86586 0.0
O294 O 0.85949 0.38734 0.83069 0.0
C295 C 0.89547 0.41326 0.81948 0.0
N296 N 0.90199 0.39622 0.82959 0.0
C297 C 0.93762 0.40433 0.82154 0.0
C298 C 0.93128 0.42192 0.81086 0.0
C299 C 0.91011 0.42642 0.80989 0.0
C300 C 0.92231 0.39175 0.83065 0.0
H301 H 0.87921 0.41678 0.81879 0.0
C302 C 0.84213 0.39279 0.84055 0.0
O303 O 0.8366 0.398 0.9241 0.0
O304 O 0.85869 0.4177 0.90437 0.0
N305 N 0.91171 0.36392 0.85223 0.0
C306 C 0.91532 0.34694 0.86479 0.0
C307 C 0.93578 0.34067 0.86829 0.0
C308 C 0.95226 0.35173 0.85852 0.0
C309 C 0.94815 0.36907 0.84548 0.0
C310 C 0.92745 0.37458 0.84248 0.0
H311 H 0.90272 0.33833 0.87227 0.0
O312 O 0.88184 0.38639 0.92279 0.0
O313 O 0.88408 0.3884 0.87838 0.0
O314 O 0.85376 0.36079 0.89503 0.0
O315 O 0.87002 0.35326 0.85617 0.0
C316 C 0.96381 0.38133 0.83595 0.0
C317 C 0.95855 0.39896 0.82402 0.0
H318 H 0.94254 0.43216 0.80359 0.0
H319 H 0.90511 0.44001 0.80181 0.0
H320 H 0.93889 0.32739 0.87862 0.0
H321 H 0.96801 0.34687 0.86138 0.0
H322 H 0.97995 0.37749 0.83813 0.0
H323 H 0.97073 0.4084 0.81717 0.0
Mn324 Mn 0.33471 0.12005 0.59587 0.0
Mn325 Mn 0.34528 0.12811 0.53001 0.0
C326 C 0.3387 0.15106 0.58122 0.0
C327 C 0.31125 0.11347 0.63018 0.0
C328 C 0.37789 0.11678 0.5708 0.0
O329 O 0.32896 0.09432 0.57826 0.0
O330 O 0.33517 0.10147 0.53487 0.0
C331 C 0.30203 0.12571 0.5104 0.0
N332 N 0.32015 0.13558 0.51264 0.0
C333 C 0.30647 0.16179 0.48691 0.0
C334 C 0.2877 0.15187 0.48417 0.0
C335 C 0.28545 0.13378 0.49605 0.0
C336 C 0.32239 0.15308 0.5016 0.0
H337 H 0.30024 0.1118 0.51949 0.0
C338 C 0.32978 0.08977 0.55334 0.0
O339 O 0.33058 0.10868 0.63214 0.0
O340 O 0.30551 0.12202 0.60816 0.0
N341 N 0.35516 0.15309 0.52124 0.0
C342 C 0.37432 0.16068 0.52559 0.0
C343 C 0.37925 0.17856 0.51454 0.0
C344 C 0.36454 0.18829 0.49886 0.0
C345 C 0.34499 0.18016 0.49452 0.0
C346 C 0.34105 0.1622 0.50574 0.0
H347 H 0.3858 0.15311 0.53725 0.0
O348 O 0.33985 0.14696 0.60672 0.0
O349 O 0.33391 0.13696 0.56485 0.0
O350 O 0.36574 0.11594 0.59106 0.0
O351 O 0.37195 0.12092 0.54685 0.0
C352 C 0.32931 0.18912 0.47937 0.0
C353 C 0.31 0.18 0.47572 0.0
H354 H 0.2749 0.15802 0.47305 0.0
H355 H 0.27099 0.12606 0.49411 0.0
H356 H 0.39445 0.18466 0.51782 0.0
H357 H 0.36843 0.20188 0.48986 0.0
H358 H 0.3319 0.20307 0.47055 0.0
H359 H 0.29801 0.18708 0.46421 0.0
Mn360 Mn 0.65152 0.60578 0.39856 0.0
Mn361 Mn 0.62796 0.62155 0.34227 0.0
C362 C 0.61582 0.60739 0.39709 0.0
C363 C 0.66625 0.58029 0.42154 0.0
C364 C 0.65035 0.64742 0.38244 0.0
O365 O 0.67427 0.6052 0.36995 0.0
O366 O 0.6552 0.61064 0.33258 0.0
C367 C 0.62099 0.58477 0.3136 0.0
N368 N 0.61336 0.60123 0.32454 0.0
C369 C 0.57888 0.59355 0.30957 0.0
C370 C 0.58636 0.57652 0.29805 0.0
C371 C 0.60749 0.57207 0.30021 0.0
C372 C 0.59302 0.6055 0.32298 0.0
H373 H 0.63726 0.58139 0.31505 0.0
C374 C 0.67221 0.60618 0.34428 0.0
O375 O 0.67121 0.59785 0.42755 0.0
O376 O 0.65308 0.57761 0.40207 0.0
N377 N 0.60128 0.63247 0.34875 0.0
C378 C 0.59648 0.64924 0.36148 0.0
C379 C 0.57588 0.65561 0.3616 0.0
C380 C 0.56053 0.64487 0.34823 0.0
C381 C 0.56592 0.62784 0.33486 0.0
C382 C 0.58665 0.62213 0.3356 0.0
H383 H 0.60824 0.65772 0.37145 0.0
O384 O 0.62532 0.60616 0.42014 0.0
O385 O 0.62746 0.607 0.37577 0.0
O386 O 0.65347 0.635 0.40078 0.0
O387 O 0.64224 0.64358 0.35943 0.0
C388 C 0.55154 0.61634 0.32077 0.0
C389 C 0.55796 0.59913 0.30828 0.0
H390 H 0.57601 0.56675 0.28755 0.0
H391 H 0.61337 0.55894 0.29142 0.0
H392 H 0.57187 0.66882 0.37187 0.0
H393 H 0.54466 0.64983 0.34833 0.0
H394 H 0.53545 0.62051 0.31969 0.0
H395 H 0.54666 0.59026 0.29788 0.0
Mn396 Mn 0.14601 0.89639 0.11399 0.0
Mn397 Mn 0.12116 0.87996 0.16917 0.0
C398 C 0.11103 0.88959 0.11129 0.0
C399 C 0.15851 0.92234 0.08945 0.0
C400 C 0.14776 0.85486 0.13305 0.0
O401 O 0.16656 0.9017 0.14438 0.0
O402 O 0.14768 0.89216 0.17984 0.0
C403 C 0.11212 0.91752 0.19456 0.0
N404 N 0.10546 0.90023 0.18506 0.0
C405 C 0.07057 0.90677 0.19909 0.0
C406 C 0.07706 0.92462 0.20916 0.0
C407 C 0.09791 0.93004 0.20678 0.0
C408 C 0.08541 0.89496 0.18697 0.0
H409 H 0.12816 0.92169 0.19285 0.0
C410 C 0.16405 0.89942 0.16968 0.0
O411 O 0.16655 0.9054 0.08673 0.0
O412 O 0.14348 0.92415 0.10657 0.0
N413 N 0.09514 0.86769 0.16285 0.0
C414 C 0.09128 0.8503 0.15123 0.0
C415 C 0.07123 0.84262 0.15227 0.0
C416 C 0.05544 0.85284 0.16543 0.0
C417 C 0.05968 0.87081 0.17683 0.0
C418 C 0.08002 0.87758 0.1756 0.0
H419 H 0.10349 0.84222 0.14163 0.0
O420 O 0.12216 0.891 0.08961 0.0
O421 O 0.12053 0.89304 0.13413 0.0
O422 O 0.1525 0.86762 0.11572 0.0
O423 O 0.13658 0.85813 0.15385 0.0
C424 C 0.04453 0.88225 0.18944 0.0
C425 C 0.04994 0.9003 0.20036 0.0
H426 H 0.06615 0.9343 0.21864 0.0
H427 H 0.10303 0.94382 0.21442 0.0
H428 H 0.06802 0.82873 0.14338 0.0
H429 H 0.04018 0.84667 0.16709 0.0
H430 H 0.02863 0.8774 0.19058 0.0
H431 H 0.03811 0.90909 0.20968 0.0
Mn432 Mn 0.84147 0.62189 0.09727 0.0
Mn433 Mn 0.84657 0.63157 0.03082 0.0
C434 C 0.84445 0.65328 0.08334 0.0
C435 C 0.82098 0.6155 0.13472 0.0
C436 C 0.88228 0.6188 0.06594 0.0
O437 O 0.83327 0.5967 0.07956 0.0
O438 O 0.83698 0.60482 0.03601 0.0
C439 C 0.80202 0.62936 0.01701 0.0
N440 N 0.82017 0.63929 0.01733 0.0
C441 C 0.80435 0.66615 0.99524 0.0
C442 C 0.78552 0.65617 0.99452 0.0
C443 C 0.78434 0.63772 0.00552 0.0
C444 C 0.82143 0.6571 0.00701 0.0
H445 H 0.80103 0.61519 0.02547 0.0
C446 C 0.83243 0.59275 0.05442 0.0
O447 O 0.84015 0.61003 0.13369 0.0
O448 O 0.81369 0.62443 0.11384 0.0
N449 N 0.85558 0.6568 0.02203 0.0
C450 C 0.87483 0.66459 0.0247 0.0
C451 C 0.87865 0.68296 0.01458 0.0
C452 C 0.86271 0.69298 0.00158 0.0
C453 C 0.84309 0.68468 0.99893 0.0
C454 C 0.84026 0.66625 0.00913 0.0
H455 H 0.88716 0.65685 0.03449 0.0
O456 O 0.84828 0.64859 0.10817 0.0
O457 O 0.83812 0.63952 0.06735 0.0
O458 O 0.87179 0.61704 0.08762 0.0
O459 O 0.87447 0.6242 0.04347 0.0
C460 C 0.82622 0.694 0.98667 0.0
C461 C 0.80682 0.68477 0.98495 0.0
H462 H 0.77185 0.66257 0.98568 0.0
H463 H 0.76984 0.62995 0.00514 0.0
H464 H 0.89385 0.68931 0.01662 0.0
H465 H 0.8657 0.70696 0.99344 0.0
H466 H 0.82795 0.70832 0.97872 0.0
H467 H 0.79391 0.69213 0.97571 0.0
Mn468 Mn 0.1469 0.10813 0.89845 0.0
Mn469 Mn 0.11794 0.12572 0.84749 0.0
C470 C 0.11188 0.1127 0.90465 0.0
C471 C 0.16143 0.08157 0.91959 0.0
C472 C 0.14677 0.15012 0.88214 0.0
O473 O 0.16545 0.10507 0.86549 0.0
O474 O 0.14343 0.11396 0.8325 0.0
C475 C 0.10634 0.08937 0.8203 0.0
N476 N 0.1007 0.10613 0.8324 0.0
C477 C 0.06463 0.0997 0.82421 0.0
C478 C 0.07005 0.08241 0.81154 0.0
C479 C 0.09099 0.0772 0.80966 0.0
C480 C 0.0806 0.11123 0.83446 0.0
H481 H 0.12243 0.08535 0.81881 0.0
C482 C 0.16089 0.10743 0.84059 0.0
O483 O 0.16918 0.09859 0.92311 0.0
O484 O 0.14577 0.08004 0.90331 0.0
N485 N 0.09271 0.13756 0.85889 0.0
C486 C 0.09004 0.1542 0.873 0.0
C487 C 0.06997 0.16135 0.87695 0.0
C488 C 0.0529 0.15141 0.86618 0.0
C489 C 0.05601 0.13429 0.85182 0.0
C490 C 0.07638 0.12798 0.84827 0.0
H491 H 0.10312 0.16202 0.88107 0.0
O492 O 0.12412 0.11126 0.92535 0.0
O493 O 0.12046 0.11112 0.881 0.0
O494 O 0.15222 0.13714 0.89878 0.0
O495 O 0.13474 0.14704 0.86201 0.0
C496 C 0.0397 0.12312 0.84117 0.0
C497 C 0.044 0.10579 0.82749 0.0
H498 H 0.05825 0.07295 0.80336 0.0
H499 H 0.09528 0.06384 0.80001 0.0
H500 H 0.06767 0.17454 0.88812 0.0
H501 H 0.03746 0.15705 0.86911 0.0
H502 H 0.02378 0.12757 0.84375 0.0
H503 H 0.03132 0.09718 0.81978 0.0
Mn504 Mn 0.64383 0.39295 0.61295 0.0
Mn505 Mn 0.6221 0.37847 0.67126 0.0
C506 C 0.60829 0.39057 0.61587 0.0
C507 C 0.65757 0.41776 0.58747 0.0
C508 C 0.64273 0.3514 0.63121 0.0
O509 O 0.66733 0.39516 0.64018 0.0
O510 O 0.65032 0.38855 0.67863 0.0
C511 C 0.61838 0.416 0.69894 0.0
N512 N 0.60947 0.39959 0.68949 0.0
C513 C 0.57661 0.40819 0.70871 0.0
C514 C 0.58543 0.42518 0.71874 0.0
C515 C 0.60638 0.42915 0.71367 0.0
C516 C 0.58925 0.39579 0.6938 0.0
H517 H 0.63454 0.41898 0.69536 0.0
C518 C 0.66657 0.39372 0.66584 0.0
O519 O 0.66269 0.40006 0.58279 0.0
O520 O 0.64464 0.42096 0.60696 0.0
N521 N 0.59467 0.36842 0.66768 0.0
C522 C 0.58832 0.35182 0.6556 0.0
C523 C 0.56757 0.34606 0.65799 0.0
C524 C 0.55373 0.35714 0.67335 0.0
C525 C 0.56073 0.37398 0.68599 0.0
C526 C 0.58146 0.37919 0.68246 0.0
H527 H 0.59899 0.34306 0.64422 0.0
O528 O 0.61727 0.39102 0.59247 0.0
O529 O 0.62031 0.3922 0.63692 0.0
O530 O 0.64659 0.3637 0.61291 0.0
O531 O 0.63432 0.35566 0.65382 0.0
C532 C 0.54798 0.38579 0.70202 0.0
C533 C 0.55581 0.40303 0.71302 0.0
H534 H 0.57627 0.43527 0.73032 0.0
H535 H 0.6133 0.44224 0.72131 0.0
H536 H 0.56232 0.33301 0.64823 0.0
H537 H 0.53777 0.3526 0.67527 0.0
H538 H 0.53202 0.3819 0.70567 0.0
H539 H 0.5457 0.41219 0.72479 0.0
Mn540 Mn 0.35189 0.87997 0.39322 0.0
Mn541 Mn 0.36444 0.8618 0.45414 0.0
C542 C 0.35553 0.84739 0.39786 0.0
C543 C 0.32675 0.89086 0.36329 0.0
C544 C 0.39533 0.88146 0.41732 0.0
O545 O 0.34646 0.90194 0.41921 0.0
O546 O 0.35196 0.88766 0.45929 0.0
C547 C 0.32241 0.85693 0.47664 0.0
N548 N 0.341 0.8493 0.46955 0.0
C549 C 0.33055 0.81802 0.48438 0.0
C550 C 0.31133 0.82557 0.49202 0.0
C551 C 0.30724 0.8451 0.48809 0.0
C552 C 0.34511 0.83053 0.47323 0.0
H553 H 0.31917 0.87192 0.47351 0.0
C554 C 0.34646 0.90205 0.445 0.0
O555 O 0.34586 0.89647 0.36142 0.0
O556 O 0.32227 0.87922 0.38275 0.0
N557 N 0.37655 0.83683 0.45225 0.0
C558 C 0.39539 0.8316 0.44238 0.0
C559 C 0.40163 0.81239 0.44399 0.0
C560 C 0.38852 0.7988 0.45589 0.0
C561 C 0.36932 0.80458 0.46621 0.0
C562 C 0.364 0.82395 0.46424 0.0
H563 H 0.40552 0.84196 0.43317 0.0
O564 O 0.35656 0.85517 0.37416 0.0
O565 O 0.35192 0.85889 0.41813 0.0
O566 O 0.38309 0.884 0.39739 0.0
O567 O 0.38969 0.87394 0.43962 0.0
C568 C 0.35505 0.79179 0.4778 0.0
C569 C 0.33567 0.7985 0.48685 0.0
H570 H 0.29954 0.81647 0.5007 0.0
H571 H 0.2924 0.85101 0.4938 0.0
H572 H 0.41646 0.80805 0.43595 0.0
H573 H 0.39328 0.78396 0.45681 0.0
H574 H 0.35869 0.77671 0.47946 0.0
H575 H 0.32471 0.78848 0.49536 0.0
H576 H 0.15573 0.83691 0.08469 0.0
H577 H 0.16136 0.80252 0.07727 0.0
H578 H 0.15987 0.79336 0.1634 0.0
H579 H 0.15409 0.82749 0.17094 0.0
H580 H 0.18998 0.77132 0.13735 0.0
H581 H 0.11742 0.78735 0.12954 0.0
H582 H 0.08767 0.80479 0.11049 0.0
H583 H 0.10133 0.78217 0.03159 0.0
H584 H 0.13139 0.76481 0.05014 0.0
H585 H 0.14741 0.68219 0.16936 0.0
H586 H 0.156 0.7157 0.16192 0.0
H587 H 0.15659 0.70581 0.07574 0.0
H588 H 0.14803 0.67193 0.08306 0.0
H589 H 0.1319 0.73712 0.0922 0.0
H590 H 0.20101 0.7153 0.10493 0.0
H591 H 0.22907 0.69743 0.1272 0.0
H592 H 0.22056 0.73052 0.19981 0.0
H593 H 0.19223 0.74841 0.17812 0.0
C594 C 0.15705 0.82761 0.10203 0.0
C595 C 0.15433 0.83485 0.12839 0.0
C596 C 0.16019 0.80798 0.09776 0.0
C597 C 0.16089 0.79542 0.11979 0.0
C598 C 0.15942 0.80282 0.14614 0.0
C599 C 0.156 0.82231 0.15039 0.0
C600 C 0.16125 0.77439 0.11572 0.0
C601 C 0.17736 0.76381 0.12737 0.0
C602 C 0.14492 0.76466 0.1023 0.0
C603 C 0.12682 0.775 0.09114 0.0
C604 C 0.1142 0.78624 0.10808 0.0
C605 C 0.09726 0.79608 0.0974 0.0
C606 C 0.09266 0.79464 0.06984 0.0
C607 C 0.10495 0.78331 0.05293 0.0
C608 C 0.12194 0.77347 0.06351 0.0
C609 C 0.14962 0.68703 0.1488 0.0
C610 C 0.14701 0.67441 0.12679 0.0
C611 C 0.15463 0.70619 0.1446 0.0
C612 C 0.15706 0.71321 0.11829 0.0
C613 C 0.15487 0.70062 0.0962 0.0
C614 C 0.1501 0.68129 0.10043 0.0
C615 C 0.16045 0.734 0.11431 0.0
C616 C 0.14493 0.74458 0.10134 0.0
C617 C 0.17719 0.74371 0.12683 0.0
C618 C 0.19441 0.73315 0.1399 0.0
C619 C 0.20503 0.7187 0.1257 0.0
C620 C 0.221 0.70857 0.13822 0.0
C621 C 0.22658 0.71282 0.16491 0.0
C622 C 0.21623 0.72725 0.17912 0.0
C623 C 0.20023 0.73741 0.16671 0.0
H624 H 0.23894 0.70495 0.17457 0.0
H625 H 0.07954 0.80227 0.0616 0.0
H626 H 0.41593 0.89142 0.371 0.0
H627 H 0.45294 0.89791 0.36605 0.0
H628 H 0.46164 0.89016 0.45176 0.0
H629 H 0.42479 0.8837 0.45698 0.0
H630 H 0.4844 0.92087 0.43162 0.0
H631 H 0.47085 0.85411 0.41035 0.0
H632 H 0.45362 0.82789 0.38532 0.0
H633 H 0.47793 0.84927 0.31064 0.0
H634 H 0.49504 0.87582 0.33523 0.0
H635 H 0.5853 0.88818 0.45479 0.0
H636 H 0.54825 0.89338 0.45 0.0
H637 H 0.5553 0.89921 0.36375 0.0
H638 H 0.59262 0.89393 0.36829 0.0
H639 H 0.52451 0.874 0.37718 0.0
H640 H 0.54298 0.93782 0.39979 0.0
H641 H 0.56069 0.96352 0.42527 0.0
H642 H 0.5278 0.94792 0.49715 0.0
H643 H 0.51007 0.92194 0.47219 0.0
C644 C 0.42566 0.89131 0.38886 0.0
C645 C 0.41739 0.88687 0.41436 0.0
C646 C 0.44681 0.89501 0.38597 0.0
C647 C 0.46002 0.8944 0.40852 0.0
C648 C 0.45169 0.89075 0.43412 0.0
C649 C 0.43062 0.88693 0.43701 0.0
C650 C 0.48272 0.89617 0.40541 0.0
C651 C 0.49321 0.91064 0.41976 0.0
C652 C 0.49412 0.88311 0.38932 0.0
C653 C 0.484 0.86707 0.37457 0.0
C654 C 0.47238 0.85331 0.38857 0.0
C655 C 0.46265 0.83837 0.37447 0.0
C656 C 0.46463 0.83695 0.34639 0.0
C657 C 0.47638 0.85042 0.33238 0.0
C658 C 0.48609 0.86541 0.34638 0.0
C659 C 0.57908 0.89076 0.43478 0.0
C660 C 0.59197 0.89058 0.41191 0.0
C661 C 0.55788 0.89385 0.43211 0.0
C662 C 0.54905 0.89684 0.40655 0.0
C663 C 0.56185 0.89701 0.38367 0.0
C664 C 0.58316 0.89405 0.38634 0.0
C665 C 0.52628 0.89846 0.40387 0.0
C666 C 0.51574 0.88456 0.38852 0.0
C667 C 0.51487 0.91206 0.41903 0.0
C668 C 0.52527 0.92784 0.43412 0.0
C669 C 0.53961 0.93978 0.42107 0.0
C670 C 0.54965 0.95441 0.43542 0.0
C671 C 0.54542 0.95732 0.46283 0.0
C672 C 0.53107 0.94564 0.47592 0.0
C673 C 0.52098 0.93098 0.46166 0.0
H674 H 0.55324 0.96864 0.47391 0.0
H675 H 0.45709 0.82537 0.33551 0.0
H676 H 0.35043 0.33747 0.57238 0.0
H677 H 0.3463 0.30485 0.55438 0.0
H678 H 0.33785 0.28365 0.63528 0.0
H679 H 0.34228 0.31602 0.65346 0.0
H680 H 0.37224 0.27309 0.56925 0.0
H681 H 0.30099 0.24767 0.62989 0.0
H682 H 0.26851 0.261 0.64801 0.0
H683 H 0.26864 0.3041 0.58654 0.0
H684 H 0.30094 0.29086 0.5678 0.0
H685 H 0.37007 0.17423 0.59576 0.0
H686 H 0.37144 0.20891 0.59214 0.0
H687 H 0.31476 0.20815 0.54574 0.0
H688 H 0.31261 0.17333 0.55141 0.0
H689 H 0.31079 0.23187 0.5838 0.0
H690 H 0.36689 0.2326 0.51414 0.0
H691 H 0.40025 0.22211 0.49458 0.0
H692 H 0.42993 0.23027 0.57158 0.0
H693 H 0.3969 0.24126 0.59126 0.0
C694 C 0.34743 0.32588 0.58629 0.0
C695 C 0.34674 0.32928 0.61434 0.0
C696 C 0.34516 0.30729 0.57598 0.0
C697 C 0.34168 0.29193 0.59351 0.0
C698 C 0.34036 0.29537 0.62142 0.0
C699 C 0.34298 0.31385 0.63176 0.0
C700 C 0.34074 0.27205 0.5831 0.0
C701 C 0.35872 0.26409 0.57203 0.0
C702 C 0.32308 0.26043 0.58665 0.0
C703 C 0.30348 0.26834 0.59757 0.0
C704 C 0.29403 0.25992 0.62015 0.0
C705 C 0.27566 0.26748 0.63055 0.0
C706 C 0.26654 0.28341 0.61847 0.0
C707 C 0.27575 0.2918 0.59593 0.0
C708 C 0.29411 0.28429 0.58544 0.0
C709 C 0.35824 0.18146 0.58411 0.0
C710 C 0.34156 0.17112 0.57314 0.0
C711 C 0.35918 0.20132 0.58167 0.0
C712 C 0.34353 0.21132 0.56799 0.0
C713 C 0.32719 0.20083 0.55612 0.0
C714 C 0.32605 0.18092 0.55906 0.0
C715 C 0.34249 0.23259 0.57016 0.0
C716 C 0.32417 0.24086 0.58014 0.0
C717 C 0.35984 0.24455 0.56559 0.0
C718 C 0.37943 0.23726 0.55421 0.0
C719 C 0.38053 0.23192 0.52687 0.0
C720 C 0.39939 0.22608 0.51574 0.0
C721 C 0.41713 0.22531 0.5319 0.0
C722 C 0.41615 0.23073 0.55912 0.0
C723 C 0.39742 0.23689 0.5702 0.0
H724 H 0.43166 0.22064 0.52328 0.0
H725 H 0.25233 0.28924 0.62656 0.0
H726 H 0.08854 0.13526 0.93755 0.0
H727 H 0.0508 0.13439 0.94276 0.0
H728 H 0.04761 0.08737 0.88559 0.0
H729 H 0.0852 0.08754 0.88201 0.0
H730 H 0.0238 0.14268 0.90975 0.0
H731 H 0.0055 0.06175 0.88786 0.0
H732 H 0.01933 0.03015 0.90038 0.0
H733 H 0.04755 0.05469 0.97132 0.0
H734 H 0.03365 0.08638 0.95945 0.0
H735 H 0.92392 0.09008 0.85636 0.0
H736 H 0.9611 0.09264 0.86533 0.0
H737 H 0.94914 0.13733 0.92391 0.0
H738 H 0.91253 0.13638 0.91229 0.0
H739 H 0.97949 0.08477 0.90957 0.0
H740 H 0.97814 0.15869 0.93912 0.0
H741 H 0.96752 0.19171 0.9282 0.0
H742 H 0.98296 0.18201 0.84483 0.0
H743 H 0.99334 0.14883 0.85541 0.0
C744 C 0.07964 0.12463 0.92647 0.0
C745 C 0.08942 0.112 0.9085 0.0
C746 C 0.05814 0.1241 0.92942 0.0
C747 C 0.0462 0.11079 0.91463 0.0
C748 C 0.05631 0.09752 0.89774 0.0
C749 C 0.07776 0.0979 0.89515 0.0
C750 C 0.02323 0.11203 0.91437 0.0
C751 C 0.01417 0.12997 0.91004 0.0
C752 C 0.01041 0.0956 0.91517 0.0
C753 C 0.01859 0.07649 0.92267 0.0
C754 C 0.01453 0.06039 0.90623 0.0
C755 C 0.02242 0.04246 0.91319 0.0
C756 C 0.03434 0.04042 0.9366 0.0
C757 C 0.03836 0.0563 0.95315 0.0
C758 C 0.0305 0.07426 0.94629 0.0
C759 C 0.9295 0.10122 0.86987 0.0
C760 C 0.9156 0.11379 0.88242 0.0
C761 C 0.95068 0.10247 0.87545 0.0
C762 C 0.95825 0.11571 0.8947 0.0
C763 C 0.94416 0.12787 0.9078 0.0
C764 C 0.9231 0.12708 0.90149 0.0
C765 C 0.98045 0.11522 0.90286 0.0
C766 C 0.98926 0.09741 0.90917 0.0
C767 C 0.99306 0.13179 0.90428 0.0
C768 C 0.98547 0.15111 0.89772 0.0
C769 C 0.9788 0.16353 0.91838 0.0
C770 C 0.97292 0.18226 0.9123 0.0
C771 C 0.97426 0.18887 0.88575 0.0
C772 C 0.98162 0.17679 0.8653 0.0
C773 C 0.98728 0.15798 0.87128 0.0
H774 H 0.96981 0.20341 0.88107 0.0
H775 H 0.04045 0.02653 0.94194 0.0
H776 H 0.18665 0.33181 0.92129 0.0
H777 H 0.18951 0.29672 0.92124 0.0
H778 H 0.12719 0.29225 0.89026 0.0
H779 H 0.12436 0.32726 0.89042 0.0
H780 H 0.13427 0.26666 0.93089 0.0
H781 H 0.16652 0.28738 0.84849 0.0
H782 H 0.19131 0.30597 0.82141 0.0
H783 H 0.242 0.27898 0.8624 0.0
H784 H 0.21747 0.26041 0.89003 0.0
H785 H 0.14987 0.17825 0.84467 0.0
H786 H 0.15602 0.21225 0.85259 0.0
H787 H 0.16492 0.2016 0.93764 0.0
H788 H 0.15874 0.16731 0.92984 0.0
H789 H 0.1871 0.23456 0.87387 0.0
H790 H 0.13807 0.23892 0.97069 0.0
H791 H 0.11077 0.22063 0.99394 0.0
H792 H 0.08973 0.1979 0.91776 0.0
H793 H 0.11664 0.21631 0.89405 0.0
C794 C 0.1735 0.32323 0.91493 0.0
C795 C 0.15504 0.33201 0.90674 0.0
C796 C 0.17519 0.30327 0.91469 0.0
C797 C 0.15851 0.2919 0.90589 0.0
C798 C 0.14014 0.30076 0.89743 0.0
C799 C 0.13854 0.32068 0.89746 0.0
C800 C 0.1603 0.27078 0.90447 0.0
C801 C 0.14601 0.25964 0.91875 0.0
C802 C 0.17539 0.26164 0.88824 0.0
C803 C 0.19017 0.27267 0.87154 0.0
C804 C 0.18295 0.28552 0.85188 0.0
C805 C 0.19695 0.29604 0.83641 0.0
C806 C 0.21822 0.2937 0.84023 0.0
C807 C 0.22552 0.2808 0.85949 0.0
C808 C 0.21158 0.27027 0.87506 0.0
C809 C 0.15344 0.18306 0.86503 0.0
C810 C 0.1536 0.17011 0.88669 0.0
C811 C 0.1571 0.2025 0.86948 0.0
C812 C 0.16074 0.20947 0.89571 0.0
C813 C 0.16201 0.19649 0.91725 0.0
C814 C 0.15855 0.17692 0.91275 0.0
C815 C 0.16116 0.23044 0.90049 0.0
C816 C 0.17578 0.24157 0.8867 0.0
C817 C 0.14609 0.2396 0.91673 0.0
C818 C 0.12958 0.22875 0.93068 0.0
C819 C 0.12758 0.23004 0.95892 0.0
C820 C 0.11216 0.21967 0.97217 0.0
C821 C 0.09859 0.20804 0.95735 0.0
C822 C 0.10031 0.20685 0.92923 0.0
C823 C 0.11565 0.21724 0.91588 0.0
H824 H 0.08669 0.19999 0.96764 0.0
H825 H 0.22903 0.30186 0.82822 0.0
H826 H 0.91874 0.9146 0.11875 0.0
H827 H 0.9564 0.91343 0.11526 0.0
H828 H 0.9513 0.86734 0.05684 0.0
H829 H 0.91356 0.86785 0.06181 0.0
H830 H 0.97918 0.8583 0.08922 0.0
H831 H 0.96755 0.91501 0.04024 0.0
H832 H 0.95323 0.94685 0.0301 0.0
H833 H 0.98451 0.97058 0.09935 0.0
H834 H 0.99881 0.93882 0.11015 0.0
H835 H 0.09104 0.8653 0.07728 0.0
H836 H 0.05415 0.86447 0.06712 0.0
H837 H 0.04331 0.90721 0.12886 0.0
H838 H 0.08064 0.90999 0.13606 0.0
H839 H 0.0238 0.91593 0.08522 0.0
H840 H 0.01 0.84937 0.13819 0.0
H841 H 0.0216 0.81608 0.14566 0.0
H842 H 0.03791 0.81096 0.06183 0.0
H843 H 0.02593 0.84401 0.05392 0.0
C844 C 0.92578 0.90409 0.10548 0.0
C845 C 0.91355 0.89073 0.0915 0.0
C846 C 0.94727 0.90368 0.10298 0.0
C847 C 0.95682 0.89038 0.08559 0.0
C848 C 0.94438 0.87763 0.07056 0.0
C849 C 0.92288 0.87791 0.07336 0.0
C850 C 0.97975 0.88896 0.08459 0.0
C851 C 0.9889 0.87093 0.08799 0.0
C852 C 0.99261 0.9053 0.08256 0.0
C853 C 0.98418 0.92449 0.07607 0.0
C854 C 0.97129 0.92699 0.0534 0.0
C855 C 0.96319 0.94503 0.04752 0.0
C856 C 0.96794 0.96073 0.06409 0.0
C857 C 0.98085 0.95842 0.08653 0.0
C858 C 0.98899 0.9404 0.09251 0.0
C859 C 0.08066 0.87422 0.08903 0.0
C860 C 0.08851 0.88698 0.10857 0.0
C861 C 0.05944 0.87342 0.08361 0.0
C862 C 0.04556 0.88497 0.09818 0.0
C863 C 0.05354 0.89778 0.1177 0.0
C864 C 0.07484 0.89913 0.12228 0.0
C865 C 0.02309 0.88543 0.09146 0.0
C866 C 0.01402 0.90333 0.08634 0.0
C867 C 0.01032 0.86892 0.09117 0.0
C868 C 0.0183 0.84943 0.09589 0.0
C869 C 0.01647 0.8412 0.12154 0.0
C870 C 0.02285 0.82233 0.12577 0.0
C871 C 0.03089 0.81153 0.10435 0.0
C872 C 0.03206 0.81944 0.07852 0.0
C873 C 0.02545 0.83821 0.07417 0.0
H874 H 0.03595 0.79698 0.10769 0.0
H875 H 0.96164 0.97468 0.05951 0.0
H876 H 0.34798 0.67374 0.33248 0.0
H877 H 0.34429 0.70768 0.34325 0.0
H878 H 0.35154 0.6955 0.42812 0.0
H879 H 0.35522 0.66134 0.41753 0.0
H880 H 0.31788 0.72918 0.37544 0.0
H881 H 0.38452 0.73214 0.45276 0.0
H882 H 0.41558 0.71366 0.46526 0.0
H883 H 0.42078 0.69284 0.38364 0.0
H884 H 0.39002 0.71148 0.37057 0.0
H885 H 0.32543 0.82592 0.42088 0.0
H886 H 0.32313 0.79089 0.42192 0.0
H887 H 0.38028 0.78704 0.37721 0.0
H888 H 0.38295 0.82204 0.37732 0.0
H889 H 0.37993 0.7608 0.41489 0.0
H890 H 0.33115 0.78302 0.34702 0.0
H891 H 0.30113 0.80172 0.33144 0.0
H892 H 0.26203 0.77237 0.38775 0.0
H893 H 0.29192 0.75369 0.40392 0.0
C894 C 0.3485 0.6782 0.35349 0.0
C895 C 0.35206 0.66485 0.37414 0.0
C896 C 0.34627 0.69761 0.35961 0.0
C897 C 0.34781 0.70409 0.38643 0.0
C898 C 0.35042 0.69075 0.40726 0.0
C899 C 0.35245 0.67125 0.40118 0.0
C900 C 0.34833 0.72493 0.39206 0.0
C901 C 0.33134 0.7361 0.38433 0.0
C902 C 0.36601 0.73393 0.40336 0.0
C903 C 0.38478 0.72297 0.41082 0.0
C904 C 0.39234 0.72366 0.43748 0.0
C905 C 0.4099 0.71317 0.44466 0.0
C906 C 0.42009 0.70201 0.42529 0.0
C907 C 0.41282 0.70142 0.39865 0.0
C908 C 0.39532 0.71194 0.39136 0.0
C909 C 0.3377 0.81749 0.4119 0.0
C910 C 0.35475 0.82647 0.39991 0.0
C911 C 0.33626 0.79753 0.41216 0.0
C912 C 0.35151 0.78631 0.39956 0.0
C913 C 0.36845 0.79538 0.38732 0.0
C914 C 0.36995 0.81531 0.38726 0.0
C915 C 0.34954 0.76516 0.39796 0.0
C916 C 0.36628 0.7539 0.40648 0.0
C917 C 0.33177 0.7561 0.38691 0.0
C918 C 0.31378 0.76711 0.37685 0.0
C919 C 0.31617 0.78063 0.35616 0.0
C920 C 0.29917 0.79122 0.34722 0.0
C921 C 0.27968 0.78827 0.35865 0.0
C922 C 0.27714 0.77467 0.37895 0.0
C923 C 0.29409 0.76407 0.388 0.0
H924 H 0.26653 0.79649 0.35179 0.0
H925 H 0.43365 0.69387 0.43089 0.0
H926 H 0.57092 0.14242 0.60383 0.0
H927 H 0.53327 0.1412 0.60217 0.0
H928 H 0.53565 0.08065 0.61952 0.0
H929 H 0.57286 0.08302 0.6261 0.0
H930 H 0.51185 0.12778 0.56924 0.0
H931 H 0.50175 0.06061 0.62366 0.0
H932 H 0.50631 0.04234 0.66586 0.0
H933 H 0.49864 0.09392 0.71242 0.0
H934 H 0.49532 0.1126 0.67038 0.0
H935 H 0.40784 0.10704 0.53405 0.0
H936 H 0.44498 0.10358 0.54246 0.0
H937 H 0.43547 0.1173 0.62677 0.0
H938 H 0.39843 0.11995 0.61876 0.0
H939 H 0.46204 0.09051 0.62368 0.0
H940 H 0.4533 0.15075 0.57905 0.0
H941 H 0.44175 0.17205 0.54244 0.0
H942 H 0.48024 0.14176 0.48597 0.0
H943 H 0.49178 0.12008 0.52219 0.0
C944 C 0.56314 0.12917 0.60882 0.0
C945 C 0.57456 0.11305 0.61623 0.0
C946 C 0.54159 0.12828 0.60735 0.0
C947 C 0.53102 0.1108 0.61094 0.0
C948 C 0.54271 0.09459 0.61811 0.0
C949 C 0.56419 0.09584 0.62142 0.0
C950 C 0.50844 0.10945 0.60409 0.0
C951 C 0.5011 0.11975 0.58156 0.0
C952 C 0.49394 0.09865 0.61922 0.0
C953 C 0.49922 0.08806 0.64399 0.0
C954 C 0.50172 0.06809 0.64293 0.0
C955 C 0.5041 0.05769 0.66678 0.0
C956 C 0.50313 0.06703 0.69181 0.0
C957 C 0.49985 0.08678 0.693 0.0
C958 C 0.49813 0.09733 0.66918 0.0
C959 C 0.41369 0.10918 0.5544 0.0
C960 C 0.40021 0.1138 0.57573 0.0
C961 C 0.43492 0.10728 0.55916 0.0
C962 C 0.44309 0.11045 0.58518 0.0
C963 C 0.42957 0.11472 0.60653 0.0
C964 C 0.40836 0.11627 0.60191 0.0
C965 C 0.46572 0.10982 0.59035 0.0
C966 C 0.47298 0.09878 0.6119 0.0
C967 C 0.47998 0.12056 0.57505 0.0
C968 C 0.47323 0.13367 0.55326 0.0
C969 C 0.45919 0.14855 0.55878 0.0
C970 C 0.45266 0.1607 0.53811 0.0
C971 C 0.46021 0.15823 0.51188 0.0
C972 C 0.47437 0.14364 0.50629 0.0
C973 C 0.48092 0.13142 0.52688 0.0
H974 H 0.45514 0.16764 0.4959 0.0
H975 H 0.50469 0.05894 0.71029 0.0
H976 H 0.84311 0.16358 0.90472 0.0
H977 H 0.83851 0.19789 0.91371 0.0
H978 H 0.85594 0.21031 0.83154 0.0
H979 H 0.86073 0.17637 0.82246 0.0
H980 H 0.87876 0.23023 0.86779 0.0
H981 H 0.80634 0.21515 0.85306 0.0
H982 H 0.77364 0.19824 0.86238 0.0
H983 H 0.77393 0.22026 0.94367 0.0
H984 H 0.8068 0.23711 0.93493 0.0
H985 H 0.85609 0.3228 0.83574 0.0
H986 H 0.85104 0.28842 0.83937 0.0
H987 H 0.84239 0.29413 0.92547 0.0
H988 H 0.84739 0.32897 0.92204 0.0
H989 H 0.8157 0.26505 0.897 0.0
H990 H 0.88689 0.28237 0.90999 0.0
H991 H 0.91919 0.29958 0.8997 0.0
H992 H 0.9211 0.273 0.82118 0.0
H993 H 0.88862 0.25581 0.83088 0.0
C994 C 0.84563 0.17361 0.88845 0.0
C995 C 0.8525 0.16722 0.86294 0.0
C996 C 0.84296 0.1932 0.89363 0.0
C997 C 0.84699 0.20663 0.87332 0.0
C998 C 0.85291 0.20019 0.84757 0.0
C999 C 0.85563 0.18074 0.84242 0.0
C1000 C 0.84671 0.22749 0.87898 0.0
C1001 C 0.86492 0.23781 0.8741 0.0
C1002 C 0.8289 0.2373 0.88822 0.0
C1003 C 0.80915 0.22719 0.89345 0.0
C1004 C 0.79953 0.21624 0.873 0.0
C1005 C 0.78094 0.2067 0.87816 0.0
C1006 C 0.77175 0.20812 0.90363 0.0
C1007 C 0.78109 0.21914 0.92397 0.0
C1008 C 0.79969 0.22869 0.91892 0.0
C1009 C 0.85283 0.31687 0.85546 0.0
C1010 C 0.8525 0.32858 0.87869 0.0
C1011 C 0.84986 0.29721 0.85746 0.0
C1012 C 0.84665 0.28876 0.88271 0.0
C1013 C 0.84488 0.30045 0.9058 0.0
C1014 C 0.84778 0.3203 0.90381 0.0
C1015 C 0.8475 0.26767 0.88474 0.0
C1016 C 0.82956 0.25735 0.89118 0.0
C1017 C 0.86558 0.25772 0.87694 0.0
C1018 C 0.88525 0.26789 0.87112 0.0
C1019 C 0.89412 0.2803 0.89046 0.0
C1020 C 0.91247 0.29004 0.88474 0.0
C1021 C 0.92219 0.28741 0.85978 0.0
C1022 C 0.91357 0.27501 0.84051 0.0
C1023 C 0.8952 0.26525 0.84613 0.0
H1024 H 0.93642 0.29492 0.85537 0.0
H1025 H 0.75735 0.20073 0.90758 0.0
H1026 H 0.67133 0.67163 0.35 0.0
H1027 H 0.67603 0.7061 0.35617 0.0
H1028 H 0.6435 0.70331 0.43227 0.0
H1029 H 0.6401 0.66856 0.42682 0.0
H1030 H 0.64944 0.73126 0.35517 0.0
H1031 H 0.65332 0.74219 0.47217 0.0
H1032 H 0.66796 0.72624 0.51222 0.0
H1033 H 0.71326 0.6984 0.46232 0.0
H1034 H 0.69909 0.71438 0.42203 0.0
H1035 H 0.62236 0.82604 0.38249 0.0
H1036 H 0.62426 0.79105 0.38412 0.0
H1037 H 0.68662 0.79498 0.41533 0.0
H1038 H 0.68416 0.83 0.41504 0.0
H1039 H 0.66883 0.76687 0.43857 0.0
H1040 H 0.67566 0.78578 0.34676 0.0
H1041 H 0.66635 0.80234 0.30458 0.0
H1042 H 0.60939 0.77073 0.30029 0.0
H1043 H 0.61824 0.75415 0.34266 0.0
C1044 C 0.66568 0.67838 0.36834 0.0
C1045 C 0.65547 0.66757 0.38803 0.0
C1046 C 0.66824 0.69807 0.37182 0.0
C1047 C 0.66015 0.70744 0.39471 0.0
C1048 C 0.65034 0.69648 0.41473 0.0
C1049 C 0.64831 0.67664 0.4116 0.0
C1050 C 0.66037 0.72874 0.39627 0.0
C1051 C 0.65381 0.73897 0.37344 0.0
C1052 C 0.66629 0.73898 0.4199 0.0
C1053 C 0.67496 0.72931 0.44402 0.0
C1054 C 0.66643 0.73269 0.46975 0.0
C1055 C 0.67465 0.72365 0.4925 0.0
C1056 C 0.69147 0.71126 0.4898 0.0
C1057 C 0.70016 0.70793 0.46436 0.0
C1058 C 0.69202 0.71696 0.44155 0.0
C1059 C 0.63629 0.81932 0.39008 0.0
C1060 C 0.65291 0.83049 0.39928 0.0
C1061 C 0.63747 0.79939 0.39081 0.0
C1062 C 0.65573 0.79033 0.39941 0.0
C1063 C 0.67235 0.80159 0.40869 0.0
C1064 C 0.67096 0.82155 0.40856 0.0
C1065 C 0.65775 0.76918 0.39762 0.0
C1066 C 0.66459 0.75904 0.42037 0.0
C1067 C 0.65288 0.75899 0.37359 0.0
C1068 C 0.64754 0.76884 0.348 0.0
C1069 C 0.66109 0.78244 0.33691 0.0
C1070 C 0.6559 0.79183 0.31296 0.0
C1071 C 0.63727 0.78762 0.2998 0.0
C1072 C 0.62381 0.77399 0.31052 0.0
C1073 C 0.62891 0.76458 0.33449 0.0
H1074 H 0.63328 0.79491 0.28126 0.0
H1075 H 0.69781 0.70426 0.50744 0.0
H1076 H 0.81406 0.67437 0.05949 0.0
H1077 H 0.81337 0.70932 0.05419 0.0
H1078 H 0.87409 0.71312 0.09003 0.0
H1079 H 0.87531 0.6783 0.09373 0.0
H1080 H 0.81924 0.73161 0.10494 0.0
H1081 H 0.89222 0.73293 0.06179 0.0
H1082 H 0.91662 0.72701 0.02451 0.0
H1083 H 0.87181 0.74754 0.96743 0.0
H1084 H 0.84676 0.75264 0.00438 0.0
H1085 H 0.85665 0.82224 0.14569 0.0
H1086 H 0.85 0.78895 0.13363 0.0
H1087 H 0.83272 0.80584 0.05296 0.0
H1088 H 0.83951 0.83936 0.06477 0.0
H1089 H 0.86112 0.77773 0.05242 0.0
H1090 H 0.79639 0.7884 0.09521 0.0
H1091 H 0.77264 0.79928 0.13106 0.0
H1092 H 0.80008 0.75969 0.18661 0.0
H1093 H 0.82421 0.74876 0.15121 0.0
C1094 C 0.82765 0.68265 0.06485 0.0
C1095 C 0.84509 0.67366 0.07595 0.0
C1096 C 0.82724 0.70258 0.06192 0.0
C1097 C 0.8441 0.71382 0.07056 0.0
C1098 C 0.86147 0.70477 0.08167 0.0
C1099 C 0.862 0.68488 0.08424 0.0
C1100 C 0.84186 0.73483 0.07338 0.0
C1101 C 0.82836 0.74172 0.09341 0.0
C1102 C 0.85339 0.74805 0.05798 0.0
C1103 C 0.86729 0.74231 0.0357 0.0
C1104 C 0.88723 0.73536 0.04121 0.0
C1105 C 0.90128 0.73238 0.02016 0.0
C1106 C 0.89573 0.73676 0.99358 0.0
C1107 C 0.87606 0.74404 0.98799 0.0
C1108 C 0.86185 0.74673 0.00893 0.0
C1109 C 0.85116 0.81898 0.12546 0.0
C1110 C 0.84873 0.83352 0.10615 0.0
C1111 C 0.84723 0.7999 0.11866 0.0
C1112 C 0.84073 0.79492 0.09246 0.0
C1113 C 0.83767 0.80941 0.07333 0.0
C1114 C 0.84151 0.82856 0.08015 0.0
C1115 C 0.83902 0.77446 0.08457 0.0
C1116 C 0.85171 0.76768 0.06367 0.0
C1117 C 0.82675 0.76137 0.0992 0.0
C1118 C 0.81221 0.76784 0.12056 0.0
C1119 C 0.79747 0.78211 0.11512 0.0
C1120 C 0.78392 0.78827 0.13536 0.0
C1121 C 0.78487 0.7802 0.1611 0.0
C1122 C 0.79936 0.76593 0.16665 0.0
C1123 C 0.81296 0.75972 0.14649 0.0
H1124 H 0.77437 0.785 0.17674 0.0
H1125 H 0.90669 0.7346 0.97734 0.0
H1126 H 0.65142 0.33362 0.58269 0.0
H1127 H 0.65671 0.29926 0.57469 0.0
H1128 H 0.65026 0.28882 0.66012 0.0
H1129 H 0.64508 0.32284 0.6683 0.0
H1130 H 0.68151 0.26752 0.63786 0.0
H1131 H 0.60977 0.2834 0.61865 0.0
H1132 H 0.58217 0.30075 0.59458 0.0
H1133 H 0.60365 0.27797 0.51883 0.0
H1134 H 0.63159 0.26071 0.54246 0.0
H1135 H 0.6387 0.17856 0.66536 0.0
H1136 H 0.6468 0.21211 0.65818 0.0
H1137 H 0.65199 0.20176 0.57239 0.0
H1138 H 0.64371 0.16783 0.57936 0.0
H1139 H 0.62769 0.23316 0.58464 0.0
H1140 H 0.695 0.21125 0.60736 0.0
H1141 H 0.72127 0.19357 0.63336 0.0
H1142 H 0.70747 0.22721 0.704 0.0
H1143 H 0.68089 0.24491 0.67857 0.0
C1144 C 0.65139 0.32402 0.59979 0.0
C1145 C 0.64764 0.33098 0.62611 0.0
C1146 C 0.65437 0.30441 0.59517 0.0
C1147 C 0.65376 0.2915 0.61681 0.0
C1148 C 0.65086 0.29853 0.64314 0.0
C1149 C 0.64774 0.31801 0.64774 0.0
C1150 C 0.65471 0.27051 0.61231 0.0
C1151 C 0.66982 0.25998 0.62615 0.0
C1152 C 0.63977 0.26073 0.59643 0.0
C1153 C 0.62292 0.27098 0.58226 0.0
C1154 C 0.6087 0.28222 0.59684 0.0
C1155 C 0.59299 0.29202 0.58329 0.0
C1156 C 0.5912 0.29051 0.55518 0.0
C1157 C 0.60509 0.27916 0.54059 0.0
C1158 C 0.62087 0.26937 0.55405 0.0
C1159 C 0.64167 0.18329 0.64491 0.0
C1160 C 0.64051 0.17045 0.62291 0.0
C1161 C 0.64646 0.2025 0.64089 0.0
C1162 C 0.65026 0.20939 0.6148 0.0
C1163 C 0.64924 0.19668 0.59271 0.0
C1164 C 0.64456 0.17731 0.59675 0.0
C1165 C 0.65408 0.23012 0.61097 0.0
C1166 C 0.63984 0.24064 0.59563 0.0
C1167 C 0.66975 0.23989 0.62565 0.0
C1168 C 0.68589 0.22939 0.64102 0.0
C1169 C 0.69748 0.21482 0.62848 0.0
C1170 C 0.71244 0.2048 0.64311 0.0
C1171 C 0.71606 0.20928 0.6703 0.0
C1172 C 0.70469 0.22378 0.68291 0.0
C1173 C 0.6897 0.23384 0.66838 0.0
H1174 H 0.72767 0.20154 0.68158 0.0
H1175 H 0.57902 0.2981 0.54472 0.0
H1176 H 0.08461 0.36707 0.9626 0.0
H1177 H 0.04709 0.36934 0.95815 0.0
H1178 H 0.05414 0.40791 0.89113 0.0
H1179 H 0.09182 0.40554 0.89506 0.0
H1180 H 0.02258 0.41834 0.93148 0.0
H1181 H 0.04466 0.36561 0.87489 0.0
H1182 H 0.0634 0.33554 0.86582 0.0
H1183 H 0.02774 0.30708 0.92669 0.0
H1184 H 0.00903 0.33709 0.93646 0.0
H1185 H 0.91986 0.41238 0.88133 0.0
H1186 H 0.95749 0.41343 0.88677 0.0
H1187 H 0.95469 0.36333 0.93736 0.0
H1188 H 0.91714 0.36177 0.93055 0.0
H1189 H 0.98482 0.35927 0.9046 0.0
H1190 H 0.96297 0.41059 0.96248 0.0
H1191 H 0.94462 0.44037 0.97452 0.0
H1192 H 0.9795 0.47108 0.91508 0.0
H1193 H 0.99788 0.44142 0.90244 0.0
C1194 C 0.07826 0.37617 0.94702 0.0
C1195 C 0.09126 0.38597 0.92899 0.0
C1196 C 0.05681 0.37743 0.94453 0.0
C1197 C 0.04795 0.38866 0.92419 0.0
C1198 C 0.06077 0.39915 0.90692 0.0
C1199 C 0.08227 0.3977 0.90914 0.0
C1200 C 0.02531 0.38866 0.9202 0.0
C1201 C 0.01426 0.40554 0.92525 0.0
C1202 C 0.01459 0.37178 0.91274 0.0
C1203 C 0.0256 0.35365 0.90661 0.0
C1204 C 0.04094 0.35298 0.88651 0.0
C1205 C 0.05154 0.33594 0.88121 0.0
C1206 C 0.04681 0.31942 0.89573 0.0
C1207 C 0.03141 0.3199 0.9155 0.0
C1208 C 0.0208 0.33692 0.92091 0.0
C1209 C 0.92744 0.40144 0.89318 0.0
C1210 C 0.91596 0.38652 0.90457 0.0
C1211 C 0.94885 0.40224 0.89672 0.0
C1212 C 0.95898 0.38851 0.91262 0.0
C1213 C 0.94728 0.37397 0.92481 0.0
C1214 C 0.9259 0.37308 0.92099 0.0
C1215 C 0.98179 0.38898 0.91602 0.0
C1216 C 0.99298 0.37215 0.91078 0.0
C1217 C 0.99258 0.40587 0.92366 0.0
C1218 C 0.98166 0.42375 0.93135 0.0
C1219 C 0.96663 0.42367 0.95186 0.0
C1220 C 0.95624 0.44053 0.95881 0.0
C1221 C 0.96086 0.45759 0.94553 0.0
C1222 C 0.97592 0.45784 0.92533 0.0
C1223 C 0.98635 0.44102 0.91828 0.0
H1224 H 0.95279 0.47063 0.95093 0.0
H1225 H 0.05504 0.30625 0.89161 0.0
H1226 H 0.58684 0.63165 0.41716 0.0
H1227 H 0.54926 0.62841 0.41353 0.0
H1228 H 0.55701 0.57347 0.37399 0.0
H1229 H 0.59452 0.57787 0.37523 0.0
H1230 H 0.53003 0.58822 0.3496 0.0
H1231 H 0.53667 0.58143 0.44328 0.0
H1232 H 0.54793 0.58814 0.49008 0.0
H1233 H 0.51524 0.64159 0.48917 0.0
H1234 H 0.50401 0.63534 0.44223 0.0
H1235 H 0.4182 0.57993 0.3525 0.0
H1236 H 0.45561 0.57595 0.35492 0.0
H1237 H 0.46126 0.63197 0.3918 0.0
H1238 H 0.42359 0.6348 0.39219 0.0
H1239 H 0.481 0.60932 0.42027 0.0
H1240 H 0.49826 0.61559 0.31387 0.0
H1241 H 0.49625 0.60399 0.26662 0.0
H1242 H 0.48466 0.54692 0.29446 0.0
H1243 H 0.48805 0.55803 0.34178 0.0
C1244 C 0.58035 0.61898 0.40762 0.0
C1245 C 0.59329 0.60527 0.39578 0.0
C1246 C 0.55888 0.61691 0.40597 0.0
C1247 C 0.55003 0.60049 0.39389 0.0
C1248 C 0.56324 0.58636 0.38321 0.0
C1249 C 0.58467 0.58883 0.38391 0.0
C1250 C 0.52715 0.59883 0.3904 0.0
C1251 C 0.51942 0.59295 0.36515 0.0
C1252 C 0.51295 0.60413 0.41084 0.0
C1253 C 0.5196 0.60796 0.43914 0.0
C1254 C 0.53198 0.59467 0.45299 0.0
C1255 C 0.53835 0.59839 0.47956 0.0
C1256 C 0.53233 0.61529 0.49257 0.0
C1257 C 0.51989 0.6285 0.47906 0.0
C1258 C 0.51349 0.62486 0.45248 0.0
C1259 C 0.42759 0.59154 0.36048 0.0
C1260 C 0.41819 0.60778 0.37185 0.0
C1261 C 0.44911 0.58939 0.36151 0.0
C1262 C 0.46166 0.60377 0.37309 0.0
C1263 C 0.4521 0.62055 0.38288 0.0
C1264 C 0.43058 0.62229 0.38294 0.0
C1265 C 0.48417 0.6007 0.37847 0.0
C1266 C 0.49177 0.60518 0.40451 0.0
C1267 C 0.4983 0.59374 0.35892 0.0
C1268 C 0.49246 0.58779 0.33126 0.0
C1269 C 0.49493 0.60064 0.30985 0.0
C1270 C 0.494 0.59408 0.28309 0.0
C1271 C 0.49008 0.57477 0.27754 0.0
C1272 C 0.48744 0.56191 0.29876 0.0
C1273 C 0.48904 0.56831 0.32553 0.0
H1274 H 0.48918 0.56976 0.25681 0.0
H1275 H 0.53728 0.61814 0.51314 0.0
H1276 H 0.581 0.36646 0.5916 0.0
H1277 H 0.54316 0.36791 0.59334 0.0
H1278 H 0.54709 0.41899 0.64285 0.0
H1279 H 0.58493 0.41702 0.64185 0.0
H1280 H 0.52151 0.39664 0.6638 0.0
H1281 H 0.52955 0.41894 0.57463 0.0
H1282 H 0.54204 0.41929 0.52758 0.0
H1283 H 0.51059 0.36623 0.51143 0.0
H1284 H 0.49814 0.36541 0.5585 0.0
H1285 H 0.41097 0.4087 0.65884 0.0
H1286 H 0.44874 0.41049 0.6601 0.0
H1287 H 0.45217 0.36188 0.60588 0.0
H1288 H 0.41442 0.36108 0.60319 0.0
H1289 H 0.4739 0.38792 0.58636 0.0
H1290 H 0.49003 0.36 0.682 0.0
H1291 H 0.48995 0.3586 0.73185 0.0
H1292 H 0.47903 0.41917 0.73615 0.0
H1293 H 0.48013 0.42098 0.68634 0.0
C1294 C 0.57366 0.37794 0.60285 0.0
C1295 C 0.58564 0.39127 0.61734 0.0
C1296 C 0.55209 0.37894 0.60354 0.0
C1297 C 0.54218 0.39373 0.61791 0.0
C1298 C 0.55432 0.40745 0.63163 0.0
C1299 C 0.57587 0.40624 0.63128 0.0
C1300 C 0.51929 0.39387 0.62074 0.0
C1301 C 0.51114 0.39473 0.64685 0.0
C1302 C 0.50563 0.39158 0.59857 0.0
C1303 C 0.51303 0.39205 0.57019 0.0
C1304 C 0.52542 0.40727 0.56112 0.0
C1305 C 0.53247 0.40757 0.53442 0.0
C1306 C 0.52714 0.39278 0.51654 0.0
C1307 C 0.51471 0.37768 0.52531 0.0
C1308 C 0.50763 0.3773 0.55199 0.0
C1309 C 0.41989 0.3981 0.64785 0.0
C1310 C 0.40992 0.38461 0.63116 0.0
C1311 C 0.44155 0.39898 0.64878 0.0
C1312 C 0.45356 0.38618 0.63336 0.0
C1313 C 0.44339 0.372 0.61792 0.0
C1314 C 0.42182 0.37147 0.61642 0.0
C1315 C 0.47627 0.3891 0.62994 0.0
C1316 C 0.48434 0.38932 0.60347 0.0
C1317 C 0.49006 0.39203 0.65185 0.0
C1318 C 0.48419 0.39048 0.68052 0.0
C1319 C 0.48698 0.3729 0.69361 0.0
C1320 C 0.48735 0.37212 0.72184 0.0
C1321 C 0.48448 0.3888 0.73717 0.0
C1322 C 0.48115 0.40626 0.72427 0.0
C1323 C 0.48135 0.40717 0.69604 0.0
H1324 H 0.4847 0.38816 0.75903 0.0
H1325 H 0.53262 0.39303 0.49589 0.0
H1326 H 0.08074 0.64105 0.07513 0.0
H1327 H 0.04408 0.6398 0.06422 0.0
H1328 H 0.03409 0.60142 0.13113 0.0
H1329 H 0.07139 0.6002 0.13868 0.0
H1330 H 0.01315 0.58882 0.09552 0.0
H1331 H 0.01261 0.65683 0.1256 0.0
H1332 H 0.02463 0.69056 0.12577 0.0
H1333 H 0.01884 0.69222 0.03934 0.0
H1334 H 0.00654 0.65872 0.03887 0.0
H1335 H 0.90462 0.60372 0.10784 0.0
H1336 H 0.94218 0.60213 0.11226 0.0
H1337 H 0.94895 0.62525 0.03213 0.0
H1338 H 0.91138 0.62694 0.02745 0.0
H1339 H 0.97107 0.64513 0.06995 0.0
H1340 H 0.96277 0.57972 0.04319 0.0
H1341 H 0.94797 0.54719 0.04453 0.0
H1342 H 0.96862 0.54097 0.12658 0.0
H1343 H 0.9835 0.5735 0.12579 0.0
C1344 C 0.07058 0.63263 0.08777 0.0
C1345 C 0.07872 0.62157 0.10884 0.0
C1346 C 0.04945 0.63215 0.0818 0.0
C1347 C 0.03578 0.62114 0.09743 0.0
C1348 C 0.04402 0.61025 0.11879 0.0
C1349 C 0.06533 0.60998 0.12377 0.0
C1350 C 0.01335 0.61951 0.09016 0.0
C1351 C 0.00397 0.60129 0.09054 0.0
C1352 C 0.00123 0.63544 0.08212 0.0
C1353 C 0.0092 0.65528 0.08223 0.0
C1354 C 0.01426 0.6644 0.10671 0.0
C1355 C 0.02097 0.68345 0.10685 0.0
C1356 C 0.02277 0.69342 0.08257 0.0
C1357 C 0.01759 0.68445 0.05812 0.0
C1358 C 0.01064 0.66549 0.05793 0.0
C1359 C 0.91405 0.60823 0.09097 0.0
C1360 C 0.90493 0.61563 0.06738 0.0
C1361 C 0.93554 0.6072 0.09349 0.0
C1362 C 0.94833 0.61353 0.07249 0.0
C1363 C 0.93932 0.62029 0.04856 0.0
C1364 C 0.91783 0.62121 0.04594 0.0
C1365 C 0.97101 0.61473 0.07657 0.0
C1366 C 0.98038 0.63278 0.07521 0.0
C1367 C 0.98299 0.59871 0.08396 0.0
C1368 C 0.9741 0.57912 0.0845 0.0
C1369 C 0.96402 0.57147 0.06159 0.0
C1370 C 0.95564 0.55302 0.06224 0.0
C1371 C 0.95725 0.54206 0.08566 0.0
C1372 C 0.96735 0.54949 0.10846 0.0
C1373 C 0.97581 0.56791 0.1079 0.0
H1374 H 0.95073 0.52779 0.08612 0.0
H1375 H 0.02801 0.70814 0.08272 0.0
H1376 H 0.14145 0.54888 0.10421 0.0
H1377 H 0.1507 0.52023 0.07845 0.0
H1378 H 0.17972 0.55524 0.01787 0.0
H1379 H 0.17071 0.58416 0.04388 0.0
H1380 H 0.15083 0.52775 0.99737 0.0
H1381 H 0.21015 0.52996 0.0549 0.0
H1382 H 0.22893 0.53295 0.09819 0.0
H1383 H 0.19868 0.48245 0.12749 0.0
H1384 H 0.17947 0.47931 0.08452 0.0
H1385 H 0.17689 0.44197 0.92759 0.0
H1386 H 0.18106 0.47317 0.94967 0.0
H1387 H 0.1609 0.44901 0.02523 0.0
H1388 H 0.1573 0.41775 0.00362 0.0
H1389 H 0.19091 0.47339 0.03456 0.0
H1390 H 0.1277 0.47404 0.98216 0.0
H1391 H 0.1067 0.47096 0.94063 0.0
H1392 H 0.14191 0.51582 0.90359 0.0
H1393 H 0.1633 0.519 0.94482 0.0
C1394 C 0.14998 0.55051 0.08554 0.0
C1395 C 0.15533 0.56875 0.07602 0.0
C1396 C 0.15533 0.53411 0.07091 0.0
C1397 C 0.16599 0.53563 0.04636 0.0
C1398 C 0.17156 0.55381 0.03685 0.0
C1399 C 0.16646 0.57027 0.05174 0.0
C1400 C 0.17011 0.51815 0.03012 0.0
C1401 C 0.16001 0.51601 0.00514 0.0
C1402 C 0.18166 0.50272 0.04066 0.0
C1403 C 0.19326 0.50448 0.06652 0.0
C1404 C 0.20738 0.51957 0.07065 0.0
C1405 C 0.21813 0.52128 0.09512 0.0
C1406 C 0.21498 0.50792 0.1156 0.0
C1407 C 0.2011 0.4928 0.11161 0.0
C1408 C 0.1903 0.49103 0.08718 0.0
C1409 C 0.17353 0.44324 0.94897 0.0
C1410 C 0.16656 0.42735 0.96375 0.0
C1411 C 0.17586 0.46112 0.96155 0.0
C1412 C 0.17095 0.46354 0.98902 0.0
C1413 C 0.16478 0.44754 0.00401 0.0
C1414 C 0.16265 0.42964 0.99156 0.0
C1415 C 0.17122 0.48279 0.00204 0.0
C1416 C 0.18209 0.48525 0.02646 0.0
C1417 C 0.16012 0.49845 0.99117 0.0
C1418 C 0.14725 0.49659 0.96642 0.0
C1419 C 0.13106 0.48315 0.96508 0.0
C1420 C 0.11907 0.4814 0.94161 0.0
C1421 C 0.12301 0.49314 0.91945 0.0
C1422 C 0.13891 0.5067 0.92075 0.0
C1423 C 0.15096 0.50849 0.94416 0.0
H1424 H 0.11372 0.49177 0.9013 0.0
H1425 H 0.22331 0.50926 0.13453 0.0
H1426 H 0.68877 0.92449 0.32771 0.0
H1427 H 0.71561 0.92916 0.29327 0.0
H1428 H 0.73502 0.87046 0.30334 0.0
H1429 H 0.70952 0.86641 0.33889 0.0
H1430 H 0.76675 0.88917 0.29981 0.0
H1431 H 0.7042 0.88899 0.24687 0.0
H1432 H 0.66944 0.89979 0.23307 0.0
H1433 H 0.69343 0.95589 0.21687 0.0
H1434 H 0.72829 0.94547 0.23087 0.0
H1435 H 0.79835 0.88884 0.14845 0.0
H1436 H 0.77123 0.89211 0.18252 0.0
H1437 H 0.81583 0.91567 0.23884 0.0
H1438 H 0.84321 0.91112 0.20539 0.0
H1439 H 0.7527 0.91729 0.20985 0.0
H1440 H 0.80603 0.903 0.30201 0.0
H1441 H 0.83861 0.88622 0.31257 0.0
H1442 H 0.82896 0.84834 0.24492 0.0
H1443 H 0.79622 0.86474 0.23418 0.0
C1444 C 0.69888 0.91269 0.32247 0.0
C1445 C 0.69726 0.89515 0.33596 0.0
C1446 C 0.71411 0.91529 0.30268 0.0
C1447 C 0.72735 0.90011 0.29539 0.0
C1448 C 0.72528 0.8825 0.30868 0.0
C1449 C 0.71063 0.88015 0.32896 0.0
C1450 C 0.74368 0.90232 0.27441 0.0
C1451 C 0.76358 0.89536 0.28017 0.0
C1452 C 0.73971 0.91021 0.24859 0.0
C1453 C 0.71878 0.91652 0.24022 0.0
C1454 C 0.70202 0.90367 0.24055 0.0
C1455 C 0.68231 0.90971 0.23266 0.0
C1456 C 0.67922 0.92853 0.22418 0.0
C1457 C 0.69584 0.94133 0.2235 0.0
C1458 C 0.71558 0.93536 0.23139 0.0
C1459 C 0.80229 0.89484 0.16807 0.0
C1460 C 0.82288 0.89947 0.17448 0.0
C1461 C 0.78678 0.89678 0.18751 0.0
C1462 C 0.7915 0.90375 0.21354 0.0
C1463 C 0.81186 0.90968 0.21924 0.0
C1464 C 0.82749 0.90718 0.20009 0.0
C1465 C 0.77546 0.90361 0.23508 0.0
C1466 C 0.75577 0.91116 0.22955 0.0
C1467 C 0.77925 0.89532 0.26067 0.0
C1468 C 0.79883 0.88526 0.26712 0.0
C1469 C 0.81085 0.89106 0.28945 0.0
C1470 C 0.82934 0.88162 0.29545 0.0
C1471 C 0.83589 0.86627 0.27936 0.0
C1472 C 0.82392 0.86027 0.2573 0.0
C1473 C 0.8054 0.86965 0.25123 0.0
H1474 H 0.85022 0.85899 0.28403 0.0
H1475 H 0.66395 0.93318 0.21808 0.0
H1476 H 0.36533 0.45321 0.59277 0.0
H1477 H 0.36086 0.48042 0.56271 0.0
H1478 H 0.31052 0.45112 0.52235 0.0
H1479 H 0.31571 0.42341 0.55158 0.0
H1480 H 0.33261 0.4656 0.48644 0.0
H1481 H 0.30333 0.49158 0.56591 0.0
H1482 H 0.30049 0.50002 0.61426 0.0
H1483 H 0.35418 0.53599 0.60815 0.0
H1484 H 0.35752 0.52755 0.55985 0.0
H1485 H 0.32125 0.57538 0.4499 0.0
H1486 H 0.31405 0.54858 0.4802 0.0
H1487 H 0.36403 0.51663 0.44393 0.0
H1488 H 0.37056 0.54288 0.41293 0.0
H1489 H 0.33435 0.53313 0.51802 0.0
H1490 H 0.35728 0.46996 0.44594 0.0
H1491 H 0.35475 0.4617 0.39747 0.0
H1492 H 0.30358 0.50028 0.38857 0.0
H1493 H 0.3056 0.50857 0.43705 0.0
C1494 C 0.35316 0.45265 0.57767 0.0
C1495 C 0.34086 0.4362 0.57452 0.0
C1496 C 0.35051 0.46829 0.56057 0.0
C1497 C 0.33511 0.46804 0.54043 0.0
C1498 C 0.32252 0.45172 0.53767 0.0
C1499 C 0.32545 0.4359 0.55443 0.0
C1500 C 0.33309 0.48431 0.52129 0.0
C1501 C 0.33283 0.48035 0.4934 0.0
C1502 C 0.3327 0.50363 0.53021 0.0
C1503 C 0.33074 0.50882 0.55927 0.0
C1504 C 0.31461 0.50119 0.57491 0.0
C1505 C 0.3129 0.50599 0.60231 0.0
C1506 C 0.32717 0.51851 0.61428 0.0
C1507 C 0.34315 0.52629 0.59885 0.0
C1508 C 0.34494 0.52152 0.57145 0.0
C1509 C 0.33051 0.56253 0.44824 0.0
C1510 C 0.34635 0.56115 0.42892 0.0
C1511 C 0.32644 0.54724 0.46561 0.0
C1512 C 0.33827 0.5304 0.46415 0.0
C1513 C 0.35426 0.52918 0.44502 0.0
C1514 C 0.35807 0.54427 0.42737 0.0
C1515 C 0.3346 0.51437 0.48324 0.0
C1516 C 0.33382 0.51837 0.51109 0.0
C1517 C 0.33318 0.4951 0.47428 0.0
C1518 C 0.3317 0.48999 0.44513 0.0
C1519 C 0.34541 0.4766 0.43369 0.0
C1520 C 0.34408 0.47193 0.40619 0.0
C1521 C 0.32905 0.48049 0.38994 0.0
C1522 C 0.31526 0.4937 0.40116 0.0
C1523 C 0.31651 0.49841 0.42864 0.0
H1524 H 0.32806 0.47687 0.36866 0.0
H1525 H 0.32582 0.5222 0.63549 0.0
H1526 H 0.66371 0.10752 0.7134 0.0
H1527 H 0.69623 0.10379 0.73754 0.0
H1528 H 0.72774 0.09261 0.66236 0.0
H1529 H 0.69503 0.09636 0.63767 0.0
H1530 H 0.741 0.06893 0.70607 0.0
H1531 H 0.7324 0.13451 0.68547 0.0
H1532 H 0.71398 0.16521 0.6816 0.0
H1533 H 0.70708 0.1678 0.76789 0.0
H1534 H 0.72504 0.13683 0.77224 0.0
H1535 H 0.8397 0.09561 0.76755 0.0
H1536 H 0.8098 0.09266 0.73723 0.0
H1537 H 0.76873 0.09917 0.80521 0.0
H1538 H 0.79844 0.10184 0.83573 0.0
H1539 H 0.76273 0.12554 0.76042 0.0
H1540 H 0.77089 0.05795 0.77892 0.0
H1541 H 0.7903 0.02763 0.7805 0.0
H1542 H 0.80038 0.03023 0.69481 0.0
H1543 H 0.78127 0.06074 0.69279 0.0
C1544 C 0.67745 0.10412 0.70186 0.0
C1545 C 0.67676 0.10252 0.67348 0.0
C1546 C 0.69604 0.10198 0.71576 0.0
C1547 C 0.71438 0.0982 0.70167 0.0
C1548 C 0.71371 0.09559 0.67353 0.0
C1549 C 0.69503 0.0978 0.65949 0.0
C1550 C 0.73426 0.09824 0.71653 0.0
C1551 C 0.74598 0.08138 0.71761 0.0
C1552 C 0.74065 0.11452 0.73157 0.0
C1553 C 0.72991 0.13323 0.72916 0.0
C1554 C 0.72678 0.14152 0.70362 0.0
C1555 C 0.71644 0.15899 0.70134 0.0
C1556 C 0.70934 0.16845 0.72448 0.0
C1557 C 0.71257 0.16045 0.74997 0.0
C1558 C 0.72283 0.14292 0.75235 0.0
C1559 C 0.8243 0.09616 0.77609 0.0
C1560 C 0.82142 0.09905 0.80402 0.0
C1561 C 0.80727 0.09441 0.75875 0.0
C1562 C 0.78715 0.09576 0.76905 0.0
C1563 C 0.7842 0.09811 0.79696 0.0
C1564 C 0.80119 0.09955 0.81435 0.0
C1565 C 0.76913 0.09607 0.75062 0.0
C1566 C 0.75783 0.11312 0.74875 0.0
C1567 C 0.76341 0.08009 0.73455 0.0
C1568 C 0.77487 0.06175 0.73576 0.0
C1569 C 0.77743 0.05217 0.76046 0.0
C1570 C 0.78834 0.03492 0.76142 0.0
C1571 C 0.79663 0.02704 0.73778 0.0
C1572 C 0.79398 0.03637 0.71311 0.0
C1573 C 0.7831 0.05363 0.71204 0.0
H1574 H 0.80506 0.01368 0.73857 0.0
H1575 H 0.70137 0.182 0.72267 0.0
H1576 H 0.8217 0.41492 0.96889 0.0
H1577 H 0.81447 0.44262 0.99842 0.0
H1578 H 0.84168 0.48012 0.93932 0.0
H1579 H 0.84912 0.4528 0.91025 0.0
H1580 H 0.85873 0.48536 0.98824 0.0
H1581 H 0.78972 0.47871 0.95017 0.0
H1582 H 0.75703 0.46166 0.94065 0.0
H1583 H 0.74632 0.45545 0.0258 0.0
H1584 H 0.77911 0.47227 0.03581 0.0
H1585 H 0.82856 0.57923 0.00277 0.0
H1586 H 0.82469 0.54612 0.98809 0.0
H1587 H 0.82008 0.52806 0.07099 0.0
H1588 H 0.82423 0.56139 0.08622 0.0
H1589 H 0.7911 0.50952 0.02115 0.0
H1590 H 0.86055 0.51881 0.05814 0.0
H1591 H 0.89201 0.53836 0.06485 0.0
H1592 H 0.901 0.54058 0.97893 0.0
H1593 H 0.86941 0.5213 0.97172 0.0
C1594 C 0.82576 0.42914 0.96209 0.0
C1595 C 0.83616 0.43171 0.93743 0.0
C1596 C 0.82166 0.44491 0.97895 0.0
C1597 C 0.82774 0.46339 0.97116 0.0
C1598 C 0.83709 0.46597 0.94589 0.0
C1599 C 0.84128 0.45032 0.92925 0.0
C1600 C 0.82585 0.48012 0.98958 0.0
C1601 C 0.84392 0.4905 0.99558 0.0
C1602 C 0.80663 0.48663 0.99976 0.0
C1603 C 0.78699 0.4765 0.99373 0.0
C1604 C 0.78049 0.47354 0.96685 0.0
C1605 C 0.76193 0.46396 0.96137 0.0
C1606 C 0.74965 0.45741 0.98261 0.0
C1607 C 0.75588 0.46049 0.00937 0.0
C1608 C 0.77444 0.47004 0.01496 0.0
C1609 C 0.82641 0.56836 0.01802 0.0
C1610 C 0.82706 0.57299 0.04574 0.0
C1611 C 0.82405 0.54944 0.00952 0.0
C1612 C 0.82214 0.53476 0.02848 0.0
C1613 C 0.82142 0.5393 0.05611 0.0
C1614 C 0.82393 0.55832 0.06473 0.0
C1615 C 0.82388 0.51475 0.019 0.0
C1616 C 0.80591 0.50389 0.01458 0.0
C1617 C 0.84317 0.50771 0.01011 0.0
C1618 C 0.86255 0.51874 0.01441 0.0
C1619 C 0.86918 0.52357 0.04069 0.0
C1620 C 0.88703 0.53458 0.04458 0.0
C1621 C 0.89845 0.54076 0.02233 0.0
C1622 C 0.89212 0.53581 0.99615 0.0
C1623 C 0.87427 0.52481 0.99215 0.0
H1624 H 0.91219 0.54938 0.02536 0.0
H1625 H 0.73527 0.45001 0.97832 0.0
H1626 H 0.20083 0.09491 0.84802 0.0
H1627 H 0.22765 0.09122 0.81355 0.0
H1628 H 0.18393 0.1075 0.75182 0.0
H1629 H 0.15703 0.11079 0.78578 0.0
H1630 H 0.20787 0.07944 0.7338 0.0
H1631 H 0.218 0.13996 0.78001 0.0
H1632 H 0.22377 0.16077 0.81982 0.0
H1633 H 0.28056 0.1314 0.83703 0.0
H1634 H 0.27497 0.11023 0.79749 0.0
H1635 H 0.26945 0.11906 0.63006 0.0
H1636 H 0.24528 0.11348 0.66713 0.0
H1637 H 0.29547 0.09367 0.71727 0.0
H1638 H 0.31979 0.09924 0.68028 0.0
H1639 H 0.27072 0.11983 0.74334 0.0
H1640 H 0.26198 0.0619 0.69257 0.0
H1641 H 0.25581 0.04228 0.65169 0.0
H1642 H 0.19596 0.06793 0.64189 0.0
H1643 H 0.20189 0.08792 0.6825 0.0
C1644 C 0.19685 0.0975 0.82707 0.0
C1645 C 0.1768 0.10338 0.81978 0.0
C1646 C 0.21223 0.09544 0.80741 0.0
C1647 C 0.20787 0.09938 0.78016 0.0
C1648 C 0.18767 0.10442 0.77271 0.0
C1649 C 0.1723 0.10639 0.79226 0.0
C1650 C 0.22442 0.09931 0.75944 0.0
C1651 C 0.22157 0.08834 0.73583 0.0
C1652 C 0.24251 0.11061 0.76232 0.0
C1653 C 0.24594 0.12337 0.78601 0.0
C1654 C 0.23164 0.13785 0.79241 0.0
C1655 C 0.23489 0.14972 0.8149 0.0
C1656 C 0.25249 0.14737 0.83099 0.0
C1657 C 0.26691 0.13318 0.82458 0.0
C1658 C 0.26371 0.12124 0.80213 0.0
C1659 C 0.27534 0.11343 0.64892 0.0
C1660 C 0.29651 0.10959 0.65226 0.0
C1661 C 0.26149 0.11016 0.67004 0.0
C1662 C 0.26857 0.103 0.69485 0.0
C1663 C 0.28971 0.09915 0.69824 0.0
C1664 C 0.30355 0.10231 0.67708 0.0
C1665 C 0.25397 0.10023 0.71752 0.0
C1666 C 0.25718 0.1107 0.74148 0.0
C1667 C 0.23613 0.0886 0.71484 0.0
C1668 C 0.23245 0.07652 0.69049 0.0
C1669 C 0.24756 0.06346 0.68159 0.0
C1670 C 0.2441 0.05226 0.65848 0.0
C1671 C 0.22552 0.05388 0.64417 0.0
C1672 C 0.21035 0.06669 0.65298 0.0
C1673 C 0.21374 0.07795 0.67607 0.0
H1674 H 0.22287 0.04519 0.62628 0.0
H1675 H 0.25499 0.15658 0.8484 0.0
H1676 H 0.67405 0.54439 0.40313 0.0
H1677 H 0.68067 0.51591 0.43022 0.0
H1678 H 0.68025 0.5506 0.50283 0.0
H1679 H 0.67493 0.57931 0.47548 0.0
H1680 H 0.70559 0.52243 0.51011 0.0
H1681 H 0.63581 0.52716 0.47798 0.0
H1682 H 0.60813 0.53058 0.44394 0.0
H1683 H 0.62757 0.47846 0.40517 0.0
H1684 H 0.65557 0.47488 0.4388 0.0
H1685 H 0.65792 0.45569 0.60026 0.0
H1686 H 0.66731 0.48236 0.57095 0.0
H1687 H 0.68338 0.44255 0.50741 0.0
H1688 H 0.67436 0.41568 0.53686 0.0
H1689 H 0.65326 0.47154 0.49387 0.0
H1690 H 0.72084 0.46603 0.53375 0.0
H1691 H 0.74559 0.46386 0.57162 0.0
H1692 H 0.72628 0.51902 0.60077 0.0
H1693 H 0.70118 0.52141 0.56329 0.0
C1694 C 0.67588 0.54595 0.42482 0.0
C1695 C 0.67378 0.56393 0.43733 0.0
C1696 C 0.67954 0.52968 0.44031 0.0
C1697 C 0.68028 0.531 0.46866 0.0
C1698 C 0.6796 0.54918 0.48102 0.0
C1699 C 0.67654 0.56557 0.46541 0.0
C1700 C 0.67978 0.51341 0.4854 0.0
C1701 C 0.69409 0.51136 0.50662 0.0
C1702 C 0.66484 0.49884 0.48083 0.0
C1703 C 0.64792 0.50087 0.46071 0.0
C1704 C 0.63426 0.5165 0.46209 0.0
C1705 C 0.61851 0.51846 0.44289 0.0
C1706 C 0.61613 0.50478 0.42236 0.0
C1707 C 0.62946 0.48907 0.42105 0.0
C1708 C 0.64527 0.48706 0.44018 0.0
C1709 C 0.66376 0.4526 0.58019 0.0
C1710 C 0.66532 0.43363 0.57075 0.0
C1711 C 0.66922 0.46784 0.56355 0.0
C1712 C 0.67611 0.46438 0.53711 0.0
C1713 C 0.6782 0.44545 0.52784 0.0
C1714 C 0.67307 0.43016 0.54466 0.0
C1715 C 0.67904 0.4806 0.51843 0.0
C1716 C 0.66501 0.48246 0.49699 0.0
C1717 C 0.69381 0.49517 0.52335 0.0
C1718 C 0.70901 0.49383 0.5458 0.0
C1719 C 0.72175 0.47763 0.54835 0.0
C1720 C 0.73587 0.47638 0.56973 0.0
C1721 C 0.73748 0.49128 0.58862 0.0
C1722 C 0.72501 0.50749 0.58613 0.0
C1723 C 0.71085 0.50881 0.5648 0.0
H1724 H 0.74842 0.49027 0.60516 0.0
H1725 H 0.60393 0.50632 0.4075 0.0
H1726 H 0.28511 0.88637 0.36739 0.0
H1727 H 0.25904 0.89229 0.33274 0.0
H1728 H 0.30625 0.91346 0.27913 0.0
H1729 H 0.3325 0.908 0.31418 0.0
H1730 H 0.27077 0.93383 0.27359 0.0
H1731 H 0.28979 0.86815 0.27237 0.0
H1732 H 0.29681 0.83588 0.29007 0.0
H1733 H 0.2338 0.83115 0.31644 0.0
H1734 H 0.22647 0.86352 0.29929 0.0
H1735 H 0.20358 0.91141 0.15748 0.0
H1736 H 0.2328 0.9148 0.18895 0.0
H1737 H 0.19267 0.9013 0.25565 0.0
H1738 H 0.16353 0.89804 0.22478 0.0
H1739 H 0.22765 0.87727 0.24999 0.0
H1740 H 0.20992 0.94471 0.25078 0.0
H1741 H 0.20392 0.97598 0.22935 0.0
H1742 H 0.2662 0.97615 0.19937 0.0
H1743 H 0.27248 0.94472 0.22031 0.0
C1744 C 0.28995 0.89249 0.34835 0.0
C1745 C 0.31088 0.89649 0.34336 0.0
C1746 C 0.27503 0.89583 0.32854 0.0
C1747 C 0.28077 0.90291 0.30314 0.0
C1748 C 0.30151 0.90789 0.29854 0.0
C1749 C 0.31647 0.90472 0.31855 0.0
C1750 C 0.26522 0.90389 0.28108 0.0
C1751 C 0.26152 0.92141 0.26815 0.0
C1752 C 0.2532 0.88767 0.27388 0.0
C1753 C 0.25763 0.86832 0.2847 0.0
C1754 C 0.27748 0.86031 0.28218 0.0
C1755 C 0.2815 0.84199 0.29207 0.0
C1756 C 0.26575 0.83149 0.30435 0.0
C1757 C 0.24598 0.83931 0.30691 0.0
C1758 C 0.24188 0.85763 0.29709 0.0
C1759 C 0.2009 0.9095 0.1789 0.0
C1760 C 0.18124 0.90416 0.18851 0.0
C1761 C 0.2176 0.91149 0.19683 0.0
C1762 C 0.21485 0.90818 0.22454 0.0
C1763 C 0.19509 0.90381 0.23428 0.0
C1764 C 0.17845 0.90193 0.21653 0.0
C1765 C 0.23269 0.90731 0.24327 0.0
C1766 C 0.23695 0.88968 0.25539 0.0
C1767 C 0.24534 0.92333 0.24927 0.0
C1768 C 0.24159 0.94226 0.23684 0.0
C1769 C 0.22228 0.95132 0.2394 0.0
C1770 C 0.21884 0.9691 0.22739 0.0
C1771 C 0.23465 0.97802 0.21293 0.0
C1772 C 0.25395 0.96921 0.21053 0.0
C1773 C 0.25746 0.95142 0.22249 0.0
H1774 H 0.23195 0.99178 0.20364 0.0
H1775 H 0.26884 0.81725 0.31174 0.0
H1776 H 0.64318 0.04596 0.59541 0.0
H1777 H 0.65294 0.01824 0.56796 0.0
H1778 H 0.66889 0.05545 0.50198 0.0
H1779 H 0.65947 0.08348 0.52969 0.0
H1780 H 0.64095 0.02344 0.48923 0.0
H1781 H 0.7068 0.03578 0.5303 0.0
H1782 H 0.73065 0.04264 0.56815 0.0
H1783 H 0.71407 0.98944 0.60532 0.0
H1784 H 0.68987 0.98238 0.5679 0.0
H1785 H 0.67178 0.9418 0.41413 0.0
H1786 H 0.67441 0.97339 0.43536 0.0
H1787 H 0.66724 0.9479 0.51396 0.0
H1788 H 0.66488 0.91625 0.49306 0.0
H1789 H 0.69493 0.97671 0.51585 0.0
H1790 H 0.626 0.96653 0.48191 0.0
H1791 H 0.59956 0.95892 0.44741 0.0
H1792 H 0.61921 0.00704 0.40036 0.0
H1793 H 0.64596 0.01479 0.43448 0.0
C1794 C 0.64891 0.04828 0.57513 0.0
C1795 C 0.65053 0.06686 0.56464 0.0
C1796 C 0.65456 0.03244 0.55953 0.0
C1797 C 0.66172 0.03484 0.53304 0.0
C1798 C 0.66346 0.05336 0.52245 0.0
C1799 C 0.65814 0.06932 0.53828 0.0
C1800 C 0.66632 0.01775 0.51628 0.0
C1801 C 0.6531 0.01344 0.49454 0.0
C1802 C 0.68175 0.00449 0.52388 0.0
C1803 C 0.69641 0.00861 0.54635 0.0
C1804 C 0.70811 0.0256 0.54665 0.0
C1805 C 0.72172 0.02952 0.56801 0.0
C1806 C 0.72385 0.0165 0.58915 0.0
C1807 C 0.71241 0.99951 0.58894 0.0
C1808 C 0.69876 0.99554 0.56763 0.0
C1809 C 0.67109 0.94283 0.43597 0.0
C1810 C 0.66785 0.92645 0.45184 0.0
C1811 C 0.67253 0.96094 0.44805 0.0
C1812 C 0.67068 0.96302 0.4762 0.0
C1813 C 0.66864 0.94663 0.49219 0.0
C1814 C 0.66721 0.92853 0.48016 0.0
C1815 C 0.66941 0.98227 0.48894 0.0
C1816 C 0.68313 0.98692 0.51005 0.0
C1817 C 0.65418 0.99571 0.48111 0.0
C1818 C 0.63815 0.99108 0.46055 0.0
C1819 C 0.6248 0.97538 0.46409 0.0
C1820 C 0.60973 0.97107 0.44464 0.0
C1821 C 0.60775 0.98245 0.42166 0.0
C1822 C 0.62079 0.99821 0.41814 0.0
C1823 C 0.63591 0.00258 0.43753 0.0
H1824 H 0.59608 0.9791 0.40661 0.0
H1825 H 0.73439 0.01956 0.60567 0.0
H1826 H 0.29298 0.41406 0.65029 0.0
H1827 H 0.26115 0.41978 0.67636 0.0
H1828 H 0.27762 0.37381 0.73011 0.0
H1829 H 0.30877 0.36789 0.70434 0.0
H1830 H 0.23748 0.37277 0.71944 0.0
H1831 H 0.2892 0.42097 0.74464 0.0
H1832 H 0.31234 0.44817 0.73491 0.0
H1833 H 0.26033 0.48148 0.70866 0.0
H1834 H 0.23692 0.45435 0.71794 0.0
H1835 H 0.21525 0.38568 0.85427 0.0
H1836 H 0.23409 0.38921 0.81199 0.0
H1837 H 0.18416 0.42267 0.77908 0.0
H1838 H 0.16486 0.41901 0.82153 0.0
H1839 H 0.23214 0.43436 0.76957 0.0
H1840 H 0.17994 0.38543 0.75516 0.0
H1841 H 0.15948 0.35752 0.76969 0.0
H1842 H 0.21517 0.32481 0.77929 0.0
H1843 H 0.23598 0.35262 0.76512 0.0
C1844 C 0.28957 0.40502 0.66742 0.0
C1845 C 0.30351 0.39067 0.67542 0.0
C1846 C 0.27146 0.40834 0.68233 0.0
C1847 C 0.2671 0.39729 0.70529 0.0
C1848 C 0.28059 0.38248 0.71245 0.0
C1849 C 0.29854 0.37922 0.69776 0.0
C1850 C 0.24939 0.40149 0.72337 0.0
C1851 C 0.2361 0.38635 0.73006 0.0
C1852 C 0.24736 0.41929 0.73701 0.0
C1853 C 0.26138 0.43559 0.73162 0.0
C1854 C 0.28274 0.43406 0.73661 0.0
C1855 C 0.29589 0.44946 0.73121 0.0
C1856 C 0.28782 0.46653 0.72108 0.0
C1857 C 0.26656 0.46824 0.71643 0.0
C1858 C 0.25335 0.45286 0.72175 0.0
C1859 C 0.20836 0.39409 0.8383 0.0
C1860 C 0.18848 0.40193 0.84116 0.0
C1861 C 0.21917 0.3961 0.81416 0.0
C1862 C 0.21041 0.40608 0.7925 0.0
C1863 C 0.19112 0.41494 0.79569 0.0
C1864 C 0.18014 0.4128 0.81988 0.0
C1865 C 0.22089 0.40544 0.76603 0.0
C1866 C 0.23286 0.42113 0.75799 0.0
C1867 C 0.22198 0.38806 0.75134 0.0
C1868 C 0.2095 0.37113 0.75916 0.0
C1869 C 0.18782 0.37231 0.76048 0.0
C1870 C 0.17617 0.35651 0.76863 0.0
C1871 C 0.18602 0.3394 0.77541 0.0
C1872 C 0.20756 0.33806 0.77399 0.0
C1873 C 0.21929 0.35383 0.76584 0.0
H1874 H 0.17697 0.32719 0.78174 0.0
H1875 H 0.29802 0.47844 0.71691 0.0
H1876 H 0.81775 0.08095 0.94485 0.0
H1877 H 0.81058 0.05487 0.97653 0.0
H1878 H 0.84867 0.01689 0.92902 0.0
H1879 H 0.85596 0.04269 0.89751 0.0
H1880 H 0.79528 0.01568 0.97257 0.0
H1881 H 0.88187 0.99613 0.97298 0.0
H1882 H 0.91561 0.01148 0.96446 0.0
H1883 H 0.89054 0.06606 0.98755 0.0
H1884 H 0.85676 0.05098 0.99661 0.0
H1885 H 0.81868 0.92434 0.03161 0.0
H1886 H 0.81238 0.95282 0.00413 0.0
H1887 H 0.84188 0.988 0.06513 0.0
H1888 H 0.84858 0.95966 0.09227 0.0
H1889 H 0.85922 0.99334 0.01823 0.0
H1890 H 0.78983 0.99188 0.05102 0.0
H1891 H 0.75583 0.97759 0.061 0.0
H1892 H 0.74566 0.96706 0.97634 0.0
H1893 H 0.77974 0.98105 0.96587 0.0
C1894 C 0.82426 0.06694 0.94091 0.0
C1895 C 0.83766 0.06393 0.91893 0.0
C1896 C 0.82007 0.05206 0.95894 0.0
C1897 C 0.8293 0.03406 0.95521 0.0
C1898 C 0.84156 0.03074 0.93233 0.0
C1899 C 0.84575 0.04553 0.91439 0.0
C1900 C 0.82822 0.01937 0.97656 0.0
C1901 C 0.80919 0.01077 0.98268 0.0
C1902 C 0.84635 0.0133 0.99003 0.0
C1903 C 0.86674 0.02244 0.98522 0.0
C1904 C 0.8836 0.01139 0.97636 0.0
C1905 C 0.90272 0.02004 0.97142 0.0
C1906 C 0.9052 0.03974 0.97537 0.0
C1907 C 0.88858 0.05081 0.9844 0.0
C1908 C 0.86944 0.04222 0.98942 0.0
C1909 C 0.82339 0.93821 0.03939 0.0
C1910 C 0.83434 0.93977 0.0639 0.0
C1911 C 0.81972 0.95449 0.02373 0.0
C1912 C 0.82671 0.97254 0.03255 0.0
C1913 C 0.83646 0.9742 0.05785 0.0
C1914 C 0.84028 0.95799 0.07334 0.0
C1915 C 0.82627 0.98926 0.0142 0.0
C1916 C 0.84516 0.99825 0.00845 0.0
C1917 C 0.80796 0.99577 0.00148 0.0
C1918 C 0.78743 0.98738 0.00769 0.0
C1919 C 0.78042 0.98638 0.03454 0.0
C1920 C 0.76111 0.97836 0.04029 0.0
C1921 C 0.74861 0.97139 0.01932 0.0
C1922 C 0.75537 0.97246 0.99256 0.0
C1923 C 0.77467 0.98045 0.98671 0.0
H1924 H 0.73366 0.96518 0.02381 0.0
H1925 H 0.92001 0.04642 0.97149 0.0
H1926 H 0.15353 0.60892 0.22497 0.0
H1927 H 0.18225 0.60237 0.2556 0.0
H1928 H 0.22269 0.59363 0.18742 0.0
H1929 H 0.19395 0.59988 0.15649 0.0
H1930 H 0.23067 0.5681 0.22705 0.0
H1931 H 0.22198 0.63621 0.22015 0.0
H1932 H 0.20274 0.66664 0.22206 0.0
H1933 H 0.18944 0.65746 0.30601 0.0
H1934 H 0.2084 0.62683 0.3045 0.0
H1935 H 0.32881 0.59335 0.28045 0.0
H1936 H 0.29616 0.58964 0.25623 0.0
H1937 H 0.26277 0.59502 0.33128 0.0
H1938 H 0.29555 0.59879 0.35586 0.0
H1939 H 0.24916 0.61988 0.29201 0.0
H1940 H 0.26279 0.55297 0.29897 0.0
H1941 H 0.2836 0.52352 0.29552 0.0
H1942 H 0.2894 0.53136 0.20983 0.0
H1943 H 0.26888 0.56103 0.21281 0.0
C1944 C 0.16848 0.60548 0.2164 0.0
C1945 C 0.17147 0.60519 0.18822 0.0
C1946 C 0.18488 0.60174 0.23399 0.0
C1947 C 0.20467 0.59782 0.2238 0.0
C1948 C 0.20754 0.59667 0.19571 0.0
C1949 C 0.1911 0.60032 0.17806 0.0
C1950 C 0.22261 0.59603 0.24237 0.0
C1951 C 0.23481 0.57945 0.24115 0.0
C1952 C 0.22775 0.6107 0.26114 0.0
C1953 C 0.21639 0.62913 0.26213 0.0
C1954 C 0.21481 0.64061 0.23896 0.0
C1955 C 0.20398 0.6579 0.23998 0.0
C1956 C 0.19482 0.66395 0.26412 0.0
C1957 C 0.19652 0.65274 0.28731 0.0
C1958 C 0.20731 0.63542 0.28639 0.0
C1959 C 0.31456 0.59349 0.29193 0.0
C1960 C 0.31477 0.59651 0.32009 0.0
C1961 C 0.2959 0.59123 0.27804 0.0
C1962 C 0.27706 0.59197 0.29197 0.0
C1963 C 0.27718 0.59435 0.32019 0.0
C1964 C 0.29591 0.59644 0.3342 0.0
C1965 C 0.25735 0.592 0.2766 0.0
C1966 C 0.24484 0.60835 0.27829 0.0
C1967 C 0.25213 0.57722 0.25807 0.0
C1968 C 0.2644 0.55932 0.25616 0.0
C1969 C 0.26863 0.54851 0.27942 0.0
C1970 C 0.28035 0.53175 0.27754 0.0
C1971 C 0.28785 0.52559 0.25248 0.0
C1972 C 0.28359 0.53615 0.22923 0.0
C1973 C 0.27189 0.55293 0.231 0.0
H1974 H 0.29692 0.51262 0.25107 0.0
H1975 H 0.18644 0.67735 0.26487 0.0
H1976 H 0.32711 0.05836 0.58609 0.0
H1977 H 0.32443 0.02481 0.57198 0.0
H1978 H 0.32033 0.04211 0.4886 0.0
H1979 H 0.32292 0.07564 0.50241 0.0
H1980 H 0.29399 0.01159 0.5008 0.0
H1981 H 0.36569 0.0302 0.51321 0.0
H1982 H 0.39517 0.04315 0.53934 0.0
H1983 H 0.38753 0.99898 0.59846 0.0
H1984 H 0.35778 0.98595 0.57286 0.0
H1985 H 0.33382 0.93574 0.4224 0.0
H1986 H 0.32566 0.96568 0.44548 0.0
H1987 H 0.33655 0.93903 0.52263 0.0
H1988 H 0.34505 0.90895 0.4997 0.0
H1989 H 0.35636 0.97243 0.5194 0.0
H1990 H 0.28761 0.95092 0.50322 0.0
H1991 H 0.25828 0.938 0.47683 0.0
H1992 H 0.25997 0.98704 0.42502 0.0
H1993 H 0.28952 0.00014 0.45086 0.0
C1994 C 0.32529 0.05507 0.56478 0.0
C1995 C 0.32551 0.06968 0.54534 0.0
C1996 C 0.3238 0.03589 0.55678 0.0
C1997 C 0.32242 0.03102 0.52925 0.0
C1998 C 0.32141 0.04559 0.50995 0.0
C1999 C 0.32303 0.06474 0.51789 0.0
C2000 C 0.3238 0.01081 0.52024 0.0
C2001 C 0.30762 0.00299 0.50475 0.0
C2002 C 0.34139 0.99952 0.52603 0.0
C2003 C 0.35936 0.00725 0.54131 0.0
C2004 C 0.37019 0.02335 0.5319 0.0
C2005 C 0.38696 0.03069 0.54659 0.0
C2006 C 0.39318 0.02193 0.57059 0.0
C2007 C 0.38267 0.00578 0.5799 0.0
C2008 C 0.36586 0.99841 0.56531 0.0
C2009 C 0.33434 0.93613 0.44429 0.0
C2010 C 0.34021 0.9199 0.45915 0.0
C2011 C 0.32952 0.95327 0.45747 0.0
C2012 C 0.33028 0.95454 0.48579 0.0
C2013 C 0.33581 0.93833 0.50075 0.0
C2014 C 0.34065 0.92115 0.48758 0.0
C2015 C 0.32666 0.97318 0.49951 0.0
C2016 C 0.34249 0.98079 0.51583 0.0
C2017 C 0.30873 0.98424 0.49448 0.0
C2018 C 0.2909 0.97645 0.47889 0.0
C2019 C 0.28184 0.95889 0.48608 0.0
C2020 C 0.26515 0.95155 0.47123 0.0
C2021 C 0.25729 0.96168 0.44923 0.0
C2022 C 0.26608 0.9792 0.44206 0.0
C2023 C 0.28278 0.98661 0.45683 0.0
H2024 H 0.24437 0.95596 0.43776 0.0
H2025 H 0.40617 0.02763 0.58194 0.0
H2026 H 0.8333 0.60236 0.18427 0.0
H2027 H 0.81204 0.59893 0.2249 0.0
H2028 H 0.75844 0.61766 0.18013 0.0
H2029 H 0.77962 0.62157 0.13983 0.0
H2030 H 0.76065 0.63585 0.22668 0.0
H2031 H 0.76725 0.56981 0.19706 0.0
H2032 H 0.78647 0.54055 0.18484 0.0
H2033 H 0.81416 0.53958 0.26386 0.0
H2034 H 0.79528 0.56899 0.27642 0.0
H2035 H 0.67256 0.60355 0.28933 0.0
H2036 H 0.70242 0.60286 0.25968 0.0
H2037 H 0.74318 0.60084 0.32871 0.0
H2038 H 0.71313 0.60176 0.35908 0.0
H2039 H 0.75267 0.57534 0.27766 0.0
H2040 H 0.74196 0.64014 0.30817 0.0
H2041 H 0.7203 0.66808 0.31943 0.0
H2042 H 0.69894 0.67055 0.23723 0.0
H2043 H 0.72018 0.64237 0.22559 0.0
C2044 C 0.81695 0.60563 0.1831 0.0
C2045 C 0.80812 0.61227 0.15889 0.0
C2046 C 0.80482 0.60362 0.2063 0.0
C2047 C 0.78362 0.60797 0.20554 0.0
C2048 C 0.77478 0.61431 0.18124 0.0
C2049 C 0.7869 0.61648 0.15818 0.0
C2050 C 0.77052 0.60649 0.23003 0.0
C2051 C 0.75895 0.6226 0.23777 0.0
C2052 C 0.76875 0.58939 0.24511 0.0
C2053 C 0.78006 0.57172 0.23756 0.0
C2054 C 0.77757 0.56344 0.21174 0.0
C2055 C 0.78838 0.54681 0.20477 0.0
C2056 C 0.80159 0.53824 0.22353 0.0
C2057 C 0.80396 0.54625 0.24933 0.0
C2058 C 0.79321 0.56289 0.25639 0.0
C2059 C 0.6878 0.60276 0.29842 0.0
C2060 C 0.69042 0.60304 0.32668 0.0
C2061 C 0.70485 0.60228 0.28135 0.0
C2062 C 0.7249 0.60198 0.29207 0.0
C2063 C 0.72773 0.60106 0.32017 0.0
C2064 C 0.71057 0.60164 0.33743 0.0
C2065 C 0.74253 0.60449 0.27352 0.0
C2066 C 0.75487 0.58867 0.26691 0.0
C2067 C 0.74499 0.62182 0.25931 0.0
C2068 C 0.73257 0.63906 0.26606 0.0
C2069 C 0.73254 0.64655 0.29254 0.0
C2070 C 0.72034 0.66244 0.29898 0.0
C2071 C 0.70823 0.67107 0.27907 0.0
C2072 C 0.70833 0.66385 0.25264 0.0
C2073 C 0.72046 0.64793 0.2461 0.0
H2074 H 0.69878 0.68336 0.28411 0.0
H2075 H 0.80994 0.52537 0.2181 0.0
H2076 H 0.19207 0.92454 0.05566 0.0
H2077 H 0.20248 0.95183 0.0278 0.0
H2078 H 0.15048 0.98415 0.05799 0.0
H2079 H 0.14053 0.95739 0.08633 0.0
H2080 H 0.18477 0.96812 0.98779 0.0
H2081 H 0.15833 0.03042 0.05988 0.0
H2082 H 0.15883 0.03785 0.10869 0.0
H2083 H 0.20925 0.99875 0.12002 0.0
H2084 H 0.20928 0.99129 0.07122 0.0
H2085 H 0.14538 0.04562 0.91843 0.0
H2086 H 0.15457 0.01869 0.94674 0.0
H2087 H 0.20354 0.05199 0.98355 0.0
H2088 H 0.19385 0.07949 0.95562 0.0
H2089 H 0.18332 0.03527 0.02104 0.0
H2090 H 0.21414 0.01246 0.94142 0.0
H2091 H 0.21795 0.00497 0.8929 0.0
H2092 H 0.16737 0.96522 0.89725 0.0
H2093 H 0.16302 0.97266 0.9457 0.0
C2094 C 0.18304 0.93758 0.05655 0.0
C2095 C 0.16553 0.93884 0.07326 0.0
C2096 C 0.18898 0.95314 0.04061 0.0
C2097 C 0.17749 0.97021 0.04108 0.0
C2098 C 0.16 0.9714 0.05778 0.0
C2099 C 0.15421 0.95599 0.07386 0.0
C2100 C 0.1827 0.98642 0.02292 0.0
C2101 C 0.18469 0.9828 0.99509 0.0
C2102 C 0.18348 0.00558 0.03248 0.0
C2103 C 0.18373 0.01023 0.06185 0.0
C2104 C 0.16963 0.02351 0.07273 0.0
C2105 C 0.16979 0.02769 0.10042 0.0
C2106 C 0.18404 0.01875 0.11745 0.0
C2107 C 0.19818 0.00563 0.10682 0.0
C2108 C 0.1981 0.0014 0.07914 0.0
C2109 C 0.15832 0.04721 0.93224 0.0
C2110 C 0.16887 0.06473 0.93479 0.0
C2111 C 0.16368 0.03168 0.94834 0.0
C2112 C 0.17999 0.03312 0.96706 0.0
C2113 C 0.19095 0.05048 0.96919 0.0
C2114 C 0.18545 0.06616 0.95317 0.0
C2115 C 0.18411 0.01698 0.9858 0.0
C2116 C 0.1839 0.0206 0.01376 0.0
C2117 C 0.18568 0.99783 0.97641 0.0
C2118 C 0.18822 0.99318 0.94724 0.0
C2119 C 0.20374 0.0022 0.93201 0.0
C2120 C 0.20601 0.99796 0.90451 0.0
C2121 C 0.1929 0.98464 0.892 0.0
C2122 C 0.17752 0.97552 0.90698 0.0
C2123 C 0.17518 0.97972 0.93448 0.0
H2124 H 0.19468 0.98138 0.8707 0.0
H2125 H 0.18412 0.022 0.13888 0.0
H2126 H 0.66977 0.398 0.72066 0.0
H2127 H 0.7011 0.40253 0.74745 0.0
H2128 H 0.73761 0.40328 0.6746 0.0
H2129 H 0.70625 0.39859 0.64745 0.0
H2130 H 0.75294 0.37871 0.71246 0.0
H2131 H 0.731 0.44394 0.70994 0.0
H2132 H 0.7064 0.47069 0.71449 0.0
H2133 H 0.69912 0.45848 0.7989 0.0
H2134 H 0.72345 0.43146 0.7948 0.0
H2135 H 0.84468 0.39715 0.78566 0.0
H2136 H 0.81629 0.40193 0.75379 0.0
H2137 H 0.77294 0.4036 0.81991 0.0
H2138 H 0.80125 0.39917 0.85204 0.0
H2139 H 0.76285 0.42946 0.78205 0.0
H2140 H 0.78073 0.36259 0.78399 0.0
H2141 H 0.80419 0.33488 0.78049 0.0
H2142 H 0.81775 0.34927 0.69814 0.0
H2143 H 0.79459 0.37725 0.70129 0.0
C2144 C 0.68441 0.39925 0.71023 0.0
C2145 C 0.68548 0.39781 0.68187 0.0
C2146 C 0.70231 0.40199 0.72561 0.0
C2147 C 0.72165 0.4034 0.713 0.0
C2148 C 0.7228 0.40228 0.68469 0.0
C2149 C 0.70486 0.39964 0.66923 0.0
C2150 C 0.74071 0.40475 0.7296 0.0
C2151 C 0.75535 0.39005 0.72726 0.0
C2152 C 0.74351 0.41925 0.7494 0.0
C2153 C 0.72895 0.43558 0.752 0.0
C2154 C 0.72404 0.44686 0.72944 0.0
C2155 C 0.71016 0.46209 0.73194 0.0
C2156 C 0.70117 0.46626 0.75696 0.0
C2157 C 0.70609 0.45523 0.77954 0.0
C2158 C 0.71995 0.43997 0.77714 0.0
C2159 C 0.82914 0.3987 0.7935 0.0
C2160 C 0.82523 0.39752 0.82143 0.0
C2161 C 0.81293 0.40141 0.77522 0.0
C2162 C 0.79247 0.40278 0.78445 0.0
C2163 C 0.78861 0.40252 0.81235 0.0
C2164 C 0.80483 0.39993 0.83069 0.0
C2165 C 0.77497 0.40334 0.76503 0.0
C2166 C 0.7606 0.41832 0.76693 0.0
C2167 C 0.77227 0.38899 0.74495 0.0
C2168 C 0.78612 0.37213 0.74297 0.0
C2169 C 0.78884 0.35993 0.7652 0.0
C2170 C 0.80206 0.34416 0.76328 0.0
C2171 C 0.8125 0.34035 0.73913 0.0
C2172 C 0.80969 0.35227 0.71684 0.0
C2173 C 0.79651 0.36807 0.71868 0.0
H2174 H 0.82273 0.32814 0.73767 0.0
H2175 H 0.69043 0.47805 0.75885 0.0
loop_
_geom_bond_atom_site_label_1
_geom_bond_atom_site_label_2
_geom_bond_distance
_geom_bond_site_symmetry_2
_ccdc_geom_bond_type
Mn0 O5 2.095 . S
Mn0 O15 2.162 . S
Mn0 O16 2.297 . S
Mn0 O24 2.385 . S
Mn0 O25 2.209 . S
Mn0 O26 2.094 . S
Mn1 O6 2.121 . S
Mn1 N8 2.257 . S
Mn1 N17 2.282 . S
Mn1 O25 2.215 . S
Mn1 O27 2.117 . S
C2 O24 1.234 . S
C2 O25 1.283 . S
C3 O15 1.281 . S
C3 O16 1.236 . S
C4 O26 1.240 . S
C4 O27 1.264 . S
O5 Mn0 2.095 . S
O5 C14 1.250 . S
O6 Mn1 2.121 . S
O6 C14 1.258 . S
C7 N8 1.326 . S
C7 C11 1.460 . S
C7 H13 0.929 . S
N8 Mn1 2.257 . S
N8 C7 1.326 . S
N8 C12 1.362 . S
C9 C10 1.258 . S
C9 C12 1.431 . S
C9 C29 1.449 . S
C10 C9 1.258 . S
C10 C11 1.477 . S
C10 H30 0.931 . S
C11 C7 1.460 . S
C11 C10 1.477 . S
C11 H31 0.930 . S
C12 N8 1.362 . S
C12 C9 1.431 . S
C12 C22 1.476 . S
H13 C7 0.929 . S
C14 O5 1.250 . S
C14 O6 1.258 . S
O15 Mn0 2.162 . S
O15 C3 1.281 . S
O16 Mn0 2.297 . S
O16 C3 1.236 . S
N17 Mn1 2.282 . S
N17 C18 1.328 . S
N17 C22 1.318 . S
C18 N17 1.328 . S
C18 C19 1.457 . S
C18 H23 0.929 . S
C19 C18 1.457 . S
C19 C20 1.291 . S
C19 H32 0.931 . S
C20 C19 1.291 . S
C20 C21 1.373 . S
C20 H33 0.929 . S
C21 C20 1.373 . S
C21 C22 1.396 . S
C21 C28 1.403 . S
C22 C12 1.476 . S
C22 N17 1.318 . S
C22 C21 1.396 . S
H23 C18 0.929 . S
O24 Mn0 2.385 . S
O24 C2 1.234 . S
O25 Mn0 2.209 . S
O25 Mn1 2.215 . S
O25 C2 1.283 . S
O26 Mn0 2.094 . S
O26 C4 1.240 . S
O27 Mn1 2.117 . S
O27 C4 1.264 . S
C28 C21 1.403 . S
C28 C29 1.399 . S
C28 H34 0.929 . S
C29 C9 1.449 . S
C29 C28 1.399 . S
C29 H35 0.930 . S
H30 C10 0.931 . S
H31 C11 0.930 . S
H32 C19 0.931 . S
H33 C20 0.929 . S
H34 C28 0.929 . S
H35 C29 0.930 . S
Mn36 O41 2.095 . S
Mn36 O51 2.162 . S
Mn36 O52 2.297 . S
Mn36 O60 2.385 . S
Mn36 O61 2.209 . S
Mn36 O62 2.094 . S
Mn37 O42 2.121 . S
Mn37 N44 2.257 . S
Mn37 N53 2.282 . S
Mn37 O61 2.215 . S
Mn37 O63 2.117 . S
C38 O60 1.234 . S
C38 O61 1.283 . S
C39 O51 1.281 . S
C39 O52 1.236 . S
C40 O62 1.240 . S
C40 O63 1.264 . S
O41 Mn36 2.095 . S
O41 C50 1.250 . S
O42 Mn37 2.121 . S
O42 C50 1.258 . S
C43 N44 1.326 . S
C43 C47 1.460 . S
C43 H49 0.929 . S
N44 Mn37 2.257 . S
N44 C43 1.326 . S
N44 C48 1.362 . S
C45 C46 1.258 . S
C45 C48 1.431 . S
C45 C65 1.449 . S
C46 C45 1.258 . S
C46 C47 1.477 . S
C46 H66 0.931 . S
C47 C43 1.460 . S
C47 C46 1.477 . S
C47 H67 0.930 . S
C48 N44 1.362 . S
C48 C45 1.431 . S
C48 C58 1.476 . S
H49 C43 0.929 . S
C50 O41 1.250 . S
C50 O42 1.258 . S
O51 Mn36 2.162 . S
O51 C39 1.281 . S
O52 Mn36 2.297 . S
O52 C39 1.236 . S
N53 Mn37 2.282 . S
N53 C54 1.328 . S
N53 C58 1.318 . S
C54 N53 1.328 . S
C54 C55 1.457 . S
C54 H59 0.929 . S
C55 C54 1.457 . S
C55 C56 1.291 . S
C55 H68 0.931 . S
C56 C55 1.291 . S
C56 C57 1.373 . S
C56 H69 0.929 . S
C57 C56 1.373 . S
C57 C58 1.396 . S
C57 C64 1.403 . S
C58 C48 1.476 . S
C58 N53 1.318 . S
C58 C57 1.396 . S
H59 C54 0.929 . S
O60 Mn36 2.385 . S
O60 C38 1.234 . S
O61 Mn36 2.209 . S
O61 Mn37 2.215 . S
O61 C38 1.283 . S
O62 Mn36 2.094 . S
O62 C40 1.240 . S
O63 Mn37 2.117 . S
O63 C40 1.264 . S
C64 C57 1.403 . S
C64 C65 1.399 . S
C64 H70 0.929 . S
C65 C45 1.449 . S
C65 C64 1.399 . S
C65 H71 0.930 . S
H66 C46 0.931 . S
H67 C47 0.930 . S
H68 C55 0.931 . S
H69 C56 0.929 . S
H70 C64 0.929 . S
H71 C65 0.930 . S
Mn72 O77 2.095 . S
Mn72 O87 2.162 . S
Mn72 O88 2.297 . S
Mn72 O96 2.385 . S
Mn72 O97 2.209 . S
Mn72 O98 2.094 . S
Mn73 O78 2.121 . S
Mn73 N80 2.257 . S
Mn73 N89 2.282 . S
Mn73 O97 2.215 . S
Mn73 O99 2.117 . S
C74 O96 1.234 . S
C74 O97 1.283 . S
C75 O87 1.281 . S
C75 O88 1.236 . S
C76 O98 1.240 . S
C76 O99 1.264 . S
O77 Mn72 2.095 . S
O77 C86 1.250 . S
O78 Mn73 2.121 . S
O78 C86 1.258 . S
C79 N80 1.326 . S
C79 C83 1.460 . S
C79 H85 0.929 . S
N80 Mn73 2.257 . S
N80 C79 1.326 . S
N80 C84 1.362 . S
C81 C82 1.258 . S
C81 C84 1.431 . S
C81 C101 1.449 . S
C82 C81 1.258 . S
C82 C83 1.477 . S
C82 H102 0.931 . S
C83 C79 1.460 . S
C83 C82 1.477 . S
C83 H103 0.930 . S
C84 N80 1.362 . S
C84 C81 1.431 . S
C84 C94 1.476 . S
H85 C79 0.929 . S
C86 O77 1.250 . S
C86 O78 1.258 . S
O87 Mn72 2.162 . S
O87 C75 1.281 . S
O88 Mn72 2.297 . S
O88 C75 1.236 . S
N89 Mn73 2.282 . S
N89 C90 1.328 . S
N89 C94 1.318 . S
C90 N89 1.328 . S
C90 C91 1.457 . S
C90 H95 0.929 . S
C91 C90 1.457 . S
C91 C92 1.291 . S
C91 H104 0.931 . S
C92 C91 1.291 . S
C92 C93 1.373 . S
C92 H105 0.929 . S
C93 C92 1.373 . S
C93 C94 1.396 . S
C93 C100 1.403 . S
C94 C84 1.476 . S
C94 N89 1.318 . S
C94 C93 1.396 . S
H95 C90 0.929 . S
O96 Mn72 2.385 . S
O96 C74 1.234 . S
O97 Mn72 2.209 . S
O97 Mn73 2.215 . S
O97 C74 1.283 . S
O98 Mn72 2.094 . S
O98 C76 1.240 . S
O99 Mn73 2.117 . S
O99 C76 1.264 . S
C100 C93 1.403 . S
C100 C101 1.399 . S
C100 H106 0.929 . S
C101 C81 1.449 . S
C101 C100 1.399 . S
C101 H107 0.930 . S
H102 C82 0.931 . S
H103 C83 0.930 . S
H104 C91 0.931 . S
H105 C92 0.929 . S
H106 C100 0.929 . S
H107 C101 0.930 . S
Mn108 O113 2.095 . S
Mn108 O123 2.162 . S
Mn108 O124 2.297 . S
Mn108 O132 2.385 . S
Mn108 O133 2.209 . S
Mn108 O134 2.094 . S
Mn109 O114 2.121 . S
Mn109 N116 2.257 . S
Mn109 N125 2.282 . S
Mn109 O133 2.215 . S
Mn109 O135 2.117 . S
C110 O132 1.234 . S
C110 O133 1.283 . S
C111 O123 1.281 . S
C111 O124 1.236 . S
C112 O134 1.240 . S
C112 O135 1.264 . S
O113 Mn108 2.095 . S
O113 C122 1.250 . S
O114 Mn109 2.121 . S
O114 C122 1.258 . S
C115 N116 1.326 . S
C115 C119 1.460 . S
C115 H121 0.929 . S
N116 Mn109 2.257 . S
N116 C115 1.326 . S
N116 C120 1.362 . S
C117 C118 1.258 . S
C117 C120 1.431 . S
C117 C137 1.449 . S
C118 C117 1.258 . S
C118 C119 1.477 . S
C118 H138 0.931 . S
C119 C115 1.460 . S
C119 C118 1.477 . S
C119 H139 0.930 . S
C120 N116 1.362 . S
C120 C117 1.431 . S
C120 C130 1.476 . S
H121 C115 0.929 . S
C122 O113 1.250 . S
C122 O114 1.258 . S
O123 Mn108 2.162 . S
O123 C111 1.281 . S
O124 Mn108 2.297 . S
O124 C111 1.236 . S
N125 Mn109 2.282 . S
N125 C126 1.328 . S
N125 C130 1.318 . S
C126 N125 1.328 . S
C126 C127 1.457 . S
C126 H131 0.929 . S
C127 C126 1.457 . S
C127 C128 1.291 . S
C127 H140 0.931 . S
C128 C127 1.291 . S
C128 C129 1.373 . S
C128 H141 0.929 . S
C129 C128 1.373 . S
C129 C130 1.396 . S
C129 C136 1.403 . S
C130 C120 1.476 . S
C130 N125 1.318 . S
C130 C129 1.396 . S
H131 C126 0.929 . S
O132 Mn108 2.385 . S
O132 C110 1.234 . S
O133 Mn108 2.209 . S
O133 Mn109 2.215 . S
O133 C110 1.283 . S
O134 Mn108 2.094 . S
O134 C112 1.240 . S
O135 Mn109 2.117 . S
O135 C112 1.264 . S
C136 C129 1.403 . S
C136 C137 1.399 . S
C136 H142 0.929 . S
C137 C117 1.449 . S
C137 C136 1.399 . S
C137 H143 0.930 . S
H138 C118 0.931 . S
H139 C119 0.930 . S
H140 C127 0.931 . S
H141 C128 0.929 . S
H142 C136 0.929 . S
H143 C137 0.930 . S
Mn144 O149 2.095 . S
Mn144 O159 2.162 . S
Mn144 O160 2.297 . S
Mn144 O168 2.385 . S
Mn144 O169 2.209 . S
Mn144 O170 2.094 . S
Mn145 O150 2.121 . S
Mn145 N152 2.257 . S
Mn145 N161 2.282 . S
Mn145 O169 2.215 . S
Mn145 O171 2.117 . S
C146 O168 1.234 . S
C146 O169 1.283 . S
C147 O159 1.281 . S
C147 O160 1.236 . S
C148 O170 1.240 . S
C148 O171 1.264 . S
O149 Mn144 2.095 . S
O149 C158 1.250 . S
O150 Mn145 2.121 . S
O150 C158 1.258 . S
C151 N152 1.326 . S
C151 C155 1.460 1_556 S
C151 H157 0.929 . S
N152 Mn145 2.257 . S
N152 C151 1.326 . S
N152 C156 1.362 . S
C153 C154 1.258 1_556 S
C153 C156 1.431 . S
C153 C173 1.449 1_556 S
C154 C153 1.258 1_554 S
C154 C155 1.477 . S
C154 H174 0.931 . S
C155 C151 1.460 1_554 S
C155 C154 1.477 . S
C155 H175 0.930 . S
C156 N152 1.362 . S
C156 C153 1.431 . S
C156 C166 1.476 . S
H157 C151 0.929 . S
C158 O149 1.250 . S
C158 O150 1.258 . S
O159 Mn144 2.162 . S
O159 C147 1.281 . S
O160 Mn144 2.297 . S
O160 C147 1.236 . S
N161 Mn145 2.282 . S
N161 C162 1.328 . S
N161 C166 1.318 . S
C162 N161 1.328 . S
C162 C163 1.457 . S
C162 H167 0.929 . S
C163 C162 1.457 . S
C163 C164 1.291 . S
C163 H176 0.931 . S
C164 C163 1.291 . S
C164 C165 1.373 . S
C164 H177 0.929 . S
C165 C164 1.373 . S
C165 C166 1.396 . S
C165 C172 1.403 . S
C166 C156 1.476 . S
C166 N161 1.318 . S
C166 C165 1.396 . S
H167 C162 0.929 . S
O168 Mn144 2.385 . S
O168 C146 1.234 . S
O169 Mn144 2.209 . S
O169 Mn145 2.215 . S
O169 C146 1.283 . S
O170 Mn144 2.094 . S
O170 C148 1.240 . S
O171 Mn145 2.117 . S
O171 C148 1.264 . S
C172 C165 1.403 . S
C172 C173 1.399 1_556 S
C172 H178 0.929 . S
C173 C153 1.449 1_554 S
C173 C172 1.399 1_554 S
C173 H179 0.930 . S
H174 C154 0.931 . S
H175 C155 0.930 . S
H176 C163 0.931 . S
H177 C164 0.929 . S
H178 C172 0.929 . S
H179 C173 0.930 . S
Mn180 O185 2.095 . S
Mn180 O195 2.162 . S
Mn180 O196 2.297 . S
Mn180 O204 2.385 . S
Mn180 O205 2.209 . S
Mn180 O206 2.094 . S
Mn181 O186 2.121 . S
Mn181 N188 2.257 . S
Mn181 N197 2.282 . S
Mn181 O205 2.215 . S
Mn181 O207 2.117 . S
C182 O204 1.234 . S
C182 O205 1.283 . S
C183 O195 1.281 . S
C183 O196 1.236 . S
C184 O206 1.240 . S
C184 O207 1.264 . S
O185 Mn180 2.095 . S
O185 C194 1.250 . S
O186 Mn181 2.121 . S
O186 C194 1.258 . S
C187 N188 1.326 . S
C187 C191 1.460 . S
C187 H193 0.929 . S
N188 Mn181 2.257 . S
N188 C187 1.326 . S
N188 C192 1.362 . S
C189 C190 1.258 . S
C189 C192 1.431 . S
C189 C209 1.449 . S
C190 C189 1.258 . S
C190 C191 1.477 . S
C190 H210 0.931 . S
C191 C187 1.460 . S
C191 C190 1.477 . S
C191 H211 0.930 . S
C192 N188 1.362 . S
C192 C189 1.431 . S
C192 C202 1.476 . S
H193 C187 0.929 . S
C194 O185 1.250 . S
C194 O186 1.258 . S
O195 Mn180 2.162 . S
O195 C183 1.281 . S
O196 Mn180 2.297 . S
O196 C183 1.236 . S
N197 Mn181 2.282 . S
N197 C198 1.328 . S
N197 C202 1.318 . S
C198 N197 1.328 . S
C198 C199 1.457 . S
C198 H203 0.929 . S
C199 C198 1.457 . S
C199 C200 1.291 . S
C199 H212 0.931 . S
C200 C199 1.291 . S
C200 C201 1.373 . S
C200 H213 0.929 . S
C201 C200 1.373 . S
C201 C202 1.396 . S
C201 C208 1.403 . S
C202 C192 1.476 . S
C202 N197 1.318 . S
C202 C201 1.396 . S
H203 C198 0.929 . S
O204 Mn180 2.385 . S
O204 C182 1.234 . S
O205 Mn180 2.209 . S
O205 Mn181 2.215 . S
O205 C182 1.283 . S
O206 Mn180 2.094 . S
O206 C184 1.240 . S
O207 Mn181 2.117 . S
O207 C184 1.264 . S
C208 C201 1.403 . S
C208 C209 1.399 . S
C208 H214 0.929 . S
C209 C189 1.449 . S
C209 C208 1.399 . S
C209 H215 0.930 . S
H210 C190 0.931 . S
H211 C191 0.930 . S
H212 C199 0.931 . S
H213 C200 0.929 . S
H214 C208 0.929 . S
H215 C209 0.930 . S
Mn216 O221 2.095 . S
Mn216 O231 2.162 . S
Mn216 O232 2.297 . S
Mn216 O240 2.385 . S
Mn216 O241 2.209 . S
Mn216 O242 2.094 . S
Mn217 O222 2.121 . S
Mn217 N224 2.257 . S
Mn217 N233 2.282 . S
Mn217 O241 2.215 . S
Mn217 O243 2.117 . S
C218 O240 1.234 . S
C218 O241 1.283 . S
C219 O231 1.281 . S
C219 O232 1.236 . S
C220 O242 1.240 . S
C220 O243 1.264 . S
O221 Mn216 2.095 . S
O221 C230 1.250 . S
O222 Mn217 2.121 . S
O222 C230 1.258 . S
C223 N224 1.326 . S
C223 C227 1.460 . S
C223 H229 0.929 . S
N224 Mn217 2.257 . S
N224 C223 1.326 . S
N224 C228 1.362 . S
C225 C226 1.258 . S
C225 C228 1.431 . S
C225 C245 1.449 . S
C226 C225 1.258 . S
C226 C227 1.477 . S
C226 H246 0.931 . S
C227 C223 1.460 . S
C227 C226 1.477 . S
C227 H247 0.930 . S
C228 N224 1.362 . S
C228 C225 1.431 . S
C228 C238 1.476 . S
H229 C223 0.929 . S
C230 O221 1.250 . S
C230 O222 1.258 . S
O231 Mn216 2.162 . S
O231 C219 1.281 . S
O232 Mn216 2.297 . S
O232 C219 1.236 . S
N233 Mn217 2.282 . S
N233 C234 1.328 . S
N233 C238 1.318 . S
C234 N233 1.328 . S
C234 C235 1.457 . S
C234 H239 0.929 . S
C235 C234 1.457 . S
C235 C236 1.291 . S
C235 H248 0.931 . S
C236 C235 1.291 . S
C236 C237 1.373 . S
C236 H249 0.929 . S
C237 C236 1.373 . S
C237 C238 1.396 . S
C237 C244 1.403 . S
C238 C228 1.476 . S
C238 N233 1.318 . S
C238 C237 1.396 . S
H239 C234 0.929 . S
O240 Mn216 2.385 . S
O240 C218 1.234 . S
O241 Mn216 2.209 . S
O241 Mn217 2.215 . S
O241 C218 1.283 . S
O242 Mn216 2.094 . S
O242 C220 1.240 . S
O243 Mn217 2.117 . S
O243 C220 1.264 . S
C244 C237 1.403 . S
C244 C245 1.399 . S
C244 H250 0.929 . S
C245 C225 1.449 . S
C245 C244 1.399 . S
C245 H251 0.930 . S
H246 C226 0.931 . S
H247 C227 0.930 . S
H248 C235 0.931 . S
H249 C236 0.929 . S
H250 C244 0.929 . S
H251 C245 0.930 . S
Mn252 O257 2.095 . S
Mn252 O267 2.162 . S
Mn252 O268 2.297 . S
Mn252 O276 2.385 . S
Mn252 O277 2.209 . S
Mn252 O278 2.094 . S
Mn253 O258 2.121 . S
Mn253 N260 2.257 . S
Mn253 N269 2.282 . S
Mn253 O277 2.215 . S
Mn253 O279 2.117 . S
C254 O276 1.234 . S
C254 O277 1.283 . S
C255 O267 1.281 . S
C255 O268 1.236 . S
C256 O278 1.240 . S
C256 O279 1.264 . S
O257 Mn252 2.095 . S
O257 C266 1.250 . S
O258 Mn253 2.121 . S
O258 C266 1.258 . S
C259 N260 1.326 . S
C259 C263 1.460 . S
C259 H265 0.929 . S
N260 Mn253 2.257 . S
N260 C259 1.326 . S
N260 C264 1.362 . S
C261 C262 1.258 . S
C261 C264 1.431 . S
C261 C281 1.449 . S
C262 C261 1.258 . S
C262 C263 1.477 . S
C262 H282 0.931 . S
C263 C259 1.460 . S
C263 C262 1.477 . S
C263 H283 0.930 . S
C264 N260 1.362 . S
C264 C261 1.431 . S
C264 C274 1.476 . S
H265 C259 0.929 . S
C266 O257 1.250 . S
C266 O258 1.258 . S
O267 Mn252 2.162 . S
O267 C255 1.281 . S
O268 Mn252 2.297 . S
O268 C255 1.236 . S
N269 Mn253 2.282 . S
N269 C270 1.328 . S
N269 C274 1.318 . S
C270 N269 1.328 . S
C270 C271 1.457 . S
C270 H275 0.929 . S
C271 C270 1.457 . S
C271 C272 1.291 . S
C271 H284 0.931 . S
C272 C271 1.291 . S
C272 C273 1.373 . S
C272 H285 0.929 . S
C273 C272 1.373 . S
C273 C274 1.396 . S
C273 C280 1.403 . S
C274 C264 1.476 . S
C274 N269 1.318 . S
C274 C273 1.396 . S
H275 C270 0.929 . S
O276 Mn252 2.385 . S
O276 C254 1.234 . S
O277 Mn252 2.209 . S
O277 Mn253 2.215 . S
O277 C254 1.283 . S
O278 Mn252 2.094 . S
O278 C256 1.240 . S
O279 Mn253 2.117 . S
O279 C256 1.264 . S
C280 C273 1.403 . S
C280 C281 1.399 . S
C280 H286 0.929 . S
C281 C261 1.449 . S
C281 C280 1.399 . S
C281 H287 0.930 . S
H282 C262 0.931 . S
H283 C263 0.930 . S
H284 C271 0.931 . S
H285 C272 0.929 . S
H286 C280 0.929 . S
H287 C281 0.930 . S
Mn288 O293 2.095 . S
Mn288 O303 2.162 . S
Mn288 O304 2.297 . S
Mn288 O312 2.385 . S
Mn288 O313 2.209 . S
Mn288 O314 2.094 . S
Mn289 O294 2.121 . S
Mn289 N296 2.257 . S
Mn289 N305 2.282 . S
Mn289 O313 2.215 . S
Mn289 O315 2.117 . S
C290 O312 1.234 . S
C290 O313 1.283 . S
C291 O303 1.281 . S
C291 O304 1.236 . S
C292 O314 1.240 . S
C292 O315 1.264 . S
O293 Mn288 2.095 . S
O293 C302 1.250 . S
O294 Mn289 2.121 . S
O294 C302 1.258 . S
C295 N296 1.326 . S
C295 C299 1.460 . S
C295 H301 0.929 . S
N296 Mn289 2.257 . S
N296 C295 1.326 . S
N296 C300 1.362 . S
C297 C298 1.258 . S
C297 C300 1.431 . S
C297 C317 1.449 . S
C298 C297 1.258 . S
C298 C299 1.477 . S
C298 H318 0.931 . S
C299 C295 1.460 . S
C299 C298 1.477 . S
C299 H319 0.930 . S
C300 N296 1.362 . S
C300 C297 1.431 . S
C300 C310 1.476 . S
H301 C295 0.929 . S
C302 O293 1.250 . S
C302 O294 1.258 . S
O303 Mn288 2.162 . S
O303 C291 1.281 . S
O304 Mn288 2.297 . S
O304 C291 1.236 . S
N305 Mn289 2.282 . S
N305 C306 1.328 . S
N305 C310 1.318 . S
C306 N305 1.328 . S
C306 C307 1.457 . S
C306 H311 0.929 . S
C307 C306 1.457 . S
C307 C308 1.291 . S
C307 H320 0.931 . S
C308 C307 1.291 . S
C308 C309 1.373 . S
C308 H321 0.929 . S
C309 C308 1.373 . S
C309 C310 1.396 . S
C309 C316 1.403 . S
C310 C300 1.476 . S
C310 N305 1.318 . S
C310 C309 1.396 . S
H311 C306 0.929 . S
O312 Mn288 2.385 . S
O312 C290 1.234 . S
O313 Mn288 2.209 . S
O313 Mn289 2.215 . S
O313 C290 1.283 . S
O314 Mn288 2.094 . S
O314 C292 1.240 . S
O315 Mn289 2.117 . S
O315 C292 1.264 . S
C316 C309 1.403 . S
C316 C317 1.399 . S
C316 H322 0.929 . S
C317 C297 1.449 . S
C317 C316 1.399 . S
C317 H323 0.930 . S
H318 C298 0.931 . S
H319 C299 0.930 . S
H320 C307 0.931 . S
H321 C308 0.929 . S
H322 C316 0.929 . S
H323 C317 0.930 . S
Mn324 O329 2.095 . S
Mn324 O339 2.162 . S
Mn324 O340 2.297 . S
Mn324 O348 2.385 . S
Mn324 O349 2.209 . S
Mn324 O350 2.094 . S
Mn325 O330 2.121 . S
Mn325 N332 2.257 . S
Mn325 N341 2.282 . S
Mn325 O349 2.215 . S
Mn325 O351 2.117 . S
C326 O348 1.234 . S
C326 O349 1.283 . S
C327 O339 1.281 . S
C327 O340 1.236 . S
C328 O350 1.240 . S
C328 O351 1.264 . S
O329 Mn324 2.095 . S
O329 C338 1.250 . S
O330 Mn325 2.121 . S
O330 C338 1.258 . S
C331 N332 1.326 . S
C331 C335 1.460 . S
C331 H337 0.929 . S
N332 Mn325 2.257 . S
N332 C331 1.326 . S
N332 C336 1.362 . S
C333 C334 1.258 . S
C333 C336 1.431 . S
C333 C353 1.449 . S
C334 C333 1.258 . S
C334 C335 1.477 . S
C334 H354 0.931 . S
C335 C331 1.460 . S
C335 C334 1.477 . S
C335 H355 0.930 . S
C336 N332 1.362 . S
C336 C333 1.431 . S
C336 C346 1.476 . S
H337 C331 0.929 . S
C338 O329 1.250 . S
C338 O330 1.258 . S
O339 Mn324 2.162 . S
O339 C327 1.281 . S
O340 Mn324 2.297 . S
O340 C327 1.236 . S
N341 Mn325 2.282 . S
N341 C342 1.328 . S
N341 C346 1.318 . S
C342 N341 1.328 . S
C342 C343 1.457 . S
C342 H347 0.929 . S
C343 C342 1.457 . S
C343 C344 1.291 . S
C343 H356 0.931 . S
C344 C343 1.291 . S
C344 C345 1.373 . S
C344 H357 0.929 . S
C345 C344 1.373 . S
C345 C346 1.396 . S
C345 C352 1.403 . S
C346 C336 1.476 . S
C346 N341 1.318 . S
C346 C345 1.396 . S
H347 C342 0.929 . S
O348 Mn324 2.385 . S
O348 C326 1.234 . S
O349 Mn324 2.209 . S
O349 Mn325 2.215 . S
O349 C326 1.283 . S
O350 Mn324 2.094 . S
O350 C328 1.240 . S
O351 Mn325 2.117 . S
O351 C328 1.264 . S
C352 C345 1.403 . S
C352 C353 1.399 . S
C352 H358 0.929 . S
C353 C333 1.449 . S
C353 C352 1.399 . S
C353 H359 0.930 . S
H354 C334 0.931 . S
H355 C335 0.930 . S
H356 C343 0.931 . S
H357 C344 0.929 . S
H358 C352 0.929 . S
H359 C353 0.930 . S
Mn360 O365 2.095 . S
Mn360 O375 2.162 . S
Mn360 O376 2.297 . S
Mn360 O384 2.385 . S
Mn360 O385 2.209 . S
Mn360 O386 2.094 . S
Mn361 O366 2.121 . S
Mn361 N368 2.257 . S
Mn361 N377 2.282 . S
Mn361 O385 2.215 . S
Mn361 O387 2.117 . S
C362 O384 1.234 . S
C362 O385 1.283 . S
C363 O375 1.281 . S
C363 O376 1.236 . S
C364 O386 1.240 . S
C364 O387 1.264 . S
O365 Mn360 2.095 . S
O365 C374 1.250 . S
O366 Mn361 2.121 . S
O366 C374 1.258 . S
C367 N368 1.326 . S
C367 C371 1.460 . S
C367 H373 0.929 . S
N368 Mn361 2.257 . S
N368 C367 1.326 . S
N368 C372 1.362 . S
C369 C370 1.258 . S
C369 C372 1.431 . S
C369 C389 1.449 . S
C370 C369 1.258 . S
C370 C371 1.477 . S
C370 H390 0.931 . S
C371 C367 1.460 . S
C371 C370 1.477 . S
C371 H391 0.930 . S
C372 N368 1.362 . S
C372 C369 1.431 . S
C372 C382 1.476 . S
H373 C367 0.929 . S
C374 O365 1.250 . S
C374 O366 1.258 . S
O375 Mn360 2.162 . S
O375 C363 1.281 . S
O376 Mn360 2.297 . S
O376 C363 1.236 . S
N377 Mn361 2.282 . S
N377 C378 1.328 . S
N377 C382 1.318 . S
C378 N377 1.328 . S
C378 C379 1.457 . S
C378 H383 0.929 . S
C379 C378 1.457 . S
C379 C380 1.291 . S
C379 H392 0.931 . S
C380 C379 1.291 . S
C380 C381 1.373 . S
C380 H393 0.929 . S
C381 C380 1.373 . S
C381 C382 1.396 . S
C381 C388 1.403 . S
C382 C372 1.476 . S
C382 N377 1.318 . S
C382 C381 1.396 . S
H383 C378 0.929 . S
O384 Mn360 2.385 . S
O384 C362 1.234 . S
O385 Mn360 2.209 . S
O385 Mn361 2.215 . S
O385 C362 1.283 . S
O386 Mn360 2.094 . S
O386 C364 1.240 . S
O387 Mn361 2.117 . S
O387 C364 1.264 . S
C388 C381 1.403 . S
C388 C389 1.399 . S
C388 H394 0.929 . S
C389 C369 1.449 . S
C389 C388 1.399 . S
C389 H395 0.930 . S
H390 C370 0.931 . S
H391 C371 0.930 . S
H392 C379 0.931 . S
H393 C380 0.929 . S
H394 C388 0.929 . S
H395 C389 0.930 . S
Mn396 O401 2.095 . S
Mn396 O411 2.162 . S
Mn396 O412 2.297 . S
Mn396 O420 2.385 . S
Mn396 O421 2.209 . S
Mn396 O422 2.094 . S
Mn397 O402 2.121 . S
Mn397 N404 2.257 . S
Mn397 N413 2.282 . S
Mn397 O421 2.215 . S
Mn397 O423 2.117 . S
C398 O420 1.234 . S
C398 O421 1.283 . S
C399 O411 1.281 . S
C399 O412 1.236 . S
C400 O422 1.240 . S
C400 O423 1.264 . S
O401 Mn396 2.095 . S
O401 C410 1.250 . S
O402 Mn397 2.121 . S
O402 C410 1.258 . S
C403 N404 1.326 . S
C403 C407 1.460 . S
C403 H409 0.929 . S
N404 Mn397 2.257 . S
N404 C403 1.326 . S
N404 C408 1.362 . S
C405 C406 1.258 . S
C405 C408 1.431 . S
C405 C425 1.449 . S
C406 C405 1.258 . S
C406 C407 1.477 . S
C406 H426 0.931 . S
C407 C403 1.460 . S
C407 C406 1.477 . S
C407 H427 0.930 . S
C408 N404 1.362 . S
C408 C405 1.431 . S
C408 C418 1.476 . S
H409 C403 0.929 . S
C410 O401 1.250 . S
C410 O402 1.258 . S
O411 Mn396 2.162 . S
O411 C399 1.281 . S
O412 Mn396 2.297 . S
O412 C399 1.236 . S
N413 Mn397 2.282 . S
N413 C414 1.328 . S
N413 C418 1.318 . S
C414 N413 1.328 . S
C414 C415 1.457 . S
C414 H419 0.929 . S
C415 C414 1.457 . S
C415 C416 1.291 . S
C415 H428 0.931 . S
C416 C415 1.291 . S
C416 C417 1.373 . S
C416 H429 0.929 . S
C417 C416 1.373 . S
C417 C418 1.396 . S
C417 C424 1.403 . S
C418 C408 1.476 . S
C418 N413 1.318 . S
C418 C417 1.396 . S
H419 C414 0.929 . S
O420 Mn396 2.385 . S
O420 C398 1.234 . S
O421 Mn396 2.209 . S
O421 Mn397 2.215 . S
O421 C398 1.283 . S
O422 Mn396 2.094 . S
O422 C400 1.240 . S
O423 Mn397 2.117 . S
O423 C400 1.264 . S
C424 C417 1.403 . S
C424 C425 1.399 . S
C424 H430 0.929 . S
C425 C405 1.449 . S
C425 C424 1.399 . S
C425 H431 0.930 . S
H426 C406 0.931 . S
H427 C407 0.930 . S
H428 C415 0.931 . S
H429 C416 0.929 . S
H430 C424 0.929 . S
H431 C425 0.930 . S
Mn432 O437 2.095 . S
Mn432 O447 2.162 . S
Mn432 O448 2.297 . S
Mn432 O456 2.385 . S
Mn432 O457 2.209 . S
Mn432 O458 2.094 . S
Mn433 O438 2.121 . S
Mn433 N440 2.257 . S
Mn433 N449 2.282 . S
Mn433 O457 2.215 . S
Mn433 O459 2.117 . S
C434 O456 1.234 . S
C434 O457 1.283 . S
C435 O447 1.281 . S
C435 O448 1.236 . S
C436 O458 1.240 . S
C436 O459 1.264 . S
O437 Mn432 2.095 . S
O437 C446 1.250 . S
O438 Mn433 2.121 . S
O438 C446 1.258 . S
C439 N440 1.326 . S
C439 C443 1.460 1_554 S
C439 H445 0.929 . S
N440 Mn433 2.257 . S
N440 C439 1.326 . S
N440 C444 1.362 . S
C441 C442 1.258 1_554 S
C441 C444 1.431 . S
C441 C461 1.445 1_554 S
C442 C441 1.258 1_556 S
C442 C443 1.477 . S
C442 H462 0.931 . S
C443 C439 1.460 1_556 S
C443 C442 1.477 . S
C443 H463 0.930 . S
C444 N440 1.362 . S
C444 C441 1.431 . S
C444 C454 1.476 . S
H445 C439 0.929 . S
C446 O437 1.250 . S
C446 O438 1.258 . S
O447 Mn432 2.162 . S
O447 C435 1.281 . S
O448 Mn432 2.297 . S
O448 C435 1.236 . S
N449 Mn433 2.282 . S
N449 C450 1.328 . S
N449 C454 1.318 . S
C450 N449 1.328 . S
C450 C451 1.457 . S
C450 H455 0.929 . S
C451 C450 1.457 . S
C451 C452 1.291 . S
C451 H464 0.931 . S
C452 C451 1.291 . S
C452 C453 1.373 . S
C452 H465 0.929 . S
C453 C452 1.373 . S
C453 C454 1.396 . S
C453 C460 1.403 . S
C454 C444 1.476 . S
C454 N449 1.318 . S
C454 C453 1.396 . S
H455 C450 0.929 . S
O456 Mn432 2.385 . S
O456 C434 1.234 . S
O457 Mn432 2.209 . S
O457 Mn433 2.215 . S
O457 C434 1.283 . S
O458 Mn432 2.094 . S
O458 C436 1.240 . S
O459 Mn433 2.117 . S
O459 C436 1.264 . S
C460 C453 1.403 . S
C460 C461 1.383 1_554 S
C460 H466 0.929 . S
C461 C441 1.445 1_556 S
C461 C460 1.383 1_556 S
C461 H467 0.951 . S
H462 C442 0.931 . S
H463 C443 0.930 . S
H464 C451 0.931 . S
H465 C452 0.929 . S
H466 C460 0.929 . S
H467 C461 0.951 . S
Mn468 O473 2.095 . S
Mn468 O483 2.162 . S
Mn468 O484 2.297 . S
Mn468 O492 2.385 . S
Mn468 O493 2.209 . S
Mn468 O494 2.094 . S
Mn469 O474 2.121 . S
Mn469 N476 2.257 . S
Mn469 N485 2.282 . S
Mn469 O493 2.215 . S
Mn469 O495 2.117 . S
C470 O492 1.234 . S
C470 O493 1.283 . S
C471 O483 1.281 . S
C471 O484 1.236 . S
C472 O494 1.240 . S
C472 O495 1.264 . S
O473 Mn468 2.095 . S
O473 C482 1.250 . S
O474 Mn469 2.121 . S
O474 C482 1.258 . S
C475 N476 1.326 . S
C475 C479 1.460 . S
C475 H481 0.929 . S
N476 Mn469 2.257 . S
N476 C475 1.326 . S
N476 C480 1.362 . S
C477 C478 1.258 . S
C477 C480 1.431 . S
C477 C497 1.449 . S
C478 C477 1.258 . S
C478 C479 1.477 . S
C478 H498 0.931 . S
C479 C475 1.460 . S
C479 C478 1.477 . S
C479 H499 0.930 . S
C480 N476 1.362 . S
C480 C477 1.431 . S
C480 C490 1.476 . S
H481 C475 0.929 . S
C482 O473 1.250 . S
C482 O474 1.258 . S
O483 Mn468 2.162 . S
O483 C471 1.281 . S
O484 Mn468 2.297 . S
O484 C471 1.236 . S
N485 Mn469 2.282 . S
N485 C486 1.328 . S
N485 C490 1.318 . S
C486 N485 1.328 . S
C486 C487 1.457 . S
C486 H491 0.929 . S
C487 C486 1.457 . S
C487 C488 1.291 . S
C487 H500 0.931 . S
C488 C487 1.291 . S
C488 C489 1.373 . S
C488 H501 0.929 . S
C489 C488 1.373 . S
C489 C490 1.396 . S
C489 C496 1.403 . S
C490 C480 1.476 . S
C490 N485 1.318 . S
C490 C489 1.396 . S
H491 C486 0.929 . S
O492 Mn468 2.385 . S
O492 C470 1.234 . S
O493 Mn468 2.209 . S
O493 Mn469 2.215 . S
O493 C470 1.283 . S
O494 Mn468 2.094 . S
O494 C472 1.240 . S
O495 Mn469 2.117 . S
O495 C472 1.264 . S
C496 C489 1.403 . S
C496 C497 1.399 . S
C496 H502 0.929 . S
C497 C477 1.449 . S
C497 C496 1.399 . S
C497 H503 0.930 . S
H498 C478 0.931 . S
H499 C479 0.930 . S
H500 C487 0.931 . S
H501 C488 0.929 . S
H502 C496 0.929 . S
H503 C497 0.930 . S
Mn504 O509 2.095 . S
Mn504 O519 2.162 . S
Mn504 O520 2.297 . S
Mn504 O528 2.385 . S
Mn504 O529 2.209 . S
Mn504 O530 2.094 . S
Mn505 O510 2.121 . S
Mn505 N512 2.257 . S
Mn505 N521 2.282 . S
Mn505 O529 2.215 . S
Mn505 O531 2.117 . S
C506 O528 1.234 . S
C506 O529 1.283 . S
C507 O519 1.281 . S
C507 O520 1.236 . S
C508 O530 1.240 . S
C508 O531 1.264 . S
O509 Mn504 2.095 . S
O509 C518 1.250 . S
O510 Mn505 2.121 . S
O510 C518 1.258 . S
C511 N512 1.326 . S
C511 C515 1.460 . S
C511 H517 0.929 . S
N512 Mn505 2.257 . S
N512 C511 1.326 . S
N512 C516 1.362 . S
C513 C514 1.258 . S
C513 C516 1.431 . S
C513 C533 1.449 . S
C514 C513 1.258 . S
C514 C515 1.477 . S
C514 H534 0.931 . S
C515 C511 1.460 . S
C515 C514 1.477 . S
C515 H535 0.930 . S
C516 N512 1.362 . S
C516 C513 1.431 . S
C516 C526 1.476 . S
H517 C511 0.929 . S
C518 O509 1.250 . S
C518 O510 1.258 . S
O519 Mn504 2.162 . S
O519 C507 1.281 . S
O520 Mn504 2.297 . S
O520 C507 1.236 . S
N521 Mn505 2.282 . S
N521 C522 1.328 . S
N521 C526 1.318 . S
C522 N521 1.328 . S
C522 C523 1.457 . S
C522 H527 0.929 . S
C523 C522 1.457 . S
C523 C524 1.291 . S
C523 H536 0.931 . S
C524 C523 1.291 . S
C524 C525 1.373 . S
C524 H537 0.929 . S
C525 C524 1.373 . S
C525 C526 1.396 . S
C525 C532 1.403 . S
C526 C516 1.476 . S
C526 N521 1.318 . S
C526 C525 1.396 . S
H527 C522 0.929 . S
O528 Mn504 2.385 . S
O528 C506 1.234 . S
O529 Mn504 2.209 . S
O529 Mn505 2.215 . S
O529 C506 1.283 . S
O530 Mn504 2.094 . S
O530 C508 1.240 . S
O531 Mn505 2.117 . S
O531 C508 1.264 . S
C532 C525 1.403 . S
C532 C533 1.399 . S
C532 H538 0.929 . S
C533 C513 1.449 . S
C533 C532 1.399 . S
C533 H539 0.930 . S
H534 C514 0.931 . S
H535 C515 0.930 . S
H536 C523 0.931 . S
H537 C524 0.929 . S
H538 C532 0.929 . S
H539 C533 0.930 . S
Mn540 O545 2.095 . S
Mn540 O555 2.162 . S
Mn540 O556 2.297 . S
Mn540 O564 2.385 . S
Mn540 O565 2.209 . S
Mn540 O566 2.094 . S
Mn541 O546 2.121 . S
Mn541 N548 2.257 . S
Mn541 N557 2.282 . S
Mn541 O565 2.215 . S
Mn541 O567 2.117 . S
C542 O564 1.234 . S
C542 O565 1.283 . S
C543 O555 1.281 . S
C543 O556 1.236 . S
C544 O566 1.240 . S
C544 O567 1.264 . S
O545 Mn540 2.095 . S
O545 C554 1.250 . S
O546 Mn541 2.121 . S
O546 C554 1.258 . S
C547 N548 1.326 . S
C547 C551 1.460 . S
C547 H553 0.929 . S
N548 Mn541 2.257 . S
N548 C547 1.326 . S
N548 C552 1.362 . S
C549 C550 1.258 . S
C549 C552 1.431 . S
C549 C569 1.449 . S
C550 C549 1.258 . S
C550 C551 1.477 . S
C550 H570 0.931 . S
C551 C547 1.460 . S
C551 C550 1.477 . S
C551 H571 0.930 . S
C552 N548 1.362 . S
C552 C549 1.431 . S
C552 C562 1.476 . S
H553 C547 0.929 . S
C554 O545 1.250 . S
C554 O546 1.258 . S
O555 Mn540 2.162 . S
O555 C543 1.281 . S
O556 Mn540 2.297 . S
O556 C543 1.236 . S
N557 Mn541 2.282 . S
N557 C558 1.328 . S
N557 C562 1.318 . S
C558 N557 1.328 . S
C558 C559 1.457 . S
C558 H563 0.929 . S
C559 C558 1.457 . S
C559 C560 1.291 . S
C559 H572 0.931 . S
C560 C559 1.291 . S
C560 C561 1.373 . S
C560 H573 0.929 . S
C561 C560 1.373 . S
C561 C562 1.396 . S
C561 C568 1.403 . S
C562 C552 1.476 . S
C562 N557 1.318 . S
C562 C561 1.396 . S
H563 C558 0.929 . S
O564 Mn540 2.385 . S
O564 C542 1.234 . S
O565 Mn540 2.209 . S
O565 Mn541 2.215 . S
O565 C542 1.283 . S
O566 Mn540 2.094 . S
O566 C544 1.240 . S
O567 Mn541 2.117 . S
O567 C544 1.264 . S
C568 C561 1.403 . S
C568 C569 1.399 . S
C568 H574 0.929 . S
C569 C549 1.449 . S
C569 C568 1.399 . S
C569 H575 0.930 . S
H570 C550 0.931 . S
H571 C551 0.930 . S
H572 C559 0.931 . S
H573 C560 0.929 . S
H574 C568 0.929 . S
H575 C569 0.930 . S
H576 C594 0.951 . S
H577 C596 0.951 . S
H578 C598 0.950 . S
H579 C599 0.950 . S
H580 C601 0.950 . S
H581 C604 0.950 . S
H582 C605 0.950 . S
H583 C607 0.950 . S
H584 C608 0.950 . S
H585 C609 0.951 . S
H586 C611 0.951 . S
H587 C613 0.950 . S
H588 C614 0.950 . S
H589 C616 0.950 . S
H590 C619 0.950 . S
H591 C620 0.950 . S
H592 C622 0.950 . S
H593 C623 0.950 . S
C594 H576 0.951 . S
C594 C595 1.366 . S
C594 C596 1.388 . S
C595 C594 1.366 . S
C595 C599 1.385 . S
C596 H577 0.951 . S
C596 C594 1.388 . S
C596 C597 1.366 . S
C597 C596 1.366 . S
C597 C598 1.414 . S
C597 C600 1.499 . S
C598 H578 0.950 . S
C598 C597 1.414 . S
C598 C599 1.374 . S
C599 H579 0.950 . S
C599 C595 1.385 . S
C599 C598 1.374 . S
C600 C597 1.499 . S
C600 C601 1.373 . S
C600 C602 1.389 . S
C601 H580 0.950 . S
C601 C600 1.373 . S
C601 C617 1.377 . S
C602 C600 1.389 . S
C602 C603 1.524 . S
C602 C616 1.377 . S
C603 C602 1.524 . S
C603 C604 1.397 . S
C603 C608 1.363 . S
C604 H581 0.950 . S
C604 C603 1.397 . S
C604 C605 1.334 . S
C605 H582 0.950 . S
C605 C604 1.334 . S
C605 C606 1.287 . S
C606 C605 1.287 . S
C606 C607 1.524 . S
C606 H625 0.913 . S
C607 H583 0.950 . S
C607 C606 1.524 . S
C607 C608 1.415 . S
C608 H584 0.950 . S
C608 C603 1.363 . S
C608 C607 1.415 . S
C609 H585 0.951 . S
C609 C610 1.366 . S
C609 C611 1.388 . S
C610 C609 1.366 . S
C610 C614 1.385 . S
C611 H586 0.951 . S
C611 C609 1.388 . S
C611 C612 1.366 . S
C612 C611 1.366 . S
C612 C613 1.414 . S
C612 C615 1.499 . S
C613 H587 0.950 . S
C613 C612 1.414 . S
C613 C614 1.374 . S
C614 H588 0.950 . S
C614 C610 1.385 . S
C614 C613 1.374 . S
C615 C612 1.499 . S
C615 C616 1.373 . S
C615 C617 1.389 . S
C616 H589 0.950 . S
C616 C602 1.377 . S
C616 C615 1.373 . S
C617 C601 1.377 . S
C617 C615 1.389 . S
C617 C618 1.524 . S
C618 C617 1.524 . S
C618 C619 1.397 . S
C618 C623 1.363 . S
C619 H590 0.950 . S
C619 C618 1.397 . S
C619 C620 1.334 . S
C620 H591 0.950 . S
C620 C619 1.334 . S
C620 C621 1.287 . S
C621 C620 1.287 . S
C621 C622 1.524 . S
C621 H624 0.999 . S
C622 H592 0.950 . S
C622 C621 1.524 . S
C622 C623 1.415 . S
C623 H593 0.950 . S
C623 C618 1.363 . S
C623 C622 1.415 . S
H624 C621 0.999 . S
H625 C606 0.913 . S
H626 C644 0.951 . S
H627 C646 0.951 . S
H628 C648 0.950 . S
H629 C649 0.950 . S
H630 C651 0.950 . S
H631 C654 0.950 . S
H632 C655 0.950 . S
H633 C657 0.950 . S
H634 C658 0.950 . S
H635 C659 0.951 . S
H636 C661 0.951 . S
H637 C663 0.950 . S
H638 C664 0.950 . S
H639 C666 0.950 . S
H640 C669 0.950 . S
H641 C670 0.950 . S
H642 C672 0.950 . S
H643 C673 0.950 . S
C644 H626 0.951 . S
C644 C645 1.366 . S
C644 C646 1.388 . S
C645 C644 1.366 . S
C645 C649 1.385 . S
C646 H627 0.951 . S
C646 C644 1.388 . S
C646 C647 1.366 . S
C647 C646 1.366 . S
C647 C648 1.414 . S
C647 C650 1.499 . S
C648 H628 0.950 . S
C648 C647 1.414 . S
C648 C649 1.374 . S
C649 H629 0.950 . S
C649 C645 1.385 . S
C649 C648 1.374 . S
C650 C647 1.499 . S
C650 C651 1.373 . S
C650 C652 1.389 . S
C651 H630 0.950 . S
C651 C650 1.373 . S
C651 C667 1.377 . S
C652 C650 1.389 . S
C652 C653 1.524 . S
C652 C666 1.377 . S
C653 C652 1.524 . S
C653 C654 1.397 . S
C653 C658 1.363 . S
C654 H631 0.950 . S
C654 C653 1.397 . S
C654 C655 1.334 . S
C655 H632 0.950 . S
C655 C654 1.334 . S
C655 C656 1.287 . S
C656 C655 1.287 . S
C656 C657 1.524 . S
C656 H675 0.913 . S
C657 H633 0.950 . S
C657 C656 1.524 . S
C657 C658 1.415 . S
C658 H634 0.950 . S
C658 C653 1.363 . S
C658 C657 1.415 . S
C659 H635 0.951 . S
C659 C660 1.366 . S
C659 C661 1.388 . S
C660 C659 1.366 . S
C660 C664 1.385 . S
C661 H636 0.951 . S
C661 C659 1.388 . S
C661 C662 1.366 . S
C662 C661 1.366 . S
C662 C663 1.414 . S
C662 C665 1.499 . S
C663 H637 0.950 . S
C663 C662 1.414 . S
C663 C664 1.374 . S
C664 H638 0.950 . S
C664 C660 1.385 . S
C664 C663 1.374 . S
C665 C662 1.499 . S
C665 C666 1.373 . S
C665 C667 1.389 . S
C666 H639 0.950 . S
C666 C652 1.377 . S
C666 C665 1.373 . S
C667 C651 1.377 . S
C667 C665 1.389 . S
C667 C668 1.524 . S
C668 C667 1.524 . S
C668 C669 1.397 . S
C668 C673 1.363 . S
C669 H640 0.950 . S
C669 C668 1.397 . S
C669 C670 1.334 . S
C670 H641 0.950 . S
C670 C669 1.334 . S
C670 C671 1.287 . S
C671 C670 1.287 . S
C671 C672 1.524 . S
C671 H674 0.999 . S
C672 H642 0.950 . S
C672 C671 1.524 . S
C672 C673 1.415 . S
C673 H643 0.950 . S
C673 C668 1.363 . S
C673 C672 1.415 . S
H674 C671 0.999 . S
H675 C656 0.913 . S
H676 C694 0.951 . S
H677 C696 0.951 . S
H678 C698 0.950 . S
H679 C699 0.950 . S
H680 C701 0.950 . S
H681 C704 0.950 . S
H682 C705 0.950 . S
H683 C707 0.950 . S
H684 C708 0.950 . S
H685 C709 0.951 . S
H686 C711 0.951 . S
H687 C713 0.950 . S
H688 C714 0.950 . S
H689 C716 0.950 . S
H690 C719 0.950 . S
H691 C720 0.950 . S
H692 C722 0.950 . S
H693 C723 0.950 . S
C694 H676 0.951 . S
C694 C695 1.366 . S
C694 C696 1.388 . S
C695 C694 1.366 . S
C695 C699 1.385 . S
C696 H677 0.951 . S
C696 C694 1.388 . S
C696 C697 1.366 . S
C697 C696 1.366 . S
C697 C698 1.414 . S
C697 C700 1.499 . S
C698 H678 0.950 . S
C698 C697 1.414 . S
C698 C699 1.374 . S
C699 H679 0.950 . S
C699 C695 1.385 . S
C699 C698 1.374 . S
C700 C697 1.499 . S
C700 C701 1.373 . S
C700 C702 1.389 . S
C701 H680 0.950 . S
C701 C700 1.373 . S
C701 C717 1.377 . S
C702 C700 1.389 . S
C702 C703 1.524 . S
C702 C716 1.377 . S
C703 C702 1.524 . S
C703 C704 1.397 . S
C703 C708 1.363 . S
C704 H681 0.950 . S
C704 C703 1.397 . S
C704 C705 1.334 . S
C705 H682 0.950 . S
C705 C704 1.334 . S
C705 C706 1.287 . S
C706 C705 1.287 . S
C706 C707 1.524 . S
C706 H725 0.913 . S
C707 H683 0.950 . S
C707 C706 1.524 . S
C707 C708 1.415 . S
C708 H684 0.950 . S
C708 C703 1.363 . S
C708 C707 1.415 . S
C709 H685 0.951 . S
C709 C710 1.366 . S
C709 C711 1.388 . S
C710 C709 1.366 . S
C710 C714 1.385 . S
C711 H686 0.951 . S
C711 C709 1.388 . S
C711 C712 1.366 . S
C712 C711 1.366 . S
C712 C713 1.414 . S
C712 C715 1.499 . S
C713 H687 0.950 . S
C713 C712 1.414 . S
C713 C714 1.374 . S
C714 H688 0.950 . S
C714 C710 1.385 . S
C714 C713 1.374 . S
C715 C712 1.499 . S
C715 C716 1.373 . S
C715 C717 1.389 . S
C716 H689 0.950 . S
C716 C702 1.377 . S
C716 C715 1.373 . S
C717 C701 1.377 . S
C717 C715 1.389 . S
C717 C718 1.524 . S
C718 C717 1.524 . S
C718 C719 1.397 . S
C718 C723 1.363 . S
C719 H690 0.950 . S
C719 C718 1.397 . S
C719 C720 1.334 . S
C720 H691 0.950 . S
C720 C719 1.334 . S
C720 C721 1.287 . S
C721 C720 1.287 . S
C721 C722 1.524 . S
C721 H724 0.999 . S
C722 H692 0.950 . S
C722 C721 1.524 . S
C722 C723 1.415 . S
C723 H693 0.950 . S
C723 C718 1.363 . S
C723 C722 1.415 . S
H724 C721 0.999 . S
H725 C706 0.913 . S
H726 C744 0.951 . S
H727 C746 0.951 . S
H728 C748 0.950 . S
H729 C749 0.950 . S
H730 C751 0.950 . S
H731 C754 0.950 . S
H732 C755 0.950 . S
H733 C757 0.950 . S
H734 C758 0.950 . S
H735 C759 0.951 . S
H736 C761 0.951 . S
H737 C763 0.950 . S
H738 C764 0.950 . S
H739 C766 0.950 . S
H740 C769 0.950 . S
H741 C770 0.950 . S
H742 C772 0.950 . S
H743 C773 0.950 . S
C744 H726 0.951 . S
C744 C745 1.366 . S
C744 C746 1.388 . S
C745 C744 1.366 . S
C745 C749 1.385 . S
C746 H727 0.951 . S
C746 C744 1.388 . S
C746 C747 1.366 . S
C747 C746 1.366 . S
C747 C748 1.414 . S
C747 C750 1.499 . S
C748 H728 0.950 . S
C748 C747 1.414 . S
C748 C749 1.374 . S
C749 H729 0.950 . S
C749 C745 1.385 . S
C749 C748 1.374 . S
C750 C747 1.499 . S
C750 C751 1.373 . S
C750 C752 1.389 . S
C751 H730 0.950 . S
C751 C750 1.373 . S
C751 C767 1.377 1_455 S
C752 C750 1.389 . S
C752 C753 1.524 . S
C752 C766 1.377 1_455 S
C753 C752 1.524 . S
C753 C754 1.397 . S
C753 C758 1.363 . S
C754 H731 0.950 . S
C754 C753 1.397 . S
C754 C755 1.334 . S
C755 H732 0.950 . S
C755 C754 1.334 . S
C755 C756 1.287 . S
C756 C755 1.287 . S
C756 C757 1.524 . S
C756 H775 0.913 . S
C757 H733 0.950 . S
C757 C756 1.524 . S
C757 C758 1.415 . S
C758 H734 0.950 . S
C758 C753 1.363 . S
C758 C757 1.415 . S
C759 H735 0.951 . S
C759 C760 1.366 . S
C759 C761 1.388 . S
C760 C759 1.366 . S
C760 C764 1.385 . S
C761 H736 0.951 . S
C761 C759 1.388 . S
C761 C762 1.366 . S
C762 C761 1.366 . S
C762 C763 1.414 . S
C762 C765 1.499 . S
C763 H737 0.950 . S
C763 C762 1.414 . S
C763 C764 1.374 . S
C764 H738 0.950 . S
C764 C760 1.385 . S
C764 C763 1.374 . S
C765 C762 1.499 . S
C765 C766 1.373 . S
C765 C767 1.389 . S
C766 H739 0.950 . S
C766 C752 1.377 1_655 S
C766 C765 1.373 . S
C767 C751 1.377 1_655 S
C767 C765 1.389 . S
C767 C768 1.524 . S
C768 C767 1.524 . S
C768 C769 1.397 . S
C768 C773 1.363 . S
C769 H740 0.950 . S
C769 C768 1.397 . S
C769 C770 1.334 . S
C770 H741 0.950 . S
C770 C769 1.334 . S
C770 C771 1.287 . S
C771 C770 1.287 . S
C771 C772 1.524 . S
C771 H774 0.999 . S
C772 H742 0.950 . S
C772 C771 1.524 . S
C772 C773 1.415 . S
C773 H743 0.950 . S
C773 C768 1.363 . S
C773 C772 1.415 . S
H774 C771 0.999 . S
H775 C756 0.913 . S
H776 C794 0.951 . S
H777 C796 0.951 . S
H778 C798 0.950 . S
H779 C799 0.950 . S
H780 C801 0.950 . S
H781 C804 0.950 . S
H782 C805 0.950 . S
H783 C807 0.950 . S
H784 C808 0.950 . S
H785 C809 0.951 . S
H786 C811 0.951 . S
H787 C813 0.950 . S
H788 C814 0.950 . S
H789 C816 0.950 . S
H790 C819 0.950 . S
H791 C820 0.950 . S
H792 C822 0.950 . S
H793 C823 0.950 . S
C794 H776 0.951 . S
C794 C795 1.366 . S
C794 C796 1.388 . S
C795 C794 1.366 . S
C795 C799 1.385 . S
C796 H777 0.951 . S
C796 C794 1.388 . S
C796 C797 1.366 . S
C797 C796 1.366 . S
C797 C798 1.414 . S
C797 C800 1.499 . S
C798 H778 0.950 . S
C798 C797 1.414 . S
C798 C799 1.374 . S
C799 H779 0.950 . S
C799 C795 1.385 . S
C799 C798 1.374 . S
C800 C797 1.499 . S
C800 C801 1.373 . S
C800 C802 1.389 . S
C801 H780 0.950 . S
C801 C800 1.373 . S
C801 C817 1.377 . S
C802 C800 1.389 . S
C802 C803 1.524 . S
C802 C816 1.377 . S
C803 C802 1.524 . S
C803 C804 1.397 . S
C803 C808 1.363 . S
C804 H781 0.950 . S
C804 C803 1.397 . S
C804 C805 1.334 . S
C805 H782 0.950 . S
C805 C804 1.334 . S
C805 C806 1.287 . S
C806 C805 1.287 . S
C806 C807 1.524 . S
C806 H825 0.913 . S
C807 H783 0.950 . S
C807 C806 1.524 . S
C807 C808 1.415 . S
C808 H784 0.950 . S
C808 C803 1.363 . S
C808 C807 1.415 . S
C809 H785 0.951 . S
C809 C810 1.366 . S
C809 C811 1.388 . S
C810 C809 1.366 . S
C810 C814 1.385 . S
C811 H786 0.951 . S
C811 C809 1.388 . S
C811 C812 1.366 . S
C812 C811 1.366 . S
C812 C813 1.414 . S
C812 C815 1.499 . S
C813 H787 0.950 . S
C813 C812 1.414 . S
C813 C814 1.374 . S
C814 H788 0.950 . S
C814 C810 1.385 . S
C814 C813 1.374 . S
C815 C812 1.499 . S
C815 C816 1.373 . S
C815 C817 1.389 . S
C816 H789 0.950 . S
C816 C802 1.377 . S
C816 C815 1.373 . S
C817 C801 1.377 . S
C817 C815 1.389 . S
C817 C818 1.524 . S
C818 C817 1.524 . S
C818 C819 1.397 . S
C818 C823 1.363 . S
C819 H790 0.950 . S
C819 C818 1.397 . S
C819 C820 1.334 . S
C820 H791 0.950 . S
C820 C819 1.334 . S
C820 C821 1.287 . S
C821 C820 1.287 . S
C821 C822 1.524 . S
C821 H824 0.999 . S
C822 H792 0.950 . S
C822 C821 1.524 . S
C822 C823 1.415 . S
C823 H793 0.950 . S
C823 C818 1.363 . S
C823 C822 1.415 . S
H824 C821 0.999 . S
H825 C806 0.913 . S
H826 C844 0.951 . S
H827 C846 0.951 . S
H828 C848 0.950 . S
H829 C849 0.950 . S
H830 C851 0.950 . S
H831 C854 0.950 . S
H832 C855 0.950 . S
H833 C857 0.950 . S
H834 C858 0.950 . S
H835 C859 0.951 . S
H836 C861 0.951 . S
H837 C863 0.950 . S
H838 C864 0.950 . S
H839 C866 0.950 . S
H840 C869 0.950 . S
H841 C870 0.950 . S
H842 C872 0.950 . S
H843 C873 0.950 . S
C844 H826 0.951 . S
C844 C845 1.366 . S
C844 C846 1.388 . S
C845 C844 1.366 . S
C845 C849 1.385 . S
C846 H827 0.951 . S
C846 C844 1.388 . S
C846 C847 1.366 . S
C847 C846 1.366 . S
C847 C848 1.414 . S
C847 C850 1.499 . S
C848 H828 0.950 . S
C848 C847 1.414 . S
C848 C849 1.374 . S
C849 H829 0.950 . S
C849 C845 1.385 . S
C849 C848 1.374 . S
C850 C847 1.499 . S
C850 C851 1.373 . S
C850 C852 1.389 . S
C851 H830 0.950 . S
C851 C850 1.373 . S
C851 C867 1.377 1_655 S
C852 C850 1.389 . S
C852 C853 1.524 . S
C852 C866 1.377 1_655 S
C853 C852 1.524 . S
C853 C854 1.397 . S
C853 C858 1.363 . S
C854 H831 0.950 . S
C854 C853 1.397 . S
C854 C855 1.334 . S
C855 H832 0.950 . S
C855 C854 1.334 . S
C855 C856 1.287 . S
C856 C855 1.287 . S
C856 C857 1.524 . S
C856 H875 0.913 . S
C857 H833 0.950 . S
C857 C856 1.524 . S
C857 C858 1.415 . S
C858 H834 0.950 . S
C858 C853 1.363 . S
C858 C857 1.415 . S
C859 H835 0.951 . S
C859 C860 1.366 . S
C859 C861 1.388 . S
C860 C859 1.366 . S
C860 C864 1.385 . S
C861 H836 0.951 . S
C861 C859 1.388 . S
C861 C862 1.366 . S
C862 C861 1.366 . S
C862 C863 1.414 . S
C862 C865 1.499 . S
C863 H837 0.950 . S
C863 C862 1.414 . S
C863 C864 1.374 . S
C864 H838 0.950 . S
C864 C860 1.385 . S
C864 C863 1.374 . S
C865 C862 1.499 . S
C865 C866 1.373 . S
C865 C867 1.389 . S
C866 H839 0.950 . S
C866 C852 1.377 1_455 S
C866 C865 1.373 . S
C867 C851 1.377 1_455 S
C867 C865 1.389 . S
C867 C868 1.524 . S
C868 C867 1.524 . S
C868 C869 1.397 . S
C868 C873 1.363 . S
C869 H840 0.950 . S
C869 C868 1.397 . S
C869 C870 1.334 . S
C870 H841 0.950 . S
C870 C869 1.334 . S
C870 C871 1.287 . S
C871 C870 1.287 . S
C871 C872 1.524 . S
C871 H874 0.999 . S
C872 H842 0.950 . S
C872 C871 1.524 . S
C872 C873 1.415 . S
C873 H843 0.950 . S
C873 C868 1.363 . S
C873 C872 1.415 . S
H874 C871 0.999 . S
H875 C856 0.913 . S
H876 C894 0.951 . S
H877 C896 0.951 . S
H878 C898 0.950 . S
H879 C899 0.950 . S
H880 C901 0.950 . S
H881 C904 0.950 . S
H882 C905 0.950 . S
H883 C907 0.950 . S
H884 C908 0.950 . S
H885 C909 0.951 . S
H886 C911 0.951 . S
H887 C913 0.950 . S
H888 C914 0.950 . S
H889 C916 0.950 . S
H890 C919 0.950 . S
H891 C920 0.950 . S
H892 C922 0.950 . S
H893 C923 0.950 . S
C894 H876 0.951 . S
C894 C895 1.366 . S
C894 C896 1.388 . S
C895 C894 1.366 . S
C895 C899 1.385 . S
C896 H877 0.951 . S
C896 C894 1.388 . S
C896 C897 1.366 . S
C897 C896 1.366 . S
C897 C898 1.414 . S
C897 C900 1.499 . S
C898 H878 0.950 . S
C898 C897 1.414 . S
C898 C899 1.374 . S
C899 H879 0.950 . S
C899 C895 1.385 . S
C899 C898 1.374 . S
C900 C897 1.499 . S
C900 C901 1.373 . S
C900 C902 1.389 . S
C901 H880 0.950 . S
C901 C900 1.373 . S
C901 C917 1.377 . S
C902 C900 1.389 . S
C902 C903 1.524 . S
C902 C916 1.377 . S
C903 C902 1.524 . S
C903 C904 1.397 . S
C903 C908 1.363 . S
C904 H881 0.950 . S
C904 C903 1.397 . S
C904 C905 1.334 . S
C905 H882 0.950 . S
C905 C904 1.334 . S
C905 C906 1.287 . S
C906 C905 1.287 . S
C906 C907 1.524 . S
C906 H925 0.913 . S
C907 H883 0.950 . S
C907 C906 1.524 . S
C907 C908 1.415 . S
C908 H884 0.950 . S
C908 C903 1.363 . S
C908 C907 1.415 . S
C909 H885 0.951 . S
C909 C910 1.366 . S
C909 C911 1.388 . S
C910 C909 1.366 . S
C910 C914 1.385 . S
C911 H886 0.951 . S
C911 C909 1.388 . S
C911 C912 1.366 . S
C912 C911 1.366 . S
C912 C913 1.414 . S
C912 C915 1.499 . S
C913 H887 0.950 . S
C913 C912 1.414 . S
C913 C914 1.374 . S
C914 H888 0.950 . S
C914 C910 1.385 . S
C914 C913 1.374 . S
C915 C912 1.499 . S
C915 C916 1.373 . S
C915 C917 1.389 . S
C916 H889 0.950 . S
C916 C902 1.377 . S
C916 C915 1.373 . S
C917 C901 1.377 . S
C917 C915 1.389 . S
C917 C918 1.524 . S
C918 C917 1.524 . S
C918 C919 1.397 . S
C918 C923 1.363 . S
C919 H890 0.950 . S
C919 C918 1.397 . S
C919 C920 1.334 . S
C920 H891 0.950 . S
C920 C919 1.334 . S
C920 C921 1.287 . S
C921 C920 1.287 . S
C921 C922 1.524 . S
C921 H924 0.999 . S
C922 H892 0.950 . S
C922 C921 1.524 . S
C922 C923 1.415 . S
C923 H893 0.950 . S
C923 C918 1.363 . S
C923 C922 1.415 . S
H924 C921 0.999 . S
H925 C906 0.913 . S
H926 C944 0.951 . S
H927 C946 0.951 . S
H928 C948 0.950 . S
H929 C949 0.950 . S
H930 C951 0.950 . S
H931 C954 0.950 . S
H932 C955 0.950 . S
H933 C957 0.950 . S
H934 C958 0.950 . S
H935 C959 0.951 . S
H936 C961 0.951 . S
H937 C963 0.950 . S
H938 C964 0.950 . S
H939 C966 0.950 . S
H940 C969 0.950 . S
H941 C970 0.950 . S
H942 C972 0.950 . S
H943 C973 0.950 . S
C944 H926 0.951 . S
C944 C945 1.366 . S
C944 C946 1.388 . S
C945 C944 1.366 . S
C945 C949 1.385 . S
C946 H927 0.951 . S
C946 C944 1.388 . S
C946 C947 1.366 . S
C947 C946 1.366 . S
C947 C948 1.414 . S
C947 C950 1.499 . S
C948 H928 0.950 . S
C948 C947 1.414 . S
C948 C949 1.374 . S
C949 H929 0.950 . S
C949 C945 1.385 . S
C949 C948 1.374 . S
C950 C947 1.499 . S
C950 C951 1.373 . S
C950 C952 1.389 . S
C951 H930 0.950 . S
C951 C950 1.373 . S
C951 C967 1.377 . S
C952 C950 1.389 . S
C952 C953 1.524 . S
C952 C966 1.377 . S
C953 C952 1.524 . S
C953 C954 1.397 . S
C953 C958 1.363 . S
C954 H931 0.950 . S
C954 C953 1.397 . S
C954 C955 1.334 . S
C955 H932 0.950 . S
C955 C954 1.334 . S
C955 C956 1.287 . S
C956 C955 1.287 . S
C956 C957 1.524 . S
C956 H975 0.913 . S
C957 H933 0.950 . S
C957 C956 1.524 . S
C957 C958 1.415 . S
C958 H934 0.950 . S
C958 C953 1.363 . S
C958 C957 1.415 . S
C959 H935 0.951 . S
C959 C960 1.366 . S
C959 C961 1.388 . S
C960 C959 1.366 . S
C960 C964 1.385 . S
C961 H936 0.951 . S
C961 C959 1.388 . S
C961 C962 1.366 . S
C962 C961 1.366 . S
C962 C963 1.414 . S
C962 C965 1.499 . S
C963 H937 0.950 . S
C963 C962 1.414 . S
C963 C964 1.374 . S
C964 H938 0.950 . S
C964 C960 1.385 . S
C964 C963 1.374 . S
C965 C962 1.499 . S
C965 C966 1.373 . S
C965 C967 1.389 . S
C966 H939 0.950 . S
C966 C952 1.377 . S
C966 C965 1.373 . S
C967 C951 1.377 . S
C967 C965 1.389 . S
C967 C968 1.524 . S
C968 C967 1.524 . S
C968 C969 1.397 . S
C968 C973 1.363 . S
C969 H940 0.950 . S
C969 C968 1.397 . S
C969 C970 1.334 . S
C970 H941 0.950 . S
C970 C969 1.334 . S
C970 C971 1.287 . S
C971 C970 1.287 . S
C971 C972 1.524 . S
C971 H974 0.999 . S
C972 H942 0.950 . S
C972 C971 1.524 . S
C972 C973 1.415 . S
C973 H943 0.950 . S
C973 C968 1.363 . S
C973 C972 1.415 . S
H974 C971 0.999 . S
H975 C956 0.913 . S
H976 C994 0.951 . S
H977 C996 0.951 . S
H978 C998 0.950 . S
H979 C999 0.950 . S
H980 C1001 0.950 . S
H981 C1004 0.950 . S
H982 C1005 0.950 . S
H983 C1007 0.985 . S
H984 C1008 0.950 . S
H985 C1009 0.951 . S
H986 C1011 0.951 . S
H987 C1013 0.950 . S
H988 C1014 0.950 . S
H989 C1016 0.950 . S
H990 C1019 0.950 . S
H991 C1020 0.950 . S
H992 C1022 0.950 . S
H993 C1023 0.950 . S
C994 H976 0.951 . S
C994 C995 1.366 . S
C994 C996 1.388 . S
C995 C994 1.366 . S
C995 C999 1.385 . S
C996 H977 0.951 . S
C996 C994 1.388 . S
C996 C997 1.366 . S
C997 C996 1.366 . S
C997 C998 1.414 . S
C997 C1000 1.499 . S
C998 H978 0.950 . S
C998 C997 1.414 . S
C998 C999 1.374 . S
C999 H979 0.950 . S
C999 C995 1.385 . S
C999 C998 1.374 . S
C1000 C997 1.499 . S
C1000 C1001 1.373 . S
C1000 C1002 1.389 . S
C1001 H980 0.950 . S
C1001 C1000 1.373 . S
C1001 C1017 1.377 . S
C1002 C1000 1.389 . S
C1002 C1003 1.524 . S
C1002 C1016 1.377 . S
C1003 C1002 1.524 . S
C1003 C1004 1.397 . S
C1003 C1008 1.363 . S
C1004 H981 0.950 . S
C1004 C1003 1.397 . S
C1004 C1005 1.334 . S
C1005 H982 0.950 . S
C1005 C1004 1.334 . S
C1005 C1006 1.287 . S
C1006 C1005 1.287 . S
C1006 C1007 1.524 . S
C1006 H1025 0.913 . S
C1007 H983 0.985 . S
C1007 C1006 1.524 . S
C1007 C1008 1.415 . S
C1008 H984 0.950 . S
C1008 C1003 1.363 . S
C1008 C1007 1.415 . S
C1009 H985 0.951 . S
C1009 C1010 1.366 . S
C1009 C1011 1.388 . S
C1010 C1009 1.366 . S
C1010 C1014 1.385 . S
C1011 H986 0.951 . S
C1011 C1009 1.388 . S
C1011 C1012 1.366 . S
C1012 C1011 1.366 . S
C1012 C1013 1.414 . S
C1012 C1015 1.499 . S
C1013 H987 0.950 . S
C1013 C1012 1.414 . S
C1013 C1014 1.374 . S
C1014 H988 0.950 . S
C1014 C1010 1.385 . S
C1014 C1013 1.374 . S
C1015 C1012 1.499 . S
C1015 C1016 1.373 . S
C1015 C1017 1.389 . S
C1016 H989 0.950 . S
C1016 C1002 1.377 . S
C1016 C1015 1.373 . S
C1017 C1001 1.377 . S
C1017 C1015 1.389 . S
C1017 C1018 1.524 . S
C1018 C1017 1.524 . S
C1018 C1019 1.397 . S
C1018 C1023 1.363 . S
C1019 H990 0.950 . S
C1019 C1018 1.397 . S
C1019 C1020 1.334 . S
C1020 H991 0.950 . S
C1020 C1019 1.334 . S
C1020 C1021 1.287 . S
C1021 C1020 1.287 . S
C1021 C1022 1.524 . S
C1021 H1024 0.999 . S
C1022 H992 0.950 . S
C1022 C1021 1.524 . S
C1022 C1023 1.415 . S
C1023 H993 0.950 . S
C1023 C1018 1.363 . S
C1023 C1022 1.415 . S
H1024 C1021 0.999 . S
H1025 C1006 0.913 . S
H1026 C1044 0.951 . S
H1027 C1046 0.951 . S
H1028 C1048 0.950 . S
H1029 C1049 0.950 . S
H1030 C1051 0.950 . S
H1031 C1054 0.950 . S
H1032 C1055 0.950 . S
H1033 C1057 0.950 . S
H1034 C1058 0.950 . S
H1035 C1059 0.951 . S
H1036 C1061 0.951 . S
H1037 C1063 0.950 . S
H1038 C1064 0.950 . S
H1039 C1066 0.950 . S
H1040 C1069 0.950 . S
H1041 C1070 0.950 . S
H1042 C1072 0.950 . S
H1043 C1073 0.950 . S
C1044 H1026 0.951 . S
C1044 C1045 1.366 . S
C1044 C1046 1.388 . S
C1045 C1044 1.366 . S
C1045 C1049 1.385 . S
C1046 H1027 0.951 . S
C1046 C1044 1.388 . S
C1046 C1047 1.366 . S
C1047 C1046 1.366 . S
C1047 C1048 1.414 . S
C1047 C1050 1.499 . S
C1048 H1028 0.950 . S
C1048 C1047 1.414 . S
C1048 C1049 1.374 . S
C1049 H1029 0.950 . S
C1049 C1045 1.385 . S
C1049 C1048 1.374 . S
C1050 C1047 1.499 . S
C1050 C1051 1.373 . S
C1050 C1052 1.389 . S
C1051 H1030 0.950 . S
C1051 C1050 1.373 . S
C1051 C1067 1.377 . S
C1052 C1050 1.389 . S
C1052 C1053 1.524 . S
C1052 C1066 1.377 . S
C1053 C1052 1.524 . S
C1053 C1054 1.397 . S
C1053 C1058 1.363 . S
C1054 H1031 0.950 . S
C1054 C1053 1.397 . S
C1054 C1055 1.334 . S
C1055 H1032 0.950 . S
C1055 C1054 1.334 . S
C1055 C1056 1.287 . S
C1056 C1055 1.287 . S
C1056 C1057 1.524 . S
C1056 H1075 0.913 . S
C1057 H1033 0.950 . S
C1057 C1056 1.524 . S
C1057 C1058 1.415 . S
C1058 H1034 0.950 . S
C1058 C1053 1.363 . S
C1058 C1057 1.415 . S
C1059 H1035 0.951 . S
C1059 C1060 1.366 . S
C1059 C1061 1.388 . S
C1060 C1059 1.366 . S
C1060 C1064 1.385 . S
C1061 H1036 0.951 . S
C1061 C1059 1.388 . S
C1061 C1062 1.366 . S
C1062 C1061 1.366 . S
C1062 C1063 1.414 . S
C1062 C1065 1.499 . S
C1063 H1037 0.950 . S
C1063 C1062 1.414 . S
C1063 C1064 1.374 . S
C1064 H1038 0.950 . S
C1064 C1060 1.385 . S
C1064 C1063 1.374 . S
C1065 C1062 1.499 . S
C1065 C1066 1.373 . S
C1065 C1067 1.389 . S
C1066 H1039 0.950 . S
C1066 C1052 1.377 . S
C1066 C1065 1.373 . S
C1067 C1051 1.377 . S
C1067 C1065 1.389 . S
C1067 C1068 1.524 . S
C1068 C1067 1.524 . S
C1068 C1069 1.397 . S
C1068 C1073 1.363 . S
C1069 H1040 0.950 . S
C1069 C1068 1.397 . S
C1069 C1070 1.334 . S
C1070 H1041 0.950 . S
C1070 C1069 1.334 . S
C1070 C1071 1.287 . S
C1071 C1070 1.287 . S
C1071 C1072 1.524 . S
C1071 H1074 0.999 . S
C1072 H1042 0.950 . S
C1072 C1071 1.524 . S
C1072 C1073 1.415 . S
C1073 H1043 0.950 . S
C1073 C1068 1.363 . S
C1073 C1072 1.415 . S
H1074 C1071 0.999 . S
H1075 C1056 0.913 . S
H1076 C1094 0.951 . S
H1077 C1096 0.951 . S
H1078 C1098 0.950 . S
H1079 C1099 0.950 . S
H1080 C1101 0.950 . S
H1081 C1104 0.950 . S
H1082 C1105 0.950 . S
H1083 C1107 0.950 1_556 S
H1084 C1108 0.950 . S
H1085 C1109 0.951 . S
H1086 C1111 0.951 . S
H1087 C1113 0.950 . S
H1088 C1114 0.950 . S
H1089 C1116 0.950 . S
H1090 C1119 0.950 . S
H1091 C1120 0.950 . S
H1092 C1122 0.950 . S
H1093 C1123 0.950 . S
C1094 H1076 0.951 . S
C1094 C1095 1.366 . S
C1094 C1096 1.388 . S
C1095 C1094 1.366 . S
C1095 C1099 1.385 . S
C1096 H1077 0.951 . S
C1096 C1094 1.388 . S
C1096 C1097 1.366 . S
C1097 C1096 1.366 . S
C1097 C1098 1.414 . S
C1097 C1100 1.499 . S
C1098 H1078 0.950 . S
C1098 C1097 1.414 . S
C1098 C1099 1.374 . S
C1099 H1079 0.950 . S
C1099 C1095 1.385 . S
C1099 C1098 1.374 . S
C1100 C1097 1.499 . S
C1100 C1101 1.373 . S
C1100 C1102 1.389 . S
C1101 H1080 0.950 . S
C1101 C1100 1.373 . S
C1101 C1117 1.377 . S
C1102 C1100 1.389 . S
C1102 C1103 1.524 . S
C1102 C1116 1.377 . S
C1103 C1102 1.524 . S
C1103 C1104 1.397 . S
C1103 C1108 1.363 . S
C1104 H1081 0.950 . S
C1104 C1103 1.397 . S
C1104 C1105 1.334 . S
C1105 H1082 0.950 . S
C1105 C1104 1.334 . S
C1105 C1106 1.287 . S
C1106 C1105 1.287 . S
C1106 C1107 1.524 . S
C1106 H1125 0.913 1_554 S
C1107 H1083 0.950 1_554 S
C1107 C1106 1.524 . S
C1107 C1108 1.415 . S
C1108 H1084 0.950 . S
C1108 C1103 1.363 . S
C1108 C1107 1.415 . S
C1109 H1085 0.951 . S
C1109 C1110 1.366 . S
C1109 C1111 1.388 . S
C1110 C1109 1.366 . S
C1110 C1114 1.385 . S
C1111 H1086 0.951 . S
C1111 C1109 1.388 . S
C1111 C1112 1.366 . S
C1112 C1111 1.366 . S
C1112 C1113 1.414 . S
C1112 C1115 1.499 . S
C1113 H1087 0.950 . S
C1113 C1112 1.414 . S
C1113 C1114 1.374 . S
C1114 H1088 0.950 . S
C1114 C1110 1.385 . S
C1114 C1113 1.374 . S
C1115 C1112 1.499 . S
C1115 C1116 1.373 . S
C1115 C1117 1.389 . S
C1116 H1089 0.950 . S
C1116 C1102 1.377 . S
C1116 C1115 1.373 . S
C1117 C1101 1.377 . S
C1117 C1115 1.389 . S
C1117 C1118 1.524 . S
C1118 C1117 1.524 . S
C1118 C1119 1.397 . S
C1118 C1123 1.363 . S
C1119 H1090 0.950 . S
C1119 C1118 1.397 . S
C1119 C1120 1.334 . S
C1120 H1091 0.950 . S
C1120 C1119 1.334 . S
C1120 C1121 1.287 . S
C1121 C1120 1.287 . S
C1121 C1122 1.524 . S
C1121 H1124 0.999 . S
C1122 H1092 0.950 . S
C1122 C1121 1.524 . S
C1122 C1123 1.415 . S
C1123 H1093 0.950 . S
C1123 C1118 1.363 . S
C1123 C1122 1.415 . S
H1124 C1121 0.999 . S
H1125 C1106 0.913 1_556 S
H1126 C1144 0.951 . S
H1127 C1146 0.951 . S
H1128 C1148 0.950 . S
H1129 C1149 0.950 . S
H1130 C1151 0.950 . S
H1131 C1154 0.950 . S
H1132 C1155 0.950 . S
H1133 C1157 0.950 . S
H1134 C1158 0.950 . S
H1135 C1159 0.951 . S
H1136 C1161 0.951 . S
H1137 C1163 0.950 . S
H1138 C1164 0.950 . S
H1139 C1166 0.950 . S
H1140 C1169 0.950 . S
H1141 C1170 0.950 . S
H1142 C1172 0.950 . S
H1143 C1173 0.950 . S
C1144 H1126 0.951 . S
C1144 C1145 1.366 . S
C1144 C1146 1.388 . S
C1145 C1144 1.366 . S
C1145 C1149 1.385 . S
C1146 H1127 0.951 . S
C1146 C1144 1.388 . S
C1146 C1147 1.366 . S
C1147 C1146 1.366 . S
C1147 C1148 1.414 . S
C1147 C1150 1.499 . S
C1148 H1128 0.950 . S
C1148 C1147 1.414 . S
C1148 C1149 1.374 . S
C1149 H1129 0.950 . S
C1149 C1145 1.385 . S
C1149 C1148 1.374 . S
C1150 C1147 1.499 . S
C1150 C1151 1.373 . S
C1150 C1152 1.389 . S
C1151 H1130 0.950 . S
C1151 C1150 1.373 . S
C1151 C1167 1.377 . S
C1152 C1150 1.389 . S
C1152 C1153 1.524 . S
C1152 C1166 1.377 . S
C1153 C1152 1.524 . S
C1153 C1154 1.397 . S
C1153 C1158 1.363 . S
C1154 H1131 0.950 . S
C1154 C1153 1.397 . S
C1154 C1155 1.334 . S
C1155 H1132 0.950 . S
C1155 C1154 1.334 . S
C1155 C1156 1.287 . S
C1156 C1155 1.287 . S
C1156 C1157 1.524 . S
C1156 H1175 0.913 . S
C1157 H1133 0.950 . S
C1157 C1156 1.524 . S
C1157 C1158 1.415 . S
C1158 H1134 0.950 . S
C1158 C1153 1.363 . S
C1158 C1157 1.415 . S
C1159 H1135 0.951 . S
C1159 C1160 1.366 . S
C1159 C1161 1.388 . S
C1160 C1159 1.366 . S
C1160 C1164 1.385 . S
C1161 H1136 0.951 . S
C1161 C1159 1.388 . S
C1161 C1162 1.366 . S
C1162 C1161 1.366 . S
C1162 C1163 1.414 . S
C1162 C1165 1.499 . S
C1163 H1137 0.950 . S
C1163 C1162 1.414 . S
C1163 C1164 1.374 . S
C1164 H1138 0.950 . S
C1164 C1160 1.385 . S
C1164 C1163 1.374 . S
C1165 C1162 1.499 . S
C1165 C1166 1.373 . S
C1165 C1167 1.389 . S
C1166 H1139 0.950 . S
C1166 C1152 1.377 . S
C1166 C1165 1.373 . S
C1167 C1151 1.377 . S
C1167 C1165 1.389 . S
C1167 C1168 1.524 . S
C1168 C1167 1.524 . S
C1168 C1169 1.397 . S
C1168 C1173 1.363 . S
C1169 H1140 0.950 . S
C1169 C1168 1.397 . S
C1169 C1170 1.334 . S
C1170 H1141 0.950 . S
C1170 C1169 1.334 . S
C1170 C1171 1.287 . S
C1171 C1170 1.287 . S
C1171 C1172 1.524 . S
C1171 H1174 0.999 . S
C1172 H1142 0.950 . S
C1172 C1171 1.524 . S
C1172 C1173 1.415 . S
C1173 H1143 0.950 . S
C1173 C1168 1.363 . S
C1173 C1172 1.415 . S
H1174 C1171 0.999 . S
H1175 C1156 0.913 . S
H1176 C1194 0.951 . S
H1177 C1196 0.951 . S
H1178 C1198 0.950 . S
H1179 C1199 0.950 . S
H1180 C1201 0.956 . S
H1181 C1204 0.950 . S
H1182 C1205 0.950 . S
H1183 C1207 0.950 . S
H1184 C1208 0.950 1_655 S
H1185 C1209 0.951 . S
H1186 C1211 0.951 . S
H1187 C1213 0.950 . S
H1188 C1214 0.950 . S
H1189 C1216 0.950 . S
H1190 C1219 0.950 . S
H1191 C1220 0.950 . S
H1192 C1222 0.950 . S
H1193 C1223 0.950 . S
C1194 H1176 0.951 . S
C1194 C1195 1.366 . S
C1194 C1196 1.388 . S
C1195 C1194 1.366 . S
C1195 C1199 1.385 . S
C1196 H1177 0.951 . S
C1196 C1194 1.388 . S
C1196 C1197 1.366 . S
C1197 C1196 1.366 . S
C1197 C1198 1.414 . S
C1197 C1200 1.499 . S
C1198 H1178 0.950 . S
C1198 C1197 1.414 . S
C1198 C1199 1.374 . S
C1199 H1179 0.950 . S
C1199 C1195 1.385 . S
C1199 C1198 1.374 . S
C1200 C1197 1.499 . S
C1200 C1201 1.380 . S
C1200 C1202 1.400 . S
C1201 H1180 0.956 . S
C1201 C1200 1.380 . S
C1201 C1217 1.364 1_455 S
C1202 C1200 1.400 . S
C1202 C1203 1.534 . S
C1202 C1216 1.356 1_455 S
C1203 C1202 1.534 . S
C1203 C1204 1.397 . S
C1203 C1208 1.363 . S
C1204 H1181 0.950 . S
C1204 C1203 1.397 . S
C1204 C1205 1.334 . S
C1205 H1182 0.950 . S
C1205 C1204 1.334 . S
C1205 C1206 1.287 . S
C1206 C1205 1.287 . S
C1206 C1207 1.524 . S
C1206 H1225 0.913 . S
C1207 H1183 0.950 . S
C1207 C1206 1.524 . S
C1207 C1208 1.415 . S
C1208 H1184 0.950 1_455 S
C1208 C1203 1.363 . S
C1208 C1207 1.415 . S
C1209 H1185 0.951 . S
C1209 C1210 1.366 . S
C1209 C1211 1.388 . S
C1210 C1209 1.366 . S
C1210 C1214 1.385 . S
C1211 H1186 0.951 . S
C1211 C1209 1.388 . S
C1211 C1212 1.366 . S
C1212 C1211 1.366 . S
C1212 C1213 1.414 . S
C1212 C1215 1.499 . S
C1213 H1187 0.950 . S
C1213 C1212 1.414 . S
C1213 C1214 1.374 . S
C1214 H1188 0.950 . S
C1214 C1210 1.385 . S
C1214 C1213 1.374 . S
C1215 C1212 1.499 . S
C1215 C1216 1.373 . S
C1215 C1217 1.389 . S
C1216 H1189 0.950 . S
C1216 C1202 1.356 1_655 S
C1216 C1215 1.373 . S
C1217 C1201 1.364 1_655 S
C1217 C1215 1.389 . S
C1217 C1218 1.524 . S
C1218 C1217 1.524 . S
C1218 C1219 1.397 . S
C1218 C1223 1.363 . S
C1219 H1190 0.950 . S
C1219 C1218 1.397 . S
C1219 C1220 1.334 . S
C1220 H1191 0.950 . S
C1220 C1219 1.334 . S
C1220 C1221 1.287 . S
C1221 C1220 1.287 . S
C1221 C1222 1.524 . S
C1221 H1224 0.999 . S
C1222 H1192 0.950 . S
C1222 C1221 1.524 . S
C1222 C1223 1.415 . S
C1223 H1193 0.950 . S
C1223 C1218 1.363 . S
C1223 C1222 1.415 . S
H1224 C1221 0.999 . S
H1225 C1206 0.913 . S
H1226 C1244 0.951 . S
H1227 C1246 0.951 . S
H1228 C1248 0.950 . S
H1229 C1249 0.950 . S
H1230 C1251 0.950 . S
H1231 C1254 0.950 . S
H1232 C1255 0.950 . S
H1233 C1257 0.950 . S
H1234 C1258 0.950 . S
H1235 C1259 0.951 . S
H1236 C1261 0.951 . S
H1237 C1263 0.950 . S
H1238 C1264 0.950 . S
H1239 C1266 0.950 . S
H1240 C1269 0.950 . S
H1241 C1270 0.950 . S
H1242 C1272 0.950 . S
H1243 C1273 0.950 . S
C1244 H1226 0.951 . S
C1244 C1245 1.366 . S
C1244 C1246 1.388 . S
C1245 C1244 1.366 . S
C1245 C1249 1.385 . S
C1246 H1227 0.951 . S
C1246 C1244 1.388 . S
C1246 C1247 1.366 . S
C1247 C1246 1.366 . S
C1247 C1248 1.414 . S
C1247 C1250 1.499 . S
C1248 H1228 0.950 . S
C1248 C1247 1.414 . S
C1248 C1249 1.374 . S
C1249 H1229 0.950 . S
C1249 C1245 1.385 . S
C1249 C1248 1.374 . S
C1250 C1247 1.499 . S
C1250 C1251 1.373 . S
C1250 C1252 1.389 . S
C1251 H1230 0.950 . S
C1251 C1250 1.373 . S
C1251 C1267 1.377 . S
C1252 C1250 1.389 . S
C1252 C1253 1.524 . S
C1252 C1266 1.377 . S
C1253 C1252 1.524 . S
C1253 C1254 1.397 . S
C1253 C1258 1.363 . S
C1254 H1231 0.950 . S
C1254 C1253 1.397 . S
C1254 C1255 1.334 . S
C1255 H1232 0.950 . S
C1255 C1254 1.334 . S
C1255 C1256 1.287 . S
C1256 C1255 1.287 . S
C1256 C1257 1.524 . S
C1256 H1275 0.913 . S
C1257 H1233 0.950 . S
C1257 C1256 1.524 . S
C1257 C1258 1.415 . S
C1258 H1234 0.950 . S
C1258 C1253 1.363 . S
C1258 C1257 1.415 . S
C1259 H1235 0.951 . S
C1259 C1260 1.366 . S
C1259 C1261 1.388 . S
C1260 C1259 1.366 . S
C1260 C1264 1.385 . S
C1261 H1236 0.951 . S
C1261 C1259 1.388 . S
C1261 C1262 1.366 . S
C1262 C1261 1.366 . S
C1262 C1263 1.414 . S
C1262 C1265 1.499 . S
C1263 H1237 0.950 . S
C1263 C1262 1.414 . S
C1263 C1264 1.374 . S
C1264 H1238 0.950 . S
C1264 C1260 1.385 . S
C1264 C1263 1.374 . S
C1265 C1262 1.499 . S
C1265 C1266 1.373 . S
C1265 C1267 1.389 . S
C1266 H1239 0.950 . S
C1266 C1252 1.377 . S
C1266 C1265 1.373 . S
C1267 C1251 1.377 . S
C1267 C1265 1.389 . S
C1267 C1268 1.524 . S
C1268 C1267 1.524 . S
C1268 C1269 1.397 . S
C1268 C1273 1.363 . S
C1269 H1240 0.950 . S
C1269 C1268 1.397 . S
C1269 C1270 1.334 . S
C1270 H1241 0.950 . S
C1270 C1269 1.334 . S
C1270 C1271 1.287 . S
C1271 C1270 1.287 . S
C1271 C1272 1.524 . S
C1271 H1274 0.999 . S
C1272 H1242 0.950 . S
C1272 C1271 1.524 . S
C1272 C1273 1.415 . S
C1273 H1243 0.950 . S
C1273 C1268 1.363 . S
C1273 C1272 1.415 . S
H1274 C1271 0.999 . S
H1275 C1256 0.913 . S
H1276 C1294 0.951 . S
H1277 C1296 0.951 . S
H1278 C1298 0.950 . S
H1279 C1299 0.950 . S
H1280 C1301 0.950 . S
H1281 C1304 0.950 . S
H1282 C1305 0.950 . S
H1283 C1307 0.950 . S
H1284 C1308 0.950 . S
H1285 C1309 0.951 . S
H1286 C1311 0.951 . S
H1287 C1313 0.950 . S
H1288 C1314 0.950 . S
H1289 C1316 0.950 . S
H1290 C1319 0.950 . S
H1291 C1320 0.950 . S
H1292 C1322 0.950 . S
H1293 C1323 0.950 . S
C1294 H1276 0.951 . S
C1294 C1295 1.366 . S
C1294 C1296 1.388 . S
C1295 C1294 1.366 . S
C1295 C1299 1.385 . S
C1296 H1277 0.951 . S
C1296 C1294 1.388 . S
C1296 C1297 1.366 . S
C1297 C1296 1.366 . S
C1297 C1298 1.414 . S
C1297 C1300 1.499 . S
C1298 H1278 0.950 . S
C1298 C1297 1.414 . S
C1298 C1299 1.374 . S
C1299 H1279 0.950 . S
C1299 C1295 1.385 . S
C1299 C1298 1.374 . S
C1300 C1297 1.499 . S
C1300 C1301 1.373 . S
C1300 C1302 1.389 . S
C1301 H1280 0.950 . S
C1301 C1300 1.373 . S
C1301 C1317 1.377 . S
C1302 C1300 1.389 . S
C1302 C1303 1.524 . S
C1302 C1316 1.377 . S
C1303 C1302 1.524 . S
C1303 C1304 1.397 . S
C1303 C1308 1.363 . S
C1304 H1281 0.950 . S
C1304 C1303 1.397 . S
C1304 C1305 1.334 . S
C1305 H1282 0.950 . S
C1305 C1304 1.334 . S
C1305 C1306 1.287 . S
C1306 C1305 1.287 . S
C1306 C1307 1.524 . S
C1306 H1325 0.913 . S
C1307 H1283 0.950 . S
C1307 C1306 1.524 . S
C1307 C1308 1.415 . S
C1308 H1284 0.950 . S
C1308 C1303 1.363 . S
C1308 C1307 1.415 . S
C1309 H1285 0.951 . S
C1309 C1310 1.366 . S
C1309 C1311 1.388 . S
C1310 C1309 1.366 . S
C1310 C1314 1.385 . S
C1311 H1286 0.951 . S
C1311 C1309 1.388 . S
C1311 C1312 1.366 . S
C1312 C1311 1.366 . S
C1312 C1313 1.414 . S
C1312 C1315 1.499 . S
C1313 H1287 0.950 . S
C1313 C1312 1.414 . S
C1313 C1314 1.374 . S
C1314 H1288 0.950 . S
C1314 C1310 1.385 . S
C1314 C1313 1.374 . S
C1315 C1312 1.499 . S
C1315 C1316 1.373 . S
C1315 C1317 1.389 . S
C1316 H1289 0.950 . S
C1316 C1302 1.377 . S
C1316 C1315 1.373 . S
C1317 C1301 1.377 . S
C1317 C1315 1.389 . S
C1317 C1318 1.524 . S
C1318 C1317 1.524 . S
C1318 C1319 1.397 . S
C1318 C1323 1.363 . S
C1319 H1290 0.950 . S
C1319 C1318 1.397 . S
C1319 C1320 1.334 . S
C1320 H1291 0.950 . S
C1320 C1319 1.334 . S
C1320 C1321 1.287 . S
C1321 C1320 1.287 . S
C1321 C1322 1.524 . S
C1321 H1324 0.999 . S
C1322 H1292 0.950 . S
C1322 C1321 1.524 . S
C1322 C1323 1.415 . S
C1323 H1293 0.950 . S
C1323 C1318 1.363 . S
C1323 C1322 1.415 . S
H1324 C1321 0.999 . S
H1325 C1306 0.913 . S
H1326 C1344 0.951 . S
H1327 C1346 0.951 . S
H1328 C1348 0.950 . S
H1329 C1349 0.950 . S
H1330 C1351 0.950 . S
H1331 C1354 0.950 . S
H1332 C1355 0.950 . S
H1333 C1357 0.950 . S
H1334 C1358 0.950 . S
H1335 C1359 0.951 . S
H1336 C1361 0.951 . S
H1337 C1363 0.950 . S
H1338 C1364 0.950 . S
H1339 C1366 0.950 . S
H1340 C1369 0.950 . S
H1341 C1370 0.950 . S
H1342 C1372 0.950 . S
H1343 C1373 0.950 1_455 S
C1344 H1326 0.951 . S
C1344 C1345 1.366 . S
C1344 C1346 1.388 . S
C1345 C1344 1.366 . S
C1345 C1349 1.385 . S
C1346 H1327 0.951 . S
C1346 C1344 1.388 . S
C1346 C1347 1.366 . S
C1347 C1346 1.366 . S
C1347 C1348 1.414 . S
C1347 C1350 1.499 . S
C1348 H1328 0.950 . S
C1348 C1347 1.414 . S
C1348 C1349 1.374 . S
C1349 H1329 0.950 . S
C1349 C1345 1.385 . S
C1349 C1348 1.374 . S
C1350 C1347 1.499 . S
C1350 C1351 1.373 . S
C1350 C1352 1.389 . S
C1351 H1330 0.950 . S
C1351 C1350 1.373 . S
C1351 C1367 1.385 . S
C1352 C1350 1.389 . S
C1352 C1353 1.524 . S
C1352 C1366 1.377 1_455 S
C1353 C1352 1.524 . S
C1353 C1354 1.397 . S
C1353 C1358 1.363 . S
C1354 H1331 0.950 . S
C1354 C1353 1.397 . S
C1354 C1355 1.334 . S
C1355 H1332 0.950 . S
C1355 C1354 1.334 . S
C1355 C1356 1.287 . S
C1356 C1355 1.287 . S
C1356 C1357 1.524 . S
C1356 H1375 0.913 . S
C1357 H1333 0.950 . S
C1357 C1356 1.524 . S
C1357 C1358 1.415 . S
C1358 H1334 0.950 . S
C1358 C1353 1.363 . S
C1358 C1357 1.415 . S
C1359 H1335 0.951 . S
C1359 C1360 1.366 . S
C1359 C1361 1.388 . S
C1360 C1359 1.366 . S
C1360 C1364 1.385 . S
C1361 H1336 0.951 . S
C1361 C1359 1.388 . S
C1361 C1362 1.366 . S
C1362 C1361 1.366 . S
C1362 C1363 1.414 . S
C1362 C1365 1.499 . S
C1363 H1337 0.950 . S
C1363 C1362 1.414 . S
C1363 C1364 1.374 . S
C1364 H1338 0.950 . S
C1364 C1360 1.385 . S
C1364 C1363 1.374 . S
C1365 C1362 1.499 . S
C1365 C1366 1.373 . S
C1365 C1367 1.384 1_655 S
C1366 H1339 0.950 . S
C1366 C1352 1.377 1_655 S
C1366 C1365 1.373 . S
C1367 C1351 1.385 . S
C1367 C1365 1.384 1_455 S
C1367 C1368 1.521 1_455 S
C1368 C1367 1.521 1_655 S
C1368 C1369 1.397 . S
C1368 C1373 1.363 . S
C1369 H1340 0.950 . S
C1369 C1368 1.397 . S
C1369 C1370 1.334 . S
C1370 H1341 0.950 . S
C1370 C1369 1.334 . S
C1370 C1371 1.287 . S
C1371 C1370 1.287 . S
C1371 C1372 1.524 . S
C1371 H1374 0.999 . S
C1372 H1342 0.950 . S
C1372 C1371 1.524 . S
C1372 C1373 1.415 . S
C1373 H1343 0.950 1_655 S
C1373 C1368 1.363 . S
C1373 C1372 1.415 . S
H1374 C1371 0.999 . S
H1375 C1356 0.913 . S
H1376 C1394 0.951 . S
H1377 C1396 0.951 . S
H1378 C1398 0.950 1_556 S
H1379 C1399 0.950 . S
H1380 C1401 0.950 . S
H1381 C1404 0.950 . S
H1382 C1405 0.950 . S
H1383 C1407 0.950 . S
H1384 C1408 0.950 . S
H1385 C1409 0.951 . S
H1386 C1411 0.951 . S
H1387 C1413 0.950 . S
H1388 C1414 0.950 . S
H1389 C1416 0.950 . S
H1390 C1419 0.950 . S
H1391 C1420 0.950 . S
H1392 C1422 0.950 . S
H1393 C1423 0.950 . S
C1394 H1376 0.951 . S
C1394 C1395 1.366 . S
C1394 C1396 1.388 . S
C1395 C1394 1.366 . S
C1395 C1399 1.385 . S
C1396 H1377 0.951 . S
C1396 C1394 1.388 . S
C1396 C1397 1.366 . S
C1397 C1396 1.366 . S
C1397 C1398 1.414 . S
C1397 C1400 1.499 . S
C1398 H1378 0.950 1_554 S
C1398 C1397 1.414 . S
C1398 C1399 1.374 . S
C1399 H1379 0.950 . S
C1399 C1395 1.385 . S
C1399 C1398 1.374 . S
C1400 C1397 1.499 . S
C1400 C1401 1.373 1_554 S
C1400 C1402 1.389 . S
C1401 H1380 0.950 . S
C1401 C1400 1.373 1_556 S
C1401 C1417 1.377 . S
C1402 C1400 1.389 . S
C1402 C1403 1.524 . S
C1402 C1416 1.377 . S
C1403 C1402 1.524 . S
C1403 C1404 1.397 . S
C1403 C1408 1.363 . S
C1404 H1381 0.950 . S
C1404 C1403 1.397 . S
C1404 C1405 1.334 . S
C1405 H1382 0.950 . S
C1405 C1404 1.334 . S
C1405 C1406 1.287 . S
C1406 C1405 1.287 . S
C1406 C1407 1.524 . S
C1406 H1425 0.913 . S
C1407 H1383 0.950 . S
C1407 C1406 1.524 . S
C1407 C1408 1.415 . S
C1408 H1384 0.950 . S
C1408 C1403 1.363 . S
C1408 C1407 1.415 . S
C1409 H1385 0.951 . S
C1409 C1410 1.366 . S
C1409 C1411 1.388 . S
C1410 C1409 1.366 . S
C1410 C1414 1.385 . S
C1411 H1386 0.951 . S
C1411 C1409 1.388 . S
C1411 C1412 1.366 . S
C1412 C1411 1.366 . S
C1412 C1413 1.414 . S
C1412 C1415 1.499 . S
C1413 H1387 0.950 . S
C1413 C1412 1.414 . S
C1413 C1414 1.374 . S
C1414 H1388 0.950 . S
C1414 C1410 1.385 . S
C1414 C1413 1.374 . S
C1415 C1412 1.499 . S
C1415 C1416 1.373 1_556 S
C1415 C1417 1.389 . S
C1416 H1389 0.950 . S
C1416 C1402 1.377 . S
C1416 C1415 1.373 1_554 S
C1417 C1401 1.377 . S
C1417 C1415 1.389 . S
C1417 C1418 1.524 . S
C1418 C1417 1.524 . S
C1418 C1419 1.397 . S
C1418 C1423 1.363 . S
C1419 H1390 0.950 . S
C1419 C1418 1.397 . S
C1419 C1420 1.334 . S
C1420 H1391 0.950 . S
C1420 C1419 1.334 . S
C1420 C1421 1.287 . S
C1421 C1420 1.287 . S
C1421 C1422 1.524 . S
C1421 H1424 0.999 . S
C1422 H1392 0.950 . S
C1422 C1421 1.524 . S
C1422 C1423 1.415 . S
C1423 H1393 0.950 . S
C1423 C1418 1.363 . S
C1423 C1422 1.415 . S
H1424 C1421 0.999 . S
H1425 C1406 0.913 . S
H1426 C1444 0.951 . S
H1427 C1446 0.951 . S
H1428 C1448 0.950 . S
H1429 C1449 0.950 . S
H1430 C1451 0.950 . S
H1431 C1454 0.950 . S
H1432 C1455 0.950 . S
H1433 C1457 0.950 . S
H1434 C1458 0.950 . S
H1435 C1459 0.951 . S
H1436 C1461 0.951 . S
H1437 C1463 0.950 . S
H1438 C1464 0.950 . S
H1439 C1466 0.950 . S
H1440 C1469 0.950 . S
H1441 C1470 0.950 . S
H1442 C1472 0.950 . S
H1443 C1473 0.950 . S
C1444 H1426 0.951 . S
C1444 C1445 1.366 . S
C1444 C1446 1.388 . S
C1445 C1444 1.366 . S
C1445 C1449 1.385 . S
C1446 H1427 0.951 . S
C1446 C1444 1.388 . S
C1446 C1447 1.366 . S
C1447 C1446 1.366 . S
C1447 C1448 1.414 . S
C1447 C1450 1.499 . S
C1448 H1428 0.950 . S
C1448 C1447 1.414 . S
C1448 C1449 1.374 . S
C1449 H1429 0.950 . S
C1449 C1445 1.385 . S
C1449 C1448 1.374 . S
C1450 C1447 1.499 . S
C1450 C1451 1.373 . S
C1450 C1452 1.389 . S
C1451 H1430 0.950 . S
C1451 C1450 1.373 . S
C1451 C1467 1.377 . S
C1452 C1450 1.389 . S
C1452 C1453 1.524 . S
C1452 C1466 1.377 . S
C1453 C1452 1.524 . S
C1453 C1454 1.397 . S
C1453 C1458 1.363 . S
C1454 H1431 0.950 . S
C1454 C1453 1.397 . S
C1454 C1455 1.334 . S
C1455 H1432 0.950 . S
C1455 C1454 1.334 . S
C1455 C1456 1.287 . S
C1456 C1455 1.287 . S
C1456 C1457 1.524 . S
C1456 H1475 0.913 . S
C1457 H1433 0.950 . S
C1457 C1456 1.524 . S
C1457 C1458 1.415 . S
C1458 H1434 0.950 . S
C1458 C1453 1.363 . S
C1458 C1457 1.415 . S
C1459 H1435 0.951 . S
C1459 C1460 1.366 . S
C1459 C1461 1.388 . S
C1460 C1459 1.366 . S
C1460 C1464 1.385 . S
C1461 H1436 0.951 . S
C1461 C1459 1.388 . S
C1461 C1462 1.366 . S
C1462 C1461 1.366 . S
C1462 C1463 1.414 . S
C1462 C1465 1.499 . S
C1463 H1437 0.950 . S
C1463 C1462 1.414 . S
C1463 C1464 1.374 . S
C1464 H1438 0.950 . S
C1464 C1460 1.385 . S
C1464 C1463 1.374 . S
C1465 C1462 1.499 . S
C1465 C1466 1.373 . S
C1465 C1467 1.389 . S
C1466 H1439 0.950 . S
C1466 C1452 1.377 . S
C1466 C1465 1.373 . S
C1467 C1451 1.377 . S
C1467 C1465 1.389 . S
C1467 C1468 1.524 . S
C1468 C1467 1.524 . S
C1468 C1469 1.397 . S
C1468 C1473 1.363 . S
C1469 H1440 0.950 . S
C1469 C1468 1.397 . S
C1469 C1470 1.334 . S
C1470 H1441 0.950 . S
C1470 C1469 1.334 . S
C1470 C1471 1.287 . S
C1471 C1470 1.287 . S
C1471 C1472 1.524 . S
C1471 H1474 0.999 . S
C1472 H1442 0.950 . S
C1472 C1471 1.524 . S
C1472 C1473 1.415 . S
C1473 H1443 0.950 . S
C1473 C1468 1.363 . S
C1473 C1472 1.415 . S
H1474 C1471 0.999 . S
H1475 C1456 0.913 . S
H1476 C1494 0.951 . S
H1477 C1496 0.951 . S
H1478 C1498 0.950 . S
H1479 C1499 0.950 . S
H1480 C1501 0.950 . S
H1481 C1504 0.950 . S
H1482 C1505 0.950 . S
H1483 C1507 0.950 . S
H1484 C1508 0.950 . S
H1485 C1509 0.951 . S
H1486 C1511 0.951 . S
H1487 C1513 0.950 . S
H1488 C1514 0.950 . S
H1489 C1516 0.950 . S
H1490 C1519 0.950 . S
H1491 C1520 0.950 . S
H1492 C1522 0.950 . S
H1493 C1523 0.950 . S
C1494 H1476 0.951 . S
C1494 C1495 1.366 . S
C1494 C1496 1.388 . S
C1495 C1494 1.366 . S
C1495 C1499 1.385 . S
C1496 H1477 0.951 . S
C1496 C1494 1.388 . S
C1496 C1497 1.366 . S
C1497 C1496 1.366 . S
C1497 C1498 1.414 . S
C1497 C1500 1.499 . S
C1498 H1478 0.950 . S
C1498 C1497 1.414 . S
C1498 C1499 1.374 . S
C1499 H1479 0.950 . S
C1499 C1495 1.385 . S
C1499 C1498 1.374 . S
C1500 C1497 1.499 . S
C1500 C1501 1.373 . S
C1500 C1502 1.389 . S
C1501 H1480 0.950 . S
C1501 C1500 1.373 . S
C1501 C1517 1.377 . S
C1502 C1500 1.389 . S
C1502 C1503 1.524 . S
C1502 C1516 1.377 . S
C1503 C1502 1.524 . S
C1503 C1504 1.397 . S
C1503 C1508 1.363 . S
C1504 H1481 0.950 . S
C1504 C1503 1.397 . S
C1504 C1505 1.334 . S
C1505 H1482 0.950 . S
C1505 C1504 1.334 . S
C1505 C1506 1.287 . S
C1506 C1505 1.287 . S
C1506 C1507 1.524 . S
C1506 H1525 0.913 . S
C1507 H1483 0.950 . S
C1507 C1506 1.524 . S
C1507 C1508 1.415 . S
C1508 H1484 0.950 . S
C1508 C1503 1.363 . S
C1508 C1507 1.415 . S
C1509 H1485 0.951 . S
C1509 C1510 1.366 . S
C1509 C1511 1.388 . S
C1510 C1509 1.366 . S
C1510 C1514 1.385 . S
C1511 H1486 0.951 . S
C1511 C1509 1.388 . S
C1511 C1512 1.366 . S
C1512 C1511 1.366 . S
C1512 C1513 1.414 . S
C1512 C1515 1.499 . S
C1513 H1487 0.950 . S
C1513 C1512 1.414 . S
C1513 C1514 1.374 . S
C1514 H1488 0.950 . S
C1514 C1510 1.385 . S
C1514 C1513 1.374 . S
C1515 C1512 1.499 . S
C1515 C1516 1.373 . S
C1515 C1517 1.389 . S
C1516 H1489 0.950 . S
C1516 C1502 1.377 . S
C1516 C1515 1.373 . S
C1517 C1501 1.377 . S
C1517 C1515 1.389 . S
C1517 C1518 1.524 . S
C1518 C1517 1.524 . S
C1518 C1519 1.397 . S
C1518 C1523 1.363 . S
C1519 H1490 0.950 . S
C1519 C1518 1.397 . S
C1519 C1520 1.334 . S
C1520 H1491 0.950 . S
C1520 C1519 1.334 . S
C1520 C1521 1.287 . S
C1521 C1520 1.287 . S
C1521 C1522 1.524 . S
C1521 H1524 0.999 . S
C1522 H1492 0.950 . S
C1522 C1521 1.524 . S
C1522 C1523 1.415 . S
C1523 H1493 0.950 . S
C1523 C1518 1.363 . S
C1523 C1522 1.415 . S
H1524 C1521 0.999 . S
H1525 C1506 0.913 . S
H1526 C1544 0.951 . S
H1527 C1546 0.951 . S
H1528 C1548 0.950 . S
H1529 C1549 0.950 . S
H1530 C1551 0.950 . S
H1531 C1554 0.950 . S
H1532 C1555 0.950 . S
H1533 C1557 0.950 . S
H1534 C1558 0.950 . S
H1535 C1559 0.951 . S
H1536 C1561 0.951 . S
H1537 C1563 0.950 . S
H1538 C1564 0.950 . S
H1539 C1566 0.950 . S
H1540 C1569 0.950 . S
H1541 C1570 0.950 . S
H1542 C1572 0.950 . S
H1543 C1573 0.950 . S
C1544 H1526 0.951 . S
C1544 C1545 1.366 . S
C1544 C1546 1.388 . S
C1545 C1544 1.366 . S
C1545 C1549 1.385 . S
C1546 H1527 0.951 . S
C1546 C1544 1.388 . S
C1546 C1547 1.366 . S
C1547 C1546 1.366 . S
C1547 C1548 1.414 . S
C1547 C1550 1.499 . S
C1548 H1528 0.950 . S
C1548 C1547 1.414 . S
C1548 C1549 1.374 . S
C1549 H1529 0.950 . S
C1549 C1545 1.385 . S
C1549 C1548 1.374 . S
C1550 C1547 1.499 . S
C1550 C1551 1.373 . S
C1550 C1552 1.389 . S
C1551 H1530 0.950 . S
C1551 C1550 1.373 . S
C1551 C1567 1.377 . S
C1552 C1550 1.389 . S
C1552 C1553 1.524 . S
C1552 C1566 1.377 . S
C1553 C1552 1.524 . S
C1553 C1554 1.397 . S
C1553 C1558 1.363 . S
C1554 H1531 0.950 . S
C1554 C1553 1.397 . S
C1554 C1555 1.334 . S
C1555 H1532 0.950 . S
C1555 C1554 1.334 . S
C1555 C1556 1.287 . S
C1556 C1555 1.287 . S
C1556 C1557 1.524 . S
C1556 H1575 0.913 . S
C1557 H1533 0.950 . S
C1557 C1556 1.524 . S
C1557 C1558 1.415 . S
C1558 H1534 0.950 . S
C1558 C1553 1.363 . S
C1558 C1557 1.415 . S
C1559 H1535 0.951 . S
C1559 C1560 1.366 . S
C1559 C1561 1.388 . S
C1560 C1559 1.366 . S
C1560 C1564 1.385 . S
C1561 H1536 0.951 . S
C1561 C1559 1.388 . S
C1561 C1562 1.366 . S
C1562 C1561 1.366 . S
C1562 C1563 1.414 . S
C1562 C1565 1.499 . S
C1563 H1537 0.950 . S
C1563 C1562 1.414 . S
C1563 C1564 1.374 . S
C1564 H1538 0.950 . S
C1564 C1560 1.385 . S
C1564 C1563 1.374 . S
C1565 C1562 1.499 . S
C1565 C1566 1.373 . S
C1565 C1567 1.389 . S
C1566 H1539 0.950 . S
C1566 C1552 1.377 . S
C1566 C1565 1.373 . S
C1567 C1551 1.377 . S
C1567 C1565 1.389 . S
C1567 C1568 1.524 . S
C1568 C1567 1.524 . S
C1568 C1569 1.397 . S
C1568 C1573 1.363 . S
C1569 H1540 0.950 . S
C1569 C1568 1.397 . S
C1569 C1570 1.334 . S
C1570 H1541 0.950 . S
C1570 C1569 1.334 . S
C1570 C1571 1.287 . S
C1571 C1570 1.287 . S
C1571 C1572 1.524 . S
C1571 H1574 0.999 . S
C1572 H1542 0.950 . S
C1572 C1571 1.524 . S
C1572 C1573 1.415 . S
C1573 H1543 0.950 . S
C1573 C1568 1.363 . S
C1573 C1572 1.415 . S
H1574 C1571 0.999 . S
H1575 C1556 0.913 . S
H1576 C1594 0.951 . S
H1577 C1596 0.951 1_554 S
H1578 C1598 0.950 . S
H1579 C1599 0.950 . S
H1580 C1601 0.959 . S
H1581 C1604 0.950 . S
H1582 C1605 0.950 . S
H1583 C1607 0.950 . S
H1584 C1608 0.950 . S
H1585 C1609 0.951 . S
H1586 C1611 0.951 . S
H1587 C1613 0.950 . S
H1588 C1614 0.950 . S
H1589 C1616 0.950 . S
H1590 C1619 0.950 . S
H1591 C1620 0.950 . S
H1592 C1622 0.950 1_556 S
H1593 C1623 0.950 1_556 S
C1594 H1576 0.951 . S
C1594 C1595 1.366 . S
C1594 C1596 1.388 . S
C1595 C1594 1.366 . S
C1595 C1599 1.385 . S
C1596 H1577 0.951 1_556 S
C1596 C1594 1.388 . S
C1596 C1597 1.366 . S
C1597 C1596 1.366 . S
C1597 C1598 1.414 . S
C1597 C1600 1.499 . S
C1598 H1578 0.950 . S
C1598 C1597 1.414 . S
C1598 C1599 1.374 . S
C1599 H1579 0.950 . S
C1599 C1595 1.385 . S
C1599 C1598 1.374 . S
C1600 C1597 1.499 . S
C1600 C1601 1.378 . S
C1600 C1602 1.389 1_556 S
C1601 H1580 0.959 . S
C1601 C1600 1.378 . S
C1601 C1617 1.364 1_556 S
C1602 C1600 1.389 1_554 S
C1602 C1603 1.524 1_554 S
C1602 C1616 1.377 . S
C1603 C1602 1.524 1_556 S
C1603 C1604 1.397 . S
C1603 C1608 1.363 1_556 S
C1604 H1581 0.950 . S
C1604 C1603 1.397 . S
C1604 C1605 1.334 . S
C1605 H1582 0.950 . S
C1605 C1604 1.334 . S
C1605 C1606 1.287 . S
C1606 C1605 1.287 . S
C1606 C1607 1.524 1_556 S
C1606 H1625 0.913 . S
C1607 H1583 0.950 . S
C1607 C1606 1.524 1_554 S
C1607 C1608 1.415 . S
C1608 H1584 0.950 . S
C1608 C1603 1.363 1_554 S
C1608 C1607 1.415 . S
C1609 H1585 0.951 . S
C1609 C1610 1.366 . S
C1609 C1611 1.388 . S
C1610 C1609 1.366 . S
C1610 C1614 1.385 . S
C1611 H1586 0.951 . S
C1611 C1609 1.388 . S
C1611 C1612 1.366 . S
C1612 C1611 1.366 . S
C1612 C1613 1.414 . S
C1612 C1615 1.499 . S
C1613 H1587 0.950 . S
C1613 C1612 1.414 . S
C1613 C1614 1.374 . S
C1614 H1588 0.950 . S
C1614 C1610 1.385 . S
C1614 C1613 1.374 . S
C1615 C1612 1.499 . S
C1615 C1616 1.373 . S
C1615 C1617 1.389 . S
C1616 H1589 0.950 . S
C1616 C1602 1.377 . S
C1616 C1615 1.373 . S
C1617 C1601 1.364 1_554 S
C1617 C1615 1.389 . S
C1617 C1618 1.524 . S
C1618 C1617 1.524 . S
C1618 C1619 1.397 . S
C1618 C1623 1.363 . S
C1619 H1590 0.950 . S
C1619 C1618 1.397 . S
C1619 C1620 1.334 . S
C1620 H1591 0.950 . S
C1620 C1619 1.334 . S
C1620 C1621 1.287 . S
C1621 C1620 1.287 . S
C1621 C1622 1.524 . S
C1621 H1624 0.999 . S
C1622 H1592 0.950 1_554 S
C1622 C1621 1.524 . S
C1622 C1623 1.415 . S
C1623 H1593 0.950 1_554 S
C1623 C1618 1.363 . S
C1623 C1622 1.415 . S
H1624 C1621 0.999 . S
H1625 C1606 0.913 . S
H1626 C1644 0.951 . S
H1627 C1646 0.951 . S
H1628 C1648 0.950 . S
H1629 C1649 0.950 . S
H1630 C1651 0.950 . S
H1631 C1654 0.950 . S
H1632 C1655 0.950 . S
H1633 C1657 0.950 . S
H1634 C1658 0.950 . S
H1635 C1659 0.951 . S
H1636 C1661 0.951 . S
H1637 C1663 0.950 . S
H1638 C1664 0.950 . S
H1639 C1666 0.950 . S
H1640 C1669 0.950 . S
H1641 C1670 0.950 . S
H1642 C1672 0.950 . S
H1643 C1673 0.950 . S
C1644 H1626 0.951 . S
C1644 C1645 1.366 . S
C1644 C1646 1.388 . S
C1645 C1644 1.366 . S
C1645 C1649 1.385 . S
C1646 H1627 0.951 . S
C1646 C1644 1.388 . S
C1646 C1647 1.366 . S
C1647 C1646 1.366 . S
C1647 C1648 1.414 . S
C1647 C1650 1.499 . S
C1648 H1628 0.950 . S
C1648 C1647 1.414 . S
C1648 C1649 1.374 . S
C1649 H1629 0.950 . S
C1649 C1645 1.385 . S
C1649 C1648 1.374 . S
C1650 C1647 1.499 . S
C1650 C1651 1.373 . S
C1650 C1652 1.389 . S
C1651 H1630 0.950 . S
C1651 C1650 1.373 . S
C1651 C1667 1.377 . S
C1652 C1650 1.389 . S
C1652 C1653 1.524 . S
C1652 C1666 1.377 . S
C1653 C1652 1.524 . S
C1653 C1654 1.397 . S
C1653 C1658 1.363 . S
C1654 H1631 0.950 . S
C1654 C1653 1.397 . S
C1654 C1655 1.334 . S
C1655 H1632 0.950 . S
C1655 C1654 1.334 . S
C1655 C1656 1.287 . S
C1656 C1655 1.287 . S
C1656 C1657 1.524 . S
C1656 H1675 0.913 . S
C1657 H1633 0.950 . S
C1657 C1656 1.524 . S
C1657 C1658 1.415 . S
C1658 H1634 0.950 . S
C1658 C1653 1.363 . S
C1658 C1657 1.415 . S
C1659 H1635 0.951 . S
C1659 C1660 1.366 . S
C1659 C1661 1.388 . S
C1660 C1659 1.366 . S
C1660 C1664 1.385 . S
C1661 H1636 0.951 . S
C1661 C1659 1.388 . S
C1661 C1662 1.366 . S
C1662 C1661 1.366 . S
C1662 C1663 1.414 . S
C1662 C1665 1.499 . S
C1663 H1637 0.950 . S
C1663 C1662 1.414 . S
C1663 C1664 1.374 . S
C1664 H1638 0.950 . S
C1664 C1660 1.385 . S
C1664 C1663 1.374 . S
C1665 C1662 1.499 . S
C1665 C1666 1.373 . S
C1665 C1667 1.389 . S
C1666 H1639 0.950 . S
C1666 C1652 1.377 . S
C1666 C1665 1.373 . S
C1667 C1651 1.377 . S
C1667 C1665 1.389 . S
C1667 C1668 1.524 . S
C1668 C1667 1.524 . S
C1668 C1669 1.397 . S
C1668 C1673 1.363 . S
C1669 H1640 0.950 . S
C1669 C1668 1.397 . S
C1669 C1670 1.334 . S
C1670 H1641 0.950 . S
C1670 C1669 1.334 . S
C1670 C1671 1.287 . S
C1671 C1670 1.287 . S
C1671 C1672 1.524 . S
C1671 H1674 0.999 . S
C1672 H1642 0.950 . S
C1672 C1671 1.524 . S
C1672 C1673 1.415 . S
C1673 H1643 0.950 . S
C1673 C1668 1.363 . S
C1673 C1672 1.415 . S
H1674 C1671 0.999 . S
H1675 C1656 0.913 . S
H1676 C1694 0.951 . S
H1677 C1696 0.951 . S
H1678 C1698 0.950 . S
H1679 C1699 0.950 . S
H1680 C1701 0.950 . S
H1681 C1704 0.950 . S
H1682 C1705 0.950 . S
H1683 C1707 0.950 . S
H1684 C1708 0.950 . S
H1685 C1709 0.951 . S
H1686 C1711 0.951 . S
H1687 C1713 0.950 . S
H1688 C1714 0.950 . S
H1689 C1716 0.950 . S
H1690 C1719 0.950 . S
H1691 C1720 0.950 . S
H1692 C1722 0.950 . S
H1693 C1723 0.950 . S
C1694 H1676 0.951 . S
C1694 C1695 1.366 . S
C1694 C1696 1.388 . S
C1695 C1694 1.366 . S
C1695 C1699 1.385 . S
C1696 H1677 0.951 . S
C1696 C1694 1.388 . S
C1696 C1697 1.366 . S
C1697 C1696 1.366 . S
C1697 C1698 1.414 . S
C1697 C1700 1.499 . S
C1698 H1678 0.950 . S
C1698 C1697 1.414 . S
C1698 C1699 1.374 . S
C1699 H1679 0.950 . S
C1699 C1695 1.385 . S
C1699 C1698 1.374 . S
C1700 C1697 1.499 . S
C1700 C1701 1.373 . S
C1700 C1702 1.389 . S
C1701 H1680 0.950 . S
C1701 C1700 1.373 . S
C1701 C1717 1.377 . S
C1702 C1700 1.389 . S
C1702 C1703 1.524 . S
C1702 C1716 1.377 . S
C1703 C1702 1.524 . S
C1703 C1704 1.397 . S
C1703 C1708 1.363 . S
C1704 H1681 0.950 . S
C1704 C1703 1.397 . S
C1704 C1705 1.334 . S
C1705 H1682 0.950 . S
C1705 C1704 1.334 . S
C1705 C1706 1.287 . S
C1706 C1705 1.287 . S
C1706 C1707 1.524 . S
C1706 H1725 0.913 . S
C1707 H1683 0.950 . S
C1707 C1706 1.524 . S
C1707 C1708 1.415 . S
C1708 H1684 0.950 . S
C1708 C1703 1.363 . S
C1708 C1707 1.415 . S
C1709 H1685 0.951 . S
C1709 C1710 1.366 . S
C1709 C1711 1.388 . S
C1710 C1709 1.366 . S
C1710 C1714 1.385 . S
C1711 H1686 0.951 . S
C1711 C1709 1.388 . S
C1711 C1712 1.366 . S
C1712 C1711 1.366 . S
C1712 C1713 1.414 . S
C1712 C1715 1.499 . S
C1713 H1687 0.950 . S
C1713 C1712 1.414 . S
C1713 C1714 1.374 . S
C1714 H1688 0.950 . S
C1714 C1710 1.385 . S
C1714 C1713 1.374 . S
C1715 C1712 1.499 . S
C1715 C1716 1.373 . S
C1715 C1717 1.389 . S
C1716 H1689 0.950 . S
C1716 C1702 1.377 . S
C1716 C1715 1.373 . S
C1717 C1701 1.377 . S
C1717 C1715 1.389 . S
C1717 C1718 1.524 . S
C1718 C1717 1.524 . S
C1718 C1719 1.397 . S
C1718 C1723 1.363 . S
C1719 H1690 0.950 . S
C1719 C1718 1.397 . S
C1719 C1720 1.334 . S
C1720 H1691 0.950 . S
C1720 C1719 1.334 . S
C1720 C1721 1.287 . S
C1721 C1720 1.287 . S
C1721 C1722 1.524 . S
C1721 H1724 0.999 . S
C1722 H1692 0.950 . S
C1722 C1721 1.524 . S
C1722 C1723 1.415 . S
C1723 H1693 0.950 . S
C1723 C1718 1.363 . S
C1723 C1722 1.415 . S
H1724 C1721 0.999 . S
H1725 C1706 0.913 . S
H1726 C1744 0.951 . S
H1727 C1746 0.951 . S
H1728 C1748 0.950 . S
H1729 C1749 0.950 . S
H1730 C1751 0.950 . S
H1731 C1754 0.950 . S
H1732 C1755 0.950 . S
H1733 C1757 0.950 . S
H1734 C1758 0.950 . S
H1735 C1759 0.951 . S
H1736 C1761 0.951 . S
H1737 C1763 0.950 . S
H1738 C1764 0.950 . S
H1739 C1766 0.950 . S
H1740 C1769 0.950 . S
H1741 C1770 0.950 . S
H1742 C1772 0.950 . S
H1743 C1773 0.950 . S
C1744 H1726 0.951 . S
C1744 C1745 1.366 . S
C1744 C1746 1.388 . S
C1745 C1744 1.366 . S
C1745 C1749 1.385 . S
C1746 H1727 0.951 . S
C1746 C1744 1.388 . S
C1746 C1747 1.366 . S
C1747 C1746 1.366 . S
C1747 C1748 1.414 . S
C1747 C1750 1.499 . S
C1748 H1728 0.950 . S
C1748 C1747 1.414 . S
C1748 C1749 1.374 . S
C1749 H1729 0.950 . S
C1749 C1745 1.385 . S
C1749 C1748 1.374 . S
C1750 C1747 1.499 . S
C1750 C1751 1.373 . S
C1750 C1752 1.389 . S
C1751 H1730 0.950 . S
C1751 C1750 1.373 . S
C1751 C1767 1.377 . S
C1752 C1750 1.389 . S
C1752 C1753 1.524 . S
C1752 C1766 1.377 . S
C1753 C1752 1.524 . S
C1753 C1754 1.397 . S
C1753 C1758 1.363 . S
C1754 H1731 0.950 . S
C1754 C1753 1.397 . S
C1754 C1755 1.334 . S
C1755 H1732 0.950 . S
C1755 C1754 1.334 . S
C1755 C1756 1.287 . S
C1756 C1755 1.287 . S
C1756 C1757 1.524 . S
C1756 H1775 0.913 . S
C1757 H1733 0.950 . S
C1757 C1756 1.524 . S
C1757 C1758 1.415 . S
C1758 H1734 0.950 . S
C1758 C1753 1.363 . S
C1758 C1757 1.415 . S
C1759 H1735 0.951 . S
C1759 C1760 1.366 . S
C1759 C1761 1.388 . S
C1760 C1759 1.366 . S
C1760 C1764 1.385 . S
C1761 H1736 0.951 . S
C1761 C1759 1.388 . S
C1761 C1762 1.366 . S
C1762 C1761 1.366 . S
C1762 C1763 1.414 . S
C1762 C1765 1.499 . S
C1763 H1737 0.950 . S
C1763 C1762 1.414 . S
C1763 C1764 1.374 . S
C1764 H1738 0.950 . S
C1764 C1760 1.385 . S
C1764 C1763 1.374 . S
C1765 C1762 1.499 . S
C1765 C1766 1.373 . S
C1765 C1767 1.389 . S
C1766 H1739 0.950 . S
C1766 C1752 1.377 . S
C1766 C1765 1.373 . S
C1767 C1751 1.377 . S
C1767 C1765 1.389 . S
C1767 C1768 1.524 . S
C1768 C1767 1.524 . S
C1768 C1769 1.397 . S
C1768 C1773 1.363 . S
C1769 H1740 0.950 . S
C1769 C1768 1.397 . S
C1769 C1770 1.334 . S
C1770 H1741 0.950 . S
C1770 C1769 1.334 . S
C1770 C1771 1.287 . S
C1771 C1770 1.287 . S
C1771 C1772 1.524 . S
C1771 H1774 0.999 . S
C1772 H1742 0.950 . S
C1772 C1771 1.524 . S
C1772 C1773 1.415 . S
C1773 H1743 0.950 . S
C1773 C1768 1.363 . S
C1773 C1772 1.415 . S
H1774 C1771 0.999 . S
H1775 C1756 0.913 . S
H1776 C1794 0.951 . S
H1777 C1796 0.951 . S
H1778 C1798 0.950 . S
H1779 C1799 0.950 . S
H1780 C1801 0.950 . S
H1781 C1804 0.950 . S
H1782 C1805 0.950 . S
H1783 C1807 0.950 . S
H1784 C1808 0.950 . S
H1785 C1809 0.951 . S
H1786 C1811 0.951 . S
H1787 C1813 0.950 . S
H1788 C1814 0.950 . S
H1789 C1816 0.950 . S
H1790 C1819 0.950 . S
H1791 C1820 0.950 . S
H1792 C1822 0.950 . S
H1793 C1823 0.950 . S
C1794 H1776 0.951 . S
C1794 C1795 1.366 . S
C1794 C1796 1.388 . S
C1795 C1794 1.366 . S
C1795 C1799 1.385 . S
C1796 H1777 0.951 . S
C1796 C1794 1.388 . S
C1796 C1797 1.366 . S
C1797 C1796 1.366 . S
C1797 C1798 1.414 . S
C1797 C1800 1.499 . S
C1798 H1778 0.950 . S
C1798 C1797 1.414 . S
C1798 C1799 1.374 . S
C1799 H1779 0.950 . S
C1799 C1795 1.385 . S
C1799 C1798 1.374 . S
C1800 C1797 1.499 . S
C1800 C1801 1.373 . S
C1800 C1802 1.362 1_545 S
C1801 H1780 0.950 . S
C1801 C1800 1.373 . S
C1801 C1817 1.377 1_545 S
C1802 C1800 1.362 1_565 S
C1802 C1803 1.524 . S
C1802 C1816 1.406 . S
C1803 C1802 1.524 . S
C1803 C1804 1.395 1_565 S
C1803 C1808 1.365 . S
C1804 H1781 0.950 . S
C1804 C1803 1.395 1_545 S
C1804 C1805 1.334 . S
C1805 H1782 0.950 . S
C1805 C1804 1.334 . S
C1805 C1806 1.287 . S
C1806 C1805 1.287 . S
C1806 C1807 1.524 1_545 S
C1806 H1825 0.913 . S
C1807 H1783 0.950 . S
C1807 C1806 1.524 1_565 S
C1807 C1808 1.415 . S
C1808 H1784 0.950 . S
C1808 C1803 1.365 . S
C1808 C1807 1.415 . S
C1809 H1785 0.951 . S
C1809 C1810 1.366 . S
C1809 C1811 1.388 . S
C1810 C1809 1.366 . S
C1810 C1814 1.385 . S
C1811 H1786 0.951 . S
C1811 C1809 1.388 . S
C1811 C1812 1.366 . S
C1812 C1811 1.366 . S
C1812 C1813 1.414 . S
C1812 C1815 1.499 . S
C1813 H1787 0.950 . S
C1813 C1812 1.414 . S
C1813 C1814 1.374 . S
C1814 H1788 0.950 . S
C1814 C1810 1.385 . S
C1814 C1813 1.374 . S
C1815 C1812 1.499 . S
C1815 C1816 1.373 . S
C1815 C1817 1.389 . S
C1816 H1789 0.950 . S
C1816 C1802 1.406 . S
C1816 C1815 1.373 . S
C1817 C1801 1.377 1_565 S
C1817 C1815 1.389 . S
C1817 C1818 1.524 . S
C1818 C1817 1.524 . S
C1818 C1819 1.397 . S
C1818 C1823 1.363 1_565 S
C1819 H1790 0.950 . S
C1819 C1818 1.397 . S
C1819 C1820 1.334 . S
C1820 H1791 0.950 . S
C1820 C1819 1.334 . S
C1820 C1821 1.287 . S
C1821 C1820 1.287 . S
C1821 C1822 1.524 1_565 S
C1821 H1824 0.999 . S
C1822 H1792 0.950 . S
C1822 C1821 1.524 1_545 S
C1822 C1823 1.415 . S
C1823 H1793 0.950 . S
C1823 C1818 1.363 1_545 S
C1823 C1822 1.415 . S
H1824 C1821 0.999 . S
H1825 C1806 0.913 . S
H1826 C1844 0.951 . S
H1827 C1846 0.951 . S
H1828 C1848 0.950 . S
H1829 C1849 0.950 . S
H1830 C1851 0.950 . S
H1831 C1854 0.950 . S
H1832 C1855 0.950 . S
H1833 C1857 0.950 . S
H1834 C1858 0.950 . S
H1835 C1859 0.951 . S
H1836 C1861 0.951 . S
H1837 C1863 0.950 . S
H1838 C1864 0.950 . S
H1839 C1866 0.950 . S
H1840 C1869 0.950 . S
H1841 C1870 0.950 . S
H1842 C1872 0.950 . S
H1843 C1873 0.950 . S
C1844 H1826 0.951 . S
C1844 C1845 1.366 . S
C1844 C1846 1.388 . S
C1845 C1844 1.366 . S
C1845 C1849 1.385 . S
C1846 H1827 0.951 . S
C1846 C1844 1.388 . S
C1846 C1847 1.366 . S
C1847 C1846 1.366 . S
C1847 C1848 1.414 . S
C1847 C1850 1.499 . S
C1848 H1828 0.950 . S
C1848 C1847 1.414 . S
C1848 C1849 1.374 . S
C1849 H1829 0.950 . S
C1849 C1845 1.385 . S
C1849 C1848 1.374 . S
C1850 C1847 1.499 . S
C1850 C1851 1.373 . S
C1850 C1852 1.389 . S
C1851 H1830 0.950 . S
C1851 C1850 1.373 . S
C1851 C1867 1.377 . S
C1852 C1850 1.389 . S
C1852 C1853 1.524 . S
C1852 C1866 1.377 . S
C1853 C1852 1.524 . S
C1853 C1854 1.397 . S
C1853 C1858 1.363 . S
C1854 H1831 0.950 . S
C1854 C1853 1.397 . S
C1854 C1855 1.334 . S
C1855 H1832 0.950 . S
C1855 C1854 1.334 . S
C1855 C1856 1.287 . S
C1856 C1855 1.287 . S
C1856 C1857 1.524 . S
C1856 H1875 0.913 . S
C1857 H1833 0.950 . S
C1857 C1856 1.524 . S
C1857 C1858 1.415 . S
C1858 H1834 0.950 . S
C1858 C1853 1.363 . S
C1858 C1857 1.415 . S
C1859 H1835 0.951 . S
C1859 C1860 1.366 . S
C1859 C1861 1.388 . S
C1860 C1859 1.366 . S
C1860 C1864 1.385 . S
C1861 H1836 0.951 . S
C1861 C1859 1.388 . S
C1861 C1862 1.366 . S
C1862 C1861 1.366 . S
C1862 C1863 1.414 . S
C1862 C1865 1.499 . S
C1863 H1837 0.950 . S
C1863 C1862 1.414 . S
C1863 C1864 1.374 . S
C1864 H1838 0.950 . S
C1864 C1860 1.385 . S
C1864 C1863 1.374 . S
C1865 C1862 1.499 . S
C1865 C1866 1.373 . S
C1865 C1867 1.389 . S
C1866 H1839 0.950 . S
C1866 C1852 1.377 . S
C1866 C1865 1.373 . S
C1867 C1851 1.377 . S
C1867 C1865 1.389 . S
C1867 C1868 1.524 . S
C1868 C1867 1.524 . S
C1868 C1869 1.397 . S
C1868 C1873 1.363 . S
C1869 H1840 0.950 . S
C1869 C1868 1.397 . S
C1869 C1870 1.334 . S
C1870 H1841 0.950 . S
C1870 C1869 1.334 . S
C1870 C1871 1.287 . S
C1871 C1870 1.287 . S
C1871 C1872 1.524 . S
C1871 H1874 0.999 . S
C1872 H1842 0.950 . S
C1872 C1871 1.524 . S
C1872 C1873 1.415 . S
C1873 H1843 0.950 . S
C1873 C1868 1.363 . S
C1873 C1872 1.415 . S
H1874 C1871 0.999 . S
H1875 C1856 0.913 . S
H1876 C1894 0.951 . S
H1877 C1896 0.951 . S
H1878 C1898 0.950 . S
H1879 C1899 0.950 . S
H1880 C1901 0.950 . S
H1881 C1904 0.950 . S
H1882 C1905 0.950 . S
H1883 C1907 0.950 1_554 S
H1884 C1908 0.950 1_554 S
H1885 C1909 0.951 . S
H1886 C1911 0.951 1_556 S
H1887 C1913 0.950 . S
H1888 C1914 0.950 . S
H1889 C1916 0.950 . S
H1890 C1919 0.950 . S
H1891 C1920 0.950 . S
H1892 C1922 0.950 . S
H1893 C1923 0.950 . S
C1894 H1876 0.951 . S
C1894 C1895 1.366 . S
C1894 C1896 1.388 . S
C1895 C1894 1.366 . S
C1895 C1899 1.385 . S
C1896 H1877 0.951 . S
C1896 C1894 1.388 . S
C1896 C1897 1.366 . S
C1897 C1896 1.366 . S
C1897 C1898 1.414 . S
C1897 C1900 1.499 . S
C1898 H1878 0.950 . S
C1898 C1897 1.414 . S
C1898 C1899 1.374 . S
C1899 H1879 0.950 . S
C1899 C1895 1.385 . S
C1899 C1898 1.374 . S
C1900 C1897 1.499 . S
C1900 C1901 1.373 . S
C1900 C1902 1.389 . S
C1901 H1880 0.950 . S
C1901 C1900 1.373 . S
C1901 C1917 1.383 1_545 S
C1902 C1900 1.389 . S
C1902 C1903 1.524 . S
C1902 C1916 1.377 1_546 S
C1903 C1902 1.524 . S
C1903 C1904 1.397 . S
C1903 C1908 1.363 . S
C1904 H1881 0.950 . S
C1904 C1903 1.397 . S
C1904 C1905 1.334 . S
C1905 H1882 0.950 . S
C1905 C1904 1.334 . S
C1905 C1906 1.287 . S
C1906 C1905 1.287 . S
C1906 C1907 1.524 . S
C1906 H1925 0.913 . S
C1907 H1883 0.950 1_556 S
C1907 C1906 1.524 . S
C1907 C1908 1.415 . S
C1908 H1884 0.950 1_556 S
C1908 C1903 1.363 . S
C1908 C1907 1.415 . S
C1909 H1885 0.951 . S
C1909 C1910 1.366 . S
C1909 C1911 1.388 . S
C1910 C1909 1.366 . S
C1910 C1914 1.385 . S
C1911 H1886 0.951 1_554 S
C1911 C1909 1.388 . S
C1911 C1912 1.366 . S
C1912 C1911 1.366 . S
C1912 C1913 1.414 . S
C1912 C1915 1.499 . S
C1913 H1887 0.950 . S
C1913 C1912 1.414 . S
C1913 C1914 1.374 . S
C1914 H1888 0.950 . S
C1914 C1910 1.385 . S
C1914 C1913 1.374 . S
C1915 C1912 1.499 . S
C1915 C1916 1.373 . S
C1915 C1917 1.386 1_554 S
C1916 H1889 0.950 . S
C1916 C1902 1.377 1_564 S
C1916 C1915 1.373 . S
C1917 C1901 1.383 1_565 S
C1917 C1915 1.386 1_556 S
C1917 C1918 1.522 1_556 S
C1918 C1917 1.522 1_554 S
C1918 C1919 1.397 . S
C1918 C1923 1.363 1_554 S
C1919 H1890 0.950 . S
C1919 C1918 1.397 . S
C1919 C1920 1.334 . S
C1920 H1891 0.950 . S
C1920 C1919 1.334 . S
C1920 C1921 1.287 . S
C1921 C1920 1.287 . S
C1921 C1922 1.524 1_554 S
C1921 H1924 0.999 . S
C1922 H1892 0.950 . S
C1922 C1921 1.524 1_556 S
C1922 C1923 1.415 . S
C1923 H1893 0.950 . S
C1923 C1918 1.363 1_556 S
C1923 C1922 1.415 . S
H1924 C1921 0.999 . S
H1925 C1906 0.913 . S
H1926 C1944 0.951 . S
H1927 C1946 0.951 . S
H1928 C1948 0.950 . S
H1929 C1949 0.950 . S
H1930 C1951 0.950 . S
H1931 C1954 0.950 . S
H1932 C1955 0.950 . S
H1933 C1957 0.950 . S
H1934 C1958 0.950 . S
H1935 C1959 0.951 . S
H1936 C1961 0.951 . S
H1937 C1963 0.950 . S
H1938 C1964 0.950 . S
H1939 C1966 0.950 . S
H1940 C1969 0.950 . S
H1941 C1970 0.950 . S
H1942 C1972 0.950 . S
H1943 C1973 0.950 . S
C1944 H1926 0.951 . S
C1944 C1945 1.366 . S
C1944 C1946 1.388 . S
C1945 C1944 1.366 . S
C1945 C1949 1.385 . S
C1946 H1927 0.951 . S
C1946 C1944 1.388 . S
C1946 C1947 1.366 . S
C1947 C1946 1.366 . S
C1947 C1948 1.414 . S
C1947 C1950 1.499 . S
C1948 H1928 0.950 . S
C1948 C1947 1.414 . S
C1948 C1949 1.374 . S
C1949 H1929 0.950 . S
C1949 C1945 1.385 . S
C1949 C1948 1.374 . S
C1950 C1947 1.499 . S
C1950 C1951 1.373 . S
C1950 C1952 1.389 . S
C1951 H1930 0.950 . S
C1951 C1950 1.373 . S
C1951 C1967 1.377 . S
C1952 C1950 1.389 . S
C1952 C1953 1.524 . S
C1952 C1966 1.377 . S
C1953 C1952 1.524 . S
C1953 C1954 1.397 . S
C1953 C1958 1.363 . S
C1954 H1931 0.950 . S
C1954 C1953 1.397 . S
C1954 C1955 1.334 . S
C1955 H1932 0.950 . S
C1955 C1954 1.334 . S
C1955 C1956 1.287 . S
C1956 C1955 1.287 . S
C1956 C1957 1.524 . S
C1956 H1975 0.913 . S
C1957 H1933 0.950 . S
C1957 C1956 1.524 . S
C1957 C1958 1.415 . S
C1958 H1934 0.950 . S
C1958 C1953 1.363 . S
C1958 C1957 1.415 . S
C1959 H1935 0.951 . S
C1959 C1960 1.366 . S
C1959 C1961 1.388 . S
C1960 C1959 1.366 . S
C1960 C1964 1.385 . S
C1961 H1936 0.951 . S
C1961 C1959 1.388 . S
C1961 C1962 1.366 . S
C1962 C1961 1.366 . S
C1962 C1963 1.414 . S
C1962 C1965 1.499 . S
C1963 H1937 0.950 . S
C1963 C1962 1.414 . S
C1963 C1964 1.374 . S
C1964 H1938 0.950 . S
C1964 C1960 1.385 . S
C1964 C1963 1.374 . S
C1965 C1962 1.499 . S
C1965 C1966 1.373 . S
C1965 C1967 1.389 . S
C1966 H1939 0.950 . S
C1966 C1952 1.377 . S
C1966 C1965 1.373 . S
C1967 C1951 1.377 . S
C1967 C1965 1.389 . S
C1967 C1968 1.524 . S
C1968 C1967 1.524 . S
C1968 C1969 1.397 . S
C1968 C1973 1.363 . S
C1969 H1940 0.950 . S
C1969 C1968 1.397 . S
C1969 C1970 1.334 . S
C1970 H1941 0.950 . S
C1970 C1969 1.334 . S
C1970 C1971 1.287 . S
C1971 C1970 1.287 . S
C1971 C1972 1.524 . S
C1971 H1974 0.999 . S
C1972 H1942 0.950 . S
C1972 C1971 1.524 . S
C1972 C1973 1.415 . S
C1973 H1943 0.950 . S
C1973 C1968 1.363 . S
C1973 C1972 1.415 . S
H1974 C1971 0.999 . S
H1975 C1956 0.913 . S
H1976 C1994 0.951 . S
H1977 C1996 0.951 . S
H1978 C1998 0.950 . S
H1979 C1999 0.950 . S
H1980 C2001 0.950 . S
H1981 C2004 0.950 . S
H1982 C2005 0.950 . S
H1983 C2007 0.950 . S
H1984 C2008 0.950 . S
H1985 C2009 0.951 . S
H1986 C2011 0.951 . S
H1987 C2013 0.950 . S
H1988 C2014 0.950 . S
H1989 C2016 0.950 . S
H1990 C2019 0.950 . S
H1991 C2020 0.950 . S
H1992 C2022 0.950 . S
H1993 C2023 0.950 . S
C1994 H1976 0.951 . S
C1994 C1995 1.366 . S
C1994 C1996 1.388 . S
C1995 C1994 1.366 . S
C1995 C1999 1.385 . S
C1996 H1977 0.951 . S
C1996 C1994 1.388 . S
C1996 C1997 1.366 . S
C1997 C1996 1.366 . S
C1997 C1998 1.414 . S
C1997 C2000 1.499 . S
C1998 H1978 0.950 . S
C1998 C1997 1.414 . S
C1998 C1999 1.374 . S
C1999 H1979 0.950 . S
C1999 C1995 1.385 . S
C1999 C1998 1.374 . S
C2000 C1997 1.499 . S
C2000 C2001 1.373 . S
C2000 C2002 1.389 . S
C2001 H1980 0.950 . S
C2001 C2000 1.373 . S
C2001 C2017 1.377 1_545 S
C2002 C2000 1.389 . S
C2002 C2003 1.524 . S
C2002 C2016 1.377 1_545 S
C2003 C2002 1.524 . S
C2003 C2004 1.397 . S
C2003 C2008 1.363 . S
C2004 H1981 0.950 . S
C2004 C2003 1.397 . S
C2004 C2005 1.334 . S
C2005 H1982 0.950 . S
C2005 C2004 1.334 . S
C2005 C2006 1.287 . S
C2006 C2005 1.287 . S
C2006 C2007 1.524 . S
C2006 H2025 0.913 . S
C2007 H1983 0.950 . S
C2007 C2006 1.524 . S
C2007 C2008 1.415 . S
C2008 H1984 0.950 . S
C2008 C2003 1.363 . S
C2008 C2007 1.415 . S
C2009 H1985 0.951 . S
C2009 C2010 1.366 . S
C2009 C2011 1.388 . S
C2010 C2009 1.366 . S
C2010 C2014 1.385 . S
C2011 H1986 0.951 . S
C2011 C2009 1.388 . S
C2011 C2012 1.366 . S
C2012 C2011 1.366 . S
C2012 C2013 1.414 . S
C2012 C2015 1.499 . S
C2013 H1987 0.950 . S
C2013 C2012 1.414 . S
C2013 C2014 1.374 . S
C2014 H1988 0.950 . S
C2014 C2010 1.385 . S
C2014 C2013 1.374 . S
C2015 C2012 1.499 . S
C2015 C2016 1.373 . S
C2015 C2017 1.389 . S
C2016 H1989 0.950 . S
C2016 C2002 1.377 1_565 S
C2016 C2015 1.373 . S
C2017 C2001 1.377 1_565 S
C2017 C2015 1.389 . S
C2017 C2018 1.524 . S
C2018 C2017 1.524 . S
C2018 C2019 1.397 . S
C2018 C2023 1.363 . S
C2019 H1990 0.950 . S
C2019 C2018 1.397 . S
C2019 C2020 1.334 . S
C2020 H1991 0.950 . S
C2020 C2019 1.334 . S
C2020 C2021 1.287 . S
C2021 C2020 1.287 . S
C2021 C2022 1.524 . S
C2021 H2024 0.999 . S
C2022 H1992 0.950 . S
C2022 C2021 1.524 . S
C2022 C2023 1.415 . S
C2023 H1993 0.950 . S
C2023 C2018 1.363 . S
C2023 C2022 1.415 . S
H2024 C2021 0.999 . S
H2025 C2006 0.913 . S
H2026 C2044 0.951 . S
H2027 C2046 0.951 . S
H2028 C2048 0.950 . S
H2029 C2049 0.950 . S
H2030 C2051 0.950 . S
H2031 C2054 0.950 . S
H2032 C2055 0.950 . S
H2033 C2057 0.950 . S
H2034 C2058 0.950 . S
H2035 C2059 0.951 . S
H2036 C2061 0.951 . S
H2037 C2063 0.950 . S
H2038 C2064 0.950 . S
H2039 C2066 0.950 . S
H2040 C2069 0.950 . S
H2041 C2070 0.950 . S
H2042 C2072 0.950 . S
H2043 C2073 0.950 . S
C2044 H2026 0.951 . S
C2044 C2045 1.366 . S
C2044 C2046 1.388 . S
C2045 C2044 1.366 . S
C2045 C2049 1.385 . S
C2046 H2027 0.951 . S
C2046 C2044 1.388 . S
C2046 C2047 1.366 . S
C2047 C2046 1.366 . S
C2047 C2048 1.414 . S
C2047 C2050 1.499 . S
C2048 H2028 0.950 . S
C2048 C2047 1.414 . S
C2048 C2049 1.374 . S
C2049 H2029 0.950 . S
C2049 C2045 1.385 . S
C2049 C2048 1.374 . S
C2050 C2047 1.499 . S
C2050 C2051 1.373 . S
C2050 C2052 1.389 . S
C2051 H2030 0.950 . S
C2051 C2050 1.373 . S
C2051 C2067 1.377 . S
C2052 C2050 1.389 . S
C2052 C2053 1.524 . S
C2052 C2066 1.377 . S
C2053 C2052 1.524 . S
C2053 C2054 1.397 . S
C2053 C2058 1.363 . S
C2054 H2031 0.950 . S
C2054 C2053 1.397 . S
C2054 C2055 1.334 . S
C2055 H2032 0.950 . S
C2055 C2054 1.334 . S
C2055 C2056 1.287 . S
C2056 C2055 1.287 . S
C2056 C2057 1.524 . S
C2056 H2075 0.913 . S
C2057 H2033 0.950 . S
C2057 C2056 1.524 . S
C2057 C2058 1.415 . S
C2058 H2034 0.950 . S
C2058 C2053 1.363 . S
C2058 C2057 1.415 . S
C2059 H2035 0.951 . S
C2059 C2060 1.366 . S
C2059 C2061 1.388 . S
C2060 C2059 1.366 . S
C2060 C2064 1.385 . S
C2061 H2036 0.951 . S
C2061 C2059 1.388 . S
C2061 C2062 1.366 . S
C2062 C2061 1.366 . S
C2062 C2063 1.414 . S
C2062 C2065 1.499 . S
C2063 H2037 0.950 . S
C2063 C2062 1.414 . S
C2063 C2064 1.374 . S
C2064 H2038 0.950 . S
C2064 C2060 1.385 . S
C2064 C2063 1.374 . S
C2065 C2062 1.499 . S
C2065 C2066 1.373 . S
C2065 C2067 1.389 . S
C2066 H2039 0.950 . S
C2066 C2052 1.377 . S
C2066 C2065 1.373 . S
C2067 C2051 1.377 . S
C2067 C2065 1.389 . S
C2067 C2068 1.524 . S
C2068 C2067 1.524 . S
C2068 C2069 1.397 . S
C2068 C2073 1.363 . S
C2069 H2040 0.950 . S
C2069 C2068 1.397 . S
C2069 C2070 1.334 . S
C2070 H2041 0.950 . S
C2070 C2069 1.334 . S
C2070 C2071 1.287 . S
C2071 C2070 1.287 . S
C2071 C2072 1.524 . S
C2071 H2074 0.999 . S
C2072 H2042 0.950 . S
C2072 C2071 1.524 . S
C2072 C2073 1.415 . S
C2073 H2043 0.950 . S
C2073 C2068 1.363 . S
C2073 C2072 1.415 . S
H2074 C2071 0.999 . S
H2075 C2056 0.913 . S
H2076 C2094 0.951 . S
H2077 C2096 0.951 . S
H2078 C2098 0.950 . S
H2079 C2099 0.950 . S
H2080 C2101 0.950 . S
H2081 C2104 0.946 1_565 S
H2082 C2105 0.950 1_565 S
H2083 C2107 0.950 . S
H2084 C2108 0.950 . S
H2085 C2109 0.951 . S
H2086 C2111 0.951 . S
H2087 C2113 0.950 . S
H2088 C2114 0.950 . S
H2089 C2116 0.950 . S
H2090 C2119 0.950 . S
H2091 C2120 0.950 . S
H2092 C2122 0.950 . S
H2093 C2123 0.950 . S
C2094 H2076 0.951 . S
C2094 C2095 1.366 . S
C2094 C2096 1.388 . S
C2095 C2094 1.366 . S
C2095 C2099 1.385 . S
C2096 H2077 0.951 . S
C2096 C2094 1.388 . S
C2096 C2097 1.366 . S
C2097 C2096 1.366 . S
C2097 C2098 1.414 . S
C2097 C2100 1.499 . S
C2098 H2078 0.950 . S
C2098 C2097 1.414 . S
C2098 C2099 1.374 . S
C2099 H2079 0.950 . S
C2099 C2095 1.385 . S
C2099 C2098 1.374 . S
C2100 C2097 1.499 . S
C2100 C2101 1.373 1_554 S
C2100 C2102 1.389 1_565 S
C2101 H2080 0.950 . S
C2101 C2100 1.373 1_556 S
C2101 C2117 1.377 1_565 S
C2102 C2100 1.389 1_545 S
C2102 C2103 1.524 . S
C2102 C2116 1.377 . S
C2103 C2102 1.524 . S
C2103 C2104 1.400 . S
C2103 C2108 1.363 . S
C2104 H2081 0.946 1_545 S
C2104 C2103 1.400 . S
C2104 C2105 1.335 . S
C2105 H2082 0.950 1_545 S
C2105 C2104 1.335 . S
C2105 C2106 1.287 . S
C2106 C2105 1.287 . S
C2106 C2107 1.524 . S
C2106 H2125 0.913 . S
C2107 H2083 0.950 . S
C2107 C2106 1.524 . S
C2107 C2108 1.415 . S
C2108 H2084 0.950 . S
C2108 C2103 1.363 . S
C2108 C2107 1.415 . S
C2109 H2085 0.951 . S
C2109 C2110 1.366 . S
C2109 C2111 1.388 . S
C2110 C2109 1.366 . S
C2110 C2114 1.385 . S
C2111 H2086 0.951 . S
C2111 C2109 1.388 . S
C2111 C2112 1.366 . S
C2112 C2111 1.366 . S
C2112 C2113 1.414 . S
C2112 C2115 1.499 . S
C2113 H2087 0.950 . S
C2113 C2112 1.414 . S
C2113 C2114 1.374 . S
C2114 H2088 0.950 . S
C2114 C2110 1.385 . S
C2114 C2113 1.374 . S
C2115 C2112 1.499 . S
C2115 C2116 1.373 1_556 S
C2115 C2117 1.389 . S
C2116 H2089 0.950 . S
C2116 C2102 1.377 . S
C2116 C2115 1.373 1_554 S
C2117 C2101 1.377 1_545 S
C2117 C2115 1.389 . S
C2117 C2118 1.525 . S
C2118 C2117 1.525 . S
C2118 C2119 1.398 . S
C2118 C2123 1.361 1_545 S
C2119 H2090 0.950 . S
C2119 C2118 1.398 . S
C2119 C2120 1.334 . S
C2120 H2091 0.950 . S
C2120 C2119 1.334 . S
C2120 C2121 1.287 1_545 S
C2121 C2120 1.287 1_565 S
C2121 C2122 1.524 . S
C2121 H2124 0.999 . S
C2122 H2092 0.950 . S
C2122 C2121 1.524 . S
C2122 C2123 1.415 . S
C2123 H2093 0.950 . S
C2123 C2118 1.361 1_565 S
C2123 C2122 1.415 . S
H2124 C2121 0.999 . S
H2125 C2106 0.913 . S
H2126 C2144 0.951 . S
H2127 C2146 0.951 . S
H2128 C2148 0.950 . S
H2129 C2149 0.950 . S
H2130 C2151 0.950 . S
H2131 C2154 0.950 . S
H2132 C2155 0.950 . S
H2133 C2157 0.950 . S
H2134 C2158 0.950 . S
H2135 C2159 0.951 . S
H2136 C2161 0.951 . S
H2137 C2163 0.950 . S
H2138 C2164 0.950 . S
H2139 C2166 0.950 . S
H2140 C2169 0.950 . S
H2141 C2170 0.950 . S
H2142 C2172 0.950 . S
H2143 C2173 0.950 . S
C2144 H2126 0.951 . S
C2144 C2145 1.366 . S
C2144 C2146 1.388 . S
C2145 C2144 1.366 . S
C2145 C2149 1.385 . S
C2146 H2127 0.951 . S
C2146 C2144 1.388 . S
C2146 C2147 1.366 . S
C2147 C2146 1.366 . S
C2147 C2148 1.414 . S
C2147 C2150 1.499 . S
C2148 H2128 0.950 . S
C2148 C2147 1.414 . S
C2148 C2149 1.374 . S
C2149 H2129 0.950 . S
C2149 C2145 1.385 . S
C2149 C2148 1.374 . S
C2150 C2147 1.499 . S
C2150 C2151 1.373 . S
C2150 C2152 1.389 . S
C2151 H2130 0.950 . S
C2151 C2150 1.373 . S
C2151 C2167 1.377 . S
C2152 C2150 1.389 . S
C2152 C2153 1.524 . S
C2152 C2166 1.377 . S
C2153 C2152 1.524 . S
C2153 C2154 1.397 . S
C2153 C2158 1.363 . S
C2154 H2131 0.950 . S
C2154 C2153 1.397 . S
C2154 C2155 1.334 . S
C2155 H2132 0.950 . S
C2155 C2154 1.334 . S
C2155 C2156 1.287 . S
C2156 C2155 1.287 . S
C2156 C2157 1.524 . S
C2156 H2175 0.913 . S
C2157 H2133 0.950 . S
C2157 C2156 1.524 . S
C2157 C2158 1.415 . S
C2158 H2134 0.950 . S
C2158 C2153 1.363 . S
C2158 C2157 1.415 . S
C2159 H2135 0.951 . S
C2159 C2160 1.366 . S
C2159 C2161 1.388 . S
C2160 C2159 1.366 . S
C2160 C2164 1.385 . S
C2161 H2136 0.951 . S
C2161 C2159 1.388 . S
C2161 C2162 1.366 . S
C2162 C2161 1.366 . S
C2162 C2163 1.414 . S
C2162 C2165 1.499 . S
C2163 H2137 0.950 . S
C2163 C2162 1.414 . S
C2163 C2164 1.374 . S
C2164 H2138 0.950 . S
C2164 C2160 1.385 . S
C2164 C2163 1.374 . S
C2165 C2162 1.499 . S
C2165 C2166 1.373 . S
C2165 C2167 1.389 . S
C2166 H2139 0.950 . S
C2166 C2152 1.377 . S
C2166 C2165 1.373 . S
C2167 C2151 1.377 . S
C2167 C2165 1.389 . S
C2167 C2168 1.524 . S
C2168 C2167 1.524 . S
C2168 C2169 1.397 . S
C2168 C2173 1.363 . S
C2169 H2140 0.950 . S
C2169 C2168 1.397 . S
C2169 C2170 1.334 . S
C2170 H2141 0.950 . S
C2170 C2169 1.334 . S
C2170 C2171 1.287 . S
C2171 C2170 1.287 . S
C2171 C2172 1.524 . S
C2171 H2174 0.999 . S
C2172 H2142 0.950 . S
C2172 C2171 1.524 . S
C2172 C2173 1.415 . S
C2173 H2143 0.950 . S
C2173 C2168 1.363 . S
C2173 C2172 1.415 . S
H2174 C2171 0.999 . S
H2175 C2156 0.913 . S
C595 C400 1.193 . S
C610 C4 1.187 . S
C645 C544 1.282 . S
C660 C40 1.280 . S
C695 C76 1.318 . S
C710 C326 1.315 . S
C745 C470 1.391 . S
C760 C110 1.390 . S
C795 C146 1.246 . S
C810 C472 1.250 . S
C845 C182 1.333 . S
C860 C398 1.329 . S
C895 C220 1.338 . S
C910 C542 1.324 . S
C945 C254 1.414 . S
C960 C328 1.419 . S
C995 C112 1.223 . S
C1010 C292 1.219 . S
C1045 C364 1.194 . S
C1060 C38 1.188 . S
C1095 C434 1.229 . S
C1110 C184 1.230 . S
C1145 C508 1.235 . S
C1160 C256 1.228 . S
C1195 C148 1.385 . S
C1210 C290 1.380 . S
C1245 C362 1.445 . S
C1260 C218 1.443 . S
C1295 C506 1.406 . S
C1310 C74 1.411 . S
C1345 C2 1.368 . S
C1360 C436 1.371 . S
C1395 C3 1.081 . S
C1410 C158 1.048 . S
C1445 C39 1.247 . S
C1460 C194 1.195 . S
C1495 C75 1.208 . S
C1510 C219 1.209 . S
C1545 C266 1.168 . S
C1560 C122 1.167 . S
C1595 C291 1.057 . S
C1610 C446 1.026 . S
C1645 C482 1.246 . S
C1660 C327 1.298 . S
C1695 C363 1.131 . S
C1710 C507 1.132 . S
C1745 C543 1.209 . S
C1760 C410 1.156 . S
C1795 C255 1.010 . S
C1810 C50 0.980 . S
C1845 C86 1.239 . S
C1860 C147 1.292 . S
C1895 C111 1.135 . S
C1910 C183 1.133 . S
C1945 C14 1.222 . S
C1960 C230 1.231 . S
C1995 C338 1.065 . S
C2010 C554 1.057 . S
C2045 C435 1.280 . S
C2060 C374 1.228 . S
C2095 C399 1.121 . S
C2110 C471 1.120 . S
C2145 C518 1.180 . S
C2160 C302 1.178 . S
