# Generated by pormake.
# Topology zfx, (5)-cn, num edge types: 1
# Building blocks:
#     Node 0, Type 0, BuildingBlock: BEQFEK_clean_sbu_0, # of connection points: 5
#     Node 1, Type 0, BuildingBlock: BEQFEK_clean_sbu_0, # of connection points: 5
#     Node 2, Type 0, BuildingBlock: BEQFEK_clean_sbu_0, # of connection points: 5
#     Node 3, Type 0, BuildingBlock: BEQFEK_clean_sbu_0, # of connection points: 5
#     Node 4, Type 0, BuildingBlock: BEQFEK_clean_sbu_0, # of connection points: 5
#     Node 5, Type 0, BuildingBlock: BEQFEK_clean_sbu_0, # of connection points: 5
#     Node 6, Type 0, BuildingBlock: BEQFEK_clean_sbu_0, # of connection points: 5
#     Node 7, Type 0, BuildingBlock: BEQFEK_clean_sbu_0, # of connection points: 5
#     Node 8, Type 0, BuildingBlock: BEQFEK_clean_sbu_0, # of connection points: 5
#     Node 9, Type 0, BuildingBlock: BEQFEK_clean_sbu_0, # of connection points: 5
#     Node 10, Type 0, BuildingBlock: BEQFEK_clean_sbu_0, # of connection points: 5
#     Node 11, Type 0, BuildingBlock: BEQFEK_clean_sbu_0, # of connection points: 5
#     Node 12, Type 0, BuildingBlock: BEQFEK_clean_sbu_0, # of connection points: 5
#     Node 13, Type 0, BuildingBlock: BEQFEK_clean_sbu_0, # of connection points: 5
#     Node 14, Type 0, BuildingBlock: BEQFEK_clean_sbu_0, # of connection points: 5
#     Node 15, Type 0, BuildingBlock: BEQFEK_clean_sbu_0, # of connection points: 5
#     Edge 16, Type (0, 0), BuildingBlock: TEMPAE_clean_linker_10, # of connection points: 2
#     Edge 17, Type (0, 0), BuildingBlock: TEMPAE_clean_linker_10, # of connection points: 2
#     Edge 18, Type (0, 0), BuildingBlock: TEMPAE_clean_linker_10, # of connection points: 2
#     Edge 19, Type (0, 0), BuildingBlock: TEMPAE_clean_linker_10, # of connection points: 2
#     Edge 20, Type (0, 0), BuildingBlock: TEMPAE_clean_linker_10, # of connection points: 2
#     Edge 21, Type (0, 0), BuildingBlock: TEMPAE_clean_linker_10, # of connection points: 2
#     Edge 22, Type (0, 0), BuildingBlock: TEMPAE_clean_linker_10, # of connection points: 2
#     Edge 23, Type (0, 0), BuildingBlock: TEMPAE_clean_linker_10, # of connection points: 2
#     Edge 24, Type (0, 0), BuildingBlock: TEMPAE_clean_linker_10, # of connection points: 2
#     Edge 25, Type (0, 0), BuildingBlock: TEMPAE_clean_linker_10, # of connection points: 2
#     Edge 26, Type (0, 0), BuildingBlock: TEMPAE_clean_linker_10, # of connection points: 2
#     Edge 27, Type (0, 0), BuildingBlock: TEMPAE_clean_linker_10, # of connection points: 2
#     Edge 28, Type (0, 0), BuildingBlock: TEMPAE_clean_linker_10, # of connection points: 2
#     Edge 29, Type (0, 0), BuildingBlock: TEMPAE_clean_linker_10, # of connection points: 2
#     Edge 30, Type (0, 0), BuildingBlock: TEMPAE_clean_linker_10, # of connection points: 2
#     Edge 31, Type (0, 0), BuildingBlock: TEMPAE_clean_linker_10, # of connection points: 2
#     Edge 32, Type (0, 0), BuildingBlock: TEMPAE_clean_linker_10, # of connection points: 2
#     Edge 33, Type (0, 0), BuildingBlock: TEMPAE_clean_linker_10, # of connection points: 2
#     Edge 34, Type (0, 0), BuildingBlock: TEMPAE_clean_linker_10, # of connection points: 2
#     Edge 35, Type (0, 0), BuildingBlock: TEMPAE_clean_linker_10, # of connection points: 2
#     Edge 36, Type (0, 0), BuildingBlock: TEMPAE_clean_linker_10, # of connection points: 2
#     Edge 37, Type (0, 0), BuildingBlock: TEMPAE_clean_linker_10, # of connection points: 2
#     Edge 38, Type (0, 0), BuildingBlock: TEMPAE_clean_linker_10, # of connection points: 2
#     Edge 39, Type (0, 0), BuildingBlock: TEMPAE_clean_linker_10, # of connection points: 2
#     Edge 40, Type (0, 0), BuildingBlock: TEMPAE_clean_linker_10, # of connection points: 2
#     Edge 41, Type (0, 0), BuildingBlock: TEMPAE_clean_linker_10, # of connection points: 2
#     Edge 42, Type (0, 0), BuildingBlock: TEMPAE_clean_linker_10, # of connection points: 2
#     Edge 43, Type (0, 0), BuildingBlock: TEMPAE_clean_linker_10, # of connection points: 2
#     Edge 44, Type (0, 0), BuildingBlock: TEMPAE_clean_linker_10, # of connection points: 2
#     Edge 45, Type (0, 0), BuildingBlock: TEMPAE_clean_linker_10, # of connection points: 2
#     Edge 46, Type (0, 0), BuildingBlock: TEMPAE_clean_linker_10, # of connection points: 2
#     Edge 47, Type (0, 0), BuildingBlock: TEMPAE_clean_linker_10, # of connection points: 2
#     Edge 48, Type (0, 0), BuildingBlock: TEMPAE_clean_linker_10, # of connection points: 2
#     Edge 49, Type (0, 0), BuildingBlock: TEMPAE_clean_linker_10, # of connection points: 2
#     Edge 50, Type (0, 0), BuildingBlock: TEMPAE_clean_linker_10, # of connection points: 2
#     Edge 51, Type (0, 0), BuildingBlock: TEMPAE_clean_linker_10, # of connection points: 2
#     Edge 52, Type (0, 0), BuildingBlock: TEMPAE_clean_linker_10, # of connection points: 2
#     Edge 53, Type (0, 0), BuildingBlock: TEMPAE_clean_linker_10, # of connection points: 2
#     Edge 54, Type (0, 0), BuildingBlock: TEMPAE_clean_linker_10, # of connection points: 2
#     Edge 55, Type (0, 0), BuildingBlock: TEMPAE_clean_linker_10, # of connection points: 2
# Relax obj value: 0.594
# Max RMSD: 0.174
# Mean RMSD: 0.174
data_MOF--net-zfx--node1-BEQFEK_clean_sbu_0--edge1-TEMPAE_clean_linker_10
_symmetry_space_group_name_H-M    P1
_symmetry_Int_Tables_number       1
_symmetry_cell_setting            triclinic
loop_
_symmetry_equiv_pos_as_xyz
'x, y, z'
_cell_length_a     58.853549
_cell_length_b     58.849122
_cell_length_c     25.256288
_cell_angle_alpha  89.988765
_cell_angle_beta   89.997393
_cell_angle_gamma 90.037632
loop_
_atom_site_label
_atom_site_type_symbol
_atom_site_fract_x
_atom_site_fract_y
_atom_site_fract_z
_atom_type_partial_charge
Co0 Co 0.49973 0.12858 0.42289 0.0
Co1 Co 0.5459 0.11823 0.37293 0.0
C2 C 0.54359 0.14759 0.46924 0.0
O3 O 0.522 0.1453 0.46903 0.0
O4 O 0.55578 0.1383 0.43332 0.0
C5 C 0.46088 0.15467 0.45489 0.0
O6 O 0.47317 0.1729 0.44563 0.0
C7 C 0.59034 0.11686 0.317 0.0
C8 C 0.585 0.08535 0.27094 0.0
C9 C 0.60038 0.10282 0.2791 0.0
N10 N 0.56991 0.10815 0.32926 0.0
N11 N 0.56707 0.08912 0.30238 0.0
C12 C 0.6 0.1376 0.34291 0.0
H13 H 0.59453 0.13839 0.38485 0.0
H14 H 0.59343 0.15298 0.32267 0.0
H15 H 0.61885 0.13752 0.3412 0.0
C16 C 0.48908 0.14505 0.31416 0.0
N17 N 0.5031 0.13567 0.35031 0.0
N18 N 0.52331 0.13283 0.32924 0.0
C19 C 0.52299 0.14122 0.2793 0.0
C20 C 0.5012 0.14918 0.26806 0.0
C21 C 0.46466 0.15079 0.32403 0.0
H22 H 0.45668 0.13758 0.34919 0.0
H23 H 0.46369 0.16742 0.34447 0.0
H24 H 0.45493 0.15221 0.28664 0.0
O25 O 0.50178 0.09598 0.43726 0.0
O26 O 0.53528 0.08867 0.4026 0.0
H27 H 0.54768 0.12375 0.23274 0.0
H28 H 0.53945 0.15105 0.20616 0.0
C29 C 0.54307 0.14148 0.24307 0.0
H30 H 0.5578 0.14919 0.26375 0.0
H31 H 0.5525 0.07905 0.30428 0.0
O32 O 0.46926 0.13528 0.44607 0.0
C33 C 0.5176 0.08212 0.42699 0.0
Co34 Co 0.13261 0.22942 0.68942 0.0
Co35 Co 0.14507 0.27529 0.63845 0.0
C36 C 0.11216 0.27266 0.73074 0.0
O37 O 0.11395 0.25104 0.73222 0.0
O38 O 0.12298 0.28427 0.69608 0.0
C39 C 0.14205 0.18334 0.70404 0.0
O40 O 0.16037 0.1887 0.6771 0.0
C41 C 0.14288 0.31668 0.57306 0.0
C42 C 0.17952 0.32335 0.56114 0.0
C43 C 0.15812 0.33086 0.54678 0.0
N44 N 0.15487 0.30135 0.60063 0.0
N45 N 0.17672 0.3058 0.5944 0.0
C46 C 0.11753 0.31606 0.5685 0.0
H47 H 0.1107 0.29998 0.58508 0.0
H48 H 0.11223 0.31791 0.52656 0.0
H49 H 0.11025 0.33045 0.59123 0.0
C50 C 0.11793 0.21847 0.58023 0.0
N51 N 0.12731 0.23278 0.61574 0.0
N52 N 0.13272 0.25201 0.59222 0.0
C53 C 0.12722 0.25016 0.54018 0.0
C54 C 0.11756 0.2289 0.53111 0.0
C55 C 0.10827 0.19565 0.5937 0.0
H56 H 0.0988 0.19662 0.6316 0.0
H57 H 0.09673 0.18938 0.56217 0.0
H58 H 0.12238 0.18334 0.59847 0.0
O59 O 0.16486 0.23302 0.71015 0.0
O60 O 0.17377 0.2653 0.67163 0.0
H61 H 0.13496 0.25959 0.4599 0.0
H62 H 0.11676 0.27883 0.49474 0.0
C63 C 0.13187 0.26775 0.49888 0.0
H64 H 0.14682 0.27815 0.5099 0.0
H65 H 0.18985 0.29623 0.61084 0.0
O66 O 0.12652 0.19811 0.7106 0.0
C67 C 0.1793 0.24832 0.69962 0.0
Co68 Co 0.03397 0.87091 0.94655 0.0
Co69 Co 0.98876 0.88067 0.89039 0.0
C70 C 0.98918 0.85146 0.98728 0.0
O71 O 0.01074 0.85394 0.98998 0.0
O72 O 0.97781 0.86065 0.9498 0.0
C73 C 0.07325 0.84538 0.98228 0.0
O74 O 0.06152 0.8267 0.97412 0.0
C75 C 0.94487 0.88227 0.83192 0.0
C76 C 0.95266 0.91102 0.77852 0.0
C77 C 0.93608 0.89509 0.7902 0.0
N78 N 0.96578 0.89013 0.84301 0.0
N79 N 0.97009 0.90755 0.81165 0.0
C80 C 0.93366 0.86351 0.86222 0.0
H81 H 0.93857 0.86446 0.90451 0.0
H82 H 0.93954 0.8469 0.84657 0.0
H83 H 0.91488 0.86458 0.85906 0.0
C84 C 0.04708 0.85452 0.83887 0.0
N85 N 0.03216 0.86362 0.87345 0.0
N86 N 0.01241 0.86616 0.85006 0.0
C87 C 0.01387 0.85783 0.8002 0.0
C88 C 0.036 0.85008 0.79119 0.0
C89 C 0.07193 0.85186 0.84992 0.0
H90 H 0.07787 0.86557 0.87665 0.0
H91 H 0.07493 0.83523 0.86931 0.0
H92 H 0.082 0.85254 0.8128 0.0
O93 O 0.03109 0.90367 0.95979 0.0
O94 O 0.99849 0.91051 0.92014 0.0
H95 H 0.99175 0.87235 0.74239 0.0
H96 H 0.99667 0.8423 0.73377 0.0
C97 C 0.99403 0.85595 0.76341 0.0
H98 H 0.97834 0.85233 0.78619 0.0
H99 H 0.9853 0.91668 0.81192 0.0
O100 O 0.06429 0.8645 0.97289 0.0
C101 C 0.01548 0.91737 0.9467 0.0
Co102 Co 0.39482 0.77624 0.19353 0.0
Co103 Co 0.38389 0.73069 0.14003 0.0
C104 C 0.41436 0.7325 0.23595 0.0
O105 O 0.41241 0.7541 0.23792 0.0
O106 O 0.40435 0.7211 0.19976 0.0
C107 C 0.4204 0.81476 0.23022 0.0
O108 O 0.43835 0.80155 0.22692 0.0
C109 C 0.38955 0.68911 0.07797 0.0
C110 C 0.35571 0.68657 0.04031 0.0
C111 C 0.37716 0.67694 0.0407 0.0
N112 N 0.37617 0.70558 0.09724 0.0
N113 N 0.35582 0.70362 0.07564 0.0
C114 C 0.41345 0.6851 0.09608 0.0
H115 H 0.41412 0.6857 0.13992 0.0
H116 H 0.42466 0.69882 0.0811 0.0
H117 H 0.41989 0.66837 0.08251 0.0
C118 C 0.4106 0.78819 0.08472 0.0
N119 N 0.4016 0.77358 0.12023 0.0
N120 N 0.39747 0.75404 0.09682 0.0
C121 C 0.404 0.75565 0.04547 0.0
C122 C 0.41261 0.7773 0.03634 0.0
C123 C 0.41759 0.81207 0.09699 0.0
H124 H 0.40393 0.82072 0.11951 0.0
H125 H 0.43315 0.81172 0.12167 0.0
H126 H 0.42128 0.82188 0.06049 0.0
O127 O 0.36198 0.77301 0.20817 0.0
O128 O 0.35412 0.74048 0.16889 0.0
H129 H 0.38405 0.72987 0.00767 0.0
H130 H 0.40412 0.74386 0.96437 0.0
C131 C 0.40132 0.73727 0.00504 0.0
H132 H 0.41388 0.72369 0.01281 0.0
H133 H 0.34233 0.71467 0.08298 0.0
O134 O 0.40112 0.80703 0.2172 0.0
C135 C 0.34784 0.75765 0.19554 0.0
Co136 Co 0.48702 0.87587 0.56398 0.0
Co137 Co 0.53308 0.88276 0.61987 0.0
C138 C 0.52978 0.85383 0.52191 0.0
O139 O 0.50838 0.85737 0.51954 0.0
O140 O 0.54173 0.86236 0.55925 0.0
C141 C 0.44219 0.88869 0.53744 0.0
O142 O 0.44771 0.90773 0.5613 0.0
C143 C 0.57577 0.87657 0.67984 0.0
C144 C 0.57606 0.90883 0.72477 0.0
C145 C 0.58761 0.88856 0.71839 0.0
N146 N 0.5578 0.88909 0.66514 0.0
N147 N 0.55835 0.90851 0.69134 0.0
C148 C 0.58168 0.854 0.65616 0.0
H149 H 0.57941 0.85468 0.61263 0.0
H150 H 0.57005 0.84075 0.67166 0.0
H151 H 0.59949 0.8492 0.66532 0.0
C152 C 0.47383 0.85786 0.66945 0.0
N153 N 0.48886 0.86774 0.63637 0.0
N154 N 0.50846 0.87014 0.66062 0.0
C155 C 0.50653 0.86169 0.71028 0.0
C156 C 0.48448 0.85345 0.7176 0.0
C157 C 0.44956 0.8533 0.65514 0.0
H158 H 0.44187 0.869 0.63893 0.0
H159 H 0.44891 0.84008 0.62384 0.0
H160 H 0.43938 0.84777 0.68974 0.0
O161 O 0.49346 0.90816 0.55041 0.0
O162 O 0.52604 0.91339 0.59137 0.0
H163 H 0.5315 0.87729 0.75985 0.0
H164 H 0.52145 0.85016 0.78429 0.0
C165 C 0.52595 0.85997 0.74833 0.0
H166 H 0.54041 0.85147 0.72867 0.0
H167 H 0.54612 0.92125 0.68777 0.0
O168 O 0.45599 0.87204 0.53778 0.0
C169 C 0.50975 0.921 0.56372 0.0
Co170 Co 0.38701 0.22829 0.82766 0.0
Co171 Co 0.3788 0.27372 0.88263 0.0
C172 C 0.40485 0.27281 0.78134 0.0
O173 O 0.40212 0.25126 0.78005 0.0
O174 O 0.39699 0.28453 0.81987 0.0
C175 C 0.41191 0.19151 0.78478 0.0
O176 O 0.42986 0.20416 0.79433 0.0
C177 C 0.37669 0.31863 0.93674 0.0
C178 C 0.35 0.31036 0.99533 0.0
C179 C 0.36411 0.32773 0.97839 0.0
N180 N 0.37029 0.29689 0.93021 0.0
N181 N 0.35416 0.29222 0.96486 0.0
C182 C 0.39359 0.33039 0.90198 0.0
H183 H 0.39163 0.32452 0.86055 0.0
H184 H 0.41102 0.32595 0.91521 0.0
H185 H 0.39136 0.34911 0.9034 0.0
C186 C 0.40932 0.21681 0.92998 0.0
N187 N 0.39734 0.23078 0.89821 0.0
N188 N 0.39504 0.25063 0.92135 0.0
C189 C 0.4061 0.25009 0.96835 0.0
C190 C 0.41572 0.22859 0.97527 0.0
C191 C 0.4138 0.19227 0.91843 0.0
H192 H 0.39959 0.1849 0.89532 0.0
H193 H 0.42971 0.19072 0.89523 0.0
H194 H 0.41587 0.18246 0.95566 0.0
O195 O 0.35402 0.23041 0.8208 0.0
O196 O 0.34816 0.26366 0.85794 0.0
H197 H 0.39303 0.27249 0.0273 0.0
H198 H 0.42333 0.26806 0.03136 0.0
C199 C 0.40881 0.27026 0.00383 0.0
H200 H 0.41137 0.28581 0.97972 0.0
H201 H 0.34616 0.27644 0.96806 0.0
O202 O 0.39262 0.19836 0.79968 0.0
C203 C 0.34064 0.24617 0.83435 0.0
Co204 Co 0.04237 0.12698 0.06087 0.0
Co205 Co 0.99695 0.12008 0.11851 0.0
C206 C 0.99809 0.14709 0.01868 0.0
O207 O 0.01951 0.14368 0.01569 0.0
O208 O 0.9866 0.13929 0.05761 0.0
C209 C 0.08103 0.15146 0.02172 0.0
O210 O 0.06914 0.16989 0.03144 0.0
C211 C 0.95381 0.12257 0.17955 0.0
C212 C 0.95706 0.09057 0.22496 0.0
C213 C 0.94319 0.10925 0.21767 0.0
N214 N 0.97324 0.11222 0.16555 0.0
N215 N 0.97486 0.09299 0.1923 0.0
C216 C 0.94536 0.14427 0.15567 0.0
H217 H 0.94927 0.14464 0.11275 0.0
H218 H 0.95409 0.1589 0.17437 0.0
H219 H 0.92676 0.14612 0.16162 0.0
C220 C 0.05619 0.14555 0.16647 0.0
N221 N 0.041 0.13592 0.13327 0.0
N222 N 0.02127 0.13431 0.15729 0.0
C223 C 0.0231 0.14361 0.20614 0.0
C224 C 0.04537 0.15121 0.21376 0.0
C225 C 0.08101 0.1478 0.15458 0.0
H226 H 0.0867 0.1336 0.12901 0.0
H227 H 0.0841 0.16407 0.13364 0.0
H228 H 0.0912 0.14771 0.19156 0.0
O229 O 0.03836 0.09407 0.05099 0.0
O230 O 0.0054 0.08955 0.09082 0.0
H231 H 1.00012 0.13016 0.26362 0.0
H232 H 0.00678 0.15992 0.27299 0.0
C233 C 0.00346 0.14651 0.24312 0.0
H234 H 0.9881 0.15114 0.2204 0.0
H235 H 0.98846 0.0817 0.18913 0.0
O236 O 0.07263 0.13222 0.03248 0.0
C237 C 0.02202 0.08141 0.06505 0.0
Co238 Co 0.13823 0.78039 0.31803 0.0
Co239 Co 0.14747 0.73482 0.37365 0.0
C240 C 0.11956 0.73648 0.27369 0.0
O241 O 0.12176 0.75807 0.27174 0.0
O242 O 0.12839 0.72507 0.31153 0.0
C243 C 0.14776 0.82626 0.29269 0.0
O244 O 0.16704 0.82228 0.31716 0.0
C245 C 0.14251 0.69242 0.43499 0.0
C246 C 0.17672 0.69055 0.47108 0.0
C247 C 0.1558 0.67988 0.46982 0.0
N248 N 0.15502 0.70992 0.41735 0.0
N249 N 0.17554 0.70847 0.43837 0.0
C250 C 0.11872 0.68757 0.41728 0.0
H251 H 0.11692 0.69145 0.37455 0.0
H252 H 0.1067 0.69861 0.43909 0.0
H253 H 0.11416 0.66952 0.4245 0.0
C254 C 0.11852 0.79223 0.42276 0.0
N255 N 0.12936 0.77776 0.38995 0.0
N256 N 0.13293 0.75838 0.41452 0.0
C257 C 0.12442 0.76004 0.46423 0.0
C258 C 0.11493 0.78153 0.47103 0.0
C259 C 0.11062 0.81542 0.40689 0.0
H260 H 0.12562 0.82662 0.40154 0.0
H261 H 0.10158 0.81441 0.36842 0.0
H262 H 0.09917 0.82298 0.437 0.0
O263 O 0.17124 0.77656 0.30668 0.0
O264 O 0.17779 0.74419 0.34741 0.0
H265 H 0.14252 0.73321 0.50337 0.0
H266 H 0.12318 0.74876 0.54558 0.0
C267 C 0.12577 0.74174 0.50523 0.0
H268 H 0.11234 0.72898 0.49756 0.0
H269 H 0.18856 0.72015 0.43174 0.0
O270 O 0.13233 0.8111 0.29224 0.0
C271 C 0.18486 0.76107 0.32091 0.0
Co272 Co 0.88697 0.72761 0.33466 0.0
Co273 Co 0.87892 0.77336 0.38894 0.0
C274 C 0.90635 0.77162 0.28952 0.0
O275 O 0.90339 0.7501 0.28822 0.0
O276 O 0.89803 0.78351 0.3272 0.0
C277 C 0.91125 0.69041 0.29226 0.0
O278 O 0.92935 0.70281 0.30212 0.0
C279 C 0.88002 0.81748 0.44648 0.0
C280 C 0.85046 0.81195 0.49902 0.0
C281 C 0.8675 0.82739 0.4873 0.0
N282 N 0.87087 0.79707 0.43578 0.0
N283 N 0.85302 0.7941 0.46668 0.0
C284 C 0.8996 0.82732 0.41643 0.0
H285 H 0.89865 0.82217 0.37431 0.0
H286 H 0.91573 0.82061 0.43293 0.0
H287 H 0.89964 0.84615 0.41882 0.0
C288 C 0.90669 0.71547 0.43948 0.0
N289 N 0.89604 0.72986 0.40614 0.0
N290 N 0.89404 0.74986 0.42881 0.0
C291 C 0.9042 0.749 0.47687 0.0
C292 C 0.91246 0.72711 0.48524 0.0
C293 C 0.9123 0.69127 0.42694 0.0
H294 H 0.92831 0.69071 0.40385 0.0
H295 H 0.91483 0.68117 0.46355 0.0
H296 H 0.8985 0.68351 0.40319 0.0
O297 O 0.85422 0.73078 0.32504 0.0
O298 O 0.8483 0.76402 0.36235 0.0
H299 H 0.91755 0.7649 0.54759 0.0
H300 H 0.91315 0.78367 0.49147 0.0
C301 C 0.90633 0.76885 0.51349 0.0
H302 H 0.88923 0.77349 0.52847 0.0
H303 H 0.84289 0.77953 0.46657 0.0
O304 O 0.89205 0.69745 0.30732 0.0
C305 C 0.84089 0.74671 0.33778 0.0
Co306 Co 0.63918 0.2696 0.82919 0.0
Co307 Co 0.64678 0.22365 0.88257 0.0
C308 C 0.61997 0.22562 0.78277 0.0
O309 O 0.62314 0.24712 0.78195 0.0
O310 O 0.6278 0.21352 0.8207 0.0
C311 C 0.61483 0.30794 0.79043 0.0
O312 O 0.59645 0.29601 0.80065 0.0
C313 C 0.64932 0.17851 0.9358 0.0
C314 C 0.67668 0.18663 0.9928 0.0
C315 C 0.66244 0.16927 0.97639 0.0
N316 N 0.65558 0.2003 0.92934 0.0
N317 N 0.67209 0.20488 0.96305 0.0
C318 C 0.63204 0.16685 0.9019 0.0
H319 H 0.63327 0.17312 0.86062 0.0
H320 H 0.61479 0.17093 0.91681 0.0
H321 H 0.63453 0.14815 0.90228 0.0
C322 C 0.61834 0.28108 0.93322 0.0
N323 N 0.62965 0.26701 0.90039 0.0
N324 N 0.63152 0.24693 0.92266 0.0
C325 C 0.62077 0.24742 0.97006 0.0
C326 C 0.61184 0.26913 0.9782 0.0
C327 C 0.61463 0.30587 0.92309 0.0
H328 H 0.62881 0.31293 0.89935 0.0
H329 H 0.59848 0.30822 0.90122 0.0
H330 H 0.61341 0.31539 0.96093 0.0
O331 O 0.67198 0.2666 0.81964 0.0
O332 O 0.67722 0.23297 0.85548 0.0
H333 H 0.63335 0.22434 0.02816 0.0
H334 H 0.60314 0.22933 0.03227 0.0
C335 C 0.61764 0.22704 0.0047 0.0
H336 H 0.6148 0.21172 0.97998 0.0
H337 H 0.6801 0.22066 0.96602 0.0
O338 O 0.634 0.29988 0.80262 0.0
C339 C 0.68497 0.25027 0.83155 0.0
Co340 Co 0.63385 0.72747 0.18742 0.0
Co341 Co 0.64593 0.77299 0.13439 0.0
C342 C 0.61302 0.77118 0.22599 0.0
O343 O 0.61535 0.74965 0.22879 0.0
O344 O 0.62352 0.78265 0.19059 0.0
C345 C 0.60791 0.68917 0.2249 0.0
O346 O 0.59002 0.70247 0.2221 0.0
C347 C 0.64386 0.81379 0.06703 0.0
C348 C 0.68046 0.81929 0.0517 0.0
C349 C 0.65906 0.82722 0.03859 0.0
N350 N 0.65586 0.79846 0.09463 0.0
N351 N 0.67771 0.80222 0.08633 0.0
C352 C 0.61845 0.81378 0.06437 0.0
H353 H 0.61146 0.79799 0.08208 0.0
H354 H 0.61262 0.81547 0.02278 0.0
H355 H 0.61185 0.82851 0.08705 0.0
C356 C 0.6196 0.71542 0.07803 0.0
N357 N 0.62869 0.73003 0.11336 0.0
N358 N 0.63397 0.74917 0.08927 0.0
C359 C 0.62864 0.74698 0.03721 0.0
C360 C 0.61912 0.72565 0.02876 0.0
C361 C 0.61122 0.69208 0.09108 0.0
H362 H 0.62435 0.6828 0.11393 0.0
H363 H 0.59569 0.69347 0.11571 0.0
H364 H 0.60706 0.68227 0.05481 0.0
O365 O 0.66623 0.73071 0.20724 0.0
O366 O 0.67441 0.76341 0.16937 0.0
H367 H 0.64792 0.77477 0.00511 0.0
H368 H 0.63471 0.75661 0.95622 0.0
C369 C 0.6326 0.76463 0.99569 0.0
H370 H 0.6176 0.77597 0.99367 0.0
H371 H 0.6908 0.79243 0.10223 0.0
O372 O 0.62712 0.69672 0.21087 0.0
C373 C 0.6803 0.74644 0.19707 0.0
Co374 Co 0.89018 0.26364 0.67019 0.0
Co375 Co 0.87882 0.21677 0.62416 0.0
C376 C 0.91194 0.22124 0.71445 0.0
O377 O 0.9093 0.24276 0.71392 0.0
O378 O 0.90151 0.20867 0.68109 0.0
C379 C 0.91652 0.30319 0.6964 0.0
O380 O 0.9346 0.29061 0.68789 0.0
C381 C 0.88117 0.17446 0.5624 0.0
C382 C 0.84462 0.16788 0.5491 0.0
C383 C 0.8661 0.16011 0.53605 0.0
N384 N 0.86903 0.19015 0.58847 0.0
N385 N 0.84722 0.18573 0.5816 0.0
C386 C 0.90656 0.17496 0.55898 0.0
H387 H 0.91332 0.19111 0.57537 0.0
H388 H 0.91223 0.17288 0.51736 0.0
H389 H 0.91359 0.16066 0.58244 0.0
C390 C 0.90212 0.274 0.55864 0.0
N391 N 0.89445 0.25966 0.59634 0.0
N392 N 0.89044 0.23958 0.57527 0.0
C393 C 0.89589 0.24066 0.52303 0.0
C394 C 0.90362 0.26243 0.51116 0.0
C395 C 0.90862 0.29827 0.56796 0.0
H396 H 0.92544 0.29884 0.5876 0.0
H397 H 0.90995 0.30796 0.53046 0.0
H398 H 0.89584 0.30661 0.59361 0.0
O399 O 0.85824 0.26067 0.69173 0.0
O400 O 0.85019 0.22701 0.65858 0.0
H401 H 0.8908 0.22856 0.4435 0.0
H402 H 0.90884 0.2113 0.48405 0.0
C403 C 0.89318 0.22174 0.48411 0.0
H404 H 0.87842 0.21099 0.4947 0.0
H405 H 0.83403 0.19559 0.5968 0.0
O406 O 0.89699 0.29466 0.68983 0.0
C407 C 0.84429 0.24459 0.68419 0.0
Co408 Co 1.00004 0.62894 0.93042 0.0
Co409 Co 0.04612 0.61794 0.88041 0.0
C410 C 0.04349 0.64992 0.97259 0.0
O411 O 0.02197 0.64718 0.9736 0.0
O412 O 0.05561 0.63993 0.9376 0.0
C413 C 0.96123 0.65539 0.96164 0.0
O414 O 0.97356 0.67355 0.95188 0.0
C415 C 0.08828 0.61866 0.81689 0.0
C416 C 0.09133 0.5821 0.79791 0.0
C417 C 0.10103 0.60309 0.78786 0.0
N418 N 0.0716 0.60732 0.84163 0.0
N419 N 0.07393 0.58543 0.83129 0.0
C420 C 0.09028 0.64401 0.81723 0.0
H421 H 0.07519 0.65181 0.83634 0.0
H422 H 0.09218 0.65058 0.77627 0.0
H423 H 0.10563 0.64896 0.83997 0.0
C424 C 0.98871 0.64381 0.82168 0.0
N425 N 0.0031 0.63437 0.85687 0.0
N426 N 0.02293 0.63086 0.8342 0.0
C427 C 0.02166 0.63846 0.78343 0.0
C428 C 1.0 0.64732 0.77434 0.0
C429 C 0.96417 0.64876 0.83211 0.0
H430 H 0.95676 0.63552 0.85809 0.0
H431 H 0.96262 0.66558 0.85148 0.0
H432 H 0.95434 0.64927 0.7946 0.0
O433 O 0.00247 0.5968 0.94937 0.0
O434 O 0.03584 0.58914 0.9146 0.0
H435 H 0.05154 0.62322 0.75027 0.0
H436 H 0.03499 0.6396 0.70377 0.0
C437 C 0.04106 0.63868 0.74525 0.0
H438 H 0.05164 0.65391 0.75287 0.0
H439 H 0.06292 0.57279 0.84473 0.0
O440 O 0.96957 0.63592 0.9534 0.0
C441 C 0.01844 0.58293 0.94048 0.0
Co442 Co 0.52821 0.37026 0.42716 0.0
Co443 Co 0.48263 0.38111 0.37499 0.0
C444 C 0.48388 0.35224 0.47273 0.0
O445 O 0.50552 0.35409 0.47329 0.0
O446 O 0.47215 0.36166 0.43614 0.0
C447 C 0.5668 0.34447 0.46265 0.0
O448 O 0.55449 0.32612 0.45492 0.0
C449 C 0.4385 0.38208 0.31788 0.0
C450 C 0.44406 0.41313 0.27028 0.0
C451 C 0.42866 0.39574 0.27898 0.0
N452 N 0.45887 0.39091 0.33021 0.0
N453 N 0.46184 0.40967 0.30239 0.0
C454 C 0.42871 0.36158 0.34458 0.0
H455 H 0.4338 0.3613 0.38681 0.0
H456 H 0.43554 0.34601 0.32563 0.0
H457 H 0.40988 0.36153 0.34199 0.0
C458 C 0.53929 0.35266 0.3196 0.0
N459 N 0.52519 0.36258 0.35481 0.0
N460 N 0.50524 0.36579 0.33271 0.0
C461 C 0.50581 0.35719 0.28297 0.0
C462 C 0.5275 0.34864 0.273 0.0
C463 C 0.56344 0.34633 0.33092 0.0
H464 H 0.5717 0.35976 0.3549 0.0
H465 H 0.56372 0.33014 0.35332 0.0
H466 H 0.57335 0.34379 0.2941 0.0
O467 O 0.52651 0.40305 0.43974 0.0
O468 O 0.49358 0.41089 0.4029 0.0
H469 H 0.48197 0.37517 0.23507 0.0
H470 H 0.48987 0.3477 0.20897 0.0
C471 C 0.48609 0.35735 0.24566 0.0
H472 H 0.47101 0.34995 0.26555 0.0
H473 H 0.47641 0.41976 0.30412 0.0
O474 O 0.55853 0.3637 0.45157 0.0
C475 C 0.51121 0.41724 0.42775 0.0
Co476 Co 0.98611 0.37697 0.06983 0.0
Co477 Co 0.0312 0.38199 0.12869 0.0
C478 C 0.0295 0.35527 0.02824 0.0
O479 O 0.00827 0.35952 0.02478 0.0
O480 O 0.04112 0.36261 0.06744 0.0
C481 C 0.94855 0.35502 0.0232 0.0
O482 O 0.95987 0.33635 0.03413 0.0
C483 C 0.07381 0.37674 0.19002 0.0
C484 C 0.07189 0.40815 0.238 0.0
C485 C 0.0849 0.38896 0.22932 0.0
N486 N 0.05493 0.38819 0.17669 0.0
N487 N 0.0541 0.40706 0.20495 0.0
C488 C 0.08139 0.35517 0.16405 0.0
H489 H 0.07853 0.35624 0.12076 0.0
H490 H 0.07123 0.34073 0.1793 0.0
H491 H 0.09966 0.35187 0.17179 0.0
C492 C 0.97136 0.35622 0.17182 0.0
N493 N 0.98666 0.36707 0.14111 0.0
N494 N 0.00617 0.36824 0.16621 0.0
C495 C 0.00399 0.35771 0.21363 0.0
C496 C 0.98181 0.3495 0.21859 0.0
C497 C 0.94691 0.35284 0.15745 0.0
H498 H 0.94071 0.36738 0.13363 0.0
H499 H 0.94515 0.33704 0.13392 0.0
H500 H 0.93624 0.35118 0.1935 0.0
O501 O 0.99155 0.40955 0.06147 0.0
O502 O 0.02441 0.41316 0.10206 0.0
H503 H 0.02881 0.37056 0.26758 0.0
H504 H 0.01859 0.3424 0.28402 0.0
C505 C 0.02329 0.35396 0.25114 0.0
H506 H 0.03784 0.3466 0.22935 0.0
H507 H 0.04104 0.419 0.20248 0.0
O508 O 0.9562 0.37384 0.03928 0.0
C509 C 0.00813 0.42176 0.07595 0.0
Co510 Co 0.54132 0.62453 0.56436 0.0
Co511 Co 0.496 0.61551 0.62196 0.0
C512 C 0.49772 0.6464 0.52688 0.0
O513 O 0.51908 0.64302 0.52279 0.0
O514 O 0.48627 0.63718 0.56426 0.0
C515 C 0.58647 0.61412 0.53554 0.0
O516 O 0.58202 0.59467 0.55881 0.0
C517 C 0.45536 0.61927 0.69036 0.0
C518 C 0.45134 0.58325 0.71358 0.0
C519 C 0.44256 0.60474 0.72207 0.0
N520 N 0.47113 0.60684 0.66523 0.0
N521 N 0.46827 0.58529 0.67839 0.0
C522 C 0.45426 0.64465 0.68751 0.0
H523 H 0.46958 0.65156 0.66752 0.0
H524 H 0.45267 0.652 0.72781 0.0
H525 H 0.43906 0.64969 0.66438 0.0
C526 C 0.5549 0.64199 0.66956 0.0
N527 N 0.53984 0.6316 0.63747 0.0
N528 N 0.52086 0.62774 0.66351 0.0
C529 C 0.52358 0.63525 0.71391 0.0
C530 C 0.54517 0.64483 0.71921 0.0
C531 C 0.57822 0.64908 0.65252 0.0
H532 H 0.58766 0.63394 0.63856 0.0
H533 H 0.57687 0.66114 0.61887 0.0
H534 H 0.58797 0.65704 0.68517 0.0
O535 O 0.53622 0.59208 0.54811 0.0
O536 O 0.50385 0.586 0.58907 0.0
H537 H 0.49514 0.61911 0.7516 0.0
H538 H 0.51266 0.63572 0.79569 0.0
C539 C 0.5054 0.63481 0.75527 0.0
H540 H 0.49422 0.64977 0.74982 0.0
H541 H 0.47855 0.572 0.66528 0.0
O542 O 0.57191 0.63009 0.53712 0.0
C543 C 0.52012 0.57889 0.56075 0.0
C544 C 0.50001 0.05251 0.48507 0.0
C545 C 0.51579 0.0583 0.44562 0.0
C546 C 0.49868 0.03027 0.5049 0.0
C547 C 0.5132 0.0133 0.48418 0.0
C548 C 0.52888 0.01893 0.44369 0.0
C549 C 0.53013 0.04141 0.4252 0.0
C550 C 0.48195 0.02502 0.54858 0.0
C551 C 0.54438 0.0012 0.42001 0.0
C552 C 0.52533 0.96063 0.56664 0.0
C553 C 0.51019 0.94482 0.54467 0.0
C554 C 0.52631 0.98305 0.54768 0.0
C555 C 0.51208 0.9897 0.5052 0.0
C556 C 0.49675 0.97382 0.48289 0.0
C557 C 0.49586 0.95164 0.50317 0.0
C558 C 0.5426 0.99962 0.57311 0.0
C559 C 0.4815 0.98016 0.43713 0.0
H560 H 0.48897 0.06549 0.50134 0.0
H561 H 0.54228 0.04573 0.39454 0.0
H562 H 0.47004 0.0115 0.53565 0.0
H563 H 0.49113 0.01851 0.58384 0.0
H564 H 0.4719 0.04016 0.56047 0.0
H565 H 0.55514 0.00818 0.38771 0.0
H566 H 0.55564 0.99411 0.45112 0.0
H567 H 0.53418 0.98691 0.40398 0.0
H568 H 0.53638 0.95552 0.59884 0.0
H569 H 0.48419 0.93949 0.48573 0.0
H570 H 0.53317 0.01464 0.58795 0.0
H571 H 0.55499 0.00581 0.54332 0.0
H572 H 0.55211 0.99192 0.6066 0.0
H573 H 0.47039 0.99459 0.44844 0.0
H574 H 0.4706 0.96578 0.42414 0.0
H575 H 0.49195 0.98585 0.40303 0.0
C576 C 0.30921 0.229 0.781 0.0
C577 C 0.31629 0.24467 0.81954 0.0
C578 C 0.28662 0.22847 0.76326 0.0
C579 C 0.2706 0.24372 0.78516 0.0
C580 C 0.27742 0.259 0.82551 0.0
C581 C 0.30024 0.25943 0.84191 0.0
C582 C 0.28012 0.21215 0.71964 0.0
C583 C 0.26073 0.27527 0.85042 0.0
C584 C 0.21996 0.26069 0.70087 0.0
C585 C 0.2027 0.24671 0.72103 0.0
C586 C 0.24211 0.25976 0.72123 0.0
C587 C 0.24711 0.2447 0.76337 0.0
C588 C 0.22978 0.23052 0.78399 0.0
C589 C 0.20781 0.23156 0.7623 0.0
C590 C 0.2602 0.27486 0.69745 0.0
C591 C 0.23438 0.21442 0.82929 0.0
H592 H 0.3215 0.21757 0.76332 0.0
H593 H 0.30554 0.27146 0.87196 0.0
H594 H 0.26538 0.20166 0.73196 0.0
H595 H 0.2749 0.22184 0.68397 0.0
H596 H 0.29432 0.20065 0.7086 0.0
H597 H 0.26828 0.28476 0.88415 0.0
H598 H 0.25484 0.2877 0.8204 0.0
H599 H 0.24555 0.26592 0.86472 0.0
H600 H 0.21621 0.27233 0.66878 0.0
H601 H 0.19455 0.22076 0.77827 0.0
H602 H 0.27449 0.26436 0.68261 0.0
H603 H 0.26716 0.28639 0.72819 0.0
H604 H 0.25362 0.28534 0.66423 0.0
H605 H 0.24809 0.20238 0.81836 0.0
H606 H 0.21907 0.20451 0.84071 0.0
H607 H 0.24038 0.22412 0.86429 0.0
C608 C 0.03642 0.04926 0.00936 0.0
C609 C 0.02181 0.05712 0.04927 0.0
C610 C 0.03563 0.02659 0.99211 0.0
C611 C 0.02011 0.01128 0.01586 0.0
C612 C 0.00559 0.019 0.05679 0.0
C613 C 0.00649 0.04186 0.07273 0.0
C614 C 0.0512 0.01909 0.94791 0.0
C615 C 0.98903 0.00313 0.08364 0.0
C616 C 0.00269 0.95796 0.94088 0.0
C617 C 0.01685 0.94147 0.9637 0.0
C618 C 0.0037 0.98077 0.95715 0.0
C619 C 0.01901 0.98721 0.99775 0.0
C620 C 0.03329 0.97064 0.02107 0.0
C621 C 0.03216 0.94803 0.00351 0.0
C622 C 0.98843 0.998 0.9308 0.0
C623 C 0.04962 0.97676 0.06493 0.0
H624 H 0.0482 0.06096 0.99074 0.0
H625 H 0.9952 0.04775 0.10373 0.0
H626 H 0.06217 0.00493 0.9616 0.0
H627 H 0.041 0.01261 0.91419 0.0
H628 H 0.06225 0.0331 0.93348 0.0
H629 H 0.97934 0.01164 0.11575 0.0
H630 H 0.9768 0.99633 0.0542 0.0
H631 H 0.99826 0.98841 0.1007 0.0
H632 H 0.99089 0.95307 0.90995 0.0
H633 H 0.04307 0.9354 0.02163 0.0
H634 H 0.99881 0.01182 0.91323 0.0
H635 H 0.97707 0.00588 0.96063 0.0
H636 H 0.97779 0.99033 0.89915 0.0
H637 H 0.06179 0.98985 0.05089 0.0
H638 H 0.05939 0.96184 0.07929 0.0
H639 H 0.04017 0.98419 0.09877 0.0
C640 C 0.31772 0.77486 0.25316 0.0
C641 C 0.32385 0.75948 0.21315 0.0
C642 C 0.29524 0.77611 0.27166 0.0
C643 C 0.27842 0.76189 0.24911 0.0
C644 C 0.28441 0.74666 0.20802 0.0
C645 C 0.30707 0.74552 0.19081 0.0
C646 C 0.28958 0.79236 0.316 0.0
C647 C 0.2669 0.73142 0.18248 0.0
C648 C 0.22508 0.74739 0.32698 0.0
C649 C 0.20905 0.76216 0.30454 0.0
C650 C 0.24781 0.74748 0.31011 0.0
C651 C 0.25464 0.76251 0.26928 0.0
C652 C 0.23862 0.77766 0.24689 0.0
C653 C 0.21606 0.77742 0.26504 0.0
C654 C 0.26446 0.73129 0.33553 0.0
C655 C 0.24517 0.79377 0.20291 0.0
H656 H 0.33059 0.78564 0.27084 0.0
H657 H 0.31161 0.73369 0.15967 0.0
H658 H 0.27595 0.80419 0.30335 0.0
H659 H 0.28305 0.78276 0.35062 0.0
H660 H 0.30454 0.8025 0.32874 0.0
H661 H 0.27413 0.72116 0.14963 0.0
H662 H 0.25967 0.71968 0.21245 0.0
H663 H 0.25267 0.74177 0.16672 0.0
H664 H 0.21986 0.73564 0.35773 0.0
H665 H 0.20378 0.78885 0.24732 0.0
H666 H 0.27928 0.74082 0.35117 0.0
H667 H 0.27096 0.71918 0.30549 0.0
H668 H 0.25669 0.72145 0.36842 0.0
H669 H 0.25952 0.8047 0.21567 0.0
H670 H 0.23083 0.80484 0.19058 0.0
H671 H 0.25103 0.78395 0.16798 0.0
C672 C 0.80057 0.76056 0.34191 0.0
C673 C 0.81675 0.74551 0.32113 0.0
C674 C 0.77791 0.76012 0.32428 0.0
C675 C 0.7714 0.74451 0.28434 0.0
C676 C 0.78758 0.72909 0.26376 0.0
C677 C 0.80998 0.72967 0.28266 0.0
C678 C 0.76104 0.7766 0.34773 0.0
C679 C 0.7814 0.71241 0.22064 0.0
C680 C 0.70892 0.73101 0.2613 0.0
C681 C 0.70367 0.74548 0.21887 0.0
C682 C 0.73081 0.73071 0.28353 0.0
C683 C 0.74794 0.74495 0.26227 0.0
C684 C 0.74281 0.75939 0.21905 0.0
C685 C 0.72072 0.7596 0.19817 0.0
C686 C 0.73558 0.71529 0.32999 0.0
C687 C 0.76069 0.77455 0.19465 0.0
H688 H 0.80562 0.77276 0.37184 0.0
H689 H 0.82237 0.71803 0.26614 0.0
H690 H 0.75506 0.78851 0.31668 0.0
H691 H 0.74594 0.7673 0.36266 0.0
H692 H 0.76844 0.78666 0.38073 0.0
H693 H 0.79582 0.70112 0.20994 0.0
H694 H 0.76688 0.7017 0.23337 0.0
H695 H 0.77597 0.72177 0.18466 0.0
H696 H 0.69581 0.72017 0.27779 0.0
H697 H 0.71686 0.77075 0.16524 0.0
H698 H 0.74178 0.72545 0.36407 0.0
H699 H 0.7492 0.70305 0.31963 0.0
H700 H 0.7203 0.7056 0.34257 0.0
H701 H 0.76745 0.78644 0.22485 0.0
H702 H 0.75399 0.78462 0.16089 0.0
H703 H 0.77515 0.76412 0.1804 0.0
C704 C 0.80377 0.23169 0.68849 0.0
C705 C 0.82109 0.24607 0.70677 0.0
C706 C 0.7818 0.23275 0.70999 0.0
C707 C 0.77712 0.24828 0.7514 0.0
C708 C 0.79457 0.26272 0.77031 0.0
C709 C 0.81629 0.26158 0.74746 0.0
C710 C 0.76354 0.21735 0.6881 0.0
C711 C 0.79032 0.27928 0.8149 0.0
C712 C 0.71566 0.26552 0.77311 0.0
C713 C 0.70897 0.25074 0.81386 0.0
C714 C 0.73783 0.26501 0.75272 0.0
C715 C 0.75385 0.24964 0.77424 0.0
C716 C 0.74742 0.23517 0.81649 0.0
C717 C 0.72498 0.23573 0.83547 0.0
C718 C 0.74391 0.28048 0.70713 0.0
C719 C 0.76415 0.21886 0.84114 0.0
H720 H 0.80732 0.21974 0.65693 0.0
H721 H 0.82963 0.27263 0.76211 0.0
H722 H 0.75677 0.20628 0.71997 0.0
H723 H 0.74915 0.22767 0.67302 0.0
H724 H 0.76988 0.20641 0.65545 0.0
H725 H 0.80585 0.28894 0.82589 0.0
H726 H 0.7769 0.29154 0.80335 0.0
H727 H 0.7841 0.27004 0.85036 0.0
H728 H 0.70336 0.27706 0.7559 0.0
H729 H 0.71995 0.22434 0.86713 0.0
H730 H 0.74893 0.27015 0.67228 0.0
H731 H 0.7587 0.29125 0.71778 0.0
H732 H 0.7296 0.29172 0.6955 0.0
H733 H 0.76966 0.20618 0.8113 0.0
H734 H 0.75684 0.20968 0.8756 0.0
H735 H 0.77955 0.22817 0.85431 0.0
C736 C 0.03144 0.54239 0.94271 0.0
C737 C 0.01696 0.55947 0.96163 0.0
C738 C 0.03013 0.52011 0.96245 0.0
C739 C 0.0142 0.51488 0.0027 0.0
C740 C 0.99976 0.53212 0.0225 0.0
C741 C 0.00118 0.55415 0.00144 0.0
C742 C 0.04558 0.50211 0.93974 0.0
C743 C 0.98277 0.52728 0.0659 0.0
C744 C 0.99517 0.45357 0.01778 0.0
C745 C 0.00906 0.44589 0.05927 0.0
C746 C 0.99669 0.47595 0.99906 0.0
C747 C 0.0122 0.49121 0.02297 0.0
C748 C 0.02592 0.48374 0.06565 0.0
C749 C 0.02433 0.4611 0.083 0.0
C750 C 0.98199 0.48316 0.953 0.0
C751 C 0.04237 0.49964 0.09274 0.0
H752 H 0.04364 0.54633 0.9119 0.0
H753 H 0.99005 0.56729 0.01664 0.0
H754 H 0.05607 0.4945 0.97164 0.0
H755 H 0.03527 0.48822 0.92224 0.0
H756 H 0.05709 0.50896 0.90872 0.0
H757 H 0.97338 0.54276 0.07831 0.0
H758 H 0.97031 0.51441 0.05224 0.0
H759 H 0.99157 0.52009 0.10095 0.0
H760 H 0.98343 0.44189 0.99893 0.0
H761 H 0.03505 0.45531 0.1152 0.0
H762 H 0.99286 0.48883 0.91963 0.0
H763 H 0.9712 0.49779 0.96456 0.0
H764 H 0.97079 0.46922 0.93882 0.0
H765 H 0.05533 0.50559 0.06402 0.0
H766 H 0.05118 0.49144 0.12661 0.0
H767 H 0.03324 0.51489 0.10739 0.0
C768 C 0.52928 0.44708 0.48441 0.0
C769 C 0.51366 0.44125 0.44467 0.0
C770 C 0.53113 0.46951 0.50279 0.0
C771 C 0.51728 0.48663 0.48032 0.0
C772 C 0.50187 0.48098 0.43928 0.0
C773 C 0.5001 0.45832 0.42225 0.0
C774 C 0.54751 0.47476 0.54716 0.0
C775 C 0.48707 0.49885 0.41377 0.0
C776 C 0.50441 0.53934 0.56179 0.0
C777 C 0.51989 0.55514 0.54103 0.0
C778 C 0.50354 0.51697 0.54266 0.0
C779 C 0.51829 0.51027 0.50123 0.0
C780 C 0.53398 0.52611 0.48008 0.0
C781 C 0.53471 0.54831 0.50048 0.0
C782 C 0.4868 0.50049 0.56683 0.0
C783 C 0.54983 0.51969 0.43552 0.0
H784 H 0.53975 0.43398 0.50215 0.0
H785 H 0.4881 0.45398 0.39129 0.0
H786 H 0.55953 0.48829 0.53479 0.0
H787 H 0.53803 0.48126 0.58198 0.0
H788 H 0.55744 0.45962 0.55954 0.0
H789 H 0.47687 0.49192 0.38046 0.0
H790 H 0.4753 0.5061 0.44362 0.0
H791 H 0.49772 0.513 0.3987 0.0
H792 H 0.49297 0.54441 0.59324 0.0
H793 H 0.54666 0.56043 0.48402 0.0
H794 H 0.49592 0.48543 0.58248 0.0
H795 H 0.47481 0.49436 0.53611 0.0
H796 H 0.47684 0.50825 0.59954 0.0
H797 H 0.56071 0.50522 0.44772 0.0
H798 H 0.56095 0.53402 0.42332 0.0
H799 H 0.53983 0.51402 0.40068 0.0
C800 C 0.49935 0.18318 0.20829 0.0
C801 C 0.4925 0.16094 0.22008 0.0
C802 C 0.48852 0.19579 0.16804 0.0
C803 C 0.47041 0.18587 0.13898 0.0
C804 C 0.46407 0.16307 0.1497 0.0
C805 C 0.47519 0.15092 0.19006 0.0
C806 C 0.49594 0.21995 0.15786 0.0
C807 C 0.44505 0.15169 0.11958 0.0
C808 C 0.42463 0.22176 0.07155 0.0
C809 C 0.43092 0.22012 0.01819 0.0
C810 C 0.43779 0.21144 0.11156 0.0
C811 C 0.45775 0.19922 0.09788 0.0
C812 C 0.46465 0.19843 0.0442 0.0
C813 C 0.4512 0.20889 0.00516 0.0
C814 C 0.42985 0.21283 0.16827 0.0
C815 C 0.48581 0.18579 0.02767 0.0
H816 H 0.5126 0.191 0.23193 0.0
H817 H 0.46985 0.13375 0.19941 0.0
H818 H 0.4997 0.22245 0.11521 0.0
H819 H 0.48195 0.23177 0.16831 0.0
H820 H 0.51123 0.22466 0.18121 0.0
H821 H 0.4427 0.13366 0.13143 0.0
H822 H 0.4289 0.16092 0.12659 0.0
H823 H 0.44852 0.15233 0.07642 0.0
H824 H 0.40895 0.23036 0.08179 0.0
H825 H 0.45636 0.20793 0.96403 0.0
H826 H 0.44382 0.21896 0.19408 0.0
H827 H 0.425 0.19564 0.1824 0.0
H828 H 0.41501 0.22432 0.17296 0.0
H829 H 0.50059 0.19154 0.05143 0.0
H830 H 0.48977 0.18819 0.98503 0.0
H831 H 0.48355 0.16736 0.03531 0.0
C832 C 0.05056 0.157 0.31222 0.0
C833 C 0.05532 0.16367 0.26004 0.0
C834 C 0.06019 0.1685 0.35579 0.0
C835 C 0.07551 0.18676 0.34714 0.0
C836 C 0.08038 0.19353 0.29452 0.0
C837 C 0.06999 0.18217 0.25185 0.0
C838 C 0.05408 0.16099 0.41113 0.0
C839 C 0.0969 0.21256 0.28319 0.0
C840 C 0.08811 0.22866 0.45936 0.0
C841 C 0.10791 0.21944 0.48136 0.0
C842 C 0.07732 0.21821 0.41585 0.0
C843 C 0.08689 0.19836 0.39298 0.0
C844 C 0.10734 0.18947 0.41429 0.0
C845 C 0.11739 0.19991 0.45866 0.0
C846 C 0.05531 0.22799 0.39539 0.0
C847 C 0.11852 0.16877 0.39051 0.0
H848 H 0.03951 0.14256 0.31908 0.0
H849 H 0.07341 0.18783 0.21183 0.0
H850 H 0.06938 0.15427 0.43142 0.0
H851 H 0.04793 0.17571 0.43455 0.0
H852 H 0.04076 0.14761 0.4113 0.0
H853 H 0.09917 0.21555 0.24008 0.0
H854 H 0.0909 0.22853 0.30178 0.0
H855 H 0.1137 0.20852 0.30078 0.0
H856 H 0.08062 0.24359 0.47745 0.0
H857 H 0.13264 0.19273 0.47595 0.0
H858 H 0.04158 0.21513 0.39895 0.0
H859 H 0.05693 0.23227 0.3528 0.0
H860 H 0.05012 0.24351 0.41729 0.0
H861 H 0.10714 0.15384 0.39454 0.0
H862 H 0.13501 0.16475 0.40976 0.0
H863 H 0.12149 0.17147 0.34757 0.0
C864 C 0.11106 0.81018 0.54382 0.0
C865 C 0.10284 0.79077 0.51808 0.0
C866 C 0.09961 0.81945 0.58777 0.0
C867 C 0.07906 0.80942 0.60564 0.0
C868 C 0.07057 0.78991 0.57917 0.0
C869 C 0.08273 0.78066 0.53618 0.0
C870 C 0.10965 0.83985 0.61543 0.0
C871 C 0.0485 0.77898 0.59587 0.0
C872 C 0.06067 0.82041 0.74836 0.0
C873 C 0.04578 0.8389 0.74301 0.0
C874 C 0.07152 0.81068 0.7042 0.0
C875 C 0.06685 0.81906 0.65276 0.0
C876 C 0.05108 0.83712 0.64679 0.0
C877 C 0.04098 0.84699 0.69194 0.0
C878 C 0.08844 0.79175 0.7128 0.0
C879 C 0.04512 0.84624 0.59271 0.0
H880 H 0.12664 0.81798 0.5298 0.0
H881 H 0.07626 0.76575 0.51591 0.0
H882 H 0.09756 0.85428 0.6139 0.0
H883 H 0.11262 0.83586 0.65781 0.0
H884 H 0.12598 0.84534 0.59741 0.0
H885 H 0.04377 0.76444 0.57006 0.0
H886 H 0.04982 0.77281 0.63725 0.0
H887 H 0.0346 0.7917 0.59479 0.0
H888 H 0.06406 0.8136 0.78741 0.0
H889 H 0.02968 0.86138 0.68726 0.0
H890 H 0.10531 0.79689 0.69717 0.0
H891 H 0.08311 0.77635 0.69075 0.0
H892 H 0.09033 0.78726 0.75529 0.0
H893 H 0.06027 0.85433 0.57464 0.0
H894 H 0.03121 0.85897 0.59433 0.0
H895 H 0.03986 0.83213 0.56624 0.0
C896 C 0.44449 0.77991 0.97115 0.0
C897 C 0.42274 0.78664 0.98713 0.0
C898 C 0.45518 0.79014 0.92727 0.0
C899 C 0.44363 0.80724 0.89822 0.0
C900 C 0.42135 0.8136 0.91365 0.0
C901 C 0.41127 0.80338 0.95823 0.0
C902 C 0.47902 0.78304 0.9128 0.0
C903 C 0.40824 0.8314 0.88337 0.0
C904 C 0.47686 0.85029 0.81542 0.0
C905 C 0.47482 0.84126 0.76429 0.0
C906 C 0.46725 0.83916 0.85946 0.0
C907 C 0.4549 0.81869 0.85214 0.0
C908 C 0.4529 0.80946 0.80054 0.0
C909 C 0.46309 0.8207 0.75745 0.0
C910 C 0.47014 0.84942 0.91381 0.0
C911 C 0.43969 0.78787 0.79067 0.0
H912 H 0.45338 0.76707 0.99392 0.0
H913 H 0.39446 0.80858 0.97088 0.0
H914 H 0.47955 0.777 0.87123 0.0
H915 H 0.4906 0.79789 0.91562 0.0
H916 H 0.48556 0.76934 0.93895 0.0
H917 H 0.39074 0.8337 0.89897 0.0
H918 H 0.41725 0.84794 0.88553 0.0
H919 H 0.40717 0.82662 0.84095 0.0
H920 H 0.48574 0.86626 0.82089 0.0
H921 H 0.46174 0.81346 0.71812 0.0
H922 H 0.47763 0.83673 0.94121 0.0
H923 H 0.45331 0.85426 0.93006 0.0
H924 H 0.4812 0.86473 0.91326 0.0
H925 H 0.44699 0.77373 0.81418 0.0
H926 H 0.43969 0.78293 0.74823 0.0
H927 H 0.42183 0.7901 0.8038 0.0
C928 C 0.6024 0.85832 0.77752 0.0
C929 C 0.6046 0.88018 0.75631 0.0
C930 C 0.61499 0.8518 0.82189 0.0
C931 C 0.6299 0.86765 0.84577 0.0
C932 C 0.6332 0.88929 0.82274 0.0
C933 C 0.62035 0.89536 0.77825 0.0
C934 C 0.61108 0.82849 0.84538 0.0
C935 C 0.64913 0.90651 0.84692 0.0
C936 C 0.635 0.85582 0.99176 0.0
C937 C 0.65411 0.84174 0.99251 0.0
C938 C 0.62779 0.86593 0.94449 0.0
C939 C 0.64025 0.86199 0.8974 0.0
C940 C 0.66084 0.84972 0.89917 0.0
C941 C 0.66755 0.8397 0.94687 0.0
C942 C 0.60588 0.87928 0.94417 0.0
C943 C 0.67474 0.84548 0.8499 0.0
H944 H 0.58968 0.84681 0.76201 0.0
H945 H 0.62186 0.91236 0.76202 0.0
H946 H 0.62752 0.81972 0.85196 0.0
H947 H 0.60262 0.83018 0.88445 0.0
H948 H 0.60029 0.81762 0.81963 0.0
H949 H 0.65268 0.92083 0.81947 0.0
H950 H 0.64139 0.91351 0.88349 0.0
H951 H 0.66546 0.89845 0.85827 0.0
H952 H 0.62514 0.85817 0.02754 0.0
H953 H 0.68255 0.82902 0.94742 0.0
H954 H 0.59257 0.86937 0.92326 0.0
H955 H 0.6081 0.89552 0.9225 0.0
H956 H 0.59975 0.88306 0.98483 0.0
H957 H 0.66615 0.83246 0.82522 0.0
H958 H 0.69209 0.83929 0.85948 0.0
H959 H 0.67618 0.86117 0.82577 0.0
C960 C 0.90941 0.86815 0.74543 0.0
C961 C 0.91662 0.89048 0.75474 0.0
C962 C 0.89599 0.8629 0.70145 0.0
C963 C 0.89049 0.88026 0.6648 0.0
C964 C 0.89567 0.90312 0.67666 0.0
C965 C 0.90852 0.90799 0.72196 0.0
C966 C 0.89008 0.83831 0.69105 0.0
C967 C 0.89001 0.92213 0.63882 0.0
C968 C 0.89562 0.85284 0.53191 0.0
C969 C 0.87298 0.84693 0.52179 0.0
C970 C 0.90127 0.86648 0.57526 0.0
C971 C 0.88393 0.87353 0.61047 0.0
C972 C 0.86092 0.86966 0.59759 0.0
C973 C 0.85569 0.85653 0.55293 0.0
C974 C 0.92607 0.87095 0.58675 0.0
C975 C 0.84192 0.87701 0.63386 0.0
H976 H 0.91587 0.85432 0.76908 0.0
H977 H 0.91383 0.92537 0.72919 0.0
H978 H 0.87237 0.83671 0.67651 0.0
H979 H 0.90153 0.83144 0.66001 0.0
H980 H 0.89199 0.82768 0.72714 0.0
H981 H 0.88923 0.93876 0.65955 0.0
H982 H 0.90345 0.92319 0.60812 0.0
H983 H 0.8736 0.91909 0.61842 0.0
H984 H 0.90924 0.84521 0.50949 0.0
H985 H 0.8381 0.85223 0.54502 0.0
H986 H 0.93188 0.85946 0.61887 0.0
H987 H 0.92864 0.88869 0.60029 0.0
H988 H 0.93691 0.86794 0.55142 0.0
H989 H 0.83972 0.86409 0.66545 0.0
H990 H 0.82559 0.87853 0.6121 0.0
H991 H 0.84579 0.89347 0.65324 0.0
C992 C 0.91025 0.09814 0.27318 0.0
C993 C 0.92461 0.11525 0.25386 0.0
C994 C 0.89615 0.10211 0.31689 0.0
C995 C 0.89691 0.12353 0.34209 0.0
C996 C 0.91027 0.1413 0.32051 0.0
C997 C 0.92398 0.13692 0.27651 0.0
C998 C 0.88176 0.08293 0.33815 0.0
C999 C 0.91149 0.16444 0.34637 0.0
C1000 C 0.85727 0.1467 0.44518 0.0
C1001 C 0.8711 0.14537 0.49034 0.0
C1002 C 0.86445 0.13754 0.39691 0.0
C1003 C 0.88595 0.127 0.39409 0.0
C1004 C 0.89872 0.1233 0.44084 0.0
C1005 C 0.89095 0.13237 0.48875 0.0
C1006 C 0.85007 0.14117 0.34815 0.0
C1007 C 0.92162 0.11175 0.43946 0.0
H1008 H 0.91087 0.08133 0.25566 0.0
H1009 H 0.93553 0.14997 0.26269 0.0
H1010 H 0.89032 0.07528 0.37297 0.0
H1011 H 0.86492 0.08921 0.35138 0.0
H1012 H 0.87919 0.06939 0.30809 0.0
H1013 H 0.9214 0.17681 0.32242 0.0
H1014 H 0.89418 0.17137 0.35256 0.0
H1015 H 0.91963 0.1629 0.38586 0.0
H1016 H 0.84163 0.15641 0.44637 0.0
H1017 H 0.9011 0.1304 0.52422 0.0
H1018 H 0.85039 0.12597 0.32221 0.0
H1019 H 0.85702 0.15565 0.3251 0.0
H1020 H 0.83215 0.14511 0.35851 0.0
H1021 H 0.92072 0.09578 0.41629 0.0
H1022 H 0.92802 0.10778 0.47979 0.0
H1023 H 0.9341 0.12306 0.41962 0.0
C1024 C 0.62896 0.08904 0.21412 0.0
C1025 C 0.61962 0.10723 0.24288 0.0
C1026 C 0.64148 0.0929 0.16776 0.0
C1027 C 0.645 0.11547 0.1507 0.0
C1028 C 0.63828 0.13384 0.18341 0.0
C1029 C 0.62528 0.1295 0.22856 0.0
C1030 C 0.64859 0.07283 0.13456 0.0
C1031 C 0.64239 0.15827 0.16751 0.0
C1032 C 0.67761 0.14012 0.03777 0.0
C1033 C 0.65941 0.14812 0.00699 0.0
C1034 C 0.67369 0.12644 0.0822 0.0
C1035 C 0.65114 0.12048 0.09514 0.0
C1036 C 0.63334 0.12519 0.05905 0.0
C1037 C 0.63761 0.13936 0.01574 0.0
C1038 C 0.69322 0.12122 0.1189 0.0
C1039 C 0.60912 0.11822 0.07035 0.0
H1040 H 0.62488 0.07172 0.22528 0.0
H1041 H 0.61788 0.14377 0.24905 0.0
H1042 H 0.63463 0.06849 0.1068 0.0
H1043 H 0.66399 0.07656 0.1108 0.0
H1044 H 0.65187 0.05769 0.15971 0.0
H1045 H 0.63931 0.17021 0.20082 0.0
H1046 H 0.66008 0.16064 0.15342 0.0
H1047 H 0.63079 0.16289 0.13457 0.0
H1048 H 0.69462 0.14647 0.03045 0.0
H1049 H 0.62333 0.14547 0.99293 0.0
H1050 H 0.69075 0.10476 0.1395 0.0
H1051 H 0.69436 0.13473 0.14945 0.0
H1052 H 0.70961 0.1208 0.09708 0.0
H1053 H 0.59833 0.11921 0.03431 0.0
H1054 H 0.6018 0.12971 0.10073 0.0
H1055 H 0.60842 0.10063 0.08607 0.0
C1056 C 0.98201 0.68257 0.73882 0.0
C1057 C 0.99125 0.66099 0.72903 0.0
C1058 C 0.97042 0.69466 0.69918 0.0
C1059 C 0.96817 0.68512 0.64799 0.0
C1060 C 0.97845 0.6638 0.63712 0.0
C1061 C 0.98973 0.65189 0.6779 0.0
C1062 C 0.95966 0.7172 0.71289 0.0
C1063 C 0.97674 0.65313 0.58296 0.0
C1064 C 0.91685 0.70217 0.56456 0.0
C1065 C 0.92623 0.71815 0.52983 0.0
C1066 C 0.93026 0.69151 0.60344 0.0
C1067 C 0.95375 0.69673 0.60719 0.0
C1068 C 0.96322 0.71313 0.5724 0.0
C1069 C 0.9493 0.72371 0.53424 0.0
C1070 C 0.91932 0.67445 0.64011 0.0
C1071 C 0.98814 0.7191 0.57469 0.0
H1072 H 0.98324 0.6897 0.77829 0.0
H1073 H 0.99651 0.63509 0.67034 0.0
H1074 H 0.96507 0.73044 0.6843 0.0
H1075 H 0.9409 0.71574 0.71004 0.0
H1076 H 0.96411 0.72292 0.7535 0.0
H1077 H 0.98741 0.63764 0.57941 0.0
H1078 H 0.95882 0.64842 0.57481 0.0
H1079 H 0.982 0.66547 0.55208 0.0
H1080 H 0.89904 0.69774 0.56067 0.0
H1081 H 0.95658 0.73587 0.50677 0.0
H1082 H 0.92207 0.67955 0.68193 0.0
H1083 H 0.92734 0.65756 0.63473 0.0
H1084 H 0.90076 0.67277 0.63306 0.0
H1085 H 0.99268 0.72519 0.61488 0.0
H1086 H 0.99282 0.73242 0.54547 0.0
H1087 H 0.99849 0.70371 0.56683 0.0
C1088 C 0.58489 0.71785 0.97329 0.0
C1089 C 0.60846 0.71638 0.9801 0.0
C1090 C 0.57402 0.70699 0.93054 0.0
C1091 C 0.58703 0.69415 0.89396 0.0
C1092 C 0.61096 0.69296 0.90044 0.0
C1093 C 0.62138 0.70408 0.9435 0.0
C1094 C 0.54855 0.70885 0.92519 0.0
C1095 C 0.62551 0.67949 0.86255 0.0
C1096 C 0.5579 0.64718 0.81418 0.0
C1097 C 0.55486 0.65764 0.76486 0.0
C1098 C 0.56811 0.65891 0.85665 0.0
C1099 C 0.57559 0.68164 0.84956 0.0
C1100 C 0.57232 0.69232 0.79984 0.0
C1101 C 0.56197 0.68021 0.75824 0.0
C1102 C 0.57117 0.64687 0.90892 0.0
C1103 C 0.57998 0.71647 0.79039 0.0
H1104 H 0.57492 0.72716 0.00213 0.0
H1105 H 0.63958 0.70271 0.94935 0.0
H1106 H 0.54405 0.7155 0.88545 0.0
H1107 H 0.54074 0.69176 0.92887 0.0
H1108 H 0.54099 0.72016 0.95569 0.0
H1109 H 0.6439 0.68084 0.87199 0.0
H1110 H 0.62052 0.66132 0.86386 0.0
H1111 H 0.62275 0.68551 0.82141 0.0
H1112 H 0.55269 0.62964 0.81922 0.0
H1113 H 0.55957 0.68837 0.72014 0.0
H1114 H 0.56288 0.65669 0.94104 0.0
H1115 H 0.58952 0.64577 0.91869 0.0
H1116 H 0.56395 0.62943 0.9085 0.0
H1117 H 0.5717 0.72801 0.81925 0.0
H1118 H 0.57595 0.72243 0.74972 0.0
H1119 H 0.59859 0.71782 0.79663 0.0
C1120 C 0.57692 0.2895 0.00916 0.0
C1121 C 0.5969 0.27763 0.02161 0.0
C1122 C 0.56376 0.29997 0.04869 0.0
C1123 C 0.57062 0.29851 0.10232 0.0
C1124 C 0.59024 0.28563 0.11539 0.0
C1125 C 0.60314 0.27534 0.07487 0.0
C1126 C 0.54297 0.31334 0.03276 0.0
C1127 C 0.59812 0.28349 0.17202 0.0
C1128 C 0.55418 0.34652 0.19627 0.0
C1129 C 0.53639 0.3368 0.22533 0.0
C1130 C 0.56519 0.33435 0.15579 0.0
C1131 C 0.55828 0.31182 0.14402 0.0
C1132 C 0.53979 0.30217 0.17229 0.0
C1133 C 0.52906 0.31481 0.21262 0.0
C1134 C 0.58462 0.34545 0.12651 0.0
C1135 C 0.5318 0.27828 0.16103 0.0
H1136 H 0.57177 0.29095 0.9681 0.0
H1137 H 0.61857 0.26622 0.08468 0.0
H1138 H 0.52801 0.30774 0.0561 0.0
H1139 H 0.5457 0.33162 0.04146 0.0
H1140 H 0.539 0.31151 0.98997 0.0
H1141 H 0.6126 0.27152 0.17617 0.0
H1142 H 0.60347 0.3004 0.18698 0.0
H1143 H 0.58396 0.27755 0.19752 0.0
H1144 H 0.55989 0.3635 0.20632 0.0
H1145 H 0.51544 0.30722 0.23552 0.0
H1146 H 0.58122 0.34536 0.0833 0.0
H1147 H 0.60047 0.33565 0.13315 0.0
H1148 H 0.58749 0.36327 0.13936 0.0
H1149 H 0.52788 0.27629 0.11832 0.0
H1150 H 0.51646 0.2737 0.18436 0.0
H1151 H 0.54554 0.26605 0.17063 0.0
C1152 C 0.90325 0.28867 0.43339 0.0
C1153 C 0.91397 0.27123 0.46162 0.0
C1154 C 0.91456 0.30021 0.39231 0.0
C1155 C 0.93724 0.29427 0.37937 0.0
C1156 C 0.9478 0.27601 0.40655 0.0
C1157 C 0.93599 0.26467 0.44731 0.0
C1158 C 0.90252 0.31934 0.3641 0.0
C1159 C 0.97191 0.26909 0.39418 0.0
C1160 C 0.96022 0.31475 0.24637 0.0
C1161 C 0.97186 0.33467 0.26053 0.0
C1162 C 0.94925 0.30125 0.28459 0.0
C1163 C 0.95003 0.30767 0.33859 0.0
C1164 C 0.96232 0.32746 0.35331 0.0
C1165 C 0.97303 0.34075 0.31409 0.0
C1166 C 0.9364 0.28037 0.26699 0.0
C1167 C 0.96373 0.33488 0.41041 0.0
H1168 H 0.88627 0.29385 0.4449 0.0
H1169 H 0.94437 0.25136 0.46969 0.0
H1170 H 0.91134 0.33563 0.37232 0.0
H1171 H 0.90304 0.3166 0.32066 0.0
H1172 H 0.8845 0.32098 0.37663 0.0
H1173 H 0.97717 0.25366 0.41637 0.0
H1174 H 0.97386 0.26579 0.35119 0.0
H1175 H 0.98365 0.28318 0.40449 0.0
H1176 H 0.95955 0.30979 0.20509 0.0
H1177 H 0.98185 0.3562 0.32518 0.0
H1178 H 0.91811 0.28231 0.27661 0.0
H1179 H 0.94263 0.2652 0.28863 0.0
H1180 H 0.93808 0.27723 0.22379 0.0
H1181 H 0.94649 0.33907 0.42526 0.0
H1182 H 0.97485 0.34997 0.41572 0.0
H1183 H 0.97036 0.32081 0.43524 0.0
C1184 C 0.11792 0.39767 0.28679 0.0
C1185 C 0.10305 0.38153 0.26522 0.0
C1186 C 0.13152 0.3923 0.33052 0.0
C1187 C 0.12979 0.37044 0.35328 0.0
C1188 C 0.11601 0.35361 0.32925 0.0
C1189 C 0.10274 0.35941 0.28543 0.0
C1190 C 0.14636 0.41051 0.35455 0.0
C1191 C 0.11379 0.33003 0.35243 0.0
C1192 C 0.16768 0.34457 0.45659 0.0
C1193 C 0.15347 0.34571 0.50114 0.0
C1194 C 0.16117 0.35447 0.40861 0.0
C1195 C 0.13999 0.36563 0.40549 0.0
C1196 C 0.12677 0.3689 0.45174 0.0
C1197 C 0.13383 0.35901 0.49934 0.0
C1198 C 0.17595 0.35116 0.36037 0.0
C1199 C 0.1042 0.38108 0.45 0.0
H1200 H 0.11804 0.41483 0.27113 0.0
H1201 H 0.09079 0.34709 0.26991 0.0
H1202 H 0.13779 0.41766 0.38994 0.0
H1203 H 0.16289 0.40341 0.36761 0.0
H1204 H 0.14957 0.42461 0.32625 0.0
H1205 H 0.10391 0.31845 0.32639 0.0
H1206 H 0.13081 0.32248 0.3592 0.0
H1207 H 0.1051 0.33101 0.39137 0.0
H1208 H 0.18313 0.33456 0.45802 0.0
H1209 H 0.1234 0.36078 0.53441 0.0
H1210 H 0.17642 0.36679 0.33582 0.0
H1211 H 0.16876 0.33733 0.33561 0.0
H1212 H 0.19361 0.34643 0.37132 0.0
H1213 H 0.10583 0.39747 0.42866 0.0
H1214 H 0.09736 0.38444 0.49025 0.0
H1215 H 0.09171 0.37053 0.42809 0.0
C1216 C 0.34985 0.35681 0.04113 0.0
C1217 C 0.36764 0.34874 0.00922 0.0
C1218 C 0.35432 0.37057 0.08514 0.0
C1219 C 0.37703 0.37652 0.09656 0.0
C1220 C 0.39441 0.37159 0.05954 0.0
C1221 C 0.38959 0.35735 0.01668 0.0
C1222 C 0.33523 0.37595 0.12296 0.0
C1223 C 0.41878 0.37849 0.06927 0.0
C1224 C 0.40005 0.40891 0.21335 0.0
C1225 C 0.40952 0.39098 0.24273 0.0
C1226 C 0.38734 0.40466 0.16748 0.0
C1227 C 0.38377 0.38196 0.15151 0.0
C1228 C 0.3908 0.36386 0.18466 0.0
C1229 C 0.40398 0.36858 0.2293 0.0
C1230 C 0.37998 0.42446 0.13365 0.0
C1231 C 0.38672 0.33929 0.16984 0.0
H1232 H 0.33273 0.35053 0.03489 0.0
H1233 H 0.40358 0.35112 0.9931 0.0
H1234 H 0.33459 0.36269 0.15418 0.0
H1235 H 0.33787 0.39259 0.14265 0.0
H1236 H 0.31856 0.37612 0.10232 0.0
H1237 H 0.42917 0.3773 0.03265 0.0
H1238 H 0.41973 0.39613 0.08455 0.0
H1239 H 0.42636 0.36707 0.09948 0.0
H1240 H 0.4041 0.42633 0.22375 0.0
H1241 H 0.41156 0.3545 0.25018 0.0
H1242 H 0.36427 0.42059 0.11112 0.0
H1243 H 0.39362 0.4284 0.10471 0.0
H1244 H 0.37709 0.43988 0.1581 0.0
H1245 H 0.36894 0.33674 0.15656 0.0
H1246 H 0.39012 0.32759 0.20345 0.0
H1247 H 0.3981 0.33453 0.1366 0.0
C1248 C 0.40665 0.66629 0.97489 0.0
C1249 C 0.38566 0.66181 0.9988 0.0
C1250 C 0.41355 0.65435 0.92993 0.0
C1251 C 0.39886 0.63786 0.90774 0.0
C1252 C 0.37779 0.63295 0.93207 0.0
C1253 C 0.37139 0.64508 0.97745 0.0
C1254 C 0.43623 0.66 0.90506 0.0
C1255 C 0.36172 0.61554 0.90915 0.0
C1256 C 0.41253 0.62898 0.76351 0.0
C1257 C 0.42771 0.61076 0.76682 0.0
C1258 C 0.40143 0.63699 0.80887 0.0
C1259 C 0.40567 0.62639 0.85823 0.0
C1260 C 0.41939 0.60674 0.86081 0.0
C1261 C 0.43021 0.5991 0.81491 0.0
C1262 C 0.38653 0.65778 0.80462 0.0
C1263 C 0.42428 0.59498 0.91273 0.0
H1264 H 0.41727 0.67993 0.98953 0.0
H1265 H 0.35497 0.64192 0.99549 0.0
H1266 H 0.44659 0.64437 0.90063 0.0
H1267 H 0.43358 0.66715 0.86488 0.0
H1268 H 0.44606 0.6725 0.9288 0.0
H1269 H 0.34686 0.6124 0.93529 0.0
H1270 H 0.35545 0.62149 0.87013 0.0
H1271 H 0.37068 0.59921 0.90242 0.0
H1272 H 0.40991 0.63745 0.72593 0.0
H1273 H 0.4418 0.58484 0.81756 0.0
H1274 H 0.39546 0.67257 0.82225 0.0
H1275 H 0.3705 0.65532 0.82702 0.0
H1276 H 0.38231 0.66192 0.76284 0.0
H1277 H 0.43601 0.60563 0.93656 0.0
H1278 H 0.43228 0.57807 0.90682 0.0
H1279 H 0.40847 0.59274 0.93606 0.0
C1280 C 0.11243 0.59578 0.69497 0.0
C1281 C 0.11578 0.60793 0.74212 0.0
C1282 C 0.1219 0.60335 0.64739 0.0
C1283 C 0.135 0.62346 0.64737 0.0
C1284 C 0.14059 0.63424 0.69578 0.0
C1285 C 0.13095 0.62622 0.74288 0.0
C1286 C 0.11589 0.5912 0.59663 0.0
C1287 C 0.15493 0.65551 0.69728 0.0
C1288 C 0.16432 0.64601 0.52491 0.0
C1289 C 0.14874 0.66256 0.50836 0.0
C1290 C 0.15973 0.63226 0.56891 0.0
C1291 C 0.13921 0.63546 0.59698 0.0
C1292 C 0.12296 0.6514 0.57887 0.0
C1293 C 0.12799 0.66485 0.53484 0.0
C1294 C 0.17732 0.61529 0.58694 0.0
C1295 C 0.1008 0.65523 0.60785 0.0
H1296 H 0.10094 0.58138 0.69427 0.0
H1297 H 0.13432 0.635 0.77973 0.0
H1298 H 0.10239 0.60082 0.57575 0.0
H1299 H 0.13078 0.59022 0.5698 0.0
H1300 H 0.10953 0.57371 0.60421 0.0
H1301 H 0.16049 0.65976 0.73813 0.0
H1302 H 0.17016 0.65362 0.67184 0.0
H1303 H 0.14489 0.67 0.68161 0.0
H1304 H 0.18048 0.64443 0.5046 0.0
H1305 H 0.11628 0.67817 0.52351 0.0
H1306 H 0.16925 0.59884 0.59735 0.0
H1307 H 0.18587 0.62177 0.62305 0.0
H1308 H 0.19046 0.61225 0.55617 0.0
H1309 H 0.09161 0.63891 0.61292 0.0
H1310 H 0.08949 0.66731 0.58671 0.0
H1311 H 0.10428 0.6621 0.64796 0.0
C1312 C 0.39243 0.16816 0.71686 0.0
C1313 C 0.41262 0.17409 0.74325 0.0
C1314 C 0.3931 0.15947 0.66545 0.0
C1315 C 0.41442 0.15608 0.64137 0.0
C1316 C 0.43464 0.15796 0.67167 0.0
C1317 C 0.4335 0.16726 0.72245 0.0
C1318 C 0.37113 0.15706 0.63516 0.0
C1319 C 0.45774 0.15312 0.64812 0.0
C1320 C 0.43127 0.13546 0.50837 0.0
C1321 C 0.44061 0.15578 0.48871 0.0
C1322 C 0.41944 0.13531 0.55627 0.0
C1323 C 0.41646 0.15603 0.5833 0.0
C1324 C 0.42154 0.17688 0.55778 0.0
C1325 C 0.4339 0.17651 0.51056 0.0
C1326 C 0.41349 0.11278 0.58121 0.0
C1327 C 0.41712 0.19948 0.58415 0.0
H1328 H 0.37608 0.1727 0.73357 0.0
H1329 H 0.44906 0.17111 0.74364 0.0
H1330 H 0.36643 0.17382 0.61823 0.0
H1331 H 0.37254 0.14473 0.60215 0.0
H1332 H 0.35713 0.15166 0.66188 0.0
H1333 H 0.47107 0.15172 0.67909 0.0
H1334 H 0.45743 0.13713 0.62491 0.0
H1335 H 0.46254 0.16714 0.62089 0.0
H1336 H 0.43553 0.11934 0.49011 0.0
H1337 H 0.44028 0.1923 0.49418 0.0
H1338 H 0.39893 0.11425 0.60888 0.0
H1339 H 0.42835 0.10649 0.60392 0.0
H1340 H 0.40938 0.09993 0.55044 0.0
H1341 H 0.4002 0.19959 0.60351 0.0
H1342 H 0.41793 0.21375 0.55539 0.0
H1343 H 0.43015 0.20247 0.61517 0.0
C1344 C 0.11321 0.13212 0.97638 0.0
C1345 C 0.10154 0.1523 0.98841 0.0
C1346 C 0.1278 0.13099 0.9327 0.0
C1347 C 0.13054 0.15047 0.90077 0.0
C1348 C 0.12164 0.17167 0.91779 0.0
C1349 C 0.10719 0.17231 0.96171 0.0
C1350 C 0.13797 0.10838 0.91767 0.0
C1351 C 0.1249 0.19315 0.88585 0.0
C1352 C 0.16165 0.16321 0.7761 0.0
C1353 C 0.14282 0.16475 0.74229 0.0
C1354 C 0.15897 0.15496 0.82776 0.0
C1355 C 0.13711 0.14813 0.84457 0.0
C1356 C 0.11944 0.14542 0.80694 0.0
C1357 C 0.12249 0.15405 0.75594 0.0
C1358 C 0.17856 0.15693 0.86596 0.0
C1359 C 0.09612 0.13706 0.82263 0.0
H1360 H 0.10954 0.11669 0.99826 0.0
H1361 H 0.09873 0.18807 0.97187 0.0
H1362 H 0.12546 0.09861 0.89396 0.0
H1363 H 0.15365 0.1104 0.89374 0.0
H1364 H 0.14197 0.09822 0.95356 0.0
H1365 H 0.1193 0.20851 0.90785 0.0
H1366 H 0.143 0.19532 0.87481 0.0
H1367 H 0.11487 0.19203 0.84871 0.0
H1368 H 0.17754 0.17128 0.7651 0.0
H1369 H 0.10813 0.15497 0.72907 0.0
H1370 H 0.17712 0.14446 0.89875 0.0
H1371 H 0.17873 0.17424 0.88333 0.0
H1372 H 0.19501 0.15436 0.84524 0.0
H1373 H 0.09741 0.12183 0.84826 0.0
H1374 H 0.08559 0.13274 0.78753 0.0
H1375 H 0.08722 0.15052 0.84539 0.0
C1376 C 0.10081 0.82608 0.04173 0.0
C1377 C 0.09485 0.84506 0.01156 0.0
C1378 C 0.11695 0.82803 0.08215 0.0
C1379 C 0.12718 0.84947 0.09206 0.0
C1380 C 0.12377 0.86761 0.05643 0.0
C1381 C 0.10754 0.86519 0.01639 0.0
C1382 C 0.12078 0.80792 0.11829 0.0
C1383 C 0.1351 0.89038 0.06402 0.0
C1384 C 0.12616 0.85314 0.23849 0.0
C1385 C 0.14696 0.84286 0.24981 0.0
C1386 C 0.12067 0.85896 0.18646 0.0
C1387 C 0.13635 0.85391 0.14553 0.0
C1388 C 0.15881 0.84745 0.15833 0.0
C1389 C 0.16397 0.84207 0.21101 0.0
C1390 C 0.09682 0.86696 0.17466 0.0
C1391 C 0.17632 0.84292 0.11606 0.0
H1392 H 0.09142 0.81034 0.03723 0.0
H1393 H 0.10351 0.87973 0.99173 0.0
H1394 H 0.13912 0.80576 0.12685 0.0
H1395 H 0.11193 0.81085 0.1565 0.0
H1396 H 0.11421 0.79187 0.10089 0.0
H1397 H 0.13752 0.89911 0.02543 0.0
H1398 H 0.12407 0.90131 0.08891 0.0
H1399 H 0.1518 0.88875 0.08399 0.0
H1400 H 0.11321 0.85396 0.26901 0.0
H1401 H 0.1802 0.83426 0.22007 0.0
H1402 H 0.08674 0.85262 0.15837 0.0
H1403 H 0.097 0.88071 0.14467 0.0
H1404 H 0.0881 0.87331 0.21077 0.0
H1405 H 0.17489 0.82498 0.10291 0.0
H1406 H 0.19378 0.84552 0.13163 0.0
H1407 H 0.17376 0.854 0.08102 0.0
C1408 C 0.4017 0.85008 0.26226 0.0
C1409 C 0.4213 0.83654 0.25874 0.0
C1410 C 0.3997 0.8667 0.30159 0.0
C1411 C 0.41768 0.86958 0.33788 0.0
C1412 C 0.43874 0.85842 0.32919 0.0
C1413 C 0.44029 0.84196 0.28944 0.0
C1414 C 0.37741 0.87907 0.30766 0.0
C1415 C 0.45875 0.86164 0.36599 0.0
C1416 C 0.42695 0.90595 0.4563 0.0
C1417 C 0.42538 0.88893 0.49495 0.0
C1418 C 0.42101 0.9012 0.40374 0.0
C1419 C 0.41326 0.87915 0.39098 0.0
C1420 C 0.40732 0.86379 0.43195 0.0
C1421 C 0.41371 0.86884 0.48386 0.0
C1422 C 0.42637 0.91847 0.36145 0.0
C1423 C 0.39784 0.84047 0.42022 0.0
H1424 H 0.38718 0.84649 0.23717 0.0
H1425 H 0.45568 0.83196 0.28585 0.0
H1426 H 0.36553 0.86841 0.33106 0.0
H1427 H 0.37951 0.89557 0.32836 0.0
H1428 H 0.36948 0.88213 0.26839 0.0
H1429 H 0.47456 0.854 0.34983 0.0
H1430 H 0.46185 0.87995 0.37335 0.0
H1431 H 0.45505 0.85347 0.40467 0.0
H1432 H 0.43577 0.92169 0.46523 0.0
H1433 H 0.4122 0.85593 0.51433 0.0
H1434 H 0.41516 0.91643 0.32645 0.0
H1435 H 0.44421 0.91623 0.34829 0.0
H1436 H 0.42462 0.93603 0.37706 0.0
H1437 H 0.38411 0.84149 0.39029 0.0
H1438 H 0.39099 0.83217 0.45638 0.0
H1439 H 0.41152 0.82953 0.4039 0.0
C1440 C 0.5288 0.83356 0.43394 0.0
C1441 C 0.5411 0.84059 0.47879 0.0
C1442 C 0.53947 0.82216 0.39165 0.0
C1443 C 0.56307 0.81749 0.39404 0.0
C1444 C 0.57552 0.82425 0.43945 0.0
C1445 C 0.56445 0.83572 0.48106 0.0
C1446 C 0.52549 0.81533 0.3441 0.0
C1447 C 0.60066 0.81951 0.44395 0.0
C1448 C 0.58846 0.77064 0.3077 0.0
C1449 C 0.59894 0.78305 0.26682 0.0
C1450 C 0.57649 0.78156 0.3487 0.0
C1451 C 0.57479 0.80558 0.34915 0.0
C1452 C 0.58484 0.8182 0.30741 0.0
C1453 C 0.59678 0.80683 0.2669 0.0
C1454 C 0.56605 0.76739 0.39221 0.0
C1455 C 0.58334 0.84379 0.30606 0.0
H1456 H 0.51079 0.83726 0.43138 0.0
H1457 H 0.57419 0.84101 0.51531 0.0
H1458 H 0.53224 0.82374 0.30806 0.0
H1459 H 0.52675 0.79673 0.33768 0.0
H1460 H 0.50728 0.81992 0.34853 0.0
H1461 H 0.60787 0.82554 0.4821 0.0
H1462 H 0.60384 0.80099 0.44038 0.0
H1463 H 0.60988 0.82797 0.41108 0.0
H1464 H 0.58992 0.75228 0.30829 0.0
H1465 H 0.60473 0.81665 0.23567 0.0
H1466 H 0.54763 0.77113 0.39561 0.0
H1467 H 0.57397 0.77179 0.43073 0.0
H1468 H 0.56821 0.74887 0.3853 0.0
H1469 H 0.56531 0.84923 0.30777 0.0
H1470 H 0.59124 0.8511 0.2699 0.0
H1471 H 0.59199 0.85103 0.34127 0.0
C1472 C 0.92698 0.77023 0.20192 0.0
C1473 C 0.91907 0.78293 0.24536 0.0
C1474 C 0.93838 0.78065 0.15924 0.0
C1475 C 0.94211 0.80445 0.1596 0.0
C1476 C 0.93434 0.81736 0.20344 0.0
C1477 C 0.92293 0.8065 0.24558 0.0
C1478 C 0.94628 0.76616 0.11348 0.0
C1479 C 0.93801 0.84273 0.20578 0.0
C1480 C 0.98929 0.82954 0.07319 0.0
C1481 C 0.97714 0.8385 0.03002 0.0
C1482 C 0.97818 0.81833 0.11517 0.0
C1483 C 0.95422 0.81584 0.11435 0.0
C1484 C 0.94187 0.8245 0.07055 0.0
C1485 C 0.95342 0.83571 0.02911 0.0
C1486 C 0.9921 0.80936 0.16083 0.0
C1487 C 0.91636 0.82215 0.06772 0.0
H1488 H 0.92411 0.75203 0.20095 0.0
H1489 H 0.91697 0.81657 0.2787 0.0
H1490 H 0.93761 0.7716 0.0766 0.0
H1491 H 0.9648 0.76844 0.10719 0.0
H1492 H 0.94279 0.74781 0.11993 0.0
H1493 H 0.93111 0.85035 0.24265 0.0
H1494 H 0.95644 0.8466 0.20339 0.0
H1495 H 0.92974 0.85099 0.17133 0.0
H1496 H 0.00759 0.83152 0.07464 0.0
H1497 H 0.94377 0.84249 0.99616 0.0
H1498 H 0.98914 0.79086 0.16569 0.0
H1499 H 0.98671 0.81772 0.19815 0.0
H1500 H 0.01059 0.8123 0.15524 0.0
H1501 H 0.91149 0.80397 0.07046 0.0
H1502 H 0.90925 0.82929 0.03053 0.0
H1503 H 0.90843 0.83101 0.1018 0.0
C1504 C 0.93595 0.22431 0.79683 0.0
C1505 C 0.92626 0.21074 0.75692 0.0
C1506 C 0.94815 0.21467 0.83924 0.0
C1507 C 0.95094 0.19078 0.84211 0.0
C1508 C 0.94163 0.177 0.80144 0.0
C1509 C 0.92941 0.18709 0.75954 0.0
C1510 C 0.95771 0.23007 0.88157 0.0
C1511 C 0.94429 0.1515 0.8026 0.0
C1512 C 0.99816 0.16626 0.92924 0.0
C1513 C 0.98619 0.15928 0.97462 0.0
C1514 C 0.98699 0.1766 0.88613 0.0
C1515 C 0.96319 0.1802 0.88813 0.0
C1516 C 0.95106 0.17354 0.93411 0.0
C1517 C 0.96264 0.16317 0.97658 0.0
C1518 C 0.00065 0.18341 0.83808 0.0
C1519 C 0.92573 0.17717 0.93827 0.0
H1520 H 0.93368 0.24258 0.79556 0.0
H1521 H 0.92206 0.17638 0.72912 0.0
H1522 H 0.95 0.22581 0.92042 0.0
H1523 H 0.9763 0.22742 0.88532 0.0
H1524 H 0.95451 0.24831 0.87311 0.0
H1525 H 0.93673 0.1432 0.76724 0.0
H1526 H 0.96256 0.14694 0.80472 0.0
H1527 H 0.936 0.14451 0.83856 0.0
H1528 H 0.01632 0.16338 0.92697 0.0
H1529 H 0.95313 0.15791 0.01123 0.0
H1530 H 0.99853 0.20184 0.83026 0.0
H1531 H 0.99431 0.17421 0.80269 0.0
H1532 H 0.01905 0.17974 0.84283 0.0
H1533 H 0.92167 0.19544 0.9329 0.0
H1534 H 0.91881 0.17149 0.977 0.0
H1535 H 0.91693 0.16771 0.90628 0.0
C1536 C 0.54146 0.16878 0.5559 0.0
C1537 C 0.55461 0.16029 0.5138 0.0
C1538 C 0.55155 0.17967 0.59968 0.0
C1539 C 0.57547 0.18233 0.60177 0.0
C1540 C 0.58883 0.17414 0.5591 0.0
C1541 C 0.5783 0.16321 0.51584 0.0
C1542 C 0.53658 0.18808 0.64409 0.0
C1543 C 0.61435 0.17671 0.5594 0.0
C1544 C 0.60058 0.22751 0.69377 0.0
C1545 C 0.60783 0.21455 0.73744 0.0
C1546 C 0.59003 0.21732 0.64966 0.0
C1547 C 0.58649 0.19349 0.64878 0.0
C1548 C 0.59352 0.18033 0.69292 0.0
C1549 C 0.60408 0.19097 0.73651 0.0
C1550 C 0.58288 0.23207 0.60367 0.0
C1551 C 0.58999 0.15493 0.69397 0.0
H1552 H 0.52317 0.16666 0.55511 0.0
H1553 H 0.5887 0.15678 0.48377 0.0
H1554 H 0.54136 0.17958 0.68169 0.0
H1555 H 0.5391 0.2066 0.64985 0.0
H1556 H 0.51827 0.18486 0.63642 0.0
H1557 H 0.62232 0.16989 0.52283 0.0
H1558 H 0.619 0.1949 0.56338 0.0
H1559 H 0.62161 0.16766 0.59403 0.0
H1560 H 0.60336 0.24572 0.69368 0.0
H1561 H 0.60956 0.18072 0.7698 0.0
H1562 H 0.56446 0.22989 0.59586 0.0
H1563 H 0.59206 0.22677 0.56734 0.0
H1564 H 0.58634 0.25037 0.61086 0.0
H1565 H 0.57168 0.15093 0.68921 0.0
H1566 H 0.59611 0.14712 0.73138 0.0
H1567 H 0.59909 0.14695 0.66031 0.0
C1568 C 0.93453 0.67742 0.01768 0.0
C1569 C 0.94084 0.65671 0.99504 0.0
C1570 C 0.92194 0.67771 0.06458 0.0
C1571 C 0.91617 0.65678 0.08897 0.0
C1572 C 0.9188 0.63623 0.06105 0.0
C1573 C 0.93091 0.63647 0.01354 0.0
C1574 C 0.91797 0.70018 0.0919 0.0
C1575 C 0.91209 0.61366 0.08472 0.0
C1576 C 0.93257 0.66622 0.22933 0.0
C1577 C 0.91175 0.67338 0.24982 0.0
C1578 C 0.9338 0.65742 0.17807 0.0
C1579 C 0.91375 0.65639 0.14698 0.0
C1580 C 0.89237 0.66014 0.17049 0.0
C1581 C 0.89158 0.6683 0.22238 0.0
C1582 C 0.95692 0.65221 0.15505 0.0
C1583 C 0.87055 0.65863 0.13932 0.0
H1584 H 0.9414 0.69318 0.00222 0.0
H1585 H 0.93487 0.62041 0.99463 0.0
H1586 H 0.90092 0.7006 0.1106 0.0
H1587 H 0.93084 0.70251 0.12358 0.0
H1588 H 0.9194 0.71468 0.0639 0.0
H1589 H 0.90792 0.60115 0.05322 0.0
H1590 H 0.9266 0.60682 0.10781 0.0
H1591 H 0.89735 0.61528 0.1118 0.0
H1592 H 0.94809 0.66943 0.25127 0.0
H1593 H 0.87526 0.67313 0.23876 0.0
H1594 H 0.96225 0.66634 0.12869 0.0
H1595 H 0.95635 0.63644 0.13104 0.0
H1596 H 0.97001 0.65018 0.18639 0.0
H1597 H 0.86643 0.67567 0.12311 0.0
H1598 H 0.85623 0.65337 0.16525 0.0
H1599 H 0.87184 0.64658 0.10572 0.0
C1600 C 0.627 0.65451 0.2596 0.0
C1601 C 0.60717 0.66763 0.25452 0.0
C1602 C 0.629 0.63829 0.29983 0.0
C1603 C 0.61073 0.63527 0.3353 0.0
C1604 C 0.58956 0.64599 0.32523 0.0
C1605 C 0.58805 0.66213 0.28473 0.0
C1606 C 0.65151 0.62651 0.30772 0.0
C1607 C 0.5693 0.64261 0.36117 0.0
C1608 C 0.60194 0.59818 0.45316 0.0
C1609 C 0.60294 0.615 0.49237 0.0
C1610 C 0.60771 0.60343 0.40076 0.0
C1611 C 0.61477 0.62579 0.38864 0.0
C1612 C 0.61995 0.6412 0.43004 0.0
C1613 C 0.6137 0.63564 0.48177 0.0
C1614 C 0.60296 0.58621 0.35797 0.0
C1615 C 0.62862 0.66489 0.41897 0.0
H1616 H 0.64166 0.65816 0.23503 0.0
H1617 H 0.57251 0.6718 0.28 0.0
H1618 H 0.66265 0.63739 0.3325 0.0
H1619 H 0.64951 0.60989 0.32792 0.0
H1620 H 0.66022 0.62382 0.26921 0.0
H1621 H 0.55347 0.64974 0.34391 0.0
H1622 H 0.56657 0.62429 0.36924 0.0
H1623 H 0.57247 0.65116 0.39964 0.0
H1624 H 0.59376 0.58206 0.46167 0.0
H1625 H 0.6147 0.64843 0.51262 0.0
H1626 H 0.61438 0.58858 0.32344 0.0
H1627 H 0.58518 0.58821 0.34412 0.0
H1628 H 0.60491 0.56862 0.37327 0.0
H1629 H 0.64243 0.6645 0.38914 0.0
H1630 H 0.6351 0.67326 0.4554 0.0
H1631 H 0.61459 0.6754 0.40277 0.0
C1632 C 0.59587 0.36457 0.51604 0.0
C1633 C 0.58684 0.34395 0.49728 0.0
C1634 C 0.60755 0.36533 0.56411 0.0
C1635 C 0.61068 0.34492 0.59235 0.0
C1636 C 0.60586 0.32376 0.5679 0.0
C1637 C 0.59366 0.32353 0.52046 0.0
C1638 C 0.61327 0.38817 0.58773 0.0
C1639 C 0.61042 0.30145 0.59552 0.0
C1640 C 0.63452 0.33265 0.7255 0.0
C1641 C 0.61426 0.3263 0.7511 0.0
C1642 C 0.63395 0.34192 0.67462 0.0
C1643 C 0.61267 0.34542 0.65043 0.0
C1644 C 0.59242 0.34348 0.68058 0.0
C1645 C 0.59345 0.33362 0.73082 0.0
C1646 C 0.65596 0.34462 0.64464 0.0
C1647 C 0.56938 0.34858 0.65705 0.0
H1648 H 0.59152 0.38046 0.4968 0.0
H1649 H 0.58751 0.30751 0.5048 0.0
H1650 H 0.59806 0.39497 0.60828 0.0
H1651 H 0.6273 0.38706 0.61692 0.0
H1652 H 0.61805 0.40047 0.55625 0.0
H1653 H 0.60965 0.28688 0.56759 0.0
H1654 H 0.62736 0.30162 0.61475 0.0
H1655 H 0.59744 0.29871 0.62679 0.0
H1656 H 0.65083 0.32788 0.74208 0.0
H1657 H 0.57783 0.32956 0.75156 0.0
H1658 H 0.65454 0.35724 0.6122 0.0
H1659 H 0.66072 0.32803 0.62698 0.0
H1660 H 0.66989 0.34983 0.67173 0.0
H1661 H 0.56985 0.3646 0.63396 0.0
H1662 H 0.55608 0.35006 0.68806 0.0
H1663 H 0.56445 0.33464 0.62974 0.0
C1664 C 0.92867 0.37562 0.95112 0.0
C1665 C 0.93225 0.35531 0.97924 0.0
C1666 C 0.92114 0.3751 0.89867 0.0
C1667 C 0.91665 0.35386 0.8751 0.0
C1668 C 0.91623 0.33387 0.90653 0.0
C1669 C 0.9243 0.33482 0.95846 0.0
C1670 C 0.92102 0.39691 0.86726 0.0
C1671 C 0.91023 0.31095 0.88346 0.0
C1672 C 0.89797 0.33549 0.74209 0.0
C1673 C 0.91808 0.3245 0.72644 0.0
C1674 C 0.89756 0.34875 0.78794 0.0
C1675 C 0.9178 0.35121 0.81717 0.0
C1676 C 0.93884 0.34442 0.79483 0.0
C1677 C 0.93872 0.33085 0.74945 0.0
C1678 C 0.87499 0.35678 0.80906 0.0
C1679 C 0.96106 0.3482 0.82338 0.0
H1680 H 0.93413 0.39173 0.96767 0.0
H1681 H 0.92636 0.31924 0.98088 0.0
H1682 H 0.93853 0.4006 0.85341 0.0
H1683 H 0.90976 0.39592 0.83213 0.0
H1684 H 0.91553 0.41137 0.89249 0.0
H1685 H 0.90745 0.29797 0.91476 0.0
H1686 H 0.89465 0.31211 0.85893 0.0
H1687 H 0.92429 0.30502 0.85761 0.0
H1688 H 0.88203 0.33152 0.72261 0.0
H1689 H 0.95443 0.32318 0.736 0.0
H1690 H 0.87688 0.37202 0.83451 0.0
H1691 H 0.86726 0.34306 0.83327 0.0
H1692 H 0.86309 0.36073 0.77617 0.0
H1693 H 0.96179 0.36555 0.84045 0.0
H1694 H 0.97586 0.34584 0.79662 0.0
H1695 H 0.96256 0.33584 0.85642 0.0
C1696 C 0.09616 0.30829 0.77228 0.0
C1697 C 0.09835 0.2845 0.77219 0.0
C1698 C 0.08442 0.31968 0.81309 0.0
C1699 C 0.07462 0.30709 0.8552 0.0
C1700 C 0.07643 0.28308 0.85488 0.0
C1701 C 0.08819 0.27212 0.81354 0.0
C1702 C 0.08283 0.34527 0.81158 0.0
C1703 C 0.06626 0.26893 0.89878 0.0
C1704 C 0.0643 0.33747 0.98698 0.0
C1705 C 0.04093 0.34227 0.98481 0.0
C1706 C 0.07539 0.32598 0.94538 0.0
C1707 C 0.06291 0.31905 0.90012 0.0
C1708 C 0.03929 0.32363 0.89786 0.0
C1709 C 0.02863 0.33513 0.94004 0.0
C1710 C 0.10055 0.32138 0.94972 0.0
C1711 C 0.02526 0.31661 0.85054 0.0
H1712 H 0.10387 0.3181 0.74073 0.0
H1713 H 0.08973 0.25377 0.81422 0.0
H1714 H 0.06478 0.35063 0.81323 0.0
H1715 H 0.09144 0.35258 0.84676 0.0
H1716 H 0.09071 0.35256 0.77538 0.0
H1717 H 0.06869 0.25042 0.89226 0.0
H1718 H 0.07415 0.2736 0.93716 0.0
H1719 H 0.04779 0.27242 0.90218 0.0
H1720 H 0.07406 0.34284 0.02115 0.0
H1721 H 0.01059 0.33871 0.93759 0.0
H1722 H 0.10967 0.32978 0.91661 0.0
H1723 H 0.10382 0.30287 0.94644 0.0
H1724 H 0.1078 0.32757 0.9877 0.0
H1725 H 0.03152 0.32547 0.81461 0.0
H1726 H 0.00695 0.32058 0.85569 0.0
H1727 H 0.02707 0.2981 0.84343 0.0
C1728 C 0.42064 0.30789 0.7365 0.0
C1729 C 0.41687 0.28431 0.73635 0.0
C1730 C 0.43149 0.31886 0.69368 0.0
C1731 C 0.43878 0.30604 0.64923 0.0
C1732 C 0.4351 0.28223 0.64892 0.0
C1733 C 0.42428 0.2717 0.69227 0.0
C1734 C 0.43514 0.34423 0.696 0.0
C1735 C 0.4425 0.26783 0.60256 0.0
C1736 C 0.44853 0.33711 0.51771 0.0
C1737 C 0.47227 0.33972 0.51683 0.0
C1738 C 0.43747 0.3261 0.56019 0.0
C1739 C 0.45034 0.3175 0.60325 0.0
C1740 C 0.4743 0.31993 0.6024 0.0
C1741 C 0.48492 0.33091 0.55939 0.0
C1742 C 0.41193 0.32382 0.55913 0.0
C1743 C 0.48877 0.31108 0.64726 0.0
H1744 H 0.41507 0.31788 0.77011 0.0
H1745 H 0.42149 0.2535 0.69134 0.0
H1746 H 0.45352 0.34814 0.69258 0.0
H1747 H 0.42648 0.35252 0.66211 0.0
H1748 H 0.42862 0.35178 0.73333 0.0
H1749 H 0.43878 0.2495 0.60867 0.0
H1750 H 0.43372 0.27356 0.56606 0.0
H1751 H 0.46102 0.26986 0.59577 0.0
H1752 H 0.4385 0.34379 0.48528 0.0
H1753 H 0.50324 0.33278 0.55951 0.0
H1754 H 0.40446 0.3326 0.59389 0.0
H1755 H 0.40706 0.30564 0.56194 0.0
H1756 H 0.40436 0.33108 0.52256 0.0
H1757 H 0.48364 0.31928 0.68496 0.0
H1758 H 0.50717 0.31427 0.64075 0.0
H1759 H 0.4861 0.29253 0.65203 0.0
C1760 C 0.46258 0.665 0.4891 0.0
C1761 C 0.48595 0.66036 0.48564 0.0
C1762 C 0.4512 0.67718 0.44898 0.0
C1763 C 0.46337 0.6849 0.40394 0.0
C1764 C 0.487 0.68052 0.4005 0.0
C1765 C 0.49796 0.6684 0.44125 0.0
C1766 C 0.42605 0.68157 0.45452 0.0
C1767 C 0.50069 0.68833 0.35331 0.0
C1768 C 0.42991 0.69662 0.27698 0.0
C1769 C 0.4277 0.72039 0.27778 0.0
C1770 C 0.44158 0.68493 0.3174 0.0
C1771 C 0.45132 0.69721 0.36005 0.0
C1772 C 0.4494 0.72121 0.36082 0.0
C1773 C 0.43768 0.73248 0.31982 0.0
C1774 C 0.44331 0.65936 0.31467 0.0
C1775 C 0.45953 0.73502 0.40532 0.0
H1776 H 0.45308 0.65895 0.52305 0.0
H1777 H 0.51598 0.66493 0.43779 0.0
H1778 H 0.42261 0.70007 0.45215 0.0
H1779 H 0.41676 0.67336 0.42141 0.0
H1780 H 0.41913 0.67501 0.4925 0.0
H1781 H 0.51898 0.68392 0.35692 0.0
H1782 H 0.49391 0.68044 0.31667 0.0
H1783 H 0.49916 0.70701 0.3486 0.0
H1784 H 0.42234 0.68702 0.24488 0.0
H1785 H 0.43615 0.75082 0.32111 0.0
H1786 H 0.43502 0.65169 0.34985 0.0
H1787 H 0.46141 0.65412 0.31534 0.0
H1788 H 0.43523 0.65232 0.27846 0.0
H1789 H 0.45186 0.72981 0.44358 0.0
H1790 H 0.45682 0.75356 0.39992 0.0
H1791 H 0.47805 0.73176 0.40813 0.0
C1792 C 0.10413 0.70075 0.2316 0.0
C1793 C 0.10748 0.72439 0.22979 0.0
C1794 C 0.09366 0.68904 0.18946 0.0
C1795 C 0.08634 0.70113 0.14399 0.0
C1796 C 0.08949 0.725 0.14204 0.0
C1797 C 0.09995 0.7363 0.18481 0.0
C1798 C 0.09052 0.66364 0.19354 0.0
C1799 C 0.08202 0.73862 0.09447 0.0
C1800 C 0.07812 0.66746 0.01562 0.0
C1801 C 0.05449 0.66404 0.01474 0.0
C1802 C 0.08864 0.67973 0.0569 0.0
C1803 C 0.07532 0.6888 0.09866 0.0
C1804 C 0.05145 0.68568 0.0976 0.0
C1805 C 0.04137 0.67345 0.05581 0.0
C1806 C 0.11411 0.68274 0.05618 0.0
C1807 C 0.03652 0.69497 0.14114 0.0
H1808 H 0.10983 0.6913 0.26595 0.0
H1809 H 0.10248 0.75453 0.18259 0.0
H1810 H 0.07226 0.65927 0.18964 0.0
H1811 H 0.09963 0.65508 0.16066 0.0
H1812 H 0.0969 0.65672 0.23167 0.0
H1813 H 0.0851 0.75712 0.09956 0.0
H1814 H 0.0913 0.73276 0.05877 0.0
H1815 H 0.06365 0.7359 0.08697 0.0
H1816 H 0.08849 0.66035 0.98428 0.0
H1817 H 0.02312 0.67098 0.05586 0.0
H1818 H 0.12168 0.67454 0.09158 0.0
H1819 H 0.11847 0.70106 0.058 0.0
H1820 H 0.12202 0.6753 0.0202 0.0
H1821 H 0.04148 0.68737 0.17964 0.0
H1822 H 0.01822 0.69144 0.13417 0.0
H1823 H 0.0389 0.71361 0.14459 0.0
loop_
_geom_bond_atom_site_label_1
_geom_bond_atom_site_label_2
_geom_bond_distance
_geom_bond_site_symmetry_2
_ccdc_geom_bond_type
Co0 O3 1.970 . S
Co0 N17 1.989 . S
Co0 O25 1.967 . S
Co0 O32 1.920 . S
Co1 O4 1.966 . S
Co1 N10 2.022 . S
Co1 N18 1.993 . S
Co1 O26 1.941 . S
C2 O3 1.258 . S
C2 O4 1.263 . S
O3 Co0 1.970 . S
O3 C2 1.258 . S
O4 Co1 1.966 . S
O4 C2 1.263 . S
C5 O6 1.235 . S
C5 O32 1.289 . S
O6 C5 1.235 . S
C7 C9 1.400 . S
C7 N10 1.351 . S
C7 C12 1.501 . S
C8 C9 1.387 . S
C8 N11 1.341 . S
C9 C7 1.400 . S
C9 C8 1.387 . S
N10 Co1 2.022 . S
N10 C7 1.351 . S
N10 N11 1.365 . S
N11 C8 1.341 . S
N11 N10 1.365 . S
N11 H31 0.862 . S
C12 C7 1.501 . S
C12 H13 0.961 . S
C12 H14 0.961 . S
C12 H15 0.960 . S
H13 C12 0.961 . S
H14 C12 0.961 . S
H15 C12 0.960 . S
C16 N17 1.342 . S
C16 C20 1.401 . S
C16 C21 1.499 . S
N17 Co0 1.989 . S
N17 C16 1.342 . S
N17 N18 1.388 . S
N18 Co1 1.993 . S
N18 N17 1.388 . S
N18 C19 1.346 . S
C19 N18 1.346 . S
C19 C20 1.396 . S
C19 C29 1.510 . S
C20 C16 1.401 . S
C20 C19 1.396 . S
C21 C16 1.499 . S
C21 H22 0.959 . S
C21 H23 0.960 . S
C21 H24 0.961 . S
H22 C21 0.959 . S
H23 C21 0.960 . S
H24 C21 0.961 . S
O25 Co0 1.967 . S
O25 C33 1.258 . S
O26 Co1 1.941 . S
O26 C33 1.266 . S
H27 C29 0.959 . S
H28 C29 0.961 . S
C29 C19 1.510 . S
C29 H27 0.959 . S
C29 H28 0.961 . S
C29 H30 0.960 . S
H30 C29 0.960 . S
H31 N11 0.862 . S
O32 Co0 1.920 . S
O32 C5 1.289 . S
C33 O25 1.258 . S
C33 O26 1.266 . S
Co34 O37 1.970 . S
Co34 N51 1.989 . S
Co34 O59 1.967 . S
Co34 O66 1.920 . S
Co35 O38 1.966 . S
Co35 N44 2.022 . S
Co35 N52 1.993 . S
Co35 O60 1.941 . S
C36 O37 1.258 . S
C36 O38 1.263 . S
O37 Co34 1.970 . S
O37 C36 1.258 . S
O38 Co35 1.966 . S
O38 C36 1.263 . S
C39 O40 1.235 . S
C39 O66 1.289 . S
O40 C39 1.235 . S
C41 C43 1.400 . S
C41 N44 1.351 . S
C41 C46 1.501 . S
C42 C43 1.387 . S
C42 N45 1.341 . S
C43 C41 1.400 . S
C43 C42 1.387 . S
N44 Co35 2.022 . S
N44 C41 1.351 . S
N44 N45 1.365 . S
N45 C42 1.341 . S
N45 N44 1.365 . S
N45 H65 0.862 . S
C46 C41 1.501 . S
C46 H47 0.961 . S
C46 H48 0.961 . S
C46 H49 0.960 . S
H47 C46 0.961 . S
H48 C46 0.961 . S
H49 C46 0.960 . S
C50 N51 1.342 . S
C50 C54 1.401 . S
C50 C55 1.499 . S
N51 Co34 1.989 . S
N51 C50 1.342 . S
N51 N52 1.388 . S
N52 Co35 1.993 . S
N52 N51 1.388 . S
N52 C53 1.346 . S
C53 N52 1.346 . S
C53 C54 1.396 . S
C53 C63 1.510 . S
C54 C50 1.401 . S
C54 C53 1.396 . S
C55 C50 1.499 . S
C55 H56 0.959 . S
C55 H57 0.960 . S
C55 H58 0.961 . S
H56 C55 0.959 . S
H57 C55 0.960 . S
H58 C55 0.961 . S
O59 Co34 1.967 . S
O59 C67 1.258 . S
O60 Co35 1.941 . S
O60 C67 1.266 . S
H61 C63 0.959 . S
H62 C63 0.961 . S
C63 C53 1.510 . S
C63 H61 0.959 . S
C63 H62 0.961 . S
C63 H64 0.960 . S
H64 C63 0.960 . S
H65 N45 0.862 . S
O66 Co34 1.920 . S
O66 C39 1.289 . S
C67 O59 1.258 . S
C67 O60 1.266 . S
Co68 O71 1.970 . S
Co68 N85 1.989 . S
Co68 O93 1.967 . S
Co68 O100 1.920 . S
Co69 O72 1.966 . S
Co69 N78 2.022 . S
Co69 N86 1.993 1_655 S
Co69 O94 1.941 . S
C70 O71 1.258 1_655 S
C70 O72 1.263 . S
O71 Co68 1.970 . S
O71 C70 1.258 1_455 S
O72 Co69 1.966 . S
O72 C70 1.263 . S
C73 O74 1.235 1_554 S
C73 O100 1.289 1_554 S
O74 C73 1.235 1_556 S
C75 C77 1.400 . S
C75 N78 1.351 . S
C75 C80 1.501 . S
C76 C77 1.387 . S
C76 N79 1.341 . S
C77 C75 1.400 . S
C77 C76 1.387 . S
N78 Co69 2.022 . S
N78 C75 1.351 . S
N78 N79 1.365 . S
N79 C76 1.341 . S
N79 N78 1.365 . S
N79 H99 0.862 . S
C80 C75 1.501 . S
C80 H81 0.961 . S
C80 H82 0.961 . S
C80 H83 0.960 . S
H81 C80 0.961 . S
H82 C80 0.961 . S
H83 C80 0.960 . S
C84 N85 1.342 . S
C84 C88 1.401 . S
C84 C89 1.499 . S
N85 Co68 1.989 . S
N85 C84 1.342 . S
N85 N86 1.388 . S
N86 Co69 1.993 1_455 S
N86 N85 1.388 . S
N86 C87 1.346 . S
C87 N86 1.346 . S
C87 C88 1.396 . S
C87 C97 1.510 . S
C88 C84 1.401 . S
C88 C87 1.396 . S
C89 C84 1.499 . S
C89 H90 0.959 . S
C89 H91 0.960 . S
C89 H92 0.961 . S
H90 C89 0.959 . S
H91 C89 0.960 . S
H92 C89 0.961 . S
O93 Co68 1.967 . S
O93 C101 1.258 . S
O94 Co69 1.941 . S
O94 C101 1.266 1_655 S
H95 C97 0.959 . S
H96 C97 0.961 . S
C97 C87 1.510 . S
C97 H95 0.959 . S
C97 H96 0.961 . S
C97 H98 0.960 . S
H98 C97 0.960 . S
H99 N79 0.862 . S
O100 Co68 1.920 . S
O100 C73 1.289 1_556 S
C101 O93 1.258 . S
C101 O94 1.266 1_455 S
Co102 O105 1.970 . S
Co102 N119 1.989 . S
Co102 O127 1.967 . S
Co102 O134 1.920 . S
Co103 O106 1.966 . S
Co103 N112 2.022 . S
Co103 N120 1.993 . S
Co103 O128 1.941 . S
C104 O105 1.258 . S
C104 O106 1.263 . S
O105 Co102 1.970 . S
O105 C104 1.258 . S
O106 Co103 1.966 . S
O106 C104 1.263 . S
C107 O108 1.235 . S
C107 O134 1.289 . S
O108 C107 1.235 . S
C109 C111 1.400 1_554 S
C109 N112 1.351 . S
C109 C114 1.501 . S
C110 C111 1.387 . S
C110 N113 1.341 . S
C111 C109 1.400 1_556 S
C111 C110 1.387 . S
N112 Co103 2.022 . S
N112 C109 1.351 . S
N112 N113 1.365 1_554 S
N113 C110 1.341 . S
N113 N112 1.365 1_556 S
N113 H133 0.862 . S
C114 C109 1.501 . S
C114 H115 0.961 . S
C114 H116 0.961 . S
C114 H117 0.960 . S
H115 C114 0.961 . S
H116 C114 0.961 . S
H117 C114 0.960 . S
C118 N119 1.342 . S
C118 C122 1.401 . S
C118 C123 1.499 . S
N119 Co102 1.989 . S
N119 C118 1.342 . S
N119 N120 1.388 . S
N120 Co103 1.993 . S
N120 N119 1.388 . S
N120 C121 1.346 . S
C121 N120 1.346 . S
C121 C122 1.396 . S
C121 C131 1.510 1_554 S
C122 C118 1.401 . S
C122 C121 1.396 . S
C123 C118 1.499 . S
C123 H124 0.959 . S
C123 H125 0.960 . S
C123 H126 0.961 . S
H124 C123 0.959 . S
H125 C123 0.960 . S
H126 C123 0.961 . S
O127 Co102 1.967 . S
O127 C135 1.258 . S
O128 Co103 1.941 . S
O128 C135 1.266 . S
H129 C131 0.959 . S
H130 C131 0.961 . S
C131 C121 1.510 1_556 S
C131 H129 0.959 . S
C131 H130 0.961 . S
C131 H132 0.960 . S
H132 C131 0.960 . S
H133 N113 0.862 . S
O134 Co102 1.920 . S
O134 C107 1.289 . S
C135 O127 1.258 . S
C135 O128 1.266 . S
Co136 O139 1.970 . S
Co136 N153 1.989 . S
Co136 O161 1.967 . S
Co136 O168 1.920 . S
Co137 O140 1.966 . S
Co137 N146 2.022 . S
Co137 N154 1.993 . S
Co137 O162 1.941 . S
C138 O139 1.258 . S
C138 O140 1.263 . S
O139 Co136 1.970 . S
O139 C138 1.258 . S
O140 Co137 1.966 . S
O140 C138 1.263 . S
C141 O142 1.235 . S
C141 O168 1.289 . S
O142 C141 1.235 . S
C143 C145 1.400 . S
C143 N146 1.351 . S
C143 C148 1.501 . S
C144 C145 1.387 . S
C144 N147 1.341 . S
C145 C143 1.400 . S
C145 C144 1.387 . S
N146 Co137 2.022 . S
N146 C143 1.351 . S
N146 N147 1.365 . S
N147 C144 1.341 . S
N147 N146 1.365 . S
N147 H167 0.862 . S
C148 C143 1.501 . S
C148 H149 0.961 . S
C148 H150 0.961 . S
C148 H151 0.960 . S
H149 C148 0.961 . S
H150 C148 0.961 . S
H151 C148 0.960 . S
C152 N153 1.342 . S
C152 C156 1.401 . S
C152 C157 1.499 . S
N153 Co136 1.989 . S
N153 C152 1.342 . S
N153 N154 1.388 . S
N154 Co137 1.993 . S
N154 N153 1.388 . S
N154 C155 1.346 . S
C155 N154 1.346 . S
C155 C156 1.396 . S
C155 C165 1.510 . S
C156 C152 1.401 . S
C156 C155 1.396 . S
C157 C152 1.499 . S
C157 H158 0.959 . S
C157 H159 0.960 . S
C157 H160 0.961 . S
H158 C157 0.959 . S
H159 C157 0.960 . S
H160 C157 0.961 . S
O161 Co136 1.967 . S
O161 C169 1.258 . S
O162 Co137 1.941 . S
O162 C169 1.266 . S
H163 C165 0.959 . S
H164 C165 0.961 . S
C165 C155 1.510 . S
C165 H163 0.959 . S
C165 H164 0.961 . S
C165 H166 0.960 . S
H166 C165 0.960 . S
H167 N147 0.862 . S
O168 Co136 1.920 . S
O168 C141 1.289 . S
C169 O161 1.258 . S
C169 O162 1.266 . S
Co170 O173 1.970 . S
Co170 N187 1.989 . S
Co170 O195 1.967 . S
Co170 O202 1.920 . S
Co171 O174 1.966 . S
Co171 N180 2.022 . S
Co171 N188 1.993 . S
Co171 O196 1.941 . S
C172 O173 1.258 . S
C172 O174 1.263 . S
O173 Co170 1.970 . S
O173 C172 1.258 . S
O174 Co171 1.966 . S
O174 C172 1.263 . S
C175 O176 1.235 . S
C175 O202 1.289 . S
O176 C175 1.235 . S
C177 C179 1.400 1_556 S
C177 N180 1.351 . S
C177 C182 1.501 . S
C178 C179 1.387 . S
C178 N181 1.341 . S
C179 C177 1.400 1_554 S
C179 C178 1.387 . S
N180 Co171 2.022 . S
N180 C177 1.351 . S
N180 N181 1.365 1_556 S
N181 C178 1.341 . S
N181 N180 1.365 1_554 S
N181 H201 0.862 . S
C182 C177 1.501 . S
C182 H183 0.961 . S
C182 H184 0.961 . S
C182 H185 0.960 . S
H183 C182 0.961 . S
H184 C182 0.961 . S
H185 C182 0.960 . S
C186 N187 1.342 . S
C186 C190 1.401 . S
C186 C191 1.499 . S
N187 Co170 1.989 . S
N187 C186 1.342 . S
N187 N188 1.388 . S
N188 Co171 1.993 . S
N188 N187 1.388 . S
N188 C189 1.346 . S
C189 N188 1.346 . S
C189 C190 1.396 . S
C189 C199 1.510 1_556 S
C190 C186 1.401 . S
C190 C189 1.396 . S
C191 C186 1.499 . S
C191 H192 0.959 . S
C191 H193 0.960 . S
C191 H194 0.961 . S
H192 C191 0.959 . S
H193 C191 0.960 . S
H194 C191 0.961 . S
O195 Co170 1.967 . S
O195 C203 1.258 . S
O196 Co171 1.941 . S
O196 C203 1.266 . S
H197 C199 0.959 . S
H198 C199 0.961 . S
C199 C189 1.510 1_554 S
C199 H197 0.959 . S
C199 H198 0.961 . S
C199 H200 0.960 . S
H200 C199 0.960 . S
H201 N181 0.862 . S
O202 Co170 1.920 . S
O202 C175 1.289 . S
C203 O195 1.258 . S
C203 O196 1.266 . S
Co204 O207 1.970 . S
Co204 N221 1.989 . S
Co204 O229 1.967 . S
Co204 O236 1.920 . S
Co205 O208 1.966 . S
Co205 N214 2.022 . S
Co205 N222 1.993 1_655 S
Co205 O230 1.941 . S
C206 O207 1.258 1_655 S
C206 O208 1.263 . S
O207 Co204 1.970 . S
O207 C206 1.258 1_455 S
O208 Co205 1.966 . S
O208 C206 1.263 . S
C209 O210 1.235 1_556 S
C209 O236 1.289 1_556 S
O210 C209 1.235 1_554 S
C211 C213 1.400 . S
C211 N214 1.351 . S
C211 C216 1.501 . S
C212 C213 1.387 . S
C212 N215 1.341 . S
C213 C211 1.400 . S
C213 C212 1.387 . S
N214 Co205 2.022 . S
N214 C211 1.351 . S
N214 N215 1.365 . S
N215 C212 1.341 . S
N215 N214 1.365 . S
N215 H235 0.862 . S
C216 C211 1.501 . S
C216 H217 0.961 . S
C216 H218 0.961 . S
C216 H219 0.960 . S
H217 C216 0.961 . S
H218 C216 0.961 . S
H219 C216 0.960 . S
C220 N221 1.342 . S
C220 C224 1.401 . S
C220 C225 1.499 . S
N221 Co204 1.989 . S
N221 C220 1.342 . S
N221 N222 1.388 . S
N222 Co205 1.993 1_455 S
N222 N221 1.388 . S
N222 C223 1.346 . S
C223 N222 1.346 . S
C223 C224 1.396 . S
C223 C233 1.510 . S
C224 C220 1.401 . S
C224 C223 1.396 . S
C225 C220 1.499 . S
C225 H226 0.959 . S
C225 H227 0.960 . S
C225 H228 0.961 . S
H226 C225 0.959 . S
H227 C225 0.960 . S
H228 C225 0.961 . S
O229 Co204 1.967 . S
O229 C237 1.258 . S
O230 Co205 1.941 . S
O230 C237 1.266 1_655 S
H231 C233 0.959 . S
H232 C233 0.961 . S
C233 C223 1.510 . S
C233 H231 0.959 . S
C233 H232 0.961 . S
C233 H234 0.960 . S
H234 C233 0.960 . S
H235 N215 0.862 . S
O236 Co204 1.920 . S
O236 C209 1.289 1_554 S
C237 O229 1.258 . S
C237 O230 1.266 1_455 S
Co238 O241 1.970 . S
Co238 N255 1.989 . S
Co238 O263 1.967 . S
Co238 O270 1.920 . S
Co239 O242 1.966 . S
Co239 N248 2.022 . S
Co239 N256 1.993 . S
Co239 O264 1.941 . S
C240 O241 1.258 . S
C240 O242 1.263 . S
O241 Co238 1.970 . S
O241 C240 1.258 . S
O242 Co239 1.966 . S
O242 C240 1.263 . S
C243 O244 1.235 . S
C243 O270 1.289 . S
O244 C243 1.235 . S
C245 C247 1.400 . S
C245 N248 1.351 . S
C245 C250 1.501 . S
C246 C247 1.387 . S
C246 N249 1.341 . S
C247 C245 1.400 . S
C247 C246 1.387 . S
N248 Co239 2.022 . S
N248 C245 1.351 . S
N248 N249 1.365 . S
N249 C246 1.341 . S
N249 N248 1.365 . S
N249 H269 0.862 . S
C250 C245 1.501 . S
C250 H251 0.961 . S
C250 H252 0.961 . S
C250 H253 0.960 . S
H251 C250 0.961 . S
H252 C250 0.961 . S
H253 C250 0.960 . S
C254 N255 1.342 . S
C254 C258 1.401 . S
C254 C259 1.499 . S
N255 Co238 1.989 . S
N255 C254 1.342 . S
N255 N256 1.388 . S
N256 Co239 1.993 . S
N256 N255 1.388 . S
N256 C257 1.346 . S
C257 N256 1.346 . S
C257 C258 1.396 . S
C257 C267 1.510 . S
C258 C254 1.401 . S
C258 C257 1.396 . S
C259 C254 1.499 . S
C259 H260 0.959 . S
C259 H261 0.960 . S
C259 H262 0.961 . S
H260 C259 0.959 . S
H261 C259 0.960 . S
H262 C259 0.961 . S
O263 Co238 1.967 . S
O263 C271 1.258 . S
O264 Co239 1.941 . S
O264 C271 1.266 . S
H265 C267 0.959 . S
H266 C267 0.961 . S
C267 C257 1.510 . S
C267 H265 0.959 . S
C267 H266 0.961 . S
C267 H268 0.960 . S
H268 C267 0.960 . S
H269 N249 0.862 . S
O270 Co238 1.920 . S
O270 C243 1.289 . S
C271 O263 1.258 . S
C271 O264 1.266 . S
Co272 O275 1.970 . S
Co272 N289 1.989 . S
Co272 O297 1.967 . S
Co272 O304 1.920 . S
Co273 O276 1.966 . S
Co273 N282 2.022 . S
Co273 N290 1.993 . S
Co273 O298 1.941 . S
C274 O275 1.258 . S
C274 O276 1.263 . S
O275 Co272 1.970 . S
O275 C274 1.258 . S
O276 Co273 1.966 . S
O276 C274 1.263 . S
C277 O278 1.235 . S
C277 O304 1.289 . S
O278 C277 1.235 . S
C279 C281 1.400 . S
C279 N282 1.351 . S
C279 C284 1.501 . S
C280 C281 1.387 . S
C280 N283 1.341 . S
C281 C279 1.400 . S
C281 C280 1.387 . S
N282 Co273 2.022 . S
N282 C279 1.351 . S
N282 N283 1.365 . S
N283 C280 1.341 . S
N283 N282 1.365 . S
N283 H303 0.862 . S
C284 C279 1.501 . S
C284 H285 0.961 . S
C284 H286 0.961 . S
C284 H287 0.960 . S
H285 C284 0.961 . S
H286 C284 0.961 . S
H287 C284 0.960 . S
C288 N289 1.342 . S
C288 C292 1.401 . S
C288 C293 1.499 . S
N289 Co272 1.989 . S
N289 C288 1.342 . S
N289 N290 1.388 . S
N290 Co273 1.993 . S
N290 N289 1.388 . S
N290 C291 1.346 . S
C291 N290 1.346 . S
C291 C292 1.396 . S
C291 C301 1.510 . S
C292 C288 1.401 . S
C292 C291 1.396 . S
C293 C288 1.499 . S
C293 H294 0.959 . S
C293 H295 0.960 . S
C293 H296 0.961 . S
H294 C293 0.959 . S
H295 C293 0.960 . S
H296 C293 0.961 . S
O297 Co272 1.967 . S
O297 C305 1.258 . S
O298 Co273 1.941 . S
O298 C305 1.266 . S
H299 C301 0.959 . S
H300 C301 0.961 . S
C301 C291 1.510 . S
C301 H299 0.959 . S
C301 H300 0.961 . S
C301 H302 0.960 . S
H302 C301 0.960 . S
H303 N283 0.862 . S
O304 Co272 1.920 . S
O304 C277 1.289 . S
C305 O297 1.258 . S
C305 O298 1.266 . S
Co306 O309 1.970 . S
Co306 N323 1.989 . S
Co306 O331 1.967 . S
Co306 O338 1.920 . S
Co307 O310 1.966 . S
Co307 N316 2.022 . S
Co307 N324 1.993 . S
Co307 O332 1.941 . S
C308 O309 1.258 . S
C308 O310 1.263 . S
O309 Co306 1.970 . S
O309 C308 1.258 . S
O310 Co307 1.966 . S
O310 C308 1.263 . S
C311 O312 1.235 . S
C311 O338 1.289 . S
O312 C311 1.235 . S
C313 C315 1.400 1_556 S
C313 N316 1.351 . S
C313 C318 1.501 . S
C314 C315 1.387 . S
C314 N317 1.341 . S
C315 C313 1.400 1_554 S
C315 C314 1.387 . S
N316 Co307 2.022 . S
N316 C313 1.351 . S
N316 N317 1.365 1_556 S
N317 C314 1.341 . S
N317 N316 1.365 1_554 S
N317 H337 0.862 . S
C318 C313 1.501 . S
C318 H319 0.961 . S
C318 H320 0.961 . S
C318 H321 0.960 . S
H319 C318 0.961 . S
H320 C318 0.961 . S
H321 C318 0.960 . S
C322 N323 1.342 . S
C322 C326 1.401 . S
C322 C327 1.499 . S
N323 Co306 1.989 . S
N323 C322 1.342 . S
N323 N324 1.388 . S
N324 Co307 1.993 . S
N324 N323 1.388 . S
N324 C325 1.346 . S
C325 N324 1.346 . S
C325 C326 1.396 . S
C325 C335 1.510 1_556 S
C326 C322 1.401 . S
C326 C325 1.396 . S
C327 C322 1.499 . S
C327 H328 0.959 . S
C327 H329 0.960 . S
C327 H330 0.961 . S
H328 C327 0.959 . S
H329 C327 0.960 . S
H330 C327 0.961 . S
O331 Co306 1.967 . S
O331 C339 1.258 . S
O332 Co307 1.941 . S
O332 C339 1.266 . S
H333 C335 0.959 . S
H334 C335 0.961 . S
C335 C325 1.510 1_554 S
C335 H333 0.959 . S
C335 H334 0.961 . S
C335 H336 0.960 . S
H336 C335 0.960 . S
H337 N317 0.862 . S
O338 Co306 1.920 . S
O338 C311 1.289 . S
C339 O331 1.258 . S
C339 O332 1.266 . S
Co340 O343 1.970 . S
Co340 N357 1.989 . S
Co340 O365 1.967 . S
Co340 O372 1.920 . S
Co341 O344 1.966 . S
Co341 N350 2.022 . S
Co341 N358 1.993 . S
Co341 O366 1.941 . S
C342 O343 1.258 . S
C342 O344 1.263 . S
O343 Co340 1.970 . S
O343 C342 1.258 . S
O344 Co341 1.966 . S
O344 C342 1.263 . S
C345 O346 1.235 . S
C345 O372 1.289 . S
O346 C345 1.235 . S
C347 C349 1.400 1_554 S
C347 N350 1.351 . S
C347 C352 1.501 . S
C348 C349 1.387 . S
C348 N351 1.341 . S
C349 C347 1.400 1_556 S
C349 C348 1.387 . S
N350 Co341 2.022 . S
N350 C347 1.351 . S
N350 N351 1.365 1_554 S
N351 C348 1.341 . S
N351 N350 1.365 1_556 S
N351 H371 0.862 . S
C352 C347 1.501 . S
C352 H353 0.961 . S
C352 H354 0.961 . S
C352 H355 0.960 . S
H353 C352 0.961 . S
H354 C352 0.961 . S
H355 C352 0.960 . S
C356 N357 1.342 . S
C356 C360 1.401 . S
C356 C361 1.499 . S
N357 Co340 1.989 . S
N357 C356 1.342 . S
N357 N358 1.388 . S
N358 Co341 1.993 . S
N358 N357 1.388 . S
N358 C359 1.346 . S
C359 N358 1.346 . S
C359 C360 1.396 . S
C359 C369 1.510 1_554 S
C360 C356 1.401 . S
C360 C359 1.396 . S
C361 C356 1.499 . S
C361 H362 0.959 . S
C361 H363 0.960 . S
C361 H364 0.961 . S
H362 C361 0.959 . S
H363 C361 0.960 . S
H364 C361 0.961 . S
O365 Co340 1.967 . S
O365 C373 1.258 . S
O366 Co341 1.941 . S
O366 C373 1.266 . S
H367 C369 0.959 . S
H368 C369 0.961 . S
C369 C359 1.510 1_556 S
C369 H367 0.959 . S
C369 H368 0.961 . S
C369 H370 0.960 . S
H370 C369 0.960 . S
H371 N351 0.862 . S
O372 Co340 1.920 . S
O372 C345 1.289 . S
C373 O365 1.258 . S
C373 O366 1.266 . S
Co374 O377 1.970 . S
Co374 N391 1.989 . S
Co374 O399 1.967 . S
Co374 O406 1.920 . S
Co375 O378 1.966 . S
Co375 N384 2.022 . S
Co375 N392 1.993 . S
Co375 O400 1.941 . S
C376 O377 1.258 . S
C376 O378 1.263 . S
O377 Co374 1.970 . S
O377 C376 1.258 . S
O378 Co375 1.966 . S
O378 C376 1.263 . S
C379 O380 1.235 . S
C379 O406 1.289 . S
O380 C379 1.235 . S
C381 C383 1.400 . S
C381 N384 1.351 . S
C381 C386 1.501 . S
C382 C383 1.387 . S
C382 N385 1.341 . S
C383 C381 1.400 . S
C383 C382 1.387 . S
N384 Co375 2.022 . S
N384 C381 1.351 . S
N384 N385 1.365 . S
N385 C382 1.341 . S
N385 N384 1.365 . S
N385 H405 0.862 . S
C386 C381 1.501 . S
C386 H387 0.961 . S
C386 H388 0.961 . S
C386 H389 0.960 . S
H387 C386 0.961 . S
H388 C386 0.961 . S
H389 C386 0.960 . S
C390 N391 1.342 . S
C390 C394 1.401 . S
C390 C395 1.499 . S
N391 Co374 1.989 . S
N391 C390 1.342 . S
N391 N392 1.388 . S
N392 Co375 1.993 . S
N392 N391 1.388 . S
N392 C393 1.346 . S
C393 N392 1.346 . S
C393 C394 1.396 . S
C393 C403 1.510 . S
C394 C390 1.401 . S
C394 C393 1.396 . S
C395 C390 1.499 . S
C395 H396 0.959 . S
C395 H397 0.960 . S
C395 H398 0.961 . S
H396 C395 0.959 . S
H397 C395 0.960 . S
H398 C395 0.961 . S
O399 Co374 1.967 . S
O399 C407 1.258 . S
O400 Co375 1.941 . S
O400 C407 1.266 . S
H401 C403 0.959 . S
H402 C403 0.961 . S
C403 C393 1.510 . S
C403 H401 0.959 . S
C403 H402 0.961 . S
C403 H404 0.960 . S
H404 C403 0.960 . S
H405 N385 0.862 . S
O406 Co374 1.920 . S
O406 C379 1.289 . S
C407 O399 1.258 . S
C407 O400 1.266 . S
Co408 O411 1.970 1_655 S
Co408 N425 1.989 . S
Co408 O433 1.967 1_655 S
Co408 O440 1.920 . S
Co409 O412 1.966 . S
Co409 N418 2.022 . S
Co409 N426 1.993 . S
Co409 O434 1.941 . S
C410 O411 1.258 . S
C410 O412 1.263 . S
O411 Co408 1.970 1_455 S
O411 C410 1.258 . S
O412 Co409 1.966 . S
O412 C410 1.263 . S
C413 O414 1.235 1_554 S
C413 O440 1.289 1_554 S
O414 C413 1.235 1_556 S
C415 C417 1.400 . S
C415 N418 1.351 . S
C415 C420 1.501 . S
C416 C417 1.387 . S
C416 N419 1.341 . S
C417 C415 1.400 . S
C417 C416 1.387 . S
N418 Co409 2.022 . S
N418 C415 1.351 . S
N418 N419 1.365 . S
N419 C416 1.341 . S
N419 N418 1.365 . S
N419 H439 0.862 . S
C420 C415 1.501 . S
C420 H421 0.961 . S
C420 H422 0.961 . S
C420 H423 0.960 . S
H421 C420 0.961 . S
H422 C420 0.961 . S
H423 C420 0.960 . S
C424 N425 1.342 . S
C424 C428 1.401 . S
C424 C429 1.499 . S
N425 Co408 1.989 . S
N425 C424 1.342 . S
N425 N426 1.388 1_655 S
N426 Co409 1.993 . S
N426 N425 1.388 1_455 S
N426 C427 1.346 1_455 S
C427 N426 1.346 1_655 S
C427 C428 1.396 . S
C427 C437 1.510 1_655 S
C428 C424 1.401 . S
C428 C427 1.396 . S
C429 C424 1.499 . S
C429 H430 0.959 . S
C429 H431 0.960 . S
C429 H432 0.961 . S
H430 C429 0.959 . S
H431 C429 0.960 . S
H432 C429 0.961 . S
O433 Co408 1.967 1_455 S
O433 C441 1.258 . S
O434 Co409 1.941 . S
O434 C441 1.266 . S
H435 C437 0.959 . S
H436 C437 0.961 . S
C437 C427 1.510 1_455 S
C437 H435 0.959 . S
C437 H436 0.961 . S
C437 H438 0.960 . S
H438 C437 0.960 . S
H439 N419 0.862 . S
O440 Co408 1.920 . S
O440 C413 1.289 1_556 S
C441 O433 1.258 . S
C441 O434 1.266 . S
Co442 O445 1.970 . S
Co442 N459 1.989 . S
Co442 O467 1.967 . S
Co442 O474 1.920 . S
Co443 O446 1.966 . S
Co443 N452 2.022 . S
Co443 N460 1.993 . S
Co443 O468 1.941 . S
C444 O445 1.258 . S
C444 O446 1.263 . S
O445 Co442 1.970 . S
O445 C444 1.258 . S
O446 Co443 1.966 . S
O446 C444 1.263 . S
C447 O448 1.235 . S
C447 O474 1.289 . S
O448 C447 1.235 . S
C449 C451 1.400 . S
C449 N452 1.351 . S
C449 C454 1.501 . S
C450 C451 1.387 . S
C450 N453 1.341 . S
C451 C449 1.400 . S
C451 C450 1.387 . S
N452 Co443 2.022 . S
N452 C449 1.351 . S
N452 N453 1.365 . S
N453 C450 1.341 . S
N453 N452 1.365 . S
N453 H473 0.862 . S
C454 C449 1.501 . S
C454 H455 0.961 . S
C454 H456 0.961 . S
C454 H457 0.960 . S
H455 C454 0.961 . S
H456 C454 0.961 . S
H457 C454 0.960 . S
C458 N459 1.342 . S
C458 C462 1.401 . S
C458 C463 1.499 . S
N459 Co442 1.989 . S
N459 C458 1.342 . S
N459 N460 1.388 . S
N460 Co443 1.993 . S
N460 N459 1.388 . S
N460 C461 1.346 . S
C461 N460 1.346 . S
C461 C462 1.396 . S
C461 C471 1.510 . S
C462 C458 1.401 . S
C462 C461 1.396 . S
C463 C458 1.499 . S
C463 H464 0.959 . S
C463 H465 0.960 . S
C463 H466 0.961 . S
H464 C463 0.959 . S
H465 C463 0.960 . S
H466 C463 0.961 . S
O467 Co442 1.967 . S
O467 C475 1.258 . S
O468 Co443 1.941 . S
O468 C475 1.266 . S
H469 C471 0.959 . S
H470 C471 0.961 . S
C471 C461 1.510 . S
C471 H469 0.959 . S
C471 H470 0.961 . S
C471 H472 0.960 . S
H472 C471 0.960 . S
H473 N453 0.862 . S
O474 Co442 1.920 . S
O474 C447 1.289 . S
C475 O467 1.258 . S
C475 O468 1.266 . S
Co476 O479 1.970 1_655 S
Co476 N493 1.989 . S
Co476 O501 1.967 1_655 S
Co476 O508 1.920 . S
Co477 O480 1.966 . S
Co477 N486 2.022 . S
Co477 N494 1.993 . S
Co477 O502 1.941 . S
C478 O479 1.258 . S
C478 O480 1.263 . S
O479 Co476 1.970 1_455 S
O479 C478 1.258 . S
O480 Co477 1.966 . S
O480 C478 1.263 . S
C481 O482 1.235 1_556 S
C481 O508 1.289 1_556 S
O482 C481 1.235 1_554 S
C483 C485 1.400 . S
C483 N486 1.351 . S
C483 C488 1.501 . S
C484 C485 1.387 . S
C484 N487 1.341 . S
C485 C483 1.400 . S
C485 C484 1.387 . S
N486 Co477 2.022 . S
N486 C483 1.351 . S
N486 N487 1.365 . S
N487 C484 1.341 . S
N487 N486 1.365 . S
N487 H507 0.862 . S
C488 C483 1.501 . S
C488 H489 0.961 . S
C488 H490 0.961 . S
C488 H491 0.960 . S
H489 C488 0.961 . S
H490 C488 0.961 . S
H491 C488 0.960 . S
C492 N493 1.342 . S
C492 C496 1.401 . S
C492 C497 1.499 . S
N493 Co476 1.989 . S
N493 C492 1.342 . S
N493 N494 1.388 1_655 S
N494 Co477 1.993 . S
N494 N493 1.388 1_455 S
N494 C495 1.346 1_455 S
C495 N494 1.346 1_655 S
C495 C496 1.396 . S
C495 C505 1.510 1_655 S
C496 C492 1.401 . S
C496 C495 1.396 . S
C497 C492 1.499 . S
C497 H498 0.959 . S
C497 H499 0.960 . S
C497 H500 0.961 . S
H498 C497 0.959 . S
H499 C497 0.960 . S
H500 C497 0.961 . S
O501 Co476 1.967 1_455 S
O501 C509 1.258 . S
O502 Co477 1.941 . S
O502 C509 1.266 . S
H503 C505 0.959 . S
H504 C505 0.961 . S
C505 C495 1.510 1_455 S
C505 H503 0.959 . S
C505 H504 0.961 . S
C505 H506 0.960 . S
H506 C505 0.960 . S
H507 N487 0.862 . S
O508 Co476 1.920 . S
O508 C481 1.289 1_554 S
C509 O501 1.258 . S
C509 O502 1.266 . S
Co510 O513 1.970 . S
Co510 N527 1.989 . S
Co510 O535 1.967 . S
Co510 O542 1.920 . S
Co511 O514 1.966 . S
Co511 N520 2.022 . S
Co511 N528 1.993 . S
Co511 O536 1.941 . S
C512 O513 1.258 . S
C512 O514 1.263 . S
O513 Co510 1.970 . S
O513 C512 1.258 . S
O514 Co511 1.966 . S
O514 C512 1.263 . S
C515 O516 1.235 . S
C515 O542 1.289 . S
O516 C515 1.235 . S
C517 C519 1.400 . S
C517 N520 1.351 . S
C517 C522 1.501 . S
C518 C519 1.387 . S
C518 N521 1.341 . S
C519 C517 1.400 . S
C519 C518 1.387 . S
N520 Co511 2.022 . S
N520 C517 1.351 . S
N520 N521 1.365 . S
N521 C518 1.341 . S
N521 N520 1.365 . S
N521 H541 0.862 . S
C522 C517 1.501 . S
C522 H523 0.961 . S
C522 H524 0.961 . S
C522 H525 0.960 . S
H523 C522 0.961 . S
H524 C522 0.961 . S
H525 C522 0.960 . S
C526 N527 1.342 . S
C526 C530 1.401 . S
C526 C531 1.499 . S
N527 Co510 1.989 . S
N527 C526 1.342 . S
N527 N528 1.388 . S
N528 Co511 1.993 . S
N528 N527 1.388 . S
N528 C529 1.346 . S
C529 N528 1.346 . S
C529 C530 1.396 . S
C529 C539 1.510 . S
C530 C526 1.401 . S
C530 C529 1.396 . S
C531 C526 1.499 . S
C531 H532 0.959 . S
C531 H533 0.960 . S
C531 H534 0.961 . S
H532 C531 0.959 . S
H533 C531 0.960 . S
H534 C531 0.961 . S
O535 Co510 1.967 . S
O535 C543 1.258 . S
O536 Co511 1.941 . S
O536 C543 1.266 . S
H537 C539 0.959 . S
H538 C539 0.961 . S
C539 C529 1.510 . S
C539 H537 0.959 . S
C539 H538 0.961 . S
C539 H540 0.960 . S
H540 C539 0.960 . S
H541 N521 0.862 . S
O542 Co510 1.920 . S
O542 C515 1.289 . S
C543 O535 1.258 . S
C543 O536 1.266 . S
C544 C545 1.391 . S
C544 C546 1.394 . S
C544 H560 0.931 . S
C545 C544 1.391 . S
C545 C549 1.376 . S
C546 C544 1.394 . S
C546 C547 1.369 . S
C546 C550 1.531 . S
C547 C546 1.369 . S
C547 C548 1.410 . S
C547 C555 1.503 1_545 S
C548 C547 1.410 . S
C548 C549 1.392 . S
C548 C551 1.511 . S
C549 C545 1.376 . S
C549 C548 1.392 . S
C549 H561 0.929 . S
C550 C546 1.531 . S
C550 H562 0.960 1_545 S
C550 H563 0.962 . S
C550 H564 0.960 . S
C551 C548 1.511 . S
C551 H565 0.961 . S
C551 H566 0.961 . S
C551 H567 0.961 1_545 S
C552 C553 1.370 . S
C552 C554 1.363 . S
C552 H568 0.931 . S
C553 C552 1.370 . S
C553 C557 1.408 . S
C554 C552 1.363 . S
C554 C555 1.370 . S
C554 C558 1.524 1_565 S
C555 C547 1.503 1_565 S
C555 C554 1.370 . S
C555 C556 1.403 . S
C556 C555 1.403 . S
C556 C557 1.404 . S
C556 C559 1.539 . S
C557 C553 1.408 . S
C557 C556 1.404 . S
C557 H569 0.930 . S
C558 C554 1.524 1_545 S
C558 H570 0.956 . S
C558 H571 0.961 . S
C558 H572 0.961 . S
C559 C556 1.539 . S
C559 H573 0.958 . S
C559 H574 0.961 . S
C559 H575 0.960 . S
H560 C544 0.931 . S
H561 C549 0.929 . S
H562 C550 0.960 1_565 S
H563 C550 0.962 . S
H564 C550 0.960 . S
H565 C551 0.961 . S
H566 C551 0.961 . S
H567 C551 0.961 1_565 S
H568 C552 0.931 . S
H569 C557 0.930 . S
H570 C558 0.956 . S
H571 C558 0.961 . S
H572 C558 0.961 . S
H573 C559 0.958 . S
H574 C559 0.961 . S
H575 C559 0.960 . S
C576 C577 1.391 . S
C576 C578 1.394 . S
C576 H592 0.931 . S
C577 C576 1.391 . S
C577 C581 1.376 . S
C578 C576 1.394 . S
C578 C579 1.369 . S
C578 C582 1.531 . S
C579 C578 1.369 . S
C579 C580 1.410 . S
C579 C587 1.503 . S
C580 C579 1.410 . S
C580 C581 1.392 . S
C580 C583 1.511 . S
C581 C577 1.376 . S
C581 C580 1.392 . S
C581 H593 0.929 . S
C582 C578 1.531 . S
C582 H594 0.960 . S
C582 H595 0.962 . S
C582 H596 0.960 . S
C583 C580 1.511 . S
C583 H597 0.961 . S
C583 H598 0.961 . S
C583 H599 0.961 . S
C584 C585 1.370 . S
C584 C586 1.363 . S
C584 H600 0.931 . S
C585 C584 1.370 . S
C585 C589 1.408 . S
C586 C584 1.363 . S
C586 C587 1.370 . S
C586 C590 1.524 . S
C587 C579 1.503 . S
C587 C586 1.370 . S
C587 C588 1.403 . S
C588 C587 1.403 . S
C588 C589 1.404 . S
C588 C591 1.539 . S
C589 C585 1.408 . S
C589 C588 1.404 . S
C589 H601 0.930 . S
C590 C586 1.524 . S
C590 H602 0.956 . S
C590 H603 0.961 . S
C590 H604 0.961 . S
C591 C588 1.539 . S
C591 H605 0.958 . S
C591 H606 0.961 . S
C591 H607 0.960 . S
H592 C576 0.931 . S
H593 C581 0.929 . S
H594 C582 0.960 . S
H595 C582 0.962 . S
H596 C582 0.960 . S
H597 C583 0.961 . S
H598 C583 0.961 . S
H599 C583 0.961 . S
H600 C584 0.931 . S
H601 C589 0.930 . S
H602 C590 0.956 . S
H603 C590 0.961 . S
H604 C590 0.961 . S
H605 C591 0.958 . S
H606 C591 0.961 . S
H607 C591 0.960 . S
C608 C609 1.391 . S
C608 C610 1.394 . S
C608 H624 0.931 . S
C609 C608 1.391 . S
C609 C613 1.376 1_455 S
C610 C608 1.394 . S
C610 C611 1.369 . S
C610 C614 1.531 1_554 S
C611 C610 1.369 . S
C611 C612 1.410 1_455 S
C611 C619 1.503 1_544 S
C612 C611 1.410 1_655 S
C612 C613 1.392 . S
C612 C615 1.511 1_545 S
C613 C609 1.376 1_655 S
C613 C612 1.392 . S
C613 H625 0.929 . S
C614 C610 1.531 1_556 S
C614 H626 0.960 . S
C614 H627 0.962 . S
C614 H628 0.960 1_556 S
C615 C612 1.511 1_565 S
C615 H629 0.961 1_565 S
C615 H630 0.961 . S
C615 H631 0.961 . S
C616 C617 1.370 . S
C616 C618 1.363 . S
C616 H632 0.931 1_455 S
C617 C616 1.370 . S
C617 C621 1.408 . S
C618 C616 1.363 . S
C618 C619 1.370 . S
C618 C622 1.524 1_465 S
C619 C611 1.503 1_566 S
C619 C618 1.370 . S
C619 C620 1.403 1_556 S
C620 C619 1.403 1_554 S
C620 C621 1.404 1_554 S
C620 C623 1.539 . S
C621 C617 1.408 . S
C621 C620 1.404 1_556 S
C621 H633 0.930 . S
C622 C618 1.524 1_645 S
C622 H634 0.956 1_655 S
C622 H635 0.961 . S
C622 H636 0.961 . S
C623 C620 1.539 . S
C623 H637 0.958 . S
C623 H638 0.961 . S
C623 H639 0.960 . S
H624 C608 0.931 . S
H625 C613 0.929 . S
H626 C614 0.960 . S
H627 C614 0.962 . S
H628 C614 0.960 1_554 S
H629 C615 0.961 1_545 S
H630 C615 0.961 . S
H631 C615 0.961 . S
H632 C616 0.931 1_655 S
H633 C621 0.930 . S
H634 C622 0.956 1_455 S
H635 C622 0.961 . S
H636 C622 0.961 . S
H637 C623 0.958 . S
H638 C623 0.961 . S
H639 C623 0.960 . S
C640 C641 1.391 . S
C640 C642 1.394 . S
C640 H656 0.931 . S
C641 C640 1.391 . S
C641 C645 1.376 . S
C642 C640 1.394 . S
C642 C643 1.369 . S
C642 C646 1.531 . S
C643 C642 1.369 . S
C643 C644 1.410 . S
C643 C651 1.503 . S
C644 C643 1.410 . S
C644 C645 1.392 . S
C644 C647 1.511 . S
C645 C641 1.376 . S
C645 C644 1.392 . S
C645 H657 0.929 . S
C646 C642 1.531 . S
C646 H658 0.960 . S
C646 H659 0.962 . S
C646 H660 0.960 . S
C647 C644 1.511 . S
C647 H661 0.961 . S
C647 H662 0.961 . S
C647 H663 0.961 . S
C648 C649 1.370 . S
C648 C650 1.363 . S
C648 H664 0.931 . S
C649 C648 1.370 . S
C649 C653 1.408 . S
C650 C648 1.363 . S
C650 C651 1.370 . S
C650 C654 1.524 . S
C651 C643 1.503 . S
C651 C650 1.370 . S
C651 C652 1.403 . S
C652 C651 1.403 . S
C652 C653 1.404 . S
C652 C655 1.539 . S
C653 C649 1.408 . S
C653 C652 1.404 . S
C653 H665 0.930 . S
C654 C650 1.524 . S
C654 H666 0.956 . S
C654 H667 0.961 . S
C654 H668 0.961 . S
C655 C652 1.539 . S
C655 H669 0.958 . S
C655 H670 0.961 . S
C655 H671 0.960 . S
H656 C640 0.931 . S
H657 C645 0.929 . S
H658 C646 0.960 . S
H659 C646 0.962 . S
H660 C646 0.960 . S
H661 C647 0.961 . S
H662 C647 0.961 . S
H663 C647 0.961 . S
H664 C648 0.931 . S
H665 C653 0.930 . S
H666 C654 0.956 . S
H667 C654 0.961 . S
H668 C654 0.961 . S
H669 C655 0.958 . S
H670 C655 0.961 . S
H671 C655 0.960 . S
C672 C673 1.391 . S
C672 C674 1.394 . S
C672 H688 0.931 . S
C673 C672 1.391 . S
C673 C677 1.376 . S
C674 C672 1.394 . S
C674 C675 1.369 . S
C674 C678 1.531 . S
C675 C674 1.369 . S
C675 C676 1.410 . S
C675 C683 1.503 . S
C676 C675 1.410 . S
C676 C677 1.392 . S
C676 C679 1.511 . S
C677 C673 1.376 . S
C677 C676 1.392 . S
C677 H689 0.929 . S
C678 C674 1.531 . S
C678 H690 0.960 . S
C678 H691 0.962 . S
C678 H692 0.960 . S
C679 C676 1.511 . S
C679 H693 0.961 . S
C679 H694 0.961 . S
C679 H695 0.961 . S
C680 C681 1.370 . S
C680 C682 1.363 . S
C680 H696 0.931 . S
C681 C680 1.370 . S
C681 C685 1.408 . S
C682 C680 1.363 . S
C682 C683 1.370 . S
C682 C686 1.524 . S
C683 C675 1.503 . S
C683 C682 1.370 . S
C683 C684 1.403 . S
C684 C683 1.403 . S
C684 C685 1.404 . S
C684 C687 1.539 . S
C685 C681 1.408 . S
C685 C684 1.404 . S
C685 H697 0.930 . S
C686 C682 1.524 . S
C686 H698 0.956 . S
C686 H699 0.961 . S
C686 H700 0.961 . S
C687 C684 1.539 . S
C687 H701 0.958 . S
C687 H702 0.961 . S
C687 H703 0.960 . S
H688 C672 0.931 . S
H689 C677 0.929 . S
H690 C678 0.960 . S
H691 C678 0.962 . S
H692 C678 0.960 . S
H693 C679 0.961 . S
H694 C679 0.961 . S
H695 C679 0.961 . S
H696 C680 0.931 . S
H697 C685 0.930 . S
H698 C686 0.956 . S
H699 C686 0.961 . S
H700 C686 0.961 . S
H701 C687 0.958 . S
H702 C687 0.961 . S
H703 C687 0.960 . S
C704 C705 1.391 . S
C704 C706 1.394 . S
C704 H720 0.931 . S
C705 C704 1.391 . S
C705 C709 1.376 . S
C706 C704 1.394 . S
C706 C707 1.369 . S
C706 C710 1.531 . S
C707 C706 1.369 . S
C707 C708 1.410 . S
C707 C715 1.503 . S
C708 C707 1.410 . S
C708 C709 1.392 . S
C708 C711 1.511 . S
C709 C705 1.376 . S
C709 C708 1.392 . S
C709 H721 0.929 . S
C710 C706 1.531 . S
C710 H722 0.960 . S
C710 H723 0.962 . S
C710 H724 0.960 . S
C711 C708 1.511 . S
C711 H725 0.961 . S
C711 H726 0.961 . S
C711 H727 0.961 . S
C712 C713 1.370 . S
C712 C714 1.363 . S
C712 H728 0.931 . S
C713 C712 1.370 . S
C713 C717 1.408 . S
C714 C712 1.363 . S
C714 C715 1.370 . S
C714 C718 1.524 . S
C715 C707 1.503 . S
C715 C714 1.370 . S
C715 C716 1.403 . S
C716 C715 1.403 . S
C716 C717 1.404 . S
C716 C719 1.539 . S
C717 C713 1.408 . S
C717 C716 1.404 . S
C717 H729 0.930 . S
C718 C714 1.524 . S
C718 H730 0.956 . S
C718 H731 0.961 . S
C718 H732 0.961 . S
C719 C716 1.539 . S
C719 H733 0.958 . S
C719 H734 0.961 . S
C719 H735 0.960 . S
H720 C704 0.931 . S
H721 C709 0.929 . S
H722 C710 0.960 . S
H723 C710 0.962 . S
H724 C710 0.960 . S
H725 C711 0.961 . S
H726 C711 0.961 . S
H727 C711 0.961 . S
H728 C712 0.931 . S
H729 C717 0.930 . S
H730 C718 0.956 . S
H731 C718 0.961 . S
H732 C718 0.961 . S
H733 C719 0.958 . S
H734 C719 0.961 . S
H735 C719 0.960 . S
C736 C737 1.391 . S
C736 C738 1.394 . S
C736 H752 0.931 . S
C737 C736 1.391 . S
C737 C741 1.391 . S
C738 C736 1.394 . S
C738 C739 1.369 . S
C738 C742 1.531 1_556 S
C739 C738 1.369 . S
C739 C740 1.376 1_455 S
C739 C747 1.503 1_556 S
C740 C739 1.376 1_655 S
C740 C741 1.390 1_655 S
C740 C743 1.547 . S
C741 C737 1.391 . S
C741 C740 1.390 1_455 S
C741 H753 0.915 1_455 S
C742 C738 1.531 1_554 S
C742 H754 0.960 . S
C742 H755 0.962 . S
C742 H756 0.960 . S
C743 C740 1.547 . S
C743 H757 0.961 . S
C743 H758 0.961 . S
C743 H759 0.961 . S
C744 C745 1.370 . S
C744 C746 1.363 . S
C744 H760 0.931 . S
C745 C744 1.370 . S
C745 C749 1.408 . S
C746 C744 1.363 . S
C746 C747 1.370 . S
C746 C750 1.524 1_554 S
C747 C739 1.503 1_554 S
C747 C746 1.370 . S
C747 C748 1.403 . S
C748 C747 1.403 . S
C748 C749 1.404 . S
C748 C751 1.539 1_455 S
C749 C745 1.408 . S
C749 C748 1.404 . S
C749 H761 0.930 1_455 S
C750 C746 1.524 1_556 S
C750 H762 0.956 . S
C750 H763 0.961 . S
C750 H764 0.961 . S
C751 C748 1.539 1_655 S
C751 H765 0.958 . S
C751 H766 0.961 . S
C751 H767 0.960 . S
H752 C736 0.931 . S
H753 C741 0.915 1_655 S
H754 C742 0.960 . S
H755 C742 0.962 . S
H756 C742 0.960 . S
H757 C743 0.961 . S
H758 C743 0.961 . S
H759 C743 0.961 . S
H760 C744 0.931 . S
H761 C749 0.930 1_655 S
H762 C750 0.956 . S
H763 C750 0.961 . S
H764 C750 0.961 . S
H765 C751 0.958 . S
H766 C751 0.961 . S
H767 C751 0.960 . S
C768 C769 1.391 . S
C768 C770 1.394 . S
C768 H784 0.931 . S
C769 C768 1.391 . S
C769 C773 1.376 . S
C770 C768 1.394 . S
C770 C771 1.369 . S
C770 C774 1.531 . S
C771 C770 1.369 . S
C771 C772 1.410 . S
C771 C779 1.503 . S
C772 C771 1.410 . S
C772 C773 1.392 . S
C772 C775 1.511 . S
C773 C769 1.376 . S
C773 C772 1.392 . S
C773 H785 0.929 . S
C774 C770 1.531 . S
C774 H786 0.960 . S
C774 H787 0.962 . S
C774 H788 0.960 . S
C775 C772 1.511 . S
C775 H789 0.961 . S
C775 H790 0.961 . S
C775 H791 0.961 . S
C776 C777 1.370 . S
C776 C778 1.363 . S
C776 H792 0.931 . S
C777 C776 1.370 . S
C777 C781 1.408 . S
C778 C776 1.363 . S
C778 C779 1.370 . S
C778 C782 1.524 . S
C779 C771 1.503 . S
C779 C778 1.370 . S
C779 C780 1.403 . S
C780 C779 1.403 . S
C780 C781 1.404 . S
C780 C783 1.539 . S
C781 C777 1.408 . S
C781 C780 1.404 . S
C781 H793 0.930 . S
C782 C778 1.524 . S
C782 H794 0.956 . S
C782 H795 0.961 . S
C782 H796 0.961 . S
C783 C780 1.539 . S
C783 H797 0.958 . S
C783 H798 0.961 . S
C783 H799 0.960 . S
H784 C768 0.931 . S
H785 C773 0.929 . S
H786 C774 0.960 . S
H787 C774 0.962 . S
H788 C774 0.960 . S
H789 C775 0.961 . S
H790 C775 0.961 . S
H791 C775 0.961 . S
H792 C776 0.931 . S
H793 C781 0.930 . S
H794 C782 0.956 . S
H795 C782 0.961 . S
H796 C782 0.961 . S
H797 C783 0.958 . S
H798 C783 0.961 . S
H799 C783 0.960 . S
C800 C801 1.391 . S
C800 C802 1.394 . S
C800 H816 0.931 . S
C801 C800 1.391 . S
C801 C805 1.376 . S
C802 C800 1.394 . S
C802 C803 1.369 . S
C802 C806 1.531 . S
C803 C802 1.369 . S
C803 C804 1.410 . S
C803 C811 1.503 . S
C804 C803 1.410 . S
C804 C805 1.392 . S
C804 C807 1.511 . S
C805 C801 1.376 . S
C805 C804 1.392 . S
C805 H817 0.929 . S
C806 C802 1.531 . S
C806 H818 0.960 . S
C806 H819 0.962 . S
C806 H820 0.960 . S
C807 C804 1.511 . S
C807 H821 0.961 . S
C807 H822 0.961 . S
C807 H823 0.961 . S
C808 C809 1.370 . S
C808 C810 1.363 . S
C808 H824 0.931 . S
C809 C808 1.370 . S
C809 C813 1.408 . S
C810 C808 1.363 . S
C810 C811 1.370 . S
C810 C814 1.524 . S
C811 C803 1.503 . S
C811 C810 1.370 . S
C811 C812 1.403 . S
C812 C811 1.403 . S
C812 C813 1.404 . S
C812 C815 1.539 . S
C813 C809 1.408 . S
C813 C812 1.404 . S
C813 H825 0.930 1_554 S
C814 C810 1.524 . S
C814 H826 0.956 . S
C814 H827 0.961 . S
C814 H828 0.961 . S
C815 C812 1.539 . S
C815 H829 0.958 . S
C815 H830 0.961 . S
C815 H831 0.960 . S
H816 C800 0.931 . S
H817 C805 0.929 . S
H818 C806 0.960 . S
H819 C806 0.962 . S
H820 C806 0.960 . S
H821 C807 0.961 . S
H822 C807 0.961 . S
H823 C807 0.961 . S
H824 C808 0.931 . S
H825 C813 0.930 1_556 S
H826 C814 0.956 . S
H827 C814 0.961 . S
H828 C814 0.961 . S
H829 C815 0.958 . S
H830 C815 0.961 . S
H831 C815 0.960 . S
C832 C833 1.391 . S
C832 C834 1.394 . S
C832 H848 0.931 . S
C833 C832 1.391 . S
C833 C837 1.376 . S
C834 C832 1.394 . S
C834 C835 1.369 . S
C834 C838 1.531 . S
C835 C834 1.369 . S
C835 C836 1.410 . S
C835 C843 1.503 . S
C836 C835 1.410 . S
C836 C837 1.392 . S
C836 C839 1.511 . S
C837 C833 1.376 . S
C837 C836 1.392 . S
C837 H849 0.929 . S
C838 C834 1.531 . S
C838 H850 0.960 . S
C838 H851 0.962 . S
C838 H852 0.960 . S
C839 C836 1.511 . S
C839 H853 0.961 . S
C839 H854 0.961 . S
C839 H855 0.961 . S
C840 C841 1.370 . S
C840 C842 1.363 . S
C840 H856 0.931 . S
C841 C840 1.370 . S
C841 C845 1.408 . S
C842 C840 1.363 . S
C842 C843 1.370 . S
C842 C846 1.524 . S
C843 C835 1.503 . S
C843 C842 1.370 . S
C843 C844 1.403 . S
C844 C843 1.403 . S
C844 C845 1.404 . S
C844 C847 1.539 . S
C845 C841 1.408 . S
C845 C844 1.404 . S
C845 H857 0.930 . S
C846 C842 1.524 . S
C846 H858 0.956 . S
C846 H859 0.961 . S
C846 H860 0.961 . S
C847 C844 1.539 . S
C847 H861 0.958 . S
C847 H862 0.961 . S
C847 H863 0.960 . S
H848 C832 0.931 . S
H849 C837 0.929 . S
H850 C838 0.960 . S
H851 C838 0.962 . S
H852 C838 0.960 . S
H853 C839 0.961 . S
H854 C839 0.961 . S
H855 C839 0.961 . S
H856 C840 0.931 . S
H857 C845 0.930 . S
H858 C846 0.956 . S
H859 C846 0.961 . S
H860 C846 0.961 . S
H861 C847 0.958 . S
H862 C847 0.961 . S
H863 C847 0.960 . S
C864 C865 1.391 . S
C864 C866 1.394 . S
C864 H880 0.931 . S
C865 C864 1.391 . S
C865 C869 1.376 . S
C866 C864 1.394 . S
C866 C867 1.369 . S
C866 C870 1.531 . S
C867 C866 1.369 . S
C867 C868 1.410 . S
C867 C875 1.503 . S
C868 C867 1.410 . S
C868 C869 1.392 . S
C868 C871 1.511 . S
C869 C865 1.376 . S
C869 C868 1.392 . S
C869 H881 0.929 . S
C870 C866 1.531 . S
C870 H882 0.960 . S
C870 H883 0.962 . S
C870 H884 0.960 . S
C871 C868 1.511 . S
C871 H885 0.961 . S
C871 H886 0.961 . S
C871 H887 0.961 . S
C872 C873 1.370 . S
C872 C874 1.363 . S
C872 H888 0.931 . S
C873 C872 1.370 . S
C873 C877 1.408 . S
C874 C872 1.363 . S
C874 C875 1.370 . S
C874 C878 1.524 . S
C875 C867 1.503 . S
C875 C874 1.370 . S
C875 C876 1.403 . S
C876 C875 1.403 . S
C876 C877 1.404 . S
C876 C879 1.539 . S
C877 C873 1.408 . S
C877 C876 1.404 . S
C877 H889 0.930 . S
C878 C874 1.524 . S
C878 H890 0.956 . S
C878 H891 0.961 . S
C878 H892 0.961 . S
C879 C876 1.539 . S
C879 H893 0.958 . S
C879 H894 0.961 . S
C879 H895 0.960 . S
H880 C864 0.931 . S
H881 C869 0.929 . S
H882 C870 0.960 . S
H883 C870 0.962 . S
H884 C870 0.960 . S
H885 C871 0.961 . S
H886 C871 0.961 . S
H887 C871 0.961 . S
H888 C872 0.931 . S
H889 C877 0.930 . S
H890 C878 0.956 . S
H891 C878 0.961 . S
H892 C878 0.961 . S
H893 C879 0.958 . S
H894 C879 0.961 . S
H895 C879 0.960 . S
C896 C897 1.391 . S
C896 C898 1.394 . S
C896 H912 0.931 . S
C897 C896 1.391 . S
C897 C901 1.376 . S
C898 C896 1.394 . S
C898 C899 1.369 . S
C898 C902 1.531 . S
C899 C898 1.369 . S
C899 C900 1.410 . S
C899 C907 1.503 . S
C900 C899 1.410 . S
C900 C901 1.392 . S
C900 C903 1.511 . S
C901 C897 1.376 . S
C901 C900 1.392 . S
C901 H913 0.929 . S
C902 C898 1.531 . S
C902 H914 0.960 . S
C902 H915 0.962 . S
C902 H916 0.960 . S
C903 C900 1.511 . S
C903 H917 0.961 . S
C903 H918 0.961 . S
C903 H919 0.961 . S
C904 C905 1.370 . S
C904 C906 1.363 . S
C904 H920 0.931 . S
C905 C904 1.370 . S
C905 C909 1.408 . S
C906 C904 1.363 . S
C906 C907 1.370 . S
C906 C910 1.524 . S
C907 C899 1.503 . S
C907 C906 1.370 . S
C907 C908 1.403 . S
C908 C907 1.403 . S
C908 C909 1.404 . S
C908 C911 1.539 . S
C909 C905 1.408 . S
C909 C908 1.404 . S
C909 H921 0.930 . S
C910 C906 1.524 . S
C910 H922 0.956 . S
C910 H923 0.961 . S
C910 H924 0.961 . S
C911 C908 1.539 . S
C911 H925 0.958 . S
C911 H926 0.961 . S
C911 H927 0.960 . S
H912 C896 0.931 . S
H913 C901 0.929 . S
H914 C902 0.960 . S
H915 C902 0.962 . S
H916 C902 0.960 . S
H917 C903 0.961 . S
H918 C903 0.961 . S
H919 C903 0.961 . S
H920 C904 0.931 . S
H921 C909 0.930 . S
H922 C910 0.956 . S
H923 C910 0.961 . S
H924 C910 0.961 . S
H925 C911 0.958 . S
H926 C911 0.961 . S
H927 C911 0.960 . S
C928 C929 1.391 . S
C928 C930 1.394 . S
C928 H944 0.931 . S
C929 C928 1.391 . S
C929 C933 1.376 . S
C930 C928 1.394 . S
C930 C931 1.369 . S
C930 C934 1.531 . S
C931 C930 1.369 . S
C931 C932 1.410 . S
C931 C939 1.503 . S
C932 C931 1.410 . S
C932 C933 1.392 . S
C932 C935 1.511 . S
C933 C929 1.376 . S
C933 C932 1.392 . S
C933 H945 0.929 . S
C934 C930 1.531 . S
C934 H946 0.960 . S
C934 H947 0.962 . S
C934 H948 0.960 . S
C935 C932 1.511 . S
C935 H949 0.961 . S
C935 H950 0.961 . S
C935 H951 0.961 . S
C936 C937 1.370 . S
C936 C938 1.363 . S
C936 H952 0.931 1_556 S
C937 C936 1.370 . S
C937 C941 1.408 . S
C938 C936 1.363 . S
C938 C939 1.370 . S
C938 C942 1.524 . S
C939 C931 1.503 . S
C939 C938 1.370 . S
C939 C940 1.403 . S
C940 C939 1.403 . S
C940 C941 1.404 . S
C940 C943 1.539 . S
C941 C937 1.408 . S
C941 C940 1.404 . S
C941 H953 0.930 . S
C942 C938 1.524 . S
C942 H954 0.956 . S
C942 H955 0.961 . S
C942 H956 0.961 . S
C943 C940 1.539 . S
C943 H957 0.958 . S
C943 H958 0.961 . S
C943 H959 0.960 . S
H944 C928 0.931 . S
H945 C933 0.929 . S
H946 C934 0.960 . S
H947 C934 0.962 . S
H948 C934 0.960 . S
H949 C935 0.961 . S
H950 C935 0.961 . S
H951 C935 0.961 . S
H952 C936 0.931 1_554 S
H953 C941 0.930 . S
H954 C942 0.956 . S
H955 C942 0.961 . S
H956 C942 0.961 . S
H957 C943 0.958 . S
H958 C943 0.961 . S
H959 C943 0.960 . S
C960 C961 1.391 . S
C960 C962 1.394 . S
C960 H976 0.931 . S
C961 C960 1.391 . S
C961 C965 1.376 . S
C962 C960 1.394 . S
C962 C963 1.369 . S
C962 C966 1.531 . S
C963 C962 1.369 . S
C963 C964 1.410 . S
C963 C971 1.503 . S
C964 C963 1.410 . S
C964 C965 1.392 . S
C964 C967 1.511 . S
C965 C961 1.376 . S
C965 C964 1.392 . S
C965 H977 0.929 . S
C966 C962 1.531 . S
C966 H978 0.960 . S
C966 H979 0.962 . S
C966 H980 0.960 . S
C967 C964 1.511 . S
C967 H981 0.961 . S
C967 H982 0.961 . S
C967 H983 0.961 . S
C968 C969 1.370 . S
C968 C970 1.363 . S
C968 H984 0.931 . S
C969 C968 1.370 . S
C969 C973 1.408 . S
C970 C968 1.363 . S
C970 C971 1.370 . S
C970 C974 1.524 . S
C971 C963 1.503 . S
C971 C970 1.370 . S
C971 C972 1.403 . S
C972 C971 1.403 . S
C972 C973 1.404 . S
C972 C975 1.539 . S
C973 C969 1.408 . S
C973 C972 1.404 . S
C973 H985 0.930 . S
C974 C970 1.524 . S
C974 H986 0.956 . S
C974 H987 0.961 . S
C974 H988 0.961 . S
C975 C972 1.539 . S
C975 H989 0.958 . S
C975 H990 0.961 . S
C975 H991 0.960 . S
H976 C960 0.931 . S
H977 C965 0.929 . S
H978 C966 0.960 . S
H979 C966 0.962 . S
H980 C966 0.960 . S
H981 C967 0.961 . S
H982 C967 0.961 . S
H983 C967 0.961 . S
H984 C968 0.931 . S
H985 C973 0.930 . S
H986 C974 0.956 . S
H987 C974 0.961 . S
H988 C974 0.961 . S
H989 C975 0.958 . S
H990 C975 0.961 . S
H991 C975 0.960 . S
C992 C993 1.391 . S
C992 C994 1.394 . S
C992 H1008 0.931 . S
C993 C992 1.391 . S
C993 C997 1.376 . S
C994 C992 1.394 . S
C994 C995 1.369 . S
C994 C998 1.531 . S
C995 C994 1.369 . S
C995 C996 1.410 . S
C995 C1003 1.503 . S
C996 C995 1.410 . S
C996 C997 1.392 . S
C996 C999 1.511 . S
C997 C993 1.376 . S
C997 C996 1.392 . S
C997 H1009 0.929 . S
C998 C994 1.531 . S
C998 H1010 0.960 . S
C998 H1011 0.962 . S
C998 H1012 0.960 . S
C999 C996 1.511 . S
C999 H1013 0.961 . S
C999 H1014 0.961 . S
C999 H1015 0.961 . S
C1000 C1001 1.370 . S
C1000 C1002 1.363 . S
C1000 H1016 0.931 . S
C1001 C1000 1.370 . S
C1001 C1005 1.408 . S
C1002 C1000 1.363 . S
C1002 C1003 1.370 . S
C1002 C1006 1.524 . S
C1003 C995 1.503 . S
C1003 C1002 1.370 . S
C1003 C1004 1.403 . S
C1004 C1003 1.403 . S
C1004 C1005 1.404 . S
C1004 C1007 1.539 . S
C1005 C1001 1.408 . S
C1005 C1004 1.404 . S
C1005 H1017 0.930 . S
C1006 C1002 1.524 . S
C1006 H1018 0.956 . S
C1006 H1019 0.961 . S
C1006 H1020 0.961 . S
C1007 C1004 1.539 . S
C1007 H1021 0.958 . S
C1007 H1022 0.961 . S
C1007 H1023 0.960 . S
H1008 C992 0.931 . S
H1009 C997 0.929 . S
H1010 C998 0.960 . S
H1011 C998 0.962 . S
H1012 C998 0.960 . S
H1013 C999 0.961 . S
H1014 C999 0.961 . S
H1015 C999 0.961 . S
H1016 C1000 0.931 . S
H1017 C1005 0.930 . S
H1018 C1006 0.956 . S
H1019 C1006 0.961 . S
H1020 C1006 0.961 . S
H1021 C1007 0.958 . S
H1022 C1007 0.961 . S
H1023 C1007 0.960 . S
C1024 C1025 1.391 . S
C1024 C1026 1.394 . S
C1024 H1040 0.931 . S
C1025 C1024 1.391 . S
C1025 C1029 1.376 . S
C1026 C1024 1.394 . S
C1026 C1027 1.369 . S
C1026 C1030 1.531 . S
C1027 C1026 1.369 . S
C1027 C1028 1.410 . S
C1027 C1035 1.503 . S
C1028 C1027 1.410 . S
C1028 C1029 1.392 . S
C1028 C1031 1.511 . S
C1029 C1025 1.376 . S
C1029 C1028 1.392 . S
C1029 H1041 0.929 . S
C1030 C1026 1.531 . S
C1030 H1042 0.960 . S
C1030 H1043 0.962 . S
C1030 H1044 0.960 . S
C1031 C1028 1.511 . S
C1031 H1045 0.961 . S
C1031 H1046 0.961 . S
C1031 H1047 0.961 . S
C1032 C1033 1.370 . S
C1032 C1034 1.363 . S
C1032 H1048 0.931 . S
C1033 C1032 1.370 . S
C1033 C1037 1.408 . S
C1034 C1032 1.363 . S
C1034 C1035 1.370 . S
C1034 C1038 1.524 . S
C1035 C1027 1.503 . S
C1035 C1034 1.370 . S
C1035 C1036 1.403 . S
C1036 C1035 1.403 . S
C1036 C1037 1.404 . S
C1036 C1039 1.539 . S
C1037 C1033 1.408 . S
C1037 C1036 1.404 . S
C1037 H1049 0.930 . S
C1038 C1034 1.524 . S
C1038 H1050 0.956 . S
C1038 H1051 0.961 . S
C1038 H1052 0.961 . S
C1039 C1036 1.539 . S
C1039 H1053 0.958 . S
C1039 H1054 0.961 . S
C1039 H1055 0.960 . S
H1040 C1024 0.931 . S
H1041 C1029 0.929 . S
H1042 C1030 0.960 . S
H1043 C1030 0.962 . S
H1044 C1030 0.960 . S
H1045 C1031 0.961 . S
H1046 C1031 0.961 . S
H1047 C1031 0.961 . S
H1048 C1032 0.931 . S
H1049 C1037 0.930 . S
H1050 C1038 0.956 . S
H1051 C1038 0.961 . S
H1052 C1038 0.961 . S
H1053 C1039 0.958 . S
H1054 C1039 0.961 . S
H1055 C1039 0.960 . S
C1056 C1057 1.391 . S
C1056 C1058 1.394 . S
C1056 H1072 0.931 . S
C1057 C1056 1.391 . S
C1057 C1061 1.376 . S
C1058 C1056 1.394 . S
C1058 C1059 1.369 . S
C1058 C1062 1.531 . S
C1059 C1058 1.369 . S
C1059 C1060 1.410 . S
C1059 C1067 1.503 . S
C1060 C1059 1.410 . S
C1060 C1061 1.392 . S
C1060 C1063 1.511 . S
C1061 C1057 1.376 . S
C1061 C1060 1.392 . S
C1061 H1073 0.929 . S
C1062 C1058 1.531 . S
C1062 H1074 0.960 . S
C1062 H1075 0.962 . S
C1062 H1076 0.960 . S
C1063 C1060 1.511 . S
C1063 H1077 0.961 . S
C1063 H1078 0.961 . S
C1063 H1079 0.961 . S
C1064 C1065 1.370 . S
C1064 C1066 1.363 . S
C1064 H1080 0.931 . S
C1065 C1064 1.370 . S
C1065 C1069 1.408 . S
C1066 C1064 1.363 . S
C1066 C1067 1.370 . S
C1066 C1070 1.524 . S
C1067 C1059 1.503 . S
C1067 C1066 1.370 . S
C1067 C1068 1.403 . S
C1068 C1067 1.403 . S
C1068 C1069 1.404 . S
C1068 C1071 1.539 . S
C1069 C1065 1.408 . S
C1069 C1068 1.404 . S
C1069 H1081 0.930 . S
C1070 C1066 1.524 . S
C1070 H1082 0.956 . S
C1070 H1083 0.961 . S
C1070 H1084 0.961 . S
C1071 C1068 1.539 . S
C1071 H1085 0.958 . S
C1071 H1086 0.961 . S
C1071 H1087 0.960 . S
H1072 C1056 0.931 . S
H1073 C1061 0.929 . S
H1074 C1062 0.960 . S
H1075 C1062 0.962 . S
H1076 C1062 0.960 . S
H1077 C1063 0.961 . S
H1078 C1063 0.961 . S
H1079 C1063 0.961 . S
H1080 C1064 0.931 . S
H1081 C1069 0.930 . S
H1082 C1070 0.956 . S
H1083 C1070 0.961 . S
H1084 C1070 0.961 . S
H1085 C1071 0.958 . S
H1086 C1071 0.961 . S
H1087 C1071 0.960 . S
C1088 C1089 1.391 . S
C1088 C1090 1.394 . S
C1088 H1104 0.931 . S
C1089 C1088 1.391 . S
C1089 C1093 1.376 . S
C1090 C1088 1.394 . S
C1090 C1091 1.369 . S
C1090 C1094 1.531 . S
C1091 C1090 1.369 . S
C1091 C1092 1.410 . S
C1091 C1099 1.503 . S
C1092 C1091 1.410 . S
C1092 C1093 1.392 . S
C1092 C1095 1.511 . S
C1093 C1089 1.376 . S
C1093 C1092 1.392 . S
C1093 H1105 0.929 . S
C1094 C1090 1.531 . S
C1094 H1106 0.960 . S
C1094 H1107 0.962 . S
C1094 H1108 0.960 . S
C1095 C1092 1.511 . S
C1095 H1109 0.961 . S
C1095 H1110 0.961 . S
C1095 H1111 0.961 . S
C1096 C1097 1.370 . S
C1096 C1098 1.363 . S
C1096 H1112 0.931 . S
C1097 C1096 1.370 . S
C1097 C1101 1.408 . S
C1098 C1096 1.363 . S
C1098 C1099 1.370 . S
C1098 C1102 1.524 . S
C1099 C1091 1.503 . S
C1099 C1098 1.370 . S
C1099 C1100 1.403 . S
C1100 C1099 1.403 . S
C1100 C1101 1.404 . S
C1100 C1103 1.539 . S
C1101 C1097 1.408 . S
C1101 C1100 1.404 . S
C1101 H1113 0.930 . S
C1102 C1098 1.524 . S
C1102 H1114 0.956 . S
C1102 H1115 0.961 . S
C1102 H1116 0.961 . S
C1103 C1100 1.539 . S
C1103 H1117 0.958 . S
C1103 H1118 0.961 . S
C1103 H1119 0.960 . S
H1104 C1088 0.931 . S
H1105 C1093 0.929 . S
H1106 C1094 0.960 . S
H1107 C1094 0.962 . S
H1108 C1094 0.960 . S
H1109 C1095 0.961 . S
H1110 C1095 0.961 . S
H1111 C1095 0.961 . S
H1112 C1096 0.931 . S
H1113 C1101 0.930 . S
H1114 C1102 0.956 . S
H1115 C1102 0.961 . S
H1116 C1102 0.961 . S
H1117 C1103 0.958 . S
H1118 C1103 0.961 . S
H1119 C1103 0.960 . S
C1120 C1121 1.391 . S
C1120 C1122 1.394 . S
C1120 H1136 0.931 1_554 S
C1121 C1120 1.391 . S
C1121 C1125 1.376 . S
C1122 C1120 1.394 . S
C1122 C1123 1.369 . S
C1122 C1126 1.531 . S
C1123 C1122 1.369 . S
C1123 C1124 1.410 . S
C1123 C1131 1.503 . S
C1124 C1123 1.410 . S
C1124 C1125 1.392 . S
C1124 C1127 1.511 . S
C1125 C1121 1.376 . S
C1125 C1124 1.392 . S
C1125 H1137 0.929 . S
C1126 C1122 1.531 . S
C1126 H1138 0.960 . S
C1126 H1139 0.962 . S
C1126 H1140 0.960 . S
C1127 C1124 1.511 . S
C1127 H1141 0.961 . S
C1127 H1142 0.961 . S
C1127 H1143 0.961 . S
C1128 C1129 1.370 . S
C1128 C1130 1.363 . S
C1128 H1144 0.931 . S
C1129 C1128 1.370 . S
C1129 C1133 1.408 . S
C1130 C1128 1.363 . S
C1130 C1131 1.370 . S
C1130 C1134 1.524 . S
C1131 C1123 1.503 . S
C1131 C1130 1.370 . S
C1131 C1132 1.403 . S
C1132 C1131 1.403 . S
C1132 C1133 1.404 . S
C1132 C1135 1.539 . S
C1133 C1129 1.408 . S
C1133 C1132 1.404 . S
C1133 H1145 0.930 . S
C1134 C1130 1.524 . S
C1134 H1146 0.956 . S
C1134 H1147 0.961 . S
C1134 H1148 0.961 . S
C1135 C1132 1.539 . S
C1135 H1149 0.958 . S
C1135 H1150 0.961 . S
C1135 H1151 0.960 . S
H1136 C1120 0.931 1_556 S
H1137 C1125 0.929 . S
H1138 C1126 0.960 . S
H1139 C1126 0.962 . S
H1140 C1126 0.960 . S
H1141 C1127 0.961 . S
H1142 C1127 0.961 . S
H1143 C1127 0.961 . S
H1144 C1128 0.931 . S
H1145 C1133 0.930 . S
H1146 C1134 0.956 . S
H1147 C1134 0.961 . S
H1148 C1134 0.961 . S
H1149 C1135 0.958 . S
H1150 C1135 0.961 . S
H1151 C1135 0.960 . S
C1152 C1153 1.391 . S
C1152 C1154 1.394 . S
C1152 H1168 0.931 . S
C1153 C1152 1.391 . S
C1153 C1157 1.376 . S
C1154 C1152 1.394 . S
C1154 C1155 1.369 . S
C1154 C1158 1.531 . S
C1155 C1154 1.369 . S
C1155 C1156 1.410 . S
C1155 C1163 1.503 . S
C1156 C1155 1.410 . S
C1156 C1157 1.392 . S
C1156 C1159 1.511 . S
C1157 C1153 1.376 . S
C1157 C1156 1.392 . S
C1157 H1169 0.929 . S
C1158 C1154 1.531 . S
C1158 H1170 0.960 . S
C1158 H1171 0.962 . S
C1158 H1172 0.960 . S
C1159 C1156 1.511 . S
C1159 H1173 0.961 . S
C1159 H1174 0.961 . S
C1159 H1175 0.961 . S
C1160 C1161 1.370 . S
C1160 C1162 1.363 . S
C1160 H1176 0.931 . S
C1161 C1160 1.370 . S
C1161 C1165 1.408 . S
C1162 C1160 1.363 . S
C1162 C1163 1.370 . S
C1162 C1166 1.524 . S
C1163 C1155 1.503 . S
C1163 C1162 1.370 . S
C1163 C1164 1.403 . S
C1164 C1163 1.403 . S
C1164 C1165 1.404 . S
C1164 C1167 1.539 . S
C1165 C1161 1.408 . S
C1165 C1164 1.404 . S
C1165 H1177 0.930 . S
C1166 C1162 1.524 . S
C1166 H1178 0.956 . S
C1166 H1179 0.961 . S
C1166 H1180 0.961 . S
C1167 C1164 1.539 . S
C1167 H1181 0.958 . S
C1167 H1182 0.961 . S
C1167 H1183 0.960 . S
H1168 C1152 0.931 . S
H1169 C1157 0.929 . S
H1170 C1158 0.960 . S
H1171 C1158 0.962 . S
H1172 C1158 0.960 . S
H1173 C1159 0.961 . S
H1174 C1159 0.961 . S
H1175 C1159 0.961 . S
H1176 C1160 0.931 . S
H1177 C1165 0.930 . S
H1178 C1166 0.956 . S
H1179 C1166 0.961 . S
H1180 C1166 0.961 . S
H1181 C1167 0.958 . S
H1182 C1167 0.961 . S
H1183 C1167 0.960 . S
C1184 C1185 1.391 . S
C1184 C1186 1.394 . S
C1184 H1200 0.931 . S
C1185 C1184 1.391 . S
C1185 C1189 1.376 . S
C1186 C1184 1.394 . S
C1186 C1187 1.369 . S
C1186 C1190 1.531 . S
C1187 C1186 1.369 . S
C1187 C1188 1.410 . S
C1187 C1195 1.503 . S
C1188 C1187 1.410 . S
C1188 C1189 1.392 . S
C1188 C1191 1.511 . S
C1189 C1185 1.376 . S
C1189 C1188 1.392 . S
C1189 H1201 0.929 . S
C1190 C1186 1.531 . S
C1190 H1202 0.960 . S
C1190 H1203 0.962 . S
C1190 H1204 0.960 . S
C1191 C1188 1.511 . S
C1191 H1205 0.961 . S
C1191 H1206 0.961 . S
C1191 H1207 0.961 . S
C1192 C1193 1.370 . S
C1192 C1194 1.363 . S
C1192 H1208 0.931 . S
C1193 C1192 1.370 . S
C1193 C1197 1.408 . S
C1194 C1192 1.363 . S
C1194 C1195 1.370 . S
C1194 C1198 1.524 . S
C1195 C1187 1.503 . S
C1195 C1194 1.370 . S
C1195 C1196 1.403 . S
C1196 C1195 1.403 . S
C1196 C1197 1.404 . S
C1196 C1199 1.539 . S
C1197 C1193 1.408 . S
C1197 C1196 1.404 . S
C1197 H1209 0.930 . S
C1198 C1194 1.524 . S
C1198 H1210 0.956 . S
C1198 H1211 0.961 . S
C1198 H1212 0.961 . S
C1199 C1196 1.539 . S
C1199 H1213 0.958 . S
C1199 H1214 0.961 . S
C1199 H1215 0.960 . S
H1200 C1184 0.931 . S
H1201 C1189 0.929 . S
H1202 C1190 0.960 . S
H1203 C1190 0.962 . S
H1204 C1190 0.960 . S
H1205 C1191 0.961 . S
H1206 C1191 0.961 . S
H1207 C1191 0.961 . S
H1208 C1192 0.931 . S
H1209 C1197 0.930 . S
H1210 C1198 0.956 . S
H1211 C1198 0.961 . S
H1212 C1198 0.961 . S
H1213 C1199 0.958 . S
H1214 C1199 0.961 . S
H1215 C1199 0.960 . S
C1216 C1217 1.391 . S
C1216 C1218 1.394 . S
C1216 H1232 0.931 . S
C1217 C1216 1.391 . S
C1217 C1221 1.376 . S
C1218 C1216 1.394 . S
C1218 C1219 1.369 . S
C1218 C1222 1.531 . S
C1219 C1218 1.369 . S
C1219 C1220 1.410 . S
C1219 C1227 1.503 . S
C1220 C1219 1.410 . S
C1220 C1221 1.392 . S
C1220 C1223 1.511 . S
C1221 C1217 1.376 . S
C1221 C1220 1.392 . S
C1221 H1233 0.929 1_554 S
C1222 C1218 1.531 . S
C1222 H1234 0.960 . S
C1222 H1235 0.962 . S
C1222 H1236 0.960 . S
C1223 C1220 1.511 . S
C1223 H1237 0.961 . S
C1223 H1238 0.961 . S
C1223 H1239 0.961 . S
C1224 C1225 1.370 . S
C1224 C1226 1.363 . S
C1224 H1240 0.931 . S
C1225 C1224 1.370 . S
C1225 C1229 1.408 . S
C1226 C1224 1.363 . S
C1226 C1227 1.370 . S
C1226 C1230 1.524 . S
C1227 C1219 1.503 . S
C1227 C1226 1.370 . S
C1227 C1228 1.403 . S
C1228 C1227 1.403 . S
C1228 C1229 1.404 . S
C1228 C1231 1.539 . S
C1229 C1225 1.408 . S
C1229 C1228 1.404 . S
C1229 H1241 0.930 . S
C1230 C1226 1.524 . S
C1230 H1242 0.956 . S
C1230 H1243 0.961 . S
C1230 H1244 0.961 . S
C1231 C1228 1.539 . S
C1231 H1245 0.958 . S
C1231 H1246 0.961 . S
C1231 H1247 0.960 . S
H1232 C1216 0.931 . S
H1233 C1221 0.929 1_556 S
H1234 C1222 0.960 . S
H1235 C1222 0.962 . S
H1236 C1222 0.960 . S
H1237 C1223 0.961 . S
H1238 C1223 0.961 . S
H1239 C1223 0.961 . S
H1240 C1224 0.931 . S
H1241 C1229 0.930 . S
H1242 C1230 0.956 . S
H1243 C1230 0.961 . S
H1244 C1230 0.961 . S
H1245 C1231 0.958 . S
H1246 C1231 0.961 . S
H1247 C1231 0.960 . S
C1248 C1249 1.391 . S
C1248 C1250 1.394 . S
C1248 H1264 0.931 . S
C1249 C1248 1.391 . S
C1249 C1253 1.376 . S
C1250 C1248 1.394 . S
C1250 C1251 1.369 . S
C1250 C1254 1.531 . S
C1251 C1250 1.369 . S
C1251 C1252 1.410 . S
C1251 C1259 1.503 . S
C1252 C1251 1.410 . S
C1252 C1253 1.392 . S
C1252 C1255 1.511 . S
C1253 C1249 1.376 . S
C1253 C1252 1.392 . S
C1253 H1265 0.929 . S
C1254 C1250 1.531 . S
C1254 H1266 0.960 . S
C1254 H1267 0.962 . S
C1254 H1268 0.960 . S
C1255 C1252 1.511 . S
C1255 H1269 0.961 . S
C1255 H1270 0.961 . S
C1255 H1271 0.961 . S
C1256 C1257 1.370 . S
C1256 C1258 1.363 . S
C1256 H1272 0.931 . S
C1257 C1256 1.370 . S
C1257 C1261 1.408 . S
C1258 C1256 1.363 . S
C1258 C1259 1.370 . S
C1258 C1262 1.524 . S
C1259 C1251 1.503 . S
C1259 C1258 1.370 . S
C1259 C1260 1.403 . S
C1260 C1259 1.403 . S
C1260 C1261 1.404 . S
C1260 C1263 1.539 . S
C1261 C1257 1.408 . S
C1261 C1260 1.404 . S
C1261 H1273 0.930 . S
C1262 C1258 1.524 . S
C1262 H1274 0.956 . S
C1262 H1275 0.961 . S
C1262 H1276 0.961 . S
C1263 C1260 1.539 . S
C1263 H1277 0.958 . S
C1263 H1278 0.961 . S
C1263 H1279 0.960 . S
H1264 C1248 0.931 . S
H1265 C1253 0.929 . S
H1266 C1254 0.960 . S
H1267 C1254 0.962 . S
H1268 C1254 0.960 . S
H1269 C1255 0.961 . S
H1270 C1255 0.961 . S
H1271 C1255 0.961 . S
H1272 C1256 0.931 . S
H1273 C1261 0.930 . S
H1274 C1262 0.956 . S
H1275 C1262 0.961 . S
H1276 C1262 0.961 . S
H1277 C1263 0.958 . S
H1278 C1263 0.961 . S
H1279 C1263 0.960 . S
C1280 C1281 1.391 . S
C1280 C1282 1.394 . S
C1280 H1296 0.931 . S
C1281 C1280 1.391 . S
C1281 C1285 1.376 . S
C1282 C1280 1.394 . S
C1282 C1283 1.369 . S
C1282 C1286 1.531 . S
C1283 C1282 1.369 . S
C1283 C1284 1.410 . S
C1283 C1291 1.503 . S
C1284 C1283 1.410 . S
C1284 C1285 1.392 . S
C1284 C1287 1.511 . S
C1285 C1281 1.376 . S
C1285 C1284 1.392 . S
C1285 H1297 0.929 . S
C1286 C1282 1.531 . S
C1286 H1298 0.960 . S
C1286 H1299 0.962 . S
C1286 H1300 0.960 . S
C1287 C1284 1.511 . S
C1287 H1301 0.961 . S
C1287 H1302 0.961 . S
C1287 H1303 0.961 . S
C1288 C1289 1.370 . S
C1288 C1290 1.363 . S
C1288 H1304 0.931 . S
C1289 C1288 1.370 . S
C1289 C1293 1.408 . S
C1290 C1288 1.363 . S
C1290 C1291 1.370 . S
C1290 C1294 1.524 . S
C1291 C1283 1.503 . S
C1291 C1290 1.370 . S
C1291 C1292 1.403 . S
C1292 C1291 1.403 . S
C1292 C1293 1.404 . S
C1292 C1295 1.539 . S
C1293 C1289 1.408 . S
C1293 C1292 1.404 . S
C1293 H1305 0.930 . S
C1294 C1290 1.524 . S
C1294 H1306 0.956 . S
C1294 H1307 0.961 . S
C1294 H1308 0.961 . S
C1295 C1292 1.539 . S
C1295 H1309 0.958 . S
C1295 H1310 0.961 . S
C1295 H1311 0.960 . S
H1296 C1280 0.931 . S
H1297 C1285 0.929 . S
H1298 C1286 0.960 . S
H1299 C1286 0.962 . S
H1300 C1286 0.960 . S
H1301 C1287 0.961 . S
H1302 C1287 0.961 . S
H1303 C1287 0.961 . S
H1304 C1288 0.931 . S
H1305 C1293 0.930 . S
H1306 C1294 0.956 . S
H1307 C1294 0.961 . S
H1308 C1294 0.961 . S
H1309 C1295 0.958 . S
H1310 C1295 0.961 . S
H1311 C1295 0.960 . S
C1312 C1313 1.391 . S
C1312 C1314 1.394 . S
C1312 H1328 0.931 . S
C1313 C1312 1.391 . S
C1313 C1317 1.376 . S
C1314 C1312 1.394 . S
C1314 C1315 1.369 . S
C1314 C1318 1.531 . S
C1315 C1314 1.369 . S
C1315 C1316 1.410 . S
C1315 C1323 1.503 . S
C1316 C1315 1.410 . S
C1316 C1317 1.392 . S
C1316 C1319 1.511 . S
C1317 C1313 1.376 . S
C1317 C1316 1.392 . S
C1317 H1329 0.929 . S
C1318 C1314 1.531 . S
C1318 H1330 0.960 . S
C1318 H1331 0.962 . S
C1318 H1332 0.960 . S
C1319 C1316 1.511 . S
C1319 H1333 0.961 . S
C1319 H1334 0.961 . S
C1319 H1335 0.961 . S
C1320 C1321 1.370 . S
C1320 C1322 1.363 . S
C1320 H1336 0.931 . S
C1321 C1320 1.370 . S
C1321 C1325 1.408 . S
C1322 C1320 1.363 . S
C1322 C1323 1.370 . S
C1322 C1326 1.524 . S
C1323 C1315 1.503 . S
C1323 C1322 1.370 . S
C1323 C1324 1.403 . S
C1324 C1323 1.403 . S
C1324 C1325 1.404 . S
C1324 C1327 1.539 . S
C1325 C1321 1.408 . S
C1325 C1324 1.404 . S
C1325 H1337 0.930 . S
C1326 C1322 1.524 . S
C1326 H1338 0.956 . S
C1326 H1339 0.961 . S
C1326 H1340 0.961 . S
C1327 C1324 1.539 . S
C1327 H1341 0.958 . S
C1327 H1342 0.961 . S
C1327 H1343 0.960 . S
H1328 C1312 0.931 . S
H1329 C1317 0.929 . S
H1330 C1318 0.960 . S
H1331 C1318 0.962 . S
H1332 C1318 0.960 . S
H1333 C1319 0.961 . S
H1334 C1319 0.961 . S
H1335 C1319 0.961 . S
H1336 C1320 0.931 . S
H1337 C1325 0.930 . S
H1338 C1326 0.956 . S
H1339 C1326 0.961 . S
H1340 C1326 0.961 . S
H1341 C1327 0.958 . S
H1342 C1327 0.961 . S
H1343 C1327 0.960 . S
C1344 C1345 1.391 . S
C1344 C1346 1.394 . S
C1344 H1360 0.931 . S
C1345 C1344 1.391 . S
C1345 C1349 1.376 . S
C1346 C1344 1.394 . S
C1346 C1347 1.369 . S
C1346 C1350 1.531 . S
C1347 C1346 1.369 . S
C1347 C1348 1.410 . S
C1347 C1355 1.503 . S
C1348 C1347 1.410 . S
C1348 C1349 1.392 . S
C1348 C1351 1.511 . S
C1349 C1345 1.376 . S
C1349 C1348 1.392 . S
C1349 H1361 0.929 . S
C1350 C1346 1.531 . S
C1350 H1362 0.960 . S
C1350 H1363 0.962 . S
C1350 H1364 0.960 . S
C1351 C1348 1.511 . S
C1351 H1365 0.961 . S
C1351 H1366 0.961 . S
C1351 H1367 0.961 . S
C1352 C1353 1.370 . S
C1352 C1354 1.363 . S
C1352 H1368 0.931 . S
C1353 C1352 1.370 . S
C1353 C1357 1.408 . S
C1354 C1352 1.363 . S
C1354 C1355 1.370 . S
C1354 C1358 1.524 . S
C1355 C1347 1.503 . S
C1355 C1354 1.370 . S
C1355 C1356 1.403 . S
C1356 C1355 1.403 . S
C1356 C1357 1.404 . S
C1356 C1359 1.539 . S
C1357 C1353 1.408 . S
C1357 C1356 1.404 . S
C1357 H1369 0.930 . S
C1358 C1354 1.524 . S
C1358 H1370 0.956 . S
C1358 H1371 0.961 . S
C1358 H1372 0.961 . S
C1359 C1356 1.539 . S
C1359 H1373 0.958 . S
C1359 H1374 0.961 . S
C1359 H1375 0.960 . S
H1360 C1344 0.931 . S
H1361 C1349 0.929 . S
H1362 C1350 0.960 . S
H1363 C1350 0.962 . S
H1364 C1350 0.960 . S
H1365 C1351 0.961 . S
H1366 C1351 0.961 . S
H1367 C1351 0.961 . S
H1368 C1352 0.931 . S
H1369 C1357 0.930 . S
H1370 C1358 0.956 . S
H1371 C1358 0.961 . S
H1372 C1358 0.961 . S
H1373 C1359 0.958 . S
H1374 C1359 0.961 . S
H1375 C1359 0.960 . S
C1376 C1377 1.391 . S
C1376 C1378 1.394 . S
C1376 H1392 0.931 . S
C1377 C1376 1.391 . S
C1377 C1381 1.376 . S
C1378 C1376 1.394 . S
C1378 C1379 1.369 . S
C1378 C1382 1.531 . S
C1379 C1378 1.369 . S
C1379 C1380 1.410 . S
C1379 C1387 1.503 . S
C1380 C1379 1.410 . S
C1380 C1381 1.392 . S
C1380 C1383 1.511 . S
C1381 C1377 1.376 . S
C1381 C1380 1.392 . S
C1381 H1393 0.929 . S
C1382 C1378 1.531 . S
C1382 H1394 0.960 . S
C1382 H1395 0.962 . S
C1382 H1396 0.960 . S
C1383 C1380 1.511 . S
C1383 H1397 0.961 . S
C1383 H1398 0.961 . S
C1383 H1399 0.961 . S
C1384 C1385 1.370 . S
C1384 C1386 1.363 . S
C1384 H1400 0.931 . S
C1385 C1384 1.370 . S
C1385 C1389 1.408 . S
C1386 C1384 1.363 . S
C1386 C1387 1.370 . S
C1386 C1390 1.524 . S
C1387 C1379 1.503 . S
C1387 C1386 1.370 . S
C1387 C1388 1.403 . S
C1388 C1387 1.403 . S
C1388 C1389 1.404 . S
C1388 C1391 1.539 . S
C1389 C1385 1.408 . S
C1389 C1388 1.404 . S
C1389 H1401 0.930 . S
C1390 C1386 1.524 . S
C1390 H1402 0.956 . S
C1390 H1403 0.961 . S
C1390 H1404 0.961 . S
C1391 C1388 1.539 . S
C1391 H1405 0.958 . S
C1391 H1406 0.961 . S
C1391 H1407 0.960 . S
H1392 C1376 0.931 . S
H1393 C1381 0.929 . S
H1394 C1382 0.960 . S
H1395 C1382 0.962 . S
H1396 C1382 0.960 . S
H1397 C1383 0.961 . S
H1398 C1383 0.961 . S
H1399 C1383 0.961 . S
H1400 C1384 0.931 . S
H1401 C1389 0.930 . S
H1402 C1390 0.956 . S
H1403 C1390 0.961 . S
H1404 C1390 0.961 . S
H1405 C1391 0.958 . S
H1406 C1391 0.961 . S
H1407 C1391 0.960 . S
C1408 C1409 1.391 . S
C1408 C1410 1.394 . S
C1408 H1424 0.931 . S
C1409 C1408 1.391 . S
C1409 C1413 1.376 . S
C1410 C1408 1.394 . S
C1410 C1411 1.369 . S
C1410 C1414 1.531 . S
C1411 C1410 1.369 . S
C1411 C1412 1.410 . S
C1411 C1419 1.503 . S
C1412 C1411 1.410 . S
C1412 C1413 1.392 . S
C1412 C1415 1.511 . S
C1413 C1409 1.376 . S
C1413 C1412 1.392 . S
C1413 H1425 0.929 . S
C1414 C1410 1.531 . S
C1414 H1426 0.960 . S
C1414 H1427 0.962 . S
C1414 H1428 0.960 . S
C1415 C1412 1.511 . S
C1415 H1429 0.961 . S
C1415 H1430 0.961 . S
C1415 H1431 0.961 . S
C1416 C1417 1.370 . S
C1416 C1418 1.363 . S
C1416 H1432 0.931 . S
C1417 C1416 1.370 . S
C1417 C1421 1.408 . S
C1418 C1416 1.363 . S
C1418 C1419 1.370 . S
C1418 C1422 1.524 . S
C1419 C1411 1.503 . S
C1419 C1418 1.370 . S
C1419 C1420 1.403 . S
C1420 C1419 1.403 . S
C1420 C1421 1.404 . S
C1420 C1423 1.539 . S
C1421 C1417 1.408 . S
C1421 C1420 1.404 . S
C1421 H1433 0.930 . S
C1422 C1418 1.524 . S
C1422 H1434 0.956 . S
C1422 H1435 0.961 . S
C1422 H1436 0.961 . S
C1423 C1420 1.539 . S
C1423 H1437 0.958 . S
C1423 H1438 0.961 . S
C1423 H1439 0.960 . S
H1424 C1408 0.931 . S
H1425 C1413 0.929 . S
H1426 C1414 0.960 . S
H1427 C1414 0.962 . S
H1428 C1414 0.960 . S
H1429 C1415 0.961 . S
H1430 C1415 0.961 . S
H1431 C1415 0.961 . S
H1432 C1416 0.931 . S
H1433 C1421 0.930 . S
H1434 C1422 0.956 . S
H1435 C1422 0.961 . S
H1436 C1422 0.961 . S
H1437 C1423 0.958 . S
H1438 C1423 0.961 . S
H1439 C1423 0.960 . S
C1440 C1441 1.391 . S
C1440 C1442 1.394 . S
C1440 H1456 0.931 . S
C1441 C1440 1.391 . S
C1441 C1445 1.376 . S
C1442 C1440 1.394 . S
C1442 C1443 1.369 . S
C1442 C1446 1.531 . S
C1443 C1442 1.369 . S
C1443 C1444 1.410 . S
C1443 C1451 1.503 . S
C1444 C1443 1.410 . S
C1444 C1445 1.392 . S
C1444 C1447 1.511 . S
C1445 C1441 1.376 . S
C1445 C1444 1.392 . S
C1445 H1457 0.929 . S
C1446 C1442 1.531 . S
C1446 H1458 0.960 . S
C1446 H1459 0.962 . S
C1446 H1460 0.960 . S
C1447 C1444 1.511 . S
C1447 H1461 0.961 . S
C1447 H1462 0.961 . S
C1447 H1463 0.961 . S
C1448 C1449 1.370 . S
C1448 C1450 1.363 . S
C1448 H1464 0.931 . S
C1449 C1448 1.370 . S
C1449 C1453 1.408 . S
C1450 C1448 1.363 . S
C1450 C1451 1.370 . S
C1450 C1454 1.524 . S
C1451 C1443 1.503 . S
C1451 C1450 1.370 . S
C1451 C1452 1.403 . S
C1452 C1451 1.403 . S
C1452 C1453 1.404 . S
C1452 C1455 1.539 . S
C1453 C1449 1.408 . S
C1453 C1452 1.404 . S
C1453 H1465 0.930 . S
C1454 C1450 1.524 . S
C1454 H1466 0.956 . S
C1454 H1467 0.961 . S
C1454 H1468 0.961 . S
C1455 C1452 1.539 . S
C1455 H1469 0.958 . S
C1455 H1470 0.961 . S
C1455 H1471 0.960 . S
H1456 C1440 0.931 . S
H1457 C1445 0.929 . S
H1458 C1446 0.960 . S
H1459 C1446 0.962 . S
H1460 C1446 0.960 . S
H1461 C1447 0.961 . S
H1462 C1447 0.961 . S
H1463 C1447 0.961 . S
H1464 C1448 0.931 . S
H1465 C1453 0.930 . S
H1466 C1454 0.956 . S
H1467 C1454 0.961 . S
H1468 C1454 0.961 . S
H1469 C1455 0.958 . S
H1470 C1455 0.961 . S
H1471 C1455 0.960 . S
C1472 C1473 1.391 . S
C1472 C1474 1.394 . S
C1472 H1488 0.931 . S
C1473 C1472 1.391 . S
C1473 C1477 1.376 . S
C1474 C1472 1.394 . S
C1474 C1475 1.369 . S
C1474 C1478 1.531 . S
C1475 C1474 1.369 . S
C1475 C1476 1.410 . S
C1475 C1483 1.503 . S
C1476 C1475 1.410 . S
C1476 C1477 1.392 . S
C1476 C1479 1.511 . S
C1477 C1473 1.376 . S
C1477 C1476 1.392 . S
C1477 H1489 0.929 . S
C1478 C1474 1.531 . S
C1478 H1490 0.960 . S
C1478 H1491 0.962 . S
C1478 H1492 0.960 . S
C1479 C1476 1.511 . S
C1479 H1493 0.961 . S
C1479 H1494 0.961 . S
C1479 H1495 0.961 . S
C1480 C1481 1.370 . S
C1480 C1482 1.363 . S
C1480 H1496 0.931 . S
C1481 C1480 1.370 . S
C1481 C1485 1.408 . S
C1482 C1480 1.363 . S
C1482 C1483 1.370 . S
C1482 C1486 1.524 . S
C1483 C1475 1.503 . S
C1483 C1482 1.370 . S
C1483 C1484 1.403 . S
C1484 C1483 1.403 . S
C1484 C1485 1.404 . S
C1484 C1487 1.539 . S
C1485 C1481 1.408 . S
C1485 C1484 1.404 . S
C1485 H1497 0.930 1_554 S
C1486 C1482 1.524 . S
C1486 H1498 0.956 . S
C1486 H1499 0.961 . S
C1486 H1500 0.961 . S
C1487 C1484 1.539 . S
C1487 H1501 0.958 . S
C1487 H1502 0.961 1_554 S
C1487 H1503 0.960 . S
H1488 C1472 0.931 . S
H1489 C1477 0.929 . S
H1490 C1478 0.960 . S
H1491 C1478 0.962 . S
H1492 C1478 0.960 . S
H1493 C1479 0.961 . S
H1494 C1479 0.961 . S
H1495 C1479 0.961 . S
H1496 C1480 0.931 . S
H1497 C1485 0.930 1_556 S
H1498 C1486 0.956 . S
H1499 C1486 0.961 . S
H1500 C1486 0.961 . S
H1501 C1487 0.958 . S
H1502 C1487 0.961 1_556 S
H1503 C1487 0.960 . S
C1504 C1505 1.391 . S
C1504 C1506 1.394 . S
C1504 H1520 0.931 . S
C1505 C1504 1.391 . S
C1505 C1509 1.376 . S
C1506 C1504 1.394 . S
C1506 C1507 1.369 . S
C1506 C1510 1.531 . S
C1507 C1506 1.369 . S
C1507 C1508 1.410 . S
C1507 C1515 1.503 . S
C1508 C1507 1.410 . S
C1508 C1509 1.392 . S
C1508 C1511 1.511 . S
C1509 C1505 1.376 . S
C1509 C1508 1.392 . S
C1509 H1521 0.929 . S
C1510 C1506 1.531 . S
C1510 H1522 0.960 . S
C1510 H1523 0.962 . S
C1510 H1524 0.960 . S
C1511 C1508 1.511 . S
C1511 H1525 0.961 . S
C1511 H1526 0.961 . S
C1511 H1527 0.961 . S
C1512 C1513 1.370 . S
C1512 C1514 1.363 . S
C1512 H1528 0.931 . S
C1513 C1512 1.370 . S
C1513 C1517 1.408 . S
C1514 C1512 1.363 . S
C1514 C1515 1.370 . S
C1514 C1518 1.524 . S
C1515 C1507 1.503 . S
C1515 C1514 1.370 . S
C1515 C1516 1.403 . S
C1516 C1515 1.403 . S
C1516 C1517 1.404 . S
C1516 C1519 1.539 . S
C1517 C1513 1.408 . S
C1517 C1516 1.404 . S
C1517 H1529 0.930 1_556 S
C1518 C1514 1.524 . S
C1518 H1530 0.956 . S
C1518 H1531 0.961 . S
C1518 H1532 0.961 . S
C1519 C1516 1.539 . S
C1519 H1533 0.958 . S
C1519 H1534 0.961 . S
C1519 H1535 0.960 . S
H1520 C1504 0.931 . S
H1521 C1509 0.929 . S
H1522 C1510 0.960 . S
H1523 C1510 0.962 . S
H1524 C1510 0.960 . S
H1525 C1511 0.961 . S
H1526 C1511 0.961 . S
H1527 C1511 0.961 . S
H1528 C1512 0.931 . S
H1529 C1517 0.930 1_554 S
H1530 C1518 0.956 . S
H1531 C1518 0.961 . S
H1532 C1518 0.961 . S
H1533 C1519 0.958 . S
H1534 C1519 0.961 . S
H1535 C1519 0.960 . S
C1536 C1537 1.391 . S
C1536 C1538 1.394 . S
C1536 H1552 0.931 . S
C1537 C1536 1.391 . S
C1537 C1541 1.376 . S
C1538 C1536 1.394 . S
C1538 C1539 1.369 . S
C1538 C1542 1.531 . S
C1539 C1538 1.369 . S
C1539 C1540 1.410 . S
C1539 C1547 1.503 . S
C1540 C1539 1.410 . S
C1540 C1541 1.392 . S
C1540 C1543 1.511 . S
C1541 C1537 1.376 . S
C1541 C1540 1.392 . S
C1541 H1553 0.929 . S
C1542 C1538 1.531 . S
C1542 H1554 0.960 . S
C1542 H1555 0.962 . S
C1542 H1556 0.960 . S
C1543 C1540 1.511 . S
C1543 H1557 0.961 . S
C1543 H1558 0.961 . S
C1543 H1559 0.961 . S
C1544 C1545 1.370 . S
C1544 C1546 1.363 . S
C1544 H1560 0.931 . S
C1545 C1544 1.370 . S
C1545 C1549 1.408 . S
C1546 C1544 1.363 . S
C1546 C1547 1.370 . S
C1546 C1550 1.524 . S
C1547 C1539 1.503 . S
C1547 C1546 1.370 . S
C1547 C1548 1.403 . S
C1548 C1547 1.403 . S
C1548 C1549 1.404 . S
C1548 C1551 1.539 . S
C1549 C1545 1.408 . S
C1549 C1548 1.404 . S
C1549 H1561 0.930 . S
C1550 C1546 1.524 . S
C1550 H1562 0.956 . S
C1550 H1563 0.961 . S
C1550 H1564 0.961 . S
C1551 C1548 1.539 . S
C1551 H1565 0.958 . S
C1551 H1566 0.961 . S
C1551 H1567 0.960 . S
H1552 C1536 0.931 . S
H1553 C1541 0.929 . S
H1554 C1542 0.960 . S
H1555 C1542 0.962 . S
H1556 C1542 0.960 . S
H1557 C1543 0.961 . S
H1558 C1543 0.961 . S
H1559 C1543 0.961 . S
H1560 C1544 0.931 . S
H1561 C1549 0.930 . S
H1562 C1550 0.956 . S
H1563 C1550 0.961 . S
H1564 C1550 0.961 . S
H1565 C1551 0.958 . S
H1566 C1551 0.961 . S
H1567 C1551 0.960 . S
C1568 C1569 1.391 . S
C1568 C1570 1.394 . S
C1568 H1584 0.931 1_554 S
C1569 C1568 1.391 . S
C1569 C1573 1.376 . S
C1570 C1568 1.394 . S
C1570 C1571 1.369 . S
C1570 C1574 1.531 . S
C1571 C1570 1.369 . S
C1571 C1572 1.410 . S
C1571 C1579 1.503 . S
C1572 C1571 1.410 . S
C1572 C1573 1.392 . S
C1572 C1575 1.511 . S
C1573 C1569 1.376 . S
C1573 C1572 1.392 . S
C1573 H1585 0.929 . S
C1574 C1570 1.531 . S
C1574 H1586 0.960 . S
C1574 H1587 0.962 . S
C1574 H1588 0.960 . S
C1575 C1572 1.511 . S
C1575 H1589 0.961 . S
C1575 H1590 0.961 . S
C1575 H1591 0.961 . S
C1576 C1577 1.370 . S
C1576 C1578 1.363 . S
C1576 H1592 0.931 . S
C1577 C1576 1.370 . S
C1577 C1581 1.408 . S
C1578 C1576 1.363 . S
C1578 C1579 1.370 . S
C1578 C1582 1.524 . S
C1579 C1571 1.503 . S
C1579 C1578 1.370 . S
C1579 C1580 1.403 . S
C1580 C1579 1.403 . S
C1580 C1581 1.404 . S
C1580 C1583 1.539 . S
C1581 C1577 1.408 . S
C1581 C1580 1.404 . S
C1581 H1593 0.930 . S
C1582 C1578 1.524 . S
C1582 H1594 0.956 . S
C1582 H1595 0.961 . S
C1582 H1596 0.961 . S
C1583 C1580 1.539 . S
C1583 H1597 0.958 . S
C1583 H1598 0.961 . S
C1583 H1599 0.960 . S
H1584 C1568 0.931 1_556 S
H1585 C1573 0.929 . S
H1586 C1574 0.960 . S
H1587 C1574 0.962 . S
H1588 C1574 0.960 . S
H1589 C1575 0.961 . S
H1590 C1575 0.961 . S
H1591 C1575 0.961 . S
H1592 C1576 0.931 . S
H1593 C1581 0.930 . S
H1594 C1582 0.956 . S
H1595 C1582 0.961 . S
H1596 C1582 0.961 . S
H1597 C1583 0.958 . S
H1598 C1583 0.961 . S
H1599 C1583 0.960 . S
C1600 C1601 1.391 . S
C1600 C1602 1.394 . S
C1600 H1616 0.931 . S
C1601 C1600 1.391 . S
C1601 C1605 1.376 . S
C1602 C1600 1.394 . S
C1602 C1603 1.369 . S
C1602 C1606 1.531 . S
C1603 C1602 1.369 . S
C1603 C1604 1.410 . S
C1603 C1611 1.503 . S
C1604 C1603 1.410 . S
C1604 C1605 1.392 . S
C1604 C1607 1.511 . S
C1605 C1601 1.376 . S
C1605 C1604 1.392 . S
C1605 H1617 0.929 . S
C1606 C1602 1.531 . S
C1606 H1618 0.960 . S
C1606 H1619 0.962 . S
C1606 H1620 0.960 . S
C1607 C1604 1.511 . S
C1607 H1621 0.961 . S
C1607 H1622 0.961 . S
C1607 H1623 0.961 . S
C1608 C1609 1.370 . S
C1608 C1610 1.363 . S
C1608 H1624 0.931 . S
C1609 C1608 1.370 . S
C1609 C1613 1.408 . S
C1610 C1608 1.363 . S
C1610 C1611 1.370 . S
C1610 C1614 1.524 . S
C1611 C1603 1.503 . S
C1611 C1610 1.370 . S
C1611 C1612 1.403 . S
C1612 C1611 1.403 . S
C1612 C1613 1.404 . S
C1612 C1615 1.539 . S
C1613 C1609 1.408 . S
C1613 C1612 1.404 . S
C1613 H1625 0.930 . S
C1614 C1610 1.524 . S
C1614 H1626 0.956 . S
C1614 H1627 0.961 . S
C1614 H1628 0.961 . S
C1615 C1612 1.539 . S
C1615 H1629 0.958 . S
C1615 H1630 0.961 . S
C1615 H1631 0.960 . S
H1616 C1600 0.931 . S
H1617 C1605 0.929 . S
H1618 C1606 0.960 . S
H1619 C1606 0.962 . S
H1620 C1606 0.960 . S
H1621 C1607 0.961 . S
H1622 C1607 0.961 . S
H1623 C1607 0.961 . S
H1624 C1608 0.931 . S
H1625 C1613 0.930 . S
H1626 C1614 0.956 . S
H1627 C1614 0.961 . S
H1628 C1614 0.961 . S
H1629 C1615 0.958 . S
H1630 C1615 0.961 . S
H1631 C1615 0.960 . S
C1632 C1633 1.391 . S
C1632 C1634 1.394 . S
C1632 H1648 0.931 . S
C1633 C1632 1.391 . S
C1633 C1637 1.376 . S
C1634 C1632 1.394 . S
C1634 C1635 1.369 . S
C1634 C1638 1.531 . S
C1635 C1634 1.369 . S
C1635 C1636 1.410 . S
C1635 C1643 1.503 . S
C1636 C1635 1.410 . S
C1636 C1637 1.392 . S
C1636 C1639 1.511 . S
C1637 C1633 1.376 . S
C1637 C1636 1.392 . S
C1637 H1649 0.929 . S
C1638 C1634 1.531 . S
C1638 H1650 0.960 . S
C1638 H1651 0.962 . S
C1638 H1652 0.960 . S
C1639 C1636 1.511 . S
C1639 H1653 0.961 . S
C1639 H1654 0.961 . S
C1639 H1655 0.961 . S
C1640 C1641 1.370 . S
C1640 C1642 1.363 . S
C1640 H1656 0.931 . S
C1641 C1640 1.370 . S
C1641 C1645 1.408 . S
C1642 C1640 1.363 . S
C1642 C1643 1.370 . S
C1642 C1646 1.524 . S
C1643 C1635 1.503 . S
C1643 C1642 1.370 . S
C1643 C1644 1.403 . S
C1644 C1643 1.403 . S
C1644 C1645 1.404 . S
C1644 C1647 1.539 . S
C1645 C1641 1.408 . S
C1645 C1644 1.404 . S
C1645 H1657 0.930 . S
C1646 C1642 1.524 . S
C1646 H1658 0.956 . S
C1646 H1659 0.961 . S
C1646 H1660 0.961 . S
C1647 C1644 1.539 . S
C1647 H1661 0.958 . S
C1647 H1662 0.961 . S
C1647 H1663 0.960 . S
H1648 C1632 0.931 . S
H1649 C1637 0.929 . S
H1650 C1638 0.960 . S
H1651 C1638 0.962 . S
H1652 C1638 0.960 . S
H1653 C1639 0.961 . S
H1654 C1639 0.961 . S
H1655 C1639 0.961 . S
H1656 C1640 0.931 . S
H1657 C1645 0.930 . S
H1658 C1646 0.956 . S
H1659 C1646 0.961 . S
H1660 C1646 0.961 . S
H1661 C1647 0.958 . S
H1662 C1647 0.961 . S
H1663 C1647 0.960 . S
C1664 C1665 1.391 . S
C1664 C1666 1.394 . S
C1664 H1680 0.931 . S
C1665 C1664 1.391 . S
C1665 C1669 1.376 . S
C1666 C1664 1.394 . S
C1666 C1667 1.369 . S
C1666 C1670 1.531 . S
C1667 C1666 1.369 . S
C1667 C1668 1.410 . S
C1667 C1675 1.503 . S
C1668 C1667 1.410 . S
C1668 C1669 1.392 . S
C1668 C1671 1.511 . S
C1669 C1665 1.376 . S
C1669 C1668 1.392 . S
C1669 H1681 0.929 1_556 S
C1670 C1666 1.531 . S
C1670 H1682 0.960 . S
C1670 H1683 0.962 . S
C1670 H1684 0.960 . S
C1671 C1668 1.511 . S
C1671 H1685 0.961 1_556 S
C1671 H1686 0.961 . S
C1671 H1687 0.961 . S
C1672 C1673 1.370 . S
C1672 C1674 1.363 . S
C1672 H1688 0.931 . S
C1673 C1672 1.370 . S
C1673 C1677 1.408 . S
C1674 C1672 1.363 . S
C1674 C1675 1.370 . S
C1674 C1678 1.524 . S
C1675 C1667 1.503 . S
C1675 C1674 1.370 . S
C1675 C1676 1.403 . S
C1676 C1675 1.403 . S
C1676 C1677 1.404 . S
C1676 C1679 1.539 . S
C1677 C1673 1.408 . S
C1677 C1676 1.404 . S
C1677 H1689 0.930 . S
C1678 C1674 1.524 . S
C1678 H1690 0.956 . S
C1678 H1691 0.961 . S
C1678 H1692 0.961 . S
C1679 C1676 1.539 . S
C1679 H1693 0.958 . S
C1679 H1694 0.961 . S
C1679 H1695 0.960 . S
H1680 C1664 0.931 . S
H1681 C1669 0.929 1_554 S
H1682 C1670 0.960 . S
H1683 C1670 0.962 . S
H1684 C1670 0.960 . S
H1685 C1671 0.961 1_554 S
H1686 C1671 0.961 . S
H1687 C1671 0.961 . S
H1688 C1672 0.931 . S
H1689 C1677 0.930 . S
H1690 C1678 0.956 . S
H1691 C1678 0.961 . S
H1692 C1678 0.961 . S
H1693 C1679 0.958 . S
H1694 C1679 0.961 . S
H1695 C1679 0.960 . S
C1696 C1697 1.391 . S
C1696 C1698 1.394 . S
C1696 H1712 0.931 . S
C1697 C1696 1.391 . S
C1697 C1701 1.376 . S
C1698 C1696 1.394 . S
C1698 C1699 1.369 . S
C1698 C1702 1.531 . S
C1699 C1698 1.369 . S
C1699 C1700 1.410 . S
C1699 C1707 1.503 . S
C1700 C1699 1.410 . S
C1700 C1701 1.392 . S
C1700 C1703 1.511 . S
C1701 C1697 1.376 . S
C1701 C1700 1.392 . S
C1701 H1713 0.929 . S
C1702 C1698 1.531 . S
C1702 H1714 0.960 . S
C1702 H1715 0.962 . S
C1702 H1716 0.960 . S
C1703 C1700 1.511 . S
C1703 H1717 0.961 . S
C1703 H1718 0.961 . S
C1703 H1719 0.961 . S
C1704 C1705 1.370 . S
C1704 C1706 1.363 . S
C1704 H1720 0.931 1_556 S
C1705 C1704 1.370 . S
C1705 C1709 1.408 . S
C1706 C1704 1.363 . S
C1706 C1707 1.370 . S
C1706 C1710 1.524 . S
C1707 C1699 1.503 . S
C1707 C1706 1.370 . S
C1707 C1708 1.403 . S
C1708 C1707 1.403 . S
C1708 C1709 1.404 . S
C1708 C1711 1.539 . S
C1709 C1705 1.408 . S
C1709 C1708 1.404 . S
C1709 H1721 0.930 . S
C1710 C1706 1.524 . S
C1710 H1722 0.956 . S
C1710 H1723 0.961 . S
C1710 H1724 0.961 . S
C1711 C1708 1.539 . S
C1711 H1725 0.958 . S
C1711 H1726 0.961 . S
C1711 H1727 0.960 . S
H1712 C1696 0.931 . S
H1713 C1701 0.929 . S
H1714 C1702 0.960 . S
H1715 C1702 0.962 . S
H1716 C1702 0.960 . S
H1717 C1703 0.961 . S
H1718 C1703 0.961 . S
H1719 C1703 0.961 . S
H1720 C1704 0.931 1_554 S
H1721 C1709 0.930 . S
H1722 C1710 0.956 . S
H1723 C1710 0.961 . S
H1724 C1710 0.961 . S
H1725 C1711 0.958 . S
H1726 C1711 0.961 . S
H1727 C1711 0.960 . S
C1728 C1729 1.391 . S
C1728 C1730 1.394 . S
C1728 H1744 0.931 . S
C1729 C1728 1.391 . S
C1729 C1733 1.376 . S
C1730 C1728 1.394 . S
C1730 C1731 1.369 . S
C1730 C1734 1.531 . S
C1731 C1730 1.369 . S
C1731 C1732 1.410 . S
C1731 C1739 1.503 . S
C1732 C1731 1.410 . S
C1732 C1733 1.392 . S
C1732 C1735 1.511 . S
C1733 C1729 1.376 . S
C1733 C1732 1.392 . S
C1733 H1745 0.929 . S
C1734 C1730 1.531 . S
C1734 H1746 0.960 . S
C1734 H1747 0.962 . S
C1734 H1748 0.960 . S
C1735 C1732 1.511 . S
C1735 H1749 0.961 . S
C1735 H1750 0.961 . S
C1735 H1751 0.961 . S
C1736 C1737 1.370 . S
C1736 C1738 1.363 . S
C1736 H1752 0.931 . S
C1737 C1736 1.370 . S
C1737 C1741 1.408 . S
C1738 C1736 1.363 . S
C1738 C1739 1.370 . S
C1738 C1742 1.524 . S
C1739 C1731 1.503 . S
C1739 C1738 1.370 . S
C1739 C1740 1.403 . S
C1740 C1739 1.403 . S
C1740 C1741 1.404 . S
C1740 C1743 1.539 . S
C1741 C1737 1.408 . S
C1741 C1740 1.404 . S
C1741 H1753 0.930 . S
C1742 C1738 1.524 . S
C1742 H1754 0.956 . S
C1742 H1755 0.961 . S
C1742 H1756 0.961 . S
C1743 C1740 1.539 . S
C1743 H1757 0.958 . S
C1743 H1758 0.961 . S
C1743 H1759 0.960 . S
H1744 C1728 0.931 . S
H1745 C1733 0.929 . S
H1746 C1734 0.960 . S
H1747 C1734 0.962 . S
H1748 C1734 0.960 . S
H1749 C1735 0.961 . S
H1750 C1735 0.961 . S
H1751 C1735 0.961 . S
H1752 C1736 0.931 . S
H1753 C1741 0.930 . S
H1754 C1742 0.956 . S
H1755 C1742 0.961 . S
H1756 C1742 0.961 . S
H1757 C1743 0.958 . S
H1758 C1743 0.961 . S
H1759 C1743 0.960 . S
C1760 C1761 1.391 . S
C1760 C1762 1.394 . S
C1760 H1776 0.931 . S
C1761 C1760 1.391 . S
C1761 C1765 1.376 . S
C1762 C1760 1.394 . S
C1762 C1763 1.369 . S
C1762 C1766 1.531 . S
C1763 C1762 1.369 . S
C1763 C1764 1.410 . S
C1763 C1771 1.503 . S
C1764 C1763 1.410 . S
C1764 C1765 1.392 . S
C1764 C1767 1.511 . S
C1765 C1761 1.376 . S
C1765 C1764 1.392 . S
C1765 H1777 0.929 . S
C1766 C1762 1.531 . S
C1766 H1778 0.960 . S
C1766 H1779 0.962 . S
C1766 H1780 0.960 . S
C1767 C1764 1.511 . S
C1767 H1781 0.961 . S
C1767 H1782 0.961 . S
C1767 H1783 0.961 . S
C1768 C1769 1.370 . S
C1768 C1770 1.363 . S
C1768 H1784 0.931 . S
C1769 C1768 1.370 . S
C1769 C1773 1.408 . S
C1770 C1768 1.363 . S
C1770 C1771 1.370 . S
C1770 C1774 1.524 . S
C1771 C1763 1.503 . S
C1771 C1770 1.370 . S
C1771 C1772 1.403 . S
C1772 C1771 1.403 . S
C1772 C1773 1.404 . S
C1772 C1775 1.539 . S
C1773 C1769 1.408 . S
C1773 C1772 1.404 . S
C1773 H1785 0.930 . S
C1774 C1770 1.524 . S
C1774 H1786 0.956 . S
C1774 H1787 0.961 . S
C1774 H1788 0.961 . S
C1775 C1772 1.539 . S
C1775 H1789 0.958 . S
C1775 H1790 0.961 . S
C1775 H1791 0.960 . S
H1776 C1760 0.931 . S
H1777 C1765 0.929 . S
H1778 C1766 0.960 . S
H1779 C1766 0.962 . S
H1780 C1766 0.960 . S
H1781 C1767 0.961 . S
H1782 C1767 0.961 . S
H1783 C1767 0.961 . S
H1784 C1768 0.931 . S
H1785 C1773 0.930 . S
H1786 C1774 0.956 . S
H1787 C1774 0.961 . S
H1788 C1774 0.961 . S
H1789 C1775 0.958 . S
H1790 C1775 0.961 . S
H1791 C1775 0.960 . S
C1792 C1793 1.391 . S
C1792 C1794 1.394 . S
C1792 H1808 0.931 . S
C1793 C1792 1.391 . S
C1793 C1797 1.376 . S
C1794 C1792 1.394 . S
C1794 C1795 1.369 . S
C1794 C1798 1.531 . S
C1795 C1794 1.369 . S
C1795 C1796 1.410 . S
C1795 C1803 1.503 . S
C1796 C1795 1.410 . S
C1796 C1797 1.392 . S
C1796 C1799 1.511 . S
C1797 C1793 1.376 . S
C1797 C1796 1.392 . S
C1797 H1809 0.929 . S
C1798 C1794 1.531 . S
C1798 H1810 0.960 . S
C1798 H1811 0.962 . S
C1798 H1812 0.960 . S
C1799 C1796 1.511 . S
C1799 H1813 0.961 . S
C1799 H1814 0.961 . S
C1799 H1815 0.961 . S
C1800 C1801 1.370 . S
C1800 C1802 1.363 . S
C1800 H1816 0.931 . S
C1801 C1800 1.370 . S
C1801 C1805 1.408 . S
C1802 C1800 1.363 . S
C1802 C1803 1.370 . S
C1802 C1806 1.524 . S
C1803 C1795 1.503 . S
C1803 C1802 1.370 . S
C1803 C1804 1.403 . S
C1804 C1803 1.403 . S
C1804 C1805 1.404 . S
C1804 C1807 1.539 . S
C1805 C1801 1.408 . S
C1805 C1804 1.404 . S
C1805 H1817 0.930 . S
C1806 C1802 1.524 . S
C1806 H1818 0.956 . S
C1806 H1819 0.961 . S
C1806 H1820 0.961 . S
C1807 C1804 1.539 . S
C1807 H1821 0.958 . S
C1807 H1822 0.961 . S
C1807 H1823 0.960 . S
H1808 C1792 0.931 . S
H1809 C1797 0.929 . S
H1810 C1798 0.960 . S
H1811 C1798 0.962 . S
H1812 C1798 0.960 . S
H1813 C1799 0.961 . S
H1814 C1799 0.961 . S
H1815 C1799 0.961 . S
H1816 C1800 0.931 . S
H1817 C1805 0.930 . S
H1818 C1806 0.956 . S
H1819 C1806 0.961 . S
H1820 C1806 0.961 . S
H1821 C1807 0.958 . S
H1822 C1807 0.961 . S
H1823 C1807 0.960 . S
C545 C33 0.486 . S
C553 C169 0.366 . S
C577 C203 0.481 . S
C585 C67 0.370 . S
C609 C237 0.485 . S
C617 C101 0.368 . S
C641 C135 0.454 . S
C649 C271 0.385 . S
C673 C305 0.388 . S
C681 C373 0.411 . S
C705 C407 0.351 . S
C713 C339 0.427 . S
C737 C441 0.344 . S
C745 C509 0.429 . S
C769 C475 0.352 . S
C777 C543 0.427 . S
C801 C20 2.179 . S
C809 C190 2.187 1_554 S
C833 C224 2.196 . S
C841 C54 2.194 . S
C865 C258 2.185 . S
C873 C88 2.191 . S
C897 C122 2.188 1_556 S
C905 C156 2.190 . S
C929 C145 0.815 . S
C937 C349 0.789 . S
C961 C77 0.812 . S
C969 C281 0.796 . S
C993 C213 0.786 . S
C1001 C383 0.804 . S
C1025 C9 0.779 . S
C1033 C315 0.795 . S
C1057 C428 2.173 . S
C1065 C292 2.186 . S
C1089 C360 2.186 1_556 S
C1097 C530 2.190 . S
C1121 C326 2.175 1_554 S
C1129 C462 2.185 . S
C1153 C394 2.178 . S
C1161 C496 2.188 . S
C1185 C485 0.777 . S
C1193 C43 0.803 . S
C1217 C179 0.781 . S
C1225 C451 0.794 . S
C1249 C111 0.811 . S
C1257 C519 0.788 . S
C1281 C417 0.803 . S
C1289 C247 0.788 . S
C1313 C175 1.115 . S
C1321 C5 1.093 . S
C1345 C209 1.115 . S
C1353 C39 1.093 . S
C1377 C73 1.068 . S
C1385 C243 1.111 . S
C1409 C107 1.141 . S
C1417 C141 1.104 . S
C1441 C138 2.682 . S
C1449 C342 2.682 . S
C1473 C274 2.669 . S
C1481 C70 2.680 1_554 S
C1505 C376 2.675 . S
C1513 C206 2.682 1_556 S
C1537 C2 2.683 . S
C1545 C308 2.681 . S
C1569 C413 1.128 . S
C1577 C277 1.129 . S
C1601 C345 1.136 . S
C1609 C515 1.101 . S
C1633 C447 1.091 . S
C1641 C311 1.088 . S
C1665 C481 1.056 . S
C1673 C379 1.093 . S
C1697 C36 2.680 . S
C1705 C478 2.679 1_556 S
C1729 C172 2.663 . S
C1737 C444 2.676 . S
C1761 C512 2.671 . S
C1769 C104 2.675 . S
C1793 C240 2.668 . S
C1801 C410 2.675 1_554 S
