# Generated by pormake.
# Topology lta, (4)-cn, num edge types: 1
# Building blocks:
#     Node 0, Type 0, BuildingBlock: CEKHIL_clean_sbu_0, # of connection points: 4
#     Node 1, Type 0, BuildingBlock: CEKHIL_clean_sbu_0, # of connection points: 4
#     Node 2, Type 0, BuildingBlock: CEKHIL_clean_sbu_0, # of connection points: 4
#     Node 3, Type 0, BuildingBlock: CEKHIL_clean_sbu_0, # of connection points: 4
#     Node 4, Type 0, BuildingBlock: CEKHIL_clean_sbu_0, # of connection points: 4
#     Node 5, Type 0, BuildingBlock: CEKHIL_clean_sbu_0, # of connection points: 4
#     Node 6, Type 0, BuildingBlock: CEKHIL_clean_sbu_0, # of connection points: 4
#     Node 7, Type 0, BuildingBlock: CEKHIL_clean_sbu_0, # of connection points: 4
#     Node 8, Type 0, BuildingBlock: CEKHIL_clean_sbu_0, # of connection points: 4
#     Node 9, Type 0, BuildingBlock: CEKHIL_clean_sbu_0, # of connection points: 4
#     Node 10, Type 0, BuildingBlock: CEKHIL_clean_sbu_0, # of connection points: 4
#     Node 11, Type 0, BuildingBlock: CEKHIL_clean_sbu_0, # of connection points: 4
#     Node 12, Type 0, BuildingBlock: CEKHIL_clean_sbu_0, # of connection points: 4
#     Node 13, Type 0, BuildingBlock: CEKHIL_clean_sbu_0, # of connection points: 4
#     Node 14, Type 0, BuildingBlock: CEKHIL_clean_sbu_0, # of connection points: 4
#     Node 15, Type 0, BuildingBlock: CEKHIL_clean_sbu_0, # of connection points: 4
#     Node 16, Type 0, BuildingBlock: CEKHIL_clean_sbu_0, # of connection points: 4
#     Node 17, Type 0, BuildingBlock: CEKHIL_clean_sbu_0, # of connection points: 4
#     Node 18, Type 0, BuildingBlock: CEKHIL_clean_sbu_0, # of connection points: 4
#     Node 19, Type 0, BuildingBlock: CEKHIL_clean_sbu_0, # of connection points: 4
#     Node 20, Type 0, BuildingBlock: CEKHIL_clean_sbu_0, # of connection points: 4
#     Node 21, Type 0, BuildingBlock: CEKHIL_clean_sbu_0, # of connection points: 4
#     Node 22, Type 0, BuildingBlock: CEKHIL_clean_sbu_0, # of connection points: 4
#     Node 23, Type 0, BuildingBlock: CEKHIL_clean_sbu_0, # of connection points: 4
#     Edge 24, Type (0, 0), BuildingBlock: ZUJKAS_clean_linker_0, # of connection points: 2
#     Edge 25, Type (0, 0), BuildingBlock: ZUJKAS_clean_linker_0, # of connection points: 2
#     Edge 26, Type (0, 0), BuildingBlock: ZUJKAS_clean_linker_0, # of connection points: 2
#     Edge 27, Type (0, 0), BuildingBlock: ZUJKAS_clean_linker_0, # of connection points: 2
#     Edge 28, Type (0, 0), BuildingBlock: ZUJKAS_clean_linker_0, # of connection points: 2
#     Edge 29, Type (0, 0), BuildingBlock: ZUJKAS_clean_linker_0, # of connection points: 2
#     Edge 30, Type (0, 0), BuildingBlock: ZUJKAS_clean_linker_0, # of connection points: 2
#     Edge 31, Type (0, 0), BuildingBlock: ZUJKAS_clean_linker_0, # of connection points: 2
#     Edge 32, Type (0, 0), BuildingBlock: ZUJKAS_clean_linker_0, # of connection points: 2
#     Edge 33, Type (0, 0), BuildingBlock: ZUJKAS_clean_linker_0, # of connection points: 2
#     Edge 34, Type (0, 0), BuildingBlock: ZUJKAS_clean_linker_0, # of connection points: 2
#     Edge 35, Type (0, 0), BuildingBlock: ZUJKAS_clean_linker_0, # of connection points: 2
#     Edge 36, Type (0, 0), BuildingBlock: ZUJKAS_clean_linker_0, # of connection points: 2
#     Edge 37, Type (0, 0), BuildingBlock: ZUJKAS_clean_linker_0, # of connection points: 2
#     Edge 38, Type (0, 0), BuildingBlock: ZUJKAS_clean_linker_0, # of connection points: 2
#     Edge 39, Type (0, 0), BuildingBlock: ZUJKAS_clean_linker_0, # of connection points: 2
#     Edge 40, Type (0, 0), BuildingBlock: ZUJKAS_clean_linker_0, # of connection points: 2
#     Edge 41, Type (0, 0), BuildingBlock: ZUJKAS_clean_linker_0, # of connection points: 2
#     Edge 42, Type (0, 0), BuildingBlock: ZUJKAS_clean_linker_0, # of connection points: 2
#     Edge 43, Type (0, 0), BuildingBlock: ZUJKAS_clean_linker_0, # of connection points: 2
#     Edge 44, Type (0, 0), BuildingBlock: ZUJKAS_clean_linker_0, # of connection points: 2
#     Edge 45, Type (0, 0), BuildingBlock: ZUJKAS_clean_linker_0, # of connection points: 2
#     Edge 46, Type (0, 0), BuildingBlock: ZUJKAS_clean_linker_0, # of connection points: 2
#     Edge 47, Type (0, 0), BuildingBlock: ZUJKAS_clean_linker_0, # of connection points: 2
#     Edge 48, Type (0, 0), BuildingBlock: ZUJKAS_clean_linker_0, # of connection points: 2
#     Edge 49, Type (0, 0), BuildingBlock: ZUJKAS_clean_linker_0, # of connection points: 2
#     Edge 50, Type (0, 0), BuildingBlock: ZUJKAS_clean_linker_0, # of connection points: 2
#     Edge 51, Type (0, 0), BuildingBlock: ZUJKAS_clean_linker_0, # of connection points: 2
#     Edge 52, Type (0, 0), BuildingBlock: ZUJKAS_clean_linker_0, # of connection points: 2
#     Edge 53, Type (0, 0), BuildingBlock: ZUJKAS_clean_linker_0, # of connection points: 2
#     Edge 54, Type (0, 0), BuildingBlock: ZUJKAS_clean_linker_0, # of connection points: 2
#     Edge 55, Type (0, 0), BuildingBlock: ZUJKAS_clean_linker_0, # of connection points: 2
#     Edge 56, Type (0, 0), BuildingBlock: ZUJKAS_clean_linker_0, # of connection points: 2
#     Edge 57, Type (0, 0), BuildingBlock: ZUJKAS_clean_linker_0, # of connection points: 2
#     Edge 58, Type (0, 0), BuildingBlock: ZUJKAS_clean_linker_0, # of connection points: 2
#     Edge 59, Type (0, 0), BuildingBlock: ZUJKAS_clean_linker_0, # of connection points: 2
#     Edge 60, Type (0, 0), BuildingBlock: ZUJKAS_clean_linker_0, # of connection points: 2
#     Edge 61, Type (0, 0), BuildingBlock: ZUJKAS_clean_linker_0, # of connection points: 2
#     Edge 62, Type (0, 0), BuildingBlock: ZUJKAS_clean_linker_0, # of connection points: 2
#     Edge 63, Type (0, 0), BuildingBlock: ZUJKAS_clean_linker_0, # of connection points: 2
#     Edge 64, Type (0, 0), BuildingBlock: ZUJKAS_clean_linker_0, # of connection points: 2
#     Edge 65, Type (0, 0), BuildingBlock: ZUJKAS_clean_linker_0, # of connection points: 2
#     Edge 66, Type (0, 0), BuildingBlock: ZUJKAS_clean_linker_0, # of connection points: 2
#     Edge 67, Type (0, 0), BuildingBlock: ZUJKAS_clean_linker_0, # of connection points: 2
#     Edge 68, Type (0, 0), BuildingBlock: ZUJKAS_clean_linker_0, # of connection points: 2
#     Edge 69, Type (0, 0), BuildingBlock: ZUJKAS_clean_linker_0, # of connection points: 2
#     Edge 70, Type (0, 0), BuildingBlock: ZUJKAS_clean_linker_0, # of connection points: 2
#     Edge 71, Type (0, 0), BuildingBlock: ZUJKAS_clean_linker_0, # of connection points: 2
# Relax obj value: 0.296
# Max RMSD: 0.166
# Mean RMSD: 0.166
data_MOF--net-lta--node1-CEKHIL_clean_sbu_0--edge1-ZUJKAS_clean_linker_0
_symmetry_space_group_name_H-M    P1
_symmetry_Int_Tables_number       1
_symmetry_cell_setting            triclinic
loop_
_symmetry_equiv_pos_as_xyz
'x, y, z'
_cell_length_a     72.624528
_cell_length_b     72.657116
_cell_length_c     72.635978
_cell_angle_alpha  89.980016
_cell_angle_beta   90.019192
_cell_angle_gamma 90.009325
loop_
_atom_site_label
_atom_site_type_symbol
_atom_site_fract_x
_atom_site_fract_y
_atom_site_fract_z
_atom_type_partial_charge
Co0 Co 0.13719 0.31976 0.48969 0.0
O1 O 0.16258 0.31215 0.48982 0.0
O2 O 0.13908 0.29439 0.49764 0.0
C3 C 0.13797 0.33345 0.46172 0.0
O4 O 0.10923 0.32246 0.49062 0.0
Co5 Co 0.12659 0.36126 0.48801 0.0
O6 O 0.10132 0.35166 0.48408 0.0
C7 C 0.14153 0.34537 0.52232 0.0
C8 C 0.15674 0.29613 0.49517 0.0
C9 C 0.09707 0.33494 0.48731 0.0
O10 O 0.13951 0.32894 0.51594 0.0
O11 O 0.139 0.35988 0.51264 0.0
O12 O 0.13591 0.31573 0.46296 0.0
O13 O 0.14098 0.34184 0.47706 0.0
Co14 Co 0.68153 0.13811 0.48907 0.0
O15 O 0.689 0.1635 0.49022 0.0
O16 O 0.7069 0.13981 0.49707 0.0
C17 C 0.66783 0.1403 0.46114 0.0
O18 O 0.67908 0.11013 0.48898 0.0
Co19 Co 0.64025 0.12703 0.48672 0.0
O20 O 0.64994 0.10181 0.48272 0.0
C21 C 0.65581 0.14082 0.52172 0.0
C22 C 0.70506 0.15753 0.49531 0.0
C23 C 0.66675 0.09778 0.48572 0.0
O24 O 0.67231 0.13931 0.51536 0.0
O25 O 0.64138 0.13846 0.51185 0.0
O26 O 0.68554 0.13798 0.46231 0.0
O27 O 0.65941 0.1424 0.47661 0.0
Co28 Co 0.86126 0.68082 0.48831 0.0
O29 O 0.8359 0.68834 0.48715 0.0
O30 O 0.85887 0.70617 0.49638 0.0
C31 C 0.86121 0.66724 0.46025 0.0
O32 O 0.88918 0.67824 0.49041 0.0
Co33 Co 0.87219 0.63945 0.48663 0.0
O34 O 0.89757 0.64918 0.48389 0.0
C35 C 0.85635 0.65499 0.52074 0.0
C36 C 0.84141 0.70435 0.49276 0.0
C37 C 0.90158 0.66589 0.48749 0.0
O38 O 0.858 0.67149 0.51441 0.0
O39 O 0.85942 0.64056 0.51109 0.0
O40 O 0.86358 0.68492 0.46163 0.0
O41 O 0.85787 0.65881 0.47549 0.0
Co42 Co 0.31794 0.86331 0.49021 0.0
O43 O 0.31036 0.83792 0.49023 0.0
O44 O 0.29239 0.86133 0.49774 0.0
C45 C 0.33209 0.86237 0.46245 0.0
O46 O 0.3207 0.89127 0.49123 0.0
Co47 Co 0.3595 0.87404 0.48871 0.0
O48 O 0.34963 0.89893 0.48316 0.0
C49 C 0.34322 0.85952 0.52316 0.0
C50 C 0.29422 0.84368 0.49529 0.0
C51 C 0.33304 0.90327 0.48692 0.0
O52 O 0.3268 0.86107 0.51657 0.0
O53 O 0.35781 0.86222 0.51363 0.0
O54 O 0.31436 0.86462 0.46338 0.0
O55 O 0.34017 0.85943 0.47795 0.0
Co56 Co 0.13446 0.68152 0.51175 0.0
O57 O 0.15993 0.68844 0.50894 0.0
O58 O 0.13626 0.7068 0.50348 0.0
C59 C 0.13824 0.66803 0.53963 0.0
O60 O 0.1064 0.67983 0.51363 0.0
Co61 Co 0.12191 0.6408 0.51603 0.0
O62 O 0.09788 0.65161 0.52296 0.0
C63 C 0.13086 0.65576 0.47896 0.0
C64 C 0.15402 0.70464 0.50425 0.0
C65 C 0.09405 0.66825 0.51897 0.0
O66 O 0.13367 0.67204 0.4855 0.0
O67 O 0.12715 0.64174 0.489 0.0
O68 O 0.13618 0.68575 0.53843 0.0
O69 O 0.13901 0.65939 0.52416 0.0
Co70 Co 0.32009 0.1377 0.5103 0.0
O71 O 0.31272 0.16309 0.50887 0.0
O72 O 0.29483 0.13945 0.50189 0.0
C73 C 0.33329 0.14018 0.53846 0.0
O74 O 0.32252 0.10969 0.51063 0.0
Co75 Co 0.36127 0.12635 0.51398 0.0
O76 O 0.35098 0.10174 0.51991 0.0
C77 C 0.34661 0.1398 0.47831 0.0
C78 C 0.29669 0.15717 0.50366 0.0
C79 C 0.33445 0.09759 0.5157 0.0
O80 O 0.3299 0.13871 0.48422 0.0
O81 O 0.36073 0.1372 0.48857 0.0
O82 O 0.31561 0.13778 0.53704 0.0
O83 O 0.34195 0.14205 0.52311 0.0
Co84 Co 0.86357 0.32092 0.51149 0.0
O85 O 0.83813 0.31355 0.51105 0.0
O86 O 0.86155 0.29558 0.50352 0.0
C87 C 0.86254 0.33456 0.53948 0.0
O88 O 0.89157 0.32337 0.51089 0.0
Co89 Co 0.87459 0.36231 0.51349 0.0
O90 O 0.89971 0.35245 0.51769 0.0
C91 C 0.86006 0.34666 0.47885 0.0
C92 C 0.84389 0.29747 0.50581 0.0
C93 C 0.90382 0.33571 0.51442 0.0
O94 O 0.86167 0.33018 0.48523 0.0
O95 O 0.86268 0.3611 0.48862 0.0
O96 O 0.86449 0.31683 0.53823 0.0
O97 O 0.85981 0.34301 0.52412 0.0
Co98 Co 0.67981 0.86526 0.5135 0.0
O99 O 0.68569 0.83949 0.51183 0.0
O100 O 0.70469 0.86212 0.50435 0.0
C101 C 0.66713 0.86304 0.54191 0.0
O102 O 0.67915 0.89341 0.51415 0.0
Co103 Co 0.63969 0.87939 0.51852 0.0
O104 O 0.65165 0.90315 0.52438 0.0
C105 C 0.65311 0.8685 0.48139 0.0
C106 C 0.70189 0.84454 0.50628 0.0
C107 C 0.66822 0.90629 0.51957 0.0
O108 O 0.66946 0.86527 0.48755 0.0
O109 O 0.63957 0.87316 0.49168 0.0
O110 O 0.68487 0.86452 0.54011 0.0
O111 O 0.65797 0.86204 0.52675 0.0
Co112 Co 0.4909 0.13719 0.31752 0.0
O113 O 0.49266 0.16299 0.3115 0.0
O114 O 0.49879 0.14022 0.29225 0.0
C115 C 0.46306 0.13915 0.33145 0.0
O116 O 0.4901 0.10906 0.31824 0.0
Co117 Co 0.48776 0.12314 0.35794 0.0
O118 O 0.48133 0.0994 0.34628 0.0
C119 C 0.52424 0.1337 0.34267 0.0
C120 C 0.49739 0.15784 0.29506 0.0
C121 C 0.48525 0.09622 0.32949 0.0
O122 O 0.51731 0.13704 0.32666 0.0
O123 O 0.51463 0.12905 0.3567 0.0
O124 O 0.46412 0.138 0.31363 0.0
O125 O 0.47858 0.14035 0.33995 0.0
Co126 Co 0.86839 0.48891 0.31906 0.0
O127 O 0.8426 0.49142 0.31336 0.0
O128 O 0.86532 0.49733 0.29396 0.0
C129 C 0.86574 0.46089 0.33247 0.0
O130 O 0.89651 0.48737 0.31951 0.0
Co131 Co 0.88274 0.48461 0.35925 0.0
O132 O 0.90621 0.47774 0.34726 0.0
C133 C 0.87269 0.52161 0.34486 0.0
C134 C 0.84769 0.49628 0.29693 0.0
C135 C 0.90933 0.48192 0.33052 0.0
O136 O 0.86931 0.5151 0.32868 0.0
O137 O 0.87707 0.51156 0.35868 0.0
O138 O 0.86682 0.46226 0.31467 0.0
O139 O 0.86509 0.47626 0.34128 0.0
Co140 Co 0.51065 0.8645 0.31843 0.0
O141 O 0.50852 0.83896 0.31171 0.0
O142 O 0.50353 0.86237 0.29284 0.0
C143 C 0.53793 0.8614 0.33323 0.0
O144 O 0.51206 0.89247 0.31998 0.0
Co145 Co 0.51219 0.87688 0.35939 0.0
O146 O 0.51803 0.90146 0.34897 0.0
C147 C 0.47702 0.86464 0.34297 0.0
C148 C 0.5044 0.84465 0.29527 0.0
C149 C 0.51567 0.90504 0.33194 0.0
O150 O 0.48402 0.86498 0.32667 0.0
O151 O 0.48641 0.86706 0.35769 0.0
O152 O 0.53752 0.86321 0.31543 0.0
O153 O 0.52208 0.86033 0.34113 0.0
Co154 Co 0.14063 0.51186 0.31971 0.0
O155 O 0.16619 0.51091 0.31276 0.0
O156 O 0.1429 0.50387 0.2944 0.0
C157 C 0.1423 0.53979 0.33342 0.0
O158 O 0.11261 0.51175 0.32154 0.0
Co159 Co 0.12855 0.51426 0.3607 0.0
O160 O 0.10355 0.51829 0.35038 0.0
C161 C 0.14291 0.47932 0.34557 0.0
C162 C 0.16057 0.5058 0.29658 0.0
C163 C 0.09996 0.51511 0.33349 0.0
O164 O 0.14179 0.48561 0.32901 0.0
O165 O 0.14016 0.48921 0.3599 0.0
O166 O 0.14035 0.53862 0.31567 0.0
O167 O 0.14435 0.52435 0.34189 0.0
Co168 Co 0.48788 0.86306 0.68045 0.0
O169 O 0.48858 0.83704 0.68538 0.0
O170 O 0.49665 0.85871 0.70526 0.0
C171 C 0.45952 0.86269 0.66747 0.0
O172 O 0.48807 0.89119 0.68085 0.0
Co173 Co 0.48404 0.87864 0.64068 0.0
O174 O 0.47861 0.90205 0.65348 0.0
C175 C 0.52049 0.86588 0.65423 0.0
C176 C 0.4941 0.84133 0.70182 0.0
C177 C 0.4831 0.90452 0.67025 0.0
O178 O 0.51397 0.86264 0.67044 0.0
O179 O 0.5105 0.87103 0.64063 0.0
O180 O 0.46123 0.86307 0.68527 0.0
O181 O 0.47468 0.86126 0.65838 0.0
Co182 Co 0.1361 0.48839 0.68053 0.0
O183 O 0.16196 0.49076 0.68612 0.0
O184 O 0.13934 0.49714 0.70549 0.0
C185 C 0.13836 0.46013 0.66754 0.0
O186 O 0.10796 0.48709 0.68024 0.0
Co187 Co 0.12157 0.48367 0.64046 0.0
O188 O 0.09803 0.47734 0.65262 0.0
C189 C 0.13238 0.5207 0.65413 0.0
C190 C 0.15695 0.49589 0.70249 0.0
C191 C 0.09503 0.48171 0.66933 0.0
O192 O 0.1354 0.51446 0.67049 0.0
O193 O 0.12805 0.51042 0.64047 0.0
O194 O 0.13746 0.46178 0.68533 0.0
O195 O 0.13915 0.47537 0.6585 0.0
Co196 Co 0.51293 0.13499 0.67919 0.0
O197 O 0.51204 0.16102 0.68412 0.0
O198 O 0.5035 0.1393 0.70375 0.0
C199 C 0.54158 0.13536 0.66688 0.0
O200 O 0.51277 0.10685 0.67963 0.0
Co201 Co 0.51767 0.11937 0.63954 0.0
O202 O 0.52258 0.09588 0.65243 0.0
C203 C 0.48101 0.13242 0.65206 0.0
C204 C 0.50604 0.1567 0.70038 0.0
C205 C 0.51781 0.09347 0.66914 0.0
O206 O 0.48709 0.13541 0.66849 0.0
O207 O 0.49135 0.12735 0.63871 0.0
O208 O 0.53948 0.13503 0.68464 0.0
O209 O 0.52663 0.13675 0.65745 0.0
Co210 Co 0.86319 0.51247 0.68183 0.0
O211 O 0.83754 0.51202 0.68858 0.0
O212 O 0.86054 0.50471 0.70719 0.0
C213 C 0.86239 0.54032 0.66785 0.0
O214 O 0.89125 0.51186 0.68013 0.0
Co215 Co 0.87529 0.51406 0.64071 0.0
O216 O 0.90027 0.51779 0.65112 0.0
C217 C 0.86015 0.47972 0.65629 0.0
C218 C 0.84291 0.50691 0.70484 0.0
C219 C 0.90389 0.51484 0.66805 0.0
O220 O 0.8616 0.48614 0.67276 0.0
O221 O 0.86296 0.48939 0.64182 0.0
O222 O 0.8639 0.53927 0.68565 0.0
O223 O 0.85998 0.52486 0.6595 0.0
Co224 Co 0.32064 0.48864 0.13479 0.0
O225 O 0.31512 0.49152 0.16058 0.0
O226 O 0.29567 0.49734 0.13785 0.0
C227 C 0.33379 0.46054 0.13794 0.0
O228 O 0.32072 0.48682 0.10674 0.0
Co229 Co 0.36042 0.48357 0.1199 0.0
O230 O 0.34826 0.47753 0.09627 0.0
C231 C 0.34696 0.52082 0.1304 0.0
C232 C 0.29871 0.49646 0.15547 0.0
C233 C 0.33143 0.48167 0.09358 0.0
O234 O 0.33059 0.51469 0.13354 0.0
O235 O 0.36055 0.51041 0.12615 0.0
O236 O 0.316 0.46206 0.13673 0.0
O237 O 0.34278 0.47583 0.13816 0.0
Co238 Co 0.31805 0.51243 0.8639 0.0
O239 O 0.31287 0.50977 0.83799 0.0
O240 O 0.29319 0.50355 0.86039 0.0
C241 C 0.33107 0.54066 0.86132 0.0
O242 O 0.3178 0.51397 0.89201 0.0
Co243 Co 0.3577 0.51773 0.87935 0.0
O244 O 0.34507 0.52391 0.90267 0.0
C245 C 0.34459 0.48043 0.86853 0.0
C246 C 0.29644 0.50464 0.84282 0.0
C247 C 0.32832 0.51939 0.90523 0.0
O248 O 0.32822 0.48644 0.86507 0.0
O249 O 0.35802 0.49092 0.87308 0.0
O250 O 0.31327 0.53904 0.86212 0.0
O251 O 0.34011 0.52542 0.86104 0.0
Co252 Co 0.48863 0.31964 0.86099 0.0
O253 O 0.489 0.31383 0.83513 0.0
O254 O 0.49666 0.29445 0.85738 0.0
C255 C 0.46064 0.33342 0.86002 0.0
O256 O 0.48907 0.32013 0.88916 0.0
Co257 Co 0.48571 0.35984 0.87551 0.0
O258 O 0.4802 0.34792 0.89936 0.0
C259 C 0.5219 0.34494 0.86346 0.0
C260 C 0.49409 0.2974 0.8399 0.0
C261 C 0.48448 0.33117 0.90227 0.0
O262 O 0.51496 0.32896 0.86002 0.0
O263 O 0.5124 0.35879 0.86878 0.0
O264 O 0.46184 0.31562 0.86131 0.0
O265 O 0.47608 0.342 0.8584 0.0
Co266 Co 0.68223 0.4908 0.8666 0.0
O267 O 0.68788 0.49375 0.84082 0.0
O268 O 0.70755 0.49852 0.8636 0.0
C269 C 0.66786 0.46333 0.86317 0.0
O270 O 0.68199 0.48874 0.8947 0.0
Co271 Co 0.64233 0.4872 0.88164 0.0
O272 O 0.65454 0.4782 0.90428 0.0
C273 C 0.65756 0.52408 0.87215 0.0
C274 C 0.70446 0.49803 0.84597 0.0
C275 C 0.67126 0.48247 0.90735 0.0
O276 O 0.67343 0.5172 0.86814 0.0
O277 O 0.64361 0.51434 0.87683 0.0
O278 O 0.68571 0.46407 0.86428 0.0
O279 O 0.65954 0.47899 0.86318 0.0
Co280 Co 0.51128 0.67897 0.8628 0.0
O281 O 0.51024 0.68438 0.8369 0.0
O282 O 0.5022 0.70378 0.859 0.0
C283 C 0.53975 0.66632 0.86146 0.0
O284 O 0.51131 0.67874 0.89095 0.0
Co285 Co 0.51603 0.63917 0.87777 0.0
O286 O 0.52298 0.65187 0.90089 0.0
C287 C 0.47911 0.65236 0.8657 0.0
C288 C 0.50459 0.70067 0.84153 0.0
C289 C 0.5176 0.66829 0.90383 0.0
O290 O 0.48536 0.66865 0.86241 0.0
O291 O 0.48933 0.6389 0.87079 0.0
O292 O 0.53788 0.68407 0.86261 0.0
O293 O 0.52464 0.65711 0.86024 0.0
Co294 Co 0.68186 0.51274 0.14027 0.0
O295 O 0.68926 0.51223 0.16574 0.0
O296 O 0.70706 0.50429 0.14233 0.0
C297 C 0.66868 0.54097 0.14147 0.0
O298 O 0.6795 0.51199 0.11228 0.0
Co299 Co 0.6407 0.51601 0.12862 0.0
O300 O 0.65102 0.52058 0.10372 0.0
C301 C 0.65525 0.48084 0.14335 0.0
C302 C 0.70524 0.50666 0.15998 0.0
C303 C 0.6676 0.51632 0.09986 0.0
O304 O 0.67197 0.48672 0.1422 0.0
O305 O 0.64116 0.49102 0.14034 0.0
O306 O 0.68639 0.53945 0.13931 0.0
O307 O 0.66001 0.52573 0.144 0.0
Co308 Co 0.48936 0.68134 0.13683 0.0
O309 O 0.49058 0.68854 0.16229 0.0
O310 O 0.49776 0.70655 0.13877 0.0
C311 C 0.46123 0.66806 0.13888 0.0
O312 O 0.48929 0.67908 0.10883 0.0
Co313 Co 0.48612 0.64022 0.12529 0.0
O314 O 0.48057 0.65055 0.10059 0.0
C315 C 0.52157 0.65502 0.13906 0.0
C316 C 0.49592 0.70457 0.15648 0.0
C317 C 0.48459 0.66715 0.09658 0.0
O318 O 0.51548 0.67165 0.13801 0.0
O319 O 0.51147 0.64082 0.13632 0.0
O320 O 0.46264 0.68576 0.13667 0.0
O321 O 0.47658 0.65941 0.14092 0.0
Co322 Co 0.51127 0.31957 0.13389 0.0
O323 O 0.50894 0.3138 0.15971 0.0
O324 O 0.50354 0.29427 0.13699 0.0
C325 C 0.53892 0.33379 0.13647 0.0
O326 O 0.51275 0.31995 0.10576 0.0
Co327 Co 0.51436 0.35976 0.11936 0.0
O328 O 0.52131 0.34795 0.09584 0.0
C329 C 0.47782 0.34443 0.12963 0.0
C330 C 0.50449 0.29726 0.15462 0.0
C331 C 0.51769 0.33106 0.09283 0.0
O332 O 0.4848 0.32845 0.13305 0.0
O333 O 0.48745 0.35849 0.1251 0.0
O334 O 0.53804 0.31596 0.13544 0.0
O335 O 0.52329 0.34216 0.13711 0.0
H336 H 0.16355 0.46409 0.37254 0.0
H337 H 0.16343 0.43205 0.38249 0.0
H338 H 0.12845 0.41777 0.33667 0.0
H339 H 0.12874 0.45008 0.32644 0.0
H340 H 0.11391 0.40919 0.37183 0.0
H341 H 0.18481 0.38246 0.36556 0.0
H342 H 0.18445 0.40521 0.37518 0.0
H343 H 0.17644 0.40159 0.35199 0.0
C344 C 0.15633 0.45402 0.36423 0.0
C345 C 0.14616 0.45952 0.34874 0.0
C346 C 0.15637 0.43568 0.36986 0.0
C347 C 0.14609 0.42247 0.36022 0.0
C348 C 0.13665 0.42772 0.34416 0.0
H349 H 0.13996 0.3199 0.42644 0.0
H350 H 0.14001 0.33787 0.39764 0.0
C351 C 0.13688 0.44612 0.3383 0.0
C352 C 0.14302 0.40425 0.36888 0.0
H353 H 0.16654 0.37008 0.39097 0.0
C354 C 0.1253 0.40025 0.37549 0.0
C355 C 0.15783 0.39251 0.37357 0.0
C356 C 0.17692 0.39556 0.36603 0.0
C357 C 0.1224 0.38596 0.38817 0.0
C358 C 0.13758 0.37548 0.39433 0.0
C359 C 0.15493 0.37826 0.38632 0.0
C360 C 0.13636 0.36412 0.41119 0.0
C361 C 0.10335 0.38295 0.39585 0.0
C362 C 0.13438 0.37298 0.4282 0.0
C363 C 0.1346 0.36289 0.44451 0.0
C364 C 0.13666 0.34367 0.44417 0.0
C365 C 0.13825 0.3347 0.42709 0.0
C366 C 0.1383 0.3449 0.41067 0.0
H367 H 0.09258 0.38834 0.38641 0.0
H368 H 0.10077 0.36809 0.39838 0.0
H369 H 0.1021 0.39031 0.40917 0.0
H370 H 0.13309 0.38782 0.42888 0.0
H371 H 0.13335 0.37024 0.45742 0.0
H372 H 0.68171 0.13853 0.42589 0.0
H373 H 0.66426 0.14098 0.39692 0.0
H374 H 0.6138 0.14578 0.42783 0.0
H375 H 0.63094 0.14358 0.4565 0.0
H376 H 0.63618 0.11889 0.38325 0.0
H377 H 0.61033 0.18949 0.39303 0.0
H378 H 0.62945 0.18039 0.40611 0.0
H379 H 0.60608 0.17598 0.41324 0.0
C380 C 0.6669 0.14015 0.42644 0.0
C381 C 0.65771 0.14097 0.44347 0.0
C382 C 0.65697 0.14161 0.40991 0.0
C383 C 0.63779 0.14407 0.41023 0.0
C384 C 0.62865 0.14447 0.42724 0.0
H385 H 0.54454 0.11033 0.36297 0.0
H386 H 0.57625 0.11396 0.37287 0.0
C387 C 0.63848 0.14303 0.44364 0.0
C388 C 0.62679 0.14526 0.39305 0.0
H389 H 0.5905 0.169 0.37506 0.0
C390 C 0.62655 0.13009 0.3811 0.0
C391 C 0.6146 0.16011 0.38982 0.0
C392 C 0.61528 0.1775 0.40113 0.0
C393 C 0.613 0.12847 0.36738 0.0
C394 C 0.59922 0.14217 0.36588 0.0
C395 C 0.60084 0.15831 0.37637 0.0
C396 C 0.58134 0.13848 0.35668 0.0
C397 C 0.61299 0.11161 0.3553 0.0
C398 C 0.5735 0.15102 0.34415 0.0
C399 C 0.55513 0.14893 0.3384 0.0
C400 C 0.54435 0.13453 0.34551 0.0
C401 C 0.55252 0.1216 0.35734 0.0
C402 C 0.57077 0.12355 0.36284 0.0
H403 H 0.62729 0.10692 0.35254 0.0
H404 H 0.60574 0.10025 0.36251 0.0
H405 H 0.60597 0.11423 0.34197 0.0
H406 H 0.58134 0.16279 0.33941 0.0
H407 H 0.54909 0.15913 0.32936 0.0
H408 H 0.86754 0.68081 0.42535 0.0
H409 H 0.86711 0.66332 0.39628 0.0
H410 H 0.85556 0.61357 0.42654 0.0
H411 H 0.85588 0.6307 0.45525 0.0
H412 H 0.8891 0.63307 0.38586 0.0
H413 H 0.81588 0.61314 0.38654 0.0
H414 H 0.82472 0.63198 0.40019 0.0
H415 H 0.82629 0.60865 0.40847 0.0
C416 C 0.86487 0.66615 0.42572 0.0
C417 C 0.86166 0.65714 0.44257 0.0
C418 C 0.86457 0.65621 0.40914 0.0
C419 C 0.86083 0.63724 0.40923 0.0
C420 C 0.85794 0.62828 0.42608 0.0
H421 H 0.89326 0.5407 0.36919 0.0
H422 H 0.89014 0.57266 0.37822 0.0
C423 C 0.85831 0.6381 0.44253 0.0
C424 C 0.86094 0.62614 0.3921 0.0
H425 H 0.83692 0.59124 0.37189 0.0
C426 C 0.87752 0.62431 0.38237 0.0
C427 C 0.8457 0.61507 0.38714 0.0
C428 C 0.82709 0.61747 0.39602 0.0
C429 C 0.87987 0.61021 0.36937 0.0
C430 C 0.8654 0.5975 0.36634 0.0
C431 C 0.84815 0.60076 0.3744 0.0
C432 C 0.86888 0.57904 0.35831 0.0
C433 C 0.8982 0.60838 0.35982 0.0
C434 C 0.85788 0.57181 0.34409 0.0
C435 C 0.85963 0.55327 0.33886 0.0
C436 C 0.87208 0.54169 0.34813 0.0
C437 C 0.88343 0.54921 0.36188 0.0
C438 C 0.88184 0.56761 0.3669 0.0
H439 H 0.90448 0.62212 0.35745 0.0
H440 H 0.90775 0.60043 0.36872 0.0
H441 H 0.89686 0.60117 0.3464 0.0
H442 H 0.8476 0.58034 0.33746 0.0
H443 H 0.85067 0.5478 0.32826 0.0
H444 H 0.36903 0.85898 0.45864 0.0
H445 H 0.38736 0.86201 0.43078 0.0
H446 H 0.33823 0.87264 0.39919 0.0
H447 H 0.31952 0.86964 0.42736 0.0
H448 H 0.36492 0.84496 0.38403 0.0
H449 H 0.39737 0.91138 0.40275 0.0
H450 H 0.39756 0.89484 0.42113 0.0
H451 H 0.37595 0.9036 0.41277 0.0
C452 C 0.36204 0.86205 0.44583 0.0
C453 C 0.34281 0.8642 0.44523 0.0
C454 C 0.37257 0.86382 0.42991 0.0
C455 C 0.36418 0.86781 0.41301 0.0
C456 C 0.34495 0.86969 0.41218 0.0
H457 H 0.45031 0.88785 0.33079 0.0
H458 H 0.41857 0.88943 0.34252 0.0
C459 C 0.33431 0.86799 0.42824 0.0
C460 C 0.37588 0.86957 0.39641 0.0
H461 H 0.41404 0.89235 0.3813 0.0
C462 C 0.37536 0.85559 0.38309 0.0
C463 C 0.38934 0.88356 0.39509 0.0
C464 C 0.39002 0.89931 0.40861 0.0
C465 C 0.38901 0.85439 0.3694 0.0
C466 C 0.40346 0.86743 0.36919 0.0
C467 C 0.403 0.88229 0.38151 0.0
C468 C 0.42063 0.86442 0.35857 0.0
C469 C 0.38834 0.83876 0.35579 0.0
C470 C 0.43211 0.84964 0.36338 0.0
C471 C 0.4502 0.84889 0.35695 0.0
C472 C 0.45701 0.86273 0.34534 0.0
C473 C 0.44517 0.87681 0.33941 0.0
C474 C 0.42712 0.87777 0.34616 0.0
H475 H 0.37404 0.83365 0.3539 0.0
H476 H 0.39395 0.84304 0.34222 0.0
H477 H 0.39683 0.82719 0.36104 0.0
H478 H 0.42755 0.83941 0.37324 0.0
H479 H 0.45923 0.8381 0.36192 0.0
H480 H 0.11439 0.53913 0.62728 0.0
H481 H 0.11772 0.57106 0.61828 0.0
H482 H 0.15541 0.58018 0.66327 0.0
H483 H 0.15222 0.54762 0.67245 0.0
H484 H 0.11212 0.60495 0.63716 0.0
H485 H 0.18516 0.59363 0.61622 0.0
H486 H 0.17009 0.57448 0.621 0.0
H487 H 0.17827 0.58863 0.6395 0.0
C488 C 0.12335 0.54786 0.63541 0.0
C489 C 0.13331 0.54073 0.65041 0.0
C490 C 0.12511 0.56621 0.63031 0.0
C491 C 0.13691 0.57798 0.63998 0.0
C492 C 0.14633 0.57125 0.65552 0.0
H493 H 0.13605 0.68182 0.57495 0.0
H494 H 0.13777 0.66418 0.6039 0.0
C495 C 0.14446 0.55271 0.66078 0.0
C496 C 0.14013 0.59663 0.63231 0.0
H497 H 0.16962 0.61849 0.60301 0.0
C498 C 0.12488 0.60835 0.63019 0.0
C499 C 0.1568 0.60095 0.62323 0.0
C500 C 0.17357 0.58882 0.62497 0.0
C501 C 0.1253 0.62319 0.61779 0.0
C502 C 0.14145 0.62645 0.60744 0.0
C503 C 0.15725 0.61589 0.61097 0.0
C504 C 0.14107 0.6378 0.59047 0.0
C505 C 0.10796 0.63415 0.61452 0.0
C506 C 0.14251 0.62884 0.57345 0.0
C507 C 0.14153 0.63876 0.55708 0.0
C508 C 0.13913 0.65795 0.55731 0.0
C509 C 0.13783 0.66703 0.57437 0.0
C510 C 0.13879 0.657 0.59088 0.0
H511 H 0.09625 0.62918 0.62302 0.0
H512 H 0.11049 0.64883 0.6179 0.0
H513 H 0.10398 0.63339 0.59978 0.0
H514 H 0.14417 0.61403 0.57282 0.0
H515 H 0.14264 0.63131 0.54422 0.0
H516 H 0.36993 0.14484 0.54331 0.0
H517 H 0.38708 0.14602 0.57199 0.0
H518 H 0.3369 0.13812 0.60273 0.0
H519 H 0.31938 0.13676 0.57367 0.0
H520 H 0.38188 0.17089 0.60271 0.0
H521 H 0.3728 0.0969 0.62112 0.0
H522 H 0.36854 0.10493 0.59798 0.0
H523 H 0.35291 0.11086 0.61613 0.0
C524 C 0.36244 0.14332 0.55611 0.0
C525 C 0.34328 0.14062 0.55621 0.0
C526 C 0.37228 0.1441 0.57253 0.0
C527 C 0.36328 0.14218 0.58948 0.0
C528 C 0.34411 0.13954 0.58976 0.0
H529 H 0.45405 0.15146 0.67124 0.0
H530 H 0.42143 0.15498 0.66235 0.0
C531 C 0.33415 0.13876 0.57319 0.0
C532 C 0.3746 0.14244 0.60647 0.0
H533 H 0.39716 0.11279 0.63505 0.0
C534 C 0.38483 0.15838 0.61031 0.0
C535 C 0.37831 0.12611 0.61636 0.0
C536 C 0.36765 0.10865 0.61279 0.0
C537 C 0.39995 0.15792 0.62236 0.0
C538 C 0.40481 0.14109 0.63085 0.0
C539 C 0.39336 0.12567 0.62852 0.0
C540 C 0.4237 0.13804 0.63795 0.0
C541 C 0.41176 0.17488 0.62444 0.0
C542 C 0.43558 0.12714 0.6274 0.0
C543 C 0.45397 0.12522 0.6323 0.0
C544 C 0.46106 0.1341 0.64799 0.0
C545 C 0.44902 0.14453 0.65904 0.0
C546 C 0.43043 0.14657 0.65397 0.0
H547 H 0.40629 0.18676 0.61651 0.0
H548 H 0.41253 0.17882 0.63918 0.0
H549 H 0.42598 0.17195 0.61966 0.0
H550 H 0.43071 0.12048 0.61496 0.0
H551 H 0.4627 0.11684 0.62359 0.0
H552 H 0.83825 0.46465 0.63026 0.0
H553 H 0.83787 0.43264 0.62025 0.0
H554 H 0.87458 0.41814 0.66464 0.0
H555 H 0.87477 0.45042 0.67494 0.0
H556 H 0.88788 0.40997 0.62902 0.0
H557 H 0.81737 0.38277 0.63738 0.0
H558 H 0.81729 0.4056 0.62793 0.0
H559 H 0.82607 0.40184 0.65082 0.0
C560 C 0.84571 0.45453 0.63829 0.0
C561 C 0.85652 0.45996 0.65336 0.0
C562 C 0.84541 0.4362 0.63262 0.0
C563 C 0.85605 0.42295 0.6418 0.0
C564 C 0.86609 0.42813 0.65751 0.0
H565 H 0.8614 0.32084 0.57476 0.0
H566 H 0.86167 0.33868 0.60362 0.0
C567 C 0.86614 0.44651 0.66342 0.0
C568 C 0.85891 0.40482 0.63288 0.0
H569 H 0.83487 0.37071 0.61128 0.0
C570 C 0.87642 0.401 0.62566 0.0
C571 C 0.84402 0.39305 0.62857 0.0
C572 C 0.82517 0.39592 0.63675 0.0
C573 C 0.87899 0.38684 0.61278 0.0
C574 C 0.86368 0.37631 0.60704 0.0
C575 C 0.84657 0.37892 0.61561 0.0
C576 C 0.86445 0.36506 0.59009 0.0
C577 C 0.89779 0.38403 0.60444 0.0
C578 C 0.86582 0.37403 0.57307 0.0
C579 C 0.86543 0.36401 0.55673 0.0
C580 C 0.86381 0.34475 0.55704 0.0
C581 C 0.86275 0.33567 0.57413 0.0
C582 C 0.86288 0.34581 0.59058 0.0
H583 H 0.90883 0.38947 0.61353 0.0
H584 H 0.9004 0.36921 0.60176 0.0
H585 H 0.89852 0.39146 0.59111 0.0
H586 H 0.86682 0.3889 0.57243 0.0
H587 H 0.86625 0.37144 0.54383 0.0
H588 H 0.53954 0.88268 0.627 0.0
H589 H 0.5718 0.87955 0.61924 0.0
H590 H 0.57989 0.84333 0.66559 0.0
H591 H 0.54699 0.84635 0.67359 0.0
H592 H 0.60492 0.88645 0.64055 0.0
H593 H 0.59612 0.81329 0.61895 0.0
H594 H 0.57632 0.82793 0.62216 0.0
H595 H 0.58939 0.82044 0.64173 0.0
C596 C 0.54807 0.87403 0.63566 0.0
C597 C 0.54057 0.86451 0.65077 0.0
C598 C 0.56661 0.87241 0.63128 0.0
C599 C 0.57824 0.86118 0.64177 0.0
C600 C 0.57109 0.85202 0.65726 0.0
H601 H 0.68211 0.86365 0.57688 0.0
H602 H 0.66529 0.86121 0.60629 0.0
C603 C 0.55234 0.85377 0.66182 0.0
C604 C 0.59729 0.85837 0.63504 0.0
H605 H 0.6203 0.82994 0.60563 0.0
C606 C 0.60877 0.87387 0.63351 0.0
C607 C 0.60224 0.84193 0.62588 0.0
C608 C 0.59045 0.82488 0.62715 0.0
C609 C 0.62387 0.87399 0.62142 0.0
C610 C 0.62754 0.85818 0.61073 0.0
C611 C 0.61737 0.84205 0.61385 0.0
C612 C 0.63841 0.85943 0.59353 0.0
C613 C 0.63456 0.89157 0.61866 0.0
C614 C 0.62887 0.85929 0.57677 0.0
C615 C 0.63831 0.86073 0.56017 0.0
C616 C 0.65759 0.8623 0.55989 0.0
C617 C 0.66725 0.86252 0.5767 0.0
C618 C 0.65769 0.8611 0.59346 0.0
H619 H 0.63011 0.90262 0.62824 0.0
H620 H 0.64946 0.88894 0.62082 0.0
H621 H 0.63276 0.89651 0.6043 0.0
H622 H 0.61399 0.85815 0.57654 0.0
H623 H 0.63041 0.8605 0.54752 0.0
H624 H 0.32675 0.12785 0.44836 0.0
H625 H 0.33713 0.12805 0.41607 0.0
H626 H 0.38533 0.15894 0.43183 0.0
H627 H 0.37517 0.15874 0.46379 0.0
H628 H 0.36872 0.1695 0.39659 0.0
H629 H 0.38271 0.09436 0.40429 0.0
H630 H 0.3599 0.10291 0.40888 0.0
H631 H 0.37847 0.10878 0.42406 0.0
C632 C 0.33928 0.13512 0.44478 0.0
C633 C 0.35027 0.14312 0.45857 0.0
C634 C 0.34523 0.13513 0.42639 0.0
C635 C 0.3621 0.14334 0.42163 0.0
C636 C 0.37228 0.15253 0.4352 0.0
H637 H 0.45885 0.13667 0.36845 0.0
H638 H 0.43038 0.13637 0.38607 0.0
C639 C 0.36649 0.15234 0.45348 0.0
C640 C 0.37065 0.14072 0.4033 0.0
H641 H 0.39761 0.10984 0.38033 0.0
C642 C 0.37452 0.15634 0.39259 0.0
C643 C 0.37832 0.12354 0.39826 0.0
C644 C 0.37477 0.10638 0.40942 0.0
C645 C 0.38697 0.15549 0.3778 0.0
C646 C 0.39572 0.13862 0.37373 0.0
C647 C 0.39076 0.12272 0.38348 0.0
C648 C 0.41256 0.13801 0.36228 0.0
C649 C 0.39193 0.17289 0.36763 0.0
C650 C 0.41194 0.13887 0.34298 0.0
C651 C 0.42834 0.13894 0.33274 0.0
C652 C 0.4455 0.13828 0.34174 0.0
C653 C 0.44592 0.13721 0.36105 0.0
C654 C 0.42964 0.13701 0.37118 0.0
H655 H 0.38356 0.18484 0.37218 0.0
H656 H 0.40672 0.1761 0.36986 0.0
H657 H 0.38986 0.17087 0.35262 0.0
H658 H 0.39883 0.13962 0.3359 0.0
H659 H 0.42761 0.13979 0.31787 0.0
H660 H 0.87074 0.32525 0.44952 0.0
H661 H 0.8705 0.33444 0.41689 0.0
H662 H 0.84153 0.38423 0.43121 0.0
H663 H 0.84167 0.37518 0.46349 0.0
H664 H 0.83032 0.36806 0.39673 0.0
H665 H 0.90635 0.37713 0.40355 0.0
H666 H 0.89648 0.35489 0.4082 0.0
H667 H 0.89193 0.37374 0.42348 0.0
C668 C 0.86385 0.33787 0.44557 0.0
C669 C 0.85644 0.34964 0.45904 0.0
C670 C 0.86382 0.34315 0.42698 0.0
C671 C 0.85623 0.36015 0.4217 0.0
C672 C 0.84748 0.37107 0.43497 0.0
H673 H 0.86837 0.45581 0.36933 0.0
H674 H 0.86709 0.42704 0.3864 0.0
C675 C 0.84765 0.36593 0.45344 0.0
C676 C 0.85925 0.36811 0.40315 0.0
H677 H 0.89163 0.3928 0.37966 0.0
C678 C 0.84381 0.37292 0.39255 0.0
C679 C 0.87688 0.37453 0.39783 0.0
C680 C 0.89392 0.36993 0.40881 0.0
C681 C 0.84533 0.38524 0.3777 0.0
C682 C 0.8627 0.39287 0.37345 0.0
C683 C 0.87836 0.38681 0.38298 0.0
C684 C 0.86426 0.40983 0.36229 0.0
C685 C 0.82818 0.39136 0.36773 0.0
C686 C 0.86325 0.40964 0.34299 0.0
C687 C 0.86409 0.42621 0.33307 0.0
C688 C 0.86581 0.44311 0.34239 0.0
C689 C 0.86703 0.44308 0.3617 0.0
C690 C 0.86633 0.42664 0.37151 0.0
H691 H 0.81579 0.38358 0.3722 0.0
H692 H 0.82581 0.40624 0.37028 0.0
H693 H 0.83 0.38949 0.35267 0.0
H694 H 0.86168 0.39675 0.33567 0.0
H695 H 0.86309 0.42584 0.3182 0.0
H696 H 0.57368 0.86457 0.32097 0.0
H697 H 0.60195 0.86253 0.33961 0.0
H698 H 0.56909 0.85417 0.38834 0.0
H699 H 0.54111 0.8561 0.37003 0.0
H700 H 0.61241 0.88472 0.36956 0.0
H701 H 0.6066 0.81228 0.39153 0.0
H702 H 0.5941 0.82137 0.37201 0.0
H703 H 0.5853 0.82427 0.39502 0.0
C704 C 0.57255 0.86221 0.33565 0.0
C705 C 0.55518 0.86045 0.34403 0.0
C706 C 0.58868 0.861 0.34624 0.0
C707 C 0.58761 0.85775 0.36528 0.0
C708 C 0.57027 0.85616 0.3736 0.0
H709 H 0.62902 0.88945 0.46243 0.0
H710 H 0.61928 0.88612 0.43065 0.0
C711 C 0.55425 0.85745 0.36311 0.0
C712 C 0.60431 0.85719 0.37703 0.0
H713 H 0.62247 0.83287 0.41289 0.0
C714 C 0.61501 0.87318 0.37867 0.0
C715 C 0.60807 0.84199 0.38863 0.0
C716 C 0.59802 0.82394 0.38656 0.0
C717 C 0.62793 0.87507 0.39293 0.0
C718 C 0.62995 0.86073 0.40597 0.0
C719 C 0.62076 0.84399 0.40306 0.0
C720 C 0.63828 0.86406 0.42432 0.0
C721 C 0.63854 0.89284 0.39455 0.0
C722 C 0.65223 0.85268 0.43149 0.0
C723 C 0.65791 0.85459 0.44989 0.0
C724 C 0.64934 0.86757 0.4614 0.0
C725 C 0.6358 0.87922 0.45395 0.0
C726 C 0.63036 0.87749 0.43568 0.0
H727 H 0.64108 0.89894 0.38075 0.0
H728 H 0.63032 0.90288 0.4026 0.0
H729 H 0.65195 0.89074 0.4016 0.0
H730 H 0.65834 0.84206 0.423 0.0
H731 H 0.66832 0.84539 0.45532 0.0
H732 H 0.15315 0.67206 0.45285 0.0
H733 H 0.15645 0.66254 0.42041 0.0
H734 H 0.11326 0.62247 0.42796 0.0
H735 H 0.10994 0.63181 0.45985 0.0
H736 H 0.16682 0.62773 0.41024 0.0
H737 H 0.10002 0.64282 0.37795 0.0
H738 H 0.10746 0.65402 0.3989 0.0
H739 H 0.09628 0.63185 0.39972 0.0
C740 C 0.14408 0.66158 0.44735 0.0
C741 C 0.1314 0.65257 0.45887 0.0
C742 C 0.14597 0.65614 0.42888 0.0
C743 C 0.13488 0.64199 0.42165 0.0
C744 C 0.12165 0.63372 0.433 0.0
H745 H 0.14745 0.5445 0.37005 0.0
H746 H 0.14799 0.57311 0.38737 0.0
C747 C 0.11992 0.63893 0.45135 0.0
C748 C 0.13857 0.63367 0.40336 0.0
H749 H 0.11532 0.6143 0.3674 0.0
C750 C 0.15575 0.62531 0.40051 0.0
C751 C 0.1243 0.63075 0.3904 0.0
C752 C 0.10606 0.64054 0.39182 0.0
C753 C 0.15832 0.61247 0.38631 0.0
C754 C 0.14325 0.60771 0.37491 0.0
C755 C 0.12676 0.61765 0.37639 0.0
C756 C 0.14341 0.59064 0.36371 0.0
C757 C 0.17685 0.60332 0.38434 0.0
C758 C 0.14004 0.5909 0.34466 0.0
C759 C 0.13962 0.57439 0.33462 0.0
C760 C 0.14233 0.55743 0.34359 0.0
C761 C 0.1454 0.5573 0.36268 0.0
C762 C 0.14589 0.57369 0.37261 0.0
H763 H 0.18809 0.61262 0.38894 0.0
H764 H 0.17725 0.59084 0.39315 0.0
H765 H 0.17949 0.59913 0.36987 0.0
H766 H 0.13782 0.60384 0.33759 0.0
H767 H 0.13718 0.57489 0.31993 0.0
H768 H 0.36951 0.83814 0.53852 0.0
H769 H 0.37903 0.83775 0.57067 0.0
H770 H 0.33353 0.8732 0.58475 0.0
H771 H 0.32378 0.87347 0.55229 0.0
H772 H 0.36799 0.88741 0.59403 0.0
H773 H 0.36233 0.81626 0.61988 0.0
H774 H 0.37234 0.81669 0.59732 0.0
H775 H 0.34902 0.82455 0.60053 0.0
C776 C 0.36115 0.84533 0.54856 0.0
C777 C 0.34592 0.85583 0.54296 0.0
C778 C 0.36653 0.845 0.56698 0.0
C779 C 0.35689 0.85528 0.58018 0.0
C780 C 0.34103 0.86499 0.57481 0.0
H781 H 0.42469 0.85821 0.68171 0.0
H782 H 0.39544 0.85836 0.66447 0.0
C783 C 0.33543 0.86508 0.55632 0.0
C784 C 0.36545 0.85819 0.59849 0.0
H785 H 0.38804 0.83442 0.63216 0.0
C786 C 0.37184 0.87592 0.60276 0.0
C787 C 0.37036 0.84327 0.61002 0.0
C788 C 0.36297 0.82416 0.6068 0.0
C789 C 0.38455 0.87876 0.61703 0.0
C790 C 0.39105 0.86349 0.62718 0.0
C791 C 0.38319 0.8461 0.62422 0.0
C792 C 0.40811 0.86469 0.63827 0.0
C793 C 0.39187 0.8979 0.62034 0.0
C794 C 0.4248 0.8681 0.62921 0.0
C795 C 0.44137 0.86779 0.63887 0.0
C796 C 0.44163 0.86418 0.65787 0.0
C797 C 0.42487 0.86115 0.66709 0.0
C798 C 0.4082 0.86121 0.65729 0.0
H799 H 0.38184 0.90853 0.61585 0.0
H800 H 0.39515 0.90006 0.63512 0.0
H801 H 0.4047 0.89982 0.61227 0.0
H802 H 0.42507 0.8705 0.61449 0.0
H803 H 0.45401 0.87014 0.63133 0.0
H804 H 0.13178 0.45445 0.63126 0.0
H805 H 0.13233 0.42553 0.61444 0.0
H806 H 0.14476 0.39622 0.66454 0.0
H807 H 0.14389 0.42545 0.68179 0.0
H808 H 0.1693 0.39023 0.63062 0.0
H809 H 0.09474 0.3807 0.61773 0.0
H810 H 0.10245 0.40402 0.61471 0.0
H811 H 0.10355 0.39359 0.63714 0.0
C812 C 0.13441 0.44189 0.63884 0.0
C813 C 0.13775 0.44223 0.65788 0.0
C814 C 0.13466 0.42534 0.62918 0.0
C815 C 0.1384 0.40876 0.63828 0.0
C816 C 0.14169 0.4089 0.65733 0.0
H817 H 0.12941 0.32513 0.55183 0.0
H818 H 0.13066 0.33443 0.58438 0.0
C819 C 0.14117 0.42556 0.66713 0.0
C820 C 0.13988 0.39174 0.62721 0.0
H821 H 0.11543 0.36779 0.59512 0.0
C822 C 0.15748 0.38483 0.62326 0.0
C823 C 0.12444 0.38455 0.61782 0.0
C824 C 0.10518 0.39096 0.62216 0.0
C825 C 0.16019 0.37228 0.60879 0.0
C826 C 0.14495 0.36674 0.59799 0.0
C827 C 0.12716 0.37213 0.60328 0.0
C828 C 0.14732 0.35863 0.5794 0.0
C829 C 0.17948 0.36594 0.60451 0.0
C830 C 0.15655 0.36892 0.56591 0.0
C831 C 0.15566 0.36379 0.54745 0.0
C832 C 0.14561 0.34819 0.54205 0.0
C833 C 0.1374 0.33712 0.55565 0.0
C834 C 0.13807 0.34244 0.57421 0.0
H835 H 0.18801 0.36542 0.61719 0.0
H836 H 0.17948 0.35213 0.59794 0.0
H837 H 0.18602 0.37587 0.59492 0.0
H838 H 0.16342 0.38167 0.56948 0.0
H839 H 0.16211 0.37257 0.53726 0.0
H840 H 0.54792 0.1255 0.6315 0.0
H841 H 0.57695 0.1258 0.61489 0.0
H842 H 0.60534 0.14298 0.66412 0.0
H843 H 0.57597 0.14241 0.68116 0.0
H844 H 0.61105 0.16555 0.63073 0.0
H845 H 0.62298 0.09152 0.61794 0.0
H846 H 0.59946 0.09808 0.61406 0.0
H847 H 0.60906 0.09983 0.63684 0.0
C848 C 0.56033 0.12905 0.63896 0.0
C849 C 0.55966 0.13392 0.65765 0.0
C850 C 0.57696 0.12912 0.62944 0.0
C851 C 0.59332 0.13418 0.63832 0.0
C852 C 0.59286 0.13883 0.65709 0.0
H853 H 0.67649 0.12861 0.55091 0.0
H854 H 0.66735 0.12894 0.58353 0.0
C855 C 0.57613 0.13848 0.66678 0.0
C856 C 0.61026 0.13614 0.62714 0.0
H857 H 0.63454 0.11259 0.59463 0.0
C858 C 0.61669 0.15393 0.62325 0.0
C859 C 0.6178 0.12097 0.61759 0.0
C860 C 0.6121 0.10149 0.62195 0.0
C861 C 0.62898 0.15709 0.60866 0.0
C862 C 0.63478 0.1421 0.59767 0.0
C863 C 0.62996 0.12413 0.60292 0.0
C864 C 0.64258 0.14486 0.579 0.0
C865 C 0.63476 0.17657 0.60444 0.0
C866 C 0.63187 0.15394 0.56573 0.0
C867 C 0.63691 0.15358 0.54723 0.0
C868 C 0.65284 0.1442 0.54156 0.0
C869 C 0.66424 0.13608 0.55494 0.0
C870 C 0.65901 0.13622 0.57354 0.0
H871 H 0.63521 0.18501 0.61719 0.0
H872 H 0.64849 0.17699 0.59772 0.0
H873 H 0.62454 0.18291 0.59502 0.0
H874 H 0.61894 0.16033 0.56951 0.0
H875 H 0.62787 0.15996 0.53722 0.0
H876 H 0.86844 0.5445 0.63126 0.0
H877 H 0.86782 0.57281 0.61332 0.0
H878 H 0.85728 0.60414 0.66259 0.0
H879 H 0.85819 0.57558 0.68091 0.0
H880 H 0.83167 0.60917 0.62969 0.0
H881 H 0.90573 0.6173 0.61327 0.0
H882 H 0.89747 0.59407 0.61115 0.0
H883 H 0.89764 0.60499 0.63336 0.0
C884 C 0.86622 0.55739 0.63839 0.0
C885 C 0.86338 0.55782 0.65751 0.0
C886 C 0.86594 0.57358 0.6281 0.0
C887 C 0.86266 0.59055 0.63666 0.0
C888 C 0.85998 0.59116 0.65579 0.0
H889 H 0.86901 0.67476 0.55024 0.0
H890 H 0.86875 0.66473 0.58259 0.0
C891 C 0.86054 0.57488 0.66621 0.0
C892 C 0.86088 0.60719 0.62503 0.0
H893 H 0.88424 0.63057 0.59171 0.0
C894 C 0.84323 0.6143 0.62175 0.0
C895 C 0.87599 0.614 0.61486 0.0
C896 C 0.89533 0.60734 0.61842 0.0
C897 C 0.84006 0.6268 0.60732 0.0
C898 C 0.85491 0.63214 0.59591 0.0
C899 C 0.87282 0.62641 0.60039 0.0
C900 C 0.8519 0.64068 0.57759 0.0
C901 C 0.82071 0.63341 0.6038 0.0
C902 C 0.84217 0.63074 0.56419 0.0
C903 C 0.84248 0.63629 0.54582 0.0
C904 C 0.85242 0.65199 0.54046 0.0
C905 C 0.86106 0.66274 0.55404 0.0
C906 C 0.86099 0.65698 0.57249 0.0
H907 H 0.81256 0.6337 0.61674 0.0
H908 H 0.82064 0.64737 0.59757 0.0
H909 H 0.81379 0.62379 0.59416 0.0
H910 H 0.83539 0.61793 0.5677 0.0
H911 H 0.83576 0.62773 0.53562 0.0
H912 H 0.31934 0.42548 0.13575 0.0
H913 H 0.33641 0.39623 0.13785 0.0
H914 H 0.38712 0.42641 0.14448 0.0
H915 H 0.37041 0.4553 0.14247 0.0
H916 H 0.36549 0.38383 0.11505 0.0
H917 H 0.38908 0.38935 0.18696 0.0
H918 H 0.3699 0.40254 0.17813 0.0
H919 H 0.39318 0.41046 0.17482 0.0
C920 C 0.33412 0.4258 0.13775 0.0
C921 C 0.34353 0.44268 0.13899 0.0
C922 C 0.34382 0.40912 0.13899 0.0
C923 C 0.36297 0.40916 0.14177 0.0
C924 C 0.37229 0.42603 0.14285 0.0
H925 H 0.45767 0.36666 0.10781 0.0
H926 H 0.42572 0.37565 0.11151 0.0
C927 C 0.36271 0.44257 0.14152 0.0
C928 C 0.37385 0.3919 0.14234 0.0
H929 H 0.40981 0.37307 0.16592 0.0
C930 C 0.37479 0.38105 0.1264 0.0
C931 C 0.38564 0.38789 0.15731 0.0
C932 C 0.38425 0.39807 0.17535 0.0
C933 C 0.38871 0.3678 0.12424 0.0
C934 C 0.40212 0.36565 0.13824 0.0
C935 C 0.39975 0.37489 0.15503 0.0
C936 C 0.42037 0.3573 0.13439 0.0
C937 C 0.38958 0.35703 0.10653 0.0
C938 C 0.42817 0.34393 0.14605 0.0
C939 C 0.44668 0.33871 0.14394 0.0
C940 C 0.45767 0.34718 0.13044 0.0
C941 C 0.44958 0.35998 0.11841 0.0
C942 C 0.43119 0.36497 0.12036 0.0
H943 H 0.37552 0.35432 0.10114 0.0
H944 H 0.39704 0.36523 0.09601 0.0
H945 H 0.39684 0.3437 0.10841 0.0
H946 H 0.42013 0.33802 0.15714 0.0
H947 H 0.45263 0.32888 0.15344 0.0
H948 H 0.46032 0.62473 0.88224 0.0
H949 H 0.42807 0.61671 0.879 0.0
H950 H 0.41968 0.6632 0.84306 0.0
H951 H 0.45248 0.6715 0.84624 0.0
H952 H 0.39454 0.6386 0.88579 0.0
H953 H 0.40412 0.61572 0.81308 0.0
H954 H 0.42373 0.61865 0.82807 0.0
H955 H 0.4113 0.63842 0.82008 0.0
C956 C 0.45171 0.63337 0.87365 0.0
C957 C 0.45908 0.64863 0.86428 0.0
C958 C 0.43319 0.62883 0.87196 0.0
C959 C 0.42151 0.63931 0.86078 0.0
C960 C 0.42854 0.65491 0.85173 0.0
H961 H 0.31654 0.5757 0.85852 0.0
H962 H 0.33393 0.60486 0.85666 0.0
C963 C 0.44723 0.65962 0.85357 0.0
C964 C 0.40248 0.63253 0.85789 0.0
H965 H 0.37948 0.60298 0.82958 0.0
C966 C 0.39077 0.63143 0.87324 0.0
C967 C 0.39768 0.62316 0.84153 0.0
C968 C 0.40979 0.62393 0.82468 0.0
C969 C 0.37541 0.61967 0.87326 0.0
C970 C 0.3718 0.60881 0.85756 0.0
C971 C 0.38233 0.6114 0.84158 0.0
C972 C 0.36062 0.59185 0.85894 0.0
C973 C 0.36429 0.61743 0.89063 0.0
C974 C 0.3699 0.57508 0.86097 0.0
C975 C 0.36016 0.55864 0.86203 0.0
C976 C 0.34083 0.55854 0.86109 0.0
C977 C 0.33143 0.57539 0.85932 0.0
C978 C 0.3413 0.592 0.85823 0.0
H979 H 0.36777 0.62803 0.9011 0.0
H980 H 0.34937 0.61834 0.88744 0.0
H981 H 0.36692 0.60361 0.89661 0.0
H982 H 0.38481 0.57472 0.86166 0.0
H983 H 0.36787 0.54596 0.86342 0.0
H984 H 0.45619 0.37034 0.85785 0.0
H985 H 0.42765 0.38778 0.85743 0.0
H986 H 0.39641 0.33753 0.86217 0.0
H987 H 0.4253 0.31971 0.86271 0.0
H988 H 0.39733 0.38348 0.83142 0.0
H989 H 0.37751 0.37213 0.90472 0.0
H990 H 0.40086 0.36846 0.89703 0.0
H991 H 0.38309 0.3527 0.89035 0.0
C992 C 0.4433 0.3629 0.85887 0.0
C993 C 0.44301 0.34362 0.86037 0.0
C994 C 0.42697 0.37292 0.85854 0.0
C995 C 0.40993 0.36396 0.85974 0.0
C996 C 0.40946 0.34469 0.86131 0.0
H997 H 0.32697 0.45316 0.84854 0.0
H998 H 0.33678 0.42079 0.84549 0.0
C999 C 0.42593 0.33456 0.86162 0.0
C1000 C 0.393 0.37534 0.85955 0.0
H1001 H 0.36323 0.39647 0.88907 0.0
C1002 C 0.38939 0.38597 0.84381 0.0
C1003 C 0.38271 0.37846 0.87575 0.0
C1004 C 0.38614 0.36742 0.89301 0.0
C1005 C 0.37702 0.40081 0.84436 0.0
C1006 C 0.3679 0.40495 0.86106 0.0
C1007 C 0.3702 0.3932 0.87627 0.0
C1008 C 0.35979 0.42341 0.86428 0.0
C1009 C 0.37518 0.41302 0.82765 0.0
C1010 C 0.36907 0.43535 0.87624 0.0
C1011 C 0.36359 0.45359 0.87794 0.0
C1012 C 0.34861 0.46045 0.86776 0.0
C1013 C 0.33862 0.44828 0.85647 0.0
C1014 C 0.34424 0.42985 0.85468 0.0
H1015 H 0.38418 0.40851 0.81614 0.0
H1016 H 0.3607 0.41286 0.82277 0.0
H1017 H 0.37875 0.42744 0.83125 0.0
H1018 H 0.3811 0.43072 0.88377 0.0
H1019 H 0.37144 0.46247 0.88701 0.0
H1020 H 0.63103 0.45911 0.86716 0.0
H1021 H 0.61288 0.43124 0.86355 0.0
H1022 H 0.66223 0.40022 0.85227 0.0
H1023 H 0.68076 0.42832 0.85632 0.0
H1024 H 0.61057 0.40971 0.83182 0.0
H1025 H 0.63592 0.36908 0.8918 0.0
H1026 H 0.64 0.39352 0.88991 0.0
H1027 H 0.65254 0.37778 0.87562 0.0
C1028 C 0.63813 0.44637 0.86408 0.0
C1029 C 0.65735 0.44592 0.86205 0.0
C1030 C 0.62769 0.43043 0.86195 0.0
C1031 C 0.63616 0.41364 0.85764 0.0
C1032 C 0.65542 0.41299 0.8558 0.0
H1033 H 0.54568 0.33467 0.83572 0.0
H1034 H 0.5775 0.3459 0.83156 0.0
C1035 C 0.66597 0.42904 0.85809 0.0
C1036 C 0.62434 0.3972 0.85486 0.0
H1037 H 0.60959 0.35824 0.87662 0.0
C1038 C 0.6106 0.39816 0.84129 0.0
C1039 C 0.62451 0.38214 0.86719 0.0
C1040 C 0.63894 0.38046 0.88204 0.0
C1041 C 0.5961 0.38541 0.84073 0.0
C1042 C 0.59554 0.37106 0.8539 0.0
C1043 C 0.61013 0.36919 0.86648 0.0
C1044 C 0.57823 0.36077 0.8574 0.0
C1045 C 0.58063 0.3884 0.82716 0.0
C1046 C 0.56854 0.36465 0.87361 0.0
C1047 C 0.55058 0.35839 0.87591 0.0
C1048 C 0.54195 0.34793 0.86214 0.0
C1049 C 0.55209 0.34271 0.84652 0.0
C1050 C 0.57017 0.34919 0.84412 0.0
H1051 H 0.58239 0.40126 0.81907 0.0
H1052 H 0.58006 0.37667 0.81741 0.0
H1053 H 0.56722 0.38907 0.83448 0.0
H1054 H 0.57445 0.37353 0.88404 0.0
H1055 H 0.5431 0.36245 0.88816 0.0
H1056 H 0.67294 0.54948 0.84853 0.0
H1057 H 0.66361 0.5819 0.845 0.0
H1058 H 0.62619 0.57591 0.89074 0.0
H1059 H 0.63538 0.544 0.89429 0.0
H1060 H 0.62866 0.59165 0.83616 0.0
H1061 H 0.64654 0.62647 0.90087 0.0
H1062 H 0.65748 0.60526 0.89381 0.0
H1063 H 0.63588 0.60486 0.90609 0.0
C1064 C 0.66313 0.55532 0.85812 0.0
C1065 C 0.65475 0.54422 0.87157 0.0
C1066 C 0.65782 0.5738 0.8561 0.0
C1067 C 0.64441 0.58146 0.8678 0.0
C1068 C 0.63689 0.57055 0.88185 0.0
H1069 H 0.54568 0.62966 0.85859 0.0
H1070 H 0.57488 0.61342 0.85758 0.0
C1071 C 0.64199 0.55219 0.88371 0.0
C1072 C 0.63579 0.59956 0.86387 0.0
H1073 H 0.61687 0.63596 0.88676 0.0
C1074 C 0.62662 0.60172 0.847 0.0
C1075 C 0.63334 0.61297 0.87779 0.0
C1076 C 0.64404 0.61235 0.89556 0.0
C1077 C 0.61341 0.61559 0.84456 0.0
C1078 C 0.60912 0.62737 0.85946 0.0
C1079 C 0.61988 0.62666 0.87548 0.0
C1080 C 0.59166 0.63793 0.85982 0.0
C1081 C 0.60327 0.61672 0.82647 0.0
C1082 C 0.59135 0.65714 0.86206 0.0
C1083 C 0.57448 0.66657 0.86273 0.0
C1084 C 0.55778 0.65685 0.8614 0.0
C1085 C 0.55826 0.63761 0.85955 0.0
C1086 C 0.57498 0.62829 0.85881 0.0
H1087 H 0.61207 0.61187 0.81494 0.0
H1088 H 0.59095 0.60769 0.82704 0.0
H1089 H 0.59867 0.631 0.82354 0.0
H1090 H 0.60411 0.66479 0.86313 0.0
H1091 H 0.57452 0.6814 0.86422 0.0
H1092 H 0.63187 0.54584 0.14459 0.0
H1093 H 0.61464 0.57452 0.14423 0.0
H1094 H 0.66489 0.60509 0.13642 0.0
H1095 H 0.68257 0.57605 0.13671 0.0
H1096 H 0.62937 0.61143 0.17002 0.0
H1097 H 0.61728 0.61574 0.09448 0.0
H1098 H 0.61846 0.59315 0.1047 0.0
H1099 H 0.63865 0.60734 0.10414 0.0
C1100 C 0.63937 0.55859 0.14271 0.0
C1101 C 0.65862 0.55866 0.14066 0.0
C1102 C 0.62946 0.57498 0.14254 0.0
C1103 C 0.63851 0.59184 0.14032 0.0
C1104 C 0.65772 0.59214 0.13815 0.0
H1105 H 0.55139 0.67503 0.1272 0.0
H1106 H 0.58394 0.66557 0.12876 0.0
C1107 C 0.66775 0.57559 0.13829 0.0
C1108 C 0.62733 0.60882 0.14057 0.0
H1109 H 0.59571 0.631 0.1139 0.0
C1110 C 0.62244 0.61626 0.15769 0.0
C1111 C 0.61841 0.61509 0.12448 0.0
C1112 C 0.62346 0.60755 0.10583 0.0
C1113 C 0.60766 0.62861 0.15929 0.0
C1114 C 0.59743 0.63333 0.14341 0.0
C1115 C 0.60354 0.62734 0.12608 0.0
C1116 C 0.57859 0.64105 0.14482 0.0
C1117 C 0.60236 0.63555 0.17811 0.0
C1118 C 0.5649 0.63052 0.15345 0.0
C1119 C 0.54647 0.63571 0.15236 0.0
C1120 C 0.54129 0.65164 0.14272 0.0
C1121 C 0.55505 0.66279 0.13488 0.0
C1122 C 0.57359 0.65738 0.13571 0.0
H1123 H 0.61454 0.63626 0.18735 0.0
H1124 H 0.5959 0.64938 0.17731 0.0
H1125 H 0.59232 0.62588 0.18438 0.0
H1126 H 0.56836 0.61768 0.16022 0.0
H1127 H 0.53616 0.62686 0.15853 0.0
H1128 H 0.37482 0.5389 0.11353 0.0
H1129 H 0.38364 0.5709 0.11666 0.0
H1130 H 0.33683 0.58074 0.15183 0.0
H1131 H 0.32783 0.54812 0.14888 0.0
H1132 H 0.3649 0.60458 0.1093 0.0
H1133 H 0.38232 0.59509 0.18353 0.0
H1134 H 0.37836 0.57555 0.16873 0.0
H1135 H 0.35942 0.58982 0.17562 0.0
C1136 C 0.36626 0.54778 0.1219 0.0
C1137 C 0.35078 0.54085 0.13122 0.0
C1138 C 0.37127 0.56618 0.12353 0.0
C1139 C 0.361 0.57818 0.13457 0.0
C1140 C 0.34503 0.57163 0.14335 0.0
H1141 H 0.42612 0.68198 0.13472 0.0
H1142 H 0.39703 0.66449 0.13534 0.0
C1143 C 0.33989 0.55305 0.14162 0.0
C1144 C 0.36844 0.59693 0.1377 0.0
H1145 H 0.39626 0.61958 0.16802 0.0
C1146 C 0.37124 0.6083 0.1223 0.0
C1147 C 0.37669 0.60169 0.15468 0.0
C1148 C 0.37417 0.58996 0.17164 0.0
C1149 C 0.38357 0.62319 0.12295 0.0
C1150 C 0.39315 0.62684 0.13948 0.0
C1151 C 0.38889 0.61667 0.15536 0.0
C1152 C 0.41017 0.6381 0.1396 0.0
C1153 C 0.38763 0.63377 0.10554 0.0
C1154 C 0.42707 0.62907 0.14189 0.0
C1155 C 0.44351 0.6389 0.14153 0.0
C1156 C 0.44349 0.65806 0.1389 0.0
C1157 C 0.42655 0.66721 0.13668 0.0
C1158 C 0.40996 0.65727 0.13703 0.0
H1159 H 0.37954 0.62864 0.09361 0.0
H1160 H 0.38433 0.64853 0.10763 0.0
H1161 H 0.40251 0.63276 0.10217 0.0
H1162 H 0.42755 0.61428 0.14378 0.0
H1163 H 0.45628 0.63141 0.14333 0.0
H1164 H 0.67555 0.45076 0.13259 0.0
H1165 H 0.66505 0.41853 0.1326 0.0
H1166 H 0.61581 0.43465 0.16159 0.0
H1167 H 0.62615 0.46653 0.16165 0.0
H1168 H 0.63077 0.39953 0.1727 0.0
H1169 H 0.62167 0.40697 0.09677 0.0
H1170 H 0.64412 0.41092 0.10649 0.0
H1171 H 0.62573 0.42666 0.11133 0.0
C1172 C 0.66277 0.44728 0.13944 0.0
C1173 C 0.65154 0.46115 0.14693 0.0
C1174 C 0.65674 0.42891 0.13933 0.0
C1175 C 0.63952 0.42427 0.14686 0.0
C1176 C 0.62911 0.43791 0.15568 0.0
H1177 H 0.54306 0.37075 0.13345 0.0
H1178 H 0.57137 0.3886 0.13501 0.0
C1179 C 0.63501 0.45616 0.15564 0.0
C1180 C 0.6309 0.40603 0.1438 0.0
H1181 H 0.60601 0.38292 0.11127 0.0
C1182 C 0.62585 0.39547 0.1592 0.0
C1183 C 0.62437 0.40091 0.12616 0.0
C1184 C 0.62912 0.41192 0.10918 0.0
C1185 C 0.6134 0.38075 0.15758 0.0
C1186 C 0.60585 0.37655 0.14016 0.0
C1187 C 0.61195 0.38618 0.12458 0.0
C1188 C 0.58917 0.36499 0.1384 0.0
C1189 C 0.60716 0.37076 0.17468 0.0
C1190 C 0.58984 0.34571 0.13959 0.0
C1191 C 0.57355 0.33535 0.13858 0.0
C1192 C 0.55643 0.3442 0.13651 0.0
C1193 C 0.55597 0.36348 0.13507 0.0
C1194 C 0.57216 0.37373 0.13593 0.0
H1195 H 0.61454 0.37552 0.1872 0.0
H1196 H 0.59216 0.37289 0.1767 0.0
H1197 H 0.6095 0.35575 0.17302 0.0
H1198 H 0.60289 0.33874 0.14145 0.0
H1199 H 0.5743 0.32051 0.13975 0.0
H1200 H 0.06773 0.35605 0.47687 0.0
H1201 H 0.03511 0.34969 0.48148 0.0
H1202 H 0.04844 0.29677 0.50479 0.0
H1203 H 0.08133 0.30305 0.50037 0.0
H1204 H 0.01232 0.31998 0.46902 0.0
H1205 H 0.01815 0.32347 0.54542 0.0
H1206 H 0.03603 0.33193 0.53038 0.0
H1207 H 0.0331 0.30763 0.53365 0.0
C1208 C 0.06381 0.34298 0.48287 0.0
C1209 C 0.07722 0.33014 0.48841 0.0
C1210 C 0.04512 0.33935 0.48544 0.0
C1211 C 0.03938 0.32288 0.49369 0.0
C1212 C 0.05261 0.30969 0.49862 0.0
H1213 H 0.91934 0.3036 0.50164 0.0
H1214 H 0.95219 0.29705 0.49735 0.0
C1215 C 0.07139 0.31327 0.49599 0.0
C1216 C 0.01956 0.32014 0.49774 0.0
H1217 H 0.98847 0.32039 0.53301 0.0
C1218 C 0.00707 0.31975 0.483 0.0
C1219 C 0.01282 0.32 0.51601 0.0
C1220 C 0.02564 0.32089 0.53234 0.0
C1221 C 0.98797 0.31989 0.48602 0.0
C1222 C 0.98123 0.32026 0.50429 0.0
C1223 C 0.99372 0.31998 0.51904 0.0
C1224 C 0.96142 0.32315 0.50831 0.0
C1225 C 0.97516 0.32066 0.46967 0.0
C1226 C 0.9558 0.33971 0.51645 0.0
C1227 C 0.93713 0.34349 0.51896 0.0
C1228 C 0.92363 0.33073 0.51344 0.0
C1229 C 0.92935 0.31377 0.50599 0.0
C1230 C 0.9481 0.31003 0.50343 0.0
H1231 H 0.98267 0.32312 0.45657 0.0
H1232 H 0.96769 0.3074 0.46848 0.0
H1233 H 0.96479 0.33173 0.47152 0.0
H1234 H 0.96587 0.35 0.52037 0.0
H1235 H 0.9333 0.35662 0.52487 0.0
H1236 H 0.64504 0.06788 0.47849 0.0
H1237 H 0.65217 0.03554 0.48376 0.0
H1238 H 0.70713 0.05014 0.50079 0.0
H1239 H 0.70006 0.08274 0.49581 0.0
H1240 H 0.67942 0.0122 0.46951 0.0
H1241 H 0.68662 0.02162 0.54524 0.0
H1242 H 0.67669 0.03904 0.53059 0.0
H1243 H 0.70117 0.03562 0.53093 0.0
C1244 C 0.65871 0.06429 0.48323 0.0
C1245 C 0.6719 0.07801 0.48691 0.0
C1246 C 0.66278 0.04575 0.48619 0.0
C1247 C 0.68008 0.04045 0.49295 0.0
C1248 C 0.69358 0.05396 0.49589 0.0
H1249 H 0.69882 0.92042 0.50223 0.0
H1250 H 0.70569 0.95296 0.49636 0.0
C1251 C 0.68953 0.07259 0.49292 0.0
C1252 C 0.68343 0.02082 0.49755 0.0
H1253 H 0.68853 0.99143 0.53393 0.0
C1254 C 0.68171 0.00763 0.48354 0.0
C1255 C 0.68628 0.01494 0.51591 0.0
C1256 C 0.68768 0.02847 0.53161 0.0
C1257 C 0.68205 0.9887 0.48747 0.0
C1258 C 0.68443 0.98281 0.5059 0.0
C1259 C 0.68686 0.996 0.51981 0.0
C1260 C 0.68204 0.96324 0.51127 0.0
C1261 C 0.67879 0.97518 0.47203 0.0
C1262 C 0.667 0.9583 0.52231 0.0
C1263 C 0.66309 0.93981 0.52576 0.0
C1264 C 0.6742 0.9258 0.5183 0.0
C1265 C 0.68993 0.93083 0.50814 0.0
C1266 C 0.69381 0.94941 0.50465 0.0
H1267 H 0.67417 0.98209 0.45919 0.0
H1268 H 0.69178 0.96774 0.46902 0.0
H1269 H 0.66827 0.96485 0.47607 0.0
H1270 H 0.65778 0.96874 0.52764 0.0
H1271 H 0.65096 0.9365 0.53378 0.0
H1272 H 0.93154 0.64456 0.47949 0.0
H1273 H 0.96387 0.65144 0.4852 0.0
H1274 H 0.94914 0.70519 0.50554 0.0
H1275 H 0.91653 0.69838 0.50005 0.0
H1276 H 0.98667 0.68018 0.47208 0.0
H1277 H 0.97866 0.68178 0.5483 0.0
H1278 H 0.96119 0.6724 0.53332 0.0
H1279 H 0.96404 0.69687 0.5352 0.0
C1280 C 0.93509 0.65791 0.4851 0.0
C1281 C 0.92134 0.67085 0.48946 0.0
C1282 C 0.95363 0.66183 0.48831 0.0
C1283 C 0.9589 0.67872 0.49603 0.0
C1284 C 0.94534 0.69195 0.49984 0.0
H1285 H 0.07859 0.69955 0.50423 0.0
H1286 H 0.04574 0.7058 0.49959 0.0
C1287 C 0.92671 0.68806 0.49658 0.0
C1288 C 0.97857 0.68196 0.5005 0.0
H1289 H 0.00864 0.68485 0.53658 0.0
C1290 C 0.9915 0.6815 0.48615 0.0
C1291 C 0.98479 0.68352 0.5189 0.0
C1292 C 0.97153 0.68356 0.53489 0.0
C1293 C 0.01051 0.68189 0.48972 0.0
C1294 C 0.01674 0.68302 0.50816 0.0
C1295 C 0.0038 0.68414 0.52247 0.0
C1296 C 0.0365 0.68082 0.51292 0.0
C1297 C 0.02375 0.68006 0.47382 0.0
C1298 C 0.04214 0.66516 0.52271 0.0
C1299 C 0.06082 0.6616 0.52547 0.0
C1300 C 0.07433 0.67365 0.51855 0.0
C1301 C 0.06859 0.68992 0.50969 0.0
C1302 C 0.04983 0.69346 0.5069 0.0
H1303 H 0.01667 0.67617 0.46083 0.0
H1304 H 0.03082 0.69341 0.47157 0.0
H1305 H 0.03442 0.66955 0.4769 0.0
H1306 H 0.03209 0.65527 0.52756 0.0
H1307 H 0.06467 0.64902 0.53249 0.0
H1308 H 0.3111 0.08051 0.4917 0.0
H1309 H 0.30704 0.04737 0.4874 0.0
H1310 H 0.34234 0.03701 0.5341 0.0
H1311 H 0.34725 0.07008 0.53771 0.0
H1312 H 0.35323 0.01745 0.5074 0.0
H1313 H 0.27783 0.00802 0.51101 0.0
H1314 H 0.28395 0.02449 0.49369 0.0
H1315 H 0.28881 0.0293 0.51755 0.0
C1316 C 0.31766 0.07114 0.50127 0.0
C1317 C 0.32952 0.07785 0.51502 0.0
C1318 C 0.31524 0.05216 0.49888 0.0
C1319 C 0.32419 0.03956 0.51055 0.0
C1320 C 0.3353 0.04638 0.52487 0.0
H1321 H 0.30934 0.92027 0.51068 0.0
H1322 H 0.30617 0.95346 0.51588 0.0
C1323 C 0.33808 0.06529 0.52697 0.0
C1324 C 0.32363 0.01939 0.50678 0.0
H1325 H 0.29505 0.98307 0.4978 0.0
C1326 C 0.34046 0.00995 0.5055 0.0
C1327 C 0.307 0.00944 0.50443 0.0
C1328 C 0.28839 0.01831 0.50694 0.0
C1329 C 0.34119 0.99102 0.50186 0.0
C1330 C 0.32464 0.98126 0.49849 0.0
C1331 C 0.30776 0.99059 0.50002 0.0
C1332 C 0.3247 0.9613 0.49388 0.0
C1333 C 0.35976 0.98166 0.5022 0.0
C1334 C 0.33549 0.95464 0.47927 0.0
C1335 C 0.33764 0.93573 0.47656 0.0
C1336 C 0.32852 0.92308 0.488 0.0
C1337 C 0.31652 0.92972 0.50165 0.0
C1338 C 0.31473 0.94868 0.50464 0.0
H1339 H 0.36987 0.98951 0.51057 0.0
H1340 H 0.35877 0.96751 0.50789 0.0
H1341 H 0.36524 0.98082 0.48796 0.0
H1342 H 0.34278 0.96408 0.47033 0.0
H1343 H 0.34676 0.93098 0.46576 0.0
H1344 H 0.52554 0.93523 0.35219 0.0
H1345 H 0.52111 0.96753 0.34424 0.0
H1346 H 0.50086 0.9519 0.29068 0.0
H1347 H 0.50506 0.91938 0.29855 0.0
H1348 H 0.53412 0.99006 0.31481 0.0
H1349 H 0.45792 0.98121 0.31408 0.0
H1350 H 0.47316 0.96406 0.32361 0.0
H1351 H 0.47107 0.96652 0.29911 0.0
C1352 C 0.52033 0.93859 0.33862 0.0
C1353 C 0.51544 0.92464 0.32611 0.0
C1354 C 0.51786 0.9571 0.33409 0.0
C1355 C 0.51038 0.96209 0.31699 0.0
C1356 C 0.50638 0.94831 0.30406 0.0
H1357 H 0.50009 0.08205 0.29761 0.0
H1358 H 0.50544 0.04951 0.29038 0.0
C1359 C 0.50889 0.92973 0.30857 0.0
C1360 C 0.50576 0.98165 0.31344 0.0
H1361 H 0.46929 0.01123 0.31096 0.0
C1362 C 0.51998 0.99472 0.31363 0.0
C1363 C 0.48727 0.98763 0.31205 0.0
C1364 C 0.47141 0.9742 0.31231 0.0
C1365 C 0.51618 0.01368 0.31325 0.0
C1366 C 0.49764 0.01968 0.31245 0.0
C1367 C 0.48348 0.00658 0.31144 0.0
C1368 C 0.4926 0.03927 0.31524 0.0
C1369 C 0.53194 0.02713 0.31483 0.0
C1370 C 0.48286 0.04423 0.33114 0.0
C1371 C 0.47967 0.06271 0.33524 0.0
C1372 C 0.48614 0.0767 0.3235 0.0
C1373 C 0.49499 0.07166 0.307 0.0
C1374 C 0.49819 0.05307 0.30291 0.0
H1375 H 0.54514 0.02019 0.31825 0.0
H1376 H 0.53371 0.03442 0.30153 0.0
H1377 H 0.52901 0.03759 0.32558 0.0
H1378 H 0.47834 0.0338 0.34081 0.0
H1379 H 0.47267 0.06602 0.34798 0.0
H1380 H 0.92366 0.49854 0.29968 0.0
H1381 H 0.95628 0.50344 0.29252 0.0
H1382 H 0.97158 0.47221 0.34064 0.0
H1383 H 0.93925 0.46706 0.34776 0.0
H1384 H 0.98018 0.52211 0.31515 0.0
H1385 H 0.00692 0.4521 0.30236 0.0
H1386 H 0.98262 0.45741 0.30176 0.0
H1387 H 0.99402 0.45316 0.32338 0.0
C1388 C 0.93397 0.49232 0.30848 0.0
C1389 C 0.92881 0.48246 0.32435 0.0
C1390 C 0.95261 0.49519 0.30439 0.0
C1391 C 0.96638 0.48804 0.31594 0.0
C1392 C 0.96124 0.47755 0.33131 0.0
H1393 H 0.06952 0.52483 0.35344 0.0
H1394 H 0.0373 0.5197 0.34556 0.0
C1395 C 0.94269 0.47473 0.33544 0.0
C1396 C 0.98601 0.49309 0.31328 0.0
H1397 H 0.02927 0.47473 0.31241 0.0
C1398 C 0.9909 0.51177 0.31416 0.0
C1399 C 1.00001 0.47964 0.31174 0.0
C1400 C 0.99562 0.45947 0.30956 0.0
C1401 C 0.00943 0.51726 0.31479 0.0
C1402 C 0.0234 0.5037 0.3148 0.0
C1403 C 0.01854 0.48511 0.31265 0.0
C1404 C 0.04294 0.5083 0.31862 0.0
C1405 C 0.01387 0.53751 0.31587 0.0
C1406 C 0.05688 0.50351 0.30614 0.0
C1407 C 0.07541 0.5064 0.31062 0.0
C1408 C 0.08035 0.5139 0.32781 0.0
C1409 C 0.06628 0.51904 0.34009 0.0
C1410 C 0.0478 0.51623 0.33555 0.0
H1411 H 0.00265 0.54599 0.30984 0.0
H1412 H 0.01541 0.54153 0.33053 0.0
H1413 H 0.02694 0.54072 0.30861 0.0
H1414 H 0.05342 0.49725 0.29305 0.0
H1415 H 0.08586 0.50219 0.30086 0.0
H1416 H 0.47136 0.93566 0.65281 0.0
H1417 H 0.47717 0.96743 0.66153 0.0
H1418 H 0.50306 0.94925 0.71178 0.0
H1419 H 0.49765 0.91712 0.70295 0.0
H1420 H 0.46782 0.98897 0.69149 0.0
H1421 H 0.54373 0.97901 0.68665 0.0
H1422 H 0.52763 0.96201 0.67841 0.0
H1423 H 0.53158 0.9646 0.70267 0.0
C1424 C 0.47815 0.93831 0.66582 0.0
C1425 C 0.48428 0.92376 0.67704 0.0
C1426 C 0.4814 0.95655 0.67082 0.0
C1427 C 0.49083 0.96071 0.68714 0.0
C1428 C 0.49606 0.94632 0.69895 0.0
H1429 H 0.5039 0.08112 0.70222 0.0
H1430 H 0.49849 0.04907 0.71138 0.0
C1431 C 0.49284 0.92797 0.69393 0.0
C1432 C 0.49607 0.98011 0.69083 0.0
H1433 H 0.53304 0.00916 0.6902 0.0
C1434 C 0.48208 0.99342 0.69159 0.0
C1435 C 0.5147 0.98582 0.69083 0.0
C1436 C 0.53033 0.97219 0.68948 0.0
C1437 C 0.48616 0.01231 0.69124 0.0
C1438 C 0.50478 0.01802 0.69049 0.0
C1439 C 0.51879 0.00472 0.69086 0.0
C1440 C 0.5099 0.03739 0.68647 0.0
C1441 C 0.47049 0.02593 0.69036 0.0
C1442 C 0.51886 0.0414 0.66985 0.0
C1443 C 0.52213 0.05959 0.66467 0.0
C1444 C 0.51648 0.07425 0.67599 0.0
C1445 C 0.50833 0.07019 0.69311 0.0
C1446 C 0.5051 0.05189 0.69832 0.0
H1447 H 0.457 0.01909 0.68805 0.0
H1448 H 0.46972 0.03359 0.70355 0.0
H1449 H 0.47279 0.03606 0.67914 0.0
H1450 H 0.52275 0.03044 0.66051 0.0
H1451 H 0.52858 0.06212 0.65147 0.0
H1452 H 0.9342 0.52298 0.64728 0.0
H1453 H 0.9664 0.51748 0.65484 0.0
H1454 H 0.95076 0.4982 0.70876 0.0
H1455 H 0.91826 0.50343 0.70123 0.0
H1456 H 0.98913 0.53068 0.68321 0.0
H1457 H 0.97979 0.45468 0.68679 0.0
H1458 H 0.96254 0.4697 0.6771 0.0
H1459 H 0.96547 0.46837 0.70161 0.0
C1460 C 0.93752 0.51769 0.66082 0.0
C1461 C 0.92355 0.51347 0.67357 0.0
C1462 C 0.95599 0.5146 0.66513 0.0
C1463 C 0.96096 0.50716 0.68225 0.0
C1464 C 0.94719 0.50365 0.69535 0.0
H1465 H 0.08105 0.49756 0.7008 0.0
H1466 H 0.04853 0.50287 0.70816 0.0
C1467 C 0.92863 0.50677 0.69105 0.0
C1468 C 0.98054 0.50246 0.68576 0.0
H1469 H 0.00995 0.46594 0.68932 0.0
C1470 C 0.99372 0.51656 0.68487 0.0
C1471 C 0.98643 0.484 0.68778 0.0
C1472 C 0.9729 0.46824 0.68826 0.0
C1473 C 0.01266 0.51266 0.68515 0.0
C1474 C 0.01856 0.49415 0.68665 0.0
C1475 C 0.00537 0.48012 0.68832 0.0
C1476 C 0.03814 0.48892 0.68398 0.0
C1477 C 0.02616 0.52827 0.68271 0.0
C1478 C 0.04303 0.47855 0.66846 0.0
C1479 C 0.06151 0.47538 0.66429 0.0
C1480 C 0.07557 0.48251 0.67557 0.0
C1481 C 0.07061 0.49194 0.69176 0.0
C1482 C 0.05203 0.49512 0.69592 0.0
H1483 H 0.01925 0.5413 0.67867 0.0
H1484 H 0.03353 0.53068 0.69587 0.0
H1485 H 0.03656 0.52477 0.67207 0.0
H1486 H 0.03254 0.47355 0.6591 0.0
H1487 H 0.06476 0.4679 0.65181 0.0
H1488 H 0.29708 0.50239 0.91816 0.0
H1489 H 0.28898 0.49645 0.95036 0.0
H1490 H 0.3366 0.52721 0.96802 0.0
H1491 H 0.34463 0.53342 0.93609 0.0
H1492 H 0.31049 0.47696 0.97409 0.0
H1493 H 0.29774 0.54591 0.00323 0.0
H1494 H 0.29782 0.54163 0.97873 0.0
H1495 H 0.31912 0.54537 0.99091 0.0
C1496 C 0.30556 0.5083 0.9289 0.0
C1497 C 0.32156 0.51833 0.9245 0.0
C1498 C 0.30094 0.50483 0.9473 0.0
C1499 C 0.31207 0.51154 0.96162 0.0
C1500 C 0.32756 0.52222 0.95725 0.0
H1501 H 0.34929 0.47039 0.06242 0.0
H1502 H 0.34037 0.47593 0.03061 0.0
C1503 C 0.33222 0.52564 0.93893 0.0
C1504 C 0.30892 0.50577 0.98099 0.0
H1505 H 0.30789 0.52251 0.02486 0.0
C1506 C 0.3095 0.48691 0.98518 0.0
C1507 C 0.3073 0.51868 0.99547 0.0
C1508 C 0.30525 0.53901 0.99184 0.0
C1509 C 0.3099 0.48071 0.00349 0.0
C1510 C 0.31005 0.49373 0.01796 0.0
C1511 C 0.30805 0.5125 0.01378 0.0
C1512 C 0.31416 0.48843 0.03728 0.0
C1513 C 0.31061 0.46028 0.00712 0.0
C1514 C 0.30242 0.49365 0.05173 0.0
C1515 C 0.30755 0.4906 0.07007 0.0
C1516 C 0.32464 0.48246 0.0743 0.0
C1517 C 0.33603 0.47667 0.05974 0.0
C1518 C 0.33088 0.47971 0.04147 0.0
H1519 H 0.30388 0.45244 0.99584 0.0
H1520 H 0.32521 0.45581 0.00781 0.0
H1521 H 0.30382 0.4567 0.02034 0.0
H1522 H 0.2895 0.50051 0.04882 0.0
H1523 H 0.29846 0.49529 0.0809 0.0
H1524 H 0.47319 0.34952 0.93306 0.0
H1525 H 0.47924 0.34165 0.96504 0.0
H1526 H 0.5049 0.29092 0.94802 0.0
H1527 H 0.49919 0.29887 0.91569 0.0
H1528 H 0.46962 0.31204 0.98712 0.0
H1529 H 0.54558 0.31654 0.97764 0.0
H1530 H 0.52958 0.32464 0.96045 0.0
H1531 H 0.53353 0.30041 0.96326 0.0
C1532 C 0.47999 0.33659 0.93602 0.0
C1533 C 0.48591 0.32495 0.92171 0.0
C1534 C 0.48339 0.33208 0.95438 0.0
C1535 C 0.49281 0.31586 0.95892 0.0
C1536 C 0.49792 0.30369 0.9448 0.0
H1537 H 0.50449 0.2983 0.07903 0.0
H1538 H 0.49971 0.29034 0.04658 0.0
C1539 C 0.49452 0.3082 0.92633 0.0
C1540 C 0.49792 0.31249 0.97843 0.0
H1541 H 0.53472 0.31263 0.00776 0.0
C1542 C 0.48385 0.31183 0.99166 0.0
C1543 C 0.51652 0.31237 0.98428 0.0
C1544 C 0.53223 0.31365 0.97075 0.0
C1545 C 0.48781 0.31194 0.01059 0.0
C1546 C 0.50641 0.31238 0.01645 0.0
C1547 C 0.5205 0.31216 0.00322 0.0
C1548 C 0.5114 0.31562 0.03601 0.0
C1549 C 0.47206 0.31279 0.02412 0.0
C1550 C 0.52039 0.33202 0.0408 0.0
C1551 C 0.52327 0.33654 0.05924 0.0
C1552 C 0.51724 0.32474 0.07338 0.0
C1553 C 0.50922 0.30777 0.06853 0.0
C1554 C 0.50635 0.30324 0.04998 0.0
H1555 H 0.45868 0.31556 0.01724 0.0
H1556 H 0.47095 0.29943 0.03143 0.0
H1557 H 0.47451 0.32369 0.03455 0.0
H1558 H 0.5245 0.34174 0.03025 0.0
H1559 H 0.52965 0.34964 0.0624 0.0
H1560 H 0.69318 0.50796 0.92397 0.0
H1561 H 0.69719 0.51255 0.95705 0.0
H1562 H 0.66721 0.46234 0.96765 0.0
H1563 H 0.66224 0.45838 0.9346 0.0
H1564 H 0.65295 0.488 0.98641 0.0
H1565 H 0.72799 0.49327 0.99752 0.0
H1566 H 0.72044 0.50947 0.98052 0.0
H1567 H 0.71835 0.48513 0.97612 0.0
C1568 C 0.68793 0.49763 0.93336 0.0
C1569 C 0.67739 0.48282 0.92675 0.0
C1570 C 0.6903 0.50022 0.95232 0.0
C1571 C 0.68266 0.48772 0.96498 0.0
C1572 C 0.67321 0.47223 0.95823 0.0
H1573 H 0.69374 0.49388 0.08467 0.0
H1574 H 0.69844 0.48739 0.05191 0.0
C1575 C 0.67043 0.46991 0.93934 0.0
C1576 C 0.68235 0.49193 0.98506 0.0
H1577 H 0.70876 0.50556 0.02159 0.0
C1578 C 0.66525 0.49161 0.99409 0.0
C1579 C 0.69833 0.49656 0.99526 0.0
C1580 C 0.71732 0.49593 0.98688 0.0
C1581 C 0.6636 0.49593 0.01282 0.0
C1582 C 0.67939 0.50159 0.02276 0.0
C1583 C 0.69659 0.50159 0.0139 0.0
C1584 C 0.67822 0.50714 0.04244 0.0
C1585 C 0.64494 0.49395 0.0218 0.0
C1586 C 0.6659 0.52095 0.04801 0.0
C1587 C 0.66294 0.52444 0.0667 0.0
C1588 C 0.67266 0.51455 0.08019 0.0
C1589 C 0.68604 0.50173 0.07459 0.0
C1590 C 0.68873 0.49799 0.05587 0.0
H1591 H 0.63601 0.48421 0.01411 0.0
H1592 H 0.64619 0.489 0.03621 0.0
H1593 H 0.63794 0.50752 0.0219 0.0
H1594 H 0.6581 0.52865 0.0379 0.0
H1595 H 0.65274 0.5346 0.07059 0.0
H1596 H 0.49102 0.68955 0.91973 0.0
H1597 H 0.48586 0.69406 0.9527 0.0
H1598 H 0.53659 0.66547 0.96457 0.0
H1599 H 0.54121 0.66007 0.9317 0.0
H1600 H 0.51064 0.65101 0.98324 0.0
H1601 H 0.50461 0.72626 0.99262 0.0
H1602 H 0.48876 0.71797 0.97561 0.0
H1603 H 0.51318 0.7162 0.9716 0.0
C1604 C 0.5013 0.68468 0.92938 0.0
C1605 C 0.51649 0.67442 0.92319 0.0
C1606 C 0.49839 0.68734 0.94826 0.0
C1607 C 0.5109 0.68025 0.96123 0.0
C1608 C 0.52669 0.67103 0.9549 0.0
H1609 H 0.50655 0.69322 0.08056 0.0
H1610 H 0.51213 0.69761 0.04758 0.0
C1611 C 0.52936 0.66799 0.9361 0.0
C1612 C 0.50654 0.68033 0.98127 0.0
H1613 H 0.49305 0.70746 0.0173 0.0
C1614 C 0.50699 0.66343 0.99067 0.0
C1615 C 0.50185 0.6965 0.99111 0.0
C1616 C 0.50226 0.71527 0.98225 0.0
C1617 C 0.50282 0.66218 0.00946 0.0
C1618 C 0.49721 0.67816 0.01909 0.0
C1619 C 0.49701 0.69515 0.00984 0.0
C1620 C 0.49202 0.67741 0.03888 0.0
C1621 C 0.50494 0.64374 0.01884 0.0
C1622 C 0.47828 0.66522 0.04494 0.0
C1623 C 0.47532 0.66244 0.06374 0.0
C1624 C 0.48568 0.67219 0.07686 0.0
C1625 C 0.49837 0.68549 0.07077 0.0
C1626 C 0.50158 0.68801 0.05193 0.0
H1627 H 0.5145 0.6346 0.01118 0.0
H1628 H 0.51019 0.64533 0.03311 0.0
H1629 H 0.49135 0.63679 0.01941 0.0
H1630 H 0.4703 0.65734 0.03513 0.0
H1631 H 0.46525 0.65231 0.06802 0.0
H1632 H 0.19421 0.29726 0.49436 0.0
H1633 H 0.21568 0.27146 0.49641 0.0
H1634 H 0.17023 0.23389 0.50307 0.0
H1635 H 0.14851 0.25973 0.50107 0.0
H1636 H 0.21858 0.24415 0.52654 0.0
H1637 H 0.20143 0.21382 0.4582 0.0
H1638 H 0.19614 0.23744 0.46388 0.0
H1639 H 0.1827 0.21913 0.47355 0.0
C1640 C 0.18874 0.28353 0.49633 0.0
C1641 C 0.16964 0.28053 0.4975 0.0
C1642 C 0.20104 0.26881 0.4975 0.0
C1643 C 0.19452 0.25078 0.49967 0.0
C1644 C 0.1755 0.2477 0.50116 0.0
H1645 H 0.26002 0.14901 0.49943 0.0
H1646 H 0.23418 0.1708 0.49882 0.0
C1647 C 0.16314 0.26248 0.50012 0.0
C1648 C 0.20782 0.23533 0.5004 0.0
H1649 H 0.22488 0.1994 0.47532 0.0
C1650 C 0.21989 0.23428 0.51541 0.0
C1651 C 0.20937 0.22242 0.48591 0.0
C1652 C 0.19683 0.22319 0.46937 0.0
C1653 C 0.2337 0.22079 0.51624 0.0
C1654 C 0.2358 0.20834 0.50139 0.0
C1655 C 0.22332 0.20902 0.48663 0.0
C1656 C 0.25135 0.19508 0.50064 0.0
C1657 C 0.24586 0.21998 0.53308 0.0
C1658 C 0.26956 0.20152 0.50121 0.0
C1659 C 0.28427 0.18916 0.50164 0.0
C1660 C 0.2811 0.17008 0.50124 0.0
C1661 C 0.26289 0.16363 0.49978 0.0
C1662 C 0.24813 0.17606 0.49947 0.0
H1663 H 0.23901 0.22625 0.54523 0.0
H1664 H 0.24966 0.20558 0.5365 0.0
H1665 H 0.25868 0.22784 0.53039 0.0
H1666 H 0.2724 0.21615 0.50158 0.0
H1667 H 0.29813 0.19458 0.50258 0.0
H1668 H 0.70374 0.19498 0.49599 0.0
H1669 H 0.72949 0.21647 0.49859 0.0
H1670 H 0.76731 0.17099 0.50325 0.0
H1671 H 0.74152 0.14925 0.50068 0.0
H1672 H 0.75723 0.21844 0.52847 0.0
H1673 H 0.78658 0.20377 0.45914 0.0
H1674 H 0.76306 0.1982 0.465 0.0
H1675 H 0.78157 0.1845 0.47391 0.0
C1676 C 0.71752 0.1895 0.49765 0.0
C1677 C 0.72061 0.17041 0.49807 0.0
C1678 C 0.7322 0.20182 0.49914 0.0
C1679 C 0.75028 0.1953 0.5009 0.0
C1680 C 0.75345 0.17626 0.50168 0.0
H1681 H 0.85192 0.26092 0.50074 0.0
H1682 H 0.83012 0.2351 0.50004 0.0
C1683 C 0.73871 0.16389 0.50031 0.0
C1684 C 0.7657 0.20861 0.50185 0.0
H1685 H 0.80122 0.22662 0.47684 0.0
C1686 C 0.76694 0.22016 0.51725 0.0
C1687 C 0.77839 0.2107 0.48724 0.0
C1688 C 0.7774 0.19875 0.47029 0.0
C1689 C 0.78042 0.23396 0.51835 0.0
C1690 C 0.79265 0.2366 0.50339 0.0
C1691 C 0.79177 0.22465 0.48823 0.0
C1692 C 0.80588 0.25218 0.50296 0.0
C1693 C 0.78144 0.24554 0.53556 0.0
C1694 C 0.79946 0.27034 0.50424 0.0
C1695 C 0.81183 0.28504 0.50473 0.0
C1696 C 0.8309 0.28191 0.50368 0.0
C1697 C 0.83731 0.26377 0.50161 0.0
C1698 C 0.82488 0.24901 0.50124 0.0
H1699 H 0.77539 0.23825 0.54758 0.0
H1700 H 0.79589 0.24929 0.53889 0.0
H1701 H 0.77349 0.25841 0.53344 0.0
H1702 H 0.78484 0.27316 0.50505 0.0
H1703 H 0.80643 0.29887 0.50614 0.0
H1704 H 0.81337 0.71117 0.46938 0.0
H1705 H 0.79153 0.73663 0.47006 0.0
H1706 H 0.81733 0.75733 0.51948 0.0
H1707 H 0.84022 0.73253 0.51786 0.0
H1708 H 0.7665 0.74415 0.49178 0.0
H1709 H 0.81296 0.80435 0.49345 0.0
H1710 H 0.82136 0.78138 0.48933 0.0
H1711 H 0.81737 0.78934 0.51251 0.0
C1712 C 0.81449 0.7213 0.48027 0.0
C1713 C 0.82846 0.71996 0.49355 0.0
C1714 C 0.80198 0.73587 0.48068 0.0
C1715 C 0.8028 0.7492 0.49468 0.0
C1716 C 0.81669 0.7477 0.50815 0.0
H1717 H 0.70508 0.81149 0.52318 0.0
H1718 H 0.72985 0.78908 0.52026 0.0
C1719 C 0.82965 0.7334 0.50736 0.0
C1720 C 0.78841 0.76384 0.49558 0.0
H1721 H 0.78144 0.81002 0.50137 0.0
C1722 C 0.76988 0.75857 0.49367 0.0
C1723 C 0.79262 0.78278 0.49772 0.0
C1724 C 0.81217 0.78981 0.49816 0.0
C1725 C 0.75555 0.77151 0.49395 0.0
C1726 C 0.75966 0.79027 0.49738 0.0
C1727 C 0.77819 0.79564 0.49902 0.0
C1728 C 0.74493 0.80439 0.49957 0.0
C1729 C 0.73624 0.76486 0.49003 0.0
C1730 C 0.74555 0.82106 0.48971 0.0
C1731 C 0.73164 0.83426 0.49187 0.0
C1732 C 0.71671 0.83086 0.50369 0.0
C1733 C 0.71621 0.8143 0.51365 0.0
C1734 C 0.73033 0.8014 0.51189 0.0
H1735 H 0.73637 0.75238 0.48119 0.0
H1736 H 0.72944 0.76107 0.50318 0.0
H1737 H 0.72787 0.77559 0.48306 0.0
H1738 H 0.75673 0.82381 0.48023 0.0
H1739 H 0.73241 0.84698 0.48413 0.0
H1740 H 0.19148 0.70304 0.50246 0.0
H1741 H 0.21313 0.72869 0.50002 0.0
H1742 H 0.1678 0.76688 0.49701 0.0
H1743 H 0.14595 0.74122 0.49947 0.0
H1744 H 0.21568 0.75677 0.47141 0.0
H1745 H 0.20043 0.78545 0.54084 0.0
H1746 H 0.1943 0.76223 0.53443 0.0
H1747 H 0.18116 0.78129 0.52583 0.0
C1748 C 0.18608 0.71687 0.50116 0.0
C1749 C 0.16699 0.7201 0.50122 0.0
C1750 C 0.19848 0.73152 0.49978 0.0
C1751 C 0.19207 0.74969 0.4986 0.0
C1752 C 0.17302 0.75296 0.49818 0.0
H1753 H 0.25751 0.8516 0.49985 0.0
H1754 H 0.23173 0.8297 0.50018 0.0
C1755 C 0.16057 0.73828 0.49946 0.0
C1756 C 0.20547 0.76509 0.49793 0.0
H1757 H 0.22304 0.80063 0.52325 0.0
C1758 C 0.21723 0.76643 0.48268 0.0
C1759 C 0.20736 0.77774 0.51261 0.0
C1760 C 0.19526 0.77665 0.52945 0.0
C1761 C 0.231 0.77998 0.4818 0.0
C1762 C 0.23339 0.79221 0.49679 0.0
C1763 C 0.22126 0.79121 0.51181 0.0
C1764 C 0.24892 0.80553 0.49744 0.0
C1765 C 0.24279 0.7811 0.46473 0.0
C1766 C 0.26714 0.79919 0.49638 0.0
C1767 C 0.28181 0.81161 0.49611 0.0
C1768 C 0.27861 0.83067 0.49715 0.0
C1769 C 0.26041 0.837 0.49899 0.0
C1770 C 0.24567 0.82452 0.49915 0.0
H1771 H 0.23569 0.77502 0.45261 0.0
H1772 H 0.24649 0.79556 0.46147 0.0
H1773 H 0.25568 0.77322 0.46701 0.0
H1774 H 0.27002 0.78459 0.4956 0.0
H1775 H 0.29567 0.80625 0.49488 0.0
H1776 H 0.50213 0.15122 0.25821 0.0
H1777 H 0.50391 0.17399 0.23331 0.0
H1778 H 0.49963 0.21784 0.27304 0.0
H1779 H 0.49785 0.19527 0.29794 0.0
H1780 H 0.47647 0.20198 0.22531 0.0
H1781 H 0.54501 0.23186 0.24121 0.0
H1782 H 0.53774 0.20968 0.2498 0.0
H1783 H 0.52957 0.23043 0.26049 0.0
C1784 C 0.50179 0.16572 0.26166 0.0
C1785 C 0.49991 0.17144 0.28006 0.0
C1786 C 0.50274 0.17869 0.24741 0.0
C1787 C 0.50207 0.1976 0.25135 0.0
C1788 C 0.50044 0.20333 0.26972 0.0
H1789 H 0.50337 0.3004 0.19203 0.0
H1790 H 0.50182 0.27564 0.21475 0.0
C1791 C 0.49937 0.1904 0.28393 0.0
C1792 C 0.50233 0.2114 0.23629 0.0
H1793 H 0.52659 0.24801 0.21958 0.0
C1794 C 0.48748 0.21196 0.22391 0.0
C1795 C 0.51668 0.22442 0.23458 0.0
C1796 C 0.53325 0.22405 0.24711 0.0
C1797 C 0.48632 0.2256 0.21022 0.0
C1798 C 0.50061 0.23878 0.20863 0.0
C1799 C 0.5156 0.23798 0.22084 0.0
C1800 C 0.50024 0.25373 0.19464 0.0
C1801 C 0.46951 0.22616 0.19802 0.0
C1802 C 0.49972 0.24969 0.17573 0.0
C1803 C 0.50045 0.26387 0.16267 0.0
C1804 C 0.50194 0.28234 0.16829 0.0
C1805 C 0.50221 0.28633 0.18723 0.0
C1806 C 0.50137 0.27218 0.20025 0.0
H1807 H 0.4578 0.21846 0.20415 0.0
H1808 H 0.46507 0.24055 0.19542 0.0
H1809 H 0.47284 0.2197 0.18459 0.0
H1810 H 0.49925 0.23556 0.17104 0.0
H1811 H 0.50039 0.26033 0.14819 0.0
H1812 H 0.8103 0.497 0.30014 0.0
H1813 H 0.78753 0.49851 0.27545 0.0
H1814 H 0.83107 0.50267 0.23531 0.0
H1815 H 0.85403 0.50151 0.26006 0.0
H1816 H 0.80201 0.52631 0.22805 0.0
H1817 H 0.77613 0.45579 0.24116 0.0
H1818 H 0.77533 0.47014 0.26123 0.0
H1819 H 0.79721 0.46434 0.25116 0.0
C1820 C 0.81507 0.49836 0.28608 0.0
C1821 C 0.83399 0.49899 0.28205 0.0
C1822 C 0.80202 0.49908 0.27196 0.0
C1823 C 0.8076 0.50022 0.2535 0.0
C1824 C 0.82646 0.5016 0.24945 0.0
H1825 H 0.74166 0.50094 0.15184 0.0
H1826 H 0.76748 0.49886 0.17358 0.0
C1827 C 0.83956 0.50097 0.26361 0.0
C1828 C 0.79368 0.49985 0.2385 0.0
H1829 H 0.75777 0.47467 0.22144 0.0
C1830 C 0.79247 0.51494 0.22646 0.0
C1831 C 0.78132 0.48492 0.23634 0.0
C1832 C 0.78265 0.4678 0.24803 0.0
C1833 C 0.77874 0.51581 0.21283 0.0
C1834 C 0.76603 0.50117 0.21114 0.0
C1835 C 0.7675 0.4859 0.22285 0.0
C1836 C 0.75053 0.50184 0.19787 0.0
C1837 C 0.77749 0.53263 0.20072 0.0
C1838 C 0.73246 0.50381 0.20438 0.0
C1839 C 0.71774 0.50504 0.19204 0.0
C1840 C 0.72079 0.50413 0.17295 0.0
C1841 C 0.73887 0.50167 0.16646 0.0
C1842 C 0.75364 0.50058 0.17884 0.0
H1843 H 0.78672 0.54386 0.20548 0.0
H1844 H 0.78145 0.52889 0.18644 0.0
H1845 H 0.76313 0.53785 0.20034 0.0
H1846 H 0.72979 0.50472 0.21902 0.0
H1847 H 0.70398 0.50689 0.19749 0.0
H1848 H 0.50118 0.74111 0.14857 0.0
H1849 H 0.50368 0.76665 0.17058 0.0
H1850 H 0.4993 0.72831 0.21567 0.0
H1851 H 0.49677 0.70282 0.19391 0.0
H1852 H 0.47648 0.77557 0.19896 0.0
H1853 H 0.5455 0.75997 0.22787 0.0
H1854 H 0.53779 0.75106 0.20596 0.0
H1855 H 0.53004 0.74068 0.22703 0.0
C1856 C 0.50097 0.73812 0.16318 0.0
C1857 C 0.49882 0.71995 0.16951 0.0
C1858 C 0.50234 0.75272 0.17571 0.0
C1859 C 0.50184 0.74932 0.19472 0.0
C1860 C 0.49997 0.73118 0.20105 0.0
H1861 H 0.50307 0.80725 0.2974 0.0
H1862 H 0.50175 0.78523 0.27206 0.0
C1863 C 0.49846 0.71664 0.18858 0.0
C1864 C 0.50248 0.7647 0.2081 0.0
H1865 H 0.52716 0.78148 0.24438 0.0
C1866 C 0.48764 0.77705 0.20877 0.0
C1867 C 0.51704 0.76649 0.22089 0.0
C1868 C 0.53359 0.75396 0.22037 0.0
C1869 C 0.48662 0.79075 0.2224 0.0
C1870 C 0.50103 0.79231 0.23544 0.0
C1871 C 0.51608 0.78022 0.23443 0.0
C1872 C 0.50056 0.80593 0.25067 0.0
C1873 C 0.4698 0.8029 0.22319 0.0
C1874 C 0.50017 0.82492 0.24709 0.0
C1875 C 0.50079 0.83759 0.26161 0.0
C1876 C 0.50202 0.83146 0.27993 0.0
C1877 C 0.50213 0.81243 0.28345 0.0
C1878 C 0.50142 0.79982 0.26897 0.0
H1879 H 0.45815 0.79704 0.2152 0.0
H1880 H 0.46526 0.80501 0.23763 0.0
H1881 H 0.47319 0.81655 0.21723 0.0
H1882 H 0.49986 0.82997 0.23306 0.0
H1883 H 0.50083 0.85216 0.25845 0.0
H1884 H 0.19804 0.50605 0.29842 0.0
H1885 H 0.21993 0.50414 0.27294 0.0
H1886 H 0.17503 0.49827 0.23455 0.0
H1887 H 0.15292 0.50017 0.26004 0.0
H1888 H 0.22371 0.4749 0.24552 0.0
H1889 H 0.20605 0.54312 0.21533 0.0
H1890 H 0.20011 0.53696 0.23868 0.0
H1891 H 0.18729 0.52755 0.21978 0.0
C1892 C 0.19279 0.50426 0.28457 0.0
C1893 C 0.17374 0.50333 0.28123 0.0
C1894 C 0.20533 0.50317 0.27004 0.0
C1895 C 0.19908 0.50131 0.25187 0.0
C1896 C 0.1801 0.49997 0.24847 0.0
H1897 H 0.26181 0.5009 0.14903 0.0
H1898 H 0.23706 0.50199 0.17194 0.0
C1899 C 0.16751 0.50094 0.26305 0.0
C1900 C 0.21257 0.50085 0.23659 0.0
H1901 H 0.22904 0.52585 0.20031 0.0
C1902 C 0.22485 0.486 0.23559 0.0
C1903 C 0.21393 0.5153 0.22362 0.0
C1904 C 0.20126 0.53174 0.22436 0.0
C1905 C 0.23854 0.48522 0.22197 0.0
C1906 C 0.2403 0.49996 0.20932 0.0
C1907 C 0.22774 0.51463 0.21008 0.0
C1908 C 0.25531 0.5005 0.19546 0.0
C1909 C 0.25084 0.4685 0.22115 0.0
C1910 C 0.2738 0.49995 0.20107 0.0
C1911 C 0.28793 0.49924 0.18804 0.0
C1912 C 0.28386 0.49932 0.16912 0.0
C1913 C 0.26538 0.50079 0.16351 0.0
C1914 C 0.25123 0.50138 0.17658 0.0
H1915 H 0.24433 0.4564 0.22788 0.0
H1916 H 0.25421 0.46482 0.2067 0.0
H1917 H 0.26388 0.47148 0.22852 0.0
H1918 H 0.2773 0.49979 0.21557 0.0
H1919 H 0.30203 0.49828 0.19282 0.0
H1920 H 0.48085 0.73003 0.84158 0.0
H1921 H 0.47789 0.75393 0.81781 0.0
H1922 H 0.52241 0.72894 0.78739 0.0
H1923 H 0.52436 0.70449 0.81025 0.0
H1924 H 0.49849 0.77952 0.80597 0.0
H1925 H 0.48742 0.73342 0.74675 0.0
H1926 H 0.48743 0.72498 0.77006 0.0
H1927 H 0.5088 0.72788 0.75767 0.0
C1928 C 0.48978 0.72958 0.82965 0.0
C1929 C 0.50258 0.71527 0.82754 0.0
C1930 C 0.48815 0.74325 0.8161 0.0
C1931 C 0.49958 0.74302 0.80044 0.0
C1932 C 0.51286 0.72906 0.79882 0.0
H1933 H 0.51762 0.84049 0.73133 0.0
H1934 H 0.51936 0.81682 0.75537 0.0
C1935 C 0.51407 0.71514 0.812 0.0
C1936 C 0.49803 0.75757 0.78603 0.0
H1937 H 0.49693 0.76416 0.73952 0.0
C1938 C 0.4979 0.77614 0.79144 0.0
C1939 C 0.4969 0.7533 0.76703 0.0
C1940 C 0.49492 0.7338 0.76008 0.0
C1941 C 0.49697 0.79048 0.77845 0.0
C1942 C 0.49716 0.78619 0.7594 0.0
C1943 C 0.49707 0.7676 0.75405 0.0
C1944 C 0.49668 0.80056 0.74471 0.0
C1945 C 0.49524 0.80997 0.78542 0.0
C1946 C 0.48408 0.79893 0.7301 0.0
C1947 C 0.48371 0.81195 0.71597 0.0
C1948 C 0.49559 0.82717 0.71632 0.0
C1949 C 0.50821 0.82893 0.73086 0.0
C1950 C 0.50902 0.81552 0.74472 0.0
H1951 H 0.48904 0.81035 0.79941 0.0
H1952 H 0.50914 0.81622 0.7864 0.0
H1953 H 0.48664 0.81851 0.77611 0.0
H1954 H 0.47439 0.78761 0.72965 0.0
H1955 H 0.47373 0.81035 0.70499 0.0
H1956 H 0.25963 0.49889 0.84873 0.0
H1957 H 0.2352 0.49674 0.8255 0.0
H1958 H 0.27564 0.50191 0.78238 0.0
H1959 H 0.3001 0.50405 0.80542 0.0
H1960 H 0.22744 0.52441 0.79781 0.0
H1961 H 0.24447 0.4565 0.76716 0.0
H1962 H 0.25268 0.46352 0.78957 0.0
H1963 H 0.26352 0.47218 0.76909 0.0
C1964 C 0.26335 0.49931 0.83429 0.0
C1965 C 0.28181 0.5016 0.82891 0.0
C1966 C 0.24937 0.49815 0.82105 0.0
C1967 C 0.25363 0.49902 0.80223 0.0
C1968 C 0.27208 0.50095 0.79682 0.0
H1969 H 0.19434 0.49734 0.69912 0.0
H1970 H 0.21719 0.49917 0.72376 0.0
C1971 C 0.28604 0.50222 0.81003 0.0
C1972 C 0.23878 0.4988 0.7882 0.0
H1973 H 0.22257 0.47475 0.75123 0.0
C1974 C 0.22625 0.5135 0.78769 0.0
C1975 C 0.23736 0.48459 0.77498 0.0
C1976 C 0.25011 0.4682 0.77524 0.0
C1977 C 0.21262 0.51464 0.77398 0.0
C1978 C 0.21123 0.50046 0.76068 0.0
C1979 C 0.22366 0.48565 0.76137 0.0
C1980 C 0.19718 0.50073 0.74578 0.0
C1981 C 0.20026 0.53133 0.77353 0.0
C1982 C 0.17828 0.50115 0.7499 0.0
C1983 C 0.16516 0.50031 0.73579 0.0
C1984 C 0.17069 0.49874 0.7173 0.0
C1985 C 0.18961 0.49856 0.71321 0.0
C1986 C 0.2027 0.49955 0.72729 0.0
H1987 H 0.20638 0.54309 0.78115 0.0
H1988 H 0.19746 0.53574 0.75916 0.0
H1989 H 0.18694 0.52789 0.78016 0.0
H1990 H 0.17365 0.50163 0.76406 0.0
H1991 H 0.15069 0.50028 0.73941 0.0
H1992 H 0.4818 0.15677 0.72928 0.0
H1993 H 0.47833 0.1806 0.75299 0.0
H1994 H 0.52298 0.21124 0.72849 0.0
H1995 H 0.52544 0.18828 0.70415 0.0
H1996 H 0.49843 0.19253 0.77884 0.0
H1997 H 0.4878 0.25171 0.73256 0.0
H1998 H 0.48805 0.22842 0.72412 0.0
H1999 H 0.50931 0.24091 0.72734 0.0
C2000 C 0.49064 0.16877 0.72887 0.0
C2001 C 0.50364 0.17089 0.71473 0.0
C2002 C 0.48872 0.18235 0.74244 0.0
C2003 C 0.50005 0.19808 0.74233 0.0
C2004 C 0.5135 0.19975 0.72852 0.0
H2005 H 0.51704 0.26743 0.83977 0.0
H2006 H 0.51865 0.24309 0.81642 0.0
C2007 C 0.51501 0.18652 0.71466 0.0
C2008 C 0.49824 0.21247 0.75687 0.0
H2009 H 0.49685 0.25896 0.76345 0.0
C2010 C 0.49783 0.20706 0.77545 0.0
C2011 C 0.49709 0.23147 0.75258 0.0
C2012 C 0.49536 0.23842 0.73306 0.0
C2013 C 0.49664 0.22003 0.78978 0.0
C2014 C 0.49682 0.23908 0.7855 0.0
C2015 C 0.49698 0.24444 0.7669 0.0
C2016 C 0.49619 0.25377 0.79987 0.0
C2017 C 0.49462 0.21304 0.80925 0.0
C2018 C 0.4837 0.26844 0.79803 0.0
C2019 C 0.48339 0.28272 0.81088 0.0
C2020 C 0.49524 0.28249 0.82614 0.0
C2021 C 0.50766 0.26783 0.82818 0.0
C2022 C 0.5084 0.25379 0.81494 0.0
H2023 H 0.48839 0.19908 0.80953 0.0
H2024 H 0.50844 0.21203 0.81569 0.0
H2025 H 0.48593 0.22236 0.81768 0.0
H2026 H 0.47409 0.26886 0.78663 0.0
H2027 H 0.47355 0.29379 0.80906 0.0
H2028 H 0.74139 0.50238 0.85241 0.0
H2029 H 0.76608 0.50478 0.82949 0.0
H2030 H 0.7259 0.50219 0.78586 0.0
H2031 H 0.7012 0.49982 0.80859 0.0
H2032 H 0.77363 0.47823 0.80077 0.0
H2033 H 0.75795 0.54758 0.77279 0.0
H2034 H 0.7494 0.53976 0.79479 0.0
H2035 H 0.73857 0.53224 0.77386 0.0
C2036 C 0.7378 0.50256 0.83794 0.0
C2037 C 0.71933 0.50097 0.83232 0.0
C2038 C 0.75192 0.50386 0.82488 0.0
C2039 C 0.74779 0.50383 0.806 0.0
C2040 C 0.72936 0.50252 0.80037 0.0
H2041 H 0.80546 0.50697 0.70256 0.0
H2042 H 0.78326 0.50541 0.72775 0.0
C2043 C 0.71526 0.50111 0.81339 0.0
C2044 C 0.76274 0.50437 0.79209 0.0
H2045 H 0.77925 0.52942 0.75593 0.0
C2046 C 0.77501 0.48948 0.79105 0.0
C2047 C 0.76442 0.51904 0.77942 0.0
C2048 C 0.752 0.53566 0.7803 0.0
C2049 C 0.78855 0.48856 0.77725 0.0
C2050 C 0.79011 0.50315 0.76441 0.0
C2051 C 0.77802 0.5182 0.76571 0.0
C2052 C 0.8038 0.50297 0.7492 0.0
C2053 C 0.80059 0.47168 0.77614 0.0
C2054 C 0.82279 0.50201 0.75283 0.0
C2055 C 0.83555 0.50273 0.73838 0.0
C2056 C 0.82955 0.50467 0.72008 0.0
C2057 C 0.81054 0.50547 0.7165 0.0
C2058 C 0.79782 0.50462 0.7309 0.0
H2059 H 0.79446 0.45985 0.78366 0.0
H2060 H 0.80295 0.46755 0.76162 0.0
H2061 H 0.81415 0.47474 0.7825 0.0
H2062 H 0.82777 0.50115 0.76686 0.0
H2063 H 0.85011 0.50224 0.7416 0.0
loop_
_geom_bond_atom_site_label_1
_geom_bond_atom_site_label_2
_geom_bond_distance
_geom_bond_site_symmetry_2
_ccdc_geom_bond_type
Co0 O1 2.216 . S
Co0 O2 2.091 . S
Co0 O4 2.004 . S
Co0 O10 2.021 . S
Co0 O12 2.137 . S
Co0 O13 2.244 . S
O1 Co0 2.216 . S
O1 C8 1.247 . S
O2 Co0 2.091 . S
O2 C8 1.261 . S
C3 O12 1.247 . S
C3 O13 1.272 . S
O4 Co0 2.004 . S
O4 C9 1.259 . S
Co5 O6 2.061 . S
Co5 O11 2.052 . S
Co5 O13 2.135 . S
O6 Co5 2.061 . S
O6 C9 1.235 . S
C7 O10 1.238 . S
C7 O11 1.241 . S
C8 O1 1.247 . S
C8 O2 1.261 . S
C9 O4 1.259 . S
C9 O6 1.235 . S
O10 Co0 2.021 . S
O10 C7 1.238 . S
O11 Co5 2.052 . S
O11 C7 1.241 . S
O12 Co0 2.137 . S
O12 C3 1.247 . S
O13 Co0 2.244 . S
O13 C3 1.272 . S
O13 Co5 2.135 . S
Co14 O15 2.216 . S
Co14 O16 2.091 . S
Co14 O18 2.004 . S
Co14 O24 2.021 . S
Co14 O26 2.137 . S
Co14 O27 2.244 . S
O15 Co14 2.216 . S
O15 C22 1.247 . S
O16 Co14 2.091 . S
O16 C22 1.261 . S
C17 O26 1.247 . S
C17 O27 1.272 . S
O18 Co14 2.004 . S
O18 C23 1.259 . S
Co19 O20 2.061 . S
Co19 O25 2.052 . S
Co19 O27 2.135 . S
O20 Co19 2.061 . S
O20 C23 1.235 . S
C21 O24 1.238 . S
C21 O25 1.241 . S
C22 O15 1.247 . S
C22 O16 1.261 . S
C23 O18 1.259 . S
C23 O20 1.235 . S
O24 Co14 2.021 . S
O24 C21 1.238 . S
O25 Co19 2.052 . S
O25 C21 1.241 . S
O26 Co14 2.137 . S
O26 C17 1.247 . S
O27 Co14 2.244 . S
O27 C17 1.272 . S
O27 Co19 2.135 . S
Co28 O29 2.216 . S
Co28 O30 2.091 . S
Co28 O32 2.004 . S
Co28 O38 2.021 . S
Co28 O40 2.137 . S
Co28 O41 2.244 . S
O29 Co28 2.216 . S
O29 C36 1.247 . S
O30 Co28 2.091 . S
O30 C36 1.261 . S
C31 O40 1.247 . S
C31 O41 1.272 . S
O32 Co28 2.004 . S
O32 C37 1.259 . S
Co33 O34 2.061 . S
Co33 O39 2.052 . S
Co33 O41 2.135 . S
O34 Co33 2.061 . S
O34 C37 1.235 . S
C35 O38 1.238 . S
C35 O39 1.241 . S
C36 O29 1.247 . S
C36 O30 1.261 . S
C37 O32 1.259 . S
C37 O34 1.235 . S
O38 Co28 2.021 . S
O38 C35 1.238 . S
O39 Co33 2.052 . S
O39 C35 1.241 . S
O40 Co28 2.137 . S
O40 C31 1.247 . S
O41 Co28 2.244 . S
O41 C31 1.272 . S
O41 Co33 2.135 . S
Co42 O43 2.216 . S
Co42 O44 2.091 . S
Co42 O46 2.004 . S
Co42 O52 2.021 . S
Co42 O54 2.137 . S
Co42 O55 2.244 . S
O43 Co42 2.216 . S
O43 C50 1.247 . S
O44 Co42 2.091 . S
O44 C50 1.261 . S
C45 O54 1.247 . S
C45 O55 1.272 . S
O46 Co42 2.004 . S
O46 C51 1.259 . S
Co47 O48 2.061 . S
Co47 O53 2.052 . S
Co47 O55 2.135 . S
O48 Co47 2.061 . S
O48 C51 1.235 . S
C49 O52 1.238 . S
C49 O53 1.241 . S
C50 O43 1.247 . S
C50 O44 1.261 . S
C51 O46 1.259 . S
C51 O48 1.235 . S
O52 Co42 2.021 . S
O52 C49 1.238 . S
O53 Co47 2.052 . S
O53 C49 1.241 . S
O54 Co42 2.137 . S
O54 C45 1.247 . S
O55 Co42 2.244 . S
O55 C45 1.272 . S
O55 Co47 2.135 . S
Co56 O57 2.216 . S
Co56 O58 2.091 . S
Co56 O60 2.004 . S
Co56 O66 2.021 . S
Co56 O68 2.137 . S
Co56 O69 2.244 . S
O57 Co56 2.216 . S
O57 C64 1.247 . S
O58 Co56 2.091 . S
O58 C64 1.261 . S
C59 O68 1.247 . S
C59 O69 1.272 . S
O60 Co56 2.004 . S
O60 C65 1.259 . S
Co61 O62 2.061 . S
Co61 O67 2.052 . S
Co61 O69 2.135 . S
O62 Co61 2.061 . S
O62 C65 1.235 . S
C63 O66 1.238 . S
C63 O67 1.241 . S
C64 O57 1.247 . S
C64 O58 1.261 . S
C65 O60 1.259 . S
C65 O62 1.235 . S
O66 Co56 2.021 . S
O66 C63 1.238 . S
O67 Co61 2.052 . S
O67 C63 1.241 . S
O68 Co56 2.137 . S
O68 C59 1.247 . S
O69 Co56 2.244 . S
O69 C59 1.272 . S
O69 Co61 2.135 . S
Co70 O71 2.216 . S
Co70 O72 2.091 . S
Co70 O74 2.004 . S
Co70 O80 2.021 . S
Co70 O82 2.137 . S
Co70 O83 2.244 . S
O71 Co70 2.216 . S
O71 C78 1.247 . S
O72 Co70 2.091 . S
O72 C78 1.261 . S
C73 O82 1.247 . S
C73 O83 1.272 . S
O74 Co70 2.004 . S
O74 C79 1.259 . S
Co75 O76 2.061 . S
Co75 O81 2.052 . S
Co75 O83 2.135 . S
O76 Co75 2.061 . S
O76 C79 1.235 . S
C77 O80 1.238 . S
C77 O81 1.241 . S
C78 O71 1.247 . S
C78 O72 1.261 . S
C79 O74 1.259 . S
C79 O76 1.235 . S
O80 Co70 2.021 . S
O80 C77 1.238 . S
O81 Co75 2.052 . S
O81 C77 1.241 . S
O82 Co70 2.137 . S
O82 C73 1.247 . S
O83 Co70 2.244 . S
O83 C73 1.272 . S
O83 Co75 2.135 . S
Co84 O85 2.216 . S
Co84 O86 2.091 . S
Co84 O88 2.004 . S
Co84 O94 2.021 . S
Co84 O96 2.137 . S
Co84 O97 2.244 . S
O85 Co84 2.216 . S
O85 C92 1.247 . S
O86 Co84 2.091 . S
O86 C92 1.261 . S
C87 O96 1.247 . S
C87 O97 1.272 . S
O88 Co84 2.004 . S
O88 C93 1.259 . S
Co89 O90 2.061 . S
Co89 O95 2.052 . S
Co89 O97 2.135 . S
O90 Co89 2.061 . S
O90 C93 1.235 . S
C91 O94 1.238 . S
C91 O95 1.241 . S
C92 O85 1.247 . S
C92 O86 1.261 . S
C93 O88 1.259 . S
C93 O90 1.235 . S
O94 Co84 2.021 . S
O94 C91 1.238 . S
O95 Co89 2.052 . S
O95 C91 1.241 . S
O96 Co84 2.137 . S
O96 C87 1.247 . S
O97 Co84 2.244 . S
O97 C87 1.272 . S
O97 Co89 2.135 . S
Co98 O99 2.216 . S
Co98 O100 2.091 . S
Co98 O102 2.004 . S
Co98 O108 2.021 . S
Co98 O110 2.137 . S
Co98 O111 2.244 . S
O99 Co98 2.216 . S
O99 C106 1.247 . S
O100 Co98 2.091 . S
O100 C106 1.261 . S
C101 O110 1.247 . S
C101 O111 1.272 . S
O102 Co98 2.004 . S
O102 C107 1.259 . S
Co103 O104 2.061 . S
Co103 O109 2.052 . S
Co103 O111 2.135 . S
O104 Co103 2.061 . S
O104 C107 1.235 . S
C105 O108 1.238 . S
C105 O109 1.241 . S
C106 O99 1.247 . S
C106 O100 1.261 . S
C107 O102 1.259 . S
C107 O104 1.235 . S
O108 Co98 2.021 . S
O108 C105 1.238 . S
O109 Co103 2.052 . S
O109 C105 1.241 . S
O110 Co98 2.137 . S
O110 C101 1.247 . S
O111 Co98 2.244 . S
O111 C101 1.272 . S
O111 Co103 2.135 . S
Co112 O113 2.216 . S
Co112 O114 2.091 . S
Co112 O116 2.004 . S
Co112 O122 2.021 . S
Co112 O124 2.137 . S
Co112 O125 2.244 . S
O113 Co112 2.216 . S
O113 C120 1.247 . S
O114 Co112 2.091 . S
O114 C120 1.261 . S
C115 O124 1.247 . S
C115 O125 1.272 . S
O116 Co112 2.004 . S
O116 C121 1.259 . S
Co117 O118 2.061 . S
Co117 O123 2.052 . S
Co117 O125 2.135 . S
O118 Co117 2.061 . S
O118 C121 1.235 . S
C119 O122 1.238 . S
C119 O123 1.241 . S
C120 O113 1.247 . S
C120 O114 1.261 . S
C121 O116 1.259 . S
C121 O118 1.235 . S
O122 Co112 2.021 . S
O122 C119 1.238 . S
O123 Co117 2.052 . S
O123 C119 1.241 . S
O124 Co112 2.137 . S
O124 C115 1.247 . S
O125 Co112 2.244 . S
O125 C115 1.272 . S
O125 Co117 2.135 . S
Co126 O127 2.216 . S
Co126 O128 2.091 . S
Co126 O130 2.004 . S
Co126 O136 2.021 . S
Co126 O138 2.137 . S
Co126 O139 2.244 . S
O127 Co126 2.216 . S
O127 C134 1.247 . S
O128 Co126 2.091 . S
O128 C134 1.261 . S
C129 O138 1.247 . S
C129 O139 1.272 . S
O130 Co126 2.004 . S
O130 C135 1.259 . S
Co131 O132 2.061 . S
Co131 O137 2.052 . S
Co131 O139 2.135 . S
O132 Co131 2.061 . S
O132 C135 1.235 . S
C133 O136 1.238 . S
C133 O137 1.241 . S
C134 O127 1.247 . S
C134 O128 1.261 . S
C135 O130 1.259 . S
C135 O132 1.235 . S
O136 Co126 2.021 . S
O136 C133 1.238 . S
O137 Co131 2.052 . S
O137 C133 1.241 . S
O138 Co126 2.137 . S
O138 C129 1.247 . S
O139 Co126 2.244 . S
O139 C129 1.272 . S
O139 Co131 2.135 . S
Co140 O141 2.216 . S
Co140 O142 2.091 . S
Co140 O144 2.004 . S
Co140 O150 2.021 . S
Co140 O152 2.137 . S
Co140 O153 2.244 . S
O141 Co140 2.216 . S
O141 C148 1.247 . S
O142 Co140 2.091 . S
O142 C148 1.261 . S
C143 O152 1.247 . S
C143 O153 1.272 . S
O144 Co140 2.004 . S
O144 C149 1.259 . S
Co145 O146 2.061 . S
Co145 O151 2.052 . S
Co145 O153 2.135 . S
O146 Co145 2.061 . S
O146 C149 1.235 . S
C147 O150 1.238 . S
C147 O151 1.241 . S
C148 O141 1.247 . S
C148 O142 1.261 . S
C149 O144 1.259 . S
C149 O146 1.235 . S
O150 Co140 2.021 . S
O150 C147 1.238 . S
O151 Co145 2.052 . S
O151 C147 1.241 . S
O152 Co140 2.137 . S
O152 C143 1.247 . S
O153 Co140 2.244 . S
O153 C143 1.272 . S
O153 Co145 2.135 . S
Co154 O155 2.216 . S
Co154 O156 2.091 . S
Co154 O158 2.004 . S
Co154 O164 2.021 . S
Co154 O166 2.137 . S
Co154 O167 2.244 . S
O155 Co154 2.216 . S
O155 C162 1.247 . S
O156 Co154 2.091 . S
O156 C162 1.261 . S
C157 O166 1.247 . S
C157 O167 1.272 . S
O158 Co154 2.004 . S
O158 C163 1.259 . S
Co159 O160 2.061 . S
Co159 O165 2.052 . S
Co159 O167 2.135 . S
O160 Co159 2.061 . S
O160 C163 1.235 . S
C161 O164 1.238 . S
C161 O165 1.241 . S
C162 O155 1.247 . S
C162 O156 1.261 . S
C163 O158 1.259 . S
C163 O160 1.235 . S
O164 Co154 2.021 . S
O164 C161 1.238 . S
O165 Co159 2.052 . S
O165 C161 1.241 . S
O166 Co154 2.137 . S
O166 C157 1.247 . S
O167 Co154 2.244 . S
O167 C157 1.272 . S
O167 Co159 2.135 . S
Co168 O169 2.216 . S
Co168 O170 2.091 . S
Co168 O172 2.004 . S
Co168 O178 2.021 . S
Co168 O180 2.137 . S
Co168 O181 2.244 . S
O169 Co168 2.216 . S
O169 C176 1.247 . S
O170 Co168 2.091 . S
O170 C176 1.261 . S
C171 O180 1.247 . S
C171 O181 1.272 . S
O172 Co168 2.004 . S
O172 C177 1.259 . S
Co173 O174 2.061 . S
Co173 O179 2.052 . S
Co173 O181 2.135 . S
O174 Co173 2.061 . S
O174 C177 1.235 . S
C175 O178 1.238 . S
C175 O179 1.241 . S
C176 O169 1.247 . S
C176 O170 1.261 . S
C177 O172 1.259 . S
C177 O174 1.235 . S
O178 Co168 2.021 . S
O178 C175 1.238 . S
O179 Co173 2.052 . S
O179 C175 1.241 . S
O180 Co168 2.137 . S
O180 C171 1.247 . S
O181 Co168 2.244 . S
O181 C171 1.272 . S
O181 Co173 2.135 . S
Co182 O183 2.216 . S
Co182 O184 2.091 . S
Co182 O186 2.004 . S
Co182 O192 2.021 . S
Co182 O194 2.137 . S
Co182 O195 2.244 . S
O183 Co182 2.216 . S
O183 C190 1.247 . S
O184 Co182 2.091 . S
O184 C190 1.261 . S
C185 O194 1.247 . S
C185 O195 1.272 . S
O186 Co182 2.004 . S
O186 C191 1.259 . S
Co187 O188 2.061 . S
Co187 O193 2.052 . S
Co187 O195 2.135 . S
O188 Co187 2.061 . S
O188 C191 1.235 . S
C189 O192 1.238 . S
C189 O193 1.241 . S
C190 O183 1.247 . S
C190 O184 1.261 . S
C191 O186 1.259 . S
C191 O188 1.235 . S
O192 Co182 2.021 . S
O192 C189 1.238 . S
O193 Co187 2.052 . S
O193 C189 1.241 . S
O194 Co182 2.137 . S
O194 C185 1.247 . S
O195 Co182 2.244 . S
O195 C185 1.272 . S
O195 Co187 2.135 . S
Co196 O197 2.216 . S
Co196 O198 2.091 . S
Co196 O200 2.004 . S
Co196 O206 2.021 . S
Co196 O208 2.137 . S
Co196 O209 2.244 . S
O197 Co196 2.216 . S
O197 C204 1.247 . S
O198 Co196 2.091 . S
O198 C204 1.261 . S
C199 O208 1.247 . S
C199 O209 1.272 . S
O200 Co196 2.004 . S
O200 C205 1.259 . S
Co201 O202 2.061 . S
Co201 O207 2.052 . S
Co201 O209 2.135 . S
O202 Co201 2.061 . S
O202 C205 1.235 . S
C203 O206 1.238 . S
C203 O207 1.241 . S
C204 O197 1.247 . S
C204 O198 1.261 . S
C205 O200 1.259 . S
C205 O202 1.235 . S
O206 Co196 2.021 . S
O206 C203 1.238 . S
O207 Co201 2.052 . S
O207 C203 1.241 . S
O208 Co196 2.137 . S
O208 C199 1.247 . S
O209 Co196 2.244 . S
O209 C199 1.272 . S
O209 Co201 2.135 . S
Co210 O211 2.216 . S
Co210 O212 2.091 . S
Co210 O214 2.004 . S
Co210 O220 2.021 . S
Co210 O222 2.137 . S
Co210 O223 2.244 . S
O211 Co210 2.216 . S
O211 C218 1.247 . S
O212 Co210 2.091 . S
O212 C218 1.261 . S
C213 O222 1.247 . S
C213 O223 1.272 . S
O214 Co210 2.004 . S
O214 C219 1.259 . S
Co215 O216 2.061 . S
Co215 O221 2.052 . S
Co215 O223 2.135 . S
O216 Co215 2.061 . S
O216 C219 1.235 . S
C217 O220 1.238 . S
C217 O221 1.241 . S
C218 O211 1.247 . S
C218 O212 1.261 . S
C219 O214 1.259 . S
C219 O216 1.235 . S
O220 Co210 2.021 . S
O220 C217 1.238 . S
O221 Co215 2.052 . S
O221 C217 1.241 . S
O222 Co210 2.137 . S
O222 C213 1.247 . S
O223 Co210 2.244 . S
O223 C213 1.272 . S
O223 Co215 2.135 . S
Co224 O225 2.216 . S
Co224 O226 2.091 . S
Co224 O228 2.004 . S
Co224 O234 2.021 . S
Co224 O236 2.137 . S
Co224 O237 2.244 . S
O225 Co224 2.216 . S
O225 C232 1.247 . S
O226 Co224 2.091 . S
O226 C232 1.261 . S
C227 O236 1.247 . S
C227 O237 1.272 . S
O228 Co224 2.004 . S
O228 C233 1.259 . S
Co229 O230 2.061 . S
Co229 O235 2.052 . S
Co229 O237 2.135 . S
O230 Co229 2.061 . S
O230 C233 1.235 . S
C231 O234 1.238 . S
C231 O235 1.241 . S
C232 O225 1.247 . S
C232 O226 1.261 . S
C233 O228 1.259 . S
C233 O230 1.235 . S
O234 Co224 2.021 . S
O234 C231 1.238 . S
O235 Co229 2.052 . S
O235 C231 1.241 . S
O236 Co224 2.137 . S
O236 C227 1.247 . S
O237 Co224 2.244 . S
O237 C227 1.272 . S
O237 Co229 2.135 . S
Co238 O239 2.216 . S
Co238 O240 2.091 . S
Co238 O242 2.004 . S
Co238 O248 2.021 . S
Co238 O250 2.137 . S
Co238 O251 2.244 . S
O239 Co238 2.216 . S
O239 C246 1.247 . S
O240 Co238 2.091 . S
O240 C246 1.261 . S
C241 O250 1.247 . S
C241 O251 1.272 . S
O242 Co238 2.004 . S
O242 C247 1.259 . S
Co243 O244 2.061 . S
Co243 O249 2.052 . S
Co243 O251 2.135 . S
O244 Co243 2.061 . S
O244 C247 1.235 . S
C245 O248 1.238 . S
C245 O249 1.241 . S
C246 O239 1.247 . S
C246 O240 1.261 . S
C247 O242 1.259 . S
C247 O244 1.235 . S
O248 Co238 2.021 . S
O248 C245 1.238 . S
O249 Co243 2.052 . S
O249 C245 1.241 . S
O250 Co238 2.137 . S
O250 C241 1.247 . S
O251 Co238 2.244 . S
O251 C241 1.272 . S
O251 Co243 2.135 . S
Co252 O253 2.216 . S
Co252 O254 2.091 . S
Co252 O256 2.004 . S
Co252 O262 2.021 . S
Co252 O264 2.137 . S
Co252 O265 2.244 . S
O253 Co252 2.216 . S
O253 C260 1.247 . S
O254 Co252 2.091 . S
O254 C260 1.261 . S
C255 O264 1.247 . S
C255 O265 1.272 . S
O256 Co252 2.004 . S
O256 C261 1.259 . S
Co257 O258 2.061 . S
Co257 O263 2.052 . S
Co257 O265 2.135 . S
O258 Co257 2.061 . S
O258 C261 1.235 . S
C259 O262 1.238 . S
C259 O263 1.241 . S
C260 O253 1.247 . S
C260 O254 1.261 . S
C261 O256 1.259 . S
C261 O258 1.235 . S
O262 Co252 2.021 . S
O262 C259 1.238 . S
O263 Co257 2.052 . S
O263 C259 1.241 . S
O264 Co252 2.137 . S
O264 C255 1.247 . S
O265 Co252 2.244 . S
O265 C255 1.272 . S
O265 Co257 2.135 . S
Co266 O267 2.216 . S
Co266 O268 2.091 . S
Co266 O270 2.004 . S
Co266 O276 2.021 . S
Co266 O278 2.137 . S
Co266 O279 2.244 . S
O267 Co266 2.216 . S
O267 C274 1.247 . S
O268 Co266 2.091 . S
O268 C274 1.261 . S
C269 O278 1.247 . S
C269 O279 1.272 . S
O270 Co266 2.004 . S
O270 C275 1.259 . S
Co271 O272 2.061 . S
Co271 O277 2.052 . S
Co271 O279 2.135 . S
O272 Co271 2.061 . S
O272 C275 1.235 . S
C273 O276 1.238 . S
C273 O277 1.241 . S
C274 O267 1.247 . S
C274 O268 1.261 . S
C275 O270 1.259 . S
C275 O272 1.235 . S
O276 Co266 2.021 . S
O276 C273 1.238 . S
O277 Co271 2.052 . S
O277 C273 1.241 . S
O278 Co266 2.137 . S
O278 C269 1.247 . S
O279 Co266 2.244 . S
O279 C269 1.272 . S
O279 Co271 2.135 . S
Co280 O281 2.216 . S
Co280 O282 2.091 . S
Co280 O284 2.004 . S
Co280 O290 2.021 . S
Co280 O292 2.137 . S
Co280 O293 2.244 . S
O281 Co280 2.216 . S
O281 C288 1.247 . S
O282 Co280 2.091 . S
O282 C288 1.261 . S
C283 O292 1.247 . S
C283 O293 1.272 . S
O284 Co280 2.004 . S
O284 C289 1.259 . S
Co285 O286 2.061 . S
Co285 O291 2.052 . S
Co285 O293 2.135 . S
O286 Co285 2.061 . S
O286 C289 1.235 . S
C287 O290 1.238 . S
C287 O291 1.241 . S
C288 O281 1.247 . S
C288 O282 1.261 . S
C289 O284 1.259 . S
C289 O286 1.235 . S
O290 Co280 2.021 . S
O290 C287 1.238 . S
O291 Co285 2.052 . S
O291 C287 1.241 . S
O292 Co280 2.137 . S
O292 C283 1.247 . S
O293 Co280 2.244 . S
O293 C283 1.272 . S
O293 Co285 2.135 . S
Co294 O295 2.216 . S
Co294 O296 2.091 . S
Co294 O298 2.004 . S
Co294 O304 2.021 . S
Co294 O306 2.137 . S
Co294 O307 2.244 . S
O295 Co294 2.216 . S
O295 C302 1.247 . S
O296 Co294 2.091 . S
O296 C302 1.261 . S
C297 O306 1.247 . S
C297 O307 1.272 . S
O298 Co294 2.004 . S
O298 C303 1.259 . S
Co299 O300 2.061 . S
Co299 O305 2.052 . S
Co299 O307 2.135 . S
O300 Co299 2.061 . S
O300 C303 1.235 . S
C301 O304 1.238 . S
C301 O305 1.241 . S
C302 O295 1.247 . S
C302 O296 1.261 . S
C303 O298 1.259 . S
C303 O300 1.235 . S
O304 Co294 2.021 . S
O304 C301 1.238 . S
O305 Co299 2.052 . S
O305 C301 1.241 . S
O306 Co294 2.137 . S
O306 C297 1.247 . S
O307 Co294 2.244 . S
O307 C297 1.272 . S
O307 Co299 2.135 . S
Co308 O309 2.216 . S
Co308 O310 2.091 . S
Co308 O312 2.004 . S
Co308 O318 2.021 . S
Co308 O320 2.137 . S
Co308 O321 2.244 . S
O309 Co308 2.216 . S
O309 C316 1.247 . S
O310 Co308 2.091 . S
O310 C316 1.261 . S
C311 O320 1.247 . S
C311 O321 1.272 . S
O312 Co308 2.004 . S
O312 C317 1.259 . S
Co313 O314 2.061 . S
Co313 O319 2.052 . S
Co313 O321 2.135 . S
O314 Co313 2.061 . S
O314 C317 1.235 . S
C315 O318 1.238 . S
C315 O319 1.241 . S
C316 O309 1.247 . S
C316 O310 1.261 . S
C317 O312 1.259 . S
C317 O314 1.235 . S
O318 Co308 2.021 . S
O318 C315 1.238 . S
O319 Co313 2.052 . S
O319 C315 1.241 . S
O320 Co308 2.137 . S
O320 C311 1.247 . S
O321 Co308 2.244 . S
O321 C311 1.272 . S
O321 Co313 2.135 . S
Co322 O323 2.216 . S
Co322 O324 2.091 . S
Co322 O326 2.004 . S
Co322 O332 2.021 . S
Co322 O334 2.137 . S
Co322 O335 2.244 . S
O323 Co322 2.216 . S
O323 C330 1.247 . S
O324 Co322 2.091 . S
O324 C330 1.261 . S
C325 O334 1.247 . S
C325 O335 1.272 . S
O326 Co322 2.004 . S
O326 C331 1.259 . S
Co327 O328 2.061 . S
Co327 O333 2.052 . S
Co327 O335 2.135 . S
O328 Co327 2.061 . S
O328 C331 1.235 . S
C329 O332 1.238 . S
C329 O333 1.241 . S
C330 O323 1.247 . S
C330 O324 1.261 . S
C331 O326 1.259 . S
C331 O328 1.235 . S
O332 Co322 2.021 . S
O332 C329 1.238 . S
O333 Co327 2.052 . S
O333 C329 1.241 . S
O334 Co322 2.137 . S
O334 C325 1.247 . S
O335 Co322 2.244 . S
O335 C325 1.272 . S
O335 Co327 2.135 . S
H336 C344 0.929 . S
H337 C346 0.930 . S
H338 C348 0.930 . S
H339 C351 0.929 . S
H340 C354 0.930 . S
H341 C356 0.960 . S
H342 C356 0.960 . S
H343 C356 0.960 . S
C344 H336 0.929 . S
C344 C345 1.377 . S
C344 C346 1.384 . S
C345 C344 1.377 . S
C345 C351 1.390 . S
C346 H337 0.930 . S
C346 C344 1.384 . S
C346 C347 1.372 . S
C347 C346 1.372 . S
C347 C348 1.400 . S
C347 C352 1.490 . S
C348 H338 0.930 . S
C348 C347 1.400 . S
C348 C351 1.386 . S
H349 C365 0.930 . S
H350 C366 0.931 . S
C351 H339 0.929 . S
C351 C345 1.390 . S
C351 C348 1.386 . S
C352 C347 1.490 . S
C352 C354 1.395 . S
C352 C355 1.403 . S
H353 C359 0.930 . S
C354 H340 0.930 . S
C354 C352 1.395 . S
C354 C357 1.403 . S
C355 C352 1.403 . S
C355 C356 1.524 . S
C355 C359 1.400 . S
C356 H341 0.960 . S
C356 H342 0.960 . S
C356 H343 0.960 . S
C356 C355 1.524 . S
C357 C354 1.403 . S
C357 C358 1.392 . S
C357 C361 1.495 . S
C358 C357 1.392 . S
C358 C359 1.385 . S
C358 C360 1.478 . S
C359 H353 0.930 . S
C359 C355 1.400 . S
C359 C358 1.385 . S
C360 C358 1.478 . S
C360 C362 1.381 . S
C360 C366 1.383 . S
C361 C357 1.495 . S
C361 H367 0.959 . S
C361 H368 0.961 . S
C361 H369 0.960 . S
C362 C360 1.381 . S
C362 C363 1.394 . S
C362 H370 0.930 . S
C363 C362 1.394 . S
C363 C364 1.383 . S
C363 H371 0.929 . S
C364 C363 1.383 . S
C364 C365 1.377 . S
C365 H349 0.930 . S
C365 C364 1.377 . S
C365 C366 1.379 . S
C366 H350 0.931 . S
C366 C360 1.383 . S
C366 C365 1.379 . S
H367 C361 0.959 . S
H368 C361 0.961 . S
H369 C361 0.960 . S
H370 C362 0.930 . S
H371 C363 0.929 . S
H372 C380 0.929 . S
H373 C382 0.930 . S
H374 C384 0.930 . S
H375 C387 0.929 . S
H376 C390 0.930 . S
H377 C392 0.960 . S
H378 C392 0.960 . S
H379 C392 0.960 . S
C380 H372 0.929 . S
C380 C381 1.377 . S
C380 C382 1.384 . S
C381 C380 1.377 . S
C381 C387 1.390 . S
C382 H373 0.930 . S
C382 C380 1.384 . S
C382 C383 1.372 . S
C383 C382 1.372 . S
C383 C384 1.400 . S
C383 C388 1.490 . S
C384 H374 0.930 . S
C384 C383 1.400 . S
C384 C387 1.386 . S
H385 C401 0.930 . S
H386 C402 0.931 . S
C387 H375 0.929 . S
C387 C381 1.390 . S
C387 C384 1.386 . S
C388 C383 1.490 . S
C388 C390 1.395 . S
C388 C391 1.403 . S
H389 C395 0.930 . S
C390 H376 0.930 . S
C390 C388 1.395 . S
C390 C393 1.403 . S
C391 C388 1.403 . S
C391 C392 1.524 . S
C391 C395 1.400 . S
C392 H377 0.960 . S
C392 H378 0.960 . S
C392 H379 0.960 . S
C392 C391 1.524 . S
C393 C390 1.403 . S
C393 C394 1.392 . S
C393 C397 1.495 . S
C394 C393 1.392 . S
C394 C395 1.385 . S
C394 C396 1.478 . S
C395 H389 0.930 . S
C395 C391 1.400 . S
C395 C394 1.385 . S
C396 C394 1.478 . S
C396 C398 1.381 . S
C396 C402 1.383 . S
C397 C393 1.495 . S
C397 H403 0.959 . S
C397 H404 0.961 . S
C397 H405 0.960 . S
C398 C396 1.381 . S
C398 C399 1.394 . S
C398 H406 0.930 . S
C399 C398 1.394 . S
C399 C400 1.383 . S
C399 H407 0.929 . S
C400 C399 1.383 . S
C400 C401 1.377 . S
C401 H385 0.930 . S
C401 C400 1.377 . S
C401 C402 1.379 . S
C402 H386 0.931 . S
C402 C396 1.383 . S
C402 C401 1.379 . S
H403 C397 0.959 . S
H404 C397 0.961 . S
H405 C397 0.960 . S
H406 C398 0.930 . S
H407 C399 0.929 . S
H408 C416 0.929 . S
H409 C418 0.930 . S
H410 C420 0.930 . S
H411 C423 0.929 . S
H412 C426 0.930 . S
H413 C428 0.960 . S
H414 C428 0.960 . S
H415 C428 0.960 . S
C416 H408 0.929 . S
C416 C417 1.377 . S
C416 C418 1.384 . S
C417 C416 1.377 . S
C417 C423 1.390 . S
C418 H409 0.930 . S
C418 C416 1.384 . S
C418 C419 1.372 . S
C419 C418 1.372 . S
C419 C420 1.400 . S
C419 C424 1.490 . S
C420 H410 0.930 . S
C420 C419 1.400 . S
C420 C423 1.386 . S
H421 C437 0.930 . S
H422 C438 0.931 . S
C423 H411 0.929 . S
C423 C417 1.390 . S
C423 C420 1.386 . S
C424 C419 1.490 . S
C424 C426 1.395 . S
C424 C427 1.403 . S
H425 C431 0.930 . S
C426 H412 0.930 . S
C426 C424 1.395 . S
C426 C429 1.403 . S
C427 C424 1.403 . S
C427 C428 1.524 . S
C427 C431 1.400 . S
C428 H413 0.960 . S
C428 H414 0.960 . S
C428 H415 0.960 . S
C428 C427 1.524 . S
C429 C426 1.403 . S
C429 C430 1.392 . S
C429 C433 1.495 . S
C430 C429 1.392 . S
C430 C431 1.385 . S
C430 C432 1.478 . S
C431 H425 0.930 . S
C431 C427 1.400 . S
C431 C430 1.385 . S
C432 C430 1.478 . S
C432 C434 1.381 . S
C432 C438 1.383 . S
C433 C429 1.495 . S
C433 H439 0.959 . S
C433 H440 0.961 . S
C433 H441 0.960 . S
C434 C432 1.381 . S
C434 C435 1.394 . S
C434 H442 0.930 . S
C435 C434 1.394 . S
C435 C436 1.383 . S
C435 H443 0.929 . S
C436 C435 1.383 . S
C436 C437 1.377 . S
C437 H421 0.930 . S
C437 C436 1.377 . S
C437 C438 1.379 . S
C438 H422 0.931 . S
C438 C432 1.383 . S
C438 C437 1.379 . S
H439 C433 0.959 . S
H440 C433 0.961 . S
H441 C433 0.960 . S
H442 C434 0.930 . S
H443 C435 0.929 . S
H444 C452 0.929 . S
H445 C454 0.930 . S
H446 C456 0.930 . S
H447 C459 0.929 . S
H448 C462 0.930 . S
H449 C464 0.960 . S
H450 C464 0.960 . S
H451 C464 0.960 . S
C452 H444 0.929 . S
C452 C453 1.377 . S
C452 C454 1.384 . S
C453 C452 1.377 . S
C453 C459 1.390 . S
C454 H445 0.930 . S
C454 C452 1.384 . S
C454 C455 1.372 . S
C455 C454 1.372 . S
C455 C456 1.400 . S
C455 C460 1.490 . S
C456 H446 0.930 . S
C456 C455 1.400 . S
C456 C459 1.386 . S
H457 C473 0.930 . S
H458 C474 0.931 . S
C459 H447 0.929 . S
C459 C453 1.390 . S
C459 C456 1.386 . S
C460 C455 1.490 . S
C460 C462 1.395 . S
C460 C463 1.403 . S
H461 C467 0.930 . S
C462 H448 0.930 . S
C462 C460 1.395 . S
C462 C465 1.403 . S
C463 C460 1.403 . S
C463 C464 1.524 . S
C463 C467 1.400 . S
C464 H449 0.960 . S
C464 H450 0.960 . S
C464 H451 0.960 . S
C464 C463 1.524 . S
C465 C462 1.403 . S
C465 C466 1.392 . S
C465 C469 1.495 . S
C466 C465 1.392 . S
C466 C467 1.385 . S
C466 C468 1.478 . S
C467 H461 0.930 . S
C467 C463 1.400 . S
C467 C466 1.385 . S
C468 C466 1.478 . S
C468 C470 1.381 . S
C468 C474 1.383 . S
C469 C465 1.495 . S
C469 H475 0.959 . S
C469 H476 0.961 . S
C469 H477 0.960 . S
C470 C468 1.381 . S
C470 C471 1.394 . S
C470 H478 0.930 . S
C471 C470 1.394 . S
C471 C472 1.383 . S
C471 H479 0.929 . S
C472 C471 1.383 . S
C472 C473 1.377 . S
C473 H457 0.930 . S
C473 C472 1.377 . S
C473 C474 1.379 . S
C474 H458 0.931 . S
C474 C468 1.383 . S
C474 C473 1.379 . S
H475 C469 0.959 . S
H476 C469 0.961 . S
H477 C469 0.960 . S
H478 C470 0.930 . S
H479 C471 0.929 . S
H480 C488 0.929 . S
H481 C490 0.930 . S
H482 C492 0.930 . S
H483 C495 0.929 . S
H484 C498 0.930 . S
H485 C500 0.960 . S
H486 C500 0.960 . S
H487 C500 0.960 . S
C488 H480 0.929 . S
C488 C489 1.377 . S
C488 C490 1.384 . S
C489 C488 1.377 . S
C489 C495 1.390 . S
C490 H481 0.930 . S
C490 C488 1.384 . S
C490 C491 1.372 . S
C491 C490 1.372 . S
C491 C492 1.400 . S
C491 C496 1.490 . S
C492 H482 0.930 . S
C492 C491 1.400 . S
C492 C495 1.386 . S
H493 C509 0.930 . S
H494 C510 0.931 . S
C495 H483 0.929 . S
C495 C489 1.390 . S
C495 C492 1.386 . S
C496 C491 1.490 . S
C496 C498 1.395 . S
C496 C499 1.403 . S
H497 C503 0.930 . S
C498 H484 0.930 . S
C498 C496 1.395 . S
C498 C501 1.403 . S
C499 C496 1.403 . S
C499 C500 1.524 . S
C499 C503 1.400 . S
C500 H485 0.960 . S
C500 H486 0.960 . S
C500 H487 0.960 . S
C500 C499 1.524 . S
C501 C498 1.403 . S
C501 C502 1.392 . S
C501 C505 1.495 . S
C502 C501 1.392 . S
C502 C503 1.385 . S
C502 C504 1.478 . S
C503 H497 0.930 . S
C503 C499 1.400 . S
C503 C502 1.385 . S
C504 C502 1.478 . S
C504 C506 1.381 . S
C504 C510 1.383 . S
C505 C501 1.495 . S
C505 H511 0.959 . S
C505 H512 0.961 . S
C505 H513 0.960 . S
C506 C504 1.381 . S
C506 C507 1.394 . S
C506 H514 0.930 . S
C507 C506 1.394 . S
C507 C508 1.383 . S
C507 H515 0.929 . S
C508 C507 1.383 . S
C508 C509 1.377 . S
C509 H493 0.930 . S
C509 C508 1.377 . S
C509 C510 1.379 . S
C510 H494 0.931 . S
C510 C504 1.383 . S
C510 C509 1.379 . S
H511 C505 0.959 . S
H512 C505 0.961 . S
H513 C505 0.960 . S
H514 C506 0.930 . S
H515 C507 0.929 . S
H516 C524 0.929 . S
H517 C526 0.930 . S
H518 C528 0.930 . S
H519 C531 0.929 . S
H520 C534 0.930 . S
H521 C536 0.960 . S
H522 C536 0.960 . S
H523 C536 0.960 . S
C524 H516 0.929 . S
C524 C525 1.377 . S
C524 C526 1.384 . S
C525 C524 1.377 . S
C525 C531 1.390 . S
C526 H517 0.930 . S
C526 C524 1.384 . S
C526 C527 1.372 . S
C527 C526 1.372 . S
C527 C528 1.400 . S
C527 C532 1.490 . S
C528 H518 0.930 . S
C528 C527 1.400 . S
C528 C531 1.386 . S
H529 C545 0.930 . S
H530 C546 0.931 . S
C531 H519 0.929 . S
C531 C525 1.390 . S
C531 C528 1.386 . S
C532 C527 1.490 . S
C532 C534 1.395 . S
C532 C535 1.403 . S
H533 C539 0.930 . S
C534 H520 0.930 . S
C534 C532 1.395 . S
C534 C537 1.403 . S
C535 C532 1.403 . S
C535 C536 1.524 . S
C535 C539 1.400 . S
C536 H521 0.960 . S
C536 H522 0.960 . S
C536 H523 0.960 . S
C536 C535 1.524 . S
C537 C534 1.403 . S
C537 C538 1.392 . S
C537 C541 1.495 . S
C538 C537 1.392 . S
C538 C539 1.385 . S
C538 C540 1.478 . S
C539 H533 0.930 . S
C539 C535 1.400 . S
C539 C538 1.385 . S
C540 C538 1.478 . S
C540 C542 1.381 . S
C540 C546 1.383 . S
C541 C537 1.495 . S
C541 H547 0.959 . S
C541 H548 0.961 . S
C541 H549 0.960 . S
C542 C540 1.381 . S
C542 C543 1.394 . S
C542 H550 0.930 . S
C543 C542 1.394 . S
C543 C544 1.383 . S
C543 H551 0.929 . S
C544 C543 1.383 . S
C544 C545 1.377 . S
C545 H529 0.930 . S
C545 C544 1.377 . S
C545 C546 1.379 . S
C546 H530 0.931 . S
C546 C540 1.383 . S
C546 C545 1.379 . S
H547 C541 0.959 . S
H548 C541 0.961 . S
H549 C541 0.960 . S
H550 C542 0.930 . S
H551 C543 0.929 . S
H552 C560 0.929 . S
H553 C562 0.930 . S
H554 C564 0.930 . S
H555 C567 0.929 . S
H556 C570 0.930 . S
H557 C572 0.960 . S
H558 C572 0.960 . S
H559 C572 0.960 . S
C560 H552 0.929 . S
C560 C561 1.377 . S
C560 C562 1.384 . S
C561 C560 1.377 . S
C561 C567 1.390 . S
C562 H553 0.930 . S
C562 C560 1.384 . S
C562 C563 1.372 . S
C563 C562 1.372 . S
C563 C564 1.400 . S
C563 C568 1.490 . S
C564 H554 0.930 . S
C564 C563 1.400 . S
C564 C567 1.386 . S
H565 C581 0.930 . S
H566 C582 0.931 . S
C567 H555 0.929 . S
C567 C561 1.390 . S
C567 C564 1.386 . S
C568 C563 1.490 . S
C568 C570 1.395 . S
C568 C571 1.403 . S
H569 C575 0.930 . S
C570 H556 0.930 . S
C570 C568 1.395 . S
C570 C573 1.403 . S
C571 C568 1.403 . S
C571 C572 1.524 . S
C571 C575 1.400 . S
C572 H557 0.960 . S
C572 H558 0.960 . S
C572 H559 0.960 . S
C572 C571 1.524 . S
C573 C570 1.403 . S
C573 C574 1.392 . S
C573 C577 1.495 . S
C574 C573 1.392 . S
C574 C575 1.385 . S
C574 C576 1.478 . S
C575 H569 0.930 . S
C575 C571 1.400 . S
C575 C574 1.385 . S
C576 C574 1.478 . S
C576 C578 1.381 . S
C576 C582 1.383 . S
C577 C573 1.495 . S
C577 H583 0.959 . S
C577 H584 0.961 . S
C577 H585 0.960 . S
C578 C576 1.381 . S
C578 C579 1.394 . S
C578 H586 0.930 . S
C579 C578 1.394 . S
C579 C580 1.383 . S
C579 H587 0.929 . S
C580 C579 1.383 . S
C580 C581 1.377 . S
C581 H565 0.930 . S
C581 C580 1.377 . S
C581 C582 1.379 . S
C582 H566 0.931 . S
C582 C576 1.383 . S
C582 C581 1.379 . S
H583 C577 0.959 . S
H584 C577 0.961 . S
H585 C577 0.960 . S
H586 C578 0.930 . S
H587 C579 0.929 . S
H588 C596 0.929 . S
H589 C598 0.930 . S
H590 C600 0.930 . S
H591 C603 0.929 . S
H592 C606 0.930 . S
H593 C608 0.960 . S
H594 C608 0.960 . S
H595 C608 0.960 . S
C596 H588 0.929 . S
C596 C597 1.377 . S
C596 C598 1.384 . S
C597 C596 1.377 . S
C597 C603 1.390 . S
C598 H589 0.930 . S
C598 C596 1.384 . S
C598 C599 1.372 . S
C599 C598 1.372 . S
C599 C600 1.400 . S
C599 C604 1.490 . S
C600 H590 0.930 . S
C600 C599 1.400 . S
C600 C603 1.386 . S
H601 C617 0.930 . S
H602 C618 0.931 . S
C603 H591 0.929 . S
C603 C597 1.390 . S
C603 C600 1.386 . S
C604 C599 1.490 . S
C604 C606 1.395 . S
C604 C607 1.403 . S
H605 C611 0.930 . S
C606 H592 0.930 . S
C606 C604 1.395 . S
C606 C609 1.403 . S
C607 C604 1.403 . S
C607 C608 1.524 . S
C607 C611 1.400 . S
C608 H593 0.960 . S
C608 H594 0.960 . S
C608 H595 0.960 . S
C608 C607 1.524 . S
C609 C606 1.403 . S
C609 C610 1.392 . S
C609 C613 1.495 . S
C610 C609 1.392 . S
C610 C611 1.385 . S
C610 C612 1.478 . S
C611 H605 0.930 . S
C611 C607 1.400 . S
C611 C610 1.385 . S
C612 C610 1.478 . S
C612 C614 1.381 . S
C612 C618 1.383 . S
C613 C609 1.495 . S
C613 H619 0.959 . S
C613 H620 0.961 . S
C613 H621 0.960 . S
C614 C612 1.381 . S
C614 C615 1.394 . S
C614 H622 0.930 . S
C615 C614 1.394 . S
C615 C616 1.383 . S
C615 H623 0.929 . S
C616 C615 1.383 . S
C616 C617 1.377 . S
C617 H601 0.930 . S
C617 C616 1.377 . S
C617 C618 1.379 . S
C618 H602 0.931 . S
C618 C612 1.383 . S
C618 C617 1.379 . S
H619 C613 0.959 . S
H620 C613 0.961 . S
H621 C613 0.960 . S
H622 C614 0.930 . S
H623 C615 0.929 . S
H624 C632 0.929 . S
H625 C634 0.930 . S
H626 C636 0.930 . S
H627 C639 0.929 . S
H628 C642 0.930 . S
H629 C644 0.960 . S
H630 C644 0.960 . S
H631 C644 0.960 . S
C632 H624 0.929 . S
C632 C633 1.377 . S
C632 C634 1.384 . S
C633 C632 1.377 . S
C633 C639 1.390 . S
C634 H625 0.930 . S
C634 C632 1.384 . S
C634 C635 1.372 . S
C635 C634 1.372 . S
C635 C636 1.400 . S
C635 C640 1.490 . S
C636 H626 0.930 . S
C636 C635 1.400 . S
C636 C639 1.386 . S
H637 C653 0.930 . S
H638 C654 0.931 . S
C639 H627 0.929 . S
C639 C633 1.390 . S
C639 C636 1.386 . S
C640 C635 1.490 . S
C640 C642 1.395 . S
C640 C643 1.403 . S
H641 C647 0.930 . S
C642 H628 0.930 . S
C642 C640 1.395 . S
C642 C645 1.403 . S
C643 C640 1.403 . S
C643 C644 1.524 . S
C643 C647 1.400 . S
C644 H629 0.960 . S
C644 H630 0.960 . S
C644 H631 0.960 . S
C644 C643 1.524 . S
C645 C642 1.403 . S
C645 C646 1.392 . S
C645 C649 1.495 . S
C646 C645 1.392 . S
C646 C647 1.385 . S
C646 C648 1.478 . S
C647 H641 0.930 . S
C647 C643 1.400 . S
C647 C646 1.385 . S
C648 C646 1.478 . S
C648 C650 1.381 . S
C648 C654 1.383 . S
C649 C645 1.495 . S
C649 H655 0.959 . S
C649 H656 0.961 . S
C649 H657 0.960 . S
C650 C648 1.381 . S
C650 C651 1.394 . S
C650 H658 0.930 . S
C651 C650 1.394 . S
C651 C652 1.383 . S
C651 H659 0.929 . S
C652 C651 1.383 . S
C652 C653 1.377 . S
C653 H637 0.930 . S
C653 C652 1.377 . S
C653 C654 1.379 . S
C654 H638 0.931 . S
C654 C648 1.383 . S
C654 C653 1.379 . S
H655 C649 0.959 . S
H656 C649 0.961 . S
H657 C649 0.960 . S
H658 C650 0.930 . S
H659 C651 0.929 . S
H660 C668 0.929 . S
H661 C670 0.930 . S
H662 C672 0.930 . S
H663 C675 0.929 . S
H664 C678 0.930 . S
H665 C680 0.960 . S
H666 C680 0.960 . S
H667 C680 0.960 . S
C668 H660 0.929 . S
C668 C669 1.377 . S
C668 C670 1.384 . S
C669 C668 1.377 . S
C669 C675 1.390 . S
C670 H661 0.930 . S
C670 C668 1.384 . S
C670 C671 1.372 . S
C671 C670 1.372 . S
C671 C672 1.400 . S
C671 C676 1.490 . S
C672 H662 0.930 . S
C672 C671 1.400 . S
C672 C675 1.386 . S
H673 C689 0.930 . S
H674 C690 0.931 . S
C675 H663 0.929 . S
C675 C669 1.390 . S
C675 C672 1.386 . S
C676 C671 1.490 . S
C676 C678 1.395 . S
C676 C679 1.403 . S
H677 C683 0.930 . S
C678 H664 0.930 . S
C678 C676 1.395 . S
C678 C681 1.403 . S
C679 C676 1.403 . S
C679 C680 1.524 . S
C679 C683 1.400 . S
C680 H665 0.960 . S
C680 H666 0.960 . S
C680 H667 0.960 . S
C680 C679 1.524 . S
C681 C678 1.403 . S
C681 C682 1.392 . S
C681 C685 1.495 . S
C682 C681 1.392 . S
C682 C683 1.385 . S
C682 C684 1.478 . S
C683 H677 0.930 . S
C683 C679 1.400 . S
C683 C682 1.385 . S
C684 C682 1.478 . S
C684 C686 1.381 . S
C684 C690 1.383 . S
C685 C681 1.495 . S
C685 H691 0.959 . S
C685 H692 0.961 . S
C685 H693 0.960 . S
C686 C684 1.381 . S
C686 C687 1.394 . S
C686 H694 0.930 . S
C687 C686 1.394 . S
C687 C688 1.383 . S
C687 H695 0.929 . S
C688 C687 1.383 . S
C688 C689 1.377 . S
C689 H673 0.930 . S
C689 C688 1.377 . S
C689 C690 1.379 . S
C690 H674 0.931 . S
C690 C684 1.383 . S
C690 C689 1.379 . S
H691 C685 0.959 . S
H692 C685 0.961 . S
H693 C685 0.960 . S
H694 C686 0.930 . S
H695 C687 0.929 . S
H696 C704 0.929 . S
H697 C706 0.930 . S
H698 C708 0.930 . S
H699 C711 0.929 . S
H700 C714 0.930 . S
H701 C716 0.960 . S
H702 C716 0.960 . S
H703 C716 0.960 . S
C704 H696 0.929 . S
C704 C705 1.377 . S
C704 C706 1.384 . S
C705 C704 1.377 . S
C705 C711 1.390 . S
C706 H697 0.930 . S
C706 C704 1.384 . S
C706 C707 1.372 . S
C707 C706 1.372 . S
C707 C708 1.400 . S
C707 C712 1.490 . S
C708 H698 0.930 . S
C708 C707 1.400 . S
C708 C711 1.386 . S
H709 C725 0.930 . S
H710 C726 0.931 . S
C711 H699 0.929 . S
C711 C705 1.390 . S
C711 C708 1.386 . S
C712 C707 1.490 . S
C712 C714 1.395 . S
C712 C715 1.403 . S
H713 C719 0.930 . S
C714 H700 0.930 . S
C714 C712 1.395 . S
C714 C717 1.403 . S
C715 C712 1.403 . S
C715 C716 1.524 . S
C715 C719 1.400 . S
C716 H701 0.960 . S
C716 H702 0.960 . S
C716 H703 0.960 . S
C716 C715 1.524 . S
C717 C714 1.403 . S
C717 C718 1.392 . S
C717 C721 1.495 . S
C718 C717 1.392 . S
C718 C719 1.385 . S
C718 C720 1.478 . S
C719 H713 0.930 . S
C719 C715 1.400 . S
C719 C718 1.385 . S
C720 C718 1.478 . S
C720 C722 1.381 . S
C720 C726 1.383 . S
C721 C717 1.495 . S
C721 H727 0.959 . S
C721 H728 0.961 . S
C721 H729 0.960 . S
C722 C720 1.381 . S
C722 C723 1.394 . S
C722 H730 0.930 . S
C723 C722 1.394 . S
C723 C724 1.383 . S
C723 H731 0.929 . S
C724 C723 1.383 . S
C724 C725 1.377 . S
C725 H709 0.930 . S
C725 C724 1.377 . S
C725 C726 1.379 . S
C726 H710 0.931 . S
C726 C720 1.383 . S
C726 C725 1.379 . S
H727 C721 0.959 . S
H728 C721 0.961 . S
H729 C721 0.960 . S
H730 C722 0.930 . S
H731 C723 0.929 . S
H732 C740 0.929 . S
H733 C742 0.930 . S
H734 C744 0.930 . S
H735 C747 0.929 . S
H736 C750 0.930 . S
H737 C752 0.960 . S
H738 C752 0.960 . S
H739 C752 0.960 . S
C740 H732 0.929 . S
C740 C741 1.377 . S
C740 C742 1.384 . S
C741 C740 1.377 . S
C741 C747 1.390 . S
C742 H733 0.930 . S
C742 C740 1.384 . S
C742 C743 1.372 . S
C743 C742 1.372 . S
C743 C744 1.400 . S
C743 C748 1.490 . S
C744 H734 0.930 . S
C744 C743 1.400 . S
C744 C747 1.386 . S
H745 C761 0.930 . S
H746 C762 0.931 . S
C747 H735 0.929 . S
C747 C741 1.390 . S
C747 C744 1.386 . S
C748 C743 1.490 . S
C748 C750 1.395 . S
C748 C751 1.403 . S
H749 C755 0.930 . S
C750 H736 0.930 . S
C750 C748 1.395 . S
C750 C753 1.403 . S
C751 C748 1.403 . S
C751 C752 1.524 . S
C751 C755 1.400 . S
C752 H737 0.960 . S
C752 H738 0.960 . S
C752 H739 0.960 . S
C752 C751 1.524 . S
C753 C750 1.403 . S
C753 C754 1.392 . S
C753 C757 1.495 . S
C754 C753 1.392 . S
C754 C755 1.385 . S
C754 C756 1.478 . S
C755 H749 0.930 . S
C755 C751 1.400 . S
C755 C754 1.385 . S
C756 C754 1.478 . S
C756 C758 1.381 . S
C756 C762 1.383 . S
C757 C753 1.495 . S
C757 H763 0.959 . S
C757 H764 0.961 . S
C757 H765 0.960 . S
C758 C756 1.381 . S
C758 C759 1.394 . S
C758 H766 0.930 . S
C759 C758 1.394 . S
C759 C760 1.383 . S
C759 H767 0.929 . S
C760 C759 1.383 . S
C760 C761 1.377 . S
C761 H745 0.930 . S
C761 C760 1.377 . S
C761 C762 1.379 . S
C762 H746 0.931 . S
C762 C756 1.383 . S
C762 C761 1.379 . S
H763 C757 0.959 . S
H764 C757 0.961 . S
H765 C757 0.960 . S
H766 C758 0.930 . S
H767 C759 0.929 . S
H768 C776 0.929 . S
H769 C778 0.930 . S
H770 C780 0.930 . S
H771 C783 0.929 . S
H772 C786 0.930 . S
H773 C788 0.960 . S
H774 C788 0.960 . S
H775 C788 0.960 . S
C776 H768 0.929 . S
C776 C777 1.377 . S
C776 C778 1.384 . S
C777 C776 1.377 . S
C777 C783 1.390 . S
C778 H769 0.930 . S
C778 C776 1.384 . S
C778 C779 1.372 . S
C779 C778 1.372 . S
C779 C780 1.400 . S
C779 C784 1.490 . S
C780 H770 0.930 . S
C780 C779 1.400 . S
C780 C783 1.386 . S
H781 C797 0.930 . S
H782 C798 0.931 . S
C783 H771 0.929 . S
C783 C777 1.390 . S
C783 C780 1.386 . S
C784 C779 1.490 . S
C784 C786 1.395 . S
C784 C787 1.403 . S
H785 C791 0.930 . S
C786 H772 0.930 . S
C786 C784 1.395 . S
C786 C789 1.403 . S
C787 C784 1.403 . S
C787 C788 1.524 . S
C787 C791 1.400 . S
C788 H773 0.960 . S
C788 H774 0.960 . S
C788 H775 0.960 . S
C788 C787 1.524 . S
C789 C786 1.403 . S
C789 C790 1.392 . S
C789 C793 1.495 . S
C790 C789 1.392 . S
C790 C791 1.385 . S
C790 C792 1.478 . S
C791 H785 0.930 . S
C791 C787 1.400 . S
C791 C790 1.385 . S
C792 C790 1.478 . S
C792 C794 1.381 . S
C792 C798 1.383 . S
C793 C789 1.495 . S
C793 H799 0.959 . S
C793 H800 0.961 . S
C793 H801 0.960 . S
C794 C792 1.381 . S
C794 C795 1.394 . S
C794 H802 0.930 . S
C795 C794 1.394 . S
C795 C796 1.383 . S
C795 H803 0.929 . S
C796 C795 1.383 . S
C796 C797 1.377 . S
C797 H781 0.930 . S
C797 C796 1.377 . S
C797 C798 1.379 . S
C798 H782 0.931 . S
C798 C792 1.383 . S
C798 C797 1.379 . S
H799 C793 0.959 . S
H800 C793 0.961 . S
H801 C793 0.960 . S
H802 C794 0.930 . S
H803 C795 0.929 . S
H804 C812 0.929 . S
H805 C814 0.930 . S
H806 C816 0.930 . S
H807 C819 0.929 . S
H808 C822 0.930 . S
H809 C824 0.960 . S
H810 C824 0.960 . S
H811 C824 0.960 . S
C812 H804 0.929 . S
C812 C813 1.377 . S
C812 C814 1.384 . S
C813 C812 1.377 . S
C813 C819 1.390 . S
C814 H805 0.930 . S
C814 C812 1.384 . S
C814 C815 1.372 . S
C815 C814 1.372 . S
C815 C816 1.400 . S
C815 C820 1.490 . S
C816 H806 0.930 . S
C816 C815 1.400 . S
C816 C819 1.386 . S
H817 C833 0.930 . S
H818 C834 0.931 . S
C819 H807 0.929 . S
C819 C813 1.390 . S
C819 C816 1.386 . S
C820 C815 1.490 . S
C820 C822 1.395 . S
C820 C823 1.403 . S
H821 C827 0.930 . S
C822 H808 0.930 . S
C822 C820 1.395 . S
C822 C825 1.403 . S
C823 C820 1.403 . S
C823 C824 1.524 . S
C823 C827 1.400 . S
C824 H809 0.960 . S
C824 H810 0.960 . S
C824 H811 0.960 . S
C824 C823 1.524 . S
C825 C822 1.403 . S
C825 C826 1.392 . S
C825 C829 1.495 . S
C826 C825 1.392 . S
C826 C827 1.385 . S
C826 C828 1.478 . S
C827 H821 0.930 . S
C827 C823 1.400 . S
C827 C826 1.385 . S
C828 C826 1.478 . S
C828 C830 1.381 . S
C828 C834 1.383 . S
C829 C825 1.495 . S
C829 H835 0.959 . S
C829 H836 0.961 . S
C829 H837 0.960 . S
C830 C828 1.381 . S
C830 C831 1.394 . S
C830 H838 0.930 . S
C831 C830 1.394 . S
C831 C832 1.383 . S
C831 H839 0.929 . S
C832 C831 1.383 . S
C832 C833 1.377 . S
C833 H817 0.930 . S
C833 C832 1.377 . S
C833 C834 1.379 . S
C834 H818 0.931 . S
C834 C828 1.383 . S
C834 C833 1.379 . S
H835 C829 0.959 . S
H836 C829 0.961 . S
H837 C829 0.960 . S
H838 C830 0.930 . S
H839 C831 0.929 . S
H840 C848 0.929 . S
H841 C850 0.930 . S
H842 C852 0.930 . S
H843 C855 0.929 . S
H844 C858 0.930 . S
H845 C860 0.960 . S
H846 C860 0.960 . S
H847 C860 0.960 . S
C848 H840 0.929 . S
C848 C849 1.377 . S
C848 C850 1.384 . S
C849 C848 1.377 . S
C849 C855 1.390 . S
C850 H841 0.930 . S
C850 C848 1.384 . S
C850 C851 1.372 . S
C851 C850 1.372 . S
C851 C852 1.400 . S
C851 C856 1.490 . S
C852 H842 0.930 . S
C852 C851 1.400 . S
C852 C855 1.386 . S
H853 C869 0.930 . S
H854 C870 0.931 . S
C855 H843 0.929 . S
C855 C849 1.390 . S
C855 C852 1.386 . S
C856 C851 1.490 . S
C856 C858 1.395 . S
C856 C859 1.403 . S
H857 C863 0.930 . S
C858 H844 0.930 . S
C858 C856 1.395 . S
C858 C861 1.403 . S
C859 C856 1.403 . S
C859 C860 1.524 . S
C859 C863 1.400 . S
C860 H845 0.960 . S
C860 H846 0.960 . S
C860 H847 0.960 . S
C860 C859 1.524 . S
C861 C858 1.403 . S
C861 C862 1.392 . S
C861 C865 1.495 . S
C862 C861 1.392 . S
C862 C863 1.385 . S
C862 C864 1.478 . S
C863 H857 0.930 . S
C863 C859 1.400 . S
C863 C862 1.385 . S
C864 C862 1.478 . S
C864 C866 1.381 . S
C864 C870 1.383 . S
C865 C861 1.495 . S
C865 H871 0.959 . S
C865 H872 0.961 . S
C865 H873 0.960 . S
C866 C864 1.381 . S
C866 C867 1.394 . S
C866 H874 0.930 . S
C867 C866 1.394 . S
C867 C868 1.383 . S
C867 H875 0.929 . S
C868 C867 1.383 . S
C868 C869 1.377 . S
C869 H853 0.930 . S
C869 C868 1.377 . S
C869 C870 1.379 . S
C870 H854 0.931 . S
C870 C864 1.383 . S
C870 C869 1.379 . S
H871 C865 0.959 . S
H872 C865 0.961 . S
H873 C865 0.960 . S
H874 C866 0.930 . S
H875 C867 0.929 . S
H876 C884 0.929 . S
H877 C886 0.930 . S
H878 C888 0.930 . S
H879 C891 0.929 . S
H880 C894 0.930 . S
H881 C896 0.960 . S
H882 C896 0.960 . S
H883 C896 0.960 . S
C884 H876 0.929 . S
C884 C885 1.377 . S
C884 C886 1.384 . S
C885 C884 1.377 . S
C885 C891 1.390 . S
C886 H877 0.930 . S
C886 C884 1.384 . S
C886 C887 1.372 . S
C887 C886 1.372 . S
C887 C888 1.400 . S
C887 C892 1.490 . S
C888 H878 0.930 . S
C888 C887 1.400 . S
C888 C891 1.386 . S
H889 C905 0.930 . S
H890 C906 0.931 . S
C891 H879 0.929 . S
C891 C885 1.390 . S
C891 C888 1.386 . S
C892 C887 1.490 . S
C892 C894 1.395 . S
C892 C895 1.403 . S
H893 C899 0.930 . S
C894 H880 0.930 . S
C894 C892 1.395 . S
C894 C897 1.403 . S
C895 C892 1.403 . S
C895 C896 1.524 . S
C895 C899 1.400 . S
C896 H881 0.960 . S
C896 H882 0.960 . S
C896 H883 0.960 . S
C896 C895 1.524 . S
C897 C894 1.403 . S
C897 C898 1.392 . S
C897 C901 1.495 . S
C898 C897 1.392 . S
C898 C899 1.385 . S
C898 C900 1.478 . S
C899 H893 0.930 . S
C899 C895 1.400 . S
C899 C898 1.385 . S
C900 C898 1.478 . S
C900 C902 1.381 . S
C900 C906 1.383 . S
C901 C897 1.495 . S
C901 H907 0.959 . S
C901 H908 0.961 . S
C901 H909 0.960 . S
C902 C900 1.381 . S
C902 C903 1.394 . S
C902 H910 0.930 . S
C903 C902 1.394 . S
C903 C904 1.383 . S
C903 H911 0.929 . S
C904 C903 1.383 . S
C904 C905 1.377 . S
C905 H889 0.930 . S
C905 C904 1.377 . S
C905 C906 1.379 . S
C906 H890 0.931 . S
C906 C900 1.383 . S
C906 C905 1.379 . S
H907 C901 0.959 . S
H908 C901 0.961 . S
H909 C901 0.960 . S
H910 C902 0.930 . S
H911 C903 0.929 . S
H912 C920 0.929 . S
H913 C922 0.930 . S
H914 C924 0.930 . S
H915 C927 0.929 . S
H916 C930 0.930 . S
H917 C932 0.960 . S
H918 C932 0.960 . S
H919 C932 0.960 . S
C920 H912 0.929 . S
C920 C921 1.377 . S
C920 C922 1.384 . S
C921 C920 1.377 . S
C921 C927 1.390 . S
C922 H913 0.930 . S
C922 C920 1.384 . S
C922 C923 1.372 . S
C923 C922 1.372 . S
C923 C924 1.400 . S
C923 C928 1.490 . S
C924 H914 0.930 . S
C924 C923 1.400 . S
C924 C927 1.386 . S
H925 C941 0.930 . S
H926 C942 0.931 . S
C927 H915 0.929 . S
C927 C921 1.390 . S
C927 C924 1.386 . S
C928 C923 1.490 . S
C928 C930 1.395 . S
C928 C931 1.403 . S
H929 C935 0.930 . S
C930 H916 0.930 . S
C930 C928 1.395 . S
C930 C933 1.403 . S
C931 C928 1.403 . S
C931 C932 1.524 . S
C931 C935 1.400 . S
C932 H917 0.960 . S
C932 H918 0.960 . S
C932 H919 0.960 . S
C932 C931 1.524 . S
C933 C930 1.403 . S
C933 C934 1.392 . S
C933 C937 1.495 . S
C934 C933 1.392 . S
C934 C935 1.385 . S
C934 C936 1.478 . S
C935 H929 0.930 . S
C935 C931 1.400 . S
C935 C934 1.385 . S
C936 C934 1.478 . S
C936 C938 1.381 . S
C936 C942 1.383 . S
C937 C933 1.495 . S
C937 H943 0.959 . S
C937 H944 0.961 . S
C937 H945 0.960 . S
C938 C936 1.381 . S
C938 C939 1.394 . S
C938 H946 0.930 . S
C939 C938 1.394 . S
C939 C940 1.383 . S
C939 H947 0.929 . S
C940 C939 1.383 . S
C940 C941 1.377 . S
C941 H925 0.930 . S
C941 C940 1.377 . S
C941 C942 1.379 . S
C942 H926 0.931 . S
C942 C936 1.383 . S
C942 C941 1.379 . S
H943 C937 0.959 . S
H944 C937 0.961 . S
H945 C937 0.960 . S
H946 C938 0.930 . S
H947 C939 0.929 . S
H948 C956 0.929 . S
H949 C958 0.930 . S
H950 C960 0.930 . S
H951 C963 0.929 . S
H952 C966 0.930 . S
H953 C968 0.960 . S
H954 C968 0.960 . S
H955 C968 0.960 . S
C956 H948 0.929 . S
C956 C957 1.377 . S
C956 C958 1.384 . S
C957 C956 1.377 . S
C957 C963 1.390 . S
C958 H949 0.930 . S
C958 C956 1.384 . S
C958 C959 1.372 . S
C959 C958 1.372 . S
C959 C960 1.400 . S
C959 C964 1.490 . S
C960 H950 0.930 . S
C960 C959 1.400 . S
C960 C963 1.386 . S
H961 C977 0.930 . S
H962 C978 0.931 . S
C963 H951 0.929 . S
C963 C957 1.390 . S
C963 C960 1.386 . S
C964 C959 1.490 . S
C964 C966 1.395 . S
C964 C967 1.403 . S
H965 C971 0.930 . S
C966 H952 0.930 . S
C966 C964 1.395 . S
C966 C969 1.403 . S
C967 C964 1.403 . S
C967 C968 1.524 . S
C967 C971 1.400 . S
C968 H953 0.960 . S
C968 H954 0.960 . S
C968 H955 0.960 . S
C968 C967 1.524 . S
C969 C966 1.403 . S
C969 C970 1.392 . S
C969 C973 1.495 . S
C970 C969 1.392 . S
C970 C971 1.385 . S
C970 C972 1.478 . S
C971 H965 0.930 . S
C971 C967 1.400 . S
C971 C970 1.385 . S
C972 C970 1.478 . S
C972 C974 1.381 . S
C972 C978 1.383 . S
C973 C969 1.495 . S
C973 H979 0.959 . S
C973 H980 0.961 . S
C973 H981 0.960 . S
C974 C972 1.381 . S
C974 C975 1.394 . S
C974 H982 0.930 . S
C975 C974 1.394 . S
C975 C976 1.383 . S
C975 H983 0.929 . S
C976 C975 1.383 . S
C976 C977 1.377 . S
C977 H961 0.930 . S
C977 C976 1.377 . S
C977 C978 1.379 . S
C978 H962 0.931 . S
C978 C972 1.383 . S
C978 C977 1.379 . S
H979 C973 0.959 . S
H980 C973 0.961 . S
H981 C973 0.960 . S
H982 C974 0.930 . S
H983 C975 0.929 . S
H984 C992 0.929 . S
H985 C994 0.930 . S
H986 C996 0.930 . S
H987 C999 0.929 . S
H988 C1002 0.930 . S
H989 C1004 0.960 . S
H990 C1004 0.960 . S
H991 C1004 0.960 . S
C992 H984 0.929 . S
C992 C993 1.377 . S
C992 C994 1.384 . S
C993 C992 1.377 . S
C993 C999 1.390 . S
C994 H985 0.930 . S
C994 C992 1.384 . S
C994 C995 1.372 . S
C995 C994 1.372 . S
C995 C996 1.400 . S
C995 C1000 1.490 . S
C996 H986 0.930 . S
C996 C995 1.400 . S
C996 C999 1.386 . S
H997 C1013 0.930 . S
H998 C1014 0.931 . S
C999 H987 0.929 . S
C999 C993 1.390 . S
C999 C996 1.386 . S
C1000 C995 1.490 . S
C1000 C1002 1.395 . S
C1000 C1003 1.403 . S
H1001 C1007 0.930 . S
C1002 H988 0.930 . S
C1002 C1000 1.395 . S
C1002 C1005 1.403 . S
C1003 C1000 1.403 . S
C1003 C1004 1.524 . S
C1003 C1007 1.400 . S
C1004 H989 0.960 . S
C1004 H990 0.960 . S
C1004 H991 0.960 . S
C1004 C1003 1.524 . S
C1005 C1002 1.403 . S
C1005 C1006 1.392 . S
C1005 C1009 1.495 . S
C1006 C1005 1.392 . S
C1006 C1007 1.385 . S
C1006 C1008 1.478 . S
C1007 H1001 0.930 . S
C1007 C1003 1.400 . S
C1007 C1006 1.385 . S
C1008 C1006 1.478 . S
C1008 C1010 1.381 . S
C1008 C1014 1.383 . S
C1009 C1005 1.495 . S
C1009 H1015 0.959 . S
C1009 H1016 0.961 . S
C1009 H1017 0.960 . S
C1010 C1008 1.381 . S
C1010 C1011 1.394 . S
C1010 H1018 0.930 . S
C1011 C1010 1.394 . S
C1011 C1012 1.383 . S
C1011 H1019 0.929 . S
C1012 C1011 1.383 . S
C1012 C1013 1.377 . S
C1013 H997 0.930 . S
C1013 C1012 1.377 . S
C1013 C1014 1.379 . S
C1014 H998 0.931 . S
C1014 C1008 1.383 . S
C1014 C1013 1.379 . S
H1015 C1009 0.959 . S
H1016 C1009 0.961 . S
H1017 C1009 0.960 . S
H1018 C1010 0.930 . S
H1019 C1011 0.929 . S
H1020 C1028 0.929 . S
H1021 C1030 0.930 . S
H1022 C1032 0.930 . S
H1023 C1035 0.929 . S
H1024 C1038 0.930 . S
H1025 C1040 0.960 . S
H1026 C1040 0.960 . S
H1027 C1040 0.960 . S
C1028 H1020 0.929 . S
C1028 C1029 1.377 . S
C1028 C1030 1.384 . S
C1029 C1028 1.377 . S
C1029 C1035 1.390 . S
C1030 H1021 0.930 . S
C1030 C1028 1.384 . S
C1030 C1031 1.372 . S
C1031 C1030 1.372 . S
C1031 C1032 1.400 . S
C1031 C1036 1.490 . S
C1032 H1022 0.930 . S
C1032 C1031 1.400 . S
C1032 C1035 1.386 . S
H1033 C1049 0.930 . S
H1034 C1050 0.931 . S
C1035 H1023 0.929 . S
C1035 C1029 1.390 . S
C1035 C1032 1.386 . S
C1036 C1031 1.490 . S
C1036 C1038 1.395 . S
C1036 C1039 1.403 . S
H1037 C1043 0.930 . S
C1038 H1024 0.930 . S
C1038 C1036 1.395 . S
C1038 C1041 1.403 . S
C1039 C1036 1.403 . S
C1039 C1040 1.524 . S
C1039 C1043 1.400 . S
C1040 H1025 0.960 . S
C1040 H1026 0.960 . S
C1040 H1027 0.960 . S
C1040 C1039 1.524 . S
C1041 C1038 1.403 . S
C1041 C1042 1.392 . S
C1041 C1045 1.495 . S
C1042 C1041 1.392 . S
C1042 C1043 1.385 . S
C1042 C1044 1.478 . S
C1043 H1037 0.930 . S
C1043 C1039 1.400 . S
C1043 C1042 1.385 . S
C1044 C1042 1.478 . S
C1044 C1046 1.381 . S
C1044 C1050 1.383 . S
C1045 C1041 1.495 . S
C1045 H1051 0.959 . S
C1045 H1052 0.961 . S
C1045 H1053 0.960 . S
C1046 C1044 1.381 . S
C1046 C1047 1.394 . S
C1046 H1054 0.930 . S
C1047 C1046 1.394 . S
C1047 C1048 1.383 . S
C1047 H1055 0.929 . S
C1048 C1047 1.383 . S
C1048 C1049 1.377 . S
C1049 H1033 0.930 . S
C1049 C1048 1.377 . S
C1049 C1050 1.379 . S
C1050 H1034 0.931 . S
C1050 C1044 1.383 . S
C1050 C1049 1.379 . S
H1051 C1045 0.959 . S
H1052 C1045 0.961 . S
H1053 C1045 0.960 . S
H1054 C1046 0.930 . S
H1055 C1047 0.929 . S
H1056 C1064 0.929 . S
H1057 C1066 0.930 . S
H1058 C1068 0.930 . S
H1059 C1071 0.929 . S
H1060 C1074 0.930 . S
H1061 C1076 0.960 . S
H1062 C1076 0.960 . S
H1063 C1076 0.960 . S
C1064 H1056 0.929 . S
C1064 C1065 1.377 . S
C1064 C1066 1.384 . S
C1065 C1064 1.377 . S
C1065 C1071 1.390 . S
C1066 H1057 0.930 . S
C1066 C1064 1.384 . S
C1066 C1067 1.372 . S
C1067 C1066 1.372 . S
C1067 C1068 1.400 . S
C1067 C1072 1.490 . S
C1068 H1058 0.930 . S
C1068 C1067 1.400 . S
C1068 C1071 1.386 . S
H1069 C1085 0.930 . S
H1070 C1086 0.931 . S
C1071 H1059 0.929 . S
C1071 C1065 1.390 . S
C1071 C1068 1.386 . S
C1072 C1067 1.490 . S
C1072 C1074 1.395 . S
C1072 C1075 1.403 . S
H1073 C1079 0.930 . S
C1074 H1060 0.930 . S
C1074 C1072 1.395 . S
C1074 C1077 1.403 . S
C1075 C1072 1.403 . S
C1075 C1076 1.524 . S
C1075 C1079 1.400 . S
C1076 H1061 0.960 . S
C1076 H1062 0.960 . S
C1076 H1063 0.960 . S
C1076 C1075 1.524 . S
C1077 C1074 1.403 . S
C1077 C1078 1.392 . S
C1077 C1081 1.495 . S
C1078 C1077 1.392 . S
C1078 C1079 1.385 . S
C1078 C1080 1.478 . S
C1079 H1073 0.930 . S
C1079 C1075 1.400 . S
C1079 C1078 1.385 . S
C1080 C1078 1.478 . S
C1080 C1082 1.381 . S
C1080 C1086 1.383 . S
C1081 C1077 1.495 . S
C1081 H1087 0.959 . S
C1081 H1088 0.961 . S
C1081 H1089 0.960 . S
C1082 C1080 1.381 . S
C1082 C1083 1.394 . S
C1082 H1090 0.930 . S
C1083 C1082 1.394 . S
C1083 C1084 1.383 . S
C1083 H1091 0.929 . S
C1084 C1083 1.383 . S
C1084 C1085 1.377 . S
C1085 H1069 0.930 . S
C1085 C1084 1.377 . S
C1085 C1086 1.379 . S
C1086 H1070 0.931 . S
C1086 C1080 1.383 . S
C1086 C1085 1.379 . S
H1087 C1081 0.959 . S
H1088 C1081 0.961 . S
H1089 C1081 0.960 . S
H1090 C1082 0.930 . S
H1091 C1083 0.929 . S
H1092 C1100 0.929 . S
H1093 C1102 0.930 . S
H1094 C1104 0.930 . S
H1095 C1107 0.929 . S
H1096 C1110 0.930 . S
H1097 C1112 0.960 . S
H1098 C1112 0.960 . S
H1099 C1112 0.960 . S
C1100 H1092 0.929 . S
C1100 C1101 1.377 . S
C1100 C1102 1.384 . S
C1101 C1100 1.377 . S
C1101 C1107 1.390 . S
C1102 H1093 0.930 . S
C1102 C1100 1.384 . S
C1102 C1103 1.372 . S
C1103 C1102 1.372 . S
C1103 C1104 1.400 . S
C1103 C1108 1.490 . S
C1104 H1094 0.930 . S
C1104 C1103 1.400 . S
C1104 C1107 1.386 . S
H1105 C1121 0.930 . S
H1106 C1122 0.931 . S
C1107 H1095 0.929 . S
C1107 C1101 1.390 . S
C1107 C1104 1.386 . S
C1108 C1103 1.490 . S
C1108 C1110 1.395 . S
C1108 C1111 1.403 . S
H1109 C1115 0.930 . S
C1110 H1096 0.930 . S
C1110 C1108 1.395 . S
C1110 C1113 1.403 . S
C1111 C1108 1.403 . S
C1111 C1112 1.524 . S
C1111 C1115 1.400 . S
C1112 H1097 0.960 . S
C1112 H1098 0.960 . S
C1112 H1099 0.960 . S
C1112 C1111 1.524 . S
C1113 C1110 1.403 . S
C1113 C1114 1.392 . S
C1113 C1117 1.495 . S
C1114 C1113 1.392 . S
C1114 C1115 1.385 . S
C1114 C1116 1.478 . S
C1115 H1109 0.930 . S
C1115 C1111 1.400 . S
C1115 C1114 1.385 . S
C1116 C1114 1.478 . S
C1116 C1118 1.381 . S
C1116 C1122 1.383 . S
C1117 C1113 1.495 . S
C1117 H1123 0.959 . S
C1117 H1124 0.961 . S
C1117 H1125 0.960 . S
C1118 C1116 1.381 . S
C1118 C1119 1.394 . S
C1118 H1126 0.930 . S
C1119 C1118 1.394 . S
C1119 C1120 1.383 . S
C1119 H1127 0.929 . S
C1120 C1119 1.383 . S
C1120 C1121 1.377 . S
C1121 H1105 0.930 . S
C1121 C1120 1.377 . S
C1121 C1122 1.379 . S
C1122 H1106 0.931 . S
C1122 C1116 1.383 . S
C1122 C1121 1.379 . S
H1123 C1117 0.959 . S
H1124 C1117 0.961 . S
H1125 C1117 0.960 . S
H1126 C1118 0.930 . S
H1127 C1119 0.929 . S
H1128 C1136 0.929 . S
H1129 C1138 0.930 . S
H1130 C1140 0.930 . S
H1131 C1143 0.929 . S
H1132 C1146 0.930 . S
H1133 C1148 0.960 . S
H1134 C1148 0.960 . S
H1135 C1148 0.960 . S
C1136 H1128 0.929 . S
C1136 C1137 1.377 . S
C1136 C1138 1.384 . S
C1137 C1136 1.377 . S
C1137 C1143 1.390 . S
C1138 H1129 0.930 . S
C1138 C1136 1.384 . S
C1138 C1139 1.372 . S
C1139 C1138 1.372 . S
C1139 C1140 1.400 . S
C1139 C1144 1.490 . S
C1140 H1130 0.930 . S
C1140 C1139 1.400 . S
C1140 C1143 1.386 . S
H1141 C1157 0.930 . S
H1142 C1158 0.931 . S
C1143 H1131 0.929 . S
C1143 C1137 1.390 . S
C1143 C1140 1.386 . S
C1144 C1139 1.490 . S
C1144 C1146 1.395 . S
C1144 C1147 1.403 . S
H1145 C1151 0.930 . S
C1146 H1132 0.930 . S
C1146 C1144 1.395 . S
C1146 C1149 1.403 . S
C1147 C1144 1.403 . S
C1147 C1148 1.524 . S
C1147 C1151 1.400 . S
C1148 H1133 0.960 . S
C1148 H1134 0.960 . S
C1148 H1135 0.960 . S
C1148 C1147 1.524 . S
C1149 C1146 1.403 . S
C1149 C1150 1.392 . S
C1149 C1153 1.495 . S
C1150 C1149 1.392 . S
C1150 C1151 1.385 . S
C1150 C1152 1.478 . S
C1151 H1145 0.930 . S
C1151 C1147 1.400 . S
C1151 C1150 1.385 . S
C1152 C1150 1.478 . S
C1152 C1154 1.381 . S
C1152 C1158 1.383 . S
C1153 C1149 1.495 . S
C1153 H1159 0.959 . S
C1153 H1160 0.961 . S
C1153 H1161 0.960 . S
C1154 C1152 1.381 . S
C1154 C1155 1.394 . S
C1154 H1162 0.930 . S
C1155 C1154 1.394 . S
C1155 C1156 1.383 . S
C1155 H1163 0.929 . S
C1156 C1155 1.383 . S
C1156 C1157 1.377 . S
C1157 H1141 0.930 . S
C1157 C1156 1.377 . S
C1157 C1158 1.379 . S
C1158 H1142 0.931 . S
C1158 C1152 1.383 . S
C1158 C1157 1.379 . S
H1159 C1153 0.959 . S
H1160 C1153 0.961 . S
H1161 C1153 0.960 . S
H1162 C1154 0.930 . S
H1163 C1155 0.929 . S
H1164 C1172 0.929 . S
H1165 C1174 0.930 . S
H1166 C1176 0.930 . S
H1167 C1179 0.929 . S
H1168 C1182 0.930 . S
H1169 C1184 0.960 . S
H1170 C1184 0.960 . S
H1171 C1184 0.960 . S
C1172 H1164 0.929 . S
C1172 C1173 1.377 . S
C1172 C1174 1.384 . S
C1173 C1172 1.377 . S
C1173 C1179 1.390 . S
C1174 H1165 0.930 . S
C1174 C1172 1.384 . S
C1174 C1175 1.372 . S
C1175 C1174 1.372 . S
C1175 C1176 1.400 . S
C1175 C1180 1.490 . S
C1176 H1166 0.930 . S
C1176 C1175 1.400 . S
C1176 C1179 1.386 . S
H1177 C1193 0.930 . S
H1178 C1194 0.931 . S
C1179 H1167 0.929 . S
C1179 C1173 1.390 . S
C1179 C1176 1.386 . S
C1180 C1175 1.490 . S
C1180 C1182 1.395 . S
C1180 C1183 1.403 . S
H1181 C1187 0.930 . S
C1182 H1168 0.930 . S
C1182 C1180 1.395 . S
C1182 C1185 1.403 . S
C1183 C1180 1.403 . S
C1183 C1184 1.524 . S
C1183 C1187 1.400 . S
C1184 H1169 0.960 . S
C1184 H1170 0.960 . S
C1184 H1171 0.960 . S
C1184 C1183 1.524 . S
C1185 C1182 1.403 . S
C1185 C1186 1.392 . S
C1185 C1189 1.495 . S
C1186 C1185 1.392 . S
C1186 C1187 1.385 . S
C1186 C1188 1.478 . S
C1187 H1181 0.930 . S
C1187 C1183 1.400 . S
C1187 C1186 1.385 . S
C1188 C1186 1.478 . S
C1188 C1190 1.381 . S
C1188 C1194 1.383 . S
C1189 C1185 1.495 . S
C1189 H1195 0.959 . S
C1189 H1196 0.961 . S
C1189 H1197 0.960 . S
C1190 C1188 1.381 . S
C1190 C1191 1.394 . S
C1190 H1198 0.930 . S
C1191 C1190 1.394 . S
C1191 C1192 1.383 . S
C1191 H1199 0.929 . S
C1192 C1191 1.383 . S
C1192 C1193 1.377 . S
C1193 H1177 0.930 . S
C1193 C1192 1.377 . S
C1193 C1194 1.379 . S
C1194 H1178 0.931 . S
C1194 C1188 1.383 . S
C1194 C1193 1.379 . S
H1195 C1189 0.959 . S
H1196 C1189 0.961 . S
H1197 C1189 0.960 . S
H1198 C1190 0.930 . S
H1199 C1191 0.929 . S
H1200 C1208 0.929 . S
H1201 C1210 0.930 . S
H1202 C1212 0.930 . S
H1203 C1215 0.929 . S
H1204 C1218 0.930 . S
H1205 C1220 0.960 . S
H1206 C1220 0.960 . S
H1207 C1220 0.960 . S
C1208 H1200 0.929 . S
C1208 C1209 1.377 . S
C1208 C1210 1.384 . S
C1209 C1208 1.377 . S
C1209 C1215 1.390 . S
C1210 H1201 0.930 . S
C1210 C1208 1.384 . S
C1210 C1211 1.372 . S
C1211 C1210 1.372 . S
C1211 C1212 1.400 . S
C1211 C1216 1.490 . S
C1212 H1202 0.930 . S
C1212 C1211 1.400 . S
C1212 C1215 1.386 . S
H1213 C1229 0.930 . S
H1214 C1230 0.931 . S
C1215 H1203 0.929 . S
C1215 C1209 1.390 . S
C1215 C1212 1.386 . S
C1216 C1211 1.490 . S
C1216 C1218 1.395 . S
C1216 C1219 1.403 . S
H1217 C1223 0.930 . S
C1218 H1204 0.930 . S
C1218 C1216 1.395 . S
C1218 C1221 1.403 1_455 S
C1219 C1216 1.403 . S
C1219 C1220 1.524 . S
C1219 C1223 1.400 1_455 S
C1220 H1205 0.960 . S
C1220 H1206 0.960 . S
C1220 H1207 0.960 . S
C1220 C1219 1.524 . S
C1221 C1218 1.403 1_655 S
C1221 C1222 1.392 . S
C1221 C1225 1.495 . S
C1222 C1221 1.392 . S
C1222 C1223 1.385 . S
C1222 C1224 1.478 . S
C1223 H1217 0.930 . S
C1223 C1219 1.400 1_655 S
C1223 C1222 1.385 . S
C1224 C1222 1.478 . S
C1224 C1226 1.381 . S
C1224 C1230 1.383 . S
C1225 C1221 1.495 . S
C1225 H1231 0.959 . S
C1225 H1232 0.961 . S
C1225 H1233 0.960 . S
C1226 C1224 1.381 . S
C1226 C1227 1.394 . S
C1226 H1234 0.930 . S
C1227 C1226 1.394 . S
C1227 C1228 1.383 . S
C1227 H1235 0.929 . S
C1228 C1227 1.383 . S
C1228 C1229 1.377 . S
C1229 H1213 0.930 . S
C1229 C1228 1.377 . S
C1229 C1230 1.379 . S
C1230 H1214 0.931 . S
C1230 C1224 1.383 . S
C1230 C1229 1.379 . S
H1231 C1225 0.959 . S
H1232 C1225 0.961 . S
H1233 C1225 0.960 . S
H1234 C1226 0.930 . S
H1235 C1227 0.929 . S
H1236 C1244 0.929 . S
H1237 C1246 0.930 . S
H1238 C1248 0.930 . S
H1239 C1251 0.929 . S
H1240 C1254 0.930 . S
H1241 C1256 0.960 . S
H1242 C1256 0.960 . S
H1243 C1256 0.960 . S
C1244 H1236 0.929 . S
C1244 C1245 1.377 . S
C1244 C1246 1.384 . S
C1245 C1244 1.377 . S
C1245 C1251 1.390 . S
C1246 H1237 0.930 . S
C1246 C1244 1.384 . S
C1246 C1247 1.372 . S
C1247 C1246 1.372 . S
C1247 C1248 1.400 . S
C1247 C1252 1.490 . S
C1248 H1238 0.930 . S
C1248 C1247 1.400 . S
C1248 C1251 1.386 . S
H1249 C1265 0.930 . S
H1250 C1266 0.931 . S
C1251 H1239 0.929 . S
C1251 C1245 1.390 . S
C1251 C1248 1.386 . S
C1252 C1247 1.490 . S
C1252 C1254 1.395 . S
C1252 C1255 1.403 . S
H1253 C1259 0.930 . S
C1254 H1240 0.930 . S
C1254 C1252 1.395 . S
C1254 C1257 1.403 1_545 S
C1255 C1252 1.403 . S
C1255 C1256 1.524 . S
C1255 C1259 1.400 1_545 S
C1256 H1241 0.960 . S
C1256 H1242 0.960 . S
C1256 H1243 0.960 . S
C1256 C1255 1.524 . S
C1257 C1254 1.403 1_565 S
C1257 C1258 1.392 . S
C1257 C1261 1.495 . S
C1258 C1257 1.392 . S
C1258 C1259 1.385 . S
C1258 C1260 1.478 . S
C1259 H1253 0.930 . S
C1259 C1255 1.400 1_565 S
C1259 C1258 1.385 . S
C1260 C1258 1.478 . S
C1260 C1262 1.381 . S
C1260 C1266 1.383 . S
C1261 C1257 1.495 . S
C1261 H1267 0.959 . S
C1261 H1268 0.961 . S
C1261 H1269 0.960 . S
C1262 C1260 1.381 . S
C1262 C1263 1.394 . S
C1262 H1270 0.930 . S
C1263 C1262 1.394 . S
C1263 C1264 1.383 . S
C1263 H1271 0.929 . S
C1264 C1263 1.383 . S
C1264 C1265 1.377 . S
C1265 H1249 0.930 . S
C1265 C1264 1.377 . S
C1265 C1266 1.379 . S
C1266 H1250 0.931 . S
C1266 C1260 1.383 . S
C1266 C1265 1.379 . S
H1267 C1261 0.959 . S
H1268 C1261 0.961 . S
H1269 C1261 0.960 . S
H1270 C1262 0.930 . S
H1271 C1263 0.929 . S
H1272 C1280 0.929 . S
H1273 C1282 0.930 . S
H1274 C1284 0.930 . S
H1275 C1287 0.929 . S
H1276 C1290 0.930 . S
H1277 C1292 0.960 . S
H1278 C1292 0.960 . S
H1279 C1292 0.960 . S
C1280 H1272 0.929 . S
C1280 C1281 1.377 . S
C1280 C1282 1.384 . S
C1281 C1280 1.377 . S
C1281 C1287 1.390 . S
C1282 H1273 0.930 . S
C1282 C1280 1.384 . S
C1282 C1283 1.372 . S
C1283 C1282 1.372 . S
C1283 C1284 1.400 . S
C1283 C1288 1.490 . S
C1284 H1274 0.930 . S
C1284 C1283 1.400 . S
C1284 C1287 1.386 . S
H1285 C1301 0.930 . S
H1286 C1302 0.931 . S
C1287 H1275 0.929 . S
C1287 C1281 1.390 . S
C1287 C1284 1.386 . S
C1288 C1283 1.490 . S
C1288 C1290 1.395 . S
C1288 C1291 1.403 . S
H1289 C1295 0.930 . S
C1290 H1276 0.930 . S
C1290 C1288 1.395 . S
C1290 C1293 1.403 1_655 S
C1291 C1288 1.403 . S
C1291 C1292 1.524 . S
C1291 C1295 1.400 1_655 S
C1292 H1277 0.960 . S
C1292 H1278 0.960 . S
C1292 H1279 0.960 . S
C1292 C1291 1.524 . S
C1293 C1290 1.403 1_455 S
C1293 C1294 1.392 . S
C1293 C1297 1.495 . S
C1294 C1293 1.392 . S
C1294 C1295 1.385 . S
C1294 C1296 1.478 . S
C1295 H1289 0.930 . S
C1295 C1291 1.400 1_455 S
C1295 C1294 1.385 . S
C1296 C1294 1.478 . S
C1296 C1298 1.381 . S
C1296 C1302 1.383 . S
C1297 C1293 1.495 . S
C1297 H1303 0.959 . S
C1297 H1304 0.961 . S
C1297 H1305 0.960 . S
C1298 C1296 1.381 . S
C1298 C1299 1.394 . S
C1298 H1306 0.930 . S
C1299 C1298 1.394 . S
C1299 C1300 1.383 . S
C1299 H1307 0.929 . S
C1300 C1299 1.383 . S
C1300 C1301 1.377 . S
C1301 H1285 0.930 . S
C1301 C1300 1.377 . S
C1301 C1302 1.379 . S
C1302 H1286 0.931 . S
C1302 C1296 1.383 . S
C1302 C1301 1.379 . S
H1303 C1297 0.959 . S
H1304 C1297 0.961 . S
H1305 C1297 0.960 . S
H1306 C1298 0.930 . S
H1307 C1299 0.929 . S
H1308 C1316 0.929 . S
H1309 C1318 0.930 . S
H1310 C1320 0.930 . S
H1311 C1323 0.929 . S
H1312 C1326 0.930 . S
H1313 C1328 0.960 . S
H1314 C1328 0.960 . S
H1315 C1328 0.960 . S
C1316 H1308 0.929 . S
C1316 C1317 1.377 . S
C1316 C1318 1.384 . S
C1317 C1316 1.377 . S
C1317 C1323 1.390 . S
C1318 H1309 0.930 . S
C1318 C1316 1.384 . S
C1318 C1319 1.372 . S
C1319 C1318 1.372 . S
C1319 C1320 1.400 . S
C1319 C1324 1.490 . S
C1320 H1310 0.930 . S
C1320 C1319 1.400 . S
C1320 C1323 1.386 . S
H1321 C1337 0.930 . S
H1322 C1338 0.931 . S
C1323 H1311 0.929 . S
C1323 C1317 1.390 . S
C1323 C1320 1.386 . S
C1324 C1319 1.490 . S
C1324 C1326 1.395 . S
C1324 C1327 1.403 . S
H1325 C1331 0.930 . S
C1326 H1312 0.930 . S
C1326 C1324 1.395 . S
C1326 C1329 1.403 1_545 S
C1327 C1324 1.403 . S
C1327 C1328 1.524 . S
C1327 C1331 1.400 1_545 S
C1328 H1313 0.960 . S
C1328 H1314 0.960 . S
C1328 H1315 0.960 . S
C1328 C1327 1.524 . S
C1329 C1326 1.403 1_565 S
C1329 C1330 1.392 . S
C1329 C1333 1.495 . S
C1330 C1329 1.392 . S
C1330 C1331 1.385 . S
C1330 C1332 1.478 . S
C1331 H1325 0.930 . S
C1331 C1327 1.400 1_565 S
C1331 C1330 1.385 . S
C1332 C1330 1.478 . S
C1332 C1334 1.381 . S
C1332 C1338 1.383 . S
C1333 C1329 1.495 . S
C1333 H1339 0.959 . S
C1333 H1340 0.961 . S
C1333 H1341 0.960 . S
C1334 C1332 1.381 . S
C1334 C1335 1.394 . S
C1334 H1342 0.930 . S
C1335 C1334 1.394 . S
C1335 C1336 1.383 . S
C1335 H1343 0.929 . S
C1336 C1335 1.383 . S
C1336 C1337 1.377 . S
C1337 H1321 0.930 . S
C1337 C1336 1.377 . S
C1337 C1338 1.379 . S
C1338 H1322 0.931 . S
C1338 C1332 1.383 . S
C1338 C1337 1.379 . S
H1339 C1333 0.959 . S
H1340 C1333 0.961 . S
H1341 C1333 0.960 . S
H1342 C1334 0.930 . S
H1343 C1335 0.929 . S
H1344 C1352 0.929 . S
H1345 C1354 0.930 . S
H1346 C1356 0.930 . S
H1347 C1359 0.929 . S
H1348 C1362 0.930 . S
H1349 C1364 0.960 . S
H1350 C1364 0.960 . S
H1351 C1364 0.960 . S
C1352 H1344 0.929 . S
C1352 C1353 1.377 . S
C1352 C1354 1.384 . S
C1353 C1352 1.377 . S
C1353 C1359 1.390 . S
C1354 H1345 0.930 . S
C1354 C1352 1.384 . S
C1354 C1355 1.372 . S
C1355 C1354 1.372 . S
C1355 C1356 1.400 . S
C1355 C1360 1.490 . S
C1356 H1346 0.930 . S
C1356 C1355 1.400 . S
C1356 C1359 1.386 . S
H1357 C1373 0.930 . S
H1358 C1374 0.931 . S
C1359 H1347 0.929 . S
C1359 C1353 1.390 . S
C1359 C1356 1.386 . S
C1360 C1355 1.490 . S
C1360 C1362 1.395 . S
C1360 C1363 1.403 . S
H1361 C1367 0.930 . S
C1362 H1348 0.930 . S
C1362 C1360 1.395 . S
C1362 C1365 1.403 1_565 S
C1363 C1360 1.403 . S
C1363 C1364 1.524 . S
C1363 C1367 1.400 1_565 S
C1364 H1349 0.960 . S
C1364 H1350 0.960 . S
C1364 H1351 0.960 . S
C1364 C1363 1.524 . S
C1365 C1362 1.403 1_545 S
C1365 C1366 1.392 . S
C1365 C1369 1.495 . S
C1366 C1365 1.392 . S
C1366 C1367 1.385 . S
C1366 C1368 1.478 . S
C1367 H1361 0.930 . S
C1367 C1363 1.400 1_545 S
C1367 C1366 1.385 . S
C1368 C1366 1.478 . S
C1368 C1370 1.381 . S
C1368 C1374 1.383 . S
C1369 C1365 1.495 . S
C1369 H1375 0.959 . S
C1369 H1376 0.961 . S
C1369 H1377 0.960 . S
C1370 C1368 1.381 . S
C1370 C1371 1.394 . S
C1370 H1378 0.930 . S
C1371 C1370 1.394 . S
C1371 C1372 1.383 . S
C1371 H1379 0.929 . S
C1372 C1371 1.383 . S
C1372 C1373 1.377 . S
C1373 H1357 0.930 . S
C1373 C1372 1.377 . S
C1373 C1374 1.379 . S
C1374 H1358 0.931 . S
C1374 C1368 1.383 . S
C1374 C1373 1.379 . S
H1375 C1369 0.959 . S
H1376 C1369 0.961 . S
H1377 C1369 0.960 . S
H1378 C1370 0.930 . S
H1379 C1371 0.929 . S
H1380 C1388 0.929 . S
H1381 C1390 0.930 . S
H1382 C1392 0.930 . S
H1383 C1395 0.929 . S
H1384 C1398 0.930 . S
H1385 C1400 0.960 . S
H1386 C1400 0.960 . S
H1387 C1400 0.960 . S
C1388 H1380 0.929 . S
C1388 C1389 1.377 . S
C1388 C1390 1.384 . S
C1389 C1388 1.377 . S
C1389 C1395 1.390 . S
C1390 H1381 0.930 . S
C1390 C1388 1.384 . S
C1390 C1391 1.372 . S
C1391 C1390 1.372 . S
C1391 C1392 1.400 . S
C1391 C1396 1.490 . S
C1392 H1382 0.930 . S
C1392 C1391 1.400 . S
C1392 C1395 1.386 . S
H1393 C1409 0.930 . S
H1394 C1410 0.931 . S
C1395 H1383 0.929 . S
C1395 C1389 1.390 . S
C1395 C1392 1.386 . S
C1396 C1391 1.490 . S
C1396 C1398 1.395 . S
C1396 C1399 1.403 . S
H1397 C1403 0.930 . S
C1398 H1384 0.930 . S
C1398 C1396 1.395 . S
C1398 C1401 1.403 1_655 S
C1399 C1396 1.403 . S
C1399 C1400 1.524 . S
C1399 C1403 1.400 1_655 S
C1400 H1385 0.960 . S
C1400 H1386 0.960 . S
C1400 H1387 0.960 . S
C1400 C1399 1.524 . S
C1401 C1398 1.403 1_455 S
C1401 C1402 1.392 . S
C1401 C1405 1.495 . S
C1402 C1401 1.392 . S
C1402 C1403 1.385 . S
C1402 C1404 1.478 . S
C1403 H1397 0.930 . S
C1403 C1399 1.400 1_455 S
C1403 C1402 1.385 . S
C1404 C1402 1.478 . S
C1404 C1406 1.381 . S
C1404 C1410 1.383 . S
C1405 C1401 1.495 . S
C1405 H1411 0.959 . S
C1405 H1412 0.961 . S
C1405 H1413 0.960 . S
C1406 C1404 1.381 . S
C1406 C1407 1.394 . S
C1406 H1414 0.930 . S
C1407 C1406 1.394 . S
C1407 C1408 1.383 . S
C1407 H1415 0.929 . S
C1408 C1407 1.383 . S
C1408 C1409 1.377 . S
C1409 H1393 0.930 . S
C1409 C1408 1.377 . S
C1409 C1410 1.379 . S
C1410 H1394 0.931 . S
C1410 C1404 1.383 . S
C1410 C1409 1.379 . S
H1411 C1405 0.959 . S
H1412 C1405 0.961 . S
H1413 C1405 0.960 . S
H1414 C1406 0.930 . S
H1415 C1407 0.929 . S
H1416 C1424 0.929 . S
H1417 C1426 0.930 . S
H1418 C1428 0.930 . S
H1419 C1431 0.929 . S
H1420 C1434 0.930 . S
H1421 C1436 0.960 . S
H1422 C1436 0.960 . S
H1423 C1436 0.960 . S
C1424 H1416 0.929 . S
C1424 C1425 1.377 . S
C1424 C1426 1.384 . S
C1425 C1424 1.377 . S
C1425 C1431 1.390 . S
C1426 H1417 0.930 . S
C1426 C1424 1.384 . S
C1426 C1427 1.372 . S
C1427 C1426 1.372 . S
C1427 C1428 1.400 . S
C1427 C1432 1.490 . S
C1428 H1418 0.930 . S
C1428 C1427 1.400 . S
C1428 C1431 1.386 . S
H1429 C1445 0.930 . S
H1430 C1446 0.931 . S
C1431 H1419 0.929 . S
C1431 C1425 1.390 . S
C1431 C1428 1.386 . S
C1432 C1427 1.490 . S
C1432 C1434 1.395 . S
C1432 C1435 1.403 . S
H1433 C1439 0.930 . S
C1434 H1420 0.930 . S
C1434 C1432 1.395 . S
C1434 C1437 1.403 1_565 S
C1435 C1432 1.403 . S
C1435 C1436 1.524 . S
C1435 C1439 1.400 1_565 S
C1436 H1421 0.960 . S
C1436 H1422 0.960 . S
C1436 H1423 0.960 . S
C1436 C1435 1.524 . S
C1437 C1434 1.403 1_545 S
C1437 C1438 1.392 . S
C1437 C1441 1.495 . S
C1438 C1437 1.392 . S
C1438 C1439 1.385 . S
C1438 C1440 1.478 . S
C1439 H1433 0.930 . S
C1439 C1435 1.400 1_545 S
C1439 C1438 1.385 . S
C1440 C1438 1.478 . S
C1440 C1442 1.381 . S
C1440 C1446 1.383 . S
C1441 C1437 1.495 . S
C1441 H1447 0.959 . S
C1441 H1448 0.961 . S
C1441 H1449 0.960 . S
C1442 C1440 1.381 . S
C1442 C1443 1.394 . S
C1442 H1450 0.930 . S
C1443 C1442 1.394 . S
C1443 C1444 1.383 . S
C1443 H1451 0.929 . S
C1444 C1443 1.383 . S
C1444 C1445 1.377 . S
C1445 H1429 0.930 . S
C1445 C1444 1.377 . S
C1445 C1446 1.379 . S
C1446 H1430 0.931 . S
C1446 C1440 1.383 . S
C1446 C1445 1.379 . S
H1447 C1441 0.959 . S
H1448 C1441 0.961 . S
H1449 C1441 0.960 . S
H1450 C1442 0.930 . S
H1451 C1443 0.929 . S
H1452 C1460 0.929 . S
H1453 C1462 0.930 . S
H1454 C1464 0.930 . S
H1455 C1467 0.929 . S
H1456 C1470 0.930 . S
H1457 C1472 0.960 . S
H1458 C1472 0.960 . S
H1459 C1472 0.960 . S
C1460 H1452 0.929 . S
C1460 C1461 1.377 . S
C1460 C1462 1.384 . S
C1461 C1460 1.377 . S
C1461 C1467 1.390 . S
C1462 H1453 0.930 . S
C1462 C1460 1.384 . S
C1462 C1463 1.372 . S
C1463 C1462 1.372 . S
C1463 C1464 1.400 . S
C1463 C1468 1.490 . S
C1464 H1454 0.930 . S
C1464 C1463 1.400 . S
C1464 C1467 1.386 . S
H1465 C1481 0.930 . S
H1466 C1482 0.931 . S
C1467 H1455 0.929 . S
C1467 C1461 1.390 . S
C1467 C1464 1.386 . S
C1468 C1463 1.490 . S
C1468 C1470 1.395 . S
C1468 C1471 1.403 . S
H1469 C1475 0.930 . S
C1470 H1456 0.930 . S
C1470 C1468 1.395 . S
C1470 C1473 1.403 1_655 S
C1471 C1468 1.403 . S
C1471 C1472 1.524 . S
C1471 C1475 1.400 1_655 S
C1472 H1457 0.960 . S
C1472 H1458 0.960 . S
C1472 H1459 0.960 . S
C1472 C1471 1.524 . S
C1473 C1470 1.403 1_455 S
C1473 C1474 1.392 . S
C1473 C1477 1.495 . S
C1474 C1473 1.392 . S
C1474 C1475 1.385 . S
C1474 C1476 1.478 . S
C1475 H1469 0.930 . S
C1475 C1471 1.400 1_455 S
C1475 C1474 1.385 . S
C1476 C1474 1.478 . S
C1476 C1478 1.381 . S
C1476 C1482 1.383 . S
C1477 C1473 1.495 . S
C1477 H1483 0.959 . S
C1477 H1484 0.961 . S
C1477 H1485 0.960 . S
C1478 C1476 1.381 . S
C1478 C1479 1.394 . S
C1478 H1486 0.930 . S
C1479 C1478 1.394 . S
C1479 C1480 1.383 . S
C1479 H1487 0.929 . S
C1480 C1479 1.383 . S
C1480 C1481 1.377 . S
C1481 H1465 0.930 . S
C1481 C1480 1.377 . S
C1481 C1482 1.379 . S
C1482 H1466 0.931 . S
C1482 C1476 1.383 . S
C1482 C1481 1.379 . S
H1483 C1477 0.959 . S
H1484 C1477 0.961 . S
H1485 C1477 0.960 . S
H1486 C1478 0.930 . S
H1487 C1479 0.929 . S
H1488 C1496 0.929 . S
H1489 C1498 0.930 . S
H1490 C1500 0.930 . S
H1491 C1503 0.929 . S
H1492 C1506 0.930 . S
H1493 C1508 0.960 . S
H1494 C1508 0.960 . S
H1495 C1508 0.960 . S
C1496 H1488 0.929 . S
C1496 C1497 1.377 . S
C1496 C1498 1.384 . S
C1497 C1496 1.377 . S
C1497 C1503 1.390 . S
C1498 H1489 0.930 . S
C1498 C1496 1.384 . S
C1498 C1499 1.372 . S
C1499 C1498 1.372 . S
C1499 C1500 1.400 . S
C1499 C1504 1.490 . S
C1500 H1490 0.930 . S
C1500 C1499 1.400 . S
C1500 C1503 1.386 . S
H1501 C1517 0.930 . S
H1502 C1518 0.931 . S
C1503 H1491 0.929 . S
C1503 C1497 1.390 . S
C1503 C1500 1.386 . S
C1504 C1499 1.490 . S
C1504 C1506 1.395 . S
C1504 C1507 1.403 . S
H1505 C1511 0.930 . S
C1506 H1492 0.930 . S
C1506 C1504 1.395 . S
C1506 C1509 1.403 1_556 S
C1507 C1504 1.403 . S
C1507 C1508 1.524 . S
C1507 C1511 1.400 1_556 S
C1508 H1493 0.960 . S
C1508 H1494 0.960 . S
C1508 H1495 0.960 . S
C1508 C1507 1.524 . S
C1509 C1506 1.403 1_554 S
C1509 C1510 1.392 . S
C1509 C1513 1.495 . S
C1510 C1509 1.392 . S
C1510 C1511 1.385 . S
C1510 C1512 1.478 . S
C1511 H1505 0.930 . S
C1511 C1507 1.400 1_554 S
C1511 C1510 1.385 . S
C1512 C1510 1.478 . S
C1512 C1514 1.381 . S
C1512 C1518 1.383 . S
C1513 C1509 1.495 . S
C1513 H1519 0.959 . S
C1513 H1520 0.961 . S
C1513 H1521 0.960 . S
C1514 C1512 1.381 . S
C1514 C1515 1.394 . S
C1514 H1522 0.930 . S
C1515 C1514 1.394 . S
C1515 C1516 1.383 . S
C1515 H1523 0.929 . S
C1516 C1515 1.383 . S
C1516 C1517 1.377 . S
C1517 H1501 0.930 . S
C1517 C1516 1.377 . S
C1517 C1518 1.379 . S
C1518 H1502 0.931 . S
C1518 C1512 1.383 . S
C1518 C1517 1.379 . S
H1519 C1513 0.959 . S
H1520 C1513 0.961 . S
H1521 C1513 0.960 . S
H1522 C1514 0.930 . S
H1523 C1515 0.929 . S
H1524 C1532 0.929 . S
H1525 C1534 0.930 . S
H1526 C1536 0.930 . S
H1527 C1539 0.929 . S
H1528 C1542 0.930 . S
H1529 C1544 0.960 . S
H1530 C1544 0.960 . S
H1531 C1544 0.960 . S
C1532 H1524 0.929 . S
C1532 C1533 1.377 . S
C1532 C1534 1.384 . S
C1533 C1532 1.377 . S
C1533 C1539 1.390 . S
C1534 H1525 0.930 . S
C1534 C1532 1.384 . S
C1534 C1535 1.372 . S
C1535 C1534 1.372 . S
C1535 C1536 1.400 . S
C1535 C1540 1.490 . S
C1536 H1526 0.930 . S
C1536 C1535 1.400 . S
C1536 C1539 1.386 . S
H1537 C1553 0.930 . S
H1538 C1554 0.931 . S
C1539 H1527 0.929 . S
C1539 C1533 1.390 . S
C1539 C1536 1.386 . S
C1540 C1535 1.490 . S
C1540 C1542 1.395 . S
C1540 C1543 1.403 . S
H1541 C1547 0.930 . S
C1542 H1528 0.930 . S
C1542 C1540 1.395 . S
C1542 C1545 1.403 1_556 S
C1543 C1540 1.403 . S
C1543 C1544 1.524 . S
C1543 C1547 1.400 1_556 S
C1544 H1529 0.960 . S
C1544 H1530 0.960 . S
C1544 H1531 0.960 . S
C1544 C1543 1.524 . S
C1545 C1542 1.403 1_554 S
C1545 C1546 1.392 . S
C1545 C1549 1.495 . S
C1546 C1545 1.392 . S
C1546 C1547 1.385 . S
C1546 C1548 1.478 . S
C1547 H1541 0.930 . S
C1547 C1543 1.400 1_554 S
C1547 C1546 1.385 . S
C1548 C1546 1.478 . S
C1548 C1550 1.381 . S
C1548 C1554 1.383 . S
C1549 C1545 1.495 . S
C1549 H1555 0.959 . S
C1549 H1556 0.961 . S
C1549 H1557 0.960 . S
C1550 C1548 1.381 . S
C1550 C1551 1.394 . S
C1550 H1558 0.930 . S
C1551 C1550 1.394 . S
C1551 C1552 1.383 . S
C1551 H1559 0.929 . S
C1552 C1551 1.383 . S
C1552 C1553 1.377 . S
C1553 H1537 0.930 . S
C1553 C1552 1.377 . S
C1553 C1554 1.379 . S
C1554 H1538 0.931 . S
C1554 C1548 1.383 . S
C1554 C1553 1.379 . S
H1555 C1549 0.959 . S
H1556 C1549 0.961 . S
H1557 C1549 0.960 . S
H1558 C1550 0.930 . S
H1559 C1551 0.929 . S
H1560 C1568 0.929 . S
H1561 C1570 0.930 . S
H1562 C1572 0.930 . S
H1563 C1575 0.929 . S
H1564 C1578 0.930 . S
H1565 C1580 0.960 . S
H1566 C1580 0.960 . S
H1567 C1580 0.960 . S
C1568 H1560 0.929 . S
C1568 C1569 1.377 . S
C1568 C1570 1.384 . S
C1569 C1568 1.377 . S
C1569 C1575 1.390 . S
C1570 H1561 0.930 . S
C1570 C1568 1.384 . S
C1570 C1571 1.372 . S
C1571 C1570 1.372 . S
C1571 C1572 1.400 . S
C1571 C1576 1.490 . S
C1572 H1562 0.930 . S
C1572 C1571 1.400 . S
C1572 C1575 1.386 . S
H1573 C1589 0.930 . S
H1574 C1590 0.931 . S
C1575 H1563 0.929 . S
C1575 C1569 1.390 . S
C1575 C1572 1.386 . S
C1576 C1571 1.490 . S
C1576 C1578 1.395 . S
C1576 C1579 1.403 . S
H1577 C1583 0.930 . S
C1578 H1564 0.930 . S
C1578 C1576 1.395 . S
C1578 C1581 1.403 1_556 S
C1579 C1576 1.403 . S
C1579 C1580 1.524 . S
C1579 C1583 1.400 1_556 S
C1580 H1565 0.960 . S
C1580 H1566 0.960 . S
C1580 H1567 0.960 . S
C1580 C1579 1.524 . S
C1581 C1578 1.403 1_554 S
C1581 C1582 1.392 . S
C1581 C1585 1.495 . S
C1582 C1581 1.392 . S
C1582 C1583 1.385 . S
C1582 C1584 1.478 . S
C1583 H1577 0.930 . S
C1583 C1579 1.400 1_554 S
C1583 C1582 1.385 . S
C1584 C1582 1.478 . S
C1584 C1586 1.381 . S
C1584 C1590 1.383 . S
C1585 C1581 1.495 . S
C1585 H1591 0.959 . S
C1585 H1592 0.961 . S
C1585 H1593 0.960 . S
C1586 C1584 1.381 . S
C1586 C1587 1.394 . S
C1586 H1594 0.930 . S
C1587 C1586 1.394 . S
C1587 C1588 1.383 . S
C1587 H1595 0.929 . S
C1588 C1587 1.383 . S
C1588 C1589 1.377 . S
C1589 H1573 0.930 . S
C1589 C1588 1.377 . S
C1589 C1590 1.379 . S
C1590 H1574 0.931 . S
C1590 C1584 1.383 . S
C1590 C1589 1.379 . S
H1591 C1585 0.959 . S
H1592 C1585 0.961 . S
H1593 C1585 0.960 . S
H1594 C1586 0.930 . S
H1595 C1587 0.929 . S
H1596 C1604 0.929 . S
H1597 C1606 0.930 . S
H1598 C1608 0.930 . S
H1599 C1611 0.929 . S
H1600 C1614 0.930 . S
H1601 C1616 0.960 . S
H1602 C1616 0.960 . S
H1603 C1616 0.960 . S
C1604 H1596 0.929 . S
C1604 C1605 1.377 . S
C1604 C1606 1.384 . S
C1605 C1604 1.377 . S
C1605 C1611 1.390 . S
C1606 H1597 0.930 . S
C1606 C1604 1.384 . S
C1606 C1607 1.372 . S
C1607 C1606 1.372 . S
C1607 C1608 1.400 . S
C1607 C1612 1.490 . S
C1608 H1598 0.930 . S
C1608 C1607 1.400 . S
C1608 C1611 1.386 . S
H1609 C1625 0.930 . S
H1610 C1626 0.931 . S
C1611 H1599 0.929 . S
C1611 C1605 1.390 . S
C1611 C1608 1.386 . S
C1612 C1607 1.490 . S
C1612 C1614 1.395 . S
C1612 C1615 1.403 . S
H1613 C1619 0.930 . S
C1614 H1600 0.930 . S
C1614 C1612 1.395 . S
C1614 C1617 1.403 1_556 S
C1615 C1612 1.403 . S
C1615 C1616 1.524 . S
C1615 C1619 1.400 1_556 S
C1616 H1601 0.960 . S
C1616 H1602 0.960 . S
C1616 H1603 0.960 . S
C1616 C1615 1.524 . S
C1617 C1614 1.403 1_554 S
C1617 C1618 1.392 . S
C1617 C1621 1.495 . S
C1618 C1617 1.392 . S
C1618 C1619 1.385 . S
C1618 C1620 1.478 . S
C1619 H1613 0.930 . S
C1619 C1615 1.400 1_554 S
C1619 C1618 1.385 . S
C1620 C1618 1.478 . S
C1620 C1622 1.381 . S
C1620 C1626 1.383 . S
C1621 C1617 1.495 . S
C1621 H1627 0.959 . S
C1621 H1628 0.961 . S
C1621 H1629 0.960 . S
C1622 C1620 1.381 . S
C1622 C1623 1.394 . S
C1622 H1630 0.930 . S
C1623 C1622 1.394 . S
C1623 C1624 1.383 . S
C1623 H1631 0.929 . S
C1624 C1623 1.383 . S
C1624 C1625 1.377 . S
C1625 H1609 0.930 . S
C1625 C1624 1.377 . S
C1625 C1626 1.379 . S
C1626 H1610 0.931 . S
C1626 C1620 1.383 . S
C1626 C1625 1.379 . S
H1627 C1621 0.959 . S
H1628 C1621 0.961 . S
H1629 C1621 0.960 . S
H1630 C1622 0.930 . S
H1631 C1623 0.929 . S
H1632 C1640 0.929 . S
H1633 C1642 0.930 . S
H1634 C1644 0.930 . S
H1635 C1647 0.929 . S
H1636 C1650 0.930 . S
H1637 C1652 0.960 . S
H1638 C1652 0.960 . S
H1639 C1652 0.960 . S
C1640 H1632 0.929 . S
C1640 C1641 1.377 . S
C1640 C1642 1.384 . S
C1641 C1640 1.377 . S
C1641 C1647 1.390 . S
C1642 H1633 0.930 . S
C1642 C1640 1.384 . S
C1642 C1643 1.372 . S
C1643 C1642 1.372 . S
C1643 C1644 1.400 . S
C1643 C1648 1.490 . S
C1644 H1634 0.930 . S
C1644 C1643 1.400 . S
C1644 C1647 1.386 . S
H1645 C1661 0.930 . S
H1646 C1662 0.931 . S
C1647 H1635 0.929 . S
C1647 C1641 1.390 . S
C1647 C1644 1.386 . S
C1648 C1643 1.490 . S
C1648 C1650 1.395 . S
C1648 C1651 1.403 . S
H1649 C1655 0.930 . S
C1650 H1636 0.930 . S
C1650 C1648 1.395 . S
C1650 C1653 1.403 . S
C1651 C1648 1.403 . S
C1651 C1652 1.524 . S
C1651 C1655 1.400 . S
C1652 H1637 0.960 . S
C1652 H1638 0.960 . S
C1652 H1639 0.960 . S
C1652 C1651 1.524 . S
C1653 C1650 1.403 . S
C1653 C1654 1.392 . S
C1653 C1657 1.495 . S
C1654 C1653 1.392 . S
C1654 C1655 1.385 . S
C1654 C1656 1.478 . S
C1655 H1649 0.930 . S
C1655 C1651 1.400 . S
C1655 C1654 1.385 . S
C1656 C1654 1.478 . S
C1656 C1658 1.381 . S
C1656 C1662 1.383 . S
C1657 C1653 1.495 . S
C1657 H1663 0.959 . S
C1657 H1664 0.961 . S
C1657 H1665 0.960 . S
C1658 C1656 1.381 . S
C1658 C1659 1.394 . S
C1658 H1666 0.930 . S
C1659 C1658 1.394 . S
C1659 C1660 1.383 . S
C1659 H1667 0.929 . S
C1660 C1659 1.383 . S
C1660 C1661 1.377 . S
C1661 H1645 0.930 . S
C1661 C1660 1.377 . S
C1661 C1662 1.379 . S
C1662 H1646 0.931 . S
C1662 C1656 1.383 . S
C1662 C1661 1.379 . S
H1663 C1657 0.959 . S
H1664 C1657 0.961 . S
H1665 C1657 0.960 . S
H1666 C1658 0.930 . S
H1667 C1659 0.929 . S
H1668 C1676 0.929 . S
H1669 C1678 0.930 . S
H1670 C1680 0.930 . S
H1671 C1683 0.929 . S
H1672 C1686 0.930 . S
H1673 C1688 0.960 . S
H1674 C1688 0.960 . S
H1675 C1688 0.960 . S
C1676 H1668 0.929 . S
C1676 C1677 1.377 . S
C1676 C1678 1.384 . S
C1677 C1676 1.377 . S
C1677 C1683 1.390 . S
C1678 H1669 0.930 . S
C1678 C1676 1.384 . S
C1678 C1679 1.372 . S
C1679 C1678 1.372 . S
C1679 C1680 1.400 . S
C1679 C1684 1.490 . S
C1680 H1670 0.930 . S
C1680 C1679 1.400 . S
C1680 C1683 1.386 . S
H1681 C1697 0.930 . S
H1682 C1698 0.931 . S
C1683 H1671 0.929 . S
C1683 C1677 1.390 . S
C1683 C1680 1.386 . S
C1684 C1679 1.490 . S
C1684 C1686 1.395 . S
C1684 C1687 1.403 . S
H1685 C1691 0.930 . S
C1686 H1672 0.930 . S
C1686 C1684 1.395 . S
C1686 C1689 1.403 . S
C1687 C1684 1.403 . S
C1687 C1688 1.524 . S
C1687 C1691 1.400 . S
C1688 H1673 0.960 . S
C1688 H1674 0.960 . S
C1688 H1675 0.960 . S
C1688 C1687 1.524 . S
C1689 C1686 1.403 . S
C1689 C1690 1.392 . S
C1689 C1693 1.495 . S
C1690 C1689 1.392 . S
C1690 C1691 1.385 . S
C1690 C1692 1.478 . S
C1691 H1685 0.930 . S
C1691 C1687 1.400 . S
C1691 C1690 1.385 . S
C1692 C1690 1.478 . S
C1692 C1694 1.381 . S
C1692 C1698 1.383 . S
C1693 C1689 1.495 . S
C1693 H1699 0.959 . S
C1693 H1700 0.961 . S
C1693 H1701 0.960 . S
C1694 C1692 1.381 . S
C1694 C1695 1.394 . S
C1694 H1702 0.930 . S
C1695 C1694 1.394 . S
C1695 C1696 1.383 . S
C1695 H1703 0.929 . S
C1696 C1695 1.383 . S
C1696 C1697 1.377 . S
C1697 H1681 0.930 . S
C1697 C1696 1.377 . S
C1697 C1698 1.379 . S
C1698 H1682 0.931 . S
C1698 C1692 1.383 . S
C1698 C1697 1.379 . S
H1699 C1693 0.959 . S
H1700 C1693 0.961 . S
H1701 C1693 0.960 . S
H1702 C1694 0.930 . S
H1703 C1695 0.929 . S
H1704 C1712 0.929 . S
H1705 C1714 0.930 . S
H1706 C1716 0.930 . S
H1707 C1719 0.929 . S
H1708 C1722 0.930 . S
H1709 C1724 0.960 . S
H1710 C1724 0.960 . S
H1711 C1724 0.960 . S
C1712 H1704 0.929 . S
C1712 C1713 1.377 . S
C1712 C1714 1.384 . S
C1713 C1712 1.377 . S
C1713 C1719 1.390 . S
C1714 H1705 0.930 . S
C1714 C1712 1.384 . S
C1714 C1715 1.372 . S
C1715 C1714 1.372 . S
C1715 C1716 1.400 . S
C1715 C1720 1.490 . S
C1716 H1706 0.930 . S
C1716 C1715 1.400 . S
C1716 C1719 1.386 . S
H1717 C1733 0.930 . S
H1718 C1734 0.931 . S
C1719 H1707 0.929 . S
C1719 C1713 1.390 . S
C1719 C1716 1.386 . S
C1720 C1715 1.490 . S
C1720 C1722 1.395 . S
C1720 C1723 1.403 . S
H1721 C1727 0.930 . S
C1722 H1708 0.930 . S
C1722 C1720 1.395 . S
C1722 C1725 1.403 . S
C1723 C1720 1.403 . S
C1723 C1724 1.524 . S
C1723 C1727 1.400 . S
C1724 H1709 0.960 . S
C1724 H1710 0.960 . S
C1724 H1711 0.960 . S
C1724 C1723 1.524 . S
C1725 C1722 1.403 . S
C1725 C1726 1.392 . S
C1725 C1729 1.495 . S
C1726 C1725 1.392 . S
C1726 C1727 1.385 . S
C1726 C1728 1.478 . S
C1727 H1721 0.930 . S
C1727 C1723 1.400 . S
C1727 C1726 1.385 . S
C1728 C1726 1.478 . S
C1728 C1730 1.381 . S
C1728 C1734 1.383 . S
C1729 C1725 1.495 . S
C1729 H1735 0.959 . S
C1729 H1736 0.961 . S
C1729 H1737 0.960 . S
C1730 C1728 1.381 . S
C1730 C1731 1.394 . S
C1730 H1738 0.930 . S
C1731 C1730 1.394 . S
C1731 C1732 1.383 . S
C1731 H1739 0.929 . S
C1732 C1731 1.383 . S
C1732 C1733 1.377 . S
C1733 H1717 0.930 . S
C1733 C1732 1.377 . S
C1733 C1734 1.379 . S
C1734 H1718 0.931 . S
C1734 C1728 1.383 . S
C1734 C1733 1.379 . S
H1735 C1729 0.959 . S
H1736 C1729 0.961 . S
H1737 C1729 0.960 . S
H1738 C1730 0.930 . S
H1739 C1731 0.929 . S
H1740 C1748 0.929 . S
H1741 C1750 0.930 . S
H1742 C1752 0.930 . S
H1743 C1755 0.929 . S
H1744 C1758 0.930 . S
H1745 C1760 0.960 . S
H1746 C1760 0.960 . S
H1747 C1760 0.960 . S
C1748 H1740 0.929 . S
C1748 C1749 1.377 . S
C1748 C1750 1.384 . S
C1749 C1748 1.377 . S
C1749 C1755 1.390 . S
C1750 H1741 0.930 . S
C1750 C1748 1.384 . S
C1750 C1751 1.372 . S
C1751 C1750 1.372 . S
C1751 C1752 1.400 . S
C1751 C1756 1.490 . S
C1752 H1742 0.930 . S
C1752 C1751 1.400 . S
C1752 C1755 1.386 . S
H1753 C1769 0.930 . S
H1754 C1770 0.931 . S
C1755 H1743 0.929 . S
C1755 C1749 1.390 . S
C1755 C1752 1.386 . S
C1756 C1751 1.490 . S
C1756 C1758 1.395 . S
C1756 C1759 1.403 . S
H1757 C1763 0.930 . S
C1758 H1744 0.930 . S
C1758 C1756 1.395 . S
C1758 C1761 1.403 . S
C1759 C1756 1.403 . S
C1759 C1760 1.524 . S
C1759 C1763 1.400 . S
C1760 H1745 0.960 . S
C1760 H1746 0.960 . S
C1760 H1747 0.960 . S
C1760 C1759 1.524 . S
C1761 C1758 1.403 . S
C1761 C1762 1.392 . S
C1761 C1765 1.495 . S
C1762 C1761 1.392 . S
C1762 C1763 1.385 . S
C1762 C1764 1.478 . S
C1763 H1757 0.930 . S
C1763 C1759 1.400 . S
C1763 C1762 1.385 . S
C1764 C1762 1.478 . S
C1764 C1766 1.381 . S
C1764 C1770 1.383 . S
C1765 C1761 1.495 . S
C1765 H1771 0.959 . S
C1765 H1772 0.961 . S
C1765 H1773 0.960 . S
C1766 C1764 1.381 . S
C1766 C1767 1.394 . S
C1766 H1774 0.930 . S
C1767 C1766 1.394 . S
C1767 C1768 1.383 . S
C1767 H1775 0.929 . S
C1768 C1767 1.383 . S
C1768 C1769 1.377 . S
C1769 H1753 0.930 . S
C1769 C1768 1.377 . S
C1769 C1770 1.379 . S
C1770 H1754 0.931 . S
C1770 C1764 1.383 . S
C1770 C1769 1.379 . S
H1771 C1765 0.959 . S
H1772 C1765 0.961 . S
H1773 C1765 0.960 . S
H1774 C1766 0.930 . S
H1775 C1767 0.929 . S
H1776 C1784 0.929 . S
H1777 C1786 0.930 . S
H1778 C1788 0.930 . S
H1779 C1791 0.929 . S
H1780 C1794 0.930 . S
H1781 C1796 0.960 . S
H1782 C1796 0.960 . S
H1783 C1796 0.960 . S
C1784 H1776 0.929 . S
C1784 C1785 1.377 . S
C1784 C1786 1.384 . S
C1785 C1784 1.377 . S
C1785 C1791 1.390 . S
C1786 H1777 0.930 . S
C1786 C1784 1.384 . S
C1786 C1787 1.372 . S
C1787 C1786 1.372 . S
C1787 C1788 1.400 . S
C1787 C1792 1.490 . S
C1788 H1778 0.930 . S
C1788 C1787 1.400 . S
C1788 C1791 1.386 . S
H1789 C1805 0.930 . S
H1790 C1806 0.931 . S
C1791 H1779 0.929 . S
C1791 C1785 1.390 . S
C1791 C1788 1.386 . S
C1792 C1787 1.490 . S
C1792 C1794 1.395 . S
C1792 C1795 1.403 . S
H1793 C1799 0.930 . S
C1794 H1780 0.930 . S
C1794 C1792 1.395 . S
C1794 C1797 1.403 . S
C1795 C1792 1.403 . S
C1795 C1796 1.524 . S
C1795 C1799 1.400 . S
C1796 H1781 0.960 . S
C1796 H1782 0.960 . S
C1796 H1783 0.960 . S
C1796 C1795 1.524 . S
C1797 C1794 1.403 . S
C1797 C1798 1.392 . S
C1797 C1801 1.495 . S
C1798 C1797 1.392 . S
C1798 C1799 1.385 . S
C1798 C1800 1.478 . S
C1799 H1793 0.930 . S
C1799 C1795 1.400 . S
C1799 C1798 1.385 . S
C1800 C1798 1.478 . S
C1800 C1802 1.381 . S
C1800 C1806 1.383 . S
C1801 C1797 1.495 . S
C1801 H1807 0.959 . S
C1801 H1808 0.961 . S
C1801 H1809 0.960 . S
C1802 C1800 1.381 . S
C1802 C1803 1.394 . S
C1802 H1810 0.930 . S
C1803 C1802 1.394 . S
C1803 C1804 1.383 . S
C1803 H1811 0.929 . S
C1804 C1803 1.383 . S
C1804 C1805 1.377 . S
C1805 H1789 0.930 . S
C1805 C1804 1.377 . S
C1805 C1806 1.379 . S
C1806 H1790 0.931 . S
C1806 C1800 1.383 . S
C1806 C1805 1.379 . S
H1807 C1801 0.959 . S
H1808 C1801 0.961 . S
H1809 C1801 0.960 . S
H1810 C1802 0.930 . S
H1811 C1803 0.929 . S
H1812 C1820 0.929 . S
H1813 C1822 0.930 . S
H1814 C1824 0.930 . S
H1815 C1827 0.929 . S
H1816 C1830 0.930 . S
H1817 C1832 0.960 . S
H1818 C1832 0.960 . S
H1819 C1832 0.960 . S
C1820 H1812 0.929 . S
C1820 C1821 1.377 . S
C1820 C1822 1.384 . S
C1821 C1820 1.377 . S
C1821 C1827 1.390 . S
C1822 H1813 0.930 . S
C1822 C1820 1.384 . S
C1822 C1823 1.372 . S
C1823 C1822 1.372 . S
C1823 C1824 1.400 . S
C1823 C1828 1.490 . S
C1824 H1814 0.930 . S
C1824 C1823 1.400 . S
C1824 C1827 1.386 . S
H1825 C1841 0.930 . S
H1826 C1842 0.931 . S
C1827 H1815 0.929 . S
C1827 C1821 1.390 . S
C1827 C1824 1.386 . S
C1828 C1823 1.490 . S
C1828 C1830 1.395 . S
C1828 C1831 1.403 . S
H1829 C1835 0.930 . S
C1830 H1816 0.930 . S
C1830 C1828 1.395 . S
C1830 C1833 1.403 . S
C1831 C1828 1.403 . S
C1831 C1832 1.524 . S
C1831 C1835 1.400 . S
C1832 H1817 0.960 . S
C1832 H1818 0.960 . S
C1832 H1819 0.960 . S
C1832 C1831 1.524 . S
C1833 C1830 1.403 . S
C1833 C1834 1.392 . S
C1833 C1837 1.495 . S
C1834 C1833 1.392 . S
C1834 C1835 1.385 . S
C1834 C1836 1.478 . S
C1835 H1829 0.930 . S
C1835 C1831 1.400 . S
C1835 C1834 1.385 . S
C1836 C1834 1.478 . S
C1836 C1838 1.381 . S
C1836 C1842 1.383 . S
C1837 C1833 1.495 . S
C1837 H1843 0.959 . S
C1837 H1844 0.961 . S
C1837 H1845 0.960 . S
C1838 C1836 1.381 . S
C1838 C1839 1.394 . S
C1838 H1846 0.930 . S
C1839 C1838 1.394 . S
C1839 C1840 1.383 . S
C1839 H1847 0.929 . S
C1840 C1839 1.383 . S
C1840 C1841 1.377 . S
C1841 H1825 0.930 . S
C1841 C1840 1.377 . S
C1841 C1842 1.379 . S
C1842 H1826 0.931 . S
C1842 C1836 1.383 . S
C1842 C1841 1.379 . S
H1843 C1837 0.959 . S
H1844 C1837 0.961 . S
H1845 C1837 0.960 . S
H1846 C1838 0.930 . S
H1847 C1839 0.929 . S
H1848 C1856 0.929 . S
H1849 C1858 0.930 . S
H1850 C1860 0.930 . S
H1851 C1863 0.929 . S
H1852 C1866 0.930 . S
H1853 C1868 0.960 . S
H1854 C1868 0.960 . S
H1855 C1868 0.960 . S
C1856 H1848 0.929 . S
C1856 C1857 1.377 . S
C1856 C1858 1.384 . S
C1857 C1856 1.377 . S
C1857 C1863 1.390 . S
C1858 H1849 0.930 . S
C1858 C1856 1.384 . S
C1858 C1859 1.372 . S
C1859 C1858 1.372 . S
C1859 C1860 1.400 . S
C1859 C1864 1.490 . S
C1860 H1850 0.930 . S
C1860 C1859 1.400 . S
C1860 C1863 1.386 . S
H1861 C1877 0.930 . S
H1862 C1878 0.931 . S
C1863 H1851 0.929 . S
C1863 C1857 1.390 . S
C1863 C1860 1.386 . S
C1864 C1859 1.490 . S
C1864 C1866 1.395 . S
C1864 C1867 1.403 . S
H1865 C1871 0.930 . S
C1866 H1852 0.930 . S
C1866 C1864 1.395 . S
C1866 C1869 1.403 . S
C1867 C1864 1.403 . S
C1867 C1868 1.524 . S
C1867 C1871 1.400 . S
C1868 H1853 0.960 . S
C1868 H1854 0.960 . S
C1868 H1855 0.960 . S
C1868 C1867 1.524 . S
C1869 C1866 1.403 . S
C1869 C1870 1.392 . S
C1869 C1873 1.495 . S
C1870 C1869 1.392 . S
C1870 C1871 1.385 . S
C1870 C1872 1.478 . S
C1871 H1865 0.930 . S
C1871 C1867 1.400 . S
C1871 C1870 1.385 . S
C1872 C1870 1.478 . S
C1872 C1874 1.381 . S
C1872 C1878 1.383 . S
C1873 C1869 1.495 . S
C1873 H1879 0.959 . S
C1873 H1880 0.961 . S
C1873 H1881 0.960 . S
C1874 C1872 1.381 . S
C1874 C1875 1.394 . S
C1874 H1882 0.930 . S
C1875 C1874 1.394 . S
C1875 C1876 1.383 . S
C1875 H1883 0.929 . S
C1876 C1875 1.383 . S
C1876 C1877 1.377 . S
C1877 H1861 0.930 . S
C1877 C1876 1.377 . S
C1877 C1878 1.379 . S
C1878 H1862 0.931 . S
C1878 C1872 1.383 . S
C1878 C1877 1.379 . S
H1879 C1873 0.959 . S
H1880 C1873 0.961 . S
H1881 C1873 0.960 . S
H1882 C1874 0.930 . S
H1883 C1875 0.929 . S
H1884 C1892 0.929 . S
H1885 C1894 0.930 . S
H1886 C1896 0.930 . S
H1887 C1899 0.929 . S
H1888 C1902 0.930 . S
H1889 C1904 0.960 . S
H1890 C1904 0.960 . S
H1891 C1904 0.960 . S
C1892 H1884 0.929 . S
C1892 C1893 1.377 . S
C1892 C1894 1.384 . S
C1893 C1892 1.377 . S
C1893 C1899 1.390 . S
C1894 H1885 0.930 . S
C1894 C1892 1.384 . S
C1894 C1895 1.372 . S
C1895 C1894 1.372 . S
C1895 C1896 1.400 . S
C1895 C1900 1.490 . S
C1896 H1886 0.930 . S
C1896 C1895 1.400 . S
C1896 C1899 1.386 . S
H1897 C1913 0.930 . S
H1898 C1914 0.931 . S
C1899 H1887 0.929 . S
C1899 C1893 1.390 . S
C1899 C1896 1.386 . S
C1900 C1895 1.490 . S
C1900 C1902 1.395 . S
C1900 C1903 1.403 . S
H1901 C1907 0.930 . S
C1902 H1888 0.930 . S
C1902 C1900 1.395 . S
C1902 C1905 1.403 . S
C1903 C1900 1.403 . S
C1903 C1904 1.524 . S
C1903 C1907 1.400 . S
C1904 H1889 0.960 . S
C1904 H1890 0.960 . S
C1904 H1891 0.960 . S
C1904 C1903 1.524 . S
C1905 C1902 1.403 . S
C1905 C1906 1.392 . S
C1905 C1909 1.495 . S
C1906 C1905 1.392 . S
C1906 C1907 1.385 . S
C1906 C1908 1.478 . S
C1907 H1901 0.930 . S
C1907 C1903 1.400 . S
C1907 C1906 1.385 . S
C1908 C1906 1.478 . S
C1908 C1910 1.381 . S
C1908 C1914 1.383 . S
C1909 C1905 1.495 . S
C1909 H1915 0.959 . S
C1909 H1916 0.961 . S
C1909 H1917 0.960 . S
C1910 C1908 1.381 . S
C1910 C1911 1.394 . S
C1910 H1918 0.930 . S
C1911 C1910 1.394 . S
C1911 C1912 1.383 . S
C1911 H1919 0.929 . S
C1912 C1911 1.383 . S
C1912 C1913 1.377 . S
C1913 H1897 0.930 . S
C1913 C1912 1.377 . S
C1913 C1914 1.379 . S
C1914 H1898 0.931 . S
C1914 C1908 1.383 . S
C1914 C1913 1.379 . S
H1915 C1909 0.959 . S
H1916 C1909 0.961 . S
H1917 C1909 0.960 . S
H1918 C1910 0.930 . S
H1919 C1911 0.929 . S
H1920 C1928 0.929 . S
H1921 C1930 0.930 . S
H1922 C1932 0.930 . S
H1923 C1935 0.929 . S
H1924 C1938 0.930 . S
H1925 C1940 0.960 . S
H1926 C1940 0.960 . S
H1927 C1940 0.960 . S
C1928 H1920 0.929 . S
C1928 C1929 1.377 . S
C1928 C1930 1.384 . S
C1929 C1928 1.377 . S
C1929 C1935 1.390 . S
C1930 H1921 0.930 . S
C1930 C1928 1.384 . S
C1930 C1931 1.372 . S
C1931 C1930 1.372 . S
C1931 C1932 1.400 . S
C1931 C1936 1.490 . S
C1932 H1922 0.930 . S
C1932 C1931 1.400 . S
C1932 C1935 1.386 . S
H1933 C1949 0.930 . S
H1934 C1950 0.931 . S
C1935 H1923 0.929 . S
C1935 C1929 1.390 . S
C1935 C1932 1.386 . S
C1936 C1931 1.490 . S
C1936 C1938 1.395 . S
C1936 C1939 1.403 . S
H1937 C1943 0.930 . S
C1938 H1924 0.930 . S
C1938 C1936 1.395 . S
C1938 C1941 1.403 . S
C1939 C1936 1.403 . S
C1939 C1940 1.524 . S
C1939 C1943 1.400 . S
C1940 H1925 0.960 . S
C1940 H1926 0.960 . S
C1940 H1927 0.960 . S
C1940 C1939 1.524 . S
C1941 C1938 1.403 . S
C1941 C1942 1.392 . S
C1941 C1945 1.495 . S
C1942 C1941 1.392 . S
C1942 C1943 1.385 . S
C1942 C1944 1.478 . S
C1943 H1937 0.930 . S
C1943 C1939 1.400 . S
C1943 C1942 1.385 . S
C1944 C1942 1.478 . S
C1944 C1946 1.381 . S
C1944 C1950 1.383 . S
C1945 C1941 1.495 . S
C1945 H1951 0.959 . S
C1945 H1952 0.961 . S
C1945 H1953 0.960 . S
C1946 C1944 1.381 . S
C1946 C1947 1.394 . S
C1946 H1954 0.930 . S
C1947 C1946 1.394 . S
C1947 C1948 1.383 . S
C1947 H1955 0.929 . S
C1948 C1947 1.383 . S
C1948 C1949 1.377 . S
C1949 H1933 0.930 . S
C1949 C1948 1.377 . S
C1949 C1950 1.379 . S
C1950 H1934 0.931 . S
C1950 C1944 1.383 . S
C1950 C1949 1.379 . S
H1951 C1945 0.959 . S
H1952 C1945 0.961 . S
H1953 C1945 0.960 . S
H1954 C1946 0.930 . S
H1955 C1947 0.929 . S
H1956 C1964 0.929 . S
H1957 C1966 0.930 . S
H1958 C1968 0.930 . S
H1959 C1971 0.929 . S
H1960 C1974 0.930 . S
H1961 C1976 0.960 . S
H1962 C1976 0.960 . S
H1963 C1976 0.960 . S
C1964 H1956 0.929 . S
C1964 C1965 1.377 . S
C1964 C1966 1.384 . S
C1965 C1964 1.377 . S
C1965 C1971 1.390 . S
C1966 H1957 0.930 . S
C1966 C1964 1.384 . S
C1966 C1967 1.372 . S
C1967 C1966 1.372 . S
C1967 C1968 1.400 . S
C1967 C1972 1.490 . S
C1968 H1958 0.930 . S
C1968 C1967 1.400 . S
C1968 C1971 1.386 . S
H1969 C1985 0.930 . S
H1970 C1986 0.931 . S
C1971 H1959 0.929 . S
C1971 C1965 1.390 . S
C1971 C1968 1.386 . S
C1972 C1967 1.490 . S
C1972 C1974 1.395 . S
C1972 C1975 1.403 . S
H1973 C1979 0.930 . S
C1974 H1960 0.930 . S
C1974 C1972 1.395 . S
C1974 C1977 1.403 . S
C1975 C1972 1.403 . S
C1975 C1976 1.524 . S
C1975 C1979 1.400 . S
C1976 H1961 0.960 . S
C1976 H1962 0.960 . S
C1976 H1963 0.960 . S
C1976 C1975 1.524 . S
C1977 C1974 1.403 . S
C1977 C1978 1.392 . S
C1977 C1981 1.495 . S
C1978 C1977 1.392 . S
C1978 C1979 1.385 . S
C1978 C1980 1.478 . S
C1979 H1973 0.930 . S
C1979 C1975 1.400 . S
C1979 C1978 1.385 . S
C1980 C1978 1.478 . S
C1980 C1982 1.381 . S
C1980 C1986 1.383 . S
C1981 C1977 1.495 . S
C1981 H1987 0.959 . S
C1981 H1988 0.961 . S
C1981 H1989 0.960 . S
C1982 C1980 1.381 . S
C1982 C1983 1.394 . S
C1982 H1990 0.930 . S
C1983 C1982 1.394 . S
C1983 C1984 1.383 . S
C1983 H1991 0.929 . S
C1984 C1983 1.383 . S
C1984 C1985 1.377 . S
C1985 H1969 0.930 . S
C1985 C1984 1.377 . S
C1985 C1986 1.379 . S
C1986 H1970 0.931 . S
C1986 C1980 1.383 . S
C1986 C1985 1.379 . S
H1987 C1981 0.959 . S
H1988 C1981 0.961 . S
H1989 C1981 0.960 . S
H1990 C1982 0.930 . S
H1991 C1983 0.929 . S
H1992 C2000 0.929 . S
H1993 C2002 0.930 . S
H1994 C2004 0.930 . S
H1995 C2007 0.929 . S
H1996 C2010 0.930 . S
H1997 C2012 0.960 . S
H1998 C2012 0.960 . S
H1999 C2012 0.960 . S
C2000 H1992 0.929 . S
C2000 C2001 1.377 . S
C2000 C2002 1.384 . S
C2001 C2000 1.377 . S
C2001 C2007 1.390 . S
C2002 H1993 0.930 . S
C2002 C2000 1.384 . S
C2002 C2003 1.372 . S
C2003 C2002 1.372 . S
C2003 C2004 1.400 . S
C2003 C2008 1.490 . S
C2004 H1994 0.930 . S
C2004 C2003 1.400 . S
C2004 C2007 1.386 . S
H2005 C2021 0.930 . S
H2006 C2022 0.931 . S
C2007 H1995 0.929 . S
C2007 C2001 1.390 . S
C2007 C2004 1.386 . S
C2008 C2003 1.490 . S
C2008 C2010 1.395 . S
C2008 C2011 1.403 . S
H2009 C2015 0.930 . S
C2010 H1996 0.930 . S
C2010 C2008 1.395 . S
C2010 C2013 1.403 . S
C2011 C2008 1.403 . S
C2011 C2012 1.524 . S
C2011 C2015 1.400 . S
C2012 H1997 0.960 . S
C2012 H1998 0.960 . S
C2012 H1999 0.960 . S
C2012 C2011 1.524 . S
C2013 C2010 1.403 . S
C2013 C2014 1.392 . S
C2013 C2017 1.495 . S
C2014 C2013 1.392 . S
C2014 C2015 1.385 . S
C2014 C2016 1.478 . S
C2015 H2009 0.930 . S
C2015 C2011 1.400 . S
C2015 C2014 1.385 . S
C2016 C2014 1.478 . S
C2016 C2018 1.381 . S
C2016 C2022 1.383 . S
C2017 C2013 1.495 . S
C2017 H2023 0.959 . S
C2017 H2024 0.961 . S
C2017 H2025 0.960 . S
C2018 C2016 1.381 . S
C2018 C2019 1.394 . S
C2018 H2026 0.930 . S
C2019 C2018 1.394 . S
C2019 C2020 1.383 . S
C2019 H2027 0.929 . S
C2020 C2019 1.383 . S
C2020 C2021 1.377 . S
C2021 H2005 0.930 . S
C2021 C2020 1.377 . S
C2021 C2022 1.379 . S
C2022 H2006 0.931 . S
C2022 C2016 1.383 . S
C2022 C2021 1.379 . S
H2023 C2017 0.959 . S
H2024 C2017 0.961 . S
H2025 C2017 0.960 . S
H2026 C2018 0.930 . S
H2027 C2019 0.929 . S
H2028 C2036 0.929 . S
H2029 C2038 0.930 . S
H2030 C2040 0.930 . S
H2031 C2043 0.929 . S
H2032 C2046 0.930 . S
H2033 C2048 0.960 . S
H2034 C2048 0.960 . S
H2035 C2048 0.960 . S
C2036 H2028 0.929 . S
C2036 C2037 1.377 . S
C2036 C2038 1.384 . S
C2037 C2036 1.377 . S
C2037 C2043 1.390 . S
C2038 H2029 0.930 . S
C2038 C2036 1.384 . S
C2038 C2039 1.372 . S
C2039 C2038 1.372 . S
C2039 C2040 1.400 . S
C2039 C2044 1.490 . S
C2040 H2030 0.930 . S
C2040 C2039 1.400 . S
C2040 C2043 1.386 . S
H2041 C2057 0.930 . S
H2042 C2058 0.931 . S
C2043 H2031 0.929 . S
C2043 C2037 1.390 . S
C2043 C2040 1.386 . S
C2044 C2039 1.490 . S
C2044 C2046 1.395 . S
C2044 C2047 1.403 . S
H2045 C2051 0.930 . S
C2046 H2032 0.930 . S
C2046 C2044 1.395 . S
C2046 C2049 1.403 . S
C2047 C2044 1.403 . S
C2047 C2048 1.524 . S
C2047 C2051 1.400 . S
C2048 H2033 0.960 . S
C2048 H2034 0.960 . S
C2048 H2035 0.960 . S
C2048 C2047 1.524 . S
C2049 C2046 1.403 . S
C2049 C2050 1.392 . S
C2049 C2053 1.495 . S
C2050 C2049 1.392 . S
C2050 C2051 1.385 . S
C2050 C2052 1.478 . S
C2051 H2045 0.930 . S
C2051 C2047 1.400 . S
C2051 C2050 1.385 . S
C2052 C2050 1.478 . S
C2052 C2054 1.381 . S
C2052 C2058 1.383 . S
C2053 C2049 1.495 . S
C2053 H2059 0.959 . S
C2053 H2060 0.961 . S
C2053 H2061 0.960 . S
C2054 C2052 1.381 . S
C2054 C2055 1.394 . S
C2054 H2062 0.930 . S
C2055 C2054 1.394 . S
C2055 C2056 1.383 . S
C2055 H2063 0.929 . S
C2056 C2055 1.383 . S
C2056 C2057 1.377 . S
C2057 H2041 0.930 . S
C2057 C2056 1.377 . S
C2057 C2058 1.379 . S
C2058 H2042 0.931 . S
C2058 C2052 1.383 . S
C2058 C2057 1.379 . S
H2059 C2053 0.959 . S
H2060 C2053 0.961 . S
H2061 C2053 0.960 . S
H2062 C2054 0.930 . S
H2063 C2055 0.929 . S
C345 C161 1.286 . S
C364 C3 1.350 . S
C381 C17 1.366 . S
C400 C119 1.316 . S
C417 C31 1.368 . S
C436 C133 1.289 . S
C453 C45 1.365 . S
C472 C147 1.319 . S
C489 C189 1.277 . S
C508 C59 1.364 . S
C525 C73 1.365 . S
C544 C203 1.259 . S
C561 C217 1.290 . S
C580 C87 1.350 . S
C597 C175 1.277 . S
C616 C101 1.363 . S
C633 C77 1.279 . S
C652 C115 1.377 . S
C669 C91 1.281 . S
C688 C129 1.376 . S
C705 C143 1.368 . S
C724 C105 1.291 . S
C741 C63 1.292 . S
C760 C157 1.356 . S
C777 C49 1.289 . S
C796 C171 1.349 . S
C813 C185 1.364 . S
C832 C7 1.316 . S
C849 C199 1.364 . S
C868 C21 1.281 . S
C885 C213 1.364 . S
C904 C35 1.320 . S
C921 C227 1.368 . S
C940 C329 1.295 . S
C957 C287 1.275 . S
C976 C241 1.375 . S
C993 C255 1.365 . S
C1012 C245 1.261 . S
C1029 C269 1.367 . S
C1048 C259 1.243 . S
C1065 C273 1.291 . S
C1084 C283 1.352 . S
C1101 C297 1.365 . S
C1120 C315 1.320 . S
C1137 C231 1.277 . S
C1156 C311 1.363 . S
C1173 C301 1.282 . S
C1192 C325 1.375 . S
C1209 C9 1.521 . S
C1228 C93 1.525 . S
C1245 C23 1.524 . S
C1264 C107 1.507 . S
C1281 C37 1.521 . S
C1300 C65 1.525 . S
C1317 C79 1.528 . S
C1336 C51 1.504 . S
C1353 C149 1.521 . S
C1372 C121 1.537 . S
C1389 C135 1.525 . S
C1408 C163 1.537 . S
C1425 C177 1.521 . S
C1444 C205 1.536 . S
C1461 C219 1.521 . S
C1480 C191 1.530 . S
C1497 C247 1.528 . S
C1516 C233 1.517 . S
C1533 C261 1.521 . S
C1552 C331 1.534 . S
C1569 C275 1.527 . S
C1588 C303 1.503 . S
C1605 C289 1.527 . S
C1624 C317 1.503 . S
C1641 C8 0.885 . S
C1660 C78 0.895 . S
C1677 C22 0.886 . S
C1696 C92 0.891 . S
C1713 C36 0.884 . S
C1732 C106 0.898 . S
C1749 C64 0.885 . S
C1768 C50 0.894 . S
C1785 C120 0.887 . S
C1804 C330 0.881 . S
C1821 C134 0.889 . S
C1840 C302 0.877 . S
C1857 C316 0.885 . S
C1876 C148 0.892 . S
C1893 C162 0.885 . S
C1912 C232 0.896 . S
C1929 C288 0.889 . S
C1948 C176 0.873 . S
C1965 C246 0.888 . S
C1984 C190 0.878 . S
C2001 C204 0.889 . S
C2020 C260 0.873 . S
C2037 C274 0.888 . S
C2056 C218 0.875 . S
