# Generated by pormake.
# Topology wft, (7)-cn, num edge types: 1
# Building blocks:
#     Node 0, Type 0, BuildingBlock: NUHQUE_clean_sbu_2, # of connection points: 7
#     Node 1, Type 0, BuildingBlock: NUHQUE_clean_sbu_2, # of connection points: 7
#     Node 2, Type 0, BuildingBlock: NUHQUE_clean_sbu_2, # of connection points: 7
#     Node 3, Type 0, BuildingBlock: NUHQUE_clean_sbu_2, # of connection points: 7
#     Node 4, Type 0, BuildingBlock: NUHQUE_clean_sbu_2, # of connection points: 7
#     Node 5, Type 0, BuildingBlock: NUHQUE_clean_sbu_2, # of connection points: 7
#     Node 6, Type 0, BuildingBlock: NUHQUE_clean_sbu_2, # of connection points: 7
#     Node 7, Type 0, BuildingBlock: NUHQUE_clean_sbu_2, # of connection points: 7
#     Edge 8, Type (0, 0), BuildingBlock: MIFKUJ_clean_linker_0, # of connection points: 2
#     Edge 9, Type (0, 0), BuildingBlock: MIFKUJ_clean_linker_0, # of connection points: 2
#     Edge 10, Type (0, 0), BuildingBlock: MIFKUJ_clean_linker_0, # of connection points: 2
#     Edge 11, Type (0, 0), BuildingBlock: MIFKUJ_clean_linker_0, # of connection points: 2
#     Edge 12, Type (0, 0), BuildingBlock: MIFKUJ_clean_linker_0, # of connection points: 2
#     Edge 13, Type (0, 0), BuildingBlock: MIFKUJ_clean_linker_0, # of connection points: 2
#     Edge 14, Type (0, 0), BuildingBlock: MIFKUJ_clean_linker_0, # of connection points: 2
#     Edge 15, Type (0, 0), BuildingBlock: MIFKUJ_clean_linker_0, # of connection points: 2
#     Edge 16, Type (0, 0), BuildingBlock: MIFKUJ_clean_linker_0, # of connection points: 2
#     Edge 17, Type (0, 0), BuildingBlock: MIFKUJ_clean_linker_0, # of connection points: 2
#     Edge 18, Type (0, 0), BuildingBlock: MIFKUJ_clean_linker_0, # of connection points: 2
#     Edge 19, Type (0, 0), BuildingBlock: MIFKUJ_clean_linker_0, # of connection points: 2
#     Edge 20, Type (0, 0), BuildingBlock: MIFKUJ_clean_linker_0, # of connection points: 2
#     Edge 21, Type (0, 0), BuildingBlock: MIFKUJ_clean_linker_0, # of connection points: 2
#     Edge 22, Type (0, 0), BuildingBlock: MIFKUJ_clean_linker_0, # of connection points: 2
#     Edge 23, Type (0, 0), BuildingBlock: MIFKUJ_clean_linker_0, # of connection points: 2
#     Edge 24, Type (0, 0), BuildingBlock: MIFKUJ_clean_linker_0, # of connection points: 2
#     Edge 25, Type (0, 0), BuildingBlock: MIFKUJ_clean_linker_0, # of connection points: 2
#     Edge 26, Type (0, 0), BuildingBlock: MIFKUJ_clean_linker_0, # of connection points: 2
#     Edge 27, Type (0, 0), BuildingBlock: MIFKUJ_clean_linker_0, # of connection points: 2
#     Edge 28, Type (0, 0), BuildingBlock: MIFKUJ_clean_linker_0, # of connection points: 2
#     Edge 29, Type (0, 0), BuildingBlock: MIFKUJ_clean_linker_0, # of connection points: 2
#     Edge 30, Type (0, 0), BuildingBlock: MIFKUJ_clean_linker_0, # of connection points: 2
#     Edge 31, Type (0, 0), BuildingBlock: MIFKUJ_clean_linker_0, # of connection points: 2
#     Edge 32, Type (0, 0), BuildingBlock: MIFKUJ_clean_linker_0, # of connection points: 2
#     Edge 33, Type (0, 0), BuildingBlock: MIFKUJ_clean_linker_0, # of connection points: 2
#     Edge 34, Type (0, 0), BuildingBlock: MIFKUJ_clean_linker_0, # of connection points: 2
#     Edge 35, Type (0, 0), BuildingBlock: MIFKUJ_clean_linker_0, # of connection points: 2
# Relax obj value: 0.095
# Max RMSD: 0.180
# Mean RMSD: 0.180
data_MOF--net-wft--node1-NUHQUE_clean_sbu_2--edge1-MIFKUJ_clean_linker_0
_symmetry_space_group_name_H-M    P1
_symmetry_Int_Tables_number       1
_symmetry_cell_setting            triclinic
loop_
_symmetry_equiv_pos_as_xyz
'x, y, z'
_cell_length_a     41.052194
_cell_length_b     40.863042
_cell_length_c     44.316911
_cell_angle_alpha  90.058771
_cell_angle_beta   89.965386
_cell_angle_gamma 90.154669
loop_
_atom_site_label
_atom_site_type_symbol
_atom_site_fract_x
_atom_site_fract_y
_atom_site_fract_z
_atom_type_partial_charge
O0 O 0.32005 0.31819 0.41452 0.0
Tb1 Tb 0.34594 0.27217 0.40876 0.0
Eu2 Eu 0.3365 0.19214 0.37302 0.0
C3 C 0.29575 0.32104 0.43378 0.0
O4 O 0.28446 0.2948 0.44731 0.0
C5 C 0.31746 0.21226 0.43902 0.0
O6 O 0.36391 0.14527 0.365 0.0
C7 C 0.28069 0.19411 0.34543 0.0
C8 C 0.39527 0.14484 0.37112 0.0
O9 O 0.40908 0.17161 0.38152 0.0
C10 C 0.38022 0.25346 0.34713 0.0
C11 C 0.26239 0.19775 0.31687 0.0
C12 C 0.22821 0.19867 0.31878 0.0
C13 C 0.20906 0.2 0.29265 0.0
C14 C 0.22439 0.20138 0.26447 0.0
C15 C 0.25853 0.20153 0.26179 0.0
C16 C 0.27764 0.19906 0.28826 0.0
O17 O 0.30864 0.23897 0.42487 0.0
O18 O 0.33285 0.18957 0.4238 0.0
O19 O 0.37616 0.29777 0.44157 0.0
O20 O 0.38686 0.24808 0.43146 0.0
C21 C 0.39527 0.2734 0.44759 0.0
O22 O 0.37581 0.22168 0.35024 0.0
O23 O 0.3641 0.27583 0.36262 0.0
O24 O 0.29734 0.167 0.34938 0.0
O25 O 0.29461 0.22022 0.35729 0.0
H26 H 0.21643 0.19746 0.34067 0.0
H27 H 0.20944 0.20245 0.24433 0.0
H28 H 0.30397 0.19853 0.28667 0.0
O29 O 0.30722 0.67498 0.65657 0.0
Tb30 Tb 0.25982 0.65135 0.65871 0.0
Eu31 Eu 0.18282 0.65671 0.69345 0.0
C32 C 0.3115 0.70384 0.64402 0.0
O33 O 0.28599 0.72079 0.63551 0.0
C34 C 0.20082 0.67811 0.62755 0.0
O35 O 0.13667 0.63004 0.70548 0.0
C36 C 0.18829 0.71272 0.72093 0.0
C37 C 0.11172 0.63075 0.68695 0.0
O38 O 0.11316 0.64976 0.66309 0.0
C39 C 0.24276 0.61287 0.7184 0.0
C40 C 0.19013 0.72993 0.75029 0.0
C41 C 0.19532 0.764 0.74992 0.0
C42 C 0.19542 0.78223 0.77683 0.0
C43 C 0.1898 0.76592 0.80417 0.0
C44 C 0.1846 0.73199 0.80522 0.0
C45 C 0.18513 0.71381 0.77812 0.0
O46 O 0.22726 0.68852 0.64114 0.0
O47 O 0.18087 0.65912 0.64262 0.0
O48 O 0.28281 0.62487 0.62174 0.0
O49 O 0.23741 0.60767 0.63861 0.0
C50 C 0.2603 0.60272 0.61876 0.0
O51 O 0.21112 0.61584 0.7146 0.0
O52 O 0.26433 0.63131 0.70419 0.0
O53 O 0.16014 0.69946 0.7136 0.0
O54 O 0.21365 0.69546 0.71208 0.0
H55 H 0.19931 0.77631 0.72857 0.0
H56 H 0.18914 0.77984 0.82502 0.0
H57 H 0.18082 0.68764 0.77858 0.0
O58 O 0.66299 0.68111 0.4256 0.0
Tb59 Tb 0.63837 0.72764 0.41828 0.0
Eu60 Eu 0.64922 0.80647 0.37884 0.0
C61 C 0.69029 0.67911 0.44111 0.0
O62 O 0.70521 0.70605 0.44953 0.0
C63 C 0.67088 0.78766 0.44392 0.0
O64 O 0.62182 0.85336 0.37077 0.0
C65 C 0.70371 0.80294 0.34904 0.0
C66 C 0.59054 0.85389 0.37726 0.0
O67 O 0.57692 0.8274 0.38841 0.0
C68 C 0.60193 0.7448 0.35725 0.0
C69 C 0.72022 0.79694 0.31986 0.0
C70 C 0.75429 0.79322 0.32015 0.0
C71 C 0.77174 0.78819 0.29325 0.0
C72 C 0.75455 0.78657 0.26596 0.0
C73 C 0.72064 0.79051 0.26502 0.0
C74 C 0.70337 0.796 0.2921 0.0
O75 O 0.67776 0.76075 0.42918 0.0
O76 O 0.65581 0.81094 0.42929 0.0
O77 O 0.60921 0.70608 0.4542 0.0
O78 O 0.60005 0.75534 0.44152 0.0
C79 C 0.59157 0.73173 0.45964 0.0
O80 O 0.60855 0.77642 0.35841 0.0
O81 O 0.61704 0.72235 0.3735 0.0
O82 O 0.68688 0.83011 0.35196 0.0
O83 O 0.69072 0.77774 0.3632 0.0
H84 H 0.76727 0.79434 0.34143 0.0
H85 H 0.76778 0.78354 0.24494 0.0
H86 H 0.67721 0.79945 0.29156 0.0
O87 O 0.69171 0.31404 0.64267 0.0
Tb88 Tb 0.7392 0.33686 0.64856 0.0
Eu89 Eu 0.81569 0.32806 0.6835 0.0
C90 C 0.68631 0.29676 0.6181 0.0
O91 O 0.71058 0.29192 0.59931 0.0
C92 C 0.79705 0.30401 0.61827 0.0
O93 O 0.86217 0.35635 0.68985 0.0
C94 C 0.81188 0.2739 0.71404 0.0
C95 C 0.86533 0.38254 0.67288 0.0
O96 O 0.84219 0.38905 0.65331 0.0
C97 C 0.75699 0.37457 0.7075 0.0
C98 C 0.80649 0.25591 0.74267 0.0
C99 C 0.79633 0.22304 0.74057 0.0
C100 C 0.79228 0.20385 0.76655 0.0
C101 C 0.79879 0.21779 0.79479 0.0
C102 C 0.80982 0.25023 0.79766 0.0
C103 C 0.81317 0.26958 0.77138 0.0
O104 O 0.76919 0.29703 0.63141 0.0
O105 O 0.81873 0.32131 0.63307 0.0
O106 O 0.71697 0.36773 0.61426 0.0
O107 O 0.76529 0.37844 0.62833 0.0
C108 C 0.74165 0.38722 0.6105 0.0
O109 O 0.78837 0.37062 0.70292 0.0
O110 O 0.73501 0.35551 0.69463 0.0
O111 O 0.83912 0.29061 0.71072 0.0
O112 O 0.78662 0.28703 0.70029 0.0
H113 H 0.79175 0.21229 0.71858 0.0
H114 H 0.79591 0.20287 0.81485 0.0
H115 H 0.82173 0.29461 0.77315 0.0
O116 O 0.82773 0.178 0.14027 0.0
Tb117 Tb 0.84763 0.22668 0.14808 0.0
Eu118 Eu 0.83485 0.30403 0.18459 0.0
C119 C 0.79692 0.17299 0.13342 0.0
O120 O 0.77637 0.19752 0.1346 0.0
C121 C 0.81325 0.28339 0.11957 0.0
O122 O 0.86143 0.35176 0.19074 0.0
C123 C 0.78039 0.30002 0.21433 0.0
C124 C 0.89141 0.35345 0.18036 0.0
O125 O 0.90373 0.32762 0.1669 0.0
C126 C 0.88149 0.24484 0.20957 0.0
C127 C 0.76322 0.29428 0.24323 0.0
C128 C 0.72915 0.29057 0.24214 0.0
C129 C 0.71085 0.28597 0.26861 0.0
C130 C 0.72731 0.28503 0.29632 0.0
C131 C 0.76139 0.28768 0.29809 0.0
C132 C 0.77943 0.2929 0.27134 0.0
O133 O 0.80682 0.25634 0.13426 0.0
O134 O 0.82851 0.30682 0.13404 0.0
O135 O 0.87827 0.2087 0.1116 0.0
O136 O 0.88684 0.25662 0.1285 0.0
C137 C 0.89601 0.23487 0.10876 0.0
O138 O 0.87612 0.27643 0.20621 0.0
O139 O 0.86597 0.22204 0.19401 0.0
O140 O 0.7969 0.32745 0.2112 0.0
O141 O 0.79374 0.27479 0.20056 0.0
H142 H 0.71693 0.29112 0.22047 0.0
H143 H 0.71342 0.28277 0.31702 0.0
H144 H 0.80569 0.29542 0.27232 0.0
O145 O 0.19018 0.17164 0.92038 0.0
Tb146 Tb 0.23478 0.14655 0.9078 0.0
Eu147 Eu 0.31278 0.15686 0.87577 0.0
C148 C 0.18373 0.17375 0.9494 0.0
O149 O 0.2047 0.16138 0.96864 0.0
C150 C 0.29093 0.17954 0.94125 0.0
O151 O 0.35914 0.12807 0.87146 0.0
C152 C 0.31241 0.21129 0.84544 0.0
C153 C 0.36284 0.10347 0.89023 0.0
O154 O 0.34011 0.09817 0.91055 0.0
C155 C 0.25379 0.11491 0.84704 0.0
C156 C 0.30879 0.22926 0.81657 0.0
C157 C 0.3003 0.26259 0.81825 0.0
C158 C 0.29866 0.282 0.79215 0.0
C159 C 0.30587 0.26763 0.76422 0.0
C160 C 0.31447 0.2345 0.76175 0.0
C161 C 0.31558 0.21507 0.7881 0.0
O162 O 0.26316 0.18597 0.92784 0.0
O163 O 0.31359 0.16351 0.92646 0.0
O164 O 0.2108 0.10607 0.93088 0.0
O165 O 0.26252 0.10868 0.93183 0.0
C166 C 0.23708 0.09227 0.94099 0.0
O167 O 0.28491 0.11582 0.85394 0.0
O168 O 0.23278 0.13492 0.85984 0.0
O169 O 0.33876 0.19357 0.84955 0.0
O170 O 0.28616 0.19916 0.8585 0.0
H171 H 0.29512 0.27347 0.84005 0.0
H172 H 0.30524 0.28255 0.74402 0.0
H173 H 0.32251 0.18956 0.78658 0.0
O174 O 0.15176 0.81783 0.14542 0.0
Tb175 Tb 0.13301 0.77021 0.15889 0.0
Eu176 Eu 0.14587 0.69337 0.19233 0.0
C177 C 0.18293 0.82401 0.14133 0.0
O178 O 0.20462 0.80199 0.14905 0.0
C179 C 0.16465 0.71368 0.12489 0.0
O180 O 0.119 0.64553 0.19766 0.0
C181 C 0.20114 0.69444 0.22114 0.0
C182 C 0.08717 0.64532 0.19414 0.0
O183 O 0.07228 0.67284 0.18766 0.0
C184 C 0.10507 0.75332 0.22143 0.0
C185 C 0.21756 0.699 0.25068 0.0
C186 C 0.25151 0.7043 0.25072 0.0
C187 C 0.26893 0.70731 0.27797 0.0
C188 C 0.25168 0.7051 0.30523 0.0
C189 C 0.21785 0.70045 0.30584 0.0
C190 C 0.20069 0.69696 0.27844 0.0
O191 O 0.17117 0.74247 0.13663 0.0
O192 O 0.14997 0.6913 0.14135 0.0
O193 O 0.09318 0.79084 0.13292 0.0
O194 O 0.09214 0.73996 0.14277 0.0
C195 C 0.07687 0.76385 0.12943 0.0
O196 O 0.10648 0.72172 0.21597 0.0
O197 O 0.12394 0.77428 0.20708 0.0
O198 O 0.18348 0.66783 0.21749 0.0
O199 O 0.18885 0.72039 0.2077 0.0
H200 H 0.26432 0.70609 0.22939 0.0
H201 H 0.26469 0.70633 0.32649 0.0
H202 H 0.1746 0.69289 0.27872 0.0
O203 O 0.80666 0.82013 0.91804 0.0
Tb204 Tb 0.75885 0.84119 0.9096 0.0
Eu205 Eu 0.68075 0.82922 0.87829 0.0
C206 C 0.81078 0.7893 0.92576 0.0
O207 O 0.78616 0.76883 0.92385 0.0
C208 C 0.70312 0.80935 0.94425 0.0
O209 O 0.63375 0.85499 0.86772 0.0
C210 C 0.68658 0.77413 0.8494 0.0
C211 C 0.61109 0.8577 0.88852 0.0
O212 O 0.61498 0.84241 0.91433 0.0
C213 C 0.73766 0.87464 0.85004 0.0
C214 C 0.68768 0.75626 0.82029 0.0
C215 C 0.69276 0.72222 0.82141 0.0
C216 C 0.6916 0.70334 0.79505 0.0
C217 C 0.68567 0.71852 0.76741 0.0
C218 C 0.68053 0.75244 0.76544 0.0
C219 C 0.68183 0.77149 0.79213 0.0
O220 O 0.73069 0.8024 0.93073 0.0
O221 O 0.68035 0.82483 0.9292 0.0
O222 O 0.782 0.87733 0.93864 0.0
O223 O 0.73131 0.88168 0.92992 0.0
C224 C 0.75606 0.8944 0.94416 0.0
O225 O 0.70663 0.87195 0.85708 0.0
O226 O 0.75993 0.85553 0.86222 0.0
O227 O 0.65839 0.78633 0.85787 0.0
O228 O 0.71183 0.79215 0.85741 0.0
H229 H 0.697 0.71029 0.8429 0.0
H230 H 0.68535 0.70361 0.74713 0.0
H231 H 0.67755 0.79762 0.79111 0.0
H232 H 0.3074 0.16437 0.23599 0.0
H233 H 0.32164 0.16175 0.18194 0.0
H234 H 0.25443 0.24002 0.16357 0.0
H235 H 0.24111 0.24361 0.21712 0.0
H236 H 0.24579 0.17296 0.13171 0.0
H237 H 0.32246 0.26132 0.1547 0.0
H238 H 0.36965 0.28434 0.18189 0.0
H239 H 0.43037 0.20745 0.14748 0.0
H240 H 0.38335 0.18368 0.12045 0.0
H241 H 0.24928 0.21272 0.97863 0.0
H242 H 0.25129 0.21657 0.03357 0.0
H243 H 0.34196 0.16356 0.03416 0.0
H244 H 0.34013 0.15956 0.97901 0.0
H245 H 0.34346 0.21166 0.07607 0.0
H246 H 0.27354 0.12392 0.0518 0.0
H247 H 0.22899 0.09329 1.02735 0.0
H248 H 0.15893 0.15905 0.06596 0.0
H249 H 0.20314 0.19041 0.09029 0.0
C250 C 0.2965 0.18167 0.22054 0.0
C251 C 0.27279 0.20389 0.23082 0.0
C252 C 0.30446 0.18001 0.18966 0.0
C253 C 0.28877 0.20046 0.16873 0.0
C254 C 0.26663 0.22385 0.17927 0.0
C255 C 0.25904 0.22582 0.20992 0.0
C256 C 0.2928 0.19593 0.13562 0.0
C257 C 0.26701 0.18168 0.11948 0.0
C258 C 0.32105 0.20602 0.11988 0.0
C259 C 0.34931 0.22049 0.13589 0.0
C260 C 0.34578 0.24913 0.15319 0.0
C261 C 0.37252 0.26236 0.16851 0.0
C262 C 0.40297 0.2473 0.16651 0.0
C263 C 0.40676 0.21905 0.14907 0.0
C264 C 0.38008 0.2057 0.13373 0.0
C265 C 0.26982 0.20206 0.99033 0.0
C266 C 0.29436 0.18553 0.97429 0.0
C267 C 0.27089 0.20422 1.02185 0.0
C268 C 0.29651 0.18987 0.03818 0.0
C269 C 0.32188 0.17473 1.02216 0.0
C270 C 0.32078 0.17248 0.99056 0.0
C271 C 0.29584 0.18969 0.0719 0.0
C272 C 0.32224 0.20282 0.0882 0.0
C273 C 0.26843 0.17778 0.08799 0.0
C274 C 0.24171 0.15966 0.07272 0.0
C275 C 0.24867 0.13207 0.05483 0.0
C276 C 0.22347 0.1145 0.04105 0.0
C277 C 0.19116 0.12414 0.04518 0.0
C278 C 0.18398 0.15151 0.06291 0.0
C279 C 0.2091 0.16922 0.07668 0.0
H280 H 0.17168 0.11044 0.03457 0.0
H281 H 0.42363 0.25757 0.17839 0.0
H282 H 0.14944 0.65909 0.09139 0.0
H283 H 0.15362 0.65207 0.03664 0.0
H284 H 0.19374 0.74931 1.02868 0.0
H285 H 0.19014 0.75632 0.08329 0.0
H286 H 0.12527 0.6824 0.99134 0.0
H287 H 0.2458 0.75425 0.97045 0.0
H288 H 0.2981 0.76452 0.99621 0.0
H289 H 0.28713 0.67518 0.04616 0.0
H290 H 0.23501 0.66415 1.02041 0.0
H291 H 0.13721 0.74821 0.84508 0.0
H292 H 0.13424 0.734 0.89843 0.0
H293 H 0.21589 0.66878 0.88753 0.0
H294 H 0.21924 0.68366 0.83377 0.0
H295 H 0.22606 0.70778 0.93405 0.0
H296 H 0.13854 0.63777 0.90596 0.0
H297 H 0.08774 0.62204 0.87992 0.0
H298 H 0.0359 0.6974 0.92734 0.0
H299 H 0.08655 0.71385 0.95313 0.0
C300 C 0.15959 0.67885 0.07806 0.0
C301 C 0.16969 0.7082 0.09192 0.0
C302 C 0.16176 0.67485 0.04666 0.0
C303 C 0.17427 0.7 1.02836 0.0
C304 C 0.18454 0.72925 0.0422 0.0
C305 C 0.18242 0.73325 0.07355 0.0
C306 C 0.17585 0.69618 0.99479 0.0
C307 C 0.14737 0.68783 0.97888 0.0
C308 C 0.20484 0.70225 0.9783 0.0
C309 C 0.23636 0.70853 0.99366 0.0
C310 C 0.25462 0.73672 0.98682 0.0
C311 C 0.28422 0.74269 1.00145 0.0
C312 C 0.29589 0.72056 1.02286 0.0
C313 C 0.27802 0.69236 1.02964 0.0
C314 C 0.24842 0.68626 1.01507 0.0
C315 C 0.15396 0.73014 0.85387 0.0
C316 C 0.17836 0.71692 0.83524 0.0
C317 C 0.15222 0.72195 0.88444 0.0
C318 C 0.17472 0.70014 0.8972 0.0
C319 C 0.19821 0.68564 0.87828 0.0
C320 C 0.19991 0.69383 0.84751 0.0
C321 C 0.17524 0.69513 0.93062 0.0
C322 C 0.20407 0.70196 0.94653 0.0
C323 C 0.14679 0.6869 0.94711 0.0
C324 C 0.11628 0.67699 0.93162 0.0
C325 C 0.11632 0.65104 0.91075 0.0
C326 C 0.08757 0.642 0.896 0.0
C327 C 0.05859 0.65866 0.902 0.0
C328 C 0.05832 0.68441 0.92276 0.0
C329 C 0.08701 0.69355 0.93753 0.0
H330 H 0.03636 0.65164 0.89054 0.0
H331 H 0.3188 0.72523 0.03417 0.0
H332 H 0.64865 0.81737 0.97943 0.0
H333 H 0.64464 0.81373 0.0345 0.0
H334 H 0.74592 0.78673 0.03937 0.0
H335 H 0.75018 0.79023 0.98443 0.0
H336 H 0.65466 0.76426 0.07562 0.0
H337 H 0.77914 0.82432 0.10192 0.0
H338 H 0.81724 0.86485 0.08043 0.0
H339 H 0.73841 0.91036 0.03279 0.0
H340 H 0.69991 0.87029 0.05405 0.0
H341 H 0.71553 0.73949 0.22603 0.0
H342 H 0.70351 0.74242 0.17194 0.0
H343 H 0.68152 0.8451 0.18112 0.0
H344 H 0.69329 0.84201 0.23544 0.0
H345 H 0.72791 0.83333 0.13805 0.0
H346 H 0.622 0.79277 0.16252 0.0
H347 H 0.58215 0.75535 0.18592 0.0
H348 H 0.62004 0.67536 0.13385 0.0
H349 H 0.66047 0.71221 0.11045 0.0
C350 C 0.67001 0.81033 0.99217 0.0
C351 C 0.69974 0.80412 0.97739 0.0
C352 C 0.66766 0.80823 1.0237 0.0
C353 C 0.69506 0.80031 0.0412 0.0
C354 C 0.72453 0.79326 1.02644 0.0
C355 C 0.72685 0.79508 0.99493 0.0
C356 C 0.69308 0.80024 0.07486 0.0
C357 C 0.67069 0.77935 0.08926 0.0
C358 C 0.71361 0.82026 0.09282 0.0
C359 C 0.73671 0.84406 0.07932 0.0
C360 C 0.76996 0.84299 0.08684 0.0
C361 C 0.79165 0.86589 0.07468 0.0
C362 C 0.78032 0.89011 0.05513 0.0
C363 C 0.74727 0.89147 0.0477 0.0
C364 C 0.7255 0.8686 0.05973 0.0
C365 C 0.70688 0.76234 0.21665 0.0
C366 C 0.70482 0.79041 0.23493 0.0
C367 C 0.70017 0.76406 0.18572 0.0
C368 C 0.69161 0.79399 0.17237 0.0
C369 C 0.688 0.82172 0.19091 0.0
C370 C 0.69436 0.8199 0.22197 0.0
C371 C 0.68992 0.79694 0.13885 0.0
C372 C 0.7118 0.81827 0.12444 0.0
C373 C 0.66883 0.77745 0.12099 0.0
C374 C 0.64445 0.75523 0.1349 0.0
C375 C 0.62202 0.76715 0.15623 0.0
C376 C 0.59929 0.74605 0.16946 0.0
C377 C 0.59861 0.71298 0.16143 0.0
C378 C 0.62061 0.70097 0.14008 0.0
C379 C 0.64342 0.72197 0.12679 0.0
H380 H 0.58099 0.69668 0.1717 0.0
H381 H 0.79714 0.90788 0.04587 0.0
H382 H 0.84586 0.21926 0.84055 0.0
H383 H 0.8483 0.23163 0.89437 0.0
H384 H 0.79515 0.32091 0.8794 0.0
H385 H 0.79153 0.30803 0.82514 0.0
H386 H 0.85625 0.31659 0.92734 0.0
H387 H 0.75006 0.27144 0.89737 0.0
H388 H 0.71657 0.23022 0.871 0.0
H389 H 0.7597 0.15405 0.9242 0.0
H390 H 0.79449 0.19463 0.94992 0.0
H391 H 0.81197 0.3365 0.0819 0.0
H392 H 0.81265 0.33664 1.02661 0.0
H393 H 0.81513 0.23102 1.02646 0.0
H394 H 0.81252 0.23086 0.08142 0.0
H395 H 0.77848 0.24716 0.9845 0.0
H396 H 0.88362 0.2843 1.01409 0.0
H397 H 0.92493 0.31883 0.03893 0.0
H398 H 0.89274 0.40209 0.98821 0.0
H399 H 0.85086 0.36818 0.96325 0.0
C400 C 0.83509 0.24185 0.84854 0.0
C401 C 0.81793 0.26238 0.82858 0.0
C402 C 0.83668 0.24892 0.87934 0.0
C403 C 0.82165 0.27698 0.89093 0.0
C404 C 0.80694 0.29911 0.87084 0.0
C405 C 0.80497 0.2918 0.83985 0.0
C406 C 0.81811 0.28065 0.92417 0.0
C407 C 0.83881 0.30201 0.93993 0.0
C408 C 0.79646 0.26039 0.94059 0.0
C409 C 0.77521 0.23606 0.92528 0.0
C410 C 0.7528 0.24585 0.9031 0.0
C411 C 0.73359 0.22257 0.88823 0.0
C412 C 0.73621 0.18947 0.89571 0.0
C413 C 0.75795 0.17962 0.91816 0.0
C414 C 0.77745 0.20274 0.93285 0.0
C415 C 0.81235 0.31334 0.06999 0.0
C416 C 0.81202 0.2837 0.08606 0.0
C417 C 0.81306 0.31342 0.03833 0.0
C418 C 0.81453 0.28385 1.02204 0.0
C419 C 0.81389 0.25424 0.03822 0.0
C420 C 0.81239 0.25415 0.06977 0.0
C421 C 0.81651 0.28346 0.98826 0.0
C422 C 0.79567 0.26234 0.97223 0.0
C423 C 0.83882 0.30323 0.97177 0.0
C424 C 0.86381 0.32374 0.987 0.0
C425 C 0.88509 0.31004 1.00841 0.0
C426 C 0.90868 0.32948 1.02247 0.0
C427 C 0.9114 0.36263 1.01523 0.0
C428 C 0.89057 0.3764 0.99384 0.0
C429 C 0.86691 0.35708 0.97969 0.0
H430 H 0.92971 0.37762 1.02614 0.0
H431 H 0.72128 0.17148 0.88424 0.0
H432 H 0.80544 0.32925 0.3257 0.0
H433 H 0.81992 0.32996 0.3797 0.0
H434 H 0.76454 0.24142 0.39328 0.0
H435 H 0.75073 0.24021 0.33974 0.0
H436 H 0.74522 0.29469 0.43047 0.0
H437 H 0.84282 0.23753 0.39953 0.0
H438 H 0.89351 0.23109 0.37027 0.0
H439 H 0.93189 0.31913 0.4097 0.0
H440 H 0.88119 0.32635 0.43888 0.0
H441 H 0.76598 0.2585 0.58306 0.0
H442 H 0.76807 0.25323 0.5281 0.0
H443 H 0.83903 0.33114 0.52388 0.0
H444 H 0.83764 0.3359 0.57894 0.0
H445 H 0.85254 0.28708 0.48138 0.0
H446 H 0.75832 0.34605 0.51167 0.0
H447 H 0.70883 0.3553 0.54195 0.0
H448 H 0.66414 0.27026 0.50283 0.0
H449 H 0.71372 0.25993 0.47272 0.0
C450 C 0.79729 0.30942 0.34007 0.0
C451 C 0.77669 0.28485 0.32852 0.0
C452 C 0.80537 0.30995 0.37094 0.0
C453 C 0.79293 0.28594 0.39063 0.0
C454 C 0.77414 0.26036 0.37865 0.0
C455 C 0.76635 0.25967 0.348 0.0
C456 C 0.79684 0.28857 0.42399 0.0
C457 C 0.76867 0.29266 0.44159 0.0
C458 C 0.8275 0.28714 0.4385 0.0
C459 C 0.85806 0.28268 0.42113 0.0
C460 C 0.86194 0.25568 0.40176 0.0
C461 C 0.8907 0.25185 0.38523 0.0
C462 C 0.91586 0.27474 0.38805 0.0
C463 C 0.91236 0.30145 0.40749 0.0
C464 C 0.88362 0.30541 0.42405 0.0
C465 C 0.78225 0.2743 0.57047 0.0
C466 C 0.80128 0.2979 0.5854 0.0
C467 C 0.78344 0.2713 0.53899 0.0
C468 C 0.80319 0.2923 0.52161 0.0
C469 C 0.82351 0.31471 0.53663 0.0
C470 C 0.82264 0.31743 0.56818 0.0
C471 C 0.80077 0.29237 0.48791 0.0
C472 C 0.8291 0.28911 0.47027 0.0
C473 C 0.77027 0.2952 0.47317 0.0
C474 C 0.73987 0.30203 0.49017 0.0
C475 C 0.738 0.32923 0.50958 0.0
C476 C 0.70998 0.33464 0.52674 0.0
C477 C 0.68351 0.31331 0.52439 0.0
C478 C 0.68479 0.28667 0.50466 0.0
C479 C 0.71285 0.28101 0.48754 0.0
H480 H 0.66196 0.31749 0.53785 0.0
H481 H 0.93811 0.27174 0.37523 0.0
H482 H 0.28743 0.18211 0.73143 0.0
H483 H 0.29084 0.17163 0.67669 0.0
H484 H 0.36094 0.24972 0.66781 0.0
H485 H 0.35823 0.25968 0.72211 0.0
H486 H 0.30123 0.25603 0.63252 0.0
H487 H 0.38735 0.17941 0.65505 0.0
H488 H 0.41087 0.13075 0.67951 0.0
H489 H 0.33895 0.0697 0.63705 0.0
H490 H 0.31472 0.1181 0.61263 0.0
H491 H 0.33443 0.26123 0.47756 0.0
H492 H 0.33851 0.25917 0.53231 0.0
H493 H 0.30202 0.15992 0.53133 0.0
H494 H 0.30178 0.16093 0.47593 0.0
H495 H 0.34164 0.16175 0.57298 0.0
H496 H 0.25517 0.23613 0.54929 0.0
H497 H 0.22928 0.28399 0.52545 0.0
H498 H 0.29535 0.34811 0.57201 0.0
H499 H 0.32235 0.30068 0.59525 0.0
C500 C 0.30445 0.19614 0.71792 0.0
C501 C 0.32242 0.22184 0.73103 0.0
C502 C 0.30621 0.19033 0.68664 0.0
C503 C 0.32586 0.2102 0.66811 0.0
C504 C 0.34545 0.23426 0.68158 0.0
C505 C 0.34396 0.23982 0.71265 0.0
C506 C 0.3237 0.20867 0.63456 0.0
C507 C 0.31027 0.23554 0.61939 0.0
C508 C 0.33445 0.18148 0.61759 0.0
C509 C 0.34896 0.15243 0.63233 0.0
C510 C 0.37631 0.15566 0.65121 0.0
C511 C 0.38985 0.12811 0.66498 0.0
C512 C 0.37635 0.09716 0.65993 0.0
C513 C 0.34935 0.09369 0.641 0.0
C514 C 0.33573 0.12117 0.62715 0.0
C515 C 0.32738 0.23896 0.48901 0.0
C516 C 0.31747 0.21136 0.47248 0.0
C517 C 0.32934 0.23786 0.52051 0.0
C518 C 0.31941 0.20979 0.53653 0.0
C519 C 0.30964 0.18205 0.51986 0.0
C520 C 0.30921 0.18267 0.48817 0.0
C521 C 0.31927 0.20944 0.57045 0.0
C522 C 0.33218 0.18222 0.58584 0.0
C523 C 0.30737 0.23616 0.58778 0.0
C524 C 0.29096 0.26477 0.57384 0.0
C525 C 0.26435 0.26043 0.55423 0.0
C526 C 0.24954 0.2875 0.54074 0.0
C527 C 0.26078 0.31908 0.54705 0.0
C528 C 0.2868 0.32366 0.56692 0.0
C529 C 0.3019 0.29668 0.58023 0.0
H530 H 0.24923 0.34 0.53665 0.0
H531 H 0.38686 0.07586 0.67062 0.0
H532 H 0.21332 0.74991 0.34614 0.0
H533 H 0.20354 0.74491 0.40039 0.0
H534 H 0.17989 0.64281 0.38881 0.0
H535 H 0.18963 0.6479 0.33414 0.0
H536 H 0.14228 0.67561 0.43548 0.0
H537 H 0.25349 0.65975 0.40526 0.0
H538 H 0.30353 0.67511 0.37787 0.0
H539 H 0.31057 0.76358 0.42985 0.0
H540 H 0.26011 0.7491 0.45709 0.0
H541 H 0.1728 0.63421 0.58893 0.0
H542 H 0.17101 0.63616 0.53395 0.0
H543 H 0.22005 0.72975 0.53548 0.0
H544 H 0.22377 0.72667 0.5906 0.0
H545 H 0.24396 0.69791 0.49254 0.0
H546 H 0.13161 0.71602 0.521 0.0
H547 H 0.07986 0.70271 0.54659 0.0
H548 H 0.07413 0.61195 0.49791 0.0
H549 H 0.12598 0.62463 0.47221 0.0
C550 C 0.20476 0.72673 0.35501 0.0
C551 C 0.20197 0.69936 0.33595 0.0
C552 C 0.19946 0.72381 0.38605 0.0
C553 C 0.19152 0.69336 0.39879 0.0
C554 C 0.18601 0.66654 0.37949 0.0
C555 C 0.19134 0.66949 0.34826 0.0
C556 C 0.19282 0.68903 0.4322 0.0
C557 C 0.16456 0.68011 0.44799 0.0
C558 C 0.2218 0.69529 0.44859 0.0
C559 C 0.25283 0.70347 0.43304 0.0
C560 C 0.2656 0.68257 0.41075 0.0
C561 C 0.29403 0.69112 0.39523 0.0
C562 C 0.31018 0.72034 0.40206 0.0
C563 C 0.298 0.74097 0.42455 0.0
C564 C 0.26948 0.7326 0.44004 0.0
C565 C 0.18294 0.65537 0.57756 0.0
C566 C 0.19803 0.68055 0.59418 0.0
C567 C 0.18177 0.65656 0.54598 0.0
C568 C 0.19463 0.68352 0.53017 0.0
C569 C 0.20978 0.70868 0.54687 0.0
C570 C 0.21176 0.70704 0.57845 0.0
C571 C 0.19307 0.68527 0.49635 0.0
C572 C 0.22151 0.69348 0.48028 0.0
C573 C 0.16416 0.67852 0.47978 0.0
C574 C 0.13278 0.67114 0.4949 0.0
C575 C 0.11936 0.69317 0.51586 0.0
C576 C 0.09001 0.68575 0.53036 0.0
C577 C 0.07375 0.65648 0.52393 0.0
C578 C 0.08675 0.63461 0.50289 0.0
C579 C 0.11608 0.64192 0.48831 0.0
H580 H 0.05105 0.65076 0.53521 0.0
H581 H 0.33214 0.72696 0.38997 0.0
H582 H 0.7098 0.80529 0.73754 0.0
H583 H 0.70714 0.81892 0.68337 0.0
H584 H 0.63526 0.74322 0.67021 0.0
H585 H 0.63701 0.73028 0.72394 0.0
H586 H 0.69953 0.74011 0.63495 0.0
H587 H 0.60636 0.80973 0.65991 0.0
H588 H 0.58089 0.85545 0.68755 0.0
H589 H 0.65246 0.9218 0.65186 0.0
H590 H 0.67841 0.87638 0.6241 0.0
H591 H 0.65875 0.73711 0.48227 0.0
H592 H 0.65808 0.73769 0.5371 0.0
H593 H 0.68733 0.83929 0.53662 0.0
H594 H 0.68463 0.8394 0.48124 0.0
H595 H 0.6501 0.83345 0.58032 0.0
H596 H 0.74138 0.76832 0.5517 0.0
H597 H 0.77125 0.72444 0.52538 0.0
H598 H 0.71242 0.65194 0.56968 0.0
H599 H 0.68183 0.69539 0.59594 0.0
C600 C 0.69264 0.79239 0.72325 0.0
C601 C 0.67389 0.76646 0.73497 0.0
C602 C 0.69131 0.8 0.69229 0.0
C603 C 0.67128 0.78175 0.67274 0.0
C604 C 0.65105 0.75742 0.68483 0.0
C605 C 0.65208 0.7501 0.71557 0.0
C606 C 0.67343 0.78536 0.63939 0.0
C607 C 0.68862 0.7604 0.62288 0.0
C608 C 0.66026 0.81239 0.62384 0.0
C609 C 0.64448 0.83966 0.64022 0.0
C610 C 0.6168 0.83403 0.65818 0.0
C611 C 0.60221 0.8599 0.67376 0.0
C612 C 0.6151 0.8915 0.67152 0.0
C613 C 0.6425 0.89732 0.65356 0.0
C614 C 0.6571 0.87155 0.63784 0.0
C615 C 0.66501 0.75959 0.4938 0.0
C616 C 0.67208 0.78811 0.4774 0.0
C617 C 0.66497 0.75986 0.52534 0.0
C618 C 0.67385 0.78821 0.54147 0.0
C619 C 0.68063 0.81694 0.52501 0.0
C620 C 0.67931 0.81698 0.49332 0.0
C621 C 0.67585 0.7877 0.5753 0.0
C622 C 0.6615 0.81323 0.59206 0.0
C623 C 0.69061 0.76143 0.59122 0.0
C624 C 0.70916 0.73517 0.57564 0.0
C625 C 0.73469 0.74303 0.55572 0.0
C626 C 0.75174 0.71823 0.54081 0.0
C627 C 0.7437 0.68544 0.54584 0.0
C628 C 0.7186 0.67736 0.56581 0.0
C629 C 0.70142 0.70207 0.58073 0.0
H630 H 0.757 0.66629 0.53436 0.0
H631 H 0.60381 0.91148 0.68365 0.0
H632 H 0.37344 0.08219 0.36174 0.0
H633 H 0.40628 0.03223 0.35887 0.0
H634 H 0.49391 0.08958 0.36924 0.0
H635 H 0.4614 0.13946 0.37225 0.0
H636 H 0.49931 0.04088 0.32492 0.0
H637 H 0.46457 0.05212 0.42856 0.0
H638 H 0.4241 0.05862 0.46926 0.0
H639 H 0.37774 0.96879 0.44266 0.0
H640 H 0.4177 0.96201 0.40151 0.0
H641 H 0.61162 0.91694 0.3687 0.0
H642 H 0.57804 0.96611 0.36391 0.0
H643 H 0.4911 0.90674 0.36947 0.0
H644 H 0.52445 0.8579 0.3754 0.0
H645 H 0.48416 0.95643 0.40406 0.0
H646 H 0.51927 0.94307 0.30176 0.0
H647 H 0.55859 0.93626 0.26016 0.0
H648 H 0.60261 0.02868 0.28219 0.0
H649 H 0.56384 0.03583 0.32422 0.0
C650 C 0.39971 0.08416 0.36318 0.0
C651 C 0.41481 0.11472 0.36745 0.0
C652 C 0.41841 0.05562 0.3616 0.0
C653 C 0.4525 0.05724 0.36407 0.0
C654 C 0.46765 0.08782 0.36729 0.0
C655 C 0.449 0.11627 0.36916 0.0
C656 C 0.47238 0.02701 0.3646 0.0
C657 C 0.49625 0.02247 0.34233 0.0
C658 C 0.46784 0.00277 0.38696 0.0
C659 C 0.44389 0.00675 0.41176 0.0
C660 C 0.44558 0.0339 0.43123 0.0
C661 C 0.42277 0.03761 0.45441 0.0
C662 C 0.3983 0.01418 0.45849 0.0
C663 C 0.39666 0.98695 0.43944 0.0
C664 C 0.4194 0.98315 0.4162 0.0
C665 C 0.58535 0.91441 0.36869 0.0
C666 C 0.57068 0.88359 0.37254 0.0
C667 C 0.56615 0.94251 0.36579 0.0
C668 C 0.53195 0.94018 0.36602 0.0
C669 C 0.51738 0.90927 0.36933 0.0
C670 C 0.53651 0.88132 0.37267 0.0
C671 C 0.51121 0.96993 0.36421 0.0
C672 C 0.48719 0.97455 0.3864 0.0
C673 C 0.51548 0.99407 0.34159 0.0
C674 C 0.53885 0.98982 0.31634 0.0
C675 C 0.5375 0.96182 0.2979 0.0
C676 C 0.55966 0.95792 0.27421 0.0
C677 C 0.58314 0.98197 0.26859 0.0
C678 C 0.58445 0.01003 0.2866 0.0
C679 C 0.56237 0.01403 0.31035 0.0
H680 H 0.60027 0.97891 0.25023 0.0
H681 H 0.38067 0.01709 0.47645 0.0
H682 H 0.87882 0.43583 0.63843 0.0
H683 H 0.92273 0.47533 0.64475 0.0
H684 H 0.95857 0.42139 0.72141 0.0
H685 H 0.91412 0.38151 0.71538 0.0
H686 H 0.9563 0.48803 0.73206 0.0
H687 H -0.00058 0.41712 0.65676 0.0
H688 H -0.00056 0.38473 0.60979 0.0
H689 H 0.98585 0.47228 0.55786 0.0
H690 H 0.98527 0.50518 0.60456 0.0
H691 H 0.10444 0.58353 0.73031 0.0
H692 H 0.06357 0.53989 0.73178 0.0
H693 H 0.01736 0.58021 0.65278 0.0
H694 H 0.05824 0.62365 0.65092 0.0
H695 H 0.02917 0.51576 0.6464 0.0
H696 H 0.98224 0.58592 0.72248 0.0
H697 H 0.98231 0.61801 0.76964 0.0
H698 H 0.00403 0.53129 0.82035 0.0
H699 H 0.00451 0.49875 0.77342 0.0
C700 C 0.89607 0.43215 0.65659 0.0
C701 C 0.89305 0.40543 0.67635 0.0
C702 C 0.92125 0.45476 0.6601 0.0
C703 C 0.94412 0.45112 0.68334 0.0
C704 C 0.9412 0.42456 0.70327 0.0
C705 C 0.91593 0.40175 0.6997 0.0
C706 C 0.97063 0.47557 0.68672 0.0
C707 C 0.97269 0.49372 0.71357 0.0
C708 C 0.99163 0.48327 0.6624 0.0
C709 C 0.99207 0.46359 0.63421 0.0
C710 C -0.00381 0.42945 0.63534 0.0
C711 C -0.00366 0.411 0.60876 0.0
C712 C 0.99259 0.42643 0.58087 0.0
C713 C 0.98874 0.46036 0.57949 0.0
C714 C 0.98854 0.47893 0.60601 0.0
C715 C 0.08529 0.58341 0.71351 0.0
C716 C 0.08469 0.60699 0.69039 0.0
C717 C 0.06192 0.55846 0.71443 0.0
C718 C 0.03744 0.55678 0.69237 0.0
C719 C 0.03614 0.58096 0.66994 0.0
C720 C 0.05947 0.60587 0.66899 0.0
C721 C 0.01429 0.52886 0.69143 0.0
C722 C 0.01298 0.50994 0.66502 0.0
C723 C -0.00587 0.52044 0.71618 0.0
C724 C -0.00622 0.53997 0.7444 0.0
C725 C 0.98731 0.57375 0.74366 0.0
C726 C 0.98719 0.59201 0.77036 0.0
C727 C 0.99327 0.57672 0.79797 0.0
C728 C -0.00062 0.54311 0.79894 0.0
C729 C -0.00045 0.52474 0.77231 0.0
H730 H 0.99317 0.5909 0.81861 0.0
H731 H 0.99271 0.4121 0.56031 0.0
H732 H 0.95591 0.36104 0.16748 0.0
H733 H 0.98905 0.41039 0.17258 0.0
H734 H 0.90558 0.46322 0.20581 0.0
H735 H 0.87205 0.41373 0.20079 0.0
H736 H 0.94059 0.49662 0.16084 0.0
H737 H 0.96249 0.4404 0.25434 0.0
H738 H 0.97843 0.39253 0.28472 0.0
H739 H 0.07188 0.39098 0.24118 0.0
H740 H 0.05634 0.43861 0.21026 0.0
H741 H 0.02235 0.63933 0.2053 0.0
H742 H 0.98972 0.58939 0.20607 0.0
H743 H 0.07575 0.53223 0.18763 0.0
H744 H 0.10885 0.58227 0.1882 0.0
H745 H 0.0392 0.50041 0.22552 0.0
H746 H 0.01942 0.55339 0.13128 0.0
H747 H 0.00503 0.59906 0.09753 0.0
H748 H 0.90998 0.60421 0.13771 0.0
H749 H 0.92397 0.55886 0.17202 0.0
C750 C 0.94453 0.38311 0.17594 0.0
C751 C 0.91132 0.38347 0.18378 0.0
C752 C 0.96358 0.41126 0.17894 0.0
C753 C 0.94984 0.44035 0.18982 0.0
C754 C 0.91664 0.44094 0.19745 0.0
C755 C 0.89756 0.41266 0.19465 0.0
C756 C 0.9701 0.47027 0.19267 0.0
C757 C 0.96185 0.49771 0.17535 0.0
C758 C -0.00151 0.47113 0.21076 0.0
C759 C 0.00815 0.44293 0.22982 0.0
C760 C 0.98637 0.42975 0.25113 0.0
C761 C -0.00465 0.40267 0.26847 0.0
C762 C 0.02612 0.38867 0.26484 0.0
C763 C 0.04805 0.40182 0.24397 0.0
C764 C 0.03919 0.4289 0.22656 0.0
C765 C 0.03437 0.6161 0.20157 0.0
C766 C 0.0681 0.6147 0.19638 0.0
C767 C 0.01565 0.58755 0.20187 0.0
C768 C 0.03008 0.55705 0.19613 0.0
C769 C 0.064 0.55547 0.19194 0.0
C770 C 0.08289 0.58406 0.19222 0.0
C771 C 0.00961 0.52705 0.1938 0.0
C772 C 0.01787 0.49951 0.21109 0.0
C773 C 0.9815 0.52585 0.17524 0.0
C774 C 0.97286 0.55292 0.15442 0.0
C775 C -0.00448 0.5644 0.13305 0.0
C776 C 0.98743 0.59021 0.11381 0.0
C777 C 0.95664 0.60459 0.11553 0.0
C778 C 0.93384 0.59309 0.13643 0.0
C779 C 0.94182 0.56731 0.15577 0.0
H780 H 0.95043 0.62459 0.10062 0.0
H781 H 0.03296 0.36766 0.27825 0.0
H782 H 0.38033 0.05636 0.9303 0.0
H783 H 0.42475 0.01721 0.92607 0.0
H784 H 0.4532 0.05968 0.84096 0.0
H785 H 0.40844 0.09926 0.845 0.0
H786 H 0.45038 0.99142 0.83941 0.0
H787 H 0.49939 0.07428 0.89993 0.0
H788 H 0.50342 0.11395 0.94172 0.0
H789 H 0.49686 0.03572 1.00606 0.0
H790 H 0.4923 0.99558 0.96465 0.0
H791 H 0.59919 0.89803 0.8404 0.0
H792 H 0.55817 0.94121 0.83701 0.0
H793 H 0.52104 0.91397 0.92455 0.0
H794 H 0.56207 0.87105 0.92827 0.0
H795 H 0.53214 0.97883 0.92095 0.0
H796 H 0.47892 0.8966 0.86013 0.0
H797 H 0.47459 0.85707 0.81824 0.0
H798 H 0.48954 0.93447 0.75421 0.0
H799 H 0.49438 0.97442 0.79577 0.0
C800 C 0.39609 0.05759 0.91072 0.0
C801 C 0.39091 0.08098 0.888 0.0
C802 C 0.42155 0.03521 0.90839 0.0
C803 C 0.44241 0.0357 0.88332 0.0
C804 C 0.43738 0.05898 0.86052 0.0
C805 C 0.41194 0.08163 0.86294 0.0
C806 C 0.46896 0.01129 0.88103 0.0
C807 C 0.46869 0.98901 0.8569 0.0
C808 C 0.49246 0.00789 0.90413 0.0
C809 C 0.49525 0.03193 0.92916 0.0
C810 C 0.49854 0.06554 0.92299 0.0
C811 C 0.50097 0.08811 0.94661 0.0
C812 C 0.50033 0.07737 0.97652 0.0
C813 C 0.49733 0.04401 0.98287 0.0
C814 C 0.49486 0.02133 0.95933 0.0
C815 C 0.58201 0.90093 0.85875 0.0
C816 C 0.58398 0.88115 0.88466 0.0
C817 C 0.55854 0.92561 0.85675 0.0
C818 C 0.53654 0.93082 0.88053 0.0
C819 C 0.53788 0.91048 0.906 0.0
C820 C 0.56127 0.88584 0.90802 0.0
C821 C 0.5131 0.95839 0.87973 0.0
C822 C 0.51405 0.98138 0.90327 0.0
C823 C 0.49031 0.96242 0.85607 0.0
C824 C 0.48739 0.93843 0.83107 0.0
C825 C 0.48157 0.90515 0.83713 0.0
C826 C 0.47896 0.88267 0.81344 0.0
C827 C 0.48189 0.89323 0.78358 0.0
C828 C 0.48734 0.92631 0.77735 0.0
C829 C 0.48999 0.94889 0.80096 0.0
H830 H 0.47986 0.87579 0.76528 0.0
H831 H 0.50223 0.09488 0.99478 0.0
H832 H 0.42324 0.30282 0.35772 0.0
H833 H 0.47566 0.31123 0.33302 0.0
H834 H 0.45177 0.2362 0.2679 0.0
H835 H 0.40019 0.22628 0.29403 0.0
H836 H 0.50658 0.22357 0.2857 0.0
H837 H 0.46311 0.32253 0.24971 0.0
H838 H 0.43411 0.37527 0.25078 0.0
H839 H 0.50517 0.41411 0.3123 0.0
H840 H 0.53436 0.36146 0.31195 0.0
H841 H 0.66644 0.31719 0.2318 0.0
H842 H 0.60698 0.31269 0.233 0.0
H843 H 0.61377 0.24413 0.30671 0.0
H844 H 0.6727 0.24632 0.30394 0.0
H845 H 0.56459 0.32896 0.27133 0.0
H846 H 0.55265 0.19297 0.31178 0.0
H847 H 0.5794 0.13993 0.30265 0.0
H848 H 0.61482 0.17452 0.21723 0.0
H849 H 0.58787 0.2276 0.22561 0.0
C850 C 0.42879 0.28882 0.3376 0.0
C851 C 0.40764 0.26395 0.32775 0.0
C852 C 0.45884 0.29369 0.32334 0.0
C853 C 0.46793 0.27452 0.29831 0.0
C854 C 0.44566 0.25119 0.28725 0.0
C855 C 0.41603 0.24568 0.30204 0.0
C856 C 0.50187 0.27612 0.2861 0.0
C857 C 0.51905 0.24669 0.28225 0.0
C858 C 0.51825 0.30612 0.28061 0.0
C859 C 0.50084 0.33793 0.28092 0.0
C860 C 0.47245 0.34224 0.26363 0.0
C861 C 0.45599 0.37214 0.26408 0.0
C862 C 0.46776 0.39801 0.28163 0.0
C863 C 0.49607 0.39405 0.29871 0.0
C864 C 0.51262 0.36419 0.29835 0.0
C865 C 0.6553 0.30049 0.24773 0.0
C866 C 0.6746 0.28225 0.26786 0.0
C867 C 0.6212 0.29823 0.24863 0.0
C868 C 0.60564 0.27779 0.26973 0.0
C869 C 0.62492 0.25952 0.2897 0.0
C870 C 0.65884 0.26128 0.28844 0.0
C871 C 0.56936 0.27647 0.2721 0.0
C872 C 0.55184 0.3059 0.27419 0.0
C873 C 0.55228 0.24642 0.27475 0.0
C874 C 0.56838 0.21439 0.26944 0.0
C875 C 0.56598 0.18922 0.29097 0.0
C876 C 0.58122 0.15915 0.28594 0.0
C877 C 0.59886 0.15388 0.25941 0.0
C878 C 0.60123 0.17866 0.23782 0.0
C879 C 0.586 0.20877 0.24271 0.0
H880 H 0.61066 0.13059 0.25558 0.0
H881 H 0.45498 0.42114 0.28195 0.0
H882 H 0.31951 0.32811 0.83328 0.0
H883 H 0.31 0.38734 0.83204 0.0
H884 H 0.25212 0.37557 0.7515 0.0
H885 H 0.25988 0.31667 0.75364 0.0
H886 H 0.32752 0.43156 0.79369 0.0
H887 H 0.19578 0.43175 0.74371 0.0
H888 H 0.145 0.39978 0.74849 0.0
H889 H 0.17457 0.36668 0.8362 0.0
H890 H 0.22529 0.39881 0.83216 0.0
H891 H 0.29542 0.5739 0.70842 0.0
H892 H 0.30646 0.52096 0.7317 0.0
H893 H 0.22666 0.53601 0.79369 0.0
H894 H 0.21443 0.58806 0.76909 0.0
H895 H 0.21954 0.48062 0.77286 0.0
H896 H 0.31183 0.53207 0.8157 0.0
H897 H 0.36181 0.5656 0.81772 0.0
H898 H 0.40954 0.49896 0.7573 0.0
H899 H 0.35971 0.46525 0.75456 0.0
C900 C 0.30407 0.3381 0.81578 0.0
C901 C 0.29056 0.31757 0.7935 0.0
C902 C 0.29895 0.37202 0.81489 0.0
C903 C 0.28013 0.38608 0.79181 0.0
C904 C 0.26623 0.36548 0.76991 0.0
C905 C 0.27104 0.3317 0.77094 0.0
C906 C 0.27605 0.42226 0.78947 0.0
C907 C 0.30388 0.44237 0.7894 0.0
C908 C 0.24515 0.4367 0.7848 0.0
C909 C 0.21447 0.41755 0.78752 0.0
C910 C 0.19137 0.41781 0.7641 0.0
C911 C 0.16261 0.39962 0.76666 0.0
C912 C 0.1566 0.38115 0.7926 0.0
C913 C 0.1793 0.38091 0.81607 0.0
C914 C 0.20808 0.39908 0.81364 0.0
C915 C 0.28085 0.5663 0.72757 0.0
C916 C 0.2541 0.58509 0.73697 0.0
C917 C 0.28721 0.53596 0.74099 0.0
C918 C 0.26754 0.52424 0.7647 0.0
C919 C 0.2421 0.54417 0.77534 0.0
C920 C 0.23524 0.57407 0.76141 0.0
C921 C 0.27116 0.48999 0.77605 0.0
C922 C 0.24319 0.47012 0.77769 0.0
C923 C 0.30182 0.4761 0.78319 0.0
C924 C 0.33193 0.49623 0.78479 0.0
C925 C 0.33291 0.52467 0.80268 0.0
C926 C 0.36123 0.5437 0.80398 0.0
C927 C 0.38882 0.53444 0.78761 0.0
C928 C 0.38816 0.5061 0.76996 0.0
C929 C 0.35989 0.48699 0.76857 0.0
H930 H 0.41071 0.54921 0.78864 0.0
H931 H 0.13433 0.36707 0.79453 0.0
H932 H 0.55959 0.69457 0.36818 0.0
H933 H 0.50625 0.6861 0.34517 0.0
H934 H 0.52582 0.76419 0.28211 0.0
H935 H 0.57851 0.77382 0.30621 0.0
H936 H 0.47094 0.77452 0.30319 0.0
H937 H 0.5173 0.67918 0.26096 0.0
H938 H 0.54799 0.62744 0.25925 0.0
H939 H 0.47915 0.58316 0.3198 0.0
H940 H 0.44825 0.63478 0.32222 0.0
H941 H 0.31552 0.68102 0.24009 0.0
H942 H 0.37478 0.68684 0.24356 0.0
H943 H 0.3635 0.74794 0.32231 0.0
H944 H 0.30476 0.74448 0.31759 0.0
H945 H 0.4166 0.66834 0.28253 0.0
H946 H 0.42303 0.80078 0.33193 0.0
H947 H 0.39417 0.8533 0.32655 0.0
H948 H 0.36133 0.82493 0.23832 0.0
H949 H 0.39037 0.77244 0.24297 0.0
C950 C 0.5529 0.70933 0.34887 0.0
C951 C 0.57329 0.73486 0.33901 0.0
C952 C 0.5223 0.70443 0.33562 0.0
C953 C 0.51177 0.72438 0.31167 0.0
C954 C 0.53308 0.74858 0.30065 0.0
C955 C 0.56335 0.75395 0.31432 0.0
C956 C 0.47751 0.72228 0.30032 0.0
C957 C 0.45925 0.75125 0.29843 0.0
C958 C 0.46212 0.69212 0.29329 0.0
C959 C 0.48057 0.66096 0.29192 0.0
C960 C 0.50882 0.65849 0.27408 0.0
C961 C 0.52624 0.62916 0.27296 0.0
C962 C 0.51556 0.60205 0.28945 0.0
C963 C 0.48739 0.60419 0.30705 0.0
C964 C 0.46989 0.63346 0.30826 0.0
C965 C 0.32562 0.6964 0.25767 0.0
C966 C 0.30509 0.71219 0.27857 0.0
C967 C 0.3596 0.69937 0.25986 0.0
C968 C 0.37385 0.71812 0.28302 0.0
C969 C 0.35337 0.73391 0.3038 0.0
C970 C 0.31955 0.73143 0.30134 0.0
C971 C 0.41 0.72047 0.28633 0.0
C972 C 0.42853 0.69159 0.28683 0.0
C973 C 0.42598 0.75083 0.29103 0.0
C974 C 0.40871 0.78255 0.28791 0.0
C975 C 0.40981 0.80581 0.31131 0.0
C976 C 0.39338 0.83557 0.3084 0.0
C977 C 0.37586 0.84241 0.28214 0.0
C978 C 0.37482 0.81956 0.25869 0.0
C979 C 0.39123 0.78978 0.26147 0.0
H980 H 0.36314 0.86545 0.27995 0.0
H981 H 0.52908 0.57937 0.28855 0.0
H982 H 0.74881 0.67021 0.79578 0.0
H983 H 0.75662 0.61146 0.78654 0.0
H984 H 0.65245 0.59755 0.78421 0.0
H985 H 0.64472 0.6564 0.7933 0.0
H986 H 0.68506 0.54558 0.81312 0.0
H987 H 0.68857 0.60348 0.71942 0.0
H988 H 0.70593 0.64617 0.68349 0.0
H989 H 0.80504 0.61382 0.69087 0.0
H990 H 0.78829 0.57118 0.72717 0.0
H991 H 0.69476 0.3975 0.71885 0.0
H992 H 0.68008 0.45106 0.74027 0.0
H993 H 0.78164 0.47273 0.75481 0.0
H994 H 0.7965 0.41966 0.73438 0.0
H995 H 0.74618 0.52007 0.71939 0.0
H996 H 0.74054 0.46037 0.813 0.0
H997 H 0.72092 0.41678 0.84689 0.0
H998 H 0.62292 0.45186 0.83772 0.0
H999 H 0.64193 0.49541 0.80335 0.0
C1000 C 0.72768 0.65436 0.79411 0.0
C1001 C 0.69621 0.6675 0.79555 0.0
C1002 C 0.7321 0.62093 0.78863 0.0
C1003 C 0.70509 0.60017 0.78443 0.0
C1004 C 0.6736 0.61306 0.78747 0.0
C1005 C 0.66919 0.64657 0.79271 0.0
C1006 C 0.70985 0.56574 0.77449 0.0
C1007 C 0.69807 0.53997 0.79245 0.0
C1008 C 0.72687 0.55839 0.74755 0.0
C1009 C 0.73722 0.58436 0.72621 0.0
C1010 C 0.71411 0.60569 0.7136 0.0
C1011 C 0.72383 0.62982 0.69312 0.0
C1012 C 0.75658 0.63274 0.68495 0.0
C1013 C 0.77969 0.61158 0.69729 0.0
C1014 C 0.77011 0.58742 0.71782 0.0
C1015 C 0.7139 0.41336 0.72723 0.0
C1016 C 0.74683 0.40419 0.72466 0.0
C1017 C 0.70547 0.44397 0.7394 0.0
C1018 C 0.72984 0.46591 0.7489 0.0
C1019 C 0.76249 0.45625 0.74747 0.0
C1020 C 0.77088 0.42572 0.73579 0.0
C1021 C 0.72197 0.49988 0.75827 0.0
C1022 C 0.73308 0.52564 0.74003 0.0
C1023 C 0.70408 0.50708 0.78474 0.0
C1024 C 0.69259 0.48087 0.80528 0.0
C1025 C 0.71475 0.45857 0.81792 0.0
C1026 C 0.70376 0.43392 0.83729 0.0
C1027 C 0.67067 0.43147 0.84437 0.0
C1028 C 0.64853 0.45373 0.83216 0.0
C1029 C 0.6594 0.47841 0.81274 0.0
H1030 H 0.66221 0.41239 0.85939 0.0
H1031 H 0.76404 0.65136 0.66901 0.0
H1032 H 0.917 0.18817 0.20808 0.0
H1033 H 0.96884 0.17789 0.2333 0.0
H1034 H 0.96044 0.2697 0.28086 0.0
H1035 H 0.90908 0.28052 0.25506 0.0
H1036 H 0.01653 0.26729 0.25547 0.0
H1037 H 0.95802 0.19367 0.31797 0.0
H1038 H 0.92023 0.14881 0.33081 0.0
H1039 H 0.98031 0.08069 0.28248 0.0
H1040 H 0.01827 0.12523 0.26898 0.0
H1041 H 0.16981 0.24014 0.32616 0.0
H1042 H 0.11026 0.24507 0.32292 0.0
H1043 H 0.10759 0.16554 0.2589 0.0
H1044 H 0.1669 0.1606 0.26205 0.0
H1045 H 0.05564 0.1636 0.30068 0.0
H1046 H 0.1089 0.24079 0.23299 0.0
H1047 H 0.14629 0.28637 0.22118 0.0
H1048 H 0.09451 0.3487 0.28266 0.0
H1049 H 0.0569 0.30339 0.29497 0.0
C1050 C 0.92573 0.20577 0.22451 0.0
C1051 C 0.90898 0.23526 0.22938 0.0
C1052 C 0.95544 0.19984 0.23901 0.0
C1053 C 0.96869 0.223 0.25908 0.0
C1054 C 0.95091 0.25152 0.26536 0.0
C1055 C 0.92145 0.25763 0.25064 0.0
C1056 C 0.00248 0.21919 0.27085 0.0
C1057 C 0.02476 0.24485 0.26603 0.0
C1058 C 0.01362 0.18979 0.28422 0.0
C1059 C 0.99088 0.16287 0.29227 0.0
C1060 C 0.96306 0.16917 0.30987 0.0
C1061 C 0.94163 0.14379 0.31731 0.0
C1062 C 0.94783 0.11193 0.30742 0.0
C1063 C 0.97553 0.10539 0.29012 0.0
C1064 C -0.00296 0.13069 0.2826 0.0
C1065 C 0.15638 0.22331 0.31191 0.0
C1066 C 0.17292 0.20017 0.29417 0.0
C1067 C 0.12244 0.22622 0.30997 0.0
C1068 C 0.10454 0.20583 0.29047 0.0
C1069 C 0.12089 0.18149 0.27409 0.0
C1070 C 0.15476 0.17882 0.27577 0.0
C1071 C 0.06932 0.2115 0.28493 0.0
C1072 C 0.04698 0.1862 0.29073 0.0
C1073 C 0.05795 0.24133 0.27273 0.0
C1074 C 0.08037 0.26862 0.26517 0.0
C1075 C 0.10563 0.26416 0.24414 0.0
C1076 C 0.1268 0.28996 0.23729 0.0
C1077 C 0.12279 0.3204 0.25119 0.0
C1078 C 0.09755 0.32512 0.2719 0.0
C1079 C 0.07629 0.2994 0.2788 0.0
H1080 H 0.13921 0.34035 0.24587 0.0
H1081 H 0.93121 0.09231 0.3132 0.0
H1082 H 0.1908 0.09315 0.83856 0.0
H1083 H 0.17411 0.04053 0.8168 0.0
H1084 H 0.27396 0.02027 0.79306 0.0
H1085 H 0.29056 0.07285 0.8137 0.0
H1086 H 0.23505 0.99383 0.75217 0.0
H1087 H 0.23977 -0.00212 0.86224 0.0
H1088 H 0.22292 0.01858 0.91202 0.0
H1089 H 0.12424 0.98919 0.89434 0.0
H1090 H 0.14049 0.96877 0.84411 0.0
H1091 H 0.23229 0.81805 0.81617 0.0
H1092 H 0.23648 0.87742 0.82017 0.0
H1093 H 0.17528 0.88814 0.74178 0.0
H1094 H 0.17034 0.82836 0.73798 0.0
H1095 H 0.18719 0.92085 0.82994 0.0
H1096 H 0.20154 0.96162 0.70657 0.0
H1097 H 0.2221 0.94037 0.65803 0.0
H1098 H 0.28867 0.87766 0.70509 0.0
H1099 H 0.26882 0.89886 0.75385 0.0
C1100 C 0.20904 0.07792 0.8279 0.0
C1101 C 0.24211 0.08703 0.82837 0.0
C1102 C 0.19949 0.04773 0.8156 0.0
C1103 C 0.22289 0.02603 0.80391 0.0
C1104 C 0.25543 0.0364 0.80206 0.0
C1105 C 0.26493 0.06652 0.81411 0.0
C1106 C 0.21478 0.99125 0.79698 0.0
C1107 C 0.22412 0.97797 0.76901 0.0
C1108 C 0.20087 0.97032 0.81901 0.0
C1109 C 0.19125 0.98225 0.8493 0.0
C1110 C 0.21442 -0.00385 0.86886 0.0
C1111 C 0.20494 0.00795 0.89712 0.0
C1112 C 0.17243 0.0055 0.90626 0.0
C1113 C 0.14936 0.99125 0.88715 0.0
C1114 C 0.15869 0.97958 0.85878 0.0
C1115 C 0.2196 0.83296 0.79978 0.0
C1116 C 0.20066 0.81838 0.77695 0.0
C1117 C 0.22208 0.86693 0.80208 0.0
C1118 C 0.20603 0.88726 0.78142 0.0
C1119 C 0.18796 0.87292 0.75792 0.0
C1120 C 0.18532 0.83875 0.75568 0.0
C1121 C 0.20784 0.92337 0.78531 0.0
C1122 C 0.19733 0.93683 0.81277 0.0
C1123 C 0.22103 0.94429 0.76297 0.0
C1124 C 0.23336 0.93151 0.73383 0.0
C1125 C 0.22059 0.94333 0.70653 0.0
C1126 C 0.23213 0.9313 0.67899 0.0
C1127 C 0.25658 0.90757 0.67848 0.0
C1128 C 0.26963 0.89592 0.70551 0.0
C1129 C 0.2582 0.90789 0.73311 0.0
H1130 H 0.26547 0.89828 0.65714 0.0
H1131 H 0.1651 0.01427 0.92826 0.0
H1132 H 0.81571 0.82601 0.3245 0.0
H1133 H 0.87517 0.82662 0.31902 0.0
H1134 H 0.86905 0.74682 0.25553 0.0
H1135 H 0.80986 0.74585 0.26107 0.0
H1136 H 0.92439 0.78171 0.32732 0.0
H1137 H 0.92185 0.76152 0.19785 0.0
H1138 H 0.88547 0.77218 0.1547 0.0
H1139 H 0.84229 0.85263 0.20242 0.0
H1140 H 0.87878 0.84284 0.24564 0.0
H1141 H 0.06949 0.71912 0.26265 0.0
H1142 H 0.01594 0.73325 0.28245 0.0
H1143 H 0.02222 0.82783 0.23969 0.0
H1144 H 0.07596 0.81367 0.21948 0.0
H1145 H 0.96776 0.79646 0.22367 0.0
H1146 H 0.01997 0.82156 0.31661 0.0
H1147 H 0.05667 0.81274 0.35984 0.0
H1148 H 0.00165 0.72775 0.38566 0.0
H1149 H 0.96487 0.73577 0.34233 0.0
C1150 C 0.82709 0.80818 0.30982 0.0
C1151 C 0.80798 0.78611 0.29297 0.0
C1152 C 0.86107 0.80865 0.30663 0.0
C1153 C 0.8765 0.78719 0.28643 0.0
C1154 C 0.85762 0.76407 0.27077 0.0
C1155 C 0.82377 0.76357 0.27395 0.0
C1156 C 0.91213 0.78959 0.28068 0.0
C1157 C 0.93393 0.78506 0.3047 0.0
C1158 C 0.92459 0.79473 0.25124 0.0
C1159 C 0.9029 0.80124 0.22511 0.0
C1160 C 0.90472 0.7816 0.19908 0.0
C1161 C 0.88406 0.78748 0.17461 0.0
C1162 C 0.86152 0.813 0.17586 0.0
C1163 C 0.85969 0.8328 0.20153 0.0
C1164 C 0.88035 0.82708 0.22603 0.0
C1165 C 0.05993 0.74331 0.25813 0.0
C1166 C 0.07697 0.76522 0.23937 0.0
C1167 C 0.02927 0.7514 0.26957 0.0
C1168 C 0.01496 0.78161 0.26257 0.0
C1169 C 0.03278 0.80437 0.24539 0.0
C1170 C 0.06363 0.79635 0.23405 0.0
C1171 C 0.98014 0.78755 0.27017 0.0
C1172 C 0.95837 0.79354 0.2464 0.0
C1173 C 0.96781 0.78401 0.29985 0.0
C1174 C 0.98976 0.77918 0.32608 0.0
C1175 C 0.01582 0.80085 0.33137 0.0
C1176 C 0.03662 0.79602 0.35593 0.0
C1177 C 0.03153 0.76968 0.37545 0.0
C1178 C 0.00557 0.74815 0.37051 0.0
C1179 C 0.9847 0.75286 0.34598 0.0
H1180 H 0.04767 0.76597 0.39444 0.0
H1181 H 0.84551 0.81747 0.15691 0.0
H1182 H 0.7464 0.17163 0.79981 0.0
H1183 H 0.73928 0.11248 0.80468 0.0
H1184 H 0.81116 0.09682 0.73522 0.0
H1185 H 0.81843 0.15628 0.73021 0.0
H1186 H 0.7582 0.0503 0.73411 0.0
H1187 H 0.83655 0.09557 0.80399 0.0
H1188 H 0.85404 0.13568 0.84239 0.0
H1189 H 0.77758 0.10332 0.90145 0.0
H1190 H 0.75898 0.06382 0.86298 0.0
H1191 H 0.79852 0.90223 0.84402 0.0
H1192 H 0.81186 0.95474 0.82023 0.0
H1193 H 0.71216 0.96451 0.79103 0.0
H1194 H 0.69884 0.91215 0.81418 0.0
H1195 H 0.78759 0.01232 0.8369 0.0
H1196 H 0.70667 0.01268 0.72961 0.0
H1197 H 0.68718 0.97358 0.69116 0.0
H1198 H 0.77099 0.91316 0.70623 0.0
H1199 H 0.79121 0.95207 0.74448 0.0
C1200 C 0.76025 0.15562 0.78515 0.0
C1201 C 0.78328 0.16859 0.76489 0.0
C1202 C 0.75612 0.12183 0.78793 0.0
C1203 C 0.77509 0.10024 0.77067 0.0
C1204 C 0.79632 0.11306 0.74877 0.0
C1205 C 0.8004 0.14701 0.7459 0.0
C1206 C 0.77523 0.06475 0.77806 0.0
C1207 C 0.76475 0.04187 0.75649 0.0
C1208 C 0.78443 0.05374 0.80711 0.0
C1209 C 0.79633 0.07677 0.83061 0.0
C1210 C 0.82338 0.09713 0.82512 0.0
C1211 C 0.83342 0.11984 0.84686 0.0
C1212 C 0.81686 0.12214 0.87433 0.0
C1213 C 0.7903 0.10164 0.88014 0.0
C1214 C 0.78 0.07909 0.85839 0.0
C1215 C 0.77967 0.91512 0.83181 0.0
C1216 C 0.74758 0.90298 0.83113 0.0
C1217 C 0.78727 0.94526 0.81838 0.0
C1218 C 0.76306 0.96363 0.80372 0.0
C1219 C 0.73142 0.95071 0.80177 0.0
C1220 C 0.7238 0.92073 0.81521 0.0
C1221 C 0.76979 -0.00239 0.79318 0.0
C1222 C 0.78152 0.02042 0.81429 0.0
C1223 C 0.76186 0.00839 0.76367 0.0
C1224 C 0.75036 0.98525 0.74008 0.0
C1225 C 0.72107 0.99118 0.72458 0.0
C1226 C 0.70986 0.969 0.70285 0.0
C1227 C 0.72779 0.94087 0.69631 0.0
C1228 C 0.75706 0.93491 0.71138 0.0
C1229 C 0.76839 0.957 0.73312 0.0
H1230 H 0.71902 0.9237 0.67954 0.0
H1231 H 0.82463 0.13976 0.89112 0.0
H1232 H 0.32437 0.38019 0.42199 0.0
H1233 H 0.31346 0.43218 0.44737 0.0
H1234 H 0.23303 0.38806 0.49505 0.0
H1235 H 0.24392 0.33582 0.47004 0.0
H1236 H 0.22334 0.45686 0.47651 0.0
H1237 H 0.29918 0.38586 0.52794 0.0
H1238 H 0.34818 0.35117 0.53071 0.0
H1239 H 0.40826 0.43386 0.50838 0.0
H1240 H 0.35949 0.46887 0.50494 0.0
H1241 H 0.21524 0.55433 0.6098 0.0
H1242 H 0.21766 0.50985 0.57265 0.0
H1243 H 0.30904 0.54779 0.53927 0.0
H1244 H 0.30696 0.59179 0.57665 0.0
H1245 H 0.31288 0.48386 0.54764 0.0
H1246 H 0.23898 0.55628 0.49857 0.0
H1247 H 0.19069 0.59178 0.49452 0.0
H1248 H 0.12821 0.5092 0.51073 0.0
H1249 H 0.17615 0.47324 0.51523 0.0
C1250 C 0.30383 0.3817 0.43727 0.0
C1251 C 0.28525 0.35377 0.44426 0.0
C1252 C 0.29763 0.41145 0.45173 0.0
C1253 C 0.27261 0.41382 0.47322 0.0
C1254 C 0.25238 0.38672 0.47846 0.0
C1255 C 0.25878 0.35685 0.46425 0.0
C1256 C 0.27053 0.44284 0.49316 0.0
C1257 C 0.24274 0.46274 0.49223 0.0
C1258 C 0.2962 0.45071 0.51321 0.0
C1259 C 0.32565 0.42988 0.5159 0.0
C1260 C 0.32282 0.39657 0.52344 0.0
C1261 C 0.35055 0.37686 0.52513 0.0
C1262 C 0.38132 0.39029 0.51966 0.0
C1263 C 0.38441 0.42348 0.51257 0.0
C1264 C 0.35672 0.44326 0.51075 0.0
C1265 C 0.23574 0.55315 0.59445 0.0
C1266 C 0.26095 0.57634 0.59609 0.0
C1267 C 0.23703 0.52789 0.57313 0.0
C1268 C 0.26341 0.52564 0.55298 0.0
C1269 C 0.28847 0.54902 0.55456 0.0
C1270 C 0.28722 0.57416 0.57588 0.0
C1271 C 0.26564 0.49818 0.53111 0.0
C1272 C 0.2935 0.47835 0.53177 0.0
C1273 C 0.24015 0.49065 0.51068 0.0
C1274 C 0.2112 0.51209 0.50751 0.0
C1275 C 0.21495 0.54571 0.50147 0.0
C1276 C 0.18764 0.56592 0.49907 0.0
C1277 C 0.15641 0.55277 0.50248 0.0
C1278 C 0.15242 0.51935 0.50814 0.0
C1279 C 0.17966 0.49903 0.51056 0.0
H1280 H 0.13529 0.56843 0.5007 0.0
H1281 H 0.40277 0.37501 0.52097 0.0
H1282 H 0.5532 0.78386 0.47508 0.0
H1283 H 0.50914 0.7845 0.51268 0.0
H1284 H 0.52897 0.68354 0.53419 0.0
H1285 H 0.57267 0.68278 0.49681 0.0
H1286 H 0.46538 0.69348 0.52277 0.0
H1287 H 0.54891 0.74189 0.5832 0.0
H1288 H 0.59243 0.78143 0.59543 0.0
H1289 H 0.52354 0.86019 0.59169 0.0
H1290 H 0.47964 0.82114 0.57903 0.0
H1291 H 0.36797 0.66912 0.64902 0.0
H1292 H 0.41957 0.68049 0.62374 0.0
H1293 H 0.3819 0.77238 0.59153 0.0
H1294 H 0.32981 0.76113 0.61655 0.0
H1295 H 0.45442 0.76975 0.60945 0.0
H1296 H 0.37178 0.71887 0.54578 0.0
H1297 H 0.32961 0.67736 0.53503 0.0
H1298 H 0.39995 0.60086 0.5468 0.0
H1299 H 0.44245 0.64195 0.5581 0.0
C1300 C 0.54819 0.76194 0.48802 0.0
C1301 C 0.56605 0.7332 0.48295 0.0
C1302 C 0.52321 0.76237 0.50956 0.0
C1303 C 0.51587 0.73407 0.52625 0.0
C1304 C 0.5342 0.70561 0.52151 0.0
C1305 C 0.55913 0.70521 0.50015 0.0
C1306 C 0.48779 0.73319 0.54726 0.0
C1307 C 0.46324 0.70998 0.54187 0.0
C1308 C 0.48475 0.75506 0.57192 0.0
C1309 C 0.51103 0.77861 0.57979 0.0
C1310 C 0.54307 0.76768 0.58471 0.0
C1311 C 0.56782 0.78999 0.59178 0.0
C1312 C 0.56078 0.82332 0.59419 0.0
C1313 C 0.52896 0.83437 0.58973 0.0
C1314 C 0.50412 0.81215 0.58264 0.0
C1315 C 0.37081 0.69217 0.63724 0.0
C1316 C 0.34456 0.71399 0.63439 0.0
C1317 C 0.4004 0.69864 0.62289 0.0
C1318 C 0.40437 0.72713 0.60565 0.0
C1319 C 0.37927 0.75031 0.60485 0.0
C1320 C 0.34948 0.74373 0.61902 0.0
C1321 C 0.43242 0.72996 0.58486 0.0
C1322 C 0.45675 0.75344 0.59025 0.0
C1323 C 0.4356 0.70817 0.56025 0.0
C1324 C 0.41019 0.68345 0.55308 0.0
C1325 C 0.37818 0.69318 0.54633 0.0
C1326 C 0.35424 0.66974 0.5401 0.0
C1327 C 0.36208 0.63648 0.5403 0.0
C1328 C 0.39391 0.62662 0.54669 0.0
C1329 C 0.41793 0.64997 0.55298 0.0
H1330 H 0.34354 0.61837 0.5354 0.0
H1331 H 0.57997 0.84059 0.59954 0.0
H1332 H 0.78908 0.43386 0.60335 0.0
H1333 H 0.78688 0.48244 0.57072 0.0
H1334 H 0.6921 0.45257 0.53875 0.0
H1335 H 0.69394 0.40457 0.57147 0.0
H1336 H 0.73229 0.47458 0.49258 0.0
H1337 H 0.69707 0.50824 0.59159 0.0
H1338 H 0.70262 0.51523 0.64662 0.0
H1339 H 0.7873 0.57541 0.63337 0.0
H1340 H 0.78261 0.56829 0.5782 0.0
H1341 H 0.65943 0.61977 0.43745 0.0
H1342 H 0.67492 0.56889 0.46236 0.0
H1343 H 0.76227 0.61506 0.49608 0.0
H1344 H 0.74652 0.6663 0.47184 0.0
H1345 H 0.73239 0.58461 0.54001 0.0
H1346 H 0.76425 0.55509 0.43997 0.0
H1347 H 0.75794 0.54781 0.38505 0.0
H1348 H 0.67931 0.48019 0.39982 0.0
H1349 H 0.68483 0.48741 0.45485 0.0
C1350 C 0.76792 0.43765 0.58919 0.0
C1351 C 0.74169 0.41554 0.5899 0.0
C1352 C 0.76668 0.46534 0.57062 0.0
C1353 C 0.73926 0.47114 0.55241 0.0
C1354 C 0.71352 0.44851 0.55252 0.0
C1355 C 0.7146 0.42113 0.57126 0.0
C1356 C 0.73646 0.50144 0.5342 0.0
C1357 C 0.73217 0.49867 0.50289 0.0
C1358 C 0.73701 0.53285 0.54766 0.0
C1359 C 0.73978 0.53732 0.58079 0.0
C1360 C 0.71707 0.52269 0.60041 0.0
C1361 C 0.72002 0.52672 0.63161 0.0
C1362 C 0.74538 0.54561 0.64345 0.0
C1363 C 0.76774 0.56068 0.62413 0.0
C1364 C 0.76496 0.55665 0.5929 0.0
C1365 C 0.68222 0.61897 0.44973 0.0
C1366 C 0.70171 0.64713 0.45266 0.0
C1367 C 0.69112 0.58978 0.46391 0.0
C1368 C 0.71993 0.588 0.48095 0.0
C1369 C 0.73993 0.61582 0.48309 0.0
C1370 C 0.73094 0.64507 0.4691 0.0
C1371 C 0.72795 0.55789 0.49822 0.0
C1372 C 0.73308 0.56064 0.52947 0.0
C1373 C 0.72815 0.52648 0.48466 0.0
C1374 C 0.72481 0.522 0.45156 0.0
C1375 C 0.74545 0.53885 0.43152 0.0
C1376 C 0.74204 0.5347 0.40036 0.0
C1377 C 0.7182 0.5136 0.38895 0.0
C1378 C 0.69776 0.49655 0.40869 0.0
C1379 C 0.70104 0.50063 0.43987 0.0
H1380 H 0.7156 0.51043 0.36482 0.0
H1381 H 0.74763 0.54857 0.66758 0.0
H1382 H 0.43424 0.22325 0.46635 0.0
H1383 H 0.47904 0.22632 0.50297 0.0
H1384 H 0.46021 0.32923 0.51586 0.0
H1385 H 0.41555 0.32627 0.47947 0.0
H1386 H 0.52404 0.31694 0.50465 0.0
H1387 H 0.44047 0.27808 0.56971 0.0
H1388 H 0.39556 0.24162 0.58538 0.0
H1389 H 0.46154 0.16038 0.58867 0.0
H1390 H 0.50674 0.19617 0.57241 0.0
H1391 H 0.62844 0.31496 0.64437 0.0
H1392 H 0.57379 0.30906 0.62249 0.0
H1393 H 0.61409 0.25461 0.54804 0.0
H1394 H 0.66833 0.25917 0.57017 0.0
H1395 H 0.53576 0.24759 0.5959 0.0
H1396 H 0.5855 0.30754 0.48703 0.0
H1397 H 0.62642 0.3482 0.47074 0.0
H1398 H 0.62336 0.39347 0.55816 0.0
H1399 H 0.58177 0.35371 0.57467 0.0
C1400 C 0.43965 0.24643 0.47713 0.0
C1401 C 0.42172 0.27457 0.46998 0.0
C1402 C 0.46504 0.24813 0.49814 0.0
C1403 C 0.47281 0.27799 0.51219 0.0
C1404 C 0.4546 0.30598 0.50526 0.0
C1405 C 0.42915 0.30425 0.48447 0.0
C1406 C 0.50116 0.28053 0.53272 0.0
C1407 C 0.52651 0.30187 0.52467 0.0
C1408 C 0.504 0.2613 0.55914 0.0
C1409 C 0.477 0.23979 0.56955 0.0
C1410 C 0.44539 0.25239 0.57355 0.0
C1411 C 0.41987 0.23185 0.58256 0.0
C1412 C 0.42571 0.19871 0.58792 0.0
C1413 C 0.45708 0.18606 0.58445 0.0
C1414 C 0.48266 0.20647 0.57535 0.0
C1415 C 0.62552 0.30092 0.6238 0.0
C1416 C 0.65279 0.28807 0.60868 0.0
C1417 C 0.59431 0.29759 0.61136 0.0
C1418 C 0.59014 0.2818 0.5835 0.0
C1419 C 0.61694 0.26706 0.56948 0.0
C1420 C 0.64793 0.26981 0.58214 0.0
C1421 C 0.55874 0.28342 0.56728 0.0
C1422 C 0.53302 0.26278 0.57601 0.0
C1423 C 0.55517 0.30375 0.5417 0.0
C1424 C 0.58087 0.32727 0.53224 0.0
C1425 C 0.59353 0.3262 0.50276 0.0
C1426 C 0.61669 0.34923 0.49342 0.0
C1427 C 0.62743 0.37345 0.51338 0.0
C1428 C 0.61504 0.37468 0.54273 0.0
C1429 C 0.59172 0.35184 0.55211 0.0
H1430 H 0.64549 0.39115 0.50617 0.0
H1431 H 0.40596 0.1828 0.59475 0.0
H1432 H 0.70402 0.93344 0.95853 0.0
H1433 H 0.70366 0.97978 0.99408 0.0
H1434 H 0.806 0.96512 1.01134 0.0
H1435 H 0.80648 0.91918 0.97615 0.0
H1436 H 0.76962 0.97233 0.06375 0.0
H1437 H 0.78243 0.02378 0.96643 0.0
H1438 H 0.76616 0.03642 0.9143 0.0
H1439 H 0.67794 0.08058 0.9466 0.0
H1440 H 0.69325 0.0672 0.99899 0.0
H1441 H 0.83412 0.11845 0.1244 0.0
H1442 H 0.81933 0.06917 0.09646 0.0
H1443 H 0.72194 0.10624 0.08418 0.0
H1444 H 0.7367 0.15597 0.1118 0.0
H1445 H 0.74652 0.08629 1.03198 0.0
H1446 H 0.73664 0.04039 0.13003 0.0
H1447 H 0.7525 0.02678 0.18216 0.0
H1448 H 0.83456 0.97254 0.1491 0.0
H1449 H 0.81952 0.98624 0.09677 0.0
C1450 C 0.72639 0.94029 0.96987 0.0
C1451 C 0.75528 0.92284 0.96462 0.0
C1452 C 0.72617 0.96668 0.99012 0.0
C1453 C 0.75482 0.97578 1.00536 0.0
C1454 C 0.78362 0.95839 0.99993 0.0
C1455 C 0.78387 0.93224 0.97972 0.0
C1456 C 0.75531 0.00348 1.02696 0.0
C1457 C 0.76472 -0.00269 0.05685 0.0
C1458 C 0.74788 0.03583 1.01808 0.0
C1459 C 0.73875 0.04403 0.98661 0.0
C1460 C 0.75936 0.03582 0.96241 0.0
C1461 C 0.75033 0.04315 0.9328 0.0
C1462 C 0.72099 0.05926 0.9271 0.0
C1463 C 0.70062 0.06803 0.95103 0.0
C1464 C 0.70942 0.06049 0.9807 0.0
C1465 C 0.80938 0.11594 0.11622 0.0
C1466 C 0.78664 0.14124 0.12026 0.0
C1467 C 0.8009 0.08763 0.10033 0.0
C1468 C 0.76944 0.08387 0.08834 0.0
C1469 C 0.74635 0.1086 0.09322 0.0
C1470 C 0.75482 0.13697 0.10912 0.0
C1471 C 0.76165 0.05536 0.06876 0.0
C1472 C 0.75087 0.06132 0.03918 0.0
C1473 C 0.7678 0.02278 0.07795 0.0
C1474 C 0.77707 0.0146 0.10944 0.0
C1475 C 0.75824 0.02581 0.13387 0.0
C1476 C 0.76706 0.01803 0.16346 0.0
C1477 C 0.79456 -0.00113 0.16894 0.0
C1478 C 0.81328 0.9874 0.14483 0.0
C1479 C 0.8046 0.99515 0.11519 0.0
H1480 H 0.80133 0.99285 0.19187 0.0
H1481 H 0.71407 0.06503 0.90416 0.0
H1482 H 0.93637 0.28761 0.09997 0.0
H1483 H 0.98263 0.29118 0.06487 0.0
H1484 H 0.96218 0.19307 0.03386 0.0
H1485 H 0.9159 0.18985 0.06802 0.0
H1486 H 0.03574 0.25821 0.06487 0.0
H1487 H 0.98552 0.17763 0.96648 0.0
H1488 H 0.93452 0.17043 0.93783 0.0
H1489 H 0.90604 0.26855 0.95968 0.0
H1490 H 0.9567 0.27633 0.98888 0.0
H1491 H 0.15583 0.16249 1.00353 0.0
H1492 H 0.10581 0.18511 1.02379 0.0
H1493 H 0.09141 0.23976 0.94161 0.0
H1494 H 0.14162 0.2159 0.92067 0.0
H1495 H 0.03545 0.21534 0.96005 0.0
H1496 H 0.11717 0.2791 1.00738 0.0
H1497 H 0.16938 0.28855 0.03352 0.0
H1498 H 0.13552 0.23281 0.10943 0.0
H1499 H 0.08323 0.22273 0.08365 0.0
C1500 C 0.94161 0.26706 0.08531 0.0
C1501 C 0.92272 0.23841 0.08674 0.0
C1502 C 0.96797 0.26911 0.06526 0.0
C1503 C 0.97566 0.24261 0.04628 0.0
C1504 C 0.95631 0.21425 0.04751 0.0
C1505 C 0.93003 0.21227 0.06736 0.0
C1506 C 0.00575 0.24273 1.02755 0.0
C1507 C 0.03559 0.24938 0.04178 0.0
C1508 C 0.0057 0.23207 0.9971 0.0
C1509 C 0.97493 0.22752 0.97994 0.0
C1510 C 0.96841 0.19772 0.96518 0.0
C1511 C 0.93947 0.19349 0.94898 0.0
C1512 C 0.91697 0.21899 0.94713 0.0
C1513 C 0.92334 0.24876 0.9615 0.0
C1514 C 0.9521 0.25304 0.97797 0.0
C1515 C 0.14223 0.17949 0.98982 0.0
C1516 C 0.15291 0.18776 0.96073 0.0
C1517 C 0.11361 0.19255 1.00147 0.0
C1518 C 0.09525 0.21494 0.98461 0.0
C1519 C 0.10538 0.22282 0.95517 0.0
C1520 C 0.13401 0.20922 0.94325 0.0
C1521 C 0.06521 0.22912 0.99801 0.0
C1522 C 0.03549 0.22514 0.9828 0.0
C1523 C 0.06533 0.24303 1.02731 0.0
C1524 C 0.09624 0.25015 0.04353 0.0
C1525 C 0.12085 0.26886 1.02965 0.0
C1526 C 0.15048 0.2743 0.0444 0.0
C1527 C 0.15577 0.26127 0.07311 0.0
C1528 C 0.13136 0.24294 0.08721 0.0
C1529 C 0.10167 0.23744 0.07258 0.0
H1530 H 0.17878 0.26538 0.08443 0.0
H1531 H 0.89463 0.21573 0.9345 0.0
H1532 H 0.2448 0.84751 0.13118 0.0
H1533 H 0.26066 0.89315 0.09825 0.0
H1534 H 0.15952 0.91221 0.0792 0.0
H1535 H 0.14344 0.86721 0.11215 0.0
H1536 H 0.19953 0.90474 1.02728 0.0
H1537 H 0.19833 0.96285 0.12275 0.0
H1538 H 0.21529 0.97292 0.17532 0.0
H1539 H 0.31469 0.98346 0.14663 0.0
H1540 H 0.29836 0.97299 0.0939 0.0
H1541 H 0.18447 0.05969 0.96205 0.0
H1542 H 0.18313 0.01219 0.99531 0.0
H1543 H 0.28802 0.01348 1.00063 0.0
H1544 H 0.28954 0.06093 0.96632 0.0
H1545 H 0.25553 0.00734 0.05769 0.0
H1546 H 0.2592 0.95283 0.96351 0.0
H1547 H 0.24625 0.9381 0.91089 0.0
H1548 H 0.14714 0.91821 0.93595 0.0
H1549 H 0.15949 0.93279 0.98878 0.0
C1550 C 0.22593 0.86173 0.12031 0.0
C1551 C 0.19285 0.85364 0.12427 0.0
C1552 C 0.23505 0.88779 0.10153 0.0
C1553 C 0.21125 0.90596 0.08623 0.0
C1554 C 0.17826 0.89842 0.09074 0.0
C1555 C 0.16913 0.87274 0.10972 0.0
C1556 C 0.2204 0.93177 0.06425 0.0
C1557 C 0.21154 0.92729 0.03396 0.0
C1558 C 0.23739 0.9605 0.07276 0.0
C1559 C 0.24719 0.9667 0.10444 0.0
C1560 C 0.22385 0.96696 0.12769 0.0
C1561 C 0.23334 0.97283 0.1575 0.0
C1562 C 0.26606 0.97871 0.16432 0.0
C1563 C 0.28936 0.97883 0.14132 0.0
C1564 C 0.28 0.97295 0.11147 0.0
C1565 C 0.20731 0.04967 0.96999 0.0
C1566 C 0.23713 0.06362 0.96125 0.0
C1567 C 0.2065 0.02252 0.98899 0.0
C1568 C 0.23548 0.00906 1.00013 0.0
C1569 C 0.2654 0.02338 0.99205 0.0
C1570 C 0.26624 0.05037 0.9725 0.0
C1571 C 0.23377 0.98065 1.02088 0.0
C1572 C 0.24394 0.9846 0.05091 0.0
C1573 C 0.21838 0.95115 1.01209 0.0
C1574 C 0.21025 0.94409 0.98009 0.0
C1575 C 0.23456 0.94562 0.95776 0.0
C1576 C 0.2274 0.93702 0.92795 0.0
C1577 C 0.19595 0.92702 0.92013 0.0
C1578 C 0.17154 0.92577 0.94208 0.0
C1579 C 0.17863 0.93412 0.97198 0.0
H1580 H 0.19044 0.92046 0.89701 0.0
H1581 H 0.27335 0.98326 0.18742 0.0
H1582 H 0.82331 0.73126 0.95432 0.0
H1583 H 0.86926 0.71883 0.98746 0.0
H1584 H 0.91204 0.81276 0.9671 0.0
H1585 H 0.86635 0.82534 0.93384 0.0
H1586 H 0.95835 0.76571 0.97137 0.0
H1587 H 0.86598 0.8029 1.02755 0.0
H1588 H 0.809 0.80243 0.04487 0.0
H1589 H 0.82285 0.70753 0.08425 0.0
H1590 H 0.87971 0.70688 0.06612 0.0
H1591 H 0.04834 0.81222 0.09761 0.0
H1592 H 0.00254 0.80795 0.06282 0.0
H1593 H 0.99218 0.70551 0.08413 0.0
H1594 H 0.03875 0.70953 0.11908 0.0
H1595 H 0.93024 0.74782 0.07913 0.0
H1596 H 0.02785 0.71678 1.02647 0.0
H1597 H 0.08565 0.72532 1.01373 0.0
H1598 H 0.062 0.81597 0.97015 0.0
H1599 H 0.00418 0.80873 0.98385 0.0
C1600 C 0.8428 0.74904 0.9564 0.0
C1601 C 0.84099 0.77945 0.94162 0.0
C1602 C 0.86898 0.74192 0.97547 0.0
C1603 C 0.89383 0.76506 0.98011 0.0
C1604 C 0.8931 0.79456 0.96392 0.0
C1605 C 0.86689 0.80175 0.94494 0.0
C1606 C 0.91927 0.75978 1.00341 0.0
C1607 C 0.95217 0.76168 0.99488 0.0
C1608 C 0.91122 0.75432 0.03414 0.0
C1609 C 0.877 0.75461 0.04504 0.0
C1610 C 0.85679 0.78173 0.03956 0.0
C1611 C 0.82451 0.78171 0.04959 0.0
C1612 C 0.81229 0.755 0.06571 0.0
C1613 C 0.83233 0.72819 0.07172 0.0
C1614 C 0.86456 0.72795 0.06147 0.0
C1615 C 0.03616 0.78882 0.09519 0.0
C1616 C 0.04722 0.76112 0.11082 0.0
C1617 C 0.00997 0.78646 0.07534 0.0
C1618 C -0.0058 0.75641 0.0708 0.0
C1619 C 0.00412 0.72891 0.08741 0.0
C1620 C 0.0307 0.7312 0.1072 0.0
C1621 C 0.96905 0.75383 0.047 0.0
C1622 C 0.9363 0.7508 0.05545 0.0
C1623 C 0.97718 0.75882 1.0163 0.0
C1624 C 0.01164 0.76233 1.00645 0.0
C1625 C 0.03497 0.73869 1.01441 0.0
C1626 C 0.06778 0.74337 1.00714 0.0
C1627 C 0.07751 0.77121 0.99119 0.0
C1628 C 0.05443 0.79443 0.98252 0.0
C1629 C 0.02163 0.7901 0.99014 0.0
H1630 H 0.10292 0.77468 0.98544 0.0
H1631 H 0.78733 0.75511 0.0736 0.0
loop_
_geom_bond_atom_site_label_1
_geom_bond_atom_site_label_2
_geom_bond_distance
_geom_bond_site_symmetry_2
_ccdc_geom_bond_type
O0 Tb1 2.292 . S
O0 C3 1.255 . S
Tb1 O0 2.292 . S
Tb1 O17 2.326 . S
Tb1 O19 2.500 . S
Tb1 O20 2.473 . S
Tb1 O23 2.324 . S
Eu2 O6 2.292 . S
Eu2 C7 2.852 . S
Eu2 O18 2.324 . S
Eu2 O22 2.326 . S
Eu2 O24 2.500 . S
Eu2 O25 2.473 . S
C3 O0 1.255 . S
C3 O4 1.247 . S
O4 C3 1.247 . S
C5 O17 1.242 . S
C5 O18 1.258 . S
O6 Eu2 2.292 . S
O6 C8 1.255 . S
C7 Eu2 2.852 . S
C7 C11 1.503 . S
C7 O24 1.273 . S
C7 O25 1.257 . S
C8 O6 1.255 . S
C8 O9 1.247 . S
O9 C8 1.247 . S
C10 O22 1.242 . S
C10 O23 1.258 . S
C11 C7 1.503 . S
C11 C12 1.379 . S
C11 C16 1.392 . S
C12 C11 1.379 . S
C12 C13 1.404 . S
C12 H26 0.929 . S
C13 C12 1.404 . S
C13 C14 1.389 . S
C14 C13 1.389 . S
C14 C15 1.399 . S
C14 H27 0.931 . S
C15 C14 1.399 . S
C15 C16 1.390 . S
C16 C11 1.392 . S
C16 C15 1.390 . S
C16 H28 0.929 . S
O17 Tb1 2.326 . S
O17 C5 1.242 . S
O18 Eu2 2.324 . S
O18 C5 1.258 . S
O19 Tb1 2.500 . S
O19 C21 1.273 . S
O20 Tb1 2.473 . S
O20 C21 1.257 . S
C21 O19 1.273 . S
C21 O20 1.257 . S
O22 Eu2 2.326 . S
O22 C10 1.242 . S
O23 Tb1 2.324 . S
O23 C10 1.258 . S
O24 Eu2 2.500 . S
O24 C7 1.273 . S
O25 Eu2 2.473 . S
O25 C7 1.257 . S
H26 C12 0.929 . S
H27 C14 0.931 . S
H28 C16 0.929 . S
O29 Tb30 2.292 . S
O29 C32 1.255 . S
Tb30 O29 2.292 . S
Tb30 O46 2.326 . S
Tb30 O48 2.500 . S
Tb30 O49 2.473 . S
Tb30 O52 2.324 . S
Eu31 O35 2.292 . S
Eu31 C36 2.852 . S
Eu31 O47 2.324 . S
Eu31 O51 2.326 . S
Eu31 O53 2.500 . S
Eu31 O54 2.473 . S
C32 O29 1.255 . S
C32 O33 1.247 . S
O33 C32 1.247 . S
C34 O46 1.242 . S
C34 O47 1.258 . S
O35 Eu31 2.292 . S
O35 C37 1.255 . S
C36 Eu31 2.852 . S
C36 C40 1.503 . S
C36 O53 1.273 . S
C36 O54 1.257 . S
C37 O35 1.255 . S
C37 O38 1.247 . S
O38 C37 1.247 . S
C39 O51 1.242 . S
C39 O52 1.258 . S
C40 C36 1.503 . S
C40 C41 1.379 . S
C40 C45 1.392 . S
C41 C40 1.379 . S
C41 C42 1.404 . S
C41 H55 0.929 . S
C42 C41 1.404 . S
C42 C43 1.389 . S
C43 C42 1.389 . S
C43 C44 1.399 . S
C43 H56 0.931 . S
C44 C43 1.399 . S
C44 C45 1.390 . S
C45 C40 1.392 . S
C45 C44 1.390 . S
C45 H57 0.929 . S
O46 Tb30 2.326 . S
O46 C34 1.242 . S
O47 Eu31 2.324 . S
O47 C34 1.258 . S
O48 Tb30 2.500 . S
O48 C50 1.273 . S
O49 Tb30 2.473 . S
O49 C50 1.257 . S
C50 O48 1.273 . S
C50 O49 1.257 . S
O51 Eu31 2.326 . S
O51 C39 1.242 . S
O52 Tb30 2.324 . S
O52 C39 1.258 . S
O53 Eu31 2.500 . S
O53 C36 1.273 . S
O54 Eu31 2.473 . S
O54 C36 1.257 . S
H55 C41 0.929 . S
H56 C43 0.931 . S
H57 C45 0.929 . S
O58 Tb59 2.292 . S
O58 C61 1.255 . S
Tb59 O58 2.292 . S
Tb59 O75 2.326 . S
Tb59 O77 2.500 . S
Tb59 O78 2.473 . S
Tb59 O81 2.324 . S
Eu60 O64 2.292 . S
Eu60 C65 2.852 . S
Eu60 O76 2.324 . S
Eu60 O80 2.326 . S
Eu60 O82 2.500 . S
Eu60 O83 2.473 . S
C61 O58 1.255 . S
C61 O62 1.247 . S
O62 C61 1.247 . S
C63 O75 1.242 . S
C63 O76 1.258 . S
O64 Eu60 2.292 . S
O64 C66 1.255 . S
C65 Eu60 2.852 . S
C65 C69 1.503 . S
C65 O82 1.273 . S
C65 O83 1.257 . S
C66 O64 1.255 . S
C66 O67 1.247 . S
O67 C66 1.247 . S
C68 O80 1.242 . S
C68 O81 1.258 . S
C69 C65 1.503 . S
C69 C70 1.379 . S
C69 C74 1.392 . S
C70 C69 1.379 . S
C70 C71 1.404 . S
C70 H84 0.929 . S
C71 C70 1.404 . S
C71 C72 1.389 . S
C72 C71 1.389 . S
C72 C73 1.399 . S
C72 H85 0.931 . S
C73 C72 1.399 . S
C73 C74 1.390 . S
C74 C69 1.392 . S
C74 C73 1.390 . S
C74 H86 0.929 . S
O75 Tb59 2.326 . S
O75 C63 1.242 . S
O76 Eu60 2.324 . S
O76 C63 1.258 . S
O77 Tb59 2.500 . S
O77 C79 1.273 . S
O78 Tb59 2.473 . S
O78 C79 1.257 . S
C79 O77 1.273 . S
C79 O78 1.257 . S
O80 Eu60 2.326 . S
O80 C68 1.242 . S
O81 Tb59 2.324 . S
O81 C68 1.258 . S
O82 Eu60 2.500 . S
O82 C65 1.273 . S
O83 Eu60 2.473 . S
O83 C65 1.257 . S
H84 C70 0.929 . S
H85 C72 0.931 . S
H86 C74 0.929 . S
O87 Tb88 2.292 . S
O87 C90 1.255 . S
Tb88 O87 2.292 . S
Tb88 O104 2.326 . S
Tb88 O106 2.500 . S
Tb88 O107 2.473 . S
Tb88 O110 2.324 . S
Eu89 O93 2.292 . S
Eu89 C94 2.852 . S
Eu89 O105 2.324 . S
Eu89 O109 2.326 . S
Eu89 O111 2.500 . S
Eu89 O112 2.473 . S
C90 O87 1.255 . S
C90 O91 1.247 . S
O91 C90 1.247 . S
C92 O104 1.242 . S
C92 O105 1.258 . S
O93 Eu89 2.292 . S
O93 C95 1.255 . S
C94 Eu89 2.852 . S
C94 C98 1.503 . S
C94 O111 1.273 . S
C94 O112 1.257 . S
C95 O93 1.255 . S
C95 O96 1.247 . S
O96 C95 1.247 . S
C97 O109 1.242 . S
C97 O110 1.258 . S
C98 C94 1.503 . S
C98 C99 1.379 . S
C98 C103 1.392 . S
C99 C98 1.379 . S
C99 C100 1.404 . S
C99 H113 0.929 . S
C100 C99 1.404 . S
C100 C101 1.389 . S
C101 C100 1.389 . S
C101 C102 1.399 . S
C101 H114 0.931 . S
C102 C101 1.399 . S
C102 C103 1.390 . S
C103 C98 1.392 . S
C103 C102 1.390 . S
C103 H115 0.929 . S
O104 Tb88 2.326 . S
O104 C92 1.242 . S
O105 Eu89 2.324 . S
O105 C92 1.258 . S
O106 Tb88 2.500 . S
O106 C108 1.273 . S
O107 Tb88 2.473 . S
O107 C108 1.257 . S
C108 O106 1.273 . S
C108 O107 1.257 . S
O109 Eu89 2.326 . S
O109 C97 1.242 . S
O110 Tb88 2.324 . S
O110 C97 1.258 . S
O111 Eu89 2.500 . S
O111 C94 1.273 . S
O112 Eu89 2.473 . S
O112 C94 1.257 . S
H113 C99 0.929 . S
H114 C101 0.931 . S
H115 C103 0.929 . S
O116 Tb117 2.292 . S
O116 C119 1.255 . S
Tb117 O116 2.292 . S
Tb117 O133 2.326 . S
Tb117 O135 2.500 . S
Tb117 O136 2.473 . S
Tb117 O139 2.324 . S
Eu118 O122 2.292 . S
Eu118 C123 2.852 . S
Eu118 O134 2.324 . S
Eu118 O138 2.326 . S
Eu118 O140 2.500 . S
Eu118 O141 2.473 . S
C119 O116 1.255 . S
C119 O120 1.247 . S
O120 C119 1.247 . S
C121 O133 1.242 . S
C121 O134 1.258 . S
O122 Eu118 2.292 . S
O122 C124 1.255 . S
C123 Eu118 2.852 . S
C123 C127 1.503 . S
C123 O140 1.273 . S
C123 O141 1.257 . S
C124 O122 1.255 . S
C124 O125 1.247 . S
O125 C124 1.247 . S
C126 O138 1.242 . S
C126 O139 1.258 . S
C127 C123 1.503 . S
C127 C128 1.379 . S
C127 C132 1.392 . S
C128 C127 1.379 . S
C128 C129 1.404 . S
C128 H142 0.929 . S
C129 C128 1.404 . S
C129 C130 1.389 . S
C130 C129 1.389 . S
C130 C131 1.399 . S
C130 H143 0.931 . S
C131 C130 1.399 . S
C131 C132 1.390 . S
C132 C127 1.392 . S
C132 C131 1.390 . S
C132 H144 0.929 . S
O133 Tb117 2.326 . S
O133 C121 1.242 . S
O134 Eu118 2.324 . S
O134 C121 1.258 . S
O135 Tb117 2.500 . S
O135 C137 1.273 . S
O136 Tb117 2.473 . S
O136 C137 1.257 . S
C137 O135 1.273 . S
C137 O136 1.257 . S
O138 Eu118 2.326 . S
O138 C126 1.242 . S
O139 Tb117 2.324 . S
O139 C126 1.258 . S
O140 Eu118 2.500 . S
O140 C123 1.273 . S
O141 Eu118 2.473 . S
O141 C123 1.257 . S
H142 C128 0.929 . S
H143 C130 0.931 . S
H144 C132 0.929 . S
O145 Tb146 2.292 . S
O145 C148 1.255 . S
Tb146 O145 2.292 . S
Tb146 O162 2.326 . S
Tb146 O164 2.500 . S
Tb146 O165 2.473 . S
Tb146 O168 2.324 . S
Eu147 O151 2.292 . S
Eu147 C152 2.852 . S
Eu147 O163 2.324 . S
Eu147 O167 2.326 . S
Eu147 O169 2.500 . S
Eu147 O170 2.473 . S
C148 O145 1.255 . S
C148 O149 1.247 . S
O149 C148 1.247 . S
C150 O162 1.242 . S
C150 O163 1.258 . S
O151 Eu147 2.292 . S
O151 C153 1.255 . S
C152 Eu147 2.852 . S
C152 C156 1.503 . S
C152 O169 1.273 . S
C152 O170 1.257 . S
C153 O151 1.255 . S
C153 O154 1.247 . S
O154 C153 1.247 . S
C155 O167 1.242 . S
C155 O168 1.258 . S
C156 C152 1.503 . S
C156 C157 1.379 . S
C156 C161 1.392 . S
C157 C156 1.379 . S
C157 C158 1.404 . S
C157 H171 0.929 . S
C158 C157 1.404 . S
C158 C159 1.389 . S
C159 C158 1.389 . S
C159 C160 1.399 . S
C159 H172 0.931 . S
C160 C159 1.399 . S
C160 C161 1.390 . S
C161 C156 1.392 . S
C161 C160 1.390 . S
C161 H173 0.929 . S
O162 Tb146 2.326 . S
O162 C150 1.242 . S
O163 Eu147 2.324 . S
O163 C150 1.258 . S
O164 Tb146 2.500 . S
O164 C166 1.273 . S
O165 Tb146 2.473 . S
O165 C166 1.257 . S
C166 O164 1.273 . S
C166 O165 1.257 . S
O167 Eu147 2.326 . S
O167 C155 1.242 . S
O168 Tb146 2.324 . S
O168 C155 1.258 . S
O169 Eu147 2.500 . S
O169 C152 1.273 . S
O170 Eu147 2.473 . S
O170 C152 1.257 . S
H171 C157 0.929 . S
H172 C159 0.931 . S
H173 C161 0.929 . S
O174 Tb175 2.292 . S
O174 C177 1.255 . S
Tb175 O174 2.292 . S
Tb175 O191 2.326 . S
Tb175 O193 2.500 . S
Tb175 O194 2.473 . S
Tb175 O197 2.324 . S
Eu176 O180 2.292 . S
Eu176 C181 2.852 . S
Eu176 O192 2.324 . S
Eu176 O196 2.326 . S
Eu176 O198 2.500 . S
Eu176 O199 2.473 . S
C177 O174 1.255 . S
C177 O178 1.247 . S
O178 C177 1.247 . S
C179 O191 1.242 . S
C179 O192 1.258 . S
O180 Eu176 2.292 . S
O180 C182 1.255 . S
C181 Eu176 2.852 . S
C181 C185 1.503 . S
C181 O198 1.273 . S
C181 O199 1.257 . S
C182 O180 1.255 . S
C182 O183 1.247 . S
O183 C182 1.247 . S
C184 O196 1.242 . S
C184 O197 1.258 . S
C185 C181 1.503 . S
C185 C186 1.379 . S
C185 C190 1.392 . S
C186 C185 1.379 . S
C186 C187 1.404 . S
C186 H200 0.929 . S
C187 C186 1.404 . S
C187 C188 1.389 . S
C188 C187 1.389 . S
C188 C189 1.399 . S
C188 H201 0.931 . S
C189 C188 1.399 . S
C189 C190 1.390 . S
C190 C185 1.392 . S
C190 C189 1.390 . S
C190 H202 0.929 . S
O191 Tb175 2.326 . S
O191 C179 1.242 . S
O192 Eu176 2.324 . S
O192 C179 1.258 . S
O193 Tb175 2.500 . S
O193 C195 1.273 . S
O194 Tb175 2.473 . S
O194 C195 1.257 . S
C195 O193 1.273 . S
C195 O194 1.257 . S
O196 Eu176 2.326 . S
O196 C184 1.242 . S
O197 Tb175 2.324 . S
O197 C184 1.258 . S
O198 Eu176 2.500 . S
O198 C181 1.273 . S
O199 Eu176 2.473 . S
O199 C181 1.257 . S
H200 C186 0.929 . S
H201 C188 0.931 . S
H202 C190 0.929 . S
O203 Tb204 2.292 . S
O203 C206 1.255 . S
Tb204 O203 2.292 . S
Tb204 O220 2.326 . S
Tb204 O222 2.500 . S
Tb204 O223 2.473 . S
Tb204 O226 2.324 . S
Eu205 O209 2.292 . S
Eu205 C210 2.852 . S
Eu205 O221 2.324 . S
Eu205 O225 2.326 . S
Eu205 O227 2.500 . S
Eu205 O228 2.473 . S
C206 O203 1.255 . S
C206 O207 1.247 . S
O207 C206 1.247 . S
C208 O220 1.242 . S
C208 O221 1.258 . S
O209 Eu205 2.292 . S
O209 C211 1.255 . S
C210 Eu205 2.852 . S
C210 C214 1.503 . S
C210 O227 1.273 . S
C210 O228 1.257 . S
C211 O209 1.255 . S
C211 O212 1.247 . S
O212 C211 1.247 . S
C213 O225 1.242 . S
C213 O226 1.258 . S
C214 C210 1.503 . S
C214 C215 1.379 . S
C214 C219 1.392 . S
C215 C214 1.379 . S
C215 C216 1.404 . S
C215 H229 0.929 . S
C216 C215 1.404 . S
C216 C217 1.389 . S
C217 C216 1.389 . S
C217 C218 1.399 . S
C217 H230 0.931 . S
C218 C217 1.399 . S
C218 C219 1.390 . S
C219 C214 1.392 . S
C219 C218 1.390 . S
C219 H231 0.929 . S
O220 Tb204 2.326 . S
O220 C208 1.242 . S
O221 Eu205 2.324 . S
O221 C208 1.258 . S
O222 Tb204 2.500 . S
O222 C224 1.273 . S
O223 Tb204 2.473 . S
O223 C224 1.257 . S
C224 O222 1.273 . S
C224 O223 1.257 . S
O225 Eu205 2.326 . S
O225 C213 1.242 . S
O226 Tb204 2.324 . S
O226 C213 1.258 . S
O227 Eu205 2.500 . S
O227 C210 1.273 . S
O228 Eu205 2.473 . S
O228 C210 1.257 . S
H229 C215 0.929 . S
H230 C217 0.931 . S
H231 C219 0.929 . S
H232 C250 0.951 . S
H233 C252 0.951 . S
H234 C254 0.950 . S
H235 C255 0.950 . S
H236 C257 0.950 . S
H237 C260 0.950 . S
H238 C261 0.950 . S
H239 C263 0.950 . S
H240 C264 0.950 . S
H241 C265 0.951 . S
H242 C267 0.951 1_554 S
H243 C269 0.950 1_554 S
H244 C270 0.950 . S
H245 C272 0.950 . S
H246 C275 0.950 . S
H247 C276 0.950 . S
H248 C278 0.950 . S
H249 C279 0.950 . S
C250 H232 0.951 . S
C250 C251 1.366 . S
C250 C252 1.388 . S
C251 C250 1.366 . S
C251 C255 1.385 . S
C252 H233 0.951 . S
C252 C250 1.388 . S
C252 C253 1.366 . S
C253 C252 1.366 . S
C253 C254 1.414 . S
C253 C256 1.499 . S
C254 H234 0.950 . S
C254 C253 1.414 . S
C254 C255 1.374 . S
C255 H235 0.950 . S
C255 C251 1.385 . S
C255 C254 1.374 . S
C256 C253 1.499 . S
C256 C257 1.373 . S
C256 C258 1.389 . S
C257 H236 0.950 . S
C257 C256 1.373 . S
C257 C273 1.377 . S
C258 C256 1.389 . S
C258 C259 1.524 . S
C258 C272 1.377 . S
C259 C258 1.524 . S
C259 C260 1.397 . S
C259 C264 1.363 . S
C260 H237 0.950 . S
C260 C259 1.397 . S
C260 C261 1.334 . S
C261 H238 0.950 . S
C261 C260 1.334 . S
C261 C262 1.287 . S
C262 C261 1.287 . S
C262 C263 1.524 . S
C262 H281 0.913 . S
C263 H239 0.950 . S
C263 C262 1.524 . S
C263 C264 1.415 . S
C264 H240 0.950 . S
C264 C259 1.363 . S
C264 C263 1.415 . S
C265 H241 0.951 . S
C265 C266 1.366 . S
C265 C267 1.388 . S
C266 C265 1.366 . S
C266 C270 1.385 . S
C267 H242 0.951 1_556 S
C267 C265 1.388 . S
C267 C268 1.366 1_556 S
C268 C267 1.366 1_554 S
C268 C269 1.414 1_554 S
C268 C271 1.499 . S
C269 H243 0.950 1_556 S
C269 C268 1.414 1_556 S
C269 C270 1.374 . S
C270 H244 0.950 . S
C270 C266 1.385 . S
C270 C269 1.374 . S
C271 C268 1.499 . S
C271 C272 1.373 . S
C271 C273 1.389 . S
C272 H245 0.950 . S
C272 C258 1.377 . S
C272 C271 1.373 . S
C273 C257 1.377 . S
C273 C271 1.389 . S
C273 C274 1.524 . S
C274 C273 1.524 . S
C274 C275 1.397 . S
C274 C279 1.363 . S
C275 H246 0.950 . S
C275 C274 1.397 . S
C275 C276 1.334 . S
C276 H247 0.950 . S
C276 C275 1.334 . S
C276 C277 1.287 . S
C277 C276 1.287 . S
C277 C278 1.524 . S
C277 H280 0.999 . S
C278 H248 0.950 . S
C278 C277 1.524 . S
C278 C279 1.415 . S
C279 H249 0.950 . S
C279 C274 1.363 . S
C279 C278 1.415 . S
H280 C277 0.999 . S
H281 C262 0.913 . S
H282 C300 0.951 . S
H283 C302 0.951 1_556 S
H284 C304 0.950 1_556 S
H285 C305 0.950 . S
H286 C307 0.950 . S
H287 C310 0.950 . S
H288 C311 0.950 1_554 S
H289 C313 0.950 . S
H290 C314 0.950 . S
H291 C315 0.951 . S
H292 C317 0.951 . S
H293 C319 0.950 . S
H294 C320 0.950 . S
H295 C322 0.950 . S
H296 C325 0.950 . S
H297 C326 0.950 . S
H298 C328 0.950 . S
H299 C329 0.950 . S
C300 H282 0.951 . S
C300 C301 1.366 . S
C300 C302 1.388 . S
C301 C300 1.366 . S
C301 C305 1.385 . S
C302 H283 0.951 1_554 S
C302 C300 1.388 . S
C302 C303 1.366 1_554 S
C303 C302 1.366 1_556 S
C303 C304 1.414 1_556 S
C303 C306 1.499 . S
C304 H284 0.950 1_554 S
C304 C303 1.414 1_554 S
C304 C305 1.374 . S
C305 H285 0.950 . S
C305 C301 1.385 . S
C305 C304 1.374 . S
C306 C303 1.499 . S
C306 C307 1.373 . S
C306 C308 1.389 . S
C307 H286 0.950 . S
C307 C306 1.373 . S
C307 C323 1.377 . S
C308 C306 1.389 . S
C308 C309 1.524 . S
C308 C322 1.377 . S
C309 C308 1.524 . S
C309 C310 1.397 . S
C309 C314 1.363 . S
C310 H287 0.950 . S
C310 C309 1.397 . S
C310 C311 1.334 . S
C311 H288 0.950 1_556 S
C311 C310 1.334 . S
C311 C312 1.287 . S
C312 C311 1.287 . S
C312 C313 1.524 . S
C312 H331 0.913 . S
C313 H289 0.950 . S
C313 C312 1.524 . S
C313 C314 1.415 . S
C314 H290 0.950 . S
C314 C309 1.363 . S
C314 C313 1.415 . S
C315 H291 0.951 . S
C315 C316 1.366 . S
C315 C317 1.388 . S
C316 C315 1.366 . S
C316 C320 1.385 . S
C317 H292 0.951 . S
C317 C315 1.388 . S
C317 C318 1.366 . S
C318 C317 1.366 . S
C318 C319 1.414 . S
C318 C321 1.499 . S
C319 H293 0.950 . S
C319 C318 1.414 . S
C319 C320 1.374 . S
C320 H294 0.950 . S
C320 C316 1.385 . S
C320 C319 1.374 . S
C321 C318 1.499 . S
C321 C322 1.373 . S
C321 C323 1.389 . S
C322 H295 0.950 . S
C322 C308 1.377 . S
C322 C321 1.373 . S
C323 C307 1.377 . S
C323 C321 1.389 . S
C323 C324 1.524 . S
C324 C323 1.524 . S
C324 C325 1.397 . S
C324 C329 1.363 . S
C325 H296 0.950 . S
C325 C324 1.397 . S
C325 C326 1.334 . S
C326 H297 0.950 . S
C326 C325 1.334 . S
C326 C327 1.287 . S
C327 C326 1.287 . S
C327 C328 1.524 . S
C327 H330 0.999 . S
C328 H298 0.950 . S
C328 C327 1.524 . S
C328 C329 1.415 . S
C329 H299 0.950 . S
C329 C324 1.363 . S
C329 C328 1.415 . S
H330 C327 0.999 . S
H331 C312 0.913 . S
H332 C350 0.951 . S
H333 C352 0.935 1_554 S
H334 C354 0.940 1_554 S
H335 C355 0.950 . S
H336 C357 0.950 . S
H337 C360 0.950 . S
H338 C361 0.950 . S
H339 C363 0.950 . S
H340 C364 0.950 . S
H341 C365 0.951 . S
H342 C367 0.951 . S
H343 C369 0.950 . S
H344 C370 0.950 . S
H345 C372 0.950 . S
H346 C375 0.950 . S
H347 C376 0.950 . S
H348 C378 0.950 . S
H349 C379 0.950 . S
C350 H332 0.951 . S
C350 C351 1.366 . S
C350 C352 1.415 . S
C351 C350 1.366 . S
C351 C355 1.385 . S
C352 H333 0.935 1_556 S
C352 C350 1.415 . S
C352 C353 1.355 1_556 S
C353 C352 1.355 1_554 S
C353 C354 1.414 1_554 S
C353 C356 1.499 . S
C354 H334 0.940 1_556 S
C354 C353 1.414 1_556 S
C354 C355 1.374 . S
C355 H335 0.950 . S
C355 C351 1.385 . S
C355 C354 1.374 . S
C356 C353 1.499 . S
C356 C357 1.373 . S
C356 C358 1.389 . S
C357 H336 0.950 . S
C357 C356 1.373 . S
C357 C373 1.377 . S
C358 C356 1.389 . S
C358 C359 1.524 . S
C358 C372 1.377 . S
C359 C358 1.524 . S
C359 C360 1.397 . S
C359 C364 1.363 . S
C360 H337 0.950 . S
C360 C359 1.397 . S
C360 C361 1.334 . S
C361 H338 0.950 . S
C361 C360 1.334 . S
C361 C362 1.287 . S
C362 C361 1.287 . S
C362 C363 1.524 . S
C362 H381 0.913 . S
C363 H339 0.950 . S
C363 C362 1.524 . S
C363 C364 1.415 . S
C364 H340 0.950 . S
C364 C359 1.363 . S
C364 C363 1.415 . S
C365 H341 0.951 . S
C365 C366 1.366 . S
C365 C367 1.388 . S
C366 C365 1.366 . S
C366 C370 1.385 . S
C367 H342 0.951 . S
C367 C365 1.388 . S
C367 C368 1.366 . S
C368 C367 1.366 . S
C368 C369 1.414 . S
C368 C371 1.499 . S
C369 H343 0.950 . S
C369 C368 1.414 . S
C369 C370 1.374 . S
C370 H344 0.950 . S
C370 C366 1.385 . S
C370 C369 1.374 . S
C371 C368 1.499 . S
C371 C372 1.373 . S
C371 C373 1.389 . S
C372 H345 0.950 . S
C372 C358 1.377 . S
C372 C371 1.373 . S
C373 C357 1.377 . S
C373 C371 1.389 . S
C373 C374 1.524 . S
C374 C373 1.524 . S
C374 C375 1.397 . S
C374 C379 1.363 . S
C375 H346 0.950 . S
C375 C374 1.397 . S
C375 C376 1.334 . S
C376 H347 0.950 . S
C376 C375 1.334 . S
C376 C377 1.287 . S
C377 C376 1.287 . S
C377 C378 1.524 . S
C377 H380 0.999 . S
C378 H348 0.950 . S
C378 C377 1.524 . S
C378 C379 1.415 . S
C379 H349 0.950 . S
C379 C374 1.363 . S
C379 C378 1.415 . S
H380 C377 0.999 . S
H381 C362 0.913 . S
H382 C400 0.951 . S
H383 C402 0.951 . S
H384 C404 0.950 . S
H385 C405 0.950 . S
H386 C407 0.950 . S
H387 C410 0.950 . S
H388 C411 0.950 . S
H389 C413 0.950 . S
H390 C414 0.950 . S
H391 C415 0.951 . S
H392 C417 0.951 1_556 S
H393 C419 0.950 1_556 S
H394 C420 0.950 . S
H395 C422 0.950 . S
H396 C425 0.950 . S
H397 C426 0.950 . S
H398 C428 0.950 . S
H399 C429 0.950 . S
C400 H382 0.951 . S
C400 C401 1.366 . S
C400 C402 1.388 . S
C401 C400 1.366 . S
C401 C405 1.385 . S
C402 H383 0.951 . S
C402 C400 1.388 . S
C402 C403 1.366 . S
C403 C402 1.366 . S
C403 C404 1.414 . S
C403 C406 1.499 . S
C404 H384 0.950 . S
C404 C403 1.414 . S
C404 C405 1.374 . S
C405 H385 0.950 . S
C405 C401 1.385 . S
C405 C404 1.374 . S
C406 C403 1.499 . S
C406 C407 1.373 . S
C406 C408 1.389 . S
C407 H386 0.950 . S
C407 C406 1.373 . S
C407 C423 1.377 . S
C408 C406 1.389 . S
C408 C409 1.524 . S
C408 C422 1.377 . S
C409 C408 1.524 . S
C409 C410 1.397 . S
C409 C414 1.363 . S
C410 H387 0.950 . S
C410 C409 1.397 . S
C410 C411 1.334 . S
C411 H388 0.950 . S
C411 C410 1.334 . S
C411 C412 1.287 . S
C412 C411 1.287 . S
C412 C413 1.524 . S
C412 H431 0.913 . S
C413 H389 0.950 . S
C413 C412 1.524 . S
C413 C414 1.415 . S
C414 H390 0.950 . S
C414 C409 1.363 . S
C414 C413 1.415 . S
C415 H391 0.951 . S
C415 C416 1.366 . S
C415 C417 1.388 . S
C416 C415 1.366 . S
C416 C420 1.385 . S
C417 H392 0.951 1_554 S
C417 C415 1.388 . S
C417 C418 1.366 1_554 S
C418 C417 1.366 1_556 S
C418 C419 1.414 1_556 S
C418 C421 1.499 . S
C419 H393 0.950 1_554 S
C419 C418 1.414 1_554 S
C419 C420 1.374 . S
C420 H394 0.950 . S
C420 C416 1.385 . S
C420 C419 1.374 . S
C421 C418 1.499 . S
C421 C422 1.373 . S
C421 C423 1.389 . S
C422 H395 0.950 . S
C422 C408 1.377 . S
C422 C421 1.373 . S
C423 C407 1.377 . S
C423 C421 1.389 . S
C423 C424 1.524 . S
C424 C423 1.524 . S
C424 C425 1.397 . S
C424 C429 1.363 . S
C425 H396 0.950 . S
C425 C424 1.397 . S
C425 C426 1.334 . S
C426 H397 0.950 . S
C426 C425 1.334 . S
C426 C427 1.287 . S
C427 C426 1.287 . S
C427 C428 1.524 . S
C427 H430 0.999 . S
C428 H398 0.950 . S
C428 C427 1.524 . S
C428 C429 1.415 . S
C429 H399 0.950 . S
C429 C424 1.363 . S
C429 C428 1.415 . S
H430 C427 0.999 . S
H431 C412 0.913 . S
H432 C450 0.951 . S
H433 C452 0.951 . S
H434 C454 0.950 . S
H435 C455 0.950 . S
H436 C457 0.950 . S
H437 C460 0.950 . S
H438 C461 0.950 . S
H439 C463 0.950 . S
H440 C464 0.950 . S
H441 C465 0.951 . S
H442 C467 0.951 . S
H443 C469 0.950 . S
H444 C470 0.950 . S
H445 C472 0.950 . S
H446 C475 0.950 . S
H447 C476 0.950 . S
H448 C478 0.950 . S
H449 C479 0.950 . S
C450 H432 0.951 . S
C450 C451 1.366 . S
C450 C452 1.388 . S
C451 C450 1.366 . S
C451 C455 1.385 . S
C452 H433 0.951 . S
C452 C450 1.388 . S
C452 C453 1.366 . S
C453 C452 1.366 . S
C453 C454 1.414 . S
C453 C456 1.499 . S
C454 H434 0.950 . S
C454 C453 1.414 . S
C454 C455 1.374 . S
C455 H435 0.950 . S
C455 C451 1.385 . S
C455 C454 1.374 . S
C456 C453 1.499 . S
C456 C457 1.373 . S
C456 C458 1.389 . S
C457 H436 0.950 . S
C457 C456 1.373 . S
C457 C473 1.377 . S
C458 C456 1.389 . S
C458 C459 1.524 . S
C458 C472 1.377 . S
C459 C458 1.524 . S
C459 C460 1.397 . S
C459 C464 1.363 . S
C460 H437 0.950 . S
C460 C459 1.397 . S
C460 C461 1.334 . S
C461 H438 0.950 . S
C461 C460 1.334 . S
C461 C462 1.287 . S
C462 C461 1.287 . S
C462 C463 1.524 . S
C462 H481 0.913 . S
C463 H439 0.950 . S
C463 C462 1.524 . S
C463 C464 1.415 . S
C464 H440 0.950 . S
C464 C459 1.363 . S
C464 C463 1.415 . S
C465 H441 0.951 . S
C465 C466 1.366 . S
C465 C467 1.388 . S
C466 C465 1.366 . S
C466 C470 1.385 . S
C467 H442 0.951 . S
C467 C465 1.388 . S
C467 C468 1.366 . S
C468 C467 1.366 . S
C468 C469 1.414 . S
C468 C471 1.499 . S
C469 H443 0.950 . S
C469 C468 1.414 . S
C469 C470 1.374 . S
C470 H444 0.950 . S
C470 C466 1.385 . S
C470 C469 1.374 . S
C471 C468 1.499 . S
C471 C472 1.373 . S
C471 C473 1.389 . S
C472 H445 0.950 . S
C472 C458 1.377 . S
C472 C471 1.373 . S
C473 C457 1.377 . S
C473 C471 1.389 . S
C473 C474 1.524 . S
C474 C473 1.524 . S
C474 C475 1.397 . S
C474 C479 1.363 . S
C475 H446 0.950 . S
C475 C474 1.397 . S
C475 C476 1.334 . S
C476 H447 0.950 . S
C476 C475 1.334 . S
C476 C477 1.287 . S
C477 C476 1.287 . S
C477 C478 1.524 . S
C477 H480 0.999 . S
C478 H448 0.950 . S
C478 C477 1.524 . S
C478 C479 1.415 . S
C479 H449 0.950 . S
C479 C474 1.363 . S
C479 C478 1.415 . S
H480 C477 0.999 . S
H481 C462 0.913 . S
H482 C500 0.951 . S
H483 C502 0.951 . S
H484 C504 0.950 . S
H485 C505 0.950 . S
H486 C507 0.950 . S
H487 C510 0.950 . S
H488 C511 0.950 . S
H489 C513 0.950 . S
H490 C514 0.950 . S
H491 C515 0.951 . S
H492 C517 0.951 . S
H493 C519 0.950 . S
H494 C520 0.950 . S
H495 C522 0.950 . S
H496 C525 0.950 . S
H497 C526 0.950 . S
H498 C528 0.950 . S
H499 C529 0.950 . S
C500 H482 0.951 . S
C500 C501 1.366 . S
C500 C502 1.388 . S
C501 C500 1.366 . S
C501 C505 1.385 . S
C502 H483 0.951 . S
C502 C500 1.388 . S
C502 C503 1.366 . S
C503 C502 1.366 . S
C503 C504 1.414 . S
C503 C506 1.499 . S
C504 H484 0.950 . S
C504 C503 1.414 . S
C504 C505 1.374 . S
C505 H485 0.950 . S
C505 C501 1.385 . S
C505 C504 1.374 . S
C506 C503 1.499 . S
C506 C507 1.373 . S
C506 C508 1.389 . S
C507 H486 0.950 . S
C507 C506 1.373 . S
C507 C523 1.377 . S
C508 C506 1.389 . S
C508 C509 1.524 . S
C508 C522 1.377 . S
C509 C508 1.524 . S
C509 C510 1.397 . S
C509 C514 1.363 . S
C510 H487 0.950 . S
C510 C509 1.397 . S
C510 C511 1.334 . S
C511 H488 0.950 . S
C511 C510 1.334 . S
C511 C512 1.287 . S
C512 C511 1.287 . S
C512 C513 1.524 . S
C512 H531 0.913 . S
C513 H489 0.950 . S
C513 C512 1.524 . S
C513 C514 1.415 . S
C514 H490 0.950 . S
C514 C509 1.363 . S
C514 C513 1.415 . S
C515 H491 0.951 . S
C515 C516 1.366 . S
C515 C517 1.388 . S
C516 C515 1.366 . S
C516 C520 1.385 . S
C517 H492 0.951 . S
C517 C515 1.388 . S
C517 C518 1.366 . S
C518 C517 1.366 . S
C518 C519 1.414 . S
C518 C521 1.499 . S
C519 H493 0.950 . S
C519 C518 1.414 . S
C519 C520 1.374 . S
C520 H494 0.950 . S
C520 C516 1.385 . S
C520 C519 1.374 . S
C521 C518 1.499 . S
C521 C522 1.373 . S
C521 C523 1.389 . S
C522 H495 0.950 . S
C522 C508 1.377 . S
C522 C521 1.373 . S
C523 C507 1.377 . S
C523 C521 1.389 . S
C523 C524 1.524 . S
C524 C523 1.524 . S
C524 C525 1.397 . S
C524 C529 1.363 . S
C525 H496 0.950 . S
C525 C524 1.397 . S
C525 C526 1.334 . S
C526 H497 0.950 . S
C526 C525 1.334 . S
C526 C527 1.287 . S
C527 C526 1.287 . S
C527 C528 1.524 . S
C527 H530 0.999 . S
C528 H498 0.950 . S
C528 C527 1.524 . S
C528 C529 1.415 . S
C529 H499 0.950 . S
C529 C524 1.363 . S
C529 C528 1.415 . S
H530 C527 0.999 . S
H531 C512 0.913 . S
H532 C550 0.951 . S
H533 C552 0.951 . S
H534 C554 0.950 . S
H535 C555 0.950 . S
H536 C557 0.950 . S
H537 C560 0.950 . S
H538 C561 0.950 . S
H539 C563 0.950 . S
H540 C564 0.950 . S
H541 C565 0.951 . S
H542 C567 0.951 . S
H543 C569 0.950 . S
H544 C570 0.950 . S
H545 C572 0.950 . S
H546 C575 0.950 . S
H547 C576 0.950 . S
H548 C578 0.950 . S
H549 C579 0.950 . S
C550 H532 0.951 . S
C550 C551 1.366 . S
C550 C552 1.388 . S
C551 C550 1.366 . S
C551 C555 1.385 . S
C552 H533 0.951 . S
C552 C550 1.388 . S
C552 C553 1.366 . S
C553 C552 1.366 . S
C553 C554 1.414 . S
C553 C556 1.499 . S
C554 H534 0.950 . S
C554 C553 1.414 . S
C554 C555 1.374 . S
C555 H535 0.950 . S
C555 C551 1.385 . S
C555 C554 1.374 . S
C556 C553 1.499 . S
C556 C557 1.373 . S
C556 C558 1.389 . S
C557 H536 0.950 . S
C557 C556 1.373 . S
C557 C573 1.377 . S
C558 C556 1.389 . S
C558 C559 1.524 . S
C558 C572 1.377 . S
C559 C558 1.524 . S
C559 C560 1.397 . S
C559 C564 1.363 . S
C560 H537 0.950 . S
C560 C559 1.397 . S
C560 C561 1.334 . S
C561 H538 0.950 . S
C561 C560 1.334 . S
C561 C562 1.287 . S
C562 C561 1.287 . S
C562 C563 1.524 . S
C562 H581 0.913 . S
C563 H539 0.950 . S
C563 C562 1.524 . S
C563 C564 1.415 . S
C564 H540 0.950 . S
C564 C559 1.363 . S
C564 C563 1.415 . S
C565 H541 0.951 . S
C565 C566 1.366 . S
C565 C567 1.388 . S
C566 C565 1.366 . S
C566 C570 1.385 . S
C567 H542 0.951 . S
C567 C565 1.388 . S
C567 C568 1.366 . S
C568 C567 1.366 . S
C568 C569 1.414 . S
C568 C571 1.499 . S
C569 H543 0.950 . S
C569 C568 1.414 . S
C569 C570 1.374 . S
C570 H544 0.950 . S
C570 C566 1.385 . S
C570 C569 1.374 . S
C571 C568 1.499 . S
C571 C572 1.373 . S
C571 C573 1.389 . S
C572 H545 0.950 . S
C572 C558 1.377 . S
C572 C571 1.373 . S
C573 C557 1.377 . S
C573 C571 1.389 . S
C573 C574 1.524 . S
C574 C573 1.524 . S
C574 C575 1.397 . S
C574 C579 1.363 . S
C575 H546 0.950 . S
C575 C574 1.397 . S
C575 C576 1.334 . S
C576 H547 0.950 . S
C576 C575 1.334 . S
C576 C577 1.287 . S
C577 C576 1.287 . S
C577 C578 1.524 . S
C577 H580 0.999 . S
C578 H548 0.950 . S
C578 C577 1.524 . S
C578 C579 1.415 . S
C579 H549 0.950 . S
C579 C574 1.363 . S
C579 C578 1.415 . S
H580 C577 0.999 . S
H581 C562 0.913 . S
H582 C600 0.951 . S
H583 C602 0.951 . S
H584 C604 0.950 . S
H585 C605 0.950 . S
H586 C607 0.950 . S
H587 C610 0.950 . S
H588 C611 0.950 . S
H589 C613 0.950 . S
H590 C614 0.950 . S
H591 C615 0.951 . S
H592 C617 0.951 . S
H593 C619 0.950 . S
H594 C620 0.950 . S
H595 C622 0.950 . S
H596 C625 0.950 . S
H597 C626 0.950 . S
H598 C628 0.950 . S
H599 C629 0.950 . S
C600 H582 0.951 . S
C600 C601 1.366 . S
C600 C602 1.388 . S
C601 C600 1.366 . S
C601 C605 1.385 . S
C602 H583 0.951 . S
C602 C600 1.388 . S
C602 C603 1.366 . S
C603 C602 1.366 . S
C603 C604 1.414 . S
C603 C606 1.499 . S
C604 H584 0.950 . S
C604 C603 1.414 . S
C604 C605 1.374 . S
C605 H585 0.950 . S
C605 C601 1.385 . S
C605 C604 1.374 . S
C606 C603 1.499 . S
C606 C607 1.373 . S
C606 C608 1.389 . S
C607 H586 0.950 . S
C607 C606 1.373 . S
C607 C623 1.377 . S
C608 C606 1.389 . S
C608 C609 1.524 . S
C608 C622 1.377 . S
C609 C608 1.524 . S
C609 C610 1.397 . S
C609 C614 1.363 . S
C610 H587 0.950 . S
C610 C609 1.397 . S
C610 C611 1.334 . S
C611 H588 0.950 . S
C611 C610 1.334 . S
C611 C612 1.287 . S
C612 C611 1.287 . S
C612 C613 1.524 . S
C612 H631 0.913 . S
C613 H589 0.950 . S
C613 C612 1.524 . S
C613 C614 1.415 . S
C614 H590 0.950 . S
C614 C609 1.363 . S
C614 C613 1.415 . S
C615 H591 0.951 . S
C615 C616 1.366 . S
C615 C617 1.388 . S
C616 C615 1.366 . S
C616 C620 1.385 . S
C617 H592 0.951 . S
C617 C615 1.388 . S
C617 C618 1.366 . S
C618 C617 1.366 . S
C618 C619 1.414 . S
C618 C621 1.499 . S
C619 H593 0.950 . S
C619 C618 1.414 . S
C619 C620 1.374 . S
C620 H594 0.950 . S
C620 C616 1.385 . S
C620 C619 1.374 . S
C621 C618 1.499 . S
C621 C622 1.373 . S
C621 C623 1.389 . S
C622 H595 0.950 . S
C622 C608 1.377 . S
C622 C621 1.373 . S
C623 C607 1.377 . S
C623 C621 1.389 . S
C623 C624 1.524 . S
C624 C623 1.524 . S
C624 C625 1.397 . S
C624 C629 1.363 . S
C625 H596 0.950 . S
C625 C624 1.397 . S
C625 C626 1.334 . S
C626 H597 0.950 . S
C626 C625 1.334 . S
C626 C627 1.287 . S
C627 C626 1.287 . S
C627 C628 1.524 . S
C627 H630 0.999 . S
C628 H598 0.950 . S
C628 C627 1.524 . S
C628 C629 1.415 . S
C629 H599 0.950 . S
C629 C624 1.363 . S
C629 C628 1.415 . S
H630 C627 0.999 . S
H631 C612 0.913 . S
H632 C650 0.951 . S
H633 C652 0.951 . S
H634 C654 0.950 . S
H635 C655 0.950 . S
H636 C657 0.950 . S
H637 C660 0.950 . S
H638 C661 0.950 . S
H639 C663 0.950 . S
H640 C664 0.950 . S
H641 C665 0.951 . S
H642 C667 0.951 . S
H643 C669 0.950 . S
H644 C670 0.950 . S
H645 C672 0.950 . S
H646 C675 0.950 . S
H647 C676 0.950 . S
H648 C678 0.950 . S
H649 C679 0.950 . S
C650 H632 0.951 . S
C650 C651 1.366 . S
C650 C652 1.388 . S
C651 C650 1.366 . S
C651 C655 1.385 . S
C652 H633 0.951 . S
C652 C650 1.388 . S
C652 C653 1.366 . S
C653 C652 1.366 . S
C653 C654 1.414 . S
C653 C656 1.499 . S
C654 H634 0.950 . S
C654 C653 1.414 . S
C654 C655 1.374 . S
C655 H635 0.950 . S
C655 C651 1.385 . S
C655 C654 1.374 . S
C656 C653 1.499 . S
C656 C657 1.373 . S
C656 C658 1.389 . S
C657 H636 0.950 . S
C657 C656 1.373 . S
C657 C673 1.377 1_545 S
C658 C656 1.389 . S
C658 C659 1.524 . S
C658 C672 1.377 1_545 S
C659 C658 1.524 . S
C659 C660 1.397 . S
C659 C664 1.363 1_545 S
C660 H637 0.950 . S
C660 C659 1.397 . S
C660 C661 1.334 . S
C661 H638 0.950 . S
C661 C660 1.334 . S
C661 C662 1.287 . S
C662 C661 1.287 . S
C662 C663 1.524 1_545 S
C662 H681 0.913 . S
C663 H639 0.950 . S
C663 C662 1.524 1_565 S
C663 C664 1.415 . S
C664 H640 0.950 . S
C664 C659 1.363 1_565 S
C664 C663 1.415 . S
C665 H641 0.951 . S
C665 C666 1.366 . S
C665 C667 1.388 . S
C666 C665 1.366 . S
C666 C670 1.385 . S
C667 H642 0.951 . S
C667 C665 1.388 . S
C667 C668 1.366 . S
C668 C667 1.366 . S
C668 C669 1.414 . S
C668 C671 1.499 . S
C669 H643 0.950 . S
C669 C668 1.414 . S
C669 C670 1.374 . S
C670 H644 0.950 . S
C670 C666 1.385 . S
C670 C669 1.374 . S
C671 C668 1.499 . S
C671 C672 1.373 . S
C671 C673 1.389 . S
C672 H645 0.950 . S
C672 C658 1.377 1_565 S
C672 C671 1.373 . S
C673 C657 1.377 1_565 S
C673 C671 1.389 . S
C673 C674 1.524 . S
C674 C673 1.524 . S
C674 C675 1.397 . S
C674 C679 1.363 1_565 S
C675 H646 0.950 . S
C675 C674 1.397 . S
C675 C676 1.334 . S
C676 H647 0.950 . S
C676 C675 1.334 . S
C676 C677 1.287 . S
C677 C676 1.287 . S
C677 C678 1.524 1_565 S
C677 H680 0.999 . S
C678 H648 0.950 . S
C678 C677 1.524 1_545 S
C678 C679 1.415 . S
C679 H649 0.950 . S
C679 C674 1.363 1_545 S
C679 C678 1.415 . S
H680 C677 0.999 . S
H681 C662 0.913 . S
H682 C700 0.951 . S
H683 C702 0.951 . S
H684 C704 0.950 . S
H685 C705 0.950 . S
H686 C707 0.950 . S
H687 C710 0.950 . S
H688 C711 0.950 . S
H689 C713 0.950 . S
H690 C714 0.950 . S
H691 C715 0.951 . S
H692 C717 0.951 . S
H693 C719 0.950 . S
H694 C720 0.950 . S
H695 C722 0.950 . S
H696 C725 0.950 . S
H697 C726 0.950 . S
H698 C728 0.950 . S
H699 C729 0.950 . S
C700 H682 0.951 . S
C700 C701 1.366 . S
C700 C702 1.388 . S
C701 C700 1.366 . S
C701 C705 1.385 . S
C702 H683 0.951 . S
C702 C700 1.388 . S
C702 C703 1.366 . S
C703 C702 1.366 . S
C703 C704 1.414 . S
C703 C706 1.499 . S
C704 H684 0.950 . S
C704 C703 1.414 . S
C704 C705 1.374 . S
C705 H685 0.950 . S
C705 C701 1.385 . S
C705 C704 1.374 . S
C706 C703 1.499 . S
C706 C707 1.373 . S
C706 C708 1.389 . S
C707 H686 0.950 . S
C707 C706 1.373 . S
C707 C723 1.377 1_655 S
C708 C706 1.389 . S
C708 C709 1.524 . S
C708 C722 1.377 1_655 S
C709 C708 1.524 . S
C709 C710 1.397 . S
C709 C714 1.363 . S
C710 H687 0.950 . S
C710 C709 1.397 . S
C710 C711 1.334 . S
C711 H688 0.950 . S
C711 C710 1.334 . S
C711 C712 1.287 . S
C712 C711 1.287 . S
C712 C713 1.524 . S
C712 H731 0.913 . S
C713 H689 0.950 . S
C713 C712 1.524 . S
C713 C714 1.415 . S
C714 H690 0.950 . S
C714 C709 1.363 . S
C714 C713 1.415 . S
C715 H691 0.951 . S
C715 C716 1.366 . S
C715 C717 1.388 . S
C716 C715 1.366 . S
C716 C720 1.385 . S
C717 H692 0.951 . S
C717 C715 1.388 . S
C717 C718 1.366 . S
C718 C717 1.366 . S
C718 C719 1.414 . S
C718 C721 1.499 . S
C719 H693 0.950 . S
C719 C718 1.414 . S
C719 C720 1.374 . S
C720 H694 0.950 . S
C720 C716 1.385 . S
C720 C719 1.374 . S
C721 C718 1.499 . S
C721 C722 1.373 . S
C721 C723 1.389 . S
C722 H695 0.950 . S
C722 C708 1.377 1_455 S
C722 C721 1.373 . S
C723 C707 1.377 1_455 S
C723 C721 1.389 . S
C723 C724 1.524 . S
C724 C723 1.524 . S
C724 C725 1.397 . S
C724 C729 1.363 . S
C725 H696 0.950 . S
C725 C724 1.397 . S
C725 C726 1.334 . S
C726 H697 0.950 . S
C726 C725 1.334 . S
C726 C727 1.287 . S
C727 C726 1.287 . S
C727 C728 1.524 . S
C727 H730 0.999 . S
C728 H698 0.950 . S
C728 C727 1.524 . S
C728 C729 1.415 . S
C729 H699 0.950 . S
C729 C724 1.363 . S
C729 C728 1.415 . S
H730 C727 0.999 . S
H731 C712 0.913 . S
H732 C750 0.951 . S
H733 C752 0.951 1_455 S
H734 C754 0.950 . S
H735 C755 0.950 . S
H736 C757 0.950 . S
H737 C760 0.950 . S
H738 C761 0.950 . S
H739 C763 0.950 . S
H740 C764 0.950 . S
H741 C765 0.951 . S
H742 C767 0.951 1_655 S
H743 C769 0.950 . S
H744 C770 0.950 . S
H745 C772 0.950 . S
H746 C775 0.950 . S
H747 C776 0.950 . S
H748 C778 0.950 . S
H749 C779 0.950 . S
C750 H732 0.951 . S
C750 C751 1.366 . S
C750 C752 1.388 . S
C751 C750 1.366 . S
C751 C755 1.385 . S
C752 H733 0.951 1_655 S
C752 C750 1.388 . S
C752 C753 1.366 . S
C753 C752 1.366 . S
C753 C754 1.414 . S
C753 C756 1.499 . S
C754 H734 0.950 . S
C754 C753 1.414 . S
C754 C755 1.374 . S
C755 H735 0.950 . S
C755 C751 1.385 . S
C755 C754 1.374 . S
C756 C753 1.499 . S
C756 C757 1.373 . S
C756 C758 1.389 1_655 S
C757 H736 0.950 . S
C757 C756 1.373 . S
C757 C773 1.377 . S
C758 C756 1.389 1_455 S
C758 C759 1.524 . S
C758 C772 1.377 . S
C759 C758 1.524 . S
C759 C760 1.397 1_455 S
C759 C764 1.363 . S
C760 H737 0.950 . S
C760 C759 1.397 1_655 S
C760 C761 1.334 . S
C761 H738 0.950 . S
C761 C760 1.334 . S
C761 C762 1.287 1_655 S
C762 C761 1.287 1_455 S
C762 C763 1.524 . S
C762 H781 0.913 . S
C763 H739 0.950 . S
C763 C762 1.524 . S
C763 C764 1.415 . S
C764 H740 0.950 . S
C764 C759 1.363 . S
C764 C763 1.415 . S
C765 H741 0.951 . S
C765 C766 1.366 . S
C765 C767 1.388 . S
C766 C765 1.366 . S
C766 C770 1.385 . S
C767 H742 0.951 1_455 S
C767 C765 1.388 . S
C767 C768 1.366 . S
C768 C767 1.366 . S
C768 C769 1.414 . S
C768 C771 1.499 . S
C769 H743 0.950 . S
C769 C768 1.414 . S
C769 C770 1.374 . S
C770 H744 0.950 . S
C770 C766 1.385 . S
C770 C769 1.374 . S
C771 C768 1.499 . S
C771 C772 1.373 . S
C771 C773 1.389 1_455 S
C772 H745 0.950 . S
C772 C758 1.377 . S
C772 C771 1.373 . S
C773 C757 1.377 . S
C773 C771 1.389 1_655 S
C773 C774 1.524 . S
C774 C773 1.524 . S
C774 C775 1.397 1_655 S
C774 C779 1.363 . S
C775 H746 0.950 . S
C775 C774 1.397 1_455 S
C775 C776 1.334 . S
C776 H747 0.950 . S
C776 C775 1.334 . S
C776 C777 1.287 1_455 S
C777 C776 1.287 1_655 S
C777 C778 1.524 . S
C777 H780 0.999 . S
C778 H748 0.950 . S
C778 C777 1.524 . S
C778 C779 1.415 . S
C779 H749 0.950 . S
C779 C774 1.363 . S
C779 C778 1.415 . S
H780 C777 0.999 . S
H781 C762 0.913 . S
H782 C800 0.951 . S
H783 C802 0.951 . S
H784 C804 0.950 . S
H785 C805 0.950 . S
H786 C807 0.950 . S
H787 C810 0.950 . S
H788 C811 0.950 . S
H789 C813 0.950 . S
H790 C814 0.950 . S
H791 C815 0.951 . S
H792 C817 0.951 . S
H793 C819 0.950 . S
H794 C820 0.950 . S
H795 C822 0.950 . S
H796 C825 0.950 . S
H797 C826 0.950 . S
H798 C828 0.950 . S
H799 C829 0.950 . S
C800 H782 0.951 . S
C800 C801 1.366 . S
C800 C802 1.388 . S
C801 C800 1.366 . S
C801 C805 1.385 . S
C802 H783 0.951 . S
C802 C800 1.388 . S
C802 C803 1.366 . S
C803 C802 1.366 . S
C803 C804 1.414 . S
C803 C806 1.499 . S
C804 H784 0.950 . S
C804 C803 1.414 . S
C804 C805 1.374 . S
C805 H785 0.950 . S
C805 C801 1.385 . S
C805 C804 1.374 . S
C806 C803 1.499 . S
C806 C807 1.373 1_545 S
C806 C808 1.389 . S
C807 H786 0.950 . S
C807 C806 1.373 1_565 S
C807 C823 1.377 . S
C808 C806 1.389 . S
C808 C809 1.524 . S
C808 C822 1.377 . S
C809 C808 1.524 . S
C809 C810 1.397 . S
C809 C814 1.363 . S
C810 H787 0.950 . S
C810 C809 1.397 . S
C810 C811 1.334 . S
C811 H788 0.950 . S
C811 C810 1.334 . S
C811 C812 1.287 . S
C812 C811 1.287 . S
C812 C813 1.524 . S
C812 H831 0.913 . S
C813 H789 0.950 . S
C813 C812 1.524 . S
C813 C814 1.415 . S
C814 H790 0.950 . S
C814 C809 1.363 . S
C814 C813 1.415 . S
C815 H791 0.951 . S
C815 C816 1.366 . S
C815 C817 1.388 . S
C816 C815 1.366 . S
C816 C820 1.385 . S
C817 H792 0.951 . S
C817 C815 1.388 . S
C817 C818 1.366 . S
C818 C817 1.366 . S
C818 C819 1.414 . S
C818 C821 1.499 . S
C819 H793 0.950 . S
C819 C818 1.414 . S
C819 C820 1.374 . S
C820 H794 0.950 . S
C820 C816 1.385 . S
C820 C819 1.374 . S
C821 C818 1.499 . S
C821 C822 1.373 1_565 S
C821 C823 1.389 . S
C822 H795 0.950 . S
C822 C808 1.377 . S
C822 C821 1.373 1_545 S
C823 C807 1.377 . S
C823 C821 1.389 . S
C823 C824 1.524 . S
C824 C823 1.524 . S
C824 C825 1.397 . S
C824 C829 1.363 . S
C825 H796 0.950 . S
C825 C824 1.397 . S
C825 C826 1.334 . S
C826 H797 0.950 . S
C826 C825 1.334 . S
C826 C827 1.287 . S
C827 C826 1.287 . S
C827 C828 1.524 . S
C827 H830 0.999 . S
C828 H798 0.950 . S
C828 C827 1.524 . S
C828 C829 1.415 . S
C829 H799 0.950 . S
C829 C824 1.363 . S
C829 C828 1.415 . S
H830 C827 0.999 . S
H831 C812 0.913 . S
H832 C850 0.951 . S
H833 C852 0.951 . S
H834 C854 0.950 . S
H835 C855 0.950 . S
H836 C857 0.950 . S
H837 C860 0.950 . S
H838 C861 0.950 . S
H839 C863 0.950 . S
H840 C864 0.950 . S
H841 C865 0.951 . S
H842 C867 0.951 . S
H843 C869 0.950 . S
H844 C870 0.950 . S
H845 C872 0.950 . S
H846 C875 0.950 . S
H847 C876 0.950 . S
H848 C878 0.950 . S
H849 C879 0.950 . S
C850 H832 0.951 . S
C850 C851 1.366 . S
C850 C852 1.388 . S
C851 C850 1.366 . S
C851 C855 1.385 . S
C852 H833 0.951 . S
C852 C850 1.388 . S
C852 C853 1.366 . S
C853 C852 1.366 . S
C853 C854 1.414 . S
C853 C856 1.499 . S
C854 H834 0.950 . S
C854 C853 1.414 . S
C854 C855 1.374 . S
C855 H835 0.950 . S
C855 C851 1.385 . S
C855 C854 1.374 . S
C856 C853 1.499 . S
C856 C857 1.373 . S
C856 C858 1.389 . S
C857 H836 0.950 . S
C857 C856 1.373 . S
C857 C873 1.377 . S
C858 C856 1.389 . S
C858 C859 1.524 . S
C858 C872 1.377 . S
C859 C858 1.524 . S
C859 C860 1.397 . S
C859 C864 1.363 . S
C860 H837 0.950 . S
C860 C859 1.397 . S
C860 C861 1.334 . S
C861 H838 0.950 . S
C861 C860 1.334 . S
C861 C862 1.287 . S
C862 C861 1.287 . S
C862 C863 1.524 . S
C862 H881 0.913 . S
C863 H839 0.950 . S
C863 C862 1.524 . S
C863 C864 1.415 . S
C864 H840 0.950 . S
C864 C859 1.363 . S
C864 C863 1.415 . S
C865 H841 0.951 . S
C865 C866 1.366 . S
C865 C867 1.388 . S
C866 C865 1.366 . S
C866 C870 1.385 . S
C867 H842 0.951 . S
C867 C865 1.388 . S
C867 C868 1.366 . S
C868 C867 1.366 . S
C868 C869 1.414 . S
C868 C871 1.499 . S
C869 H843 0.950 . S
C869 C868 1.414 . S
C869 C870 1.374 . S
C870 H844 0.950 . S
C870 C866 1.385 . S
C870 C869 1.374 . S
C871 C868 1.499 . S
C871 C872 1.373 . S
C871 C873 1.389 . S
C872 H845 0.950 . S
C872 C858 1.377 . S
C872 C871 1.373 . S
C873 C857 1.377 . S
C873 C871 1.389 . S
C873 C874 1.524 . S
C874 C873 1.524 . S
C874 C875 1.397 . S
C874 C879 1.363 . S
C875 H846 0.950 . S
C875 C874 1.397 . S
C875 C876 1.334 . S
C876 H847 0.950 . S
C876 C875 1.334 . S
C876 C877 1.287 . S
C877 C876 1.287 . S
C877 C878 1.524 . S
C877 H880 0.999 . S
C878 H848 0.950 . S
C878 C877 1.524 . S
C878 C879 1.415 . S
C879 H849 0.950 . S
C879 C874 1.363 . S
C879 C878 1.415 . S
H880 C877 0.999 . S
H881 C862 0.913 . S
H882 C900 0.951 . S
H883 C902 0.951 . S
H884 C904 0.950 . S
H885 C905 0.950 . S
H886 C907 0.950 . S
H887 C910 0.950 . S
H888 C911 0.950 . S
H889 C913 0.950 . S
H890 C914 0.950 . S
H891 C915 0.951 . S
H892 C917 0.951 . S
H893 C919 0.950 . S
H894 C920 0.950 . S
H895 C922 0.950 . S
H896 C925 0.950 . S
H897 C926 0.950 . S
H898 C928 0.950 . S
H899 C929 0.950 . S
C900 H882 0.951 . S
C900 C901 1.366 . S
C900 C902 1.388 . S
C901 C900 1.366 . S
C901 C905 1.385 . S
C902 H883 0.951 . S
C902 C900 1.388 . S
C902 C903 1.366 . S
C903 C902 1.366 . S
C903 C904 1.414 . S
C903 C906 1.499 . S
C904 H884 0.950 . S
C904 C903 1.414 . S
C904 C905 1.374 . S
C905 H885 0.950 . S
C905 C901 1.385 . S
C905 C904 1.374 . S
C906 C903 1.499 . S
C906 C907 1.373 . S
C906 C908 1.389 . S
C907 H886 0.950 . S
C907 C906 1.373 . S
C907 C923 1.377 . S
C908 C906 1.389 . S
C908 C909 1.524 . S
C908 C922 1.377 . S
C909 C908 1.524 . S
C909 C910 1.397 . S
C909 C914 1.363 . S
C910 H887 0.950 . S
C910 C909 1.397 . S
C910 C911 1.334 . S
C911 H888 0.950 . S
C911 C910 1.334 . S
C911 C912 1.287 . S
C912 C911 1.287 . S
C912 C913 1.524 . S
C912 H931 0.913 . S
C913 H889 0.950 . S
C913 C912 1.524 . S
C913 C914 1.415 . S
C914 H890 0.950 . S
C914 C909 1.363 . S
C914 C913 1.415 . S
C915 H891 0.951 . S
C915 C916 1.366 . S
C915 C917 1.388 . S
C916 C915 1.366 . S
C916 C920 1.385 . S
C917 H892 0.951 . S
C917 C915 1.388 . S
C917 C918 1.366 . S
C918 C917 1.366 . S
C918 C919 1.414 . S
C918 C921 1.499 . S
C919 H893 0.950 . S
C919 C918 1.414 . S
C919 C920 1.374 . S
C920 H894 0.950 . S
C920 C916 1.385 . S
C920 C919 1.374 . S
C921 C918 1.499 . S
C921 C922 1.373 . S
C921 C923 1.389 . S
C922 H895 0.950 . S
C922 C908 1.377 . S
C922 C921 1.373 . S
C923 C907 1.377 . S
C923 C921 1.389 . S
C923 C924 1.524 . S
C924 C923 1.524 . S
C924 C925 1.397 . S
C924 C929 1.363 . S
C925 H896 0.950 . S
C925 C924 1.397 . S
C925 C926 1.334 . S
C926 H897 0.950 . S
C926 C925 1.334 . S
C926 C927 1.287 . S
C927 C926 1.287 . S
C927 C928 1.524 . S
C927 H930 0.999 . S
C928 H898 0.950 . S
C928 C927 1.524 . S
C928 C929 1.415 . S
C929 H899 0.950 . S
C929 C924 1.363 . S
C929 C928 1.415 . S
H930 C927 0.999 . S
H931 C912 0.913 . S
H932 C950 0.951 . S
H933 C952 0.951 . S
H934 C954 0.950 . S
H935 C955 0.950 . S
H936 C957 0.950 . S
H937 C960 0.950 . S
H938 C961 0.950 . S
H939 C963 0.950 . S
H940 C964 0.950 . S
H941 C965 0.951 . S
H942 C967 0.951 . S
H943 C969 0.950 . S
H944 C970 0.950 . S
H945 C972 0.950 . S
H946 C975 0.950 . S
H947 C976 0.950 . S
H948 C978 0.950 . S
H949 C979 0.950 . S
C950 H932 0.951 . S
C950 C951 1.366 . S
C950 C952 1.388 . S
C951 C950 1.366 . S
C951 C955 1.385 . S
C952 H933 0.951 . S
C952 C950 1.388 . S
C952 C953 1.366 . S
C953 C952 1.366 . S
C953 C954 1.414 . S
C953 C956 1.499 . S
C954 H934 0.950 . S
C954 C953 1.414 . S
C954 C955 1.374 . S
C955 H935 0.950 . S
C955 C951 1.385 . S
C955 C954 1.374 . S
C956 C953 1.499 . S
C956 C957 1.373 . S
C956 C958 1.389 . S
C957 H936 0.950 . S
C957 C956 1.373 . S
C957 C973 1.377 . S
C958 C956 1.389 . S
C958 C959 1.524 . S
C958 C972 1.377 . S
C959 C958 1.524 . S
C959 C960 1.397 . S
C959 C964 1.363 . S
C960 H937 0.950 . S
C960 C959 1.397 . S
C960 C961 1.334 . S
C961 H938 0.950 . S
C961 C960 1.334 . S
C961 C962 1.287 . S
C962 C961 1.287 . S
C962 C963 1.524 . S
C962 H981 0.913 . S
C963 H939 0.950 . S
C963 C962 1.524 . S
C963 C964 1.415 . S
C964 H940 0.950 . S
C964 C959 1.363 . S
C964 C963 1.415 . S
C965 H941 0.951 . S
C965 C966 1.366 . S
C965 C967 1.388 . S
C966 C965 1.366 . S
C966 C970 1.385 . S
C967 H942 0.951 . S
C967 C965 1.388 . S
C967 C968 1.366 . S
C968 C967 1.366 . S
C968 C969 1.414 . S
C968 C971 1.499 . S
C969 H943 0.950 . S
C969 C968 1.414 . S
C969 C970 1.374 . S
C970 H944 0.950 . S
C970 C966 1.385 . S
C970 C969 1.374 . S
C971 C968 1.499 . S
C971 C972 1.373 . S
C971 C973 1.389 . S
C972 H945 0.950 . S
C972 C958 1.377 . S
C972 C971 1.373 . S
C973 C957 1.377 . S
C973 C971 1.389 . S
C973 C974 1.524 . S
C974 C973 1.524 . S
C974 C975 1.397 . S
C974 C979 1.363 . S
C975 H946 0.950 . S
C975 C974 1.397 . S
C975 C976 1.334 . S
C976 H947 0.950 . S
C976 C975 1.334 . S
C976 C977 1.287 . S
C977 C976 1.287 . S
C977 C978 1.524 . S
C977 H980 0.999 . S
C978 H948 0.950 . S
C978 C977 1.524 . S
C978 C979 1.415 . S
C979 H949 0.950 . S
C979 C974 1.363 . S
C979 C978 1.415 . S
H980 C977 0.999 . S
H981 C962 0.913 . S
H982 C1000 0.951 . S
H983 C1002 0.951 . S
H984 C1004 0.950 . S
H985 C1005 0.950 . S
H986 C1007 0.950 . S
H987 C1010 0.950 . S
H988 C1011 0.950 . S
H989 C1013 0.950 . S
H990 C1014 0.950 . S
H991 C1015 0.951 . S
H992 C1017 0.951 . S
H993 C1019 0.950 . S
H994 C1020 0.950 . S
H995 C1022 0.950 . S
H996 C1025 0.950 . S
H997 C1026 0.950 . S
H998 C1028 0.950 . S
H999 C1029 0.950 . S
C1000 H982 0.951 . S
C1000 C1001 1.366 . S
C1000 C1002 1.388 . S
C1001 C1000 1.366 . S
C1001 C1005 1.385 . S
C1002 H983 0.951 . S
C1002 C1000 1.388 . S
C1002 C1003 1.366 . S
C1003 C1002 1.366 . S
C1003 C1004 1.414 . S
C1003 C1006 1.499 . S
C1004 H984 0.950 . S
C1004 C1003 1.414 . S
C1004 C1005 1.374 . S
C1005 H985 0.950 . S
C1005 C1001 1.385 . S
C1005 C1004 1.374 . S
C1006 C1003 1.499 . S
C1006 C1007 1.373 . S
C1006 C1008 1.389 . S
C1007 H986 0.950 . S
C1007 C1006 1.373 . S
C1007 C1023 1.377 . S
C1008 C1006 1.389 . S
C1008 C1009 1.524 . S
C1008 C1022 1.377 . S
C1009 C1008 1.524 . S
C1009 C1010 1.397 . S
C1009 C1014 1.363 . S
C1010 H987 0.950 . S
C1010 C1009 1.397 . S
C1010 C1011 1.334 . S
C1011 H988 0.950 . S
C1011 C1010 1.334 . S
C1011 C1012 1.287 . S
C1012 C1011 1.287 . S
C1012 C1013 1.524 . S
C1012 H1031 0.913 . S
C1013 H989 0.950 . S
C1013 C1012 1.524 . S
C1013 C1014 1.415 . S
C1014 H990 0.950 . S
C1014 C1009 1.363 . S
C1014 C1013 1.415 . S
C1015 H991 0.951 . S
C1015 C1016 1.366 . S
C1015 C1017 1.388 . S
C1016 C1015 1.366 . S
C1016 C1020 1.385 . S
C1017 H992 0.951 . S
C1017 C1015 1.388 . S
C1017 C1018 1.366 . S
C1018 C1017 1.366 . S
C1018 C1019 1.414 . S
C1018 C1021 1.499 . S
C1019 H993 0.950 . S
C1019 C1018 1.414 . S
C1019 C1020 1.374 . S
C1020 H994 0.950 . S
C1020 C1016 1.385 . S
C1020 C1019 1.374 . S
C1021 C1018 1.499 . S
C1021 C1022 1.373 . S
C1021 C1023 1.389 . S
C1022 H995 0.950 . S
C1022 C1008 1.377 . S
C1022 C1021 1.373 . S
C1023 C1007 1.377 . S
C1023 C1021 1.389 . S
C1023 C1024 1.524 . S
C1024 C1023 1.524 . S
C1024 C1025 1.397 . S
C1024 C1029 1.363 . S
C1025 H996 0.950 . S
C1025 C1024 1.397 . S
C1025 C1026 1.334 . S
C1026 H997 0.950 . S
C1026 C1025 1.334 . S
C1026 C1027 1.287 . S
C1027 C1026 1.287 . S
C1027 C1028 1.524 . S
C1027 H1030 0.999 . S
C1028 H998 0.950 . S
C1028 C1027 1.524 . S
C1028 C1029 1.415 . S
C1029 H999 0.950 . S
C1029 C1024 1.363 . S
C1029 C1028 1.415 . S
H1030 C1027 0.999 . S
H1031 C1012 0.913 . S
H1032 C1050 0.951 . S
H1033 C1052 0.951 1_455 S
H1034 C1054 0.950 1_455 S
H1035 C1055 0.950 . S
H1036 C1057 0.950 . S
H1037 C1060 0.950 . S
H1038 C1061 0.950 . S
H1039 C1063 0.950 . S
H1040 C1064 0.950 . S
H1041 C1065 0.951 . S
H1042 C1067 0.951 . S
H1043 C1069 0.950 . S
H1044 C1070 0.950 . S
H1045 C1072 0.950 . S
H1046 C1075 0.950 . S
H1047 C1076 0.950 . S
H1048 C1078 0.950 . S
H1049 C1079 0.950 . S
C1050 H1032 0.951 . S
C1050 C1051 1.366 . S
C1050 C1052 1.388 . S
C1051 C1050 1.366 . S
C1051 C1055 1.385 . S
C1052 H1033 0.951 1_655 S
C1052 C1050 1.388 . S
C1052 C1053 1.366 1_655 S
C1053 C1052 1.366 1_455 S
C1053 C1054 1.414 1_455 S
C1053 C1056 1.499 . S
C1054 H1034 0.950 1_655 S
C1054 C1053 1.414 1_655 S
C1054 C1055 1.374 . S
C1055 H1035 0.950 . S
C1055 C1051 1.385 . S
C1055 C1054 1.374 . S
C1056 C1053 1.499 . S
C1056 C1057 1.373 . S
C1056 C1058 1.389 . S
C1057 H1036 0.950 . S
C1057 C1056 1.373 . S
C1057 C1073 1.377 . S
C1058 C1056 1.389 . S
C1058 C1059 1.524 . S
C1058 C1072 1.377 . S
C1059 C1058 1.524 . S
C1059 C1060 1.397 . S
C1059 C1064 1.363 . S
C1060 H1037 0.950 . S
C1060 C1059 1.397 . S
C1060 C1061 1.334 1_455 S
C1061 H1038 0.950 . S
C1061 C1060 1.334 1_655 S
C1061 C1062 1.287 1_655 S
C1062 C1061 1.287 1_455 S
C1062 C1063 1.524 . S
C1062 H1081 0.913 1_455 S
C1063 H1039 0.950 . S
C1063 C1062 1.524 . S
C1063 C1064 1.415 . S
C1064 H1040 0.950 . S
C1064 C1059 1.363 . S
C1064 C1063 1.415 . S
C1065 H1041 0.951 . S
C1065 C1066 1.366 . S
C1065 C1067 1.388 . S
C1066 C1065 1.366 . S
C1066 C1070 1.385 . S
C1067 H1042 0.951 . S
C1067 C1065 1.388 . S
C1067 C1068 1.366 . S
C1068 C1067 1.366 . S
C1068 C1069 1.414 . S
C1068 C1071 1.499 . S
C1069 H1043 0.950 . S
C1069 C1068 1.414 . S
C1069 C1070 1.374 . S
C1070 H1044 0.950 . S
C1070 C1066 1.385 . S
C1070 C1069 1.374 . S
C1071 C1068 1.499 . S
C1071 C1072 1.373 . S
C1071 C1073 1.389 . S
C1072 H1045 0.950 . S
C1072 C1058 1.377 . S
C1072 C1071 1.373 . S
C1073 C1057 1.377 . S
C1073 C1071 1.389 . S
C1073 C1074 1.524 . S
C1074 C1073 1.524 . S
C1074 C1075 1.397 . S
C1074 C1079 1.363 . S
C1075 H1046 0.950 . S
C1075 C1074 1.397 . S
C1075 C1076 1.334 . S
C1076 H1047 0.950 . S
C1076 C1075 1.334 . S
C1076 C1077 1.287 . S
C1077 C1076 1.287 . S
C1077 C1078 1.524 . S
C1077 H1080 0.999 . S
C1078 H1048 0.950 . S
C1078 C1077 1.524 . S
C1078 C1079 1.415 . S
C1079 H1049 0.950 . S
C1079 C1074 1.363 . S
C1079 C1078 1.415 . S
H1080 C1077 0.999 . S
H1081 C1062 0.913 1_655 S
H1082 C1100 0.951 . S
H1083 C1102 0.951 . S
H1084 C1104 0.950 . S
H1085 C1105 0.950 . S
H1086 C1107 0.950 . S
H1087 C1110 0.950 . S
H1088 C1111 0.950 . S
H1089 C1113 0.950 . S
H1090 C1114 0.950 . S
H1091 C1115 0.951 . S
H1092 C1117 0.951 . S
H1093 C1119 0.950 . S
H1094 C1120 0.950 . S
H1095 C1122 0.950 . S
H1096 C1125 0.950 . S
H1097 C1126 0.950 . S
H1098 C1128 0.950 . S
H1099 C1129 0.950 . S
C1100 H1082 0.951 . S
C1100 C1101 1.366 . S
C1100 C1102 1.388 . S
C1101 C1100 1.366 . S
C1101 C1105 1.385 . S
C1102 H1083 0.951 . S
C1102 C1100 1.388 . S
C1102 C1103 1.366 1_545 S
C1103 C1102 1.366 1_565 S
C1103 C1104 1.414 . S
C1103 C1106 1.499 . S
C1104 H1084 0.950 . S
C1104 C1103 1.414 . S
C1104 C1105 1.374 1_565 S
C1105 H1085 0.950 . S
C1105 C1101 1.385 . S
C1105 C1104 1.374 1_545 S
C1106 C1103 1.499 . S
C1106 C1107 1.373 . S
C1106 C1108 1.389 . S
C1107 H1086 0.950 . S
C1107 C1106 1.373 . S
C1107 C1123 1.377 . S
C1108 C1106 1.389 . S
C1108 C1109 1.524 . S
C1108 C1122 1.377 . S
C1109 C1108 1.524 . S
C1109 C1110 1.397 . S
C1109 C1114 1.363 . S
C1110 H1087 0.950 . S
C1110 C1109 1.397 . S
C1110 C1111 1.334 . S
C1111 H1088 0.950 . S
C1111 C1110 1.334 . S
C1111 C1112 1.287 . S
C1112 C1111 1.287 . S
C1112 C1113 1.524 . S
C1112 H1131 0.913 . S
C1113 H1089 0.950 . S
C1113 C1112 1.524 . S
C1113 C1114 1.415 . S
C1114 H1090 0.950 . S
C1114 C1109 1.363 . S
C1114 C1113 1.415 . S
C1115 H1091 0.951 . S
C1115 C1116 1.366 . S
C1115 C1117 1.388 . S
C1116 C1115 1.366 . S
C1116 C1120 1.385 . S
C1117 H1092 0.951 . S
C1117 C1115 1.388 . S
C1117 C1118 1.366 . S
C1118 C1117 1.366 . S
C1118 C1119 1.414 . S
C1118 C1121 1.499 . S
C1119 H1093 0.950 . S
C1119 C1118 1.414 . S
C1119 C1120 1.374 . S
C1120 H1094 0.950 . S
C1120 C1116 1.385 . S
C1120 C1119 1.374 . S
C1121 C1118 1.499 . S
C1121 C1122 1.373 . S
C1121 C1123 1.389 . S
C1122 H1095 0.950 . S
C1122 C1108 1.377 . S
C1122 C1121 1.373 . S
C1123 C1107 1.377 . S
C1123 C1121 1.389 . S
C1123 C1124 1.524 . S
C1124 C1123 1.524 . S
C1124 C1125 1.397 . S
C1124 C1129 1.363 . S
C1125 H1096 0.950 . S
C1125 C1124 1.397 . S
C1125 C1126 1.334 . S
C1126 H1097 0.950 . S
C1126 C1125 1.334 . S
C1126 C1127 1.287 . S
C1127 C1126 1.287 . S
C1127 C1128 1.524 . S
C1127 H1130 0.999 . S
C1128 H1098 0.950 . S
C1128 C1127 1.524 . S
C1128 C1129 1.415 . S
C1129 H1099 0.950 . S
C1129 C1124 1.363 . S
C1129 C1128 1.415 . S
H1130 C1127 0.999 . S
H1131 C1112 0.913 . S
H1132 C1150 0.951 . S
H1133 C1152 0.951 . S
H1134 C1154 0.950 . S
H1135 C1155 0.950 . S
H1136 C1157 0.950 . S
H1137 C1160 0.950 . S
H1138 C1161 0.950 . S
H1139 C1163 0.950 . S
H1140 C1164 0.950 . S
H1141 C1165 0.951 . S
H1142 C1167 0.951 1_655 S
H1143 C1169 0.950 1_655 S
H1144 C1170 0.950 . S
H1145 C1172 0.950 . S
H1146 C1175 0.950 . S
H1147 C1176 0.950 . S
H1148 C1178 0.950 . S
H1149 C1179 0.950 . S
C1150 H1132 0.951 . S
C1150 C1151 1.366 . S
C1150 C1152 1.388 . S
C1151 C1150 1.366 . S
C1151 C1155 1.385 . S
C1152 H1133 0.951 . S
C1152 C1150 1.388 . S
C1152 C1153 1.366 . S
C1153 C1152 1.366 . S
C1153 C1154 1.414 . S
C1153 C1156 1.499 . S
C1154 H1134 0.950 . S
C1154 C1153 1.414 . S
C1154 C1155 1.374 . S
C1155 H1135 0.950 . S
C1155 C1151 1.385 . S
C1155 C1154 1.374 . S
C1156 C1153 1.499 . S
C1156 C1157 1.373 . S
C1156 C1158 1.389 . S
C1157 H1136 0.950 . S
C1157 C1156 1.373 . S
C1157 C1173 1.377 . S
C1158 C1156 1.389 . S
C1158 C1159 1.524 . S
C1158 C1172 1.377 . S
C1159 C1158 1.524 . S
C1159 C1160 1.397 . S
C1159 C1164 1.363 . S
C1160 H1137 0.950 . S
C1160 C1159 1.397 . S
C1160 C1161 1.334 . S
C1161 H1138 0.950 . S
C1161 C1160 1.334 . S
C1161 C1162 1.287 . S
C1162 C1161 1.287 . S
C1162 C1163 1.524 . S
C1162 H1181 0.913 . S
C1163 H1139 0.950 . S
C1163 C1162 1.524 . S
C1163 C1164 1.415 . S
C1164 H1140 0.950 . S
C1164 C1159 1.363 . S
C1164 C1163 1.415 . S
C1165 H1141 0.951 . S
C1165 C1166 1.366 . S
C1165 C1167 1.388 . S
C1166 C1165 1.366 . S
C1166 C1170 1.385 . S
C1167 H1142 0.951 1_455 S
C1167 C1165 1.388 . S
C1167 C1168 1.366 1_455 S
C1168 C1167 1.366 1_655 S
C1168 C1169 1.414 1_655 S
C1168 C1171 1.499 . S
C1169 H1143 0.950 1_455 S
C1169 C1168 1.414 1_455 S
C1169 C1170 1.374 . S
C1170 H1144 0.950 . S
C1170 C1166 1.385 . S
C1170 C1169 1.374 . S
C1171 C1168 1.499 . S
C1171 C1172 1.373 . S
C1171 C1173 1.389 . S
C1172 H1145 0.950 . S
C1172 C1158 1.377 . S
C1172 C1171 1.373 . S
C1173 C1157 1.377 . S
C1173 C1171 1.389 . S
C1173 C1174 1.524 . S
C1174 C1173 1.524 . S
C1174 C1175 1.397 . S
C1174 C1179 1.363 . S
C1175 H1146 0.950 . S
C1175 C1174 1.397 . S
C1175 C1176 1.334 1_655 S
C1176 H1147 0.950 . S
C1176 C1175 1.334 1_455 S
C1176 C1177 1.287 . S
C1177 C1176 1.287 . S
C1177 C1178 1.524 1_455 S
C1177 H1180 0.999 . S
C1178 H1148 0.950 . S
C1178 C1177 1.524 1_655 S
C1178 C1179 1.415 . S
C1179 H1149 0.950 . S
C1179 C1174 1.363 . S
C1179 C1178 1.415 . S
H1180 C1177 0.999 . S
H1181 C1162 0.913 . S
H1182 C1200 0.951 . S
H1183 C1202 0.951 . S
H1184 C1204 0.950 . S
H1185 C1205 0.950 . S
H1186 C1207 0.950 . S
H1187 C1210 0.950 . S
H1188 C1211 0.950 . S
H1189 C1213 0.950 . S
H1190 C1214 0.950 . S
H1191 C1215 0.951 . S
H1192 C1217 0.951 . S
H1193 C1219 0.950 . S
H1194 C1220 0.950 . S
H1195 C1222 0.950 . S
H1196 C1225 0.950 . S
H1197 C1226 0.950 1_565 S
H1198 C1228 0.950 . S
H1199 C1229 0.950 . S
C1200 H1182 0.951 . S
C1200 C1201 1.366 . S
C1200 C1202 1.388 . S
C1201 C1200 1.366 . S
C1201 C1205 1.385 . S
C1202 H1183 0.951 . S
C1202 C1200 1.388 . S
C1202 C1203 1.366 . S
C1203 C1202 1.366 . S
C1203 C1204 1.414 . S
C1203 C1206 1.499 . S
C1204 H1184 0.950 . S
C1204 C1203 1.414 . S
C1204 C1205 1.374 . S
C1205 H1185 0.950 . S
C1205 C1201 1.385 . S
C1205 C1204 1.374 . S
C1206 C1203 1.499 . S
C1206 C1207 1.373 . S
C1206 C1208 1.389 . S
C1207 H1186 0.950 . S
C1207 C1206 1.373 . S
C1207 C1223 1.377 . S
C1208 C1206 1.389 . S
C1208 C1209 1.524 . S
C1208 C1222 1.377 . S
C1209 C1208 1.524 . S
C1209 C1210 1.397 . S
C1209 C1214 1.363 . S
C1210 H1187 0.950 . S
C1210 C1209 1.397 . S
C1210 C1211 1.334 . S
C1211 H1188 0.950 . S
C1211 C1210 1.334 . S
C1211 C1212 1.287 . S
C1212 C1211 1.287 . S
C1212 C1213 1.524 . S
C1212 H1231 0.913 . S
C1213 H1189 0.950 . S
C1213 C1212 1.524 . S
C1213 C1214 1.415 . S
C1214 H1190 0.950 . S
C1214 C1209 1.363 . S
C1214 C1213 1.415 . S
C1215 H1191 0.951 . S
C1215 C1216 1.366 . S
C1215 C1217 1.388 . S
C1216 C1215 1.366 . S
C1216 C1220 1.385 . S
C1217 H1192 0.951 . S
C1217 C1215 1.388 . S
C1217 C1218 1.366 1_565 S
C1218 C1217 1.366 1_545 S
C1218 C1219 1.414 . S
C1218 C1221 1.499 . S
C1219 H1193 0.950 . S
C1219 C1218 1.414 . S
C1219 C1220 1.374 1_545 S
C1220 H1194 0.950 . S
C1220 C1216 1.385 . S
C1220 C1219 1.374 1_565 S
C1221 C1218 1.499 . S
C1221 C1222 1.373 . S
C1221 C1223 1.389 . S
C1222 H1195 0.950 . S
C1222 C1208 1.377 . S
C1222 C1221 1.373 . S
C1223 C1207 1.377 . S
C1223 C1221 1.389 . S
C1223 C1224 1.524 . S
C1224 C1223 1.524 . S
C1224 C1225 1.397 . S
C1224 C1229 1.363 . S
C1225 H1196 0.950 . S
C1225 C1224 1.397 . S
C1225 C1226 1.334 . S
C1226 H1197 0.950 1_545 S
C1226 C1225 1.334 . S
C1226 C1227 1.287 . S
C1227 C1226 1.287 . S
C1227 C1228 1.524 . S
C1227 H1230 0.999 1_545 S
C1228 H1198 0.950 . S
C1228 C1227 1.524 . S
C1228 C1229 1.415 . S
C1229 H1199 0.950 . S
C1229 C1224 1.363 . S
C1229 C1228 1.415 . S
H1230 C1227 0.999 1_565 S
H1231 C1212 0.913 . S
H1232 C1250 0.951 . S
H1233 C1252 0.951 . S
H1234 C1254 0.950 . S
H1235 C1255 0.950 . S
H1236 C1257 0.950 . S
H1237 C1260 0.950 . S
H1238 C1261 0.950 . S
H1239 C1263 0.950 . S
H1240 C1264 0.950 . S
H1241 C1265 0.951 . S
H1242 C1267 0.951 . S
H1243 C1269 0.950 . S
H1244 C1270 0.950 . S
H1245 C1272 0.950 . S
H1246 C1275 0.950 . S
H1247 C1276 0.950 . S
H1248 C1278 0.950 . S
H1249 C1279 0.950 . S
C1250 H1232 0.951 . S
C1250 C1251 1.366 . S
C1250 C1252 1.388 . S
C1251 C1250 1.366 . S
C1251 C1255 1.385 . S
C1252 H1233 0.951 . S
C1252 C1250 1.388 . S
C1252 C1253 1.366 . S
C1253 C1252 1.366 . S
C1253 C1254 1.414 . S
C1253 C1256 1.499 . S
C1254 H1234 0.950 . S
C1254 C1253 1.414 . S
C1254 C1255 1.374 . S
C1255 H1235 0.950 . S
C1255 C1251 1.385 . S
C1255 C1254 1.374 . S
C1256 C1253 1.499 . S
C1256 C1257 1.373 . S
C1256 C1258 1.389 . S
C1257 H1236 0.950 . S
C1257 C1256 1.373 . S
C1257 C1273 1.377 . S
C1258 C1256 1.389 . S
C1258 C1259 1.524 . S
C1258 C1272 1.377 . S
C1259 C1258 1.524 . S
C1259 C1260 1.397 . S
C1259 C1264 1.363 . S
C1260 H1237 0.950 . S
C1260 C1259 1.397 . S
C1260 C1261 1.334 . S
C1261 H1238 0.950 . S
C1261 C1260 1.334 . S
C1261 C1262 1.287 . S
C1262 C1261 1.287 . S
C1262 C1263 1.524 . S
C1262 H1281 0.913 . S
C1263 H1239 0.950 . S
C1263 C1262 1.524 . S
C1263 C1264 1.415 . S
C1264 H1240 0.950 . S
C1264 C1259 1.363 . S
C1264 C1263 1.415 . S
C1265 H1241 0.951 . S
C1265 C1266 1.366 . S
C1265 C1267 1.388 . S
C1266 C1265 1.366 . S
C1266 C1270 1.385 . S
C1267 H1242 0.951 . S
C1267 C1265 1.388 . S
C1267 C1268 1.366 . S
C1268 C1267 1.366 . S
C1268 C1269 1.414 . S
C1268 C1271 1.499 . S
C1269 H1243 0.950 . S
C1269 C1268 1.414 . S
C1269 C1270 1.374 . S
C1270 H1244 0.950 . S
C1270 C1266 1.385 . S
C1270 C1269 1.374 . S
C1271 C1268 1.499 . S
C1271 C1272 1.373 . S
C1271 C1273 1.389 . S
C1272 H1245 0.950 . S
C1272 C1258 1.377 . S
C1272 C1271 1.373 . S
C1273 C1257 1.377 . S
C1273 C1271 1.389 . S
C1273 C1274 1.524 . S
C1274 C1273 1.524 . S
C1274 C1275 1.397 . S
C1274 C1279 1.363 . S
C1275 H1246 0.950 . S
C1275 C1274 1.397 . S
C1275 C1276 1.334 . S
C1276 H1247 0.950 . S
C1276 C1275 1.334 . S
C1276 C1277 1.287 . S
C1277 C1276 1.287 . S
C1277 C1278 1.524 . S
C1277 H1280 0.999 . S
C1278 H1248 0.950 . S
C1278 C1277 1.524 . S
C1278 C1279 1.415 . S
C1279 H1249 0.950 . S
C1279 C1274 1.363 . S
C1279 C1278 1.415 . S
H1280 C1277 0.999 . S
H1281 C1262 0.913 . S
H1282 C1300 0.951 . S
H1283 C1302 0.951 . S
H1284 C1304 0.950 . S
H1285 C1305 0.950 . S
H1286 C1307 0.950 . S
H1287 C1310 0.950 . S
H1288 C1311 0.950 . S
H1289 C1313 0.950 . S
H1290 C1314 0.950 . S
H1291 C1315 0.951 . S
H1292 C1317 0.951 . S
H1293 C1319 0.950 . S
H1294 C1320 0.950 . S
H1295 C1322 0.950 . S
H1296 C1325 0.950 . S
H1297 C1326 0.950 . S
H1298 C1328 0.950 . S
H1299 C1329 0.950 . S
C1300 H1282 0.951 . S
C1300 C1301 1.366 . S
C1300 C1302 1.388 . S
C1301 C1300 1.366 . S
C1301 C1305 1.385 . S
C1302 H1283 0.951 . S
C1302 C1300 1.388 . S
C1302 C1303 1.366 . S
C1303 C1302 1.366 . S
C1303 C1304 1.414 . S
C1303 C1306 1.499 . S
C1304 H1284 0.950 . S
C1304 C1303 1.414 . S
C1304 C1305 1.374 . S
C1305 H1285 0.950 . S
C1305 C1301 1.385 . S
C1305 C1304 1.374 . S
C1306 C1303 1.499 . S
C1306 C1307 1.373 . S
C1306 C1308 1.389 . S
C1307 H1286 0.950 . S
C1307 C1306 1.373 . S
C1307 C1323 1.377 . S
C1308 C1306 1.389 . S
C1308 C1309 1.524 . S
C1308 C1322 1.377 . S
C1309 C1308 1.524 . S
C1309 C1310 1.397 . S
C1309 C1314 1.363 . S
C1310 H1287 0.950 . S
C1310 C1309 1.397 . S
C1310 C1311 1.334 . S
C1311 H1288 0.950 . S
C1311 C1310 1.334 . S
C1311 C1312 1.287 . S
C1312 C1311 1.287 . S
C1312 C1313 1.524 . S
C1312 H1331 0.913 . S
C1313 H1289 0.950 . S
C1313 C1312 1.524 . S
C1313 C1314 1.415 . S
C1314 H1290 0.950 . S
C1314 C1309 1.363 . S
C1314 C1313 1.415 . S
C1315 H1291 0.951 . S
C1315 C1316 1.366 . S
C1315 C1317 1.388 . S
C1316 C1315 1.366 . S
C1316 C1320 1.385 . S
C1317 H1292 0.951 . S
C1317 C1315 1.388 . S
C1317 C1318 1.366 . S
C1318 C1317 1.366 . S
C1318 C1319 1.414 . S
C1318 C1321 1.499 . S
C1319 H1293 0.950 . S
C1319 C1318 1.414 . S
C1319 C1320 1.374 . S
C1320 H1294 0.950 . S
C1320 C1316 1.385 . S
C1320 C1319 1.374 . S
C1321 C1318 1.499 . S
C1321 C1322 1.373 . S
C1321 C1323 1.389 . S
C1322 H1295 0.950 . S
C1322 C1308 1.377 . S
C1322 C1321 1.373 . S
C1323 C1307 1.377 . S
C1323 C1321 1.389 . S
C1323 C1324 1.524 . S
C1324 C1323 1.524 . S
C1324 C1325 1.397 . S
C1324 C1329 1.363 . S
C1325 H1296 0.950 . S
C1325 C1324 1.397 . S
C1325 C1326 1.334 . S
C1326 H1297 0.950 . S
C1326 C1325 1.334 . S
C1326 C1327 1.287 . S
C1327 C1326 1.287 . S
C1327 C1328 1.524 . S
C1327 H1330 0.999 . S
C1328 H1298 0.950 . S
C1328 C1327 1.524 . S
C1328 C1329 1.415 . S
C1329 H1299 0.950 . S
C1329 C1324 1.363 . S
C1329 C1328 1.415 . S
H1330 C1327 0.999 . S
H1331 C1312 0.913 . S
H1332 C1350 0.951 . S
H1333 C1352 0.951 . S
H1334 C1354 0.950 . S
H1335 C1355 0.950 . S
H1336 C1357 0.950 . S
H1337 C1360 0.950 . S
H1338 C1361 0.950 . S
H1339 C1363 0.950 . S
H1340 C1364 0.950 . S
H1341 C1365 0.951 . S
H1342 C1367 0.951 . S
H1343 C1369 0.950 . S
H1344 C1370 0.950 . S
H1345 C1372 0.950 . S
H1346 C1375 0.950 . S
H1347 C1376 0.950 . S
H1348 C1378 0.950 . S
H1349 C1379 0.950 . S
C1350 H1332 0.951 . S
C1350 C1351 1.366 . S
C1350 C1352 1.388 . S
C1351 C1350 1.366 . S
C1351 C1355 1.385 . S
C1352 H1333 0.951 . S
C1352 C1350 1.388 . S
C1352 C1353 1.366 . S
C1353 C1352 1.366 . S
C1353 C1354 1.414 . S
C1353 C1356 1.499 . S
C1354 H1334 0.950 . S
C1354 C1353 1.414 . S
C1354 C1355 1.374 . S
C1355 H1335 0.950 . S
C1355 C1351 1.385 . S
C1355 C1354 1.374 . S
C1356 C1353 1.499 . S
C1356 C1357 1.373 . S
C1356 C1358 1.389 . S
C1357 H1336 0.950 . S
C1357 C1356 1.373 . S
C1357 C1373 1.377 . S
C1358 C1356 1.389 . S
C1358 C1359 1.524 . S
C1358 C1372 1.377 . S
C1359 C1358 1.524 . S
C1359 C1360 1.397 . S
C1359 C1364 1.363 . S
C1360 H1337 0.950 . S
C1360 C1359 1.397 . S
C1360 C1361 1.334 . S
C1361 H1338 0.950 . S
C1361 C1360 1.334 . S
C1361 C1362 1.287 . S
C1362 C1361 1.287 . S
C1362 C1363 1.524 . S
C1362 H1381 0.913 . S
C1363 H1339 0.950 . S
C1363 C1362 1.524 . S
C1363 C1364 1.415 . S
C1364 H1340 0.950 . S
C1364 C1359 1.363 . S
C1364 C1363 1.415 . S
C1365 H1341 0.951 . S
C1365 C1366 1.366 . S
C1365 C1367 1.388 . S
C1366 C1365 1.366 . S
C1366 C1370 1.385 . S
C1367 H1342 0.951 . S
C1367 C1365 1.388 . S
C1367 C1368 1.366 . S
C1368 C1367 1.366 . S
C1368 C1369 1.414 . S
C1368 C1371 1.499 . S
C1369 H1343 0.950 . S
C1369 C1368 1.414 . S
C1369 C1370 1.374 . S
C1370 H1344 0.950 . S
C1370 C1366 1.385 . S
C1370 C1369 1.374 . S
C1371 C1368 1.499 . S
C1371 C1372 1.373 . S
C1371 C1373 1.389 . S
C1372 H1345 0.950 . S
C1372 C1358 1.377 . S
C1372 C1371 1.373 . S
C1373 C1357 1.377 . S
C1373 C1371 1.389 . S
C1373 C1374 1.524 . S
C1374 C1373 1.524 . S
C1374 C1375 1.397 . S
C1374 C1379 1.363 . S
C1375 H1346 0.950 . S
C1375 C1374 1.397 . S
C1375 C1376 1.334 . S
C1376 H1347 0.950 . S
C1376 C1375 1.334 . S
C1376 C1377 1.287 . S
C1377 C1376 1.287 . S
C1377 C1378 1.524 . S
C1377 H1380 0.999 . S
C1378 H1348 0.950 . S
C1378 C1377 1.524 . S
C1378 C1379 1.415 . S
C1379 H1349 0.950 . S
C1379 C1374 1.363 . S
C1379 C1378 1.415 . S
H1380 C1377 0.999 . S
H1381 C1362 0.913 . S
H1382 C1400 0.951 . S
H1383 C1402 0.951 . S
H1384 C1404 0.950 . S
H1385 C1405 0.950 . S
H1386 C1407 0.950 . S
H1387 C1410 0.950 . S
H1388 C1411 0.950 . S
H1389 C1413 0.950 . S
H1390 C1414 0.950 . S
H1391 C1415 0.951 . S
H1392 C1417 0.951 . S
H1393 C1419 0.950 . S
H1394 C1420 0.950 . S
H1395 C1422 0.950 . S
H1396 C1425 0.950 . S
H1397 C1426 0.950 . S
H1398 C1428 0.950 . S
H1399 C1429 0.950 . S
C1400 H1382 0.951 . S
C1400 C1401 1.366 . S
C1400 C1402 1.388 . S
C1401 C1400 1.366 . S
C1401 C1405 1.385 . S
C1402 H1383 0.951 . S
C1402 C1400 1.388 . S
C1402 C1403 1.366 . S
C1403 C1402 1.366 . S
C1403 C1404 1.414 . S
C1403 C1406 1.499 . S
C1404 H1384 0.950 . S
C1404 C1403 1.414 . S
C1404 C1405 1.374 . S
C1405 H1385 0.950 . S
C1405 C1401 1.385 . S
C1405 C1404 1.374 . S
C1406 C1403 1.499 . S
C1406 C1407 1.373 . S
C1406 C1408 1.389 . S
C1407 H1386 0.950 . S
C1407 C1406 1.373 . S
C1407 C1423 1.377 . S
C1408 C1406 1.389 . S
C1408 C1409 1.524 . S
C1408 C1422 1.377 . S
C1409 C1408 1.524 . S
C1409 C1410 1.397 . S
C1409 C1414 1.363 . S
C1410 H1387 0.950 . S
C1410 C1409 1.397 . S
C1410 C1411 1.334 . S
C1411 H1388 0.950 . S
C1411 C1410 1.334 . S
C1411 C1412 1.287 . S
C1412 C1411 1.287 . S
C1412 C1413 1.524 . S
C1412 H1431 0.913 . S
C1413 H1389 0.950 . S
C1413 C1412 1.524 . S
C1413 C1414 1.415 . S
C1414 H1390 0.950 . S
C1414 C1409 1.363 . S
C1414 C1413 1.415 . S
C1415 H1391 0.951 . S
C1415 C1416 1.366 . S
C1415 C1417 1.388 . S
C1416 C1415 1.366 . S
C1416 C1420 1.385 . S
C1417 H1392 0.951 . S
C1417 C1415 1.388 . S
C1417 C1418 1.366 . S
C1418 C1417 1.366 . S
C1418 C1419 1.414 . S
C1418 C1421 1.499 . S
C1419 H1393 0.950 . S
C1419 C1418 1.414 . S
C1419 C1420 1.374 . S
C1420 H1394 0.950 . S
C1420 C1416 1.385 . S
C1420 C1419 1.374 . S
C1421 C1418 1.499 . S
C1421 C1422 1.373 . S
C1421 C1423 1.389 . S
C1422 H1395 0.950 . S
C1422 C1408 1.377 . S
C1422 C1421 1.373 . S
C1423 C1407 1.377 . S
C1423 C1421 1.389 . S
C1423 C1424 1.524 . S
C1424 C1423 1.524 . S
C1424 C1425 1.397 . S
C1424 C1429 1.363 . S
C1425 H1396 0.950 . S
C1425 C1424 1.397 . S
C1425 C1426 1.334 . S
C1426 H1397 0.950 . S
C1426 C1425 1.334 . S
C1426 C1427 1.287 . S
C1427 C1426 1.287 . S
C1427 C1428 1.524 . S
C1427 H1430 0.999 . S
C1428 H1398 0.950 . S
C1428 C1427 1.524 . S
C1428 C1429 1.415 . S
C1429 H1399 0.950 . S
C1429 C1424 1.363 . S
C1429 C1428 1.415 . S
H1430 C1427 0.999 . S
H1431 C1412 0.913 . S
H1432 C1450 0.951 . S
H1433 C1452 0.951 . S
H1434 C1454 0.950 . S
H1435 C1455 0.950 . S
H1436 C1457 0.950 1_565 S
H1437 C1460 0.950 . S
H1438 C1461 0.950 . S
H1439 C1463 0.950 . S
H1440 C1464 0.950 . S
H1441 C1465 0.951 . S
H1442 C1467 0.951 . S
H1443 C1469 0.950 . S
H1444 C1470 0.950 . S
H1445 C1472 0.950 . S
H1446 C1475 0.950 . S
H1447 C1476 0.950 . S
H1448 C1478 0.950 1_565 S
H1449 C1479 0.950 . S
C1450 H1432 0.951 . S
C1450 C1451 1.366 . S
C1450 C1452 1.388 . S
C1451 C1450 1.366 . S
C1451 C1455 1.385 . S
C1452 H1433 0.951 . S
C1452 C1450 1.388 . S
C1452 C1453 1.366 . S
C1453 C1452 1.366 . S
C1453 C1454 1.414 . S
C1453 C1456 1.499 1_565 S
C1454 H1434 0.950 . S
C1454 C1453 1.414 . S
C1454 C1455 1.374 . S
C1455 H1435 0.950 . S
C1455 C1451 1.385 . S
C1455 C1454 1.374 . S
C1456 C1453 1.499 1_545 S
C1456 C1457 1.373 1_556 S
C1456 C1458 1.389 . S
C1457 H1436 0.950 1_545 S
C1457 C1456 1.373 1_554 S
C1457 C1473 1.377 . S
C1458 C1456 1.389 . S
C1458 C1459 1.524 . S
C1458 C1472 1.377 1_556 S
C1459 C1458 1.524 . S
C1459 C1460 1.397 . S
C1459 C1464 1.363 . S
C1460 H1437 0.950 . S
C1460 C1459 1.397 . S
C1460 C1461 1.334 . S
C1461 H1438 0.950 . S
C1461 C1460 1.334 . S
C1461 C1462 1.287 . S
C1462 C1461 1.287 . S
C1462 C1463 1.524 . S
C1462 H1481 0.913 . S
C1463 H1439 0.950 . S
C1463 C1462 1.524 . S
C1463 C1464 1.415 . S
C1464 H1440 0.950 . S
C1464 C1459 1.363 . S
C1464 C1463 1.415 . S
C1465 H1441 0.951 . S
C1465 C1466 1.366 . S
C1465 C1467 1.388 . S
C1466 C1465 1.366 . S
C1466 C1470 1.385 . S
C1467 H1442 0.951 . S
C1467 C1465 1.388 . S
C1467 C1468 1.366 . S
C1468 C1467 1.366 . S
C1468 C1469 1.414 . S
C1468 C1471 1.499 . S
C1469 H1443 0.950 . S
C1469 C1468 1.414 . S
C1469 C1470 1.374 . S
C1470 H1444 0.950 . S
C1470 C1466 1.385 . S
C1470 C1469 1.374 . S
C1471 C1468 1.499 . S
C1471 C1472 1.373 . S
C1471 C1473 1.389 . S
C1472 H1445 0.950 . S
C1472 C1458 1.377 1_554 S
C1472 C1471 1.373 . S
C1473 C1457 1.377 . S
C1473 C1471 1.389 . S
C1473 C1474 1.524 . S
C1474 C1473 1.524 . S
C1474 C1475 1.397 . S
C1474 C1479 1.363 . S
C1475 H1446 0.950 . S
C1475 C1474 1.397 . S
C1475 C1476 1.334 . S
C1476 H1447 0.950 . S
C1476 C1475 1.334 . S
C1476 C1477 1.287 . S
C1477 C1476 1.287 . S
C1477 C1478 1.524 . S
C1477 H1480 0.999 . S
C1478 H1448 0.950 1_545 S
C1478 C1477 1.524 . S
C1478 C1479 1.415 . S
C1479 H1449 0.950 . S
C1479 C1474 1.363 . S
C1479 C1478 1.415 . S
H1480 C1477 0.999 . S
H1481 C1462 0.913 . S
H1482 C1500 0.951 . S
H1483 C1502 0.951 . S
H1484 C1504 0.950 1_455 S
H1485 C1505 0.950 . S
H1486 C1507 0.950 . S
H1487 C1510 0.946 . S
H1488 C1511 0.950 1_554 S
H1489 C1513 0.950 . S
H1490 C1514 0.950 . S
H1491 C1515 0.951 . S
H1492 C1517 0.951 . S
H1493 C1519 0.950 . S
H1494 C1520 0.950 . S
H1495 C1522 0.950 . S
H1496 C1525 0.950 . S
H1497 C1526 0.950 . S
H1498 C1528 0.950 . S
H1499 C1529 0.950 . S
C1500 H1482 0.951 . S
C1500 C1501 1.366 . S
C1500 C1502 1.388 . S
C1501 C1500 1.366 . S
C1501 C1505 1.385 . S
C1502 H1483 0.951 . S
C1502 C1500 1.388 . S
C1502 C1503 1.366 . S
C1503 C1502 1.366 . S
C1503 C1504 1.414 . S
C1503 C1506 1.499 1_655 S
C1504 H1484 0.950 1_655 S
C1504 C1503 1.414 . S
C1504 C1505 1.374 . S
C1505 H1485 0.950 . S
C1505 C1501 1.385 . S
C1505 C1504 1.374 . S
C1506 C1503 1.499 1_455 S
C1506 C1507 1.373 . S
C1506 C1508 1.389 1_554 S
C1507 H1486 0.950 . S
C1507 C1506 1.373 . S
C1507 C1523 1.377 1_554 S
C1508 C1506 1.389 1_556 S
C1508 C1509 1.524 1_455 S
C1508 C1522 1.377 . S
C1509 C1508 1.524 1_655 S
C1509 C1510 1.400 1_556 S
C1509 C1514 1.363 . S
C1510 H1487 0.946 . S
C1510 C1509 1.400 1_554 S
C1510 C1511 1.335 1_554 S
C1511 H1488 0.950 1_556 S
C1511 C1510 1.335 1_556 S
C1511 C1512 1.287 . S
C1512 C1511 1.287 . S
C1512 C1513 1.524 . S
C1512 H1531 0.913 . S
C1513 H1489 0.950 . S
C1513 C1512 1.524 . S
C1513 C1514 1.415 . S
C1514 H1490 0.950 . S
C1514 C1509 1.363 . S
C1514 C1513 1.415 . S
C1515 H1491 0.951 . S
C1515 C1516 1.366 . S
C1515 C1517 1.388 . S
C1516 C1515 1.366 . S
C1516 C1520 1.385 . S
C1517 H1492 0.951 . S
C1517 C1515 1.388 . S
C1517 C1518 1.366 . S
C1518 C1517 1.366 . S
C1518 C1519 1.414 . S
C1518 C1521 1.499 . S
C1519 H1493 0.950 . S
C1519 C1518 1.414 . S
C1519 C1520 1.374 . S
C1520 H1494 0.950 . S
C1520 C1516 1.385 . S
C1520 C1519 1.374 . S
C1521 C1518 1.499 . S
C1521 C1522 1.373 . S
C1521 C1523 1.389 . S
C1522 H1495 0.950 . S
C1522 C1508 1.377 . S
C1522 C1521 1.373 . S
C1523 C1507 1.377 1_556 S
C1523 C1521 1.389 . S
C1523 C1524 1.521 1_556 S
C1524 C1523 1.521 1_554 S
C1524 C1525 1.385 1_554 S
C1524 C1529 1.378 . S
C1525 H1496 0.950 . S
C1525 C1524 1.385 1_556 S
C1525 C1526 1.334 . S
C1526 H1497 0.950 . S
C1526 C1525 1.334 . S
C1526 C1527 1.287 1_556 S
C1527 C1526 1.287 1_554 S
C1527 C1528 1.524 . S
C1527 H1530 0.999 . S
C1528 H1498 0.950 . S
C1528 C1527 1.524 . S
C1528 C1529 1.415 . S
C1529 H1499 0.950 . S
C1529 C1524 1.378 . S
C1529 C1528 1.415 . S
H1530 C1527 0.999 . S
H1531 C1512 0.913 . S
H1532 C1550 0.951 . S
H1533 C1552 0.951 . S
H1534 C1554 0.950 . S
H1535 C1555 0.950 . S
H1536 C1557 0.950 . S
H1537 C1560 0.950 . S
H1538 C1561 0.950 . S
H1539 C1563 0.950 1_556 S
H1540 C1564 0.949 . S
H1541 C1565 0.951 . S
H1542 C1567 0.951 . S
H1543 C1569 0.950 1_565 S
H1544 C1570 0.950 . S
H1545 C1572 0.950 . S
H1546 C1575 0.950 . S
H1547 C1576 0.950 . S
H1548 C1578 0.950 . S
H1549 C1579 0.950 . S
C1550 H1532 0.951 . S
C1550 C1551 1.366 . S
C1550 C1552 1.388 . S
C1551 C1550 1.366 . S
C1551 C1555 1.385 . S
C1552 H1533 0.951 . S
C1552 C1550 1.388 . S
C1552 C1553 1.366 . S
C1553 C1552 1.366 . S
C1553 C1554 1.414 . S
C1553 C1556 1.499 . S
C1554 H1534 0.950 . S
C1554 C1553 1.414 . S
C1554 C1555 1.374 . S
C1555 H1535 0.950 . S
C1555 C1551 1.385 . S
C1555 C1554 1.374 . S
C1556 C1553 1.499 . S
C1556 C1557 1.373 . S
C1556 C1558 1.389 . S
C1557 H1536 0.950 . S
C1557 C1556 1.373 . S
C1557 C1573 1.377 . S
C1558 C1556 1.389 . S
C1558 C1559 1.524 . S
C1558 C1572 1.377 1_554 S
C1559 C1558 1.524 . S
C1559 C1560 1.397 . S
C1559 C1564 1.364 1_554 S
C1560 H1537 0.950 . S
C1560 C1559 1.397 . S
C1560 C1561 1.334 . S
C1561 H1538 0.950 . S
C1561 C1560 1.334 . S
C1561 C1562 1.287 . S
C1562 C1561 1.287 . S
C1562 C1563 1.524 . S
C1562 H1581 0.913 . S
C1563 H1539 0.950 1_554 S
C1563 C1562 1.524 . S
C1563 C1564 1.415 1_554 S
C1564 H1540 0.949 . S
C1564 C1559 1.364 1_556 S
C1564 C1563 1.415 1_556 S
C1565 H1541 0.951 . S
C1565 C1566 1.366 . S
C1565 C1567 1.388 . S
C1566 C1565 1.366 . S
C1566 C1570 1.385 . S
C1567 H1542 0.951 . S
C1567 C1565 1.388 . S
C1567 C1568 1.366 . S
C1568 C1567 1.366 . S
C1568 C1569 1.414 . S
C1568 C1571 1.499 1_545 S
C1569 H1543 0.950 1_545 S
C1569 C1568 1.414 . S
C1569 C1570 1.374 . S
C1570 H1544 0.950 . S
C1570 C1566 1.385 . S
C1570 C1569 1.374 . S
C1571 C1568 1.499 1_565 S
C1571 C1572 1.373 . S
C1571 C1573 1.389 1_556 S
C1572 H1545 0.950 . S
C1572 C1558 1.377 1_556 S
C1572 C1571 1.373 . S
C1573 C1557 1.377 . S
C1573 C1571 1.389 1_554 S
C1573 C1574 1.524 1_554 S
C1574 C1573 1.524 1_556 S
C1574 C1575 1.397 . S
C1574 C1579 1.363 1_566 S
C1575 H1546 0.950 . S
C1575 C1574 1.397 . S
C1575 C1576 1.334 1_565 S
C1576 H1547 0.950 . S
C1576 C1575 1.334 1_545 S
C1576 C1577 1.287 . S
C1577 C1576 1.287 . S
C1577 C1578 1.524 1_556 S
C1577 H1580 0.999 . S
C1578 H1548 0.950 . S
C1578 C1577 1.524 1_554 S
C1578 C1579 1.415 . S
C1579 H1549 0.950 . S
C1579 C1574 1.363 1_544 S
C1579 C1578 1.415 . S
H1580 C1577 0.999 . S
H1581 C1562 0.913 . S
H1582 C1600 0.951 . S
H1583 C1602 0.951 . S
H1584 C1604 0.950 . S
H1585 C1605 0.950 . S
H1586 C1607 0.950 . S
H1587 C1610 0.950 . S
H1588 C1611 0.950 . S
H1589 C1613 0.950 . S
H1590 C1614 0.950 . S
H1591 C1615 0.951 . S
H1592 C1617 0.951 . S
H1593 C1619 0.950 . S
H1594 C1620 0.950 . S
H1595 C1622 0.950 . S
H1596 C1625 0.950 . S
H1597 C1626 0.950 . S
H1598 C1628 0.952 . S
H1599 C1629 0.952 . S
C1600 H1582 0.951 . S
C1600 C1601 1.366 . S
C1600 C1602 1.388 . S
C1601 C1600 1.366 . S
C1601 C1605 1.385 . S
C1602 H1583 0.951 . S
C1602 C1600 1.388 . S
C1602 C1603 1.366 . S
C1603 C1602 1.366 . S
C1603 C1604 1.414 . S
C1603 C1606 1.499 . S
C1604 H1584 0.950 . S
C1604 C1603 1.414 . S
C1604 C1605 1.374 . S
C1605 H1585 0.950 . S
C1605 C1601 1.385 . S
C1605 C1604 1.374 . S
C1606 C1603 1.499 . S
C1606 C1607 1.373 . S
C1606 C1608 1.389 . S
C1607 H1586 0.950 . S
C1607 C1606 1.373 . S
C1607 C1623 1.377 . S
C1608 C1606 1.389 . S
C1608 C1609 1.524 . S
C1608 C1622 1.377 1_556 S
C1609 C1608 1.524 . S
C1609 C1610 1.397 . S
C1609 C1614 1.363 . S
C1610 H1587 0.950 . S
C1610 C1609 1.397 . S
C1610 C1611 1.334 . S
C1611 H1588 0.950 . S
C1611 C1610 1.334 . S
C1611 C1612 1.287 . S
C1612 C1611 1.287 . S
C1612 C1613 1.524 . S
C1612 H1631 0.913 . S
C1613 H1589 0.950 . S
C1613 C1612 1.524 . S
C1613 C1614 1.415 . S
C1614 H1590 0.950 . S
C1614 C1609 1.363 . S
C1614 C1613 1.415 . S
C1615 H1591 0.951 . S
C1615 C1616 1.366 . S
C1615 C1617 1.388 . S
C1616 C1615 1.366 . S
C1616 C1620 1.385 . S
C1617 H1592 0.951 . S
C1617 C1615 1.388 . S
C1617 C1618 1.366 . S
C1618 C1617 1.366 . S
C1618 C1619 1.414 . S
C1618 C1621 1.499 1_455 S
C1619 H1593 0.950 . S
C1619 C1618 1.414 . S
C1619 C1620 1.374 . S
C1620 H1594 0.950 . S
C1620 C1616 1.385 . S
C1620 C1619 1.374 . S
C1621 C1618 1.499 1_655 S
C1621 C1622 1.373 . S
C1621 C1623 1.389 1_554 S
C1622 H1595 0.950 . S
C1622 C1608 1.377 1_554 S
C1622 C1621 1.373 . S
C1623 C1607 1.377 . S
C1623 C1621 1.389 1_556 S
C1623 C1624 1.524 1_655 S
C1624 C1623 1.524 1_455 S
C1624 C1625 1.397 . S
C1624 C1629 1.361 1_456 S
C1625 H1596 0.950 . S
C1625 C1624 1.397 . S
C1625 C1626 1.334 . S
C1626 H1597 0.950 . S
C1626 C1625 1.334 . S
C1626 C1627 1.287 . S
C1627 C1626 1.287 . S
C1627 C1628 1.521 1_556 S
C1627 H1630 0.999 . S
C1628 H1598 0.952 . S
C1628 C1627 1.521 1_554 S
C1628 C1629 1.415 1_455 S
C1629 H1599 0.952 . S
C1629 C1624 1.361 1_654 S
C1629 C1628 1.415 1_655 S
H1630 C1627 0.999 . S
H1631 C1612 0.913 . S
C251 C15 2.247 . S
C266 C150 2.219 . S
C301 C179 2.219 . S
C316 C44 2.247 . S
C351 C208 2.219 . S
C366 C73 2.247 . S
C401 C102 2.247 . S
C416 C121 2.219 . S
C451 C131 2.247 . S
C466 C92 2.218 . S
C501 C160 2.247 . S
C516 C5 2.219 . S
C551 C189 2.247 . S
C566 C34 2.219 . S
C601 C218 2.247 . S
C616 C63 2.218 . S
C651 C8 1.179 . S
C666 C66 1.178 . S
C701 C95 1.179 . S
C716 C37 1.178 . S
C751 C124 1.178 . S
C766 C182 1.180 . S
C801 C153 1.179 . S
C816 C211 1.178 . S
C851 C10 1.994 . S
C866 C129 1.826 . S
C901 C158 1.826 . S
C916 C39 1.994 . S
C951 C68 1.994 . S
C966 C187 1.826 . S
C1001 C216 1.828 . S
C1016 C97 1.993 . S
C1051 C126 1.993 . S
C1066 C13 1.827 . S
C1101 C155 1.993 . S
C1116 C42 1.826 . S
C1151 C71 1.827 . S
C1166 C184 1.993 . S
C1201 C100 1.828 . S
C1216 C213 1.993 . S
C1251 C3 0.757 . S
C1266 C50 0.755 . S
C1301 C79 0.754 . S
C1316 C32 0.757 . S
C1351 C108 0.755 . S
C1366 C61 0.757 . S
C1401 C21 0.756 . S
C1416 C90 0.756 . S
C1451 C224 0.756 . S
C1466 C119 0.756 . S
C1501 C137 0.756 . S
C1516 C148 0.756 . S
C1551 C177 0.756 . S
C1566 C166 0.757 . S
C1601 C206 0.756 . S
C1616 C195 0.756 . S
