# Generated by pormake.
# Topology uou, (4)-cn, num edge types: 1
# Building blocks:
#     Node 0, Type 0, BuildingBlock: QUQFOY_clean_sbu_1, # of connection points: 4
#     Node 1, Type 0, BuildingBlock: QUQFOY_clean_sbu_1, # of connection points: 4
#     Node 2, Type 0, BuildingBlock: QUQFOY_clean_sbu_1, # of connection points: 4
#     Node 3, Type 0, BuildingBlock: QUQFOY_clean_sbu_1, # of connection points: 4
#     Node 4, Type 0, BuildingBlock: QUQFOY_clean_sbu_1, # of connection points: 4
#     Node 5, Type 0, BuildingBlock: QUQFOY_clean_sbu_1, # of connection points: 4
#     Node 6, Type 0, BuildingBlock: QUQFOY_clean_sbu_1, # of connection points: 4
#     Node 7, Type 0, BuildingBlock: QUQFOY_clean_sbu_1, # of connection points: 4
#     Node 8, Type 0, BuildingBlock: QUQFOY_clean_sbu_1, # of connection points: 4
#     Node 9, Type 0, BuildingBlock: QUQFOY_clean_sbu_1, # of connection points: 4
#     Node 10, Type 0, BuildingBlock: QUQFOY_clean_sbu_1, # of connection points: 4
#     Node 11, Type 0, BuildingBlock: QUQFOY_clean_sbu_1, # of connection points: 4
#     Node 12, Type 0, BuildingBlock: QUQFOY_clean_sbu_1, # of connection points: 4
#     Node 13, Type 0, BuildingBlock: QUQFOY_clean_sbu_1, # of connection points: 4
#     Node 14, Type 0, BuildingBlock: QUQFOY_clean_sbu_1, # of connection points: 4
#     Node 15, Type 0, BuildingBlock: QUQFOY_clean_sbu_1, # of connection points: 4
#     Edge 16, Type (0, 0), BuildingBlock: EYOCIG_clean_linker_4, # of connection points: 2
#     Edge 17, Type (0, 0), BuildingBlock: EYOCIG_clean_linker_4, # of connection points: 2
#     Edge 18, Type (0, 0), BuildingBlock: EYOCIG_clean_linker_4, # of connection points: 2
#     Edge 19, Type (0, 0), BuildingBlock: EYOCIG_clean_linker_4, # of connection points: 2
#     Edge 20, Type (0, 0), BuildingBlock: EYOCIG_clean_linker_4, # of connection points: 2
#     Edge 21, Type (0, 0), BuildingBlock: EYOCIG_clean_linker_4, # of connection points: 2
#     Edge 22, Type (0, 0), BuildingBlock: EYOCIG_clean_linker_4, # of connection points: 2
#     Edge 23, Type (0, 0), BuildingBlock: EYOCIG_clean_linker_4, # of connection points: 2
#     Edge 24, Type (0, 0), BuildingBlock: EYOCIG_clean_linker_4, # of connection points: 2
#     Edge 25, Type (0, 0), BuildingBlock: EYOCIG_clean_linker_4, # of connection points: 2
#     Edge 26, Type (0, 0), BuildingBlock: EYOCIG_clean_linker_4, # of connection points: 2
#     Edge 27, Type (0, 0), BuildingBlock: EYOCIG_clean_linker_4, # of connection points: 2
#     Edge 28, Type (0, 0), BuildingBlock: EYOCIG_clean_linker_4, # of connection points: 2
#     Edge 29, Type (0, 0), BuildingBlock: EYOCIG_clean_linker_4, # of connection points: 2
#     Edge 30, Type (0, 0), BuildingBlock: EYOCIG_clean_linker_4, # of connection points: 2
#     Edge 31, Type (0, 0), BuildingBlock: EYOCIG_clean_linker_4, # of connection points: 2
#     Edge 32, Type (0, 0), BuildingBlock: EYOCIG_clean_linker_4, # of connection points: 2
#     Edge 33, Type (0, 0), BuildingBlock: EYOCIG_clean_linker_4, # of connection points: 2
#     Edge 34, Type (0, 0), BuildingBlock: EYOCIG_clean_linker_4, # of connection points: 2
#     Edge 35, Type (0, 0), BuildingBlock: EYOCIG_clean_linker_4, # of connection points: 2
#     Edge 36, Type (0, 0), BuildingBlock: EYOCIG_clean_linker_4, # of connection points: 2
#     Edge 37, Type (0, 0), BuildingBlock: EYOCIG_clean_linker_4, # of connection points: 2
#     Edge 38, Type (0, 0), BuildingBlock: EYOCIG_clean_linker_4, # of connection points: 2
#     Edge 39, Type (0, 0), BuildingBlock: EYOCIG_clean_linker_4, # of connection points: 2
#     Edge 40, Type (0, 0), BuildingBlock: EYOCIG_clean_linker_4, # of connection points: 2
#     Edge 41, Type (0, 0), BuildingBlock: EYOCIG_clean_linker_4, # of connection points: 2
#     Edge 42, Type (0, 0), BuildingBlock: EYOCIG_clean_linker_4, # of connection points: 2
#     Edge 43, Type (0, 0), BuildingBlock: EYOCIG_clean_linker_4, # of connection points: 2
#     Edge 44, Type (0, 0), BuildingBlock: EYOCIG_clean_linker_4, # of connection points: 2
#     Edge 45, Type (0, 0), BuildingBlock: EYOCIG_clean_linker_4, # of connection points: 2
#     Edge 46, Type (0, 0), BuildingBlock: EYOCIG_clean_linker_4, # of connection points: 2
#     Edge 47, Type (0, 0), BuildingBlock: EYOCIG_clean_linker_4, # of connection points: 2
# Relax obj value: 0.061
# Max RMSD: 0.095
# Mean RMSD: 0.095
data_MOF--net-uou--node1-QUQFOY_clean_sbu_1--edge1-EYOCIG_clean_linker_4
_symmetry_space_group_name_H-M    P1
_symmetry_Int_Tables_number       1
_symmetry_cell_setting            triclinic
loop_
_symmetry_equiv_pos_as_xyz
'x, y, z'
_cell_length_a     31.386246
_cell_length_b     31.987692
_cell_length_c     44.592796
_cell_angle_alpha  90.000655
_cell_angle_beta   89.993921
_cell_angle_gamma 89.995334
loop_
_atom_site_label
_atom_site_type_symbol
_atom_site_fract_x
_atom_site_fract_y
_atom_site_fract_z
_atom_type_partial_charge
O0 O 0.06187 0.08538 0.14385 0.0
Cd1 Cd 0.07218 0.02189 0.1453 0.0
Cd2 Cd 0.14591 0.04502 0.11988 0.0
O3 O 0.12734 0.10491 0.13201 0.0
O4 O 1.03203 0.00064 0.17646 0.0
O5 O 0.10241 -0.00126 0.18122 0.0
C6 C 0.06512 -0.00754 0.19252 0.0
C7 C 0.21028 0.0141 0.13304 0.0
C8 C 0.08926 0.11385 0.13937 0.0
C9 C 0.08384 -0.00292 0.08208 0.0
O10 O 0.11662 0.02029 0.08251 0.0
O11 O 0.06267 -0.01019 0.10578 0.0
O12 O 0.20866 0.04213 0.11228 0.0
O13 O 0.17584 0.00503 0.14743 0.0
O14 O 0.54152 0.83736 0.14413 0.0
Cd15 Cd 0.53134 0.90087 0.14548 0.0
Cd16 Cd 0.45758 0.87783 0.12006 0.0
O17 O 0.47605 0.81792 0.13223 0.0
O18 O 0.57145 0.92217 0.17663 0.0
O19 O 0.50107 0.92422 0.18132 0.0
C20 C 0.53834 0.93047 0.19265 0.0
C21 C 0.39322 0.90884 0.13314 0.0
C22 C 0.51409 0.80893 0.13965 0.0
C23 C 0.51979 0.92556 0.08222 0.0
O24 O 0.48695 0.90244 0.08268 0.0
O25 O 0.54097 0.93282 0.10592 0.0
O26 O 0.39485 0.88076 0.11241 0.0
O27 O 0.42765 0.9179 0.14755 0.0
O28 O 0.56144 0.83775 0.38699 0.0
Cd29 Cd 0.57205 0.90119 0.38561 0.0
Cd30 Cd 0.64569 0.87766 0.41093 0.0
O31 O 0.62686 0.8179 0.39867 0.0
O32 O 0.532 0.92273 0.35449 0.0
O33 O 0.60239 0.92425 0.34971 0.0
C34 C 0.56513 0.93074 0.33842 0.0
C35 C 0.71014 0.90844 0.39783 0.0
C36 C 0.58873 0.80915 0.39135 0.0
C37 C 0.58388 0.92571 0.44887 0.0
O38 O 0.61652 0.90231 0.44837 0.0
O39 O 0.56276 0.93322 0.42518 0.0
O40 O 0.70845 0.88029 0.4185 0.0
O41 O 0.67572 0.9177 0.38348 0.0
O42 O 1.04134 0.08514 0.38711 0.0
Cd43 Cd 1.03119 0.02163 0.3856 0.0
Cd44 Cd 0.95747 0.04455 0.41115 0.0
O45 O 0.97588 0.10451 0.39911 0.0
O46 O 0.0713 0.00053 0.35436 0.0
O47 O 1.00091 -0.00153 0.3497 0.0
C48 C 1.03818 -0.0077 0.33834 0.0
C49 C 0.89314 0.01355 0.39801 0.0
C50 C 1.01391 0.11354 0.39168 0.0
C51 C 1.01975 -0.00337 0.44881 0.0
O52 O 0.98691 0.01976 0.44845 0.0
O53 O 1.04089 -0.01052 0.42507 0.0
O54 O 0.89475 0.04152 0.41882 0.0
O55 O 0.92757 0.00459 0.38357 0.0
O56 O 0.98684 0.90273 0.94831 0.0
Cd57 Cd 0.95758 0.87806 0.91092 0.0
Cd58 Cd 1.03135 0.90115 0.88554 0.0
O59 O 1.04086 0.93317 0.92509 0.0
O60 O 0.89482 0.88097 0.9185 0.0
O61 O 0.92769 0.9181 0.88338 0.0
C62 C 0.89323 0.90902 0.89775 0.0
C63 C 1.03837 0.93066 0.83834 0.0
C64 C 1.01965 0.92591 0.94877 0.0
C65 C 1.01417 0.8092 0.89139 0.0
O66 O 1.0416 0.83764 0.88694 0.0
O67 O 0.97611 0.81817 0.89876 0.0
O68 O 0.07148 0.92245 0.85439 0.0
O69 O 1.0011 0.92437 0.84966 0.0
O70 O 0.61664 0.02003 0.94844 0.0
Cd71 Cd 0.64579 0.04484 0.91105 0.0
Cd72 Cd 0.57212 0.02149 0.8857 0.0
O73 O 0.56281 -0.0107 0.9252 0.0
O74 O 0.70856 0.04212 0.91858 0.0
O75 O 0.67577 0.00493 0.88347 0.0
C76 C 0.71021 0.01408 0.89783 0.0
C77 C 0.56513 -0.00785 0.83844 0.0
C78 C 0.58397 -0.00333 0.94889 0.0
C79 C 0.58888 0.11349 0.89165 0.0
O80 O 0.56156 0.08494 0.88722 0.0
O81 O 0.627 0.10468 0.89895 0.0
O82 O 0.53202 0.00014 0.85455 0.0
O83 O 0.6024 -0.00145 0.84973 0.0
O84 O 0.48677 0.01991 0.58258 0.0
Cd85 Cd 0.45738 0.04467 0.61989 0.0
Cd86 Cd 0.53113 0.02178 0.64539 0.0
O87 O 0.5408 -0.01035 0.60591 0.0
O88 O 0.39464 0.04161 0.61227 0.0
O89 O 0.42752 0.0047 0.6475 0.0
C90 C 0.39308 0.01364 0.63308 0.0
C91 C 0.53819 -0.0076 0.69263 0.0
C92 C 0.51963 -0.0032 0.58219 0.0
C93 C 0.51381 0.11369 0.63932 0.0
O94 O 0.54126 0.0853 0.64388 0.0
O95 O 0.47578 0.10465 0.63192 0.0
O96 O 0.57129 0.00067 0.67659 0.0
O97 O 0.50091 -0.00142 0.6813 0.0
O98 O 0.11664 0.90213 0.58263 0.0
Cd99 Cd 0.14577 0.87751 0.6201 0.0
Cd100 Cd 0.07209 0.90101 0.64538 0.0
O101 O 0.06281 0.93299 0.60579 0.0
O102 O 0.20855 0.88018 0.61256 0.0
O103 O 0.17574 0.91759 0.64755 0.0
C104 C 0.21019 0.90835 0.63322 0.0
C105 C 0.06514 0.93061 0.69256 0.0
C106 C 0.08397 0.9255 0.58212 0.0
C107 C 0.08884 0.80897 0.63968 0.0
O108 O 0.06153 0.83755 0.64403 0.0
O109 O 0.12697 0.81775 0.63237 0.0
O110 O 1.03202 0.92256 0.67649 0.0
O111 O 0.1024 0.92412 0.68127 0.0
O112 O 0.56136 0.58492 0.14426 0.0
Cd113 Cd 0.57171 0.52143 0.1457 0.0
Cd114 Cd 0.64532 0.54457 0.12014 0.0
O115 O 0.62676 0.60447 0.13227 0.0
O116 O 0.53173 0.50015 0.17696 0.0
O117 O 0.60213 0.4983 0.18154 0.0
C118 C 0.56491 0.492 0.19294 0.0
C119 C 0.70976 0.5137 0.13318 0.0
C120 C 0.58872 0.61339 0.13971 0.0
C121 C 0.58313 0.49659 0.08246 0.0
O122 O 0.61591 0.51981 0.08283 0.0
O123 O 0.56205 0.48932 0.10621 0.0
O124 O 0.70805 0.54172 0.11242 0.0
O125 O 0.67538 0.50462 0.14764 0.0
O126 O 1.04144 0.33773 0.14376 0.0
Cd127 Cd 1.03094 0.40118 0.14521 0.0
Cd128 Cd 0.95725 0.37784 0.11988 0.0
O129 O 0.97598 0.31802 0.13205 0.0
O130 O 0.07105 0.42257 0.17634 0.0
O131 O 1.00067 0.42423 0.18115 0.0
C132 C 1.03794 0.43062 0.19244 0.0
C133 C 0.89284 0.40868 0.13305 0.0
C134 C 1.0141 0.30919 0.13936 0.0
C135 C 1.01913 0.42588 0.08199 0.0
O136 O 0.98643 0.40255 0.08246 0.0
O137 O 1.04028 0.43328 0.10568 0.0
O138 O 0.89448 0.38059 0.11233 0.0
O139 O 0.92728 0.41785 0.1474 0.0
O140 O 0.06131 0.33755 0.387 0.0
Cd141 Cd 0.07174 0.40102 0.38549 0.0
Cd142 Cd 0.14541 0.37781 0.41094 0.0
O143 O 0.12673 0.31793 0.3989 0.0
O144 O 1.03166 0.42233 0.3543 0.0
O145 O 0.10204 0.42407 0.34956 0.0
C146 C 0.06478 0.43043 0.33824 0.0
C147 C 0.20983 0.40861 0.39775 0.0
C148 C 0.08865 0.30904 0.39153 0.0
C149 C 0.08343 0.42596 0.44868 0.0
O150 O 0.11617 0.40268 0.44827 0.0
O151 O 0.06228 0.43321 0.42497 0.0
O152 O 0.20816 0.38061 0.41854 0.0
O153 O 0.17541 0.41769 0.38335 0.0
O154 O 0.54099 0.58541 0.38715 0.0
Cd155 Cd 0.53078 0.5219 0.38585 0.0
Cd156 Cd 0.4569 0.54507 0.41104 0.0
O157 O 0.47543 0.60492 0.39876 0.0
O158 O 0.57106 0.50051 0.35482 0.0
O159 O 0.5007 0.49855 0.34995 0.0
C160 C 0.53803 0.49225 0.33872 0.0
C161 C 0.39267 0.51395 0.39782 0.0
C162 C 0.51353 0.61386 0.39146 0.0
C163 C 0.51887 0.49745 0.44912 0.0
O164 O 0.48606 0.52063 0.44855 0.0
O165 O 0.54014 0.49005 0.42548 0.0
O166 O 0.39412 0.54213 0.41849 0.0
O167 O 0.4272 0.50485 0.38354 0.0
O168 O 0.48616 0.40229 0.94861 0.0
Cd169 Cd 0.45701 0.37766 0.91116 0.0
Cd170 Cd 0.53088 0.40076 0.88593 0.0
O171 O 0.54021 0.4328 0.92548 0.0
O172 O 0.39424 0.38059 0.91863 0.0
O173 O 0.42724 0.41774 0.88359 0.0
C174 C 0.39273 0.40867 0.8979 0.0
C175 C 0.53816 0.43019 0.83872 0.0
C176 C 0.51894 0.42549 0.94914 0.0
C177 C 0.51368 0.30882 0.89175 0.0
O178 O 0.54113 0.33727 0.88738 0.0
O179 O 0.47558 0.31777 0.89902 0.0
O180 O 0.57118 0.42201 0.85486 0.0
O181 O 0.50082 0.42393 0.84995 0.0
O182 O 0.11609 0.52013 0.94821 0.0
Cd183 Cd 0.14542 0.54484 0.91085 0.0
Cd184 Cd 0.07172 0.52169 0.88541 0.0
O185 O 0.06214 0.48967 0.92494 0.0
O186 O 0.20816 0.54198 0.91849 0.0
O187 O 0.17541 0.50484 0.88333 0.0
C188 C 0.20982 0.51393 0.89774 0.0
C189 C 0.06482 0.49215 0.83821 0.0
C190 C 0.08329 0.49694 0.94864 0.0
C191 C 0.0888 0.61366 0.8913 0.0
O192 O 0.06141 0.58519 0.8868 0.0
O193 O 0.12685 0.60472 0.89871 0.0
O194 O 1.03168 0.50036 0.85421 0.0
O195 O 0.10207 0.49847 0.84956 0.0
O196 O 0.9865 0.52031 0.58251 0.0
Cd197 Cd 0.95721 0.54482 0.61996 0.0
Cd198 Cd 1.03099 0.52167 0.64527 0.0
O199 O 1.04049 0.48975 0.60569 0.0
O200 O 0.89446 0.5419 0.61237 0.0
O201 O 0.92734 0.50464 0.64741 0.0
C202 C 0.89289 0.51375 0.63305 0.0
C203 C 1.03805 0.49208 0.69244 0.0
C204 C 1.0193 0.49712 0.58201 0.0
C205 C 1.01377 0.61363 0.63958 0.0
O206 O 1.04122 0.58518 0.64395 0.0
O207 O 0.9757 0.60468 0.63223 0.0
O208 O 0.07115 0.50032 0.67638 0.0
O209 O 1.00077 0.49837 0.68114 0.0
O210 O 0.61594 0.40294 0.58265 0.0
Cd211 Cd 0.64538 0.37792 0.61986 0.0
Cd212 Cd 0.57188 0.40113 0.64557 0.0
O213 O 0.56221 0.43344 0.60617 0.0
O214 O 0.7081 0.38072 0.61211 0.0
O215 O 0.67552 0.41769 0.64745 0.0
C216 C 0.70987 0.40863 0.63295 0.0
C217 C 0.56513 0.43036 0.69289 0.0
C218 C 0.58322 0.42624 0.58238 0.0
C219 C 0.58868 0.30915 0.63933 0.0
O220 O 0.5614 0.33767 0.64399 0.0
O221 O 0.62672 0.31801 0.63185 0.0
O222 O 0.53194 0.42233 0.67689 0.0
O223 O 0.60234 0.42405 0.68148 0.0
C224 C 0.32124 0.95036 0.14124 0.0
C225 C 0.35461 0.93205 0.13816 0.0
C226 C 0.28227 -0.02737 0.14122 0.0
C227 C 0.2489 -0.00908 0.1381 0.0
C228 C 0.78221 0.94981 0.38976 0.0
C229 C 0.74881 0.93156 0.39284 0.0
C230 C 0.82119 -0.02794 0.3898 0.0
C231 C 0.85455 -0.00964 0.39292 0.0
C232 C 0.82125 0.95051 0.88959 0.0
C233 C 0.85462 0.93222 0.89269 0.0
C234 C 0.78226 -0.02727 0.88961 0.0
C235 C 0.74886 -0.00903 0.89275 0.0
C236 C 0.28221 0.94978 0.64132 0.0
C237 C 0.24883 0.9315 0.63823 0.0
C238 C 0.32117 -0.02793 0.6413 0.0
C239 C 0.35451 -0.0096 0.63817 0.0
C240 C 0.8208 0.45007 0.14123 0.0
C241 C 0.85419 0.43181 0.13811 0.0
C242 C 0.78181 0.47229 0.14126 0.0
C243 C 0.74841 0.49056 0.13819 0.0
C244 C 0.32079 0.47232 0.3896 0.0
C245 C 0.35412 0.49068 0.39273 0.0
C246 C 0.28184 0.45003 0.38959 0.0
C247 C 0.24846 0.43176 0.3927 0.0
C248 C 0.28184 0.47248 0.88962 0.0
C249 C 0.24846 0.49076 0.89271 0.0
C250 C 0.32081 0.45021 0.88965 0.0
C251 C 0.35416 0.4319 0.89279 0.0
C252 C 0.78196 0.44994 0.6411 0.0
C253 C 0.74856 0.43171 0.63799 0.0
C254 C 0.82094 0.47219 0.64113 0.0
C255 C 0.85429 0.49051 0.63806 0.0
C256 C 1.04823 -0.02597 0.28106 0.0
C257 C 1.0429 -0.01767 0.30716 0.0
C258 C 0.055 -0.02593 0.24977 0.0
C259 C 0.06035 -0.01758 0.22369 0.0
C260 C 0.54838 0.94906 0.24987 0.0
C261 C 0.54306 0.94062 0.2238 0.0
C262 C 0.55511 0.94912 0.28116 0.0
C263 C 0.5604 0.94076 0.30725 0.0
C264 C 0.05513 0.94909 0.7498 0.0
C265 C 0.06041 0.94069 0.72372 0.0
C266 C 1.04842 0.9491 0.7811 0.0
C267 C 1.04312 0.94072 0.80718 0.0
C268 C 0.54829 -0.02601 0.74988 0.0
C269 C 0.54295 -0.01765 0.72379 0.0
C270 C 0.55504 -0.02607 0.78116 0.0
C271 C 0.56036 -0.01779 0.80726 0.0
C272 C 0.55503 0.47364 0.25022 0.0
C273 C 0.56029 0.48198 0.22412 0.0
C274 C 0.54829 0.47369 0.28151 0.0
C275 C 0.54291 0.48213 0.30757 0.0
C276 C 0.05475 0.44886 0.28099 0.0
C277 C 0.06005 0.44048 0.30708 0.0
C278 C 1.04802 0.44891 0.2497 0.0
C279 C 1.04271 0.4406 0.22361 0.0
C280 C 0.55525 0.44858 0.75019 0.0
C281 C 0.56052 0.44031 0.72409 0.0
C282 C 0.54848 0.44855 0.78148 0.0
C283 C 0.54307 0.4402 0.80756 0.0
C284 C 0.05487 0.47364 0.78096 0.0
C285 C 0.06015 0.48205 0.80704 0.0
C286 C 1.04814 0.47362 0.74967 0.0
C287 C 1.04282 0.48201 0.7236 0.0
C288 C 0.06106 0.19144 0.14237 0.0
C289 C 0.07559 0.15662 0.14073 0.0
C290 C 1.04246 0.23165 0.14237 0.0
C291 C 1.02788 0.26645 0.14073 0.0
C292 C 0.54211 0.73128 0.1427 0.0
C293 C 0.52768 0.76614 0.14104 0.0
C294 C 0.56058 0.69101 0.14271 0.0
C295 C 0.57504 0.65616 0.14107 0.0
C296 C 0.54166 0.69146 0.38832 0.0
C297 C 0.52715 0.65664 0.39002 0.0
C298 C 0.56027 0.73166 0.38829 0.0
C299 C 0.57488 0.76644 0.38995 0.0
C300 C 0.0604 0.23145 0.38865 0.0
C301 C 0.07491 0.26629 0.39023 0.0
C302 C 1.0419 0.19121 0.38869 0.0
C303 C 1.02747 0.15635 0.39033 0.0
C304 C 0.06068 0.69129 0.88831 0.0
C305 C 0.07513 0.65643 0.88994 0.0
C306 C 1.04222 0.73155 0.88833 0.0
C307 C 1.02779 0.76641 0.89 0.0
C308 C 0.54185 0.23122 0.88873 0.0
C309 C 0.52732 0.26604 0.89038 0.0
C310 C 0.56047 0.19102 0.88871 0.0
C311 C 0.57506 0.15622 0.89032 0.0
C312 C 0.54184 0.19135 0.64222 0.0
C313 C 0.52738 0.15649 0.64062 0.0
C314 C 0.56037 0.23158 0.64222 0.0
C315 C 0.57491 0.2664 0.64063 0.0
C316 C 0.06045 0.73145 0.64275 0.0
C317 C 0.07502 0.76625 0.64109 0.0
C318 C 1.04187 0.69124 0.64272 0.0
C319 C 1.02739 0.65641 0.64102 0.0
C320 C 1.04528 0.9546 1.00113 0.0
C321 C 1.03426 0.94189 0.97694 0.0
C322 C 0.05818 -0.03165 0.02974 0.0
C323 C 0.06921 -0.01893 0.05392 0.0
C324 C 0.55844 -0.03212 1.00125 0.0
C325 C 0.56941 -0.01938 0.97706 0.0
C326 C 0.54554 0.95415 0.02986 0.0
C327 C 0.53447 0.94149 0.05405 0.0
C328 C 0.54543 -0.03193 0.52988 0.0
C329 C 0.53435 -0.01922 0.55406 0.0
C330 C 0.55834 0.95434 0.50127 0.0
C331 C 0.56933 0.94167 0.47706 0.0
C332 C 0.05847 0.95411 0.52971 0.0
C333 C 0.06945 0.94144 0.55392 0.0
C334 C 1.04557 -0.03215 0.5011 0.0
C335 C 1.03449 -0.01942 0.47693 0.0
C336 C 0.55735 0.46785 0.03015 0.0
C337 C 0.56841 0.48056 0.05433 0.0
C338 C 0.54445 0.45412 1.00154 0.0
C339 C 0.53347 0.44144 0.97734 0.0
C340 C 1.04468 0.45456 0.02961 0.0
C341 C 1.03369 0.44187 0.05381 0.0
C342 C 0.05758 0.46828 1.00099 0.0
C343 C 0.06863 0.48097 0.9768 0.0
C344 C 1.04493 0.46857 0.52961 0.0
C345 C 1.0339 0.48121 0.55381 0.0
C346 C 0.05781 0.45481 0.501 0.0
C347 C 0.06881 0.44205 0.47682 0.0
C348 C 0.55735 0.45521 0.53016 0.0
C349 C 0.56844 0.4424 0.55431 0.0
C350 C 0.54441 0.46897 0.50157 0.0
C351 C 0.5334 0.48159 0.47735 0.0
loop_
_geom_bond_atom_site_label_1
_geom_bond_atom_site_label_2
_geom_bond_distance
_geom_bond_site_symmetry_2
_ccdc_geom_bond_type
O0 Cd1 2.223 1_655 S
O0 C8 1.315 1_655 S
Cd1 O0 2.223 1_455 S
Cd1 O4 2.297 1_455 S
Cd1 O5 2.439 . S
Cd1 O11 2.240 . S
Cd2 O3 2.240 . S
Cd2 O10 2.223 . S
Cd2 O12 2.297 . S
Cd2 O13 2.439 . S
O3 Cd2 2.240 . S
O3 C8 1.279 . S
O4 Cd1 2.297 1_655 S
O4 C6 1.247 1_655 S
O5 Cd1 2.439 . S
O5 C6 1.208 . S
C6 O4 1.247 1_455 S
C6 O5 1.208 . S
C7 O12 1.247 . S
C7 O13 1.208 . S
C8 O0 1.315 1_455 S
C8 O3 1.279 . S
C9 O10 1.315 . S
C9 O11 1.279 . S
O10 Cd2 2.223 . S
O10 C9 1.315 . S
O11 Cd1 2.240 . S
O11 C9 1.279 . S
O12 Cd2 2.297 . S
O12 C7 1.247 . S
O13 Cd2 2.439 . S
O13 C7 1.208 . S
O14 Cd15 2.223 . S
O14 C22 1.315 . S
Cd15 O14 2.223 . S
Cd15 O18 2.297 . S
Cd15 O19 2.439 . S
Cd15 O25 2.240 . S
Cd16 O17 2.240 . S
Cd16 O24 2.223 . S
Cd16 O26 2.297 . S
Cd16 O27 2.439 . S
O17 Cd16 2.240 . S
O17 C22 1.279 . S
O18 Cd15 2.297 . S
O18 C20 1.247 . S
O19 Cd15 2.439 . S
O19 C20 1.208 . S
C20 O18 1.247 . S
C20 O19 1.208 . S
C21 O26 1.247 . S
C21 O27 1.208 . S
C22 O14 1.315 . S
C22 O17 1.279 . S
C23 O24 1.315 . S
C23 O25 1.279 . S
O24 Cd16 2.223 . S
O24 C23 1.315 . S
O25 Cd15 2.240 . S
O25 C23 1.279 . S
O26 Cd16 2.297 . S
O26 C21 1.247 . S
O27 Cd16 2.439 . S
O27 C21 1.208 . S
O28 Cd29 2.223 . S
O28 C36 1.315 . S
Cd29 O28 2.223 . S
Cd29 O32 2.297 . S
Cd29 O33 2.439 . S
Cd29 O39 2.240 . S
Cd30 O31 2.240 . S
Cd30 O38 2.223 . S
Cd30 O40 2.297 . S
Cd30 O41 2.439 . S
O31 Cd30 2.240 . S
O31 C36 1.279 . S
O32 Cd29 2.297 . S
O32 C34 1.247 . S
O33 Cd29 2.439 . S
O33 C34 1.208 . S
C34 O32 1.247 . S
C34 O33 1.208 . S
C35 O40 1.247 . S
C35 O41 1.208 . S
C36 O28 1.315 . S
C36 O31 1.279 . S
C37 O38 1.315 . S
C37 O39 1.279 . S
O38 Cd30 2.223 . S
O38 C37 1.315 . S
O39 Cd29 2.240 . S
O39 C37 1.279 . S
O40 Cd30 2.297 . S
O40 C35 1.247 . S
O41 Cd30 2.439 . S
O41 C35 1.208 . S
O42 Cd43 2.223 1_455 S
O42 C50 1.315 1_455 S
Cd43 O42 2.223 1_655 S
Cd43 O46 2.297 1_655 S
Cd43 O47 2.439 . S
Cd43 O53 2.240 . S
Cd44 O45 2.240 . S
Cd44 O52 2.223 . S
Cd44 O54 2.297 . S
Cd44 O55 2.439 . S
O45 Cd44 2.240 . S
O45 C50 1.279 . S
O46 Cd43 2.297 1_455 S
O46 C48 1.247 1_455 S
O47 Cd43 2.439 . S
O47 C48 1.208 . S
C48 O46 1.247 1_655 S
C48 O47 1.208 . S
C49 O54 1.247 . S
C49 O55 1.208 . S
C50 O42 1.315 1_655 S
C50 O45 1.279 . S
C51 O52 1.315 . S
C51 O53 1.279 . S
O52 Cd44 2.223 . S
O52 C51 1.315 . S
O53 Cd43 2.240 . S
O53 C51 1.279 . S
O54 Cd44 2.297 . S
O54 C49 1.247 . S
O55 Cd44 2.439 . S
O55 C49 1.208 . S
O56 Cd57 2.223 . S
O56 C64 1.315 . S
Cd57 O56 2.223 . S
Cd57 O60 2.297 . S
Cd57 O61 2.439 . S
Cd57 O67 2.240 . S
Cd58 O59 2.240 . S
Cd58 O66 2.223 1_655 S
Cd58 O68 2.297 1_655 S
Cd58 O69 2.439 . S
O59 Cd58 2.240 . S
O59 C64 1.279 . S
O60 Cd57 2.297 . S
O60 C62 1.247 . S
O61 Cd57 2.439 . S
O61 C62 1.208 . S
C62 O60 1.247 . S
C62 O61 1.208 . S
C63 O68 1.247 1_655 S
C63 O69 1.208 . S
C64 O56 1.315 . S
C64 O59 1.279 . S
C65 O66 1.315 1_655 S
C65 O67 1.279 . S
O66 Cd58 2.223 1_455 S
O66 C65 1.315 1_455 S
O67 Cd57 2.240 . S
O67 C65 1.279 . S
O68 Cd58 2.297 1_455 S
O68 C63 1.247 1_455 S
O69 Cd58 2.439 . S
O69 C63 1.208 . S
O70 Cd71 2.223 . S
O70 C78 1.315 . S
Cd71 O70 2.223 . S
Cd71 O74 2.297 . S
Cd71 O75 2.439 . S
Cd71 O81 2.240 . S
Cd72 O73 2.240 . S
Cd72 O80 2.223 . S
Cd72 O82 2.297 . S
Cd72 O83 2.439 . S
O73 Cd72 2.240 . S
O73 C78 1.279 . S
O74 Cd71 2.297 . S
O74 C76 1.247 . S
O75 Cd71 2.439 . S
O75 C76 1.208 . S
C76 O74 1.247 . S
C76 O75 1.208 . S
C77 O82 1.247 . S
C77 O83 1.208 . S
C78 O70 1.315 . S
C78 O73 1.279 . S
C79 O80 1.315 . S
C79 O81 1.279 . S
O80 Cd72 2.223 . S
O80 C79 1.315 . S
O81 Cd71 2.240 . S
O81 C79 1.279 . S
O82 Cd72 2.297 . S
O82 C77 1.247 . S
O83 Cd72 2.439 . S
O83 C77 1.208 . S
O84 Cd85 2.223 . S
O84 C92 1.315 . S
Cd85 O84 2.223 . S
Cd85 O88 2.297 . S
Cd85 O89 2.439 . S
Cd85 O95 2.240 . S
Cd86 O87 2.240 . S
Cd86 O94 2.223 . S
Cd86 O96 2.297 . S
Cd86 O97 2.439 . S
O87 Cd86 2.240 . S
O87 C92 1.279 . S
O88 Cd85 2.297 . S
O88 C90 1.247 . S
O89 Cd85 2.439 . S
O89 C90 1.208 . S
C90 O88 1.247 . S
C90 O89 1.208 . S
C91 O96 1.247 . S
C91 O97 1.208 . S
C92 O84 1.315 . S
C92 O87 1.279 . S
C93 O94 1.315 . S
C93 O95 1.279 . S
O94 Cd86 2.223 . S
O94 C93 1.315 . S
O95 Cd85 2.240 . S
O95 C93 1.279 . S
O96 Cd86 2.297 . S
O96 C91 1.247 . S
O97 Cd86 2.439 . S
O97 C91 1.208 . S
O98 Cd99 2.223 . S
O98 C106 1.315 . S
Cd99 O98 2.223 . S
Cd99 O102 2.297 . S
Cd99 O103 2.439 . S
Cd99 O109 2.240 . S
Cd100 O101 2.240 . S
Cd100 O108 2.223 1_455 S
Cd100 O110 2.297 1_455 S
Cd100 O111 2.439 . S
O101 Cd100 2.240 . S
O101 C106 1.279 . S
O102 Cd99 2.297 . S
O102 C104 1.247 . S
O103 Cd99 2.439 . S
O103 C104 1.208 . S
C104 O102 1.247 . S
C104 O103 1.208 . S
C105 O110 1.247 1_455 S
C105 O111 1.208 . S
C106 O98 1.315 . S
C106 O101 1.279 . S
C107 O108 1.315 1_455 S
C107 O109 1.279 . S
O108 Cd100 2.223 1_655 S
O108 C107 1.315 1_655 S
O109 Cd99 2.240 . S
O109 C107 1.279 . S
O110 Cd100 2.297 1_655 S
O110 C105 1.247 1_655 S
O111 Cd100 2.439 . S
O111 C105 1.208 . S
O112 Cd113 2.223 . S
O112 C120 1.315 . S
Cd113 O112 2.223 . S
Cd113 O116 2.297 . S
Cd113 O117 2.439 . S
Cd113 O123 2.240 . S
Cd114 O115 2.240 . S
Cd114 O122 2.223 . S
Cd114 O124 2.297 . S
Cd114 O125 2.439 . S
O115 Cd114 2.240 . S
O115 C120 1.279 . S
O116 Cd113 2.297 . S
O116 C118 1.247 . S
O117 Cd113 2.439 . S
O117 C118 1.208 . S
C118 O116 1.247 . S
C118 O117 1.208 . S
C119 O124 1.247 . S
C119 O125 1.208 . S
C120 O112 1.315 . S
C120 O115 1.279 . S
C121 O122 1.315 . S
C121 O123 1.279 . S
O122 Cd114 2.223 . S
O122 C121 1.315 . S
O123 Cd113 2.240 . S
O123 C121 1.279 . S
O124 Cd114 2.297 . S
O124 C119 1.247 . S
O125 Cd114 2.439 . S
O125 C119 1.208 . S
O126 Cd127 2.223 1_455 S
O126 C134 1.315 1_455 S
Cd127 O126 2.223 1_655 S
Cd127 O130 2.297 1_655 S
Cd127 O131 2.439 . S
Cd127 O137 2.240 . S
Cd128 O129 2.240 . S
Cd128 O136 2.223 . S
Cd128 O138 2.297 . S
Cd128 O139 2.439 . S
O129 Cd128 2.240 . S
O129 C134 1.279 . S
O130 Cd127 2.297 1_455 S
O130 C132 1.247 1_455 S
O131 Cd127 2.439 . S
O131 C132 1.208 . S
C132 O130 1.247 1_655 S
C132 O131 1.208 . S
C133 O138 1.247 . S
C133 O139 1.208 . S
C134 O126 1.315 1_655 S
C134 O129 1.279 . S
C135 O136 1.315 . S
C135 O137 1.279 . S
O136 Cd128 2.223 . S
O136 C135 1.315 . S
O137 Cd127 2.240 . S
O137 C135 1.279 . S
O138 Cd128 2.297 . S
O138 C133 1.247 . S
O139 Cd128 2.439 . S
O139 C133 1.208 . S
O140 Cd141 2.223 1_655 S
O140 C148 1.315 1_655 S
Cd141 O140 2.223 1_455 S
Cd141 O144 2.297 1_455 S
Cd141 O145 2.439 . S
Cd141 O151 2.240 . S
Cd142 O143 2.240 . S
Cd142 O150 2.223 . S
Cd142 O152 2.297 . S
Cd142 O153 2.439 . S
O143 Cd142 2.240 . S
O143 C148 1.279 . S
O144 Cd141 2.297 1_655 S
O144 C146 1.247 1_655 S
O145 Cd141 2.439 . S
O145 C146 1.208 . S
C146 O144 1.247 1_455 S
C146 O145 1.208 . S
C147 O152 1.247 . S
C147 O153 1.208 . S
C148 O140 1.315 1_455 S
C148 O143 1.279 . S
C149 O150 1.315 . S
C149 O151 1.279 . S
O150 Cd142 2.223 . S
O150 C149 1.315 . S
O151 Cd141 2.240 . S
O151 C149 1.279 . S
O152 Cd142 2.297 . S
O152 C147 1.247 . S
O153 Cd142 2.439 . S
O153 C147 1.208 . S
O154 Cd155 2.223 . S
O154 C162 1.315 . S
Cd155 O154 2.223 . S
Cd155 O158 2.297 . S
Cd155 O159 2.439 . S
Cd155 O165 2.240 . S
Cd156 O157 2.240 . S
Cd156 O164 2.223 . S
Cd156 O166 2.297 . S
Cd156 O167 2.439 . S
O157 Cd156 2.240 . S
O157 C162 1.279 . S
O158 Cd155 2.297 . S
O158 C160 1.247 . S
O159 Cd155 2.439 . S
O159 C160 1.208 . S
C160 O158 1.247 . S
C160 O159 1.208 . S
C161 O166 1.247 . S
C161 O167 1.208 . S
C162 O154 1.315 . S
C162 O157 1.279 . S
C163 O164 1.315 . S
C163 O165 1.279 . S
O164 Cd156 2.223 . S
O164 C163 1.315 . S
O165 Cd155 2.240 . S
O165 C163 1.279 . S
O166 Cd156 2.297 . S
O166 C161 1.247 . S
O167 Cd156 2.439 . S
O167 C161 1.208 . S
O168 Cd169 2.223 . S
O168 C176 1.315 . S
Cd169 O168 2.223 . S
Cd169 O172 2.297 . S
Cd169 O173 2.439 . S
Cd169 O179 2.240 . S
Cd170 O171 2.240 . S
Cd170 O178 2.223 . S
Cd170 O180 2.297 . S
Cd170 O181 2.439 . S
O171 Cd170 2.240 . S
O171 C176 1.279 . S
O172 Cd169 2.297 . S
O172 C174 1.247 . S
O173 Cd169 2.439 . S
O173 C174 1.208 . S
C174 O172 1.247 . S
C174 O173 1.208 . S
C175 O180 1.247 . S
C175 O181 1.208 . S
C176 O168 1.315 . S
C176 O171 1.279 . S
C177 O178 1.315 . S
C177 O179 1.279 . S
O178 Cd170 2.223 . S
O178 C177 1.315 . S
O179 Cd169 2.240 . S
O179 C177 1.279 . S
O180 Cd170 2.297 . S
O180 C175 1.247 . S
O181 Cd170 2.439 . S
O181 C175 1.208 . S
O182 Cd183 2.223 . S
O182 C190 1.315 . S
Cd183 O182 2.223 . S
Cd183 O186 2.297 . S
Cd183 O187 2.439 . S
Cd183 O193 2.240 . S
Cd184 O185 2.240 . S
Cd184 O192 2.223 1_455 S
Cd184 O194 2.297 1_455 S
Cd184 O195 2.439 . S
O185 Cd184 2.240 . S
O185 C190 1.279 . S
O186 Cd183 2.297 . S
O186 C188 1.247 . S
O187 Cd183 2.439 . S
O187 C188 1.208 . S
C188 O186 1.247 . S
C188 O187 1.208 . S
C189 O194 1.247 1_455 S
C189 O195 1.208 . S
C190 O182 1.315 . S
C190 O185 1.279 . S
C191 O192 1.315 1_455 S
C191 O193 1.279 . S
O192 Cd184 2.223 1_655 S
O192 C191 1.315 1_655 S
O193 Cd183 2.240 . S
O193 C191 1.279 . S
O194 Cd184 2.297 1_655 S
O194 C189 1.247 1_655 S
O195 Cd184 2.439 . S
O195 C189 1.208 . S
O196 Cd197 2.223 . S
O196 C204 1.315 . S
Cd197 O196 2.223 . S
Cd197 O200 2.297 . S
Cd197 O201 2.439 . S
Cd197 O207 2.240 . S
Cd198 O199 2.240 . S
Cd198 O206 2.223 1_655 S
Cd198 O208 2.297 1_655 S
Cd198 O209 2.439 . S
O199 Cd198 2.240 . S
O199 C204 1.279 . S
O200 Cd197 2.297 . S
O200 C202 1.247 . S
O201 Cd197 2.439 . S
O201 C202 1.208 . S
C202 O200 1.247 . S
C202 O201 1.208 . S
C203 O208 1.247 1_655 S
C203 O209 1.208 . S
C204 O196 1.315 . S
C204 O199 1.279 . S
C205 O206 1.315 1_655 S
C205 O207 1.279 . S
O206 Cd198 2.223 1_455 S
O206 C205 1.315 1_455 S
O207 Cd197 2.240 . S
O207 C205 1.279 . S
O208 Cd198 2.297 1_455 S
O208 C203 1.247 1_455 S
O209 Cd198 2.439 . S
O209 C203 1.208 . S
O210 Cd211 2.223 . S
O210 C218 1.315 . S
Cd211 O210 2.223 . S
Cd211 O214 2.297 . S
Cd211 O215 2.439 . S
Cd211 O221 2.240 . S
Cd212 O213 2.240 . S
Cd212 O220 2.223 . S
Cd212 O222 2.297 . S
Cd212 O223 2.439 . S
O213 Cd212 2.240 . S
O213 C218 1.279 . S
O214 Cd211 2.297 . S
O214 C216 1.247 . S
O215 Cd211 2.439 . S
O215 C216 1.208 . S
C216 O214 1.247 . S
C216 O215 1.208 . S
C217 O222 1.247 . S
C217 O223 1.208 . S
C218 O210 1.315 . S
C218 O213 1.279 . S
C219 O220 1.315 . S
C219 O221 1.279 . S
O220 Cd212 2.223 . S
O220 C219 1.315 . S
O221 Cd211 2.240 . S
O221 C219 1.279 . S
O222 Cd212 2.297 . S
O222 C217 1.247 . S
O223 Cd212 2.439 . S
O223 C217 1.208 . S
C224 C225 1.170 . S
C224 C226 1.380 1_565 S
C225 C224 1.170 . S
C226 C224 1.380 1_545 S
C226 C227 1.170 . S
C227 C226 1.170 . S
C228 C229 1.170 . S
C228 C230 1.380 1_565 S
C229 C228 1.170 . S
C230 C228 1.380 1_545 S
C230 C231 1.170 . S
C231 C230 1.170 . S
C232 C233 1.170 . S
C232 C234 1.380 1_565 S
C233 C232 1.170 . S
C234 C232 1.380 1_545 S
C234 C235 1.170 . S
C235 C234 1.170 . S
C236 C237 1.170 . S
C236 C238 1.377 1_565 S
C237 C236 1.170 . S
C238 C236 1.377 1_545 S
C238 C239 1.175 . S
C239 C238 1.175 . S
C240 C241 1.170 . S
C240 C242 1.380 . S
C241 C240 1.170 . S
C242 C240 1.380 . S
C242 C243 1.170 . S
C243 C242 1.170 . S
C244 C245 1.170 . S
C244 C246 1.380 . S
C245 C244 1.170 . S
C246 C244 1.380 . S
C246 C247 1.170 . S
C247 C246 1.170 . S
C248 C249 1.170 . S
C248 C250 1.380 . S
C249 C248 1.170 . S
C250 C248 1.380 . S
C250 C251 1.170 . S
C251 C250 1.170 . S
C252 C253 1.170 . S
C252 C254 1.380 . S
C253 C252 1.170 . S
C254 C252 1.380 . S
C254 C255 1.170 . S
C255 C254 1.170 . S
C256 C257 1.170 . S
C256 C258 1.380 1_655 S
C257 C256 1.170 . S
C258 C256 1.380 1_455 S
C258 C259 1.170 . S
C259 C258 1.170 . S
C260 C261 1.170 . S
C260 C262 1.380 . S
C261 C260 1.170 . S
C262 C260 1.380 . S
C262 C263 1.170 . S
C263 C262 1.170 . S
C264 C265 1.170 . S
C264 C266 1.380 1_455 S
C265 C264 1.170 . S
C266 C264 1.380 1_655 S
C266 C267 1.170 . S
C267 C266 1.170 . S
C268 C269 1.170 . S
C268 C270 1.380 . S
C269 C268 1.170 . S
C270 C268 1.380 . S
C270 C271 1.170 . S
C271 C270 1.170 . S
C272 C273 1.170 . S
C272 C274 1.380 . S
C273 C272 1.170 . S
C274 C272 1.380 . S
C274 C275 1.170 . S
C275 C274 1.170 . S
C276 C277 1.170 . S
C276 C278 1.380 1_455 S
C277 C276 1.170 . S
C278 C276 1.380 1_655 S
C278 C279 1.170 . S
C279 C278 1.170 . S
C280 C281 1.170 . S
C280 C282 1.380 . S
C281 C280 1.170 . S
C282 C280 1.380 . S
C282 C283 1.170 . S
C283 C282 1.170 . S
C284 C285 1.170 . S
C284 C286 1.380 1_455 S
C285 C284 1.170 . S
C286 C284 1.380 1_655 S
C286 C287 1.170 . S
C287 C286 1.170 . S
C288 C289 1.170 . S
C288 C290 1.380 1_455 S
C289 C288 1.170 . S
C290 C288 1.380 1_655 S
C290 C291 1.170 . S
C291 C290 1.170 . S
C292 C293 1.170 . S
C292 C294 1.380 . S
C293 C292 1.170 . S
C294 C292 1.380 . S
C294 C295 1.170 . S
C295 C294 1.170 . S
C296 C297 1.170 . S
C296 C298 1.380 . S
C297 C296 1.170 . S
C298 C296 1.380 . S
C298 C299 1.170 . S
C299 C298 1.170 . S
C300 C301 1.170 . S
C300 C302 1.380 1_455 S
C301 C300 1.170 . S
C302 C300 1.380 1_655 S
C302 C303 1.170 . S
C303 C302 1.170 . S
C304 C305 1.170 . S
C304 C306 1.380 1_455 S
C305 C304 1.170 . S
C306 C304 1.380 1_655 S
C306 C307 1.170 . S
C307 C306 1.170 . S
C308 C309 1.170 . S
C308 C310 1.380 . S
C309 C308 1.170 . S
C310 C308 1.380 . S
C310 C311 1.170 . S
C311 C310 1.170 . S
C312 C313 1.170 . S
C312 C314 1.380 . S
C313 C312 1.170 . S
C314 C312 1.380 . S
C314 C315 1.170 . S
C315 C314 1.170 . S
C316 C317 1.170 . S
C316 C318 1.380 1_455 S
C317 C316 1.170 . S
C318 C316 1.380 1_655 S
C318 C319 1.170 . S
C319 C318 1.170 . S
C320 C321 1.170 . S
C320 C322 1.380 1_666 S
C321 C320 1.170 . S
C322 C320 1.380 1_444 S
C322 C323 1.170 . S
C323 C322 1.170 . S
C324 C325 1.170 . S
C324 C326 1.380 1_546 S
C325 C324 1.170 . S
C326 C324 1.380 1_564 S
C326 C327 1.170 . S
C327 C326 1.170 . S
C328 C329 1.170 . S
C328 C330 1.380 1_545 S
C329 C328 1.170 . S
C330 C328 1.380 1_565 S
C330 C331 1.170 . S
C331 C330 1.170 . S
C332 C333 1.170 . S
C332 C334 1.380 1_465 S
C333 C332 1.170 . S
C334 C332 1.380 1_645 S
C334 C335 1.170 . S
C335 C334 1.170 . S
C336 C337 1.170 . S
C336 C338 1.380 1_554 S
C337 C336 1.170 . S
C338 C336 1.380 1_556 S
C338 C339 1.170 . S
C339 C338 1.170 . S
C340 C341 1.170 . S
C340 C342 1.380 1_654 S
C341 C340 1.170 . S
C342 C340 1.380 1_456 S
C342 C343 1.170 . S
C343 C342 1.170 . S
C344 C345 1.170 . S
C344 C346 1.380 1_655 S
C345 C344 1.170 . S
C346 C344 1.380 1_455 S
C346 C347 1.170 . S
C347 C346 1.170 . S
C348 C349 1.170 . S
C348 C350 1.380 . S
C349 C348 1.170 . S
C350 C348 1.380 . S
C350 C351 1.170 . S
C351 C350 1.170 . S
C225 C21 1.526 . S
C227 C7 1.502 . S
C229 C35 1.533 . S
C231 C49 1.530 . S
C233 C62 1.518 . S
C235 C76 1.523 . S
C237 C104 1.506 . S
C239 C90 1.536 . S
C241 C133 1.505 . S
C243 C119 1.518 . S
C245 C161 1.534 . S
C247 C147 1.528 . S
C249 C188 1.525 . S
C251 C174 1.517 . S
C253 C216 1.525 . S
C255 C202 1.518 . S
C257 C48 1.516 . S
C259 C6 1.495 . S
C261 C20 1.498 . S
C263 C34 1.520 . S
C265 C105 1.518 . S
C267 C63 1.494 . S
C269 C91 1.508 . S
C271 C77 1.517 . S
C273 C118 1.509 . S
C275 C160 1.500 . S
C277 C146 1.507 . S
C279 C132 1.502 . S
C281 C217 1.521 . S
C283 C175 1.495 . S
C285 C189 1.515 . S
C287 C203 1.494 . S
C289 C8 1.480 . S
C291 C134 1.465 . S
C293 C22 1.491 . S
C295 C120 1.477 . S
C297 C162 1.489 . S
C299 C36 1.472 . S
C301 C148 1.464 . S
C303 C50 1.479 . S
C305 C191 1.484 . S
C307 C65 1.486 . S
C309 C177 1.480 . S
C311 C79 1.478 . S
C313 C93 1.489 . S
C315 C219 1.488 . S
C317 C107 1.467 . S
C319 C205 1.468 . S
C321 C64 1.570 . S
C323 C9 1.573 . S
C325 C78 1.569 . S
C327 C23 1.576 . S
C329 C92 1.575 . S
C331 C37 1.569 . S
C333 C106 1.572 . S
C335 C51 1.580 . S
C337 C121 1.580 . S
C339 C176 1.566 . S
C341 C135 1.567 . S
C343 C190 1.582 . S
C345 C204 1.571 . S
C347 C149 1.581 . S
C349 C218 1.576 . S
C351 C163 1.568 . S
