# Generated by pormake.
# Topology wnd, (6)-cn, num edge types: 1
# Building blocks:
#     Node 0, Type 0, BuildingBlock: MIFKUJ_clean_sbu_0, # of connection points: 6
#     Node 1, Type 0, BuildingBlock: MIFKUJ_clean_sbu_0, # of connection points: 6
#     Node 2, Type 0, BuildingBlock: MIFKUJ_clean_sbu_0, # of connection points: 6
#     Node 3, Type 0, BuildingBlock: MIFKUJ_clean_sbu_0, # of connection points: 6
#     Node 4, Type 0, BuildingBlock: MIFKUJ_clean_sbu_0, # of connection points: 6
#     Node 5, Type 0, BuildingBlock: MIFKUJ_clean_sbu_0, # of connection points: 6
#     Node 6, Type 0, BuildingBlock: MIFKUJ_clean_sbu_0, # of connection points: 6
#     Node 7, Type 0, BuildingBlock: MIFKUJ_clean_sbu_0, # of connection points: 6
#     Node 8, Type 0, BuildingBlock: MIFKUJ_clean_sbu_0, # of connection points: 6
#     Node 9, Type 0, BuildingBlock: MIFKUJ_clean_sbu_0, # of connection points: 6
#     Node 10, Type 0, BuildingBlock: MIFKUJ_clean_sbu_0, # of connection points: 6
#     Node 11, Type 0, BuildingBlock: MIFKUJ_clean_sbu_0, # of connection points: 6
#     Node 12, Type 0, BuildingBlock: MIFKUJ_clean_sbu_0, # of connection points: 6
#     Node 13, Type 0, BuildingBlock: MIFKUJ_clean_sbu_0, # of connection points: 6
#     Node 14, Type 0, BuildingBlock: MIFKUJ_clean_sbu_0, # of connection points: 6
#     Node 15, Type 0, BuildingBlock: MIFKUJ_clean_sbu_0, # of connection points: 6
#     Node 16, Type 0, BuildingBlock: MIFKUJ_clean_sbu_0, # of connection points: 6
#     Node 17, Type 0, BuildingBlock: MIFKUJ_clean_sbu_0, # of connection points: 6
#     Node 18, Type 0, BuildingBlock: MIFKUJ_clean_sbu_0, # of connection points: 6
#     Node 19, Type 0, BuildingBlock: MIFKUJ_clean_sbu_0, # of connection points: 6
#     Node 20, Type 0, BuildingBlock: MIFKUJ_clean_sbu_0, # of connection points: 6
#     Node 21, Type 0, BuildingBlock: MIFKUJ_clean_sbu_0, # of connection points: 6
#     Node 22, Type 0, BuildingBlock: MIFKUJ_clean_sbu_0, # of connection points: 6
#     Node 23, Type 0, BuildingBlock: MIFKUJ_clean_sbu_0, # of connection points: 6
#     Node 24, Type 0, BuildingBlock: MIFKUJ_clean_sbu_0, # of connection points: 6
#     Node 25, Type 0, BuildingBlock: MIFKUJ_clean_sbu_0, # of connection points: 6
#     Node 26, Type 0, BuildingBlock: MIFKUJ_clean_sbu_0, # of connection points: 6
#     Node 27, Type 0, BuildingBlock: MIFKUJ_clean_sbu_0, # of connection points: 6
#     Node 28, Type 0, BuildingBlock: MIFKUJ_clean_sbu_0, # of connection points: 6
#     Node 29, Type 0, BuildingBlock: MIFKUJ_clean_sbu_0, # of connection points: 6
#     Node 30, Type 0, BuildingBlock: MIFKUJ_clean_sbu_0, # of connection points: 6
#     Node 31, Type 0, BuildingBlock: MIFKUJ_clean_sbu_0, # of connection points: 6
#     Node 32, Type 0, BuildingBlock: MIFKUJ_clean_sbu_0, # of connection points: 6
#     Node 33, Type 0, BuildingBlock: MIFKUJ_clean_sbu_0, # of connection points: 6
#     Node 34, Type 0, BuildingBlock: MIFKUJ_clean_sbu_0, # of connection points: 6
#     Node 35, Type 0, BuildingBlock: MIFKUJ_clean_sbu_0, # of connection points: 6
#     Edge 36, Type (0, 0), BuildingBlock: AJUNOK_clean_linker_0, # of connection points: 2
#     Edge 37, Type (0, 0), BuildingBlock: AJUNOK_clean_linker_0, # of connection points: 2
#     Edge 38, Type (0, 0), BuildingBlock: AJUNOK_clean_linker_0, # of connection points: 2
#     Edge 39, Type (0, 0), BuildingBlock: AJUNOK_clean_linker_0, # of connection points: 2
#     Edge 40, Type (0, 0), BuildingBlock: AJUNOK_clean_linker_0, # of connection points: 2
#     Edge 41, Type (0, 0), BuildingBlock: AJUNOK_clean_linker_0, # of connection points: 2
#     Edge 42, Type (0, 0), BuildingBlock: AJUNOK_clean_linker_0, # of connection points: 2
#     Edge 43, Type (0, 0), BuildingBlock: AJUNOK_clean_linker_0, # of connection points: 2
#     Edge 44, Type (0, 0), BuildingBlock: AJUNOK_clean_linker_0, # of connection points: 2
#     Edge 45, Type (0, 0), BuildingBlock: AJUNOK_clean_linker_0, # of connection points: 2
#     Edge 46, Type (0, 0), BuildingBlock: AJUNOK_clean_linker_0, # of connection points: 2
#     Edge 47, Type (0, 0), BuildingBlock: AJUNOK_clean_linker_0, # of connection points: 2
#     Edge 48, Type (0, 0), BuildingBlock: AJUNOK_clean_linker_0, # of connection points: 2
#     Edge 49, Type (0, 0), BuildingBlock: AJUNOK_clean_linker_0, # of connection points: 2
#     Edge 50, Type (0, 0), BuildingBlock: AJUNOK_clean_linker_0, # of connection points: 2
#     Edge 51, Type (0, 0), BuildingBlock: AJUNOK_clean_linker_0, # of connection points: 2
#     Edge 52, Type (0, 0), BuildingBlock: AJUNOK_clean_linker_0, # of connection points: 2
#     Edge 53, Type (0, 0), BuildingBlock: AJUNOK_clean_linker_0, # of connection points: 2
#     Edge 54, Type (0, 0), BuildingBlock: AJUNOK_clean_linker_0, # of connection points: 2
#     Edge 55, Type (0, 0), BuildingBlock: AJUNOK_clean_linker_0, # of connection points: 2
#     Edge 56, Type (0, 0), BuildingBlock: AJUNOK_clean_linker_0, # of connection points: 2
#     Edge 57, Type (0, 0), BuildingBlock: AJUNOK_clean_linker_0, # of connection points: 2
#     Edge 58, Type (0, 0), BuildingBlock: AJUNOK_clean_linker_0, # of connection points: 2
#     Edge 59, Type (0, 0), BuildingBlock: AJUNOK_clean_linker_0, # of connection points: 2
#     Edge 60, Type (0, 0), BuildingBlock: AJUNOK_clean_linker_0, # of connection points: 2
#     Edge 61, Type (0, 0), BuildingBlock: AJUNOK_clean_linker_0, # of connection points: 2
#     Edge 62, Type (0, 0), BuildingBlock: AJUNOK_clean_linker_0, # of connection points: 2
#     Edge 63, Type (0, 0), BuildingBlock: AJUNOK_clean_linker_0, # of connection points: 2
#     Edge 64, Type (0, 0), BuildingBlock: AJUNOK_clean_linker_0, # of connection points: 2
#     Edge 65, Type (0, 0), BuildingBlock: AJUNOK_clean_linker_0, # of connection points: 2
#     Edge 66, Type (0, 0), BuildingBlock: AJUNOK_clean_linker_0, # of connection points: 2
#     Edge 67, Type (0, 0), BuildingBlock: AJUNOK_clean_linker_0, # of connection points: 2
#     Edge 68, Type (0, 0), BuildingBlock: AJUNOK_clean_linker_0, # of connection points: 2
#     Edge 69, Type (0, 0), BuildingBlock: AJUNOK_clean_linker_0, # of connection points: 2
#     Edge 70, Type (0, 0), BuildingBlock: AJUNOK_clean_linker_0, # of connection points: 2
#     Edge 71, Type (0, 0), BuildingBlock: AJUNOK_clean_linker_0, # of connection points: 2
#     Edge 72, Type (0, 0), BuildingBlock: AJUNOK_clean_linker_0, # of connection points: 2
#     Edge 73, Type (0, 0), BuildingBlock: AJUNOK_clean_linker_0, # of connection points: 2
#     Edge 74, Type (0, 0), BuildingBlock: AJUNOK_clean_linker_0, # of connection points: 2
#     Edge 75, Type (0, 0), BuildingBlock: AJUNOK_clean_linker_0, # of connection points: 2
#     Edge 76, Type (0, 0), BuildingBlock: AJUNOK_clean_linker_0, # of connection points: 2
#     Edge 77, Type (0, 0), BuildingBlock: AJUNOK_clean_linker_0, # of connection points: 2
#     Edge 78, Type (0, 0), BuildingBlock: AJUNOK_clean_linker_0, # of connection points: 2
#     Edge 79, Type (0, 0), BuildingBlock: AJUNOK_clean_linker_0, # of connection points: 2
#     Edge 80, Type (0, 0), BuildingBlock: AJUNOK_clean_linker_0, # of connection points: 2
#     Edge 81, Type (0, 0), BuildingBlock: AJUNOK_clean_linker_0, # of connection points: 2
#     Edge 82, Type (0, 0), BuildingBlock: AJUNOK_clean_linker_0, # of connection points: 2
#     Edge 83, Type (0, 0), BuildingBlock: AJUNOK_clean_linker_0, # of connection points: 2
#     Edge 84, Type (0, 0), BuildingBlock: AJUNOK_clean_linker_0, # of connection points: 2
#     Edge 85, Type (0, 0), BuildingBlock: AJUNOK_clean_linker_0, # of connection points: 2
#     Edge 86, Type (0, 0), BuildingBlock: AJUNOK_clean_linker_0, # of connection points: 2
#     Edge 87, Type (0, 0), BuildingBlock: AJUNOK_clean_linker_0, # of connection points: 2
#     Edge 88, Type (0, 0), BuildingBlock: AJUNOK_clean_linker_0, # of connection points: 2
#     Edge 89, Type (0, 0), BuildingBlock: AJUNOK_clean_linker_0, # of connection points: 2
#     Edge 90, Type (0, 0), BuildingBlock: AJUNOK_clean_linker_0, # of connection points: 2
#     Edge 91, Type (0, 0), BuildingBlock: AJUNOK_clean_linker_0, # of connection points: 2
#     Edge 92, Type (0, 0), BuildingBlock: AJUNOK_clean_linker_0, # of connection points: 2
#     Edge 93, Type (0, 0), BuildingBlock: AJUNOK_clean_linker_0, # of connection points: 2
#     Edge 94, Type (0, 0), BuildingBlock: AJUNOK_clean_linker_0, # of connection points: 2
#     Edge 95, Type (0, 0), BuildingBlock: AJUNOK_clean_linker_0, # of connection points: 2
#     Edge 96, Type (0, 0), BuildingBlock: AJUNOK_clean_linker_0, # of connection points: 2
#     Edge 97, Type (0, 0), BuildingBlock: AJUNOK_clean_linker_0, # of connection points: 2
#     Edge 98, Type (0, 0), BuildingBlock: AJUNOK_clean_linker_0, # of connection points: 2
#     Edge 99, Type (0, 0), BuildingBlock: AJUNOK_clean_linker_0, # of connection points: 2
#     Edge 100, Type (0, 0), BuildingBlock: AJUNOK_clean_linker_0, # of connection points: 2
#     Edge 101, Type (0, 0), BuildingBlock: AJUNOK_clean_linker_0, # of connection points: 2
#     Edge 102, Type (0, 0), BuildingBlock: AJUNOK_clean_linker_0, # of connection points: 2
#     Edge 103, Type (0, 0), BuildingBlock: AJUNOK_clean_linker_0, # of connection points: 2
#     Edge 104, Type (0, 0), BuildingBlock: AJUNOK_clean_linker_0, # of connection points: 2
#     Edge 105, Type (0, 0), BuildingBlock: AJUNOK_clean_linker_0, # of connection points: 2
#     Edge 106, Type (0, 0), BuildingBlock: AJUNOK_clean_linker_0, # of connection points: 2
#     Edge 107, Type (0, 0), BuildingBlock: AJUNOK_clean_linker_0, # of connection points: 2
#     Edge 108, Type (0, 0), BuildingBlock: AJUNOK_clean_linker_0, # of connection points: 2
#     Edge 109, Type (0, 0), BuildingBlock: AJUNOK_clean_linker_0, # of connection points: 2
#     Edge 110, Type (0, 0), BuildingBlock: AJUNOK_clean_linker_0, # of connection points: 2
#     Edge 111, Type (0, 0), BuildingBlock: AJUNOK_clean_linker_0, # of connection points: 2
#     Edge 112, Type (0, 0), BuildingBlock: AJUNOK_clean_linker_0, # of connection points: 2
#     Edge 113, Type (0, 0), BuildingBlock: AJUNOK_clean_linker_0, # of connection points: 2
#     Edge 114, Type (0, 0), BuildingBlock: AJUNOK_clean_linker_0, # of connection points: 2
#     Edge 115, Type (0, 0), BuildingBlock: AJUNOK_clean_linker_0, # of connection points: 2
#     Edge 116, Type (0, 0), BuildingBlock: AJUNOK_clean_linker_0, # of connection points: 2
#     Edge 117, Type (0, 0), BuildingBlock: AJUNOK_clean_linker_0, # of connection points: 2
#     Edge 118, Type (0, 0), BuildingBlock: AJUNOK_clean_linker_0, # of connection points: 2
#     Edge 119, Type (0, 0), BuildingBlock: AJUNOK_clean_linker_0, # of connection points: 2
#     Edge 120, Type (0, 0), BuildingBlock: AJUNOK_clean_linker_0, # of connection points: 2
#     Edge 121, Type (0, 0), BuildingBlock: AJUNOK_clean_linker_0, # of connection points: 2
#     Edge 122, Type (0, 0), BuildingBlock: AJUNOK_clean_linker_0, # of connection points: 2
#     Edge 123, Type (0, 0), BuildingBlock: AJUNOK_clean_linker_0, # of connection points: 2
#     Edge 124, Type (0, 0), BuildingBlock: AJUNOK_clean_linker_0, # of connection points: 2
#     Edge 125, Type (0, 0), BuildingBlock: AJUNOK_clean_linker_0, # of connection points: 2
#     Edge 126, Type (0, 0), BuildingBlock: AJUNOK_clean_linker_0, # of connection points: 2
#     Edge 127, Type (0, 0), BuildingBlock: AJUNOK_clean_linker_0, # of connection points: 2
#     Edge 128, Type (0, 0), BuildingBlock: AJUNOK_clean_linker_0, # of connection points: 2
#     Edge 129, Type (0, 0), BuildingBlock: AJUNOK_clean_linker_0, # of connection points: 2
#     Edge 130, Type (0, 0), BuildingBlock: AJUNOK_clean_linker_0, # of connection points: 2
#     Edge 131, Type (0, 0), BuildingBlock: AJUNOK_clean_linker_0, # of connection points: 2
#     Edge 132, Type (0, 0), BuildingBlock: AJUNOK_clean_linker_0, # of connection points: 2
#     Edge 133, Type (0, 0), BuildingBlock: AJUNOK_clean_linker_0, # of connection points: 2
#     Edge 134, Type (0, 0), BuildingBlock: AJUNOK_clean_linker_0, # of connection points: 2
#     Edge 135, Type (0, 0), BuildingBlock: AJUNOK_clean_linker_0, # of connection points: 2
#     Edge 136, Type (0, 0), BuildingBlock: AJUNOK_clean_linker_0, # of connection points: 2
#     Edge 137, Type (0, 0), BuildingBlock: AJUNOK_clean_linker_0, # of connection points: 2
#     Edge 138, Type (0, 0), BuildingBlock: AJUNOK_clean_linker_0, # of connection points: 2
#     Edge 139, Type (0, 0), BuildingBlock: AJUNOK_clean_linker_0, # of connection points: 2
#     Edge 140, Type (0, 0), BuildingBlock: AJUNOK_clean_linker_0, # of connection points: 2
#     Edge 141, Type (0, 0), BuildingBlock: AJUNOK_clean_linker_0, # of connection points: 2
#     Edge 142, Type (0, 0), BuildingBlock: AJUNOK_clean_linker_0, # of connection points: 2
#     Edge 143, Type (0, 0), BuildingBlock: AJUNOK_clean_linker_0, # of connection points: 2
# Relax obj value: 0.082
# Max RMSD: 0.182
# Mean RMSD: 0.182
data_MOF--net-wnd--node1-MIFKUJ_clean_sbu_0--edge1-AJUNOK_clean_linker_0
_symmetry_space_group_name_H-M    P1
_symmetry_Int_Tables_number       1
_symmetry_cell_setting            triclinic
loop_
_symmetry_equiv_pos_as_xyz
'x, y, z'
_cell_length_a     27.248481
_cell_length_b     27.316981
_cell_length_c     111.17643
_cell_angle_alpha  90.070587
_cell_angle_beta   89.885798
_cell_angle_gamma 119.90647
loop_
_atom_site_label
_atom_site_type_symbol
_atom_site_fract_x
_atom_site_fract_y
_atom_site_fract_z
_atom_type_partial_charge
Zn0 Zn 0.46697 0.963 0.03011 0.0
Zn1 Zn 0.49906 0.10553 0.02437 0.0
C2 C 0.35807 0.87416 0.03848 0.0
O3 O 0.38399 0.88808 0.04892 0.0
C4 C 0.61448 0.14963 0.02186 0.0
O5 O 0.59769 0.1542 0.01106 0.0
O6 O 0.50619 0.91799 0.03389 0.0
O7 O 0.48999 0.99353 0.01323 0.0
O8 O 0.48564 0.06995 0.00828 0.0
C9 C 0.50352 0.88394 0.02572 0.0
O10 O 0.47883 0.88276 0.01551 0.0
O11 O 0.3845 0.90236 0.02921 0.0
C12 C 0.5024 0.21233 0.03064 0.0
O13 O 0.48093 0.1885 0.04105 0.0
O14 O 0.50899 0.18373 0.02238 0.0
O15 O 0.43784 0.06277 0.03625 0.0
O16 O 0.47464 0.01415 0.0441 0.0
O17 O 0.57714 0.12455 0.02998 0.0
C18 C 0.49233 0.02868 0.00543 0.0
C19 C 0.44597 0.0391 0.04522 0.0
Zn20 Zn 0.08417 0.53732 0.03499 0.0
Zn21 Zn 0.94851 0.42209 0.0271 0.0
C22 C 0.18077 0.52114 0.03997 0.0
O23 O 0.16885 0.52399 0.05131 0.0
C24 C 0.88707 0.47675 0.02479 0.0
O25 O 0.88165 0.4513 0.01444 0.0
O26 O 0.12866 0.61989 0.03995 0.0
O27 O 0.05161 0.53704 0.01852 0.0
O28 O 0.98745 0.45272 0.01175 0.0
C29 C 0.16159 0.65158 0.03167 0.0
O30 O 0.16019 0.62883 0.02117 0.0
O31 O 0.14785 0.52097 0.03184 0.0
C32 C 0.84551 0.31941 0.03239 0.0
O33 O 0.85821 0.34027 0.04333 0.0
O34 O 0.87911 0.34672 0.02383 0.0
O35 O 0.99457 0.40751 0.03869 0.0
O36 O 0.03567 0.48734 0.04882 0.0
O37 O 0.9178 0.47227 0.03286 0.0
C38 C 0.02176 0.50473 0.01001 0.0
C39 C 0.00996 0.4336 0.04859 0.0
Zn40 Zn 0.51847 0.58281 0.03199 0.0
Zn41 Zn 0.63454 0.56723 0.02572 0.0
C42 C 0.53815 0.69483 0.03639 0.0
O43 O 0.52409 0.67403 0.04731 0.0
C44 C 0.59257 0.45397 0.02398 0.0
O45 O 0.62046 0.47671 0.01399 0.0
O46 O 0.43594 0.55127 0.0368 0.0
O47 O 0.51648 0.54408 0.01613 0.0
O48 O 0.6039 0.57109 0.00999 0.0
C49 C 0.40808 0.56224 0.02912 0.0
O50 O 0.43422 0.58907 0.01927 0.0
O51 O 0.5432 0.66474 0.02826 0.0
C52 C 0.73587 0.56691 0.0324 0.0
O53 O 0.71385 0.5625 0.04314 0.0
O54 O 0.71147 0.57419 0.02338 0.0
O55 O 0.64501 0.62917 0.03666 0.0
O56 O 0.56441 0.58188 0.04631 0.0
O57 O 0.5873 0.48597 0.03162 0.0
C58 C 0.55129 0.54882 0.00791 0.0
C59 C 0.6173 0.61691 0.04638 0.0
Zn60 Zn 0.98177 0.45944 0.4377 0.0
Zn61 Zn 0.13056 0.50777 0.44183 0.0
C62 C 0.88459 0.35403 0.4303 0.0
O63 O 0.90037 0.37623 0.41953 0.0
C64 C 0.14773 0.62049 0.44074 0.0
O65 O 0.13506 0.61041 0.4522 0.0
O66 O 0.94597 0.50726 0.43468 0.0
O67 O 0.01698 0.47867 0.45416 0.0
O68 O 0.10488 0.50224 0.4587 0.0
C69 C 0.91256 0.50438 0.44301 0.0
O70 O 0.90816 0.47481 0.45265 0.0
O71 O 0.91462 0.381 0.43931 0.0
C72 C 0.23677 0.52903 0.43242 0.0
O73 O 0.21418 0.53385 0.42237 0.0
O74 O 0.20821 0.51734 0.44211 0.0
O75 O 0.08449 0.4375 0.43234 0.0
O76 O 0.02677 0.45958 0.42319 0.0
O77 O 0.14279 0.58032 0.43408 0.0
C78 C 0.05592 0.49181 0.46187 0.0
C79 C 0.06007 0.43966 0.42286 0.0
Zn80 Zn 0.62255 0.53939 0.4362 0.0
Zn81 Zn 0.58903 0.66492 0.43877 0.0
C82 C 0.73319 0.55376 0.43293 0.0
O83 O 0.7199 0.55334 0.42156 0.0
C84 C 0.47641 0.62075 0.43716 0.0
O85 O 0.49253 0.65223 0.44688 0.0
O86 O 0.57516 0.45604 0.43285 0.0
O87 O 0.59047 0.56217 0.45033 0.0
O88 O 0.57424 0.63163 0.45517 0.0
C89 C 0.57167 0.42235 0.44112 0.0
O90 O 0.59531 0.4435 0.45155 0.0
O91 O 0.69864 0.55092 0.44096 0.0
C92 C 0.58821 0.76358 0.43022 0.0
O93 O 0.57504 0.73516 0.42007 0.0
O94 O 0.60262 0.74465 0.4392 0.0
O95 O 0.65151 0.65489 0.43245 0.0
O96 O 0.63142 0.58271 0.42103 0.0
O97 O 0.51351 0.61852 0.43057 0.0
C98 C 0.5729 0.58563 0.45776 0.0
C99 C 0.64557 0.63427 0.42203 0.0
Zn100 Zn 0.53784 0.09924 0.43388 0.0
Zn101 Zn 0.41808 0.9507 0.43853 0.0
C102 C 0.52501 0.19628 0.42937 0.0
O103 O 0.5344 0.18719 0.41822 0.0
C104 C 0.47341 0.8905 0.43831 0.0
O105 O 0.44183 0.87498 0.44805 0.0
O106 O 0.6217 0.13966 0.43033 0.0
O107 O 0.52292 0.05536 0.44959 0.0
O108 O 0.44785 0.97381 0.45485 0.0
C109 C 0.6528 0.17548 0.43822 0.0
O110 O 0.62877 0.18066 0.44802 0.0
O111 O 0.52158 0.16201 0.43748 0.0
C112 C 0.32041 0.8491 0.43023 0.0
O113 O 0.35236 0.85986 0.42062 0.0
O114 O 0.33902 0.8835 0.43902 0.0
O115 O 0.41978 0.0168 0.43097 0.0
O116 O 0.49286 0.0574 0.41916 0.0
O117 O 0.4704 0.92556 0.43124 0.0
C118 C 0.49582 0.01623 0.45726 0.0
C119 C 0.43989 0.026 0.42046 0.0
Zn120 Zn 0.58053 0.95652 0.93748 0.0
Zn121 Zn 0.61037 0.11557 0.9364 0.0
C122 C 0.46551 0.88845 0.93768 0.0
O123 O 0.4837 0.87119 0.94677 0.0
C124 C 0.72734 0.20697 0.93444 0.0
O125 O 0.72268 0.19119 0.92314 0.0
O126 O 0.60463 0.89785 0.93646 0.0
O127 O 0.63579 0.03223 0.93152 0.0
O128 O 0.61864 0.08619 0.9202 0.0
C129 C 0.58977 0.86428 0.92754 0.0
O130 O 0.56253 0.87162 0.91862 0.0
O131 O 0.50163 0.9257 0.93062 0.0
C132 C 0.56486 0.1829 0.94394 0.0
O133 O 0.59396 0.18396 0.95345 0.0
O134 O 0.56229 0.15254 0.93501 0.0
O135 O 0.58145 0.0565 0.94996 0.0
O136 O 0.56923 0.97184 0.95437 0.0
O137 O 0.68623 0.17886 0.94156 0.0
C138 C 0.62968 0.0465 0.9211 0.0
C139 C 0.56564 0.0151 0.95723 0.0
Zn140 Zn 0.12314 0.67561 0.94378 0.0
Zn141 Zn 0.96679 0.55226 0.9396 0.0
C142 C 0.19758 0.63783 0.94341 0.0
O143 O 0.2141 0.67526 0.95212 0.0
C144 C 0.87431 0.5688 0.93266 0.0
O145 O 0.89228 0.56598 0.92185 0.0
O146 O 0.19015 0.75495 0.94275 0.0
O147 O 0.05343 0.66392 0.93569 0.0
O148 O 0.00663 0.59016 0.92436 0.0
C149 C 0.22222 0.76735 0.93356 0.0
O150 O 0.20409 0.73335 0.92423 0.0
O151 O 0.15286 0.62597 0.93758 0.0
C152 C 0.89336 0.43856 0.94551 0.0
O153 O 0.88161 0.46438 0.95406 0.0
O154 O 0.93196 0.46826 0.93797 0.0
O155 O 0.01808 0.58084 0.95428 0.0
O156 O 0.1011 0.64953 0.96056 0.0
O157 O 0.90123 0.56626 0.94175 0.0
C158 C 0.04369 0.64181 0.92537 0.0
C159 C 0.05473 0.60424 0.96258 0.0
Zn160 Zn 0.44544 0.53636 0.93759 0.0
Zn161 Zn 0.52779 0.46956 0.9336 0.0
C162 C 0.54797 0.64049 0.93666 0.0
O163 O 0.54565 0.63029 0.94825 0.0
C164 C 0.50615 0.35986 0.94301 0.0
O165 O 0.49414 0.37668 0.9531 0.0
O166 O 0.39104 0.56513 0.93793 0.0
O167 O 0.40752 0.46544 0.92844 0.0
O168 O 0.48041 0.46825 0.91922 0.0
C169 C 0.33785 0.53528 0.93931 0.0
O170 O 0.31505 0.48071 0.94114 0.0
O171 O 0.514 0.60086 0.92977 0.0
C172 C 0.64227 0.51747 0.93887 0.0
O173 O 0.61721 0.48754 0.94851 0.0
O174 O 0.61154 0.51984 0.93055 0.0
O175 O 0.51159 0.48505 0.95074 0.0
O176 O 0.45787 0.52316 0.9542 0.0
O177 O 0.51936 0.39143 0.93378 0.0
C178 C 0.42954 0.45825 0.9191 0.0
C179 C 0.48722 0.50232 0.95798 0.0
Zn180 Zn 0.94491 0.56292 0.52728 0.0
Zn181 Zn 0.10165 0.59963 0.53236 0.0
C182 C 0.87757 0.4496 0.52747 0.0
O183 O 0.86404 0.46847 0.51789 0.0
C184 C 0.19356 0.71384 0.53658 0.0
O185 O 0.18027 0.70066 0.54795 0.0
O186 O 0.87934 0.57708 0.52585 0.0
O187 O 0.01023 0.62582 0.53558 0.0
O188 O 0.05943 0.60176 0.54699 0.0
C189 C 0.84481 0.56464 0.53457 0.0
O190 O 0.8557 0.54731 0.54472 0.0
O191 O 0.91459 0.48536 0.53462 0.0
C192 C 0.16823 0.54842 0.52763 0.0
O193 O 0.16528 0.5656 0.51677 0.0
O194 O 0.14112 0.55581 0.53608 0.0
O195 O 0.0556 0.56986 0.51708 0.0
O196 O 0.97107 0.55392 0.5112 0.0
O197 O 0.16429 0.67803 0.52856 0.0
C198 C 0.0216 0.61551 0.54595 0.0
C199 C 0.01694 0.55384 0.50915 0.0
Zn200 Zn 0.49843 0.40995 0.52299 0.0
Zn201 Zn 0.4576 0.51406 0.52909 0.0
C202 C 0.61324 0.49191 0.52287 0.0
O203 O 0.60268 0.47815 0.51148 0.0
C204 C 0.35293 0.50532 0.53628 0.0
O205 O 0.38109 0.52389 0.54639 0.0
O206 O 0.50768 0.34154 0.5214 0.0
O207 O 0.43038 0.38569 0.53324 0.0
O208 O 0.45914 0.46603 0.54286 0.0
C209 C 0.51913 0.322 0.53071 0.0
O210 O 0.52322 0.34642 0.54113 0.0
O211 O 0.57247 0.46937 0.53036 0.0
C212 C 0.48734 0.62656 0.52601 0.0
O213 O 0.45384 0.60016 0.51691 0.0
O214 O 0.49849 0.59773 0.53336 0.0
O215 O 0.48136 0.50724 0.51221 0.0
O216 O 0.49137 0.43474 0.5067 0.0
O217 O 0.37633 0.49495 0.52751 0.0
C218 C 0.43301 0.41229 0.54276 0.0
C219 C 0.49066 0.47964 0.50419 0.0
Zn220 Zn 0.65417 0.10336 0.52483 0.0
Zn221 Zn 0.53525 0.95966 0.52959 0.0
C222 C 0.59561 0.16063 0.52326 0.0
O223 O 0.62042 0.16769 0.51276 0.0
C224 C 0.54128 0.85777 0.53587 0.0
O225 O 0.53843 0.87107 0.54711 0.0
O226 O 0.72834 0.17587 0.52402 0.0
O227 O 0.66223 0.04802 0.5349 0.0
O228 O 0.57991 0.00433 0.544 0.0
C229 C 0.74689 0.20671 0.53336 0.0
O230 O 0.72102 0.18675 0.54368 0.0
O231 O 0.60085 0.12927 0.53103 0.0
C232 C 0.4193 0.8935 0.52496 0.0
O233 O 0.44159 0.8881 0.51491 0.0
O234 O 0.45222 0.92604 0.53308 0.0
O235 O 0.55132 0.99595 0.51312 0.0
O236 O 0.63013 0.07488 0.50841 0.0
O237 O 0.54405 0.8909 0.52754 0.0
C238 C 0.63349 0.03329 0.5445 0.0
C239 C 0.58298 0.03288 0.50546 0.0
Zn240 Zn 0.13959 0.29342 0.3641 0.0
Zn241 Zn 0.16209 0.43074 0.35924 0.0
C242 C 0.03119 0.19995 0.37132 0.0
O243 O 0.05506 0.21196 0.38198 0.0
C244 C 0.27656 0.49557 0.35857 0.0
O245 O 0.25702 0.50887 0.34908 0.0
O246 O 0.18123 0.25179 0.36761 0.0
O247 O 0.16317 0.32823 0.34738 0.0
O248 O 0.16383 0.40738 0.3425 0.0
C249 C 0.17637 0.21668 0.35954 0.0
O250 O 0.14925 0.21428 0.3496 0.0
O251 O 0.05855 0.23088 0.36243 0.0
C252 C 0.16764 0.52726 0.36968 0.0
O253 O 0.18099 0.50649 0.37895 0.0
O254 O 0.15452 0.49997 0.35981 0.0
O255 O 0.09704 0.37125 0.36845 0.0
O256 O 0.1434 0.33975 0.37865 0.0
O257 O 0.24128 0.45778 0.36569 0.0
C258 C 0.17006 0.36574 0.33971 0.0
C259 C 0.11161 0.3613 0.37849 0.0
Zn260 Zn 0.75545 0.86415 0.36495 0.0
Zn261 Zn 0.61785 0.75178 0.35867 0.0
C262 C 0.84409 0.84117 0.37131 0.0
O263 O 0.83374 0.85427 0.38203 0.0
C264 C 0.57246 0.82531 0.36045 0.0
O265 O 0.57919 0.82566 0.34875 0.0
O266 O 0.80299 0.94582 0.36993 0.0
O267 O 0.72378 0.8644 0.34858 0.0
O268 O 0.64885 0.78468 0.34264 0.0
C269 C 0.83813 0.97767 0.362 0.0
O270 O 0.83808 0.95588 0.35145 0.0
O271 O 0.81339 0.8395 0.36254 0.0
C272 C 0.51503 0.65369 0.3658 0.0
O273 O 0.53358 0.67687 0.3764 0.0
O274 O 0.54572 0.67716 0.35659 0.0
O275 O 0.66987 0.73845 0.36879 0.0
O276 O 0.70438 0.81847 0.37862 0.0
O277 O 0.59031 0.79947 0.36704 0.0
C278 C 0.68843 0.83457 0.34051 0.0
C279 C 0.68287 0.76518 0.37864 0.0
Zn280 Zn 0.18086 0.91119 0.3683 0.0
Zn281 Zn 0.29701 0.87587 0.36271 0.0
C282 C 0.20838 0.02816 0.37181 0.0
O283 O 0.21411 0.01916 0.38319 0.0
C284 C 0.24354 0.76216 0.36405 0.0
O285 O 0.26942 0.77571 0.35359 0.0
O286 O 0.0972 0.86899 0.37216 0.0
O287 O 0.19571 0.8824 0.35263 0.0
O288 O 0.26377 0.86618 0.3465 0.0
C289 C 0.06512 0.86415 0.36338 0.0
O290 O 0.08821 0.88209 0.35275 0.0
O291 O 0.19647 0.98905 0.36423 0.0
C292 C 0.3926 0.87084 0.37128 0.0
O293 O 0.36078 0.85359 0.38097 0.0
O294 O 0.37527 0.88586 0.36213 0.0
O295 O 0.2985 0.94275 0.36998 0.0
O296 O 0.22926 0.91742 0.38267 0.0
O297 O 0.24822 0.8012 0.37104 0.0
C298 C 0.21813 0.8667 0.34456 0.0
C299 C 0.28158 0.93639 0.38072 0.0
Zn300 Zn 0.62796 0.77699 0.77129 0.0
Zn301 Zn 0.78648 0.81565 0.77436 0.0
C302 C 0.52667 0.67006 0.76731 0.0
O303 O 0.53958 0.68357 0.75595 0.0
C304 C 0.82885 0.93401 0.77404 0.0
O305 O 0.83405 0.92546 0.78546 0.0
O306 O 0.59421 0.82679 0.76851 0.0
O307 O 0.67915 0.80262 0.78604 0.0
O308 O 0.76494 0.8199 0.79117 0.0
C309 C 0.56124 0.82605 0.7767 0.0
O310 O 0.55687 0.7986 0.78671 0.0
O311 O 0.56057 0.70191 0.77536 0.0
C312 C 0.88588 0.81793 0.7648 0.0
O313 O 0.87501 0.84107 0.75559 0.0
O314 O 0.85279 0.80239 0.77384 0.0
O315 O 0.71703 0.75161 0.7675 0.0
O316 O 0.66383 0.76971 0.756 0.0
O317 O 0.80949 0.89233 0.76679 0.0
C318 C 0.71828 0.81724 0.79383 0.0
C319 C 0.70254 0.75718 0.75706 0.0
Zn320 Zn 0.27791 0.87522 0.7734 0.0
Zn321 Zn 0.21627 0.96469 0.7758 0.0
C322 C 0.38185 0.8774 0.76772 0.0
O323 O 0.3644 0.87692 0.7567 0.0
C324 C 0.11145 0.86195 0.77384 0.0
O325 O 0.12012 0.86037 0.78541 0.0
O326 O 0.22517 0.79413 0.7688 0.0
O327 O 0.25499 0.89008 0.7895 0.0
O328 O 0.22306 0.94878 0.79284 0.0
C329 C 0.21538 0.75926 0.77729 0.0
O330 O 0.23565 0.77927 0.78801 0.0
O331 O 0.35184 0.87763 0.77647 0.0
C332 C 0.20036 0.05807 0.76804 0.0
O333 O 0.23903 0.06786 0.75987 0.0
O334 O 0.18737 0.01931 0.7758 0.0
O335 O 0.28927 0.00214 0.76687 0.0
O336 O 0.29419 0.92919 0.75963 0.0
O337 O 0.152 0.89801 0.76739 0.0
C338 C 0.23766 0.9143 0.79667 0.0
C339 C 0.30646 0.98051 0.75901 0.0
Zn340 Zn 0.17606 0.4348 0.7711 0.0
Zn341 Zn 0.0545 0.26707 0.77287 0.0
C342 C 0.16481 0.53147 0.76676 0.0
O343 O 0.17488 0.52151 0.75572 0.0
C344 C 0.08768 0.18895 0.77212 0.0
O345 O 0.0503 0.1736 0.78085 0.0
O346 O 0.26097 0.47011 0.76977 0.0
O347 O 0.14388 0.37442 0.78441 0.0
O348 O 0.08142 0.28693 0.78975 0.0
C349 C 0.29087 0.5099 0.77704 0.0
O350 O 0.26517 0.52412 0.78515 0.0
O351 O 0.16063 0.49767 0.77506 0.0
C352 C 0.95932 0.17061 0.76295 0.0
O353 O 0.99427 0.1854 0.75376 0.0
O354 O 0.97293 0.20424 0.77187 0.0
O355 O 0.07389 0.34152 0.76622 0.0
O356 O 0.14072 0.4032 0.75494 0.0
O357 O 0.10112 0.23425 0.7664 0.0
C358 C 0.12254 0.33569 0.79238 0.0
C359 C 0.09359 0.35807 0.75582 0.0
Zn360 Zn 0.20704 0.26984 0.26937 0.0
Zn361 Zn 0.27451 0.44323 0.27045 0.0
C362 C 0.09852 0.25961 0.26584 0.0
O363 O 0.12214 0.30774 0.27171 0.0
C364 C 0.38865 0.53713 0.27303 0.0
O365 O 0.4002 0.51426 0.26385 0.0
O366 O 0.23537 0.21596 0.2664 0.0
O367 O 0.25218 0.34387 0.2624 0.0
O368 O 0.30104 0.42572 0.25454 0.0
C369 C 0.27153 0.21231 0.27295 0.0
O370 O 0.29509 0.24806 0.28188 0.0
O371 O 0.12766 0.23622 0.26343 0.0
C372 C 0.20546 0.48891 0.27611 0.0
O373 O 0.22033 0.48085 0.28681 0.0
O374 O 0.21931 0.47009 0.26704 0.0
O375 O 0.24229 0.37856 0.2831 0.0
O376 O 0.20646 0.28729 0.28678 0.0
O377 O 0.3396 0.51144 0.27767 0.0
C378 C 0.28342 0.37344 0.25396 0.0
C379 C 0.22224 0.3372 0.2905 0.0
Zn380 Zn 0.77195 0.01025 0.27494 0.0
Zn381 Zn 0.61121 0.88808 0.27263 0.0
C382 C 0.85029 0.97638 0.27542 0.0
O383 O 0.86542 0.01611 0.28359 0.0
C384 C 0.51526 0.89876 0.26725 0.0
O385 O 0.52497 0.88441 0.2566 0.0
O386 O 0.83266 0.09106 0.27279 0.0
O387 O 0.69847 0.99164 0.2676 0.0
O388 O 0.6442 0.92019 0.25641 0.0
C389 C 0.86076 0.10079 0.26308 0.0
O390 O 0.84334 0.06053 0.25497 0.0
O391 O 0.80589 0.96282 0.26927 0.0
C392 C 0.53432 0.77769 0.27992 0.0
O393 O 0.52364 0.80699 0.28781 0.0
O394 O 0.5736 0.80388 0.27227 0.0
O395 O 0.66952 0.91921 0.28622 0.0
O396 O 0.75393 0.98658 0.29202 0.0
O397 O 0.54937 0.90621 0.27577 0.0
C398 C 0.68503 0.97023 0.25724 0.0
C399 C 0.70786 0.94123 0.29425 0.0
Zn400 Zn 0.1046 0.88158 0.27525 0.0
Zn401 Zn 0.16923 0.78007 0.27296 0.0
C402 C 0.2157 0.98368 0.27634 0.0
O403 O 0.22091 0.96381 0.28672 0.0
C404 C 0.16074 0.67287 0.26806 0.0
O405 O 0.15825 0.68751 0.25693 0.0
O406 O 0.04311 0.90214 0.27617 0.0
O407 O 0.08156 0.82354 0.26255 0.0
O408 O 0.1144 0.76486 0.25966 0.0
C409 C 0.99354 0.87442 0.27175 0.0
O410 O 0.97756 0.82557 0.26656 0.0
O411 O 0.17262 0.95337 0.26988 0.0
C412 C 0.28579 0.84717 0.27677 0.0
O413 O 0.26639 0.83242 0.28776 0.0
O414 O 0.25039 0.83187 0.26817 0.0
O415 O 0.15332 0.80656 0.28843 0.0
O416 O 0.11523 0.86013 0.29181 0.0
O417 O 0.16471 0.70586 0.27655 0.0
C418 C 0.08236 0.78416 0.25671 0.0
C419 C 0.13633 0.8309 0.29565 0.0
Zn420 Zn 0.61579 0.89092 0.85891 0.0
Zn421 Zn 0.7526 0.92353 0.86645 0.0
C422 C 0.56813 0.7758 0.85738 0.0
O423 O 0.55974 0.79218 0.84686 0.0
C424 C 0.84773 0.03304 0.87249 0.0
O425 O 0.83855 0.0104 0.88327 0.0
O426 O 0.54046 0.88657 0.85814 0.0
O427 O 0.66358 0.95821 0.86888 0.0
O428 O 0.70259 0.92209 0.88026 0.0
C429 C 0.51207 0.87236 0.86788 0.0
O430 O 0.5349 0.86454 0.87756 0.0
O431 O 0.59581 0.81329 0.86533 0.0
C432 C 0.83412 0.89172 0.86377 0.0
O433 O 0.83971 0.92079 0.85395 0.0
O434 O 0.79591 0.88465 0.8713 0.0
O435 O 0.72197 0.89445 0.84966 0.0
O436 O 0.64739 0.89736 0.84271 0.0
O437 O 0.81422 0.00477 0.86401 0.0
C438 C 0.6757 0.94874 0.87923 0.0
C439 C 0.68811 0.88802 0.84113 0.0
Zn440 Zn 0.1599 0.74269 0.86348 0.0
Zn441 Zn 0.12895 0.86597 0.86708 0.0
C442 C 0.27327 0.78909 0.86345 0.0
O443 O 0.2553 0.75897 0.85356 0.0
C444 C 0.01822 0.84812 0.87316 0.0
O445 O 0.03734 0.85253 0.88418 0.0
O446 O 0.14763 0.66345 0.86304 0.0
O447 O 0.09884 0.74775 0.87202 0.0
O448 O 0.13138 0.82664 0.88197 0.0
C449 C 0.16536 0.64643 0.8718 0.0
O450 O 0.18425 0.67819 0.88146 0.0
O451 O 0.23743 0.79001 0.87066 0.0
C452 C 0.17509 0.98085 0.86116 0.0
O453 O 0.15127 0.95686 0.85091 0.0
O454 O 0.17385 0.94966 0.86975 0.0
O455 O 0.15576 0.84633 0.85186 0.0
O456 O 0.16746 0.77387 0.84701 0.0
O457 O 0.04924 0.84992 0.86442 0.0
C458 C 0.11372 0.77412 0.88189 0.0
C459 C 0.1692 0.81992 0.84431 0.0
Zn460 Zn 0.30671 0.4379 0.85804 0.0
Zn461 Zn 0.18883 0.29462 0.86352 0.0
C462 C 0.24948 0.4961 0.86016 0.0
O463 O 0.27202 0.50787 0.84936 0.0
C464 C 0.21365 0.20671 0.86948 0.0
O465 O 0.21194 0.22314 0.8805 0.0
O466 O 0.3834 0.50847 0.85639 0.0
O467 O 0.31502 0.37791 0.86644 0.0
O468 O 0.23731 0.34265 0.87716 0.0
C469 C 0.40667 0.54028 0.86545 0.0
O470 O 0.38178 0.52443 0.876 0.0
O471 O 0.25801 0.46329 0.86685 0.0
C472 C 0.07075 0.22046 0.86065 0.0
O473 O 0.089 0.22028 0.84971 0.0
O474 O 0.10629 0.25259 0.86848 0.0
O475 O 0.1962 0.3307 0.84733 0.0
O476 O 0.27134 0.41198 0.84194 0.0
O477 O 0.20721 0.23292 0.86074 0.0
C478 C 0.29088 0.36649 0.87658 0.0
C479 C 0.22358 0.36912 0.83958 0.0
Zn480 Zn 0.81944 0.64084 0.69979 0.0
Zn481 Zn 0.84697 0.78314 0.69289 0.0
C482 C 0.71557 0.54241 0.70761 0.0
O483 O 0.7436 0.5514 0.71773 0.0
C484 C 0.96068 0.85193 0.69108 0.0
O485 O 0.93843 0.85774 0.68108 0.0
O486 O 0.86274 0.60081 0.70389 0.0
O487 O 0.83706 0.66907 0.68254 0.0
O488 O 0.84225 0.74958 0.67706 0.0
C489 C 0.86141 0.56668 0.69594 0.0
O490 O 0.83752 0.56447 0.68556 0.0
O491 O 0.73869 0.57693 0.69897 0.0
C492 C 0.84737 0.88377 0.69939 0.0
O493 O 0.85539 0.86836 0.71006 0.0
O494 O 0.83901 0.85139 0.69048 0.0
O495 O 0.78518 0.73298 0.70399 0.0
O496 O 0.82443 0.69152 0.71368 0.0
O497 O 0.92786 0.81571 0.69876 0.0
C498 C 0.84288 0.70473 0.6745 0.0
C499 C 0.79808 0.71894 0.71379 0.0
Zn500 Zn 0.43984 0.20625 0.6998 0.0
Zn501 Zn 0.31065 0.09666 0.69384 0.0
C502 C 0.53204 0.18609 0.70305 0.0
O503 O 0.52368 0.19601 0.71422 0.0
C504 C 0.25879 0.16172 0.6915 0.0
O505 O 0.2549 0.14048 0.6807 0.0
O506 O 0.48882 0.28705 0.7053 0.0
O507 O 0.4002 0.21007 0.68459 0.0
O508 O 0.35275 0.12153 0.67854 0.0
C509 C 0.52216 0.32122 0.69742 0.0
O510 O 0.51988 0.30259 0.68641 0.0
O511 O 0.49822 0.18456 0.69499 0.0
C512 C 0.20291 0.99597 0.69896 0.0
O513 O 0.2231 0.00191 0.70991 0.0
O514 O 0.23454 0.0282 0.69061 0.0
O515 O 0.34968 0.07557 0.70586 0.0
O516 O 0.39745 0.15923 0.71441 0.0
O517 O 0.28676 0.15259 0.69949 0.0
C518 C 0.37816 0.17384 0.67618 0.0
C519 C 0.37524 0.10581 0.71488 0.0
Zn520 Zn 0.87281 0.2648 0.69734 0.0
Zn521 Zn 0.99312 0.23617 0.69163 0.0
C522 C 0.89121 0.37429 0.70525 0.0
O523 O 0.88154 0.3513 0.71599 0.0
C524 C 0.93522 0.12102 0.69007 0.0
O525 O 0.96216 0.13841 0.67976 0.0
O526 O 0.78798 0.22169 0.70037 0.0
O527 O 0.89032 0.24647 0.68089 0.0
O528 O 0.96508 0.23932 0.67542 0.0
C529 C 0.75558 0.22043 0.69199 0.0
O530 O 0.77825 0.2431 0.68158 0.0
O531 O 0.89178 0.34585 0.69625 0.0
C532 C 0.08834 0.22644 0.69957 0.0
O533 O 0.05782 0.21047 0.70945 0.0
O534 O 0.07029 0.24202 0.69062 0.0
O535 O 0.99623 0.29619 0.70216 0.0
O536 O 0.91438 0.25684 0.71144 0.0
O537 O 0.94052 0.1578 0.69777 0.0
C538 C 0.91948 0.23899 0.67291 0.0
C539 C 0.96779 0.27852 0.71177 0.0
Zn540 Zn 0.30343 0.10623 0.10689 0.0
Zn541 Zn 0.45327 0.14768 0.11044 0.0
C542 C 0.20169 0.00649 0.09936 0.0
O543 O 0.21496 0.03445 0.08915 0.0
C544 C 0.49497 0.26302 0.11098 0.0
O545 O 0.5023 0.2509 0.12199 0.0
O546 O 0.26978 0.15599 0.10367 0.0
O547 O 0.33985 0.12581 0.12342 0.0
O548 O 0.42674 0.14244 0.12713 0.0
C549 C 0.23776 0.15756 0.11181 0.0
O550 O 0.23278 0.13097 0.12198 0.0
O551 O 0.23478 0.02813 0.10829 0.0
C552 C 0.55908 0.16799 0.10107 0.0
O553 O 0.53548 0.17138 0.09105 0.0
O554 O 0.53009 0.15458 0.11073 0.0
O555 O 0.40208 0.07853 0.10117 0.0
O556 O 0.34758 0.10534 0.09225 0.0
O557 O 0.47015 0.22312 0.10338 0.0
C558 C 0.38015 0.13711 0.1307 0.0
C559 C 0.37925 0.08355 0.09174 0.0
Zn560 Zn 0.95396 0.20121 0.10485 0.0
Zn561 Zn 0.91661 0.3245 0.10698 0.0
C562 C 0.06453 0.21542 0.10115 0.0
O563 O 0.05024 0.2152 0.08987 0.0
C564 C 0.8022 0.27745 0.10623 0.0
O565 O 0.81913 0.31075 0.11568 0.0
O566 O 0.90639 0.11724 0.10188 0.0
O567 O 0.92224 0.22556 0.11918 0.0
O568 O 0.90515 0.29519 0.12364 0.0
C569 C 0.9029 0.08424 0.11032 0.0
O570 O 0.92623 0.10628 0.12073 0.0
O571 O 0.03059 0.21236 0.10938 0.0
C572 C 0.91738 0.41918 0.09628 0.0
O573 O 0.8938 0.3817 0.08765 0.0
O574 O 0.93409 0.40551 0.10573 0.0
O575 O 0.97756 0.31158 0.1012 0.0
O576 O 0.96285 0.24333 0.08924 0.0
O577 O 0.83914 0.27526 0.09956 0.0
C578 C 0.90494 0.24992 0.12652 0.0
C579 C 0.97461 0.29402 0.09062 0.0
Zn580 Zn 0.85579 0.75346 0.10387 0.0
Zn581 Zn 0.76306 0.59845 0.10551 0.0
C582 C 0.85252 0.85542 0.09967 0.0
O583 O 0.86221 0.84536 0.08861 0.0
C584 C 0.86886 0.60032 0.10144 0.0
O585 O 0.88225 0.62565 0.11192 0.0
O586 O 0.93864 0.79153 0.09926 0.0
O587 O 0.8435 0.71126 0.11958 0.0
O588 O 0.78606 0.61967 0.12236 0.0
C589 C 0.97347 0.81996 0.10755 0.0
O590 O 0.95384 0.81728 0.11848 0.0
O591 O 0.8454 0.81993 0.10784 0.0
C592 C 0.64712 0.50177 0.10666 0.0
O593 O 0.63254 0.53935 0.10962 0.0
O594 O 0.6991 0.51754 0.10503 0.0
O595 O 0.73155 0.644 0.09855 0.0
O596 O 0.80511 0.71402 0.08954 0.0
O597 O 0.82467 0.59407 0.09615 0.0
C598 C 0.82126 0.66813 0.1264 0.0
C599 C 0.75319 0.67588 0.08954 0.0
Zn600 Zn 0.88161 0.60225 0.6049 0.0
Zn601 Zn 0.91857 0.75585 0.60179 0.0
C602 C 0.7658 0.54497 0.60453 0.0
O603 O 0.77955 0.53242 0.61492 0.0
C604 C 0.03142 0.85377 0.59752 0.0
O605 O 0.0239 0.83664 0.58628 0.0
O606 O 0.89135 0.53452 0.60446 0.0
O607 O 0.94785 0.66947 0.59811 0.0
O608 O 0.92543 0.71891 0.58651 0.0
C609 C 0.87596 0.50272 0.59524 0.0
O610 O 0.85816 0.51772 0.58571 0.0
O611 O 0.80503 0.5782 0.59742 0.0
C612 C 0.86657 0.81795 0.60796 0.0
O613 O 0.89152 0.81761 0.61803 0.0
O614 O 0.8684 0.78927 0.59913 0.0
O615 O 0.89488 0.70897 0.61729 0.0
O616 O 0.8769 0.62237 0.62161 0.0
O617 O 0.99417 0.8243 0.60533 0.0
C618 C 0.9418 0.68315 0.58765 0.0
C619 C 0.88098 0.66885 0.6248 0.0
Zn620 Zn 0.42439 0.30613 0.60706 0.0
Zn621 Zn 0.29667 0.19335 0.60324 0.0
C622 C 0.47839 0.24282 0.60955 0.0
O623 O 0.48839 0.27056 0.61974 0.0
C624 C 0.19969 0.20463 0.59792 0.0
O625 O 0.20676 0.1873 0.58736 0.0
O626 O 0.49768 0.37967 0.60696 0.0
O627 O 0.37095 0.31621 0.59685 0.0
O628 O 0.34009 0.23471 0.58806 0.0
C629 C 0.52747 0.39482 0.59741 0.0
O630 O 0.5071 0.36389 0.58767 0.0
O631 O 0.44769 0.24888 0.6017 0.0
C632 C 0.21363 0.08209 0.60781 0.0
O633 O 0.21358 0.1088 0.61764 0.0
O634 O 0.24995 0.10987 0.59968 0.0
O635 O 0.33436 0.19955 0.61956 0.0
O636 O 0.39641 0.28889 0.62357 0.0
O637 O 0.23597 0.2144 0.60612 0.0
C638 C 0.35639 0.28705 0.58737 0.0
C639 C 0.36541 0.23834 0.62699 0.0
Zn640 Zn 0.73608 0.1561 0.60743 0.0
Zn641 Zn 0.85628 0.12078 0.60338 0.0
C642 C 0.79451 0.2701 0.60512 0.0
O643 O 0.77177 0.26054 0.61588 0.0
C644 C 0.83008 0.00612 0.59892 0.0
O645 O 0.82969 0.02053 0.58766 0.0
O646 O 0.65893 0.15042 0.6092 0.0
O647 O 0.73199 0.08873 0.5995 0.0
O648 O 0.81021 0.11802 0.5891 0.0
C649 C 0.63749 0.16431 0.60059 0.0
O650 O 0.66349 0.17721 0.59013 0.0
O651 O 0.78461 0.22849 0.5984 0.0
C652 C 0.97372 0.16663 0.60798 0.0
O653 O 0.9522 0.14806 0.6187 0.0
O654 O 0.94034 0.16196 0.59949 0.0
O655 O 0.84269 0.15215 0.61855 0.0
O656 O 0.77235 0.16732 0.62349 0.0
O657 O 0.8382 0.04163 0.60716 0.0
C658 C 0.757 0.09828 0.58945 0.0
C659 C 0.81823 0.16819 0.62603 0.0
Zn660 Zn 0.27265 0.19663 0.19746 0.0
Zn661 Zn 0.42409 0.24851 0.20326 0.0
C662 C 0.25581 0.08826 0.2053 0.0
O663 O 0.2983 0.09922 0.1981 0.0
C664 C 0.51096 0.36431 0.20776 0.0
O665 O 0.49946 0.34848 0.21906 0.0
O666 O 0.20026 0.19475 0.19363 0.0
O667 O 0.32543 0.27147 0.20457 0.0
O668 O 0.3752 0.2511 0.21691 0.0
C669 C 0.16738 0.19552 0.20166 0.0
O670 O 0.18425 0.20521 0.21291 0.0
O671 O 0.24595 0.12781 0.20798 0.0
C672 C 0.50774 0.22044 0.20039 0.0
O673 O 0.51049 0.24882 0.19067 0.0
O674 O 0.47118 0.21321 0.20838 0.0
O675 O 0.38972 0.21457 0.18697 0.0
O676 O 0.30049 0.18456 0.1821 0.0
O677 O 0.48216 0.32931 0.19956 0.0
C678 C 0.34307 0.27169 0.21507 0.0
C679 C 0.34935 0.19329 0.17941 0.0
Zn680 Zn 0.8174 0.07376 0.19245 0.0
Zn681 Zn 0.80372 0.19381 0.19901 0.0
C682 C 0.93016 0.11497 0.19095 0.0
O683 O 0.90748 0.086 0.18108 0.0
C684 C 0.69791 0.18358 0.20701 0.0
O685 O 0.72474 0.19955 0.21733 0.0
O686 O 0.80678 0.9952 0.19143 0.0
O687 O 0.75814 0.06908 0.20355 0.0
O688 O 0.81 0.14947 0.21285 0.0
C689 C 0.82019 0.97738 0.20075 0.0
O690 O 0.83575 0.00902 0.21045 0.0
O691 O 0.89782 0.12046 0.19844 0.0
C692 C 0.83641 0.30732 0.19565 0.0
O693 O 0.80627 0.28305 0.18599 0.0
O694 O 0.84499 0.27701 0.20307 0.0
O695 O 0.82501 0.18504 0.18195 0.0
O696 O 0.81642 0.10312 0.17621 0.0
O697 O 0.7223 0.17512 0.19814 0.0
C698 C 0.77646 0.09654 0.21324 0.0
C699 C 0.82651 0.15276 0.17385 0.0
Zn700 Zn 0.96177 0.76784 0.19573 0.0
Zn701 Zn 0.84823 0.62238 0.19979 0.0
C702 C 0.89371 0.81508 0.19392 0.0
O703 O 0.92028 0.82557 0.18356 0.0
C704 C 0.8715 0.53103 0.20619 0.0
O705 O 0.87675 0.54965 0.21727 0.0
O706 O 0.03332 0.84359 0.19713 0.0
O707 O 0.97169 0.71073 0.20493 0.0
O708 O 0.89049 0.66611 0.21444 0.0
C709 C 0.07839 0.85406 0.20265 0.0
O710 O 0.08403 0.81232 0.20691 0.0
O711 O 0.90181 0.78544 0.20166 0.0
C712 C 0.73088 0.55256 0.19517 0.0
O713 O 0.75181 0.54835 0.18482 0.0
O714 O 0.76465 0.58614 0.20305 0.0
O715 O 0.8683 0.66022 0.18346 0.0
O716 O 0.94277 0.74317 0.17884 0.0
O717 O 0.86129 0.55639 0.19783 0.0
C718 C 0.94405 0.69274 0.21459 0.0
C719 C 0.89837 0.69802 0.17579 0.0
C720 C 0.37734 0.08325 0.06931 0.0
C721 C 0.39332 0.06786 0.08002 0.0
C722 C 0.39358 0.07259 0.05812 0.0
C723 C 0.42645 0.04604 0.05719 0.0
H724 H 0.35308 0.10483 0.06952 0.0
H725 H 0.38081 0.08614 0.05016 0.0
S726 S 0.47545 0.99305 0.08256 0.0
N727 N 0.44098 0.02143 0.08902 0.0
N728 N 0.47159 0.00157 0.06797 0.0
C729 C 0.44104 0.02856 0.06783 0.0
C730 C 0.42452 0.03947 0.07924 0.0
C731 C 0.95891 0.30658 0.06907 0.0
C732 C 0.98147 0.33067 0.08028 0.0
C733 C 0.96765 0.34049 0.05899 0.0
C734 C 0.99961 0.39995 0.0597 0.0
H735 H 0.93454 0.26112 0.06802 0.0
H736 H 0.94951 0.31955 0.05054 0.0
S737 S 0.06815 0.48384 0.08711 0.0
N738 N 0.03758 0.41747 0.09161 0.0
N739 N 0.05327 0.48137 0.07266 0.0
C740 C 0.02177 0.42467 0.07093 0.0
C741 C 0.01297 0.38999 0.08121 0.0
C742 C 0.62846 0.60486 0.06823 0.0
C743 C 0.64925 0.63698 0.05771 0.0
C744 C 0.66192 0.6189 0.07858 0.0
C745 C 0.71736 0.66576 0.07879 0.0
H746 H 0.58705 0.56721 0.06835 0.0
H747 H 0.64457 0.59157 0.08633 0.0
S748 S 0.78816 0.76802 0.05396 0.0
N749 N 0.72618 0.72096 0.0484 0.0
N750 N 0.78913 0.74738 0.06786 0.0
C751 C 0.73736 0.70005 0.0685 0.0
C752 C 0.70328 0.68566 0.05796 0.0
C753 C 0.10678 0.3953 0.41138 0.0
C754 C 0.07122 0.41905 0.41142 0.0
C755 C 0.11914 0.37626 0.40074 0.0
C756 C 0.09662 0.38034 0.38968 0.0
H757 H 0.12563 0.3915 0.41965 0.0
H758 H 0.14698 0.35865 0.4012 0.0
S759 S 1.00092 0.439 0.38481 0.0
N760 N 0.01348 0.44543 0.3994 0.0
N761 N 0.0364 0.40948 0.3794 0.0
C762 C 0.06064 0.40366 0.38957 0.0
C763 C 0.04807 0.42308 0.40043 0.0
C764 C 0.6319 0.64235 0.40018 0.0
C765 C 0.65267 0.66883 0.41132 0.0
C766 C 0.64127 0.67405 0.38973 0.0
C767 C 0.67174 0.73349 0.39 0.0
H768 H 0.60864 0.59672 0.39948 0.0
H769 H 0.62476 0.65149 0.38135 0.0
S770 S 0.73479 0.82331 0.417 0.0
N771 N 0.70514 0.75795 0.42209 0.0
N772 N 0.7219 0.81769 0.40241 0.0
C773 C 0.69191 0.76061 0.40113 0.0
C774 C 0.68261 0.72824 0.41179 0.0
C775 C 0.30407 0.94814 0.40263 0.0
C776 C 0.32305 0.95567 0.39067 0.0
C777 C 0.34239 0.96986 0.41217 0.0
C778 C 0.40132 0.99987 0.41015 0.0
H779 H 0.25921 0.92626 0.40467 0.0
H780 H 0.32537 0.96392 0.4212 0.0
S781 S 0.47328 0.02768 0.38054 0.0
N782 N 0.40511 0.99325 0.37733 0.0
N783 N 0.47694 0.03303 0.39533 0.0
C784 C 0.42105 0.00597 0.39827 0.0
C785 C 0.38199 0.98411 0.38852 0.0
C786 C 0.66845 0.9907 0.91143 0.0
C787 C 0.63642 0.01805 0.91046 0.0
C788 C 0.68011 0.96746 0.90135 0.0
C789 C 0.66034 0.9709 0.88989 0.0
H790 H 0.68599 0.98841 0.92001 0.0
H791 H 0.70575 0.94771 0.90253 0.0
S792 S 0.57026 0.03402 0.88276 0.0
N793 N 0.58209 0.04424 0.89735 0.0
N794 N 0.60397 0.00103 0.87832 0.0
C795 C 0.62672 0.99675 0.88887 0.0
C796 C 0.61485 0.0203 0.89917 0.0
C797 C 0.07855 0.68334 0.89284 0.0
C798 C 0.10353 0.74251 0.89321 0.0
C799 C 0.06172 0.65124 0.90335 0.0
C800 C 0.06894 0.67708 0.91463 0.0
H801 H 0.07013 0.66122 0.88433 0.0
H802 H 0.04127 0.6057 0.90258 0.0
S803 S 0.13673 0.83115 0.92063 0.0
N804 N 0.13901 0.82613 0.90587 0.0
N805 N 0.10561 0.76566 0.92566 0.0
C806 C 0.09617 0.73643 0.9152 0.0
C807 C 0.11394 0.7692 0.90448 0.0
C808 C 0.41216 0.41563 0.89851 0.0
C809 C 0.39442 0.43645 0.90815 0.0
C810 C 0.37836 0.39326 0.88826 0.0
C811 C 0.32555 0.39046 0.88739 0.0
H812 H 0.45205 0.41598 0.89891 0.0
H813 H 0.39324 0.37721 0.88106 0.0
S814 S 0.26246 0.44518 0.9094 0.0
N815 N 0.32245 0.45727 0.91559 0.0
N816 N 0.25884 0.414 0.89645 0.0
C817 C 0.30784 0.41224 0.89678 0.0
C818 C 0.34237 0.43562 0.90713 0.0
C819 C 0.9481 0.67342 0.56543 0.0
C820 C 0.95799 0.66105 0.57714 0.0
C821 C 0.96713 0.65672 0.55539 0.0
C822 C 0.99682 0.62707 0.55666 0.0
H823 H 0.92653 0.69718 0.564 0.0
H824 H 0.95976 0.6686 0.54657 0.0
S825 S 0.02954 0.57998 0.58531 0.0
N826 N 0.99705 0.61465 0.5894 0.0
N827 N 0.03154 0.58237 0.57048 0.0
C828 C 0.00491 0.61232 0.56828 0.0
C829 C 0.98582 0.62953 0.57852 0.0
C830 C 0.39696 0.3233 0.55467 0.0
C831 C 0.40934 0.37988 0.55398 0.0
C832 C 0.37751 0.29245 0.56537 0.0
C833 C 0.36952 0.31701 0.57574 0.0
H834 H 0.40382 0.30297 0.54699 0.0
H835 H 0.37061 0.24982 0.5656 0.0
S836 S 0.38836 0.46113 0.57821 0.0
N837 N 0.40743 0.4574 0.5643 0.0
N838 N 0.36998 0.39934 0.58434 0.0
C839 C 0.37896 0.37257 0.57499 0.0
C840 C 0.39917 0.40406 0.56414 0.0
C841 C 0.75241 0.09246 0.56714 0.0
C842 C 0.72409 0.0831 0.57819 0.0
C843 C 0.72258 0.07636 0.55634 0.0
C844 C 0.66315 0.05026 0.55614 0.0
H845 H 0.79809 0.11191 0.56677 0.0
H846 H 0.74656 0.08418 0.54809 0.0
S847 S 0.56879 0.01905 0.5826 0.0
N848 N 0.63311 0.04773 0.5883 0.0
N849 N 0.57699 0.01791 0.56791 0.0
C850 C 0.63418 0.0416 0.5671 0.0
C851 C 0.66465 0.05797 0.57815 0.0
C852 C 0.74769 0.76044 0.72479 0.0
C853 C 0.77749 0.73057 0.72517 0.0
C854 C 0.72464 0.76978 0.73517 0.0
C855 C 0.73057 0.74987 0.74639 0.0
H856 H 0.74127 0.77628 0.71636 0.0
H857 H 0.70153 0.79239 0.73436 0.0
S858 S 0.80602 0.67065 0.75246 0.0
N859 N 0.81311 0.68255 0.73784 0.0
N860 N 0.76903 0.69948 0.75739 0.0
C861 C 0.76122 0.72093 0.747 0.0
C862 C 0.78488 0.71146 0.7364 0.0
C863 C 0.35232 0.07226 0.74797 0.0
C864 C 0.33494 0.01426 0.74819 0.0
C865 C 0.36931 0.10309 0.73725 0.0
C866 C 0.36953 0.07693 0.7264 0.0
H867 H 0.35038 0.09359 0.75602 0.0
H868 H 0.37901 0.14667 0.73737 0.0
S869 S 0.33966 0.92957 0.72252 0.0
N870 N 0.32737 0.93429 0.73689 0.0
N871 N 0.35997 0.99252 0.71678 0.0
C872 C 0.35757 0.02054 0.72669 0.0
C873 C 0.34021 0.98911 0.73759 0.0
C874 C 0.05742 0.31704 0.72339 0.0
C875 C 0.9979 0.29087 0.72336 0.0
C876 C 0.08812 0.33607 0.73406 0.0
C877 C 0.06043 0.32927 0.74509 0.0
H878 H 0.08086 0.3248 0.71506 0.0
H879 H 0.13394 0.35788 0.73362 0.0
S880 S 0.90529 0.26003 0.75012 0.0
N881 N 0.91227 0.25565 0.73547 0.0
N882 N 0.97029 0.29266 0.75553 0.0
C883 C 1.00092 0.30076 0.74532 0.0
C884 C 0.96953 0.28117 0.73444 0.0
C885 C 0.32044 0.31247 0.24638 0.0
C886 C 0.29845 0.34827 0.244 0.0
C887 C 0.33535 0.28814 0.23699 0.0
C888 C 0.32798 0.29834 0.22491 0.0
H889 H 0.32716 0.30413 0.25557 0.0
H890 H 0.35231 0.26088 0.23921 0.0
S891 S 0.27001 0.38832 0.21415 0.0
N892 N 0.26929 0.3926 0.22895 0.0
N893 N 0.29617 0.34659 0.21118 0.0
C894 C 0.30544 0.33399 0.22248 0.0
C895 C 0.29109 0.35918 0.23206 0.0
C896 C 0.70998 0.97637 0.23557 0.0
C897 C 0.71285 0.00383 0.24643 0.0
C898 C 0.73157 0.00699 0.22495 0.0
C899 C 0.75732 0.06631 0.2248 0.0
H900 H 0.69013 0.93077 0.23522 0.0
H901 H 0.72739 0.98372 0.21675 0.0
S902 S 0.77387 0.15822 0.25085 0.0
N903 N 0.74153 0.09356 0.25639 0.0
N904 N 0.78426 0.15138 0.23647 0.0
C905 C 0.76127 0.09444 0.23565 0.0
C906 C 0.7384 0.06312 0.24645 0.0
C907 C 0.99444 0.68314 0.23202 0.0
C908 C 0.97425 0.7142 0.22586 0.0
C909 C 0.0295 0.70608 0.24206 0.0
C910 C 0.0453 0.76077 0.24615 0.0
H911 H 0.98401 0.64142 0.22892 0.0
H912 H 0.04438 0.68089 0.24661 0.0
S913 S 0.00423 0.85925 0.2325 0.0
N914 N 0.97222 0.80163 0.22418 0.0
N915 N 0.039 0.8458 0.24291 0.0
C916 C 0.02501 0.79207 0.23996 0.0
C917 C 0.98921 0.76848 0.22981 0.0
C918 C 0.53449 0.99211 -0.00949 0.0
C919 C 0.5071 0.02323 -0.0071 0.0
C920 C 0.55296 0.98947 0.97892 0.0
C921 C 0.54494 0.018 0.9693 0.0
H922 H 0.54308 0.97065 -0.00232 0.0
H923 H 0.5747 0.96579 0.97755 0.0
S924 S 0.46886 0.09886 0.97041 0.0
N925 N 0.46864 0.07924 -0.01554 0.0
N926 N 0.50276 0.07342 0.9626 0.0
C927 C 0.5158 0.04751 0.97144 0.0
C928 C 0.49703 0.05035 0.98326 0.0
C929 C 0.06868 0.61175 -0.01525 0.0
C930 C 0.044 0.57799 0.97456 0.0
C931 C 0.0608 0.58761 -0.00383 0.0
C932 C 0.0284 0.52871 -0.00219 0.0
H933 H 0.09413 0.65723 0.98392 0.0
H934 H 0.08035 0.61558 0.00375 0.0
S935 S 0.95784 0.42161 0.97374 0.0
N936 N 0.98803 0.48279 0.96664 0.0
N937 N 0.97268 0.4371 -0.0119 0.0
C938 C 0.00366 0.49442 -0.01237 0.0
C939 C 0.01163 0.51914 0.976 0.0
C940 C 0.56711 0.52619 -0.01298 0.0
C941 C 0.5307 0.52978 -0.00446 0.0
C942 C 0.55122 0.51363 0.97497 0.0
C943 C 0.49857 0.50474 0.97097 0.0
H944 H 0.60895 0.53458 -0.01042 0.0
H945 H 0.58166 0.51387 0.96867 0.0
S946 S 0.38468 0.50194 -0.01019 0.0
N947 N 0.43706 0.51751 -0.00073 0.0
N948 N 0.40769 0.49474 0.97655 0.0
C949 C 0.46044 0.50499 0.97946 0.0
C950 C 0.47634 0.51723 -0.00823 0.0
C951 C 0.08118 0.55838 0.49269 0.0
C952 C 0.02605 0.53524 0.49735 0.0
C953 C 0.09083 0.54206 0.4814 0.0
C954 C 0.04563 0.50192 0.47441 0.0
H955 H 0.11701 0.59057 0.49763 0.0
H956 H 0.13375 0.56267 0.47796 0.0
S957 S 0.89423 0.42291 0.48335 0.0
N958 N 0.92631 0.46652 0.49465 0.0
N959 N 0.94451 0.43511 0.4735 0.0
C960 C 0.9906 0.47653 0.47922 0.0
C961 C 0.98076 0.49346 0.49067 0.0
C962 C 0.5633 0.5181 0.47389 0.0
C963 C 0.55015 0.55844 0.4695 0.0
C964 C 0.54186 0.49103 0.4849 0.0
C965 C 0.50663 0.5035 0.49197 0.0
H966 H 0.59136 0.50809 0.46893 0.0
H967 H 0.55452 0.46145 0.48804 0.0
S968 S 0.45473 0.60168 0.48399 0.0
N969 N 0.49666 0.60694 0.47274 0.0
N970 N 0.45586 0.55548 0.49337 0.0
C971 C 0.49165 0.54242 0.48752 0.0
C972 C 0.51364 0.57016 0.47632 0.0
C973 C 0.50507 0.99279 0.49045 0.0
C974 C 0.56298 0.0277 0.49296 0.0
C975 C 0.48389 0.98932 0.47887 0.0
C976 C 0.51976 0.02075 0.46935 0.0
H977 H 0.4754 0.96878 0.49752 0.0
H978 H 0.43883 0.96239 0.47745 0.0
S979 S 0.6756 0.11486 0.47091 0.0
N980 N 0.65651 0.09214 0.48482 0.0
N981 N 0.61661 0.08504 0.46298 0.0
C982 C 0.57801 0.05485 0.47164 0.0
C983 C 0.59965 0.05849 0.48346 0.0
C984 C 0.17475 0.29913 0.31024 0.0
C985 C 0.21275 0.34583 0.30325 0.0
C986 C 0.16146 0.30599 0.32205 0.0
C987 C 0.18492 0.35987 0.32726 0.0
H988 H 0.15417 0.25686 0.30651 0.0
H989 H 0.13167 0.26892 0.32706 0.0
S990 S 0.29212 0.49501 0.31348 0.0
N991 N 0.27848 0.44715 0.30297 0.0
N992 N 0.2511 0.46024 0.32498 0.0
C993 C 0.22395 0.4068 0.32053 0.0
C994 C 0.23852 0.39972 0.30858 0.0
C995 C 0.7276 0.91881 0.32704 0.0
C996 C 0.69241 0.86013 0.32856 0.0
C997 C 0.73154 0.94474 0.31597 0.0
C998 C 0.70025 0.91313 0.30599 0.0
H999 H 0.7522 0.94528 0.33448 0.0
H1000 H 0.75932 0.98998 0.31525 0.0
S1001 S 0.60488 0.75773 0.30491 0.0
N1002 N 0.62719 0.77083 0.31895 0.0
N1003 N 0.63528 0.81967 0.2981 0.0
C1004 C 0.66528 0.8544 0.30731 0.0
C1005 C 0.6612 0.82788 0.3186 0.0
C1006 C 0.14346 0.87022 0.31627 0.0
C1007 C 0.14956 0.83251 0.30861 0.0
C1008 C 0.16441 0.87985 0.32802 0.0
C1009 C 0.1925 0.85239 0.33252 0.0
H1010 H 0.12447 0.89438 0.31305 0.0
H1011 H 0.16071 0.91086 0.33343 0.0
S1012 S 0.21236 0.74358 0.31687 0.0
N1013 N 0.18002 0.76256 0.30694 0.0
N1014 N 0.22044 0.78191 0.32897 0.0
C1015 C 0.19636 0.81246 0.32523 0.0
C1016 C 0.17444 0.80205 0.3133 0.0
C1017 C 0.67418 0.85567 0.80776 0.0
C1018 C 0.70981 0.83277 0.80603 0.0
C1019 C 0.66754 0.87355 0.81913 0.0
C1020 C 0.69625 0.86911 0.8292 0.0
H1021 H 0.65224 0.86109 0.80022 0.0
H1022 H 0.64012 0.89152 0.81997 0.0
S1023 S 0.79099 0.80757 0.82956 0.0
N1024 N 0.77213 0.80406 0.81534 0.0
N1025 N 0.75894 0.83657 0.83679 0.0
C1026 C 0.7311 0.84505 0.82762 0.0
C1027 C 0.73812 0.82722 0.81602 0.0
C1028 C 0.16838 0.87839 0.82729 0.0
C1029 C 0.18853 0.84455 0.83229 0.0
C1030 C 0.18664 0.90313 0.81598 0.0
C1031 C 0.22599 0.89517 0.80929 0.0
H1032 H 0.13722 0.88475 0.83202 0.0
H1033 H 0.16822 0.92705 0.8123 0.0
S1034 S 0.29696 0.81601 0.81911 0.0
N1035 N 0.25306 0.8078 0.83018 0.0
N1036 N 0.28855 0.85541 0.809 0.0
C1037 C 0.24833 0.8634 0.81443 0.0
C1038 C 0.22918 0.83766 0.8259 0.0
C1039 C 0.13932 0.29979 0.81157 0.0
C1040 C 0.14729 0.34596 0.80454 0.0
C1041 C 0.16453 0.30788 0.82286 0.0
C1042 C 0.19899 0.36242 0.82751 0.0
H1043 H 0.11413 0.25697 0.80826 0.0
H1044 H 0.15754 0.27106 0.82792 0.0
S1045 S 0.22832 0.49707 0.81331 0.0
N1046 N 0.18831 0.44796 0.80346 0.0
N1047 N 0.23696 0.46315 0.82464 0.0
C1048 C 0.20666 0.40897 0.8207 0.0
C1049 C 0.18044 0.40073 0.80922 0.0
C1050 C 0.88244 0.74006 0.65412 0.0
C1051 C 0.85088 0.69415 0.66186 0.0
C1052 C 0.89196 0.73149 0.64214 0.0
C1053 C 0.8701 0.67669 0.63747 0.0
H1054 H 0.90078 0.78304 0.65738 0.0
H1055 H 0.91736 0.76813 0.63658 0.0
S1056 S 0.78016 0.5423 0.65379 0.0
N1057 N 0.79467 0.59213 0.66386 0.0
N1058 N 0.81278 0.57572 0.64136 0.0
C1059 C 0.83757 0.63036 0.64507 0.0
C1060 C 0.82789 0.63916 0.65727 0.0
C1061 C 0.34368 0.16649 0.64301 0.0
C1062 C 0.36826 0.22355 0.63967 0.0
C1063 C 0.34757 0.15108 0.65479 0.0
C1064 C 0.37597 0.19205 0.66376 0.0
H1065 H 0.32169 0.1332 0.63645 0.0
H1066 H 0.32798 0.10647 0.65684 0.0
S1067 S 0.44646 0.34757 0.65979 0.0
N1068 N 0.42134 0.32148 0.64635 0.0
N1069 N 0.42836 0.29238 0.66853 0.0
C1070 C 0.4004 0.24936 0.66059 0.0
C1071 C 0.3966 0.26512 0.64855 0.0
C1072 C 0.87891 0.16812 0.64265 0.0
C1073 C 0.84425 0.18797 0.63791 0.0
C1074 C 0.90508 0.18671 0.65382 0.0
C1075 C 0.89736 0.22569 0.66061 0.0
H1076 H 0.88494 0.13703 0.63783 0.0
H1077 H 0.92997 0.16897 0.65731 0.0
S1078 S 0.81645 0.29575 0.65159 0.0
N1079 N 0.80703 0.2519 0.64045 0.0
N1080 N 0.85714 0.28754 0.66142 0.0
C1081 C 0.86449 0.24741 0.65581 0.0
C1082 C 0.83756 0.22826 0.64447 0.0
C1083 C 0.31218 0.14076 0.16013 0.0
C1084 C 0.35887 0.17784 0.16722 0.0
C1085 C 0.31951 0.12661 0.14843 0.0
C1086 C 0.37384 0.14842 0.14343 0.0
H1087 H 0.26943 0.12271 0.16359 0.0
H1088 H 0.28226 0.09863 0.14325 0.0
S1089 S 0.50999 0.24879 0.15805 0.0
N1090 N 0.46117 0.23779 0.16816 0.0
N1091 N 0.47523 0.20916 0.14642 0.0
C1092 C 0.42099 0.18474 0.15048 0.0
C1093 C 0.41343 0.19998 0.16231 0.0
C1094 C 0.89714 0.18533 0.14329 0.0
C1095 C 0.88336 0.22463 0.1385 0.0
C1096 C 0.87701 0.16073 0.15459 0.0
C1097 C 0.84262 0.17481 0.16152 0.0
H1098 H 0.92454 0.17419 0.13839 0.0
H1099 H 0.88984 0.13179 0.15807 0.0
S1100 S 0.78864 0.27002 0.15258 0.0
N1101 N 0.82921 0.27287 0.14125 0.0
N1102 N 0.7917 0.2266 0.16247 0.0
C1103 C 0.82707 0.2126 0.15672 0.0
C1104 C 0.84739 0.23757 0.14522 0.0
C1105 C 0.87217 0.72859 0.14407 0.0
C1106 C 0.83997 0.67429 0.13906 0.0
C1107 C 0.89214 0.73596 0.15588 0.0
C1108 C 0.88034 0.6893 0.16314 0.0
H1109 H 0.88183 0.76587 0.13887 0.0
H1110 H 0.91596 0.77849 0.15942 0.0
S1111 S 0.80176 0.53848 0.15414 0.0
N1112 N 0.79976 0.57306 0.14216 0.0
N1113 N 0.83739 0.58724 0.16438 0.0
C1114 C 0.84906 0.63484 0.15823 0.0
C1115 C 0.82879 0.62724 0.14619 0.0
C1116 C 0.52719 0.8276 0.04002 0.0
C1117 C 0.52088 0.84111 0.02812 0.0
C1118 C 0.53548 0.78187 0.04255 0.0
C1119 C 0.53833 0.748 0.03331 0.0
H1120 H 0.5232 0.85089 0.04749 0.0
H1121 H 0.53782 0.77196 0.05189 0.0
S1122 S 0.53101 0.76974 0.00052 0.0
N1123 N 0.52305 0.8199 0.00692 0.0
N1124 N 0.5388 0.73438 0.01167 0.0
C1125 C 0.53544 0.76315 0.02133 0.0
C1126 C 0.52661 0.80949 0.01875 0.0
C1127 C 0.23565 0.74554 0.02399 0.0
C1128 C 0.20563 0.71133 0.03386 0.0
C1129 C 0.28296 0.79925 0.02559 0.0
C1130 C 0.30271 0.82114 0.03715 0.0
H1131 H 0.2237 0.73009 0.01487 0.0
H1132 H 0.30553 0.82267 0.01765 0.0
S1133 S 0.23517 0.7516 0.06603 0.0
N1134 N 0.19594 0.70543 0.05564 0.0
N1135 N 0.28504 0.80646 0.05869 0.0
C1136 C 0.27114 0.78883 0.04712 0.0
C1137 C 0.22257 0.734 0.04547 0.0
C1138 C 0.2657 0.51139 0.04471 0.0
C1139 C 0.23651 0.52746 0.03664 0.0
C1140 C 0.32053 0.52144 0.04213 0.0
C1141 C 0.34865 0.54863 0.03142 0.0
H1142 H 0.24622 0.49132 0.05316 0.0
H1143 H 0.34134 0.50865 0.04867 0.0
S1144 S 0.2913 0.60115 0.00747 0.0
N1145 N 0.24022 0.57271 0.01757 0.0
N1146 N 0.34273 0.59201 0.01274 0.0
C1147 C 0.31961 0.5646 0.02324 0.0
C1148 C 0.26375 0.55392 0.02583 0.0
C1149 C 0.86541 0.54191 0.42957 0.0
C1150 C 0.87262 0.52567 0.44113 0.0
C1151 C 0.82178 0.55349 0.42714 0.0
C1152 C 0.78377 0.5496 0.4362 0.0
H1153 H 0.89201 0.54328 0.42217 0.0
H1154 H 0.81673 0.56368 0.41798 0.0
S1155 S 0.78909 0.51605 0.46839 0.0
N1156 N 0.84161 0.51179 0.46203 0.0
N1157 N 0.75971 0.53352 0.45749 0.0
C1158 C 0.79277 0.53694 0.44799 0.0
C1159 C 0.83713 0.52497 0.45044 0.0
C1160 C 0.5339 0.28894 0.4236 0.0
C1161 C 0.52744 0.25022 0.43267 0.0
C1162 C 0.5449 0.34353 0.42642 0.0
C1163 C 0.55028 0.3618 0.43844 0.0
H1164 H 0.53259 0.27788 0.4142 0.0
H1165 H 0.55194 0.3724 0.41909 0.0
S1166 S 0.52908 0.27447 0.46561 0.0
N1167 N 0.52116 0.23226 0.45424 0.0
N1168 N 0.54212 0.33484 0.4595 0.0
C1169 C 0.54031 0.32243 0.44761 0.0
C1170 C 0.52878 0.26668 0.44474 0.0
C1171 C 0.80402 0.29108 0.44378 0.0
C1172 C 0.82824 0.30311 0.4322 0.0
C1173 C 0.74803 0.2482 0.44566 0.0
C1174 C 0.71393 0.21511 0.43607 0.0
H1175 H 0.82761 0.31646 0.45143 0.0
H1176 H 0.73095 0.24206 0.45469 0.0
S1177 S 0.75913 0.22494 0.40421 0.0
N1178 N 0.81529 0.27514 0.41114 0.0
N1179 N 0.71006 0.19424 0.41469 0.0
C1180 C 0.73856 0.22442 0.42455 0.0
C1181 C 0.79564 0.2685 0.42262 0.0
C1182 C 0.52047 0.28789 0.95384 0.0
C1183 C 0.51292 0.30919 0.94291 0.0
C1184 C 0.53487 0.24533 0.95405 0.0
C1185 C 0.5415 0.22163 0.94335 0.0
H1186 H 0.51779 0.3059 0.96233 0.0
H1187 H 0.54244 0.23209 0.96269 0.0
S1188 S 0.5199 0.2578 0.91237 0.0
N1189 N 0.50857 0.30011 0.92111 0.0
N1190 N 0.5349 0.21949 0.92151 0.0
C1191 C 0.53072 0.24006 0.93236 0.0
C1192 C 0.5167 0.28403 0.93214 0.0
C1193 C 0.85764 0.35241 0.93261 0.0
C1194 C 0.85694 0.37689 0.94371 0.0
C1195 C 0.81747 0.2963 0.92995 0.0
C1196 C 0.77519 0.26233 0.93829 0.0
H1197 H 0.88768 0.37748 0.92568 0.0
H1198 H 0.81824 0.28035 0.92106 0.0
S1199 S 0.76084 0.30359 0.96942 0.0
N1200 N 0.81467 0.3609 0.96365 0.0
N1201 N 0.73953 0.25543 0.95871 0.0
C1202 C 0.77674 0.28502 0.94978 0.0
C1203 C 0.81748 0.34229 0.95246 0.0
C1204 C 0.73599 0.53878 0.94707 0.0
C1205 C 0.70405 0.54037 0.93729 0.0
C1206 C 0.79204 0.55115 0.94561 0.0
C1207 C 0.81858 0.56541 0.93428 0.0
H1208 H 0.71699 0.52579 0.9559 0.0
H1209 H 0.8137 0.54687 0.95335 0.0
S1210 S 0.75648 0.58368 0.90609 0.0
N1211 N 0.7052 0.56337 0.91612 0.0
N1212 N 0.8107 0.58663 0.91334 0.0
C1213 C 0.78849 0.57089 0.92457 0.0
C1214 C 0.73125 0.55846 0.92608 0.0
C1215 C 0.28272 0.51019 0.52263 0.0
C1216 C 0.29988 0.50688 0.53439 0.0
C1217 C 0.23828 0.52095 0.52057 0.0
C1218 C 0.20887 0.52846 0.53016 0.0
H1219 H 0.30549 0.50721 0.51492 0.0
H1220 H 0.22837 0.52539 0.51134 0.0
S1221 S 0.23201 0.51564 0.56266 0.0
N1222 N 0.28023 0.50602 0.55576 0.0
N1223 N 0.19645 0.52592 0.5519 0.0
C1224 C 0.22312 0.52147 0.54197 0.0
C1225 C 0.2687 0.51083 0.54407 0.0
C1226 C 0.52727 0.71247 0.53935 0.0
C1227 C 0.50688 0.68741 0.52803 0.0
C1228 C 0.53991 0.76815 0.54173 0.0
C1229 C 0.53335 0.80119 0.53284 0.0
H1230 H 0.53171 0.68834 0.54656 0.0
H1231 H 0.55396 0.78504 0.55067 0.0
S1232 S 0.4845 0.75651 0.50146 0.0
N1233 N 0.48331 0.7011 0.50766 0.0
N1234 N 0.5071 0.8051 0.51209 0.0
C1235 C 0.51504 0.77728 0.52135 0.0
C1236 C 0.50178 0.72061 0.51896 0.0
C1237 C 0.33925 0.84361 0.53952 0.0
C1238 C 0.35853 0.85474 0.52755 0.0
C1239 C 0.28463 0.79986 0.54232 0.0
C1240 C 0.24709 0.76566 0.53326 0.0
H1241 H 0.36743 0.86683 0.54686 0.0
H1242 H 0.27284 0.79131 0.55172 0.0
S1243 S 0.27378 0.78415 0.50033 0.0
N1244 N 0.33344 0.83287 0.50646 0.0
N1245 N 0.23084 0.75092 0.51168 0.0
C1246 C 0.26441 0.77926 0.52118 0.0
C1247 C 0.32011 0.82369 0.51834 0.0
C1248 C 0.21502 0.12079 0.37673 0.0
C1249 C 0.20817 0.08023 0.36807 0.0
C1250 C 0.20754 0.1665 0.37376 0.0
C1251 C 0.19277 0.17341 0.36201 0.0
H1252 H 0.22425 0.11625 0.386 0.0
H1253 H 0.2111 0.19525 0.38087 0.0
S1254 S 0.17706 0.08321 0.33562 0.0
N1255 N 0.1912 0.05322 0.34693 0.0
N1256 N 0.17712 0.13891 0.34139 0.0
C1257 C 0.18913 0.13509 0.3531 0.0
C1258 C 0.19685 0.08861 0.35611 0.0
C1259 C 0.96162 0.12575 0.35747 0.0
C1260 C 0.97728 0.14638 0.36926 0.0
C1261 C 0.9153 0.07206 0.35525 0.0
C1262 C 0.88224 0.03673 0.36471 0.0
H1263 H 0.98658 0.15027 0.34985 0.0
H1264 H 0.90632 0.05768 0.34601 0.0
S1265 S 0.90131 0.07305 0.3972 0.0
N1266 N 0.95309 0.12898 0.39051 0.0
N1267 N 0.86576 0.02804 0.38632 0.0
C1268 C 0.89543 0.05792 0.37653 0.0
C1269 C 0.94301 0.11267 0.3788 0.0
C1270 C 0.93242 0.84481 0.37892 0.0
C1271 C 0.89603 0.8373 0.36923 0.0
C1272 C 0.98577 0.85003 0.37704 0.0
C1273 C 0.00505 0.84821 0.36539 0.0
H1274 H 0.92071 0.84898 0.38802 0.0
H1275 H 0.01311 0.85836 0.38475 0.0
S1276 S 0.92305 0.8209 0.33711 0.0
N1277 N 0.88087 0.822 0.34765 0.0
N1278 N 0.98096 0.83193 0.34415 0.0
C1279 C 0.96766 0.83694 0.35571 0.0
C1280 C 0.91323 0.83143 0.35761 0.0
C1281 C 0.44216 0.85773 0.78158 0.0
C1282 C 0.43242 0.87166 0.76998 0.0
C1283 C 0.48568 0.84573 0.78374 0.0
C1284 C 0.52155 0.84741 0.77442 0.0
H1285 H 0.4147 0.85398 0.789 0.0
H1286 H 0.48996 0.83328 0.79275 0.0
S1287 S 0.51828 0.88829 0.7427 0.0
N1288 N 0.46549 0.89138 0.74925 0.0
N1289 N 0.54739 0.86896 0.75332 0.0
C1290 C 0.51438 0.86443 0.76291 0.0
C1291 C 0.46977 0.87642 0.76069 0.0
C1292 C 0.1876 0.67927 0.76288 0.0
C1293 C 0.19173 0.69823 0.7748 0.0
C1294 C 0.17576 0.62416 0.76037 0.0
C1295 C 0.1674 0.58576 0.76966 0.0
H1296 H 0.19644 0.70795 0.75542 0.0
H1297 H 0.17558 0.61251 0.75105 0.0
S1298 S 0.1649 0.61182 0.80241 0.0
N1299 N 0.17981 0.67215 0.79599 0.0
N1300 N 0.15772 0.56877 0.79127 0.0
C1301 C 0.16722 0.60287 0.78161 0.0
C1302 C 0.17935 0.65904 0.78417 0.0
C1303 C 0.43489 0.58432 0.76194 0.0
C1304 C 0.46936 0.62396 0.77065 0.0
C1305 C 0.37786 0.54532 0.76429 0.0
C1306 C 0.35294 0.54498 0.77541 0.0
H1307 H 0.45155 0.58447 0.75307 0.0
H1308 H 0.35258 0.51706 0.75714 0.0
S1309 S 0.42605 0.63613 0.80174 0.0
N1310 N 0.47534 0.65729 0.79123 0.0
N1311 N 0.36828 0.58443 0.7956 0.0
C1312 C 0.38763 0.58239 0.78443 0.0
C1313 C 0.44581 0.62173 0.78207 0.0
C1314 C 0.17619 0.54384 0.26284 0.0
C1315 C 0.18474 0.5295 0.2745 0.0
C1316 C 0.16616 0.58879 0.26091 0.0
C1317 C 0.16438 0.62137 0.27055 0.0
H1318 H 0.17943 0.52166 0.25507 0.0
H1319 H 0.16178 0.59918 0.25172 0.0
S1320 S 0.17741 0.59711 0.30297 0.0
N1321 N 0.1855 0.54836 0.29594 0.0
N1322 N 0.16695 0.63283 0.2923 0.0
C1323 C 0.16957 0.60545 0.28231 0.0
C1324 C 0.17961 0.55952 0.28429 0.0
C1325 C 0.48176 0.62581 0.27088 0.0
C1326 C 0.42819 0.59658 0.27638 0.0
C1327 C 0.51659 0.68411 0.27239 0.0
C1328 C 0.4993 0.71544 0.2795 0.0
H1329 H 0.49628 0.60393 0.26501 0.0
H1330 H 0.55684 0.70492 0.26771 0.0
S1331 S 0.3643 0.65862 0.29652 0.0
N1332 N 0.36073 0.60309 0.28979 0.0
N1333 N 0.42619 0.71251 0.29262 0.0
C1334 C 0.44696 0.68641 0.28552 0.0
C1335 C 0.41143 0.62702 0.28398 0.0
C1336 C 0.36594 0.87127 0.26254 0.0
C1337 C 0.3471 0.87119 0.27433 0.0
C1338 C 0.42153 0.88355 0.26027 0.0
C1339 C 0.46056 0.89639 0.26969 0.0
H1340 H 0.33685 0.85892 0.25503 0.0
H1341 H 0.43307 0.88043 0.25109 0.0
S1342 S 0.43504 0.9109 0.30199 0.0
N1343 N 0.37393 0.89194 0.29539 0.0
N1344 N 0.47825 0.91489 0.29113 0.0
C1345 C 0.44355 0.90077 0.28142 0.0
C1346 C 0.38687 0.88819 0.28373 0.0
C1347 C 0.9558 0.86392 0.85918 0.0
C1348 C 0.9659 0.85065 0.87081 0.0
C1349 C 0.91162 0.87481 0.85696 0.0
C1350 C 0.87531 0.87251 0.86624 0.0
H1351 H 0.98362 0.86833 0.85178 0.0
H1352 H 0.90702 0.88671 0.84792 0.0
S1353 S 0.87885 0.83239 0.89798 0.0
N1354 N 0.93249 0.8305 0.89152 0.0
N1355 N 0.84916 0.85079 0.88731 0.0
C1356 C 0.88263 0.85588 0.87776 0.0
C1357 C 0.92801 0.84507 0.88006 0.0
C1358 C 0.19875 0.12792 0.85577 0.0
C1359 C 0.21339 0.15302 0.86724 0.0
C1360 C 0.18942 0.07335 0.85378 0.0
C1361 C 0.19449 0.04156 0.86314 0.0
H1362 H 0.19187 0.14946 0.84835 0.0
H1363 H 0.17591 0.05526 0.8449 0.0
S1364 S 0.24093 0.09136 0.89438 0.0
N1365 N 0.23912 0.14449 0.88776 0.0
N1366 N 0.2217 0.04186 0.88401 0.0
C1367 C 0.21307 0.06763 0.87445 0.0
C1368 C 0.22244 0.12331 0.8765 0.0
C1369 C 0.91927 0.10012 0.85776 0.0
C1370 C 0.90134 0.08615 0.86978 0.0
C1371 C 0.97313 0.14514 0.85494 0.0
C1372 C 0.0114 0.1785 0.86398 0.0
H1373 H 0.8925 0.07467 0.85044 0.0
H1374 H 0.98538 0.15262 0.84555 0.0
S1375 S 0.98252 0.16421 0.89684 0.0
N1376 N 0.92428 0.11273 0.89078 0.0
N1377 N 0.0254 0.19747 0.88547 0.0
C1378 C 0.99279 0.16719 0.87602 0.0
C1379 C 0.93789 0.12101 0.87891 0.0
C1380 C 0.88993 0.44578 0.69145 0.0
C1381 C 0.89261 0.42879 0.70327 0.0
C1382 C 0.88279 0.49224 0.68922 0.0
C1383 C 0.87847 0.52411 0.69869 0.0
H1384 H 0.89091 0.42166 0.68381 0.0
H1385 H 0.87874 0.50202 0.67996 0.0
S1386 S 0.89004 0.50188 0.73126 0.0
N1387 N 0.89569 0.45091 0.72457 0.0
N1388 N 0.88246 0.5385 0.72035 0.0
C1389 C 0.88472 0.50996 0.71054 0.0
C1390 C 0.89169 0.46224 0.71283 0.0
C1391 C 0.59532 0.41871 0.69132 0.0
C1392 C 0.56658 0.37956 0.70058 0.0
C1393 C 0.64169 0.47212 0.69377 0.0
C1394 C 0.66179 0.4886 0.70558 0.0
H1395 H 0.58275 0.40764 0.68203 0.0
H1396 H 0.66317 0.49981 0.68624 0.0
S1397 S 0.59867 0.40362 0.73321 0.0
N1398 N 0.55927 0.3624 0.72216 0.0
N1399 N 0.64673 0.46272 0.72676 0.0
C1400 C 0.632 0.45081 0.715 0.0
C1401 C 0.58433 0.39639 0.71251 0.0
C1402 C 0.62187 0.18856 0.70901 0.0
C1403 C 0.58487 0.18558 0.69983 0.0
C1404 C 0.67579 0.19664 0.70638 0.0
C1405 C 0.6952 0.2024 0.69444 0.0
H1406 H 0.61004 0.18669 0.71838 0.0
H1407 H 0.70334 0.20098 0.71381 0.0
S1408 S 0.61227 0.1902 0.66699 0.0
N1409 N 0.5696 0.18337 0.67822 0.0
N1410 N 0.67081 0.19865 0.67328 0.0
C1411 C 0.65739 0.19601 0.68514 0.0
C1412 C 0.60231 0.18754 0.68782 0.0
C1413 C 0.16047 0.17621 0.11815 0.0
C1414 C 0.20004 0.18119 0.10937 0.0
C1415 C 0.11869 0.19029 0.11561 0.0
C1416 C 0.11455 0.20981 0.10416 0.0
H1417 H 0.16019 0.1592 0.12696 0.0
H1418 H 0.08786 0.1833 0.12254 0.0
S1419 S 0.21297 0.23875 0.07854 0.0
N1420 N 0.23622 0.21318 0.08914 0.0
N1421 N 0.15762 0.23956 0.08437 0.0
C1422 C 0.15604 0.21852 0.09553 0.0
C1423 C 0.19879 0.20429 0.09813 0.0
C1424 C 0.87626 0.004 0.09599 0.0
C1425 C 0.88153 0.02337 0.10791 0.0
C1426 C 0.86453 0.9489 0.09345 0.0
C1427 C 0.85715 0.91065 0.10271 0.0
H1428 H 0.8837 0.03229 0.08852 0.0
H1429 H 0.86302 0.9369 0.08411 0.0
S1430 S 0.85936 0.93819 0.1355 0.0
N1431 N 0.87315 0.99822 0.1291 0.0
N1432 N 0.85087 0.89474 0.12434 0.0
C1433 C 0.85891 0.92841 0.11468 0.0
C1434 C 0.87118 0.98469 0.11727 0.0
C1435 C 0.127 0.9319 0.11247 0.0
C1436 C 0.14587 0.95415 0.10088 0.0
C1437 C 0.07205 0.88686 0.11442 0.0
C1438 C 0.03362 0.86171 0.10486 0.0
H1439 H 0.1541 0.95067 0.12022 0.0
H1440 H 0.05917 0.87272 0.12358 0.0
S1441 S 0.06349 0.90037 0.0726 0.0
N1442 N 0.12278 0.9447 0.07955 0.0
N1443 N 0.01965 0.85998 0.08323 0.0
C1444 C 0.05277 0.8815 0.09314 0.0
C1445 C 0.10877 0.92772 0.09115 0.0
C1446 C 0.83529 0.87099 0.59461 0.0
C1447 C 0.84708 0.85944 0.60624 0.0
C1448 C 0.82687 0.91679 0.59243 0.0
C1449 C 0.82976 0.95286 0.6018 0.0
H1450 H 0.83524 0.8462 0.58699 0.0
H1451 H 0.82039 0.92523 0.58322 0.0
S1452 S 0.85075 0.93577 0.63422 0.0
N1453 N 0.85469 0.88396 0.62749 0.0
N1454 N 0.8389 0.96991 0.62341 0.0
C1455 C 0.83744 0.93934 0.61361 0.0
C1456 C 0.84608 0.8927 0.61583 0.0
C1457 C 0.17033 0.99293 0.59556 0.0
C1458 C 0.16891 0.02238 0.60583 0.0
C1459 C 0.12643 0.93793 0.59308 0.0
C1460 C 0.07948 0.91005 0.60082 0.0
H1461 H 0.20518 0.01277 0.58924 0.0
H1462 H 0.12907 0.91739 0.58496 0.0
S1463 S 0.05475 0.96848 0.62891 0.0
N1464 N 0.11614 0.01911 0.62383 0.0
N1465 N 0.03417 0.91619 0.6192 0.0
C1466 C 0.07797 0.9386 0.61124 0.0
C1467 C 0.1225 0.99459 0.61374 0.0
C1468 C 0.10723 0.19469 0.5913 0.0
C1469 C 0.14576 0.20384 0.60064 0.0
C1470 C 0.05272 0.18565 0.59369 0.0
C1471 C 0.0342 0.18491 0.60555 0.0
H1472 H 0.1185 0.19264 0.58204 0.0
H1473 H 0.02413 0.17672 0.58619 0.0
S1474 S 0.12051 0.21289 0.63322 0.0
N1475 N 0.16288 0.21639 0.62221 0.0
N1476 N 0.06063 0.19924 0.6267 0.0
C1477 C 0.07327 0.19702 0.61494 0.0
C1478 C 0.12894 0.20658 0.6125 0.0
C1479 C 0.56975 0.2 0.21367 0.0
C1480 C 0.54999 0.20204 0.20213 0.0
C1481 C 0.61619 0.19154 0.21521 0.0
C1482 C 0.64409 0.18415 0.20526 0.0
H1483 H 0.55111 0.20778 0.22154 0.0
H1484 H 0.6314 0.19264 0.22426 0.0
S1485 S 0.60361 0.1789 0.17318 0.0
N1486 N 0.55822 0.19082 0.18065 0.0
N1487 N 0.64481 0.17458 0.18348 0.0
C1488 C 0.62228 0.18265 0.19371 0.0
C1489 C 0.57546 0.19174 0.19216 0.0
C1490 C 0.85322 0.45273 0.192 0.0
C1491 C 0.87018 0.47705 0.2035 0.0
C1492 C 0.84491 0.39895 0.18947 0.0
C1493 C 0.85339 0.36701 0.1983 0.0
H1494 H 0.84429 0.47448 0.18495 0.0
H1495 H 0.83009 0.38174 0.18058 0.0
S1496 S 0.90449 0.41385 0.22943 0.0
N1497 N 0.9001 0.46695 0.22352 0.0
N1498 N 0.88448 0.36566 0.21874 0.0
C1499 C 0.87343 0.39194 0.20964 0.0
C1500 C 0.88175 0.44691 0.21225 0.0
C1501 C 0.58276 0.42685 0.19258 0.0
C1502 C 0.56266 0.41807 0.20451 0.0
C1503 C 0.63586 0.47241 0.18955 0.0
C1504 C 0.67113 0.51135 0.19828 0.0
H1505 H 0.55855 0.39685 0.18558 0.0
H1506 H 0.65021 0.47562 0.18034 0.0
S1507 S 0.63462 0.5126 0.23046 0.0
N1508 N 0.57944 0.45596 0.22485 0.0
N1509 N 0.67923 0.54175 0.21915 0.0
C1510 C 0.64985 0.50552 0.21008 0.0
C1511 C 0.59569 0.45885 0.21319 0.0
C1512 C 0.52348 0.36086 0.03356 0.0
C1513 C 0.57091 0.39296 0.02618 0.0
C1514 C 0.50129 0.30229 0.03499 0.0
C1515 C 0.52559 0.27391 0.02904 0.0
H1516 H 0.50277 0.38085 0.03807 0.0
H1517 H 0.46438 0.27895 0.04066 0.0
S1518 S 0.65565 0.34027 0.01026 0.0
N1519 N 0.64508 0.39284 0.01394 0.0
N1520 N 0.60318 0.28352 0.01653 0.0
C1521 C 0.57421 0.30599 0.022 0.0
C1522 C 0.59691 0.36531 0.02061 0.0
C1523 C 0.74836 0.24592 0.03909 0.0
C1524 C 0.78942 0.269 0.0299 0.0
C1525 C 0.69241 0.204 0.03663 0.0
C1526 C 0.67543 0.18363 0.02487 0.0
H1527 H 0.75872 0.26215 0.04817 0.0
H1528 H 0.66167 0.18999 0.04386 0.0
S1529 S 0.76855 0.22245 -0.00201 0.0
N1530 N 0.81058 0.26267 0.00885 0.0
N1531 N 0.70567 0.18411 0.00425 0.0
C1532 C 0.71699 0.20311 0.01578 0.0
C1533 C 0.7739 0.24571 0.01829 0.0
C1534 C 0.82294 0.51089 0.0174 0.0
C1535 C 0.85432 0.5062 0.02695 0.0
C1536 C 0.78714 0.53329 0.01914 0.0
C1537 C 0.78072 0.5518 0.03053 0.0
H1538 H 0.82475 0.49578 0.00849 0.0
H1539 H 0.76254 0.53384 0.01155 0.0
S1540 S 0.85779 0.55477 0.05828 0.0
N1541 N 0.88001 0.52635 0.04805 0.0
N1542 N 0.81234 0.56835 0.05135 0.0
C1543 C 0.81371 0.54985 0.04007 0.0
C1544 C 0.85058 0.52716 0.03828 0.0
C1545 C 0.39264 0.59715 0.42432 0.0
C1546 C 0.41562 0.58717 0.43468 0.0
C1547 C 0.33399 0.57551 0.42334 0.0
C1548 C 0.29688 0.54362 0.43273 0.0
H1549 H 0.42031 0.62466 0.41731 0.0
H1550 H 0.31814 0.58648 0.41547 0.0
S1551 S 0.33693 0.49961 0.46092 0.0
N1552 N 0.39749 0.53904 0.45386 0.0
N1553 N 0.2875 0.49799 0.45208 0.0
C1554 C 0.31952 0.5304 0.44276 0.0
C1555 C 0.37893 0.5524 0.44372 0.0
C1556 C 0.55119 0.81031 0.44374 0.0
C1557 C 0.56972 0.80559 0.43222 0.0
C1558 C 0.52205 0.8397 0.44557 0.0
C1559 C 0.51069 0.86632 0.43601 0.0
H1560 H 0.55618 0.78838 0.45134 0.0
H1561 H 0.50684 0.84001 0.45457 0.0
S1562 S 0.55943 0.87544 0.4045 0.0
N1563 N 0.58088 0.83574 0.41133 0.0
N1564 N 0.52672 0.89219 0.41485 0.0
C1565 C 0.53282 0.8658 0.4246 0.0
C1566 C 0.56209 0.83507 0.42269 0.0
C1567 C 0.25893 0.74844 0.42392 0.0
C1568 C 0.26835 0.79325 0.43163 0.0
C1569 C 0.21641 0.69284 0.42636 0.0
C1570 C 0.18159 0.67993 0.43659 0.0
H1571 H 0.28676 0.75568 0.41635 0.0
H1572 H 0.21343 0.65942 0.42062 0.0
S1573 S 0.1809 0.78361 0.45813 0.0
N1574 N 0.23351 0.82215 0.44883 0.0
N1575 N 0.1535 0.71785 0.45338 0.0
C1576 C 0.18704 0.72507 0.44371 0.0
C1577 C 0.23046 0.78166 0.44124 0.0
C1578 C 0.55193 0.71255 0.92222 0.0
C1579 C 0.57314 0.69998 0.93259 0.0
C1580 C 0.56136 0.76719 0.92014 0.0
C1581 C 0.59243 0.81136 0.92833 0.0
H1582 H 0.52407 0.67925 0.91613 0.0
H1583 H 0.54078 0.77369 0.91247 0.0
S1584 S 0.66901 0.80352 0.95519 0.0
N1585 N 0.63541 0.73838 0.9499 0.0
N1586 N 0.65324 0.84104 0.94598 0.0
C1587 C 0.61926 0.80075 0.93797 0.0
C1588 C 0.60963 0.74508 0.94009 0.0
C1589 C 0.31842 0.82371 0.92422 0.0
C1590 C 0.28363 0.80891 0.93454 0.0
C1591 C 0.37778 0.85275 0.92516 0.0
C1592 C 0.40415 0.86684 0.93645 0.0
H1593 H 0.29969 0.81064 0.91538 0.0
H1594 H 0.403 0.8614 0.91707 0.0
S1595 S 0.33358 0.8456 0.96609 0.0
N1596 N 0.28106 0.81711 0.95633 0.0
N1597 N 0.39207 0.87025 0.95803 0.0
C1598 C 0.37024 0.85579 0.94675 0.0
C1599 C 0.31008 0.82728 0.94581 0.0
C1600 C 0.20833 0.55355 0.93968 0.0
C1601 C 0.2325 0.61236 0.9405 0.0
C1602 C 0.24274 0.52883 0.93906 0.0
C1603 C 0.30229 0.56227 0.93908 0.0
H1604 H 0.16279 0.52648 0.94013 0.0
H1605 H 0.22249 0.4832 0.93882 0.0
S1606 S 0.38516 0.71928 0.93944 0.0
N1607 N 0.31844 0.70374 0.94023 0.0
N1608 N 0.38333 0.65802 0.93881 0.0
C1609 C 0.32657 0.62149 0.93916 0.0
C1610 C 0.29156 0.64635 0.93995 0.0
C1611 C 0.68785 0.51171 0.53825 0.0
C1612 C 0.67291 0.52289 0.52691 0.0
C1613 C 0.74446 0.52913 0.54101 0.0
C1614 C 0.78808 0.55833 0.53254 0.0
H1615 H 0.65534 0.48592 0.54471 0.0
H1616 H 0.75348 0.51645 0.54957 0.0
S1617 S 0.77201 0.60852 0.50257 0.0
N1618 N 0.7069 0.57273 0.50791 0.0
N1619 N 0.81309 0.60554 0.51309 0.0
C1620 C 0.77414 0.57455 0.52164 0.0
C1621 C 0.71658 0.55677 0.51883 0.0
C1622 C 0.54686 0.21191 0.51646 0.0
C1623 C 0.56803 0.19424 0.52602 0.0
C1624 C 0.52909 0.25141 0.51819 0.0
C1625 C 0.53217 0.27542 0.52956 0.0
H1626 H 0.54553 0.1963 0.50743 0.0
H1627 H 0.51454 0.26448 0.51043 0.0
S1628 S 0.58152 0.24083 0.55778 0.0
N1629 N 0.58856 0.20139 0.54741 0.0
N1630 N 0.55532 0.27598 0.55076 0.0
C1631 C 0.55096 0.25622 0.53936 0.0
C1632 C 0.56879 0.21551 0.53757 0.0
C1633 C 0.82394 0.35197 0.51943 0.0
C1634 C 0.85041 0.38782 0.5293 0.0
C1635 C 0.79349 0.29336 0.52074 0.0
C1636 C 0.78751 0.26789 0.53203 0.0
H1637 H 0.82572 0.36926 0.51057 0.0
H1638 H 0.77236 0.26809 0.51289 0.0
S1639 S 0.85393 0.34222 0.56053 0.0
N1640 N 0.873 0.39348 0.55058 0.0
N1641 N 0.8147 0.28269 0.55313 0.0
C1642 C 0.81594 0.30294 0.54192 0.0
C1643 C 0.84771 0.36301 0.54053 0.0
C1644 C 0.15938 0.60537 0.3602 0.0
C1645 C 0.17714 0.58556 0.37 0.0
C1646 C 0.17747 0.66277 0.35891 0.0
C1647 C 0.21314 0.70234 0.36746 0.0
H1648 H 0.13391 0.57686 0.3531 0.0
H1649 H 0.16596 0.67675 0.35082 0.0
S1650 S 0.26817 0.67257 0.39525 0.0
N1651 N 0.22948 0.61012 0.38889 0.0
N1652 N 0.26289 0.71826 0.3864 0.0
C1653 C 0.22788 0.68303 0.37775 0.0
C1654 C 0.2099 0.62444 0.37905 0.0
C1655 C 0.43277 0.59086 0.35276 0.0
C1656 C 0.45595 0.60637 0.36437 0.0
C1657 C 0.37516 0.55263 0.35106 0.0
C1658 C 0.33824 0.52767 0.36088 0.0
H1659 H 0.45869 0.61019 0.34487 0.0
H1660 H 0.3591 0.54391 0.34194 0.0
S1661 S 0.37815 0.5487 0.39309 0.0
N1662 N 0.43793 0.58984 0.38589 0.0
N1663 N 0.32942 0.51755 0.38259 0.0
C1664 C 0.36117 0.53983 0.37251 0.0
C1665 C 0.42004 0.57933 0.37428 0.0
C1666 C 0.48476 0.89679 0.36149 0.0
C1667 C 0.44421 0.86602 0.37038 0.0
C1668 C 0.52898 0.88622 0.35898 0.0
C1669 C 0.53438 0.84454 0.36527 0.0
H1670 H 0.48103 0.92772 0.35607 0.0
H1671 H 0.55762 0.90906 0.35166 0.0
S1672 S 0.44098 0.75401 0.38986 0.0
N1673 N 0.4141 0.79416 0.38599 0.0
N1674 N 0.49708 0.77406 0.38118 0.0
C1675 C 0.49621 0.81577 0.37469 0.0
C1676 C 0.4511 0.8266 0.37727 0.0
C1677 C 0.04053 0.86408 0.75992 0.0
C1678 C 0.05233 0.83819 0.76957 0.0
C1679 C 0.98555 0.85423 0.75791 0.0
C1680 C 0.94035 0.81818 0.76547 0.0
H1681 H 0.07451 0.89548 0.75442 0.0
H1682 H 0.97938 0.87802 0.75087 0.0
S1683 S 0.94652 0.73006 0.79015 0.0
N1684 N 0.01258 0.76757 0.78541 0.0
N1685 N 0.90929 0.74906 0.78163 0.0
C1686 C 0.95053 0.78765 0.77434 0.0
C1687 C 0.00649 0.7976 0.77637 0.0
C1688 C 0.19806 0.14755 0.76477 0.0
C1689 C 0.16996 0.09005 0.76796 0.0
C1690 C 0.17051 0.17931 0.76559 0.0
C1691 C 0.11405 0.15427 0.76955 0.0
H1692 H 0.24214 0.16858 0.76207 0.0
H1693 H 0.1942 0.22405 0.76359 0.0
S1694 S 0.01866 0.00251 0.77644 0.0
N1695 N 0.08055 0.00772 0.77355 0.0
N1696 N 0.0287 0.06701 0.77496 0.0
C1697 C 0.08451 0.09596 0.77194 0.0
C1698 C 0.11252 0.0639 0.77118 0.0
C1699 C 0.91399 0.06935 0.7565 0.0
C1700 C 0.91512 0.11036 0.76442 0.0
C1701 C 0.88228 0.01145 0.75916 0.0
C1702 C 0.85096 0.99264 0.76986 0.0
H1703 H 0.94063 0.08204 0.74857 0.0
H1704 H 0.88556 0.98171 0.75322 0.0
S1705 S 0.83105 0.08118 0.79249 0.0
N1706 N 0.87524 0.12681 0.78255 0.0
N1707 N 0.81656 0.01828 0.7876 0.0
C1708 C 0.84798 0.03261 0.77734 0.0
C1709 C 0.87975 0.0914 0.7746 0.0
C1710 C 0.27404 0.08289 0.28361 0.0
C1711 C 0.24775 0.04525 0.27398 0.0
C1712 C 0.2875 0.13944 0.28281 0.0
C1713 C 0.2751 0.16009 0.27234 0.0
H1714 H 0.27953 0.06763 0.29221 0.0
H1715 H 0.30284 0.16545 0.2908 0.0
S1716 S 0.22288 0.08334 0.24344 0.0
N1717 N 0.22201 0.03599 0.2528 0.0
N1718 N 0.24723 0.14224 0.25131 0.0
C1719 C 0.25626 0.12503 0.26214 0.0
C1720 C 0.24265 0.06755 0.26295 0.0
C1721 C 0.01511 0.18574 0.2548 0.0
C1722 C 0.03691 0.22809 0.26365 0.0
C1723 C 0.95707 0.14757 0.25402 0.0
C1724 C 0.91871 0.14971 0.26221 0.0
H1725 H 0.04336 0.18037 0.24876 0.0
H1726 H 0.94288 0.11394 0.24745 0.0
S1727 S 0.95331 0.25829 0.28579 0.0
N1728 N 0.01506 0.27468 0.27975 0.0
N1729 N 0.90569 0.20218 0.2784 0.0
C1730 C 0.93938 0.19473 0.27045 0.0
C1731 C 0.9986 0.23415 0.27114 0.0
C1732 C 0.97344 0.94993 0.27836 0.0
C1733 C 0.95534 0.89864 0.27225 0.0
C1734 C 0.9393 0.97457 0.27909 0.0
C1735 C 0.88539 0.94929 0.27374 0.0
H1736 H 0.01444 0.97147 0.2827 0.0
H1737 H 0.95563 0.01398 0.28398 0.0
S1738 S 0.81776 0.81515 0.25649 0.0
N1739 N 0.87978 0.82351 0.26053 0.0
N1740 N 0.81544 0.8702 0.26196 0.0
C1741 C 0.86672 0.89836 0.26744 0.0
C1742 C 0.90165 0.87293 0.26671 0.0
C1743 C 0.37154 0.84932 0.85651 0.0
C1744 C 0.33419 0.81921 0.86591 0.0
C1745 C 0.42955 0.86916 0.85752 0.0
C1746 C 0.45221 0.8587 0.86792 0.0
H1747 H 0.35546 0.85579 0.8481 0.0
H1748 H 0.45635 0.89076 0.84988 0.0
S1749 S 0.37125 0.78246 0.89523 0.0
N1750 N 0.32305 0.78132 0.88607 0.0
N1751 N 0.43233 0.81788 0.88808 0.0
C1752 C 0.41534 0.83067 0.87764 0.0
C1753 C 0.35615 0.81102 0.87661 0.0
C1754 C 0.16833 0.57416 0.85854 0.0
C1755 C 0.17642 0.59884 0.87001 0.0
C1756 C 0.18921 0.53803 0.85572 0.0
C1757 C 0.21823 0.52427 0.86429 0.0
H1758 H 0.14856 0.58525 0.85142 0.0
H1759 H 0.1846 0.52258 0.84657 0.0
S1760 S 0.24407 0.57085 0.89611 0.0
N1761 N 0.21064 0.60197 0.89042 0.0
N1762 N 0.24936 0.53334 0.88504 0.0
C1763 C 0.22274 0.54471 0.87607 0.0
C1764 C 0.20195 0.58219 0.87894 0.0
C1765 C 0.47312 0.63769 0.87334 0.0
C1766 C 0.45609 0.59809 0.86386 0.0
C1767 C 0.5132 0.69495 0.87151 0.0
C1768 C 0.53756 0.71463 0.86013 0.0
H1769 H 0.45328 0.6251 0.88211 0.0
H1770 H 0.52225 0.72445 0.87884 0.0
S1771 S 0.5155 0.62726 0.83291 0.0
N1772 N 0.4729 0.58202 0.84309 0.0
N1773 N 0.54769 0.68926 0.83969 0.0
C1774 C 0.52435 0.6749 0.85086 0.0
C1775 C 0.48378 0.61674 0.85271 0.0
C1776 C 0.87127 0.96398 0.68549 0.0
C1777 C 0.85999 0.94242 0.69727 0.0
C1778 C 0.89305 0.02146 0.68328 0.0
C1779 C 0.90412 0.05983 0.69274 0.0
H1780 H 0.86596 0.93687 0.6779 0.0
H1781 H 0.90306 0.03608 0.67407 0.0
S1782 S 0.87369 0.02367 0.72507 0.0
N1783 N 0.85545 0.96286 0.71843 0.0
N1784 N 0.89637 0.07136 0.71424 0.0
C1785 C 0.88925 0.03841 0.7045 0.0
C1786 C 0.86726 0.97961 0.70677 0.0
C1787 C 0.05132 0.87406 0.7016 0.0
C1788 C 0.02223 0.88895 0.69324 0.0
C1789 C 0.11001 0.90856 0.70337 0.0
C1790 C 0.14157 0.95878 0.69677 0.0
H1791 H 0.02877 0.8353 0.70672 0.0
H1792 H 0.13089 0.89561 0.70986 0.0
S1793 S 0.08432 0.02068 0.67505 0.0
N1794 N 0.02892 0.96038 0.67918 0.0
N1795 N 0.13851 0.02417 0.6824 0.0
C1796 C 0.11269 0.97479 0.68864 0.0
C1797 C 0.05322 0.94015 0.68691 0.0
C1798 C 0.2037 0.20734 0.68492 0.0
C1799 C 0.22354 0.18768 0.69439 0.0
C1800 C 0.16228 0.22267 0.68682 0.0
C1801 C 0.1384 0.21853 0.69826 0.0
H1802 H 0.21881 0.20901 0.67583 0.0
H1803 H 0.14717 0.23545 0.6791 0.0
S1804 S 0.17983 0.17502 0.7264 0.0
N1805 N 0.21948 0.16925 0.71587 0.0
N1806 N 0.14151 0.19791 0.71948 0.0
C1807 C 0.1602 0.20203 0.70798 0.0
C1808 C 0.20282 0.18673 0.70604 0.0
C1809 C 0.7049 0.21843 0.11404 0.0
C1810 C 0.74091 0.24222 0.10408 0.0
C1811 C 0.64609 0.19164 0.11282 0.0
C1812 C 0.62079 0.18839 0.1016 0.0
H1813 H 0.72243 0.22185 0.12295 0.0
H1814 H 0.6205 0.17548 0.12087 0.0
S1815 S 0.69704 0.24215 0.07258 0.0
N1816 N 0.74786 0.25874 0.08255 0.0
N1817 N 0.63692 0.20902 0.08015 0.0
C1818 C 0.65645 0.21004 0.09144 0.0
C1819 C 0.71663 0.23681 0.0927 0.0
C1820 C 0.87413 0.47481 0.08858 0.0
C1821 C 0.91486 0.47209 0.09587 0.0
C1822 C 0.86273 0.51927 0.08969 0.0
C1823 C 0.89211 0.5632 0.09803 0.0
H1824 H 0.84801 0.44047 0.08253 0.0
H1825 H 0.82788 0.51688 0.08455 0.0
S1826 S 0.01167 0.58206 0.11726 0.0
N1827 N 0.99063 0.52127 0.11035 0.0
N1828 N 0.97027 0.60568 0.11227 0.0
C1829 C 0.93692 0.56383 0.10448 0.0
C1830 C 0.94799 0.51806 0.10346 0.0
C1831 C 0.55432 0.41988 0.11299 0.0
C1832 C 0.60394 0.44099 0.10603 0.0
C1833 C 0.51635 0.36166 0.11381 0.0
C1834 C 0.52562 0.32272 0.10737 0.0
H1835 H 0.54634 0.44818 0.11841 0.0
H1836 H 0.48083 0.3468 0.11996 0.0
S1837 S 0.64614 0.35604 0.08704 0.0
N1838 N 0.6584 0.41821 0.09199 0.0
N1839 N 0.58597 0.30892 0.09334 0.0
C1840 C 0.57303 0.34326 0.0998 0.0
C1841 C 0.61249 0.40243 0.09917 0.0
C1842 C 0.81048 0.34529 0.59045 0.0
C1843 C 0.82683 0.32866 0.60093 0.0
C1844 C 0.83036 0.40263 0.58811 0.0
C1845 C 0.86698 0.4448 0.59622 0.0
H1846 H 0.77893 0.31381 0.58454 0.0
H1847 H 0.81374 0.41348 0.58035 0.0
S1848 S 0.92988 0.42206 0.62376 0.0
N1849 N 0.88691 0.35792 0.61859 0.0
N1850 N 0.92526 0.46569 0.61417 0.0
C1851 C 0.88757 0.42847 0.60613 0.0
C1852 C 0.86704 0.37028 0.60851 0.0
C1853 C 0.66597 0.50886 0.61032 0.0
C1854 C 0.70542 0.51691 0.60129 0.0
C1855 C 0.60806 0.47212 0.60864 0.0
C1856 C 0.58731 0.44115 0.59792 0.0
H1857 H 0.68027 0.52935 0.61898 0.0
H1858 H 0.57977 0.46595 0.61607 0.0
S1859 S 0.67355 0.45032 0.57116 0.0
N1860 N 0.72019 0.49423 0.58098 0.0
N1861 N 0.61109 0.42433 0.57774 0.0
C1862 C 0.62619 0.45143 0.58851 0.0
C1863 C 0.68537 0.48952 0.59022 0.0
C1864 C 0.56866 0.19362 0.59322 0.0
C1865 C 0.58909 0.17436 0.60271 0.0
C1866 C 0.52948 0.21203 0.59528 0.0
C1867 C 0.50948 0.21221 0.60694 0.0
H1868 H 0.58482 0.19682 0.58418 0.0
H1869 H 0.51746 0.22932 0.58783 0.0
S1870 S 0.54234 0.1581 0.63459 0.0
N1871 N 0.58064 0.15061 0.624 0.0
N1872 N 0.50768 0.18549 0.62784 0.0
C1873 C 0.52644 0.18951 0.61635 0.0
C1874 C 0.56598 0.17045 0.61425 0.0
C1875 C 0.018 0.173 0.20325 0.0
C1876 C 0.9911 0.13681 0.19344 0.0
C1877 C 0.07536 0.1926 0.20581 0.0
C1878 C 0.10785 0.17705 0.19858 0.0
H1879 H 0.99462 0.18611 0.20904 0.0
H1880 H 0.09435 0.2201 0.21349 0.0
S1881 S 0.05661 0.07963 0.17241 0.0
N1882 N 1.00113 0.08399 0.17684 0.0
N1883 N 0.10819 0.12097 0.18161 0.0
C1884 C 0.08136 0.1406 0.18881 0.0
C1885 C 0.02318 0.12045 0.18625 0.0
C1886 C 0.82208 0.90073 0.18883 0.0
C1887 C 0.82799 0.92735 0.19999 0.0
C1888 C 0.83949 0.86086 0.18724 0.0
C1889 C 0.86292 0.84544 0.19676 0.0
H1890 H 0.80685 0.91296 0.18104 0.0
H1891 H 0.83717 0.84403 0.17829 0.0
S1892 S 0.88083 0.89676 0.2282 0.0
N1893 N 0.85365 0.93082 0.22111 0.0
N1894 N 0.88619 0.85559 0.21802 0.0
C1895 C 0.8649 0.8681 0.20821 0.0
C1896 C 0.84752 0.90919 0.20984 0.0
C1897 C 0.1804 0.92819 0.20487 0.0
C1898 C 0.12303 0.91333 0.20471 0.0
C1899 C 0.22337 0.98491 0.20578 0.0
C1900 C 0.21048 0.02864 0.2069 0.0
H1901 H 0.19227 0.89605 0.20374 0.0
H1902 H 0.26705 0.99474 0.20521 0.0
S1903 S 0.06605 0.01071 0.20854 0.0
N1904 N 0.05522 0.94606 0.20677 0.0
N1905 N 0.13545 0.05217 0.20885 0.0
C1906 C 0.15298 0.01374 0.20758 0.0
C1907 C 0.1094 0.95622 0.20636 0.0
loop_
_geom_bond_atom_site_label_1
_geom_bond_atom_site_label_2
_geom_bond_distance
_geom_bond_site_symmetry_2
_ccdc_geom_bond_type
Zn0 O6 1.969 . S
Zn0 O7 1.965 1_565 S
Zn0 O11 2.024 . S
Zn0 O16 1.969 . S
Zn1 O8 1.969 . S
Zn1 O14 1.969 . S
Zn1 O15 1.965 . S
Zn1 O17 2.024 . S
C2 O3 1.229 . S
C2 O11 1.058 . S
O3 C2 1.229 . S
C4 O5 1.229 . S
C4 O17 1.058 . S
O5 C4 1.229 . S
O6 Zn0 1.969 . S
O6 C9 1.267 . S
O7 Zn0 1.965 1_545 S
O7 C18 1.260 . S
O8 Zn1 1.969 . S
O8 C18 1.258 . S
C9 O6 1.267 . S
C9 O10 1.228 . S
O10 C9 1.228 . S
O11 Zn0 2.024 . S
O11 C2 1.058 . S
C12 O13 1.228 . S
C12 O14 1.267 . S
O13 C12 1.228 . S
O14 Zn1 1.969 . S
O14 C12 1.267 . S
O15 Zn1 1.965 . S
O15 C19 1.260 . S
O16 Zn0 1.969 . S
O16 C19 1.258 1_565 S
O17 Zn1 2.024 . S
O17 C4 1.058 . S
C18 O7 1.260 . S
C18 O8 1.258 . S
C19 O15 1.260 . S
C19 O16 1.258 1_545 S
Zn20 O26 1.969 . S
Zn20 O27 1.965 . S
Zn20 O31 2.024 . S
Zn20 O36 1.969 . S
Zn21 O28 1.969 . S
Zn21 O34 1.969 . S
Zn21 O35 1.965 . S
Zn21 O37 2.024 . S
C22 O23 1.229 . S
C22 O31 1.058 . S
O23 C22 1.229 . S
C24 O25 1.229 . S
C24 O37 1.058 . S
O25 C24 1.229 . S
O26 Zn20 1.969 . S
O26 C29 1.267 . S
O27 Zn20 1.965 . S
O27 C38 1.260 . S
O28 Zn21 1.969 . S
O28 C38 1.258 1_655 S
C29 O26 1.267 . S
C29 O30 1.228 . S
O30 C29 1.228 . S
O31 Zn20 2.024 . S
O31 C22 1.058 . S
C32 O33 1.228 . S
C32 O34 1.267 . S
O33 C32 1.228 . S
O34 Zn21 1.969 . S
O34 C32 1.267 . S
O35 Zn21 1.965 . S
O35 C39 1.260 1_655 S
O36 Zn20 1.969 . S
O36 C39 1.258 . S
O37 Zn21 2.024 . S
O37 C24 1.058 . S
C38 O27 1.260 . S
C38 O28 1.258 1_455 S
C39 O35 1.260 1_455 S
C39 O36 1.258 . S
Zn40 O46 1.969 . S
Zn40 O47 1.965 . S
Zn40 O51 2.024 . S
Zn40 O56 1.969 . S
Zn41 O48 1.969 . S
Zn41 O54 1.969 . S
Zn41 O55 1.965 . S
Zn41 O57 2.024 . S
C42 O43 1.229 . S
C42 O51 1.058 . S
O43 C42 1.229 . S
C44 O45 1.229 . S
C44 O57 1.058 . S
O45 C44 1.229 . S
O46 Zn40 1.969 . S
O46 C49 1.267 . S
O47 Zn40 1.965 . S
O47 C58 1.260 . S
O48 Zn41 1.969 . S
O48 C58 1.258 . S
C49 O46 1.267 . S
C49 O50 1.228 . S
O50 C49 1.228 . S
O51 Zn40 2.024 . S
O51 C42 1.058 . S
C52 O53 1.228 . S
C52 O54 1.267 . S
O53 C52 1.228 . S
O54 Zn41 1.969 . S
O54 C52 1.267 . S
O55 Zn41 1.965 . S
O55 C59 1.260 . S
O56 Zn40 1.969 . S
O56 C59 1.258 . S
O57 Zn41 2.024 . S
O57 C44 1.058 . S
C58 O47 1.260 . S
C58 O48 1.258 . S
C59 O55 1.260 . S
C59 O56 1.258 . S
Zn60 O66 1.969 . S
Zn60 O67 1.965 1_655 S
Zn60 O71 2.024 . S
Zn60 O76 1.969 . S
Zn61 O68 1.969 . S
Zn61 O74 1.969 . S
Zn61 O75 1.965 . S
Zn61 O77 2.024 . S
C62 O63 1.229 . S
C62 O71 1.058 . S
O63 C62 1.229 . S
C64 O65 1.229 . S
C64 O77 1.058 . S
O65 C64 1.229 . S
O66 Zn60 1.969 . S
O66 C69 1.267 . S
O67 Zn60 1.965 1_455 S
O67 C78 1.260 . S
O68 Zn61 1.969 . S
O68 C78 1.258 . S
C69 O66 1.267 . S
C69 O70 1.228 . S
O70 C69 1.228 . S
O71 Zn60 2.024 . S
O71 C62 1.058 . S
C72 O73 1.228 . S
C72 O74 1.267 . S
O73 C72 1.228 . S
O74 Zn61 1.969 . S
O74 C72 1.267 . S
O75 Zn61 1.965 . S
O75 C79 1.260 . S
O76 Zn60 1.969 . S
O76 C79 1.258 1_655 S
O77 Zn61 2.024 . S
O77 C64 1.058 . S
C78 O67 1.260 . S
C78 O68 1.258 . S
C79 O75 1.260 . S
C79 O76 1.258 1_455 S
Zn80 O86 1.969 . S
Zn80 O87 1.965 . S
Zn80 O91 2.024 . S
Zn80 O96 1.969 . S
Zn81 O88 1.969 . S
Zn81 O94 1.969 . S
Zn81 O95 1.965 . S
Zn81 O97 2.024 . S
C82 O83 1.229 . S
C82 O91 1.058 . S
O83 C82 1.229 . S
C84 O85 1.229 . S
C84 O97 1.058 . S
O85 C84 1.229 . S
O86 Zn80 1.969 . S
O86 C89 1.267 . S
O87 Zn80 1.965 . S
O87 C98 1.260 . S
O88 Zn81 1.969 . S
O88 C98 1.258 . S
C89 O86 1.267 . S
C89 O90 1.228 . S
O90 C89 1.228 . S
O91 Zn80 2.024 . S
O91 C82 1.058 . S
C92 O93 1.228 . S
C92 O94 1.267 . S
O93 C92 1.228 . S
O94 Zn81 1.969 . S
O94 C92 1.267 . S
O95 Zn81 1.965 . S
O95 C99 1.260 . S
O96 Zn80 1.969 . S
O96 C99 1.258 . S
O97 Zn81 2.024 . S
O97 C84 1.058 . S
C98 O87 1.260 . S
C98 O88 1.258 . S
C99 O95 1.260 . S
C99 O96 1.258 . S
Zn100 O106 1.969 . S
Zn100 O107 1.965 . S
Zn100 O111 2.024 . S
Zn100 O116 1.969 . S
Zn101 O108 1.969 . S
Zn101 O114 1.969 . S
Zn101 O115 1.965 . S
Zn101 O117 2.024 . S
C102 O103 1.229 . S
C102 O111 1.058 . S
O103 C102 1.229 . S
C104 O105 1.229 . S
C104 O117 1.058 . S
O105 C104 1.229 . S
O106 Zn100 1.969 . S
O106 C109 1.267 . S
O107 Zn100 1.965 . S
O107 C118 1.260 . S
O108 Zn101 1.969 . S
O108 C118 1.258 1_565 S
C109 O106 1.267 . S
C109 O110 1.228 . S
O110 C109 1.228 . S
O111 Zn100 2.024 . S
O111 C102 1.058 . S
C112 O113 1.228 . S
C112 O114 1.267 . S
O113 C112 1.228 . S
O114 Zn101 1.969 . S
O114 C112 1.267 . S
O115 Zn101 1.965 . S
O115 C119 1.260 1_565 S
O116 Zn100 1.969 . S
O116 C119 1.258 . S
O117 Zn101 2.024 . S
O117 C104 1.058 . S
C118 O107 1.260 . S
C118 O108 1.258 1_545 S
C119 O115 1.260 1_545 S
C119 O116 1.258 . S
Zn120 O126 1.969 . S
Zn120 O127 1.965 . S
Zn120 O131 2.024 . S
Zn120 O136 1.969 . S
Zn121 O128 1.969 . S
Zn121 O134 1.969 . S
Zn121 O135 1.965 . S
Zn121 O137 2.024 . S
C122 O123 1.229 . S
C122 O131 1.058 . S
O123 C122 1.229 . S
C124 O125 1.229 . S
C124 O137 1.058 . S
O125 C124 1.229 . S
O126 Zn120 1.969 . S
O126 C129 1.267 . S
O127 Zn120 1.965 . S
O127 C138 1.260 1_565 S
O128 Zn121 1.969 . S
O128 C138 1.258 . S
C129 O126 1.267 . S
C129 O130 1.228 . S
O130 C129 1.228 . S
O131 Zn120 2.024 . S
O131 C122 1.058 . S
C132 O133 1.228 . S
C132 O134 1.267 . S
O133 C132 1.228 . S
O134 Zn121 1.969 . S
O134 C132 1.267 . S
O135 Zn121 1.965 . S
O135 C139 1.260 . S
O136 Zn120 1.969 . S
O136 C139 1.258 1_565 S
O137 Zn121 2.024 . S
O137 C124 1.058 . S
C138 O127 1.260 1_545 S
C138 O128 1.258 . S
C139 O135 1.260 . S
C139 O136 1.258 1_545 S
Zn140 O146 1.969 . S
Zn140 O147 1.965 . S
Zn140 O151 2.024 . S
Zn140 O156 1.969 . S
Zn141 O148 1.969 . S
Zn141 O154 1.969 . S
Zn141 O155 1.965 1_655 S
Zn141 O157 2.024 . S
C142 O143 1.229 . S
C142 O151 1.058 . S
O143 C142 1.229 . S
C144 O145 1.229 . S
C144 O157 1.058 . S
O145 C144 1.229 . S
O146 Zn140 1.969 . S
O146 C149 1.267 . S
O147 Zn140 1.965 . S
O147 C158 1.260 . S
O148 Zn141 1.969 . S
O148 C158 1.258 1_655 S
C149 O146 1.267 . S
C149 O150 1.228 . S
O150 C149 1.228 . S
O151 Zn140 2.024 . S
O151 C142 1.058 . S
C152 O153 1.228 . S
C152 O154 1.267 . S
O153 C152 1.228 . S
O154 Zn141 1.969 . S
O154 C152 1.267 . S
O155 Zn141 1.965 1_455 S
O155 C159 1.260 . S
O156 Zn140 1.969 . S
O156 C159 1.258 . S
O157 Zn141 2.024 . S
O157 C144 1.058 . S
C158 O147 1.260 . S
C158 O148 1.258 1_455 S
C159 O155 1.260 . S
C159 O156 1.258 . S
Zn160 O166 1.969 . S
Zn160 O167 1.965 . S
Zn160 O171 2.024 . S
Zn160 O176 1.969 . S
Zn161 O168 1.969 . S
Zn161 O174 1.969 . S
Zn161 O175 1.965 . S
Zn161 O177 2.024 . S
C162 O163 1.229 . S
C162 O171 1.058 . S
O163 C162 1.229 . S
C164 O165 1.229 . S
C164 O177 1.058 . S
O165 C164 1.229 . S
O166 Zn160 1.969 . S
O166 C169 1.267 . S
O167 Zn160 1.965 . S
O167 C178 1.260 . S
O168 Zn161 1.969 . S
O168 C178 1.258 . S
C169 O166 1.267 . S
C169 O170 1.228 . S
O170 C169 1.228 . S
O171 Zn160 2.024 . S
O171 C162 1.058 . S
C172 O173 1.228 . S
C172 O174 1.267 . S
O173 C172 1.228 . S
O174 Zn161 1.969 . S
O174 C172 1.267 . S
O175 Zn161 1.965 . S
O175 C179 1.260 . S
O176 Zn160 1.969 . S
O176 C179 1.258 . S
O177 Zn161 2.024 . S
O177 C164 1.058 . S
C178 O167 1.260 . S
C178 O168 1.258 . S
C179 O175 1.260 . S
C179 O176 1.258 . S
Zn180 O186 1.969 . S
Zn180 O187 1.965 . S
Zn180 O191 2.024 . S
Zn180 O196 1.969 . S
Zn181 O188 1.969 . S
Zn181 O194 1.969 . S
Zn181 O195 1.965 . S
Zn181 O197 2.024 . S
C182 O183 1.229 . S
C182 O191 1.058 . S
O183 C182 1.229 . S
C184 O185 1.229 . S
C184 O197 1.058 . S
O185 C184 1.229 . S
O186 Zn180 1.969 . S
O186 C189 1.267 . S
O187 Zn180 1.965 . S
O187 C198 1.260 1_655 S
O188 Zn181 1.969 . S
O188 C198 1.258 . S
C189 O186 1.267 . S
C189 O190 1.228 . S
O190 C189 1.228 . S
O191 Zn180 2.024 . S
O191 C182 1.058 . S
C192 O193 1.228 . S
C192 O194 1.267 . S
O193 C192 1.228 . S
O194 Zn181 1.969 . S
O194 C192 1.267 . S
O195 Zn181 1.965 . S
O195 C199 1.260 . S
O196 Zn180 1.969 . S
O196 C199 1.258 1_655 S
O197 Zn181 2.024 . S
O197 C184 1.058 . S
C198 O187 1.260 1_455 S
C198 O188 1.258 . S
C199 O195 1.260 . S
C199 O196 1.258 1_455 S
Zn200 O206 1.969 . S
Zn200 O207 1.965 . S
Zn200 O211 2.024 . S
Zn200 O216 1.969 . S
Zn201 O208 1.969 . S
Zn201 O214 1.969 . S
Zn201 O215 1.965 . S
Zn201 O217 2.024 . S
C202 O203 1.229 . S
C202 O211 1.058 . S
O203 C202 1.229 . S
C204 O205 1.229 . S
C204 O217 1.058 . S
O205 C204 1.229 . S
O206 Zn200 1.969 . S
O206 C209 1.267 . S
O207 Zn200 1.965 . S
O207 C218 1.260 . S
O208 Zn201 1.969 . S
O208 C218 1.258 . S
C209 O206 1.267 . S
C209 O210 1.228 . S
O210 C209 1.228 . S
O211 Zn200 2.024 . S
O211 C202 1.058 . S
C212 O213 1.228 . S
C212 O214 1.267 . S
O213 C212 1.228 . S
O214 Zn201 1.969 . S
O214 C212 1.267 . S
O215 Zn201 1.965 . S
O215 C219 1.260 . S
O216 Zn200 1.969 . S
O216 C219 1.258 . S
O217 Zn201 2.024 . S
O217 C204 1.058 . S
C218 O207 1.260 . S
C218 O208 1.258 . S
C219 O215 1.260 . S
C219 O216 1.258 . S
Zn220 O226 1.969 . S
Zn220 O227 1.965 . S
Zn220 O231 2.024 . S
Zn220 O236 1.969 . S
Zn221 O228 1.969 . S
Zn221 O234 1.969 . S
Zn221 O235 1.965 1_565 S
Zn221 O237 2.024 . S
C222 O223 1.229 . S
C222 O231 1.058 . S
O223 C222 1.229 . S
C224 O225 1.229 . S
C224 O237 1.058 . S
O225 C224 1.229 . S
O226 Zn220 1.969 . S
O226 C229 1.267 . S
O227 Zn220 1.965 . S
O227 C238 1.260 . S
O228 Zn221 1.969 . S
O228 C238 1.258 1_565 S
C229 O226 1.267 . S
C229 O230 1.228 . S
O230 C229 1.228 . S
O231 Zn220 2.024 . S
O231 C222 1.058 . S
C232 O233 1.228 . S
C232 O234 1.267 . S
O233 C232 1.228 . S
O234 Zn221 1.969 . S
O234 C232 1.267 . S
O235 Zn221 1.965 1_545 S
O235 C239 1.260 . S
O236 Zn220 1.969 . S
O236 C239 1.258 . S
O237 Zn221 2.024 . S
O237 C224 1.058 . S
C238 O227 1.260 . S
C238 O228 1.258 1_545 S
C239 O235 1.260 . S
C239 O236 1.258 . S
Zn240 O246 1.969 . S
Zn240 O247 1.965 . S
Zn240 O251 2.024 . S
Zn240 O256 1.969 . S
Zn241 O248 1.969 . S
Zn241 O254 1.969 . S
Zn241 O255 1.965 . S
Zn241 O257 2.024 . S
C242 O243 1.229 . S
C242 O251 1.058 . S
O243 C242 1.229 . S
C244 O245 1.229 . S
C244 O257 1.058 . S
O245 C244 1.229 . S
O246 Zn240 1.969 . S
O246 C249 1.267 . S
O247 Zn240 1.965 . S
O247 C258 1.260 . S
O248 Zn241 1.969 . S
O248 C258 1.258 . S
C249 O246 1.267 . S
C249 O250 1.228 . S
O250 C249 1.228 . S
O251 Zn240 2.024 . S
O251 C242 1.058 . S
C252 O253 1.228 . S
C252 O254 1.267 . S
O253 C252 1.228 . S
O254 Zn241 1.969 . S
O254 C252 1.267 . S
O255 Zn241 1.965 . S
O255 C259 1.260 . S
O256 Zn240 1.969 . S
O256 C259 1.258 . S
O257 Zn241 2.024 . S
O257 C244 1.058 . S
C258 O247 1.260 . S
C258 O248 1.258 . S
C259 O255 1.260 . S
C259 O256 1.258 . S
Zn260 O266 1.969 . S
Zn260 O267 1.965 . S
Zn260 O271 2.024 . S
Zn260 O276 1.969 . S
Zn261 O268 1.969 . S
Zn261 O274 1.969 . S
Zn261 O275 1.965 . S
Zn261 O277 2.024 . S
C262 O263 1.229 . S
C262 O271 1.058 . S
O263 C262 1.229 . S
C264 O265 1.229 . S
C264 O277 1.058 . S
O265 C264 1.229 . S
O266 Zn260 1.969 . S
O266 C269 1.267 . S
O267 Zn260 1.965 . S
O267 C278 1.260 . S
O268 Zn261 1.969 . S
O268 C278 1.258 . S
C269 O266 1.267 . S
C269 O270 1.228 . S
O270 C269 1.228 . S
O271 Zn260 2.024 . S
O271 C262 1.058 . S
C272 O273 1.228 . S
C272 O274 1.267 . S
O273 C272 1.228 . S
O274 Zn261 1.969 . S
O274 C272 1.267 . S
O275 Zn261 1.965 . S
O275 C279 1.260 . S
O276 Zn260 1.969 . S
O276 C279 1.258 . S
O277 Zn261 2.024 . S
O277 C264 1.058 . S
C278 O267 1.260 . S
C278 O268 1.258 . S
C279 O275 1.260 . S
C279 O276 1.258 . S
Zn280 O286 1.969 . S
Zn280 O287 1.965 . S
Zn280 O291 2.023 . S
Zn280 O296 1.969 . S
Zn281 O288 1.969 . S
Zn281 O294 1.969 . S
Zn281 O295 1.965 . S
Zn281 O297 2.024 . S
C282 O283 1.229 . S
C282 O291 1.058 1_545 S
O283 C282 1.229 . S
C284 O285 1.229 . S
C284 O297 1.058 . S
O285 C284 1.229 . S
O286 Zn280 1.969 . S
O286 C289 1.267 . S
O287 Zn280 1.965 . S
O287 C298 1.260 . S
O288 Zn281 1.969 . S
O288 C298 1.258 . S
C289 O286 1.267 . S
C289 O290 1.228 . S
O290 C289 1.228 . S
O291 Zn280 2.023 . S
O291 C282 1.058 1_565 S
C292 O293 1.228 . S
C292 O294 1.267 . S
O293 C292 1.228 . S
O294 Zn281 1.969 . S
O294 C292 1.267 . S
O295 Zn281 1.965 . S
O295 C299 1.260 . S
O296 Zn280 1.969 . S
O296 C299 1.258 . S
O297 Zn281 2.024 . S
O297 C284 1.058 . S
C298 O287 1.260 . S
C298 O288 1.258 . S
C299 O295 1.260 . S
C299 O296 1.258 . S
Zn300 O306 1.969 . S
Zn300 O307 1.965 . S
Zn300 O311 2.024 . S
Zn300 O316 1.969 . S
Zn301 O308 1.969 . S
Zn301 O314 1.969 . S
Zn301 O315 1.965 . S
Zn301 O317 2.024 . S
C302 O303 1.229 . S
C302 O311 1.058 . S
O303 C302 1.229 . S
C304 O305 1.229 . S
C304 O317 1.058 . S
O305 C304 1.229 . S
O306 Zn300 1.969 . S
O306 C309 1.267 . S
O307 Zn300 1.965 . S
O307 C318 1.260 . S
O308 Zn301 1.969 . S
O308 C318 1.258 . S
C309 O306 1.267 . S
C309 O310 1.228 . S
O310 C309 1.228 . S
O311 Zn300 2.024 . S
O311 C302 1.058 . S
C312 O313 1.228 . S
C312 O314 1.267 . S
O313 C312 1.228 . S
O314 Zn301 1.969 . S
O314 C312 1.267 . S
O315 Zn301 1.965 . S
O315 C319 1.260 . S
O316 Zn300 1.969 . S
O316 C319 1.258 . S
O317 Zn301 2.024 . S
O317 C304 1.058 . S
C318 O307 1.260 . S
C318 O308 1.258 . S
C319 O315 1.260 . S
C319 O316 1.258 . S
Zn320 O326 1.969 . S
Zn320 O327 1.965 . S
Zn320 O331 2.024 . S
Zn320 O336 1.969 . S
Zn321 O328 1.969 . S
Zn321 O334 1.969 1_565 S
Zn321 O335 1.965 . S
Zn321 O337 2.024 . S
C322 O323 1.229 . S
C322 O331 1.058 . S
O323 C322 1.229 . S
C324 O325 1.229 . S
C324 O337 1.058 . S
O325 C324 1.229 . S
O326 Zn320 1.969 . S
O326 C329 1.267 . S
O327 Zn320 1.965 . S
O327 C338 1.260 . S
O328 Zn321 1.969 . S
O328 C338 1.258 . S
C329 O326 1.267 . S
C329 O330 1.228 . S
O330 C329 1.228 . S
O331 Zn320 2.024 . S
O331 C322 1.058 . S
C332 O333 1.228 . S
C332 O334 1.267 . S
O333 C332 1.228 . S
O334 Zn321 1.969 1_545 S
O334 C332 1.267 . S
O335 Zn321 1.965 . S
O335 C339 1.260 . S
O336 Zn320 1.969 . S
O336 C339 1.258 . S
O337 Zn321 2.024 . S
O337 C324 1.058 . S
C338 O327 1.260 . S
C338 O328 1.258 . S
C339 O335 1.260 . S
C339 O336 1.258 . S
Zn340 O346 1.969 . S
Zn340 O347 1.965 . S
Zn340 O351 2.024 . S
Zn340 O356 1.969 . S
Zn341 O348 1.969 . S
Zn341 O354 1.969 . S
Zn341 O355 1.965 . S
Zn341 O357 2.024 . S
C342 O343 1.229 . S
C342 O351 1.058 . S
O343 C342 1.229 . S
C344 O345 1.229 . S
C344 O357 1.058 . S
O345 C344 1.229 . S
O346 Zn340 1.969 . S
O346 C349 1.267 . S
O347 Zn340 1.965 . S
O347 C358 1.260 . S
O348 Zn341 1.969 . S
O348 C358 1.258 . S
C349 O346 1.267 . S
C349 O350 1.228 . S
O350 C349 1.228 . S
O351 Zn340 2.024 . S
O351 C342 1.058 . S
C352 O353 1.228 . S
C352 O354 1.267 . S
O353 C352 1.228 . S
O354 Zn341 1.969 . S
O354 C352 1.267 . S
O355 Zn341 1.965 . S
O355 C359 1.260 . S
O356 Zn340 1.969 . S
O356 C359 1.258 . S
O357 Zn341 2.024 . S
O357 C344 1.058 . S
C358 O347 1.260 . S
C358 O348 1.258 . S
C359 O355 1.260 . S
C359 O356 1.258 . S
Zn360 O366 1.969 . S
Zn360 O367 1.965 . S
Zn360 O371 2.024 . S
Zn360 O376 1.969 . S
Zn361 O368 1.969 . S
Zn361 O374 1.969 . S
Zn361 O375 1.965 . S
Zn361 O377 2.024 . S
C362 O363 1.229 . S
C362 O371 1.058 . S
O363 C362 1.229 . S
C364 O365 1.229 . S
C364 O377 1.058 . S
O365 C364 1.229 . S
O366 Zn360 1.969 . S
O366 C369 1.267 . S
O367 Zn360 1.965 . S
O367 C378 1.260 . S
O368 Zn361 1.969 . S
O368 C378 1.258 . S
C369 O366 1.267 . S
C369 O370 1.228 . S
O370 C369 1.228 . S
O371 Zn360 2.024 . S
O371 C362 1.058 . S
C372 O373 1.228 . S
C372 O374 1.267 . S
O373 C372 1.228 . S
O374 Zn361 1.969 . S
O374 C372 1.267 . S
O375 Zn361 1.965 . S
O375 C379 1.260 . S
O376 Zn360 1.969 . S
O376 C379 1.258 . S
O377 Zn361 2.024 . S
O377 C364 1.058 . S
C378 O367 1.260 . S
C378 O368 1.258 . S
C379 O375 1.260 . S
C379 O376 1.258 . S
Zn380 O386 1.969 1_565 S
Zn380 O387 1.965 . S
Zn380 O391 2.024 . S
Zn380 O396 1.969 . S
Zn381 O388 1.969 . S
Zn381 O394 1.969 . S
Zn381 O395 1.965 . S
Zn381 O397 2.024 . S
C382 O383 1.229 . S
C382 O391 1.058 . S
O383 C382 1.229 . S
C384 O385 1.229 . S
C384 O397 1.058 . S
O385 C384 1.229 . S
O386 Zn380 1.969 1_545 S
O386 C389 1.267 . S
O387 Zn380 1.965 . S
O387 C398 1.260 . S
O388 Zn381 1.969 . S
O388 C398 1.258 . S
C389 O386 1.267 . S
C389 O390 1.228 . S
O390 C389 1.228 . S
O391 Zn380 2.024 . S
O391 C382 1.058 . S
C392 O393 1.228 . S
C392 O394 1.267 . S
O393 C392 1.228 . S
O394 Zn381 1.969 . S
O394 C392 1.267 . S
O395 Zn381 1.965 . S
O395 C399 1.260 . S
O396 Zn380 1.969 . S
O396 C399 1.258 . S
O397 Zn381 2.024 . S
O397 C384 1.058 . S
C398 O387 1.260 . S
C398 O388 1.258 . S
C399 O395 1.260 . S
C399 O396 1.258 . S
Zn400 O406 1.969 . S
Zn400 O407 1.965 . S
Zn400 O411 2.024 . S
Zn400 O416 1.969 . S
Zn401 O408 1.969 . S
Zn401 O414 1.969 . S
Zn401 O415 1.965 . S
Zn401 O417 2.024 . S
C402 O403 1.229 . S
C402 O411 1.058 . S
O403 C402 1.229 . S
C404 O405 1.229 . S
C404 O417 1.058 . S
O405 C404 1.229 . S
O406 Zn400 1.969 . S
O406 C409 1.267 . S
O407 Zn400 1.965 . S
O407 C418 1.260 . S
O408 Zn401 1.969 . S
O408 C418 1.258 . S
C409 O406 1.267 . S
C409 O410 1.228 . S
O410 C409 1.228 . S
O411 Zn400 2.024 . S
O411 C402 1.058 . S
C412 O413 1.228 . S
C412 O414 1.267 . S
O413 C412 1.228 . S
O414 Zn401 1.969 . S
O414 C412 1.267 . S
O415 Zn401 1.965 . S
O415 C419 1.260 . S
O416 Zn400 1.969 . S
O416 C419 1.258 . S
O417 Zn401 2.024 . S
O417 C404 1.058 . S
C418 O407 1.260 . S
C418 O408 1.258 . S
C419 O415 1.260 . S
C419 O416 1.258 . S
Zn420 O426 1.969 . S
Zn420 O427 1.965 . S
Zn420 O431 2.024 . S
Zn420 O436 1.969 . S
Zn421 O428 1.969 . S
Zn421 O434 1.969 . S
Zn421 O435 1.965 . S
Zn421 O437 2.026 . S
C422 O423 1.229 . S
C422 O431 1.058 . S
O423 C422 1.229 . S
C424 O425 1.229 . S
C424 O437 1.057 1_545 S
O425 C424 1.229 . S
O426 Zn420 1.969 . S
O426 C429 1.267 . S
O427 Zn420 1.965 . S
O427 C438 1.260 . S
O428 Zn421 1.969 . S
O428 C438 1.258 . S
C429 O426 1.267 . S
C429 O430 1.228 . S
O430 C429 1.228 . S
O431 Zn420 2.024 . S
O431 C422 1.058 . S
C432 O433 1.228 . S
C432 O434 1.267 . S
O433 C432 1.228 . S
O434 Zn421 1.969 . S
O434 C432 1.267 . S
O435 Zn421 1.965 . S
O435 C439 1.260 . S
O436 Zn420 1.969 . S
O436 C439 1.258 . S
O437 Zn421 2.026 . S
O437 C424 1.057 1_565 S
C438 O427 1.260 . S
C438 O428 1.258 . S
C439 O435 1.260 . S
C439 O436 1.258 . S
Zn440 O446 1.969 . S
Zn440 O447 1.965 . S
Zn440 O451 2.024 . S
Zn440 O456 1.969 . S
Zn441 O448 1.969 . S
Zn441 O454 1.969 . S
Zn441 O455 1.965 . S
Zn441 O457 2.024 . S
C442 O443 1.229 . S
C442 O451 1.058 . S
O443 C442 1.229 . S
C444 O445 1.229 . S
C444 O457 1.058 . S
O445 C444 1.229 . S
O446 Zn440 1.969 . S
O446 C449 1.267 . S
O447 Zn440 1.965 . S
O447 C458 1.260 . S
O448 Zn441 1.969 . S
O448 C458 1.258 . S
C449 O446 1.267 . S
C449 O450 1.228 . S
O450 C449 1.228 . S
O451 Zn440 2.024 . S
O451 C442 1.058 . S
C452 O453 1.228 . S
C452 O454 1.267 . S
O453 C452 1.228 . S
O454 Zn441 1.969 . S
O454 C452 1.267 . S
O455 Zn441 1.965 . S
O455 C459 1.260 . S
O456 Zn440 1.969 . S
O456 C459 1.258 . S
O457 Zn441 2.024 . S
O457 C444 1.058 . S
C458 O447 1.260 . S
C458 O448 1.258 . S
C459 O455 1.260 . S
C459 O456 1.258 . S
Zn460 O466 1.969 . S
Zn460 O467 1.965 . S
Zn460 O471 2.024 . S
Zn460 O476 1.969 . S
Zn461 O468 1.969 . S
Zn461 O474 1.969 . S
Zn461 O475 1.965 . S
Zn461 O477 2.024 . S
C462 O463 1.229 . S
C462 O471 1.058 . S
O463 C462 1.229 . S
C464 O465 1.229 . S
C464 O477 1.058 . S
O465 C464 1.229 . S
O466 Zn460 1.969 . S
O466 C469 1.267 . S
O467 Zn460 1.965 . S
O467 C478 1.260 . S
O468 Zn461 1.969 . S
O468 C478 1.258 . S
C469 O466 1.267 . S
C469 O470 1.228 . S
O470 C469 1.228 . S
O471 Zn460 2.024 . S
O471 C462 1.058 . S
C472 O473 1.228 . S
C472 O474 1.267 . S
O473 C472 1.228 . S
O474 Zn461 1.969 . S
O474 C472 1.267 . S
O475 Zn461 1.965 . S
O475 C479 1.260 . S
O476 Zn460 1.969 . S
O476 C479 1.258 . S
O477 Zn461 2.024 . S
O477 C464 1.058 . S
C478 O467 1.260 . S
C478 O468 1.258 . S
C479 O475 1.260 . S
C479 O476 1.258 . S
Zn480 O486 1.969 . S
Zn480 O487 1.965 . S
Zn480 O491 2.024 . S
Zn480 O496 1.969 . S
Zn481 O488 1.969 . S
Zn481 O494 1.969 . S
Zn481 O495 1.965 . S
Zn481 O497 2.024 . S
C482 O483 1.229 . S
C482 O491 1.058 . S
O483 C482 1.229 . S
C484 O485 1.229 . S
C484 O497 1.058 . S
O485 C484 1.229 . S
O486 Zn480 1.969 . S
O486 C489 1.267 . S
O487 Zn480 1.965 . S
O487 C498 1.260 . S
O488 Zn481 1.969 . S
O488 C498 1.258 . S
C489 O486 1.267 . S
C489 O490 1.228 . S
O490 C489 1.228 . S
O491 Zn480 2.024 . S
O491 C482 1.058 . S
C492 O493 1.228 . S
C492 O494 1.267 . S
O493 C492 1.228 . S
O494 Zn481 1.969 . S
O494 C492 1.267 . S
O495 Zn481 1.965 . S
O495 C499 1.260 . S
O496 Zn480 1.969 . S
O496 C499 1.258 . S
O497 Zn481 2.024 . S
O497 C484 1.058 . S
C498 O487 1.260 . S
C498 O488 1.258 . S
C499 O495 1.260 . S
C499 O496 1.258 . S
Zn500 O506 1.969 . S
Zn500 O507 1.965 . S
Zn500 O511 2.024 . S
Zn500 O516 1.969 . S
Zn501 O508 1.969 . S
Zn501 O514 1.969 . S
Zn501 O515 1.965 . S
Zn501 O517 2.024 . S
C502 O503 1.229 . S
C502 O511 1.058 . S
O503 C502 1.229 . S
C504 O505 1.229 . S
C504 O517 1.058 . S
O505 C504 1.229 . S
O506 Zn500 1.969 . S
O506 C509 1.267 . S
O507 Zn500 1.965 . S
O507 C518 1.260 . S
O508 Zn501 1.969 . S
O508 C518 1.258 . S
C509 O506 1.267 . S
C509 O510 1.228 . S
O510 C509 1.228 . S
O511 Zn500 2.024 . S
O511 C502 1.058 . S
C512 O513 1.228 . S
C512 O514 1.267 . S
O513 C512 1.228 . S
O514 Zn501 1.969 . S
O514 C512 1.267 . S
O515 Zn501 1.965 . S
O515 C519 1.260 . S
O516 Zn500 1.969 . S
O516 C519 1.258 . S
O517 Zn501 2.024 . S
O517 C504 1.058 . S
C518 O507 1.260 . S
C518 O508 1.258 . S
C519 O515 1.260 . S
C519 O516 1.258 . S
Zn520 O526 1.969 . S
Zn520 O527 1.965 . S
Zn520 O531 2.024 . S
Zn520 O536 1.969 . S
Zn521 O528 1.969 . S
Zn521 O534 1.969 1_655 S
Zn521 O535 1.965 . S
Zn521 O537 2.024 . S
C522 O523 1.229 . S
C522 O531 1.058 . S
O523 C522 1.229 . S
C524 O525 1.229 . S
C524 O537 1.058 . S
O525 C524 1.229 . S
O526 Zn520 1.969 . S
O526 C529 1.267 . S
O527 Zn520 1.965 . S
O527 C538 1.260 . S
O528 Zn521 1.969 . S
O528 C538 1.258 . S
C529 O526 1.267 . S
C529 O530 1.228 . S
O530 C529 1.228 . S
O531 Zn520 2.024 . S
O531 C522 1.058 . S
C532 O533 1.228 . S
C532 O534 1.267 . S
O533 C532 1.228 . S
O534 Zn521 1.969 1_455 S
O534 C532 1.267 . S
O535 Zn521 1.965 . S
O535 C539 1.260 . S
O536 Zn520 1.969 . S
O536 C539 1.258 . S
O537 Zn521 2.024 . S
O537 C524 1.058 . S
C538 O527 1.260 . S
C538 O528 1.258 . S
C539 O535 1.260 . S
C539 O536 1.258 . S
Zn540 O546 1.969 . S
Zn540 O547 1.965 . S
Zn540 O551 2.024 . S
Zn540 O556 1.969 . S
Zn541 O548 1.969 . S
Zn541 O554 1.969 . S
Zn541 O555 1.965 . S
Zn541 O557 2.024 . S
C542 O543 1.229 . S
C542 O551 1.058 . S
O543 C542 1.229 . S
C544 O545 1.229 . S
C544 O557 1.058 . S
O545 C544 1.229 . S
O546 Zn540 1.969 . S
O546 C549 1.267 . S
O547 Zn540 1.965 . S
O547 C558 1.260 . S
O548 Zn541 1.969 . S
O548 C558 1.258 . S
C549 O546 1.267 . S
C549 O550 1.228 . S
O550 C549 1.228 . S
O551 Zn540 2.024 . S
O551 C542 1.058 . S
C552 O553 1.228 . S
C552 O554 1.267 . S
O553 C552 1.228 . S
O554 Zn541 1.969 . S
O554 C552 1.267 . S
O555 Zn541 1.965 . S
O555 C559 1.260 . S
O556 Zn540 1.969 . S
O556 C559 1.258 . S
O557 Zn541 2.024 . S
O557 C544 1.058 . S
C558 O547 1.260 . S
C558 O548 1.258 . S
C559 O555 1.260 . S
C559 O556 1.258 . S
Zn560 O566 1.969 . S
Zn560 O567 1.965 . S
Zn560 O571 2.023 . S
Zn560 O576 1.969 . S
Zn561 O568 1.969 . S
Zn561 O574 1.969 . S
Zn561 O575 1.965 . S
Zn561 O577 2.024 . S
C562 O563 1.229 . S
C562 O571 1.058 1_455 S
O563 C562 1.229 . S
C564 O565 1.229 . S
C564 O577 1.058 . S
O565 C564 1.229 . S
O566 Zn560 1.969 . S
O566 C569 1.267 . S
O567 Zn560 1.965 . S
O567 C578 1.260 . S
O568 Zn561 1.969 . S
O568 C578 1.258 . S
C569 O566 1.267 . S
C569 O570 1.228 . S
O570 C569 1.228 . S
O571 Zn560 2.023 . S
O571 C562 1.058 1_655 S
C572 O573 1.228 . S
C572 O574 1.267 . S
O573 C572 1.228 . S
O574 Zn561 1.969 . S
O574 C572 1.267 . S
O575 Zn561 1.965 . S
O575 C579 1.260 . S
O576 Zn560 1.969 . S
O576 C579 1.258 . S
O577 Zn561 2.024 . S
O577 C564 1.058 . S
C578 O567 1.260 . S
C578 O568 1.258 . S
C579 O575 1.260 . S
C579 O576 1.258 . S
Zn580 O586 1.969 . S
Zn580 O587 1.965 . S
Zn580 O591 2.024 . S
Zn580 O596 1.969 . S
Zn581 O588 1.969 . S
Zn581 O594 1.969 . S
Zn581 O595 1.965 . S
Zn581 O597 2.024 . S
C582 O583 1.229 . S
C582 O591 1.058 . S
O583 C582 1.229 . S
C584 O585 1.229 . S
C584 O597 1.058 . S
O585 C584 1.229 . S
O586 Zn580 1.969 . S
O586 C589 1.267 . S
O587 Zn580 1.965 . S
O587 C598 1.260 . S
O588 Zn581 1.969 . S
O588 C598 1.258 . S
C589 O586 1.267 . S
C589 O590 1.228 . S
O590 C589 1.228 . S
O591 Zn580 2.024 . S
O591 C582 1.058 . S
C592 O593 1.228 . S
C592 O594 1.267 . S
O593 C592 1.228 . S
O594 Zn581 1.969 . S
O594 C592 1.267 . S
O595 Zn581 1.965 . S
O595 C599 1.260 . S
O596 Zn580 1.969 . S
O596 C599 1.258 . S
O597 Zn581 2.024 . S
O597 C584 1.058 . S
C598 O587 1.260 . S
C598 O588 1.258 . S
C599 O595 1.260 . S
C599 O596 1.258 . S
Zn600 O606 1.969 . S
Zn600 O607 1.965 . S
Zn600 O611 2.024 . S
Zn600 O616 1.969 . S
Zn601 O608 1.969 . S
Zn601 O614 1.969 . S
Zn601 O615 1.965 . S
Zn601 O617 2.026 . S
C602 O603 1.229 . S
C602 O611 1.058 . S
O603 C602 1.229 . S
C604 O605 1.229 . S
C604 O617 1.057 1_455 S
O605 C604 1.229 . S
O606 Zn600 1.969 . S
O606 C609 1.267 . S
O607 Zn600 1.965 . S
O607 C618 1.260 . S
O608 Zn601 1.969 . S
O608 C618 1.258 . S
C609 O606 1.267 . S
C609 O610 1.228 . S
O610 C609 1.228 . S
O611 Zn600 2.024 . S
O611 C602 1.058 . S
C612 O613 1.228 . S
C612 O614 1.267 . S
O613 C612 1.228 . S
O614 Zn601 1.969 . S
O614 C612 1.267 . S
O615 Zn601 1.965 . S
O615 C619 1.260 . S
O616 Zn600 1.969 . S
O616 C619 1.258 . S
O617 Zn601 2.026 . S
O617 C604 1.057 1_655 S
C618 O607 1.260 . S
C618 O608 1.258 . S
C619 O615 1.260 . S
C619 O616 1.258 . S
Zn620 O626 1.969 . S
Zn620 O627 1.965 . S
Zn620 O631 2.024 . S
Zn620 O636 1.969 . S
Zn621 O628 1.969 . S
Zn621 O634 1.969 . S
Zn621 O635 1.965 . S
Zn621 O637 2.024 . S
C622 O623 1.229 . S
C622 O631 1.058 . S
O623 C622 1.229 . S
C624 O625 1.229 . S
C624 O637 1.058 . S
O625 C624 1.229 . S
O626 Zn620 1.969 . S
O626 C629 1.267 . S
O627 Zn620 1.965 . S
O627 C638 1.260 . S
O628 Zn621 1.969 . S
O628 C638 1.258 . S
C629 O626 1.267 . S
C629 O630 1.228 . S
O630 C629 1.228 . S
O631 Zn620 2.024 . S
O631 C622 1.058 . S
C632 O633 1.228 . S
C632 O634 1.267 . S
O633 C632 1.228 . S
O634 Zn621 1.969 . S
O634 C632 1.267 . S
O635 Zn621 1.965 . S
O635 C639 1.260 . S
O636 Zn620 1.969 . S
O636 C639 1.258 . S
O637 Zn621 2.024 . S
O637 C624 1.058 . S
C638 O627 1.260 . S
C638 O628 1.258 . S
C639 O635 1.260 . S
C639 O636 1.258 . S
Zn640 O646 1.969 . S
Zn640 O647 1.965 . S
Zn640 O651 2.024 . S
Zn640 O656 1.969 . S
Zn641 O648 1.969 . S
Zn641 O654 1.969 . S
Zn641 O655 1.965 . S
Zn641 O657 2.024 . S
C642 O643 1.229 . S
C642 O651 1.058 . S
O643 C642 1.229 . S
C644 O645 1.229 . S
C644 O657 1.058 . S
O645 C644 1.229 . S
O646 Zn640 1.969 . S
O646 C649 1.267 . S
O647 Zn640 1.965 . S
O647 C658 1.260 . S
O648 Zn641 1.969 . S
O648 C658 1.258 . S
C649 O646 1.267 . S
C649 O650 1.228 . S
O650 C649 1.228 . S
O651 Zn640 2.024 . S
O651 C642 1.058 . S
C652 O653 1.228 . S
C652 O654 1.267 . S
O653 C652 1.228 . S
O654 Zn641 1.969 . S
O654 C652 1.267 . S
O655 Zn641 1.965 . S
O655 C659 1.260 . S
O656 Zn640 1.969 . S
O656 C659 1.258 . S
O657 Zn641 2.024 . S
O657 C644 1.058 . S
C658 O647 1.260 . S
C658 O648 1.258 . S
C659 O655 1.260 . S
C659 O656 1.258 . S
Zn660 O666 1.969 . S
Zn660 O667 1.965 . S
Zn660 O671 2.024 . S
Zn660 O676 1.969 . S
Zn661 O668 1.969 . S
Zn661 O674 1.969 . S
Zn661 O675 1.965 . S
Zn661 O677 2.024 . S
C662 O663 1.229 . S
C662 O671 1.058 . S
O663 C662 1.229 . S
C664 O665 1.229 . S
C664 O677 1.058 . S
O665 C664 1.229 . S
O666 Zn660 1.969 . S
O666 C669 1.267 . S
O667 Zn660 1.965 . S
O667 C678 1.260 . S
O668 Zn661 1.969 . S
O668 C678 1.258 . S
C669 O666 1.267 . S
C669 O670 1.228 . S
O670 C669 1.228 . S
O671 Zn660 2.024 . S
O671 C662 1.058 . S
C672 O673 1.228 . S
C672 O674 1.267 . S
O673 C672 1.228 . S
O674 Zn661 1.969 . S
O674 C672 1.267 . S
O675 Zn661 1.965 . S
O675 C679 1.260 . S
O676 Zn660 1.969 . S
O676 C679 1.258 . S
O677 Zn661 2.024 . S
O677 C664 1.058 . S
C678 O667 1.260 . S
C678 O668 1.258 . S
C679 O675 1.260 . S
C679 O676 1.258 . S
Zn680 O686 1.969 . S
Zn680 O687 1.965 . S
Zn680 O691 2.024 . S
Zn680 O696 1.969 . S
Zn681 O688 1.969 . S
Zn681 O694 1.969 . S
Zn681 O695 1.965 . S
Zn681 O697 2.024 . S
C682 O683 1.229 . S
C682 O691 1.058 . S
O683 C682 1.229 . S
C684 O685 1.229 . S
C684 O697 1.058 . S
O685 C684 1.229 . S
O686 Zn680 1.969 . S
O686 C689 1.267 . S
O687 Zn680 1.965 . S
O687 C698 1.260 . S
O688 Zn681 1.969 . S
O688 C698 1.258 . S
C689 O686 1.267 . S
C689 O690 1.228 . S
O690 C689 1.228 . S
O691 Zn680 2.024 . S
O691 C682 1.058 . S
C692 O693 1.228 . S
C692 O694 1.267 . S
O693 C692 1.228 . S
O694 Zn681 1.969 . S
O694 C692 1.267 . S
O695 Zn681 1.965 . S
O695 C699 1.260 . S
O696 Zn680 1.969 . S
O696 C699 1.258 . S
O697 Zn681 2.024 . S
O697 C684 1.058 . S
C698 O687 1.260 . S
C698 O688 1.258 . S
C699 O695 1.260 . S
C699 O696 1.258 . S
Zn700 O706 1.969 1_655 S
Zn700 O707 1.965 . S
Zn700 O711 2.024 . S
Zn700 O716 1.969 . S
Zn701 O708 1.969 . S
Zn701 O714 1.969 . S
Zn701 O715 1.965 . S
Zn701 O717 2.024 . S
C702 O703 1.229 . S
C702 O711 1.058 . S
O703 C702 1.229 . S
C704 O705 1.229 . S
C704 O717 1.058 . S
O705 C704 1.229 . S
O706 Zn700 1.969 1_455 S
O706 C709 1.267 . S
O707 Zn700 1.965 . S
O707 C718 1.260 . S
O708 Zn701 1.969 . S
O708 C718 1.258 . S
C709 O706 1.267 . S
C709 O710 1.228 . S
O710 C709 1.228 . S
O711 Zn700 2.024 . S
O711 C702 1.058 . S
C712 O713 1.228 . S
C712 O714 1.267 . S
O713 C712 1.228 . S
O714 Zn701 1.969 . S
O714 C712 1.267 . S
O715 Zn701 1.965 . S
O715 C719 1.260 . S
O716 Zn700 1.969 . S
O716 C719 1.258 . S
O717 Zn701 2.024 . S
O717 C704 1.058 . S
C718 O707 1.260 . S
C718 O708 1.258 . S
C719 O715 1.260 . S
C719 O716 1.258 . S
C720 C721 1.369 . S
C720 C722 1.419 . S
C720 H724 0.930 . S
C721 C720 1.369 . S
C721 C730 1.429 . S
C722 C720 1.419 . S
C722 C723 1.363 . S
C722 H725 0.929 . S
C723 C722 1.363 . S
C723 C729 1.428 . S
H724 C720 0.930 . S
H725 C722 0.929 . S
S726 N727 1.613 1_565 S
S726 N728 1.610 . S
N727 S726 1.613 1_545 S
N727 C730 1.350 . S
N728 S726 1.610 . S
N728 C729 1.351 1_565 S
C729 C723 1.428 . S
C729 N728 1.351 1_545 S
C729 C730 1.434 . S
C730 C721 1.429 . S
C730 N727 1.350 . S
C730 C729 1.434 . S
C731 C732 1.369 . S
C731 C733 1.419 . S
C731 H735 0.930 . S
C732 C731 1.369 . S
C732 C741 1.429 . S
C733 C731 1.419 . S
C733 C734 1.363 . S
C733 H736 0.929 . S
C734 C733 1.363 . S
C734 C740 1.428 1_655 S
H735 C731 0.930 . S
H736 C733 0.929 . S
S737 N738 1.613 . S
S737 N739 1.610 . S
N738 S737 1.613 . S
N738 C741 1.350 1_455 S
N739 S737 1.610 . S
N739 C740 1.351 . S
C740 C734 1.428 1_455 S
C740 N739 1.351 . S
C740 C741 1.434 1_455 S
C741 C732 1.429 . S
C741 N738 1.350 1_655 S
C741 C740 1.434 1_655 S
C742 C743 1.369 . S
C742 C744 1.419 . S
C742 H746 0.930 . S
C743 C742 1.369 . S
C743 C752 1.429 . S
C744 C742 1.419 . S
C744 C745 1.363 . S
C744 H747 0.929 . S
C745 C744 1.363 . S
C745 C751 1.428 . S
H746 C742 0.930 . S
H747 C744 0.929 . S
S748 N749 1.613 . S
S748 N750 1.610 . S
N749 S748 1.613 . S
N749 C752 1.350 . S
N750 S748 1.610 . S
N750 C751 1.351 . S
C751 C745 1.428 . S
C751 N750 1.351 . S
C751 C752 1.434 . S
C752 C743 1.429 . S
C752 N749 1.350 . S
C752 C751 1.434 . S
C753 C754 1.369 . S
C753 C755 1.419 . S
C753 H757 0.930 . S
C754 C753 1.369 . S
C754 C763 1.429 . S
C755 C753 1.419 . S
C755 C756 1.363 . S
C755 H758 0.929 . S
C756 C755 1.363 . S
C756 C762 1.428 . S
H757 C753 0.930 . S
H758 C755 0.929 . S
S759 N760 1.613 . S
S759 N761 1.610 1_655 S
N760 S759 1.613 . S
N760 C763 1.350 1_655 S
N761 S759 1.610 1_455 S
N761 C762 1.351 . S
C762 C756 1.428 . S
C762 N761 1.351 . S
C762 C763 1.434 . S
C763 C754 1.429 . S
C763 N760 1.350 1_455 S
C763 C762 1.434 . S
C764 C765 1.369 . S
C764 C766 1.419 . S
C764 H768 0.930 . S
C765 C764 1.369 . S
C765 C774 1.429 . S
C766 C764 1.419 . S
C766 C767 1.363 . S
C766 H769 0.929 . S
C767 C766 1.363 . S
C767 C773 1.428 . S
H768 C764 0.930 . S
H769 C766 0.929 . S
S770 N771 1.613 . S
S770 N772 1.610 . S
N771 S770 1.613 . S
N771 C774 1.350 . S
N772 S770 1.610 . S
N772 C773 1.351 . S
C773 C767 1.428 . S
C773 N772 1.351 . S
C773 C774 1.434 . S
C774 C765 1.429 . S
C774 N771 1.350 . S
C774 C773 1.434 . S
C775 C776 1.369 . S
C775 C777 1.419 . S
C775 H779 0.930 . S
C776 C775 1.369 . S
C776 C785 1.429 . S
C777 C775 1.419 . S
C777 C778 1.363 . S
C777 H780 0.929 . S
C778 C777 1.363 . S
C778 C784 1.428 1_565 S
H779 C775 0.930 . S
H780 C777 0.929 . S
S781 N782 1.613 . S
S781 N783 1.610 . S
N782 S781 1.613 . S
N782 C785 1.350 1_545 S
N783 S781 1.610 . S
N783 C784 1.351 . S
C784 C778 1.428 1_545 S
C784 N783 1.351 . S
C784 C785 1.434 1_545 S
C785 C776 1.429 . S
C785 N782 1.350 1_565 S
C785 C784 1.434 1_565 S
C786 C787 1.369 . S
C786 C788 1.419 . S
C786 H790 0.930 . S
C787 C786 1.369 . S
C787 C796 1.429 . S
C788 C786 1.419 . S
C788 C789 1.363 . S
C788 H791 0.929 . S
C789 C788 1.363 . S
C789 C795 1.428 . S
H790 C786 0.930 . S
H791 C788 0.929 . S
S792 N793 1.613 . S
S792 N794 1.610 1_545 S
N793 S792 1.613 . S
N793 C796 1.350 1_545 S
N794 S792 1.610 1_565 S
N794 C795 1.351 . S
C795 C789 1.428 . S
C795 N794 1.351 . S
C795 C796 1.434 . S
C796 C787 1.429 . S
C796 N793 1.350 1_565 S
C796 C795 1.434 . S
C797 C798 1.369 . S
C797 C799 1.419 . S
C797 H801 0.930 . S
C798 C797 1.369 . S
C798 C807 1.429 . S
C799 C797 1.419 . S
C799 C800 1.363 . S
C799 H802 0.929 . S
C800 C799 1.363 . S
C800 C806 1.428 . S
H801 C797 0.930 . S
H802 C799 0.929 . S
S803 N804 1.613 . S
S803 N805 1.610 . S
N804 S803 1.613 . S
N804 C807 1.350 . S
N805 S803 1.610 . S
N805 C806 1.351 . S
C806 C800 1.428 . S
C806 N805 1.351 . S
C806 C807 1.434 . S
C807 C798 1.429 . S
C807 N804 1.350 . S
C807 C806 1.434 . S
C808 C809 1.369 . S
C808 C810 1.419 . S
C808 H812 0.930 . S
C809 C808 1.369 . S
C809 C818 1.429 . S
C810 C808 1.419 . S
C810 C811 1.363 . S
C810 H813 0.929 . S
C811 C810 1.363 . S
C811 C817 1.428 . S
H812 C808 0.930 . S
H813 C810 0.929 . S
S814 N815 1.613 . S
S814 N816 1.610 . S
N815 S814 1.613 . S
N815 C818 1.350 . S
N816 S814 1.610 . S
N816 C817 1.351 . S
C817 C811 1.428 . S
C817 N816 1.351 . S
C817 C818 1.434 . S
C818 C809 1.429 . S
C818 N815 1.350 . S
C818 C817 1.434 . S
C819 C820 1.369 . S
C819 C821 1.419 . S
C819 H823 0.930 . S
C820 C819 1.369 . S
C820 C829 1.429 . S
C821 C819 1.419 . S
C821 C822 1.363 . S
C821 H824 0.929 . S
C822 C821 1.363 . S
C822 C828 1.428 . S
H823 C819 0.930 . S
H824 C821 0.929 . S
S825 N826 1.613 . S
S825 N827 1.610 . S
N826 S825 1.613 . S
N826 C829 1.350 . S
N827 S825 1.610 . S
N827 C828 1.351 . S
C828 C822 1.428 . S
C828 N827 1.351 . S
C828 C829 1.434 . S
C829 C820 1.429 . S
C829 N826 1.350 . S
C829 C828 1.434 . S
C830 C831 1.369 . S
C830 C832 1.419 . S
C830 H834 0.930 . S
C831 C830 1.369 . S
C831 C840 1.429 . S
C832 C830 1.419 . S
C832 C833 1.363 . S
C832 H835 0.929 . S
C833 C832 1.363 . S
C833 C839 1.428 . S
H834 C830 0.930 . S
H835 C832 0.929 . S
S836 N837 1.613 . S
S836 N838 1.610 . S
N837 S836 1.613 . S
N837 C840 1.350 . S
N838 S836 1.610 . S
N838 C839 1.351 . S
C839 C833 1.428 . S
C839 N838 1.351 . S
C839 C840 1.434 . S
C840 C831 1.429 . S
C840 N837 1.350 . S
C840 C839 1.434 . S
C841 C842 1.369 . S
C841 C843 1.419 . S
C841 H845 0.930 . S
C842 C841 1.369 . S
C842 C851 1.429 . S
C843 C841 1.419 . S
C843 C844 1.363 . S
C843 H846 0.929 . S
C844 C843 1.363 . S
C844 C850 1.428 . S
H845 C841 0.930 . S
H846 C843 0.929 . S
S847 N848 1.613 . S
S847 N849 1.610 . S
N848 S847 1.613 . S
N848 C851 1.350 . S
N849 S847 1.610 . S
N849 C850 1.351 . S
C850 C844 1.428 . S
C850 N849 1.351 . S
C850 C851 1.434 . S
C851 C842 1.429 . S
C851 N848 1.350 . S
C851 C850 1.434 . S
C852 C853 1.369 . S
C852 C854 1.419 . S
C852 H856 0.930 . S
C853 C852 1.369 . S
C853 C862 1.429 . S
C854 C852 1.419 . S
C854 C855 1.363 . S
C854 H857 0.929 . S
C855 C854 1.363 . S
C855 C861 1.428 . S
H856 C852 0.930 . S
H857 C854 0.929 . S
S858 N859 1.613 . S
S858 N860 1.610 . S
N859 S858 1.613 . S
N859 C862 1.350 . S
N860 S858 1.610 . S
N860 C861 1.351 . S
C861 C855 1.428 . S
C861 N860 1.351 . S
C861 C862 1.434 . S
C862 C853 1.429 . S
C862 N859 1.350 . S
C862 C861 1.434 . S
C863 C864 1.369 1_545 S
C863 C865 1.419 . S
C863 H867 0.930 . S
C864 C863 1.369 1_565 S
C864 C873 1.429 . S
C865 C863 1.419 . S
C865 C866 1.363 . S
C865 H868 0.929 . S
C866 C865 1.363 . S
C866 C872 1.428 . S
H867 C863 0.930 . S
H868 C865 0.929 . S
S869 N870 1.613 . S
S869 N871 1.610 1_565 S
N870 S869 1.613 . S
N870 C873 1.350 . S
N871 S869 1.610 1_545 S
N871 C872 1.351 . S
C872 C866 1.428 . S
C872 N871 1.351 . S
C872 C873 1.434 1_545 S
C873 C864 1.429 . S
C873 N870 1.350 . S
C873 C872 1.434 1_565 S
C874 C875 1.369 1_455 S
C874 C876 1.419 . S
C874 H878 0.930 . S
C875 C874 1.369 1_655 S
C875 C884 1.429 . S
C876 C874 1.419 . S
C876 C877 1.363 . S
C876 H879 0.929 . S
C877 C876 1.363 . S
C877 C883 1.428 . S
H878 C874 0.930 . S
H879 C876 0.929 . S
S880 N881 1.613 . S
S880 N882 1.610 1_655 S
N881 S880 1.613 . S
N881 C884 1.350 . S
N882 S880 1.610 1_455 S
N882 C883 1.351 . S
C883 C877 1.428 . S
C883 N882 1.351 . S
C883 C884 1.434 1_455 S
C884 C875 1.429 . S
C884 N881 1.350 . S
C884 C883 1.434 1_655 S
C885 C886 1.369 . S
C885 C887 1.419 . S
C885 H889 0.930 . S
C886 C885 1.369 . S
C886 C895 1.429 . S
C887 C885 1.419 . S
C887 C888 1.363 . S
C887 H890 0.929 . S
C888 C887 1.363 . S
C888 C894 1.428 . S
H889 C885 0.930 . S
H890 C887 0.929 . S
S891 N892 1.613 . S
S891 N893 1.610 . S
N892 S891 1.613 . S
N892 C895 1.350 . S
N893 S891 1.610 . S
N893 C894 1.351 . S
C894 C888 1.428 . S
C894 N893 1.351 . S
C894 C895 1.434 . S
C895 C886 1.429 . S
C895 N892 1.350 . S
C895 C894 1.434 . S
C896 C897 1.369 . S
C896 C898 1.419 1_565 S
C896 H900 0.930 . S
C897 C896 1.369 . S
C897 C906 1.429 1_565 S
C898 C896 1.419 1_545 S
C898 C899 1.363 . S
C898 H901 0.929 . S
C899 C898 1.363 . S
C899 C905 1.428 . S
H900 C896 0.930 . S
H901 C898 0.929 . S
S902 N903 1.613 . S
S902 N904 1.610 . S
N903 S902 1.613 . S
N903 C906 1.350 . S
N904 S902 1.610 . S
N904 C905 1.351 . S
C905 C899 1.428 . S
C905 N904 1.351 . S
C905 C906 1.434 . S
C906 C897 1.429 1_545 S
C906 N903 1.350 . S
C906 C905 1.434 . S
C907 C908 1.369 1_455 S
C907 C909 1.419 . S
C907 H911 0.930 1_455 S
C908 C907 1.369 1_655 S
C908 C917 1.429 1_655 S
C909 C907 1.419 . S
C909 C910 1.363 . S
C909 H912 0.929 . S
C910 C909 1.363 . S
C910 C916 1.428 . S
H911 C907 0.930 1_655 S
H912 C909 0.929 . S
S913 N914 1.613 1_455 S
S913 N915 1.610 . S
N914 S913 1.613 1_655 S
N914 C917 1.350 1_655 S
N915 S913 1.610 . S
N915 C916 1.351 . S
C916 C910 1.428 . S
C916 N915 1.351 . S
C916 C917 1.434 . S
C917 C908 1.429 1_455 S
C917 N914 1.350 1_455 S
C917 C916 1.434 . S
C918 C919 1.369 1_565 S
C918 C920 1.417 1_564 S
C918 H922 0.930 . S
C919 C918 1.369 1_545 S
C919 C928 1.429 . S
C920 C918 1.417 1_546 S
C920 C921 1.383 . S
C920 H923 0.910 1_545 S
C921 C920 1.383 . S
C921 C927 1.428 . S
H922 C918 0.930 . S
H923 C920 0.910 1_565 S
S924 N925 1.613 . S
S924 N926 1.610 1_554 S
N925 S924 1.613 . S
N925 C928 1.350 . S
N926 S924 1.610 1_556 S
N926 C927 1.351 . S
C927 C921 1.428 . S
C927 N926 1.351 . S
C927 C928 1.434 1_556 S
C928 C919 1.429 . S
C928 N925 1.350 . S
C928 C927 1.434 1_554 S
C929 C930 1.369 . S
C929 C931 1.419 1_556 S
C929 H933 0.930 . S
C930 C929 1.369 . S
C930 C939 1.429 . S
C931 C929 1.419 1_554 S
C931 C932 1.363 . S
C931 H934 0.929 . S
C932 C931 1.363 . S
C932 C938 1.428 . S
H933 C929 0.930 . S
H934 C931 0.929 . S
S935 N936 1.613 1_554 S
S935 N937 1.610 . S
N936 S935 1.613 1_556 S
N936 C939 1.350 . S
N937 S935 1.610 . S
N937 C938 1.351 . S
C938 C932 1.428 . S
C938 N937 1.351 . S
C938 C939 1.434 1_554 S
C939 C930 1.429 . S
C939 N936 1.350 . S
C939 C938 1.434 1_556 S
C940 C941 1.369 . S
C940 C942 1.419 1_554 S
C940 H944 0.930 . S
C941 C940 1.369 . S
C941 C950 1.429 . S
C942 C940 1.419 1_556 S
C942 C943 1.363 . S
C942 H945 0.929 . S
C943 C942 1.363 . S
C943 C949 1.428 . S
H944 C940 0.930 . S
H945 C942 0.929 . S
S946 N947 1.539 1_556 S
S946 N948 1.683 . S
N947 S946 1.539 1_554 S
N947 C950 1.350 . S
N948 S946 1.683 . S
N948 C949 1.351 . S
C949 C943 1.428 . S
C949 N948 1.351 . S
C949 C950 1.434 1_556 S
C950 C941 1.429 . S
C950 N947 1.350 . S
C950 C949 1.434 1_554 S
C951 C952 1.369 . S
C951 C953 1.419 . S
C951 H955 0.930 . S
C952 C951 1.369 . S
C952 C961 1.429 1_455 S
C953 C951 1.419 . S
C953 C954 1.363 . S
C953 H956 0.929 . S
C954 C953 1.363 . S
C954 C960 1.428 1_455 S
H955 C951 0.930 . S
H956 C953 0.929 . S
S957 N958 1.613 . S
S957 N959 1.610 . S
N958 S957 1.613 . S
N958 C961 1.350 . S
N959 S957 1.610 . S
N959 C960 1.351 . S
C960 C954 1.428 1_655 S
C960 N959 1.351 . S
C960 C961 1.434 . S
C961 C952 1.429 1_655 S
C961 N958 1.350 . S
C961 C960 1.434 . S
C962 C963 1.369 . S
C962 C964 1.419 . S
C962 H966 0.930 . S
C963 C962 1.369 . S
C963 C972 1.429 . S
C964 C962 1.419 . S
C964 C965 1.363 . S
C964 H967 0.929 . S
C965 C964 1.363 . S
C965 C971 1.428 . S
H966 C962 0.930 . S
H967 C964 0.929 . S
S968 N969 1.613 . S
S968 N970 1.610 . S
N969 S968 1.613 . S
N969 C972 1.350 . S
N970 S968 1.610 . S
N970 C971 1.351 . S
C971 C965 1.428 . S
C971 N970 1.351 . S
C971 C972 1.434 . S
C972 C963 1.429 . S
C972 N969 1.350 . S
C972 C971 1.434 . S
C973 C974 1.369 . S
C973 C975 1.419 . S
C973 H977 0.930 1_545 S
C974 C973 1.369 . S
C974 C983 1.429 . S
C975 C973 1.419 . S
C975 C976 1.363 . S
C975 H978 0.929 1_545 S
C976 C975 1.363 . S
C976 C982 1.428 . S
H977 C973 0.930 1_565 S
H978 C975 0.929 1_565 S
S979 N980 1.613 . S
S979 N981 1.610 . S
N980 S979 1.613 . S
N980 C983 1.350 . S
N981 S979 1.610 . S
N981 C982 1.351 . S
C982 C976 1.428 . S
C982 N981 1.351 . S
C982 C983 1.434 . S
C983 C974 1.429 . S
C983 N980 1.350 . S
C983 C982 1.434 . S
C984 C985 1.369 . S
C984 C986 1.419 . S
C984 H988 0.930 . S
C985 C984 1.369 . S
C985 C994 1.429 . S
C986 C984 1.419 . S
C986 C987 1.363 . S
C986 H989 0.929 . S
C987 C986 1.363 . S
C987 C993 1.428 . S
H988 C984 0.930 . S
H989 C986 0.929 . S
S990 N991 1.613 . S
S990 N992 1.610 . S
N991 S990 1.613 . S
N991 C994 1.350 . S
N992 S990 1.610 . S
N992 C993 1.351 . S
C993 C987 1.428 . S
C993 N992 1.351 . S
C993 C994 1.434 . S
C994 C985 1.429 . S
C994 N991 1.350 . S
C994 C993 1.434 . S
C995 C996 1.369 . S
C995 C997 1.419 . S
C995 H999 0.930 . S
C996 C995 1.369 . S
C996 C1005 1.429 . S
C997 C995 1.419 . S
C997 C998 1.363 . S
C997 H1000 0.929 . S
C998 C997 1.363 . S
C998 C1004 1.428 . S
H999 C995 0.930 . S
H1000 C997 0.929 . S
S1001 N1002 1.613 . S
S1001 N1003 1.610 . S
N1002 S1001 1.613 . S
N1002 C1005 1.350 . S
N1003 S1001 1.610 . S
N1003 C1004 1.351 . S
C1004 C998 1.428 . S
C1004 N1003 1.351 . S
C1004 C1005 1.434 . S
C1005 C996 1.429 . S
C1005 N1002 1.350 . S
C1005 C1004 1.434 . S
C1006 C1007 1.369 . S
C1006 C1008 1.419 . S
C1006 H1010 0.930 . S
C1007 C1006 1.369 . S
C1007 C1016 1.429 . S
C1008 C1006 1.419 . S
C1008 C1009 1.363 . S
C1008 H1011 0.929 . S
C1009 C1008 1.363 . S
C1009 C1015 1.428 . S
H1010 C1006 0.930 . S
H1011 C1008 0.929 . S
S1012 N1013 1.613 . S
S1012 N1014 1.610 . S
N1013 S1012 1.613 . S
N1013 C1016 1.350 . S
N1014 S1012 1.610 . S
N1014 C1015 1.351 . S
C1015 C1009 1.428 . S
C1015 N1014 1.351 . S
C1015 C1016 1.434 . S
C1016 C1007 1.429 . S
C1016 N1013 1.350 . S
C1016 C1015 1.434 . S
C1017 C1018 1.369 . S
C1017 C1019 1.419 . S
C1017 H1021 0.930 . S
C1018 C1017 1.369 . S
C1018 C1027 1.429 . S
C1019 C1017 1.419 . S
C1019 C1020 1.363 . S
C1019 H1022 0.929 . S
C1020 C1019 1.363 . S
C1020 C1026 1.428 . S
H1021 C1017 0.930 . S
H1022 C1019 0.929 . S
S1023 N1024 1.613 . S
S1023 N1025 1.610 . S
N1024 S1023 1.613 . S
N1024 C1027 1.350 . S
N1025 S1023 1.610 . S
N1025 C1026 1.351 . S
C1026 C1020 1.428 . S
C1026 N1025 1.351 . S
C1026 C1027 1.434 . S
C1027 C1018 1.429 . S
C1027 N1024 1.350 . S
C1027 C1026 1.434 . S
C1028 C1029 1.369 . S
C1028 C1030 1.419 . S
C1028 H1032 0.930 . S
C1029 C1028 1.369 . S
C1029 C1038 1.429 . S
C1030 C1028 1.419 . S
C1030 C1031 1.363 . S
C1030 H1033 0.929 . S
C1031 C1030 1.363 . S
C1031 C1037 1.428 . S
H1032 C1028 0.930 . S
H1033 C1030 0.929 . S
S1034 N1035 1.613 . S
S1034 N1036 1.610 . S
N1035 S1034 1.613 . S
N1035 C1038 1.350 . S
N1036 S1034 1.610 . S
N1036 C1037 1.351 . S
C1037 C1031 1.428 . S
C1037 N1036 1.351 . S
C1037 C1038 1.434 . S
C1038 C1029 1.429 . S
C1038 N1035 1.350 . S
C1038 C1037 1.434 . S
C1039 C1040 1.369 . S
C1039 C1041 1.419 . S
C1039 H1043 0.930 . S
C1040 C1039 1.369 . S
C1040 C1049 1.429 . S
C1041 C1039 1.419 . S
C1041 C1042 1.363 . S
C1041 H1044 0.929 . S
C1042 C1041 1.363 . S
C1042 C1048 1.428 . S
H1043 C1039 0.930 . S
H1044 C1041 0.929 . S
S1045 N1046 1.613 . S
S1045 N1047 1.610 . S
N1046 S1045 1.613 . S
N1046 C1049 1.350 . S
N1047 S1045 1.610 . S
N1047 C1048 1.351 . S
C1048 C1042 1.428 . S
C1048 N1047 1.351 . S
C1048 C1049 1.434 . S
C1049 C1040 1.429 . S
C1049 N1046 1.350 . S
C1049 C1048 1.434 . S
C1050 C1051 1.369 . S
C1050 C1052 1.419 . S
C1050 H1054 0.930 . S
C1051 C1050 1.369 . S
C1051 C1060 1.429 . S
C1052 C1050 1.419 . S
C1052 C1053 1.363 . S
C1052 H1055 0.929 . S
C1053 C1052 1.363 . S
C1053 C1059 1.428 . S
H1054 C1050 0.930 . S
H1055 C1052 0.929 . S
S1056 N1057 1.613 . S
S1056 N1058 1.610 . S
N1057 S1056 1.613 . S
N1057 C1060 1.350 . S
N1058 S1056 1.610 . S
N1058 C1059 1.351 . S
C1059 C1053 1.428 . S
C1059 N1058 1.351 . S
C1059 C1060 1.434 . S
C1060 C1051 1.429 . S
C1060 N1057 1.350 . S
C1060 C1059 1.434 . S
C1061 C1062 1.369 . S
C1061 C1063 1.419 . S
C1061 H1065 0.930 . S
C1062 C1061 1.369 . S
C1062 C1071 1.429 . S
C1063 C1061 1.419 . S
C1063 C1064 1.363 . S
C1063 H1066 0.929 . S
C1064 C1063 1.363 . S
C1064 C1070 1.428 . S
H1065 C1061 0.930 . S
H1066 C1063 0.929 . S
S1067 N1068 1.613 . S
S1067 N1069 1.610 . S
N1068 S1067 1.613 . S
N1068 C1071 1.350 . S
N1069 S1067 1.610 . S
N1069 C1070 1.351 . S
C1070 C1064 1.428 . S
C1070 N1069 1.351 . S
C1070 C1071 1.434 . S
C1071 C1062 1.429 . S
C1071 N1068 1.350 . S
C1071 C1070 1.434 . S
C1072 C1073 1.369 . S
C1072 C1074 1.419 . S
C1072 H1076 0.930 . S
C1073 C1072 1.369 . S
C1073 C1082 1.429 . S
C1074 C1072 1.419 . S
C1074 C1075 1.363 . S
C1074 H1077 0.929 . S
C1075 C1074 1.363 . S
C1075 C1081 1.428 . S
H1076 C1072 0.930 . S
H1077 C1074 0.929 . S
S1078 N1079 1.613 . S
S1078 N1080 1.610 . S
N1079 S1078 1.613 . S
N1079 C1082 1.350 . S
N1080 S1078 1.610 . S
N1080 C1081 1.351 . S
C1081 C1075 1.428 . S
C1081 N1080 1.351 . S
C1081 C1082 1.434 . S
C1082 C1073 1.429 . S
C1082 N1079 1.350 . S
C1082 C1081 1.434 . S
C1083 C1084 1.369 . S
C1083 C1085 1.419 . S
C1083 H1087 0.930 . S
C1084 C1083 1.369 . S
C1084 C1093 1.429 . S
C1085 C1083 1.419 . S
C1085 C1086 1.363 . S
C1085 H1088 0.929 . S
C1086 C1085 1.363 . S
C1086 C1092 1.428 . S
H1087 C1083 0.930 . S
H1088 C1085 0.929 . S
S1089 N1090 1.613 . S
S1089 N1091 1.610 . S
N1090 S1089 1.613 . S
N1090 C1093 1.350 . S
N1091 S1089 1.610 . S
N1091 C1092 1.351 . S
C1092 C1086 1.428 . S
C1092 N1091 1.351 . S
C1092 C1093 1.434 . S
C1093 C1084 1.429 . S
C1093 N1090 1.350 . S
C1093 C1092 1.434 . S
C1094 C1095 1.369 . S
C1094 C1096 1.419 . S
C1094 H1098 0.930 . S
C1095 C1094 1.369 . S
C1095 C1104 1.429 . S
C1096 C1094 1.419 . S
C1096 C1097 1.363 . S
C1096 H1099 0.929 . S
C1097 C1096 1.363 . S
C1097 C1103 1.428 . S
H1098 C1094 0.930 . S
H1099 C1096 0.929 . S
S1100 N1101 1.613 . S
S1100 N1102 1.610 . S
N1101 S1100 1.613 . S
N1101 C1104 1.350 . S
N1102 S1100 1.610 . S
N1102 C1103 1.351 . S
C1103 C1097 1.428 . S
C1103 N1102 1.351 . S
C1103 C1104 1.434 . S
C1104 C1095 1.429 . S
C1104 N1101 1.350 . S
C1104 C1103 1.434 . S
C1105 C1106 1.369 . S
C1105 C1107 1.419 . S
C1105 H1109 0.930 . S
C1106 C1105 1.369 . S
C1106 C1115 1.429 . S
C1107 C1105 1.419 . S
C1107 C1108 1.363 . S
C1107 H1110 0.929 . S
C1108 C1107 1.363 . S
C1108 C1114 1.428 . S
H1109 C1105 0.930 . S
H1110 C1107 0.929 . S
S1111 N1112 1.613 . S
S1111 N1113 1.610 . S
N1112 S1111 1.613 . S
N1112 C1115 1.350 . S
N1113 S1111 1.610 . S
N1113 C1114 1.351 . S
C1114 C1108 1.428 . S
C1114 N1113 1.351 . S
C1114 C1115 1.434 . S
C1115 C1106 1.429 . S
C1115 N1112 1.350 . S
C1115 C1114 1.434 . S
C1116 C1117 1.369 . S
C1116 C1118 1.419 . S
C1116 H1120 0.930 . S
C1117 C1116 1.369 . S
C1117 C1126 1.429 . S
C1118 C1116 1.419 . S
C1118 C1119 1.363 . S
C1118 H1121 0.929 . S
C1119 C1118 1.363 . S
C1119 C1125 1.428 . S
H1120 C1116 0.930 . S
H1121 C1118 0.929 . S
S1122 N1123 1.613 . S
S1122 N1124 1.610 . S
N1123 S1122 1.613 . S
N1123 C1126 1.350 . S
N1124 S1122 1.610 . S
N1124 C1125 1.351 . S
C1125 C1119 1.428 . S
C1125 N1124 1.351 . S
C1125 C1126 1.434 . S
C1126 C1117 1.429 . S
C1126 N1123 1.350 . S
C1126 C1125 1.434 . S
C1127 C1128 1.369 . S
C1127 C1129 1.419 . S
C1127 H1131 0.930 . S
C1128 C1127 1.369 . S
C1128 C1137 1.429 . S
C1129 C1127 1.419 . S
C1129 C1130 1.363 . S
C1129 H1132 0.929 . S
C1130 C1129 1.363 . S
C1130 C1136 1.428 . S
H1131 C1127 0.930 . S
H1132 C1129 0.929 . S
S1133 N1134 1.613 . S
S1133 N1135 1.610 . S
N1134 S1133 1.613 . S
N1134 C1137 1.350 . S
N1135 S1133 1.610 . S
N1135 C1136 1.351 . S
C1136 C1130 1.428 . S
C1136 N1135 1.351 . S
C1136 C1137 1.434 . S
C1137 C1128 1.429 . S
C1137 N1134 1.350 . S
C1137 C1136 1.434 . S
C1138 C1139 1.369 . S
C1138 C1140 1.419 . S
C1138 H1142 0.930 . S
C1139 C1138 1.369 . S
C1139 C1148 1.429 . S
C1140 C1138 1.419 . S
C1140 C1141 1.363 . S
C1140 H1143 0.929 . S
C1141 C1140 1.363 . S
C1141 C1147 1.428 . S
H1142 C1138 0.930 . S
H1143 C1140 0.929 . S
S1144 N1145 1.613 . S
S1144 N1146 1.610 . S
N1145 S1144 1.613 . S
N1145 C1148 1.350 . S
N1146 S1144 1.610 . S
N1146 C1147 1.351 . S
C1147 C1141 1.428 . S
C1147 N1146 1.351 . S
C1147 C1148 1.434 . S
C1148 C1139 1.429 . S
C1148 N1145 1.350 . S
C1148 C1147 1.434 . S
C1149 C1150 1.369 . S
C1149 C1151 1.419 . S
C1149 H1153 0.930 . S
C1150 C1149 1.369 . S
C1150 C1159 1.429 . S
C1151 C1149 1.419 . S
C1151 C1152 1.363 . S
C1151 H1154 0.929 . S
C1152 C1151 1.363 . S
C1152 C1158 1.428 . S
H1153 C1149 0.930 . S
H1154 C1151 0.929 . S
S1155 N1156 1.613 . S
S1155 N1157 1.610 . S
N1156 S1155 1.613 . S
N1156 C1159 1.350 . S
N1157 S1155 1.610 . S
N1157 C1158 1.351 . S
C1158 C1152 1.428 . S
C1158 N1157 1.351 . S
C1158 C1159 1.434 . S
C1159 C1150 1.429 . S
C1159 N1156 1.350 . S
C1159 C1158 1.434 . S
C1160 C1161 1.369 . S
C1160 C1162 1.419 . S
C1160 H1164 0.930 . S
C1161 C1160 1.369 . S
C1161 C1170 1.429 . S
C1162 C1160 1.419 . S
C1162 C1163 1.363 . S
C1162 H1165 0.929 . S
C1163 C1162 1.363 . S
C1163 C1169 1.428 . S
H1164 C1160 0.930 . S
H1165 C1162 0.929 . S
S1166 N1167 1.613 . S
S1166 N1168 1.610 . S
N1167 S1166 1.613 . S
N1167 C1170 1.350 . S
N1168 S1166 1.610 . S
N1168 C1169 1.351 . S
C1169 C1163 1.428 . S
C1169 N1168 1.351 . S
C1169 C1170 1.434 . S
C1170 C1161 1.429 . S
C1170 N1167 1.350 . S
C1170 C1169 1.434 . S
C1171 C1172 1.369 . S
C1171 C1173 1.419 . S
C1171 H1175 0.930 . S
C1172 C1171 1.369 . S
C1172 C1181 1.429 . S
C1173 C1171 1.419 . S
C1173 C1174 1.363 . S
C1173 H1176 0.929 . S
C1174 C1173 1.363 . S
C1174 C1180 1.428 . S
H1175 C1171 0.930 . S
H1176 C1173 0.929 . S
S1177 N1178 1.613 . S
S1177 N1179 1.610 . S
N1178 S1177 1.613 . S
N1178 C1181 1.350 . S
N1179 S1177 1.610 . S
N1179 C1180 1.351 . S
C1180 C1174 1.428 . S
C1180 N1179 1.351 . S
C1180 C1181 1.434 . S
C1181 C1172 1.429 . S
C1181 N1178 1.350 . S
C1181 C1180 1.434 . S
C1182 C1183 1.369 . S
C1182 C1184 1.419 . S
C1182 H1186 0.930 . S
C1183 C1182 1.369 . S
C1183 C1192 1.429 . S
C1184 C1182 1.419 . S
C1184 C1185 1.363 . S
C1184 H1187 0.929 . S
C1185 C1184 1.363 . S
C1185 C1191 1.428 . S
H1186 C1182 0.930 . S
H1187 C1184 0.929 . S
S1188 N1189 1.613 . S
S1188 N1190 1.610 . S
N1189 S1188 1.613 . S
N1189 C1192 1.350 . S
N1190 S1188 1.610 . S
N1190 C1191 1.351 . S
C1191 C1185 1.428 . S
C1191 N1190 1.351 . S
C1191 C1192 1.434 . S
C1192 C1183 1.429 . S
C1192 N1189 1.350 . S
C1192 C1191 1.434 . S
C1193 C1194 1.369 . S
C1193 C1195 1.419 . S
C1193 H1197 0.930 . S
C1194 C1193 1.369 . S
C1194 C1203 1.429 . S
C1195 C1193 1.419 . S
C1195 C1196 1.363 . S
C1195 H1198 0.929 . S
C1196 C1195 1.363 . S
C1196 C1202 1.428 . S
H1197 C1193 0.930 . S
H1198 C1195 0.929 . S
S1199 N1200 1.613 . S
S1199 N1201 1.610 . S
N1200 S1199 1.613 . S
N1200 C1203 1.350 . S
N1201 S1199 1.610 . S
N1201 C1202 1.351 . S
C1202 C1196 1.428 . S
C1202 N1201 1.351 . S
C1202 C1203 1.434 . S
C1203 C1194 1.429 . S
C1203 N1200 1.350 . S
C1203 C1202 1.434 . S
C1204 C1205 1.369 . S
C1204 C1206 1.419 . S
C1204 H1208 0.930 . S
C1205 C1204 1.369 . S
C1205 C1214 1.429 . S
C1206 C1204 1.419 . S
C1206 C1207 1.363 . S
C1206 H1209 0.929 . S
C1207 C1206 1.363 . S
C1207 C1213 1.428 . S
H1208 C1204 0.930 . S
H1209 C1206 0.929 . S
S1210 N1211 1.613 . S
S1210 N1212 1.610 . S
N1211 S1210 1.613 . S
N1211 C1214 1.350 . S
N1212 S1210 1.610 . S
N1212 C1213 1.351 . S
C1213 C1207 1.428 . S
C1213 N1212 1.351 . S
C1213 C1214 1.434 . S
C1214 C1205 1.429 . S
C1214 N1211 1.350 . S
C1214 C1213 1.434 . S
C1215 C1216 1.369 . S
C1215 C1217 1.419 . S
C1215 H1219 0.930 . S
C1216 C1215 1.369 . S
C1216 C1225 1.429 . S
C1217 C1215 1.419 . S
C1217 C1218 1.363 . S
C1217 H1220 0.929 . S
C1218 C1217 1.363 . S
C1218 C1224 1.428 . S
H1219 C1215 0.930 . S
H1220 C1217 0.929 . S
S1221 N1222 1.613 . S
S1221 N1223 1.610 . S
N1222 S1221 1.613 . S
N1222 C1225 1.350 . S
N1223 S1221 1.610 . S
N1223 C1224 1.351 . S
C1224 C1218 1.428 . S
C1224 N1223 1.351 . S
C1224 C1225 1.434 . S
C1225 C1216 1.429 . S
C1225 N1222 1.350 . S
C1225 C1224 1.434 . S
C1226 C1227 1.369 . S
C1226 C1228 1.419 . S
C1226 H1230 0.930 . S
C1227 C1226 1.369 . S
C1227 C1236 1.429 . S
C1228 C1226 1.419 . S
C1228 C1229 1.363 . S
C1228 H1231 0.929 . S
C1229 C1228 1.363 . S
C1229 C1235 1.428 . S
H1230 C1226 0.930 . S
H1231 C1228 0.929 . S
S1232 N1233 1.613 . S
S1232 N1234 1.610 . S
N1233 S1232 1.613 . S
N1233 C1236 1.350 . S
N1234 S1232 1.610 . S
N1234 C1235 1.351 . S
C1235 C1229 1.428 . S
C1235 N1234 1.351 . S
C1235 C1236 1.434 . S
C1236 C1227 1.429 . S
C1236 N1233 1.350 . S
C1236 C1235 1.434 . S
C1237 C1238 1.369 . S
C1237 C1239 1.419 . S
C1237 H1241 0.930 . S
C1238 C1237 1.369 . S
C1238 C1247 1.429 . S
C1239 C1237 1.419 . S
C1239 C1240 1.363 . S
C1239 H1242 0.929 . S
C1240 C1239 1.363 . S
C1240 C1246 1.428 . S
H1241 C1237 0.930 . S
H1242 C1239 0.929 . S
S1243 N1244 1.613 . S
S1243 N1245 1.610 . S
N1244 S1243 1.613 . S
N1244 C1247 1.350 . S
N1245 S1243 1.610 . S
N1245 C1246 1.351 . S
C1246 C1240 1.428 . S
C1246 N1245 1.351 . S
C1246 C1247 1.434 . S
C1247 C1238 1.429 . S
C1247 N1244 1.350 . S
C1247 C1246 1.434 . S
C1248 C1249 1.369 . S
C1248 C1250 1.419 . S
C1248 H1252 0.930 . S
C1249 C1248 1.369 . S
C1249 C1258 1.429 . S
C1250 C1248 1.419 . S
C1250 C1251 1.363 . S
C1250 H1253 0.929 . S
C1251 C1250 1.363 . S
C1251 C1257 1.428 . S
H1252 C1248 0.930 . S
H1253 C1250 0.929 . S
S1254 N1255 1.613 . S
S1254 N1256 1.610 . S
N1255 S1254 1.613 . S
N1255 C1258 1.350 . S
N1256 S1254 1.610 . S
N1256 C1257 1.351 . S
C1257 C1251 1.428 . S
C1257 N1256 1.351 . S
C1257 C1258 1.434 . S
C1258 C1249 1.429 . S
C1258 N1255 1.350 . S
C1258 C1257 1.434 . S
C1259 C1260 1.369 . S
C1259 C1261 1.419 . S
C1259 H1263 0.930 . S
C1260 C1259 1.369 . S
C1260 C1269 1.429 . S
C1261 C1259 1.419 . S
C1261 C1262 1.363 . S
C1261 H1264 0.929 . S
C1262 C1261 1.363 . S
C1262 C1268 1.428 . S
H1263 C1259 0.930 . S
H1264 C1261 0.929 . S
S1265 N1266 1.613 . S
S1265 N1267 1.610 . S
N1266 S1265 1.613 . S
N1266 C1269 1.350 . S
N1267 S1265 1.610 . S
N1267 C1268 1.351 . S
C1268 C1262 1.428 . S
C1268 N1267 1.351 . S
C1268 C1269 1.434 . S
C1269 C1260 1.429 . S
C1269 N1266 1.350 . S
C1269 C1268 1.434 . S
C1270 C1271 1.369 . S
C1270 C1272 1.419 . S
C1270 H1274 0.930 . S
C1271 C1270 1.369 . S
C1271 C1280 1.429 . S
C1272 C1270 1.419 . S
C1272 C1273 1.363 1_655 S
C1272 H1275 0.929 . S
C1273 C1272 1.363 1_455 S
C1273 C1279 1.428 1_455 S
H1274 C1270 0.930 . S
H1275 C1272 0.929 . S
S1276 N1277 1.613 . S
S1276 N1278 1.610 1_655 S
N1277 S1276 1.613 . S
N1277 C1280 1.350 . S
N1278 S1276 1.610 1_455 S
N1278 C1279 1.351 1_455 S
C1279 C1273 1.428 1_655 S
C1279 N1278 1.351 1_655 S
C1279 C1280 1.434 . S
C1280 C1271 1.429 . S
C1280 N1277 1.350 . S
C1280 C1279 1.434 . S
C1281 C1282 1.369 . S
C1281 C1283 1.419 . S
C1281 H1285 0.930 . S
C1282 C1281 1.369 . S
C1282 C1291 1.429 . S
C1283 C1281 1.419 . S
C1283 C1284 1.363 . S
C1283 H1286 0.929 . S
C1284 C1283 1.363 . S
C1284 C1290 1.428 . S
H1285 C1281 0.930 . S
H1286 C1283 0.929 . S
S1287 N1288 1.613 . S
S1287 N1289 1.610 . S
N1288 S1287 1.613 . S
N1288 C1291 1.350 . S
N1289 S1287 1.610 . S
N1289 C1290 1.351 . S
C1290 C1284 1.428 . S
C1290 N1289 1.351 . S
C1290 C1291 1.434 . S
C1291 C1282 1.429 . S
C1291 N1288 1.350 . S
C1291 C1290 1.434 . S
C1292 C1293 1.369 . S
C1292 C1294 1.419 . S
C1292 H1296 0.930 . S
C1293 C1292 1.369 . S
C1293 C1302 1.429 . S
C1294 C1292 1.419 . S
C1294 C1295 1.363 . S
C1294 H1297 0.929 . S
C1295 C1294 1.363 . S
C1295 C1301 1.428 . S
H1296 C1292 0.930 . S
H1297 C1294 0.929 . S
S1298 N1299 1.613 . S
S1298 N1300 1.610 . S
N1299 S1298 1.613 . S
N1299 C1302 1.350 . S
N1300 S1298 1.610 . S
N1300 C1301 1.351 . S
C1301 C1295 1.428 . S
C1301 N1300 1.351 . S
C1301 C1302 1.434 . S
C1302 C1293 1.429 . S
C1302 N1299 1.350 . S
C1302 C1301 1.434 . S
C1303 C1304 1.369 . S
C1303 C1305 1.419 . S
C1303 H1307 0.930 . S
C1304 C1303 1.369 . S
C1304 C1313 1.429 . S
C1305 C1303 1.419 . S
C1305 C1306 1.363 . S
C1305 H1308 0.929 . S
C1306 C1305 1.363 . S
C1306 C1312 1.428 . S
H1307 C1303 0.930 . S
H1308 C1305 0.929 . S
S1309 N1310 1.613 . S
S1309 N1311 1.610 . S
N1310 S1309 1.613 . S
N1310 C1313 1.350 . S
N1311 S1309 1.610 . S
N1311 C1312 1.351 . S
C1312 C1306 1.428 . S
C1312 N1311 1.351 . S
C1312 C1313 1.434 . S
C1313 C1304 1.429 . S
C1313 N1310 1.350 . S
C1313 C1312 1.434 . S
C1314 C1315 1.369 . S
C1314 C1316 1.419 . S
C1314 H1318 0.930 . S
C1315 C1314 1.369 . S
C1315 C1324 1.429 . S
C1316 C1314 1.419 . S
C1316 C1317 1.363 . S
C1316 H1319 0.929 . S
C1317 C1316 1.363 . S
C1317 C1323 1.428 . S
H1318 C1314 0.930 . S
H1319 C1316 0.929 . S
S1320 N1321 1.613 . S
S1320 N1322 1.610 . S
N1321 S1320 1.613 . S
N1321 C1324 1.350 . S
N1322 S1320 1.610 . S
N1322 C1323 1.351 . S
C1323 C1317 1.428 . S
C1323 N1322 1.351 . S
C1323 C1324 1.434 . S
C1324 C1315 1.429 . S
C1324 N1321 1.350 . S
C1324 C1323 1.434 . S
C1325 C1326 1.369 . S
C1325 C1327 1.419 . S
C1325 H1329 0.930 . S
C1326 C1325 1.369 . S
C1326 C1335 1.429 . S
C1327 C1325 1.419 . S
C1327 C1328 1.363 . S
C1327 H1330 0.929 . S
C1328 C1327 1.363 . S
C1328 C1334 1.428 . S
H1329 C1325 0.930 . S
H1330 C1327 0.929 . S
S1331 N1332 1.613 . S
S1331 N1333 1.610 . S
N1332 S1331 1.613 . S
N1332 C1335 1.350 . S
N1333 S1331 1.610 . S
N1333 C1334 1.351 . S
C1334 C1328 1.428 . S
C1334 N1333 1.351 . S
C1334 C1335 1.434 . S
C1335 C1326 1.429 . S
C1335 N1332 1.350 . S
C1335 C1334 1.434 . S
C1336 C1337 1.369 . S
C1336 C1338 1.419 . S
C1336 H1340 0.930 . S
C1337 C1336 1.369 . S
C1337 C1346 1.429 . S
C1338 C1336 1.419 . S
C1338 C1339 1.363 . S
C1338 H1341 0.929 . S
C1339 C1338 1.363 . S
C1339 C1345 1.428 . S
H1340 C1336 0.930 . S
H1341 C1338 0.929 . S
S1342 N1343 1.613 . S
S1342 N1344 1.610 . S
N1343 S1342 1.613 . S
N1343 C1346 1.350 . S
N1344 S1342 1.610 . S
N1344 C1345 1.351 . S
C1345 C1339 1.428 . S
C1345 N1344 1.351 . S
C1345 C1346 1.434 . S
C1346 C1337 1.429 . S
C1346 N1343 1.350 . S
C1346 C1345 1.434 . S
C1347 C1348 1.369 . S
C1347 C1349 1.419 . S
C1347 H1351 0.930 . S
C1348 C1347 1.369 . S
C1348 C1357 1.429 . S
C1349 C1347 1.419 . S
C1349 C1350 1.363 . S
C1349 H1352 0.929 . S
C1350 C1349 1.363 . S
C1350 C1356 1.428 . S
H1351 C1347 0.930 . S
H1352 C1349 0.929 . S
S1353 N1354 1.613 1_655 S
S1353 N1355 1.610 . S
N1354 S1353 1.613 1_455 S
N1354 C1357 1.350 1_455 S
N1355 S1353 1.610 . S
N1355 C1356 1.351 . S
C1356 C1350 1.428 . S
C1356 N1355 1.351 . S
C1356 C1357 1.434 . S
C1357 C1348 1.429 . S
C1357 N1354 1.350 1_655 S
C1357 C1356 1.434 . S
C1358 C1359 1.369 . S
C1358 C1360 1.419 . S
C1358 H1362 0.930 . S
C1359 C1358 1.369 . S
C1359 C1368 1.429 . S
C1360 C1358 1.419 . S
C1360 C1361 1.363 . S
C1360 H1363 0.929 . S
C1361 C1360 1.363 . S
C1361 C1367 1.428 . S
H1362 C1358 0.930 . S
H1363 C1360 0.929 . S
S1364 N1365 1.613 . S
S1364 N1366 1.610 . S
N1365 S1364 1.613 . S
N1365 C1368 1.350 . S
N1366 S1364 1.610 . S
N1366 C1367 1.351 . S
C1367 C1361 1.428 . S
C1367 N1366 1.351 . S
C1367 C1368 1.434 . S
C1368 C1359 1.429 . S
C1368 N1365 1.350 . S
C1368 C1367 1.434 . S
C1369 C1370 1.369 . S
C1369 C1371 1.419 . S
C1369 H1373 0.930 . S
C1370 C1369 1.369 . S
C1370 C1379 1.429 . S
C1371 C1369 1.419 . S
C1371 C1372 1.363 1_655 S
C1371 H1374 0.929 1_655 S
C1372 C1371 1.363 1_455 S
C1372 C1378 1.428 1_455 S
H1373 C1369 0.930 . S
H1374 C1371 0.929 1_455 S
S1375 N1376 1.613 . S
S1375 N1377 1.610 . S
N1376 S1375 1.613 . S
N1376 C1379 1.350 . S
N1377 S1375 1.610 . S
N1377 C1378 1.351 . S
C1378 C1372 1.428 1_655 S
C1378 N1377 1.351 . S
C1378 C1379 1.434 . S
C1379 C1370 1.429 . S
C1379 N1376 1.350 . S
C1379 C1378 1.434 . S
C1380 C1381 1.369 . S
C1380 C1382 1.419 . S
C1380 H1384 0.930 . S
C1381 C1380 1.369 . S
C1381 C1390 1.429 . S
C1382 C1380 1.419 . S
C1382 C1383 1.363 . S
C1382 H1385 0.929 . S
C1383 C1382 1.363 . S
C1383 C1389 1.428 . S
H1384 C1380 0.930 . S
H1385 C1382 0.929 . S
S1386 N1387 1.613 . S
S1386 N1388 1.610 . S
N1387 S1386 1.613 . S
N1387 C1390 1.350 . S
N1388 S1386 1.610 . S
N1388 C1389 1.351 . S
C1389 C1383 1.428 . S
C1389 N1388 1.351 . S
C1389 C1390 1.434 . S
C1390 C1381 1.429 . S
C1390 N1387 1.350 . S
C1390 C1389 1.434 . S
C1391 C1392 1.369 . S
C1391 C1393 1.419 . S
C1391 H1395 0.930 . S
C1392 C1391 1.369 . S
C1392 C1401 1.429 . S
C1393 C1391 1.419 . S
C1393 C1394 1.363 . S
C1393 H1396 0.929 . S
C1394 C1393 1.363 . S
C1394 C1400 1.428 . S
H1395 C1391 0.930 . S
H1396 C1393 0.929 . S
S1397 N1398 1.613 . S
S1397 N1399 1.610 . S
N1398 S1397 1.613 . S
N1398 C1401 1.350 . S
N1399 S1397 1.610 . S
N1399 C1400 1.351 . S
C1400 C1394 1.428 . S
C1400 N1399 1.351 . S
C1400 C1401 1.434 . S
C1401 C1392 1.429 . S
C1401 N1398 1.350 . S
C1401 C1400 1.434 . S
C1402 C1403 1.369 . S
C1402 C1404 1.419 . S
C1402 H1406 0.930 . S
C1403 C1402 1.369 . S
C1403 C1412 1.429 . S
C1404 C1402 1.419 . S
C1404 C1405 1.363 . S
C1404 H1407 0.929 . S
C1405 C1404 1.363 . S
C1405 C1411 1.428 . S
H1406 C1402 0.930 . S
H1407 C1404 0.929 . S
S1408 N1409 1.613 . S
S1408 N1410 1.610 . S
N1409 S1408 1.613 . S
N1409 C1412 1.350 . S
N1410 S1408 1.610 . S
N1410 C1411 1.351 . S
C1411 C1405 1.428 . S
C1411 N1410 1.351 . S
C1411 C1412 1.434 . S
C1412 C1403 1.429 . S
C1412 N1409 1.350 . S
C1412 C1411 1.434 . S
C1413 C1414 1.369 . S
C1413 C1415 1.419 . S
C1413 H1417 0.930 . S
C1414 C1413 1.369 . S
C1414 C1423 1.429 . S
C1415 C1413 1.419 . S
C1415 C1416 1.363 . S
C1415 H1418 0.929 . S
C1416 C1415 1.363 . S
C1416 C1422 1.428 . S
H1417 C1413 0.930 . S
H1418 C1415 0.929 . S
S1419 N1420 1.613 . S
S1419 N1421 1.610 . S
N1420 S1419 1.613 . S
N1420 C1423 1.350 . S
N1421 S1419 1.610 . S
N1421 C1422 1.351 . S
C1422 C1416 1.428 . S
C1422 N1421 1.351 . S
C1422 C1423 1.434 . S
C1423 C1414 1.429 . S
C1423 N1420 1.350 . S
C1423 C1422 1.434 . S
C1424 C1425 1.369 1_565 S
C1424 C1426 1.419 . S
C1424 H1428 0.930 . S
C1425 C1424 1.369 1_545 S
C1425 C1434 1.429 1_545 S
C1426 C1424 1.419 . S
C1426 C1427 1.363 . S
C1426 H1429 0.929 . S
C1427 C1426 1.363 . S
C1427 C1433 1.428 . S
H1428 C1424 0.930 . S
H1429 C1426 0.929 . S
S1430 N1431 1.613 1_565 S
S1430 N1432 1.610 . S
N1431 S1430 1.613 1_545 S
N1431 C1434 1.350 1_545 S
N1432 S1430 1.610 . S
N1432 C1433 1.351 . S
C1433 C1427 1.428 . S
C1433 N1432 1.351 . S
C1433 C1434 1.434 . S
C1434 C1425 1.429 1_565 S
C1434 N1431 1.350 1_565 S
C1434 C1433 1.434 . S
C1435 C1436 1.369 . S
C1435 C1437 1.419 . S
C1435 H1439 0.930 . S
C1436 C1435 1.369 . S
C1436 C1445 1.429 . S
C1437 C1435 1.419 . S
C1437 C1438 1.363 . S
C1437 H1440 0.929 . S
C1438 C1437 1.363 . S
C1438 C1444 1.428 . S
H1439 C1435 0.930 . S
H1440 C1437 0.929 . S
S1441 N1442 1.613 . S
S1441 N1443 1.610 1_545 S
N1442 S1441 1.613 . S
N1442 C1445 1.350 1_545 S
N1443 S1441 1.610 1_565 S
N1443 C1444 1.351 . S
C1444 C1438 1.428 . S
C1444 N1443 1.351 . S
C1444 C1445 1.434 . S
C1445 C1436 1.429 . S
C1445 N1442 1.350 1_565 S
C1445 C1444 1.434 . S
C1446 C1447 1.369 . S
C1446 C1448 1.419 . S
C1446 H1450 0.930 . S
C1447 C1446 1.369 . S
C1447 C1456 1.429 . S
C1448 C1446 1.419 . S
C1448 C1449 1.363 . S
C1448 H1451 0.929 . S
C1449 C1448 1.363 . S
C1449 C1455 1.428 . S
H1450 C1446 0.930 . S
H1451 C1448 0.929 . S
S1452 N1453 1.613 1_545 S
S1452 N1454 1.610 . S
N1453 S1452 1.613 1_565 S
N1453 C1456 1.350 . S
N1454 S1452 1.610 . S
N1454 C1455 1.351 1_545 S
C1455 C1449 1.428 . S
C1455 N1454 1.351 1_565 S
C1455 C1456 1.434 . S
C1456 C1447 1.429 . S
C1456 N1453 1.350 . S
C1456 C1455 1.434 . S
C1457 C1458 1.369 1_565 S
C1457 C1459 1.419 . S
C1457 H1461 0.930 . S
C1458 C1457 1.369 1_545 S
C1458 C1467 1.429 1_545 S
C1459 C1457 1.419 . S
C1459 C1460 1.363 . S
C1459 H1462 0.929 . S
C1460 C1459 1.363 . S
C1460 C1466 1.428 . S
H1461 C1457 0.930 . S
H1462 C1459 0.929 . S
S1463 N1464 1.613 1_565 S
S1463 N1465 1.610 . S
N1464 S1463 1.613 1_545 S
N1464 C1467 1.350 1_545 S
N1465 S1463 1.610 . S
N1465 C1466 1.351 . S
C1466 C1460 1.428 . S
C1466 N1465 1.351 . S
C1466 C1467 1.434 . S
C1467 C1458 1.429 1_565 S
C1467 N1464 1.350 1_565 S
C1467 C1466 1.434 . S
C1468 C1469 1.369 . S
C1468 C1470 1.419 . S
C1468 H1472 0.930 . S
C1469 C1468 1.369 . S
C1469 C1478 1.429 . S
C1470 C1468 1.419 . S
C1470 C1471 1.363 . S
C1470 H1473 0.929 . S
C1471 C1470 1.363 . S
C1471 C1477 1.428 . S
H1472 C1468 0.930 . S
H1473 C1470 0.929 . S
S1474 N1475 1.613 . S
S1474 N1476 1.610 . S
N1475 S1474 1.613 . S
N1475 C1478 1.350 . S
N1476 S1474 1.610 . S
N1476 C1477 1.351 . S
C1477 C1471 1.428 . S
C1477 N1476 1.351 . S
C1477 C1478 1.434 . S
C1478 C1469 1.429 . S
C1478 N1475 1.350 . S
C1478 C1477 1.434 . S
C1479 C1480 1.369 . S
C1479 C1481 1.419 . S
C1479 H1483 0.930 . S
C1480 C1479 1.369 . S
C1480 C1489 1.429 . S
C1481 C1479 1.419 . S
C1481 C1482 1.363 . S
C1481 H1484 0.929 . S
C1482 C1481 1.363 . S
C1482 C1488 1.428 . S
H1483 C1479 0.930 . S
H1484 C1481 0.929 . S
S1485 N1486 1.613 . S
S1485 N1487 1.610 . S
N1486 S1485 1.613 . S
N1486 C1489 1.350 . S
N1487 S1485 1.610 . S
N1487 C1488 1.351 . S
C1488 C1482 1.428 . S
C1488 N1487 1.351 . S
C1488 C1489 1.434 . S
C1489 C1480 1.429 . S
C1489 N1486 1.350 . S
C1489 C1488 1.434 . S
C1490 C1491 1.369 . S
C1490 C1492 1.419 . S
C1490 H1494 0.930 . S
C1491 C1490 1.369 . S
C1491 C1500 1.429 . S
C1492 C1490 1.419 . S
C1492 C1493 1.363 . S
C1492 H1495 0.929 . S
C1493 C1492 1.363 . S
C1493 C1499 1.428 . S
H1494 C1490 0.930 . S
H1495 C1492 0.929 . S
S1496 N1497 1.613 1_455 S
S1496 N1498 1.610 1_455 S
N1497 S1496 1.613 1_655 S
N1497 C1500 1.350 . S
N1498 S1496 1.610 1_655 S
N1498 C1499 1.351 . S
C1499 C1493 1.428 . S
C1499 N1498 1.351 . S
C1499 C1500 1.434 . S
C1500 C1491 1.429 . S
C1500 N1497 1.350 . S
C1500 C1499 1.434 . S
C1501 C1502 1.369 . S
C1501 C1503 1.419 . S
C1501 H1505 0.930 . S
C1502 C1501 1.369 . S
C1502 C1511 1.429 . S
C1503 C1501 1.419 . S
C1503 C1504 1.363 . S
C1503 H1506 0.929 . S
C1504 C1503 1.363 . S
C1504 C1510 1.428 . S
H1505 C1501 0.930 . S
H1506 C1503 0.929 . S
S1507 N1508 1.613 . S
S1507 N1509 1.610 . S
N1508 S1507 1.613 . S
N1508 C1511 1.350 . S
N1509 S1507 1.610 . S
N1509 C1510 1.351 . S
C1510 C1504 1.428 . S
C1510 N1509 1.351 . S
C1510 C1511 1.434 . S
C1511 C1502 1.429 . S
C1511 N1508 1.350 . S
C1511 C1510 1.434 . S
C1512 C1513 1.369 . S
C1512 C1514 1.419 . S
C1512 H1516 0.930 . S
C1513 C1512 1.369 . S
C1513 C1522 1.429 . S
C1514 C1512 1.419 . S
C1514 C1515 1.363 . S
C1514 H1517 0.929 . S
C1515 C1514 1.363 . S
C1515 C1521 1.428 . S
H1516 C1512 0.930 . S
H1517 C1514 0.929 . S
S1518 N1519 1.613 . S
S1518 N1520 1.610 . S
N1519 S1518 1.613 . S
N1519 C1522 1.350 . S
N1520 S1518 1.610 . S
N1520 C1521 1.351 . S
C1521 C1515 1.428 . S
C1521 N1520 1.351 . S
C1521 C1522 1.434 . S
C1522 C1513 1.429 . S
C1522 N1519 1.350 . S
C1522 C1521 1.434 . S
C1523 C1524 1.369 . S
C1523 C1525 1.419 . S
C1523 H1527 0.930 . S
C1524 C1523 1.369 . S
C1524 C1533 1.429 . S
C1525 C1523 1.419 . S
C1525 C1526 1.363 . S
C1525 H1528 0.929 . S
C1526 C1525 1.363 . S
C1526 C1532 1.428 . S
H1527 C1523 0.930 . S
H1528 C1525 0.929 . S
S1529 N1530 1.613 . S
S1529 N1531 1.610 . S
N1530 S1529 1.613 . S
N1530 C1533 1.350 . S
N1531 S1529 1.610 . S
N1531 C1532 1.351 . S
C1532 C1526 1.428 . S
C1532 N1531 1.351 . S
C1532 C1533 1.434 . S
C1533 C1524 1.429 . S
C1533 N1530 1.350 . S
C1533 C1532 1.434 . S
C1534 C1535 1.369 . S
C1534 C1536 1.419 . S
C1534 H1538 0.930 . S
C1535 C1534 1.369 . S
C1535 C1544 1.429 . S
C1536 C1534 1.419 . S
C1536 C1537 1.363 . S
C1536 H1539 0.929 . S
C1537 C1536 1.363 . S
C1537 C1543 1.428 . S
H1538 C1534 0.930 . S
H1539 C1536 0.929 . S
S1540 N1541 1.613 . S
S1540 N1542 1.610 . S
N1541 S1540 1.613 . S
N1541 C1544 1.350 . S
N1542 S1540 1.610 . S
N1542 C1543 1.351 . S
C1543 C1537 1.428 . S
C1543 N1542 1.351 . S
C1543 C1544 1.434 . S
C1544 C1535 1.429 . S
C1544 N1541 1.350 . S
C1544 C1543 1.434 . S
C1545 C1546 1.369 . S
C1545 C1547 1.419 . S
C1545 H1549 0.930 . S
C1546 C1545 1.369 . S
C1546 C1555 1.429 . S
C1547 C1545 1.419 . S
C1547 C1548 1.363 . S
C1547 H1550 0.929 . S
C1548 C1547 1.363 . S
C1548 C1554 1.428 . S
H1549 C1545 0.930 . S
H1550 C1547 0.929 . S
S1551 N1552 1.613 . S
S1551 N1553 1.610 . S
N1552 S1551 1.613 . S
N1552 C1555 1.350 . S
N1553 S1551 1.610 . S
N1553 C1554 1.351 . S
C1554 C1548 1.428 . S
C1554 N1553 1.351 . S
C1554 C1555 1.434 . S
C1555 C1546 1.429 . S
C1555 N1552 1.350 . S
C1555 C1554 1.434 . S
C1556 C1557 1.369 . S
C1556 C1558 1.419 . S
C1556 H1560 0.930 . S
C1557 C1556 1.369 . S
C1557 C1566 1.429 . S
C1558 C1556 1.419 . S
C1558 C1559 1.363 . S
C1558 H1561 0.929 . S
C1559 C1558 1.363 . S
C1559 C1565 1.428 . S
H1560 C1556 0.930 . S
H1561 C1558 0.929 . S
S1562 N1563 1.613 . S
S1562 N1564 1.610 . S
N1563 S1562 1.613 . S
N1563 C1566 1.350 . S
N1564 S1562 1.610 . S
N1564 C1565 1.351 . S
C1565 C1559 1.428 . S
C1565 N1564 1.351 . S
C1565 C1566 1.434 . S
C1566 C1557 1.429 . S
C1566 N1563 1.350 . S
C1566 C1565 1.434 . S
C1567 C1568 1.369 . S
C1567 C1569 1.419 . S
C1567 H1571 0.930 . S
C1568 C1567 1.369 . S
C1568 C1577 1.429 . S
C1569 C1567 1.419 . S
C1569 C1570 1.363 . S
C1569 H1572 0.929 . S
C1570 C1569 1.363 . S
C1570 C1576 1.428 . S
H1571 C1567 0.930 . S
H1572 C1569 0.929 . S
S1573 N1574 1.613 . S
S1573 N1575 1.610 . S
N1574 S1573 1.613 . S
N1574 C1577 1.350 . S
N1575 S1573 1.610 . S
N1575 C1576 1.351 . S
C1576 C1570 1.428 . S
C1576 N1575 1.351 . S
C1576 C1577 1.434 . S
C1577 C1568 1.429 . S
C1577 N1574 1.350 . S
C1577 C1576 1.434 . S
C1578 C1579 1.369 . S
C1578 C1580 1.419 . S
C1578 H1582 0.930 . S
C1579 C1578 1.369 . S
C1579 C1588 1.429 . S
C1580 C1578 1.419 . S
C1580 C1581 1.363 . S
C1580 H1583 0.929 . S
C1581 C1580 1.363 . S
C1581 C1587 1.428 . S
H1582 C1578 0.930 . S
H1583 C1580 0.929 . S
S1584 N1585 1.613 . S
S1584 N1586 1.610 . S
N1585 S1584 1.613 . S
N1585 C1588 1.350 . S
N1586 S1584 1.610 . S
N1586 C1587 1.351 . S
C1587 C1581 1.428 . S
C1587 N1586 1.351 . S
C1587 C1588 1.434 . S
C1588 C1579 1.429 . S
C1588 N1585 1.350 . S
C1588 C1587 1.434 . S
C1589 C1590 1.369 . S
C1589 C1591 1.419 . S
C1589 H1593 0.930 . S
C1590 C1589 1.369 . S
C1590 C1599 1.429 . S
C1591 C1589 1.419 . S
C1591 C1592 1.363 . S
C1591 H1594 0.929 . S
C1592 C1591 1.363 . S
C1592 C1598 1.428 . S
H1593 C1589 0.930 . S
H1594 C1591 0.929 . S
S1595 N1596 1.613 . S
S1595 N1597 1.610 . S
N1596 S1595 1.613 . S
N1596 C1599 1.350 . S
N1597 S1595 1.610 . S
N1597 C1598 1.351 . S
C1598 C1592 1.428 . S
C1598 N1597 1.351 . S
C1598 C1599 1.434 . S
C1599 C1590 1.429 . S
C1599 N1596 1.350 . S
C1599 C1598 1.434 . S
C1600 C1601 1.369 . S
C1600 C1602 1.419 . S
C1600 H1604 0.930 . S
C1601 C1600 1.369 . S
C1601 C1610 1.429 . S
C1602 C1600 1.419 . S
C1602 C1603 1.363 . S
C1602 H1605 0.929 . S
C1603 C1602 1.363 . S
C1603 C1609 1.428 . S
H1604 C1600 0.930 . S
H1605 C1602 0.929 . S
S1606 N1607 1.613 . S
S1606 N1608 1.610 . S
N1607 S1606 1.613 . S
N1607 C1610 1.350 . S
N1608 S1606 1.610 . S
N1608 C1609 1.351 . S
C1609 C1603 1.428 . S
C1609 N1608 1.351 . S
C1609 C1610 1.434 . S
C1610 C1601 1.429 . S
C1610 N1607 1.350 . S
C1610 C1609 1.434 . S
C1611 C1612 1.369 . S
C1611 C1613 1.419 . S
C1611 H1615 0.930 . S
C1612 C1611 1.369 . S
C1612 C1621 1.429 . S
C1613 C1611 1.419 . S
C1613 C1614 1.363 . S
C1613 H1616 0.929 . S
C1614 C1613 1.363 . S
C1614 C1620 1.428 . S
H1615 C1611 0.930 . S
H1616 C1613 0.929 . S
S1617 N1618 1.613 . S
S1617 N1619 1.610 . S
N1618 S1617 1.613 . S
N1618 C1621 1.350 . S
N1619 S1617 1.610 . S
N1619 C1620 1.351 . S
C1620 C1614 1.428 . S
C1620 N1619 1.351 . S
C1620 C1621 1.434 . S
C1621 C1612 1.429 . S
C1621 N1618 1.350 . S
C1621 C1620 1.434 . S
C1622 C1623 1.369 . S
C1622 C1624 1.419 . S
C1622 H1626 0.930 . S
C1623 C1622 1.369 . S
C1623 C1632 1.429 . S
C1624 C1622 1.419 . S
C1624 C1625 1.363 . S
C1624 H1627 0.929 . S
C1625 C1624 1.363 . S
C1625 C1631 1.428 . S
H1626 C1622 0.930 . S
H1627 C1624 0.929 . S
S1628 N1629 1.613 . S
S1628 N1630 1.610 . S
N1629 S1628 1.613 . S
N1629 C1632 1.350 . S
N1630 S1628 1.610 . S
N1630 C1631 1.351 . S
C1631 C1625 1.428 . S
C1631 N1630 1.351 . S
C1631 C1632 1.434 . S
C1632 C1623 1.429 . S
C1632 N1629 1.350 . S
C1632 C1631 1.434 . S
C1633 C1634 1.369 . S
C1633 C1635 1.419 . S
C1633 H1637 0.930 . S
C1634 C1633 1.369 . S
C1634 C1643 1.429 . S
C1635 C1633 1.419 . S
C1635 C1636 1.363 . S
C1635 H1638 0.929 . S
C1636 C1635 1.363 . S
C1636 C1642 1.428 . S
H1637 C1633 0.930 . S
H1638 C1635 0.929 . S
S1639 N1640 1.613 . S
S1639 N1641 1.610 . S
N1640 S1639 1.613 . S
N1640 C1643 1.350 . S
N1641 S1639 1.610 . S
N1641 C1642 1.351 . S
C1642 C1636 1.428 . S
C1642 N1641 1.351 . S
C1642 C1643 1.434 . S
C1643 C1634 1.429 . S
C1643 N1640 1.350 . S
C1643 C1642 1.434 . S
C1644 C1645 1.369 . S
C1644 C1646 1.419 . S
C1644 H1648 0.930 . S
C1645 C1644 1.369 . S
C1645 C1654 1.429 . S
C1646 C1644 1.419 . S
C1646 C1647 1.363 . S
C1646 H1649 0.929 . S
C1647 C1646 1.363 . S
C1647 C1653 1.428 . S
H1648 C1644 0.930 . S
H1649 C1646 0.929 . S
S1650 N1651 1.613 . S
S1650 N1652 1.610 . S
N1651 S1650 1.613 . S
N1651 C1654 1.350 . S
N1652 S1650 1.610 . S
N1652 C1653 1.351 . S
C1653 C1647 1.428 . S
C1653 N1652 1.351 . S
C1653 C1654 1.434 . S
C1654 C1645 1.429 . S
C1654 N1651 1.350 . S
C1654 C1653 1.434 . S
C1655 C1656 1.369 . S
C1655 C1657 1.419 . S
C1655 H1659 0.930 . S
C1656 C1655 1.369 . S
C1656 C1665 1.429 . S
C1657 C1655 1.419 . S
C1657 C1658 1.363 . S
C1657 H1660 0.929 . S
C1658 C1657 1.363 . S
C1658 C1664 1.428 . S
H1659 C1655 0.930 . S
H1660 C1657 0.929 . S
S1661 N1662 1.613 . S
S1661 N1663 1.610 . S
N1662 S1661 1.613 . S
N1662 C1665 1.350 . S
N1663 S1661 1.610 . S
N1663 C1664 1.351 . S
C1664 C1658 1.428 . S
C1664 N1663 1.351 . S
C1664 C1665 1.434 . S
C1665 C1656 1.429 . S
C1665 N1662 1.350 . S
C1665 C1664 1.434 . S
C1666 C1667 1.369 . S
C1666 C1668 1.419 . S
C1666 H1670 0.930 . S
C1667 C1666 1.369 . S
C1667 C1676 1.429 . S
C1668 C1666 1.419 . S
C1668 C1669 1.363 . S
C1668 H1671 0.929 . S
C1669 C1668 1.363 . S
C1669 C1675 1.428 . S
H1670 C1666 0.930 . S
H1671 C1668 0.929 . S
S1672 N1673 1.613 . S
S1672 N1674 1.610 . S
N1673 S1672 1.613 . S
N1673 C1676 1.350 . S
N1674 S1672 1.610 . S
N1674 C1675 1.351 . S
C1675 C1669 1.428 . S
C1675 N1674 1.351 . S
C1675 C1676 1.434 . S
C1676 C1667 1.429 . S
C1676 N1673 1.350 . S
C1676 C1675 1.434 . S
C1677 C1678 1.369 1_655 S
C1677 C1679 1.419 . S
C1677 H1681 0.930 1_655 S
C1678 C1677 1.369 1_455 S
C1678 C1687 1.429 1_455 S
C1679 C1677 1.419 . S
C1679 C1680 1.363 . S
C1679 H1682 0.929 . S
C1680 C1679 1.363 . S
C1680 C1686 1.428 . S
H1681 C1677 0.930 1_455 S
H1682 C1679 0.929 . S
S1683 N1684 1.613 1_655 S
S1683 N1685 1.610 . S
N1684 S1683 1.613 1_455 S
N1684 C1687 1.350 1_455 S
N1685 S1683 1.610 . S
N1685 C1686 1.351 . S
C1686 C1680 1.428 . S
C1686 N1685 1.351 . S
C1686 C1687 1.434 . S
C1687 C1678 1.429 1_655 S
C1687 N1684 1.350 1_655 S
C1687 C1686 1.434 . S
C1688 C1689 1.369 . S
C1688 C1690 1.419 . S
C1688 H1692 0.930 . S
C1689 C1688 1.369 . S
C1689 C1698 1.429 . S
C1690 C1688 1.419 . S
C1690 C1691 1.363 . S
C1690 H1693 0.929 . S
C1691 C1690 1.363 . S
C1691 C1697 1.428 . S
H1692 C1688 0.930 . S
H1693 C1690 0.929 . S
S1694 N1695 1.613 . S
S1694 N1696 1.610 . S
N1695 S1694 1.613 . S
N1695 C1698 1.350 . S
N1696 S1694 1.610 . S
N1696 C1697 1.351 . S
C1697 C1691 1.428 . S
C1697 N1696 1.351 . S
C1697 C1698 1.434 . S
C1698 C1689 1.429 . S
C1698 N1695 1.350 . S
C1698 C1697 1.434 . S
C1699 C1700 1.369 . S
C1699 C1701 1.419 . S
C1699 H1703 0.930 . S
C1700 C1699 1.369 . S
C1700 C1709 1.429 . S
C1701 C1699 1.419 . S
C1701 C1702 1.363 . S
C1701 H1704 0.929 . S
C1702 C1701 1.363 . S
C1702 C1708 1.428 . S
H1703 C1699 0.930 . S
H1704 C1701 0.929 . S
S1705 N1706 1.613 . S
S1705 N1707 1.610 . S
N1706 S1705 1.613 . S
N1706 C1709 1.350 . S
N1707 S1705 1.610 . S
N1707 C1708 1.351 . S
C1708 C1702 1.428 . S
C1708 N1707 1.351 . S
C1708 C1709 1.434 . S
C1709 C1700 1.429 . S
C1709 N1706 1.350 . S
C1709 C1708 1.434 . S
C1710 C1711 1.369 . S
C1710 C1712 1.419 . S
C1710 H1714 0.930 . S
C1711 C1710 1.369 . S
C1711 C1720 1.429 . S
C1712 C1710 1.419 . S
C1712 C1713 1.363 . S
C1712 H1715 0.929 . S
C1713 C1712 1.363 . S
C1713 C1719 1.428 . S
H1714 C1710 0.930 . S
H1715 C1712 0.929 . S
S1716 N1717 1.613 . S
S1716 N1718 1.610 . S
N1717 S1716 1.613 . S
N1717 C1720 1.350 . S
N1718 S1716 1.610 . S
N1718 C1719 1.351 . S
C1719 C1713 1.428 . S
C1719 N1718 1.351 . S
C1719 C1720 1.434 . S
C1720 C1711 1.429 . S
C1720 N1717 1.350 . S
C1720 C1719 1.434 . S
C1721 C1722 1.369 1_655 S
C1721 C1723 1.419 . S
C1721 H1725 0.930 1_655 S
C1722 C1721 1.369 1_455 S
C1722 C1731 1.429 1_455 S
C1723 C1721 1.419 . S
C1723 C1724 1.363 . S
C1723 H1726 0.929 . S
C1724 C1723 1.363 . S
C1724 C1730 1.428 . S
H1725 C1721 0.930 1_455 S
H1726 C1723 0.929 . S
S1727 N1728 1.613 1_655 S
S1727 N1729 1.610 . S
N1728 S1727 1.613 1_455 S
N1728 C1731 1.350 1_455 S
N1729 S1727 1.610 . S
N1729 C1730 1.351 . S
C1730 C1724 1.428 . S
C1730 N1729 1.351 . S
C1730 C1731 1.434 . S
C1731 C1722 1.429 1_655 S
C1731 N1728 1.350 1_655 S
C1731 C1730 1.434 . S
C1732 C1733 1.369 . S
C1732 C1734 1.419 . S
C1732 H1736 0.930 1_655 S
C1733 C1732 1.369 . S
C1733 C1742 1.429 . S
C1734 C1732 1.419 . S
C1734 C1735 1.363 . S
C1734 H1737 0.929 . S
C1735 C1734 1.363 . S
C1735 C1741 1.428 . S
H1736 C1732 0.930 1_455 S
H1737 C1734 0.929 . S
S1738 N1739 1.613 . S
S1738 N1740 1.610 . S
N1739 S1738 1.613 . S
N1739 C1742 1.350 . S
N1740 S1738 1.610 . S
N1740 C1741 1.351 . S
C1741 C1735 1.428 . S
C1741 N1740 1.351 . S
C1741 C1742 1.434 . S
C1742 C1733 1.429 . S
C1742 N1739 1.350 . S
C1742 C1741 1.434 . S
C1743 C1744 1.369 . S
C1743 C1745 1.419 . S
C1743 H1747 0.930 . S
C1744 C1743 1.369 . S
C1744 C1753 1.429 . S
C1745 C1743 1.419 . S
C1745 C1746 1.363 . S
C1745 H1748 0.929 . S
C1746 C1745 1.363 . S
C1746 C1752 1.428 . S
H1747 C1743 0.930 . S
H1748 C1745 0.929 . S
S1749 N1750 1.613 . S
S1749 N1751 1.610 . S
N1750 S1749 1.613 . S
N1750 C1753 1.350 . S
N1751 S1749 1.610 . S
N1751 C1752 1.351 . S
C1752 C1746 1.428 . S
C1752 N1751 1.351 . S
C1752 C1753 1.434 . S
C1753 C1744 1.429 . S
C1753 N1750 1.350 . S
C1753 C1752 1.434 . S
C1754 C1755 1.369 . S
C1754 C1756 1.419 . S
C1754 H1758 0.930 . S
C1755 C1754 1.369 . S
C1755 C1764 1.429 . S
C1756 C1754 1.419 . S
C1756 C1757 1.363 . S
C1756 H1759 0.929 . S
C1757 C1756 1.363 . S
C1757 C1763 1.428 . S
H1758 C1754 0.930 . S
H1759 C1756 0.929 . S
S1760 N1761 1.613 . S
S1760 N1762 1.610 . S
N1761 S1760 1.613 . S
N1761 C1764 1.350 . S
N1762 S1760 1.610 . S
N1762 C1763 1.351 . S
C1763 C1757 1.428 . S
C1763 N1762 1.351 . S
C1763 C1764 1.434 . S
C1764 C1755 1.429 . S
C1764 N1761 1.350 . S
C1764 C1763 1.434 . S
C1765 C1766 1.369 . S
C1765 C1767 1.419 . S
C1765 H1769 0.930 . S
C1766 C1765 1.369 . S
C1766 C1775 1.429 . S
C1767 C1765 1.419 . S
C1767 C1768 1.363 . S
C1767 H1770 0.929 . S
C1768 C1767 1.363 . S
C1768 C1774 1.428 . S
H1769 C1765 0.930 . S
H1770 C1767 0.929 . S
S1771 N1772 1.613 . S
S1771 N1773 1.610 . S
N1772 S1771 1.613 . S
N1772 C1775 1.350 . S
N1773 S1771 1.610 . S
N1773 C1774 1.351 . S
C1774 C1768 1.428 . S
C1774 N1773 1.351 . S
C1774 C1775 1.434 . S
C1775 C1766 1.429 . S
C1775 N1772 1.350 . S
C1775 C1774 1.434 . S
C1776 C1777 1.369 . S
C1776 C1778 1.419 1_565 S
C1776 H1780 0.930 . S
C1777 C1776 1.369 . S
C1777 C1786 1.429 . S
C1778 C1776 1.419 1_545 S
C1778 C1779 1.363 . S
C1778 H1781 0.929 . S
C1779 C1778 1.363 . S
C1779 C1785 1.428 1_545 S
H1780 C1776 0.930 . S
H1781 C1778 0.929 . S
S1782 N1783 1.613 . S
S1782 N1784 1.610 1_565 S
N1783 S1782 1.613 . S
N1783 C1786 1.350 . S
N1784 S1782 1.610 1_545 S
N1784 C1785 1.351 1_545 S
C1785 C1779 1.428 1_565 S
C1785 N1784 1.351 1_565 S
C1785 C1786 1.434 . S
C1786 C1777 1.429 . S
C1786 N1783 1.350 . S
C1786 C1785 1.434 . S
C1787 C1788 1.369 . S
C1787 C1789 1.419 . S
C1787 H1791 0.930 . S
C1788 C1787 1.369 . S
C1788 C1797 1.429 . S
C1789 C1787 1.419 . S
C1789 C1790 1.363 . S
C1789 H1792 0.929 . S
C1790 C1789 1.363 . S
C1790 C1796 1.428 . S
H1791 C1787 0.930 . S
H1792 C1789 0.929 . S
S1793 N1794 1.613 1_545 S
S1793 N1795 1.610 . S
N1794 S1793 1.613 1_565 S
N1794 C1797 1.350 . S
N1795 S1793 1.610 . S
N1795 C1796 1.351 1_545 S
C1796 C1790 1.428 . S
C1796 N1795 1.351 1_565 S
C1796 C1797 1.434 . S
C1797 C1788 1.429 . S
C1797 N1794 1.350 . S
C1797 C1796 1.434 . S
C1798 C1799 1.369 . S
C1798 C1800 1.419 . S
C1798 H1802 0.930 . S
C1799 C1798 1.369 . S
C1799 C1808 1.429 . S
C1800 C1798 1.419 . S
C1800 C1801 1.363 . S
C1800 H1803 0.929 . S
C1801 C1800 1.363 . S
C1801 C1807 1.428 . S
H1802 C1798 0.930 . S
H1803 C1800 0.929 . S
S1804 N1805 1.613 . S
S1804 N1806 1.610 . S
N1805 S1804 1.613 . S
N1805 C1808 1.350 . S
N1806 S1804 1.610 . S
N1806 C1807 1.351 . S
C1807 C1801 1.428 . S
C1807 N1806 1.351 . S
C1807 C1808 1.434 . S
C1808 C1799 1.429 . S
C1808 N1805 1.350 . S
C1808 C1807 1.434 . S
C1809 C1810 1.369 . S
C1809 C1811 1.419 . S
C1809 H1813 0.930 . S
C1810 C1809 1.369 . S
C1810 C1819 1.429 . S
C1811 C1809 1.419 . S
C1811 C1812 1.363 . S
C1811 H1814 0.929 . S
C1812 C1811 1.363 . S
C1812 C1818 1.428 . S
H1813 C1809 0.930 . S
H1814 C1811 0.929 . S
S1815 N1816 1.613 . S
S1815 N1817 1.610 . S
N1816 S1815 1.613 . S
N1816 C1819 1.350 . S
N1817 S1815 1.610 . S
N1817 C1818 1.351 . S
C1818 C1812 1.428 . S
C1818 N1817 1.351 . S
C1818 C1819 1.434 . S
C1819 C1810 1.429 . S
C1819 N1816 1.350 . S
C1819 C1818 1.434 . S
C1820 C1821 1.369 . S
C1820 C1822 1.419 . S
C1820 H1824 0.930 . S
C1821 C1820 1.369 . S
C1821 C1830 1.429 . S
C1822 C1820 1.419 . S
C1822 C1823 1.363 . S
C1822 H1825 0.929 . S
C1823 C1822 1.363 . S
C1823 C1829 1.428 . S
H1824 C1820 0.930 . S
H1825 C1822 0.929 . S
S1826 N1827 1.613 1_455 S
S1826 N1828 1.610 1_455 S
N1827 S1826 1.613 1_655 S
N1827 C1830 1.350 . S
N1828 S1826 1.610 1_655 S
N1828 C1829 1.351 . S
C1829 C1823 1.428 . S
C1829 N1828 1.351 . S
C1829 C1830 1.434 . S
C1830 C1821 1.429 . S
C1830 N1827 1.350 . S
C1830 C1829 1.434 . S
C1831 C1832 1.369 . S
C1831 C1833 1.419 . S
C1831 H1835 0.930 . S
C1832 C1831 1.369 . S
C1832 C1841 1.429 . S
C1833 C1831 1.419 . S
C1833 C1834 1.363 . S
C1833 H1836 0.929 . S
C1834 C1833 1.363 . S
C1834 C1840 1.428 . S
H1835 C1831 0.930 . S
H1836 C1833 0.929 . S
S1837 N1838 1.613 . S
S1837 N1839 1.610 . S
N1838 S1837 1.613 . S
N1838 C1841 1.350 . S
N1839 S1837 1.610 . S
N1839 C1840 1.351 . S
C1840 C1834 1.428 . S
C1840 N1839 1.351 . S
C1840 C1841 1.434 . S
C1841 C1832 1.429 . S
C1841 N1838 1.350 . S
C1841 C1840 1.434 . S
C1842 C1843 1.369 . S
C1842 C1844 1.419 . S
C1842 H1846 0.930 . S
C1843 C1842 1.369 . S
C1843 C1852 1.429 . S
C1844 C1842 1.419 . S
C1844 C1845 1.363 . S
C1844 H1847 0.929 . S
C1845 C1844 1.363 . S
C1845 C1851 1.428 . S
H1846 C1842 0.930 . S
H1847 C1844 0.929 . S
S1848 N1849 1.615 . S
S1848 N1850 1.614 . S
N1849 S1848 1.615 . S
N1849 C1852 1.350 . S
N1850 S1848 1.614 . S
N1850 C1851 1.351 . S
C1851 C1845 1.428 . S
C1851 N1850 1.351 . S
C1851 C1852 1.434 . S
C1852 C1843 1.429 . S
C1852 N1849 1.350 . S
C1852 C1851 1.434 . S
C1853 C1854 1.369 . S
C1853 C1855 1.419 . S
C1853 H1857 0.930 . S
C1854 C1853 1.369 . S
C1854 C1863 1.429 . S
C1855 C1853 1.419 . S
C1855 C1856 1.363 . S
C1855 H1858 0.929 . S
C1856 C1855 1.363 . S
C1856 C1862 1.428 . S
H1857 C1853 0.930 . S
H1858 C1855 0.929 . S
S1859 N1860 1.613 . S
S1859 N1861 1.610 . S
N1860 S1859 1.613 . S
N1860 C1863 1.350 . S
N1861 S1859 1.610 . S
N1861 C1862 1.351 . S
C1862 C1856 1.428 . S
C1862 N1861 1.351 . S
C1862 C1863 1.434 . S
C1863 C1854 1.429 . S
C1863 N1860 1.350 . S
C1863 C1862 1.434 . S
C1864 C1865 1.369 . S
C1864 C1866 1.419 . S
C1864 H1868 0.930 . S
C1865 C1864 1.369 . S
C1865 C1874 1.429 . S
C1866 C1864 1.419 . S
C1866 C1867 1.363 . S
C1866 H1869 0.929 . S
C1867 C1866 1.363 . S
C1867 C1873 1.428 . S
H1868 C1864 0.930 . S
H1869 C1866 0.929 . S
S1870 N1871 1.613 . S
S1870 N1872 1.610 . S
N1871 S1870 1.613 . S
N1871 C1874 1.350 . S
N1872 S1870 1.610 . S
N1872 C1873 1.351 . S
C1873 C1867 1.428 . S
C1873 N1872 1.351 . S
C1873 C1874 1.434 . S
C1874 C1865 1.429 . S
C1874 N1871 1.350 . S
C1874 C1873 1.434 . S
C1875 C1876 1.369 . S
C1875 C1877 1.419 . S
C1875 H1879 0.930 . S
C1876 C1875 1.369 . S
C1876 C1885 1.429 . S
C1877 C1875 1.419 . S
C1877 C1878 1.363 . S
C1877 H1880 0.929 . S
C1878 C1877 1.363 . S
C1878 C1884 1.428 . S
H1879 C1875 0.930 . S
H1880 C1877 0.929 . S
S1881 N1882 1.613 . S
S1881 N1883 1.610 . S
N1882 S1881 1.613 . S
N1882 C1885 1.350 . S
N1883 S1881 1.610 . S
N1883 C1884 1.351 . S
C1884 C1878 1.428 . S
C1884 N1883 1.351 . S
C1884 C1885 1.434 . S
C1885 C1876 1.429 . S
C1885 N1882 1.350 . S
C1885 C1884 1.434 . S
C1886 C1887 1.369 . S
C1886 C1888 1.419 . S
C1886 H1890 0.930 . S
C1887 C1886 1.369 . S
C1887 C1896 1.429 . S
C1888 C1886 1.419 . S
C1888 C1889 1.363 . S
C1888 H1891 0.929 . S
C1889 C1888 1.363 . S
C1889 C1895 1.428 . S
H1890 C1886 0.930 . S
H1891 C1888 0.929 . S
S1892 N1893 1.613 . S
S1892 N1894 1.610 . S
N1893 S1892 1.613 . S
N1893 C1896 1.350 . S
N1894 S1892 1.610 . S
N1894 C1895 1.351 . S
C1895 C1889 1.428 . S
C1895 N1894 1.351 . S
C1895 C1896 1.434 . S
C1896 C1887 1.429 . S
C1896 N1893 1.350 . S
C1896 C1895 1.434 . S
C1897 C1898 1.369 . S
C1897 C1899 1.419 . S
C1897 H1901 0.930 . S
C1898 C1897 1.369 . S
C1898 C1907 1.429 . S
C1899 C1897 1.419 . S
C1899 C1900 1.363 1_565 S
C1899 H1902 0.929 . S
C1900 C1899 1.363 1_545 S
C1900 C1906 1.428 . S
H1901 C1897 0.930 . S
H1902 C1899 0.929 . S
S1903 N1904 1.613 . S
S1903 N1905 1.610 1_565 S
N1904 S1903 1.613 . S
N1904 C1907 1.350 . S
N1905 S1903 1.610 1_545 S
N1905 C1906 1.351 . S
C1906 C1900 1.428 . S
C1906 N1905 1.351 . S
C1906 C1907 1.434 1_545 S
C1907 C1898 1.429 . S
C1907 N1904 1.350 . S
C1907 C1906 1.434 1_565 S
C721 C559 1.865 . S
C723 C19 1.867 . S
C732 C579 1.863 . S
C734 C39 1.870 1_655 S
C743 C59 1.863 . S
C745 C599 1.869 . S
C754 C79 1.868 . S
C756 C259 1.865 . S
C765 C99 1.864 . S
C767 C279 1.872 . S
C776 C299 1.863 . S
C778 C119 1.871 1_565 S
C787 C138 1.873 1_565 S
C789 C438 1.864 . S
C798 C458 1.873 . S
C800 C158 1.865 . S
C809 C178 1.868 . S
C811 C478 1.871 . S
C820 C618 1.864 . S
C822 C198 1.872 1_655 S
C831 C218 1.869 . S
C833 C638 1.865 . S
C842 C658 1.863 . S
C844 C238 1.871 . S
C853 C499 1.868 . S
C855 C319 1.864 . S
C864 C339 1.867 . S
C866 C519 1.866 . S
C875 C539 1.872 . S
C877 C359 1.864 . S
C886 C378 1.869 . S
C888 C678 1.865 . S
C897 C398 1.864 . S
C899 C698 1.868 . S
C908 C718 1.868 . S
C910 C418 1.871 . S
C919 C18 1.644 . S
C921 C139 1.648 . S
C930 C159 1.648 . S
C932 C38 1.645 . S
C941 C58 1.645 . S
C943 C179 1.646 . S
C952 C199 1.645 . S
C954 C78 1.647 . S
C963 C98 1.642 . S
C965 C219 1.649 . S
C974 C239 1.642 . S
C976 C118 1.649 . S
C985 C379 1.650 . S
C987 C258 1.643 . S
C996 C278 1.643 . S
C998 C399 1.649 . S
C1007 C419 1.648 . S
C1009 C298 1.644 . S
C1018 C318 1.643 . S
C1020 C439 1.648 . S
C1029 C459 1.643 . S
C1031 C338 1.649 . S
C1040 C358 1.650 . S
C1042 C479 1.643 . S
C1051 C498 1.649 . S
C1053 C619 1.644 . S
C1062 C639 1.644 . S
C1064 C518 1.647 . S
C1073 C659 1.645 . S
C1075 C538 1.647 . S
C1084 C679 1.647 . S
C1086 C558 1.645 . S
C1095 C578 1.643 . S
C1097 C699 1.649 . S
C1106 C598 1.643 . S
C1108 C719 1.648 . S
C1117 C9 1.523 . S
C1119 C42 1.362 . S
C1128 C29 1.531 . S
C1130 C2 1.359 . S
C1139 C22 1.354 . S
C1141 C49 1.526 . S
C1150 C69 1.526 . S
C1152 C82 1.355 . S
C1161 C102 1.365 . S
C1163 C89 1.524 . S
C1172 C62 1.356 . S
C1174 C109 1.530 . S
C1183 C164 1.354 . S
C1185 C132 1.528 . S
C1194 C152 1.525 . S
C1196 C124 1.356 . S
C1205 C172 1.531 . S
C1207 C144 1.364 . S
C1216 C204 1.365 . S
C1218 C192 1.530 . S
C1227 C212 1.524 . S
C1229 C224 1.358 . S
C1238 C232 1.525 . S
C1240 C184 1.367 . S
C1249 C282 1.357 . S
C1251 C249 1.525 . S
C1260 C242 1.355 1_655 S
C1262 C269 1.529 1_545 S
C1271 C262 1.364 . S
C1273 C289 1.524 . S
C1282 C322 1.354 . S
C1284 C309 1.529 . S
C1293 C329 1.524 . S
C1295 C342 1.366 . S
C1304 C302 1.356 . S
C1306 C349 1.525 . S
C1315 C372 1.524 . S
C1317 C404 1.358 . S
C1326 C364 1.354 . S
C1328 C392 1.528 . S
C1337 C412 1.526 . S
C1339 C384 1.368 . S
C1348 C444 1.359 1_655 S
C1350 C432 1.530 . S
C1359 C464 1.368 . S
C1361 C452 1.529 1_545 S
C1370 C424 1.367 . S
C1372 C472 1.529 . S
C1381 C522 1.356 . S
C1383 C489 1.530 . S
C1392 C509 1.531 . S
C1394 C482 1.358 . S
C1403 C502 1.369 . S
C1405 C529 1.527 . S
C1414 C549 1.528 . S
C1416 C562 1.368 . S
C1425 C569 1.523 . S
C1427 C582 1.361 . S
C1436 C542 1.354 1_565 S
C1438 C589 1.526 1_455 S
C1447 C612 1.524 . S
C1449 C644 1.357 1_565 S
C1458 C632 1.525 . S
C1460 C604 1.356 . S
C1469 C624 1.368 . S
C1471 C652 1.525 1_455 S
C1480 C672 1.523 . S
C1482 C684 1.361 . S
C1491 C704 1.370 . S
C1493 C692 1.527 . S
C1502 C664 1.357 . S
C1504 C712 1.530 . S
C1513 C44 1.181 . S
C1515 C12 1.117 . S
C1524 C32 1.121 . S
C1526 C4 1.182 . S
C1535 C24 1.193 . S
C1537 C52 1.118 . S
C1546 C84 1.183 . S
C1548 C72 1.125 . S
C1557 C92 1.128 . S
C1559 C104 1.190 . S
C1568 C112 1.129 . S
C1570 C64 1.187 . S
C1579 C162 1.189 . S
C1581 C129 1.127 . S
C1590 C149 1.122 . S
C1592 C122 1.182 . S
C1601 C142 1.183 . S
C1603 C169 1.115 . S
C1612 C202 1.181 . S
C1614 C189 1.120 . S
C1623 C222 1.192 . S
C1625 C209 1.116 . S
C1634 C182 1.192 . S
C1636 C229 1.116 . S
C1645 C252 1.112 . S
C1647 C284 1.189 . S
C1656 C272 1.127 . S
C1658 C244 1.191 . S
C1667 C292 1.119 . S
C1669 C264 1.192 . S
C1678 C324 1.186 . S
C1680 C312 1.127 . S
C1689 C332 1.111 . S
C1691 C344 1.188 . S
C1700 C352 1.125 1_655 S
C1702 C304 1.184 1_545 S
C1711 C402 1.188 1_545 S
C1713 C369 1.113 . S
C1722 C362 1.184 . S
C1724 C389 1.126 . S
C1733 C409 1.127 1_655 S
C1735 C382 1.190 . S
C1744 C442 1.186 . S
C1746 C429 1.113 . S
C1755 C449 1.111 . S
C1757 C462 1.187 . S
C1766 C469 1.123 . S
C1768 C422 1.183 . S
C1777 C492 1.117 . S
C1779 C524 1.191 . S
C1788 C484 1.181 1_455 S
C1790 C512 1.116 1_565 S
C1799 C504 1.187 . S
C1801 C532 1.113 . S
C1810 C564 1.189 . S
C1812 C552 1.114 . S
C1821 C572 1.129 . S
C1823 C584 1.188 . S
C1832 C592 1.112 . S
C1834 C544 1.189 . S
C1843 C642 1.187 . S
C1845 C609 1.127 . S
C1854 C602 1.189 . S
C1856 C629 1.114 . S
C1865 C649 1.123 . S
C1867 C622 1.183 . S
C1876 C682 1.186 1_455 S
C1878 C669 1.113 . S
C1887 C689 1.114 1_565 S
C1889 C702 1.191 . S
C1898 C709 1.114 . S
C1900 C662 1.184 . S
