# Generated by pormake.
# Topology hjm, (4)-cn, num edge types: 1
# Building blocks:
#     Node 0, Type 0, BuildingBlock: KUFVIS_clean_sbu_0, # of connection points: 4
#     Node 1, Type 0, BuildingBlock: KUFVIS_clean_sbu_0, # of connection points: 4
#     Node 2, Type 0, BuildingBlock: KUFVIS_clean_sbu_0, # of connection points: 4
#     Node 3, Type 0, BuildingBlock: KUFVIS_clean_sbu_0, # of connection points: 4
#     Node 4, Type 0, BuildingBlock: KUFVIS_clean_sbu_0, # of connection points: 4
#     Node 5, Type 0, BuildingBlock: KUFVIS_clean_sbu_0, # of connection points: 4
#     Node 6, Type 0, BuildingBlock: KUFVIS_clean_sbu_0, # of connection points: 4
#     Node 7, Type 0, BuildingBlock: KUFVIS_clean_sbu_0, # of connection points: 4
#     Edge 8, Type (0, 0), BuildingBlock: OJICUG_clean_linker_0, # of connection points: 2
#     Edge 9, Type (0, 0), BuildingBlock: OJICUG_clean_linker_0, # of connection points: 2
#     Edge 10, Type (0, 0), BuildingBlock: OJICUG_clean_linker_0, # of connection points: 2
#     Edge 11, Type (0, 0), BuildingBlock: OJICUG_clean_linker_0, # of connection points: 2
#     Edge 12, Type (0, 0), BuildingBlock: OJICUG_clean_linker_0, # of connection points: 2
#     Edge 13, Type (0, 0), BuildingBlock: OJICUG_clean_linker_0, # of connection points: 2
#     Edge 14, Type (0, 0), BuildingBlock: OJICUG_clean_linker_0, # of connection points: 2
#     Edge 15, Type (0, 0), BuildingBlock: OJICUG_clean_linker_0, # of connection points: 2
#     Edge 16, Type (0, 0), BuildingBlock: OJICUG_clean_linker_0, # of connection points: 2
#     Edge 17, Type (0, 0), BuildingBlock: OJICUG_clean_linker_0, # of connection points: 2
#     Edge 18, Type (0, 0), BuildingBlock: OJICUG_clean_linker_0, # of connection points: 2
#     Edge 19, Type (0, 0), BuildingBlock: OJICUG_clean_linker_0, # of connection points: 2
#     Edge 20, Type (0, 0), BuildingBlock: OJICUG_clean_linker_0, # of connection points: 2
#     Edge 21, Type (0, 0), BuildingBlock: OJICUG_clean_linker_0, # of connection points: 2
#     Edge 22, Type (0, 0), BuildingBlock: OJICUG_clean_linker_0, # of connection points: 2
#     Edge 23, Type (0, 0), BuildingBlock: OJICUG_clean_linker_0, # of connection points: 2
# Relax obj value: 0.063
# Max RMSD: 0.107
# Mean RMSD: 0.106
data_MOF--net-hjm--node1-KUFVIS_clean_sbu_0--edge1-OJICUG_clean_linker_0
_symmetry_space_group_name_H-M    P1
_symmetry_Int_Tables_number       1
_symmetry_cell_setting            triclinic
loop_
_symmetry_equiv_pos_as_xyz
'x, y, z'
_cell_length_a     20.094277
_cell_length_b     17.663977
_cell_length_c     18.952604
_cell_angle_alpha  90.10178
_cell_angle_beta   54.671234
_cell_angle_gamma 90.092722
loop_
_atom_site_label
_atom_site_type_symbol
_atom_site_fract_x
_atom_site_fract_y
_atom_site_fract_z
_atom_type_partial_charge
Mn0 Mn 0.16574 0.23311 0.32608 0.0
Mn1 Mn 0.2547 0.39396 0.21767 0.0
C2 C 0.12123 0.34928 0.40303 0.0
C3 C 0.07307 0.12448 0.38882 0.0
C4 C 0.34782 0.28563 0.25092 0.0
O5 O 0.19131 0.21754 0.19923 0.0
O6 O 0.24283 0.33148 0.14001 0.0
C7 C 0.12693 0.45405 0.20289 0.0
N8 N 0.17873 0.46294 0.2265 0.0
C9 C 0.11841 0.58146 0.2925 0.0
C10 C 0.07461 0.5796 0.25661 0.0
C11 C 0.07586 0.51356 0.21542 0.0
C12 C 0.17375 0.52354 0.27187 0.0
H13 H 0.11987 0.40054 0.18109 0.0
C14 C 0.21122 0.26866 0.14048 0.0
O15 O 0.14816 0.12328 0.36216 0.0
O16 O 0.05003 0.18898 0.3766 0.0
N17 N 0.26426 0.4603 0.29008 0.0
C18 C 0.31152 0.45576 0.32021 0.0
C19 C 0.3015 0.50858 0.38016 0.0
C20 C 0.24595 0.56696 0.4051 0.0
C21 C 0.20436 0.57465 0.3672 0.0
C22 C 0.21567 0.52018 0.30887 0.0
H23 H 0.35739 0.41387 0.29875 0.0
O24 O 0.11669 0.28672 0.44157 0.0
O25 O 0.1573 0.342 0.32018 0.0
O26 O 0.28374 0.24577 0.30275 0.0
O27 O 0.34667 0.33097 0.19961 0.0
C28 C 0.14911 0.63258 0.38843 0.0
C29 C 0.102 0.63287 0.3564 0.0
H30 H 0.03549 0.62606 0.2661 0.0
H31 H 0.0325 0.50566 0.20088 0.0
H32 H 0.33567 0.50437 0.40746 0.0
H33 H 0.23512 0.60599 0.45337 0.0
H34 H 0.14234 0.67649 0.42971 0.0
H35 H 0.05064 0.67011 0.38517 0.0
Mn36 Mn 0.8246 0.22468 0.19849 0.0
Mn37 Mn 0.74123 0.38726 0.3 0.0
C38 C 0.88259 0.33983 0.12028 0.0
C39 C 0.91212 0.11397 0.14505 0.0
C40 C 0.6501 0.28876 0.25318 0.0
O41 O 0.78847 0.20755 0.3287 0.0
O42 O 0.72626 0.31752 0.38925 0.0
C43 C 0.85372 0.42224 0.34485 0.0
N44 N 0.81327 0.44271 0.31077 0.0
C45 C 0.86644 0.56625 0.28536 0.0
C46 C 0.88644 0.5531 0.34374 0.0
C47 C 0.8816 0.47869 0.37207 0.0
C48 C 0.82106 0.5117 0.27874 0.0
H49 H 0.86176 0.36403 0.35394 0.0
C50 C 0.75924 0.25667 0.39111 0.0
O51 O 0.8392 0.1147 0.16446 0.0
O52 O 0.93525 0.17748 0.15935 0.0
N53 N 0.75557 0.46149 0.22146 0.0
C54 C 0.73704 0.45912 0.16304 0.0
C55 C 0.75745 0.52074 0.10867 0.0
C56 C 0.79564 0.58358 0.11637 0.0
C57 C 0.81787 0.58298 0.17372 0.0
C58 C 0.79494 0.52047 0.22666 0.0
H59 H 0.70918 0.41015 0.1563 0.0
O60 O 0.88526 0.27829 0.08099 0.0
O61 O 0.83975 0.33253 0.20397 0.0
O62 O 0.71011 0.24151 0.21286 0.0
O63 O 0.65221 0.34063 0.29789 0.0
C64 C 0.86777 0.63781 0.1758 0.0
C65 C 0.89559 0.62637 0.22799 0.0
H66 H 0.90832 0.59835 0.36357 0.0
H67 H 0.89816 0.46259 0.41396 0.0
H68 H 0.7453 0.51886 0.06007 0.0
H69 H 0.80972 0.63138 0.0761 0.0
H70 H 0.88674 0.68842 0.13815 0.0
H71 H 0.9444 0.65959 0.21865 0.0
Mn72 Mn 0.77265 0.72147 0.68698 0.0
Mn73 Mn 0.92528 0.74304 0.70191 0.0
C74 C 0.74701 0.7573 0.82269 0.0
C75 C 0.66586 0.65466 0.70646 0.0
C76 C 0.89918 0.84968 0.59257 0.0
O77 O 0.86176 0.64633 0.59119 0.0
O78 O 0.95086 0.65541 0.6255 0.0
C79 C 0.90408 0.60155 0.79285 0.0
N80 N 0.91541 0.67779 0.78525 0.0
C81 C 0.91616 0.68498 0.90945 0.0
C82 C 0.91509 0.60566 0.91234 0.0
C83 C 0.90588 0.56351 0.85605 0.0
C84 C 0.91588 0.71909 0.84436 0.0
H85 H 0.8922 0.57075 0.75223 0.0
C86 C 0.9236 0.62076 0.58833 0.0
O87 O 0.69954 0.70906 0.65052 0.0
O88 O 0.69898 0.63427 0.74525 0.0
N89 N 0.90473 0.82343 0.77838 0.0
C90 C 0.88279 0.89637 0.77928 0.0
C91 C 0.87195 0.94561 0.84294 0.0
C92 C 0.88561 0.9202 0.90348 0.0
C93 C 0.90386 0.84367 0.90355 0.0
C94 C 0.91116 0.79659 0.84037 0.0
H95 H 0.86819 0.91543 0.73589 0.0
O96 O 0.69675 0.778 0.80425 0.0
O97 O 0.81124 0.72505 0.75837 0.0
O98 O 0.83005 0.8223 0.61736 0.0
O99 O 0.94088 0.81787 0.61494 0.0
C100 C 0.90641 0.81035 0.96886 0.0
C101 C 0.91591 0.73153 0.96928 0.0
H102 H 0.9179 0.57664 0.9599 0.0
H103 H 0.89987 0.50254 0.86174 0.0
H104 H 0.8468 0.0007 0.84944 0.0
H105 H 0.8741 0.95796 0.9544 0.0
H106 H 0.90022 0.84421 1.01981 0.0
H107 H 0.92382 0.70708 1.01508 0.0
Mn108 Mn 0.23042 0.722 0.85491 0.0
Mn109 Mn 0.08336 0.73834 0.83254 0.0
C110 C 0.26042 0.76279 0.71936 0.0
C111 C 0.33626 0.65684 0.83796 0.0
C112 C 0.09548 0.83757 0.95659 0.0
O113 O 0.14068 0.64308 0.94544 0.0
O114 O 0.06438 0.64096 0.89403 0.0
C115 C 0.11111 0.61199 0.71813 0.0
N116 N 0.10002 0.68713 0.73652 0.0
C117 C 0.09644 0.71485 0.61571 0.0
C118 C 0.10181 0.63707 0.59921 0.0
C119 C 0.11256 0.58555 0.648 0.0
C120 C 0.09662 0.73755 0.68541 0.0
H121 H 0.1183 0.57301 0.75692 0.0
C122 C 0.08702 0.6106 0.93797 0.0
O123 O 0.2998 0.70939 0.89623 0.0
O124 O 0.30649 0.6382 0.79527 0.0
N125 N 0.10143 0.82888 0.7694 0.0
C126 C 0.1254 0.89859 0.77683 0.0
C127 C 0.13313 0.95697 0.72315 0.0
C128 C 0.11829 0.94339 0.66063 0.0
C129 C 0.10204 0.86938 0.64866 0.0
C130 C 0.09653 0.81297 0.70333 0.0
H131 H 0.143 0.90906 0.81966 0.0
O132 O 0.30782 0.78326 0.7418 0.0
O133 O 0.19714 0.7264 0.77946 0.0
O134 O 0.16881 0.82011 0.92594 0.0
O135 O 0.05655 0.79889 0.93518 0.0
C136 C 0.09887 0.84798 0.57979 0.0
C137 C 0.09199 0.7712 0.56604 0.0
H138 H 0.09869 0.61574 0.5486 0.0
H139 H 0.12013 0.52577 0.63269 0.0
H140 H 0.15538 0.01044 0.72705 0.0
H141 H 0.12643 -0.01162 0.61755 0.0
H142 H 0.10526 0.88946 0.53446 0.0
H143 H 0.08241 0.7585 0.51741 0.0
Mn144 Mn 0.66182 0.72394 0.34138 0.0
Mn145 Mn 0.74537 0.88648 0.24016 0.0
C146 C 0.60374 0.8392 0.41971 0.0
C147 C 0.57434 0.61306 0.3947 0.0
C148 C 0.83636 0.78813 0.28683 0.0
O149 O 0.69792 0.70676 0.2111 0.0
O150 O 0.76021 0.81676 0.15079 0.0
C151 C 0.63317 0.92177 0.19508 0.0
N152 N 0.67351 0.94203 0.22943 0.0
C153 C 0.62144 0.06588 0.2544 0.0
C154 C 0.60156 0.05283 0.19585 0.0
C155 C 0.60588 0.97839 0.1676 0.0
C156 C 0.66618 0.01107 0.26137 0.0
H157 H 0.62482 0.86358 0.18597 0.0
C158 C 0.72718 0.75589 0.1488 0.0
O159 O 0.64727 0.614 0.37523 0.0
O160 O 0.55117 0.67645 0.3805 0.0
N161 N 0.73123 0.96068 0.31885 0.0
C162 C 0.74995 0.95844 0.37712 0.0
C163 C 0.73013 0.02032 0.43121 0.0
C164 C 0.69231 0.08324 0.42339 0.0
C165 C 0.67012 0.08261 0.366 0.0
C166 C 0.69231 0.01979 0.31348 0.0
H167 H 0.77757 0.90944 0.38392 0.0
O168 O 0.60103 0.77775 0.45896 0.0
O169 O 0.64671 0.83177 0.33602 0.0
O170 O 0.77631 0.74086 0.3271 0.0
O171 O 0.83431 0.83985 0.24212 0.0
C172 C 0.62116 0.13792 0.3633 0.0
C173 C 0.59306 0.1264 0.31133 0.0
H174 H 0.58022 0.09818 0.17572 0.0
H175 H 0.58936 0.96246 0.12554 0.0
H176 H 0.74248 0.01862 0.47966 0.0
H177 H 0.67825 0.13104 0.46376 0.0
H178 H 0.60354 0.18916 0.39996 0.0
H179 H 0.54484 0.16007 0.32026 0.0
Mn180 Mn 0.32066 0.73358 0.21389 0.0
Mn181 Mn 0.23199 0.89452 0.32247 0.0
C182 C 0.36524 0.8496 0.13703 0.0
C183 C 0.41319 0.62501 0.15104 0.0
C184 C 0.13863 0.78607 0.28917 0.0
O185 O 0.29516 0.71817 0.34067 0.0
O186 O 0.24382 0.83215 0.40004 0.0
C187 C 0.36025 0.95452 0.33679 0.0
N188 N 0.30832 0.96345 0.31339 0.0
C189 C 0.36941 0.08158 0.24674 0.0
C190 C 0.4135 0.07968 0.2823 0.0
C191 C 0.41192 0.0138 0.32368 0.0
C192 C 0.31365 0.02384 0.26776 0.0
H193 H 0.3669 0.90113 0.35894 0.0
C194 C 0.27534 0.76935 0.39947 0.0
O195 O 0.3381 0.62372 0.17769 0.0
O196 O 0.43631 0.68957 0.1633 0.0
N197 N 0.22246 0.96074 0.25021 0.0
C198 C 0.1746 0.95637 0.22079 0.0
C199 C 0.18466 0.00898 0.1608 0.0
C200 C 0.24086 0.06702 0.13517 0.0
C201 C 0.28289 0.07473 0.17261 0.0
C202 C 0.27151 0.02043 0.231 0.0
H203 H 0.12816 0.91484 0.24298 0.0
O204 O 0.36968 0.78697 0.09846 0.0
O205 O 0.32924 0.84246 0.21987 0.0
O206 O 0.20266 0.74621 0.23728 0.0
O207 O 0.13983 0.83146 0.34057 0.0
C208 C 0.33852 0.13254 0.15107 0.0
C209 C 0.38587 0.13281 0.18283 0.0
H210 H 0.45304 0.12599 0.27243 0.0
H211 H 0.45542 0.0058 0.33796 0.0
H212 H 0.14991 0.00493 0.13413 0.0
H213 H 0.25158 0.10593 0.08697 0.0
H214 H 0.34547 0.17643 0.10978 0.0
H215 H 0.43742 0.16993 0.15387 0.0
Mn216 Mn 0.25586 0.22132 0.68504 0.0
Mn217 Mn 0.40304 0.23801 0.70712 0.0
C218 C 0.22603 0.26224 0.82057 0.0
C219 C 0.14984 0.15626 0.70208 0.0
C220 C 0.39097 0.33663 0.58302 0.0
O221 O 0.34549 0.14225 0.59451 0.0
O222 O 0.42176 0.14033 0.64597 0.0
C223 C 0.37514 0.11222 0.82172 0.0
N224 N 0.38641 0.1873 0.80318 0.0
C225 C 0.3898 0.21562 0.92407 0.0
C226 C 0.3843 0.1379 0.94069 0.0
C227 C 0.37354 0.08612 0.89195 0.0
C228 C 0.38985 0.23798 0.8542 0.0
H229 H 0.36789 0.07303 0.78301 0.0
C230 C 0.39907 0.10983 0.60202 0.0
O231 O 0.18648 0.20863 0.64373 0.0
O232 O 0.17957 0.13769 0.74476 0.0
N233 N 0.3851 0.32887 0.77005 0.0
C234 C 0.36111 0.39845 0.76254 0.0
C235 C 0.35328 0.45708 0.81621 0.0
C236 C 0.36796 0.44385 0.87887 0.0
C237 C 0.38425 0.36998 0.8909 0.0
C238 C 0.38995 0.31333 0.83618 0.0
H239 H 0.34359 0.40865 0.71964 0.0
O240 O 0.17863 0.2827 0.79822 0.0
O241 O 0.28925 0.22587 0.76037 0.0
O242 O 0.31751 0.31933 0.61402 0.0
O243 O 0.42989 0.29796 0.60427 0.0
C244 C 0.38714 0.34892 0.95999 0.0
C245 C 0.3939 0.27222 0.97392 0.0
H246 H 0.38743 0.11676 0.99126 0.0
H247 H 0.36582 0.02639 0.9074 0.0
H248 H 0.33117 0.51051 0.81212 0.0
H249 H 0.3597 0.489 0.92197 0.0
H250 H 0.38039 0.39059 1.00546 0.0
H251 H 0.40267 0.25978 0.02315 0.0
Mn252 Mn 0.71356 0.22207 0.85289 0.0
Mn253 Mn 0.56095 0.24273 0.83782 0.0
C254 C 0.7392 0.25783 0.71728 0.0
C255 C 0.82034 0.15554 0.83332 0.0
C256 C 0.58692 0.35011 0.94716 0.0
O257 O 0.62466 0.14684 0.94859 0.0
O258 O 0.5354 0.15551 0.91452 0.0
C259 C 0.58216 0.1006 0.74728 0.0
N260 N 0.57092 0.17685 0.75461 0.0
C261 C 0.57024 0.1831 0.63032 0.0
C262 C 0.57151 0.10378 0.62749 0.0
C263 C 0.58058 0.0621 0.68403 0.0
C264 C 0.57054 0.21769 0.6953 0.0
H265 H 0.59382 0.07011 0.78814 0.0
C266 C 0.56273 0.1211 0.95163 0.0
O267 O 0.78672 0.21002 0.8893 0.0
O268 O 0.78726 0.13502 0.79446 0.0
N269 N 0.58136 0.32265 0.76115 0.0
C270 C 0.6029 0.3958 0.76027 0.0
C271 C 0.61361 0.44465 0.69654 0.0
C272 C 0.60025 0.41862 0.6359 0.0
C273 C 0.5823 0.34192 0.63587 0.0
C274 C 0.57514 0.29526 0.69912 0.0
H275 H 0.61735 0.41534 0.80371 0.0
O276 O 0.78937 0.27875 0.73587 0.0
O277 O 0.67504 0.22529 0.7814 0.0
O278 O 0.65592 0.32278 0.92271 0.0
O279 O 0.54535 0.31815 0.92455 0.0
C280 C 0.57969 0.3081 0.5707 0.0
C281 C 0.57016 0.22922 0.57055 0.0
H282 H 0.56917 0.07443 0.57965 0.0
H283 H 0.58668 0.00113 0.67847 0.0
H284 H 0.63851 0.49994 0.69002 0.0
H285 H 0.61179 0.45608 0.58487 0.0
H286 H 0.58547 0.34166 0.51989 0.0
H287 H 0.5617 0.20428 0.52522 0.0
C288 C 0.964 0.01951 0.43153 0.0
C289 C 0.01705 0.05994 0.44469 0.0
H290 H 0.88469 0.92169 0.46652 0.0
C291 C 0.02337 0.03359 0.51031 0.0
H292 H 0.95738 0.03745 0.38129 0.0
C293 C 0.98047 0.96978 0.56004 0.0
C294 C 0.93231 0.92501 0.54408 0.0
H295 H 0.06299 0.06238 0.52301 0.0
H296 H 0.98693 0.95489 0.61092 0.0
C297 C 0.92233 0.95268 0.48046 0.0
C298 C 0.00863 0.95204 0.98422 0.0
C299 C 0.05643 0.912 1.00404 0.0
H300 H 0.92766 0.04374 1.01152 0.0
C301 C 0.06246 0.94397 0.06865 0.0
H302 H 0.00405 0.93274 0.93349 0.0
C303 C 0.01818 0.01103 0.11414 0.0
C304 C 0.96747 0.04769 0.09543 0.0
H305 H 0.09884 0.91573 0.0859 0.0
H306 H 0.02101 0.03252 0.16584 0.0
C307 C 0.96469 0.01708 0.02905 0.0
C308 C 0.42386 0.4429 0.47118 0.0
C309 C 0.43017 0.41095 0.53549 0.0
H310 H 0.46509 0.53143 0.37423 0.0
C311 C 0.4783 0.45096 0.55504 0.0
H312 H 0.38723 0.41464 0.45413 0.0
C313 C 0.52218 0.51606 0.5103 0.0
C314 C 0.51907 0.54668 0.44424 0.0
H315 H 0.483 0.43165 0.6056 0.0
H316 H 0.55939 0.54276 0.52769 0.0
C317 C 0.46812 0.50997 0.42573 0.0
C318 C 0.46297 0.53403 0.02936 0.0
C319 C 0.46916 0.56047 0.09513 0.0
H320 H 0.49949 0.45521 0.92862 0.0
C321 C 0.52203 0.52011 0.10842 0.0
H322 H 0.4235 0.56277 1.01655 0.0
C323 C 0.56365 0.45325 0.05946 0.0
C324 C 0.55378 0.42547 0.99571 0.0
H325 H 0.52855 0.53813 0.15877 0.0
H326 H 0.60118 0.42234 0.07347 0.0
C327 C 0.50583 0.47018 0.97961 0.0
C328 C 0.97525 0.44928 0.10522 0.0
C329 C 0.94116 0.40575 0.07074 0.0
H330 H 0.04429 0.55054 0.09193 0.0
C331 C 0.96925 0.42265 0.98516 0.0
H332 H 0.96254 0.43347 0.1667 0.0
C333 C 0.02245 0.48448 0.94004 0.0
C334 C 0.04679 0.53473 0.97969 0.0
H335 H 0.94895 0.38887 0.95321 0.0
H336 H 0.04057 0.49543 0.87512 0.0
C337 C 0.02496 0.51396 0.06155 0.0
C338 C 0.02112 0.45278 0.42906 0.0
C339 C 0.06626 0.41556 0.45418 0.0
H340 H 0.94762 0.55104 0.44706 0.0
C341 C 0.05327 0.43948 0.53179 0.0
H342 H 0.02492 0.43245 0.37323 0.0
C343 C 0.00272 0.50226 0.57757 0.0
C344 C 0.96544 0.54575 0.54639 0.0
H345 H 0.08317 0.41049 0.5566 0.0
H346 H -0.00451 0.51783 0.6364 0.0
C347 C 0.9736 0.51809 0.47309 0.0
C348 C 0.51387 0.01801 0.06613 0.0
C349 C 0.52094 0.04608 0.99359 0.0
H350 H 0.46285 0.93232 0.16579 0.0
C351 C 0.48281 0.00284 0.96305 0.0
H352 H 0.54069 0.05068 0.09159 0.0
C353 C 0.43235 0.94003 1.00883 0.0
C354 C 0.42024 0.91585 0.08585 0.0
H355 H 0.48942 0.01858 0.90462 0.0
H356 H 0.4018 0.91124 0.98452 0.0
C357 C 0.46619 0.95278 0.1103 0.0
C358 C 0.51163 0.94879 0.43434 0.0
C359 C 0.54508 0.90509 0.46922 0.0
H360 H 0.44338 0.05032 0.44721 0.0
C361 C 0.51626 0.92182 0.55513 0.0
H362 H 0.52473 0.93307 0.37264 0.0
C363 C 0.46297 0.98361 0.60021 0.0
C364 C 0.43929 0.03398 0.56024 0.0
H365 H 0.53605 0.88793 0.58736 0.0
H366 H 0.44433 -0.00554 0.66537 0.0
C367 C 0.462 0.01349 0.47793 0.0
C368 C 0.30777 0.69788 0.49947 0.0
C369 C 0.28983 0.76396 0.47132 0.0
H370 H 0.30553 0.64365 0.60332 0.0
C371 C 0.28492 0.83159 0.51538 0.0
H372 H 0.32702 0.64671 0.46186 0.0
C373 C 0.28695 0.83196 0.58842 0.0
C374 C 0.28517 0.76422 0.62713 0.0
H375 H 0.27433 0.88574 0.49734 0.0
H376 H 0.28184 0.8853 0.61927 0.0
C377 C 0.30011 0.69706 0.57908 0.0
C378 C 0.72102 0.82117 0.95626 0.0
C379 C 0.72501 0.75473 0.91431 0.0
H380 H 0.73634 0.8723 0.04654 0.0
C381 C 0.7143 0.68603 0.9587 0.0
H382 H 0.7239 0.87533 0.92812 0.0
C383 C 0.70635 0.68503 0.03883 0.0
C384 C 0.71926 0.75106 0.07171 0.0
H385 H 0.71213 0.63294 0.93145 0.0
H386 H 0.69244 0.63255 0.07299 0.0
C387 C 0.72433 0.81901 0.02848 0.0
C388 C 0.76213 0.31982 0.51161 0.0
C389 C 0.76725 0.25188 0.46812 0.0
H390 H 0.76236 0.37607 0.61232 0.0
C391 C 0.78046 0.1859 0.5006 0.0
H392 H 0.75027 0.37312 0.49361 0.0
C393 C 0.77231 0.18682 0.58082 0.0
C394 C 0.7613 0.25543 0.62563 0.0
H395 H 0.79479 0.13351 0.46605 0.0
H396 H 0.77463 0.13372 0.60779 0.0
C397 C 0.7653 0.32193 0.58393 0.0
C398 C 0.17898 0.19706 0.0401 0.0
C399 C 0.1967 0.2632 0.06861 0.0
H400 H 0.18121 0.1429 0.93603 0.0
C401 C 0.20158 0.33085 0.02479 0.0
H402 H 0.16011 0.14573 0.07729 0.0
C403 C 0.19955 0.33125 0.95176 0.0
C404 C 0.2013 0.26355 0.91281 0.0
H405 H 0.21226 0.385 0.04292 0.0
H406 H 0.20473 0.38461 0.92107 0.0
C407 C 0.18652 0.19633 0.96054 0.0
C408 C 0.50681 0.28219 0.17335 0.0
C409 C 0.42603 0.28212 0.25073 0.0
H410 H 0.63757 0.27837 0.11201 0.0
C411 C 0.42168 0.28631 0.328 0.0
H412 H 0.515 0.28139 0.11173 0.0
C413 C 0.49302 0.29121 0.32771 0.0
C414 C 0.57362 0.28571 0.25074 0.0
H415 H 0.36242 0.28868 0.38946 0.0
H416 H 0.48502 0.29543 0.38915 0.0
C417 C 0.57824 0.28074 0.17338 0.0
C418 C 0.5243 0.63267 0.83028 0.0
C419 C 0.58282 0.63261 0.74047 0.0
H420 H 0.39726 0.64253 0.93256 0.0
C421 C 0.55887 0.62542 0.68462 0.0
H422 H 0.54217 0.63911 0.87406 0.0
C423 C 0.47647 0.62348 0.71831 0.0
C424 C 0.41799 0.6329 0.80756 0.0
H425 H 0.60372 0.62528 0.6151 0.0
H426 H 0.459 0.62249 0.67388 0.0
C427 C 0.4419 0.6346 0.8637 0.0
C428 C 0.97961 0.78133 0.36673 0.0
C429 C 0.0604 0.78234 0.28937 0.0
H430 H 0.84889 0.7764 0.42792 0.0
C431 C 0.06472 0.78732 0.21217 0.0
H432 H 0.97138 0.77994 0.42835 0.0
C433 C -0.00664 0.79197 0.21251 0.0
C434 C 0.91281 0.78537 0.28934 0.0
H435 H 0.12397 0.79052 0.15077 0.0
H436 H 0.00135 0.79684 0.15113 0.0
C437 C 0.90821 0.77961 0.36663 0.0
C438 C 0.04415 0.13404 0.67637 0.0
C439 C 0.06799 0.13255 0.73258 0.0
H440 H 0.94402 0.13887 0.66586 0.0
C441 C 0.00939 0.1238 0.82188 0.0
H442 H 0.08891 0.14149 0.60748 0.0
C443 C 0.92702 0.12624 0.8555 0.0
C444 C 0.90321 0.13327 0.79954 0.0
H445 H 0.02684 0.12301 0.86632 0.0
H446 H 0.88214 0.1266 0.92501 0.0
C447 C 0.96177 0.1326 0.70974 0.0
loop_
_geom_bond_atom_site_label_1
_geom_bond_atom_site_label_2
_geom_bond_distance
_geom_bond_site_symmetry_2
_ccdc_geom_bond_type
Mn0 O5 2.095 . S
Mn0 O15 2.162 . S
Mn0 O16 2.297 . S
Mn0 O24 2.385 . S
Mn0 O25 2.209 . S
Mn0 O26 2.094 . S
Mn1 O6 2.121 . S
Mn1 N8 2.257 . S
Mn1 N17 2.282 . S
Mn1 O25 2.215 . S
Mn1 O27 2.117 . S
C2 O24 1.234 . S
C2 O25 1.283 . S
C3 O15 1.281 . S
C3 O16 1.236 . S
C4 O26 1.240 . S
C4 O27 1.264 . S
O5 Mn0 2.095 . S
O5 C14 1.250 . S
O6 Mn1 2.121 . S
O6 C14 1.258 . S
C7 N8 1.326 . S
C7 C11 1.460 . S
C7 H13 0.929 . S
N8 Mn1 2.257 . S
N8 C7 1.326 . S
N8 C12 1.362 . S
C9 C10 1.258 . S
C9 C12 1.431 . S
C9 C29 1.449 . S
C10 C9 1.258 . S
C10 C11 1.477 . S
C10 H30 0.931 . S
C11 C7 1.460 . S
C11 C10 1.477 . S
C11 H31 0.930 . S
C12 N8 1.362 . S
C12 C9 1.431 . S
C12 C22 1.476 . S
H13 C7 0.929 . S
C14 O5 1.250 . S
C14 O6 1.258 . S
O15 Mn0 2.162 . S
O15 C3 1.281 . S
O16 Mn0 2.297 . S
O16 C3 1.236 . S
N17 Mn1 2.282 . S
N17 C18 1.328 . S
N17 C22 1.318 . S
C18 N17 1.328 . S
C18 C19 1.457 . S
C18 H23 0.929 . S
C19 C18 1.457 . S
C19 C20 1.291 . S
C19 H32 0.931 . S
C20 C19 1.291 . S
C20 C21 1.373 . S
C20 H33 0.929 . S
C21 C20 1.373 . S
C21 C22 1.396 . S
C21 C28 1.403 . S
C22 C12 1.476 . S
C22 N17 1.318 . S
C22 C21 1.396 . S
H23 C18 0.929 . S
O24 Mn0 2.385 . S
O24 C2 1.234 . S
O25 Mn0 2.209 . S
O25 Mn1 2.215 . S
O25 C2 1.283 . S
O26 Mn0 2.094 . S
O26 C4 1.240 . S
O27 Mn1 2.117 . S
O27 C4 1.264 . S
C28 C21 1.403 . S
C28 C29 1.399 . S
C28 H34 0.929 . S
C29 C9 1.449 . S
C29 C28 1.399 . S
C29 H35 0.930 . S
H30 C10 0.931 . S
H31 C11 0.930 . S
H32 C19 0.931 . S
H33 C20 0.929 . S
H34 C28 0.929 . S
H35 C29 0.930 . S
Mn36 O41 2.095 . S
Mn36 O51 2.162 . S
Mn36 O52 2.297 . S
Mn36 O60 2.385 . S
Mn36 O61 2.209 . S
Mn36 O62 2.094 . S
Mn37 O42 2.121 . S
Mn37 N44 2.257 . S
Mn37 N53 2.282 . S
Mn37 O61 2.215 . S
Mn37 O63 2.117 . S
C38 O60 1.234 . S
C38 O61 1.283 . S
C39 O51 1.281 . S
C39 O52 1.236 . S
C40 O62 1.240 . S
C40 O63 1.264 . S
O41 Mn36 2.095 . S
O41 C50 1.250 . S
O42 Mn37 2.121 . S
O42 C50 1.258 . S
C43 N44 1.326 . S
C43 C47 1.460 . S
C43 H49 0.929 . S
N44 Mn37 2.257 . S
N44 C43 1.326 . S
N44 C48 1.362 . S
C45 C46 1.258 . S
C45 C48 1.431 . S
C45 C65 1.449 . S
C46 C45 1.258 . S
C46 C47 1.477 . S
C46 H66 0.931 . S
C47 C43 1.460 . S
C47 C46 1.477 . S
C47 H67 0.930 . S
C48 N44 1.362 . S
C48 C45 1.431 . S
C48 C58 1.476 . S
H49 C43 0.929 . S
C50 O41 1.250 . S
C50 O42 1.258 . S
O51 Mn36 2.162 . S
O51 C39 1.281 . S
O52 Mn36 2.297 . S
O52 C39 1.236 . S
N53 Mn37 2.282 . S
N53 C54 1.328 . S
N53 C58 1.318 . S
C54 N53 1.328 . S
C54 C55 1.457 . S
C54 H59 0.929 . S
C55 C54 1.457 . S
C55 C56 1.291 . S
C55 H68 0.931 . S
C56 C55 1.291 . S
C56 C57 1.373 . S
C56 H69 0.929 . S
C57 C56 1.373 . S
C57 C58 1.396 . S
C57 C64 1.403 . S
C58 C48 1.476 . S
C58 N53 1.318 . S
C58 C57 1.396 . S
H59 C54 0.929 . S
O60 Mn36 2.385 . S
O60 C38 1.234 . S
O61 Mn36 2.209 . S
O61 Mn37 2.215 . S
O61 C38 1.283 . S
O62 Mn36 2.094 . S
O62 C40 1.240 . S
O63 Mn37 2.117 . S
O63 C40 1.264 . S
C64 C57 1.403 . S
C64 C65 1.399 . S
C64 H70 0.929 . S
C65 C45 1.449 . S
C65 C64 1.399 . S
C65 H71 0.930 . S
H66 C46 0.931 . S
H67 C47 0.930 . S
H68 C55 0.931 . S
H69 C56 0.929 . S
H70 C64 0.929 . S
H71 C65 0.930 . S
Mn72 O77 2.095 . S
Mn72 O87 2.162 . S
Mn72 O88 2.297 . S
Mn72 O96 2.385 . S
Mn72 O97 2.209 . S
Mn72 O98 2.094 . S
Mn73 O78 2.121 . S
Mn73 N80 2.257 . S
Mn73 N89 2.282 . S
Mn73 O97 2.215 . S
Mn73 O99 2.117 . S
C74 O96 1.234 . S
C74 O97 1.283 . S
C75 O87 1.281 . S
C75 O88 1.236 . S
C76 O98 1.240 . S
C76 O99 1.264 . S
O77 Mn72 2.095 . S
O77 C86 1.250 . S
O78 Mn73 2.121 . S
O78 C86 1.258 . S
C79 N80 1.326 . S
C79 C83 1.460 . S
C79 H85 0.929 . S
N80 Mn73 2.257 . S
N80 C79 1.326 . S
N80 C84 1.362 . S
C81 C82 1.258 1_655 S
C81 C84 1.431 . S
C81 C101 1.449 . S
C82 C81 1.258 1_455 S
C82 C83 1.477 1_455 S
C82 H102 0.931 . S
C83 C79 1.460 . S
C83 C82 1.477 1_655 S
C83 H103 0.930 1_655 S
C84 N80 1.362 . S
C84 C81 1.431 . S
C84 C94 1.476 . S
H85 C79 0.929 . S
C86 O77 1.250 . S
C86 O78 1.258 . S
O87 Mn72 2.162 . S
O87 C75 1.281 . S
O88 Mn72 2.297 . S
O88 C75 1.236 . S
N89 Mn73 2.282 . S
N89 C90 1.328 . S
N89 C94 1.318 . S
C90 N89 1.328 . S
C90 C91 1.457 . S
C90 H95 0.929 . S
C91 C90 1.457 . S
C91 C92 1.291 . S
C91 H104 0.931 . S
C92 C91 1.291 . S
C92 C93 1.373 . S
C92 H105 0.929 . S
C93 C92 1.373 . S
C93 C94 1.396 . S
C93 C100 1.403 . S
C94 C84 1.476 . S
C94 N89 1.318 . S
C94 C93 1.396 . S
H95 C90 0.929 . S
O96 Mn72 2.385 . S
O96 C74 1.234 . S
O97 Mn72 2.209 . S
O97 Mn73 2.215 . S
O97 C74 1.283 . S
O98 Mn72 2.094 . S
O98 C76 1.240 . S
O99 Mn73 2.117 . S
O99 C76 1.264 . S
C100 C93 1.403 . S
C100 C101 1.399 . S
C100 H106 0.939 . S
C101 C81 1.449 . S
C101 C100 1.399 . S
C101 H107 0.930 1_655 S
H102 C82 0.931 . S
H103 C83 0.930 1_455 S
H104 C91 0.931 . S
H105 C92 0.929 . S
H106 C100 0.939 . S
H107 C101 0.930 1_455 S
Mn108 O113 2.095 . S
Mn108 O123 2.162 . S
Mn108 O124 2.297 . S
Mn108 O132 2.385 . S
Mn108 O133 2.209 . S
Mn108 O134 2.094 . S
Mn109 O114 2.121 . S
Mn109 N116 2.257 . S
Mn109 N125 2.282 . S
Mn109 O133 2.215 . S
Mn109 O135 2.117 . S
C110 O132 1.234 . S
C110 O133 1.283 . S
C111 O123 1.281 . S
C111 O124 1.236 . S
C112 O134 1.240 . S
C112 O135 1.264 . S
O113 Mn108 2.095 . S
O113 C122 1.250 . S
O114 Mn109 2.121 . S
O114 C122 1.258 . S
C115 N116 1.326 . S
C115 C119 1.460 . S
C115 H121 0.929 . S
N116 Mn109 2.257 . S
N116 C115 1.326 . S
N116 C120 1.362 . S
C117 C118 1.258 1_455 S
C117 C120 1.431 . S
C117 C137 1.449 . S
C118 C117 1.258 1_655 S
C118 C119 1.477 1_655 S
C118 H138 0.931 . S
C119 C115 1.460 . S
C119 C118 1.477 1_455 S
C119 H139 0.930 1_455 S
C120 N116 1.362 . S
C120 C117 1.431 . S
C120 C130 1.476 . S
H121 C115 0.929 . S
C122 O113 1.250 . S
C122 O114 1.258 . S
O123 Mn108 2.162 . S
O123 C111 1.281 . S
O124 Mn108 2.297 . S
O124 C111 1.236 . S
N125 Mn109 2.282 . S
N125 C126 1.328 . S
N125 C130 1.318 . S
C126 N125 1.328 . S
C126 C127 1.457 . S
C126 H131 0.929 . S
C127 C126 1.457 . S
C127 C128 1.291 . S
C127 H140 0.931 . S
C128 C127 1.291 . S
C128 C129 1.373 . S
C128 H141 0.929 . S
C129 C128 1.373 . S
C129 C130 1.396 . S
C129 C136 1.403 . S
C130 C120 1.476 . S
C130 N125 1.318 . S
C130 C129 1.396 . S
H131 C126 0.929 . S
O132 Mn108 2.385 . S
O132 C110 1.234 . S
O133 Mn108 2.209 . S
O133 Mn109 2.215 . S
O133 C110 1.283 . S
O134 Mn108 2.094 . S
O134 C112 1.240 . S
O135 Mn109 2.117 . S
O135 C112 1.264 . S
C136 C129 1.403 . S
C136 C137 1.399 . S
C136 H142 0.929 . S
C137 C117 1.449 . S
C137 C136 1.399 . S
C137 H143 0.930 1_455 S
H138 C118 0.931 . S
H139 C119 0.930 1_655 S
H140 C127 0.931 . S
H141 C128 0.929 . S
H142 C136 0.929 . S
H143 C137 0.930 1_655 S
Mn144 O149 2.095 . S
Mn144 O159 2.162 . S
Mn144 O160 2.297 . S
Mn144 O168 2.385 . S
Mn144 O169 2.209 . S
Mn144 O170 2.094 . S
Mn145 O150 2.121 . S
Mn145 N152 2.257 1_565 S
Mn145 N161 2.282 1_565 S
Mn145 O169 2.215 . S
Mn145 O171 2.117 . S
C146 O168 1.234 . S
C146 O169 1.283 . S
C147 O159 1.281 . S
C147 O160 1.236 . S
C148 O170 1.240 . S
C148 O171 1.264 . S
O149 Mn144 2.095 . S
O149 C158 1.250 . S
O150 Mn145 2.121 . S
O150 C158 1.258 . S
C151 N152 1.326 . S
C151 C155 1.460 . S
C151 H157 0.929 1_545 S
N152 Mn145 2.257 1_545 S
N152 C151 1.326 . S
N152 C156 1.362 . S
C153 C154 1.258 . S
C153 C156 1.431 . S
C153 C173 1.449 . S
C154 C153 1.258 . S
C154 C155 1.477 . S
C154 H174 0.931 . S
C155 C151 1.460 . S
C155 C154 1.477 . S
C155 H175 0.930 . S
C156 N152 1.362 . S
C156 C153 1.431 . S
C156 C166 1.476 . S
H157 C151 0.929 1_565 S
C158 O149 1.250 . S
C158 O150 1.258 . S
O159 Mn144 2.162 . S
O159 C147 1.281 . S
O160 Mn144 2.297 . S
O160 C147 1.236 . S
N161 Mn145 2.282 1_545 S
N161 C162 1.328 . S
N161 C166 1.318 . S
C162 N161 1.328 . S
C162 C163 1.457 . S
C162 H167 0.929 1_545 S
C163 C162 1.457 . S
C163 C164 1.291 . S
C163 H176 0.931 . S
C164 C163 1.291 . S
C164 C165 1.373 . S
C164 H177 0.929 . S
C165 C164 1.373 . S
C165 C166 1.396 . S
C165 C172 1.403 . S
C166 C156 1.476 . S
C166 N161 1.318 . S
C166 C165 1.396 . S
H167 C162 0.929 1_565 S
O168 Mn144 2.385 . S
O168 C146 1.234 . S
O169 Mn144 2.209 . S
O169 Mn145 2.215 . S
O169 C146 1.283 . S
O170 Mn144 2.094 . S
O170 C148 1.240 . S
O171 Mn145 2.117 . S
O171 C148 1.264 . S
C172 C165 1.403 . S
C172 C173 1.399 . S
C172 H178 0.929 . S
C173 C153 1.449 . S
C173 C172 1.399 . S
C173 H179 0.930 . S
H174 C154 0.931 . S
H175 C155 0.930 . S
H176 C163 0.931 . S
H177 C164 0.929 . S
H178 C172 0.929 . S
H179 C173 0.930 . S
Mn180 O185 2.095 . S
Mn180 O195 2.162 . S
Mn180 O196 2.297 . S
Mn180 O204 2.385 . S
Mn180 O205 2.209 . S
Mn180 O206 2.094 . S
Mn181 O186 2.121 . S
Mn181 N188 2.257 1_565 S
Mn181 N197 2.282 1_565 S
Mn181 O205 2.215 . S
Mn181 O207 2.117 . S
C182 O204 1.234 . S
C182 O205 1.283 . S
C183 O195 1.281 . S
C183 O196 1.236 . S
C184 O206 1.240 . S
C184 O207 1.264 . S
O185 Mn180 2.095 . S
O185 C194 1.250 . S
O186 Mn181 2.121 . S
O186 C194 1.258 . S
C187 N188 1.326 . S
C187 C191 1.460 . S
C187 H193 0.929 1_545 S
N188 Mn181 2.257 1_545 S
N188 C187 1.326 . S
N188 C192 1.362 . S
C189 C190 1.258 . S
C189 C192 1.431 . S
C189 C209 1.449 . S
C190 C189 1.258 . S
C190 C191 1.477 . S
C190 H210 0.931 . S
C191 C187 1.460 . S
C191 C190 1.477 . S
C191 H211 0.930 . S
C192 N188 1.362 . S
C192 C189 1.431 . S
C192 C202 1.476 . S
H193 C187 0.929 1_565 S
C194 O185 1.250 . S
C194 O186 1.258 . S
O195 Mn180 2.162 . S
O195 C183 1.281 . S
O196 Mn180 2.297 . S
O196 C183 1.236 . S
N197 Mn181 2.282 1_545 S
N197 C198 1.328 . S
N197 C202 1.318 . S
C198 N197 1.328 . S
C198 C199 1.457 . S
C198 H203 0.929 1_545 S
C199 C198 1.457 . S
C199 C200 1.291 . S
C199 H212 0.931 . S
C200 C199 1.291 . S
C200 C201 1.373 . S
C200 H213 0.929 . S
C201 C200 1.373 . S
C201 C202 1.396 . S
C201 C208 1.403 . S
C202 C192 1.476 . S
C202 N197 1.318 . S
C202 C201 1.396 . S
H203 C198 0.929 1_565 S
O204 Mn180 2.385 . S
O204 C182 1.234 . S
O205 Mn180 2.209 . S
O205 Mn181 2.215 . S
O205 C182 1.283 . S
O206 Mn180 2.094 . S
O206 C184 1.240 . S
O207 Mn181 2.117 . S
O207 C184 1.264 . S
C208 C201 1.403 . S
C208 C209 1.399 . S
C208 H214 0.929 . S
C209 C189 1.449 . S
C209 C208 1.399 . S
C209 H215 0.930 . S
H210 C190 0.931 . S
H211 C191 0.930 . S
H212 C199 0.931 . S
H213 C200 0.929 . S
H214 C208 0.929 . S
H215 C209 0.930 . S
Mn216 O221 2.095 . S
Mn216 O231 2.162 . S
Mn216 O232 2.297 . S
Mn216 O240 2.385 . S
Mn216 O241 2.209 . S
Mn216 O242 2.094 . S
Mn217 O222 2.121 . S
Mn217 N224 2.257 . S
Mn217 N233 2.282 . S
Mn217 O241 2.215 . S
Mn217 O243 2.117 . S
C218 O240 1.234 . S
C218 O241 1.283 . S
C219 O231 1.281 . S
C219 O232 1.236 . S
C220 O242 1.240 . S
C220 O243 1.264 . S
O221 Mn216 2.095 . S
O221 C230 1.250 . S
O222 Mn217 2.121 . S
O222 C230 1.258 . S
C223 N224 1.326 . S
C223 C227 1.460 . S
C223 H229 0.929 . S
N224 Mn217 2.257 . S
N224 C223 1.326 . S
N224 C228 1.362 . S
C225 C226 1.258 . S
C225 C228 1.431 . S
C225 C245 1.449 . S
C226 C225 1.258 . S
C226 C227 1.477 . S
C226 H246 0.931 . S
C227 C223 1.460 . S
C227 C226 1.477 . S
C227 H247 0.930 1_545 S
C228 N224 1.362 . S
C228 C225 1.431 . S
C228 C238 1.476 . S
H229 C223 0.929 . S
C230 O221 1.250 . S
C230 O222 1.258 . S
O231 Mn216 2.162 . S
O231 C219 1.281 . S
O232 Mn216 2.297 . S
O232 C219 1.236 . S
N233 Mn217 2.282 . S
N233 C234 1.328 . S
N233 C238 1.318 . S
C234 N233 1.328 . S
C234 C235 1.457 . S
C234 H239 0.929 . S
C235 C234 1.457 . S
C235 C236 1.291 . S
C235 H248 0.931 . S
C236 C235 1.291 . S
C236 C237 1.373 . S
C236 H249 0.929 . S
C237 C236 1.373 . S
C237 C238 1.396 . S
C237 C244 1.403 . S
C238 C228 1.476 . S
C238 N233 1.318 . S
C238 C237 1.396 . S
H239 C234 0.929 . S
O240 Mn216 2.385 . S
O240 C218 1.234 . S
O241 Mn216 2.209 . S
O241 Mn217 2.215 . S
O241 C218 1.283 . S
O242 Mn216 2.094 . S
O242 C220 1.240 . S
O243 Mn217 2.117 . S
O243 C220 1.264 . S
C244 C237 1.403 . S
C244 C245 1.399 . S
C244 H250 0.939 . S
C245 C225 1.449 . S
C245 C244 1.399 . S
C245 H251 0.930 . S
H246 C226 0.931 . S
H247 C227 0.930 1_565 S
H248 C235 0.931 . S
H249 C236 0.929 . S
H250 C244 0.939 . S
H251 C245 0.930 . S
Mn252 O257 2.095 . S
Mn252 O267 2.162 . S
Mn252 O268 2.297 . S
Mn252 O276 2.385 . S
Mn252 O277 2.209 . S
Mn252 O278 2.094 . S
Mn253 O258 2.121 . S
Mn253 N260 2.257 . S
Mn253 N269 2.282 . S
Mn253 O277 2.215 . S
Mn253 O279 2.117 . S
C254 O276 1.234 . S
C254 O277 1.283 . S
C255 O267 1.281 . S
C255 O268 1.236 . S
C256 O278 1.240 . S
C256 O279 1.264 . S
O257 Mn252 2.095 . S
O257 C266 1.250 . S
O258 Mn253 2.121 . S
O258 C266 1.258 . S
C259 N260 1.326 . S
C259 C263 1.460 . S
C259 H265 0.929 . S
N260 Mn253 2.257 . S
N260 C259 1.326 . S
N260 C264 1.362 . S
C261 C262 1.258 . S
C261 C264 1.431 . S
C261 C281 1.449 . S
C262 C261 1.258 . S
C262 C263 1.477 . S
C262 H282 0.931 . S
C263 C259 1.460 . S
C263 C262 1.477 . S
C263 H283 0.930 1_545 S
C264 N260 1.362 . S
C264 C261 1.431 . S
C264 C274 1.476 . S
H265 C259 0.929 . S
C266 O257 1.250 . S
C266 O258 1.258 . S
O267 Mn252 2.162 . S
O267 C255 1.281 . S
O268 Mn252 2.297 . S
O268 C255 1.236 . S
N269 Mn253 2.282 . S
N269 C270 1.328 . S
N269 C274 1.318 . S
C270 N269 1.328 . S
C270 C271 1.457 . S
C270 H275 0.929 . S
C271 C270 1.457 . S
C271 C272 1.291 . S
C271 H284 0.931 . S
C272 C271 1.291 . S
C272 C273 1.373 . S
C272 H285 0.929 . S
C273 C272 1.373 . S
C273 C274 1.396 . S
C273 C280 1.403 . S
C274 C264 1.476 . S
C274 N269 1.318 . S
C274 C273 1.396 . S
H275 C270 0.929 . S
O276 Mn252 2.385 . S
O276 C254 1.234 . S
O277 Mn252 2.209 . S
O277 Mn253 2.215 . S
O277 C254 1.283 . S
O278 Mn252 2.094 . S
O278 C256 1.240 . S
O279 Mn253 2.117 . S
O279 C256 1.264 . S
C280 C273 1.403 . S
C280 C281 1.399 . S
C280 H286 0.929 . S
C281 C261 1.449 . S
C281 C280 1.399 . S
C281 H287 0.930 . S
H282 C262 0.931 . S
H283 C263 0.930 1_565 S
H284 C271 0.931 . S
H285 C272 0.929 . S
H286 C280 0.929 . S
H287 C281 0.930 . S
C288 C289 1.387 . S
C288 H292 0.950 . S
C288 C297 1.390 1_445 S
C289 C288 1.387 . S
C289 C291 1.387 . S
H290 C297 0.950 . S
C291 C289 1.387 . S
C291 C293 1.390 1_445 S
C291 H295 0.950 . S
H292 C288 0.950 . S
C293 C291 1.390 1_665 S
C293 C294 1.387 . S
C293 H296 0.950 . S
C294 C293 1.387 . S
C294 C297 1.387 . S
H295 C291 0.950 . S
H296 C293 0.950 . S
C297 C288 1.390 1_665 S
C297 H290 0.950 . S
C297 C294 1.387 . S
C298 C299 1.387 . S
C298 H302 0.950 . S
C298 C307 1.390 1_465 S
C299 C298 1.387 . S
C299 C301 1.387 1_556 S
H300 C307 0.950 . S
C301 C299 1.387 1_554 S
C301 C303 1.390 1_465 S
C301 H305 0.950 . S
H302 C298 0.950 . S
C303 C301 1.390 1_645 S
C303 C304 1.387 . S
C303 H306 0.950 . S
C304 C303 1.387 . S
C304 C307 1.387 1_554 S
H305 C301 0.950 . S
H306 C303 0.950 . S
C307 C298 1.390 1_645 S
C307 H300 0.950 . S
C307 C304 1.387 1_556 S
C308 C309 1.387 . S
C308 H312 0.950 . S
C308 C317 1.390 . S
C309 C308 1.387 . S
C309 C311 1.387 . S
H310 C317 0.950 . S
C311 C309 1.387 . S
C311 C313 1.390 . S
C311 H315 0.950 . S
H312 C308 0.950 . S
C313 C311 1.390 . S
C313 C314 1.387 . S
C313 H316 0.950 . S
C314 C313 1.387 . S
C314 C317 1.387 . S
H315 C311 0.950 . S
H316 C313 0.950 . S
C317 C308 1.390 . S
C317 H310 0.950 . S
C317 C314 1.387 . S
C318 C319 1.387 1_556 S
C318 H322 0.950 . S
C318 C327 1.390 . S
C319 C318 1.387 1_554 S
C319 C321 1.387 . S
H320 C327 0.950 . S
C321 C319 1.387 . S
C321 C323 1.390 . S
C321 H325 0.950 . S
H322 C318 0.950 . S
C323 C321 1.390 . S
C323 C324 1.387 1_554 S
C323 H326 0.950 . S
C324 C323 1.387 1_556 S
C324 C327 1.387 . S
H325 C321 0.950 . S
H326 C323 0.950 . S
C327 C318 1.390 . S
C327 H320 0.950 . S
C327 C324 1.387 . S
C328 C329 1.387 . S
C328 H332 0.950 . S
C328 C337 1.390 . S
C329 C328 1.387 . S
C329 C331 1.387 1_654 S
H330 C337 0.950 . S
C331 C329 1.387 1_456 S
C331 C333 1.390 . S
C331 H335 0.950 . S
H332 C328 0.950 . S
C333 C331 1.390 . S
C333 C334 1.387 . S
C333 H336 0.950 . S
C334 C333 1.387 . S
C334 C337 1.387 1_456 S
H335 C331 0.950 . S
H336 C333 0.950 . S
C337 C328 1.390 . S
C337 H330 0.950 . S
C337 C334 1.387 1_654 S
C338 C339 1.387 . S
C338 H342 0.950 . S
C338 C347 1.390 1_455 S
C339 C338 1.387 . S
C339 C341 1.387 . S
H340 C347 0.950 . S
C341 C339 1.387 . S
C341 C343 1.390 1_455 S
C341 H345 0.950 . S
H342 C338 0.950 . S
C343 C341 1.390 1_655 S
C343 C344 1.387 . S
C343 H346 0.950 . S
C344 C343 1.387 . S
C344 C347 1.387 . S
H345 C341 0.950 . S
H346 C343 0.950 . S
C347 C338 1.390 1_655 S
C347 H340 0.950 . S
C347 C344 1.387 . S
C348 C349 1.387 1_554 S
C348 H352 0.950 . S
C348 C357 1.390 1_545 S
C349 C348 1.387 1_556 S
C349 C351 1.387 . S
H350 C357 0.950 . S
C351 C349 1.387 . S
C351 C353 1.390 1_545 S
C351 H355 0.950 . S
H352 C348 0.950 . S
C353 C351 1.390 1_565 S
C353 C354 1.387 1_556 S
C353 H356 0.950 . S
C354 C353 1.387 1_554 S
C354 C357 1.387 . S
H355 C351 0.950 . S
H356 C353 0.950 . S
C357 C348 1.390 1_565 S
C357 H350 0.950 . S
C357 C354 1.387 . S
C358 C359 1.387 . S
C358 H362 0.950 . S
C358 C367 1.390 1_565 S
C359 C358 1.387 . S
C359 C361 1.387 . S
H360 C367 0.950 . S
C361 C359 1.387 . S
C361 C363 1.390 1_565 S
C361 H365 0.950 . S
H362 C358 0.950 . S
C363 C361 1.390 1_545 S
C363 C364 1.387 . S
C363 H366 0.950 . S
C364 C363 1.387 . S
C364 C367 1.387 . S
H365 C361 0.950 . S
H366 C363 0.950 . S
C367 C358 1.390 1_545 S
C367 H360 0.950 . S
C367 C364 1.387 . S
C368 C369 1.387 . S
C368 H372 0.950 . S
C368 C377 1.390 . S
C369 C368 1.387 . S
C369 C371 1.387 . S
H370 C377 0.950 . S
C371 C369 1.387 . S
C371 C373 1.390 . S
C371 H375 0.950 . S
H372 C368 0.950 . S
C373 C371 1.390 . S
C373 C374 1.387 . S
C373 H376 0.950 . S
C374 C373 1.387 . S
C374 C377 1.387 . S
H375 C371 0.950 . S
H376 C373 0.950 . S
C377 C368 1.390 . S
C377 H370 0.950 . S
C377 C374 1.387 . S
C378 C379 1.387 . S
C378 H382 0.950 . S
C378 C387 1.390 1_556 S
C379 C378 1.387 . S
C379 C381 1.387 . S
H380 C387 0.950 . S
C381 C379 1.387 . S
C381 C383 1.390 1_556 S
C381 H385 0.950 . S
H382 C378 0.950 . S
C383 C381 1.390 1_554 S
C383 C384 1.387 . S
C383 H386 0.950 . S
C384 C383 1.387 . S
C384 C387 1.387 . S
H385 C381 0.950 . S
H386 C383 0.950 . S
C387 C378 1.390 1_554 S
C387 H380 0.950 . S
C387 C384 1.387 . S
C388 C389 1.387 . S
C388 H392 0.950 . S
C388 C397 1.390 . S
C389 C388 1.387 . S
C389 C391 1.387 . S
H390 C397 0.950 . S
C391 C389 1.387 . S
C391 C393 1.390 . S
C391 H395 0.950 . S
H392 C388 0.950 . S
C393 C391 1.390 . S
C393 C394 1.387 . S
C393 H396 0.950 . S
C394 C393 1.387 . S
C394 C397 1.387 . S
H395 C391 0.950 . S
H396 C393 0.950 . S
C397 C388 1.390 . S
C397 H390 0.950 . S
C397 C394 1.387 . S
C398 C399 1.387 . S
C398 H402 0.950 . S
C398 C407 1.390 1_554 S
C399 C398 1.387 . S
C399 C401 1.387 . S
H400 C407 0.950 . S
C401 C399 1.387 . S
C401 C403 1.390 1_554 S
C401 H405 0.950 . S
H402 C398 0.950 . S
C403 C401 1.390 1_556 S
C403 C404 1.387 . S
C403 H406 0.950 . S
C404 C403 1.387 . S
C404 C407 1.387 . S
H405 C401 0.950 . S
H406 C403 0.950 . S
C407 C398 1.390 1_556 S
C407 H400 0.950 . S
C407 C404 1.387 . S
C408 C409 1.387 . S
C408 H412 0.950 . S
C408 C417 1.390 . S
C409 C408 1.387 . S
C409 C411 1.387 . S
H410 C417 0.950 . S
C411 C409 1.387 . S
C411 C413 1.390 . S
C411 H415 0.950 . S
H412 C408 0.950 . S
C413 C411 1.390 . S
C413 C414 1.387 . S
C413 H416 0.950 . S
C414 C413 1.387 . S
C414 C417 1.387 . S
H415 C411 0.950 . S
H416 C413 0.950 . S
C417 C408 1.390 . S
C417 H410 0.950 . S
C417 C414 1.387 . S
C418 C419 1.387 . S
C418 H422 0.950 . S
C418 C427 1.390 . S
C419 C418 1.387 . S
C419 C421 1.387 . S
H420 C427 0.950 . S
C421 C419 1.387 . S
C421 C423 1.390 . S
C421 H425 0.950 . S
H422 C418 0.950 . S
C423 C421 1.390 . S
C423 C424 1.387 . S
C423 H426 0.950 . S
C424 C423 1.387 . S
C424 C427 1.387 . S
H425 C421 0.950 . S
H426 C423 0.950 . S
C427 C418 1.390 . S
C427 H420 0.950 . S
C427 C424 1.387 . S
C428 C429 1.387 . S
C428 H432 0.950 . S
C428 C437 1.390 1_455 S
C429 C428 1.387 . S
C429 C431 1.387 . S
H430 C437 0.950 . S
C431 C429 1.387 . S
C431 C433 1.390 1_455 S
C431 H435 0.950 . S
H432 C428 0.950 . S
C433 C431 1.390 1_655 S
C433 C434 1.387 . S
C433 H436 0.950 . S
C434 C433 1.387 . S
C434 C437 1.387 . S
H435 C431 0.950 . S
H436 C433 0.950 . S
C437 C428 1.390 1_655 S
C437 H430 0.950 . S
C437 C434 1.387 . S
C438 C439 1.387 . S
C438 H442 0.950 . S
C438 C447 1.390 1_455 S
C439 C438 1.387 . S
C439 C441 1.387 . S
H440 C447 0.950 . S
C441 C439 1.387 . S
C441 C443 1.390 1_455 S
C441 H445 0.950 . S
H442 C438 0.950 . S
C443 C441 1.390 1_655 S
C443 C444 1.387 . S
C443 H446 0.950 . S
C444 C443 1.387 . S
C444 C447 1.387 . S
H445 C441 0.950 . S
H446 C443 0.950 . S
C447 C438 1.390 1_655 S
C447 H440 0.950 . S
C447 C444 1.387 . S
C289 C3 1.658 . S
C294 C76 1.680 . S
C299 C112 1.679 . S
C304 C39 1.656 . S
C309 C220 1.680 . S
C314 C147 1.658 . S
C319 C183 1.656 . S
C324 C256 1.679 . S
C329 C38 1.427 . S
C334 C122 1.324 . S
C339 C2 1.427 . S
C344 C86 1.324 . S
C349 C266 1.324 . S
C354 C182 1.427 . S
C359 C146 1.427 . S
C364 C230 1.324 . S
C369 C194 1.449 . S
C374 C110 1.504 . S
C379 C74 1.505 . S
C384 C158 1.450 . S
C389 C50 1.450 . S
C394 C254 1.505 . S
C399 C14 1.449 . S
C404 C218 1.504 . S
C409 C4 1.565 . S
C414 C40 1.565 . S
C419 C75 1.548 . S
C424 C111 1.548 . S
C429 C184 1.565 . S
C434 C148 1.565 . S
C439 C219 1.548 . S
C444 C255 1.548 . S
