# Generated by pormake.
# Topology upb, (4)-cn, num edge types: 1
# Building blocks:
#     Node 0, Type 0, BuildingBlock: GALJAG_clean_sbu_0, # of connection points: 4
#     Node 1, Type 0, BuildingBlock: GALJAG_clean_sbu_0, # of connection points: 4
#     Node 2, Type 0, BuildingBlock: GALJAG_clean_sbu_0, # of connection points: 4
#     Node 3, Type 0, BuildingBlock: GALJAG_clean_sbu_0, # of connection points: 4
#     Node 4, Type 0, BuildingBlock: GALJAG_clean_sbu_0, # of connection points: 4
#     Node 5, Type 0, BuildingBlock: GALJAG_clean_sbu_0, # of connection points: 4
#     Node 6, Type 0, BuildingBlock: GALJAG_clean_sbu_0, # of connection points: 4
#     Node 7, Type 0, BuildingBlock: GALJAG_clean_sbu_0, # of connection points: 4
#     Node 8, Type 0, BuildingBlock: GALJAG_clean_sbu_0, # of connection points: 4
#     Node 9, Type 0, BuildingBlock: GALJAG_clean_sbu_0, # of connection points: 4
#     Node 10, Type 0, BuildingBlock: GALJAG_clean_sbu_0, # of connection points: 4
#     Node 11, Type 0, BuildingBlock: GALJAG_clean_sbu_0, # of connection points: 4
#     Node 12, Type 0, BuildingBlock: GALJAG_clean_sbu_0, # of connection points: 4
#     Node 13, Type 0, BuildingBlock: GALJAG_clean_sbu_0, # of connection points: 4
#     Node 14, Type 0, BuildingBlock: GALJAG_clean_sbu_0, # of connection points: 4
#     Node 15, Type 0, BuildingBlock: GALJAG_clean_sbu_0, # of connection points: 4
#     Edge 16, Type (0, 0), BuildingBlock: CIFDUS_clean_linker_0, # of connection points: 2
#     Edge 17, Type (0, 0), BuildingBlock: CIFDUS_clean_linker_0, # of connection points: 2
#     Edge 18, Type (0, 0), BuildingBlock: CIFDUS_clean_linker_0, # of connection points: 2
#     Edge 19, Type (0, 0), BuildingBlock: CIFDUS_clean_linker_0, # of connection points: 2
#     Edge 20, Type (0, 0), BuildingBlock: CIFDUS_clean_linker_0, # of connection points: 2
#     Edge 21, Type (0, 0), BuildingBlock: CIFDUS_clean_linker_0, # of connection points: 2
#     Edge 22, Type (0, 0), BuildingBlock: CIFDUS_clean_linker_0, # of connection points: 2
#     Edge 23, Type (0, 0), BuildingBlock: CIFDUS_clean_linker_0, # of connection points: 2
#     Edge 24, Type (0, 0), BuildingBlock: CIFDUS_clean_linker_0, # of connection points: 2
#     Edge 25, Type (0, 0), BuildingBlock: CIFDUS_clean_linker_0, # of connection points: 2
#     Edge 26, Type (0, 0), BuildingBlock: CIFDUS_clean_linker_0, # of connection points: 2
#     Edge 27, Type (0, 0), BuildingBlock: CIFDUS_clean_linker_0, # of connection points: 2
#     Edge 28, Type (0, 0), BuildingBlock: CIFDUS_clean_linker_0, # of connection points: 2
#     Edge 29, Type (0, 0), BuildingBlock: CIFDUS_clean_linker_0, # of connection points: 2
#     Edge 30, Type (0, 0), BuildingBlock: CIFDUS_clean_linker_0, # of connection points: 2
#     Edge 31, Type (0, 0), BuildingBlock: CIFDUS_clean_linker_0, # of connection points: 2
#     Edge 32, Type (0, 0), BuildingBlock: CIFDUS_clean_linker_0, # of connection points: 2
#     Edge 33, Type (0, 0), BuildingBlock: CIFDUS_clean_linker_0, # of connection points: 2
#     Edge 34, Type (0, 0), BuildingBlock: CIFDUS_clean_linker_0, # of connection points: 2
#     Edge 35, Type (0, 0), BuildingBlock: CIFDUS_clean_linker_0, # of connection points: 2
#     Edge 36, Type (0, 0), BuildingBlock: CIFDUS_clean_linker_0, # of connection points: 2
#     Edge 37, Type (0, 0), BuildingBlock: CIFDUS_clean_linker_0, # of connection points: 2
#     Edge 38, Type (0, 0), BuildingBlock: CIFDUS_clean_linker_0, # of connection points: 2
#     Edge 39, Type (0, 0), BuildingBlock: CIFDUS_clean_linker_0, # of connection points: 2
#     Edge 40, Type (0, 0), BuildingBlock: CIFDUS_clean_linker_0, # of connection points: 2
#     Edge 41, Type (0, 0), BuildingBlock: CIFDUS_clean_linker_0, # of connection points: 2
#     Edge 42, Type (0, 0), BuildingBlock: CIFDUS_clean_linker_0, # of connection points: 2
#     Edge 43, Type (0, 0), BuildingBlock: CIFDUS_clean_linker_0, # of connection points: 2
#     Edge 44, Type (0, 0), BuildingBlock: CIFDUS_clean_linker_0, # of connection points: 2
#     Edge 45, Type (0, 0), BuildingBlock: CIFDUS_clean_linker_0, # of connection points: 2
#     Edge 46, Type (0, 0), BuildingBlock: CIFDUS_clean_linker_0, # of connection points: 2
#     Edge 47, Type (0, 0), BuildingBlock: CIFDUS_clean_linker_0, # of connection points: 2
# Relax obj value: 0.253
# Max RMSD: 0.089
# Mean RMSD: 0.089
data_MOF--net-upb--node1-GALJAG_clean_sbu_0--edge1-CIFDUS_clean_linker_0
_symmetry_space_group_name_H-M    P1
_symmetry_Int_Tables_number       1
_symmetry_cell_setting            triclinic
loop_
_symmetry_equiv_pos_as_xyz
'x, y, z'
_cell_length_a     38.794141
_cell_length_b     38.804216
_cell_length_c     31.977723
_cell_angle_alpha  90.079178
_cell_angle_beta   89.976635
_cell_angle_gamma 89.9867
loop_
_atom_site_label
_atom_site_type_symbol
_atom_site_fract_x
_atom_site_fract_y
_atom_site_fract_z
_atom_type_partial_charge
In0 In 0.03623 0.2265 0.29409 0.0
O1 O 0.08114 0.19652 0.32127 0.0
O2 O 0.06766 0.18536 0.25852 0.0
C3 C 0.01888 0.22798 0.37545 0.0
C4 C 0.06573 0.28315 0.26071 0.0
C5 C 0.97209 0.21384 0.26518 0.0
O6 O 0.01827 0.20054 0.35414 0.0
O7 O 0.02819 0.25454 0.35563 0.0
O8 O 0.97983 0.24111 0.28444 0.0
O9 O 0.9971 0.1938 0.25857 0.0
C10 C 0.08716 0.17885 0.28905 0.0
O11 O 0.05044 0.26102 0.23855 0.0
O12 O 0.06558 0.27686 0.29927 0.0
In13 In 0.77116 0.04498 0.30037 0.0
O14 O 0.79959 0.0961 0.30468 0.0
O15 O 0.79917 0.07046 0.24584 0.0
C16 C 0.77605 0.02908 0.38165 0.0
C17 C 0.70615 0.06789 0.28901 0.0
C18 C 0.80272 0.98651 0.27632 0.0
O19 O 0.79199 0.05432 0.36585 0.0
O20 O 0.75733 0.01234 0.3565 0.0
O21 O 0.77042 0.99009 0.27216 0.0
O22 O 0.81811 0.01255 0.2906 0.0
C23 C 0.80957 0.09583 0.26711 0.0
O24 O 0.72251 0.05292 0.25997 0.0
O25 O 0.72228 0.07021 0.32296 0.0
In26 In 0.96612 0.76712 0.3001 0.0
O27 O 0.95158 0.72393 0.2543 0.0
O28 O 0.93228 0.72115 0.31617 0.0
C29 C 0.02387 0.78084 0.25633 0.0
C30 C 0.92846 0.82525 0.29132 0.0
C31 C 0.98603 0.7653 0.38078 0.0
O32 O 0.02271 0.75849 0.28492 0.0
O33 O 0.9951 0.79404 0.24729 0.0
O34 O 0.95585 0.77363 0.37004 0.0
O35 O 0.00567 0.75701 0.35102 0.0
C36 C 0.9335 0.70764 0.28043 0.0
O37 O 0.95682 0.82399 0.3104 0.0
O38 O 0.91834 0.79676 0.27672 0.0
In39 In 0.2297 0.95034 0.28881 0.0
O40 O 0.26831 0.93512 0.23742 0.0
O41 O 0.28392 0.93141 0.30086 0.0
C42 C 0.19876 0.00932 0.26525 0.0
C43 C 0.18915 0.89496 0.2744 0.0
C44 C 0.2385 0.97138 0.36785 0.0
O45 O 0.22575 -0.00108 0.24693 0.0
O46 O 0.18749 0.98967 0.2933 0.0
O47 O 0.21522 0.95017 0.35759 0.0
O48 O 0.25775 0.98135 0.33832 0.0
C49 C 0.29154 0.92655 0.26309 0.0
O50 O 0.20798 0.89776 0.30633 0.0
O51 O 0.19066 0.92016 0.24962 0.0
In52 In 0.04475 0.7911 0.70399 0.0
O53 O 0.09315 0.82149 0.68747 0.0
O54 O 0.07717 0.82107 0.75113 0.0
C55 C 0.02267 0.78533 0.62455 0.0
C56 C 0.06668 0.728 0.7276 0.0
C57 C 0.98925 0.82582 0.73164 0.0
O58 O 0.05206 0.79725 0.63355 0.0
O59 O 0.0046 0.77647 0.65548 0.0
O60 O 0.99091 0.79329 0.73307 0.0
O61 O 0.01582 0.84053 0.71758 0.0
C62 C 0.09868 0.83159 0.72442 0.0
O63 O 0.05179 0.74814 0.75283 0.0
O64 O 0.06957 0.73948 0.69105 0.0
In65 In 0.2397 0.04895 0.68595 0.0
O66 O 0.213 0.10071 0.6738 0.0
O67 O 0.19424 0.06986 0.72348 0.0
C68 C 0.22962 0.03339 0.60486 0.0
C69 C 0.29972 0.0782 0.71056 0.0
C70 C 0.23106 0.98377 0.7139 0.0
O71 O 0.20498 0.03592 0.63048 0.0
O72 O 0.25901 0.03943 0.62001 0.0
O73 O 0.25217 0.9914 0.68542 0.0
O74 O 0.2166 0.00938 0.73069 0.0
C75 C 0.1912 0.09728 0.70275 0.0
O76 O 0.27971 0.06362 0.73613 0.0
O77 O 0.2897 0.07728 0.67322 0.0
In78 In 0.9482 0.21039 0.69571 0.0
O79 O 0.9395 0.25561 0.74111 0.0
O80 O 0.92023 0.25961 0.67921 0.0
C81 C 0.00925 0.18661 0.72453 0.0
C82 C 0.89439 0.17231 0.72219 0.0
C83 C 0.96342 0.20526 0.61379 0.0
O84 O 0.00545 0.21727 0.71225 0.0
O85 O 0.98219 0.16873 0.72378 0.0
O86 O 0.94768 0.18162 0.6331 0.0
O87 O 0.97135 0.23101 0.63585 0.0
C88 C 0.92312 0.27336 0.71466 0.0
O89 O 0.89708 0.18288 0.68499 0.0
O90 O 0.91881 0.18102 0.74604 0.0
In91 In 0.75374 0.95838 0.69923 0.0
O92 O 0.7803 0.90575 0.69701 0.0
O93 O 0.80619 0.94659 0.72798 0.0
C94 C 0.76229 0.96226 0.61577 0.0
C95 C 0.69465 0.93095 0.72872 0.0
C96 C 0.75843 0.02441 0.7252 0.0
O97 O 0.73986 0.94322 0.63243 0.0
O98 O 0.78103 0.9785 0.64122 0.0
O99 O 0.7407 0.01541 0.69401 0.0
O100 O 0.77104 -0.00036 0.74563 0.0
C101 C 0.80662 0.91541 0.71692 0.0
O102 O 0.7225 0.93044 0.74905 0.0
O103 O 0.69603 0.94766 0.69505 0.0
In104 In 0.54835 0.70496 0.78153 0.0
O105 O 0.55972 0.75728 0.75012 0.0
O106 O 0.5924 0.73936 0.79894 0.0
C107 C 0.48425 0.7002 0.74851 0.0
C108 C 0.58671 0.65178 0.7534 0.0
C109 C 0.54008 0.70152 0.86501 0.0
O110 O 0.49048 0.71281 0.78396 0.0
O111 O 0.51082 0.69252 0.7277 0.0
O112 O 0.55013 0.67588 0.84392 0.0
O113 O 0.53397 0.7282 0.84394 0.0
C114 C 0.58538 0.76314 0.77361 0.0
O115 O 0.55837 0.64773 0.77213 0.0
O116 O 0.59574 0.68273 0.74842 0.0
In117 In 0.26226 0.55127 0.7855 0.0
O118 O 0.28989 0.60081 0.80364 0.0
O119 O 0.30338 0.57819 0.74548 0.0
C120 C 0.27086 0.53248 0.86582 0.0
C121 C 0.20281 0.58044 0.76003 0.0
C122 C 0.27016 0.48624 0.75718 0.0
O123 O 0.29557 0.53362 0.84017 0.0
O124 O 0.24215 0.54191 0.85127 0.0
O125 O 0.24421 0.49576 0.77795 0.0
O126 O 0.29069 0.51023 0.74777 0.0
C127 C 0.30825 0.60241 0.77118 0.0
O128 O 0.2232 0.56597 0.73471 0.0
O129 O 0.21223 0.5795 0.79765 0.0
In130 In 0.43791 0.2883 0.82026 0.0
O131 O 0.43626 0.23928 0.77969 0.0
O132 O 0.41069 0.23899 0.83833 0.0
C133 C 0.49542 0.3222 0.79799 0.0
C134 C 0.38834 0.32566 0.78262 0.0
C135 C 0.45239 0.29206 0.90219 0.0
O136 O 0.49381 0.2896 0.79653 0.0
O137 O 0.46798 0.33698 0.80924 0.0
O138 O 0.42428 0.30316 0.88741 0.0
O139 O 0.47258 0.27868 0.87584 0.0
C140 C 0.41794 0.22274 0.80545 0.0
O141 O 0.38772 0.31884 0.82123 0.0
O142 O 0.41348 0.31296 0.76288 0.0
In143 In 0.73597 0.45011 0.81675 0.0
O144 O 0.77919 0.43169 0.77326 0.0
O145 O 0.77883 0.4138 0.83604 0.0
C146 C 0.72248 0.50456 0.76667 0.0
C147 C 0.68089 0.40818 0.8089 0.0
C148 C 0.73835 0.47466 0.89571 0.0
O149 O 0.7435 0.50623 0.79664 0.0
O150 O 0.71075 0.47482 0.7599 0.0
O151 O 0.71446 0.45532 0.88293 0.0
O152 O 0.76114 0.48135 0.86883 0.0
C153 C 0.7935 0.41335 0.8009 0.0
O154 O 0.67855 0.43975 0.81785 0.0
O155 O 0.71134 0.39717 0.80481 0.0
In156 In 0.5468 0.27229 0.21177 0.0
O157 O 0.59505 0.30506 0.20303 0.0
O158 O 0.57204 0.30448 0.26332 0.0
C159 C 0.53099 0.28574 0.13124 0.0
C160 C 0.57031 0.20702 0.22289 0.0
C161 C 0.48582 0.29256 0.24382 0.0
O162 O 0.56102 0.28976 0.14557 0.0
O163 O 0.50917 0.27527 0.15743 0.0
O164 O 0.49024 0.26285 0.22843 0.0
O165 O 0.51246 0.31116 0.24469 0.0
C166 C 0.59565 0.31609 0.24015 0.0
O167 O 0.56084 0.22569 0.25308 0.0
O168 O 0.567 0.22092 0.18773 0.0
In169 In 0.72729 0.54432 0.21631 0.0
O170 O 0.70733 0.59797 0.20059 0.0
O171 O 0.683 0.57152 0.25051 0.0
C172 C 0.71959 0.5311 0.1341 0.0
C173 C 0.78708 0.56889 0.24772 0.0
C174 C 0.71536 0.47922 0.24272 0.0
O175 O 0.69454 0.5304 0.1593 0.0
O176 O 0.74811 0.53914 0.15027 0.0
O177 O 0.74086 0.48718 0.2203 0.0
O178 O 0.69724 0.50448 0.25425 0.0
C179 C 0.68439 0.59842 0.22848 0.0
O180 O 0.76233 0.56014 0.27104 0.0
O181 O 0.78196 0.56388 0.20936 0.0
In182 In 0.46142 0.72508 0.17935 0.0
O183 O 0.43634 0.68011 0.14701 0.0
O184 O 0.42119 0.68933 0.20989 0.0
C185 C 0.49128 0.72869 0.10368 0.0
C186 C 0.42117 0.78124 0.19007 0.0
C187 C 0.51622 0.71012 0.2284 0.0
O188 O 0.48548 0.70058 0.12211 0.0
O189 O 0.48257 0.75534 0.12385 0.0
O190 O 0.48672 0.69754 0.2346 0.0
O191 O 0.51723 0.73251 0.19993 0.0
C192 C 0.41824 0.67072 0.17763 0.0
O193 O 0.44472 0.77356 0.21572 0.0
O194 O 0.41796 0.76052 0.16005 0.0
In195 In 0.2706 0.44254 0.1785 0.0
O196 O 0.29736 0.39114 0.16632 0.0
O197 O 0.30672 0.41587 0.2245 0.0
C198 C 0.25933 0.46233 0.09927 0.0
C199 C 0.20984 0.41875 0.2065 0.0
C200 C 0.30365 0.50139 0.19699 0.0
O201 O 0.28292 0.44138 0.10907 0.0
O202 O 0.24069 0.47239 0.1293 0.0
O203 O 0.27519 0.4941 0.21422 0.0
O204 O 0.31524 0.47863 0.17264 0.0
C205 C 0.31284 0.39048 0.20099 0.0
O206 O 0.22837 0.43861 0.22841 0.0
O207 O 0.22185 0.41169 0.1709 0.0
H208 H 0.11028 0.14062 0.22249 0.0
H209 H 0.12224 0.15449 0.35575 0.0
H210 H 0.16027 0.10477 0.35891 0.0
H211 H 0.18589 0.0545 0.32548 0.0
H212 H 0.17675 0.03992 0.19248 0.0
H213 H 0.14219 0.09303 0.18721 0.0
C214 C 0.12155 0.1329 0.25206 0.0
C215 C 0.11307 0.15094 0.28893 0.0
C216 C 0.14377 0.1042 0.25368 0.0
C217 C 0.12814 0.14095 0.32697 0.0
C218 C 0.14988 0.11247 0.32887 0.0
C219 C 0.17673 0.06333 0.29524 0.0
C220 C 0.18342 0.04357 0.25945 0.0
C221 C 0.15722 0.09354 0.29267 0.0
C222 C 0.17188 0.05506 0.22034 0.0
C223 C 0.15197 0.08519 0.21748 0.0
H224 H 0.94859 0.16323 0.21396 0.0
H225 H 0.91504 0.23931 0.30366 0.0
H226 H 0.85871 0.21159 0.30816 0.0
H227 H 0.82306 0.16015 0.29566 0.0
H228 H 0.85591 0.08478 0.20479 0.0
H229 H 0.90817 0.11804 0.19112 0.0
C230 C 0.92859 0.17422 0.23361 0.0
C231 C 0.93608 0.20283 0.25899 0.0
C232 C 0.89631 0.15803 0.23623 0.0
C233 C 0.90991 0.21717 0.28395 0.0
C234 C 0.87777 0.20118 0.2868 0.0
C235 C 0.8413 0.15152 0.27214 0.0
C236 C 0.83608 0.11987 0.25179 0.0
C237 C 0.87128 0.17074 0.26451 0.0
C238 C 0.85951 0.10907 0.22096 0.0
C239 C 0.88951 0.12794 0.21333 0.0
H240 H 0.87021 0.97589 0.28859 0.0
H241 H 0.77714 0.92338 0.25138 0.0
H242 H 0.80843 0.8683 0.25033 0.0
H243 H 0.86186 0.83485 0.265 0.0
H244 H 0.95289 0.88917 0.30626 0.0
H245 H 0.92262 0.9438 0.30097 0.0
C246 C 0.85669 0.9525 0.2798 0.0
C247 C 0.82139 0.95368 0.27015 0.0
C248 C 0.87446 0.92119 0.28048 0.0
C249 C 0.80436 0.92311 0.25886 0.0
C250 C 0.82221 0.89164 0.2585 0.0
C251 C 0.875 0.85872 0.27255 0.0
C252 C 0.9095 0.85796 0.28623 0.0
C253 C 0.85717 0.89029 0.27006 0.0
C254 C 0.92628 0.88901 0.29599 0.0
C255 C 0.90904 0.92031 0.29287 0.0
H256 H 0.08659 0.77122 0.29106 0.0
H257 H 0.03413 0.82811 0.19431 0.0
H258 H 0.0838 0.86648 0.18741 0.0
H259 H 0.13766 0.88936 0.21719 0.0
H260 H 0.18724 0.83503 0.3183 0.0
H261 H 0.14323 0.79016 0.31521 0.0
C262 C 0.0864 0.79137 0.26758 0.0
C263 C 0.05665 0.79701 0.24346 0.0
C264 C 0.11427 0.81429 0.26528 0.0
C265 C 0.05674 0.82331 0.21331 0.0
C266 C 0.085 0.84546 0.20965 0.0
C267 C 0.13912 0.86738 0.23803 0.0
C268 C 0.16534 0.86572 0.26833 0.0
C269 C 0.1132 0.84213 0.23682 0.0
C270 C 0.16704 0.83708 0.29506 0.0
C271 C 0.14191 0.8114 0.29328 0.0
H272 H 0.15777 0.84346 0.68152 0.0
H273 H 0.10064 0.87581 0.79041 0.0
H274 H 0.14067 0.92365 0.80116 0.0
H275 H 0.18674 0.96075 0.77345 0.0
H276 H 0.24438 0.92776 0.66512 0.0
H277 H 0.21004 0.87522 0.66105 0.0
C278 C 0.15448 0.86069 0.70797 0.0
C279 C 0.12603 0.85661 0.73468 0.0
C280 C 0.17768 0.88801 0.71406 0.0
C281 C 0.12228 0.87864 0.76928 0.0
C282 C 0.14509 0.90604 0.77537 0.0
C283 C 0.1924 0.9416 0.74968 0.0
C284 C 0.21768 0.9484 0.71926 0.0
C285 C 0.17219 0.91164 0.74712 0.0
C286 C 0.22497 0.92323 0.68885 0.0
C287 C 0.2051 0.89329 0.68623 0.0
H288 H 0.1351 0.08808 0.7518 0.0
H289 H 0.18261 0.16092 0.66789 0.0
H290 H 0.13176 0.19806 0.67238 0.0
H291 H 0.07134 0.20648 0.694 0.0
H292 H 0.02254 0.13084 0.77295 0.0
H293 H 0.07644 0.09842 0.7772 0.0
C294 C 0.13454 0.11234 0.73499 0.0
C295 C 0.16244 0.12166 0.70935 0.0
C296 C 0.10489 0.13301 0.73679 0.0
C297 C 0.16132 0.1531 0.68765 0.0
C298 C 0.13225 0.17432 0.69018 0.0
C299 C 0.07283 0.18335 0.71293 0.0
C300 C 0.04315 0.17102 0.73321 0.0
C301 C 0.10353 0.1641 0.71381 0.0
C302 C 0.04514 0.14075 0.75708 0.0
C303 C 0.07587 0.12214 0.75935 0.0
H304 H 0.83271 0.16193 0.68442 0.0
H305 H 0.89384 0.13023 0.79022 0.0
H306 H 0.85244 0.08458 0.80591 0.0
H307 H 0.80416 0.04836 0.78263 0.0
H308 H 0.7434 0.07988 0.67632 0.0
H309 H 0.7786 0.13154 0.66869 0.0
C310 C 0.83661 0.14536 0.71131 0.0
C311 C 0.86656 0.14889 0.73561 0.0
C312 C 0.81275 0.11916 0.72008 0.0
C313 C 0.87109 0.12776 0.77082 0.0
C314 C 0.84747 0.10162 0.77976 0.0
C315 C 0.79794 0.06707 0.75861 0.0
C316 C 0.77164 0.05995 0.72961 0.0
C317 C 0.81889 0.0963 0.75368 0.0
C318 C 0.7637 0.08459 0.69887 0.0
C319 C 0.78405 0.114 0.69419 0.0
H320 H 0.86989 0.93417 0.74424 0.0
H321 H 0.81019 0.84572 0.70633 0.0
H322 H 0.86104 0.80888 0.71337 0.0
H323 H 0.92363 0.80298 0.72395 0.0
H324 H 0.98387 0.89258 0.75594 0.0
H325 H 0.93162 0.92776 0.7583 0.0
C326 C 0.86792 0.90676 0.73801 0.0
C327 C 0.83645 0.89268 0.72458 0.0
C328 C 0.89739 0.88598 0.74108 0.0
C329 C 0.83426 0.85716 0.71646 0.0
C330 C 0.86329 0.8361 0.7205 0.0
C331 C 0.92512 0.83003 0.73236 0.0
C332 C 0.95737 0.84524 0.73994 0.0
C333 C 0.89515 0.85036 0.73197 0.0
C334 C 0.9592 0.88041 0.75005 0.0
C335 C 0.9294 0.90053 0.75121 0.0
H336 H 0.65647 0.65042 0.75077 0.0
H337 H 0.56633 0.58729 0.73212 0.0
H338 H 0.60261 0.53614 0.72465 0.0
H339 H 0.65849 0.50855 0.73476 0.0
H340 H 0.74774 0.57029 0.76378 0.0
H341 H 0.7137 0.62293 0.75468 0.0
C342 C 0.64495 0.62555 0.7441 0.0
C343 C 0.60889 0.62241 0.74215 0.0
C344 C 0.66589 0.59604 0.74189 0.0
C345 C 0.59407 0.59012 0.73401 0.0
C346 C 0.61479 0.56093 0.72976 0.0
C347 C 0.67078 0.53355 0.73778 0.0
C348 C 0.70553 0.53563 0.7499 0.0
C349 C 0.65057 0.56342 0.73521 0.0
C350 C 0.721 0.56814 0.75436 0.0
C351 C 0.70146 0.59818 0.74955 0.0
H352 H 0.42524 0.71248 0.79077 0.0
H353 H 0.46523 0.65874 0.68301 0.0
H354 H 0.41157 0.6259 0.67739 0.0
H355 H 0.35724 0.60628 0.71004 0.0
H356 H 0.31958 0.65839 0.82032 0.0
H357 H 0.3683 0.69797 0.81799 0.0
C358 C 0.42192 0.6942 0.76539 0.0
C359 C 0.44932 0.68777 0.73766 0.0
C360 C 0.39162 0.67458 0.76334 0.0
C361 C 0.44454 0.66415 0.70481 0.0
C362 C 0.41398 0.6451 0.70186 0.0
C363 C 0.35944 0.62667 0.73312 0.0
C364 C 0.33512 0.62906 0.76568 0.0
C365 C 0.38797 0.64906 0.73205 0.0
C366 C 0.33817 0.65572 0.79523 0.0
C367 C 0.36602 0.67841 0.79392 0.0
H368 H 0.32105 0.4585 0.70944 0.0
H369 H 0.24303 0.43224 0.80013 0.0
H370 H 0.27103 0.37698 0.81278 0.0
H371 H 0.32335 0.34129 0.80737 0.0
H372 H 0.40068 0.36671 0.71559 0.0
H373 H 0.36719 0.41688 0.69374 0.0
C374 C 0.30962 0.4402 0.73099 0.0
C375 C 0.28044 0.44968 0.75437 0.0
C376 C 0.3261 0.40859 0.7385 0.0
C377 C 0.26561 0.42563 0.78186 0.0
C378 C 0.28181 0.39413 0.78946 0.0
C379 C 0.3324 0.35742 0.78195 0.0
C380 C 0.36462 0.35084 0.76364 0.0
C381 C 0.31296 0.38614 0.76948 0.0
C382 C 0.37596 0.37146 0.73029 0.0
C383 C 0.35692 0.40024 0.71793 0.0
H384 H 0.61567 0.42995 0.79806 0.0
H385 H 0.67727 0.33767 0.80573 0.0
H386 H 0.62521 0.30222 0.799 0.0
H387 H 0.56154 0.29791 0.79564 0.0
H388 H 0.50113 0.39114 0.78808 0.0
H389 H 0.55343 0.42575 0.78937 0.0
C390 C 0.61774 0.40207 0.79819 0.0
C391 C 0.6501 0.3864 0.80297 0.0
C392 C 0.58791 0.38204 0.79412 0.0
C393 C 0.65251 0.35028 0.80237 0.0
C394 C 0.62279 0.33004 0.7985 0.0
C395 C 0.55995 0.32575 0.79352 0.0
C396 C 0.52754 0.34196 0.79202 0.0
C397 C 0.59026 0.34567 0.79491 0.0
C398 C 0.52578 0.37806 0.78948 0.0
C399 C 0.55566 0.39792 0.79038 0.0
H400 H 0.66512 0.45489 0.29413 0.0
H401 H 0.73813 0.42307 0.19985 0.0
H402 H 0.70915 0.36753 0.19354 0.0
H403 H 0.6581 0.33167 0.20733 0.0
H404 H 0.58588 0.36255 0.3028 0.0
H405 H 0.61962 0.41459 0.31645 0.0
C406 C 0.67517 0.43545 0.27299 0.0
C407 C 0.70339 0.44326 0.24708 0.0
C408 C 0.65822 0.40359 0.26929 0.0
C409 C 0.71637 0.41774 0.22008 0.0
C410 C 0.69964 0.38605 0.21618 0.0
C411 C 0.65017 0.34952 0.23164 0.0
C412 C 0.61935 0.34368 0.25358 0.0
C413 C 0.66976 0.37926 0.23941 0.0
C414 C 0.6095 0.36663 0.28542 0.0
C415 C 0.62868 0.39646 0.29309 0.0
H416 H 0.58179 0.7213 0.20303 0.0
H417 H 0.52117 0.66052 0.28867 0.0
H418 H 0.57032 0.62232 0.3005 0.0
H419 H 0.62715 0.60109 0.27763 0.0
H420 H 0.6858 0.66001 0.18807 0.0
H421 H 0.64089 0.70401 0.18669 0.0
C422 C 0.5796 0.70028 0.2252 0.0
C423 C 0.54779 0.69355 0.24463 0.0
C424 C 0.60744 0.67762 0.23043 0.0
C425 C 0.54536 0.66617 0.27321 0.0
C426 C 0.57337 0.64413 0.27969 0.0
C427 C 0.63032 0.62385 0.25838 0.0
C428 C 0.65949 0.62705 0.23252 0.0
C429 C 0.60401 0.64873 0.25703 0.0
C430 C 0.66338 0.65675 0.20788 0.0
C431 C 0.63772 0.68195 0.20708 0.0
H432 H 0.37186 0.6463 0.23535 0.0
H433 H 0.41785 0.62397 0.11522 0.0
H434 H 0.3866 0.56993 0.11149 0.0
H435 H 0.34764 0.52848 0.14213 0.0
H436 H 0.29832 0.54957 0.26023 0.0
H437 H 0.3294 0.60474 0.26506 0.0
C438 C 0.37483 0.62959 0.20838 0.0
C439 C 0.39728 0.63906 0.17573 0.0
C440 C 0.3564 0.59836 0.20614 0.0
C441 C 0.40078 0.61733 0.1408 0.0
C442 C 0.38299 0.58634 0.13862 0.0
C443 C 0.34375 0.54504 0.16912 0.0
C444 C 0.3212 0.53489 0.20109 0.0
C445 C 0.36103 0.57652 0.17117 0.0
C446 C 0.31579 0.55689 0.23536 0.0
C447 C 0.33354 0.58834 0.23807 0.0
H448 H 0.36134 0.39329 0.26179 0.0
H449 H 0.32247 0.32837 0.16288 0.0
H450 H 0.37014 0.2881 0.17347 0.0
H451 H 0.42683 0.2758 0.20409 0.0
H452 H 0.46873 0.34422 0.29741 0.0
H453 H 0.41564 0.37826 0.29663 0.0
C454 C 0.36297 0.36999 0.24311 0.0
C455 C 0.33865 0.36389 0.2114 0.0
C456 C 0.39107 0.34763 0.2484 0.0
C457 C 0.3411 0.33372 0.18727 0.0
C458 C 0.36833 0.31071 0.19331 0.0
C459 C 0.42384 0.29753 0.22517 0.0
C460 C 0.45143 0.3075 0.25092 0.0
C461 C 0.39404 0.31797 0.22287 0.0
C462 C 0.44766 0.33609 0.27747 0.0
C463 C 0.41746 0.35567 0.27677 0.0
H464 H 0.09794 0.33412 0.30334 0.0
H465 H 0.07807 0.29682 0.17843 0.0
H466 H 0.11839 0.33914 0.15002 0.0
H467 H 0.16415 0.38151 0.1617 0.0
H468 H 0.18542 0.41775 0.28668 0.0
H469 H 0.13917 0.38133 0.31412 0.0
C470 C 0.10206 0.3356 0.26983 0.0
C471 C 0.0855 0.3121 0.24302 0.0
C472 C 0.12563 0.35959 0.25385 0.0
C473 C 0.09073 0.31452 0.19968 0.0
C474 C 0.11385 0.3386 0.18346 0.0
C475 C 0.15833 0.38182 0.19489 0.0
C476 C 0.17842 0.40183 0.22227 0.0
C477 C 0.13221 0.36047 0.2104 0.0
C478 C 0.17037 0.40239 0.26506 0.0
C479 C 0.14408 0.38146 0.28075 0.0
H480 H 0.67413 0.08359 0.21565 0.0
H481 H 0.66438 0.09345 0.34954 0.0
H482 H 0.61736 0.13445 0.3409 0.0
H483 H 0.5854 0.17407 0.29552 0.0
H484 H 0.59626 0.16574 0.16162 0.0
H485 H 0.63588 0.11742 0.17001 0.0
C486 C 0.66108 0.09406 0.24286 0.0
C487 C 0.67303 0.08596 0.2831 0.0
C488 C 0.63452 0.11833 0.2377 0.0
C489 C 0.6559 0.09964 0.31816 0.0
C490 C 0.62907 0.1232 0.31329 0.0
C491 C 0.59589 0.1612 0.2682 0.0
C492 C 0.58841 0.17382 0.22811 0.0
C493 C 0.61916 0.13381 0.27323 0.0
C494 C 0.60193 0.15673 0.19292 0.0
C495 C 0.6247 0.12914 0.19765 0.0
H496 H 0.84024 0.59262 0.20131 0.0
H497 H 0.80159 0.58898 0.32779 0.0
H498 H 0.84636 0.62944 0.35001 0.0
H499 H 0.89198 0.67065 0.33165 0.0
H500 H 0.92876 0.67598 0.20442 0.0
H501 H 0.88925 0.62981 0.18431 0.0
C502 C 0.84195 0.60022 0.2339 0.0
C503 C 0.81746 0.58812 0.26282 0.0
C504 C 0.86714 0.62406 0.24616 0.0
C505 C 0.82009 0.59805 0.30494 0.0
C506 C 0.84555 0.62131 0.31759 0.0
C507 C 0.89166 0.6614 0.29963 0.0
C508 C 0.91295 0.67694 0.26943 0.0
C509 C 0.86851 0.63526 0.28819 0.0
C510 C 0.91245 0.66456 0.22816 0.0
C511 C 0.88983 0.63822 0.21664 0.0
H512 H 0.30402 0.89337 0.18995 0.0
H513 H 0.34847 0.91539 0.31066 0.0
H514 H 0.39466 0.87403 0.29739 0.0
H515 H 0.41859 0.82689 0.25478 0.0
H516 H 0.37229 0.80319 0.13548 0.0
H517 H 0.33085 0.84978 0.14483 0.0
C518 C 0.32429 0.88968 0.21288 0.0
C519 C 0.3228 0.90722 0.25123 0.0
C520 C 0.35015 0.86507 0.20561 0.0
C521 C 0.34904 0.90203 0.28089 0.0
C522 C 0.37535 0.87825 0.27344 0.0
C523 C 0.39964 0.8322 0.2307 0.0
C524 C 0.39824 0.81137 0.1948 0.0
C525 C 0.37553 0.8588 0.23649 0.0
C526 C 0.37368 0.81863 0.16368 0.0
C527 C 0.34997 0.84531 0.16893 0.0
H528 H 0.15652 0.61261 0.80991 0.0
H529 H 0.1813 0.59352 0.68033 0.0
H530 H 0.13714 0.63475 0.65871 0.0
H531 H 0.09731 0.68137 0.67703 0.0
H532 H 0.07437 0.70238 0.80665 0.0
H533 H 0.1117 0.65471 0.82795 0.0
C534 C 0.15188 0.61706 0.7769 0.0
C535 C 0.17244 0.60048 0.74672 0.0
C536 C 0.127 0.64126 0.7648 0.0
C537 C 0.16594 0.60618 0.70411 0.0
C538 C 0.14081 0.62983 0.69177 0.0
C539 C 0.10002 0.67516 0.70993 0.0
C540 C 0.08356 0.69562 0.7403 0.0
C541 C 0.12206 0.64833 0.72189 0.0
C542 C 0.08696 0.68709 0.78274 0.0
C543 C 0.10842 0.65997 0.79491 0.0
H544 H 0.41539 0.18952 0.73061 0.0
H545 H 0.3842 0.18078 0.85967 0.0
H546 H 0.34808 0.1313 0.84254 0.0
H547 H 0.31904 0.09606 0.78934 0.0
H548 H 0.34808 0.10673 0.65976 0.0
H549 H 0.39158 0.14938 0.67864 0.0
C550 C 0.40129 0.17627 0.75509 0.0
C551 C 0.40208 0.18902 0.79617 0.0
C552 C 0.37983 0.14836 0.74484 0.0
C553 C 0.38371 0.17163 0.82765 0.0
C554 C 0.36296 0.14339 0.81789 0.0
C555 C 0.33541 0.10719 0.7654 0.0
C556 C 0.33005 0.09865 0.72323 0.0
C557 C 0.35981 0.13236 0.77634 0.0
C558 C 0.35148 0.11319 0.69247 0.0
C559 C 0.37631 0.13766 0.7032 0.0
H560 H 0.90721 0.29817 0.79173 0.0
H561 H 0.89783 0.3205 0.66012 0.0
H562 H 0.85944 0.36868 0.67557 0.0
H563 H 0.82338 0.40013 0.7258 0.0
H564 H 0.8303 0.37582 0.85715 0.0
H565 H 0.87487 0.33306 0.84259 0.0
C566 C 0.8973 0.31406 0.76657 0.0
C567 C 0.90509 0.30572 0.7249 0.0
C568 C 0.87443 0.34113 0.77559 0.0
C569 C 0.89197 0.32634 0.69249 0.0
C570 C 0.86993 0.35382 0.70126 0.0
C571 C 0.83502 0.38582 0.75126 0.0
C572 C 0.82334 0.39084 0.79237 0.0
C573 C 0.86014 0.36077 0.74259 0.0
C574 C 0.83867 0.37218 0.82512 0.0
C575 C 0.86415 0.3477 0.81685 0.0
H576 H 0.69191 0.88406 0.79075 0.0
H577 H 0.63349 0.92415 0.68692 0.0
H578 H 0.59272 0.87628 0.6928 0.0
H579 H 0.57762 0.81937 0.72268 0.0
H580 H 0.63872 0.77912 0.82438 0.0
H581 H 0.67452 0.83041 0.82377 0.0
C582 C 0.66983 0.88278 0.76998 0.0
C583 C 0.66583 0.90745 0.73834 0.0
C584 C 0.64734 0.85465 0.77255 0.0
C585 C 0.63712 0.90541 0.7116 0.0
C586 C 0.61399 0.87787 0.71468 0.0
C587 C 0.59868 0.822 0.74475 0.0
C588 C 0.60576 0.79525 0.77307 0.0
C589 C 0.61953 0.85168 0.74414 0.0
C590 C 0.63292 0.79911 0.80184 0.0
C591 C 0.65339 0.82853 0.80171 0.0
H592 H 0.99225 0.17616 0.42263 0.0
H593 H 0.02538 0.28224 0.42866 0.0
H594 H 0.01134 0.28428 0.50299 0.0
H595 H 0.98991 0.2561 0.56612 0.0
H596 H 0.95545 0.15049 0.5607 0.0
H597 H 0.96976 0.14805 0.48614 0.0
C598 C 0.99638 0.19969 0.44027 0.0
C599 C 0.00989 0.22898 0.42026 0.0
C600 C 0.98805 0.20076 0.483 0.0
C601 C 0.01498 0.25936 0.44337 0.0
C602 C 0.007 0.26055 0.48587 0.0
C603 C 0.98556 0.23251 0.54866 0.0
C604 C 0.97176 0.20348 0.56883 0.0
C605 C 0.99358 0.23142 0.50597 0.0
C606 C 0.96607 0.17317 0.54579 0.0
C607 C 0.97426 0.17178 0.50322 0.0
H608 H 0.79994 0.01035 0.57504 0.0
H609 H 0.7283 0.92691 0.55479 0.0
H610 H 0.72714 0.93969 0.47999 0.0
H611 H 0.74424 0.97633 0.42119 0.0
H612 H 0.81459 0.06083 0.4417 0.0
H613 H 0.81844 0.04592 0.51579 0.0
C614 C 0.78438 0.99473 0.55416 0.0
C615 C 0.76423 0.96775 0.57028 0.0
C616 C 0.78336 0.00261 0.51143 0.0
C617 C 0.74402 0.94783 0.54301 0.0
C618 C 0.74326 0.95519 0.50032 0.0
C619 C 0.76049 0.99143 0.44186 0.0
C620 C 0.77896 0.01973 0.42614 0.0
C621 C 0.76242 0.98283 0.48433 0.0
C622 C 0.8 0.039 0.45318 0.0
C623 C 0.80225 0.03047 0.49549 0.0
H624 H 0.06139 0.78076 0.55431 0.0
H625 H 0.95626 0.78079 0.59822 0.0
H626 H 0.93541 0.77438 0.52648 0.0
H627 H 0.94715 0.76933 0.45114 0.0
H628 H 0.05242 0.76595 0.40777 0.0
H629 H 0.07318 0.77283 0.47939 0.0
C630 C 0.03393 0.77947 0.54805 0.0
C631 C 0.01035 0.78153 0.58125 0.0
C632 C 0.02219 0.77501 0.50691 0.0
C633 C 0.97486 0.7793 0.573 0.0
C634 C 0.96294 0.77564 0.53206 0.0
C635 C 0.97461 0.76998 0.45748 0.0
C636 C 0.99822 0.76728 0.42435 0.0
C637 C 0.98637 0.77351 0.49876 0.0
C638 C 0.03375 0.76787 0.43287 0.0
C639 C 0.04564 0.77194 0.47376 0.0
H640 H 0.2768 0.03541 0.54271 0.0
H641 H 0.17202 0.00549 0.56962 0.0
H642 H 0.16576 0.98277 0.49864 0.0
H643 H 0.19059 0.97042 0.42942 0.0
H644 H 0.29461 0.00254 0.40191 0.0
H645 H 0.30078 0.02527 0.47284 0.0
C646 C 0.25255 0.02405 0.53295 0.0
C647 C 0.22495 0.022 0.56127 0.0
C648 C 0.24911 0.01125 0.49217 0.0
C649 C 0.19359 0.00744 0.54824 0.0
C650 C 0.19006 0.99431 0.50777 0.0
C651 C 0.21463 0.98227 0.4391 0.0
C652 C 0.24223 0.98457 0.41079 0.0
C653 C 0.21775 0.99584 0.4796 0.0
C654 C 0.27306 0.00043 0.42333 0.0
C655 C 0.27659 0.01343 0.4638 0.0
H656 H 0.529 0.75598 0.91567 0.0
H657 H 0.54049 0.64538 0.91651 0.0
H658 H 0.52866 0.64437 0.99172 0.0
H659 H 0.51164 0.67473 0.05595 0.0
H660 H 0.50002 0.78537 0.05459 0.0
H661 H 0.51577 0.78663 0.98063 0.0
C662 C 0.52905 0.73166 0.93235 0.0
C663 C 0.53521 0.70075 0.91065 0.0
C664 C 0.52225 0.73133 0.97533 0.0
C665 C 0.53565 0.66947 0.93263 0.0
C666 C 0.52886 0.6689 0.97554 0.0
C667 C 0.51288 0.69915 0.03955 0.0
C668 C 0.50445 0.7299 0.06051 0.0
C669 C 0.52164 0.69963 0.99703 0.0
C670 C 0.50633 0.76137 0.03903 0.0
C671 C 0.5152 0.76209 0.99676 0.0
H672 H 0.22302 0.53297 0.92757 0.0
H673 H 0.32705 0.50093 0.89963 0.0
H674 H 0.33207 0.47499 0.96895 0.0
H675 H 0.30675 0.46112 0.03727 0.0
H676 H 0.20359 0.49513 0.06628 0.0
H677 H 0.19821 0.52036 0.99653 0.0
C678 C 0.24683 0.52044 0.93675 0.0
C679 C 0.27462 0.51886 0.90861 0.0
C680 C 0.24957 0.50571 0.97664 0.0
C681 C 0.30535 0.50262 0.92087 0.0
C682 C 0.30819 0.48764 0.9604 0.0
C683 C 0.28301 0.47382 0.02815 0.0
C684 C 0.25548 0.47603 0.05659 0.0
C685 C 0.2804 0.48888 0.98843 0.0
C686 C 0.22506 0.49302 0.04475 0.0
C687 C 0.22201 0.50751 0.00497 0.0
H688 H 0.46734 0.29358 0.09819 0.0
H689 H 0.57506 0.28873 0.06508 0.0
H690 H 0.56006 0.29096 0.99085 0.0
H691 H 0.51616 0.29107 0.9356 0.0
H692 H 0.40857 0.2985 0.96844 0.0
H693 H 0.42363 0.29859 0.04283 0.0
C694 C 0.48751 0.29326 0.07466 0.0
C695 C 0.52221 0.29066 0.08687 0.0
C696 C 0.47869 0.29481 0.03219 0.0
C697 C 0.54817 0.29071 0.0563 0.0
C698 C 0.5396 0.29183 0.01392 0.0
C699 C 0.49605 0.29279 0.9591 0.0
C700 C 0.46132 0.29431 0.94682 0.0
C701 C 0.50494 0.29333 0.00156 0.0
C702 C 0.43548 0.29717 0.97734 0.0
C703 C 0.44407 0.29716 0.01977 0.0
H704 H 0.68768 0.4727 0.95417 0.0
H705 H 0.7919 0.50759 0.93338 0.0
H706 H 0.7948 0.52924 0.00504 0.0
H707 H 0.76836 0.53676 0.07405 0.0
H708 H 0.6638 0.50298 0.09484 0.0
H709 H 0.66025 0.48264 0.02253 0.0
C710 C 0.711 0.48507 0.96538 0.0
C711 C 0.73962 0.48834 0.93872 0.0
C712 C 0.71238 0.49771 0.00649 0.0
C713 C 0.76956 0.5047 0.9534 0.0
C714 C 0.77124 0.51708 0.99434 0.0
C715 C 0.74473 0.52512 0.06268 0.0
C716 C 0.71644 0.52123 0.08971 0.0
C717 C 0.74289 0.51353 0.0212 0.0
C718 C 0.68592 0.50629 0.07455 0.0
C719 C 0.68392 0.49455 0.03329 0.0
loop_
_geom_bond_atom_site_label_1
_geom_bond_atom_site_label_2
_geom_bond_distance
_geom_bond_site_symmetry_2
_ccdc_geom_bond_type
In0 O1 2.294 . S
In0 O2 2.326 . S
In0 O6 2.266 . S
In0 O7 2.326 . S
In0 O8 2.266 1_455 S
In0 O9 2.326 1_455 S
In0 O11 2.294 . S
In0 O12 2.326 . S
O1 In0 2.294 . S
O1 C10 1.240 . S
O2 In0 2.326 . S
O2 C10 1.252 . S
C3 O6 1.252 . S
C3 O7 1.260 . S
C4 O11 1.240 . S
C4 O12 1.252 . S
C5 O8 1.252 . S
C5 O9 1.260 . S
O6 In0 2.266 . S
O6 C3 1.252 . S
O7 In0 2.326 . S
O7 C3 1.260 . S
O8 In0 2.266 1_655 S
O8 C5 1.252 . S
O9 In0 2.326 1_655 S
O9 C5 1.260 . S
C10 O1 1.240 . S
C10 O2 1.252 . S
O11 In0 2.294 . S
O11 C4 1.240 . S
O12 In0 2.326 . S
O12 C4 1.252 . S
In13 O14 2.294 . S
In13 O15 2.326 . S
In13 O19 2.266 . S
In13 O20 2.326 . S
In13 O21 2.266 1_545 S
In13 O22 2.326 1_545 S
In13 O24 2.294 . S
In13 O25 2.326 . S
O14 In13 2.294 . S
O14 C23 1.240 . S
O15 In13 2.326 . S
O15 C23 1.252 . S
C16 O19 1.252 . S
C16 O20 1.260 . S
C17 O24 1.240 . S
C17 O25 1.252 . S
C18 O21 1.252 . S
C18 O22 1.260 . S
O19 In13 2.266 . S
O19 C16 1.252 . S
O20 In13 2.326 . S
O20 C16 1.260 . S
O21 In13 2.266 1_565 S
O21 C18 1.252 . S
O22 In13 2.326 1_565 S
O22 C18 1.260 . S
C23 O14 1.240 . S
C23 O15 1.252 . S
O24 In13 2.294 . S
O24 C17 1.240 . S
O25 In13 2.326 . S
O25 C17 1.252 . S
In26 O27 2.294 . S
In26 O28 2.326 . S
In26 O32 2.266 1_655 S
In26 O33 2.326 1_655 S
In26 O34 2.266 . S
In26 O35 2.326 . S
In26 O37 2.294 . S
In26 O38 2.326 . S
O27 In26 2.294 . S
O27 C36 1.240 . S
O28 In26 2.326 . S
O28 C36 1.252 . S
C29 O32 1.252 . S
C29 O33 1.260 . S
C30 O37 1.240 . S
C30 O38 1.252 . S
C31 O34 1.252 . S
C31 O35 1.260 . S
O32 In26 2.266 1_455 S
O32 C29 1.252 . S
O33 In26 2.326 1_455 S
O33 C29 1.260 . S
O34 In26 2.266 . S
O34 C31 1.252 . S
O35 In26 2.326 . S
O35 C31 1.260 . S
C36 O27 1.240 . S
C36 O28 1.252 . S
O37 In26 2.294 . S
O37 C30 1.240 . S
O38 In26 2.326 . S
O38 C30 1.252 . S
In39 O40 2.294 . S
In39 O41 2.326 . S
In39 O45 2.266 1_565 S
In39 O46 2.326 1_565 S
In39 O47 2.266 . S
In39 O48 2.326 . S
In39 O50 2.294 . S
In39 O51 2.326 . S
O40 In39 2.294 . S
O40 C49 1.240 . S
O41 In39 2.326 . S
O41 C49 1.252 . S
C42 O45 1.252 . S
C42 O46 1.260 . S
C43 O50 1.240 . S
C43 O51 1.252 . S
C44 O47 1.252 . S
C44 O48 1.260 . S
O45 In39 2.266 1_545 S
O45 C42 1.252 . S
O46 In39 2.326 1_545 S
O46 C42 1.260 . S
O47 In39 2.266 . S
O47 C44 1.252 . S
O48 In39 2.326 . S
O48 C44 1.260 . S
C49 O40 1.240 . S
C49 O41 1.252 . S
O50 In39 2.294 . S
O50 C43 1.240 . S
O51 In39 2.326 . S
O51 C43 1.252 . S
In52 O53 2.294 . S
In52 O54 2.326 . S
In52 O58 2.266 . S
In52 O59 2.326 . S
In52 O60 2.266 1_455 S
In52 O61 2.326 1_455 S
In52 O63 2.294 . S
In52 O64 2.326 . S
O53 In52 2.294 . S
O53 C62 1.240 . S
O54 In52 2.326 . S
O54 C62 1.252 . S
C55 O58 1.252 . S
C55 O59 1.260 . S
C56 O63 1.240 . S
C56 O64 1.252 . S
C57 O60 1.252 . S
C57 O61 1.260 . S
O58 In52 2.266 . S
O58 C55 1.252 . S
O59 In52 2.326 . S
O59 C55 1.260 . S
O60 In52 2.266 1_655 S
O60 C57 1.252 . S
O61 In52 2.326 1_655 S
O61 C57 1.260 . S
C62 O53 1.240 . S
C62 O54 1.252 . S
O63 In52 2.294 . S
O63 C56 1.240 . S
O64 In52 2.326 . S
O64 C56 1.252 . S
In65 O66 2.294 . S
In65 O67 2.326 . S
In65 O71 2.266 . S
In65 O72 2.326 . S
In65 O73 2.266 1_545 S
In65 O74 2.326 1_545 S
In65 O76 2.294 . S
In65 O77 2.326 . S
O66 In65 2.294 . S
O66 C75 1.240 . S
O67 In65 2.326 . S
O67 C75 1.252 . S
C68 O71 1.252 . S
C68 O72 1.260 . S
C69 O76 1.240 . S
C69 O77 1.252 . S
C70 O73 1.252 . S
C70 O74 1.260 . S
O71 In65 2.266 . S
O71 C68 1.252 . S
O72 In65 2.326 . S
O72 C68 1.260 . S
O73 In65 2.266 1_565 S
O73 C70 1.252 . S
O74 In65 2.326 1_565 S
O74 C70 1.260 . S
C75 O66 1.240 . S
C75 O67 1.252 . S
O76 In65 2.294 . S
O76 C69 1.240 . S
O77 In65 2.326 . S
O77 C69 1.252 . S
In78 O79 2.294 . S
In78 O80 2.326 . S
In78 O84 2.266 1_655 S
In78 O85 2.326 1_655 S
In78 O86 2.266 . S
In78 O87 2.326 . S
In78 O89 2.294 . S
In78 O90 2.326 . S
O79 In78 2.294 . S
O79 C88 1.240 . S
O80 In78 2.326 . S
O80 C88 1.252 . S
C81 O84 1.252 . S
C81 O85 1.260 . S
C82 O89 1.240 . S
C82 O90 1.252 . S
C83 O86 1.252 . S
C83 O87 1.260 . S
O84 In78 2.266 1_455 S
O84 C81 1.252 . S
O85 In78 2.326 1_455 S
O85 C81 1.260 . S
O86 In78 2.266 . S
O86 C83 1.252 . S
O87 In78 2.326 . S
O87 C83 1.260 . S
C88 O79 1.240 . S
C88 O80 1.252 . S
O89 In78 2.294 . S
O89 C82 1.240 . S
O90 In78 2.326 . S
O90 C82 1.252 . S
In91 O92 2.294 . S
In91 O93 2.326 . S
In91 O97 2.266 . S
In91 O98 2.326 . S
In91 O99 2.266 1_565 S
In91 O100 2.326 1_565 S
In91 O102 2.294 . S
In91 O103 2.326 . S
O92 In91 2.294 . S
O92 C101 1.240 . S
O93 In91 2.326 . S
O93 C101 1.252 . S
C94 O97 1.252 . S
C94 O98 1.260 . S
C95 O102 1.240 . S
C95 O103 1.252 . S
C96 O99 1.252 . S
C96 O100 1.260 . S
O97 In91 2.266 . S
O97 C94 1.252 . S
O98 In91 2.326 . S
O98 C94 1.260 . S
O99 In91 2.266 1_545 S
O99 C96 1.252 . S
O100 In91 2.326 1_545 S
O100 C96 1.260 . S
C101 O92 1.240 . S
C101 O93 1.252 . S
O102 In91 2.294 . S
O102 C95 1.240 . S
O103 In91 2.326 . S
O103 C95 1.252 . S
In104 O105 2.294 . S
In104 O106 2.326 . S
In104 O110 2.266 . S
In104 O111 2.326 . S
In104 O112 2.266 . S
In104 O113 2.326 . S
In104 O115 2.294 . S
In104 O116 2.326 . S
O105 In104 2.294 . S
O105 C114 1.240 . S
O106 In104 2.326 . S
O106 C114 1.252 . S
C107 O110 1.252 . S
C107 O111 1.260 . S
C108 O115 1.240 . S
C108 O116 1.252 . S
C109 O112 1.252 . S
C109 O113 1.260 . S
O110 In104 2.266 . S
O110 C107 1.252 . S
O111 In104 2.326 . S
O111 C107 1.260 . S
O112 In104 2.266 . S
O112 C109 1.252 . S
O113 In104 2.326 . S
O113 C109 1.260 . S
C114 O105 1.240 . S
C114 O106 1.252 . S
O115 In104 2.294 . S
O115 C108 1.240 . S
O116 In104 2.326 . S
O116 C108 1.252 . S
In117 O118 2.294 . S
In117 O119 2.326 . S
In117 O123 2.266 . S
In117 O124 2.326 . S
In117 O125 2.266 . S
In117 O126 2.326 . S
In117 O128 2.294 . S
In117 O129 2.326 . S
O118 In117 2.294 . S
O118 C127 1.240 . S
O119 In117 2.326 . S
O119 C127 1.252 . S
C120 O123 1.252 . S
C120 O124 1.260 . S
C121 O128 1.240 . S
C121 O129 1.252 . S
C122 O125 1.252 . S
C122 O126 1.260 . S
O123 In117 2.266 . S
O123 C120 1.252 . S
O124 In117 2.326 . S
O124 C120 1.260 . S
O125 In117 2.266 . S
O125 C122 1.252 . S
O126 In117 2.326 . S
O126 C122 1.260 . S
C127 O118 1.240 . S
C127 O119 1.252 . S
O128 In117 2.294 . S
O128 C121 1.240 . S
O129 In117 2.326 . S
O129 C121 1.252 . S
In130 O131 2.294 . S
In130 O132 2.326 . S
In130 O136 2.266 . S
In130 O137 2.326 . S
In130 O138 2.266 . S
In130 O139 2.326 . S
In130 O141 2.294 . S
In130 O142 2.326 . S
O131 In130 2.294 . S
O131 C140 1.240 . S
O132 In130 2.326 . S
O132 C140 1.252 . S
C133 O136 1.252 . S
C133 O137 1.260 . S
C134 O141 1.240 . S
C134 O142 1.252 . S
C135 O138 1.252 . S
C135 O139 1.260 . S
O136 In130 2.266 . S
O136 C133 1.252 . S
O137 In130 2.326 . S
O137 C133 1.260 . S
O138 In130 2.266 . S
O138 C135 1.252 . S
O139 In130 2.326 . S
O139 C135 1.260 . S
C140 O131 1.240 . S
C140 O132 1.252 . S
O141 In130 2.294 . S
O141 C134 1.240 . S
O142 In130 2.326 . S
O142 C134 1.252 . S
In143 O144 2.294 . S
In143 O145 2.326 . S
In143 O149 2.266 . S
In143 O150 2.326 . S
In143 O151 2.266 . S
In143 O152 2.326 . S
In143 O154 2.294 . S
In143 O155 2.326 . S
O144 In143 2.294 . S
O144 C153 1.240 . S
O145 In143 2.326 . S
O145 C153 1.252 . S
C146 O149 1.252 . S
C146 O150 1.260 . S
C147 O154 1.240 . S
C147 O155 1.252 . S
C148 O151 1.252 . S
C148 O152 1.260 . S
O149 In143 2.266 . S
O149 C146 1.252 . S
O150 In143 2.326 . S
O150 C146 1.260 . S
O151 In143 2.266 . S
O151 C148 1.252 . S
O152 In143 2.326 . S
O152 C148 1.260 . S
C153 O144 1.240 . S
C153 O145 1.252 . S
O154 In143 2.294 . S
O154 C147 1.240 . S
O155 In143 2.326 . S
O155 C147 1.252 . S
In156 O157 2.294 . S
In156 O158 2.326 . S
In156 O162 2.266 . S
In156 O163 2.326 . S
In156 O164 2.266 . S
In156 O165 2.326 . S
In156 O167 2.294 . S
In156 O168 2.326 . S
O157 In156 2.294 . S
O157 C166 1.240 . S
O158 In156 2.326 . S
O158 C166 1.252 . S
C159 O162 1.252 . S
C159 O163 1.260 . S
C160 O167 1.240 . S
C160 O168 1.252 . S
C161 O164 1.252 . S
C161 O165 1.260 . S
O162 In156 2.266 . S
O162 C159 1.252 . S
O163 In156 2.326 . S
O163 C159 1.260 . S
O164 In156 2.266 . S
O164 C161 1.252 . S
O165 In156 2.326 . S
O165 C161 1.260 . S
C166 O157 1.240 . S
C166 O158 1.252 . S
O167 In156 2.294 . S
O167 C160 1.240 . S
O168 In156 2.326 . S
O168 C160 1.252 . S
In169 O170 2.294 . S
In169 O171 2.326 . S
In169 O175 2.266 . S
In169 O176 2.326 . S
In169 O177 2.266 . S
In169 O178 2.326 . S
In169 O180 2.294 . S
In169 O181 2.326 . S
O170 In169 2.294 . S
O170 C179 1.240 . S
O171 In169 2.326 . S
O171 C179 1.252 . S
C172 O175 1.252 . S
C172 O176 1.260 . S
C173 O180 1.240 . S
C173 O181 1.252 . S
C174 O177 1.252 . S
C174 O178 1.260 . S
O175 In169 2.266 . S
O175 C172 1.252 . S
O176 In169 2.326 . S
O176 C172 1.260 . S
O177 In169 2.266 . S
O177 C174 1.252 . S
O178 In169 2.326 . S
O178 C174 1.260 . S
C179 O170 1.240 . S
C179 O171 1.252 . S
O180 In169 2.294 . S
O180 C173 1.240 . S
O181 In169 2.326 . S
O181 C173 1.252 . S
In182 O183 2.294 . S
In182 O184 2.326 . S
In182 O188 2.266 . S
In182 O189 2.326 . S
In182 O190 2.266 . S
In182 O191 2.326 . S
In182 O193 2.294 . S
In182 O194 2.326 . S
O183 In182 2.294 . S
O183 C192 1.240 . S
O184 In182 2.326 . S
O184 C192 1.252 . S
C185 O188 1.252 . S
C185 O189 1.260 . S
C186 O193 1.240 . S
C186 O194 1.252 . S
C187 O190 1.252 . S
C187 O191 1.260 . S
O188 In182 2.266 . S
O188 C185 1.252 . S
O189 In182 2.326 . S
O189 C185 1.260 . S
O190 In182 2.266 . S
O190 C187 1.252 . S
O191 In182 2.326 . S
O191 C187 1.260 . S
C192 O183 1.240 . S
C192 O184 1.252 . S
O193 In182 2.294 . S
O193 C186 1.240 . S
O194 In182 2.326 . S
O194 C186 1.252 . S
In195 O196 2.294 . S
In195 O197 2.326 . S
In195 O201 2.266 . S
In195 O202 2.326 . S
In195 O203 2.266 . S
In195 O204 2.326 . S
In195 O206 2.294 . S
In195 O207 2.326 . S
O196 In195 2.294 . S
O196 C205 1.240 . S
O197 In195 2.326 . S
O197 C205 1.252 . S
C198 O201 1.252 . S
C198 O202 1.260 . S
C199 O206 1.240 . S
C199 O207 1.252 . S
C200 O203 1.252 . S
C200 O204 1.260 . S
O201 In195 2.266 . S
O201 C198 1.252 . S
O202 In195 2.326 . S
O202 C198 1.260 . S
O203 In195 2.266 . S
O203 C200 1.252 . S
O204 In195 2.326 . S
O204 C200 1.260 . S
C205 O196 1.240 . S
C205 O197 1.252 . S
O206 In195 2.294 . S
O206 C199 1.240 . S
O207 In195 2.326 . S
O207 C199 1.252 . S
H208 C214 0.930 . S
H209 C217 0.930 . S
H210 C218 0.930 . S
H211 C219 0.930 . S
H212 C222 0.930 . S
H213 C223 0.930 . S
C214 H208 0.930 . S
C214 C215 1.355 . S
C214 C216 1.415 . S
C215 C214 1.355 . S
C215 C217 1.419 . S
C216 C214 1.415 . S
C216 C221 1.425 . S
C216 C223 1.409 . S
C217 H209 0.930 . S
C217 C215 1.419 . S
C217 C218 1.362 . S
C218 H210 0.930 . S
C218 C217 1.362 . S
C218 C221 1.409 . S
C219 H211 0.930 . S
C219 C220 1.355 . S
C219 C221 1.415 . S
C220 C219 1.355 . S
C220 C222 1.419 . S
C221 C216 1.425 . S
C221 C218 1.409 . S
C221 C219 1.415 . S
C222 H212 0.930 . S
C222 C220 1.419 . S
C222 C223 1.362 . S
C223 H213 0.930 . S
C223 C216 1.409 . S
C223 C222 1.362 . S
H224 C230 0.930 . S
H225 C233 0.930 . S
H226 C234 0.930 . S
H227 C235 0.930 . S
H228 C238 0.930 . S
H229 C239 0.930 . S
C230 H224 0.930 . S
C230 C231 1.355 . S
C230 C232 1.415 . S
C231 C230 1.355 . S
C231 C233 1.419 . S
C232 C230 1.415 . S
C232 C237 1.425 . S
C232 C239 1.409 . S
C233 H225 0.930 . S
C233 C231 1.419 . S
C233 C234 1.362 . S
C234 H226 0.930 . S
C234 C233 1.362 . S
C234 C237 1.409 . S
C235 H227 0.930 . S
C235 C236 1.355 . S
C235 C237 1.415 . S
C236 C235 1.355 . S
C236 C238 1.419 . S
C237 C232 1.425 . S
C237 C234 1.409 . S
C237 C235 1.415 . S
C238 H228 0.930 . S
C238 C236 1.419 . S
C238 C239 1.362 . S
C239 H229 0.930 . S
C239 C232 1.409 . S
C239 C238 1.362 . S
H240 C246 0.930 . S
H241 C249 0.930 . S
H242 C250 0.930 . S
H243 C251 0.930 . S
H244 C254 0.930 . S
H245 C255 0.930 . S
C246 H240 0.930 . S
C246 C247 1.355 . S
C246 C248 1.415 . S
C247 C246 1.355 . S
C247 C249 1.419 . S
C248 C246 1.415 . S
C248 C253 1.425 . S
C248 C255 1.409 . S
C249 H241 0.930 . S
C249 C247 1.419 . S
C249 C250 1.362 . S
C250 H242 0.930 . S
C250 C249 1.362 . S
C250 C253 1.409 . S
C251 H243 0.930 . S
C251 C252 1.355 . S
C251 C253 1.415 . S
C252 C251 1.355 . S
C252 C254 1.419 . S
C253 C248 1.425 . S
C253 C250 1.409 . S
C253 C251 1.415 . S
C254 H244 0.930 . S
C254 C252 1.419 . S
C254 C255 1.362 . S
C255 H245 0.930 . S
C255 C248 1.409 . S
C255 C254 1.362 . S
H256 C262 0.930 . S
H257 C265 0.930 . S
H258 C266 0.930 . S
H259 C267 0.930 . S
H260 C270 0.930 . S
H261 C271 0.930 . S
C262 H256 0.930 . S
C262 C263 1.355 . S
C262 C264 1.415 . S
C263 C262 1.355 . S
C263 C265 1.419 . S
C264 C262 1.415 . S
C264 C269 1.425 . S
C264 C271 1.409 . S
C265 H257 0.930 . S
C265 C263 1.419 . S
C265 C266 1.362 . S
C266 H258 0.930 . S
C266 C265 1.362 . S
C266 C269 1.409 . S
C267 H259 0.930 . S
C267 C268 1.355 . S
C267 C269 1.415 . S
C268 C267 1.355 . S
C268 C270 1.419 . S
C269 C264 1.425 . S
C269 C266 1.409 . S
C269 C267 1.415 . S
C270 H260 0.930 . S
C270 C268 1.419 . S
C270 C271 1.362 . S
C271 H261 0.930 . S
C271 C264 1.409 . S
C271 C270 1.362 . S
H272 C278 0.930 . S
H273 C281 0.930 . S
H274 C282 0.930 . S
H275 C283 0.930 . S
H276 C286 0.930 . S
H277 C287 0.930 . S
C278 H272 0.930 . S
C278 C279 1.355 . S
C278 C280 1.415 . S
C279 C278 1.355 . S
C279 C281 1.419 . S
C280 C278 1.415 . S
C280 C285 1.425 . S
C280 C287 1.409 . S
C281 H273 0.930 . S
C281 C279 1.419 . S
C281 C282 1.362 . S
C282 H274 0.930 . S
C282 C281 1.362 . S
C282 C285 1.409 . S
C283 H275 0.930 . S
C283 C284 1.355 . S
C283 C285 1.415 . S
C284 C283 1.355 . S
C284 C286 1.419 . S
C285 C280 1.425 . S
C285 C282 1.409 . S
C285 C283 1.415 . S
C286 H276 0.930 . S
C286 C284 1.419 . S
C286 C287 1.362 . S
C287 H277 0.930 . S
C287 C280 1.409 . S
C287 C286 1.362 . S
H288 C294 0.930 . S
H289 C297 0.930 . S
H290 C298 0.930 . S
H291 C299 0.930 . S
H292 C302 0.930 . S
H293 C303 0.930 . S
C294 H288 0.930 . S
C294 C295 1.355 . S
C294 C296 1.415 . S
C295 C294 1.355 . S
C295 C297 1.419 . S
C296 C294 1.415 . S
C296 C301 1.425 . S
C296 C303 1.409 . S
C297 H289 0.930 . S
C297 C295 1.419 . S
C297 C298 1.362 . S
C298 H290 0.930 . S
C298 C297 1.362 . S
C298 C301 1.409 . S
C299 H291 0.930 . S
C299 C300 1.355 . S
C299 C301 1.415 . S
C300 C299 1.355 . S
C300 C302 1.419 . S
C301 C296 1.425 . S
C301 C298 1.409 . S
C301 C299 1.415 . S
C302 H292 0.930 . S
C302 C300 1.419 . S
C302 C303 1.362 . S
C303 H293 0.930 . S
C303 C296 1.409 . S
C303 C302 1.362 . S
H304 C310 0.930 . S
H305 C313 0.930 . S
H306 C314 0.930 . S
H307 C315 0.930 . S
H308 C318 0.930 . S
H309 C319 0.930 . S
C310 H304 0.930 . S
C310 C311 1.355 . S
C310 C312 1.415 . S
C311 C310 1.355 . S
C311 C313 1.419 . S
C312 C310 1.415 . S
C312 C317 1.425 . S
C312 C319 1.409 . S
C313 H305 0.930 . S
C313 C311 1.419 . S
C313 C314 1.362 . S
C314 H306 0.930 . S
C314 C313 1.362 . S
C314 C317 1.409 . S
C315 H307 0.930 . S
C315 C316 1.355 . S
C315 C317 1.415 . S
C316 C315 1.355 . S
C316 C318 1.419 . S
C317 C312 1.425 . S
C317 C314 1.409 . S
C317 C315 1.415 . S
C318 H308 0.930 . S
C318 C316 1.419 . S
C318 C319 1.362 . S
C319 H309 0.930 . S
C319 C312 1.409 . S
C319 C318 1.362 . S
H320 C326 0.930 . S
H321 C329 0.930 . S
H322 C330 0.930 . S
H323 C331 0.930 . S
H324 C334 0.930 . S
H325 C335 0.930 . S
C326 H320 0.930 . S
C326 C327 1.355 . S
C326 C328 1.415 . S
C327 C326 1.355 . S
C327 C329 1.419 . S
C328 C326 1.415 . S
C328 C333 1.425 . S
C328 C335 1.409 . S
C329 H321 0.930 . S
C329 C327 1.419 . S
C329 C330 1.362 . S
C330 H322 0.930 . S
C330 C329 1.362 . S
C330 C333 1.409 . S
C331 H323 0.930 . S
C331 C332 1.355 . S
C331 C333 1.415 . S
C332 C331 1.355 . S
C332 C334 1.419 . S
C333 C328 1.425 . S
C333 C330 1.409 . S
C333 C331 1.415 . S
C334 H324 0.930 . S
C334 C332 1.419 . S
C334 C335 1.362 . S
C335 H325 0.930 . S
C335 C328 1.409 . S
C335 C334 1.362 . S
H336 C342 0.930 . S
H337 C345 0.930 . S
H338 C346 0.930 . S
H339 C347 0.930 . S
H340 C350 0.930 . S
H341 C351 0.930 . S
C342 H336 0.930 . S
C342 C343 1.355 . S
C342 C344 1.415 . S
C343 C342 1.355 . S
C343 C345 1.419 . S
C344 C342 1.415 . S
C344 C349 1.425 . S
C344 C351 1.409 . S
C345 H337 0.930 . S
C345 C343 1.419 . S
C345 C346 1.362 . S
C346 H338 0.930 . S
C346 C345 1.362 . S
C346 C349 1.409 . S
C347 H339 0.930 . S
C347 C348 1.355 . S
C347 C349 1.415 . S
C348 C347 1.355 . S
C348 C350 1.419 . S
C349 C344 1.425 . S
C349 C346 1.409 . S
C349 C347 1.415 . S
C350 H340 0.930 . S
C350 C348 1.419 . S
C350 C351 1.362 . S
C351 H341 0.930 . S
C351 C344 1.409 . S
C351 C350 1.362 . S
H352 C358 0.930 . S
H353 C361 0.930 . S
H354 C362 0.930 . S
H355 C363 0.930 . S
H356 C366 0.930 . S
H357 C367 0.930 . S
C358 H352 0.930 . S
C358 C359 1.355 . S
C358 C360 1.415 . S
C359 C358 1.355 . S
C359 C361 1.419 . S
C360 C358 1.415 . S
C360 C365 1.425 . S
C360 C367 1.409 . S
C361 H353 0.930 . S
C361 C359 1.419 . S
C361 C362 1.362 . S
C362 H354 0.930 . S
C362 C361 1.362 . S
C362 C365 1.409 . S
C363 H355 0.930 . S
C363 C364 1.355 . S
C363 C365 1.415 . S
C364 C363 1.355 . S
C364 C366 1.419 . S
C365 C360 1.425 . S
C365 C362 1.409 . S
C365 C363 1.415 . S
C366 H356 0.930 . S
C366 C364 1.419 . S
C366 C367 1.362 . S
C367 H357 0.930 . S
C367 C360 1.409 . S
C367 C366 1.362 . S
H368 C374 0.930 . S
H369 C377 0.930 . S
H370 C378 0.930 . S
H371 C379 0.930 . S
H372 C382 0.930 . S
H373 C383 0.930 . S
C374 H368 0.930 . S
C374 C375 1.355 . S
C374 C376 1.415 . S
C375 C374 1.355 . S
C375 C377 1.419 . S
C376 C374 1.415 . S
C376 C381 1.425 . S
C376 C383 1.409 . S
C377 H369 0.930 . S
C377 C375 1.419 . S
C377 C378 1.362 . S
C378 H370 0.930 . S
C378 C377 1.362 . S
C378 C381 1.409 . S
C379 H371 0.930 . S
C379 C380 1.355 . S
C379 C381 1.415 . S
C380 C379 1.355 . S
C380 C382 1.419 . S
C381 C376 1.425 . S
C381 C378 1.409 . S
C381 C379 1.415 . S
C382 H372 0.930 . S
C382 C380 1.419 . S
C382 C383 1.362 . S
C383 H373 0.930 . S
C383 C376 1.409 . S
C383 C382 1.362 . S
H384 C390 0.930 . S
H385 C393 0.930 . S
H386 C394 0.930 . S
H387 C395 0.930 . S
H388 C398 0.930 . S
H389 C399 0.930 . S
C390 H384 0.930 . S
C390 C391 1.355 . S
C390 C392 1.415 . S
C391 C390 1.355 . S
C391 C393 1.419 . S
C392 C390 1.415 . S
C392 C397 1.425 . S
C392 C399 1.409 . S
C393 H385 0.930 . S
C393 C391 1.419 . S
C393 C394 1.362 . S
C394 H386 0.930 . S
C394 C393 1.362 . S
C394 C397 1.409 . S
C395 H387 0.930 . S
C395 C396 1.355 . S
C395 C397 1.415 . S
C396 C395 1.355 . S
C396 C398 1.419 . S
C397 C392 1.425 . S
C397 C394 1.409 . S
C397 C395 1.415 . S
C398 H388 0.930 . S
C398 C396 1.419 . S
C398 C399 1.362 . S
C399 H389 0.930 . S
C399 C392 1.409 . S
C399 C398 1.362 . S
H400 C406 0.930 . S
H401 C409 0.930 . S
H402 C410 0.930 . S
H403 C411 0.930 . S
H404 C414 0.930 . S
H405 C415 0.930 . S
C406 H400 0.930 . S
C406 C407 1.355 . S
C406 C408 1.415 . S
C407 C406 1.355 . S
C407 C409 1.419 . S
C408 C406 1.415 . S
C408 C413 1.425 . S
C408 C415 1.409 . S
C409 H401 0.930 . S
C409 C407 1.419 . S
C409 C410 1.362 . S
C410 H402 0.930 . S
C410 C409 1.362 . S
C410 C413 1.409 . S
C411 H403 0.930 . S
C411 C412 1.355 . S
C411 C413 1.415 . S
C412 C411 1.355 . S
C412 C414 1.419 . S
C413 C408 1.425 . S
C413 C410 1.409 . S
C413 C411 1.415 . S
C414 H404 0.930 . S
C414 C412 1.419 . S
C414 C415 1.362 . S
C415 H405 0.930 . S
C415 C408 1.409 . S
C415 C414 1.362 . S
H416 C422 0.930 . S
H417 C425 0.930 . S
H418 C426 0.930 . S
H419 C427 0.930 . S
H420 C430 0.930 . S
H421 C431 0.930 . S
C422 H416 0.930 . S
C422 C423 1.355 . S
C422 C424 1.415 . S
C423 C422 1.355 . S
C423 C425 1.419 . S
C424 C422 1.415 . S
C424 C429 1.425 . S
C424 C431 1.409 . S
C425 H417 0.930 . S
C425 C423 1.419 . S
C425 C426 1.362 . S
C426 H418 0.930 . S
C426 C425 1.362 . S
C426 C429 1.409 . S
C427 H419 0.930 . S
C427 C428 1.355 . S
C427 C429 1.415 . S
C428 C427 1.355 . S
C428 C430 1.419 . S
C429 C424 1.425 . S
C429 C426 1.409 . S
C429 C427 1.415 . S
C430 H420 0.930 . S
C430 C428 1.419 . S
C430 C431 1.362 . S
C431 H421 0.930 . S
C431 C424 1.409 . S
C431 C430 1.362 . S
H432 C438 0.930 . S
H433 C441 0.930 . S
H434 C442 0.930 . S
H435 C443 0.930 . S
H436 C446 0.930 . S
H437 C447 0.930 . S
C438 H432 0.930 . S
C438 C439 1.355 . S
C438 C440 1.415 . S
C439 C438 1.355 . S
C439 C441 1.419 . S
C440 C438 1.415 . S
C440 C445 1.425 . S
C440 C447 1.409 . S
C441 H433 0.930 . S
C441 C439 1.419 . S
C441 C442 1.362 . S
C442 H434 0.930 . S
C442 C441 1.362 . S
C442 C445 1.409 . S
C443 H435 0.930 . S
C443 C444 1.355 . S
C443 C445 1.415 . S
C444 C443 1.355 . S
C444 C446 1.419 . S
C445 C440 1.425 . S
C445 C442 1.409 . S
C445 C443 1.415 . S
C446 H436 0.930 . S
C446 C444 1.419 . S
C446 C447 1.362 . S
C447 H437 0.930 . S
C447 C440 1.409 . S
C447 C446 1.362 . S
H448 C454 0.930 . S
H449 C457 0.930 . S
H450 C458 0.930 . S
H451 C459 0.930 . S
H452 C462 0.930 . S
H453 C463 0.930 . S
C454 H448 0.930 . S
C454 C455 1.355 . S
C454 C456 1.415 . S
C455 C454 1.355 . S
C455 C457 1.419 . S
C456 C454 1.415 . S
C456 C461 1.425 . S
C456 C463 1.409 . S
C457 H449 0.930 . S
C457 C455 1.419 . S
C457 C458 1.362 . S
C458 H450 0.930 . S
C458 C457 1.362 . S
C458 C461 1.409 . S
C459 H451 0.930 . S
C459 C460 1.355 . S
C459 C461 1.415 . S
C460 C459 1.355 . S
C460 C462 1.419 . S
C461 C456 1.425 . S
C461 C458 1.409 . S
C461 C459 1.415 . S
C462 H452 0.930 . S
C462 C460 1.419 . S
C462 C463 1.362 . S
C463 H453 0.930 . S
C463 C456 1.409 . S
C463 C462 1.362 . S
H464 C470 0.930 . S
H465 C473 0.930 . S
H466 C474 0.930 . S
H467 C475 0.930 . S
H468 C478 0.930 . S
H469 C479 0.930 . S
C470 H464 0.930 . S
C470 C471 1.355 . S
C470 C472 1.415 . S
C471 C470 1.355 . S
C471 C473 1.419 . S
C472 C470 1.415 . S
C472 C477 1.425 . S
C472 C479 1.409 . S
C473 H465 0.930 . S
C473 C471 1.419 . S
C473 C474 1.362 . S
C474 H466 0.930 . S
C474 C473 1.362 . S
C474 C477 1.409 . S
C475 H467 0.930 . S
C475 C476 1.355 . S
C475 C477 1.415 . S
C476 C475 1.355 . S
C476 C478 1.419 . S
C477 C472 1.425 . S
C477 C474 1.409 . S
C477 C475 1.415 . S
C478 H468 0.930 . S
C478 C476 1.419 . S
C478 C479 1.362 . S
C479 H469 0.930 . S
C479 C472 1.409 . S
C479 C478 1.362 . S
H480 C486 0.930 . S
H481 C489 0.930 . S
H482 C490 0.930 . S
H483 C491 0.930 . S
H484 C494 0.930 . S
H485 C495 0.930 . S
C486 H480 0.930 . S
C486 C487 1.355 . S
C486 C488 1.415 . S
C487 C486 1.355 . S
C487 C489 1.419 . S
C488 C486 1.415 . S
C488 C493 1.425 . S
C488 C495 1.409 . S
C489 H481 0.930 . S
C489 C487 1.419 . S
C489 C490 1.362 . S
C490 H482 0.930 . S
C490 C489 1.362 . S
C490 C493 1.409 . S
C491 H483 0.930 . S
C491 C492 1.355 . S
C491 C493 1.415 . S
C492 C491 1.355 . S
C492 C494 1.419 . S
C493 C488 1.425 . S
C493 C490 1.409 . S
C493 C491 1.415 . S
C494 H484 0.930 . S
C494 C492 1.419 . S
C494 C495 1.362 . S
C495 H485 0.930 . S
C495 C488 1.409 . S
C495 C494 1.362 . S
H496 C502 0.930 . S
H497 C505 0.930 . S
H498 C506 0.930 . S
H499 C507 0.930 . S
H500 C510 0.930 . S
H501 C511 0.930 . S
C502 H496 0.930 . S
C502 C503 1.355 . S
C502 C504 1.415 . S
C503 C502 1.355 . S
C503 C505 1.419 . S
C504 C502 1.415 . S
C504 C509 1.425 . S
C504 C511 1.409 . S
C505 H497 0.930 . S
C505 C503 1.419 . S
C505 C506 1.362 . S
C506 H498 0.930 . S
C506 C505 1.362 . S
C506 C509 1.409 . S
C507 H499 0.930 . S
C507 C508 1.355 . S
C507 C509 1.415 . S
C508 C507 1.355 . S
C508 C510 1.419 . S
C509 C504 1.425 . S
C509 C506 1.409 . S
C509 C507 1.415 . S
C510 H500 0.930 . S
C510 C508 1.419 . S
C510 C511 1.362 . S
C511 H501 0.930 . S
C511 C504 1.409 . S
C511 C510 1.362 . S
H512 C518 0.930 . S
H513 C521 0.930 . S
H514 C522 0.930 . S
H515 C523 0.930 . S
H516 C526 0.930 . S
H517 C527 0.930 . S
C518 H512 0.930 . S
C518 C519 1.355 . S
C518 C520 1.415 . S
C519 C518 1.355 . S
C519 C521 1.419 . S
C520 C518 1.415 . S
C520 C525 1.425 . S
C520 C527 1.409 . S
C521 H513 0.930 . S
C521 C519 1.419 . S
C521 C522 1.362 . S
C522 H514 0.930 . S
C522 C521 1.362 . S
C522 C525 1.409 . S
C523 H515 0.930 . S
C523 C524 1.355 . S
C523 C525 1.415 . S
C524 C523 1.355 . S
C524 C526 1.419 . S
C525 C520 1.425 . S
C525 C522 1.409 . S
C525 C523 1.415 . S
C526 H516 0.930 . S
C526 C524 1.419 . S
C526 C527 1.362 . S
C527 H517 0.930 . S
C527 C520 1.409 . S
C527 C526 1.362 . S
H528 C534 0.930 . S
H529 C537 0.930 . S
H530 C538 0.930 . S
H531 C539 0.930 . S
H532 C542 0.930 . S
H533 C543 0.930 . S
C534 H528 0.930 . S
C534 C535 1.355 . S
C534 C536 1.415 . S
C535 C534 1.355 . S
C535 C537 1.419 . S
C536 C534 1.415 . S
C536 C541 1.425 . S
C536 C543 1.409 . S
C537 H529 0.930 . S
C537 C535 1.419 . S
C537 C538 1.362 . S
C538 H530 0.930 . S
C538 C537 1.362 . S
C538 C541 1.409 . S
C539 H531 0.930 . S
C539 C540 1.355 . S
C539 C541 1.415 . S
C540 C539 1.355 . S
C540 C542 1.419 . S
C541 C536 1.425 . S
C541 C538 1.409 . S
C541 C539 1.415 . S
C542 H532 0.930 . S
C542 C540 1.419 . S
C542 C543 1.362 . S
C543 H533 0.930 . S
C543 C536 1.409 . S
C543 C542 1.362 . S
H544 C550 0.930 . S
H545 C553 0.930 . S
H546 C554 0.930 . S
H547 C555 0.930 . S
H548 C558 0.930 . S
H549 C559 0.930 . S
C550 H544 0.930 . S
C550 C551 1.355 . S
C550 C552 1.415 . S
C551 C550 1.355 . S
C551 C553 1.419 . S
C552 C550 1.415 . S
C552 C557 1.425 . S
C552 C559 1.409 . S
C553 H545 0.930 . S
C553 C551 1.419 . S
C553 C554 1.362 . S
C554 H546 0.930 . S
C554 C553 1.362 . S
C554 C557 1.409 . S
C555 H547 0.930 . S
C555 C556 1.355 . S
C555 C557 1.415 . S
C556 C555 1.355 . S
C556 C558 1.419 . S
C557 C552 1.425 . S
C557 C554 1.409 . S
C557 C555 1.415 . S
C558 H548 0.930 . S
C558 C556 1.419 . S
C558 C559 1.362 . S
C559 H549 0.930 . S
C559 C552 1.409 . S
C559 C558 1.362 . S
H560 C566 0.930 . S
H561 C569 0.930 . S
H562 C570 0.930 . S
H563 C571 0.930 . S
H564 C574 0.930 . S
H565 C575 0.930 . S
C566 H560 0.930 . S
C566 C567 1.355 . S
C566 C568 1.415 . S
C567 C566 1.355 . S
C567 C569 1.419 . S
C568 C566 1.415 . S
C568 C573 1.425 . S
C568 C575 1.409 . S
C569 H561 0.930 . S
C569 C567 1.419 . S
C569 C570 1.362 . S
C570 H562 0.930 . S
C570 C569 1.362 . S
C570 C573 1.409 . S
C571 H563 0.930 . S
C571 C572 1.355 . S
C571 C573 1.415 . S
C572 C571 1.355 . S
C572 C574 1.419 . S
C573 C568 1.425 . S
C573 C570 1.409 . S
C573 C571 1.415 . S
C574 H564 0.930 . S
C574 C572 1.419 . S
C574 C575 1.362 . S
C575 H565 0.930 . S
C575 C568 1.409 . S
C575 C574 1.362 . S
H576 C582 0.930 . S
H577 C585 0.930 . S
H578 C586 0.930 . S
H579 C587 0.930 . S
H580 C590 0.930 . S
H581 C591 0.930 . S
C582 H576 0.930 . S
C582 C583 1.355 . S
C582 C584 1.415 . S
C583 C582 1.355 . S
C583 C585 1.419 . S
C584 C582 1.415 . S
C584 C589 1.425 . S
C584 C591 1.409 . S
C585 H577 0.930 . S
C585 C583 1.419 . S
C585 C586 1.362 . S
C586 H578 0.930 . S
C586 C585 1.362 . S
C586 C589 1.409 . S
C587 H579 0.930 . S
C587 C588 1.355 . S
C587 C589 1.415 . S
C588 C587 1.355 . S
C588 C590 1.419 . S
C589 C584 1.425 . S
C589 C586 1.409 . S
C589 C587 1.415 . S
C590 H580 0.930 . S
C590 C588 1.419 . S
C590 C591 1.362 . S
C591 H581 0.930 . S
C591 C584 1.409 . S
C591 C590 1.362 . S
H592 C598 0.930 . S
H593 C601 0.930 . S
H594 C602 0.930 . S
H595 C603 0.930 . S
H596 C606 0.930 . S
H597 C607 0.930 . S
C598 H592 0.930 . S
C598 C599 1.355 1_655 S
C598 C600 1.415 . S
C599 C598 1.355 1_455 S
C599 C601 1.419 . S
C600 C598 1.415 . S
C600 C605 1.425 1_655 S
C600 C607 1.409 . S
C601 H593 0.930 . S
C601 C599 1.419 . S
C601 C602 1.362 . S
C602 H594 0.930 . S
C602 C601 1.362 . S
C602 C605 1.409 . S
C603 H595 0.930 . S
C603 C604 1.355 1_455 S
C603 C605 1.415 . S
C604 C603 1.355 1_655 S
C604 C606 1.419 . S
C605 C600 1.425 1_455 S
C605 C602 1.409 . S
C605 C603 1.415 . S
C606 H596 0.930 . S
C606 C604 1.419 . S
C606 C607 1.362 . S
C607 H597 0.930 . S
C607 C600 1.409 . S
C607 C606 1.362 . S
H608 C614 0.930 . S
H609 C617 0.930 . S
H610 C618 0.930 . S
H611 C619 0.930 . S
H612 C622 0.930 . S
H613 C623 0.930 . S
C614 H608 0.930 . S
C614 C615 1.355 1_545 S
C614 C616 1.415 . S
C615 C614 1.355 1_565 S
C615 C617 1.419 . S
C616 C614 1.415 . S
C616 C621 1.425 1_545 S
C616 C623 1.409 . S
C617 H609 0.930 . S
C617 C615 1.419 . S
C617 C618 1.362 . S
C618 H610 0.930 . S
C618 C617 1.362 . S
C618 C621 1.409 . S
C619 H611 0.930 . S
C619 C620 1.355 1_565 S
C619 C621 1.415 . S
C620 C619 1.355 1_545 S
C620 C622 1.419 . S
C621 C616 1.425 1_565 S
C621 C618 1.409 . S
C621 C619 1.415 . S
C622 H612 0.930 . S
C622 C620 1.419 . S
C622 C623 1.362 . S
C623 H613 0.930 . S
C623 C616 1.409 . S
C623 C622 1.362 . S
H624 C630 0.930 . S
H625 C633 0.930 . S
H626 C634 0.930 . S
H627 C635 0.930 . S
H628 C638 0.930 . S
H629 C639 0.930 . S
C630 H624 0.930 . S
C630 C631 1.355 . S
C630 C632 1.415 . S
C631 C630 1.355 . S
C631 C633 1.419 1_455 S
C632 C630 1.415 . S
C632 C637 1.425 1_455 S
C632 C639 1.409 . S
C633 H625 0.930 . S
C633 C631 1.419 1_655 S
C633 C634 1.362 . S
C634 H626 0.930 . S
C634 C633 1.362 . S
C634 C637 1.409 . S
C635 H627 0.930 . S
C635 C636 1.355 . S
C635 C637 1.415 . S
C636 C635 1.355 . S
C636 C638 1.419 1_655 S
C637 C632 1.425 1_655 S
C637 C634 1.409 . S
C637 C635 1.415 . S
C638 H628 0.930 . S
C638 C636 1.419 1_455 S
C638 C639 1.362 . S
C639 H629 0.930 . S
C639 C632 1.409 . S
C639 C638 1.362 . S
H640 C646 0.930 . S
H641 C649 0.930 . S
H642 C650 0.930 . S
H643 C651 0.930 . S
H644 C654 0.930 . S
H645 C655 0.930 . S
C646 H640 0.930 . S
C646 C647 1.355 . S
C646 C648 1.415 . S
C647 C646 1.355 . S
C647 C649 1.419 1_545 S
C648 C646 1.415 . S
C648 C653 1.425 1_545 S
C648 C655 1.409 . S
C649 H641 0.930 . S
C649 C647 1.419 1_565 S
C649 C650 1.362 . S
C650 H642 0.930 . S
C650 C649 1.362 . S
C650 C653 1.409 . S
C651 H643 0.930 . S
C651 C652 1.355 . S
C651 C653 1.415 . S
C652 C651 1.355 . S
C652 C654 1.419 1_565 S
C653 C648 1.425 1_565 S
C653 C650 1.409 . S
C653 C651 1.415 . S
C654 H644 0.930 . S
C654 C652 1.419 1_545 S
C654 C655 1.362 . S
C655 H645 0.930 . S
C655 C648 1.409 . S
C655 C654 1.362 . S
H656 C662 0.930 . S
H657 C665 0.930 . S
H658 C666 0.930 . S
H659 C667 0.930 . S
H660 C670 0.930 . S
H661 C671 0.930 . S
C662 H656 0.930 . S
C662 C663 1.355 . S
C662 C664 1.415 . S
C663 C662 1.355 . S
C663 C665 1.419 . S
C664 C662 1.415 . S
C664 C669 1.425 1_556 S
C664 C671 1.409 1_556 S
C665 H657 0.930 . S
C665 C663 1.419 . S
C665 C666 1.362 . S
C666 H658 0.930 . S
C666 C665 1.362 . S
C666 C669 1.409 1_556 S
C667 H659 0.930 . S
C667 C668 1.355 . S
C667 C669 1.415 . S
C668 C667 1.355 . S
C668 C670 1.419 . S
C669 C664 1.425 1_554 S
C669 C666 1.409 1_554 S
C669 C667 1.415 . S
C670 H660 0.930 . S
C670 C668 1.419 . S
C670 C671 1.362 . S
C671 H661 0.930 . S
C671 C664 1.409 1_554 S
C671 C670 1.362 . S
H672 C678 0.930 . S
H673 C681 0.930 . S
H674 C682 0.930 . S
H675 C683 0.930 . S
H676 C686 0.930 . S
H677 C687 0.930 . S
C678 H672 0.930 . S
C678 C679 1.355 . S
C678 C680 1.415 . S
C679 C678 1.355 . S
C679 C681 1.419 . S
C680 C678 1.415 . S
C680 C685 1.425 1_556 S
C680 C687 1.409 1_556 S
C681 H673 0.930 . S
C681 C679 1.419 . S
C681 C682 1.362 . S
C682 H674 0.930 . S
C682 C681 1.362 . S
C682 C685 1.409 1_556 S
C683 H675 0.930 . S
C683 C684 1.355 . S
C683 C685 1.415 . S
C684 C683 1.355 . S
C684 C686 1.419 . S
C685 C680 1.425 1_554 S
C685 C682 1.409 1_554 S
C685 C683 1.415 . S
C686 H676 0.930 . S
C686 C684 1.419 . S
C686 C687 1.362 . S
C687 H677 0.930 . S
C687 C680 1.409 1_554 S
C687 C686 1.362 . S
H688 C694 0.930 . S
H689 C697 0.930 . S
H690 C698 0.930 . S
H691 C699 0.930 . S
H692 C702 0.930 . S
H693 C703 0.930 . S
C694 H688 0.930 . S
C694 C695 1.355 . S
C694 C696 1.415 . S
C695 C694 1.355 . S
C695 C697 1.419 . S
C696 C694 1.415 . S
C696 C701 1.425 1_554 S
C696 C703 1.409 1_554 S
C697 H689 0.930 . S
C697 C695 1.419 . S
C697 C698 1.362 . S
C698 H690 0.930 . S
C698 C697 1.362 . S
C698 C701 1.409 1_554 S
C699 H691 0.930 . S
C699 C700 1.355 . S
C699 C701 1.415 . S
C700 C699 1.355 . S
C700 C702 1.419 . S
C701 C696 1.425 1_556 S
C701 C698 1.409 1_556 S
C701 C699 1.415 . S
C702 H692 0.930 . S
C702 C700 1.419 . S
C702 C703 1.362 . S
C703 H693 0.930 . S
C703 C696 1.409 1_556 S
C703 C702 1.362 . S
H704 C710 0.930 . S
H705 C713 0.930 . S
H706 C714 0.930 . S
H707 C715 0.930 . S
H708 C718 0.930 . S
H709 C719 0.930 . S
C710 H704 0.930 . S
C710 C711 1.355 . S
C710 C712 1.415 . S
C711 C710 1.355 . S
C711 C713 1.419 . S
C712 C710 1.415 . S
C712 C717 1.425 1_556 S
C712 C719 1.409 1_556 S
C713 H705 0.930 . S
C713 C711 1.419 . S
C713 C714 1.362 . S
C714 H706 0.930 . S
C714 C713 1.362 . S
C714 C717 1.409 1_556 S
C715 H707 0.930 . S
C715 C716 1.355 . S
C715 C717 1.415 . S
C716 C715 1.355 . S
C716 C718 1.419 . S
C717 C712 1.425 1_554 S
C717 C714 1.409 1_554 S
C717 C715 1.415 . S
C718 H708 0.930 . S
C718 C716 1.419 . S
C718 C719 1.362 . S
C719 H709 0.930 . S
C719 C712 1.409 1_554 S
C719 C718 1.362 . S
C215 C10 1.566 . S
C220 C42 1.611 . S
C231 C5 1.613 . S
C236 C23 1.586 . S
C247 C18 1.593 . S
C252 C30 1.580 . S
C263 C29 1.582 . S
C268 C43 1.596 . S
C279 C62 1.593 . S
C284 C70 1.609 . S
C295 C75 1.586 . S
C300 C81 1.588 . S
C311 C82 1.593 . S
C316 C96 1.609 . S
C327 C101 1.586 . S
C332 C57 1.588 . S
C343 C108 1.592 . S
C348 C146 1.610 . S
C359 C107 1.583 . S
C364 C127 1.594 . S
C375 C122 1.617 . S
C380 C134 1.578 . S
C391 C147 1.605 . S
C396 C133 1.579 . S
C407 C174 1.618 . S
C412 C166 1.572 . S
C423 C187 1.593 . S
C428 C179 1.580 . S
C439 C192 1.566 . S
C444 C200 1.614 . S
C455 C205 1.571 . S
C460 C161 1.603 . S
C471 C4 1.199 . S
C476 C199 1.218 . S
C487 C17 1.165 . S
C492 C160 1.186 . S
C503 C173 1.196 . S
C508 C36 1.170 . S
C519 C49 1.163 . S
C524 C186 1.177 . S
C535 C121 1.191 . S
C540 C56 1.215 . S
C551 C140 1.164 . S
C556 C69 1.173 . S
C567 C88 1.168 . S
C572 C153 1.167 . S
C583 C95 1.180 . S
C588 C114 1.163 . S
C599 C3 1.684 . S
C604 C83 1.650 . S
C615 C94 1.671 . S
C620 C16 1.648 . S
C631 C55 1.689 . S
C636 C31 1.679 . S
C647 C68 1.652 . S
C652 C44 1.687 . S
C663 C109 1.650 . S
C668 C185 1.664 . S
C679 C120 1.653 . S
C684 C198 1.688 . S
C695 C159 1.649 . S
C700 C135 1.666 . S
C711 C148 1.678 . S
C716 C172 1.648 . S
