# Generated by pormake.
# Topology ukh, (4)-cn, num edge types: 1
# Building blocks:
#     Node 0, Type 0, BuildingBlock: NAHDIM_clean_sbu_0, # of connection points: 4
#     Node 1, Type 0, BuildingBlock: NAHDIM_clean_sbu_0, # of connection points: 4
#     Node 2, Type 0, BuildingBlock: NAHDIM_clean_sbu_0, # of connection points: 4
#     Node 3, Type 0, BuildingBlock: NAHDIM_clean_sbu_0, # of connection points: 4
#     Node 4, Type 0, BuildingBlock: NAHDIM_clean_sbu_0, # of connection points: 4
#     Node 5, Type 0, BuildingBlock: NAHDIM_clean_sbu_0, # of connection points: 4
#     Node 6, Type 0, BuildingBlock: NAHDIM_clean_sbu_0, # of connection points: 4
#     Node 7, Type 0, BuildingBlock: NAHDIM_clean_sbu_0, # of connection points: 4
#     Node 8, Type 0, BuildingBlock: NAHDIM_clean_sbu_0, # of connection points: 4
#     Node 9, Type 0, BuildingBlock: NAHDIM_clean_sbu_0, # of connection points: 4
#     Node 10, Type 0, BuildingBlock: NAHDIM_clean_sbu_0, # of connection points: 4
#     Node 11, Type 0, BuildingBlock: NAHDIM_clean_sbu_0, # of connection points: 4
#     Edge 12, Type (0, 0), BuildingBlock: EZIPEK_clean_linker_0, # of connection points: 2
#     Edge 13, Type (0, 0), BuildingBlock: EZIPEK_clean_linker_0, # of connection points: 2
#     Edge 14, Type (0, 0), BuildingBlock: EZIPEK_clean_linker_0, # of connection points: 2
#     Edge 15, Type (0, 0), BuildingBlock: EZIPEK_clean_linker_0, # of connection points: 2
#     Edge 16, Type (0, 0), BuildingBlock: EZIPEK_clean_linker_0, # of connection points: 2
#     Edge 17, Type (0, 0), BuildingBlock: EZIPEK_clean_linker_0, # of connection points: 2
#     Edge 18, Type (0, 0), BuildingBlock: EZIPEK_clean_linker_0, # of connection points: 2
#     Edge 19, Type (0, 0), BuildingBlock: EZIPEK_clean_linker_0, # of connection points: 2
#     Edge 20, Type (0, 0), BuildingBlock: EZIPEK_clean_linker_0, # of connection points: 2
#     Edge 21, Type (0, 0), BuildingBlock: EZIPEK_clean_linker_0, # of connection points: 2
#     Edge 22, Type (0, 0), BuildingBlock: EZIPEK_clean_linker_0, # of connection points: 2
#     Edge 23, Type (0, 0), BuildingBlock: EZIPEK_clean_linker_0, # of connection points: 2
#     Edge 24, Type (0, 0), BuildingBlock: EZIPEK_clean_linker_0, # of connection points: 2
#     Edge 25, Type (0, 0), BuildingBlock: EZIPEK_clean_linker_0, # of connection points: 2
#     Edge 26, Type (0, 0), BuildingBlock: EZIPEK_clean_linker_0, # of connection points: 2
#     Edge 27, Type (0, 0), BuildingBlock: EZIPEK_clean_linker_0, # of connection points: 2
#     Edge 28, Type (0, 0), BuildingBlock: EZIPEK_clean_linker_0, # of connection points: 2
#     Edge 29, Type (0, 0), BuildingBlock: EZIPEK_clean_linker_0, # of connection points: 2
#     Edge 30, Type (0, 0), BuildingBlock: EZIPEK_clean_linker_0, # of connection points: 2
#     Edge 31, Type (0, 0), BuildingBlock: EZIPEK_clean_linker_0, # of connection points: 2
#     Edge 32, Type (0, 0), BuildingBlock: EZIPEK_clean_linker_0, # of connection points: 2
#     Edge 33, Type (0, 0), BuildingBlock: EZIPEK_clean_linker_0, # of connection points: 2
#     Edge 34, Type (0, 0), BuildingBlock: EZIPEK_clean_linker_0, # of connection points: 2
#     Edge 35, Type (0, 0), BuildingBlock: EZIPEK_clean_linker_0, # of connection points: 2
# Relax obj value: 0.182
# Max RMSD: 0.213
# Mean RMSD: 0.213
data_MOF--net-ukh--node1-NAHDIM_clean_sbu_0--edge1-EZIPEK_clean_linker_0
_symmetry_space_group_name_H-M    P1
_symmetry_Int_Tables_number       1
_symmetry_cell_setting            triclinic
loop_
_symmetry_equiv_pos_as_xyz
'x, y, z'
_cell_length_a     23.779875
_cell_length_b     23.738385
_cell_length_c     43.445895
_cell_angle_alpha  89.974118
_cell_angle_beta   90.106138
_cell_angle_gamma 119.91094
loop_
_atom_site_label
_atom_site_type_symbol
_atom_site_fract_x
_atom_site_fract_y
_atom_site_fract_z
_atom_type_partial_charge
C0 C 0.41411 0.38363 0.01729 0.0
O1 O 0.36138 0.36775 0.03319 0.0
O2 O 0.26685 0.24244 0.99616 0.0
Zn3 Zn 0.34775 0.25029 0.0156 0.0
O4 O 0.34026 0.24367 0.0618 0.0
C5 C 0.30926 0.12173 0.00951 0.0
O6 O 0.26183 0.12325 0.02415 0.0
O7 O 0.42224 0.33902 0.00569 0.0
C8 C 0.38054 0.23217 0.07569 0.0
O9 O 0.42486 0.22757 0.05963 0.0
C10 C 0.21583 0.22889 0.01116 0.0
O11 O 0.21363 0.21904 0.04098 0.0
O12 O 0.35825 0.175 0.00129 0.0
C13 C 0.05085 0.4096 0.34675 0.0
O14 O 0.05336 0.37623 0.32322 0.0
O15 O 0.00727 0.24346 0.3686 0.0
Zn16 Zn 0.08552 0.32807 0.38259 0.0
O17 O 0.10505 0.3319 0.42837 0.0
C18 C 0.16986 0.29169 0.35539 0.0
O19 O 0.12483 0.23588 0.36632 0.0
O20 O 0.0642 0.39853 0.37362 0.0
C21 C 0.13153 0.30311 0.44156 0.0
O22 O 0.14507 0.26424 0.42592 0.0
C23 C 0.98535 0.18818 0.38127 0.0
O24 O 0.01233 0.18263 0.40661 0.0
O25 O 0.16483 0.34211 0.35887 0.0
C26 C 0.62843 0.00976 0.69953 0.0
O27 O 0.64075 0.96399 0.70821 0.0
O28 O 0.77017 0.01351 0.66728 0.0
Zn29 Zn 0.76395 0.07612 0.6965 0.0
O30 O 0.77776 0.05905 0.74054 0.0
C31 C 0.89046 0.17259 0.69091 0.0
O32 O 0.89438 0.12278 0.70133 0.0
O33 O 0.67513 0.06565 0.69264 0.0
C34 C 0.77624 0.09791 0.76013 0.0
O35 O 0.76386 0.14332 0.75093 0.0
C36 C 0.79236 0.97679 0.67515 0.0
O37 O 0.81213 0.97833 0.70354 0.0
O38 O 0.83501 0.16632 0.68591 0.0
C39 C 0.58285 0.65987 0.02116 0.0
O40 O 0.6193 0.6965 -0.00146 0.0
O41 O 0.73892 0.78221 0.03496 0.0
Zn42 Zn 0.66028 0.77519 0.05551 0.0
O43 O 0.67541 0.79122 0.10097 0.0
C44 C 0.68968 0.89978 0.04015 0.0
O45 O 0.74305 0.90879 0.0536 0.0
O46 O 0.58912 0.6839 0.04792 0.0
C47 C 0.64037 0.80826 0.1158 0.0
O48 O 0.59416 0.81289 0.10147 0.0
C49 C 0.79163 0.79718 0.04871 0.0
O50 O 0.79835 0.81166 0.07814 0.0
O51 O 0.64188 0.84245 0.03776 0.0
C52 C 0.96827 0.59997 0.34545 0.0
O53 O 0.01135 0.65444 0.3586 0.0
O54 O 0.96587 0.74729 0.32099 0.0
Zn55 Zn 0.90303 0.67058 0.34656 0.0
O56 O 0.92113 0.68929 0.39188 0.0
C57 C 0.80325 0.6995 0.34805 0.0
O58 O 0.85285 0.75259 0.35899 0.0
O59 O 0.91446 0.59388 0.33666 0.0
C60 C 0.87797 0.64761 0.40956 0.0
O61 O 0.82838 0.5959 0.39751 0.0
C62 C 0.00129 0.80332 0.33261 0.0
O63 O 0.99668 0.81279 0.36206 0.0
O64 O 0.8115 0.6529 0.33953 0.0
C65 C 0.35902 0.94135 0.69929 0.0
O66 O 0.32994 0.94773 0.67491 0.0
O67 O 0.24194 0.98998 0.70928 0.0
Zn68 Zn 0.23959 0.91153 0.72843 0.0
O69 O 0.21539 0.90178 0.77322 0.0
C70 C 0.12576 0.83402 0.69463 0.0
O71 O 0.12472 0.88863 0.6964 0.0
O72 O 0.32905 0.92399 0.72476 0.0
C73 C 0.15729 0.87914 0.78236 0.0
O74 O 0.11077 0.86494 0.7623 0.0
C75 C 0.22451 0.02685 0.72211 0.0
O76 O 0.2054 0.01717 0.75091 0.0
O77 O 0.17317 0.83065 0.7061 0.0
C78 C 0.669 0.5911 0.62734 0.0
O79 O 0.69938 0.63718 0.64784 0.0
O80 O 0.79671 0.74176 0.61103 0.0
Zn81 Zn 0.79091 0.65876 0.59646 0.0
O82 O 0.81117 0.66381 0.55117 0.0
C83 C 0.87729 0.67738 0.64556 0.0
O84 O 0.84331 0.69988 0.65919 0.0
O85 O 0.69922 0.58817 0.60385 0.0
C86 C 0.85709 0.65594 0.54126 0.0
O87 O 0.89315 0.64533 0.56067 0.0
C88 C 0.80343 0.78963 0.59524 0.0
O89 O 0.80817 0.78946 0.56515 0.0
O90 O 0.85811 0.64836 0.61991 0.0
C91 C 0.01285 0.60839 0.96459 0.0
O92 O 0.97028 0.62408 0.95471 0.0
O93 O 0.01704 0.75151 0.98939 0.0
Zn94 Zn 0.08622 0.74372 0.96609 0.0
O95 O 0.08328 0.75996 0.92096 0.0
C96 C 0.17937 0.86098 0.99459 0.0
O97 O 0.12581 0.85984 0.00289 0.0
O98 O 0.06997 0.65283 0.97137 0.0
C99 C 0.10305 0.81743 0.91139 0.0
O100 O 0.11912 0.86468 0.93128 0.0
C101 C 0.97461 0.7614 0.97669 0.0
O102 O 0.97252 0.76492 0.9466 0.0
O103 O 0.17576 0.81269 0.98023 0.0
C104 C 0.40976 0.07201 0.30085 0.0
O105 O 0.36266 0.05995 0.32015 0.0
O106 O 0.25858 0.03647 0.2752 0.0
Zn107 Zn 0.3415 0.11611 0.26291 0.0
O108 O 0.34392 0.12934 0.2172 0.0
C109 C 0.31129 0.18623 0.3069 0.0
O110 O 0.28288 0.12975 0.3209 0.0
O111 O 0.41306 0.0996 0.27532 0.0
C112 C 0.37312 0.1871 0.20683 0.0
O113 O 0.4016 0.23625 0.226 0.0
C114 C 0.20191 0.02168 0.26644 0.0
O115 O 0.19379 0.05822 0.24626 0.0
O116 O 0.34508 0.19403 0.28307 0.0
C117 C 0.39267 0.42028 0.62595 0.0
O118 O 0.37592 0.36151 0.6164 0.0
O119 O 0.25954 0.28206 0.65067 0.0
Zn120 Zn 0.25974 0.35651 0.62832 0.0
O121 O 0.24199 0.33533 0.58312 0.0
C122 C 0.15523 0.33448 0.66823 0.0
O123 O 0.18197 0.31015 0.68634 0.0
O124 O 0.34889 0.43375 0.63313 0.0
C125 C 0.21234 0.35913 0.56847 0.0
O126 O 0.19684 0.39833 0.58263 0.0
C127 C 0.21888 0.22277 0.64539 0.0
O128 O 0.17536 0.20725 0.62356 0.0
O129 O 0.1861 0.36722 0.64479 0.0
C130 C 0.92683 0.33437 0.96804 0.0
O131 O 0.94603 0.30955 0.9899 0.0
O132 O 0.94355 0.19695 0.96123 0.0
Zn133 Zn 0.87105 0.20569 0.94241 0.0
O134 O 0.86078 0.18128 0.89781 0.0
C135 C 0.77647 0.14204 0.99162 0.0
O136 O 0.82147 0.18722 0.00911 0.0
O137 O 0.89217 0.29864 0.94602 0.0
C138 C 0.82688 0.12213 0.88978 0.0
O139 O 0.80153 0.07634 0.91078 0.0
C140 C -0.00178 0.22154 0.94792 0.0
O141 O 0.00643 0.25059 0.92122 0.0
O142 O 0.78784 0.14324 0.96305 0.0
C143 C 0.57883 0.96446 0.30732 0.0
O144 O 0.63797 0.00604 0.29826 0.0
O145 O 0.71679 0.95909 0.32492 0.0
Zn146 Zn 0.63658 0.88872 0.30436 0.0
O147 O 0.64781 0.89144 0.25851 0.0
C148 C 0.6277 0.78438 0.34391 0.0
O149 O 0.64063 0.82617 0.36636 0.0
O150 O 0.56369 0.90597 0.31288 0.0
C151 C 0.67329 0.86104 0.24615 0.0
O152 O 0.69629 0.83186 0.26348 0.0
C153 C 0.77022 0.95954 0.32709 0.0
O154 O 0.77592 0.91143 0.31567 0.0
O155 O 0.62013 0.8006 0.3171 0.0
C156 C 0.56488 0.54812 0.02969 0.0
C157 C 0.54314 0.58891 0.01685 0.0
C158 C 0.44576 0.49368 0.99699 0.0
C159 C 0.4629 0.45306 0.01367 0.0
N160 N 0.53656 0.44027 0.0473 0.0
N161 N 0.46259 0.60231 0.98928 0.0
C162 C 0.5223 0.4798 0.03011 0.0
C163 C 0.48375 0.56224 0.00046 0.0
N164 N 0.6268 0.57472 0.04085 0.0
N165 N 0.39387 0.46639 0.97735 0.0
H166 H 0.48987 0.65284 0.99092 0.0
H167 H 0.41643 0.58564 0.98017 0.0
H168 H 0.36624 0.41631 0.97387 0.0
H169 H 0.38187 0.4931 0.96243 0.0
H170 H 0.64785 0.54731 0.04758 0.0
H171 H 0.65941 0.62463 0.04087 0.0
H172 H 0.57486 0.45751 0.06292 0.0
H173 H 0.50766 0.38982 0.04734 0.0
C174 C 0.96414 0.43826 0.35501 0.0
C175 C 0.02579 0.45502 0.34274 0.0
C176 C 0.04002 0.55945 0.32521 0.0
C177 C 0.98321 0.54675 0.34153 0.0
N178 N 0.89287 0.4758 0.37399 0.0
N179 N 0.1249 0.53242 0.31768 0.0
C180 C 0.94515 0.48627 0.35666 0.0
C181 C 0.06422 0.51564 0.32796 0.0
N182 N 0.92317 0.37592 0.36445 0.0
N183 N 0.06976 0.61263 0.30644 0.0
H184 H 0.14374 0.5011 0.31882 0.0
H185 H 0.1583 0.57882 0.30998 0.0
H186 H 0.0522 0.6447 0.30335 0.0
H187 H 0.10775 0.62153 0.29168 0.0
H188 H 0.87499 0.35879 0.37054 0.0
H189 H 0.93544 0.33944 0.36349 0.0
H190 H 0.86856 0.43634 0.38876 0.0
H191 H 0.87616 0.50877 0.37536 0.0
C192 C 0.47404 0.01565 0.71516 0.0
C193 C 0.42848 0.96089 0.69798 0.0
C194 C 0.51626 0.94592 0.67782 0.0
C195 C 0.5605 0.99563 0.69784 0.0
N196 N 0.58051 0.07245 0.73866 0.0
N197 N 0.40397 0.86885 0.66568 0.0
C198 C 0.53927 0.02938 0.71725 0.0
C199 C 0.44897 0.92474 0.67991 0.0
N200 N 0.45546 0.05585 0.72864 0.0
N201 N 0.53892 0.92055 0.65609 0.0
H202 H 0.35424 0.85199 0.66657 0.0
H203 H 0.41533 0.83646 0.65508 0.0
H204 H 0.58808 0.9359 0.65347 0.0
H205 H 0.50999 0.88892 0.63881 0.0
H206 H 0.48801 0.10038 0.73854 0.0
H207 H 0.40817 0.0477 0.72749 0.0
H208 H 0.56551 0.09246 0.75591 0.0
H209 H 0.62884 0.08439 0.74086 0.0
C210 C 0.56904 0.49726 0.6495 0.0
C211 C 0.59779 0.55023 0.62874 0.0
C212 C 0.49111 0.52091 0.60743 0.0
C213 C 0.46216 0.46892 0.62875 0.0
N214 N 0.47045 0.41423 0.67379 0.0
N215 N 0.5869 0.62131 0.59253 0.0
C216 C 0.50029 0.4591 0.65095 0.0
C217 C 0.55897 0.56476 0.60907 0.0
N218 N 0.60757 0.48221 0.66703 0.0
N219 N 0.45431 0.52653 0.58471 0.0
H220 H 0.63661 0.65437 0.59294 0.0
H221 H 0.56045 0.6382 0.58041 0.0
H222 H 0.40422 0.49598 0.58303 0.0
H223 H 0.47382 0.55851 0.56625 0.0
H224 H 0.58998 0.44001 0.68009 0.0
H225 H 0.6581 0.51001 0.66695 0.0
H226 H 0.49493 0.40891 0.69245 0.0
H227 H 0.4201 0.38576 0.67557 0.0
C228 C 0.99255 0.44396 0.94378 0.0
C229 C 0.95022 0.40491 0.96763 0.0
C230 C 0.95704 0.5015 0.99175 0.0
C231 C 0.99446 0.53929 0.96646 0.0
N232 N 0.04195 0.54683 0.91659 0.0
N233 N 0.88535 0.39384 0.01225 0.0
C234 C 0.01081 0.51068 0.942 0.0
C235 C 0.93086 0.43299 0.9912 0.0
N236 N 0.01716 0.4178 0.92347 0.0
N237 N 0.94761 0.53142 0.01649 0.0
H238 H 0.86496 0.34344 0.0125 0.0
H239 H 0.86389 0.41041 0.02797 0.0
H240 H 0.96553 0.58146 0.01742 0.0
H241 H 0.92661 0.50779 0.03704 0.0
H242 H 0.05406 0.44535 0.90792 0.0
H243 H 0.00451 0.36899 0.92369 0.0
H244 H 0.04819 0.52703 0.89639 0.0
H245 H 0.05773 0.59635 0.91481 0.0
C246 C 0.50254 0.06744 0.3258 0.0
C247 C 0.449 0.04033 0.30533 0.0
C248 C 0.47739 0.95971 0.28775 0.0
C249 C 0.53012 0.98566 0.30879 0.0
N250 N 0.58559 0.05462 0.35214 0.0
N251 N 0.3757 0.95194 0.27251 0.0
C252 C 0.54047 0.03671 0.32917 0.0
C253 C 0.43333 0.98361 0.28811 0.0
N254 N 0.51829 0.12367 0.34117 0.0
N255 N 0.47149 0.91508 0.26619 0.0
H256 H 0.34216 0.96811 0.27215 0.0
H257 H 0.3584 0.90655 0.2623 0.0
H258 H 0.50278 0.8963 0.26491 0.0
H259 H 0.4387 0.90043 0.24795 0.0
H260 H 0.56093 0.15005 0.35374 0.0
H261 H 0.49045 0.14639 0.33976 0.0
H262 H 0.59143 0.08721 0.36956 0.0
H263 H 0.61357 0.03242 0.3554 0.0
C264 C 0.31569 0.17284 0.15651 0.0
C265 C 0.37452 0.19927 0.1734 0.0
C266 C 0.43503 0.25628 0.12728 0.0
C267 C 0.37743 0.22268 0.10951 0.0
N268 N 0.26463 0.13819 0.10676 0.0
N269 N 0.49171 0.25593 0.17345 0.0
C270 C 0.31805 0.17805 0.12396 0.0
C271 C 0.43471 0.23826 0.15842 0.0
N272 N 0.2575 0.14495 0.17154 0.0
N273 N 0.48946 0.30714 0.11486 0.0
H274 H 0.49374 0.24198 0.196 0.0
H275 H 0.53664 0.27868 0.16249 0.0
H276 H 0.49101 0.32376 0.09251 0.0
H277 H 0.53066 0.33725 0.12779 0.0
H278 H 0.2136 0.13095 0.16041 0.0
H279 H 0.25362 0.14211 0.19546 0.0
H280 H 0.22254 0.10013 0.11621 0.0
H281 H 0.26432 0.1385 0.08282 0.0
C282 C 0.12147 0.26829 0.49651 0.0
C283 C 0.15242 0.31748 0.47399 0.0
C284 C 0.22407 0.39363 0.51332 0.0
C285 C 0.19511 0.34344 0.53563 0.0
N286 N 0.1239 0.23027 0.54794 0.0
N287 N 0.24017 0.42279 0.45922 0.0
C288 C 0.14632 0.27981 0.52703 0.0
C289 C 0.20557 0.37917 0.48191 0.0
N290 N 0.06655 0.21155 0.48897 0.0
N291 N 0.26932 0.45517 0.52218 0.0
H292 H 0.22815 0.414 0.43594 0.0
H293 H 0.28375 0.46559 0.46304 0.0
H294 H 0.28827 0.46663 0.54443 0.0
H295 H 0.28598 0.49562 0.50793 0.0
H296 H 0.03724 0.17667 0.50503 0.0
H297 H 0.04692 0.20149 0.46684 0.0
H298 H 0.09392 0.18159 0.5422 0.0
H299 H 0.13917 0.23688 0.57075 0.0
C300 C 0.8516 0.11505 0.80416 0.0
C301 C 0.78765 0.09261 0.79315 0.0
C302 C 0.74801 0.08364 0.84587 0.0
C303 C 0.81194 0.10596 0.85691 0.0
N304 N 0.92124 0.12896 0.84783 0.0
N305 N 0.67293 0.03991 0.80292 0.0
C306 C 0.86276 0.11728 0.83639 0.0
C307 C 0.73513 0.07185 0.81389 0.0
N308 N 0.902 0.13689 0.78387 0.0
N309 N 0.70045 0.07714 0.86566 0.0
H310 H 0.6622 0.02966 0.77959 0.0
H311 H 0.63216 0.01805 0.81701 0.0
H312 H 0.70772 0.08521 0.88929 0.0
H313 H 0.65504 0.06845 0.85844 0.0
H314 H 0.9506 0.16157 0.79043 0.0
H315 H 0.89531 0.13355 0.76012 0.0
H316 H 0.95832 0.13129 0.83422 0.0
H317 H 0.93076 0.13075 0.87138 0.0
C318 C 0.70938 0.87304 0.1605 0.0
C319 C 0.65001 0.82094 0.14924 0.0
C320 C 0.605 0.7982 0.20138 0.0
C321 C 0.66559 0.84775 0.21282 0.0
N322 N 0.77833 0.92609 0.20473 0.0
N323 N 0.54604 0.72609 0.15908 0.0
C324 C 0.71877 0.88321 0.1928 0.0
C325 C 0.59895 0.78146 0.1697 0.0
N326 N 0.75557 0.91452 0.14031 0.0
N327 N 0.5531 0.76736 0.2208 0.0
H328 H 0.5404 0.71144 0.13612 0.0
H329 H 0.51047 0.69145 0.17335 0.0
H330 H 0.55626 0.77554 0.24449 0.0
H331 H 0.50584 0.73671 0.21324 0.0
H332 H 0.79657 0.9576 0.14691 0.0
H333 H 0.75068 0.90864 0.11651 0.0
H334 H 0.82071 0.94807 0.19174 0.0
H335 H 0.78629 0.93639 0.2282 0.0
C336 C 0.86373 0.60094 0.49334 0.0
C337 C 0.86869 0.65677 0.50783 0.0
C338 C 0.88538 0.71036 0.45778 0.0
C339 C 0.88293 0.65535 0.44345 0.0
N340 N 0.88931 0.5576 0.44851 0.0
N341 N 0.90007 0.77016 0.50515 0.0
C342 C 0.87813 0.60347 0.46156 0.0
C343 C 0.88432 0.71325 0.49043 0.0
N344 N 0.84216 0.5444 0.50949 0.0
N345 N 0.88567 0.75845 0.44037 0.0
H346 H 0.90091 0.7743 0.52908 0.0
H347 H 0.91836 0.81456 0.49384 0.0
H348 H 0.88787 0.75933 0.41646 0.0
H349 H 0.87893 0.79518 0.44956 0.0
H350 H 0.83091 0.5004 0.49915 0.0
H351 H 0.82963 0.5398 0.53271 0.0
H352 H 0.8924 0.52195 0.46116 0.0
H353 H 0.90288 0.55984 0.42554 0.0
C354 C 0.15514 0.81353 0.86206 0.0
C355 C 0.11536 0.83239 0.87823 0.0
C356 C 0.10742 0.88722 0.83198 0.0
C357 C 0.14134 0.86226 0.81516 0.0
N358 N 0.18233 0.78744 0.8126 0.0
N359 N 0.04385 0.87719 0.87731 0.0
C360 C 0.16082 0.82125 0.82972 0.0
C361 C 0.08868 0.8665 0.86285 0.0
N362 N 0.19022 0.79124 0.87762 0.0
N363 N 0.09532 0.93254 0.81896 0.0
H364 H 0.02813 0.86187 0.89975 0.0
H365 H 0.01783 0.8958 0.86614 0.0
H366 H 0.10894 0.94958 0.79655 0.0
H367 H 0.077 0.95751 0.83126 0.0
H368 H 0.22492 0.78327 0.86702 0.0
H369 H 0.19017 0.78752 0.90153 0.0
H370 H 0.19089 0.75196 0.82195 0.0
H371 H 0.18472 0.7894 0.78862 0.0
C372 C 0.25833 0.95002 0.02791 0.0
C373 C 0.24113 0.92283 -0.00189 0.0
C374 C 0.29587 0.03101 0.97492 0.0
C375 C 0.30494 0.058 0.00484 0.0
N376 N 0.31739 0.04732 0.05907 0.0
N377 N 0.26611 0.93479 0.94404 0.0
C378 C 0.29425 0.0186 0.03114 0.0
C379 C 0.26832 0.9626 0.97183 0.0
N380 N 0.23676 0.90991 0.05292 0.0
N381 N 0.30865 0.06977 0.94965 0.0
H382 H 0.24745 0.88493 0.94157 0.0
H383 H 0.28869 0.9613 0.9243 0.0
H384 H 0.33045 0.12017 0.95115 0.0
H385 H 0.29526 0.05189 0.92736 0.0
H386 H 0.2408 0.92613 0.0755 0.0
H387 H 0.2131 0.85939 0.05066 0.0
H388 H 0.31473 0.02193 0.07905 0.0
H389 H 0.34463 0.09769 0.06147 0.0
C390 C 0.21714 0.27594 0.30801 0.0
C391 C 0.22505 0.29328 0.3394 0.0
C392 C 0.31048 0.26508 0.3444 0.0
C393 C 0.29244 0.23482 0.31517 0.0
N394 N 0.23128 0.21353 0.26782 0.0
N395 N 0.28393 0.31449 0.38686 0.0
C396 C 0.24792 0.24247 0.29614 0.0
C397 C 0.27436 0.29227 0.35724 0.0
N398 N 0.17865 0.29015 0.29003 0.0
N399 N 0.36167 0.267 0.35971 0.0
H400 H 0.26048 0.33816 0.39578 0.0
H401 H 0.31384 0.30897 0.40261 0.0
H402 H 0.38885 0.24767 0.35036 0.0
H403 H 0.38033 0.29164 0.38033 0.0
H404 H 0.17433 0.2836 0.26628 0.0
H405 H 0.15559 0.31438 0.29874 0.0
H406 H 0.1932 0.21021 0.25461 0.0
H407 H 0.25348 0.18976 0.25784 0.0
C408 C 0.9922 0.27311 0.70582 0.0
C409 C 0.95089 0.23185 0.68236 0.0
C410 C 0.04179 0.26946 0.6469 0.0
C411 C 0.08445 0.30903 0.6708 0.0
N412 N 0.0989 0.36187 0.71978 0.0
N413 N 0.93091 0.2067 0.62855 0.0
C414 C 0.05899 0.31544 0.69924 0.0
C415 C 0.97394 0.2363 0.65209 0.0
N416 N 0.96771 0.26972 0.73461 0.0
N417 N 0.06557 0.25804 0.62046 0.0
H418 H 0.88084 0.18112 0.63202 0.0
H419 H 0.94435 0.21324 0.60545 0.0
H420 H 0.11466 0.27863 0.61566 0.0
H421 H 0.03657 0.22327 0.60424 0.0
H422 H 0.99623 0.29231 0.75387 0.0
H423 H 0.91812 0.24218 0.73923 0.0
H424 H 0.08268 0.3725 0.74001 0.0
H425 H 0.14784 0.39378 0.71516 0.0
C426 C 0.67617 0.96367 -0.00265 0.0
C427 C 0.68624 0.95693 0.02906 0.0
C428 C 0.72043 0.07173 0.03772 0.0
C429 C 0.72423 0.08032 0.00546 0.0
N430 N 0.66822 0.03226 0.95818 0.0
N431 N 0.7017 -0.00123 0.08079 0.0
C432 C 0.68939 0.0253 0.98637 0.0
C433 C 0.70226 0.00916 0.04981 0.0
N434 N 0.65942 0.91341 0.97731 0.0
N435 N 0.73201 0.12283 0.05626 0.0
H436 H 0.68386 0.95235 0.09002 0.0
H437 H 0.71841 0.03525 0.09733 0.0
H438 H 0.73886 0.1665 0.04712 0.0
H439 H 0.72899 0.12066 0.08014 0.0
H440 H 0.65955 0.91876 0.9535 0.0
H441 H 0.64923 0.86725 0.98417 0.0
H442 H 0.63866 0.99319 0.94394 0.0
H443 H 0.67365 0.07671 0.95101 0.0
C444 C 0.66505 0.72072 0.37603 0.0
C445 C 0.64389 0.73126 0.34729 0.0
C446 C 0.70617 0.69039 0.32021 0.0
C447 C 0.73841 0.69395 0.34824 0.0
N448 N 0.73861 0.69496 0.40363 0.0
N449 N 0.61256 0.68753 0.2962 0.0
C450 C 0.71379 0.70255 0.37657 0.0
C451 C 0.65391 0.70318 0.3206 0.0
N452 N 0.63692 0.72646 0.40231 0.0
N453 N 0.7282 0.67973 0.29306 0.0
H454 H 0.57094 0.69172 0.29738 0.0
H455 H 0.61486 0.66309 0.27676 0.0
H456 H 0.76579 0.66923 0.29185 0.0
H457 H 0.71145 0.6848 0.27164 0.0
H458 H 0.6487 0.71891 0.4244 0.0
H459 H 0.59708 0.73371 0.40152 0.0
H460 H 0.72763 0.70564 0.42524 0.0
H461 H 0.77052 0.67682 0.4043 0.0
C462 C 0.02236 0.72717 0.69712 0.0
C463 C 0.07102 0.77819 0.67931 0.0
C464 C 0.99567 0.75332 0.63659 0.0
C465 C 0.94566 0.70401 0.65482 0.0
N466 N 0.91399 0.63257 0.69855 0.0
N467 N 0.11129 0.82523 0.6297 0.0
C468 C 0.96007 0.68694 0.68383 0.0
C469 C 0.05998 0.78574 0.64808 0.0
N470 N 0.0346 0.71976 0.72714 0.0
N471 N 0.98126 0.77329 0.60965 0.0
H472 H 0.15892 0.8494 0.63796 0.0
H473 H 0.10749 0.82854 0.60596 0.0
H474 H 0.93467 0.75286 0.60049 0.0
H475 H 0.0148 0.81414 0.59751 0.0
H476 H -0.00096 0.68904 0.74257 0.0
H477 H 0.08061 0.74635 0.73696 0.0
H478 H 0.92279 0.61421 0.71861 0.0
H479 H 0.8681 0.60258 0.68911 0.0
C480 C 0.05222 0.16402 0.97143 0.0
C481 C 0.05393 0.22307 0.96393 0.0
C482 C 0.16337 0.28558 0.98566 0.0
C483 C 0.15986 0.22671 0.99514 0.0
N484 N 0.09892 0.11011 0.00066 0.0
N485 N 0.105 0.3396 0.96914 0.0
C486 C 0.10349 0.16593 0.98921 0.0
C487 C 0.10799 0.28381 0.97231 0.0
N488 N 0.00299 0.1064 0.96042 0.0
N489 N 0.21971 0.34334 0.98942 0.0
H490 H 0.06476 0.34039 0.96015 0.0
H491 H 0.13972 0.38437 0.97801 0.0
H492 H 0.25997 0.34734 0.00094 0.0
H493 H 0.22811 0.38673 0.9794 0.0
H494 H 0.00227 0.06233 0.96229 0.0
H495 H 0.96499 0.10324 0.94709 0.0
H496 H 0.05641 0.06521 0.00021 0.0
H497 H 0.13664 0.10926 0.01254 0.0
C498 C 0.87995 0.05868 0.32243 0.0
C499 C 0.82664 0.01634 0.3411 0.0
C500 C 0.87419 0.09032 0.38493 0.0
C501 C 0.93039 0.12972 0.36713 0.0
N502 N 0.99143 0.14553 0.32026 0.0
N503 N 0.77758 0.98518 0.39128 0.0
C504 C 0.9346 0.11238 0.33621 0.0
C505 C 0.82508 0.03024 0.37272 0.0
N506 N 0.87731 0.04926 0.29128 0.0
N507 N 0.86619 0.11172 0.41292 0.0
H508 H 0.74099 0.94049 0.38314 0.0
H509 H 0.77786 0.98947 0.41515 0.0
H510 H 0.90009 0.15636 0.42235 0.0
H511 H 0.82322 0.08833 0.42545 0.0
H512 H 0.91121 0.0829 0.27605 0.0
H513 H 0.83826 0.01041 0.28023 0.0
H514 H -0.0003 0.12987 0.29924 0.0
H515 H 0.03247 0.18586 0.329 0.0
C516 C 0.86003 0.89018 0.62735 0.0
C517 C 0.80348 0.84424 0.61145 0.0
C518 C 0.73942 0.88501 0.63721 0.0
C519 C 0.7965 0.93281 0.65227 0.0
N520 N 0.9133 0.99063 0.65648 0.0
N521 N 0.6929 0.80582 0.596 0.0
C522 C 0.85755 0.93825 0.64584 0.0
C523 C 0.74437 0.84455 0.61456 0.0
N524 N 0.91572 0.88695 0.62525 0.0
N525 N 0.68004 0.87545 0.64591 0.0
H526 H 0.69477 0.77496 0.57946 0.0
H527 H 0.65053 0.80848 0.59502 0.0
H528 H 0.674 0.9026 0.66308 0.0
H529 H 0.63627 0.83682 0.63819 0.0
H530 H 0.95607 0.91355 0.63927 0.0
H531 H 0.92031 0.85479 0.61051 0.0
H532 H 0.95957 0.00064 0.6501 0.0
H533 H 0.91351 0.02762 0.6695 0.0
C534 C 0.84435 0.73227 0.0353 0.0
C535 C 0.84196 0.7905 0.03211 0.0
C536 C 0.93143 0.83237 0.99514 0.0
C537 C 0.92936 0.77157 0.99598 0.0
N538 N 0.87896 0.6605 0.0136 0.0
N539 N 0.87756 0.89357 0.00719 0.0
C540 C 0.88484 0.72075 0.01537 0.0
C541 C 0.88388 0.83991 0.01148 0.0
N542 N 0.80787 0.688 0.0574 0.0
N543 N 0.98048 0.88367 0.97982 0.0
H544 H 0.84528 0.90212 0.01981 0.0
H545 H 0.9013 0.92761 0.98986 0.0
H546 H 0.01679 0.88032 0.96794 0.0
H547 H 0.98867 0.93098 0.98105 0.0
H548 H 0.81282 0.64816 0.06324 0.0
H549 H 0.77565 0.69346 0.07165 0.0
H550 H 0.84251 0.61949 0.0245 0.0
H551 H 0.90733 0.64991 -0.0009 0.0
C552 C 0.09849 0.85166 0.29783 0.0
C553 C 0.04907 0.85746 0.3133 0.0
C554 C 0.09887 0.97147 0.29738 0.0
C555 C 0.14567 0.96425 0.28021 0.0
N556 N 0.18105 0.89387 0.25825 0.0
N557 N 0.99342 0.91768 0.32191 0.0
C558 C 0.14261 0.90312 0.27861 0.0
C559 C 0.04655 0.91583 0.31128 0.0
N560 N 0.1057 0.79872 0.30279 0.0
N561 N 0.10618 0.03177 0.30195 0.0
H562 H 0.95367 0.87754 0.33179 0.0
H563 H 0.98597 0.95684 0.31821 0.0
H564 H 0.14437 0.07412 0.29275 0.0
H565 H 0.07755 0.04056 0.31712 0.0
H566 H 0.1452 0.79538 0.29477 0.0
H567 H 0.07567 0.76062 0.31736 0.0
H568 H 0.1764 0.84859 0.2539 0.0
H569 H 0.21317 0.93022 0.24339 0.0
C570 C 0.28071 0.1262 0.68927 0.0
C571 C 0.22305 0.07851 0.70372 0.0
C572 C 0.16342 0.12863 0.68183 0.0
C573 C 0.21945 0.17184 0.66478 0.0
N574 N 0.32765 0.20335 0.64754 0.0
N575 N 0.10659 0.0265 0.70922 0.0
C576 C 0.27717 0.16841 0.66721 0.0
C577 C 0.16351 0.07754 0.69883 0.0
N578 N 0.3392 0.13251 0.69732 0.0
N579 N 0.11103 0.13778 0.68286 0.0
H580 H 0.10419 0.98774 0.7216 0.0
H581 H 0.06117 0.01964 0.70318 0.0
H582 H 0.10913 0.17515 0.67117 0.0
H583 H 0.07181 0.112 0.69757 0.0
H584 H 0.3835 0.17068 0.68987 0.0
H585 H 0.34388 0.10331 0.7139 0.0
H586 H 0.36833 0.19776 0.64622 0.0
H587 H 0.32601 0.23304 0.63029 0.0
loop_
_geom_bond_atom_site_label_1
_geom_bond_atom_site_label_2
_geom_bond_distance
_geom_bond_site_symmetry_2
_ccdc_geom_bond_type
C0 O1 1.160 . S
C0 O7 1.185 . S
O1 C0 1.160 . S
O2 Zn3 1.899 . S
O2 C10 1.284 . S
Zn3 O2 1.899 . S
Zn3 O4 2.032 . S
Zn3 O7 2.086 . S
Zn3 O12 1.977 . S
O4 Zn3 2.032 . S
O4 C8 1.278 . S
C5 O6 1.203 . S
C5 O12 1.267 . S
O6 C5 1.203 . S
O7 C0 1.185 . S
O7 Zn3 2.086 . S
C8 O4 1.278 . S
C8 O9 1.211 . S
O9 C8 1.211 . S
C10 O2 1.284 . S
C10 O11 1.273 . S
O11 C10 1.273 . S
O12 Zn3 1.977 . S
O12 C5 1.267 . S
C13 O14 1.160 . S
C13 O20 1.185 . S
O14 C13 1.160 . S
O15 Zn16 1.899 . S
O15 C23 1.284 1_455 S
Zn16 O15 1.899 . S
Zn16 O17 2.032 . S
Zn16 O20 2.086 . S
Zn16 O25 1.977 . S
O17 Zn16 2.032 . S
O17 C21 1.278 . S
C18 O19 1.203 . S
C18 O25 1.267 . S
O19 C18 1.203 . S
O20 C13 1.185 . S
O20 Zn16 2.086 . S
C21 O17 1.278 . S
C21 O22 1.211 . S
O22 C21 1.211 . S
C23 O15 1.284 1_655 S
C23 O24 1.273 1_655 S
O24 C23 1.273 1_455 S
O25 Zn16 1.977 . S
O25 C18 1.267 . S
C26 O27 1.160 . S
C26 O33 1.185 . S
O27 C26 1.160 . S
O28 Zn29 1.899 . S
O28 C36 1.284 1_545 S
Zn29 O28 1.899 . S
Zn29 O30 2.032 . S
Zn29 O33 2.086 . S
Zn29 O38 1.977 . S
O30 Zn29 2.032 . S
O30 C34 1.278 . S
C31 O32 1.203 . S
C31 O38 1.267 . S
O32 C31 1.203 . S
O33 C26 1.185 . S
O33 Zn29 2.086 . S
C34 O30 1.278 . S
C34 O35 1.211 . S
O35 C34 1.211 . S
C36 O28 1.284 1_565 S
C36 O37 1.273 1_565 S
O37 C36 1.273 1_545 S
O38 Zn29 1.977 . S
O38 C31 1.267 . S
C39 O40 1.160 . S
C39 O46 1.185 . S
O40 C39 1.160 . S
O41 Zn42 1.899 . S
O41 C49 1.284 . S
Zn42 O41 1.899 . S
Zn42 O43 2.032 . S
Zn42 O46 2.086 . S
Zn42 O51 1.977 . S
O43 Zn42 2.032 . S
O43 C47 1.278 . S
C44 O45 1.203 . S
C44 O51 1.267 . S
O45 C44 1.203 . S
O46 C39 1.185 . S
O46 Zn42 2.086 . S
C47 O43 1.278 . S
C47 O48 1.211 . S
O48 C47 1.211 . S
C49 O41 1.284 . S
C49 O50 1.273 . S
O50 C49 1.273 . S
O51 Zn42 1.977 . S
O51 C44 1.267 . S
C52 O53 1.160 . S
C52 O59 1.185 . S
O53 C52 1.160 . S
O54 Zn55 1.899 . S
O54 C62 1.284 1_655 S
Zn55 O54 1.899 . S
Zn55 O56 2.032 . S
Zn55 O59 2.086 . S
Zn55 O64 1.977 . S
O56 Zn55 2.032 . S
O56 C60 1.278 . S
C57 O58 1.203 . S
C57 O64 1.267 . S
O58 C57 1.203 . S
O59 C52 1.185 . S
O59 Zn55 2.086 . S
C60 O56 1.278 . S
C60 O61 1.211 . S
O61 C60 1.211 . S
C62 O54 1.284 1_455 S
C62 O63 1.273 1_455 S
O63 C62 1.273 1_655 S
O64 Zn55 1.977 . S
O64 C57 1.267 . S
C65 O66 1.160 . S
C65 O72 1.185 . S
O66 C65 1.160 . S
O67 Zn68 1.899 . S
O67 C75 1.284 1_565 S
Zn68 O67 1.899 . S
Zn68 O69 2.032 . S
Zn68 O72 2.086 . S
Zn68 O77 1.977 . S
O69 Zn68 2.032 . S
O69 C73 1.278 . S
C70 O71 1.203 . S
C70 O77 1.267 . S
O71 C70 1.203 . S
O72 C65 1.185 . S
O72 Zn68 2.086 . S
C73 O69 1.278 . S
C73 O74 1.211 . S
O74 C73 1.211 . S
C75 O67 1.284 1_545 S
C75 O76 1.273 1_545 S
O76 C75 1.273 1_565 S
O77 Zn68 1.977 . S
O77 C70 1.267 . S
C78 O79 1.160 . S
C78 O85 1.185 . S
O79 C78 1.160 . S
O80 Zn81 1.899 . S
O80 C88 1.284 . S
Zn81 O80 1.899 . S
Zn81 O82 2.032 . S
Zn81 O85 2.086 . S
Zn81 O90 1.977 . S
O82 Zn81 2.032 . S
O82 C86 1.278 . S
C83 O84 1.203 . S
C83 O90 1.267 . S
O84 C83 1.203 . S
O85 C78 1.185 . S
O85 Zn81 2.086 . S
C86 O82 1.278 . S
C86 O87 1.211 . S
O87 C86 1.211 . S
C88 O80 1.284 . S
C88 O89 1.273 . S
O89 C88 1.273 . S
O90 Zn81 1.977 . S
O90 C83 1.267 . S
C91 O92 1.160 . S
C91 O98 1.185 . S
O92 C91 1.160 . S
O93 Zn94 1.899 . S
O93 C101 1.284 1_455 S
Zn94 O93 1.899 . S
Zn94 O95 2.032 . S
Zn94 O98 2.086 . S
Zn94 O103 1.977 . S
O95 Zn94 2.032 . S
O95 C99 1.278 . S
C96 O97 1.203 . S
C96 O103 1.267 . S
O97 C96 1.203 . S
O98 C91 1.185 . S
O98 Zn94 2.086 . S
C99 O95 1.278 . S
C99 O100 1.211 . S
O100 C99 1.211 . S
C101 O93 1.284 1_655 S
C101 O102 1.273 1_655 S
O102 C101 1.273 1_455 S
O103 Zn94 1.977 . S
O103 C96 1.267 . S
C104 O105 1.160 . S
C104 O111 1.185 . S
O105 C104 1.160 . S
O106 Zn107 1.899 . S
O106 C114 1.284 1_545 S
Zn107 O106 1.899 . S
Zn107 O108 2.032 . S
Zn107 O111 2.086 . S
Zn107 O116 1.977 . S
O108 Zn107 2.032 . S
O108 C112 1.278 . S
C109 O110 1.203 . S
C109 O116 1.267 . S
O110 C109 1.203 . S
O111 C104 1.185 . S
O111 Zn107 2.086 . S
C112 O108 1.278 . S
C112 O113 1.211 . S
O113 C112 1.211 . S
C114 O106 1.284 1_565 S
C114 O115 1.273 1_565 S
O115 C114 1.273 1_545 S
O116 Zn107 1.977 . S
O116 C109 1.267 . S
C117 O118 1.160 . S
C117 O124 1.185 . S
O118 C117 1.160 . S
O119 Zn120 1.899 . S
O119 C127 1.284 . S
Zn120 O119 1.899 . S
Zn120 O121 2.032 . S
Zn120 O124 2.086 . S
Zn120 O129 1.977 . S
O121 Zn120 2.032 . S
O121 C125 1.278 . S
C122 O123 1.203 . S
C122 O129 1.267 . S
O123 C122 1.203 . S
O124 C117 1.185 . S
O124 Zn120 2.086 . S
C125 O121 1.278 . S
C125 O126 1.211 . S
O126 C125 1.211 . S
C127 O119 1.284 . S
C127 O128 1.273 . S
O128 C127 1.273 . S
O129 Zn120 1.977 . S
O129 C122 1.267 . S
C130 O131 1.160 . S
C130 O137 1.185 . S
O131 C130 1.160 . S
O132 Zn133 1.899 . S
O132 C140 1.284 1_655 S
Zn133 O132 1.899 . S
Zn133 O134 2.032 . S
Zn133 O137 2.086 . S
Zn133 O142 1.977 . S
O134 Zn133 2.032 . S
O134 C138 1.278 . S
C135 O136 1.203 . S
C135 O142 1.267 . S
O136 C135 1.203 . S
O137 C130 1.185 . S
O137 Zn133 2.086 . S
C138 O134 1.278 . S
C138 O139 1.211 . S
O139 C138 1.211 . S
C140 O132 1.284 1_455 S
C140 O141 1.273 1_455 S
O141 C140 1.273 1_655 S
O142 Zn133 1.977 . S
O142 C135 1.267 . S
C143 O144 1.160 . S
C143 O150 1.185 . S
O144 C143 1.160 . S
O145 Zn146 1.899 . S
O145 C153 1.284 1_565 S
Zn146 O145 1.899 . S
Zn146 O147 2.032 . S
Zn146 O150 2.086 . S
Zn146 O155 1.977 . S
O147 Zn146 2.032 . S
O147 C151 1.278 . S
C148 O149 1.203 . S
C148 O155 1.267 . S
O149 C148 1.203 . S
O150 C143 1.185 . S
O150 Zn146 2.086 . S
C151 O147 1.278 . S
C151 O152 1.211 . S
O152 C151 1.211 . S
C153 O145 1.284 1_545 S
C153 O154 1.273 1_545 S
O154 C153 1.273 1_565 S
O155 Zn146 1.977 . S
O155 C148 1.267 . S
C156 C157 1.363 . S
C156 C162 1.379 . S
C156 N164 1.356 . S
C157 C156 1.363 . S
C157 C163 1.363 . S
C158 C159 1.363 . S
C158 C163 1.379 . S
C158 N165 1.356 1_554 S
C159 C158 1.363 . S
C159 C162 1.363 . S
N160 C162 1.356 . S
N160 H172 0.984 . S
N160 H173 0.985 . S
N161 C163 1.356 1_556 S
N161 H166 0.984 1_556 S
N161 H167 0.985 . S
C162 C156 1.379 . S
C162 C159 1.363 . S
C162 N160 1.356 . S
C163 C157 1.363 . S
C163 C158 1.379 . S
C163 N161 1.356 1_554 S
N164 C156 1.356 . S
N164 H170 0.984 . S
N164 H171 0.984 . S
N165 C158 1.356 1_556 S
N165 H168 0.984 1_556 S
N165 H169 0.985 . S
H166 N161 0.984 1_554 S
H167 N161 0.985 . S
H168 N165 0.984 1_554 S
H169 N165 0.985 . S
H170 N164 0.984 . S
H171 N164 0.984 . S
H172 N160 0.984 . S
H173 N160 0.985 . S
C174 C175 1.366 . S
C174 C180 1.374 1_455 S
C174 N182 1.359 . S
C175 C174 1.366 . S
C175 C181 1.363 . S
C176 C177 1.366 . S
C176 C181 1.374 1_655 S
C176 N183 1.359 . S
C177 C176 1.366 . S
C177 C180 1.363 . S
N178 C180 1.356 . S
N178 H190 0.984 . S
N178 H191 0.985 . S
N179 C181 1.356 . S
N179 H184 0.984 . S
N179 H185 0.985 . S
C180 C174 1.374 1_655 S
C180 C177 1.363 . S
C180 N178 1.356 . S
C181 C175 1.363 . S
C181 C176 1.374 1_455 S
C181 N179 1.356 . S
N182 C174 1.359 . S
N182 H188 0.984 1_455 S
N182 H189 0.984 . S
N183 C176 1.359 . S
N183 H186 0.984 . S
N183 H187 0.985 1_655 S
H184 N179 0.984 . S
H185 N179 0.985 . S
H186 N183 0.984 . S
H187 N183 0.985 1_455 S
H188 N182 0.984 1_655 S
H189 N182 0.984 . S
H190 N178 0.984 . S
H191 N178 0.985 . S
C192 C193 1.366 . S
C192 C198 1.377 1_565 S
C192 N200 1.355 . S
C193 C192 1.366 . S
C193 C199 1.363 . S
C194 C195 1.366 . S
C194 C199 1.377 1_545 S
C194 N201 1.355 . S
C195 C194 1.366 . S
C195 C198 1.363 . S
N196 C198 1.356 . S
N196 H208 0.984 . S
N196 H209 0.985 . S
N197 C199 1.356 . S
N197 H202 0.984 . S
N197 H203 0.985 . S
C198 C192 1.377 1_545 S
C198 C195 1.363 . S
C198 N196 1.356 . S
C199 C193 1.363 . S
C199 C194 1.377 1_565 S
C199 N197 1.356 . S
N200 C192 1.355 . S
N200 H206 0.984 1_565 S
N200 H207 0.984 . S
N201 C194 1.355 . S
N201 H204 0.984 . S
N201 H205 0.985 1_545 S
H202 N197 0.984 . S
H203 N197 0.985 . S
H204 N201 0.984 . S
H205 N201 0.985 1_565 S
H206 N200 0.984 1_545 S
H207 N200 0.984 . S
H208 N196 0.984 . S
H209 N196 0.985 . S
C210 C211 1.363 . S
C210 C216 1.379 . S
C210 N218 1.356 . S
C211 C210 1.363 . S
C211 C217 1.363 . S
C212 C213 1.363 . S
C212 C217 1.379 . S
C212 N219 1.356 . S
C213 C212 1.363 . S
C213 C216 1.363 . S
N214 C216 1.356 . S
N214 H226 0.984 . S
N214 H227 0.985 . S
N215 C217 1.356 . S
N215 H220 0.984 . S
N215 H221 0.985 . S
C216 C210 1.379 . S
C216 C213 1.363 . S
C216 N214 1.356 . S
C217 C211 1.363 . S
C217 C212 1.379 . S
C217 N215 1.356 . S
N218 C210 1.356 . S
N218 H224 0.984 . S
N218 H225 0.984 . S
N219 C212 1.356 . S
N219 H222 0.984 . S
N219 H223 0.985 . S
H220 N215 0.984 . S
H221 N215 0.985 . S
H222 N219 0.984 . S
H223 N219 0.985 . S
H224 N218 0.984 . S
H225 N218 0.984 . S
H226 N214 0.984 . S
H227 N214 0.985 . S
C228 C229 1.366 . S
C228 C234 1.377 1_655 S
C228 N236 1.355 . S
C229 C228 1.366 . S
C229 C235 1.363 . S
C230 C231 1.366 . S
C230 C235 1.378 1_455 S
C230 N237 1.355 1_556 S
C231 C230 1.366 . S
C231 C234 1.363 . S
N232 C234 1.356 . S
N232 H244 0.984 . S
N232 H245 0.985 . S
N233 C235 1.356 1_554 S
N233 H238 0.984 1_554 S
N233 H239 0.985 . S
C234 C228 1.377 1_455 S
C234 C231 1.363 . S
C234 N232 1.356 . S
C235 C229 1.363 . S
C235 C230 1.378 1_655 S
C235 N233 1.356 1_556 S
N236 C228 1.355 . S
N236 H242 0.984 1_655 S
N236 H243 0.984 . S
N237 C230 1.355 1_554 S
N237 H240 0.984 1_554 S
N237 H241 0.985 1_455 S
H238 N233 0.984 1_556 S
H239 N233 0.985 . S
H240 N237 0.984 1_556 S
H241 N237 0.985 1_655 S
H242 N236 0.984 1_455 S
H243 N236 0.984 . S
H244 N232 0.984 . S
H245 N232 0.985 . S
C246 C247 1.363 . S
C246 C252 1.374 1_545 S
C246 N254 1.356 . S
C247 C246 1.363 . S
C247 C253 1.366 . S
C248 C249 1.363 . S
C248 C253 1.374 1_565 S
C248 N255 1.356 . S
C249 C248 1.363 . S
C249 C252 1.366 . S
N250 C252 1.359 . S
N250 H262 0.984 1_565 S
N250 H263 0.985 . S
N251 C253 1.359 . S
N251 H256 0.984 . S
N251 H257 0.985 1_545 S
C252 C246 1.374 1_565 S
C252 C249 1.366 . S
C252 N250 1.359 . S
C253 C247 1.366 . S
C253 C248 1.374 1_545 S
C253 N251 1.359 . S
N254 C246 1.356 . S
N254 H260 0.984 . S
N254 H261 0.984 . S
N255 C248 1.356 . S
N255 H258 0.984 . S
N255 H259 0.985 . S
H256 N251 0.984 . S
H257 N251 0.985 1_565 S
H258 N255 0.984 . S
H259 N255 0.985 . S
H260 N254 0.984 . S
H261 N254 0.984 . S
H262 N250 0.984 1_545 S
H263 N250 0.985 . S
C264 C265 1.363 . S
C264 C270 1.379 . S
C264 N272 1.356 . S
C265 C264 1.363 . S
C265 C271 1.363 . S
C266 C267 1.363 . S
C266 C271 1.379 . S
C266 N273 1.356 . S
C267 C266 1.363 . S
C267 C270 1.363 . S
N268 C270 1.356 . S
N268 H280 0.984 . S
N268 H281 0.985 . S
N269 C271 1.356 . S
N269 H274 0.984 . S
N269 H275 0.985 . S
C270 C264 1.379 . S
C270 C267 1.363 . S
C270 N268 1.356 . S
C271 C265 1.363 . S
C271 C266 1.379 . S
C271 N269 1.356 . S
N272 C264 1.356 . S
N272 H278 0.984 . S
N272 H279 0.984 . S
N273 C266 1.356 . S
N273 H276 0.984 . S
N273 H277 0.985 . S
H274 N269 0.984 . S
H275 N269 0.985 . S
H276 N273 0.984 . S
H277 N273 0.985 . S
H278 N272 0.984 . S
H279 N272 0.984 . S
H280 N268 0.984 . S
H281 N268 0.985 . S
C282 C283 1.363 . S
C282 C288 1.379 . S
C282 N290 1.356 . S
C283 C282 1.363 . S
C283 C289 1.363 . S
C284 C285 1.363 . S
C284 C289 1.379 . S
C284 N291 1.356 . S
C285 C284 1.363 . S
C285 C288 1.363 . S
N286 C288 1.356 . S
N286 H298 0.984 . S
N286 H299 0.985 . S
N287 C289 1.356 . S
N287 H292 0.984 . S
N287 H293 0.985 . S
C288 C282 1.379 . S
C288 C285 1.363 . S
C288 N286 1.356 . S
C289 C283 1.363 . S
C289 C284 1.379 . S
C289 N287 1.356 . S
N290 C282 1.356 . S
N290 H296 0.984 . S
N290 H297 0.984 . S
N291 C284 1.356 . S
N291 H294 0.984 . S
N291 H295 0.985 . S
H292 N287 0.984 . S
H293 N287 0.985 . S
H294 N291 0.984 . S
H295 N291 0.985 . S
H296 N290 0.984 . S
H297 N290 0.984 . S
H298 N286 0.984 . S
H299 N286 0.985 . S
C300 C301 1.363 . S
C300 C306 1.379 . S
C300 N308 1.356 . S
C301 C300 1.363 . S
C301 C307 1.363 . S
C302 C303 1.363 . S
C302 C307 1.379 . S
C302 N309 1.356 . S
C303 C302 1.363 . S
C303 C306 1.363 . S
N304 C306 1.356 . S
N304 H316 0.984 . S
N304 H317 0.985 . S
N305 C307 1.356 . S
N305 H310 0.984 . S
N305 H311 0.985 . S
C306 C300 1.379 . S
C306 C303 1.363 . S
C306 N304 1.356 . S
C307 C301 1.363 . S
C307 C302 1.379 . S
C307 N305 1.356 . S
N308 C300 1.356 . S
N308 H314 0.984 . S
N308 H315 0.984 . S
N309 C302 1.356 . S
N309 H312 0.984 . S
N309 H313 0.985 . S
H310 N305 0.984 . S
H311 N305 0.985 . S
H312 N309 0.984 . S
H313 N309 0.985 . S
H314 N308 0.984 . S
H315 N308 0.984 . S
H316 N304 0.984 . S
H317 N304 0.985 . S
C318 C319 1.363 . S
C318 C324 1.379 . S
C318 N326 1.356 . S
C319 C318 1.363 . S
C319 C325 1.363 . S
C320 C321 1.363 . S
C320 C325 1.379 . S
C320 N327 1.356 . S
C321 C320 1.363 . S
C321 C324 1.363 . S
N322 C324 1.356 . S
N322 H334 0.984 1_565 S
N322 H335 0.985 . S
N323 C325 1.356 . S
N323 H328 0.984 . S
N323 H329 0.985 . S
C324 C318 1.379 . S
C324 C321 1.363 . S
C324 N322 1.356 . S
C325 C319 1.363 . S
C325 C320 1.379 . S
C325 N323 1.356 . S
N326 C318 1.356 . S
N326 H332 0.984 . S
N326 H333 0.984 . S
N327 C320 1.356 . S
N327 H330 0.984 . S
N327 H331 0.985 . S
H328 N323 0.984 . S
H329 N323 0.985 . S
H330 N327 0.984 . S
H331 N327 0.985 . S
H332 N326 0.984 . S
H333 N326 0.984 . S
H334 N322 0.984 1_545 S
H335 N322 0.985 . S
C336 C337 1.363 . S
C336 C342 1.379 . S
C336 N344 1.356 . S
C337 C336 1.363 . S
C337 C343 1.363 . S
C338 C339 1.363 . S
C338 C343 1.379 . S
C338 N345 1.356 . S
C339 C338 1.363 . S
C339 C342 1.363 . S
N340 C342 1.356 . S
N340 H352 0.984 . S
N340 H353 0.985 . S
N341 C343 1.356 . S
N341 H346 0.984 . S
N341 H347 0.985 . S
C342 C336 1.379 . S
C342 C339 1.363 . S
C342 N340 1.356 . S
C343 C337 1.363 . S
C343 C338 1.379 . S
C343 N341 1.356 . S
N344 C336 1.356 . S
N344 H350 0.984 . S
N344 H351 0.984 . S
N345 C338 1.356 . S
N345 H348 0.984 . S
N345 H349 0.985 . S
H346 N341 0.984 . S
H347 N341 0.985 . S
H348 N345 0.984 . S
H349 N345 0.985 . S
H350 N344 0.984 . S
H351 N344 0.984 . S
H352 N340 0.984 . S
H353 N340 0.985 . S
C354 C355 1.363 . S
C354 C360 1.379 . S
C354 N362 1.356 . S
C355 C354 1.363 . S
C355 C361 1.363 . S
C356 C357 1.363 . S
C356 C361 1.379 . S
C356 N363 1.356 . S
C357 C356 1.363 . S
C357 C360 1.363 . S
N358 C360 1.356 . S
N358 H370 0.984 . S
N358 H371 0.985 . S
N359 C361 1.356 . S
N359 H364 0.984 . S
N359 H365 0.985 . S
C360 C354 1.379 . S
C360 C357 1.363 . S
C360 N358 1.356 . S
C361 C355 1.363 . S
C361 C356 1.379 . S
C361 N359 1.356 . S
N362 C354 1.356 . S
N362 H368 0.984 . S
N362 H369 0.984 . S
N363 C356 1.356 . S
N363 H366 0.984 . S
N363 H367 0.985 . S
H364 N359 0.984 . S
H365 N359 0.985 . S
H366 N363 0.984 . S
H367 N363 0.985 . S
H368 N362 0.984 . S
H369 N362 0.984 . S
H370 N358 0.984 . S
H371 N358 0.985 . S
C372 C373 1.363 1_554 S
C372 C378 1.379 1_565 S
C372 N380 1.356 . S
C373 C372 1.363 1_556 S
C373 C379 1.363 . S
C374 C375 1.363 1_556 S
C374 C379 1.379 1_545 S
C374 N381 1.356 . S
C375 C374 1.363 1_554 S
C375 C378 1.363 . S
N376 C378 1.356 . S
N376 H388 0.984 . S
N376 H389 0.985 . S
N377 C379 1.356 . S
N377 H382 0.984 . S
N377 H383 0.985 . S
C378 C372 1.379 1_545 S
C378 C375 1.363 . S
C378 N376 1.356 . S
C379 C373 1.363 . S
C379 C374 1.379 1_565 S
C379 N377 1.356 . S
N380 C372 1.356 . S
N380 H386 0.984 . S
N380 H387 0.984 . S
N381 C374 1.356 . S
N381 H384 0.984 . S
N381 H385 0.985 . S
H382 N377 0.984 . S
H383 N377 0.985 . S
H384 N381 0.984 . S
H385 N381 0.985 . S
H386 N380 0.984 . S
H387 N380 0.984 . S
H388 N376 0.984 . S
H389 N376 0.985 . S
C390 C391 1.363 . S
C390 C396 1.379 . S
C390 N398 1.356 . S
C391 C390 1.363 . S
C391 C397 1.363 . S
C392 C393 1.363 . S
C392 C397 1.379 . S
C392 N399 1.356 . S
C393 C392 1.363 . S
C393 C396 1.363 . S
N394 C396 1.356 . S
N394 H406 0.984 . S
N394 H407 0.985 . S
N395 C397 1.356 . S
N395 H400 0.984 . S
N395 H401 0.985 . S
C396 C390 1.379 . S
C396 C393 1.363 . S
C396 N394 1.356 . S
C397 C391 1.363 . S
C397 C392 1.379 . S
C397 N395 1.356 . S
N398 C390 1.356 . S
N398 H404 0.984 . S
N398 H405 0.984 . S
N399 C392 1.356 . S
N399 H402 0.984 . S
N399 H403 0.985 . S
H400 N395 0.984 . S
H401 N395 0.985 . S
H402 N399 0.984 . S
H403 N399 0.985 . S
H404 N398 0.984 . S
H405 N398 0.984 . S
H406 N394 0.984 . S
H407 N394 0.985 . S
C408 C409 1.363 . S
C408 C414 1.379 1_655 S
C408 N416 1.356 . S
C409 C408 1.363 . S
C409 C415 1.363 . S
C410 C411 1.363 . S
C410 C415 1.379 1_455 S
C410 N417 1.356 . S
C411 C410 1.363 . S
C411 C414 1.363 . S
N412 C414 1.356 . S
N412 H424 0.984 . S
N412 H425 0.985 . S
N413 C415 1.356 . S
N413 H418 0.984 . S
N413 H419 0.985 . S
C414 C408 1.379 1_455 S
C414 C411 1.363 . S
C414 N412 1.356 . S
C415 C409 1.363 . S
C415 C410 1.379 1_655 S
C415 N413 1.356 . S
N416 C408 1.356 . S
N416 H422 0.984 . S
N416 H423 0.984 . S
N417 C410 1.356 . S
N417 H420 0.984 . S
N417 H421 0.985 . S
H418 N413 0.984 . S
H419 N413 0.985 . S
H420 N417 0.984 . S
H421 N417 0.985 . S
H422 N416 0.984 . S
H423 N416 0.984 . S
H424 N412 0.984 . S
H425 N412 0.985 . S
C426 C427 1.363 1_556 S
C426 C432 1.379 1_565 S
C426 N434 1.356 . S
C427 C426 1.363 1_554 S
C427 C433 1.363 . S
C428 C429 1.363 1_554 S
C428 C433 1.379 1_545 S
C428 N435 1.356 . S
C429 C428 1.363 1_556 S
C429 C432 1.363 . S
N430 C432 1.356 . S
N430 H442 0.984 . S
N430 H443 0.985 . S
N431 C433 1.356 . S
N431 H436 0.984 . S
N431 H437 0.985 . S
C432 C426 1.379 1_545 S
C432 C429 1.363 . S
C432 N430 1.356 . S
C433 C427 1.363 . S
C433 C428 1.379 1_565 S
C433 N431 1.356 . S
N434 C426 1.356 . S
N434 H440 0.984 . S
N434 H441 0.984 . S
N435 C428 1.356 . S
N435 H438 0.984 . S
N435 H439 0.985 . S
H436 N431 0.984 . S
H437 N431 0.985 . S
H438 N435 0.984 . S
H439 N435 0.985 . S
H440 N434 0.984 . S
H441 N434 0.984 . S
H442 N430 0.984 . S
H443 N430 0.985 . S
C444 C445 1.363 . S
C444 C450 1.379 . S
C444 N452 1.356 . S
C445 C444 1.363 . S
C445 C451 1.363 . S
C446 C447 1.363 . S
C446 C451 1.379 . S
C446 N453 1.356 . S
C447 C446 1.363 . S
C447 C450 1.363 . S
N448 C450 1.356 . S
N448 H460 0.984 . S
N448 H461 0.985 . S
N449 C451 1.356 . S
N449 H454 0.984 . S
N449 H455 0.985 . S
C450 C444 1.379 . S
C450 C447 1.363 . S
C450 N448 1.356 . S
C451 C445 1.363 . S
C451 C446 1.379 . S
C451 N449 1.356 . S
N452 C444 1.356 . S
N452 H458 0.984 . S
N452 H459 0.984 . S
N453 C446 1.356 . S
N453 H456 0.984 . S
N453 H457 0.985 . S
H454 N449 0.984 . S
H455 N449 0.985 . S
H456 N453 0.984 . S
H457 N453 0.985 . S
H458 N452 0.984 . S
H459 N452 0.984 . S
H460 N448 0.984 . S
H461 N448 0.985 . S
C462 C463 1.363 . S
C462 C468 1.379 1_455 S
C462 N470 1.356 . S
C463 C462 1.363 . S
C463 C469 1.363 . S
C464 C465 1.363 . S
C464 C469 1.379 1_655 S
C464 N471 1.356 . S
C465 C464 1.363 . S
C465 C468 1.363 . S
N466 C468 1.356 . S
N466 H478 0.984 . S
N466 H479 0.985 . S
N467 C469 1.356 . S
N467 H472 0.984 . S
N467 H473 0.985 . S
C468 C462 1.379 1_655 S
C468 C465 1.363 . S
C468 N466 1.356 . S
C469 C463 1.363 . S
C469 C464 1.379 1_455 S
C469 N467 1.356 . S
N470 C462 1.356 . S
N470 H476 0.984 . S
N470 H477 0.984 . S
N471 C464 1.356 . S
N471 H474 0.984 . S
N471 H475 0.985 . S
H472 N467 0.984 . S
H473 N467 0.985 . S
H474 N471 0.984 . S
H475 N471 0.985 . S
H476 N470 0.984 . S
H477 N470 0.984 . S
H478 N466 0.984 . S
H479 N466 0.985 . S
C480 C481 1.363 1_554 S
C480 C486 1.379 . S
C480 N488 1.360 1_455 S
C481 C480 1.363 1_556 S
C481 C487 1.363 . S
C482 C483 1.363 1_556 S
C482 C487 1.379 . S
C482 N489 1.360 . S
C483 C482 1.363 1_554 S
C483 C486 1.363 . S
N484 C486 1.356 . S
N484 H496 0.984 . S
N484 H497 0.985 . S
N485 C487 1.356 . S
N485 H490 0.984 . S
N485 H491 0.985 . S
C486 C480 1.379 . S
C486 C483 1.363 . S
C486 N484 1.356 . S
C487 C481 1.363 . S
C487 C482 1.379 . S
C487 N485 1.356 . S
N488 C480 1.360 1_655 S
N488 H494 1.005 . S
N488 H495 0.962 1_554 S
N489 C482 1.360 . S
N489 H492 0.962 1_556 S
N489 H493 1.005 . S
H490 N485 0.984 . S
H491 N485 0.985 . S
H492 N489 0.962 1_554 S
H493 N489 1.005 . S
H494 N488 1.005 . S
H495 N488 0.962 1_556 S
H496 N484 0.984 . S
H497 N484 0.985 . S
C498 C499 1.363 . S
C498 C504 1.379 . S
C498 N506 1.356 . S
C499 C498 1.363 . S
C499 C505 1.363 . S
C500 C501 1.363 . S
C500 C505 1.379 . S
C500 N507 1.356 . S
C501 C500 1.363 . S
C501 C504 1.363 . S
N502 C504 1.356 1_455 S
N502 H514 0.984 . S
N502 H515 0.985 . S
N503 C505 1.356 . S
N503 H508 0.984 1_545 S
N503 H509 0.985 . S
C504 C498 1.379 . S
C504 C501 1.363 . S
C504 N502 1.356 1_655 S
C505 C499 1.363 . S
C505 C500 1.379 . S
C505 N503 1.356 . S
N506 C498 1.356 . S
N506 H512 0.984 . S
N506 H513 0.984 . S
N507 C500 1.356 . S
N507 H510 0.984 . S
N507 H511 0.985 . S
H508 N503 0.984 1_565 S
H509 N503 0.985 . S
H510 N507 0.984 . S
H511 N507 0.985 . S
H512 N506 0.984 . S
H513 N506 0.984 . S
H514 N502 0.984 . S
H515 N502 0.985 . S
C516 C517 1.363 . S
C516 C522 1.379 . S
C516 N524 1.356 . S
C517 C516 1.363 . S
C517 C523 1.363 . S
C518 C519 1.363 . S
C518 C523 1.379 . S
C518 N525 1.356 . S
C519 C518 1.363 . S
C519 C522 1.363 . S
N520 C522 1.356 1_545 S
N520 H532 0.984 . S
N520 H533 0.985 . S
N521 C523 1.356 . S
N521 H526 0.984 . S
N521 H527 0.985 . S
C522 C516 1.379 . S
C522 C519 1.363 . S
C522 N520 1.356 1_565 S
C523 C517 1.363 . S
C523 C518 1.379 . S
C523 N521 1.356 . S
N524 C516 1.356 . S
N524 H530 0.984 . S
N524 H531 0.984 . S
N525 C518 1.356 . S
N525 H528 0.984 . S
N525 H529 0.985 . S
H526 N521 0.984 . S
H527 N521 0.985 . S
H528 N525 0.984 . S
H529 N525 0.985 . S
H530 N524 0.984 . S
H531 N524 0.984 . S
H532 N520 0.984 . S
H533 N520 0.985 . S
C534 C535 1.363 . S
C534 C540 1.379 . S
C534 N542 1.356 . S
C535 C534 1.363 . S
C535 C541 1.363 1_554 S
C536 C537 1.363 . S
C536 C541 1.379 . S
C536 N543 1.356 . S
C537 C536 1.363 . S
C537 C540 1.363 1_556 S
N538 C540 1.360 . S
N538 H550 1.005 . S
N538 H551 0.962 1_554 S
N539 C541 1.360 . S
N539 H544 0.962 1_556 S
N539 H545 1.005 . S
C540 C534 1.379 . S
C540 C537 1.363 1_554 S
C540 N538 1.360 . S
C541 C535 1.363 1_556 S
C541 C536 1.379 . S
C541 N539 1.360 . S
N542 C534 1.356 . S
N542 H548 0.984 . S
N542 H549 0.984 . S
N543 C536 1.356 . S
N543 H546 0.984 . S
N543 H547 0.985 . S
H544 N539 0.962 1_554 S
H545 N539 1.005 . S
H546 N543 0.984 . S
H547 N543 0.985 . S
H548 N542 0.984 . S
H549 N542 0.984 . S
H550 N538 1.005 . S
H551 N538 0.962 1_556 S
C552 C553 1.363 . S
C552 C558 1.379 . S
C552 N560 1.356 . S
C553 C552 1.363 . S
C553 C559 1.363 . S
C554 C555 1.363 . S
C554 C559 1.379 . S
C554 N561 1.356 . S
C555 C554 1.363 . S
C555 C558 1.363 . S
N556 C558 1.356 . S
N556 H568 0.984 . S
N556 H569 0.985 . S
N557 C559 1.356 . S
N557 H562 0.984 1_455 S
N557 H563 0.985 1_455 S
C558 C552 1.379 . S
C558 C555 1.363 . S
C558 N556 1.356 . S
C559 C553 1.363 . S
C559 C554 1.379 . S
C559 N557 1.356 . S
N560 C552 1.356 . S
N560 H566 0.984 . S
N560 H567 0.984 . S
N561 C554 1.356 . S
N561 H564 0.984 1_565 S
N561 H565 0.985 1_565 S
H562 N557 0.984 1_655 S
H563 N557 0.985 1_655 S
H564 N561 0.984 1_545 S
H565 N561 0.985 1_545 S
H566 N560 0.984 . S
H567 N560 0.984 . S
H568 N556 0.984 . S
H569 N556 0.985 . S
C570 C571 1.363 . S
C570 C576 1.379 . S
C570 N578 1.356 . S
C571 C570 1.363 . S
C571 C577 1.363 . S
C572 C573 1.363 . S
C572 C577 1.379 . S
C572 N579 1.356 . S
C573 C572 1.363 . S
C573 C576 1.363 . S
N574 C576 1.356 . S
N574 H586 0.984 . S
N574 H587 0.985 . S
N575 C577 1.356 . S
N575 H580 0.984 1_545 S
N575 H581 0.988 1_545 S
C576 C570 1.379 . S
C576 C573 1.363 . S
C576 N574 1.356 . S
C577 C571 1.363 . S
C577 C572 1.379 . S
C577 N575 1.356 . S
N578 C570 1.356 . S
N578 H584 0.984 . S
N578 H585 0.984 . S
N579 C572 1.356 . S
N579 H582 0.984 . S
N579 H583 0.985 . S
H580 N575 0.984 1_565 S
H581 N575 0.988 1_565 S
H582 N579 0.984 . S
H583 N579 0.985 . S
H584 N578 0.984 . S
H585 N578 0.984 . S
H586 N574 0.984 . S
H587 N574 0.985 . S
C157 C39 1.471 . S
C159 C0 1.471 . S
C175 C13 1.471 . S
C177 C52 1.471 . S
C193 C65 1.471 . S
C195 C26 1.471 . S
C211 C78 1.471 . S
C213 C117 1.471 . S
C229 C130 1.471 . S
C231 C91 1.471 . S
C247 C104 1.471 . S
C249 C143 1.471 . S
C265 C112 1.491 . S
C267 C8 1.491 . S
C283 C21 1.491 . S
C285 C125 1.491 . S
C301 C34 1.491 . S
C303 C138 1.491 . S
C319 C47 1.491 . S
C321 C151 1.491 . S
C337 C86 1.491 . S
C339 C60 1.491 . S
C355 C99 1.491 . S
C357 C73 1.491 . S
C373 C96 1.104 . S
C375 C5 1.104 . S
C391 C18 1.104 . S
C393 C109 1.104 . S
C409 C31 1.104 . S
C411 C122 1.104 . S
C427 C44 1.104 . S
C429 C135 1.104 . S
C445 C148 1.104 . S
C447 C57 1.104 . S
C463 C70 1.104 . S
C465 C83 1.104 . S
C481 C140 1.393 . S
C483 C10 1.393 . S
C499 C153 1.392 . S
C501 C23 1.392 . S
C517 C88 1.393 . S
C519 C36 1.393 . S
C535 C49 1.393 . S
C537 C101 1.393 . S
C553 C62 1.392 . S
C555 C114 1.392 . S
C571 C75 1.393 . S
C573 C127 1.393 . S
