# Generated by pormake.
# Topology dei, (4)-cn, num edge types: 1
# Building blocks:
#     Node 0, Type 0, BuildingBlock: GALJAG_clean_sbu_0, # of connection points: 4
#     Node 1, Type 0, BuildingBlock: GALJAG_clean_sbu_0, # of connection points: 4
#     Node 2, Type 0, BuildingBlock: GALJAG_clean_sbu_0, # of connection points: 4
#     Node 3, Type 0, BuildingBlock: GALJAG_clean_sbu_0, # of connection points: 4
#     Node 4, Type 0, BuildingBlock: GALJAG_clean_sbu_0, # of connection points: 4
#     Node 5, Type 0, BuildingBlock: GALJAG_clean_sbu_0, # of connection points: 4
#     Node 6, Type 0, BuildingBlock: GALJAG_clean_sbu_0, # of connection points: 4
#     Node 7, Type 0, BuildingBlock: GALJAG_clean_sbu_0, # of connection points: 4
#     Node 8, Type 0, BuildingBlock: GALJAG_clean_sbu_0, # of connection points: 4
#     Node 9, Type 0, BuildingBlock: GALJAG_clean_sbu_0, # of connection points: 4
#     Node 10, Type 0, BuildingBlock: GALJAG_clean_sbu_0, # of connection points: 4
#     Node 11, Type 0, BuildingBlock: GALJAG_clean_sbu_0, # of connection points: 4
#     Node 12, Type 0, BuildingBlock: GALJAG_clean_sbu_0, # of connection points: 4
#     Node 13, Type 0, BuildingBlock: GALJAG_clean_sbu_0, # of connection points: 4
#     Node 14, Type 0, BuildingBlock: GALJAG_clean_sbu_0, # of connection points: 4
#     Node 15, Type 0, BuildingBlock: GALJAG_clean_sbu_0, # of connection points: 4
#     Node 16, Type 0, BuildingBlock: GALJAG_clean_sbu_0, # of connection points: 4
#     Node 17, Type 0, BuildingBlock: GALJAG_clean_sbu_0, # of connection points: 4
#     Node 18, Type 0, BuildingBlock: GALJAG_clean_sbu_0, # of connection points: 4
#     Node 19, Type 0, BuildingBlock: GALJAG_clean_sbu_0, # of connection points: 4
#     Node 20, Type 0, BuildingBlock: GALJAG_clean_sbu_0, # of connection points: 4
#     Node 21, Type 0, BuildingBlock: GALJAG_clean_sbu_0, # of connection points: 4
#     Node 22, Type 0, BuildingBlock: GALJAG_clean_sbu_0, # of connection points: 4
#     Node 23, Type 0, BuildingBlock: GALJAG_clean_sbu_0, # of connection points: 4
#     Node 24, Type 0, BuildingBlock: GALJAG_clean_sbu_0, # of connection points: 4
#     Node 25, Type 0, BuildingBlock: GALJAG_clean_sbu_0, # of connection points: 4
#     Node 26, Type 0, BuildingBlock: GALJAG_clean_sbu_0, # of connection points: 4
#     Node 27, Type 0, BuildingBlock: GALJAG_clean_sbu_0, # of connection points: 4
#     Node 28, Type 0, BuildingBlock: GALJAG_clean_sbu_0, # of connection points: 4
#     Node 29, Type 0, BuildingBlock: GALJAG_clean_sbu_0, # of connection points: 4
#     Node 30, Type 0, BuildingBlock: GALJAG_clean_sbu_0, # of connection points: 4
#     Node 31, Type 0, BuildingBlock: GALJAG_clean_sbu_0, # of connection points: 4
#     Edge 32, Type (0, 0), BuildingBlock: KIFKEQ_clean_linker_1, # of connection points: 2
#     Edge 33, Type (0, 0), BuildingBlock: KIFKEQ_clean_linker_1, # of connection points: 2
#     Edge 34, Type (0, 0), BuildingBlock: KIFKEQ_clean_linker_1, # of connection points: 2
#     Edge 35, Type (0, 0), BuildingBlock: KIFKEQ_clean_linker_1, # of connection points: 2
#     Edge 36, Type (0, 0), BuildingBlock: KIFKEQ_clean_linker_1, # of connection points: 2
#     Edge 37, Type (0, 0), BuildingBlock: KIFKEQ_clean_linker_1, # of connection points: 2
#     Edge 38, Type (0, 0), BuildingBlock: KIFKEQ_clean_linker_1, # of connection points: 2
#     Edge 39, Type (0, 0), BuildingBlock: KIFKEQ_clean_linker_1, # of connection points: 2
#     Edge 40, Type (0, 0), BuildingBlock: KIFKEQ_clean_linker_1, # of connection points: 2
#     Edge 41, Type (0, 0), BuildingBlock: KIFKEQ_clean_linker_1, # of connection points: 2
#     Edge 42, Type (0, 0), BuildingBlock: KIFKEQ_clean_linker_1, # of connection points: 2
#     Edge 43, Type (0, 0), BuildingBlock: KIFKEQ_clean_linker_1, # of connection points: 2
#     Edge 44, Type (0, 0), BuildingBlock: KIFKEQ_clean_linker_1, # of connection points: 2
#     Edge 45, Type (0, 0), BuildingBlock: KIFKEQ_clean_linker_1, # of connection points: 2
#     Edge 46, Type (0, 0), BuildingBlock: KIFKEQ_clean_linker_1, # of connection points: 2
#     Edge 47, Type (0, 0), BuildingBlock: KIFKEQ_clean_linker_1, # of connection points: 2
#     Edge 48, Type (0, 0), BuildingBlock: KIFKEQ_clean_linker_1, # of connection points: 2
#     Edge 49, Type (0, 0), BuildingBlock: KIFKEQ_clean_linker_1, # of connection points: 2
#     Edge 50, Type (0, 0), BuildingBlock: KIFKEQ_clean_linker_1, # of connection points: 2
#     Edge 51, Type (0, 0), BuildingBlock: KIFKEQ_clean_linker_1, # of connection points: 2
#     Edge 52, Type (0, 0), BuildingBlock: KIFKEQ_clean_linker_1, # of connection points: 2
#     Edge 53, Type (0, 0), BuildingBlock: KIFKEQ_clean_linker_1, # of connection points: 2
#     Edge 54, Type (0, 0), BuildingBlock: KIFKEQ_clean_linker_1, # of connection points: 2
#     Edge 55, Type (0, 0), BuildingBlock: KIFKEQ_clean_linker_1, # of connection points: 2
#     Edge 56, Type (0, 0), BuildingBlock: KIFKEQ_clean_linker_1, # of connection points: 2
#     Edge 57, Type (0, 0), BuildingBlock: KIFKEQ_clean_linker_1, # of connection points: 2
#     Edge 58, Type (0, 0), BuildingBlock: KIFKEQ_clean_linker_1, # of connection points: 2
#     Edge 59, Type (0, 0), BuildingBlock: KIFKEQ_clean_linker_1, # of connection points: 2
#     Edge 60, Type (0, 0), BuildingBlock: KIFKEQ_clean_linker_1, # of connection points: 2
#     Edge 61, Type (0, 0), BuildingBlock: KIFKEQ_clean_linker_1, # of connection points: 2
#     Edge 62, Type (0, 0), BuildingBlock: KIFKEQ_clean_linker_1, # of connection points: 2
#     Edge 63, Type (0, 0), BuildingBlock: KIFKEQ_clean_linker_1, # of connection points: 2
#     Edge 64, Type (0, 0), BuildingBlock: KIFKEQ_clean_linker_1, # of connection points: 2
#     Edge 65, Type (0, 0), BuildingBlock: KIFKEQ_clean_linker_1, # of connection points: 2
#     Edge 66, Type (0, 0), BuildingBlock: KIFKEQ_clean_linker_1, # of connection points: 2
#     Edge 67, Type (0, 0), BuildingBlock: KIFKEQ_clean_linker_1, # of connection points: 2
#     Edge 68, Type (0, 0), BuildingBlock: KIFKEQ_clean_linker_1, # of connection points: 2
#     Edge 69, Type (0, 0), BuildingBlock: KIFKEQ_clean_linker_1, # of connection points: 2
#     Edge 70, Type (0, 0), BuildingBlock: KIFKEQ_clean_linker_1, # of connection points: 2
#     Edge 71, Type (0, 0), BuildingBlock: KIFKEQ_clean_linker_1, # of connection points: 2
#     Edge 72, Type (0, 0), BuildingBlock: KIFKEQ_clean_linker_1, # of connection points: 2
#     Edge 73, Type (0, 0), BuildingBlock: KIFKEQ_clean_linker_1, # of connection points: 2
#     Edge 74, Type (0, 0), BuildingBlock: KIFKEQ_clean_linker_1, # of connection points: 2
#     Edge 75, Type (0, 0), BuildingBlock: KIFKEQ_clean_linker_1, # of connection points: 2
#     Edge 76, Type (0, 0), BuildingBlock: KIFKEQ_clean_linker_1, # of connection points: 2
#     Edge 77, Type (0, 0), BuildingBlock: KIFKEQ_clean_linker_1, # of connection points: 2
#     Edge 78, Type (0, 0), BuildingBlock: KIFKEQ_clean_linker_1, # of connection points: 2
#     Edge 79, Type (0, 0), BuildingBlock: KIFKEQ_clean_linker_1, # of connection points: 2
#     Edge 80, Type (0, 0), BuildingBlock: KIFKEQ_clean_linker_1, # of connection points: 2
#     Edge 81, Type (0, 0), BuildingBlock: KIFKEQ_clean_linker_1, # of connection points: 2
#     Edge 82, Type (0, 0), BuildingBlock: KIFKEQ_clean_linker_1, # of connection points: 2
#     Edge 83, Type (0, 0), BuildingBlock: KIFKEQ_clean_linker_1, # of connection points: 2
#     Edge 84, Type (0, 0), BuildingBlock: KIFKEQ_clean_linker_1, # of connection points: 2
#     Edge 85, Type (0, 0), BuildingBlock: KIFKEQ_clean_linker_1, # of connection points: 2
#     Edge 86, Type (0, 0), BuildingBlock: KIFKEQ_clean_linker_1, # of connection points: 2
#     Edge 87, Type (0, 0), BuildingBlock: KIFKEQ_clean_linker_1, # of connection points: 2
#     Edge 88, Type (0, 0), BuildingBlock: KIFKEQ_clean_linker_1, # of connection points: 2
#     Edge 89, Type (0, 0), BuildingBlock: KIFKEQ_clean_linker_1, # of connection points: 2
#     Edge 90, Type (0, 0), BuildingBlock: KIFKEQ_clean_linker_1, # of connection points: 2
#     Edge 91, Type (0, 0), BuildingBlock: KIFKEQ_clean_linker_1, # of connection points: 2
#     Edge 92, Type (0, 0), BuildingBlock: KIFKEQ_clean_linker_1, # of connection points: 2
#     Edge 93, Type (0, 0), BuildingBlock: KIFKEQ_clean_linker_1, # of connection points: 2
#     Edge 94, Type (0, 0), BuildingBlock: KIFKEQ_clean_linker_1, # of connection points: 2
#     Edge 95, Type (0, 0), BuildingBlock: KIFKEQ_clean_linker_1, # of connection points: 2
# Relax obj value: 0.292
# Max RMSD: 0.107
# Mean RMSD: 0.106
data_MOF--net-dei--node1-GALJAG_clean_sbu_0--edge1-KIFKEQ_clean_linker_1
_symmetry_space_group_name_H-M    P1
_symmetry_Int_Tables_number       1
_symmetry_cell_setting            triclinic
loop_
_symmetry_equiv_pos_as_xyz
'x, y, z'
_cell_length_a     57.768584
_cell_length_b     57.809564
_cell_length_c     83.11256
_cell_angle_alpha  89.965223
_cell_angle_beta   90.058489
_cell_angle_gamma 89.851227
loop_
_atom_site_label
_atom_site_type_symbol
_atom_site_fract_x
_atom_site_fract_y
_atom_site_fract_z
_atom_type_partial_charge
In0 In 0.147 0.6323 0.0326 0.0
O1 O 0.15416 0.60851 0.01092 0.0
O2 O 0.1687 0.59893 0.03327 0.0
C3 C 0.16331 0.6733 0.02096 0.0
C4 C 0.1005 0.63486 0.02984 0.0
C5 C 0.14958 0.62796 0.06496 0.0
O6 O 0.17505 0.66071 0.03034 0.0
O7 O 0.14433 0.66453 0.01678 0.0
O8 O 0.13491 0.61739 0.05649 0.0
O9 O 0.16332 0.64062 0.0571 0.0
C10 C 0.1654 0.59358 0.01878 0.0
O11 O 0.11212 0.64863 0.03838 0.0
O12 O 0.11234 0.61971 0.02261 0.0
In13 In 0.63972 0.89383 0.27936 0.0
O14 O 0.64526 0.87876 0.3043 0.0
O15 O 0.63992 0.91515 0.3025 0.0
C16 C 0.63523 0.84804 0.27343 0.0
C17 C 0.5984 0.91251 0.27012 0.0
C18 C 0.68086 0.91034 0.26809 0.0
O19 O 0.6216 0.85917 0.28238 0.0
O20 O 0.65114 0.86002 0.26726 0.0
O21 O 0.6624 0.91209 0.25998 0.0
O22 O 0.67816 0.90118 0.28166 0.0
C23 C 0.64369 0.89791 0.31151 0.0
O24 O 0.60861 0.91796 0.28297 0.0
O25 O 0.60992 0.89908 0.26121 0.0
In26 In 0.37382 0.38543 0.5342 0.0
O27 O 0.41078 0.38861 0.54327 0.0
O28 O 0.40629 0.3779 0.51907 0.0
C29 C 0.36531 0.39787 0.56484 0.0
C30 C 0.35831 0.4228 0.51712 0.0
C31 C 0.35936 0.3408 0.53036 0.0
O32 O 0.38405 0.40241 0.55769 0.0
O33 O 0.35041 0.38741 0.55636 0.0
O34 O 0.35466 0.3563 0.52014 0.0
O35 O 0.37058 0.34796 0.5423 0.0
C36 C 0.42025 0.38255 0.53029 0.0
O37 O 0.37469 0.41003 0.51252 0.0
O38 O 0.34868 0.41599 0.52984 0.0
In39 In 0.87456 0.12275 0.78028 0.0
O40 O 0.8619 0.13548 0.80469 0.0
O41 O 0.88178 0.10452 0.80422 0.0
C42 C 0.87657 0.16923 0.77728 0.0
C43 C 0.91614 0.10646 0.76943 0.0
C44 C 0.83551 0.1041 0.7671 0.0
O45 O 0.89105 0.15767 0.78535 0.0
O46 O 0.86092 0.15735 0.77065 0.0
O47 O 0.85104 0.11342 0.75864 0.0
O48 O 0.84042 0.10295 0.78182 0.0
C49 C 0.8709 0.11915 0.8126 0.0
O50 O 0.90357 0.09521 0.77904 0.0
O51 O 0.90695 0.12487 0.7644 0.0
In52 In 0.14516 0.38868 0.96933 0.0
O53 O 0.1093 0.39693 0.95957 0.0
O54 O 0.11265 0.39404 0.98488 0.0
C55 C 0.15132 0.38373 0.93739 0.0
C56 C 0.16323 0.42901 0.98077 0.0
C57 C 0.15934 0.34635 0.98023 0.0
O58 O 0.13487 0.37433 0.94494 0.0
O59 O 0.16528 0.39503 0.94607 0.0
O60 O 0.17298 0.3602 0.97333 0.0
O61 O 0.13931 0.35436 0.98231 0.0
C62 C 0.09942 0.39762 0.97305 0.0
O63 O 0.15934 0.41192 0.98983 0.0
O64 O 0.15896 0.4253 0.96616 0.0
In65 In 0.8857 0.89284 0.21605 0.0
O66 O 0.91509 0.91989 0.21647 0.0
O67 O 0.91624 0.89285 0.2336 0.0
C68 C 0.84356 0.9088 0.22607 0.0
C69 C 0.88495 0.89612 0.18363 0.0
C70 C 0.88963 0.84723 0.22249 0.0
O71 O 0.86177 0.91222 0.23415 0.0
O72 O 0.8469 0.89815 0.21311 0.0
O73 O 0.90194 0.85752 0.21222 0.0
O74 O 0.87528 0.86002 0.22975 0.0
C75 C 0.92632 0.91012 0.22761 0.0
O76 O 0.88147 0.87752 0.19114 0.0
O77 O 0.88912 0.91341 0.19247 0.0
In78 In 0.37393 0.63051 0.46673 0.0
O79 O 0.34996 0.60371 0.47944 0.0
O80 O 0.3829 0.59298 0.47108 0.0
C81 C 0.3532 0.66961 0.47815 0.0
C82 C 0.42009 0.63509 0.47078 0.0
C83 C 0.36689 0.6299 0.4346 0.0
O84 O 0.34626 0.65905 0.46581 0.0
O85 O 0.36928 0.65937 0.48557 0.0
O86 O 0.37825 0.64549 0.44167 0.0
O87 O 0.35857 0.61461 0.44378 0.0
C88 C 0.36439 0.58732 0.47795 0.0
O89 O 0.41028 0.63605 0.45725 0.0
O90 O 0.40653 0.63232 0.48253 0.0
In91 In 0.63227 0.12482 0.71567 0.0
O92 O 0.60355 0.09782 0.72167 0.0
O93 O 0.59587 0.13338 0.72414 0.0
C94 C 0.67051 0.1055 0.72972 0.0
C95 C 0.63689 0.11969 0.68355 0.0
C96 C 0.63439 0.17119 0.71919 0.0
O97 O 0.65637 0.11796 0.73736 0.0
O98 O 0.66449 0.10145 0.71545 0.0
O99 O 0.63005 0.16142 0.70598 0.0
O100 O 0.63794 0.15754 0.73081 0.0
C101 C 0.58854 0.11299 0.72509 0.0
O102 O 0.64934 0.13308 0.69182 0.0
O103 O 0.62202 0.10846 0.69151 0.0
In104 In 0.88118 0.39044 0.96831 0.0
O105 O 0.89651 0.38446 0.94348 0.0
O106 O 0.86034 0.39093 0.94482 0.0
C107 C 0.92603 0.40004 0.9744 0.0
C108 C 0.86853 0.34661 0.97672 0.0
C109 C 0.86176 0.42884 0.98183 0.0
O110 O 0.9153 0.40792 0.96235 0.0
O111 O 0.91402 0.38753 0.98362 0.0
O112 O 0.86788 0.41156 0.99011 0.0
O113 O 0.86415 0.42607 0.96694 0.0
C114 C 0.87773 0.38724 0.93598 0.0
O115 O 0.8539 0.36152 0.97216 0.0
O116 O 0.88893 0.35409 0.97752 0.0
In117 In 0.37405 0.12244 0.71907 0.0
O118 O 0.36337 0.13546 0.69442 0.0
O119 O 0.37851 0.10185 0.69577 0.0
C120 C 0.37807 0.16883 0.72243 0.0
C121 C 0.4159 0.10562 0.72891 0.0
C122 C 0.33408 0.105 0.73184 0.0
O123 O 0.38945 0.15724 0.71233 0.0
O124 O 0.3646 0.15702 0.7311 0.0
O125 O 0.35215 0.1077 0.74016 0.0
O126 O 0.3366 0.11007 0.71726 0.0
C127 C 0.36995 0.11758 0.68698 0.0
O128 O 0.4045 0.09666 0.71758 0.0
O129 O 0.40547 0.12185 0.73599 0.0
In130 In 0.63905 0.63578 0.4656 0.0
O131 O 0.624 0.64278 0.44087 0.0
O132 O 0.66006 0.63563 0.44216 0.0
C133 C 0.59377 0.62855 0.47167 0.0
C134 C 0.65233 0.67912 0.47469 0.0
C135 C 0.65721 0.59577 0.4778 0.0
O136 O 0.60352 0.62245 0.45878 0.0
O137 O 0.60704 0.63789 0.48185 0.0
O138 O 0.65388 0.61341 0.48644 0.0
O139 O 0.65253 0.59882 0.4632 0.0
C140 C 0.64271 0.63982 0.43334 0.0
O141 O 0.66662 0.66454 0.46922 0.0
O142 O 0.63205 0.67152 0.47605 0.0
In143 In 0.13789 0.88858 0.21787 0.0
O144 O 0.12561 0.88156 0.19245 0.0
O145 O 0.15362 0.90502 0.19522 0.0
C146 C 0.13231 0.84272 0.22306 0.0
C147 C 0.09859 0.91022 0.22819 0.0
C148 C 0.18109 0.89897 0.2287 0.0
O149 O 0.12871 0.85232 0.20969 0.0
O150 O 0.13861 0.8563 0.23411 0.0
O151 O 0.1638 0.91158 0.23205 0.0
O152 O 0.17634 0.88155 0.22024 0.0
C153 C 0.14026 0.89445 0.1857 0.0
O154 O 0.1094 0.91618 0.21571 0.0
O155 O 0.10863 0.89468 0.23625 0.0
In156 In 0.87974 0.63385 0.03509 0.0
O157 O 0.88048 0.66435 0.01751 0.0
O158 O 0.85169 0.66228 0.03311 0.0
C159 C 0.86853 0.59111 0.02388 0.0
C160 C 0.87073 0.63379 0.06697 0.0
C161 C 0.92622 0.63567 0.03205 0.0
O162 O 0.85721 0.60891 0.01969 0.0
O163 O 0.88504 0.59515 0.03334 0.0
O164 O 0.91587 0.63868 0.04523 0.0
O165 O 0.9131 0.63183 0.02019 0.0
C166 C 0.86225 0.67387 0.02255 0.0
O167 O 0.884 0.6482 0.06033 0.0
O168 O 0.86113 0.6198 0.05742 0.0
In169 In 0.12945 0.12302 0.78597 0.0
O170 O 0.09717 0.10093 0.79021 0.0
O171 O 0.10144 0.11512 0.76693 0.0
C172 C 0.17213 0.11019 0.77512 0.0
C173 C 0.13585 0.11774 0.8179 0.0
C174 C 0.12084 0.16801 0.77948 0.0
O175 O 0.15399 0.10002 0.77039 0.0
O176 O 0.16846 0.12626 0.78496 0.0
O177 O 0.11212 0.15751 0.79129 0.0
O178 O 0.13365 0.15569 0.77064 0.0
C179 C 0.08861 0.10388 0.77641 0.0
O180 O 0.13562 0.13717 0.81099 0.0
O181 O 0.13256 0.10062 0.80871 0.0
In182 In 0.63935 0.39049 0.53094 0.0
O183 O 0.62596 0.39708 0.55611 0.0
O184 O 0.66192 0.38997 0.55372 0.0
C185 C 0.59397 0.38208 0.52616 0.0
C186 C 0.65827 0.3499 0.52067 0.0
C187 C 0.65171 0.43311 0.51971 0.0
O188 O 0.60531 0.37383 0.53781 0.0
O189 O 0.60566 0.39433 0.51656 0.0
O190 O 0.65999 0.4148 0.51369 0.0
O191 O 0.63772 0.42965 0.53099 0.0
C192 C 0.64526 0.39474 0.563 0.0
O193 O 0.64154 0.35965 0.51362 0.0
O194 O 0.66659 0.36143 0.53218 0.0
In195 In 0.38388 0.88784 0.28198 0.0
O196 O 0.41282 0.9155 0.28055 0.0
O197 O 0.41691 0.88493 0.26693 0.0
C198 C 0.345 0.90678 0.26862 0.0
C199 C 0.38028 0.88986 0.31443 0.0
C200 C 0.38428 0.84166 0.27725 0.0
O201 O 0.36177 0.89965 0.26026 0.0
O202 O 0.34851 0.90572 0.28354 0.0
O203 O 0.39889 0.85186 0.28601 0.0
O204 O 0.36947 0.85478 0.27075 0.0
C205 C 0.42569 0.90377 0.27137 0.0
O206 O 0.37267 0.87327 0.30616 0.0
O207 O 0.38983 0.9057 0.30634 0.0
In208 In 0.6435 0.13589 0.53049 0.0
O209 O 0.60926 0.11982 0.52234 0.0
O210 O 0.60918 0.15541 0.52847 0.0
C211 C 0.64337 0.12913 0.56262 0.0
C212 C 0.66275 0.09767 0.51658 0.0
C213 C 0.66318 0.17755 0.52334 0.0
O214 O 0.62505 0.13042 0.55438 0.0
O215 O 0.66188 0.13136 0.55467 0.0
O216 O 0.65369 0.16505 0.51281 0.0
O217 O 0.6641 0.16837 0.53706 0.0
C218 C 0.59766 0.13821 0.52375 0.0
O219 O 0.65499 0.11442 0.50844 0.0
O220 O 0.6621 0.1009 0.53154 0.0
In221 In 0.13449 0.38695 0.78452 0.0
O222 O 0.12097 0.38371 0.81007 0.0
O223 O 0.15382 0.39956 0.80701 0.0
C224 C 0.12688 0.34111 0.78091 0.0
C225 C 0.09545 0.40872 0.77381 0.0
C226 C 0.17684 0.39627 0.77176 0.0
O227 O 0.12916 0.35073 0.7944 0.0
O228 O 0.12839 0.35462 0.76903 0.0
O229 O 0.16149 0.41182 0.77304 0.0
O230 O 0.17048 0.37661 0.77648 0.0
C231 C 0.13841 0.39274 0.81667 0.0
O232 O 0.10561 0.41425 0.78665 0.0
O233 O 0.10606 0.39367 0.76568 0.0
In234 In 0.88006 0.88732 0.03038 0.0
O235 O 0.86977 0.9096 0.00837 0.0
O236 O 0.8616 0.92249 0.03143 0.0
C237 C 0.86017 0.84613 0.02218 0.0
C238 C 0.92607 0.88237 0.02512 0.0
C239 C 0.87919 0.89387 0.06253 0.0
O240 O 0.87221 0.85775 0.01247 0.0
O241 O 0.85686 0.85602 0.03548 0.0
O242 O 0.89716 0.89701 0.05417 0.0
O243 O 0.86157 0.8876 0.05464 0.0
C244 C 0.86174 0.92618 0.01652 0.0
O245 O 0.9139 0.86691 0.03162 0.0
O246 O 0.91506 0.9004 0.02124 0.0
In247 In 0.37976 0.62158 0.28123 0.0
O248 O 0.4082 0.61085 0.26314 0.0
O249 O 0.41178 0.59947 0.28712 0.0
C250 C 0.34144 0.60445 0.26623 0.0
C251 C 0.3759 0.62175 0.31363 0.0
C252 C 0.37943 0.66782 0.27621 0.0
O253 O 0.34903 0.59644 0.27932 0.0
O254 O 0.35408 0.61986 0.26011 0.0
O255 O 0.36221 0.65707 0.28174 0.0
O256 O 0.39671 0.65525 0.27311 0.0
C257 C 0.42077 0.60072 0.27337 0.0
O258 O 0.38816 0.63608 0.30601 0.0
O259 O 0.36566 0.60709 0.30492 0.0
In260 In 0.64039 0.89272 0.46417 0.0
O261 O 0.60537 0.87754 0.4579 0.0
O262 O 0.60849 0.89435 0.48052 0.0
C263 C 0.64526 0.89869 0.43222 0.0
C264 C 0.65303 0.93534 0.47508 0.0
C265 C 0.6593 0.85145 0.47316 0.0
O266 O 0.62595 0.89929 0.43927 0.0
O267 O 0.66246 0.89505 0.44132 0.0
O268 O 0.66275 0.86061 0.45962 0.0
O269 O 0.64767 0.86386 0.48269 0.0
C270 C 0.59554 0.88385 0.47071 0.0
O271 O 0.66451 0.91742 0.47872 0.0
O272 O 0.63572 0.93145 0.46635 0.0
In273 In 0.37854 0.38947 0.71559 0.0
O274 O 0.40778 0.40911 0.72927 0.0
O275 O 0.41645 0.39054 0.70822 0.0
C276 C 0.34144 0.40478 0.733 0.0
C277 C 0.36668 0.39928 0.68498 0.0
C278 C 0.37959 0.34289 0.71893 0.0
O279 O 0.35471 0.38881 0.73765 0.0
O280 O 0.34771 0.41422 0.72006 0.0
O281 O 0.37425 0.35294 0.706 0.0
O282 O 0.38459 0.35632 0.73037 0.0
C283 C 0.42351 0.40291 0.71963 0.0
O284 O 0.36122 0.38066 0.69196 0.0
O285 O 0.37774 0.4135 0.69364 0.0
In286 In 0.88054 0.13302 0.96508 0.0
O287 O 0.91545 0.14665 0.95722 0.0
O288 O 0.91213 0.13637 0.98167 0.0
C289 C 0.87469 0.12527 0.93338 0.0
C290 C 0.87043 0.09017 0.97695 0.0
C291 C 0.86117 0.17427 0.97365 0.0
O292 O 0.89425 0.12651 0.94006 0.0
O293 O 0.85763 0.12792 0.94276 0.0
O294 O 0.85915 0.1656 0.95982 0.0
O295 O 0.87151 0.16135 0.98359 0.0
C296 C 0.92509 0.14426 0.97074 0.0
O297 O 0.85665 0.10702 0.97869 0.0
O298 O 0.88884 0.09526 0.96976 0.0
In299 In 0.13541 0.62333 0.21843 0.0
O300 O 0.10328 0.60116 0.21358 0.0
O301 O 0.10708 0.61429 0.2371 0.0
C302 C 0.17552 0.60461 0.23022 0.0
C303 C 0.14037 0.62323 0.18613 0.0
C304 C 0.13166 0.66917 0.22473 0.0
O305 O 0.15971 0.61213 0.23932 0.0
O306 O 0.17043 0.60528 0.21553 0.0
O307 O 0.11575 0.65761 0.21819 0.0
O308 O 0.14956 0.65763 0.22814 0.0
C309 C 0.09446 0.6034 0.22732 0.0
O310 O 0.14165 0.64145 0.19446 0.0
O311 O 0.13656 0.605 0.1941 0.0
In312 In 0.37637 0.88214 0.46819 0.0
O313 O 0.39303 0.88811 0.4438 0.0
O314 O 0.35739 0.87914 0.44396 0.0
C315 C 0.42221 0.87906 0.47419 0.0
C316 C 0.35824 0.8415 0.47906 0.0
C317 C 0.35904 0.92263 0.48012 0.0
O318 O 0.41131 0.86427 0.46603 0.0
O319 O 0.40998 0.89554 0.47944 0.0
O320 O 0.36175 0.90488 0.4888 0.0
O321 O 0.36398 0.91951 0.46556 0.0
C322 C 0.375 0.88429 0.43569 0.0
O323 O 0.34861 0.85334 0.46816 0.0
O324 O 0.37585 0.85092 0.48508 0.0
In325 In 0.88253 0.6273 0.21935 0.0
O326 O 0.89703 0.63194 0.19418 0.0
O327 O 0.86765 0.61023 0.19664 0.0
C328 C 0.88628 0.67353 0.2229 0.0
C329 C 0.92222 0.60812 0.23128 0.0
C330 C 0.83932 0.61728 0.23038 0.0
O331 O 0.88837 0.66336 0.20957 0.0
O332 O 0.88236 0.66034 0.23471 0.0
O333 O 0.85655 0.60462 0.23385 0.0
O334 O 0.8442 0.63452 0.22182 0.0
C335 C 0.88207 0.61958 0.18728 0.0
O336 O 0.91022 0.59844 0.22053 0.0
O337 O 0.91317 0.62623 0.2369 0.0
In338 In 0.14145 0.13376 0.96952 0.0
O339 O 0.15334 0.16119 0.98801 0.0
O340 O 0.16226 0.16624 0.9636 0.0
C341 C 0.15096 0.09214 0.98348 0.0
C342 C 0.14491 0.12189 0.93816 0.0
C343 C 0.09754 0.14712 0.97532 0.0
O344 O 0.16683 0.1067 0.98082 0.0
O345 O 0.13111 0.09893 0.97945 0.0
O346 O 0.10806 0.15218 0.96249 0.0
O347 O 0.10936 0.13579 0.9854 0.0
C348 C 0.16237 0.17435 0.97765 0.0
O349 O 0.12594 0.1226 0.94561 0.0
O350 O 0.16242 0.12694 0.94656 0.0
In351 In 0.63789 0.38996 0.71556 0.0
O352 O 0.64298 0.37527 0.69053 0.0
O353 O 0.64141 0.41191 0.69272 0.0
C354 C 0.63082 0.34482 0.72195 0.0
C355 C 0.5964 0.40897 0.72401 0.0
C356 C 0.68027 0.40286 0.72679 0.0
O357 O 0.62187 0.3551 0.71007 0.0
O358 O 0.64298 0.35749 0.73098 0.0
O359 O 0.66194 0.41228 0.73197 0.0
O360 O 0.67688 0.38756 0.71634 0.0
C361 C 0.64382 0.39462 0.68356 0.0
O362 O 0.60715 0.39496 0.73297 0.0
O363 O 0.60742 0.41475 0.71157 0.0
In364 In 0.37922 0.12712 0.5341 0.0
O365 O 0.39403 0.12312 0.55925 0.0
O366 O 0.35734 0.12369 0.55692 0.0
C367 C 0.4243 0.13435 0.52736 0.0
C368 C 0.35941 0.16827 0.52559 0.0
C369 C 0.36627 0.08475 0.52289 0.0
O370 O 0.41442 0.14257 0.53962 0.0
O371 O 0.41132 0.12265 0.51823 0.0
O372 O 0.35784 0.10318 0.51712 0.0
O373 O 0.38072 0.08795 0.53397 0.0
C374 C 0.37464 0.12203 0.56618 0.0
O375 O 0.3745 0.15832 0.51708 0.0
O376 O 0.35312 0.15667 0.53765 0.0
In377 In 0.63483 0.62785 0.2802 0.0
O378 O 0.60048 0.63033 0.2666 0.0
O379 O 0.60716 0.59889 0.27872 0.0
C380 C 0.67382 0.6089 0.26699 0.0
C381 C 0.63992 0.62671 0.31249 0.0
C382 C 0.63285 0.67415 0.2758 0.0
O383 O 0.658 0.61796 0.25861 0.0
O384 O 0.66922 0.60797 0.28176 0.0
O385 O 0.62287 0.66393 0.28725 0.0
O386 O 0.64381 0.661 0.26636 0.0
C387 C 0.59299 0.61073 0.27056 0.0
O388 O 0.65158 0.63986 0.30351 0.0
O389 O 0.62578 0.61378 0.30516 0.0
In390 In 0.14579 0.88368 0.03309 0.0
O391 O 0.17382 0.85542 0.03414 0.0
O392 O 0.15123 0.85514 0.01416 0.0
C393 C 0.15535 0.92775 0.02376 0.0
C394 C 0.15236 0.88388 0.0652 0.0
C395 C 0.09984 0.87875 0.02778 0.0
O396 O 0.16664 0.91071 0.01823 0.0
O397 O 0.13983 0.92231 0.03367 0.0
O398 O 0.10953 0.87362 0.04089 0.0
O399 O 0.11338 0.8862 0.01707 0.0
C400 C 0.16725 0.84497 0.02166 0.0
O401 O 0.13807 0.8708 0.05823 0.0
O402 O 0.16402 0.89665 0.0559 0.0
In403 In 0.88089 0.39008 0.78264 0.0
O404 O 0.90961 0.41772 0.77968 0.0
O405 O 0.91526 0.38454 0.76972 0.0
C406 C 0.84259 0.40982 0.76903 0.0
C407 C 0.87707 0.39426 0.81486 0.0
C408 C 0.88036 0.34354 0.77942 0.0
O409 O 0.85907 0.40185 0.76076 0.0
O410 O 0.84611 0.40909 0.78394 0.0
O411 O 0.89047 0.3538 0.79079 0.0
O412 O 0.87055 0.35677 0.7694 0.0
C413 C 0.9234 0.40433 0.77241 0.0
O414 O 0.89106 0.40638 0.80676 0.0
O415 O 0.86495 0.38049 0.80666 0.0
H416 H 0.14858 0.66033 0.16668 0.0
H417 H 0.13831 0.58637 0.16564 0.0
H418 H 0.15209 0.66075 0.13744 0.0
H419 H 0.14224 0.58669 0.13639 0.0
H420 H 0.12155 0.60173 0.08389 0.0
H421 H 0.12045 0.60014 0.11316 0.0
H422 H 0.17732 0.64842 0.11551 0.0
H423 H 0.17814 0.65032 0.08612 0.0
C424 C 0.14722 0.64413 0.1602 0.0
C425 C 0.14307 0.62332 0.16844 0.0
C426 C 0.14939 0.64435 0.14345 0.0
C427 C 0.14745 0.62376 0.13456 0.0
C428 C 0.14354 0.6029 0.14285 0.0
C429 C 0.14139 0.60269 0.15961 0.0
C430 C 0.13391 0.61192 0.09065 0.0
C431 C 0.1499 0.62619 0.08271 0.0
C432 C 0.13336 0.6109 0.10743 0.0
C433 C 0.14879 0.62416 0.11669 0.0
C434 C 0.16502 0.63821 0.10873 0.0
C435 C 0.16559 0.63919 0.09191 0.0
H436 H 0.68217 0.88789 0.41301 0.0
H437 H 0.61247 0.91506 0.41173 0.0
H438 H 0.68374 0.88948 0.38356 0.0
H439 H 0.61412 0.9168 0.38243 0.0
H440 H 0.63333 0.93507 0.3305 0.0
H441 H 0.63579 0.93738 0.35987 0.0
H442 H 0.66199 0.8674 0.36154 0.0
H443 H 0.65941 0.86501 0.33226 0.0
C444 C 0.66733 0.89444 0.40645 0.0
C445 C 0.64717 0.90125 0.41462 0.0
C446 C 0.66819 0.89526 0.38963 0.0
C447 C 0.64904 0.90325 0.38075 0.0
C448 C 0.6292 0.91077 0.38898 0.0
C449 C 0.62822 0.90964 0.40574 0.0
C450 C 0.63974 0.92025 0.33715 0.0
C451 C 0.64605 0.89982 0.32914 0.0
C452 C 0.6411 0.92156 0.35393 0.0
C453 C 0.64911 0.90257 0.36294 0.0
C454 C 0.65599 0.88237 0.35487 0.0
C455 C 0.65434 0.88095 0.33814 0.0
H456 H 0.34441 0.37025 0.66445 0.0
H457 H 0.37893 0.43638 0.66631 0.0
H458 H 0.34119 0.37347 0.6354 0.0
H459 H 0.37515 0.43996 0.6371 0.0
H460 H 0.39605 0.41799 0.5853 0.0
H461 H 0.39312 0.42162 0.61436 0.0
H462 H 0.3242 0.39278 0.61272 0.0
H463 H 0.32746 0.38855 0.58355 0.0
C464 C 0.35092 0.38572 0.65867 0.0
C465 C 0.36211 0.40298 0.66766 0.0
C466 C 0.34892 0.38765 0.64198 0.0
C467 C 0.358 0.40693 0.63385 0.0
C468 C 0.36826 0.42472 0.64295 0.0
C469 C 0.37031 0.42275 0.65969 0.0
C470 C 0.38014 0.4127 0.59111 0.0
C471 C 0.36207 0.40277 0.58216 0.0
C472 C 0.37838 0.41494 0.60779 0.0
C473 C 0.35847 0.40737 0.61594 0.0
C474 C 0.33993 0.39845 0.60686 0.0
C475 C 0.34173 0.39613 0.59015 0.0
H476 H 0.90896 0.11499 0.91225 0.0
H477 H 0.83535 0.1277 0.91495 0.0
H478 H 0.90624 0.11144 0.88316 0.0
H479 H 0.83257 0.12393 0.88563 0.0
H480 H 0.84673 0.14757 0.83268 0.0
H481 H 0.84589 0.14675 0.86203 0.0
H482 H 0.89031 0.08653 0.86187 0.0
H483 H 0.89135 0.0875 0.83249 0.0
C484 C 0.89213 0.11681 0.90662 0.0
C485 C 0.87237 0.12171 0.91586 0.0
C486 C 0.89056 0.11461 0.88995 0.0
C487 C 0.86919 0.11737 0.8821 0.0
C488 C 0.8493 0.12189 0.89135 0.0
C489 C 0.85086 0.12394 0.90811 0.0
C490 C 0.85618 0.13406 0.83891 0.0
C491 C 0.86925 0.1177 0.83031 0.0
C492 C 0.85555 0.13349 0.85571 0.0
C493 C 0.86808 0.11662 0.86426 0.0
C494 C 0.88068 0.0999 0.85562 0.0
C495 C 0.88122 0.1004 0.8388 0.0
H496 H 0.17697 0.41177 0.91785 0.0
H497 H 0.12781 0.35567 0.91689 0.0
H498 H 0.17452 0.41497 0.8886 0.0
H499 H 0.12602 0.35814 0.88769 0.0
H500 H 0.10519 0.38545 0.83919 0.0
H501 H 0.10989 0.38316 0.86821 0.0
H502 H 0.18289 0.3978 0.86312 0.0
H503 H 0.17786 0.40099 0.83399 0.0
C504 C 0.16601 0.39981 0.91134 0.0
C505 C 0.15246 0.38357 0.91964 0.0
C506 C 0.16462 0.40161 0.89457 0.0
C507 C 0.14979 0.38705 0.88576 0.0
C508 C 0.13713 0.37008 0.89409 0.0
C509 C 0.13832 0.36848 0.91082 0.0
C510 C 0.1222 0.38839 0.84428 0.0
C511 C 0.14116 0.39335 0.83434 0.0
C512 C 0.12498 0.38684 0.86093 0.0
C513 C 0.14687 0.3899 0.86805 0.0
C514 C 0.16576 0.39547 0.85809 0.0
C515 C 0.1629 0.39727 0.8414 0.0
H516 H 0.91359 0.9111 0.08158 0.0
H517 H 0.84461 0.88253 0.0834 0.0
H518 H 0.91431 0.91329 0.11095 0.0
H519 H 0.84536 0.88474 0.11275 0.0
H520 H 0.87007 0.86256 0.1633 0.0
H521 H 0.86786 0.86383 0.13406 0.0
H522 H 0.89473 0.93346 0.13443 0.0
H523 H 0.89693 0.93222 0.1639 0.0
C524 C 0.89852 0.90546 0.08825 0.0
C525 C 0.87908 0.89653 0.08021 0.0
C526 C 0.8989 0.90684 0.10505 0.0
C527 C 0.87993 0.8991 0.11413 0.0
C528 C 0.86032 0.89061 0.10605 0.0
C529 C 0.85986 0.88944 0.08926 0.0
C530 C 0.87548 0.87818 0.15717 0.0
C531 C 0.88369 0.8973 0.16588 0.0
C532 C 0.87406 0.87895 0.14043 0.0
C533 C 0.88101 0.89878 0.13197 0.0
C534 C 0.88935 0.91791 0.14065 0.0
C535 C 0.89054 0.91724 0.15748 0.0
H536 H 0.35513 0.59294 0.4158 0.0
H537 H 0.37483 0.66484 0.4135 0.0
H538 H 0.35657 0.59061 0.38648 0.0
H539 H 0.37522 0.66295 0.38428 0.0
H540 H 0.40227 0.64598 0.33477 0.0
H541 H 0.39859 0.64766 0.36386 0.0
H542 H 0.33985 0.60154 0.36154 0.0
H543 H 0.34433 0.5991 0.33236 0.0
C544 C 0.35933 0.60835 0.40899 0.0
C545 C 0.36505 0.62901 0.4169 0.0
C546 C 0.36009 0.60706 0.39218 0.0
C547 C 0.36631 0.62652 0.38295 0.0
C548 C 0.37099 0.64744 0.39095 0.0
C549 C 0.37057 0.6486 0.40772 0.0
C550 C 0.38861 0.63617 0.34049 0.0
C551 C 0.37359 0.62243 0.33131 0.0
C552 C 0.38633 0.63727 0.35718 0.0
C553 C 0.36874 0.62494 0.36512 0.0
C554 C 0.35375 0.61108 0.3559 0.0
C555 C 0.35623 0.60975 0.33917 0.0
H556 H 0.61095 0.09404 0.6625 0.0
H557 H 0.66751 0.14267 0.66461 0.0
H558 H 0.61333 0.09402 0.63311 0.0
H559 H 0.66958 0.14305 0.63539 0.0
H560 H 0.68035 0.12501 0.58297 0.0
H561 H 0.67961 0.12004 0.61214 0.0
H562 H 0.60481 0.12058 0.61118 0.0
H563 H 0.60559 0.12502 0.58202 0.0
C564 C 0.62394 0.10462 0.65669 0.0
C565 C 0.639 0.11839 0.66585 0.0
C566 C 0.62523 0.10473 0.63987 0.0
C567 C 0.64161 0.11859 0.63189 0.0
C568 C 0.65697 0.13194 0.64112 0.0
C569 C 0.65568 0.13183 0.65789 0.0
C570 C 0.66377 0.12394 0.589 0.0
C571 C 0.64304 0.12552 0.58023 0.0
C572 C 0.66333 0.12119 0.60571 0.0
C573 C 0.64215 0.11997 0.61402 0.0
C574 C 0.62143 0.12114 0.60516 0.0
C575 C 0.62187 0.12387 0.58846 0.0
H576 H 0.90521 0.41771 0.83565 0.0
H577 H 0.84605 0.37221 0.83411 0.0
H578 H 0.90453 0.41644 0.86505 0.0
H579 H 0.84548 0.37081 0.86344 0.0
H580 H 0.83949 0.39237 0.91682 0.0
H581 H 0.83844 0.39547 0.88746 0.0
H582 H 0.91266 0.38659 0.88581 0.0
H583 H 0.91374 0.38366 0.91506 0.0
C584 C 0.89197 0.40759 0.84159 0.0
C585 C 0.87574 0.395 0.8326 0.0
C586 C 0.89167 0.40674 0.85841 0.0
C587 C 0.87504 0.3934 0.86654 0.0
C588 C 0.8584 0.38136 0.85752 0.0
C589 C 0.8588 0.38209 0.84073 0.0
C590 C 0.85554 0.39096 0.91016 0.0
C591 C 0.87668 0.38774 0.91822 0.0
C592 C 0.85494 0.39271 0.89337 0.0
C593 C 0.87549 0.39145 0.88435 0.0
C594 C 0.89658 0.38801 0.89244 0.0
C595 C 0.89716 0.38612 0.90918 0.0
H596 H 0.34713 0.14649 0.66654 0.0
H597 H 0.38957 0.08487 0.6675 0.0
H598 H 0.34685 0.14549 0.63721 0.0
H599 H 0.38926 0.08387 0.63806 0.0
H600 H 0.4092 0.11262 0.58747 0.0
H601 H 0.4064 0.1093 0.61665 0.0
H602 H 0.33274 0.1217 0.6139 0.0
H603 H 0.33554 0.12505 0.58459 0.0
C604 C 0.35622 0.13261 0.66047 0.0
C605 C 0.36847 0.11581 0.66929 0.0
C606 C 0.35593 0.13196 0.64368 0.0
C607 C 0.36807 0.11463 0.63535 0.0
C608 C 0.37992 0.09753 0.64418 0.0
C609 C 0.38001 0.09804 0.66101 0.0
C610 C 0.39238 0.11452 0.59308 0.0
C611 C 0.37259 0.1192 0.58378 0.0
C612 C 0.39076 0.11244 0.60977 0.0
C613 C 0.36935 0.11522 0.61754 0.0
C614 C 0.34949 0.11964 0.60822 0.0
C615 C 0.35108 0.12149 0.59147 0.0
H616 H 0.68067 0.63463 0.41389 0.0
H617 H 0.60638 0.64328 0.41269 0.0
H618 H 0.68104 0.63065 0.38454 0.0
H619 H 0.60678 0.63936 0.38352 0.0
H620 H 0.61301 0.6044 0.33455 0.0
H621 H 0.61472 0.60774 0.36383 0.0
H622 H 0.67279 0.65425 0.3597 0.0
H623 H 0.67116 0.65085 0.33042 0.0
C624 C 0.66448 0.63588 0.40735 0.0
C625 C 0.64351 0.63926 0.41558 0.0
C626 C 0.66469 0.63362 0.39058 0.0
C627 C 0.6439 0.63446 0.38177 0.0
C628 C 0.62302 0.63825 0.39001 0.0
C629 C 0.62284 0.6407 0.4067 0.0
C630 C 0.62624 0.61519 0.3399 0.0
C631 C 0.64189 0.62742 0.33021 0.0
C632 C 0.62714 0.61721 0.35665 0.0
C633 C 0.6438 0.63139 0.36404 0.0
C634 C 0.65986 0.6431 0.35435 0.0
C635 C 0.65885 0.64122 0.3376 0.0
H636 H 0.1088 0.88021 0.16365 0.0
H637 H 0.17662 0.91082 0.16793 0.0
H638 H 0.1132 0.87846 0.13462 0.0
H639 H 0.18152 0.90826 0.13873 0.0
H640 H 0.17141 0.9182 0.0836 0.0
H641 H 0.16894 0.92235 0.11285 0.0
H642 H 0.13435 0.85625 0.11578 0.0
H643 H 0.13603 0.85266 0.08668 0.0
C644 C 0.12467 0.88659 0.15834 0.0
C645 C 0.14241 0.89554 0.16803 0.0
C646 C 0.12731 0.88539 0.1417 0.0
C647 C 0.14792 0.89279 0.13432 0.0
C648 C 0.1654 0.90248 0.14399 0.0
C649 C 0.16263 0.90392 0.16071 0.0
C650 C 0.16351 0.9045 0.09057 0.0
C651 C 0.15373 0.88521 0.0829 0.0
C652 C 0.16211 0.90684 0.10732 0.0
C653 C 0.15107 0.88983 0.11667 0.0
C654 C 0.14235 0.87003 0.10895 0.0
C655 C 0.14351 0.86784 0.09227 0.0
H656 H 0.88557 0.66485 0.08916 0.0
H657 H 0.85234 0.59834 0.08464 0.0
H658 H 0.88732 0.66001 0.1182 0.0
H659 H 0.85472 0.59309 0.11381 0.0
H660 H 0.84612 0.60307 0.16914 0.0
H661 H 0.84134 0.60642 0.13997 0.0
H662 H 0.90945 0.63678 0.13646 0.0
H663 H 0.91385 0.63406 0.16549 0.0
C664 C 0.87849 0.64924 0.09441 0.0
C665 C 0.86892 0.63193 0.08464 0.0
C666 C 0.8797 0.64634 0.11105 0.0
C667 C 0.87159 0.62594 0.11832 0.0
C668 C 0.86109 0.60902 0.10861 0.0
C669 C 0.85972 0.61202 0.09191 0.0
C670 C 0.86014 0.61019 0.16206 0.0
C671 C 0.88029 0.61846 0.16958 0.0
C672 C 0.85741 0.61211 0.14537 0.0
C673 C 0.87483 0.62226 0.1359 0.0
C674 C 0.89541 0.62947 0.14342 0.0
C675 C 0.89805 0.6277 0.16005 0.0
H676 H 0.12696 0.08044 0.83728 0.0
H677 H 0.15326 0.1503 0.83801 0.0
H678 H 0.13141 0.07825 0.86662 0.0
H679 H 0.15792 0.14801 0.86712 0.0
H680 H 0.18112 0.1297 0.91775 0.0
H681 H 0.18115 0.12592 0.8884 0.0
H682 H 0.1113 0.09966 0.88995 0.0
H683 H 0.11116 0.1036 0.9192 0.0
C684 C 0.1339 0.09519 0.84369 0.0
C685 C 0.13964 0.11557 0.83541 0.0
C686 C 0.13639 0.09397 0.86043 0.0
C687 C 0.14508 0.11294 0.86911 0.0
C688 C 0.15144 0.13303 0.86073 0.0
C689 C 0.1486 0.13439 0.84408 0.0
C690 C 0.16592 0.12281 0.91183 0.0
C691 C 0.14608 0.1171 0.92072 0.0
C692 C 0.16591 0.12073 0.89506 0.0
C693 C 0.1462 0.11257 0.88693 0.0
C694 C 0.12678 0.10582 0.89591 0.0
C695 C 0.12667 0.10821 0.91264 0.0
H696 H 0.68158 0.38112 0.58201 0.0
H697 H 0.6143 0.41381 0.58365 0.0
H698 H 0.68392 0.38307 0.61145 0.0
H699 H 0.61673 0.4159 0.61289 0.0
H700 H 0.6373 0.43276 0.66459 0.0
H701 H 0.64033 0.43491 0.63522 0.0
H702 H 0.66078 0.36305 0.63372 0.0
H703 H 0.65762 0.36083 0.66295 0.0
C704 C 0.66745 0.38893 0.58864 0.0
C705 C 0.64771 0.39717 0.58059 0.0
C706 C 0.66876 0.38999 0.60545 0.0
C707 C 0.65051 0.39967 0.61441 0.0
C708 C 0.63115 0.40858 0.60628 0.0
C709 C 0.62969 0.40722 0.58955 0.0
C710 C 0.64263 0.41751 0.65797 0.0
C711 C 0.64705 0.39659 0.666 0.0
C712 C 0.64432 0.41873 0.6412 0.0
C713 C 0.65079 0.39914 0.63223 0.0
C714 C 0.65599 0.37847 0.64034 0.0
C715 C 0.65399 0.37717 0.65706 0.0
H716 H 0.39712 0.92237 0.3353 0.0
H717 H 0.35899 0.85824 0.33361 0.0
H718 H 0.39463 0.92216 0.36467 0.0
H719 H 0.35678 0.85785 0.36288 0.0
H720 H 0.33902 0.8755 0.4151 0.0
H721 H 0.33918 0.87823 0.38571 0.0
H722 H 0.41081 0.89947 0.38694 0.0
H723 H 0.41055 0.89703 0.41619 0.0
C724 C 0.38818 0.90827 0.3412 0.0
C725 C 0.37831 0.8903 0.33216 0.0
C726 C 0.38684 0.90808 0.35801 0.0
C727 C 0.37553 0.88996 0.36611 0.0
C728 C 0.36536 0.8722 0.35702 0.0
C729 C 0.36677 0.87235 0.34024 0.0
C730 C 0.35475 0.8808 0.40906 0.0
C731 C 0.37477 0.88599 0.41794 0.0
C732 C 0.35488 0.88229 0.39225 0.0
C733 C 0.37501 0.8891 0.38399 0.0
C734 C 0.39494 0.89448 0.39293 0.0
C735 C 0.39483 0.89291 0.40969 0.0
H736 H 0.0714 0.60604 0.01341 0.0
H737 H 0.07208 0.66639 0.04404 0.0
H738 H 0.02909 0.60693 0.01313 0.0
H739 H 0.02994 0.66755 0.04351 0.0
H740 H 0.95687 0.64392 0.05615 0.0
H741 H 0.9989 0.64429 0.05466 0.0
H742 H 0.99539 0.62952 0.00376 0.0
H743 H 0.95308 0.62875 0.00532 0.0
C744 C 0.06251 0.61961 0.01995 0.0
C745 C 0.07501 0.63605 0.02884 0.0
C746 C 0.0383 0.6202 0.01972 0.0
C747 C 0.02617 0.63723 0.02838 0.0
C748 C 0.03877 0.65398 0.03693 0.0
C749 C 0.06291 0.65339 0.03717 0.0
C750 C 0.96504 0.64081 0.04462 0.0
C751 C 0.9517 0.63633 0.03084 0.0
C752 C 0.98914 0.64117 0.04375 0.0
C753 C 1.00049 0.63706 0.02908 0.0
C754 C 0.98714 0.63257 0.01527 0.0
C755 C 0.96295 0.63225 0.01614 0.0
H756 H 0.6145 0.70529 0.29666 0.0
H757 H 0.64971 0.70033 0.25098 0.0
H758 H 0.61432 0.74717 0.29453 0.0
H759 H 0.64885 0.74249 0.24851 0.0
H760 H 0.66744 0.81865 0.26065 0.0
H761 H 0.66604 0.77645 0.25999 0.0
H762 H 0.59723 0.77841 0.28037 0.0
H763 H 0.59909 0.82043 0.28159 0.0
C764 C 0.62197 0.71318 0.28605 0.0
C765 C 0.63212 0.69955 0.27399 0.0
C766 C 0.62172 0.73722 0.28476 0.0
C767 C 0.63144 0.74827 0.27128 0.0
C768 C 0.64143 0.73458 0.25912 0.0
C769 C 0.64182 0.71044 0.26048 0.0
C770 C 0.65196 0.81001 0.26484 0.0
C771 C 0.63347 0.82276 0.27132 0.0
C772 C 0.65109 0.78583 0.2644 0.0
C773 C 0.63162 0.77397 0.2703 0.0
C774 C 0.61272 0.78691 0.27609 0.0
C775 C 0.61371 0.81101 0.27668 0.0
H776 H 0.44547 0.37398 0.50297 0.0
H777 H 0.45236 0.38784 0.55383 0.0
H778 H 0.48775 0.37174 0.5006 0.0
H779 H 0.49426 0.3857 0.55144 0.0
H780 H 0.56608 0.35736 0.54602 0.0
H781 H 0.52398 0.3557 0.54586 0.0
H782 H 0.52231 0.39856 0.50329 0.0
H783 H 0.56469 0.4001 0.50337 0.0
C784 C 0.456 0.3765 0.51362 0.0
C785 C 0.44565 0.38104 0.52859 0.0
C786 C 0.48014 0.37531 0.51224 0.0
C787 C 0.49427 0.37838 0.52585 0.0
C788 C 0.48383 0.38289 0.54079 0.0
C789 C 0.45982 0.38426 0.54213 0.0
C790 C 0.55678 0.36622 0.53651 0.0
C791 C 0.56866 0.37905 0.52479 0.0
C792 C 0.53266 0.36535 0.53646 0.0
C793 C 0.51986 0.37724 0.52468 0.0
C794 C 0.53175 0.38917 0.51249 0.0
C795 C 0.55597 0.39011 0.51256 0.0
H796 H 0.89581 0.31266 0.80158 0.0
H797 H 0.86371 0.31693 0.75472 0.0
H798 H 0.8948 0.27072 0.80023 0.0
H799 H 0.86338 0.27467 0.75307 0.0
H800 H 0.84415 0.19871 0.76467 0.0
H801 H 0.84511 0.24097 0.7645 0.0
H802 H 0.91277 0.23924 0.78675 0.0
H803 H 0.91139 0.19721 0.78741 0.0
C804 C 0.88872 0.3046 0.7909 0.0
C805 C 0.87989 0.31807 0.77824 0.0
C806 C 0.88827 0.28052 0.79007 0.0
C807 C 0.87919 0.26926 0.77647 0.0
C808 C 0.8703 0.28277 0.76378 0.0
C809 C 0.8706 0.30695 0.76467 0.0
C810 C 0.85924 0.20742 0.76946 0.0
C811 C 0.87761 0.1947 0.77617 0.0
C812 C 0.85986 0.23162 0.76928 0.0
C813 C 0.87894 0.24355 0.77574 0.0
C814 C 0.89758 0.23068 0.782 0.0
C815 C 0.89687 0.20656 0.78229 0.0
H816 H 0.95387 0.42963 0.95795 0.0
H817 H 0.95486 0.37824 0.99568 0.0
H818 H 0.99589 0.4323 0.95921 0.0
H819 H 0.99706 0.38034 0.99662 0.0
H820 H 0.07344 0.39906 0.00062 0.0
H821 H 0.03132 0.40298 0.00268 0.0
H822 H 0.02666 0.40733 0.95085 0.0
H823 H 0.06844 0.40403 0.94888 0.0
C824 C 0.96308 0.41903 0.96661 0.0
C825 C 0.95113 0.40357 0.97661 0.0
C826 C 0.98718 0.42045 0.96727 0.0
C827 C 0.99989 0.40628 0.97784 0.0
C828 C 0.98782 0.39162 0.98841 0.0
C829 C 0.96365 0.39033 0.98783 0.0
C830 C 0.06335 0.4011 0.98972 0.0
C831 C 0.0742 0.40123 0.9746 0.0
C832 C 0.03926 0.40322 0.99088 0.0
C833 C 0.02559 0.40552 0.97694 0.0
C834 C 0.03662 0.40603 0.96186 0.0
C835 C 0.0606 0.40396 0.96072 0.0
H836 H 0.92151 0.81779 0.20991 0.0
H837 H 0.86118 0.81969 0.24056 0.0
H838 H 0.92224 0.77579 0.21168 0.0
H839 H 0.8616 0.77741 0.24205 0.0
H840 H 0.88068 0.70045 0.24982 0.0
H841 H 0.8831 0.74273 0.2515 0.0
H842 H 0.89767 0.74583 0.20056 0.0
H843 H 0.89564 0.70396 0.19896 0.0
C844 C 0.90846 0.80922 0.21711 0.0
C845 C 0.89114 0.82199 0.22496 0.0
C846 C 0.90882 0.78514 0.21806 0.0
C847 C 0.89178 0.77325 0.22682 0.0
C848 C 0.87503 0.78607 0.23528 0.0
C849 C 0.87472 0.81026 0.23436 0.0
C850 C 0.88451 0.71024 0.23904 0.0
C851 C 0.88803 0.69893 0.22428 0.0
C852 C 0.88579 0.7344 0.23998 0.0
C853 C 0.89073 0.74761 0.22618 0.0
C854 C 0.89427 0.73617 0.21147 0.0
C855 C 0.89295 0.71215 0.21054 0.0
H856 H 0.45145 0.64185 0.44701 0.0
H857 H 0.44617 0.62881 0.49806 0.0
H858 H 0.49336 0.63923 0.44875 0.0
H859 H 0.48846 0.62584 0.49978 0.0
H860 H 0.56715 0.64728 0.49567 0.0
H861 H 0.52479 0.64904 0.49667 0.0
H862 H 0.5212 0.60795 0.45334 0.0
H863 H 0.56324 0.60654 0.4522 0.0
C864 C 0.45927 0.63851 0.45864 0.0
C865 C 0.44554 0.63541 0.47239 0.0
C866 C 0.48329 0.63682 0.45961 0.0
C867 C 0.49419 0.63194 0.47435 0.0
C868 C 0.48053 0.62962 0.48826 0.0
C869 C 0.45637 0.63129 0.48727 0.0
C870 C 0.55725 0.63836 0.48651 0.0
C871 C 0.56846 0.62698 0.47376 0.0
C872 C 0.53303 0.63935 0.4871 0.0
C873 C 0.5197 0.62898 0.47492 0.0
C874 C 0.531 0.61658 0.46268 0.0
C875 C 0.55509 0.61564 0.46209 0.0
H876 H 0.63149 0.20277 0.69516 0.0
H877 H 0.63698 0.19694 0.74684 0.0
H878 H 0.62954 0.24459 0.69743 0.0
H879 H 0.63444 0.23913 0.74918 0.0
H880 H 0.65519 0.31704 0.74262 0.0
H881 H 0.6558 0.27473 0.74308 0.0
H882 H 0.60254 0.27351 0.70654 0.0
H883 H 0.60241 0.31557 0.70579 0.0
C884 C 0.63221 0.21046 0.70703 0.0
C885 C 0.63429 0.1966 0.72083 0.0
C886 C 0.6309 0.23444 0.70835 0.0
C887 C 0.63147 0.2452 0.72351 0.0
C888 C 0.63402 0.23136 0.73733 0.0
C889 C 0.63543 0.20725 0.736 0.0
C890 C 0.64341 0.30768 0.73486 0.0
C891 C 0.62894 0.31956 0.72404 0.0
C892 C 0.64372 0.28346 0.73515 0.0
C893 C 0.6295 0.27076 0.72464 0.0
C894 C 0.61413 0.28277 0.71449 0.0
C895 C 0.61392 0.30688 0.71415 0.0
H896 H 0.38639 0.31662 0.74603 0.0
H897 H 0.37311 0.31167 0.69498 0.0
H898 H 0.38673 0.27426 0.74792 0.0
H899 H 0.37343 0.26966 0.69689 0.0
H900 H 0.40221 0.19715 0.70255 0.0
H901 H 0.40324 0.23925 0.70265 0.0
H902 H 0.35854 0.24042 0.74425 0.0
H903 H 0.35749 0.19801 0.74418 0.0
C904 C 0.38356 0.3065 0.73525 0.0
C905 C 0.37983 0.31742 0.72035 0.0
C906 C 0.38365 0.28232 0.73635 0.0
C907 C 0.38025 0.26871 0.72253 0.0
C908 C 0.37642 0.27971 0.70769 0.0
C909 C 0.37614 0.30377 0.70662 0.0
C910 C 0.39272 0.20634 0.7118 0.0
C911 C 0.37966 0.1943 0.72331 0.0
C912 C 0.39323 0.23046 0.7118 0.0
C913 C 0.38083 0.24309 0.72337 0.0
C914 C 0.36834 0.23108 0.73523 0.0
C915 C 0.36766 0.20686 0.73514 0.0
H916 H 0.0953 0.69725 0.21727 0.0
H917 H 0.16425 0.69815 0.23742 0.0
H918 H 0.09363 0.73933 0.21885 0.0
H919 H 0.16269 0.74037 0.23881 0.0
H920 H 0.14484 0.81645 0.24917 0.0
H921 H 0.14307 0.77421 0.2516 0.0
H922 H 0.11345 0.77007 0.20394 0.0
H923 H 0.11503 0.81195 0.20159 0.0
C924 C 0.11003 0.70643 0.22216 0.0
C925 C 0.12998 0.69444 0.22709 0.0
C926 C 0.10911 0.73054 0.223 0.0
C927 C 0.12811 0.74318 0.22882 0.0
C928 C 0.14771 0.73111 0.23438 0.0
C929 C 0.14865 0.70696 0.2335 0.0
C930 C 0.13776 0.80646 0.23931 0.0
C931 C 0.1301 0.81746 0.22518 0.0
C932 C 0.13686 0.78232 0.24066 0.0
C933 C 0.12807 0.76883 0.22797 0.0
C934 C 0.12 0.77997 0.21402 0.0
C935 C 0.12105 0.80398 0.21263 0.0
H936 H 0.09201 0.19679 0.79587 0.0
H937 H 0.14325 0.19603 0.75806 0.0
H938 H 0.09061 0.23886 0.79466 0.0
H939 H 0.14226 0.23828 0.75709 0.0
H940 H 0.12194 0.31001 0.8051 0.0
H941 H 0.11781 0.26833 0.80303 0.0
H942 H 0.11939 0.27336 0.75116 0.0
H943 H 0.12396 0.31538 0.75328 0.0
C944 C 0.10281 0.20562 0.78719 0.0
C945 C 0.11791 0.19317 0.77718 0.0
C946 C 0.1021 0.22973 0.78655 0.0
C947 C 0.11657 0.24193 0.77595 0.0
C948 C 0.1308 0.2294 0.76533 0.0
C949 C 0.13145 0.20521 0.76593 0.0
C950 C 0.12128 0.30227 0.79324 0.0
C951 C 0.12331 0.31594 0.77935 0.0
C952 C 0.11872 0.27838 0.79204 0.0
C953 C 0.11812 0.26752 0.77692 0.0
C954 C 0.11994 0.28121 0.76298 0.0
C955 C 0.12245 0.30524 0.76419 0.0
H956 H 0.41595 0.69484 0.26751 0.0
H957 H 0.34378 0.69814 0.28089 0.0
H958 H 0.41727 0.73701 0.26616 0.0
H959 H 0.34515 0.74033 0.27965 0.0
H960 H 0.35156 0.81527 0.26224 0.0
H961 H 0.35033 0.77307 0.26037 0.0
H962 H 0.41503 0.76868 0.2863 0.0
H963 H 0.41633 0.81075 0.2881 0.0
C964 C 0.40034 0.70457 0.27005 0.0
C965 C 0.37979 0.69322 0.27437 0.0
C966 C 0.40113 0.7287 0.26936 0.0
C967 C 0.38134 0.74196 0.27287 0.0
C968 C 0.36061 0.73057 0.27674 0.0
C969 C 0.35987 0.70643 0.27754 0.0
C970 C 0.36559 0.80527 0.26743 0.0
C971 C 0.38402 0.81627 0.27534 0.0
C972 C 0.36482 0.78113 0.26643 0.0
C973 C 0.38257 0.76758 0.2732 0.0
C974 C 0.40123 0.77866 0.28081 0.0
C975 C 0.40191 0.80275 0.28192 0.0
H976 H 0.45466 0.15948 0.54516 0.0
H977 H 0.45055 0.11539 0.50332 0.0
H978 H 0.49646 0.16169 0.5421 0.0
H979 H 0.49256 0.11792 0.50006 0.0
H980 H 0.56884 0.10271 0.51568 0.0
H981 H 0.52664 0.10343 0.51455 0.0
H982 H 0.52716 0.17662 0.52508 0.0
H983 H 0.56933 0.17577 0.52653 0.0
C984 C 0.46268 0.1505 0.53517 0.0
C985 C 0.44936 0.13718 0.52452 0.0
C986 C 0.48664 0.1519 0.53335 0.0
C987 C 0.49786 0.13998 0.52084 0.0
C988 C 0.48445 0.12711 0.50992 0.0
C989 C 0.46041 0.12576 0.51173 0.0
C990 C 0.55993 0.11899 0.51757 0.0
C991 C 0.57235 0.13913 0.52134 0.0
C992 C 0.53576 0.11944 0.51683 0.0
C993 C 0.52353 0.14005 0.51984 0.0
C994 C 0.53605 0.16039 0.52296 0.0
C995 C 0.56021 0.15993 0.52371 0.0
H996 H 0.95311 0.84539 0.03305 0.0
H997 H 0.95619 0.91417 0.01285 0.0
H998 H 0.99519 0.8426 0.03181 0.0
H999 H 0.99837 0.91156 0.01187 0.0
H1000 H 0.07386 0.89258 0.00188 0.0
H1001 H 0.03162 0.89173 0.99935 0.0
H1002 H 0.02671 0.86076 0.04655 0.0
H1003 H 0.06865 0.8613 0.04894 0.0
C1004 C 0.96278 0.85986 0.02826 0.0
C1005 C 0.95139 0.88007 0.02317 0.0
C1006 C 0.98689 0.8583 0.02761 0.0
C1007 C 1.00014 0.87693 0.02187 0.0
C1008 C 0.98866 0.89683 0.01623 0.0
C1009 C 0.96451 0.89839 0.01688 0.0
C1010 C 0.06371 0.88539 0.01161 0.0
C1011 C 0.07452 0.87705 0.02561 0.0
C1012 C 0.03955 0.88502 0.01021 0.0
C1013 C 0.02582 0.87617 0.02275 0.0
C1014 C 0.03677 0.86738 0.03657 0.0
C1015 C 0.06082 0.86783 0.03799 0.0
H1016 H 0.45081 0.91206 0.48673 0.0
H1017 H 0.45071 0.84312 0.46674 0.0
H1018 H 0.49306 0.91129 0.48773 0.0
H1019 H 0.4928 0.84202 0.46819 0.0
H1020 H 0.565 0.86293 0.45062 0.0
H1021 H 0.52328 0.8603 0.45347 0.0
H1022 H 0.52752 0.89432 0.49968 0.0
H1023 H 0.56952 0.89748 0.49658 0.0
C1024 C 0.45982 0.89661 0.48281 0.0
C1025 C 0.44752 0.87777 0.47649 0.0
C1026 C 0.48401 0.89609 0.48347 0.0
C1027 C 0.49634 0.87667 0.47789 0.0
C1028 C 0.48388 0.85743 0.47228 0.0
C1029 C 0.45975 0.85801 0.47152 0.0
C1030 C 0.55709 0.86966 0.46147 0.0
C1031 C 0.57051 0.88049 0.47335 0.0
C1032 C 0.53314 0.86801 0.46316 0.0
C1033 C 0.52202 0.87708 0.47682 0.0
C1034 C 0.53553 0.8874 0.48893 0.0
C1035 C 0.55958 0.88908 0.48721 0.0
H1036 H 0.07079 0.17804 0.95895 0.0
H1037 H 0.06812 0.1264 0.99643 0.0
H1038 H 0.0288 0.18185 0.95989 0.0
H1039 H 0.02608 0.1292 0.99684 0.0
H1040 H 0.95659 0.15485 0.94775 0.0
H1041 H 0.99804 0.15917 0.95078 0.0
H1042 H 0.99144 0.14954 0.0022 0.0
H1043 H 0.94972 0.14415 0.99895 0.0
C1044 C 0.06119 0.16764 0.96748 0.0
C1045 C 0.07264 0.15178 0.9775 0.0
C1046 C 0.03711 0.16966 0.96795 0.0
C1047 C 0.02391 0.15551 0.97822 0.0
C1048 C 0.03558 0.14054 0.98887 0.0
C1049 C 0.05971 0.13882 0.98858 0.0
C1050 C 0.96394 0.15386 0.95973 0.0
C1051 C 0.94995 0.14901 0.9731 0.0
C1052 C 0.98776 0.15656 0.96151 0.0
C1053 C 0.99823 0.15477 0.97676 0.0
C1054 C 0.98405 0.1507 0.99024 0.0
C1055 C 0.96015 0.14774 0.98842 0.0
H1056 H 0.17745 0.46582 0.96294 0.0
H1057 H 0.16285 0.4452 0.01179 0.0
H1058 H 0.18267 0.50564 0.97171 0.0
H1059 H 0.16733 0.48527 0.02059 0.0
H1060 H 0.18786 0.55803 0.03402 0.0
H1061 H 0.19185 0.51807 0.02487 0.0
H1062 H 0.15813 0.53625 0.98016 0.0
H1063 H 0.15478 0.57617 0.98915 0.0
C1064 C 0.17558 0.46977 0.97561 0.0
C1065 C 0.16962 0.45236 0.98666 0.0
C1066 C 0.17838 0.49268 0.98063 0.0
C1067 C 0.1751 0.49887 0.99684 0.0
C1068 C 0.17021 0.48121 0.00803 0.0
C1069 C 0.16756 0.4582 0.003 0.0
C1070 C 0.18173 0.55355 0.02211 0.0
C1071 C 0.17099 0.57029 0.01231 0.0
C1072 C 0.18381 0.53057 0.01692 0.0
C1073 C 0.17516 0.52375 0.00181 0.0
C1074 C 0.16529 0.54079 0.99178 0.0
C1075 C 0.16328 0.56375 0.99695 0.0
H1076 H 0.83028 0.92952 0.25443 0.0
H1077 H 0.80307 0.90116 0.21029 0.0
H1078 H 0.79077 0.93528 0.2643 0.0
H1079 H 0.76389 0.90609 0.22023 0.0
H1080 H 0.69339 0.92588 0.23797 0.0
H1081 H 0.73272 0.93071 0.22755 0.0
H1082 H 0.76047 0.91159 0.27402 0.0
H1083 H 0.7215 0.90758 0.28442 0.0
C1084 C 0.81588 0.92472 0.24679 0.0
C1085 C 0.81984 0.91475 0.23163 0.0
C1086 C 0.7932 0.92785 0.25247 0.0
C1087 C 0.77398 0.92099 0.24314 0.0
C1088 C 0.77808 0.9119 0.22771 0.0
C1089 C 0.80066 0.90888 0.22204 0.0
C1090 C 0.70793 0.92315 0.24599 0.0
C1091 C 0.70429 0.91621 0.26199 0.0
C1092 C 0.73051 0.92573 0.24001 0.0
C1093 C 0.74994 0.92136 0.24988 0.0
C1094 C 0.74612 0.91542 0.26606 0.0
C1095 C 0.72365 0.91293 0.27202 0.0
H1096 H 0.37295 0.43834 0.48792 0.0
H1097 H 0.33335 0.45902 0.52952 0.0
H1098 H 0.37103 0.4777 0.47756 0.0
H1099 H 0.3321 0.49877 0.51944 0.0
H1100 H 0.32508 0.56785 0.4913 0.0
H1101 H 0.31971 0.5273 0.49942 0.0
H1102 H 0.39011 0.51228 0.48526 0.0
H1103 H 0.39517 0.55203 0.47695 0.0
C1104 C 0.36356 0.45126 0.49476 0.0
C1105 C 0.35348 0.44559 0.5096 0.0
C1106 C 0.36262 0.47392 0.4889 0.0
C1107 C 0.35186 0.49163 0.49783 0.0
C1108 C 0.34049 0.48564 0.51221 0.0
C1109 C 0.34124 0.46283 0.51801 0.0
C1110 C 0.33931 0.55578 0.48992 0.0
C1111 C 0.3605 0.56316 0.48341 0.0
C1112 C 0.33628 0.53257 0.4946 0.0
C1113 C 0.35437 0.51634 0.49279 0.0
C1114 C 0.37555 0.524 0.48645 0.0
C1115 C 0.37854 0.54697 0.4818 0.0
H1116 H 0.79931 0.08618 0.784 0.0
H1117 H 0.81849 0.10943 0.73648 0.0
H1118 H 0.75921 0.0822 0.77525 0.0
H1119 H 0.77826 0.10565 0.72774 0.0
H1120 H 0.70571 0.0838 0.71372 0.0
H1121 H 0.74583 0.07918 0.72249 0.0
H1122 H 0.72845 0.10965 0.76836 0.0
H1123 H 0.68833 0.11408 0.75964 0.0
C1124 C 0.79504 0.0901 0.77159 0.0
C1125 C 0.81211 0.09821 0.76094 0.0
C1126 C 0.77199 0.08798 0.76662 0.0
C1127 C 0.76541 0.09383 0.75084 0.0
C1128 C 0.78271 0.10082 0.73995 0.0
C1129 C 0.8058 0.10304 0.74496 0.0
C1130 C 0.71036 0.08911 0.7258 0.0
C1131 C 0.69381 0.09934 0.73598 0.0
C1132 C 0.73342 0.08664 0.73076 0.0
C1133 C 0.74047 0.0942 0.74608 0.0
C1134 C 0.72364 0.10343 0.75653 0.0
C1135 C 0.70061 0.10602 0.75153 0.0
H1136 H 0.83565 0.57638 0.00206 0.0
H1137 H 0.88995 0.55166 0.03345 0.0
H1138 H 0.82888 0.5366 0.99287 0.0
H1139 H 0.88358 0.51246 0.0242 0.0
H1140 H 0.8603 0.44114 0.01367 0.0
H1141 H 0.85752 0.48023 0.02466 0.0
H1142 H 0.8484 0.50754 0.97666 0.0
H1143 H 0.85056 0.46849 0.96578 0.0
C1144 C 0.84605 0.56249 0.00703 0.0
C1145 C 0.86338 0.56721 0.01843 0.0
C1146 C 0.84223 0.53972 0.00175 0.0
C1147 C 0.85559 0.52122 0.00785 0.0
C1148 C 0.87262 0.52607 0.01945 0.0
C1149 C 0.87644 0.54869 0.02465 0.0
C1150 C 0.85716 0.45544 0.00552 0.0
C1151 C 0.85586 0.45171 0.98885 0.0
C1152 C 0.85577 0.4779 0.01179 0.0
C1153 C 0.85312 0.49715 0.00153 0.0
C1154 C 0.85031 0.4932 0.98495 0.0
C1155 C 0.85166 0.47076 0.9787 0.0
H1156 H 0.18605 0.08043 0.75098 0.0
H1157 H 0.21224 0.12777 0.78675 0.0
H1158 H 0.22566 0.07411 0.74119 0.0
H1159 H 0.2513 0.12186 0.77695 0.0
H1160 H 0.32223 0.09881 0.76353 0.0
H1161 H 0.28322 0.09536 0.77467 0.0
H1162 H 0.25473 0.09598 0.7266 0.0
H1163 H 0.29361 0.09887 0.71553 0.0
C1164 C 0.20023 0.08932 0.75682 0.0
C1165 C 0.19596 0.10468 0.76958 0.0
C1166 C 0.22292 0.08579 0.75119 0.0
C1167 C 0.24178 0.09744 0.75829 0.0
C1168 C 0.23739 0.11226 0.77134 0.0
C1169 C 0.21486 0.11583 0.77687 0.0
C1170 C 0.30766 0.09773 0.75536 0.0
C1171 C 0.31103 0.0993 0.73866 0.0
C1172 C 0.28526 0.09593 0.76173 0.0
C1173 C 0.26571 0.09569 0.75155 0.0
C1174 C 0.26928 0.09594 0.73482 0.0
C1175 C 0.29163 0.09773 0.72847 0.0
H1176 H 0.67992 0.4469 0.49468 0.0
H1177 H 0.63532 0.47328 0.53211 0.0
H1178 H 0.68647 0.48654 0.48517 0.0
H1179 H 0.64126 0.51236 0.52251 0.0
H1180 H 0.66411 0.58304 0.50928 0.0
H1181 H 0.66749 0.54375 0.51992 0.0
H1182 H 0.6654 0.51657 0.47151 0.0
H1183 H 0.66278 0.55574 0.46095 0.0
C1184 C 0.67162 0.46112 0.50091 0.0
C1185 C 0.65704 0.4569 0.51409 0.0
C1186 C 0.67528 0.48384 0.49544 0.0
C1187 C 0.66445 0.50279 0.50308 0.0
C1188 C 0.65029 0.49841 0.51648 0.0
C1189 C 0.64668 0.47586 0.5219 0.0
C1190 C 0.66488 0.56869 0.50092 0.0
C1191 C 0.66298 0.57252 0.48429 0.0
C1192 C 0.66661 0.54612 0.50701 0.0
C1193 C 0.66637 0.52685 0.4966 0.0
C1194 C 0.66582 0.53087 0.47992 0.0
C1195 C 0.66418 0.5534 0.47385 0.0
H1196 H 0.2198 0.87525 0.22031 0.0
H1197 H 0.19705 0.93343 0.24882 0.0
H1198 H 0.25936 0.88151 0.22903 0.0
H1199 H 0.23716 0.93998 0.2575 0.0
H1200 H 0.30593 0.91968 0.28484 0.0
H1201 H 0.26643 0.9212 0.27449 0.0
H1202 H 0.29195 0.90735 0.22662 0.0
H1203 H 0.33144 0.90536 0.23706 0.0
C1204 C 0.22328 0.88955 0.22838 0.0
C1205 C 0.20521 0.90379 0.23391 0.0
C1206 C 0.24609 0.89328 0.23327 0.0
C1207 C 0.25159 0.91137 0.24388 0.0
C1208 C 0.23354 0.92581 0.24936 0.0
C1209 C 0.21058 0.92212 0.24437 0.0
C1210 C 0.30317 0.91742 0.27205 0.0
C1211 C 0.32183 0.91218 0.26179 0.0
C1212 C 0.28048 0.91837 0.2661 0.0
C1213 C 0.2759 0.91407 0.24975 0.0
C1214 C 0.29477 0.91029 0.23934 0.0
C1215 C 0.31746 0.90935 0.24529 0.0
H1216 H 0.67521 0.05818 0.53246 0.0
H1217 H 0.66235 0.08512 0.48482 0.0
H1218 H 0.67676 0.01902 0.52165 0.0
H1219 H 0.66454 0.04599 0.47389 0.0
H1220 H 0.63124 0.97489 0.46626 0.0
H1221 H 0.63838 0.01401 0.47533 0.0
H1222 H 0.695 0.98962 0.50486 0.0
H1223 H 0.68746 0.94986 0.49586 0.0
C1224 C 0.67331 0.0558 0.5196 0.0
C1225 C 0.66838 0.07476 0.50952 0.0
C1226 C 0.6743 0.0333 0.51338 0.0
C1227 C 0.67041 0.02922 0.49692 0.0
C1228 C 0.6671 0.04841 0.48669 0.0
C1229 C 0.66604 0.0709 0.49292 0.0
C1230 C 0.64534 0.97778 0.47462 0.0
C1231 C 0.65872 0.95918 0.48039 0.0
C1232 C 0.6496 1.00036 0.47971 0.0
C1233 C 0.6674 1.00513 0.49075 0.0
C1234 C 0.68107 0.98657 0.49641 0.0
C1235 C 0.67682 0.96381 0.49123 0.0
H1236 H 0.2112 0.3645 0.76935 0.0
H1237 H 0.19703 0.43701 0.76144 0.0
H1238 H 0.25106 0.37014 0.76128 0.0
H1239 H 0.23758 0.44278 0.75337 0.0
H1240 H 0.3055 0.43134 0.72164 0.0
H1241 H 0.26562 0.43194 0.73161 0.0
H1242 H 0.28594 0.38843 0.77147 0.0
H1243 H 0.3255 0.38747 0.76138 0.0
C1244 C 0.2166 0.38173 0.76589 0.0
C1245 C 0.20088 0.40032 0.76608 0.0
C1246 C 0.23961 0.38501 0.76139 0.0
C1247 C 0.2477 0.40699 0.75691 0.0
C1248 C 0.23191 0.42562 0.75677 0.0
C1249 C 0.20872 0.42234 0.7614 0.0
C1250 C 0.30152 0.42233 0.73273 0.0
C1251 C 0.31862 0.40915 0.74063 0.0
C1252 C 0.27866 0.42269 0.73844 0.0
C1253 C 0.27246 0.40987 0.75217 0.0
C1254 C 0.28998 0.39805 0.76065 0.0
C1255 C 0.31273 0.39764 0.75493 0.0
H1256 H 0.86591 0.9401 0.98518 0.0
H1257 H 0.8467 0.96487 0.03232 0.0
H1258 H 0.86434 0.97964 0.97487 0.0
H1259 H 0.84548 1.00445 0.02208 0.0
H1260 H 0.89628 0.05208 0.97063 0.0
H1261 H 0.88989 0.0125 0.97916 0.0
H1262 H 0.82752 0.03349 0.00383 0.0
H1263 H 0.83408 0.07366 0.99524 0.0
C1264 C 0.86093 0.95392 0.99327 0.0
C1265 C 0.85661 0.94933 0.00959 0.0
C1266 C 0.86021 0.97663 0.9874 0.0
C1267 C 0.85514 0.99532 0.9977 0.0
C1268 C 0.84935 0.99052 0.01379 0.0
C1269 C 0.85012 0.9678 0.01967 0.0
C1270 C 0.88112 0.04836 0.97783 0.0
C1271 C 0.86572 0.0661 0.98229 0.0
C1272 C 0.87733 0.02553 0.9826 0.0
C1273 C 0.85807 0.01968 0.99206 0.0
C1274 C 0.84257 0.03741 0.99657 0.0
C1275 C 0.84628 0.06039 0.99164 0.0
H1276 H 0.32228 0.61811 0.23769 0.0
H1277 H 0.3073 0.5792 0.28077 0.0
H1278 H 0.28208 0.6142 0.22914 0.0
H1279 H 0.26697 0.57521 0.27218 0.0
H1280 H 0.19279 0.60581 0.26104 0.0
H1281 H 0.2333 0.60184 0.2693 0.0
H1282 H 0.25246 0.58654 0.22024 0.0
H1283 H 0.21215 0.59062 0.212 0.0
C1284 C 0.3105 0.60833 0.24519 0.0
C1285 C 0.31803 0.59895 0.2599 0.0
C1286 C 0.28743 0.60603 0.24027 0.0
C1287 C 0.27121 0.59447 0.25001 0.0
C1288 C 0.27893 0.58443 0.26448 0.0
C1289 C 0.3021 0.58653 0.26932 0.0
C1290 C 0.20559 0.60116 0.25209 0.0
C1291 C 0.19923 0.59865 0.23586 0.0
C1292 C 0.22882 0.59884 0.25682 0.0
C1293 C 0.24621 0.59409 0.2454 0.0
C1294 C 0.23961 0.59055 0.2293 0.0
C1295 C 0.21644 0.59274 0.22461 0.0
H1296 H 0.33831 0.07165 0.49754 0.0
H1297 H 0.38182 0.04419 0.53529 0.0
H1298 H 0.3315 0.03223 0.48769 0.0
H1299 H 0.37556 1.0053 0.52539 0.0
H1300 H 0.35149 0.93518 0.51152 0.0
H1301 H 0.34862 0.9744 0.5223 0.0
H1302 H 0.35284 1.0021 0.4741 0.0
H1303 H 0.35502 0.963 0.46337 0.0
C1304 C 0.34628 0.05723 0.50378 0.0
C1305 C 0.36067 0.06109 0.51715 0.0
C1306 C 0.34248 0.03465 0.49812 0.0
C1307 C 0.35293 0.01547 0.50575 0.0
C1308 C 0.36685 0.01947 0.51935 0.0
C1309 C 0.37063 0.0419 0.52495 0.0
C1310 C 0.35133 0.94964 0.50322 0.0
C1311 C 0.35367 0.94596 0.48661 0.0
C1312 C 0.34987 0.97216 0.5094 0.0
C1313 C 0.35083 0.99154 0.4991 0.0
C1314 C 0.35186 0.98771 0.48241 0.0
C1315 C 0.35325 0.96522 0.47625 0.0
H1316 H 0.71193 0.59436 0.28376 0.0
H1317 H 0.68894 0.6122 0.23588 0.0
H1318 H 0.75192 0.59315 0.27436 0.0
H1319 H 0.72886 0.61043 0.22637 0.0
H1320 H 0.80113 0.642 0.22232 0.0
H1321 H 0.76132 0.63571 0.23027 0.0
H1322 H 0.7821 0.57555 0.25761 0.0
H1323 H 0.82254 0.58216 0.24971 0.0
C1324 C 0.71535 0.59745 0.27112 0.0
C1325 C 0.69725 0.60361 0.2606 0.0
C1326 C 0.73832 0.59668 0.26572 0.0
C1327 C 0.74373 0.60206 0.24966 0.0
C1328 C 0.72541 0.60669 0.23891 0.0
C1329 C 0.70246 0.60752 0.24432 0.0
C1330 C 0.79731 0.62734 0.22999 0.0
C1331 C 0.81509 0.61261 0.23541 0.0
C1332 C 0.77434 0.62359 0.23443 0.0
C1333 C 0.76833 0.60497 0.24446 0.0
C1334 C 0.7861 0.59012 0.24991 0.0
C1335 C 0.80925 0.59385 0.24538 0.0
H1336 H 0.13584 0.96557 0.03734 0.0
H1337 H 0.18288 0.94545 0.99947 0.0
H1338 H 0.13788 1.00552 0.02854 0.0
H1339 H 0.18473 0.986 0.99044 0.0
H1340 H 0.19193 0.06802 0.98823 0.0
H1341 H 0.19617 0.02821 0.99854 0.0
H1342 H 0.12199 0.0238 0.00396 0.0
H1343 H 0.11782 0.06291 0.9939 0.0
C1344 C 0.14677 0.96969 0.02716 0.0
C1345 C 0.15895 0.95223 0.01896 0.0
C1346 C 0.14791 0.99265 0.0221 0.0
C1347 C 0.1612 0.99891 0.00865 0.0
C1348 C 0.17437 0.9817 0.00087 0.0
C1349 C 0.17323 0.95851 0.00598 0.0
C1350 C 0.17663 0.05852 0.99176 0.0
C1351 C 0.15456 0.06868 0.99034 0.0
C1352 C 0.17903 0.03572 0.99754 0.0
C1353 C 0.15942 0.02292 0.00218 0.0
C1354 C 0.13749 0.03325 0.00075 0.0
C1355 C 0.1351 0.05572 0.9949 0.0
H1356 H 0.803 0.42065 0.78529 0.0
H1357 H 0.83008 0.41207 0.73727 0.0
H1358 H 0.76385 0.42294 0.77451 0.0
H1359 H 0.79096 0.41526 0.72637 0.0
H1360 H 0.72017 0.3832 0.71654 0.0
H1361 H 0.75918 0.38965 0.72602 0.0
H1362 H 0.73404 0.44172 0.75901 0.0
H1363 H 0.69432 0.43464 0.74967 0.0
C1364 C 0.80065 0.41988 0.77237 0.0
C1365 C 0.81964 0.41588 0.76215 0.0
C1366 C 0.77813 0.4213 0.76617 0.0
C1367 C 0.77407 0.41889 0.74957 0.0
C1368 C 0.79332 0.4166 0.73926 0.0
C1369 C 0.81581 0.41498 0.74548 0.0
C1370 C 0.72286 0.39617 0.72576 0.0
C1371 C 0.70405 0.40834 0.73239 0.0
C1372 C 0.7454 0.40006 0.7311 0.0
C1373 C 0.74997 0.41637 0.74322 0.0
C1374 C 0.73118 0.4289 0.74973 0.0
C1375 C 0.70844 0.42493 0.74436 0.0
H1376 H 0.15777 0.81958 0.99466 0.0
H1377 H 0.19141 0.81525 0.04094 0.0
H1378 H 0.16191 0.77785 0.99135 0.0
H1379 H 0.19453 0.77353 0.03811 0.0
H1380 H 0.2022 0.69769 0.02962 0.0
H1381 H 0.20864 0.73928 0.02674 0.0
H1382 H 0.1432 0.74566 0.00178 0.0
H1383 H 0.13747 0.70431 0.00405 0.0
C1384 C 0.1664 0.80975 0.00401 0.0
C1385 C 0.17412 0.82073 0.0181 0.0
C1386 C 0.16856 0.78573 0.00222 0.0
C1387 C 0.17812 0.77201 0.01461 0.0
C1388 C 0.18723 0.78331 0.02822 0.0
C1389 C 0.18538 0.80736 0.02989 0.0
C1390 C 0.18951 0.70797 0.02319 0.0
C1391 C 0.16929 0.69768 0.01713 0.0
C1392 C 0.19306 0.73189 0.02166 0.0
C1393 C 0.17636 0.74613 0.01416 0.0
C1394 C 0.1567 0.73548 0.00743 0.0
C1395 C 0.1533 0.71163 0.00882 0.0
H1396 H 0.56825 0.93384 0.2906 0.0
H1397 H 0.572 0.90234 0.24361 0.0
H1398 H 0.5263 0.93526 0.28863 0.0
H1399 H 0.52993 0.90463 0.24126 0.0
H1400 H 0.45705 0.87832 0.25447 0.0
H1401 H 0.49841 0.8846 0.25208 0.0
H1402 H 0.49148 0.94937 0.27764 0.0
H1403 H 0.44995 0.94245 0.28056 0.0
C1404 C 0.56014 0.92783 0.27962 0.0
C1405 C 0.57351 0.91779 0.26732 0.0
C1406 C 0.53596 0.92872 0.27844 0.0
C1407 C 0.52445 0.91977 0.26486 0.0
C1408 C 0.53802 0.91118 0.25209 0.0
C1409 C 0.56222 0.91008 0.25334 0.0
C1410 C 0.46426 0.89409 0.25937 0.0
C1411 C 0.45017 0.9098 0.2678 0.0
C1412 C 0.48809 0.89781 0.25791 0.0
C1413 C 0.49858 0.91748 0.26473 0.0
C1414 C 0.48422 0.9338 0.27247 0.0
C1415 C 0.46033 0.92997 0.27404 0.0
H1416 H 0.37417 0.19844 0.50229 0.0
H1417 H 0.3304 0.19415 0.54426 0.0
H1418 H 0.36959 0.24052 0.50213 0.0
H1419 H 0.32572 0.2361 0.54403 0.0
H1420 H 0.35883 0.30801 0.55366 0.0
H1421 H 0.35411 0.26646 0.55067 0.0
H1422 H 0.3431 0.27519 0.49963 0.0
H1423 H 0.34781 0.31723 0.50269 0.0
C1424 C 0.36308 0.20641 0.51123 0.0
C1425 C 0.35282 0.19294 0.52338 0.0
C1426 C 0.36042 0.23054 0.51112 0.0
C1427 C 0.34754 0.24173 0.5232 0.0
C1428 C 0.33606 0.22807 0.5347 0.0
C1429 C 0.33862 0.20399 0.53477 0.0
C1430 C 0.35506 0.30115 0.54182 0.0
C1431 C 0.35371 0.31592 0.52841 0.0
C1432 C 0.35221 0.2773 0.54011 0.0
C1433 C 0.34817 0.26744 0.52491 0.0
C1434 C 0.34628 0.28224 0.51149 0.0
C1435 C 0.34882 0.30629 0.51325 0.0
H1436 H 0.94764 0.13168 0.75246 0.0
H1437 H 0.94098 0.06912 0.78041 0.0
H1438 H 0.98944 0.12691 0.75208 0.0
H1439 H 0.98292 0.06378 0.77958 0.0
H1440 H 0.05676 0.08414 0.79632 0.0
H1441 H 0.01525 0.08103 0.79214 0.0
H1442 H 0.02324 0.10716 0.74373 0.0
H1443 H 0.06486 0.11102 0.7482 0.0
C1444 C 0.95506 0.11653 0.75816 0.0
C1445 C 0.94093 0.10087 0.76656 0.0
C1446 C 0.97915 0.1137 0.75789 0.0
C1447 C 0.9898 0.09505 0.76594 0.0
C1448 C 0.97548 0.07862 0.77352 0.0
C1449 C 0.95136 0.08154 0.77386 0.0
C1450 C 0.04974 0.08883 0.78467 0.0
C1451 C 0.06415 0.09798 0.77264 0.0
C1452 C 0.02584 0.08694 0.78222 0.0
C1453 C 0.01564 0.09403 0.76762 0.0
C1454 C 0.03031 0.10194 0.75525 0.0
C1455 C 0.05425 0.10395 0.75774 0.0
H1456 H 0.15625 0.19913 0.00548 0.0
H1457 H 0.18244 0.20502 0.95703 0.0
H1458 H 0.1601 0.24096 0.00892 0.0
H1459 H 0.18591 0.2467 0.96032 0.0
H1460 H 0.13311 0.31514 0.99657 0.0
H1461 H 0.13865 0.27351 0.9983 0.0
H1462 H 0.20375 0.2798 0.97316 0.0
H1463 H 0.19793 0.32169 0.97121 0.0
C1464 C 0.16329 0.20927 0.99568 0.0
C1465 C 0.1689 0.19874 0.98095 0.0
C1466 C 0.16532 0.23329 0.9976 0.0
C1467 C 0.17306 0.24734 0.98483 0.0
C1468 C 0.18007 0.23653 0.97047 0.0
C1469 C 0.17798 0.21256 0.96855 0.0
C1470 C 0.14884 0.30773 0.99167 0.0
C1471 C 0.16501 0.32175 0.98366 0.0
C1472 C 0.1521 0.28379 0.99275 0.0
C1473 C 0.17159 0.27315 0.98579 0.0
C1474 C 0.18838 0.28734 0.97848 0.0
C1475 C 0.18515 0.31138 0.97747 0.0
H1476 H 0.95612 0.88538 0.24633 0.0
H1477 H 0.95213 0.94708 0.21721 0.0
H1478 H 0.99766 0.88993 0.24863 0.0
H1479 H 0.99382 0.95254 0.22022 0.0
H1480 H 0.06944 0.93306 0.2078 0.0
H1481 H 0.02775 0.93701 0.2101 0.0
H1482 H 0.03067 0.90777 0.25798 0.0
H1483 H 0.0724 0.90262 0.25516 0.0
C1484 C 0.96406 0.90036 0.2408 0.0
C1485 C 0.95079 0.91576 0.23148 0.0
C1486 C 0.98803 0.90309 0.2422 0.0
C1487 C 0.99948 0.92153 0.2345 0.0
C1488 C 0.98588 0.93779 0.22602 0.0
C1489 C 0.96188 0.93484 0.22442 0.0
C1490 C 0.06125 0.9279 0.21895 0.0
C1491 C 0.07425 0.91732 0.23124 0.0
C1492 C 0.03719 0.93026 0.22033 0.0
C1493 C 0.02546 0.92241 0.23415 0.0
C1494 C 0.03883 0.91343 0.24694 0.0
C1495 C 0.06286 0.91071 0.24544 0.0
H1496 H 0.33022 0.69954 0.45843 0.0
H1497 H 0.36218 0.69503 0.50526 0.0
H1498 H 0.32745 0.74124 0.4611 0.0
H1499 H 0.35815 0.73677 0.5085 0.0
H1500 H 0.38249 0.81061 0.49716 0.0
H1501 H 0.37667 0.76927 0.4992 0.0
H1502 H 0.31349 0.77555 0.47152 0.0
H1503 H 0.32025 0.81706 0.46875 0.0
C1504 C 0.33594 0.70741 0.46957 0.0
C1505 C 0.34663 0.69397 0.48157 0.0
C1506 C 0.33427 0.73147 0.47116 0.0
C1507 C 0.34291 0.74276 0.48493 0.0
C1508 C 0.35192 0.72897 0.49749 0.0
C1509 C 0.35399 0.70492 0.49575 0.0
C1510 C 0.36713 0.80325 0.49173 0.0
C1511 C 0.35194 0.81715 0.48268 0.0
C1512 C 0.36365 0.77939 0.49298 0.0
C1513 C 0.34465 0.76868 0.48542 0.0
C1514 C 0.32864 0.7829 0.47721 0.0
C1515 C 0.33235 0.80681 0.47574 0.0
H1516 H 0.44339 0.12203 0.75305 0.0
H1517 H 0.44491 0.07836 0.71097 0.0
H1518 H 0.48546 0.12001 0.75481 0.0
H1519 H 0.48712 0.07683 0.71243 0.0
H1520 H 0.5648 0.07175 0.72245 0.0
H1521 H 0.52303 0.0657 0.72603 0.0
H1522 H 0.51507 0.13765 0.739 0.0
H1523 H 0.55631 0.14344 0.73574 0.0
C1524 C 0.45268 0.11165 0.74433 0.0
C1525 C 0.44079 0.10052 0.73179 0.0
C1526 C 0.47686 0.11063 0.74525 0.0
C1527 C 0.48982 0.09862 0.73358 0.0
C1528 C 0.47779 0.08617 0.72167 0.0
C1529 C 0.45354 0.08708 0.72081 0.0
C1530 C 0.5541 0.0861 0.72633 0.0
C1531 C 0.56388 0.10807 0.72879 0.0
C1532 C 0.53016 0.08271 0.72827 0.0
C1533 C 0.51558 0.10117 0.73285 0.0
C1534 C 0.52565 0.12288 0.73577 0.0
C1535 C 0.54939 0.12627 0.73377 0.0
H1536 H 0.82861 0.32307 0.96927 0.0
H1537 H 0.89645 0.31398 0.99017 0.0
H1538 H 0.82218 0.28121 0.9709 0.0
H1539 H 0.89021 0.27246 0.99168 0.0
H1540 H 0.87074 0.19922 0.00084 0.0
H1541 H 0.8685 0.24117 0.0041 0.0
H1542 H 0.83789 0.24722 0.95686 0.0
H1543 H 0.83984 0.20532 0.95371 0.0
C1544 C 0.84197 0.3122 0.97445 0.0
C1545 C 0.86306 0.32184 0.97953 0.0
C1546 C 0.83837 0.28821 0.97529 0.0
C1547 C 0.85569 0.27339 0.9814 0.0
C1548 C 0.87634 0.28327 0.98711 0.0
C1549 C 0.88 0.30713 0.98615 0.0
C1550 C 0.86301 0.20945 0.99132 0.0
C1551 C 0.85562 0.19892 0.97698 0.0
C1552 C 0.8619 0.23354 0.99313 0.0
C1553 C 0.8533 0.24766 0.98066 0.0
C1554 C 0.84448 0.23694 0.96676 0.0
C1555 C 0.84568 0.21287 0.96493 0.0
H1556 H 0.68148 0.82086 0.45339 0.0
H1557 H 0.64901 0.82598 0.50002 0.0
H1558 H 0.68355 0.77896 0.45623 0.0
H1559 H 0.65155 0.78402 0.50305 0.0
H1560 H 0.62463 0.7113 0.48878 0.0
H1561 H 0.63076 0.75273 0.49072 0.0
H1562 H 0.6986 0.74471 0.46957 0.0
H1563 H 0.69218 0.70291 0.46738 0.0
C1564 C 0.67534 0.81309 0.46445 0.0
C1565 C 0.66488 0.82677 0.47641 0.0
C1566 C 0.67661 0.78901 0.46611 0.0
C1567 C 0.66745 0.77797 0.47979 0.0
C1568 C 0.65838 0.79185 0.49222 0.0
C1569 C 0.6571 0.81595 0.49055 0.0
C1570 C 0.64103 0.71827 0.48476 0.0
C1571 C 0.65787 0.70379 0.47785 0.0
C1572 C 0.64463 0.74211 0.48598 0.0
C1573 C 0.66517 0.75221 0.48028 0.0
C1574 C 0.68246 0.73758 0.47393 0.0
C1575 C 0.67887 0.71361 0.47277 0.0
H1576 H 0.82506 0.69947 0.03293 0.0
H1577 H 0.8865 0.70369 0.00359 0.0
H1578 H 0.81945 0.74118 0.03021 0.0
H1579 H 0.88155 0.74528 0.00139 0.0
H1580 H 0.86649 0.82016 0.9949 0.0
H1581 H 0.86204 0.77835 0.9921 0.0
H1582 H 0.83663 0.77456 0.04094 0.0
H1583 H 0.8402 0.81625 0.0434 0.0
C1584 C 0.83716 0.70924 0.02569 0.0
C1585 C 0.85629 0.69824 0.01855 0.0
C1586 C 0.8341 0.73325 0.02425 0.0
C1587 C 0.85021 0.74688 0.01577 0.0
C1588 C 0.86858 0.73554 0.00788 0.0
C1589 C 0.87151 0.71157 0.0092 0.0
C1590 C 0.85944 0.81042 0.00489 0.0
C1591 C 0.85382 0.82155 0.0194 0.0
C1592 C 0.85709 0.78636 0.00336 0.0
C1593 C 0.84926 0.7728 0.01636 0.0
C1594 C 0.84247 0.78424 0.03056 0.0
C1595 C 0.84463 0.80826 0.03203 0.0
H1596 H 0.637 0.31918 0.50062 0.0
H1597 H 0.69388 0.32506 0.53405 0.0
H1598 H 0.64271 0.27753 0.49945 0.0
H1599 H 0.70031 0.28338 0.53243 0.0
H1600 H 0.67887 0.20861 0.54543 0.0
H1601 H 0.68183 0.25028 0.54253 0.0
H1602 H 0.66416 0.2444 0.49215 0.0
H1603 H 0.66034 0.20254 0.4953 0.0
C1604 C 0.65118 0.31164 0.50738 0.0
C1605 C 0.66485 0.32545 0.51753 0.0
C1606 C 0.65455 0.28766 0.50666 0.0
C1607 C 0.67183 0.27683 0.516 0.0
C1608 C 0.68649 0.29093 0.52535 0.0
C1609 C 0.68296 0.31491 0.52616 0.0
C1610 C 0.67602 0.21614 0.53365 0.0
C1611 C 0.6692 0.20223 0.52063 0.0
C1612 C 0.67784 0.24015 0.53194 0.0
C1613 C 0.67305 0.25097 0.51711 0.0
C1614 C 0.66754 0.23683 0.50384 0.0
C1615 C 0.66556 0.21277 0.50559 0.0
H1616 H 0.94757 0.44366 0.78043 0.0
H1617 H 0.95509 0.37739 0.7571 0.0
H1618 H 0.98933 0.45 0.77798 0.0
H1619 H 0.99652 0.38325 0.75508 0.0
H1620 H 0.06999 0.39928 0.74683 0.0
H1621 H 0.02816 0.40296 0.74363 0.0
H1622 H 0.02374 0.43553 0.79032 0.0
H1623 H 0.06559 0.43261 0.79318 0.0
C1624 C 0.95807 0.43061 0.77457 0.0
C1625 C 0.948 0.40999 0.76902 0.0
C1626 C 0.98205 0.43413 0.77328 0.0
C1627 C 0.9965 0.41711 0.7664 0.0
C1628 C 0.98611 0.39697 0.76023 0.0
C1629 C 0.96224 0.3935 0.76149 0.0
C1630 C 0.06014 0.40779 0.75621 0.0
C1631 C 0.07112 0.41548 0.77031 0.0
C1632 C 0.03608 0.4097 0.75446 0.0
C1633 C 0.02235 0.41912 0.76685 0.0
C1634 C 0.0336 0.4283 0.78046 0.0
C1635 C 0.05769 0.42657 0.78214 0.0
H1636 H 0.44568 0.60612 0.24556 0.0
H1637 H 0.45209 0.58307 0.29477 0.0
H1638 H 0.48767 0.60378 0.24246 0.0
H1639 H 0.49398 0.58134 0.29187 0.0
H1640 H 0.56992 0.5725 0.2819 0.0
H1641 H 0.52831 0.56484 0.28036 0.0
H1642 H 0.51912 0.62673 0.25185 0.0
H1643 H 0.56049 0.63395 0.25309 0.0
C1644 C 0.45601 0.60012 0.25562 0.0
C1645 C 0.44551 0.59492 0.27044 0.0
C1646 C 0.48014 0.59899 0.25391 0.0
C1647 C 0.4944 0.5927 0.26698 0.0
C1648 C 0.48369 0.58608 0.28147 0.0
C1649 C 0.45959 0.58715 0.28317 0.0
C1650 C 0.55904 0.58416 0.27502 0.0
C1651 C 0.56853 0.60388 0.26767 0.0
C1652 C 0.53513 0.57989 0.27424 0.0
C1653 C 0.52017 0.59523 0.26607 0.0
C1654 C 0.52997 0.61432 0.25808 0.0
C1655 C 0.55378 0.61856 0.25887 0.0
H1656 H 0.44681 0.41767 0.74672 0.0
H1657 H 0.45662 0.4007 0.69662 0.0
H1658 H 0.48879 0.42361 0.74961 0.0
H1659 H 0.49806 0.40675 0.69943 0.0
H1660 H 0.56902 0.43522 0.7044 0.0
H1661 H 0.52689 0.43791 0.70461 0.0
H1662 H 0.5248 0.39758 0.74829 0.0
H1663 H 0.56712 0.39488 0.74811 0.0
C1664 C 0.45786 0.41554 0.7363 0.0
C1665 C 0.44841 0.4087 0.72145 0.0
C1666 C 0.48187 0.41881 0.73797 0.0
C1667 C 0.49678 0.41576 0.72473 0.0
C1668 C 0.48711 0.40958 0.70982 0.0
C1669 C 0.46332 0.40597 0.70823 0.0
C1670 C 0.55966 0.42737 0.71427 0.0
C1671 C 0.57147 0.41467 0.72617 0.0
C1672 C 0.53548 0.4288 0.71433 0.0
C1673 C 0.52245 0.41768 0.72634 0.0
C1674 C 0.53431 0.4064 0.7389 0.0
C1675 C 0.55857 0.40483 0.73878 0.0
H1676 H 0.94671 0.57097 0.21968 0.0
H1677 H 0.95329 0.63099 0.25017 0.0
H1678 H 0.98846 0.56464 0.22129 0.0
H1679 H 0.99494 0.62535 0.25128 0.0
H1680 H 0.0701 0.60892 0.25544 0.0
H1681 H 0.02835 0.60505 0.25925 0.0
H1682 H 0.02143 0.58188 0.21004 0.0
H1683 H 0.06303 0.5849 0.20653 0.0
C1684 C 0.95702 0.58259 0.22695 0.0
C1685 C 0.94664 0.60155 0.23472 0.0
C1686 C 0.98105 0.57913 0.22774 0.0
C1687 C 0.99536 0.59467 0.23621 0.0
C1688 C 0.98468 0.61282 0.24477 0.0
C1689 C 0.96067 0.61615 0.24408 0.0
C1690 C 0.05968 0.60247 0.24558 0.0
C1691 C 0.06992 0.59732 0.23066 0.0
C1692 C 0.03566 0.60046 0.2477 0.0
C1693 C 0.02124 0.59342 0.23491 0.0
C1694 C 0.03178 0.5871 0.22027 0.0
C1695 C 0.05576 0.58894 0.21821 0.0
loop_
_geom_bond_atom_site_label_1
_geom_bond_atom_site_label_2
_geom_bond_distance
_geom_bond_site_symmetry_2
_ccdc_geom_bond_type
In0 O1 2.294 . S
In0 O2 2.326 . S
In0 O6 2.266 . S
In0 O7 2.326 . S
In0 O8 2.266 . S
In0 O9 2.326 . S
In0 O11 2.294 . S
In0 O12 2.326 . S
O1 In0 2.294 . S
O1 C10 1.240 . S
O2 In0 2.326 . S
O2 C10 1.252 . S
C3 O6 1.252 . S
C3 O7 1.260 . S
C4 O11 1.240 . S
C4 O12 1.252 . S
C5 O8 1.252 . S
C5 O9 1.260 . S
O6 In0 2.266 . S
O6 C3 1.252 . S
O7 In0 2.326 . S
O7 C3 1.260 . S
O8 In0 2.266 . S
O8 C5 1.252 . S
O9 In0 2.326 . S
O9 C5 1.260 . S
C10 O1 1.240 . S
C10 O2 1.252 . S
O11 In0 2.294 . S
O11 C4 1.240 . S
O12 In0 2.326 . S
O12 C4 1.252 . S
In13 O14 2.294 . S
In13 O15 2.326 . S
In13 O19 2.266 . S
In13 O20 2.326 . S
In13 O21 2.266 . S
In13 O22 2.326 . S
In13 O24 2.294 . S
In13 O25 2.326 . S
O14 In13 2.294 . S
O14 C23 1.240 . S
O15 In13 2.326 . S
O15 C23 1.252 . S
C16 O19 1.252 . S
C16 O20 1.260 . S
C17 O24 1.240 . S
C17 O25 1.252 . S
C18 O21 1.252 . S
C18 O22 1.260 . S
O19 In13 2.266 . S
O19 C16 1.252 . S
O20 In13 2.326 . S
O20 C16 1.260 . S
O21 In13 2.266 . S
O21 C18 1.252 . S
O22 In13 2.326 . S
O22 C18 1.260 . S
C23 O14 1.240 . S
C23 O15 1.252 . S
O24 In13 2.294 . S
O24 C17 1.240 . S
O25 In13 2.326 . S
O25 C17 1.252 . S
In26 O27 2.294 . S
In26 O28 2.326 . S
In26 O32 2.266 . S
In26 O33 2.326 . S
In26 O34 2.266 . S
In26 O35 2.326 . S
In26 O37 2.294 . S
In26 O38 2.326 . S
O27 In26 2.294 . S
O27 C36 1.240 . S
O28 In26 2.326 . S
O28 C36 1.252 . S
C29 O32 1.252 . S
C29 O33 1.260 . S
C30 O37 1.240 . S
C30 O38 1.252 . S
C31 O34 1.252 . S
C31 O35 1.260 . S
O32 In26 2.266 . S
O32 C29 1.252 . S
O33 In26 2.326 . S
O33 C29 1.260 . S
O34 In26 2.266 . S
O34 C31 1.252 . S
O35 In26 2.326 . S
O35 C31 1.260 . S
C36 O27 1.240 . S
C36 O28 1.252 . S
O37 In26 2.294 . S
O37 C30 1.240 . S
O38 In26 2.326 . S
O38 C30 1.252 . S
In39 O40 2.294 . S
In39 O41 2.326 . S
In39 O45 2.266 . S
In39 O46 2.326 . S
In39 O47 2.266 . S
In39 O48 2.326 . S
In39 O50 2.294 . S
In39 O51 2.326 . S
O40 In39 2.294 . S
O40 C49 1.240 . S
O41 In39 2.326 . S
O41 C49 1.252 . S
C42 O45 1.252 . S
C42 O46 1.260 . S
C43 O50 1.240 . S
C43 O51 1.252 . S
C44 O47 1.252 . S
C44 O48 1.260 . S
O45 In39 2.266 . S
O45 C42 1.252 . S
O46 In39 2.326 . S
O46 C42 1.260 . S
O47 In39 2.266 . S
O47 C44 1.252 . S
O48 In39 2.326 . S
O48 C44 1.260 . S
C49 O40 1.240 . S
C49 O41 1.252 . S
O50 In39 2.294 . S
O50 C43 1.240 . S
O51 In39 2.326 . S
O51 C43 1.252 . S
In52 O53 2.294 . S
In52 O54 2.326 . S
In52 O58 2.266 . S
In52 O59 2.326 . S
In52 O60 2.266 . S
In52 O61 2.326 . S
In52 O63 2.294 . S
In52 O64 2.326 . S
O53 In52 2.294 . S
O53 C62 1.240 . S
O54 In52 2.326 . S
O54 C62 1.252 . S
C55 O58 1.252 . S
C55 O59 1.260 . S
C56 O63 1.240 . S
C56 O64 1.252 . S
C57 O60 1.252 . S
C57 O61 1.260 . S
O58 In52 2.266 . S
O58 C55 1.252 . S
O59 In52 2.326 . S
O59 C55 1.260 . S
O60 In52 2.266 . S
O60 C57 1.252 . S
O61 In52 2.326 . S
O61 C57 1.260 . S
C62 O53 1.240 . S
C62 O54 1.252 . S
O63 In52 2.294 . S
O63 C56 1.240 . S
O64 In52 2.326 . S
O64 C56 1.252 . S
In65 O66 2.294 . S
In65 O67 2.326 . S
In65 O71 2.266 . S
In65 O72 2.326 . S
In65 O73 2.266 . S
In65 O74 2.326 . S
In65 O76 2.294 . S
In65 O77 2.326 . S
O66 In65 2.294 . S
O66 C75 1.240 . S
O67 In65 2.326 . S
O67 C75 1.252 . S
C68 O71 1.252 . S
C68 O72 1.260 . S
C69 O76 1.240 . S
C69 O77 1.252 . S
C70 O73 1.252 . S
C70 O74 1.260 . S
O71 In65 2.266 . S
O71 C68 1.252 . S
O72 In65 2.326 . S
O72 C68 1.260 . S
O73 In65 2.266 . S
O73 C70 1.252 . S
O74 In65 2.326 . S
O74 C70 1.260 . S
C75 O66 1.240 . S
C75 O67 1.252 . S
O76 In65 2.294 . S
O76 C69 1.240 . S
O77 In65 2.326 . S
O77 C69 1.252 . S
In78 O79 2.294 . S
In78 O80 2.326 . S
In78 O84 2.266 . S
In78 O85 2.326 . S
In78 O86 2.266 . S
In78 O87 2.326 . S
In78 O89 2.294 . S
In78 O90 2.326 . S
O79 In78 2.294 . S
O79 C88 1.240 . S
O80 In78 2.326 . S
O80 C88 1.252 . S
C81 O84 1.252 . S
C81 O85 1.260 . S
C82 O89 1.240 . S
C82 O90 1.252 . S
C83 O86 1.252 . S
C83 O87 1.260 . S
O84 In78 2.266 . S
O84 C81 1.252 . S
O85 In78 2.326 . S
O85 C81 1.260 . S
O86 In78 2.266 . S
O86 C83 1.252 . S
O87 In78 2.326 . S
O87 C83 1.260 . S
C88 O79 1.240 . S
C88 O80 1.252 . S
O89 In78 2.294 . S
O89 C82 1.240 . S
O90 In78 2.326 . S
O90 C82 1.252 . S
In91 O92 2.294 . S
In91 O93 2.326 . S
In91 O97 2.266 . S
In91 O98 2.326 . S
In91 O99 2.266 . S
In91 O100 2.326 . S
In91 O102 2.294 . S
In91 O103 2.326 . S
O92 In91 2.294 . S
O92 C101 1.240 . S
O93 In91 2.326 . S
O93 C101 1.252 . S
C94 O97 1.252 . S
C94 O98 1.260 . S
C95 O102 1.240 . S
C95 O103 1.252 . S
C96 O99 1.252 . S
C96 O100 1.260 . S
O97 In91 2.266 . S
O97 C94 1.252 . S
O98 In91 2.326 . S
O98 C94 1.260 . S
O99 In91 2.266 . S
O99 C96 1.252 . S
O100 In91 2.326 . S
O100 C96 1.260 . S
C101 O92 1.240 . S
C101 O93 1.252 . S
O102 In91 2.294 . S
O102 C95 1.240 . S
O103 In91 2.326 . S
O103 C95 1.252 . S
In104 O105 2.294 . S
In104 O106 2.326 . S
In104 O110 2.266 . S
In104 O111 2.326 . S
In104 O112 2.266 . S
In104 O113 2.326 . S
In104 O115 2.294 . S
In104 O116 2.326 . S
O105 In104 2.294 . S
O105 C114 1.240 . S
O106 In104 2.326 . S
O106 C114 1.252 . S
C107 O110 1.252 . S
C107 O111 1.260 . S
C108 O115 1.240 . S
C108 O116 1.252 . S
C109 O112 1.252 . S
C109 O113 1.260 . S
O110 In104 2.266 . S
O110 C107 1.252 . S
O111 In104 2.326 . S
O111 C107 1.260 . S
O112 In104 2.266 . S
O112 C109 1.252 . S
O113 In104 2.326 . S
O113 C109 1.260 . S
C114 O105 1.240 . S
C114 O106 1.252 . S
O115 In104 2.294 . S
O115 C108 1.240 . S
O116 In104 2.326 . S
O116 C108 1.252 . S
In117 O118 2.294 . S
In117 O119 2.326 . S
In117 O123 2.266 . S
In117 O124 2.326 . S
In117 O125 2.266 . S
In117 O126 2.326 . S
In117 O128 2.294 . S
In117 O129 2.326 . S
O118 In117 2.294 . S
O118 C127 1.240 . S
O119 In117 2.326 . S
O119 C127 1.252 . S
C120 O123 1.252 . S
C120 O124 1.260 . S
C121 O128 1.240 . S
C121 O129 1.252 . S
C122 O125 1.252 . S
C122 O126 1.260 . S
O123 In117 2.266 . S
O123 C120 1.252 . S
O124 In117 2.326 . S
O124 C120 1.260 . S
O125 In117 2.266 . S
O125 C122 1.252 . S
O126 In117 2.326 . S
O126 C122 1.260 . S
C127 O118 1.240 . S
C127 O119 1.252 . S
O128 In117 2.294 . S
O128 C121 1.240 . S
O129 In117 2.326 . S
O129 C121 1.252 . S
In130 O131 2.294 . S
In130 O132 2.326 . S
In130 O136 2.266 . S
In130 O137 2.326 . S
In130 O138 2.266 . S
In130 O139 2.326 . S
In130 O141 2.294 . S
In130 O142 2.326 . S
O131 In130 2.294 . S
O131 C140 1.240 . S
O132 In130 2.326 . S
O132 C140 1.252 . S
C133 O136 1.252 . S
C133 O137 1.260 . S
C134 O141 1.240 . S
C134 O142 1.252 . S
C135 O138 1.252 . S
C135 O139 1.260 . S
O136 In130 2.266 . S
O136 C133 1.252 . S
O137 In130 2.326 . S
O137 C133 1.260 . S
O138 In130 2.266 . S
O138 C135 1.252 . S
O139 In130 2.326 . S
O139 C135 1.260 . S
C140 O131 1.240 . S
C140 O132 1.252 . S
O141 In130 2.294 . S
O141 C134 1.240 . S
O142 In130 2.326 . S
O142 C134 1.252 . S
In143 O144 2.294 . S
In143 O145 2.326 . S
In143 O149 2.266 . S
In143 O150 2.326 . S
In143 O151 2.266 . S
In143 O152 2.326 . S
In143 O154 2.294 . S
In143 O155 2.326 . S
O144 In143 2.294 . S
O144 C153 1.240 . S
O145 In143 2.326 . S
O145 C153 1.252 . S
C146 O149 1.252 . S
C146 O150 1.260 . S
C147 O154 1.240 . S
C147 O155 1.252 . S
C148 O151 1.252 . S
C148 O152 1.260 . S
O149 In143 2.266 . S
O149 C146 1.252 . S
O150 In143 2.326 . S
O150 C146 1.260 . S
O151 In143 2.266 . S
O151 C148 1.252 . S
O152 In143 2.326 . S
O152 C148 1.260 . S
C153 O144 1.240 . S
C153 O145 1.252 . S
O154 In143 2.294 . S
O154 C147 1.240 . S
O155 In143 2.326 . S
O155 C147 1.252 . S
In156 O157 2.294 . S
In156 O158 2.326 . S
In156 O162 2.266 . S
In156 O163 2.326 . S
In156 O164 2.266 . S
In156 O165 2.326 . S
In156 O167 2.294 . S
In156 O168 2.326 . S
O157 In156 2.294 . S
O157 C166 1.240 . S
O158 In156 2.326 . S
O158 C166 1.252 . S
C159 O162 1.252 . S
C159 O163 1.260 . S
C160 O167 1.240 . S
C160 O168 1.252 . S
C161 O164 1.252 . S
C161 O165 1.260 . S
O162 In156 2.266 . S
O162 C159 1.252 . S
O163 In156 2.326 . S
O163 C159 1.260 . S
O164 In156 2.266 . S
O164 C161 1.252 . S
O165 In156 2.326 . S
O165 C161 1.260 . S
C166 O157 1.240 . S
C166 O158 1.252 . S
O167 In156 2.294 . S
O167 C160 1.240 . S
O168 In156 2.326 . S
O168 C160 1.252 . S
In169 O170 2.294 . S
In169 O171 2.326 . S
In169 O175 2.266 . S
In169 O176 2.326 . S
In169 O177 2.266 . S
In169 O178 2.326 . S
In169 O180 2.294 . S
In169 O181 2.326 . S
O170 In169 2.294 . S
O170 C179 1.240 . S
O171 In169 2.326 . S
O171 C179 1.252 . S
C172 O175 1.252 . S
C172 O176 1.260 . S
C173 O180 1.240 . S
C173 O181 1.252 . S
C174 O177 1.252 . S
C174 O178 1.260 . S
O175 In169 2.266 . S
O175 C172 1.252 . S
O176 In169 2.326 . S
O176 C172 1.260 . S
O177 In169 2.266 . S
O177 C174 1.252 . S
O178 In169 2.326 . S
O178 C174 1.260 . S
C179 O170 1.240 . S
C179 O171 1.252 . S
O180 In169 2.294 . S
O180 C173 1.240 . S
O181 In169 2.326 . S
O181 C173 1.252 . S
In182 O183 2.294 . S
In182 O184 2.326 . S
In182 O188 2.266 . S
In182 O189 2.326 . S
In182 O190 2.266 . S
In182 O191 2.326 . S
In182 O193 2.294 . S
In182 O194 2.326 . S
O183 In182 2.294 . S
O183 C192 1.240 . S
O184 In182 2.326 . S
O184 C192 1.252 . S
C185 O188 1.252 . S
C185 O189 1.260 . S
C186 O193 1.240 . S
C186 O194 1.252 . S
C187 O190 1.252 . S
C187 O191 1.260 . S
O188 In182 2.266 . S
O188 C185 1.252 . S
O189 In182 2.326 . S
O189 C185 1.260 . S
O190 In182 2.266 . S
O190 C187 1.252 . S
O191 In182 2.326 . S
O191 C187 1.260 . S
C192 O183 1.240 . S
C192 O184 1.252 . S
O193 In182 2.294 . S
O193 C186 1.240 . S
O194 In182 2.326 . S
O194 C186 1.252 . S
In195 O196 2.294 . S
In195 O197 2.326 . S
In195 O201 2.266 . S
In195 O202 2.326 . S
In195 O203 2.266 . S
In195 O204 2.326 . S
In195 O206 2.294 . S
In195 O207 2.326 . S
O196 In195 2.294 . S
O196 C205 1.240 . S
O197 In195 2.326 . S
O197 C205 1.252 . S
C198 O201 1.252 . S
C198 O202 1.260 . S
C199 O206 1.240 . S
C199 O207 1.252 . S
C200 O203 1.252 . S
C200 O204 1.260 . S
O201 In195 2.266 . S
O201 C198 1.252 . S
O202 In195 2.326 . S
O202 C198 1.260 . S
O203 In195 2.266 . S
O203 C200 1.252 . S
O204 In195 2.326 . S
O204 C200 1.260 . S
C205 O196 1.240 . S
C205 O197 1.252 . S
O206 In195 2.294 . S
O206 C199 1.240 . S
O207 In195 2.326 . S
O207 C199 1.252 . S
In208 O209 2.294 . S
In208 O210 2.326 . S
In208 O214 2.266 . S
In208 O215 2.326 . S
In208 O216 2.266 . S
In208 O217 2.326 . S
In208 O219 2.294 . S
In208 O220 2.326 . S
O209 In208 2.294 . S
O209 C218 1.240 . S
O210 In208 2.326 . S
O210 C218 1.252 . S
C211 O214 1.252 . S
C211 O215 1.260 . S
C212 O219 1.240 . S
C212 O220 1.252 . S
C213 O216 1.252 . S
C213 O217 1.260 . S
O214 In208 2.266 . S
O214 C211 1.252 . S
O215 In208 2.326 . S
O215 C211 1.260 . S
O216 In208 2.266 . S
O216 C213 1.252 . S
O217 In208 2.326 . S
O217 C213 1.260 . S
C218 O209 1.240 . S
C218 O210 1.252 . S
O219 In208 2.294 . S
O219 C212 1.240 . S
O220 In208 2.326 . S
O220 C212 1.252 . S
In221 O222 2.294 . S
In221 O223 2.326 . S
In221 O227 2.266 . S
In221 O228 2.326 . S
In221 O229 2.266 . S
In221 O230 2.326 . S
In221 O232 2.294 . S
In221 O233 2.326 . S
O222 In221 2.294 . S
O222 C231 1.240 . S
O223 In221 2.326 . S
O223 C231 1.252 . S
C224 O227 1.252 . S
C224 O228 1.260 . S
C225 O232 1.240 . S
C225 O233 1.252 . S
C226 O229 1.252 . S
C226 O230 1.260 . S
O227 In221 2.266 . S
O227 C224 1.252 . S
O228 In221 2.326 . S
O228 C224 1.260 . S
O229 In221 2.266 . S
O229 C226 1.252 . S
O230 In221 2.326 . S
O230 C226 1.260 . S
C231 O222 1.240 . S
C231 O223 1.252 . S
O232 In221 2.294 . S
O232 C225 1.240 . S
O233 In221 2.326 . S
O233 C225 1.252 . S
In234 O235 2.294 . S
In234 O236 2.326 . S
In234 O240 2.266 . S
In234 O241 2.326 . S
In234 O242 2.266 . S
In234 O243 2.326 . S
In234 O245 2.294 . S
In234 O246 2.326 . S
O235 In234 2.294 . S
O235 C244 1.240 . S
O236 In234 2.326 . S
O236 C244 1.252 . S
C237 O240 1.252 . S
C237 O241 1.260 . S
C238 O245 1.240 . S
C238 O246 1.252 . S
C239 O242 1.252 . S
C239 O243 1.260 . S
O240 In234 2.266 . S
O240 C237 1.252 . S
O241 In234 2.326 . S
O241 C237 1.260 . S
O242 In234 2.266 . S
O242 C239 1.252 . S
O243 In234 2.326 . S
O243 C239 1.260 . S
C244 O235 1.240 . S
C244 O236 1.252 . S
O245 In234 2.294 . S
O245 C238 1.240 . S
O246 In234 2.326 . S
O246 C238 1.252 . S
In247 O248 2.294 . S
In247 O249 2.326 . S
In247 O253 2.266 . S
In247 O254 2.326 . S
In247 O255 2.266 . S
In247 O256 2.326 . S
In247 O258 2.294 . S
In247 O259 2.326 . S
O248 In247 2.294 . S
O248 C257 1.240 . S
O249 In247 2.326 . S
O249 C257 1.252 . S
C250 O253 1.252 . S
C250 O254 1.260 . S
C251 O258 1.240 . S
C251 O259 1.252 . S
C252 O255 1.252 . S
C252 O256 1.260 . S
O253 In247 2.266 . S
O253 C250 1.252 . S
O254 In247 2.326 . S
O254 C250 1.260 . S
O255 In247 2.266 . S
O255 C252 1.252 . S
O256 In247 2.326 . S
O256 C252 1.260 . S
C257 O248 1.240 . S
C257 O249 1.252 . S
O258 In247 2.294 . S
O258 C251 1.240 . S
O259 In247 2.326 . S
O259 C251 1.252 . S
In260 O261 2.294 . S
In260 O262 2.326 . S
In260 O266 2.266 . S
In260 O267 2.326 . S
In260 O268 2.266 . S
In260 O269 2.326 . S
In260 O271 2.294 . S
In260 O272 2.326 . S
O261 In260 2.294 . S
O261 C270 1.240 . S
O262 In260 2.326 . S
O262 C270 1.252 . S
C263 O266 1.252 . S
C263 O267 1.260 . S
C264 O271 1.240 . S
C264 O272 1.252 . S
C265 O268 1.252 . S
C265 O269 1.260 . S
O266 In260 2.266 . S
O266 C263 1.252 . S
O267 In260 2.326 . S
O267 C263 1.260 . S
O268 In260 2.266 . S
O268 C265 1.252 . S
O269 In260 2.326 . S
O269 C265 1.260 . S
C270 O261 1.240 . S
C270 O262 1.252 . S
O271 In260 2.294 . S
O271 C264 1.240 . S
O272 In260 2.326 . S
O272 C264 1.252 . S
In273 O274 2.294 . S
In273 O275 2.326 . S
In273 O279 2.266 . S
In273 O280 2.326 . S
In273 O281 2.266 . S
In273 O282 2.326 . S
In273 O284 2.294 . S
In273 O285 2.326 . S
O274 In273 2.294 . S
O274 C283 1.240 . S
O275 In273 2.326 . S
O275 C283 1.252 . S
C276 O279 1.252 . S
C276 O280 1.260 . S
C277 O284 1.240 . S
C277 O285 1.252 . S
C278 O281 1.252 . S
C278 O282 1.260 . S
O279 In273 2.266 . S
O279 C276 1.252 . S
O280 In273 2.326 . S
O280 C276 1.260 . S
O281 In273 2.266 . S
O281 C278 1.252 . S
O282 In273 2.326 . S
O282 C278 1.260 . S
C283 O274 1.240 . S
C283 O275 1.252 . S
O284 In273 2.294 . S
O284 C277 1.240 . S
O285 In273 2.326 . S
O285 C277 1.252 . S
In286 O287 2.294 . S
In286 O288 2.326 . S
In286 O292 2.266 . S
In286 O293 2.326 . S
In286 O294 2.266 . S
In286 O295 2.326 . S
In286 O297 2.294 . S
In286 O298 2.326 . S
O287 In286 2.294 . S
O287 C296 1.240 . S
O288 In286 2.326 . S
O288 C296 1.252 . S
C289 O292 1.252 . S
C289 O293 1.260 . S
C290 O297 1.240 . S
C290 O298 1.252 . S
C291 O294 1.252 . S
C291 O295 1.260 . S
O292 In286 2.266 . S
O292 C289 1.252 . S
O293 In286 2.326 . S
O293 C289 1.260 . S
O294 In286 2.266 . S
O294 C291 1.252 . S
O295 In286 2.326 . S
O295 C291 1.260 . S
C296 O287 1.240 . S
C296 O288 1.252 . S
O297 In286 2.294 . S
O297 C290 1.240 . S
O298 In286 2.326 . S
O298 C290 1.252 . S
In299 O300 2.294 . S
In299 O301 2.326 . S
In299 O305 2.266 . S
In299 O306 2.326 . S
In299 O307 2.266 . S
In299 O308 2.326 . S
In299 O310 2.294 . S
In299 O311 2.326 . S
O300 In299 2.294 . S
O300 C309 1.240 . S
O301 In299 2.326 . S
O301 C309 1.252 . S
C302 O305 1.252 . S
C302 O306 1.260 . S
C303 O310 1.240 . S
C303 O311 1.252 . S
C304 O307 1.252 . S
C304 O308 1.260 . S
O305 In299 2.266 . S
O305 C302 1.252 . S
O306 In299 2.326 . S
O306 C302 1.260 . S
O307 In299 2.266 . S
O307 C304 1.252 . S
O308 In299 2.326 . S
O308 C304 1.260 . S
C309 O300 1.240 . S
C309 O301 1.252 . S
O310 In299 2.294 . S
O310 C303 1.240 . S
O311 In299 2.326 . S
O311 C303 1.252 . S
In312 O313 2.294 . S
In312 O314 2.326 . S
In312 O318 2.266 . S
In312 O319 2.326 . S
In312 O320 2.266 . S
In312 O321 2.326 . S
In312 O323 2.294 . S
In312 O324 2.326 . S
O313 In312 2.294 . S
O313 C322 1.240 . S
O314 In312 2.326 . S
O314 C322 1.252 . S
C315 O318 1.252 . S
C315 O319 1.260 . S
C316 O323 1.240 . S
C316 O324 1.252 . S
C317 O320 1.252 . S
C317 O321 1.260 . S
O318 In312 2.266 . S
O318 C315 1.252 . S
O319 In312 2.326 . S
O319 C315 1.260 . S
O320 In312 2.266 . S
O320 C317 1.252 . S
O321 In312 2.326 . S
O321 C317 1.260 . S
C322 O313 1.240 . S
C322 O314 1.252 . S
O323 In312 2.294 . S
O323 C316 1.240 . S
O324 In312 2.326 . S
O324 C316 1.252 . S
In325 O326 2.294 . S
In325 O327 2.326 . S
In325 O331 2.266 . S
In325 O332 2.326 . S
In325 O333 2.266 . S
In325 O334 2.326 . S
In325 O336 2.294 . S
In325 O337 2.326 . S
O326 In325 2.294 . S
O326 C335 1.240 . S
O327 In325 2.326 . S
O327 C335 1.252 . S
C328 O331 1.252 . S
C328 O332 1.260 . S
C329 O336 1.240 . S
C329 O337 1.252 . S
C330 O333 1.252 . S
C330 O334 1.260 . S
O331 In325 2.266 . S
O331 C328 1.252 . S
O332 In325 2.326 . S
O332 C328 1.260 . S
O333 In325 2.266 . S
O333 C330 1.252 . S
O334 In325 2.326 . S
O334 C330 1.260 . S
C335 O326 1.240 . S
C335 O327 1.252 . S
O336 In325 2.294 . S
O336 C329 1.240 . S
O337 In325 2.326 . S
O337 C329 1.252 . S
In338 O339 2.294 . S
In338 O340 2.326 . S
In338 O344 2.266 . S
In338 O345 2.326 . S
In338 O346 2.266 . S
In338 O347 2.326 . S
In338 O349 2.294 . S
In338 O350 2.326 . S
O339 In338 2.294 . S
O339 C348 1.240 . S
O340 In338 2.326 . S
O340 C348 1.252 . S
C341 O344 1.252 . S
C341 O345 1.260 . S
C342 O349 1.240 . S
C342 O350 1.252 . S
C343 O346 1.252 . S
C343 O347 1.260 . S
O344 In338 2.266 . S
O344 C341 1.252 . S
O345 In338 2.326 . S
O345 C341 1.260 . S
O346 In338 2.266 . S
O346 C343 1.252 . S
O347 In338 2.326 . S
O347 C343 1.260 . S
C348 O339 1.240 . S
C348 O340 1.252 . S
O349 In338 2.294 . S
O349 C342 1.240 . S
O350 In338 2.326 . S
O350 C342 1.252 . S
In351 O352 2.294 . S
In351 O353 2.326 . S
In351 O357 2.266 . S
In351 O358 2.326 . S
In351 O359 2.266 . S
In351 O360 2.326 . S
In351 O362 2.294 . S
In351 O363 2.326 . S
O352 In351 2.294 . S
O352 C361 1.240 . S
O353 In351 2.326 . S
O353 C361 1.252 . S
C354 O357 1.252 . S
C354 O358 1.260 . S
C355 O362 1.240 . S
C355 O363 1.252 . S
C356 O359 1.252 . S
C356 O360 1.260 . S
O357 In351 2.266 . S
O357 C354 1.252 . S
O358 In351 2.326 . S
O358 C354 1.260 . S
O359 In351 2.266 . S
O359 C356 1.252 . S
O360 In351 2.326 . S
O360 C356 1.260 . S
C361 O352 1.240 . S
C361 O353 1.252 . S
O362 In351 2.294 . S
O362 C355 1.240 . S
O363 In351 2.326 . S
O363 C355 1.252 . S
In364 O365 2.294 . S
In364 O366 2.326 . S
In364 O370 2.266 . S
In364 O371 2.326 . S
In364 O372 2.266 . S
In364 O373 2.326 . S
In364 O375 2.294 . S
In364 O376 2.326 . S
O365 In364 2.294 . S
O365 C374 1.240 . S
O366 In364 2.326 . S
O366 C374 1.252 . S
C367 O370 1.252 . S
C367 O371 1.260 . S
C368 O375 1.240 . S
C368 O376 1.252 . S
C369 O372 1.252 . S
C369 O373 1.260 . S
O370 In364 2.266 . S
O370 C367 1.252 . S
O371 In364 2.326 . S
O371 C367 1.260 . S
O372 In364 2.266 . S
O372 C369 1.252 . S
O373 In364 2.326 . S
O373 C369 1.260 . S
C374 O365 1.240 . S
C374 O366 1.252 . S
O375 In364 2.294 . S
O375 C368 1.240 . S
O376 In364 2.326 . S
O376 C368 1.252 . S
In377 O378 2.294 . S
In377 O379 2.326 . S
In377 O383 2.266 . S
In377 O384 2.326 . S
In377 O385 2.266 . S
In377 O386 2.326 . S
In377 O388 2.294 . S
In377 O389 2.326 . S
O378 In377 2.294 . S
O378 C387 1.240 . S
O379 In377 2.326 . S
O379 C387 1.252 . S
C380 O383 1.252 . S
C380 O384 1.260 . S
C381 O388 1.240 . S
C381 O389 1.252 . S
C382 O385 1.252 . S
C382 O386 1.260 . S
O383 In377 2.266 . S
O383 C380 1.252 . S
O384 In377 2.326 . S
O384 C380 1.260 . S
O385 In377 2.266 . S
O385 C382 1.252 . S
O386 In377 2.326 . S
O386 C382 1.260 . S
C387 O378 1.240 . S
C387 O379 1.252 . S
O388 In377 2.294 . S
O388 C381 1.240 . S
O389 In377 2.326 . S
O389 C381 1.252 . S
In390 O391 2.294 . S
In390 O392 2.326 . S
In390 O396 2.266 . S
In390 O397 2.326 . S
In390 O398 2.266 . S
In390 O399 2.326 . S
In390 O401 2.294 . S
In390 O402 2.326 . S
O391 In390 2.294 . S
O391 C400 1.240 . S
O392 In390 2.326 . S
O392 C400 1.252 . S
C393 O396 1.252 . S
C393 O397 1.260 . S
C394 O401 1.240 . S
C394 O402 1.252 . S
C395 O398 1.252 . S
C395 O399 1.260 . S
O396 In390 2.266 . S
O396 C393 1.252 . S
O397 In390 2.326 . S
O397 C393 1.260 . S
O398 In390 2.266 . S
O398 C395 1.252 . S
O399 In390 2.326 . S
O399 C395 1.260 . S
C400 O391 1.240 . S
C400 O392 1.252 . S
O401 In390 2.294 . S
O401 C394 1.240 . S
O402 In390 2.326 . S
O402 C394 1.252 . S
In403 O404 2.294 . S
In403 O405 2.326 . S
In403 O409 2.266 . S
In403 O410 2.326 . S
In403 O411 2.266 . S
In403 O412 2.326 . S
In403 O414 2.294 . S
In403 O415 2.326 . S
O404 In403 2.294 . S
O404 C413 1.240 . S
O405 In403 2.326 . S
O405 C413 1.252 . S
C406 O409 1.252 . S
C406 O410 1.260 . S
C407 O414 1.240 . S
C407 O415 1.252 . S
C408 O411 1.252 . S
C408 O412 1.260 . S
O409 In403 2.266 . S
O409 C406 1.252 . S
O410 In403 2.326 . S
O410 C406 1.260 . S
O411 In403 2.266 . S
O411 C408 1.252 . S
O412 In403 2.326 . S
O412 C408 1.260 . S
C413 O404 1.240 . S
C413 O405 1.252 . S
O414 In403 2.294 . S
O414 C407 1.240 . S
O415 In403 2.326 . S
O415 C407 1.252 . S
H416 C424 0.950 . S
H417 C429 0.950 . S
H418 C426 0.950 . S
H419 C428 0.950 . S
H420 C430 0.950 . S
H421 C432 0.950 . S
H422 C434 0.950 . S
H423 C435 0.950 . S
C424 H416 0.950 . S
C424 C425 1.386 . S
C424 C426 1.391 . S
C425 C424 1.386 . S
C425 C429 1.393 . S
C426 H418 0.950 . S
C426 C424 1.391 . S
C426 C427 1.400 . S
C427 C426 1.400 . S
C427 C428 1.398 . S
C427 C433 1.491 . S
C428 H419 0.950 . S
C428 C427 1.398 . S
C428 C429 1.391 . S
C429 H417 0.950 . S
C429 C425 1.393 . S
C429 C428 1.391 . S
C430 H420 0.950 . S
C430 C431 1.386 . S
C430 C432 1.391 . S
C431 C430 1.386 . S
C431 C435 1.393 . S
C432 H421 0.950 . S
C432 C430 1.391 . S
C432 C433 1.400 . S
C433 C427 1.491 . S
C433 C432 1.400 . S
C433 C434 1.398 . S
C434 H422 0.950 . S
C434 C433 1.398 . S
C434 C435 1.391 . S
C435 H423 0.950 . S
C435 C431 1.393 . S
C435 C434 1.391 . S
H436 C444 0.950 . S
H437 C449 0.950 . S
H438 C446 0.950 . S
H439 C448 0.950 . S
H440 C450 0.950 . S
H441 C452 0.950 . S
H442 C454 0.950 . S
H443 C455 0.950 . S
C444 H436 0.950 . S
C444 C445 1.386 . S
C444 C446 1.391 . S
C445 C444 1.386 . S
C445 C449 1.393 . S
C446 H438 0.950 . S
C446 C444 1.391 . S
C446 C447 1.400 . S
C447 C446 1.400 . S
C447 C448 1.398 . S
C447 C453 1.491 . S
C448 H439 0.950 . S
C448 C447 1.398 . S
C448 C449 1.391 . S
C449 H437 0.950 . S
C449 C445 1.393 . S
C449 C448 1.391 . S
C450 H440 0.950 . S
C450 C451 1.386 . S
C450 C452 1.391 . S
C451 C450 1.386 . S
C451 C455 1.393 . S
C452 H441 0.950 . S
C452 C450 1.391 . S
C452 C453 1.400 . S
C453 C447 1.491 . S
C453 C452 1.400 . S
C453 C454 1.398 . S
C454 H442 0.950 . S
C454 C453 1.398 . S
C454 C455 1.391 . S
C455 H443 0.950 . S
C455 C451 1.393 . S
C455 C454 1.391 . S
H456 C464 0.950 . S
H457 C469 0.950 . S
H458 C466 0.950 . S
H459 C468 0.950 . S
H460 C470 0.950 . S
H461 C472 0.950 . S
H462 C474 0.950 . S
H463 C475 0.950 . S
C464 H456 0.950 . S
C464 C465 1.386 . S
C464 C466 1.391 . S
C465 C464 1.386 . S
C465 C469 1.393 . S
C466 H458 0.950 . S
C466 C464 1.391 . S
C466 C467 1.400 . S
C467 C466 1.400 . S
C467 C468 1.398 . S
C467 C473 1.491 . S
C468 H459 0.950 . S
C468 C467 1.398 . S
C468 C469 1.391 . S
C469 H457 0.950 . S
C469 C465 1.393 . S
C469 C468 1.391 . S
C470 H460 0.950 . S
C470 C471 1.386 . S
C470 C472 1.391 . S
C471 C470 1.386 . S
C471 C475 1.393 . S
C472 H461 0.950 . S
C472 C470 1.391 . S
C472 C473 1.400 . S
C473 C467 1.491 . S
C473 C472 1.400 . S
C473 C474 1.398 . S
C474 H462 0.950 . S
C474 C473 1.398 . S
C474 C475 1.391 . S
C475 H463 0.950 . S
C475 C471 1.393 . S
C475 C474 1.391 . S
H476 C484 0.950 . S
H477 C489 0.950 . S
H478 C486 0.950 . S
H479 C488 0.950 . S
H480 C490 0.950 . S
H481 C492 0.950 . S
H482 C494 0.950 . S
H483 C495 0.950 . S
C484 H476 0.950 . S
C484 C485 1.386 . S
C484 C486 1.391 . S
C485 C484 1.386 . S
C485 C489 1.393 . S
C486 H478 0.950 . S
C486 C484 1.391 . S
C486 C487 1.400 . S
C487 C486 1.400 . S
C487 C488 1.398 . S
C487 C493 1.491 . S
C488 H479 0.950 . S
C488 C487 1.398 . S
C488 C489 1.391 . S
C489 H477 0.950 . S
C489 C485 1.393 . S
C489 C488 1.391 . S
C490 H480 0.950 . S
C490 C491 1.386 . S
C490 C492 1.391 . S
C491 C490 1.386 . S
C491 C495 1.393 . S
C492 H481 0.950 . S
C492 C490 1.391 . S
C492 C493 1.400 . S
C493 C487 1.491 . S
C493 C492 1.400 . S
C493 C494 1.398 . S
C494 H482 0.950 . S
C494 C493 1.398 . S
C494 C495 1.391 . S
C495 H483 0.950 . S
C495 C491 1.393 . S
C495 C494 1.391 . S
H496 C504 0.950 . S
H497 C509 0.950 . S
H498 C506 0.950 . S
H499 C508 0.950 . S
H500 C510 0.950 . S
H501 C512 0.950 . S
H502 C514 0.950 . S
H503 C515 0.950 . S
C504 H496 0.950 . S
C504 C505 1.386 . S
C504 C506 1.391 . S
C505 C504 1.386 . S
C505 C509 1.393 . S
C506 H498 0.950 . S
C506 C504 1.391 . S
C506 C507 1.400 . S
C507 C506 1.400 . S
C507 C508 1.398 . S
C507 C513 1.491 . S
C508 H499 0.950 . S
C508 C507 1.398 . S
C508 C509 1.391 . S
C509 H497 0.950 . S
C509 C505 1.393 . S
C509 C508 1.391 . S
C510 H500 0.950 . S
C510 C511 1.386 . S
C510 C512 1.391 . S
C511 C510 1.386 . S
C511 C515 1.393 . S
C512 H501 0.950 . S
C512 C510 1.391 . S
C512 C513 1.400 . S
C513 C507 1.491 . S
C513 C512 1.400 . S
C513 C514 1.398 . S
C514 H502 0.950 . S
C514 C513 1.398 . S
C514 C515 1.391 . S
C515 H503 0.950 . S
C515 C511 1.393 . S
C515 C514 1.391 . S
H516 C524 0.950 . S
H517 C529 0.950 . S
H518 C526 0.950 . S
H519 C528 0.950 . S
H520 C530 0.950 . S
H521 C532 0.950 . S
H522 C534 0.950 . S
H523 C535 0.950 . S
C524 H516 0.950 . S
C524 C525 1.386 . S
C524 C526 1.391 . S
C525 C524 1.386 . S
C525 C529 1.393 . S
C526 H518 0.950 . S
C526 C524 1.391 . S
C526 C527 1.400 . S
C527 C526 1.400 . S
C527 C528 1.398 . S
C527 C533 1.491 . S
C528 H519 0.950 . S
C528 C527 1.398 . S
C528 C529 1.391 . S
C529 H517 0.950 . S
C529 C525 1.393 . S
C529 C528 1.391 . S
C530 H520 0.950 . S
C530 C531 1.386 . S
C530 C532 1.391 . S
C531 C530 1.386 . S
C531 C535 1.393 . S
C532 H521 0.950 . S
C532 C530 1.391 . S
C532 C533 1.400 . S
C533 C527 1.491 . S
C533 C532 1.400 . S
C533 C534 1.398 . S
C534 H522 0.950 . S
C534 C533 1.398 . S
C534 C535 1.391 . S
C535 H523 0.950 . S
C535 C531 1.393 . S
C535 C534 1.391 . S
H536 C544 0.950 . S
H537 C549 0.950 . S
H538 C546 0.950 . S
H539 C548 0.950 . S
H540 C550 0.950 . S
H541 C552 0.950 . S
H542 C554 0.950 . S
H543 C555 0.950 . S
C544 H536 0.950 . S
C544 C545 1.386 . S
C544 C546 1.391 . S
C545 C544 1.386 . S
C545 C549 1.393 . S
C546 H538 0.950 . S
C546 C544 1.391 . S
C546 C547 1.400 . S
C547 C546 1.400 . S
C547 C548 1.398 . S
C547 C553 1.491 . S
C548 H539 0.950 . S
C548 C547 1.398 . S
C548 C549 1.391 . S
C549 H537 0.950 . S
C549 C545 1.393 . S
C549 C548 1.391 . S
C550 H540 0.950 . S
C550 C551 1.386 . S
C550 C552 1.391 . S
C551 C550 1.386 . S
C551 C555 1.393 . S
C552 H541 0.950 . S
C552 C550 1.391 . S
C552 C553 1.400 . S
C553 C547 1.491 . S
C553 C552 1.400 . S
C553 C554 1.398 . S
C554 H542 0.950 . S
C554 C553 1.398 . S
C554 C555 1.391 . S
C555 H543 0.950 . S
C555 C551 1.393 . S
C555 C554 1.391 . S
H556 C564 0.950 . S
H557 C569 0.950 . S
H558 C566 0.950 . S
H559 C568 0.950 . S
H560 C570 0.950 . S
H561 C572 0.950 . S
H562 C574 0.950 . S
H563 C575 0.950 . S
C564 H556 0.950 . S
C564 C565 1.386 . S
C564 C566 1.391 . S
C565 C564 1.386 . S
C565 C569 1.393 . S
C566 H558 0.950 . S
C566 C564 1.391 . S
C566 C567 1.400 . S
C567 C566 1.400 . S
C567 C568 1.398 . S
C567 C573 1.491 . S
C568 H559 0.950 . S
C568 C567 1.398 . S
C568 C569 1.391 . S
C569 H557 0.950 . S
C569 C565 1.393 . S
C569 C568 1.391 . S
C570 H560 0.950 . S
C570 C571 1.386 . S
C570 C572 1.391 . S
C571 C570 1.386 . S
C571 C575 1.393 . S
C572 H561 0.950 . S
C572 C570 1.391 . S
C572 C573 1.400 . S
C573 C567 1.491 . S
C573 C572 1.400 . S
C573 C574 1.398 . S
C574 H562 0.950 . S
C574 C573 1.398 . S
C574 C575 1.391 . S
C575 H563 0.950 . S
C575 C571 1.393 . S
C575 C574 1.391 . S
H576 C584 0.950 . S
H577 C589 0.950 . S
H578 C586 0.950 . S
H579 C588 0.950 . S
H580 C590 0.950 . S
H581 C592 0.950 . S
H582 C594 0.950 . S
H583 C595 0.950 . S
C584 H576 0.950 . S
C584 C585 1.386 . S
C584 C586 1.391 . S
C585 C584 1.386 . S
C585 C589 1.393 . S
C586 H578 0.950 . S
C586 C584 1.391 . S
C586 C587 1.400 . S
C587 C586 1.400 . S
C587 C588 1.398 . S
C587 C593 1.491 . S
C588 H579 0.950 . S
C588 C587 1.398 . S
C588 C589 1.391 . S
C589 H577 0.950 . S
C589 C585 1.393 . S
C589 C588 1.391 . S
C590 H580 0.950 . S
C590 C591 1.386 . S
C590 C592 1.391 . S
C591 C590 1.386 . S
C591 C595 1.393 . S
C592 H581 0.950 . S
C592 C590 1.391 . S
C592 C593 1.400 . S
C593 C587 1.491 . S
C593 C592 1.400 . S
C593 C594 1.398 . S
C594 H582 0.950 . S
C594 C593 1.398 . S
C594 C595 1.391 . S
C595 H583 0.950 . S
C595 C591 1.393 . S
C595 C594 1.391 . S
H596 C604 0.950 . S
H597 C609 0.950 . S
H598 C606 0.950 . S
H599 C608 0.950 . S
H600 C610 0.950 . S
H601 C612 0.950 . S
H602 C614 0.950 . S
H603 C615 0.950 . S
C604 H596 0.950 . S
C604 C605 1.386 . S
C604 C606 1.391 . S
C605 C604 1.386 . S
C605 C609 1.393 . S
C606 H598 0.950 . S
C606 C604 1.391 . S
C606 C607 1.400 . S
C607 C606 1.400 . S
C607 C608 1.398 . S
C607 C613 1.491 . S
C608 H599 0.950 . S
C608 C607 1.398 . S
C608 C609 1.391 . S
C609 H597 0.950 . S
C609 C605 1.393 . S
C609 C608 1.391 . S
C610 H600 0.950 . S
C610 C611 1.386 . S
C610 C612 1.391 . S
C611 C610 1.386 . S
C611 C615 1.393 . S
C612 H601 0.950 . S
C612 C610 1.391 . S
C612 C613 1.400 . S
C613 C607 1.491 . S
C613 C612 1.400 . S
C613 C614 1.398 . S
C614 H602 0.950 . S
C614 C613 1.398 . S
C614 C615 1.391 . S
C615 H603 0.950 . S
C615 C611 1.393 . S
C615 C614 1.391 . S
H616 C624 0.950 . S
H617 C629 0.950 . S
H618 C626 0.950 . S
H619 C628 0.950 . S
H620 C630 0.950 . S
H621 C632 0.950 . S
H622 C634 0.950 . S
H623 C635 0.950 . S
C624 H616 0.950 . S
C624 C625 1.386 . S
C624 C626 1.391 . S
C625 C624 1.386 . S
C625 C629 1.393 . S
C626 H618 0.950 . S
C626 C624 1.391 . S
C626 C627 1.400 . S
C627 C626 1.400 . S
C627 C628 1.398 . S
C627 C633 1.491 . S
C628 H619 0.950 . S
C628 C627 1.398 . S
C628 C629 1.391 . S
C629 H617 0.950 . S
C629 C625 1.393 . S
C629 C628 1.391 . S
C630 H620 0.950 . S
C630 C631 1.386 . S
C630 C632 1.391 . S
C631 C630 1.386 . S
C631 C635 1.393 . S
C632 H621 0.950 . S
C632 C630 1.391 . S
C632 C633 1.400 . S
C633 C627 1.491 . S
C633 C632 1.400 . S
C633 C634 1.398 . S
C634 H622 0.950 . S
C634 C633 1.398 . S
C634 C635 1.391 . S
C635 H623 0.950 . S
C635 C631 1.393 . S
C635 C634 1.391 . S
H636 C644 0.950 . S
H637 C649 0.950 . S
H638 C646 0.950 . S
H639 C648 0.950 . S
H640 C650 0.950 . S
H641 C652 0.950 . S
H642 C654 0.950 . S
H643 C655 0.950 . S
C644 H636 0.950 . S
C644 C645 1.386 . S
C644 C646 1.391 . S
C645 C644 1.386 . S
C645 C649 1.393 . S
C646 H638 0.950 . S
C646 C644 1.391 . S
C646 C647 1.400 . S
C647 C646 1.400 . S
C647 C648 1.398 . S
C647 C653 1.491 . S
C648 H639 0.950 . S
C648 C647 1.398 . S
C648 C649 1.391 . S
C649 H637 0.950 . S
C649 C645 1.393 . S
C649 C648 1.391 . S
C650 H640 0.950 . S
C650 C651 1.386 . S
C650 C652 1.391 . S
C651 C650 1.386 . S
C651 C655 1.393 . S
C652 H641 0.950 . S
C652 C650 1.391 . S
C652 C653 1.400 . S
C653 C647 1.491 . S
C653 C652 1.400 . S
C653 C654 1.398 . S
C654 H642 0.950 . S
C654 C653 1.398 . S
C654 C655 1.391 . S
C655 H643 0.950 . S
C655 C651 1.393 . S
C655 C654 1.391 . S
H656 C664 0.950 . S
H657 C669 0.950 . S
H658 C666 0.950 . S
H659 C668 0.950 . S
H660 C670 0.950 . S
H661 C672 0.950 . S
H662 C674 0.950 . S
H663 C675 0.950 . S
C664 H656 0.950 . S
C664 C665 1.386 . S
C664 C666 1.391 . S
C665 C664 1.386 . S
C665 C669 1.393 . S
C666 H658 0.950 . S
C666 C664 1.391 . S
C666 C667 1.400 . S
C667 C666 1.400 . S
C667 C668 1.398 . S
C667 C673 1.491 . S
C668 H659 0.950 . S
C668 C667 1.398 . S
C668 C669 1.391 . S
C669 H657 0.950 . S
C669 C665 1.393 . S
C669 C668 1.391 . S
C670 H660 0.950 . S
C670 C671 1.386 . S
C670 C672 1.391 . S
C671 C670 1.386 . S
C671 C675 1.393 . S
C672 H661 0.950 . S
C672 C670 1.391 . S
C672 C673 1.400 . S
C673 C667 1.491 . S
C673 C672 1.400 . S
C673 C674 1.398 . S
C674 H662 0.950 . S
C674 C673 1.398 . S
C674 C675 1.391 . S
C675 H663 0.950 . S
C675 C671 1.393 . S
C675 C674 1.391 . S
H676 C684 0.950 . S
H677 C689 0.950 . S
H678 C686 0.950 . S
H679 C688 0.950 . S
H680 C690 0.950 . S
H681 C692 0.950 . S
H682 C694 0.950 . S
H683 C695 0.950 . S
C684 H676 0.950 . S
C684 C685 1.386 . S
C684 C686 1.391 . S
C685 C684 1.386 . S
C685 C689 1.393 . S
C686 H678 0.950 . S
C686 C684 1.391 . S
C686 C687 1.400 . S
C687 C686 1.400 . S
C687 C688 1.398 . S
C687 C693 1.491 . S
C688 H679 0.950 . S
C688 C687 1.398 . S
C688 C689 1.391 . S
C689 H677 0.950 . S
C689 C685 1.393 . S
C689 C688 1.391 . S
C690 H680 0.950 . S
C690 C691 1.386 . S
C690 C692 1.391 . S
C691 C690 1.386 . S
C691 C695 1.393 . S
C692 H681 0.950 . S
C692 C690 1.391 . S
C692 C693 1.400 . S
C693 C687 1.491 . S
C693 C692 1.400 . S
C693 C694 1.398 . S
C694 H682 0.950 . S
C694 C693 1.398 . S
C694 C695 1.391 . S
C695 H683 0.950 . S
C695 C691 1.393 . S
C695 C694 1.391 . S
H696 C704 0.950 . S
H697 C709 0.950 . S
H698 C706 0.950 . S
H699 C708 0.950 . S
H700 C710 0.950 . S
H701 C712 0.950 . S
H702 C714 0.950 . S
H703 C715 0.950 . S
C704 H696 0.950 . S
C704 C705 1.386 . S
C704 C706 1.391 . S
C705 C704 1.386 . S
C705 C709 1.393 . S
C706 H698 0.950 . S
C706 C704 1.391 . S
C706 C707 1.400 . S
C707 C706 1.400 . S
C707 C708 1.398 . S
C707 C713 1.491 . S
C708 H699 0.950 . S
C708 C707 1.398 . S
C708 C709 1.391 . S
C709 H697 0.950 . S
C709 C705 1.393 . S
C709 C708 1.391 . S
C710 H700 0.950 . S
C710 C711 1.386 . S
C710 C712 1.391 . S
C711 C710 1.386 . S
C711 C715 1.393 . S
C712 H701 0.950 . S
C712 C710 1.391 . S
C712 C713 1.400 . S
C713 C707 1.491 . S
C713 C712 1.400 . S
C713 C714 1.398 . S
C714 H702 0.950 . S
C714 C713 1.398 . S
C714 C715 1.391 . S
C715 H703 0.950 . S
C715 C711 1.393 . S
C715 C714 1.391 . S
H716 C724 0.950 . S
H717 C729 0.950 . S
H718 C726 0.950 . S
H719 C728 0.950 . S
H720 C730 0.950 . S
H721 C732 0.950 . S
H722 C734 0.950 . S
H723 C735 0.950 . S
C724 H716 0.950 . S
C724 C725 1.386 . S
C724 C726 1.391 . S
C725 C724 1.386 . S
C725 C729 1.393 . S
C726 H718 0.950 . S
C726 C724 1.391 . S
C726 C727 1.400 . S
C727 C726 1.400 . S
C727 C728 1.398 . S
C727 C733 1.491 . S
C728 H719 0.950 . S
C728 C727 1.398 . S
C728 C729 1.391 . S
C729 H717 0.950 . S
C729 C725 1.393 . S
C729 C728 1.391 . S
C730 H720 0.950 . S
C730 C731 1.386 . S
C730 C732 1.391 . S
C731 C730 1.386 . S
C731 C735 1.393 . S
C732 H721 0.950 . S
C732 C730 1.391 . S
C732 C733 1.400 . S
C733 C727 1.491 . S
C733 C732 1.400 . S
C733 C734 1.398 . S
C734 H722 0.950 . S
C734 C733 1.398 . S
C734 C735 1.391 . S
C735 H723 0.950 . S
C735 C731 1.393 . S
C735 C734 1.391 . S
H736 C744 0.950 . S
H737 C749 0.950 . S
H738 C746 0.950 . S
H739 C748 0.950 . S
H740 C750 0.950 . S
H741 C752 0.950 . S
H742 C754 0.950 . S
H743 C755 0.950 . S
C744 H736 0.950 . S
C744 C745 1.386 . S
C744 C746 1.391 . S
C745 C744 1.386 . S
C745 C749 1.393 . S
C746 H738 0.950 . S
C746 C744 1.391 . S
C746 C747 1.400 . S
C747 C746 1.400 . S
C747 C748 1.398 . S
C747 C753 1.491 1_455 S
C748 H739 0.950 . S
C748 C747 1.398 . S
C748 C749 1.391 . S
C749 H737 0.950 . S
C749 C745 1.393 . S
C749 C748 1.391 . S
C750 H740 0.950 . S
C750 C751 1.386 . S
C750 C752 1.391 . S
C751 C750 1.386 . S
C751 C755 1.393 . S
C752 H741 0.950 . S
C752 C750 1.391 . S
C752 C753 1.400 . S
C753 C747 1.491 1_655 S
C753 C752 1.400 . S
C753 C754 1.398 . S
C754 H742 0.950 . S
C754 C753 1.398 . S
C754 C755 1.391 . S
C755 H743 0.950 . S
C755 C751 1.393 . S
C755 C754 1.391 . S
H756 C764 0.950 . S
H757 C769 0.950 . S
H758 C766 0.950 . S
H759 C768 0.950 . S
H760 C770 0.950 . S
H761 C772 0.950 . S
H762 C774 0.950 . S
H763 C775 0.950 . S
C764 H756 0.950 . S
C764 C765 1.386 . S
C764 C766 1.391 . S
C765 C764 1.386 . S
C765 C769 1.393 . S
C766 H758 0.950 . S
C766 C764 1.391 . S
C766 C767 1.400 . S
C767 C766 1.400 . S
C767 C768 1.398 . S
C767 C773 1.491 . S
C768 H759 0.950 . S
C768 C767 1.398 . S
C768 C769 1.391 . S
C769 H757 0.950 . S
C769 C765 1.393 . S
C769 C768 1.391 . S
C770 H760 0.950 . S
C770 C771 1.386 . S
C770 C772 1.391 . S
C771 C770 1.386 . S
C771 C775 1.393 . S
C772 H761 0.950 . S
C772 C770 1.391 . S
C772 C773 1.400 . S
C773 C767 1.491 . S
C773 C772 1.400 . S
C773 C774 1.398 . S
C774 H762 0.950 . S
C774 C773 1.398 . S
C774 C775 1.391 . S
C775 H763 0.950 . S
C775 C771 1.393 . S
C775 C774 1.391 . S
H776 C784 0.950 . S
H777 C789 0.950 . S
H778 C786 0.950 . S
H779 C788 0.950 . S
H780 C790 0.950 . S
H781 C792 0.950 . S
H782 C794 0.950 . S
H783 C795 0.950 . S
C784 H776 0.950 . S
C784 C785 1.386 . S
C784 C786 1.391 . S
C785 C784 1.386 . S
C785 C789 1.393 . S
C786 H778 0.950 . S
C786 C784 1.391 . S
C786 C787 1.400 . S
C787 C786 1.400 . S
C787 C788 1.398 . S
C787 C793 1.491 . S
C788 H779 0.950 . S
C788 C787 1.398 . S
C788 C789 1.391 . S
C789 H777 0.950 . S
C789 C785 1.393 . S
C789 C788 1.391 . S
C790 H780 0.950 . S
C790 C791 1.386 . S
C790 C792 1.391 . S
C791 C790 1.386 . S
C791 C795 1.393 . S
C792 H781 0.950 . S
C792 C790 1.391 . S
C792 C793 1.400 . S
C793 C787 1.491 . S
C793 C792 1.400 . S
C793 C794 1.398 . S
C794 H782 0.950 . S
C794 C793 1.398 . S
C794 C795 1.391 . S
C795 H783 0.950 . S
C795 C791 1.393 . S
C795 C794 1.391 . S
H796 C804 0.950 . S
H797 C809 0.950 . S
H798 C806 0.950 . S
H799 C808 0.950 . S
H800 C810 0.950 . S
H801 C812 0.950 . S
H802 C814 0.950 . S
H803 C815 0.950 . S
C804 H796 0.950 . S
C804 C805 1.386 . S
C804 C806 1.391 . S
C805 C804 1.386 . S
C805 C809 1.393 . S
C806 H798 0.950 . S
C806 C804 1.391 . S
C806 C807 1.400 . S
C807 C806 1.400 . S
C807 C808 1.398 . S
C807 C813 1.491 . S
C808 H799 0.950 . S
C808 C807 1.398 . S
C808 C809 1.391 . S
C809 H797 0.950 . S
C809 C805 1.393 . S
C809 C808 1.391 . S
C810 H800 0.950 . S
C810 C811 1.386 . S
C810 C812 1.391 . S
C811 C810 1.386 . S
C811 C815 1.393 . S
C812 H801 0.950 . S
C812 C810 1.391 . S
C812 C813 1.400 . S
C813 C807 1.491 . S
C813 C812 1.400 . S
C813 C814 1.398 . S
C814 H802 0.950 . S
C814 C813 1.398 . S
C814 C815 1.391 . S
C815 H803 0.950 . S
C815 C811 1.393 . S
C815 C814 1.391 . S
H816 C824 0.950 . S
H817 C829 0.950 . S
H818 C826 0.950 . S
H819 C828 0.950 . S
H820 C830 0.950 . S
H821 C832 0.950 . S
H822 C834 0.950 . S
H823 C835 0.950 . S
C824 H816 0.950 . S
C824 C825 1.386 . S
C824 C826 1.391 . S
C825 C824 1.386 . S
C825 C829 1.393 . S
C826 H818 0.950 . S
C826 C824 1.391 . S
C826 C827 1.400 . S
C827 C826 1.400 . S
C827 C828 1.398 . S
C827 C833 1.491 1_655 S
C828 H819 0.950 . S
C828 C827 1.398 . S
C828 C829 1.391 . S
C829 H817 0.950 . S
C829 C825 1.393 . S
C829 C828 1.391 . S
C830 H820 0.950 . S
C830 C831 1.386 . S
C830 C832 1.391 . S
C831 C830 1.386 . S
C831 C835 1.393 . S
C832 H821 0.950 . S
C832 C830 1.391 . S
C832 C833 1.400 . S
C833 C827 1.491 1_455 S
C833 C832 1.400 . S
C833 C834 1.398 . S
C834 H822 0.950 . S
C834 C833 1.398 . S
C834 C835 1.391 . S
C835 H823 0.950 . S
C835 C831 1.393 . S
C835 C834 1.391 . S
H836 C844 0.950 . S
H837 C849 0.950 . S
H838 C846 0.950 . S
H839 C848 0.950 . S
H840 C850 0.950 . S
H841 C852 0.950 . S
H842 C854 0.950 . S
H843 C855 0.950 . S
C844 H836 0.950 . S
C844 C845 1.386 . S
C844 C846 1.391 . S
C845 C844 1.386 . S
C845 C849 1.393 . S
C846 H838 0.950 . S
C846 C844 1.391 . S
C846 C847 1.400 . S
C847 C846 1.400 . S
C847 C848 1.398 . S
C847 C853 1.491 . S
C848 H839 0.950 . S
C848 C847 1.398 . S
C848 C849 1.391 . S
C849 H837 0.950 . S
C849 C845 1.393 . S
C849 C848 1.391 . S
C850 H840 0.950 . S
C850 C851 1.386 . S
C850 C852 1.391 . S
C851 C850 1.386 . S
C851 C855 1.393 . S
C852 H841 0.950 . S
C852 C850 1.391 . S
C852 C853 1.400 . S
C853 C847 1.491 . S
C853 C852 1.400 . S
C853 C854 1.398 . S
C854 H842 0.950 . S
C854 C853 1.398 . S
C854 C855 1.391 . S
C855 H843 0.950 . S
C855 C851 1.393 . S
C855 C854 1.391 . S
H856 C864 0.950 . S
H857 C869 0.950 . S
H858 C866 0.950 . S
H859 C868 0.950 . S
H860 C870 0.950 . S
H861 C872 0.950 . S
H862 C874 0.950 . S
H863 C875 0.950 . S
C864 H856 0.950 . S
C864 C865 1.386 . S
C864 C866 1.391 . S
C865 C864 1.386 . S
C865 C869 1.393 . S
C866 H858 0.950 . S
C866 C864 1.391 . S
C866 C867 1.400 . S
C867 C866 1.400 . S
C867 C868 1.398 . S
C867 C873 1.491 . S
C868 H859 0.950 . S
C868 C867 1.398 . S
C868 C869 1.391 . S
C869 H857 0.950 . S
C869 C865 1.393 . S
C869 C868 1.391 . S
C870 H860 0.950 . S
C870 C871 1.386 . S
C870 C872 1.391 . S
C871 C870 1.386 . S
C871 C875 1.393 . S
C872 H861 0.950 . S
C872 C870 1.391 . S
C872 C873 1.400 . S
C873 C867 1.491 . S
C873 C872 1.400 . S
C873 C874 1.398 . S
C874 H862 0.950 . S
C874 C873 1.398 . S
C874 C875 1.391 . S
C875 H863 0.950 . S
C875 C871 1.393 . S
C875 C874 1.391 . S
H876 C884 0.950 . S
H877 C889 0.950 . S
H878 C886 0.950 . S
H879 C888 0.950 . S
H880 C890 0.950 . S
H881 C892 0.950 . S
H882 C894 0.950 . S
H883 C895 0.950 . S
C884 H876 0.950 . S
C884 C885 1.386 . S
C884 C886 1.391 . S
C885 C884 1.386 . S
C885 C889 1.393 . S
C886 H878 0.950 . S
C886 C884 1.391 . S
C886 C887 1.400 . S
C887 C886 1.400 . S
C887 C888 1.398 . S
C887 C893 1.491 . S
C888 H879 0.950 . S
C888 C887 1.398 . S
C888 C889 1.391 . S
C889 H877 0.950 . S
C889 C885 1.393 . S
C889 C888 1.391 . S
C890 H880 0.950 . S
C890 C891 1.386 . S
C890 C892 1.391 . S
C891 C890 1.386 . S
C891 C895 1.393 . S
C892 H881 0.950 . S
C892 C890 1.391 . S
C892 C893 1.400 . S
C893 C887 1.491 . S
C893 C892 1.400 . S
C893 C894 1.398 . S
C894 H882 0.950 . S
C894 C893 1.398 . S
C894 C895 1.391 . S
C895 H883 0.950 . S
C895 C891 1.393 . S
C895 C894 1.391 . S
H896 C904 0.950 . S
H897 C909 0.950 . S
H898 C906 0.950 . S
H899 C908 0.950 . S
H900 C910 0.950 . S
H901 C912 0.950 . S
H902 C914 0.950 . S
H903 C915 0.950 . S
C904 H896 0.950 . S
C904 C905 1.386 . S
C904 C906 1.391 . S
C905 C904 1.386 . S
C905 C909 1.393 . S
C906 H898 0.950 . S
C906 C904 1.391 . S
C906 C907 1.400 . S
C907 C906 1.400 . S
C907 C908 1.398 . S
C907 C913 1.491 . S
C908 H899 0.950 . S
C908 C907 1.398 . S
C908 C909 1.391 . S
C909 H897 0.950 . S
C909 C905 1.393 . S
C909 C908 1.391 . S
C910 H900 0.950 . S
C910 C911 1.386 . S
C910 C912 1.391 . S
C911 C910 1.386 . S
C911 C915 1.393 . S
C912 H901 0.950 . S
C912 C910 1.391 . S
C912 C913 1.400 . S
C913 C907 1.491 . S
C913 C912 1.400 . S
C913 C914 1.398 . S
C914 H902 0.950 . S
C914 C913 1.398 . S
C914 C915 1.391 . S
C915 H903 0.950 . S
C915 C911 1.393 . S
C915 C914 1.391 . S
H916 C924 0.950 . S
H917 C929 0.950 . S
H918 C926 0.950 . S
H919 C928 0.950 . S
H920 C930 0.950 . S
H921 C932 0.950 . S
H922 C934 0.950 . S
H923 C935 0.950 . S
C924 H916 0.950 . S
C924 C925 1.386 . S
C924 C926 1.391 . S
C925 C924 1.386 . S
C925 C929 1.393 . S
C926 H918 0.950 . S
C926 C924 1.391 . S
C926 C927 1.400 . S
C927 C926 1.400 . S
C927 C928 1.398 . S
C927 C933 1.491 . S
C928 H919 0.950 . S
C928 C927 1.398 . S
C928 C929 1.391 . S
C929 H917 0.950 . S
C929 C925 1.393 . S
C929 C928 1.391 . S
C930 H920 0.950 . S
C930 C931 1.386 . S
C930 C932 1.391 . S
C931 C930 1.386 . S
C931 C935 1.393 . S
C932 H921 0.950 . S
C932 C930 1.391 . S
C932 C933 1.400 . S
C933 C927 1.491 . S
C933 C932 1.400 . S
C933 C934 1.398 . S
C934 H922 0.950 . S
C934 C933 1.398 . S
C934 C935 1.391 . S
C935 H923 0.950 . S
C935 C931 1.393 . S
C935 C934 1.391 . S
H936 C944 0.950 . S
H937 C949 0.950 . S
H938 C946 0.950 . S
H939 C948 0.950 . S
H940 C950 0.950 . S
H941 C952 0.950 . S
H942 C954 0.950 . S
H943 C955 0.950 . S
C944 H936 0.950 . S
C944 C945 1.386 . S
C944 C946 1.391 . S
C945 C944 1.386 . S
C945 C949 1.393 . S
C946 H938 0.950 . S
C946 C944 1.391 . S
C946 C947 1.400 . S
C947 C946 1.400 . S
C947 C948 1.398 . S
C947 C953 1.491 . S
C948 H939 0.950 . S
C948 C947 1.398 . S
C948 C949 1.391 . S
C949 H937 0.950 . S
C949 C945 1.393 . S
C949 C948 1.391 . S
C950 H940 0.950 . S
C950 C951 1.386 . S
C950 C952 1.391 . S
C951 C950 1.386 . S
C951 C955 1.393 . S
C952 H941 0.950 . S
C952 C950 1.391 . S
C952 C953 1.400 . S
C953 C947 1.491 . S
C953 C952 1.400 . S
C953 C954 1.398 . S
C954 H942 0.950 . S
C954 C953 1.398 . S
C954 C955 1.391 . S
C955 H943 0.950 . S
C955 C951 1.393 . S
C955 C954 1.391 . S
H956 C964 0.950 . S
H957 C969 0.950 . S
H958 C966 0.950 . S
H959 C968 0.950 . S
H960 C970 0.950 . S
H961 C972 0.950 . S
H962 C974 0.950 . S
H963 C975 0.950 . S
C964 H956 0.950 . S
C964 C965 1.386 . S
C964 C966 1.391 . S
C965 C964 1.386 . S
C965 C969 1.393 . S
C966 H958 0.950 . S
C966 C964 1.391 . S
C966 C967 1.400 . S
C967 C966 1.400 . S
C967 C968 1.398 . S
C967 C973 1.491 . S
C968 H959 0.950 . S
C968 C967 1.398 . S
C968 C969 1.391 . S
C969 H957 0.950 . S
C969 C965 1.393 . S
C969 C968 1.391 . S
C970 H960 0.950 . S
C970 C971 1.386 . S
C970 C972 1.391 . S
C971 C970 1.386 . S
C971 C975 1.393 . S
C972 H961 0.950 . S
C972 C970 1.391 . S
C972 C973 1.400 . S
C973 C967 1.491 . S
C973 C972 1.400 . S
C973 C974 1.398 . S
C974 H962 0.950 . S
C974 C973 1.398 . S
C974 C975 1.391 . S
C975 H963 0.950 . S
C975 C971 1.393 . S
C975 C974 1.391 . S
H976 C984 0.950 . S
H977 C989 0.950 . S
H978 C986 0.950 . S
H979 C988 0.950 . S
H980 C990 0.950 . S
H981 C992 0.950 . S
H982 C994 0.950 . S
H983 C995 0.950 . S
C984 H976 0.950 . S
C984 C985 1.386 . S
C984 C986 1.391 . S
C985 C984 1.386 . S
C985 C989 1.393 . S
C986 H978 0.950 . S
C986 C984 1.391 . S
C986 C987 1.400 . S
C987 C986 1.400 . S
C987 C988 1.398 . S
C987 C993 1.491 . S
C988 H979 0.950 . S
C988 C987 1.398 . S
C988 C989 1.391 . S
C989 H977 0.950 . S
C989 C985 1.393 . S
C989 C988 1.391 . S
C990 H980 0.950 . S
C990 C991 1.386 . S
C990 C992 1.391 . S
C991 C990 1.386 . S
C991 C995 1.393 . S
C992 H981 0.950 . S
C992 C990 1.391 . S
C992 C993 1.400 . S
C993 C987 1.491 . S
C993 C992 1.400 . S
C993 C994 1.398 . S
C994 H982 0.950 . S
C994 C993 1.398 . S
C994 C995 1.391 . S
C995 H983 0.950 . S
C995 C991 1.393 . S
C995 C994 1.391 . S
H996 C1004 0.950 . S
H997 C1009 0.950 . S
H998 C1006 0.950 . S
H999 C1008 0.950 . S
H1000 C1010 0.950 . S
H1001 C1012 0.950 . S
H1002 C1014 0.950 . S
H1003 C1015 0.950 . S
C1004 H996 0.950 . S
C1004 C1005 1.386 . S
C1004 C1006 1.391 . S
C1005 C1004 1.386 . S
C1005 C1009 1.393 . S
C1006 H998 0.950 . S
C1006 C1004 1.391 . S
C1006 C1007 1.400 . S
C1007 C1006 1.400 . S
C1007 C1008 1.398 . S
C1007 C1013 1.491 1_655 S
C1008 H999 0.950 . S
C1008 C1007 1.398 . S
C1008 C1009 1.391 . S
C1009 H997 0.950 . S
C1009 C1005 1.393 . S
C1009 C1008 1.391 . S
C1010 H1000 0.950 . S
C1010 C1011 1.386 . S
C1010 C1012 1.391 . S
C1011 C1010 1.386 . S
C1011 C1015 1.393 . S
C1012 H1001 0.950 . S
C1012 C1010 1.391 . S
C1012 C1013 1.400 . S
C1013 C1007 1.491 1_455 S
C1013 C1012 1.400 . S
C1013 C1014 1.398 . S
C1014 H1002 0.950 . S
C1014 C1013 1.398 . S
C1014 C1015 1.391 . S
C1015 H1003 0.950 . S
C1015 C1011 1.393 . S
C1015 C1014 1.391 . S
H1016 C1024 0.950 . S
H1017 C1029 0.950 . S
H1018 C1026 0.950 . S
H1019 C1028 0.950 . S
H1020 C1030 0.950 . S
H1021 C1032 0.950 . S
H1022 C1034 0.950 . S
H1023 C1035 0.950 . S
C1024 H1016 0.950 . S
C1024 C1025 1.386 . S
C1024 C1026 1.391 . S
C1025 C1024 1.386 . S
C1025 C1029 1.393 . S
C1026 H1018 0.950 . S
C1026 C1024 1.391 . S
C1026 C1027 1.400 . S
C1027 C1026 1.400 . S
C1027 C1028 1.398 . S
C1027 C1033 1.491 . S
C1028 H1019 0.950 . S
C1028 C1027 1.398 . S
C1028 C1029 1.391 . S
C1029 H1017 0.950 . S
C1029 C1025 1.393 . S
C1029 C1028 1.391 . S
C1030 H1020 0.950 . S
C1030 C1031 1.386 . S
C1030 C1032 1.391 . S
C1031 C1030 1.386 . S
C1031 C1035 1.393 . S
C1032 H1021 0.950 . S
C1032 C1030 1.391 . S
C1032 C1033 1.400 . S
C1033 C1027 1.491 . S
C1033 C1032 1.400 . S
C1033 C1034 1.398 . S
C1034 H1022 0.950 . S
C1034 C1033 1.398 . S
C1034 C1035 1.391 . S
C1035 H1023 0.950 . S
C1035 C1031 1.393 . S
C1035 C1034 1.391 . S
H1036 C1044 0.950 . S
H1037 C1049 0.950 . S
H1038 C1046 0.950 . S
H1039 C1048 0.950 . S
H1040 C1050 0.950 . S
H1041 C1052 0.950 . S
H1042 C1054 0.950 . S
H1043 C1055 0.950 . S
C1044 H1036 0.950 . S
C1044 C1045 1.386 . S
C1044 C1046 1.391 . S
C1045 C1044 1.386 . S
C1045 C1049 1.393 . S
C1046 H1038 0.950 . S
C1046 C1044 1.391 . S
C1046 C1047 1.400 . S
C1047 C1046 1.400 . S
C1047 C1048 1.398 . S
C1047 C1053 1.491 1_455 S
C1048 H1039 0.950 . S
C1048 C1047 1.398 . S
C1048 C1049 1.391 . S
C1049 H1037 0.950 . S
C1049 C1045 1.393 . S
C1049 C1048 1.391 . S
C1050 H1040 0.950 . S
C1050 C1051 1.386 . S
C1050 C1052 1.391 . S
C1051 C1050 1.386 . S
C1051 C1055 1.393 . S
C1052 H1041 0.950 . S
C1052 C1050 1.391 . S
C1052 C1053 1.400 . S
C1053 C1047 1.491 1_655 S
C1053 C1052 1.400 . S
C1053 C1054 1.398 . S
C1054 H1042 0.950 . S
C1054 C1053 1.398 . S
C1054 C1055 1.391 . S
C1055 H1043 0.950 . S
C1055 C1051 1.393 . S
C1055 C1054 1.391 . S
H1056 C1064 0.950 . S
H1057 C1069 0.950 . S
H1058 C1066 0.950 . S
H1059 C1068 0.950 . S
H1060 C1070 0.950 . S
H1061 C1072 0.950 . S
H1062 C1074 0.950 . S
H1063 C1075 0.950 . S
C1064 H1056 0.950 . S
C1064 C1065 1.386 . S
C1064 C1066 1.391 . S
C1065 C1064 1.386 . S
C1065 C1069 1.393 1_556 S
C1066 H1058 0.950 . S
C1066 C1064 1.391 . S
C1066 C1067 1.400 . S
C1067 C1066 1.400 . S
C1067 C1068 1.398 1_556 S
C1067 C1073 1.491 1_556 S
C1068 H1059 0.950 . S
C1068 C1067 1.398 1_554 S
C1068 C1069 1.391 . S
C1069 H1057 0.950 . S
C1069 C1065 1.393 1_554 S
C1069 C1068 1.391 . S
C1070 H1060 0.950 . S
C1070 C1071 1.386 . S
C1070 C1072 1.391 . S
C1071 C1070 1.386 . S
C1071 C1075 1.393 1_554 S
C1072 H1061 0.950 . S
C1072 C1070 1.391 . S
C1072 C1073 1.400 . S
C1073 C1067 1.491 1_554 S
C1073 C1072 1.400 . S
C1073 C1074 1.398 1_554 S
C1074 H1062 0.950 . S
C1074 C1073 1.398 1_556 S
C1074 C1075 1.391 . S
C1075 H1063 0.950 . S
C1075 C1071 1.393 1_556 S
C1075 C1074 1.391 . S
H1076 C1084 0.950 . S
H1077 C1089 0.950 . S
H1078 C1086 0.950 . S
H1079 C1088 0.950 . S
H1080 C1090 0.950 . S
H1081 C1092 0.950 . S
H1082 C1094 0.950 . S
H1083 C1095 0.950 . S
C1084 H1076 0.950 . S
C1084 C1085 1.386 . S
C1084 C1086 1.391 . S
C1085 C1084 1.386 . S
C1085 C1089 1.393 . S
C1086 H1078 0.950 . S
C1086 C1084 1.391 . S
C1086 C1087 1.400 . S
C1087 C1086 1.400 . S
C1087 C1088 1.398 . S
C1087 C1093 1.491 . S
C1088 H1079 0.950 . S
C1088 C1087 1.398 . S
C1088 C1089 1.391 . S
C1089 H1077 0.950 . S
C1089 C1085 1.393 . S
C1089 C1088 1.391 . S
C1090 H1080 0.950 . S
C1090 C1091 1.386 . S
C1090 C1092 1.391 . S
C1091 C1090 1.386 . S
C1091 C1095 1.393 . S
C1092 H1081 0.950 . S
C1092 C1090 1.391 . S
C1092 C1093 1.400 . S
C1093 C1087 1.491 . S
C1093 C1092 1.400 . S
C1093 C1094 1.398 . S
C1094 H1082 0.950 . S
C1094 C1093 1.398 . S
C1094 C1095 1.391 . S
C1095 H1083 0.950 . S
C1095 C1091 1.393 . S
C1095 C1094 1.391 . S
H1096 C1104 0.950 . S
H1097 C1109 0.950 . S
H1098 C1106 0.950 . S
H1099 C1108 0.950 . S
H1100 C1110 0.950 . S
H1101 C1112 0.950 . S
H1102 C1114 0.950 . S
H1103 C1115 0.950 . S
C1104 H1096 0.950 . S
C1104 C1105 1.386 . S
C1104 C1106 1.391 . S
C1105 C1104 1.386 . S
C1105 C1109 1.393 . S
C1106 H1098 0.950 . S
C1106 C1104 1.391 . S
C1106 C1107 1.400 . S
C1107 C1106 1.400 . S
C1107 C1108 1.398 . S
C1107 C1113 1.491 . S
C1108 H1099 0.950 . S
C1108 C1107 1.398 . S
C1108 C1109 1.391 . S
C1109 H1097 0.950 . S
C1109 C1105 1.393 . S
C1109 C1108 1.391 . S
C1110 H1100 0.950 . S
C1110 C1111 1.386 . S
C1110 C1112 1.391 . S
C1111 C1110 1.386 . S
C1111 C1115 1.393 . S
C1112 H1101 0.950 . S
C1112 C1110 1.391 . S
C1112 C1113 1.400 . S
C1113 C1107 1.491 . S
C1113 C1112 1.400 . S
C1113 C1114 1.398 . S
C1114 H1102 0.950 . S
C1114 C1113 1.398 . S
C1114 C1115 1.391 . S
C1115 H1103 0.950 . S
C1115 C1111 1.393 . S
C1115 C1114 1.391 . S
H1116 C1124 0.950 . S
H1117 C1129 0.950 . S
H1118 C1126 0.950 . S
H1119 C1128 0.950 . S
H1120 C1130 0.950 . S
H1121 C1132 0.950 . S
H1122 C1134 0.950 . S
H1123 C1135 0.950 . S
C1124 H1116 0.950 . S
C1124 C1125 1.386 . S
C1124 C1126 1.391 . S
C1125 C1124 1.386 . S
C1125 C1129 1.393 . S
C1126 H1118 0.950 . S
C1126 C1124 1.391 . S
C1126 C1127 1.400 . S
C1127 C1126 1.400 . S
C1127 C1128 1.398 . S
C1127 C1133 1.491 . S
C1128 H1119 0.950 . S
C1128 C1127 1.398 . S
C1128 C1129 1.391 . S
C1129 H1117 0.950 . S
C1129 C1125 1.393 . S
C1129 C1128 1.391 . S
C1130 H1120 0.950 . S
C1130 C1131 1.386 . S
C1130 C1132 1.391 . S
C1131 C1130 1.386 . S
C1131 C1135 1.393 . S
C1132 H1121 0.950 . S
C1132 C1130 1.391 . S
C1132 C1133 1.400 . S
C1133 C1127 1.491 . S
C1133 C1132 1.400 . S
C1133 C1134 1.398 . S
C1134 H1122 0.950 . S
C1134 C1133 1.398 . S
C1134 C1135 1.391 . S
C1135 H1123 0.950 . S
C1135 C1131 1.393 . S
C1135 C1134 1.391 . S
H1136 C1144 0.950 . S
H1137 C1149 0.950 . S
H1138 C1146 0.950 . S
H1139 C1148 0.950 . S
H1140 C1150 0.950 . S
H1141 C1152 0.950 . S
H1142 C1154 0.950 . S
H1143 C1155 0.950 . S
C1144 H1136 0.950 . S
C1144 C1145 1.386 1_556 S
C1144 C1146 1.391 . S
C1145 C1144 1.386 1_554 S
C1145 C1149 1.393 . S
C1146 H1138 0.950 . S
C1146 C1144 1.391 . S
C1146 C1147 1.400 1_556 S
C1147 C1146 1.400 1_554 S
C1147 C1148 1.398 . S
C1147 C1153 1.491 1_554 S
C1148 H1139 0.950 . S
C1148 C1147 1.398 . S
C1148 C1149 1.391 . S
C1149 H1137 0.950 . S
C1149 C1145 1.393 . S
C1149 C1148 1.391 . S
C1150 H1140 0.950 . S
C1150 C1151 1.386 1_554 S
C1150 C1152 1.391 . S
C1151 C1150 1.386 1_556 S
C1151 C1155 1.393 . S
C1152 H1141 0.950 . S
C1152 C1150 1.391 . S
C1152 C1153 1.400 1_554 S
C1153 C1147 1.491 1_556 S
C1153 C1152 1.400 1_556 S
C1153 C1154 1.398 . S
C1154 H1142 0.950 . S
C1154 C1153 1.398 . S
C1154 C1155 1.391 . S
C1155 H1143 0.950 . S
C1155 C1151 1.393 . S
C1155 C1154 1.391 . S
H1156 C1164 0.950 . S
H1157 C1169 0.950 . S
H1158 C1166 0.950 . S
H1159 C1168 0.950 . S
H1160 C1170 0.950 . S
H1161 C1172 0.950 . S
H1162 C1174 0.950 . S
H1163 C1175 0.950 . S
C1164 H1156 0.950 . S
C1164 C1165 1.386 . S
C1164 C1166 1.391 . S
C1165 C1164 1.386 . S
C1165 C1169 1.393 . S
C1166 H1158 0.950 . S
C1166 C1164 1.391 . S
C1166 C1167 1.400 . S
C1167 C1166 1.400 . S
C1167 C1168 1.398 . S
C1167 C1173 1.491 . S
C1168 H1159 0.950 . S
C1168 C1167 1.398 . S
C1168 C1169 1.391 . S
C1169 H1157 0.950 . S
C1169 C1165 1.393 . S
C1169 C1168 1.391 . S
C1170 H1160 0.950 . S
C1170 C1171 1.386 . S
C1170 C1172 1.391 . S
C1171 C1170 1.386 . S
C1171 C1175 1.393 . S
C1172 H1161 0.950 . S
C1172 C1170 1.391 . S
C1172 C1173 1.400 . S
C1173 C1167 1.491 . S
C1173 C1172 1.400 . S
C1173 C1174 1.398 . S
C1174 H1162 0.950 . S
C1174 C1173 1.398 . S
C1174 C1175 1.391 . S
C1175 H1163 0.950 . S
C1175 C1171 1.393 . S
C1175 C1174 1.391 . S
H1176 C1184 0.950 . S
H1177 C1189 0.950 . S
H1178 C1186 0.950 . S
H1179 C1188 0.950 . S
H1180 C1190 0.950 . S
H1181 C1192 0.950 . S
H1182 C1194 0.950 . S
H1183 C1195 0.950 . S
C1184 H1176 0.950 . S
C1184 C1185 1.386 . S
C1184 C1186 1.391 . S
C1185 C1184 1.386 . S
C1185 C1189 1.393 . S
C1186 H1178 0.950 . S
C1186 C1184 1.391 . S
C1186 C1187 1.400 . S
C1187 C1186 1.400 . S
C1187 C1188 1.398 . S
C1187 C1193 1.491 . S
C1188 H1179 0.950 . S
C1188 C1187 1.398 . S
C1188 C1189 1.391 . S
C1189 H1177 0.950 . S
C1189 C1185 1.393 . S
C1189 C1188 1.391 . S
C1190 H1180 0.950 . S
C1190 C1191 1.386 . S
C1190 C1192 1.391 . S
C1191 C1190 1.386 . S
C1191 C1195 1.393 . S
C1192 H1181 0.950 . S
C1192 C1190 1.391 . S
C1192 C1193 1.400 . S
C1193 C1187 1.491 . S
C1193 C1192 1.400 . S
C1193 C1194 1.398 . S
C1194 H1182 0.950 . S
C1194 C1193 1.398 . S
C1194 C1195 1.391 . S
C1195 H1183 0.950 . S
C1195 C1191 1.393 . S
C1195 C1194 1.391 . S
H1196 C1204 0.950 . S
H1197 C1209 0.950 . S
H1198 C1206 0.950 . S
H1199 C1208 0.950 . S
H1200 C1210 0.950 . S
H1201 C1212 0.950 . S
H1202 C1214 0.950 . S
H1203 C1215 0.950 . S
C1204 H1196 0.950 . S
C1204 C1205 1.386 . S
C1204 C1206 1.391 . S
C1205 C1204 1.386 . S
C1205 C1209 1.393 . S
C1206 H1198 0.950 . S
C1206 C1204 1.391 . S
C1206 C1207 1.400 . S
C1207 C1206 1.400 . S
C1207 C1208 1.398 . S
C1207 C1213 1.491 . S
C1208 H1199 0.950 . S
C1208 C1207 1.398 . S
C1208 C1209 1.391 . S
C1209 H1197 0.950 . S
C1209 C1205 1.393 . S
C1209 C1208 1.391 . S
C1210 H1200 0.950 . S
C1210 C1211 1.386 . S
C1210 C1212 1.391 . S
C1211 C1210 1.386 . S
C1211 C1215 1.393 . S
C1212 H1201 0.950 . S
C1212 C1210 1.391 . S
C1212 C1213 1.400 . S
C1213 C1207 1.491 . S
C1213 C1212 1.400 . S
C1213 C1214 1.398 . S
C1214 H1202 0.950 . S
C1214 C1213 1.398 . S
C1214 C1215 1.391 . S
C1215 H1203 0.950 . S
C1215 C1211 1.393 . S
C1215 C1214 1.391 . S
H1216 C1224 0.950 . S
H1217 C1229 0.950 . S
H1218 C1226 0.950 . S
H1219 C1228 0.950 . S
H1220 C1230 0.950 . S
H1221 C1232 0.950 . S
H1222 C1234 0.950 . S
H1223 C1235 0.950 . S
C1224 H1216 0.950 . S
C1224 C1225 1.386 . S
C1224 C1226 1.391 . S
C1225 C1224 1.386 . S
C1225 C1229 1.393 . S
C1226 H1218 0.950 . S
C1226 C1224 1.391 . S
C1226 C1227 1.400 . S
C1227 C1226 1.400 . S
C1227 C1228 1.398 . S
C1227 C1233 1.491 1_545 S
C1228 H1219 0.950 . S
C1228 C1227 1.398 . S
C1228 C1229 1.391 . S
C1229 H1217 0.950 . S
C1229 C1225 1.393 . S
C1229 C1228 1.391 . S
C1230 H1220 0.950 . S
C1230 C1231 1.386 . S
C1230 C1232 1.391 . S
C1231 C1230 1.386 . S
C1231 C1235 1.393 . S
C1232 H1221 0.950 . S
C1232 C1230 1.391 . S
C1232 C1233 1.400 . S
C1233 C1227 1.491 1_565 S
C1233 C1232 1.400 . S
C1233 C1234 1.398 . S
C1234 H1222 0.950 . S
C1234 C1233 1.398 . S
C1234 C1235 1.391 . S
C1235 H1223 0.950 . S
C1235 C1231 1.393 . S
C1235 C1234 1.391 . S
H1236 C1244 0.950 . S
H1237 C1249 0.950 . S
H1238 C1246 0.950 . S
H1239 C1248 0.950 . S
H1240 C1250 0.950 . S
H1241 C1252 0.950 . S
H1242 C1254 0.950 . S
H1243 C1255 0.950 . S
C1244 H1236 0.950 . S
C1244 C1245 1.386 . S
C1244 C1246 1.391 . S
C1245 C1244 1.386 . S
C1245 C1249 1.393 . S
C1246 H1238 0.950 . S
C1246 C1244 1.391 . S
C1246 C1247 1.400 . S
C1247 C1246 1.400 . S
C1247 C1248 1.398 . S
C1247 C1253 1.491 . S
C1248 H1239 0.950 . S
C1248 C1247 1.398 . S
C1248 C1249 1.391 . S
C1249 H1237 0.950 . S
C1249 C1245 1.393 . S
C1249 C1248 1.391 . S
C1250 H1240 0.950 . S
C1250 C1251 1.386 . S
C1250 C1252 1.391 . S
C1251 C1250 1.386 . S
C1251 C1255 1.393 . S
C1252 H1241 0.950 . S
C1252 C1250 1.391 . S
C1252 C1253 1.400 . S
C1253 C1247 1.491 . S
C1253 C1252 1.400 . S
C1253 C1254 1.398 . S
C1254 H1242 0.950 . S
C1254 C1253 1.398 . S
C1254 C1255 1.391 . S
C1255 H1243 0.950 . S
C1255 C1251 1.393 . S
C1255 C1254 1.391 . S
H1256 C1264 0.950 . S
H1257 C1269 0.950 . S
H1258 C1266 0.950 . S
H1259 C1268 0.950 . S
H1260 C1270 0.950 . S
H1261 C1272 0.950 . S
H1262 C1274 0.950 . S
H1263 C1275 0.950 . S
C1264 H1256 0.950 . S
C1264 C1265 1.386 . S
C1264 C1266 1.391 . S
C1265 C1264 1.386 . S
C1265 C1269 1.393 . S
C1266 H1258 0.950 . S
C1266 C1264 1.391 . S
C1266 C1267 1.400 . S
C1267 C1266 1.400 . S
C1267 C1268 1.398 . S
C1267 C1273 1.491 1_564 S
C1268 H1259 0.950 . S
C1268 C1267 1.398 . S
C1268 C1269 1.391 . S
C1269 H1257 0.950 . S
C1269 C1265 1.393 . S
C1269 C1268 1.391 . S
C1270 H1260 0.950 . S
C1270 C1271 1.386 . S
C1270 C1272 1.391 . S
C1271 C1270 1.386 . S
C1271 C1275 1.393 . S
C1272 H1261 0.950 . S
C1272 C1270 1.391 . S
C1272 C1273 1.400 . S
C1273 C1267 1.491 1_546 S
C1273 C1272 1.400 . S
C1273 C1274 1.398 . S
C1274 H1262 0.950 . S
C1274 C1273 1.398 . S
C1274 C1275 1.391 . S
C1275 H1263 0.950 . S
C1275 C1271 1.393 . S
C1275 C1274 1.391 . S
H1276 C1284 0.950 . S
H1277 C1289 0.950 . S
H1278 C1286 0.950 . S
H1279 C1288 0.950 . S
H1280 C1290 0.950 . S
H1281 C1292 0.950 . S
H1282 C1294 0.950 . S
H1283 C1295 0.950 . S
C1284 H1276 0.950 . S
C1284 C1285 1.386 . S
C1284 C1286 1.391 . S
C1285 C1284 1.386 . S
C1285 C1289 1.393 . S
C1286 H1278 0.950 . S
C1286 C1284 1.391 . S
C1286 C1287 1.400 . S
C1287 C1286 1.400 . S
C1287 C1288 1.398 . S
C1287 C1293 1.491 . S
C1288 H1279 0.950 . S
C1288 C1287 1.398 . S
C1288 C1289 1.391 . S
C1289 H1277 0.950 . S
C1289 C1285 1.393 . S
C1289 C1288 1.391 . S
C1290 H1280 0.950 . S
C1290 C1291 1.386 . S
C1290 C1292 1.391 . S
C1291 C1290 1.386 . S
C1291 C1295 1.393 . S
C1292 H1281 0.950 . S
C1292 C1290 1.391 . S
C1292 C1293 1.400 . S
C1293 C1287 1.491 . S
C1293 C1292 1.400 . S
C1293 C1294 1.398 . S
C1294 H1282 0.950 . S
C1294 C1293 1.398 . S
C1294 C1295 1.391 . S
C1295 H1283 0.950 . S
C1295 C1291 1.393 . S
C1295 C1294 1.391 . S
H1296 C1304 0.950 . S
H1297 C1309 0.950 . S
H1298 C1306 0.950 . S
H1299 C1308 0.950 . S
H1300 C1310 0.950 . S
H1301 C1312 0.950 . S
H1302 C1314 0.950 . S
H1303 C1315 0.950 . S
C1304 H1296 0.950 . S
C1304 C1305 1.386 . S
C1304 C1306 1.391 . S
C1305 C1304 1.386 . S
C1305 C1309 1.393 . S
C1306 H1298 0.950 . S
C1306 C1304 1.391 . S
C1306 C1307 1.400 . S
C1307 C1306 1.400 . S
C1307 C1308 1.398 . S
C1307 C1313 1.491 1_545 S
C1308 H1299 0.950 . S
C1308 C1307 1.398 . S
C1308 C1309 1.391 . S
C1309 H1297 0.950 . S
C1309 C1305 1.393 . S
C1309 C1308 1.391 . S
C1310 H1300 0.950 . S
C1310 C1311 1.386 . S
C1310 C1312 1.391 . S
C1311 C1310 1.386 . S
C1311 C1315 1.393 . S
C1312 H1301 0.950 . S
C1312 C1310 1.391 . S
C1312 C1313 1.400 . S
C1313 C1307 1.491 1_565 S
C1313 C1312 1.400 . S
C1313 C1314 1.398 . S
C1314 H1302 0.950 . S
C1314 C1313 1.398 . S
C1314 C1315 1.391 . S
C1315 H1303 0.950 . S
C1315 C1311 1.393 . S
C1315 C1314 1.391 . S
H1316 C1324 0.950 . S
H1317 C1329 0.950 . S
H1318 C1326 0.950 . S
H1319 C1328 0.950 . S
H1320 C1330 0.950 . S
H1321 C1332 0.950 . S
H1322 C1334 0.950 . S
H1323 C1335 0.950 . S
C1324 H1316 0.950 . S
C1324 C1325 1.386 . S
C1324 C1326 1.391 . S
C1325 C1324 1.386 . S
C1325 C1329 1.393 . S
C1326 H1318 0.950 . S
C1326 C1324 1.391 . S
C1326 C1327 1.400 . S
C1327 C1326 1.400 . S
C1327 C1328 1.398 . S
C1327 C1333 1.491 . S
C1328 H1319 0.950 . S
C1328 C1327 1.398 . S
C1328 C1329 1.391 . S
C1329 H1317 0.950 . S
C1329 C1325 1.393 . S
C1329 C1328 1.391 . S
C1330 H1320 0.950 . S
C1330 C1331 1.386 . S
C1330 C1332 1.391 . S
C1331 C1330 1.386 . S
C1331 C1335 1.393 . S
C1332 H1321 0.950 . S
C1332 C1330 1.391 . S
C1332 C1333 1.400 . S
C1333 C1327 1.491 . S
C1333 C1332 1.400 . S
C1333 C1334 1.398 . S
C1334 H1322 0.950 . S
C1334 C1333 1.398 . S
C1334 C1335 1.391 . S
C1335 H1323 0.950 . S
C1335 C1331 1.393 . S
C1335 C1334 1.391 . S
H1336 C1344 0.950 . S
H1337 C1349 0.950 . S
H1338 C1346 0.950 . S
H1339 C1348 0.931 1_556 S
H1340 C1350 0.950 . S
H1341 C1352 0.950 . S
H1342 C1354 0.931 1_554 S
H1343 C1355 0.950 . S
C1344 H1336 0.950 . S
C1344 C1345 1.386 . S
C1344 C1346 1.391 . S
C1345 C1344 1.386 . S
C1345 C1349 1.393 . S
C1346 H1338 0.950 . S
C1346 C1344 1.391 . S
C1346 C1347 1.400 . S
C1347 C1346 1.400 . S
C1347 C1348 1.405 . S
C1347 C1353 1.491 1_564 S
C1348 H1339 0.931 1_554 S
C1348 C1347 1.405 . S
C1348 C1349 1.405 . S
C1349 H1337 0.950 . S
C1349 C1345 1.393 . S
C1349 C1348 1.405 . S
C1350 H1340 0.950 . S
C1350 C1351 1.386 . S
C1350 C1352 1.391 . S
C1351 C1350 1.386 . S
C1351 C1355 1.393 . S
C1352 H1341 0.950 . S
C1352 C1350 1.391 . S
C1352 C1353 1.400 . S
C1353 C1347 1.491 1_546 S
C1353 C1352 1.400 . S
C1353 C1354 1.405 . S
C1354 H1342 0.931 1_556 S
C1354 C1353 1.405 . S
C1354 C1355 1.405 . S
C1355 H1343 0.950 . S
C1355 C1351 1.393 . S
C1355 C1354 1.405 . S
H1356 C1364 0.950 . S
H1357 C1369 0.950 . S
H1358 C1366 0.950 . S
H1359 C1368 0.950 . S
H1360 C1370 0.950 . S
H1361 C1372 0.950 . S
H1362 C1374 0.950 . S
H1363 C1375 0.950 . S
C1364 H1356 0.950 . S
C1364 C1365 1.386 . S
C1364 C1366 1.391 . S
C1365 C1364 1.386 . S
C1365 C1369 1.393 . S
C1366 H1358 0.950 . S
C1366 C1364 1.391 . S
C1366 C1367 1.400 . S
C1367 C1366 1.400 . S
C1367 C1368 1.398 . S
C1367 C1373 1.491 . S
C1368 H1359 0.950 . S
C1368 C1367 1.398 . S
C1368 C1369 1.391 . S
C1369 H1357 0.950 . S
C1369 C1365 1.393 . S
C1369 C1368 1.391 . S
C1370 H1360 0.950 . S
C1370 C1371 1.386 . S
C1370 C1372 1.391 . S
C1371 C1370 1.386 . S
C1371 C1375 1.393 . S
C1372 H1361 0.950 . S
C1372 C1370 1.391 . S
C1372 C1373 1.400 . S
C1373 C1367 1.491 . S
C1373 C1372 1.400 . S
C1373 C1374 1.398 . S
C1374 H1362 0.950 . S
C1374 C1373 1.398 . S
C1374 C1375 1.391 . S
C1375 H1363 0.950 . S
C1375 C1371 1.393 . S
C1375 C1374 1.391 . S
H1376 C1384 0.950 . S
H1377 C1389 0.950 . S
H1378 C1386 0.950 . S
H1379 C1388 0.950 . S
H1380 C1390 0.950 . S
H1381 C1392 0.950 . S
H1382 C1394 0.950 . S
H1383 C1395 0.950 . S
C1384 H1376 0.950 . S
C1384 C1385 1.386 . S
C1384 C1386 1.391 . S
C1385 C1384 1.386 . S
C1385 C1389 1.393 . S
C1386 H1378 0.950 . S
C1386 C1384 1.391 . S
C1386 C1387 1.400 . S
C1387 C1386 1.400 . S
C1387 C1388 1.398 . S
C1387 C1393 1.491 . S
C1388 H1379 0.950 . S
C1388 C1387 1.398 . S
C1388 C1389 1.391 . S
C1389 H1377 0.950 . S
C1389 C1385 1.393 . S
C1389 C1388 1.391 . S
C1390 H1380 0.950 . S
C1390 C1391 1.386 . S
C1390 C1392 1.391 . S
C1391 C1390 1.386 . S
C1391 C1395 1.393 . S
C1392 H1381 0.950 . S
C1392 C1390 1.391 . S
C1392 C1393 1.400 . S
C1393 C1387 1.491 . S
C1393 C1392 1.400 . S
C1393 C1394 1.398 . S
C1394 H1382 0.950 . S
C1394 C1393 1.398 . S
C1394 C1395 1.391 . S
C1395 H1383 0.950 . S
C1395 C1391 1.393 . S
C1395 C1394 1.391 . S
H1396 C1404 0.950 . S
H1397 C1409 0.950 . S
H1398 C1406 0.950 . S
H1399 C1408 0.950 . S
H1400 C1410 0.950 . S
H1401 C1412 0.950 . S
H1402 C1414 0.950 . S
H1403 C1415 0.950 . S
C1404 H1396 0.950 . S
C1404 C1405 1.386 . S
C1404 C1406 1.391 . S
C1405 C1404 1.386 . S
C1405 C1409 1.393 . S
C1406 H1398 0.950 . S
C1406 C1404 1.391 . S
C1406 C1407 1.400 . S
C1407 C1406 1.400 . S
C1407 C1408 1.398 . S
C1407 C1413 1.491 . S
C1408 H1399 0.950 . S
C1408 C1407 1.398 . S
C1408 C1409 1.391 . S
C1409 H1397 0.950 . S
C1409 C1405 1.393 . S
C1409 C1408 1.391 . S
C1410 H1400 0.950 . S
C1410 C1411 1.386 . S
C1410 C1412 1.391 . S
C1411 C1410 1.386 . S
C1411 C1415 1.393 . S
C1412 H1401 0.950 . S
C1412 C1410 1.391 . S
C1412 C1413 1.400 . S
C1413 C1407 1.491 . S
C1413 C1412 1.400 . S
C1413 C1414 1.398 . S
C1414 H1402 0.950 . S
C1414 C1413 1.398 . S
C1414 C1415 1.391 . S
C1415 H1403 0.950 . S
C1415 C1411 1.393 . S
C1415 C1414 1.391 . S
H1416 C1424 0.950 . S
H1417 C1429 0.950 . S
H1418 C1426 0.950 . S
H1419 C1428 0.950 . S
H1420 C1430 0.950 . S
H1421 C1432 0.950 . S
H1422 C1434 0.950 . S
H1423 C1435 0.950 . S
C1424 H1416 0.950 . S
C1424 C1425 1.386 . S
C1424 C1426 1.391 . S
C1425 C1424 1.386 . S
C1425 C1429 1.393 . S
C1426 H1418 0.950 . S
C1426 C1424 1.391 . S
C1426 C1427 1.400 . S
C1427 C1426 1.400 . S
C1427 C1428 1.398 . S
C1427 C1433 1.491 . S
C1428 H1419 0.950 . S
C1428 C1427 1.398 . S
C1428 C1429 1.391 . S
C1429 H1417 0.950 . S
C1429 C1425 1.393 . S
C1429 C1428 1.391 . S
C1430 H1420 0.950 . S
C1430 C1431 1.386 . S
C1430 C1432 1.391 . S
C1431 C1430 1.386 . S
C1431 C1435 1.393 . S
C1432 H1421 0.950 . S
C1432 C1430 1.391 . S
C1432 C1433 1.400 . S
C1433 C1427 1.491 . S
C1433 C1432 1.400 . S
C1433 C1434 1.398 . S
C1434 H1422 0.950 . S
C1434 C1433 1.398 . S
C1434 C1435 1.391 . S
C1435 H1423 0.950 . S
C1435 C1431 1.393 . S
C1435 C1434 1.391 . S
H1436 C1444 0.950 . S
H1437 C1449 0.950 . S
H1438 C1446 0.950 . S
H1439 C1448 0.950 . S
H1440 C1450 0.950 . S
H1441 C1452 0.950 . S
H1442 C1454 0.950 . S
H1443 C1455 0.950 . S
C1444 H1436 0.950 . S
C1444 C1445 1.386 . S
C1444 C1446 1.391 . S
C1445 C1444 1.386 . S
C1445 C1449 1.393 . S
C1446 H1438 0.950 . S
C1446 C1444 1.391 . S
C1446 C1447 1.400 . S
C1447 C1446 1.400 . S
C1447 C1448 1.398 . S
C1447 C1453 1.491 1_655 S
C1448 H1439 0.950 . S
C1448 C1447 1.398 . S
C1448 C1449 1.391 . S
C1449 H1437 0.950 . S
C1449 C1445 1.393 . S
C1449 C1448 1.391 . S
C1450 H1440 0.950 . S
C1450 C1451 1.386 . S
C1450 C1452 1.391 . S
C1451 C1450 1.386 . S
C1451 C1455 1.393 . S
C1452 H1441 0.950 . S
C1452 C1450 1.391 . S
C1452 C1453 1.400 . S
C1453 C1447 1.491 1_455 S
C1453 C1452 1.400 . S
C1453 C1454 1.398 . S
C1454 H1442 0.950 . S
C1454 C1453 1.398 . S
C1454 C1455 1.391 . S
C1455 H1443 0.950 . S
C1455 C1451 1.393 . S
C1455 C1454 1.391 . S
H1456 C1464 0.950 . S
H1457 C1469 0.950 . S
H1458 C1466 0.950 . S
H1459 C1468 0.950 . S
H1460 C1470 0.950 . S
H1461 C1472 0.950 . S
H1462 C1474 0.950 . S
H1463 C1475 0.950 . S
C1464 H1456 0.950 . S
C1464 C1465 1.386 . S
C1464 C1466 1.391 . S
C1465 C1464 1.386 . S
C1465 C1469 1.393 . S
C1466 H1458 0.950 . S
C1466 C1464 1.391 . S
C1466 C1467 1.400 . S
C1467 C1466 1.400 . S
C1467 C1468 1.398 . S
C1467 C1473 1.491 . S
C1468 H1459 0.950 . S
C1468 C1467 1.398 . S
C1468 C1469 1.391 . S
C1469 H1457 0.950 . S
C1469 C1465 1.393 . S
C1469 C1468 1.391 . S
C1470 H1460 0.950 . S
C1470 C1471 1.386 . S
C1470 C1472 1.391 . S
C1471 C1470 1.386 . S
C1471 C1475 1.393 . S
C1472 H1461 0.950 . S
C1472 C1470 1.391 . S
C1472 C1473 1.400 . S
C1473 C1467 1.491 . S
C1473 C1472 1.400 . S
C1473 C1474 1.398 . S
C1474 H1462 0.950 . S
C1474 C1473 1.398 . S
C1474 C1475 1.391 . S
C1475 H1463 0.950 . S
C1475 C1471 1.393 . S
C1475 C1474 1.391 . S
H1476 C1484 0.950 . S
H1477 C1489 0.950 . S
H1478 C1486 0.950 . S
H1479 C1488 0.950 . S
H1480 C1490 0.950 . S
H1481 C1492 0.950 . S
H1482 C1494 0.950 . S
H1483 C1495 0.950 . S
C1484 H1476 0.950 . S
C1484 C1485 1.386 . S
C1484 C1486 1.391 . S
C1485 C1484 1.386 . S
C1485 C1489 1.393 . S
C1486 H1478 0.950 . S
C1486 C1484 1.391 . S
C1486 C1487 1.400 . S
C1487 C1486 1.400 . S
C1487 C1488 1.398 . S
C1487 C1493 1.491 1_655 S
C1488 H1479 0.950 . S
C1488 C1487 1.398 . S
C1488 C1489 1.391 . S
C1489 H1477 0.950 . S
C1489 C1485 1.393 . S
C1489 C1488 1.391 . S
C1490 H1480 0.950 . S
C1490 C1491 1.386 . S
C1490 C1492 1.391 . S
C1491 C1490 1.386 . S
C1491 C1495 1.393 . S
C1492 H1481 0.950 . S
C1492 C1490 1.391 . S
C1492 C1493 1.400 . S
C1493 C1487 1.491 1_455 S
C1493 C1492 1.400 . S
C1493 C1494 1.398 . S
C1494 H1482 0.950 . S
C1494 C1493 1.398 . S
C1494 C1495 1.391 . S
C1495 H1483 0.950 . S
C1495 C1491 1.393 . S
C1495 C1494 1.391 . S
H1496 C1504 0.950 . S
H1497 C1509 0.950 . S
H1498 C1506 0.950 . S
H1499 C1508 0.950 . S
H1500 C1510 0.950 . S
H1501 C1512 0.950 . S
H1502 C1514 0.950 . S
H1503 C1515 0.950 . S
C1504 H1496 0.950 . S
C1504 C1505 1.386 . S
C1504 C1506 1.391 . S
C1505 C1504 1.386 . S
C1505 C1509 1.393 . S
C1506 H1498 0.950 . S
C1506 C1504 1.391 . S
C1506 C1507 1.400 . S
C1507 C1506 1.400 . S
C1507 C1508 1.398 . S
C1507 C1513 1.491 . S
C1508 H1499 0.950 . S
C1508 C1507 1.398 . S
C1508 C1509 1.391 . S
C1509 H1497 0.950 . S
C1509 C1505 1.393 . S
C1509 C1508 1.391 . S
C1510 H1500 0.950 . S
C1510 C1511 1.386 . S
C1510 C1512 1.391 . S
C1511 C1510 1.386 . S
C1511 C1515 1.393 . S
C1512 H1501 0.950 . S
C1512 C1510 1.391 . S
C1512 C1513 1.400 . S
C1513 C1507 1.491 . S
C1513 C1512 1.400 . S
C1513 C1514 1.398 . S
C1514 H1502 0.950 . S
C1514 C1513 1.398 . S
C1514 C1515 1.391 . S
C1515 H1503 0.950 . S
C1515 C1511 1.393 . S
C1515 C1514 1.391 . S
H1516 C1524 0.950 . S
H1517 C1529 0.950 . S
H1518 C1526 0.950 . S
H1519 C1528 0.950 . S
H1520 C1530 0.950 . S
H1521 C1532 0.950 . S
H1522 C1534 0.950 . S
H1523 C1535 0.950 . S
C1524 H1516 0.950 . S
C1524 C1525 1.386 . S
C1524 C1526 1.391 . S
C1525 C1524 1.386 . S
C1525 C1529 1.393 . S
C1526 H1518 0.950 . S
C1526 C1524 1.391 . S
C1526 C1527 1.400 . S
C1527 C1526 1.400 . S
C1527 C1528 1.398 . S
C1527 C1533 1.491 . S
C1528 H1519 0.950 . S
C1528 C1527 1.398 . S
C1528 C1529 1.391 . S
C1529 H1517 0.950 . S
C1529 C1525 1.393 . S
C1529 C1528 1.391 . S
C1530 H1520 0.950 . S
C1530 C1531 1.386 . S
C1530 C1532 1.391 . S
C1531 C1530 1.386 . S
C1531 C1535 1.393 . S
C1532 H1521 0.950 . S
C1532 C1530 1.391 . S
C1532 C1533 1.400 . S
C1533 C1527 1.491 . S
C1533 C1532 1.400 . S
C1533 C1534 1.398 . S
C1534 H1522 0.950 . S
C1534 C1533 1.398 . S
C1534 C1535 1.391 . S
C1535 H1523 0.950 . S
C1535 C1531 1.393 . S
C1535 C1534 1.391 . S
H1536 C1544 0.950 . S
H1537 C1549 0.950 . S
H1538 C1546 0.950 . S
H1539 C1548 0.950 . S
H1540 C1550 0.950 . S
H1541 C1552 0.950 . S
H1542 C1554 0.950 . S
H1543 C1555 0.950 . S
C1544 H1536 0.950 . S
C1544 C1545 1.386 . S
C1544 C1546 1.391 . S
C1545 C1544 1.386 . S
C1545 C1549 1.393 . S
C1546 H1538 0.950 . S
C1546 C1544 1.391 . S
C1546 C1547 1.400 . S
C1547 C1546 1.400 . S
C1547 C1548 1.398 . S
C1547 C1553 1.491 . S
C1548 H1539 0.950 . S
C1548 C1547 1.398 . S
C1548 C1549 1.391 . S
C1549 H1537 0.950 . S
C1549 C1545 1.393 . S
C1549 C1548 1.391 . S
C1550 H1540 0.950 . S
C1550 C1551 1.386 . S
C1550 C1552 1.391 . S
C1551 C1550 1.386 . S
C1551 C1555 1.393 . S
C1552 H1541 0.950 . S
C1552 C1550 1.391 . S
C1552 C1553 1.400 . S
C1553 C1547 1.491 . S
C1553 C1552 1.400 . S
C1553 C1554 1.398 . S
C1554 H1542 0.950 . S
C1554 C1553 1.398 . S
C1554 C1555 1.391 . S
C1555 H1543 0.950 . S
C1555 C1551 1.393 . S
C1555 C1554 1.391 . S
H1556 C1564 0.950 . S
H1557 C1569 0.950 . S
H1558 C1566 0.950 . S
H1559 C1568 0.950 . S
H1560 C1570 0.950 . S
H1561 C1572 0.950 . S
H1562 C1574 0.950 . S
H1563 C1575 0.950 . S
C1564 H1556 0.950 . S
C1564 C1565 1.386 . S
C1564 C1566 1.391 . S
C1565 C1564 1.386 . S
C1565 C1569 1.393 . S
C1566 H1558 0.950 . S
C1566 C1564 1.391 . S
C1566 C1567 1.400 . S
C1567 C1566 1.400 . S
C1567 C1568 1.398 . S
C1567 C1573 1.491 . S
C1568 H1559 0.950 . S
C1568 C1567 1.398 . S
C1568 C1569 1.391 . S
C1569 H1557 0.950 . S
C1569 C1565 1.393 . S
C1569 C1568 1.391 . S
C1570 H1560 0.950 . S
C1570 C1571 1.386 . S
C1570 C1572 1.391 . S
C1571 C1570 1.386 . S
C1571 C1575 1.393 . S
C1572 H1561 0.950 . S
C1572 C1570 1.391 . S
C1572 C1573 1.400 . S
C1573 C1567 1.491 . S
C1573 C1572 1.400 . S
C1573 C1574 1.398 . S
C1574 H1562 0.950 . S
C1574 C1573 1.398 . S
C1574 C1575 1.391 . S
C1575 H1563 0.950 . S
C1575 C1571 1.393 . S
C1575 C1574 1.391 . S
H1576 C1584 0.950 . S
H1577 C1589 0.950 . S
H1578 C1586 0.950 . S
H1579 C1588 0.950 . S
H1580 C1590 0.950 . S
H1581 C1592 0.950 . S
H1582 C1594 0.950 . S
H1583 C1595 0.950 . S
C1584 H1576 0.950 . S
C1584 C1585 1.386 . S
C1584 C1586 1.391 . S
C1585 C1584 1.386 . S
C1585 C1589 1.393 . S
C1586 H1578 0.950 . S
C1586 C1584 1.391 . S
C1586 C1587 1.400 . S
C1587 C1586 1.400 . S
C1587 C1588 1.398 . S
C1587 C1593 1.491 . S
C1588 H1579 0.950 . S
C1588 C1587 1.398 . S
C1588 C1589 1.391 . S
C1589 H1577 0.950 . S
C1589 C1585 1.393 . S
C1589 C1588 1.391 . S
C1590 H1580 0.950 . S
C1590 C1591 1.386 . S
C1590 C1592 1.391 . S
C1591 C1590 1.386 . S
C1591 C1595 1.393 . S
C1592 H1581 0.950 . S
C1592 C1590 1.391 . S
C1592 C1593 1.400 . S
C1593 C1587 1.491 . S
C1593 C1592 1.400 . S
C1593 C1594 1.398 . S
C1594 H1582 0.950 . S
C1594 C1593 1.398 . S
C1594 C1595 1.391 . S
C1595 H1583 0.950 . S
C1595 C1591 1.393 . S
C1595 C1594 1.391 . S
H1596 C1604 0.950 . S
H1597 C1609 0.950 . S
H1598 C1606 0.950 . S
H1599 C1608 0.950 . S
H1600 C1610 0.950 . S
H1601 C1612 0.950 . S
H1602 C1614 0.950 . S
H1603 C1615 0.950 . S
C1604 H1596 0.950 . S
C1604 C1605 1.386 . S
C1604 C1606 1.391 . S
C1605 C1604 1.386 . S
C1605 C1609 1.393 . S
C1606 H1598 0.950 . S
C1606 C1604 1.391 . S
C1606 C1607 1.400 . S
C1607 C1606 1.400 . S
C1607 C1608 1.398 . S
C1607 C1613 1.491 . S
C1608 H1599 0.950 . S
C1608 C1607 1.398 . S
C1608 C1609 1.391 . S
C1609 H1597 0.950 . S
C1609 C1605 1.393 . S
C1609 C1608 1.391 . S
C1610 H1600 0.950 . S
C1610 C1611 1.386 . S
C1610 C1612 1.391 . S
C1611 C1610 1.386 . S
C1611 C1615 1.393 . S
C1612 H1601 0.950 . S
C1612 C1610 1.391 . S
C1612 C1613 1.400 . S
C1613 C1607 1.491 . S
C1613 C1612 1.400 . S
C1613 C1614 1.398 . S
C1614 H1602 0.950 . S
C1614 C1613 1.398 . S
C1614 C1615 1.391 . S
C1615 H1603 0.950 . S
C1615 C1611 1.393 . S
C1615 C1614 1.391 . S
H1616 C1624 0.950 . S
H1617 C1629 0.950 . S
H1618 C1626 0.950 . S
H1619 C1628 0.950 . S
H1620 C1630 0.950 . S
H1621 C1632 0.950 . S
H1622 C1634 0.950 . S
H1623 C1635 0.950 . S
C1624 H1616 0.950 . S
C1624 C1625 1.386 . S
C1624 C1626 1.391 . S
C1625 C1624 1.386 . S
C1625 C1629 1.393 . S
C1626 H1618 0.950 . S
C1626 C1624 1.391 . S
C1626 C1627 1.400 . S
C1627 C1626 1.400 . S
C1627 C1628 1.398 . S
C1627 C1633 1.491 1_655 S
C1628 H1619 0.950 . S
C1628 C1627 1.398 . S
C1628 C1629 1.391 . S
C1629 H1617 0.950 . S
C1629 C1625 1.393 . S
C1629 C1628 1.391 . S
C1630 H1620 0.950 . S
C1630 C1631 1.386 . S
C1630 C1632 1.391 . S
C1631 C1630 1.386 . S
C1631 C1635 1.393 . S
C1632 H1621 0.950 . S
C1632 C1630 1.391 . S
C1632 C1633 1.400 . S
C1633 C1627 1.491 1_455 S
C1633 C1632 1.400 . S
C1633 C1634 1.398 . S
C1634 H1622 0.950 . S
C1634 C1633 1.398 . S
C1634 C1635 1.391 . S
C1635 H1623 0.950 . S
C1635 C1631 1.393 . S
C1635 C1634 1.391 . S
H1636 C1644 0.950 . S
H1637 C1649 0.950 . S
H1638 C1646 0.950 . S
H1639 C1648 0.950 . S
H1640 C1650 0.950 . S
H1641 C1652 0.950 . S
H1642 C1654 0.950 . S
H1643 C1655 0.950 . S
C1644 H1636 0.950 . S
C1644 C1645 1.386 . S
C1644 C1646 1.391 . S
C1645 C1644 1.386 . S
C1645 C1649 1.393 . S
C1646 H1638 0.950 . S
C1646 C1644 1.391 . S
C1646 C1647 1.400 . S
C1647 C1646 1.400 . S
C1647 C1648 1.398 . S
C1647 C1653 1.491 . S
C1648 H1639 0.950 . S
C1648 C1647 1.398 . S
C1648 C1649 1.391 . S
C1649 H1637 0.950 . S
C1649 C1645 1.393 . S
C1649 C1648 1.391 . S
C1650 H1640 0.950 . S
C1650 C1651 1.386 . S
C1650 C1652 1.391 . S
C1651 C1650 1.386 . S
C1651 C1655 1.393 . S
C1652 H1641 0.950 . S
C1652 C1650 1.391 . S
C1652 C1653 1.400 . S
C1653 C1647 1.491 . S
C1653 C1652 1.400 . S
C1653 C1654 1.398 . S
C1654 H1642 0.950 . S
C1654 C1653 1.398 . S
C1654 C1655 1.391 . S
C1655 H1643 0.950 . S
C1655 C1651 1.393 . S
C1655 C1654 1.391 . S
H1656 C1664 0.950 . S
H1657 C1669 0.950 . S
H1658 C1666 0.950 . S
H1659 C1668 0.950 . S
H1660 C1670 0.950 . S
H1661 C1672 0.950 . S
H1662 C1674 0.950 . S
H1663 C1675 0.950 . S
C1664 H1656 0.950 . S
C1664 C1665 1.386 . S
C1664 C1666 1.391 . S
C1665 C1664 1.386 . S
C1665 C1669 1.393 . S
C1666 H1658 0.950 . S
C1666 C1664 1.391 . S
C1666 C1667 1.400 . S
C1667 C1666 1.400 . S
C1667 C1668 1.398 . S
C1667 C1673 1.491 . S
C1668 H1659 0.950 . S
C1668 C1667 1.398 . S
C1668 C1669 1.391 . S
C1669 H1657 0.950 . S
C1669 C1665 1.393 . S
C1669 C1668 1.391 . S
C1670 H1660 0.950 . S
C1670 C1671 1.386 . S
C1670 C1672 1.391 . S
C1671 C1670 1.386 . S
C1671 C1675 1.393 . S
C1672 H1661 0.950 . S
C1672 C1670 1.391 . S
C1672 C1673 1.400 . S
C1673 C1667 1.491 . S
C1673 C1672 1.400 . S
C1673 C1674 1.398 . S
C1674 H1662 0.950 . S
C1674 C1673 1.398 . S
C1674 C1675 1.391 . S
C1675 H1663 0.950 . S
C1675 C1671 1.393 . S
C1675 C1674 1.391 . S
H1676 C1684 0.950 . S
H1677 C1689 0.950 . S
H1678 C1686 0.950 . S
H1679 C1688 0.950 . S
H1680 C1690 0.950 . S
H1681 C1692 0.950 . S
H1682 C1694 0.950 . S
H1683 C1695 0.950 . S
C1684 H1676 0.950 . S
C1684 C1685 1.386 . S
C1684 C1686 1.391 . S
C1685 C1684 1.386 . S
C1685 C1689 1.393 . S
C1686 H1678 0.950 . S
C1686 C1684 1.391 . S
C1686 C1687 1.400 . S
C1687 C1686 1.400 . S
C1687 C1688 1.398 . S
C1687 C1693 1.491 1_655 S
C1688 H1679 0.950 . S
C1688 C1687 1.398 . S
C1688 C1689 1.391 . S
C1689 H1677 0.950 . S
C1689 C1685 1.393 . S
C1689 C1688 1.391 . S
C1690 H1680 0.950 . S
C1690 C1691 1.386 . S
C1690 C1692 1.391 . S
C1691 C1690 1.386 . S
C1691 C1695 1.393 . S
C1692 H1681 0.950 . S
C1692 C1690 1.391 . S
C1692 C1693 1.400 . S
C1693 C1687 1.491 1_455 S
C1693 C1692 1.400 . S
C1693 C1694 1.398 . S
C1694 H1682 0.950 . S
C1694 C1693 1.398 . S
C1694 C1695 1.391 . S
C1695 H1683 0.950 . S
C1695 C1691 1.393 . S
C1695 C1694 1.391 . S
C425 C303 1.767 . S
C431 C5 1.763 . S
C445 C263 1.766 . S
C451 C23 1.775 . S
C465 C277 1.780 . S
C471 C29 1.775 . S
C485 C289 1.776 . S
C491 C49 1.760 . S
C505 C55 1.778 . S
C511 C231 1.779 . S
C525 C239 1.783 . S
C531 C69 1.771 . S
C545 C83 1.778 . S
C551 C251 1.779 . S
C565 C95 1.766 . S
C571 C211 1.782 . S
C585 C407 1.766 . S
C591 C114 1.763 . S
C605 C127 1.746 . S
C611 C374 1.757 . S
C625 C140 1.755 . S
C631 C381 1.746 . S
C645 C153 1.767 . S
C651 C394 1.762 . S
C665 C160 1.767 . S
C671 C335 1.761 . S
C685 C173 1.767 . S
C691 C342 1.761 . S
C705 C192 1.768 . S
C711 C361 1.761 . S
C725 C199 1.760 . S
C731 C322 1.747 . S
C745 C4 1.194 . S
C751 C161 1.176 . S
C765 C382 1.176 . S
C771 C16 1.190 . S
C785 C36 1.179 . S
C791 C185 1.190 . S
C805 C408 1.192 . S
C811 C42 1.174 . S
C825 C107 1.195 . S
C831 C62 1.175 . S
C845 C70 1.191 . S
C851 C328 1.175 . S
C865 C82 1.186 . S
C871 C133 1.186 . S
C885 C96 1.173 . S
C891 C354 1.193 . S
C905 C278 1.188 . S
C911 C120 1.178 . S
C925 C304 1.187 . S
C931 C146 1.178 . S
C945 C174 1.175 . S
C951 C224 1.191 . S
C965 C252 1.190 . S
C971 C200 1.176 . S
C985 C367 1.179 . S
C991 C218 1.192 . S
C1005 C238 1.194 . S
C1011 C395 1.178 . S
C1025 C315 1.185 . S
C1031 C270 1.184 . S
C1045 C343 1.178 . S
C1051 C296 1.193 . S
C1065 C56 1.149 . S
C1071 C10 1.166 . S
C1085 C68 1.165 . S
C1091 C18 1.153 . S
C1105 C30 1.167 . S
C1111 C88 1.149 . S
C1125 C44 1.166 . S
C1131 C94 1.170 . S
C1145 C159 1.167 . S
C1151 C109 1.183 . S
C1165 C172 1.156 . S
C1171 C122 1.171 . S
C1185 C187 1.170 . S
C1191 C135 1.185 . S
C1205 C148 1.176 . S
C1211 C198 1.163 . S
C1225 C212 1.148 . S
C1231 C264 1.161 . S
C1245 C226 1.159 . S
C1251 C276 1.172 . S
C1265 C244 1.152 . S
C1271 C290 1.154 . S
C1285 C250 1.168 . S
C1291 C302 1.168 . S
C1305 C369 1.169 . S
C1311 C317 1.184 . S
C1325 C380 1.175 . S
C1331 C330 1.168 . S
C1345 C393 1.174 . S
C1351 C341 1.166 . S
C1365 C406 1.176 . S
C1371 C356 1.165 . S
C1385 C400 1.850 . S
C1391 C3 1.836 . S
C1405 C17 1.848 . S
C1411 C205 1.837 . S
C1425 C368 1.846 . S
C1431 C31 1.839 . S
C1445 C43 1.844 . S
C1451 C179 1.842 . S
C1465 C348 1.844 . S
C1471 C57 1.841 . S
C1485 C75 1.837 . S
C1491 C147 1.848 . S
C1505 C81 1.845 . S
C1511 C316 1.841 . S
C1525 C121 1.845 . S
C1531 C101 1.841 . S
C1545 C108 1.842 . S
C1551 C291 1.842 . S
C1565 C265 1.838 . S
C1571 C134 1.847 . S
C1585 C166 1.839 . S
C1591 C237 1.847 . S
C1605 C186 1.846 . S
C1611 C213 1.839 . S
C1625 C413 1.838 . S
C1631 C225 1.847 . S
C1645 C257 1.838 . S
C1651 C387 1.847 . S
C1665 C283 1.840 . S
C1671 C355 1.846 . S
C1685 C329 1.839 . S
C1691 C309 1.847 . S
