# Generated by pormake.
# Topology umg, (4)-cn, num edge types: 1
# Building blocks:
#     Node 0, Type 0, BuildingBlock: ICAMEG_clean_sbu_1, # of connection points: 4
#     Node 1, Type 0, BuildingBlock: ICAMEG_clean_sbu_1, # of connection points: 4
#     Node 2, Type 0, BuildingBlock: ICAMEG_clean_sbu_1, # of connection points: 4
#     Node 3, Type 0, BuildingBlock: ICAMEG_clean_sbu_1, # of connection points: 4
#     Node 4, Type 0, BuildingBlock: ICAMEG_clean_sbu_1, # of connection points: 4
#     Node 5, Type 0, BuildingBlock: ICAMEG_clean_sbu_1, # of connection points: 4
#     Node 6, Type 0, BuildingBlock: ICAMEG_clean_sbu_1, # of connection points: 4
#     Node 7, Type 0, BuildingBlock: ICAMEG_clean_sbu_1, # of connection points: 4
#     Node 8, Type 0, BuildingBlock: ICAMEG_clean_sbu_1, # of connection points: 4
#     Node 9, Type 0, BuildingBlock: ICAMEG_clean_sbu_1, # of connection points: 4
#     Node 10, Type 0, BuildingBlock: ICAMEG_clean_sbu_1, # of connection points: 4
#     Node 11, Type 0, BuildingBlock: ICAMEG_clean_sbu_1, # of connection points: 4
#     Edge 12, Type (0, 0), BuildingBlock: UVAHIK_clean_linker_0, # of connection points: 2
#     Edge 13, Type (0, 0), BuildingBlock: UVAHIK_clean_linker_0, # of connection points: 2
#     Edge 14, Type (0, 0), BuildingBlock: UVAHIK_clean_linker_0, # of connection points: 2
#     Edge 15, Type (0, 0), BuildingBlock: UVAHIK_clean_linker_0, # of connection points: 2
#     Edge 16, Type (0, 0), BuildingBlock: UVAHIK_clean_linker_0, # of connection points: 2
#     Edge 17, Type (0, 0), BuildingBlock: UVAHIK_clean_linker_0, # of connection points: 2
#     Edge 18, Type (0, 0), BuildingBlock: UVAHIK_clean_linker_0, # of connection points: 2
#     Edge 19, Type (0, 0), BuildingBlock: UVAHIK_clean_linker_0, # of connection points: 2
#     Edge 20, Type (0, 0), BuildingBlock: UVAHIK_clean_linker_0, # of connection points: 2
#     Edge 21, Type (0, 0), BuildingBlock: UVAHIK_clean_linker_0, # of connection points: 2
#     Edge 22, Type (0, 0), BuildingBlock: UVAHIK_clean_linker_0, # of connection points: 2
#     Edge 23, Type (0, 0), BuildingBlock: UVAHIK_clean_linker_0, # of connection points: 2
#     Edge 24, Type (0, 0), BuildingBlock: UVAHIK_clean_linker_0, # of connection points: 2
#     Edge 25, Type (0, 0), BuildingBlock: UVAHIK_clean_linker_0, # of connection points: 2
#     Edge 26, Type (0, 0), BuildingBlock: UVAHIK_clean_linker_0, # of connection points: 2
#     Edge 27, Type (0, 0), BuildingBlock: UVAHIK_clean_linker_0, # of connection points: 2
#     Edge 28, Type (0, 0), BuildingBlock: UVAHIK_clean_linker_0, # of connection points: 2
#     Edge 29, Type (0, 0), BuildingBlock: UVAHIK_clean_linker_0, # of connection points: 2
#     Edge 30, Type (0, 0), BuildingBlock: UVAHIK_clean_linker_0, # of connection points: 2
#     Edge 31, Type (0, 0), BuildingBlock: UVAHIK_clean_linker_0, # of connection points: 2
#     Edge 32, Type (0, 0), BuildingBlock: UVAHIK_clean_linker_0, # of connection points: 2
#     Edge 33, Type (0, 0), BuildingBlock: UVAHIK_clean_linker_0, # of connection points: 2
#     Edge 34, Type (0, 0), BuildingBlock: UVAHIK_clean_linker_0, # of connection points: 2
#     Edge 35, Type (0, 0), BuildingBlock: UVAHIK_clean_linker_0, # of connection points: 2
# Relax obj value: 0.057
# Max RMSD: 0.150
# Mean RMSD: 0.149
data_MOF--net-umg--node1-ICAMEG_clean_sbu_1--edge1-UVAHIK_clean_linker_0
_symmetry_space_group_name_H-M    P1
_symmetry_Int_Tables_number       1
_symmetry_cell_setting            triclinic
loop_
_symmetry_equiv_pos_as_xyz
'x, y, z'
_cell_length_a     38.967183
_cell_length_b     38.966807
_cell_length_c     117.66068
_cell_angle_alpha  90.027771
_cell_angle_beta   90.012918
_cell_angle_gamma 120.01797
loop_
_atom_site_label
_atom_site_type_symbol
_atom_site_fract_x
_atom_site_fract_y
_atom_site_fract_z
_atom_type_partial_charge
Co0 Co 0.2849 0.62014 0.07808 0.0
Co1 Co 0.25627 0.52347 0.08531 0.0
O2 O 0.28653 0.57118 0.07625 0.0
C3 C 0.25914 0.59402 0.05479 0.0
O4 O 0.23469 0.55945 0.0593 0.0
C5 C 0.33912 0.54381 0.08845 0.0
O6 O 0.34779 0.58064 0.09004 0.0
O7 O 0.27248 0.55487 0.09961 0.0
O8 O 0.28799 0.61706 0.09494 0.0
H9 H 0.16159 0.44076 0.1161 0.0
H10 H 0.34399 0.61809 0.0626 0.0
O11 O 0.28154 0.62321 0.06116 0.0
H12 H 0.42222 0.71959 0.09137 0.0
H13 H 0.32098 0.75923 0.06738 0.0
H14 H 0.24444 0.64825 0.09372 0.0
H15 H 0.34915 0.68389 0.09198 0.0
H16 H 0.3225 0.6969 0.0656 0.0
O17 O 0.30366 0.51697 0.08637 0.0
H18 H 0.19925 0.50071 0.10437 0.0
H19 H 0.25049 0.44423 0.08573 0.0
H20 H 0.24231 0.71014 0.09586 0.0
H21 H 0.41699 0.65329 0.06162 0.0
H22 H 0.28078 0.76617 0.08263 0.0
H23 H 0.4566 0.70437 0.0761 0.0
O24 O 0.22596 0.5909 0.07905 0.0
H25 H 0.27977 0.48533 0.04652 0.0
H26 H 0.17946 0.45981 0.07586 0.0
H27 H 0.15877 0.42293 0.05777 0.0
H28 H 0.20913 0.43565 0.04294 0.0
H29 H 0.29908 0.52173 0.0647 0.0
H30 H 0.21364 0.38377 0.09731 0.0
H31 H 0.16868 0.38174 0.11259 0.0
O32 O 0.20836 0.52894 0.08446 0.0
C33 C 0.28318 0.59067 0.1022 0.0
C34 C 0.18098 0.44123 0.10944 0.0
C35 C 0.21024 0.40927 0.0989 0.0
N36 N 0.22676 0.47583 0.09432 0.0
C37 C 0.20228 0.47505 0.10275 0.0
C38 C 0.23108 0.4436 0.09239 0.0
C39 C 0.18501 0.40815 0.10747 0.0
C40 C 0.36101 0.64055 0.06886 0.0
N41 N 0.34233 0.64909 0.07729 0.0
C42 C 0.40234 0.66027 0.0683 0.0
C43 C 0.42455 0.68889 0.07643 0.0
C44 C 0.40528 0.69742 0.08501 0.0
C45 C 0.3639 0.67707 0.08532 0.0
C46 C 0.30415 0.73506 0.07321 0.0
C47 C 0.26147 0.67261 0.08798 0.0
C48 C 0.30484 0.69968 0.07223 0.0
N49 N 0.28384 0.66913 0.07961 0.0
C50 C 0.26005 0.70753 0.08921 0.0
C51 C 0.28161 0.73894 0.08177 0.0
C52 C 0.20008 0.55575 0.08193 0.0
C53 C 0.25756 0.47947 0.05292 0.0
C54 C 0.2015 0.46556 0.06944 0.0
C55 C 0.18964 0.44452 0.05922 0.0
C56 C 0.21792 0.45164 0.05091 0.0
N57 N 0.24042 0.49287 0.07134 0.0
C58 C 0.26834 0.49988 0.06325 0.0
Co59 Co 0.66279 0.2881 0.41294 0.0
Co60 Co 0.72951 0.25958 0.42173 0.0
O61 O 0.71419 0.29095 0.41238 0.0
C62 C 0.67159 0.26799 0.3896 0.0
O63 O 0.68108 0.24313 0.39416 0.0
C64 C 0.78915 0.34226 0.42661 0.0
O65 O 0.75973 0.34935 0.42765 0.0
O66 O 0.70917 0.27233 0.43564 0.0
O67 O 0.66337 0.2877 0.42989 0.0
H68 H 0.70978 0.1595 0.45169 0.0
H69 H 0.72824 0.35096 0.39937 0.0
O70 O 0.66193 0.28833 0.39593 0.0
H71 H 0.69361 0.42174 0.42778 0.0
H72 H 0.56179 0.32406 0.3999 0.0
H73 H 0.58954 0.24343 0.42661 0.0
H74 H 0.65726 0.34867 0.42707 0.0
H75 H 0.62663 0.32721 0.39974 0.0
O76 O 0.78236 0.30752 0.42429 0.0
H77 H 0.69015 0.19855 0.4396 0.0
H78 H 0.80364 0.25562 0.42401 0.0
H79 H 0.52442 0.2396 0.42714 0.0
H80 H 0.76518 0.42405 0.39973 0.0
H81 H 0.51022 0.28012 0.41371 0.0
H82 H 0.748 0.45991 0.41403 0.0
O83 O 0.63399 0.22912 0.41286 0.0
H84 H 0.80392 0.29191 0.38479 0.0
H85 H 0.72098 0.18532 0.4117 0.0
H86 H 0.74376 0.16886 0.39405 0.0
H87 H 0.78554 0.2224 0.38044 0.0
H88 H 0.78023 0.30697 0.4025 0.0
H89 H 0.82463 0.21744 0.43599 0.0
H90 H 0.77746 0.16885 0.44992 0.0
O91 O 0.67705 0.21121 0.41934 0.0
C92 C 0.68284 0.28189 0.43764 0.0
C93 C 0.73055 0.18048 0.44562 0.0
C94 C 0.79503 0.21304 0.43682 0.0
N95 N 0.74561 0.22905 0.43105 0.0
C96 C 0.71956 0.20257 0.43874 0.0
C97 C 0.78301 0.23462 0.43008 0.0
C98 C 0.76855 0.18577 0.44464 0.0
C99 C 0.72032 0.36636 0.40554 0.0
N100 N 0.69046 0.34558 0.41314 0.0
C101 C 0.74146 0.40774 0.40574 0.0
C102 C 0.73184 0.42785 0.41378 0.0
C103 C 0.70134 0.40644 0.4215 0.0
C104 C 0.6809 0.36508 0.42106 0.0
C105 C 0.56765 0.30632 0.40581 0.0
C106 C 0.58365 0.26134 0.42079 0.0
C107 C 0.60427 0.30793 0.40574 0.0
N108 N 0.61193 0.28577 0.41322 0.0
C109 C 0.54669 0.25896 0.42111 0.0
C110 C 0.53873 0.28167 0.41356 0.0
C111 C 0.64281 0.20301 0.41585 0.0
C112 C 0.78582 0.26834 0.39066 0.0
C113 C 0.73906 0.20874 0.40581 0.0
C114 C 0.75197 0.19927 0.39584 0.0
C115 C 0.77544 0.22932 0.38822 0.0
N116 N 0.7493 0.24706 0.40814 0.0
C117 C 0.77244 0.27671 0.40073 0.0
Co118 Co 0.37101 0.66165 0.74452 0.0
Co119 Co 0.46512 0.73134 0.75336 0.0
O120 O 0.41887 0.71362 0.74362 0.0
C121 C 0.4007 0.66771 0.72139 0.0
O122 O 0.43491 0.67804 0.7262 0.0
C123 C 0.44216 0.79208 0.7563 0.0
O124 O 0.40543 0.7632 0.75749 0.0
O125 O 0.43111 0.71415 0.76713 0.0
O126 O 0.37161 0.66413 0.76148 0.0
H127 H 0.54381 0.71902 0.78531 0.0
H128 H 0.372 0.72437 0.72998 0.0
O129 O 0.37041 0.65875 0.72752 0.0
H130 H 0.26576 0.69102 0.75799 0.0
H131 H 0.23511 0.55701 0.73173 0.0
H132 H 0.34382 0.59003 0.75885 0.0
H133 H 0.30404 0.65624 0.75817 0.0
H134 H 0.29593 0.62258 0.73121 0.0
O135 O 0.46986 0.78447 0.75452 0.0
H136 H 0.48579 0.69645 0.77272 0.0
H137 H 0.54313 0.80603 0.755 0.0
H138 H 0.28342 0.52423 0.75973 0.0
H139 H 0.33426 0.75966 0.72944 0.0
H140 H 0.22852 0.50738 0.7461 0.0
H141 H 0.28078 0.74312 0.74354 0.0
O142 O 0.40232 0.63415 0.74515 0.0
H143 H 0.50908 0.79721 0.71526 0.0
H144 H 0.53172 0.72119 0.74485 0.0
H145 H 0.57194 0.74012 0.72736 0.0
H146 H 0.56069 0.77841 0.71241 0.0
H147 H 0.46933 0.77737 0.73284 0.0
H148 H 0.60162 0.82993 0.76746 0.0
H149 H 0.60226 0.78621 0.78272 0.0
O150 O 0.46149 0.67866 0.75239 0.0
C151 C 0.39579 0.68646 0.76911 0.0
C152 C 0.54394 0.73829 0.77867 0.0
C153 C 0.57637 0.80056 0.76866 0.0
N154 N 0.51123 0.74977 0.76308 0.0
C155 C 0.51123 0.72563 0.77149 0.0
C156 C 0.54313 0.78691 0.76165 0.0
C157 C 0.57671 0.77601 0.77722 0.0
C158 C 0.34851 0.71672 0.73607 0.0
N159 N 0.34008 0.68812 0.74405 0.0
C160 C 0.32735 0.73693 0.73575 0.0
C161 C 0.29739 0.72768 0.74368 0.0
C162 C 0.28897 0.69846 0.75179 0.0
C163 C 0.31079 0.67892 0.75186 0.0
C164 C 0.25877 0.56404 0.73773 0.0
C165 C 0.31992 0.58301 0.75295 0.0
C166 C 0.29329 0.60108 0.73747 0.0
N167 N 0.32317 0.61022 0.74507 0.0
C168 C 0.28586 0.54566 0.75346 0.0
C169 C 0.25509 0.53621 0.7458 0.0
C170 C 0.43675 0.64397 0.74888 0.0
C171 C 0.51432 0.78061 0.72172 0.0
C172 C 0.52658 0.73773 0.73838 0.0
C173 C 0.54952 0.74848 0.7285 0.0
C174 C 0.54323 0.76999 0.72012 0.0
N175 N 0.49822 0.74816 0.73987 0.0
C176 C 0.49201 0.76942 0.73172 0.0
Co177 Co 0.7033 0.36917 0.07932 0.0
Co178 Co 0.72706 0.46297 0.08826 0.0
O179 O 0.69874 0.41676 0.0785 0.0
C180 C 0.72616 0.39913 0.05619 0.0
O181 O 0.7503 0.43329 0.06099 0.0
C182 C 0.64318 0.43908 0.09124 0.0
O183 O 0.63581 0.4025 0.09239 0.0
O184 O 0.7106 0.42883 0.102 0.0
O185 O 0.70168 0.36962 0.09628 0.0
H186 H 0.81814 0.54198 0.12019 0.0
H187 H 0.64098 0.36967 0.06492 0.0
O188 O 0.70523 0.36873 0.06232 0.0
H189 H 0.56926 0.26296 0.09288 0.0
H190 H 0.67307 0.23379 0.06634 0.0
H191 H 0.74836 0.34241 0.09354 0.0
H192 H 0.64232 0.30178 0.09297 0.0
H193 H 0.66768 0.29425 0.06594 0.0
O194 O 0.67836 0.46714 0.08949 0.0
H195 H 0.78294 0.48398 0.10756 0.0
H196 H 0.72959 0.54056 0.09001 0.0
H197 H 0.7544 0.28238 0.0943 0.0
H198 H 0.56793 0.3314 0.06448 0.0
H199 H 0.71657 0.22754 0.08063 0.0
H200 H 0.53158 0.27768 0.07855 0.0
O201 O 0.7621 0.40092 0.07988 0.0
H202 H 0.70421 0.50678 0.05025 0.0
H203 H 0.80346 0.5301 0.07974 0.0
H204 H 0.82427 0.57048 0.06229 0.0
H205 H 0.77444 0.5589 0.04738 0.0
H206 H 0.68478 0.46688 0.0678 0.0
H207 H 0.76393 0.59902 0.1025 0.0
H208 H 0.80871 0.60003 0.11769 0.0
O209 O 0.7764 0.45987 0.08722 0.0
C210 C 0.7033 0.39361 0.10394 0.0
C211 C 0.79881 0.54195 0.11357 0.0
C212 C 0.76834 0.57394 0.10366 0.0
N213 N 0.75452 0.50905 0.09801 0.0
C214 C 0.7789 0.50925 0.10638 0.0
C215 C 0.74891 0.54073 0.09663 0.0
C216 C 0.79348 0.5745 0.11217 0.0
C217 C 0.6254 0.34608 0.071 0.0
N218 N 0.6459 0.33781 0.07892 0.0
C219 C 0.58402 0.32462 0.07074 0.0
C220 C 0.56364 0.29452 0.07865 0.0
C221 C 0.58476 0.28627 0.0867 0.0
C222 C 0.62613 0.30839 0.08672 0.0
C223 C 0.68962 0.25744 0.07236 0.0
C224 C 0.73157 0.31853 0.08762 0.0
C225 C 0.68673 0.29175 0.07216 0.0
N226 N 0.70738 0.32161 0.07979 0.0
C227 C 0.73522 0.28468 0.08807 0.0
C228 C 0.71402 0.25394 0.08038 0.0
C229 C 0.78656 0.43537 0.08364 0.0
C230 C 0.72617 0.51217 0.05669 0.0
C231 C 0.78166 0.52481 0.07329 0.0
C232 C 0.79358 0.54785 0.06343 0.0
C233 C 0.7656 0.54137 0.05508 0.0
N234 N 0.74296 0.49618 0.0748 0.0
C235 C 0.71533 0.48977 0.06667 0.0
Co236 Co 0.32462 0.70583 0.41138 0.0
Co237 Co 0.25689 0.73427 0.41914 0.0
O238 O 0.27347 0.70331 0.41008 0.0
C239 C 0.31998 0.7282 0.38799 0.0
O240 O 0.31031 0.75303 0.39247 0.0
C241 C 0.19578 0.6515 0.42334 0.0
O242 O 0.22461 0.64366 0.42468 0.0
O243 O 0.27465 0.72025 0.43334 0.0
O244 O 0.32108 0.70482 0.42831 0.0
H245 H 0.27232 0.83236 0.44929 0.0
H246 H 0.26146 0.64434 0.39685 0.0
O247 O 0.32832 0.70703 0.39439 0.0
H248 H 0.29062 0.57076 0.42572 0.0
H249 H 0.42713 0.67009 0.39979 0.0
H250 H 0.39546 0.74889 0.42611 0.0
H251 H 0.32726 0.64386 0.42558 0.0
H252 H 0.36263 0.66749 0.39868 0.0
O253 O 0.20348 0.68652 0.42101 0.0
H254 H 0.29351 0.79382 0.43754 0.0
H255 H 0.1829 0.73894 0.4203 0.0
H256 H 0.46019 0.75214 0.42757 0.0
H257 H 0.22433 0.57125 0.39663 0.0
H258 H 0.47636 0.71254 0.41435 0.0
H259 H 0.23876 0.53397 0.41116 0.0
O260 O 0.3538 0.76484 0.41173 0.0
H261 H 0.18899 0.70501 0.38117 0.0
H262 H 0.26764 0.80946 0.40916 0.0
H263 H 0.24818 0.8274 0.39116 0.0
H264 H 0.20858 0.77495 0.37701 0.0
H265 H 0.20935 0.68846 0.39925 0.0
H266 H 0.16037 0.77663 0.43192 0.0
H267 H 0.2053 0.82386 0.44651 0.0
O268 O 0.30983 0.78252 0.41749 0.0
C269 C 0.30037 0.71022 0.43574 0.0
C270 C 0.25253 0.81198 0.44293 0.0
C271 C 0.18967 0.78065 0.4332 0.0
N272 N 0.2396 0.76444 0.42818 0.0
C273 C 0.26441 0.79017 0.43623 0.0
C274 C 0.20255 0.75934 0.42666 0.0
C275 C 0.2149 0.80716 0.44138 0.0
C276 C 0.26819 0.62833 0.40313 0.0
N277 N 0.29667 0.64835 0.41117 0.0
C278 C 0.24695 0.58695 0.403 0.0
C279 C 0.25502 0.56605 0.41116 0.0
C280 C 0.2841 0.58667 0.41934 0.0
C281 C 0.3047 0.62806 0.41922 0.0
C282 C 0.4204 0.68742 0.40561 0.0
C283 C 0.4022 0.73138 0.42037 0.0
C284 C 0.38397 0.68613 0.40501 0.0
N285 N 0.37521 0.70777 0.41239 0.0
C286 C 0.43894 0.73343 0.42122 0.0
C287 C 0.448 0.71123 0.41379 0.0
C288 C 0.34462 0.79084 0.41456 0.0
C289 C 0.20616 0.72811 0.38728 0.0
C290 C 0.25049 0.78651 0.40304 0.0
C291 C 0.23946 0.79681 0.39287 0.0
C292 C 0.21721 0.76737 0.38494 0.0
N293 N 0.23961 0.74796 0.40526 0.0
C294 C 0.21764 0.7189 0.39755 0.0
Co295 Co 0.62151 0.33021 0.74631 0.0
Co296 Co 0.52494 0.26261 0.75378 0.0
O297 O 0.57261 0.27941 0.74475 0.0
C298 C 0.5951 0.32771 0.72294 0.0
O299 O 0.56049 0.31761 0.72742 0.0
C300 C 0.54595 0.20089 0.75754 0.0
O301 O 0.58266 0.22947 0.75903 0.0
O302 O 0.55645 0.27932 0.76805 0.0
O303 O 0.61863 0.32552 0.76321 0.0
H304 H 0.44212 0.27698 0.78407 0.0
H305 H 0.61945 0.26782 0.73136 0.0
O306 O 0.62441 0.33521 0.72935 0.0
H307 H 0.72133 0.29391 0.76027 0.0
H308 H 0.76038 0.43265 0.73519 0.0
H309 H 0.64955 0.40013 0.76143 0.0
H310 H 0.68552 0.33118 0.76042 0.0
H311 H 0.69816 0.3685 0.73377 0.0
O312 O 0.5188 0.20895 0.75534 0.0
H313 H 0.50203 0.29847 0.77238 0.0
H314 H 0.44596 0.18886 0.75462 0.0
H315 H 0.71133 0.46449 0.76322 0.0
H316 H 0.65474 0.23006 0.73086 0.0
H317 H 0.76729 0.48108 0.75003 0.0
H318 H 0.70601 0.24294 0.74541 0.0
O319 O 0.59211 0.35978 0.7469 0.0
H320 H 0.48667 0.19715 0.71546 0.0
H321 H 0.46091 0.27434 0.74395 0.0
H322 H 0.42384 0.25621 0.72588 0.0
H323 H 0.43668 0.21735 0.71148 0.0
H324 H 0.52327 0.2162 0.73361 0.0
H325 H 0.38555 0.16605 0.76617 0.0
H326 H 0.38334 0.21032 0.78099 0.0
O327 O 0.53011 0.3158 0.75241 0.0
C328 C 0.59227 0.30462 0.77055 0.0
C329 C 0.44268 0.25747 0.77761 0.0
C330 C 0.41095 0.19519 0.76758 0.0
N331 N 0.47734 0.24508 0.76277 0.0
C332 C 0.47646 0.26952 0.77095 0.0
C333 C 0.44525 0.20823 0.76108 0.0
C334 C 0.40972 0.22005 0.77589 0.0
C335 C 0.642 0.27388 0.73766 0.0
N336 N 0.65059 0.30185 0.74587 0.0
C337 C 0.66176 0.25228 0.73735 0.0
C338 C 0.69049 0.25948 0.74553 0.0
C339 C 0.69908 0.28806 0.75388 0.0
C340 C 0.67867 0.30903 0.75393 0.0
C341 C 0.73624 0.42573 0.741 0.0
C342 C 0.67388 0.40705 0.75571 0.0
C343 C 0.70093 0.3895 0.74022 0.0
N344 N 0.67043 0.38049 0.74757 0.0
C345 C 0.70874 0.44358 0.75674 0.0
C346 C 0.7401 0.45288 0.74933 0.0
C347 C 0.55692 0.35069 0.74967 0.0
C348 C 0.48076 0.21402 0.72167 0.0
C349 C 0.46672 0.25754 0.73772 0.0
C350 C 0.44557 0.24725 0.72751 0.0
C351 C 0.45275 0.22541 0.71944 0.0
N352 N 0.49421 0.24634 0.73984 0.0
C353 C 0.50128 0.22476 0.73199 0.0
Co354 Co 0.37205 0.70485 0.57786 0.0
Co355 Co 0.46697 0.73273 0.56892 0.0
O356 O 0.42071 0.7022 0.57851 0.0
C357 C 0.40163 0.72702 0.60109 0.0
O358 O 0.43581 0.75168 0.59641 0.0
C359 C 0.4444 0.64972 0.56484 0.0
O360 O 0.40771 0.64213 0.56381 0.0
O361 O 0.43328 0.71822 0.55509 0.0
O362 O 0.37248 0.70384 0.56092 0.0
H363 H 0.54561 0.82961 0.5381 0.0
H364 H 0.37524 0.64325 0.59191 0.0
O365 O 0.37149 0.70601 0.59487 0.0
H366 H 0.26898 0.56988 0.5639 0.0
H367 H 0.23533 0.66948 0.59099 0.0
H368 H 0.34285 0.7482 0.56384 0.0
H369 H 0.30557 0.64298 0.5641 0.0
H370 H 0.29718 0.66662 0.59126 0.0
O371 O 0.47221 0.68482 0.56686 0.0
H372 H 0.4875 0.79161 0.55047 0.0
H373 H 0.54531 0.73712 0.56675 0.0
H374 H 0.28139 0.75172 0.5632 0.0
H375 H 0.33922 0.57016 0.59206 0.0
H376 H 0.2271 0.71215 0.57685 0.0
H377 H 0.28574 0.53299 0.57796 0.0
O378 O 0.40212 0.76384 0.57755 0.0
H379 H 0.51087 0.70504 0.60627 0.0
H380 H 0.53285 0.8083 0.57831 0.0
H381 H 0.57278 0.82698 0.59587 0.0
H382 H 0.56186 0.77513 0.61 0.0
H383 H 0.47141 0.68774 0.58863 0.0
H384 H 0.60392 0.77429 0.55449 0.0
H385 H 0.60436 0.82105 0.54007 0.0
O386 O 0.46262 0.7811 0.57081 0.0
C387 C 0.39735 0.70866 0.55314 0.0
C388 C 0.54583 0.80943 0.54438 0.0
C389 C 0.57854 0.77834 0.55357 0.0
N390 N 0.51317 0.76246 0.55938 0.0
C391 C 0.51307 0.78793 0.55143 0.0
C392 C 0.54524 0.75732 0.56047 0.0
C393 C 0.57876 0.80458 0.54548 0.0
C394 C 0.35173 0.62729 0.58582 0.0
N395 N 0.34236 0.64736 0.57805 0.0
C396 C 0.33156 0.5859 0.58592 0.0
C397 C 0.30159 0.56506 0.57799 0.0
C398 C 0.29219 0.58575 0.5701 0.0
C399 C 0.31305 0.62714 0.57024 0.0
C400 C 0.25874 0.6868 0.58498 0.0
C401 C 0.31924 0.73071 0.56975 0.0
C402 C 0.29384 0.68536 0.58511 0.0
N403 N 0.32342 0.70698 0.57751 0.0
C404 C 0.28457 0.73291 0.56938 0.0
C405 C 0.25414 0.71073 0.57704 0.0
C406 C 0.43683 0.78965 0.57429 0.0
C407 C 0.51597 0.72788 0.60016 0.0
C408 C 0.52788 0.78561 0.58443 0.0
C409 C 0.55064 0.79633 0.59434 0.0
C410 C 0.54453 0.76722 0.60226 0.0
N411 N 0.49987 0.74698 0.58244 0.0
C412 C 0.49383 0.71825 0.59014 0.0
Co413 Co 0.66252 0.37377 0.91281 0.0
Co414 Co 0.72886 0.46936 0.90418 0.0
O415 O 0.71332 0.42301 0.91372 0.0
C416 C 0.66738 0.40277 0.93601 0.0
O417 O 0.67701 0.43695 0.93131 0.0
C418 C 0.79092 0.44875 0.90037 0.0
O419 O 0.76257 0.41171 0.89931 0.0
O420 O 0.71099 0.43592 0.89026 0.0
O421 O 0.66534 0.37453 0.89589 0.0
H422 H 0.71056 0.54739 0.87318 0.0
H423 H 0.72673 0.3781 0.92739 0.0
O424 O 0.65933 0.37288 0.92979 0.0
H425 H 0.69809 0.27279 0.89942 0.0
H426 H 0.56198 0.23612 0.92548 0.0
H427 H 0.59096 0.34349 0.89827 0.0
H428 H 0.66044 0.30821 0.8992 0.0
H429 H 0.62602 0.2987 0.92612 0.0
O430 O 0.78258 0.47582 0.90238 0.0
H431 H 0.69076 0.48922 0.8855 0.0
H432 H 0.80202 0.54853 0.90235 0.0
H433 H 0.52668 0.2813 0.89727 0.0
H434 H 0.7649 0.34324 0.92797 0.0
H435 H 0.51187 0.22707 0.91095 0.0
H436 H 0.75073 0.29024 0.91389 0.0
O437 O 0.63257 0.4028 0.91216 0.0
H438 H 0.79806 0.51331 0.94188 0.0
H439 H 0.71737 0.53426 0.91345 0.0
H440 H 0.73703 0.57379 0.93109 0.0
H441 H 0.77766 0.56339 0.94545 0.0
H442 H 0.77746 0.47422 0.92416 0.0
H443 H 0.82317 0.60722 0.89016 0.0
H444 H 0.7772 0.60693 0.87547 0.0
O445 O 0.67561 0.46389 0.90579 0.0
C446 C 0.68543 0.39979 0.88821 0.0
C447 C 0.7308 0.54792 0.87957 0.0
C448 C 0.79402 0.58149 0.88909 0.0
N449 N 0.74508 0.51563 0.89469 0.0
C450 C 0.71971 0.51513 0.88659 0.0
C451 C 0.78192 0.54814 0.89595 0.0
C452 C 0.76821 0.58131 0.88086 0.0
C453 C 0.72013 0.3548 0.92131 0.0
N454 N 0.69123 0.34503 0.91332 0.0
C455 C 0.74195 0.33528 0.92165 0.0
C456 C 0.73403 0.30559 0.91374 0.0
C457 C 0.70451 0.2958 0.90561 0.0
C458 C 0.68333 0.316 0.90552 0.0
C459 C 0.56812 0.25949 0.91946 0.0
C460 C 0.58481 0.31992 0.9042 0.0
C461 C 0.60428 0.29501 0.9198 0.0
N462 N 0.6123 0.32455 0.91218 0.0
C463 C 0.54833 0.28483 0.90362 0.0
C464 C 0.54002 0.25443 0.9113 0.0
C465 C 0.64113 0.43747 0.90898 0.0
C466 C 0.78042 0.51817 0.93567 0.0
C467 C 0.73493 0.52949 0.91967 0.0
C468 C 0.74608 0.55204 0.92963 0.0
C469 C 0.76891 0.54622 0.93768 0.0
N470 N 0.74625 0.50197 0.91777 0.0
C471 C 0.76879 0.49623 0.9256 0.0
Co472 Co 0.28811 0.66351 0.2445 0.0
Co473 Co 0.25922 0.7298 0.23555 0.0
O474 O 0.28999 0.71447 0.24518 0.0
C475 C 0.26445 0.66968 0.26764 0.0
O476 O 0.24013 0.67946 0.26286 0.0
C477 C 0.34207 0.79101 0.23158 0.0
O478 O 0.35021 0.76227 0.23061 0.0
O479 O 0.27418 0.71094 0.22173 0.0
O480 O 0.2899 0.66549 0.22757 0.0
H481 H 0.16229 0.71059 0.20461 0.0
H482 H 0.34848 0.72828 0.25884 0.0
O483 O 0.28605 0.66113 0.2615 0.0
H484 H 0.42424 0.6977 0.23109 0.0
H485 H 0.32453 0.56299 0.25767 0.0
H486 H 0.24615 0.59127 0.23025 0.0
H487 H 0.35114 0.66032 0.23097 0.0
H488 H 0.32652 0.62729 0.258 0.0
O489 O 0.30679 0.78321 0.23354 0.0
H490 H 0.2006 0.69101 0.21704 0.0
H491 H 0.25404 0.80331 0.23334 0.0
H492 H 0.24352 0.52672 0.22955 0.0
H493 H 0.42155 0.76621 0.25931 0.0
H494 H 0.28292 0.51225 0.24334 0.0
H495 H 0.45992 0.75107 0.24534 0.0
O496 O 0.22913 0.63388 0.24393 0.0
H497 H 0.28597 0.8012 0.27292 0.0
H498 H 0.18333 0.71957 0.24481 0.0
H499 H 0.16418 0.74052 0.26234 0.0
H500 H 0.21572 0.78163 0.27654 0.0
H501 H 0.30373 0.77931 0.25532 0.0
H502 H 0.21656 0.82423 0.22103 0.0
H503 H 0.17018 0.77764 0.20657 0.0
O504 O 0.21116 0.67683 0.2374 0.0
C505 C 0.28459 0.6852 0.21979 0.0
C506 C 0.18231 0.7311 0.21091 0.0
C507 C 0.21281 0.79491 0.22011 0.0
N508 N 0.22925 0.74587 0.22597 0.0
C509 C 0.20398 0.72014 0.21799 0.0
C510 C 0.23401 0.78293 0.22704 0.0
C511 C 0.18678 0.76875 0.212 0.0
C512 C 0.36497 0.72124 0.25281 0.0
N513 N 0.34557 0.69196 0.24494 0.0
C514 C 0.40634 0.74294 0.25308 0.0
C515 C 0.42785 0.73447 0.24523 0.0
C516 C 0.40785 0.70454 0.23723 0.0
C517 C 0.36646 0.68352 0.2372 0.0
C518 C 0.3073 0.56898 0.25161 0.0
C519 C 0.26357 0.58527 0.23622 0.0
C520 C 0.30825 0.60528 0.25177 0.0
N521 N 0.28672 0.6131 0.24409 0.0
C522 C 0.26187 0.54863 0.23581 0.0
C523 C 0.28395 0.54052 0.24356 0.0
C524 C 0.20304 0.64247 0.24073 0.0
C525 C 0.26325 0.78335 0.26679 0.0
C526 C 0.20588 0.73733 0.25097 0.0
C527 C 0.19489 0.74921 0.26086 0.0
C528 C 0.22383 0.77231 0.26882 0.0
N529 N 0.24459 0.74819 0.24904 0.0
C530 C 0.27315 0.77099 0.25678 0.0
Co531 Co 0.61891 0.28732 0.57953 0.0
Co532 Co 0.52229 0.25915 0.57237 0.0
O533 O 0.57055 0.29016 0.58116 0.0
C534 C 0.59363 0.26579 0.60308 0.0
O535 O 0.55882 0.24078 0.59879 0.0
C536 C 0.54405 0.34195 0.56819 0.0
O537 O 0.58056 0.34963 0.56659 0.0
O538 O 0.55298 0.27268 0.55798 0.0
O539 O 0.61508 0.2878 0.56264 0.0
H540 H 0.437 0.16059 0.54264 0.0
H541 H 0.61876 0.34947 0.59411 0.0
O542 O 0.62271 0.28667 0.5965 0.0
H543 H 0.7195 0.42172 0.56464 0.0
H544 H 0.7578 0.3226 0.59026 0.0
H545 H 0.64519 0.24352 0.5646 0.0
H546 H 0.68263 0.34862 0.56496 0.0
H547 H 0.69623 0.32567 0.59176 0.0
O548 O 0.51679 0.30701 0.57063 0.0
H549 H 0.49766 0.19913 0.55405 0.0
H550 H 0.44376 0.2549 0.57175 0.0
H551 H 0.7063 0.23978 0.56273 0.0
H552 H 0.65514 0.42256 0.59415 0.0
H553 H 0.76315 0.27953 0.57563 0.0
H554 H 0.70585 0.45917 0.57932 0.0
O555 O 0.58876 0.22832 0.57933 0.0
H556 H 0.48675 0.28962 0.61064 0.0
H557 H 0.45832 0.18436 0.58268 0.0
H558 H 0.42222 0.16702 0.6009 0.0
H559 H 0.4364 0.21988 0.61503 0.0
H560 H 0.52235 0.30556 0.59234 0.0
H561 H 0.38263 0.21722 0.56048 0.0
H562 H 0.37894 0.16955 0.54583 0.0
O563 O 0.52678 0.21076 0.57392 0.0
C564 C 0.5885 0.28237 0.55536 0.0
C565 C 0.43819 0.18117 0.54903 0.0
C566 C 0.4077 0.21299 0.55903 0.0
N567 N 0.4741 0.22895 0.56362 0.0
C568 C 0.47241 0.20297 0.55553 0.0
C569 C 0.44241 0.2343 0.56537 0.0
C570 C 0.40564 0.18624 0.55081 0.0
C571 C 0.64105 0.36518 0.58769 0.0
N572 N 0.64874 0.3448 0.57959 0.0
C573 C 0.66144 0.40657 0.58773 0.0
C574 C 0.68985 0.4271 0.57939 0.0
C575 C 0.6975 0.4061 0.57115 0.0
C576 C 0.67649 0.36471 0.57137 0.0
C577 C 0.73327 0.30521 0.58458 0.0
C578 C 0.66991 0.26109 0.57019 0.0
C579 C 0.69832 0.30677 0.5854 0.0
N580 N 0.66731 0.28504 0.57821 0.0
C581 C 0.70439 0.25877 0.56912 0.0
C582 C 0.73625 0.28104 0.57636 0.0
C583 C 0.55334 0.20237 0.57669 0.0
C584 C 0.48024 0.26634 0.60454 0.0
C585 C 0.4647 0.20748 0.5888 0.0
C586 C 0.4441 0.19752 0.59909 0.0
C587 C 0.45203 0.2272 0.60701 0.0
N588 N 0.49237 0.24592 0.58644 0.0
C589 C 0.50019 0.2752 0.59415 0.0
Co590 Co 0.32894 0.622 0.9115 0.0
Co591 Co 0.25883 0.52726 0.90325 0.0
O592 O 0.27671 0.57455 0.91254 0.0
C593 C 0.32148 0.59455 0.93494 0.0
O594 O 0.31137 0.55986 0.9305 0.0
C595 C 0.19914 0.55108 0.89943 0.0
O596 O 0.22854 0.58745 0.89804 0.0
O597 O 0.27685 0.55984 0.88921 0.0
O598 O 0.32699 0.61972 0.89455 0.0
H599 H 0.2711 0.44456 0.8725 0.0
H600 H 0.26603 0.62311 0.92546 0.0
O601 O 0.33118 0.62429 0.9285 0.0
H602 H 0.30153 0.72684 0.89645 0.0
H603 H 0.43423 0.75864 0.92354 0.0
H604 H 0.40084 0.64715 0.89745 0.0
H605 H 0.33564 0.68794 0.89708 0.0
H606 H 0.3683 0.69832 0.92423 0.0
O607 O 0.20603 0.52313 0.90163 0.0
H608 H 0.29389 0.50394 0.88454 0.0
H609 H 0.18359 0.44966 0.90191 0.0
H610 H 0.467 0.70701 0.89641 0.0
H611 H 0.23139 0.6615 0.92519 0.0
H612 H 0.48404 0.7633 0.90952 0.0
H613 H 0.24902 0.71372 0.91059 0.0
O614 O 0.35591 0.59015 0.91152 0.0
H615 H 0.1913 0.48775 0.94125 0.0
H616 H 0.26766 0.461 0.91273 0.0
H617 H 0.24756 0.42251 0.93054 0.0
H618 H 0.20909 0.43583 0.94495 0.0
H619 H 0.2123 0.52574 0.92335 0.0
H620 H 0.15946 0.38983 0.89 0.0
H621 H 0.20343 0.38697 0.8752 0.0
O622 O 0.31121 0.53032 0.90469 0.0
C623 C 0.30477 0.59487 0.88703 0.0
C624 C 0.25172 0.4454 0.87894 0.0
C625 C 0.18904 0.4147 0.88875 0.0
N626 N 0.24022 0.48011 0.89397 0.0
C627 C 0.2645 0.47888 0.8858 0.0
C628 C 0.20283 0.44868 0.89545 0.0
C629 C 0.21373 0.41311 0.88046 0.0
C630 C 0.27415 0.64605 0.91915 0.0
N631 N 0.30299 0.65344 0.91134 0.0
C632 C 0.25431 0.66758 0.91901 0.0
C633 C 0.26417 0.69683 0.9108 0.0
C634 C 0.29362 0.70419 0.90286 0.0
C635 C 0.31278 0.68203 0.90325 0.0
C636 C 0.42712 0.73436 0.91776 0.0
C637 C 0.40795 0.67165 0.90312 0.0
C638 C 0.38988 0.70012 0.91813 0.0
N639 N 0.38064 0.66944 0.91081 0.0
C640 C 0.4455 0.70541 0.90252 0.0
C641 C 0.45505 0.73696 0.90989 0.0
C642 C 0.34588 0.55524 0.90818 0.0
C643 C 0.20796 0.48161 0.93502 0.0
C644 C 0.25105 0.46703 0.91897 0.0
C645 C 0.23964 0.44507 0.92902 0.0
C646 C 0.21802 0.45253 0.9371 0.0
N647 N 0.24116 0.49557 0.917 0.0
C648 C 0.21982 0.50292 0.92486 0.0
Co649 Co 0.70604 0.33084 0.24622 0.0
Co650 Co 0.73064 0.26081 0.23789 0.0
O651 O 0.70208 0.279 0.24743 0.0
C652 C 0.73022 0.32648 0.26941 0.0
O653 O 0.75402 0.31586 0.26472 0.0
C654 C 0.64694 0.1998 0.23499 0.0
O655 O 0.63906 0.22858 0.23361 0.0
O656 O 0.71378 0.27721 0.22396 0.0
O657 O 0.70383 0.3272 0.22928 0.0
H658 H 0.82171 0.27155 0.20615 0.0
H659 H 0.64468 0.26901 0.26105 0.0
O660 O 0.70868 0.3349 0.26319 0.0
H661 H 0.57102 0.30018 0.23272 0.0
H662 H 0.67465 0.43603 0.25828 0.0
H663 H 0.75007 0.40152 0.23152 0.0
H664 H 0.6441 0.33511 0.23243 0.0
H665 H 0.67011 0.3706 0.25921 0.0
O666 O 0.68225 0.20756 0.23688 0.0
H667 H 0.78622 0.29472 0.2185 0.0
H668 H 0.73402 0.1861 0.2367 0.0
H669 H 0.75526 0.46714 0.23022 0.0
H670 H 0.57163 0.23359 0.2617 0.0
H671 H 0.71735 0.48474 0.24367 0.0
H672 H 0.53431 0.24904 0.24744 0.0
O673 O 0.76487 0.35847 0.24552 0.0
H674 H 0.70875 0.19708 0.27632 0.0
H675 H 0.80741 0.27146 0.24657 0.0
H676 H 0.82872 0.25355 0.26424 0.0
H677 H 0.77919 0.2161 0.27927 0.0
H678 H 0.68882 0.2159 0.25854 0.0
H679 H 0.76866 0.1616 0.22449 0.0
H680 H 0.81301 0.20453 0.20911 0.0
O681 O 0.77969 0.31358 0.23869 0.0
C682 C 0.70585 0.30458 0.22179 0.0
C683 C 0.80257 0.25262 0.21284 0.0
C684 C 0.77275 0.19089 0.22313 0.0
N685 N 0.75836 0.24192 0.22836 0.0
C686 C 0.7825 0.26562 0.21988 0.0
C687 C 0.75315 0.20488 0.23 0.0
C688 C 0.79764 0.215 0.2145 0.0
C689 C 0.62867 0.27618 0.25489 0.0
N690 N 0.64864 0.30426 0.24676 0.0
C691 C 0.5873 0.25591 0.25526 0.0
C692 C 0.56637 0.26455 0.24725 0.0
C693 C 0.58696 0.29322 0.23898 0.0
C694 C 0.62833 0.31285 0.23885 0.0
C695 C 0.69122 0.42866 0.25235 0.0
C696 C 0.73325 0.40886 0.23733 0.0
C697 C 0.68881 0.3917 0.25285 0.0
N698 N 0.70948 0.38214 0.24534 0.0
C699 C 0.73641 0.44611 0.23659 0.0
C700 C 0.71518 0.45598 0.24415 0.0
C701 C 0.78956 0.34849 0.24197 0.0
C702 C 0.73059 0.21332 0.26982 0.0
C703 C 0.78574 0.25529 0.25308 0.0
C704 C 0.79794 0.24511 0.26305 0.0
C705 C 0.77013 0.22406 0.27148 0.0
N706 N 0.74693 0.24475 0.25152 0.0
C707 C 0.71946 0.22393 0.25972 0.0
C708 C 0.29751 0.56366 0.95397 0.0
C709 C 0.31754 0.598 0.94729 0.0
C710 C 0.29098 0.56646 0.96549 0.0
C711 C 0.32698 0.63164 0.99011 0.0
H712 H 0.22087 0.56317 0.00171 0.0
C713 C 0.28703 0.63507 0.03723 0.0
C714 C 0.2631 0.59794 0.04232 0.0
C715 C 0.29246 0.63811 0.02545 0.0
C716 C 0.25073 0.58225 -0.00137 0.0
H717 H 0.34738 0.66226 0.94749 0.0
H718 H 0.33645 0.66709 0.96777 0.0
H719 H 0.23407 0.56247 0.9815 0.0
H720 H 0.22592 0.53492 0.0391 0.0
H721 H 0.23601 0.54009 0.01869 0.0
H722 H 0.34404 0.6505 0.00729 0.0
C723 C 0.32568 0.63809 0.96401 0.0
C724 C 0.25823 0.58189 0.98707 0.0
C725 C 0.33183 0.63528 0.95243 0.0
C726 C 0.24428 0.56403 0.03543 0.0
C727 C 0.2499 0.56703 0.0237 0.0
C728 C 0.31959 0.63174 0.00173 0.0
C729 C 0.30469 0.60365 0.97059 0.0
C730 C 0.29651 0.60614 0.98273 0.0
C731 C 0.27423 0.60405 0.01857 0.0
C732 C 0.28148 0.60657 0.00614 0.0
H733 H 0.28607 0.53448 0.95026 0.0
H734 H 0.27516 0.53949 0.97042 0.0
H735 H 0.35681 0.65047 0.98696 0.0
H736 H 0.30184 0.66176 0.04233 0.0
H737 H 0.31098 0.66712 0.02175 0.0
C738 C 0.69512 0.25981 0.37063 0.0
C739 C 0.67563 0.27491 0.37724 0.0
C740 C 0.70131 0.26831 0.35906 0.0
C741 C 0.66485 0.29699 0.33437 0.0
H742 H 0.76964 0.33116 0.32225 0.0
C743 C 0.74435 0.30934 0.2886 0.0
C744 C 0.72632 0.3257 0.28189 0.0
C745 C 0.73908 0.30649 0.30035 0.0
C746 C 0.74012 0.32131 0.32548 0.0
H747 H 0.64659 0.31006 0.37687 0.0
H748 H 0.65703 0.32449 0.35652 0.0
H749 H 0.75748 0.31842 0.34254 0.0
H750 H 0.68928 0.35268 0.28223 0.0
H751 H 0.68076 0.34846 0.30283 0.0
H752 H 0.64712 0.29877 0.31728 0.0
C753 C 0.66755 0.30619 0.36036 0.0
C754 C 0.73322 0.31411 0.33709 0.0
C755 C 0.6617 0.29802 0.37198 0.0
C756 C 0.70345 0.33981 0.28719 0.0
C757 C 0.69838 0.33718 0.29897 0.0
C758 C 0.67165 0.30388 0.32272 0.0
C759 C 0.68784 0.29179 0.35384 0.0
C760 C 0.69543 0.30141 0.34162 0.0
C761 C 0.71591 0.32021 0.30567 0.0
C762 C 0.70927 0.31563 0.31812 0.0
H763 H 0.7063 0.242 0.37443 0.0
H764 H 0.71659 0.25645 0.35418 0.0
H765 H 0.63537 0.28698 0.33766 0.0
H766 H 0.76188 0.29789 0.28477 0.0
H767 H 0.75241 0.2926 0.30522 0.0
C768 C 0.43294 0.68671 0.70236 0.0
C769 C 0.39819 0.66947 0.70892 0.0
C770 C 0.43106 0.6904 0.69062 0.0
C771 C 0.36664 0.69317 0.6681 0.0
H772 H 0.43923 0.68042 0.64837 0.0
C773 C 0.36223 0.69784 0.61884 0.0
C774 C 0.39909 0.721 0.6135 0.0
C775 C 0.36024 0.69036 0.6305 0.0
C776 C 0.41895 0.68428 0.6538 0.0
H777 H 0.33413 0.64187 0.70833 0.0
H778 H 0.33077 0.64751 0.68775 0.0
H779 H 0.43849 0.66747 0.66865 0.0
H780 H 0.46271 0.75485 0.6162 0.0
H781 H 0.45914 0.7416 0.63652 0.0
H782 H 0.34699 0.7097 0.65313 0.0
C783 C 0.35953 0.65886 0.69172 0.0
C784 C 0.41855 0.67695 0.66541 0.0
C785 C 0.36143 0.6554 0.70349 0.0
C786 C 0.43385 0.73696 0.62006 0.0
C787 C 0.43186 0.72915 0.63168 0.0
C788 C 0.36682 0.70018 0.65645 0.0
C789 C 0.39437 0.67665 0.68517 0.0
C790 C 0.3928 0.68186 0.67272 0.0
C791 C 0.39509 0.70553 0.63699 0.0
C792 C 0.39338 0.69634 0.64923 0.0
H793 H 0.46177 0.69817 0.70629 0.0
H794 H 0.45852 0.70491 0.68587 0.0
H795 H 0.34679 0.69771 0.67351 0.0
H796 H 0.33494 0.68515 0.61399 0.0
H797 H 0.33154 0.67191 0.63439 0.0
C798 C 0.7363 0.432 0.03733 0.0
C799 C 0.72037 0.397 0.04377 0.0
C800 C 0.72851 0.43045 0.02572 0.0
C801 C 0.69975 0.36655 0.00071 0.0
H802 H 0.66648 0.43832 0.98895 0.0
C803 C 0.65507 0.36291 0.95375 0.0
C804 C 0.66894 0.39985 0.94847 0.0
C805 C 0.65844 0.36056 0.96551 0.0
C806 C 0.67612 0.41836 0.99207 0.0
H807 H 0.68463 0.33286 0.04307 0.0
H808 H 0.67145 0.33022 0.02266 0.0
H809 H 0.67944 0.43821 0.00921 0.0
H810 H 0.69713 0.46328 0.95132 0.0
H811 H 0.70374 0.45927 0.97173 0.0
H812 H 0.69746 0.34737 0.98355 0.0
C813 C 0.68985 0.35878 0.02665 0.0
C814 C 0.68345 0.41827 0.00367 0.0
C815 C 0.6973 0.36032 0.03831 0.0
C816 C 0.68583 0.43432 0.95516 0.0
C817 C 0.68945 0.432 0.96688 0.0
C818 C 0.69275 0.36686 0.98908 0.0
C819 C 0.70494 0.39388 0.0203 0.0
C820 C 0.6957 0.39265 0.00807 0.0
C821 C 0.67597 0.39513 0.97219 0.0
C822 C 0.68122 0.39307 0.98462 0.0
H823 H 0.75414 0.46073 0.04128 0.0
H824 H 0.74091 0.45791 0.02098 0.0
H825 H 0.70943 0.3467 0.0039 0.0
H826 H 0.64178 0.33581 0.94881 0.0
H827 H 0.64727 0.33167 0.96936 0.0
C828 C 0.25116 0.68847 0.2867 0.0
C829 C 0.26867 0.6713 0.28011 0.0
C830 C 0.25654 0.69183 0.29845 0.0
C831 C 0.32302 0.69354 0.32105 0.0
H832 H 0.23734 0.6809 0.34061 0.0
C833 C 0.33056 0.69833 0.37042 0.0
C834 C 0.31715 0.72202 0.37558 0.0
C835 C 0.32542 0.69062 0.35875 0.0
C836 C 0.26156 0.68468 0.33523 0.0
H837 H 0.30498 0.64355 0.28064 0.0
H838 H 0.31362 0.6486 0.30124 0.0
H839 H 0.22558 0.66825 0.32031 0.0
H840 H 0.28836 0.75662 0.37256 0.0
H841 H 0.27926 0.74293 0.35227 0.0
H842 H 0.35883 0.70972 0.3361 0.0
C843 C 0.29636 0.66014 0.2973 0.0
C844 C 0.25489 0.67755 0.32361 0.0
C845 C 0.29122 0.65704 0.28551 0.0
C846 C 0.29908 0.7383 0.36885 0.0
C847 C 0.29359 0.73025 0.35724 0.0
C848 C 0.32958 0.70034 0.33272 0.0
C849 C 0.27926 0.6778 0.30389 0.0
C850 C 0.2857 0.68253 0.31635 0.0
C851 C 0.30636 0.70606 0.35211 0.0
C852 C 0.29907 0.69659 0.33987 0.0
H853 H 0.23393 0.70011 0.28278 0.0
H854 H 0.24357 0.70627 0.30323 0.0
H855 H 0.34752 0.69809 0.31569 0.0
H856 H 0.34459 0.68538 0.3754 0.0
H857 H 0.33541 0.67177 0.35498 0.0
C858 C 0.56503 0.31144 0.70361 0.0
C859 C 0.599 0.32718 0.71049 0.0
C860 C 0.56805 0.30872 0.69189 0.0
C861 C 0.63325 0.30511 0.66982 0.0
H862 H 0.56278 0.32003 0.64977 0.0
C863 C 0.63519 0.29664 0.62041 0.0
C864 C 0.59774 0.27291 0.61544 0.0
C865 C 0.63845 0.30552 0.63201 0.0
C866 C 0.58255 0.3157 0.65528 0.0
H867 H 0.66292 0.35314 0.71048 0.0
H868 H 0.66831 0.34919 0.6899 0.0
H869 H 0.56366 0.33389 0.66999 0.0
H870 H 0.53444 0.23936 0.61872 0.0
H871 H 0.54024 0.25519 0.63889 0.0
H872 H 0.65216 0.28708 0.65498 0.0
C873 C 0.63925 0.3383 0.69361 0.0
C874 C 0.58301 0.3235 0.66686 0.0
C875 C 0.6362 0.34079 0.70539 0.0
C876 C 0.56373 0.25769 0.62229 0.0
C877 C 0.56698 0.26696 0.63382 0.0
C878 C 0.63307 0.29768 0.65819 0.0
C879 C 0.60515 0.32198 0.68674 0.0
C880 C 0.60771 0.31747 0.6743 0.0
C881 C 0.60429 0.29127 0.63876 0.0
C882 C 0.6071 0.30212 0.65088 0.0
H883 H 0.53587 0.30034 0.70728 0.0
H884 H 0.54108 0.29526 0.68689 0.0
H885 H 0.65235 0.29979 0.67534 0.0
H886 H 0.66191 0.30876 0.61533 0.0
H887 H 0.66754 0.32439 0.63565 0.0
C888 C 0.29003 0.70162 0.19905 0.0
C889 C 0.29057 0.67751 0.20786 0.0
C890 C 0.29431 0.69349 0.18776 0.0
C891 C 0.27734 0.61167 0.1692 0.0
H892 H 0.34405 0.6945 0.14796 0.0
C893 C 0.29462 0.63871 0.11788 0.0
C894 C 0.28985 0.60212 0.11432 0.0
C895 C 0.29884 0.64867 0.12938 0.0
C896 C 0.32502 0.67109 0.15377 0.0
H897 H 0.29677 0.62631 0.21168 0.0
H898 H 0.30386 0.61205 0.19194 0.0
H899 H 0.34362 0.71079 0.16798 0.0
H900 H 0.28731 0.54794 0.12006 0.0
H901 H 0.2956 0.56576 0.1401 0.0
H902 H 0.25765 0.57215 0.15502 0.0
C903 C 0.30002 0.63715 0.19382 0.0
C904 C 0.32489 0.68043 0.16522 0.0
C905 C 0.29609 0.64545 0.20512 0.0
C906 C 0.29052 0.5762 0.12251 0.0
C907 C 0.29509 0.58633 0.13401 0.0
C908 C 0.2772 0.60239 0.15775 0.0
C909 C 0.29889 0.66092 0.18503 0.0
C910 C 0.30081 0.65085 0.17302 0.0
C911 C 0.29876 0.62244 0.1376 0.0
C912 C 0.30079 0.63204 0.14987 0.0
H913 H 0.28595 0.72662 0.20086 0.0
H914 H 0.29297 0.71206 0.18113 0.0
H915 H 0.25809 0.5884 0.17502 0.0
H916 H 0.29417 0.65937 0.11181 0.0
H917 H 0.30103 0.67647 0.13185 0.0
C918 C 0.69853 0.2859 0.4584 0.0
C919 C 0.67443 0.28658 0.44961 0.0
C920 C 0.69011 0.28951 0.46972 0.0
C921 C 0.60817 0.27178 0.48835 0.0
H922 H 0.6911 0.33917 0.50952 0.0
C923 C 0.57335 0.28741 0.53495 0.0
C924 C 0.59943 0.28738 0.5432 0.0
C925 C 0.58318 0.29092 0.52344 0.0
C926 C 0.66767 0.31993 0.50374 0.0
H927 H 0.62279 0.29207 0.44584 0.0
H928 H 0.60803 0.29803 0.46563 0.0
H929 H 0.7072 0.33849 0.4895 0.0
H930 H 0.65656 0.29149 0.54582 0.0
H931 H 0.67316 0.29658 0.52575 0.0
H932 H 0.56879 0.25227 0.50256 0.0
C933 C 0.63335 0.2946 0.46372 0.0
C934 C 0.6769 0.31965 0.49229 0.0
C935 C 0.64194 0.29133 0.45239 0.0
C936 C 0.63579 0.2915 0.53969 0.0
C937 C 0.64547 0.2947 0.52818 0.0
C938 C 0.59898 0.27181 0.4998 0.0
C939 C 0.65726 0.29356 0.47248 0.0
C940 C 0.64727 0.29537 0.48451 0.0
C941 C 0.61916 0.29418 0.51991 0.0
C942 C 0.62868 0.29567 0.50765 0.0
H943 H 0.72385 0.28239 0.45657 0.0
H944 H 0.70879 0.28823 0.47633 0.0
H945 H 0.58487 0.2524 0.48255 0.0
H946 H 0.54525 0.28465 0.53736 0.0
H947 H 0.56256 0.29109 0.5173 0.0
C948 C 0.35869 0.64058 0.78496 0.0
C949 C 0.38232 0.6794 0.78098 0.0
C950 C 0.34782 0.63363 0.79639 0.0
C951 C 0.37508 0.68375 0.82466 0.0
H952 H 0.28007 0.58761 0.83369 0.0
C953 C 0.27973 0.59608 0.86765 0.0
C954 C 0.31174 0.60746 0.87509 0.0
C955 C 0.2864 0.60779 0.85628 0.0
C956 C 0.30636 0.61506 0.8314 0.0
H957 H 0.4117 0.74153 0.78552 0.0
H958 H 0.39062 0.72977 0.80532 0.0
H959 H 0.29294 0.60363 0.81376 0.0
H960 H 0.37566 0.6395 0.87662 0.0
H961 H 0.38763 0.65768 0.85667 0.0
H962 H 0.38715 0.69655 0.8423 0.0
C963 C 0.38195 0.70442 0.79984 0.0
C964 C 0.31423 0.62388 0.81987 0.0
C965 C 0.39382 0.71127 0.78848 0.0
C966 C 0.3505 0.63066 0.87102 0.0
C967 C 0.35725 0.64137 0.85959 0.0
C968 C 0.36663 0.67553 0.83619 0.0
C969 C 0.35937 0.66545 0.80402 0.0
C970 C 0.34918 0.65787 0.81632 0.0
C971 C 0.3253 0.63013 0.85203 0.0
C972 C 0.33261 0.64059 0.83974 0.0
H973 H 0.34979 0.61551 0.77933 0.0
H974 H 0.33129 0.60319 0.79924 0.0
H975 H 0.40256 0.70999 0.82236 0.0
H976 H 0.24952 0.57857 0.87067 0.0
H977 H 0.26095 0.59935 0.85086 0.0
C978 C 0.71253 0.35694 0.11983 0.0
C979 C 0.6967 0.37992 0.11578 0.0
C980 C 0.70826 0.34582 0.13124 0.0
C981 C 0.68306 0.3716 0.15938 0.0
H982 H 0.68709 0.27823 0.16856 0.0
C983 C 0.71335 0.34925 0.20573 0.0
C984 C 0.69903 0.31076 0.20988 0.0
C985 C 0.70867 0.35541 0.1943 0.0
C986 C 0.68508 0.30403 0.16621 0.0
H987 H 0.6624 0.40778 0.12016 0.0
H988 H 0.65249 0.38622 0.13991 0.0
H989 H 0.68394 0.2908 0.14859 0.0
H990 H 0.66713 0.24836 0.2056 0.0
H991 H 0.65653 0.25871 0.18579 0.0
H992 H 0.68153 0.38344 0.177 0.0
C993 C 0.66995 0.37831 0.13452 0.0
C994 C 0.68415 0.31174 0.15467 0.0
C995 C 0.6753 0.39045 0.12318 0.0
C996 C 0.67885 0.27838 0.20252 0.0
C997 C 0.67309 0.28444 0.19115 0.0
C998 C 0.68281 0.36326 0.17092 0.0
C999 C 0.687 0.35644 0.13878 0.0
C1000 C 0.68413 0.34617 0.15108 0.0
C1001 C 0.68847 0.3231 0.18682 0.0
C1002 C 0.68486 0.32991 0.17452 0.0
H1003 H 0.72943 0.34876 0.11427 0.0
H1004 H 0.72267 0.32985 0.13416 0.0
H1005 H 0.68351 0.39868 0.15705 0.0
H1006 H 0.72935 0.3747 0.21124 0.0
H1007 H 0.72188 0.38566 0.19131 0.0
C1008 C 0.34636 0.69798 0.53847 0.0
C1009 C 0.38382 0.70317 0.5412 0.0
C1010 C 0.33429 0.69452 0.52715 0.0
C1011 C 0.35299 0.67068 0.49843 0.0
H1012 H 0.31151 0.73786 0.4886 0.0
C1013 C 0.33904 0.70058 0.45117 0.0
C1014 C 0.30661 0.70466 0.44784 0.0
C1015 C 0.34576 0.69688 0.46264 0.0
C1016 C 0.32237 0.71837 0.49123 0.0
H1017 H 0.4375 0.70772 0.53417 0.0
H1018 H 0.41622 0.70158 0.51443 0.0
H1019 H 0.32762 0.73702 0.50855 0.0
H1020 H 0.25504 0.70667 0.45393 0.0
H1021 H 0.26632 0.69935 0.47388 0.0
H1022 H 0.34773 0.65196 0.48111 0.0
C1023 C 0.39626 0.7001 0.52107 0.0
C1024 C 0.33167 0.71798 0.50265 0.0
C1025 C 0.40851 0.70388 0.53237 0.0
C1026 C 0.28055 0.70401 0.45621 0.0
C1027 C 0.2871 0.69999 0.46766 0.0
C1028 C 0.34339 0.67082 0.487 0.0
C1029 C 0.35924 0.69585 0.51835 0.0
C1030 C 0.34742 0.69444 0.50634 0.0
C1031 C 0.32004 0.69685 0.47102 0.0
C1032 C 0.32834 0.69498 0.48325 0.0
H1033 H 0.32651 0.69717 0.54504 0.0
H1034 H 0.30543 0.69088 0.52528 0.0
H1035 H 0.36467 0.65191 0.50109 0.0
H1036 H 0.35976 0.70103 0.44496 0.0
H1037 H 0.37172 0.69508 0.46495 0.0
C1038 C 0.70243 0.41152 0.86751 0.0
C1039 C 0.67827 0.38644 0.87624 0.0
C1040 C 0.69464 0.39941 0.85618 0.0
C1041 C 0.61337 0.33435 0.83749 0.0
H1042 H 0.69657 0.35142 0.81626 0.0
C1043 C 0.57816 0.28397 0.79095 0.0
C1044 C 0.60379 0.31033 0.78267 0.0
C1045 C 0.58837 0.29026 0.80243 0.0
C1046 C 0.67306 0.34679 0.82206 0.0
H1047 H 0.62745 0.32858 0.8799 0.0
H1048 H 0.61384 0.30776 0.86011 0.0
H1049 H 0.71271 0.36836 0.83629 0.0
H1050 H 0.66061 0.36365 0.77998 0.0
H1051 H 0.67785 0.37515 0.80001 0.0
H1052 H 0.57387 0.31398 0.82331 0.0
C1053 C 0.63866 0.33681 0.86206 0.0
C1054 C 0.68231 0.35639 0.83351 0.0
C1055 C 0.6466 0.34873 0.8734 0.0
C1056 C 0.64018 0.3427 0.78612 0.0
C1057 C 0.65022 0.34917 0.79762 0.0
C1058 C 0.60417 0.32508 0.82604 0.0
C1059 C 0.6624 0.36215 0.85335 0.0
C1060 C 0.65257 0.35044 0.84131 0.0
C1061 C 0.62427 0.32322 0.80592 0.0
C1062 C 0.63393 0.3314 0.81817 0.0
H1063 H 0.72714 0.4407 0.86939 0.0
H1064 H 0.7132 0.41964 0.8496 0.0
H1065 H 0.58997 0.33001 0.8433 0.0
H1066 H 0.55008 0.2585 0.78857 0.0
H1067 H 0.56804 0.26929 0.80859 0.0
C1068 C 0.85761 0.48825 0.0855 0.0
C1069 C 0.8292 0.44821 0.08363 0.0
C1070 C 0.89791 0.50066 0.08535 0.0
C1071 C 0.96782 0.46666 0.09014 0.0
H1072 H 0.03933 0.55537 0.0712 0.0
C1073 C 0.12831 0.50476 0.08291 0.0
C1074 C 0.15793 0.54483 0.08215 0.0
C1075 C 0.08847 0.49399 0.08318 0.0
C1076 C 0.0199 0.53099 0.07667 0.0
H1077 H 0.82091 0.38968 0.08035 0.0
H1078 H 0.89161 0.41149 0.08031 0.0
H1079 H 0.96888 0.53435 0.07157 0.0
H1080 H 0.1689 0.60511 0.08121 0.0
H1081 H 0.09909 0.5863 0.08203 0.0
H1082 H 0.01857 0.46365 0.0955 0.0
C1083 C 0.88239 0.43313 0.08179 0.0
C1084 C 0.9796 0.51887 0.07683 0.0
C1085 C 0.84202 0.42075 0.08176 0.0
C1086 C 0.14677 0.57396 0.08171 0.0
C1087 C 0.10676 0.56315 0.08213 0.0
C1088 C 0.00814 0.47908 0.09011 0.0
C1089 C 0.9106 0.47321 0.08352 0.0
C1090 C 0.95325 0.4864 0.08349 0.0
C1091 C 0.07717 0.523 0.08287 0.0
C1092 C 0.03461 0.51112 0.08328 0.0
H1093 H 0.84885 0.51017 0.08704 0.0
H1094 H 0.91919 0.53165 0.08682 0.0
H1095 H 0.94805 0.44191 0.09547 0.0
H1096 H 0.13574 0.48149 0.08324 0.0
H1097 H 0.0665 0.46276 0.08351 0.0
C1098 C 0.57191 0.14961 0.41359 0.0
C1099 C 0.61196 0.16078 0.4151 0.0
C1100 C 0.54283 0.10959 0.41316 0.0
C1101 C 0.52726 0.01103 0.40694 0.0
H1102 H 0.43555 0.97359 0.42658 0.0
C1103 C 0.41582 0.84446 0.41317 0.0
C1104 C 0.37559 0.8331 0.41421 0.0
C1105 C 0.44488 0.88454 0.41306 0.0
C1106 C 0.46064 0.9836 0.42091 0.0
H1107 H 0.65282 0.13858 0.41724 0.0
H1108 H 0.60209 0.06895 0.41631 0.0
H1109 H 0.48527 0.04379 0.42638 0.0
H1110 H 0.33438 0.85505 0.41582 0.0
H1111 H 0.38466 0.92448 0.41524 0.0
H1112 H 0.50246 0.9511 0.40128 0.0
C1113 C 0.59333 0.09119 0.41546 0.0
C1114 C 0.4891 0.02378 0.42083 0.0
C1115 C 0.62231 0.1311 0.41604 0.0
C1116 C 0.36505 0.86264 0.41504 0.0
C1117 C 0.39398 0.90258 0.4148 0.0
C1118 C 0.49854 0.97088 0.4069 0.0
C1119 C 0.55335 0.08011 0.41409 0.0
C1120 C 0.52268 0.03778 0.41388 0.0
C1121 C 0.43426 0.91406 0.4139 0.0
C1122 C 0.46493 0.95668 0.41391 0.0
H1123 H 0.56293 0.17172 0.41287 0.0
H1124 H 0.51213 0.10167 0.41205 0.0
H1125 H 0.55283 0.02128 0.40144 0.0
H1126 H 0.42495 0.82243 0.41259 0.0
H1127 H 0.47569 0.89234 0.41252 0.0
C1128 C 0.50577 0.3714 0.74986 0.0
C1129 C 0.5459 0.38183 0.74938 0.0
C1130 C 0.49498 0.40046 0.74947 0.0
C1131 C 0.52934 0.50307 0.75612 0.0
H1132 H 0.4486 0.49263 0.73484 0.0
C1133 C 0.48926 0.62542 0.75082 0.0
C1134 C 0.44935 0.61398 0.74889 0.0
C1135 C 0.50154 0.59745 0.75067 0.0
C1136 C 0.47075 0.4957 0.74095 0.0
H1137 H 0.60625 0.43111 0.7483 0.0
H1138 H 0.58715 0.48213 0.74785 0.0
H1139 H 0.46963 0.44328 0.73493 0.0
H1140 H 0.39081 0.56393 0.74553 0.0
H1141 H 0.41203 0.51483 0.74566 0.0
H1142 H 0.52972 0.55464 0.76244 0.0
C1143 C 0.56423 0.45127 0.74842 0.0
C1144 C 0.48293 0.4676 0.74094 0.0
C1145 C 0.57507 0.42209 0.74863 0.0
C1146 C 0.42185 0.57379 0.74695 0.0
C1147 C 0.43408 0.54568 0.74695 0.0
C1148 C 0.51679 0.5309 0.75625 0.0
C1149 C 0.52408 0.44058 0.74876 0.0
C1150 C 0.51228 0.47108 0.74853 0.0
C1151 C 0.47412 0.55723 0.74876 0.0
C1152 C 0.48734 0.52755 0.74866 0.0
H1153 H 0.48251 0.34074 0.7505 0.0
H1154 H 0.46385 0.3916 0.74988 0.0
H1155 H 0.55168 0.506 0.76215 0.0
H1156 H 0.51128 0.65609 0.75236 0.0
H1157 H 0.5327 0.60752 0.75191 0.0
C1158 C 0.50177 0.13055 0.5765 0.0
C1159 C 0.54198 0.1601 0.57699 0.0
C1160 C 0.49077 0.0906 0.57665 0.0
C1161 C 0.52572 0.02315 0.56924 0.0
H1162 H 0.44352 0.94983 0.58966 0.0
C1163 C 0.48835 0.86135 0.57333 0.0
C1164 C 0.44845 0.83198 0.57478 0.0
C1165 C 0.49972 0.90135 0.57384 0.0
C1166 C 0.46609 0.96979 0.58379 0.0
H1167 H 0.60219 0.17077 0.57795 0.0
H1168 H 0.58275 0.1006 0.57802 0.0
H1169 H 0.4639 0.0201 0.59022 0.0
H1170 H 0.38906 0.82169 0.57774 0.0
H1171 H 0.40878 0.8917 0.57828 0.0
H1172 H 0.52731 0.97304 0.56254 0.0
C1173 C 0.55992 0.10868 0.5776 0.0
C1174 C 0.47789 0.00999 0.58417 0.0
C1175 C 0.57097 0.14876 0.57761 0.0
C1176 C 0.42009 0.84358 0.57667 0.0
C1177 C 0.43144 0.88372 0.57705 0.0
C1178 C 0.51361 0.9829 0.56876 0.0
C1179 C 0.51972 0.07934 0.57713 0.0
C1180 C 0.50785 0.03697 0.57691 0.0
C1181 C 0.47142 0.91306 0.57565 0.0
C1182 C 0.48375 0.95575 0.57605 0.0
H1183 H 0.47864 0.13816 0.57598 0.0
H1184 H 0.4596 0.06847 0.57617 0.0
H1185 H 0.54848 0.04336 0.56344 0.0
H1186 H 0.51105 0.85359 0.57188 0.0
H1187 H 0.53085 0.9231 0.57294 0.0
C1188 C 0.41618 0.57048 0.90998 0.0
C1189 C 0.37581 0.54257 0.90849 0.0
C1190 C 0.44438 0.55839 0.91007 0.0
C1191 C 0.45752 0.47393 0.91575 0.0
H1192 H 0.54906 0.52717 0.896 0.0
C1193 C 0.56965 0.4191 0.9102 0.0
C1194 C 0.60979 0.44824 0.90913 0.0
C1195 C 0.54028 0.4297 0.91007 0.0
C1196 C 0.524 0.51234 0.90169 0.0
H1197 H 0.33348 0.48004 0.90596 0.0
H1198 H 0.38275 0.45907 0.90637 0.0
H1199 H 0.49991 0.54836 0.89623 0.0
H1200 H 0.6505 0.51143 0.90726 0.0
H1201 H 0.59978 0.52987 0.9075 0.0
H1202 H 0.48194 0.43855 0.92146 0.0
C1203 C 0.39239 0.49022 0.90745 0.0
C1204 C 0.49585 0.52443 0.90178 0.0
C1205 C 0.36426 0.50232 0.90718 0.0
C1206 C 0.61992 0.48814 0.90807 0.0
C1207 C 0.59071 0.49874 0.90809 0.0
C1208 C 0.48597 0.46214 0.91579 0.0
C1209 C 0.43266 0.51816 0.90883 0.0
C1210 C 0.46245 0.50537 0.90881 0.0
C1211 C 0.55051 0.46967 0.90899 0.0
C1212 C 0.51962 0.48132 0.90878 0.0
H1213 H 0.42609 0.60172 0.91096 0.0
H1214 H 0.47534 0.58043 0.9112 0.0
H1215 H 0.43203 0.45897 0.92129 0.0
H1216 H 0.56085 0.38806 0.91096 0.0
H1217 H 0.50955 0.4065 0.91064 0.0
C1218 C 0.13113 0.62161 0.2403 0.0
C1219 C 0.16088 0.61133 0.24116 0.0
C1220 C 0.09127 0.59254 0.24077 0.0
C1221 C 0.02327 0.48927 0.23488 0.0
H1222 H 0.95235 0.50153 0.25545 0.0
C1223 C 0.86073 0.36711 0.24029 0.0
C1224 C 0.83214 0.37858 0.24192 0.0
C1225 C 0.90098 0.39519 0.24043 0.0
C1226 C 0.9716 0.49793 0.24953 0.0
H1227 H 0.172 0.5623 0.24301 0.0
H1228 H 0.10188 0.51125 0.2436 0.0
H1229 H 0.02272 0.55104 0.25532 0.0
H1230 H 0.82344 0.42878 0.24468 0.0
H1231 H 0.89374 0.47803 0.24452 0.0
H1232 H 0.97229 0.43702 0.22877 0.0
C1233 C 0.1098 0.54201 0.24267 0.0
C1234 C 0.01188 0.52613 0.24953 0.0
C1235 C 0.14981 0.57121 0.24238 0.0
C1236 C 0.84472 0.4189 0.24351 0.0
C1237 C 0.88505 0.44711 0.24349 0.0
C1238 C 0.9829 0.46135 0.23476 0.0
C1239 C 0.08029 0.55255 0.24193 0.0
C1240 C 0.03798 0.522 0.2422 0.0
C1241 C 0.91366 0.43554 0.242 0.0
C1242 C 0.95657 0.46534 0.24209 0.0
H1243 H 0.13851 0.65215 0.2393 0.0
H1244 H 0.06897 0.60128 0.24006 0.0
H1245 H 0.04286 0.48581 0.22905 0.0
H1246 H 0.85218 0.33634 0.23903 0.0
H1247 H 0.92214 0.38509 0.23945 0.0
C1248 C 0.61983 0.48796 0.09207 0.0
C1249 C 0.61086 0.44825 0.09178 0.0
C1250 C 0.58964 0.49717 0.09231 0.0
C1251 C 0.48615 0.45805 0.08451 0.0
H1252 H 0.49354 0.54094 0.1044 0.0
C1253 C 0.35978 0.49277 0.08867 0.0
C1254 C 0.37019 0.53287 0.08915 0.0
C1255 C 0.3888 0.48197 0.08933 0.0
C1256 C 0.49131 0.51805 0.09871 0.0
H1257 H 0.56324 0.38703 0.0916 0.0
H1258 H 0.51019 0.40328 0.09202 0.0
H1259 H 0.5444 0.52195 0.10524 0.0
H1260 H 0.41918 0.59316 0.09063 0.0
H1261 H 0.47013 0.57423 0.09162 0.0
H1262 H 0.43343 0.45448 0.07785 0.0
C1263 C 0.54072 0.42716 0.09201 0.0
C1264 C 0.5203 0.50709 0.09922 0.0
C1265 C 0.57102 0.41788 0.09183 0.0
C1266 C 0.41026 0.56201 0.09029 0.0
C1267 C 0.43938 0.55116 0.09092 0.0
C1268 C 0.45723 0.46909 0.08397 0.0
C1269 C 0.54982 0.46691 0.09223 0.0
C1270 C 0.51807 0.47712 0.09209 0.0
C1271 C 0.42889 0.51101 0.09043 0.0
C1272 C 0.45958 0.49929 0.09104 0.0
H1273 H 0.65025 0.51207 0.09204 0.0
H1274 H 0.59748 0.52805 0.09233 0.0
H1275 H 0.48406 0.43527 0.07879 0.0
H1276 H 0.32912 0.46955 0.08785 0.0
H1277 H 0.37974 0.45077 0.08911 0.0
C1278 C 0.86155 0.36625 0.42785 0.0
C1279 C 0.83049 0.37474 0.42763 0.0
C1280 C 0.90084 0.39681 0.42828 0.0
C1281 C 0.96366 0.50094 0.42081 0.0
H1282 H 0.04107 0.49461 0.4401 0.0
C1283 C 0.12381 0.62949 0.42442 0.0
C1284 C 0.1541 0.6199 0.4245 0.0
C1285 C 0.08427 0.59989 0.42537 0.0
C1286 C 0.01986 0.49657 0.43458 0.0
H1287 H 0.81615 0.42184 0.42785 0.0
H1288 H 0.88509 0.47541 0.4286 0.0
H1289 H 0.97159 0.44258 0.44104 0.0
H1290 H 0.16677 0.57177 0.42565 0.0
H1291 H 0.0974 0.5198 0.42714 0.0
H1292 H 0.01183 0.55448 0.41421 0.0
C1293 C 0.87888 0.44504 0.42839 0.0
C1294 C 0.98013 0.4669 0.43515 0.0
C1295 C 0.83947 0.4144 0.42802 0.0
C1296 C 0.14406 0.58007 0.42561 0.0
C1297 C 0.10438 0.55036 0.42652 0.0
C1298 C 0.00337 0.53051 0.42022 0.0
C1299 C 0.9099 0.43649 0.42844 0.0
C1300 C 0.95169 0.46876 0.42824 0.0
C1301 C 0.07408 0.55999 0.42636 0.0
C1302 C 0.03191 0.52861 0.42708 0.0
H1303 H 0.85558 0.33596 0.42757 0.0
H1304 H 0.92417 0.38939 0.42819 0.0
H1305 H 0.94246 0.50276 0.41525 0.0
H1306 H 0.13057 0.65995 0.42365 0.0
H1307 H 0.06167 0.60832 0.42541 0.0
C1308 C 0.49581 0.12887 0.75791 0.0
C1309 C 0.53575 0.15909 0.75816 0.0
C1310 C 0.48579 0.08921 0.7582 0.0
C1311 C 0.52493 0.02389 0.75151 0.0
H1312 H 0.43879 0.94838 0.77052 0.0
C1313 C 0.4919 0.8641 0.75698 0.0
C1314 C 0.452 0.83379 0.75693 0.0
C1315 C 0.50176 0.90368 0.75741 0.0
C1316 C 0.46258 0.96904 0.76507 0.0
H1317 H 0.59654 0.1715 0.75898 0.0
H1318 H 0.57889 0.10186 0.7595 0.0
H1319 H 0.45749 0.01824 0.771 0.0
H1320 H 0.39111 0.82112 0.7573 0.0
H1321 H 0.40844 0.89068 0.7579 0.0
H1322 H 0.52983 0.97481 0.74547 0.0
C1323 C 0.55544 0.10906 0.75902 0.0
C1324 C 0.47335 0.00899 0.76537 0.0
C1325 C 0.56551 0.14885 0.75879 0.0
C1326 C 0.42211 0.84387 0.75738 0.0
C1327 C 0.43203 0.88363 0.75777 0.0
C1328 C 0.51408 0.98396 0.75118 0.0
C1329 C 0.51548 0.07891 0.7587 0.0
C1330 C 0.50465 0.03676 0.7586 0.0
C1331 C 0.47199 0.91392 0.75774 0.0
C1332 C 0.48286 0.95614 0.75797 0.0
H1333 H 0.47216 0.13579 0.75743 0.0
H1334 H 0.45479 0.06656 0.75781 0.0
H1335 H 0.54872 0.04458 0.74606 0.0
H1336 H 0.51568 0.85735 0.75673 0.0
H1337 H 0.5328 0.9263 0.75759 0.0
C1338 C 0.42337 0.57767 0.56401 0.0
C1339 C 0.45372 0.61751 0.5641 0.0
C1340 C 0.43263 0.54738 0.56384 0.0
C1341 C 0.51241 0.52637 0.55693 0.0
H1342 H 0.45831 0.43964 0.57824 0.0
C1343 C 0.56388 0.41345 0.56601 0.0
C1344 C 0.53407 0.37366 0.56722 0.0
C1345 C 0.55397 0.44324 0.56528 0.0
C1346 C 0.47334 0.46339 0.57214 0.0
H1347 H 0.51751 0.65693 0.56387 0.0
H1348 H 0.53352 0.6041 0.56359 0.0
H1349 H 0.44018 0.49101 0.57721 0.0
H1350 H 0.47051 0.33377 0.56845 0.0
H1351 H 0.45335 0.38552 0.56699 0.0
H1352 H 0.54555 0.49873 0.55184 0.0
C1353 C 0.50264 0.59627 0.56358 0.0
C1354 C 0.46292 0.49275 0.57155 0.0
C1355 C 0.49343 0.6265 0.56382 0.0
C1356 C 0.49423 0.36419 0.5676 0.0
C1357 C 0.48437 0.39387 0.56682 0.0
C1358 C 0.52274 0.4969 0.55748 0.0
C1359 C 0.47237 0.55644 0.56368 0.0
C1360 C 0.48243 0.52457 0.56397 0.0
C1361 C 0.5141 0.43372 0.56571 0.0
C1362 C 0.50334 0.46514 0.56511 0.0
H1363 H 0.3925 0.56986 0.56424 0.0
H1364 H 0.40873 0.51686 0.56382 0.0
H1365 H 0.52765 0.55041 0.55093 0.0
H1366 H 0.59485 0.42164 0.56575 0.0
H1367 H 0.57757 0.47376 0.56456 0.0
C1368 C 0.12675 0.50245 0.89868 0.0
C1369 C 0.15772 0.54207 0.89857 0.0
C1370 C 0.08744 0.49347 0.89809 0.0
C1371 C 0.02351 0.53469 0.90416 0.0
H1372 H 0.94804 0.44842 0.88514 0.0
C1373 C 0.86258 0.49966 0.89919 0.0
C1374 C 0.83284 0.45953 0.89939 0.0
C1375 C 0.90236 0.5103 0.8985 0.0
C1376 C 0.96869 0.47231 0.89057 0.0
H1377 H 0.17183 0.60337 0.89768 0.0
H1378 H 0.10273 0.58755 0.89665 0.0
H1379 H 0.01779 0.46679 0.88481 0.0
H1380 H 0.82141 0.39905 0.89898 0.0
H1381 H 0.89121 0.41771 0.89793 0.0
H1382 H 0.97445 0.53986 0.91008 0.0
C1383 C 0.1091 0.56355 0.89724 0.0
C1384 C 0.00859 0.48289 0.89036 0.0
C1385 C 0.14858 0.57257 0.89778 0.0
C1386 C 0.84368 0.43021 0.89879 0.0
C1387 C 0.88361 0.4409 0.89814 0.0
C1388 C 0.98361 0.52403 0.90441 0.0
C1389 C 0.0782 0.5239 0.89741 0.0
C1390 C 0.03632 0.51403 0.8972 0.0
C1391 C 0.91335 0.48108 0.89805 0.0
C1392 C 0.95576 0.49262 0.89765 0.0
H1393 H 0.1328 0.47823 0.89928 0.0
H1394 H 0.06421 0.46268 0.89839 0.0
H1395 H 0.04416 0.55841 0.90964 0.0
H1396 H 0.85519 0.523 0.89955 0.0
H1397 H 0.92453 0.54148 0.89825 0.0
C1398 C 0.41387 0.84286 0.23086 0.0
C1399 C 0.37385 0.83274 0.23089 0.0
C1400 C 0.44373 0.88262 0.23077 0.0
C1401 C 0.46327 0.98308 0.22405 0.0
H1402 H 0.54986 0.01635 0.24548 0.0
C1403 C 0.5753 0.14786 0.2332 0.0
C1404 C 0.61518 0.15803 0.23428 0.0
C1405 C 0.54558 0.10808 0.23256 0.0
C1406 C 0.52612 0.00746 0.23935 0.0
H1407 H 0.33367 0.85619 0.2306 0.0
H1408 H 0.38574 0.92536 0.23046 0.0
H1409 H 0.49916 0.94661 0.24431 0.0
H1410 H 0.65526 0.13456 0.23541 0.0
H1411 H 0.60368 0.06559 0.23412 0.0
H1412 H 0.49028 0.04394 0.21908 0.0
C1413 C 0.39405 0.90266 0.23045 0.0
C1414 C 0.49715 0.96754 0.23868 0.0
C1415 C 0.36426 0.86303 0.2306 0.0
C1416 C 0.62479 0.12775 0.23466 0.0
C1417 C 0.5952 0.08815 0.23398 0.0
C1418 C 0.49234 0.02302 0.2247 0.0
C1419 C 0.43404 0.91286 0.23063 0.0
C1420 C 0.46544 0.95498 0.23104 0.0
C1421 C 0.55528 0.07785 0.23297 0.0
C1422 C 0.52405 0.03561 0.23236 0.0
H1423 H 0.42215 0.82014 0.2311 0.0
H1424 H 0.47439 0.88972 0.23082 0.0
H1425 H 0.43929 0.97409 0.21801 0.0
H1426 H 0.56701 0.17056 0.23294 0.0
H1427 H 0.515 0.10098 0.23191 0.0
loop_
_geom_bond_atom_site_label_1
_geom_bond_atom_site_label_2
_geom_bond_distance
_geom_bond_site_symmetry_2
_ccdc_geom_bond_type
Co0 O2 2.143 . S
Co0 O8 2.074 . S
Co0 O11 2.093 . S
Co0 O24 2.097 . S
Co0 N41 2.151 . S
Co0 N49 2.214 . S
Co1 O2 2.160 . S
Co1 O7 2.058 . S
Co1 O17 2.057 . S
Co1 O32 2.037 . S
Co1 N36 2.145 . S
Co1 N57 2.257 . S
O2 Co0 2.143 . S
O2 Co1 2.160 . S
C3 O4 1.278 . S
C3 O11 1.224 . S
O4 C3 1.278 . S
C5 O6 1.245 . S
C5 O17 1.232 . S
O6 C5 1.245 . S
O7 Co1 2.058 . S
O7 C33 1.269 . S
O8 Co0 2.074 . S
O8 C33 1.257 . S
H9 C34 0.930 . S
H10 C40 0.930 . S
O11 Co0 2.093 . S
O11 C3 1.224 . S
H12 C44 0.929 . S
H13 C46 0.930 . S
H14 C47 0.930 . S
H15 C45 0.929 . S
H16 C48 0.928 . S
O17 Co1 2.057 . S
O17 C5 1.232 . S
H18 C37 0.929 . S
H19 C38 0.929 . S
H20 C50 0.931 . S
H21 C42 0.929 . S
H22 C51 0.930 . S
H23 C43 0.931 . S
O24 Co0 2.097 . S
O24 C52 1.214 . S
H25 C53 0.929 . S
H26 C54 0.929 . S
H27 C55 0.930 . S
H28 C56 0.929 . S
H29 C58 0.930 . S
H30 C35 0.930 . S
H31 C39 0.930 . S
O32 Co1 2.037 . S
O32 C52 1.234 . S
C33 O7 1.269 . S
C33 O8 1.257 . S
C34 H9 0.930 . S
C34 C37 1.388 . S
C34 C39 1.418 . S
C35 H30 0.930 . S
C35 C38 1.404 . S
C35 C39 1.353 . S
N36 Co1 2.145 . S
N36 C37 1.397 . S
N36 C38 1.334 . S
C37 H18 0.929 . S
C37 C34 1.388 . S
C37 N36 1.397 . S
C38 H19 0.929 . S
C38 C35 1.404 . S
C38 N36 1.334 . S
C39 H31 0.930 . S
C39 C34 1.418 . S
C39 C35 1.353 . S
C40 H10 0.930 . S
C40 N41 1.330 . S
C40 C42 1.446 . S
N41 Co0 2.151 . S
N41 C40 1.330 . S
N41 C45 1.418 . S
C42 H21 0.929 . S
C42 C40 1.446 . S
C42 C43 1.332 . S
C43 H23 0.931 . S
C43 C42 1.332 . S
C43 C44 1.267 . S
C44 H12 0.929 . S
C44 C43 1.267 . S
C44 C45 1.251 . S
C45 H15 0.929 . S
C45 N41 1.418 . S
C45 C44 1.251 . S
C46 H13 0.930 . S
C46 C48 1.406 . S
C46 C51 1.261 . S
C47 H14 0.930 . S
C47 N49 1.325 . S
C47 C50 1.357 . S
C48 H16 0.928 . S
C48 C46 1.406 . S
C48 N49 1.261 . S
N49 Co0 2.214 . S
N49 C47 1.325 . S
N49 C48 1.261 . S
C50 H20 0.931 . S
C50 C47 1.357 . S
C50 C51 1.312 . S
C51 H22 0.930 . S
C51 C46 1.261 . S
C51 C50 1.312 . S
C52 O24 1.214 . S
C52 O32 1.234 . S
C53 H25 0.929 . S
C53 C56 1.391 . S
C53 C58 1.391 . S
C54 H26 0.929 . S
C54 C55 1.390 . S
C54 N57 1.391 . S
C55 H27 0.930 . S
C55 C54 1.390 . S
C55 C56 1.392 . S
C56 H28 0.929 . S
C56 C53 1.391 . S
C56 C55 1.392 . S
N57 Co1 2.257 . S
N57 C54 1.391 . S
N57 C58 1.388 . S
C58 H29 0.930 . S
C58 C53 1.391 . S
C58 N57 1.388 . S
Co59 O61 2.143 . S
Co59 O67 2.074 . S
Co59 O70 2.093 . S
Co59 O83 2.097 . S
Co59 N100 2.151 . S
Co59 N108 2.214 . S
Co60 O61 2.160 . S
Co60 O66 2.058 . S
Co60 O76 2.057 . S
Co60 O91 2.037 . S
Co60 N95 2.145 . S
Co60 N116 2.257 . S
O61 Co59 2.143 . S
O61 Co60 2.160 . S
C62 O63 1.278 . S
C62 O70 1.224 . S
O63 C62 1.278 . S
C64 O65 1.245 . S
C64 O76 1.232 . S
O65 C64 1.245 . S
O66 Co60 2.058 . S
O66 C92 1.269 . S
O67 Co59 2.074 . S
O67 C92 1.257 . S
H68 C93 0.930 . S
H69 C99 0.930 . S
O70 Co59 2.093 . S
O70 C62 1.224 . S
H71 C103 0.929 . S
H72 C105 0.930 . S
H73 C106 0.930 . S
H74 C104 0.929 . S
H75 C107 0.928 . S
O76 Co60 2.057 . S
O76 C64 1.232 . S
H77 C96 0.929 . S
H78 C97 0.929 . S
H79 C109 0.931 . S
H80 C101 0.929 . S
H81 C110 0.930 . S
H82 C102 0.931 . S
O83 Co59 2.097 . S
O83 C111 1.214 . S
H84 C112 0.929 . S
H85 C113 0.929 . S
H86 C114 0.930 . S
H87 C115 0.929 . S
H88 C117 0.930 . S
H89 C94 0.930 . S
H90 C98 0.930 . S
O91 Co60 2.037 . S
O91 C111 1.234 . S
C92 O66 1.269 . S
C92 O67 1.257 . S
C93 H68 0.930 . S
C93 C96 1.388 . S
C93 C98 1.418 . S
C94 H89 0.930 . S
C94 C97 1.404 . S
C94 C98 1.353 . S
N95 Co60 2.145 . S
N95 C96 1.397 . S
N95 C97 1.334 . S
C96 H77 0.929 . S
C96 C93 1.388 . S
C96 N95 1.397 . S
C97 H78 0.929 . S
C97 C94 1.404 . S
C97 N95 1.334 . S
C98 H90 0.930 . S
C98 C93 1.418 . S
C98 C94 1.353 . S
C99 H69 0.930 . S
C99 N100 1.330 . S
C99 C101 1.446 . S
N100 Co59 2.151 . S
N100 C99 1.330 . S
N100 C104 1.418 . S
C101 H80 0.929 . S
C101 C99 1.446 . S
C101 C102 1.332 . S
C102 H82 0.931 . S
C102 C101 1.332 . S
C102 C103 1.267 . S
C103 H71 0.929 . S
C103 C102 1.267 . S
C103 C104 1.251 . S
C104 H74 0.929 . S
C104 N100 1.418 . S
C104 C103 1.251 . S
C105 H72 0.930 . S
C105 C107 1.406 . S
C105 C110 1.261 . S
C106 H73 0.930 . S
C106 N108 1.325 . S
C106 C109 1.357 . S
C107 H75 0.928 . S
C107 C105 1.406 . S
C107 N108 1.261 . S
N108 Co59 2.214 . S
N108 C106 1.325 . S
N108 C107 1.261 . S
C109 H79 0.931 . S
C109 C106 1.357 . S
C109 C110 1.312 . S
C110 H81 0.930 . S
C110 C105 1.261 . S
C110 C109 1.312 . S
C111 O83 1.214 . S
C111 O91 1.234 . S
C112 H84 0.929 . S
C112 C115 1.391 . S
C112 C117 1.391 . S
C113 H85 0.929 . S
C113 C114 1.390 . S
C113 N116 1.391 . S
C114 H86 0.930 . S
C114 C113 1.390 . S
C114 C115 1.392 . S
C115 H87 0.929 . S
C115 C112 1.391 . S
C115 C114 1.392 . S
N116 Co60 2.257 . S
N116 C113 1.391 . S
N116 C117 1.388 . S
C117 H88 0.930 . S
C117 C112 1.391 . S
C117 N116 1.388 . S
Co118 O120 2.143 . S
Co118 O126 2.074 . S
Co118 O129 2.093 . S
Co118 O142 2.097 . S
Co118 N159 2.151 . S
Co118 N167 2.214 . S
Co119 O120 2.160 . S
Co119 O125 2.058 . S
Co119 O135 2.057 . S
Co119 O150 2.037 . S
Co119 N154 2.145 . S
Co119 N175 2.257 . S
O120 Co118 2.143 . S
O120 Co119 2.160 . S
C121 O122 1.278 . S
C121 O129 1.224 . S
O122 C121 1.278 . S
C123 O124 1.245 . S
C123 O135 1.232 . S
O124 C123 1.245 . S
O125 Co119 2.058 . S
O125 C151 1.269 . S
O126 Co118 2.074 . S
O126 C151 1.257 . S
H127 C152 0.930 . S
H128 C158 0.930 . S
O129 Co118 2.093 . S
O129 C121 1.224 . S
H130 C162 0.929 . S
H131 C164 0.930 . S
H132 C165 0.930 . S
H133 C163 0.929 . S
H134 C166 0.928 . S
O135 Co119 2.057 . S
O135 C123 1.232 . S
H136 C155 0.929 . S
H137 C156 0.929 . S
H138 C168 0.931 . S
H139 C160 0.929 . S
H140 C169 0.930 . S
H141 C161 0.931 . S
O142 Co118 2.097 . S
O142 C170 1.214 . S
H143 C171 0.929 . S
H144 C172 0.929 . S
H145 C173 0.930 . S
H146 C174 0.929 . S
H147 C176 0.930 . S
H148 C153 0.930 . S
H149 C157 0.930 . S
O150 Co119 2.037 . S
O150 C170 1.234 . S
C151 O125 1.269 . S
C151 O126 1.257 . S
C152 H127 0.930 . S
C152 C155 1.388 . S
C152 C157 1.418 . S
C153 H148 0.930 . S
C153 C156 1.404 . S
C153 C157 1.353 . S
N154 Co119 2.145 . S
N154 C155 1.397 . S
N154 C156 1.334 . S
C155 H136 0.929 . S
C155 C152 1.388 . S
C155 N154 1.397 . S
C156 H137 0.929 . S
C156 C153 1.404 . S
C156 N154 1.334 . S
C157 H149 0.930 . S
C157 C152 1.418 . S
C157 C153 1.353 . S
C158 H128 0.930 . S
C158 N159 1.330 . S
C158 C160 1.446 . S
N159 Co118 2.151 . S
N159 C158 1.330 . S
N159 C163 1.418 . S
C160 H139 0.929 . S
C160 C158 1.446 . S
C160 C161 1.332 . S
C161 H141 0.931 . S
C161 C160 1.332 . S
C161 C162 1.267 . S
C162 H130 0.929 . S
C162 C161 1.267 . S
C162 C163 1.251 . S
C163 H133 0.929 . S
C163 N159 1.418 . S
C163 C162 1.251 . S
C164 H131 0.930 . S
C164 C166 1.406 . S
C164 C169 1.261 . S
C165 H132 0.930 . S
C165 N167 1.325 . S
C165 C168 1.357 . S
C166 H134 0.928 . S
C166 C164 1.406 . S
C166 N167 1.261 . S
N167 Co118 2.214 . S
N167 C165 1.325 . S
N167 C166 1.261 . S
C168 H138 0.931 . S
C168 C165 1.357 . S
C168 C169 1.312 . S
C169 H140 0.930 . S
C169 C164 1.261 . S
C169 C168 1.312 . S
C170 O142 1.214 . S
C170 O150 1.234 . S
C171 H143 0.929 . S
C171 C174 1.391 . S
C171 C176 1.391 . S
C172 H144 0.929 . S
C172 C173 1.390 . S
C172 N175 1.391 . S
C173 H145 0.930 . S
C173 C172 1.390 . S
C173 C174 1.392 . S
C174 H146 0.929 . S
C174 C171 1.391 . S
C174 C173 1.392 . S
N175 Co119 2.257 . S
N175 C172 1.391 . S
N175 C176 1.388 . S
C176 H147 0.930 . S
C176 C171 1.391 . S
C176 N175 1.388 . S
Co177 O179 2.143 . S
Co177 O185 2.074 . S
Co177 O188 2.093 . S
Co177 O201 2.097 . S
Co177 N218 2.151 . S
Co177 N226 2.214 . S
Co178 O179 2.160 . S
Co178 O184 2.058 . S
Co178 O194 2.057 . S
Co178 O209 2.037 . S
Co178 N213 2.145 . S
Co178 N234 2.257 . S
O179 Co177 2.143 . S
O179 Co178 2.160 . S
C180 O181 1.278 . S
C180 O188 1.224 . S
O181 C180 1.278 . S
C182 O183 1.245 . S
C182 O194 1.232 . S
O183 C182 1.245 . S
O184 Co178 2.058 . S
O184 C210 1.269 . S
O185 Co177 2.074 . S
O185 C210 1.257 . S
H186 C211 0.930 . S
H187 C217 0.930 . S
O188 Co177 2.093 . S
O188 C180 1.224 . S
H189 C221 0.929 . S
H190 C223 0.930 . S
H191 C224 0.930 . S
H192 C222 0.929 . S
H193 C225 0.928 . S
O194 Co178 2.057 . S
O194 C182 1.232 . S
H195 C214 0.929 . S
H196 C215 0.929 . S
H197 C227 0.931 . S
H198 C219 0.929 . S
H199 C228 0.930 . S
H200 C220 0.931 . S
O201 Co177 2.097 . S
O201 C229 1.214 . S
H202 C230 0.929 . S
H203 C231 0.929 . S
H204 C232 0.930 . S
H205 C233 0.929 . S
H206 C235 0.930 . S
H207 C212 0.930 . S
H208 C216 0.930 . S
O209 Co178 2.037 . S
O209 C229 1.234 . S
C210 O184 1.269 . S
C210 O185 1.257 . S
C211 H186 0.930 . S
C211 C214 1.388 . S
C211 C216 1.418 . S
C212 H207 0.930 . S
C212 C215 1.404 . S
C212 C216 1.353 . S
N213 Co178 2.145 . S
N213 C214 1.397 . S
N213 C215 1.334 . S
C214 H195 0.929 . S
C214 C211 1.388 . S
C214 N213 1.397 . S
C215 H196 0.929 . S
C215 C212 1.404 . S
C215 N213 1.334 . S
C216 H208 0.930 . S
C216 C211 1.418 . S
C216 C212 1.353 . S
C217 H187 0.930 . S
C217 N218 1.330 . S
C217 C219 1.446 . S
N218 Co177 2.151 . S
N218 C217 1.330 . S
N218 C222 1.418 . S
C219 H198 0.929 . S
C219 C217 1.446 . S
C219 C220 1.332 . S
C220 H200 0.931 . S
C220 C219 1.332 . S
C220 C221 1.267 . S
C221 H189 0.929 . S
C221 C220 1.267 . S
C221 C222 1.251 . S
C222 H192 0.929 . S
C222 N218 1.418 . S
C222 C221 1.251 . S
C223 H190 0.930 . S
C223 C225 1.406 . S
C223 C228 1.261 . S
C224 H191 0.930 . S
C224 N226 1.325 . S
C224 C227 1.357 . S
C225 H193 0.928 . S
C225 C223 1.406 . S
C225 N226 1.261 . S
N226 Co177 2.214 . S
N226 C224 1.325 . S
N226 C225 1.261 . S
C227 H197 0.931 . S
C227 C224 1.357 . S
C227 C228 1.312 . S
C228 H199 0.930 . S
C228 C223 1.261 . S
C228 C227 1.312 . S
C229 O201 1.214 . S
C229 O209 1.234 . S
C230 H202 0.929 . S
C230 C233 1.391 . S
C230 C235 1.391 . S
C231 H203 0.929 . S
C231 C232 1.390 . S
C231 N234 1.391 . S
C232 H204 0.930 . S
C232 C231 1.390 . S
C232 C233 1.392 . S
C233 H205 0.929 . S
C233 C230 1.391 . S
C233 C232 1.392 . S
N234 Co178 2.257 . S
N234 C231 1.391 . S
N234 C235 1.388 . S
C235 H206 0.930 . S
C235 C230 1.391 . S
C235 N234 1.388 . S
Co236 O238 2.143 . S
Co236 O244 2.074 . S
Co236 O247 2.093 . S
Co236 O260 2.097 . S
Co236 N277 2.151 . S
Co236 N285 2.214 . S
Co237 O238 2.160 . S
Co237 O243 2.058 . S
Co237 O253 2.057 . S
Co237 O268 2.037 . S
Co237 N272 2.145 . S
Co237 N293 2.257 . S
O238 Co236 2.143 . S
O238 Co237 2.160 . S
C239 O240 1.278 . S
C239 O247 1.224 . S
O240 C239 1.278 . S
C241 O242 1.245 . S
C241 O253 1.232 . S
O242 C241 1.245 . S
O243 Co237 2.058 . S
O243 C269 1.269 . S
O244 Co236 2.074 . S
O244 C269 1.257 . S
H245 C270 0.930 . S
H246 C276 0.930 . S
O247 Co236 2.093 . S
O247 C239 1.224 . S
H248 C280 0.929 . S
H249 C282 0.930 . S
H250 C283 0.930 . S
H251 C281 0.929 . S
H252 C284 0.928 . S
O253 Co237 2.057 . S
O253 C241 1.232 . S
H254 C273 0.929 . S
H255 C274 0.929 . S
H256 C286 0.931 . S
H257 C278 0.929 . S
H258 C287 0.930 . S
H259 C279 0.931 . S
O260 Co236 2.097 . S
O260 C288 1.214 . S
H261 C289 0.929 . S
H262 C290 0.929 . S
H263 C291 0.930 . S
H264 C292 0.929 . S
H265 C294 0.930 . S
H266 C271 0.930 . S
H267 C275 0.930 . S
O268 Co237 2.037 . S
O268 C288 1.234 . S
C269 O243 1.269 . S
C269 O244 1.257 . S
C270 H245 0.930 . S
C270 C273 1.388 . S
C270 C275 1.418 . S
C271 H266 0.930 . S
C271 C274 1.404 . S
C271 C275 1.353 . S
N272 Co237 2.145 . S
N272 C273 1.397 . S
N272 C274 1.334 . S
C273 H254 0.929 . S
C273 C270 1.388 . S
C273 N272 1.397 . S
C274 H255 0.929 . S
C274 C271 1.404 . S
C274 N272 1.334 . S
C275 H267 0.930 . S
C275 C270 1.418 . S
C275 C271 1.353 . S
C276 H246 0.930 . S
C276 N277 1.330 . S
C276 C278 1.446 . S
N277 Co236 2.151 . S
N277 C276 1.330 . S
N277 C281 1.418 . S
C278 H257 0.929 . S
C278 C276 1.446 . S
C278 C279 1.332 . S
C279 H259 0.931 . S
C279 C278 1.332 . S
C279 C280 1.267 . S
C280 H248 0.929 . S
C280 C279 1.267 . S
C280 C281 1.251 . S
C281 H251 0.929 . S
C281 N277 1.418 . S
C281 C280 1.251 . S
C282 H249 0.930 . S
C282 C284 1.406 . S
C282 C287 1.261 . S
C283 H250 0.930 . S
C283 N285 1.325 . S
C283 C286 1.357 . S
C284 H252 0.928 . S
C284 C282 1.406 . S
C284 N285 1.261 . S
N285 Co236 2.214 . S
N285 C283 1.325 . S
N285 C284 1.261 . S
C286 H256 0.931 . S
C286 C283 1.357 . S
C286 C287 1.312 . S
C287 H258 0.930 . S
C287 C282 1.261 . S
C287 C286 1.312 . S
C288 O260 1.214 . S
C288 O268 1.234 . S
C289 H261 0.929 . S
C289 C292 1.391 . S
C289 C294 1.391 . S
C290 H262 0.929 . S
C290 C291 1.390 . S
C290 N293 1.391 . S
C291 H263 0.930 . S
C291 C290 1.390 . S
C291 C292 1.392 . S
C292 H264 0.929 . S
C292 C289 1.391 . S
C292 C291 1.392 . S
N293 Co237 2.257 . S
N293 C290 1.391 . S
N293 C294 1.388 . S
C294 H265 0.930 . S
C294 C289 1.391 . S
C294 N293 1.388 . S
Co295 O297 2.143 . S
Co295 O303 2.074 . S
Co295 O306 2.093 . S
Co295 O319 2.097 . S
Co295 N336 2.151 . S
Co295 N344 2.214 . S
Co296 O297 2.160 . S
Co296 O302 2.058 . S
Co296 O312 2.057 . S
Co296 O327 2.037 . S
Co296 N331 2.145 . S
Co296 N352 2.257 . S
O297 Co295 2.143 . S
O297 Co296 2.160 . S
C298 O299 1.278 . S
C298 O306 1.224 . S
O299 C298 1.278 . S
C300 O301 1.245 . S
C300 O312 1.232 . S
O301 C300 1.245 . S
O302 Co296 2.058 . S
O302 C328 1.269 . S
O303 Co295 2.074 . S
O303 C328 1.257 . S
H304 C329 0.930 . S
H305 C335 0.930 . S
O306 Co295 2.093 . S
O306 C298 1.224 . S
H307 C339 0.929 . S
H308 C341 0.930 . S
H309 C342 0.930 . S
H310 C340 0.929 . S
H311 C343 0.928 . S
O312 Co296 2.057 . S
O312 C300 1.232 . S
H313 C332 0.929 . S
H314 C333 0.929 . S
H315 C345 0.931 . S
H316 C337 0.929 . S
H317 C346 0.930 . S
H318 C338 0.931 . S
O319 Co295 2.097 . S
O319 C347 1.214 . S
H320 C348 0.929 . S
H321 C349 0.929 . S
H322 C350 0.930 . S
H323 C351 0.929 . S
H324 C353 0.930 . S
H325 C330 0.930 . S
H326 C334 0.930 . S
O327 Co296 2.037 . S
O327 C347 1.234 . S
C328 O302 1.269 . S
C328 O303 1.257 . S
C329 H304 0.930 . S
C329 C332 1.388 . S
C329 C334 1.418 . S
C330 H325 0.930 . S
C330 C333 1.404 . S
C330 C334 1.353 . S
N331 Co296 2.145 . S
N331 C332 1.397 . S
N331 C333 1.334 . S
C332 H313 0.929 . S
C332 C329 1.388 . S
C332 N331 1.397 . S
C333 H314 0.929 . S
C333 C330 1.404 . S
C333 N331 1.334 . S
C334 H326 0.930 . S
C334 C329 1.418 . S
C334 C330 1.353 . S
C335 H305 0.930 . S
C335 N336 1.330 . S
C335 C337 1.446 . S
N336 Co295 2.151 . S
N336 C335 1.330 . S
N336 C340 1.418 . S
C337 H316 0.929 . S
C337 C335 1.446 . S
C337 C338 1.332 . S
C338 H318 0.931 . S
C338 C337 1.332 . S
C338 C339 1.267 . S
C339 H307 0.929 . S
C339 C338 1.267 . S
C339 C340 1.251 . S
C340 H310 0.929 . S
C340 N336 1.418 . S
C340 C339 1.251 . S
C341 H308 0.930 . S
C341 C343 1.406 . S
C341 C346 1.261 . S
C342 H309 0.930 . S
C342 N344 1.325 . S
C342 C345 1.357 . S
C343 H311 0.928 . S
C343 C341 1.406 . S
C343 N344 1.261 . S
N344 Co295 2.214 . S
N344 C342 1.325 . S
N344 C343 1.261 . S
C345 H315 0.931 . S
C345 C342 1.357 . S
C345 C346 1.312 . S
C346 H317 0.930 . S
C346 C341 1.261 . S
C346 C345 1.312 . S
C347 O319 1.214 . S
C347 O327 1.234 . S
C348 H320 0.929 . S
C348 C351 1.391 . S
C348 C353 1.391 . S
C349 H321 0.929 . S
C349 C350 1.390 . S
C349 N352 1.391 . S
C350 H322 0.930 . S
C350 C349 1.390 . S
C350 C351 1.392 . S
C351 H323 0.929 . S
C351 C348 1.391 . S
C351 C350 1.392 . S
N352 Co296 2.257 . S
N352 C349 1.391 . S
N352 C353 1.388 . S
C353 H324 0.930 . S
C353 C348 1.391 . S
C353 N352 1.388 . S
Co354 O356 2.143 . S
Co354 O362 2.074 . S
Co354 O365 2.093 . S
Co354 O378 2.097 . S
Co354 N395 2.151 . S
Co354 N403 2.214 . S
Co355 O356 2.160 . S
Co355 O361 2.058 . S
Co355 O371 2.057 . S
Co355 O386 2.037 . S
Co355 N390 2.145 . S
Co355 N411 2.257 . S
O356 Co354 2.143 . S
O356 Co355 2.160 . S
C357 O358 1.278 . S
C357 O365 1.224 . S
O358 C357 1.278 . S
C359 O360 1.245 . S
C359 O371 1.232 . S
O360 C359 1.245 . S
O361 Co355 2.058 . S
O361 C387 1.269 . S
O362 Co354 2.074 . S
O362 C387 1.257 . S
H363 C388 0.930 . S
H364 C394 0.930 . S
O365 Co354 2.093 . S
O365 C357 1.224 . S
H366 C398 0.929 . S
H367 C400 0.930 . S
H368 C401 0.930 . S
H369 C399 0.929 . S
H370 C402 0.928 . S
O371 Co355 2.057 . S
O371 C359 1.232 . S
H372 C391 0.929 . S
H373 C392 0.929 . S
H374 C404 0.931 . S
H375 C396 0.929 . S
H376 C405 0.930 . S
H377 C397 0.931 . S
O378 Co354 2.097 . S
O378 C406 1.214 . S
H379 C407 0.929 . S
H380 C408 0.929 . S
H381 C409 0.930 . S
H382 C410 0.929 . S
H383 C412 0.930 . S
H384 C389 0.930 . S
H385 C393 0.930 . S
O386 Co355 2.037 . S
O386 C406 1.234 . S
C387 O361 1.269 . S
C387 O362 1.257 . S
C388 H363 0.930 . S
C388 C391 1.388 . S
C388 C393 1.418 . S
C389 H384 0.930 . S
C389 C392 1.404 . S
C389 C393 1.353 . S
N390 Co355 2.145 . S
N390 C391 1.397 . S
N390 C392 1.334 . S
C391 H372 0.929 . S
C391 C388 1.388 . S
C391 N390 1.397 . S
C392 H373 0.929 . S
C392 C389 1.404 . S
C392 N390 1.334 . S
C393 H385 0.930 . S
C393 C388 1.418 . S
C393 C389 1.353 . S
C394 H364 0.930 . S
C394 N395 1.330 . S
C394 C396 1.446 . S
N395 Co354 2.151 . S
N395 C394 1.330 . S
N395 C399 1.418 . S
C396 H375 0.929 . S
C396 C394 1.446 . S
C396 C397 1.332 . S
C397 H377 0.931 . S
C397 C396 1.332 . S
C397 C398 1.267 . S
C398 H366 0.929 . S
C398 C397 1.267 . S
C398 C399 1.251 . S
C399 H369 0.929 . S
C399 N395 1.418 . S
C399 C398 1.251 . S
C400 H367 0.930 . S
C400 C402 1.406 . S
C400 C405 1.261 . S
C401 H368 0.930 . S
C401 N403 1.325 . S
C401 C404 1.357 . S
C402 H370 0.928 . S
C402 C400 1.406 . S
C402 N403 1.261 . S
N403 Co354 2.214 . S
N403 C401 1.325 . S
N403 C402 1.261 . S
C404 H374 0.931 . S
C404 C401 1.357 . S
C404 C405 1.312 . S
C405 H376 0.930 . S
C405 C400 1.261 . S
C405 C404 1.312 . S
C406 O378 1.214 . S
C406 O386 1.234 . S
C407 H379 0.929 . S
C407 C410 1.391 . S
C407 C412 1.391 . S
C408 H380 0.929 . S
C408 C409 1.390 . S
C408 N411 1.391 . S
C409 H381 0.930 . S
C409 C408 1.390 . S
C409 C410 1.392 . S
C410 H382 0.929 . S
C410 C407 1.391 . S
C410 C409 1.392 . S
N411 Co355 2.257 . S
N411 C408 1.391 . S
N411 C412 1.388 . S
C412 H383 0.930 . S
C412 C407 1.391 . S
C412 N411 1.388 . S
Co413 O415 2.143 . S
Co413 O421 2.074 . S
Co413 O424 2.093 . S
Co413 O437 2.097 . S
Co413 N454 2.151 . S
Co413 N462 2.214 . S
Co414 O415 2.160 . S
Co414 O420 2.058 . S
Co414 O430 2.057 . S
Co414 O445 2.037 . S
Co414 N449 2.145 . S
Co414 N470 2.257 . S
O415 Co413 2.143 . S
O415 Co414 2.160 . S
C416 O417 1.278 . S
C416 O424 1.224 . S
O417 C416 1.278 . S
C418 O419 1.245 . S
C418 O430 1.232 . S
O419 C418 1.245 . S
O420 Co414 2.058 . S
O420 C446 1.269 . S
O421 Co413 2.074 . S
O421 C446 1.257 . S
H422 C447 0.930 . S
H423 C453 0.930 . S
O424 Co413 2.093 . S
O424 C416 1.224 . S
H425 C457 0.929 . S
H426 C459 0.930 . S
H427 C460 0.930 . S
H428 C458 0.929 . S
H429 C461 0.928 . S
O430 Co414 2.057 . S
O430 C418 1.232 . S
H431 C450 0.929 . S
H432 C451 0.929 . S
H433 C463 0.931 . S
H434 C455 0.929 . S
H435 C464 0.930 . S
H436 C456 0.931 . S
O437 Co413 2.097 . S
O437 C465 1.214 . S
H438 C466 0.929 . S
H439 C467 0.929 . S
H440 C468 0.930 . S
H441 C469 0.929 . S
H442 C471 0.930 . S
H443 C448 0.930 . S
H444 C452 0.930 . S
O445 Co414 2.037 . S
O445 C465 1.234 . S
C446 O420 1.269 . S
C446 O421 1.257 . S
C447 H422 0.930 . S
C447 C450 1.388 . S
C447 C452 1.418 . S
C448 H443 0.930 . S
C448 C451 1.404 . S
C448 C452 1.353 . S
N449 Co414 2.145 . S
N449 C450 1.397 . S
N449 C451 1.334 . S
C450 H431 0.929 . S
C450 C447 1.388 . S
C450 N449 1.397 . S
C451 H432 0.929 . S
C451 C448 1.404 . S
C451 N449 1.334 . S
C452 H444 0.930 . S
C452 C447 1.418 . S
C452 C448 1.353 . S
C453 H423 0.930 . S
C453 N454 1.330 . S
C453 C455 1.446 . S
N454 Co413 2.151 . S
N454 C453 1.330 . S
N454 C458 1.418 . S
C455 H434 0.929 . S
C455 C453 1.446 . S
C455 C456 1.332 . S
C456 H436 0.931 . S
C456 C455 1.332 . S
C456 C457 1.267 . S
C457 H425 0.929 . S
C457 C456 1.267 . S
C457 C458 1.251 . S
C458 H428 0.929 . S
C458 N454 1.418 . S
C458 C457 1.251 . S
C459 H426 0.930 . S
C459 C461 1.406 . S
C459 C464 1.261 . S
C460 H427 0.930 . S
C460 N462 1.325 . S
C460 C463 1.357 . S
C461 H429 0.928 . S
C461 C459 1.406 . S
C461 N462 1.261 . S
N462 Co413 2.214 . S
N462 C460 1.325 . S
N462 C461 1.261 . S
C463 H433 0.931 . S
C463 C460 1.357 . S
C463 C464 1.312 . S
C464 H435 0.930 . S
C464 C459 1.261 . S
C464 C463 1.312 . S
C465 O437 1.214 . S
C465 O445 1.234 . S
C466 H438 0.929 . S
C466 C469 1.391 . S
C466 C471 1.391 . S
C467 H439 0.929 . S
C467 C468 1.390 . S
C467 N470 1.391 . S
C468 H440 0.930 . S
C468 C467 1.390 . S
C468 C469 1.392 . S
C469 H441 0.929 . S
C469 C466 1.391 . S
C469 C468 1.392 . S
N470 Co414 2.257 . S
N470 C467 1.391 . S
N470 C471 1.388 . S
C471 H442 0.930 . S
C471 C466 1.391 . S
C471 N470 1.388 . S
Co472 O474 2.143 . S
Co472 O480 2.074 . S
Co472 O483 2.093 . S
Co472 O496 2.097 . S
Co472 N513 2.151 . S
Co472 N521 2.214 . S
Co473 O474 2.160 . S
Co473 O479 2.058 . S
Co473 O489 2.057 . S
Co473 O504 2.037 . S
Co473 N508 2.145 . S
Co473 N529 2.257 . S
O474 Co472 2.143 . S
O474 Co473 2.160 . S
C475 O476 1.278 . S
C475 O483 1.224 . S
O476 C475 1.278 . S
C477 O478 1.245 . S
C477 O489 1.232 . S
O478 C477 1.245 . S
O479 Co473 2.058 . S
O479 C505 1.269 . S
O480 Co472 2.074 . S
O480 C505 1.257 . S
H481 C506 0.930 . S
H482 C512 0.930 . S
O483 Co472 2.093 . S
O483 C475 1.224 . S
H484 C516 0.929 . S
H485 C518 0.930 . S
H486 C519 0.930 . S
H487 C517 0.929 . S
H488 C520 0.928 . S
O489 Co473 2.057 . S
O489 C477 1.232 . S
H490 C509 0.929 . S
H491 C510 0.929 . S
H492 C522 0.931 . S
H493 C514 0.929 . S
H494 C523 0.930 . S
H495 C515 0.931 . S
O496 Co472 2.097 . S
O496 C524 1.214 . S
H497 C525 0.929 . S
H498 C526 0.929 . S
H499 C527 0.930 . S
H500 C528 0.929 . S
H501 C530 0.930 . S
H502 C507 0.930 . S
H503 C511 0.930 . S
O504 Co473 2.037 . S
O504 C524 1.234 . S
C505 O479 1.269 . S
C505 O480 1.257 . S
C506 H481 0.930 . S
C506 C509 1.388 . S
C506 C511 1.418 . S
C507 H502 0.930 . S
C507 C510 1.404 . S
C507 C511 1.353 . S
N508 Co473 2.145 . S
N508 C509 1.397 . S
N508 C510 1.334 . S
C509 H490 0.929 . S
C509 C506 1.388 . S
C509 N508 1.397 . S
C510 H491 0.929 . S
C510 C507 1.404 . S
C510 N508 1.334 . S
C511 H503 0.930 . S
C511 C506 1.418 . S
C511 C507 1.353 . S
C512 H482 0.930 . S
C512 N513 1.330 . S
C512 C514 1.446 . S
N513 Co472 2.151 . S
N513 C512 1.330 . S
N513 C517 1.418 . S
C514 H493 0.929 . S
C514 C512 1.446 . S
C514 C515 1.332 . S
C515 H495 0.931 . S
C515 C514 1.332 . S
C515 C516 1.267 . S
C516 H484 0.929 . S
C516 C515 1.267 . S
C516 C517 1.251 . S
C517 H487 0.929 . S
C517 N513 1.418 . S
C517 C516 1.251 . S
C518 H485 0.930 . S
C518 C520 1.406 . S
C518 C523 1.261 . S
C519 H486 0.930 . S
C519 N521 1.325 . S
C519 C522 1.357 . S
C520 H488 0.928 . S
C520 C518 1.406 . S
C520 N521 1.261 . S
N521 Co472 2.214 . S
N521 C519 1.325 . S
N521 C520 1.261 . S
C522 H492 0.931 . S
C522 C519 1.357 . S
C522 C523 1.312 . S
C523 H494 0.930 . S
C523 C518 1.261 . S
C523 C522 1.312 . S
C524 O496 1.214 . S
C524 O504 1.234 . S
C525 H497 0.929 . S
C525 C528 1.391 . S
C525 C530 1.391 . S
C526 H498 0.929 . S
C526 C527 1.390 . S
C526 N529 1.391 . S
C527 H499 0.930 . S
C527 C526 1.390 . S
C527 C528 1.392 . S
C528 H500 0.929 . S
C528 C525 1.391 . S
C528 C527 1.392 . S
N529 Co473 2.257 . S
N529 C526 1.391 . S
N529 C530 1.388 . S
C530 H501 0.930 . S
C530 C525 1.391 . S
C530 N529 1.388 . S
Co531 O533 2.143 . S
Co531 O539 2.074 . S
Co531 O542 2.093 . S
Co531 O555 2.097 . S
Co531 N572 2.151 . S
Co531 N580 2.214 . S
Co532 O533 2.160 . S
Co532 O538 2.058 . S
Co532 O548 2.057 . S
Co532 O563 2.037 . S
Co532 N567 2.145 . S
Co532 N588 2.257 . S
O533 Co531 2.143 . S
O533 Co532 2.160 . S
C534 O535 1.278 . S
C534 O542 1.224 . S
O535 C534 1.278 . S
C536 O537 1.245 . S
C536 O548 1.232 . S
O537 C536 1.245 . S
O538 Co532 2.058 . S
O538 C564 1.269 . S
O539 Co531 2.074 . S
O539 C564 1.257 . S
H540 C565 0.930 . S
H541 C571 0.930 . S
O542 Co531 2.093 . S
O542 C534 1.224 . S
H543 C575 0.929 . S
H544 C577 0.930 . S
H545 C578 0.930 . S
H546 C576 0.929 . S
H547 C579 0.928 . S
O548 Co532 2.057 . S
O548 C536 1.232 . S
H549 C568 0.929 . S
H550 C569 0.929 . S
H551 C581 0.931 . S
H552 C573 0.929 . S
H553 C582 0.930 . S
H554 C574 0.931 . S
O555 Co531 2.097 . S
O555 C583 1.214 . S
H556 C584 0.929 . S
H557 C585 0.929 . S
H558 C586 0.930 . S
H559 C587 0.929 . S
H560 C589 0.930 . S
H561 C566 0.930 . S
H562 C570 0.930 . S
O563 Co532 2.037 . S
O563 C583 1.234 . S
C564 O538 1.269 . S
C564 O539 1.257 . S
C565 H540 0.930 . S
C565 C568 1.388 . S
C565 C570 1.418 . S
C566 H561 0.930 . S
C566 C569 1.404 . S
C566 C570 1.353 . S
N567 Co532 2.145 . S
N567 C568 1.397 . S
N567 C569 1.334 . S
C568 H549 0.929 . S
C568 C565 1.388 . S
C568 N567 1.397 . S
C569 H550 0.929 . S
C569 C566 1.404 . S
C569 N567 1.334 . S
C570 H562 0.930 . S
C570 C565 1.418 . S
C570 C566 1.353 . S
C571 H541 0.930 . S
C571 N572 1.330 . S
C571 C573 1.446 . S
N572 Co531 2.151 . S
N572 C571 1.330 . S
N572 C576 1.418 . S
C573 H552 0.929 . S
C573 C571 1.446 . S
C573 C574 1.332 . S
C574 H554 0.931 . S
C574 C573 1.332 . S
C574 C575 1.267 . S
C575 H543 0.929 . S
C575 C574 1.267 . S
C575 C576 1.251 . S
C576 H546 0.929 . S
C576 N572 1.418 . S
C576 C575 1.251 . S
C577 H544 0.930 . S
C577 C579 1.406 . S
C577 C582 1.261 . S
C578 H545 0.930 . S
C578 N580 1.325 . S
C578 C581 1.357 . S
C579 H547 0.928 . S
C579 C577 1.406 . S
C579 N580 1.261 . S
N580 Co531 2.214 . S
N580 C578 1.325 . S
N580 C579 1.261 . S
C581 H551 0.931 . S
C581 C578 1.357 . S
C581 C582 1.312 . S
C582 H553 0.930 . S
C582 C577 1.261 . S
C582 C581 1.312 . S
C583 O555 1.214 . S
C583 O563 1.234 . S
C584 H556 0.929 . S
C584 C587 1.391 . S
C584 C589 1.391 . S
C585 H557 0.929 . S
C585 C586 1.390 . S
C585 N588 1.391 . S
C586 H558 0.930 . S
C586 C585 1.390 . S
C586 C587 1.392 . S
C587 H559 0.929 . S
C587 C584 1.391 . S
C587 C586 1.392 . S
N588 Co532 2.257 . S
N588 C585 1.391 . S
N588 C589 1.388 . S
C589 H560 0.930 . S
C589 C584 1.391 . S
C589 N588 1.388 . S
Co590 O592 2.143 . S
Co590 O598 2.074 . S
Co590 O601 2.093 . S
Co590 O614 2.097 . S
Co590 N631 2.151 . S
Co590 N639 2.214 . S
Co591 O592 2.160 . S
Co591 O597 2.058 . S
Co591 O607 2.057 . S
Co591 O622 2.037 . S
Co591 N626 2.145 . S
Co591 N647 2.257 . S
O592 Co590 2.143 . S
O592 Co591 2.160 . S
C593 O594 1.278 . S
C593 O601 1.224 . S
O594 C593 1.278 . S
C595 O596 1.245 . S
C595 O607 1.232 . S
O596 C595 1.245 . S
O597 Co591 2.058 . S
O597 C623 1.269 . S
O598 Co590 2.074 . S
O598 C623 1.257 . S
H599 C624 0.930 . S
H600 C630 0.930 . S
O601 Co590 2.093 . S
O601 C593 1.224 . S
H602 C634 0.929 . S
H603 C636 0.930 . S
H604 C637 0.930 . S
H605 C635 0.929 . S
H606 C638 0.928 . S
O607 Co591 2.057 . S
O607 C595 1.232 . S
H608 C627 0.929 . S
H609 C628 0.929 . S
H610 C640 0.931 . S
H611 C632 0.929 . S
H612 C641 0.930 . S
H613 C633 0.931 . S
O614 Co590 2.097 . S
O614 C642 1.214 . S
H615 C643 0.929 . S
H616 C644 0.929 . S
H617 C645 0.930 . S
H618 C646 0.929 . S
H619 C648 0.930 . S
H620 C625 0.930 . S
H621 C629 0.930 . S
O622 Co591 2.037 . S
O622 C642 1.234 . S
C623 O597 1.269 . S
C623 O598 1.257 . S
C624 H599 0.930 . S
C624 C627 1.388 . S
C624 C629 1.418 . S
C625 H620 0.930 . S
C625 C628 1.404 . S
C625 C629 1.353 . S
N626 Co591 2.145 . S
N626 C627 1.397 . S
N626 C628 1.334 . S
C627 H608 0.929 . S
C627 C624 1.388 . S
C627 N626 1.397 . S
C628 H609 0.929 . S
C628 C625 1.404 . S
C628 N626 1.334 . S
C629 H621 0.930 . S
C629 C624 1.418 . S
C629 C625 1.353 . S
C630 H600 0.930 . S
C630 N631 1.330 . S
C630 C632 1.446 . S
N631 Co590 2.151 . S
N631 C630 1.330 . S
N631 C635 1.418 . S
C632 H611 0.929 . S
C632 C630 1.446 . S
C632 C633 1.332 . S
C633 H613 0.931 . S
C633 C632 1.332 . S
C633 C634 1.267 . S
C634 H602 0.929 . S
C634 C633 1.267 . S
C634 C635 1.251 . S
C635 H605 0.929 . S
C635 N631 1.418 . S
C635 C634 1.251 . S
C636 H603 0.930 . S
C636 C638 1.406 . S
C636 C641 1.261 . S
C637 H604 0.930 . S
C637 N639 1.325 . S
C637 C640 1.357 . S
C638 H606 0.928 . S
C638 C636 1.406 . S
C638 N639 1.261 . S
N639 Co590 2.214 . S
N639 C637 1.325 . S
N639 C638 1.261 . S
C640 H610 0.931 . S
C640 C637 1.357 . S
C640 C641 1.312 . S
C641 H612 0.930 . S
C641 C636 1.261 . S
C641 C640 1.312 . S
C642 O614 1.214 . S
C642 O622 1.234 . S
C643 H615 0.929 . S
C643 C646 1.391 . S
C643 C648 1.391 . S
C644 H616 0.929 . S
C644 C645 1.390 . S
C644 N647 1.391 . S
C645 H617 0.930 . S
C645 C644 1.390 . S
C645 C646 1.392 . S
C646 H618 0.929 . S
C646 C643 1.391 . S
C646 C645 1.392 . S
N647 Co591 2.257 . S
N647 C644 1.391 . S
N647 C648 1.388 . S
C648 H619 0.930 . S
C648 C643 1.391 . S
C648 N647 1.388 . S
Co649 O651 2.143 . S
Co649 O657 2.074 . S
Co649 O660 2.093 . S
Co649 O673 2.097 . S
Co649 N690 2.151 . S
Co649 N698 2.214 . S
Co650 O651 2.160 . S
Co650 O656 2.058 . S
Co650 O666 2.057 . S
Co650 O681 2.037 . S
Co650 N685 2.145 . S
Co650 N706 2.257 . S
O651 Co649 2.143 . S
O651 Co650 2.160 . S
C652 O653 1.278 . S
C652 O660 1.224 . S
O653 C652 1.278 . S
C654 O655 1.245 . S
C654 O666 1.232 . S
O655 C654 1.245 . S
O656 Co650 2.058 . S
O656 C682 1.269 . S
O657 Co649 2.074 . S
O657 C682 1.257 . S
H658 C683 0.930 . S
H659 C689 0.930 . S
O660 Co649 2.093 . S
O660 C652 1.224 . S
H661 C693 0.929 . S
H662 C695 0.930 . S
H663 C696 0.930 . S
H664 C694 0.929 . S
H665 C697 0.928 . S
O666 Co650 2.057 . S
O666 C654 1.232 . S
H667 C686 0.929 . S
H668 C687 0.929 . S
H669 C699 0.931 . S
H670 C691 0.929 . S
H671 C700 0.930 . S
H672 C692 0.931 . S
O673 Co649 2.097 . S
O673 C701 1.214 . S
H674 C702 0.929 . S
H675 C703 0.929 . S
H676 C704 0.930 . S
H677 C705 0.929 . S
H678 C707 0.930 . S
H679 C684 0.930 . S
H680 C688 0.930 . S
O681 Co650 2.037 . S
O681 C701 1.234 . S
C682 O656 1.269 . S
C682 O657 1.257 . S
C683 H658 0.930 . S
C683 C686 1.388 . S
C683 C688 1.418 . S
C684 H679 0.930 . S
C684 C687 1.404 . S
C684 C688 1.353 . S
N685 Co650 2.145 . S
N685 C686 1.397 . S
N685 C687 1.334 . S
C686 H667 0.929 . S
C686 C683 1.388 . S
C686 N685 1.397 . S
C687 H668 0.929 . S
C687 C684 1.404 . S
C687 N685 1.334 . S
C688 H680 0.930 . S
C688 C683 1.418 . S
C688 C684 1.353 . S
C689 H659 0.930 . S
C689 N690 1.330 . S
C689 C691 1.446 . S
N690 Co649 2.151 . S
N690 C689 1.330 . S
N690 C694 1.418 . S
C691 H670 0.929 . S
C691 C689 1.446 . S
C691 C692 1.332 . S
C692 H672 0.931 . S
C692 C691 1.332 . S
C692 C693 1.267 . S
C693 H661 0.929 . S
C693 C692 1.267 . S
C693 C694 1.251 . S
C694 H664 0.929 . S
C694 N690 1.418 . S
C694 C693 1.251 . S
C695 H662 0.930 . S
C695 C697 1.406 . S
C695 C700 1.261 . S
C696 H663 0.930 . S
C696 N698 1.325 . S
C696 C699 1.357 . S
C697 H665 0.928 . S
C697 C695 1.406 . S
C697 N698 1.261 . S
N698 Co649 2.214 . S
N698 C696 1.325 . S
N698 C697 1.261 . S
C699 H669 0.931 . S
C699 C696 1.357 . S
C699 C700 1.312 . S
C700 H671 0.930 . S
C700 C695 1.261 . S
C700 C699 1.312 . S
C701 O673 1.214 . S
C701 O681 1.234 . S
C702 H674 0.929 . S
C702 C705 1.391 . S
C702 C707 1.391 . S
C703 H675 0.929 . S
C703 C704 1.390 . S
C703 N706 1.391 . S
C704 H676 0.930 . S
C704 C703 1.390 . S
C704 C705 1.392 . S
C705 H677 0.929 . S
C705 C702 1.391 . S
C705 C704 1.392 . S
N706 Co650 2.257 . S
N706 C703 1.391 . S
N706 C707 1.388 . S
C707 H678 0.930 . S
C707 C702 1.391 . S
C707 N706 1.388 . S
C708 C709 1.349 . S
C708 C710 1.327 . S
C708 H733 0.950 . S
C709 C708 1.349 . S
C709 C725 1.349 . S
C710 C708 1.327 . S
C710 C729 1.429 . S
C710 H734 0.950 . S
C711 C728 1.574 1_556 S
C711 C730 1.368 . S
C711 H735 0.949 . S
H712 C716 0.949 . S
C713 C714 1.349 . S
C713 C715 1.327 . S
C713 H736 0.950 . S
C714 C713 1.349 . S
C714 C726 1.349 . S
C715 C713 1.327 . S
C715 C731 1.429 . S
C715 H737 0.950 . S
C716 H712 0.949 . S
C716 C724 1.574 1_554 S
C716 C732 1.368 . S
H717 C725 0.950 . S
H718 C723 0.950 . S
H719 C724 0.949 . S
H720 C726 0.950 . S
H721 C727 0.950 . S
H722 C728 0.949 . S
C723 H718 0.950 . S
C723 C725 1.327 . S
C723 C729 1.429 . S
C724 C716 1.574 1_556 S
C724 H719 0.949 . S
C724 C730 1.368 . S
C725 C709 1.349 . S
C725 H717 0.950 . S
C725 C723 1.327 . S
C726 C714 1.349 . S
C726 H720 0.950 . S
C726 C727 1.327 . S
C727 H721 0.950 . S
C727 C726 1.327 . S
C727 C731 1.429 . S
C728 C711 1.574 1_554 S
C728 H722 0.949 . S
C728 C732 1.368 . S
C729 C710 1.429 . S
C729 C723 1.429 . S
C729 C730 1.523 . S
C730 C711 1.368 . S
C730 C724 1.368 . S
C730 C729 1.523 . S
C731 C715 1.429 . S
C731 C727 1.429 . S
C731 C732 1.523 . S
C732 C716 1.368 . S
C732 C728 1.368 . S
C732 C731 1.523 . S
H733 C708 0.950 . S
H734 C710 0.950 . S
H735 C711 0.949 . S
H736 C713 0.950 . S
H737 C715 0.950 . S
C738 C739 1.349 . S
C738 C740 1.327 . S
C738 H763 0.950 . S
C739 C738 1.349 . S
C739 C755 1.349 . S
C740 C738 1.327 . S
C740 C759 1.429 . S
C740 H764 0.950 . S
C741 C758 1.574 . S
C741 C760 1.368 . S
C741 H765 0.949 . S
H742 C746 0.949 . S
C743 C744 1.349 . S
C743 C745 1.327 . S
C743 H766 0.950 . S
C744 C743 1.349 . S
C744 C756 1.349 . S
C745 C743 1.327 . S
C745 C761 1.429 . S
C745 H767 0.950 . S
C746 H742 0.949 . S
C746 C754 1.574 . S
C746 C762 1.368 . S
H747 C755 0.950 . S
H748 C753 0.950 . S
H749 C754 0.949 . S
H750 C756 0.950 . S
H751 C757 0.950 . S
H752 C758 0.949 . S
C753 H748 0.950 . S
C753 C755 1.327 . S
C753 C759 1.429 . S
C754 C746 1.574 . S
C754 H749 0.949 . S
C754 C760 1.368 . S
C755 C739 1.349 . S
C755 H747 0.950 . S
C755 C753 1.327 . S
C756 C744 1.349 . S
C756 H750 0.950 . S
C756 C757 1.327 . S
C757 H751 0.950 . S
C757 C756 1.327 . S
C757 C761 1.429 . S
C758 C741 1.574 . S
C758 H752 0.949 . S
C758 C762 1.368 . S
C759 C740 1.429 . S
C759 C753 1.429 . S
C759 C760 1.523 . S
C760 C741 1.368 . S
C760 C754 1.368 . S
C760 C759 1.523 . S
C761 C745 1.429 . S
C761 C757 1.429 . S
C761 C762 1.523 . S
C762 C746 1.368 . S
C762 C758 1.368 . S
C762 C761 1.523 . S
H763 C738 0.950 . S
H764 C740 0.950 . S
H765 C741 0.949 . S
H766 C743 0.950 . S
H767 C745 0.950 . S
C768 C769 1.349 . S
C768 C770 1.327 . S
C768 H793 0.950 . S
C769 C768 1.349 . S
C769 C785 1.349 . S
C770 C768 1.327 . S
C770 C789 1.429 . S
C770 H794 0.950 . S
C771 C788 1.574 . S
C771 C790 1.368 . S
C771 H795 0.949 . S
H772 C776 0.949 . S
C773 C774 1.349 . S
C773 C775 1.327 . S
C773 H796 0.950 . S
C774 C773 1.349 . S
C774 C786 1.349 . S
C775 C773 1.327 . S
C775 C791 1.429 . S
C775 H797 0.950 . S
C776 H772 0.949 . S
C776 C784 1.574 . S
C776 C792 1.368 . S
H777 C785 0.950 . S
H778 C783 0.950 . S
H779 C784 0.949 . S
H780 C786 0.950 . S
H781 C787 0.950 . S
H782 C788 0.949 . S
C783 H778 0.950 . S
C783 C785 1.327 . S
C783 C789 1.429 . S
C784 C776 1.574 . S
C784 H779 0.949 . S
C784 C790 1.368 . S
C785 C769 1.349 . S
C785 H777 0.950 . S
C785 C783 1.327 . S
C786 C774 1.349 . S
C786 H780 0.950 . S
C786 C787 1.327 . S
C787 H781 0.950 . S
C787 C786 1.327 . S
C787 C791 1.429 . S
C788 C771 1.574 . S
C788 H782 0.949 . S
C788 C792 1.368 . S
C789 C770 1.429 . S
C789 C783 1.429 . S
C789 C790 1.523 . S
C790 C771 1.368 . S
C790 C784 1.368 . S
C790 C789 1.523 . S
C791 C775 1.429 . S
C791 C787 1.429 . S
C791 C792 1.523 . S
C792 C776 1.368 . S
C792 C788 1.368 . S
C792 C791 1.523 . S
H793 C768 0.950 . S
H794 C770 0.950 . S
H795 C771 0.949 . S
H796 C773 0.950 . S
H797 C775 0.950 . S
C798 C799 1.349 . S
C798 C800 1.327 . S
C798 H823 0.950 . S
C799 C798 1.349 . S
C799 C815 1.349 . S
C800 C798 1.327 . S
C800 C819 1.429 . S
C800 H824 0.950 . S
C801 C818 1.574 1_554 S
C801 C820 1.368 . S
C801 H825 0.949 . S
H802 C806 0.949 . S
C803 C804 1.349 . S
C803 C805 1.327 . S
C803 H826 0.950 . S
C804 C803 1.349 . S
C804 C816 1.349 . S
C805 C803 1.327 . S
C805 C821 1.429 . S
C805 H827 0.950 . S
C806 H802 0.949 . S
C806 C814 1.574 1_556 S
C806 C822 1.368 . S
H807 C815 0.950 . S
H808 C813 0.950 . S
H809 C814 0.949 . S
H810 C816 0.950 . S
H811 C817 0.950 . S
H812 C818 0.949 . S
C813 H808 0.950 . S
C813 C815 1.327 . S
C813 C819 1.429 . S
C814 C806 1.574 1_554 S
C814 H809 0.949 . S
C814 C820 1.368 . S
C815 C799 1.349 . S
C815 H807 0.950 . S
C815 C813 1.327 . S
C816 C804 1.349 . S
C816 H810 0.950 . S
C816 C817 1.327 . S
C817 H811 0.950 . S
C817 C816 1.327 . S
C817 C821 1.429 . S
C818 C801 1.574 1_556 S
C818 H812 0.949 . S
C818 C822 1.368 . S
C819 C800 1.429 . S
C819 C813 1.429 . S
C819 C820 1.523 . S
C820 C801 1.368 . S
C820 C814 1.368 . S
C820 C819 1.523 . S
C821 C805 1.429 . S
C821 C817 1.429 . S
C821 C822 1.523 . S
C822 C806 1.368 . S
C822 C818 1.368 . S
C822 C821 1.523 . S
H823 C798 0.950 . S
H824 C800 0.950 . S
H825 C801 0.949 . S
H826 C803 0.950 . S
H827 C805 0.950 . S
C828 C829 1.349 . S
C828 C830 1.327 . S
C828 H853 0.950 . S
C829 C828 1.349 . S
C829 C845 1.349 . S
C830 C828 1.327 . S
C830 C849 1.429 . S
C830 H854 0.950 . S
C831 C848 1.574 . S
C831 C850 1.368 . S
C831 H855 0.949 . S
H832 C836 0.949 . S
C833 C834 1.349 . S
C833 C835 1.327 . S
C833 H856 0.950 . S
C834 C833 1.349 . S
C834 C846 1.349 . S
C835 C833 1.327 . S
C835 C851 1.429 . S
C835 H857 0.950 . S
C836 H832 0.949 . S
C836 C844 1.574 . S
C836 C852 1.368 . S
H837 C845 0.950 . S
H838 C843 0.950 . S
H839 C844 0.949 . S
H840 C846 0.950 . S
H841 C847 0.950 . S
H842 C848 0.949 . S
C843 H838 0.950 . S
C843 C845 1.327 . S
C843 C849 1.429 . S
C844 C836 1.574 . S
C844 H839 0.949 . S
C844 C850 1.368 . S
C845 C829 1.349 . S
C845 H837 0.950 . S
C845 C843 1.327 . S
C846 C834 1.349 . S
C846 H840 0.950 . S
C846 C847 1.327 . S
C847 H841 0.950 . S
C847 C846 1.327 . S
C847 C851 1.429 . S
C848 C831 1.574 . S
C848 H842 0.949 . S
C848 C852 1.368 . S
C849 C830 1.429 . S
C849 C843 1.429 . S
C849 C850 1.523 . S
C850 C831 1.368 . S
C850 C844 1.368 . S
C850 C849 1.523 . S
C851 C835 1.429 . S
C851 C847 1.429 . S
C851 C852 1.523 . S
C852 C836 1.368 . S
C852 C848 1.368 . S
C852 C851 1.523 . S
H853 C828 0.950 . S
H854 C830 0.950 . S
H855 C831 0.949 . S
H856 C833 0.950 . S
H857 C835 0.950 . S
C858 C859 1.349 . S
C858 C860 1.327 . S
C858 H883 0.950 . S
C859 C858 1.349 . S
C859 C875 1.349 . S
C860 C858 1.327 . S
C860 C879 1.429 . S
C860 H884 0.950 . S
C861 C878 1.574 . S
C861 C880 1.368 . S
C861 H885 0.949 . S
H862 C866 0.949 . S
C863 C864 1.349 . S
C863 C865 1.327 . S
C863 H886 0.950 . S
C864 C863 1.349 . S
C864 C876 1.349 . S
C865 C863 1.327 . S
C865 C881 1.429 . S
C865 H887 0.950 . S
C866 H862 0.949 . S
C866 C874 1.574 . S
C866 C882 1.368 . S
H867 C875 0.950 . S
H868 C873 0.950 . S
H869 C874 0.949 . S
H870 C876 0.950 . S
H871 C877 0.950 . S
H872 C878 0.949 . S
C873 H868 0.950 . S
C873 C875 1.327 . S
C873 C879 1.429 . S
C874 C866 1.574 . S
C874 H869 0.949 . S
C874 C880 1.368 . S
C875 C859 1.349 . S
C875 H867 0.950 . S
C875 C873 1.327 . S
C876 C864 1.349 . S
C876 H870 0.950 . S
C876 C877 1.327 . S
C877 H871 0.950 . S
C877 C876 1.327 . S
C877 C881 1.429 . S
C878 C861 1.574 . S
C878 H872 0.949 . S
C878 C882 1.368 . S
C879 C860 1.429 . S
C879 C873 1.429 . S
C879 C880 1.523 . S
C880 C861 1.368 . S
C880 C874 1.368 . S
C880 C879 1.523 . S
C881 C865 1.429 . S
C881 C877 1.429 . S
C881 C882 1.523 . S
C882 C866 1.368 . S
C882 C878 1.368 . S
C882 C881 1.523 . S
H883 C858 0.950 . S
H884 C860 0.950 . S
H885 C861 0.949 . S
H886 C863 0.950 . S
H887 C865 0.950 . S
C888 C889 1.349 . S
C888 C890 1.327 . S
C888 H913 0.950 . S
C889 C888 1.349 . S
C889 C905 1.349 . S
C890 C888 1.327 . S
C890 C909 1.429 . S
C890 H914 0.950 . S
C891 C908 1.574 . S
C891 C910 1.368 . S
C891 H915 0.949 . S
H892 C896 0.949 . S
C893 C894 1.349 . S
C893 C895 1.327 . S
C893 H916 0.950 . S
C894 C893 1.349 . S
C894 C906 1.349 . S
C895 C893 1.327 . S
C895 C911 1.429 . S
C895 H917 0.950 . S
C896 H892 0.949 . S
C896 C904 1.574 . S
C896 C912 1.368 . S
H897 C905 0.950 . S
H898 C903 0.950 . S
H899 C904 0.949 . S
H900 C906 0.950 . S
H901 C907 0.950 . S
H902 C908 0.949 . S
C903 H898 0.950 . S
C903 C905 1.327 . S
C903 C909 1.429 . S
C904 C896 1.574 . S
C904 H899 0.949 . S
C904 C910 1.368 . S
C905 C889 1.349 . S
C905 H897 0.950 . S
C905 C903 1.327 . S
C906 C894 1.349 . S
C906 H900 0.950 . S
C906 C907 1.327 . S
C907 H901 0.950 . S
C907 C906 1.327 . S
C907 C911 1.429 . S
C908 C891 1.574 . S
C908 H902 0.949 . S
C908 C912 1.368 . S
C909 C890 1.429 . S
C909 C903 1.429 . S
C909 C910 1.523 . S
C910 C891 1.368 . S
C910 C904 1.368 . S
C910 C909 1.523 . S
C911 C895 1.429 . S
C911 C907 1.429 . S
C911 C912 1.523 . S
C912 C896 1.368 . S
C912 C908 1.368 . S
C912 C911 1.523 . S
H913 C888 0.950 . S
H914 C890 0.950 . S
H915 C891 0.949 . S
H916 C893 0.950 . S
H917 C895 0.950 . S
C918 C919 1.349 . S
C918 C920 1.327 . S
C918 H943 0.950 . S
C919 C918 1.349 . S
C919 C935 1.349 . S
C920 C918 1.327 . S
C920 C939 1.429 . S
C920 H944 0.950 . S
C921 C938 1.574 . S
C921 C940 1.368 . S
C921 H945 0.949 . S
H922 C926 0.949 . S
C923 C924 1.349 . S
C923 C925 1.327 . S
C923 H946 0.950 . S
C924 C923 1.349 . S
C924 C936 1.349 . S
C925 C923 1.327 . S
C925 C941 1.429 . S
C925 H947 0.950 . S
C926 H922 0.949 . S
C926 C934 1.574 . S
C926 C942 1.368 . S
H927 C935 0.950 . S
H928 C933 0.950 . S
H929 C934 0.949 . S
H930 C936 0.950 . S
H931 C937 0.950 . S
H932 C938 0.949 . S
C933 H928 0.950 . S
C933 C935 1.327 . S
C933 C939 1.429 . S
C934 C926 1.574 . S
C934 H929 0.949 . S
C934 C940 1.368 . S
C935 C919 1.349 . S
C935 H927 0.950 . S
C935 C933 1.327 . S
C936 C924 1.349 . S
C936 H930 0.950 . S
C936 C937 1.327 . S
C937 H931 0.950 . S
C937 C936 1.327 . S
C937 C941 1.429 . S
C938 C921 1.574 . S
C938 H932 0.949 . S
C938 C942 1.368 . S
C939 C920 1.429 . S
C939 C933 1.429 . S
C939 C940 1.523 . S
C940 C921 1.368 . S
C940 C934 1.368 . S
C940 C939 1.523 . S
C941 C925 1.429 . S
C941 C937 1.429 . S
C941 C942 1.523 . S
C942 C926 1.368 . S
C942 C938 1.368 . S
C942 C941 1.523 . S
H943 C918 0.950 . S
H944 C920 0.950 . S
H945 C921 0.949 . S
H946 C923 0.950 . S
H947 C925 0.950 . S
C948 C949 1.349 . S
C948 C950 1.327 . S
C948 H973 0.950 . S
C949 C948 1.349 . S
C949 C965 1.349 . S
C950 C948 1.327 . S
C950 C969 1.429 . S
C950 H974 0.950 . S
C951 C968 1.574 . S
C951 C970 1.368 . S
C951 H975 0.949 . S
H952 C956 0.949 . S
C953 C954 1.349 . S
C953 C955 1.327 . S
C953 H976 0.950 . S
C954 C953 1.349 . S
C954 C966 1.349 . S
C955 C953 1.327 . S
C955 C971 1.429 . S
C955 H977 0.950 . S
C956 H952 0.949 . S
C956 C964 1.574 . S
C956 C972 1.368 . S
H957 C965 0.950 . S
H958 C963 0.950 . S
H959 C964 0.949 . S
H960 C966 0.950 . S
H961 C967 0.950 . S
H962 C968 0.949 . S
C963 H958 0.950 . S
C963 C965 1.327 . S
C963 C969 1.429 . S
C964 C956 1.574 . S
C964 H959 0.949 . S
C964 C970 1.368 . S
C965 C949 1.349 . S
C965 H957 0.950 . S
C965 C963 1.327 . S
C966 C954 1.349 . S
C966 H960 0.950 . S
C966 C967 1.327 . S
C967 H961 0.950 . S
C967 C966 1.327 . S
C967 C971 1.429 . S
C968 C951 1.574 . S
C968 H962 0.949 . S
C968 C972 1.368 . S
C969 C950 1.429 . S
C969 C963 1.429 . S
C969 C970 1.523 . S
C970 C951 1.368 . S
C970 C964 1.368 . S
C970 C969 1.523 . S
C971 C955 1.429 . S
C971 C967 1.429 . S
C971 C972 1.523 . S
C972 C956 1.368 . S
C972 C968 1.368 . S
C972 C971 1.523 . S
H973 C948 0.950 . S
H974 C950 0.950 . S
H975 C951 0.949 . S
H976 C953 0.950 . S
H977 C955 0.950 . S
C978 C979 1.349 . S
C978 C980 1.327 . S
C978 H1003 0.950 . S
C979 C978 1.349 . S
C979 C995 1.349 . S
C980 C978 1.327 . S
C980 C999 1.429 . S
C980 H1004 0.950 . S
C981 C998 1.574 . S
C981 C1000 1.368 . S
C981 H1005 0.949 . S
H982 C986 0.949 . S
C983 C984 1.349 . S
C983 C985 1.327 . S
C983 H1006 0.950 . S
C984 C983 1.349 . S
C984 C996 1.349 . S
C985 C983 1.327 . S
C985 C1001 1.429 . S
C985 H1007 0.950 . S
C986 H982 0.949 . S
C986 C994 1.574 . S
C986 C1002 1.368 . S
H987 C995 0.950 . S
H988 C993 0.950 . S
H989 C994 0.949 . S
H990 C996 0.950 . S
H991 C997 0.950 . S
H992 C998 0.949 . S
C993 H988 0.950 . S
C993 C995 1.327 . S
C993 C999 1.429 . S
C994 C986 1.574 . S
C994 H989 0.949 . S
C994 C1000 1.368 . S
C995 C979 1.349 . S
C995 H987 0.950 . S
C995 C993 1.327 . S
C996 C984 1.349 . S
C996 H990 0.950 . S
C996 C997 1.327 . S
C997 H991 0.950 . S
C997 C996 1.327 . S
C997 C1001 1.429 . S
C998 C981 1.574 . S
C998 H992 0.949 . S
C998 C1002 1.368 . S
C999 C980 1.429 . S
C999 C993 1.429 . S
C999 C1000 1.523 . S
C1000 C981 1.368 . S
C1000 C994 1.368 . S
C1000 C999 1.523 . S
C1001 C985 1.429 . S
C1001 C997 1.429 . S
C1001 C1002 1.523 . S
C1002 C986 1.368 . S
C1002 C998 1.368 . S
C1002 C1001 1.523 . S
H1003 C978 0.950 . S
H1004 C980 0.950 . S
H1005 C981 0.949 . S
H1006 C983 0.950 . S
H1007 C985 0.950 . S
C1008 C1009 1.349 . S
C1008 C1010 1.327 . S
C1008 H1033 0.950 . S
C1009 C1008 1.349 . S
C1009 C1025 1.349 . S
C1010 C1008 1.327 . S
C1010 C1029 1.429 . S
C1010 H1034 0.950 . S
C1011 C1028 1.574 . S
C1011 C1030 1.368 . S
C1011 H1035 0.949 . S
H1012 C1016 0.949 . S
C1013 C1014 1.349 . S
C1013 C1015 1.327 . S
C1013 H1036 0.950 . S
C1014 C1013 1.349 . S
C1014 C1026 1.349 . S
C1015 C1013 1.327 . S
C1015 C1031 1.429 . S
C1015 H1037 0.950 . S
C1016 H1012 0.949 . S
C1016 C1024 1.574 . S
C1016 C1032 1.368 . S
H1017 C1025 0.950 . S
H1018 C1023 0.950 . S
H1019 C1024 0.949 . S
H1020 C1026 0.950 . S
H1021 C1027 0.950 . S
H1022 C1028 0.949 . S
C1023 H1018 0.950 . S
C1023 C1025 1.327 . S
C1023 C1029 1.429 . S
C1024 C1016 1.574 . S
C1024 H1019 0.949 . S
C1024 C1030 1.368 . S
C1025 C1009 1.349 . S
C1025 H1017 0.950 . S
C1025 C1023 1.327 . S
C1026 C1014 1.349 . S
C1026 H1020 0.950 . S
C1026 C1027 1.327 . S
C1027 H1021 0.950 . S
C1027 C1026 1.327 . S
C1027 C1031 1.429 . S
C1028 C1011 1.574 . S
C1028 H1022 0.949 . S
C1028 C1032 1.368 . S
C1029 C1010 1.429 . S
C1029 C1023 1.429 . S
C1029 C1030 1.523 . S
C1030 C1011 1.368 . S
C1030 C1024 1.368 . S
C1030 C1029 1.523 . S
C1031 C1015 1.429 . S
C1031 C1027 1.429 . S
C1031 C1032 1.523 . S
C1032 C1016 1.368 . S
C1032 C1028 1.368 . S
C1032 C1031 1.523 . S
H1033 C1008 0.950 . S
H1034 C1010 0.950 . S
H1035 C1011 0.949 . S
H1036 C1013 0.950 . S
H1037 C1015 0.950 . S
C1038 C1039 1.349 . S
C1038 C1040 1.327 . S
C1038 H1063 0.950 . S
C1039 C1038 1.349 . S
C1039 C1055 1.349 . S
C1040 C1038 1.327 . S
C1040 C1059 1.429 . S
C1040 H1064 0.950 . S
C1041 C1058 1.574 . S
C1041 C1060 1.368 . S
C1041 H1065 0.949 . S
H1042 C1046 0.949 . S
C1043 C1044 1.349 . S
C1043 C1045 1.327 . S
C1043 H1066 0.950 . S
C1044 C1043 1.349 . S
C1044 C1056 1.349 . S
C1045 C1043 1.327 . S
C1045 C1061 1.429 . S
C1045 H1067 0.950 . S
C1046 H1042 0.949 . S
C1046 C1054 1.574 . S
C1046 C1062 1.368 . S
H1047 C1055 0.950 . S
H1048 C1053 0.950 . S
H1049 C1054 0.949 . S
H1050 C1056 0.950 . S
H1051 C1057 0.950 . S
H1052 C1058 0.949 . S
C1053 H1048 0.950 . S
C1053 C1055 1.327 . S
C1053 C1059 1.429 . S
C1054 C1046 1.574 . S
C1054 H1049 0.949 . S
C1054 C1060 1.368 . S
C1055 C1039 1.349 . S
C1055 H1047 0.950 . S
C1055 C1053 1.327 . S
C1056 C1044 1.349 . S
C1056 H1050 0.950 . S
C1056 C1057 1.327 . S
C1057 H1051 0.950 . S
C1057 C1056 1.327 . S
C1057 C1061 1.429 . S
C1058 C1041 1.574 . S
C1058 H1052 0.949 . S
C1058 C1062 1.368 . S
C1059 C1040 1.429 . S
C1059 C1053 1.429 . S
C1059 C1060 1.523 . S
C1060 C1041 1.368 . S
C1060 C1054 1.368 . S
C1060 C1059 1.523 . S
C1061 C1045 1.429 . S
C1061 C1057 1.429 . S
C1061 C1062 1.523 . S
C1062 C1046 1.368 . S
C1062 C1058 1.368 . S
C1062 C1061 1.523 . S
H1063 C1038 0.950 . S
H1064 C1040 0.950 . S
H1065 C1041 0.949 . S
H1066 C1043 0.950 . S
H1067 C1045 0.950 . S
C1068 C1069 1.349 . S
C1068 C1070 1.327 . S
C1068 H1093 0.950 . S
C1069 C1068 1.349 . S
C1069 C1085 1.349 . S
C1070 C1068 1.327 . S
C1070 C1089 1.429 . S
C1070 H1094 0.950 . S
C1071 C1088 1.574 1_655 S
C1071 C1090 1.368 . S
C1071 H1095 0.949 . S
H1072 C1076 0.949 . S
C1073 C1074 1.349 . S
C1073 C1075 1.327 . S
C1073 H1096 0.950 . S
C1074 C1073 1.349 . S
C1074 C1086 1.349 . S
C1075 C1073 1.327 . S
C1075 C1091 1.429 . S
C1075 H1097 0.950 . S
C1076 H1072 0.949 . S
C1076 C1084 1.574 1_455 S
C1076 C1092 1.368 . S
H1077 C1085 0.950 . S
H1078 C1083 0.950 . S
H1079 C1084 0.949 . S
H1080 C1086 0.950 . S
H1081 C1087 0.950 . S
H1082 C1088 0.949 . S
C1083 H1078 0.950 . S
C1083 C1085 1.327 . S
C1083 C1089 1.429 . S
C1084 C1076 1.574 1_655 S
C1084 H1079 0.949 . S
C1084 C1090 1.368 . S
C1085 C1069 1.349 . S
C1085 H1077 0.950 . S
C1085 C1083 1.327 . S
C1086 C1074 1.349 . S
C1086 H1080 0.950 . S
C1086 C1087 1.327 . S
C1087 H1081 0.950 . S
C1087 C1086 1.327 . S
C1087 C1091 1.429 . S
C1088 C1071 1.574 1_455 S
C1088 H1082 0.949 . S
C1088 C1092 1.368 . S
C1089 C1070 1.429 . S
C1089 C1083 1.429 . S
C1089 C1090 1.523 . S
C1090 C1071 1.368 . S
C1090 C1084 1.368 . S
C1090 C1089 1.523 . S
C1091 C1075 1.429 . S
C1091 C1087 1.429 . S
C1091 C1092 1.523 . S
C1092 C1076 1.368 . S
C1092 C1088 1.368 . S
C1092 C1091 1.523 . S
H1093 C1068 0.950 . S
H1094 C1070 0.950 . S
H1095 C1071 0.949 . S
H1096 C1073 0.950 . S
H1097 C1075 0.950 . S
C1098 C1099 1.349 . S
C1098 C1100 1.327 . S
C1098 H1123 0.950 . S
C1099 C1098 1.349 . S
C1099 C1115 1.349 . S
C1100 C1098 1.327 . S
C1100 C1119 1.429 . S
C1100 H1124 0.950 . S
C1101 C1118 1.574 1_545 S
C1101 C1120 1.368 . S
C1101 H1125 0.949 . S
H1102 C1106 0.949 . S
C1103 C1104 1.349 . S
C1103 C1105 1.327 . S
C1103 H1126 0.950 . S
C1104 C1103 1.349 . S
C1104 C1116 1.349 . S
C1105 C1103 1.327 . S
C1105 C1121 1.429 . S
C1105 H1127 0.950 . S
C1106 H1102 0.949 . S
C1106 C1114 1.574 1_565 S
C1106 C1122 1.368 . S
H1107 C1115 0.950 . S
H1108 C1113 0.950 . S
H1109 C1114 0.949 . S
H1110 C1116 0.950 . S
H1111 C1117 0.950 . S
H1112 C1118 0.949 . S
C1113 H1108 0.950 . S
C1113 C1115 1.327 . S
C1113 C1119 1.429 . S
C1114 C1106 1.574 1_545 S
C1114 H1109 0.949 . S
C1114 C1120 1.368 . S
C1115 C1099 1.349 . S
C1115 H1107 0.950 . S
C1115 C1113 1.327 . S
C1116 C1104 1.349 . S
C1116 H1110 0.950 . S
C1116 C1117 1.327 . S
C1117 H1111 0.950 . S
C1117 C1116 1.327 . S
C1117 C1121 1.429 . S
C1118 C1101 1.574 1_565 S
C1118 H1112 0.949 . S
C1118 C1122 1.368 . S
C1119 C1100 1.429 . S
C1119 C1113 1.429 . S
C1119 C1120 1.523 . S
C1120 C1101 1.368 . S
C1120 C1114 1.368 . S
C1120 C1119 1.523 . S
C1121 C1105 1.429 . S
C1121 C1117 1.429 . S
C1121 C1122 1.523 . S
C1122 C1106 1.368 . S
C1122 C1118 1.368 . S
C1122 C1121 1.523 . S
H1123 C1098 0.950 . S
H1124 C1100 0.950 . S
H1125 C1101 0.949 . S
H1126 C1103 0.950 . S
H1127 C1105 0.950 . S
C1128 C1129 1.349 . S
C1128 C1130 1.327 . S
C1128 H1153 0.950 . S
C1129 C1128 1.349 . S
C1129 C1145 1.349 . S
C1130 C1128 1.327 . S
C1130 C1149 1.429 . S
C1130 H1154 0.950 . S
C1131 C1148 1.574 . S
C1131 C1150 1.368 . S
C1131 H1155 0.949 . S
H1132 C1136 0.949 . S
C1133 C1134 1.349 . S
C1133 C1135 1.327 . S
C1133 H1156 0.950 . S
C1134 C1133 1.349 . S
C1134 C1146 1.349 . S
C1135 C1133 1.327 . S
C1135 C1151 1.429 . S
C1135 H1157 0.950 . S
C1136 H1132 0.949 . S
C1136 C1144 1.574 . S
C1136 C1152 1.368 . S
H1137 C1145 0.950 . S
H1138 C1143 0.950 . S
H1139 C1144 0.949 . S
H1140 C1146 0.950 . S
H1141 C1147 0.950 . S
H1142 C1148 0.949 . S
C1143 H1138 0.950 . S
C1143 C1145 1.327 . S
C1143 C1149 1.429 . S
C1144 C1136 1.574 . S
C1144 H1139 0.949 . S
C1144 C1150 1.368 . S
C1145 C1129 1.349 . S
C1145 H1137 0.950 . S
C1145 C1143 1.327 . S
C1146 C1134 1.349 . S
C1146 H1140 0.950 . S
C1146 C1147 1.327 . S
C1147 H1141 0.950 . S
C1147 C1146 1.327 . S
C1147 C1151 1.429 . S
C1148 C1131 1.574 . S
C1148 H1142 0.949 . S
C1148 C1152 1.368 . S
C1149 C1130 1.429 . S
C1149 C1143 1.429 . S
C1149 C1150 1.523 . S
C1150 C1131 1.368 . S
C1150 C1144 1.368 . S
C1150 C1149 1.523 . S
C1151 C1135 1.429 . S
C1151 C1147 1.429 . S
C1151 C1152 1.523 . S
C1152 C1136 1.368 . S
C1152 C1148 1.368 . S
C1152 C1151 1.523 . S
H1153 C1128 0.950 . S
H1154 C1130 0.950 . S
H1155 C1131 0.949 . S
H1156 C1133 0.950 . S
H1157 C1135 0.950 . S
C1158 C1159 1.349 . S
C1158 C1160 1.327 . S
C1158 H1183 0.950 . S
C1159 C1158 1.349 . S
C1159 C1175 1.349 . S
C1160 C1158 1.327 . S
C1160 C1179 1.429 . S
C1160 H1184 0.950 . S
C1161 C1178 1.574 1_545 S
C1161 C1180 1.368 . S
C1161 H1185 0.949 . S
H1162 C1166 0.949 . S
C1163 C1164 1.349 . S
C1163 C1165 1.327 . S
C1163 H1186 0.950 . S
C1164 C1163 1.349 . S
C1164 C1176 1.349 . S
C1165 C1163 1.327 . S
C1165 C1181 1.429 . S
C1165 H1187 0.950 . S
C1166 H1162 0.949 . S
C1166 C1174 1.574 1_565 S
C1166 C1182 1.368 . S
H1167 C1175 0.950 . S
H1168 C1173 0.950 . S
H1169 C1174 0.949 . S
H1170 C1176 0.950 . S
H1171 C1177 0.950 . S
H1172 C1178 0.949 . S
C1173 H1168 0.950 . S
C1173 C1175 1.327 . S
C1173 C1179 1.429 . S
C1174 C1166 1.574 1_545 S
C1174 H1169 0.949 . S
C1174 C1180 1.368 . S
C1175 C1159 1.349 . S
C1175 H1167 0.950 . S
C1175 C1173 1.327 . S
C1176 C1164 1.349 . S
C1176 H1170 0.950 . S
C1176 C1177 1.327 . S
C1177 H1171 0.950 . S
C1177 C1176 1.327 . S
C1177 C1181 1.429 . S
C1178 C1161 1.574 1_565 S
C1178 H1172 0.949 . S
C1178 C1182 1.368 . S
C1179 C1160 1.429 . S
C1179 C1173 1.429 . S
C1179 C1180 1.523 . S
C1180 C1161 1.368 . S
C1180 C1174 1.368 . S
C1180 C1179 1.523 . S
C1181 C1165 1.429 . S
C1181 C1177 1.429 . S
C1181 C1182 1.523 . S
C1182 C1166 1.368 . S
C1182 C1178 1.368 . S
C1182 C1181 1.523 . S
H1183 C1158 0.950 . S
H1184 C1160 0.950 . S
H1185 C1161 0.949 . S
H1186 C1163 0.950 . S
H1187 C1165 0.950 . S
C1188 C1189 1.349 . S
C1188 C1190 1.327 . S
C1188 H1213 0.950 . S
C1189 C1188 1.349 . S
C1189 C1205 1.349 . S
C1190 C1188 1.327 . S
C1190 C1209 1.429 . S
C1190 H1214 0.950 . S
C1191 C1208 1.574 . S
C1191 C1210 1.368 . S
C1191 H1215 0.949 . S
H1192 C1196 0.949 . S
C1193 C1194 1.349 . S
C1193 C1195 1.327 . S
C1193 H1216 0.950 . S
C1194 C1193 1.349 . S
C1194 C1206 1.349 . S
C1195 C1193 1.327 . S
C1195 C1211 1.429 . S
C1195 H1217 0.950 . S
C1196 H1192 0.949 . S
C1196 C1204 1.574 . S
C1196 C1212 1.368 . S
H1197 C1205 0.950 . S
H1198 C1203 0.950 . S
H1199 C1204 0.949 . S
H1200 C1206 0.950 . S
H1201 C1207 0.950 . S
H1202 C1208 0.949 . S
C1203 H1198 0.950 . S
C1203 C1205 1.327 . S
C1203 C1209 1.429 . S
C1204 C1196 1.574 . S
C1204 H1199 0.949 . S
C1204 C1210 1.368 . S
C1205 C1189 1.349 . S
C1205 H1197 0.950 . S
C1205 C1203 1.327 . S
C1206 C1194 1.349 . S
C1206 H1200 0.950 . S
C1206 C1207 1.327 . S
C1207 H1201 0.950 . S
C1207 C1206 1.327 . S
C1207 C1211 1.429 . S
C1208 C1191 1.574 . S
C1208 H1202 0.949 . S
C1208 C1212 1.368 . S
C1209 C1190 1.429 . S
C1209 C1203 1.429 . S
C1209 C1210 1.523 . S
C1210 C1191 1.368 . S
C1210 C1204 1.368 . S
C1210 C1209 1.523 . S
C1211 C1195 1.429 . S
C1211 C1207 1.429 . S
C1211 C1212 1.523 . S
C1212 C1196 1.368 . S
C1212 C1208 1.368 . S
C1212 C1211 1.523 . S
H1213 C1188 0.950 . S
H1214 C1190 0.950 . S
H1215 C1191 0.949 . S
H1216 C1193 0.950 . S
H1217 C1195 0.950 . S
C1218 C1219 1.349 . S
C1218 C1220 1.327 . S
C1218 H1243 0.950 . S
C1219 C1218 1.349 . S
C1219 C1235 1.349 . S
C1220 C1218 1.327 . S
C1220 C1239 1.429 . S
C1220 H1244 0.950 . S
C1221 C1238 1.574 1_455 S
C1221 C1240 1.368 . S
C1221 H1245 0.949 . S
H1222 C1226 0.949 . S
C1223 C1224 1.349 . S
C1223 C1225 1.327 . S
C1223 H1246 0.950 . S
C1224 C1223 1.349 . S
C1224 C1236 1.349 . S
C1225 C1223 1.327 . S
C1225 C1241 1.429 . S
C1225 H1247 0.950 . S
C1226 H1222 0.949 . S
C1226 C1234 1.574 1_655 S
C1226 C1242 1.368 . S
H1227 C1235 0.950 . S
H1228 C1233 0.950 . S
H1229 C1234 0.949 . S
H1230 C1236 0.950 . S
H1231 C1237 0.950 . S
H1232 C1238 0.949 . S
C1233 H1228 0.950 . S
C1233 C1235 1.327 . S
C1233 C1239 1.429 . S
C1234 C1226 1.574 1_455 S
C1234 H1229 0.949 . S
C1234 C1240 1.368 . S
C1235 C1219 1.349 . S
C1235 H1227 0.950 . S
C1235 C1233 1.327 . S
C1236 C1224 1.349 . S
C1236 H1230 0.950 . S
C1236 C1237 1.327 . S
C1237 H1231 0.950 . S
C1237 C1236 1.327 . S
C1237 C1241 1.429 . S
C1238 C1221 1.574 1_655 S
C1238 H1232 0.949 . S
C1238 C1242 1.368 . S
C1239 C1220 1.429 . S
C1239 C1233 1.429 . S
C1239 C1240 1.523 . S
C1240 C1221 1.368 . S
C1240 C1234 1.368 . S
C1240 C1239 1.523 . S
C1241 C1225 1.429 . S
C1241 C1237 1.429 . S
C1241 C1242 1.523 . S
C1242 C1226 1.368 . S
C1242 C1238 1.368 . S
C1242 C1241 1.523 . S
H1243 C1218 0.950 . S
H1244 C1220 0.950 . S
H1245 C1221 0.949 . S
H1246 C1223 0.950 . S
H1247 C1225 0.950 . S
C1248 C1249 1.349 . S
C1248 C1250 1.327 . S
C1248 H1273 0.950 . S
C1249 C1248 1.349 . S
C1249 C1265 1.349 . S
C1250 C1248 1.327 . S
C1250 C1269 1.429 . S
C1250 H1274 0.950 . S
C1251 C1268 1.574 . S
C1251 C1270 1.368 . S
C1251 H1275 0.949 . S
H1252 C1256 0.949 . S
C1253 C1254 1.349 . S
C1253 C1255 1.327 . S
C1253 H1276 0.950 . S
C1254 C1253 1.349 . S
C1254 C1266 1.349 . S
C1255 C1253 1.327 . S
C1255 C1271 1.429 . S
C1255 H1277 0.950 . S
C1256 H1252 0.949 . S
C1256 C1264 1.574 . S
C1256 C1272 1.368 . S
H1257 C1265 0.950 . S
H1258 C1263 0.950 . S
H1259 C1264 0.949 . S
H1260 C1266 0.950 . S
H1261 C1267 0.950 . S
H1262 C1268 0.949 . S
C1263 H1258 0.950 . S
C1263 C1265 1.327 . S
C1263 C1269 1.429 . S
C1264 C1256 1.574 . S
C1264 H1259 0.949 . S
C1264 C1270 1.368 . S
C1265 C1249 1.349 . S
C1265 H1257 0.950 . S
C1265 C1263 1.327 . S
C1266 C1254 1.349 . S
C1266 H1260 0.950 . S
C1266 C1267 1.327 . S
C1267 H1261 0.950 . S
C1267 C1266 1.327 . S
C1267 C1271 1.429 . S
C1268 C1251 1.574 . S
C1268 H1262 0.949 . S
C1268 C1272 1.368 . S
C1269 C1250 1.429 . S
C1269 C1263 1.429 . S
C1269 C1270 1.523 . S
C1270 C1251 1.368 . S
C1270 C1264 1.368 . S
C1270 C1269 1.523 . S
C1271 C1255 1.429 . S
C1271 C1267 1.429 . S
C1271 C1272 1.523 . S
C1272 C1256 1.368 . S
C1272 C1268 1.368 . S
C1272 C1271 1.523 . S
H1273 C1248 0.950 . S
H1274 C1250 0.950 . S
H1275 C1251 0.949 . S
H1276 C1253 0.950 . S
H1277 C1255 0.950 . S
C1278 C1279 1.349 . S
C1278 C1280 1.327 . S
C1278 H1303 0.950 . S
C1279 C1278 1.349 . S
C1279 C1295 1.349 . S
C1280 C1278 1.327 . S
C1280 C1299 1.429 . S
C1280 H1304 0.950 . S
C1281 C1298 1.574 1_655 S
C1281 C1300 1.368 . S
C1281 H1305 0.949 . S
H1282 C1286 0.949 . S
C1283 C1284 1.349 . S
C1283 C1285 1.327 . S
C1283 H1306 0.950 . S
C1284 C1283 1.349 . S
C1284 C1296 1.349 . S
C1285 C1283 1.327 . S
C1285 C1301 1.429 . S
C1285 H1307 0.950 . S
C1286 H1282 0.949 . S
C1286 C1294 1.574 1_455 S
C1286 C1302 1.368 . S
H1287 C1295 0.950 . S
H1288 C1293 0.950 . S
H1289 C1294 0.949 . S
H1290 C1296 0.950 . S
H1291 C1297 0.950 . S
H1292 C1298 0.949 . S
C1293 H1288 0.950 . S
C1293 C1295 1.327 . S
C1293 C1299 1.429 . S
C1294 C1286 1.574 1_655 S
C1294 H1289 0.949 . S
C1294 C1300 1.368 . S
C1295 C1279 1.349 . S
C1295 H1287 0.950 . S
C1295 C1293 1.327 . S
C1296 C1284 1.349 . S
C1296 H1290 0.950 . S
C1296 C1297 1.327 . S
C1297 H1291 0.950 . S
C1297 C1296 1.327 . S
C1297 C1301 1.429 . S
C1298 C1281 1.574 1_455 S
C1298 H1292 0.949 . S
C1298 C1302 1.368 . S
C1299 C1280 1.429 . S
C1299 C1293 1.429 . S
C1299 C1300 1.523 . S
C1300 C1281 1.368 . S
C1300 C1294 1.368 . S
C1300 C1299 1.523 . S
C1301 C1285 1.429 . S
C1301 C1297 1.429 . S
C1301 C1302 1.523 . S
C1302 C1286 1.368 . S
C1302 C1298 1.368 . S
C1302 C1301 1.523 . S
H1303 C1278 0.950 . S
H1304 C1280 0.950 . S
H1305 C1281 0.949 . S
H1306 C1283 0.950 . S
H1307 C1285 0.950 . S
C1308 C1309 1.349 . S
C1308 C1310 1.327 . S
C1308 H1333 0.950 . S
C1309 C1308 1.349 . S
C1309 C1325 1.349 . S
C1310 C1308 1.327 . S
C1310 C1329 1.429 . S
C1310 H1334 0.950 . S
C1311 C1328 1.574 1_545 S
C1311 C1330 1.368 . S
C1311 H1335 0.949 . S
H1312 C1316 0.949 . S
C1313 C1314 1.349 . S
C1313 C1315 1.327 . S
C1313 H1336 0.950 . S
C1314 C1313 1.349 . S
C1314 C1326 1.349 . S
C1315 C1313 1.327 . S
C1315 C1331 1.429 . S
C1315 H1337 0.950 . S
C1316 H1312 0.949 . S
C1316 C1324 1.574 1_565 S
C1316 C1332 1.368 . S
H1317 C1325 0.950 . S
H1318 C1323 0.950 . S
H1319 C1324 0.949 . S
H1320 C1326 0.950 . S
H1321 C1327 0.950 . S
H1322 C1328 0.949 . S
C1323 H1318 0.950 . S
C1323 C1325 1.327 . S
C1323 C1329 1.429 . S
C1324 C1316 1.574 1_545 S
C1324 H1319 0.949 . S
C1324 C1330 1.368 . S
C1325 C1309 1.349 . S
C1325 H1317 0.950 . S
C1325 C1323 1.327 . S
C1326 C1314 1.349 . S
C1326 H1320 0.950 . S
C1326 C1327 1.327 . S
C1327 H1321 0.950 . S
C1327 C1326 1.327 . S
C1327 C1331 1.429 . S
C1328 C1311 1.574 1_565 S
C1328 H1322 0.949 . S
C1328 C1332 1.368 . S
C1329 C1310 1.429 . S
C1329 C1323 1.429 . S
C1329 C1330 1.523 . S
C1330 C1311 1.368 . S
C1330 C1324 1.368 . S
C1330 C1329 1.523 . S
C1331 C1315 1.429 . S
C1331 C1327 1.429 . S
C1331 C1332 1.523 . S
C1332 C1316 1.368 . S
C1332 C1328 1.368 . S
C1332 C1331 1.523 . S
H1333 C1308 0.950 . S
H1334 C1310 0.950 . S
H1335 C1311 0.949 . S
H1336 C1313 0.950 . S
H1337 C1315 0.950 . S
C1338 C1339 1.349 . S
C1338 C1340 1.327 . S
C1338 H1363 0.950 . S
C1339 C1338 1.349 . S
C1339 C1355 1.349 . S
C1340 C1338 1.327 . S
C1340 C1359 1.429 . S
C1340 H1364 0.950 . S
C1341 C1358 1.574 . S
C1341 C1360 1.368 . S
C1341 H1365 0.949 . S
H1342 C1346 0.949 . S
C1343 C1344 1.349 . S
C1343 C1345 1.327 . S
C1343 H1366 0.950 . S
C1344 C1343 1.349 . S
C1344 C1356 1.349 . S
C1345 C1343 1.327 . S
C1345 C1361 1.429 . S
C1345 H1367 0.950 . S
C1346 H1342 0.949 . S
C1346 C1354 1.574 . S
C1346 C1362 1.368 . S
H1347 C1355 0.950 . S
H1348 C1353 0.950 . S
H1349 C1354 0.949 . S
H1350 C1356 0.950 . S
H1351 C1357 0.950 . S
H1352 C1358 0.949 . S
C1353 H1348 0.950 . S
C1353 C1355 1.327 . S
C1353 C1359 1.429 . S
C1354 C1346 1.574 . S
C1354 H1349 0.949 . S
C1354 C1360 1.368 . S
C1355 C1339 1.349 . S
C1355 H1347 0.950 . S
C1355 C1353 1.327 . S
C1356 C1344 1.349 . S
C1356 H1350 0.950 . S
C1356 C1357 1.327 . S
C1357 H1351 0.950 . S
C1357 C1356 1.327 . S
C1357 C1361 1.429 . S
C1358 C1341 1.574 . S
C1358 H1352 0.949 . S
C1358 C1362 1.368 . S
C1359 C1340 1.429 . S
C1359 C1353 1.429 . S
C1359 C1360 1.523 . S
C1360 C1341 1.368 . S
C1360 C1354 1.368 . S
C1360 C1359 1.523 . S
C1361 C1345 1.429 . S
C1361 C1357 1.429 . S
C1361 C1362 1.523 . S
C1362 C1346 1.368 . S
C1362 C1358 1.368 . S
C1362 C1361 1.523 . S
H1363 C1338 0.950 . S
H1364 C1340 0.950 . S
H1365 C1341 0.949 . S
H1366 C1343 0.950 . S
H1367 C1345 0.950 . S
C1368 C1369 1.349 . S
C1368 C1370 1.327 . S
C1368 H1393 0.950 . S
C1369 C1368 1.349 . S
C1369 C1385 1.349 . S
C1370 C1368 1.327 . S
C1370 C1389 1.429 . S
C1370 H1394 0.950 . S
C1371 C1388 1.574 1_455 S
C1371 C1390 1.368 . S
C1371 H1395 0.949 . S
H1372 C1376 0.949 . S
C1373 C1374 1.349 . S
C1373 C1375 1.327 . S
C1373 H1396 0.950 . S
C1374 C1373 1.349 . S
C1374 C1386 1.349 . S
C1375 C1373 1.327 . S
C1375 C1391 1.429 . S
C1375 H1397 0.950 . S
C1376 H1372 0.949 . S
C1376 C1384 1.574 1_655 S
C1376 C1392 1.368 . S
H1377 C1385 0.950 . S
H1378 C1383 0.950 . S
H1379 C1384 0.949 . S
H1380 C1386 0.950 . S
H1381 C1387 0.950 . S
H1382 C1388 0.949 . S
C1383 H1378 0.950 . S
C1383 C1385 1.327 . S
C1383 C1389 1.429 . S
C1384 C1376 1.574 1_455 S
C1384 H1379 0.949 . S
C1384 C1390 1.368 . S
C1385 C1369 1.349 . S
C1385 H1377 0.950 . S
C1385 C1383 1.327 . S
C1386 C1374 1.349 . S
C1386 H1380 0.950 . S
C1386 C1387 1.327 . S
C1387 H1381 0.950 . S
C1387 C1386 1.327 . S
C1387 C1391 1.429 . S
C1388 C1371 1.574 1_655 S
C1388 H1382 0.949 . S
C1388 C1392 1.368 . S
C1389 C1370 1.429 . S
C1389 C1383 1.429 . S
C1389 C1390 1.523 . S
C1390 C1371 1.368 . S
C1390 C1384 1.368 . S
C1390 C1389 1.523 . S
C1391 C1375 1.429 . S
C1391 C1387 1.429 . S
C1391 C1392 1.523 . S
C1392 C1376 1.368 . S
C1392 C1388 1.368 . S
C1392 C1391 1.523 . S
H1393 C1368 0.950 . S
H1394 C1370 0.950 . S
H1395 C1371 0.949 . S
H1396 C1373 0.950 . S
H1397 C1375 0.950 . S
C1398 C1399 1.349 . S
C1398 C1400 1.327 . S
C1398 H1423 0.950 . S
C1399 C1398 1.349 . S
C1399 C1415 1.349 . S
C1400 C1398 1.327 . S
C1400 C1419 1.429 . S
C1400 H1424 0.950 . S
C1401 C1418 1.574 1_565 S
C1401 C1420 1.368 . S
C1401 H1425 0.949 . S
H1402 C1406 0.949 . S
C1403 C1404 1.349 . S
C1403 C1405 1.327 . S
C1403 H1426 0.950 . S
C1404 C1403 1.349 . S
C1404 C1416 1.349 . S
C1405 C1403 1.327 . S
C1405 C1421 1.429 . S
C1405 H1427 0.950 . S
C1406 H1402 0.949 . S
C1406 C1414 1.574 1_545 S
C1406 C1422 1.368 . S
H1407 C1415 0.950 . S
H1408 C1413 0.950 . S
H1409 C1414 0.949 . S
H1410 C1416 0.950 . S
H1411 C1417 0.950 . S
H1412 C1418 0.949 . S
C1413 H1408 0.950 . S
C1413 C1415 1.327 . S
C1413 C1419 1.429 . S
C1414 C1406 1.574 1_565 S
C1414 H1409 0.949 . S
C1414 C1420 1.368 . S
C1415 C1399 1.349 . S
C1415 H1407 0.950 . S
C1415 C1413 1.327 . S
C1416 C1404 1.349 . S
C1416 H1410 0.950 . S
C1416 C1417 1.327 . S
C1417 H1411 0.950 . S
C1417 C1416 1.327 . S
C1417 C1421 1.429 . S
C1418 C1401 1.574 1_545 S
C1418 H1412 0.949 . S
C1418 C1422 1.368 . S
C1419 C1400 1.429 . S
C1419 C1413 1.429 . S
C1419 C1420 1.523 . S
C1420 C1401 1.368 . S
C1420 C1414 1.368 . S
C1420 C1419 1.523 . S
C1421 C1405 1.429 . S
C1421 C1417 1.429 . S
C1421 C1422 1.523 . S
C1422 C1406 1.368 . S
C1422 C1418 1.368 . S
C1422 C1421 1.523 . S
H1423 C1398 0.950 . S
H1424 C1400 0.950 . S
H1425 C1401 0.949 . S
H1426 C1403 0.950 . S
H1427 C1405 0.950 . S
C709 C593 1.314 . S
C714 C3 1.315 . S
C739 C62 1.315 . S
C744 C652 1.315 . S
C769 C121 1.314 . S
C774 C357 1.315 . S
C799 C180 1.313 . S
C804 C416 1.314 . S
C829 C475 1.313 . S
C834 C239 1.313 . S
C859 C298 1.314 . S
C864 C534 1.313 . S
C889 C505 1.190 . S
C894 C33 1.190 . S
C919 C92 1.193 . S
C924 C564 1.193 . S
C949 C151 1.194 . S
C954 C623 1.194 . S
C979 C210 1.193 . S
C984 C682 1.193 . S
C1009 C387 1.190 . S
C1014 C269 1.189 . S
C1039 C446 1.188 . S
C1044 C328 1.188 . S
C1069 C229 1.678 . S
C1074 C52 1.678 . S
C1099 C111 1.679 . S
C1104 C288 1.679 . S
C1129 C347 1.678 . S
C1134 C170 1.678 . S
C1159 C583 1.678 . S
C1164 C406 1.678 . S
C1189 C642 1.678 . S
C1194 C465 1.678 . S
C1219 C524 1.679 . S
C1224 C701 1.679 . S
C1249 C182 1.246 . S
C1254 C5 1.246 . S
C1279 C64 1.247 . S
C1284 C241 1.247 . S
C1309 C300 1.246 . S
C1314 C123 1.246 . S
C1339 C359 1.246 . S
C1344 C536 1.246 . S
C1369 C595 1.246 . S
C1374 C418 1.246 . S
C1399 C477 1.247 . S
C1404 C654 1.247 . S
