# Generated by pormake.
# Topology uol, (4)-cn, num edge types: 1
# Building blocks:
#     Node 0, Type 0, BuildingBlock: TATPOV_clean_sbu_0, # of connection points: 4
#     Node 1, Type 0, BuildingBlock: TATPOV_clean_sbu_0, # of connection points: 4
#     Node 2, Type 0, BuildingBlock: TATPOV_clean_sbu_0, # of connection points: 4
#     Node 3, Type 0, BuildingBlock: TATPOV_clean_sbu_0, # of connection points: 4
#     Node 4, Type 0, BuildingBlock: TATPOV_clean_sbu_0, # of connection points: 4
#     Node 5, Type 0, BuildingBlock: TATPOV_clean_sbu_0, # of connection points: 4
#     Node 6, Type 0, BuildingBlock: TATPOV_clean_sbu_0, # of connection points: 4
#     Node 7, Type 0, BuildingBlock: TATPOV_clean_sbu_0, # of connection points: 4
#     Node 8, Type 0, BuildingBlock: TATPOV_clean_sbu_0, # of connection points: 4
#     Node 9, Type 0, BuildingBlock: TATPOV_clean_sbu_0, # of connection points: 4
#     Node 10, Type 0, BuildingBlock: TATPOV_clean_sbu_0, # of connection points: 4
#     Node 11, Type 0, BuildingBlock: TATPOV_clean_sbu_0, # of connection points: 4
#     Edge 12, Type (0, 0), BuildingBlock: KIFKEQ_clean_linker_1, # of connection points: 2
#     Edge 13, Type (0, 0), BuildingBlock: KIFKEQ_clean_linker_1, # of connection points: 2
#     Edge 14, Type (0, 0), BuildingBlock: KIFKEQ_clean_linker_1, # of connection points: 2
#     Edge 15, Type (0, 0), BuildingBlock: KIFKEQ_clean_linker_1, # of connection points: 2
#     Edge 16, Type (0, 0), BuildingBlock: KIFKEQ_clean_linker_1, # of connection points: 2
#     Edge 17, Type (0, 0), BuildingBlock: KIFKEQ_clean_linker_1, # of connection points: 2
#     Edge 18, Type (0, 0), BuildingBlock: KIFKEQ_clean_linker_1, # of connection points: 2
#     Edge 19, Type (0, 0), BuildingBlock: KIFKEQ_clean_linker_1, # of connection points: 2
#     Edge 20, Type (0, 0), BuildingBlock: KIFKEQ_clean_linker_1, # of connection points: 2
#     Edge 21, Type (0, 0), BuildingBlock: KIFKEQ_clean_linker_1, # of connection points: 2
#     Edge 22, Type (0, 0), BuildingBlock: KIFKEQ_clean_linker_1, # of connection points: 2
#     Edge 23, Type (0, 0), BuildingBlock: KIFKEQ_clean_linker_1, # of connection points: 2
#     Edge 24, Type (0, 0), BuildingBlock: KIFKEQ_clean_linker_1, # of connection points: 2
#     Edge 25, Type (0, 0), BuildingBlock: KIFKEQ_clean_linker_1, # of connection points: 2
#     Edge 26, Type (0, 0), BuildingBlock: KIFKEQ_clean_linker_1, # of connection points: 2
#     Edge 27, Type (0, 0), BuildingBlock: KIFKEQ_clean_linker_1, # of connection points: 2
#     Edge 28, Type (0, 0), BuildingBlock: KIFKEQ_clean_linker_1, # of connection points: 2
#     Edge 29, Type (0, 0), BuildingBlock: KIFKEQ_clean_linker_1, # of connection points: 2
#     Edge 30, Type (0, 0), BuildingBlock: KIFKEQ_clean_linker_1, # of connection points: 2
#     Edge 31, Type (0, 0), BuildingBlock: KIFKEQ_clean_linker_1, # of connection points: 2
#     Edge 32, Type (0, 0), BuildingBlock: KIFKEQ_clean_linker_1, # of connection points: 2
#     Edge 33, Type (0, 0), BuildingBlock: KIFKEQ_clean_linker_1, # of connection points: 2
#     Edge 34, Type (0, 0), BuildingBlock: KIFKEQ_clean_linker_1, # of connection points: 2
#     Edge 35, Type (0, 0), BuildingBlock: KIFKEQ_clean_linker_1, # of connection points: 2
# Relax obj value: 0.214
# Max RMSD: 0.261
# Mean RMSD: 0.261
data_MOF--net-uol--node1-TATPOV_clean_sbu_0--edge1-KIFKEQ_clean_linker_1
_symmetry_space_group_name_H-M    P1
_symmetry_Int_Tables_number       1
_symmetry_cell_setting            triclinic
loop_
_symmetry_equiv_pos_as_xyz
'x, y, z'
_cell_length_a     33.686173
_cell_length_b     33.766539
_cell_length_c     63.790785
_cell_angle_alpha  89.986598
_cell_angle_beta   90.049775
_cell_angle_gamma 119.98576
loop_
_atom_site_label
_atom_site_type_symbol
_atom_site_fract_x
_atom_site_fract_y
_atom_site_fract_z
_atom_type_partial_charge
Zn0 Zn 0.13302 0.26657 0.06214 0.0
Zn1 Zn 0.16772 0.35537 0.06913 0.0
O2 O 0.18337 0.35153 0.03776 0.0
O3 O 0.14783 0.27741 0.03169 0.0
O4 O 0.18625 0.42171 0.07386 0.0
O5 O 0.07027 0.25064 0.07216 0.0
O6 O 0.09968 0.32398 0.07862 0.0
C7 C 0.1719 0.31805 0.02523 0.0
C8 C 0.20755 0.30519 0.09273 0.0
O9 O 0.20662 0.34206 0.08972 0.0
O10 O 0.18063 0.26927 0.08263 0.0
C11 C 0.21076 0.45547 0.06194 0.0
O12 O 0.22898 0.44904 0.045 0.0
C13 C 0.06567 0.2833 0.07896 0.0
Zn14 Zn 0.86829 0.12332 0.23273 0.0
Zn15 Zn 0.81477 0.15882 0.23835 0.0
O16 O 0.83541 0.1733 0.20704 0.0
O17 O 0.87325 0.13652 0.20213 0.0
O18 O 0.76644 0.17724 0.24146 0.0
O19 O 0.82131 0.06125 0.24317 0.0
O20 O 0.77733 0.09128 0.24819 0.0
C21 C 0.85741 0.16079 0.19501 0.0
C22 C 0.90391 0.1988 0.26267 0.0
O23 O 0.86618 0.19804 0.25934 0.0
O24 O 0.91299 0.17157 0.25292 0.0
C25 C 0.76607 0.21148 0.23337 0.0
O26 O 0.80133 0.24089 0.2222 0.0
C27 C 0.78376 0.05718 0.2493 0.0
Zn28 Zn 0.72042 0.87086 0.40863 0.0
Zn29 Zn 0.63185 0.8147 0.41092 0.0
O30 O 0.6454 0.83507 0.37947 0.0
O31 O 0.72066 0.87312 0.3775 0.0
O32 O 0.56433 0.76602 0.41172 0.0
O33 O 0.73555 0.82801 0.42358 0.0
O34 O 0.66146 0.77955 0.4244 0.0
C35 C 0.68202 0.85648 0.36865 0.0
C36 C 0.6733 0.90511 0.43421 0.0
O37 O 0.63851 0.86577 0.43085 0.0
O38 O 0.71129 0.9163 0.42551 0.0
C39 C 0.53744 0.75281 0.39598 0.0
O40 O 0.55259 0.77314 0.37782 0.0
C41 C 0.70238 0.78952 0.42884 0.0
Zn42 Zn 0.80652 0.73466 0.58278 0.0
Zn43 Zn 0.78337 0.60677 0.58448 0.0
O44 O 0.75927 0.60744 0.55458 0.0
O45 O 0.78051 0.67302 0.56809 0.0
O46 O 0.79052 0.55133 0.5869 0.0
O47 O 0.86857 0.7411 0.59078 0.0
O48 O 0.84817 0.66634 0.59101 0.0
C49 C 0.76474 0.64705 0.55227 0.0
C50 C 0.74122 0.64201 0.60678 0.0
O51 O 0.73683 0.60252 0.60671 0.0
O52 O 0.76753 0.66901 0.59282 0.0
C53 C 0.75588 0.51164 0.58465 0.0
O54 O 0.71563 0.50759 0.58096 0.0
C55 C 0.87827 0.70909 0.59337 0.0
Zn56 Zn 0.13158 0.86787 0.72387 0.0
Zn57 Zn 0.17154 0.82175 0.73334 0.0
O58 O 0.14807 0.80403 0.70238 0.0
O59 O 0.12623 0.85319 0.69347 0.0
O60 O 0.21352 0.79558 0.73776 0.0
O61 O 0.18151 0.92834 0.7338 0.0
O62 O 0.21488 0.88929 0.74293 0.0
C63 C 0.13286 0.82068 0.68866 0.0
C64 C 0.08302 0.7945 0.75501 0.0
O65 O 0.11752 0.78867 0.75365 0.0
O66 O 0.08122 0.82474 0.74388 0.0
C67 C 0.24394 0.80468 0.72384 0.0
O68 O 0.24416 0.8273 0.70703 0.0
C69 C 0.21482 0.92704 0.74219 0.0
Zn70 Zn 0.25642 0.14237 0.89254 0.0
Zn71 Zn 0.34459 0.18274 0.90068 0.0
O72 O 0.33734 0.15907 0.8698 0.0
O73 O 0.26404 0.13006 0.86275 0.0
O74 O 0.41321 0.22373 0.90484 0.0
O75 O 0.24976 0.19625 0.89992 0.0
O76 O 0.32192 0.2277 0.90946 0.0
C77 C 0.30379 0.13972 0.85702 0.0
C78 C 0.28209 0.09883 0.92574 0.0
O79 O 0.32312 0.1304 0.92212 0.0
O80 O 0.24921 0.09714 0.91528 0.0
C81 C 0.44377 0.2314 0.89117 0.0
O82 O 0.43168 0.2088 0.87338 0.0
C83 C 0.2849 0.22924 0.90811 0.0
Zn84 Zn 0.72208 0.8673 0.75753 0.0
Zn85 Zn 0.63471 0.84027 0.75024 0.0
O86 O 0.63558 0.82269 0.78164 0.0
O87 O 0.70939 0.85221 0.78784 0.0
O88 O 0.56975 0.82637 0.7449 0.0
O89 O 0.74345 0.93128 0.74781 0.0
O90 O 0.67104 0.90856 0.74141 0.0
C91 C 0.66839 0.83123 0.79424 0.0
C92 C 0.67991 0.79524 0.72635 0.0
O93 O 0.64497 0.79977 0.72934 0.0
O94 O 0.71627 0.81896 0.73684 0.0
C95 C 0.53307 0.79456 0.75295 0.0
O96 O 0.53534 0.76573 0.76606 0.0
C97 C 0.71311 0.93982 0.7412 0.0
Zn98 Zn 0.83621 0.71745 0.912 0.0
Zn99 Zn 0.78664 0.63065 0.90502 0.0
O100 O 0.81678 0.63422 0.93407 0.0
O101 O 0.86389 0.70817 0.93785 0.0
O102 O 0.73822 0.564 0.90281 0.0
O103 O 0.78402 0.7303 0.91274 0.0
O104 O 0.74624 0.66044 0.90032 0.0
C105 C 0.84819 0.66767 0.94431 0.0
C106 C 0.86088 0.68633 0.87405 0.0
O107 O 0.83203 0.64617 0.88039 0.0
O108 O 0.86651 0.721 0.88425 0.0
C109 C 0.74172 0.52964 0.89741 0.0
O110 O 0.78185 0.5355 0.89185 0.0
C111 C 0.74816 0.69831 0.90448 0.0
Zn112 Zn 0.103 0.83644 0.08006 0.0
Zn113 Zn 0.15328 0.79844 0.07256 0.0
O114 O 0.16776 0.82153 0.10352 0.0
O115 O 0.12058 0.84715 0.11023 0.0
O116 O 0.18339 0.75969 0.06885 0.0
O117 O 0.0438 0.78221 0.07117 0.0
O118 O 0.08671 0.7525 0.06295 0.0
C119 C 0.15161 0.83908 0.11624 0.0
C120 C 0.17457 0.88305 0.04811 0.0
O121 O 0.18426 0.85162 0.05156 0.0
O122 O 0.14251 0.88366 0.05827 0.0
C123 C 0.18526 0.73659 0.0842 0.0
O124 O 0.17016 0.74058 0.10261 0.0
C125 C 0.0476 0.74994 0.06326 0.0
Zn126 Zn 0.27768 0.13019 0.24371 0.0
Zn127 Zn 0.36559 0.16148 0.23685 0.0
O128 O 0.36244 0.1782 0.26817 0.0
O129 O 0.28819 0.14479 0.27406 0.0
O130 O 0.4314 0.17694 0.23324 0.0
O131 O 0.25894 0.06678 0.23411 0.0
O132 O 0.33206 0.09327 0.2277 0.0
C133 C 0.32896 0.16771 0.28062 0.0
C134 C 0.31822 0.20346 0.21274 0.0
O135 O 0.35445 0.2011 0.2157 0.0
O136 O 0.28215 0.178 0.22309 0.0
C137 C 0.46752 0.21386 0.23818 0.0
O138 O 0.46398 0.24803 0.24591 0.0
C139 C 0.2907 0.06043 0.22752 0.0
Zn140 Zn 0.15106 0.25703 0.4116 0.0
Zn141 Zn 0.20239 0.34679 0.40874 0.0
O142 O 0.17812 0.33429 0.43961 0.0
O143 O 0.14113 0.25925 0.44216 0.0
O144 O 0.24844 0.41461 0.40905 0.0
O145 O 0.20146 0.24639 0.40176 0.0
O146 O 0.2434 0.321 0.3982 0.0
C147 C 0.15534 0.29801 0.45048 0.0
C148 C 0.11607 0.29895 0.38239 0.0
O149 O 0.15246 0.3361 0.38707 0.0
O150 O 0.10766 0.26167 0.39097 0.0
C151 C 0.24717 0.44636 0.39888 0.0
O152 O 0.2119 0.43641 0.38672 0.0
C153 C 0.23875 0.28126 0.39651 0.0
Zn154 Zn 0.87387 0.12554 0.58401 0.0
Zn155 Zn 0.8473 0.18723 0.58104 0.0
O156 O 0.83522 0.16644 0.61223 0.0
O157 O 0.86316 0.12003 0.61492 0.0
O158 O 0.8321 0.23767 0.5798 0.0
O159 O 0.93661 0.16963 0.57286 0.0
O160 O 0.91386 0.22011 0.56973 0.0
C161 C 0.84432 0.14044 0.62326 0.0
C162 C 0.79627 0.09947 0.55597 0.0
O163 O 0.80226 0.13882 0.56053 0.0
O164 O 0.82156 0.08573 0.56418 0.0
C165 C 0.79664 0.23503 0.58817 0.0
O166 O 0.76746 0.19731 0.59794 0.0
C167 C 0.94468 0.20905 0.56751 0.0
H168 H 0.1971 0.70282 0.04709 0.0
H169 H 0.20409 0.69087 0.11424 0.0
H170 H 0.20941 0.63809 0.04229 0.0
H171 H 0.21786 0.62723 0.10947 0.0
H172 H 0.17186 0.47791 0.09393 0.0
H173 H 0.17249 0.54933 0.09933 0.0
H174 H 0.26013 0.60741 0.04528 0.0
H175 H 0.25841 0.53505 0.03949 0.0
C176 C 0.20219 0.68698 0.06081 0.0
C177 C 0.19906 0.70165 0.08105 0.0
C178 C 0.20946 0.64994 0.05807 0.0
C179 C 0.21408 0.62697 0.0755 0.0
C180 C 0.21338 0.64335 0.09569 0.0
C181 C 0.20575 0.68007 0.09843 0.0
C182 C 0.19164 0.50596 0.08327 0.0
C183 C 0.2149 0.50059 0.0662 0.0
C184 C 0.19227 0.54718 0.08646 0.0
C185 C 0.21639 0.58431 0.07275 0.0
C186 C 0.24071 0.57937 0.05599 0.0
C187 C 0.23996 0.53796 0.05275 0.0
H188 H 0.75243 0.28045 0.21883 0.0
H189 H 0.68489 0.15149 0.25189 0.0
H190 H 0.68134 0.28354 0.21978 0.0
H191 H 0.61445 0.1548 0.25285 0.0
H192 H 0.48469 0.146 0.22678 0.0
H193 H 0.55799 0.14835 0.22597 0.0
H194 H 0.62664 0.28983 0.24524 0.0
H195 H 0.55287 0.28768 0.24603 0.0
C196 C 0.72263 0.25298 0.22643 0.0
C197 C 0.72434 0.21558 0.23515 0.0
C198 C 0.68199 0.25486 0.22703 0.0
C199 C 0.64219 0.21918 0.23619 0.0
C200 C 0.64432 0.18245 0.24536 0.0
C201 C 0.68486 0.18073 0.24491 0.0
C202 C 0.51532 0.17777 0.23076 0.0
C203 C 0.51279 0.21661 0.23658 0.0
C204 C 0.55735 0.17899 0.23042 0.0
C205 C 0.59804 0.21913 0.23575 0.0
C206 C 0.59585 0.25844 0.241 0.0
C207 C 0.55359 0.25713 0.24152 0.0
H208 H 0.49543 0.70182 0.43094 0.0
H209 H 0.4746 0.71068 0.36464 0.0
H210 H 0.42237 0.63058 0.43286 0.0
H211 H 0.40217 0.63893 0.36646 0.0
H212 H 0.25759 0.52301 0.3789 0.0
H213 H 0.32443 0.5999 0.37949 0.0
H214 H 0.39326 0.55312 0.42141 0.0
H215 H 0.32639 0.47694 0.42123 0.0
C216 C 0.47517 0.68875 0.41679 0.0
C217 C 0.4911 0.71184 0.3976 0.0
C218 C 0.43337 0.64771 0.41786 0.0
C219 C 0.40652 0.62869 0.39977 0.0
C220 C 0.42168 0.65272 0.38075 0.0
C221 C 0.46343 0.69381 0.37968 0.0
C222 C 0.28686 0.52927 0.38837 0.0
C223 C 0.28662 0.49372 0.39996 0.0
C224 C 0.32528 0.5733 0.38863 0.0
C225 C 0.36433 0.58278 0.40047 0.0
C226 C 0.36362 0.54736 0.41236 0.0
C227 C 0.32528 0.50346 0.41213 0.0
H228 H 0.68914 0.42208 0.58015 0.0
H229 H 0.83433 0.50842 0.59147 0.0
H230 H 0.69817 0.35477 0.58089 0.0
H231 H 0.84313 0.44111 0.59257 0.0
H232 H 0.85061 0.31748 0.56925 0.0
H233 H 0.83981 0.38354 0.56854 0.0
H234 H 0.71594 0.30923 0.60499 0.0
H235 H 0.72627 0.24263 0.60541 0.0
C236 C 0.72294 0.4267 0.58291 0.0
C237 C 0.76104 0.47064 0.58568 0.0
C238 C 0.72805 0.38809 0.58344 0.0
C239 C 0.77139 0.39259 0.58672 0.0
C240 C 0.80939 0.43652 0.58969 0.0
C241 C 0.80429 0.47509 0.58919 0.0
C242 C 0.82098 0.31511 0.57709 0.0
C243 C 0.78933 0.27476 0.58742 0.0
C244 C 0.81497 0.35312 0.57679 0.0
C245 C 0.77717 0.35175 0.58681 0.0
C246 C 0.74521 0.31124 0.59696 0.0
C247 C 0.75124 0.27315 0.59728 0.0
H248 H 0.44739 0.73174 0.76734 0.0
H249 H 0.51778 0.85049 0.72746 0.0
H250 H 0.37461 0.72829 0.7596 0.0
H251 H 0.4457 0.84768 0.72017 0.0
H252 H 0.30759 0.81149 0.69554 0.0
H253 H 0.37468 0.80391 0.7019 0.0
H254 H 0.33425 0.7698 0.76662 0.0
H255 H 0.2662 0.77623 0.76008 0.0
C256 C 0.44738 0.75707 0.75692 0.0
C257 C 0.48848 0.79136 0.74801 0.0
C258 C 0.40568 0.75522 0.75257 0.0
C259 C 0.40417 0.78758 0.73919 0.0
C260 C 0.44532 0.82165 0.73023 0.0
C261 C 0.48684 0.82347 0.73454 0.0
C262 C 0.31267 0.80187 0.71109 0.0
C263 C 0.28171 0.79487 0.72735 0.0
C264 C 0.35136 0.79781 0.71477 0.0
C265 C 0.36034 0.78694 0.73486 0.0
C266 C 0.32831 0.77797 0.75093 0.0
C267 C 0.28936 0.7818 0.74721 0.0
H268 H 0.47919 0.28827 0.92506 0.0
H269 H 0.51565 0.26241 0.86369 0.0
H270 H 0.55373 0.35753 0.92786 0.0
H271 H 0.58994 0.33218 0.86638 0.0
H272 H 0.73354 0.44811 0.88455 0.0
H273 H 0.66438 0.37254 0.88472 0.0
H274 H 0.58737 0.43173 0.91067 0.0
H275 H 0.65599 0.50656 0.91077 0.0
C276 C 0.50325 0.29705 0.91225 0.0
C277 C 0.49119 0.26999 0.89405 0.0
C278 C 0.5459 0.33694 0.91381 0.0
C279 C 0.57756 0.35075 0.89722 0.0
C280 C 0.56647 0.32244 0.87948 0.0
C281 C 0.52374 0.28251 0.87791 0.0
C282 C 0.70186 0.44488 0.89037 0.0
C283 C 0.70036 0.48345 0.89762 0.0
C284 C 0.66223 0.40163 0.8904 0.0
C285 C 0.62039 0.39604 0.89782 0.0
C286 C 0.61914 0.4346 0.9052 0.0
C287 C 0.65852 0.47768 0.90508 0.0
H288 H 0.26362 0.2413 0.21183 0.0
H289 H 0.36684 0.23094 0.17606 0.0
H290 H 0.24896 0.27755 0.18211 0.0
H291 H 0.35163 0.2669 0.14605 0.0
H292 H 0.24346 0.35902 0.12758 0.0
H293 H 0.28251 0.34613 0.15701 0.0
H294 H 0.27803 0.23251 0.12387 0.0
H295 H 0.23875 0.24493 0.09471 0.0
C296 C 0.28387 0.24769 0.19773 0.0
C297 C 0.31608 0.23296 0.19618 0.0
C298 C 0.27568 0.26874 0.18076 0.0
C299 C 0.29901 0.27485 0.16175 0.0
C300 C 0.33307 0.26243 0.16054 0.0
C301 C 0.3419 0.24207 0.17771 0.0
C302 C 0.25175 0.33196 0.12642 0.0
C303 C 0.23763 0.30266 0.10896 0.0
C304 C 0.27395 0.32453 0.14326 0.0
C305 C 0.28322 0.28828 0.14272 0.0
C306 C 0.27178 0.26098 0.12465 0.0
C307 C 0.24893 0.26787 0.10803 0.0
H308 H -0.00391 0.23379 0.26372 0.0
H309 H 0.88454 0.23001 0.29867 0.0
H310 H 0.04762 0.27076 0.29323 0.0
H311 H 0.93625 0.26651 0.32849 0.0
H312 H 0.13585 0.35341 0.34765 0.0
H313 H 0.08453 0.34144 0.31797 0.0
H314 H 0.97322 0.22963 0.35108 0.0
H315 H 0.02434 0.24093 0.38037 0.0
C316 C 0.98285 0.24178 0.27757 0.0
C317 C 0.93623 0.22867 0.27898 0.0
C318 C 0.01245 0.26325 0.29441 0.0
C319 C -0.00411 0.27134 0.31316 0.0
C320 C 0.94983 0.26056 0.31419 0.0
C321 C 0.92033 0.23985 0.29714 0.0
C322 C 0.10016 0.32704 0.34873 0.0
C323 C 0.08413 0.2978 0.36619 0.0
C324 C 0.07089 0.32012 0.33176 0.0
C325 C 0.02493 0.28461 0.33225 0.0
C326 C 0.0083 0.25755 0.35035 0.0
C327 C 0.03767 0.26381 0.36705 0.0
H328 H 0.75658 0.00738 0.55124 0.0
H329 H 0.75935 0.12631 0.52454 0.0
H330 H 0.71079 0.96137 0.52181 0.0
H331 H 0.71354 0.08 0.49481 0.0
H332 H 0.72489 -0.00233 0.43568 0.0
H333 H 0.7401 0.04564 0.46652 0.0
H334 H 0.63693 0.92957 0.50092 0.0
H335 H 0.62139 0.88141 0.46983 0.0
C336 C 0.74659 0.02348 0.53927 0.0
C337 C 0.76209 0.07057 0.54003 0.0
C338 C 0.71992 -0.00301 0.5225 0.0
C339 C 0.70867 0.01712 0.50598 0.0
C340 C 0.72183 0.06367 0.50733 0.0
C341 C 0.74798 0.0901 0.52434 0.0
C342 C 0.70431 0.98276 0.4496 0.0
C343 C 0.67241 0.93574 0.45047 0.0
C344 C 0.71285 0.0103 0.46725 0.0
C345 C 0.6901 0.9912 0.4862 0.0
C346 C 0.6552 0.94505 0.48653 0.0
C347 C 0.64612 0.91758 0.46872 0.0
H348 H 0.73174 0.71748 0.60705 0.0
H349 H 0.71096 0.60313 0.64533 0.0
H350 H 0.70852 0.74793 0.63641 0.0
H351 H 0.68859 0.63419 0.67482 0.0
H352 H 0.62909 0.76829 0.69027 0.0
H353 H 0.63689 0.72562 0.66095 0.0
H354 H 0.73825 0.71044 0.69589 0.0
H355 H 0.73128 0.7537 0.72491 0.0
C356 C 0.72179 0.69867 0.62168 0.0
C357 C 0.72338 0.65809 0.62395 0.0
C358 C 0.70825 0.71593 0.63841 0.0
C359 C 0.69681 0.69337 0.65784 0.0
C360 C 0.69734 0.65222 0.65998 0.0
C361 C 0.71004 0.63447 0.64312 0.0
C362 C 0.65245 0.75517 0.69179 0.0
C363 C 0.67974 0.76447 0.70982 0.0
C364 C 0.65706 0.73102 0.67501 0.0
C365 C 0.68818 0.71484 0.67621 0.0
C366 C 0.71376 0.72224 0.69463 0.0
C367 C 0.70991 0.74717 0.71118 0.0
H368 H 0.89812 0.76216 0.84998 0.0
H369 H 0.88582 0.62881 0.85466 0.0
H370 H 0.94749 0.77963 0.81974 0.0
H371 H 0.93623 0.64675 0.82388 0.0
H372 H 0.08146 0.74113 0.78808 0.0
H373 H 0.02241 0.70648 0.81534 0.0
H374 H 0.94048 0.75241 0.78269 0.0
H375 H -0.001 0.7872 0.75581 0.0
C376 C 0.90577 0.73637 0.84445 0.0
C377 C 0.88812 0.69411 0.85474 0.0
C378 C 0.93388 0.74632 0.827 0.0
C379 C 0.94551 0.71447 0.81937 0.0
C380 C 0.92776 0.67191 0.82949 0.0
C381 C 0.89879 0.66157 0.84695 0.0
C382 C 0.05047 0.74311 0.78658 0.0
C383 C 0.04536 0.76776 0.77002 0.0
C384 C 0.0166 0.72306 0.80211 0.0
C385 C 0.9772 0.72735 0.80125 0.0
C386 C 0.97086 0.74925 0.78393 0.0
C387 C 0.0045 0.76926 0.76855 0.0
H388 H 0.16007 0.95273 0.03741 0.0
H389 H 0.24232 0.89187 0.02089 0.0
H390 H 0.19123 0.00439 0.00781 0.0
H391 H 0.27398 0.94469 -0.00899 0.0
H392 H 0.34177 0.08989 0.95249 0.0
H393 H 0.32139 0.03808 0.98274 0.0
H394 H 0.1781 0.981 0.96789 0.0
H395 H 0.19779 0.03158 0.93794 0.0
C396 C 0.18519 0.9506 0.02762 0.0
C397 C 0.19819 0.91762 0.03141 0.0
C398 C 0.20299 0.98027 0.01063 0.0
C399 C 0.23453 0.97809 -0.00296 0.0
C400 C 0.24965 0.94695 0.00132 0.0
C401 C 0.23143 0.91673 0.01835 0.0
C402 C 0.30599 0.06588 0.95557 0.0
C403 C 0.27143 0.06528 0.94289 0.0
C404 C 0.29442 0.03624 0.97281 0.0
C405 C 0.24821 0.00607 0.97771 0.0
C406 C 0.21398 0.00438 0.96459 0.0
C407 C 0.22539 0.03341 0.94738 0.0
H408 H 0.25688 0.38221 0.01097 0.0
H409 H 0.12799 0.26767 -0.00881 0.0
H410 H 0.29192 0.37875 0.97777 0.0
H411 H 0.16231 0.26395 0.95844 0.0
H412 H 0.22153 0.25538 0.90088 0.0
H413 H 0.19845 0.29562 0.9253 0.0
H414 H 0.31169 0.32136 0.96583 0.0
H415 H 0.33559 0.28242 0.94105 0.0
C416 C 0.23569 0.35746 -0.00079 0.0
C417 C 0.18987 0.32496 0.00364 0.0
C418 C 0.25579 0.35519 0.98031 0.0
C419 C 0.23009 0.32086 0.96548 0.0
C420 C 0.18317 0.29119 0.96929 0.0
C421 C 0.16342 0.29309 0.98816 0.0
C422 C 0.24243 0.27104 0.91465 0.0
C423 C 0.27978 0.26487 0.91928 0.0
C424 C 0.2291 0.29396 0.92869 0.0
C425 C 0.25244 0.31061 0.9478 0.0
C426 C 0.29289 0.30901 0.95127 0.0
C427 C 0.30657 0.2865 0.93707 0.0
H428 H 0.87299 0.24276 0.17879 0.0
H429 H 0.87071 0.11761 0.16249 0.0
H430 H 0.91198 0.27703 0.14562 0.0
H431 H 0.90981 0.15137 0.12997 0.0
H432 H 0.98035 0.21016 0.07268 0.0
H433 H 0.91497 0.18261 0.09626 0.0
H434 H 0.98995 0.30345 0.13453 0.0
H435 H 0.0544 0.33184 0.11036 0.0
C436 C 0.87948 0.22214 0.16783 0.0
C437 C 0.86936 0.17774 0.17327 0.0
C438 C 0.90218 0.24186 0.14894 0.0
C439 C 0.9146 0.21724 0.13517 0.0
C440 C 0.90056 0.17142 0.13994 0.0
C441 C 0.87834 0.15202 0.15874 0.0
C442 C 0.98226 0.23146 0.08578 0.0
C443 C 0.02279 0.2727 0.08992 0.0
C444 C 0.94487 0.2156 0.09936 0.0
C445 C 0.94758 0.24013 0.11765 0.0
C446 C 0.98646 0.2836 0.12061 0.0
C447 C 0.02362 0.29986 0.10679 0.0
H448 H 0.77445 0.97244 0.24596 0.0
H449 H 0.71891 0.04661 0.27801 0.0
H450 H 0.73414 0.90867 0.27012 0.0
H451 H 0.68006 0.98366 0.3027 0.0
H452 H 0.61745 0.86866 0.34789 0.0
H453 H 0.62729 0.90547 0.31363 0.0
H454 H 0.75548 0.90701 0.30554 0.0
H455 H 0.74524 0.87016 0.33921 0.0
C456 C 0.75284 0.97472 0.25791 0.0
C457 C 0.75063 0.01491 0.26038 0.0
C458 C 0.72985 0.93822 0.27181 0.0
C459 C 0.70481 0.94146 0.28871 0.0
C460 C 0.6989 0.97983 0.28987 0.0
C461 C 0.72142 0.01613 0.27576 0.0
C462 C 0.64682 0.8755 0.33838 0.0
C463 C 0.68088 0.86711 0.34627 0.0
C464 C 0.65269 0.89693 0.31886 0.0
C465 C 0.69242 0.90972 0.30688 0.0
C466 C 0.72421 0.89739 0.31411 0.0
C467 C 0.71855 0.87648 0.33356 0.0
H468 H 0.79514 0.73497 0.54081 0.0
H469 H 0.71424 0.59598 0.51865 0.0
H470 H 0.78027 0.76289 0.50824 0.0
H471 H 0.69873 0.62426 0.48589 0.0
H472 H 0.78542 0.80218 0.44119 0.0
H473 H 0.80063 0.76277 0.46923 0.0
H474 H 0.65555 0.6697 0.47627 0.0
H475 H 0.63986 0.70941 0.44813 0.0
C476 C 0.77421 0.71036 0.52895 0.0
C477 C 0.75591 0.6633 0.53225 0.0
C478 C 0.76593 0.72638 0.51025 0.0
C479 C 0.73863 0.69571 0.49452 0.0
C480 C 0.71992 0.64855 0.4978 0.0
C481 C 0.72891 0.63247 0.51646 0.0
C482 C 0.75664 0.7728 0.44837 0.0
C483 C 0.71132 0.75944 0.44261 0.0
C484 C 0.76545 0.75034 0.46449 0.0
C485 C 0.72924 0.71372 0.4751 0.0
C486 C 0.68407 0.69789 0.46831 0.0
C487 C 0.67514 0.72067 0.45222 0.0
H488 H 0.14641 0.85846 0.64993 0.0
H489 H 0.07226 0.73063 0.68307 0.0
H490 H 0.09326 0.82649 0.62058 0.0
H491 H 0.01699 0.69934 0.65455 0.0
H492 H 0.91307 0.65291 0.60353 0.0
H493 H 0.98601 0.67484 0.62077 0.0
H494 H 0.02013 0.81646 0.61899 0.0
H495 H 0.9491 0.79496 0.60121 0.0
C496 C 0.11959 0.82292 0.65055 0.0
C497 C 0.11322 0.79702 0.66872 0.0
C498 C 0.08859 0.80474 0.63392 0.0
C499 C 0.04959 0.76087 0.63547 0.0
C500 C 0.04637 0.73323 0.65268 0.0
C501 C 0.07821 0.7511 0.66909 0.0
C502 C 0.93667 0.68882 0.60645 0.0
C503 C 0.92479 0.72207 0.6012 0.0
C504 C 0.97846 0.70139 0.61644 0.0
C505 C 0.00921 0.74746 0.62147 0.0
C506 C -0.00187 0.78072 0.61514 0.0
C507 C 0.95677 0.76826 0.60508 0.0
H508 H 0.25309 0.12924 0.82242 0.0
H509 H 0.36498 0.11286 0.84482 0.0
H510 H 0.24816 0.08698 0.79095 0.0
H511 H 0.3604 0.07027 0.81285 0.0
H512 H 0.26489 0.92979 0.77651 0.0
H513 H 0.30258 0.99316 0.80119 0.0
H514 H 0.2805 0.07993 0.75867 0.0
H515 H 0.24136 0.0161 0.73442 0.0
C516 C 0.27756 0.11764 0.8203 0.0
C517 C 0.30909 0.12394 0.83615 0.0
C518 C 0.27501 0.09361 0.80213 0.0
C519 C 0.30375 0.07491 0.79936 0.0
C520 C 0.33753 0.08391 0.81459 0.0
C521 C 0.34041 0.10858 0.8328 0.0
C522 C 0.26947 0.96282 0.77214 0.0
C523 C 0.24929 0.96776 0.75377 0.0
C524 C 0.29123 -0.00072 0.78627 0.0
C525 C 0.29356 0.04136 0.78214 0.0
C526 C 0.27819 0.04763 0.76258 0.0
C527 C 0.25594 0.01111 0.74863 0.0
H528 H 0.59821 0.74949 0.80871 0.0
H529 H 0.72132 0.87137 0.82815 0.0
H530 H 0.59881 0.71174 0.84148 0.0
H531 H 0.72262 0.83425 0.86034 0.0
H532 H 0.73353 0.7686 0.91489 0.0
H533 H 0.69495 0.79869 0.89327 0.0
H534 H 0.64872 0.68304 0.85155 0.0
H535 H 0.68551 0.65216 0.87361 0.0
C536 C 0.62435 0.76873 0.82032 0.0
C537 C 0.66005 0.8131 0.81584 0.0
C538 C 0.62501 0.74702 0.83899 0.0
C539 C 0.66113 0.7696 0.85349 0.0
C540 C 0.69398 0.81566 0.84978 0.0
C541 C 0.69349 0.83703 0.83118 0.0
C542 C 0.71368 0.74878 0.90153 0.0
C543 C 0.71357 0.7086 0.89567 0.0
C544 C 0.69175 0.76614 0.88905 0.0
C545 C 0.66995 0.74412 0.87026 0.0
C546 C 0.66516 0.7011 0.86585 0.0
C547 C 0.68654 0.68339 0.8785 0.0
H548 H 0.93807 0.69892 0.94871 0.0
H549 H 0.80892 0.62094 0.98074 0.0
H550 H 0.97887 0.69891 0.98014 0.0
H551 H 0.85014 0.62166 0.01284 0.0
H552 H 0.95826 0.72975 0.06352 0.0
H553 H 0.9024 0.69105 0.03575 0.0
H554 H -0.0066 0.65206 0.00663 0.0
H555 H 0.0496 0.69099 0.03438 0.0
C556 C 0.91845 0.68088 0.96246 0.0
C557 C 0.87055 0.66012 0.96245 0.0
C558 C 0.94175 0.68049 0.98042 0.0
C559 C 0.91772 0.6601 -0.00104 0.0
C560 C 0.86946 0.63745 -0.00128 0.0
C561 C 0.84593 0.63696 0.98044 0.0
C562 C 0.96575 0.71155 0.05162 0.0
C563 C 0.0089 0.7145 0.05086 0.0
C564 C 0.93351 0.68907 0.03576 0.0
C565 C 0.94395 0.66934 0.01881 0.0
C566 C 0.98477 0.66757 0.01939 0.0
C567 C 0.01692 0.68979 0.03533 0.0
H568 H 0.23658 0.85844 0.13044 0.0
H569 H 0.11311 0.85769 0.14929 0.0
H570 H 0.27512 0.90126 0.16222 0.0
H571 H 0.15128 0.9009 0.18036 0.0
H572 H 0.21741 0.9766 0.23577 0.0
H573 H 0.18641 0.90939 0.21325 0.0
H574 H 0.30336 0.97965 0.17217 0.0
H575 H 0.3353 0.04588 0.19534 0.0
C576 C 0.21734 0.86637 0.14161 0.0
C577 C 0.17204 0.85531 0.13724 0.0
C578 C 0.23951 0.89122 0.15972 0.0
C579 C 0.21659 0.90508 0.1738 0.0
C580 C 0.17011 0.89058 0.17012 0.0
C581 C 0.14818 0.86604 0.15212 0.0
C582 C 0.23713 0.97705 0.22227 0.0
C583 C 0.27831 0.0167 0.21707 0.0
C584 C 0.21927 0.93865 0.20929 0.0
C585 C 0.24166 0.93949 0.19054 0.0
C586 C 0.28512 0.9776 0.18647 0.0
C587 C 0.30344 0.01576 0.19971 0.0
H588 H 0.39411 0.25166 0.29554 0.0
H589 H 0.27788 0.12316 0.31426 0.0
H590 H 0.39028 0.28583 0.32892 0.0
H591 H 0.27339 0.15661 0.34702 0.0
H592 H 0.25917 0.21404 0.4036 0.0
H593 H 0.30064 0.1905 0.38014 0.0
H594 H 0.33567 0.30767 0.34077 0.0
H595 H 0.29622 0.33231 0.36492 0.0
C596 C 0.36888 0.23036 0.30711 0.0
C597 C 0.33599 0.18496 0.30233 0.0
C598 C 0.36635 0.24997 0.32611 0.0
C599 C 0.3312 0.22424 0.34062 0.0
C600 C 0.30127 0.17759 0.33647 0.0
C601 C 0.30358 0.15831 0.31756 0.0
C602 C 0.27715 0.23556 0.39032 0.0
C603 C 0.27378 0.27447 0.38583 0.0
C604 C 0.30073 0.222 0.3768 0.0
C605 C 0.32033 0.24637 0.35819 0.0
C606 C 0.32109 0.28801 0.35493 0.0
C607 C 0.29826 0.30211 0.36874 0.0
H608 H 0.13476 0.23441 0.48062 0.0
H609 H 0.14225 0.364 0.46922 0.0
H610 H 0.09462 0.22623 0.51312 0.0
H611 H 0.10237 0.35638 0.50245 0.0
H612 H 0.95953 0.27319 0.53772 0.0
H613 H 0.02349 0.30768 0.51318 0.0
H614 H 0.09184 0.2489 0.54784 0.0
H615 H 0.02683 0.21268 0.57169 0.0
C616 C 0.1289 0.26186 0.4854 0.0
C617 C 0.14113 0.29955 0.47225 0.0
C618 C 0.10613 0.25739 0.50422 0.0
C619 C 0.09486 0.29052 0.51044 0.0
C620 C 0.11004 0.32998 0.498 0.0
C621 C 0.13323 0.33458 0.47908 0.0
C622 C 0.98881 0.26872 0.5404 0.0
C623 C 0.98781 0.23946 0.55631 0.0
C624 C 0.02567 0.28869 0.52638 0.0
C625 C 0.06244 0.28021 0.52822 0.0
C626 C 0.0635 0.25506 0.54559 0.0
C627 C 0.02636 0.23446 0.55933 0.0
H628 H 0.66668 0.95856 0.71125 0.0
H629 H 0.79338 0.01998 0.74627 0.0
H630 H 0.70001 0.02231 0.68668 0.0
H631 H 0.82622 0.08454 0.72215 0.0
H632 H 0.88385 0.1166 0.65388 0.0
H633 H 0.85052 0.08113 0.68715 0.0
H634 H 0.7362 0.10276 0.67583 0.0
H635 H 0.76999 0.13835 0.64203 0.0
C636 C 0.70102 0.98657 0.71419 0.0
C637 C 0.72782 0.98375 0.73037 0.0
C638 C 0.72012 0.02331 0.70013 0.0
C639 C 0.76621 0.05803 0.70216 0.0
C640 C 0.79102 0.05775 0.71984 0.0
C641 C 0.77216 0.02082 0.7337 0.0
C642 C 0.85222 0.11495 0.65873 0.0
C643 C 0.82925 0.12972 0.64528 0.0
C644 C 0.83318 0.09488 0.67793 0.0
C645 C 0.79042 0.08875 0.68416 0.0
C646 C 0.76898 0.10662 0.67139 0.0
C647 C 0.78845 0.12729 0.65214 0.0
loop_
_geom_bond_atom_site_label_1
_geom_bond_atom_site_label_2
_geom_bond_distance
_geom_bond_site_symmetry_2
_ccdc_geom_bond_type
Zn0 O3 2.031 . S
Zn0 O5 2.049 . S
Zn0 O10 2.067 . S
Zn1 O2 1.962 . S
Zn1 O4 1.986 . S
Zn1 O6 1.996 . S
Zn1 O9 1.943 . S
O2 Zn1 1.962 . S
O2 C7 1.254 . S
O3 Zn0 2.031 . S
O3 C7 1.269 . S
O4 Zn1 1.986 . S
O4 C11 1.262 . S
O5 Zn0 2.049 . S
O5 C13 1.260 . S
O6 Zn1 1.996 . S
O6 C13 1.257 . S
C7 O2 1.254 . S
C7 O3 1.269 . S
C8 O9 1.249 . S
C8 O10 1.270 . S
O9 Zn1 1.943 . S
O9 C8 1.249 . S
O10 Zn0 2.067 . S
O10 C8 1.270 . S
C11 O4 1.262 . S
C11 O12 1.232 . S
O12 C11 1.232 . S
C13 O5 1.260 . S
C13 O6 1.257 . S
Zn14 O17 2.031 . S
Zn14 O19 2.049 . S
Zn14 O24 2.067 . S
Zn15 O16 1.962 . S
Zn15 O18 1.986 . S
Zn15 O20 1.996 . S
Zn15 O23 1.943 . S
O16 Zn15 1.962 . S
O16 C21 1.254 . S
O17 Zn14 2.031 . S
O17 C21 1.269 . S
O18 Zn15 1.986 . S
O18 C25 1.262 . S
O19 Zn14 2.049 . S
O19 C27 1.260 . S
O20 Zn15 1.996 . S
O20 C27 1.257 . S
C21 O16 1.254 . S
C21 O17 1.269 . S
C22 O23 1.249 . S
C22 O24 1.270 . S
O23 Zn15 1.943 . S
O23 C22 1.249 . S
O24 Zn14 2.067 . S
O24 C22 1.270 . S
C25 O18 1.262 . S
C25 O26 1.232 . S
O26 C25 1.232 . S
C27 O19 1.260 . S
C27 O20 1.257 . S
Zn28 O31 2.031 . S
Zn28 O33 2.049 . S
Zn28 O38 2.067 . S
Zn29 O30 1.962 . S
Zn29 O32 1.986 . S
Zn29 O34 1.996 . S
Zn29 O37 1.943 . S
O30 Zn29 1.962 . S
O30 C35 1.254 . S
O31 Zn28 2.031 . S
O31 C35 1.269 . S
O32 Zn29 1.986 . S
O32 C39 1.262 . S
O33 Zn28 2.049 . S
O33 C41 1.260 . S
O34 Zn29 1.996 . S
O34 C41 1.257 . S
C35 O30 1.254 . S
C35 O31 1.269 . S
C36 O37 1.249 . S
C36 O38 1.270 . S
O37 Zn29 1.943 . S
O37 C36 1.249 . S
O38 Zn28 2.067 . S
O38 C36 1.270 . S
C39 O32 1.262 . S
C39 O40 1.232 . S
O40 C39 1.232 . S
C41 O33 1.260 . S
C41 O34 1.257 . S
Zn42 O45 2.031 . S
Zn42 O47 2.049 . S
Zn42 O52 2.067 . S
Zn43 O44 1.962 . S
Zn43 O46 1.986 . S
Zn43 O48 1.996 . S
Zn43 O51 1.943 . S
O44 Zn43 1.962 . S
O44 C49 1.254 . S
O45 Zn42 2.031 . S
O45 C49 1.269 . S
O46 Zn43 1.986 . S
O46 C53 1.262 . S
O47 Zn42 2.049 . S
O47 C55 1.260 . S
O48 Zn43 1.996 . S
O48 C55 1.257 . S
C49 O44 1.254 . S
C49 O45 1.269 . S
C50 O51 1.249 . S
C50 O52 1.270 . S
O51 Zn43 1.943 . S
O51 C50 1.249 . S
O52 Zn42 2.067 . S
O52 C50 1.270 . S
C53 O46 1.262 . S
C53 O54 1.232 . S
O54 C53 1.232 . S
C55 O47 1.260 . S
C55 O48 1.257 . S
Zn56 O59 2.031 . S
Zn56 O61 2.049 . S
Zn56 O66 2.067 . S
Zn57 O58 1.962 . S
Zn57 O60 1.986 . S
Zn57 O62 1.996 . S
Zn57 O65 1.943 . S
O58 Zn57 1.962 . S
O58 C63 1.254 . S
O59 Zn56 2.031 . S
O59 C63 1.269 . S
O60 Zn57 1.986 . S
O60 C67 1.262 . S
O61 Zn56 2.049 . S
O61 C69 1.260 . S
O62 Zn57 1.996 . S
O62 C69 1.257 . S
C63 O58 1.254 . S
C63 O59 1.269 . S
C64 O65 1.249 . S
C64 O66 1.270 . S
O65 Zn57 1.943 . S
O65 C64 1.249 . S
O66 Zn56 2.067 . S
O66 C64 1.270 . S
C67 O60 1.262 . S
C67 O68 1.232 . S
O68 C67 1.232 . S
C69 O61 1.260 . S
C69 O62 1.257 . S
Zn70 O73 2.031 . S
Zn70 O75 2.049 . S
Zn70 O80 2.067 . S
Zn71 O72 1.962 . S
Zn71 O74 1.986 . S
Zn71 O76 1.996 . S
Zn71 O79 1.943 . S
O72 Zn71 1.962 . S
O72 C77 1.254 . S
O73 Zn70 2.031 . S
O73 C77 1.269 . S
O74 Zn71 1.986 . S
O74 C81 1.262 . S
O75 Zn70 2.049 . S
O75 C83 1.260 . S
O76 Zn71 1.996 . S
O76 C83 1.257 . S
C77 O72 1.254 . S
C77 O73 1.269 . S
C78 O79 1.249 . S
C78 O80 1.270 . S
O79 Zn71 1.943 . S
O79 C78 1.249 . S
O80 Zn70 2.067 . S
O80 C78 1.270 . S
C81 O74 1.262 . S
C81 O82 1.232 . S
O82 C81 1.232 . S
C83 O75 1.260 . S
C83 O76 1.257 . S
Zn84 O87 2.031 . S
Zn84 O89 2.049 . S
Zn84 O94 2.067 . S
Zn85 O86 1.962 . S
Zn85 O88 1.986 . S
Zn85 O90 1.996 . S
Zn85 O93 1.943 . S
O86 Zn85 1.962 . S
O86 C91 1.254 . S
O87 Zn84 2.031 . S
O87 C91 1.269 . S
O88 Zn85 1.986 . S
O88 C95 1.262 . S
O89 Zn84 2.049 . S
O89 C97 1.260 . S
O90 Zn85 1.996 . S
O90 C97 1.257 . S
C91 O86 1.254 . S
C91 O87 1.269 . S
C92 O93 1.249 . S
C92 O94 1.270 . S
O93 Zn85 1.943 . S
O93 C92 1.249 . S
O94 Zn84 2.067 . S
O94 C92 1.270 . S
C95 O88 1.262 . S
C95 O96 1.232 . S
O96 C95 1.232 . S
C97 O89 1.260 . S
C97 O90 1.257 . S
Zn98 O101 2.031 . S
Zn98 O103 2.049 . S
Zn98 O108 2.067 . S
Zn99 O100 1.962 . S
Zn99 O102 1.986 . S
Zn99 O104 1.996 . S
Zn99 O107 1.943 . S
O100 Zn99 1.962 . S
O100 C105 1.254 . S
O101 Zn98 2.031 . S
O101 C105 1.269 . S
O102 Zn99 1.986 . S
O102 C109 1.262 . S
O103 Zn98 2.049 . S
O103 C111 1.260 . S
O104 Zn99 1.996 . S
O104 C111 1.257 . S
C105 O100 1.254 . S
C105 O101 1.269 . S
C106 O107 1.249 . S
C106 O108 1.270 . S
O107 Zn99 1.943 . S
O107 C106 1.249 . S
O108 Zn98 2.067 . S
O108 C106 1.270 . S
C109 O102 1.262 . S
C109 O110 1.232 . S
O110 C109 1.232 . S
C111 O103 1.260 . S
C111 O104 1.257 . S
Zn112 O115 2.031 . S
Zn112 O117 2.049 . S
Zn112 O122 2.067 . S
Zn113 O114 1.962 . S
Zn113 O116 1.986 . S
Zn113 O118 1.996 . S
Zn113 O121 1.943 . S
O114 Zn113 1.962 . S
O114 C119 1.254 . S
O115 Zn112 2.031 . S
O115 C119 1.269 . S
O116 Zn113 1.986 . S
O116 C123 1.262 . S
O117 Zn112 2.049 . S
O117 C125 1.260 . S
O118 Zn113 1.996 . S
O118 C125 1.257 . S
C119 O114 1.254 . S
C119 O115 1.269 . S
C120 O121 1.249 . S
C120 O122 1.270 . S
O121 Zn113 1.943 . S
O121 C120 1.249 . S
O122 Zn112 2.067 . S
O122 C120 1.270 . S
C123 O116 1.262 . S
C123 O124 1.232 . S
O124 C123 1.232 . S
C125 O117 1.260 . S
C125 O118 1.257 . S
Zn126 O129 2.031 . S
Zn126 O131 2.049 . S
Zn126 O136 2.067 . S
Zn127 O128 1.962 . S
Zn127 O130 1.986 . S
Zn127 O132 1.996 . S
Zn127 O135 1.943 . S
O128 Zn127 1.962 . S
O128 C133 1.254 . S
O129 Zn126 2.031 . S
O129 C133 1.269 . S
O130 Zn127 1.986 . S
O130 C137 1.262 . S
O131 Zn126 2.049 . S
O131 C139 1.260 . S
O132 Zn127 1.996 . S
O132 C139 1.257 . S
C133 O128 1.254 . S
C133 O129 1.269 . S
C134 O135 1.249 . S
C134 O136 1.270 . S
O135 Zn127 1.943 . S
O135 C134 1.249 . S
O136 Zn126 2.067 . S
O136 C134 1.270 . S
C137 O130 1.262 . S
C137 O138 1.232 . S
O138 C137 1.232 . S
C139 O131 1.260 . S
C139 O132 1.257 . S
Zn140 O143 2.031 . S
Zn140 O145 2.049 . S
Zn140 O150 2.067 . S
Zn141 O142 1.962 . S
Zn141 O144 1.986 . S
Zn141 O146 1.996 . S
Zn141 O149 1.943 . S
O142 Zn141 1.962 . S
O142 C147 1.254 . S
O143 Zn140 2.031 . S
O143 C147 1.269 . S
O144 Zn141 1.986 . S
O144 C151 1.262 . S
O145 Zn140 2.049 . S
O145 C153 1.260 . S
O146 Zn141 1.996 . S
O146 C153 1.257 . S
C147 O142 1.254 . S
C147 O143 1.269 . S
C148 O149 1.249 . S
C148 O150 1.270 . S
O149 Zn141 1.943 . S
O149 C148 1.249 . S
O150 Zn140 2.067 . S
O150 C148 1.270 . S
C151 O144 1.262 . S
C151 O152 1.232 . S
O152 C151 1.232 . S
C153 O145 1.260 . S
C153 O146 1.257 . S
Zn154 O157 2.031 . S
Zn154 O159 2.049 . S
Zn154 O164 2.067 . S
Zn155 O156 1.962 . S
Zn155 O158 1.986 . S
Zn155 O160 1.996 . S
Zn155 O163 1.943 . S
O156 Zn155 1.962 . S
O156 C161 1.254 . S
O157 Zn154 2.031 . S
O157 C161 1.269 . S
O158 Zn155 1.986 . S
O158 C165 1.262 . S
O159 Zn154 2.049 . S
O159 C167 1.260 . S
O160 Zn155 1.996 . S
O160 C167 1.257 . S
C161 O156 1.254 . S
C161 O157 1.269 . S
C162 O163 1.249 . S
C162 O164 1.270 . S
O163 Zn155 1.943 . S
O163 C162 1.249 . S
O164 Zn154 2.067 . S
O164 C162 1.270 . S
C165 O158 1.262 . S
C165 O166 1.232 . S
O166 C165 1.232 . S
C167 O159 1.260 . S
C167 O160 1.257 . S
H168 C176 0.950 . S
H169 C181 0.950 . S
H170 C178 0.950 . S
H171 C180 0.950 . S
H172 C182 0.950 . S
H173 C184 0.950 . S
H174 C186 0.950 . S
H175 C187 0.950 . S
C176 H168 0.950 . S
C176 C177 1.386 . S
C176 C178 1.391 . S
C177 C176 1.386 . S
C177 C181 1.393 . S
C178 H170 0.950 . S
C178 C176 1.391 . S
C178 C179 1.400 . S
C179 C178 1.400 . S
C179 C180 1.398 . S
C179 C185 1.491 . S
C180 H171 0.950 . S
C180 C179 1.398 . S
C180 C181 1.391 . S
C181 H169 0.950 . S
C181 C177 1.393 . S
C181 C180 1.391 . S
C182 H172 0.950 . S
C182 C183 1.386 . S
C182 C184 1.391 . S
C183 C182 1.386 . S
C183 C187 1.393 . S
C184 H173 0.950 . S
C184 C182 1.391 . S
C184 C185 1.400 . S
C185 C179 1.491 . S
C185 C184 1.400 . S
C185 C186 1.398 . S
C186 H174 0.950 . S
C186 C185 1.398 . S
C186 C187 1.391 . S
C187 H175 0.950 . S
C187 C183 1.393 . S
C187 C186 1.391 . S
H188 C196 0.950 . S
H189 C201 0.950 . S
H190 C198 0.950 . S
H191 C200 0.950 . S
H192 C202 0.950 . S
H193 C204 0.950 . S
H194 C206 0.950 . S
H195 C207 0.950 . S
C196 H188 0.950 . S
C196 C197 1.386 . S
C196 C198 1.391 . S
C197 C196 1.386 . S
C197 C201 1.393 . S
C198 H190 0.950 . S
C198 C196 1.391 . S
C198 C199 1.400 . S
C199 C198 1.400 . S
C199 C200 1.398 . S
C199 C205 1.491 . S
C200 H191 0.950 . S
C200 C199 1.398 . S
C200 C201 1.391 . S
C201 H189 0.950 . S
C201 C197 1.393 . S
C201 C200 1.391 . S
C202 H192 0.950 . S
C202 C203 1.386 . S
C202 C204 1.391 . S
C203 C202 1.386 . S
C203 C207 1.393 . S
C204 H193 0.950 . S
C204 C202 1.391 . S
C204 C205 1.400 . S
C205 C199 1.491 . S
C205 C204 1.400 . S
C205 C206 1.398 . S
C206 H194 0.950 . S
C206 C205 1.398 . S
C206 C207 1.391 . S
C207 H195 0.950 . S
C207 C203 1.393 . S
C207 C206 1.391 . S
H208 C216 0.950 . S
H209 C221 0.950 . S
H210 C218 0.950 . S
H211 C220 0.950 . S
H212 C222 0.950 . S
H213 C224 0.950 . S
H214 C226 0.950 . S
H215 C227 0.950 . S
C216 H208 0.950 . S
C216 C217 1.386 . S
C216 C218 1.391 . S
C217 C216 1.386 . S
C217 C221 1.393 . S
C218 H210 0.950 . S
C218 C216 1.391 . S
C218 C219 1.400 . S
C219 C218 1.400 . S
C219 C220 1.398 . S
C219 C225 1.491 . S
C220 H211 0.950 . S
C220 C219 1.398 . S
C220 C221 1.391 . S
C221 H209 0.950 . S
C221 C217 1.393 . S
C221 C220 1.391 . S
C222 H212 0.950 . S
C222 C223 1.386 . S
C222 C224 1.391 . S
C223 C222 1.386 . S
C223 C227 1.393 . S
C224 H213 0.950 . S
C224 C222 1.391 . S
C224 C225 1.400 . S
C225 C219 1.491 . S
C225 C224 1.400 . S
C225 C226 1.398 . S
C226 H214 0.950 . S
C226 C225 1.398 . S
C226 C227 1.391 . S
C227 H215 0.950 . S
C227 C223 1.393 . S
C227 C226 1.391 . S
H228 C236 0.950 . S
H229 C241 0.950 . S
H230 C238 0.950 . S
H231 C240 0.950 . S
H232 C242 0.950 . S
H233 C244 0.950 . S
H234 C246 0.950 . S
H235 C247 0.950 . S
C236 H228 0.950 . S
C236 C237 1.386 . S
C236 C238 1.391 . S
C237 C236 1.386 . S
C237 C241 1.393 . S
C238 H230 0.950 . S
C238 C236 1.391 . S
C238 C239 1.400 . S
C239 C238 1.400 . S
C239 C240 1.398 . S
C239 C245 1.491 . S
C240 H231 0.950 . S
C240 C239 1.398 . S
C240 C241 1.391 . S
C241 H229 0.950 . S
C241 C237 1.393 . S
C241 C240 1.391 . S
C242 H232 0.950 . S
C242 C243 1.386 . S
C242 C244 1.391 . S
C243 C242 1.386 . S
C243 C247 1.393 . S
C244 H233 0.950 . S
C244 C242 1.391 . S
C244 C245 1.400 . S
C245 C239 1.491 . S
C245 C244 1.400 . S
C245 C246 1.398 . S
C246 H234 0.950 . S
C246 C245 1.398 . S
C246 C247 1.391 . S
C247 H235 0.950 . S
C247 C243 1.393 . S
C247 C246 1.391 . S
H248 C256 0.950 . S
H249 C261 0.950 . S
H250 C258 0.950 . S
H251 C260 0.950 . S
H252 C262 0.950 . S
H253 C264 0.950 . S
H254 C266 0.950 . S
H255 C267 0.950 . S
C256 H248 0.950 . S
C256 C257 1.386 . S
C256 C258 1.391 . S
C257 C256 1.386 . S
C257 C261 1.393 . S
C258 H250 0.950 . S
C258 C256 1.391 . S
C258 C259 1.400 . S
C259 C258 1.400 . S
C259 C260 1.398 . S
C259 C265 1.491 . S
C260 H251 0.950 . S
C260 C259 1.398 . S
C260 C261 1.391 . S
C261 H249 0.950 . S
C261 C257 1.393 . S
C261 C260 1.391 . S
C262 H252 0.950 . S
C262 C263 1.386 . S
C262 C264 1.391 . S
C263 C262 1.386 . S
C263 C267 1.393 . S
C264 H253 0.950 . S
C264 C262 1.391 . S
C264 C265 1.400 . S
C265 C259 1.491 . S
C265 C264 1.400 . S
C265 C266 1.398 . S
C266 H254 0.950 . S
C266 C265 1.398 . S
C266 C267 1.391 . S
C267 H255 0.950 . S
C267 C263 1.393 . S
C267 C266 1.391 . S
H268 C276 0.950 . S
H269 C281 0.950 . S
H270 C278 0.950 . S
H271 C280 0.950 . S
H272 C282 0.950 . S
H273 C284 0.950 . S
H274 C286 0.950 . S
H275 C287 0.950 . S
C276 H268 0.950 . S
C276 C277 1.386 . S
C276 C278 1.391 . S
C277 C276 1.386 . S
C277 C281 1.393 . S
C278 H270 0.950 . S
C278 C276 1.391 . S
C278 C279 1.400 . S
C279 C278 1.400 . S
C279 C280 1.398 . S
C279 C285 1.491 . S
C280 H271 0.950 . S
C280 C279 1.398 . S
C280 C281 1.391 . S
C281 H269 0.950 . S
C281 C277 1.393 . S
C281 C280 1.391 . S
C282 H272 0.950 . S
C282 C283 1.386 . S
C282 C284 1.391 . S
C283 C282 1.386 . S
C283 C287 1.393 . S
C284 H273 0.950 . S
C284 C282 1.391 . S
C284 C285 1.400 . S
C285 C279 1.491 . S
C285 C284 1.400 . S
C285 C286 1.398 . S
C286 H274 0.950 . S
C286 C285 1.398 . S
C286 C287 1.391 . S
C287 H275 0.950 . S
C287 C283 1.393 . S
C287 C286 1.391 . S
H288 C296 0.950 . S
H289 C301 0.950 . S
H290 C298 0.950 . S
H291 C300 0.950 . S
H292 C302 0.950 . S
H293 C304 0.950 . S
H294 C306 0.950 . S
H295 C307 0.950 . S
C296 H288 0.950 . S
C296 C297 1.386 . S
C296 C298 1.391 . S
C297 C296 1.386 . S
C297 C301 1.393 . S
C298 H290 0.950 . S
C298 C296 1.391 . S
C298 C299 1.400 . S
C299 C298 1.400 . S
C299 C300 1.398 . S
C299 C305 1.491 . S
C300 H291 0.950 . S
C300 C299 1.398 . S
C300 C301 1.391 . S
C301 H289 0.950 . S
C301 C297 1.393 . S
C301 C300 1.391 . S
C302 H292 0.950 . S
C302 C303 1.386 . S
C302 C304 1.391 . S
C303 C302 1.386 . S
C303 C307 1.393 . S
C304 H293 0.950 . S
C304 C302 1.391 . S
C304 C305 1.400 . S
C305 C299 1.491 . S
C305 C304 1.400 . S
C305 C306 1.398 . S
C306 H294 0.950 . S
C306 C305 1.398 . S
C306 C307 1.391 . S
C307 H295 0.950 . S
C307 C303 1.393 . S
C307 C306 1.391 . S
H308 C316 0.950 . S
H309 C321 0.950 . S
H310 C318 0.950 1_455 S
H311 C320 0.950 . S
H312 C322 0.950 . S
H313 C324 0.950 1_655 S
H314 C326 0.950 . S
H315 C327 0.950 . S
C316 H308 0.950 . S
C316 C317 1.386 . S
C316 C318 1.391 . S
C317 C316 1.386 . S
C317 C321 1.393 . S
C318 H310 0.950 1_655 S
C318 C316 1.391 . S
C318 C319 1.400 . S
C319 C318 1.400 . S
C319 C320 1.398 . S
C319 C325 1.491 1_655 S
C320 H311 0.950 . S
C320 C319 1.398 . S
C320 C321 1.391 . S
C321 H309 0.950 . S
C321 C317 1.393 . S
C321 C320 1.391 . S
C322 H312 0.950 . S
C322 C323 1.386 . S
C322 C324 1.391 . S
C323 C322 1.386 . S
C323 C327 1.393 . S
C324 H313 0.950 1_455 S
C324 C322 1.391 . S
C324 C325 1.400 . S
C325 C319 1.491 1_455 S
C325 C324 1.400 . S
C325 C326 1.398 . S
C326 H314 0.950 . S
C326 C325 1.398 . S
C326 C327 1.391 . S
C327 H315 0.950 . S
C327 C323 1.393 . S
C327 C326 1.391 . S
H328 C336 0.950 . S
H329 C341 0.950 . S
H330 C338 0.950 1_565 S
H331 C340 0.950 . S
H332 C342 0.950 . S
H333 C344 0.950 1_545 S
H334 C346 0.950 . S
H335 C347 0.950 . S
C336 H328 0.950 . S
C336 C337 1.386 . S
C336 C338 1.391 . S
C337 C336 1.386 . S
C337 C341 1.393 . S
C338 H330 0.950 1_545 S
C338 C336 1.391 . S
C338 C339 1.400 . S
C339 C338 1.400 . S
C339 C340 1.398 . S
C339 C345 1.491 1_545 S
C340 H331 0.950 . S
C340 C339 1.398 . S
C340 C341 1.391 . S
C341 H329 0.950 . S
C341 C337 1.393 . S
C341 C340 1.391 . S
C342 H332 0.950 . S
C342 C343 1.386 . S
C342 C344 1.391 . S
C343 C342 1.386 . S
C343 C347 1.393 . S
C344 H333 0.950 1_565 S
C344 C342 1.391 . S
C344 C345 1.400 . S
C345 C339 1.491 1_565 S
C345 C344 1.400 . S
C345 C346 1.398 . S
C346 H334 0.950 . S
C346 C345 1.398 . S
C346 C347 1.391 . S
C347 H335 0.950 . S
C347 C343 1.393 . S
C347 C346 1.391 . S
H348 C356 0.950 . S
H349 C361 0.950 . S
H350 C358 0.950 . S
H351 C360 0.950 . S
H352 C362 0.950 . S
H353 C364 0.950 . S
H354 C366 0.950 . S
H355 C367 0.950 . S
C356 H348 0.950 . S
C356 C357 1.386 . S
C356 C358 1.391 . S
C357 C356 1.386 . S
C357 C361 1.393 . S
C358 H350 0.950 . S
C358 C356 1.391 . S
C358 C359 1.400 . S
C359 C358 1.400 . S
C359 C360 1.398 . S
C359 C365 1.491 . S
C360 H351 0.950 . S
C360 C359 1.398 . S
C360 C361 1.391 . S
C361 H349 0.950 . S
C361 C357 1.393 . S
C361 C360 1.391 . S
C362 H352 0.950 . S
C362 C363 1.386 . S
C362 C364 1.391 . S
C363 C362 1.386 . S
C363 C367 1.393 . S
C364 H353 0.950 . S
C364 C362 1.391 . S
C364 C365 1.400 . S
C365 C359 1.491 . S
C365 C364 1.400 . S
C365 C366 1.398 . S
C366 H354 0.950 . S
C366 C365 1.398 . S
C366 C367 1.391 . S
C367 H355 0.950 . S
C367 C363 1.393 . S
C367 C366 1.391 . S
H368 C376 0.950 . S
H369 C381 0.950 . S
H370 C378 0.950 . S
H371 C380 0.950 1_455 S
H372 C382 0.950 . S
H373 C384 0.950 . S
H374 C386 0.950 1_655 S
H375 C387 0.950 . S
C376 H368 0.950 . S
C376 C377 1.386 . S
C376 C378 1.391 . S
C377 C376 1.386 . S
C377 C381 1.393 . S
C378 H370 0.950 . S
C378 C376 1.391 . S
C378 C379 1.400 . S
C379 C378 1.400 . S
C379 C380 1.398 . S
C379 C385 1.491 1_655 S
C380 H371 0.950 1_655 S
C380 C379 1.398 . S
C380 C381 1.391 . S
C381 H369 0.950 . S
C381 C377 1.393 . S
C381 C380 1.391 . S
C382 H372 0.950 . S
C382 C383 1.386 . S
C382 C384 1.391 . S
C383 C382 1.386 . S
C383 C387 1.393 . S
C384 H373 0.950 . S
C384 C382 1.391 . S
C384 C385 1.400 . S
C385 C379 1.491 1_455 S
C385 C384 1.400 . S
C385 C386 1.398 . S
C386 H374 0.950 1_455 S
C386 C385 1.398 . S
C386 C387 1.391 . S
C387 H375 0.950 . S
C387 C383 1.393 . S
C387 C386 1.391 . S
H388 C396 0.950 . S
H389 C401 0.950 . S
H390 C398 0.950 1_545 S
H391 C400 0.950 . S
H392 C402 0.950 . S
H393 C404 0.950 1_565 S
H394 C406 0.950 . S
H395 C407 0.950 . S
C396 H388 0.950 . S
C396 C397 1.386 . S
C396 C398 1.391 . S
C397 C396 1.386 . S
C397 C401 1.393 . S
C398 H390 0.950 1_565 S
C398 C396 1.391 . S
C398 C399 1.400 . S
C399 C398 1.400 . S
C399 C400 1.398 1_554 S
C399 C405 1.491 1_564 S
C400 H391 0.950 . S
C400 C399 1.398 1_556 S
C400 C401 1.391 1_556 S
C401 H389 0.950 . S
C401 C397 1.393 . S
C401 C400 1.391 1_554 S
C402 H392 0.950 . S
C402 C403 1.386 . S
C402 C404 1.391 . S
C403 C402 1.386 . S
C403 C407 1.393 . S
C404 H393 0.950 1_545 S
C404 C402 1.391 . S
C404 C405 1.400 . S
C405 C399 1.491 1_546 S
C405 C404 1.400 . S
C405 C406 1.398 1_556 S
C406 H394 0.950 . S
C406 C405 1.398 1_554 S
C406 C407 1.391 1_554 S
C407 H395 0.950 . S
C407 C403 1.393 . S
C407 C406 1.391 1_556 S
H408 C416 0.950 . S
H409 C421 0.950 . S
H410 C418 0.950 . S
H411 C420 0.950 . S
H412 C422 0.950 . S
H413 C424 0.950 . S
H414 C426 0.950 . S
H415 C427 0.950 . S
C416 H408 0.950 . S
C416 C417 1.386 . S
C416 C418 1.391 . S
C417 C416 1.386 . S
C417 C421 1.393 . S
C418 H410 0.950 . S
C418 C416 1.391 . S
C418 C419 1.400 . S
C419 C418 1.400 . S
C419 C420 1.398 . S
C419 C425 1.491 . S
C420 H411 0.950 . S
C420 C419 1.398 . S
C420 C421 1.391 . S
C421 H409 0.950 . S
C421 C417 1.393 . S
C421 C420 1.391 . S
C422 H412 0.950 . S
C422 C423 1.386 . S
C422 C424 1.391 . S
C423 C422 1.386 . S
C423 C427 1.393 . S
C424 H413 0.950 . S
C424 C422 1.391 . S
C424 C425 1.400 1_556 S
C425 C419 1.491 . S
C425 C424 1.400 1_554 S
C425 C426 1.398 . S
C426 H414 0.950 . S
C426 C425 1.398 . S
C426 C427 1.391 1_554 S
C427 H415 0.950 . S
C427 C423 1.393 . S
C427 C426 1.391 1_556 S
H428 C436 0.950 . S
H429 C441 0.950 . S
H430 C438 0.950 . S
H431 C440 0.950 . S
H432 C442 0.950 . S
H433 C444 0.950 . S
H434 C446 0.950 . S
H435 C447 0.950 . S
C436 H428 0.950 . S
C436 C437 1.386 . S
C436 C438 1.391 . S
C437 C436 1.386 . S
C437 C441 1.393 . S
C438 H430 0.950 . S
C438 C436 1.391 . S
C438 C439 1.400 . S
C439 C438 1.400 . S
C439 C440 1.398 . S
C439 C445 1.491 . S
C440 H431 0.950 . S
C440 C439 1.398 . S
C440 C441 1.391 . S
C441 H429 0.950 . S
C441 C437 1.393 . S
C441 C440 1.391 . S
C442 H432 0.950 . S
C442 C443 1.386 . S
C442 C444 1.391 1_455 S
C443 C442 1.386 . S
C443 C447 1.393 . S
C444 H433 0.950 . S
C444 C442 1.391 1_655 S
C444 C445 1.400 . S
C445 C439 1.491 . S
C445 C444 1.400 . S
C445 C446 1.398 1_655 S
C446 H434 0.950 . S
C446 C445 1.398 1_455 S
C446 C447 1.391 . S
C447 H435 0.950 . S
C447 C443 1.393 . S
C447 C446 1.391 . S
H448 C456 0.950 . S
H449 C461 0.950 . S
H450 C458 0.950 . S
H451 C460 0.950 . S
H452 C462 0.950 . S
H453 C464 0.950 . S
H454 C466 0.950 . S
H455 C467 0.950 . S
C456 H448 0.950 . S
C456 C457 1.386 . S
C456 C458 1.391 1_545 S
C457 C456 1.386 . S
C457 C461 1.393 . S
C458 H450 0.950 . S
C458 C456 1.391 1_565 S
C458 C459 1.400 . S
C459 C458 1.400 . S
C459 C460 1.398 1_565 S
C459 C465 1.491 . S
C460 H451 0.950 . S
C460 C459 1.398 1_545 S
C460 C461 1.391 . S
C461 H449 0.950 . S
C461 C457 1.393 . S
C461 C460 1.391 . S
C462 H452 0.950 . S
C462 C463 1.386 . S
C462 C464 1.391 . S
C463 C462 1.386 . S
C463 C467 1.393 . S
C464 H453 0.950 . S
C464 C462 1.391 . S
C464 C465 1.400 . S
C465 C459 1.491 . S
C465 C464 1.400 . S
C465 C466 1.398 . S
C466 H454 0.950 . S
C466 C465 1.398 . S
C466 C467 1.391 . S
C467 H455 0.950 . S
C467 C463 1.393 . S
C467 C466 1.391 . S
H468 C476 0.950 . S
H469 C481 0.950 . S
H470 C478 0.950 . S
H471 C480 0.950 . S
H472 C482 0.950 . S
H473 C484 0.950 . S
H474 C486 0.950 . S
H475 C487 0.950 . S
C476 H468 0.950 . S
C476 C477 1.386 . S
C476 C478 1.391 . S
C477 C476 1.386 . S
C477 C481 1.393 . S
C478 H470 0.950 . S
C478 C476 1.391 . S
C478 C479 1.400 . S
C479 C478 1.400 . S
C479 C480 1.398 . S
C479 C485 1.491 . S
C480 H471 0.950 . S
C480 C479 1.398 . S
C480 C481 1.391 . S
C481 H469 0.950 . S
C481 C477 1.393 . S
C481 C480 1.391 . S
C482 H472 0.950 . S
C482 C483 1.386 . S
C482 C484 1.391 . S
C483 C482 1.386 . S
C483 C487 1.393 . S
C484 H473 0.950 . S
C484 C482 1.391 . S
C484 C485 1.400 . S
C485 C479 1.491 . S
C485 C484 1.400 . S
C485 C486 1.398 . S
C486 H474 0.950 . S
C486 C485 1.398 . S
C486 C487 1.391 . S
C487 H475 0.950 . S
C487 C483 1.393 . S
C487 C486 1.391 . S
H488 C496 0.950 . S
H489 C501 0.950 . S
H490 C498 0.950 . S
H491 C500 0.950 . S
H492 C502 0.950 . S
H493 C504 0.950 . S
H494 C506 0.950 . S
H495 C507 0.950 . S
C496 H488 0.950 . S
C496 C497 1.386 . S
C496 C498 1.391 . S
C497 C496 1.386 . S
C497 C501 1.393 . S
C498 H490 0.950 . S
C498 C496 1.391 . S
C498 C499 1.400 . S
C499 C498 1.400 . S
C499 C500 1.398 . S
C499 C505 1.491 . S
C500 H491 0.950 . S
C500 C499 1.398 . S
C500 C501 1.391 . S
C501 H489 0.950 . S
C501 C497 1.393 . S
C501 C500 1.391 . S
C502 H492 0.950 . S
C502 C503 1.386 . S
C502 C504 1.391 1_655 S
C503 C502 1.386 . S
C503 C507 1.393 . S
C504 H493 0.950 . S
C504 C502 1.391 1_455 S
C504 C505 1.400 . S
C505 C499 1.491 . S
C505 C504 1.400 . S
C505 C506 1.398 1_455 S
C506 H494 0.950 . S
C506 C505 1.398 1_655 S
C506 C507 1.391 . S
C507 H495 0.950 . S
C507 C503 1.393 . S
C507 C506 1.391 . S
H508 C516 0.950 . S
H509 C521 0.950 . S
H510 C518 0.950 . S
H511 C520 0.950 . S
H512 C522 0.950 . S
H513 C524 0.950 . S
H514 C526 0.950 1_545 S
H515 C527 0.950 . S
C516 H508 0.950 . S
C516 C517 1.386 . S
C516 C518 1.391 . S
C517 C516 1.386 . S
C517 C521 1.393 . S
C518 H510 0.950 . S
C518 C516 1.391 . S
C518 C519 1.400 . S
C519 C518 1.400 . S
C519 C520 1.398 . S
C519 C525 1.491 . S
C520 H511 0.950 . S
C520 C519 1.398 . S
C520 C521 1.391 . S
C521 H509 0.950 . S
C521 C517 1.393 . S
C521 C520 1.391 . S
C522 H512 0.950 . S
C522 C523 1.386 . S
C522 C524 1.391 . S
C523 C522 1.386 . S
C523 C527 1.393 . S
C524 H513 0.950 . S
C524 C522 1.391 . S
C524 C525 1.400 1_565 S
C525 C519 1.491 . S
C525 C524 1.400 1_545 S
C525 C526 1.398 1_545 S
C526 H514 0.950 1_565 S
C526 C525 1.398 1_565 S
C526 C527 1.391 . S
C527 H515 0.950 . S
C527 C523 1.393 . S
C527 C526 1.391 . S
H528 C536 0.950 . S
H529 C541 0.950 . S
H530 C538 0.950 . S
H531 C540 0.950 . S
H532 C542 0.950 . S
H533 C544 0.950 . S
H534 C546 0.950 . S
H535 C547 0.950 . S
C536 H528 0.950 . S
C536 C537 1.386 . S
C536 C538 1.391 . S
C537 C536 1.386 . S
C537 C541 1.393 . S
C538 H530 0.950 . S
C538 C536 1.391 . S
C538 C539 1.400 . S
C539 C538 1.400 . S
C539 C540 1.398 . S
C539 C545 1.491 . S
C540 H531 0.950 . S
C540 C539 1.398 . S
C540 C541 1.391 . S
C541 H529 0.950 . S
C541 C537 1.393 . S
C541 C540 1.391 . S
C542 H532 0.950 . S
C542 C543 1.386 . S
C542 C544 1.391 . S
C543 C542 1.386 . S
C543 C547 1.393 . S
C544 H533 0.950 . S
C544 C542 1.391 . S
C544 C545 1.400 . S
C545 C539 1.491 . S
C545 C544 1.400 . S
C545 C546 1.398 . S
C546 H534 0.950 . S
C546 C545 1.398 . S
C546 C547 1.391 . S
C547 H535 0.950 . S
C547 C543 1.393 . S
C547 C546 1.391 . S
H548 C556 0.950 . S
H549 C561 0.950 . S
H550 C558 0.950 1_455 S
H551 C560 0.950 . S
H552 C562 0.950 . S
H553 C564 0.950 . S
H554 C566 0.950 . S
H555 C567 0.950 . S
C556 H548 0.950 . S
C556 C557 1.386 . S
C556 C558 1.391 . S
C557 C556 1.386 . S
C557 C561 1.393 . S
C558 H550 0.950 1_655 S
C558 C556 1.391 . S
C558 C559 1.400 . S
C559 C558 1.400 . S
C559 C560 1.398 . S
C559 C565 1.491 . S
C560 H551 0.950 . S
C560 C559 1.398 . S
C560 C561 1.391 . S
C561 H549 0.950 . S
C561 C557 1.393 . S
C561 C560 1.391 . S
C562 H552 0.950 . S
C562 C563 1.386 . S
C562 C564 1.391 1_455 S
C563 C562 1.386 . S
C563 C567 1.393 . S
C564 H553 0.950 . S
C564 C562 1.391 1_655 S
C564 C565 1.400 1_554 S
C565 C559 1.491 . S
C565 C564 1.400 1_556 S
C565 C566 1.398 1_655 S
C566 H554 0.950 . S
C566 C565 1.398 1_455 S
C566 C567 1.391 1_556 S
C567 H555 0.950 . S
C567 C563 1.393 . S
C567 C566 1.391 1_554 S
H568 C576 0.950 . S
H569 C581 0.950 . S
H570 C578 0.950 . S
H571 C580 0.950 . S
H572 C582 0.950 . S
H573 C584 0.950 1_565 S
H574 C586 0.950 . S
H575 C587 0.950 . S
C576 H568 0.950 . S
C576 C577 1.386 . S
C576 C578 1.391 . S
C577 C576 1.386 . S
C577 C581 1.393 . S
C578 H570 0.950 . S
C578 C576 1.391 . S
C578 C579 1.400 . S
C579 C578 1.400 . S
C579 C580 1.398 . S
C579 C585 1.491 . S
C580 H571 0.950 . S
C580 C579 1.398 . S
C580 C581 1.391 . S
C581 H569 0.950 . S
C581 C577 1.393 . S
C581 C580 1.391 . S
C582 H572 0.950 . S
C582 C583 1.386 . S
C582 C584 1.391 . S
C583 C582 1.386 . S
C583 C587 1.393 . S
C584 H573 0.950 1_545 S
C584 C582 1.391 . S
C584 C585 1.400 1_545 S
C585 C579 1.491 . S
C585 C584 1.400 1_565 S
C585 C586 1.398 1_565 S
C586 H574 0.950 . S
C586 C585 1.398 1_545 S
C586 C587 1.391 . S
C587 H575 0.950 . S
C587 C583 1.393 . S
C587 C586 1.391 . S
H588 C596 0.950 . S
H589 C601 0.950 . S
H590 C598 0.950 . S
H591 C600 0.950 . S
H592 C602 0.950 . S
H593 C604 0.950 . S
H594 C606 0.950 . S
H595 C607 0.950 . S
C596 H588 0.950 . S
C596 C597 1.386 . S
C596 C598 1.391 . S
C597 C596 1.386 . S
C597 C601 1.393 . S
C598 H590 0.950 . S
C598 C596 1.391 . S
C598 C599 1.400 . S
C599 C598 1.400 . S
C599 C600 1.398 . S
C599 C605 1.491 . S
C600 H591 0.950 . S
C600 C599 1.398 . S
C600 C601 1.391 . S
C601 H589 0.950 . S
C601 C597 1.393 . S
C601 C600 1.391 . S
C602 H592 0.950 . S
C602 C603 1.386 . S
C602 C604 1.391 . S
C603 C602 1.386 . S
C603 C607 1.393 . S
C604 H593 0.950 . S
C604 C602 1.391 . S
C604 C605 1.400 . S
C605 C599 1.491 . S
C605 C604 1.400 . S
C605 C606 1.398 . S
C606 H594 0.950 . S
C606 C605 1.398 . S
C606 C607 1.391 . S
C607 H595 0.950 . S
C607 C603 1.393 . S
C607 C606 1.391 . S
H608 C616 0.950 . S
H609 C621 0.950 . S
H610 C618 0.950 . S
H611 C620 0.950 1_655 S
H612 C622 0.950 . S
H613 C624 0.950 . S
H614 C626 0.950 . S
H615 C627 0.955 . S
C616 H608 0.950 . S
C616 C617 1.386 . S
C616 C618 1.391 . S
C617 C616 1.386 . S
C617 C621 1.393 . S
C618 H610 0.950 . S
C618 C616 1.391 . S
C618 C619 1.400 . S
C619 C618 1.400 . S
C619 C620 1.398 . S
C619 C625 1.491 . S
C620 H611 0.950 1_455 S
C620 C619 1.398 . S
C620 C621 1.391 . S
C621 H609 0.950 . S
C621 C617 1.393 . S
C621 C620 1.391 . S
C622 H612 0.950 . S
C622 C623 1.386 . S
C622 C624 1.391 . S
C623 C622 1.386 . S
C623 C627 1.393 . S
C624 H613 0.950 . S
C624 C622 1.391 . S
C624 C625 1.400 1_655 S
C625 C619 1.491 . S
C625 C624 1.400 1_455 S
C625 C626 1.398 . S
C626 H614 0.950 . S
C626 C625 1.398 . S
C626 C627 1.391 1_455 S
C627 H615 0.955 . S
C627 C623 1.393 . S
C627 C626 1.391 1_655 S
H628 C636 0.950 . S
H629 C641 0.950 . S
H630 C638 0.950 . S
H631 C640 0.950 . S
H632 C642 0.950 . S
H633 C644 0.950 . S
H634 C646 0.950 . S
H635 C647 0.950 . S
C636 H628 0.950 . S
C636 C637 1.386 . S
C636 C638 1.391 . S
C637 C636 1.386 . S
C637 C641 1.393 . S
C638 H630 0.950 . S
C638 C636 1.391 . S
C638 C639 1.400 1_565 S
C639 C638 1.400 1_545 S
C639 C640 1.398 . S
C639 C645 1.491 . S
C640 H631 0.950 . S
C640 C639 1.398 . S
C640 C641 1.391 1_545 S
C641 H629 0.950 . S
C641 C637 1.393 . S
C641 C640 1.391 1_565 S
C642 H632 0.950 . S
C642 C643 1.386 . S
C642 C644 1.391 . S
C643 C642 1.386 . S
C643 C647 1.393 . S
C644 H633 0.950 . S
C644 C642 1.391 . S
C644 C645 1.400 . S
C645 C639 1.491 . S
C645 C644 1.400 . S
C645 C646 1.398 . S
C646 H634 0.950 . S
C646 C645 1.398 . S
C646 C647 1.391 . S
C647 H635 0.950 . S
C647 C643 1.393 . S
C647 C646 1.391 . S
C177 C123 1.240 . S
C183 C11 1.231 . S
C197 C25 1.231 . S
C203 C137 1.229 . S
C217 C39 1.242 . S
C223 C151 1.240 . S
C237 C53 1.228 . S
C243 C165 1.234 . S
C257 C95 1.231 . S
C263 C67 1.240 . S
C277 C81 1.243 . S
C283 C109 1.237 . S
C297 C134 0.826 . S
C303 C8 0.814 . S
C317 C22 0.846 . S
C323 C148 0.786 . S
C337 C162 0.837 . S
C343 C36 0.793 . S
C357 C50 0.821 . S
C363 C92 0.820 . S
C377 C106 0.797 . S
C383 C64 0.841 . S
C397 C120 0.846 . S
C403 C78 0.786 . S
C417 C7 1.276 . S
C423 C83 1.221 . S
C437 C21 1.274 . S
C443 C13 1.220 . S
C457 C27 1.183 . S
C463 C35 1.281 . S
C477 C49 1.282 . S
C483 C41 1.213 . S
C497 C63 1.284 . S
C503 C55 1.199 . S
C517 C77 1.283 . S
C523 C69 1.187 . S
C537 C91 1.269 . S
C543 C111 1.205 . S
C557 C105 1.278 . S
C563 C125 1.220 . S
C577 C119 1.270 . S
C583 C139 1.213 . S
C597 C133 1.271 . S
C603 C153 1.217 . S
C617 C147 1.275 . S
C623 C167 1.180 . S
C637 C97 1.219 . S
C643 C161 1.273 . S
