# Generated by pormake.
# Topology fna, (5)-cn, num edge types: 1
# Building blocks:
#     Node 0, Type 0, BuildingBlock: XOMCOT_clean_sbu_1, # of connection points: 5
#     Node 1, Type 0, BuildingBlock: XOMCOT_clean_sbu_1, # of connection points: 5
#     Node 2, Type 0, BuildingBlock: XOMCOT_clean_sbu_1, # of connection points: 5
#     Node 3, Type 0, BuildingBlock: XOMCOT_clean_sbu_1, # of connection points: 5
#     Node 4, Type 0, BuildingBlock: XOMCOT_clean_sbu_1, # of connection points: 5
#     Node 5, Type 0, BuildingBlock: XOMCOT_clean_sbu_1, # of connection points: 5
#     Node 6, Type 0, BuildingBlock: XOMCOT_clean_sbu_1, # of connection points: 5
#     Node 7, Type 0, BuildingBlock: XOMCOT_clean_sbu_1, # of connection points: 5
#     Node 8, Type 0, BuildingBlock: XOMCOT_clean_sbu_1, # of connection points: 5
#     Node 9, Type 0, BuildingBlock: XOMCOT_clean_sbu_1, # of connection points: 5
#     Node 10, Type 0, BuildingBlock: XOMCOT_clean_sbu_1, # of connection points: 5
#     Node 11, Type 0, BuildingBlock: XOMCOT_clean_sbu_1, # of connection points: 5
#     Edge 12, Type (0, 0), None
#     Edge 13, Type (0, 0), None
#     Edge 14, Type (0, 0), None
#     Edge 15, Type (0, 0), None
#     Edge 16, Type (0, 0), None
#     Edge 17, Type (0, 0), None
#     Edge 18, Type (0, 0), None
#     Edge 19, Type (0, 0), None
#     Edge 20, Type (0, 0), None
#     Edge 21, Type (0, 0), None
#     Edge 22, Type (0, 0), None
#     Edge 23, Type (0, 0), None
#     Edge 24, Type (0, 0), None
#     Edge 25, Type (0, 0), None
#     Edge 26, Type (0, 0), None
#     Edge 27, Type (0, 0), None
#     Edge 28, Type (0, 0), None
#     Edge 29, Type (0, 0), None
#     Edge 30, Type (0, 0), None
#     Edge 31, Type (0, 0), None
#     Edge 32, Type (0, 0), None
#     Edge 33, Type (0, 0), None
#     Edge 34, Type (0, 0), None
#     Edge 35, Type (0, 0), None
#     Edge 36, Type (0, 0), None
#     Edge 37, Type (0, 0), None
#     Edge 38, Type (0, 0), None
#     Edge 39, Type (0, 0), None
#     Edge 40, Type (0, 0), None
#     Edge 41, Type (0, 0), None
# Relax obj value: 0.399
# Max RMSD: 0.216
# Mean RMSD: 0.216
data_MOF--net-fna--node1-XOMCOT_clean_sbu_1--edge1-none
_symmetry_space_group_name_H-M    P1
_symmetry_Int_Tables_number       1
_symmetry_cell_setting            triclinic
loop_
_symmetry_equiv_pos_as_xyz
'x, y, z'
_cell_length_a     22.200604
_cell_length_b     22.199565
_cell_length_c     23.20434
_cell_angle_alpha  89.999315
_cell_angle_beta   90.000387
_cell_angle_gamma 119.99619
loop_
_atom_site_label
_atom_site_type_symbol
_atom_site_fract_x
_atom_site_fract_y
_atom_site_fract_z
_atom_type_partial_charge
C0 C 0.50167 0.42914 0.53852 0.0
C1 C 0.51609 0.45883 0.59255 0.0
N2 N 0.45727 0.42555 0.62348 0.0
N3 N 0.434 0.3787 0.53618 0.0
C4 C 0.40855 0.3775 0.58888 0.0
H5 H 0.5385 0.44216 0.50371 0.0
Co6 Co 0.38693 0.31861 0.47608 0.0
C7 C 0.23826 0.26949 0.50223 0.0
O8 O 0.2217 0.20679 0.4847 0.0
N9 N 0.3419 0.25774 0.41437 0.0
C10 C 0.26652 0.19505 0.34584 0.0
C11 C 0.29131 0.25379 0.37956 0.0
C12 C 0.35099 0.20434 0.39766 0.0
N13 N 0.30469 0.16457 0.35684 0.0
O14 O 0.3627 0.24131 0.52733 0.0
H15 H 0.27103 0.28907 0.38096 0.0
H16 H 0.38746 0.19207 0.41801 0.0
O17 O 0.30153 0.31891 0.49952 0.0
C18 C 0.41625 0.23909 0.54376 0.0
O19 O 0.47603 0.27983 0.51839 0.0
N20 N 0.41589 0.39586 0.42795 0.0
C21 C 0.52351 0.52855 0.40235 0.0
C22 C 0.46437 0.51983 0.43151 0.0
C23 C 0.41015 0.45222 0.44366 0.0
C24 C 0.468 0.40362 0.39235 0.0
C25 C 0.52252 0.46978 0.37896 0.0
H26 H 0.36963 0.44597 0.47304 0.0
H27 H 0.4729 0.35889 0.38147 0.0
H28 H 0.35587 0.34097 0.60203 0.0
H29 H 0.5659 0.49908 0.60855 0.0
H30 H 0.22371 0.17618 0.31559 0.0
H31 H 0.46334 0.56415 0.44989 0.0
H32 H 0.56696 0.4747 0.35549 0.0
C33 C 0.1201 0.47792 0.70519 0.0
C34 C 0.10482 0.49234 0.75922 0.0
N35 N 0.07927 0.43351 0.79015 0.0
N36 N 0.10287 0.41025 0.70285 0.0
C37 C 0.0786 0.38479 0.75555 0.0
H38 H 0.14391 0.51475 0.67039 0.0
Co39 Co 0.11589 0.36317 0.64275 0.0
C40 C 1.01635 0.21449 0.66889 0.0
O41 O 1.06249 0.19794 0.65137 0.0
N42 N 0.13174 0.31814 0.58105 0.0
C43 C 0.11908 0.24275 0.51254 0.0
C44 C 0.08513 0.26756 0.54623 0.0
C45 C 0.19424 0.32723 0.56437 0.0
N46 N 0.18772 0.2809 0.52357 0.0
O47 O 0.16894 0.33893 0.69401 0.0
H48 H 1.02956 0.24729 0.54762 0.0
H49 H 0.24296 0.3637 0.58471 0.0
O50 O 1.03019 0.27776 0.66619 0.0
C51 C 0.22472 0.39248 0.71045 0.0
O52 O 0.24376 0.45227 0.68509 0.0
N53 N 1.06762 0.39214 0.59461 0.0
C54 C 1.04257 0.49978 0.56903 0.0
C55 C 0.99213 0.44063 0.59817 0.0
C56 C 1.00551 0.3864 0.61032 0.0
C57 C 0.11197 0.44426 0.55903 0.0
C58 C 0.10034 0.49879 0.54564 0.0
H59 H 0.97125 0.34588 0.63969 0.0
H60 H 0.1616 0.44915 0.54815 0.0
H61 H 1.06245 0.3321 0.7687 0.0
H62 H 0.11438 0.54215 0.77522 0.0
H63 H 0.09516 0.19997 0.48227 0.0
H64 H 0.94679 0.4396 0.61655 0.0
H65 H 0.13987 0.54324 0.52218 0.0
C66 C 0.68973 0.09632 0.8718 0.0
C67 C 0.66002 0.08104 0.92582 0.0
N68 N 0.69328 0.05548 0.95676 0.0
N69 N 0.74018 0.07909 0.86948 0.0
C70 C 0.74135 0.05482 0.92218 0.0
H71 H 0.67673 0.12014 0.83699 0.0
Co72 Co 0.80029 0.09211 0.80939 0.0
C73 C 0.84939 0.99253 0.83555 0.0
O74 O 0.91209 1.03865 0.81803 0.0
N75 N 0.86118 0.10796 0.7477 0.0
C76 C 0.92392 0.09531 0.6792 0.0
C77 C 0.86516 0.06135 0.71289 0.0
C78 C 0.91458 0.17046 0.73102 0.0
N79 N 0.9544 0.16394 0.69023 0.0
O80 O 0.87756 0.14516 0.86066 0.0
H81 H 0.82988 1.00578 0.71427 0.0
H82 H 0.92682 0.21919 0.75136 0.0
O83 O 0.79998 1.0064 0.83283 0.0
C84 C 0.87978 0.20094 0.8771 0.0
O85 O 0.83904 0.21998 0.85172 0.0
N86 N 0.72307 1.04384 0.76124 0.0
C87 C 0.59039 1.01879 0.73563 0.0
C88 C 0.5991 0.96835 0.76477 0.0
C89 C 0.6667 0.98173 0.77693 0.0
C90 C 0.71531 0.0882 0.72565 0.0
C91 C 0.64916 0.07657 0.71224 0.0
H92 H 0.67295 0.94746 0.80631 0.0
H93 H 0.76004 0.13783 0.71477 0.0
H94 H 0.77788 1.03866 0.93533 0.0
H95 H 0.61977 0.09061 0.94181 0.0
H96 H 0.94279 0.07138 0.64893 0.0
H97 H 0.55478 0.923 0.78315 0.0
H98 H 0.64424 0.1161 0.68878 0.0
C99 C 0.64092 0.66594 0.03852 0.0
C100 C 0.6265 0.63625 0.09255 0.0
N101 N 0.68532 0.66952 0.12348 0.0
N102 N 0.70859 0.71638 0.03618 0.0
C103 C 0.73404 0.71758 0.08888 0.0
H104 H 0.60409 0.65292 0.00371 0.0
Co105 Co 0.75567 0.77647 0.97608 0.0
C106 C 0.90434 0.82559 0.00223 0.0
O107 O 0.9209 0.88829 0.9847 0.0
N108 N 0.8007 0.83735 0.91437 0.0
C109 C 0.8761 0.90006 0.84586 0.0
C110 C 0.85128 0.8413 0.87956 0.0
C111 C 0.79163 0.89077 0.89768 0.0
N112 N 0.83797 0.93057 0.85689 0.0
O113 O 0.7799 0.85377 0.02733 0.0
H114 H 0.87154 0.806 0.88095 0.0
H115 H 0.75516 0.90304 0.91802 0.0
O116 O 0.84107 0.77617 -0.00048 0.0
C117 C 0.72634 0.85599 0.04376 0.0
O118 O 0.66656 0.81525 0.01838 0.0
N119 N 0.72671 0.69923 0.92794 0.0
C120 C 0.61907 0.56655 0.90236 0.0
C121 C 0.67822 0.57526 0.93151 0.0
C122 C 0.73245 0.64286 0.94365 0.0
C123 C 0.67459 0.69147 0.89236 0.0
C124 C 0.62007 0.62532 0.87897 0.0
H125 H 0.77296 0.64912 0.97303 0.0
H126 H 0.6697 0.73621 0.88147 0.0
H127 H 0.78673 0.75411 0.10203 0.0
H128 H 0.57669 0.596 0.10854 0.0
H129 H 0.91889 0.91891 0.81559 0.0
H130 H 0.67925 0.53094 0.94989 0.0
H131 H 0.57562 0.6204 0.8555 0.0
C132 C 1.0225 0.61716 0.2052 0.0
C133 C 1.03778 0.60274 0.25923 0.0
N134 N 1.06333 0.66157 0.29015 0.0
N135 N 1.03973 0.68483 0.20286 0.0
C136 C 1.06399 0.71029 0.25556 0.0
H137 H 0.9987 0.58033 0.17039 0.0
Co138 Co 1.0267 0.73191 0.14276 0.0
C139 C 0.12624 0.88058 0.1689 0.0
O140 O 0.08009 0.89713 0.15138 0.0
N141 N 1.01085 0.77693 0.08106 0.0
C142 C 1.02351 0.85232 0.01254 0.0
C143 C 1.05746 0.82752 0.04624 0.0
C144 C 0.94835 0.76785 0.06437 0.0
N145 N 0.95488 0.81418 0.02357 0.0
O146 O 0.97364 0.75614 0.19402 0.0
H147 H 0.11303 0.84779 0.04762 0.0
H148 H 0.89963 0.73137 0.08471 0.0
O149 O 0.1124 0.81731 0.16619 0.0
C150 C 0.91787 0.70258 0.21046 0.0
O151 O 0.89884 0.6428 0.1851 0.0
N152 N 0.07498 0.70294 0.09462 0.0
C153 C 0.10003 0.5953 0.06903 0.0
C154 C 0.15046 0.65445 0.09818 0.0
C155 C 0.13708 0.70868 0.11032 0.0
C156 C 1.03063 0.65083 0.05903 0.0
C157 C 1.04226 0.5963 0.04564 0.0
H158 H 0.17135 0.7492 0.1397 0.0
H159 H 0.98099 0.64593 0.04815 0.0
H160 H 0.08014 0.76298 0.2687 0.0
H161 H 1.02823 0.55293 0.27523 0.0
H162 H 1.04744 0.89511 0.98227 0.0
H163 H 0.19581 0.65548 0.11655 0.0
H164 H 1.00274 0.55185 0.02218 0.0
C165 C 0.45286 0.99876 0.3718 0.0
C166 C 0.48257 1.01404 0.42582 0.0
N167 N 0.44931 1.0396 0.45676 0.0
N168 N 0.40242 1.016 0.36948 0.0
C169 C 0.40125 1.04027 0.42217 0.0
H170 H 0.46586 0.97494 0.33699 0.0
Co171 Co 0.3423 1.00298 0.30939 0.0
C172 C 0.29323 0.10258 0.33554 0.0
O173 O 0.23051 0.05645 0.31805 0.0
N174 N 0.28141 0.98712 0.2477 0.0
C175 C 0.21865 0.99977 0.17921 0.0
C176 C 0.27742 1.03373 0.21289 0.0
C177 C 0.22801 0.92462 0.23102 0.0
N178 N 0.18818 0.93113 0.19024 0.0
O179 O 0.26503 0.94994 0.36067 0.0
H180 H 0.3127 0.0893 0.21427 0.0
H181 H 0.21577 0.87589 0.25136 0.0
O182 O 0.34263 0.0887 0.33282 0.0
C183 C 0.26281 0.89416 0.3771 0.0
O184 O 0.30354 0.87511 0.35172 0.0
N185 N 0.41952 0.05123 0.26123 0.0
C186 C 0.5522 0.07626 0.23562 0.0
C187 C 0.54349 0.12671 0.26476 0.0
C188 C 0.47589 0.11334 0.27692 0.0
C189 C 0.42727 1.00686 0.22565 0.0
C190 C 0.49342 1.01849 0.21225 0.0
H191 H 0.46964 0.14762 0.30629 0.0
H192 H 0.38254 0.95723 0.21479 0.0
H193 H 0.36472 0.05643 0.43533 0.0
H194 H 0.52282 1.00447 0.44181 0.0
H195 H 0.19978 1.02369 0.14894 0.0
H196 H 0.58781 0.17207 0.28312 0.0
H197 H 0.49834 0.97895 0.18879 0.0
C198 C 0.68967 0.61717 0.26735 0.0
C199 C 0.66002 0.60272 0.2133 0.0
N200 N 0.69337 0.6615 0.18233 0.0
N201 N 0.74015 0.68484 0.26966 0.0
C202 C 0.7414 0.71025 0.21693 0.0
H203 H 0.6766 0.58038 0.30218 0.0
Co204 Co 0.80024 0.73194 0.32975 0.0
C205 C 0.84935 0.88061 0.30357 0.0
O206 O 0.91205 0.89717 0.3211 0.0
N207 N 0.86113 0.77698 0.39145 0.0
C208 C 0.92385 0.85237 0.45996 0.0
C209 C 0.86511 0.82758 0.42625 0.0
C210 C 0.91452 0.76787 0.40815 0.0
N211 N 0.95431 0.81418 0.44896 0.0
O212 O 0.87753 0.75615 0.27849 0.0
H213 H 0.82984 0.84788 0.42485 0.0
H214 H 0.92676 0.73139 0.38781 0.0
O215 O 0.79994 0.81733 0.30629 0.0
C216 C 0.87974 0.70259 0.26206 0.0
O217 O 0.83901 0.6428 0.28743 0.0
N218 N 0.72301 0.70299 0.37789 0.0
C219 C 0.59034 0.59537 0.4035 0.0
C220 C 0.59904 0.65452 0.37434 0.0
C221 C 0.66665 0.70873 0.36218 0.0
C222 C 0.71525 0.65089 0.4135 0.0
C223 C 0.6491 0.59637 0.4269 0.0
H224 H 0.6729 0.74925 0.3328 0.0
H225 H 0.75999 0.64599 0.42438 0.0
H226 H 0.77795 0.76292 0.20376 0.0
H227 H 0.61974 0.55291 0.19733 0.0
H228 H 0.94273 0.89518 0.4902 0.0
H229 H 0.55473 0.65554 0.35596 0.0
H230 H 0.64418 0.55193 0.45038 0.0
C231 C 0.12006 0.66594 0.43402 0.0
C232 C 0.10485 0.63628 0.37998 0.0
N233 N 0.07941 0.66962 0.34901 0.0
N234 N 0.10286 0.71641 0.43632 0.0
C235 C 0.07868 0.71765 0.3836 0.0
H236 H 0.1438 0.65288 0.46885 0.0
Co237 Co 0.11587 0.77652 0.49641 0.0
C238 C 1.01629 0.82562 0.47025 0.0
O239 O 1.06244 0.88834 0.48774 0.0
N240 N 0.13172 0.83741 0.55811 0.0
C241 C 0.1191 0.90017 0.62661 0.0
C242 C 0.08512 0.84142 0.59291 0.0
C243 C 0.19423 0.89079 0.5748 0.0
N244 N 0.18774 0.9306 0.61561 0.0
O245 O 0.16891 0.8538 0.44514 0.0
H246 H 1.02955 0.80617 0.59151 0.0
H247 H 0.24295 0.90301 0.55446 0.0
O248 O 1.03016 0.7762 0.47298 0.0
C249 C 0.22469 0.85602 0.4287 0.0
O250 O 0.24374 0.81529 0.45407 0.0
N251 N 1.06761 0.69929 0.54457 0.0
C252 C 1.04257 0.56661 0.57018 0.0
C253 C 0.99212 0.57532 0.54103 0.0
C254 C 1.0055 0.64292 0.52887 0.0
C255 C 0.11196 0.69154 0.58016 0.0
C256 C 0.10033 0.62538 0.59356 0.0
H257 H 0.97123 0.64917 0.4995 0.0
H258 H 0.16159 0.73627 0.59103 0.0
H259 H 1.06255 0.7542 0.37043 0.0
H260 H 0.11439 0.596 0.364 0.0
H261 H 0.09518 0.91907 0.65686 0.0
H262 H 0.94678 0.531 0.52266 0.0
H263 H 0.13986 0.62046 0.61703 0.0
C264 C 0.5017 0.09631 0.60062 0.0
C265 C 0.51614 0.08111 0.54657 0.0
N266 N 0.45735 0.05568 0.51561 0.0
N267 N 0.43404 0.07912 0.60294 0.0
C268 C 0.40861 0.05495 0.55022 0.0
H269 H 0.5385 0.12004 0.63545 0.0
Co270 Co 0.38695 0.09212 0.66305 0.0
C271 C 0.23829 0.99258 0.6369 0.0
O272 O 0.22174 1.03874 0.65439 0.0
N273 N 0.34192 0.10796 0.72476 0.0
C274 C 0.26653 0.09529 0.79327 0.0
C275 C 0.29133 0.06134 0.75956 0.0
C276 C 0.35103 0.17046 0.74147 0.0
N277 N 0.30471 0.16394 0.78228 0.0
O278 O 0.36271 0.14518 0.6118 0.0
H279 H 0.27103 1.00577 0.75815 0.0
H280 H 0.3875 0.21919 0.72112 0.0
O281 O 0.30156 1.00642 0.63961 0.0
C282 C 0.41626 0.20096 0.59536 0.0
O283 O 0.47605 0.22 0.62072 0.0
N284 N 0.41593 1.04385 0.71119 0.0
C285 C 0.52356 1.0188 0.73677 0.0
C286 C 0.46442 0.96836 0.70763 0.0
C287 C 0.41019 0.98174 0.69548 0.0
C288 C 0.46803 0.0882 0.74678 0.0
C289 C 0.52256 0.07656 0.76017 0.0
H290 H 0.36967 0.94747 0.6661 0.0
H291 H 0.47293 0.13783 0.75766 0.0
H292 H 0.35593 1.03883 0.53707 0.0
H293 H 0.56595 0.09064 0.53059 0.0
H294 H 0.22373 0.07136 0.82352 0.0
H295 H 0.46339 0.92301 0.68925 0.0
H296 H 0.567 0.11609 0.78364 0.0
C297 C 0.45292 0.4779 0.76735 0.0
C298 C 0.48257 0.49236 0.7133 0.0
N299 N 0.44922 0.43358 0.68233 0.0
N300 N 0.40245 0.41024 0.76966 0.0
C301 C 0.4012 0.38483 0.71693 0.0
H302 H 0.46598 0.5147 0.80218 0.0
Co303 Co 0.34235 0.36314 0.82975 0.0
C304 C 0.29326 0.21447 0.80358 0.0
O305 O 0.23055 0.1979 0.82107 0.0
N306 N 0.28146 0.3181 0.89145 0.0
C307 C 0.21872 0.2427 0.95995 0.0
C308 C 0.27747 0.26748 0.92624 0.0
C309 C 0.22807 0.32721 0.90815 0.0
N310 N 0.18827 0.28089 0.94896 0.0
O311 O 0.26506 0.33892 0.77849 0.0
H312 H 0.31273 0.24718 0.92484 0.0
H313 H 0.21583 0.3637 0.88781 0.0
O314 O 0.34267 0.27775 0.8063 0.0
C315 C 0.26284 0.39248 0.76206 0.0
O316 O 0.30358 0.45226 0.78743 0.0
N317 N 0.41957 0.3921 0.8779 0.0
C318 C 0.55225 0.49972 0.90351 0.0
C319 C 0.54354 0.44057 0.87436 0.0
C320 C 0.47594 0.38635 0.8622 0.0
C321 C 0.42733 0.4442 0.9135 0.0
C322 C 0.49348 0.49872 0.9269 0.0
H323 H 0.46969 0.34584 0.83282 0.0
H324 H 0.3826 0.4491 0.92437 0.0
H325 H 0.36465 0.33215 0.70377 0.0
H326 H 0.52285 0.54217 0.69733 0.0
H327 H 0.19984 0.19988 -0.00981 0.0
H328 H 0.58786 0.43954 0.85598 0.0
H329 H 0.4984 0.54317 0.95037 0.0
C330 C 1.02255 0.42915 0.93401 0.0
C331 C 1.03775 0.45881 0.87997 0.0
N332 N 1.06319 0.42546 0.849 0.0
N333 N 1.03974 0.37868 0.93632 0.0
C334 C 1.06391 0.37743 0.88359 0.0
H335 H 0.99881 0.44221 0.96884 0.0
Co336 Co 1.02672 0.31856 -0.00359 0.0
C337 C 0.12629 0.26946 0.97025 0.0
O338 O 0.08015 0.20674 -0.01227 0.0
N339 N 1.01087 0.25767 0.0581 0.0
C340 C 1.0235 0.19491 0.12661 0.0
C341 C 1.05747 0.25366 0.0929 0.0
C342 C 0.94836 0.20429 0.0748 0.0
N343 N 0.95486 0.16448 0.11561 0.0
O344 O 0.97368 0.24128 0.94514 0.0
H345 H 0.11304 0.28891 0.09151 0.0
H346 H 0.89964 0.19207 0.05446 0.0
O347 O 0.11244 0.31888 0.97297 0.0
C348 C 0.9179 0.23907 0.9287 0.0
O349 O 0.89885 0.27981 0.95407 0.0
N350 N 0.07499 0.39579 0.04457 0.0
C351 C 0.10003 0.52847 0.07018 0.0
C352 C 0.15047 0.51976 0.04103 0.0
C353 C 0.1371 0.45216 0.02887 0.0
C354 C 1.03064 0.40355 0.08016 0.0
C355 C 1.04227 0.4697 0.09356 0.0
H356 H 0.17136 0.44591 -0.00051 0.0
H357 H 0.98101 0.35881 0.09103 0.0
H358 H 0.08003 0.34088 0.87043 0.0
H359 H 1.02822 0.49909 0.86399 0.0
H360 H 1.04741 0.17601 0.15686 0.0
H361 H 0.19582 0.56409 0.02266 0.0
H362 H 1.00274 0.47462 0.11703 0.0
C363 C 0.64089 0.99877 0.10062 0.0
C364 C 0.62645 1.01397 0.04657 0.0
N365 N 0.68524 1.03941 0.01561 0.0
N366 N 0.70856 1.01596 0.10295 0.0
C367 C 0.73398 1.04013 0.05022 0.0
H368 H 0.60409 0.97504 0.13545 0.0
Co369 Co 0.75564 1.00296 0.16305 0.0
C370 C 0.9043 0.1025 0.1369 0.0
O371 O 0.92085 0.05634 0.15439 0.0
N372 N 0.80067 0.98711 0.22475 0.0
C373 C 0.87608 0.99979 0.29326 0.0
C374 C 0.85127 1.03374 0.25956 0.0
C375 C 0.7916 0.92462 0.24144 0.0
N376 N 0.83794 0.93115 0.28223 0.0
O377 O 0.77988 0.9499 0.1118 0.0
H378 H 0.87154 0.0893 0.25817 0.0
H379 H 0.75512 0.87589 0.22111 0.0
O380 O 0.84103 0.08867 0.13961 0.0
C381 C 0.72633 0.89412 0.09536 0.0
O382 O 0.66655 0.87508 0.12072 0.0
N383 N 0.72667 0.05122 0.21119 0.0
C384 C 0.61902 0.07626 0.23677 0.0
C385 C 0.67817 0.12671 0.20763 0.0
C386 C 0.7324 0.11333 0.19548 0.0
C387 C 0.67456 1.00687 0.24678 0.0
C388 C 0.62003 1.0185 0.26017 0.0
H389 H 0.77292 0.1476 0.16611 0.0
H390 H 0.66967 0.95724 0.25766 0.0
H391 H 0.78666 0.05625 0.03707 0.0
H392 H 0.57665 1.00444 0.03059 0.0
H393 H 0.91887 1.02372 0.32352 0.0
H394 H 0.67919 0.17206 0.18925 0.0
H395 H 0.57558 0.97897 0.28363 0.0
loop_
_geom_bond_atom_site_label_1
_geom_bond_atom_site_label_2
_geom_bond_distance
_geom_bond_site_symmetry_2
_ccdc_geom_bond_type
C0 C1 1.351 . S
C0 N3 1.368 . S
C0 H5 0.931 . S
C1 C0 1.351 . S
C1 N2 1.373 . S
C1 H29 0.930 . S
N2 C1 1.373 . S
N2 C4 1.340 . S
N3 C0 1.368 . S
N3 C4 1.321 . S
N3 Co6 2.135 . S
C4 N2 1.340 . S
C4 N3 1.321 . S
C4 H28 0.930 . S
H5 C0 0.931 . S
Co6 N3 2.135 . S
Co6 N9 2.121 . S
Co6 O14 2.055 . S
Co6 O17 2.039 . S
Co6 N20 2.140 . S
C7 O8 1.227 . S
C7 O17 1.265 . S
O8 C7 1.227 . S
N9 Co6 2.121 . S
N9 C11 1.375 . S
N9 C12 1.313 . S
C10 C11 1.338 . S
C10 N13 1.377 . S
C10 H30 0.930 . S
C11 N9 1.375 . S
C11 C10 1.338 . S
C11 H15 0.931 . S
C12 N9 1.313 . S
C12 N13 1.344 . S
C12 H16 0.930 . S
N13 C10 1.377 . S
N13 C12 1.344 . S
O14 Co6 2.055 . S
O14 C18 1.253 . S
H15 C11 0.931 . S
H16 C12 0.930 . S
O17 Co6 2.039 . S
O17 C7 1.265 . S
C18 O14 1.253 . S
C18 O19 1.227 . S
O19 C18 1.227 . S
N20 Co6 2.140 . S
N20 C23 1.346 . S
N20 C24 1.345 . S
C21 C22 1.387 . S
C21 C25 1.391 . S
C22 C21 1.387 . S
C22 C23 1.369 . S
C22 H31 0.929 . S
C23 N20 1.346 . S
C23 C22 1.369 . S
C23 H26 0.928 . S
C24 N20 1.345 . S
C24 C25 1.371 . S
C24 H27 0.931 . S
C25 C21 1.391 . S
C25 C24 1.371 . S
C25 H32 0.930 . S
H26 C23 0.928 . S
H27 C24 0.931 . S
H28 C4 0.930 . S
H29 C1 0.930 . S
H30 C10 0.930 . S
H31 C22 0.929 . S
H32 C25 0.930 . S
C33 C34 1.351 . S
C33 N36 1.368 . S
C33 H38 0.931 . S
C34 C33 1.351 . S
C34 N35 1.373 1_455 S
C34 H62 0.930 . S
N35 C34 1.373 1_655 S
N35 C37 1.340 . S
N36 C33 1.368 . S
N36 C37 1.321 1_455 S
N36 Co39 2.135 . S
C37 N35 1.340 . S
C37 N36 1.321 1_655 S
C37 H61 0.930 . S
H38 C33 0.931 . S
Co39 N36 2.135 . S
Co39 N42 2.121 . S
Co39 O47 2.055 . S
Co39 O50 2.039 1_455 S
Co39 N53 2.140 . S
C40 O41 1.227 . S
C40 O50 1.265 . S
O41 C40 1.227 . S
N42 Co39 2.121 . S
N42 C44 1.375 . S
N42 C45 1.313 . S
C43 C44 1.338 . S
C43 N46 1.377 . S
C43 H63 0.930 . S
C44 N42 1.375 . S
C44 C43 1.338 . S
C44 H48 0.931 1_455 S
C45 N42 1.313 . S
C45 N46 1.344 . S
C45 H49 0.930 . S
N46 C43 1.377 . S
N46 C45 1.344 . S
O47 Co39 2.055 . S
O47 C51 1.253 . S
H48 C44 0.931 1_655 S
H49 C45 0.930 . S
O50 Co39 2.039 1_655 S
O50 C40 1.265 . S
C51 O47 1.253 . S
C51 O52 1.227 . S
O52 C51 1.227 . S
N53 Co39 2.140 . S
N53 C56 1.346 . S
N53 C57 1.345 . S
C54 C55 1.387 . S
C54 C58 1.391 . S
C55 C54 1.387 . S
C55 C56 1.369 . S
C55 H64 0.929 1_455 S
C56 N53 1.346 . S
C56 C55 1.369 . S
C56 H59 0.928 1_455 S
C57 N53 1.345 . S
C57 C58 1.371 . S
C57 H60 0.931 . S
C58 C54 1.391 . S
C58 C57 1.371 . S
C58 H65 0.930 . S
H59 C56 0.928 1_655 S
H60 C57 0.931 . S
H61 C37 0.930 . S
H62 C34 0.930 . S
H63 C43 0.930 . S
H64 C55 0.929 1_655 S
H65 C58 0.930 . S
C66 C67 1.351 . S
C66 N69 1.368 . S
C66 H71 0.931 . S
C67 C66 1.351 . S
C67 N68 1.373 1_545 S
C67 H95 0.930 1_556 S
N68 C67 1.373 1_565 S
N68 C70 1.340 . S
N69 C66 1.368 . S
N69 C70 1.321 1_545 S
N69 Co72 2.135 . S
C70 N68 1.340 . S
C70 N69 1.321 1_565 S
C70 H94 0.930 . S
H71 C66 0.931 . S
Co72 N69 2.135 . S
Co72 N75 2.121 . S
Co72 O80 2.055 . S
Co72 O83 2.039 1_545 S
Co72 N86 2.140 . S
C73 O74 1.227 . S
C73 O83 1.265 . S
O74 C73 1.227 . S
N75 Co72 2.121 . S
N75 C77 1.375 . S
N75 C78 1.313 . S
C76 C77 1.338 . S
C76 N79 1.377 . S
C76 H96 0.930 . S
C77 N75 1.375 . S
C77 C76 1.338 . S
C77 H81 0.931 1_545 S
C78 N75 1.313 . S
C78 N79 1.344 . S
C78 H82 0.930 . S
N79 C76 1.377 . S
N79 C78 1.344 . S
O80 Co72 2.055 . S
O80 C84 1.253 . S
H81 C77 0.931 1_565 S
H82 C78 0.930 . S
O83 Co72 2.039 1_565 S
O83 C73 1.265 . S
C84 O80 1.253 . S
C84 O85 1.227 . S
O85 C84 1.227 . S
N86 Co72 2.140 . S
N86 C89 1.346 . S
N86 C90 1.345 . S
C87 C88 1.387 . S
C87 C91 1.391 . S
C88 C87 1.387 . S
C88 C89 1.369 . S
C88 H97 0.929 1_545 S
C89 N86 1.346 . S
C89 C88 1.369 . S
C89 H92 0.928 1_545 S
C90 N86 1.345 . S
C90 C91 1.371 . S
C90 H93 0.931 . S
C91 C87 1.391 . S
C91 C90 1.371 . S
C91 H98 0.930 . S
H92 C89 0.928 1_565 S
H93 C90 0.931 . S
H94 C70 0.930 . S
H95 C67 0.930 1_554 S
H96 C76 0.930 . S
H97 C88 0.929 1_565 S
H98 C91 0.930 . S
C99 C100 1.351 . S
C99 N102 1.368 . S
C99 H104 0.931 . S
C100 C99 1.351 . S
C100 N101 1.373 . S
C100 H128 0.930 . S
N101 C100 1.373 . S
N101 C103 1.340 . S
N102 C99 1.368 . S
N102 C103 1.321 . S
N102 Co105 2.135 1_554 S
C103 N101 1.340 . S
C103 N102 1.321 . S
C103 H127 0.930 . S
H104 C99 0.931 . S
Co105 N102 2.135 1_556 S
Co105 N108 2.121 . S
Co105 O113 2.055 1_556 S
Co105 O116 2.039 1_556 S
Co105 N119 2.140 . S
C106 O107 1.227 . S
C106 O116 1.265 1_556 S
O107 C106 1.227 . S
N108 Co105 2.121 . S
N108 C110 1.375 . S
N108 C111 1.313 . S
C109 C110 1.338 . S
C109 N112 1.377 . S
C109 H129 0.930 . S
C110 N108 1.375 . S
C110 C109 1.338 . S
C110 H114 0.931 . S
C111 N108 1.313 . S
C111 N112 1.344 . S
C111 H115 0.930 . S
N112 C109 1.377 . S
N112 C111 1.344 . S
O113 Co105 2.055 1_554 S
O113 C117 1.253 . S
H114 C110 0.931 . S
H115 C111 0.930 . S
O116 Co105 2.039 1_554 S
O116 C106 1.265 1_554 S
C117 O113 1.253 . S
C117 O118 1.227 . S
O118 C117 1.227 . S
N119 Co105 2.140 . S
N119 C122 1.346 . S
N119 C123 1.345 . S
C120 C121 1.387 . S
C120 C124 1.391 . S
C121 C120 1.387 . S
C121 C122 1.369 . S
C121 H130 0.929 . S
C122 N119 1.346 . S
C122 C121 1.369 . S
C122 H125 0.928 . S
C123 N119 1.345 . S
C123 C124 1.371 . S
C123 H126 0.931 . S
C124 C120 1.391 . S
C124 C123 1.371 . S
C124 H131 0.930 . S
H125 C122 0.928 . S
H126 C123 0.931 . S
H127 C103 0.930 . S
H128 C100 0.930 . S
H129 C109 0.930 . S
H130 C121 0.929 . S
H131 C124 0.930 . S
C132 C133 1.351 . S
C132 N135 1.368 . S
C132 H137 0.931 . S
C133 C132 1.351 . S
C133 N134 1.373 1_655 S
C133 H161 0.930 . S
N134 C133 1.373 1_455 S
N134 C136 1.340 . S
N135 C132 1.368 . S
N135 C136 1.321 1_655 S
N135 Co138 2.135 . S
C136 N134 1.340 . S
C136 N135 1.321 1_455 S
C136 H160 0.930 . S
H137 C132 0.931 . S
Co138 N135 2.135 . S
Co138 N141 2.121 . S
Co138 O146 2.055 . S
Co138 O149 2.039 1_655 S
Co138 N152 2.140 . S
C139 O140 1.227 . S
C139 O149 1.265 . S
O140 C139 1.227 . S
N141 Co138 2.121 . S
N141 C143 1.375 . S
N141 C144 1.313 . S
C142 C143 1.338 1_556 S
C142 N145 1.377 1_556 S
C142 H162 0.930 . S
C143 N141 1.375 . S
C143 C142 1.338 1_554 S
C143 H147 0.931 1_655 S
C144 N141 1.313 . S
C144 N145 1.344 . S
C144 H148 0.930 . S
N145 C142 1.377 1_554 S
N145 C144 1.344 . S
O146 Co138 2.055 . S
O146 C150 1.253 . S
H147 C143 0.931 1_455 S
H148 C144 0.930 . S
O149 Co138 2.039 1_455 S
O149 C139 1.265 . S
C150 O146 1.253 . S
C150 O151 1.227 . S
O151 C150 1.227 . S
N152 Co138 2.140 . S
N152 C155 1.346 . S
N152 C156 1.345 . S
C153 C154 1.387 . S
C153 C157 1.391 . S
C154 C153 1.387 . S
C154 C155 1.369 . S
C154 H163 0.929 1_655 S
C155 N152 1.346 . S
C155 C154 1.369 . S
C155 H158 0.928 1_655 S
C156 N152 1.345 . S
C156 C157 1.371 . S
C156 H159 0.931 . S
C157 C153 1.391 . S
C157 C156 1.371 . S
C157 H164 0.930 . S
H158 C155 0.928 1_455 S
H159 C156 0.931 . S
H160 C136 0.930 . S
H161 C133 0.930 . S
H162 C142 0.930 . S
H163 C154 0.929 1_455 S
H164 C157 0.930 . S
C165 C166 1.351 . S
C165 N168 1.368 . S
C165 H170 0.931 . S
C166 C165 1.351 . S
C166 N167 1.373 1_565 S
C166 H194 0.930 . S
N167 C166 1.373 1_545 S
N167 C169 1.340 . S
N168 C165 1.368 . S
N168 C169 1.321 1_565 S
N168 Co171 2.135 . S
C169 N167 1.340 . S
C169 N168 1.321 1_545 S
C169 H193 0.930 . S
H170 C165 0.931 . S
Co171 N168 2.135 . S
Co171 N174 2.121 . S
Co171 O179 2.055 . S
Co171 O182 2.039 1_565 S
Co171 N185 2.140 . S
C172 O173 1.227 . S
C172 O182 1.265 . S
O173 C172 1.227 . S
N174 Co171 2.121 . S
N174 C176 1.375 . S
N174 C177 1.313 . S
C175 C176 1.338 . S
C175 N178 1.377 . S
C175 H195 0.930 . S
C176 N174 1.375 . S
C176 C175 1.338 . S
C176 H180 0.931 1_565 S
C177 N174 1.313 . S
C177 N178 1.344 . S
C177 H181 0.930 . S
N178 C175 1.377 . S
N178 C177 1.344 . S
O179 Co171 2.055 . S
O179 C183 1.253 . S
H180 C176 0.931 1_545 S
H181 C177 0.930 . S
O182 Co171 2.039 1_545 S
O182 C172 1.265 . S
C183 O179 1.253 . S
C183 O184 1.227 . S
O184 C183 1.227 . S
N185 Co171 2.140 . S
N185 C188 1.346 . S
N185 C189 1.345 . S
C186 C187 1.387 . S
C186 C190 1.391 . S
C187 C186 1.387 . S
C187 C188 1.369 . S
C187 H196 0.929 1_565 S
C188 N185 1.346 . S
C188 C187 1.369 . S
C188 H191 0.928 1_565 S
C189 N185 1.345 . S
C189 C190 1.371 . S
C189 H192 0.931 . S
C190 C186 1.391 . S
C190 C189 1.371 . S
C190 H197 0.930 . S
H191 C188 0.928 1_545 S
H192 C189 0.931 . S
H193 C169 0.930 . S
H194 C166 0.930 . S
H195 C175 0.930 . S
H196 C187 0.929 1_545 S
H197 C190 0.930 . S
C198 C199 1.351 . S
C198 N201 1.368 . S
C198 H203 0.931 . S
C199 C198 1.351 . S
C199 N200 1.373 . S
C199 H227 0.930 . S
N200 C199 1.373 . S
N200 C202 1.340 . S
N201 C198 1.368 . S
N201 C202 1.321 . S
N201 Co204 2.135 . S
C202 N200 1.340 . S
C202 N201 1.321 . S
C202 H226 0.930 . S
H203 C198 0.931 . S
Co204 N201 2.135 . S
Co204 N207 2.121 . S
Co204 O212 2.055 . S
Co204 O215 2.039 . S
Co204 N218 2.140 . S
C205 O206 1.227 . S
C205 O215 1.265 . S
O206 C205 1.227 . S
N207 Co204 2.121 . S
N207 C209 1.375 . S
N207 C210 1.313 . S
C208 C209 1.338 . S
C208 N211 1.377 . S
C208 H228 0.930 . S
C209 N207 1.375 . S
C209 C208 1.338 . S
C209 H213 0.931 . S
C210 N207 1.313 . S
C210 N211 1.344 . S
C210 H214 0.930 . S
N211 C208 1.377 . S
N211 C210 1.344 . S
O212 Co204 2.055 . S
O212 C216 1.253 . S
H213 C209 0.931 . S
H214 C210 0.930 . S
O215 Co204 2.039 . S
O215 C205 1.265 . S
C216 O212 1.253 . S
C216 O217 1.227 . S
O217 C216 1.227 . S
N218 Co204 2.140 . S
N218 C221 1.346 . S
N218 C222 1.345 . S
C219 C220 1.387 . S
C219 C223 1.391 . S
C220 C219 1.387 . S
C220 C221 1.369 . S
C220 H229 0.929 . S
C221 N218 1.346 . S
C221 C220 1.369 . S
C221 H224 0.928 . S
C222 N218 1.345 . S
C222 C223 1.371 . S
C222 H225 0.931 . S
C223 C219 1.391 . S
C223 C222 1.371 . S
C223 H230 0.930 . S
H224 C221 0.928 . S
H225 C222 0.931 . S
H226 C202 0.930 . S
H227 C199 0.930 . S
H228 C208 0.930 . S
H229 C220 0.929 . S
H230 C223 0.930 . S
C231 C232 1.351 . S
C231 N234 1.368 . S
C231 H236 0.931 . S
C232 C231 1.351 . S
C232 N233 1.373 1_455 S
C232 H260 0.930 . S
N233 C232 1.373 1_655 S
N233 C235 1.340 . S
N234 C231 1.368 . S
N234 C235 1.321 1_455 S
N234 Co237 2.135 . S
C235 N233 1.340 . S
C235 N234 1.321 1_655 S
C235 H259 0.930 . S
H236 C231 0.931 . S
Co237 N234 2.135 . S
Co237 N240 2.121 . S
Co237 O245 2.055 . S
Co237 O248 2.039 1_455 S
Co237 N251 2.140 . S
C238 O239 1.227 . S
C238 O248 1.265 . S
O239 C238 1.227 . S
N240 Co237 2.121 . S
N240 C242 1.375 . S
N240 C243 1.313 . S
C241 C242 1.338 . S
C241 N244 1.377 . S
C241 H261 0.930 . S
C242 N240 1.375 . S
C242 C241 1.338 . S
C242 H246 0.931 1_455 S
C243 N240 1.313 . S
C243 N244 1.344 . S
C243 H247 0.930 . S
N244 C241 1.377 . S
N244 C243 1.344 . S
O245 Co237 2.055 . S
O245 C249 1.253 . S
H246 C242 0.931 1_655 S
H247 C243 0.930 . S
O248 Co237 2.039 1_655 S
O248 C238 1.265 . S
C249 O245 1.253 . S
C249 O250 1.227 . S
O250 C249 1.227 . S
N251 Co237 2.140 . S
N251 C254 1.346 . S
N251 C255 1.345 . S
C252 C253 1.387 . S
C252 C256 1.391 . S
C253 C252 1.387 . S
C253 C254 1.369 . S
C253 H262 0.929 1_455 S
C254 N251 1.346 . S
C254 C253 1.369 . S
C254 H257 0.928 1_455 S
C255 N251 1.345 . S
C255 C256 1.371 . S
C255 H258 0.931 . S
C256 C252 1.391 . S
C256 C255 1.371 . S
C256 H263 0.930 . S
H257 C254 0.928 1_655 S
H258 C255 0.931 . S
H259 C235 0.930 . S
H260 C232 0.930 . S
H261 C241 0.930 . S
H262 C253 0.929 1_655 S
H263 C256 0.930 . S
C264 C265 1.351 . S
C264 N267 1.368 . S
C264 H269 0.931 . S
C265 C264 1.351 . S
C265 N266 1.373 1_545 S
C265 H293 0.930 . S
N266 C265 1.373 1_565 S
N266 C268 1.340 . S
N267 C264 1.368 . S
N267 C268 1.321 1_545 S
N267 Co270 2.135 . S
C268 N266 1.340 . S
C268 N267 1.321 1_565 S
C268 H292 0.930 . S
H269 C264 0.931 . S
Co270 N267 2.135 . S
Co270 N273 2.121 . S
Co270 O278 2.055 . S
Co270 O281 2.039 1_545 S
Co270 N284 2.140 . S
C271 O272 1.227 . S
C271 O281 1.265 . S
O272 C271 1.227 . S
N273 Co270 2.121 . S
N273 C275 1.375 . S
N273 C276 1.313 . S
C274 C275 1.338 . S
C274 N277 1.377 . S
C274 H294 0.930 . S
C275 N273 1.375 . S
C275 C274 1.338 . S
C275 H279 0.931 1_545 S
C276 N273 1.313 . S
C276 N277 1.344 . S
C276 H280 0.930 . S
N277 C274 1.377 . S
N277 C276 1.344 . S
O278 Co270 2.055 . S
O278 C282 1.253 . S
H279 C275 0.931 1_565 S
H280 C276 0.930 . S
O281 Co270 2.039 1_565 S
O281 C271 1.265 . S
C282 O278 1.253 . S
C282 O283 1.227 . S
O283 C282 1.227 . S
N284 Co270 2.140 . S
N284 C287 1.346 . S
N284 C288 1.345 . S
C285 C286 1.387 . S
C285 C289 1.391 . S
C286 C285 1.387 . S
C286 C287 1.369 . S
C286 H295 0.929 1_545 S
C287 N284 1.346 . S
C287 C286 1.369 . S
C287 H290 0.928 1_545 S
C288 N284 1.345 . S
C288 C289 1.371 . S
C288 H291 0.931 . S
C289 C285 1.391 . S
C289 C288 1.371 . S
C289 H296 0.930 . S
H290 C287 0.928 1_565 S
H291 C288 0.931 . S
H292 C268 0.930 . S
H293 C265 0.930 . S
H294 C274 0.930 . S
H295 C286 0.929 1_565 S
H296 C289 0.930 . S
C297 C298 1.351 . S
C297 N300 1.368 . S
C297 H302 0.931 . S
C298 C297 1.351 . S
C298 N299 1.373 . S
C298 H326 0.930 . S
N299 C298 1.373 . S
N299 C301 1.340 . S
N300 C297 1.368 . S
N300 C301 1.321 . S
N300 Co303 2.135 . S
C301 N299 1.340 . S
C301 N300 1.321 . S
C301 H325 0.930 . S
H302 C297 0.931 . S
Co303 N300 2.135 . S
Co303 N306 2.121 . S
Co303 O311 2.055 . S
Co303 O314 2.039 . S
Co303 N317 2.140 . S
C304 O305 1.227 . S
C304 O314 1.265 . S
O305 C304 1.227 . S
N306 Co303 2.121 . S
N306 C308 1.375 . S
N306 C309 1.313 . S
C307 C308 1.338 1_554 S
C307 N310 1.377 1_554 S
C307 H327 0.930 . S
C308 N306 1.375 . S
C308 C307 1.338 1_556 S
C308 H312 0.931 . S
C309 N306 1.313 . S
C309 N310 1.344 . S
C309 H313 0.930 . S
N310 C307 1.377 1_556 S
N310 C309 1.344 . S
O311 Co303 2.055 . S
O311 C315 1.253 . S
H312 C308 0.931 . S
H313 C309 0.930 . S
O314 Co303 2.039 . S
O314 C304 1.265 . S
C315 O311 1.253 . S
C315 O316 1.227 . S
O316 C315 1.227 . S
N317 Co303 2.140 . S
N317 C320 1.346 . S
N317 C321 1.345 . S
C318 C319 1.387 . S
C318 C322 1.391 . S
C319 C318 1.387 . S
C319 C320 1.369 . S
C319 H328 0.929 . S
C320 N317 1.346 . S
C320 C319 1.369 . S
C320 H323 0.928 . S
C321 N317 1.345 . S
C321 C322 1.371 . S
C321 H324 0.931 . S
C322 C318 1.391 . S
C322 C321 1.371 . S
C322 H329 0.930 . S
H323 C320 0.928 . S
H324 C321 0.931 . S
H325 C301 0.930 . S
H326 C298 0.930 . S
H327 C307 0.930 . S
H328 C319 0.929 . S
H329 C322 0.930 . S
C330 C331 1.351 . S
C330 N333 1.368 . S
C330 H335 0.931 . S
C331 C330 1.351 . S
C331 N332 1.373 1_655 S
C331 H359 0.930 . S
N332 C331 1.373 1_455 S
N332 C334 1.340 . S
N333 C330 1.368 . S
N333 C334 1.321 1_655 S
N333 Co336 2.135 1_556 S
C334 N332 1.340 . S
C334 N333 1.321 1_455 S
C334 H358 0.930 . S
H335 C330 0.931 . S
Co336 N333 2.135 1_554 S
Co336 N339 2.121 . S
Co336 O344 2.055 1_554 S
Co336 O347 2.039 1_654 S
Co336 N350 2.140 . S
C337 O338 1.227 . S
C337 O347 1.265 1_554 S
O338 C337 1.227 . S
N339 Co336 2.121 . S
N339 C341 1.375 . S
N339 C342 1.313 . S
C340 C341 1.338 . S
C340 N343 1.377 . S
C340 H360 0.930 . S
C341 N339 1.375 . S
C341 C340 1.338 . S
C341 H345 0.931 1_655 S
C342 N339 1.313 . S
C342 N343 1.344 . S
C342 H346 0.930 . S
N343 C340 1.377 . S
N343 C342 1.344 . S
O344 Co336 2.055 1_556 S
O344 C348 1.253 . S
H345 C341 0.931 1_455 S
H346 C342 0.930 . S
O347 Co336 2.039 1_456 S
O347 C337 1.265 1_556 S
C348 O344 1.253 . S
C348 O349 1.227 . S
O349 C348 1.227 . S
N350 Co336 2.140 . S
N350 C353 1.346 . S
N350 C354 1.345 . S
C351 C352 1.387 . S
C351 C355 1.391 . S
C352 C351 1.387 . S
C352 C353 1.369 . S
C352 H361 0.929 1_655 S
C353 N350 1.346 . S
C353 C352 1.369 . S
C353 H356 0.928 1_655 S
C354 N350 1.345 . S
C354 C355 1.371 . S
C354 H357 0.931 . S
C355 C351 1.391 . S
C355 C354 1.371 . S
C355 H362 0.930 . S
H356 C353 0.928 1_455 S
H357 C354 0.931 . S
H358 C334 0.930 . S
H359 C331 0.930 . S
H360 C340 0.930 . S
H361 C352 0.929 1_455 S
H362 C355 0.930 . S
C363 C364 1.351 . S
C363 N366 1.368 . S
C363 H368 0.931 . S
C364 C363 1.351 . S
C364 N365 1.373 1_565 S
C364 H392 0.930 1_554 S
N365 C364 1.373 1_545 S
N365 C367 1.340 . S
N366 C363 1.368 . S
N366 C367 1.321 1_565 S
N366 Co369 2.135 . S
C367 N365 1.340 . S
C367 N366 1.321 1_545 S
C367 H391 0.930 . S
H368 C363 0.931 . S
Co369 N366 2.135 . S
Co369 N372 2.121 . S
Co369 O377 2.055 . S
Co369 O380 2.039 1_565 S
Co369 N383 2.140 . S
C370 O371 1.227 . S
C370 O380 1.265 . S
O371 C370 1.227 . S
N372 Co369 2.121 . S
N372 C374 1.375 . S
N372 C375 1.313 . S
C373 C374 1.338 . S
C373 N376 1.377 . S
C373 H393 0.930 . S
C374 N372 1.375 . S
C374 C373 1.338 . S
C374 H378 0.931 1_565 S
C375 N372 1.313 . S
C375 N376 1.344 . S
C375 H379 0.930 . S
N376 C373 1.377 . S
N376 C375 1.344 . S
O377 Co369 2.055 . S
O377 C381 1.253 . S
H378 C374 0.931 1_545 S
H379 C375 0.930 . S
O380 Co369 2.039 1_545 S
O380 C370 1.265 . S
C381 O377 1.253 . S
C381 O382 1.227 . S
O382 C381 1.227 . S
N383 Co369 2.140 . S
N383 C386 1.346 . S
N383 C387 1.345 . S
C384 C385 1.387 . S
C384 C388 1.391 . S
C385 C384 1.387 . S
C385 C386 1.369 . S
C385 H394 0.929 1_565 S
C386 N383 1.346 . S
C386 C385 1.369 . S
C386 H389 0.928 1_565 S
C387 N383 1.345 . S
C387 C388 1.371 . S
C387 H390 0.931 . S
C388 C384 1.391 . S
C388 C387 1.371 . S
C388 H395 0.930 . S
H389 C386 0.928 1_545 S
H390 C387 0.931 . S
H391 C367 0.930 . S
H392 C364 0.930 1_556 S
H393 C373 0.930 . S
H394 C385 0.929 1_545 S
H395 C388 0.930 . S
C282 C18 2.129 . S
C51 C315 2.129 . S
C84 C348 2.129 . S
C117 C381 2.129 . S
C150 C216 2.129 . S
C183 C249 2.129 . S
N13 C172 2.170 . S
C7 N46 2.170 . S
N79 C40 2.170 . S
C73 N112 2.170 . S
C106 N145 2.170 1_556 S
N178 C139 2.170 . S
C238 N211 2.170 . S
C271 N244 2.170 . S
C304 N277 2.170 . S
C337 N310 2.170 1_554 S
C370 N343 2.170 . S
N376 C205 2.170 . S
C21 C219 1.583 . S
C54 C252 1.583 . S
C87 C285 1.583 . S
C120 C318 1.583 . S
C351 C153 1.583 . S
C186 C384 1.583 . S
N299 N2 0.553 . S
N35 N332 0.553 1_655 S
N68 N365 0.553 1_566 S
N101 N200 0.553 . S
N134 N233 0.553 1_455 S
N266 N167 0.553 1_565 S
