# Generated by pormake.
# Topology uoy, (4)-cn, num edge types: 1
# Building blocks:
#     Node 0, Type 0, BuildingBlock: QUQFOY_clean_sbu_1, # of connection points: 4
#     Node 1, Type 0, BuildingBlock: QUQFOY_clean_sbu_1, # of connection points: 4
#     Node 2, Type 0, BuildingBlock: QUQFOY_clean_sbu_1, # of connection points: 4
#     Node 3, Type 0, BuildingBlock: QUQFOY_clean_sbu_1, # of connection points: 4
#     Node 4, Type 0, BuildingBlock: QUQFOY_clean_sbu_1, # of connection points: 4
#     Node 5, Type 0, BuildingBlock: QUQFOY_clean_sbu_1, # of connection points: 4
#     Node 6, Type 0, BuildingBlock: QUQFOY_clean_sbu_1, # of connection points: 4
#     Node 7, Type 0, BuildingBlock: QUQFOY_clean_sbu_1, # of connection points: 4
#     Node 8, Type 0, BuildingBlock: QUQFOY_clean_sbu_1, # of connection points: 4
#     Node 9, Type 0, BuildingBlock: QUQFOY_clean_sbu_1, # of connection points: 4
#     Node 10, Type 0, BuildingBlock: QUQFOY_clean_sbu_1, # of connection points: 4
#     Node 11, Type 0, BuildingBlock: QUQFOY_clean_sbu_1, # of connection points: 4
#     Node 12, Type 0, BuildingBlock: QUQFOY_clean_sbu_1, # of connection points: 4
#     Node 13, Type 0, BuildingBlock: QUQFOY_clean_sbu_1, # of connection points: 4
#     Node 14, Type 0, BuildingBlock: QUQFOY_clean_sbu_1, # of connection points: 4
#     Node 15, Type 0, BuildingBlock: QUQFOY_clean_sbu_1, # of connection points: 4
#     Edge 16, Type (0, 0), BuildingBlock: CIFDUS_clean_linker_0, # of connection points: 2
#     Edge 17, Type (0, 0), BuildingBlock: CIFDUS_clean_linker_0, # of connection points: 2
#     Edge 18, Type (0, 0), BuildingBlock: CIFDUS_clean_linker_0, # of connection points: 2
#     Edge 19, Type (0, 0), BuildingBlock: CIFDUS_clean_linker_0, # of connection points: 2
#     Edge 20, Type (0, 0), BuildingBlock: CIFDUS_clean_linker_0, # of connection points: 2
#     Edge 21, Type (0, 0), BuildingBlock: CIFDUS_clean_linker_0, # of connection points: 2
#     Edge 22, Type (0, 0), BuildingBlock: CIFDUS_clean_linker_0, # of connection points: 2
#     Edge 23, Type (0, 0), BuildingBlock: CIFDUS_clean_linker_0, # of connection points: 2
#     Edge 24, Type (0, 0), BuildingBlock: CIFDUS_clean_linker_0, # of connection points: 2
#     Edge 25, Type (0, 0), BuildingBlock: CIFDUS_clean_linker_0, # of connection points: 2
#     Edge 26, Type (0, 0), BuildingBlock: CIFDUS_clean_linker_0, # of connection points: 2
#     Edge 27, Type (0, 0), BuildingBlock: CIFDUS_clean_linker_0, # of connection points: 2
#     Edge 28, Type (0, 0), BuildingBlock: CIFDUS_clean_linker_0, # of connection points: 2
#     Edge 29, Type (0, 0), BuildingBlock: CIFDUS_clean_linker_0, # of connection points: 2
#     Edge 30, Type (0, 0), BuildingBlock: CIFDUS_clean_linker_0, # of connection points: 2
#     Edge 31, Type (0, 0), BuildingBlock: CIFDUS_clean_linker_0, # of connection points: 2
#     Edge 32, Type (0, 0), BuildingBlock: CIFDUS_clean_linker_0, # of connection points: 2
#     Edge 33, Type (0, 0), BuildingBlock: CIFDUS_clean_linker_0, # of connection points: 2
#     Edge 34, Type (0, 0), BuildingBlock: CIFDUS_clean_linker_0, # of connection points: 2
#     Edge 35, Type (0, 0), BuildingBlock: CIFDUS_clean_linker_0, # of connection points: 2
#     Edge 36, Type (0, 0), BuildingBlock: CIFDUS_clean_linker_0, # of connection points: 2
#     Edge 37, Type (0, 0), BuildingBlock: CIFDUS_clean_linker_0, # of connection points: 2
#     Edge 38, Type (0, 0), BuildingBlock: CIFDUS_clean_linker_0, # of connection points: 2
#     Edge 39, Type (0, 0), BuildingBlock: CIFDUS_clean_linker_0, # of connection points: 2
#     Edge 40, Type (0, 0), BuildingBlock: CIFDUS_clean_linker_0, # of connection points: 2
#     Edge 41, Type (0, 0), BuildingBlock: CIFDUS_clean_linker_0, # of connection points: 2
#     Edge 42, Type (0, 0), BuildingBlock: CIFDUS_clean_linker_0, # of connection points: 2
#     Edge 43, Type (0, 0), BuildingBlock: CIFDUS_clean_linker_0, # of connection points: 2
#     Edge 44, Type (0, 0), BuildingBlock: CIFDUS_clean_linker_0, # of connection points: 2
#     Edge 45, Type (0, 0), BuildingBlock: CIFDUS_clean_linker_0, # of connection points: 2
#     Edge 46, Type (0, 0), BuildingBlock: CIFDUS_clean_linker_0, # of connection points: 2
#     Edge 47, Type (0, 0), BuildingBlock: CIFDUS_clean_linker_0, # of connection points: 2
# Relax obj value: 0.057
# Max RMSD: 0.094
# Mean RMSD: 0.094
data_MOF--net-uoy--node1-QUQFOY_clean_sbu_1--edge1-CIFDUS_clean_linker_0
_symmetry_space_group_name_H-M    P1
_symmetry_Int_Tables_number       1
_symmetry_cell_setting            triclinic
loop_
_symmetry_equiv_pos_as_xyz
'x, y, z'
_cell_length_a     24.579276
_cell_length_b     24.406459
_cell_length_c     99.622788
_cell_angle_alpha  89.940678
_cell_angle_beta   90.060766
_cell_angle_gamma 89.715017
loop_
_atom_site_label
_atom_site_type_symbol
_atom_site_fract_x
_atom_site_fract_y
_atom_site_fract_z
_atom_type_partial_charge
O0 O 0.26866 0.16844 0.22316 0.0
Cd1 Cd 0.26067 0.10904 0.20846 0.0
Cd2 Cd 0.31409 0.18702 0.19512 0.0
O3 O 0.30892 0.23484 0.21198 0.0
O4 O 0.2081 0.05886 0.21728 0.0
O5 O 0.18989 0.10131 0.19818 0.0
C6 C 0.17407 0.06971 0.2078 0.0
C7 C 0.28715 0.21775 0.17415 0.0
C8 C 0.28879 0.21631 0.22279 0.0
C9 C 0.37295 0.08023 0.19932 0.0
O10 O 0.37533 0.12959 0.19537 0.0
O11 O 0.32907 0.06159 0.20428 0.0
O12 O 0.33215 0.23359 0.17952 0.0
O13 O 0.25566 0.18593 0.18097 0.0
O14 O 0.88903 0.75026 0.47205 0.0
Cd15 Cd 0.93127 0.74509 0.45411 0.0
Cd16 Cd 0.84633 0.80292 0.44556 0.0
O17 O 0.8131 0.7869 0.46419 0.0
O18 O 0.98591 0.68517 0.45643 0.0
O19 O 0.91571 0.67941 0.44255 0.0
C20 C 0.95812 0.65693 0.44794 0.0
C21 C 0.80152 0.79103 0.42517 0.0
C22 C 0.8405 0.76703 0.4739 0.0
C23 C 0.95393 0.85977 0.44553 0.0
O24 O 0.90259 0.86479 0.44494 0.0
O25 O 0.97517 0.81325 0.44804 0.0
O26 O 0.7886 0.83019 0.43326 0.0
O27 O 0.83741 0.75563 0.42911 0.0
O28 O 0.29423 0.39957 0.72486 0.0
Cd29 Cd 0.29887 0.44543 0.7074 0.0
Cd30 Cd 0.24768 0.35924 0.6976 0.0
O31 O 0.25904 0.32436 0.7162 0.0
O32 O 0.35221 0.50487 0.71073 0.0
O33 O 0.36594 0.43813 0.69601 0.0
C34 C 0.38286 0.48211 0.70183 0.0
C35 C 0.27197 0.31916 0.67745 0.0
C36 C 0.2774 0.35063 0.72623 0.0
C37 C 0.18604 0.46471 0.69733 0.0
O38 O 0.18379 0.41314 0.69596 0.0
O39 O 0.22997 0.48708 0.70112 0.0
O40 O 0.23007 0.30261 0.68407 0.0
O41 O 0.30261 0.35623 0.68272 0.0
O42 O 0.63952 0.77587 0.97386 0.0
Cd43 Cd 0.5946 0.77878 0.95625 0.0
Cd44 Cd 0.68659 0.7417 0.94562 0.0
O45 O 0.71893 0.7637 0.96394 0.0
O46 O 0.53677 0.83751 0.95769 0.0
O47 O 0.61028 0.84521 0.94504 0.0
C48 C 0.56656 0.86707 0.94986 0.0
C49 C 0.7235 0.76804 0.92507 0.0
C50 C 0.69113 0.77188 0.97452 0.0
C51 C 0.5946 0.66238 0.94645 0.0
O52 O 0.64573 0.66855 0.94543 0.0
O53 O 0.56429 0.70344 0.94927 0.0
O54 O 0.74884 0.73412 0.93282 0.0
O55 O 0.67819 0.78881 0.92921 0.0
O56 O 0.2521 0.37411 0.04804 0.0
Cd57 Cd 0.2515 0.4273 0.06431 0.0
Cd58 Cd 0.29427 0.33706 0.0757 0.0
O59 O 0.27416 0.29715 0.05835 0.0
O60 O 0.19387 0.48267 0.05962 0.0
O61 O 0.18765 0.42754 0.07719 0.0
C62 C 0.16587 0.46485 0.06966 0.0
C63 C 0.28825 0.29387 0.09654 0.0
C64 C 0.26114 0.32273 0.04771 0.0
C65 C 0.3683 0.43477 0.07164 0.0
O66 O 0.36278 0.38415 0.07416 0.0
O67 O 0.32681 0.46388 0.06859 0.0
O68 O 0.3226 0.27831 0.08758 0.0
O69 O 0.25418 0.33223 0.0934 0.0
O70 O 0.6184 0.74178 0.3022 0.0
Cd71 Cd 0.57871 0.74499 0.32048 0.0
Cd72 Cd 0.67461 0.78228 0.3282 0.0
O73 O 0.70159 0.75919 0.30937 0.0
O74 O 0.5149 0.69482 0.31918 0.0
O75 O 0.5865 0.67795 0.33208 0.0
C76 C 0.54024 0.66237 0.32731 0.0
C77 C 0.71501 0.75833 0.3485 0.0
C78 C 0.66908 0.74675 0.2999 0.0
C79 C 0.58113 0.86196 0.32876 0.0
O80 O 0.63233 0.85505 0.32895 0.0
O81 O 0.55003 0.82129 0.32668 0.0
O82 O 0.7362 0.79499 0.3408 0.0
O83 O 0.67279 0.73225 0.34426 0.0
O84 O 0.25886 0.15017 0.55272 0.0
Cd85 Cd 0.26322 0.10638 0.57045 0.0
Cd86 Cd 0.22323 0.19833 0.5803 0.0
O87 O 0.24056 0.23076 0.56174 0.0
O88 O 0.32293 0.05043 0.56872 0.0
O89 O 0.32874 0.12364 0.58176 0.0
C90 C 0.35164 0.08073 0.57662 0.0
C91 C 0.24054 0.24439 0.60031 0.0
C92 C 0.25106 0.20153 0.5515 0.0
C93 C 0.14864 0.10087 0.57995 0.0
O94 O 0.15375 0.15235 0.58111 0.0
O95 O 0.1899 0.07152 0.57691 0.0
O96 O 0.20372 0.26106 0.59203 0.0
O97 O 0.2705 0.20325 0.59681 0.0
O98 O 0.879 0.76646 0.79989 0.0
Cd99 Cd 0.91955 0.76988 0.81806 0.0
Cd100 Cd 0.82502 0.73208 0.82731 0.0
O101 O 0.79727 0.75198 0.80834 0.0
O102 O 0.97768 0.82786 0.81704 0.0
O103 O 0.90207 0.8369 0.82888 0.0
C104 C 0.9466 0.85807 0.82446 0.0
C105 C 0.78523 0.76152 0.84728 0.0
C106 C 0.82793 0.76091 0.79829 0.0
C107 C 0.91885 0.65375 0.82813 0.0
O108 O 0.86748 0.65967 0.82859 0.0
O109 O 0.94904 0.69476 0.82544 0.0
O110 O 0.76098 0.72656 0.83966 0.0
O111 O 0.83078 0.78166 0.84324 0.0
O112 O 0.7787 0.65868 0.71999 0.0
Cd113 Cd 0.77526 0.61042 0.70296 0.0
Cd114 Cd 0.82246 0.69745 0.69218 0.0
O115 O 0.80549 0.73516 0.71024 0.0
O116 O 0.72723 0.54722 0.70748 0.0
O117 O 0.70529 0.61079 0.69254 0.0
C118 C 0.69269 0.5668 0.69898 0.0
C119 C 0.78684 0.72042 0.67138 0.0
C120 C 0.7906 0.70927 0.72069 0.0
C121 C 0.89069 0.59836 0.69322 0.0
O122 O 0.89154 0.6501 0.69188 0.0
O123 O 0.84681 0.57424 0.69642 0.0
O124 O 0.82343 0.75065 0.67697 0.0
O125 O 0.76844 0.67886 0.67795 0.0
O126 O 0.37877 0.26659 0.97128 0.0
Cd127 Cd 0.42605 0.26347 0.95411 0.0
Cd128 Cd 0.3358 0.3015 0.94259 0.0
O129 O 0.30116 0.28308 0.96083 0.0
O130 O 0.4835 0.20493 0.95639 0.0
O131 O 0.4127 0.19682 0.9428 0.0
C132 C 0.45534 0.17511 0.94826 0.0
C133 C 0.2971 0.27305 0.92244 0.0
C134 C 0.32739 0.27319 0.97157 0.0
C135 C 0.42918 0.3796 0.94399 0.0
O136 O 0.37845 0.37364 0.94203 0.0
O137 O 0.45824 0.33866 0.94762 0.0
O138 O 0.2737 0.30957 0.92981 0.0
O139 O 0.34199 0.25149 0.92665 0.0
O140 O 0.78328 0.87358 0.22533 0.0
Cd141 Cd 0.78438 0.9224 0.20829 0.0
Cd142 Cd 0.72962 0.83635 0.19919 0.0
O143 O 0.74423 0.79913 0.21742 0.0
O144 O 0.83996 0.97813 0.21317 0.0
O145 O 0.84952 0.92209 0.1959 0.0
C146 C 0.86922 0.9604 0.20336 0.0
C147 C 0.75291 0.80011 0.17845 0.0
C148 C 0.76601 0.82505 0.22708 0.0
C149 C 0.66848 0.94269 0.20055 0.0
O150 O 0.66595 0.89121 0.19892 0.0
O151 O 0.71352 0.96507 0.20358 0.0
O152 O 0.7113 0.78238 0.18501 0.0
O153 O 0.78361 0.83634 0.18405 0.0
O154 O 0.1551 0.26237 0.47263 0.0
Cd155 Cd 0.11196 0.2688 0.45483 0.0
Cd156 Cd 0.19816 0.2154 0.44518 0.0
O157 O 0.23086 0.22957 0.46382 0.0
O158 O 0.05529 0.32743 0.45713 0.0
O159 O 0.12636 0.33567 0.44366 0.0
C160 C 0.08306 0.35683 0.44886 0.0
C161 C 0.23802 0.24553 0.42549 0.0
C162 C 0.20426 0.24658 0.47393 0.0
C163 C 0.09475 0.15358 0.44482 0.0
O164 O 0.14615 0.1501 0.44376 0.0
O165 O 0.07244 0.19889 0.44807 0.0
O166 O 0.25885 0.20521 0.43217 0.0
O167 O 0.19547 0.26982 0.43024 0.0
O168 O 0.7485 0.91049 0.5487 0.0
Cd169 Cd 0.74742 0.94801 0.56726 0.0
Cd170 Cd 0.78604 0.84963 0.57463 0.0
O171 O 0.75741 0.82532 0.55601 0.0
O172 O 0.69016 1.00841 0.56727 0.0
O173 O 0.68036 0.92922 0.5777 0.0
C174 C 0.65968 0.97551 0.57407 0.0
C175 C 0.76087 0.82154 0.59605 0.0
C176 C 0.74964 0.85916 0.54643 0.0
C177 C 0.86543 0.94008 0.57535 0.0
O178 O 0.85917 0.8887 0.57413 0.0
O179 O 0.82414 0.97215 0.57477 0.0
O180 O 0.78922 0.7894 0.58844 0.0
O181 O 0.74378 0.86723 0.59107 0.0
O182 O 0.1184 0.25547 0.79933 0.0
Cd183 Cd 0.0814 0.25354 0.81793 0.0
Cd184 Cd 0.17754 0.29093 0.82585 0.0
O185 O 0.20189 0.2677 0.8069 0.0
O186 O 0.02279 0.19609 0.8176 0.0
O187 O 0.10025 0.18665 0.82872 0.0
C188 C 0.05495 0.16569 0.82471 0.0
C189 C 0.22106 0.26386 0.84553 0.0
C190 C 0.16932 0.25898 0.79721 0.0
C191 C 0.08476 0.37024 0.82728 0.0
O192 O 0.13611 0.36404 0.82697 0.0
O193 O 0.05375 0.32914 0.82537 0.0
O194 O 0.24392 0.29765 0.83735 0.0
O195 O 0.1746 0.24353 0.84223 0.0
O196 O 0.76414 0.66447 0.05031 0.0
Cd197 Cd 0.76799 0.6059 0.06539 0.0
Cd198 Cd 0.72564 0.69443 0.07881 0.0
O199 O 0.74123 0.73869 0.06167 0.0
O200 O 0.8185 0.55023 0.05734 0.0
O201 O 0.83891 0.59577 0.07578 0.0
C202 C 0.85362 0.56173 0.06653 0.0
C203 C 0.73486 0.7308 0.10039 0.0
C204 C 0.7538 0.71558 0.05067 0.0
C205 C 0.65222 0.59639 0.0739 0.0
O206 O 0.65808 0.64606 0.07731 0.0
O207 O 0.69315 0.56865 0.06983 0.0
O208 O 0.69848 0.74846 0.09214 0.0
O209 O 0.76939 0.69486 0.09609 0.0
O210 O 0.38732 0.26912 0.30081 0.0
Cd211 Cd 0.42865 0.26491 0.31888 0.0
Cd212 Cd 0.33305 0.23213 0.32778 0.0
O213 O 0.30539 0.25904 0.30943 0.0
O214 O 0.49407 0.31335 0.31761 0.0
O215 O 0.42283 0.33192 0.33044 0.0
C216 C 0.46953 0.34636 0.32574 0.0
C217 C 0.29794 0.26207 0.34808 0.0
C218 C 0.33588 0.26824 0.29939 0.0
C219 C 0.42046 0.14773 0.32775 0.0
O220 O 0.36944 0.15615 0.32815 0.0
O221 O 0.45272 0.18738 0.32547 0.0
O222 O 0.27003 0.23046 0.34034 0.0
O223 O 0.34491 0.27857 0.344 0.0
H224 H 0.21102 0.29428 0.11644 0.0
H225 H 0.37651 0.24599 0.10768 0.0
H226 H 0.39027 0.21899 0.13091 0.0
H227 H 0.35743 0.21274 0.15389 0.0
H228 H 0.19064 0.25227 0.16303 0.0
H229 H 0.17495 0.27906 0.1395 0.0
C230 C 0.24981 0.27735 0.11964 0.0
C231 C 0.29275 0.27245 0.11037 0.0
C232 C 0.25732 0.26078 0.13307 0.0
C233 C 0.3427 0.25001 0.11458 0.0
C234 C 0.3508 0.2348 0.12789 0.0
C235 C 0.31763 0.22723 0.1507 0.0
C236 C 0.27547 0.23161 0.16008 0.0
C237 C 0.30875 0.24071 0.13723 0.0
C238 C 0.22369 0.24906 0.15589 0.0
C239 C 0.21484 0.26434 0.14248 0.0
H240 H 0.79207 0.70449 0.40774 0.0
H241 H 0.76498 0.87879 0.41128 0.0
H242 H 0.73906 0.88388 0.38775 0.0
H243 H 0.72584 0.8399 0.366 0.0
H244 H 0.74219 0.66487 0.36237 0.0
H245 H 0.77089 0.65866 0.38602 0.0
C246 C 0.78001 0.74337 0.40334 0.0
C247 C 0.78057 0.7912 0.41124 0.0
C248 C 0.76383 0.74592 0.38977 0.0
C249 C 0.76452 0.8413 0.40547 0.0
C250 C 0.75003 0.84439 0.39197 0.0
C251 C 0.73609 0.80046 0.3704 0.0
C252 C 0.73326 0.75305 0.36251 0.0
C253 C 0.75005 0.79716 0.38401 0.0
C254 C 0.74489 0.70191 0.36831 0.0
C255 C 0.76108 0.69844 0.3818 0.0
H256 H 0.32134 0.23178 0.61908 0.0
H257 H 0.16521 0.30908 0.61227 0.0
H258 H 0.16174 0.3382 0.63556 0.0
H259 H 0.19991 0.3375 0.65816 0.0
H260 H 0.35837 0.26751 0.66533 0.0
H261 H 0.36431 0.23943 0.64162 0.0
C262 C 0.28697 0.25557 0.62269 0.0
C263 C 0.24344 0.26787 0.61396 0.0
C264 C 0.28539 0.27288 0.63616 0.0
C265 C 0.19932 0.29909 0.61873 0.0
C266 C 0.19706 0.31554 0.63209 0.0
C267 C 0.23573 0.31611 0.65447 0.0
C268 C 0.2782 0.30346 0.66334 0.0
C269 C 0.23929 0.30182 0.64091 0.0
C270 C 0.32507 0.27699 0.65857 0.0
C271 C 0.32838 0.2611 0.64506 0.0
H272 H 0.84436 0.78018 0.8696 0.0
H273 H 0.67937 0.76754 0.85527 0.0
H274 H 0.64526 0.77652 0.87827 0.0
H275 H 0.66305 0.77867 0.90259 0.0
H276 H 0.82852 0.77827 0.91694 0.0
H277 H 0.86207 0.78423 0.89385 0.0
C278 C 0.80091 0.78046 0.87152 0.0
C279 C 0.76429 0.77365 0.86081 0.0
C280 C 0.78189 0.7829 0.88479 0.0
C281 C 0.70818 0.77285 0.8634 0.0
C282 C 0.68875 0.77786 0.87652 0.0
C283 C 0.70639 0.78098 0.90062 0.0
C284 C 0.74339 0.77852 0.91137 0.0
C285 C 0.72529 0.7816 0.88732 0.0
C286 C 0.79945 0.78025 0.90877 0.0
C287 C 0.81856 0.78352 0.89559 0.0
H288 H 0.75698 0.72227 0.6087 0.0
H289 H 0.75154 0.89649 0.61588 0.0
H290 H 0.7561 0.88089 0.64003 0.0
H291 H 0.77071 0.81802 0.65903 0.0
H292 H 0.76843 0.64372 0.65225 0.0
H293 H 0.75721 0.65881 0.6281 0.0
C294 C 0.7559 0.75664 0.61559 0.0
C295 C 0.75453 0.81039 0.61053 0.0
C296 C 0.75749 0.74738 0.62953 0.0
C297 C 0.75251 0.85467 0.61954 0.0
C298 C 0.75544 0.84585 0.63336 0.0
C299 C 0.76683 0.78348 0.65225 0.0
C300 C 0.77092 0.72996 0.6573 0.0
C301 C 0.7593 0.79247 0.63845 0.0
C302 C 0.76525 0.68535 0.64853 0.0
C303 C 0.75918 0.69394 0.63472 0.0
H304 H 0.35358 0.25718 0.89954 0.0
H305 H 0.19091 0.26137 0.91561 0.0
H306 H 0.1531 0.25031 0.89304 0.0
H307 H 0.16625 0.24926 0.86863 0.0
H308 H 0.32836 0.25833 0.85235 0.0
H309 H 0.36681 0.25384 0.87504 0.0
C310 C 0.30992 0.25459 0.89807 0.0
C311 C 0.27491 0.25965 0.90913 0.0
C312 C 0.28856 0.25103 0.88501 0.0
C313 C 0.21843 0.25747 0.90718 0.0
C314 C 0.19689 0.25126 0.8943 0.0
C315 C 0.21002 0.24911 0.87007 0.0
C316 C 0.24457 0.25369 0.85891 0.0
C317 C 0.23153 0.24937 0.88312 0.0
C318 C 0.30112 0.2547 0.86085 0.0
C319 C 0.32303 0.2523 0.87379 0.0
H320 H 0.81774 0.7366 0.11889 0.0
H321 H 0.64459 0.75945 0.11397 0.0
H322 H 0.63501 0.77921 0.13777 0.0
H323 H 0.67487 0.78959 0.16 0.0
H324 H 0.84847 0.77787 0.16521 0.0
H325 H 0.85913 0.75394 0.14136 0.0
C326 C 0.77812 0.74623 0.12307 0.0
C327 C 0.73195 0.74652 0.11469 0.0
C328 C 0.77296 0.7591 0.13682 0.0
C329 C 0.68082 0.75942 0.12018 0.0
C330 C 0.67518 0.7704 0.13381 0.0
C331 C 0.715 0.78132 0.15592 0.0
C332 C 0.76072 0.78429 0.16431 0.0
C333 C 0.72081 0.7701 0.14222 0.0
C334 C 0.81269 0.77517 0.15889 0.0
C335 C 0.81871 0.76166 0.14528 0.0
H336 H 0.17983 0.27553 0.40375 0.0
H337 H 0.34366 0.24517 0.41743 0.0
H338 H 0.37785 0.25698 0.39453 0.0
H339 H 0.35959 0.26522 0.37037 0.0
H340 H 0.19431 0.28172 0.35641 0.0
H341 H 0.1619 0.28681 0.37962 0.0
C342 C 0.22311 0.27265 0.40171 0.0
C343 C 0.25937 0.25985 0.41217 0.0
C344 C 0.24194 0.27663 0.38846 0.0
C345 C 0.31519 0.25504 0.40946 0.0
C346 C 0.33464 0.26167 0.3964 0.0
C347 C 0.31664 0.27118 0.37246 0.0
C348 C 0.27927 0.27355 0.3618 0.0
C349 C 0.29821 0.27097 0.38577 0.0
C350 C 0.22362 0.27997 0.36453 0.0
C351 C 0.20517 0.28267 0.37777 0.0
H352 H 0.22474 0.211 0.2448 0.0
H353 H 0.36977 0.28728 0.22941 0.0
H354 H 0.39447 0.31688 0.25204 0.0
H355 H 0.38202 0.30759 0.27648 0.0
H356 H 0.23595 0.23222 0.29169 0.0
H357 H 0.20414 0.21656 0.26885 0.0
C358 C 0.26106 0.23527 0.24638 0.0
C359 C 0.29585 0.24619 0.23553 0.0
C360 C 0.2752 0.2517 0.2594 0.0
C361 C 0.34238 0.27831 0.23762 0.0
C362 C 0.35678 0.29481 0.25058 0.0
C363 C 0.34274 0.28874 0.27479 0.0
C364 C 0.31198 0.27007 0.28576 0.0
C365 C 0.32466 0.27966 0.2616 0.0
C366 C 0.26069 0.24662 0.28343 0.0
C367 C 0.24253 0.23735 0.27036 0.0
H368 H 0.76252 0.83518 0.48379 0.0
H369 H 0.87026 0.70293 0.49513 0.0
H370 H 0.84457 0.71442 0.51865 0.0
H371 H 0.80045 0.76949 0.53622 0.0
H372 H 0.69981 0.90737 0.52501 0.0
H373 H 0.71296 0.88584 0.50127 0.0
C374 C 0.77949 0.80813 0.49138 0.0
C375 C 0.81839 0.7684 0.48773 0.0
C376 C 0.76605 0.81631 0.50495 0.0
C377 C 0.84047 0.73406 0.4977 0.0
C378 C 0.82586 0.74066 0.51115 0.0
C379 C 0.78033 0.79397 0.52858 0.0
C380 C 0.74921 0.83994 0.53235 0.0
C381 C 0.78997 0.78273 0.51494 0.0
C382 C 0.72407 0.87184 0.52234 0.0
C383 C 0.73175 0.85967 0.50877 0.0
H384 H 0.20451 0.27566 0.73492 0.0
H385 H 0.33914 0.37469 0.74816 0.0
H386 H 0.32198 0.34793 0.77142 0.0
H387 H 0.26187 0.30598 0.78811 0.0
H388 H 0.12169 0.2147 0.77499 0.0
H389 H 0.14812 0.22824 0.75157 0.0
C390 C 0.23084 0.29036 0.74287 0.0
C391 C 0.27298 0.32714 0.73985 0.0
C392 C 0.21931 0.27664 0.75626 0.0
C393 C 0.30632 0.34649 0.75026 0.0
C394 C 0.29643 0.33133 0.76356 0.0
C395 C 0.23773 0.28807 0.78013 0.0
C396 C 0.1898 0.25954 0.78327 0.0
C397 C 0.25199 0.29785 0.7667 0.0
C398 C 0.15861 0.23709 0.77282 0.0
C399 C 0.17364 0.24491 0.75943 0.0
H400 H 0.80834 0.6979 0.02742 0.0
H401 H 0.68236 0.7981 0.04503 0.0
H402 H 0.65431 0.8293 0.02274 0.0
H403 H 0.65717 0.81697 0.99813 0.0
H404 H 0.7857 0.71941 0.98068 0.0
H405 H 0.8215 0.69889 1.00297 0.0
C406 C 0.77568 0.72767 0.02638 0.0
C407 C 0.74705 0.74515 0.03782 0.0
C408 C 0.7597 0.74532 0.01354 0.0
C409 C 0.70514 0.78412 0.03637 0.0
C410 C 0.68871 0.80156 0.02361 0.0
C411 C 0.6936 0.79209 0.99922 0.0
C412 C 0.71816 0.76901 0.98779 0.0
C413 C 0.71432 0.78071 0.0121 0.0
C414 C 0.76586 0.73755 0.98931 0.0
C415 C 0.78626 0.72552 1.00207 0.0
H416 H 0.21153 0.35023 0.02425 0.0
H417 H 0.32482 0.23468 0.04164 0.0
H418 H 0.3523 0.20466 0.01929 0.0
H419 H 0.3538 0.22132 0.99488 0.0
H420 H 0.23782 0.33409 0.97748 0.0
H421 H 0.2014 0.35463 0.9997 0.0
C422 C 0.24125 0.31754 0.02313 0.0
C423 C 0.26666 0.29534 0.03456 0.0
C424 C 0.25697 0.30049 1.01024 0.0
C425 C 0.30463 0.25252 0.033 0.0
C426 C 0.32078 0.23564 0.02021 0.0
C427 C 0.31988 0.24958 0.99596 0.0
C428 C 0.29914 0.27682 0.98461 0.0
C429 C 0.29878 0.26091 1.00877 0.0
C430 C 0.25461 0.31269 0.98608 0.0
C431 C 0.23392 0.32471 0.99879 0.0
H432 H 0.76092 0.79168 0.28947 0.0
H433 H 0.62016 0.69628 0.27872 0.0
H434 H 0.64326 0.70475 0.25498 0.0
H435 H 0.69606 0.74982 0.23724 0.0
H436 H 0.83225 0.85159 0.24801 0.0
H437 H 0.81897 0.82937 0.27169 0.0
C438 C 0.73599 0.77172 0.28195 0.0
C439 C 0.68866 0.74377 0.28586 0.0
C440 C 0.74848 0.77832 0.26827 0.0
C441 C 0.65657 0.71845 0.27597 0.0
C442 C 0.66969 0.72335 0.26239 0.0
C443 C 0.72367 0.76599 0.24474 0.0
C444 C 0.7649 0.8025 0.24088 0.0
C445 C 0.71449 0.75474 0.2584 0.0
C446 C 0.8 0.82361 0.25074 0.0
C447 C 0.7923 0.8111 0.26429 0.0
H448 H 0.1753 0.30164 0.49658 0.0
H449 H 0.2869 0.17901 0.48166 0.0
H450 H 0.31571 0.15777 0.50452 0.0
H451 H 0.30082 0.16611 0.52881 0.0
H452 H 0.19172 0.2907 0.54381 0.0
H453 H 0.17097 0.31965 0.52088 0.0
C454 C 0.20655 0.27092 0.49834 0.0
C455 C 0.22827 0.24137 0.48747 0.0
C456 C 0.22314 0.25899 0.51152 0.0
C457 C 0.26937 0.20226 0.48986 0.0
C458 C 0.2857 0.18983 0.50294 0.0
C459 C 0.27326 0.20022 0.52705 0.0
C460 C 0.24724 0.22569 0.53794 0.0
C461 C 0.2616 0.21672 0.51385 0.0
C462 C 0.21223 0.27038 0.53557 0.0
C463 C 0.20004 0.28672 0.52246 0.0
H464 H 0.73212 0.68524 0.74302 0.0
H465 H 0.8585 0.79142 0.72829 0.0
H466 H 0.87826 0.82136 0.75117 0.0
H467 H 0.86738 0.80804 0.77555 0.0
H468 H 0.7384 0.70475 0.79019 0.0
H469 H 0.71141 0.68365 0.76719 0.0
C470 C 0.76324 0.71574 0.74481 0.0
C471 C 0.79428 0.73553 0.73402 0.0
C472 C 0.77425 0.73293 0.75799 0.0
C473 C 0.83402 0.77556 0.73643 0.0
C474 C 0.84563 0.79241 0.74953 0.0
C475 C 0.83275 0.78173 0.77368 0.0
C476 C 0.80545 0.75737 0.78454 0.0
C477 C 0.81721 0.76997 0.76042 0.0
C478 C 0.76016 0.72398 0.782 0.0
C479 C 0.74488 0.71159 0.76885 0.0
H480 H 0.10485 0.04189 0.18734 0.0
H481 H 0.11682 0.05319 0.23046 0.0
H482 H 0.02293 0.02316 0.23276 0.0
H483 H 0.93765 0.99324 0.22269 0.0
H484 H 0.92615 0.97208 0.17985 0.0
H485 H 0.01942 1.00628 0.1772 0.0
C486 C 0.08669 0.03767 0.1972 0.0
C487 C 0.11755 0.04985 0.20872 0.0
C488 C 0.03284 0.01871 0.19849 0.0
C489 C 0.09394 0.04373 0.22146 0.0
C490 C 0.0402 0.02677 0.22279 0.0
C491 C 0.95548 0.99644 0.21276 0.0
C492 C 0.92507 0.98098 0.20147 0.0
C493 C 1.00932 1.01417 0.2114 0.0
C494 C 0.94891 0.98405 0.18868 0.0
C495 C 1.00214 1.00358 0.18718 0.0
H496 H 0.98149 0.40033 0.44665 0.0
H497 H 0.15156 0.44236 0.44551 0.0
H498 H 0.12804 0.53976 0.44439 0.0
H499 H 0.05899 0.61311 0.44572 0.0
H500 H 0.88886 0.57142 0.44489 0.0
H501 H 0.91223 0.47373 0.4446 0.0
C502 C 1.01323 0.43092 0.44598 0.0
C503 C 0.06811 0.41452 0.44632 0.0
C504 C 0.99937 0.48676 0.44502 0.0
C505 C 0.10903 0.45421 0.44526 0.0
C506 C 0.09562 0.50985 0.44468 0.0
C507 C 0.02717 0.58251 0.44525 0.0
C508 C 0.97237 0.59909 0.44545 0.0
C509 C 0.04095 0.52662 0.44484 0.0
C510 C 0.93135 0.5594 0.4447 0.0
C511 C 0.94469 0.50362 0.44463 0.0
H512 H 0.47802 0.42718 0.69951 0.0
H513 H 0.40726 0.58893 0.69801 0.0
H514 H 0.49756 0.62921 0.69521 0.0
H515 H 0.59697 0.61882 0.69514 0.0
H516 H 0.66837 0.4583 0.6998 0.0
H517 H 0.57786 0.41676 0.69933 0.0
C518 C 0.4826 0.47112 0.69835 0.0
C519 C 0.43654 0.50522 0.69884 0.0
C520 C 0.53476 0.49404 0.69741 0.0
C521 C 0.44251 0.56214 0.69763 0.0
C522 C 0.494 0.58509 0.69605 0.0
C523 C 0.59257 0.5747 0.69583 0.0
C524 C 0.63889 0.54147 0.6974 0.0
C525 C 0.54047 0.55154 0.6962 0.0
C526 C 0.63299 0.48449 0.69857 0.0
C527 C 0.58136 0.46082 0.69832 0.0
H528 H 0.55514 0.12557 0.94761 0.0
H529 H 0.38341 0.09218 0.94509 0.0
H530 H 0.40194 0.99363 0.94513 0.0
H531 H 0.46704 0.91647 0.9474 0.0
H532 H 0.63907 0.94986 0.94762 0.0
H533 H 0.62062 0.04835 0.94685 0.0
C534 C 0.52192 0.09662 0.9469 0.0
C535 C 0.468 0.1161 0.94645 0.0
C536 C 0.53296 0.03989 0.94657 0.0
C537 C 0.42531 0.07822 0.94539 0.0
C538 C 0.43585 0.02181 0.94549 0.0
C539 C 0.50038 0.94539 0.94712 0.0
C540 C 0.55431 0.92596 0.94768 0.0
C541 C 0.48948 1.0021 0.9463 0.0
C542 C 0.59719 0.9638 0.94715 0.0
C543 C 0.58667 0.02018 0.94678 0.0
H544 H 0.09083 0.48512 0.05053 0.0
H545 H 0.11288 0.48499 0.09341 0.0
H546 H 0.01838 0.51606 0.09646 0.0
H547 H 0.92885 0.54392 0.08668 0.0
H548 H 0.9065 0.53353 0.04379 0.0
H549 H 1.00108 0.5057 0.041 0.0
C550 C 0.07498 0.49218 0.06054 0.0
C551 C 0.10896 0.48371 0.07172 0.0
C552 C 0.02024 0.50786 0.0622 0.0
C553 C 0.08755 0.49164 0.08465 0.0
C554 C 0.03352 0.50935 0.08638 0.0
C555 C 0.94474 0.53524 0.07675 0.0
C556 C 0.91049 0.54097 0.06546 0.0
C557 C 0.99934 0.51765 0.07521 0.0
C558 C 0.93165 0.52913 0.05267 0.0
C559 C 0.98594 0.51346 0.05104 0.0
H560 H 0.59826 0.56842 0.32961 0.0
H561 H 0.43456 0.63241 0.33029 0.0
H562 H 0.39839 0.53928 0.33171 0.0
H563 H 0.41312 0.43971 0.33048 0.0
H564 H 0.57626 0.37589 0.32681 0.0
H565 H 0.61309 0.46854 0.32893 0.0
C566 C 0.55475 0.56184 0.33035 0.0
C567 C 0.51902 0.60697 0.32997 0.0
C568 C 0.53426 0.50814 0.33049 0.0
C569 C 0.4627 0.59813 0.33061 0.0
C570 C 0.44207 0.54495 0.33138 0.0
C571 C 0.45677 0.44608 0.3304 0.0
C572 C 0.49202 0.40116 0.32858 0.0
C573 C 0.47741 0.49963 0.331 0.0
C574 C 0.54842 0.40995 0.32821 0.0
C575 C 0.56943 0.46287 0.3294 0.0
H576 H 0.60881 0.07509 0.57715 0.0
H577 H 0.57873 0.90122 0.57592 0.0
H578 H 0.48092 0.91776 0.57712 0.0
H579 H 0.40319 0.98183 0.57697 0.0
H580 H 0.43234 0.15527 0.58021 0.0
H581 H 0.53068 0.13889 0.57994 0.0
C582 C 0.58077 0.04093 0.57729 0.0
C583 C 0.60106 0.98705 0.57633 0.0
C584 C 0.52425 0.05066 0.57832 0.0
C585 C 0.56426 0.94311 0.57668 0.0
C586 C 0.50821 0.9525 0.57731 0.0
C587 C 0.43114 1.01591 0.57781 0.0
C588 C 0.41054 0.06966 0.57852 0.0
C589 C 0.48765 1.0061 0.57791 0.0
C590 C 0.44718 0.11345 0.57972 0.0
C591 C 0.50346 0.10414 0.57947 0.0
H592 H 0.95588 0.11633 0.82675 0.0
H593 H 0.12824 0.08275 0.82729 0.0
H594 H 0.1106 0.9843 0.82765 0.0
H595 H 0.04592 0.90731 0.82611 0.0
H596 H 0.87365 0.94088 0.82754 0.0
H597 H 0.89134 0.03927 0.82823 0.0
C598 C 0.98948 0.08739 0.82713 0.0
C599 C 0.04325 0.1068 0.82688 0.0
C600 C 0.97904 0.0307 0.82762 0.0
C601 C 0.08644 0.06889 0.82752 0.0
C602 C 0.07641 1.01251 0.82764 0.0
C603 C 1.01237 0.93623 0.82674 0.0
C604 C 0.95858 0.91686 0.82665 0.0
C605 C 0.02287 0.99288 0.82744 0.0
C606 C 0.91546 0.95473 0.82762 0.0
C607 C 0.92552 1.01107 0.82795 0.0
H608 H 0.56415 0.90651 0.20107 0.0
H609 H 0.65966 0.05379 0.19753 0.0
H610 H 0.57638 0.10867 0.19612 0.0
H611 H 0.47688 0.11504 0.19654 0.0
H612 H 0.3812 0.9685 0.20135 0.0
H613 H 0.46438 0.91294 0.20156 0.0
C614 C 0.56682 0.9506 0.1999 0.0
C615 C 0.61814 0.976 0.19937 0.0
C616 C 0.5188 0.98196 0.19935 0.0
C617 C 0.62076 0.03322 0.198 0.0
C618 C 0.57315 0.06461 0.19717 0.0
C619 C 0.47408 0.07088 0.19752 0.0
C620 C 0.42281 0.04591 0.19887 0.0
C621 C 0.52201 0.03943 0.19792 0.0
C622 C 0.42009 0.98873 0.2003 0.0
C623 C 0.46764 0.95698 0.20043 0.0
H624 H 0.92023 0.96543 0.44301 0.0
H625 H 0.06531 0.86512 0.44464 0.0
H626 H 0.12165 0.94728 0.44357 0.0
H627 H 0.12954 0.04763 0.44347 0.0
H628 H 0.98405 0.14753 0.44278 0.0
H629 H 0.92808 0.06525 0.44208 0.0
C630 C 0.96419 0.96134 0.44302 0.0
C631 C 0.98844 0.90905 0.44396 0.0
C632 C 0.99628 1.0087 0.44261 0.0
C633 C 0.0455 0.90478 0.44398 0.0
C634 C 0.07777 0.95177 0.44337 0.0
C635 C 0.0856 0.05149 0.44302 0.0
C636 C 0.06107 0.10379 0.44321 0.0
C637 C 0.05357 1.00396 0.44287 0.0
C638 C 1.00404 0.10788 0.4427 0.0
C639 C 0.97197 0.06082 0.44231 0.0
H640 H 0.08362 0.42821 0.69285 0.0
H641 H 0.17707 0.57659 0.697 0.0
H642 H 0.09397 0.63134 0.69496 0.0
H643 H 0.99433 0.63665 0.69344 0.0
H644 H 0.90108 0.4877 0.69039 0.0
H645 H 0.98481 0.4336 0.69044 0.0
C646 C 0.086 0.47255 0.69319 0.0
C647 C 0.1365 0.49822 0.69515 0.0
C648 C 0.03808 0.50367 0.69225 0.0
C649 C 0.1387 0.55574 0.69558 0.0
C650 C 0.0912 0.58709 0.69441 0.0
C651 C 0.99235 0.59239 0.69262 0.0
C652 C 0.94153 0.56624 0.69196 0.0
C653 C 0.04059 0.56143 0.69295 0.0
C654 C 0.93965 0.50883 0.69099 0.0
C655 C 0.9875 0.47785 0.69103 0.0
H656 H 0.53662 0.40973 0.94487 0.0
H657 H 0.37429 0.47631 0.94104 0.0
H658 H 0.41036 0.569 0.94126 0.0
H659 H 0.48778 0.63222 0.94346 0.0
H660 H 0.65032 0.56558 0.9465 0.0
H661 H 0.61446 0.47285 0.94563 0.0
C662 C 0.50916 0.44447 0.94399 0.0
C663 C 0.45275 0.43563 0.94301 0.0
C664 C 0.53019 0.49815 0.94403 0.0
C665 C 0.41793 0.48146 0.9418 0.0
C666 C 0.43848 0.53476 0.94197 0.0
C667 C 0.51535 0.59743 0.94387 0.0
C668 C 0.57167 0.60624 0.94511 0.0
C669 C 0.4945 0.54373 0.94323 0.0
C670 C 0.60675 0.5604 0.94553 0.0
C671 C 0.5863 0.50709 0.94506 0.0
H672 H 0.6202 0.48918 0.07092 0.0
H673 H 0.55725 0.65271 0.07704 0.0
H674 H 0.46465 0.61846 0.07653 0.0
H675 H 0.40013 0.542 0.07428 0.0
H676 H 0.46303 0.37799 0.06917 0.0
H677 H 0.55578 0.41237 0.06933 0.0
C678 C 0.58626 0.51725 0.07217 0.0
C679 C 0.59616 0.57343 0.07401 0.0
C680 C 0.53248 0.49724 0.07203 0.0
C681 C 0.55133 0.60913 0.07566 0.0
C682 C 0.49801 0.58967 0.07534 0.0
C683 C 0.43414 0.5139 0.07318 0.0
C684 C 0.42433 0.45756 0.07172 0.0
C685 C 0.48793 0.5338 0.0735 0.0
C686 C 0.46912 0.42163 0.07039 0.0
C687 C 0.52242 0.44121 0.07045 0.0
H688 H 0.5263 0.11495 0.33016 0.0
H689 H 0.36236 0.05261 0.32865 0.0
H690 H 0.39705 0.95888 0.32942 0.0
H691 H 0.47423 0.89414 0.32935 0.0
H692 H 0.63799 0.95709 0.33116 0.0
H693 H 0.60297 0.05048 0.33153 0.0
C694 C 0.49811 0.08091 0.33008 0.0
C695 C 0.44183 0.09102 0.32924 0.0
C696 C 0.51828 0.02692 0.33054 0.0
C697 C 0.40593 0.04623 0.32926 0.0
C698 C 0.42572 0.99246 0.32967 0.0
C699 C 0.50225 0.92824 0.32993 0.0
C700 C 0.55869 0.91831 0.33012 0.0
C701 C 0.48186 0.98225 0.33013 0.0
C702 C 0.59432 0.96322 0.33095 0.0
C703 C 0.57437 1.01685 0.33113 0.0
H704 H 0.8976 0.04452 0.58164 0.0
H705 H 0.96053 0.88349 0.5724 0.0
H706 H 0.05321 0.91755 0.57367 0.0
H707 H 0.11724 0.99402 0.57638 0.0
H708 H 0.05437 0.1547 0.58604 0.0
H709 H 0.96193 0.11972 0.58575 0.0
C710 C 0.93157 1.01686 0.57996 0.0
C711 C 0.9217 0.9616 0.57685 0.0
C712 C 0.98529 0.03661 0.58078 0.0
C713 C 0.96652 0.9263 0.57481 0.0
C714 C 0.01982 0.94572 0.57551 0.0
C715 C 0.08341 0.02126 0.57856 0.0
C716 C 0.09317 0.07701 0.58113 0.0
C717 C 0.0298 1.00093 0.57836 0.0
C718 C 0.04849 0.11158 0.58396 0.0
C719 C 0.9953 0.09169 0.58377 0.0
H720 H 0.02638 0.62308 0.82867 0.0
H721 H 0.86379 0.55769 0.83114 0.0
H722 H 0.90021 0.46483 0.83166 0.0
H723 H 0.97794 0.40117 0.8301 0.0
H724 H 0.14062 0.46654 0.82806 0.0
H725 H 0.10447 0.55951 0.82877 0.0
C726 C 0.99892 0.58858 0.82944 0.0
C727 C 0.94236 0.59776 0.82976 0.0
C728 C 0.02012 0.53481 0.82975 0.0
C729 C 0.90753 0.55226 0.83083 0.0
C730 C 0.92829 0.49886 0.8311 0.0
C731 C 1.00552 0.43571 0.82992 0.0
C732 C 0.06193 0.42648 0.82893 0.0
C733 C 0.98448 0.48952 0.83036 0.0
C734 C 0.09697 0.47203 0.82879 0.0
C735 C 0.07635 0.52547 0.82917 0.0
loop_
_geom_bond_atom_site_label_1
_geom_bond_atom_site_label_2
_geom_bond_distance
_geom_bond_site_symmetry_2
_ccdc_geom_bond_type
O0 Cd1 2.223 . S
O0 C8 1.315 . S
Cd1 O0 2.223 . S
Cd1 O4 2.297 . S
Cd1 O5 2.439 . S
Cd1 O11 2.240 . S
Cd2 O3 2.240 . S
Cd2 O10 2.223 . S
Cd2 O12 2.297 . S
Cd2 O13 2.439 . S
O3 Cd2 2.240 . S
O3 C8 1.279 . S
O4 Cd1 2.297 . S
O4 C6 1.247 . S
O5 Cd1 2.439 . S
O5 C6 1.208 . S
C6 O4 1.247 . S
C6 O5 1.208 . S
C7 O12 1.247 . S
C7 O13 1.208 . S
C8 O0 1.315 . S
C8 O3 1.279 . S
C9 O10 1.315 . S
C9 O11 1.279 . S
O10 Cd2 2.223 . S
O10 C9 1.315 . S
O11 Cd1 2.240 . S
O11 C9 1.279 . S
O12 Cd2 2.297 . S
O12 C7 1.247 . S
O13 Cd2 2.439 . S
O13 C7 1.208 . S
O14 Cd15 2.223 . S
O14 C22 1.315 . S
Cd15 O14 2.223 . S
Cd15 O18 2.297 . S
Cd15 O19 2.439 . S
Cd15 O25 2.240 . S
Cd16 O17 2.240 . S
Cd16 O24 2.223 . S
Cd16 O26 2.297 . S
Cd16 O27 2.439 . S
O17 Cd16 2.240 . S
O17 C22 1.279 . S
O18 Cd15 2.297 . S
O18 C20 1.247 . S
O19 Cd15 2.439 . S
O19 C20 1.208 . S
C20 O18 1.247 . S
C20 O19 1.208 . S
C21 O26 1.247 . S
C21 O27 1.208 . S
C22 O14 1.315 . S
C22 O17 1.279 . S
C23 O24 1.315 . S
C23 O25 1.279 . S
O24 Cd16 2.223 . S
O24 C23 1.315 . S
O25 Cd15 2.240 . S
O25 C23 1.279 . S
O26 Cd16 2.297 . S
O26 C21 1.247 . S
O27 Cd16 2.439 . S
O27 C21 1.208 . S
O28 Cd29 2.223 . S
O28 C36 1.315 . S
Cd29 O28 2.223 . S
Cd29 O32 2.297 . S
Cd29 O33 2.439 . S
Cd29 O39 2.240 . S
Cd30 O31 2.240 . S
Cd30 O38 2.223 . S
Cd30 O40 2.297 . S
Cd30 O41 2.439 . S
O31 Cd30 2.240 . S
O31 C36 1.279 . S
O32 Cd29 2.297 . S
O32 C34 1.247 . S
O33 Cd29 2.439 . S
O33 C34 1.208 . S
C34 O32 1.247 . S
C34 O33 1.208 . S
C35 O40 1.247 . S
C35 O41 1.208 . S
C36 O28 1.315 . S
C36 O31 1.279 . S
C37 O38 1.315 . S
C37 O39 1.279 . S
O38 Cd30 2.223 . S
O38 C37 1.315 . S
O39 Cd29 2.240 . S
O39 C37 1.279 . S
O40 Cd30 2.297 . S
O40 C35 1.247 . S
O41 Cd30 2.439 . S
O41 C35 1.208 . S
O42 Cd43 2.223 . S
O42 C50 1.315 . S
Cd43 O42 2.223 . S
Cd43 O46 2.297 . S
Cd43 O47 2.439 . S
Cd43 O53 2.240 . S
Cd44 O45 2.240 . S
Cd44 O52 2.223 . S
Cd44 O54 2.297 . S
Cd44 O55 2.439 . S
O45 Cd44 2.240 . S
O45 C50 1.279 . S
O46 Cd43 2.297 . S
O46 C48 1.247 . S
O47 Cd43 2.439 . S
O47 C48 1.208 . S
C48 O46 1.247 . S
C48 O47 1.208 . S
C49 O54 1.247 . S
C49 O55 1.208 . S
C50 O42 1.315 . S
C50 O45 1.279 . S
C51 O52 1.315 . S
C51 O53 1.279 . S
O52 Cd44 2.223 . S
O52 C51 1.315 . S
O53 Cd43 2.240 . S
O53 C51 1.279 . S
O54 Cd44 2.297 . S
O54 C49 1.247 . S
O55 Cd44 2.439 . S
O55 C49 1.208 . S
O56 Cd57 2.223 . S
O56 C64 1.315 . S
Cd57 O56 2.223 . S
Cd57 O60 2.297 . S
Cd57 O61 2.439 . S
Cd57 O67 2.240 . S
Cd58 O59 2.240 . S
Cd58 O66 2.223 . S
Cd58 O68 2.297 . S
Cd58 O69 2.439 . S
O59 Cd58 2.240 . S
O59 C64 1.279 . S
O60 Cd57 2.297 . S
O60 C62 1.247 . S
O61 Cd57 2.439 . S
O61 C62 1.208 . S
C62 O60 1.247 . S
C62 O61 1.208 . S
C63 O68 1.247 . S
C63 O69 1.208 . S
C64 O56 1.315 . S
C64 O59 1.279 . S
C65 O66 1.315 . S
C65 O67 1.279 . S
O66 Cd58 2.223 . S
O66 C65 1.315 . S
O67 Cd57 2.240 . S
O67 C65 1.279 . S
O68 Cd58 2.297 . S
O68 C63 1.247 . S
O69 Cd58 2.439 . S
O69 C63 1.208 . S
O70 Cd71 2.223 . S
O70 C78 1.315 . S
Cd71 O70 2.223 . S
Cd71 O74 2.297 . S
Cd71 O75 2.439 . S
Cd71 O81 2.240 . S
Cd72 O73 2.240 . S
Cd72 O80 2.223 . S
Cd72 O82 2.297 . S
Cd72 O83 2.439 . S
O73 Cd72 2.240 . S
O73 C78 1.279 . S
O74 Cd71 2.297 . S
O74 C76 1.247 . S
O75 Cd71 2.439 . S
O75 C76 1.208 . S
C76 O74 1.247 . S
C76 O75 1.208 . S
C77 O82 1.247 . S
C77 O83 1.208 . S
C78 O70 1.315 . S
C78 O73 1.279 . S
C79 O80 1.315 . S
C79 O81 1.279 . S
O80 Cd72 2.223 . S
O80 C79 1.315 . S
O81 Cd71 2.240 . S
O81 C79 1.279 . S
O82 Cd72 2.297 . S
O82 C77 1.247 . S
O83 Cd72 2.439 . S
O83 C77 1.208 . S
O84 Cd85 2.223 . S
O84 C92 1.315 . S
Cd85 O84 2.223 . S
Cd85 O88 2.297 . S
Cd85 O89 2.439 . S
Cd85 O95 2.240 . S
Cd86 O87 2.240 . S
Cd86 O94 2.223 . S
Cd86 O96 2.297 . S
Cd86 O97 2.439 . S
O87 Cd86 2.240 . S
O87 C92 1.279 . S
O88 Cd85 2.297 . S
O88 C90 1.247 . S
O89 Cd85 2.439 . S
O89 C90 1.208 . S
C90 O88 1.247 . S
C90 O89 1.208 . S
C91 O96 1.247 . S
C91 O97 1.208 . S
C92 O84 1.315 . S
C92 O87 1.279 . S
C93 O94 1.315 . S
C93 O95 1.279 . S
O94 Cd86 2.223 . S
O94 C93 1.315 . S
O95 Cd85 2.240 . S
O95 C93 1.279 . S
O96 Cd86 2.297 . S
O96 C91 1.247 . S
O97 Cd86 2.439 . S
O97 C91 1.208 . S
O98 Cd99 2.223 . S
O98 C106 1.315 . S
Cd99 O98 2.223 . S
Cd99 O102 2.297 . S
Cd99 O103 2.439 . S
Cd99 O109 2.240 . S
Cd100 O101 2.240 . S
Cd100 O108 2.223 . S
Cd100 O110 2.297 . S
Cd100 O111 2.439 . S
O101 Cd100 2.240 . S
O101 C106 1.279 . S
O102 Cd99 2.297 . S
O102 C104 1.247 . S
O103 Cd99 2.439 . S
O103 C104 1.208 . S
C104 O102 1.247 . S
C104 O103 1.208 . S
C105 O110 1.247 . S
C105 O111 1.208 . S
C106 O98 1.315 . S
C106 O101 1.279 . S
C107 O108 1.315 . S
C107 O109 1.279 . S
O108 Cd100 2.223 . S
O108 C107 1.315 . S
O109 Cd99 2.240 . S
O109 C107 1.279 . S
O110 Cd100 2.297 . S
O110 C105 1.247 . S
O111 Cd100 2.439 . S
O111 C105 1.208 . S
O112 Cd113 2.223 . S
O112 C120 1.315 . S
Cd113 O112 2.223 . S
Cd113 O116 2.297 . S
Cd113 O117 2.439 . S
Cd113 O123 2.240 . S
Cd114 O115 2.240 . S
Cd114 O122 2.223 . S
Cd114 O124 2.297 . S
Cd114 O125 2.439 . S
O115 Cd114 2.240 . S
O115 C120 1.279 . S
O116 Cd113 2.297 . S
O116 C118 1.247 . S
O117 Cd113 2.439 . S
O117 C118 1.208 . S
C118 O116 1.247 . S
C118 O117 1.208 . S
C119 O124 1.247 . S
C119 O125 1.208 . S
C120 O112 1.315 . S
C120 O115 1.279 . S
C121 O122 1.315 . S
C121 O123 1.279 . S
O122 Cd114 2.223 . S
O122 C121 1.315 . S
O123 Cd113 2.240 . S
O123 C121 1.279 . S
O124 Cd114 2.297 . S
O124 C119 1.247 . S
O125 Cd114 2.439 . S
O125 C119 1.208 . S
O126 Cd127 2.223 . S
O126 C134 1.315 . S
Cd127 O126 2.223 . S
Cd127 O130 2.297 . S
Cd127 O131 2.439 . S
Cd127 O137 2.240 . S
Cd128 O129 2.240 . S
Cd128 O136 2.223 . S
Cd128 O138 2.297 . S
Cd128 O139 2.439 . S
O129 Cd128 2.240 . S
O129 C134 1.279 . S
O130 Cd127 2.297 . S
O130 C132 1.247 . S
O131 Cd127 2.439 . S
O131 C132 1.208 . S
C132 O130 1.247 . S
C132 O131 1.208 . S
C133 O138 1.247 . S
C133 O139 1.208 . S
C134 O126 1.315 . S
C134 O129 1.279 . S
C135 O136 1.315 . S
C135 O137 1.279 . S
O136 Cd128 2.223 . S
O136 C135 1.315 . S
O137 Cd127 2.240 . S
O137 C135 1.279 . S
O138 Cd128 2.297 . S
O138 C133 1.247 . S
O139 Cd128 2.439 . S
O139 C133 1.208 . S
O140 Cd141 2.223 . S
O140 C148 1.315 . S
Cd141 O140 2.223 . S
Cd141 O144 2.297 . S
Cd141 O145 2.439 . S
Cd141 O151 2.240 . S
Cd142 O143 2.240 . S
Cd142 O150 2.223 . S
Cd142 O152 2.297 . S
Cd142 O153 2.439 . S
O143 Cd142 2.240 . S
O143 C148 1.279 . S
O144 Cd141 2.297 . S
O144 C146 1.247 . S
O145 Cd141 2.439 . S
O145 C146 1.208 . S
C146 O144 1.247 . S
C146 O145 1.208 . S
C147 O152 1.247 . S
C147 O153 1.208 . S
C148 O140 1.315 . S
C148 O143 1.279 . S
C149 O150 1.315 . S
C149 O151 1.279 . S
O150 Cd142 2.223 . S
O150 C149 1.315 . S
O151 Cd141 2.240 . S
O151 C149 1.279 . S
O152 Cd142 2.297 . S
O152 C147 1.247 . S
O153 Cd142 2.439 . S
O153 C147 1.208 . S
O154 Cd155 2.223 . S
O154 C162 1.315 . S
Cd155 O154 2.223 . S
Cd155 O158 2.297 . S
Cd155 O159 2.439 . S
Cd155 O165 2.240 . S
Cd156 O157 2.240 . S
Cd156 O164 2.223 . S
Cd156 O166 2.297 . S
Cd156 O167 2.439 . S
O157 Cd156 2.240 . S
O157 C162 1.279 . S
O158 Cd155 2.297 . S
O158 C160 1.247 . S
O159 Cd155 2.439 . S
O159 C160 1.208 . S
C160 O158 1.247 . S
C160 O159 1.208 . S
C161 O166 1.247 . S
C161 O167 1.208 . S
C162 O154 1.315 . S
C162 O157 1.279 . S
C163 O164 1.315 . S
C163 O165 1.279 . S
O164 Cd156 2.223 . S
O164 C163 1.315 . S
O165 Cd155 2.240 . S
O165 C163 1.279 . S
O166 Cd156 2.297 . S
O166 C161 1.247 . S
O167 Cd156 2.439 . S
O167 C161 1.208 . S
O168 Cd169 2.223 . S
O168 C176 1.315 . S
Cd169 O168 2.223 . S
Cd169 O172 2.297 . S
Cd169 O173 2.439 . S
Cd169 O179 2.240 . S
Cd170 O171 2.240 . S
Cd170 O178 2.223 . S
Cd170 O180 2.297 . S
Cd170 O181 2.439 . S
O171 Cd170 2.240 . S
O171 C176 1.279 . S
O172 Cd169 2.297 . S
O172 C174 1.247 . S
O173 Cd169 2.439 . S
O173 C174 1.208 . S
C174 O172 1.247 . S
C174 O173 1.208 . S
C175 O180 1.247 . S
C175 O181 1.208 . S
C176 O168 1.315 . S
C176 O171 1.279 . S
C177 O178 1.315 . S
C177 O179 1.279 . S
O178 Cd170 2.223 . S
O178 C177 1.315 . S
O179 Cd169 2.240 . S
O179 C177 1.279 . S
O180 Cd170 2.297 . S
O180 C175 1.247 . S
O181 Cd170 2.439 . S
O181 C175 1.208 . S
O182 Cd183 2.223 . S
O182 C190 1.315 . S
Cd183 O182 2.223 . S
Cd183 O186 2.297 . S
Cd183 O187 2.439 . S
Cd183 O193 2.240 . S
Cd184 O185 2.240 . S
Cd184 O192 2.223 . S
Cd184 O194 2.297 . S
Cd184 O195 2.439 . S
O185 Cd184 2.240 . S
O185 C190 1.279 . S
O186 Cd183 2.297 . S
O186 C188 1.247 . S
O187 Cd183 2.439 . S
O187 C188 1.208 . S
C188 O186 1.247 . S
C188 O187 1.208 . S
C189 O194 1.247 . S
C189 O195 1.208 . S
C190 O182 1.315 . S
C190 O185 1.279 . S
C191 O192 1.315 . S
C191 O193 1.279 . S
O192 Cd184 2.223 . S
O192 C191 1.315 . S
O193 Cd183 2.240 . S
O193 C191 1.279 . S
O194 Cd184 2.297 . S
O194 C189 1.247 . S
O195 Cd184 2.439 . S
O195 C189 1.208 . S
O196 Cd197 2.223 . S
O196 C204 1.315 . S
Cd197 O196 2.223 . S
Cd197 O200 2.297 . S
Cd197 O201 2.439 . S
Cd197 O207 2.240 . S
Cd198 O199 2.240 . S
Cd198 O206 2.223 . S
Cd198 O208 2.297 . S
Cd198 O209 2.439 . S
O199 Cd198 2.240 . S
O199 C204 1.279 . S
O200 Cd197 2.297 . S
O200 C202 1.247 . S
O201 Cd197 2.439 . S
O201 C202 1.208 . S
C202 O200 1.247 . S
C202 O201 1.208 . S
C203 O208 1.247 . S
C203 O209 1.208 . S
C204 O196 1.315 . S
C204 O199 1.279 . S
C205 O206 1.315 . S
C205 O207 1.279 . S
O206 Cd198 2.223 . S
O206 C205 1.315 . S
O207 Cd197 2.240 . S
O207 C205 1.279 . S
O208 Cd198 2.297 . S
O208 C203 1.247 . S
O209 Cd198 2.439 . S
O209 C203 1.208 . S
O210 Cd211 2.223 . S
O210 C218 1.315 . S
Cd211 O210 2.223 . S
Cd211 O214 2.297 . S
Cd211 O215 2.439 . S
Cd211 O221 2.240 . S
Cd212 O213 2.240 . S
Cd212 O220 2.223 . S
Cd212 O222 2.297 . S
Cd212 O223 2.439 . S
O213 Cd212 2.240 . S
O213 C218 1.279 . S
O214 Cd211 2.297 . S
O214 C216 1.247 . S
O215 Cd211 2.439 . S
O215 C216 1.208 . S
C216 O214 1.247 . S
C216 O215 1.208 . S
C217 O222 1.247 . S
C217 O223 1.208 . S
C218 O210 1.315 . S
C218 O213 1.279 . S
C219 O220 1.315 . S
C219 O221 1.279 . S
O220 Cd212 2.223 . S
O220 C219 1.315 . S
O221 Cd211 2.240 . S
O221 C219 1.279 . S
O222 Cd212 2.297 . S
O222 C217 1.247 . S
O223 Cd212 2.439 . S
O223 C217 1.208 . S
H224 C230 0.930 . S
H225 C233 0.930 . S
H226 C234 0.930 . S
H227 C235 0.930 . S
H228 C238 0.930 . S
H229 C239 0.930 . S
C230 H224 0.930 . S
C230 C231 1.355 . S
C230 C232 1.415 . S
C231 C230 1.355 . S
C231 C233 1.419 . S
C232 C230 1.415 . S
C232 C237 1.425 . S
C232 C239 1.409 . S
C233 H225 0.930 . S
C233 C231 1.419 . S
C233 C234 1.362 . S
C234 H226 0.930 . S
C234 C233 1.362 . S
C234 C237 1.409 . S
C235 H227 0.930 . S
C235 C236 1.355 . S
C235 C237 1.415 . S
C236 C235 1.355 . S
C236 C238 1.419 . S
C237 C232 1.425 . S
C237 C234 1.409 . S
C237 C235 1.415 . S
C238 H228 0.930 . S
C238 C236 1.419 . S
C238 C239 1.362 . S
C239 H229 0.930 . S
C239 C232 1.409 . S
C239 C238 1.362 . S
H240 C246 0.930 . S
H241 C249 0.930 . S
H242 C250 0.930 . S
H243 C251 0.930 . S
H244 C254 0.930 . S
H245 C255 0.930 . S
C246 H240 0.930 . S
C246 C247 1.355 . S
C246 C248 1.415 . S
C247 C246 1.355 . S
C247 C249 1.419 . S
C248 C246 1.415 . S
C248 C253 1.425 . S
C248 C255 1.409 . S
C249 H241 0.930 . S
C249 C247 1.419 . S
C249 C250 1.362 . S
C250 H242 0.930 . S
C250 C249 1.362 . S
C250 C253 1.409 . S
C251 H243 0.930 . S
C251 C252 1.355 . S
C251 C253 1.415 . S
C252 C251 1.355 . S
C252 C254 1.419 . S
C253 C248 1.425 . S
C253 C250 1.409 . S
C253 C251 1.415 . S
C254 H244 0.930 . S
C254 C252 1.419 . S
C254 C255 1.362 . S
C255 H245 0.930 . S
C255 C248 1.409 . S
C255 C254 1.362 . S
H256 C262 0.930 . S
H257 C265 0.930 . S
H258 C266 0.930 . S
H259 C267 0.930 . S
H260 C270 0.930 . S
H261 C271 0.930 . S
C262 H256 0.930 . S
C262 C263 1.355 . S
C262 C264 1.415 . S
C263 C262 1.355 . S
C263 C265 1.419 . S
C264 C262 1.415 . S
C264 C269 1.425 . S
C264 C271 1.409 . S
C265 H257 0.930 . S
C265 C263 1.419 . S
C265 C266 1.362 . S
C266 H258 0.930 . S
C266 C265 1.362 . S
C266 C269 1.409 . S
C267 H259 0.930 . S
C267 C268 1.355 . S
C267 C269 1.415 . S
C268 C267 1.355 . S
C268 C270 1.419 . S
C269 C264 1.425 . S
C269 C266 1.409 . S
C269 C267 1.415 . S
C270 H260 0.930 . S
C270 C268 1.419 . S
C270 C271 1.362 . S
C271 H261 0.930 . S
C271 C264 1.409 . S
C271 C270 1.362 . S
H272 C278 0.930 . S
H273 C281 0.930 . S
H274 C282 0.930 . S
H275 C283 0.930 . S
H276 C286 0.930 . S
H277 C287 0.930 . S
C278 H272 0.930 . S
C278 C279 1.355 . S
C278 C280 1.415 . S
C279 C278 1.355 . S
C279 C281 1.419 . S
C280 C278 1.415 . S
C280 C285 1.425 . S
C280 C287 1.409 . S
C281 H273 0.930 . S
C281 C279 1.419 . S
C281 C282 1.362 . S
C282 H274 0.930 . S
C282 C281 1.362 . S
C282 C285 1.409 . S
C283 H275 0.930 . S
C283 C284 1.355 . S
C283 C285 1.415 . S
C284 C283 1.355 . S
C284 C286 1.419 . S
C285 C280 1.425 . S
C285 C282 1.409 . S
C285 C283 1.415 . S
C286 H276 0.930 . S
C286 C284 1.419 . S
C286 C287 1.362 . S
C287 H277 0.930 . S
C287 C280 1.409 . S
C287 C286 1.362 . S
H288 C294 0.930 . S
H289 C297 0.930 . S
H290 C298 0.930 . S
H291 C299 0.930 . S
H292 C302 0.930 . S
H293 C303 0.930 . S
C294 H288 0.930 . S
C294 C295 1.355 . S
C294 C296 1.415 . S
C295 C294 1.355 . S
C295 C297 1.419 . S
C296 C294 1.415 . S
C296 C301 1.425 . S
C296 C303 1.409 . S
C297 H289 0.930 . S
C297 C295 1.419 . S
C297 C298 1.362 . S
C298 H290 0.930 . S
C298 C297 1.362 . S
C298 C301 1.409 . S
C299 H291 0.930 . S
C299 C300 1.355 . S
C299 C301 1.415 . S
C300 C299 1.355 . S
C300 C302 1.419 . S
C301 C296 1.425 . S
C301 C298 1.409 . S
C301 C299 1.415 . S
C302 H292 0.930 . S
C302 C300 1.419 . S
C302 C303 1.362 . S
C303 H293 0.930 . S
C303 C296 1.409 . S
C303 C302 1.362 . S
H304 C310 0.930 . S
H305 C313 0.930 . S
H306 C314 0.930 . S
H307 C315 0.930 . S
H308 C318 0.930 . S
H309 C319 0.930 . S
C310 H304 0.930 . S
C310 C311 1.355 . S
C310 C312 1.415 . S
C311 C310 1.355 . S
C311 C313 1.419 . S
C312 C310 1.415 . S
C312 C317 1.425 . S
C312 C319 1.409 . S
C313 H305 0.930 . S
C313 C311 1.419 . S
C313 C314 1.362 . S
C314 H306 0.930 . S
C314 C313 1.362 . S
C314 C317 1.409 . S
C315 H307 0.930 . S
C315 C316 1.355 . S
C315 C317 1.415 . S
C316 C315 1.355 . S
C316 C318 1.419 . S
C317 C312 1.425 . S
C317 C314 1.409 . S
C317 C315 1.415 . S
C318 H308 0.930 . S
C318 C316 1.419 . S
C318 C319 1.362 . S
C319 H309 0.930 . S
C319 C312 1.409 . S
C319 C318 1.362 . S
H320 C326 0.930 . S
H321 C329 0.930 . S
H322 C330 0.930 . S
H323 C331 0.930 . S
H324 C334 0.930 . S
H325 C335 0.930 . S
C326 H320 0.930 . S
C326 C327 1.355 . S
C326 C328 1.415 . S
C327 C326 1.355 . S
C327 C329 1.419 . S
C328 C326 1.415 . S
C328 C333 1.425 . S
C328 C335 1.409 . S
C329 H321 0.930 . S
C329 C327 1.419 . S
C329 C330 1.362 . S
C330 H322 0.930 . S
C330 C329 1.362 . S
C330 C333 1.409 . S
C331 H323 0.930 . S
C331 C332 1.355 . S
C331 C333 1.415 . S
C332 C331 1.355 . S
C332 C334 1.419 . S
C333 C328 1.425 . S
C333 C330 1.409 . S
C333 C331 1.415 . S
C334 H324 0.930 . S
C334 C332 1.419 . S
C334 C335 1.362 . S
C335 H325 0.930 . S
C335 C328 1.409 . S
C335 C334 1.362 . S
H336 C342 0.930 . S
H337 C345 0.930 . S
H338 C346 0.930 . S
H339 C347 0.930 . S
H340 C350 0.930 . S
H341 C351 0.930 . S
C342 H336 0.930 . S
C342 C343 1.355 . S
C342 C344 1.415 . S
C343 C342 1.355 . S
C343 C345 1.419 . S
C344 C342 1.415 . S
C344 C349 1.425 . S
C344 C351 1.409 . S
C345 H337 0.930 . S
C345 C343 1.419 . S
C345 C346 1.362 . S
C346 H338 0.930 . S
C346 C345 1.362 . S
C346 C349 1.409 . S
C347 H339 0.930 . S
C347 C348 1.355 . S
C347 C349 1.415 . S
C348 C347 1.355 . S
C348 C350 1.419 . S
C349 C344 1.425 . S
C349 C346 1.409 . S
C349 C347 1.415 . S
C350 H340 0.930 . S
C350 C348 1.419 . S
C350 C351 1.362 . S
C351 H341 0.930 . S
C351 C344 1.409 . S
C351 C350 1.362 . S
H352 C358 0.930 . S
H353 C361 0.930 . S
H354 C362 0.930 . S
H355 C363 0.930 . S
H356 C366 0.930 . S
H357 C367 0.930 . S
C358 H352 0.930 . S
C358 C359 1.355 . S
C358 C360 1.415 . S
C359 C358 1.355 . S
C359 C361 1.419 . S
C360 C358 1.415 . S
C360 C365 1.425 . S
C360 C367 1.409 . S
C361 H353 0.930 . S
C361 C359 1.419 . S
C361 C362 1.362 . S
C362 H354 0.930 . S
C362 C361 1.362 . S
C362 C365 1.409 . S
C363 H355 0.930 . S
C363 C364 1.355 . S
C363 C365 1.415 . S
C364 C363 1.355 . S
C364 C366 1.419 . S
C365 C360 1.425 . S
C365 C362 1.409 . S
C365 C363 1.415 . S
C366 H356 0.930 . S
C366 C364 1.419 . S
C366 C367 1.362 . S
C367 H357 0.930 . S
C367 C360 1.409 . S
C367 C366 1.362 . S
H368 C374 0.930 . S
H369 C377 0.930 . S
H370 C378 0.930 . S
H371 C379 0.930 . S
H372 C382 0.930 . S
H373 C383 0.930 . S
C374 H368 0.930 . S
C374 C375 1.355 . S
C374 C376 1.415 . S
C375 C374 1.355 . S
C375 C377 1.419 . S
C376 C374 1.415 . S
C376 C381 1.425 . S
C376 C383 1.409 . S
C377 H369 0.930 . S
C377 C375 1.419 . S
C377 C378 1.362 . S
C378 H370 0.930 . S
C378 C377 1.362 . S
C378 C381 1.409 . S
C379 H371 0.930 . S
C379 C380 1.355 . S
C379 C381 1.415 . S
C380 C379 1.355 . S
C380 C382 1.419 . S
C381 C376 1.425 . S
C381 C378 1.409 . S
C381 C379 1.415 . S
C382 H372 0.930 . S
C382 C380 1.419 . S
C382 C383 1.362 . S
C383 H373 0.930 . S
C383 C376 1.409 . S
C383 C382 1.362 . S
H384 C390 0.930 . S
H385 C393 0.930 . S
H386 C394 0.930 . S
H387 C395 0.930 . S
H388 C398 0.930 . S
H389 C399 0.930 . S
C390 H384 0.930 . S
C390 C391 1.355 . S
C390 C392 1.415 . S
C391 C390 1.355 . S
C391 C393 1.419 . S
C392 C390 1.415 . S
C392 C397 1.425 . S
C392 C399 1.409 . S
C393 H385 0.930 . S
C393 C391 1.419 . S
C393 C394 1.362 . S
C394 H386 0.930 . S
C394 C393 1.362 . S
C394 C397 1.409 . S
C395 H387 0.930 . S
C395 C396 1.355 . S
C395 C397 1.415 . S
C396 C395 1.355 . S
C396 C398 1.419 . S
C397 C392 1.425 . S
C397 C394 1.409 . S
C397 C395 1.415 . S
C398 H388 0.930 . S
C398 C396 1.419 . S
C398 C399 1.362 . S
C399 H389 0.930 . S
C399 C392 1.409 . S
C399 C398 1.362 . S
H400 C406 0.930 . S
H401 C409 0.930 . S
H402 C410 0.930 . S
H403 C411 0.930 . S
H404 C414 0.930 . S
H405 C415 0.930 . S
C406 H400 0.930 . S
C406 C407 1.355 . S
C406 C408 1.415 . S
C407 C406 1.355 . S
C407 C409 1.419 . S
C408 C406 1.415 . S
C408 C413 1.425 1_554 S
C408 C415 1.409 1_554 S
C409 H401 0.930 . S
C409 C407 1.419 . S
C409 C410 1.362 . S
C410 H402 0.930 . S
C410 C409 1.362 . S
C410 C413 1.409 1_554 S
C411 H403 0.930 . S
C411 C412 1.355 . S
C411 C413 1.415 . S
C412 C411 1.355 . S
C412 C414 1.419 . S
C413 C408 1.425 1_556 S
C413 C410 1.409 1_556 S
C413 C411 1.415 . S
C414 H404 0.930 . S
C414 C412 1.419 . S
C414 C415 1.362 . S
C415 H405 0.930 . S
C415 C408 1.409 1_556 S
C415 C414 1.362 . S
H416 C422 0.930 . S
H417 C425 0.930 . S
H418 C426 0.930 . S
H419 C427 0.930 . S
H420 C430 0.930 . S
H421 C431 0.930 . S
C422 H416 0.930 . S
C422 C423 1.355 . S
C422 C424 1.415 . S
C423 C422 1.355 . S
C423 C425 1.419 . S
C424 C422 1.415 . S
C424 C429 1.425 1_554 S
C424 C431 1.409 1_554 S
C425 H417 0.930 . S
C425 C423 1.419 . S
C425 C426 1.362 . S
C426 H418 0.930 . S
C426 C425 1.362 . S
C426 C429 1.409 1_554 S
C427 H419 0.930 . S
C427 C428 1.355 . S
C427 C429 1.415 . S
C428 C427 1.355 . S
C428 C430 1.419 . S
C429 C424 1.425 1_556 S
C429 C426 1.409 1_556 S
C429 C427 1.415 . S
C430 H420 0.930 . S
C430 C428 1.419 . S
C430 C431 1.362 . S
C431 H421 0.930 . S
C431 C424 1.409 1_556 S
C431 C430 1.362 . S
H432 C438 0.930 . S
H433 C441 0.930 . S
H434 C442 0.930 . S
H435 C443 0.930 . S
H436 C446 0.930 . S
H437 C447 0.930 . S
C438 H432 0.930 . S
C438 C439 1.355 . S
C438 C440 1.415 . S
C439 C438 1.355 . S
C439 C441 1.419 . S
C440 C438 1.415 . S
C440 C445 1.425 . S
C440 C447 1.409 . S
C441 H433 0.930 . S
C441 C439 1.419 . S
C441 C442 1.362 . S
C442 H434 0.930 . S
C442 C441 1.362 . S
C442 C445 1.409 . S
C443 H435 0.930 . S
C443 C444 1.355 . S
C443 C445 1.415 . S
C444 C443 1.355 . S
C444 C446 1.419 . S
C445 C440 1.425 . S
C445 C442 1.409 . S
C445 C443 1.415 . S
C446 H436 0.930 . S
C446 C444 1.419 . S
C446 C447 1.362 . S
C447 H437 0.930 . S
C447 C440 1.409 . S
C447 C446 1.362 . S
H448 C454 0.930 . S
H449 C457 0.930 . S
H450 C458 0.930 . S
H451 C459 0.930 . S
H452 C462 0.930 . S
H453 C463 0.930 . S
C454 H448 0.930 . S
C454 C455 1.355 . S
C454 C456 1.415 . S
C455 C454 1.355 . S
C455 C457 1.419 . S
C456 C454 1.415 . S
C456 C461 1.425 . S
C456 C463 1.409 . S
C457 H449 0.930 . S
C457 C455 1.419 . S
C457 C458 1.362 . S
C458 H450 0.930 . S
C458 C457 1.362 . S
C458 C461 1.409 . S
C459 H451 0.930 . S
C459 C460 1.355 . S
C459 C461 1.415 . S
C460 C459 1.355 . S
C460 C462 1.419 . S
C461 C456 1.425 . S
C461 C458 1.409 . S
C461 C459 1.415 . S
C462 H452 0.930 . S
C462 C460 1.419 . S
C462 C463 1.362 . S
C463 H453 0.930 . S
C463 C456 1.409 . S
C463 C462 1.362 . S
H464 C470 0.930 . S
H465 C473 0.930 . S
H466 C474 0.930 . S
H467 C475 0.930 . S
H468 C478 0.930 . S
H469 C479 0.930 . S
C470 H464 0.930 . S
C470 C471 1.355 . S
C470 C472 1.415 . S
C471 C470 1.355 . S
C471 C473 1.419 . S
C472 C470 1.415 . S
C472 C477 1.425 . S
C472 C479 1.409 . S
C473 H465 0.930 . S
C473 C471 1.419 . S
C473 C474 1.362 . S
C474 H466 0.930 . S
C474 C473 1.362 . S
C474 C477 1.409 . S
C475 H467 0.930 . S
C475 C476 1.355 . S
C475 C477 1.415 . S
C476 C475 1.355 . S
C476 C478 1.419 . S
C477 C472 1.425 . S
C477 C474 1.409 . S
C477 C475 1.415 . S
C478 H468 0.930 . S
C478 C476 1.419 . S
C478 C479 1.362 . S
C479 H469 0.930 . S
C479 C472 1.409 . S
C479 C478 1.362 . S
H480 C486 0.930 1_565 S
H481 C489 0.930 . S
H482 C490 0.930 1_655 S
H483 C491 0.930 1_545 S
H484 C494 0.930 . S
H485 C495 0.930 1_455 S
C486 H480 0.930 1_545 S
C486 C487 1.355 . S
C486 C488 1.415 1_545 S
C487 C486 1.355 . S
C487 C489 1.419 . S
C488 C486 1.415 1_565 S
C488 C493 1.425 1_465 S
C488 C495 1.409 1_455 S
C489 H481 0.930 . S
C489 C487 1.419 . S
C489 C490 1.362 . S
C490 H482 0.930 1_455 S
C490 C489 1.362 . S
C490 C493 1.409 1_455 S
C491 H483 0.930 1_565 S
C491 C492 1.355 . S
C491 C493 1.415 1_565 S
C492 C491 1.355 . S
C492 C494 1.419 . S
C493 C488 1.425 1_645 S
C493 C490 1.409 1_655 S
C493 C491 1.415 1_545 S
C494 H484 0.930 . S
C494 C492 1.419 . S
C494 C495 1.362 . S
C495 H485 0.930 1_655 S
C495 C488 1.409 1_655 S
C495 C494 1.362 . S
H496 C502 0.930 1_655 S
H497 C505 0.930 . S
H498 C506 0.930 . S
H499 C507 0.930 1_455 S
H500 C510 0.930 . S
H501 C511 0.930 . S
C502 H496 0.930 1_455 S
C502 C503 1.355 . S
C502 C504 1.415 1_455 S
C503 C502 1.355 . S
C503 C505 1.419 . S
C504 C502 1.415 1_655 S
C504 C509 1.425 1_655 S
C504 C511 1.409 . S
C505 H497 0.930 . S
C505 C503 1.419 . S
C505 C506 1.362 . S
C506 H498 0.930 . S
C506 C505 1.362 . S
C506 C509 1.409 . S
C507 H499 0.930 1_655 S
C507 C508 1.355 . S
C507 C509 1.415 1_655 S
C508 C507 1.355 . S
C508 C510 1.419 . S
C509 C504 1.425 1_455 S
C509 C506 1.409 . S
C509 C507 1.415 1_455 S
C510 H500 0.930 . S
C510 C508 1.419 . S
C510 C511 1.362 . S
C511 H501 0.930 . S
C511 C504 1.409 . S
C511 C510 1.362 . S
H512 C518 0.930 . S
H513 C521 0.930 . S
H514 C522 0.930 . S
H515 C523 0.930 . S
H516 C526 0.930 . S
H517 C527 0.930 . S
C518 H512 0.930 . S
C518 C519 1.355 . S
C518 C520 1.415 . S
C519 C518 1.355 . S
C519 C521 1.419 . S
C520 C518 1.415 . S
C520 C525 1.425 . S
C520 C527 1.409 . S
C521 H513 0.930 . S
C521 C519 1.419 . S
C521 C522 1.362 . S
C522 H514 0.930 . S
C522 C521 1.362 . S
C522 C525 1.409 . S
C523 H515 0.930 . S
C523 C524 1.355 . S
C523 C525 1.415 . S
C524 C523 1.355 . S
C524 C526 1.419 . S
C525 C520 1.425 . S
C525 C522 1.409 . S
C525 C523 1.415 . S
C526 H516 0.930 . S
C526 C524 1.419 . S
C526 C527 1.362 . S
C527 H517 0.930 . S
C527 C520 1.409 . S
C527 C526 1.362 . S
H528 C534 0.930 . S
H529 C537 0.930 . S
H530 C538 0.930 . S
H531 C539 0.930 . S
H532 C542 0.930 . S
H533 C543 0.930 . S
C534 H528 0.930 . S
C534 C535 1.355 . S
C534 C536 1.415 . S
C535 C534 1.355 . S
C535 C537 1.419 . S
C536 C534 1.415 . S
C536 C541 1.425 1_545 S
C536 C543 1.409 . S
C537 H529 0.930 . S
C537 C535 1.419 . S
C537 C538 1.362 1_545 S
C538 H530 0.930 . S
C538 C537 1.362 1_565 S
C538 C541 1.409 . S
C539 H531 0.930 . S
C539 C540 1.355 . S
C539 C541 1.415 . S
C540 C539 1.355 . S
C540 C542 1.419 . S
C541 C536 1.425 1_565 S
C541 C538 1.409 . S
C541 C539 1.415 . S
C542 H532 0.930 . S
C542 C540 1.419 . S
C542 C543 1.362 1_565 S
C543 H533 0.930 . S
C543 C536 1.409 . S
C543 C542 1.362 1_545 S
H544 C550 0.930 . S
H545 C553 0.930 . S
H546 C554 0.930 . S
H547 C555 0.930 . S
H548 C558 0.930 . S
H549 C559 0.930 . S
C550 H544 0.930 . S
C550 C551 1.355 . S
C550 C552 1.415 . S
C551 C550 1.355 . S
C551 C553 1.419 . S
C552 C550 1.415 . S
C552 C557 1.425 1_455 S
C552 C559 1.409 1_455 S
C553 H545 0.930 . S
C553 C551 1.419 . S
C553 C554 1.362 . S
C554 H546 0.930 . S
C554 C553 1.362 . S
C554 C557 1.409 1_455 S
C555 H547 0.930 . S
C555 C556 1.355 . S
C555 C557 1.415 . S
C556 C555 1.355 . S
C556 C558 1.419 . S
C557 C552 1.425 1_655 S
C557 C554 1.409 1_655 S
C557 C555 1.415 . S
C558 H548 0.930 . S
C558 C556 1.419 . S
C558 C559 1.362 . S
C559 H549 0.930 . S
C559 C552 1.409 1_655 S
C559 C558 1.362 . S
H560 C566 0.930 . S
H561 C569 0.930 . S
H562 C570 0.930 . S
H563 C571 0.930 . S
H564 C574 0.930 . S
H565 C575 0.930 . S
C566 H560 0.930 . S
C566 C567 1.355 . S
C566 C568 1.415 . S
C567 C566 1.355 . S
C567 C569 1.419 . S
C568 C566 1.415 . S
C568 C573 1.425 . S
C568 C575 1.409 . S
C569 H561 0.930 . S
C569 C567 1.419 . S
C569 C570 1.362 . S
C570 H562 0.930 . S
C570 C569 1.362 . S
C570 C573 1.409 . S
C571 H563 0.930 . S
C571 C572 1.355 . S
C571 C573 1.415 . S
C572 C571 1.355 . S
C572 C574 1.419 . S
C573 C568 1.425 . S
C573 C570 1.409 . S
C573 C571 1.415 . S
C574 H564 0.930 . S
C574 C572 1.419 . S
C574 C575 1.362 . S
C575 H565 0.930 . S
C575 C568 1.409 . S
C575 C574 1.362 . S
H576 C582 0.930 . S
H577 C585 0.930 . S
H578 C586 0.930 . S
H579 C587 0.930 . S
H580 C590 0.930 . S
H581 C591 0.930 . S
C582 H576 0.930 . S
C582 C583 1.355 1_545 S
C582 C584 1.415 . S
C583 C582 1.355 1_565 S
C583 C585 1.419 . S
C584 C582 1.415 . S
C584 C589 1.425 1_545 S
C584 C591 1.409 . S
C585 H577 0.930 . S
C585 C583 1.419 . S
C585 C586 1.362 . S
C586 H578 0.930 . S
C586 C585 1.362 . S
C586 C589 1.409 . S
C587 H579 0.930 . S
C587 C588 1.355 1_565 S
C587 C589 1.415 . S
C588 C587 1.355 1_545 S
C588 C590 1.419 . S
C589 C584 1.425 1_565 S
C589 C586 1.409 . S
C589 C587 1.415 . S
C590 H580 0.930 . S
C590 C588 1.419 . S
C590 C591 1.362 . S
C591 H581 0.930 . S
C591 C584 1.409 . S
C591 C590 1.362 . S
H592 C598 0.930 1_655 S
H593 C601 0.930 . S
H594 C602 0.930 . S
H595 C603 0.930 1_455 S
H596 C606 0.930 . S
H597 C607 0.930 . S
C598 H592 0.930 1_455 S
C598 C599 1.355 . S
C598 C600 1.415 1_455 S
C599 C598 1.355 . S
C599 C601 1.419 . S
C600 C598 1.415 1_655 S
C600 C605 1.425 1_645 S
C600 C607 1.409 . S
C601 H593 0.930 . S
C601 C599 1.419 . S
C601 C602 1.362 1_545 S
C602 H594 0.930 . S
C602 C601 1.362 1_565 S
C602 C605 1.409 . S
C603 H595 0.930 1_655 S
C603 C604 1.355 . S
C603 C605 1.415 1_655 S
C604 C603 1.355 . S
C604 C606 1.419 . S
C605 C600 1.425 1_465 S
C605 C602 1.409 . S
C605 C603 1.415 1_455 S
C606 H596 0.930 . S
C606 C604 1.419 . S
C606 C607 1.362 1_565 S
C607 H597 0.930 . S
C607 C600 1.409 . S
C607 C606 1.362 1_545 S
H608 C614 0.930 . S
H609 C617 0.930 1_545 S
H610 C618 0.930 . S
H611 C619 0.930 . S
H612 C622 0.930 1_565 S
H613 C623 0.930 . S
C614 H608 0.930 . S
C614 C615 1.355 . S
C614 C616 1.415 . S
C615 C614 1.355 . S
C615 C617 1.419 . S
C616 C614 1.415 . S
C616 C621 1.425 1_565 S
C616 C623 1.409 . S
C617 H609 0.930 1_565 S
C617 C615 1.419 . S
C617 C618 1.362 1_565 S
C618 H610 0.930 . S
C618 C617 1.362 1_545 S
C618 C621 1.409 . S
C619 H611 0.930 . S
C619 C620 1.355 . S
C619 C621 1.415 . S
C620 C619 1.355 . S
C620 C622 1.419 . S
C621 C616 1.425 1_545 S
C621 C618 1.409 . S
C621 C619 1.415 . S
C622 H612 0.930 1_545 S
C622 C620 1.419 . S
C622 C623 1.362 1_545 S
C623 H613 0.930 . S
C623 C616 1.409 . S
C623 C622 1.362 1_565 S
H624 C630 0.930 . S
H625 C633 0.930 . S
H626 C634 0.930 . S
H627 C635 0.930 . S
H628 C638 0.930 . S
H629 C639 0.930 . S
C630 H624 0.930 . S
C630 C631 1.355 . S
C630 C632 1.415 1_565 S
C631 C630 1.355 . S
C631 C633 1.419 1_655 S
C632 C630 1.415 1_545 S
C632 C637 1.425 1_645 S
C632 C639 1.409 . S
C633 H625 0.930 . S
C633 C631 1.419 1_455 S
C633 C634 1.362 . S
C634 H626 0.930 . S
C634 C633 1.362 . S
C634 C637 1.409 . S
C635 H627 0.930 . S
C635 C636 1.355 . S
C635 C637 1.415 1_545 S
C636 C635 1.355 . S
C636 C638 1.419 1_455 S
C637 C632 1.425 1_465 S
C637 C634 1.409 . S
C637 C635 1.415 1_565 S
C638 H628 0.930 . S
C638 C636 1.419 1_655 S
C638 C639 1.362 . S
C639 H629 0.930 . S
C639 C632 1.409 . S
C639 C638 1.362 . S
H640 C646 0.930 . S
H641 C649 0.930 . S
H642 C650 0.930 . S
H643 C651 0.930 . S
H644 C654 0.930 . S
H645 C655 0.930 . S
C646 H640 0.930 . S
C646 C647 1.355 . S
C646 C648 1.415 1_455 S
C647 C646 1.355 . S
C647 C649 1.419 . S
C648 C646 1.415 1_655 S
C648 C653 1.425 1_655 S
C648 C655 1.409 . S
C649 H641 0.930 . S
C649 C647 1.419 . S
C649 C650 1.362 . S
C650 H642 0.930 . S
C650 C649 1.362 . S
C650 C653 1.409 . S
C651 H643 0.930 . S
C651 C652 1.355 . S
C651 C653 1.415 1_655 S
C652 C651 1.355 . S
C652 C654 1.419 . S
C653 C648 1.425 1_455 S
C653 C650 1.409 . S
C653 C651 1.415 1_455 S
C654 H644 0.930 . S
C654 C652 1.419 . S
C654 C655 1.362 . S
C655 H645 0.930 . S
C655 C648 1.409 . S
C655 C654 1.362 . S
H656 C662 0.930 . S
H657 C665 0.930 . S
H658 C666 0.930 . S
H659 C667 0.930 . S
H660 C670 0.930 . S
H661 C671 0.930 . S
C662 H656 0.930 . S
C662 C663 1.355 . S
C662 C664 1.415 . S
C663 C662 1.355 . S
C663 C665 1.419 . S
C664 C662 1.415 . S
C664 C669 1.425 . S
C664 C671 1.409 . S
C665 H657 0.930 . S
C665 C663 1.419 . S
C665 C666 1.362 . S
C666 H658 0.930 . S
C666 C665 1.362 . S
C666 C669 1.409 . S
C667 H659 0.930 . S
C667 C668 1.355 . S
C667 C669 1.415 . S
C668 C667 1.355 . S
C668 C670 1.419 . S
C669 C664 1.425 . S
C669 C666 1.409 . S
C669 C667 1.415 . S
C670 H660 0.930 . S
C670 C668 1.419 . S
C670 C671 1.362 . S
C671 H661 0.930 . S
C671 C664 1.409 . S
C671 C670 1.362 . S
H672 C678 0.930 . S
H673 C681 0.930 . S
H674 C682 0.930 . S
H675 C683 0.930 . S
H676 C686 0.930 . S
H677 C687 0.930 . S
C678 H672 0.930 . S
C678 C679 1.355 . S
C678 C680 1.415 . S
C679 C678 1.355 . S
C679 C681 1.419 . S
C680 C678 1.415 . S
C680 C685 1.425 . S
C680 C687 1.409 . S
C681 H673 0.930 . S
C681 C679 1.419 . S
C681 C682 1.362 . S
C682 H674 0.930 . S
C682 C681 1.362 . S
C682 C685 1.409 . S
C683 H675 0.930 . S
C683 C684 1.355 . S
C683 C685 1.415 . S
C684 C683 1.355 . S
C684 C686 1.419 . S
C685 C680 1.425 . S
C685 C682 1.409 . S
C685 C683 1.415 . S
C686 H676 0.930 . S
C686 C684 1.419 . S
C686 C687 1.362 . S
C687 H677 0.930 . S
C687 C680 1.409 . S
C687 C686 1.362 . S
H688 C694 0.930 . S
H689 C697 0.930 . S
H690 C698 0.930 . S
H691 C699 0.930 . S
H692 C702 0.930 . S
H693 C703 0.930 . S
C694 H688 0.930 . S
C694 C695 1.355 . S
C694 C696 1.415 . S
C695 C694 1.355 . S
C695 C697 1.419 . S
C696 C694 1.415 . S
C696 C701 1.425 1_545 S
C696 C703 1.409 . S
C697 H689 0.930 . S
C697 C695 1.419 . S
C697 C698 1.362 1_545 S
C698 H690 0.930 . S
C698 C697 1.362 1_565 S
C698 C701 1.409 . S
C699 H691 0.930 . S
C699 C700 1.355 . S
C699 C701 1.415 . S
C700 C699 1.355 . S
C700 C702 1.419 . S
C701 C696 1.425 1_565 S
C701 C698 1.409 . S
C701 C699 1.415 . S
C702 H692 0.930 . S
C702 C700 1.419 . S
C702 C703 1.362 1_565 S
C703 H693 0.930 . S
C703 C696 1.409 . S
C703 C702 1.362 1_545 S
H704 C710 0.930 1_545 S
H705 C713 0.930 . S
H706 C714 0.930 . S
H707 C715 0.930 1_565 S
H708 C718 0.930 . S
H709 C719 0.930 . S
C710 H704 0.930 1_565 S
C710 C711 1.355 . S
C710 C712 1.415 1_565 S
C711 C710 1.355 . S
C711 C713 1.419 . S
C712 C710 1.415 1_545 S
C712 C717 1.425 1_645 S
C712 C719 1.409 . S
C713 H705 0.930 . S
C713 C711 1.419 . S
C713 C714 1.362 1_655 S
C714 H706 0.930 . S
C714 C713 1.362 1_455 S
C714 C717 1.409 . S
C715 H707 0.930 1_545 S
C715 C716 1.355 . S
C715 C717 1.415 1_545 S
C716 C715 1.355 . S
C716 C718 1.419 . S
C717 C712 1.425 1_465 S
C717 C714 1.409 . S
C717 C715 1.415 1_565 S
C718 H708 0.930 . S
C718 C716 1.419 . S
C718 C719 1.362 1_455 S
C719 H709 0.930 . S
C719 C712 1.409 . S
C719 C718 1.362 1_655 S
H720 C726 0.930 . S
H721 C729 0.930 . S
H722 C730 0.930 . S
H723 C731 0.930 . S
H724 C734 0.930 . S
H725 C735 0.930 . S
C726 H720 0.930 . S
C726 C727 1.355 . S
C726 C728 1.415 1_655 S
C727 C726 1.355 . S
C727 C729 1.419 . S
C728 C726 1.415 1_455 S
C728 C733 1.425 1_455 S
C728 C735 1.409 . S
C729 H721 0.930 . S
C729 C727 1.419 . S
C729 C730 1.362 . S
C730 H722 0.930 . S
C730 C729 1.362 . S
C730 C733 1.409 . S
C731 H723 0.930 . S
C731 C732 1.355 . S
C731 C733 1.415 1_455 S
C732 C731 1.355 . S
C732 C734 1.419 . S
C733 C728 1.425 1_655 S
C733 C730 1.409 . S
C733 C731 1.415 1_655 S
C734 H724 0.930 . S
C734 C732 1.419 . S
C734 C735 1.362 . S
C735 H725 0.930 . S
C735 C728 1.409 . S
C735 C734 1.362 . S
C231 C63 1.473 . S
C236 C7 1.491 . S
C247 C21 1.485 . S
C252 C77 1.496 . S
C263 C91 1.482 . S
C268 C35 1.496 . S
C279 C105 1.460 . S
C284 C49 1.472 . S
C295 C175 1.492 . S
C300 C119 1.496 . S
C311 C133 1.461 . S
C316 C189 1.476 . S
C327 C203 1.476 . S
C332 C147 1.493 . S
C343 C161 1.460 . S
C348 C217 1.468 . S
C359 C8 1.464 . S
C364 C218 1.467 . S
C375 C22 1.429 . S
C380 C176 1.432 . S
C391 C36 1.434 . S
C396 C190 1.456 . S
C407 C204 1.450 . S
C412 C50 1.430 . S
C423 C64 1.461 . S
C428 C134 1.439 . S
C439 C78 1.427 . S
C444 C148 1.443 . S
C455 C162 1.466 . S
C460 C92 1.447 . S
C471 C120 1.463 . S
C476 C106 1.441 . S
C487 C6 1.633 . S
C492 C146 1.635 . S
C503 C160 1.636 . S
C508 C20 1.637 . S
C519 C34 1.592 . S
C524 C118 1.596 . S
C535 C132 1.638 . S
C540 C48 1.637 . S
C551 C62 1.593 . S
C556 C202 1.590 . S
C567 C76 1.598 . S
C572 C216 1.594 . S
C583 C174 1.638 . S
C588 C90 1.638 . S
C599 C188 1.631 . S
C604 C104 1.627 . S
C615 C149 1.483 . S
C620 C9 1.480 . S
C631 C23 1.475 . S
C636 C163 1.483 . S
C647 C37 1.471 . S
C652 C121 1.482 . S
C663 C135 1.463 . S
C668 C51 1.458 . S
C679 C205 1.460 . S
C684 C65 1.460 . S
C695 C219 1.468 . S
C700 C79 1.458 . S
C711 C177 1.468 . S
C716 C93 1.458 . S
C727 C107 1.458 . S
C732 C191 1.467 . S
