# Generated by pormake.
# Topology unp, (4)-cn, num edge types: 1
# Building blocks:
#     Node 0, Type 0, BuildingBlock: NAHDIM_clean_sbu_0, # of connection points: 4
#     Node 1, Type 0, BuildingBlock: NAHDIM_clean_sbu_0, # of connection points: 4
#     Node 2, Type 0, BuildingBlock: NAHDIM_clean_sbu_0, # of connection points: 4
#     Node 3, Type 0, BuildingBlock: NAHDIM_clean_sbu_0, # of connection points: 4
#     Node 4, Type 0, BuildingBlock: NAHDIM_clean_sbu_0, # of connection points: 4
#     Node 5, Type 0, BuildingBlock: NAHDIM_clean_sbu_0, # of connection points: 4
#     Node 6, Type 0, BuildingBlock: NAHDIM_clean_sbu_0, # of connection points: 4
#     Node 7, Type 0, BuildingBlock: NAHDIM_clean_sbu_0, # of connection points: 4
#     Node 8, Type 0, BuildingBlock: NAHDIM_clean_sbu_0, # of connection points: 4
#     Node 9, Type 0, BuildingBlock: NAHDIM_clean_sbu_0, # of connection points: 4
#     Node 10, Type 0, BuildingBlock: NAHDIM_clean_sbu_0, # of connection points: 4
#     Node 11, Type 0, BuildingBlock: NAHDIM_clean_sbu_0, # of connection points: 4
#     Node 12, Type 0, BuildingBlock: NAHDIM_clean_sbu_0, # of connection points: 4
#     Node 13, Type 0, BuildingBlock: NAHDIM_clean_sbu_0, # of connection points: 4
#     Node 14, Type 0, BuildingBlock: NAHDIM_clean_sbu_0, # of connection points: 4
#     Node 15, Type 0, BuildingBlock: NAHDIM_clean_sbu_0, # of connection points: 4
#     Node 16, Type 0, BuildingBlock: NAHDIM_clean_sbu_0, # of connection points: 4
#     Node 17, Type 0, BuildingBlock: NAHDIM_clean_sbu_0, # of connection points: 4
#     Edge 18, Type (0, 0), BuildingBlock: XUDNAN_clean_linker_2, # of connection points: 2
#     Edge 19, Type (0, 0), BuildingBlock: XUDNAN_clean_linker_2, # of connection points: 2
#     Edge 20, Type (0, 0), BuildingBlock: XUDNAN_clean_linker_2, # of connection points: 2
#     Edge 21, Type (0, 0), BuildingBlock: XUDNAN_clean_linker_2, # of connection points: 2
#     Edge 22, Type (0, 0), BuildingBlock: XUDNAN_clean_linker_2, # of connection points: 2
#     Edge 23, Type (0, 0), BuildingBlock: XUDNAN_clean_linker_2, # of connection points: 2
#     Edge 24, Type (0, 0), BuildingBlock: XUDNAN_clean_linker_2, # of connection points: 2
#     Edge 25, Type (0, 0), BuildingBlock: XUDNAN_clean_linker_2, # of connection points: 2
#     Edge 26, Type (0, 0), BuildingBlock: XUDNAN_clean_linker_2, # of connection points: 2
#     Edge 27, Type (0, 0), BuildingBlock: XUDNAN_clean_linker_2, # of connection points: 2
#     Edge 28, Type (0, 0), BuildingBlock: XUDNAN_clean_linker_2, # of connection points: 2
#     Edge 29, Type (0, 0), BuildingBlock: XUDNAN_clean_linker_2, # of connection points: 2
#     Edge 30, Type (0, 0), BuildingBlock: XUDNAN_clean_linker_2, # of connection points: 2
#     Edge 31, Type (0, 0), BuildingBlock: XUDNAN_clean_linker_2, # of connection points: 2
#     Edge 32, Type (0, 0), BuildingBlock: XUDNAN_clean_linker_2, # of connection points: 2
#     Edge 33, Type (0, 0), BuildingBlock: XUDNAN_clean_linker_2, # of connection points: 2
#     Edge 34, Type (0, 0), BuildingBlock: XUDNAN_clean_linker_2, # of connection points: 2
#     Edge 35, Type (0, 0), BuildingBlock: XUDNAN_clean_linker_2, # of connection points: 2
#     Edge 36, Type (0, 0), BuildingBlock: XUDNAN_clean_linker_2, # of connection points: 2
#     Edge 37, Type (0, 0), BuildingBlock: XUDNAN_clean_linker_2, # of connection points: 2
#     Edge 38, Type (0, 0), BuildingBlock: XUDNAN_clean_linker_2, # of connection points: 2
#     Edge 39, Type (0, 0), BuildingBlock: XUDNAN_clean_linker_2, # of connection points: 2
#     Edge 40, Type (0, 0), BuildingBlock: XUDNAN_clean_linker_2, # of connection points: 2
#     Edge 41, Type (0, 0), BuildingBlock: XUDNAN_clean_linker_2, # of connection points: 2
#     Edge 42, Type (0, 0), BuildingBlock: XUDNAN_clean_linker_2, # of connection points: 2
#     Edge 43, Type (0, 0), BuildingBlock: XUDNAN_clean_linker_2, # of connection points: 2
#     Edge 44, Type (0, 0), BuildingBlock: XUDNAN_clean_linker_2, # of connection points: 2
#     Edge 45, Type (0, 0), BuildingBlock: XUDNAN_clean_linker_2, # of connection points: 2
#     Edge 46, Type (0, 0), BuildingBlock: XUDNAN_clean_linker_2, # of connection points: 2
#     Edge 47, Type (0, 0), BuildingBlock: XUDNAN_clean_linker_2, # of connection points: 2
#     Edge 48, Type (0, 0), BuildingBlock: XUDNAN_clean_linker_2, # of connection points: 2
#     Edge 49, Type (0, 0), BuildingBlock: XUDNAN_clean_linker_2, # of connection points: 2
#     Edge 50, Type (0, 0), BuildingBlock: XUDNAN_clean_linker_2, # of connection points: 2
#     Edge 51, Type (0, 0), BuildingBlock: XUDNAN_clean_linker_2, # of connection points: 2
#     Edge 52, Type (0, 0), BuildingBlock: XUDNAN_clean_linker_2, # of connection points: 2
#     Edge 53, Type (0, 0), BuildingBlock: XUDNAN_clean_linker_2, # of connection points: 2
# Relax obj value: 0.394
# Max RMSD: 0.206
# Mean RMSD: 0.203
data_MOF--net-unp--node1-NAHDIM_clean_sbu_0--edge1-XUDNAN_clean_linker_2
_symmetry_space_group_name_H-M    P1
_symmetry_Int_Tables_number       1
_symmetry_cell_setting            triclinic
loop_
_symmetry_equiv_pos_as_xyz
'x, y, z'
_cell_length_a     46.441928
_cell_length_b     46.419244
_cell_length_c     62.568797
_cell_angle_alpha  90.123118
_cell_angle_beta   89.87965
_cell_angle_gamma 120.22978
loop_
_atom_site_label
_atom_site_type_symbol
_atom_site_fract_x
_atom_site_fract_y
_atom_site_fract_z
_atom_type_partial_charge
C0 C 0.20712 0.22359 0.15411 0.0
O1 O 0.19009 0.19397 0.16292 0.0
O2 O 0.1554 0.1461 0.13057 0.0
Zn3 Zn 0.164 0.19001 0.11843 0.0
O4 O 0.18219 0.19397 0.08866 0.0
C5 C 0.09785 0.17194 0.13121 0.0
O6 O 0.1046 0.15671 0.14638 0.0
O7 O 0.19911 0.22816 0.13556 0.0
C8 C 0.16598 0.19163 0.07179 0.0
O9 O 0.13575 0.18705 0.0734 0.0
C10 C 0.14308 0.12054 0.11856 0.0
O11 O 0.13709 0.12361 0.09844 0.0
O12 O 0.12039 0.18962 0.11773 0.0
C13 C 0.75554 0.00844 0.11536 0.0
O14 O 0.7697 0.02584 0.09804 0.0
O15 O 0.8467 0.02787 0.11386 0.0
Zn16 Zn 0.80202 0.98886 0.10561 0.0
O17 O 0.79415 0.99306 0.07455 0.0
C18 C 0.80457 0.93557 0.12819 0.0
O19 O 0.79967 0.94909 0.14525 0.0
O20 O 0.76535 0.98927 0.12262 0.0
C21 C 0.81333 0.9936 0.05989 0.0
O22 O 0.83859 0.98966 0.06492 0.0
C23 C 0.85928 0.05611 0.10472 0.0
O24 O 0.84207 0.06088 0.08994 0.0
O25 O 0.80469 0.94745 0.10989 0.0
C26 C 0.98524 0.75769 0.1371 0.0
O27 O 0.96969 0.74995 0.11863 0.0
O28 O 0.95034 0.81942 0.1324 0.0
Zn29 Zn 0.99298 0.81998 0.12541 0.0
O30 O 0.99308 0.80886 0.09437 0.0
C31 C 0.03743 0.88225 0.14738 0.0
O32 O 0.02213 0.86593 0.16481 0.0
O33 O 0.9982 0.78749 0.14385 0.0
C34 C 0.02054 0.81674 0.08527 0.0
O35 O 0.04807 0.83083 0.09662 0.0
C36 C 0.93859 0.8302 0.11821 0.0
O37 O 0.95365 0.8393 0.09959 0.0
O38 O 0.02992 0.86706 0.12956 0.0
C39 C 0.24271 0.23251 0.87314 0.0
O40 O 0.2301 0.23504 0.89138 0.0
O41 O 0.14892 0.15894 0.86622 0.0
Zn42 Zn 0.19161 0.16459 0.87809 0.0
O43 O 0.19167 0.17097 0.90984 0.0
C44 C 0.18279 0.10792 0.85429 0.0
O45 O 0.1781 0.1238 0.83854 0.0
O46 O 0.23065 0.20407 0.86429 0.0
C47 C 0.21553 0.17405 0.92137 0.0
O48 O 0.24057 0.1731 0.91228 0.0
C49 C 0.13891 0.17956 0.8692 0.0
O50 O 0.15752 0.20687 0.88023 0.0
O51 O 0.19103 0.12175 0.87254 0.0
C52 C 0.77007 0.99043 0.85739 0.0
O53 O 0.77007 0.97241 0.87357 0.0
O54 O 0.84212 0.97801 0.86184 0.0
Zn55 Zn 0.83812 0.01928 0.86585 0.0
O56 O 0.83307 0.02437 0.89727 0.0
C57 C 0.90156 0.05701 0.84479 0.0
O58 O 0.89323 0.02765 0.83676 0.0
O59 O 0.79779 0.01361 0.85034 0.0
C60 C 0.8157 0.03515 0.90613 0.0
O61 O 0.79957 0.04569 0.89425 0.0
C62 C 0.83874 0.95922 0.87757 0.0
O63 O 0.83096 0.96577 0.89643 0.0
O64 O 0.8808 0.05986 0.85657 0.0
C65 C 0.0176 0.76415 0.87906 0.0
O66 O 0.03957 0.78535 0.8927 0.0
O67 O 0.03441 0.85096 0.87056 0.0
Zn68 Zn 0.99666 0.81026 0.88454 0.0
O69 O 0.00601 0.81176 0.91605 0.0
C70 C 0.94815 0.82956 0.89142 0.0
O71 O 0.96665 0.84278 0.90848 0.0
O72 O 0.9947 0.76925 0.87241 0.0
C73 C 0.98542 0.79399 0.93045 0.0
O74 O 0.95429 0.77298 0.92529 0.0
C75 C 0.06047 0.87156 0.88069 0.0
O76 O 0.06396 0.86551 0.90072 0.0
O77 O 0.9551 0.81247 0.87875 0.0
C78 C 0.90623 0.58154 0.46015 0.0
O79 O 0.90774 0.56262 0.44504 0.0
O80 O 0.84365 0.49467 0.46177 0.0
Zn81 Zn 0.84004 0.53458 0.45335 0.0
O82 O 0.84308 0.54017 0.42136 0.0
C83 C 0.7704 0.50581 0.45138 0.0
O84 O 0.77634 0.49466 0.43358 0.0
O85 O 0.8778 0.57503 0.46698 0.0
C86 C 0.83183 0.55689 0.41223 0.0
O87 O 0.81981 0.57192 0.42398 0.0
C88 C 0.83992 0.47221 0.44858 0.0
O89 O 0.83483 0.47551 0.42831 0.0
O90 O 0.79469 0.52498 0.46337 0.0
C91 C 0.42135 0.30558 0.47392 0.0
O92 O 0.42422 0.31279 0.45346 0.0
O93 O 0.52029 0.33928 0.47214 0.0
Zn94 Zn 0.47727 0.2975 0.46457 0.0
O95 O 0.46899 0.29937 0.43319 0.0
C96 C 0.50506 0.26026 0.48282 0.0
O97 O 0.52161 0.28766 0.49415 0.0
O98 O 0.44063 0.2967 0.48224 0.0
C99 C 0.49122 0.30383 0.41959 0.0
O100 O 0.51881 0.30542 0.42621 0.0
C101 C 0.53145 0.36617 0.46157 0.0
O102 O 0.51411 0.36772 0.44552 0.0
O103 O 0.48298 0.25781 0.46978 0.0
C104 C 0.70109 0.11329 0.46397 0.0
O105 O 0.68746 0.1083 0.44495 0.0
O106 O 0.66963 0.17918 0.46742 0.0
Zn107 Zn 0.70923 0.17723 0.45622 0.0
O108 O 0.7013 0.16592 0.42504 0.0
C109 C 0.75841 0.23879 0.47632 0.0
O110 O 0.74411 0.22316 0.49414 0.0
O111 O 0.7138 0.14213 0.47232 0.0
C112 C 0.69321 0.18264 0.41296 0.0
O113 O 0.69127 0.20776 0.42105 0.0
C114 C 0.64002 0.15725 0.46244 0.0
O115 O 0.63507 0.13179 0.45055 0.0
O116 O 0.74885 0.2232 0.45869 0.0
C117 C 0.90562 0.55479 0.21694 0.0
O118 O 0.90642 0.55071 0.23766 0.0
O119 O 0.79979 0.49563 0.20634 0.0
Zn120 Zn 0.83951 0.49681 0.22009 0.0
O121 O 0.83862 0.50646 0.25153 0.0
C122 C 0.82891 0.43903 0.19743 0.0
O123 O 0.8291 0.45703 0.18119 0.0
O124 O 0.88048 0.53369 0.20629 0.0
C125 C 0.81112 0.49905 0.26046 0.0
O126 O 0.78332 0.48326 0.24949 0.0
C127 C 0.79489 0.52017 0.20777 0.0
O128 O 0.81732 0.54758 0.21734 0.0
O129 O 0.8348 0.45175 0.21604 0.0
C130 C 0.42881 0.33918 0.21633 0.0
O131 O 0.43043 0.31936 0.23063 0.0
O132 O 0.50056 0.32846 0.21221 0.0
Zn133 Zn 0.49656 0.36731 0.22315 0.0
O134 O 0.49012 0.36351 0.25501 0.0
C135 C 0.55607 0.40986 0.19992 0.0
O136 O 0.54394 0.38339 0.18757 0.0
O137 O 0.45576 0.36425 0.2099 0.0
C138 C 0.51193 0.36486 0.26784 0.0
O139 O 0.54064 0.37029 0.26026 0.0
C140 C 0.49365 0.30244 0.22284 0.0
O141 O 0.48245 0.29925 0.24249 0.0
O142 O 0.53904 0.40982 0.21587 0.0
C143 C 0.63547 0.10504 0.18168 0.0
O144 O 0.6458 0.13345 0.17169 0.0
O145 O 0.66786 0.18344 0.20526 0.0
Zn146 Zn 0.62771 0.14135 0.21604 0.0
O147 O 0.6333 0.13594 0.24724 0.0
C148 C 0.58429 0.15844 0.1943 0.0
O149 O 0.60416 0.16214 0.17827 0.0
O150 O 0.62454 0.10187 0.20065 0.0
C151 C 0.63246 0.1555 0.26112 0.0
O152 O 0.62705 0.1794 0.25493 0.0
C153 C 0.69457 0.20063 0.21581 0.0
O154 O 0.69763 0.19052 0.23481 0.0
O155 O 0.58808 0.14728 0.21195 0.0
C156 C 0.5439 0.88532 0.80224 0.0
O157 O 0.5243 0.86027 0.81473 0.0
O158 O 0.49206 0.80346 0.78504 0.0
Zn159 Zn 0.49522 0.84429 0.77146 0.0
O160 O 0.5008 0.84084 0.73972 0.0
C161 C 0.43427 0.82721 0.79286 0.0
O162 O 0.44564 0.81339 0.80613 0.0
O163 O 0.53552 0.88496 0.78289 0.0
C164 C 0.48789 0.81203 0.73129 0.0
O165 O 0.46995 0.7856 0.74317 0.0
C166 C 0.51436 0.79542 0.78321 0.0
O167 O 0.54198 0.81531 0.77283 0.0
O168 O 0.45223 0.84386 0.77709 0.0
C169 C 0.11028 0.63777 0.81784 0.0
O170 O 0.13976 0.64838 0.82639 0.0
O171 O 0.18602 0.6708 0.79045 0.0
Zn172 Zn 0.14292 0.63119 0.78086 0.0
O173 O 0.13605 0.64116 0.75073 0.0
C174 C 0.14091 0.57115 0.7977 0.0
O175 O 0.12361 0.57323 0.81365 0.0
O176 O 0.10516 0.62704 0.79875 0.0
C177 C 0.13852 0.62709 0.73397 0.0
O178 O 0.14442 0.60233 0.73571 0.0
C179 C 0.19381 0.70029 0.78519 0.0
O180 O 0.1724 0.70504 0.77431 0.0
O181 O 0.14945 0.59165 0.7823 0.0
C182 C 0.35454 0.4504 0.80777 0.0
O183 O 0.3584 0.47408 0.82103 0.0
O184 O 0.31225 0.49644 0.78358 0.0
Zn185 Zn 0.3533 0.49444 0.77571 0.0
O186 O 0.35212 0.49154 0.74376 0.0
C187 C 0.39218 0.55656 0.79804 0.0
O188 O 0.36353 0.5469 0.80759 0.0
O189 O 0.35232 0.45413 0.78787 0.0
C190 C 0.35688 0.51727 0.73364 0.0
O191 O 0.36407 0.54441 0.74441 0.0
C192 C 0.28793 0.47741 0.7956 0.0
O193 O 0.28778 0.4523 0.80534 0.0
O194 O 0.39436 0.53725 0.78453 0.0
C195 C 0.59481 0.90253 0.53672 0.0
O196 O 0.59351 0.89617 0.55725 0.0
O197 O 0.4897 0.85488 0.52922 0.0
Zn198 Zn 0.52707 0.84683 0.53696 0.0
O199 O 0.52857 0.84376 0.56908 0.0
C200 C 0.48288 0.78069 0.5297 0.0
O201 O 0.4669 0.79093 0.54206 0.0
O202 O 0.56999 0.88378 0.52497 0.0
C203 C 0.5338 0.82197 0.57758 0.0
O204 O 0.54018 0.80291 0.56526 0.0
C205 C 0.47672 0.86677 0.54174 0.0
O206 O 0.49097 0.87925 0.56023 0.0
O207 O 0.51288 0.80137 0.52452 0.0
C208 C 0.12124 0.69898 0.53048 0.0
O209 O 0.13119 0.71779 0.54766 0.0
O210 O 0.18068 0.64777 0.53038 0.0
Zn211 Zn 0.17439 0.68526 0.54089 0.0
O212 O 0.16259 0.67699 0.5721 0.0
C213 C 0.23897 0.73365 0.52407 0.0
O214 O 0.23253 0.70981 0.51025 0.0
O215 O 0.13664 0.68415 0.52455 0.0
C216 C 0.1685 0.70057 0.58493 0.0
O217 O 0.18241 0.73126 0.5777 0.0
C218 C 0.15808 0.61791 0.53424 0.0
O219 O 0.13117 0.61254 0.54458 0.0
O220 O 0.21716 0.72912 0.53801 0.0
C221 C 0.32602 0.42636 0.54034 0.0
O222 O 0.33802 0.44313 0.55816 0.0
O223 O 0.33914 0.51615 0.52148 0.0
Zn224 Zn 0.30383 0.47354 0.53517 0.0
O225 O 0.31034 0.48407 0.56656 0.0
C226 C 0.25521 0.47919 0.51012 0.0
O227 O 0.27947 0.49138 0.496 0.0
O228 O 0.31022 0.43477 0.5276 0.0
C229 C 0.2967 0.4651 0.5825 0.0
O230 O 0.27514 0.43333 0.57946 0.0
C231 C 0.33601 0.54108 0.52627 0.0
O232 O 0.31068 0.53625 0.53826 0.0
O233 O 0.25868 0.46659 0.52725 0.0
H234 H 0.36867 0.28387 0.22432 0.0
H235 H 0.41552 0.37505 0.18702 0.0
H236 H 0.36134 0.35823 0.16984 0.0
H237 H 0.31952 0.23211 0.18335 0.0
H238 H 0.28435 0.2058 0.2001 0.0
H239 H 0.32562 0.2271 0.21124 0.0
H240 H 0.3064 0.25431 0.23988 0.0
H241 H 0.26497 0.23308 0.22879 0.0
H242 H 0.2871 0.27782 0.2316 0.0
H243 H 0.30334 0.32861 0.15429 0.0
H244 H 0.24704 0.2883 0.14102 0.0
H245 H 0.23885 0.21692 0.18883 0.0
C246 C 0.36751 0.30069 0.21285 0.0
C247 C 0.39628 0.33086 0.20708 0.0
C248 C 0.39373 0.35187 0.19174 0.0
C249 C 0.36306 0.34258 0.18197 0.0
C250 C 0.33527 0.31234 0.18782 0.0
C251 C 0.33726 0.29178 0.20295 0.0
C252 C 0.30459 0.25937 0.20519 0.0
C253 C 0.30878 0.22934 0.19963 0.0
C254 C 0.2899 0.25597 0.2277 0.0
C255 C 0.28401 0.2645 0.18859 0.0
C256 C 0.30198 0.29532 0.17888 0.0
C257 C 0.28888 0.30463 0.162 0.0
C258 C 0.25689 0.28155 0.15457 0.0
C259 C 0.23847 0.24952 0.16397 0.0
C260 C 0.25203 0.24135 0.18152 0.0
H261 H 0.73323 0.0505 0.10441 0.0
H262 H 0.72047 0.97671 0.15172 0.0
H263 H 0.68077 0.98776 0.17145 0.0
H264 H 0.73636 0.10852 0.13985 0.0
H265 H 0.71456 0.12282 0.12309 0.0
H266 H 0.73751 0.10524 0.11118 0.0
H267 H 0.68431 0.06178 0.09116 0.0
H268 H 0.66111 0.07924 0.1031 0.0
H269 H 0.64684 0.03546 0.10609 0.0
H270 H 0.64758 0.01156 0.18793 0.0
H271 H 0.62634 0.04776 0.20071 0.0
H272 H 0.66167 0.10598 0.14244 0.0
C273 C 0.72161 0.0361 0.11868 0.0
C274 C 0.72984 0.01266 0.1265 0.0
C275 C 0.71441 0.99471 0.1454 0.0
C276 C 0.69171 0.0007 0.15664 0.0
C277 C 0.68462 0.02448 0.14863 0.0
C278 C 0.69911 0.04182 0.13004 0.0
C279 C 0.69012 0.06839 0.12585 0.0
C280 C 0.7215 0.10328 0.12496 0.0
C281 C 0.66935 0.06074 0.10533 0.0
C282 C 0.66934 0.06426 0.14545 0.0
C283 C 0.66585 0.0384 0.15821 0.0
C284 C 0.64972 0.03153 0.17792 0.0
C285 C 0.63773 0.05225 0.18503 0.0
C286 C 0.64235 0.07972 0.17255 0.0
C287 C 0.65747 0.08504 0.15226 0.0
H288 H 0.90875 0.57176 0.17492 0.0
H289 H 0.95658 0.61019 0.23619 0.0
H290 H 0.98939 0.66638 0.22049 0.0
H291 H 0.9822 0.62992 0.14035 0.0
H292 H 0.95492 0.63304 0.12123 0.0
H293 H 0.94091 0.59496 0.13603 0.0
H294 H 0.88957 0.59804 0.14918 0.0
H295 H 0.90353 0.63619 0.13473 0.0
H296 H 0.89583 0.63484 0.16306 0.0
H297 H 0.0088 0.71957 0.20007 0.0
H298 H 0.01477 0.76468 0.17626 0.0
H299 H 0.95423 0.69108 0.12847 0.0
C300 C 0.92695 0.59172 0.18488 0.0
C301 C 0.9301 0.58657 0.20677 0.0
C302 C 0.95386 0.61348 0.21933 0.0
C303 C 0.97266 0.64551 0.21054 0.0
C304 C 0.96772 0.65004 0.18912 0.0
C305 C 0.94581 0.62372 0.17637 0.0
C306 C 0.94212 0.63559 0.1546 0.0
C307 C 0.95587 0.62261 0.13701 0.0
C308 C 0.90562 0.62558 0.15016 0.0
C309 C 0.96391 0.67284 0.15748 0.0
C310 C 0.97898 0.68073 0.17733 0.0
C311 C 0.99777 0.71368 0.18429 0.0
C312 C 0.00088 0.73913 0.17071 0.0
C313 C 0.98504 0.7314 0.15049 0.0
C314 C 0.96698 0.69785 0.14371 0.0
H315 H 0.33512 0.42536 0.84807 0.0
H316 H 0.35755 0.40138 0.78542 0.0
H317 H 0.33859 0.34395 0.79741 0.0
H318 H 0.3554 0.36916 0.87991 0.0
H319 H 0.32099 0.35819 0.89785 0.0
H320 H 0.34235 0.39894 0.88573 0.0
H321 H 0.28619 0.38936 0.87076 0.0
H322 H 0.26474 0.34863 0.88266 0.0
H323 H 0.26108 0.35324 0.85436 0.0
H324 H 0.30983 0.28762 0.81428 0.0
H325 H 0.27299 0.23656 0.83468 0.0
H326 H 0.26866 0.29711 0.88618 0.0
C327 C 0.33712 0.40835 0.83712 0.0
C328 C 0.34803 0.41783 0.81588 0.0
C329 C 0.34938 0.39461 0.8018 0.0
C330 C 0.33881 0.36199 0.80849 0.0
C331 C 0.32709 0.35306 0.82933 0.0
C332 C 0.32638 0.37562 0.84349 0.0
C333 C 0.30901 0.35879 0.86411 0.0
C334 C 0.3334 0.37206 0.88302 0.0
C335 C 0.27845 0.36273 0.86819 0.0
C336 C 0.29885 0.32304 0.85897 0.0
C337 C 0.31004 0.32032 0.83901 0.0
C338 C 0.30145 0.28947 0.83011 0.0
C339 C 0.28042 0.2606 0.84178 0.0
C340 C 0.26802 0.26285 0.86204 0.0
C341 C 0.27802 0.29455 0.87085 0.0
H342 H 0.70729 0.94451 0.87039 0.0
H343 H 0.76093 0.0201 0.82214 0.0
H344 H 0.70747 0.00569 0.80488 0.0
H345 H 0.64905 0.88443 0.8363 0.0
H346 H 0.61481 0.86899 0.85493 0.0
H347 H 0.65685 0.8879 0.86467 0.0
H348 H 0.64787 0.93005 0.8868 0.0
H349 H 0.60572 0.91127 0.87704 0.0
H350 H 0.63394 0.95533 0.87359 0.0
H351 H 0.64868 0.97906 0.79096 0.0
H352 H 0.58964 0.94191 0.78123 0.0
H353 H 0.57493 0.8847 0.83912 0.0
C354 C 0.70784 0.95841 0.85637 0.0
C355 C 0.73826 0.98343 0.8476 0.0
C356 C 0.73788 0.00087 0.82916 0.0
C357 C 0.70765 0.99295 0.81929 0.0
C358 C 0.6781 0.96781 0.82822 0.0
C359 C 0.678 0.95093 0.84642 0.0
C360 C 0.64319 0.92348 0.85206 0.0
C361 C 0.64086 0.88919 0.85197 0.0
C362 C 0.63203 0.93047 0.87365 0.0
C363 C 0.6238 0.92677 0.83379 0.0
C364 C 0.64426 0.95272 0.82034 0.0
C365 C 0.63232 0.959 0.80155 0.0
C366 C 0.59877 0.93775 0.79615 0.0
C367 C 0.57764 0.91051 0.80948 0.0
C368 C 0.59026 0.90558 0.82876 0.0
H369 H 0.11939 0.67398 0.85421 0.0
H370 H 0.04669 0.6183 0.80487 0.0
H371 H 0.01054 0.63891 0.81868 0.0
H372 H 0.05833 0.66647 0.89681 0.0
H373 H 0.08619 0.70844 0.90583 0.0
H374 H 0.10279 0.6838 0.89493 0.0
H375 H 0.13673 0.73038 0.86732 0.0
H376 H 0.11999 0.75492 0.87788 0.0
H377 H 0.11529 0.74428 0.84989 0.0
H378 H 0.98712 0.67294 0.83385 0.0
H379 H 0.97766 0.71621 0.84991 0.0
H380 H 0.06598 0.74962 0.88904 0.0
C381 C 0.09533 0.66511 0.84678 0.0
C382 C 0.08582 0.64445 0.82852 0.0
C383 C 0.05444 0.63403 0.81895 0.0
C384 C 0.03369 0.64555 0.82671 0.0
C385 C 0.04454 0.66719 0.84415 0.0
C386 C 0.07447 0.67652 0.85424 0.0
C387 C 0.0823 0.70294 0.87104 0.0
C388 C 0.08239 0.6896 0.89348 0.0
C389 C 0.11553 0.73501 0.86622 0.0
C390 C 0.05294 0.70815 0.86813 0.0
C391 C 0.03111 0.68695 0.85282 0.0
C392 C 0.00364 0.68918 0.84619 0.0
C393 C 0.99856 0.71392 0.85532 0.0
C394 C 0.02103 0.73622 0.87076 0.0
C395 C 0.04815 0.73276 0.87744 0.0
H396 H 0.96934 0.59376 0.45324 0.0
H397 H 0.91287 0.62749 0.49043 0.0
H398 H 0.9643 0.66722 0.50965 0.0
H399 H 0.01663 0.5922 0.49497 0.0
H400 H 0.05421 0.60584 0.47964 0.0
H401 H 0.01435 0.58416 0.46663 0.0
H402 H 0.03304 0.63327 0.4401 0.0
H403 H 0.07311 0.65514 0.45303 0.0
H404 H 0.04837 0.67486 0.45026 0.0
H405 H 0.02068 0.69879 0.52732 0.0
H406 H 0.07636 0.71786 0.54276 0.0
H407 H 0.0949 0.66226 0.49416 0.0
C408 C 0.96785 0.61004 0.46506 0.0
C409 C 0.93715 0.60768 0.47026 0.0
C410 C 0.93619 0.62899 0.48613 0.0
C411 C 0.96528 0.65171 0.49706 0.0
C412 C 0.99505 0.65284 0.49185 0.0
C413 C 0.99649 0.63259 0.47617 0.0
C414 C 0.03064 0.63612 0.47495 0.0
C415 C 0.02882 0.6026 0.47932 0.0
C416 C 0.04727 0.65073 0.4533 0.0
C417 C 0.04795 0.66071 0.49288 0.0
C418 C 0.02727 0.67055 0.50221 0.0
C419 C 0.03724 0.69161 0.51995 0.0
C420 C 0.06891 0.7023 0.52861 0.0
C421 C 0.08999 0.69156 0.51966 0.0
C422 C 0.0795 0.6711 0.50129 0.0
H423 H 0.32585 0.40187 0.50047 0.0
H424 H 0.34352 0.39177 0.56735 0.0
H425 H 0.36163 0.35179 0.55764 0.0
H426 H 0.29952 0.31418 0.48374 0.0
H427 H 0.32117 0.32811 0.45859 0.0
H428 H 0.30356 0.35085 0.47103 0.0
H429 H 0.36129 0.40493 0.46971 0.0
H430 H 0.37901 0.38242 0.45734 0.0
H431 H 0.39671 0.40526 0.48173 0.0
H432 H 0.38468 0.31915 0.54059 0.0
H433 H 0.41331 0.29837 0.51738 0.0
H434 H 0.38175 0.33052 0.46148 0.0
C435 C 0.33254 0.39042 0.5131 0.0
C436 C 0.33305 0.39965 0.53466 0.0
C437 C 0.34288 0.38493 0.55073 0.0
C438 C 0.35299 0.36204 0.54538 0.0
C439 C 0.35309 0.35411 0.52391 0.0
C440 C 0.34307 0.36781 0.50801 0.0
C441 C 0.3494 0.3584 0.48604 0.0
C442 C 0.31644 0.33658 0.47415 0.0
C443 C 0.37301 0.3896 0.47295 0.0
C444 C 0.36586 0.33852 0.49208 0.0
C445 C 0.36707 0.33569 0.51399 0.0
C446 C 0.3834 0.32069 0.5234 0.0
C447 C 0.39964 0.30901 0.51007 0.0
C448 C 0.39975 0.31279 0.48761 0.0
C449 C 0.38183 0.32692 0.47857 0.0
H450 H 0.66608 0.04772 0.45272 0.0
H451 H 0.7264 0.11395 0.50378 0.0
H452 H 0.71295 0.06509 0.52635 0.0
H453 H 0.60178 0.99444 0.48406 0.0
H454 H 0.59188 0.95692 0.46963 0.0
H455 H 0.61186 0.99633 0.45606 0.0
H456 H 0.65994 0.98668 0.44435 0.0
H457 H 0.63996 0.94701 0.45787 0.0
H458 H 0.68241 0.97776 0.46423 0.0
H459 H 0.68608 0.00971 0.54504 0.0
H460 H 0.64687 0.95328 0.55857 0.0
H461 H 0.60357 0.9238 0.49528 0.0
C462 C 0.67737 0.05203 0.46839 0.0
C463 C 0.69744 0.08464 0.47645 0.0
C464 C 0.7111 0.08916 0.49723 0.0
C465 C 0.70372 0.06155 0.51012 0.0
C466 C 0.68286 0.02968 0.50192 0.0
C467 C 0.67005 0.02484 0.48146 0.0
C468 C 0.64495 0.98854 0.47729 0.0
C469 C 0.61061 0.98381 0.47143 0.0
C470 C 0.65759 0.97415 0.4599 0.0
C471 C 0.64438 0.97388 0.49893 0.0
C472 C 0.66695 0.9978 0.5128 0.0
C473 C 0.66877 0.99064 0.53421 0.0
C474 C 0.64635 0.95851 0.54176 0.0
C475 C 0.62215 0.93411 0.52798 0.0
C476 C 0.62197 0.94177 0.50617 0.0
H477 H 0.0414 0.12215 0.14973 0.0
H478 H 0.07603 0.20393 0.10466 0.0
H479 H 0.01762 0.18679 0.09607 0.0
H480 H 0.97842 0.06387 0.11801 0.0
H481 H 0.94936 0.04247 0.13941 0.0
H482 H 0.99339 0.0643 0.14464 0.0
H483 H 0.98563 0.09911 0.17414 0.0
H484 H 0.94142 0.0772 0.16908 0.0
H485 H 0.96496 0.12208 0.16779 0.0
H486 H 0.95581 0.15715 0.0896 0.0
H487 H 0.89584 0.11678 0.08508 0.0
H488 H 0.90208 0.05364 0.13377 0.0
C489 C 0.03675 0.13707 0.13851 0.0
C490 C 0.06326 0.16458 0.12801 0.0
C491 C 0.05609 0.1829 0.113 0.0
C492 C 0.023 0.1734 0.10806 0.0
C493 C 0.99743 0.14557 0.1183 0.0
C494 C 0.00395 0.12773 0.13326 0.0
C495 C 0.97228 0.09689 0.14039 0.0
C496 C 0.97345 0.06502 0.1353 0.0
C497 C 0.96569 0.09896 0.16427 0.0
C498 C 0.94701 0.09958 0.12662 0.0
C499 C 0.96189 0.1281 0.11425 0.0
C500 C 0.94381 0.13497 0.09941 0.0
C501 C 0.90975 0.11185 0.09694 0.0
C502 C 0.89422 0.08205 0.10909 0.0
C503 C 0.91311 0.07627 0.12435 0.0
H504 H 0.82845 0.91244 0.09666 0.0
H505 H 0.80642 0.9035 0.16457 0.0
H506 H 0.83209 0.86833 0.16862 0.0
H507 H 0.81814 0.82798 0.08863 0.0
H508 H 0.85259 0.84411 0.07013 0.0
H509 H 0.82722 0.86328 0.07203 0.0
H510 H 0.88007 0.92041 0.0795 0.0
H511 H 0.90551 0.90146 0.07777 0.0
H512 H 0.90686 0.92427 0.10146 0.0
H513 H 0.86667 0.84045 0.16595 0.0
H514 H 0.90774 0.82329 0.15695 0.0
H515 H 0.90765 0.85178 0.09094 0.0
C516 C 0.82807 0.90229 0.1123 0.0
C517 C 0.81522 0.91055 0.13029 0.0
C518 C 0.81593 0.89734 0.15054 0.0
C519 C 0.83039 0.87727 0.15298 0.0
C520 C 0.84384 0.87053 0.135 0.0
C521 C 0.84258 0.88252 0.11502 0.0
C522 C 0.86189 0.87492 0.09867 0.0
C523 C 0.83856 0.85115 0.08134 0.0
C524 C 0.89026 0.90718 0.08879 0.0
C525 C 0.87529 0.85788 0.1127 0.0
C526 C 0.86415 0.85499 0.13352 0.0
C527 C 0.87511 0.84209 0.14963 0.0
C528 C 0.89847 0.83244 0.14437 0.0
C529 C 0.91087 0.83615 0.12323 0.0
C530 C 0.89849 0.84838 0.1072 0.0
H531 H 0.12155 0.06259 0.09632 0.0
H532 H 0.1424 0.10336 0.16061 0.0
H533 H 0.12216 0.04686 0.17517 0.0
H534 H 0.04674 0.99025 0.10803 0.0
H535 H 0.0533 0.96387 0.08988 0.0
H536 H 0.07236 0.00779 0.08459 0.0
H537 H 0.13047 0.01269 0.08302 0.0
H538 H 0.11153 0.96869 0.08831 0.0
H539 H 0.14449 0.99839 0.1053 0.0
H540 H 0.0943 0.98493 0.18272 0.0
H541 H 0.06229 0.92323 0.1825 0.0
H542 H 0.06164 0.92415 0.11313 0.0
C543 C 0.12235 0.05977 0.11345 0.0
C544 C 0.13357 0.08737 0.12733 0.0
C545 C 0.13404 0.08257 0.14966 0.0
C546 C 0.12262 0.05059 0.15807 0.0
C547 C 0.11122 0.02381 0.14392 0.0
C548 C 0.11129 0.02817 0.12207 0.0
C549 C 0.09623 0.99527 0.11031 0.0
C550 C 0.06533 0.98894 0.09746 0.0
C551 C 0.12224 0.99368 0.09589 0.0
C552 C 0.08685 0.97157 0.12897 0.0
C553 C 0.09582 0.98842 0.14825 0.0
C554 C 0.08763 0.97151 0.16771 0.0
C555 C 0.06942 0.93648 0.16743 0.0
C556 C 0.05968 0.91885 0.14781 0.0
C557 C 0.06912 0.9368 0.12841 0.0
H558 H 0.10903 0.92695 0.90093 0.0
H559 H 0.06467 0.88985 0.83865 0.0
H560 H 0.0993 0.94624 0.82354 0.0
H561 H 0.10648 0.99883 0.89874 0.0
H562 H 0.14521 0.02473 0.91253 0.0
H563 H 0.12228 0.98063 0.91743 0.0
H564 H 0.17414 0.97638 0.90719 0.0
H565 H 0.19734 0.02066 0.90229 0.0
H566 H 0.194 0.99195 0.88167 0.0
H567 H 0.13218 0.00765 0.8165 0.0
H568 H 0.15903 0.06894 0.81838 0.0
H569 H 0.18146 0.0659 0.88537 0.0
C570 C 0.10737 0.93042 0.88396 0.0
C571 C 0.08434 0.90396 0.87093 0.0
C572 C 0.08228 0.90974 0.84891 0.0
C573 C 0.10198 0.94165 0.84016 0.0
C574 C 0.12371 0.96746 0.85361 0.0
C575 C 0.12663 0.96213 0.87504 0.0
C576 C 0.14862 0.9946 0.88665 0.0
C577 C 0.12949 -0.0 0.9049 0.0
C578 C 0.18042 0.99597 0.89493 0.0
C579 C 0.15642 0.01915 0.86864 0.0
C580 C 0.14242 0.00302 0.8496 0.0
C581 C 0.1438 0.02056 0.8312 0.0
C582 C 0.15908 0.05539 0.83244 0.0
C583 C 0.17244 0.07226 0.85201 0.0
C584 C 0.17191 0.05384 0.8701 0.0
H585 H 0.09454 0.12472 0.84644 0.0
H586 H 0.1066 0.21454 0.87644 0.0
H587 H 0.0479 0.19649 0.86822 0.0
H588 H 0.03445 0.11755 0.80409 0.0
H589 H 0.01142 0.07274 0.8062 0.0
H590 H 0.05565 0.0954 0.81124 0.0
H591 H 0.04556 0.06775 0.84855 0.0
H592 H 0.00146 0.04511 0.84366 0.0
H593 H 0.0176 0.07127 0.867 0.0
H594 H 0.98615 0.16473 0.86165 0.0
H595 H 0.92678 0.122 0.85737 0.0
H596 H 0.95561 0.05359 0.83108 0.0
C597 C 0.08513 0.14105 0.85082 0.0
C598 C 0.10518 0.17107 0.86206 0.0
C599 C 0.09176 0.19149 0.86773 0.0
C600 C 0.05846 0.1815 0.86307 0.0
C601 C 0.0391 0.15126 0.85248 0.0
C602 C 0.05208 0.1315 0.84626 0.0
C603 C 0.02542 0.09869 0.83698 0.0
C604 C 0.03214 0.09595 0.81321 0.0
C605 C 0.02233 0.06898 0.84982 0.0
C606 C 0.9951 0.1024 0.83985 0.0
C607 C 0.00353 0.13309 0.8485 0.0
C608 C 0.97932 0.14091 0.85446 0.0
C609 C 0.94566 0.11645 0.852 0.0
C610 C 0.93656 0.08454 0.84375 0.0
C611 C 0.96171 0.07793 0.83704 0.0
H612 H 0.91892 0.85425 0.91775 0.0
H613 H 0.92223 0.82743 0.85172 0.0
H614 H 0.88834 0.85246 0.84116 0.0
H615 H 0.83241 0.84149 0.91566 0.0
H616 H 0.84378 0.87639 0.93327 0.0
H617 H 0.86378 0.85187 0.93586 0.0
H618 H 0.92147 0.90546 0.93178 0.0
H619 H 0.90171 0.93002 0.92898 0.0
H620 H 0.92975 0.93138 0.90852 0.0
H621 H 0.86281 0.88902 0.8372 0.0
H622 H 0.84351 0.92976 0.84065 0.0
H623 H 0.85454 0.92986 0.90949 0.0
C624 C 0.91174 0.85283 0.90115 0.0
C625 C 0.92316 0.83893 0.88555 0.0
C626 C 0.91348 0.83772 0.86396 0.0
C627 C 0.89429 0.85193 0.85782 0.0
C628 C 0.88444 0.86656 0.87353 0.0
C629 C 0.89228 0.86646 0.89483 0.0
C630 C 0.88071 0.8857 0.90842 0.0
C631 C 0.85355 0.86247 0.92423 0.0
C632 C 0.91017 0.91486 0.92009 0.0
C633 C 0.86656 0.89801 0.89132 0.0
C634 C 0.8687 0.88658 0.8713 0.0
C635 C 0.86021 0.89742 0.85285 0.0
C636 C 0.84944 0.92066 0.85494 0.0
C637 C 0.84715 0.93262 0.87534 0.0
C638 C 0.8553 0.92061 0.89371 0.0
H639 H 0.71694 0.48568 0.42532 0.0
H640 H 0.74554 0.49702 0.49207 0.0
H641 H 0.68601 0.46762 0.50255 0.0
H642 H 0.64191 0.4951 0.43321 0.0
H643 H 0.61914 0.46483 0.41265 0.0
H644 H 0.66381 0.49068 0.41078 0.0
H645 H 0.66894 0.43776 0.40753 0.0
H646 H 0.62446 0.41183 0.40954 0.0
H647 H 0.65099 0.40622 0.42799 0.0
H648 H 0.62411 0.42796 0.50507 0.0
H649 H 0.56439 0.38648 0.49966 0.0
H650 H 0.57624 0.40528 0.43149 0.0
C651 C 0.71064 0.48271 0.44216 0.0
C652 C 0.73564 0.4935 0.45792 0.0
C653 C 0.72664 0.48915 0.47979 0.0
C654 C 0.69294 0.47244 0.48586 0.0
C655 C 0.66878 0.46112 0.46985 0.0
C656 C 0.67726 0.46675 0.44846 0.0
C657 C 0.64673 0.45048 0.4343 0.0
C658 C 0.64266 0.47685 0.42202 0.0
C659 C 0.64786 0.42507 0.41895 0.0
C660 C 0.61979 0.43344 0.45101 0.0
C661 C 0.63294 0.43987 0.47144 0.0
C662 C 0.61337 0.42358 0.48924 0.0
C663 C 0.57959 0.40001 0.48603 0.0
C664 C 0.56578 0.3934 0.46524 0.0
C665 C 0.58601 0.41078 0.44762 0.0
H666 H 0.56264 0.2671 0.4991 0.0
H667 H 0.47275 0.19771 0.46499 0.0
H668 H 0.49494 0.15962 0.4602 0.0
H669 H 0.61684 0.25997 0.46538 0.0
H670 H 0.64596 0.26345 0.48564 0.0
H671 H 0.62067 0.28216 0.48987 0.0
H672 H 0.59792 0.24898 0.52512 0.0
H673 H 0.62338 0.23026 0.52107 0.0
H674 H 0.57904 0.20423 0.52482 0.0
H675 H 0.5298 0.1326 0.45531 0.0
H676 H 0.57474 0.11958 0.44996 0.0
H677 H 0.64222 0.20764 0.48649 0.0
C678 C 0.54712 0.24342 0.49122 0.0
C679 C 0.51582 0.23521 0.4826 0.0
C680 C 0.49671 0.20439 0.47186 0.0
C681 C 0.50907 0.18256 0.46912 0.0
C682 C 0.54053 0.19193 0.47724 0.0
C683 C 0.55923 0.2216 0.48815 0.0
C684 C 0.59371 0.22768 0.49323 0.0
C685 C 0.62088 0.26022 0.48291 0.0
C686 C 0.5988 0.22778 0.51751 0.0
C687 C 0.59192 0.19738 0.48284 0.0
C688 C 0.56088 0.17673 0.47403 0.0
C689 C 0.55404 0.14832 0.46242 0.0
C690 C 0.57975 0.14116 0.45945 0.0
C691 C 0.61199 0.16255 0.46784 0.0
C692 C 0.61779 0.19063 0.48002 0.0
H693 H 0.82546 0.41651 0.4253 0.0
H694 H 0.84797 0.45701 0.48965 0.0
H695 H 0.83714 0.40261 0.5033 0.0
H696 H 0.75815 0.34093 0.43858 0.0
H697 H 0.76605 0.31657 0.4195 0.0
H698 H 0.78088 0.35988 0.41435 0.0
H699 H 0.84108 0.37072 0.41006 0.0
H700 H 0.82636 0.32728 0.41518 0.0
H701 H 0.85938 0.35894 0.43121 0.0
H702 H 0.81594 0.34204 0.51059 0.0
H703 H 0.78649 0.28044 0.51075 0.0
H704 H 0.77907 0.28 0.4416 0.0
C705 C 0.82899 0.41424 0.44219 0.0
C706 C 0.83764 0.44105 0.45639 0.0
C707 C 0.84146 0.43685 0.47843 0.0
C708 C 0.83548 0.40607 0.48634 0.0
C709 C 0.82606 0.37984 0.47198 0.0
C710 C 0.82314 0.38372 0.45033 0.0
C711 C 0.80967 0.35094 0.43854 0.0
C712 C 0.77674 0.34154 0.42709 0.0
C713 C 0.83568 0.35205 0.42282 0.0
C714 C 0.80416 0.32778 0.45704 0.0
C715 C 0.81417 0.34493 0.47618 0.0
C716 C 0.80866 0.3284 0.49566 0.0
C717 C 0.79185 0.29341 0.49561 0.0
C718 C 0.7807 0.2754 0.47619 0.0
C719 C 0.78781 0.293 0.45669 0.0
H720 H 0.74105 0.25336 0.23911 0.0
H721 H 0.70456 0.22272 0.1745 0.0
H722 H 0.74265 0.28 0.16174 0.0
H723 H 0.74171 0.3273 0.23736 0.0
H724 H 0.77861 0.35091 0.25335 0.0
H725 H 0.75369 0.30652 0.25669 0.0
H726 H 0.80541 0.30062 0.24926 0.0
H727 H 0.8306 0.34515 0.24594 0.0
H728 H 0.82899 0.31761 0.22502 0.0
H729 H 0.77898 0.3415 0.15683 0.0
H730 H 0.80836 0.40273 0.16037 0.0
H731 H 0.81997 0.3936 0.22842 0.0
C732 C 0.74188 0.25846 0.22217 0.0
C733 C 0.72018 0.23359 0.20774 0.0
C734 C 0.72117 0.24143 0.1858 0.0
C735 C 0.74284 0.27383 0.17839 0.0
C736 C 0.76331 0.29806 0.19314 0.0
C737 C 0.76303 0.29076 0.21459 0.0
C738 C 0.78424 0.32201 0.22756 0.0
C739 C 0.7633 0.32697 0.24474 0.0
C740 C 0.81409 0.3213 0.23753 0.0
C741 C 0.79541 0.34816 0.2102 0.0
C742 C 0.7837 0.3338 0.1904 0.0
C743 C 0.78874 0.35303 0.17219 0.0
C744 C 0.80544 0.38782 0.17437 0.0
C745 C 0.81652 0.40299 0.19467 0.0
C746 C 0.81215 0.38281 0.21265 0.0
H747 H 0.7459 0.46992 0.18416 0.0
H748 H 0.76827 0.55826 0.22076 0.0
H749 H 0.70948 0.54381 0.21793 0.0
H750 H 0.68004 0.4703 0.14892 0.0
H751 H 0.65565 0.42541 0.14935 0.0
H752 H 0.70047 0.4461 0.15083 0.0
H753 H 0.69583 0.4143 0.18584 0.0
H754 H 0.65119 0.39377 0.18459 0.0
H755 H 0.6727 0.4173 0.20807 0.0
H756 H 0.64693 0.51398 0.21728 0.0
H757 H 0.58648 0.47307 0.21675 0.0
H758 H 0.60539 0.40575 0.1791 0.0
C759 C 0.73866 0.4868 0.19099 0.0
C760 C 0.76164 0.51522 0.20265 0.0
C761 C 0.75116 0.5365 0.21158 0.0
C762 C 0.71779 0.52849 0.21006 0.0
C763 C 0.69542 0.49951 0.19918 0.0
C764 C 0.70559 0.47934 0.18943 0.0
C765 C 0.67629 0.44803 0.18043 0.0
C766 C 0.67823 0.44744 0.15592 0.0
C767 C 0.67387 0.41652 0.19034 0.0
C768 C 0.64787 0.45283 0.18765 0.0
C769 C 0.65936 0.48283 0.19823 0.0
C770 C 0.63763 0.49088 0.20849 0.0
C771 C 0.60337 0.46747 0.20818 0.0
C772 C 0.59124 0.43648 0.19763 0.0
C773 C 0.61381 0.42959 0.1868 0.0
H774 H 0.49921 0.25396 0.24404 0.0
H775 H 0.50465 0.29471 0.18082 0.0
H776 H 0.52075 0.25564 0.16574 0.0
H777 H 0.57038 0.2484 0.23901 0.0
H778 H 0.55505 0.21031 0.25399 0.0
H779 H 0.53886 0.23757 0.25924 0.0
H780 H 0.47888 0.18886 0.25223 0.0
H781 H 0.49497 0.1614 0.2469 0.0
H782 H 0.46941 0.16637 0.2273 0.0
H783 H 0.54211 0.21688 0.15817 0.0
H784 H 0.56984 0.18343 0.15897 0.0
H785 H 0.55114 0.16834 0.22719 0.0
C786 C 0.50293 0.25406 0.22694 0.0
C787 C 0.50039 0.27713 0.21356 0.0
C788 C 0.50633 0.27712 0.19135 0.0
C789 C 0.5153 0.2549 0.18262 0.0
C790 C 0.51818 0.23285 0.19631 0.0
C791 C 0.5122 0.23227 0.218 0.0
C792 C 0.52046 0.2087 0.22955 0.0
C793 C 0.54781 0.22737 0.24643 0.0
C794 C 0.48905 0.1796 0.23959 0.0
C795 C 0.53303 0.19694 0.21107 0.0
C796 C 0.53096 0.21071 0.19197 0.0
C797 C 0.54338 0.20552 0.17296 0.0
C798 C 0.55912 0.1865 0.17358 0.0
C799 C 0.56253 0.17314 0.19311 0.0
C800 C 0.54845 0.17774 0.21194 0.0
H801 H 0.24291 0.69927 0.80869 0.0
H802 H 0.22265 0.76376 0.76916 0.0
H803 H 0.28207 0.80728 0.77087 0.0
H804 H 0.30951 0.76698 0.84216 0.0
H805 H 0.33314 0.74587 0.84298 0.0
H806 H 0.2883 0.72207 0.84139 0.0
H807 H 0.2925 0.69228 0.80743 0.0
H808 H 0.33719 0.71602 0.80885 0.0
H809 H 0.31625 0.7169 0.78485 0.0
H810 H 0.34468 0.83963 0.77189 0.0
H811 H 0.40498 0.85913 0.77371 0.0
H812 H 0.38382 0.77452 0.81377 0.0
C813 C 0.25077 0.72287 0.80084 0.0
C814 C 0.22814 0.72811 0.78879 0.0
C815 C 0.2395 0.75922 0.77859 0.0
C816 C 0.27322 0.78413 0.77948 0.0
C817 C 0.2951 0.77773 0.79094 0.0
C818 C 0.28422 0.74802 0.80171 0.0
C819 C 0.31305 0.74615 0.81142 0.0
C820 C 0.31086 0.74522 0.83594 0.0
C821 C 0.31484 0.71607 0.8026 0.0
C822 C 0.34197 0.7788 0.80364 0.0
C823 C 0.33116 0.79684 0.79202 0.0
C824 C 0.35345 0.82615 0.78141 0.0
C825 C 0.38761 0.83699 0.78247 0.0
C826 C 0.39906 0.81859 0.79411 0.0
C827 C 0.37591 0.78959 0.80519 0.0
H828 H 0.27607 0.51982 0.77224 0.0
H829 H 0.23694 0.4499 0.82506 0.0
H830 H 0.19188 0.46311 0.83 0.0
H831 H 0.26237 0.58127 0.79472 0.0
H832 H 0.25112 0.59232 0.76978 0.0
H833 H 0.27872 0.57571 0.76988 0.0
H834 H 0.23929 0.52883 0.74384 0.0
H835 H 0.21146 0.54527 0.74372 0.0
H836 H 0.19606 0.50235 0.75089 0.0
H837 H 0.1536 0.48772 0.83063 0.0
H838 H 0.12535 0.52059 0.82649 0.0
H839 H 0.18922 0.57214 0.77236 0.0
C840 C 0.25794 0.50704 0.78479 0.0
C841 C 0.26005 0.48388 0.79831 0.0
C842 C 0.23574 0.46769 0.81448 0.0
C843 C 0.21007 0.47502 0.81739 0.0
C844 C 0.20892 0.49824 0.80382 0.0
C845 C 0.23214 0.51379 0.78776 0.0
C846 C 0.22625 0.5385 0.77568 0.0
C847 C 0.2564 0.57404 0.77765 0.0
C848 C 0.21775 0.5281 0.75214 0.0
C849 C 0.19639 0.53496 0.78768 0.0
C850 C 0.18662 0.51162 0.80385 0.0
C851 C 0.16077 0.50571 0.81783 0.0
C852 C 0.14488 0.52448 0.81536 0.0
C853 C 0.15487 0.54873 0.799 0.0
C854 C 0.18058 0.55346 0.78483 0.0
H855 H 0.45997 0.74933 0.80547 0.0
H856 H 0.55044 0.76465 0.77468 0.0
H857 H 0.53241 0.70527 0.78027 0.0
H858 H 0.4518 0.68439 0.84477 0.0
H859 H 0.40707 0.66181 0.84213 0.0
H860 H 0.43 0.70653 0.83928 0.0
H861 H 0.40325 0.70093 0.80209 0.0
H862 H 0.38048 0.65635 0.8047 0.0
H863 H 0.40729 0.67534 0.78194 0.0
H864 H 0.50011 0.64288 0.78344 0.0
H865 H 0.4571 0.58315 0.78503 0.0
H866 H 0.38852 0.60905 0.81455 0.0
C867 C 0.4765 0.74047 0.80046 0.0
C868 C 0.50663 0.76163 0.78966 0.0
C869 C 0.52733 0.74896 0.78311 0.0
C870 C 0.51731 0.71525 0.78625 0.0
C871 C 0.48681 0.69475 0.79624 0.0
C872 C 0.46693 0.70703 0.80352 0.0
C873 C 0.43385 0.67939 0.81181 0.0
C874 C 0.4305 0.68326 0.83594 0.0
C875 C 0.40452 0.67793 0.79938 0.0
C876 C 0.43752 0.64942 0.80709 0.0
C877 C 0.4684 0.65877 0.79839 0.0
C878 C 0.47618 0.63527 0.79073 0.0
C879 C 0.45157 0.60142 0.79163 0.0
C880 C 0.4196 0.59145 0.80011 0.0
C881 C 0.41295 0.6158 0.80843 0.0
H882 H 0.41681 0.73604 0.53235 0.0
H883 H 0.51071 0.74555 0.51236 0.0
H884 H 0.4817 0.6848 0.50488 0.0
H885 H 0.3877 0.66304 0.56034 0.0
H886 H 0.34463 0.64596 0.55294 0.0
H887 H 0.37198 0.69036 0.55365 0.0
H888 H 0.35763 0.69472 0.51422 0.0
H889 H 0.32996 0.65031 0.51353 0.0
H890 H 0.36283 0.66996 0.49401 0.0
H891 H 0.44281 0.6217 0.50374 0.0
H892 H 0.39844 0.563 0.50931 0.0
H893 H 0.33104 0.59673 0.52996 0.0
C894 C 0.43129 0.72554 0.52606 0.0
C895 C 0.466 0.74542 0.52296 0.0
C896 C 0.48402 0.73071 0.51473 0.0
C897 C 0.46774 0.69628 0.51043 0.0
C898 C 0.43349 0.67723 0.5142 0.0
C899 C 0.41552 0.69153 0.52167 0.0
C900 C 0.3796 0.66572 0.52601 0.0
C901 C 0.37048 0.66631 0.54963 0.0
C902 C 0.35613 0.67046 0.51103 0.0
C903 C 0.38029 0.63436 0.52064 0.0
C904 C 0.41137 0.64135 0.51353 0.0
C905 C 0.41828 0.616 0.50898 0.0
C906 C 0.39295 0.58275 0.51218 0.0
C907 C 0.36135 0.57535 0.52009 0.0
C908 C 0.35491 0.60155 0.52385 0.0
H909 H 0.29443 0.74572 0.50145 0.0
H910 H 0.26021 0.78785 0.55046 0.0
H911 H 0.31814 0.83298 0.55638 0.0
H912 H 0.36296 0.75645 0.52834 0.0
H913 H 0.38978 0.76652 0.50536 0.0
H914 H 0.34541 0.74144 0.50221 0.0
H915 H 0.34658 0.78309 0.47421 0.0
H916 H 0.39113 0.80841 0.47727 0.0
H917 H 0.36514 0.82659 0.48108 0.0
H918 H 0.38013 0.86781 0.56106 0.0
H919 H 0.44069 0.88928 0.56384 0.0
H920 H 0.43408 0.8251 0.51126 0.0
C921 C 0.29895 0.765 0.51296 0.0
C922 C 0.27276 0.76333 0.52541 0.0
C923 C 0.27986 0.78869 0.54065 0.0
C924 C 0.31269 0.81451 0.54408 0.0
C925 C 0.3381 0.81482 0.53201 0.0
C926 C 0.33154 0.79086 0.51661 0.0
C927 C 0.36342 0.79463 0.50741 0.0
C928 C 0.3655 0.7629 0.51107 0.0
C929 C 0.36676 0.80373 0.48358 0.0
C930 C 0.3889 0.82353 0.52065 0.0
C931 C 0.3739 0.83519 0.53456 0.0
C932 C 0.39223 0.85945 0.5499 0.0
C933 C 0.42661 0.87148 0.55139 0.0
C934 C 0.44221 0.85915 0.53765 0.0
C935 C 0.42312 0.83563 0.5217 0.0
H936 H 0.2626 0.53642 0.49345 0.0
H937 H 0.19265 0.44694 0.52756 0.0
H938 H 0.15572 0.47041 0.53318 0.0
H939 H 0.25879 0.58991 0.52877 0.0
H940 H 0.26311 0.62078 0.5096 0.0
H941 H 0.27992 0.5942 0.50377 0.0
H942 H 0.24571 0.57456 0.46876 0.0
H943 H 0.22898 0.60142 0.4743 0.0
H944 H 0.20123 0.55754 0.46966 0.0
H945 H 0.13041 0.50648 0.53911 0.0
H946 H 0.11947 0.55249 0.54596 0.0
H947 H 0.20823 0.61975 0.50996 0.0
C948 C 0.23877 0.52113 0.50123 0.0
C949 C 0.22997 0.48953 0.50962 0.0
C950 C 0.19944 0.47094 0.52068 0.0
C951 C 0.17837 0.48408 0.52393 0.0
C952 C 0.18842 0.51594 0.51617 0.0
C953 C 0.21792 0.53419 0.505 0.0
C954 C 0.22549 0.56951 0.50106 0.0
C955 C 0.25878 0.59509 0.51143 0.0
C956 C 0.22533 0.57613 0.47702 0.0
C957 C 0.19617 0.56862 0.51227 0.0
C958 C 0.17471 0.53733 0.5205 0.0
C959 C 0.14679 0.53095 0.53248 0.0
C960 C 0.14083 0.55728 0.53633 0.0
C961 C 0.16299 0.58973 0.5285 0.0
C962 C 0.19073 0.59521 0.51608 0.0
H963 H 0.13761 0.1858 0.03242 0.0
H964 H 0.22682 0.19807 0.06325 0.0
H965 H 0.24987 0.19629 0.02804 0.0
H966 H 0.13161 0.12822 0.9928 0.0
H967 H 0.11748 0.14502 0.97203 0.0
H968 H 0.10858 0.14872 -0.00041 0.0
H969 H 0.13677 0.21284 0.99539 0.0
H970 H 0.14567 0.20932 0.96778 0.0
H971 H 0.17898 0.23614 0.98561 0.0
H972 H 0.26231 0.19105 0.98957 0.0
H973 H 0.26356 0.18366 0.95053 0.0
H974 H 0.16634 0.17511 0.945 0.0
C975 C 0.1621 0.18838 0.03178 0.0
C976 C 0.1804 0.1921 0.0506 0.0
C977 C 0.21233 0.19525 0.04905 0.0
C978 C 0.22565 0.19427 0.02912 0.0
C979 C 0.20681 0.19025 0.01091 0.0
C980 C 0.1758 0.1875 0.01204 0.0
C981 C 0.16037 0.18275 0.99009 0.0
C982 C 0.12757 0.14918 0.98855 0.0
C983 C 0.15516 0.21201 0.98439 0.0
C984 C 0.18741 0.18288 0.97648 0.0
C985 C 0.21403 0.18733 0.98876 0.0
C986 C 0.24169 0.18772 0.97976 0.0
C987 C 0.24214 0.18345 0.95758 0.0
C988 C 0.21508 0.17884 0.9447 0.0
C989 C 0.18747 0.17867 0.95437 0.0
H990 H 0.84846 0.01753 0.93475 0.0
H991 H 0.77379 0.04741 0.93056 0.0
H992 H 0.765 0.04 0.96963 0.0
H993 H 0.80718 0.95425 0.97366 0.0
H994 H 0.84486 0.96304 0.98736 0.0
H995 H 0.84606 0.97183 0.95925 0.0
H996 H 0.89148 0.03335 0.96605 0.0
H997 H 0.89061 0.02471 0.99417 0.0
H998 H 0.88382 0.05773 0.98527 0.0
H999 H 0.76291 0.02706 0.00887 0.0
H1000 H 0.76962 0.01252 0.0457 0.0
H1001 H 0.8462 0.99175 0.02392 0.0
C1002 C 0.8304 0.02278 0.94201 0.0
C1003 C 0.81178 0.03305 0.9296 0.0
C1004 C 0.78841 0.03962 0.93976 0.0
C1005 C 0.78319 0.03539 0.96192 0.0
C1006 C 0.80166 0.02476 0.9736 0.0
C1007 C 0.82497 0.0188 0.96401 0.0
C1008 C 0.84142 0.00735 0.98007 0.0
C1009 C 0.83445 0.97202 0.97476 0.0
C1010 C 0.87906 0.03228 0.98147 0.0
C1011 C 0.82359 0.00762 0.00024 0.0
C1012 C 0.80068 0.01763 0.99617 0.0
C1013 C 0.78087 0.01935 0.01226 0.0
C1014 C 0.7848 0.01092 0.03312 0.0
C1015 C 0.80848 0.00103 0.03769 0.0
C1016 C 0.82798 -0.0007 0.02096 0.0
H1017 H 0.94723 0.77387 0.96691 0.0
H1018 H 0.04957 0.82233 0.9444 0.0
H1019 H 0.06938 0.82987 0.98163 0.0
H1020 H 0.96287 0.82772 0.011 0.0
H1021 H 0.93331 0.79566 0.02855 0.0
H1022 H 0.92691 0.79154 9e-05 0.0
H1023 H 0.92395 0.73429 0.00115 0.0
H1024 H 0.93038 0.73826 0.02965 0.0
H1025 H 0.95783 0.73131 0.01279 0.0
H1026 H 0.07834 0.83412 0.02109 0.0
H1027 H 0.07596 0.83721 0.06036 0.0
H1028 H 0.96794 0.78732 0.05736 0.0
C1029 C 0.97377 0.78566 0.96983 0.0
C1030 C 0.99686 0.79737 0.95278 0.0
C1031 C 0.03143 0.81319 0.95723 0.0
C1032 C 0.04294 0.81746 0.97831 0.0
C1033 C 0.01957 0.80589 0.99477 0.0
C1034 C 0.98573 0.79045 0.99081 0.0
C1035 C 0.96606 0.78213 0.01145 0.0
C1036 C 0.94612 0.80036 0.01285 0.0
C1037 C 0.94321 0.74424 0.0139 0.0
C1038 C 0.99417 0.79572 0.02757 0.0
C1039 C 0.0248 0.80896 0.01761 0.0
C1040 C 0.0545 0.82369 0.02911 0.0
C1041 C 0.05288 0.82531 0.05141 0.0
C1042 C 0.02179 0.81252 0.06194 0.0
C1043 C 0.9921 0.79723 0.0498 0.0
H1044 H 0.85313 0.50736 0.29358 0.0
H1045 H 0.76761 0.5165 0.27645 0.0
H1046 H 0.76671 0.5369 0.31281 0.0
H1047 H 0.82368 0.47534 0.34588 0.0
H1048 H 0.86441 0.49634 0.35799 0.0
H1049 H 0.86005 0.48516 0.33013 0.0
H1050 H 0.90154 0.54674 0.32028 0.0
H1051 H 0.90585 0.55814 0.34813 0.0
H1052 H 0.89341 0.57896 0.32914 0.0
H1053 H 0.77505 0.55625 0.3508 0.0
H1054 H 0.78756 0.56666 0.38931 0.0
H1055 H 0.86512 0.54114 0.38253 0.0
C1056 C 0.83444 0.51395 0.2975 0.0
C1057 C 0.81057 0.51063 0.28228 0.0
C1058 C 0.78605 0.51883 0.28798 0.0
C1059 C 0.7855 0.53065 0.3085 0.0
C1060 C 0.80936 0.53366 0.32318 0.0
C1061 C 0.83306 0.52508 0.31807 0.0
C1062 C 0.85419 0.52819 0.3373 0.0
C1063 C 0.85033 0.49424 0.34317 0.0
C1064 C 0.89092 0.55459 0.33348 0.0
C1065 C 0.83852 0.53967 0.35402 0.0
C1066 C 0.81314 0.54328 0.34543 0.0
C1067 C 0.79487 0.55352 0.35774 0.0
C1068 C 0.80226 0.55952 0.37956 0.0
C1069 C 0.82728 0.55468 0.38885 0.0
C1070 C 0.84586 0.54503 0.37582 0.0
H1071 H 0.55034 0.35976 0.2993 0.0
H1072 H 0.45416 0.35141 0.28799 0.0
H1073 H 0.43838 0.33454 0.32548 0.0
H1074 H 0.521 0.28915 0.33334 0.0
H1075 H 0.55655 0.30796 0.35092 0.0
H1076 H 0.56106 0.32071 0.32338 0.0
H1077 H 0.58495 0.38216 0.33515 0.0
H1078 H 0.58077 0.36965 0.36274 0.0
H1079 H 0.56141 0.39255 0.35338 0.0
H1080 H 0.43231 0.31714 0.3638 0.0
H1081 H 0.43724 0.30236 0.40092 0.0
H1082 H 0.53719 0.3217 0.3873 0.0
C1083 C 0.52607 0.35469 0.30474 0.0
C1084 C 0.50351 0.35694 0.29069 0.0
C1085 C 0.47191 0.34991 0.29844 0.0
C1086 C 0.46267 0.34025 0.31971 0.0
C1087 C 0.48529 0.33779 0.33304 0.0
C1088 C 0.51642 0.34499 0.32593 0.0
C1089 C 0.53588 0.34004 0.34351 0.0
C1090 C 0.54409 0.31284 0.33742 0.0
C1091 C 0.56763 0.37307 0.34902 0.0
C1092 C 0.51073 0.3287 0.36154 0.0
C1093 C 0.48174 0.32761 0.35516 0.0
C1094 C 0.4549 0.31794 0.36901 0.0
C1095 C 0.45792 0.30951 0.39005 0.0
C1096 C 0.48756 0.31078 0.39702 0.0
C1097 C 0.51415 0.32031 0.38246 0.0
H1098 H 0.67553 0.21349 0.38265 0.0
H1099 H 0.69162 0.12997 0.39213 0.0
H1100 H 0.67641 0.1132 0.35452 0.0
H1101 H 0.60463 0.17117 0.34784 0.0
H1102 H 0.61663 0.20708 0.33116 0.0
H1103 H 0.62865 0.21255 0.35888 0.0
H1104 H 0.69065 0.24958 0.34802 0.0
H1105 H 0.67881 0.24434 0.32028 0.0
H1106 H 0.70894 0.23356 0.32946 0.0
H1107 H 0.65977 0.10562 0.31603 0.0
H1108 H 0.64408 0.10847 0.2788 0.0
H1109 H 0.63876 0.19691 0.29441 0.0
C1110 C 0.67589 0.19168 0.37684 0.0
C1111 C 0.68477 0.17304 0.39033 0.0
C1112 C 0.68494 0.14467 0.38208 0.0
C1113 C 0.67628 0.1349 0.36076 0.0
C1114 C 0.66752 0.15375 0.34793 0.0
C1115 C 0.66734 0.18158 0.35561 0.0
C1116 C 0.6573 0.19769 0.33839 0.0
C1117 C 0.62487 0.19707 0.34444 0.0
C1118 C 0.68562 0.2334 0.33377 0.0
C1119 C 0.65196 0.17458 0.31982 0.0
C1120 C 0.6579 0.14937 0.32569 0.0
C1121 C 0.65499 0.12521 0.31123 0.0
C1122 C 0.64604 0.12705 0.29013 0.0
C1123 C 0.64015 0.15289 0.28369 0.0
C1124 C 0.64294 0.17677 0.29884 0.0
H1125 H 0.53192 0.86285 0.60865 0.0
H1126 H 0.52532 0.76705 0.59895 0.0
H1127 H 0.5136 0.75459 0.63734 0.0
H1128 H 0.57261 0.8796 0.66084 0.0
H1129 H 0.55053 0.89934 0.67118 0.0
H1130 H 0.55935 0.90113 0.643 0.0
H1131 H 0.49649 0.87553 0.63467 0.0
H1132 H 0.48744 0.87344 0.66281 0.0
H1133 H 0.46681 0.83629 0.64663 0.0
H1134 H 0.49838 0.75063 0.67595 0.0
H1135 H 0.48584 0.75761 0.71331 0.0
H1136 H 0.50532 0.8572 0.69858 0.0
C1137 C 0.52829 0.83939 0.61465 0.0
C1138 C 0.52946 0.81588 0.60082 0.0
C1139 C 0.52469 0.78549 0.60927 0.0
C1140 C 0.5179 0.77813 0.63103 0.0
C1141 C 0.51643 0.8016 0.64416 0.0
C1142 C 0.52196 0.83182 0.6364 0.0
C1143 C 0.51901 0.85268 0.65399 0.0
C1144 C 0.55236 0.8851 0.65746 0.0
C1145 C 0.49075 0.8599 0.64923 0.0
C1146 C 0.51044 0.82922 0.67278 0.0
C1147 C 0.50886 0.79981 0.6667 0.0
C1148 C 0.49992 0.77368 0.68098 0.0
C1149 C 0.49266 0.77781 0.70212 0.0
C1150 C 0.49478 0.80798 0.70881 0.0
C1151 C 0.50388 0.83401 0.69393 0.0
H1152 H 0.15786 0.64542 0.60729 0.0
H1153 H 0.16174 0.74036 0.61433 0.0
H1154 H 0.15011 0.7296 0.65293 0.0
H1155 H 0.0924 0.59886 0.64675 0.0
H1156 H 0.11185 0.57618 0.65637 0.0
H1157 H 0.11756 0.58995 0.62899 0.0
H1158 H 0.18163 0.62095 0.63406 0.0
H1159 H 0.17614 0.60727 0.66142 0.0
H1160 H 0.20029 0.65111 0.65529 0.0
H1161 H 0.14014 0.70961 0.69073 0.0
H1162 H 0.13599 0.68356 0.72571 0.0
H1163 H 0.14073 0.60245 0.69436 0.0
C1164 C 0.15578 0.66372 0.61691 0.0
C1165 C 0.16046 0.69363 0.60784 0.0
C1166 C 0.15821 0.71728 0.62098 0.0
C1167 C 0.15146 0.71132 0.64288 0.0
C1168 C 0.14724 0.6817 0.65136 0.0
C1169 C 0.1495 0.65837 0.63883 0.0
C1170 C 0.14624 0.62966 0.65216 0.0
C1171 C 0.11516 0.59671 0.64568 0.0
C1172 C 0.17796 0.62712 0.65064 0.0
C1173 C 0.14224 0.64073 0.6742 0.0
C1174 C 0.14242 0.67057 0.67331 0.0
C1175 C 0.13981 0.68617 0.69163 0.0
C1176 C 0.13744 0.67112 0.71143 0.0
C1177 C 0.13805 0.64094 0.71279 0.0
C1178 C 0.1401 0.62544 0.69385 0.0
H1179 H 0.28901 0.43101 0.61996 0.0
H1180 H 0.32826 0.53057 0.59398 0.0
H1181 H 0.34827 0.5546 0.62975 0.0
H1182 H 0.26198 0.44644 0.67091 0.0
H1183 H 0.27417 0.42104 0.68573 0.0
H1184 H 0.26187 0.41152 0.65816 0.0
H1185 H 0.31806 0.41483 0.64947 0.0
H1186 H 0.33062 0.4246 0.67699 0.0
H1187 H 0.35657 0.45215 0.65607 0.0
H1188 H 0.36406 0.56801 0.66805 0.0
H1189 H 0.37481 0.56991 0.70678 0.0
H1190 H 0.32718 0.46191 0.70783 0.0
C1191 C 0.30152 0.45783 0.62187 0.0
C1192 C 0.30699 0.47892 0.60423 0.0
C1193 C 0.32384 0.51393 0.60728 0.0
C1194 C 0.3353 0.52784 0.62753 0.0
C1195 C 0.32991 0.50643 0.64453 0.0
C1196 C 0.31347 0.4722 0.64196 0.0
C1197 C 0.31166 0.45493 0.66285 0.0
C1198 C 0.27526 0.43214 0.66982 0.0
C1199 C 0.33035 0.43549 0.66124 0.0
C1200 C 0.32957 0.48482 0.67752 0.0
C1201 C 0.33977 0.51426 0.66662 0.0
C1202 C 0.35629 0.54514 0.67678 0.0
C1203 C 0.36229 0.54596 0.69877 0.0
C1204 C 0.35199 0.5161 0.71028 0.0
C1205 C 0.33565 0.48519 0.69942 0.0
loop_
_geom_bond_atom_site_label_1
_geom_bond_atom_site_label_2
_geom_bond_distance
_geom_bond_site_symmetry_2
_ccdc_geom_bond_type
C0 O1 1.160 . S
C0 O7 1.185 . S
O1 C0 1.160 . S
O2 Zn3 1.899 . S
O2 C10 1.284 . S
Zn3 O2 1.899 . S
Zn3 O4 2.032 . S
Zn3 O7 2.086 . S
Zn3 O12 1.977 . S
O4 Zn3 2.032 . S
O4 C8 1.278 . S
C5 O6 1.203 . S
C5 O12 1.267 . S
O6 C5 1.203 . S
O7 C0 1.185 . S
O7 Zn3 2.086 . S
C8 O4 1.278 . S
C8 O9 1.211 . S
O9 C8 1.211 . S
C10 O2 1.284 . S
C10 O11 1.273 . S
O11 C10 1.273 . S
O12 Zn3 1.977 . S
O12 C5 1.267 . S
C13 O14 1.160 . S
C13 O20 1.185 1_545 S
O14 C13 1.160 . S
O15 Zn16 1.899 1_545 S
O15 C23 1.284 . S
Zn16 O15 1.899 1_565 S
Zn16 O17 2.032 1_565 S
Zn16 O20 2.086 . S
Zn16 O25 1.977 . S
O17 Zn16 2.032 1_545 S
O17 C21 1.278 1_545 S
C18 O19 1.203 . S
C18 O25 1.267 . S
O19 C18 1.203 . S
O20 C13 1.185 1_565 S
O20 Zn16 2.086 . S
C21 O17 1.278 1_565 S
C21 O22 1.211 . S
O22 C21 1.211 . S
C23 O15 1.284 . S
C23 O24 1.273 . S
O24 C23 1.273 . S
O25 Zn16 1.977 . S
O25 C18 1.267 . S
C26 O27 1.160 . S
C26 O33 1.185 1_655 S
O27 C26 1.160 . S
O28 Zn29 1.899 1_655 S
O28 C36 1.284 . S
Zn29 O28 1.899 1_455 S
Zn29 O30 2.032 1_455 S
Zn29 O33 2.086 . S
Zn29 O38 1.977 . S
O30 Zn29 2.032 1_655 S
O30 C34 1.278 1_655 S
C31 O32 1.203 . S
C31 O38 1.267 . S
O32 C31 1.203 . S
O33 C26 1.185 1_455 S
O33 Zn29 2.086 . S
C34 O30 1.278 1_455 S
C34 O35 1.211 . S
O35 C34 1.211 . S
C36 O28 1.284 . S
C36 O37 1.273 . S
O37 C36 1.273 . S
O38 Zn29 1.977 . S
O38 C31 1.267 . S
C39 O40 1.160 . S
C39 O46 1.185 . S
O40 C39 1.160 . S
O41 Zn42 1.899 . S
O41 C49 1.284 . S
Zn42 O41 1.899 . S
Zn42 O43 2.032 . S
Zn42 O46 2.086 . S
Zn42 O51 1.977 . S
O43 Zn42 2.032 . S
O43 C47 1.278 . S
C44 O45 1.203 . S
C44 O51 1.267 . S
O45 C44 1.203 . S
O46 C39 1.185 . S
O46 Zn42 2.086 . S
C47 O43 1.278 . S
C47 O48 1.211 . S
O48 C47 1.211 . S
C49 O41 1.284 . S
C49 O50 1.273 . S
O50 C49 1.273 . S
O51 Zn42 1.977 . S
O51 C44 1.267 . S
C52 O53 1.160 . S
C52 O59 1.185 1_565 S
O53 C52 1.160 . S
O54 Zn55 1.899 1_565 S
O54 C62 1.284 . S
Zn55 O54 1.899 1_545 S
Zn55 O56 2.032 1_545 S
Zn55 O59 2.086 . S
Zn55 O64 1.977 . S
O56 Zn55 2.032 1_565 S
O56 C60 1.278 1_565 S
C57 O58 1.203 . S
C57 O64 1.267 . S
O58 C57 1.203 . S
O59 C52 1.185 1_545 S
O59 Zn55 2.086 . S
C60 O56 1.278 1_545 S
C60 O61 1.211 . S
O61 C60 1.211 . S
C62 O54 1.284 . S
C62 O63 1.273 . S
O63 C62 1.273 . S
O64 Zn55 1.977 . S
O64 C57 1.267 . S
C65 O66 1.160 . S
C65 O72 1.185 1_455 S
O66 C65 1.160 . S
O67 Zn68 1.899 1_455 S
O67 C75 1.284 . S
Zn68 O67 1.899 1_655 S
Zn68 O69 2.032 1_655 S
Zn68 O72 2.086 . S
Zn68 O77 1.977 . S
O69 Zn68 2.032 1_455 S
O69 C73 1.278 1_455 S
C70 O71 1.203 . S
C70 O77 1.267 . S
O71 C70 1.203 . S
O72 C65 1.185 1_655 S
O72 Zn68 2.086 . S
C73 O69 1.278 1_655 S
C73 O74 1.211 . S
O74 C73 1.211 . S
C75 O67 1.284 . S
C75 O76 1.273 . S
O76 C75 1.273 . S
O77 Zn68 1.977 . S
O77 C70 1.267 . S
C78 O79 1.160 . S
C78 O85 1.185 . S
O79 C78 1.160 . S
O80 Zn81 1.899 . S
O80 C88 1.284 . S
Zn81 O80 1.899 . S
Zn81 O82 2.032 . S
Zn81 O85 2.086 . S
Zn81 O90 1.977 . S
O82 Zn81 2.032 . S
O82 C86 1.278 . S
C83 O84 1.203 . S
C83 O90 1.267 . S
O84 C83 1.203 . S
O85 C78 1.185 . S
O85 Zn81 2.086 . S
C86 O82 1.278 . S
C86 O87 1.211 . S
O87 C86 1.211 . S
C88 O80 1.284 . S
C88 O89 1.273 . S
O89 C88 1.273 . S
O90 Zn81 1.977 . S
O90 C83 1.267 . S
C91 O92 1.160 . S
C91 O98 1.185 . S
O92 C91 1.160 . S
O93 Zn94 1.899 . S
O93 C101 1.284 . S
Zn94 O93 1.899 . S
Zn94 O95 2.032 . S
Zn94 O98 2.086 . S
Zn94 O103 1.977 . S
O95 Zn94 2.032 . S
O95 C99 1.278 . S
C96 O97 1.203 . S
C96 O103 1.267 . S
O97 C96 1.203 . S
O98 C91 1.185 . S
O98 Zn94 2.086 . S
C99 O95 1.278 . S
C99 O100 1.211 . S
O100 C99 1.211 . S
C101 O93 1.284 . S
C101 O102 1.273 . S
O102 C101 1.273 . S
O103 Zn94 1.977 . S
O103 C96 1.267 . S
C104 O105 1.160 . S
C104 O111 1.185 . S
O105 C104 1.160 . S
O106 Zn107 1.899 . S
O106 C114 1.284 . S
Zn107 O106 1.899 . S
Zn107 O108 2.032 . S
Zn107 O111 2.086 . S
Zn107 O116 1.977 . S
O108 Zn107 2.032 . S
O108 C112 1.278 . S
C109 O110 1.203 . S
C109 O116 1.267 . S
O110 C109 1.203 . S
O111 C104 1.185 . S
O111 Zn107 2.086 . S
C112 O108 1.278 . S
C112 O113 1.211 . S
O113 C112 1.211 . S
C114 O106 1.284 . S
C114 O115 1.273 . S
O115 C114 1.273 . S
O116 Zn107 1.977 . S
O116 C109 1.267 . S
C117 O118 1.160 . S
C117 O124 1.185 . S
O118 C117 1.160 . S
O119 Zn120 1.899 . S
O119 C127 1.284 . S
Zn120 O119 1.899 . S
Zn120 O121 2.032 . S
Zn120 O124 2.086 . S
Zn120 O129 1.977 . S
O121 Zn120 2.032 . S
O121 C125 1.278 . S
C122 O123 1.203 . S
C122 O129 1.267 . S
O123 C122 1.203 . S
O124 C117 1.185 . S
O124 Zn120 2.086 . S
C125 O121 1.278 . S
C125 O126 1.211 . S
O126 C125 1.211 . S
C127 O119 1.284 . S
C127 O128 1.273 . S
O128 C127 1.273 . S
O129 Zn120 1.977 . S
O129 C122 1.267 . S
C130 O131 1.160 . S
C130 O137 1.185 . S
O131 C130 1.160 . S
O132 Zn133 1.899 . S
O132 C140 1.284 . S
Zn133 O132 1.899 . S
Zn133 O134 2.032 . S
Zn133 O137 2.086 . S
Zn133 O142 1.977 . S
O134 Zn133 2.032 . S
O134 C138 1.278 . S
C135 O136 1.203 . S
C135 O142 1.267 . S
O136 C135 1.203 . S
O137 C130 1.185 . S
O137 Zn133 2.086 . S
C138 O134 1.278 . S
C138 O139 1.211 . S
O139 C138 1.211 . S
C140 O132 1.284 . S
C140 O141 1.273 . S
O141 C140 1.273 . S
O142 Zn133 1.977 . S
O142 C135 1.267 . S
C143 O144 1.160 . S
C143 O150 1.185 . S
O144 C143 1.160 . S
O145 Zn146 1.899 . S
O145 C153 1.284 . S
Zn146 O145 1.899 . S
Zn146 O147 2.032 . S
Zn146 O150 2.086 . S
Zn146 O155 1.977 . S
O147 Zn146 2.032 . S
O147 C151 1.278 . S
C148 O149 1.203 . S
C148 O155 1.267 . S
O149 C148 1.203 . S
O150 C143 1.185 . S
O150 Zn146 2.086 . S
C151 O147 1.278 . S
C151 O152 1.211 . S
O152 C151 1.211 . S
C153 O145 1.284 . S
C153 O154 1.273 . S
O154 C153 1.273 . S
O155 Zn146 1.977 . S
O155 C148 1.267 . S
C156 O157 1.160 . S
C156 O163 1.185 . S
O157 C156 1.160 . S
O158 Zn159 1.899 . S
O158 C166 1.284 . S
Zn159 O158 1.899 . S
Zn159 O160 2.032 . S
Zn159 O163 2.086 . S
Zn159 O168 1.977 . S
O160 Zn159 2.032 . S
O160 C164 1.278 . S
C161 O162 1.203 . S
C161 O168 1.267 . S
O162 C161 1.203 . S
O163 C156 1.185 . S
O163 Zn159 2.086 . S
C164 O160 1.278 . S
C164 O165 1.211 . S
O165 C164 1.211 . S
C166 O158 1.284 . S
C166 O167 1.273 . S
O167 C166 1.273 . S
O168 Zn159 1.977 . S
O168 C161 1.267 . S
C169 O170 1.160 . S
C169 O176 1.185 . S
O170 C169 1.160 . S
O171 Zn172 1.899 . S
O171 C179 1.284 . S
Zn172 O171 1.899 . S
Zn172 O173 2.032 . S
Zn172 O176 2.086 . S
Zn172 O181 1.977 . S
O173 Zn172 2.032 . S
O173 C177 1.278 . S
C174 O175 1.203 . S
C174 O181 1.267 . S
O175 C174 1.203 . S
O176 C169 1.185 . S
O176 Zn172 2.086 . S
C177 O173 1.278 . S
C177 O178 1.211 . S
O178 C177 1.211 . S
C179 O171 1.284 . S
C179 O180 1.273 . S
O180 C179 1.273 . S
O181 Zn172 1.977 . S
O181 C174 1.267 . S
C182 O183 1.160 . S
C182 O189 1.185 . S
O183 C182 1.160 . S
O184 Zn185 1.899 . S
O184 C192 1.284 . S
Zn185 O184 1.899 . S
Zn185 O186 2.032 . S
Zn185 O189 2.086 . S
Zn185 O194 1.977 . S
O186 Zn185 2.032 . S
O186 C190 1.278 . S
C187 O188 1.203 . S
C187 O194 1.267 . S
O188 C187 1.203 . S
O189 C182 1.185 . S
O189 Zn185 2.086 . S
C190 O186 1.278 . S
C190 O191 1.211 . S
O191 C190 1.211 . S
C192 O184 1.284 . S
C192 O193 1.273 . S
O193 C192 1.273 . S
O194 Zn185 1.977 . S
O194 C187 1.267 . S
C195 O196 1.160 . S
C195 O202 1.185 . S
O196 C195 1.160 . S
O197 Zn198 1.899 . S
O197 C205 1.284 . S
Zn198 O197 1.899 . S
Zn198 O199 2.032 . S
Zn198 O202 2.086 . S
Zn198 O207 1.977 . S
O199 Zn198 2.032 . S
O199 C203 1.278 . S
C200 O201 1.203 . S
C200 O207 1.267 . S
O201 C200 1.203 . S
O202 C195 1.185 . S
O202 Zn198 2.086 . S
C203 O199 1.278 . S
C203 O204 1.211 . S
O204 C203 1.211 . S
C205 O197 1.284 . S
C205 O206 1.273 . S
O206 C205 1.273 . S
O207 Zn198 1.977 . S
O207 C200 1.267 . S
C208 O209 1.160 . S
C208 O215 1.185 . S
O209 C208 1.160 . S
O210 Zn211 1.899 . S
O210 C218 1.284 . S
Zn211 O210 1.899 . S
Zn211 O212 2.032 . S
Zn211 O215 2.086 . S
Zn211 O220 1.977 . S
O212 Zn211 2.032 . S
O212 C216 1.278 . S
C213 O214 1.203 . S
C213 O220 1.267 . S
O214 C213 1.203 . S
O215 C208 1.185 . S
O215 Zn211 2.086 . S
C216 O212 1.278 . S
C216 O217 1.211 . S
O217 C216 1.211 . S
C218 O210 1.284 . S
C218 O219 1.273 . S
O219 C218 1.273 . S
O220 Zn211 1.977 . S
O220 C213 1.267 . S
C221 O222 1.160 . S
C221 O228 1.185 . S
O222 C221 1.160 . S
O223 Zn224 1.899 . S
O223 C231 1.284 . S
Zn224 O223 1.899 . S
Zn224 O225 2.032 . S
Zn224 O228 2.086 . S
Zn224 O233 1.977 . S
O225 Zn224 2.032 . S
O225 C229 1.278 . S
C226 O227 1.203 . S
C226 O233 1.267 . S
O227 C226 1.203 . S
O228 C221 1.185 . S
O228 Zn224 2.086 . S
C229 O225 1.278 . S
C229 O230 1.211 . S
O230 C229 1.211 . S
C231 O223 1.284 . S
C231 O232 1.273 . S
O232 C231 1.273 . S
O233 Zn224 1.977 . S
O233 C226 1.267 . S
H234 C246 0.930 . S
H235 C248 0.930 . S
H236 C249 0.930 . S
H237 C253 0.959 . S
H238 C253 0.959 . S
H239 C253 0.961 . S
H240 C254 0.960 . S
H241 C254 0.961 . S
H242 C254 0.959 . S
H243 C257 0.929 . S
H244 C258 0.931 . S
H245 C260 0.930 . S
C246 H234 0.930 . S
C246 C247 1.399 . S
C246 C251 1.399 . S
C247 C246 1.399 . S
C247 C248 1.376 . S
C248 H235 0.930 . S
C248 C247 1.376 . S
C248 C249 1.388 . S
C249 H236 0.930 . S
C249 C248 1.388 . S
C249 C250 1.390 . S
C250 C249 1.390 . S
C250 C251 1.394 . S
C250 C256 1.465 . S
C251 C246 1.399 . S
C251 C250 1.394 . S
C251 C252 1.516 . S
C252 C251 1.516 . S
C252 C253 1.502 . S
C252 C254 1.561 . S
C252 C255 1.526 . S
C253 H237 0.959 . S
C253 H238 0.959 . S
C253 H239 0.961 . S
C253 C252 1.502 . S
C254 H240 0.960 . S
C254 H241 0.961 . S
C254 H242 0.959 . S
C254 C252 1.561 . S
C255 C252 1.526 . S
C255 C256 1.396 . S
C255 C260 1.390 . S
C256 C250 1.465 . S
C256 C255 1.396 . S
C256 C257 1.399 . S
C257 H243 0.929 . S
C257 C256 1.399 . S
C257 C258 1.385 . S
C258 H244 0.931 . S
C258 C257 1.385 . S
C258 C259 1.389 . S
C259 C258 1.389 . S
C259 C260 1.387 . S
C260 H245 0.930 . S
C260 C255 1.390 . S
C260 C259 1.387 . S
H261 C273 0.930 . S
H262 C275 0.929 1_565 S
H263 C276 0.930 1_565 S
H264 C280 0.959 . S
H265 C280 0.959 . S
H266 C280 0.961 . S
H267 C281 0.960 . S
H268 C281 0.961 . S
H269 C281 0.959 . S
H270 C284 0.929 . S
H271 C285 0.931 . S
H272 C287 0.930 . S
C273 H261 0.930 . S
C273 C274 1.399 . S
C273 C278 1.399 . S
C274 C273 1.399 . S
C274 C275 1.377 . S
C275 H262 0.929 1_545 S
C275 C274 1.377 . S
C275 C276 1.389 . S
C276 H263 0.930 1_545 S
C276 C275 1.389 . S
C276 C277 1.390 . S
C277 C276 1.390 . S
C277 C278 1.394 . S
C277 C283 1.465 . S
C278 C273 1.399 . S
C278 C277 1.394 . S
C278 C279 1.516 . S
C279 C278 1.516 . S
C279 C280 1.502 . S
C279 C281 1.561 . S
C279 C282 1.526 . S
C280 H264 0.959 . S
C280 H265 0.959 . S
C280 H266 0.961 . S
C280 C279 1.502 . S
C281 H267 0.960 . S
C281 H268 0.961 . S
C281 H269 0.959 . S
C281 C279 1.561 . S
C282 C279 1.526 . S
C282 C283 1.396 . S
C282 C287 1.390 . S
C283 C277 1.465 . S
C283 C282 1.396 . S
C283 C284 1.399 . S
C284 H270 0.929 . S
C284 C283 1.399 . S
C284 C285 1.385 . S
C285 H271 0.931 . S
C285 C284 1.385 . S
C285 C286 1.389 . S
C286 C285 1.389 . S
C286 C287 1.387 . S
C287 H272 0.930 . S
C287 C282 1.390 . S
C287 C286 1.387 . S
H288 C300 0.930 . S
H289 C302 0.930 . S
H290 C303 0.930 . S
H291 C307 0.959 . S
H292 C307 0.959 . S
H293 C307 0.961 . S
H294 C308 0.960 . S
H295 C308 0.961 . S
H296 C308 0.959 . S
H297 C311 0.929 . S
H298 C312 0.931 . S
H299 C314 0.930 . S
C300 H288 0.930 . S
C300 C301 1.399 . S
C300 C305 1.399 . S
C301 C300 1.399 . S
C301 C302 1.376 . S
C302 H289 0.930 . S
C302 C301 1.376 . S
C302 C303 1.388 . S
C303 H290 0.930 . S
C303 C302 1.388 . S
C303 C304 1.390 . S
C304 C303 1.390 . S
C304 C305 1.394 . S
C304 C310 1.465 . S
C305 C300 1.399 . S
C305 C304 1.394 . S
C305 C306 1.516 . S
C306 C305 1.516 . S
C306 C307 1.502 . S
C306 C308 1.561 . S
C306 C309 1.526 . S
C307 H291 0.959 . S
C307 H292 0.959 . S
C307 H293 0.961 . S
C307 C306 1.502 . S
C308 H294 0.960 . S
C308 H295 0.961 . S
C308 H296 0.959 . S
C308 C306 1.561 . S
C309 C306 1.526 . S
C309 C310 1.396 . S
C309 C314 1.390 . S
C310 C304 1.465 . S
C310 C309 1.396 . S
C310 C311 1.399 . S
C311 H297 0.929 . S
C311 C310 1.399 . S
C311 C312 1.385 . S
C312 H298 0.931 . S
C312 C311 1.385 . S
C312 C313 1.389 . S
C313 C312 1.389 . S
C313 C314 1.387 . S
C314 H299 0.930 . S
C314 C309 1.390 . S
C314 C313 1.387 . S
H315 C327 0.930 . S
H316 C329 0.930 . S
H317 C330 0.930 . S
H318 C334 0.959 . S
H319 C334 0.959 . S
H320 C334 0.961 . S
H321 C335 0.960 . S
H322 C335 0.961 . S
H323 C335 0.959 . S
H324 C338 0.929 . S
H325 C339 0.931 . S
H326 C341 0.930 . S
C327 H315 0.930 . S
C327 C328 1.399 . S
C327 C332 1.399 . S
C328 C327 1.399 . S
C328 C329 1.376 . S
C329 H316 0.930 . S
C329 C328 1.376 . S
C329 C330 1.388 . S
C330 H317 0.930 . S
C330 C329 1.388 . S
C330 C331 1.390 . S
C331 C330 1.390 . S
C331 C332 1.394 . S
C331 C337 1.465 . S
C332 C327 1.399 . S
C332 C331 1.394 . S
C332 C333 1.516 . S
C333 C332 1.516 . S
C333 C334 1.502 . S
C333 C335 1.561 . S
C333 C336 1.526 . S
C334 H318 0.959 . S
C334 H319 0.959 . S
C334 H320 0.961 . S
C334 C333 1.502 . S
C335 H321 0.960 . S
C335 H322 0.961 . S
C335 H323 0.959 . S
C335 C333 1.561 . S
C336 C333 1.526 . S
C336 C337 1.396 . S
C336 C341 1.390 . S
C337 C331 1.465 . S
C337 C336 1.396 . S
C337 C338 1.399 . S
C338 H324 0.929 . S
C338 C337 1.399 . S
C338 C339 1.385 . S
C339 H325 0.931 . S
C339 C338 1.385 . S
C339 C340 1.389 . S
C340 C339 1.389 . S
C340 C341 1.387 . S
C341 H326 0.930 . S
C341 C336 1.390 . S
C341 C340 1.387 . S
H342 C354 0.930 . S
H343 C356 0.930 1_545 S
H344 C357 0.930 1_545 S
H345 C361 0.959 . S
H346 C361 0.959 . S
H347 C361 0.961 . S
H348 C362 0.960 . S
H349 C362 0.961 . S
H350 C362 0.959 . S
H351 C365 0.929 . S
H352 C366 0.931 . S
H353 C368 0.930 . S
C354 H342 0.930 . S
C354 C355 1.399 . S
C354 C359 1.399 . S
C355 C354 1.399 . S
C355 C356 1.376 . S
C356 H343 0.930 1_565 S
C356 C355 1.376 . S
C356 C357 1.388 . S
C357 H344 0.930 1_565 S
C357 C356 1.388 . S
C357 C358 1.390 . S
C358 C357 1.390 . S
C358 C359 1.394 . S
C358 C364 1.465 . S
C359 C354 1.399 . S
C359 C358 1.394 . S
C359 C360 1.516 . S
C360 C359 1.516 . S
C360 C361 1.502 . S
C360 C362 1.561 . S
C360 C363 1.526 . S
C361 H345 0.959 . S
C361 H346 0.959 . S
C361 H347 0.961 . S
C361 C360 1.502 . S
C362 H348 0.960 . S
C362 H349 0.961 . S
C362 H350 0.959 . S
C362 C360 1.561 . S
C363 C360 1.526 . S
C363 C364 1.396 . S
C363 C368 1.390 . S
C364 C358 1.465 . S
C364 C363 1.396 . S
C364 C365 1.399 . S
C365 H351 0.929 . S
C365 C364 1.399 . S
C365 C366 1.385 . S
C366 H352 0.931 . S
C366 C365 1.385 . S
C366 C367 1.389 . S
C367 C366 1.389 . S
C367 C368 1.387 . S
C368 H353 0.930 . S
C368 C363 1.390 . S
C368 C367 1.387 . S
H369 C381 0.930 . S
H370 C383 0.930 . S
H371 C384 0.930 . S
H372 C388 0.959 . S
H373 C388 0.959 . S
H374 C388 0.961 . S
H375 C389 0.960 . S
H376 C389 0.961 . S
H377 C389 0.959 . S
H378 C392 0.929 1_655 S
H379 C393 0.931 . S
H380 C395 0.930 . S
C381 H369 0.930 . S
C381 C382 1.399 . S
C381 C386 1.399 . S
C382 C381 1.399 . S
C382 C383 1.376 . S
C383 H370 0.930 . S
C383 C382 1.376 . S
C383 C384 1.388 . S
C384 H371 0.930 . S
C384 C383 1.388 . S
C384 C385 1.390 . S
C385 C384 1.390 . S
C385 C386 1.394 . S
C385 C391 1.465 . S
C386 C381 1.399 . S
C386 C385 1.394 . S
C386 C387 1.516 . S
C387 C386 1.516 . S
C387 C388 1.502 . S
C387 C389 1.561 . S
C387 C390 1.526 . S
C388 H372 0.959 . S
C388 H373 0.959 . S
C388 H374 0.961 . S
C388 C387 1.502 . S
C389 H375 0.960 . S
C389 H376 0.961 . S
C389 H377 0.959 . S
C389 C387 1.561 . S
C390 C387 1.526 . S
C390 C391 1.396 . S
C390 C395 1.390 . S
C391 C385 1.465 . S
C391 C390 1.396 . S
C391 C392 1.399 . S
C392 H378 0.929 1_455 S
C392 C391 1.399 . S
C392 C393 1.385 1_455 S
C393 H379 0.931 . S
C393 C392 1.385 1_655 S
C393 C394 1.389 1_655 S
C394 C393 1.389 1_455 S
C394 C395 1.387 . S
C395 H380 0.930 . S
C395 C390 1.390 . S
C395 C394 1.387 . S
H396 C408 0.930 . S
H397 C410 0.930 . S
H398 C411 0.930 . S
H399 C415 0.959 . S
H400 C415 0.959 . S
H401 C415 0.961 . S
H402 C416 0.960 . S
H403 C416 0.961 . S
H404 C416 0.959 . S
H405 C419 0.929 . S
H406 C420 0.931 . S
H407 C422 0.930 . S
C408 H396 0.930 . S
C408 C409 1.399 . S
C408 C413 1.399 . S
C409 C408 1.399 . S
C409 C410 1.376 . S
C410 H397 0.930 . S
C410 C409 1.376 . S
C410 C411 1.388 . S
C411 H398 0.930 . S
C411 C410 1.388 . S
C411 C412 1.390 . S
C412 C411 1.390 . S
C412 C413 1.394 . S
C412 C418 1.465 1_655 S
C413 C408 1.399 . S
C413 C412 1.394 . S
C413 C414 1.516 1_655 S
C414 C413 1.516 1_455 S
C414 C415 1.502 . S
C414 C416 1.561 . S
C414 C417 1.526 . S
C415 H399 0.959 . S
C415 H400 0.959 . S
C415 H401 0.961 . S
C415 C414 1.502 . S
C416 H402 0.960 . S
C416 H403 0.961 . S
C416 H404 0.959 . S
C416 C414 1.561 . S
C417 C414 1.526 . S
C417 C418 1.396 . S
C417 C422 1.390 . S
C418 C412 1.465 1_455 S
C418 C417 1.396 . S
C418 C419 1.399 . S
C419 H405 0.929 . S
C419 C418 1.399 . S
C419 C420 1.385 . S
C420 H406 0.931 . S
C420 C419 1.385 . S
C420 C421 1.389 . S
C421 C420 1.389 . S
C421 C422 1.387 . S
C422 H407 0.930 . S
C422 C417 1.390 . S
C422 C421 1.387 . S
H423 C435 0.930 . S
H424 C437 0.930 . S
H425 C438 0.930 . S
H426 C442 0.959 . S
H427 C442 0.959 . S
H428 C442 0.961 . S
H429 C443 0.960 . S
H430 C443 0.961 . S
H431 C443 0.959 . S
H432 C446 0.929 . S
H433 C447 0.931 . S
H434 C449 0.930 . S
C435 H423 0.930 . S
C435 C436 1.399 . S
C435 C440 1.399 . S
C436 C435 1.399 . S
C436 C437 1.376 . S
C437 H424 0.930 . S
C437 C436 1.376 . S
C437 C438 1.388 . S
C438 H425 0.930 . S
C438 C437 1.388 . S
C438 C439 1.390 . S
C439 C438 1.390 . S
C439 C440 1.394 . S
C439 C445 1.465 . S
C440 C435 1.399 . S
C440 C439 1.394 . S
C440 C441 1.516 . S
C441 C440 1.516 . S
C441 C442 1.502 . S
C441 C443 1.561 . S
C441 C444 1.526 . S
C442 H426 0.959 . S
C442 H427 0.959 . S
C442 H428 0.961 . S
C442 C441 1.502 . S
C443 H429 0.960 . S
C443 H430 0.961 . S
C443 H431 0.959 . S
C443 C441 1.561 . S
C444 C441 1.526 . S
C444 C445 1.396 . S
C444 C449 1.390 . S
C445 C439 1.465 . S
C445 C444 1.396 . S
C445 C446 1.399 . S
C446 H432 0.929 . S
C446 C445 1.399 . S
C446 C447 1.385 . S
C447 H433 0.931 . S
C447 C446 1.385 . S
C447 C448 1.389 . S
C448 C447 1.389 . S
C448 C449 1.387 . S
C449 H434 0.930 . S
C449 C444 1.390 . S
C449 C448 1.387 . S
H450 C462 0.930 . S
H451 C464 0.930 . S
H452 C465 0.930 . S
H453 C469 0.959 . S
H454 C469 0.959 . S
H455 C469 0.961 . S
H456 C470 0.960 . S
H457 C470 0.961 . S
H458 C470 0.959 . S
H459 C473 0.929 . S
H460 C474 0.931 . S
H461 C476 0.930 . S
C462 H450 0.930 . S
C462 C463 1.399 . S
C462 C467 1.399 . S
C463 C462 1.399 . S
C463 C464 1.376 . S
C464 H451 0.930 . S
C464 C463 1.376 . S
C464 C465 1.388 . S
C465 H452 0.930 . S
C465 C464 1.388 . S
C465 C466 1.390 . S
C466 C465 1.390 . S
C466 C467 1.394 . S
C466 C472 1.465 1_545 S
C467 C462 1.399 . S
C467 C466 1.394 . S
C467 C468 1.516 1_545 S
C468 C467 1.516 1_565 S
C468 C469 1.502 . S
C468 C470 1.561 . S
C468 C471 1.526 . S
C469 H453 0.959 . S
C469 H454 0.959 . S
C469 H455 0.961 . S
C469 C468 1.502 . S
C470 H456 0.960 . S
C470 H457 0.961 . S
C470 H458 0.959 . S
C470 C468 1.561 . S
C471 C468 1.526 . S
C471 C472 1.396 . S
C471 C476 1.390 . S
C472 C466 1.465 1_565 S
C472 C471 1.396 . S
C472 C473 1.399 . S
C473 H459 0.929 . S
C473 C472 1.399 . S
C473 C474 1.385 . S
C474 H460 0.931 . S
C474 C473 1.385 . S
C474 C475 1.389 . S
C475 C474 1.389 . S
C475 C476 1.387 . S
C476 H461 0.930 . S
C476 C471 1.390 . S
C476 C475 1.387 . S
H477 C489 0.930 . S
H478 C491 0.930 . S
H479 C492 0.930 . S
H480 C496 0.959 . S
H481 C496 0.959 1_655 S
H482 C496 0.961 . S
H483 C497 0.960 1_455 S
H484 C497 0.961 . S
H485 C497 0.959 . S
H486 C500 0.929 . S
H487 C501 0.931 . S
H488 C503 0.930 . S
C489 H477 0.930 . S
C489 C490 1.399 . S
C489 C494 1.399 . S
C490 C489 1.399 . S
C490 C491 1.376 . S
C491 H478 0.930 . S
C491 C490 1.376 . S
C491 C492 1.388 . S
C492 H479 0.930 . S
C492 C491 1.388 . S
C492 C493 1.390 . S
C493 C492 1.390 . S
C493 C494 1.394 . S
C493 C499 1.465 1_455 S
C494 C489 1.399 . S
C494 C493 1.394 . S
C494 C495 1.513 1_455 S
C495 C494 1.513 1_655 S
C495 C496 1.498 1_655 S
C495 C497 1.564 . S
C495 C498 1.531 . S
C496 H480 0.959 . S
C496 H481 0.959 1_455 S
C496 H482 0.961 . S
C496 C495 1.498 1_455 S
C497 H483 0.960 1_655 S
C497 H484 0.961 . S
C497 H485 0.959 . S
C497 C495 1.564 . S
C498 C495 1.531 . S
C498 C499 1.396 . S
C498 C503 1.390 . S
C499 C493 1.465 1_655 S
C499 C498 1.396 . S
C499 C500 1.399 . S
C500 H486 0.929 . S
C500 C499 1.399 . S
C500 C501 1.385 . S
C501 H487 0.931 . S
C501 C500 1.385 . S
C501 C502 1.389 . S
C502 C501 1.389 . S
C502 C503 1.387 . S
C503 H488 0.930 . S
C503 C498 1.390 . S
C503 C502 1.387 . S
H504 C516 0.930 . S
H505 C518 0.930 . S
H506 C519 0.930 . S
H507 C523 0.959 . S
H508 C523 0.959 . S
H509 C523 0.961 . S
H510 C524 0.960 . S
H511 C524 0.961 . S
H512 C524 0.959 . S
H513 C527 0.929 . S
H514 C528 0.931 . S
H515 C530 0.930 . S
C516 H504 0.930 . S
C516 C517 1.399 . S
C516 C521 1.399 . S
C517 C516 1.399 . S
C517 C518 1.376 . S
C518 H505 0.930 . S
C518 C517 1.376 . S
C518 C519 1.388 . S
C519 H506 0.930 . S
C519 C518 1.388 . S
C519 C520 1.390 . S
C520 C519 1.390 . S
C520 C521 1.394 . S
C520 C526 1.465 . S
C521 C516 1.399 . S
C521 C520 1.394 . S
C521 C522 1.516 . S
C522 C521 1.516 . S
C522 C523 1.502 . S
C522 C524 1.561 . S
C522 C525 1.526 . S
C523 H507 0.959 . S
C523 H508 0.959 . S
C523 H509 0.961 . S
C523 C522 1.502 . S
C524 H510 0.960 . S
C524 H511 0.961 . S
C524 H512 0.959 . S
C524 C522 1.561 . S
C525 C522 1.526 . S
C525 C526 1.396 . S
C525 C530 1.390 . S
C526 C520 1.465 . S
C526 C525 1.396 . S
C526 C527 1.399 . S
C527 H513 0.929 . S
C527 C526 1.399 . S
C527 C528 1.385 . S
C528 H514 0.931 . S
C528 C527 1.385 . S
C528 C529 1.389 . S
C529 C528 1.389 . S
C529 C530 1.387 . S
C530 H515 0.930 . S
C530 C525 1.390 . S
C530 C529 1.387 . S
H531 C543 0.930 . S
H532 C545 0.930 . S
H533 C546 0.930 . S
H534 C550 0.959 . S
H535 C550 0.959 . S
H536 C550 0.961 1_545 S
H537 C551 0.960 1_545 S
H538 C551 0.961 . S
H539 C551 0.959 . S
H540 C554 0.929 . S
H541 C555 0.931 . S
H542 C557 0.930 . S
C543 H531 0.930 . S
C543 C544 1.399 . S
C543 C548 1.399 . S
C544 C543 1.399 . S
C544 C545 1.376 . S
C545 H532 0.930 . S
C545 C544 1.376 . S
C545 C546 1.388 . S
C546 H533 0.930 . S
C546 C545 1.388 . S
C546 C547 1.390 . S
C547 C546 1.390 . S
C547 C548 1.394 . S
C547 C553 1.465 1_545 S
C548 C543 1.399 . S
C548 C547 1.394 . S
C548 C549 1.516 1_545 S
C549 C548 1.516 1_565 S
C549 C550 1.502 . S
C549 C551 1.561 . S
C549 C552 1.526 . S
C550 H534 0.959 . S
C550 H535 0.959 . S
C550 H536 0.961 1_565 S
C550 C549 1.502 . S
C551 H537 0.960 1_565 S
C551 H538 0.961 . S
C551 H539 0.959 . S
C551 C549 1.561 . S
C552 C549 1.526 . S
C552 C553 1.396 . S
C552 C557 1.390 . S
C553 C547 1.465 1_565 S
C553 C552 1.396 . S
C553 C554 1.399 . S
C554 H540 0.929 . S
C554 C553 1.399 . S
C554 C555 1.385 . S
C555 H541 0.931 . S
C555 C554 1.385 . S
C555 C556 1.389 . S
C556 C555 1.389 . S
C556 C557 1.387 . S
C557 H542 0.930 . S
C557 C552 1.390 . S
C557 C556 1.387 . S
H558 C570 0.930 . S
H559 C572 0.930 . S
H560 C573 0.930 . S
H561 C577 0.959 . S
H562 C577 0.959 . S
H563 C577 0.961 1_565 S
H564 C578 0.960 1_565 S
H565 C578 0.961 . S
H566 C578 0.959 . S
H567 C581 0.929 . S
H568 C582 0.931 . S
H569 C584 0.930 . S
C570 H558 0.930 . S
C570 C571 1.399 . S
C570 C575 1.399 . S
C571 C570 1.399 . S
C571 C572 1.376 . S
C572 H559 0.930 . S
C572 C571 1.376 . S
C572 C573 1.388 . S
C573 H560 0.930 . S
C573 C572 1.388 . S
C573 C574 1.390 . S
C574 C573 1.390 . S
C574 C575 1.394 . S
C574 C580 1.465 1_565 S
C575 C570 1.399 . S
C575 C574 1.394 . S
C575 C576 1.516 1_565 S
C576 C575 1.516 1_545 S
C576 C577 1.502 . S
C576 C578 1.561 . S
C576 C579 1.526 . S
C577 H561 0.959 . S
C577 H562 0.959 . S
C577 H563 0.961 1_545 S
C577 C576 1.502 . S
C578 H564 0.960 1_545 S
C578 H565 0.961 . S
C578 H566 0.959 . S
C578 C576 1.561 . S
C579 C576 1.526 . S
C579 C580 1.396 . S
C579 C584 1.390 . S
C580 C574 1.465 1_545 S
C580 C579 1.396 . S
C580 C581 1.399 . S
C581 H567 0.929 . S
C581 C580 1.399 . S
C581 C582 1.385 . S
C582 H568 0.931 . S
C582 C581 1.385 . S
C582 C583 1.389 . S
C583 C582 1.389 . S
C583 C584 1.387 . S
C584 H569 0.930 . S
C584 C579 1.390 . S
C584 C583 1.387 . S
H585 C597 0.930 . S
H586 C599 0.930 . S
H587 C600 0.930 . S
H588 C604 0.959 . S
H589 C604 0.959 1_655 S
H590 C604 0.961 . S
H591 C605 0.960 . S
H592 C605 0.961 1_655 S
H593 C605 0.959 1_655 S
H594 C608 0.929 . S
H595 C609 0.931 . S
H596 C611 0.930 . S
C597 H585 0.930 . S
C597 C598 1.399 . S
C597 C602 1.399 . S
C598 C597 1.399 . S
C598 C599 1.376 . S
C599 H586 0.930 . S
C599 C598 1.376 . S
C599 C600 1.388 . S
C600 H587 0.930 . S
C600 C599 1.388 . S
C600 C601 1.390 . S
C601 C600 1.390 . S
C601 C602 1.394 . S
C601 C607 1.465 1_455 S
C602 C597 1.399 . S
C602 C601 1.394 . S
C602 C603 1.516 . S
C603 C602 1.516 . S
C603 C604 1.502 . S
C603 C605 1.561 . S
C603 C606 1.526 1_455 S
C604 H588 0.959 . S
C604 H589 0.959 1_455 S
C604 H590 0.961 . S
C604 C603 1.502 . S
C605 H591 0.960 . S
C605 H592 0.961 1_455 S
C605 H593 0.959 1_455 S
C605 C603 1.561 . S
C606 C603 1.526 1_655 S
C606 C607 1.396 . S
C606 C611 1.390 . S
C607 C601 1.465 1_655 S
C607 C606 1.396 . S
C607 C608 1.399 . S
C608 H594 0.929 . S
C608 C607 1.399 . S
C608 C609 1.385 . S
C609 H595 0.931 . S
C609 C608 1.385 . S
C609 C610 1.389 . S
C610 C609 1.389 . S
C610 C611 1.387 . S
C611 H596 0.930 . S
C611 C606 1.390 . S
C611 C610 1.387 . S
H612 C624 0.930 . S
H613 C626 0.930 . S
H614 C627 0.930 . S
H615 C631 0.959 . S
H616 C631 0.959 . S
H617 C631 0.961 . S
H618 C632 0.960 . S
H619 C632 0.961 . S
H620 C632 0.959 . S
H621 C635 0.929 . S
H622 C636 0.931 . S
H623 C638 0.930 . S
C624 H612 0.930 . S
C624 C625 1.399 . S
C624 C629 1.399 . S
C625 C624 1.399 . S
C625 C626 1.376 . S
C626 H613 0.930 . S
C626 C625 1.376 . S
C626 C627 1.388 . S
C627 H614 0.930 . S
C627 C626 1.388 . S
C627 C628 1.390 . S
C628 C627 1.390 . S
C628 C629 1.394 . S
C628 C634 1.465 . S
C629 C624 1.399 . S
C629 C628 1.394 . S
C629 C630 1.516 . S
C630 C629 1.516 . S
C630 C631 1.502 . S
C630 C632 1.561 . S
C630 C633 1.526 . S
C631 H615 0.959 . S
C631 H616 0.959 . S
C631 H617 0.961 . S
C631 C630 1.502 . S
C632 H618 0.960 . S
C632 H619 0.961 . S
C632 H620 0.959 . S
C632 C630 1.561 . S
C633 C630 1.526 . S
C633 C634 1.396 . S
C633 C638 1.390 . S
C634 C628 1.465 . S
C634 C633 1.396 . S
C634 C635 1.399 . S
C635 H621 0.929 . S
C635 C634 1.399 . S
C635 C636 1.385 . S
C636 H622 0.931 . S
C636 C635 1.385 . S
C636 C637 1.389 . S
C637 C636 1.389 . S
C637 C638 1.387 . S
C638 H623 0.930 . S
C638 C633 1.390 . S
C638 C637 1.387 . S
H639 C651 0.930 . S
H640 C653 0.930 . S
H641 C654 0.930 . S
H642 C658 0.959 . S
H643 C658 0.959 . S
H644 C658 0.961 . S
H645 C659 0.960 . S
H646 C659 0.961 . S
H647 C659 0.959 . S
H648 C662 0.929 . S
H649 C663 0.931 . S
H650 C665 0.930 . S
C651 H639 0.930 . S
C651 C652 1.399 . S
C651 C656 1.399 . S
C652 C651 1.399 . S
C652 C653 1.376 . S
C653 H640 0.930 . S
C653 C652 1.376 . S
C653 C654 1.388 . S
C654 H641 0.930 . S
C654 C653 1.388 . S
C654 C655 1.390 . S
C655 C654 1.390 . S
C655 C656 1.394 . S
C655 C661 1.465 . S
C656 C651 1.399 . S
C656 C655 1.394 . S
C656 C657 1.516 . S
C657 C656 1.516 . S
C657 C658 1.502 . S
C657 C659 1.561 . S
C657 C660 1.526 . S
C658 H642 0.959 . S
C658 H643 0.959 . S
C658 H644 0.961 . S
C658 C657 1.502 . S
C659 H645 0.960 . S
C659 H646 0.961 . S
C659 H647 0.959 . S
C659 C657 1.561 . S
C660 C657 1.526 . S
C660 C661 1.396 . S
C660 C665 1.390 . S
C661 C655 1.465 . S
C661 C660 1.396 . S
C661 C662 1.399 . S
C662 H648 0.929 . S
C662 C661 1.399 . S
C662 C663 1.385 . S
C663 H649 0.931 . S
C663 C662 1.385 . S
C663 C664 1.389 . S
C664 C663 1.389 . S
C664 C665 1.387 . S
C665 H650 0.930 . S
C665 C660 1.390 . S
C665 C664 1.387 . S
H666 C678 0.930 . S
H667 C680 0.930 . S
H668 C681 0.930 . S
H669 C685 0.959 . S
H670 C685 0.959 . S
H671 C685 0.961 . S
H672 C686 0.960 . S
H673 C686 0.961 . S
H674 C686 0.959 . S
H675 C689 0.929 . S
H676 C690 0.931 . S
H677 C692 0.930 . S
C678 H666 0.930 . S
C678 C679 1.399 . S
C678 C683 1.399 . S
C679 C678 1.399 . S
C679 C680 1.376 . S
C680 H667 0.930 . S
C680 C679 1.376 . S
C680 C681 1.388 . S
C681 H668 0.930 . S
C681 C680 1.388 . S
C681 C682 1.390 . S
C682 C681 1.390 . S
C682 C683 1.394 . S
C682 C688 1.465 . S
C683 C678 1.399 . S
C683 C682 1.394 . S
C683 C684 1.516 . S
C684 C683 1.516 . S
C684 C685 1.502 . S
C684 C686 1.561 . S
C684 C687 1.526 . S
C685 H669 0.959 . S
C685 H670 0.959 . S
C685 H671 0.961 . S
C685 C684 1.502 . S
C686 H672 0.960 . S
C686 H673 0.961 . S
C686 H674 0.959 . S
C686 C684 1.561 . S
C687 C684 1.526 . S
C687 C688 1.396 . S
C687 C692 1.390 . S
C688 C682 1.465 . S
C688 C687 1.396 . S
C688 C689 1.399 . S
C689 H675 0.929 . S
C689 C688 1.399 . S
C689 C690 1.385 . S
C690 H676 0.931 . S
C690 C689 1.385 . S
C690 C691 1.389 . S
C691 C690 1.389 . S
C691 C692 1.387 . S
C692 H677 0.930 . S
C692 C687 1.390 . S
C692 C691 1.387 . S
H693 C705 0.930 . S
H694 C707 0.930 . S
H695 C708 0.930 . S
H696 C712 0.959 . S
H697 C712 0.959 . S
H698 C712 0.961 . S
H699 C713 0.960 . S
H700 C713 0.961 . S
H701 C713 0.959 . S
H702 C716 0.929 . S
H703 C717 0.931 . S
H704 C719 0.930 . S
C705 H693 0.930 . S
C705 C706 1.399 . S
C705 C710 1.399 . S
C706 C705 1.399 . S
C706 C707 1.376 . S
C707 H694 0.930 . S
C707 C706 1.376 . S
C707 C708 1.388 . S
C708 H695 0.930 . S
C708 C707 1.388 . S
C708 C709 1.390 . S
C709 C708 1.390 . S
C709 C710 1.394 . S
C709 C715 1.465 . S
C710 C705 1.399 . S
C710 C709 1.394 . S
C710 C711 1.516 . S
C711 C710 1.516 . S
C711 C712 1.502 . S
C711 C713 1.561 . S
C711 C714 1.526 . S
C712 H696 0.959 . S
C712 H697 0.959 . S
C712 H698 0.961 . S
C712 C711 1.502 . S
C713 H699 0.960 . S
C713 H700 0.961 . S
C713 H701 0.959 . S
C713 C711 1.561 . S
C714 C711 1.526 . S
C714 C715 1.396 . S
C714 C719 1.390 . S
C715 C709 1.465 . S
C715 C714 1.396 . S
C715 C716 1.399 . S
C716 H702 0.929 . S
C716 C715 1.399 . S
C716 C717 1.385 . S
C717 H703 0.931 . S
C717 C716 1.385 . S
C717 C718 1.389 . S
C718 C717 1.389 . S
C718 C719 1.387 . S
C719 H704 0.930 . S
C719 C714 1.390 . S
C719 C718 1.387 . S
H720 C732 0.930 . S
H721 C734 0.930 . S
H722 C735 0.930 . S
H723 C739 0.959 . S
H724 C739 0.959 . S
H725 C739 0.961 . S
H726 C740 0.960 . S
H727 C740 0.961 . S
H728 C740 0.959 . S
H729 C743 0.929 . S
H730 C744 0.931 . S
H731 C746 0.930 . S
C732 H720 0.930 . S
C732 C733 1.399 . S
C732 C737 1.399 . S
C733 C732 1.399 . S
C733 C734 1.376 . S
C734 H721 0.930 . S
C734 C733 1.376 . S
C734 C735 1.388 . S
C735 H722 0.930 . S
C735 C734 1.388 . S
C735 C736 1.390 . S
C736 C735 1.390 . S
C736 C737 1.394 . S
C736 C742 1.465 . S
C737 C732 1.399 . S
C737 C736 1.394 . S
C737 C738 1.516 . S
C738 C737 1.516 . S
C738 C739 1.502 . S
C738 C740 1.561 . S
C738 C741 1.526 . S
C739 H723 0.959 . S
C739 H724 0.959 . S
C739 H725 0.961 . S
C739 C738 1.502 . S
C740 H726 0.960 . S
C740 H727 0.961 . S
C740 H728 0.959 . S
C740 C738 1.561 . S
C741 C738 1.526 . S
C741 C742 1.396 . S
C741 C746 1.390 . S
C742 C736 1.465 . S
C742 C741 1.396 . S
C742 C743 1.399 . S
C743 H729 0.929 . S
C743 C742 1.399 . S
C743 C744 1.385 . S
C744 H730 0.931 . S
C744 C743 1.385 . S
C744 C745 1.389 . S
C745 C744 1.389 . S
C745 C746 1.387 . S
C746 H731 0.930 . S
C746 C741 1.390 . S
C746 C745 1.387 . S
H747 C759 0.930 . S
H748 C761 0.930 . S
H749 C762 0.930 . S
H750 C766 0.959 . S
H751 C766 0.959 . S
H752 C766 0.961 . S
H753 C767 0.960 . S
H754 C767 0.961 . S
H755 C767 0.959 . S
H756 C770 0.929 . S
H757 C771 0.931 . S
H758 C773 0.930 . S
C759 H747 0.930 . S
C759 C760 1.399 . S
C759 C764 1.399 . S
C760 C759 1.399 . S
C760 C761 1.376 . S
C761 H748 0.930 . S
C761 C760 1.376 . S
C761 C762 1.388 . S
C762 H749 0.930 . S
C762 C761 1.388 . S
C762 C763 1.390 . S
C763 C762 1.390 . S
C763 C764 1.394 . S
C763 C769 1.465 . S
C764 C759 1.399 . S
C764 C763 1.394 . S
C764 C765 1.516 . S
C765 C764 1.516 . S
C765 C766 1.502 . S
C765 C767 1.561 . S
C765 C768 1.526 . S
C766 H750 0.959 . S
C766 H751 0.959 . S
C766 H752 0.961 . S
C766 C765 1.502 . S
C767 H753 0.960 . S
C767 H754 0.961 . S
C767 H755 0.959 . S
C767 C765 1.561 . S
C768 C765 1.526 . S
C768 C769 1.396 . S
C768 C773 1.390 . S
C769 C763 1.465 . S
C769 C768 1.396 . S
C769 C770 1.399 . S
C770 H756 0.929 . S
C770 C769 1.399 . S
C770 C771 1.385 . S
C771 H757 0.931 . S
C771 C770 1.385 . S
C771 C772 1.389 . S
C772 C771 1.389 . S
C772 C773 1.387 . S
C773 H758 0.930 . S
C773 C768 1.390 . S
C773 C772 1.387 . S
H774 C786 0.930 . S
H775 C788 0.930 . S
H776 C789 0.930 . S
H777 C793 0.959 . S
H778 C793 0.959 . S
H779 C793 0.961 . S
H780 C794 0.960 . S
H781 C794 0.961 . S
H782 C794 0.959 . S
H783 C797 0.929 . S
H784 C798 0.931 . S
H785 C800 0.930 . S
C786 H774 0.930 . S
C786 C787 1.399 . S
C786 C791 1.399 . S
C787 C786 1.399 . S
C787 C788 1.376 . S
C788 H775 0.930 . S
C788 C787 1.376 . S
C788 C789 1.388 . S
C789 H776 0.930 . S
C789 C788 1.388 . S
C789 C790 1.390 . S
C790 C789 1.390 . S
C790 C791 1.394 . S
C790 C796 1.465 . S
C791 C786 1.399 . S
C791 C790 1.394 . S
C791 C792 1.516 . S
C792 C791 1.516 . S
C792 C793 1.502 . S
C792 C794 1.561 . S
C792 C795 1.526 . S
C793 H777 0.959 . S
C793 H778 0.959 . S
C793 H779 0.961 . S
C793 C792 1.502 . S
C794 H780 0.960 . S
C794 H781 0.961 . S
C794 H782 0.959 . S
C794 C792 1.561 . S
C795 C792 1.526 . S
C795 C796 1.396 . S
C795 C800 1.390 . S
C796 C790 1.465 . S
C796 C795 1.396 . S
C796 C797 1.399 . S
C797 H783 0.929 . S
C797 C796 1.399 . S
C797 C798 1.385 . S
C798 H784 0.931 . S
C798 C797 1.385 . S
C798 C799 1.389 . S
C799 C798 1.389 . S
C799 C800 1.387 . S
C800 H785 0.930 . S
C800 C795 1.390 . S
C800 C799 1.387 . S
H801 C813 0.930 . S
H802 C815 0.930 . S
H803 C816 0.930 . S
H804 C820 0.959 . S
H805 C820 0.959 . S
H806 C820 0.961 . S
H807 C821 0.960 . S
H808 C821 0.961 . S
H809 C821 0.959 . S
H810 C824 0.929 . S
H811 C825 0.931 . S
H812 C827 0.930 . S
C813 H801 0.930 . S
C813 C814 1.399 . S
C813 C818 1.399 . S
C814 C813 1.399 . S
C814 C815 1.376 . S
C815 H802 0.930 . S
C815 C814 1.376 . S
C815 C816 1.388 . S
C816 H803 0.930 . S
C816 C815 1.388 . S
C816 C817 1.390 . S
C817 C816 1.390 . S
C817 C818 1.394 . S
C817 C823 1.465 . S
C818 C813 1.399 . S
C818 C817 1.394 . S
C818 C819 1.516 . S
C819 C818 1.516 . S
C819 C820 1.502 . S
C819 C821 1.561 . S
C819 C822 1.526 . S
C820 H804 0.959 . S
C820 H805 0.959 . S
C820 H806 0.961 . S
C820 C819 1.502 . S
C821 H807 0.960 . S
C821 H808 0.961 . S
C821 H809 0.959 . S
C821 C819 1.561 . S
C822 C819 1.526 . S
C822 C823 1.396 . S
C822 C827 1.390 . S
C823 C817 1.465 . S
C823 C822 1.396 . S
C823 C824 1.399 . S
C824 H810 0.929 . S
C824 C823 1.399 . S
C824 C825 1.385 . S
C825 H811 0.931 . S
C825 C824 1.385 . S
C825 C826 1.389 . S
C826 C825 1.389 . S
C826 C827 1.387 . S
C827 H812 0.930 . S
C827 C822 1.390 . S
C827 C826 1.387 . S
H828 C840 0.930 . S
H829 C842 0.930 . S
H830 C843 0.930 . S
H831 C847 0.959 . S
H832 C847 0.959 . S
H833 C847 0.961 . S
H834 C848 0.960 . S
H835 C848 0.961 . S
H836 C848 0.959 . S
H837 C851 0.929 . S
H838 C852 0.931 . S
H839 C854 0.930 . S
C840 H828 0.930 . S
C840 C841 1.399 . S
C840 C845 1.399 . S
C841 C840 1.399 . S
C841 C842 1.376 . S
C842 H829 0.930 . S
C842 C841 1.376 . S
C842 C843 1.388 . S
C843 H830 0.930 . S
C843 C842 1.388 . S
C843 C844 1.390 . S
C844 C843 1.390 . S
C844 C845 1.394 . S
C844 C850 1.465 . S
C845 C840 1.399 . S
C845 C844 1.394 . S
C845 C846 1.516 . S
C846 C845 1.516 . S
C846 C847 1.502 . S
C846 C848 1.561 . S
C846 C849 1.526 . S
C847 H831 0.959 . S
C847 H832 0.959 . S
C847 H833 0.961 . S
C847 C846 1.502 . S
C848 H834 0.960 . S
C848 H835 0.961 . S
C848 H836 0.959 . S
C848 C846 1.561 . S
C849 C846 1.526 . S
C849 C850 1.396 . S
C849 C854 1.390 . S
C850 C844 1.465 . S
C850 C849 1.396 . S
C850 C851 1.399 . S
C851 H837 0.929 . S
C851 C850 1.399 . S
C851 C852 1.385 . S
C852 H838 0.931 . S
C852 C851 1.385 . S
C852 C853 1.389 . S
C853 C852 1.389 . S
C853 C854 1.387 . S
C854 H839 0.930 . S
C854 C849 1.390 . S
C854 C853 1.387 . S
H855 C867 0.930 . S
H856 C869 0.930 . S
H857 C870 0.930 . S
H858 C874 0.959 . S
H859 C874 0.959 . S
H860 C874 0.961 . S
H861 C875 0.960 . S
H862 C875 0.961 . S
H863 C875 0.959 . S
H864 C878 0.929 . S
H865 C879 0.931 . S
H866 C881 0.930 . S
C867 H855 0.930 . S
C867 C868 1.399 . S
C867 C872 1.399 . S
C868 C867 1.399 . S
C868 C869 1.376 . S
C869 H856 0.930 . S
C869 C868 1.376 . S
C869 C870 1.388 . S
C870 H857 0.930 . S
C870 C869 1.388 . S
C870 C871 1.390 . S
C871 C870 1.390 . S
C871 C872 1.394 . S
C871 C877 1.465 . S
C872 C867 1.399 . S
C872 C871 1.394 . S
C872 C873 1.516 . S
C873 C872 1.516 . S
C873 C874 1.502 . S
C873 C875 1.561 . S
C873 C876 1.526 . S
C874 H858 0.959 . S
C874 H859 0.959 . S
C874 H860 0.961 . S
C874 C873 1.502 . S
C875 H861 0.960 . S
C875 H862 0.961 . S
C875 H863 0.959 . S
C875 C873 1.561 . S
C876 C873 1.526 . S
C876 C877 1.396 . S
C876 C881 1.390 . S
C877 C871 1.465 . S
C877 C876 1.396 . S
C877 C878 1.399 . S
C878 H864 0.929 . S
C878 C877 1.399 . S
C878 C879 1.385 . S
C879 H865 0.931 . S
C879 C878 1.385 . S
C879 C880 1.389 . S
C880 C879 1.389 . S
C880 C881 1.387 . S
C881 H866 0.930 . S
C881 C876 1.390 . S
C881 C880 1.387 . S
H882 C894 0.930 . S
H883 C896 0.930 . S
H884 C897 0.930 . S
H885 C901 0.959 . S
H886 C901 0.959 . S
H887 C901 0.961 . S
H888 C902 0.960 . S
H889 C902 0.961 . S
H890 C902 0.959 . S
H891 C905 0.929 . S
H892 C906 0.931 . S
H893 C908 0.930 . S
C894 H882 0.930 . S
C894 C895 1.399 . S
C894 C899 1.399 . S
C895 C894 1.399 . S
C895 C896 1.376 . S
C896 H883 0.930 . S
C896 C895 1.376 . S
C896 C897 1.388 . S
C897 H884 0.930 . S
C897 C896 1.388 . S
C897 C898 1.390 . S
C898 C897 1.390 . S
C898 C899 1.394 . S
C898 C904 1.465 . S
C899 C894 1.399 . S
C899 C898 1.394 . S
C899 C900 1.516 . S
C900 C899 1.516 . S
C900 C901 1.502 . S
C900 C902 1.561 . S
C900 C903 1.526 . S
C901 H885 0.959 . S
C901 H886 0.959 . S
C901 H887 0.961 . S
C901 C900 1.502 . S
C902 H888 0.960 . S
C902 H889 0.961 . S
C902 H890 0.959 . S
C902 C900 1.561 . S
C903 C900 1.526 . S
C903 C904 1.396 . S
C903 C908 1.390 . S
C904 C898 1.465 . S
C904 C903 1.396 . S
C904 C905 1.399 . S
C905 H891 0.929 . S
C905 C904 1.399 . S
C905 C906 1.385 . S
C906 H892 0.931 . S
C906 C905 1.385 . S
C906 C907 1.389 . S
C907 C906 1.389 . S
C907 C908 1.387 . S
C908 H893 0.930 . S
C908 C903 1.390 . S
C908 C907 1.387 . S
H909 C921 0.930 . S
H910 C923 0.930 . S
H911 C924 0.930 . S
H912 C928 0.959 . S
H913 C928 0.959 . S
H914 C928 0.961 . S
H915 C929 0.960 . S
H916 C929 0.961 . S
H917 C929 0.959 . S
H918 C932 0.929 . S
H919 C933 0.931 . S
H920 C935 0.930 . S
C921 H909 0.930 . S
C921 C922 1.399 . S
C921 C926 1.399 . S
C922 C921 1.399 . S
C922 C923 1.376 . S
C923 H910 0.930 . S
C923 C922 1.376 . S
C923 C924 1.388 . S
C924 H911 0.930 . S
C924 C923 1.388 . S
C924 C925 1.390 . S
C925 C924 1.390 . S
C925 C926 1.394 . S
C925 C931 1.465 . S
C926 C921 1.399 . S
C926 C925 1.394 . S
C926 C927 1.516 . S
C927 C926 1.516 . S
C927 C928 1.502 . S
C927 C929 1.561 . S
C927 C930 1.526 . S
C928 H912 0.959 . S
C928 H913 0.959 . S
C928 H914 0.961 . S
C928 C927 1.502 . S
C929 H915 0.960 . S
C929 H916 0.961 . S
C929 H917 0.959 . S
C929 C927 1.561 . S
C930 C927 1.526 . S
C930 C931 1.396 . S
C930 C935 1.390 . S
C931 C925 1.465 . S
C931 C930 1.396 . S
C931 C932 1.399 . S
C932 H918 0.929 . S
C932 C931 1.399 . S
C932 C933 1.385 . S
C933 H919 0.931 . S
C933 C932 1.385 . S
C933 C934 1.389 . S
C934 C933 1.389 . S
C934 C935 1.387 . S
C935 H920 0.930 . S
C935 C930 1.390 . S
C935 C934 1.387 . S
H936 C948 0.930 . S
H937 C950 0.930 . S
H938 C951 0.930 . S
H939 C955 0.959 . S
H940 C955 0.959 . S
H941 C955 0.961 . S
H942 C956 0.960 . S
H943 C956 0.961 . S
H944 C956 0.959 . S
H945 C959 0.929 . S
H946 C960 0.931 . S
H947 C962 0.930 . S
C948 H936 0.930 . S
C948 C949 1.399 . S
C948 C953 1.399 . S
C949 C948 1.399 . S
C949 C950 1.376 . S
C950 H937 0.930 . S
C950 C949 1.376 . S
C950 C951 1.388 . S
C951 H938 0.930 . S
C951 C950 1.388 . S
C951 C952 1.390 . S
C952 C951 1.390 . S
C952 C953 1.394 . S
C952 C958 1.465 . S
C953 C948 1.399 . S
C953 C952 1.394 . S
C953 C954 1.516 . S
C954 C953 1.516 . S
C954 C955 1.502 . S
C954 C956 1.561 . S
C954 C957 1.526 . S
C955 H939 0.959 . S
C955 H940 0.959 . S
C955 H941 0.961 . S
C955 C954 1.502 . S
C956 H942 0.960 . S
C956 H943 0.961 . S
C956 H944 0.959 . S
C956 C954 1.561 . S
C957 C954 1.526 . S
C957 C958 1.396 . S
C957 C962 1.390 . S
C958 C952 1.465 . S
C958 C957 1.396 . S
C958 C959 1.399 . S
C959 H945 0.929 . S
C959 C958 1.399 . S
C959 C960 1.385 . S
C960 H946 0.931 . S
C960 C959 1.385 . S
C960 C961 1.389 . S
C961 C960 1.389 . S
C961 C962 1.387 . S
C962 H947 0.930 . S
C962 C957 1.390 . S
C962 C961 1.387 . S
H963 C975 0.930 . S
H964 C977 0.930 . S
H965 C978 0.930 . S
H966 C982 0.959 . S
H967 C982 0.959 . S
H968 C982 0.961 1_554 S
H969 C983 0.960 1_554 S
H970 C983 0.961 . S
H971 C983 0.959 . S
H972 C986 0.929 . S
H973 C987 0.931 . S
H974 C989 0.930 . S
C975 H963 0.930 . S
C975 C976 1.399 . S
C975 C980 1.399 . S
C976 C975 1.399 . S
C976 C977 1.376 . S
C977 H964 0.930 . S
C977 C976 1.376 . S
C977 C978 1.388 . S
C978 H965 0.930 . S
C978 C977 1.388 . S
C978 C979 1.390 . S
C979 C978 1.390 . S
C979 C980 1.394 . S
C979 C985 1.465 1_554 S
C980 C975 1.399 . S
C980 C979 1.394 . S
C980 C981 1.516 1_554 S
C981 C980 1.516 1_556 S
C981 C982 1.502 . S
C981 C983 1.561 . S
C981 C984 1.526 . S
C982 H966 0.959 . S
C982 H967 0.959 . S
C982 H968 0.961 1_556 S
C982 C981 1.502 . S
C983 H969 0.960 1_556 S
C983 H970 0.961 . S
C983 H971 0.959 . S
C983 C981 1.561 . S
C984 C981 1.526 . S
C984 C985 1.396 . S
C984 C989 1.390 . S
C985 C979 1.465 1_556 S
C985 C984 1.396 . S
C985 C986 1.399 . S
C986 H972 0.929 . S
C986 C985 1.399 . S
C986 C987 1.385 . S
C987 H973 0.931 . S
C987 C986 1.385 . S
C987 C988 1.389 . S
C988 C987 1.389 . S
C988 C989 1.387 . S
C989 H974 0.930 . S
C989 C984 1.390 . S
C989 C988 1.387 . S
H990 C1002 0.930 . S
H991 C1004 0.930 . S
H992 C1005 0.930 . S
H993 C1009 0.959 . S
H994 C1009 0.959 1_554 S
H995 C1009 0.961 . S
H996 C1010 0.960 . S
H997 C1010 0.961 1_554 S
H998 C1010 0.959 . S
H999 C1013 0.929 . S
H1000 C1014 0.931 . S
H1001 C1016 0.930 . S
C1002 H990 0.930 . S
C1002 C1003 1.399 1_565 S
C1002 C1007 1.399 . S
C1003 C1002 1.399 1_545 S
C1003 C1004 1.376 . S
C1004 H991 0.930 . S
C1004 C1003 1.376 . S
C1004 C1005 1.388 . S
C1005 H992 0.930 . S
C1005 C1004 1.388 . S
C1005 C1006 1.390 . S
C1006 C1005 1.390 . S
C1006 C1007 1.394 1_545 S
C1006 C1012 1.465 1_556 S
C1007 C1002 1.399 . S
C1007 C1006 1.394 1_565 S
C1007 C1008 1.516 . S
C1008 C1007 1.516 . S
C1008 C1009 1.502 . S
C1008 C1010 1.561 . S
C1008 C1011 1.526 1_556 S
C1009 H993 0.959 . S
C1009 H994 0.959 1_556 S
C1009 H995 0.961 . S
C1009 C1008 1.502 . S
C1010 H996 0.960 . S
C1010 H997 0.961 1_556 S
C1010 H998 0.959 . S
C1010 C1008 1.561 . S
C1011 C1008 1.526 1_554 S
C1011 C1012 1.396 1_565 S
C1011 C1016 1.390 . S
C1012 C1006 1.465 1_554 S
C1012 C1011 1.396 1_545 S
C1012 C1013 1.399 . S
C1013 H999 0.929 . S
C1013 C1012 1.399 . S
C1013 C1014 1.385 . S
C1014 H1000 0.931 . S
C1014 C1013 1.385 . S
C1014 C1015 1.389 1_545 S
C1015 C1014 1.389 1_565 S
C1015 C1016 1.387 . S
C1016 H1001 0.930 . S
C1016 C1011 1.390 . S
C1016 C1015 1.387 . S
H1017 C1029 0.930 . S
H1018 C1031 0.930 . S
H1019 C1032 0.930 . S
H1020 C1036 0.959 . S
H1021 C1036 0.959 . S
H1022 C1036 0.961 1_556 S
H1023 C1037 0.960 1_556 S
H1024 C1037 0.961 . S
H1025 C1037 0.959 . S
H1026 C1040 0.929 . S
H1027 C1041 0.931 . S
H1028 C1043 0.930 . S
C1029 H1017 0.930 . S
C1029 C1030 1.411 . S
C1029 C1034 1.399 . S
C1030 C1029 1.411 . S
C1030 C1031 1.360 1_655 S
C1031 H1018 0.930 . S
C1031 C1030 1.360 1_455 S
C1031 C1032 1.388 . S
C1032 H1019 0.930 . S
C1032 C1031 1.388 . S
C1032 C1033 1.390 . S
C1033 C1032 1.390 . S
C1033 C1034 1.394 1_455 S
C1033 C1039 1.465 1_556 S
C1034 C1029 1.399 . S
C1034 C1033 1.394 1_655 S
C1034 C1035 1.516 1_556 S
C1035 C1034 1.516 1_554 S
C1035 C1036 1.502 . S
C1035 C1037 1.561 . S
C1035 C1038 1.526 . S
C1036 H1020 0.959 . S
C1036 H1021 0.959 . S
C1036 H1022 0.961 1_554 S
C1036 C1035 1.502 . S
C1037 H1023 0.960 1_554 S
C1037 H1024 0.961 . S
C1037 H1025 0.959 . S
C1037 C1035 1.561 . S
C1038 C1035 1.526 . S
C1038 C1039 1.396 1_655 S
C1038 C1043 1.390 . S
C1039 C1033 1.465 1_554 S
C1039 C1038 1.396 1_455 S
C1039 C1040 1.399 . S
C1040 H1026 0.929 . S
C1040 C1039 1.399 . S
C1040 C1041 1.385 . S
C1041 H1027 0.931 . S
C1041 C1040 1.385 . S
C1041 C1042 1.389 . S
C1042 C1041 1.389 . S
C1042 C1043 1.387 1_455 S
C1043 H1028 0.930 . S
C1043 C1038 1.390 . S
C1043 C1042 1.387 1_655 S
H1044 C1056 0.930 . S
H1045 C1058 0.930 . S
H1046 C1059 0.930 . S
H1047 C1063 0.959 . S
H1048 C1063 0.959 . S
H1049 C1063 0.961 . S
H1050 C1064 0.960 . S
H1051 C1064 0.961 . S
H1052 C1064 0.959 . S
H1053 C1067 0.929 . S
H1054 C1068 0.931 . S
H1055 C1070 0.930 . S
C1056 H1044 0.930 . S
C1056 C1057 1.399 . S
C1056 C1061 1.399 . S
C1057 C1056 1.399 . S
C1057 C1058 1.376 . S
C1058 H1045 0.930 . S
C1058 C1057 1.376 . S
C1058 C1059 1.388 . S
C1059 H1046 0.930 . S
C1059 C1058 1.388 . S
C1059 C1060 1.390 . S
C1060 C1059 1.390 . S
C1060 C1061 1.394 . S
C1060 C1066 1.465 . S
C1061 C1056 1.399 . S
C1061 C1060 1.394 . S
C1061 C1062 1.516 . S
C1062 C1061 1.516 . S
C1062 C1063 1.502 . S
C1062 C1064 1.561 . S
C1062 C1065 1.526 . S
C1063 H1047 0.959 . S
C1063 H1048 0.959 . S
C1063 H1049 0.961 . S
C1063 C1062 1.502 . S
C1064 H1050 0.960 . S
C1064 H1051 0.961 . S
C1064 H1052 0.959 . S
C1064 C1062 1.561 . S
C1065 C1062 1.526 . S
C1065 C1066 1.396 . S
C1065 C1070 1.390 . S
C1066 C1060 1.465 . S
C1066 C1065 1.396 . S
C1066 C1067 1.399 . S
C1067 H1053 0.929 . S
C1067 C1066 1.399 . S
C1067 C1068 1.385 . S
C1068 H1054 0.931 . S
C1068 C1067 1.385 . S
C1068 C1069 1.389 . S
C1069 C1068 1.389 . S
C1069 C1070 1.387 . S
C1070 H1055 0.930 . S
C1070 C1065 1.390 . S
C1070 C1069 1.387 . S
H1071 C1083 0.930 . S
H1072 C1085 0.930 . S
H1073 C1086 0.930 . S
H1074 C1090 0.959 . S
H1075 C1090 0.959 . S
H1076 C1090 0.961 . S
H1077 C1091 0.960 . S
H1078 C1091 0.961 . S
H1079 C1091 0.959 . S
H1080 C1094 0.929 . S
H1081 C1095 0.931 . S
H1082 C1097 0.930 . S
C1083 H1071 0.930 . S
C1083 C1084 1.399 . S
C1083 C1088 1.399 . S
C1084 C1083 1.399 . S
C1084 C1085 1.376 . S
C1085 H1072 0.930 . S
C1085 C1084 1.376 . S
C1085 C1086 1.388 . S
C1086 H1073 0.930 . S
C1086 C1085 1.388 . S
C1086 C1087 1.390 . S
C1087 C1086 1.390 . S
C1087 C1088 1.394 . S
C1087 C1093 1.465 . S
C1088 C1083 1.399 . S
C1088 C1087 1.394 . S
C1088 C1089 1.516 . S
C1089 C1088 1.516 . S
C1089 C1090 1.502 . S
C1089 C1091 1.561 . S
C1089 C1092 1.526 . S
C1090 H1074 0.959 . S
C1090 H1075 0.959 . S
C1090 H1076 0.961 . S
C1090 C1089 1.502 . S
C1091 H1077 0.960 . S
C1091 H1078 0.961 . S
C1091 H1079 0.959 . S
C1091 C1089 1.561 . S
C1092 C1089 1.526 . S
C1092 C1093 1.396 . S
C1092 C1097 1.390 . S
C1093 C1087 1.465 . S
C1093 C1092 1.396 . S
C1093 C1094 1.399 . S
C1094 H1080 0.929 . S
C1094 C1093 1.399 . S
C1094 C1095 1.385 . S
C1095 H1081 0.931 . S
C1095 C1094 1.385 . S
C1095 C1096 1.389 . S
C1096 C1095 1.389 . S
C1096 C1097 1.387 . S
C1097 H1082 0.930 . S
C1097 C1092 1.390 . S
C1097 C1096 1.387 . S
H1098 C1110 0.930 . S
H1099 C1112 0.930 . S
H1100 C1113 0.930 . S
H1101 C1117 0.959 . S
H1102 C1117 0.959 . S
H1103 C1117 0.961 . S
H1104 C1118 0.960 . S
H1105 C1118 0.961 . S
H1106 C1118 0.959 . S
H1107 C1121 0.929 . S
H1108 C1122 0.931 . S
H1109 C1124 0.930 . S
C1110 H1098 0.930 . S
C1110 C1111 1.399 . S
C1110 C1115 1.399 . S
C1111 C1110 1.399 . S
C1111 C1112 1.376 . S
C1112 H1099 0.930 . S
C1112 C1111 1.376 . S
C1112 C1113 1.388 . S
C1113 H1100 0.930 . S
C1113 C1112 1.388 . S
C1113 C1114 1.390 . S
C1114 C1113 1.390 . S
C1114 C1115 1.394 . S
C1114 C1120 1.465 . S
C1115 C1110 1.399 . S
C1115 C1114 1.394 . S
C1115 C1116 1.516 . S
C1116 C1115 1.516 . S
C1116 C1117 1.502 . S
C1116 C1118 1.561 . S
C1116 C1119 1.526 . S
C1117 H1101 0.959 . S
C1117 H1102 0.959 . S
C1117 H1103 0.961 . S
C1117 C1116 1.502 . S
C1118 H1104 0.960 . S
C1118 H1105 0.961 . S
C1118 H1106 0.959 . S
C1118 C1116 1.561 . S
C1119 C1116 1.526 . S
C1119 C1120 1.396 . S
C1119 C1124 1.390 . S
C1120 C1114 1.465 . S
C1120 C1119 1.396 . S
C1120 C1121 1.399 . S
C1121 H1107 0.929 . S
C1121 C1120 1.399 . S
C1121 C1122 1.385 . S
C1122 H1108 0.931 . S
C1122 C1121 1.385 . S
C1122 C1123 1.389 . S
C1123 C1122 1.389 . S
C1123 C1124 1.387 . S
C1124 H1109 0.930 . S
C1124 C1119 1.390 . S
C1124 C1123 1.387 . S
H1125 C1137 0.930 . S
H1126 C1139 0.930 . S
H1127 C1140 0.930 . S
H1128 C1144 0.959 . S
H1129 C1144 0.959 . S
H1130 C1144 0.961 . S
H1131 C1145 0.960 . S
H1132 C1145 0.961 . S
H1133 C1145 0.959 . S
H1134 C1148 0.929 . S
H1135 C1149 0.931 . S
H1136 C1151 0.930 . S
C1137 H1125 0.930 . S
C1137 C1138 1.399 . S
C1137 C1142 1.399 . S
C1138 C1137 1.399 . S
C1138 C1139 1.376 . S
C1139 H1126 0.930 . S
C1139 C1138 1.376 . S
C1139 C1140 1.388 . S
C1140 H1127 0.930 . S
C1140 C1139 1.388 . S
C1140 C1141 1.390 . S
C1141 C1140 1.390 . S
C1141 C1142 1.394 . S
C1141 C1147 1.465 . S
C1142 C1137 1.399 . S
C1142 C1141 1.394 . S
C1142 C1143 1.516 . S
C1143 C1142 1.516 . S
C1143 C1144 1.502 . S
C1143 C1145 1.561 . S
C1143 C1146 1.526 . S
C1144 H1128 0.959 . S
C1144 H1129 0.959 . S
C1144 H1130 0.961 . S
C1144 C1143 1.502 . S
C1145 H1131 0.960 . S
C1145 H1132 0.961 . S
C1145 H1133 0.959 . S
C1145 C1143 1.561 . S
C1146 C1143 1.526 . S
C1146 C1147 1.396 . S
C1146 C1151 1.390 . S
C1147 C1141 1.465 . S
C1147 C1146 1.396 . S
C1147 C1148 1.399 . S
C1148 H1134 0.929 . S
C1148 C1147 1.399 . S
C1148 C1149 1.385 . S
C1149 H1135 0.931 . S
C1149 C1148 1.385 . S
C1149 C1150 1.389 . S
C1150 C1149 1.389 . S
C1150 C1151 1.387 . S
C1151 H1136 0.930 . S
C1151 C1146 1.390 . S
C1151 C1150 1.387 . S
H1152 C1164 0.930 . S
H1153 C1166 0.930 . S
H1154 C1167 0.930 . S
H1155 C1171 0.959 . S
H1156 C1171 0.959 . S
H1157 C1171 0.961 . S
H1158 C1172 0.960 . S
H1159 C1172 0.961 . S
H1160 C1172 0.959 . S
H1161 C1175 0.929 . S
H1162 C1176 0.931 . S
H1163 C1178 0.930 . S
C1164 H1152 0.930 . S
C1164 C1165 1.399 . S
C1164 C1169 1.399 . S
C1165 C1164 1.399 . S
C1165 C1166 1.376 . S
C1166 H1153 0.930 . S
C1166 C1165 1.376 . S
C1166 C1167 1.388 . S
C1167 H1154 0.930 . S
C1167 C1166 1.388 . S
C1167 C1168 1.390 . S
C1168 C1167 1.390 . S
C1168 C1169 1.394 . S
C1168 C1174 1.465 . S
C1169 C1164 1.399 . S
C1169 C1168 1.394 . S
C1169 C1170 1.516 . S
C1170 C1169 1.516 . S
C1170 C1171 1.502 . S
C1170 C1172 1.561 . S
C1170 C1173 1.526 . S
C1171 H1155 0.959 . S
C1171 H1156 0.959 . S
C1171 H1157 0.961 . S
C1171 C1170 1.502 . S
C1172 H1158 0.960 . S
C1172 H1159 0.961 . S
C1172 H1160 0.959 . S
C1172 C1170 1.561 . S
C1173 C1170 1.526 . S
C1173 C1174 1.396 . S
C1173 C1178 1.390 . S
C1174 C1168 1.465 . S
C1174 C1173 1.396 . S
C1174 C1175 1.399 . S
C1175 H1161 0.929 . S
C1175 C1174 1.399 . S
C1175 C1176 1.385 . S
C1176 H1162 0.931 . S
C1176 C1175 1.385 . S
C1176 C1177 1.389 . S
C1177 C1176 1.389 . S
C1177 C1178 1.387 . S
C1178 H1163 0.930 . S
C1178 C1173 1.390 . S
C1178 C1177 1.387 . S
H1179 C1191 0.930 . S
H1180 C1193 0.930 . S
H1181 C1194 0.930 . S
H1182 C1198 0.959 . S
H1183 C1198 0.959 . S
H1184 C1198 0.961 . S
H1185 C1199 0.960 . S
H1186 C1199 0.961 . S
H1187 C1199 0.959 . S
H1188 C1202 0.929 . S
H1189 C1203 0.931 . S
H1190 C1205 0.930 . S
C1191 H1179 0.930 . S
C1191 C1192 1.399 . S
C1191 C1196 1.399 . S
C1192 C1191 1.399 . S
C1192 C1193 1.376 . S
C1193 H1180 0.930 . S
C1193 C1192 1.376 . S
C1193 C1194 1.388 . S
C1194 H1181 0.930 . S
C1194 C1193 1.388 . S
C1194 C1195 1.390 . S
C1195 C1194 1.390 . S
C1195 C1196 1.394 . S
C1195 C1201 1.465 . S
C1196 C1191 1.399 . S
C1196 C1195 1.394 . S
C1196 C1197 1.516 . S
C1197 C1196 1.516 . S
C1197 C1198 1.502 . S
C1197 C1199 1.561 . S
C1197 C1200 1.526 . S
C1198 H1182 0.959 . S
C1198 H1183 0.959 . S
C1198 H1184 0.961 . S
C1198 C1197 1.502 . S
C1199 H1185 0.960 . S
C1199 H1186 0.961 . S
C1199 H1187 0.959 . S
C1199 C1197 1.561 . S
C1200 C1197 1.526 . S
C1200 C1201 1.396 . S
C1200 C1205 1.390 . S
C1201 C1195 1.465 . S
C1201 C1200 1.396 . S
C1201 C1202 1.399 . S
C1202 H1188 0.929 . S
C1202 C1201 1.399 . S
C1202 C1203 1.385 . S
C1203 H1189 0.931 . S
C1203 C1202 1.385 . S
C1203 C1204 1.389 . S
C1204 C1203 1.389 . S
C1204 C1205 1.387 . S
C1205 H1190 0.930 . S
C1205 C1200 1.390 . S
C1205 C1204 1.387 . S
C247 C130 1.120 . S
C259 C0 1.119 . S
C274 C13 1.114 . S
C286 C143 1.097 . S
C301 C117 1.013 . S
C313 C26 1.052 . S
C328 C182 1.019 . S
C340 C39 1.041 . S
C355 C52 1.114 . S
C367 C156 1.096 . S
C382 C169 1.108 . S
C394 C65 1.111 . S
C409 C78 1.103 . S
C421 C208 1.077 . S
C436 C221 1.027 . S
C448 C91 1.014 . S
C463 C104 1.124 . S
C475 C195 1.100 . S
C490 C5 0.937 . S
C502 C23 0.945 . S
C517 C18 0.856 . S
C529 C36 0.995 . S
C544 C10 1.017 . S
C556 C31 0.996 . S
C571 C75 1.002 . S
C583 C44 0.976 . S
C598 C49 0.959 . S
C610 C57 0.810 . S
C625 C70 0.830 . S
C637 C62 0.989 . S
C652 C83 0.860 . S
C664 C101 1.025 . S
C679 C96 0.977 . S
C691 C114 0.972 . S
C706 C88 1.018 . S
C718 C109 0.976 . S
C733 C153 1.033 . S
C745 C122 0.973 . S
C760 C127 0.939 . S
C772 C135 0.818 . S
C787 C140 1.015 . S
C799 C148 0.963 . S
C814 C179 0.959 . S
C826 C161 0.845 . S
C841 C192 0.993 . S
C853 C174 0.992 . S
C868 C166 0.941 . S
C880 C187 0.808 . S
C895 C200 0.858 . S
C907 C231 1.024 . S
C922 C213 0.930 . S
C934 C205 0.954 . S
C949 C226 0.932 . S
C961 C218 0.954 . S
C976 C8 1.492 . S
C988 C47 1.458 . S
C1003 C60 1.439 . S
C1015 C21 1.464 . S
C1030 C73 1.496 . S
C1042 C34 1.452 . S
C1057 C125 1.464 . S
C1069 C86 1.454 . S
C1084 C138 1.514 . S
C1096 C99 1.488 . S
C1111 C112 1.517 . S
C1123 C151 1.524 . S
C1138 C203 1.459 . S
C1150 C164 1.456 . S
C1165 C216 1.456 . S
C1177 C177 1.487 . S
C1192 C229 1.482 . S
C1204 C190 1.449 . S
