# Generated by pormake.
# Topology gis, (4)-cn, num edge types: 1
# Building blocks:
#     Node 0, Type 0, BuildingBlock: CEKHIL_clean_sbu_0, # of connection points: 4
#     Node 1, Type 0, BuildingBlock: CEKHIL_clean_sbu_0, # of connection points: 4
#     Node 2, Type 0, BuildingBlock: CEKHIL_clean_sbu_0, # of connection points: 4
#     Node 3, Type 0, BuildingBlock: CEKHIL_clean_sbu_0, # of connection points: 4
#     Node 4, Type 0, BuildingBlock: CEKHIL_clean_sbu_0, # of connection points: 4
#     Node 5, Type 0, BuildingBlock: CEKHIL_clean_sbu_0, # of connection points: 4
#     Node 6, Type 0, BuildingBlock: CEKHIL_clean_sbu_0, # of connection points: 4
#     Node 7, Type 0, BuildingBlock: CEKHIL_clean_sbu_0, # of connection points: 4
#     Node 8, Type 0, BuildingBlock: CEKHIL_clean_sbu_0, # of connection points: 4
#     Node 9, Type 0, BuildingBlock: CEKHIL_clean_sbu_0, # of connection points: 4
#     Node 10, Type 0, BuildingBlock: CEKHIL_clean_sbu_0, # of connection points: 4
#     Node 11, Type 0, BuildingBlock: CEKHIL_clean_sbu_0, # of connection points: 4
#     Node 12, Type 0, BuildingBlock: CEKHIL_clean_sbu_0, # of connection points: 4
#     Node 13, Type 0, BuildingBlock: CEKHIL_clean_sbu_0, # of connection points: 4
#     Node 14, Type 0, BuildingBlock: CEKHIL_clean_sbu_0, # of connection points: 4
#     Node 15, Type 0, BuildingBlock: CEKHIL_clean_sbu_0, # of connection points: 4
#     Edge 16, Type (0, 0), BuildingBlock: XIVTED_clean_linker_0, # of connection points: 2
#     Edge 17, Type (0, 0), BuildingBlock: XIVTED_clean_linker_0, # of connection points: 2
#     Edge 18, Type (0, 0), BuildingBlock: XIVTED_clean_linker_0, # of connection points: 2
#     Edge 19, Type (0, 0), BuildingBlock: XIVTED_clean_linker_0, # of connection points: 2
#     Edge 20, Type (0, 0), BuildingBlock: XIVTED_clean_linker_0, # of connection points: 2
#     Edge 21, Type (0, 0), BuildingBlock: XIVTED_clean_linker_0, # of connection points: 2
#     Edge 22, Type (0, 0), BuildingBlock: XIVTED_clean_linker_0, # of connection points: 2
#     Edge 23, Type (0, 0), BuildingBlock: XIVTED_clean_linker_0, # of connection points: 2
#     Edge 24, Type (0, 0), BuildingBlock: XIVTED_clean_linker_0, # of connection points: 2
#     Edge 25, Type (0, 0), BuildingBlock: XIVTED_clean_linker_0, # of connection points: 2
#     Edge 26, Type (0, 0), BuildingBlock: XIVTED_clean_linker_0, # of connection points: 2
#     Edge 27, Type (0, 0), BuildingBlock: XIVTED_clean_linker_0, # of connection points: 2
#     Edge 28, Type (0, 0), BuildingBlock: XIVTED_clean_linker_0, # of connection points: 2
#     Edge 29, Type (0, 0), BuildingBlock: XIVTED_clean_linker_0, # of connection points: 2
#     Edge 30, Type (0, 0), BuildingBlock: XIVTED_clean_linker_0, # of connection points: 2
#     Edge 31, Type (0, 0), BuildingBlock: XIVTED_clean_linker_0, # of connection points: 2
#     Edge 32, Type (0, 0), BuildingBlock: XIVTED_clean_linker_0, # of connection points: 2
#     Edge 33, Type (0, 0), BuildingBlock: XIVTED_clean_linker_0, # of connection points: 2
#     Edge 34, Type (0, 0), BuildingBlock: XIVTED_clean_linker_0, # of connection points: 2
#     Edge 35, Type (0, 0), BuildingBlock: XIVTED_clean_linker_0, # of connection points: 2
#     Edge 36, Type (0, 0), BuildingBlock: XIVTED_clean_linker_0, # of connection points: 2
#     Edge 37, Type (0, 0), BuildingBlock: XIVTED_clean_linker_0, # of connection points: 2
#     Edge 38, Type (0, 0), BuildingBlock: XIVTED_clean_linker_0, # of connection points: 2
#     Edge 39, Type (0, 0), BuildingBlock: XIVTED_clean_linker_0, # of connection points: 2
#     Edge 40, Type (0, 0), BuildingBlock: XIVTED_clean_linker_0, # of connection points: 2
#     Edge 41, Type (0, 0), BuildingBlock: XIVTED_clean_linker_0, # of connection points: 2
#     Edge 42, Type (0, 0), BuildingBlock: XIVTED_clean_linker_0, # of connection points: 2
#     Edge 43, Type (0, 0), BuildingBlock: XIVTED_clean_linker_0, # of connection points: 2
#     Edge 44, Type (0, 0), BuildingBlock: XIVTED_clean_linker_0, # of connection points: 2
#     Edge 45, Type (0, 0), BuildingBlock: XIVTED_clean_linker_0, # of connection points: 2
#     Edge 46, Type (0, 0), BuildingBlock: XIVTED_clean_linker_0, # of connection points: 2
#     Edge 47, Type (0, 0), BuildingBlock: XIVTED_clean_linker_0, # of connection points: 2
# Relax obj value: 0.063
# Max RMSD: 0.132
# Mean RMSD: 0.126
data_MOF--net-gis--node1-CEKHIL_clean_sbu_0--edge1-XIVTED_clean_linker_0
_symmetry_space_group_name_H-M    P1
_symmetry_Int_Tables_number       1
_symmetry_cell_setting            triclinic
loop_
_symmetry_equiv_pos_as_xyz
'x, y, z'
_cell_length_a     55.021207
_cell_length_b     51.634091
_cell_length_c     35.190339
_cell_angle_alpha  90.425565
_cell_angle_beta   90.430904
_cell_angle_gamma 90.028542
loop_
_atom_site_label
_atom_site_type_symbol
_atom_site_fract_x
_atom_site_fract_y
_atom_site_fract_z
_atom_type_partial_charge
Co0 Co 0.14036 0.60136 0.13125 0.0
O1 O 0.17499 0.60519 0.13263 0.0
O2 O 0.1516 0.60282 0.18348 0.0
C3 C 0.13963 0.56987 0.08713 0.0
O4 O 0.10403 0.59638 0.14022 0.0
Co5 Co 0.112 0.61361 0.05692 0.0
O6 O 0.08638 0.59314 0.08245 0.0
C7 C 0.13001 0.65639 0.10526 0.0
C8 C 0.17332 0.60497 0.16934 0.0
C9 C 0.08587 0.59068 0.11845 0.0
O10 O 0.13646 0.63994 0.13061 0.0
O11 O 0.12135 0.6498 0.0727 0.0
O12 O 0.1436 0.56432 0.12259 0.0
O13 O 0.13853 0.59422 0.07916 0.0
Co14 Co 0.64033 0.8881 0.3697 0.0
O15 O 0.67513 0.88668 0.36989 0.0
O16 O 0.65195 0.88511 0.31813 0.0
C17 C 0.63713 0.9216 0.41029 0.0
O18 O 0.6039 0.89022 0.35899 0.0
Co19 Co 0.6126 0.87653 0.44373 0.0
O20 O 0.58546 0.89322 0.41567 0.0
C21 C 0.6328 0.83321 0.39966 0.0
C22 C 0.67365 0.88516 0.33316 0.0
C23 C 0.58508 0.89476 0.37953 0.0
O24 O 0.63877 0.84933 0.3737 0.0
O25 O 0.62342 0.84023 0.43129 0.0
O26 O 0.6412 0.92555 0.3745 0.0
O27 O 0.63766 0.89768 0.421 0.0
Co28 Co 0.35997 0.39189 0.6361 0.0
O29 O 0.32582 0.3847 0.63493 0.0
O30 O 0.34849 0.38644 0.68723 0.0
C31 C 0.35821 0.42572 0.59648 0.0
O32 O 0.39562 0.39975 0.64786 0.0
Co33 Co 0.39026 0.38802 0.56183 0.0
O34 O 0.41392 0.40847 0.59242 0.0
C35 C 0.3755 0.34041 0.60194 0.0
C36 C 0.32716 0.38314 0.67163 0.0
C37 C 0.41372 0.40836 0.62864 0.0
O38 O 0.36721 0.35391 0.62983 0.0
O39 O 0.3838 0.35044 0.57147 0.0
O40 O 0.35352 0.42901 0.63232 0.0
O41 O 0.36168 0.40213 0.58558 0.0
Co42 Co 0.85941 0.09671 0.85856 0.0
O43 O 0.82479 0.10027 0.85877 0.0
O44 O 0.84744 0.10038 0.80697 0.0
C45 C 0.86062 0.06365 0.89945 0.0
O46 O 0.89571 0.09248 0.84814 0.0
Co47 Co 0.88863 0.1051 0.93419 0.0
O48 O 0.91418 0.08687 0.90492 0.0
C49 C 0.867 0.14947 0.89368 0.0
C50 C 0.82594 0.10182 0.8221 0.0
C51 C 0.91421 0.0861 0.86871 0.0
O52 O 0.86287 0.13526 0.86418 0.0
O53 O 0.87512 0.14056 0.92518 0.0
O54 O 0.85639 0.0591 0.86361 0.0
O55 O 0.86193 0.08766 0.90927 0.0
Co56 Co 0.1411 0.39157 0.85816 0.0
O57 O 0.17567 0.38737 0.85991 0.0
O58 O 0.15325 0.38582 0.80734 0.0
C59 C 0.14013 0.42625 0.897 0.0
O60 O 0.10501 0.39611 0.8459 0.0
Co61 Co 0.11107 0.38649 0.93259 0.0
O62 O 0.08634 0.40466 0.90136 0.0
C63 C 0.13153 0.33999 0.89531 0.0
C64 C 0.17465 0.38458 0.8233 0.0
C65 C 0.08659 0.40397 0.86516 0.0
O66 O 0.13688 0.35324 0.86572 0.0
O67 O 0.12301 0.35009 0.92579 0.0
O68 O 0.14474 0.42928 0.86113 0.0
O69 O 0.13836 0.40265 0.90824 0.0
Co70 Co 0.85685 0.89387 0.13731 0.0
O71 O 0.82213 0.89197 0.13807 0.0
O72 O 0.84581 0.89167 0.18931 0.0
C73 C 0.85876 0.9261 0.09517 0.0
O74 O 0.89345 0.89656 0.1467 0.0
Co75 Co 0.88409 0.88251 0.06143 0.0
O76 O 0.91138 0.89917 0.08948 0.0
C77 C 0.86088 0.84027 0.10401 0.0
C78 C 0.82397 0.89095 0.17476 0.0
C79 C 0.91203 0.90103 0.12564 0.0
O80 O 0.85853 0.85511 0.13323 0.0
O81 O 0.86852 0.84821 0.07183 0.0
O82 O 0.85539 0.93142 0.13093 0.0
O83 O 0.85875 0.9019 0.08615 0.0
Co84 Co 0.35924 0.59963 0.3634 0.0
O85 O 0.32457 0.60297 0.36248 0.0
O86 O 0.34782 0.60167 0.31136 0.0
C87 C 0.36049 0.56757 0.40586 0.0
O88 O 0.39556 0.59529 0.35382 0.0
Co89 Co 0.38771 0.61155 0.43782 0.0
O90 O 0.41393 0.59258 0.41097 0.0
C91 C 0.36904 0.65457 0.39179 0.0
C92 C 0.32613 0.60335 0.32576 0.0
C93 C 0.41418 0.59025 0.37489 0.0
O94 O 0.36266 0.63823 0.36589 0.0
O95 O 0.37798 0.64784 0.42394 0.0
O96 O 0.35648 0.56247 0.37014 0.0
O97 O 0.36134 0.59182 0.41512 0.0
Co98 Co 0.63727 0.10221 0.63588 0.0
O99 O 0.67183 0.10653 0.6357 0.0
O100 O 0.64924 0.1056 0.68755 0.0
C101 C 0.63606 0.06896 0.59456 0.0
O102 O 0.60117 0.09685 0.64634 0.0
Co103 Co 0.60813 0.11231 0.562 0.0
O104 O 0.58352 0.09129 0.58896 0.0
C105 C 0.62572 0.15667 0.60709 0.0
C106 C 0.67072 0.10746 0.67245 0.0
C107 C 0.58323 0.08965 0.62507 0.0
O108 O 0.63289 0.14076 0.63274 0.0
O109 O 0.61656 0.14928 0.57524 0.0
O110 O 0.64082 0.06501 0.63024 0.0
O111 O 0.63478 0.09297 0.58438 0.0
Co112 Co 0.86102 0.39348 0.85548 0.0
O113 O 0.82638 0.39068 0.85722 0.0
O114 O 0.84802 0.38958 0.80438 0.0
C115 C 0.86344 0.42697 0.89619 0.0
O116 O 0.89717 0.39689 0.84352 0.0
Co117 Co 0.89147 0.38577 0.93002 0.0
O118 O 0.91651 0.4035 0.89947 0.0
C119 C 0.8678 0.34134 0.89135 0.0
C120 C 0.82678 0.38898 0.82049 0.0
C121 C 0.91598 0.40365 0.86325 0.0
O122 O 0.86383 0.3549 0.86141 0.0
O123 O 0.87653 0.35076 0.92234 0.0
O124 O 0.85874 0.43122 0.8605 0.0
O125 O 0.86456 0.40307 0.90598 0.0
Co126 Co 0.35905 0.09533 0.63651 0.0
O127 O 0.32484 0.1023 0.63652 0.0
O128 O 0.34804 0.10064 0.68816 0.0
C129 C 0.35672 0.06157 0.5959 0.0
O130 O 0.39497 0.08774 0.64693 0.0
Co131 Co 0.38847 0.09844 0.56107 0.0
O132 O 0.41184 0.07739 0.59077 0.0
C133 C 0.37466 0.14646 0.60241 0.0
C134 C 0.3265 0.10369 0.67323 0.0
C135 C 0.41245 0.07832 0.62696 0.0
O136 O 0.3662 0.13342 0.63047 0.0
O137 O 0.38262 0.13599 0.57183 0.0
O138 O 0.35264 0.05801 0.63181 0.0
O139 O 0.3601 0.0852 0.58588 0.0
Co140 Co 0.63415 0.58895 0.35061 0.0
O141 O 0.6343 0.55288 0.36359 0.0
O142 O 0.6254 0.58511 0.40314 0.0
C143 C 0.66973 0.58934 0.32004 0.0
O144 O 0.63307 0.62828 0.3483 0.0
Co145 Co 0.63095 0.60628 0.26721 0.0
O146 O 0.64008 0.6407 0.28839 0.0
C147 C 0.58687 0.58738 0.30408 0.0
C148 C 0.62802 0.56036 0.39744 0.0
C149 C 0.6376 0.64585 0.32362 0.0
O150 O 0.59904 0.58613 0.33529 0.0
O151 O 0.59636 0.59394 0.27247 0.0
O152 O 0.66912 0.5908 0.35689 0.0
O153 O 0.6491 0.58501 0.30309 0.0
Co154 Co 0.13203 0.8996 0.15155 0.0
O155 O 0.13278 0.93514 0.1366 0.0
O156 O 0.12282 0.90215 0.09874 0.0
C157 C 0.16803 0.89923 0.18164 0.0
O158 O 0.13018 0.86057 0.1562 0.0
Co159 Co 0.12962 0.88456 0.2359 0.0
O160 O 0.13754 0.84937 0.21668 0.0
C161 C 0.08533 0.90306 0.19817 0.0
C162 C 0.12617 0.92693 0.10311 0.0
C163 C 0.13453 0.84351 0.18174 0.0
O164 O 0.0972 0.90358 0.16692 0.0
O165 O 0.09506 0.897 0.23004 0.0
O166 O 0.16674 0.89678 0.14494 0.0
O167 O 0.14779 0.9045 0.19875 0.0
Co168 Co 0.85834 0.59651 0.13701 0.0
O169 O 0.82365 0.59757 0.13683 0.0
O170 O 0.84653 0.5983 0.18888 0.0
C171 C 0.86105 0.56433 0.09423 0.0
O172 O 0.89501 0.59452 0.14678 0.0
Co173 Co 0.88551 0.6084 0.06125 0.0
O174 O 0.9124 0.59119 0.08906 0.0
C175 C 0.86081 0.64989 0.1042 0.0
C176 C 0.82487 0.59832 0.17356 0.0
C177 C 0.91329 0.58953 0.12518 0.0
O178 O 0.85926 0.63534 0.13357 0.0
O179 O 0.86851 0.64193 0.07191 0.0
O180 O 0.85761 0.5589 0.12981 0.0
O181 O 0.86067 0.58851 0.08581 0.0
Co182 Co 0.14111 0.09446 0.86334 0.0
O183 O 0.17584 0.09722 0.86426 0.0
O184 O 0.15307 0.09882 0.81214 0.0
C185 C 0.13891 0.0606 0.90296 0.0
O186 O 0.10468 0.09125 0.85212 0.0
Co187 Co 0.11227 0.10233 0.93875 0.0
O188 O 0.08637 0.08502 0.90843 0.0
C189 C 0.13414 0.14708 0.90009 0.0
C190 C 0.17465 0.09951 0.82765 0.0
C191 C 0.08615 0.08484 0.8722 0.0
O192 O 0.13839 0.13315 0.87038 0.0
O193 O 0.12588 0.13782 0.93109 0.0
O194 O 0.14326 0.05656 0.86712 0.0
O195 O 0.13836 0.08449 0.91354 0.0
Co196 Co 0.63157 0.40153 0.65245 0.0
O197 O 0.63334 0.43742 0.63885 0.0
O198 O 0.62215 0.40549 0.59997 0.0
C199 C 0.6676 0.39939 0.68241 0.0
O200 O 0.62854 0.36232 0.6556 0.0
Co201 Co 0.6291 0.38527 0.7365 0.0
O202 O 0.63587 0.3502 0.71575 0.0
C203 C 0.58545 0.40646 0.70008 0.0
C204 C 0.62614 0.43009 0.60522 0.0
C205 C 0.63253 0.3448 0.6807 0.0
O206 O 0.59695 0.4065 0.66846 0.0
O207 O 0.59525 0.3998 0.73163 0.0
O208 O 0.66632 0.39765 0.6456 0.0
O209 O 0.6475 0.40502 0.69957 0.0
Co210 Co 0.36507 0.89786 0.34529 0.0
O211 O 0.36357 0.93375 0.35886 0.0
O212 O 0.37316 0.902 0.39844 0.0
C213 C 0.32959 0.89637 0.3137 0.0
O214 O 0.36745 0.85872 0.34208 0.0
Co215 Co 0.36926 0.88084 0.26181 0.0
O216 O 0.36072 0.84621 0.28172 0.0
C217 C 0.41274 0.90042 0.30104 0.0
C218 C 0.36951 0.92658 0.39297 0.0
C219 C 0.36334 0.8411 0.31686 0.0
O220 O 0.40014 0.90195 0.33153 0.0
O221 O 0.40377 0.89327 0.26898 0.0
O222 O 0.33033 0.89467 0.35047 0.0
O223 O 0.35007 0.90147 0.29724 0.0
H224 H 0.1456 0.80154 0.22584 0.0
H225 H 0.11929 0.69821 0.06029 0.0
H226 H 0.12543 0.82262 0.11125 0.0
H227 H 0.14559 0.6781 0.17229 0.0
H228 H 0.12167 0.74394 0.07811 0.0
H229 H 0.14585 0.75613 0.20641 0.0
C230 C 0.14126 0.79666 0.19658 0.0
C231 C 0.13538 0.81596 0.17019 0.0
C232 C 0.12699 0.72949 0.0987 0.0
C233 C 0.13563 0.76395 0.14777 0.0
C234 C 0.12563 0.70336 0.08856 0.0
C235 C 0.13214 0.68422 0.11485 0.0
C236 C 0.13484 0.73652 0.13543 0.0
C237 C 0.14029 0.69212 0.15106 0.0
C238 C 0.14144 0.7707 0.18549 0.0
C239 C 0.13002 0.80842 0.13262 0.0
N240 N 0.14131 0.71764 0.16029 0.0
N241 N 0.13018 0.78299 0.12257 0.0
H242 H 0.4348 0.93171 0.35313 0.0
H243 H 0.56904 0.88188 0.30741 0.0
H244 H 0.45049 0.88167 0.25766 0.0
H245 H 0.54753 0.9217 0.41002 0.0
H246 H 0.5278 0.88826 0.28158 0.0
H247 H 0.47807 0.93546 0.3663 0.0
C248 C 0.44742 0.92169 0.33465 0.0
C249 C 0.43901 0.906 0.30462 0.0
C250 C 0.53228 0.89583 0.30955 0.0
C251 C 0.4888 0.9099 0.31996 0.0
C252 C 0.55578 0.89228 0.32423 0.0
C253 C 0.56157 0.90094 0.36113 0.0
C254 C 0.51469 0.90837 0.33185 0.0
C255 C 0.54376 0.9143 0.38171 0.0
C256 C 0.47217 0.92382 0.34222 0.0
C257 C 0.45623 0.89385 0.28124 0.0
N258 N 0.52116 0.91746 0.36689 0.0
N259 N 0.48038 0.89571 0.28977 0.0
H260 H 0.35558 0.30985 0.65763 0.0
H261 H 0.39803 0.17921 0.55475 0.0
H262 H 0.39611 0.30577 0.55304 0.0
H263 H 0.35392 0.17898 0.65585 0.0
H264 H 0.39897 0.22597 0.55696 0.0
H265 H 0.35607 0.26239 0.66044 0.0
C266 C 0.36461 0.29905 0.63534 0.0
C267 C 0.37573 0.31187 0.60494 0.0
C268 C 0.38904 0.21582 0.57875 0.0
C269 C 0.37636 0.25778 0.60809 0.0
C270 C 0.38845 0.18898 0.57749 0.0
C271 C 0.37567 0.17504 0.60498 0.0
C272 C 0.3767 0.22912 0.60764 0.0
C273 C 0.36393 0.18895 0.63399 0.0
C274 C 0.36485 0.27199 0.63698 0.0
C275 C 0.38715 0.29686 0.5769 0.0
N276 N 0.36462 0.21532 0.63448 0.0
N277 N 0.38713 0.27071 0.57919 0.0
H278 H 0.0617 0.11178 0.81696 0.0
H279 H 0.94017 0.04258 0.8804 0.0
H280 H 0.0573 0.04399 0.88723 0.0
H281 H 0.94105 0.11418 0.81844 0.0
H282 H 0.98298 0.03614 0.86567 0.0
H283 H 0.01833 0.1067 0.80083 0.0
C284 C 0.05178 0.09533 0.82787 0.0
C285 C 0.06283 0.07841 0.85373 0.0
C286 C 0.97381 0.05303 0.85449 0.0
C287 C 0.01356 0.07262 0.83592 0.0
C288 C 0.94934 0.05658 0.86274 0.0
C289 C 0.93729 0.07897 0.85075 0.0
C290 C 0.98656 0.07245 0.83516 0.0
C291 C 0.94985 0.09663 0.82807 0.0
C292 C 0.02704 0.09253 0.81891 0.0
C293 C 0.04927 0.05758 0.86748 0.0
N294 N 0.97405 0.09333 0.82172 0.0
N295 N 0.02532 0.05546 0.85878 0.0
H296 H 0.14115 0.30845 0.83372 0.0
H297 H 0.13776 0.18051 0.95993 0.0
H298 H 0.13055 0.30691 0.95522 0.0
H299 H 0.13978 0.17802 0.83727 0.0
H300 H 0.1406 0.22732 0.95805 0.0
H301 H 0.14556 0.26118 0.83388 0.0
C302 C 0.13986 0.29824 0.86041 0.0
C303 C 0.1352 0.31166 0.89447 0.0
C304 C 0.1405 0.21663 0.93146 0.0
C305 C 0.14037 0.25783 0.8948 0.0
C306 C 0.13885 0.18982 0.93251 0.0
C307 C 0.13813 0.17532 0.89866 0.0
C308 C 0.14127 0.22923 0.89632 0.0
C309 C 0.1401 0.18849 0.86403 0.0
C310 C 0.14237 0.2713 0.86044 0.0
C311 C 0.13381 0.29745 0.92819 0.0
N312 N 0.14133 0.21481 0.86371 0.0
N313 N 0.13632 0.27137 0.92744 0.0
H314 H 0.94756 0.93086 0.09601 0.0
H315 H 0.04869 0.88678 0.24551 0.0
H316 H 0.9304 0.88592 0.19512 0.0
H317 H 0.06206 0.93207 0.14522 0.0
H318 H 0.00475 0.89133 0.23408 0.0
H319 H 0.98867 0.93685 0.12012 0.0
C320 C 0.95245 0.92241 0.1231 0.0
C321 C 0.93569 0.90755 0.14333 0.0
C322 C 0.01735 0.90056 0.21497 0.0
C323 C 0.98306 0.91397 0.17104 0.0
C324 C 0.0424 0.89806 0.22155 0.0
C325 C 0.05902 0.90871 0.19591 0.0
C326 C 0.00906 0.91392 0.18269 0.0
C327 C 0.04992 0.92312 0.16534 0.0
C328 C 0.97597 0.92585 0.13694 0.0
C329 C 0.94287 0.89742 0.17859 0.0
N330 N 0.02564 0.92509 0.15945 0.0
N331 N 0.96622 0.90044 0.1911 0.0
H332 H 0.38195 0.69647 0.43637 0.0
H333 H 0.34991 0.79883 0.27433 0.0
H334 H 0.35025 0.67627 0.32737 0.0
H335 H 0.37456 0.82103 0.3868 0.0
H336 H 0.34969 0.75373 0.29398 0.0
H337 H 0.37906 0.74224 0.41951 0.0
C338 C 0.37429 0.70161 0.40901 0.0
C339 C 0.36647 0.68243 0.38319 0.0
C340 C 0.35507 0.76846 0.31444 0.0
C341 C 0.36319 0.7347 0.36374 0.0
C342 C 0.35526 0.79425 0.30319 0.0
C343 C 0.36239 0.81377 0.32888 0.0
C344 C 0.3622 0.76205 0.35159 0.0
C345 C 0.36896 0.80663 0.36601 0.0
C346 C 0.37264 0.72774 0.39942 0.0
C347 C 0.35666 0.69029 0.34816 0.0
N348 N 0.36883 0.78131 0.3762 0.0
N349 N 0.35541 0.71578 0.33945 0.0
H350 H 0.55884 0.04602 0.6063 0.0
H351 H 0.43632 0.10382 0.68475 0.0
H352 H 0.55607 0.1123 0.68119 0.0
H353 H 0.44202 0.03824 0.60887 0.0
H354 H 0.47993 0.10011 0.69907 0.0
H355 H 0.51698 0.03563 0.62242 0.0
C356 C 0.54947 0.05804 0.62687 0.0
C357 C 0.56065 0.08016 0.64215 0.0
C358 C 0.47149 0.08607 0.68015 0.0
C359 C 0.51241 0.06909 0.65971 0.0
C360 C 0.44657 0.08805 0.67224 0.0
C361 C 0.43579 0.07157 0.64511 0.0
C362 C 0.48546 0.06746 0.66075 0.0
C363 C 0.44982 0.05159 0.62949 0.0
C364 C 0.52554 0.05219 0.63604 0.0
C365 C 0.54791 0.0951 0.6688 0.0
N366 N 0.47398 0.05036 0.63705 0.0
N367 N 0.52417 0.08966 0.67607 0.0
H368 H 0.85981 0.17914 0.82993 0.0
H369 H 0.86043 0.31003 0.95176 0.0
H370 H 0.86362 0.18372 0.95248 0.0
H371 H 0.86279 0.30915 0.8291 0.0
H372 H 0.85537 0.26341 0.95122 0.0
H373 H 0.85515 0.22634 0.82789 0.0
C374 C 0.8595 0.19001 0.85636 0.0
C375 C 0.86253 0.17754 0.89141 0.0
C376 C 0.8569 0.27332 0.92433 0.0
C377 C 0.85707 0.23121 0.88923 0.0
C378 C 0.85985 0.29999 0.92462 0.0
C379 C 0.86252 0.3134 0.89043 0.0
C380 C 0.85686 0.25979 0.88961 0.0
C381 C 0.86104 0.29945 0.85611 0.0
C382 C 0.85684 0.2169 0.85515 0.0
C383 C 0.8618 0.19251 0.92477 0.0
N384 N 0.85862 0.27324 0.85656 0.0
N385 N 0.85928 0.21852 0.9228 0.0
H386 H 0.65209 0.68777 0.28231 0.0
H387 H 0.62064 0.7916 0.4443 0.0
H388 H 0.62683 0.66646 0.39373 0.0
H389 H 0.65225 0.81083 0.33606 0.0
H390 H 0.62377 0.74565 0.42755 0.0
H391 H 0.6531 0.73294 0.30262 0.0
C392 C 0.64678 0.69255 0.3111 0.0
C393 C 0.63921 0.67323 0.33625 0.0
C394 C 0.63014 0.75996 0.40761 0.0
C395 C 0.6403 0.72513 0.35974 0.0
C396 C 0.62837 0.78622 0.41715 0.0
C397 C 0.63601 0.80521 0.39147 0.0
C398 C 0.63953 0.75265 0.3721 0.0
C399 C 0.64594 0.79699 0.35674 0.0
C400 C 0.64742 0.7184 0.32273 0.0
C401 C 0.63274 0.68068 0.37332 0.0
N402 N 0.64727 0.77139 0.34804 0.0
N403 N 0.63329 0.70606 0.38387 0.0
H404 H 0.84421 0.68074 0.04783 0.0
H405 H 0.85804 0.81107 0.16886 0.0
H406 H 0.86165 0.68129 0.16762 0.0
H407 H 0.84986 0.80659 0.04683 0.0
H408 H 0.85172 0.76408 0.17211 0.0
H409 H 0.8378 0.72723 0.05056 0.0
C410 C 0.8466 0.69071 0.07481 0.0
C411 C 0.85402 0.67734 0.10736 0.0
C412 C 0.85108 0.77351 0.14474 0.0
C413 C 0.847 0.73068 0.11065 0.0
C414 C 0.85467 0.80026 0.14285 0.0
C415 C 0.85496 0.8126 0.10744 0.0
C416 C 0.84756 0.75926 0.111 0.0
C417 C 0.85032 0.7978 0.07466 0.0
C418 C 0.84288 0.71726 0.07639 0.0
C419 C 0.85621 0.69103 0.14179 0.0
N420 N 0.84697 0.77192 0.07725 0.0
N421 N 0.85312 0.71717 0.14245 0.0
H422 H 0.64486 0.30274 0.72348 0.0
H423 H 0.61254 0.19799 0.56213 0.0
H424 H 0.62061 0.32384 0.61085 0.0
H425 H 0.64355 0.17955 0.67181 0.0
H426 H 0.61511 0.24409 0.57869 0.0
H427 H 0.64415 0.2574 0.70434 0.0
C428 C 0.63939 0.29787 0.69467 0.0
C429 C 0.6327 0.31722 0.6688 0.0
C430 C 0.62141 0.2299 0.59901 0.0
C431 C 0.63183 0.26505 0.64662 0.0
C432 C 0.61994 0.20357 0.5896 0.0
C433 C 0.62774 0.18476 0.61564 0.0
C434 C 0.63066 0.23744 0.63474 0.0
C435 C 0.63721 0.19322 0.65079 0.0
C436 C 0.63903 0.27191 0.68371 0.0
C437 C 0.62591 0.30961 0.63178 0.0
N438 N 0.63831 0.21886 0.65928 0.0
N439 N 0.62555 0.2841 0.62183 0.0
H440 H 0.06063 0.44788 0.8741 0.0
H441 H 0.94033 0.37618 0.80858 0.0
H442 H 0.06044 0.37493 0.81396 0.0
H443 H 0.94386 0.44572 0.8768 0.0
H444 H 0.98348 0.38177 0.79268 0.0
H445 H 0.01806 0.45409 0.85669 0.0
C446 C 0.05168 0.4335 0.85629 0.0
C447 C 0.0638 0.41079 0.84569 0.0
C448 C 0.97461 0.39621 0.81019 0.0
C449 C 0.01482 0.41708 0.82705 0.0
C450 C 0.94999 0.39311 0.819 0.0
C451 C 0.93882 0.41038 0.84433 0.0
C452 C 0.98784 0.41674 0.82686 0.0
C453 C 0.95202 0.43186 0.85748 0.0
C454 C 0.02735 0.43694 0.84649 0.0
C455 C 0.05156 0.3927 0.82264 0.0
N456 N 0.97589 0.43424 0.84901 0.0
N457 N 0.02746 0.3959 0.81484 0.0
H458 H 0.54999 0.60422 0.25674 0.0
H459 H 0.44945 0.5596 0.40446 0.0
H460 H 0.56375 0.55797 0.35626 0.0
H461 H 0.43209 0.60496 0.30548 0.0
H462 H 0.49037 0.55323 0.38053 0.0
H463 H 0.50611 0.59953 0.26746 0.0
C464 C 0.5438 0.59273 0.28041 0.0
C465 C 0.56053 0.58185 0.30605 0.0
C466 C 0.47764 0.56439 0.36369 0.0
C467 C 0.51059 0.57645 0.31845 0.0
C468 C 0.45424 0.56802 0.37741 0.0
C469 C 0.43751 0.58313 0.35718 0.0
C470 C 0.48464 0.57636 0.32976 0.0
C471 C 0.44454 0.59325 0.322 0.0
C472 C 0.51878 0.59013 0.28657 0.0
C473 C 0.55153 0.56713 0.33619 0.0
N474 N 0.46778 0.59008 0.30967 0.0
N475 N 0.52726 0.56508 0.34169 0.0
H476 H 0.54899 0.39188 0.74873 0.0
H477 H 0.44751 0.44285 0.60479 0.0
H478 H 0.56263 0.43689 0.64826 0.0
H479 H 0.43176 0.39091 0.69686 0.0
H480 H 0.48841 0.44885 0.63016 0.0
H481 H 0.50516 0.39873 0.73932 0.0
C482 C 0.5428 0.40357 0.72514 0.0
C483 C 0.55941 0.41344 0.69883 0.0
C484 C 0.47598 0.43637 0.64521 0.0
C485 C 0.50957 0.42136 0.688 0.0
C486 C 0.45259 0.43298 0.63073 0.0
C487 C 0.43641 0.41599 0.64838 0.0
C488 C 0.48346 0.42233 0.67726 0.0
C489 C 0.44379 0.40404 0.68227 0.0
C490 C 0.51782 0.40741 0.71973 0.0
C491 C 0.55045 0.42849 0.66882 0.0
N492 N 0.467 0.40704 0.69526 0.0
N493 N 0.52619 0.43178 0.66408 0.0
H494 H 0.05803 0.54995 0.09704 0.0
H495 H 0.93982 0.61489 0.18042 0.0
H496 H 0.06059 0.61405 0.17603 0.0
H497 H 0.9408 0.54855 0.1055 0.0
H498 H 0.98361 0.60901 0.19233 0.0
H499 H 0.01557 0.54278 0.11308 0.0
C500 C 0.04967 0.56215 0.11845 0.0
C501 C 0.06259 0.58272 0.13501 0.0
C502 C 0.97409 0.5953 0.17416 0.0
C503 C 0.01369 0.57541 0.15254 0.0
C504 C 0.94911 0.59856 0.16763 0.0
C505 C 0.93695 0.58232 0.14166 0.0
C506 C 0.98671 0.5757 0.15447 0.0
C507 C 0.9497 0.56162 0.12541 0.0
C508 C 0.0254 0.55815 0.12758 0.0
C509 C 0.05109 0.59798 0.16268 0.0
N510 N 0.97391 0.55913 0.13166 0.0
N511 N 0.02703 0.59443 0.16995 0.0
H512 H 0.13641 0.57583 0.01008 0.0
H513 H 0.12844 0.42339 0.97159 0.0
H514 H 0.13556 0.51793 0.09791 0.0
H515 H 0.14359 0.47842 0.88307 0.0
H516 H 0.125 0.45887 0.01695 0.0
H517 H 0.1334 0.54134 0.96205 0.0
C518 C 0.13544 0.55587 0.01923 0.0
C519 C 0.13645 0.54963 0.05793 0.0
C520 C 0.12901 0.46327 0.98761 0.0
C521 C 0.13293 0.51031 0.00343 0.0
C522 C 0.13094 0.44301 0.96163 0.0
C523 C 0.13656 0.448 0.9236 0.0
C524 C 0.13276 0.48878 0.97556 0.0
C525 C 0.13941 0.47379 0.91225 0.0
C526 C 0.13377 0.53625 0.99185 0.0
C527 C 0.13505 0.52356 0.06834 0.0
N528 N 0.13762 0.4933 0.93826 0.0
N529 N 0.13342 0.50485 0.04122 0.0
H530 H 0.72059 0.88423 0.35839 0.0
H531 H 0.77705 0.88869 0.15005 0.0
H532 H 0.6774 0.88423 0.25545 0.0
H533 H 0.82062 0.8888 0.2526 0.0
H534 H 0.7405 0.88597 0.1883 0.0
H535 H 0.75739 0.88463 0.32026 0.0
C536 C 0.71884 0.88422 0.32771 0.0
C537 C 0.69588 0.88426 0.31002 0.0
C538 C 0.75802 0.88655 0.20252 0.0
C539 C 0.73802 0.8848 0.26621 0.0
C540 C 0.77895 0.88812 0.18069 0.0
C541 C 0.80194 0.88903 0.19821 0.0
C542 C 0.76002 0.8859 0.24225 0.0
C543 C 0.80325 0.88818 0.23797 0.0
C544 C 0.73989 0.88446 0.30597 0.0
C545 C 0.69473 0.88421 0.27023 0.0
N546 N 0.78254 0.8867 0.2587 0.0
N547 N 0.71553 0.88456 0.24964 0.0
H548 H 0.35523 0.4778 0.61169 0.0
H549 H 0.36384 0.51571 0.39265 0.0
H550 H 0.36694 0.42274 0.52073 0.0
H551 H 0.36306 0.57255 0.48319 0.0
H552 H 0.3655 0.48143 0.43982 0.0
H553 H 0.35835 0.51307 0.5657 0.0
C554 C 0.35852 0.47317 0.5821 0.0
C555 C 0.36069 0.44738 0.56989 0.0
C556 C 0.36511 0.50139 0.44945 0.0
C557 C 0.36425 0.48737 0.51739 0.0
C558 C 0.36414 0.52096 0.42251 0.0
C559 C 0.36314 0.54693 0.43412 0.0
C560 C 0.36488 0.50785 0.48829 0.0
C561 C 0.36371 0.5527 0.47312 0.0
C562 C 0.36036 0.49325 0.55592 0.0
C563 C 0.36505 0.44237 0.53133 0.0
N564 N 0.36436 0.53326 0.49891 0.0
N565 N 0.36656 0.46218 0.50644 0.0
H566 H 0.67553 0.10764 0.75018 0.0
H567 H 0.8212 0.10565 0.74454 0.0
H568 H 0.71712 0.11162 0.64684 0.0
H569 H 0.77953 0.10474 0.84799 0.0
H570 H 0.78324 0.10929 0.70812 0.0
H571 H 0.71355 0.10821 0.7868 0.0
C572 C 0.69263 0.1088 0.73524 0.0
C573 C 0.69318 0.10945 0.69546 0.0
C574 C 0.78244 0.10838 0.73881 0.0
C575 C 0.73668 0.10998 0.73698 0.0
C576 C 0.8041 0.10629 0.75956 0.0
C577 C 0.80351 0.10478 0.79928 0.0
C578 C 0.7601 0.1089 0.75799 0.0
C579 C 0.78085 0.10576 0.81736 0.0
C580 C 0.71433 0.10909 0.7561 0.0
C581 C 0.71584 0.11096 0.6775 0.0
N582 N 0.76007 0.10766 0.79659 0.0
N583 N 0.73667 0.11105 0.69837 0.0
H584 H 0.87522 0.42123 0.97061 0.0
H585 H 0.86673 0.57196 0.01852 0.0
H586 H 0.86113 0.47955 0.88593 0.0
H587 H 0.86565 0.51196 0.10331 0.0
H588 H 0.87151 0.53899 0.96924 0.0
H589 H 0.8788 0.45501 0.01878 0.0
C590 C 0.87304 0.44121 0.96208 0.0
C591 C 0.86759 0.44766 0.92431 0.0
C592 C 0.87036 0.53305 0.99863 0.0
C593 C 0.87156 0.48637 0.97944 0.0
C594 C 0.86766 0.55182 0.02679 0.0
C595 C 0.86553 0.54456 0.06497 0.0
C596 C 0.87101 0.50687 0.00877 0.0
C597 C 0.867 0.51829 0.07415 0.0
C598 C 0.87506 0.46047 0.98966 0.0
C599 C 0.86516 0.47382 0.91483 0.0
N600 N 0.86953 0.50032 0.04613 0.0
N601 N 0.86699 0.4923 0.94237 0.0
H602 H 0.22128 0.10087 0.85413 0.0
H603 H 0.28025 0.11201 0.64803 0.0
H604 H 0.17915 0.10512 0.75039 0.0
H605 H 0.32232 0.10235 0.75098 0.0
H606 H 0.24324 0.11327 0.68559 0.0
H607 H 0.25842 0.10474 0.81732 0.0
C608 C 0.21982 0.10269 0.82355 0.0
C609 C 0.19705 0.10255 0.80525 0.0
C610 C 0.26055 0.11101 0.70004 0.0
C611 C 0.23965 0.10703 0.7629 0.0
C612 C 0.28174 0.11035 0.67863 0.0
C613 C 0.30443 0.10691 0.69641 0.0
C614 C 0.26198 0.10819 0.7396 0.0
C615 C 0.30521 0.10498 0.73612 0.0
C616 C 0.24108 0.10491 0.80256 0.0
C617 C 0.19632 0.10504 0.76562 0.0
N618 N 0.28426 0.10549 0.75639 0.0
N619 N 0.21733 0.10711 0.74573 0.0
H620 H 0.62032 0.57018 0.47287 0.0
H621 H 0.61778 0.42037 0.52967 0.0
H622 H 0.62764 0.50761 0.39172 0.0
H623 H 0.62765 0.48277 0.61064 0.0
H624 H 0.61521 0.45222 0.47862 0.0
H625 H 0.6168 0.53838 0.5237 0.0
C626 C 0.62105 0.54976 0.46574 0.0
C627 C 0.6245 0.54149 0.42813 0.0
C628 C 0.61784 0.45891 0.5076 0.0
C629 C 0.62045 0.50508 0.48598 0.0
C630 C 0.61925 0.44077 0.53672 0.0
C631 C 0.62314 0.44896 0.57434 0.0
C632 C 0.62017 0.4854 0.51629 0.0
C633 C 0.62485 0.47561 0.58195 0.0
C634 C 0.61909 0.53163 0.49474 0.0
C635 C 0.62521 0.51481 0.42041 0.0
N636 N 0.62342 0.49289 0.55315 0.0
N637 N 0.62328 0.49753 0.44913 0.0
H638 H 0.32137 0.89834 0.23667 0.0
H639 H 0.17667 0.90006 0.25849 0.0
H640 H 0.28466 0.89034 0.34393 0.0
H641 H 0.2128 0.89339 0.15041 0.0
H642 H 0.21628 0.89762 0.2905 0.0
H643 H 0.28178 0.8975 0.2042 0.0
C644 C 0.30502 0.8963 0.25332 0.0
C645 C 0.30626 0.89452 0.29299 0.0
C646 C 0.21551 0.89659 0.25977 0.0
C647 C 0.26107 0.89371 0.2563 0.0
C648 C 0.19292 0.89802 0.24155 0.0
C649 C 0.19149 0.897 0.20181 0.0
C650 C 0.23676 0.89431 0.23802 0.0
C651 C 0.21309 0.89428 0.18115 0.0
C652 C 0.28245 0.8958 0.23484 0.0
C653 C 0.28454 0.89184 0.31327 0.0
N654 N 0.23484 0.89317 0.19948 0.0
N655 N 0.26285 0.89166 0.29472 0.0
H656 H 0.63371 0.01759 0.61102 0.0
H657 H 0.63284 0.97285 0.39352 0.0
H658 H 0.63008 0.07091 0.51728 0.0
H659 H 0.63202 0.91965 0.48752 0.0
H660 H 0.62904 0.00894 0.43824 0.0
H661 H 0.63034 0.98149 0.56624 0.0
C662 C 0.6321 0.0217 0.58097 0.0
C663 C 0.63244 0.04725 0.56774 0.0
C664 C 0.62952 0.98938 0.44911 0.0
C665 C 0.62865 0.006 0.5163 0.0
C666 C 0.63172 0.96876 0.4236 0.0
C667 C 0.63299 0.94326 0.43693 0.0
C668 C 0.62873 0.98447 0.48826 0.0
C669 C 0.63126 0.93904 0.47611 0.0
C670 C 0.63014 0.00107 0.55541 0.0
C671 C 0.63006 0.05147 0.5286 0.0
N672 N 0.62941 0.95948 0.50045 0.0
N673 N 0.62846 0.03102 0.50418 0.0
H674 H 0.28125 0.37427 0.64512 0.0
H675 H 0.22098 0.38169 0.85069 0.0
H676 H 0.32249 0.38318 0.74925 0.0
H677 H 0.17956 0.37915 0.74604 0.0
H678 H 0.25834 0.37796 0.81435 0.0
H679 H 0.24405 0.37151 0.68201 0.0
C680 C 0.28251 0.37547 0.67582 0.0
C681 C 0.30499 0.37916 0.69418 0.0
C682 C 0.2411 0.37809 0.7993 0.0
C683 C 0.26238 0.37613 0.73656 0.0
C684 C 0.21972 0.38022 0.82001 0.0
C685 C 0.19711 0.3809 0.8013 0.0
C686 C 0.23992 0.37664 0.75952 0.0
C687 C 0.19661 0.37881 0.76157 0.0
C688 C 0.26122 0.37392 0.69685 0.0
C689 C 0.30553 0.38043 0.73397 0.0
N690 N 0.21774 0.37688 0.74195 0.0
N691 N 0.28448 0.37908 0.75386 0.0
H692 H 0.87024 0.0698 0.97473 0.0
H693 H 0.86465 0.91876 0.01924 0.0
H694 H 0.85909 0.01104 0.8884 0.0
H695 H 0.86184 0.97859 0.10547 0.0
H696 H 0.86869 0.95194 0.97079 0.0
H697 H 0.87339 0.03615 0.0225 0.0
C698 C 0.86858 0.04976 0.96577 0.0
C699 C 0.86415 0.04314 0.92762 0.0
C700 C 0.8673 0.95781 0.0003 0.0
C701 C 0.86766 0.00457 0.98224 0.0
C702 C 0.86502 0.93892 0.028 0.0
C703 C 0.86267 0.94604 0.06635 0.0
C704 C 0.86729 0.98399 0.01108 0.0
C705 C 0.86341 0.97234 0.07615 0.0
C706 C 0.87035 0.03057 0.99311 0.0
C707 C 0.86233 0.01691 0.91759 0.0
N708 N 0.86555 0.99044 0.04859 0.0
N709 N 0.86396 -0.00149 0.94487 0.0
H710 H 0.1768 0.60448 0.24724 0.0
H711 H 0.32257 0.60519 0.24796 0.0
H712 H 0.22019 0.60879 0.14578 0.0
H713 H 0.27923 0.60563 0.34972 0.0
H714 H 0.28518 0.60702 0.20988 0.0
H715 H 0.21417 0.60544 0.28552 0.0
C716 C 0.19416 0.60573 0.23306 0.0
C717 C 0.1954 0.60649 0.19332 0.0
C718 C 0.28387 0.60679 0.24056 0.0
C719 C 0.23815 0.6075 0.23674 0.0
C720 C 0.30521 0.60574 0.26226 0.0
C721 C 0.304 0.60519 0.302 0.0
C722 C 0.26121 0.60721 0.25879 0.0
C723 C 0.28103 0.60597 0.31911 0.0
C724 C 0.21548 0.60627 0.25487 0.0
C725 C 0.21837 0.60811 0.17636 0.0
N726 N 0.26056 0.60687 0.29742 0.0
N727 N 0.23882 0.60847 0.19815 0.0
H728 H 0.35584 0.00877 0.60792 0.0
H729 H 0.37212 0.97869 0.38639 0.0
H730 H 0.36508 0.0663 0.52076 0.0
H731 H 0.36985 0.91799 0.46997 0.0
H732 H 0.37074 0.01075 0.43701 0.0
H733 H 0.36154 0.97467 0.55949 0.0
C734 C 0.35907 0.01419 0.57872 0.0
C735 C 0.35991 0.04034 0.56826 0.0
C736 C 0.37067 0.99045 0.44453 0.0
C737 C 0.36651 0.00182 0.51324 0.0
C738 C 0.37146 0.97212 0.41554 0.0
C739 C 0.37094 0.9457 0.42405 0.0
C740 C 0.3691 0.98238 0.48246 0.0
C741 C 0.37028 0.93825 0.46232 0.0
C742 C 0.3624 0.9948 0.5512 0.0
C743 C 0.36425 0.04641 0.53017 0.0
N744 N 0.36914 0.95657 0.49026 0.0
N745 N 0.36732 0.02733 0.50415 0.0
H746 H 0.77866 0.5977 0.14623 0.0
H747 H 0.71527 0.59643 0.34973 0.0
H748 H 0.81945 0.59929 0.25152 0.0
H749 H 0.67659 0.58836 0.24314 0.0
H750 H 0.75344 0.59976 0.31495 0.0
H751 H 0.74114 0.59661 0.18194 0.0
C752 C 0.77975 0.5979 0.17698 0.0
C753 C 0.80228 0.59854 0.19595 0.0
C754 C 0.73661 0.5973 0.29918 0.0
C755 C 0.75909 0.59724 0.23719 0.0
C756 C 0.7148 0.59542 0.31898 0.0
C757 C 0.69274 0.59204 0.29923 0.0
C758 C 0.73632 0.59586 0.25936 0.0
C759 C 0.69319 0.59089 0.25947 0.0
C760 C 0.75824 0.59724 0.19738 0.0
C761 C 0.80247 0.59878 0.2358 0.0
N762 N 0.71464 0.59277 0.24086 0.0
N763 N 0.78114 0.59809 0.25518 0.0
H764 H 0.1249 0.91623 0.02652 0.0
H765 H 0.12385 0.06661 0.97547 0.0
H766 H 0.12157 0.97905 0.1079 0.0
H767 H 0.14073 0.00762 0.89217 0.0
H768 H 0.11629 0.03333 0.02183 0.0
H769 H 0.12446 0.94804 0.97484 0.0
C770 C 0.12379 0.93666 0.03345 0.0
C771 C 0.12352 0.94513 0.07144 0.0
C772 C 0.12158 0.02751 0.99344 0.0
C773 C 0.12295 0.98128 0.01296 0.0
C774 C 0.12589 0.04658 0.96681 0.0
C775 C 0.13318 0.03988 0.92996 0.0
C776 C 0.1248 0.00141 0.98348 0.0
C777 C 0.13532 0.01355 0.92043 0.0
C778 C 0.12363 0.95474 0.00403 0.0
C779 C 0.12209 0.97172 0.07901 0.0
N780 N 0.13135 0.99515 0.94724 0.0
N781 N 0.12194 0.98881 0.05005 0.0
H782 H 0.67531 0.39887 0.75924 0.0
H783 H 0.82007 0.38788 0.74287 0.0
H784 H 0.71254 0.39136 0.65221 0.0
H785 H 0.78104 0.38707 0.84883 0.0
H786 H 0.78106 0.38842 0.70859 0.0
H787 H 0.71419 0.39405 0.79243 0.0
C788 C 0.69167 0.39614 0.74275 0.0
C789 C 0.69075 0.39562 0.70298 0.0
C790 C 0.78109 0.38796 0.73935 0.0
C791 C 0.73531 0.39016 0.74063 0.0
C792 C 0.80333 0.38763 0.75887 0.0
C793 C 0.80379 0.38756 0.79871 0.0
C794 C 0.75927 0.38832 0.75993 0.0
C795 C 0.78158 0.38725 0.81809 0.0
C796 C 0.71387 0.39335 0.76167 0.0
C797 C 0.71247 0.39193 0.68296 0.0
N798 N 0.76027 0.38778 0.79853 0.0
N799 N 0.7339 0.38947 0.702 0.0
loop_
_geom_bond_atom_site_label_1
_geom_bond_atom_site_label_2
_geom_bond_distance
_geom_bond_site_symmetry_2
_ccdc_geom_bond_type
Co0 O1 2.216 . S
Co0 O2 2.091 . S
Co0 O4 2.004 . S
Co0 O10 2.021 . S
Co0 O12 2.137 . S
Co0 O13 2.244 . S
O1 Co0 2.216 . S
O1 C8 1.247 . S
O2 Co0 2.091 . S
O2 C8 1.261 . S
C3 O12 1.247 . S
C3 O13 1.272 . S
O4 Co0 2.004 . S
O4 C9 1.259 . S
Co5 O6 2.061 . S
Co5 O11 2.052 . S
Co5 O13 2.135 . S
O6 Co5 2.061 . S
O6 C9 1.235 . S
C7 O10 1.238 . S
C7 O11 1.241 . S
C8 O1 1.247 . S
C8 O2 1.261 . S
C9 O4 1.259 . S
C9 O6 1.235 . S
O10 Co0 2.021 . S
O10 C7 1.238 . S
O11 Co5 2.052 . S
O11 C7 1.241 . S
O12 Co0 2.137 . S
O12 C3 1.247 . S
O13 Co0 2.244 . S
O13 C3 1.272 . S
O13 Co5 2.135 . S
Co14 O15 2.216 . S
Co14 O16 2.091 . S
Co14 O18 2.004 . S
Co14 O24 2.021 . S
Co14 O26 2.137 . S
Co14 O27 2.244 . S
O15 Co14 2.216 . S
O15 C22 1.247 . S
O16 Co14 2.091 . S
O16 C22 1.261 . S
C17 O26 1.247 . S
C17 O27 1.272 . S
O18 Co14 2.004 . S
O18 C23 1.259 . S
Co19 O20 2.061 . S
Co19 O25 2.052 . S
Co19 O27 2.135 . S
O20 Co19 2.061 . S
O20 C23 1.235 . S
C21 O24 1.238 . S
C21 O25 1.241 . S
C22 O15 1.247 . S
C22 O16 1.261 . S
C23 O18 1.259 . S
C23 O20 1.235 . S
O24 Co14 2.021 . S
O24 C21 1.238 . S
O25 Co19 2.052 . S
O25 C21 1.241 . S
O26 Co14 2.137 . S
O26 C17 1.247 . S
O27 Co14 2.244 . S
O27 C17 1.272 . S
O27 Co19 2.135 . S
Co28 O29 2.216 . S
Co28 O30 2.091 . S
Co28 O32 2.004 . S
Co28 O38 2.021 . S
Co28 O40 2.137 . S
Co28 O41 2.244 . S
O29 Co28 2.216 . S
O29 C36 1.247 . S
O30 Co28 2.091 . S
O30 C36 1.261 . S
C31 O40 1.247 . S
C31 O41 1.272 . S
O32 Co28 2.004 . S
O32 C37 1.259 . S
Co33 O34 2.061 . S
Co33 O39 2.052 . S
Co33 O41 2.135 . S
O34 Co33 2.061 . S
O34 C37 1.235 . S
C35 O38 1.238 . S
C35 O39 1.241 . S
C36 O29 1.247 . S
C36 O30 1.261 . S
C37 O32 1.259 . S
C37 O34 1.235 . S
O38 Co28 2.021 . S
O38 C35 1.238 . S
O39 Co33 2.052 . S
O39 C35 1.241 . S
O40 Co28 2.137 . S
O40 C31 1.247 . S
O41 Co28 2.244 . S
O41 C31 1.272 . S
O41 Co33 2.135 . S
Co42 O43 2.216 . S
Co42 O44 2.091 . S
Co42 O46 2.004 . S
Co42 O52 2.021 . S
Co42 O54 2.137 . S
Co42 O55 2.244 . S
O43 Co42 2.216 . S
O43 C50 1.247 . S
O44 Co42 2.091 . S
O44 C50 1.261 . S
C45 O54 1.247 . S
C45 O55 1.272 . S
O46 Co42 2.004 . S
O46 C51 1.259 . S
Co47 O48 2.061 . S
Co47 O53 2.052 . S
Co47 O55 2.135 . S
O48 Co47 2.061 . S
O48 C51 1.235 . S
C49 O52 1.238 . S
C49 O53 1.241 . S
C50 O43 1.247 . S
C50 O44 1.261 . S
C51 O46 1.259 . S
C51 O48 1.235 . S
O52 Co42 2.021 . S
O52 C49 1.238 . S
O53 Co47 2.052 . S
O53 C49 1.241 . S
O54 Co42 2.137 . S
O54 C45 1.247 . S
O55 Co42 2.244 . S
O55 C45 1.272 . S
O55 Co47 2.135 . S
Co56 O57 2.216 . S
Co56 O58 2.091 . S
Co56 O60 2.004 . S
Co56 O66 2.021 . S
Co56 O68 2.137 . S
Co56 O69 2.244 . S
O57 Co56 2.216 . S
O57 C64 1.247 . S
O58 Co56 2.091 . S
O58 C64 1.261 . S
C59 O68 1.247 . S
C59 O69 1.272 . S
O60 Co56 2.004 . S
O60 C65 1.259 . S
Co61 O62 2.061 . S
Co61 O67 2.052 . S
Co61 O69 2.135 . S
O62 Co61 2.061 . S
O62 C65 1.235 . S
C63 O66 1.238 . S
C63 O67 1.241 . S
C64 O57 1.247 . S
C64 O58 1.261 . S
C65 O60 1.259 . S
C65 O62 1.235 . S
O66 Co56 2.021 . S
O66 C63 1.238 . S
O67 Co61 2.052 . S
O67 C63 1.241 . S
O68 Co56 2.137 . S
O68 C59 1.247 . S
O69 Co56 2.244 . S
O69 C59 1.272 . S
O69 Co61 2.135 . S
Co70 O71 2.216 . S
Co70 O72 2.091 . S
Co70 O74 2.004 . S
Co70 O80 2.021 . S
Co70 O82 2.137 . S
Co70 O83 2.244 . S
O71 Co70 2.216 . S
O71 C78 1.247 . S
O72 Co70 2.091 . S
O72 C78 1.261 . S
C73 O82 1.247 . S
C73 O83 1.272 . S
O74 Co70 2.004 . S
O74 C79 1.259 . S
Co75 O76 2.061 . S
Co75 O81 2.052 . S
Co75 O83 2.135 . S
O76 Co75 2.061 . S
O76 C79 1.235 . S
C77 O80 1.238 . S
C77 O81 1.241 . S
C78 O71 1.247 . S
C78 O72 1.261 . S
C79 O74 1.259 . S
C79 O76 1.235 . S
O80 Co70 2.021 . S
O80 C77 1.238 . S
O81 Co75 2.052 . S
O81 C77 1.241 . S
O82 Co70 2.137 . S
O82 C73 1.247 . S
O83 Co70 2.244 . S
O83 C73 1.272 . S
O83 Co75 2.135 . S
Co84 O85 2.216 . S
Co84 O86 2.091 . S
Co84 O88 2.004 . S
Co84 O94 2.021 . S
Co84 O96 2.137 . S
Co84 O97 2.244 . S
O85 Co84 2.216 . S
O85 C92 1.247 . S
O86 Co84 2.091 . S
O86 C92 1.261 . S
C87 O96 1.247 . S
C87 O97 1.272 . S
O88 Co84 2.004 . S
O88 C93 1.259 . S
Co89 O90 2.061 . S
Co89 O95 2.052 . S
Co89 O97 2.135 . S
O90 Co89 2.061 . S
O90 C93 1.235 . S
C91 O94 1.238 . S
C91 O95 1.241 . S
C92 O85 1.247 . S
C92 O86 1.261 . S
C93 O88 1.259 . S
C93 O90 1.235 . S
O94 Co84 2.021 . S
O94 C91 1.238 . S
O95 Co89 2.052 . S
O95 C91 1.241 . S
O96 Co84 2.137 . S
O96 C87 1.247 . S
O97 Co84 2.244 . S
O97 C87 1.272 . S
O97 Co89 2.135 . S
Co98 O99 2.216 . S
Co98 O100 2.091 . S
Co98 O102 2.004 . S
Co98 O108 2.021 . S
Co98 O110 2.137 . S
Co98 O111 2.244 . S
O99 Co98 2.216 . S
O99 C106 1.247 . S
O100 Co98 2.091 . S
O100 C106 1.261 . S
C101 O110 1.247 . S
C101 O111 1.272 . S
O102 Co98 2.004 . S
O102 C107 1.259 . S
Co103 O104 2.061 . S
Co103 O109 2.052 . S
Co103 O111 2.135 . S
O104 Co103 2.061 . S
O104 C107 1.235 . S
C105 O108 1.238 . S
C105 O109 1.241 . S
C106 O99 1.247 . S
C106 O100 1.261 . S
C107 O102 1.259 . S
C107 O104 1.235 . S
O108 Co98 2.021 . S
O108 C105 1.238 . S
O109 Co103 2.052 . S
O109 C105 1.241 . S
O110 Co98 2.137 . S
O110 C101 1.247 . S
O111 Co98 2.244 . S
O111 C101 1.272 . S
O111 Co103 2.135 . S
Co112 O113 2.216 . S
Co112 O114 2.091 . S
Co112 O116 2.004 . S
Co112 O122 2.021 . S
Co112 O124 2.137 . S
Co112 O125 2.244 . S
O113 Co112 2.216 . S
O113 C120 1.247 . S
O114 Co112 2.091 . S
O114 C120 1.261 . S
C115 O124 1.247 . S
C115 O125 1.272 . S
O116 Co112 2.004 . S
O116 C121 1.259 . S
Co117 O118 2.061 . S
Co117 O123 2.052 . S
Co117 O125 2.135 . S
O118 Co117 2.061 . S
O118 C121 1.235 . S
C119 O122 1.238 . S
C119 O123 1.241 . S
C120 O113 1.247 . S
C120 O114 1.261 . S
C121 O116 1.259 . S
C121 O118 1.235 . S
O122 Co112 2.021 . S
O122 C119 1.238 . S
O123 Co117 2.052 . S
O123 C119 1.241 . S
O124 Co112 2.137 . S
O124 C115 1.247 . S
O125 Co112 2.244 . S
O125 C115 1.272 . S
O125 Co117 2.135 . S
Co126 O127 2.216 . S
Co126 O128 2.091 . S
Co126 O130 2.004 . S
Co126 O136 2.021 . S
Co126 O138 2.137 . S
Co126 O139 2.244 . S
O127 Co126 2.216 . S
O127 C134 1.247 . S
O128 Co126 2.091 . S
O128 C134 1.261 . S
C129 O138 1.247 . S
C129 O139 1.272 . S
O130 Co126 2.004 . S
O130 C135 1.259 . S
Co131 O132 2.061 . S
Co131 O137 2.052 . S
Co131 O139 2.135 . S
O132 Co131 2.061 . S
O132 C135 1.235 . S
C133 O136 1.238 . S
C133 O137 1.241 . S
C134 O127 1.247 . S
C134 O128 1.261 . S
C135 O130 1.259 . S
C135 O132 1.235 . S
O136 Co126 2.021 . S
O136 C133 1.238 . S
O137 Co131 2.052 . S
O137 C133 1.241 . S
O138 Co126 2.137 . S
O138 C129 1.247 . S
O139 Co126 2.244 . S
O139 C129 1.272 . S
O139 Co131 2.135 . S
Co140 O141 2.216 . S
Co140 O142 2.091 . S
Co140 O144 2.004 . S
Co140 O150 2.021 . S
Co140 O152 2.137 . S
Co140 O153 2.244 . S
O141 Co140 2.216 . S
O141 C148 1.247 . S
O142 Co140 2.091 . S
O142 C148 1.261 . S
C143 O152 1.247 . S
C143 O153 1.272 . S
O144 Co140 2.004 . S
O144 C149 1.259 . S
Co145 O146 2.061 . S
Co145 O151 2.052 . S
Co145 O153 2.135 . S
O146 Co145 2.061 . S
O146 C149 1.235 . S
C147 O150 1.238 . S
C147 O151 1.241 . S
C148 O141 1.247 . S
C148 O142 1.261 . S
C149 O144 1.259 . S
C149 O146 1.235 . S
O150 Co140 2.021 . S
O150 C147 1.238 . S
O151 Co145 2.052 . S
O151 C147 1.241 . S
O152 Co140 2.137 . S
O152 C143 1.247 . S
O153 Co140 2.244 . S
O153 C143 1.272 . S
O153 Co145 2.135 . S
Co154 O155 2.216 . S
Co154 O156 2.091 . S
Co154 O158 2.004 . S
Co154 O164 2.021 . S
Co154 O166 2.137 . S
Co154 O167 2.244 . S
O155 Co154 2.216 . S
O155 C162 1.247 . S
O156 Co154 2.091 . S
O156 C162 1.261 . S
C157 O166 1.247 . S
C157 O167 1.272 . S
O158 Co154 2.004 . S
O158 C163 1.259 . S
Co159 O160 2.061 . S
Co159 O165 2.052 . S
Co159 O167 2.135 . S
O160 Co159 2.061 . S
O160 C163 1.235 . S
C161 O164 1.238 . S
C161 O165 1.241 . S
C162 O155 1.247 . S
C162 O156 1.261 . S
C163 O158 1.259 . S
C163 O160 1.235 . S
O164 Co154 2.021 . S
O164 C161 1.238 . S
O165 Co159 2.052 . S
O165 C161 1.241 . S
O166 Co154 2.137 . S
O166 C157 1.247 . S
O167 Co154 2.244 . S
O167 C157 1.272 . S
O167 Co159 2.135 . S
Co168 O169 2.216 . S
Co168 O170 2.091 . S
Co168 O172 2.004 . S
Co168 O178 2.021 . S
Co168 O180 2.137 . S
Co168 O181 2.244 . S
O169 Co168 2.216 . S
O169 C176 1.247 . S
O170 Co168 2.091 . S
O170 C176 1.261 . S
C171 O180 1.247 . S
C171 O181 1.272 . S
O172 Co168 2.004 . S
O172 C177 1.259 . S
Co173 O174 2.061 . S
Co173 O179 2.052 . S
Co173 O181 2.135 . S
O174 Co173 2.061 . S
O174 C177 1.235 . S
C175 O178 1.238 . S
C175 O179 1.241 . S
C176 O169 1.247 . S
C176 O170 1.261 . S
C177 O172 1.259 . S
C177 O174 1.235 . S
O178 Co168 2.021 . S
O178 C175 1.238 . S
O179 Co173 2.052 . S
O179 C175 1.241 . S
O180 Co168 2.137 . S
O180 C171 1.247 . S
O181 Co168 2.244 . S
O181 C171 1.272 . S
O181 Co173 2.135 . S
Co182 O183 2.216 . S
Co182 O184 2.091 . S
Co182 O186 2.004 . S
Co182 O192 2.021 . S
Co182 O194 2.137 . S
Co182 O195 2.244 . S
O183 Co182 2.216 . S
O183 C190 1.247 . S
O184 Co182 2.091 . S
O184 C190 1.261 . S
C185 O194 1.247 . S
C185 O195 1.272 . S
O186 Co182 2.004 . S
O186 C191 1.259 . S
Co187 O188 2.061 . S
Co187 O193 2.052 . S
Co187 O195 2.135 . S
O188 Co187 2.061 . S
O188 C191 1.235 . S
C189 O192 1.238 . S
C189 O193 1.241 . S
C190 O183 1.247 . S
C190 O184 1.261 . S
C191 O186 1.259 . S
C191 O188 1.235 . S
O192 Co182 2.021 . S
O192 C189 1.238 . S
O193 Co187 2.052 . S
O193 C189 1.241 . S
O194 Co182 2.137 . S
O194 C185 1.247 . S
O195 Co182 2.244 . S
O195 C185 1.272 . S
O195 Co187 2.135 . S
Co196 O197 2.216 . S
Co196 O198 2.091 . S
Co196 O200 2.004 . S
Co196 O206 2.021 . S
Co196 O208 2.137 . S
Co196 O209 2.244 . S
O197 Co196 2.216 . S
O197 C204 1.247 . S
O198 Co196 2.091 . S
O198 C204 1.261 . S
C199 O208 1.247 . S
C199 O209 1.272 . S
O200 Co196 2.004 . S
O200 C205 1.259 . S
Co201 O202 2.061 . S
Co201 O207 2.052 . S
Co201 O209 2.135 . S
O202 Co201 2.061 . S
O202 C205 1.235 . S
C203 O206 1.238 . S
C203 O207 1.241 . S
C204 O197 1.247 . S
C204 O198 1.261 . S
C205 O200 1.259 . S
C205 O202 1.235 . S
O206 Co196 2.021 . S
O206 C203 1.238 . S
O207 Co201 2.052 . S
O207 C203 1.241 . S
O208 Co196 2.137 . S
O208 C199 1.247 . S
O209 Co196 2.244 . S
O209 C199 1.272 . S
O209 Co201 2.135 . S
Co210 O211 2.216 . S
Co210 O212 2.091 . S
Co210 O214 2.004 . S
Co210 O220 2.021 . S
Co210 O222 2.137 . S
Co210 O223 2.244 . S
O211 Co210 2.216 . S
O211 C218 1.247 . S
O212 Co210 2.091 . S
O212 C218 1.261 . S
C213 O222 1.247 . S
C213 O223 1.272 . S
O214 Co210 2.004 . S
O214 C219 1.259 . S
Co215 O216 2.061 . S
Co215 O221 2.052 . S
Co215 O223 2.135 . S
O216 Co215 2.061 . S
O216 C219 1.235 . S
C217 O220 1.238 . S
C217 O221 1.241 . S
C218 O211 1.247 . S
C218 O212 1.261 . S
C219 O214 1.259 . S
C219 O216 1.235 . S
O220 Co210 2.021 . S
O220 C217 1.238 . S
O221 Co215 2.052 . S
O221 C217 1.241 . S
O222 Co210 2.137 . S
O222 C213 1.247 . S
O223 Co210 2.244 . S
O223 C213 1.272 . S
O223 Co215 2.135 . S
H224 C230 0.930 . S
H225 C234 0.930 . S
H226 C239 0.929 . S
H227 C237 0.929 . S
H228 C232 0.929 . S
H229 C238 0.929 . S
C230 H224 0.930 . S
C230 C231 1.367 . S
C230 C238 1.378 . S
C231 C230 1.367 . S
C231 C239 1.433 . S
C232 H228 0.929 . S
C232 C234 1.378 . S
C232 C236 1.350 . S
C233 C236 1.463 . S
C233 C238 1.350 . S
C233 N241 1.427 . S
C234 H225 0.930 . S
C234 C232 1.378 . S
C234 C235 1.367 . S
C235 C234 1.367 . S
C235 C237 1.433 . S
C236 C232 1.350 . S
C236 C233 1.463 . S
C236 N240 1.427 . S
C237 H227 0.929 . S
C237 C235 1.433 . S
C237 N240 1.384 . S
C238 H229 0.929 . S
C238 C230 1.378 . S
C238 C233 1.350 . S
C239 H226 0.929 . S
C239 C231 1.433 . S
C239 N241 1.384 . S
N240 C236 1.427 . S
N240 C237 1.384 . S
N241 C233 1.427 . S
N241 C239 1.384 . S
H242 C248 0.930 . S
H243 C252 0.930 . S
H244 C257 0.929 . S
H245 C255 0.929 . S
H246 C250 0.929 . S
H247 C256 0.929 . S
C248 H242 0.930 . S
C248 C249 1.367 . S
C248 C256 1.378 . S
C249 C248 1.367 . S
C249 C257 1.433 . S
C250 H246 0.929 . S
C250 C252 1.378 . S
C250 C254 1.350 . S
C251 C254 1.463 . S
C251 C256 1.350 . S
C251 N259 1.427 . S
C252 H243 0.930 . S
C252 C250 1.378 . S
C252 C253 1.367 . S
C253 C252 1.367 . S
C253 C255 1.433 . S
C254 C250 1.350 . S
C254 C251 1.463 . S
C254 N258 1.427 . S
C255 H245 0.929 . S
C255 C253 1.433 . S
C255 N258 1.384 . S
C256 H247 0.929 . S
C256 C248 1.378 . S
C256 C251 1.350 . S
C257 H244 0.929 . S
C257 C249 1.433 . S
C257 N259 1.384 . S
N258 C254 1.427 . S
N258 C255 1.384 . S
N259 C251 1.427 . S
N259 C257 1.384 . S
H260 C266 0.930 . S
H261 C270 0.930 . S
H262 C275 0.929 . S
H263 C273 0.929 . S
H264 C268 0.929 . S
H265 C274 0.929 . S
C266 H260 0.930 . S
C266 C267 1.367 . S
C266 C274 1.378 . S
C267 C266 1.367 . S
C267 C275 1.433 . S
C268 H264 0.929 . S
C268 C270 1.378 . S
C268 C272 1.350 . S
C269 C272 1.463 . S
C269 C274 1.350 . S
C269 N277 1.427 . S
C270 H261 0.930 . S
C270 C268 1.378 . S
C270 C271 1.367 . S
C271 C270 1.367 . S
C271 C273 1.433 . S
C272 C268 1.350 . S
C272 C269 1.463 . S
C272 N276 1.427 . S
C273 H263 0.929 . S
C273 C271 1.433 . S
C273 N276 1.384 . S
C274 H265 0.929 . S
C274 C266 1.378 . S
C274 C269 1.350 . S
C275 H262 0.929 . S
C275 C267 1.433 . S
C275 N277 1.384 . S
N276 C272 1.427 . S
N276 C273 1.384 . S
N277 C269 1.427 . S
N277 C275 1.384 . S
H278 C284 0.930 . S
H279 C288 0.930 . S
H280 C293 0.929 . S
H281 C291 0.929 . S
H282 C286 0.929 . S
H283 C292 0.929 . S
C284 H278 0.930 . S
C284 C285 1.367 . S
C284 C292 1.378 . S
C285 C284 1.367 . S
C285 C293 1.433 . S
C286 H282 0.929 . S
C286 C288 1.378 . S
C286 C290 1.350 . S
C287 C290 1.463 1_455 S
C287 C292 1.350 . S
C287 N295 1.427 . S
C288 H279 0.930 . S
C288 C286 1.378 . S
C288 C289 1.367 . S
C289 C288 1.367 . S
C289 C291 1.433 . S
C290 C286 1.350 . S
C290 C287 1.463 1_655 S
C290 N294 1.427 . S
C291 H281 0.929 . S
C291 C289 1.433 . S
C291 N294 1.384 . S
C292 H283 0.929 . S
C292 C284 1.378 . S
C292 C287 1.350 . S
C293 H280 0.929 . S
C293 C285 1.433 . S
C293 N295 1.384 . S
N294 C290 1.427 . S
N294 C291 1.384 . S
N295 C287 1.427 . S
N295 C293 1.384 . S
H296 C302 0.930 . S
H297 C306 0.930 . S
H298 C311 0.929 . S
H299 C309 0.929 . S
H300 C304 0.929 . S
H301 C310 0.929 . S
C302 H296 0.930 . S
C302 C303 1.367 . S
C302 C310 1.378 . S
C303 C302 1.367 . S
C303 C311 1.433 . S
C304 H300 0.929 . S
C304 C306 1.378 . S
C304 C308 1.350 . S
C305 C308 1.463 . S
C305 C310 1.350 . S
C305 N313 1.427 . S
C306 H297 0.930 . S
C306 C304 1.378 . S
C306 C307 1.367 . S
C307 C306 1.367 . S
C307 C309 1.433 . S
C308 C304 1.350 . S
C308 C305 1.463 . S
C308 N312 1.427 . S
C309 H299 0.929 . S
C309 C307 1.433 . S
C309 N312 1.384 . S
C310 H301 0.929 . S
C310 C302 1.378 . S
C310 C305 1.350 . S
C311 H298 0.929 . S
C311 C303 1.433 . S
C311 N313 1.384 . S
N312 C308 1.427 . S
N312 C309 1.384 . S
N313 C305 1.427 . S
N313 C311 1.384 . S
H314 C320 0.930 . S
H315 C324 0.930 . S
H316 C329 0.929 . S
H317 C327 0.929 . S
H318 C322 0.929 . S
H319 C328 0.929 . S
C320 H314 0.930 . S
C320 C321 1.367 . S
C320 C328 1.378 . S
C321 C320 1.367 . S
C321 C329 1.433 . S
C322 H318 0.929 . S
C322 C324 1.378 . S
C322 C326 1.350 . S
C323 C326 1.463 1_655 S
C323 C328 1.350 . S
C323 N331 1.427 . S
C324 H315 0.930 . S
C324 C322 1.378 . S
C324 C325 1.367 . S
C325 C324 1.367 . S
C325 C327 1.433 . S
C326 C322 1.350 . S
C326 C323 1.463 1_455 S
C326 N330 1.427 . S
C327 H317 0.929 . S
C327 C325 1.433 . S
C327 N330 1.384 . S
C328 H319 0.929 . S
C328 C320 1.378 . S
C328 C323 1.350 . S
C329 H316 0.929 . S
C329 C321 1.433 . S
C329 N331 1.384 . S
N330 C326 1.427 . S
N330 C327 1.384 . S
N331 C323 1.427 . S
N331 C329 1.384 . S
H332 C338 0.930 . S
H333 C342 0.930 . S
H334 C347 0.929 . S
H335 C345 0.929 . S
H336 C340 0.929 . S
H337 C346 0.929 . S
C338 H332 0.930 . S
C338 C339 1.367 . S
C338 C346 1.378 . S
C339 C338 1.367 . S
C339 C347 1.433 . S
C340 H336 0.929 . S
C340 C342 1.378 . S
C340 C344 1.350 . S
C341 C344 1.463 . S
C341 C346 1.350 . S
C341 N349 1.427 . S
C342 H333 0.930 . S
C342 C340 1.378 . S
C342 C343 1.367 . S
C343 C342 1.367 . S
C343 C345 1.433 . S
C344 C340 1.350 . S
C344 C341 1.463 . S
C344 N348 1.427 . S
C345 H335 0.929 . S
C345 C343 1.433 . S
C345 N348 1.384 . S
C346 H337 0.929 . S
C346 C338 1.378 . S
C346 C341 1.350 . S
C347 H334 0.929 . S
C347 C339 1.433 . S
C347 N349 1.384 . S
N348 C344 1.427 . S
N348 C345 1.384 . S
N349 C341 1.427 . S
N349 C347 1.384 . S
H350 C356 0.930 . S
H351 C360 0.930 . S
H352 C365 0.929 . S
H353 C363 0.929 . S
H354 C358 0.929 . S
H355 C364 0.929 . S
C356 H350 0.930 . S
C356 C357 1.367 . S
C356 C364 1.378 . S
C357 C356 1.367 . S
C357 C365 1.433 . S
C358 H354 0.929 . S
C358 C360 1.378 . S
C358 C362 1.350 . S
C359 C362 1.463 . S
C359 C364 1.350 . S
C359 N367 1.427 . S
C360 H351 0.930 . S
C360 C358 1.378 . S
C360 C361 1.367 . S
C361 C360 1.367 . S
C361 C363 1.433 . S
C362 C358 1.350 . S
C362 C359 1.463 . S
C362 N366 1.427 . S
C363 H353 0.929 . S
C363 C361 1.433 . S
C363 N366 1.384 . S
C364 H355 0.929 . S
C364 C356 1.378 . S
C364 C359 1.350 . S
C365 H352 0.929 . S
C365 C357 1.433 . S
C365 N367 1.384 . S
N366 C362 1.427 . S
N366 C363 1.384 . S
N367 C359 1.427 . S
N367 C365 1.384 . S
H368 C374 0.930 . S
H369 C378 0.930 . S
H370 C383 0.929 . S
H371 C381 0.929 . S
H372 C376 0.929 . S
H373 C382 0.929 . S
C374 H368 0.930 . S
C374 C375 1.367 . S
C374 C382 1.378 . S
C375 C374 1.367 . S
C375 C383 1.433 . S
C376 H372 0.929 . S
C376 C378 1.378 . S
C376 C380 1.350 . S
C377 C380 1.463 . S
C377 C382 1.350 . S
C377 N385 1.427 . S
C378 H369 0.930 . S
C378 C376 1.378 . S
C378 C379 1.367 . S
C379 C378 1.367 . S
C379 C381 1.433 . S
C380 C376 1.350 . S
C380 C377 1.463 . S
C380 N384 1.427 . S
C381 H371 0.929 . S
C381 C379 1.433 . S
C381 N384 1.384 . S
C382 H373 0.929 . S
C382 C374 1.378 . S
C382 C377 1.350 . S
C383 H370 0.929 . S
C383 C375 1.433 . S
C383 N385 1.384 . S
N384 C380 1.427 . S
N384 C381 1.384 . S
N385 C377 1.427 . S
N385 C383 1.384 . S
H386 C392 0.930 . S
H387 C396 0.930 . S
H388 C401 0.929 . S
H389 C399 0.929 . S
H390 C394 0.929 . S
H391 C400 0.929 . S
C392 H386 0.930 . S
C392 C393 1.367 . S
C392 C400 1.378 . S
C393 C392 1.367 . S
C393 C401 1.433 . S
C394 H390 0.929 . S
C394 C396 1.378 . S
C394 C398 1.350 . S
C395 C398 1.463 . S
C395 C400 1.350 . S
C395 N403 1.427 . S
C396 H387 0.930 . S
C396 C394 1.378 . S
C396 C397 1.367 . S
C397 C396 1.367 . S
C397 C399 1.433 . S
C398 C394 1.350 . S
C398 C395 1.463 . S
C398 N402 1.427 . S
C399 H389 0.929 . S
C399 C397 1.433 . S
C399 N402 1.384 . S
C400 H391 0.929 . S
C400 C392 1.378 . S
C400 C395 1.350 . S
C401 H388 0.929 . S
C401 C393 1.433 . S
C401 N403 1.384 . S
N402 C398 1.427 . S
N402 C399 1.384 . S
N403 C395 1.427 . S
N403 C401 1.384 . S
H404 C410 0.930 . S
H405 C414 0.930 . S
H406 C419 0.929 . S
H407 C417 0.929 . S
H408 C412 0.929 . S
H409 C418 0.929 . S
C410 H404 0.930 . S
C410 C411 1.367 . S
C410 C418 1.378 . S
C411 C410 1.367 . S
C411 C419 1.433 . S
C412 H408 0.929 . S
C412 C414 1.378 . S
C412 C416 1.350 . S
C413 C416 1.463 . S
C413 C418 1.350 . S
C413 N421 1.427 . S
C414 H405 0.930 . S
C414 C412 1.378 . S
C414 C415 1.367 . S
C415 C414 1.367 . S
C415 C417 1.433 . S
C416 C412 1.350 . S
C416 C413 1.463 . S
C416 N420 1.427 . S
C417 H407 0.929 . S
C417 C415 1.433 . S
C417 N420 1.384 . S
C418 H409 0.929 . S
C418 C410 1.378 . S
C418 C413 1.350 . S
C419 H406 0.929 . S
C419 C411 1.433 . S
C419 N421 1.384 . S
N420 C416 1.427 . S
N420 C417 1.384 . S
N421 C413 1.427 . S
N421 C419 1.384 . S
H422 C428 0.930 . S
H423 C432 0.930 . S
H424 C437 0.929 . S
H425 C435 0.929 . S
H426 C430 0.929 . S
H427 C436 0.929 . S
C428 H422 0.930 . S
C428 C429 1.367 . S
C428 C436 1.378 . S
C429 C428 1.367 . S
C429 C437 1.433 . S
C430 H426 0.929 . S
C430 C432 1.378 . S
C430 C434 1.350 . S
C431 C434 1.463 . S
C431 C436 1.350 . S
C431 N439 1.427 . S
C432 H423 0.930 . S
C432 C430 1.378 . S
C432 C433 1.367 . S
C433 C432 1.367 . S
C433 C435 1.433 . S
C434 C430 1.350 . S
C434 C431 1.463 . S
C434 N438 1.427 . S
C435 H425 0.929 . S
C435 C433 1.433 . S
C435 N438 1.384 . S
C436 H427 0.929 . S
C436 C428 1.378 . S
C436 C431 1.350 . S
C437 H424 0.929 . S
C437 C429 1.433 . S
C437 N439 1.384 . S
N438 C434 1.427 . S
N438 C435 1.384 . S
N439 C431 1.427 . S
N439 C437 1.384 . S
H440 C446 0.930 . S
H441 C450 0.930 . S
H442 C455 0.929 . S
H443 C453 0.929 . S
H444 C448 0.929 . S
H445 C454 0.929 . S
C446 H440 0.930 . S
C446 C447 1.367 . S
C446 C454 1.378 . S
C447 C446 1.367 . S
C447 C455 1.433 . S
C448 H444 0.929 . S
C448 C450 1.378 . S
C448 C452 1.350 . S
C449 C452 1.463 1_455 S
C449 C454 1.350 . S
C449 N457 1.427 . S
C450 H441 0.930 . S
C450 C448 1.378 . S
C450 C451 1.367 . S
C451 C450 1.367 . S
C451 C453 1.433 . S
C452 C448 1.350 . S
C452 C449 1.463 1_655 S
C452 N456 1.427 . S
C453 H443 0.929 . S
C453 C451 1.433 . S
C453 N456 1.384 . S
C454 H445 0.929 . S
C454 C446 1.378 . S
C454 C449 1.350 . S
C455 H442 0.929 . S
C455 C447 1.433 . S
C455 N457 1.384 . S
N456 C452 1.427 . S
N456 C453 1.384 . S
N457 C449 1.427 . S
N457 C455 1.384 . S
H458 C464 0.930 . S
H459 C468 0.930 . S
H460 C473 0.929 . S
H461 C471 0.929 . S
H462 C466 0.929 . S
H463 C472 0.929 . S
C464 H458 0.930 . S
C464 C465 1.367 . S
C464 C472 1.378 . S
C465 C464 1.367 . S
C465 C473 1.433 . S
C466 H462 0.929 . S
C466 C468 1.378 . S
C466 C470 1.350 . S
C467 C470 1.463 . S
C467 C472 1.350 . S
C467 N475 1.427 . S
C468 H459 0.930 . S
C468 C466 1.378 . S
C468 C469 1.367 . S
C469 C468 1.367 . S
C469 C471 1.433 . S
C470 C466 1.350 . S
C470 C467 1.463 . S
C470 N474 1.427 . S
C471 H461 0.929 . S
C471 C469 1.433 . S
C471 N474 1.384 . S
C472 H463 0.929 . S
C472 C464 1.378 . S
C472 C467 1.350 . S
C473 H460 0.929 . S
C473 C465 1.433 . S
C473 N475 1.384 . S
N474 C470 1.427 . S
N474 C471 1.384 . S
N475 C467 1.427 . S
N475 C473 1.384 . S
H476 C482 0.930 . S
H477 C486 0.930 . S
H478 C491 0.929 . S
H479 C489 0.929 . S
H480 C484 0.929 . S
H481 C490 0.929 . S
C482 H476 0.930 . S
C482 C483 1.367 . S
C482 C490 1.378 . S
C483 C482 1.367 . S
C483 C491 1.433 . S
C484 H480 0.929 . S
C484 C486 1.378 . S
C484 C488 1.350 . S
C485 C488 1.463 . S
C485 C490 1.350 . S
C485 N493 1.427 . S
C486 H477 0.930 . S
C486 C484 1.378 . S
C486 C487 1.367 . S
C487 C486 1.367 . S
C487 C489 1.433 . S
C488 C484 1.350 . S
C488 C485 1.463 . S
C488 N492 1.427 . S
C489 H479 0.929 . S
C489 C487 1.433 . S
C489 N492 1.384 . S
C490 H481 0.929 . S
C490 C482 1.378 . S
C490 C485 1.350 . S
C491 H478 0.929 . S
C491 C483 1.433 . S
C491 N493 1.384 . S
N492 C488 1.427 . S
N492 C489 1.384 . S
N493 C485 1.427 . S
N493 C491 1.384 . S
H494 C500 0.930 . S
H495 C504 0.930 . S
H496 C509 0.929 . S
H497 C507 0.929 . S
H498 C502 0.929 . S
H499 C508 0.929 . S
C500 H494 0.930 . S
C500 C501 1.367 . S
C500 C508 1.378 . S
C501 C500 1.367 . S
C501 C509 1.433 . S
C502 H498 0.929 . S
C502 C504 1.378 . S
C502 C506 1.350 . S
C503 C506 1.463 1_455 S
C503 C508 1.350 . S
C503 N511 1.427 . S
C504 H495 0.930 . S
C504 C502 1.378 . S
C504 C505 1.367 . S
C505 C504 1.367 . S
C505 C507 1.433 . S
C506 C502 1.350 . S
C506 C503 1.463 1_655 S
C506 N510 1.427 . S
C507 H497 0.929 . S
C507 C505 1.433 . S
C507 N510 1.384 . S
C508 H499 0.929 . S
C508 C500 1.378 . S
C508 C503 1.350 . S
C509 H496 0.929 . S
C509 C501 1.433 . S
C509 N511 1.384 . S
N510 C506 1.427 . S
N510 C507 1.384 . S
N511 C503 1.427 . S
N511 C509 1.384 . S
H512 C518 0.930 . S
H513 C522 0.930 . S
H514 C527 0.929 . S
H515 C525 0.929 . S
H516 C520 0.910 1_554 S
H517 C526 0.929 1_556 S
C518 H512 0.930 . S
C518 C519 1.367 . S
C518 C526 1.378 . S
C519 C518 1.367 . S
C519 C527 1.433 . S
C520 H516 0.910 1_556 S
C520 C522 1.391 . S
C520 C524 1.356 . S
C521 C524 1.463 1_554 S
C521 C526 1.350 . S
C521 N529 1.427 . S
C522 H513 0.930 . S
C522 C520 1.391 . S
C522 C523 1.367 . S
C523 C522 1.367 . S
C523 C525 1.433 . S
C524 C520 1.356 . S
C524 C521 1.463 1_556 S
C524 N528 1.427 . S
C525 H515 0.929 . S
C525 C523 1.433 . S
C525 N528 1.384 . S
C526 H517 0.929 1_554 S
C526 C518 1.378 . S
C526 C521 1.350 . S
C527 H514 0.929 . S
C527 C519 1.433 . S
C527 N529 1.384 . S
N528 C524 1.427 . S
N528 C525 1.384 . S
N529 C521 1.427 . S
N529 C527 1.384 . S
H530 C536 0.930 . S
H531 C540 0.930 . S
H532 C545 0.929 . S
H533 C543 0.929 . S
H534 C538 0.929 . S
H535 C544 0.929 . S
C536 H530 0.930 . S
C536 C537 1.367 . S
C536 C544 1.378 . S
C537 C536 1.367 . S
C537 C545 1.433 . S
C538 H534 0.929 . S
C538 C540 1.378 . S
C538 C542 1.350 . S
C539 C542 1.463 . S
C539 C544 1.350 . S
C539 N547 1.427 . S
C540 H531 0.930 . S
C540 C538 1.378 . S
C540 C541 1.367 . S
C541 C540 1.367 . S
C541 C543 1.433 . S
C542 C538 1.350 . S
C542 C539 1.463 . S
C542 N546 1.427 . S
C543 H533 0.929 . S
C543 C541 1.433 . S
C543 N546 1.384 . S
C544 H535 0.929 . S
C544 C536 1.378 . S
C544 C539 1.350 . S
C545 H532 0.929 . S
C545 C537 1.433 . S
C545 N547 1.384 . S
N546 C542 1.427 . S
N546 C543 1.384 . S
N547 C539 1.427 . S
N547 C545 1.384 . S
H548 C554 0.930 . S
H549 C558 0.930 . S
H550 C563 0.929 . S
H551 C561 0.929 . S
H552 C556 0.929 . S
H553 C562 0.929 . S
C554 H548 0.930 . S
C554 C555 1.367 . S
C554 C562 1.378 . S
C555 C554 1.367 . S
C555 C563 1.433 . S
C556 H552 0.929 . S
C556 C558 1.378 . S
C556 C560 1.350 . S
C557 C560 1.463 . S
C557 C562 1.350 . S
C557 N565 1.427 . S
C558 H549 0.930 . S
C558 C556 1.378 . S
C558 C559 1.367 . S
C559 C558 1.367 . S
C559 C561 1.433 . S
C560 C556 1.350 . S
C560 C557 1.463 . S
C560 N564 1.427 . S
C561 H551 0.929 . S
C561 C559 1.433 . S
C561 N564 1.384 . S
C562 H553 0.929 . S
C562 C554 1.378 . S
C562 C557 1.350 . S
C563 H550 0.929 . S
C563 C555 1.433 . S
C563 N565 1.384 . S
N564 C560 1.427 . S
N564 C561 1.384 . S
N565 C557 1.427 . S
N565 C563 1.384 . S
H566 C572 0.930 . S
H567 C576 0.930 . S
H568 C581 0.929 . S
H569 C579 0.929 . S
H570 C574 0.929 . S
H571 C580 0.929 . S
C572 H566 0.930 . S
C572 C573 1.367 . S
C572 C580 1.378 . S
C573 C572 1.367 . S
C573 C581 1.433 . S
C574 H570 0.929 . S
C574 C576 1.378 . S
C574 C578 1.350 . S
C575 C578 1.463 . S
C575 C580 1.350 . S
C575 N583 1.427 . S
C576 H567 0.930 . S
C576 C574 1.378 . S
C576 C577 1.367 . S
C577 C576 1.367 . S
C577 C579 1.433 . S
C578 C574 1.350 . S
C578 C575 1.463 . S
C578 N582 1.427 . S
C579 H569 0.929 . S
C579 C577 1.433 . S
C579 N582 1.384 . S
C580 H571 0.929 . S
C580 C572 1.378 . S
C580 C575 1.350 . S
C581 H568 0.929 . S
C581 C573 1.433 . S
C581 N583 1.384 . S
N582 C578 1.427 . S
N582 C579 1.384 . S
N583 C575 1.427 . S
N583 C581 1.384 . S
H584 C590 0.930 . S
H585 C594 0.930 . S
H586 C599 0.929 . S
H587 C597 0.929 . S
H588 C592 0.935 . S
H589 C598 0.929 1_554 S
C590 H584 0.930 . S
C590 C591 1.367 . S
C590 C598 1.378 . S
C591 C590 1.367 . S
C591 C599 1.433 . S
C592 H588 0.935 . S
C592 C594 1.378 . S
C592 C596 1.350 . S
C593 C596 1.463 1_556 S
C593 C598 1.350 . S
C593 N601 1.427 . S
C594 H585 0.930 . S
C594 C592 1.378 . S
C594 C595 1.367 . S
C595 C594 1.367 . S
C595 C597 1.433 . S
C596 C592 1.350 . S
C596 C593 1.463 1_554 S
C596 N600 1.427 . S
C597 H587 0.929 . S
C597 C595 1.433 . S
C597 N600 1.384 . S
C598 H589 0.929 1_556 S
C598 C590 1.378 . S
C598 C593 1.350 . S
C599 H586 0.929 . S
C599 C591 1.433 . S
C599 N601 1.384 . S
N600 C596 1.427 . S
N600 C597 1.384 . S
N601 C593 1.427 . S
N601 C599 1.384 . S
H602 C608 0.930 . S
H603 C612 0.930 . S
H604 C617 0.929 . S
H605 C615 0.929 . S
H606 C610 0.929 . S
H607 C616 0.929 . S
C608 H602 0.930 . S
C608 C609 1.367 . S
C608 C616 1.378 . S
C609 C608 1.367 . S
C609 C617 1.433 . S
C610 H606 0.929 . S
C610 C612 1.378 . S
C610 C614 1.350 . S
C611 C614 1.463 . S
C611 C616 1.350 . S
C611 N619 1.427 . S
C612 H603 0.930 . S
C612 C610 1.378 . S
C612 C613 1.367 . S
C613 C612 1.367 . S
C613 C615 1.433 . S
C614 C610 1.350 . S
C614 C611 1.463 . S
C614 N618 1.427 . S
C615 H605 0.929 . S
C615 C613 1.433 . S
C615 N618 1.384 . S
C616 H607 0.929 . S
C616 C608 1.378 . S
C616 C611 1.350 . S
C617 H604 0.929 . S
C617 C609 1.433 . S
C617 N619 1.384 . S
N618 C614 1.427 . S
N618 C615 1.384 . S
N619 C611 1.427 . S
N619 C617 1.384 . S
H620 C626 0.930 . S
H621 C630 0.930 . S
H622 C635 0.929 . S
H623 C633 0.929 . S
H624 C628 0.929 . S
H625 C634 0.929 . S
C626 H620 0.930 . S
C626 C627 1.367 . S
C626 C634 1.378 . S
C627 C626 1.367 . S
C627 C635 1.433 . S
C628 H624 0.929 . S
C628 C630 1.378 . S
C628 C632 1.350 . S
C629 C632 1.463 . S
C629 C634 1.350 . S
C629 N637 1.427 . S
C630 H621 0.930 . S
C630 C628 1.378 . S
C630 C631 1.367 . S
C631 C630 1.367 . S
C631 C633 1.433 . S
C632 C628 1.350 . S
C632 C629 1.463 . S
C632 N636 1.427 . S
C633 H623 0.929 . S
C633 C631 1.433 . S
C633 N636 1.384 . S
C634 H625 0.929 . S
C634 C626 1.378 . S
C634 C629 1.350 . S
C635 H622 0.929 . S
C635 C627 1.433 . S
C635 N637 1.384 . S
N636 C632 1.427 . S
N636 C633 1.384 . S
N637 C629 1.427 . S
N637 C635 1.384 . S
H638 C644 0.930 . S
H639 C648 0.930 . S
H640 C653 0.929 . S
H641 C651 0.929 . S
H642 C646 0.929 . S
H643 C652 0.929 . S
C644 H638 0.930 . S
C644 C645 1.367 . S
C644 C652 1.378 . S
C645 C644 1.367 . S
C645 C653 1.433 . S
C646 H642 0.929 . S
C646 C648 1.378 . S
C646 C650 1.350 . S
C647 C650 1.463 . S
C647 C652 1.350 . S
C647 N655 1.427 . S
C648 H639 0.930 . S
C648 C646 1.378 . S
C648 C649 1.367 . S
C649 C648 1.367 . S
C649 C651 1.433 . S
C650 C646 1.350 . S
C650 C647 1.463 . S
C650 N654 1.427 . S
C651 H641 0.929 . S
C651 C649 1.433 . S
C651 N654 1.384 . S
C652 H643 0.929 . S
C652 C644 1.378 . S
C652 C647 1.350 . S
C653 H640 0.929 . S
C653 C645 1.433 . S
C653 N655 1.384 . S
N654 C650 1.427 . S
N654 C651 1.384 . S
N655 C647 1.427 . S
N655 C653 1.384 . S
H656 C662 0.930 . S
H657 C666 0.930 . S
H658 C671 0.929 . S
H659 C669 0.929 . S
H660 C664 0.929 1_545 S
H661 C670 0.929 1_565 S
C662 H656 0.930 . S
C662 C663 1.367 . S
C662 C670 1.378 . S
C663 C662 1.367 . S
C663 C671 1.433 . S
C664 H660 0.929 1_565 S
C664 C666 1.378 . S
C664 C668 1.350 . S
C665 C668 1.463 1_545 S
C665 C670 1.350 . S
C665 N673 1.427 . S
C666 H657 0.930 . S
C666 C664 1.378 . S
C666 C667 1.367 . S
C667 C666 1.367 . S
C667 C669 1.433 . S
C668 C664 1.350 . S
C668 C665 1.463 1_565 S
C668 N672 1.427 . S
C669 H659 0.929 . S
C669 C667 1.433 . S
C669 N672 1.384 . S
C670 H661 0.929 1_545 S
C670 C662 1.378 . S
C670 C665 1.350 . S
C671 H658 0.929 . S
C671 C663 1.433 . S
C671 N673 1.384 . S
N672 C668 1.427 . S
N672 C669 1.384 . S
N673 C665 1.427 . S
N673 C671 1.384 . S
H674 C680 0.930 . S
H675 C684 0.930 . S
H676 C689 0.929 . S
H677 C687 0.929 . S
H678 C682 0.929 . S
H679 C688 0.929 . S
C680 H674 0.930 . S
C680 C681 1.367 . S
C680 C688 1.378 . S
C681 C680 1.367 . S
C681 C689 1.433 . S
C682 H678 0.929 . S
C682 C684 1.378 . S
C682 C686 1.350 . S
C683 C686 1.463 . S
C683 C688 1.350 . S
C683 N691 1.427 . S
C684 H675 0.930 . S
C684 C682 1.378 . S
C684 C685 1.367 . S
C685 C684 1.367 . S
C685 C687 1.433 . S
C686 C682 1.350 . S
C686 C683 1.463 . S
C686 N690 1.427 . S
C687 H677 0.929 . S
C687 C685 1.433 . S
C687 N690 1.384 . S
C688 H679 0.929 . S
C688 C680 1.378 . S
C688 C683 1.350 . S
C689 H676 0.929 . S
C689 C681 1.433 . S
C689 N691 1.384 . S
N690 C686 1.427 . S
N690 C687 1.384 . S
N691 C683 1.427 . S
N691 C689 1.384 . S
H692 C698 0.930 . S
H693 C702 0.930 . S
H694 C707 0.929 . S
H695 C705 0.929 . S
H696 C700 0.929 1_556 S
H697 C706 0.936 . S
C698 H692 0.930 . S
C698 C699 1.367 . S
C698 C706 1.372 1_556 S
C699 C698 1.367 . S
C699 C707 1.433 . S
C700 H696 0.929 1_554 S
C700 C702 1.378 . S
C700 C704 1.350 . S
C701 C704 1.463 1_546 S
C701 C706 1.348 1_556 S
C701 N709 1.427 . S
C702 H693 0.930 . S
C702 C700 1.378 . S
C702 C703 1.367 . S
C703 C702 1.367 . S
C703 C705 1.433 . S
C704 C700 1.350 . S
C704 C701 1.463 1_564 S
C704 N708 1.427 . S
C705 H695 0.929 . S
C705 C703 1.433 . S
C705 N708 1.384 . S
C706 H697 0.936 . S
C706 C698 1.372 1_554 S
C706 C701 1.348 1_554 S
C707 H694 0.929 . S
C707 C699 1.433 . S
C707 N709 1.384 . S
N708 C704 1.427 . S
N708 C705 1.384 . S
N709 C701 1.427 . S
N709 C707 1.384 . S
H710 C716 0.930 . S
H711 C720 0.930 . S
H712 C725 0.929 . S
H713 C723 0.929 . S
H714 C718 0.929 . S
H715 C724 0.929 . S
C716 H710 0.930 . S
C716 C717 1.367 . S
C716 C724 1.378 . S
C717 C716 1.367 . S
C717 C725 1.433 . S
C718 H714 0.929 . S
C718 C720 1.378 . S
C718 C722 1.350 . S
C719 C722 1.463 . S
C719 C724 1.350 . S
C719 N727 1.427 . S
C720 H711 0.930 . S
C720 C718 1.378 . S
C720 C721 1.367 . S
C721 C720 1.367 . S
C721 C723 1.433 . S
C722 C718 1.350 . S
C722 C719 1.463 . S
C722 N726 1.427 . S
C723 H713 0.929 . S
C723 C721 1.433 . S
C723 N726 1.384 . S
C724 H715 0.929 . S
C724 C716 1.378 . S
C724 C719 1.350 . S
C725 H712 0.929 . S
C725 C717 1.433 . S
C725 N727 1.384 . S
N726 C722 1.427 . S
N726 C723 1.384 . S
N727 C719 1.427 . S
N727 C725 1.384 . S
H728 C734 0.930 . S
H729 C738 0.930 . S
H730 C743 0.929 . S
H731 C741 0.929 . S
H732 C736 0.929 1_545 S
H733 C742 0.929 1_565 S
C734 H728 0.930 . S
C734 C735 1.367 . S
C734 C742 1.378 . S
C735 C734 1.367 . S
C735 C743 1.433 . S
C736 H732 0.929 1_565 S
C736 C738 1.378 . S
C736 C740 1.350 . S
C737 C740 1.463 1_545 S
C737 C742 1.350 . S
C737 N745 1.427 . S
C738 H729 0.930 . S
C738 C736 1.378 . S
C738 C739 1.367 . S
C739 C738 1.367 . S
C739 C741 1.433 . S
C740 C736 1.350 . S
C740 C737 1.463 1_565 S
C740 N744 1.427 . S
C741 H731 0.929 . S
C741 C739 1.433 . S
C741 N744 1.384 . S
C742 H733 0.929 1_545 S
C742 C734 1.378 . S
C742 C737 1.350 . S
C743 H730 0.929 . S
C743 C735 1.433 . S
C743 N745 1.384 . S
N744 C740 1.427 . S
N744 C741 1.384 . S
N745 C737 1.427 . S
N745 C743 1.384 . S
H746 C752 0.930 . S
H747 C756 0.930 . S
H748 C761 0.929 . S
H749 C759 0.929 . S
H750 C754 0.929 . S
H751 C760 0.929 . S
C752 H746 0.930 . S
C752 C753 1.367 . S
C752 C760 1.378 . S
C753 C752 1.367 . S
C753 C761 1.433 . S
C754 H750 0.929 . S
C754 C756 1.378 . S
C754 C758 1.350 . S
C755 C758 1.463 . S
C755 C760 1.350 . S
C755 N763 1.427 . S
C756 H747 0.930 . S
C756 C754 1.378 . S
C756 C757 1.367 . S
C757 C756 1.367 . S
C757 C759 1.433 . S
C758 C754 1.350 . S
C758 C755 1.463 . S
C758 N762 1.427 . S
C759 H749 0.929 . S
C759 C757 1.433 . S
C759 N762 1.384 . S
C760 H751 0.929 . S
C760 C752 1.378 . S
C760 C755 1.350 . S
C761 H748 0.929 . S
C761 C753 1.433 . S
C761 N763 1.384 . S
N762 C758 1.427 . S
N762 C759 1.384 . S
N763 C755 1.427 . S
N763 C761 1.384 . S
H764 C770 0.930 . S
H765 C774 0.930 . S
H766 C779 0.929 . S
H767 C777 0.929 . S
H768 C772 0.907 1_554 S
H769 C778 0.928 1_556 S
C770 H764 0.930 . S
C770 C771 1.367 . S
C770 C778 1.378 . S
C771 C770 1.367 . S
C771 C779 1.433 . S
C772 H768 0.907 1_556 S
C772 C774 1.393 . S
C772 C776 1.357 . S
C773 C776 1.463 1_564 S
C773 C778 1.350 . S
C773 N781 1.427 . S
C774 H765 0.930 . S
C774 C772 1.393 . S
C774 C775 1.367 . S
C775 C774 1.367 . S
C775 C777 1.433 . S
C776 C772 1.357 . S
C776 C773 1.463 1_546 S
C776 N780 1.427 . S
C777 H767 0.929 . S
C777 C775 1.433 . S
C777 N780 1.384 . S
C778 H769 0.928 1_554 S
C778 C770 1.378 . S
C778 C773 1.350 . S
C779 H766 0.929 . S
C779 C771 1.433 . S
C779 N781 1.384 . S
N780 C776 1.427 . S
N780 C777 1.384 . S
N781 C773 1.427 . S
N781 C779 1.384 . S
H782 C788 0.930 . S
H783 C792 0.930 . S
H784 C797 0.929 . S
H785 C795 0.929 . S
H786 C790 0.929 . S
H787 C796 0.929 . S
C788 H782 0.930 . S
C788 C789 1.367 . S
C788 C796 1.378 . S
C789 C788 1.367 . S
C789 C797 1.433 . S
C790 H786 0.929 . S
C790 C792 1.378 . S
C790 C794 1.350 . S
C791 C794 1.463 . S
C791 C796 1.350 . S
C791 N799 1.427 . S
C792 H783 0.930 . S
C792 C790 1.378 . S
C792 C793 1.367 . S
C793 C792 1.367 . S
C793 C795 1.433 . S
C794 C790 1.350 . S
C794 C791 1.463 . S
C794 N798 1.427 . S
C795 H785 0.929 . S
C795 C793 1.433 . S
C795 N798 1.384 . S
C796 H787 0.929 . S
C796 C788 1.378 . S
C796 C791 1.350 . S
C797 H784 0.929 . S
C797 C789 1.433 . S
C797 N799 1.384 . S
N798 C794 1.427 . S
N798 C795 1.384 . S
N799 C791 1.427 . S
N799 C797 1.384 . S
C231 C163 1.397 . S
C235 C7 1.405 . S
C249 C217 1.374 . S
C253 C23 1.358 . S
C267 C35 1.407 . S
C271 C133 1.397 . S
C285 C191 1.276 . S
C289 C51 1.262 . S
C303 C63 1.392 . S
C307 C189 1.391 . S
C321 C79 1.364 . S
C325 C161 1.386 . S
C339 C91 1.414 . S
C343 C219 1.417 . S
C357 C107 1.246 . S
C361 C135 1.260 . S
C375 C49 1.439 . S
C379 C119 1.429 . S
C393 C149 1.372 . S
C397 C21 1.368 . S
C411 C175 1.453 . S
C415 C77 1.457 . S
C429 C205 1.346 . S
C433 C105 1.349 . S
C447 C65 1.319 . S
C451 C121 1.326 . S
C465 C147 1.314 . S
C469 C93 1.299 . S
C483 C203 1.323 . S
C487 C37 1.302 . S
C501 C9 1.305 . S
C505 C177 1.321 . S
C519 C3 1.321 . S
C523 C59 1.321 . S
C537 C22 1.290 . S
C541 C78 1.293 . S
C555 C31 1.426 . S
C559 C87 1.429 . S
C573 C106 1.233 . S
C577 C50 1.233 . S
C591 C115 1.366 . S
C595 C171 1.368 . S
C609 C190 1.216 . S
C613 C134 1.215 . S
C627 C148 1.264 . S
C631 C204 1.265 . S
C645 C213 1.340 . S
C649 C157 1.344 . S
C663 C101 1.365 . S
C667 C17 1.367 . S
C681 C36 1.312 . S
C685 C64 1.314 . S
C699 C45 1.383 . S
C703 C73 1.382 . S
C717 C8 1.212 . S
C721 C92 1.210 . S
C735 C129 1.299 . S
C739 C218 1.309 . S
C753 C176 1.296 . S
C757 C143 1.277 . S
C771 C162 1.327 . S
C775 C185 1.324 . S
C789 C199 1.267 . S
C793 C120 1.277 . S
