# Generated by pormake.
# Topology uou, (4)-cn, num edge types: 1
# Building blocks:
#     Node 0, Type 0, BuildingBlock: KUFVIS_clean_sbu_0, # of connection points: 4
#     Node 1, Type 0, BuildingBlock: KUFVIS_clean_sbu_0, # of connection points: 4
#     Node 2, Type 0, BuildingBlock: KUFVIS_clean_sbu_0, # of connection points: 4
#     Node 3, Type 0, BuildingBlock: KUFVIS_clean_sbu_0, # of connection points: 4
#     Node 4, Type 0, BuildingBlock: KUFVIS_clean_sbu_0, # of connection points: 4
#     Node 5, Type 0, BuildingBlock: KUFVIS_clean_sbu_0, # of connection points: 4
#     Node 6, Type 0, BuildingBlock: KUFVIS_clean_sbu_0, # of connection points: 4
#     Node 7, Type 0, BuildingBlock: KUFVIS_clean_sbu_0, # of connection points: 4
#     Node 8, Type 0, BuildingBlock: KUFVIS_clean_sbu_0, # of connection points: 4
#     Node 9, Type 0, BuildingBlock: KUFVIS_clean_sbu_0, # of connection points: 4
#     Node 10, Type 0, BuildingBlock: KUFVIS_clean_sbu_0, # of connection points: 4
#     Node 11, Type 0, BuildingBlock: KUFVIS_clean_sbu_0, # of connection points: 4
#     Node 12, Type 0, BuildingBlock: KUFVIS_clean_sbu_0, # of connection points: 4
#     Node 13, Type 0, BuildingBlock: KUFVIS_clean_sbu_0, # of connection points: 4
#     Node 14, Type 0, BuildingBlock: KUFVIS_clean_sbu_0, # of connection points: 4
#     Node 15, Type 0, BuildingBlock: KUFVIS_clean_sbu_0, # of connection points: 4
#     Edge 16, Type (0, 0), BuildingBlock: TEMPAE_clean_linker_10, # of connection points: 2
#     Edge 17, Type (0, 0), BuildingBlock: TEMPAE_clean_linker_10, # of connection points: 2
#     Edge 18, Type (0, 0), BuildingBlock: TEMPAE_clean_linker_10, # of connection points: 2
#     Edge 19, Type (0, 0), BuildingBlock: TEMPAE_clean_linker_10, # of connection points: 2
#     Edge 20, Type (0, 0), BuildingBlock: TEMPAE_clean_linker_10, # of connection points: 2
#     Edge 21, Type (0, 0), BuildingBlock: TEMPAE_clean_linker_10, # of connection points: 2
#     Edge 22, Type (0, 0), BuildingBlock: TEMPAE_clean_linker_10, # of connection points: 2
#     Edge 23, Type (0, 0), BuildingBlock: TEMPAE_clean_linker_10, # of connection points: 2
#     Edge 24, Type (0, 0), BuildingBlock: TEMPAE_clean_linker_10, # of connection points: 2
#     Edge 25, Type (0, 0), BuildingBlock: TEMPAE_clean_linker_10, # of connection points: 2
#     Edge 26, Type (0, 0), BuildingBlock: TEMPAE_clean_linker_10, # of connection points: 2
#     Edge 27, Type (0, 0), BuildingBlock: TEMPAE_clean_linker_10, # of connection points: 2
#     Edge 28, Type (0, 0), BuildingBlock: TEMPAE_clean_linker_10, # of connection points: 2
#     Edge 29, Type (0, 0), BuildingBlock: TEMPAE_clean_linker_10, # of connection points: 2
#     Edge 30, Type (0, 0), BuildingBlock: TEMPAE_clean_linker_10, # of connection points: 2
#     Edge 31, Type (0, 0), BuildingBlock: TEMPAE_clean_linker_10, # of connection points: 2
#     Edge 32, Type (0, 0), BuildingBlock: TEMPAE_clean_linker_10, # of connection points: 2
#     Edge 33, Type (0, 0), BuildingBlock: TEMPAE_clean_linker_10, # of connection points: 2
#     Edge 34, Type (0, 0), BuildingBlock: TEMPAE_clean_linker_10, # of connection points: 2
#     Edge 35, Type (0, 0), BuildingBlock: TEMPAE_clean_linker_10, # of connection points: 2
#     Edge 36, Type (0, 0), BuildingBlock: TEMPAE_clean_linker_10, # of connection points: 2
#     Edge 37, Type (0, 0), BuildingBlock: TEMPAE_clean_linker_10, # of connection points: 2
#     Edge 38, Type (0, 0), BuildingBlock: TEMPAE_clean_linker_10, # of connection points: 2
#     Edge 39, Type (0, 0), BuildingBlock: TEMPAE_clean_linker_10, # of connection points: 2
#     Edge 40, Type (0, 0), BuildingBlock: TEMPAE_clean_linker_10, # of connection points: 2
#     Edge 41, Type (0, 0), BuildingBlock: TEMPAE_clean_linker_10, # of connection points: 2
#     Edge 42, Type (0, 0), BuildingBlock: TEMPAE_clean_linker_10, # of connection points: 2
#     Edge 43, Type (0, 0), BuildingBlock: TEMPAE_clean_linker_10, # of connection points: 2
#     Edge 44, Type (0, 0), BuildingBlock: TEMPAE_clean_linker_10, # of connection points: 2
#     Edge 45, Type (0, 0), BuildingBlock: TEMPAE_clean_linker_10, # of connection points: 2
#     Edge 46, Type (0, 0), BuildingBlock: TEMPAE_clean_linker_10, # of connection points: 2
#     Edge 47, Type (0, 0), BuildingBlock: TEMPAE_clean_linker_10, # of connection points: 2
# Relax obj value: 0.047
# Max RMSD: 0.084
# Mean RMSD: 0.084
data_MOF--net-uou--node1-KUFVIS_clean_sbu_0--edge1-TEMPAE_clean_linker_10
_symmetry_space_group_name_H-M    P1
_symmetry_Int_Tables_number       1
_symmetry_cell_setting            triclinic
loop_
_symmetry_equiv_pos_as_xyz
'x, y, z'
_cell_length_a     38.53682
_cell_length_b     41.034585
_cell_length_c     53.029989
_cell_angle_alpha  89.976278
_cell_angle_beta   90.025671
_cell_angle_gamma 89.997561
loop_
_atom_site_label
_atom_site_type_symbol
_atom_site_fract_x
_atom_site_fract_y
_atom_site_fract_z
_atom_type_partial_charge
Mn0 Mn 0.06327 0.09101 0.1189 0.0
Mn1 Mn 0.05983 0.0113 0.13519 0.0
C2 C 0.05635 0.07669 0.16092 0.0
C3 C 0.03804 0.1406 0.10681 0.0
C4 C 0.12622 0.04544 0.12097 0.0
O5 O 0.05082 0.06893 0.08586 0.0
O6 O 0.04851 0.01651 0.09881 0.0
C7 C 0.9852 0.99678 0.12797 0.0
N8 N 0.01394 0.99704 0.1429 0.0
C9 C 0.98542 0.9648 0.17465 0.0
C10 C 0.95543 0.96424 0.15966 0.0
C11 C 0.95523 0.98055 0.13633 0.0
C12 C 0.01422 0.98189 0.16555 0.0
H13 H 0.98535 0.00854 0.10974 0.0
C14 C 0.04577 0.03862 0.08184 0.0
O15 O 0.0702 0.13387 0.10186 0.0
O16 O 0.02007 0.11802 0.11793 0.0
N17 N 0.07008 1.00256 0.16974 0.0
C18 C 0.09984 0.00837 0.18284 0.0
C19 C 0.10345 0.99574 0.20733 0.0
C20 C 0.0768 0.97662 0.21774 0.0
C21 C 0.04646 0.971 0.20379 0.0
C22 C 0.04394 0.98499 0.17983 0.0
H23 H 0.12069 0.02234 0.17459 0.0
O24 O 0.07025 0.10432 0.15449 0.0
O25 O 0.04779 0.05732 0.1424 0.0
O26 O 0.11329 0.07347 0.11682 0.0
O27 O 0.10854 0.02104 0.12802 0.0
C28 C 0.01869 0.95192 0.21262 0.0
C29 C 0.98797 0.94915 0.19824 0.0
H30 H 0.93238 0.95147 0.16591 0.0
H31 H 0.93219 0.98018 0.12465 0.0
H32 H 0.12692 1.00028 0.21798 0.0
H33 H 0.07983 0.96654 0.2365 0.0
H34 H 0.02083 0.9393 0.23045 0.0
H35 H 0.96643 0.93509 0.20558 0.0
Mn36 Mn 0.43456 0.92499 0.11796 0.0
Mn37 Mn 0.44474 1.0043 0.13334 0.0
C38 C 0.44418 0.93939 0.15966 0.0
C39 C 0.45675 0.87412 0.10597 0.0
C40 C 0.37558 0.9748 0.11875 0.0
O41 O 0.44735 0.94636 0.08454 0.0
O42 O 0.45753 0.99813 0.09739 0.0
C43 C 0.5204 0.01479 0.12835 0.0
N44 N 0.4911 0.01529 0.14267 0.0
C45 C 0.52091 0.04202 0.17676 0.0
C46 C 0.55146 0.04183 0.16239 0.0
C47 C 0.55125 0.02795 0.13815 0.0
C48 C 0.49105 0.02845 0.16605 0.0
H49 H 0.5201 1.00472 0.10953 0.0
C50 C 0.45673 0.97581 0.08047 0.0
O51 O 0.42477 0.88217 0.10146 0.0
O52 O 0.47618 0.8961 0.11645 0.0
N53 N 0.4331 0.01287 0.16768 0.0
C54 C 0.40226 0.00846 0.17976 0.0
C55 C 0.39879 0.01862 0.20491 0.0
C56 C 0.42686 0.03361 0.21717 0.0
C57 C 0.45831 0.03782 0.20427 0.0
C58 C 0.46042 0.02673 0.17942 0.0
H59 H 0.38053 0.99723 0.17028 0.0
O60 O 0.42831 0.91244 0.15397 0.0
O61 O 0.45297 0.9578 0.14067 0.0
O62 O 0.38556 0.9453 0.11676 0.0
O63 O 0.39599 0.99795 0.12437 0.0
C64 C 0.48768 0.05243 0.21515 0.0
C65 C 0.51901 0.05457 0.20147 0.0
H66 H 0.57529 0.05194 0.16988 0.0
H67 H 0.57473 0.02766 0.12697 0.0
H68 H 0.37447 0.01513 0.21474 0.0
H69 H 0.42408 0.04159 0.23654 0.0
H70 H 0.48618 0.06198 0.23406 0.0
H71 H 0.54161 0.06541 0.21026 0.0
Mn72 Mn 0.56553 0.92663 0.37299 0.0
Mn73 Mn 0.56269 1.00637 0.35683 0.0
C74 C 0.55914 0.94094 0.3309 0.0
C75 C 0.53918 0.8773 0.38472 0.0
C76 C 0.62851 0.97198 0.37265 0.0
O77 O 0.55312 0.94913 0.40604 0.0
O78 O 0.54882 1.00129 0.39264 0.0
C79 C 0.48795 0.02204 0.36114 0.0
N80 N 0.51763 0.02105 0.34725 0.0
C81 C 0.49183 0.05312 0.31419 0.0
C82 C 0.46089 0.05442 0.32807 0.0
C83 C 0.45885 0.03856 0.35154 0.0
C84 C 0.51971 0.03584 0.32451 0.0
H85 H 0.4867 0.01065 0.37948 0.0
C86 C 0.54676 0.97933 0.40977 0.0
O87 O 0.57139 0.88348 0.39001 0.0
O88 O 0.52181 0.90034 0.37367 0.0
N89 N 0.57555 0.01459 0.32268 0.0
C90 C 0.60612 0.0082 0.31079 0.0
C91 C 0.61155 0.02022 0.28631 0.0
C92 C 0.58585 0.03928 0.27463 0.0
C93 C 0.55464 0.04549 0.28735 0.0
C94 C 0.55033 0.03212 0.31138 0.0
H95 H 0.62622 0.99422 0.32 0.0
O96 O 0.5726 0.91317 0.33744 0.0
O97 O 0.55073 0.96041 0.34939 0.0
O98 O 0.61589 0.9435 0.37521 0.0
O99 O 0.61065 0.99654 0.36618 0.0
C100 C 0.52771 0.06456 0.27722 0.0
C101 C 0.49616 0.06816 0.29048 0.0
H102 H 0.4385 0.06736 0.32084 0.0
H103 H 0.43508 0.0395 0.36237 0.0
H104 H 0.63569 0.01524 0.27662 0.0
H105 H 0.59027 0.04887 0.25587 0.0
H106 H 0.53114 0.07655 0.25922 0.0
H107 H 0.47532 0.08227 0.28219 0.0
Mn108 Mn 0.93836 0.09086 0.37574 0.0
Mn109 Mn 0.94373 0.01169 0.35867 0.0
C110 C 0.94591 0.0774 0.33361 0.0
C111 C 0.96366 0.14028 0.38838 0.0
C112 C 0.87688 0.04391 0.37511 0.0
O113 O 0.95067 0.06755 0.4086 0.0
O114 O 0.95841 0.01602 0.39436 0.0
C115 C 0.01892 0.99754 0.36156 0.0
N116 N 0.98899 0.99894 0.34797 0.0
C117 C 0.01576 0.97219 0.3126 0.0
C118 C 0.04693 0.97043 0.32621 0.0
C119 C 0.04857 0.98337 0.35073 0.0
C120 C 0.98717 0.9867 0.32433 0.0
H121 H 0.02001 1.00689 0.38059 0.0
C122 C 0.95888 0.03759 0.41185 0.0
O123 O 0.93145 0.13356 0.39323 0.0
O124 O 0.9816 0.11772 0.37726 0.0
N125 N 0.93006 1.00492 0.32448 0.0
C126 C 0.89893 0.01116 0.31328 0.0
C127 C 0.89375 1.0021 0.28804 0.0
C128 C 0.92041 0.9863 0.27477 0.0
C129 C 0.95219 0.9802 0.28679 0.0
C130 C 0.95605 0.99029 0.31178 0.0
H131 H 0.87827 0.02301 0.32352 0.0
O132 O 0.93192 0.10497 0.34006 0.0
O133 O 0.95418 0.05798 0.3521 0.0
O134 O 0.88832 0.07293 0.37708 0.0
O135 O 0.89581 0.01987 0.36905 0.0
C136 C 0.98021 0.96466 0.27488 0.0
C137 C 0.01204 0.96063 0.28771 0.0
H138 H 0.06984 0.95952 0.31792 0.0
H139 H 0.07254 0.98215 0.36132 0.0
H140 H 0.86919 1.00703 0.27889 0.0
H141 H 0.91631 0.97916 0.25533 0.0
H142 H 0.97729 0.95585 0.25584 0.0
H143 H 0.03362 0.94909 0.27815 0.0
Mn144 Mn 0.93685 0.92468 0.87063 0.0
Mn145 Mn 0.95177 1.00394 0.85821 0.0
C146 C 0.94322 0.94233 0.82895 0.0
C147 C 0.95961 0.8729 0.87952 0.0
C148 C 0.88097 0.97761 0.87367 0.0
O149 O 0.95203 0.94248 0.90475 0.0
O150 O 0.96619 0.99366 0.89323 0.0
C151 C 0.02856 1.0016 0.86018 0.0
N152 N 0.99882 0.00932 0.84766 0.0
C153 C 0.03093 0.03338 0.81355 0.0
C154 C 0.06194 0.02612 0.8262 0.0
C155 C 0.06074 0.00982 0.8495 0.0
C156 C 0.99973 0.02375 0.82479 0.0
H157 H 0.02769 0.98925 0.87813 0.0
C158 C 0.96442 0.97066 0.90948 0.0
O159 O 0.9279 0.88042 0.88554 0.0
O160 O 0.978 0.89558 0.86909 0.0
N161 N 0.93969 0.01788 0.82492 0.0
C162 C 0.90754 0.02232 0.8148 0.0
C163 C 0.9041 0.03824 0.79149 0.0
C164 C 0.93373 0.0498 0.77897 0.0
C165 C 0.96654 0.04498 0.78976 0.0
C166 C 0.96837 0.02878 0.81294 0.0
H167 H 0.88478 0.01327 0.8242 0.0
O168 O 0.92751 0.91518 0.83411 0.0
O169 O 0.9543 0.95822 0.84847 0.0
O170 O 0.8896 0.94753 0.87474 0.0
O171 O 0.9023 1.00044 0.86819 0.0
C172 C 0.99745 0.05615 0.77863 0.0
C173 C 0.02968 0.05012 0.79037 0.0
H174 H 0.08677 0.03284 0.81818 0.0
H175 H 0.08456 1.00389 0.85931 0.0
H176 H 0.87867 0.04163 0.78322 0.0
H177 H 0.93101 0.06217 0.76102 0.0
H178 H 0.99657 0.06954 0.76112 0.0
H179 H 0.05333 0.05845 0.78141 0.0
Mn180 Mn 0.57073 0.08611 0.87001 0.0
Mn181 Mn 0.55555 1.00715 0.85684 0.0
C182 C 0.56463 0.06922 0.82811 0.0
C183 C 0.54802 0.13777 0.87931 0.0
C184 C 0.62626 0.03296 0.87311 0.0
O185 O 0.55527 0.06775 0.90387 0.0
O186 O 0.54037 0.01697 0.89178 0.0
C187 C 0.47873 0.00972 0.85785 0.0
N188 N 0.50873 1.00206 0.84566 0.0
C189 C 0.47734 0.97858 0.81096 0.0
C190 C 0.44607 0.98579 0.82326 0.0
C191 C 0.44677 1.00177 0.84669 0.0
C192 C 0.50831 0.98794 0.82268 0.0
H193 H 0.47924 0.02183 0.8759 0.0
C194 C 0.54239 0.03967 0.90826 0.0
O195 O 0.57967 0.13008 0.88539 0.0
O196 O 0.52965 0.11531 0.86857 0.0
N197 N 0.56835 0.99366 0.82361 0.0
C198 C 0.60071 0.98932 0.81385 0.0
C199 C 0.60464 0.97371 0.79046 0.0
C200 C 0.57527 0.96237 0.7775 0.0
C201 C 0.54223 0.9671 0.78792 0.0
C202 C 0.53992 0.98298 0.81119 0.0
H203 H 0.62328 0.99819 0.82359 0.0
O204 O 0.58038 0.09624 0.83363 0.0
O205 O 0.55337 0.05302 0.84743 0.0
O206 O 0.61786 0.06309 0.87412 0.0
O207 O 0.60481 0.01029 0.86748 0.0
C208 C 0.51155 0.95616 0.77632 0.0
C209 C 0.47907 0.96214 0.78768 0.0
H210 H 0.4214 0.97927 0.81486 0.0
H211 H 0.42276 1.00765 0.85623 0.0
H212 H 0.63024 0.97039 0.78248 0.0
H213 H 0.57836 0.95024 0.75949 0.0
H214 H 0.5128 0.94296 0.75874 0.0
H215 H 0.4556 0.95399 0.77836 0.0
Mn216 Mn 0.4341 0.09417 0.61994 0.0
Mn217 Mn 0.44688 0.01456 0.6301 0.0
C218 C 0.43984 0.07569 0.66138 0.0
C219 C 0.45837 0.14489 0.61042 0.0
C220 C 0.37815 0.0437 0.61332 0.0
O221 O 0.44774 0.07574 0.58549 0.0
O222 O 0.46807 0.0266 0.59745 0.0
C223 C 0.52329 0.0135 0.63592 0.0
N224 N 0.49113 1.00655 0.64507 0.0
C225 C 0.51524 0.97953 0.68129 0.0
C226 C 0.54867 0.98622 0.67223 0.0
C227 C 0.55271 1.00356 0.64955 0.0
C228 C 0.48696 0.99089 0.66726 0.0
H229 H 0.5264 0.02649 0.61834 0.0
C230 C 0.46393 0.04917 0.58109 0.0
O231 O 0.42622 0.13834 0.60503 0.0
O232 O 0.4764 0.12184 0.62079 0.0
N233 N 0.42781 0.99924 0.6612 0.0
C234 C 0.3938 0.99533 0.66764 0.0
C235 C 0.38526 0.97852 0.68985 0.0
C236 C 0.41168 0.96522 0.7049 0.0
C237 C 0.44643 0.96913 0.69771 0.0
C238 C 0.45341 0.98643 0.67554 0.0
H239 H 0.37325 1.00461 0.65586 0.0
O240 O 0.42597 0.10383 0.65652 0.0
O241 O 0.44998 0.05968 0.64162 0.0
O242 O 0.38614 0.07346 0.61695 0.0
O243 O 0.39991 0.02027 0.61518 0.0
C244 C 0.4744 0.95627 0.71156 0.0
C245 C 0.50882 0.96175 0.70352 0.0
H246 H 0.5714 0.97821 0.68254 0.0
H247 H 0.57841 0.00892 0.64247 0.0
H248 H 0.35835 0.97546 0.69518 0.0
H249 H 0.40501 0.95208 0.72194 0.0
H250 H 0.46955 0.94225 0.72847 0.0
H251 H 0.53017 0.95206 0.71448 0.0
Mn252 Mn 0.07361 0.92103 0.62116 0.0
Mn253 Mn 0.06089 1.00064 0.63139 0.0
C254 C 0.06872 0.93959 0.66261 0.0
C255 C 0.0492 0.87011 0.6125 0.0
C256 C 0.12939 0.97163 0.614 0.0
O257 O 0.05904 0.93924 0.58682 0.0
O258 O 0.03938 0.98861 0.59882 0.0
C259 C 0.98454 1.00142 0.63763 0.0
N260 N 0.01678 0.00849 0.6466 0.0
C261 C 0.99298 0.03502 0.68311 0.0
C262 C 0.95947 0.02822 0.67424 0.0
C263 C 0.95525 0.01108 0.6515 0.0
C264 C 0.02114 0.02399 0.66883 0.0
H265 H 0.98127 0.98853 0.62003 0.0
C266 C 0.04303 0.96594 0.58249 0.0
O267 O 0.08115 0.87664 0.6065 0.0
O268 O 0.0314 0.89336 0.62277 0.0
N269 N 0.08025 0.01593 0.6624 0.0
C270 C 0.11432 0.01984 0.6687 0.0
C271 C 0.12305 0.03648 0.69094 0.0
C272 C 0.09675 0.04957 0.70619 0.0
C273 C 0.06193 0.04562 0.69916 0.0
C274 C 0.05477 0.02854 0.67693 0.0
H275 H 0.13476 0.01069 0.65677 0.0
O276 O 0.08275 0.91157 0.65764 0.0
O277 O 0.05808 0.95552 0.64293 0.0
O278 O 0.12144 0.94182 0.61748 0.0
O279 O 0.10771 0.99506 0.61623 0.0
C280 C 0.03407 0.05817 0.71328 0.0
C281 C 0.99958 0.05257 0.70543 0.0
H282 H 0.93683 0.03598 0.68474 0.0
H283 H 0.92948 1.00562 0.64457 0.0
H284 H 0.15001 0.03956 0.69615 0.0
H285 H 0.10357 0.06255 0.72327 0.0
H286 H 0.03905 0.07198 0.73026 0.0
H287 H 0.97831 0.06196 0.71661 0.0
Mn288 Mn 0.56602 0.59293 0.11712 0.0
Mn289 Mn 0.56527 0.51393 0.13521 0.0
C290 C 0.56073 0.57991 0.15945 0.0
C291 C 0.53863 0.64126 0.10458 0.0
C292 C 0.62958 0.54863 0.11686 0.0
O293 O 0.55289 0.56861 0.08498 0.0
O294 O 0.54895 0.51689 0.0998 0.0
C295 C 0.49087 0.49615 0.13399 0.0
N296 N 0.52113 0.49945 0.147 0.0
C297 C 0.49695 0.47285 0.18343 0.0
C298 C 0.4655 0.4691 0.17042 0.0
C299 C 0.46238 0.48101 0.14566 0.0
C300 C 0.52437 0.48817 0.17085 0.0
H301 H 0.48865 0.50471 0.11479 0.0
C302 C 0.54609 0.53826 0.08226 0.0
O303 O 0.57078 0.63531 0.09901 0.0
O304 O 0.52184 0.61847 0.11639 0.0
N305 N 0.58053 0.50871 0.1692 0.0
C306 C 0.61169 0.51668 0.17968 0.0
C307 C 0.61816 0.50882 0.20501 0.0
C308 C 0.59272 0.49248 0.21914 0.0
C309 C 0.56088 0.48461 0.20787 0.0
C310 C 0.55569 0.49354 0.18273 0.0
H311 H 0.63139 0.529 0.1688 0.0
O312 O 0.57352 0.6078 0.15249 0.0
O313 O 0.55267 0.55987 0.14134 0.0
O314 O 0.61652 0.57694 0.1146 0.0
O315 O 0.61238 0.52387 0.12378 0.0
C316 C 0.53405 0.46839 0.22065 0.0
C317 C 0.50207 0.46245 0.2085 0.0
H318 H 0.44348 0.45746 0.17936 0.0
H319 H 0.43818 0.47828 0.13553 0.0
H320 H 0.64275 0.51513 0.21357 0.0
H321 H 0.59781 0.4863 0.23865 0.0
H322 H 0.53804 0.46053 0.23985 0.0
H323 H 0.48144 0.45029 0.21868 0.0
Mn324 Mn 0.93448 0.42411 0.11772 0.0
Mn325 Mn 0.94359 0.50245 0.1352 0.0
C326 C 0.94153 0.43653 0.16013 0.0
C327 C 0.95812 0.37415 0.10498 0.0
C328 C 0.87626 0.47347 0.11586 0.0
O329 O 0.94832 0.44784 0.08524 0.0
O330 O 0.96316 0.49731 0.10089 0.0
C331 C 0.01927 0.5142 0.13787 0.0
N332 N 0.98764 0.51338 0.14928 0.0
C333 C 0.01041 0.53889 0.18664 0.0
C334 C 0.04319 0.54033 0.1752 0.0
C335 C 0.04769 0.52763 0.1508 0.0
C336 C 0.98308 0.5253 0.17282 0.0
H337 H 0.02267 0.50489 0.11901 0.0
C338 C 0.96147 0.4764 0.08294 0.0
O339 O 0.9263 0.38199 0.09973 0.0
O340 O 0.97669 0.396 0.11641 0.0
N341 N 0.92556 0.50928 0.16832 0.0
C342 C 0.89288 0.50391 0.17721 0.0
C343 C 0.88474 0.51256 0.20212 0.0
C344 C 0.91014 0.52701 0.21746 0.0
C345 C 0.94356 0.5322 0.20783 0.0
C346 C 0.95034 0.52253 0.18306 0.0
H347 H 0.87318 0.49308 0.16545 0.0
O348 O 0.92671 0.40953 0.15323 0.0
O349 O 0.95103 0.45581 0.1419 0.0
O350 O 0.88546 0.4437 0.11606 0.0
O351 O 0.89681 0.49665 0.1212 0.0
C352 C 0.97042 0.54652 0.22187 0.0
C353 C 0.00384 0.54999 0.21132 0.0
H354 H 0.06518 0.55062 0.18513 0.0
H355 H 0.07295 0.52843 0.14192 0.0
H356 H 0.85891 0.50834 0.20942 0.0
H357 H 0.90376 0.53386 0.23664 0.0
H358 H 0.96532 0.55488 0.24078 0.0
H359 H 0.02439 0.56083 0.22242 0.0
Mn360 Mn 0.06361 0.42562 0.37487 0.0
Mn361 Mn 0.05062 0.50422 0.35808 0.0
C362 C 0.05285 0.43835 0.33275 0.0
C363 C 0.04251 0.37447 0.3876 0.0
C364 C 0.1215 0.47645 0.37075 0.0
O365 O 0.05166 0.44726 0.40832 0.0
O366 O 0.04005 0.49802 0.39434 0.0
C367 C 0.97481 0.51161 0.36557 0.0
N368 N 0.00347 0.51467 0.35078 0.0
C369 C 0.97239 0.54716 0.32051 0.0
C370 C 0.94249 0.54455 0.33546 0.0
C371 C 0.94361 0.52634 0.35793 0.0
C372 C 0.00241 0.53131 0.32879 0.0
H373 H 0.97592 0.49827 0.38311 0.0
C374 C 0.04158 0.47656 0.41184 0.0
O375 O 0.07443 0.38306 0.39177 0.0
O376 O 0.02258 0.39611 0.37723 0.0
N377 N 0.05941 0.51413 0.32353 0.0
C378 C 0.08921 0.51068 0.31002 0.0
C379 C 0.09174 0.52528 0.28613 0.0
C380 C 0.06396 0.54391 0.27677 0.0
C381 C 0.03348 0.54685 0.29104 0.0
C382 C 0.03209 0.5309 0.31429 0.0
H383 H 0.11092 0.49718 0.31755 0.0
O384 O 0.06953 0.41214 0.33917 0.0
O385 O 0.04352 0.45733 0.35131 0.0
O386 O 0.11214 0.44717 0.37516 0.0
O387 O 0.10021 0.49872 0.36468 0.0
C388 C 0.0045 0.56517 0.28327 0.0
C389 C 0.97373 0.56489 0.29775 0.0
H390 H 0.91852 0.55623 0.3298 0.0
H391 H 0.92063 0.52413 0.36952 0.0
H392 H 0.11529 0.52275 0.27519 0.0
H393 H 0.06627 0.55567 0.25856 0.0
H394 H 0.00559 0.57938 0.26611 0.0
H395 H 0.95123 0.5782 0.29112 0.0
Mn396 Mn 0.4341 0.59297 0.3715 0.0
Mn397 Mn 0.44338 0.51363 0.35561 0.0
C398 C 0.44404 0.57872 0.3298 0.0
C399 C 0.45619 0.64417 0.38313 0.0
C400 C 0.37387 0.54397 0.36694 0.0
O401 O 0.44685 0.57224 0.40495 0.0
O402 O 0.45036 0.51974 0.39247 0.0
C403 C 0.51778 0.50353 0.3674 0.0
N404 N 0.49079 0.50175 0.35088 0.0
C405 C 0.52444 0.46978 0.32177 0.0
C406 C 0.55268 0.47131 0.33841 0.0
C407 C 0.54944 0.48854 0.36121 0.0
C408 C 0.49386 0.48579 0.3287 0.0
H409 H 0.515 0.51595 0.38524 0.0
C410 C 0.45196 0.54205 0.40932 0.0
O411 O 0.42426 0.63607 0.38776 0.0
O412 O 0.4756 0.62209 0.3728 0.0
N413 N 0.4377 0.5037 0.32071 0.0
C414 C 0.40936 0.50781 0.30569 0.0
C415 C 0.40912 0.49399 0.28146 0.0
C416 C 0.43763 0.47545 0.27326 0.0
C417 C 0.46653 0.47175 0.2891 0.0
C418 C 0.4657 0.4869 0.31268 0.0
H419 H 0.38715 0.52144 0.31222 0.0
O420 O 0.42764 0.60532 0.33564 0.0
O421 O 0.45304 0.56007 0.34864 0.0
O422 O 0.38506 0.5722 0.37297 0.0
O423 O 0.39365 0.52117 0.35954 0.0
C424 C 0.49608 0.45351 0.28251 0.0
C425 C 0.52528 0.45295 0.2986 0.0
H426 H 0.57699 0.45945 0.33386 0.0
H427 H 0.5711 0.48979 0.37417 0.0
H428 H 0.38681 0.49715 0.26931 0.0
H429 H 0.43716 0.46441 0.25472 0.0
H430 H 0.49652 0.43985 0.26509 0.0
H431 H 0.54823 0.43958 0.29296 0.0
Mn432 Mn 0.43954 0.42199 0.87096 0.0
Mn433 Mn 0.45878 0.50075 0.85919 0.0
C434 C 0.44738 0.43986 0.82957 0.0
C435 C 0.45945 0.36912 0.87962 0.0
C436 C 0.3857 0.47731 0.87096 0.0
O437 O 0.45425 0.4382 0.90561 0.0
O438 O 0.467 0.48984 0.89503 0.0
C439 C 0.53424 0.49174 0.8673 0.0
N440 N 0.50754 0.50256 0.85268 0.0
C441 C 0.5471 0.52281 0.82136 0.0
C442 C 0.57505 0.51264 0.83635 0.0
C443 C 0.56857 0.49665 0.85929 0.0
C444 C 0.51347 0.5163 0.82997 0.0
H445 H 0.52939 0.47922 0.88482 0.0
C446 C 0.46492 0.46671 0.91106 0.0
O447 O 0.42794 0.37787 0.88524 0.0
O448 O 0.4792 0.39118 0.86975 0.0
N449 N 0.45337 0.51648 0.82543 0.0
C450 C 0.42371 0.52703 0.81409 0.0
C451 C 0.42556 0.54407 0.79117 0.0
C452 C 0.45801 0.55136 0.78062 0.0
C453 C 0.48831 0.54158 0.79312 0.0
C454 C 0.48479 0.52427 0.81575 0.0
H455 H 0.39887 0.52275 0.82258 0.0
O456 O 0.43049 0.41326 0.8344 0.0
O457 O 0.45938 0.45501 0.84918 0.0
O458 O 0.39358 0.44729 0.87433 0.0
O459 O 0.40776 0.49941 0.86494 0.0
C460 C 0.52187 0.54952 0.78458 0.0
C461 C 0.55126 0.53961 0.79843 0.0
H462 H 0.60156 0.51688 0.8304 0.0
H463 H 0.58996 0.48832 0.87084 0.0
H464 H 0.40203 0.55209 0.78191 0.0
H465 H 0.4593 0.56499 0.76317 0.0
H466 H 0.52548 0.56332 0.76743 0.0
H467 H 0.57693 0.54544 0.79142 0.0
Mn468 Mn 0.07461 0.59059 0.87274 0.0
Mn469 Mn 0.05986 0.51075 0.86228 0.0
C470 C 0.0672 0.57159 0.83174 0.0
C471 C 0.05269 0.64292 0.88073 0.0
C472 C 0.13141 0.53762 0.87352 0.0
O473 O 0.05996 0.57457 0.90742 0.0
O474 O 0.05182 0.52162 0.89814 0.0
C475 C 0.9841 0.51361 0.87125 0.0
N476 N 0.01132 0.5059 0.85599 0.0
C477 C 0.97301 0.48451 0.82427 0.0
C478 C 0.94455 0.49211 0.83965 0.0
C479 C 0.95013 0.50694 0.86318 0.0
C480 C 0.00619 0.49262 0.833 0.0
H481 H 0.98828 0.52472 0.88945 0.0
C482 C 0.05221 0.54547 0.9136 0.0
O483 O 0.08449 0.63531 0.88646 0.0
O484 O 0.03376 0.62006 0.87108 0.0
N485 N 0.06623 0.49546 0.82854 0.0
C486 C 0.09655 0.48722 0.81696 0.0
C487 C 0.09565 0.47087 0.79371 0.0
C488 C 0.06363 0.46227 0.78297 0.0
C489 C 0.03278 0.47001 0.79563 0.0
C490 C 0.0353 0.48648 0.81868 0.0
H491 H 0.12127 0.49305 0.82539 0.0
O492 O 0.08331 0.59874 0.83616 0.0
O493 O 0.05613 0.5563 0.85163 0.0
O494 O 0.12197 0.56734 0.87641 0.0
O495 O 0.1103 0.51466 0.86794 0.0
C496 C 0.99971 0.46099 0.78673 0.0
C497 C 0.96981 0.46863 0.80086 0.0
H498 H 0.91835 0.48652 0.83365 0.0
H499 H 0.92832 0.51292 0.87516 0.0
H500 H 0.11959 0.46462 0.78421 0.0
H501 H 0.06305 0.44942 0.76514 0.0
H502 H 0.99692 0.44796 0.76914 0.0
H503 H 0.94452 0.46176 0.7937 0.0
Mn504 Mn 0.93575 0.58813 0.62414 0.0
Mn505 Mn 0.94919 0.50839 0.63539 0.0
C506 C 0.94202 0.56955 0.66528 0.0
C507 C 0.95711 0.64042 0.61599 0.0
C508 C 0.87833 0.53571 0.62398 0.0
O509 O 0.95169 0.57199 0.58998 0.0
O510 O 0.95532 0.51857 0.59907 0.0
C511 C 0.02442 0.51074 0.62397 0.0
N512 N 0.99811 0.50349 0.6402 0.0
C513 C 0.03839 0.48349 0.6712 0.0
C514 C 0.06589 0.49064 0.65481 0.0
C515 C 0.05886 0.50453 0.63115 0.0
C516 C 0.00467 0.49109 0.66331 0.0
H517 H 0.01922 0.52117 0.60568 0.0
C518 C 0.95695 0.5425 0.58369 0.0
O519 O 0.92561 0.63232 0.60985 0.0
O520 O 0.97611 0.61807 0.62632 0.0
N521 N 0.9449 0.4936 0.66947 0.0
C522 C 0.91538 0.48506 0.68196 0.0
C523 C 0.91773 0.46932 0.70542 0.0
C524 C 0.95041 0.46155 0.71544 0.0
C525 C 0.98044 0.4694 0.70184 0.0
C526 C 0.97646 0.48524 0.67861 0.0
H527 H 0.89023 0.4902 0.67409 0.0
O528 O 0.92568 0.59648 0.66045 0.0
O529 O 0.95378 0.55405 0.64569 0.0
O530 O 0.8888 0.56474 0.61951 0.0
O531 O 0.89833 0.51266 0.63129 0.0
C532 C 0.01407 0.46097 0.70994 0.0
C533 C 0.04308 0.4685 0.69484 0.0
H534 H 0.09245 0.48541 0.66013 0.0
H535 H 0.07992 0.51015 0.61837 0.0
H536 H 0.8944 0.4629 0.71562 0.0
H537 H 0.9521 0.44913 0.73342 0.0
H538 H 0.01799 0.44848 0.72766 0.0
H539 H 0.06882 0.46208 0.70139 0.0
Mn540 Mn 0.56895 0.42732 0.61784 0.0
Mn541 Mn 0.55125 0.50578 0.63131 0.0
C542 C 0.5629 0.44376 0.65968 0.0
C543 C 0.5482 0.37512 0.6086 0.0
C544 C 0.62311 0.4819 0.61622 0.0
O545 O 0.5528 0.44513 0.58395 0.0
O546 O 0.53805 0.49579 0.59609 0.0
C547 C 0.47476 0.49995 0.62828 0.0
N548 N 0.50374 0.50893 0.64125 0.0
C549 C 0.46951 0.53067 0.67516 0.0
C550 C 0.43926 0.52217 0.66201 0.0
C551 C 0.44191 0.50637 0.63859 0.0
C552 C 0.50149 0.5227 0.66429 0.0
H553 H 0.47673 0.48789 0.61026 0.0
C554 C 0.53997 0.4732 0.57957 0.0
O555 O 0.57954 0.38376 0.60244 0.0
O556 O 0.52898 0.397 0.61925 0.0
N557 N 0.56184 0.51995 0.6648 0.0
C558 C 0.59348 0.52722 0.67482 0.0
C559 C 0.59543 0.5433 0.69815 0.0
C560 C 0.56486 0.55261 0.7106 0.0
C561 C 0.53259 0.5455 0.6997 0.0
C562 C 0.53225 0.52907 0.67657 0.0
H563 H 0.61706 0.52064 0.66518 0.0
O564 O 0.5793 0.41718 0.654 0.0
O565 O 0.55054 0.45977 0.64059 0.0
O566 O 0.61519 0.45175 0.61413 0.0
O567 O 0.60107 0.50405 0.62198 0.0
C568 C 0.50075 0.55494 0.7105 0.0
C569 C 0.46922 0.54718 0.69841 0.0
H570 H 0.41389 0.52758 0.66974 0.0
H571 H 0.41871 0.49947 0.62841 0.0
H572 H 0.62045 0.54883 0.70637 0.0
H573 H 0.56648 0.56533 0.72845 0.0
H574 H 0.50018 0.56833 0.72802 0.0
H575 H 0.44491 0.55418 0.70712 0.0
C576 C 0.31173 0.962 0.12091 0.0
C577 C 0.33863 0.98365 0.11498 0.0
C578 C 0.27686 0.97232 0.12031 0.0
C579 C 0.26885 1.00485 0.11328 0.0
C580 C 0.29587 0.02622 0.10613 0.0
C581 C 0.33033 0.01544 0.10719 0.0
C582 C 0.24872 0.94885 0.12814 0.0
C583 C 0.2885 0.0609 0.09816 0.0
C584 C 0.17586 0.02607 0.09534 0.0
C585 C 0.16359 0.03996 0.11772 0.0
C586 C 0.21022 0.01484 0.09347 0.0
C587 C 0.23251 0.0172 0.11465 0.0
C588 C 0.22021 0.03179 0.13718 0.0
C589 C 0.18579 0.04296 0.13844 0.0
C590 C 0.22239 0.99972 0.06909 0.0
C591 C 0.2431 0.03479 0.16017 0.0
H592 H 0.318 0.9375 0.12705 0.0
H593 H 0.35098 0.03222 0.10227 0.0
H594 H 0.23608 0.95777 0.14563 0.0
H595 H 0.22838 0.94747 0.11337 0.0
H596 H 0.25894 0.92394 0.13166 0.0
H597 H 0.31218 0.07368 0.09147 0.0
H598 H 0.26886 0.0613 0.08286 0.0
H599 H 0.27758 0.0747 0.1143 0.0
H600 H 0.15822 0.02309 0.07957 0.0
H601 H 0.17583 0.05301 0.15591 0.0
H602 H 0.22934 0.97381 0.07229 0.0
H603 H 0.2461 0.01228 0.06227 0.0
H604 H 0.20229 1.00089 0.05409 0.0
H605 H 0.25161 0.01024 0.1664 0.0
H606 H 0.22968 0.04698 0.17613 0.0
H607 H 0.2668 0.0489 0.15548 0.0
C608 C 0.69082 0.96553 0.3611 0.0
C609 C 0.66558 0.97809 0.37735 0.0
C610 C 0.72528 0.97683 0.36222 0.0
C611 C 0.73461 1.00078 0.38031 0.0
C612 C 0.70936 0.01234 0.39749 0.0
C613 C 0.67503 1.00121 0.39553 0.0
C614 C 0.75132 0.96421 0.34335 0.0
C615 C 0.71834 0.03718 0.41745 0.0
C616 C 0.83098 0.0092 0.39385 0.0
C617 C 0.83986 0.03662 0.37943 0.0
C618 C 0.79662 0.99804 0.39508 0.0
C619 C 0.77062 0.01414 0.38095 0.0
C620 C 0.77929 0.04244 0.36688 0.0
C621 C 0.81386 0.05358 0.36651 0.0
C622 C 0.7884 0.96839 0.41086 0.0
C623 C 0.75239 0.06003 0.35129 0.0
H624 H 0.68319 0.94825 0.34667 0.0
H625 H 0.65523 0.01119 0.40785 0.0
H626 H 0.76085 0.98464 0.33151 0.0
H627 H 0.77411 0.95378 0.35325 0.0
H628 H 0.74012 0.94524 0.33081 0.0
H629 H 0.69639 0.04173 0.43056 0.0
H630 H 0.74108 0.02886 0.42856 0.0
H631 H 0.72558 0.06057 0.40838 0.0
H632 H 0.8512 0.99603 0.40379 0.0
H633 H 0.82088 0.07442 0.35502 0.0
H634 H 0.78044 0.94797 0.39845 0.0
H635 H 0.76634 0.97359 0.42369 0.0
H636 H 0.81095 0.96035 0.42234 0.0
H637 H 0.74218 0.04342 0.33654 0.0
H638 H 0.76305 0.08213 0.342 0.0
H639 H 0.73014 0.06732 0.3633 0.0
C640 C 0.82983 0.01354 0.86502 0.0
C641 C 0.84402 0.98664 0.87772 0.0
C642 C 0.79429 0.02068 0.86637 0.0
C643 C 0.77262 1.002 0.88237 0.0
C644 C 0.78726 0.97634 0.8968 0.0
C645 C 0.82255 0.96831 0.8937 0.0
C646 C 0.77973 0.04726 0.84971 0.0
C647 C 0.76568 0.95703 0.91526 0.0
C648 C 0.68458 0.04198 0.89339 0.0
C649 C 0.6631 0.02367 0.8774 0.0
C650 C 0.71982 0.0338 0.89662 0.0
C651 C 0.73438 0.00799 0.88234 0.0
C652 C 0.71267 0.98926 0.86641 0.0
C653 C 0.67717 0.99658 0.86491 0.0
C654 C 0.74146 0.05295 0.91513 0.0
C655 C 0.72712 0.96237 0.85003 0.0
H656 H 0.8462 0.02846 0.85318 0.0
H657 H 0.83344 0.94792 0.90404 0.0
H658 H 0.75865 0.03727 0.8377 0.0
H659 H 0.7683 0.06689 0.86139 0.0
H660 H 0.79978 0.0582 0.83726 0.0
H661 H 0.78217 0.94422 0.9293 0.0
H662 H 0.7472 0.97308 0.92543 0.0
H663 H 0.75037 0.93844 0.90497 0.0
H664 H 0.67376 0.06248 0.9036 0.0
H665 H 0.66076 0.98164 0.8531 0.0
H666 H 0.75903 0.06967 0.90481 0.0
H667 H 0.75789 0.03632 0.92655 0.0
H668 H 0.72513 0.06774 0.92805 0.0
H669 H 0.74867 0.97191 0.83827 0.0
H670 H 0.70716 0.95169 0.83737 0.0
H671 H 0.73786 0.94263 0.86197 0.0
C672 C 0.19222 0.96449 0.62341 0.0
C673 C 0.16612 0.98011 0.60955 0.0
C674 C 0.22681 0.97508 0.62207 0.0
C675 C 0.23565 1.0012 0.60581 0.0
C676 C 0.2096 0.01596 0.59081 0.0
C677 C 0.17498 1.00567 0.59325 0.0
C678 C 0.25356 0.95933 0.63897 0.0
C679 C 0.21816 0.04309 0.57261 0.0
C680 C 0.31546 0.05072 0.62324 0.0
C681 C 0.34136 0.03524 0.60912 0.0
C682 C 0.28085 0.04015 0.62207 0.0
C683 C 0.27177 0.0142 0.60573 0.0
C684 C 0.2976 0.99959 0.59047 0.0
C685 C 0.33226 0.00985 0.59273 0.0
C686 C 0.25434 0.05574 0.63923 0.0
C687 C 0.28878 0.97265 0.57218 0.0
H688 H 0.18528 0.94504 0.63631 0.0
H689 H 0.15476 0.01771 0.58249 0.0
H690 H 0.27538 0.94971 0.62756 0.0
H691 H 0.26447 0.9778 0.65204 0.0
H692 H 0.24254 0.93904 0.6503 0.0
H693 H 0.19578 0.04943 0.56035 0.0
H694 H 0.226 0.06518 0.58322 0.0
H695 H 0.24039 0.036 0.5605 0.0
H696 H 0.32258 0.07004 0.63619 0.0
H697 H 0.35232 0.99793 0.58176 0.0
H698 H 0.2436 0.03713 0.65227 0.0
H699 H 0.23236 0.06547 0.62802 0.0
H700 H 0.26552 0.0759 0.6506 0.0
H701 H 0.28107 0.95046 0.58272 0.0
H702 H 0.311 0.96642 0.55974 0.0
H703 H 0.26639 0.97988 0.56025 0.0
C704 C 0.83251 0.51205 0.0986 0.0
C705 C 0.83977 0.48251 0.11086 0.0
C706 C 0.79849 0.52394 0.09681 0.0
C707 C 0.77109 0.50623 0.10807 0.0
C708 C 0.77809 0.47581 0.11974 0.0
C709 C 0.81239 0.46411 0.12076 0.0
C710 C 0.79206 0.55601 0.08363 0.0
C711 C 0.74961 0.45638 0.13223 0.0
C712 C 0.69114 0.5525 0.1302 0.0
C713 C 0.66667 0.5433 0.11208 0.0
C714 C 0.72546 0.54104 0.12887 0.0
C715 C 0.73544 0.5203 0.10874 0.0
C716 C 0.71105 0.51229 0.08975 0.0
C717 C 0.67676 0.5235 0.09189 0.0
C718 C 0.75054 0.54981 0.14967 0.0
C719 C 0.72082 0.49091 0.06771 0.0
H720 H 0.85369 0.52626 0.09081 0.0
H721 H 0.81802 0.44148 0.1305 0.0
H722 H 0.77086 0.55341 0.06961 0.0
H723 H 0.78366 0.57454 0.09758 0.0
H724 H 0.81559 0.56521 0.07385 0.0
H725 H 0.75905 0.43263 0.13959 0.0
H726 H 0.73857 0.47057 0.14813 0.0
H727 H 0.72824 0.45176 0.11868 0.0
H728 H 0.68291 0.56714 0.14614 0.0
H729 H 0.65747 0.51598 0.07817 0.0
H730 H 0.77418 0.5612 0.14163 0.0
H731 H 0.75884 0.52737 0.15969 0.0
H732 H 0.73899 0.56685 0.16361 0.0
H733 H 0.74466 0.50028 0.05849 0.0
H734 H 0.69979 0.48949 0.05341 0.0
H735 H 0.72656 0.46591 0.07448 0.0
C736 C 0.32277 0.51184 0.35249 0.0
C737 C 0.3363 0.53614 0.36834 0.0
C738 C 0.28807 0.50193 0.35416 0.0
C739 C 0.26621 0.51614 0.37253 0.0
C740 C 0.27961 0.54064 0.38872 0.0
C741 C 0.31447 0.55064 0.38625 0.0
C742 C 0.27473 0.47644 0.33602 0.0
C743 C 0.25719 0.55604 0.40875 0.0
C744 C 0.16981 0.51354 0.35825 0.0
C745 C 0.15873 0.48593 0.37175 0.0
C746 C 0.20446 0.52383 0.35873 0.0
C747 C 0.22885 0.50658 0.37351 0.0
C748 C 0.21789 0.479 0.38757 0.0
C749 C 0.18298 0.46874 0.3863 0.0
C750 C 0.21508 0.55276 0.34286 0.0
C751 C 0.24308 0.46026 0.40384 0.0
H752 H 0.33939 0.50048 0.33855 0.0
H753 H 0.32487 0.5691 0.39877 0.0
H754 H 0.26454 0.45517 0.34659 0.0
H755 H 0.25294 0.48655 0.32479 0.0
H756 H 0.29514 0.46779 0.32283 0.0
H757 H 0.27185 0.57366 0.42057 0.0
H758 H 0.23507 0.56897 0.39985 0.0
H759 H 0.24614 0.53688 0.42115 0.0
H760 H 0.1514 0.52703 0.34686 0.0
H761 H 0.1746 0.44763 0.39697 0.0
H762 H 0.23463 0.54509 0.3287 0.0
H763 H 0.22736 0.57165 0.35486 0.0
H764 H 0.19276 0.56392 0.33279 0.0
H765 H 0.26323 0.44879 0.39183 0.0
H766 H 0.23006 0.44089 0.41501 0.0
H767 H 0.25657 0.4771 0.41696 0.0
C768 C 0.18059 0.49824 0.86793 0.0
C769 C 0.16884 0.52898 0.87594 0.0
C770 C 0.21589 0.48991 0.86876 0.0
C771 C 0.24026 0.51257 0.87829 0.0
C772 C 0.22858 0.54323 0.8872 0.0
C773 C 0.19307 0.55119 0.88572 0.0
C774 C 0.2272 0.45717 0.85865 0.0
C775 C 0.2537 0.56785 0.89787 0.0
C776 C 0.32948 0.47814 0.89472 0.0
C777 C 0.34883 0.48696 0.87341 0.0
C778 C 0.29439 0.48729 0.89705 0.0
C779 C 0.2781 0.50483 0.87727 0.0
C780 C 0.2976 0.51355 0.85567 0.0
C781 C 0.33272 0.50476 0.85415 0.0
C782 C 0.2747 0.47805 0.92058 0.0
C783 C 0.28113 0.5314 0.83381 0.0
H784 H 0.16227 0.48073 0.86042 0.0
H785 H 0.18435 0.57487 0.89217 0.0
H786 H 0.24479 0.46072 0.84231 0.0
H787 H 0.24195 0.44363 0.87324 0.0
H788 H 0.20491 0.44195 0.85251 0.0
H789 H 0.24026 0.58945 0.90587 0.0
H790 H 0.26976 0.55646 0.91285 0.0
H791 H 0.27162 0.57623 0.88285 0.0
H792 H 0.34194 0.46442 0.90967 0.0
H793 H 0.34718 0.5109 0.8374 0.0
H794 H 0.25343 0.46095 0.91574 0.0
H795 H 0.26257 0.50001 0.92903 0.0
H796 H 0.29164 0.46635 0.93491 0.0
H797 H 0.25982 0.51647 0.82577 0.0
H798 H 0.30003 0.5369 0.81858 0.0
H799 H 0.26953 0.55463 0.84037 0.0
C800 C 0.67195 0.52113 0.62369 0.0
C801 C 0.66014 0.49156 0.61348 0.0
C802 C 0.70739 0.52902 0.624 0.0
C803 C 0.73164 0.50747 0.61287 0.0
C804 C 0.71973 0.47854 0.60114 0.0
C805 C 0.68421 0.47067 0.60194 0.0
C806 C 0.71901 0.55969 0.6373 0.0
C807 C 0.7446 0.45549 0.5883 0.0
C808 C 0.82207 0.54176 0.60072 0.0
C809 C 0.84096 0.52835 0.62081 0.0
C810 C 0.78669 0.53442 0.5974 0.0
C811 C 0.76957 0.51417 0.61512 0.0
C812 C 0.78852 0.50092 0.63559 0.0
C813 C 0.82407 0.50772 0.63791 0.0
C814 C 0.76769 0.54814 0.57488 0.0
C815 C 0.77112 0.48006 0.65536 0.0
H816 H 0.65367 0.53773 0.63236 0.0
H817 H 0.67535 0.448 0.59366 0.0
H818 H 0.73607 0.55321 0.65341 0.0
H819 H 0.73442 0.57519 0.62435 0.0
H820 H 0.69683 0.57421 0.64454 0.0
H821 H 0.73088 0.43611 0.5776 0.0
H822 H 0.76173 0.46907 0.57517 0.0
H823 H 0.76149 0.44372 0.60259 0.0
H824 H 0.83517 0.55746 0.58731 0.0
H825 H 0.83842 0.49751 0.65355 0.0
H826 H 0.74663 0.56462 0.58123 0.0
H827 H 0.75535 0.52811 0.56405 0.0
H828 H 0.78516 0.56195 0.56209 0.0
H829 H 0.74942 0.49373 0.66415 0.0
H830 H 0.78937 0.47232 0.67045 0.0
H831 H 0.7599 0.45796 0.64652 0.0
C832 C 0.94492 0.09003 0.28756 0.0
C833 C 0.96057 0.07397 0.30793 0.0
C834 C 0.96107 0.09112 0.26382 0.0
C835 C 0.99258 0.07398 0.25994 0.0
C836 C 0.00854 0.05788 0.28048 0.0
C837 C 0.99305 0.05932 0.30441 0.0
C838 C 0.94527 0.11186 0.24326 0.0
C839 C 0.04232 0.03971 0.27729 0.0
C840 C 0.01188 0.0552 0.19117 0.0
C841 C 0.04196 0.07341 0.18674 0.0
C842 C 0.99667 0.05378 0.2152 0.0
C843 C 0.00958 0.07402 0.23469 0.0
C844 C 0.03854 0.09444 0.2298 0.0
C845 C 0.05509 0.0929 0.20625 0.0
C846 C 0.9675 0.0299 0.21974 0.0
C847 C 0.05219 0.11867 0.24883 0.0
H848 H 0.92065 0.10285 0.29047 0.0
H849 H 0.0069 0.04975 0.32051 0.0
H850 H 0.96527 0.12828 0.23515 0.0
H851 H 0.93551 0.09626 0.22775 0.0
H852 H 0.92336 0.12693 0.2503 0.0
H853 H 0.05111 0.02809 0.29506 0.0
H854 H 0.03938 0.02077 0.26249 0.0
H855 H 0.06305 0.05653 0.27104 0.0
H856 H 0.99954 0.04275 0.17569 0.0
H857 H 0.07755 0.10819 0.2028 0.0
H858 H 0.94596 0.04087 0.23062 0.0
H859 H 0.97766 0.00936 0.23113 0.0
H860 H 0.9568 0.02004 0.20187 0.0
H861 H 0.03449 0.12263 0.26501 0.0
H862 H 0.05682 0.14253 0.23952 0.0
H863 H 0.07766 0.11014 0.25603 0.0
C864 C 0.44471 0.92744 0.20582 0.0
C865 C 0.46009 0.94266 0.18497 0.0
C866 C 0.46178 0.92617 0.22922 0.0
C867 C 0.49396 0.94247 0.23231 0.0
C868 C 0.50974 0.95757 0.21125 0.0
C869 C 0.49328 0.95616 0.18766 0.0
C870 C 0.44601 0.90633 0.25031 0.0
C871 C 0.54429 0.97466 0.21355 0.0
C872 C 0.51473 0.96258 0.3006 0.0
C873 C 0.54464 0.94412 0.30508 0.0
C874 C 0.49927 0.96376 0.27665 0.0
C875 C 0.51157 0.94291 0.25735 0.0
C876 C 0.5403 0.92222 0.26231 0.0
C877 C 0.55725 0.92411 0.28571 0.0
C878 C 0.47047 0.98803 0.272 0.0
C879 C 0.55318 0.8972 0.24363 0.0
H880 H 0.41984 0.91542 0.20357 0.0
H881 H 0.50688 0.96488 0.17117 0.0
H882 H 0.46603 0.89049 0.25908 0.0
H883 H 0.43584 0.92266 0.26522 0.0
H884 H 0.42433 0.89074 0.24358 0.0
H885 H 0.55284 0.98555 0.19546 0.0
H886 H 0.54265 0.99401 0.22813 0.0
H887 H 0.56461 0.95728 0.21961 0.0
H888 H 0.50259 0.97527 0.31602 0.0
H889 H 0.57951 0.90857 0.28921 0.0
H890 H 0.44881 0.97745 0.26102 0.0
H891 H 0.48103 0.00847 0.26068 0.0
H892 H 0.4598 0.99797 0.28984 0.0
H893 H 0.53581 0.89387 0.22716 0.0
H894 H 0.55622 0.87327 0.25318 0.0
H895 H 0.57933 0.9044 0.23684 0.0
C896 C 0.02117 0.92364 0.69101 0.0
C897 C 0.05065 0.94285 0.68691 0.0
C898 C 0.00428 0.92355 0.7144 0.0
C899 C 0.01592 0.94476 0.73368 0.0
C900 C 0.04579 0.96423 0.72958 0.0
C901 C 0.06365 0.96199 0.70652 0.0
C902 C 0.9746 0.90011 0.71861 0.0
C903 C 0.05811 0.98831 0.74909 0.0
C904 C 0.94733 0.96053 0.78386 0.0
C905 C 0.96169 0.94474 0.80474 0.0
C906 C 0.96573 0.96251 0.76101 0.0
C907 C 0.99752 0.94544 0.75838 0.0
C908 C 0.01077 0.9274 0.77904 0.0
C909 C 0.99331 0.9283 0.80221 0.0
C910 C 0.95166 0.98365 0.74006 0.0
C911 C 0.04266 0.90623 0.77649 0.0
H912 H 0.01192 0.90786 0.67603 0.0
H913 H 0.08754 0.9753 0.70381 0.0
H914 H 0.97865 0.88628 0.73637 0.0
H915 H 0.9499 0.91371 0.72055 0.0
H916 H 0.97175 0.88248 0.70285 0.0
H917 H 0.08376 0.99895 0.74428 0.0
H918 H 0.03879 0.00819 0.75026 0.0
H919 H 0.05977 0.97715 0.76806 0.0
H920 H 0.92194 0.97147 0.78539 0.0
H921 H 0.00372 0.91504 0.81822 0.0
H922 H 0.95151 0.97063 0.72178 0.0
H923 H 0.96892 1.00507 0.73785 0.0
H924 H 0.92497 0.99245 0.74406 0.0
H925 H 0.04016 0.89013 0.75976 0.0
H926 H 0.04699 0.89078 0.79341 0.0
H927 H 0.06598 0.92157 0.77362 0.0
C928 C 0.44448 0.05287 0.70521 0.0
C929 C 0.45786 0.07194 0.68568 0.0
C930 C 0.46228 0.05012 0.72828 0.0
C931 C 0.49253 0.06904 0.73249 0.0
C932 C 0.50463 0.09015 0.71328 0.0
C933 C 0.48774 0.09056 0.68988 0.0
C934 C 0.44945 0.02614 0.7477 0.0
C935 C 0.53483 0.11297 0.71761 0.0
C936 C 0.5151 0.08452 0.80118 0.0
C937 C 0.5463 0.06739 0.8038 0.0
C938 C 0.49785 0.08599 0.77793 0.0
C939 C 0.51084 0.06789 0.75724 0.0
C940 C 0.54224 0.05019 0.75994 0.0
C941 C 0.56046 0.05154 0.7829 0.0
C942 C 0.46646 0.10782 0.77534 0.0
C943 C 0.55606 0.029 0.73896 0.0
H944 H 0.42032 0.04 0.70244 0.0
H945 H 0.49732 0.10627 0.67497 0.0
H946 H 0.46844 1.00598 0.74896 0.0
H947 H 0.44782 0.03728 0.76668 0.0
H948 H 0.42367 0.01589 0.74277 0.0
H949 H 0.53811 0.13061 0.70189 0.0
H950 H 0.53105 0.12679 0.73539 0.0
H951 H 0.55921 0.09885 0.71956 0.0
H952 H 0.50486 0.09784 0.8172 0.0
H953 H 0.58558 0.04008 0.7845 0.0
H954 H 0.44281 0.09297 0.77232 0.0
H955 H 0.46943 0.12399 0.75869 0.0
H956 H 0.46237 0.12322 0.79231 0.0
H957 H 0.53884 1.00753 0.73699 0.0
H958 H 0.58282 0.02028 0.74281 0.0
H959 H 0.5559 0.04189 0.7206 0.0
C960 C 0.56068 0.594 0.20527 0.0
C961 C 0.546 0.57677 0.18511 0.0
C962 C 0.54407 0.59527 0.22885 0.0
C963 C 0.51312 0.57727 0.23273 0.0
C964 C 0.49823 0.55988 0.21242 0.0
C965 C 0.51409 0.56107 0.18865 0.0
C966 C 0.55866 0.61714 0.24915 0.0
C967 C 0.46523 0.54049 0.21569 0.0
C968 C 0.4914 0.5592 0.30118 0.0
C969 C 0.46036 0.57635 0.30455 0.0
C970 C 0.50801 0.55811 0.27767 0.0
C971 C 0.49541 0.5777 0.25768 0.0
C972 C 0.46561 0.59737 0.26161 0.0
C973 C 0.44775 0.59543 0.28462 0.0
C974 C 0.53821 0.53509 0.27413 0.0
C975 C 0.45224 0.62092 0.24196 0.0
H976 H 0.58447 0.60757 0.2023 0.0
H977 H 0.50089 0.55049 0.17265 0.0
H978 H 0.5381 0.63383 0.25612 0.0
H979 H 0.56758 0.60245 0.26544 0.0
H980 H 0.58084 0.63197 0.24228 0.0
H981 H 0.45705 0.52829 0.19802 0.0
H982 H 0.46895 0.52188 0.23066 0.0
H983 H 0.44373 0.55655 0.22177 0.0
H984 H 0.50321 0.54717 0.31707 0.0
H985 H 0.42454 0.60997 0.28728 0.0
H986 H 0.55981 0.54652 0.26362 0.0
H987 H 0.52927 0.514 0.26281 0.0
H988 H 0.54841 0.52591 0.29238 0.0
H989 H 0.47141 0.62626 0.22692 0.0
H990 H 0.44475 0.6443 0.25101 0.0
H991 H 0.42843 0.61079 0.23319 0.0
C992 C 0.04977 0.41961 0.288 0.0
C993 C 0.03717 0.43993 0.30719 0.0
C994 C 0.03256 0.41704 0.26475 0.0
C995 C 0.00369 0.43749 0.25964 0.0
C996 C 0.99094 0.45812 0.27894 0.0
C997 C 0.00666 0.45747 0.30281 0.0
C998 C 0.04551 0.39178 0.24628 0.0
C999 C 0.9618 0.48207 0.27446 0.0
C1000 C 0.98906 0.45221 0.18973 0.0
C1001 C 0.95593 0.43907 0.18594 0.0
C1002 C 0.00426 0.45302 0.21376 0.0
C1003 C 0.98722 0.4377 0.23419 0.0
C1004 C 0.95504 0.42178 0.23002 0.0
C1005 C 0.93928 0.42357 0.20614 0.0
C1006 C 0.03881 0.46983 0.21717 0.0
C1007 C 0.93782 0.40195 0.25049 0.0
H1008 H 0.07239 0.40453 0.29147 0.0
H1009 H 0.99443 0.47005 0.31819 0.0
H1010 H 0.02817 0.38823 0.22983 0.0
H1011 H 0.0717 0.39882 0.23949 0.0
H1012 H 0.04847 0.36798 0.25605 0.0
H1013 H 0.97308 0.5045 0.26626 0.0
H1014 H 0.94213 0.4731 0.26095 0.0
H1015 H 0.94853 0.48874 0.29231 0.0
H1016 H 0.00364 0.46111 0.17375 0.0
H1017 H 0.91444 0.41183 0.20303 0.0
H1018 H 0.05864 0.45235 0.22383 0.0
H1019 H 0.03645 0.48919 0.2317 0.0
H1020 H 0.04853 0.48064 0.19937 0.0
H1021 H 0.95717 0.38615 0.26006 0.0
H1022 H 0.91667 0.38634 0.24295 0.0
H1023 H 0.92654 0.41834 0.26493 0.0
C1024 C 0.5615 0.46151 0.70475 0.0
C1025 C 0.54607 0.44547 0.68446 0.0
C1026 C 0.54503 0.46252 0.72836 0.0
C1027 C 0.51416 0.44438 0.73224 0.0
C1028 C 0.50021 0.42575 0.71216 0.0
C1029 C 0.51563 0.42755 0.68827 0.0
C1030 C 0.55983 0.48436 0.74851 0.0
C1031 C 0.4697 0.40315 0.71599 0.0
C1032 C 0.49492 0.42488 0.80082 0.0
C1033 C 0.4645 0.4427 0.80496 0.0
C1034 C 0.51065 0.42426 0.777 0.0
C1035 C 0.497 0.44391 0.75739 0.0
C1036 C 0.46628 0.46211 0.76165 0.0
C1037 C 0.44943 0.4599 0.78507 0.0
C1038 C 0.54131 0.40199 0.77273 0.0
C1039 C 0.45214 0.48509 0.74199 0.0
H1040 H 0.58622 0.47345 0.70216 0.0
H1041 H 0.50461 0.4139 0.67269 0.0
H1042 H 0.5437 0.50662 0.7492 0.0
H1043 H 0.55889 0.47306 0.76746 0.0
H1044 H 0.58699 0.49167 0.74437 0.0
H1045 H 0.46617 0.38624 0.69984 0.0
H1046 H 0.47323 0.38852 0.73342 0.0
H1047 H 0.44551 0.41747 0.7182 0.0
H1048 H 0.5057 0.41043 0.81607 0.0
H1049 H 0.42474 0.47188 0.78789 0.0
H1050 H 0.56536 0.41657 0.77067 0.0
H1051 H 0.53778 0.38786 0.75506 0.0
H1052 H 0.54506 0.38464 0.78858 0.0
H1053 H 0.47095 0.50524 0.73968 0.0
H1054 H 0.42662 0.49552 0.74742 0.0
H1055 H 0.44949 0.47311 0.7234 0.0
C1056 C 0.06279 0.552 0.78714 0.0
C1057 C 0.04869 0.56877 0.80761 0.0
C1058 C 0.04471 0.55004 0.76418 0.0
C1059 C 0.01365 0.56812 0.76094 0.0
C1060 C 1.00106 0.58752 0.78105 0.0
C1061 C 0.018 0.58654 0.80443 0.0
C1062 C 0.05807 0.5275 0.74394 0.0
C1063 C 0.97041 0.6101 0.77774 0.0
C1064 C 0.99098 0.58526 0.69254 0.0
C1065 C 0.96027 0.56746 0.68956 0.0
C1066 C 0.0078 0.58678 0.71594 0.0
C1067 C 0.99508 0.5679 0.73631 0.0
C1068 C 0.96401 0.5498 0.73327 0.0
C1069 C 0.94603 0.55124 0.71024 0.0
C1070 C 0.03856 0.6093 0.71896 0.0
C1071 C 0.95057 0.52775 0.75381 0.0
H1072 H 0.08774 0.54027 0.78912 0.0
H1073 H 0.00801 0.60079 0.82005 0.0
H1074 H 0.04042 0.50628 0.74289 0.0
H1075 H 0.058 0.53915 0.72512 0.0
H1076 H 0.08469 0.51856 0.74803 0.0
H1077 H 0.9681 0.62772 0.79356 0.0
H1078 H 0.97276 0.62396 0.75984 0.0
H1079 H 0.94604 0.59583 0.7768 0.0
H1080 H 1.0011 0.59907 0.67672 0.0
H1081 H 0.92106 0.53951 0.70837 0.0
H1082 H 0.06284 0.59493 0.72018 0.0
H1083 H 0.03621 0.62362 0.73664 0.0
H1084 H 0.04102 0.62651 0.70288 0.0
H1085 H 0.96861 0.5069 0.75557 0.0
H1086 H 0.92422 0.51822 0.74959 0.0
H1087 H 0.94997 0.54011 0.77235 0.0
C1088 C 0.99548 0.18493 0.11638 0.0
C1089 C 0.02368 0.17361 0.10217 0.0
C1090 C 0.9844 0.21751 0.11465 0.0
C1091 C 1.00138 0.23913 0.09783 0.0
C1092 C 0.02869 0.22733 0.08247 0.0
C1093 C 0.03983 0.19484 0.08507 0.0
C1094 C 0.95563 0.22917 0.13173 0.0
C1095 C 0.04685 0.24927 0.06381 0.0
C1096 C 0.95422 0.31907 0.0845 0.0
C1097 C 0.97137 0.34061 0.10083 0.0
C1098 C 0.96458 0.28626 0.0825 0.0
C1099 C 0.99213 0.27451 0.09771 0.0
C1100 C 0.00996 0.29638 0.11383 0.0
C1101 C 0.99965 0.32919 0.11496 0.0
C1102 C 0.94553 0.26401 0.06457 0.0
C1103 C 0.03905 0.28484 0.13072 0.0
H1104 H 0.98306 0.16872 0.12976 0.0
H1105 H 0.06152 0.18617 0.07393 0.0
H1106 H 0.96584 0.24795 0.14483 0.0
H1107 H 0.93471 0.24073 0.12048 0.0
H1108 H 0.9442 0.20906 0.14304 0.0
H1109 H 0.06486 0.23556 0.05137 0.0
H1110 H 0.02755 0.26216 0.05189 0.0
H1111 H 0.06192 0.26809 0.07407 0.0
H1112 H 0.93241 0.32777 0.07347 0.0
H1113 H 0.01285 0.3456 0.12778 0.0
H1114 H 0.9309 0.24541 0.07539 0.0
H1115 H 0.96427 0.25083 0.05239 0.0
H1116 H 0.92701 0.2775 0.05237 0.0
H1117 H 0.02913 0.2661 0.14398 0.0
H1118 H 0.05068 0.305 0.14184 0.0
H1119 H 0.05977 0.27326 0.11931 0.0
C1120 C 0.45164 0.81909 0.0856 0.0
C1121 C 0.46954 0.84048 0.10162 0.0
C1122 C 0.46199 0.78634 0.0831 0.0
C1123 C 0.49031 0.7745 0.09748 0.0
C1124 C 0.5088 0.7962 0.11335 0.0
C1125 C 0.49845 0.82896 0.11498 0.0
C1126 C 0.44221 0.76426 0.06545 0.0
C1127 C 0.53875 0.78454 0.12937 0.0
C1128 C 0.49553 0.68469 0.11517 0.0
C1129 C 0.52324 0.67392 0.10021 0.0
C1130 C 0.48392 0.71715 0.11397 0.0
C1131 C 0.49984 0.73919 0.09695 0.0
C1132 C 0.52652 0.72791 0.08078 0.0
C1133 C 0.53822 0.69553 0.08285 0.0
C1134 C 0.45586 0.72824 0.13188 0.0
C1135 C 0.54352 0.75032 0.06189 0.0
H1136 H 0.42935 0.82788 0.07515 0.0
H1137 H 0.51225 0.84528 0.12754 0.0
H1138 H 0.46041 0.75158 0.05255 0.0
H1139 H 0.42842 0.74526 0.07644 0.0
H1140 H 0.42285 0.77781 0.05398 0.0
H1141 H 0.55066 0.80455 0.14051 0.0
H1142 H 0.52963 0.76539 0.14259 0.0
H1143 H 0.55906 0.77345 0.11731 0.0
H1144 H 0.48401 0.66819 0.12877 0.0
H1145 H 0.55955 0.6873 0.07115 0.0
H1146 H 0.43439 0.73997 0.12131 0.0
H1147 H 0.46657 0.74674 0.14501 0.0
H1148 H 0.44505 0.7078 0.14316 0.0
H1149 H 0.52354 0.76337 0.0507 0.0
H1150 H 0.56091 0.73695 0.04877 0.0
H1151 H 0.55906 0.76899 0.07194 0.0
C1152 C 0.49773 0.68928 0.37348 0.0
C1153 C 0.46905 0.6779 0.38718 0.0
C1154 C 0.50836 0.72199 0.37499 0.0
C1155 C 0.49047 0.74382 0.3911 0.0
C1156 C 0.46231 0.73215 0.40575 0.0
C1157 C 0.45162 0.69945 0.40334 0.0
C1158 C 0.53803 0.73344 0.35862 0.0
C1159 C 0.44315 0.75433 0.42366 0.0
C1160 C 0.53948 0.82238 0.40562 0.0
C1161 C 0.52414 0.84437 0.38869 0.0
C1162 C 0.52763 0.79001 0.40756 0.0
C1163 C 0.50045 0.77907 0.39165 0.0
C1164 C 0.48434 0.80143 0.37496 0.0
C1165 C 0.49608 0.83387 0.37393 0.0
C1166 C 0.54487 0.76728 0.42611 0.0
C1167 C 0.45581 0.79074 0.35728 0.0
H1168 H 0.51116 0.67287 0.36079 0.0
H1169 H 0.42951 0.69079 0.41404 0.0
H1170 H 0.52882 0.75281 0.34563 0.0
H1171 H 0.55879 0.7442 0.37047 0.0
H1172 H 0.54939 0.71339 0.34723 0.0
H1173 H 0.42381 0.74093 0.43523 0.0
H1174 H 0.46177 0.76667 0.43646 0.0
H1175 H 0.42947 0.77361 0.41289 0.0
H1176 H 0.56108 0.83037 0.41717 0.0
H1177 H 0.48428 0.85063 0.36065 0.0
H1178 H 0.55981 0.74845 0.41577 0.0
H1179 H 0.52502 0.75444 0.43756 0.0
H1180 H 0.56285 0.78034 0.439 0.0
H1181 H 0.46602 0.77213 0.34403 0.0
H1182 H 0.44508 0.81133 0.34613 0.0
H1183 H 0.43438 0.77924 0.36803 0.0
C1184 C 1.00159 0.32877 0.37839 0.0
C1185 C 0.03022 0.3406 0.39193 0.0
C1186 C 0.99154 0.29591 0.37996 0.0
C1187 C 0.00995 0.27437 0.39602 0.0
C1188 C 0.03798 0.2865 0.41058 0.0
C1189 C 0.04812 0.31935 0.40808 0.0
C1190 C 0.96201 0.28399 0.36365 0.0
C1191 C 0.05763 0.26464 0.42848 0.0
C1192 C 0.96239 0.19482 0.40988 0.0
C1193 C 0.97814 0.17335 0.39278 0.0
C1194 C 0.97374 0.22731 0.41217 0.0
C1195 C 1.00076 0.23893 0.39642 0.0
C1196 C 0.0173 0.21707 0.37958 0.0
C1197 C 0.00611 0.18449 0.37822 0.0
C1198 C 0.95608 0.24947 0.4309 0.0
C1199 C 0.04566 0.22848 0.36203 0.0
H1200 H 0.98779 0.34494 0.3657 0.0
H1201 H 0.07019 0.32837 0.41867 0.0
H1202 H 0.97155 0.26488 0.35057 0.0
H1203 H 0.94155 0.27279 0.37552 0.0
H1204 H 0.95015 0.30388 0.35234 0.0
H1205 H 0.07654 0.27841 0.44017 0.0
H1206 H 0.03929 0.25174 0.44115 0.0
H1207 H 0.07192 0.24581 0.41766 0.0
H1208 H 0.94086 0.18632 0.42128 0.0
H1209 H 0.01823 0.16813 0.36481 0.0
H1210 H 0.94056 0.26805 0.42071 0.0
H1211 H 0.97568 0.26266 0.44235 0.0
H1212 H 0.93855 0.23588 0.44379 0.0
H1213 H 0.03509 0.24704 0.34887 0.0
H1214 H 0.05683 0.20821 0.35077 0.0
H1215 H 0.06683 0.24023 0.37287 0.0
C1216 C 0.00971 0.68591 0.86935 0.0
C1217 C 0.0387 0.67641 0.88358 0.0
C1218 C 0.99675 0.71784 0.87049 0.0
C1219 C 0.0126 0.74081 0.88675 0.0
C1220 C 0.04122 0.7311 0.90181 0.0
C1221 C 0.05426 0.69911 0.89979 0.0
C1222 C 0.96678 0.72726 0.85361 0.0
C1223 C 0.05833 0.75462 0.91981 0.0
C1224 C 0.00267 0.82989 0.86837 0.0
C1225 C 0.97399 0.83962 0.88281 0.0
C1226 C 0.0158 0.79804 0.86982 0.0
C1227 C 1.00046 0.77541 0.88661 0.0
C1228 C 0.97221 0.78539 0.90192 0.0
C1229 C 0.95898 0.81728 0.89958 0.0
C1230 C 0.04535 0.78831 0.85269 0.0
C1231 C 0.95566 0.76225 0.92047 0.0
H1232 H 0.99767 0.66857 0.85665 0.0
H1233 H 0.07651 0.69183 0.91096 0.0
H1234 H 0.94508 0.73705 0.86505 0.0
H1235 H 0.97504 0.74685 0.84049 0.0
H1236 H 0.95701 0.70638 0.84233 0.0
H1237 H 0.07828 0.74259 0.93173 0.0
H1238 H 0.07089 0.77459 0.90906 0.0
H1239 H 0.03855 0.76591 0.93225 0.0
H1240 H 0.01429 0.84696 0.85523 0.0
H1241 H 0.93696 0.82473 0.91091 0.0
H1242 H 0.03674 0.76852 0.83987 0.0
H1243 H 0.06732 0.77869 0.86395 0.0
H1244 H 0.05486 0.80899 0.84106 0.0
H1245 H 0.94273 0.7421 0.91018 0.0
H1246 H 0.9361 0.77454 0.93257 0.0
H1247 H 0.9758 0.75116 0.93273 0.0
C1248 C 0.50097 0.32483 0.86858 0.0
C1249 C 0.47228 0.33526 0.88273 0.0
C1250 C 0.51301 0.29263 0.86999 0.0
C1251 C 0.49656 0.27029 0.88645 0.0
C1252 C 0.4682 0.28089 0.9014 0.0
C1253 C 0.45607 0.31318 0.8991 0.0
C1254 C 0.54272 0.28227 0.85322 0.0
C1255 C 0.45049 0.25804 0.9196 0.0
C1256 C 0.50502 0.18099 0.86847 0.0
C1257 C 0.53374 0.17104 0.88281 0.0
C1258 C 0.49218 0.21294 0.86995 0.0
C1259 C 0.50789 0.23546 0.88666 0.0
C1260 C 0.53606 0.22521 0.90195 0.0
C1261 C 0.54898 0.19322 0.89959 0.0
C1262 C 0.46271 0.22294 0.85283 0.0
C1263 C 0.553 0.24823 0.92041 0.0
H1264 H 0.51351 0.34169 0.85574 0.0
H1265 H 0.43404 0.32117 0.9102 0.0
H1266 H 0.56423 0.2723 0.86478 0.0
H1267 H 0.53401 0.26258 0.84035 0.0
H1268 H 0.55294 0.30271 0.84166 0.0
H1269 H 0.43078 0.27068 0.93134 0.0
H1270 H 0.4375 0.23815 0.90904 0.0
H1271 H 0.46996 0.24656 0.93221 0.0
H1272 H 0.4932 0.16404 0.85534 0.0
H1273 H 0.57102 0.1856 0.91085 0.0
H1274 H 0.47168 0.24228 0.83972 0.0
H1275 H 0.44107 0.23328 0.86405 0.0
H1276 H 0.45259 0.20224 0.84151 0.0
H1277 H 0.56658 0.26791 0.91001 0.0
H1278 H 0.5721 0.23566 0.93273 0.0
H1279 H 0.53303 0.25996 0.93245 0.0
C1280 C 0.50283 0.1872 0.6202 0.0
C1281 C 0.47349 0.17766 0.6064 0.0
C1282 C 0.51604 0.21898 0.6184 0.0
C1283 C 0.50004 0.24162 0.60192 0.0
C1284 C 0.47138 0.23166 0.58704 0.0
C1285 C 0.45812 0.1999 0.58972 0.0
C1286 C 0.5461 0.22875 0.63505 0.0
C1287 C 0.45413 0.25483 0.56882 0.0
C1288 C 0.50704 0.33081 0.62007 0.0
C1289 C 0.53522 0.34139 0.60546 0.0
C1290 C 0.49519 0.29856 0.61883 0.0
C1291 C 0.51135 0.27638 0.60211 0.0
C1292 C 0.53914 0.28714 0.5867 0.0
C1293 C 0.5511 0.31947 0.58881 0.0
C1294 C 0.46603 0.28801 0.63603 0.0
C1295 C 0.55646 0.26441 0.56822 0.0
H1296 H 0.51473 0.17015 0.63322 0.0
H1297 H 0.43562 0.19253 0.57886 0.0
H1298 H 0.56731 0.23933 0.62354 0.0
H1299 H 0.53754 0.24782 0.64851 0.0
H1300 H 0.55664 0.20786 0.64597 0.0
H1301 H 0.43485 0.24233 0.5566 0.0
H1302 H 0.44066 0.27437 0.57943 0.0
H1303 H 0.47386 0.26671 0.55667 0.0
H1304 H 0.4948 0.34756 0.63313 0.0
H1305 H 0.57276 0.3276 0.57739 0.0
H1306 H 0.47515 0.26819 0.64865 0.0
H1307 H 0.44417 0.27815 0.62477 0.0
H1308 H 0.45615 0.30832 0.64787 0.0
H1309 H 0.56975 0.24449 0.57855 0.0
H1310 H 0.57583 0.27714 0.55624 0.0
H1311 H 0.5367 0.25294 0.55583 0.0
C1312 C 0.04932 0.81409 0.59345 0.0
C1313 C 0.03415 0.83712 0.60955 0.0
C1314 C 0.03608 0.78219 0.59184 0.0
C1315 C 0.00761 0.77296 0.60718 0.0
C1316 C 0.99191 0.79634 0.62315 0.0
C1317 C 0.00511 0.82818 0.62391 0.0
C1318 C 0.053 0.75818 0.57414 0.0
C1319 C 0.96204 0.78739 0.64025 0.0
C1320 C 0.95509 0.69566 0.59561 0.0
C1321 C 0.97063 0.67391 0.61259 0.0
C1322 C 0.96764 0.72769 0.59291 0.0
C1323 C 0.99575 0.73838 0.60805 0.0
C1324 C 0.01156 0.71638 0.62513 0.0
C1325 C 0.99909 0.68436 0.62696 0.0
C1326 C 0.95063 0.75019 0.57409 0.0
C1327 C 0.04105 0.72693 0.64205 0.0
H1328 H 0.07164 0.82095 0.5822 0.0
H1329 H 0.99338 0.84582 0.63651 0.0
H1330 H 0.06608 0.73877 0.58518 0.0
H1331 H 0.03309 0.74622 0.56219 0.0
H1332 H 0.07253 0.76997 0.56172 0.0
H1333 H 0.95202 0.80868 0.65095 0.0
H1334 H 0.94045 0.77684 0.6291 0.0
H1335 H 0.97055 0.76852 0.65391 0.0
H1336 H 0.93325 0.68759 0.58434 0.0
H1337 H 0.01108 0.66771 0.64024 0.0
H1338 H 0.97049 0.7609 0.56141 0.0
H1339 H 0.93787 0.77066 0.5841 0.0
H1340 H 0.93086 0.73748 0.56243 0.0
H1341 H 0.06296 0.73621 0.63055 0.0
H1342 H 0.0507 0.70676 0.65414 0.0
H1343 H 0.03236 0.74717 0.65439 0.0
C1344 C 0.9609 0.96557 0.95641 0.0
C1345 C 0.97775 0.97769 0.93498 0.0
C1346 C 0.97183 0.97472 0.98068 0.0
C1347 C 1.00092 0.99555 0.98343 0.0
C1348 C 0.01879 1.00676 0.96181 0.0
C1349 C 0.00661 0.99815 0.93785 0.0
C1350 C 0.95162 0.96298 0.00331 0.0
C1351 C 0.05055 0.02816 0.96396 0.0
C1352 C 0.01218 0.04723 0.04222 0.0
C1353 C 0.03511 0.02815 0.05642 0.0
C1354 C 1.00015 0.03649 0.01867 0.0
C1355 C 0.01225 1.00647 0.00884 0.0
C1356 C 0.03596 0.98743 0.02294 0.0
C1357 C 0.04668 0.99828 0.04678 0.0
C1358 C 0.97423 0.05708 0.00443 0.0
C1359 C 0.05032 0.95584 0.01273 0.0
H1360 H 0.93837 0.95001 0.95416 0.0
H1361 H 0.01977 1.00744 0.9213 0.0
H1362 H 0.96897 0.94971 0.01647 0.0
H1363 H 0.94097 0.98421 0.01371 0.0
H1364 H 0.92983 0.94667 -0.00203 0.0
H1365 H 0.06292 0.03275 0.94537 0.0
H1366 H 0.04336 0.05194 0.9724 0.0
H1367 H 0.06995 0.01667 0.97663 0.0
H1368 H 0.0029 0.07014 0.04985 0.0
H1369 H 0.06455 0.9836 0.05777 0.0
H1370 H 0.95085 0.04241 -9e-05 0.0
H1371 H 0.9856 0.06524 0.98629 0.0
H1372 H 0.96609 0.07894 0.01528 0.0
H1373 H 0.0289 0.93847 0.00898 0.0
H1374 H 0.069 0.94422 0.02592 0.0
H1375 H 0.06364 0.96036 0.99451 0.0
C1376 C 0.49888 0.01332 0.9362 0.0
C1377 C 0.52878 0.03246 0.93362 0.0
C1378 C 0.48615 1.00486 0.96005 0.0
C1379 C 0.50454 0.01477 0.98183 0.0
C1380 C 0.53485 0.03407 0.97935 0.0
C1381 C 0.5463 0.04319 0.95521 0.0
C1382 C 0.45309 0.98522 0.96193 0.0
C1383 C 0.55565 0.04432 0.00214 0.0
C1384 C 0.45848 0.01543 0.04502 0.0
C1385 C 0.46791 0.98502 0.05491 0.0
C1386 C 0.46984 0.02525 0.02109 0.0
C1387 C 0.49213 1.00461 0.00716 0.0
C1388 C 0.50201 0.97397 0.0172 0.0
C1389 C 0.48926 0.96429 0.04084 0.0
C1390 C 0.45775 0.05757 0.01064 0.0
C1391 C 0.52646 0.95168 0.00317 0.0
H1392 H 0.48523 1.00509 0.91951 0.0
H1393 H 0.56965 0.0577 0.95316 0.0
H1394 H 0.4586 0.96114 0.97053 0.0
H1395 H 0.43422 0.99785 0.97435 0.0
H1396 H 0.44079 0.98123 0.94323 0.0
H1397 H 0.57884 0.05894 -0.00305 0.0
H1398 H 0.53927 0.05893 0.01508 0.0
H1399 H 0.5643 0.02243 0.0127 0.0
H1400 H 0.4418 0.03137 0.05593 0.0
H1401 H 0.49685 0.94094 0.04868 0.0
H1402 H 0.44463 0.05379 0.99224 0.0
H1403 H 0.48033 0.07371 0.00721 0.0
H1404 H 0.43952 0.07024 0.02357 0.0
H1405 H 0.5148 0.94434 0.98491 0.0
H1406 H 0.53274 0.92931 0.01407 0.0
H1407 H 0.55098 0.96474 -0.00113 0.0
C1408 C 0.45933 0.05186 0.53418 0.0
C1409 C 0.47812 0.04311 0.55574 0.0
C1410 C 0.4706 0.0422 0.51012 0.0
C1411 C 0.50181 0.0242 0.5077 0.0
C1412 C 0.52164 0.01667 0.52938 0.0
C1413 C 0.50928 0.02582 0.55318 0.0
C1414 C 0.44847 0.05015 0.48744 0.0
C1415 C 0.55556 0.99838 0.52752 0.0
C1416 C 0.51605 0.9699 0.45063 0.0
C1417 C 0.53613 0.9901 0.43515 0.0
C1418 C 0.50416 0.98093 0.47415 0.0
C1419 C 0.51343 0.01253 0.48257 0.0
C1420 C 0.53436 0.03272 0.46721 0.0
C1421 C 0.54508 0.02141 0.44354 0.0
C1422 C 0.48135 0.95895 0.48985 0.0
C1423 C 0.54561 0.06617 0.47585 0.0
H1424 H 0.43503 0.06492 0.53622 0.0
H1425 H 0.52391 0.01921 0.56988 0.0
H1426 H 0.46389 0.06376 0.47327 0.0
H1427 H 0.43968 0.02723 0.47834 0.0
H1428 H 0.4253 0.06486 0.49247 0.0
H1429 H 0.56898 0.9965 0.546 0.0
H1430 H 0.5508 0.9734 0.52031 0.0
H1431 H 0.57312 0.01068 0.51394 0.0
H1432 H 0.50885 0.94582 0.44405 0.0
H1433 H 0.56087 0.03698 0.43165 0.0
H1434 H 0.45651 0.97145 0.49416 0.0
H1435 H 0.49418 0.95353 0.50811 0.0
H1436 H 0.47553 0.93555 0.48021 0.0
H1437 H 0.52255 0.0817 0.4793 0.0
H1438 H 0.56252 0.07852 0.46184 0.0
H1439 H 0.55993 0.06423 0.49395 0.0
C1440 C 0.99708 0.98893 0.55488 0.0
C1441 C 0.02856 0.97211 0.55723 0.0
C1442 C 0.98451 0.99839 0.53119 0.0
C1443 C 0.00447 0.9917 0.50942 0.0
C1444 C 0.03603 0.97419 0.51163 0.0
C1445 C 0.04749 0.96416 0.53557 0.0
C1446 C 0.95022 0.01609 0.52954 0.0
C1447 C 0.05833 0.96719 0.48887 0.0
C1448 C 0.96136 0.99496 0.44517 0.0
C1449 C 0.96962 0.0266 0.43716 0.0
C1450 C 0.9722 0.98341 0.46876 0.0
C1451 C 0.99259 1.0037 0.48442 0.0
C1452 C 1.00116 0.03565 0.47638 0.0
C1453 C 0.98911 0.04692 0.45294 0.0
C1454 C 0.96163 0.94959 0.477 0.0
C1455 C 0.02343 0.05776 0.49238 0.0
H1456 H 0.98238 0.99496 0.57167 0.0
H1457 H 0.07206 0.95151 0.53746 0.0
H1458 H 0.95445 0.04132 0.5227 0.0
H1459 H 0.93293 1.0038 0.51577 0.0
H1460 H 0.93674 0.01726 0.54804 0.0
H1461 H 0.08184 0.95283 0.49374 0.0
H1462 H 0.04322 0.95357 0.47453 0.0
H1463 H 0.06659 0.99047 0.48006 0.0
H1464 H 0.94602 0.9793 0.43303 0.0
H1465 H 0.99576 0.07127 0.44664 0.0
H1466 H 0.94733 0.95088 0.49513 0.0
H1467 H 0.98501 0.93439 0.48024 0.0
H1468 H 0.94494 0.93724 0.46284 0.0
H1469 H 0.01046 0.06253 0.51068 0.0
H1470 H 0.02872 0.08147 0.48303 0.0
H1471 H 0.04855 0.04568 0.49658 0.0
C1472 C 0.54514 0.49655 0.04832 0.0
C1473 C 0.53378 0.52669 0.05758 0.0
C1474 C 0.53343 0.48479 0.02503 0.0
C1475 C 0.50893 0.50317 0.01113 0.0
C1476 C 0.49667 0.53325 0.02076 0.0
C1477 C 0.50974 0.54495 0.04374 0.0
C1478 C 0.54805 0.45322 0.01495 0.0
C1479 C 0.46993 0.55313 0.00673 0.0
C1480 C 0.50499 0.49522 0.94021 0.0
C1481 C 0.47693 0.47393 0.93685 0.0
C1482 C 0.51628 0.50401 0.96431 0.0
C1483 C 0.49819 0.49224 0.98563 0.0
C1484 C 0.46978 0.47067 0.98244 0.0
C1485 C 0.45981 0.46128 0.95798 0.0
C1486 C 0.5474 0.52618 0.96691 0.0
C1487 C 0.44933 0.45839 0.00477 0.0
H1488 H 0.56384 0.48252 0.05909 0.0
H1489 H 0.50062 0.56804 0.05115 0.0
H1490 H 0.52677 0.43585 0.01078 0.0
H1491 H 0.56194 0.45789 -0.00302 0.0
H1492 H 0.56635 0.44153 0.02839 0.0
H1493 H 0.46086 0.57443 0.01785 0.0
H1494 H 0.48107 0.56213 0.98875 0.0
H1495 H 0.44721 0.53773 0.00193 0.0
H1496 H 0.5183 0.50507 0.92392 0.0
H1497 H 0.43787 0.44509 0.95534 0.0
H1498 H 0.56684 0.51509 0.97976 0.0
H1499 H 0.53938 0.54974 0.97534 0.0
H1500 H 0.56007 0.53119 0.9485 0.0
H1501 H 0.4667 0.44555 0.01816 0.0
H1502 H 0.42816 0.44154 -0.0009 0.0
H1503 H 0.4378 0.47932 0.01503 0.0
C1504 C 0.96143 0.47497 0.03577 0.0
C1505 C 0.97586 0.48639 0.05833 0.0
C1506 C 0.97393 0.48597 0.01239 0.0
C1507 C 0.00213 0.50812 0.01168 0.0
C1508 C 0.0172 0.5192 0.03442 0.0
C1509 C 0.00355 0.50856 0.05746 0.0
C1510 C 0.95678 0.47416 0.98847 0.0
C1511 C 0.04795 0.54203 0.03443 0.0
C1512 C 0.05416 0.50962 0.95115 0.0
C1513 C 0.04208 0.53823 0.93971 0.0
C1514 C 0.04209 0.50006 0.97492 0.0
C1515 C 0.01651 0.51908 0.98713 0.0
C1516 C 0.00453 0.54828 0.97579 0.0
C1517 C 0.0179 0.55779 0.95227 0.0
C1518 C 0.05631 0.46935 0.98676 0.0
C1519 C 0.97675 0.56879 0.98805 0.0
H1520 H 0.93978 0.45811 0.03641 0.0
H1521 H 0.0149 0.51736 0.07486 0.0
H1522 H 0.94784 0.49529 0.97712 0.0
H1523 H 0.97576 0.46053 0.97683 0.0
H1524 H 0.93421 0.45806 0.99231 0.0
H1525 H 0.05704 0.54783 0.0538 0.0
H1526 H 0.06976 0.53095 0.0238 0.0
H1527 H 0.04109 0.56513 0.02478 0.0
H1528 H 0.07296 0.49458 0.94134 0.0
H1529 H 0.00827 0.57966 0.94316 0.0
H1530 H 0.03535 0.45099 0.98862 0.0
H1531 H 0.06611 0.47459 0.00602 0.0
H1532 H 0.07772 0.45854 0.9755 0.0
H1533 H 0.95273 0.55416 0.9903 0.0
H1534 H 0.97053 0.59095 0.97688 0.0
H1535 H 0.9851 0.57639 0.00718 0.0
C1536 C 0.95278 0.50849 0.54517 0.0
C1537 C 0.96751 0.5351 0.55773 0.0
C1538 C 0.96455 0.49922 0.52123 0.0
C1539 C 0.99258 0.51628 0.51012 0.0
C1540 C 0.00759 0.54318 0.52282 0.0
C1541 C 0.99444 0.55264 0.54638 0.0
C1542 C 0.94708 0.47114 0.50789 0.0
C1543 C 0.03808 0.5614 0.51182 0.0
C1544 C 0.04239 0.47142 0.45895 0.0
C1545 C 0.02956 0.48649 0.43715 0.0
C1546 C 0.03116 0.48137 0.48294 0.0
C1547 C 0.00577 0.50622 0.48501 0.0
C1548 C 0.99244 0.52117 0.46303 0.0
C1549 C 0.00491 0.51149 0.43942 0.0
C1550 C 0.04656 0.46548 0.50606 0.0
C1551 C 0.96462 0.54707 0.46442 0.0
H1552 H 0.93195 0.49499 0.55411 0.0
H1553 H 0.00614 0.57287 0.55641 0.0
H1554 H 0.93793 0.47904 0.48901 0.0
H1555 H 0.96592 0.45107 0.50494 0.0
H1556 H 0.92459 0.46148 0.51865 0.0
H1557 H 0.04722 0.58132 0.52436 0.0
H1558 H 0.05992 0.54429 0.50851 0.0
H1559 H 0.03095 0.57204 0.49331 0.0
H1560 H 0.06165 0.45229 0.45726 0.0
H1561 H 0.99478 0.52319 0.42265 0.0
H1562 H 0.02599 0.45268 0.51682 0.0
H1563 H 0.0577 0.48435 0.51869 0.0
H1564 H 0.06721 0.44765 0.50125 0.0
H1565 H 0.94156 0.53739 0.47447 0.0
H1566 H 0.95638 0.55563 0.44546 0.0
H1567 H 0.97417 0.56831 0.47532 0.0
C1568 C 0.49745 0.50198 0.55229 0.0
C1569 C 0.52563 0.48052 0.5544 0.0
C1570 C 0.48411 0.51077 0.52872 0.0
C1571 C 0.50006 0.49863 0.50664 0.0
C1572 C 0.5284 0.47675 0.50858 0.0
C1573 C 0.54056 0.46752 0.53254 0.0
C1574 C 0.4532 0.53338 0.52747 0.0
C1575 C 0.54654 0.46395 0.48538 0.0
C1576 C 0.45032 0.5027 0.44498 0.0
C1577 C 0.46261 0.532 0.43479 0.0
C1578 C 0.46207 0.49163 0.4685 0.0
C1579 C 0.48757 0.50977 0.4816 0.0
C1580 C 0.50029 0.53925 0.47122 0.0
C1581 C 0.48719 0.55031 0.44807 0.0
C1582 C 0.44702 0.4607 0.4794 0.0
C1583 C 0.52809 0.55885 0.48437 0.0
H1584 H 0.48571 0.51198 0.56916 0.0
H1585 H 0.56251 0.45112 0.53416 0.0
H1586 H 0.46089 0.55678 0.51862 0.0
H1587 H 0.43253 0.52255 0.51556 0.0
H1588 H 0.44224 0.53863 0.54641 0.0
H1589 H 0.56788 0.44681 0.49011 0.0
H1590 H 0.52774 0.45127 0.47295 0.0
H1591 H 0.55747 0.4846 0.47444 0.0
H1592 H 0.43129 0.48858 0.43461 0.0
H1593 H 0.49709 0.57269 0.4399 0.0
H1594 H 0.43534 0.4658 0.49811 0.0
H1595 H 0.46786 0.44245 0.48233 0.0
H1596 H 0.42683 0.44985 0.46702 0.0
H1597 H 0.51844 0.56748 0.5029 0.0
H1598 H 0.53639 0.58035 0.47315 0.0
H1599 H 0.5511 0.54329 0.48804 0.0
loop_
_geom_bond_atom_site_label_1
_geom_bond_atom_site_label_2
_geom_bond_distance
_geom_bond_site_symmetry_2
_ccdc_geom_bond_type
Mn0 O5 2.095 . S
Mn0 O15 2.162 . S
Mn0 O16 2.297 . S
Mn0 O24 2.385 . S
Mn0 O25 2.209 . S
Mn0 O26 2.094 . S
Mn1 O6 2.121 1_565 S
Mn1 N8 2.257 . S
Mn1 N17 2.282 . S
Mn1 O25 2.215 1_565 S
Mn1 O27 2.117 1_565 S
C2 O24 1.234 . S
C2 O25 1.283 . S
C3 O15 1.281 . S
C3 O16 1.236 . S
C4 O26 1.240 . S
C4 O27 1.264 . S
O5 Mn0 2.095 . S
O5 C14 1.250 . S
O6 Mn1 2.121 1_545 S
O6 C14 1.258 . S
C7 N8 1.326 1_655 S
C7 C11 1.460 . S
C7 H13 0.929 . S
N8 Mn1 2.257 . S
N8 C7 1.326 1_455 S
N8 C12 1.362 . S
C9 C10 1.258 . S
C9 C12 1.431 1_655 S
C9 C29 1.449 . S
C10 C9 1.258 . S
C10 C11 1.477 . S
C10 H30 0.931 . S
C11 C7 1.460 . S
C11 C10 1.477 . S
C11 H31 0.930 . S
C12 N8 1.362 . S
C12 C9 1.431 1_455 S
C12 C22 1.476 . S
H13 C7 0.929 . S
C14 O5 1.250 . S
C14 O6 1.258 . S
O15 Mn0 2.162 . S
O15 C3 1.281 . S
O16 Mn0 2.297 . S
O16 C3 1.236 . S
N17 Mn1 2.282 . S
N17 C18 1.328 . S
N17 C22 1.318 . S
C18 N17 1.328 . S
C18 C19 1.457 . S
C18 H23 0.929 1_565 S
C19 C18 1.457 . S
C19 C20 1.291 . S
C19 H32 0.931 . S
C20 C19 1.291 . S
C20 C21 1.373 . S
C20 H33 0.929 . S
C21 C20 1.373 . S
C21 C22 1.396 . S
C21 C28 1.403 . S
C22 C12 1.476 . S
C22 N17 1.318 . S
C22 C21 1.396 . S
H23 C18 0.929 1_545 S
O24 Mn0 2.385 . S
O24 C2 1.234 . S
O25 Mn0 2.209 . S
O25 Mn1 2.215 1_545 S
O25 C2 1.283 . S
O26 Mn0 2.094 . S
O26 C4 1.240 . S
O27 Mn1 2.117 1_545 S
O27 C4 1.264 . S
C28 C21 1.403 . S
C28 C29 1.399 1_455 S
C28 H34 0.929 . S
C29 C9 1.449 . S
C29 C28 1.399 1_655 S
C29 H35 0.930 . S
H30 C10 0.931 . S
H31 C11 0.930 . S
H32 C19 0.931 . S
H33 C20 0.929 . S
H34 C28 0.929 . S
H35 C29 0.930 . S
Mn36 O41 2.095 . S
Mn36 O51 2.162 . S
Mn36 O52 2.297 . S
Mn36 O60 2.385 . S
Mn36 O61 2.209 . S
Mn36 O62 2.094 . S
Mn37 O42 2.121 1_545 S
Mn37 N44 2.257 . S
Mn37 N53 2.282 . S
Mn37 O61 2.215 1_545 S
Mn37 O63 2.117 1_545 S
C38 O60 1.234 . S
C38 O61 1.283 . S
C39 O51 1.281 . S
C39 O52 1.236 . S
C40 O62 1.240 . S
C40 O63 1.264 . S
O41 Mn36 2.095 . S
O41 C50 1.250 . S
O42 Mn37 2.121 1_565 S
O42 C50 1.258 . S
C43 N44 1.326 . S
C43 C47 1.460 . S
C43 H49 0.929 . S
N44 Mn37 2.257 . S
N44 C43 1.326 . S
N44 C48 1.362 . S
C45 C46 1.258 . S
C45 C48 1.431 . S
C45 C65 1.449 . S
C46 C45 1.258 . S
C46 C47 1.477 . S
C46 H66 0.931 . S
C47 C43 1.460 . S
C47 C46 1.477 . S
C47 H67 0.930 . S
C48 N44 1.362 . S
C48 C45 1.431 . S
C48 C58 1.476 . S
H49 C43 0.929 . S
C50 O41 1.250 . S
C50 O42 1.258 . S
O51 Mn36 2.162 . S
O51 C39 1.281 . S
O52 Mn36 2.297 . S
O52 C39 1.236 . S
N53 Mn37 2.282 . S
N53 C54 1.328 . S
N53 C58 1.318 . S
C54 N53 1.328 . S
C54 C55 1.457 . S
C54 H59 0.929 1_545 S
C55 C54 1.457 . S
C55 C56 1.291 . S
C55 H68 0.931 . S
C56 C55 1.291 . S
C56 C57 1.373 . S
C56 H69 0.929 . S
C57 C56 1.373 . S
C57 C58 1.396 . S
C57 C64 1.403 . S
C58 C48 1.476 . S
C58 N53 1.318 . S
C58 C57 1.396 . S
H59 C54 0.929 1_565 S
O60 Mn36 2.385 . S
O60 C38 1.234 . S
O61 Mn36 2.209 . S
O61 Mn37 2.215 1_565 S
O61 C38 1.283 . S
O62 Mn36 2.094 . S
O62 C40 1.240 . S
O63 Mn37 2.117 1_565 S
O63 C40 1.264 . S
C64 C57 1.403 . S
C64 C65 1.399 . S
C64 H70 0.929 . S
C65 C45 1.449 . S
C65 C64 1.399 . S
C65 H71 0.930 . S
H66 C46 0.931 . S
H67 C47 0.930 . S
H68 C55 0.931 . S
H69 C56 0.929 . S
H70 C64 0.929 . S
H71 C65 0.930 . S
Mn72 O77 2.095 . S
Mn72 O87 2.162 . S
Mn72 O88 2.297 . S
Mn72 O96 2.385 . S
Mn72 O97 2.209 . S
Mn72 O98 2.094 . S
Mn73 O78 2.121 1_545 S
Mn73 N80 2.257 . S
Mn73 N89 2.282 . S
Mn73 O97 2.215 1_545 S
Mn73 O99 2.117 1_545 S
C74 O96 1.234 . S
C74 O97 1.283 . S
C75 O87 1.281 . S
C75 O88 1.236 . S
C76 O98 1.240 . S
C76 O99 1.264 . S
O77 Mn72 2.095 . S
O77 C86 1.250 . S
O78 Mn73 2.121 1_565 S
O78 C86 1.258 . S
C79 N80 1.326 . S
C79 C83 1.460 . S
C79 H85 0.929 . S
N80 Mn73 2.257 . S
N80 C79 1.326 . S
N80 C84 1.362 . S
C81 C82 1.258 . S
C81 C84 1.431 . S
C81 C101 1.449 . S
C82 C81 1.258 . S
C82 C83 1.477 . S
C82 H102 0.931 . S
C83 C79 1.460 . S
C83 C82 1.477 . S
C83 H103 0.930 . S
C84 N80 1.362 . S
C84 C81 1.431 . S
C84 C94 1.476 . S
H85 C79 0.929 . S
C86 O77 1.250 . S
C86 O78 1.258 . S
O87 Mn72 2.162 . S
O87 C75 1.281 . S
O88 Mn72 2.297 . S
O88 C75 1.236 . S
N89 Mn73 2.282 . S
N89 C90 1.328 . S
N89 C94 1.318 . S
C90 N89 1.328 . S
C90 C91 1.457 . S
C90 H95 0.929 1_545 S
C91 C90 1.457 . S
C91 C92 1.291 . S
C91 H104 0.931 . S
C92 C91 1.291 . S
C92 C93 1.373 . S
C92 H105 0.929 . S
C93 C92 1.373 . S
C93 C94 1.396 . S
C93 C100 1.403 . S
C94 C84 1.476 . S
C94 N89 1.318 . S
C94 C93 1.396 . S
H95 C90 0.929 1_565 S
O96 Mn72 2.385 . S
O96 C74 1.234 . S
O97 Mn72 2.209 . S
O97 Mn73 2.215 1_565 S
O97 C74 1.283 . S
O98 Mn72 2.094 . S
O98 C76 1.240 . S
O99 Mn73 2.117 1_565 S
O99 C76 1.264 . S
C100 C93 1.403 . S
C100 C101 1.399 . S
C100 H106 0.929 . S
C101 C81 1.449 . S
C101 C100 1.399 . S
C101 H107 0.930 . S
H102 C82 0.931 . S
H103 C83 0.930 . S
H104 C91 0.931 . S
H105 C92 0.929 . S
H106 C100 0.929 . S
H107 C101 0.930 . S
Mn108 O113 2.095 . S
Mn108 O123 2.162 . S
Mn108 O124 2.297 . S
Mn108 O132 2.385 . S
Mn108 O133 2.209 . S
Mn108 O134 2.094 . S
Mn109 O114 2.121 1_565 S
Mn109 N116 2.257 . S
Mn109 N125 2.282 . S
Mn109 O133 2.215 1_565 S
Mn109 O135 2.117 1_565 S
C110 O132 1.234 . S
C110 O133 1.283 . S
C111 O123 1.281 . S
C111 O124 1.236 . S
C112 O134 1.240 . S
C112 O135 1.264 . S
O113 Mn108 2.095 . S
O113 C122 1.250 . S
O114 Mn109 2.121 1_545 S
O114 C122 1.258 . S
C115 N116 1.326 1_455 S
C115 C119 1.460 . S
C115 H121 0.929 . S
N116 Mn109 2.257 . S
N116 C115 1.326 1_655 S
N116 C120 1.362 . S
C117 C118 1.258 . S
C117 C120 1.431 1_455 S
C117 C137 1.449 . S
C118 C117 1.258 . S
C118 C119 1.477 . S
C118 H138 0.931 . S
C119 C115 1.460 . S
C119 C118 1.477 . S
C119 H139 0.930 . S
C120 N116 1.362 . S
C120 C117 1.431 1_655 S
C120 C130 1.476 . S
H121 C115 0.929 . S
C122 O113 1.250 . S
C122 O114 1.258 . S
O123 Mn108 2.162 . S
O123 C111 1.281 . S
O124 Mn108 2.297 . S
O124 C111 1.236 . S
N125 Mn109 2.282 . S
N125 C126 1.328 . S
N125 C130 1.318 . S
C126 N125 1.328 . S
C126 C127 1.457 . S
C126 H131 0.929 1_565 S
C127 C126 1.457 . S
C127 C128 1.291 . S
C127 H140 0.931 . S
C128 C127 1.291 . S
C128 C129 1.373 . S
C128 H141 0.929 . S
C129 C128 1.373 . S
C129 C130 1.396 . S
C129 C136 1.403 . S
C130 C120 1.476 . S
C130 N125 1.318 . S
C130 C129 1.396 . S
H131 C126 0.929 1_545 S
O132 Mn108 2.385 . S
O132 C110 1.234 . S
O133 Mn108 2.209 . S
O133 Mn109 2.215 1_545 S
O133 C110 1.283 . S
O134 Mn108 2.094 . S
O134 C112 1.240 . S
O135 Mn109 2.117 1_545 S
O135 C112 1.264 . S
C136 C129 1.403 . S
C136 C137 1.399 1_655 S
C136 H142 0.929 . S
C137 C117 1.449 . S
C137 C136 1.399 1_455 S
C137 H143 0.930 . S
H138 C118 0.931 . S
H139 C119 0.930 . S
H140 C127 0.931 . S
H141 C128 0.929 . S
H142 C136 0.929 . S
H143 C137 0.930 . S
Mn144 O149 2.095 . S
Mn144 O159 2.162 . S
Mn144 O160 2.297 . S
Mn144 O168 2.385 . S
Mn144 O169 2.209 . S
Mn144 O170 2.094 . S
Mn145 O150 2.121 1_545 S
Mn145 N152 2.257 . S
Mn145 N161 2.282 . S
Mn145 O169 2.215 1_545 S
Mn145 O171 2.117 1_545 S
C146 O168 1.234 . S
C146 O169 1.283 . S
C147 O159 1.281 . S
C147 O160 1.236 . S
C148 O170 1.240 . S
C148 O171 1.264 . S
O149 Mn144 2.095 . S
O149 C158 1.250 . S
O150 Mn145 2.121 1_565 S
O150 C158 1.258 . S
C151 N152 1.326 1_455 S
C151 C155 1.460 . S
C151 H157 0.929 . S
N152 Mn145 2.257 . S
N152 C151 1.326 1_655 S
N152 C156 1.362 . S
C153 C154 1.258 . S
C153 C156 1.431 1_455 S
C153 C173 1.449 . S
C154 C153 1.258 . S
C154 C155 1.477 . S
C154 H174 0.931 . S
C155 C151 1.460 . S
C155 C154 1.477 . S
C155 H175 0.930 . S
C156 N152 1.362 . S
C156 C153 1.431 1_655 S
C156 C166 1.476 . S
H157 C151 0.929 . S
C158 O149 1.250 . S
C158 O150 1.258 . S
O159 Mn144 2.162 . S
O159 C147 1.281 . S
O160 Mn144 2.297 . S
O160 C147 1.236 . S
N161 Mn145 2.282 . S
N161 C162 1.328 . S
N161 C166 1.318 . S
C162 N161 1.328 . S
C162 C163 1.457 . S
C162 H167 0.929 1_545 S
C163 C162 1.457 . S
C163 C164 1.291 . S
C163 H176 0.931 . S
C164 C163 1.291 . S
C164 C165 1.373 . S
C164 H177 0.929 . S
C165 C164 1.373 . S
C165 C166 1.396 . S
C165 C172 1.403 . S
C166 C156 1.476 . S
C166 N161 1.318 . S
C166 C165 1.396 . S
H167 C162 0.929 1_565 S
O168 Mn144 2.385 . S
O168 C146 1.234 . S
O169 Mn144 2.209 . S
O169 Mn145 2.215 1_565 S
O169 C146 1.283 . S
O170 Mn144 2.094 . S
O170 C148 1.240 . S
O171 Mn145 2.117 1_565 S
O171 C148 1.264 . S
C172 C165 1.403 . S
C172 C173 1.399 1_655 S
C172 H178 0.929 . S
C173 C153 1.449 . S
C173 C172 1.399 1_455 S
C173 H179 0.930 . S
H174 C154 0.931 . S
H175 C155 0.930 . S
H176 C163 0.931 . S
H177 C164 0.929 . S
H178 C172 0.929 . S
H179 C173 0.930 . S
Mn180 O185 2.095 . S
Mn180 O195 2.162 . S
Mn180 O196 2.297 . S
Mn180 O204 2.385 . S
Mn180 O205 2.209 . S
Mn180 O206 2.094 . S
Mn181 O186 2.121 1_565 S
Mn181 N188 2.257 . S
Mn181 N197 2.282 . S
Mn181 O205 2.215 1_565 S
Mn181 O207 2.117 1_565 S
C182 O204 1.234 . S
C182 O205 1.283 . S
C183 O195 1.281 . S
C183 O196 1.236 . S
C184 O206 1.240 . S
C184 O207 1.264 . S
O185 Mn180 2.095 . S
O185 C194 1.250 . S
O186 Mn181 2.121 1_545 S
O186 C194 1.258 . S
C187 N188 1.326 . S
C187 C191 1.460 . S
C187 H193 0.929 . S
N188 Mn181 2.257 . S
N188 C187 1.326 . S
N188 C192 1.362 . S
C189 C190 1.258 . S
C189 C192 1.431 . S
C189 C209 1.449 . S
C190 C189 1.258 . S
C190 C191 1.477 . S
C190 H210 0.931 . S
C191 C187 1.460 . S
C191 C190 1.477 . S
C191 H211 0.930 . S
C192 N188 1.362 . S
C192 C189 1.431 . S
C192 C202 1.476 . S
H193 C187 0.929 . S
C194 O185 1.250 . S
C194 O186 1.258 . S
O195 Mn180 2.162 . S
O195 C183 1.281 . S
O196 Mn180 2.297 . S
O196 C183 1.236 . S
N197 Mn181 2.282 . S
N197 C198 1.328 . S
N197 C202 1.318 . S
C198 N197 1.328 . S
C198 C199 1.457 . S
C198 H203 0.929 1_565 S
C199 C198 1.457 . S
C199 C200 1.291 . S
C199 H212 0.931 . S
C200 C199 1.291 . S
C200 C201 1.373 . S
C200 H213 0.929 . S
C201 C200 1.373 . S
C201 C202 1.396 . S
C201 C208 1.403 . S
C202 C192 1.476 . S
C202 N197 1.318 . S
C202 C201 1.396 . S
H203 C198 0.929 1_545 S
O204 Mn180 2.385 . S
O204 C182 1.234 . S
O205 Mn180 2.209 . S
O205 Mn181 2.215 1_545 S
O205 C182 1.283 . S
O206 Mn180 2.094 . S
O206 C184 1.240 . S
O207 Mn181 2.117 1_545 S
O207 C184 1.264 . S
C208 C201 1.403 . S
C208 C209 1.399 . S
C208 H214 0.929 . S
C209 C189 1.449 . S
C209 C208 1.399 . S
C209 H215 0.930 . S
H210 C190 0.931 . S
H211 C191 0.930 . S
H212 C199 0.931 . S
H213 C200 0.929 . S
H214 C208 0.929 . S
H215 C209 0.930 . S
Mn216 O221 2.095 . S
Mn216 O231 2.162 . S
Mn216 O232 2.297 . S
Mn216 O240 2.385 . S
Mn216 O241 2.209 . S
Mn216 O242 2.094 . S
Mn217 O222 2.121 1_565 S
Mn217 N224 2.257 . S
Mn217 N233 2.282 . S
Mn217 O241 2.215 1_565 S
Mn217 O243 2.117 1_565 S
C218 O240 1.234 . S
C218 O241 1.283 . S
C219 O231 1.281 . S
C219 O232 1.236 . S
C220 O242 1.240 . S
C220 O243 1.264 . S
O221 Mn216 2.095 . S
O221 C230 1.250 . S
O222 Mn217 2.121 1_545 S
O222 C230 1.258 . S
C223 N224 1.326 . S
C223 C227 1.460 . S
C223 H229 0.929 . S
N224 Mn217 2.257 . S
N224 C223 1.326 . S
N224 C228 1.362 . S
C225 C226 1.258 . S
C225 C228 1.431 . S
C225 C245 1.449 . S
C226 C225 1.258 . S
C226 C227 1.477 . S
C226 H246 0.931 . S
C227 C223 1.460 . S
C227 C226 1.477 . S
C227 H247 0.930 . S
C228 N224 1.362 . S
C228 C225 1.431 . S
C228 C238 1.476 . S
H229 C223 0.929 . S
C230 O221 1.250 . S
C230 O222 1.258 . S
O231 Mn216 2.162 . S
O231 C219 1.281 . S
O232 Mn216 2.297 . S
O232 C219 1.236 . S
N233 Mn217 2.282 . S
N233 C234 1.328 . S
N233 C238 1.318 . S
C234 N233 1.328 . S
C234 C235 1.457 . S
C234 H239 0.929 1_565 S
C235 C234 1.457 . S
C235 C236 1.291 . S
C235 H248 0.931 . S
C236 C235 1.291 . S
C236 C237 1.373 . S
C236 H249 0.929 . S
C237 C236 1.373 . S
C237 C238 1.396 . S
C237 C244 1.403 . S
C238 C228 1.476 . S
C238 N233 1.318 . S
C238 C237 1.396 . S
H239 C234 0.929 1_545 S
O240 Mn216 2.385 . S
O240 C218 1.234 . S
O241 Mn216 2.209 . S
O241 Mn217 2.215 1_545 S
O241 C218 1.283 . S
O242 Mn216 2.094 . S
O242 C220 1.240 . S
O243 Mn217 2.117 1_545 S
O243 C220 1.264 . S
C244 C237 1.403 . S
C244 C245 1.399 . S
C244 H250 0.929 . S
C245 C225 1.449 . S
C245 C244 1.399 . S
C245 H251 0.930 . S
H246 C226 0.931 . S
H247 C227 0.930 . S
H248 C235 0.931 . S
H249 C236 0.929 . S
H250 C244 0.929 . S
H251 C245 0.930 . S
Mn252 O257 2.095 . S
Mn252 O267 2.162 . S
Mn252 O268 2.297 . S
Mn252 O276 2.385 . S
Mn252 O277 2.209 . S
Mn252 O278 2.094 . S
Mn253 O258 2.121 1_545 S
Mn253 N260 2.257 . S
Mn253 N269 2.282 . S
Mn253 O277 2.215 1_545 S
Mn253 O279 2.117 1_545 S
C254 O276 1.234 . S
C254 O277 1.283 . S
C255 O267 1.281 . S
C255 O268 1.236 . S
C256 O278 1.240 . S
C256 O279 1.264 . S
O257 Mn252 2.095 . S
O257 C266 1.250 . S
O258 Mn253 2.121 1_565 S
O258 C266 1.258 . S
C259 N260 1.326 1_655 S
C259 C263 1.460 . S
C259 H265 0.929 . S
N260 Mn253 2.257 . S
N260 C259 1.326 1_455 S
N260 C264 1.362 . S
C261 C262 1.258 . S
C261 C264 1.431 1_655 S
C261 C281 1.449 . S
C262 C261 1.258 . S
C262 C263 1.477 . S
C262 H282 0.931 . S
C263 C259 1.460 . S
C263 C262 1.477 . S
C263 H283 0.930 . S
C264 N260 1.362 . S
C264 C261 1.431 1_455 S
C264 C274 1.476 . S
H265 C259 0.929 . S
C266 O257 1.250 . S
C266 O258 1.258 . S
O267 Mn252 2.162 . S
O267 C255 1.281 . S
O268 Mn252 2.297 . S
O268 C255 1.236 . S
N269 Mn253 2.282 . S
N269 C270 1.328 . S
N269 C274 1.318 . S
C270 N269 1.328 . S
C270 C271 1.457 . S
C270 H275 0.929 1_545 S
C271 C270 1.457 . S
C271 C272 1.291 . S
C271 H284 0.931 . S
C272 C271 1.291 . S
C272 C273 1.373 . S
C272 H285 0.929 . S
C273 C272 1.373 . S
C273 C274 1.396 . S
C273 C280 1.403 . S
C274 C264 1.476 . S
C274 N269 1.318 . S
C274 C273 1.396 . S
H275 C270 0.929 1_565 S
O276 Mn252 2.385 . S
O276 C254 1.234 . S
O277 Mn252 2.209 . S
O277 Mn253 2.215 1_565 S
O277 C254 1.283 . S
O278 Mn252 2.094 . S
O278 C256 1.240 . S
O279 Mn253 2.117 1_565 S
O279 C256 1.264 . S
C280 C273 1.403 . S
C280 C281 1.399 1_455 S
C280 H286 0.929 . S
C281 C261 1.449 . S
C281 C280 1.399 1_655 S
C281 H287 0.930 . S
H282 C262 0.931 . S
H283 C263 0.930 . S
H284 C271 0.931 . S
H285 C272 0.929 . S
H286 C280 0.929 . S
H287 C281 0.930 . S
Mn288 O293 2.095 . S
Mn288 O303 2.162 . S
Mn288 O304 2.297 . S
Mn288 O312 2.385 . S
Mn288 O313 2.209 . S
Mn288 O314 2.094 . S
Mn289 O294 2.121 . S
Mn289 N296 2.257 . S
Mn289 N305 2.282 . S
Mn289 O313 2.215 . S
Mn289 O315 2.117 . S
C290 O312 1.234 . S
C290 O313 1.283 . S
C291 O303 1.281 . S
C291 O304 1.236 . S
C292 O314 1.240 . S
C292 O315 1.264 . S
O293 Mn288 2.095 . S
O293 C302 1.250 . S
O294 Mn289 2.121 . S
O294 C302 1.258 . S
C295 N296 1.326 . S
C295 C299 1.460 . S
C295 H301 0.929 . S
N296 Mn289 2.257 . S
N296 C295 1.326 . S
N296 C300 1.362 . S
C297 C298 1.258 . S
C297 C300 1.431 . S
C297 C317 1.449 . S
C298 C297 1.258 . S
C298 C299 1.477 . S
C298 H318 0.931 . S
C299 C295 1.460 . S
C299 C298 1.477 . S
C299 H319 0.930 . S
C300 N296 1.362 . S
C300 C297 1.431 . S
C300 C310 1.476 . S
H301 C295 0.929 . S
C302 O293 1.250 . S
C302 O294 1.258 . S
O303 Mn288 2.162 . S
O303 C291 1.281 . S
O304 Mn288 2.297 . S
O304 C291 1.236 . S
N305 Mn289 2.282 . S
N305 C306 1.328 . S
N305 C310 1.318 . S
C306 N305 1.328 . S
C306 C307 1.457 . S
C306 H311 0.929 . S
C307 C306 1.457 . S
C307 C308 1.291 . S
C307 H320 0.931 . S
C308 C307 1.291 . S
C308 C309 1.373 . S
C308 H321 0.929 . S
C309 C308 1.373 . S
C309 C310 1.396 . S
C309 C316 1.403 . S
C310 C300 1.476 . S
C310 N305 1.318 . S
C310 C309 1.396 . S
H311 C306 0.929 . S
O312 Mn288 2.385 . S
O312 C290 1.234 . S
O313 Mn288 2.209 . S
O313 Mn289 2.215 . S
O313 C290 1.283 . S
O314 Mn288 2.094 . S
O314 C292 1.240 . S
O315 Mn289 2.117 . S
O315 C292 1.264 . S
C316 C309 1.403 . S
C316 C317 1.399 . S
C316 H322 0.929 . S
C317 C297 1.449 . S
C317 C316 1.399 . S
C317 H323 0.930 . S
H318 C298 0.931 . S
H319 C299 0.930 . S
H320 C307 0.931 . S
H321 C308 0.929 . S
H322 C316 0.929 . S
H323 C317 0.930 . S
Mn324 O329 2.095 . S
Mn324 O339 2.162 . S
Mn324 O340 2.297 . S
Mn324 O348 2.385 . S
Mn324 O349 2.209 . S
Mn324 O350 2.094 . S
Mn325 O330 2.121 . S
Mn325 N332 2.257 . S
Mn325 N341 2.282 . S
Mn325 O349 2.215 . S
Mn325 O351 2.117 . S
C326 O348 1.234 . S
C326 O349 1.283 . S
C327 O339 1.281 . S
C327 O340 1.236 . S
C328 O350 1.240 . S
C328 O351 1.264 . S
O329 Mn324 2.095 . S
O329 C338 1.250 . S
O330 Mn325 2.121 . S
O330 C338 1.258 . S
C331 N332 1.326 1_455 S
C331 C335 1.460 . S
C331 H337 0.929 . S
N332 Mn325 2.257 . S
N332 C331 1.326 1_655 S
N332 C336 1.362 . S
C333 C334 1.258 . S
C333 C336 1.431 1_455 S
C333 C353 1.449 . S
C334 C333 1.258 . S
C334 C335 1.477 . S
C334 H354 0.931 . S
C335 C331 1.460 . S
C335 C334 1.477 . S
C335 H355 0.930 . S
C336 N332 1.362 . S
C336 C333 1.431 1_655 S
C336 C346 1.476 . S
H337 C331 0.929 . S
C338 O329 1.250 . S
C338 O330 1.258 . S
O339 Mn324 2.162 . S
O339 C327 1.281 . S
O340 Mn324 2.297 . S
O340 C327 1.236 . S
N341 Mn325 2.282 . S
N341 C342 1.328 . S
N341 C346 1.318 . S
C342 N341 1.328 . S
C342 C343 1.457 . S
C342 H347 0.929 . S
C343 C342 1.457 . S
C343 C344 1.291 . S
C343 H356 0.931 . S
C344 C343 1.291 . S
C344 C345 1.373 . S
C344 H357 0.929 . S
C345 C344 1.373 . S
C345 C346 1.396 . S
C345 C352 1.403 . S
C346 C336 1.476 . S
C346 N341 1.318 . S
C346 C345 1.396 . S
H347 C342 0.929 . S
O348 Mn324 2.385 . S
O348 C326 1.234 . S
O349 Mn324 2.209 . S
O349 Mn325 2.215 . S
O349 C326 1.283 . S
O350 Mn324 2.094 . S
O350 C328 1.240 . S
O351 Mn325 2.117 . S
O351 C328 1.264 . S
C352 C345 1.403 . S
C352 C353 1.399 1_655 S
C352 H358 0.929 . S
C353 C333 1.449 . S
C353 C352 1.399 1_455 S
C353 H359 0.930 . S
H354 C334 0.931 . S
H355 C335 0.930 . S
H356 C343 0.931 . S
H357 C344 0.929 . S
H358 C352 0.929 . S
H359 C353 0.930 . S
Mn360 O365 2.095 . S
Mn360 O375 2.162 . S
Mn360 O376 2.297 . S
Mn360 O384 2.385 . S
Mn360 O385 2.209 . S
Mn360 O386 2.094 . S
Mn361 O366 2.121 . S
Mn361 N368 2.257 . S
Mn361 N377 2.282 . S
Mn361 O385 2.215 . S
Mn361 O387 2.117 . S
C362 O384 1.234 . S
C362 O385 1.283 . S
C363 O375 1.281 . S
C363 O376 1.236 . S
C364 O386 1.240 . S
C364 O387 1.264 . S
O365 Mn360 2.095 . S
O365 C374 1.250 . S
O366 Mn361 2.121 . S
O366 C374 1.258 . S
C367 N368 1.326 1_655 S
C367 C371 1.460 . S
C367 H373 0.929 . S
N368 Mn361 2.257 . S
N368 C367 1.326 1_455 S
N368 C372 1.362 . S
C369 C370 1.258 . S
C369 C372 1.431 1_655 S
C369 C389 1.449 . S
C370 C369 1.258 . S
C370 C371 1.477 . S
C370 H390 0.931 . S
C371 C367 1.460 . S
C371 C370 1.477 . S
C371 H391 0.930 . S
C372 N368 1.362 . S
C372 C369 1.431 1_455 S
C372 C382 1.476 . S
H373 C367 0.929 . S
C374 O365 1.250 . S
C374 O366 1.258 . S
O375 Mn360 2.162 . S
O375 C363 1.281 . S
O376 Mn360 2.297 . S
O376 C363 1.236 . S
N377 Mn361 2.282 . S
N377 C378 1.328 . S
N377 C382 1.318 . S
C378 N377 1.328 . S
C378 C379 1.457 . S
C378 H383 0.929 . S
C379 C378 1.457 . S
C379 C380 1.291 . S
C379 H392 0.931 . S
C380 C379 1.291 . S
C380 C381 1.373 . S
C380 H393 0.929 . S
C381 C380 1.373 . S
C381 C382 1.396 . S
C381 C388 1.403 . S
C382 C372 1.476 . S
C382 N377 1.318 . S
C382 C381 1.396 . S
H383 C378 0.929 . S
O384 Mn360 2.385 . S
O384 C362 1.234 . S
O385 Mn360 2.209 . S
O385 Mn361 2.215 . S
O385 C362 1.283 . S
O386 Mn360 2.094 . S
O386 C364 1.240 . S
O387 Mn361 2.117 . S
O387 C364 1.264 . S
C388 C381 1.403 . S
C388 C389 1.399 1_455 S
C388 H394 0.929 . S
C389 C369 1.449 . S
C389 C388 1.399 1_655 S
C389 H395 0.930 . S
H390 C370 0.931 . S
H391 C371 0.930 . S
H392 C379 0.931 . S
H393 C380 0.929 . S
H394 C388 0.929 . S
H395 C389 0.930 . S
Mn396 O401 2.095 . S
Mn396 O411 2.162 . S
Mn396 O412 2.297 . S
Mn396 O420 2.385 . S
Mn396 O421 2.209 . S
Mn396 O422 2.094 . S
Mn397 O402 2.121 . S
Mn397 N404 2.257 . S
Mn397 N413 2.282 . S
Mn397 O421 2.215 . S
Mn397 O423 2.117 . S
C398 O420 1.234 . S
C398 O421 1.283 . S
C399 O411 1.281 . S
C399 O412 1.236 . S
C400 O422 1.240 . S
C400 O423 1.264 . S
O401 Mn396 2.095 . S
O401 C410 1.250 . S
O402 Mn397 2.121 . S
O402 C410 1.258 . S
C403 N404 1.326 . S
C403 C407 1.460 . S
C403 H409 0.929 . S
N404 Mn397 2.257 . S
N404 C403 1.326 . S
N404 C408 1.362 . S
C405 C406 1.258 . S
C405 C408 1.431 . S
C405 C425 1.449 . S
C406 C405 1.258 . S
C406 C407 1.477 . S
C406 H426 0.931 . S
C407 C403 1.460 . S
C407 C406 1.477 . S
C407 H427 0.930 . S
C408 N404 1.362 . S
C408 C405 1.431 . S
C408 C418 1.476 . S
H409 C403 0.929 . S
C410 O401 1.250 . S
C410 O402 1.258 . S
O411 Mn396 2.162 . S
O411 C399 1.281 . S
O412 Mn396 2.297 . S
O412 C399 1.236 . S
N413 Mn397 2.282 . S
N413 C414 1.328 . S
N413 C418 1.318 . S
C414 N413 1.328 . S
C414 C415 1.457 . S
C414 H419 0.929 . S
C415 C414 1.457 . S
C415 C416 1.291 . S
C415 H428 0.931 . S
C416 C415 1.291 . S
C416 C417 1.373 . S
C416 H429 0.929 . S
C417 C416 1.373 . S
C417 C418 1.396 . S
C417 C424 1.403 . S
C418 C408 1.476 . S
C418 N413 1.318 . S
C418 C417 1.396 . S
H419 C414 0.929 . S
O420 Mn396 2.385 . S
O420 C398 1.234 . S
O421 Mn396 2.209 . S
O421 Mn397 2.215 . S
O421 C398 1.283 . S
O422 Mn396 2.094 . S
O422 C400 1.240 . S
O423 Mn397 2.117 . S
O423 C400 1.264 . S
C424 C417 1.403 . S
C424 C425 1.399 . S
C424 H430 0.929 . S
C425 C405 1.449 . S
C425 C424 1.399 . S
C425 H431 0.930 . S
H426 C406 0.931 . S
H427 C407 0.930 . S
H428 C415 0.931 . S
H429 C416 0.929 . S
H430 C424 0.929 . S
H431 C425 0.930 . S
Mn432 O437 2.095 . S
Mn432 O447 2.162 . S
Mn432 O448 2.297 . S
Mn432 O456 2.385 . S
Mn432 O457 2.209 . S
Mn432 O458 2.094 . S
Mn433 O438 2.121 . S
Mn433 N440 2.257 . S
Mn433 N449 2.282 . S
Mn433 O457 2.215 . S
Mn433 O459 2.117 . S
C434 O456 1.234 . S
C434 O457 1.283 . S
C435 O447 1.281 . S
C435 O448 1.236 . S
C436 O458 1.240 . S
C436 O459 1.264 . S
O437 Mn432 2.095 . S
O437 C446 1.250 . S
O438 Mn433 2.121 . S
O438 C446 1.258 . S
C439 N440 1.326 . S
C439 C443 1.460 . S
C439 H445 0.929 . S
N440 Mn433 2.257 . S
N440 C439 1.326 . S
N440 C444 1.362 . S
C441 C442 1.258 . S
C441 C444 1.431 . S
C441 C461 1.449 . S
C442 C441 1.258 . S
C442 C443 1.477 . S
C442 H462 0.931 . S
C443 C439 1.460 . S
C443 C442 1.477 . S
C443 H463 0.930 . S
C444 N440 1.362 . S
C444 C441 1.431 . S
C444 C454 1.476 . S
H445 C439 0.929 . S
C446 O437 1.250 . S
C446 O438 1.258 . S
O447 Mn432 2.162 . S
O447 C435 1.281 . S
O448 Mn432 2.297 . S
O448 C435 1.236 . S
N449 Mn433 2.282 . S
N449 C450 1.328 . S
N449 C454 1.318 . S
C450 N449 1.328 . S
C450 C451 1.457 . S
C450 H455 0.929 . S
C451 C450 1.457 . S
C451 C452 1.291 . S
C451 H464 0.931 . S
C452 C451 1.291 . S
C452 C453 1.373 . S
C452 H465 0.929 . S
C453 C452 1.373 . S
C453 C454 1.396 . S
C453 C460 1.403 . S
C454 C444 1.476 . S
C454 N449 1.318 . S
C454 C453 1.396 . S
H455 C450 0.929 . S
O456 Mn432 2.385 . S
O456 C434 1.234 . S
O457 Mn432 2.209 . S
O457 Mn433 2.215 . S
O457 C434 1.283 . S
O458 Mn432 2.094 . S
O458 C436 1.240 . S
O459 Mn433 2.117 . S
O459 C436 1.264 . S
C460 C453 1.403 . S
C460 C461 1.399 . S
C460 H466 0.929 . S
C461 C441 1.449 . S
C461 C460 1.399 . S
C461 H467 0.930 . S
H462 C442 0.931 . S
H463 C443 0.930 . S
H464 C451 0.931 . S
H465 C452 0.929 . S
H466 C460 0.929 . S
H467 C461 0.930 . S
Mn468 O473 2.095 . S
Mn468 O483 2.162 . S
Mn468 O484 2.297 . S
Mn468 O492 2.385 . S
Mn468 O493 2.209 . S
Mn468 O494 2.094 . S
Mn469 O474 2.121 . S
Mn469 N476 2.257 . S
Mn469 N485 2.282 . S
Mn469 O493 2.215 . S
Mn469 O495 2.117 . S
C470 O492 1.234 . S
C470 O493 1.283 . S
C471 O483 1.281 . S
C471 O484 1.236 . S
C472 O494 1.240 . S
C472 O495 1.264 . S
O473 Mn468 2.095 . S
O473 C482 1.250 . S
O474 Mn469 2.121 . S
O474 C482 1.258 . S
C475 N476 1.326 1_655 S
C475 C479 1.460 . S
C475 H481 0.929 . S
N476 Mn469 2.257 . S
N476 C475 1.326 1_455 S
N476 C480 1.362 . S
C477 C478 1.258 . S
C477 C480 1.431 1_655 S
C477 C497 1.449 . S
C478 C477 1.258 . S
C478 C479 1.477 . S
C478 H498 0.931 . S
C479 C475 1.460 . S
C479 C478 1.477 . S
C479 H499 0.930 . S
C480 N476 1.362 . S
C480 C477 1.431 1_455 S
C480 C490 1.476 . S
H481 C475 0.929 . S
C482 O473 1.250 . S
C482 O474 1.258 . S
O483 Mn468 2.162 . S
O483 C471 1.281 . S
O484 Mn468 2.297 . S
O484 C471 1.236 . S
N485 Mn469 2.282 . S
N485 C486 1.328 . S
N485 C490 1.318 . S
C486 N485 1.328 . S
C486 C487 1.457 . S
C486 H491 0.929 . S
C487 C486 1.457 . S
C487 C488 1.291 . S
C487 H500 0.931 . S
C488 C487 1.291 . S
C488 C489 1.373 . S
C488 H501 0.929 . S
C489 C488 1.373 . S
C489 C490 1.396 . S
C489 C496 1.403 . S
C490 C480 1.476 . S
C490 N485 1.318 . S
C490 C489 1.396 . S
H491 C486 0.929 . S
O492 Mn468 2.385 . S
O492 C470 1.234 . S
O493 Mn468 2.209 . S
O493 Mn469 2.215 . S
O493 C470 1.283 . S
O494 Mn468 2.094 . S
O494 C472 1.240 . S
O495 Mn469 2.117 . S
O495 C472 1.264 . S
C496 C489 1.403 . S
C496 C497 1.399 1_455 S
C496 H502 0.929 . S
C497 C477 1.449 . S
C497 C496 1.399 1_655 S
C497 H503 0.930 . S
H498 C478 0.931 . S
H499 C479 0.930 . S
H500 C487 0.931 . S
H501 C488 0.929 . S
H502 C496 0.929 . S
H503 C497 0.930 . S
Mn504 O509 2.095 . S
Mn504 O519 2.162 . S
Mn504 O520 2.297 . S
Mn504 O528 2.385 . S
Mn504 O529 2.209 . S
Mn504 O530 2.094 . S
Mn505 O510 2.121 . S
Mn505 N512 2.257 . S
Mn505 N521 2.282 . S
Mn505 O529 2.215 . S
Mn505 O531 2.117 . S
C506 O528 1.234 . S
C506 O529 1.283 . S
C507 O519 1.281 . S
C507 O520 1.236 . S
C508 O530 1.240 . S
C508 O531 1.264 . S
O509 Mn504 2.095 . S
O509 C518 1.250 . S
O510 Mn505 2.121 . S
O510 C518 1.258 . S
C511 N512 1.326 1_455 S
C511 C515 1.460 . S
C511 H517 0.929 . S
N512 Mn505 2.257 . S
N512 C511 1.326 1_655 S
N512 C516 1.362 . S
C513 C514 1.258 . S
C513 C516 1.431 1_455 S
C513 C533 1.449 . S
C514 C513 1.258 . S
C514 C515 1.477 . S
C514 H534 0.931 . S
C515 C511 1.460 . S
C515 C514 1.477 . S
C515 H535 0.930 . S
C516 N512 1.362 . S
C516 C513 1.431 1_655 S
C516 C526 1.476 . S
H517 C511 0.929 . S
C518 O509 1.250 . S
C518 O510 1.258 . S
O519 Mn504 2.162 . S
O519 C507 1.281 . S
O520 Mn504 2.297 . S
O520 C507 1.236 . S
N521 Mn505 2.282 . S
N521 C522 1.328 . S
N521 C526 1.318 . S
C522 N521 1.328 . S
C522 C523 1.457 . S
C522 H527 0.929 . S
C523 C522 1.457 . S
C523 C524 1.291 . S
C523 H536 0.931 . S
C524 C523 1.291 . S
C524 C525 1.373 . S
C524 H537 0.929 . S
C525 C524 1.373 . S
C525 C526 1.396 . S
C525 C532 1.403 . S
C526 C516 1.476 . S
C526 N521 1.318 . S
C526 C525 1.396 . S
H527 C522 0.929 . S
O528 Mn504 2.385 . S
O528 C506 1.234 . S
O529 Mn504 2.209 . S
O529 Mn505 2.215 . S
O529 C506 1.283 . S
O530 Mn504 2.094 . S
O530 C508 1.240 . S
O531 Mn505 2.117 . S
O531 C508 1.264 . S
C532 C525 1.403 . S
C532 C533 1.399 1_655 S
C532 H538 0.929 . S
C533 C513 1.449 . S
C533 C532 1.399 1_455 S
C533 H539 0.930 . S
H534 C514 0.931 . S
H535 C515 0.930 . S
H536 C523 0.931 . S
H537 C524 0.929 . S
H538 C532 0.929 . S
H539 C533 0.930 . S
Mn540 O545 2.095 . S
Mn540 O555 2.162 . S
Mn540 O556 2.297 . S
Mn540 O564 2.385 . S
Mn540 O565 2.209 . S
Mn540 O566 2.094 . S
Mn541 O546 2.121 . S
Mn541 N548 2.257 . S
Mn541 N557 2.282 . S
Mn541 O565 2.215 . S
Mn541 O567 2.117 . S
C542 O564 1.234 . S
C542 O565 1.283 . S
C543 O555 1.281 . S
C543 O556 1.236 . S
C544 O566 1.240 . S
C544 O567 1.264 . S
O545 Mn540 2.095 . S
O545 C554 1.250 . S
O546 Mn541 2.121 . S
O546 C554 1.258 . S
C547 N548 1.326 . S
C547 C551 1.460 . S
C547 H553 0.929 . S
N548 Mn541 2.257 . S
N548 C547 1.326 . S
N548 C552 1.362 . S
C549 C550 1.258 . S
C549 C552 1.431 . S
C549 C569 1.449 . S
C550 C549 1.258 . S
C550 C551 1.477 . S
C550 H570 0.931 . S
C551 C547 1.460 . S
C551 C550 1.477 . S
C551 H571 0.930 . S
C552 N548 1.362 . S
C552 C549 1.431 . S
C552 C562 1.476 . S
H553 C547 0.929 . S
C554 O545 1.250 . S
C554 O546 1.258 . S
O555 Mn540 2.162 . S
O555 C543 1.281 . S
O556 Mn540 2.297 . S
O556 C543 1.236 . S
N557 Mn541 2.282 . S
N557 C558 1.328 . S
N557 C562 1.318 . S
C558 N557 1.328 . S
C558 C559 1.457 . S
C558 H563 0.929 . S
C559 C558 1.457 . S
C559 C560 1.291 . S
C559 H572 0.931 . S
C560 C559 1.291 . S
C560 C561 1.373 . S
C560 H573 0.929 . S
C561 C560 1.373 . S
C561 C562 1.396 . S
C561 C568 1.403 . S
C562 C552 1.476 . S
C562 N557 1.318 . S
C562 C561 1.396 . S
H563 C558 0.929 . S
O564 Mn540 2.385 . S
O564 C542 1.234 . S
O565 Mn540 2.209 . S
O565 Mn541 2.215 . S
O565 C542 1.283 . S
O566 Mn540 2.094 . S
O566 C544 1.240 . S
O567 Mn541 2.117 . S
O567 C544 1.264 . S
C568 C561 1.403 . S
C568 C569 1.399 . S
C568 H574 0.929 . S
C569 C549 1.449 . S
C569 C568 1.399 . S
C569 H575 0.930 . S
H570 C550 0.931 . S
H571 C551 0.930 . S
H572 C559 0.931 . S
H573 C560 0.929 . S
H574 C568 0.929 . S
H575 C569 0.930 . S
C576 C577 1.391 . S
C576 C578 1.394 . S
C576 H592 0.931 . S
C577 C576 1.391 . S
C577 C581 1.376 1_565 S
C578 C576 1.394 . S
C578 C579 1.369 . S
C578 C582 1.531 . S
C579 C578 1.369 . S
C579 C580 1.410 1_565 S
C579 C587 1.503 1_565 S
C580 C579 1.410 1_545 S
C580 C581 1.392 . S
C580 C583 1.511 . S
C581 C577 1.376 1_545 S
C581 C580 1.392 . S
C581 H593 0.929 . S
C582 C578 1.531 . S
C582 H594 0.960 . S
C582 H595 0.962 . S
C582 H596 0.960 . S
C583 C580 1.511 . S
C583 H597 0.961 . S
C583 H598 0.961 . S
C583 H599 0.961 . S
C584 C585 1.370 . S
C584 C586 1.368 . S
C584 H600 0.931 . S
C585 C584 1.370 . S
C585 C589 1.408 . S
C586 C584 1.368 . S
C586 C587 1.374 . S
C586 C590 1.515 1_545 S
C587 C579 1.503 1_545 S
C587 C586 1.374 . S
C587 C588 1.403 . S
C588 C587 1.403 . S
C588 C589 1.404 . S
C588 C591 1.539 . S
C589 C585 1.408 . S
C589 C588 1.404 . S
C589 H601 0.930 . S
C590 C586 1.515 1_565 S
C590 H602 0.956 . S
C590 H603 0.961 . S
C590 H604 0.961 . S
C591 C588 1.539 . S
C591 H605 0.958 . S
C591 H606 0.961 . S
C591 H607 0.960 . S
H592 C576 0.931 . S
H593 C581 0.929 . S
H594 C582 0.960 . S
H595 C582 0.962 . S
H596 C582 0.960 . S
H597 C583 0.961 . S
H598 C583 0.961 . S
H599 C583 0.961 . S
H600 C584 0.931 . S
H601 C589 0.930 . S
H602 C590 0.956 . S
H603 C590 0.961 . S
H604 C590 0.961 . S
H605 C591 0.958 . S
H606 C591 0.961 . S
H607 C591 0.960 . S
C608 C609 1.391 . S
C608 C610 1.394 . S
C608 H624 0.931 . S
C609 C608 1.391 . S
C609 C613 1.375 . S
C610 C608 1.394 . S
C610 C611 1.369 . S
C610 C614 1.531 . S
C611 C610 1.369 . S
C611 C612 1.410 1_565 S
C611 C619 1.503 1_565 S
C612 C611 1.410 1_545 S
C612 C613 1.393 1_545 S
C612 C615 1.511 . S
C613 C609 1.375 . S
C613 C612 1.393 1_565 S
C613 H625 0.930 1_565 S
C614 C610 1.531 . S
C614 H626 0.960 . S
C614 H627 0.962 . S
C614 H628 0.960 . S
C615 C612 1.511 . S
C615 H629 0.961 . S
C615 H630 0.961 . S
C615 H631 0.961 . S
C616 C617 1.370 . S
C616 C618 1.363 1_545 S
C616 H632 0.931 1_545 S
C617 C616 1.370 . S
C617 C621 1.408 . S
C618 C616 1.363 1_565 S
C618 C619 1.370 1_565 S
C618 C622 1.524 . S
C619 C611 1.503 1_545 S
C619 C618 1.370 1_545 S
C619 C620 1.403 . S
C620 C619 1.403 . S
C620 C621 1.404 . S
C620 C623 1.539 . S
C621 C617 1.408 . S
C621 C620 1.404 . S
C621 H633 0.930 . S
C622 C618 1.524 . S
C622 H634 0.956 . S
C622 H635 0.961 . S
C622 H636 0.961 . S
C623 C620 1.539 . S
C623 H637 0.958 . S
C623 H638 0.961 . S
C623 H639 0.960 . S
H624 C608 0.931 . S
H625 C613 0.930 1_545 S
H626 C614 0.960 . S
H627 C614 0.962 . S
H628 C614 0.960 . S
H629 C615 0.961 . S
H630 C615 0.961 . S
H631 C615 0.961 . S
H632 C616 0.931 1_565 S
H633 C621 0.930 . S
H634 C622 0.956 . S
H635 C622 0.961 . S
H636 C622 0.961 . S
H637 C623 0.958 . S
H638 C623 0.961 . S
H639 C623 0.960 . S
C640 C641 1.391 . S
C640 C642 1.394 1_565 S
C640 H656 0.931 1_565 S
C641 C640 1.391 . S
C641 C645 1.376 . S
C642 C640 1.394 1_545 S
C642 C643 1.369 1_545 S
C642 C646 1.531 . S
C643 C642 1.369 1_565 S
C643 C644 1.410 . S
C643 C651 1.503 1_565 S
C644 C643 1.410 . S
C644 C645 1.392 . S
C644 C647 1.511 . S
C645 C641 1.376 . S
C645 C644 1.392 . S
C645 H657 0.929 . S
C646 C642 1.531 . S
C646 H658 0.960 . S
C646 H659 0.962 . S
C646 H660 0.960 . S
C647 C644 1.511 . S
C647 H661 0.961 . S
C647 H662 0.961 . S
C647 H663 0.961 . S
C648 C649 1.370 . S
C648 C650 1.363 . S
C648 H664 0.931 . S
C649 C648 1.370 . S
C649 C653 1.408 . S
C650 C648 1.363 . S
C650 C651 1.370 . S
C650 C654 1.524 . S
C651 C643 1.503 1_545 S
C651 C650 1.370 . S
C651 C652 1.403 1_545 S
C652 C651 1.403 1_565 S
C652 C653 1.404 1_565 S
C652 C655 1.539 . S
C653 C649 1.408 . S
C653 C652 1.404 1_545 S
C653 H665 0.930 1_545 S
C654 C650 1.524 . S
C654 H666 0.956 . S
C654 H667 0.961 . S
C654 H668 0.961 . S
C655 C652 1.539 . S
C655 H669 0.958 . S
C655 H670 0.961 . S
C655 H671 0.960 . S
H656 C640 0.931 1_545 S
H657 C645 0.929 . S
H658 C646 0.960 . S
H659 C646 0.962 . S
H660 C646 0.960 . S
H661 C647 0.961 . S
H662 C647 0.961 . S
H663 C647 0.961 . S
H664 C648 0.931 . S
H665 C653 0.930 1_565 S
H666 C654 0.956 . S
H667 C654 0.961 . S
H668 C654 0.961 . S
H669 C655 0.958 . S
H670 C655 0.961 . S
H671 C655 0.960 . S
C672 C673 1.391 . S
C672 C674 1.394 . S
C672 H688 0.931 . S
C673 C672 1.391 . S
C673 C677 1.376 . S
C674 C672 1.394 . S
C674 C675 1.369 . S
C674 C678 1.531 . S
C675 C674 1.369 . S
C675 C676 1.410 . S
C675 C683 1.503 1_565 S
C676 C675 1.410 . S
C676 C677 1.392 . S
C676 C679 1.511 1_565 S
C677 C673 1.376 . S
C677 C676 1.392 . S
C677 H689 0.929 . S
C678 C674 1.531 . S
C678 H690 0.960 . S
C678 H691 0.962 . S
C678 H692 0.960 . S
C679 C676 1.511 1_545 S
C679 H693 0.961 . S
C679 H694 0.961 . S
C679 H695 0.961 1_545 S
C680 C681 1.370 . S
C680 C682 1.363 . S
C680 H696 0.931 . S
C681 C680 1.370 . S
C681 C685 1.408 1_545 S
C682 C680 1.363 . S
C682 C683 1.370 . S
C682 C686 1.524 . S
C683 C675 1.503 1_545 S
C683 C682 1.370 . S
C683 C684 1.403 1_545 S
C684 C683 1.403 1_565 S
C684 C685 1.404 . S
C684 C687 1.539 . S
C685 C681 1.408 1_565 S
C685 C684 1.404 . S
C685 H697 0.930 . S
C686 C682 1.524 . S
C686 H698 0.956 . S
C686 H699 0.961 . S
C686 H700 0.961 . S
C687 C684 1.539 . S
C687 H701 0.958 . S
C687 H702 0.961 . S
C687 H703 0.960 . S
H688 C672 0.931 . S
H689 C677 0.929 . S
H690 C678 0.960 . S
H691 C678 0.962 . S
H692 C678 0.960 . S
H693 C679 0.961 . S
H694 C679 0.961 . S
H695 C679 0.961 1_565 S
H696 C680 0.931 . S
H697 C685 0.930 . S
H698 C686 0.956 . S
H699 C686 0.961 . S
H700 C686 0.961 . S
H701 C687 0.958 . S
H702 C687 0.961 . S
H703 C687 0.960 . S
C704 C705 1.391 . S
C704 C706 1.394 . S
C704 H720 0.931 . S
C705 C704 1.391 . S
C705 C709 1.376 . S
C706 C704 1.394 . S
C706 C707 1.369 . S
C706 C710 1.531 . S
C707 C706 1.369 . S
C707 C708 1.410 . S
C707 C715 1.503 . S
C708 C707 1.410 . S
C708 C709 1.392 . S
C708 C711 1.511 . S
C709 C705 1.376 . S
C709 C708 1.392 . S
C709 H721 0.929 . S
C710 C706 1.531 . S
C710 H722 0.960 . S
C710 H723 0.962 . S
C710 H724 0.960 . S
C711 C708 1.511 . S
C711 H725 0.961 . S
C711 H726 0.961 . S
C711 H727 0.961 . S
C712 C713 1.370 . S
C712 C714 1.363 . S
C712 H728 0.931 . S
C713 C712 1.370 . S
C713 C717 1.408 . S
C714 C712 1.363 . S
C714 C715 1.370 . S
C714 C718 1.524 . S
C715 C707 1.503 . S
C715 C714 1.370 . S
C715 C716 1.403 . S
C716 C715 1.403 . S
C716 C717 1.404 . S
C716 C719 1.539 . S
C717 C713 1.408 . S
C717 C716 1.404 . S
C717 H729 0.930 . S
C718 C714 1.524 . S
C718 H730 0.956 . S
C718 H731 0.961 . S
C718 H732 0.961 . S
C719 C716 1.539 . S
C719 H733 0.958 . S
C719 H734 0.961 . S
C719 H735 0.960 . S
H720 C704 0.931 . S
H721 C709 0.929 . S
H722 C710 0.960 . S
H723 C710 0.962 . S
H724 C710 0.960 . S
H725 C711 0.961 . S
H726 C711 0.961 . S
H727 C711 0.961 . S
H728 C712 0.931 . S
H729 C717 0.930 . S
H730 C718 0.956 . S
H731 C718 0.961 . S
H732 C718 0.961 . S
H733 C719 0.958 . S
H734 C719 0.961 . S
H735 C719 0.960 . S
C736 C737 1.391 . S
C736 C738 1.394 . S
C736 H752 0.931 . S
C737 C736 1.391 . S
C737 C741 1.376 . S
C738 C736 1.394 . S
C738 C739 1.369 . S
C738 C742 1.531 . S
C739 C738 1.369 . S
C739 C740 1.410 . S
C739 C747 1.503 . S
C740 C739 1.410 . S
C740 C741 1.392 . S
C740 C743 1.511 . S
C741 C737 1.376 . S
C741 C740 1.392 . S
C741 H753 0.929 . S
C742 C738 1.531 . S
C742 H754 0.960 . S
C742 H755 0.962 . S
C742 H756 0.960 . S
C743 C740 1.511 . S
C743 H757 0.961 . S
C743 H758 0.961 . S
C743 H759 0.961 . S
C744 C745 1.370 . S
C744 C746 1.363 . S
C744 H760 0.931 . S
C745 C744 1.370 . S
C745 C749 1.408 . S
C746 C744 1.363 . S
C746 C747 1.370 . S
C746 C750 1.524 . S
C747 C739 1.503 . S
C747 C746 1.370 . S
C747 C748 1.403 . S
C748 C747 1.403 . S
C748 C749 1.404 . S
C748 C751 1.539 . S
C749 C745 1.408 . S
C749 C748 1.404 . S
C749 H761 0.930 . S
C750 C746 1.524 . S
C750 H762 0.956 . S
C750 H763 0.961 . S
C750 H764 0.961 . S
C751 C748 1.539 . S
C751 H765 0.958 . S
C751 H766 0.961 . S
C751 H767 0.960 . S
H752 C736 0.931 . S
H753 C741 0.929 . S
H754 C742 0.960 . S
H755 C742 0.962 . S
H756 C742 0.960 . S
H757 C743 0.961 . S
H758 C743 0.961 . S
H759 C743 0.961 . S
H760 C744 0.931 . S
H761 C749 0.930 . S
H762 C750 0.956 . S
H763 C750 0.961 . S
H764 C750 0.961 . S
H765 C751 0.958 . S
H766 C751 0.961 . S
H767 C751 0.960 . S
C768 C769 1.391 . S
C768 C770 1.394 . S
C768 H784 0.931 . S
C769 C768 1.391 . S
C769 C773 1.376 . S
C770 C768 1.394 . S
C770 C771 1.369 . S
C770 C774 1.531 . S
C771 C770 1.369 . S
C771 C772 1.410 . S
C771 C779 1.503 . S
C772 C771 1.410 . S
C772 C773 1.392 . S
C772 C775 1.511 . S
C773 C769 1.376 . S
C773 C772 1.392 . S
C773 H785 0.929 . S
C774 C770 1.531 . S
C774 H786 0.960 . S
C774 H787 0.962 . S
C774 H788 0.960 . S
C775 C772 1.511 . S
C775 H789 0.961 . S
C775 H790 0.961 . S
C775 H791 0.961 . S
C776 C777 1.370 . S
C776 C778 1.363 . S
C776 H792 0.931 . S
C777 C776 1.370 . S
C777 C781 1.408 . S
C778 C776 1.363 . S
C778 C779 1.370 . S
C778 C782 1.524 . S
C779 C771 1.503 . S
C779 C778 1.370 . S
C779 C780 1.403 . S
C780 C779 1.403 . S
C780 C781 1.404 . S
C780 C783 1.539 . S
C781 C777 1.408 . S
C781 C780 1.404 . S
C781 H793 0.930 . S
C782 C778 1.524 . S
C782 H794 0.956 . S
C782 H795 0.961 . S
C782 H796 0.961 . S
C783 C780 1.539 . S
C783 H797 0.958 . S
C783 H798 0.961 . S
C783 H799 0.960 . S
H784 C768 0.931 . S
H785 C773 0.929 . S
H786 C774 0.960 . S
H787 C774 0.962 . S
H788 C774 0.960 . S
H789 C775 0.961 . S
H790 C775 0.961 . S
H791 C775 0.961 . S
H792 C776 0.931 . S
H793 C781 0.930 . S
H794 C782 0.956 . S
H795 C782 0.961 . S
H796 C782 0.961 . S
H797 C783 0.958 . S
H798 C783 0.961 . S
H799 C783 0.960 . S
C800 C801 1.391 . S
C800 C802 1.394 . S
C800 H816 0.931 . S
C801 C800 1.391 . S
C801 C805 1.376 . S
C802 C800 1.394 . S
C802 C803 1.369 . S
C802 C806 1.531 . S
C803 C802 1.369 . S
C803 C804 1.410 . S
C803 C811 1.503 . S
C804 C803 1.410 . S
C804 C805 1.392 . S
C804 C807 1.511 . S
C805 C801 1.376 . S
C805 C804 1.392 . S
C805 H817 0.929 . S
C806 C802 1.531 . S
C806 H818 0.960 . S
C806 H819 0.962 . S
C806 H820 0.960 . S
C807 C804 1.511 . S
C807 H821 0.961 . S
C807 H822 0.961 . S
C807 H823 0.961 . S
C808 C809 1.370 . S
C808 C810 1.363 . S
C808 H824 0.931 . S
C809 C808 1.370 . S
C809 C813 1.408 . S
C810 C808 1.363 . S
C810 C811 1.370 . S
C810 C814 1.524 . S
C811 C803 1.503 . S
C811 C810 1.370 . S
C811 C812 1.403 . S
C812 C811 1.403 . S
C812 C813 1.404 . S
C812 C815 1.539 . S
C813 C809 1.408 . S
C813 C812 1.404 . S
C813 H825 0.930 . S
C814 C810 1.524 . S
C814 H826 0.956 . S
C814 H827 0.961 . S
C814 H828 0.961 . S
C815 C812 1.539 . S
C815 H829 0.958 . S
C815 H830 0.961 . S
C815 H831 0.960 . S
H816 C800 0.931 . S
H817 C805 0.929 . S
H818 C806 0.960 . S
H819 C806 0.962 . S
H820 C806 0.960 . S
H821 C807 0.961 . S
H822 C807 0.961 . S
H823 C807 0.961 . S
H824 C808 0.931 . S
H825 C813 0.930 . S
H826 C814 0.956 . S
H827 C814 0.961 . S
H828 C814 0.961 . S
H829 C815 0.958 . S
H830 C815 0.961 . S
H831 C815 0.960 . S
C832 C833 1.391 . S
C832 C834 1.394 . S
C832 H848 0.931 . S
C833 C832 1.391 . S
C833 C837 1.376 1_655 S
C834 C832 1.394 . S
C834 C835 1.369 . S
C834 C838 1.531 . S
C835 C834 1.369 . S
C835 C836 1.410 1_655 S
C835 C843 1.503 1_655 S
C836 C835 1.410 1_455 S
C836 C837 1.392 . S
C836 C839 1.511 . S
C837 C833 1.376 1_455 S
C837 C836 1.392 . S
C837 H849 0.929 . S
C838 C834 1.531 . S
C838 H850 0.960 . S
C838 H851 0.962 . S
C838 H852 0.960 . S
C839 C836 1.511 . S
C839 H853 0.961 . S
C839 H854 0.961 . S
C839 H855 0.961 . S
C840 C841 1.370 . S
C840 C842 1.360 1_455 S
C840 H856 0.931 . S
C841 C840 1.370 . S
C841 C845 1.408 . S
C842 C840 1.360 1_655 S
C842 C843 1.368 1_655 S
C842 C846 1.530 . S
C843 C835 1.503 1_455 S
C843 C842 1.368 1_455 S
C843 C844 1.403 . S
C844 C843 1.403 . S
C844 C845 1.404 . S
C844 C847 1.539 . S
C845 C841 1.408 . S
C845 C844 1.404 . S
C845 H857 0.930 . S
C846 C842 1.530 . S
C846 H858 0.956 . S
C846 H859 0.961 1_545 S
C846 H860 0.961 1_545 S
C847 C844 1.539 . S
C847 H861 0.958 . S
C847 H862 0.961 . S
C847 H863 0.960 . S
H848 C832 0.931 . S
H849 C837 0.929 . S
H850 C838 0.960 . S
H851 C838 0.962 . S
H852 C838 0.960 . S
H853 C839 0.961 . S
H854 C839 0.961 . S
H855 C839 0.961 . S
H856 C840 0.931 . S
H857 C845 0.930 . S
H858 C846 0.956 . S
H859 C846 0.961 1_565 S
H860 C846 0.961 1_565 S
H861 C847 0.958 . S
H862 C847 0.961 . S
H863 C847 0.960 . S
C864 C865 1.391 . S
C864 C866 1.394 . S
C864 H880 0.931 . S
C865 C864 1.391 . S
C865 C869 1.376 . S
C866 C864 1.394 . S
C866 C867 1.369 . S
C866 C870 1.531 . S
C867 C866 1.369 . S
C867 C868 1.410 . S
C867 C875 1.503 . S
C868 C867 1.410 . S
C868 C869 1.392 . S
C868 C871 1.511 . S
C869 C865 1.376 . S
C869 C868 1.392 . S
C869 H881 0.929 . S
C870 C866 1.531 . S
C870 H882 0.960 . S
C870 H883 0.962 . S
C870 H884 0.960 . S
C871 C868 1.511 . S
C871 H885 0.961 . S
C871 H886 0.961 . S
C871 H887 0.961 . S
C872 C873 1.370 . S
C872 C874 1.363 . S
C872 H888 0.931 . S
C873 C872 1.370 . S
C873 C877 1.408 . S
C874 C872 1.363 . S
C874 C875 1.370 . S
C874 C878 1.524 . S
C875 C867 1.503 . S
C875 C874 1.370 . S
C875 C876 1.403 . S
C876 C875 1.403 . S
C876 C877 1.404 . S
C876 C879 1.539 . S
C877 C873 1.408 . S
C877 C876 1.404 . S
C877 H889 0.930 . S
C878 C874 1.524 . S
C878 H890 0.956 . S
C878 H891 0.961 . S
C878 H892 0.956 1_565 S
C879 C876 1.539 . S
C879 H893 0.958 . S
C879 H894 0.961 . S
C879 H895 0.960 . S
H880 C864 0.931 . S
H881 C869 0.929 . S
H882 C870 0.960 . S
H883 C870 0.962 . S
H884 C870 0.960 . S
H885 C871 0.961 . S
H886 C871 0.961 . S
H887 C871 0.961 . S
H888 C872 0.931 . S
H889 C877 0.930 . S
H890 C878 0.956 . S
H891 C878 0.961 . S
H892 C878 0.956 1_545 S
H893 C879 0.958 . S
H894 C879 0.961 . S
H895 C879 0.960 . S
C896 C897 1.391 1_655 S
C896 C898 1.394 . S
C896 H912 0.931 . S
C897 C896 1.391 1_455 S
C897 C901 1.376 . S
C898 C896 1.394 . S
C898 C899 1.369 1_655 S
C898 C902 1.531 . S
C899 C898 1.369 1_455 S
C899 C900 1.410 . S
C899 C907 1.503 1_455 S
C900 C899 1.410 . S
C900 C901 1.392 . S
C900 C903 1.511 . S
C901 C897 1.376 . S
C901 C900 1.392 . S
C901 H913 0.929 . S
C902 C898 1.531 . S
C902 H914 0.960 . S
C902 H915 0.962 . S
C902 H916 0.960 . S
C903 C900 1.511 . S
C903 H917 0.961 . S
C903 H918 0.961 . S
C903 H919 0.961 . S
C904 C905 1.370 . S
C904 C906 1.363 . S
C904 H920 0.931 . S
C905 C904 1.370 . S
C905 C909 1.408 . S
C906 C904 1.363 . S
C906 C907 1.370 . S
C906 C910 1.524 . S
C907 C899 1.503 1_655 S
C907 C906 1.370 . S
C907 C908 1.399 1_655 S
C908 C907 1.399 1_455 S
C908 C909 1.395 1_455 S
C908 C911 1.553 . S
C909 C905 1.408 . S
C909 C908 1.395 1_655 S
C909 H921 0.930 . S
C910 C906 1.524 . S
C910 H922 0.956 . S
C910 H923 0.961 1_565 S
C910 H924 0.961 1_565 S
C911 C908 1.553 . S
C911 H925 0.958 . S
C911 H926 0.961 . S
C911 H927 0.960 . S
H912 C896 0.931 . S
H913 C901 0.929 . S
H914 C902 0.960 . S
H915 C902 0.962 . S
H916 C902 0.960 . S
H917 C903 0.961 . S
H918 C903 0.961 . S
H919 C903 0.961 . S
H920 C904 0.931 . S
H921 C909 0.930 . S
H922 C910 0.956 . S
H923 C910 0.961 1_545 S
H924 C910 0.961 1_545 S
H925 C911 0.958 . S
H926 C911 0.961 . S
H927 C911 0.960 . S
C928 C929 1.391 . S
C928 C930 1.394 . S
C928 H944 0.931 . S
C929 C928 1.391 . S
C929 C933 1.376 . S
C930 C928 1.394 . S
C930 C931 1.369 . S
C930 C934 1.531 . S
C931 C930 1.369 . S
C931 C932 1.410 . S
C931 C939 1.503 . S
C932 C931 1.410 . S
C932 C933 1.392 . S
C932 C935 1.511 . S
C933 C929 1.376 . S
C933 C932 1.392 . S
C933 H945 0.929 . S
C934 C930 1.531 . S
C934 H946 0.960 . S
C934 H947 0.962 . S
C934 H948 0.960 . S
C935 C932 1.511 . S
C935 H949 0.961 . S
C935 H950 0.961 . S
C935 H951 0.961 . S
C936 C937 1.370 . S
C936 C938 1.363 . S
C936 H952 0.931 . S
C937 C936 1.370 . S
C937 C941 1.408 . S
C938 C936 1.363 . S
C938 C939 1.370 . S
C938 C942 1.524 . S
C939 C931 1.503 . S
C939 C938 1.370 . S
C939 C940 1.403 . S
C940 C939 1.403 . S
C940 C941 1.404 . S
C940 C943 1.539 1_545 S
C941 C937 1.408 . S
C941 C940 1.404 . S
C941 H953 0.930 . S
C942 C938 1.524 . S
C942 H954 0.956 . S
C942 H955 0.961 . S
C942 H956 0.961 . S
C943 C940 1.539 1_565 S
C943 H957 0.958 . S
C943 H958 0.961 . S
C943 H959 0.960 . S
H944 C928 0.931 . S
H945 C933 0.929 . S
H946 C934 0.960 . S
H947 C934 0.962 . S
H948 C934 0.960 . S
H949 C935 0.961 . S
H950 C935 0.961 . S
H951 C935 0.961 . S
H952 C936 0.931 . S
H953 C941 0.930 . S
H954 C942 0.956 . S
H955 C942 0.961 . S
H956 C942 0.961 . S
H957 C943 0.958 . S
H958 C943 0.961 . S
H959 C943 0.960 . S
C960 C961 1.391 . S
C960 C962 1.394 . S
C960 H976 0.931 . S
C961 C960 1.391 . S
C961 C965 1.376 . S
C962 C960 1.394 . S
C962 C963 1.369 . S
C962 C966 1.531 . S
C963 C962 1.369 . S
C963 C964 1.410 . S
C963 C971 1.503 . S
C964 C963 1.410 . S
C964 C965 1.392 . S
C964 C967 1.511 . S
C965 C961 1.376 . S
C965 C964 1.392 . S
C965 H977 0.929 . S
C966 C962 1.531 . S
C966 H978 0.960 . S
C966 H979 0.962 . S
C966 H980 0.960 . S
C967 C964 1.511 . S
C967 H981 0.961 . S
C967 H982 0.961 . S
C967 H983 0.961 . S
C968 C969 1.370 . S
C968 C970 1.363 . S
C968 H984 0.931 . S
C969 C968 1.370 . S
C969 C973 1.408 . S
C970 C968 1.363 . S
C970 C971 1.370 . S
C970 C974 1.524 . S
C971 C963 1.503 . S
C971 C970 1.370 . S
C971 C972 1.403 . S
C972 C971 1.403 . S
C972 C973 1.404 . S
C972 C975 1.539 . S
C973 C969 1.408 . S
C973 C972 1.404 . S
C973 H985 0.930 . S
C974 C970 1.524 . S
C974 H986 0.956 . S
C974 H987 0.961 . S
C974 H988 0.961 . S
C975 C972 1.539 . S
C975 H989 0.958 . S
C975 H990 0.961 . S
C975 H991 0.960 . S
H976 C960 0.931 . S
H977 C965 0.929 . S
H978 C966 0.960 . S
H979 C966 0.962 . S
H980 C966 0.960 . S
H981 C967 0.961 . S
H982 C967 0.961 . S
H983 C967 0.961 . S
H984 C968 0.931 . S
H985 C973 0.930 . S
H986 C974 0.956 . S
H987 C974 0.961 . S
H988 C974 0.961 . S
H989 C975 0.958 . S
H990 C975 0.961 . S
H991 C975 0.960 . S
C992 C993 1.391 . S
C992 C994 1.394 . S
C992 H1008 0.931 . S
C993 C992 1.391 . S
C993 C997 1.376 . S
C994 C992 1.394 . S
C994 C995 1.369 1_455 S
C994 C998 1.531 1_455 S
C995 C994 1.369 1_655 S
C995 C996 1.410 1_655 S
C995 C1003 1.503 . S
C996 C995 1.410 1_455 S
C996 C997 1.392 . S
C996 C999 1.511 1_455 S
C997 C993 1.376 . S
C997 C996 1.392 . S
C997 H1009 0.929 . S
C998 C994 1.531 1_655 S
C998 H1010 0.960 . S
C998 H1011 0.962 1_655 S
C998 H1012 0.960 . S
C999 C996 1.511 1_655 S
C999 H1013 0.961 1_655 S
C999 H1014 0.965 . S
C999 H1015 0.961 . S
C1000 C1001 1.370 1_455 S
C1000 C1002 1.363 . S
C1000 H1016 0.931 . S
C1001 C1000 1.370 1_655 S
C1001 C1005 1.408 . S
C1002 C1000 1.363 . S
C1002 C1003 1.370 1_455 S
C1002 C1006 1.524 . S
C1003 C995 1.503 . S
C1003 C1002 1.370 1_655 S
C1003 C1004 1.403 . S
C1004 C1003 1.403 . S
C1004 C1005 1.404 . S
C1004 C1007 1.539 . S
C1005 C1001 1.408 . S
C1005 C1004 1.404 . S
C1005 H1017 0.930 . S
C1006 C1002 1.524 . S
C1006 H1018 0.956 . S
C1006 H1019 0.961 . S
C1006 H1020 0.961 . S
C1007 C1004 1.539 . S
C1007 H1021 0.958 . S
C1007 H1022 0.961 . S
C1007 H1023 0.960 . S
H1008 C992 0.931 . S
H1009 C997 0.929 . S
H1010 C998 0.960 . S
H1011 C998 0.962 1_455 S
H1012 C998 0.960 . S
H1013 C999 0.961 1_455 S
H1014 C999 0.965 . S
H1015 C999 0.961 . S
H1016 C1000 0.931 . S
H1017 C1005 0.930 . S
H1018 C1006 0.956 . S
H1019 C1006 0.961 . S
H1020 C1006 0.961 . S
H1021 C1007 0.958 . S
H1022 C1007 0.961 . S
H1023 C1007 0.960 . S
C1024 C1025 1.391 . S
C1024 C1026 1.394 . S
C1024 H1040 0.931 . S
C1025 C1024 1.391 . S
C1025 C1029 1.376 . S
C1026 C1024 1.394 . S
C1026 C1027 1.369 . S
C1026 C1030 1.531 . S
C1027 C1026 1.369 . S
C1027 C1028 1.410 . S
C1027 C1035 1.503 . S
C1028 C1027 1.410 . S
C1028 C1029 1.392 . S
C1028 C1031 1.511 . S
C1029 C1025 1.376 . S
C1029 C1028 1.392 . S
C1029 H1041 0.929 . S
C1030 C1026 1.531 . S
C1030 H1042 0.960 . S
C1030 H1043 0.962 . S
C1030 H1044 0.960 . S
C1031 C1028 1.511 . S
C1031 H1045 0.961 . S
C1031 H1046 0.961 . S
C1031 H1047 0.961 . S
C1032 C1033 1.370 . S
C1032 C1034 1.363 . S
C1032 H1048 0.931 . S
C1033 C1032 1.370 . S
C1033 C1037 1.408 . S
C1034 C1032 1.363 . S
C1034 C1035 1.370 . S
C1034 C1038 1.524 . S
C1035 C1027 1.503 . S
C1035 C1034 1.370 . S
C1035 C1036 1.403 . S
C1036 C1035 1.403 . S
C1036 C1037 1.404 . S
C1036 C1039 1.539 . S
C1037 C1033 1.408 . S
C1037 C1036 1.404 . S
C1037 H1049 0.930 . S
C1038 C1034 1.524 . S
C1038 H1050 0.956 . S
C1038 H1051 0.961 . S
C1038 H1052 0.961 . S
C1039 C1036 1.539 . S
C1039 H1053 0.958 . S
C1039 H1054 0.961 . S
C1039 H1055 0.960 . S
H1040 C1024 0.931 . S
H1041 C1029 0.929 . S
H1042 C1030 0.960 . S
H1043 C1030 0.962 . S
H1044 C1030 0.960 . S
H1045 C1031 0.961 . S
H1046 C1031 0.961 . S
H1047 C1031 0.961 . S
H1048 C1032 0.931 . S
H1049 C1037 0.930 . S
H1050 C1038 0.956 . S
H1051 C1038 0.961 . S
H1052 C1038 0.961 . S
H1053 C1039 0.958 . S
H1054 C1039 0.961 . S
H1055 C1039 0.960 . S
C1056 C1057 1.391 . S
C1056 C1058 1.394 . S
C1056 H1072 0.931 . S
C1057 C1056 1.391 . S
C1057 C1061 1.376 1_455 S
C1058 C1056 1.394 . S
C1058 C1059 1.369 . S
C1058 C1062 1.531 . S
C1059 C1058 1.369 . S
C1059 C1060 1.410 1_455 S
C1059 C1067 1.503 1_455 S
C1060 C1059 1.410 1_655 S
C1060 C1061 1.392 . S
C1060 C1063 1.511 . S
C1061 C1057 1.376 1_655 S
C1061 C1060 1.392 . S
C1061 H1073 0.929 . S
C1062 C1058 1.531 . S
C1062 H1074 0.960 . S
C1062 H1075 0.962 . S
C1062 H1076 0.960 . S
C1063 C1060 1.511 . S
C1063 H1077 0.961 . S
C1063 H1078 0.961 . S
C1063 H1079 0.961 . S
C1064 C1065 1.370 . S
C1064 C1066 1.363 1_655 S
C1064 H1080 0.931 . S
C1065 C1064 1.370 . S
C1065 C1069 1.408 . S
C1066 C1064 1.363 1_455 S
C1066 C1067 1.370 1_455 S
C1066 C1070 1.524 . S
C1067 C1059 1.503 1_655 S
C1067 C1066 1.370 1_655 S
C1067 C1068 1.403 . S
C1068 C1067 1.403 . S
C1068 C1069 1.404 . S
C1068 C1071 1.539 . S
C1069 C1065 1.408 . S
C1069 C1068 1.404 . S
C1069 H1081 0.930 . S
C1070 C1066 1.524 . S
C1070 H1082 0.956 . S
C1070 H1083 0.961 . S
C1070 H1084 0.961 . S
C1071 C1068 1.539 . S
C1071 H1085 0.958 . S
C1071 H1086 0.961 . S
C1071 H1087 0.960 . S
H1072 C1056 0.931 . S
H1073 C1061 0.929 . S
H1074 C1062 0.960 . S
H1075 C1062 0.962 . S
H1076 C1062 0.960 . S
H1077 C1063 0.961 . S
H1078 C1063 0.961 . S
H1079 C1063 0.961 . S
H1080 C1064 0.931 . S
H1081 C1069 0.930 . S
H1082 C1070 0.956 . S
H1083 C1070 0.961 . S
H1084 C1070 0.961 . S
H1085 C1071 0.958 . S
H1086 C1071 0.961 . S
H1087 C1071 0.960 . S
C1088 C1089 1.391 1_655 S
C1088 C1090 1.394 . S
C1088 H1104 0.931 . S
C1089 C1088 1.391 1_455 S
C1089 C1093 1.376 . S
C1090 C1088 1.394 . S
C1090 C1091 1.369 1_655 S
C1090 C1094 1.531 . S
C1091 C1090 1.369 1_455 S
C1091 C1092 1.410 . S
C1091 C1099 1.503 1_455 S
C1092 C1091 1.410 . S
C1092 C1093 1.392 . S
C1092 C1095 1.511 . S
C1093 C1089 1.376 . S
C1093 C1092 1.392 . S
C1093 H1105 0.929 . S
C1094 C1090 1.531 . S
C1094 H1106 0.960 . S
C1094 H1107 0.962 . S
C1094 H1108 0.960 . S
C1095 C1092 1.511 . S
C1095 H1109 0.961 . S
C1095 H1110 0.961 . S
C1095 H1111 0.961 . S
C1096 C1097 1.370 . S
C1096 C1098 1.363 . S
C1096 H1112 0.931 . S
C1097 C1096 1.370 . S
C1097 C1101 1.408 . S
C1098 C1096 1.363 . S
C1098 C1099 1.370 . S
C1098 C1102 1.524 . S
C1099 C1091 1.503 1_655 S
C1099 C1098 1.370 . S
C1099 C1100 1.403 . S
C1100 C1099 1.403 . S
C1100 C1101 1.404 . S
C1100 C1103 1.539 1_655 S
C1101 C1097 1.408 . S
C1101 C1100 1.404 . S
C1101 H1113 0.930 . S
C1102 C1098 1.524 . S
C1102 H1114 0.956 . S
C1102 H1115 0.961 1_655 S
C1102 H1116 0.961 . S
C1103 C1100 1.539 1_455 S
C1103 H1117 0.958 1_455 S
C1103 H1118 0.961 . S
C1103 H1119 0.960 . S
H1104 C1088 0.931 . S
H1105 C1093 0.929 . S
H1106 C1094 0.960 . S
H1107 C1094 0.962 . S
H1108 C1094 0.960 . S
H1109 C1095 0.961 . S
H1110 C1095 0.961 . S
H1111 C1095 0.961 . S
H1112 C1096 0.931 . S
H1113 C1101 0.930 . S
H1114 C1102 0.956 . S
H1115 C1102 0.961 1_455 S
H1116 C1102 0.961 . S
H1117 C1103 0.958 1_655 S
H1118 C1103 0.961 . S
H1119 C1103 0.960 . S
C1120 C1121 1.391 . S
C1120 C1122 1.394 . S
C1120 H1136 0.931 . S
C1121 C1120 1.391 . S
C1121 C1125 1.376 . S
C1122 C1120 1.394 . S
C1122 C1123 1.369 . S
C1122 C1126 1.531 . S
C1123 C1122 1.369 . S
C1123 C1124 1.410 . S
C1123 C1131 1.503 . S
C1124 C1123 1.410 . S
C1124 C1125 1.392 . S
C1124 C1127 1.511 . S
C1125 C1121 1.376 . S
C1125 C1124 1.392 . S
C1125 H1137 0.929 . S
C1126 C1122 1.531 . S
C1126 H1138 0.960 . S
C1126 H1139 0.962 . S
C1126 H1140 0.960 . S
C1127 C1124 1.511 . S
C1127 H1141 0.961 . S
C1127 H1142 0.961 . S
C1127 H1143 0.961 . S
C1128 C1129 1.370 . S
C1128 C1130 1.363 . S
C1128 H1144 0.931 . S
C1129 C1128 1.370 . S
C1129 C1133 1.408 . S
C1130 C1128 1.363 . S
C1130 C1131 1.370 . S
C1130 C1134 1.524 . S
C1131 C1123 1.503 . S
C1131 C1130 1.370 . S
C1131 C1132 1.403 . S
C1132 C1131 1.403 . S
C1132 C1133 1.404 . S
C1132 C1135 1.539 . S
C1133 C1129 1.408 . S
C1133 C1132 1.404 . S
C1133 H1145 0.930 . S
C1134 C1130 1.524 . S
C1134 H1146 0.956 . S
C1134 H1147 0.961 . S
C1134 H1148 0.961 . S
C1135 C1132 1.539 . S
C1135 H1149 0.958 . S
C1135 H1150 0.961 . S
C1135 H1151 0.960 . S
H1136 C1120 0.931 . S
H1137 C1125 0.929 . S
H1138 C1126 0.960 . S
H1139 C1126 0.962 . S
H1140 C1126 0.960 . S
H1141 C1127 0.961 . S
H1142 C1127 0.961 . S
H1143 C1127 0.961 . S
H1144 C1128 0.931 . S
H1145 C1133 0.930 . S
H1146 C1134 0.956 . S
H1147 C1134 0.961 . S
H1148 C1134 0.961 . S
H1149 C1135 0.958 . S
H1150 C1135 0.961 . S
H1151 C1135 0.960 . S
C1152 C1153 1.391 . S
C1152 C1154 1.394 . S
C1152 H1168 0.931 . S
C1153 C1152 1.391 . S
C1153 C1157 1.376 . S
C1154 C1152 1.394 . S
C1154 C1155 1.369 . S
C1154 C1158 1.531 . S
C1155 C1154 1.369 . S
C1155 C1156 1.410 . S
C1155 C1163 1.503 . S
C1156 C1155 1.410 . S
C1156 C1157 1.392 . S
C1156 C1159 1.511 . S
C1157 C1153 1.376 . S
C1157 C1156 1.392 . S
C1157 H1169 0.929 . S
C1158 C1154 1.531 . S
C1158 H1170 0.960 . S
C1158 H1171 0.962 . S
C1158 H1172 0.960 . S
C1159 C1156 1.511 . S
C1159 H1173 0.961 . S
C1159 H1174 0.961 . S
C1159 H1175 0.961 . S
C1160 C1161 1.370 . S
C1160 C1162 1.363 . S
C1160 H1176 0.931 . S
C1161 C1160 1.370 . S
C1161 C1165 1.408 . S
C1162 C1160 1.363 . S
C1162 C1163 1.370 . S
C1162 C1166 1.524 . S
C1163 C1155 1.503 . S
C1163 C1162 1.370 . S
C1163 C1164 1.403 . S
C1164 C1163 1.403 . S
C1164 C1165 1.404 . S
C1164 C1167 1.539 . S
C1165 C1161 1.408 . S
C1165 C1164 1.404 . S
C1165 H1177 0.930 . S
C1166 C1162 1.524 . S
C1166 H1178 0.956 . S
C1166 H1179 0.961 . S
C1166 H1180 0.961 . S
C1167 C1164 1.539 . S
C1167 H1181 0.958 . S
C1167 H1182 0.961 . S
C1167 H1183 0.960 . S
H1168 C1152 0.931 . S
H1169 C1157 0.929 . S
H1170 C1158 0.960 . S
H1171 C1158 0.962 . S
H1172 C1158 0.960 . S
H1173 C1159 0.961 . S
H1174 C1159 0.961 . S
H1175 C1159 0.961 . S
H1176 C1160 0.931 . S
H1177 C1165 0.930 . S
H1178 C1166 0.956 . S
H1179 C1166 0.961 . S
H1180 C1166 0.961 . S
H1181 C1167 0.958 . S
H1182 C1167 0.961 . S
H1183 C1167 0.960 . S
C1184 C1185 1.391 1_655 S
C1184 C1186 1.394 . S
C1184 H1200 0.931 . S
C1185 C1184 1.391 1_455 S
C1185 C1189 1.376 . S
C1186 C1184 1.394 . S
C1186 C1187 1.369 1_655 S
C1186 C1190 1.531 . S
C1187 C1186 1.369 1_455 S
C1187 C1188 1.410 . S
C1187 C1195 1.503 1_455 S
C1188 C1187 1.410 . S
C1188 C1189 1.392 . S
C1188 C1191 1.511 . S
C1189 C1185 1.376 . S
C1189 C1188 1.392 . S
C1189 H1201 0.929 . S
C1190 C1186 1.531 . S
C1190 H1202 0.960 . S
C1190 H1203 0.962 . S
C1190 H1204 0.960 . S
C1191 C1188 1.511 . S
C1191 H1205 0.961 . S
C1191 H1206 0.961 . S
C1191 H1207 0.961 . S
C1192 C1193 1.370 . S
C1192 C1194 1.363 . S
C1192 H1208 0.931 . S
C1193 C1192 1.370 . S
C1193 C1197 1.408 . S
C1194 C1192 1.363 . S
C1194 C1195 1.370 . S
C1194 C1198 1.524 . S
C1195 C1187 1.503 1_655 S
C1195 C1194 1.370 . S
C1195 C1196 1.403 1_655 S
C1196 C1195 1.403 1_455 S
C1196 C1197 1.404 1_455 S
C1196 C1199 1.539 . S
C1197 C1193 1.408 . S
C1197 C1196 1.404 1_655 S
C1197 H1209 0.930 . S
C1198 C1194 1.524 . S
C1198 H1210 0.956 . S
C1198 H1211 0.961 . S
C1198 H1212 0.961 . S
C1199 C1196 1.539 . S
C1199 H1213 0.958 . S
C1199 H1214 0.961 . S
C1199 H1215 0.960 . S
H1200 C1184 0.931 . S
H1201 C1189 0.929 . S
H1202 C1190 0.960 . S
H1203 C1190 0.962 . S
H1204 C1190 0.960 . S
H1205 C1191 0.961 . S
H1206 C1191 0.961 . S
H1207 C1191 0.961 . S
H1208 C1192 0.931 . S
H1209 C1197 0.930 . S
H1210 C1198 0.956 . S
H1211 C1198 0.961 . S
H1212 C1198 0.961 . S
H1213 C1199 0.958 . S
H1214 C1199 0.961 . S
H1215 C1199 0.960 . S
C1216 C1217 1.391 1_655 S
C1216 C1218 1.394 . S
C1216 H1232 0.931 . S
C1217 C1216 1.391 1_455 S
C1217 C1221 1.376 . S
C1218 C1216 1.394 . S
C1218 C1219 1.369 1_655 S
C1218 C1222 1.531 . S
C1219 C1218 1.369 1_455 S
C1219 C1220 1.410 . S
C1219 C1227 1.503 1_455 S
C1220 C1219 1.410 . S
C1220 C1221 1.392 . S
C1220 C1223 1.511 . S
C1221 C1217 1.376 . S
C1221 C1220 1.392 . S
C1221 H1233 0.929 . S
C1222 C1218 1.531 . S
C1222 H1234 0.960 . S
C1222 H1235 0.962 . S
C1222 H1236 0.960 . S
C1223 C1220 1.511 . S
C1223 H1237 0.961 . S
C1223 H1238 0.961 . S
C1223 H1239 0.961 . S
C1224 C1225 1.370 . S
C1224 C1226 1.363 . S
C1224 H1240 0.931 . S
C1225 C1224 1.370 . S
C1225 C1229 1.408 . S
C1226 C1224 1.363 . S
C1226 C1227 1.370 . S
C1226 C1230 1.524 . S
C1227 C1219 1.503 1_655 S
C1227 C1226 1.370 . S
C1227 C1228 1.403 . S
C1228 C1227 1.403 . S
C1228 C1229 1.404 . S
C1228 C1231 1.539 1_655 S
C1229 C1225 1.408 . S
C1229 C1228 1.404 . S
C1229 H1241 0.930 . S
C1230 C1226 1.524 . S
C1230 H1242 0.956 . S
C1230 H1243 0.961 1_655 S
C1230 H1244 0.961 . S
C1231 C1228 1.539 1_455 S
C1231 H1245 0.958 1_455 S
C1231 H1246 0.961 . S
C1231 H1247 0.960 . S
H1232 C1216 0.931 . S
H1233 C1221 0.929 . S
H1234 C1222 0.960 . S
H1235 C1222 0.962 . S
H1236 C1222 0.960 . S
H1237 C1223 0.961 . S
H1238 C1223 0.961 . S
H1239 C1223 0.961 . S
H1240 C1224 0.931 . S
H1241 C1229 0.930 . S
H1242 C1230 0.956 . S
H1243 C1230 0.961 1_455 S
H1244 C1230 0.961 . S
H1245 C1231 0.958 1_655 S
H1246 C1231 0.961 . S
H1247 C1231 0.960 . S
C1248 C1249 1.391 . S
C1248 C1250 1.394 . S
C1248 H1264 0.931 . S
C1249 C1248 1.391 . S
C1249 C1253 1.376 . S
C1250 C1248 1.394 . S
C1250 C1251 1.369 . S
C1250 C1254 1.531 . S
C1251 C1250 1.369 . S
C1251 C1252 1.410 . S
C1251 C1259 1.503 . S
C1252 C1251 1.410 . S
C1252 C1253 1.392 . S
C1252 C1255 1.511 . S
C1253 C1249 1.376 . S
C1253 C1252 1.392 . S
C1253 H1265 0.929 . S
C1254 C1250 1.531 . S
C1254 H1266 0.960 . S
C1254 H1267 0.962 . S
C1254 H1268 0.960 . S
C1255 C1252 1.511 . S
C1255 H1269 0.961 . S
C1255 H1270 0.961 . S
C1255 H1271 0.961 . S
C1256 C1257 1.370 . S
C1256 C1258 1.363 . S
C1256 H1272 0.931 . S
C1257 C1256 1.370 . S
C1257 C1261 1.408 . S
C1258 C1256 1.363 . S
C1258 C1259 1.370 . S
C1258 C1262 1.524 . S
C1259 C1251 1.503 . S
C1259 C1258 1.370 . S
C1259 C1260 1.403 . S
C1260 C1259 1.403 . S
C1260 C1261 1.404 . S
C1260 C1263 1.539 . S
C1261 C1257 1.408 . S
C1261 C1260 1.404 . S
C1261 H1273 0.930 . S
C1262 C1258 1.524 . S
C1262 H1274 0.956 . S
C1262 H1275 0.961 . S
C1262 H1276 0.961 . S
C1263 C1260 1.539 . S
C1263 H1277 0.958 . S
C1263 H1278 0.961 . S
C1263 H1279 0.960 . S
H1264 C1248 0.931 . S
H1265 C1253 0.929 . S
H1266 C1254 0.960 . S
H1267 C1254 0.962 . S
H1268 C1254 0.960 . S
H1269 C1255 0.961 . S
H1270 C1255 0.961 . S
H1271 C1255 0.961 . S
H1272 C1256 0.931 . S
H1273 C1261 0.930 . S
H1274 C1262 0.956 . S
H1275 C1262 0.961 . S
H1276 C1262 0.961 . S
H1277 C1263 0.958 . S
H1278 C1263 0.961 . S
H1279 C1263 0.960 . S
C1280 C1281 1.391 . S
C1280 C1282 1.394 . S
C1280 H1296 0.931 . S
C1281 C1280 1.391 . S
C1281 C1285 1.376 . S
C1282 C1280 1.394 . S
C1282 C1283 1.369 . S
C1282 C1286 1.531 . S
C1283 C1282 1.369 . S
C1283 C1284 1.410 . S
C1283 C1291 1.503 . S
C1284 C1283 1.410 . S
C1284 C1285 1.392 . S
C1284 C1287 1.511 . S
C1285 C1281 1.376 . S
C1285 C1284 1.392 . S
C1285 H1297 0.929 . S
C1286 C1282 1.531 . S
C1286 H1298 0.960 . S
C1286 H1299 0.962 . S
C1286 H1300 0.960 . S
C1287 C1284 1.511 . S
C1287 H1301 0.961 . S
C1287 H1302 0.961 . S
C1287 H1303 0.961 . S
C1288 C1289 1.370 . S
C1288 C1290 1.363 . S
C1288 H1304 0.931 . S
C1289 C1288 1.370 . S
C1289 C1293 1.408 . S
C1290 C1288 1.363 . S
C1290 C1291 1.370 . S
C1290 C1294 1.524 . S
C1291 C1283 1.503 . S
C1291 C1290 1.370 . S
C1291 C1292 1.403 . S
C1292 C1291 1.403 . S
C1292 C1293 1.404 . S
C1292 C1295 1.539 . S
C1293 C1289 1.408 . S
C1293 C1292 1.404 . S
C1293 H1305 0.930 . S
C1294 C1290 1.524 . S
C1294 H1306 0.956 . S
C1294 H1307 0.961 . S
C1294 H1308 0.961 . S
C1295 C1292 1.539 . S
C1295 H1309 0.958 . S
C1295 H1310 0.961 . S
C1295 H1311 0.960 . S
H1296 C1280 0.931 . S
H1297 C1285 0.929 . S
H1298 C1286 0.960 . S
H1299 C1286 0.962 . S
H1300 C1286 0.960 . S
H1301 C1287 0.961 . S
H1302 C1287 0.961 . S
H1303 C1287 0.961 . S
H1304 C1288 0.931 . S
H1305 C1293 0.930 . S
H1306 C1294 0.956 . S
H1307 C1294 0.961 . S
H1308 C1294 0.961 . S
H1309 C1295 0.958 . S
H1310 C1295 0.961 . S
H1311 C1295 0.960 . S
C1312 C1313 1.391 . S
C1312 C1314 1.394 . S
C1312 H1328 0.931 . S
C1313 C1312 1.391 . S
C1313 C1317 1.376 . S
C1314 C1312 1.394 . S
C1314 C1315 1.369 . S
C1314 C1318 1.531 . S
C1315 C1314 1.369 . S
C1315 C1316 1.410 . S
C1315 C1323 1.501 1_455 S
C1316 C1315 1.410 . S
C1316 C1317 1.392 . S
C1316 C1319 1.511 . S
C1317 C1313 1.376 . S
C1317 C1316 1.392 . S
C1317 H1329 0.929 . S
C1318 C1314 1.531 . S
C1318 H1330 0.960 . S
C1318 H1331 0.962 1_455 S
C1318 H1332 0.960 . S
C1319 C1316 1.511 . S
C1319 H1333 0.961 . S
C1319 H1334 0.961 . S
C1319 H1335 0.961 . S
C1320 C1321 1.370 . S
C1320 C1322 1.363 . S
C1320 H1336 0.931 . S
C1321 C1320 1.370 . S
C1321 C1325 1.408 1_655 S
C1322 C1320 1.363 . S
C1322 C1323 1.377 . S
C1322 C1326 1.524 . S
C1323 C1315 1.501 1_655 S
C1323 C1322 1.377 . S
C1323 C1324 1.398 1_655 S
C1324 C1323 1.398 1_455 S
C1324 C1325 1.404 . S
C1324 C1327 1.539 . S
C1325 C1321 1.408 1_455 S
C1325 C1324 1.404 . S
C1325 H1337 0.930 . S
C1326 C1322 1.524 . S
C1326 H1338 0.956 . S
C1326 H1339 0.961 . S
C1326 H1340 0.961 . S
C1327 C1324 1.539 . S
C1327 H1341 0.958 . S
C1327 H1342 0.961 . S
C1327 H1343 0.960 . S
H1328 C1312 0.931 . S
H1329 C1317 0.929 . S
H1330 C1318 0.960 . S
H1331 C1318 0.962 1_655 S
H1332 C1318 0.960 . S
H1333 C1319 0.961 . S
H1334 C1319 0.961 . S
H1335 C1319 0.961 . S
H1336 C1320 0.931 . S
H1337 C1325 0.930 . S
H1338 C1326 0.956 . S
H1339 C1326 0.961 . S
H1340 C1326 0.961 . S
H1341 C1327 0.958 . S
H1342 C1327 0.961 . S
H1343 C1327 0.960 . S
C1344 C1345 1.391 . S
C1344 C1346 1.394 . S
C1344 H1360 0.931 . S
C1345 C1344 1.391 . S
C1345 C1349 1.388 . S
C1346 C1344 1.394 . S
C1346 C1347 1.369 1_655 S
C1346 C1350 1.531 1_556 S
C1347 C1346 1.369 1_455 S
C1347 C1348 1.410 1_565 S
C1347 C1355 1.503 1_566 S
C1348 C1347 1.410 1_545 S
C1348 C1349 1.386 1_445 S
C1348 C1351 1.511 . S
C1349 C1345 1.388 . S
C1349 C1348 1.386 1_665 S
C1349 H1361 0.924 1_665 S
C1350 C1346 1.531 1_554 S
C1350 H1362 0.960 . S
C1350 H1363 0.962 . S
C1350 H1364 0.960 . S
C1351 C1348 1.511 . S
C1351 H1365 0.961 . S
C1351 H1366 0.961 . S
C1351 H1367 0.961 . S
C1352 C1353 1.370 1_655 S
C1352 C1354 1.363 . S
C1352 H1368 0.931 . S
C1353 C1352 1.370 1_455 S
C1353 C1357 1.408 . S
C1354 C1352 1.363 . S
C1354 C1355 1.370 1_655 S
C1354 C1358 1.524 . S
C1355 C1347 1.503 1_544 S
C1355 C1354 1.370 1_455 S
C1355 C1356 1.403 1_545 S
C1356 C1355 1.403 1_565 S
C1356 C1357 1.404 1_565 S
C1356 C1359 1.539 . S
C1357 C1353 1.408 . S
C1357 C1356 1.404 1_545 S
C1357 H1369 0.930 . S
C1358 C1354 1.524 . S
C1358 H1370 0.956 . S
C1358 H1371 0.961 1_554 S
C1358 H1372 0.961 . S
C1359 C1356 1.539 . S
C1359 H1373 0.958 . S
C1359 H1374 0.961 . S
C1359 H1375 0.960 1_554 S
H1360 C1344 0.931 . S
H1361 C1349 0.924 1_445 S
H1362 C1350 0.960 . S
H1363 C1350 0.962 . S
H1364 C1350 0.960 . S
H1365 C1351 0.961 . S
H1366 C1351 0.961 . S
H1367 C1351 0.961 . S
H1368 C1352 0.931 . S
H1369 C1357 0.930 . S
H1370 C1358 0.956 . S
H1371 C1358 0.961 1_556 S
H1372 C1358 0.961 . S
H1373 C1359 0.958 . S
H1374 C1359 0.961 . S
H1375 C1359 0.960 1_556 S
C1376 C1377 1.391 . S
C1376 C1378 1.394 . S
C1376 H1392 0.931 . S
C1377 C1376 1.391 . S
C1377 C1381 1.376 . S
C1378 C1376 1.394 . S
C1378 C1379 1.361 1_545 S
C1378 C1382 1.531 . S
C1379 C1378 1.361 1_565 S
C1379 C1380 1.408 1_565 S
C1379 C1387 1.511 1_556 S
C1380 C1379 1.408 1_545 S
C1380 C1381 1.392 . S
C1380 C1383 1.511 1_545 S
C1381 C1377 1.376 . S
C1381 C1380 1.392 . S
C1381 H1393 0.929 . S
C1382 C1378 1.531 . S
C1382 H1394 0.960 1_545 S
C1382 H1395 0.962 . S
C1382 H1396 0.960 . S
C1383 C1380 1.511 1_565 S
C1383 H1397 0.961 1_565 S
C1383 H1398 0.961 1_556 S
C1383 H1399 0.961 . S
C1384 C1385 1.370 1_545 S
C1384 C1386 1.363 . S
C1384 H1400 0.931 . S
C1385 C1384 1.370 1_565 S
C1385 C1389 1.408 . S
C1386 C1384 1.363 . S
C1386 C1387 1.370 1_545 S
C1386 C1390 1.524 . S
C1387 C1379 1.511 1_554 S
C1387 C1386 1.370 1_565 S
C1387 C1388 1.403 . S
C1388 C1387 1.403 . S
C1388 C1389 1.404 . S
C1388 C1391 1.539 1_554 S
C1389 C1385 1.408 . S
C1389 C1388 1.404 . S
C1389 H1401 0.930 . S
C1390 C1386 1.524 . S
C1390 H1402 0.956 . S
C1390 H1403 0.961 . S
C1390 H1404 0.961 . S
C1391 C1388 1.539 1_556 S
C1391 H1405 0.958 . S
C1391 H1406 0.961 1_556 S
C1391 H1407 0.960 . S
H1392 C1376 0.931 . S
H1393 C1381 0.929 . S
H1394 C1382 0.960 1_565 S
H1395 C1382 0.962 . S
H1396 C1382 0.960 . S
H1397 C1383 0.961 1_545 S
H1398 C1383 0.961 1_554 S
H1399 C1383 0.961 . S
H1400 C1384 0.931 . S
H1401 C1389 0.930 . S
H1402 C1390 0.956 . S
H1403 C1390 0.961 . S
H1404 C1390 0.961 . S
H1405 C1391 0.958 . S
H1406 C1391 0.961 1_554 S
H1407 C1391 0.960 . S
C1408 C1409 1.391 . S
C1408 C1410 1.394 . S
C1408 H1424 0.931 . S
C1409 C1408 1.391 . S
C1409 C1413 1.376 . S
C1410 C1408 1.394 . S
C1410 C1411 1.369 . S
C1410 C1414 1.531 . S
C1411 C1410 1.369 . S
C1411 C1412 1.410 . S
C1411 C1419 1.503 1_545 S
C1412 C1411 1.410 . S
C1412 C1413 1.392 . S
C1412 C1415 1.511 . S
C1413 C1409 1.376 . S
C1413 C1412 1.392 . S
C1413 H1425 0.929 . S
C1414 C1410 1.531 . S
C1414 H1426 0.960 . S
C1414 H1427 0.962 1_545 S
C1414 H1428 0.960 . S
C1415 C1412 1.511 . S
C1415 H1429 0.961 . S
C1415 H1430 0.961 1_545 S
C1415 H1431 0.961 . S
C1416 C1417 1.370 . S
C1416 C1418 1.363 . S
C1416 H1432 0.931 . S
C1417 C1416 1.370 . S
C1417 C1421 1.408 1_565 S
C1418 C1416 1.363 . S
C1418 C1419 1.370 . S
C1418 C1422 1.524 . S
C1419 C1411 1.503 1_565 S
C1419 C1418 1.370 . S
C1419 C1420 1.403 1_565 S
C1420 C1419 1.403 1_545 S
C1420 C1421 1.404 . S
C1420 C1423 1.539 . S
C1421 C1417 1.408 1_545 S
C1421 C1420 1.404 . S
C1421 H1433 0.930 . S
C1422 C1418 1.524 . S
C1422 H1434 0.956 . S
C1422 H1435 0.961 . S
C1422 H1436 0.961 . S
C1423 C1420 1.539 . S
C1423 H1437 0.958 . S
C1423 H1438 0.961 . S
C1423 H1439 0.960 . S
H1424 C1408 0.931 . S
H1425 C1413 0.929 . S
H1426 C1414 0.960 . S
H1427 C1414 0.962 1_565 S
H1428 C1414 0.960 . S
H1429 C1415 0.961 . S
H1430 C1415 0.961 1_565 S
H1431 C1415 0.961 . S
H1432 C1416 0.931 . S
H1433 C1421 0.930 . S
H1434 C1422 0.956 . S
H1435 C1422 0.961 . S
H1436 C1422 0.961 . S
H1437 C1423 0.958 . S
H1438 C1423 0.961 . S
H1439 C1423 0.960 . S
C1440 C1441 1.391 1_655 S
C1440 C1442 1.394 1_565 S
C1440 H1456 0.931 . S
C1441 C1440 1.391 1_455 S
C1441 C1445 1.376 . S
C1442 C1440 1.394 1_545 S
C1442 C1443 1.369 1_655 S
C1442 C1446 1.531 . S
C1443 C1442 1.369 1_455 S
C1443 C1444 1.409 1_545 S
C1443 C1451 1.503 1_455 S
C1444 C1443 1.409 1_565 S
C1444 C1445 1.392 . S
C1444 C1447 1.511 . S
C1445 C1441 1.376 . S
C1445 C1444 1.392 . S
C1445 H1457 0.929 . S
C1446 C1442 1.531 . S
C1446 H1458 0.960 . S
C1446 H1459 0.962 . S
C1446 H1460 0.960 . S
C1447 C1444 1.511 . S
C1447 H1461 0.961 . S
C1447 H1462 0.961 . S
C1447 H1463 0.961 . S
C1448 C1449 1.370 . S
C1448 C1450 1.363 1_545 S
C1448 H1464 0.931 1_545 S
C1449 C1448 1.370 . S
C1449 C1453 1.424 . S
C1450 C1448 1.363 1_565 S
C1450 C1451 1.370 1_565 S
C1450 C1454 1.524 . S
C1451 C1443 1.503 1_655 S
C1451 C1450 1.370 1_545 S
C1451 C1452 1.403 1_655 S
C1452 C1451 1.403 1_455 S
C1452 C1453 1.397 1_455 S
C1452 C1455 1.539 . S
C1453 C1449 1.424 . S
C1453 C1452 1.397 1_655 S
C1453 H1465 0.922 1_655 S
C1454 C1450 1.524 . S
C1454 H1466 0.956 . S
C1454 H1467 0.961 . S
C1454 H1468 0.961 . S
C1455 C1452 1.539 . S
C1455 H1469 0.958 . S
C1455 H1470 0.961 . S
C1455 H1471 0.960 . S
H1456 C1440 0.931 . S
H1457 C1445 0.929 . S
H1458 C1446 0.960 . S
H1459 C1446 0.962 . S
H1460 C1446 0.960 . S
H1461 C1447 0.961 . S
H1462 C1447 0.961 . S
H1463 C1447 0.961 . S
H1464 C1448 0.931 1_565 S
H1465 C1453 0.922 1_455 S
H1466 C1454 0.956 . S
H1467 C1454 0.961 . S
H1468 C1454 0.961 . S
H1469 C1455 0.958 . S
H1470 C1455 0.961 . S
H1471 C1455 0.960 . S
C1472 C1473 1.391 . S
C1472 C1474 1.394 . S
C1472 H1488 0.931 . S
C1473 C1472 1.391 . S
C1473 C1477 1.376 . S
C1474 C1472 1.394 . S
C1474 C1475 1.369 . S
C1474 C1478 1.531 . S
C1475 C1474 1.369 . S
C1475 C1476 1.410 . S
C1475 C1483 1.503 1_554 S
C1476 C1475 1.410 . S
C1476 C1477 1.392 . S
C1476 C1479 1.511 . S
C1477 C1473 1.376 . S
C1477 C1476 1.392 . S
C1477 H1489 0.929 . S
C1478 C1474 1.531 . S
C1478 H1490 0.960 . S
C1478 H1491 0.962 . S
C1478 H1492 0.960 . S
C1479 C1476 1.511 . S
C1479 H1493 0.961 . S
C1479 H1494 0.961 1_554 S
C1479 H1495 0.961 . S
C1480 C1481 1.370 . S
C1480 C1482 1.363 . S
C1480 H1496 0.931 . S
C1481 C1480 1.370 . S
C1481 C1485 1.408 . S
C1482 C1480 1.363 . S
C1482 C1483 1.370 . S
C1482 C1486 1.524 . S
C1483 C1475 1.503 1_556 S
C1483 C1482 1.370 . S
C1483 C1484 1.403 . S
C1484 C1483 1.403 . S
C1484 C1485 1.404 . S
C1484 C1487 1.539 1_556 S
C1485 C1481 1.408 . S
C1485 C1484 1.404 . S
C1485 H1497 0.930 . S
C1486 C1482 1.524 . S
C1486 H1498 0.956 . S
C1486 H1499 0.961 . S
C1486 H1500 0.961 . S
C1487 C1484 1.539 1_554 S
C1487 H1501 0.958 . S
C1487 H1502 0.961 . S
C1487 H1503 0.960 . S
H1488 C1472 0.931 . S
H1489 C1477 0.929 . S
H1490 C1478 0.960 . S
H1491 C1478 0.962 . S
H1492 C1478 0.960 . S
H1493 C1479 0.961 . S
H1494 C1479 0.961 1_556 S
H1495 C1479 0.961 . S
H1496 C1480 0.931 . S
H1497 C1485 0.930 . S
H1498 C1486 0.956 . S
H1499 C1486 0.961 . S
H1500 C1486 0.961 . S
H1501 C1487 0.958 . S
H1502 C1487 0.961 . S
H1503 C1487 0.960 . S
C1504 C1505 1.391 . S
C1504 C1506 1.394 . S
C1504 H1520 0.931 . S
C1505 C1504 1.391 . S
C1505 C1509 1.376 1_655 S
C1506 C1504 1.394 . S
C1506 C1507 1.369 . S
C1506 C1510 1.528 . S
C1507 C1506 1.369 . S
C1507 C1508 1.410 1_655 S
C1507 C1515 1.503 1_654 S
C1508 C1507 1.410 1_455 S
C1508 C1509 1.392 . S
C1508 C1511 1.511 . S
C1509 C1505 1.376 1_455 S
C1509 C1508 1.392 . S
C1509 H1521 0.929 . S
C1510 C1506 1.528 . S
C1510 H1522 0.962 1_554 S
C1510 H1523 0.964 1_554 S
C1510 H1524 0.959 . S
C1511 C1508 1.511 . S
C1511 H1525 0.961 . S
C1511 H1526 0.961 . S
C1511 H1527 0.961 . S
C1512 C1513 1.370 . S
C1512 C1514 1.363 . S
C1512 H1528 0.931 . S
C1513 C1512 1.370 . S
C1513 C1517 1.408 . S
C1514 C1512 1.363 . S
C1514 C1515 1.370 . S
C1514 C1518 1.524 . S
C1515 C1507 1.503 1_456 S
C1515 C1514 1.370 . S
C1515 C1516 1.403 . S
C1516 C1515 1.403 . S
C1516 C1517 1.404 . S
C1516 C1519 1.539 1_456 S
C1517 C1513 1.408 . S
C1517 C1516 1.404 . S
C1517 H1529 0.930 . S
C1518 C1514 1.524 . S
C1518 H1530 0.956 1_455 S
C1518 H1531 0.961 . S
C1518 H1532 0.961 . S
C1519 C1516 1.539 1_654 S
C1519 H1533 0.958 . S
C1519 H1534 0.957 1_654 S
C1519 H1535 0.960 1_655 S
H1520 C1504 0.931 . S
H1521 C1509 0.929 . S
H1522 C1510 0.962 1_556 S
H1523 C1510 0.964 1_556 S
H1524 C1510 0.959 . S
H1525 C1511 0.961 . S
H1526 C1511 0.961 . S
H1527 C1511 0.961 . S
H1528 C1512 0.931 . S
H1529 C1517 0.930 . S
H1530 C1518 0.956 1_655 S
H1531 C1518 0.961 . S
H1532 C1518 0.961 . S
H1533 C1519 0.958 . S
H1534 C1519 0.957 1_456 S
H1535 C1519 0.960 1_455 S
C1536 C1537 1.391 . S
C1536 C1538 1.394 . S
C1536 H1552 0.931 . S
C1537 C1536 1.391 . S
C1537 C1541 1.376 1_655 S
C1538 C1536 1.394 . S
C1538 C1539 1.369 . S
C1538 C1542 1.531 . S
C1539 C1538 1.369 . S
C1539 C1540 1.410 1_655 S
C1539 C1547 1.503 1_655 S
C1540 C1539 1.410 1_455 S
C1540 C1541 1.392 . S
C1540 C1543 1.511 . S
C1541 C1537 1.376 1_455 S
C1541 C1540 1.392 . S
C1541 H1553 0.929 . S
C1542 C1538 1.531 . S
C1542 H1554 0.960 . S
C1542 H1555 0.962 . S
C1542 H1556 0.960 . S
C1543 C1540 1.511 . S
C1543 H1557 0.961 . S
C1543 H1558 0.961 . S
C1543 H1559 0.961 . S
C1544 C1545 1.370 . S
C1544 C1546 1.363 . S
C1544 H1560 0.931 . S
C1545 C1544 1.370 . S
C1545 C1549 1.408 . S
C1546 C1544 1.363 . S
C1546 C1547 1.370 . S
C1546 C1550 1.524 . S
C1547 C1539 1.503 1_455 S
C1547 C1546 1.370 . S
C1547 C1548 1.403 . S
C1548 C1547 1.403 . S
C1548 C1549 1.404 . S
C1548 C1551 1.539 . S
C1549 C1545 1.408 . S
C1549 C1548 1.404 . S
C1549 H1561 0.930 . S
C1550 C1546 1.524 . S
C1550 H1562 0.956 1_455 S
C1550 H1563 0.961 . S
C1550 H1564 0.961 . S
C1551 C1548 1.539 . S
C1551 H1565 0.958 1_455 S
C1551 H1566 0.961 . S
C1551 H1567 0.960 . S
H1552 C1536 0.931 . S
H1553 C1541 0.929 . S
H1554 C1542 0.960 . S
H1555 C1542 0.962 . S
H1556 C1542 0.960 . S
H1557 C1543 0.961 . S
H1558 C1543 0.961 . S
H1559 C1543 0.961 . S
H1560 C1544 0.931 . S
H1561 C1549 0.930 . S
H1562 C1550 0.956 1_655 S
H1563 C1550 0.961 . S
H1564 C1550 0.961 . S
H1565 C1551 0.958 1_655 S
H1566 C1551 0.961 . S
H1567 C1551 0.960 . S
C1568 C1569 1.391 . S
C1568 C1570 1.394 . S
C1568 H1584 0.931 . S
C1569 C1568 1.391 . S
C1569 C1573 1.376 . S
C1570 C1568 1.394 . S
C1570 C1571 1.369 . S
C1570 C1574 1.531 . S
C1571 C1570 1.369 . S
C1571 C1572 1.410 . S
C1571 C1579 1.503 . S
C1572 C1571 1.410 . S
C1572 C1573 1.392 . S
C1572 C1575 1.511 . S
C1573 C1569 1.376 . S
C1573 C1572 1.392 . S
C1573 H1585 0.929 . S
C1574 C1570 1.531 . S
C1574 H1586 0.960 . S
C1574 H1587 0.962 . S
C1574 H1588 0.960 . S
C1575 C1572 1.511 . S
C1575 H1589 0.961 . S
C1575 H1590 0.961 . S
C1575 H1591 0.961 . S
C1576 C1577 1.370 . S
C1576 C1578 1.363 . S
C1576 H1592 0.931 . S
C1577 C1576 1.370 . S
C1577 C1581 1.408 . S
C1578 C1576 1.363 . S
C1578 C1579 1.370 . S
C1578 C1582 1.524 . S
C1579 C1571 1.503 . S
C1579 C1578 1.370 . S
C1579 C1580 1.403 . S
C1580 C1579 1.403 . S
C1580 C1581 1.404 . S
C1580 C1583 1.539 . S
C1581 C1577 1.408 . S
C1581 C1580 1.404 . S
C1581 H1593 0.930 . S
C1582 C1578 1.524 . S
C1582 H1594 0.956 . S
C1582 H1595 0.961 . S
C1582 H1596 0.961 . S
C1583 C1580 1.539 . S
C1583 H1597 0.958 . S
C1583 H1598 0.961 . S
C1583 H1599 0.960 . S
H1584 C1568 0.931 . S
H1585 C1573 0.929 . S
H1586 C1574 0.960 . S
H1587 C1574 0.962 . S
H1588 C1574 0.960 . S
H1589 C1575 0.961 . S
H1590 C1575 0.961 . S
H1591 C1575 0.961 . S
H1592 C1576 0.931 . S
H1593 C1581 0.930 . S
H1594 C1582 0.956 . S
H1595 C1582 0.961 . S
H1596 C1582 0.961 . S
H1597 C1583 0.958 . S
H1598 C1583 0.961 . S
H1599 C1583 0.960 . S
C577 C40 1.484 . S
C585 C4 1.495 . S
C609 C76 1.483 . S
C617 C112 1.496 . S
C641 C148 1.493 . S
C649 C184 1.491 . S
C673 C256 1.498 . S
C681 C220 1.492 . S
C705 C328 1.496 . S
C713 C292 1.494 . S
C737 C400 1.486 . S
C745 C364 1.497 . S
C769 C472 1.489 . S
C777 C436 1.492 . S
C801 C544 1.490 . S
C809 C508 1.491 . S
C833 C110 1.292 . S
C841 C2 1.297 . S
C865 C38 1.298 . S
C873 C74 1.297 . S
C897 C254 1.279 . S
C905 C146 1.303 . S
C929 C218 1.328 . S
C937 C182 1.313 . S
C961 C290 1.294 . S
C969 C398 1.297 . S
C993 C362 1.318 . S
C1001 C326 1.303 . S
C1025 C542 1.329 . S
C1033 C434 1.311 . S
C1057 C470 1.329 . S
C1065 C506 1.310 . S
C1089 C3 1.500 . S
C1097 C327 1.505 . S
C1121 C39 1.505 . S
C1129 C291 1.506 . S
C1153 C399 1.500 . S
C1161 C75 1.505 . S
C1185 C363 1.500 . S
C1193 C111 1.506 . S
C1217 C471 1.504 . S
C1225 C147 1.507 . S
C1249 C435 1.503 . S
C1257 C183 1.507 . S
C1281 C219 1.503 . S
C1289 C543 1.505 . S
C1313 C255 1.501 . S
C1321 C507 1.506 . S
C1345 C158 1.268 . S
C1353 C14 1.231 . S
C1377 C194 1.214 . S
C1385 C50 1.254 . S
C1409 C230 1.267 . S
C1417 C86 1.229 . S
C1441 C266 1.207 . S
C1449 C122 1.255 . S
C1473 C302 1.228 . S
C1481 C446 1.245 . S
C1505 C338 1.211 . S
C1513 C482 1.253 . S
C1537 C518 1.265 . S
C1545 C374 1.230 . S
C1569 C554 1.220 . S
C1577 C410 1.249 . S
