# Generated by pormake.
# Topology unn, (4)-cn, num edge types: 1
# Building blocks:
#     Node 0, Type 0, BuildingBlock: ESEHIV_clean_sbu_0, # of connection points: 4
#     Node 1, Type 0, BuildingBlock: ESEHIV_clean_sbu_0, # of connection points: 4
#     Node 2, Type 0, BuildingBlock: ESEHIV_clean_sbu_0, # of connection points: 4
#     Node 3, Type 0, BuildingBlock: ESEHIV_clean_sbu_0, # of connection points: 4
#     Node 4, Type 0, BuildingBlock: ESEHIV_clean_sbu_0, # of connection points: 4
#     Node 5, Type 0, BuildingBlock: ESEHIV_clean_sbu_0, # of connection points: 4
#     Node 6, Type 0, BuildingBlock: ESEHIV_clean_sbu_0, # of connection points: 4
#     Node 7, Type 0, BuildingBlock: ESEHIV_clean_sbu_0, # of connection points: 4
#     Node 8, Type 0, BuildingBlock: ESEHIV_clean_sbu_0, # of connection points: 4
#     Node 9, Type 0, BuildingBlock: ESEHIV_clean_sbu_0, # of connection points: 4
#     Node 10, Type 0, BuildingBlock: ESEHIV_clean_sbu_0, # of connection points: 4
#     Node 11, Type 0, BuildingBlock: ESEHIV_clean_sbu_0, # of connection points: 4
#     Node 12, Type 0, BuildingBlock: ESEHIV_clean_sbu_0, # of connection points: 4
#     Node 13, Type 0, BuildingBlock: ESEHIV_clean_sbu_0, # of connection points: 4
#     Node 14, Type 0, BuildingBlock: ESEHIV_clean_sbu_0, # of connection points: 4
#     Node 15, Type 0, BuildingBlock: ESEHIV_clean_sbu_0, # of connection points: 4
#     Node 16, Type 0, BuildingBlock: ESEHIV_clean_sbu_0, # of connection points: 4
#     Node 17, Type 0, BuildingBlock: ESEHIV_clean_sbu_0, # of connection points: 4
#     Edge 18, Type (0, 0), BuildingBlock: KIFKEQ_clean_linker_1, # of connection points: 2
#     Edge 19, Type (0, 0), BuildingBlock: KIFKEQ_clean_linker_1, # of connection points: 2
#     Edge 20, Type (0, 0), BuildingBlock: KIFKEQ_clean_linker_1, # of connection points: 2
#     Edge 21, Type (0, 0), BuildingBlock: KIFKEQ_clean_linker_1, # of connection points: 2
#     Edge 22, Type (0, 0), BuildingBlock: KIFKEQ_clean_linker_1, # of connection points: 2
#     Edge 23, Type (0, 0), BuildingBlock: KIFKEQ_clean_linker_1, # of connection points: 2
#     Edge 24, Type (0, 0), BuildingBlock: KIFKEQ_clean_linker_1, # of connection points: 2
#     Edge 25, Type (0, 0), BuildingBlock: KIFKEQ_clean_linker_1, # of connection points: 2
#     Edge 26, Type (0, 0), BuildingBlock: KIFKEQ_clean_linker_1, # of connection points: 2
#     Edge 27, Type (0, 0), BuildingBlock: KIFKEQ_clean_linker_1, # of connection points: 2
#     Edge 28, Type (0, 0), BuildingBlock: KIFKEQ_clean_linker_1, # of connection points: 2
#     Edge 29, Type (0, 0), BuildingBlock: KIFKEQ_clean_linker_1, # of connection points: 2
#     Edge 30, Type (0, 0), BuildingBlock: KIFKEQ_clean_linker_1, # of connection points: 2
#     Edge 31, Type (0, 0), BuildingBlock: KIFKEQ_clean_linker_1, # of connection points: 2
#     Edge 32, Type (0, 0), BuildingBlock: KIFKEQ_clean_linker_1, # of connection points: 2
#     Edge 33, Type (0, 0), BuildingBlock: KIFKEQ_clean_linker_1, # of connection points: 2
#     Edge 34, Type (0, 0), BuildingBlock: KIFKEQ_clean_linker_1, # of connection points: 2
#     Edge 35, Type (0, 0), BuildingBlock: KIFKEQ_clean_linker_1, # of connection points: 2
#     Edge 36, Type (0, 0), BuildingBlock: KIFKEQ_clean_linker_1, # of connection points: 2
#     Edge 37, Type (0, 0), BuildingBlock: KIFKEQ_clean_linker_1, # of connection points: 2
#     Edge 38, Type (0, 0), BuildingBlock: KIFKEQ_clean_linker_1, # of connection points: 2
#     Edge 39, Type (0, 0), BuildingBlock: KIFKEQ_clean_linker_1, # of connection points: 2
#     Edge 40, Type (0, 0), BuildingBlock: KIFKEQ_clean_linker_1, # of connection points: 2
#     Edge 41, Type (0, 0), BuildingBlock: KIFKEQ_clean_linker_1, # of connection points: 2
#     Edge 42, Type (0, 0), BuildingBlock: KIFKEQ_clean_linker_1, # of connection points: 2
#     Edge 43, Type (0, 0), BuildingBlock: KIFKEQ_clean_linker_1, # of connection points: 2
#     Edge 44, Type (0, 0), BuildingBlock: KIFKEQ_clean_linker_1, # of connection points: 2
#     Edge 45, Type (0, 0), BuildingBlock: KIFKEQ_clean_linker_1, # of connection points: 2
#     Edge 46, Type (0, 0), BuildingBlock: KIFKEQ_clean_linker_1, # of connection points: 2
#     Edge 47, Type (0, 0), BuildingBlock: KIFKEQ_clean_linker_1, # of connection points: 2
#     Edge 48, Type (0, 0), BuildingBlock: KIFKEQ_clean_linker_1, # of connection points: 2
#     Edge 49, Type (0, 0), BuildingBlock: KIFKEQ_clean_linker_1, # of connection points: 2
#     Edge 50, Type (0, 0), BuildingBlock: KIFKEQ_clean_linker_1, # of connection points: 2
#     Edge 51, Type (0, 0), BuildingBlock: KIFKEQ_clean_linker_1, # of connection points: 2
#     Edge 52, Type (0, 0), BuildingBlock: KIFKEQ_clean_linker_1, # of connection points: 2
#     Edge 53, Type (0, 0), BuildingBlock: KIFKEQ_clean_linker_1, # of connection points: 2
# Relax obj value: 0.007
# Max RMSD: 0.147
# Mean RMSD: 0.146
data_MOF--net-unn--node1-ESEHIV_clean_sbu_0--edge1-KIFKEQ_clean_linker_1
_symmetry_space_group_name_H-M    P1
_symmetry_Int_Tables_number       1
_symmetry_cell_setting            triclinic
loop_
_symmetry_equiv_pos_as_xyz
'x, y, z'
_cell_length_a     55.051698
_cell_length_b     54.803179
_cell_length_c     42.649387
_cell_angle_alpha  90.291286
_cell_angle_beta   90.072709
_cell_angle_gamma 120.00012
loop_
_atom_site_label
_atom_site_type_symbol
_atom_site_fract_x
_atom_site_fract_y
_atom_site_fract_z
_atom_type_partial_charge
Cu0 Cu 0.02779 0.74662 0.28026 0.0
N1 N 0.06055 0.78156 0.28628 0.0
N2 N 0.10327 0.81399 0.30359 0.0
C3 C 0.08247 0.7868 0.30492 0.0
C4 C 0.09388 0.82633 0.2833 0.0
C5 C 0.06759 0.80631 0.27271 0.0
O6 O 1.01859 0.72658 0.31988 0.0
C7 C 0.05439 0.73385 0.2301 0.0
O8 O 0.07805 0.75407 0.24185 0.0
H9 H 0.0834 0.77079 0.31861 0.0
H10 H 0.05457 0.80952 0.25613 0.0
N11 N 0.99741 0.75131 0.26988 0.0
N12 N 0.95569 0.74111 0.24978 0.0
C13 C 0.97573 0.73374 0.25138 0.0
C14 C 0.99108 0.7706 0.28043 0.0
C15 C 0.96541 0.76443 0.26804 0.0
C16 C 0.03253 0.71676 0.33323 0.0
O17 O 0.05352 0.717 0.31834 0.0
H18 H 0.97472 0.71573 0.23958 0.0
H19 H 1.00389 0.78753 0.29658 0.0
O20 O 0.03159 0.72626 0.24473 0.0
H21 H 0.10504 0.84828 0.27662 0.0
H22 H 0.95447 0.7758 0.27298 0.0
Cu23 Cu 0.30399 0.29493 0.26988 0.0
N24 N 0.30179 0.26015 0.26135 0.0
N25 N 0.31302 0.22848 0.24339 0.0
C26 C 0.32051 0.25601 0.24523 0.0
C27 C 0.28853 0.21475 0.2591 0.0
C28 C 0.2817 0.23429 0.27012 0.0
O29 O 0.31489 0.31718 0.23169 0.0
C30 C 0.3391 0.30292 0.32289 0.0
O31 O 0.33732 0.27911 0.31399 0.0
H32 H 0.33959 0.27293 0.23564 0.0
H33 H 0.26338 0.22995 0.28365 0.0
N34 N 0.26895 0.2899 0.28091 0.0
N35 N 0.23737 0.29949 0.30204 0.0
C36 C 0.26469 0.30662 0.30071 0.0
C37 C 0.24353 0.2715 0.26919 0.0
C38 C 0.224 0.27727 0.28226 0.0
C39 C 0.33821 0.32678 0.21755 0.0
O40 O 0.35857 0.3243 0.23034 0.0
H41 H 0.28149 0.32394 0.3135 0.0
H42 H 0.23961 0.25558 0.25168 0.0
O43 O 0.32825 0.314 0.30581 0.0
H44 H 0.27618 0.19218 0.26215 0.0
H45 H 0.20185 0.26654 0.27666 0.0
Cu46 Cu 0.75697 0.02285 0.27145 0.0
N47 N 0.75929 0.99065 0.28007 0.0
N48 N 0.74834 0.94891 0.3007 0.0
C49 C 0.74391 0.97104 0.30159 0.0
C50 C 0.76728 0.95491 0.27766 0.0
C51 C 0.7738 0.98053 0.26482 0.0
O52 O 0.74404 0.03197 0.30999 0.0
C53 C 0.7247 0.03018 0.22321 0.0
O54 O 0.72994 0.05322 0.23838 0.0
H55 H 0.7294 0.97282 0.31725 0.0
H56 H 0.78738 0.99055 0.24503 0.0
N57 N 0.79191 0.05351 0.26006 0.0
N58 N 0.82334 0.09609 0.24176 0.0
C59 C 0.79651 0.07892 0.25065 0.0
C60 C 0.81689 0.05479 0.25761 0.0
C61 C 0.83628 0.08097 0.24632 0.0
C62 C 0.76215 0.04282 0.33198 0.0
O63 O 0.78794 0.04851 0.32655 0.0
H64 H 0.78047 0.08474 0.25045 0.0
H65 H 0.82075 0.03782 0.2632 0.0
O66 O 0.7323 1.01379 0.23513 0.0
H67 H 0.77497 0.94122 0.26973 0.0
H68 H 0.85799 0.0879 0.24102 0.0
Cu69 Cu 0.03035 0.29946 0.77523 0.0
N70 N 0.99723 0.26472 0.76924 0.0
N71 N 0.95475 0.23242 0.7512 0.0
C72 C 0.97693 0.25867 0.74777 0.0
C73 C 0.96161 0.22137 0.77559 0.0
C74 C 0.98775 0.24132 0.78665 0.0
O75 O 0.03849 0.32107 0.73673 0.0
C76 C 1.00551 0.31151 0.82795 0.0
O77 O 0.98138 0.29182 0.81657 0.0
H78 H 0.97832 0.27322 0.72997 0.0
H79 H 0.99877 0.23921 0.80653 0.0
N80 N 0.06071 0.29412 0.78337 0.0
N81 N 0.10207 0.30254 0.80267 0.0
C82 C 0.0826 0.31068 0.80217 0.0
C83 C 0.06636 0.27472 0.77154 0.0
C84 C 0.0919 0.27988 0.78336 0.0
C85 C 1.02259 0.3293 0.72495 0.0
O86 O 1.0007 0.32593 0.74085 0.0
H87 H 0.08451 0.32885 0.81456 0.0
H88 H 0.05299 0.2582 0.75524 0.0
O89 O 0.02783 0.319 0.81235 0.0
H90 H 0.94832 0.20073 0.78549 0.0
H91 H 0.1021 0.26782 0.77818 0.0
Cu92 Cu 0.76144 0.7448 0.7808 0.0
N93 N 0.76284 0.77945 0.78699 0.0
N94 N 0.75259 0.81182 0.80498 0.0
C95 C 0.74903 0.78572 0.8088 0.0
C96 C 0.76959 0.82237 0.77983 0.0
C97 C 0.77573 0.80239 0.76878 0.0
O98 O 0.75077 0.72399 0.82002 0.0
C99 C 0.7166 0.72814 0.73657 0.0
O100 O 0.70802 0.74157 0.755 0.0
H101 H 0.73579 0.77101 0.82641 0.0
H102 H 0.78818 0.80418 0.7484 0.0
N103 N 0.79661 0.75022 0.76938 0.0
N104 N 0.82831 0.74114 0.74777 0.0
C105 C 0.80131 0.73043 0.75655 0.0
C106 C 0.82153 0.77426 0.76895 0.0
C107 C 0.84111 0.76874 0.7555 0.0
C108 C 0.72732 0.71497 0.83375 0.0
O109 O 0.70712 0.71687 0.81961 0.0
H110 H 0.78496 0.70884 0.75251 0.0
H111 H 0.82508 0.79451 0.77709 0.0
O112 O 0.7373 0.72545 0.74502 0.0
H113 H 0.77691 0.84294 0.76974 0.0
H114 H 0.86299 0.7839 0.75146 0.0
Cu115 Cu 0.30807 0.02255 0.77274 0.0
N116 N 0.3048 0.05443 0.7643 0.0
N117 N 0.31511 0.09681 0.74602 0.0
C118 C 0.32342 0.07751 0.74852 0.0
C119 C 0.29022 0.08543 0.76094 0.0
C120 C 0.28388 0.05928 0.77207 0.0
O121 O 0.322 1.01388 0.73484 0.0
C122 C 0.32805 0.0411 0.83345 0.0
O123 O 0.31097 0.05121 0.83114 0.0
H124 H 0.34289 0.08031 0.73933 0.0
H125 H 0.26534 0.04484 0.78499 0.0
N126 N 0.27325 0.99118 0.7816 0.0
N127 N 0.24188 0.9492 0.80107 0.0
C128 C 0.26907 0.96984 0.80054 0.0
C129 C 0.2479 0.9839 0.7696 0.0
C130 C 0.22848 0.95808 0.78167 0.0
C131 C 0.34658 0.02918 0.72399 0.0
O132 O 0.36535 0.05048 0.74075 0.0
H133 H 0.2858 0.96951 0.81353 0.0
H134 H 0.24393 0.99622 0.75278 0.0
O135 O 0.33134 0.02878 0.80976 0.0
H136 H 0.2773 0.09508 0.76326 0.0
H137 H 0.20639 0.94641 0.7758 0.0
Cu138 Cu 0.6969 0.07745 0.60778 0.0
N139 N 0.66505 0.08076 0.60106 0.0
N140 N 0.62269 0.07047 0.58293 0.0
C141 C 0.64279 0.06314 0.58327 0.0
C142 C 0.63295 0.09379 0.60124 0.0
C143 C 0.65905 0.10008 0.61235 0.0
O144 O 0.70179 0.0615 0.56906 0.0
C145 C 0.67182 0.04605 0.66353 0.0
O146 O 0.65006 0.04837 0.65538 0.0
H147 H 0.64161 0.0454 0.57067 0.0
H148 H 0.67258 0.11734 0.62778 0.0
N149 N 0.72883 0.11262 0.61489 0.0
N150 N 0.77112 0.14478 0.63335 0.0
C151 C 0.7502 0.11763 0.63432 0.0
C152 C 0.73633 0.1374 0.60114 0.0
C153 C 0.76239 0.15728 0.61247 0.0
C154 C 0.72497 0.06428 0.55975 0.0
O155 O 0.74687 0.07596 0.57854 0.0
H156 H 0.75067 0.10138 0.64815 0.0
H157 H 0.72387 0.14067 0.58383 0.0
O158 O 0.69279 0.05519 0.64516 0.0
H159 H 0.62226 0.1053 0.60675 0.0
H160 H 0.77393 0.17923 0.60582 0.0
Cu161 Cu 0.97712 0.63029 0.61135 0.0
N162 N 0.97157 0.59467 0.60115 0.0
N163 N 0.98077 0.5622 0.58127 0.0
C164 C 0.98903 0.58992 0.58341 0.0
C165 C 0.95698 0.54909 0.59838 0.0
C166 C 0.9514 0.56916 0.61063 0.0
O167 O 0.99883 0.654 0.57654 0.0
C168 C 1.00342 0.66372 0.66653 0.0
O169 O 1.00041 0.68354 0.65302 0.0
H170 H 1.00752 0.60668 0.57243 0.0
H171 H 0.9342 0.56549 0.62582 0.0
N172 N 0.94282 0.62973 0.61424 0.0
N173 N 0.91082 0.64108 0.62963 0.0
C174 C 0.93432 0.64051 0.63748 0.0
C175 C 0.92374 0.62277 0.59116 0.0
C176 C 0.90406 0.62985 0.60051 0.0
C177 C 0.99506 0.67291 0.56409 0.0
O178 O 0.97873 0.68067 0.57805 0.0
H179 H 0.94595 0.6493 0.65898 0.0
H180 H 0.92495 0.61454 0.56847 0.0
O181 O 0.99617 0.64083 0.65176 0.0
H182 H 0.94477 0.52666 0.60254 0.0
H183 H 0.88663 0.62772 0.5866 0.0
Cu184 Cu 0.42525 0.35467 0.60219 0.0
N185 N 0.45992 0.38656 0.59258 0.0
N186 N 0.49119 0.42939 0.57468 0.0
C187 C 0.46388 0.41103 0.58067 0.0
C188 C 0.50499 0.41595 0.58361 0.0
C189 C 0.4857 0.38965 0.59464 0.0
O190 O 0.40251 0.34317 0.56421 0.0
C191 C 0.42286 0.37903 0.65944 0.0
O192 O 0.45012 0.39394 0.65549 0.0
H193 H 0.44705 0.41537 0.57675 0.0
H194 H 0.49021 0.37382 0.60325 0.0
N195 N 0.42941 0.32406 0.61351 0.0
N196 N 0.41885 0.28268 0.63492 0.0
C197 C 0.41322 0.30403 0.63426 0.0
C198 C 0.44579 0.31509 0.6004 0.0
C199 C 0.43949 0.2897 0.61372 0.0
C200 C 0.39386 0.3576 0.54964 0.0
O201 O 0.39742 0.3811 0.56216 0.0
H202 H 0.39713 0.30485 0.64801 0.0
H203 H 0.4604 0.32563 0.58154 0.0
O204 O 0.40768 0.36187 0.63798 0.0
H205 H 0.52733 0.42415 0.58163 0.0
H206 H 0.44847 0.2768 0.60714 0.0
Cu207 Cu 0.69366 0.62919 0.11412 0.0
N208 N 0.66349 0.59376 0.10375 0.0
N209 N 0.62192 0.56155 0.08384 0.0
C210 C 0.64171 0.58913 0.08528 0.0
C211 C 0.63177 0.54835 0.10218 0.0
C212 C 0.65741 0.56828 0.11443 0.0
O213 O 0.69784 0.65286 0.07816 0.0
C214 C 0.69754 0.66403 0.16714 0.0
O215 O 0.7191 0.68483 0.15305 0.0
H216 H 0.64002 0.60588 0.07403 0.0
H217 H 0.67044 0.56454 0.13045 0.0
N218 N 0.72638 0.62728 0.12089 0.0
N219 N 0.7691 0.63816 0.13846 0.0
C220 C 0.74837 0.64459 0.13923 0.0
C221 C 0.73331 0.60912 0.10809 0.0
C222 C 0.75958 0.61575 0.11885 0.0
C223 C 0.72089 0.66808 0.06393 0.0
O224 O 0.74437 0.67183 0.07633 0.0
H225 H 0.74942 0.66201 0.15226 0.0
H226 H 0.72023 0.59236 0.0919 0.0
O227 O 0.68376 0.6403 0.15332 0.0
H228 H 0.62121 0.52593 0.10655 0.0
H229 H 0.77065 0.60474 0.11274 0.0
Cu230 Cu 0.42513 0.07845 0.10678 0.0
N231 N 0.46056 0.08419 0.09518 0.0
N232 N 0.4932 0.07362 0.07967 0.0
C233 C 0.46826 0.06437 0.09416 0.0
C234 C 0.50187 0.10069 0.07227 0.0
C235 C 0.48179 0.10711 0.08184 0.0
O236 O 0.39905 0.06011 0.07181 0.0
C237 C 0.39195 0.04994 0.16073 0.0
O238 O 0.37225 0.05347 0.14782 0.0
H239 H 0.45504 0.04313 0.10252 0.0
H240 H 0.48213 0.12672 0.07784 0.0
N241 N 0.4263 0.113 0.11278 0.0
N242 N 0.41453 0.14462 0.1294 0.0
C243 C 0.41446 0.12043 0.13591 0.0
C244 C 0.43424 0.13328 0.09107 0.0
C245 C 0.42726 0.15283 0.10129 0.0
C246 C 0.40091 0.04369 0.05191 0.0
O247 O 0.41834 0.03441 0.0572 0.0
H248 H 0.40443 0.10751 0.15614 0.0
H249 H 0.44293 0.13297 0.06846 0.0
O250 O 0.4147 0.05764 0.14596 0.0
H251 H 0.52051 0.11445 0.05907 0.0
H252 H 0.43042 0.17113 0.08837 0.0
Cu253 Cu 0.97359 0.35784 0.10887 0.0
N254 N 0.96986 0.38896 0.09822 0.0
N255 N 0.97947 0.43076 0.07877 0.0
C256 C 0.98711 0.41086 0.07998 0.0
C257 C 0.95644 0.4209 0.09698 0.0
C258 C 0.95061 0.39519 0.10893 0.0
O259 O 0.9861 0.34635 0.07185 0.0
C260 C 1.00602 0.35344 0.15959 0.0
O261 O 1.00182 0.32997 0.14628 0.0
H262 H 1.00542 0.41266 0.06861 0.0
H263 H 0.93378 0.38214 0.12477 0.0
N264 N 0.93849 0.32728 0.11933 0.0
N265 N 0.90596 0.28558 0.13838 0.0
C266 C 0.93321 0.30603 0.13904 0.0
C267 C 0.91367 0.3201 0.10585 0.0
C268 C 0.89358 0.29444 0.11755 0.0
C269 C 1.00935 0.36046 0.05766 0.0
O270 O 0.02934 0.38375 0.07047 0.0
H271 H 0.9492 0.3049 0.15254 0.0
H272 H 0.91061 0.33225 0.08798 0.0
O273 O 0.99762 0.36846 0.14584 0.0
H274 H 0.94464 0.43149 0.10145 0.0
H275 H 0.87167 0.28301 0.11082 0.0
Cu276 Cu 0.36518 0.41378 0.93618 0.0
N277 N 0.39643 0.4486 0.94659 0.0
N278 N 0.43798 0.47939 0.96789 0.0
C279 C 0.41561 0.45299 0.9689 0.0
C280 C 0.43253 0.49203 0.94397 0.0
C281 C 0.40709 0.47294 0.93073 0.0
O282 O 0.35814 0.38985 0.9727 0.0
C283 C 0.35937 0.38018 0.88147 0.0
O284 O 0.33352 0.36345 0.89066 0.0
H285 H 0.41356 0.43678 0.98486 0.0
H286 H 0.3978 0.47613 0.90993 0.0
N287 N 0.33377 0.41738 0.92602 0.0
N288 N 0.29081 0.40609 0.90877 0.0
C289 C 0.30774 0.39635 0.91868 0.0
C290 C 0.33306 0.44127 0.92132 0.0
C291 C 0.30672 0.43442 0.91068 0.0
C292 C 0.34067 0.38766 0.99362 0.0
O293 O 0.32518 0.39935 0.98895 0.0
H294 H 0.30136 0.3743 0.92052 0.0
H295 H 0.35064 0.4623 0.9245 0.0
O296 O 0.37597 0.40093 0.89874 0.0
H297 H 0.44663 0.51304 0.93545 0.0
H298 H 0.30027 0.44928 0.90365 0.0
Cu299 Cu 0.64321 0.96356 0.9431 0.0
N300 N 0.63959 0.92854 0.93271 0.0
N301 N 0.65079 0.89668 0.91551 0.0
C302 C 0.66051 0.92318 0.92648 0.0
C303 C 0.62259 0.88473 0.91553 0.0
C304 C 0.61578 0.90439 0.92608 0.0
O305 O 0.65638 0.98745 0.90602 0.0
C306 C 0.67203 1.00209 0.99276 0.0
O307 O 0.66407 0.01803 0.97822 0.0
H308 H 0.68248 0.93859 0.92935 0.0
H309 H 0.59494 0.90163 0.92751 0.0
N310 N 0.60802 0.95943 0.9523 0.0
N311 N 0.57586 0.96822 0.97354 0.0
C312 C 0.60084 0.9694 0.97751 0.0
C313 C 0.58669 0.95124 0.93187 0.0
C314 C 0.56684 0.9565 0.94486 0.0
C315 C 0.67672 0.9911 0.88865 0.0
O316 O 0.69312 0.98146 0.89774 0.0
H317 H 0.61419 0.9784 0.99782 0.0
H318 H 0.58646 0.94369 0.90833 0.0
O319 O 0.66697 0.9789 0.98014 0.0
H320 H 0.60794 0.86378 0.90695 0.0
H321 H 0.54819 0.95368 0.93308 0.0
Cu322 Cu 0.09014 0.6936 0.94615 0.0
N323 N 0.09128 0.66021 0.9514 0.0
N324 N 0.08004 0.61706 0.96785 0.0
C325 C 0.07536 0.63891 0.97099 0.0
C326 C 0.09995 0.6251 0.94555 0.0
C327 C 0.10677 0.65166 0.93542 0.0
O328 O 0.08022 0.70369 0.98597 0.0
C329 C 0.04988 0.66721 0.89662 0.0
O330 O 0.04562 0.64334 0.90851 0.0
H331 H 0.06053 0.63936 0.98719 0.0
H332 H 0.12155 0.66368 0.9172 0.0
N333 N 0.12544 0.72325 0.93537 0.0
N334 N 0.15766 0.76427 0.91475 0.0
C335 C 0.13003 0.74553 0.91787 0.0
C336 C 0.15099 0.7279 0.9437 0.0
C337 C 0.17093 0.75322 0.93102 0.0
C338 C 0.05674 0.68992 0.99981 0.0
O339 O 0.03583 0.66834 0.98549 0.0
H340 H 0.11329 0.74818 0.90829 0.0
H341 H 0.1548 0.71399 0.95816 0.0
O342 O 0.06594 0.6902 0.91098 0.0
H343 H 0.10839 0.61239 0.93649 0.0
H344 H 0.19342 0.76263 0.93349 0.0
Cu345 Cu 0.36338 0.96737 0.44295 0.0
N346 N 0.33185 0.93227 0.43458 0.0
N347 N 0.2896 0.90044 0.41565 0.0
C348 C 0.31025 0.92776 0.41583 0.0
C349 C 0.29882 0.88735 0.43511 0.0
C350 C 0.32482 0.90703 0.44677 0.0
O351 O 0.36811 0.98982 0.4057 0.0
C352 C 0.37134 1.00623 0.49256 0.0
O353 O 0.39315 0.0247 0.47656 0.0
H354 H 0.30979 0.94437 0.40272 0.0
H355 H 0.33745 0.90332 0.46341 0.0
N356 N 0.39513 0.9638 0.45046 0.0
N357 N 0.43691 0.9726 0.46921 0.0
C358 C 0.41696 0.98013 0.46952 0.0
C359 C 0.40134 0.9451 0.43771 0.0
C360 C 0.42704 0.95046 0.44917 0.0
C361 C 0.39077 1.00283 0.39016 0.0
O362 O 0.41387 1.00478 0.40152 0.0
H363 H 0.41847 0.99759 0.48287 0.0
H364 H 0.38817 0.92882 0.42108 0.0
O365 O 0.35548 0.98182 0.48102 0.0
H366 H 0.28736 0.86529 0.44126 0.0
H367 H 0.43748 0.93878 0.44324 0.0
Cu368 Cu 0.0852 0.40539 0.44409 0.0
N369 N 0.08835 0.44073 0.45133 0.0
N370 N 0.07905 0.47371 0.46951 0.0
C371 C 0.07186 0.44623 0.46997 0.0
C372 C 0.10114 0.48599 0.44981 0.0
C373 C 0.10679 0.46564 0.43868 0.0
O374 O 0.07088 0.38324 0.4821 0.0
C375 C 0.05055 0.39725 0.39028 0.0
O376 O 0.04845 0.41848 0.40147 0.0
H377 H 0.05453 0.43025 0.4831 0.0
H378 H 0.12308 0.46874 0.42233 0.0
N379 N 0.12034 0.40928 0.43628 0.0
N380 N 0.15239 0.3993 0.41749 0.0
C381 C 0.12493 0.3916 0.41851 0.0
C382 C 0.1457 0.42891 0.447 0.0
C383 C 0.16553 0.42283 0.43545 0.0
C384 C 0.0465 0.37462 0.49321 0.0
O385 O 0.02803 0.37765 0.47671 0.0
H386 H 0.10824 0.37313 0.40707 0.0
H387 H 0.14949 0.44634 0.46219 0.0
O388 O 0.0632 0.38743 0.40636 0.0
H389 H 0.11258 0.5081 0.44385 0.0
H390 H 0.18788 0.43498 0.43977 0.0
Cu391 Cu 0.64207 0.69365 0.44795 0.0
N392 N 0.63787 0.72467 0.43863 0.0
N393 N 0.64795 0.76635 0.4186 0.0
C394 C 0.65668 0.74752 0.42272 0.0
C395 C 0.62259 0.75483 0.43251 0.0
C396 C 0.61635 0.72903 0.44468 0.0
O397 O 0.66205 0.69028 0.41196 0.0
C398 C 0.65179 0.70693 0.5111 0.0
O399 O 0.63006 0.71028 0.50642 0.0
H400 H 0.67645 0.75025 0.41443 0.0
H401 H 0.59738 0.71439 0.45681 0.0
N402 N 0.60728 0.66084 0.45224 0.0
N403 N 0.57514 0.6178 0.46832 0.0
C404 C 0.60159 0.63954 0.47199 0.0
C405 C 0.58364 0.65246 0.43554 0.0
C406 C 0.56378 0.6259 0.44538 0.0
C407 C 0.65515 0.66736 0.39742 0.0
O408 O 0.63604 0.64338 0.40949 0.0
H409 H 0.61695 0.63964 0.48793 0.0
H410 H 0.58124 0.6646 0.41713 0.0
O411 O 0.66173 0.70002 0.48793 0.0
H412 H 0.60922 0.76407 0.43323 0.0
H413 H 0.54266 0.61351 0.43624 0.0
H414 H 1.0085 0.70335 0.19231 0.0
H415 H 0.09874 0.74172 0.19405 0.0
H416 H 1.00804 0.69248 0.13678 0.0
H417 H 0.09824 0.72997 0.13884 0.0
H418 H 0.09288 0.73654 0.03378 0.0
H419 H 0.09143 0.7452 0.08953 0.0
H420 H 1.01475 0.66519 0.09794 0.0
H421 H 1.01575 0.65703 0.04178 0.0
C422 C 0.02822 0.70895 0.18101 0.0
C423 C 0.05369 0.72355 0.19764 0.0
C424 C 0.02795 0.70268 0.14909 0.0
C425 C 0.05314 0.71066 0.13303 0.0
C426 C 0.07848 0.72413 0.15012 0.0
C427 C 0.07876 0.73062 0.18193 0.0
C428 C 0.07557 0.72089 0.04745 0.0
C429 C 0.05444 0.6961 0.03326 0.0
C430 C 0.07488 0.72571 0.07958 0.0
C431 C 0.05318 0.70574 0.09853 0.0
C432 C 0.03168 0.68118 0.08416 0.0
C433 C 0.03226 0.67647 0.0519 0.0
H434 H 0.29673 0.3625 0.03372 0.0
H435 H 0.38387 0.38658 1.0241 0.0
H436 H 0.29687 0.3474 0.08718 0.0
H437 H 0.38478 0.37322 0.07837 0.0
H438 H 0.37172 0.32615 0.1707 0.0
H439 H 0.37201 0.33858 0.11586 0.0
H440 H 0.31162 0.3649 0.13686 0.0
H441 H 0.31017 0.35074 0.19107 0.0
C442 C 0.31594 0.36452 0.04313 0.0
C443 C 0.34024 0.37563 1.02474 0.0
C444 C 0.31619 0.35621 0.074 0.0
C445 C 0.34099 0.35951 0.08766 0.0
C446 C 0.36516 0.37 0.06882 0.0
C447 C 0.3647 0.37772 0.03763 0.0
C448 C 0.3587 0.33482 0.16354 0.0
C449 C 0.34087 0.33742 0.18515 0.0
C450 C 0.35888 0.34203 0.13203 0.0
C451 C 0.3416 0.35253 0.12148 0.0
C452 C 0.3246 0.3561 0.1436 0.0
C453 C 0.32398 0.34831 0.17489 0.0
H454 H 0.72364 0.06861 0.18349 0.0
H455 H 0.70339 0.98176 0.18813 0.0
H456 H 0.71245 0.06302 0.12781 0.0
H457 H 0.69083 0.97564 0.1327 0.0
H458 H 0.69821 0.97968 0.027 0.0
H459 H 0.71033 0.98673 0.08257 0.0
H460 H 0.67762 0.04373 0.08949 0.0
H461 H 0.66685 0.03766 0.03373 0.0
C462 C 0.71619 0.04811 0.17276 0.0
C463 C 0.71442 0.02563 0.1903 0.0
C464 C 0.7097 0.04485 0.1407 0.0
C465 C 0.70088 0.0189 0.12538 0.0
C466 C 0.6982 0.99616 0.14331 0.0
C467 C 0.70509 0.99954 0.17527 0.0
C468 C 0.69396 0.99399 0.04036 0.0
C469 C 0.68172 1.00822 0.02586 0.0
C470 C 0.70059 0.99781 0.07239 0.0
C471 C 0.69475 1.01563 0.0909 0.0
C472 C 0.68287 0.03017 0.07614 0.0
C473 C 0.67663 0.02666 0.04404 0.0
H474 H 0.68811 0.05227 0.51099 0.0
H475 H 0.76913 0.06222 0.53333 0.0
H476 H 0.69572 0.04728 0.4556 0.0
H477 H 0.7763 0.0561 0.47822 0.0
H478 H 0.71022 0.01641 0.35996 0.0
H479 H 0.69975 0.01932 0.4152 0.0
H480 H 0.78671 0.08177 0.43141 0.0
H481 H 0.79714 0.07798 0.37694 0.0
C482 C 0.70736 0.0529 0.50416 0.0
C483 C 0.72812 0.05787 0.52662 0.0
C484 C 0.71169 0.04994 0.47232 0.0
C485 C 0.73681 0.05167 0.46217 0.0
C486 C 0.75701 0.05543 0.48492 0.0
C487 C 0.75281 0.05867 0.51666 0.0
C488 C 0.72695 0.03094 0.37535 0.0
C489 C 0.75452 0.04684 0.36415 0.0
C490 C 0.721 0.03263 0.40704 0.0
C491 C 0.74247 0.05045 0.42808 0.0
C492 C 0.76976 0.06716 0.41631 0.0
C493 C 0.77572 0.06522 0.3849 0.0
H494 H 0.99076 0.71273 0.52988 0.0
H495 H 1.02061 0.6534 0.52415 0.0
H496 H 1.00099 0.72339 0.47446 0.0
H497 H 0.03008 0.66344 0.46853 0.0
H498 H 0.0648 0.70574 0.37341 0.0
H499 H 0.05842 0.69718 0.42971 0.0
H500 H 0.9819 0.70088 0.42525 0.0
H501 H 0.98869 0.71016 0.36931 0.0
C502 C 0.99972 0.70211 0.51688 0.0
C503 C 1.00475 0.68213 0.53152 0.0
C504 C 1.00533 0.70801 0.48496 0.0
C505 C 1.01597 0.69397 0.46677 0.0
C506 C 1.02206 0.67481 0.48174 0.0
C507 C 1.01657 0.66901 0.51371 0.0
C508 C 0.04649 0.70448 0.38441 0.0
C509 C 0.0273 0.7087 0.3668 0.0
C510 C 0.04282 0.69956 0.41674 0.0
C511 C 1.0198 0.69864 0.43222 0.0
C512 C 1.00024 0.70211 0.41436 0.0
C513 C 1.00398 0.70715 0.38214 0.0
H514 H 0.38996 0.39093 0.50462 0.0
H515 H 0.37492 0.30674 0.52053 0.0
H516 H 0.37833 0.37965 0.44929 0.0
H517 H 0.36217 0.29503 0.46563 0.0
H518 H 0.37046 0.28986 0.36147 0.0
H519 H 0.38324 0.3039 0.41592 0.0
H520 H 0.34263 0.35395 0.41181 0.0
H521 H 0.33084 0.34073 0.35687 0.0
C522 C 0.38364 0.36984 0.49643 0.0
C523 C 0.38348 0.34977 0.51697 0.0
C524 C 0.37693 0.36333 0.46464 0.0
C525 C 0.36962 0.3365 0.45271 0.0
C526 C 0.36843 0.31615 0.47365 0.0
C527 C 0.37546 0.32276 0.50528 0.0
C528 C 0.36457 0.30416 0.37207 0.0
C529 C 0.34962 0.31414 0.35481 0.0
C530 C 0.37162 0.31198 0.40347 0.0
C531 C 0.36359 0.32973 0.41861 0.0
C532 C 0.34938 0.34044 0.40099 0.0
C533 C 0.34259 0.33284 0.36943 0.0
H534 H 0.96231 0.30221 0.86686 0.0
H535 H 0.05272 0.34328 0.86355 0.0
H536 H 0.96483 0.3145 0.92216 0.0
H537 H 0.05523 0.35488 0.91916 0.0
H538 H 0.04874 0.39279 1.01386 0.0
H539 H 0.04851 0.3827 0.95801 0.0
H540 H 0.97502 0.3009 0.97114 0.0
H541 H 0.97479 0.31133 0.0266 0.0
C542 C 0.98275 0.31399 0.87788 0.0
C543 C 1.00728 0.32169 0.8607 0.0
C544 C 0.98421 0.3208 0.90975 0.0
C545 C 1.01023 0.33534 0.9254 0.0
C546 C 0.03483 0.34383 0.90795 0.0
C547 C 0.03338 0.33714 0.87599 0.0
C548 C 0.03275 0.37251 1.00488 0.0
C549 C 1.01171 0.35293 1.02473 0.0
C550 C 0.03261 0.36671 0.9728 0.0
C551 C 1.01149 0.34112 0.95983 0.0
C552 C 0.99118 0.32112 0.98003 0.0
C553 C 0.99122 0.32699 1.01199 0.0
H554 H 0.76591 0.70422 0.02858 0.0
H555 H 0.67564 0.65259 1.02515 0.0
H556 H 0.76638 0.71533 0.97331 0.0
H557 H 0.67614 0.66292 0.96956 0.0
H558 H 0.68595 0.70703 0.87512 0.0
H559 H 0.68393 0.69744 0.93112 0.0
H560 H 0.75999 0.69312 0.92373 0.0
H561 H 0.76245 0.70361 0.86807 0.0
C562 C 0.74613 0.69536 1.01608 0.0
C563 C 0.72076 0.67748 0.03135 0.0
C564 C 0.7464 0.70148 0.98423 0.0
C565 C 0.72134 0.6897 0.96667 0.0
C566 C 0.69586 0.67257 0.98225 0.0
C567 C 0.69556 0.66661 1.01421 0.0
C568 C 0.7021 0.70378 0.8854 0.0
C569 C 0.7244 0.70617 0.86707 0.0
C570 C 0.70094 0.69824 0.91758 0.0
C571 C 0.72196 0.69478 0.9322 0.0
C572 C 0.74378 0.69634 0.91356 0.0
C573 C 0.74505 0.70208 0.8815 0.0
H574 H 0.41322 0.02436 0.99858 0.0
H575 H 0.35896 0.05388 0.03403 0.0
H576 H 0.39652 0.02362 0.94566 0.0
H577 H 0.34105 0.05176 0.98122 0.0
H578 H 0.33821 0.07753 0.88171 0.0
H579 H 0.35472 0.07632 0.93422 0.0
H580 H 0.36056 1.00298 0.9085 0.0
H581 H 0.34532 1.00524 0.85532 0.0
C582 C 0.39722 0.03009 0.99518 0.0
C583 C 0.38754 0.03934 1.02057 0.0
C584 C 0.38753 0.02959 0.9647 0.0
C585 C 0.3676 0.03796 0.95882 0.0
C586 C 0.35697 0.04592 0.98454 0.0
C587 C 0.36698 0.04683 1.01497 0.0
C588 C 0.34331 0.06132 0.8872 0.0
C589 C 0.34056 0.04154 0.86436 0.0
C590 C 0.35246 0.06038 0.9175 0.0
C591 C 0.35864 0.03928 0.92603 0.0
C592 C 0.35633 0.01974 0.90289 0.0
C593 C 0.34759 0.02099 0.87234 0.0
H594 H 0.32045 0.98158 0.68779 0.0
H595 H 0.38506 0.0691 0.68504 0.0
H596 H 0.32709 0.9768 0.63214 0.0
H597 H 0.39066 0.06501 0.62903 0.0
H598 H 0.41139 0.04313 0.5332 0.0
H599 H 0.40677 0.04818 0.58925 0.0
H600 H 0.31808 0.98752 0.5828 0.0
H601 H 0.32329 0.98136 0.52712 0.0
C602 C 0.3361 0.99981 0.67522 0.0
C603 C 0.35233 0.02565 0.69084 0.0
C604 C 0.33971 0.99722 0.64314 0.0
C605 C 0.35921 0.02059 0.62562 0.0
C606 C 0.37573 0.04636 0.64154 0.0
C607 C 0.37251 0.04877 0.67377 0.0
C608 C 0.39086 0.03111 0.54375 0.0
C609 C 0.3677 1.01186 0.52574 0.0
C610 C 0.38815 0.03402 0.576 0.0
C611 C 0.36206 0.01812 0.59098 0.0
C612 C 0.3387 0.9996 0.57253 0.0
C613 C 0.34156 0.99629 0.54043 0.0
H614 H 0.07037 0.35136 0.6899 0.0
H615 H 0.98265 0.32628 0.68455 0.0
H616 H 0.07539 0.36215 0.63417 0.0
H617 H 0.98706 0.33539 0.62849 0.0
H618 H 1.00883 0.37725 0.53263 0.0
H619 H 1.00349 0.3681 0.58868 0.0
H620 H 0.06568 0.34191 0.5848 0.0
H621 H 0.07206 0.35274 0.52911 0.0
C622 C 0.05214 0.34816 0.67675 0.0
C623 C 0.02617 0.33811 0.69167 0.0
C624 C 0.05489 0.35401 0.64462 0.0
C625 C 0.03157 0.34938 0.62637 0.0
C626 C 1.00566 0.33969 0.64157 0.0
C627 C 1.00306 0.33438 0.67384 0.0
C628 C 1.02113 0.36925 0.54374 0.0
C629 C 0.04084 0.36569 0.52642 0.0
C630 C 1.01805 0.36392 0.57599 0.0
C631 C 0.03427 0.35439 0.5917 0.0
C632 C 0.05331 0.34993 0.57396 0.0
C633 C 0.05676 0.3558 0.54185 0.0
H634 H 0.68127 0.68327 0.53619 0.0
H635 H 0.64719 0.73696 0.55905 0.0
H636 H 0.69535 0.68498 0.59099 0.0
H637 H 0.66228 0.7399 0.61304 0.0
H638 H 0.741 0.7181 0.68601 0.0
H639 H 0.72612 0.71247 0.63139 0.0
H640 H 0.65157 0.71438 0.65919 0.0
H641 H 0.6673 0.7215 0.71353 0.0
C642 C 0.67722 0.69581 0.55282 0.0
C643 C 0.66302 0.70987 0.54335 0.0
C644 C 0.68529 0.69684 0.58427 0.0
C645 C 0.67965 0.71227 0.60682 0.0
C646 C 0.66626 0.72704 0.59682 0.0
C647 C 0.65784 0.72564 0.56567 0.0
C648 C 0.72125 0.71699 0.68047 0.0
C649 C 0.70543 0.72047 0.70413 0.0
C650 C 0.71265 0.71367 0.64905 0.0
C651 C 0.68779 0.71339 0.64053 0.0
C652 C 0.67127 0.71536 0.66455 0.0
C653 C 0.68011 0.71914 0.69585 0.0
H654 H 0.4126 0.40291 0.85845 0.0
H655 H 0.32559 0.35185 0.83161 0.0
H656 H 0.42661 0.40183 0.80459 0.0
H657 H 0.33937 0.35193 0.7774 0.0
H658 H 0.37515 0.33735 0.68667 0.0
H659 H 0.35961 0.33595 0.74051 0.0
H660 H 0.42808 0.4209 0.75562 0.0
H661 H 0.44426 0.42154 0.70246 0.0
C662 C 0.39646 0.39144 0.841 0.0
C663 C 0.36801 0.37746 0.84933 0.0
C664 C 0.40444 0.39107 0.80996 0.0
C665 C 0.38416 0.37714 0.78627 0.0
C666 C 0.35568 0.36263 0.79486 0.0
C667 C 0.34773 0.36262 0.82603 0.0
C668 C 0.38662 0.35582 0.70145 0.0
C669 C 0.41095 0.37953 0.69038 0.0
C670 C 0.37773 0.35506 0.73239 0.0
C671 C 0.39275 0.37818 0.75282 0.0
C672 C 0.4164 0.40234 0.74108 0.0
C673 C 0.42552 0.40288 0.7104 0.0
H674 H 0.71773 0.05047 0.69429 0.0
H675 H 0.62927 0.02038 0.70571 0.0
H676 H 0.72079 0.03927 0.74896 0.0
H677 H 0.63208 1.00841 0.75989 0.0
H678 H 0.64958 0.01689 0.86361 0.0
H679 H 0.64962 0.03036 0.80927 0.0
H680 H 0.70808 1.00226 0.78578 0.0
H681 H 0.70875 0.98972 0.84036 0.0
C682 C 0.69884 0.04102 0.7083 0.0
C683 C 0.67326 0.03637 0.69559 0.0
C684 C 0.70058 0.03459 0.7397 0.0
C685 C 0.67676 0.02321 0.75911 0.0
C686 C 0.65104 0.01778 0.746 0.0
C687 C 0.64935 0.02438 0.71474 0.0
C688 C 0.66271 1.0139 0.84693 0.0
C689 C 0.6791 1.00216 0.85639 0.0
C690 C 0.66253 0.02136 0.81564 0.0
C691 C 0.67853 0.01704 0.79287 0.0
C692 C 0.69564 1.00613 0.80259 0.0
C693 C 0.69599 0.99888 0.83397 0.0
H694 H 1.01362 0.62243 0.86021 0.0
H695 H 0.06466 0.71319 0.85939 0.0
H696 H 1.00229 0.62268 0.80506 0.0
H697 H 0.05396 0.7134 0.80394 0.0
H698 H 1.00963 0.7041 0.70923 0.0
H699 H 1.01885 0.70542 0.7654 0.0
H700 H 0.0254 0.63039 0.75579 0.0
H701 H 1.01545 0.62866 0.7 0.0
C702 C 1.02227 0.64247 0.84834 0.0
C703 C 0.04013 0.66776 0.86427 0.0
C704 C 1.016 0.64261 0.81657 0.0
C705 C 0.02756 0.66803 0.79979 0.0
C706 C 0.04454 0.69343 0.81606 0.0
C707 C 0.0507 0.6933 0.84792 0.0
C708 C 1.01326 0.68802 0.71908 0.0
C709 C 1.01171 0.66623 0.70007 0.0
C710 C 1.01858 0.68879 0.75133 0.0
C711 C 1.02257 0.66783 0.76532 0.0
C712 C 1.02176 0.64651 0.74606 0.0
C713 C 1.01632 0.64566 0.71393 0.0
H714 H 0.64777 0.62292 0.36104 0.0
H715 H 0.68423 0.71337 0.35969 0.0
H716 H 0.65897 0.62333 0.30577 0.0
H717 H 0.69461 0.71372 0.30412 0.0
H718 H 0.73009 0.70584 0.20925 0.0
H719 H 0.72213 0.70722 0.26536 0.0
H720 H 0.64293 0.62962 0.25649 0.0
H721 H 0.65132 0.62783 0.20079 0.0
C722 C 0.65833 0.64293 0.349 0.0
C723 C 0.66502 0.66808 0.36485 0.0
C724 C 0.66451 0.64315 0.31716 0.0
C725 C 0.67733 0.66851 0.30019 0.0
C726 C 0.68492 0.6938 0.31635 0.0
C727 C 0.67892 0.6936 0.3483 0.0
C728 C 0.71086 0.68923 0.21924 0.0
C729 C 0.69139 0.66668 0.20049 0.0
C730 C 0.70627 0.69001 0.25147 0.0
C731 C 0.68202 0.66835 0.26569 0.0
C732 C 0.66218 0.64631 0.24663 0.0
C733 C 0.66686 0.64542 0.21454 0.0
H734 H 0.42532 0.03437 0.19214 0.0
H735 H 0.35369 0.04564 0.20461 0.0
H736 H 0.42422 0.02358 0.24756 0.0
H737 H 0.35314 0.0358 0.26038 0.0
H738 H 0.34487 0.99063 0.35389 0.0
H739 H 0.34399 1.00077 0.29847 0.0
H740 H 0.43463 0.04611 0.2972 0.0
H741 H 0.43544 0.03511 0.35228 0.0
C742 C 0.40928 0.0345 0.20672 0.0
C743 C 0.3896 0.04089 0.19388 0.0
C744 C 0.40882 0.02859 0.23865 0.0
C745 C 0.38883 0.02917 0.25873 0.0
C746 C 0.36871 0.0349 0.2457 0.0
C747 C 0.36903 0.04059 0.21366 0.0
C748 C 0.36463 1.00303 0.34187 0.0
C749 C 0.39024 1.01197 0.35756 0.0
C750 C 0.36412 1.0089 0.31001 0.0
C751 C 0.38923 0.02402 0.29308 0.0
C752 C 0.41484 0.03382 0.30917 0.0
C753 C 0.41533 0.02776 0.34091 0.0
H754 H 1.01922 0.41013 0.35128 0.0
H755 H 0.06346 0.36363 0.35434 0.0
H756 H 1.00959 0.39904 0.29575 0.0
H757 H 0.05461 0.35324 0.29845 0.0
H758 H 1.01056 0.31898 0.20277 0.0
H759 H 1.02027 0.32785 0.25879 0.0
H760 H 0.03356 0.41195 0.24717 0.0
H761 H 1.02298 0.40273 0.19152 0.0
C762 C 0.0268 0.39743 0.34014 0.0
C763 C 0.04214 0.38782 0.35733 0.0
C764 C 1.02154 0.3913 0.30813 0.0
C765 C 0.03169 0.37559 0.29232 0.0
C766 C 0.0463 0.36523 0.30977 0.0
C767 C 0.05139 0.37121 0.34189 0.0
C768 C 1.01592 0.33949 0.21211 0.0
C769 C 1.01586 0.36009 0.19263 0.0
C770 C 1.0215 0.34459 0.2443 0.0
C771 C 0.02731 0.3705 0.25776 0.0
C772 C 0.02843 0.39148 0.23791 0.0
C773 C 1.02265 0.38631 0.20586 0.0
H774 H 0.26355 0.92764 0.39203 0.0
H775 H 0.2546 0.84504 0.40149 0.0
H776 H 0.21873 0.90689 0.36475 0.0
H777 H 0.20956 0.82434 0.37449 0.0
H778 H 0.11659 0.79504 0.35617 0.0
H779 H 0.16177 0.81589 0.38273 0.0
H780 H 0.19636 0.88317 0.31514 0.0
H781 H 0.15125 0.86219 0.28822 0.0
C782 C 0.25228 0.90511 0.38813 0.0
C783 C 0.26298 0.88813 0.39913 0.0
C784 C 0.22645 0.89319 0.37244 0.0
C785 C 0.21047 0.86392 0.36743 0.0
C786 C 0.22111 0.84691 0.37834 0.0
C787 C 0.24701 0.85884 0.3939 0.0
C788 C 0.13379 0.81411 0.34666 0.0
C789 C 0.13004 0.82677 0.31982 0.0
C790 C 0.15979 0.8261 0.36198 0.0
C791 C 0.18277 0.85119 0.35106 0.0
C792 C 0.17903 0.86402 0.32443 0.0
C793 C 0.15306 0.85195 0.30898 0.0
H794 H 0.18288 0.27803 0.31921 0.0
H795 H 0.26429 0.3534 0.32447 0.0
H796 H 0.16244 0.30218 0.34733 0.0
H797 H 0.24385 0.37738 0.35271 0.0
H798 H 0.20209 0.40192 0.43033 0.0
H799 H 0.22273 0.37761 0.40288 0.0
H800 H 0.15173 0.3399 0.33972 0.0
H801 H 0.13115 0.36427 0.36698 0.0
C802 C 0.19645 0.29976 0.32615 0.0
C803 C 0.22532 0.31364 0.3194 0.0
C804 C 0.18469 0.31364 0.34232 0.0
C805 C 0.20147 0.34177 0.35228 0.0
C806 C 0.23035 0.3556 0.3458 0.0
C807 C 0.2421 0.34176 0.32956 0.0
C808 C 0.19095 0.38868 0.41043 0.0
C809 C 0.16484 0.3851 0.40103 0.0
C810 C 0.20281 0.37469 0.39468 0.0
C811 C 0.18887 0.3567 0.36911 0.0
C812 C 0.16283 0.35319 0.35964 0.0
C813 C 0.151 0.36721 0.37534 0.0
H814 H 0.76892 0.91511 0.3175 0.0
H815 H 0.69586 0.92451 0.32497 0.0
H816 H 0.74498 0.87135 0.34696 0.0
H817 H 0.67161 0.8805 0.35383 0.0
H818 H 0.64473 0.81343 0.42962 0.0
H819 H 0.66959 0.85827 0.40218 0.0
H820 H 0.70848 0.82386 0.34221 0.0
H821 H 0.68406 0.77938 0.37012 0.0
C822 C 0.74767 0.90773 0.32526 0.0
C823 C 0.73435 0.92335 0.31885 0.0
C824 C 0.73386 0.88255 0.34209 0.0
C825 C 0.70623 0.87218 0.35276 0.0
C826 C 0.693 0.88796 0.34651 0.0
C827 C 0.70691 0.91325 0.32988 0.0
C828 C 0.65849 0.81545 0.41049 0.0
C829 C 0.66246 0.79283 0.40217 0.0
C830 C 0.67275 0.84116 0.39467 0.0
C831 C 0.69118 0.84486 0.36992 0.0
C832 C 0.69496 0.82211 0.36153 0.0
C833 C 0.68088 0.7965 0.3775 0.0
H834 H 0.87834 0.13693 0.23956 0.0
H835 H 0.79515 0.11879 0.21296 0.0
H836 H 0.89811 0.18295 0.21493 0.0
H837 H 0.81476 0.16518 0.18981 0.0
H838 H 0.86116 0.23616 0.11942 0.0
H839 H 0.84124 0.19073 0.14527 0.0
H840 H 0.90236 0.22862 0.21985 0.0
H841 H 0.92249 0.27407 0.19367 0.0
C842 C 0.86422 0.14271 0.22861 0.0
C843 C 0.83508 0.12393 0.22833 0.0
C844 C 0.87556 0.16931 0.21477 0.0
C845 C 0.85808 0.17788 0.20029 0.0
C846 C 0.82894 0.15923 0.20034 0.0
C847 C 0.81762 0.13265 0.21408 0.0
C848 C 0.87016 0.23492 0.1415 0.0
C849 C 0.89345 0.25885 0.15443 0.0
C850 C 0.85871 0.2088 0.15639 0.0
C851 C 0.87014 0.2059 0.18472 0.0
C852 C 0.89328 0.22991 0.19782 0.0
C853 C 0.90481 0.25602 0.18284 0.0
H854 H 0.78292 0.67266 0.18963 0.0
H855 H 0.81679 0.63707 0.1241 0.0
H856 H 0.82822 0.69786 0.21588 0.0
H857 H 0.86197 0.66202 0.15078 0.0
H858 H 0.92871 0.68677 0.22845 0.0
H859 H 0.8839 0.66211 0.20126 0.0
H860 H 0.87642 0.73675 0.20652 0.0
H861 H 0.92152 0.76173 0.23339 0.0
C862 C 0.79996 0.67029 0.18057 0.0
C863 C 0.79595 0.65274 0.15451 0.0
C864 C 0.82603 0.68479 0.19573 0.0
C865 C 0.84878 0.68203 0.18543 0.0
C866 C 0.8448 0.66437 0.15957 0.0
C867 C 0.81878 0.64998 0.14427 0.0
C868 C 0.91785 0.6982 0.22357 0.0
C869 C 0.92905 0.72644 0.23328 0.0
C870 C 0.89201 0.68393 0.20794 0.0
C871 C 0.87651 0.6974 0.20171 0.0
C872 C 0.88762 0.7256 0.21133 0.0
C873 C 0.91356 0.73995 0.22681 0.0
H874 H 0.3519 0.25219 0.19719 0.0
H875 H 0.30862 0.17738 0.25388 0.0
H876 H 0.37747 0.23247 0.17134 0.0
H877 H 0.33336 0.15704 0.22679 0.0
H878 H 0.40301 0.14047 0.19184 0.0
H879 H 0.37881 0.16083 0.22036 0.0
H880 H 0.36965 0.1966 0.1342 0.0
H881 H 0.39381 0.17656 0.10597 0.0
C882 C 0.34781 0.23156 0.2043 0.0
C883 C 0.32808 0.2165 0.22781 0.0
C884 C 0.3623 0.22005 0.1891 0.0
C885 C 0.35744 0.19304 0.19678 0.0
C886 C 0.33787 0.178 0.22043 0.0
C887 C 0.32338 0.18956 0.23572 0.0
C888 C 0.39577 0.15263 0.179 0.0
C889 C 0.40064 0.157 0.14659 0.0
C890 C 0.38182 0.16427 0.19535 0.0
C891 C 0.37234 0.18053 0.17967 0.0
C892 C 0.37714 0.18475 0.14725 0.0
C893 C 0.39109 0.17321 0.13099 0.0
H894 H 0.78227 0.1274 0.68838 0.0
H895 H 0.82031 0.19088 0.6168 0.0
H896 H 0.82678 0.14838 0.71657 0.0
H897 H 0.86484 0.21179 0.64488 0.0
H898 H 0.93178 0.25926 0.72013 0.0
H899 H 0.88752 0.238 0.69164 0.0
H900 H 0.87355 0.15519 0.71405 0.0
H901 H 0.9179 0.17654 0.74275 0.0
C902 C 0.80014 0.14568 0.67847 0.0
C903 C 0.79754 0.15739 0.65023 0.0
C904 C 0.82576 0.15772 0.69465 0.0
C905 C 0.84953 0.18182 0.68307 0.0
C906 C 0.84693 0.19352 0.65483 0.0
C907 C 0.8213 0.1815 0.63867 0.0
C908 C 0.91951 0.23652 0.71874 0.0
C909 C 0.92861 0.21967 0.73377 0.0
C910 C 0.89402 0.22428 0.70234 0.0
C911 C 0.87684 0.19482 0.70044 0.0
C912 C 0.88596 0.17794 0.71538 0.0
C913 C 0.91147 0.1902 0.73184 0.0
H914 H 0.88761 0.67048 0.60592 0.0
H915 H 0.90536 0.64216 0.69264 0.0
H916 H 0.86757 0.69463 0.63528 0.0
H917 H 0.88501 0.66616 0.72212 0.0
H918 H 0.81577 0.68713 0.75601 0.0
H919 H 0.83563 0.66209 0.72773 0.0
H920 H 0.88764 0.737 0.6742 0.0
H921 H 0.86802 0.76204 0.70267 0.0
C922 C 0.88694 0.66916 0.63125 0.0
C923 C 0.89798 0.65434 0.64699 0.0
C924 C 0.8757 0.68318 0.64806 0.0
C925 C 0.87478 0.68232 0.68098 0.0
C926 C 0.88533 0.66708 0.69675 0.0
C927 C 0.89709 0.65348 0.67993 0.0
C928 C 0.83145 0.69819 0.73821 0.0
C929 C 0.84037 0.72654 0.73158 0.0
C930 C 0.84292 0.68394 0.72218 0.0
C931 C 0.86313 0.69758 0.69872 0.0
C932 C 0.87198 0.7259 0.69204 0.0
C933 C 0.86092 0.74029 0.70848 0.0
H934 H 0.35173 0.11115 0.69775 0.0
H935 H 0.31196 0.14378 0.75876 0.0
H936 H 0.37701 0.15655 0.67189 0.0
H937 H 0.33746 0.18942 0.73299 0.0
H938 H 0.36534 0.25734 0.65672 0.0
H939 H 0.34027 0.21266 0.68417 0.0
H940 H 0.41411 0.20416 0.68045 0.0
H941 H 0.43911 0.24879 0.65278 0.0
C942 C 0.34857 0.12809 0.70591 0.0
C943 C 0.32984 0.12376 0.73048 0.0
C944 C 0.36314 0.15421 0.69106 0.0
C945 C 0.35945 0.1768 0.7004 0.0
C946 C 0.34059 0.17244 0.72489 0.0
C947 C 0.32595 0.14624 0.7397 0.0
C948 C 0.37639 0.24616 0.66206 0.0
C949 C 0.4043 0.25673 0.6524 0.0
C950 C 0.36196 0.22046 0.67785 0.0
C951 C 0.37507 0.20465 0.68447 0.0
C952 C 0.40313 0.21545 0.67524 0.0
C953 C 0.41753 0.24111 0.65939 0.0
H954 H 0.18773 0.91628 0.81923 0.0
H955 H 0.26878 0.92178 0.82087 0.0
H956 H 0.16752 0.87154 0.84679 0.0
H957 H 0.24858 0.87709 0.84836 0.0
H958 H 0.2085 0.81073 0.92564 0.0
H959 H 0.22898 0.85566 0.8984 0.0
H960 H 0.15567 0.82305 0.8388 0.0
H961 H 0.13521 0.7782 0.86605 0.0
C962 C 0.20123 0.90791 0.82524 0.0
C963 C 0.22994 0.92279 0.81776 0.0
C964 C 0.18962 0.88219 0.84106 0.0
C965 C 0.20639 0.87062 0.84982 0.0
C966 C 0.23511 0.88554 0.84244 0.0
C967 C 0.24672 0.91125 0.82664 0.0
C968 C 0.19684 0.81302 0.90655 0.0
C969 C 0.17012 0.79076 0.89818 0.0
C970 C 0.2086 0.83883 0.8909 0.0
C971 C 0.19396 0.84307 0.86642 0.0
C972 C 0.16734 0.82075 0.85791 0.0
C973 C 0.15559 0.79496 0.87356 0.0
H974 H 0.11451 0.3331 0.85657 0.0
H975 H 0.1499 0.30265 0.78688 0.0
H976 H 0.15944 0.357 0.88395 0.0
H977 H 0.19496 0.3268 0.81398 0.0
H978 H 0.26599 0.35312 0.88383 0.0
H979 H 0.21965 0.32684 0.86015 0.0
H980 H 0.20572 0.39642 0.87883 0.0
H981 H 0.25154 0.42217 0.9039 0.0
C982 C 0.13192 0.33164 0.84695 0.0
C983 C 0.12853 0.31598 0.81941 0.0
C984 C 0.15776 0.3454 0.86265 0.0
C985 C 0.18099 0.34398 0.8512 0.0
C986 C 0.17749 0.32805 0.82383 0.0
C987 C 0.1516 0.31418 0.80821 0.0
C988 C 0.25295 0.3627 0.88344 0.0
C989 C 0.26273 0.38991 0.89589 0.0
C990 C 0.2264 0.34771 0.8694 0.0
C991 C 0.20886 0.35949 0.86732 0.0
C992 C 0.21844 0.38649 0.88023 0.0
C993 C 0.24496 0.40145 0.89433 0.0
H994 H 0.72843 0.79713 0.86283 0.0
H995 H 0.74635 0.8562 0.78748 0.0
H996 H 0.70474 0.81783 0.89128 0.0
H997 H 0.72309 0.877 0.81621 0.0
H998 H 0.70219 0.92497 0.8885 0.0
H999 H 0.72813 0.90488 0.86365 0.0
H1000 H 0.6617 0.82128 0.88686 0.0
H1001 H 0.636 0.84148 0.91241 0.0
C1002 C 0.72733 0.8144 0.85216 0.0
C1003 C 0.73942 0.82479 0.82259 0.0
C1004 C 0.71372 0.82632 0.86859 0.0
C1005 C 0.71201 0.8491 0.85607 0.0
C1006 C 0.72437 0.85974 0.82679 0.0
C1007 C 0.7378 0.84774 0.81026 0.0
C1008 C 0.69329 0.90235 0.88881 0.0
C1009 C 0.66695 0.88486 0.90251 0.0
C1010 C 0.70804 0.89079 0.87421 0.0
C1011 C 0.69695 0.86144 0.87308 0.0
C1012 C 0.67096 0.84398 0.88748 0.0
C1013 C 0.6561 0.85554 0.90189 0.0
H1014 H 0.54534 0.4723 0.5774 0.0
H1015 H 0.46388 0.44944 0.53918 0.0
H1016 H 0.56533 0.51782 0.55176 0.0
H1017 H 0.4836 0.49542 0.51494 0.0
H1018 H 0.5339 0.56729 0.44648 0.0
H1019 H 0.51345 0.522 0.47282 0.0
H1020 H 0.56681 0.56218 0.55324 0.0
H1021 H 0.58749 0.60742 0.52662 0.0
C1022 C 0.53161 0.4769 0.56365 0.0
C1023 C 0.50292 0.45693 0.56045 0.0
C1024 C 0.54306 0.50325 0.54921 0.0
C1025 C 0.52613 0.51043 0.5312 0.0
C1026 C 0.4974 0.49058 0.52825 0.0
C1027 C 0.48597 0.46421 0.54259 0.0
C1028 C 0.54108 0.56654 0.46989 0.0
C1029 C 0.5624 0.59106 0.48437 0.0
C1030 C 0.52932 0.54051 0.48507 0.0
C1031 C 0.53843 0.5383 0.51523 0.0
C1032 C 0.55957 0.56291 0.52983 0.0
C1033 C 0.57143 0.58892 0.51457 0.0
H1034 H 0.59472 1.01618 0.56165 0.0
H1035 H 0.58925 0.09205 0.56709 0.0
H1036 H 0.54989 0.99236 0.53425 0.0
H1037 H 0.54422 0.06801 0.53998 0.0
H1038 H 0.4508 1.00648 0.52097 0.0
H1039 H 0.49566 0.0301 0.54824 0.0
H1040 H 0.52855 0.99294 0.48377 0.0
H1041 H 0.48378 0.96953 0.45609 0.0
C1042 C 0.58419 0.02795 0.55685 0.0
C1043 C 0.5959 0.05621 0.5667 0.0
C1044 C 0.55836 1.0142 0.5411 0.0
C1045 C 0.54339 0.02822 0.53488 0.0
C1046 C 0.55498 0.05642 0.54477 0.0
C1047 C 0.58088 0.07023 0.56039 0.0
C1048 C 0.46756 1.00346 0.51228 0.0
C1049 C 0.46342 0.98604 0.48605 0.0
C1050 C 0.49338 0.01706 0.52803 0.0
C1051 C 0.5158 1.01353 0.51819 0.0
C1052 C 0.51165 0.99589 0.49223 0.0
C1053 C 0.48586 0.9824 0.47634 0.0
H1054 H 0.08212 0.52384 0.45638 0.0
H1055 H 0.04457 0.45353 0.52026 0.0
H1056 H 0.05843 0.54525 0.48339 0.0
H1057 H 1.02061 0.47482 0.54676 0.0
H1058 H 0.95889 0.50721 0.56371 0.0
H1059 H 0.98289 0.48598 0.53695 0.0
H1060 H 0.05884 0.56689 0.53454 0.0
H1061 H 0.03518 0.58814 0.56169 0.0
C1062 C 0.06905 0.51296 0.47625 0.0
C1063 C 0.06536 0.48678 0.48589 0.0
C1064 C 0.05539 0.52528 0.49174 0.0
C1065 C 0.03752 0.51171 0.51718 0.0
C1066 C 0.03386 0.48563 0.52693 0.0
C1067 C 0.04766 0.47339 0.51161 0.0
C1068 C 0.98075 0.52053 0.55781 0.0
C1069 C 0.99491 0.54953 0.56503 0.0
C1070 C 0.99453 0.50829 0.54238 0.0
C1071 C 1.0228 0.52473 0.53355 0.0
C1072 C 0.03695 0.55369 0.5406 0.0
C1073 C 1.02326 0.5659 0.5562 0.0
H1074 H 0.46045 0.45053 0.99561 0.0
H1075 H 0.47403 0.53438 0.9814 0.0
H1076 H 0.50481 0.47011 1.0239 0.0
H1077 H 0.51829 0.55402 1.00996 0.0
H1078 H 0.60964 0.58145 0.03164 0.0
H1079 H 0.56476 0.56134 1.0044 0.0
H1080 H 0.52867 0.49354 0.07143 0.0
H1081 H 0.57371 0.51358 0.09847 0.0
C1082 C 0.47266 0.47312 0.99888 0.0
C1083 C 0.46361 0.49086 0.98609 0.0
C1084 C 0.49819 0.4844 1.01514 0.0
C1085 C 0.51532 0.51371 1.01915 0.0
C1086 C 0.50599 0.53139 1.00682 0.0
C1087 C 0.48053 0.52012 0.99048 0.0
C1088 C 0.59211 0.56236 0.04071 0.0
C1089 C 0.59537 0.54921 0.06734 0.0
C1090 C 0.56629 0.55082 1.0251 0.0
C1091 C 0.54293 0.52584 0.03573 0.0
C1092 C 0.54624 0.51258 0.06227 0.0
C1093 C 0.57212 0.52408 0.07782 0.0
H1094 H 0.60188 1.00893 1.01855 0.0
H1095 H 0.52171 0.95662 0.97335 0.0
H1096 H 0.58193 0.03247 0.04839 0.0
H1097 H 0.50222 0.98125 1.00193 0.0
H1098 H 0.46738 0.01652 0.07246 0.0
H1099 H 0.48745 0.98936 0.05114 0.0
H1100 H 0.5671 0.06586 0.04014 0.0
H1101 H 0.54745 0.09286 0.06307 0.0
C1102 C 0.57995 1.00218 1.01505 0.0
C1103 C 0.56354 0.98083 0.99318 0.0
C1104 C 0.56856 1.01604 0.03197 0.0
C1105 C 0.54048 1.00905 0.02747 0.0
C1106 C 0.52385 0.98713 1.00634 0.0
C1107 C 0.53518 0.97317 0.98955 0.0
C1108 C 0.48933 0.0276 0.06619 0.0
C1109 C 0.50567 0.05709 0.06944 0.0
C1110 C 0.50078 1.01196 0.05348 0.0
C1111 C 0.52888 0.02534 0.04353 0.0
C1112 C 0.54546 0.05469 0.04773 0.0
C1113 C 0.53405 0.0703 0.06058 0.0
H1114 H 0.02763 0.59174 0.99249 0.0
H1115 H 0.09968 0.58129 0.97939 0.0
H1116 H 1.00332 0.54663 1.01909 0.0
H1117 H 0.07539 0.53611 1.00625 0.0
H1118 H 1.01235 0.44345 0.02709 0.0
H1119 H 0.03685 0.48854 1.00023 0.0
H1120 H 1.00382 0.52398 0.06694 0.0
H1121 H 0.97922 0.47888 0.09363 0.0
C1122 C 0.03846 0.58 0.99559 0.0
C1123 C 0.06573 0.5903 0.98384 0.0
C1124 C 1.02448 0.55405 1.01088 0.0
C1125 C 0.03736 0.53766 1.01494 0.0
C1126 C 0.06463 0.54793 1.00317 0.0
C1127 C 0.0786 0.57389 0.98778 0.0
C1128 C 1.01044 0.46089 0.03618 0.0
C1129 C 0.99373 0.45742 0.06258 0.0
C1130 C 1.02456 0.48682 1.02077 0.0
C1131 C 1.02238 0.51 0.03137 0.0
C1132 C 1.00565 0.50651 0.05776 0.0
C1133 C 0.99149 0.48058 0.07312 0.0
loop_
_geom_bond_atom_site_label_1
_geom_bond_atom_site_label_2
_geom_bond_distance
_geom_bond_site_symmetry_2
_ccdc_geom_bond_type
Cu0 N1 1.999 . S
Cu0 O6 1.968 1_455 S
Cu0 N11 1.985 1_455 S
Cu0 O20 1.959 . S
N1 Cu0 1.999 . S
N1 C3 1.263 . S
N1 C5 1.389 . S
N2 C3 1.358 . S
N2 C4 1.400 . S
C3 N1 1.263 . S
C3 N2 1.358 . S
C3 H9 0.930 . S
C4 N2 1.400 . S
C4 C5 1.351 . S
C4 H21 0.930 . S
C5 N1 1.389 . S
C5 C4 1.351 . S
C5 H10 0.930 . S
O6 Cu0 1.968 1_655 S
O6 C16 1.268 . S
C7 O8 1.261 . S
C7 O20 1.251 . S
O8 C7 1.261 . S
H9 C3 0.930 . S
H10 C5 0.930 . S
N11 Cu0 1.985 1_655 S
N11 C13 1.335 . S
N11 C14 1.390 . S
N12 C13 1.345 . S
N12 C15 1.336 . S
C13 N11 1.335 . S
C13 N12 1.345 . S
C13 H18 0.930 . S
C14 N11 1.390 . S
C14 C15 1.346 . S
C14 H19 0.930 . S
C15 N12 1.336 . S
C15 C14 1.346 . S
C15 H22 0.929 . S
C16 O6 1.268 . S
C16 O17 1.216 . S
O17 C16 1.216 . S
H18 C13 0.930 . S
H19 C14 0.930 . S
O20 Cu0 1.959 . S
O20 C7 1.251 . S
H21 C4 0.930 . S
H22 C15 0.929 . S
Cu23 N24 1.999 . S
Cu23 O29 1.974 . S
Cu23 N34 1.985 . S
Cu23 O43 1.959 . S
N24 Cu23 1.999 . S
N24 C26 1.263 . S
N24 C28 1.389 . S
N25 C26 1.358 . S
N25 C27 1.400 . S
C26 N24 1.263 . S
C26 N25 1.358 . S
C26 H32 0.930 . S
C27 N25 1.400 . S
C27 C28 1.351 . S
C27 H44 0.930 . S
C28 N24 1.389 . S
C28 C27 1.351 . S
C28 H33 0.930 . S
O29 Cu23 1.974 . S
O29 C39 1.282 . S
C30 O31 1.261 . S
C30 O43 1.251 . S
O31 C30 1.261 . S
H32 C26 0.930 . S
H33 C28 0.930 . S
N34 Cu23 1.985 . S
N34 C36 1.335 . S
N34 C37 1.390 . S
N35 C36 1.345 . S
N35 C38 1.336 . S
C36 N34 1.335 . S
C36 N35 1.345 . S
C36 H41 0.930 . S
C37 N34 1.390 . S
C37 C38 1.346 . S
C37 H42 0.930 . S
C38 N35 1.336 . S
C38 C37 1.346 . S
C38 H45 0.929 . S
C39 O29 1.282 . S
C39 O40 1.216 . S
O40 C39 1.216 . S
H41 C36 0.930 . S
H42 C37 0.930 . S
O43 Cu23 1.959 . S
O43 C30 1.251 . S
H44 C27 0.930 . S
H45 C38 0.929 . S
Cu46 N47 1.999 1_545 S
Cu46 O52 1.974 . S
Cu46 N57 1.985 . S
Cu46 O66 1.959 1_545 S
N47 Cu46 1.999 1_565 S
N47 C49 1.263 . S
N47 C51 1.389 . S
N48 C49 1.358 . S
N48 C50 1.400 . S
C49 N47 1.263 . S
C49 N48 1.358 . S
C49 H55 0.930 . S
C50 N48 1.400 . S
C50 C51 1.351 . S
C50 H67 0.930 . S
C51 N47 1.389 . S
C51 C50 1.351 . S
C51 H56 0.930 . S
O52 Cu46 1.974 . S
O52 C62 1.282 . S
C53 O54 1.261 . S
C53 O66 1.251 . S
O54 C53 1.261 . S
H55 C49 0.930 . S
H56 C51 0.930 . S
N57 Cu46 1.985 . S
N57 C59 1.335 . S
N57 C60 1.390 . S
N58 C59 1.345 . S
N58 C61 1.336 . S
C59 N57 1.335 . S
C59 N58 1.345 . S
C59 H64 0.930 . S
C60 N57 1.390 . S
C60 C61 1.346 . S
C60 H65 0.930 . S
C61 N58 1.336 . S
C61 C60 1.346 . S
C61 H68 0.929 . S
C62 O52 1.282 . S
C62 O63 1.216 . S
O63 C62 1.216 . S
H64 C59 0.930 . S
H65 C60 0.930 . S
O66 Cu46 1.959 1_565 S
O66 C53 1.251 . S
H67 C50 0.930 . S
H68 C61 0.929 . S
Cu69 N70 1.999 1_455 S
Cu69 O75 1.974 . S
Cu69 N80 1.985 . S
Cu69 O89 1.960 1_455 S
N70 Cu69 1.999 1_655 S
N70 C72 1.263 . S
N70 C74 1.389 . S
N71 C72 1.358 . S
N71 C73 1.400 . S
C72 N70 1.263 . S
C72 N71 1.358 . S
C72 H78 0.930 . S
C73 N71 1.400 . S
C73 C74 1.351 . S
C73 H90 0.930 . S
C74 N70 1.389 . S
C74 C73 1.351 . S
C74 H79 0.930 . S
O75 Cu69 1.974 . S
O75 C85 1.282 . S
C76 O77 1.261 . S
C76 O89 1.248 . S
O77 C76 1.261 . S
H78 C72 0.930 . S
H79 C74 0.930 . S
N80 Cu69 1.985 . S
N80 C82 1.335 . S
N80 C83 1.390 . S
N81 C82 1.345 . S
N81 C84 1.336 . S
C82 N80 1.335 . S
C82 N81 1.345 . S
C82 H87 0.930 . S
C83 N80 1.390 . S
C83 C84 1.346 . S
C83 H88 0.930 . S
C84 N81 1.336 . S
C84 C83 1.346 . S
C84 H91 0.929 . S
C85 O75 1.282 . S
C85 O86 1.216 . S
O86 C85 1.216 . S
H87 C82 0.930 . S
H88 C83 0.930 . S
O89 Cu69 1.960 1_655 S
O89 C76 1.248 . S
H90 C73 0.930 . S
H91 C84 0.929 . S
Cu92 N93 1.999 . S
Cu92 O98 1.974 . S
Cu92 N103 1.985 . S
Cu92 O112 1.959 . S
N93 Cu92 1.999 . S
N93 C95 1.263 . S
N93 C97 1.389 . S
N94 C95 1.358 . S
N94 C96 1.400 . S
C95 N93 1.263 . S
C95 N94 1.358 . S
C95 H101 0.930 . S
C96 N94 1.400 . S
C96 C97 1.351 . S
C96 H113 0.930 . S
C97 N93 1.389 . S
C97 C96 1.351 . S
C97 H102 0.930 . S
O98 Cu92 1.974 . S
O98 C108 1.282 . S
C99 O100 1.261 . S
C99 O112 1.251 . S
O100 C99 1.261 . S
H101 C95 0.930 . S
H102 C97 0.930 . S
N103 Cu92 1.985 . S
N103 C105 1.335 . S
N103 C106 1.390 . S
N104 C105 1.345 . S
N104 C107 1.336 . S
C105 N103 1.335 . S
C105 N104 1.345 . S
C105 H110 0.930 . S
C106 N103 1.390 . S
C106 C107 1.346 . S
C106 H111 0.930 . S
C107 N104 1.336 . S
C107 C106 1.346 . S
C107 H114 0.929 . S
C108 O98 1.282 . S
C108 O109 1.216 . S
O109 C108 1.216 . S
H110 C105 0.930 . S
H111 C106 0.930 . S
O112 Cu92 1.959 . S
O112 C99 1.251 . S
H113 C96 0.930 . S
H114 C107 0.929 . S
Cu115 N116 1.999 . S
Cu115 O121 1.974 1_545 S
Cu115 N126 1.985 1_545 S
Cu115 O135 1.959 . S
N116 Cu115 1.999 . S
N116 C118 1.263 . S
N116 C120 1.389 . S
N117 C118 1.358 . S
N117 C119 1.400 . S
C118 N116 1.263 . S
C118 N117 1.358 . S
C118 H124 0.930 . S
C119 N117 1.400 . S
C119 C120 1.351 . S
C119 H136 0.930 . S
C120 N116 1.389 . S
C120 C119 1.351 . S
C120 H125 0.930 . S
O121 Cu115 1.974 1_565 S
O121 C131 1.282 . S
C122 O123 1.261 . S
C122 O135 1.251 . S
O123 C122 1.261 . S
H124 C118 0.930 . S
H125 C120 0.930 . S
N126 Cu115 1.985 1_565 S
N126 C128 1.335 . S
N126 C129 1.390 . S
N127 C128 1.345 . S
N127 C130 1.336 . S
C128 N126 1.335 . S
C128 N127 1.345 . S
C128 H133 0.930 . S
C129 N126 1.390 . S
C129 C130 1.346 . S
C129 H134 0.930 . S
C130 N127 1.336 . S
C130 C129 1.346 . S
C130 H137 0.929 . S
C131 O121 1.282 . S
C131 O132 1.216 . S
O132 C131 1.216 . S
H133 C128 0.930 . S
H134 C129 0.930 . S
O135 Cu115 1.959 . S
O135 C122 1.251 . S
H136 C119 0.930 . S
H137 C130 0.929 . S
Cu138 N139 1.999 . S
Cu138 O144 1.974 . S
Cu138 N149 1.985 . S
Cu138 O158 1.959 . S
N139 Cu138 1.999 . S
N139 C141 1.263 . S
N139 C143 1.389 . S
N140 C141 1.358 . S
N140 C142 1.400 . S
C141 N139 1.263 . S
C141 N140 1.358 . S
C141 H147 0.930 . S
C142 N140 1.400 . S
C142 C143 1.351 . S
C142 H159 0.930 . S
C143 N139 1.389 . S
C143 C142 1.351 . S
C143 H148 0.930 . S
O144 Cu138 1.974 . S
O144 C154 1.282 . S
C145 O146 1.261 . S
C145 O158 1.251 . S
O146 C145 1.261 . S
H147 C141 0.930 . S
H148 C143 0.930 . S
N149 Cu138 1.985 . S
N149 C151 1.335 . S
N149 C152 1.390 . S
N150 C151 1.345 . S
N150 C153 1.336 . S
C151 N149 1.335 . S
C151 N150 1.345 . S
C151 H156 0.930 . S
C152 N149 1.390 . S
C152 C153 1.346 . S
C152 H157 0.930 . S
C153 N150 1.336 . S
C153 C152 1.346 . S
C153 H160 0.929 . S
C154 O144 1.282 . S
C154 O155 1.216 . S
O155 C154 1.216 . S
H156 C151 0.930 . S
H157 C152 0.930 . S
O158 Cu138 1.959 . S
O158 C145 1.251 . S
H159 C142 0.930 . S
H160 C153 0.929 . S
Cu161 N162 1.999 . S
Cu161 O167 1.974 . S
Cu161 N172 1.985 . S
Cu161 O181 1.959 . S
N162 Cu161 1.999 . S
N162 C164 1.263 . S
N162 C166 1.389 . S
N163 C164 1.358 . S
N163 C165 1.400 . S
C164 N162 1.263 . S
C164 N163 1.358 . S
C164 H170 0.930 . S
C165 N163 1.400 . S
C165 C166 1.351 . S
C165 H182 0.930 . S
C166 N162 1.389 . S
C166 C165 1.351 . S
C166 H171 0.930 . S
O167 Cu161 1.974 . S
O167 C177 1.282 . S
C168 O169 1.261 . S
C168 O181 1.251 . S
O169 C168 1.261 . S
H170 C164 0.930 . S
H171 C166 0.930 . S
N172 Cu161 1.985 . S
N172 C174 1.335 . S
N172 C175 1.390 . S
N173 C174 1.345 . S
N173 C176 1.336 . S
C174 N172 1.335 . S
C174 N173 1.345 . S
C174 H179 0.930 . S
C175 N172 1.390 . S
C175 C176 1.346 . S
C175 H180 0.930 . S
C176 N173 1.336 . S
C176 C175 1.346 . S
C176 H183 0.929 . S
C177 O167 1.282 . S
C177 O178 1.216 . S
O178 C177 1.216 . S
H179 C174 0.930 . S
H180 C175 0.930 . S
O181 Cu161 1.959 . S
O181 C168 1.251 . S
H182 C165 0.930 . S
H183 C176 0.929 . S
Cu184 N185 1.999 . S
Cu184 O190 1.974 . S
Cu184 N195 1.985 . S
Cu184 O204 1.959 . S
N185 Cu184 1.999 . S
N185 C187 1.263 . S
N185 C189 1.389 . S
N186 C187 1.358 . S
N186 C188 1.400 . S
C187 N185 1.263 . S
C187 N186 1.358 . S
C187 H193 0.930 . S
C188 N186 1.400 . S
C188 C189 1.351 . S
C188 H205 0.930 . S
C189 N185 1.389 . S
C189 C188 1.351 . S
C189 H194 0.930 . S
O190 Cu184 1.974 . S
O190 C200 1.282 . S
C191 O192 1.261 . S
C191 O204 1.251 . S
O192 C191 1.261 . S
H193 C187 0.930 . S
H194 C189 0.930 . S
N195 Cu184 1.985 . S
N195 C197 1.335 . S
N195 C198 1.390 . S
N196 C197 1.345 . S
N196 C199 1.336 . S
C197 N195 1.335 . S
C197 N196 1.345 . S
C197 H202 0.930 . S
C198 N195 1.390 . S
C198 C199 1.346 . S
C198 H203 0.930 . S
C199 N196 1.336 . S
C199 C198 1.346 . S
C199 H206 0.929 . S
C200 O190 1.282 . S
C200 O201 1.216 . S
O201 C200 1.216 . S
H202 C197 0.930 . S
H203 C198 0.930 . S
O204 Cu184 1.959 . S
O204 C191 1.251 . S
H205 C188 0.930 . S
H206 C199 0.929 . S
Cu207 N208 1.999 . S
Cu207 O213 1.974 . S
Cu207 N218 1.985 . S
Cu207 O227 1.959 . S
N208 Cu207 1.999 . S
N208 C210 1.263 . S
N208 C212 1.389 . S
N209 C210 1.358 . S
N209 C211 1.400 . S
C210 N208 1.263 . S
C210 N209 1.358 . S
C210 H216 0.930 . S
C211 N209 1.400 . S
C211 C212 1.351 . S
C211 H228 0.930 . S
C212 N208 1.389 . S
C212 C211 1.351 . S
C212 H217 0.930 . S
O213 Cu207 1.974 . S
O213 C223 1.282 . S
C214 O215 1.261 . S
C214 O227 1.251 . S
O215 C214 1.261 . S
H216 C210 0.930 . S
H217 C212 0.930 . S
N218 Cu207 1.985 . S
N218 C220 1.335 . S
N218 C221 1.390 . S
N219 C220 1.345 . S
N219 C222 1.336 . S
C220 N218 1.335 . S
C220 N219 1.345 . S
C220 H225 0.930 . S
C221 N218 1.390 . S
C221 C222 1.346 . S
C221 H226 0.930 . S
C222 N219 1.336 . S
C222 C221 1.346 . S
C222 H229 0.929 . S
C223 O213 1.282 . S
C223 O224 1.216 . S
O224 C223 1.216 . S
H225 C220 0.930 . S
H226 C221 0.930 . S
O227 Cu207 1.959 . S
O227 C214 1.251 . S
H228 C211 0.930 . S
H229 C222 0.929 . S
Cu230 N231 1.999 . S
Cu230 O236 1.974 . S
Cu230 N241 1.985 . S
Cu230 O250 1.959 . S
N231 Cu230 1.999 . S
N231 C233 1.263 . S
N231 C235 1.389 . S
N232 C233 1.358 . S
N232 C234 1.400 . S
C233 N231 1.263 . S
C233 N232 1.358 . S
C233 H239 0.930 . S
C234 N232 1.400 . S
C234 C235 1.351 . S
C234 H251 0.930 . S
C235 N231 1.389 . S
C235 C234 1.351 . S
C235 H240 0.930 . S
O236 Cu230 1.974 . S
O236 C246 1.282 . S
C237 O238 1.261 . S
C237 O250 1.251 . S
O238 C237 1.261 . S
H239 C233 0.930 . S
H240 C235 0.930 . S
N241 Cu230 1.985 . S
N241 C243 1.335 . S
N241 C244 1.390 . S
N242 C243 1.345 . S
N242 C245 1.336 . S
C243 N241 1.335 . S
C243 N242 1.345 . S
C243 H248 0.930 . S
C244 N241 1.390 . S
C244 C245 1.346 . S
C244 H249 0.930 . S
C245 N242 1.336 . S
C245 C244 1.346 . S
C245 H252 0.929 . S
C246 O236 1.282 . S
C246 O247 1.216 . S
O247 C246 1.216 . S
H248 C243 0.930 . S
H249 C244 0.930 . S
O250 Cu230 1.959 . S
O250 C237 1.251 . S
H251 C234 0.930 . S
H252 C245 0.929 . S
Cu253 N254 1.999 . S
Cu253 O259 1.974 . S
Cu253 N264 1.985 . S
Cu253 O273 1.959 . S
N254 Cu253 1.999 . S
N254 C256 1.263 . S
N254 C258 1.389 . S
N255 C256 1.358 . S
N255 C257 1.400 . S
C256 N254 1.263 . S
C256 N255 1.358 . S
C256 H262 0.930 . S
C257 N255 1.400 . S
C257 C258 1.351 . S
C257 H274 0.930 . S
C258 N254 1.389 . S
C258 C257 1.351 . S
C258 H263 0.930 . S
O259 Cu253 1.974 . S
O259 C269 1.282 . S
C260 O261 1.261 . S
C260 O273 1.251 . S
O261 C260 1.261 . S
H262 C256 0.930 . S
H263 C258 0.930 . S
N264 Cu253 1.985 . S
N264 C266 1.335 . S
N264 C267 1.390 . S
N265 C266 1.345 . S
N265 C268 1.336 . S
C266 N264 1.335 . S
C266 N265 1.345 . S
C266 H271 0.930 . S
C267 N264 1.390 . S
C267 C268 1.346 . S
C267 H272 0.930 . S
C268 N265 1.336 . S
C268 C267 1.346 . S
C268 H275 0.929 . S
C269 O259 1.282 . S
C269 O270 1.216 . S
O270 C269 1.216 . S
H271 C266 0.930 . S
H272 C267 0.930 . S
O273 Cu253 1.959 . S
O273 C260 1.251 . S
H274 C257 0.930 . S
H275 C268 0.929 . S
Cu276 N277 1.999 . S
Cu276 O282 1.974 . S
Cu276 N287 1.985 . S
Cu276 O296 1.959 . S
N277 Cu276 1.999 . S
N277 C279 1.263 . S
N277 C281 1.389 . S
N278 C279 1.358 . S
N278 C280 1.400 . S
C279 N277 1.263 . S
C279 N278 1.358 . S
C279 H285 0.930 . S
C280 N278 1.400 . S
C280 C281 1.351 . S
C280 H297 0.930 . S
C281 N277 1.389 . S
C281 C280 1.351 . S
C281 H286 0.930 . S
O282 Cu276 1.974 . S
O282 C292 1.282 . S
C283 O284 1.261 . S
C283 O296 1.251 . S
O284 C283 1.261 . S
H285 C279 0.930 . S
H286 C281 0.930 . S
N287 Cu276 1.985 . S
N287 C289 1.335 . S
N287 C290 1.390 . S
N288 C289 1.345 . S
N288 C291 1.336 . S
C289 N287 1.335 . S
C289 N288 1.345 . S
C289 H294 0.930 . S
C290 N287 1.390 . S
C290 C291 1.346 . S
C290 H295 0.930 . S
C291 N288 1.336 . S
C291 C290 1.346 . S
C291 H298 0.929 . S
C292 O282 1.282 . S
C292 O293 1.216 . S
O293 C292 1.216 . S
H294 C289 0.930 . S
H295 C290 0.930 . S
O296 Cu276 1.959 . S
O296 C283 1.251 . S
H297 C280 0.930 . S
H298 C291 0.929 . S
Cu299 N300 1.999 . S
Cu299 O305 1.974 . S
Cu299 N310 1.985 . S
Cu299 O319 1.959 . S
N300 Cu299 1.999 . S
N300 C302 1.263 . S
N300 C304 1.389 . S
N301 C302 1.358 . S
N301 C303 1.400 . S
C302 N300 1.263 . S
C302 N301 1.358 . S
C302 H308 0.930 . S
C303 N301 1.400 . S
C303 C304 1.351 . S
C303 H320 0.930 . S
C304 N300 1.389 . S
C304 C303 1.351 . S
C304 H309 0.930 . S
O305 Cu299 1.974 . S
O305 C315 1.282 . S
C306 O307 1.261 . S
C306 O319 1.251 . S
O307 C306 1.261 . S
H308 C302 0.930 . S
H309 C304 0.930 . S
N310 Cu299 1.985 . S
N310 C312 1.335 . S
N310 C313 1.390 . S
N311 C312 1.345 . S
N311 C314 1.341 . S
C312 N310 1.335 . S
C312 N311 1.345 . S
C312 H317 0.930 . S
C313 N310 1.390 . S
C313 C314 1.357 . S
C313 H318 0.930 . S
C314 N311 1.341 . S
C314 C313 1.357 . S
C314 H321 0.917 1_565 S
C315 O305 1.282 . S
C315 O316 1.216 . S
O316 C315 1.216 . S
H317 C312 0.930 . S
H318 C313 0.930 . S
O319 Cu299 1.959 . S
O319 C306 1.251 . S
H320 C303 0.930 . S
H321 C314 0.917 1_545 S
Cu322 N323 1.999 . S
Cu322 O328 1.974 . S
Cu322 N333 1.985 . S
Cu322 O342 1.959 . S
N323 Cu322 1.999 . S
N323 C325 1.263 . S
N323 C327 1.389 . S
N324 C325 1.358 . S
N324 C326 1.400 . S
C325 N323 1.263 . S
C325 N324 1.358 . S
C325 H331 0.930 . S
C326 N324 1.400 . S
C326 C327 1.351 . S
C326 H343 0.930 . S
C327 N323 1.389 . S
C327 C326 1.351 . S
C327 H332 0.930 . S
O328 Cu322 1.974 . S
O328 C338 1.282 . S
C329 O330 1.261 . S
C329 O342 1.251 . S
O330 C329 1.261 . S
H331 C325 0.930 . S
H332 C327 0.930 . S
N333 Cu322 1.985 . S
N333 C335 1.335 . S
N333 C336 1.390 . S
N334 C335 1.345 . S
N334 C337 1.336 . S
C335 N333 1.335 . S
C335 N334 1.345 . S
C335 H340 0.930 . S
C336 N333 1.390 . S
C336 C337 1.346 . S
C336 H341 0.930 . S
C337 N334 1.336 . S
C337 C336 1.346 . S
C337 H344 0.929 . S
C338 O328 1.282 . S
C338 O339 1.216 . S
O339 C338 1.216 . S
H340 C335 0.930 . S
H341 C336 0.930 . S
O342 Cu322 1.959 . S
O342 C329 1.251 . S
H343 C326 0.930 . S
H344 C337 0.929 . S
Cu345 N346 1.999 . S
Cu345 O351 1.974 . S
Cu345 N356 1.985 . S
Cu345 O365 1.959 . S
N346 Cu345 1.999 . S
N346 C348 1.263 . S
N346 C350 1.389 . S
N347 C348 1.358 . S
N347 C349 1.400 . S
C348 N346 1.263 . S
C348 N347 1.358 . S
C348 H354 0.930 . S
C349 N347 1.400 . S
C349 C350 1.351 . S
C349 H366 0.930 . S
C350 N346 1.389 . S
C350 C349 1.351 . S
C350 H355 0.930 . S
O351 Cu345 1.974 . S
O351 C361 1.282 . S
C352 O353 1.261 . S
C352 O365 1.251 . S
O353 C352 1.261 . S
H354 C348 0.930 . S
H355 C350 0.930 . S
N356 Cu345 1.985 . S
N356 C358 1.335 . S
N356 C359 1.390 . S
N357 C358 1.345 . S
N357 C360 1.328 1_565 S
C358 N356 1.335 . S
C358 N357 1.345 . S
C358 H363 0.930 . S
C359 N356 1.390 . S
C359 C360 1.346 1_565 S
C359 H364 0.930 . S
C360 N357 1.328 1_545 S
C360 C359 1.346 1_545 S
C360 H367 0.938 . S
C361 O351 1.282 . S
C361 O362 1.216 . S
O362 C361 1.216 . S
H363 C358 0.930 . S
H364 C359 0.930 . S
O365 Cu345 1.959 . S
O365 C352 1.251 . S
H366 C349 0.930 . S
H367 C360 0.938 . S
Cu368 N369 1.999 . S
Cu368 O374 1.974 . S
Cu368 N379 1.985 . S
Cu368 O388 1.959 . S
N369 Cu368 1.999 . S
N369 C371 1.263 . S
N369 C373 1.389 . S
N370 C371 1.358 . S
N370 C372 1.400 . S
C371 N369 1.263 . S
C371 N370 1.358 . S
C371 H377 0.930 . S
C372 N370 1.400 . S
C372 C373 1.351 . S
C372 H389 0.930 . S
C373 N369 1.389 . S
C373 C372 1.351 . S
C373 H378 0.930 . S
O374 Cu368 1.974 . S
O374 C384 1.282 . S
C375 O376 1.261 . S
C375 O388 1.251 . S
O376 C375 1.261 . S
H377 C371 0.930 . S
H378 C373 0.930 . S
N379 Cu368 1.985 . S
N379 C381 1.335 . S
N379 C382 1.390 . S
N380 C381 1.345 . S
N380 C383 1.336 . S
C381 N379 1.335 . S
C381 N380 1.345 . S
C381 H386 0.930 . S
C382 N379 1.390 . S
C382 C383 1.346 . S
C382 H387 0.930 . S
C383 N380 1.336 . S
C383 C382 1.346 . S
C383 H390 0.929 . S
C384 O374 1.282 . S
C384 O385 1.216 . S
O385 C384 1.216 . S
H386 C381 0.930 . S
H387 C382 0.930 . S
O388 Cu368 1.959 . S
O388 C375 1.251 . S
H389 C372 0.930 . S
H390 C383 0.929 . S
Cu391 N392 1.999 . S
Cu391 O397 1.974 . S
Cu391 N402 1.985 . S
Cu391 O411 1.959 . S
N392 Cu391 1.999 . S
N392 C394 1.263 . S
N392 C396 1.389 . S
N393 C394 1.358 . S
N393 C395 1.400 . S
C394 N392 1.263 . S
C394 N393 1.358 . S
C394 H400 0.930 . S
C395 N393 1.400 . S
C395 C396 1.351 . S
C395 H412 0.930 . S
C396 N392 1.389 . S
C396 C395 1.351 . S
C396 H401 0.930 . S
O397 Cu391 1.974 . S
O397 C407 1.282 . S
C398 O399 1.261 . S
C398 O411 1.251 . S
O399 C398 1.261 . S
H400 C394 0.930 . S
H401 C396 0.930 . S
N402 Cu391 1.985 . S
N402 C404 1.335 . S
N402 C405 1.390 . S
N403 C404 1.345 . S
N403 C406 1.336 . S
C404 N402 1.335 . S
C404 N403 1.345 . S
C404 H409 0.930 . S
C405 N402 1.390 . S
C405 C406 1.346 . S
C405 H410 0.930 . S
C406 N403 1.336 . S
C406 C405 1.346 . S
C406 H413 0.929 . S
C407 O397 1.282 . S
C407 O408 1.216 . S
O408 C407 1.216 . S
H409 C404 0.930 . S
H410 C405 0.930 . S
O411 Cu391 1.959 . S
O411 C398 1.251 . S
H412 C395 0.930 . S
H413 C406 0.929 . S
H414 C422 0.950 1_655 S
H415 C427 0.950 . S
H416 C424 0.950 . S
H417 C426 0.950 . S
H418 C428 0.950 . S
H419 C430 0.950 . S
H420 C432 0.950 . S
H421 C433 0.950 . S
C422 H414 0.950 1_455 S
C422 C423 1.386 . S
C422 C424 1.391 . S
C423 C422 1.386 . S
C423 C427 1.393 . S
C424 H416 0.950 . S
C424 C422 1.391 . S
C424 C425 1.400 . S
C425 C424 1.400 . S
C425 C426 1.398 . S
C425 C431 1.491 . S
C426 H417 0.950 . S
C426 C425 1.398 . S
C426 C427 1.391 . S
C427 H415 0.950 . S
C427 C423 1.393 . S
C427 C426 1.391 . S
C428 H418 0.950 . S
C428 C429 1.386 . S
C428 C430 1.391 . S
C429 C428 1.386 . S
C429 C433 1.393 . S
C430 H419 0.950 . S
C430 C428 1.391 . S
C430 C431 1.400 . S
C431 C425 1.491 . S
C431 C430 1.400 . S
C431 C432 1.398 . S
C432 H420 0.950 . S
C432 C431 1.398 . S
C432 C433 1.391 . S
C433 H421 0.950 . S
C433 C429 1.393 . S
C433 C432 1.391 . S
H434 C442 0.950 . S
H435 C447 0.950 . S
H436 C444 0.950 . S
H437 C446 0.950 . S
H438 C448 0.950 . S
H439 C450 0.950 . S
H440 C452 0.950 . S
H441 C453 0.950 . S
C442 H434 0.950 . S
C442 C443 1.386 . S
C442 C444 1.391 . S
C443 C442 1.386 . S
C443 C447 1.393 . S
C444 H436 0.950 . S
C444 C442 1.391 . S
C444 C445 1.400 . S
C445 C444 1.400 . S
C445 C446 1.398 . S
C445 C451 1.491 . S
C446 H437 0.950 . S
C446 C445 1.398 . S
C446 C447 1.391 . S
C447 H435 0.950 . S
C447 C443 1.393 . S
C447 C446 1.391 . S
C448 H438 0.950 . S
C448 C449 1.386 . S
C448 C450 1.391 . S
C449 C448 1.386 . S
C449 C453 1.393 . S
C450 H439 0.950 . S
C450 C448 1.391 . S
C450 C451 1.400 . S
C451 C445 1.491 . S
C451 C450 1.400 . S
C451 C452 1.398 . S
C452 H440 0.950 . S
C452 C451 1.398 . S
C452 C453 1.391 . S
C453 H441 0.950 . S
C453 C449 1.393 . S
C453 C452 1.391 . S
H454 C462 0.950 . S
H455 C467 0.950 . S
H456 C464 0.984 . S
H457 C466 0.950 . S
H458 C468 0.950 . S
H459 C470 0.950 . S
H460 C472 0.950 1_545 S
H461 C473 0.950 . S
C462 H454 0.950 . S
C462 C463 1.386 1_545 S
C462 C464 1.392 . S
C463 C462 1.386 1_565 S
C463 C467 1.393 . S
C464 H456 0.984 . S
C464 C462 1.392 . S
C464 C465 1.368 1_545 S
C465 C464 1.368 1_565 S
C465 C466 1.398 . S
C465 C471 1.491 . S
C466 H457 0.950 . S
C466 C465 1.398 . S
C466 C467 1.391 . S
C467 H455 0.950 . S
C467 C463 1.393 . S
C467 C466 1.391 . S
C468 H458 0.950 . S
C468 C469 1.386 . S
C468 C470 1.391 . S
C469 C468 1.386 . S
C469 C473 1.393 . S
C470 H459 0.950 . S
C470 C468 1.391 . S
C470 C471 1.400 . S
C471 C465 1.491 . S
C471 C470 1.400 . S
C471 C472 1.398 . S
C472 H460 0.950 1_565 S
C472 C471 1.398 . S
C472 C473 1.391 . S
C473 H461 0.950 . S
C473 C469 1.393 . S
C473 C472 1.391 . S
H474 C482 0.950 . S
H475 C487 0.950 . S
H476 C484 0.950 . S
H477 C486 0.950 . S
H478 C488 0.950 1_565 S
H479 C490 0.950 . S
H480 C492 0.950 . S
H481 C493 0.950 . S
C482 H474 0.950 . S
C482 C483 1.386 . S
C482 C484 1.391 . S
C483 C482 1.386 . S
C483 C487 1.393 . S
C484 H476 0.950 . S
C484 C482 1.391 . S
C484 C485 1.400 . S
C485 C484 1.400 . S
C485 C486 1.398 . S
C485 C491 1.491 . S
C486 H477 0.950 . S
C486 C485 1.398 . S
C486 C487 1.391 . S
C487 H475 0.950 . S
C487 C483 1.393 . S
C487 C486 1.391 . S
C488 H478 0.950 1_545 S
C488 C489 1.386 . S
C488 C490 1.391 . S
C489 C488 1.386 . S
C489 C493 1.393 . S
C490 H479 0.950 . S
C490 C488 1.391 . S
C490 C491 1.400 . S
C491 C485 1.491 . S
C491 C490 1.400 . S
C491 C492 1.398 . S
C492 H480 0.950 . S
C492 C491 1.398 . S
C492 C493 1.391 . S
C493 H481 0.950 . S
C493 C489 1.393 . S
C493 C492 1.391 . S
H494 C502 0.950 . S
H495 C507 0.950 . S
H496 C504 0.950 . S
H497 C506 0.950 . S
H498 C508 0.950 . S
H499 C510 0.950 . S
H500 C512 0.950 . S
H501 C513 0.950 . S
C502 H494 0.950 . S
C502 C503 1.386 . S
C502 C504 1.391 . S
C503 C502 1.386 . S
C503 C507 1.393 . S
C504 H496 0.950 . S
C504 C502 1.391 . S
C504 C505 1.400 . S
C505 C504 1.400 . S
C505 C506 1.398 . S
C505 C511 1.491 . S
C506 H497 0.950 . S
C506 C505 1.398 . S
C506 C507 1.391 . S
C507 H495 0.950 . S
C507 C503 1.393 . S
C507 C506 1.391 . S
C508 H498 0.950 . S
C508 C509 1.386 . S
C508 C510 1.391 . S
C509 C508 1.386 . S
C509 C513 1.393 . S
C510 H499 0.950 . S
C510 C508 1.391 . S
C510 C511 1.400 . S
C511 C505 1.491 . S
C511 C510 1.400 . S
C511 C512 1.398 . S
C512 H500 0.950 . S
C512 C511 1.398 . S
C512 C513 1.391 . S
C513 H501 0.950 . S
C513 C509 1.393 . S
C513 C512 1.391 . S
H514 C522 0.950 . S
H515 C527 0.950 . S
H516 C524 0.950 . S
H517 C526 0.950 . S
H518 C528 0.950 . S
H519 C530 0.950 . S
H520 C532 0.950 . S
H521 C533 0.950 . S
C522 H514 0.950 . S
C522 C523 1.386 . S
C522 C524 1.391 . S
C523 C522 1.386 . S
C523 C527 1.393 . S
C524 H516 0.950 . S
C524 C522 1.391 . S
C524 C525 1.400 . S
C525 C524 1.400 . S
C525 C526 1.398 . S
C525 C531 1.491 . S
C526 H517 0.950 . S
C526 C525 1.398 . S
C526 C527 1.391 . S
C527 H515 0.950 . S
C527 C523 1.393 . S
C527 C526 1.391 . S
C528 H518 0.950 . S
C528 C529 1.386 . S
C528 C530 1.391 . S
C529 C528 1.386 . S
C529 C533 1.393 . S
C530 H519 0.950 . S
C530 C528 1.391 . S
C530 C531 1.400 . S
C531 C525 1.491 . S
C531 C530 1.400 . S
C531 C532 1.398 . S
C532 H520 0.950 . S
C532 C531 1.398 . S
C532 C533 1.391 . S
C533 H521 0.950 . S
C533 C529 1.393 . S
C533 C532 1.391 . S
H534 C542 0.950 . S
H535 C547 0.950 . S
H536 C544 0.950 . S
H537 C546 0.950 . S
H538 C548 0.950 1_455 S
H539 C550 0.950 1_455 S
H540 C552 0.950 . S
H541 C553 0.950 . S
C542 H534 0.950 . S
C542 C543 1.386 . S
C542 C544 1.391 . S
C543 C542 1.386 . S
C543 C547 1.393 1_655 S
C544 H536 0.950 . S
C544 C542 1.391 . S
C544 C545 1.400 . S
C545 C544 1.400 . S
C545 C546 1.398 1_655 S
C545 C551 1.491 . S
C546 H537 0.950 . S
C546 C545 1.398 1_455 S
C546 C547 1.391 . S
C547 H535 0.950 . S
C547 C543 1.393 1_455 S
C547 C546 1.391 . S
C548 H538 0.950 1_655 S
C548 C549 1.386 . S
C548 C550 1.391 . S
C549 C548 1.386 . S
C549 C553 1.393 . S
C550 H539 0.950 1_655 S
C550 C548 1.391 . S
C550 C551 1.400 . S
C551 C545 1.491 . S
C551 C550 1.400 . S
C551 C552 1.398 . S
C552 H540 0.950 . S
C552 C551 1.398 . S
C552 C553 1.391 . S
C553 H541 0.950 . S
C553 C549 1.393 . S
C553 C552 1.391 . S
H554 C562 0.950 . S
H555 C567 0.950 . S
H556 C564 0.950 . S
H557 C566 0.950 . S
H558 C568 0.950 . S
H559 C570 0.950 . S
H560 C572 0.950 . S
H561 C573 0.950 . S
C562 H554 0.950 . S
C562 C563 1.386 . S
C562 C564 1.391 . S
C563 C562 1.386 . S
C563 C567 1.393 . S
C564 H556 0.950 . S
C564 C562 1.391 . S
C564 C565 1.400 . S
C565 C564 1.400 . S
C565 C566 1.398 . S
C565 C571 1.491 . S
C566 H557 0.950 . S
C566 C565 1.398 . S
C566 C567 1.391 . S
C567 H555 0.950 . S
C567 C563 1.393 . S
C567 C566 1.391 . S
C568 H558 0.950 . S
C568 C569 1.386 . S
C568 C570 1.391 . S
C569 C568 1.386 . S
C569 C573 1.393 . S
C570 H559 0.950 . S
C570 C568 1.391 . S
C570 C571 1.400 . S
C571 C565 1.491 . S
C571 C570 1.400 . S
C571 C572 1.398 . S
C572 H560 0.950 . S
C572 C571 1.398 . S
C572 C573 1.391 . S
C573 H561 0.950 . S
C573 C569 1.393 . S
C573 C572 1.391 . S
H574 C582 0.950 . S
H575 C587 0.950 . S
H576 C584 0.950 . S
H577 C586 0.950 . S
H578 C588 0.950 . S
H579 C590 0.950 . S
H580 C592 0.950 1_565 S
H581 C593 0.950 1_565 S
C582 H574 0.950 . S
C582 C583 1.386 . S
C582 C584 1.391 . S
C583 C582 1.386 . S
C583 C587 1.393 . S
C584 H576 0.950 . S
C584 C582 1.391 . S
C584 C585 1.400 . S
C585 C584 1.400 . S
C585 C586 1.398 . S
C585 C591 1.491 . S
C586 H577 0.950 . S
C586 C585 1.398 . S
C586 C587 1.391 . S
C587 H575 0.950 . S
C587 C583 1.393 . S
C587 C586 1.391 . S
C588 H578 0.950 . S
C588 C589 1.386 . S
C588 C590 1.391 . S
C589 C588 1.386 . S
C589 C593 1.393 . S
C590 H579 0.950 . S
C590 C588 1.391 . S
C590 C591 1.400 . S
C591 C585 1.491 . S
C591 C590 1.400 . S
C591 C592 1.398 . S
C592 H580 0.950 1_545 S
C592 C591 1.398 . S
C592 C593 1.391 . S
C593 H581 0.950 1_545 S
C593 C589 1.393 . S
C593 C592 1.391 . S
H594 C602 0.950 . S
H595 C607 0.950 . S
H596 C604 0.950 . S
H597 C606 0.950 . S
H598 C608 0.950 . S
H599 C610 0.950 1_545 S
H600 C612 0.950 . S
H601 C613 0.950 . S
C602 H594 0.950 . S
C602 C603 1.386 . S
C602 C604 1.391 . S
C603 C602 1.386 . S
C603 C607 1.393 1_565 S
C604 H596 0.950 . S
C604 C602 1.391 . S
C604 C605 1.400 . S
C605 C604 1.400 . S
C605 C606 1.398 1_565 S
C605 C611 1.491 . S
C606 H597 0.950 . S
C606 C605 1.398 1_545 S
C606 C607 1.391 . S
C607 H595 0.950 . S
C607 C603 1.393 1_545 S
C607 C606 1.391 . S
C608 H598 0.950 . S
C608 C609 1.386 . S
C608 C610 1.391 . S
C609 C608 1.386 . S
C609 C613 1.393 . S
C610 H599 0.950 1_565 S
C610 C608 1.391 . S
C610 C611 1.400 . S
C611 C605 1.491 . S
C611 C610 1.400 . S
C611 C612 1.398 . S
C612 H600 0.950 . S
C612 C611 1.398 . S
C612 C613 1.391 . S
C613 H601 0.950 . S
C613 C609 1.393 . S
C613 C612 1.391 . S
H614 C622 0.950 . S
H615 C627 0.950 1_655 S
H616 C624 0.950 . S
H617 C626 0.950 1_655 S
H618 C628 0.950 . S
H619 C630 0.950 . S
H620 C632 0.950 . S
H621 C633 0.950 . S
C622 H614 0.950 . S
C622 C623 1.386 . S
C622 C624 1.391 . S
C623 C622 1.386 . S
C623 C627 1.393 . S
C624 H616 0.950 . S
C624 C622 1.391 . S
C624 C625 1.400 . S
C625 C624 1.400 . S
C625 C626 1.398 . S
C625 C631 1.491 . S
C626 H617 0.950 1_455 S
C626 C625 1.398 . S
C626 C627 1.391 . S
C627 H615 0.950 1_455 S
C627 C623 1.393 . S
C627 C626 1.391 . S
C628 H618 0.950 . S
C628 C629 1.386 . S
C628 C630 1.391 . S
C629 C628 1.386 . S
C629 C633 1.393 . S
C630 H619 0.950 . S
C630 C628 1.391 . S
C630 C631 1.400 . S
C631 C625 1.491 . S
C631 C630 1.400 . S
C631 C632 1.398 . S
C632 H620 0.950 . S
C632 C631 1.398 . S
C632 C633 1.391 . S
C633 H621 0.950 . S
C633 C629 1.393 . S
C633 C632 1.391 . S
H634 C642 0.950 . S
H635 C647 0.950 . S
H636 C644 0.950 . S
H637 C646 0.950 . S
H638 C648 0.950 . S
H639 C650 0.950 . S
H640 C652 0.950 . S
H641 C653 0.950 . S
C642 H634 0.950 . S
C642 C643 1.386 . S
C642 C644 1.391 . S
C643 C642 1.386 . S
C643 C647 1.393 . S
C644 H636 0.950 . S
C644 C642 1.391 . S
C644 C645 1.400 . S
C645 C644 1.400 . S
C645 C646 1.398 . S
C645 C651 1.491 . S
C646 H637 0.950 . S
C646 C645 1.398 . S
C646 C647 1.391 . S
C647 H635 0.950 . S
C647 C643 1.393 . S
C647 C646 1.391 . S
C648 H638 0.950 . S
C648 C649 1.386 . S
C648 C650 1.391 . S
C649 C648 1.386 . S
C649 C653 1.393 . S
C650 H639 0.950 . S
C650 C648 1.391 . S
C650 C651 1.400 . S
C651 C645 1.491 . S
C651 C650 1.400 . S
C651 C652 1.398 . S
C652 H640 0.950 . S
C652 C651 1.398 . S
C652 C653 1.391 . S
C653 H641 0.950 . S
C653 C649 1.393 . S
C653 C652 1.391 . S
H654 C662 0.950 . S
H655 C667 0.950 . S
H656 C664 0.950 . S
H657 C666 0.950 . S
H658 C668 0.950 . S
H659 C670 0.950 . S
H660 C672 0.950 . S
H661 C673 0.950 . S
C662 H654 0.950 . S
C662 C663 1.386 . S
C662 C664 1.391 . S
C663 C662 1.386 . S
C663 C667 1.393 . S
C664 H656 0.950 . S
C664 C662 1.391 . S
C664 C665 1.400 . S
C665 C664 1.400 . S
C665 C666 1.398 . S
C665 C671 1.491 . S
C666 H657 0.950 . S
C666 C665 1.398 . S
C666 C667 1.391 . S
C667 H655 0.950 . S
C667 C663 1.393 . S
C667 C666 1.391 . S
C668 H658 0.950 . S
C668 C669 1.386 . S
C668 C670 1.391 . S
C669 C668 1.386 . S
C669 C673 1.393 . S
C670 H659 0.950 . S
C670 C668 1.391 . S
C670 C671 1.400 . S
C671 C665 1.491 . S
C671 C670 1.400 . S
C671 C672 1.398 . S
C672 H660 0.950 . S
C672 C671 1.398 . S
C672 C673 1.391 . S
C673 H661 0.950 . S
C673 C669 1.393 . S
C673 C672 1.391 . S
H674 C682 0.950 . S
H675 C687 0.950 . S
H676 C684 0.950 . S
H677 C686 0.950 . S
H678 C688 0.950 . S
H679 C690 0.950 . S
H680 C692 0.953 1_545 S
H681 C693 0.950 . S
C682 H674 0.950 . S
C682 C683 1.386 . S
C682 C684 1.391 . S
C683 C682 1.386 . S
C683 C687 1.393 . S
C684 H676 0.950 . S
C684 C682 1.391 . S
C684 C685 1.400 . S
C685 C684 1.400 . S
C685 C686 1.398 . S
C685 C691 1.491 1_545 S
C686 H677 0.950 . S
C686 C685 1.398 . S
C686 C687 1.391 . S
C687 H675 0.950 . S
C687 C683 1.393 . S
C687 C686 1.391 . S
C688 H678 0.950 . S
C688 C689 1.386 . S
C688 C690 1.391 . S
C689 C688 1.386 . S
C689 C693 1.393 . S
C690 H679 0.950 . S
C690 C688 1.391 . S
C690 C691 1.400 . S
C691 C685 1.491 1_565 S
C691 C690 1.400 . S
C691 C692 1.382 . S
C692 H680 0.953 1_565 S
C692 C691 1.382 . S
C692 C693 1.406 . S
C693 H681 0.950 . S
C693 C689 1.393 . S
C693 C692 1.406 . S
H694 C702 0.950 1_655 S
H695 C707 0.950 . S
H696 C704 0.950 . S
H697 C706 0.950 . S
H698 C708 0.950 . S
H699 C710 0.950 . S
H700 C712 0.950 . S
H701 C713 0.950 . S
C702 H694 0.950 1_455 S
C702 C703 1.386 . S
C702 C704 1.391 1_455 S
C703 C702 1.386 . S
C703 C707 1.393 . S
C704 H696 0.950 . S
C704 C702 1.391 1_655 S
C704 C705 1.400 1_655 S
C705 C704 1.400 1_455 S
C705 C706 1.398 . S
C705 C711 1.502 . S
C706 H697 0.950 . S
C706 C705 1.398 . S
C706 C707 1.391 . S
C707 H695 0.950 . S
C707 C703 1.393 . S
C707 C706 1.391 . S
C708 H698 0.950 . S
C708 C709 1.386 1_455 S
C708 C710 1.391 . S
C709 C708 1.386 1_655 S
C709 C713 1.393 . S
C710 H699 0.950 . S
C710 C708 1.391 . S
C710 C711 1.412 . S
C711 C705 1.502 . S
C711 C710 1.412 . S
C711 C712 1.375 1_455 S
C712 H700 0.950 . S
C712 C711 1.375 1_655 S
C712 C713 1.391 . S
C713 H701 0.950 . S
C713 C709 1.393 . S
C713 C712 1.391 . S
H714 C722 0.950 . S
H715 C727 0.950 . S
H716 C724 0.950 . S
H717 C726 0.950 . S
H718 C728 0.950 . S
H719 C730 0.950 . S
H720 C732 0.950 . S
H721 C733 0.950 . S
C722 H714 0.950 . S
C722 C723 1.386 . S
C722 C724 1.391 . S
C723 C722 1.386 . S
C723 C727 1.393 . S
C724 H716 0.950 . S
C724 C722 1.391 . S
C724 C725 1.400 . S
C725 C724 1.400 . S
C725 C726 1.398 . S
C725 C731 1.491 . S
C726 H717 0.950 . S
C726 C725 1.398 . S
C726 C727 1.391 . S
C727 H715 0.950 . S
C727 C723 1.393 . S
C727 C726 1.391 . S
C728 H718 0.950 . S
C728 C729 1.386 . S
C728 C730 1.391 . S
C729 C728 1.386 . S
C729 C733 1.393 . S
C730 H719 0.950 . S
C730 C728 1.391 . S
C730 C731 1.400 . S
C731 C725 1.491 . S
C731 C730 1.400 . S
C731 C732 1.398 . S
C732 H720 0.950 . S
C732 C731 1.398 . S
C732 C733 1.391 . S
C733 H721 0.950 . S
C733 C729 1.393 . S
C733 C732 1.391 . S
H734 C742 0.950 . S
H735 C747 0.950 . S
H736 C744 0.950 . S
H737 C746 0.950 . S
H738 C748 0.950 . S
H739 C750 0.950 . S
H740 C752 0.952 1_545 S
H741 C753 0.950 . S
C742 H734 0.950 . S
C742 C743 1.386 . S
C742 C744 1.391 . S
C743 C742 1.386 . S
C743 C747 1.393 . S
C744 H736 0.950 . S
C744 C742 1.391 . S
C744 C745 1.400 . S
C745 C744 1.400 . S
C745 C746 1.398 . S
C745 C751 1.489 1_545 S
C746 H737 0.950 . S
C746 C745 1.398 . S
C746 C747 1.391 . S
C747 H735 0.950 . S
C747 C743 1.393 . S
C747 C746 1.391 . S
C748 H738 0.950 . S
C748 C749 1.386 . S
C748 C750 1.391 . S
C749 C748 1.386 . S
C749 C753 1.393 . S
C750 H739 0.950 . S
C750 C748 1.391 . S
C750 C751 1.400 . S
C751 C745 1.489 1_565 S
C751 C750 1.400 . S
C751 C752 1.391 . S
C752 H740 0.952 1_565 S
C752 C751 1.391 . S
C752 C753 1.399 . S
C753 H741 0.950 . S
C753 C749 1.393 . S
C753 C752 1.399 . S
H754 C762 0.950 . S
H755 C767 0.950 . S
H756 C764 0.972 . S
H757 C766 0.950 . S
H758 C768 0.967 . S
H759 C770 0.950 . S
H760 C772 0.950 . S
H761 C773 0.950 . S
C762 H754 0.950 . S
C762 C763 1.386 . S
C762 C764 1.384 1_455 S
C763 C762 1.386 . S
C763 C767 1.393 . S
C764 H756 0.972 . S
C764 C762 1.384 1_655 S
C764 C765 1.387 1_655 S
C765 C764 1.387 1_455 S
C765 C766 1.398 . S
C765 C771 1.482 1_455 S
C766 H757 0.950 . S
C766 C765 1.398 . S
C766 C767 1.391 . S
C767 H755 0.950 . S
C767 C763 1.393 . S
C767 C766 1.391 . S
C768 H758 0.967 . S
C768 C769 1.358 1_455 S
C768 C770 1.401 . S
C769 C768 1.358 1_655 S
C769 C773 1.393 . S
C770 H759 0.950 . S
C770 C768 1.401 . S
C770 C771 1.385 1_455 S
C771 C765 1.482 1_655 S
C771 C770 1.385 1_655 S
C771 C772 1.423 . S
C772 H760 0.950 . S
C772 C771 1.423 . S
C772 C773 1.391 . S
C773 H761 0.950 . S
C773 C769 1.393 . S
C773 C772 1.391 . S
H774 C782 0.950 . S
H775 C787 0.950 . S
H776 C784 0.950 . S
H777 C786 0.950 . S
H778 C788 0.950 . S
H779 C790 0.950 . S
H780 C792 0.950 . S
H781 C793 0.950 . S
C782 H774 0.950 . S
C782 C783 1.386 . S
C782 C784 1.391 . S
C783 C782 1.386 . S
C783 C787 1.393 . S
C784 H776 0.950 . S
C784 C782 1.391 . S
C784 C785 1.400 . S
C785 C784 1.400 . S
C785 C786 1.398 . S
C785 C791 1.491 . S
C786 H777 0.950 . S
C786 C785 1.398 . S
C786 C787 1.391 . S
C787 H775 0.950 . S
C787 C783 1.393 . S
C787 C786 1.391 . S
C788 H778 0.950 . S
C788 C789 1.386 . S
C788 C790 1.391 . S
C789 C788 1.386 . S
C789 C793 1.393 . S
C790 H779 0.950 . S
C790 C788 1.391 . S
C790 C791 1.400 . S
C791 C785 1.491 . S
C791 C790 1.400 . S
C791 C792 1.398 . S
C792 H780 0.950 . S
C792 C791 1.398 . S
C792 C793 1.391 . S
C793 H781 0.950 . S
C793 C789 1.393 . S
C793 C792 1.391 . S
H794 C802 0.950 . S
H795 C807 0.950 . S
H796 C804 0.950 . S
H797 C806 0.950 . S
H798 C808 0.950 . S
H799 C810 0.950 . S
H800 C812 0.950 . S
H801 C813 0.950 . S
C802 H794 0.950 . S
C802 C803 1.386 . S
C802 C804 1.391 . S
C803 C802 1.386 . S
C803 C807 1.393 . S
C804 H796 0.950 . S
C804 C802 1.391 . S
C804 C805 1.400 . S
C805 C804 1.400 . S
C805 C806 1.398 . S
C805 C811 1.491 . S
C806 H797 0.950 . S
C806 C805 1.398 . S
C806 C807 1.391 . S
C807 H795 0.950 . S
C807 C803 1.393 . S
C807 C806 1.391 . S
C808 H798 0.950 . S
C808 C809 1.386 . S
C808 C810 1.391 . S
C809 C808 1.386 . S
C809 C813 1.393 . S
C810 H799 0.950 . S
C810 C808 1.391 . S
C810 C811 1.400 . S
C811 C805 1.491 . S
C811 C810 1.400 . S
C811 C812 1.398 . S
C812 H800 0.950 . S
C812 C811 1.398 . S
C812 C813 1.391 . S
C813 H801 0.950 . S
C813 C809 1.393 . S
C813 C812 1.391 . S
H814 C822 0.950 . S
H815 C827 0.950 . S
H816 C824 0.950 . S
H817 C826 0.950 . S
H818 C828 0.950 . S
H819 C830 0.950 . S
H820 C832 0.950 . S
H821 C833 0.950 . S
C822 H814 0.950 . S
C822 C823 1.386 . S
C822 C824 1.391 . S
C823 C822 1.386 . S
C823 C827 1.393 . S
C824 H816 0.950 . S
C824 C822 1.391 . S
C824 C825 1.400 . S
C825 C824 1.400 . S
C825 C826 1.398 . S
C825 C831 1.491 . S
C826 H817 0.950 . S
C826 C825 1.398 . S
C826 C827 1.391 . S
C827 H815 0.950 . S
C827 C823 1.393 . S
C827 C826 1.391 . S
C828 H818 0.950 . S
C828 C829 1.386 . S
C828 C830 1.391 . S
C829 C828 1.386 . S
C829 C833 1.393 . S
C830 H819 0.950 . S
C830 C828 1.391 . S
C830 C831 1.400 . S
C831 C825 1.491 . S
C831 C830 1.400 . S
C831 C832 1.398 . S
C832 H820 0.950 . S
C832 C831 1.398 . S
C832 C833 1.391 . S
C833 H821 0.950 . S
C833 C829 1.393 . S
C833 C832 1.391 . S
H834 C842 0.950 . S
H835 C847 0.950 . S
H836 C844 0.950 . S
H837 C846 0.950 . S
H838 C848 0.950 . S
H839 C850 0.950 . S
H840 C852 0.950 . S
H841 C853 0.950 . S
C842 H834 0.950 . S
C842 C843 1.386 . S
C842 C844 1.391 . S
C843 C842 1.386 . S
C843 C847 1.393 . S
C844 H836 0.950 . S
C844 C842 1.391 . S
C844 C845 1.400 . S
C845 C844 1.400 . S
C845 C846 1.398 . S
C845 C851 1.491 . S
C846 H837 0.950 . S
C846 C845 1.398 . S
C846 C847 1.391 . S
C847 H835 0.950 . S
C847 C843 1.393 . S
C847 C846 1.391 . S
C848 H838 0.950 . S
C848 C849 1.386 . S
C848 C850 1.391 . S
C849 C848 1.386 . S
C849 C853 1.393 . S
C850 H839 0.950 . S
C850 C848 1.391 . S
C850 C851 1.400 . S
C851 C845 1.491 . S
C851 C850 1.400 . S
C851 C852 1.398 . S
C852 H840 0.950 . S
C852 C851 1.398 . S
C852 C853 1.391 . S
C853 H841 0.950 . S
C853 C849 1.393 . S
C853 C852 1.391 . S
H854 C862 0.950 . S
H855 C867 0.950 . S
H856 C864 0.950 . S
H857 C866 0.950 . S
H858 C868 0.950 . S
H859 C870 0.950 . S
H860 C872 0.950 . S
H861 C873 0.950 . S
C862 H854 0.950 . S
C862 C863 1.386 . S
C862 C864 1.391 . S
C863 C862 1.386 . S
C863 C867 1.393 . S
C864 H856 0.950 . S
C864 C862 1.391 . S
C864 C865 1.400 . S
C865 C864 1.400 . S
C865 C866 1.398 . S
C865 C871 1.491 . S
C866 H857 0.950 . S
C866 C865 1.398 . S
C866 C867 1.391 . S
C867 H855 0.950 . S
C867 C863 1.393 . S
C867 C866 1.391 . S
C868 H858 0.950 . S
C868 C869 1.386 . S
C868 C870 1.391 . S
C869 C868 1.386 . S
C869 C873 1.393 . S
C870 H859 0.950 . S
C870 C868 1.391 . S
C870 C871 1.400 . S
C871 C865 1.491 . S
C871 C870 1.400 . S
C871 C872 1.398 . S
C872 H860 0.950 . S
C872 C871 1.398 . S
C872 C873 1.391 . S
C873 H861 0.950 . S
C873 C869 1.393 . S
C873 C872 1.391 . S
H874 C882 0.950 . S
H875 C887 0.950 . S
H876 C884 0.950 . S
H877 C886 0.950 . S
H878 C888 0.950 . S
H879 C890 0.950 . S
H880 C892 0.950 . S
H881 C893 0.950 . S
C882 H874 0.950 . S
C882 C883 1.386 . S
C882 C884 1.391 . S
C883 C882 1.386 . S
C883 C887 1.393 . S
C884 H876 0.950 . S
C884 C882 1.391 . S
C884 C885 1.400 . S
C885 C884 1.400 . S
C885 C886 1.398 . S
C885 C891 1.491 . S
C886 H877 0.950 . S
C886 C885 1.398 . S
C886 C887 1.391 . S
C887 H875 0.950 . S
C887 C883 1.393 . S
C887 C886 1.391 . S
C888 H878 0.950 . S
C888 C889 1.386 . S
C888 C890 1.391 . S
C889 C888 1.386 . S
C889 C893 1.393 . S
C890 H879 0.950 . S
C890 C888 1.391 . S
C890 C891 1.400 . S
C891 C885 1.491 . S
C891 C890 1.400 . S
C891 C892 1.398 . S
C892 H880 0.950 . S
C892 C891 1.398 . S
C892 C893 1.391 . S
C893 H881 0.950 . S
C893 C889 1.393 . S
C893 C892 1.391 . S
H894 C902 0.950 . S
H895 C907 0.950 . S
H896 C904 0.950 . S
H897 C906 0.950 . S
H898 C908 0.950 . S
H899 C910 0.950 . S
H900 C912 0.950 . S
H901 C913 0.950 . S
C902 H894 0.950 . S
C902 C903 1.386 . S
C902 C904 1.391 . S
C903 C902 1.386 . S
C903 C907 1.393 . S
C904 H896 0.950 . S
C904 C902 1.391 . S
C904 C905 1.400 . S
C905 C904 1.400 . S
C905 C906 1.398 . S
C905 C911 1.491 . S
C906 H897 0.950 . S
C906 C905 1.398 . S
C906 C907 1.391 . S
C907 H895 0.950 . S
C907 C903 1.393 . S
C907 C906 1.391 . S
C908 H898 0.950 . S
C908 C909 1.386 . S
C908 C910 1.391 . S
C909 C908 1.386 . S
C909 C913 1.393 . S
C910 H899 0.950 . S
C910 C908 1.391 . S
C910 C911 1.400 . S
C911 C905 1.491 . S
C911 C910 1.400 . S
C911 C912 1.398 . S
C912 H900 0.950 . S
C912 C911 1.398 . S
C912 C913 1.391 . S
C913 H901 0.950 . S
C913 C909 1.393 . S
C913 C912 1.391 . S
H914 C922 0.950 . S
H915 C927 0.950 . S
H916 C924 0.950 . S
H917 C926 0.950 . S
H918 C928 0.950 . S
H919 C930 0.950 . S
H920 C932 0.950 . S
H921 C933 0.950 . S
C922 H914 0.950 . S
C922 C923 1.386 . S
C922 C924 1.391 . S
C923 C922 1.386 . S
C923 C927 1.393 . S
C924 H916 0.950 . S
C924 C922 1.391 . S
C924 C925 1.400 . S
C925 C924 1.400 . S
C925 C926 1.398 . S
C925 C931 1.491 . S
C926 H917 0.950 . S
C926 C925 1.398 . S
C926 C927 1.391 . S
C927 H915 0.950 . S
C927 C923 1.393 . S
C927 C926 1.391 . S
C928 H918 0.950 . S
C928 C929 1.386 . S
C928 C930 1.391 . S
C929 C928 1.386 . S
C929 C933 1.393 . S
C930 H919 0.950 . S
C930 C928 1.391 . S
C930 C931 1.400 . S
C931 C925 1.491 . S
C931 C930 1.400 . S
C931 C932 1.398 . S
C932 H920 0.950 . S
C932 C931 1.398 . S
C932 C933 1.391 . S
C933 H921 0.950 . S
C933 C929 1.393 . S
C933 C932 1.391 . S
H934 C942 0.950 . S
H935 C947 0.950 . S
H936 C944 0.950 . S
H937 C946 0.950 . S
H938 C948 0.950 . S
H939 C950 0.950 . S
H940 C952 0.950 . S
H941 C953 0.950 . S
C942 H934 0.950 . S
C942 C943 1.386 . S
C942 C944 1.391 . S
C943 C942 1.386 . S
C943 C947 1.393 . S
C944 H936 0.950 . S
C944 C942 1.391 . S
C944 C945 1.400 . S
C945 C944 1.400 . S
C945 C946 1.398 . S
C945 C951 1.491 . S
C946 H937 0.950 . S
C946 C945 1.398 . S
C946 C947 1.391 . S
C947 H935 0.950 . S
C947 C943 1.393 . S
C947 C946 1.391 . S
C948 H938 0.950 . S
C948 C949 1.386 . S
C948 C950 1.391 . S
C949 C948 1.386 . S
C949 C953 1.393 . S
C950 H939 0.950 . S
C950 C948 1.391 . S
C950 C951 1.400 . S
C951 C945 1.491 . S
C951 C950 1.400 . S
C951 C952 1.398 . S
C952 H940 0.950 . S
C952 C951 1.398 . S
C952 C953 1.391 . S
C953 H941 0.950 . S
C953 C949 1.393 . S
C953 C952 1.391 . S
H954 C962 0.950 . S
H955 C967 0.950 . S
H956 C964 0.950 . S
H957 C966 0.950 . S
H958 C968 0.950 . S
H959 C970 0.950 . S
H960 C972 0.950 . S
H961 C973 0.950 . S
C962 H954 0.950 . S
C962 C963 1.386 . S
C962 C964 1.391 . S
C963 C962 1.386 . S
C963 C967 1.393 . S
C964 H956 0.950 . S
C964 C962 1.391 . S
C964 C965 1.400 . S
C965 C964 1.400 . S
C965 C966 1.398 . S
C965 C971 1.491 . S
C966 H957 0.950 . S
C966 C965 1.398 . S
C966 C967 1.391 . S
C967 H955 0.950 . S
C967 C963 1.393 . S
C967 C966 1.391 . S
C968 H958 0.950 . S
C968 C969 1.386 . S
C968 C970 1.391 . S
C969 C968 1.386 . S
C969 C973 1.393 . S
C970 H959 0.950 . S
C970 C968 1.391 . S
C970 C971 1.400 . S
C971 C965 1.491 . S
C971 C970 1.400 . S
C971 C972 1.398 . S
C972 H960 0.950 . S
C972 C971 1.398 . S
C972 C973 1.391 . S
C973 H961 0.950 . S
C973 C969 1.393 . S
C973 C972 1.391 . S
H974 C982 0.950 . S
H975 C987 0.950 . S
H976 C984 0.950 . S
H977 C986 0.950 . S
H978 C988 0.950 . S
H979 C990 0.950 . S
H980 C992 0.950 . S
H981 C993 0.950 . S
C982 H974 0.950 . S
C982 C983 1.386 . S
C982 C984 1.391 . S
C983 C982 1.386 . S
C983 C987 1.393 . S
C984 H976 0.950 . S
C984 C982 1.391 . S
C984 C985 1.400 . S
C985 C984 1.400 . S
C985 C986 1.398 . S
C985 C991 1.491 . S
C986 H977 0.950 . S
C986 C985 1.398 . S
C986 C987 1.391 . S
C987 H975 0.950 . S
C987 C983 1.393 . S
C987 C986 1.391 . S
C988 H978 0.950 . S
C988 C989 1.386 . S
C988 C990 1.391 . S
C989 C988 1.386 . S
C989 C993 1.393 . S
C990 H979 0.950 . S
C990 C988 1.391 . S
C990 C991 1.400 . S
C991 C985 1.491 . S
C991 C990 1.400 . S
C991 C992 1.398 . S
C992 H980 0.950 . S
C992 C991 1.398 . S
C992 C993 1.391 . S
C993 H981 0.950 . S
C993 C989 1.393 . S
C993 C992 1.391 . S
H994 C1002 0.950 . S
H995 C1007 0.950 . S
H996 C1004 0.950 . S
H997 C1006 0.950 . S
H998 C1008 0.950 . S
H999 C1010 0.950 . S
H1000 C1012 0.950 . S
H1001 C1013 0.950 . S
C1002 H994 0.950 . S
C1002 C1003 1.386 . S
C1002 C1004 1.391 . S
C1003 C1002 1.386 . S
C1003 C1007 1.393 . S
C1004 H996 0.950 . S
C1004 C1002 1.391 . S
C1004 C1005 1.400 . S
C1005 C1004 1.400 . S
C1005 C1006 1.398 . S
C1005 C1011 1.491 . S
C1006 H997 0.950 . S
C1006 C1005 1.398 . S
C1006 C1007 1.391 . S
C1007 H995 0.950 . S
C1007 C1003 1.393 . S
C1007 C1006 1.391 . S
C1008 H998 0.950 . S
C1008 C1009 1.386 . S
C1008 C1010 1.391 . S
C1009 C1008 1.386 . S
C1009 C1013 1.393 . S
C1010 H999 0.950 . S
C1010 C1008 1.391 . S
C1010 C1011 1.400 . S
C1011 C1005 1.491 . S
C1011 C1010 1.400 . S
C1011 C1012 1.398 . S
C1012 H1000 0.950 . S
C1012 C1011 1.398 . S
C1012 C1013 1.391 . S
C1013 H1001 0.950 . S
C1013 C1009 1.393 . S
C1013 C1012 1.391 . S
H1014 C1022 0.950 . S
H1015 C1027 0.950 . S
H1016 C1024 0.950 . S
H1017 C1026 0.950 . S
H1018 C1028 0.950 . S
H1019 C1030 0.950 . S
H1020 C1032 0.950 . S
H1021 C1033 0.950 . S
C1022 H1014 0.950 . S
C1022 C1023 1.386 . S
C1022 C1024 1.391 . S
C1023 C1022 1.386 . S
C1023 C1027 1.393 . S
C1024 H1016 0.950 . S
C1024 C1022 1.391 . S
C1024 C1025 1.400 . S
C1025 C1024 1.400 . S
C1025 C1026 1.398 . S
C1025 C1031 1.491 . S
C1026 H1017 0.950 . S
C1026 C1025 1.398 . S
C1026 C1027 1.391 . S
C1027 H1015 0.950 . S
C1027 C1023 1.393 . S
C1027 C1026 1.391 . S
C1028 H1018 0.950 . S
C1028 C1029 1.386 . S
C1028 C1030 1.391 . S
C1029 C1028 1.386 . S
C1029 C1033 1.393 . S
C1030 H1019 0.950 . S
C1030 C1028 1.391 . S
C1030 C1031 1.400 . S
C1031 C1025 1.491 . S
C1031 C1030 1.400 . S
C1031 C1032 1.398 . S
C1032 H1020 0.950 . S
C1032 C1031 1.398 . S
C1032 C1033 1.391 . S
C1033 H1021 0.950 . S
C1033 C1029 1.393 . S
C1033 C1032 1.391 . S
H1034 C1042 0.950 . S
H1035 C1047 0.950 . S
H1036 C1044 0.950 . S
H1037 C1046 0.950 . S
H1038 C1048 0.950 . S
H1039 C1050 0.950 . S
H1040 C1052 0.950 . S
H1041 C1053 0.950 . S
C1042 H1034 0.950 . S
C1042 C1043 1.386 . S
C1042 C1044 1.391 . S
C1043 C1042 1.386 . S
C1043 C1047 1.393 1_545 S
C1044 H1036 0.950 . S
C1044 C1042 1.391 . S
C1044 C1045 1.400 . S
C1045 C1044 1.400 . S
C1045 C1046 1.398 1_545 S
C1045 C1051 1.491 . S
C1046 H1037 0.950 . S
C1046 C1045 1.398 1_565 S
C1046 C1047 1.391 . S
C1047 H1035 0.950 . S
C1047 C1043 1.393 1_565 S
C1047 C1046 1.391 . S
C1048 H1038 0.950 . S
C1048 C1049 1.386 . S
C1048 C1050 1.391 . S
C1049 C1048 1.386 . S
C1049 C1053 1.393 1_565 S
C1050 H1039 0.950 . S
C1050 C1048 1.391 . S
C1050 C1051 1.400 1_565 S
C1051 C1045 1.491 . S
C1051 C1050 1.400 1_545 S
C1051 C1052 1.398 . S
C1052 H1040 0.950 . S
C1052 C1051 1.398 . S
C1052 C1053 1.391 . S
C1053 H1041 0.950 . S
C1053 C1049 1.393 1_545 S
C1053 C1052 1.391 . S
H1054 C1062 0.950 . S
H1055 C1067 0.950 . S
H1056 C1064 0.950 . S
H1057 C1066 0.950 . S
H1058 C1068 0.950 . S
H1059 C1070 0.950 . S
H1060 C1072 0.950 . S
H1061 C1073 0.950 . S
C1062 H1054 0.950 . S
C1062 C1063 1.386 . S
C1062 C1064 1.391 . S
C1063 C1062 1.386 . S
C1063 C1067 1.393 1_455 S
C1064 H1056 0.950 . S
C1064 C1062 1.391 . S
C1064 C1065 1.400 . S
C1065 C1064 1.400 . S
C1065 C1066 1.398 1_455 S
C1065 C1071 1.491 . S
C1066 H1057 0.950 . S
C1066 C1065 1.398 1_655 S
C1066 C1067 1.391 . S
C1067 H1055 0.950 . S
C1067 C1063 1.393 1_655 S
C1067 C1066 1.391 . S
C1068 H1058 0.950 . S
C1068 C1069 1.386 . S
C1068 C1070 1.391 . S
C1069 C1068 1.386 . S
C1069 C1073 1.393 1_655 S
C1070 H1059 0.950 . S
C1070 C1068 1.391 . S
C1070 C1071 1.400 1_655 S
C1071 C1065 1.491 . S
C1071 C1070 1.400 1_455 S
C1071 C1072 1.398 . S
C1072 H1060 0.950 . S
C1072 C1071 1.398 . S
C1072 C1073 1.391 . S
C1073 H1061 0.950 . S
C1073 C1069 1.393 1_455 S
C1073 C1072 1.391 . S
H1074 C1082 0.950 1_554 S
H1075 C1087 0.950 . S
H1076 C1084 0.950 . S
H1077 C1086 0.950 . S
H1078 C1088 0.950 1_556 S
H1079 C1090 0.950 . S
H1080 C1092 0.950 . S
H1081 C1093 0.950 . S
C1082 H1074 0.950 1_556 S
C1082 C1083 1.386 . S
C1082 C1084 1.391 1_556 S
C1083 C1082 1.386 . S
C1083 C1087 1.393 . S
C1084 H1076 0.950 . S
C1084 C1082 1.391 1_554 S
C1084 C1085 1.400 1_554 S
C1085 C1084 1.400 1_556 S
C1085 C1086 1.398 . S
C1085 C1091 1.491 1_556 S
C1086 H1077 0.950 . S
C1086 C1085 1.398 . S
C1086 C1087 1.391 . S
C1087 H1075 0.950 . S
C1087 C1083 1.393 . S
C1087 C1086 1.391 . S
C1088 H1078 0.950 1_554 S
C1088 C1089 1.386 . S
C1088 C1090 1.391 1_554 S
C1089 C1088 1.386 . S
C1089 C1093 1.393 . S
C1090 H1079 0.950 . S
C1090 C1088 1.391 1_556 S
C1090 C1091 1.400 1_556 S
C1091 C1085 1.491 1_554 S
C1091 C1090 1.400 1_554 S
C1091 C1092 1.398 . S
C1092 H1080 0.950 . S
C1092 C1091 1.398 . S
C1092 C1093 1.391 . S
C1093 H1081 0.950 . S
C1093 C1089 1.393 . S
C1093 C1092 1.391 . S
H1094 C1102 0.950 . S
H1095 C1107 0.950 . S
H1096 C1104 0.950 1_554 S
H1097 C1106 0.950 . S
H1098 C1108 0.950 . S
H1099 C1110 0.950 1_556 S
H1100 C1112 0.950 . S
H1101 C1113 0.950 . S
C1102 H1094 0.950 . S
C1102 C1103 1.386 1_545 S
C1102 C1104 1.391 . S
C1103 C1102 1.386 1_565 S
C1103 C1107 1.393 . S
C1104 H1096 0.950 1_556 S
C1104 C1102 1.391 . S
C1104 C1105 1.400 . S
C1105 C1104 1.400 . S
C1105 C1106 1.398 1_545 S
C1105 C1111 1.491 1_556 S
C1106 H1097 0.950 . S
C1106 C1105 1.398 1_565 S
C1106 C1107 1.391 . S
C1107 H1095 0.950 . S
C1107 C1103 1.393 . S
C1107 C1106 1.391 . S
C1108 H1098 0.950 . S
C1108 C1109 1.386 1_565 S
C1108 C1110 1.391 . S
C1109 C1108 1.386 1_545 S
C1109 C1113 1.393 . S
C1110 H1099 0.950 1_554 S
C1110 C1108 1.391 . S
C1110 C1111 1.400 1_565 S
C1111 C1105 1.491 1_554 S
C1111 C1110 1.400 1_545 S
C1111 C1112 1.398 . S
C1112 H1100 0.950 . S
C1112 C1111 1.398 . S
C1112 C1113 1.391 . S
C1113 H1101 0.950 . S
C1113 C1109 1.393 . S
C1113 C1112 1.391 . S
H1114 C1122 0.950 . S
H1115 C1127 0.950 . S
H1116 C1124 0.950 . S
H1117 C1126 0.950 . S
H1118 C1128 0.950 . S
H1119 C1130 0.950 . S
H1120 C1132 0.950 . S
H1121 C1133 0.950 . S
C1122 H1114 0.950 . S
C1122 C1123 1.386 . S
C1122 C1124 1.391 1_556 S
C1123 C1122 1.386 . S
C1123 C1127 1.393 1_455 S
C1124 H1116 0.950 . S
C1124 C1122 1.391 1_554 S
C1124 C1125 1.400 1_554 S
C1125 C1124 1.400 1_556 S
C1125 C1126 1.398 1_455 S
C1125 C1131 1.491 1_556 S
C1126 H1117 0.950 . S
C1126 C1125 1.398 1_655 S
C1126 C1127 1.391 . S
C1127 H1115 0.950 . S
C1127 C1123 1.393 1_655 S
C1127 C1126 1.391 . S
C1128 H1118 0.950 . S
C1128 C1129 1.386 . S
C1128 C1130 1.391 1_554 S
C1129 C1128 1.386 . S
C1129 C1133 1.393 1_655 S
C1130 H1119 0.950 . S
C1130 C1128 1.391 1_556 S
C1130 C1131 1.400 1_656 S
C1131 C1125 1.491 1_554 S
C1131 C1130 1.400 1_454 S
C1131 C1132 1.398 . S
C1132 H1120 0.950 . S
C1132 C1131 1.398 . S
C1132 C1133 1.391 . S
C1133 H1121 0.950 . S
C1133 C1129 1.393 1_455 S
C1133 C1132 1.391 . S
C423 C7 1.730 . S
C429 C338 1.689 1_554 S
C443 C292 1.640 1_554 S
C449 C39 1.646 . S
C463 C53 1.771 . S
C469 C306 1.770 1_554 S
C483 C154 1.653 . S
C489 C62 1.647 . S
C503 C177 1.646 . S
C509 C16 1.651 . S
C523 C200 1.689 . S
C529 C30 1.725 . S
C543 C76 1.721 . S
C549 C269 1.685 1_556 S
C563 C223 1.661 1_556 S
C569 C108 1.658 . S
C583 C246 1.672 1_556 S
C589 C122 1.709 . S
C603 C131 1.699 . S
C609 C352 1.733 . S
C623 C85 1.663 . S
C629 C384 1.664 . S
C643 C398 1.760 . S
C649 C99 1.764 . S
C663 C283 1.753 . S
C669 C191 1.753 . S
C683 C145 1.741 . S
C689 C315 1.704 . S
C703 C329 1.760 . S
C709 C168 1.763 . S
C723 C407 1.711 . S
C729 C214 1.743 . S
C743 C237 1.743 . S
C749 C361 1.710 . S
C763 C375 1.771 . S
C769 C260 1.768 . S
C783 N347 1.540 . S
C789 N2 1.539 . S
C803 N35 1.613 . S
C809 N380 1.613 . S
C823 N48 1.553 . S
C829 N393 1.554 . S
C843 N58 1.591 . S
C849 N265 1.592 . S
C863 N219 1.605 . S
C869 N12 1.605 . S
C883 N25 1.557 . S
C889 N242 1.618 . S
C903 N150 1.597 . S
C909 N71 1.529 . S
C923 N173 1.584 . S
C929 N104 1.584 . S
C943 N117 1.526 . S
C949 N196 1.603 . S
C963 N127 1.594 . S
C969 N334 1.594 . S
C983 N81 1.586 . S
C989 N288 1.586 . S
C1003 N94 1.525 . S
C1009 N301 1.526 . S
C1023 N186 1.521 . S
C1029 N403 1.593 . S
C1043 N140 1.554 . S
C1049 N357 1.611 . S
C1063 N370 1.538 . S
C1069 N163 1.539 . S
C1083 N278 1.552 . S
C1089 N209 1.551 . S
C1103 N311 1.590 . S
C1109 N232 1.527 . S
C1123 N324 1.559 . S
C1129 N255 1.559 . S
