# Generated by pormake.
# Topology uoi, (4)-cn, num edge types: 1
# Building blocks:
#     Node 0, Type 0, BuildingBlock: GALJAG_clean_sbu_0, # of connection points: 4
#     Node 1, Type 0, BuildingBlock: GALJAG_clean_sbu_0, # of connection points: 4
#     Node 2, Type 0, BuildingBlock: GALJAG_clean_sbu_0, # of connection points: 4
#     Node 3, Type 0, BuildingBlock: GALJAG_clean_sbu_0, # of connection points: 4
#     Node 4, Type 0, BuildingBlock: GALJAG_clean_sbu_0, # of connection points: 4
#     Node 5, Type 0, BuildingBlock: GALJAG_clean_sbu_0, # of connection points: 4
#     Node 6, Type 0, BuildingBlock: GALJAG_clean_sbu_0, # of connection points: 4
#     Node 7, Type 0, BuildingBlock: GALJAG_clean_sbu_0, # of connection points: 4
#     Node 8, Type 0, BuildingBlock: GALJAG_clean_sbu_0, # of connection points: 4
#     Node 9, Type 0, BuildingBlock: GALJAG_clean_sbu_0, # of connection points: 4
#     Node 10, Type 0, BuildingBlock: GALJAG_clean_sbu_0, # of connection points: 4
#     Node 11, Type 0, BuildingBlock: GALJAG_clean_sbu_0, # of connection points: 4
#     Node 12, Type 0, BuildingBlock: GALJAG_clean_sbu_0, # of connection points: 4
#     Node 13, Type 0, BuildingBlock: GALJAG_clean_sbu_0, # of connection points: 4
#     Node 14, Type 0, BuildingBlock: GALJAG_clean_sbu_0, # of connection points: 4
#     Node 15, Type 0, BuildingBlock: GALJAG_clean_sbu_0, # of connection points: 4
#     Node 16, Type 0, BuildingBlock: GALJAG_clean_sbu_0, # of connection points: 4
#     Node 17, Type 0, BuildingBlock: GALJAG_clean_sbu_0, # of connection points: 4
#     Node 18, Type 0, BuildingBlock: GALJAG_clean_sbu_0, # of connection points: 4
#     Node 19, Type 0, BuildingBlock: GALJAG_clean_sbu_0, # of connection points: 4
#     Node 20, Type 0, BuildingBlock: GALJAG_clean_sbu_0, # of connection points: 4
#     Node 21, Type 0, BuildingBlock: GALJAG_clean_sbu_0, # of connection points: 4
#     Node 22, Type 0, BuildingBlock: GALJAG_clean_sbu_0, # of connection points: 4
#     Node 23, Type 0, BuildingBlock: GALJAG_clean_sbu_0, # of connection points: 4
#     Node 24, Type 0, BuildingBlock: GALJAG_clean_sbu_0, # of connection points: 4
#     Node 25, Type 0, BuildingBlock: GALJAG_clean_sbu_0, # of connection points: 4
#     Node 26, Type 0, BuildingBlock: GALJAG_clean_sbu_0, # of connection points: 4
#     Node 27, Type 0, BuildingBlock: GALJAG_clean_sbu_0, # of connection points: 4
#     Node 28, Type 0, BuildingBlock: GALJAG_clean_sbu_0, # of connection points: 4
#     Node 29, Type 0, BuildingBlock: GALJAG_clean_sbu_0, # of connection points: 4
#     Node 30, Type 0, BuildingBlock: GALJAG_clean_sbu_0, # of connection points: 4
#     Node 31, Type 0, BuildingBlock: GALJAG_clean_sbu_0, # of connection points: 4
#     Edge 32, Type (0, 0), BuildingBlock: OJICUG_clean_linker_0, # of connection points: 2
#     Edge 33, Type (0, 0), BuildingBlock: OJICUG_clean_linker_0, # of connection points: 2
#     Edge 34, Type (0, 0), BuildingBlock: OJICUG_clean_linker_0, # of connection points: 2
#     Edge 35, Type (0, 0), BuildingBlock: OJICUG_clean_linker_0, # of connection points: 2
#     Edge 36, Type (0, 0), BuildingBlock: OJICUG_clean_linker_0, # of connection points: 2
#     Edge 37, Type (0, 0), BuildingBlock: OJICUG_clean_linker_0, # of connection points: 2
#     Edge 38, Type (0, 0), BuildingBlock: OJICUG_clean_linker_0, # of connection points: 2
#     Edge 39, Type (0, 0), BuildingBlock: OJICUG_clean_linker_0, # of connection points: 2
#     Edge 40, Type (0, 0), BuildingBlock: OJICUG_clean_linker_0, # of connection points: 2
#     Edge 41, Type (0, 0), BuildingBlock: OJICUG_clean_linker_0, # of connection points: 2
#     Edge 42, Type (0, 0), BuildingBlock: OJICUG_clean_linker_0, # of connection points: 2
#     Edge 43, Type (0, 0), BuildingBlock: OJICUG_clean_linker_0, # of connection points: 2
#     Edge 44, Type (0, 0), BuildingBlock: OJICUG_clean_linker_0, # of connection points: 2
#     Edge 45, Type (0, 0), BuildingBlock: OJICUG_clean_linker_0, # of connection points: 2
#     Edge 46, Type (0, 0), BuildingBlock: OJICUG_clean_linker_0, # of connection points: 2
#     Edge 47, Type (0, 0), BuildingBlock: OJICUG_clean_linker_0, # of connection points: 2
#     Edge 48, Type (0, 0), BuildingBlock: OJICUG_clean_linker_0, # of connection points: 2
#     Edge 49, Type (0, 0), BuildingBlock: OJICUG_clean_linker_0, # of connection points: 2
#     Edge 50, Type (0, 0), BuildingBlock: OJICUG_clean_linker_0, # of connection points: 2
#     Edge 51, Type (0, 0), BuildingBlock: OJICUG_clean_linker_0, # of connection points: 2
#     Edge 52, Type (0, 0), BuildingBlock: OJICUG_clean_linker_0, # of connection points: 2
#     Edge 53, Type (0, 0), BuildingBlock: OJICUG_clean_linker_0, # of connection points: 2
#     Edge 54, Type (0, 0), BuildingBlock: OJICUG_clean_linker_0, # of connection points: 2
#     Edge 55, Type (0, 0), BuildingBlock: OJICUG_clean_linker_0, # of connection points: 2
#     Edge 56, Type (0, 0), BuildingBlock: OJICUG_clean_linker_0, # of connection points: 2
#     Edge 57, Type (0, 0), BuildingBlock: OJICUG_clean_linker_0, # of connection points: 2
#     Edge 58, Type (0, 0), BuildingBlock: OJICUG_clean_linker_0, # of connection points: 2
#     Edge 59, Type (0, 0), BuildingBlock: OJICUG_clean_linker_0, # of connection points: 2
#     Edge 60, Type (0, 0), BuildingBlock: OJICUG_clean_linker_0, # of connection points: 2
#     Edge 61, Type (0, 0), BuildingBlock: OJICUG_clean_linker_0, # of connection points: 2
#     Edge 62, Type (0, 0), BuildingBlock: OJICUG_clean_linker_0, # of connection points: 2
#     Edge 63, Type (0, 0), BuildingBlock: OJICUG_clean_linker_0, # of connection points: 2
#     Edge 64, Type (0, 0), BuildingBlock: OJICUG_clean_linker_0, # of connection points: 2
#     Edge 65, Type (0, 0), BuildingBlock: OJICUG_clean_linker_0, # of connection points: 2
#     Edge 66, Type (0, 0), BuildingBlock: OJICUG_clean_linker_0, # of connection points: 2
#     Edge 67, Type (0, 0), BuildingBlock: OJICUG_clean_linker_0, # of connection points: 2
#     Edge 68, Type (0, 0), BuildingBlock: OJICUG_clean_linker_0, # of connection points: 2
#     Edge 69, Type (0, 0), BuildingBlock: OJICUG_clean_linker_0, # of connection points: 2
#     Edge 70, Type (0, 0), BuildingBlock: OJICUG_clean_linker_0, # of connection points: 2
#     Edge 71, Type (0, 0), BuildingBlock: OJICUG_clean_linker_0, # of connection points: 2
#     Edge 72, Type (0, 0), BuildingBlock: OJICUG_clean_linker_0, # of connection points: 2
#     Edge 73, Type (0, 0), BuildingBlock: OJICUG_clean_linker_0, # of connection points: 2
#     Edge 74, Type (0, 0), BuildingBlock: OJICUG_clean_linker_0, # of connection points: 2
#     Edge 75, Type (0, 0), BuildingBlock: OJICUG_clean_linker_0, # of connection points: 2
#     Edge 76, Type (0, 0), BuildingBlock: OJICUG_clean_linker_0, # of connection points: 2
#     Edge 77, Type (0, 0), BuildingBlock: OJICUG_clean_linker_0, # of connection points: 2
#     Edge 78, Type (0, 0), BuildingBlock: OJICUG_clean_linker_0, # of connection points: 2
#     Edge 79, Type (0, 0), BuildingBlock: OJICUG_clean_linker_0, # of connection points: 2
#     Edge 80, Type (0, 0), BuildingBlock: OJICUG_clean_linker_0, # of connection points: 2
#     Edge 81, Type (0, 0), BuildingBlock: OJICUG_clean_linker_0, # of connection points: 2
#     Edge 82, Type (0, 0), BuildingBlock: OJICUG_clean_linker_0, # of connection points: 2
#     Edge 83, Type (0, 0), BuildingBlock: OJICUG_clean_linker_0, # of connection points: 2
#     Edge 84, Type (0, 0), BuildingBlock: OJICUG_clean_linker_0, # of connection points: 2
#     Edge 85, Type (0, 0), BuildingBlock: OJICUG_clean_linker_0, # of connection points: 2
#     Edge 86, Type (0, 0), BuildingBlock: OJICUG_clean_linker_0, # of connection points: 2
#     Edge 87, Type (0, 0), BuildingBlock: OJICUG_clean_linker_0, # of connection points: 2
#     Edge 88, Type (0, 0), BuildingBlock: OJICUG_clean_linker_0, # of connection points: 2
#     Edge 89, Type (0, 0), BuildingBlock: OJICUG_clean_linker_0, # of connection points: 2
#     Edge 90, Type (0, 0), BuildingBlock: OJICUG_clean_linker_0, # of connection points: 2
#     Edge 91, Type (0, 0), BuildingBlock: OJICUG_clean_linker_0, # of connection points: 2
#     Edge 92, Type (0, 0), BuildingBlock: OJICUG_clean_linker_0, # of connection points: 2
#     Edge 93, Type (0, 0), BuildingBlock: OJICUG_clean_linker_0, # of connection points: 2
#     Edge 94, Type (0, 0), BuildingBlock: OJICUG_clean_linker_0, # of connection points: 2
#     Edge 95, Type (0, 0), BuildingBlock: OJICUG_clean_linker_0, # of connection points: 2
# Relax obj value: 0.180
# Max RMSD: 0.417
# Mean RMSD: 0.267
data_MOF--net-uoi--node1-GALJAG_clean_sbu_0--edge1-OJICUG_clean_linker_0
_symmetry_space_group_name_H-M    P1
_symmetry_Int_Tables_number       1
_symmetry_cell_setting            triclinic
loop_
_symmetry_equiv_pos_as_xyz
'x, y, z'
_cell_length_a     32.45743
_cell_length_b     50.349044
_cell_length_c     17.335325
_cell_angle_alpha  89.994843
_cell_angle_beta   89.919312
_cell_angle_gamma 90.14755
loop_
_atom_site_label
_atom_site_type_symbol
_atom_site_fract_x
_atom_site_fract_y
_atom_site_fract_z
_atom_type_partial_charge
In0 In 0.31726 0.19213 0.21976 0.0
O1 O 0.25546 0.18505 0.15949 0.0
O2 O 0.3008 0.15445 0.15484 0.0
C3 C 0.29467 0.22201 0.34081 0.0
C4 C 0.34978 0.22372 0.10935 0.0
C5 C 0.35299 0.16245 0.32896 0.0
O6 O 0.26872 0.20736 0.30628 0.0
O7 O 0.32975 0.22299 0.30989 0.0
O8 O 0.37214 0.18133 0.29641 0.0
O9 O 0.32047 0.15566 0.2945 0.0
C10 C 0.26529 0.16214 0.13537 0.0
O11 O 0.36309 0.20034 0.1198 0.0
O12 O 0.32134 0.23058 0.15448 0.0
In13 In 0.10982 0.87994 0.56698 0.0
O14 O 0.15792 0.8474 0.55046 0.0
O15 O 0.16483 0.88255 0.48416 0.0
C16 C 0.07796 0.85607 0.69352 0.0
C17 C 0.05637 0.87924 0.4477 0.0
C18 C 0.1183 0.92793 0.6364 0.0
O19 O 0.1134 0.86649 0.69277 0.0
O20 O 0.06042 0.85556 0.62873 0.0
O21 O 0.08377 0.9177 0.62085 0.0
O22 O 0.14888 0.91467 0.61337 0.0
C23 C 0.17841 0.85979 0.49982 0.0
O24 O 0.07472 0.90008 0.46962 0.0
O25 O 0.06478 0.85873 0.48621 0.0
In26 In 0.16273 0.78434 0.77517 0.0
O27 O 0.1227 0.77899 0.66867 0.0
O28 O 0.15275 0.74476 0.71407 0.0
C29 C 0.20562 0.76671 0.89768 0.0
C30 C 0.2198 0.81503 0.70425 0.0
C31 C 0.09732 0.79462 0.86544 0.0
O32 O 0.18496 0.7878 0.89815 0.0
O33 O 0.20544 0.75423 0.8344 0.0
O34 O 0.10181 0.77324 0.8284 0.0
O35 O 0.1237 0.81237 0.84889 0.0
C36 C 0.12872 0.75422 0.66378 0.0
O37 O 0.22549 0.79138 0.72487 0.0
O38 O 0.18403 0.82386 0.71824 0.0
In39 In 0.43601 0.07824 0.14093 0.0
O40 O 0.48931 0.0735 0.05621 0.0
O41 O 0.4704 0.11275 0.08603 0.0
C42 C 0.41322 0.02933 0.1834 0.0
C43 C 0.37133 0.09609 0.06191 0.0
C44 C 0.47145 0.08777 0.27713 0.0
O45 O 0.44136 0.03341 0.13402 0.0
O46 O 0.39472 0.04988 0.20673 0.0
O47 O 0.43848 0.09958 0.25843 0.0
O48 O 0.48615 0.07257 0.22651 0.0
C49 C 0.49476 0.09826 0.04816 0.0
O50 O 0.38405 0.10722 0.12299 0.0
O51 O 0.39008 0.07512 0.04279 0.0
In52 In 0.36356 0.78049 0.25544 0.0
O53 O 0.41443 0.77559 0.3448 0.0
O54 O 0.3803 0.74125 0.31146 0.0
C55 C 0.30729 0.75707 0.16277 0.0
C56 C 0.31824 0.81116 0.35009 0.0
C57 C 0.40572 0.79901 0.13365 0.0
O58 O 0.29788 0.77214 0.21772 0.0
O59 O 0.34502 0.75145 0.15918 0.0
O60 O 0.4206 0.78231 0.18011 0.0
O61 O 0.37381 0.81042 0.15889 0.0
C62 C 0.40834 0.75092 0.35359 0.0
O63 O 0.3201 0.7862 0.35402 0.0
O64 O 0.34204 0.82156 0.30042 0.0
In65 In 0.40891 0.88867 0.44402 0.0
O66 O 0.37179 0.85314 0.48633 0.0
O67 O 0.34817 0.89152 0.51093 0.0
C68 C 0.43561 0.86685 0.31158 0.0
C69 C 0.46145 0.89343 0.56305 0.0
C70 C 0.40557 0.93558 0.37109 0.0
O71 O 0.39963 0.87599 0.31914 0.0
O72 O 0.45547 0.86509 0.37387 0.0
O73 O 0.43877 0.92547 0.3947 0.0
O74 O 0.37323 0.92295 0.38904 0.0
C75 C 0.3446 0.86681 0.52006 0.0
O76 O 0.43552 0.91106 0.54554 0.0
O77 O 0.46147 0.87335 0.51955 0.0
In78 In 0.23754 0.18381 0.74161 0.0
O79 O 0.19817 0.1933 0.84435 0.0
O80 O 0.25045 0.21848 0.82044 0.0
C81 C 0.28976 0.17307 0.62606 0.0
C82 C 0.27358 0.15112 0.83885 0.0
C83 C 0.17483 0.20218 0.65794 0.0
O84 O 0.26119 0.15743 0.64683 0.0
O85 O 0.29147 0.19493 0.66274 0.0
O86 O 0.20419 0.21639 0.68235 0.0
O87 O 0.17667 0.17766 0.67583 0.0
C88 C 0.2203 0.21292 0.86467 0.0
O89 O 0.28888 0.17306 0.81754 0.0
O90 O 0.2393 0.14454 0.80812 0.0
In91 In 0.10611 0.07702 0.83896 0.0
O92 O 0.15005 0.11156 0.86249 0.0
O93 O 0.1535 0.07795 0.93668 0.0
C94 C 0.0759 0.08354 0.69652 0.0
C95 C 0.0417 0.09299 0.92465 0.0
C96 C 0.12643 0.02643 0.80635 0.0
O97 O 0.10986 0.09418 0.71526 0.0
O98 O 0.05733 0.07162 0.75 0.0
O99 O 0.09962 0.03252 0.8563 0.0
O100 O 0.14626 0.04594 0.77886 0.0
C101 C 0.16568 0.10128 0.92219 0.0
O102 O 0.05255 0.06896 0.92024 0.0
O103 O 0.06352 0.10907 0.88655 0.0
In104 In 0.65689 0.80024 0.7232 0.0
O105 O 0.69705 0.80404 0.82785 0.0
O106 O 0.67526 0.8402 0.77819 0.0
C107 C 0.62873 0.81571 0.58407 0.0
C108 C 0.60479 0.77492 0.81781 0.0
C109 C 0.71623 0.77353 0.64999 0.0
O110 O 0.60817 0.80092 0.62868 0.0
O111 O 0.65871 0.82705 0.61671 0.0
O112 O 0.72333 0.79369 0.69067 0.0
O113 O 0.67982 0.76483 0.65421 0.0
C114 C 0.69705 0.82909 0.82969 0.0
O115 O 0.60187 0.79963 0.8049 0.0
O116 O 0.63197 0.76312 0.77846 0.0
In117 In 0.92387 0.08358 0.31266 0.0
O118 O 0.96487 0.06118 0.39617 0.0
O119 O 0.97896 0.10175 0.37552 0.0
C120 C 0.91013 0.03658 0.24399 0.0
C121 C 0.86869 0.10525 0.40949 0.0
C122 C 0.93867 0.10862 0.17881 0.0
O123 O 0.94532 0.04724 0.24762 0.0
O124 O 0.88171 0.04905 0.27821 0.0
O125 O 0.90473 0.09725 0.19266 0.0
O126 O 0.96321 0.10939 0.2351 0.0
C127 C 0.98741 0.08088 0.4122 0.0
O128 O 0.88594 0.1182 0.3561 0.0
O129 O 0.87659 0.08079 0.41005 0.0
In130 In 0.83907 0.21109 0.27419 0.0
O131 O 0.8802 0.22076 0.37968 0.0
O132 O 0.84471 0.25153 0.32948 0.0
C133 C 0.87988 0.17849 0.17843 0.0
C134 C 0.78218 0.18435 0.3571 0.0
C135 C 0.81623 0.2364 0.14461 0.0
O136 O 0.89651 0.19919 0.20589 0.0
O137 O 0.84717 0.17188 0.21281 0.0
O138 O 0.79043 0.2235 0.18483 0.0
O139 O 0.85182 0.23792 0.173 0.0
C140 C 0.86913 0.24485 0.38228 0.0
O141 O 0.77488 0.20693 0.32799 0.0
O142 O 0.81778 0.17538 0.34365 0.0
In143 In 0.60208 0.91412 0.96709 0.0
O144 O 0.55197 0.92056 0.05812 0.0
O145 O 0.56906 0.88077 0.03142 0.0
C146 C 0.62382 0.96302 0.91949 0.0
C147 C 0.66984 0.89478 0.0349 0.0
C148 C 0.5598 0.90334 0.83797 0.0
O149 O 0.59895 0.95921 0.97481 0.0
O150 O 0.63971 0.9422 0.89184 0.0
O151 O 0.59429 0.89244 0.85061 0.0
O152 O 0.54725 0.91849 0.8907 0.0
C153 C 0.54612 0.89601 0.06985 0.0
O154 O 0.65234 0.88338 0.97865 0.0
O155 O 0.65412 0.91661 0.05529 0.0
In156 In 0.76278 0.19144 0.77108 0.0
O157 O 0.72069 0.20425 0.67539 0.0
O158 O 0.77538 0.22746 0.69582 0.0
C159 C 0.81869 0.18167 0.88157 0.0
C160 C 0.79381 0.15898 0.66614 0.0
C161 C 0.70013 0.20556 0.86242 0.0
O162 O 0.79109 0.1652 0.86208 0.0
O163 O 0.81785 0.20368 0.84567 0.0
O164 O 0.72725 0.22151 0.83784 0.0
O165 O 0.70425 0.18155 0.84085 0.0
C166 C 0.74329 0.22362 0.6552 0.0
O167 O 0.81116 0.18011 0.6883 0.0
O168 O 0.76019 0.15297 0.70016 0.0
In169 In 0.62072 0.1065 0.6677 0.0
O170 O 0.65211 0.14391 0.62092 0.0
O171 O 0.67747 0.10668 0.58922 0.0
C172 C 0.59948 0.12876 0.80209 0.0
C173 C 0.56439 0.09879 0.55663 0.0
C174 C 0.62736 0.05952 0.74111 0.0
O175 O 0.63509 0.1195 0.79022 0.0
O176 O 0.57714 0.13026 0.74267 0.0
O177 O 0.59337 0.07028 0.7252 0.0
O178 O 0.65885 0.07168 0.71592 0.0
C179 C 0.67806 0.13154 0.58037 0.0
O180 O 0.59267 0.08244 0.57144 0.0
O181 O 0.56376 0.11908 0.59932 0.0
In182 In 0.83609 0.79283 0.23569 0.0
O183 O 0.85998 0.79952 0.1146 0.0
O184 O 0.81244 0.7704 0.13413 0.0
C185 C 0.80286 0.77867 0.36835 0.0
C186 C 0.78468 0.83276 0.2101 0.0
C187 C 0.90309 0.77023 0.29394 0.0
O188 O 0.82574 0.79899 0.36146 0.0
O189 O 0.79511 0.76592 0.30663 0.0
O190 O 0.87775 0.7578 0.25153 0.0
O191 O 0.89863 0.79542 0.29399 0.0
C192 C 0.83406 0.78336 0.08604 0.0
O193 O 0.77363 0.80923 0.22498 0.0
O194 O 0.82335 0.83727 0.21467 0.0
In195 In 0.91032 0.88657 0.04579 0.0
O196 O 0.85291 0.86002 0.04716 0.0
O197 O 0.8568 0.89066 0.96255 0.0
C198 C 0.95504 0.87848 0.17431 0.0
C199 C 0.96482 0.86887 0.94005 0.0
C200 C 0.8939 0.93686 0.08621 0.0
O201 O 0.92281 0.86482 0.16177 0.0
O202 O 0.96443 0.89449 0.12153 0.0
O203 O 0.91501 0.93105 0.02719 0.0
O204 O 0.87879 0.91722 0.12188 0.0
C205 C 0.836 0.8718 0.99092 0.0
O206 O 0.95918 0.89315 0.95439 0.0
O207 O 0.94172 0.85308 0.97677 0.0
In208 In 0.83185 0.71015 0.68906 0.0
O209 O 0.88855 0.70112 0.61004 0.0
O210 O 0.85317 0.73616 0.59256 0.0
C211 C 0.83843 0.68532 0.82683 0.0
C212 C 0.76803 0.6859 0.62073 0.0
C213 C 0.82042 0.75398 0.77328 0.0
O214 O 0.86508 0.70192 0.80422 0.0
O215 O 0.81493 0.6775 0.77384 0.0
O216 O 0.79027 0.74044 0.74833 0.0
O217 O 0.85516 0.74673 0.7486 0.0
C218 C 0.88371 0.72252 0.57243 0.0
O219 O 0.76789 0.71061 0.63477 0.0
O220 O 0.80097 0.67394 0.63811 0.0
In221 In 0.57458 0.40718 0.18265 0.0
O222 O 0.61853 0.37526 0.14133 0.0
O223 O 0.62291 0.41326 0.08863 0.0
C224 C 0.56196 0.38121 0.31588 0.0
C225 C 0.51213 0.40603 0.07995 0.0
C226 C 0.58164 0.45475 0.25193 0.0
O227 O 0.5946 0.39416 0.30279 0.0
O228 O 0.53782 0.37945 0.25917 0.0
O229 O 0.54818 0.44194 0.24916 0.0
O230 O 0.61147 0.44415 0.21662 0.0
C231 C 0.63488 0.38951 0.08974 0.0
O232 O 0.53058 0.42714 0.09884 0.0
O233 O 0.52415 0.38556 0.115 0.0
In234 In 0.68499 0.29523 0.22958 0.0
O235 O 0.64275 0.28415 0.12704 0.0
O236 O 0.68165 0.2546 0.17462 0.0
C237 C 0.64431 0.32807 0.32469 0.0
C238 C 0.73858 0.32316 0.14267 0.0
C239 C 0.70871 0.27098 0.36034 0.0
O240 O 0.62759 0.30728 0.29789 0.0
O241 O 0.67711 0.33449 0.29027 0.0
O242 O 0.73441 0.28332 0.31837 0.0
O243 O 0.67289 0.26939 0.33299 0.0
C244 C 0.65575 0.26049 0.12349 0.0
O245 O 0.74807 0.30093 0.17189 0.0
O246 O 0.70273 0.33116 0.1585 0.0
In247 In 0.89337 0.60196 0.54298 0.0
O248 O 0.85587 0.63977 0.53657 0.0
O249 O 0.83223 0.60583 0.47881 0.0
C250 C 0.92773 0.61847 0.67497 0.0
C251 C 0.94214 0.60575 0.41758 0.0
C252 C 0.8872 0.55178 0.59589 0.0
O253 O 0.89268 0.60762 0.67304 0.0
O254 O 0.94383 0.62286 0.61001 0.0
O255 O 0.91998 0.56114 0.56728 0.0
O256 O 0.85651 0.56712 0.59257 0.0
C257 C 0.82832 0.63018 0.49356 0.0
O258 O 0.91555 0.58754 0.42546 0.0
O259 O 0.94466 0.62159 0.47359 0.0
In260 In 0.76021 0.31364 0.73167 0.0
O261 O 0.80264 0.30318 0.82902 0.0
O262 O 0.75122 0.27714 0.80589 0.0
C263 C 0.70537 0.3244 0.62061 0.0
C264 C 0.72379 0.34291 0.83754 0.0
C265 C 0.82329 0.29961 0.64189 0.0
O266 O 0.73296 0.3407 0.64164 0.0
O267 O 0.70595 0.30206 0.65488 0.0
O268 O 0.79563 0.2837 0.6647 0.0
O269 O 0.81935 0.32358 0.66418 0.0
C270 C 0.78214 0.28269 0.84811 0.0
O271 O 0.70938 0.32124 0.81232 0.0
O272 O 0.75707 0.35114 0.8061 0.0
In273 In 0.89839 0.40958 0.85051 0.0
O274 O 0.92124 0.43061 0.95746 0.0
O275 O 0.9541 0.39634 0.9202 0.0
C276 C 0.88882 0.45809 0.78795 0.0
C277 C 0.83961 0.38112 0.92481 0.0
C278 C 0.92952 0.39296 0.71559 0.0
O279 O 0.9219 0.45043 0.81891 0.0
O280 O 0.85898 0.44195 0.79376 0.0
O281 O 0.89283 0.40089 0.72219 0.0
O282 O 0.94845 0.39011 0.77856 0.0
C283 C 0.9505 0.41466 0.96943 0.0
O284 O 0.86721 0.3703 0.88429 0.0
O285 O 0.83951 0.40613 0.92192 0.0
In286 In 0.69053 0.72658 0.20238 0.0
O287 O 0.73934 0.71794 0.28737 0.0
O288 O 0.68947 0.6898 0.27938 0.0
C289 C 0.63144 0.73715 0.10195 0.0
C290 C 0.66336 0.76354 0.3016 0.0
C291 C 0.74572 0.70936 0.09743 0.0
O292 O 0.66073 0.75303 0.11675 0.0
O293 O 0.63197 0.71505 0.13761 0.0
O294 O 0.71362 0.69648 0.11582 0.0
O295 O 0.74962 0.73177 0.1307 0.0
C296 C 0.72358 0.69635 0.31044 0.0
O297 O 0.64614 0.74109 0.29289 0.0
O298 O 0.69523 0.76745 0.26003 0.0
In299 In 0.55978 0.60434 0.44649 0.0
O300 O 0.51513 0.59329 0.54159 0.0
O301 O 0.52141 0.63444 0.51481 0.0
C302 C 0.58468 0.55524 0.40834 0.0
C303 C 0.6275 0.62994 0.49658 0.0
C304 C 0.51328 0.60881 0.3194 0.0
O305 O 0.56381 0.55993 0.46843 0.0
O306 O 0.59562 0.57558 0.37083 0.0
O307 O 0.54777 0.62053 0.32418 0.0
O308 O 0.50233 0.59658 0.37918 0.0
C309 C 0.5034 0.61678 0.55411 0.0
O310 O 0.60366 0.63982 0.44663 0.0
O311 O 0.61737 0.60712 0.52033 0.0
In312 In 0.17378 0.28942 0.28501 0.0
O313 O 0.23696 0.295 0.34139 0.0
O314 O 0.19399 0.327 0.34715 0.0
C315 C 0.19655 0.25903 0.16548 0.0
C316 C 0.14037 0.25924 0.39796 0.0
C317 C 0.1371 0.31824 0.17448 0.0
O318 O 0.22207 0.27441 0.19826 0.0
O319 O 0.16184 0.25752 0.19762 0.0
O320 O 0.11896 0.2989 0.20659 0.0
O321 O 0.1687 0.32598 0.21023 0.0
C322 C 0.22937 0.31841 0.36419 0.0
O323 O 0.12918 0.28311 0.38822 0.0
O324 O 0.16716 0.25126 0.35092 0.0
In325 In 0.36095 0.60021 0.92772 0.0
O326 O 0.32414 0.63728 0.95473 0.0
O327 O 0.30272 0.60133 0.00416 0.0
C328 C 0.38755 0.62388 0.79783 0.0
C329 C 0.41531 0.59933 0.04443 0.0
C330 C 0.35617 0.55185 0.86006 0.0
O331 O 0.35404 0.61109 0.8008 0.0
O332 O 0.40548 0.62663 0.86181 0.0
O333 O 0.38968 0.56255 0.88009 0.0
O334 O 0.32426 0.5648 0.87818 0.0
C335 C 0.29867 0.62615 -0.00078 0.0
O336 O 0.38639 0.58261 0.03873 0.0
O337 O 0.41763 0.61573 0.98987 0.0
In338 In 0.3439 0.72092 0.73416 0.0
O339 O 0.38263 0.72715 0.84194 0.0
O340 O 0.35098 0.76065 0.79546 0.0
C341 C 0.299 0.73544 0.61138 0.0
C342 C 0.28789 0.68914 0.80247 0.0
C343 C 0.41069 0.71405 0.64511 0.0
O344 O 0.32244 0.71561 0.61137 0.0
O345 O 0.29768 0.74819 0.67409 0.0
O346 O 0.4022 0.73561 0.67868 0.0
O347 O 0.38762 0.69472 0.66412 0.0
C348 C 0.37506 0.75177 0.84657 0.0
O349 O 0.2822 0.71325 0.78713 0.0
O350 O 0.32335 0.68041 0.78516 0.0
In351 In 0.09778 0.43197 0.36554 0.0
O352 O 0.14109 0.39764 0.38112 0.0
O353 O 0.14565 0.43004 0.46068 0.0
C354 C 0.05142 0.4233 0.24111 0.0
C355 C 0.03947 0.41909 0.46869 0.0
C356 C 0.134 0.47496 0.30451 0.0
O357 O 0.08304 0.4093 0.25466 0.0
O358 O 0.04339 0.44079 0.29101 0.0
O359 O 0.11147 0.47648 0.36426 0.0
O360 O 0.14023 0.4517 0.27992 0.0
C361 C 0.15722 0.40695 0.44195 0.0
O362 O 0.04909 0.44314 0.45559 0.0
O363 O 0.05908 0.40209 0.42999 0.0
In364 In 0.13678 0.72312 0.25471 0.0
O365 O 0.08743 0.73089 0.16377 0.0
O366 O 0.12591 0.76311 0.19778 0.0
C367 C 0.19492 0.74389 0.34804 0.0
C368 C 0.17851 0.6893 0.16335 0.0
C369 C 0.09325 0.70728 0.37808 0.0
O370 O 0.20295 0.72826 0.29359 0.0
O371 O 0.15793 0.75131 0.35089 0.0
O372 O 0.08 0.72434 0.33096 0.0
O373 O 0.1238 0.69436 0.35313 0.0
C374 C 0.09684 0.75513 0.15526 0.0
O375 O 0.18358 0.71412 0.16397 0.0
O376 O 0.14967 0.68094 0.20656 0.0
In377 In 0.09926 0.60497 0.03245 0.0
O378 O 0.13791 0.64149 0.00894 0.0
O379 O 0.15299 0.60575 0.94852 0.0
C380 C 0.04579 0.61213 0.14792 0.0
C381 C 0.04341 0.61017 0.92117 0.0
C382 C 0.13629 0.56529 0.10753 0.0
O383 O 0.07681 0.62739 0.14008 0.0
O384 O 0.04186 0.59459 0.09653 0.0
O385 O 0.11912 0.56182 0.04256 0.0
O386 O 0.13716 0.58904 0.13114 0.0
C387 C 0.16018 0.63018 0.9586 0.0
O388 O 0.05641 0.58755 0.94208 0.0
O389 O 0.05916 0.62985 0.95537 0.0
In390 In 0.25585 0.30051 0.76236 0.0
O391 O 0.29488 0.28797 0.66169 0.0
O392 O 0.2381 0.26701 0.68104 0.0
C393 C 0.20124 0.30968 0.87623 0.0
C394 C 0.22971 0.33821 0.66777 0.0
C395 C 0.31778 0.28176 0.84854 0.0
O396 O 0.23009 0.32547 0.85865 0.0
O397 O 0.2 0.28844 0.83663 0.0
O398 O 0.28961 0.26751 0.82009 0.0
O399 O 0.31535 0.30639 0.83302 0.0
C400 C 0.27001 0.27013 0.63933 0.0
O401 O 0.20966 0.31733 0.683 0.0
O402 O 0.26388 0.34098 0.70298 0.0
In403 In 0.39105 0.4051 0.654 0.0
O404 O 0.4449 0.41534 0.57555 0.0
O405 O 0.43642 0.3747 0.60636 0.0
C406 C 0.36272 0.45398 0.68748 0.0
C407 C 0.33448 0.37939 0.56733 0.0
C408 C 0.42275 0.40019 0.79604 0.0
O409 O 0.39053 0.4498 0.63776 0.0
O410 O 0.3461 0.43322 0.71462 0.0
O411 O 0.39159 0.38654 0.77635 0.0
O412 O 0.43802 0.41443 0.74368 0.0
C413 C 0.45748 0.39168 0.57007 0.0
O414 O 0.34826 0.36991 0.62981 0.0
O415 O 0.34705 0.40254 0.55161 0.0
C416 C 0.311 0.14284 0.51892 0.0
C417 C 0.31688 0.16667 0.55976 0.0
H418 H 0.3206 0.12193 0.41307 0.0
C419 C 0.34604 0.18502 0.53222 0.0
H420 H 0.2896 0.12791 0.53964 0.0
C421 C 0.36454 0.18129 0.4599 0.0
C422 C 0.35362 0.15933 0.41385 0.0
H423 H 0.35215 0.20319 0.56362 0.0
H424 H 0.38325 0.19722 0.43646 0.0
C425 C 0.32938 0.13914 0.44682 0.0
C426 C 0.09059 0.95954 0.73412 0.0
C427 C 0.12226 0.95244 0.68297 0.0
H428 H 0.06795 0.98791 0.81542 0.0
C429 C 0.15746 0.96868 0.67802 0.0
H430 H 0.06338 0.94718 0.74002 0.0
C431 C 0.15989 0.99234 0.72066 0.0
C432 C 0.12771 0.9997 0.77066 0.0
H433 H 0.18246 0.96353 0.6394 0.0
H434 H 0.18648 0.00514 0.71325 0.0
C435 C 0.09349 0.98272 0.77811 0.0
C436 C 0.29399 0.74566 0.02467 0.0
C437 C 0.27884 0.75294 0.09775 0.0
H438 H 0.28238 0.74464 0.90301 0.0
C439 C 0.23776 0.7613 0.10478 0.0
H440 H 0.32573 0.73953 0.0174 0.0
C441 C 0.21318 0.7641 0.03949 0.0
C442 C 0.22912 0.75852 0.96605 0.0
H443 H 0.22527 0.7671 0.16026 0.0
H444 H 0.18223 0.77179 0.04609 0.0
C445 C 0.26922 0.74846 0.95917 0.0
C446 C 0.44061 0.98532 0.22247 0.0
C447 C 0.40799 0.00354 0.22243 0.0
H448 H 0.46564 0.94988 0.2714 0.0
C449 C 0.37324 0.99855 0.26884 0.0
H450 H 0.46791 0.98875 0.18778 0.0
C451 C 0.37173 0.97603 0.31617 0.0
C452 C 0.40548 0.95872 0.31932 0.0
H453 H 0.34775 0.01239 0.27003 0.0
H454 H 0.34493 0.97269 0.35224 0.0
C455 C 0.43957 0.96329 0.27115 0.0
C456 C 0.80355 0.78042 0.51131 0.0
C457 C 0.78476 0.77165 0.44308 0.0
H458 H 0.79696 0.78655 0.6327 0.0
C459 C 0.74651 0.75887 0.44668 0.0
H460 H 0.8334 0.79011 0.50993 0.0
C461 C 0.72534 0.75731 0.51638 0.0
C462 C 0.74294 0.76753 0.58407 0.0
H463 H 0.73142 0.75216 0.3949 0.0
H464 H 0.69374 0.75035 0.51564 0.0
C465 C 0.78292 0.77816 0.58153 0.0
C466 C 0.92916 0.00582 0.13781 0.0
C467 C 0.90296 0.01207 0.19964 0.0
H468 H 0.94576 0.97747 0.05157 0.0
C469 C 0.87071 0.99462 0.2187 0.0
H470 H 0.95386 0.01919 0.1212 0.0
C471 C 0.86637 0.97048 0.17935 0.0
C472 C 0.89354 0.96386 0.11916 0.0
H473 H 0.84997 0.99914 0.26588 0.0
H474 H 0.84252 0.95671 0.19739 0.0
C475 C 0.92421 0.98209 0.09738 0.0
C476 C 0.87574 0.1953 0.97115 0.0
C477 C 0.84665 0.17634 0.94731 0.0
H478 H 0.91237 0.20989 0.06447 0.0
C479 C 0.84103 0.1534 0.99242 0.0
H480 H 0.88179 0.21274 0.93634 0.0
C481 C 0.859 0.15153 0.06544 0.0
C482 C 0.88246 0.17272 0.0948 0.0
H483 H 0.81976 0.13797 0.97458 0.0
H484 H 0.85011 0.13516 0.10255 0.0
C485 C 0.89391 0.19336 0.0442 0.0
C486 C 0.66048 0.99378 0.828 0.0
C487 C 0.62854 0.98915 0.88141 0.0
H488 H 0.68569 0.0201 0.74213 0.0
C489 C 0.59803 0.00856 0.89122 0.0
H490 H 0.68434 0.97908 0.81912 0.0
C491 C 0.59815 0.03144 0.84577 0.0
C492 C 0.62933 0.03574 0.79082 0.0
H493 H 0.57289 0.00552 0.93148 0.0
H494 H 0.57351 0.0457 0.85318 0.0
C495 C 0.6612 0.01712 0.78379 0.0
C496 C 0.83753 0.70406 0.9613 0.0
C497 C 0.82306 0.68521 0.90773 0.0
H498 H 0.82503 0.72583 0.0651 0.0
C499 C 0.78648 0.67136 0.92502 0.0
H500 H 0.86557 0.71514 0.9501 0.0
C501 C 0.76253 0.67839 0.98895 0.0
C502 C 0.77476 0.69923 0.03781 0.0
H503 H 0.77441 0.65663 0.88543 0.0
H504 H 0.73315 0.66853 -0.00276 0.0
C505 C 0.81375 0.71076 0.0262 0.0
C506 C 0.5611 0.50829 0.39901 0.0
C507 C 0.58884 0.52825 0.37615 0.0
H508 H 0.53662 0.46957 0.37618 0.0
C509 C 0.61629 0.52319 0.31512 0.0
H510 H 0.53936 0.5117 0.44543 0.0
C511 C 0.61505 0.49886 0.27603 0.0
C512 C 0.58558 0.4796 0.29612 0.0
H513 H 0.63786 0.5383 0.29618 0.0
H514 H 0.63592 0.49556 0.2282 0.0
C515 C 0.55917 0.48432 0.35879 0.0
C516 C 0.66608 0.35512 0.43681 0.0
C517 C 0.64154 0.33434 0.40802 0.0
H518 H 0.70648 0.36794 0.52683 0.0
C519 C 0.62888 0.31421 0.45929 0.0
H520 H 0.67578 0.37117 0.39924 0.0
C521 C 0.64707 0.31209 0.53228 0.0
C522 C 0.67749 0.33031 0.5552 0.0
H523 H 0.6094 0.29809 0.43958 0.0
H524 H 0.63996 0.29497 0.56776 0.0
C525 C 0.68423 0.35301 0.50963 0.0
C526 C 0.92448 0.49359 0.71344 0.0
C527 C 0.88741 0.48223 0.73957 0.0
H528 H 0.95333 0.52388 0.64589 0.0
C529 C 0.84988 0.49313 0.71489 0.0
H530 H 0.95392 0.48538 0.73039 0.0
C531 C 0.84953 0.51546 0.66648 0.0
C532 C 0.88674 0.5268 0.64064 0.0
H533 H 0.82086 0.48458 0.73356 0.0
H534 H 0.82026 0.52393 0.6497 0.0
C535 C 0.92413 0.51546 0.6641 0.0
C536 C 0.17825 0.33899 0.98419 0.0
C537 C 0.17374 0.31514 0.94277 0.0
H538 H 0.16767 0.35941 0.09058 0.0
C539 C 0.14606 0.2959 0.97049 0.0
H540 H 0.19854 0.35456 0.96348 0.0
C541 C 0.1276 0.29897 0.04317 0.0
C542 C 0.13706 0.32118 0.08944 0.0
H543 H 0.14118 0.2776 0.93896 0.0
H544 H 0.11001 0.28251 0.06653 0.0
C545 C 0.15998 0.34202 0.05667 0.0
C546 C 0.38855 0.49951 0.71647 0.0
C547 C 0.35708 0.48044 0.72342 0.0
H548 H 0.41319 0.53657 0.75571 0.0
C549 C 0.32377 0.48565 0.77321 0.0
H550 H 0.41484 0.49605 0.67927 0.0
C551 C 0.32253 0.50926 0.81638 0.0
C552 C 0.35526 0.52754 0.81224 0.0
H553 H 0.29923 0.47122 0.78014 0.0
H554 H 0.29686 0.51275 0.85503 0.0
C555 C 0.3879 0.52259 0.76105 0.0
C556 C 0.20894 0.75462 0.48616 0.0
C557 C 0.22362 0.74722 0.41288 0.0
H558 H 0.22182 0.75685 0.60741 0.0
C559 C 0.26438 0.73834 0.40515 0.0
H560 H 0.17741 0.76113 0.49386 0.0
C561 C 0.28939 0.73568 0.46987 0.0
C562 C 0.27422 0.74203 0.54339 0.0
H563 H 0.27639 0.73233 0.34949 0.0
H564 H 0.32028 0.72792 0.46267 0.0
C565 C 0.23421 0.75216 0.5511 0.0
C566 C 0.14192 0.52411 0.28826 0.0
C567 C 0.14489 0.49842 0.25753 0.0
H568 H 0.13837 0.56574 0.26425 0.0
C569 C 0.15209 0.49533 0.17794 0.0
H570 H 0.13643 0.52704 0.34932 0.0
C571 C 0.1522 0.51738 0.12898 0.0
C572 C 0.14628 0.54292 0.15907 0.0
H573 H 0.15444 0.47574 0.1525 0.0
H574 H 0.15472 0.51432 0.0673 0.0
C575 C 0.14317 0.54623 0.23948 0.0
C576 C 0.21792 0.10362 0.02899 0.0
C577 C 0.192 0.11655 0.97612 0.0
H578 H 0.2622 0.10801 0.12026 0.0
C579 C 0.18922 0.14438 0.97856 0.0
H580 H 0.2204 0.08217 0.02889 0.0
C581 C 0.21201 0.15895 0.03238 0.0
C582 C 0.23875 0.14621 0.08359 0.0
H583 H 0.16881 0.15486 0.9398 0.0
H584 H 0.20957 0.18026 0.03316 0.0
C585 C 0.24163 0.11836 0.08144 0.0
C586 C 0.26285 0.81174 0.44811 0.0
C587 C 0.28578 0.82566 0.39271 0.0
H588 H 0.21057 0.81102 0.5229 0.0
C589 C 0.27387 0.85164 0.37357 0.0
H590 H 0.27224 0.79218 0.46582 0.0
C591 C 0.23897 0.86302 0.40847 0.0
C592 C 0.21535 0.84843 0.46218 0.0
H593 H 0.29086 0.86287 0.33068 0.0
H594 H 0.23025 0.88306 0.39289 0.0
C595 C 0.22772 0.82267 0.48125 0.0
C596 C 0.27861 0.86918 0.59685 0.0
C597 C 0.31314 0.85478 0.57091 0.0
H598 H 0.22124 0.86786 0.65949 0.0
C599 C 0.31819 0.82851 0.59542 0.0
H600 H 0.27434 0.88967 0.57973 0.0
C601 C 0.28852 0.8164 0.64146 0.0
C602 C 0.25258 0.82995 0.66335 0.0
H603 H 0.34489 0.81707 0.5781 0.0
H604 H 0.29332 0.79605 0.65801 0.0
C605 C 0.24833 0.85677 0.64251 0.0
C606 C 0.29424 0.10812 0.90164 0.0
C607 C 0.29428 0.13597 0.89973 0.0
H608 H 0.31927 0.07324 0.95571 0.0
C609 C 0.31738 0.15018 0.9543 0.0
H610 H 0.27674 0.09683 0.85974 0.0
C611 C 0.34108 0.13696 0.00852 0.0
C612 C 0.34212 0.10919 0.00979 0.0
H613 H 0.31756 0.1717 0.95447 0.0
H614 H 0.35979 0.14856 0.04782 0.0
C615 C 0.31849 0.09474 0.95614 0.0
C616 C 0.77629 0.84039 0.98417 0.0
C617 C 0.79608 0.8634 0.95747 0.0
H618 H 0.72811 0.81199 0.9659 0.0
C619 C 0.77853 0.87748 0.89558 0.0
H620 H 0.78841 0.82955 0.03283 0.0
C621 C 0.74364 0.8676 0.85754 0.0
C622 C 0.72604 0.84337 0.88054 0.0
H623 H 0.79276 0.89555 0.87436 0.0
H624 H 0.73226 0.87794 0.80715 0.0
C625 C 0.74165 0.83047 0.94608 0.0
C626 C 0.80465 0.11706 0.58959 0.0
C627 C 0.81092 0.1444 0.60011 0.0
H628 H 0.81821 0.08291 0.51959 0.0
C629 C 0.83514 0.15855 0.54687 0.0
H630 H 0.78615 0.1058 0.63014 0.0
C631 C 0.85297 0.14574 0.4844 0.0
C632 C 0.8469 0.11846 0.47323 0.0
H633 H 0.84037 0.17971 0.55334 0.0
H634 H 0.87223 0.1572 0.44558 0.0
C635 C 0.82287 0.10408 0.52659 0.0
C636 C 0.70062 0.17231 0.50896 0.0
C637 C 0.70403 0.14485 0.52155 0.0
H638 H 0.72147 0.20583 0.44361 0.0
C639 C 0.73039 0.13005 0.47371 0.0
H640 H 0.67941 0.18414 0.54271 0.0
C641 C 0.75492 0.14274 0.41822 0.0
C642 C 0.75291 0.17037 0.40851 0.0
H643 H 0.73258 0.1087 0.47997 0.0
H644 H 0.77571 0.13098 0.38334 0.0
C645 C 0.72447 0.1848 0.45227 0.0
C646 C 0.73704 0.89196 0.1072 0.0
C647 C 0.69947 0.88062 0.08366 0.0
H648 H 0.79469 0.88545 0.16586 0.0
C649 C 0.68885 0.85516 0.10891 0.0
H650 H 0.74548 0.91178 0.08862 0.0
C651 C 0.71562 0.84079 0.15509 0.0
C652 C 0.7545 0.85113 0.17518 0.0
H653 H 0.65966 0.84626 0.09265 0.0
H654 H 0.7064 0.82091 0.17182 0.0
C655 C 0.76485 0.87707 0.15184 0.0
C656 C 0.69428 0.63048 0.56819 0.0
C657 C 0.66376 0.64421 0.52703 0.0
H658 H 0.75154 0.63294 0.62919 0.0
C659 C 0.6677 0.67177 0.51705 0.0
H660 H 0.69206 0.60921 0.57667 0.0
C661 C 0.7013 0.68535 0.54851 0.0
C662 C 0.73206 0.67165 0.58873 0.0
H663 H 0.64458 0.68289 0.48581 0.0
H664 H 0.70352 0.70647 0.54042 0.0
C665 C 0.72829 0.64405 0.59823 0.0
C666 C 0.66017 0.35069 0.01649 0.0
C667 C 0.66074 0.3782 0.0283 0.0
H668 H 0.68046 0.31821 0.9479 0.0
C669 C 0.68314 0.39451 0.97718 0.0
H670 H 0.64241 0.3377 0.05371 0.0
C671 C 0.70488 0.38326 0.91531 0.0
C672 C 0.70383 0.35571 0.90377 0.0
H673 H 0.68362 0.41586 0.98473 0.0
H674 H 0.72177 0.39602 0.87607 0.0
C675 C 0.68158 0.33958 0.95522 0.0
C676 C 0.79589 0.32501 0.04621 0.0
C677 C 0.76596 0.33815 0.09007 0.0
H678 H 0.84182 0.32796 0.95753 0.0
C679 C 0.7608 0.3656 0.08007 0.0
H680 H 0.80089 0.30406 0.05436 0.0
C681 C 0.78439 0.37947 0.0257 0.0
C682 C 0.81318 0.36609 0.97929 0.0
H683 H 0.73842 0.37636 0.11426 0.0
H684 H 0.77983 0.40067 0.01973 0.0
C685 C 0.819 0.33872 0.99068 0.0
C686 C 0.7795 0.69048 0.40578 0.0
C687 C 0.74612 0.6795 0.36526 0.0
H688 H 0.83093 0.68352 0.47912 0.0
C689 C 0.73784 0.65222 0.37191 0.0
H690 H 0.78689 0.7114 0.40141 0.0
C691 C 0.76391 0.636 0.41564 0.0
C692 C 0.7979 0.64705 0.45441 0.0
H693 H 0.71239 0.64328 0.34091 0.0
H694 H 0.75792 0.61485 0.4181 0.0
C695 C 0.80494 0.67447 0.45011 0.0
C696 C 0.2864 0.3765 0.45406 0.0
C697 C 0.30829 0.36388 0.51364 0.0
H698 H 0.24349 0.37198 0.36054 0.0
C699 C 0.30601 0.3361 0.5199 0.0
H700 H 0.28784 0.39788 0.44729 0.0
C701 C 0.2816 0.32138 0.46892 0.0
C702 C 0.25841 0.33401 0.41178 0.0
H703 H 0.32315 0.32575 0.56412 0.0
H704 H 0.2795 0.30018 0.47548 0.0
C705 C 0.26118 0.36173 0.40428 0.0
C706 C 0.2374 0.62899 0.08916 0.0
C707 C 0.26746 0.64143 0.04271 0.0
H708 H 0.18512 0.63439 0.16434 0.0
C709 C 0.26775 0.66918 0.03741 0.0
H710 H 0.23664 0.60758 0.09475 0.0
C711 C 0.23793 0.68416 0.07491 0.0
C712 C 0.20756 0.67205 0.12067 0.0
H713 H 0.29059 0.67947 0.00279 0.0
H714 H 0.23849 0.70539 0.06739 0.0
C715 C 0.20777 0.64426 0.1284 0.0
C716 C 0.25442 0.6454 0.83617 0.0
C717 C 0.25485 0.67325 0.83876 0.0
H718 H 0.22366 0.60965 0.87231 0.0
C719 C 0.22235 0.68651 0.87576 0.0
H720 H 0.27856 0.63469 0.80644 0.0
C721 C 0.19124 0.67245 0.91305 0.0
C722 C 0.19175 0.64466 0.91398 0.0
H723 H 0.22156 0.70788 0.87818 0.0
H724 H 0.16733 0.68341 0.94281 0.0
C725 C 0.22287 0.63115 0.87324 0.0
C726 C 0.22367 0.38372 0.60849 0.0
C727 C 0.21435 0.35648 0.60836 0.0
H728 H 0.2125 0.42156 0.55472 0.0
C729 C 0.18827 0.34614 0.5512 0.0
H730 H 0.24362 0.39208 0.65228 0.0
C731 C 0.17142 0.36261 0.49548 0.0
C732 C 0.17994 0.38988 0.49577 0.0
H733 H 0.18072 0.32516 0.54945 0.0
H734 H 0.1505 0.35404 0.45363 0.0
C735 C 0.20604 0.40045 0.55285 0.0
C736 C 0.3649 0.22883 0.96909 0.0
C737 C 0.36001 0.24047 0.04201 0.0
H738 H 0.35543 0.23359 0.84753 0.0
C739 C 0.35396 0.26808 0.04697 0.0
H740 H 0.36969 0.20764 0.96365 0.0
C741 C 0.34677 0.2831 0.98046 0.0
C742 C 0.3448 0.27051 0.90847 0.0
H743 H 0.35032 0.27754 0.10271 0.0
H744 H 0.33728 0.3036 0.98669 0.0
C745 C 0.35692 0.24375 0.90257 0.0
C746 C 0.97866 0.85634 0.29732 0.0
C747 C 0.97913 0.87805 0.2465 0.0
H748 H 0.00348 0.8395 0.40128 0.0
C749 C 0.00389 0.9002 0.26402 0.0
H750 H 0.9598 0.83907 0.28516 0.0
C751 C 0.02808 0.90065 0.33017 0.0
C752 C 0.02869 0.87881 0.38011 0.0
H753 H 0.00459 0.91739 0.22643 0.0
H754 H 0.04696 0.91802 0.34134 0.0
C755 C 0.00365 0.85661 0.36345 0.0
C756 C 0.11743 0.70056 0.51318 0.0
C757 C 0.08947 0.71253 0.46192 0.0
H758 H 0.15225 0.70468 0.61747 0.0
C759 C 0.06814 0.73534 0.48643 0.0
H760 H 0.13429 0.68294 0.49637 0.0
C761 C 0.07928 0.74816 0.55482 0.0
C762 C 0.11103 0.73798 0.60096 0.0
H763 H 0.04611 0.74497 0.44887 0.0
H764 H 0.06482 0.76691 0.56898 0.0
C765 C 0.12814 0.71321 0.58221 0.0
C766 C 0.54397 0.14103 0.89482 0.0
C767 C 0.57982 0.12656 0.87838 0.0
H768 H 0.48907 0.14356 0.96344 0.0
C769 C 0.59008 0.10475 0.92525 0.0
H770 H 0.5351 0.15762 0.85872 0.0
C771 C 0.56291 0.09597 0.98234 0.0
C772 C 0.52585 0.10945 0.99545 0.0
H773 H 0.61712 0.09289 0.91297 0.0
H774 H 0.57013 0.07806 0.01419 0.0
C775 C 0.5175 0.1328 0.95399 0.0
C776 C 0.41494 0.69958 0.50905 0.0
C777 C 0.43087 0.71538 0.56883 0.0
H778 H 0.39475 0.69893 0.39164 0.0
C779 C 0.4523 0.73878 0.54945 0.0
H780 H 0.39891 0.68119 0.52182 0.0
C781 C 0.44956 0.74912 0.47484 0.0
C782 C 0.42597 0.73588 0.41889 0.0
H783 H 0.4657 0.75109 0.59419 0.0
H784 H 0.46166 0.76884 0.46393 0.0
C785 C 0.4121 0.70994 0.43439 0.0
C786 C 0.52006 0.87763 0.64598 0.0
C787 C 0.4881 0.89582 0.63146 0.0
H788 H 0.56856 0.8658 0.72318 0.0
C789 C 0.4807 0.91629 0.68436 0.0
H790 H 0.52637 0.86164 0.60591 0.0
C791 C 0.50418 0.91841 0.75102 0.0
C792 C 0.53601 0.90029 0.76617 0.0
H793 H 0.45629 0.93056 0.6749 0.0
H794 H 0.49735 0.93442 0.79074 0.0
C795 C 0.54413 0.87998 0.71281 0.0
C796 C 0.24614 0.23959 0.97618 0.0
C797 C 0.21362 0.2264 0.93908 0.0
H798 H 0.26637 0.26057 0.07701 0.0
C799 C 0.1757 0.22389 0.97719 0.0
H800 H 0.27578 0.24114 0.94878 0.0
C801 C 0.17089 0.23368 0.0519 0.0
C802 C 0.20358 0.24679 0.08932 0.0
H803 H 0.15009 0.2137 0.95013 0.0
H804 H 0.14126 0.23126 0.0799 0.0
C805 C 0.24107 0.25003 0.05029 0.0
C806 C 0.01358 0.12438 0.02214 0.0
C807 C 0.00843 0.10166 0.97619 0.0
H808 H 0.99424 0.14477 0.12461 0.0
C809 C 0.97379 0.08542 0.98714 0.0
H810 H 0.04012 0.1372 0.01435 0.0
C811 C 0.94662 0.09043 0.04778 0.0
C812 C 0.95481 0.11111 0.10001 0.0
H813 H 0.96913 0.06793 0.95172 0.0
H814 H 0.92212 0.07626 0.05888 0.0
C815 C 0.98722 0.12885 0.08465 0.0
C816 C 0.59489 0.73528 0.90101 0.0
C817 C 0.58926 0.7627 0.88947 0.0
H818 H 0.61196 0.70505 0.98179 0.0
C819 C 0.58265 0.77909 0.9538 0.0
H820 H 0.59951 0.72215 0.85226 0.0
C821 C 0.59049 0.76936 0.02768 0.0
C822 C 0.60364 0.74305 0.03768 0.0
H823 H 0.57777 0.80024 0.94679 0.0
H824 H 0.59135 0.78322 0.07552 0.0
C825 C 0.60193 0.72543 0.97523 0.0
C826 C 0.03929 0.05904 0.59452 0.0
C827 C 0.05979 0.0823 0.61752 0.0
H828 H 0.0014 0.04014 0.51039 0.0
C829 C 0.06118 0.10415 0.56747 0.0
H830 H 0.03839 0.04177 0.63185 0.0
C831 C 0.03937 0.10334 0.49768 0.0
C832 C 0.01672 0.0805 0.47708 0.0
H833 H 0.07695 0.12224 0.58422 0.0
H834 H 0.03872 0.12091 0.4617 0.0
C835 C 0.01828 0.05806 0.52478 0.0
C836 C 0.85302 0.30348 0.51087 0.0
C837 C 0.8529 0.2908 0.58278 0.0
H838 H 0.85931 0.29847 0.38889 0.0
C839 C 0.87053 0.26541 0.58932 0.0
H840 H 0.83945 0.32299 0.50437 0.0
C841 C 0.88203 0.25127 0.52312 0.0
C842 C 0.87542 0.26236 0.44989 0.0
H843 H 0.87059 0.25524 0.64442 0.0
H844 H 0.89078 0.23062 0.52904 0.0
C845 C 0.86415 0.28929 0.44468 0.0
C846 C 0.44946 0.89135 0.19048 0.0
C847 C 0.45809 0.8694 0.23795 0.0
H848 H 0.47152 0.91759 0.10212 0.0
C849 C 0.49409 0.85469 0.22447 0.0
H850 H 0.42237 0.90341 0.2005 0.0
C851 C 0.52186 0.86257 0.1668 0.0
C852 C 0.51477 0.88585 0.12408 0.0
H853 H 0.50173 0.83798 0.26107 0.0
H854 H 0.55004 0.85139 0.15886 0.0
C855 C 0.4779 0.89978 0.13506 0.0
C856 C 0.75881 0.25805 0.46369 0.0
C857 C 0.71813 0.26059 0.43793 0.0
H858 H 0.79839 0.24295 0.55216 0.0
C859 C 0.68572 0.25278 0.48703 0.0
H860 H 0.78417 0.26384 0.42695 0.0
C861 C 0.6939 0.24206 0.55965 0.0
C862 C 0.73463 0.23861 0.58416 0.0
H863 H 0.65393 0.25452 0.4689 0.0
H864 H 0.6684 0.23569 0.59561 0.0
C865 C 0.76695 0.2467 0.53573 0.0
C866 C 0.51996 0.07061 0.37449 0.0
C867 C 0.4916 0.09022 0.35269 0.0
H868 H 0.56446 0.05779 0.45645 0.0
C869 C 0.48446 0.11185 0.40194 0.0
H870 H 0.5256 0.05346 0.33823 0.0
C871 C 0.50719 0.11443 0.47029 0.0
C872 C 0.53678 0.09522 0.49014 0.0
H873 H 0.46252 0.12712 0.38643 0.0
H874 H 0.50242 0.13172 0.50635 0.0
C875 C 0.54214 0.07302 0.4425 0.0
C876 C 0.85822 0.78842 0.9499 0.0
C877 C 0.82757 0.78075 0.00239 0.0
H878 H 0.87917 0.7867 0.833 0.0
C879 C 0.79018 0.77048 0.9744 0.0
H880 H 0.88678 0.79722 0.96986 0.0
C881 C 0.78531 0.76507 0.89606 0.0
C882 C 0.81805 0.76961 0.84481 0.0
H883 H 0.76525 0.76558 0.01348 0.0
H884 H 0.75751 0.75506 0.8772 0.0
C885 C 0.85355 0.7828 0.87153 0.0
C886 C 0.0646 0.86813 0.83006 0.0
C887 C 0.05417 0.85265 0.76557 0.0
H888 H 0.04357 0.88583 0.93528 0.0
C889 C 0.01635 0.8389 0.7654 0.0
H890 H 0.09339 0.87906 0.83181 0.0
C891 C 0.98811 0.84236 0.82588 0.0
C892 C 0.997 0.86019 0.88579 0.0
H893 H 0.00755 0.82687 0.71627 0.0
H894 H 0.95822 0.8328 0.82267 0.0
C895 C 0.03597 0.87223 0.88895 0.0
C896 C 0.92618 0.7706 0.43066 0.0
C897 C 0.92028 0.7562 0.36213 0.0
H898 H 0.91883 0.7706 0.55336 0.0
C899 C 0.91633 0.72831 0.36715 0.0
H900 H 0.92965 0.792 0.42931 0.0
C901 C 0.91065 0.71592 0.43896 0.0
C902 C 0.90891 0.73132 0.50621 0.0
H903 H 0.91213 0.71654 0.31543 0.0
H904 H 0.90243 0.69506 0.44061 0.0
C905 C 0.91986 0.75831 0.50206 0.0
C906 C 0.45617 0.42593 0.89961 0.0
C907 C 0.43939 0.40167 0.87479 0.0
H908 H 0.4913 0.44644 0.98484 0.0
C909 C 0.44217 0.37931 0.92271 0.0
H910 H 0.45388 0.44357 0.86402 0.0
C911 C 0.46426 0.38088 0.99213 0.0
C912 C 0.48304 0.40493 0.01463 0.0
H913 H 0.42937 0.36043 0.90461 0.0
H914 H 0.46804 0.36309 0.02649 0.0
C915 C 0.47745 0.42761 0.969 0.0
C916 C 0.66146 0.21603 0.0613 0.0
C917 C 0.64957 0.24285 0.05618 0.0
H918 H 0.68596 0.18238 0.00108 0.0
C919 C 0.64226 0.25384 0.98306 0.0
H920 H 0.66697 0.20698 0.11704 0.0
C921 C 0.65334 0.2397 0.91664 0.0
C922 C 0.67126 0.21438 0.92277 0.0
H923 H 0.63308 0.27441 0.97727 0.0
H924 H 0.6526 0.24981 0.86146 0.0
C925 C 0.67209 0.20182 0.99485 0.0
C926 C 0.96101 0.5918 0.28452 0.0
C927 C 0.96788 0.6085 0.34781 0.0
H928 H 0.97974 0.58029 0.1716 0.0
C929 C 0.99935 0.62777 0.34357 0.0
H930 H 0.93679 0.57693 0.28581 0.0
C931 C 0.02425 0.62972 0.27767 0.0
C932 C 0.0178 0.61253 0.21508 0.0
H933 H 0.00514 0.64103 0.39152 0.0
H934 H 0.04894 0.64425 0.27637 0.0
C935 C 0.98557 0.59383 0.21888 0.0
C936 C 0.83169 0.26683 0.94731 0.0
C937 C 0.79116 0.26839 0.92007 0.0
H938 H 0.87124 0.25581 0.04034 0.0
C939 C 0.75887 0.25897 0.96647 0.0
H940 H 0.8571 0.27428 0.91289 0.0
C941 C 0.76682 0.24813 0.03917 0.0
C942 C 0.80721 0.24722 0.06739 0.0
H943 H 0.72741 0.26117 0.9478 0.0
H944 H 0.74143 0.24116 0.07411 0.0
C945 C 0.83965 0.25642 0.02042 0.0
C946 C 0.00986 0.39894 0.04961 0.0
C947 C 0.97728 0.41682 0.03761 0.0
H948 H 0.05921 0.38689 0.1241 0.0
C949 C 0.9695 0.43658 0.09267 0.0
H950 H 0.01644 0.38348 0.00797 0.0
C951 C 0.99357 0.43838 0.15877 0.0
C952 C 0.02609 0.42054 0.17119 0.0
H953 H 0.94456 0.4506 0.08507 0.0
H954 H 0.98666 0.45388 0.20011 0.0
C955 C 0.03421 0.40083 0.11598 0.0
C956 C 0.61199 0.7774 0.40138 0.0
C957 C 0.64919 0.78232 0.36216 0.0
H958 H 0.5751 0.78523 0.50112 0.0
C959 C 0.67439 0.8033 0.38753 0.0
H960 H 0.59146 0.7617 0.38249 0.0
C961 C 0.66493 0.8169 0.456 0.0
C962 C 0.62996 0.80986 0.49995 0.0
H963 H 0.70306 0.80775 0.35813 0.0
H964 H 0.68702 0.83116 0.47797 0.0
C965 C 0.60235 0.79112 0.46917 0.0
C966 C 0.435 0.60592 0.60898 0.0
C967 C 0.46964 0.6226 0.60789 0.0
H968 H 0.38013 0.59442 0.66846 0.0
C969 C 0.47278 0.64328 0.66176 0.0
H970 H 0.43179 0.59007 0.56711 0.0
C971 C 0.44366 0.64542 0.72113 0.0
C972 C 0.41038 0.62752 0.72519 0.0
H973 H 0.49919 0.65648 0.6613 0.0
H974 H 0.44837 0.66003 0.76616 0.0
C975 C 0.40518 0.60867 0.66633 0.0
C976 C 0.13511 0.24017 0.60566 0.0
C977 C 0.14648 0.21326 0.59995 0.0
H978 H 0.12322 0.2763 0.54406 0.0
C979 C 0.14278 0.20039 0.52865 0.0
H980 H 0.13793 0.25053 0.66021 0.0
C981 C 0.13493 0.21523 0.46207 0.0
C982 C 0.13013 0.24298 0.46634 0.0
H983 H 0.15155 0.17974 0.52262 0.0
H984 H 0.13731 0.20548 0.40653 0.0
C985 C 0.12676 0.25498 0.53907 0.0
C986 C 0.45554 0.58903 0.24547 0.0
C987 C 0.48876 0.607 0.24824 0.0
H988 H 0.40692 0.57217 0.17845 0.0
C989 C 0.49871 0.62186 0.18235 0.0
H990 H 0.44735 0.57708 0.29513 0.0
C991 C 0.47526 0.61906 0.11513 0.0
C992 C 0.44194 0.60111 0.11284 0.0
H993 H 0.52435 0.63569 0.18289 0.0
H994 H 0.48301 0.63101 0.06524 0.0
C995 C 0.43255 0.58602 0.17839 0.0
C996 C 0.38107 0.80527 -0.00132 0.0
C997 C 0.41012 0.79428 0.04966 0.0
H998 H 0.34674 0.80008 0.89422 0.0
C999 C 0.43365 0.77248 0.02452 0.0
H1000 H 0.36251 0.82212 0.01595 0.0
C1001 C 0.42378 0.75944 0.95581 0.0
C1002 C 0.3911 0.76846 0.90992 0.0
H1003 H 0.45659 0.76364 0.06184 0.0
H1004 H 0.44005 0.74137 0.94111 0.0
C1005 C 0.37162 0.79243 0.92929 0.0
C1006 C 0.97424 0.42686 0.54188 0.0
C1007 C 0.00867 0.41097 0.52655 0.0
H1008 H 0.92065 0.43256 0.612 0.0
C1009 C 0.01397 0.38716 0.56772 0.0
H1010 H 0.96942 0.44519 0.51046 0.0
C1011 C 0.98661 0.38017 0.62675 0.0
C1012 C 0.95265 0.39635 0.64324 0.0
H1013 H 0.04038 0.37458 0.55677 0.0
H1014 H 0.99272 0.36267 0.66119 0.0
C1015 C 0.94606 0.41937 0.59897 0.0
C1016 C 0.05592 0.7597 0.03415 0.0
C1017 C 0.08111 0.77135 0.09061 0.0
H1018 H 0.03885 0.75959 0.91514 0.0
C1019 C 0.09774 0.79672 0.07669 0.0
H1020 H 0.04171 0.74049 0.04393 0.0
C1021 C 0.09566 0.80785 0.00289 0.0
C1022 C 0.07768 0.79338 0.94228 0.0
H1023 H 0.11638 0.80655 0.11994 0.0
H1024 H 0.11355 0.8256 0.9912 0.0
C1025 C 0.05387 0.77083 0.96042 0.0
C1026 C 0.95026 0.5978 0.79709 0.0
C1027 C 0.95255 0.61923 0.74539 0.0
H1028 H 0.97853 0.57765 0.89214 0.0
C1029 C 0.98355 0.63841 0.75435 0.0
H1030 H 0.92703 0.58248 0.7902 0.0
C1031 C 0.01246 0.63588 0.81344 0.0
C1032 C 0.01157 0.61361 0.86219 0.0
H1033 H 0.9861 0.65487 0.71434 0.0
H1034 H 0.03654 0.6507 0.81892 0.0
C1035 C 0.97999 0.59478 0.85441 0.0
C1036 C 0.24359 0.24374 0.5271 0.0
C1037 C 0.27656 0.25585 0.56592 0.0
H1038 H 0.22332 0.22303 0.42569 0.0
C1039 C 0.31531 0.25664 0.53011 0.0
H1040 H 0.2134 0.24356 0.55251 0.0
C1041 C 0.32052 0.24639 0.45602 0.0
C1042 C 0.28741 0.23437 0.41688 0.0
H1043 H 0.34137 0.26595 0.55833 0.0
H1044 H 0.35078 0.24763 0.42984 0.0
C1045 C 0.24904 0.2327 0.45371 0.0
C1046 C 0.52508 0.40168 0.50916 0.0
C1047 C 0.49158 0.38436 0.51864 0.0
H1048 H 0.57616 0.41295 0.43847 0.0
C1049 C 0.48812 0.36192 0.47102 0.0
H1050 H 0.52844 0.41896 0.54587 0.0
C1051 C 0.51484 0.35878 0.40837 0.0
C1052 C 0.54595 0.3776 0.39444 0.0
H1053 H 0.46248 0.34829 0.47763 0.0
H1054 H 0.50898 0.34303 0.36721 0.0
C1055 C 0.55266 0.398 0.44832 0.0
loop_
_geom_bond_atom_site_label_1
_geom_bond_atom_site_label_2
_geom_bond_distance
_geom_bond_site_symmetry_2
_ccdc_geom_bond_type
In0 O1 2.294 . S
In0 O2 2.326 . S
In0 O6 2.266 . S
In0 O7 2.326 . S
In0 O8 2.266 . S
In0 O9 2.326 . S
In0 O11 2.294 . S
In0 O12 2.326 . S
O1 In0 2.294 . S
O1 C10 1.240 . S
O2 In0 2.326 . S
O2 C10 1.252 . S
C3 O6 1.252 . S
C3 O7 1.260 . S
C4 O11 1.240 . S
C4 O12 1.252 . S
C5 O8 1.252 . S
C5 O9 1.260 . S
O6 In0 2.266 . S
O6 C3 1.252 . S
O7 In0 2.326 . S
O7 C3 1.260 . S
O8 In0 2.266 . S
O8 C5 1.252 . S
O9 In0 2.326 . S
O9 C5 1.260 . S
C10 O1 1.240 . S
C10 O2 1.252 . S
O11 In0 2.294 . S
O11 C4 1.240 . S
O12 In0 2.326 . S
O12 C4 1.252 . S
In13 O14 2.294 . S
In13 O15 2.326 . S
In13 O19 2.266 . S
In13 O20 2.326 . S
In13 O21 2.266 . S
In13 O22 2.326 . S
In13 O24 2.294 . S
In13 O25 2.326 . S
O14 In13 2.294 . S
O14 C23 1.240 . S
O15 In13 2.326 . S
O15 C23 1.252 . S
C16 O19 1.252 . S
C16 O20 1.260 . S
C17 O24 1.240 . S
C17 O25 1.252 . S
C18 O21 1.252 . S
C18 O22 1.260 . S
O19 In13 2.266 . S
O19 C16 1.252 . S
O20 In13 2.326 . S
O20 C16 1.260 . S
O21 In13 2.266 . S
O21 C18 1.252 . S
O22 In13 2.326 . S
O22 C18 1.260 . S
C23 O14 1.240 . S
C23 O15 1.252 . S
O24 In13 2.294 . S
O24 C17 1.240 . S
O25 In13 2.326 . S
O25 C17 1.252 . S
In26 O27 2.294 . S
In26 O28 2.326 . S
In26 O32 2.266 . S
In26 O33 2.326 . S
In26 O34 2.266 . S
In26 O35 2.326 . S
In26 O37 2.294 . S
In26 O38 2.326 . S
O27 In26 2.294 . S
O27 C36 1.240 . S
O28 In26 2.326 . S
O28 C36 1.252 . S
C29 O32 1.252 . S
C29 O33 1.260 . S
C30 O37 1.240 . S
C30 O38 1.252 . S
C31 O34 1.252 . S
C31 O35 1.260 . S
O32 In26 2.266 . S
O32 C29 1.252 . S
O33 In26 2.326 . S
O33 C29 1.260 . S
O34 In26 2.266 . S
O34 C31 1.252 . S
O35 In26 2.326 . S
O35 C31 1.260 . S
C36 O27 1.240 . S
C36 O28 1.252 . S
O37 In26 2.294 . S
O37 C30 1.240 . S
O38 In26 2.326 . S
O38 C30 1.252 . S
In39 O40 2.294 . S
In39 O41 2.326 . S
In39 O45 2.266 . S
In39 O46 2.326 . S
In39 O47 2.266 . S
In39 O48 2.326 . S
In39 O50 2.294 . S
In39 O51 2.326 . S
O40 In39 2.294 . S
O40 C49 1.240 1_554 S
O41 In39 2.326 . S
O41 C49 1.252 1_554 S
C42 O45 1.252 . S
C42 O46 1.260 . S
C43 O50 1.240 . S
C43 O51 1.252 . S
C44 O47 1.252 . S
C44 O48 1.260 . S
O45 In39 2.266 . S
O45 C42 1.252 . S
O46 In39 2.326 . S
O46 C42 1.260 . S
O47 In39 2.266 . S
O47 C44 1.252 . S
O48 In39 2.326 . S
O48 C44 1.260 . S
C49 O40 1.240 1_556 S
C49 O41 1.252 1_556 S
O50 In39 2.294 . S
O50 C43 1.240 . S
O51 In39 2.326 . S
O51 C43 1.252 . S
In52 O53 2.294 . S
In52 O54 2.326 . S
In52 O58 2.266 . S
In52 O59 2.326 . S
In52 O60 2.266 . S
In52 O61 2.326 . S
In52 O63 2.294 . S
In52 O64 2.326 . S
O53 In52 2.294 . S
O53 C62 1.240 . S
O54 In52 2.326 . S
O54 C62 1.252 . S
C55 O58 1.252 . S
C55 O59 1.260 . S
C56 O63 1.240 . S
C56 O64 1.252 . S
C57 O60 1.252 . S
C57 O61 1.260 . S
O58 In52 2.266 . S
O58 C55 1.252 . S
O59 In52 2.326 . S
O59 C55 1.260 . S
O60 In52 2.266 . S
O60 C57 1.252 . S
O61 In52 2.326 . S
O61 C57 1.260 . S
C62 O53 1.240 . S
C62 O54 1.252 . S
O63 In52 2.294 . S
O63 C56 1.240 . S
O64 In52 2.326 . S
O64 C56 1.252 . S
In65 O66 2.294 . S
In65 O67 2.326 . S
In65 O71 2.266 . S
In65 O72 2.326 . S
In65 O73 2.266 . S
In65 O74 2.326 . S
In65 O76 2.294 . S
In65 O77 2.326 . S
O66 In65 2.294 . S
O66 C75 1.240 . S
O67 In65 2.326 . S
O67 C75 1.252 . S
C68 O71 1.252 . S
C68 O72 1.260 . S
C69 O76 1.240 . S
C69 O77 1.252 . S
C70 O73 1.252 . S
C70 O74 1.260 . S
O71 In65 2.266 . S
O71 C68 1.252 . S
O72 In65 2.326 . S
O72 C68 1.260 . S
O73 In65 2.266 . S
O73 C70 1.252 . S
O74 In65 2.326 . S
O74 C70 1.260 . S
C75 O66 1.240 . S
C75 O67 1.252 . S
O76 In65 2.294 . S
O76 C69 1.240 . S
O77 In65 2.326 . S
O77 C69 1.252 . S
In78 O79 2.294 . S
In78 O80 2.326 . S
In78 O84 2.266 . S
In78 O85 2.326 . S
In78 O86 2.266 . S
In78 O87 2.326 . S
In78 O89 2.294 . S
In78 O90 2.326 . S
O79 In78 2.294 . S
O79 C88 1.240 . S
O80 In78 2.326 . S
O80 C88 1.252 . S
C81 O84 1.252 . S
C81 O85 1.260 . S
C82 O89 1.240 . S
C82 O90 1.252 . S
C83 O86 1.252 . S
C83 O87 1.260 . S
O84 In78 2.266 . S
O84 C81 1.252 . S
O85 In78 2.326 . S
O85 C81 1.260 . S
O86 In78 2.266 . S
O86 C83 1.252 . S
O87 In78 2.326 . S
O87 C83 1.260 . S
C88 O79 1.240 . S
C88 O80 1.252 . S
O89 In78 2.294 . S
O89 C82 1.240 . S
O90 In78 2.326 . S
O90 C82 1.252 . S
In91 O92 2.294 . S
In91 O93 2.326 . S
In91 O97 2.266 . S
In91 O98 2.326 . S
In91 O99 2.266 . S
In91 O100 2.326 . S
In91 O102 2.294 . S
In91 O103 2.326 . S
O92 In91 2.294 . S
O92 C101 1.240 . S
O93 In91 2.326 . S
O93 C101 1.252 . S
C94 O97 1.252 . S
C94 O98 1.260 . S
C95 O102 1.240 1_554 S
C95 O103 1.252 1_554 S
C96 O99 1.252 . S
C96 O100 1.260 . S
O97 In91 2.266 . S
O97 C94 1.252 . S
O98 In91 2.326 . S
O98 C94 1.260 . S
O99 In91 2.266 . S
O99 C96 1.252 . S
O100 In91 2.326 . S
O100 C96 1.260 . S
C101 O92 1.240 . S
C101 O93 1.252 . S
O102 In91 2.294 . S
O102 C95 1.240 1_556 S
O103 In91 2.326 . S
O103 C95 1.252 1_556 S
In104 O105 2.294 . S
In104 O106 2.326 . S
In104 O110 2.266 . S
In104 O111 2.326 . S
In104 O112 2.266 . S
In104 O113 2.326 . S
In104 O115 2.294 . S
In104 O116 2.326 . S
O105 In104 2.294 . S
O105 C114 1.240 . S
O106 In104 2.326 . S
O106 C114 1.252 . S
C107 O110 1.252 . S
C107 O111 1.260 . S
C108 O115 1.240 . S
C108 O116 1.252 . S
C109 O112 1.252 . S
C109 O113 1.260 . S
O110 In104 2.266 . S
O110 C107 1.252 . S
O111 In104 2.326 . S
O111 C107 1.260 . S
O112 In104 2.266 . S
O112 C109 1.252 . S
O113 In104 2.326 . S
O113 C109 1.260 . S
C114 O105 1.240 . S
C114 O106 1.252 . S
O115 In104 2.294 . S
O115 C108 1.240 . S
O116 In104 2.326 . S
O116 C108 1.252 . S
In117 O118 2.294 . S
In117 O119 2.326 . S
In117 O123 2.266 . S
In117 O124 2.326 . S
In117 O125 2.266 . S
In117 O126 2.326 . S
In117 O128 2.294 . S
In117 O129 2.326 . S
O118 In117 2.294 . S
O118 C127 1.240 . S
O119 In117 2.326 . S
O119 C127 1.252 . S
C120 O123 1.252 . S
C120 O124 1.260 . S
C121 O128 1.240 . S
C121 O129 1.252 . S
C122 O125 1.252 . S
C122 O126 1.260 . S
O123 In117 2.266 . S
O123 C120 1.252 . S
O124 In117 2.326 . S
O124 C120 1.260 . S
O125 In117 2.266 . S
O125 C122 1.252 . S
O126 In117 2.326 . S
O126 C122 1.260 . S
C127 O118 1.240 . S
C127 O119 1.252 . S
O128 In117 2.294 . S
O128 C121 1.240 . S
O129 In117 2.326 . S
O129 C121 1.252 . S
In130 O131 2.294 . S
In130 O132 2.326 . S
In130 O136 2.266 . S
In130 O137 2.326 . S
In130 O138 2.266 . S
In130 O139 2.326 . S
In130 O141 2.294 . S
In130 O142 2.326 . S
O131 In130 2.294 . S
O131 C140 1.240 . S
O132 In130 2.326 . S
O132 C140 1.252 . S
C133 O136 1.252 . S
C133 O137 1.260 . S
C134 O141 1.240 . S
C134 O142 1.252 . S
C135 O138 1.252 . S
C135 O139 1.260 . S
O136 In130 2.266 . S
O136 C133 1.252 . S
O137 In130 2.326 . S
O137 C133 1.260 . S
O138 In130 2.266 . S
O138 C135 1.252 . S
O139 In130 2.326 . S
O139 C135 1.260 . S
C140 O131 1.240 . S
C140 O132 1.252 . S
O141 In130 2.294 . S
O141 C134 1.240 . S
O142 In130 2.326 . S
O142 C134 1.252 . S
In143 O144 2.294 . S
In143 O145 2.326 . S
In143 O149 2.266 . S
In143 O150 2.326 . S
In143 O151 2.266 . S
In143 O152 2.326 . S
In143 O154 2.294 . S
In143 O155 2.326 . S
O144 In143 2.294 . S
O144 C153 1.240 1_556 S
O145 In143 2.326 . S
O145 C153 1.252 1_556 S
C146 O149 1.252 . S
C146 O150 1.260 . S
C147 O154 1.240 . S
C147 O155 1.252 . S
C148 O151 1.252 . S
C148 O152 1.260 . S
O149 In143 2.266 . S
O149 C146 1.252 . S
O150 In143 2.326 . S
O150 C146 1.260 . S
O151 In143 2.266 . S
O151 C148 1.252 . S
O152 In143 2.326 . S
O152 C148 1.260 . S
C153 O144 1.240 1_554 S
C153 O145 1.252 1_554 S
O154 In143 2.294 . S
O154 C147 1.240 . S
O155 In143 2.326 . S
O155 C147 1.252 . S
In156 O157 2.294 . S
In156 O158 2.326 . S
In156 O162 2.266 . S
In156 O163 2.326 . S
In156 O164 2.266 . S
In156 O165 2.326 . S
In156 O167 2.294 . S
In156 O168 2.326 . S
O157 In156 2.294 . S
O157 C166 1.240 . S
O158 In156 2.326 . S
O158 C166 1.252 . S
C159 O162 1.252 . S
C159 O163 1.260 . S
C160 O167 1.240 . S
C160 O168 1.252 . S
C161 O164 1.252 . S
C161 O165 1.260 . S
O162 In156 2.266 . S
O162 C159 1.252 . S
O163 In156 2.326 . S
O163 C159 1.260 . S
O164 In156 2.266 . S
O164 C161 1.252 . S
O165 In156 2.326 . S
O165 C161 1.260 . S
C166 O157 1.240 . S
C166 O158 1.252 . S
O167 In156 2.294 . S
O167 C160 1.240 . S
O168 In156 2.326 . S
O168 C160 1.252 . S
In169 O170 2.294 . S
In169 O171 2.326 . S
In169 O175 2.266 . S
In169 O176 2.326 . S
In169 O177 2.266 . S
In169 O178 2.326 . S
In169 O180 2.294 . S
In169 O181 2.326 . S
O170 In169 2.294 . S
O170 C179 1.240 . S
O171 In169 2.326 . S
O171 C179 1.252 . S
C172 O175 1.252 . S
C172 O176 1.260 . S
C173 O180 1.240 . S
C173 O181 1.252 . S
C174 O177 1.252 . S
C174 O178 1.260 . S
O175 In169 2.266 . S
O175 C172 1.252 . S
O176 In169 2.326 . S
O176 C172 1.260 . S
O177 In169 2.266 . S
O177 C174 1.252 . S
O178 In169 2.326 . S
O178 C174 1.260 . S
C179 O170 1.240 . S
C179 O171 1.252 . S
O180 In169 2.294 . S
O180 C173 1.240 . S
O181 In169 2.326 . S
O181 C173 1.252 . S
In182 O183 2.294 . S
In182 O184 2.326 . S
In182 O188 2.266 . S
In182 O189 2.326 . S
In182 O190 2.266 . S
In182 O191 2.326 . S
In182 O193 2.294 . S
In182 O194 2.326 . S
O183 In182 2.294 . S
O183 C192 1.240 . S
O184 In182 2.326 . S
O184 C192 1.252 . S
C185 O188 1.252 . S
C185 O189 1.260 . S
C186 O193 1.240 . S
C186 O194 1.252 . S
C187 O190 1.252 . S
C187 O191 1.260 . S
O188 In182 2.266 . S
O188 C185 1.252 . S
O189 In182 2.326 . S
O189 C185 1.260 . S
O190 In182 2.266 . S
O190 C187 1.252 . S
O191 In182 2.326 . S
O191 C187 1.260 . S
C192 O183 1.240 . S
C192 O184 1.252 . S
O193 In182 2.294 . S
O193 C186 1.240 . S
O194 In182 2.326 . S
O194 C186 1.252 . S
In195 O196 2.294 . S
In195 O197 2.326 . S
In195 O201 2.266 . S
In195 O202 2.326 . S
In195 O203 2.266 . S
In195 O204 2.326 . S
In195 O206 2.294 . S
In195 O207 2.326 . S
O196 In195 2.294 . S
O196 C205 1.240 . S
O197 In195 2.326 . S
O197 C205 1.252 . S
C198 O201 1.252 . S
C198 O202 1.260 . S
C199 O206 1.240 1_556 S
C199 O207 1.252 1_556 S
C200 O203 1.252 . S
C200 O204 1.260 . S
O201 In195 2.266 . S
O201 C198 1.252 . S
O202 In195 2.326 . S
O202 C198 1.260 . S
O203 In195 2.266 . S
O203 C200 1.252 . S
O204 In195 2.326 . S
O204 C200 1.260 . S
C205 O196 1.240 . S
C205 O197 1.252 . S
O206 In195 2.294 . S
O206 C199 1.240 1_554 S
O207 In195 2.326 . S
O207 C199 1.252 1_554 S
In208 O209 2.294 . S
In208 O210 2.326 . S
In208 O214 2.266 . S
In208 O215 2.326 . S
In208 O216 2.266 . S
In208 O217 2.326 . S
In208 O219 2.294 . S
In208 O220 2.326 . S
O209 In208 2.294 . S
O209 C218 1.240 . S
O210 In208 2.326 . S
O210 C218 1.252 . S
C211 O214 1.252 . S
C211 O215 1.260 . S
C212 O219 1.240 . S
C212 O220 1.252 . S
C213 O216 1.252 . S
C213 O217 1.260 . S
O214 In208 2.266 . S
O214 C211 1.252 . S
O215 In208 2.326 . S
O215 C211 1.260 . S
O216 In208 2.266 . S
O216 C213 1.252 . S
O217 In208 2.326 . S
O217 C213 1.260 . S
C218 O209 1.240 . S
C218 O210 1.252 . S
O219 In208 2.294 . S
O219 C212 1.240 . S
O220 In208 2.326 . S
O220 C212 1.252 . S
In221 O222 2.294 . S
In221 O223 2.326 . S
In221 O227 2.266 . S
In221 O228 2.326 . S
In221 O229 2.266 . S
In221 O230 2.326 . S
In221 O232 2.294 . S
In221 O233 2.326 . S
O222 In221 2.294 . S
O222 C231 1.240 . S
O223 In221 2.326 . S
O223 C231 1.252 . S
C224 O227 1.252 . S
C224 O228 1.260 . S
C225 O232 1.240 1_556 S
C225 O233 1.252 1_556 S
C226 O229 1.252 . S
C226 O230 1.260 . S
O227 In221 2.266 . S
O227 C224 1.252 . S
O228 In221 2.326 . S
O228 C224 1.260 . S
O229 In221 2.266 . S
O229 C226 1.252 . S
O230 In221 2.326 . S
O230 C226 1.260 . S
C231 O222 1.240 . S
C231 O223 1.252 . S
O232 In221 2.294 . S
O232 C225 1.240 1_554 S
O233 In221 2.326 . S
O233 C225 1.252 1_554 S
In234 O235 2.294 . S
In234 O236 2.326 . S
In234 O240 2.266 . S
In234 O241 2.326 . S
In234 O242 2.266 . S
In234 O243 2.326 . S
In234 O245 2.294 . S
In234 O246 2.326 . S
O235 In234 2.294 . S
O235 C244 1.240 . S
O236 In234 2.326 . S
O236 C244 1.252 . S
C237 O240 1.252 . S
C237 O241 1.260 . S
C238 O245 1.240 . S
C238 O246 1.252 . S
C239 O242 1.252 . S
C239 O243 1.260 . S
O240 In234 2.266 . S
O240 C237 1.252 . S
O241 In234 2.326 . S
O241 C237 1.260 . S
O242 In234 2.266 . S
O242 C239 1.252 . S
O243 In234 2.326 . S
O243 C239 1.260 . S
C244 O235 1.240 . S
C244 O236 1.252 . S
O245 In234 2.294 . S
O245 C238 1.240 . S
O246 In234 2.326 . S
O246 C238 1.252 . S
In247 O248 2.294 . S
In247 O249 2.326 . S
In247 O253 2.266 . S
In247 O254 2.326 . S
In247 O255 2.266 . S
In247 O256 2.326 . S
In247 O258 2.294 . S
In247 O259 2.326 . S
O248 In247 2.294 . S
O248 C257 1.240 . S
O249 In247 2.326 . S
O249 C257 1.252 . S
C250 O253 1.252 . S
C250 O254 1.260 . S
C251 O258 1.240 . S
C251 O259 1.252 . S
C252 O255 1.252 . S
C252 O256 1.260 . S
O253 In247 2.266 . S
O253 C250 1.252 . S
O254 In247 2.326 . S
O254 C250 1.260 . S
O255 In247 2.266 . S
O255 C252 1.252 . S
O256 In247 2.326 . S
O256 C252 1.260 . S
C257 O248 1.240 . S
C257 O249 1.252 . S
O258 In247 2.294 . S
O258 C251 1.240 . S
O259 In247 2.326 . S
O259 C251 1.252 . S
In260 O261 2.294 . S
In260 O262 2.326 . S
In260 O266 2.266 . S
In260 O267 2.326 . S
In260 O268 2.266 . S
In260 O269 2.326 . S
In260 O271 2.294 . S
In260 O272 2.326 . S
O261 In260 2.294 . S
O261 C270 1.240 . S
O262 In260 2.326 . S
O262 C270 1.252 . S
C263 O266 1.252 . S
C263 O267 1.260 . S
C264 O271 1.240 . S
C264 O272 1.252 . S
C265 O268 1.252 . S
C265 O269 1.260 . S
O266 In260 2.266 . S
O266 C263 1.252 . S
O267 In260 2.326 . S
O267 C263 1.260 . S
O268 In260 2.266 . S
O268 C265 1.252 . S
O269 In260 2.326 . S
O269 C265 1.260 . S
C270 O261 1.240 . S
C270 O262 1.252 . S
O271 In260 2.294 . S
O271 C264 1.240 . S
O272 In260 2.326 . S
O272 C264 1.252 . S
In273 O274 2.294 . S
In273 O275 2.326 . S
In273 O279 2.266 . S
In273 O280 2.326 . S
In273 O281 2.266 . S
In273 O282 2.326 . S
In273 O284 2.294 . S
In273 O285 2.326 . S
O274 In273 2.294 . S
O274 C283 1.240 1_556 S
O275 In273 2.326 . S
O275 C283 1.252 1_556 S
C276 O279 1.252 . S
C276 O280 1.260 . S
C277 O284 1.240 . S
C277 O285 1.252 . S
C278 O281 1.252 . S
C278 O282 1.260 . S
O279 In273 2.266 . S
O279 C276 1.252 . S
O280 In273 2.326 . S
O280 C276 1.260 . S
O281 In273 2.266 . S
O281 C278 1.252 . S
O282 In273 2.326 . S
O282 C278 1.260 . S
C283 O274 1.240 1_554 S
C283 O275 1.252 1_554 S
O284 In273 2.294 . S
O284 C277 1.240 . S
O285 In273 2.326 . S
O285 C277 1.252 . S
In286 O287 2.294 . S
In286 O288 2.326 . S
In286 O292 2.266 . S
In286 O293 2.326 . S
In286 O294 2.266 . S
In286 O295 2.326 . S
In286 O297 2.294 . S
In286 O298 2.326 . S
O287 In286 2.294 . S
O287 C296 1.240 . S
O288 In286 2.326 . S
O288 C296 1.252 . S
C289 O292 1.252 . S
C289 O293 1.260 . S
C290 O297 1.240 . S
C290 O298 1.252 . S
C291 O294 1.252 . S
C291 O295 1.260 . S
O292 In286 2.266 . S
O292 C289 1.252 . S
O293 In286 2.326 . S
O293 C289 1.260 . S
O294 In286 2.266 . S
O294 C291 1.252 . S
O295 In286 2.326 . S
O295 C291 1.260 . S
C296 O287 1.240 . S
C296 O288 1.252 . S
O297 In286 2.294 . S
O297 C290 1.240 . S
O298 In286 2.326 . S
O298 C290 1.252 . S
In299 O300 2.294 . S
In299 O301 2.326 . S
In299 O305 2.266 . S
In299 O306 2.326 . S
In299 O307 2.266 . S
In299 O308 2.326 . S
In299 O310 2.294 . S
In299 O311 2.326 . S
O300 In299 2.294 . S
O300 C309 1.240 . S
O301 In299 2.326 . S
O301 C309 1.252 . S
C302 O305 1.252 . S
C302 O306 1.260 . S
C303 O310 1.240 . S
C303 O311 1.252 . S
C304 O307 1.252 . S
C304 O308 1.260 . S
O305 In299 2.266 . S
O305 C302 1.252 . S
O306 In299 2.326 . S
O306 C302 1.260 . S
O307 In299 2.266 . S
O307 C304 1.252 . S
O308 In299 2.326 . S
O308 C304 1.260 . S
C309 O300 1.240 . S
C309 O301 1.252 . S
O310 In299 2.294 . S
O310 C303 1.240 . S
O311 In299 2.326 . S
O311 C303 1.252 . S
In312 O313 2.294 . S
In312 O314 2.326 . S
In312 O318 2.266 . S
In312 O319 2.326 . S
In312 O320 2.266 . S
In312 O321 2.326 . S
In312 O323 2.294 . S
In312 O324 2.326 . S
O313 In312 2.294 . S
O313 C322 1.240 . S
O314 In312 2.326 . S
O314 C322 1.252 . S
C315 O318 1.252 . S
C315 O319 1.260 . S
C316 O323 1.240 . S
C316 O324 1.252 . S
C317 O320 1.252 . S
C317 O321 1.260 . S
O318 In312 2.266 . S
O318 C315 1.252 . S
O319 In312 2.326 . S
O319 C315 1.260 . S
O320 In312 2.266 . S
O320 C317 1.252 . S
O321 In312 2.326 . S
O321 C317 1.260 . S
C322 O313 1.240 . S
C322 O314 1.252 . S
O323 In312 2.294 . S
O323 C316 1.240 . S
O324 In312 2.326 . S
O324 C316 1.252 . S
In325 O326 2.294 . S
In325 O327 2.326 . S
In325 O331 2.266 . S
In325 O332 2.326 . S
In325 O333 2.266 . S
In325 O334 2.326 . S
In325 O336 2.294 . S
In325 O337 2.326 . S
O326 In325 2.294 . S
O326 C335 1.240 . S
O327 In325 2.326 . S
O327 C335 1.252 . S
C328 O331 1.252 . S
C328 O332 1.260 . S
C329 O336 1.240 1_554 S
C329 O337 1.252 1_554 S
C330 O333 1.252 . S
C330 O334 1.260 . S
O331 In325 2.266 . S
O331 C328 1.252 . S
O332 In325 2.326 . S
O332 C328 1.260 . S
O333 In325 2.266 . S
O333 C330 1.252 . S
O334 In325 2.326 . S
O334 C330 1.260 . S
C335 O326 1.240 . S
C335 O327 1.252 . S
O336 In325 2.294 . S
O336 C329 1.240 1_556 S
O337 In325 2.326 . S
O337 C329 1.252 1_556 S
In338 O339 2.294 . S
In338 O340 2.326 . S
In338 O344 2.266 . S
In338 O345 2.326 . S
In338 O346 2.266 . S
In338 O347 2.326 . S
In338 O349 2.294 . S
In338 O350 2.326 . S
O339 In338 2.294 . S
O339 C348 1.240 . S
O340 In338 2.326 . S
O340 C348 1.252 . S
C341 O344 1.252 . S
C341 O345 1.260 . S
C342 O349 1.240 . S
C342 O350 1.252 . S
C343 O346 1.252 . S
C343 O347 1.260 . S
O344 In338 2.266 . S
O344 C341 1.252 . S
O345 In338 2.326 . S
O345 C341 1.260 . S
O346 In338 2.266 . S
O346 C343 1.252 . S
O347 In338 2.326 . S
O347 C343 1.260 . S
C348 O339 1.240 . S
C348 O340 1.252 . S
O349 In338 2.294 . S
O349 C342 1.240 . S
O350 In338 2.326 . S
O350 C342 1.252 . S
In351 O352 2.294 . S
In351 O353 2.326 . S
In351 O357 2.266 . S
In351 O358 2.326 . S
In351 O359 2.266 . S
In351 O360 2.326 . S
In351 O362 2.294 . S
In351 O363 2.326 . S
O352 In351 2.294 . S
O352 C361 1.240 . S
O353 In351 2.326 . S
O353 C361 1.252 . S
C354 O357 1.252 . S
C354 O358 1.260 . S
C355 O362 1.240 . S
C355 O363 1.252 . S
C356 O359 1.252 . S
C356 O360 1.260 . S
O357 In351 2.266 . S
O357 C354 1.252 . S
O358 In351 2.326 . S
O358 C354 1.260 . S
O359 In351 2.266 . S
O359 C356 1.252 . S
O360 In351 2.326 . S
O360 C356 1.260 . S
C361 O352 1.240 . S
C361 O353 1.252 . S
O362 In351 2.294 . S
O362 C355 1.240 . S
O363 In351 2.326 . S
O363 C355 1.252 . S
In364 O365 2.294 . S
In364 O366 2.326 . S
In364 O370 2.266 . S
In364 O371 2.326 . S
In364 O372 2.266 . S
In364 O373 2.326 . S
In364 O375 2.294 . S
In364 O376 2.326 . S
O365 In364 2.294 . S
O365 C374 1.240 . S
O366 In364 2.326 . S
O366 C374 1.252 . S
C367 O370 1.252 . S
C367 O371 1.260 . S
C368 O375 1.240 . S
C368 O376 1.252 . S
C369 O372 1.252 . S
C369 O373 1.260 . S
O370 In364 2.266 . S
O370 C367 1.252 . S
O371 In364 2.326 . S
O371 C367 1.260 . S
O372 In364 2.266 . S
O372 C369 1.252 . S
O373 In364 2.326 . S
O373 C369 1.260 . S
C374 O365 1.240 . S
C374 O366 1.252 . S
O375 In364 2.294 . S
O375 C368 1.240 . S
O376 In364 2.326 . S
O376 C368 1.252 . S
In377 O378 2.294 . S
In377 O379 2.326 . S
In377 O383 2.266 . S
In377 O384 2.326 . S
In377 O385 2.266 . S
In377 O386 2.326 . S
In377 O388 2.294 . S
In377 O389 2.326 . S
O378 In377 2.294 . S
O378 C387 1.240 . S
O379 In377 2.326 . S
O379 C387 1.252 . S
C380 O383 1.252 . S
C380 O384 1.260 . S
C381 O388 1.240 1_556 S
C381 O389 1.252 1_556 S
C382 O385 1.252 . S
C382 O386 1.260 . S
O383 In377 2.266 . S
O383 C380 1.252 . S
O384 In377 2.326 . S
O384 C380 1.260 . S
O385 In377 2.266 . S
O385 C382 1.252 . S
O386 In377 2.326 . S
O386 C382 1.260 . S
C387 O378 1.240 . S
C387 O379 1.252 . S
O388 In377 2.294 . S
O388 C381 1.240 1_554 S
O389 In377 2.326 . S
O389 C381 1.252 1_554 S
In390 O391 2.294 . S
In390 O392 2.326 . S
In390 O396 2.266 . S
In390 O397 2.326 . S
In390 O398 2.266 . S
In390 O399 2.326 . S
In390 O401 2.294 . S
In390 O402 2.326 . S
O391 In390 2.294 . S
O391 C400 1.240 . S
O392 In390 2.326 . S
O392 C400 1.252 . S
C393 O396 1.252 . S
C393 O397 1.260 . S
C394 O401 1.240 . S
C394 O402 1.252 . S
C395 O398 1.252 . S
C395 O399 1.260 . S
O396 In390 2.266 . S
O396 C393 1.252 . S
O397 In390 2.326 . S
O397 C393 1.260 . S
O398 In390 2.266 . S
O398 C395 1.252 . S
O399 In390 2.326 . S
O399 C395 1.260 . S
C400 O391 1.240 . S
C400 O392 1.252 . S
O401 In390 2.294 . S
O401 C394 1.240 . S
O402 In390 2.326 . S
O402 C394 1.252 . S
In403 O404 2.294 . S
In403 O405 2.326 . S
In403 O409 2.266 . S
In403 O410 2.326 . S
In403 O411 2.266 . S
In403 O412 2.326 . S
In403 O414 2.294 . S
In403 O415 2.326 . S
O404 In403 2.294 . S
O404 C413 1.240 . S
O405 In403 2.326 . S
O405 C413 1.252 . S
C406 O409 1.252 . S
C406 O410 1.260 . S
C407 O414 1.240 . S
C407 O415 1.252 . S
C408 O411 1.252 . S
C408 O412 1.260 . S
O409 In403 2.266 . S
O409 C406 1.252 . S
O410 In403 2.326 . S
O410 C406 1.260 . S
O411 In403 2.266 . S
O411 C408 1.252 . S
O412 In403 2.326 . S
O412 C408 1.260 . S
C413 O404 1.240 . S
C413 O405 1.252 . S
O414 In403 2.294 . S
O414 C407 1.240 . S
O415 In403 2.326 . S
O415 C407 1.252 . S
C416 C417 1.387 . S
C416 H420 0.950 . S
C416 C425 1.390 . S
C417 C416 1.387 . S
C417 C419 1.387 . S
H418 C425 0.950 . S
C419 C417 1.387 . S
C419 C421 1.390 . S
C419 H423 0.950 . S
H420 C416 0.950 . S
C421 C419 1.390 . S
C421 C422 1.387 . S
C421 H424 0.950 . S
C422 C421 1.387 . S
C422 C425 1.387 . S
H423 C419 0.950 . S
H424 C421 0.950 . S
C425 C416 1.390 . S
C425 H418 0.950 . S
C425 C422 1.387 . S
C426 C427 1.387 . S
C426 H430 0.950 . S
C426 C435 1.390 1_565 S
C427 C426 1.387 . S
C427 C429 1.387 . S
H428 C435 0.950 . S
C429 C427 1.387 . S
C429 C431 1.390 1_565 S
C429 H433 0.950 . S
H430 C426 0.950 . S
C431 C429 1.390 1_545 S
C431 C432 1.387 . S
C431 H434 0.950 . S
C432 C431 1.387 . S
C432 C435 1.387 . S
H433 C429 0.950 . S
H434 C431 0.950 . S
C435 C426 1.390 1_545 S
C435 H428 0.950 . S
C435 C432 1.387 . S
C436 C437 1.387 . S
C436 H440 0.950 . S
C436 C445 1.390 1_554 S
C437 C436 1.387 . S
C437 C439 1.387 . S
H438 C445 0.950 . S
C439 C437 1.387 . S
C439 C441 1.390 1_554 S
C439 H443 0.950 . S
H440 C436 0.950 . S
C441 C439 1.390 1_556 S
C441 C442 1.387 . S
C441 H444 0.950 . S
C442 C441 1.387 . S
C442 C445 1.387 . S
H443 C439 0.950 . S
H444 C441 0.950 . S
C445 C436 1.390 1_556 S
C445 H438 0.950 . S
C445 C442 1.387 . S
C446 C447 1.387 . S
C446 H450 0.950 . S
C446 C455 1.390 1_545 S
C447 C446 1.387 . S
C447 C449 1.387 . S
H448 C455 0.950 . S
C449 C447 1.387 . S
C449 C451 1.390 1_545 S
C449 H453 0.950 . S
H450 C446 0.950 . S
C451 C449 1.390 1_565 S
C451 C452 1.387 . S
C451 H454 0.950 . S
C452 C451 1.387 . S
C452 C455 1.387 . S
H453 C449 0.950 . S
H454 C451 0.950 . S
C455 C446 1.390 1_565 S
C455 H448 0.950 . S
C455 C452 1.387 . S
C456 C457 1.387 . S
C456 H460 0.950 . S
C456 C465 1.390 . S
C457 C456 1.387 . S
C457 C459 1.387 . S
H458 C465 0.950 . S
C459 C457 1.387 . S
C459 C461 1.390 . S
C459 H463 0.950 . S
H460 C456 0.950 . S
C461 C459 1.390 . S
C461 C462 1.387 . S
C461 H464 0.950 . S
C462 C461 1.387 . S
C462 C465 1.387 . S
H463 C459 0.950 . S
H464 C461 0.950 . S
C465 C456 1.390 . S
C465 H458 0.950 . S
C465 C462 1.387 . S
C466 C467 1.387 . S
C466 H470 0.950 . S
C466 C475 1.390 1_545 S
C467 C466 1.387 . S
C467 C469 1.387 . S
H468 C475 0.950 . S
C469 C467 1.387 . S
C469 C471 1.390 1_545 S
C469 H473 0.950 . S
H470 C466 0.950 . S
C471 C469 1.390 1_565 S
C471 C472 1.387 . S
C471 H474 0.950 . S
C472 C471 1.387 . S
C472 C475 1.387 . S
H473 C469 0.950 . S
H474 C471 0.950 . S
C475 C466 1.390 1_565 S
C475 H468 0.950 . S
C475 C472 1.387 . S
C476 C477 1.387 . S
C476 H480 0.950 . S
C476 C485 1.390 1_556 S
C477 C476 1.387 . S
C477 C479 1.387 . S
H478 C485 0.950 . S
C479 C477 1.387 . S
C479 C481 1.390 1_556 S
C479 H483 0.950 . S
H480 C476 0.950 . S
C481 C479 1.390 1_554 S
C481 C482 1.387 . S
C481 H484 0.950 . S
C482 C481 1.387 . S
C482 C485 1.387 . S
H483 C479 0.950 . S
H484 C481 0.950 . S
C485 C476 1.390 1_554 S
C485 H478 0.950 . S
C485 C482 1.387 . S
C486 C487 1.387 . S
C486 H490 0.950 . S
C486 C495 1.390 1_565 S
C487 C486 1.387 . S
C487 C489 1.387 . S
H488 C495 0.950 . S
C489 C487 1.387 . S
C489 C491 1.390 1_565 S
C489 H493 0.950 . S
H490 C486 0.950 . S
C491 C489 1.390 1_545 S
C491 C492 1.387 . S
C491 H494 0.950 . S
C492 C491 1.387 . S
C492 C495 1.387 . S
H493 C489 0.950 . S
H494 C491 0.950 . S
C495 C486 1.390 1_545 S
C495 H488 0.950 . S
C495 C492 1.387 . S
C496 C497 1.387 . S
C496 H500 0.950 . S
C496 C505 1.390 1_556 S
C497 C496 1.387 . S
C497 C499 1.387 . S
H498 C505 0.950 . S
C499 C497 1.387 . S
C499 C501 1.390 1_556 S
C499 H503 0.950 . S
H500 C496 0.950 . S
C501 C499 1.390 1_554 S
C501 C502 1.387 . S
C501 H504 0.950 . S
C502 C501 1.387 . S
C502 C505 1.387 . S
H503 C499 0.950 . S
H504 C501 0.950 . S
C505 C496 1.390 1_554 S
C505 H498 0.950 . S
C505 C502 1.387 . S
C506 C507 1.387 . S
C506 H510 0.950 . S
C506 C515 1.390 . S
C507 C506 1.387 . S
C507 C509 1.387 . S
H508 C515 0.950 . S
C509 C507 1.387 . S
C509 C511 1.390 . S
C509 H513 0.950 . S
H510 C506 0.950 . S
C511 C509 1.390 . S
C511 C512 1.387 . S
C511 H514 0.950 . S
C512 C511 1.387 . S
C512 C515 1.387 . S
H513 C509 0.950 . S
H514 C511 0.950 . S
C515 C506 1.390 . S
C515 H508 0.950 . S
C515 C512 1.387 . S
C516 C517 1.387 . S
C516 H520 0.950 . S
C516 C525 1.390 . S
C517 C516 1.387 . S
C517 C519 1.387 . S
H518 C525 0.950 . S
C519 C517 1.387 . S
C519 C521 1.390 . S
C519 H523 0.950 . S
H520 C516 0.950 . S
C521 C519 1.390 . S
C521 C522 1.387 . S
C521 H524 0.950 . S
C522 C521 1.387 . S
C522 C525 1.387 . S
H523 C519 0.950 . S
H524 C521 0.950 . S
C525 C516 1.390 . S
C525 H518 0.950 . S
C525 C522 1.387 . S
C526 C527 1.387 . S
C526 H530 0.950 . S
C526 C535 1.390 . S
C527 C526 1.387 . S
C527 C529 1.387 . S
H528 C535 0.950 . S
C529 C527 1.387 . S
C529 C531 1.390 . S
C529 H533 0.950 . S
H530 C526 0.950 . S
C531 C529 1.390 . S
C531 C532 1.387 . S
C531 H534 0.950 . S
C532 C531 1.387 . S
C532 C535 1.387 . S
H533 C529 0.950 . S
H534 C531 0.950 . S
C535 C526 1.390 . S
C535 H528 0.950 . S
C535 C532 1.387 . S
C536 C537 1.387 . S
C536 H540 0.950 . S
C536 C545 1.390 1_556 S
C537 C536 1.387 . S
C537 C539 1.387 . S
H538 C545 0.950 . S
C539 C537 1.387 . S
C539 C541 1.390 1_556 S
C539 H543 0.950 . S
H540 C536 0.950 . S
C541 C539 1.390 1_554 S
C541 C542 1.387 . S
C541 H544 0.950 . S
C542 C541 1.387 . S
C542 C545 1.387 . S
H543 C539 0.950 . S
H544 C541 0.950 . S
C545 C536 1.390 1_554 S
C545 H538 0.950 . S
C545 C542 1.387 . S
C546 C547 1.387 . S
C546 H550 0.950 . S
C546 C555 1.390 . S
C547 C546 1.387 . S
C547 C549 1.387 . S
H548 C555 0.950 . S
C549 C547 1.387 . S
C549 C551 1.390 . S
C549 H553 0.950 . S
H550 C546 0.950 . S
C551 C549 1.390 . S
C551 C552 1.387 . S
C551 H554 0.950 . S
C552 C551 1.387 . S
C552 C555 1.387 . S
H553 C549 0.950 . S
H554 C551 0.950 . S
C555 C546 1.390 . S
C555 H548 0.950 . S
C555 C552 1.387 . S
C556 C557 1.387 . S
C556 H560 0.950 . S
C556 C565 1.390 . S
C557 C556 1.387 . S
C557 C559 1.387 . S
H558 C565 0.950 . S
C559 C557 1.387 . S
C559 C561 1.390 . S
C559 H563 0.950 . S
H560 C556 0.950 . S
C561 C559 1.390 . S
C561 C562 1.387 . S
C561 H564 0.950 . S
C562 C561 1.387 . S
C562 C565 1.387 . S
H563 C559 0.950 . S
H564 C561 0.950 . S
C565 C556 1.390 . S
C565 H558 0.950 . S
C565 C562 1.387 . S
C566 C567 1.387 . S
C566 H570 0.950 . S
C566 C575 1.390 . S
C567 C566 1.387 . S
C567 C569 1.387 . S
H568 C575 0.950 . S
C569 C567 1.387 . S
C569 C571 1.390 . S
C569 H573 0.950 . S
H570 C566 0.950 . S
C571 C569 1.390 . S
C571 C572 1.387 . S
C571 H574 0.950 . S
C572 C571 1.387 . S
C572 C575 1.387 . S
H573 C569 0.950 . S
H574 C571 0.950 . S
C575 C566 1.390 . S
C575 H568 0.950 . S
C575 C572 1.387 . S
C576 C577 1.387 1_554 S
C576 H580 0.950 . S
C576 C585 1.390 . S
C577 C576 1.387 1_556 S
C577 C579 1.387 . S
H578 C585 0.950 . S
C579 C577 1.387 . S
C579 C581 1.390 1_556 S
C579 H583 0.950 . S
H580 C576 0.950 . S
C581 C579 1.390 1_554 S
C581 C582 1.387 . S
C581 H584 0.950 . S
C582 C581 1.387 . S
C582 C585 1.387 . S
H583 C579 0.950 . S
H584 C581 0.950 . S
C585 C576 1.390 . S
C585 H578 0.950 . S
C585 C582 1.387 . S
C586 C587 1.387 . S
C586 H590 0.950 . S
C586 C595 1.390 . S
C587 C586 1.387 . S
C587 C589 1.387 . S
H588 C595 0.950 . S
C589 C587 1.387 . S
C589 C591 1.390 . S
C589 H593 0.950 . S
H590 C586 0.950 . S
C591 C589 1.390 . S
C591 C592 1.387 . S
C591 H594 0.950 . S
C592 C591 1.387 . S
C592 C595 1.387 . S
H593 C589 0.950 . S
H594 C591 0.950 . S
C595 C586 1.390 . S
C595 H588 0.950 . S
C595 C592 1.387 . S
C596 C597 1.387 . S
C596 H600 0.950 . S
C596 C605 1.390 . S
C597 C596 1.387 . S
C597 C599 1.387 . S
H598 C605 0.950 . S
C599 C597 1.387 . S
C599 C601 1.390 . S
C599 H603 0.950 . S
H600 C596 0.950 . S
C601 C599 1.390 . S
C601 C602 1.387 . S
C601 H604 0.950 . S
C602 C601 1.387 . S
C602 C605 1.387 . S
H603 C599 0.950 . S
H604 C601 0.950 . S
C605 C596 1.390 . S
C605 H598 0.950 . S
C605 C602 1.387 . S
C606 C607 1.387 . S
C606 H610 0.950 . S
C606 C615 1.390 . S
C607 C606 1.387 . S
C607 C609 1.387 . S
H608 C615 0.950 . S
C609 C607 1.387 . S
C609 C611 1.390 1_556 S
C609 H613 0.950 . S
H610 C606 0.950 . S
C611 C609 1.390 1_554 S
C611 C612 1.387 . S
C611 H614 0.950 . S
C612 C611 1.387 . S
C612 C615 1.387 1_554 S
H613 C609 0.950 . S
H614 C611 0.950 . S
C615 C606 1.390 . S
C615 H608 0.950 . S
C615 C612 1.387 1_556 S
C616 C617 1.387 . S
C616 H620 0.950 . S
C616 C625 1.390 1_554 S
C617 C616 1.387 . S
C617 C619 1.387 1_554 S
H618 C625 0.950 . S
C619 C617 1.387 1_556 S
C619 C621 1.390 . S
C619 H623 0.950 . S
H620 C616 0.950 . S
C621 C619 1.390 . S
C621 C622 1.387 . S
C621 H624 0.950 . S
C622 C621 1.387 . S
C622 C625 1.387 . S
H623 C619 0.950 . S
H624 C621 0.950 . S
C625 C616 1.390 1_556 S
C625 H618 0.950 . S
C625 C622 1.387 . S
C626 C627 1.387 . S
C626 H630 0.950 . S
C626 C635 1.390 . S
C627 C626 1.387 . S
C627 C629 1.387 . S
H628 C635 0.950 . S
C629 C627 1.387 . S
C629 C631 1.390 . S
C629 H633 0.950 . S
H630 C626 0.950 . S
C631 C629 1.390 . S
C631 C632 1.387 . S
C631 H634 0.950 . S
C632 C631 1.387 . S
C632 C635 1.387 . S
H633 C629 0.950 . S
H634 C631 0.950 . S
C635 C626 1.390 . S
C635 H628 0.950 . S
C635 C632 1.387 . S
C636 C637 1.387 . S
C636 H640 0.950 . S
C636 C645 1.390 . S
C637 C636 1.387 . S
C637 C639 1.387 . S
H638 C645 0.950 . S
C639 C637 1.387 . S
C639 C641 1.390 . S
C639 H643 0.950 . S
H640 C636 0.950 . S
C641 C639 1.390 . S
C641 C642 1.387 . S
C641 H644 0.950 . S
C642 C641 1.387 . S
C642 C645 1.387 . S
H643 C639 0.950 . S
H644 C641 0.950 . S
C645 C636 1.390 . S
C645 H638 0.950 . S
C645 C642 1.387 . S
C646 C647 1.387 1_554 S
C646 H650 0.950 1_554 S
C646 C655 1.390 . S
C647 C646 1.387 1_556 S
C647 C649 1.387 1_556 S
H648 C655 0.950 . S
C649 C647 1.387 1_554 S
C649 C651 1.390 . S
C649 H653 0.950 . S
H650 C646 0.950 1_556 S
C651 C649 1.390 . S
C651 C652 1.387 . S
C651 H654 0.950 . S
C652 C651 1.387 . S
C652 C655 1.387 . S
H653 C649 0.950 . S
H654 C651 0.950 . S
C655 C646 1.390 . S
C655 H648 0.950 . S
C655 C652 1.387 . S
C656 C657 1.387 . S
C656 H660 0.950 . S
C656 C665 1.390 . S
C657 C656 1.387 . S
C657 C659 1.387 . S
H658 C665 0.950 . S
C659 C657 1.387 . S
C659 C661 1.390 . S
C659 H663 0.950 . S
H660 C656 0.950 . S
C661 C659 1.390 . S
C661 C662 1.387 . S
C661 H664 0.950 . S
C662 C661 1.387 . S
C662 C665 1.387 . S
H663 C659 0.950 . S
H664 C661 0.950 . S
C665 C656 1.390 . S
C665 H658 0.950 . S
C665 C662 1.387 . S
C666 C667 1.387 . S
C666 H670 0.950 . S
C666 C675 1.390 1_554 S
C667 C666 1.387 . S
C667 C669 1.387 1_554 S
H668 C675 0.950 . S
C669 C667 1.387 1_556 S
C669 C671 1.390 . S
C669 H673 0.950 . S
H670 C666 0.950 . S
C671 C669 1.390 . S
C671 C672 1.387 . S
C671 H674 0.950 . S
C672 C671 1.387 . S
C672 C675 1.387 . S
H673 C669 0.950 . S
H674 C671 0.950 . S
C675 C666 1.390 1_556 S
C675 H668 0.950 . S
C675 C672 1.387 . S
C676 C677 1.387 . S
C676 H680 0.950 . S
C676 C685 1.390 1_554 S
C677 C676 1.387 . S
C677 C679 1.387 . S
H678 C685 0.950 . S
C679 C677 1.387 . S
C679 C681 1.390 . S
C679 H683 0.950 . S
H680 C676 0.950 . S
C681 C679 1.390 . S
C681 C682 1.387 1_554 S
C681 H684 0.950 . S
C682 C681 1.387 1_556 S
C682 C685 1.387 . S
H683 C679 0.950 . S
H684 C681 0.950 . S
C685 C676 1.390 1_556 S
C685 H678 0.950 . S
C685 C682 1.387 . S
C686 C687 1.387 . S
C686 H690 0.950 . S
C686 C695 1.390 . S
C687 C686 1.387 . S
C687 C689 1.387 . S
H688 C695 0.950 . S
C689 C687 1.387 . S
C689 C691 1.390 . S
C689 H693 0.950 . S
H690 C686 0.950 . S
C691 C689 1.390 . S
C691 C692 1.387 . S
C691 H694 0.950 . S
C692 C691 1.387 . S
C692 C695 1.387 . S
H693 C689 0.950 . S
H694 C691 0.950 . S
C695 C686 1.390 . S
C695 H688 0.950 . S
C695 C692 1.387 . S
C696 C697 1.387 . S
C696 H700 0.950 . S
C696 C705 1.390 . S
C697 C696 1.387 . S
C697 C699 1.387 . S
H698 C705 0.950 . S
C699 C697 1.387 . S
C699 C701 1.390 . S
C699 H703 0.950 . S
H700 C696 0.950 . S
C701 C699 1.390 . S
C701 C702 1.387 . S
C701 H704 0.950 . S
C702 C701 1.387 . S
C702 C705 1.387 . S
H703 C699 0.950 . S
H704 C701 0.950 . S
C705 C696 1.390 . S
C705 H698 0.950 . S
C705 C702 1.387 . S
C706 C707 1.387 1_554 S
C706 H710 0.950 . S
C706 C715 1.390 . S
C707 C706 1.387 1_556 S
C707 C709 1.387 . S
H708 C715 0.950 . S
C709 C707 1.387 . S
C709 C711 1.390 1_556 S
C709 H713 0.950 . S
H710 C706 0.950 . S
C711 C709 1.390 1_554 S
C711 C712 1.387 . S
C711 H714 0.950 . S
C712 C711 1.387 . S
C712 C715 1.387 . S
H713 C709 0.950 . S
H714 C711 0.950 . S
C715 C706 1.390 . S
C715 H708 0.950 . S
C715 C712 1.387 . S
C716 C717 1.387 . S
C716 H720 0.950 . S
C716 C725 1.390 . S
C717 C716 1.387 . S
C717 C719 1.387 . S
H718 C725 0.950 . S
C719 C717 1.387 . S
C719 C721 1.389 1_556 S
C719 H723 0.950 . S
H720 C716 0.950 . S
C721 C719 1.389 1_554 S
C721 C722 1.388 . S
C721 H724 0.951 . S
C722 C721 1.388 . S
C722 C725 1.387 1_554 S
H723 C719 0.950 . S
H724 C721 0.951 . S
C725 C716 1.390 . S
C725 H718 0.950 . S
C725 C722 1.387 1_556 S
C726 C727 1.387 . S
C726 H730 0.950 . S
C726 C735 1.390 . S
C727 C726 1.387 . S
C727 C729 1.387 . S
H728 C735 0.950 . S
C729 C727 1.387 . S
C729 C731 1.390 . S
C729 H733 0.950 . S
H730 C726 0.950 . S
C731 C729 1.390 . S
C731 C732 1.387 . S
C731 H734 0.950 . S
C732 C731 1.387 . S
C732 C735 1.387 . S
H733 C729 0.950 . S
H734 C731 0.950 . S
C735 C726 1.390 . S
C735 H728 0.950 . S
C735 C732 1.387 . S
C736 C737 1.387 1_556 S
C736 H740 0.950 . S
C736 C745 1.390 . S
C737 C736 1.387 1_554 S
C737 C739 1.387 . S
H738 C745 0.950 . S
C739 C737 1.387 . S
C739 C741 1.390 . S
C739 H743 0.950 . S
H740 C736 0.950 . S
C741 C739 1.390 . S
C741 C742 1.387 1_554 S
C741 H744 0.950 . S
C742 C741 1.387 1_556 S
C742 C745 1.387 . S
H743 C739 0.950 . S
H744 C741 0.950 . S
C745 C736 1.390 . S
C745 H738 0.950 . S
C745 C742 1.387 . S
C746 C747 1.387 . S
C746 H750 0.950 . S
C746 C755 1.390 1_655 S
C747 C746 1.387 . S
C747 C749 1.387 . S
H748 C755 0.950 . S
C749 C747 1.387 . S
C749 C751 1.390 1_655 S
C749 H753 0.950 . S
H750 C746 0.950 . S
C751 C749 1.390 1_455 S
C751 C752 1.387 . S
C751 H754 0.950 . S
C752 C751 1.387 . S
C752 C755 1.387 . S
H753 C749 0.950 . S
H754 C751 0.950 . S
C755 C746 1.390 1_455 S
C755 H748 0.950 . S
C755 C752 1.387 . S
C756 C757 1.387 . S
C756 H760 0.950 . S
C756 C765 1.390 . S
C757 C756 1.387 . S
C757 C759 1.387 . S
H758 C765 0.950 . S
C759 C757 1.387 . S
C759 C761 1.390 . S
C759 H763 0.950 . S
H760 C756 0.950 . S
C761 C759 1.390 . S
C761 C762 1.387 . S
C761 H764 0.950 . S
C762 C761 1.387 . S
C762 C765 1.387 . S
H763 C759 0.950 . S
H764 C761 0.950 . S
C765 C756 1.390 . S
C765 H758 0.950 . S
C765 C762 1.387 . S
C766 C767 1.387 . S
C766 H770 0.950 . S
C766 C775 1.390 . S
C767 C766 1.387 . S
C767 C769 1.387 . S
H768 C775 0.950 . S
C769 C767 1.387 . S
C769 C771 1.390 . S
C769 H773 0.950 . S
H770 C766 0.950 . S
C771 C769 1.390 . S
C771 C772 1.387 . S
C771 H774 0.950 . S
C772 C771 1.387 . S
C772 C775 1.387 . S
H773 C769 0.950 . S
H774 C771 0.950 . S
C775 C766 1.390 . S
C775 H768 0.950 . S
C775 C772 1.387 . S
C776 C777 1.387 . S
C776 H780 0.950 . S
C776 C785 1.390 . S
C777 C776 1.387 . S
C777 C779 1.387 . S
H778 C785 0.950 . S
C779 C777 1.387 . S
C779 C781 1.390 . S
C779 H783 0.950 . S
H780 C776 0.950 . S
C781 C779 1.390 . S
C781 C782 1.387 . S
C781 H784 0.950 . S
C782 C781 1.387 . S
C782 C785 1.387 . S
H783 C779 0.950 . S
H784 C781 0.950 . S
C785 C776 1.390 . S
C785 H778 0.950 . S
C785 C782 1.387 . S
C786 C787 1.387 . S
C786 H790 0.950 . S
C786 C795 1.390 . S
C787 C786 1.387 . S
C787 C789 1.387 . S
H788 C795 0.950 . S
C789 C787 1.387 . S
C789 C791 1.390 . S
C789 H793 0.950 . S
H790 C786 0.950 . S
C791 C789 1.390 . S
C791 C792 1.387 . S
C791 H794 0.950 . S
C792 C791 1.387 . S
C792 C795 1.387 . S
H793 C789 0.950 . S
H794 C791 0.950 . S
C795 C786 1.390 . S
C795 H788 0.950 . S
C795 C792 1.387 . S
C796 C797 1.387 1_554 S
C796 H800 0.950 1_554 S
C796 C805 1.390 . S
C797 C796 1.387 1_556 S
C797 C799 1.387 . S
H798 C805 0.950 . S
C799 C797 1.387 . S
C799 C801 1.390 1_556 S
C799 H803 0.950 . S
H800 C796 0.950 1_556 S
C801 C799 1.390 1_554 S
C801 C802 1.387 . S
C801 H804 0.950 . S
C802 C801 1.387 . S
C802 C805 1.387 . S
H803 C799 0.950 . S
H804 C801 0.950 . S
C805 C796 1.390 . S
C805 H798 0.950 . S
C805 C802 1.387 . S
C806 C807 1.387 . S
C806 H810 0.950 . S
C806 C815 1.390 1_455 S
C807 C806 1.387 . S
C807 C809 1.387 . S
H808 C815 0.950 . S
C809 C807 1.387 . S
C809 C811 1.390 1_455 S
C809 H813 0.950 . S
H810 C806 0.950 . S
C811 C809 1.390 1_655 S
C811 C812 1.387 . S
C811 H814 0.950 . S
C812 C811 1.387 . S
C812 C815 1.387 . S
H813 C809 0.950 . S
H814 C811 0.950 . S
C815 C806 1.390 1_655 S
C815 H808 0.950 . S
C815 C812 1.387 . S
C816 C817 1.387 . S
C816 H820 0.950 . S
C816 C825 1.390 . S
C817 C816 1.387 . S
C817 C819 1.387 1_556 S
H818 C825 0.950 . S
C819 C817 1.387 1_554 S
C819 C821 1.390 . S
C819 H823 0.950 . S
H820 C816 0.950 . S
C821 C819 1.390 . S
C821 C822 1.387 . S
C821 H824 0.950 . S
C822 C821 1.387 . S
C822 C825 1.387 1_554 S
H823 C819 0.950 . S
H824 C821 0.950 . S
C825 C816 1.390 . S
C825 H818 0.950 . S
C825 C822 1.387 1_556 S
C826 C827 1.387 . S
C826 H830 0.950 . S
C826 C835 1.390 1_455 S
C827 C826 1.387 . S
C827 C829 1.387 . S
H828 C835 0.950 . S
C829 C827 1.387 . S
C829 C831 1.390 1_455 S
C829 H833 0.950 . S
H830 C826 0.950 . S
C831 C829 1.390 1_655 S
C831 C832 1.387 . S
C831 H834 0.950 . S
C832 C831 1.387 . S
C832 C835 1.387 . S
H833 C829 0.950 . S
H834 C831 0.950 . S
C835 C826 1.390 1_655 S
C835 H828 0.950 . S
C835 C832 1.387 . S
C836 C837 1.387 . S
C836 H840 0.950 . S
C836 C845 1.390 . S
C837 C836 1.387 . S
C837 C839 1.387 . S
H838 C845 0.950 . S
C839 C837 1.387 . S
C839 C841 1.390 . S
C839 H843 0.950 . S
H840 C836 0.950 . S
C841 C839 1.390 . S
C841 C842 1.387 . S
C841 H844 0.950 . S
C842 C841 1.387 . S
C842 C845 1.387 . S
H843 C839 0.950 . S
H844 C841 0.950 . S
C845 C836 1.390 . S
C845 H838 0.950 . S
C845 C842 1.387 . S
C846 C847 1.387 . S
C846 H850 0.950 . S
C846 C855 1.390 . S
C847 C846 1.387 . S
C847 C849 1.387 . S
H848 C855 0.950 . S
C849 C847 1.387 . S
C849 C851 1.390 . S
C849 H853 0.950 . S
H850 C846 0.950 . S
C851 C849 1.390 . S
C851 C852 1.387 . S
C851 H854 0.950 . S
C852 C851 1.387 . S
C852 C855 1.387 . S
H853 C849 0.950 . S
H854 C851 0.950 . S
C855 C846 1.390 . S
C855 H848 0.950 . S
C855 C852 1.387 . S
C856 C857 1.387 . S
C856 H860 0.950 . S
C856 C865 1.390 . S
C857 C856 1.387 . S
C857 C859 1.387 . S
H858 C865 0.950 . S
C859 C857 1.387 . S
C859 C861 1.390 . S
C859 H863 0.950 . S
H860 C856 0.950 . S
C861 C859 1.390 . S
C861 C862 1.387 . S
C861 H864 0.950 . S
C862 C861 1.387 . S
C862 C865 1.387 . S
H863 C859 0.950 . S
H864 C861 0.950 . S
C865 C856 1.390 . S
C865 H858 0.950 . S
C865 C862 1.387 . S
C866 C867 1.387 . S
C866 H870 0.950 . S
C866 C875 1.390 . S
C867 C866 1.387 . S
C867 C869 1.387 . S
H868 C875 0.950 . S
C869 C867 1.387 . S
C869 C871 1.390 . S
C869 H873 0.950 . S
H870 C866 0.950 . S
C871 C869 1.390 . S
C871 C872 1.387 . S
C871 H874 0.950 . S
C872 C871 1.387 . S
C872 C875 1.387 . S
H873 C869 0.950 . S
H874 C871 0.950 . S
C875 C866 1.390 . S
C875 H868 0.950 . S
C875 C872 1.387 . S
C876 C877 1.387 1_556 S
C876 H880 0.950 1_556 S
C876 C885 1.390 . S
C877 C876 1.387 1_554 S
C877 C879 1.387 . S
H878 C885 0.950 . S
C879 C877 1.387 . S
C879 C881 1.390 1_554 S
C879 H883 0.950 . S
H880 C876 0.950 1_554 S
C881 C879 1.390 1_556 S
C881 C882 1.387 . S
C881 H884 0.950 . S
C882 C881 1.387 . S
C882 C885 1.387 . S
H883 C879 0.950 . S
H884 C881 0.950 . S
C885 C876 1.390 . S
C885 H878 0.950 . S
C885 C882 1.387 . S
C886 C887 1.387 . S
C886 H890 0.950 . S
C886 C895 1.390 1_455 S
C887 C886 1.387 . S
C887 C889 1.387 . S
H888 C895 0.950 . S
C889 C887 1.387 . S
C889 C891 1.390 1_455 S
C889 H893 0.950 . S
H890 C886 0.950 . S
C891 C889 1.390 1_655 S
C891 C892 1.387 . S
C891 H894 0.950 . S
C892 C891 1.387 . S
C892 C895 1.387 . S
H893 C889 0.950 . S
H894 C891 0.950 . S
C895 C886 1.390 1_655 S
C895 H888 0.950 . S
C895 C892 1.387 . S
C896 C897 1.387 . S
C896 H900 0.950 . S
C896 C905 1.390 . S
C897 C896 1.387 . S
C897 C899 1.387 . S
H898 C905 0.950 . S
C899 C897 1.387 . S
C899 C901 1.390 . S
C899 H903 0.950 . S
H900 C896 0.950 . S
C901 C899 1.390 . S
C901 C902 1.387 . S
C901 H904 0.950 . S
C902 C901 1.387 . S
C902 C905 1.387 . S
H903 C899 0.950 . S
H904 C901 0.950 . S
C905 C896 1.390 . S
C905 H898 0.950 . S
C905 C902 1.387 . S
C906 C907 1.387 . S
C906 H910 0.950 . S
C906 C915 1.390 . S
C907 C906 1.387 . S
C907 C909 1.387 . S
H908 C915 0.950 . S
C909 C907 1.387 . S
C909 C911 1.390 . S
C909 H913 0.950 . S
H910 C906 0.950 . S
C911 C909 1.390 . S
C911 C912 1.387 . S
C911 H914 0.950 . S
C912 C911 1.387 . S
C912 C915 1.387 . S
H913 C909 0.950 . S
H914 C911 0.950 . S
C915 C906 1.390 . S
C915 H908 0.950 . S
C915 C912 1.387 . S
C916 C917 1.387 . S
C916 H920 0.950 . S
C916 C925 1.390 1_554 S
C917 C916 1.387 . S
C917 C919 1.387 1_554 S
H918 C925 0.950 1_554 S
C919 C917 1.387 1_556 S
C919 C921 1.390 . S
C919 H923 0.950 . S
H920 C916 0.950 . S
C921 C919 1.390 . S
C921 C922 1.387 . S
C921 H924 0.950 . S
C922 C921 1.387 . S
C922 C925 1.387 . S
H923 C919 0.950 . S
H924 C921 0.950 . S
C925 C916 1.390 1_556 S
C925 H918 0.950 1_556 S
C925 C922 1.387 . S
C926 C927 1.387 . S
C926 H930 0.950 . S
C926 C935 1.390 1_655 S
C927 C926 1.387 . S
C927 C929 1.387 . S
H928 C935 0.950 . S
C929 C927 1.387 . S
C929 C931 1.390 1_655 S
C929 H933 0.950 . S
H930 C926 0.950 . S
C931 C929 1.390 1_455 S
C931 C932 1.387 . S
C931 H934 0.950 . S
C932 C931 1.387 . S
C932 C935 1.387 . S
H933 C929 0.950 . S
H934 C931 0.950 . S
C935 C926 1.390 1_455 S
C935 H928 0.950 . S
C935 C932 1.387 . S
C936 C937 1.387 1_554 S
C936 H940 0.950 . S
C936 C945 1.390 . S
C937 C936 1.387 1_556 S
C937 C939 1.387 . S
H938 C945 0.950 . S
C939 C937 1.387 . S
C939 C941 1.390 1_556 S
C939 H943 0.950 . S
H940 C936 0.950 . S
C941 C939 1.390 1_554 S
C941 C942 1.387 . S
C941 H944 0.950 . S
C942 C941 1.387 . S
C942 C945 1.387 . S
H943 C939 0.950 . S
H944 C941 0.950 . S
C945 C936 1.390 . S
C945 H938 0.950 . S
C945 C942 1.387 . S
C946 C947 1.387 . S
C946 H950 0.950 . S
C946 C955 1.390 1_655 S
C947 C946 1.387 . S
C947 C949 1.387 . S
H948 C955 0.950 . S
C949 C947 1.387 . S
C949 C951 1.390 1_655 S
C949 H953 0.950 . S
H950 C946 0.950 . S
C951 C949 1.390 1_455 S
C951 C952 1.387 . S
C951 H954 0.950 . S
C952 C951 1.387 . S
C952 C955 1.387 . S
H953 C949 0.950 . S
H954 C951 0.950 . S
C955 C946 1.390 1_455 S
C955 H948 0.950 . S
C955 C952 1.387 . S
C956 C957 1.387 . S
C956 H960 0.950 . S
C956 C965 1.390 . S
C957 C956 1.387 . S
C957 C959 1.387 . S
H958 C965 0.950 . S
C959 C957 1.387 . S
C959 C961 1.390 . S
C959 H963 0.950 . S
H960 C956 0.950 . S
C961 C959 1.390 . S
C961 C962 1.387 . S
C961 H964 0.950 . S
C962 C961 1.387 . S
C962 C965 1.387 . S
H963 C959 0.950 . S
H964 C961 0.950 . S
C965 C956 1.390 . S
C965 H958 0.950 . S
C965 C962 1.387 . S
C966 C967 1.387 . S
C966 H970 0.950 . S
C966 C975 1.390 . S
C967 C966 1.387 . S
C967 C969 1.387 . S
H968 C975 0.950 . S
C969 C967 1.387 . S
C969 C971 1.390 . S
C969 H973 0.950 . S
H970 C966 0.950 . S
C971 C969 1.390 . S
C971 C972 1.387 . S
C971 H974 0.950 . S
C972 C971 1.387 . S
C972 C975 1.387 . S
H973 C969 0.950 . S
H974 C971 0.950 . S
C975 C966 1.390 . S
C975 H968 0.950 . S
C975 C972 1.387 . S
C976 C977 1.387 . S
C976 H980 0.950 . S
C976 C985 1.390 . S
C977 C976 1.387 . S
C977 C979 1.387 . S
H978 C985 0.950 . S
C979 C977 1.387 . S
C979 C981 1.390 . S
C979 H983 0.950 . S
H980 C976 0.950 . S
C981 C979 1.390 . S
C981 C982 1.387 . S
C981 H984 0.950 . S
C982 C981 1.387 . S
C982 C985 1.387 . S
H983 C979 0.950 . S
H984 C981 0.950 . S
C985 C976 1.390 . S
C985 H978 0.950 . S
C985 C982 1.387 . S
C986 C987 1.387 . S
C986 H990 0.950 . S
C986 C995 1.390 . S
C987 C986 1.387 . S
C987 C989 1.387 . S
H988 C995 0.950 . S
C989 C987 1.387 . S
C989 C991 1.390 . S
C989 H993 0.950 . S
H990 C986 0.950 . S
C991 C989 1.390 . S
C991 C992 1.387 . S
C991 H994 0.950 . S
C992 C991 1.387 . S
C992 C995 1.387 . S
H993 C989 0.950 . S
H994 C991 0.950 . S
C995 C986 1.390 . S
C995 H988 0.950 . S
C995 C992 1.387 . S
C996 C997 1.387 . S
C996 H1000 0.950 . S
C996 C1005 1.390 1_554 S
C997 C996 1.387 . S
C997 C999 1.387 . S
H998 C1005 0.950 . S
C999 C997 1.387 . S
C999 C1001 1.390 . S
C999 H1003 0.950 . S
H1000 C996 0.950 . S
C1001 C999 1.390 . S
C1001 C1002 1.387 1_554 S
C1001 H1004 0.950 . S
C1002 C1001 1.387 1_556 S
C1002 C1005 1.387 . S
H1003 C999 0.950 . S
H1004 C1001 0.950 . S
C1005 C996 1.390 1_556 S
C1005 H998 0.950 . S
C1005 C1002 1.387 . S
C1006 C1007 1.387 . S
C1006 H1010 0.950 . S
C1006 C1015 1.390 1_455 S
C1007 C1006 1.387 . S
C1007 C1009 1.387 . S
H1008 C1015 0.950 . S
C1009 C1007 1.387 . S
C1009 C1011 1.390 1_455 S
C1009 H1013 0.950 . S
H1010 C1006 0.950 . S
C1011 C1009 1.390 1_655 S
C1011 C1012 1.387 . S
C1011 H1014 0.950 . S
C1012 C1011 1.387 . S
C1012 C1015 1.387 . S
H1013 C1009 0.950 . S
H1014 C1011 0.950 . S
C1015 C1006 1.390 1_655 S
C1015 H1008 0.950 . S
C1015 C1012 1.387 . S
C1016 C1017 1.387 1_556 S
C1016 H1020 0.950 . S
C1016 C1025 1.390 . S
C1017 C1016 1.387 1_554 S
C1017 C1019 1.387 . S
H1018 C1025 0.950 . S
C1019 C1017 1.387 . S
C1019 C1021 1.390 . S
C1019 H1023 0.950 . S
H1020 C1016 0.950 . S
C1021 C1019 1.390 . S
C1021 C1022 1.387 1_554 S
C1021 H1024 0.950 . S
C1022 C1021 1.387 1_556 S
C1022 C1025 1.387 . S
H1023 C1019 0.950 . S
H1024 C1021 0.950 . S
C1025 C1016 1.390 . S
C1025 H1018 0.950 . S
C1025 C1022 1.387 . S
C1026 C1027 1.387 . S
C1026 H1030 0.950 . S
C1026 C1035 1.390 1_655 S
C1027 C1026 1.387 . S
C1027 C1029 1.387 . S
H1028 C1035 0.950 . S
C1029 C1027 1.387 . S
C1029 C1031 1.390 1_655 S
C1029 H1033 0.950 . S
H1030 C1026 0.950 . S
C1031 C1029 1.390 1_455 S
C1031 C1032 1.387 . S
C1031 H1034 0.950 . S
C1032 C1031 1.387 . S
C1032 C1035 1.387 . S
H1033 C1029 0.950 . S
H1034 C1031 0.950 . S
C1035 C1026 1.390 1_455 S
C1035 H1028 0.950 . S
C1035 C1032 1.387 . S
C1036 C1037 1.387 . S
C1036 H1040 0.950 . S
C1036 C1045 1.390 . S
C1037 C1036 1.387 . S
C1037 C1039 1.387 . S
H1038 C1045 0.950 . S
C1039 C1037 1.387 . S
C1039 C1041 1.390 . S
C1039 H1043 0.950 . S
H1040 C1036 0.950 . S
C1041 C1039 1.390 . S
C1041 C1042 1.387 . S
C1041 H1044 0.950 . S
C1042 C1041 1.387 . S
C1042 C1045 1.387 . S
H1043 C1039 0.950 . S
H1044 C1041 0.950 . S
C1045 C1036 1.390 . S
C1045 H1038 0.950 . S
C1045 C1042 1.387 . S
C1046 C1047 1.387 . S
C1046 H1050 0.950 . S
C1046 C1055 1.390 . S
C1047 C1046 1.387 . S
C1047 C1049 1.387 . S
H1048 C1055 0.950 . S
C1049 C1047 1.387 . S
C1049 C1051 1.390 . S
C1049 H1053 0.950 . S
H1050 C1046 0.950 . S
C1051 C1049 1.390 . S
C1051 C1052 1.387 . S
C1051 H1054 0.950 . S
C1052 C1051 1.387 . S
C1052 C1055 1.387 . S
H1053 C1049 0.950 . S
H1054 C1051 0.950 . S
C1055 C1046 1.390 . S
C1055 H1048 0.950 . S
C1055 C1052 1.387 . S
C417 C81 2.333 . S
C422 C5 2.333 . S
C427 C18 1.496 . S
C432 C96 1.496 . S
C437 C55 2.333 . S
C442 C29 2.333 . S
C447 C42 1.496 . S
C452 C70 1.496 . S
C457 C185 2.335 . S
C462 C109 2.335 . S
C467 C120 1.496 . S
C472 C200 1.496 . S
C477 C159 2.333 . S
C482 C133 2.333 . S
C487 C146 1.496 . S
C492 C174 1.496 . S
C497 C211 2.335 . S
C502 C291 2.335 . S
C507 C302 1.496 . S
C512 C226 1.496 . S
C517 C237 2.335 . S
C522 C263 2.335 . S
C527 C276 1.496 . S
C532 C252 1.496 . S
C537 C393 2.335 . S
C542 C317 2.335 . S
C547 C406 1.496 . S
C552 C330 1.496 . S
C557 C367 2.333 . S
C562 C341 2.333 . S
C567 C356 1.496 . S
C572 C382 1.496 . S
C577 C101 1.345 . S
C582 C10 1.358 . S
C587 C56 1.358 . S
C592 C23 1.347 . S
C597 C75 1.345 . S
C602 C30 1.358 . S
C607 C82 1.358 . S
C612 C43 1.345 . S
C617 C205 1.345 . S
C622 C114 1.358 . S
C627 C160 1.358 . S
C632 C121 1.347 . S
C637 C179 1.345 . S
C642 C134 1.358 . S
C647 C147 1.347 . S
C652 C186 1.358 . S
C657 C303 1.345 . S
C662 C212 1.358 . S
C667 C231 1.347 . S
C672 C264 1.358 . S
C677 C238 1.358 . S
C682 C277 1.347 . S
C687 C296 1.358 . S
C692 C257 1.347 . S
C697 C407 1.347 . S
C702 C322 1.359 . S
C707 C335 1.347 . S
C712 C368 1.358 . S
C717 C342 1.358 . S
C722 C387 1.347 . S
C727 C394 1.358 . S
C732 C361 1.347 . S
C737 C4 1.813 . S
C742 C395 2.044 . S
C747 C198 1.412 . S
C752 C17 1.418 . S
C757 C369 2.043 . S
C762 C36 1.809 . S
C767 C172 1.412 . S
C772 C49 1.418 . S
C777 C343 2.043 . S
C782 C62 1.811 . S
C787 C69 1.417 . S
C792 C148 1.412 . S
C797 C88 1.813 . S
C802 C315 2.043 . S
C807 C95 1.418 . S
C812 C122 1.412 . S
C817 C108 1.813 . S
C822 C289 2.044 . S
C827 C94 1.412 . S
C832 C127 1.418 . S
C837 C265 2.043 . S
C842 C140 1.813 . S
C847 C68 1.412 . S
C852 C153 1.418 . S
C857 C239 2.044 . S
C862 C166 1.812 . S
C867 C44 1.412 . S
C872 C173 1.417 . S
C877 C192 1.812 . S
C882 C213 2.043 . S
C887 C16 1.412 . S
C892 C199 1.418 . S
C897 C187 2.043 . S
C902 C218 1.809 . S
C907 C408 1.411 . S
C912 C225 1.417 . S
C917 C244 1.811 . S
C922 C161 2.043 . S
C927 C251 1.417 . S
C932 C380 1.411 . S
C937 C270 1.811 . S
C942 C135 2.044 . S
C947 C283 1.418 . S
C952 C354 1.412 . S
C957 C290 1.814 . S
C962 C107 2.044 . S
C967 C309 1.417 . S
C972 C328 1.411 . S
C977 C83 2.043 . S
C982 C316 1.810 . S
C987 C304 1.412 . S
C992 C329 1.418 . S
C997 C57 2.044 . S
C1002 C348 1.814 . S
C1007 C355 1.417 . S
C1012 C278 1.412 . S
C1017 C374 1.809 . S
C1022 C31 2.043 . S
C1027 C250 1.412 . S
C1032 C381 1.418 . S
C1037 C400 1.811 . S
C1042 C3 2.044 . S
C1047 C413 1.418 . S
C1052 C224 1.412 . S
