# Generated by pormake.
# Topology wiv, (6)-cn, num edge types: 1
# Building blocks:
#     Node 0, Type 0, BuildingBlock: KUMBUR_clean_sbu_1, # of connection points: 6
#     Node 1, Type 0, BuildingBlock: KUMBUR_clean_sbu_1, # of connection points: 6
#     Node 2, Type 0, BuildingBlock: KUMBUR_clean_sbu_1, # of connection points: 6
#     Node 3, Type 0, BuildingBlock: KUMBUR_clean_sbu_1, # of connection points: 6
#     Node 4, Type 0, BuildingBlock: KUMBUR_clean_sbu_1, # of connection points: 6
#     Node 5, Type 0, BuildingBlock: KUMBUR_clean_sbu_1, # of connection points: 6
#     Node 6, Type 0, BuildingBlock: KUMBUR_clean_sbu_1, # of connection points: 6
#     Node 7, Type 0, BuildingBlock: KUMBUR_clean_sbu_1, # of connection points: 6
#     Node 8, Type 0, BuildingBlock: KUMBUR_clean_sbu_1, # of connection points: 6
#     Node 9, Type 0, BuildingBlock: KUMBUR_clean_sbu_1, # of connection points: 6
#     Node 10, Type 0, BuildingBlock: KUMBUR_clean_sbu_1, # of connection points: 6
#     Node 11, Type 0, BuildingBlock: KUMBUR_clean_sbu_1, # of connection points: 6
#     Node 12, Type 0, BuildingBlock: KUMBUR_clean_sbu_1, # of connection points: 6
#     Node 13, Type 0, BuildingBlock: KUMBUR_clean_sbu_1, # of connection points: 6
#     Node 14, Type 0, BuildingBlock: KUMBUR_clean_sbu_1, # of connection points: 6
#     Node 15, Type 0, BuildingBlock: KUMBUR_clean_sbu_1, # of connection points: 6
#     Edge 16, Type (0, 0), BuildingBlock: OJICUG_clean_linker_0, # of connection points: 2
#     Edge 17, Type (0, 0), BuildingBlock: OJICUG_clean_linker_0, # of connection points: 2
#     Edge 18, Type (0, 0), BuildingBlock: OJICUG_clean_linker_0, # of connection points: 2
#     Edge 19, Type (0, 0), BuildingBlock: OJICUG_clean_linker_0, # of connection points: 2
#     Edge 20, Type (0, 0), BuildingBlock: OJICUG_clean_linker_0, # of connection points: 2
#     Edge 21, Type (0, 0), BuildingBlock: OJICUG_clean_linker_0, # of connection points: 2
#     Edge 22, Type (0, 0), BuildingBlock: OJICUG_clean_linker_0, # of connection points: 2
#     Edge 23, Type (0, 0), BuildingBlock: OJICUG_clean_linker_0, # of connection points: 2
#     Edge 24, Type (0, 0), BuildingBlock: OJICUG_clean_linker_0, # of connection points: 2
#     Edge 25, Type (0, 0), BuildingBlock: OJICUG_clean_linker_0, # of connection points: 2
#     Edge 26, Type (0, 0), BuildingBlock: OJICUG_clean_linker_0, # of connection points: 2
#     Edge 27, Type (0, 0), BuildingBlock: OJICUG_clean_linker_0, # of connection points: 2
#     Edge 28, Type (0, 0), BuildingBlock: OJICUG_clean_linker_0, # of connection points: 2
#     Edge 29, Type (0, 0), BuildingBlock: OJICUG_clean_linker_0, # of connection points: 2
#     Edge 30, Type (0, 0), BuildingBlock: OJICUG_clean_linker_0, # of connection points: 2
#     Edge 31, Type (0, 0), BuildingBlock: OJICUG_clean_linker_0, # of connection points: 2
#     Edge 32, Type (0, 0), BuildingBlock: OJICUG_clean_linker_0, # of connection points: 2
#     Edge 33, Type (0, 0), BuildingBlock: OJICUG_clean_linker_0, # of connection points: 2
#     Edge 34, Type (0, 0), BuildingBlock: OJICUG_clean_linker_0, # of connection points: 2
#     Edge 35, Type (0, 0), BuildingBlock: OJICUG_clean_linker_0, # of connection points: 2
#     Edge 36, Type (0, 0), BuildingBlock: OJICUG_clean_linker_0, # of connection points: 2
#     Edge 37, Type (0, 0), BuildingBlock: OJICUG_clean_linker_0, # of connection points: 2
#     Edge 38, Type (0, 0), BuildingBlock: OJICUG_clean_linker_0, # of connection points: 2
#     Edge 39, Type (0, 0), BuildingBlock: OJICUG_clean_linker_0, # of connection points: 2
#     Edge 40, Type (0, 0), BuildingBlock: OJICUG_clean_linker_0, # of connection points: 2
#     Edge 41, Type (0, 0), BuildingBlock: OJICUG_clean_linker_0, # of connection points: 2
#     Edge 42, Type (0, 0), BuildingBlock: OJICUG_clean_linker_0, # of connection points: 2
#     Edge 43, Type (0, 0), BuildingBlock: OJICUG_clean_linker_0, # of connection points: 2
#     Edge 44, Type (0, 0), BuildingBlock: OJICUG_clean_linker_0, # of connection points: 2
#     Edge 45, Type (0, 0), BuildingBlock: OJICUG_clean_linker_0, # of connection points: 2
#     Edge 46, Type (0, 0), BuildingBlock: OJICUG_clean_linker_0, # of connection points: 2
#     Edge 47, Type (0, 0), BuildingBlock: OJICUG_clean_linker_0, # of connection points: 2
#     Edge 48, Type (0, 0), BuildingBlock: OJICUG_clean_linker_0, # of connection points: 2
#     Edge 49, Type (0, 0), BuildingBlock: OJICUG_clean_linker_0, # of connection points: 2
#     Edge 50, Type (0, 0), BuildingBlock: OJICUG_clean_linker_0, # of connection points: 2
#     Edge 51, Type (0, 0), BuildingBlock: OJICUG_clean_linker_0, # of connection points: 2
#     Edge 52, Type (0, 0), BuildingBlock: OJICUG_clean_linker_0, # of connection points: 2
#     Edge 53, Type (0, 0), BuildingBlock: OJICUG_clean_linker_0, # of connection points: 2
#     Edge 54, Type (0, 0), BuildingBlock: OJICUG_clean_linker_0, # of connection points: 2
#     Edge 55, Type (0, 0), BuildingBlock: OJICUG_clean_linker_0, # of connection points: 2
#     Edge 56, Type (0, 0), BuildingBlock: OJICUG_clean_linker_0, # of connection points: 2
#     Edge 57, Type (0, 0), BuildingBlock: OJICUG_clean_linker_0, # of connection points: 2
#     Edge 58, Type (0, 0), BuildingBlock: OJICUG_clean_linker_0, # of connection points: 2
#     Edge 59, Type (0, 0), BuildingBlock: OJICUG_clean_linker_0, # of connection points: 2
#     Edge 60, Type (0, 0), BuildingBlock: OJICUG_clean_linker_0, # of connection points: 2
#     Edge 61, Type (0, 0), BuildingBlock: OJICUG_clean_linker_0, # of connection points: 2
#     Edge 62, Type (0, 0), BuildingBlock: OJICUG_clean_linker_0, # of connection points: 2
#     Edge 63, Type (0, 0), BuildingBlock: OJICUG_clean_linker_0, # of connection points: 2
# Relax obj value: 0.187
# Max RMSD: 0.236
# Mean RMSD: 0.236
data_MOF--net-wiv--node1-KUMBUR_clean_sbu_1--edge1-OJICUG_clean_linker_0
_symmetry_space_group_name_H-M    P1
_symmetry_Int_Tables_number       1
_symmetry_cell_setting            triclinic
loop_
_symmetry_equiv_pos_as_xyz
'x, y, z'
_cell_length_a     36.090874
_cell_length_b     36.064436
_cell_length_c     19.699314
_cell_angle_alpha  89.8188
_cell_angle_beta   89.963385
_cell_angle_gamma 90.024185
loop_
_atom_site_label
_atom_site_type_symbol
_atom_site_fract_x
_atom_site_fract_y
_atom_site_fract_z
_atom_type_partial_charge
Tb0 Tb 0.38461 0.10617 0.07299 0.0
C1 C 0.22658 0.15475 0.14698 0.0
N2 N 0.25916 0.16223 0.17897 0.0
C3 C 0.23482 0.22312 0.20419 0.0
C4 C 0.19967 0.1824 0.13174 0.0
C5 C 0.2614 0.19519 0.21366 0.0
C6 C 0.20593 0.21781 0.15821 0.0
C7 C 0.16679 0.10993 0.14382 0.0
C8 C 0.21505 0.11944 0.1529 0.0
C9 C 0.14669 0.13831 0.11321 0.0
C10 C 0.16359 0.17365 0.10577 0.0
Tb11 Tb 0.30057 0.11136 0.18555 0.0
N12 N 0.24231 0.08941 0.18715 0.0
C13 C 0.14931 0.06735 0.17692 0.0
C14 C 0.23035 0.04893 0.21857 0.0
C15 C 0.1812 0.03569 0.21601 0.0
H16 H 0.28584 0.20246 0.24217 0.0
H17 H 0.17272 0.00827 0.23079 0.0
H18 H 0.3886 0.01334 0.0542 0.0
H19 H 0.50142 0.19967 0.09893 0.0
H20 H 0.25103 0.03031 0.2392 0.0
H21 H 0.12028 0.06044 0.1723 0.0
H22 H 0.44037 0.18079 0.05318 0.0
H23 H 0.23802 0.24956 0.22936 0.0
H24 H 0.11758 0.13462 0.10205 0.0
H25 H 0.14562 0.1962 0.09027 0.0
H26 H 0.42208 0.9635 0.11255 0.0
H27 H 0.18609 0.23998 0.1505 0.0
H28 H 0.53843 0.15446 0.16644 0.0
N29 N 0.41901 0.05615 0.10367 0.0
C30 C 0.45144 0.06489 0.13417 0.0
C31 C 0.43112 0.99181 0.11926 0.0
C32 C 0.47257 0.03752 0.16692 0.0
C33 C 0.41197 0.02013 0.08622 0.0
C34 C 0.45994 1.00092 0.16434 0.0
N35 N 0.44361 0.12615 0.09423 0.0
C36 C 0.45713 0.16096 0.08075 0.0
C37 C 0.49914 0.11037 0.15548 0.0
C38 C 0.46452 0.10084 0.12825 0.0
C39 C 0.51216 0.1464 0.14539 0.0
C40 C 0.49142 0.17171 0.10707 0.0
H41 H 0.474 0.97944 0.19281 0.0
H42 H 0.52247 0.02677 0.22488 0.0
H43 H 0.54548 0.09094 0.21578 0.0
O44 O 0.42219 0.11263 0.9927 0.0
O45 O 0.3989 0.1438 0.154 0.0
O46 O 0.35687 0.12551 0.23549 0.0
O47 O 0.37474 0.07369 0.98686 0.0
O48 O 0.36583 0.16508 0.07332 0.0
O49 O 0.32038 0.16638 0.15754 0.0
O50 O 0.3245 0.08698 0.2738 0.0
O51 O 0.28479 0.0968 0.07464 0.0
O52 O 0.33388 0.11799 1.01065 0.0
O53 O 0.26843 0.10602 0.27232 0.0
O54 O 0.31064 0.05537 0.14647 0.0
O55 O 0.37094 0.06562 0.15621 0.0
C56 C 0.38977 0.14022 0.21755 0.0
C57 C 0.41734 0.07513 0.89329 0.0
C58 C 0.40759 0.07839 0.77312 0.0
C59 C 0.44152 0.06035 0.76185 0.0
C60 C 0.45126 0.05711 0.88335 0.0
C61 C 0.46315 0.04933 0.81731 0.0
C62 C 0.39554 0.08527 0.8388 0.0
C63 C 0.34211 0.18303 0.11321 0.0
C64 C 0.40525 0.08658 0.95945 0.0
C65 C 0.50606 0.04734 0.19827 0.0
C66 C 0.5194 0.08375 0.19229 0.0
C67 C 0.29908 0.10633 1.01356 0.0
C68 C 0.29982 0.11357 0.37368 0.0
C69 C 0.32049 0.12835 0.54928 0.0
C70 C 0.31289 0.16977 0.53773 0.0
C71 C 0.29328 0.15378 0.36694 0.0
C72 C 0.31054 0.09495 0.44095 0.0
C73 C 0.29631 0.18159 0.42239 0.0
C74 C 0.34326 0.0418 0.15961 0.0
C75 C 0.29485 0.09288 0.31012 0.0
H76 H 0.45112 0.05492 0.71072 0.0
H77 H 0.46842 0.04946 0.92628 0.0
H78 H 0.48929 0.03535 0.80912 0.0
H79 H 0.36984 0.10024 0.84753 0.0
H80 H 0.31618 0.18773 0.58235 0.0
H81 H 0.28534 0.164 0.31887 0.0
H82 H 0.3114 0.06537 0.42948 0.0
H83 H 0.28933 0.2077 0.39602 0.0
Tb84 Tb 0.10697 0.70455 0.83064 0.0
C85 C 0.08652 0.54348 0.93837 0.0
N86 N 0.0658 0.57346 0.95164 0.0
C87 C 0.01042 0.53822 0.93243 0.0
C88 C 0.07039 0.51028 0.91611 0.0
C89 C 0.02807 0.5712 0.9512 0.0
C90 C 0.03176 0.50778 0.9129 0.0
C91 C 0.14756 0.51718 0.93152 0.0
C92 C 0.12406 0.54663 0.94751 0.0
C93 C 0.13198 0.48556 0.90113 0.0
C94 C 0.09354 0.48151 0.8956 0.0
Tb95 Tb 0.09767 0.62746 0.9618 0.0
N96 N 0.13719 0.5786 0.97374 0.0
C97 C 0.18536 0.52092 0.9469 0.0
C98 C 0.17214 0.57994 0.99972 0.0
C99 C 0.19722 0.5514 0.98505 0.0
H100 H 0.01158 0.59499 0.96533 0.0
H101 H 0.22582 0.55348 1.00121 0.0
H102 H 0.19103 0.65164 0.78745 0.0
H103 H 0.08131 0.87176 0.84276 0.0
H104 H 0.18125 0.60397 0.0279 0.0
H105 H 0.20541 0.50022 0.93212 0.0
H106 H 0.06706 0.79673 0.86979 0.0
H107 H 0.98053 0.53665 0.93168 0.0
H108 H 0.1487 0.46392 0.88192 0.0
H109 H 0.08197 0.45664 0.87395 0.0
H110 H 0.24966 0.66222 0.73606 0.0
H111 H 0.01827 0.48257 0.89617 0.0
H112 H 0.13798 0.89887 0.75585 0.0
N113 N 0.16905 0.70659 0.77952 0.0
C114 C 0.17727 0.73866 0.74907 0.0
C115 C 0.23133 0.68579 0.74143 0.0
C116 C 0.22399 0.75218 0.7341 0.0
C117 C 0.19544 0.67932 0.7697 0.0
C118 C 0.24627 0.72129 0.72835 0.0
N119 N 0.10937 0.76684 0.79803 0.0
C120 C 0.08807 0.80254 0.83205 0.0
C121 C 0.16179 0.83858 0.7103 0.0
C122 C 0.14116 0.76772 0.7423 0.0
C123 C 0.13246 0.8694 0.75708 0.0
C124 C 0.09749 0.85164 0.81498 0.0
H125 H 0.27488 0.72424 0.71283 0.0
H126 H 0.27025 0.80255 0.70643 0.0
H127 H 0.2251 0.86702 0.69573 0.0
O128 O 0.07925 0.67124 0.75931 0.0
O129 O 0.09238 0.72532 0.94217 0.0
O130 O 0.11957 0.67948 1.00538 0.0
O131 O 0.0795 0.73071 0.74854 0.0
O132 O 0.05048 0.69788 0.87599 0.0
O133 O 0.05102 0.6359 0.88969 0.0
O134 O 0.09292 0.6073 0.06034 0.0
O135 O 0.08899 0.61004 0.85787 0.0
O136 O 0.12941 0.64719 0.80447 0.0
O137 O 0.05738 0.65251 0.02282 0.0
O138 O 0.15676 0.64425 0.93649 0.0
O139 O 0.15748 0.70419 0.89168 0.0
C140 C 0.10392 0.71248 1.00433 0.0
C141 C 0.08544 0.69509 0.648 0.0
C142 C 0.07273 0.68063 0.46994 0.0
C143 C 0.11311 0.66867 0.46534 0.0
C144 C 0.12466 0.68307 0.63967 0.0
C145 C 0.14274 0.67176 0.57367 0.0
C146 C 0.05814 0.69773 0.58827 0.0
C147 C 0.03239 0.66596 0.87391 0.0
C148 C 0.0723 0.69927 0.71899 0.0
C149 C 0.24073 0.79911 0.7134 0.0
C150 C 0.21178 0.84035 0.70157 0.0
C151 C 0.11598 0.61336 0.81453 0.0
C152 C 0.0363 0.61751 0.11654 0.0
C153 C 0.00777 0.62618 0.22556 0.0
C154 C 0.99119 0.59106 0.22028 0.0
C155 C 0.02182 0.5814 0.11356 0.0
C156 C 0.02779 0.64028 0.17088 0.0
C157 C 0.99739 0.56911 0.16348 0.0
C158 C 0.17484 0.67505 0.91751 0.0
C159 C 0.06612 0.63063 0.07356 0.0
H160 H 0.12279 0.66041 0.41456 0.0
H161 H 0.14075 0.67899 0.68415 0.0
H162 H 0.17141 0.66524 0.58882 0.0
H163 H 0.0321 0.70762 0.61098 0.0
H164 H 0.97636 0.57942 0.26284 0.0
H165 H 0.03108 0.56175 0.07642 0.0
H166 H 0.04201 0.66675 0.17528 0.0
H167 H 0.98612 0.54132 0.16141 0.0
Tb168 Tb 0.64617 0.91939 0.08092 0.0
C169 C 0.79371 0.87242 0.25316 0.0
N170 N 0.76007 0.86416 0.23093 0.0
C171 C 0.78483 0.8007 0.21625 0.0
C172 C 0.83327 0.84514 0.23299 0.0
C173 C 0.75549 0.82649 0.22951 0.0
C174 C 0.82257 0.8104 0.21153 0.0
C175 C 0.86618 0.93492 0.32106 0.0
C176 C 0.79581 0.91298 0.29307 0.0
C177 C 0.89821 0.8997 0.29119 0.0
C178 C 0.88199 0.8574 0.24922 0.0
Tb179 Tb 0.71602 0.91642 0.22746 0.0
N180 N 0.77067 0.9459 0.26667 0.0
C181 C 0.86863 0.9841 0.30654 0.0
C182 C 0.78274 0.98979 0.2587 0.0
C183 C 0.82831 0.00988 0.2768 0.0
H184 H 0.7297 0.81491 0.24623 0.0
H185 H 0.83168 0.03909 0.26645 0.0
H186 H 0.60828 1.00157 0.04299 0.0
H187 H 0.58209 0.78284 0.08605 0.0
H188 H 0.76221 0.00872 0.23876 0.0
H189 H 0.8954 0.99754 0.30649 0.0
H190 H 0.63147 0.82648 0.05197 0.0
H191 H 0.77798 0.7716 0.21243 0.0
H192 H 0.9276 0.90525 0.29268 0.0
H193 H 0.90286 0.83768 0.23361 0.0
H194 H 0.54477 0.02583 0.02923 0.0
H195 H 0.8432 0.78946 0.20069 0.0
H196 H 0.52432 0.80689 0.13716 0.0
N197 N 0.59016 0.94705 0.06961 0.0
C198 C 0.56109 0.92508 0.08524 0.0
C199 C 0.54918 0.9977 0.04675 0.0
C200 C 0.52529 0.9394 0.08908 0.0
C201 C 0.58494 0.98363 0.05349 0.0
C202 C 0.51916 0.97501 0.06285 0.0
N203 N 0.60162 0.87442 0.0843 0.0
C204 C 0.60614 0.8373 0.07321 0.0
C205 C 0.53867 0.86436 0.11724 0.0
C206 C 0.56734 0.88776 0.09596 0.0
C207 C 0.54506 0.8261 0.11876 0.0
C208 C 0.57792 0.81242 0.09115 0.0
H209 H 0.49175 0.98503 0.05252 0.0
H210 H 0.47004 0.92745 0.12666 0.0
H211 H 0.48333 0.864 0.15728 0.0
O212 O 0.65085 0.89059 0.9906 0.0
O213 O 0.61829 0.92278 0.17938 0.0
O214 O 0.65747 0.89252 0.25214 0.0
O215 O 0.64324 0.95039 0.99089 0.0
O216 O 0.67729 0.86647 0.10178 0.0
O217 O 0.68946 0.86245 0.21521 0.0
O218 O 0.67692 0.92813 0.30516 0.0
O219 O 0.74086 0.91193 0.11578 0.0
O220 O 0.69894 0.94649 0.06141 0.0
O221 O 0.73341 0.93778 0.32188 0.0
O222 O 0.70307 0.97211 0.18531 0.0
O223 O 0.64423 0.97061 0.14345 0.0
C224 C 0.62275 0.90062 0.23136 0.0
C225 C 0.61497 0.91559 0.9038 0.0
C226 C 0.60792 0.88675 0.79585 0.0
C227 C 0.58368 0.91507 0.77505 0.0
C228 C 0.59105 0.94435 0.88437 0.0
C229 C 0.57439 0.94332 0.8206 0.0
C230 C 0.6193 0.88483 0.86266 0.0
C231 C 0.67872 0.84673 0.15857 0.0
C232 C 0.64317 0.92019 0.95526 0.0
C233 C 0.49759 0.91735 0.11861 0.0
C234 C 0.50477 0.88025 0.13467 0.0
C235 C 0.72928 0.92711 0.05614 0.0
C236 C 0.70361 0.90411 0.40405 0.0
C237 C 0.69383 0.86273 0.56774 0.0
C238 C 0.7083 0.82671 0.53795 0.0
C239 C 0.71704 0.86784 0.37873 0.0
C240 C 0.69243 0.91084 0.47795 0.0
C241 C 0.72203 0.83339 0.42052 0.0
C242 C 0.66987 0.98746 0.1796 0.0
C243 C 0.70213 0.9326 0.35112 0.0
H244 H 0.57521 0.91741 0.72247 0.0
H245 H 0.58743 0.96868 0.91558 0.0
H246 H 0.55792 0.96667 0.80432 0.0
H247 H 0.63884 0.86321 0.87704 0.0
H248 H 0.71017 0.80321 0.57361 0.0
H249 H 0.72201 0.86543 0.32607 0.0
H250 H 0.68344 0.93993 0.47933 0.0
H251 H 0.73275 0.81325 0.38339 0.0
Tb252 Tb 0.90135 0.30357 0.83759 0.0
C253 C 0.85836 0.45167 0.96859 0.0
N254 N 0.89444 0.44413 0.95685 0.0
C255 C 0.90228 0.50437 0.90741 0.0
C256 C 0.84135 0.48308 0.94113 0.0
C257 C 0.91716 0.47055 0.9294 0.0
C258 C 0.86387 0.50956 0.90922 0.0
C259 C 0.80197 0.43533 0.02751 0.0
C260 C 0.83895 0.42801 1.01005 0.0
C261 C 0.78324 0.46402 0.99359 0.0
C262 C 0.80275 0.48678 0.94796 0.0
Tb263 Tb 0.91086 0.38398 0.97614 0.0
N264 N 0.85646 0.39699 0.03181 0.0
C265 C 0.78513 0.41287 0.07662 0.0
C266 C 0.84081 0.37542 0.08139 0.0
C267 C 0.80536 0.38379 0.1059 0.0
H268 H 0.9463 0.46477 0.92188 0.0
H269 H 0.79298 0.36665 0.14501 0.0
H270 H 0.80184 0.3087 0.80352 0.0
H271 H 0.00754 0.17119 0.82299 0.0
H272 H 0.85464 0.35083 0.09959 0.0
H273 H 0.75683 0.41787 0.09253 0.0
H274 H 0.98619 0.24449 0.84792 0.0
H275 H 0.91993 0.5251 0.88424 0.0
H276 H 0.75395 0.46876 1.002 0.0
H277 H 0.78797 0.5077 0.91994 0.0
H278 H 0.74973 0.26514 0.79903 0.0
H279 H 0.85233 0.53444 0.88755 0.0
H280 H 0.96139 0.11543 0.7667 0.0
N281 N 0.84377 0.26861 0.82079 0.0
C282 C 0.849 0.23403 0.80057 0.0
C283 C 0.77714 0.25402 0.80767 0.0
C284 C 0.81488 0.19894 0.81105 0.0
C285 C 0.80767 0.27953 0.81051 0.0
C286 C 0.78031 0.21517 0.81624 0.0
N287 N 0.92554 0.24579 0.80528 0.0
C288 C 0.9661 0.22723 0.82238 0.0
C289 C 0.90466 0.15349 0.74293 0.0
C290 C 0.89145 0.22628 0.77019 0.0
C291 C 0.95153 0.14374 0.76749 0.0
C292 C 0.98033 0.17939 0.80569 0.0
H293 H 0.75572 0.19799 0.81645 0.0
H294 H 0.7972 0.1312 0.80353 0.0
H295 H 0.8645 0.09686 0.76067 0.0
O296 O 0.90403 0.34079 0.75414 0.0
O297 O 0.91494 0.28094 0.9482 0.0
O298 O 0.90693 0.32923 0.02639 0.0
O299 O 0.92485 0.2871 0.74264 0.0
O300 O 0.95757 0.31699 0.87671 0.0
O301 O 0.95774 0.37901 0.90231 0.0
O302 O 0.95024 0.36865 0.05026 0.0
O303 O 0.91684 0.39912 0.86955 0.0
O304 O 0.87518 0.36128 0.8181 0.0
O305 O 0.93343 0.42548 0.03721 0.0
O306 O 0.85414 0.36542 0.94712 0.0
O307 O 0.8529 0.30557 0.90429 0.0
C308 C 0.91192 0.29359 1.01396 0.0
C309 C 0.89143 0.31216 0.6488 0.0
C310 C 0.85963 0.31954 0.47561 0.0
C311 C 0.82136 0.30745 0.50037 0.0
C312 C 0.85346 0.30118 0.6672 0.0
C313 C 0.8213 0.29658 0.61994 0.0
C314 C 0.90273 0.32117 0.57468 0.0
C315 C 0.97422 0.34973 0.87519 0.0
C316 C 0.91576 0.31698 0.71007 0.0
C317 C 0.82098 0.14891 0.79525 0.0
C318 C 0.86321 0.12679 0.76256 0.0
C319 C 0.88846 0.39569 0.82855 0.0
C320 C 0.94687 0.40782 0.14724 0.0
C321 C 0.91171 0.39744 0.25125 0.0
C322 C 0.93123 0.42667 0.28204 0.0
C323 C 0.96603 0.43681 0.17877 0.0
C324 C 0.92019 0.38772 0.18396 0.0
C325 C 0.95857 0.44584 0.24612 0.0
C326 C 0.83625 0.33498 0.92952 0.0
C327 C 0.95207 0.40237 0.07415 0.0
H328 H 0.79979 0.30568 0.46108 0.0
H329 H 0.84772 0.30002 0.71912 0.0
H330 H 0.79879 0.28809 0.65455 0.0
H331 H 0.93206 0.32915 0.57797 0.0
H332 H 0.92624 0.4339 0.3346 0.0
H333 H 0.98642 0.45284 0.15087 0.0
H334 H 0.90599 0.36482 0.16028 0.0
H335 H 0.97399 0.46782 0.27045 0.0
Tb336 Tb 0.38219 0.41913 0.19897 0.0
C337 C 0.25757 0.33773 1.01171 0.0
N338 N 0.29166 0.34433 0.03397 0.0
C339 C 0.30455 0.27973 0.99797 0.0
C340 C 0.23901 0.29218 1.00754 0.0
C341 C 0.31602 0.31599 1.01836 0.0
C342 C 0.26745 0.26703 0.99939 0.0
C343 C 0.15982 0.36173 0.97108 0.0
C344 C 0.23277 0.3761 0.99719 0.0
C345 C 0.15243 0.31196 0.97401 0.0
C346 C 0.19032 0.27952 0.99186 0.0
Tb347 Tb 0.30104 0.40824 0.07332 0.0
N348 N 0.23793 0.41104 0.04473 0.0
C349 C 0.13298 0.39746 1.01079 0.0
C350 C 0.20524 0.43847 0.07385 0.0
C351 C 0.15521 0.43382 0.05978 0.0
H352 H 0.34551 0.32013 0.021 0.0
H353 H 0.13739 0.45405 0.08366 0.0
H354 H 0.45809 0.45908 0.13471 0.0
H355 H 0.38101 0.30403 0.37637 0.0
H356 H 0.21382 0.46118 0.10596 0.0
H357 H 0.10309 0.39533 1.01124 0.0
H358 H 0.36643 0.36896 0.34301 0.0
H359 H 0.32594 0.25977 0.98588 0.0
H360 H 0.12443 0.3014 0.97132 0.0
H361 H 0.18372 0.25027 0.99064 0.0
H362 H 0.5151 0.43452 0.08169 0.0
H363 H 0.26122 0.23832 0.98837 0.0
H364 H 0.42499 0.26741 0.30676 0.0
N365 N 0.44214 0.4067 0.17448 0.0
C366 C 0.45069 0.37067 0.18176 0.0
C367 C 0.49707 0.41621 0.10981 0.0
C368 C 0.4782 0.35414 0.14324 0.0
C369 C 0.46549 0.43029 0.14128 0.0
C370 C 0.50209 0.37773 0.10739 0.0
N371 N 0.40332 0.36895 0.25962 0.0
C372 C 0.38665 0.3535 0.31497 0.0
C373 C 0.43838 0.31335 0.24015 0.0
C374 C 0.43108 0.35091 0.22822 0.0
C375 C 0.41996 0.29614 0.29435 0.0
C376 C 0.39493 0.31679 0.33358 0.0
H377 H 0.52371 0.36698 0.07656 0.0
H378 H 0.49822 0.30082 0.1078 0.0
H379 H 0.46642 0.26509 0.19873 0.0
O380 O 0.42131 0.44732 0.25592 0.0
O381 O 0.3954 0.42214 0.09117 0.0
O382 O 0.35604 0.38131 0.04486 0.0
O383 O 0.36404 0.46594 0.25312 0.0
O384 O 0.36443 0.36146 0.17847 0.0
O385 O 0.30435 0.35845 0.13766 0.0
O386 O 0.33509 0.43176 0.99751 0.0
O387 O 0.28029 0.42108 0.18624 0.0
O388 O 0.33051 0.40767 0.25727 0.0
O389 O 0.27642 0.43231 0.98541 0.0
O390 O 0.31377 0.46612 0.11143 0.0
O391 O 0.3756 0.45885 0.115 0.0
C392 C 0.39047 0.39356 0.05171 0.0
C393 C 0.40217 0.48276 0.34573 0.0
C394 C 0.38947 0.47393 0.46429 0.0
C395 C 0.42037 0.49583 0.48063 0.0
C396 C 0.43295 0.50463 0.36195 0.0
C397 C 0.44226 0.51057 0.4293 0.0
C398 C 0.38021 0.46737 0.39678 0.0
C399 C 0.3345 0.34257 0.16248 0.0
C400 C 0.39759 0.47213 0.27578 0.0
C401 C 0.47999 0.31508 0.14265 0.0
C402 C 0.46201 0.29471 0.19456 0.0
C403 C 0.29459 0.41451 0.25033 0.0
C404 C 0.31263 0.41965 0.88655 0.0
C405 C 0.32641 0.41458 0.70614 0.0
C406 C 0.33272 0.373 0.71413 0.0
C407 C 0.31954 0.37924 0.88932 0.0
C408 C 0.31338 0.44171 0.81916 0.0
C409 C 0.32732 0.35428 0.82992 0.0
C410 C 0.34736 0.48111 0.10546 0.0
C411 C 0.30801 0.43737 0.95483 0.0
H412 H 0.4283 0.50031 0.53304 0.0
H413 H 0.45076 0.51567 0.3225 0.0
H414 H 0.46715 0.52538 0.4416 0.0
H415 H 0.3576 0.44875 0.38431 0.0
H416 H 0.33855 0.3577 0.66701 0.0
H417 H 0.3221 0.36727 0.93763 0.0
H418 H 0.30704 0.47017 0.8333 0.0
H419 H 0.33021 0.32676 0.85383 0.0
Tb420 Tb 0.40471 0.71742 0.95311 0.0
C421 C 0.42514 0.55488 0.84774 0.0
N422 N 0.44403 0.58528 0.82696 0.0
C423 C 0.50005 0.54969 0.81981 0.0
C424 C 0.4434 0.52101 0.85868 0.0
C425 C 0.48091 0.5831 0.81159 0.0
C426 C 0.48123 0.51855 0.84407 0.0
C427 C 0.36685 0.52742 0.88222 0.0
C428 C 0.38712 0.55766 0.85684 0.0
C429 C 0.38549 0.4943 0.89755 0.0
C430 C 0.42331 0.4907 0.88331 0.0
Tb431 Tb 0.40979 0.63802 0.82109 0.0
N432 N 0.37005 0.59004 0.84062 0.0
C433 C 0.32854 0.53151 0.89021 0.0
C434 C 0.33238 0.59132 0.83579 0.0
C435 C 0.31095 0.56239 0.86231 0.0
H436 H 0.49569 0.60731 0.79357 0.0
H437 H 0.28101 0.5643 0.86253 0.0
H438 H 0.30304 0.71632 0.99249 0.0
H439 H 0.51157 0.8492 0.96316 0.0
H440 H 0.31867 0.61451 0.81221 0.0
H441 H 0.31207 0.51054 0.91521 0.0
H442 H 0.48949 0.77544 0.94473 0.0
H443 H 0.5293 0.54809 0.80803 0.0
H444 H 0.37084 0.4706 0.91675 0.0
H445 H 0.43662 0.46415 0.88942 0.0
H446 H 0.2522 0.75946 0.98029 0.0
H447 H 0.49597 0.49273 0.851 0.0
H448 H 0.46372 0.90714 1.00477 0.0
N449 N 0.34687 0.75385 0.96773 0.0
C450 C 0.35196 0.78874 0.98634 0.0
C451 C 0.28001 0.76989 0.97317 0.0
C452 C 0.31842 0.82396 0.97117 0.0
C453 C 0.31027 0.74419 0.9776 0.0
C454 C 0.28395 0.80833 0.96222 0.0
N455 N 0.42819 0.77599 0.9849 0.0
C456 C 0.46933 0.7936 0.96782 0.0
C457 C 0.40787 0.87015 0.03736 0.0
C458 C 0.39405 0.79692 1.01714 0.0
C459 C 0.45484 0.87883 1.01231 0.0
C460 C 0.48397 0.8418 0.97982 0.0
H461 H 0.25972 0.82582 0.95754 0.0
H462 H 0.30162 0.89193 0.97119 0.0
H463 H 0.36874 0.92659 1.01311 0.0
O464 O 0.42642 0.68103 0.02845 0.0
O465 O 0.40377 0.73884 0.8388 0.0
O466 O 0.4301 0.69129 0.77841 0.0
O467 O 0.43041 0.73868 0.04082 0.0
O468 O 0.45858 0.7047 0.90421 0.0
O469 O 0.45914 0.64272 0.88661 0.0
O470 O 0.38601 0.61414 0.73494 0.0
O471 O 0.41493 0.62055 0.92723 0.0
O472 O 0.37947 0.66105 0.98736 0.0
O473 O 0.44146 0.63965 0.73267 0.0
O474 O 0.3563 0.66939 0.82765 0.0
O475 O 0.35257 0.68835 0.93865 0.0
C476 C 0.41514 0.72465 0.7778 0.0
C477 C 0.40677 0.70697 0.13141 0.0
C478 C 0.37904 0.69386 0.30382 0.0
C479 C 0.33926 0.70285 0.28222 0.0
C480 C 0.36761 0.71497 0.11448 0.0
C481 C 0.336 0.71576 0.16374 0.0
C482 C 0.42006 0.6982 0.20327 0.0
C483 C 0.47557 0.67234 0.91067 0.0
C484 C 0.43115 0.70747 0.07201 0.0
C485 C 0.32496 0.87418 0.98251 0.0
C486 C 0.36704 0.89666 1.01418 0.0
C487 C 0.38985 0.6259 0.97417 0.0
C488 C 0.42527 0.59916 0.64279 0.0
C489 C 0.41978 0.6031 0.52251 0.0
C490 C 0.45486 0.58718 0.51482 0.0
C491 C 0.45959 0.58124 0.63652 0.0
C492 C 0.40393 0.6062 0.58602 0.0
C493 C 0.47369 0.57391 0.5719 0.0
C494 C 0.3366 0.67764 0.88228 0.0
C495 C 0.41545 0.62222 0.69957 0.0
H496 H 0.31832 0.70193 0.32283 0.0
H497 H 0.36084 0.71818 0.06252 0.0
H498 H 0.31223 0.72294 0.13113 0.0
H499 H 0.45007 0.6934 0.19784 0.0
H500 H 0.46828 0.58701 0.46566 0.0
H501 H 0.4766 0.57545 0.68015 0.0
H502 H 0.37792 0.62126 0.59121 0.0
H503 H 0.5006 0.56119 0.56652 0.0
Tb504 Tb 0.61672 0.61464 0.21674 0.0
C505 C 0.75869 0.67292 0.04621 0.0
N506 N 0.72355 0.67381 0.06628 0.0
C507 C 0.7261 0.73901 0.02843 0.0
C508 C 0.78713 0.71273 0.04996 0.0
C509 C 0.706 0.70597 0.04593 0.0
C510 C 0.76483 0.74365 0.03971 0.0
C511 C 0.84822 0.62973 0.99593 0.0
C512 C 0.77378 0.63094 0.02148 0.0
C513 C 0.86687 0.67582 1.00932 0.0
C514 C 0.83745 0.71462 0.03543 0.0
Tb515 Tb 0.69982 0.61277 0.09324 0.0
N516 N 0.76025 0.59515 0.06041 0.0
C517 C 0.86581 0.58617 0.02633 0.0
C518 C 0.78535 0.55874 0.08112 0.0
C519 C 0.83529 0.55259 0.0669 0.0
H520 H 0.67607 0.70626 0.04207 0.0
H521 H 0.8477 0.52717 0.08526 0.0
H522 H 0.65071 0.54219 0.29766 0.0
H523 H 0.47967 0.64458 0.1169 0.0
H524 H 0.77141 0.53642 0.10761 0.0
H525 H 0.89537 0.58135 0.0267 0.0
H526 H 0.54285 0.66012 0.15281 0.0
H527 H 0.71038 0.7628 1.01122 0.0
H528 H 0.89654 0.67979 1.00746 0.0
H529 H 0.85054 0.74152 0.03867 0.0
H530 H 0.62787 0.48119 0.33587 0.0
H531 H 0.77755 0.7704 0.03088 0.0
H532 H 0.45538 0.58134 0.13528 0.0
N533 N 0.60163 0.55522 0.24305 0.0
C534 C 0.56651 0.54472 0.22643 0.0
C535 C 0.61068 0.49843 0.30374 0.0
C536 C 0.55264 0.5098 0.24594 0.0
C537 C 0.62355 0.53304 0.28218 0.0
C538 C 0.57531 0.48656 0.28485 0.0
N539 N 0.55699 0.6047 0.18091 0.0
C540 C 0.53395 0.6316 0.15546 0.0
C541 C 0.50685 0.56055 0.17719 0.0
C542 C 0.54381 0.56996 0.19285 0.0
C543 C 0.48397 0.58745 0.14763 0.0
C544 C 0.49755 0.62319 0.13715 0.0
H545 H 0.56536 0.45997 0.30241 0.0
H546 H 0.5049 0.47339 0.24416 0.0
H547 H 0.46485 0.51795 0.18384 0.0
O548 O 0.57051 0.63158 0.27397 0.0
O549 O 0.60828 0.65411 0.13448 0.0
O550 O 0.64051 0.62212 0.05491 0.0
O551 O 0.62539 0.63158 0.31634 0.0
O552 O 0.63656 0.67025 0.19031 0.0
O553 O 0.69777 0.66484 0.15574 0.0
O554 O 0.66497 0.6059 1.00843 0.0
O555 O 0.72053 0.59792 0.20404 0.0
O556 O 0.66966 0.60754 0.27514 0.0
O557 O 0.72049 0.58504 1.00585 0.0
O558 O 0.68558 0.55808 0.13644 0.0
O559 O 0.62346 0.56684 0.1439 0.0
C560 C 0.61253 0.64463 0.07127 0.0
C561 C 0.57797 0.61159 0.38617 0.0
C562 C 0.5943 0.59036 0.49738 0.0
C563 C 0.56888 0.56127 0.49318 0.0
C564 C 0.55147 0.58307 0.38132 0.0
C565 C 0.54737 0.5577 0.4347 0.0
C566 C 0.59841 0.61551 0.4449 0.0
C567 C 0.66988 0.68446 0.18208 0.0
C568 C 0.58999 0.63381 0.32867 0.0
C569 C 0.51613 0.50001 0.22899 0.0
C570 C 0.49336 0.5253 0.19451 0.0
C571 C 0.70579 0.60126 0.26808 0.0
C572 C 0.69665 0.61245 0.90361 0.0
C573 C 0.68135 0.62809 0.72613 0.0
C574 C 0.68804 0.66963 0.73841 0.0
C575 C 0.70312 0.65242 0.91008 0.0
C576 C 0.68841 0.59451 0.83501 0.0
C577 C 0.70135 0.68104 0.85491 0.0
C578 C 0.65179 0.54487 0.12897 0.0
C579 C 0.69117 0.59262 0.96976 0.0
H580 H 0.5657 0.54176 0.5347 0.0
H581 H 0.53484 0.57972 0.3362 0.0
H582 H 0.52818 0.53493 0.4302 0.0
H583 H 0.61888 0.63756 0.4489 0.0
H584 H 0.68567 0.68781 0.69367 0.0
H585 H 0.70735 0.66182 0.95812 0.0
H586 H 0.68407 0.56559 0.84712 0.0
H587 H 0.70732 0.70706 0.88204 0.0
Tb588 Tb 0.60576 0.30885 0.97378 0.0
C589 C 0.63976 0.46149 0.86194 0.0
N590 N 0.60504 0.44801 0.86199 0.0
C591 C 0.58301 0.50408 0.91272 0.0
C592 C 0.64876 0.49432 0.89534 0.0
C593 C 0.57607 0.46938 0.88326 0.0
C594 C 0.61978 0.51591 0.9215 0.0
C595 C 0.70178 0.45628 0.81828 0.0
C596 C 0.66597 0.44224 0.82627 0.0
C597 C 0.7124 0.48682 0.85746 0.0
C598 C 0.68635 0.50398 0.90004 0.0
Tb599 Tb 0.60257 0.38606 0.84201 0.0
N600 N 0.65555 0.41008 0.79749 0.0
C601 C 0.7257 0.43819 0.77343 0.0
C602 C 0.67764 0.39311 0.75056 0.0
C603 C 0.71324 0.40704 0.73774 0.0
H604 H 0.54826 0.45837 0.88199 0.0
H605 H 0.73153 0.39294 0.70276 0.0
H606 H 0.69063 0.3573 0.0249 0.0
H607 H 0.5682 0.14312 0.96242 0.0
H608 H 0.66871 0.36781 0.72641 0.0
H609 H 0.75372 0.44768 0.76697 0.0
H610 H 0.55864 0.21896 0.93614 0.0
H611 H 0.56029 0.52065 0.93178 0.0
H612 H 0.74021 0.49755 0.85427 0.0
H613 H 0.6953 0.52588 0.93284 0.0
H614 H 0.75005 0.34137 0.0674 0.0
H615 H 0.62533 0.54193 0.94682 0.0
H616 H 0.62407 0.11229 0.04691 0.0
N617 N 0.66764 0.30244 0.02252 0.0
C618 C 0.67405 0.26954 0.05118 0.0
C619 C 0.73076 0.31902 0.06077 0.0
C620 C 0.71994 0.25302 0.06396 0.0
C621 C 0.69489 0.32834 0.03572 0.0
C622 C 0.74408 0.28249 0.06958 0.0
N623 N 0.60371 0.24602 1.00592 0.0
C624 C 0.57963 0.21176 0.97305 0.0
C625 C 0.65237 0.17093 0.09143 0.0
C626 C 0.63609 0.24295 0.05999 0.0
C627 C 0.62041 0.14204 0.04607 0.0
C628 C 0.58595 0.16211 0.98964 0.0
H629 H 0.77269 0.27773 0.0835 0.0
H630 H 0.76309 0.19974 0.08993 0.0
H631 H 0.71387 0.13838 0.10309 0.0
O632 O 0.58145 0.34313 0.0465 0.0
O633 O 0.59024 0.28813 0.8624 0.0
O634 O 0.61932 0.3323 0.79726 0.0
O635 O 0.5778 0.28416 0.05786 0.0
O636 O 0.55014 0.32007 0.92676 0.0
O637 O 0.55527 0.3823 0.91244 0.0
O638 O 0.58641 0.41605 0.75672 0.0
O639 O 0.59134 0.40456 0.94508 0.0
O640 O 0.62912 0.36613 1.00245 0.0
O641 O 0.55955 0.36307 0.78368 0.0
O642 O 0.65873 0.36828 0.87592 0.0
O643 O 0.65683 0.30742 0.91334 0.0
C644 C 0.60218 0.30001 0.79968 0.0
C645 C 0.58811 0.32014 0.15822 0.0
C646 C 0.58054 0.3382 0.33652 0.0
C647 C 0.62179 0.34698 0.33747 0.0
C648 C 0.62806 0.32925 0.16335 0.0
C649 C 0.64844 0.3399 0.22713 0.0
C650 C 0.56225 0.32065 0.22007 0.0
C651 C 0.53433 0.35332 0.92577 0.0
C652 C 0.57336 0.31598 0.08787 0.0
C653 C 0.73378 0.20508 0.08411 0.0
C654 C 0.70228 0.16586 0.09767 0.0
C655 C 0.61636 0.40041 0.99207 0.0
C656 C 0.53212 0.39989 0.69632 0.0
C657 C 0.5136 0.39373 0.57991 0.0
C658 C 0.49302 0.42664 0.58521 0.0
C659 C 0.51058 0.43192 0.70336 0.0
C660 C 0.53169 0.37982 0.63664 0.0
C661 C 0.49014 0.44477 0.64774 0.0
C662 C 0.67535 0.33651 0.89022 0.0
C663 C 0.56223 0.39064 0.741 0.0
H664 H 0.63325 0.35513 0.387 0.0
H665 H 0.643 0.3321 0.11777 0.0
H666 H 0.67711 0.34401 0.20929 0.0
H667 H 0.53641 0.3106 0.2014 0.0
H668 H 0.4809 0.43914 0.54042 0.0
H669 H 0.51125 0.44782 0.74988 0.0
H670 H 0.55007 0.35606 0.63163 0.0
H671 H 0.47424 0.47011 0.6517 0.0
Tb672 Tb 0.88085 0.60465 0.59983 0.0
C673 C 0.74951 0.67567 0.77378 0.0
N674 N 0.78419 0.67162 0.75247 0.0
C675 C 0.792 0.73744 0.78211 0.0
C676 C 0.72729 0.71931 0.77115 0.0
C677 C 0.80657 0.70141 0.76774 0.0
C678 C 0.75387 0.747 0.77637 0.0
C679 C 0.65423 0.64544 0.82096 0.0
C680 C 0.72807 0.63579 0.79589 0.0
C681 C 0.64281 0.69403 0.80981 0.0
C682 C 0.67782 0.72844 0.78577 0.0
Tb683 Tb 0.79839 0.60835 0.72356 0.0
N684 N 0.73609 0.59906 0.75508 0.0
C685 C 0.63031 0.60571 0.78806 0.0
C686 C 0.70577 0.56744 0.73187 0.0
C687 C 0.65545 0.56873 0.74551 0.0
H688 H 0.83629 0.69777 0.76824 0.0
H689 H 0.63934 0.54597 0.72549 0.0
H690 H 0.86319 0.51952 0.54541 0.0
H691 H 0.00809 0.66701 0.6884 0.0
H692 H 0.71619 0.54393 0.70374 0.0
H693 H 0.60035 0.60545 0.78747 0.0
H694 H 0.94755 0.6678 0.63237 0.0
H695 H 0.81151 0.75935 0.79345 0.0
H696 H 0.61406 0.70237 0.8115 0.0
H697 H 0.66883 0.757 0.7828 0.0
H698 H 0.88973 0.4571 0.56518 0.0
H699 H 0.7453 0.77548 0.78328 0.0
H700 H 0.03889 0.6075 0.71589 0.0
N701 N 0.90566 0.54666 0.60082 0.0
C702 C 0.93969 0.5438 0.63006 0.0
C703 C 0.90404 0.48121 0.58348 0.0
C704 C 0.9559 0.50898 0.64206 0.0
C705 C 0.88917 0.51649 0.57216 0.0
C706 C 0.93673 0.47732 0.62094 0.0
N707 N 0.94103 0.60896 0.63634 0.0
C708 C 0.95992 0.64149 0.64613 0.0
C709 C 0.99329 0.57432 0.67829 0.0
C710 C 0.95774 0.57598 0.64918 0.0
C711 C 0.01169 0.60752 0.69268 0.0
C712 C 0.99476 0.64118 0.67655 0.0
H713 H 0.94745 0.44988 0.63167 0.0
H714 H 1.00303 0.48042 0.68594 0.0
H715 H 0.0363 0.53753 0.71386 0.0
O716 O 0.92581 0.61487 0.53491 0.0
O717 O 0.88764 0.64789 0.67623 0.0
O718 O 0.85735 0.61906 0.76179 0.0
O719 O 0.86985 0.61388 0.49719 0.0
O720 O 0.85963 0.66093 0.61499 0.0
O721 O 0.79956 0.65872 0.65792 0.0
O722 O 0.83218 0.59582 0.80745 0.0
O723 O 0.77683 0.59986 0.6121 0.0
O724 O 0.82858 0.58966 0.5433 0.0
O725 O 0.774 0.58191 0.80925 0.0
O726 O 0.81072 0.55216 0.68441 0.0
O727 O 0.87249 0.56135 0.68021 0.0
C728 C 0.88524 0.64041 0.74083 0.0
C729 C 0.91541 0.58811 0.42919 0.0
C730 C 0.90193 0.56628 0.31753 0.0
C731 C 0.92619 0.53646 0.32559 0.0
C732 C 0.9404 0.55854 0.43866 0.0
C733 C 0.94587 0.53282 0.38637 0.0
C734 C 0.89681 0.59187 0.36864 0.0
C735 C 0.82722 0.67654 0.62743 0.0
C736 C 0.90498 0.614 0.48191 0.0
C737 C 0.99019 0.50697 0.67541 0.0
C738 C 0.00912 0.5396 0.69205 0.0
C739 C 0.79204 0.59476 0.54915 0.0
C740 C 0.80117 0.60513 0.91203 0.0
C741 C 0.81888 0.61478 0.09011 0.0
C742 C 0.81859 0.65717 0.08006 0.0
C743 C 0.80116 0.64579 0.90739 0.0
C744 C 0.8066 0.58499 0.9795 0.0
C745 C 0.80699 0.67261 0.96424 0.0
C746 C 0.84443 0.53908 0.69394 0.0
C747 C 0.80411 0.58544 0.84547 0.0
H748 H 0.93038 0.51704 0.28466 0.0
H749 H 0.95519 0.55511 0.48597 0.0
H750 H 0.96523 0.5102 0.39279 0.0
H751 H 0.87756 0.61478 0.36138 0.0
H752 H 0.82366 0.67398 0.12563 0.0
H753 H 0.80097 0.65705 0.85936 0.0
H754 H 0.80629 0.55622 0.96556 0.0
H755 H 0.80532 0.69971 0.93834 0.0
Tb756 Tb 0.60004 0.2189 0.3374 0.0
C757 C 0.56123 0.06429 0.49499 0.0
N758 N 0.54729 0.09875 0.48384 0.0
C759 C 0.4857 0.07642 0.50491 0.0
C760 C 0.53778 0.03456 0.51245 0.0
C761 C 0.50995 0.10519 0.4886 0.0
C762 C 0.49967 0.04106 0.51723 0.0
C763 C 0.61498 0.02477 0.51119 0.0
C764 C 0.59942 0.05966 0.49627 0.0
C765 C 0.59155 0.99467 0.52485 0.0
C766 C 0.55322 0.99986 0.52776 0.0
Tb767 Tb 0.59064 0.14456 0.47591 0.0
N768 N 0.62126 0.08993 0.48785 0.0
C769 C 0.65356 0.02171 0.51587 0.0
C770 C 0.65879 0.08757 0.49652 0.0
C771 C 0.67557 0.0533 0.50883 0.0
H772 H 0.49915 0.13302 0.48347 0.0
H773 H 0.70535 0.05141 0.5143 0.0
H774 H 0.70289 0.22088 0.30743 0.0
H775 H 0.49111 0.3489 0.31378 0.0
H776 H 0.67587 0.11204 0.49372 0.0
H777 H 0.66652 0.99552 0.52798 0.0
H778 H 0.51368 0.27576 0.33853 0.0
H779 H 0.45636 0.08164 0.50978 0.0
H780 H 0.60268 0.96753 0.53534 0.0
H781 H 0.53577 0.97673 0.5418 0.0
H782 H 0.75212 0.26554 0.32337 0.0
H783 H 0.48072 0.01914 0.53076 0.0
H784 H 0.53661 0.40629 0.26291 0.0
N785 N 0.65747 0.25695 0.32856 0.0
C786 C 0.65178 0.29171 0.30909 0.0
C787 C 0.72389 0.27511 0.32806 0.0
C788 C 0.68399 0.32805 0.32449 0.0
C789 C 0.69453 0.24849 0.32167 0.0
C790 C 0.7186 0.3135 0.33704 0.0
N791 N 0.57598 0.27691 0.30376 0.0
C792 C 0.53406 0.29386 0.31577 0.0
C793 C 0.59567 0.3707 0.24576 0.0
C794 C 0.61064 0.29813 0.2736 0.0
C795 C 0.54767 0.37851 0.26479 0.0
C796 C 0.51879 0.34149 0.29834 0.0
H797 H 0.74222 0.33173 0.34259 0.0
H798 H 0.69943 0.39631 0.3199 0.0
H799 H 0.63333 0.42831 0.26706 0.0
O800 O 0.58669 0.18125 0.25883 0.0
O801 O 0.60283 0.24105 0.45007 0.0
O802 O 0.56637 0.19877 0.50062 0.0
O803 O 0.57691 0.23866 0.24582 0.0
O804 O 0.54357 0.20706 0.37682 0.0
O805 O 0.54832 0.14542 0.39375 0.0
O806 O 0.62032 0.15143 0.56539 0.0
O807 O 0.61582 0.11521 0.39134 0.0
O808 O 0.61769 0.15948 0.30445 0.0
O809 O 0.56118 0.13877 0.56673 0.0
O810 O 0.64563 0.17251 0.46656 0.0
O811 O 0.65243 0.19142 0.35579 0.0
C812 C 0.58665 0.22874 0.50812 0.0
C813 C 0.60665 0.209 0.15805 0.0
C814 C 0.64222 0.19567 0.99097 0.0
C815 C 0.68013 0.20771 1.01716 0.0
C816 C 0.64432 0.21978 0.17955 0.0
C817 C 0.67768 0.22227 0.13472 0.0
C818 C 0.59694 0.19816 0.0851 0.0
C819 C 0.52889 0.17364 0.37082 0.0
C820 C 0.58056 0.20752 0.21484 0.0
C821 C 0.67672 0.37782 0.30834 0.0
C822 C 0.6352 0.3986 0.27064 0.0
C823 C 0.62232 0.12429 0.32782 0.0
C824 C 0.59873 0.1119 0.65103 0.0
C825 C 0.62554 0.10546 0.76049 0.0
C826 C 0.6016 0.07584 0.77578 0.0
C827 C 0.57363 0.08304 0.66529 0.0
C828 C 0.62755 0.11912 0.69504 0.0
C829 C 0.57662 0.06352 0.72647 0.0
C830 C 0.66643 0.17847 0.41243 0.0
C831 C 0.59174 0.14072 0.60125 0.0
H832 H 0.70269 0.20785 0.9795 0.0
H833 H 0.64876 0.22304 0.23201 0.0
H834 H 0.69953 0.23147 0.16994 0.0
H835 H 0.56732 0.19158 0.08626 0.0
H836 H 0.59976 0.06484 0.8269 0.0
H837 H 0.55063 0.07715 0.63197 0.0
H838 H 0.64635 0.14201 0.68434 0.0
H839 H 0.5571 0.04164 0.73833 0.0
Tb840 Tb 0.13502 0.41257 0.57299 0.0
C841 C 0.2769 0.34838 0.75367 0.0
N842 N 0.24216 0.3438 0.73313 0.0
C843 C 0.2557 0.27661 0.74657 0.0
C844 C 0.31101 0.31325 0.74273 0.0
C845 C 0.23097 0.30768 0.745 0.0
C846 C 0.29434 0.27902 0.73742 0.0
C847 C 0.36044 0.40355 0.7968 0.0
C848 C 0.28658 0.39153 0.77911 0.0
C849 C 0.3854 0.36104 0.77872 0.0
C850 C 0.36142 0.31861 0.75284 0.0
Tb851 Tb 0.20806 0.40251 0.71256 0.0
N852 N 0.26681 0.42532 0.74264 0.0
C853 C 0.37062 0.44916 0.76562 0.0
C854 C 0.2858 0.46505 0.72016 0.0
C855 C 0.33458 0.47816 0.72951 0.0
H856 H 0.20222 0.30145 0.75534 0.0
H857 H 0.3428 0.50501 0.71008 0.0
H858 H 0.12689 0.50569 0.57702 0.0
H859 H 0.03654 0.30315 0.53239 0.0
H860 H 0.26817 0.48514 0.69525 0.0
H861 H 0.39919 0.45775 0.76047 0.0
H862 H 0.09834 0.32927 0.55692 0.0
H863 H 0.24407 0.24938 0.75538 0.0
H864 H 0.41534 0.3617 0.77696 0.0
H865 H 0.37835 0.29435 0.74418 0.0
H866 H 0.07581 0.55095 0.56352 0.0
H867 H 0.31106 0.25413 0.73602 0.0
H868 H 0.98393 0.34507 0.5133 0.0
N869 N 0.09135 0.45853 0.56889 0.0
C870 C 0.05676 0.44647 0.55356 0.0
C871 C 0.07076 0.52171 0.55864 0.0
C872 C 0.02851 0.47173 0.53622 0.0
C873 C 0.09893 0.49583 0.56978 0.0
C874 C 0.03579 0.50967 0.53938 0.0
N875 N 0.07925 0.38507 0.5589 0.0
C876 C 0.07493 0.34763 0.55158 0.0
C877 C 0.0153 0.3951 0.53125 0.0
C878 C 0.05047 0.4086 0.5491 0.0
C879 C 0.01026 0.3567 0.52685 0.0
C880 C 0.04013 0.33283 0.53715 0.0
H881 H 0.01453 0.52991 0.52778 0.0
H882 H 0.97252 0.47738 0.49932 0.0
H883 H 0.95958 0.4114 0.50317 0.0
O884 O 0.13337 0.38597 0.47923 0.0
O885 O 0.10534 0.38693 0.65706 0.0
O886 O 0.14835 0.38697 0.74569 0.0
O887 O 0.13673 0.44637 0.48706 0.0
O888 O 0.16213 0.35684 0.57991 0.0
O889 O 0.18062 0.35032 0.69093 0.0
O890 O 0.17117 0.41649 0.7917 0.0
O891 O 0.23135 0.40029 0.59968 0.0
O892 O 0.18934 0.43678 0.5494 0.0
O893 O 0.22845 0.42814 0.80133 0.0
O894 O 0.19557 0.45884 0.67297 0.0
O895 O 0.13429 0.45111 0.65955 0.0
C896 C 0.11363 0.38173 0.72133 0.0
C897 C 0.10019 0.42142 0.39965 0.0
C898 C 0.08842 0.40517 0.28533 0.0
C899 C 0.06635 0.43676 0.27604 0.0
C900 C 0.07942 0.45419 0.39146 0.0
C901 C 0.06028 0.46047 0.33087 0.0
C902 C 0.09946 0.39465 0.34974 0.0
C903 C 0.16852 0.33597 0.63411 0.0
C904 C 0.13023 0.41796 0.44826 0.0
C905 C 0.99416 0.45841 0.51481 0.0
C906 C 0.98705 0.4204 0.5154 0.0
C907 C 0.21939 0.41697 0.54161 0.0
C908 C 0.19944 0.40183 0.89495 0.0
C909 C 0.18593 0.37603 0.0684 0.0
C910 C 0.19598 0.33624 0.04882 0.0
C911 C 0.20796 0.36282 0.88019 0.0
C912 C 0.18981 0.41579 0.96609 0.0
C913 C 0.20941 0.33192 0.93074 0.0
C914 C 0.1617 0.47206 0.67998 0.0
C915 C 0.19764 0.42494 0.83368 0.0
H916 H 0.05756 0.44512 0.22571 0.0
H917 H 0.08017 0.47597 0.42884 0.0
H918 H 0.04471 0.48583 0.32386 0.0
H919 H 0.11691 0.3702 0.3552 0.0
H920 H 0.1954 0.3157 0.09028 0.0
H921 H 0.2089 0.35538 0.82877 0.0
H922 H 0.18534 0.44533 0.96033 0.0
H923 H 0.21697 0.30789 0.89918 0.0
Tb924 Tb 0.40606 0.80904 0.31365 0.0
C925 C 0.45277 0.95876 0.40789 0.0
N926 N 0.46054 0.92336 0.42551 0.0
C927 C 0.52548 0.93728 0.42442 0.0
C928 C 0.48112 0.98349 0.38887 0.0
C929 C 0.49609 0.91408 0.44327 0.0
C930 C 0.51789 0.97143 0.39349 0.0
C931 C 0.40746 0.00769 0.39836 0.0
C932 C 0.41653 0.9709 0.41398 0.0
C933 C 0.4353 0.03222 0.3774 0.0
C934 C 0.47198 0.02001 0.37087 0.0
Tb935 Tb 0.4093 0.8868 0.43978 0.0
N936 N 0.39022 0.94666 0.43529 0.0
C937 C 0.37043 0.01844 0.40195 0.0
C938 C 0.35451 0.95797 0.44577 0.0
C939 C 0.34381 0.99373 0.42711 0.0
H940 H 0.50189 0.8875 0.46649 0.0
H941 H 0.31502 1.00174 0.43088 0.0
H942 H 0.3193 0.85149 0.26614 0.0
H943 H 0.45777 0.6472 0.32395 0.0
H944 H 0.33392 0.93847 0.46371 0.0
H945 H 0.36258 0.04567 0.38437 0.0
H946 H 0.46266 0.72398 0.3452 0.0
H947 H 0.55383 0.92872 0.43311 0.0
H948 H 0.42863 0.06093 0.3691 0.0
H949 H 0.49335 0.03953 0.35622 0.0
H950 H 0.25862 0.83128 0.22771 0.0
H951 H 0.54058 0.9894 0.37863 0.0
H952 H 0.40083 0.61123 0.24943 0.0
N953 N 0.34421 0.79806 0.27045 0.0
C954 C 0.33937 0.76441 0.24412 0.0
C955 C 0.27953 0.81025 0.23613 0.0
C956 C 0.29453 0.7446 0.23835 0.0
C957 C 0.3154 0.82223 0.25785 0.0
C958 C 0.26837 0.77255 0.23268 0.0
N959 N 0.4129 0.74663 0.2808 0.0
C960 C 0.44086 0.71474 0.31159 0.0
C961 C 0.36658 0.66706 0.20628 0.0
C962 C 0.37882 0.74039 0.23154 0.0
C963 C 0.40234 0.64118 0.2483 0.0
C964 C 0.43756 0.66447 0.29849 0.0
H965 H 0.23985 0.76563 0.22152 0.0
H966 H 0.25442 0.68806 0.22087 0.0
H967 H 0.30725 0.63009 0.20454 0.0
O968 O 0.42653 0.84547 0.23907 0.0
O969 O 0.42105 0.78798 0.42488 0.0
O970 O 0.39427 0.83347 0.48941 0.0
O971 O 0.43345 0.78628 0.22799 0.0
O972 O 0.46215 0.81921 0.35713 0.0
O973 O 0.4514 0.88005 0.35766 0.0
O974 O 0.40084 0.91477 0.53114 0.0
O975 O 0.36871 0.90179 0.36357 0.0
O976 O 0.39232 0.86788 0.27596 0.0
O977 O 0.43718 0.86603 0.52334 0.0
O978 O 0.35112 0.86803 0.4284 0.0
O979 O 0.35294 0.81099 0.37189 0.0
C980 C 0.4091 0.80013 0.48706 0.0
C981 C 0.4191 0.82154 0.1282 0.0
C982 C 0.4212 0.83622 0.94772 0.0
C983 C 0.37966 0.84392 0.95038 0.0
C984 C 0.37881 0.82966 0.12626 0.0
C985 C 0.35645 0.83866 0.06378 0.0
C986 C 0.44348 0.82169 0.06395 0.0
C987 C 0.47555 0.85301 0.35015 0.0
C988 C 0.43537 0.81844 0.19764 0.0
C989 C 0.28342 0.69551 0.2228 0.0
C990 C 0.31704 0.65839 0.20711 0.0
C991 C 0.37406 0.89765 0.29871 0.0
C992 C 0.4523 0.90966 0.60386 0.0
C993 C 0.48225 0.90439 0.71179 0.0
C994 C 0.49442 0.9413 0.70602 0.0
C995 C 0.46471 0.94621 0.59663 0.0
C996 C 0.46331 0.88828 0.65828 0.0
C997 C 0.48668 0.96177 0.64748 0.0
C998 C 0.33474 0.83752 0.40538 0.0
C999 C 0.42463 0.89293 0.56128 0.0
H1000 H 0.36652 0.85083 0.90153 0.0
H1001 H 0.36487 0.83239 0.17319 0.0
H1002 H 0.32824 0.84249 0.08409 0.0
H1003 H 0.47121 0.81475 0.08216 0.0
H1004 H 0.50651 0.95524 0.74886 0.0
H1005 H 0.4561 0.96281 0.55379 0.0
H1006 H 0.45184 0.8605 0.66349 0.0
H1007 H 0.49533 0.99044 0.64406 0.0
Tb1008 Tb 0.88054 0.91002 0.72169 0.0
C1009 C 0.76935 0.83807 0.50322 0.0
N1010 N 0.80129 0.84577 0.53419 0.0
C1011 C 0.82174 0.78305 0.49849 0.0
C1012 C 0.75583 0.79138 0.48719 0.0
C1013 C 0.82842 0.81932 0.5245 0.0
C1014 C 0.78633 0.76844 0.48477 0.0
C1015 C 0.6693 0.85378 0.4669 0.0
C1016 C 0.74007 0.87437 0.49835 0.0
C1017 C 0.66767 0.80387 0.45631 0.0
C1018 C 0.70894 0.77485 0.46643 0.0
Tb1019 Tb 0.80329 0.90668 0.58884 0.0
N1020 N 0.74103 0.90533 0.55537 0.0
C1021 C 0.63849 0.8821 0.51593 0.0
C1022 C 0.70539 0.92582 0.59116 0.0
C1023 C 0.65636 0.91621 0.57524 0.0
H1024 H 0.85602 0.82378 0.54234 0.0
H1025 H 0.63652 0.93086 0.60625 0.0
H1026 H 0.90837 0.99589 0.74423 0.0
H1027 H 0.95765 0.78135 0.73765 0.0
H1028 H 0.71125 0.94595 0.63028 0.0
H1029 H 0.60913 0.87612 0.51569 0.0
H1030 H 0.90351 0.82125 0.76051 0.0
H1031 H 0.84514 0.7644 0.49453 0.0
H1032 H 0.64104 0.79053 0.45055 0.0
H1033 H 0.70545 0.74534 0.45923 0.0
H1034 H 0.96776 0.02979 0.74863 0.0
H1035 H 0.78317 0.73961 0.47088 0.0
H1036 H 0.01627 0.80923 0.69808 0.0
N1037 N 0.93333 0.94399 0.72175 0.0
C1038 C 0.96514 0.92491 0.71399 0.0
C1039 C 0.9674 1.00042 0.73748 0.0
C1040 C 0.99962 0.94298 0.7154 0.0
C1041 C 0.93381 0.98131 0.73329 0.0
C1042 C 1.00051 0.98093 0.7301 0.0
N1043 N 0.92998 0.87044 0.72492 0.0
C1044 C 0.92853 0.83354 0.74036 0.0
C1045 C 0.99542 0.86562 0.70247 0.0
C1046 C 0.96314 0.88672 0.71196 0.0
C1047 C 0.99266 0.82693 0.70702 0.0
C1048 C 0.95942 0.81096 0.729 0.0
H1049 H 0.0265 0.99538 0.73675 0.0
H1050 H 0.05883 0.93539 0.7038 0.0
H1051 H 0.05408 0.86974 0.6786 0.0
O1052 O 0.90033 0.90412 0.82045 0.0
O1053 O 0.90106 0.92138 0.62001 0.0
O1054 O 0.86129 0.88551 0.56053 0.0
O1055 O 0.85903 0.94639 0.79406 0.0
O1056 O 0.86202 0.85341 0.68754 0.0
O1057 O 0.80127 0.85566 0.64825 0.0
O1058 O 0.837 0.93704 0.52226 0.0
O1059 O 0.78293 0.92158 0.70041 0.0
O1060 O 0.82672 0.8904 0.76112 0.0
O1061 O 0.77773 0.93592 0.50807 0.0
O1062 O 0.80988 0.9604 0.64188 0.0
O1063 O 0.87182 0.96044 0.65827 0.0
C1064 C 0.89583 0.89751 0.57136 0.0
C1065 C 0.89873 0.95885 0.88507 0.0
C1066 C 0.89327 0.99805 0.98344 0.0
C1067 C 0.93078 0.00817 0.97589 0.0
C1068 C 0.93705 0.96543 0.88335 0.0
C1069 C 0.95255 0.99192 0.92587 0.0
C1070 C 0.87693 0.97562 0.93418 0.0
C1071 C 0.83021 0.83689 0.67067 0.0
C1072 C 0.88048 0.93224 0.8412 0.0
C1073 C 0.03184 0.92232 0.70391 0.0
C1074 C 0.0293 0.88416 0.69255 0.0
C1075 C 0.79531 0.90884 0.76194 0.0
C1076 C 0.81564 0.93367 0.40973 0.0
C1077 C 0.83177 0.94942 0.23251 0.0
C1078 C 0.84497 0.90939 0.22697 0.0
C1079 C 0.82899 0.89496 0.40028 0.0
C1080 C 0.8131 0.96206 0.35117 0.0
C1081 C 0.84174 0.87832 0.33417 0.0
C1082 C 0.84159 0.97866 0.64169 0.0
C1083 C 0.80954 0.94474 0.48116 0.0
H1084 H 0.94433 0.02518 1.01347 0.0
H1085 H 0.95508 0.95 0.85013 0.0
H1086 H 0.98192 0.99787 0.92333 0.0
H1087 H 0.84819 0.96708 0.93872 0.0
H1088 H 0.85405 0.90055 0.17613 0.0
H1089 H 0.83208 0.87787 0.44406 0.0
H1090 H 0.80321 0.98779 0.37513 0.0
H1091 H 0.84899 0.84966 0.3485 0.0
Tb1092 Tb 0.89817 0.20796 0.4725 0.0
C1093 C 0.96669 0.07042 0.36967 0.0
N1094 N 0.95955 0.10396 0.34067 0.0
C1095 C 0.02323 0.11072 0.31034 0.0
C1096 C 1.00307 0.05696 0.37474 0.0
C1097 C 0.98641 0.12244 0.30537 0.0
C1098 C 0.03161 0.07908 0.34859 0.0
C1099 C 0.94384 0.01662 0.43058 0.0
C1100 C 0.93762 0.05098 0.39833 0.0
C1101 C 0.98007 1.00287 0.43563 0.0
C1102 C 0.0098 0.02362 0.40988 0.0
Tb1103 Tb 0.90021 0.12438 0.3507 0.0
N1104 N 0.90305 0.06539 0.39296 0.0
C1105 C 0.91349 0.99749 0.45747 0.0
C1106 C 0.87309 0.04511 0.41326 0.0
C1107 C 0.87808 0.01202 0.44859 0.0
H1108 H 0.97977 0.14785 0.27877 0.0
H1109 H 0.85438 0.99784 0.46796 0.0
H1110 H 0.81476 0.15845 0.52479 0.0
H1111 H 0.9309 0.3719 0.44225 0.0
H1112 H 0.84524 0.05481 0.40344 0.0
H1113 H 0.91692 0.97136 0.48395 0.0
H1114 H 0.94459 0.29665 0.43047 0.0
H1115 H 0.04525 0.12712 0.28808 0.0
H1116 H 0.9854 0.97645 0.45996 0.0
H1117 H 0.03776 0.01334 0.41653 0.0
H1118 H 0.75432 0.17329 0.5683 0.0
H1119 H 0.0602 0.07298 0.36025 0.0
H1120 H 0.87308 0.40414 0.51977 0.0
N1121 N 0.83535 0.2137 0.51617 0.0
C1122 C 0.8279 0.24705 0.542 0.0
C1123 C 0.77292 0.19606 0.5571 0.0
C1124 C 0.78152 0.26267 0.54988 0.0
C1125 C 0.80908 0.18725 0.53217 0.0
C1126 C 0.75848 0.23256 0.5609 0.0
N1127 N 0.89893 0.27092 0.50054 0.0
C1128 C 0.92303 0.30447 0.4658 0.0
C1129 C 0.84658 0.34696 0.57246 0.0
C1130 C 0.86515 0.27489 0.55102 0.0
C1131 C 0.8788 0.37506 0.52623 0.0
C1132 C 0.915 0.3541 0.47534 0.0
H1133 H 0.72984 0.23695 0.57502 0.0
H1134 H 0.73666 0.31552 0.56681 0.0
H1135 H 0.78418 0.37839 0.57585 0.0
O1136 O 0.92439 0.1769 0.5491 0.0
O1137 O 0.91126 0.22759 0.36009 0.0
O1138 O 0.90816 0.17556 0.29027 0.0
O1139 O 0.92595 0.23642 0.55209 0.0
O1140 O 0.95211 0.19959 0.42269 0.0
O1141 O 0.94707 0.13727 0.42207 0.0
O1142 O 0.88956 0.07847 0.28819 0.0
O1143 O 0.86 0.11747 0.43234 0.0
O1144 O 0.88989 0.14951 0.51488 0.0
O1145 O 0.88732 0.13402 0.2488 0.0
O1146 O 0.84344 0.14407 0.37133 0.0
O1147 O 0.84602 0.20473 0.41232 0.0
C1148 C 0.9108 0.21189 0.2966 0.0
C1149 C 0.91684 0.20411 0.65711 0.0
C1150 C 0.91742 0.18453 0.83602 0.0
C1151 C 0.87579 0.17749 0.83153 0.0
C1152 C 0.87661 0.19662 0.65816 0.0
C1153 C 0.85376 0.1863 0.71872 0.0
C1154 C 0.94093 0.20243 0.72215 0.0
C1155 C 0.96798 0.16709 0.43032 0.0
C1156 C 0.93204 0.20601 0.58646 0.0
C1157 C 0.76617 0.31077 0.56309 0.0
C1158 C 0.79647 0.35108 0.5743 0.0
C1159 C 0.86939 0.12064 0.496 0.0
C1160 C 0.91874 0.09054 0.18362 0.0
C1161 C 0.9529 0.11091 0.08469 0.0
C1162 C 0.97802 0.08168 0.09328 0.0
C1163 C 0.94405 0.06119 0.19237 0.0
C1164 C 0.92339 0.11512 0.12949 0.0
C1165 C 0.97358 0.05694 0.14716 0.0
C1166 C 0.82773 0.17654 0.3843 0.0
C1167 C 0.89015 0.09898 0.23408 0.0
H1168 H 0.86205 0.16942 0.87929 0.0
H1169 H 0.86346 0.19361 0.61144 0.0
H1170 H 0.82573 0.1833 0.69713 0.0
H1171 H 0.96852 0.21145 0.70656 0.0
H1172 H 0.99992 0.07711 0.0566 0.0
H1173 H 0.94134 0.04185 0.23422 0.0
H1174 H 0.90336 0.13711 0.12102 0.0
H1175 H 0.99265 0.03406 0.15279 0.0
Tb1176 Tb 0.12771 0.09444 0.68797 0.0
C1177 C 0.25034 0.17442 0.50726 0.0
N1178 N 0.21579 0.16899 0.52767 0.0
C1179 C 0.20635 0.23453 0.49589 0.0
C1180 C 0.27166 0.2186 0.50842 0.0
C1181 C 0.19267 0.19819 0.51191 0.0
C1182 C 0.24425 0.24531 0.50128 0.0
C1183 C 0.34454 0.14629 0.4519 0.0
C1184 C 0.27179 0.13562 0.48379 0.0
C1185 C 0.35571 0.19509 0.46248 0.0
C1186 C 0.32073 0.22888 0.48992 0.0
Tb1187 Tb 0.20415 0.10559 0.56441 0.0
N1188 N 0.2654 0.09878 0.52571 0.0
C1189 C 0.36977 0.10683 0.48226 0.0
C1190 C 0.29667 0.06744 0.54591 0.0
C1191 C 0.34639 0.06944 0.52706 0.0
H1192 H 0.16301 0.19435 0.51438 0.0
H1193 H 0.3634 0.04696 0.54586 0.0
H1194 H 0.1093 1.00238 0.66663 0.0
H1195 H 0.04054 0.20999 0.70498 0.0
H1196 H 0.2874 0.04378 0.57523 0.0
H1197 H 0.39963 0.10702 0.47964 0.0
H1198 H 0.08991 0.1704 0.75351 0.0
H1199 H 0.18622 0.25592 0.48462 0.0
H1200 H 0.38428 0.20384 0.45832 0.0
H1201 H 0.32925 0.2576 0.49189 0.0
H1202 H 0.06209 0.96739 0.60174 0.0
H1203 H 0.25203 0.27392 0.49266 0.0
H1204 H 0.99498 0.18183 0.62597 0.0
N1205 N 0.08248 0.05444 0.65154 0.0
C1206 C 0.04931 0.07053 0.64116 0.0
C1207 C 0.05821 0.99654 0.61204 0.0
C1208 C 0.02038 0.05147 0.60856 0.0
C1209 C 0.08525 0.01665 0.64707 0.0
C1210 C 0.02572 0.01426 0.59171 0.0
N1211 N 0.07205 0.12249 0.69985 0.0
C1212 C 0.06848 0.15803 0.7227 0.0
C1213 C 0.01335 0.1263 0.64362 0.0
C1214 C 0.04442 0.10621 0.66394 0.0
C1215 C 0.0142 0.16454 0.65274 0.0
C1216 C 0.04084 0.18049 0.69504 0.0
H1217 H 1.00411 0.99836 0.5675 0.0
H1218 H 0.9655 0.05651 0.56642 0.0
H1219 H 0.96042 0.12354 0.59348 0.0
O1220 O 0.10057 0.08317 0.77976 0.0
O1221 O 0.11015 0.13726 0.61765 0.0
O1222 O 0.14552 0.11963 0.52802 0.0
O1223 O 0.15016 0.05133 0.74491 0.0
O1224 O 0.14614 0.15361 0.6901 0.0
O1225 O 0.19896 0.15795 0.6217 0.0
O1226 O 0.22583 0.07983 0.47697 0.0
O1227 O 0.2258 0.09245 0.67478 0.0
O1228 O 0.17802 0.11219 0.74449 0.0
O1229 O 0.1666 0.08489 0.49241 0.0
O1230 O 0.19876 0.04889 0.60797 0.0
O1231 O 0.13883 0.05829 0.60067 0.0
C1232 C 0.11578 0.13687 0.55278 0.0
C1233 C 0.12018 0.03092 0.84692 0.0
C1234 C 0.15121 0.01042 0.94749 0.0
C1235 C 0.11721 0.99838 0.97451 0.0
C1236 C 0.08604 0.01904 0.87273 0.0
C1237 C 0.08479 1.00159 0.93596 0.0
C1238 C 0.1528 0.02308 0.88096 0.0
C1239 C 0.1728 0.17324 0.65998 0.0
C1240 C 0.12248 0.05445 0.78796 0.0
C1241 C 0.98754 0.07038 0.59355 0.0
C1242 C 0.98446 0.10819 0.60952 0.0
C1243 C 0.21321 0.10242 0.7377 0.0
C1244 C 0.18925 0.09679 0.38321 0.0
C1245 C 0.19047 0.09553 0.25053 0.0
C1246 C 0.17635 0.13392 0.26517 0.0
C1247 C 0.17814 0.13315 0.3848 0.0
C1248 C 0.19646 0.07941 0.32045 0.0
C1249 C 0.17209 0.15162 0.32657 0.0
C1250 C 0.1659 0.03406 0.59926 0.0
C1251 C 0.19314 0.07773 0.44896 0.0
H1252 H 0.11522 0.98971 0.02706 0.0
H1253 H 0.06059 0.02421 0.84513 0.0
H1254 H 0.05841 0.99317 0.95706 0.0
H1255 H 0.179 0.03306 0.8606 0.0
H1256 H 0.16702 0.15403 0.23 0.0
H1257 H 0.17269 0.14733 0.43106 0.0
H1258 H 0.20777 0.05232 0.32913 0.0
H1259 H 0.16242 0.1801 0.32897 0.0
Tb1260 Tb 0.10233 0.79695 0.46626 0.0
C1261 C 0.08016 0.95057 0.30394 0.0
N1262 N 0.06164 0.91795 0.30353 0.0
C1263 C 0.00551 0.94947 0.27294 0.0
C1264 C 0.06249 0.98378 0.2862 0.0
C1265 C 0.02435 0.91698 0.29088 0.0
C1266 C 0.02496 0.98286 0.26869 0.0
C1267 C 0.1354 0.98422 0.33538 0.0
C1268 C 0.1173 0.9507 0.32149 0.0
C1269 C 0.11732 0.01767 0.32042 0.0
C1270 C 0.08275 0.01683 0.28819 0.0
Tb1271 Tb 0.09797 0.86746 0.3219 0.0
N1272 N 0.13529 0.91794 0.32752 0.0
C1273 C 0.17173 0.98265 0.36012 0.0
C1274 C 0.17273 0.91743 0.33618 0.0
C1275 C 0.1913 0.94945 0.35638 0.0
H1276 H 0.00951 0.89091 0.2921 0.0
H1277 H 0.22054 0.94857 0.36854 0.0
H1278 H 0.20486 0.78623 0.48141 0.0
H1279 H 0.9826 0.67716 0.5016 0.0
H1280 H 0.18836 0.89286 0.32693 0.0
H1281 H 0.18532 0.00675 0.37985 0.0
H1282 H 0.01119 0.74825 0.47577 0.0
H1283 H 0.97622 0.94875 0.2614 0.0
H1284 H 0.13086 0.04401 0.32825 0.0
H1285 H 0.07158 0.04184 0.26616 0.0
H1286 H 0.24883 0.73892 0.44978 0.0
H1287 H 0.01037 0.00802 0.2554 0.0
H1288 H 0.02543 0.61475 0.5423 0.0
N1289 N 0.15584 0.75434 0.47009 0.0
C1290 C 0.1485 0.72062 0.49376 0.0
C1291 C 0.21996 0.7313 0.4545 0.0
C1292 C 0.17694 0.68191 0.4737 0.0
C1293 C 0.19347 0.75998 0.46685 0.0
C1294 C 0.2113 0.69333 0.45152 0.0
N1295 N 0.07398 0.74146 0.50535 0.0
C1296 C 0.03049 0.72811 0.4959 0.0
C1297 C 0.0872 0.64565 0.55791 0.0
C1298 C 0.10739 0.71711 0.53251 0.0
C1299 C 0.03831 0.64184 0.54191 0.0
C1300 C 0.01163 0.6816 0.5124 0.0
H1301 H 0.23268 0.67316 0.44071 0.0
H1302 H 0.18628 0.61274 0.47253 0.0
H1303 H 0.1197 0.5856 0.52736 0.0
O1304 O 0.09373 0.83464 0.54726 0.0
O1305 O 0.10553 0.77175 0.35516 0.0
O1306 O 0.0713 0.81426 0.30099 0.0
O1307 O 0.07859 0.77883 0.55864 0.0
O1308 O 0.04658 0.81231 0.42635 0.0
O1309 O 0.052 0.87255 0.39536 0.0
O1310 O 0.12851 0.87388 0.23349 0.0
O1311 O 0.09967 0.89672 0.41778 0.0
O1312 O 0.12683 0.85508 0.49154 0.0
O1313 O 0.06849 0.86405 0.23108 0.0
O1314 O 0.15135 0.83642 0.3366 0.0
O1315 O 0.15595 0.82369 0.4503 0.0
C1316 C 0.0903 0.78353 0.29577 0.0
C1317 C 0.11267 0.80406 0.64574 0.0
C1318 C 0.15141 0.81437 0.81118 0.0
C1319 C 0.18802 0.79993 0.7831 0.0
C1320 C 0.14918 0.79063 0.62224 0.0
C1321 C 0.18291 0.78577 0.66552 0.0
C1322 C 0.10481 0.81496 0.71924 0.0
C1323 C 0.03351 0.84659 0.42751 0.0
C1324 C 0.08584 0.80883 0.59072 0.0
C1325 C 0.16591 0.63291 0.48842 0.0
C1326 C 0.12382 0.61507 0.52833 0.0
C1327 C 0.11985 0.89032 0.47157 0.0
C1328 C 0.09552 0.89905 0.14208 0.0
C1329 C 0.11712 0.90273 0.02827 0.0
C1330 C 0.08352 0.91876 1.00777 0.0
C1331 C 0.06192 0.91591 0.12335 0.0
C1332 C 0.12454 0.89739 0.09628 0.0
C1333 C 0.05675 0.92754 0.05638 0.0
C1334 C 0.17158 0.83277 0.39231 0.0
C1335 C 0.09832 0.8724 0.19689 0.0
H1336 H 0.21102 0.79828 0.81967 0.0
H1337 H 0.15282 0.78711 0.56947 0.0
H1338 H 0.20359 0.77519 0.62919 0.0
H1339 H 0.07541 0.82144 0.72072 0.0
H1340 H 0.07703 0.92185 0.95438 0.0
H1341 H 0.03878 0.91715 0.15784 0.0
H1342 H 0.14996 0.88306 0.11031 0.0
H1343 H 0.03053 0.93942 0.04094 0.0
C1344 C 0.33246 0.93844 0.22058 0.0
C1345 C 0.36638 0.93195 0.25494 0.0
H1346 H 0.29853 0.97686 0.16223 0.0
C1347 C 0.39057 0.96237 0.25929 0.0
H1348 H 0.31217 0.91641 0.21751 0.0
C1349 C 0.38091 0.99797 0.23467 0.0
C1350 C 0.34868 1.00424 0.19589 0.0
H1351 H 0.41731 0.95874 0.28283 0.0
H1352 H 0.40006 0.02057 0.24325 0.0
C1353 C 0.32418 0.97364 0.1901 0.0
C1354 C 0.94023 0.61956 0.81314 0.0
C1355 C 0.91937 0.64863 0.78471 0.0
H1356 H 0.9916 0.60151 0.85449 0.0
C1357 C 0.93575 0.68446 0.78744 0.0
H1358 H 0.93013 0.59134 0.80935 0.0
C1359 C 0.97121 0.69081 0.81794 0.0
C1360 C 0.99264 0.66137 0.84499 0.0
H1361 H 0.92147 0.70762 0.76414 0.0
H1362 H 0.98241 0.71866 0.8178 0.0
C1363 C 0.97605 0.62568 0.84065 0.0
C1364 C 0.63712 0.05185 0.18229 0.0
C1365 C 0.66087 0.02504 0.21265 0.0
H1366 H 0.60849 0.10465 0.19094 0.0
C1367 C 0.67342 0.03329 0.27859 0.0
H1368 H 0.62635 0.04696 0.13188 0.0
C1369 C 0.66166 0.06556 0.31352 0.0
C1370 C 0.63801 0.09256 0.28387 0.0
H1371 H 0.69113 0.01375 0.30492 0.0
H1372 H 0.67094 0.06896 0.36508 0.0
C1373 C 0.62671 0.08529 0.21643 0.0
C1374 C 0.04159 0.37511 0.86922 0.0
C1375 C 0.01197 0.35469 0.83998 0.0
H1376 H 0.09763 0.39655 0.85872 0.0
C1377 C 0.0182 0.34084 0.7741 0.0
H1378 H 0.03841 0.38637 0.91978 0.0
C1379 C 0.05138 0.34854 0.73793 0.0
C1380 C 0.08092 0.36932 0.76631 0.0
H1381 H 0.99662 0.3252 0.74897 0.0
H1382 H 0.05366 0.33829 0.68663 0.0
C1383 C 0.07573 0.38127 0.83392 0.0
C1384 C 0.33058 0.54974 0.06878 0.0
C1385 C 0.35607 0.51995 0.0754 0.0
H1386 H 0.32098 0.60679 0.03719 0.0
C1387 C 0.39274 0.52771 0.05364 0.0
H1388 H 0.30221 0.54589 0.08519 0.0
C1389 C 0.40313 0.56209 0.0245 0.0
C1390 C 0.37792 0.5917 1.01634 0.0
H1391 H 0.41394 0.50655 0.05723 0.0
H1392 H 0.4314 0.56515 1.00681 0.0
C1393 C 0.34147 0.58506 0.04095 0.0
C1394 C 0.56645 0.62716 0.97761 0.0
C1395 C 0.58088 0.65373 0.02261 0.0
H1396 H 0.52284 0.61161 0.90987 0.0
C1397 C 0.56119 0.68762 0.02766 0.0
H1398 H 0.57983 0.6004 0.97301 0.0
C1399 C 0.52814 0.6944 0.99035 0.0
C1400 C 0.51306 0.66744 0.94652 0.0
H1401 H 0.57077 0.70867 0.06261 0.0
H1402 H 0.51366 0.72028 0.99808 0.0
C1403 C 0.53318 0.63372 0.94118 0.0
C1404 C 0.67216 0.48007 0.08118 0.0
C1405 C 0.64407 0.50599 0.09877 0.0
H1406 H 0.68627 0.42699 0.03585 0.0
C1407 C 0.60732 0.49463 0.08481 0.0
H1408 H 0.70091 0.48714 0.08988 0.0
C1409 C 0.59905 0.46018 0.05366 0.0
C1410 C 0.62676 0.43443 0.0353 0.0
H1411 H 0.58447 0.5131 0.09561 0.0
H1412 H 0.57051 0.45428 0.04131 0.0
C1413 C 0.66368 0.44501 0.05051 0.0
C1414 C 0.44753 0.40763 0.98207 0.0
C1415 C 0.42289 0.38082 1.00759 0.0
H1416 H 0.49947 0.42055 0.93562 0.0
C1417 C 0.43357 0.34326 0.99937 0.0
H1418 H 0.4415 0.43666 0.99003 0.0
C1419 C 0.46879 0.33347 0.97089 0.0
C1420 C 0.49414 0.3609 0.94801 0.0
H1421 H 0.41596 0.32151 1.01924 0.0
H1422 H 0.47674 0.30455 0.9696 0.0
C1423 C 0.48165 0.39806 0.95177 0.0
C1424 C 0.83896 0.43643 0.7646 0.0
C1425 C 0.87571 0.43005 0.7878 0.0
H1426 H 0.80044 0.47453 0.71476 0.0
C1427 C 0.90089 0.45933 0.77665 0.0
H1428 H 0.81833 0.41492 0.77116 0.0
C1429 C 0.88967 0.49411 0.75042 0.0
C1430 C 0.85338 0.50106 0.72687 0.0
H1431 H 0.9296 0.45614 0.79148 0.0
H1432 H 0.91 0.51609 0.74967 0.0
C1433 C 0.82826 0.47106 0.7337 0.0
C1434 C 0.468 0.19454 0.30989 0.0
C1435 C 0.4912 0.16619 0.33593 0.0
H1436 H 0.41821 0.20895 0.25387 0.0
C1437 C 0.47842 0.12944 0.32562 0.0
H1438 H 0.47663 0.22311 0.3141 0.0
C1439 C 0.44464 0.12154 0.29134 0.0
C1440 C 0.42088 0.14964 0.26755 0.0
H1441 H 0.49547 0.10634 0.34142 0.0
H1442 H 0.43837 0.09316 0.27834 0.0
C1443 C 0.4339 0.1864 0.27598 0.0
C1444 C 0.10528 0.54809 0.77107 0.0
C1445 C 0.12937 0.57861 0.77674 0.0
H1446 H 0.09572 0.49244 0.73727 0.0
C1447 C 0.16571 0.5733 0.75083 0.0
H1448 H 0.07767 0.5501 0.79182 0.0
C1449 C 0.17703 0.53898 0.72115 0.0
C1450 C 0.15223 0.50882 0.7148 0.0
H1451 H 0.186 0.59503 0.75455 0.0
H1452 H 0.2051 0.5363 0.7024 0.0
C1453 C 0.11604 0.51449 0.74015 0.0
C1454 C 0.55439 0.90935 0.2625 0.0
C1455 C 0.58692 0.88768 0.26821 0.0
H1456 H 0.49598 0.91554 0.27976 0.0
C1457 C 0.58235 0.8531 0.30215 0.0
H1458 H 0.55564 0.93616 0.23768 0.0
C1459 C 0.5468 0.8407 0.3268 0.0
C1460 C 0.51424 0.86258 0.31976 0.0
H1461 H 0.60614 0.83522 0.30879 0.0
H1462 H 0.54502 0.81415 0.35236 0.0
C1463 C 0.51942 0.89718 0.28687 0.0
C1464 C 0.87928 0.03796 0.61838 0.0
C1465 C 0.84554 0.01812 0.61219 0.0
H1466 H 0.91141 0.08624 0.5933 0.0
C1467 C 0.81762 0.03572 0.57321 0.0
H1468 H 0.90226 0.02613 0.64535 0.0
C1469 C 0.82431 0.07009 0.53909 0.0
C1470 C 0.85873 0.08899 0.54422 0.0
H1471 H 0.7913 0.02194 0.56563 0.0
H1472 H 0.80299 0.08112 0.50606 0.0
C1473 C 0.88513 0.07287 0.58719 0.0
C1474 C 0.05679 0.11804 0.49469 0.0
C1475 C 0.08198 0.14635 0.50982 0.0
H1476 H 1.00119 0.10328 0.47124 0.0
C1477 C 0.06926 0.18322 0.49925 0.0
H1478 H 0.06431 0.08946 0.50449 0.0
C1479 C 0.03319 0.19088 0.47196 0.0
C1480 C 0.00767 0.16197 0.45824 0.0
H1481 H 0.08694 0.2062 0.51333 0.0
H1482 H 0.02497 0.21941 0.46387 0.0
C1483 C 0.02034 0.12594 0.47325 0.0
C1484 C 0.16378 0.92757 0.55427 0.0
C1485 C 0.13346 0.92554 0.50851 0.0
H1486 H 0.19849 0.96242 0.61833 0.0
C1487 C 0.11667 0.95986 0.49182 0.0
H1488 H 0.17804 0.90236 0.56877 0.0
C1489 C 0.12953 0.99406 0.51702 0.0
C1490 C 0.15893 0.99655 0.56391 0.0
H1491 H 0.09287 0.96068 0.45844 0.0
H1492 H 0.11497 0.01893 0.50133 0.0
C1493 C 0.17612 0.9624 0.58178 0.0
C1494 C 0.96487 0.8368 0.46375 0.0
C1495 C 0.99788 0.85788 0.46472 0.0
H1496 H 0.90737 0.83265 0.49079 0.0
C1497 C 0.99612 0.89218 0.49925 0.0
H1498 H 0.96442 0.81057 0.43718 0.0
C1499 C 0.96344 0.90443 0.53246 0.0
C1500 C 0.93005 0.88379 0.53125 0.0
H1501 H 0.0205 0.90967 0.50144 0.0
H1502 H 0.96442 0.93064 0.55906 0.0
C1503 C 0.93158 0.8498 0.49504 0.0
C1504 C 0.37479 0.24592 0.12504 0.0
C1505 C 0.34248 0.22449 0.11922 0.0
H1506 H 0.39651 0.30102 0.1349 0.0
C1507 C 0.30871 0.24247 0.12952 0.0
H1508 H 0.40169 0.23357 0.11609 0.0
C1509 C 0.30621 0.27897 0.15345 0.0
C1510 C 0.338 0.30101 0.15783 0.0
H1511 H 0.28398 0.22871 0.11279 0.0
H1512 H 0.27905 0.29124 0.15988 0.0
C1513 C 0.37222 0.28411 0.14085 0.0
C1514 C 0.27751 0.64508 0.91871 0.0
C1515 C 0.29501 0.67464 0.88447 0.0
H1516 H 0.22683 0.62019 0.95135 0.0
C1517 C 0.27317 0.70568 0.86973 0.0
H1518 H 0.29363 0.62206 0.93699 0.0
C1519 C 0.23555 0.70729 0.88913 0.0
C1520 C 0.21694 0.67598 0.91565 0.0
H1521 H 0.28591 0.73 0.84722 0.0
H1522 H 0.22046 0.73259 0.87868 0.0
C1523 C 0.23896 0.64482 0.93048 0.0
C1524 C 0.7046 0.78222 0.14784 0.0
C1525 C 0.67419 0.80506 0.16058 0.0
H1526 H 0.73113 0.72969 0.16692 0.0
C1527 C 0.64291 0.78797 0.19018 0.0
H1528 H 0.72901 0.79411 0.12471 0.0
C1529 C 0.64109 0.74895 0.19819 0.0
C1530 C 0.67257 0.72645 0.18637 0.0
H1531 H 0.61942 0.80458 0.20511 0.0
H1532 H 0.61511 0.7366 0.21396 0.0
C1533 C 0.70548 0.74507 0.17047 0.0
C1534 C 0.77608 0.3693 0.90848 0.0
C1535 C 0.7947 0.33639 0.92623 0.0
H1536 H 0.72406 0.39546 0.88806 0.0
C1537 C 0.77355 0.30381 0.93114 0.0
H1538 H 0.79119 0.39507 0.90341 0.0
C1539 C 0.73596 0.30319 0.91197 0.0
C1540 C 0.71708 0.33605 0.8951 0.0
H1541 H 0.78671 0.27803 0.94604 0.0
H1542 H 0.72117 0.27708 0.91458 0.0
C1543 C 0.73771 0.36926 0.8956 0.0
C1544 C 0.86102 0.73698 0.64121 0.0
C1545 C 0.82737 0.7182 0.62891 0.0
H1546 H 0.88832 0.78779 0.66358 0.0
C1547 C 0.79443 0.73904 0.63101 0.0
H1548 H 0.8872 0.72233 0.64003 0.0
C1549 C 0.79515 0.77705 0.64828 0.0
C1550 C 0.82882 0.79534 0.66348 0.0
H1551 H 0.76799 0.72567 0.62229 0.0
H1552 H 0.76922 0.79213 0.64929 0.0
C1553 C 0.86169 0.77466 0.65807 0.0
C1554 C 0.76469 0.14463 0.37538 0.0
C1555 C 0.78583 0.17715 0.38583 0.0
H1556 H 0.71054 0.11953 0.37495 0.0
C1557 C 0.76673 0.20871 0.40822 0.0
H1558 H 0.77788 0.11943 0.35795 0.0
C1559 C 0.72911 0.20682 0.42709 0.0
C1560 C 0.7078 0.17518 0.41464 0.0
H1561 H 0.78151 0.23444 0.41601 0.0
H1562 H 0.7158 0.2314 0.44705 0.0
C1563 C 0.72609 0.14413 0.38742 0.0
C1564 C 0.20025 0.27425 0.62688 0.0
C1565 C 0.16705 0.2941 0.63217 0.0
H1566 H 0.22931 0.22279 0.64123 0.0
C1567 C 0.13537 0.27394 0.65267 0.0
H1568 H 0.22538 0.28879 0.61268 0.0
C1569 C 0.13706 0.23504 0.66463 0.0
C1570 C 0.17095 0.2154 0.66072 0.0
H1571 H 0.1093 0.28824 0.65994 0.0
H1572 H 0.11168 0.22039 0.6758 0.0
C1573 C 0.20259 0.23633 0.64455 0.0
C1574 C 0.27097 0.86552 0.43173 0.0
C1575 C 0.29275 0.83527 0.40978 0.0
H1576 H 0.21603 0.88745 0.44746 0.0
C1577 C 0.27354 0.80434 0.38443 0.0
H1578 H 0.28402 0.88973 0.45352 0.0
C1579 C 0.2353 0.80613 0.36952 0.0
C1580 C 0.21346 0.83587 0.39167 0.0
H1581 H 0.28861 0.77951 0.37098 0.0
H1582 H 0.22215 0.78271 0.34517 0.0
C1583 C 0.23187 0.86485 0.42604 0.0
C1584 C 0.26694 0.0791 0.82354 0.0
C1585 C 0.23723 0.10349 0.80641 0.0
H1586 H 0.30858 0.06047 0.89654 0.0
C1587 C 0.2279 0.12796 0.86109 0.0
H1588 H 0.27493 0.0584 0.78681 0.0
C1589 C 0.24685 0.12865 0.92603 0.0
C1590 C 0.27638 0.10415 0.9435 0.0
H1591 H 0.20536 0.14735 0.85372 0.0
H1592 H 0.23815 0.14903 0.963 0.0
C1593 C 0.28603 0.0798 0.88877 0.0
C1594 C 0.07833 0.76398 0.09384 0.0
C1595 C 0.10045 0.73246 0.07765 0.0
H1596 H 0.05702 0.80267 0.16857 0.0
C1597 C 0.11861 0.71757 0.137 0.0
H1598 H 0.06282 0.77716 0.05342 0.0
C1599 C 0.11556 0.73278 0.20528 0.0
C1600 C 0.09358 0.76439 0.22154 0.0
H1601 H 0.13586 0.69326 0.13096 0.0
H1602 H 0.13085 0.71938 0.24574 0.0
C1603 C 0.07502 0.77902 0.16233 0.0
C1604 C 0.77764 0.8992 0.964 0.0
C1605 C 0.74727 0.92258 0.98128 0.0
H1606 H 0.81507 0.87682 0.8881 0.0
C1607 C 0.73249 0.94141 0.92246 0.0
H1608 H 0.79097 0.88358 1.00413 0.0
C1609 C 0.74627 0.93708 0.85328 0.0
C1610 C 0.77664 0.91365 0.8361 0.0
H1611 H 0.70965 0.96036 0.92966 0.0
H1612 H 0.73304 0.95275 0.81312 0.0
C1613 C 0.79164 0.89514 0.89503 0.0
C1614 C 0.8931 0.23734 0.09882 0.0
C1615 C 0.91494 0.2692 0.08277 0.0
H1616 H 0.87399 0.19662 0.17276 0.0
C1617 C 0.93559 0.28194 0.14079 0.0
H1618 H 0.87562 0.2258 0.05955 0.0
C1619 C 0.93508 0.26439 0.20767 0.0
C1620 C 0.91218 0.23351 0.22446 0.0
H1621 H 0.95272 0.30635 0.13469 0.0
H1622 H 0.95277 0.27566 0.24687 0.0
C1623 C 0.89191 0.2204 0.16618 0.0
C1624 C 0.24022 0.43518 0.34029 0.0
C1625 C 0.27223 0.41395 0.32243 0.0
H1626 H 0.20046 0.45359 0.41639 0.0
C1627 C 0.28595 0.39352 0.38036 0.0
H1628 H 0.22749 0.45216 0.3014 0.0
C1629 C 0.27022 0.39434 0.44858 0.0
C1630 C 0.23865 0.41587 0.46678 0.0
H1631 H 0.30946 0.3757 0.3732 0.0
H1632 H 0.28323 0.37759 0.48753 0.0
C1633 C 0.2244 0.43609 0.40887 0.0
C1634 C 0.3943 0.77834 0.68785 0.0
C1635 C 0.41466 0.74562 0.70448 0.0
H1636 H 0.37621 0.81907 0.61335 0.0
C1637 C 0.43352 0.73095 0.64563 0.0
H1638 H 0.3788 0.79185 0.72781 0.0
C1639 C 0.43238 0.74729 0.57754 0.0
C1640 C 0.41125 0.7794 0.56053 0.0
H1641 H 0.45 0.70614 0.65199 0.0
H1642 H 0.44894 0.7348 0.53805 0.0
C1643 C 0.39268 0.79423 0.61959 0.0
C1644 C 0.76278 0.57956 0.35123 0.0
C1645 C 0.72874 0.59877 0.33949 0.0
H1646 H 0.80802 0.56327 0.41864 0.0
C1647 C 0.71525 0.61523 0.40142 0.0
H1648 H 0.77425 0.5641 0.30988 0.0
C1649 C 0.73417 0.61354 0.46704 0.0
C1650 C 0.76847 0.59458 0.47848 0.0
H1651 H 0.68945 0.63046 0.39941 0.0
H1652 H 0.72202 0.62856 0.50886 0.0
C1653 C 0.78198 0.57812 0.41667 0.0
C1654 C 0.57258 0.23229 0.6427 0.0
C1655 C 0.59022 0.24733 0.58283 0.0
H1656 H 0.56149 0.23402 0.75221 0.0
C1657 C 0.61174 0.27935 0.59839 0.0
H1658 H 0.55523 0.20806 0.63692 0.0
C1659 C 0.61516 0.2947 0.66643 0.0
C1660 C 0.59785 0.27967 0.72658 0.0
H1661 H 0.62634 0.29309 0.55739 0.0
H1662 H 0.63201 0.31932 0.67149 0.0
C1663 C 0.57622 0.24756 0.71117 0.0
C1664 C 0.32407 0.10013 0.66826 0.0
C1665 C 0.33976 0.12179 0.61663 0.0
H1666 H 0.33517 0.06569 0.75438 0.0
C1667 C 0.37687 0.13335 0.62253 0.0
H1668 H 0.29505 0.09311 0.66808 0.0
C1669 C 0.39956 0.11806 0.67202 0.0
C1670 C 0.38482 0.09249 0.71794 0.0
H1671 H 0.38908 0.15203 0.58563 0.0
H1672 H 0.42846 0.12609 0.6744 0.0
C1673 C 0.34683 0.08453 0.71733 0.0
C1674 C 0.03847 0.69378 0.35853 0.0
C1675 C 0.05252 0.66882 0.40667 0.0
H1676 H 0.01023 0.69957 0.26362 0.0
C1677 C 0.04929 0.63054 0.39592 0.0
H1678 H 0.04259 0.72334 0.36362 0.0
C1679 C 0.03055 0.61712 0.34069 0.0
C1680 C 0.01612 0.64163 0.29238 0.0
H1681 H 0.06198 0.61061 0.42992 0.0
H1682 H 0.03025 0.58736 0.3333 0.0
C1683 C 0.01982 0.68018 0.30186 0.0
C1684 C 0.6935 0.8705 0.695 0.0
C1685 C 0.67746 0.85565 0.63687 0.0
H1686 H 0.68231 0.89428 0.79121 0.0
C1687 C 0.64213 0.83914 0.64072 0.0
H1688 H 0.72188 0.88016 0.6949 0.0
C1689 C 0.61897 0.84771 0.69461 0.0
C1690 C 0.63271 0.86956 0.74692 0.0
H1691 H 0.63069 0.82416 0.59805 0.0
H1692 H 0.59011 0.8395 0.69336 0.0
C1693 C 0.67082 0.87834 0.7497 0.0
C1694 C 0.86077 0.39153 0.3374 0.0
C1695 C 0.8858 0.37482 0.2924 0.0
H1696 H 0.82885 0.38495 0.42811 0.0
C1697 C 0.89031 0.33632 0.29505 0.0
H1698 H 0.85531 0.42103 0.33465 0.0
C1699 C 0.87595 0.31592 0.3493 0.0
C1700 C 0.85823 0.33435 0.40252 0.0
H1701 H 0.90838 0.32298 0.25957 0.0
H1702 H 0.88273 0.28705 0.35396 0.0
C1703 C 0.84577 0.37085 0.39084 0.0
C1704 C 0.39171 0.43284 0.56225 0.0
C1705 C 0.3704 0.45411 0.5181 0.0
H1706 H 0.39446 0.40515 0.65652 0.0
C1707 C 0.3322 0.45782 0.5285 0.0
H1708 H 0.42052 0.42766 0.55217 0.0
C1709 C 0.31635 0.44333 0.58744 0.0
C1710 C 0.33919 0.42665 0.63661 0.0
H1711 H 0.31514 0.47301 0.49277 0.0
H1712 H 0.28696 0.44655 0.59509 0.0
C1713 C 0.3765 0.41969 0.62136 0.0
C1714 C 0.39962 0.68977 0.42725 0.0
C1715 C 0.37909 0.67562 0.37308 0.0
H1716 H 0.43219 0.67526 0.51405 0.0
C1717 C 0.36445 0.63944 0.37772 0.0
H1718 H 0.40799 0.71847 0.42866 0.0
C1719 C 0.37826 0.61497 0.42582 0.0
C1720 C 0.40489 0.62751 0.47126 0.0
H1721 H 0.34603 0.62875 0.33906 0.0
H1722 H 0.36933 0.58628 0.42604 0.0
C1723 C 0.41363 0.66529 0.47512 0.0
C1724 C 0.67685 0.59894 0.60801 0.0
C1725 C 0.66268 0.62235 0.65843 0.0
H1726 H 0.66434 0.56782 0.51847 0.0
C1727 C 0.62682 0.63702 0.65148 0.0
H1728 H 0.70528 0.58968 0.60873 0.0
C1729 C 0.60344 0.6237 0.60201 0.0
C1730 C 0.61633 0.59712 0.55667 0.0
H1731 H 0.61587 0.65678 0.68757 0.0
H1732 H 0.57556 0.63468 0.59811 0.0
C1733 C 0.65345 0.58593 0.55749 0.0
C1734 C 0.52843 0.34018 0.50525 0.0
C1735 C 0.52496 0.37876 0.51426 0.0
H1736 H 0.55108 0.29661 0.44481 0.0
C1737 C 0.54112 0.40307 0.46753 0.0
H1738 H 0.51768 0.32095 0.54278 0.0
C1739 C 0.56037 0.38919 0.41272 0.0
C1740 C 0.56243 0.35083 0.40158 0.0
H1741 H 0.54087 0.4328 0.47546 0.0
H1742 H 0.57376 0.40861 0.37868 0.0
C1743 C 0.5477 0.32626 0.44973 0.0
C1744 C 0.87401 0.61714 0.16462 0.0
C1745 C 0.83733 0.60505 0.15664 0.0
H1746 H 0.92327 0.61343 0.22187 0.0
C1747 C 0.82207 0.58049 0.20439 0.0
H1748 H 0.88625 0.63739 0.13068 0.0
C1749 C 0.845 0.56355 0.25185 0.0
C1750 C 0.88224 0.57378 0.25568 0.0
H1751 H 0.79312 0.57328 0.20344 0.0
H1752 H 0.83354 0.5439 0.28785 0.0
C1753 C 0.8961 0.60185 0.21406 0.0
C1754 C 0.65841 0.11857 0.8677 0.0
C1755 C 0.63732 0.13093 0.81326 0.0
H1756 H 0.67935 0.13175 0.96532 0.0
C1757 C 0.62521 0.16816 0.81018 0.0
H1758 H 0.66886 0.09043 0.86957 0.0
C1759 C 0.63084 0.19156 0.86459 0.0
C1760 C 0.64671 0.17711 0.92334 0.0
H1761 H 0.6094 0.17855 0.76744 0.0
H1762 H 0.6201 0.21954 0.86275 0.0
C1763 C 0.66427 0.1422 0.92179 0.0
C1764 C 0.10523 0.36779 0.1859 0.0
C1765 C 0.11446 0.39464 0.23312 0.0
H1766 H 0.12302 0.33843 0.09892 0.0
C1767 C 0.15106 0.40814 0.23766 0.0
H1768 H 0.0778 0.35558 0.18494 0.0
C1769 C 0.1773 0.39756 0.1903 0.0
C1770 C 0.16606 0.37567 0.13579 0.0
H1771 H 0.15906 0.42725 0.27744 0.0
H1772 H 0.20501 0.40886 0.19331 0.0
C1773 C 0.1314 0.35753 0.13828 0.0
C1774 C 0.43366 0.88998 0.87227 0.0
C1775 C 0.43701 0.85151 0.88207 0.0
H1776 H 0.44919 0.93733 0.81553 0.0
C1777 C 0.45781 0.8305 0.83601 0.0
H1778 H 0.41654 0.90681 0.90513 0.0
C1779 C 0.4778 0.84851 0.78521 0.0
C1780 C 0.47533 0.88733 0.77771 0.0
H1781 H 0.45876 0.80058 0.83902 0.0
H1782 H 0.49286 0.83201 0.74852 0.0
C1783 C 0.45349 0.90781 0.82239 0.0
C1784 C 0.88357 0.97385 0.1632 0.0
C1785 C 0.84506 0.97063 0.17093 0.0
H1786 H 0.92857 0.98747 0.10131 0.0
C1787 C 0.82159 0.98261 0.11877 0.0
H1788 H 0.90269 0.9625 0.20008 0.0
C1789 C 0.83701 0.99709 0.05916 0.0
C1790 C 0.87593 0.99855 0.05107 0.0
H1791 H 0.79189 0.9789 0.12234 0.0
H1792 H 0.8187 1.00415 1.01757 0.0
C1793 C 0.89869 0.98861 0.10551 0.0
C1794 C 0.95299 0.16987 1.01752 0.0
C1795 C 0.95113 0.13098 0.02076 0.0
H1796 H 0.94471 0.21804 0.95512 0.0
C1797 C 0.93934 0.11084 0.96486 0.0
H1798 H 0.96039 0.18585 0.06195 0.0
C1799 C 0.92875 0.12879 0.90675 0.0
C1800 C 0.93182 0.16748 0.90104 0.0
H1801 H 0.93547 0.08133 0.96761 0.0
H1802 H 0.91693 0.11205 0.86675 0.0
C1803 C 0.94371 0.18818 0.95712 0.0
C1804 C 0.19341 1.00223 0.04596 0.0
C1805 C 0.17999 0.02355 0.99345 0.0
H1806 H 0.21999 0.99979 0.13764 0.0
C1807 C 0.18982 0.06062 0.99086 0.0
H1808 H 0.18989 0.97238 0.04594 0.0
C1809 C 0.20374 0.07762 0.04782 0.0
C1810 C 0.20341 0.06008 0.11608 0.0
H1811 H 0.18281 0.07799 0.94774 0.0
H1812 H 0.20755 0.10682 0.03787 0.0
C1813 C 0.20964 0.01986 0.10119 0.0
C1814 C 0.14031 0.8158 0.93781 0.0
C1815 C 0.15709 0.83106 0.8804 0.0
H1816 H 0.1117 0.82882 0.0293 0.0
C1817 C 0.1726 0.86687 0.88381 0.0
H1818 H 0.13152 0.78714 0.93883 0.0
C1819 C 0.16049 0.89107 0.93369 0.0
C1820 C 0.13624 0.87779 0.98292 0.0
H1821 H 0.18907 0.87786 0.84241 0.0
H1822 H 0.16792 0.92015 0.93137 0.0
C1823 C 0.12888 0.83958 0.98866 0.0
loop_
_geom_bond_atom_site_label_1
_geom_bond_atom_site_label_2
_geom_bond_distance
_geom_bond_site_symmetry_2
_ccdc_geom_bond_type
Tb0 N29 2.617 . S
Tb0 N35 2.572 . S
Tb0 O44 2.465 1_554 S
Tb0 O45 2.387 . S
Tb0 O47 2.428 1_554 S
Tb0 O48 2.308 . S
Tb0 O52 2.349 . S
Tb0 O55 2.393 . S
Tb0 C64 2.802 1_554 S
C1 N2 1.379 . S
C1 C4 1.416 . S
C1 C8 1.424 . S
N2 C1 1.379 . S
N2 C5 1.334 . S
N2 Tb11 2.617 . S
C3 C5 1.390 . S
C3 C6 1.339 . S
C3 H23 0.930 . S
C4 C1 1.416 . S
C4 C6 1.416 . S
C4 C10 1.448 . S
C5 N2 1.334 . S
C5 C3 1.390 . S
C5 H16 0.930 . S
C6 C3 1.339 . S
C6 C4 1.416 . S
C6 H27 0.930 . S
C7 C8 1.413 . S
C7 C9 1.427 . S
C7 C13 1.416 . S
C8 C1 1.424 . S
C8 C7 1.413 . S
C8 N12 1.361 . S
C9 C7 1.427 . S
C9 C10 1.328 . S
C9 H24 0.929 . S
C10 C4 1.448 . S
C10 C9 1.328 . S
C10 H25 0.930 . S
Tb11 N2 2.617 . S
Tb11 N12 2.572 . S
Tb11 O46 2.349 . S
Tb11 O49 2.393 . S
Tb11 O50 2.465 . S
Tb11 O51 2.387 . S
Tb11 O53 2.428 . S
Tb11 O54 2.308 . S
Tb11 C75 2.802 . S
N12 C8 1.361 . S
N12 Tb11 2.572 . S
N12 C14 1.340 . S
C13 C7 1.416 . S
C13 C15 1.332 . S
C13 H21 0.931 . S
C14 N12 1.340 . S
C14 C15 1.407 . S
C14 H20 0.930 . S
C15 C13 1.332 . S
C15 C14 1.407 . S
C15 H17 0.929 . S
H16 C5 0.930 . S
H17 C15 0.929 . S
H18 C33 0.930 . S
H19 C40 0.929 . S
H20 C14 0.930 . S
H21 C13 0.931 . S
H22 C36 0.930 . S
H23 C3 0.930 . S
H24 C9 0.929 . S
H25 C10 0.930 . S
H26 C31 0.930 . S
H27 C6 0.930 . S
H28 C39 0.931 . S
N29 Tb0 2.617 . S
N29 C30 1.379 . S
N29 C33 1.334 . S
C30 N29 1.379 . S
C30 C32 1.416 . S
C30 C38 1.424 . S
C31 H26 0.930 . S
C31 C33 1.390 1_565 S
C31 C34 1.339 1_565 S
C32 C30 1.416 . S
C32 C34 1.416 . S
C32 C65 1.448 . S
C33 H18 0.930 . S
C33 N29 1.334 . S
C33 C31 1.390 1_545 S
C34 C31 1.339 1_545 S
C34 C32 1.416 . S
C34 H41 0.930 1_545 S
N35 Tb0 2.572 . S
N35 C36 1.340 . S
N35 C38 1.361 . S
C36 H22 0.930 . S
C36 N35 1.340 . S
C36 C40 1.407 . S
C37 C38 1.413 . S
C37 C39 1.416 . S
C37 C66 1.427 . S
C38 C30 1.424 . S
C38 N35 1.361 . S
C38 C37 1.413 . S
C39 H28 0.931 . S
C39 C37 1.416 . S
C39 C40 1.332 . S
C40 H19 0.929 . S
C40 C36 1.407 . S
C40 C39 1.332 . S
H41 C34 0.930 1_565 S
H42 C65 0.930 . S
H43 C66 0.929 . S
O44 Tb0 2.465 1_556 S
O44 C64 1.264 . S
O45 Tb0 2.387 . S
O45 C56 1.264 . S
O46 Tb11 2.349 . S
O46 C56 1.243 . S
O47 Tb0 2.428 1_556 S
O47 C64 1.256 . S
O48 Tb0 2.308 . S
O48 C63 1.266 . S
O49 Tb11 2.393 . S
O49 C63 1.248 . S
O50 Tb11 2.465 . S
O50 C75 1.264 . S
O51 Tb11 2.387 . S
O51 C67 1.264 . S
O52 Tb0 2.349 . S
O52 C67 1.243 . S
O53 Tb11 2.428 . S
O53 C75 1.256 . S
O54 Tb11 2.308 . S
O54 C74 1.266 . S
O55 Tb0 2.393 . S
O55 C74 1.248 . S
C56 O45 1.264 . S
C56 O46 1.243 . S
C57 C60 1.399 . S
C57 C62 1.383 . S
C57 C64 1.496 . S
C58 C59 1.399 . S
C58 C62 1.389 . S
C59 C58 1.399 . S
C59 C61 1.380 . S
C59 H76 0.929 . S
C60 C57 1.399 . S
C60 C61 1.392 . S
C60 H77 0.929 . S
C61 C59 1.380 . S
C61 C60 1.392 . S
C61 H78 0.929 . S
C62 C57 1.383 . S
C62 C58 1.389 . S
C62 H79 0.931 . S
C63 O48 1.266 . S
C63 O49 1.248 . S
C64 Tb0 2.802 1_556 S
C64 O44 1.264 . S
C64 O47 1.256 . S
C64 C57 1.496 . S
C65 C32 1.448 . S
C65 H42 0.930 . S
C65 C66 1.328 . S
C66 C37 1.427 . S
C66 H43 0.929 . S
C66 C65 1.328 . S
C67 O51 1.264 . S
C67 O52 1.243 . S
C68 C71 1.399 . S
C68 C72 1.383 . S
C68 C75 1.496 . S
C69 C70 1.399 . S
C69 C72 1.389 . S
C70 C69 1.399 . S
C70 C73 1.380 . S
C70 H80 0.929 . S
C71 C68 1.399 . S
C71 C73 1.392 . S
C71 H81 0.929 . S
C72 C68 1.383 . S
C72 C69 1.389 . S
C72 H82 0.931 . S
C73 C70 1.380 . S
C73 C71 1.392 . S
C73 H83 0.929 . S
C74 O54 1.266 . S
C74 O55 1.248 . S
C75 Tb11 2.802 . S
C75 O50 1.264 . S
C75 O53 1.256 . S
C75 C68 1.496 . S
H76 C59 0.929 . S
H77 C60 0.929 . S
H78 C61 0.929 . S
H79 C62 0.931 . S
H80 C70 0.929 . S
H81 C71 0.929 . S
H82 C72 0.931 . S
H83 C73 0.929 . S
Tb84 N113 2.617 . S
Tb84 N119 2.572 . S
Tb84 O128 2.465 . S
Tb84 O129 2.387 . S
Tb84 O131 2.428 . S
Tb84 O132 2.308 . S
Tb84 O136 2.349 . S
Tb84 O139 2.393 . S
Tb84 C148 2.802 . S
C85 N86 1.379 . S
C85 C88 1.416 . S
C85 C92 1.424 . S
N86 C85 1.379 . S
N86 C89 1.334 . S
N86 Tb95 2.617 . S
C87 C89 1.390 1_655 S
C87 C90 1.339 1_655 S
C87 H107 0.930 . S
C88 C85 1.416 . S
C88 C90 1.416 . S
C88 C94 1.448 . S
C89 N86 1.334 . S
C89 C87 1.390 1_455 S
C89 H100 0.930 . S
C90 C87 1.339 1_455 S
C90 C88 1.416 . S
C90 H111 0.930 1_455 S
C91 C92 1.413 . S
C91 C93 1.427 . S
C91 C97 1.416 . S
C92 C85 1.424 . S
C92 C91 1.413 . S
C92 N96 1.361 . S
C93 C91 1.427 . S
C93 C94 1.328 . S
C93 H108 0.929 . S
C94 C88 1.448 . S
C94 C93 1.328 . S
C94 H109 0.930 . S
Tb95 N86 2.617 . S
Tb95 N96 2.572 . S
Tb95 O130 2.349 . S
Tb95 O133 2.393 . S
Tb95 O134 2.465 1_556 S
Tb95 O135 2.387 . S
Tb95 O137 2.428 1_556 S
Tb95 O138 2.308 . S
Tb95 C159 2.802 1_556 S
N96 C92 1.361 . S
N96 Tb95 2.572 . S
N96 C98 1.340 . S
C97 C91 1.416 . S
C97 C99 1.332 . S
C97 H105 0.931 . S
C98 N96 1.340 . S
C98 C99 1.407 . S
C98 H104 0.930 . S
C99 C97 1.332 . S
C99 C98 1.407 . S
C99 H101 0.929 . S
H100 C89 0.930 . S
H101 C99 0.929 . S
H102 C117 0.930 . S
H103 C124 0.929 . S
H104 C98 0.930 . S
H105 C97 0.931 . S
H106 C120 0.930 . S
H107 C87 0.930 . S
H108 C93 0.929 . S
H109 C94 0.930 . S
H110 C115 0.930 . S
H111 C90 0.930 1_655 S
H112 C123 0.931 . S
N113 Tb84 2.617 . S
N113 C114 1.379 . S
N113 C117 1.334 . S
C114 N113 1.379 . S
C114 C116 1.416 . S
C114 C122 1.424 . S
C115 H110 0.930 . S
C115 C117 1.390 . S
C115 C118 1.339 . S
C116 C114 1.416 . S
C116 C118 1.416 . S
C116 C149 1.448 . S
C117 H102 0.930 . S
C117 N113 1.334 . S
C117 C115 1.390 . S
C118 C115 1.339 . S
C118 C116 1.416 . S
C118 H125 0.930 . S
N119 Tb84 2.572 . S
N119 C120 1.340 . S
N119 C122 1.361 . S
C120 H106 0.930 . S
C120 N119 1.340 . S
C120 C124 1.407 . S
C121 C122 1.413 . S
C121 C123 1.416 . S
C121 C150 1.427 . S
C122 C114 1.424 . S
C122 N119 1.361 . S
C122 C121 1.413 . S
C123 H112 0.931 . S
C123 C121 1.416 . S
C123 C124 1.332 . S
C124 H103 0.929 . S
C124 C120 1.407 . S
C124 C123 1.332 . S
H125 C118 0.930 . S
H126 C149 0.930 . S
H127 C150 0.929 . S
O128 Tb84 2.465 . S
O128 C148 1.264 . S
O129 Tb84 2.387 . S
O129 C140 1.264 . S
O130 Tb95 2.349 . S
O130 C140 1.243 . S
O131 Tb84 2.428 . S
O131 C148 1.256 . S
O132 Tb84 2.308 . S
O132 C147 1.266 . S
O133 Tb95 2.393 . S
O133 C147 1.248 . S
O134 Tb95 2.465 1_554 S
O134 C159 1.264 . S
O135 Tb95 2.387 . S
O135 C151 1.264 . S
O136 Tb84 2.349 . S
O136 C151 1.243 . S
O137 Tb95 2.428 1_554 S
O137 C159 1.256 . S
O138 Tb95 2.308 . S
O138 C158 1.266 . S
O139 Tb84 2.393 . S
O139 C158 1.248 . S
C140 O129 1.264 . S
C140 O130 1.243 . S
C141 C144 1.399 . S
C141 C146 1.383 . S
C141 C148 1.496 . S
C142 C143 1.399 . S
C142 C146 1.389 . S
C143 C142 1.399 . S
C143 C145 1.380 . S
C143 H160 0.929 . S
C144 C141 1.399 . S
C144 C145 1.392 . S
C144 H161 0.929 . S
C145 C143 1.380 . S
C145 C144 1.392 . S
C145 H162 0.929 . S
C146 C141 1.383 . S
C146 C142 1.389 . S
C146 H163 0.931 . S
C147 O132 1.266 . S
C147 O133 1.248 . S
C148 Tb84 2.802 . S
C148 O128 1.264 . S
C148 O131 1.256 . S
C148 C141 1.496 . S
C149 C116 1.448 . S
C149 H126 0.930 . S
C149 C150 1.328 . S
C150 C121 1.427 . S
C150 H127 0.929 . S
C150 C149 1.328 . S
C151 O135 1.264 . S
C151 O136 1.243 . S
C152 C155 1.399 . S
C152 C156 1.383 . S
C152 C159 1.496 . S
C153 C154 1.399 . S
C153 C156 1.389 . S
C154 C153 1.399 . S
C154 C157 1.380 . S
C154 H164 0.929 . S
C155 C152 1.399 . S
C155 C157 1.392 . S
C155 H165 0.929 . S
C156 C152 1.383 . S
C156 C153 1.389 . S
C156 H166 0.931 . S
C157 C154 1.380 . S
C157 C155 1.392 . S
C157 H167 0.929 . S
C158 O138 1.266 . S
C158 O139 1.248 . S
C159 Tb95 2.802 1_554 S
C159 O134 1.264 . S
C159 O137 1.256 . S
C159 C152 1.496 . S
H160 C143 0.929 . S
H161 C144 0.929 . S
H162 C145 0.929 . S
H163 C146 0.931 . S
H164 C154 0.929 . S
H165 C155 0.929 . S
H166 C156 0.931 . S
H167 C157 0.929 . S
Tb168 N197 2.617 . S
Tb168 N203 2.572 . S
Tb168 O212 2.465 1_554 S
Tb168 O213 2.387 . S
Tb168 O215 2.428 1_554 S
Tb168 O216 2.308 . S
Tb168 O220 2.349 . S
Tb168 O223 2.393 . S
Tb168 C232 2.802 1_554 S
C169 N170 1.379 . S
C169 C172 1.416 . S
C169 C176 1.424 . S
N170 C169 1.379 . S
N170 C173 1.334 . S
N170 Tb179 2.617 . S
C171 C173 1.390 . S
C171 C174 1.339 . S
C171 H191 0.930 . S
C172 C169 1.416 . S
C172 C174 1.416 . S
C172 C178 1.448 . S
C173 N170 1.334 . S
C173 C171 1.390 . S
C173 H184 0.930 . S
C174 C171 1.339 . S
C174 C172 1.416 . S
C174 H195 0.930 . S
C175 C176 1.413 . S
C175 C177 1.427 . S
C175 C181 1.416 . S
C176 C169 1.424 . S
C176 C175 1.413 . S
C176 N180 1.361 . S
C177 C175 1.427 . S
C177 C178 1.328 . S
C177 H192 0.929 . S
C178 C172 1.448 . S
C178 C177 1.328 . S
C178 H193 0.930 . S
Tb179 N170 2.617 . S
Tb179 N180 2.572 . S
Tb179 O214 2.349 . S
Tb179 O217 2.393 . S
Tb179 O218 2.465 . S
Tb179 O219 2.387 . S
Tb179 O221 2.428 . S
Tb179 O222 2.308 . S
Tb179 C243 2.802 . S
N180 C176 1.361 . S
N180 Tb179 2.572 . S
N180 C182 1.340 . S
C181 C175 1.416 . S
C181 C183 1.332 . S
C181 H189 0.931 . S
C182 N180 1.340 . S
C182 C183 1.407 . S
C182 H188 0.930 . S
C183 C181 1.332 . S
C183 C182 1.407 . S
C183 H185 0.929 . S
H184 C173 0.930 . S
H185 C183 0.929 . S
H186 C201 0.930 . S
H187 C208 0.929 . S
H188 C182 0.930 . S
H189 C181 0.931 . S
H190 C204 0.930 . S
H191 C171 0.930 . S
H192 C177 0.929 . S
H193 C178 0.930 . S
H194 C199 0.930 . S
H195 C174 0.930 . S
H196 C207 0.931 . S
N197 Tb168 2.617 . S
N197 C198 1.379 . S
N197 C201 1.334 . S
C198 N197 1.379 . S
C198 C200 1.416 . S
C198 C206 1.424 . S
C199 H194 0.930 . S
C199 C201 1.390 1_545 S
C199 C202 1.339 1_545 S
C200 C198 1.416 . S
C200 C202 1.416 . S
C200 C233 1.448 . S
C201 H186 0.930 . S
C201 N197 1.334 . S
C201 C199 1.390 1_565 S
C202 C199 1.339 1_565 S
C202 C200 1.416 . S
C202 H209 0.930 1_565 S
N203 Tb168 2.572 . S
N203 C204 1.340 . S
N203 C206 1.361 . S
C204 H190 0.930 . S
C204 N203 1.340 . S
C204 C208 1.407 . S
C205 C206 1.413 . S
C205 C207 1.416 . S
C205 C234 1.427 . S
C206 C198 1.424 . S
C206 N203 1.361 . S
C206 C205 1.413 . S
C207 H196 0.931 . S
C207 C205 1.416 . S
C207 C208 1.332 . S
C208 H187 0.929 . S
C208 C204 1.407 . S
C208 C207 1.332 . S
H209 C202 0.930 1_545 S
H210 C233 0.930 . S
H211 C234 0.929 . S
O212 Tb168 2.465 1_556 S
O212 C232 1.264 . S
O213 Tb168 2.387 . S
O213 C224 1.264 . S
O214 Tb179 2.349 . S
O214 C224 1.243 . S
O215 Tb168 2.428 1_556 S
O215 C232 1.256 . S
O216 Tb168 2.308 . S
O216 C231 1.266 . S
O217 Tb179 2.393 . S
O217 C231 1.248 . S
O218 Tb179 2.465 . S
O218 C243 1.264 . S
O219 Tb179 2.387 . S
O219 C235 1.264 . S
O220 Tb168 2.349 . S
O220 C235 1.243 . S
O221 Tb179 2.428 . S
O221 C243 1.256 . S
O222 Tb179 2.308 . S
O222 C242 1.266 . S
O223 Tb168 2.393 . S
O223 C242 1.248 . S
C224 O213 1.264 . S
C224 O214 1.243 . S
C225 C228 1.399 . S
C225 C230 1.383 . S
C225 C232 1.496 . S
C226 C227 1.399 . S
C226 C230 1.389 . S
C227 C226 1.399 . S
C227 C229 1.380 . S
C227 H244 0.929 . S
C228 C225 1.399 . S
C228 C229 1.392 . S
C228 H245 0.929 . S
C229 C227 1.380 . S
C229 C228 1.392 . S
C229 H246 0.929 . S
C230 C225 1.383 . S
C230 C226 1.389 . S
C230 H247 0.931 . S
C231 O216 1.266 . S
C231 O217 1.248 . S
C232 Tb168 2.802 1_556 S
C232 O212 1.264 . S
C232 O215 1.256 . S
C232 C225 1.496 . S
C233 C200 1.448 . S
C233 H210 0.930 . S
C233 C234 1.328 . S
C234 C205 1.427 . S
C234 H211 0.929 . S
C234 C233 1.328 . S
C235 O219 1.264 . S
C235 O220 1.243 . S
C236 C239 1.399 . S
C236 C240 1.383 . S
C236 C243 1.496 . S
C237 C238 1.399 . S
C237 C240 1.389 . S
C238 C237 1.399 . S
C238 C241 1.380 . S
C238 H248 0.929 . S
C239 C236 1.399 . S
C239 C241 1.392 . S
C239 H249 0.929 . S
C240 C236 1.383 . S
C240 C237 1.389 . S
C240 H250 0.931 . S
C241 C238 1.380 . S
C241 C239 1.392 . S
C241 H251 0.929 . S
C242 O222 1.266 . S
C242 O223 1.248 . S
C243 Tb179 2.802 . S
C243 O218 1.264 . S
C243 O221 1.256 . S
C243 C236 1.496 . S
H244 C227 0.929 . S
H245 C228 0.929 . S
H246 C229 0.929 . S
H247 C230 0.931 . S
H248 C238 0.929 . S
H249 C239 0.929 . S
H250 C240 0.931 . S
H251 C241 0.929 . S
Tb252 N281 2.617 . S
Tb252 N287 2.572 . S
Tb252 O296 2.465 . S
Tb252 O297 2.387 . S
Tb252 O299 2.428 . S
Tb252 O300 2.308 . S
Tb252 O304 2.349 . S
Tb252 O307 2.393 . S
Tb252 C316 2.802 . S
C253 N254 1.379 . S
C253 C256 1.416 . S
C253 C260 1.424 . S
N254 C253 1.379 . S
N254 C257 1.334 . S
N254 Tb263 2.617 . S
C255 C257 1.390 1_455 S
C255 C258 1.339 1_455 S
C255 H275 0.930 . S
C256 C253 1.416 . S
C256 C258 1.416 . S
C256 C262 1.448 . S
C257 N254 1.334 . S
C257 C255 1.390 1_655 S
C257 H268 0.930 . S
C258 C255 1.339 1_655 S
C258 C256 1.416 . S
C258 H279 0.930 1_655 S
C259 C260 1.413 . S
C259 C261 1.427 . S
C259 C265 1.416 . S
C260 C253 1.424 . S
C260 C259 1.413 . S
C260 N264 1.361 . S
C261 C259 1.427 . S
C261 C262 1.328 . S
C261 H276 0.929 . S
C262 C256 1.448 . S
C262 C261 1.328 . S
C262 H277 0.930 . S
Tb263 N254 2.617 . S
Tb263 N264 2.572 . S
Tb263 O298 2.349 . S
Tb263 O301 2.393 . S
Tb263 O302 2.465 1_556 S
Tb263 O303 2.387 . S
Tb263 O305 2.428 1_556 S
Tb263 O306 2.308 . S
Tb263 C327 2.802 1_556 S
N264 C260 1.361 . S
N264 Tb263 2.572 . S
N264 C266 1.340 . S
C265 C259 1.416 . S
C265 C267 1.332 . S
C265 H273 0.931 . S
C266 N264 1.340 . S
C266 C267 1.407 . S
C266 H272 0.930 . S
C267 C265 1.332 . S
C267 C266 1.407 . S
C267 H269 0.929 . S
H268 C257 0.930 . S
H269 C267 0.929 . S
H270 C285 0.930 . S
H271 C292 0.929 . S
H272 C266 0.930 . S
H273 C265 0.931 . S
H274 C288 0.930 . S
H275 C255 0.930 . S
H276 C261 0.929 . S
H277 C262 0.930 . S
H278 C283 0.930 . S
H279 C258 0.930 1_455 S
H280 C291 0.931 . S
N281 Tb252 2.617 . S
N281 C282 1.379 . S
N281 C285 1.334 . S
C282 N281 1.379 . S
C282 C284 1.416 . S
C282 C290 1.424 . S
C283 H278 0.930 . S
C283 C285 1.390 . S
C283 C286 1.339 . S
C284 C282 1.416 . S
C284 C286 1.416 . S
C284 C317 1.448 . S
C285 H270 0.930 . S
C285 N281 1.334 . S
C285 C283 1.390 . S
C286 C283 1.339 . S
C286 C284 1.416 . S
C286 H293 0.930 . S
N287 Tb252 2.572 . S
N287 C288 1.340 . S
N287 C290 1.361 . S
C288 H274 0.930 . S
C288 N287 1.340 . S
C288 C292 1.407 . S
C289 C290 1.413 . S
C289 C291 1.416 . S
C289 C318 1.427 . S
C290 C282 1.424 . S
C290 N287 1.361 . S
C290 C289 1.413 . S
C291 H280 0.931 . S
C291 C289 1.416 . S
C291 C292 1.332 . S
C292 H271 0.929 . S
C292 C288 1.407 . S
C292 C291 1.332 . S
H293 C286 0.930 . S
H294 C317 0.930 . S
H295 C318 0.929 . S
O296 Tb252 2.465 . S
O296 C316 1.264 . S
O297 Tb252 2.387 . S
O297 C308 1.264 . S
O298 Tb263 2.349 . S
O298 C308 1.243 . S
O299 Tb252 2.428 . S
O299 C316 1.256 . S
O300 Tb252 2.308 . S
O300 C315 1.266 . S
O301 Tb263 2.393 . S
O301 C315 1.248 . S
O302 Tb263 2.465 1_554 S
O302 C327 1.264 . S
O303 Tb263 2.387 . S
O303 C319 1.264 . S
O304 Tb252 2.349 . S
O304 C319 1.243 . S
O305 Tb263 2.428 1_554 S
O305 C327 1.256 . S
O306 Tb263 2.308 . S
O306 C326 1.266 . S
O307 Tb252 2.393 . S
O307 C326 1.248 . S
C308 O297 1.264 . S
C308 O298 1.243 . S
C309 C312 1.399 . S
C309 C314 1.383 . S
C309 C316 1.496 . S
C310 C311 1.399 . S
C310 C314 1.389 . S
C311 C310 1.399 . S
C311 C313 1.380 . S
C311 H328 0.929 . S
C312 C309 1.399 . S
C312 C313 1.392 . S
C312 H329 0.929 . S
C313 C311 1.380 . S
C313 C312 1.392 . S
C313 H330 0.929 . S
C314 C309 1.383 . S
C314 C310 1.389 . S
C314 H331 0.931 . S
C315 O300 1.266 . S
C315 O301 1.248 . S
C316 Tb252 2.802 . S
C316 O296 1.264 . S
C316 O299 1.256 . S
C316 C309 1.496 . S
C317 C284 1.448 . S
C317 H294 0.930 . S
C317 C318 1.328 . S
C318 C289 1.427 . S
C318 H295 0.929 . S
C318 C317 1.328 . S
C319 O303 1.264 . S
C319 O304 1.243 . S
C320 C323 1.399 . S
C320 C324 1.383 . S
C320 C327 1.496 . S
C321 C322 1.399 . S
C321 C324 1.389 . S
C322 C321 1.399 . S
C322 C325 1.380 . S
C322 H332 0.929 . S
C323 C320 1.399 . S
C323 C325 1.392 . S
C323 H333 0.929 . S
C324 C320 1.383 . S
C324 C321 1.389 . S
C324 H334 0.931 . S
C325 C322 1.380 . S
C325 C323 1.392 . S
C325 H335 0.929 . S
C326 O306 1.266 . S
C326 O307 1.248 . S
C327 Tb263 2.802 1_554 S
C327 O302 1.264 . S
C327 O305 1.256 . S
C327 C320 1.496 . S
H328 C311 0.929 . S
H329 C312 0.929 . S
H330 C313 0.929 . S
H331 C314 0.931 . S
H332 C322 0.929 . S
H333 C323 0.929 . S
H334 C324 0.931 . S
H335 C325 0.929 . S
Tb336 N365 2.617 . S
Tb336 N371 2.572 . S
Tb336 O380 2.465 . S
Tb336 O381 2.387 . S
Tb336 O383 2.428 . S
Tb336 O384 2.308 . S
Tb336 O388 2.349 . S
Tb336 O391 2.393 . S
Tb336 C400 2.802 . S
C337 N338 1.379 . S
C337 C340 1.416 . S
C337 C344 1.424 . S
N338 C337 1.379 . S
N338 C341 1.334 . S
N338 Tb347 2.617 . S
C339 C341 1.390 . S
C339 C342 1.339 . S
C339 H359 0.930 . S
C340 C337 1.416 . S
C340 C342 1.416 . S
C340 C346 1.448 . S
C341 N338 1.334 . S
C341 C339 1.390 . S
C341 H352 0.930 . S
C342 C339 1.339 . S
C342 C340 1.416 . S
C342 H363 0.930 . S
C343 C344 1.413 . S
C343 C345 1.427 . S
C343 C349 1.416 . S
C344 C337 1.424 . S
C344 C343 1.413 . S
C344 N348 1.361 . S
C345 C343 1.427 . S
C345 C346 1.328 . S
C345 H360 0.929 . S
C346 C340 1.448 . S
C346 C345 1.328 . S
C346 H361 0.930 . S
Tb347 N338 2.617 . S
Tb347 N348 2.572 . S
Tb347 O382 2.349 . S
Tb347 O385 2.393 . S
Tb347 O386 2.465 1_554 S
Tb347 O387 2.387 . S
Tb347 O389 2.428 1_554 S
Tb347 O390 2.308 . S
Tb347 C411 2.802 1_554 S
N348 C344 1.361 . S
N348 Tb347 2.572 . S
N348 C350 1.340 . S
C349 C343 1.416 . S
C349 C351 1.332 . S
C349 H357 0.931 . S
C350 N348 1.340 . S
C350 C351 1.407 . S
C350 H356 0.930 . S
C351 C349 1.332 . S
C351 C350 1.407 . S
C351 H353 0.929 . S
H352 C341 0.930 . S
H353 C351 0.929 . S
H354 C369 0.930 . S
H355 C376 0.929 . S
H356 C350 0.930 . S
H357 C349 0.931 . S
H358 C372 0.930 . S
H359 C339 0.930 . S
H360 C345 0.929 . S
H361 C346 0.930 . S
H362 C367 0.930 . S
H363 C342 0.930 . S
H364 C375 0.931 . S
N365 Tb336 2.617 . S
N365 C366 1.379 . S
N365 C369 1.334 . S
C366 N365 1.379 . S
C366 C368 1.416 . S
C366 C374 1.424 . S
C367 H362 0.930 . S
C367 C369 1.390 . S
C367 C370 1.339 . S
C368 C366 1.416 . S
C368 C370 1.416 . S
C368 C401 1.448 . S
C369 H354 0.930 . S
C369 N365 1.334 . S
C369 C367 1.390 . S
C370 C367 1.339 . S
C370 C368 1.416 . S
C370 H377 0.930 . S
N371 Tb336 2.572 . S
N371 C372 1.340 . S
N371 C374 1.361 . S
C372 H358 0.930 . S
C372 N371 1.340 . S
C372 C376 1.407 . S
C373 C374 1.413 . S
C373 C375 1.416 . S
C373 C402 1.427 . S
C374 C366 1.424 . S
C374 N371 1.361 . S
C374 C373 1.413 . S
C375 H364 0.931 . S
C375 C373 1.416 . S
C375 C376 1.332 . S
C376 H355 0.929 . S
C376 C372 1.407 . S
C376 C375 1.332 . S
H377 C370 0.930 . S
H378 C401 0.930 . S
H379 C402 0.929 . S
O380 Tb336 2.465 . S
O380 C400 1.264 . S
O381 Tb336 2.387 . S
O381 C392 1.264 . S
O382 Tb347 2.349 . S
O382 C392 1.243 . S
O383 Tb336 2.428 . S
O383 C400 1.256 . S
O384 Tb336 2.308 . S
O384 C399 1.266 . S
O385 Tb347 2.393 . S
O385 C399 1.248 . S
O386 Tb347 2.465 1_556 S
O386 C411 1.264 . S
O387 Tb347 2.387 . S
O387 C403 1.264 . S
O388 Tb336 2.349 . S
O388 C403 1.243 . S
O389 Tb347 2.428 1_556 S
O389 C411 1.256 . S
O390 Tb347 2.308 . S
O390 C410 1.266 . S
O391 Tb336 2.393 . S
O391 C410 1.248 . S
C392 O381 1.264 . S
C392 O382 1.243 . S
C393 C396 1.399 . S
C393 C398 1.383 . S
C393 C400 1.496 . S
C394 C395 1.399 . S
C394 C398 1.389 . S
C395 C394 1.399 . S
C395 C397 1.380 . S
C395 H412 0.929 . S
C396 C393 1.399 . S
C396 C397 1.392 . S
C396 H413 0.929 . S
C397 C395 1.380 . S
C397 C396 1.392 . S
C397 H414 0.929 . S
C398 C393 1.383 . S
C398 C394 1.389 . S
C398 H415 0.931 . S
C399 O384 1.266 . S
C399 O385 1.248 . S
C400 Tb336 2.802 . S
C400 O380 1.264 . S
C400 O383 1.256 . S
C400 C393 1.496 . S
C401 C368 1.448 . S
C401 H378 0.930 . S
C401 C402 1.328 . S
C402 C373 1.427 . S
C402 H379 0.929 . S
C402 C401 1.328 . S
C403 O387 1.264 . S
C403 O388 1.243 . S
C404 C407 1.399 . S
C404 C408 1.383 . S
C404 C411 1.496 . S
C405 C406 1.399 . S
C405 C408 1.389 . S
C406 C405 1.399 . S
C406 C409 1.380 . S
C406 H416 0.929 . S
C407 C404 1.399 . S
C407 C409 1.392 . S
C407 H417 0.929 . S
C408 C404 1.383 . S
C408 C405 1.389 . S
C408 H418 0.931 . S
C409 C406 1.380 . S
C409 C407 1.392 . S
C409 H419 0.929 . S
C410 O390 1.266 . S
C410 O391 1.248 . S
C411 Tb347 2.802 1_556 S
C411 O386 1.264 . S
C411 O389 1.256 . S
C411 C404 1.496 . S
H412 C395 0.929 . S
H413 C396 0.929 . S
H414 C397 0.929 . S
H415 C398 0.931 . S
H416 C406 0.929 . S
H417 C407 0.929 . S
H418 C408 0.931 . S
H419 C409 0.929 . S
Tb420 N449 2.617 . S
Tb420 N455 2.572 . S
Tb420 O464 2.465 1_556 S
Tb420 O465 2.387 . S
Tb420 O467 2.428 1_556 S
Tb420 O468 2.308 . S
Tb420 O472 2.349 . S
Tb420 O475 2.393 . S
Tb420 C484 2.802 1_556 S
C421 N422 1.379 . S
C421 C424 1.416 . S
C421 C428 1.424 . S
N422 C421 1.379 . S
N422 C425 1.334 . S
N422 Tb431 2.617 . S
C423 C425 1.390 . S
C423 C426 1.339 . S
C423 H443 0.930 . S
C424 C421 1.416 . S
C424 C426 1.416 . S
C424 C430 1.448 . S
C425 N422 1.334 . S
C425 C423 1.390 . S
C425 H436 0.930 . S
C426 C423 1.339 . S
C426 C424 1.416 . S
C426 H447 0.930 . S
C427 C428 1.413 . S
C427 C429 1.427 . S
C427 C433 1.416 . S
C428 C421 1.424 . S
C428 C427 1.413 . S
C428 N432 1.361 . S
C429 C427 1.427 . S
C429 C430 1.328 . S
C429 H444 0.929 . S
C430 C424 1.448 . S
C430 C429 1.328 . S
C430 H445 0.930 . S
Tb431 N422 2.617 . S
Tb431 N432 2.572 . S
Tb431 O466 2.349 . S
Tb431 O469 2.393 . S
Tb431 O470 2.465 . S
Tb431 O471 2.387 . S
Tb431 O473 2.428 . S
Tb431 O474 2.308 . S
Tb431 C495 2.802 . S
N432 C428 1.361 . S
N432 Tb431 2.572 . S
N432 C434 1.340 . S
C433 C427 1.416 . S
C433 C435 1.332 . S
C433 H441 0.931 . S
C434 N432 1.340 . S
C434 C435 1.407 . S
C434 H440 0.930 . S
C435 C433 1.332 . S
C435 C434 1.407 . S
C435 H437 0.929 . S
H436 C425 0.930 . S
H437 C435 0.929 . S
H438 C453 0.930 . S
H439 C460 0.929 . S
H440 C434 0.930 . S
H441 C433 0.931 . S
H442 C456 0.930 . S
H443 C423 0.930 . S
H444 C429 0.929 . S
H445 C430 0.930 . S
H446 C451 0.930 . S
H447 C426 0.930 . S
H448 C459 0.931 . S
N449 Tb420 2.617 . S
N449 C450 1.379 . S
N449 C453 1.334 . S
C450 N449 1.379 . S
C450 C452 1.416 . S
C450 C458 1.424 . S
C451 H446 0.930 . S
C451 C453 1.390 . S
C451 C454 1.339 . S
C452 C450 1.416 . S
C452 C454 1.416 . S
C452 C485 1.448 . S
C453 H438 0.930 . S
C453 N449 1.334 . S
C453 C451 1.390 . S
C454 C451 1.339 . S
C454 C452 1.416 . S
C454 H461 0.930 . S
N455 Tb420 2.572 . S
N455 C456 1.340 . S
N455 C458 1.361 . S
C456 H442 0.930 . S
C456 N455 1.340 . S
C456 C460 1.407 . S
C457 C458 1.413 . S
C457 C459 1.416 . S
C457 C486 1.427 . S
C458 C450 1.424 . S
C458 N455 1.361 . S
C458 C457 1.413 . S
C459 H448 0.931 . S
C459 C457 1.416 . S
C459 C460 1.332 . S
C460 H439 0.929 . S
C460 C456 1.407 . S
C460 C459 1.332 . S
H461 C454 0.930 . S
H462 C485 0.930 . S
H463 C486 0.929 . S
O464 Tb420 2.465 1_554 S
O464 C484 1.264 . S
O465 Tb420 2.387 . S
O465 C476 1.264 . S
O466 Tb431 2.349 . S
O466 C476 1.243 . S
O467 Tb420 2.428 1_554 S
O467 C484 1.256 . S
O468 Tb420 2.308 . S
O468 C483 1.266 . S
O469 Tb431 2.393 . S
O469 C483 1.248 . S
O470 Tb431 2.465 . S
O470 C495 1.264 . S
O471 Tb431 2.387 . S
O471 C487 1.264 . S
O472 Tb420 2.349 . S
O472 C487 1.243 . S
O473 Tb431 2.428 . S
O473 C495 1.256 . S
O474 Tb431 2.308 . S
O474 C494 1.266 . S
O475 Tb420 2.393 . S
O475 C494 1.248 . S
C476 O465 1.264 . S
C476 O466 1.243 . S
C477 C480 1.399 . S
C477 C482 1.383 . S
C477 C484 1.496 . S
C478 C479 1.399 . S
C478 C482 1.389 . S
C479 C478 1.399 . S
C479 C481 1.380 . S
C479 H496 0.929 . S
C480 C477 1.399 . S
C480 C481 1.392 . S
C480 H497 0.929 . S
C481 C479 1.380 . S
C481 C480 1.392 . S
C481 H498 0.929 . S
C482 C477 1.383 . S
C482 C478 1.389 . S
C482 H499 0.931 . S
C483 O468 1.266 . S
C483 O469 1.248 . S
C484 Tb420 2.802 1_554 S
C484 O464 1.264 . S
C484 O467 1.256 . S
C484 C477 1.496 . S
C485 C452 1.448 . S
C485 H462 0.930 . S
C485 C486 1.328 . S
C486 C457 1.427 . S
C486 H463 0.929 . S
C486 C485 1.328 . S
C487 O471 1.264 . S
C487 O472 1.243 . S
C488 C491 1.399 . S
C488 C492 1.383 . S
C488 C495 1.496 . S
C489 C490 1.399 . S
C489 C492 1.389 . S
C490 C489 1.399 . S
C490 C493 1.380 . S
C490 H500 0.929 . S
C491 C488 1.399 . S
C491 C493 1.392 . S
C491 H501 0.929 . S
C492 C488 1.383 . S
C492 C489 1.389 . S
C492 H502 0.931 . S
C493 C490 1.380 . S
C493 C491 1.392 . S
C493 H503 0.929 . S
C494 O474 1.266 . S
C494 O475 1.248 . S
C495 Tb431 2.802 . S
C495 O470 1.264 . S
C495 O473 1.256 . S
C495 C488 1.496 . S
H496 C479 0.929 . S
H497 C480 0.929 . S
H498 C481 0.929 . S
H499 C482 0.931 . S
H500 C490 0.929 . S
H501 C491 0.929 . S
H502 C492 0.931 . S
H503 C493 0.929 . S
Tb504 N533 2.617 . S
Tb504 N539 2.572 . S
Tb504 O548 2.465 . S
Tb504 O549 2.387 . S
Tb504 O551 2.428 . S
Tb504 O552 2.308 . S
Tb504 O556 2.349 . S
Tb504 O559 2.393 . S
Tb504 C568 2.802 . S
C505 N506 1.379 . S
C505 C508 1.416 . S
C505 C512 1.424 . S
N506 C505 1.379 . S
N506 C509 1.334 . S
N506 Tb515 2.617 . S
C507 C509 1.390 . S
C507 C510 1.339 . S
C507 H527 0.930 . S
C508 C505 1.416 . S
C508 C510 1.416 . S
C508 C514 1.448 . S
C509 N506 1.334 . S
C509 C507 1.390 . S
C509 H520 0.930 . S
C510 C507 1.339 . S
C510 C508 1.416 . S
C510 H531 0.930 . S
C511 C512 1.413 . S
C511 C513 1.427 . S
C511 C517 1.416 . S
C512 C505 1.424 . S
C512 C511 1.413 . S
C512 N516 1.361 . S
C513 C511 1.427 . S
C513 C514 1.328 . S
C513 H528 0.929 . S
C514 C508 1.448 . S
C514 C513 1.328 . S
C514 H529 0.930 . S
Tb515 N506 2.617 . S
Tb515 N516 2.572 . S
Tb515 O550 2.349 . S
Tb515 O553 2.393 . S
Tb515 O554 2.465 1_554 S
Tb515 O555 2.387 . S
Tb515 O557 2.428 1_554 S
Tb515 O558 2.308 . S
Tb515 C579 2.802 1_554 S
N516 C512 1.361 . S
N516 Tb515 2.572 . S
N516 C518 1.340 . S
C517 C511 1.416 . S
C517 C519 1.332 . S
C517 H525 0.931 . S
C518 N516 1.340 . S
C518 C519 1.407 . S
C518 H524 0.930 . S
C519 C517 1.332 . S
C519 C518 1.407 . S
C519 H521 0.929 . S
H520 C509 0.930 . S
H521 C519 0.929 . S
H522 C537 0.930 . S
H523 C544 0.929 . S
H524 C518 0.930 . S
H525 C517 0.931 . S
H526 C540 0.930 . S
H527 C507 0.930 . S
H528 C513 0.929 . S
H529 C514 0.930 . S
H530 C535 0.930 . S
H531 C510 0.930 . S
H532 C543 0.931 . S
N533 Tb504 2.617 . S
N533 C534 1.379 . S
N533 C537 1.334 . S
C534 N533 1.379 . S
C534 C536 1.416 . S
C534 C542 1.424 . S
C535 H530 0.930 . S
C535 C537 1.390 . S
C535 C538 1.339 . S
C536 C534 1.416 . S
C536 C538 1.416 . S
C536 C569 1.448 . S
C537 H522 0.930 . S
C537 N533 1.334 . S
C537 C535 1.390 . S
C538 C535 1.339 . S
C538 C536 1.416 . S
C538 H545 0.930 . S
N539 Tb504 2.572 . S
N539 C540 1.340 . S
N539 C542 1.361 . S
C540 H526 0.930 . S
C540 N539 1.340 . S
C540 C544 1.407 . S
C541 C542 1.413 . S
C541 C543 1.416 . S
C541 C570 1.427 . S
C542 C534 1.424 . S
C542 N539 1.361 . S
C542 C541 1.413 . S
C543 H532 0.931 . S
C543 C541 1.416 . S
C543 C544 1.332 . S
C544 H523 0.929 . S
C544 C540 1.407 . S
C544 C543 1.332 . S
H545 C538 0.930 . S
H546 C569 0.930 . S
H547 C570 0.929 . S
O548 Tb504 2.465 . S
O548 C568 1.264 . S
O549 Tb504 2.387 . S
O549 C560 1.264 . S
O550 Tb515 2.349 . S
O550 C560 1.243 . S
O551 Tb504 2.428 . S
O551 C568 1.256 . S
O552 Tb504 2.308 . S
O552 C567 1.266 . S
O553 Tb515 2.393 . S
O553 C567 1.248 . S
O554 Tb515 2.465 1_556 S
O554 C579 1.264 . S
O555 Tb515 2.387 . S
O555 C571 1.264 . S
O556 Tb504 2.349 . S
O556 C571 1.243 . S
O557 Tb515 2.428 1_556 S
O557 C579 1.256 . S
O558 Tb515 2.308 . S
O558 C578 1.266 . S
O559 Tb504 2.393 . S
O559 C578 1.248 . S
C560 O549 1.264 . S
C560 O550 1.243 . S
C561 C564 1.399 . S
C561 C566 1.383 . S
C561 C568 1.496 . S
C562 C563 1.399 . S
C562 C566 1.389 . S
C563 C562 1.399 . S
C563 C565 1.380 . S
C563 H580 0.929 . S
C564 C561 1.399 . S
C564 C565 1.392 . S
C564 H581 0.929 . S
C565 C563 1.380 . S
C565 C564 1.392 . S
C565 H582 0.929 . S
C566 C561 1.383 . S
C566 C562 1.389 . S
C566 H583 0.931 . S
C567 O552 1.266 . S
C567 O553 1.248 . S
C568 Tb504 2.802 . S
C568 O548 1.264 . S
C568 O551 1.256 . S
C568 C561 1.496 . S
C569 C536 1.448 . S
C569 H546 0.930 . S
C569 C570 1.328 . S
C570 C541 1.427 . S
C570 H547 0.929 . S
C570 C569 1.328 . S
C571 O555 1.264 . S
C571 O556 1.243 . S
C572 C575 1.399 . S
C572 C576 1.383 . S
C572 C579 1.496 . S
C573 C574 1.399 . S
C573 C576 1.389 . S
C574 C573 1.399 . S
C574 C577 1.380 . S
C574 H584 0.929 . S
C575 C572 1.399 . S
C575 C577 1.392 . S
C575 H585 0.929 . S
C576 C572 1.383 . S
C576 C573 1.389 . S
C576 H586 0.931 . S
C577 C574 1.380 . S
C577 C575 1.392 . S
C577 H587 0.929 . S
C578 O558 1.266 . S
C578 O559 1.248 . S
C579 Tb515 2.802 1_556 S
C579 O554 1.264 . S
C579 O557 1.256 . S
C579 C572 1.496 . S
H580 C563 0.929 . S
H581 C564 0.929 . S
H582 C565 0.929 . S
H583 C566 0.931 . S
H584 C574 0.929 . S
H585 C575 0.929 . S
H586 C576 0.931 . S
H587 C577 0.929 . S
Tb588 N617 2.617 . S
Tb588 N623 2.572 . S
Tb588 O632 2.465 1_556 S
Tb588 O633 2.387 . S
Tb588 O635 2.428 1_556 S
Tb588 O636 2.308 . S
Tb588 O640 2.349 . S
Tb588 O643 2.393 . S
Tb588 C652 2.802 1_556 S
C589 N590 1.379 . S
C589 C592 1.416 . S
C589 C596 1.424 . S
N590 C589 1.379 . S
N590 C593 1.334 . S
N590 Tb599 2.617 . S
C591 C593 1.390 . S
C591 C594 1.339 . S
C591 H611 0.930 . S
C592 C589 1.416 . S
C592 C594 1.416 . S
C592 C598 1.448 . S
C593 N590 1.334 . S
C593 C591 1.390 . S
C593 H604 0.930 . S
C594 C591 1.339 . S
C594 C592 1.416 . S
C594 H615 0.930 . S
C595 C596 1.413 . S
C595 C597 1.427 . S
C595 C601 1.416 . S
C596 C589 1.424 . S
C596 C595 1.413 . S
C596 N600 1.361 . S
C597 C595 1.427 . S
C597 C598 1.328 . S
C597 H612 0.929 . S
C598 C592 1.448 . S
C598 C597 1.328 . S
C598 H613 0.930 . S
Tb599 N590 2.617 . S
Tb599 N600 2.572 . S
Tb599 O634 2.349 . S
Tb599 O637 2.393 . S
Tb599 O638 2.465 . S
Tb599 O639 2.387 . S
Tb599 O641 2.428 . S
Tb599 O642 2.308 . S
Tb599 C663 2.802 . S
N600 C596 1.361 . S
N600 Tb599 2.572 . S
N600 C602 1.340 . S
C601 C595 1.416 . S
C601 C603 1.332 . S
C601 H609 0.931 . S
C602 N600 1.340 . S
C602 C603 1.407 . S
C602 H608 0.930 . S
C603 C601 1.332 . S
C603 C602 1.407 . S
C603 H605 0.929 . S
H604 C593 0.930 . S
H605 C603 0.929 . S
H606 C621 0.930 . S
H607 C628 0.929 . S
H608 C602 0.930 . S
H609 C601 0.931 . S
H610 C624 0.930 . S
H611 C591 0.930 . S
H612 C597 0.929 . S
H613 C598 0.930 . S
H614 C619 0.930 . S
H615 C594 0.930 . S
H616 C627 0.931 . S
N617 Tb588 2.617 . S
N617 C618 1.379 . S
N617 C621 1.334 . S
C618 N617 1.379 . S
C618 C620 1.416 . S
C618 C626 1.424 . S
C619 H614 0.930 . S
C619 C621 1.390 . S
C619 C622 1.339 . S
C620 C618 1.416 . S
C620 C622 1.416 . S
C620 C653 1.448 . S
C621 H606 0.930 . S
C621 N617 1.334 . S
C621 C619 1.390 . S
C622 C619 1.339 . S
C622 C620 1.416 . S
C622 H629 0.930 . S
N623 Tb588 2.572 . S
N623 C624 1.340 . S
N623 C626 1.361 . S
C624 H610 0.930 . S
C624 N623 1.340 . S
C624 C628 1.407 . S
C625 C626 1.413 . S
C625 C627 1.416 . S
C625 C654 1.427 . S
C626 C618 1.424 . S
C626 N623 1.361 . S
C626 C625 1.413 . S
C627 H616 0.931 . S
C627 C625 1.416 . S
C627 C628 1.332 . S
C628 H607 0.929 . S
C628 C624 1.407 . S
C628 C627 1.332 . S
H629 C622 0.930 . S
H630 C653 0.930 . S
H631 C654 0.929 . S
O632 Tb588 2.465 1_554 S
O632 C652 1.264 . S
O633 Tb588 2.387 . S
O633 C644 1.264 . S
O634 Tb599 2.349 . S
O634 C644 1.243 . S
O635 Tb588 2.428 1_554 S
O635 C652 1.256 . S
O636 Tb588 2.308 . S
O636 C651 1.266 . S
O637 Tb599 2.393 . S
O637 C651 1.248 . S
O638 Tb599 2.465 . S
O638 C663 1.264 . S
O639 Tb599 2.387 . S
O639 C655 1.264 . S
O640 Tb588 2.349 . S
O640 C655 1.243 . S
O641 Tb599 2.428 . S
O641 C663 1.256 . S
O642 Tb599 2.308 . S
O642 C662 1.266 . S
O643 Tb588 2.393 . S
O643 C662 1.248 . S
C644 O633 1.264 . S
C644 O634 1.243 . S
C645 C648 1.399 . S
C645 C650 1.383 . S
C645 C652 1.496 . S
C646 C647 1.399 . S
C646 C650 1.389 . S
C647 C646 1.399 . S
C647 C649 1.380 . S
C647 H664 0.929 . S
C648 C645 1.399 . S
C648 C649 1.392 . S
C648 H665 0.929 . S
C649 C647 1.380 . S
C649 C648 1.392 . S
C649 H666 0.929 . S
C650 C645 1.383 . S
C650 C646 1.389 . S
C650 H667 0.931 . S
C651 O636 1.266 . S
C651 O637 1.248 . S
C652 Tb588 2.802 1_554 S
C652 O632 1.264 . S
C652 O635 1.256 . S
C652 C645 1.496 . S
C653 C620 1.448 . S
C653 H630 0.930 . S
C653 C654 1.328 . S
C654 C625 1.427 . S
C654 H631 0.929 . S
C654 C653 1.328 . S
C655 O639 1.264 . S
C655 O640 1.243 . S
C656 C659 1.399 . S
C656 C660 1.383 . S
C656 C663 1.496 . S
C657 C658 1.399 . S
C657 C660 1.389 . S
C658 C657 1.399 . S
C658 C661 1.380 . S
C658 H668 0.929 . S
C659 C656 1.399 . S
C659 C661 1.392 . S
C659 H669 0.929 . S
C660 C656 1.383 . S
C660 C657 1.389 . S
C660 H670 0.931 . S
C661 C658 1.380 . S
C661 C659 1.392 . S
C661 H671 0.929 . S
C662 O642 1.266 . S
C662 O643 1.248 . S
C663 Tb599 2.802 . S
C663 O638 1.264 . S
C663 O641 1.256 . S
C663 C656 1.496 . S
H664 C647 0.929 . S
H665 C648 0.929 . S
H666 C649 0.929 . S
H667 C650 0.931 . S
H668 C658 0.929 . S
H669 C659 0.929 . S
H670 C660 0.931 . S
H671 C661 0.929 . S
Tb672 N701 2.617 . S
Tb672 N707 2.572 . S
Tb672 O716 2.465 . S
Tb672 O717 2.387 . S
Tb672 O719 2.428 . S
Tb672 O720 2.308 . S
Tb672 O724 2.349 . S
Tb672 O727 2.393 . S
Tb672 C736 2.802 . S
C673 N674 1.379 . S
C673 C676 1.416 . S
C673 C680 1.424 . S
N674 C673 1.379 . S
N674 C677 1.334 . S
N674 Tb683 2.617 . S
C675 C677 1.390 . S
C675 C678 1.339 . S
C675 H695 0.930 . S
C676 C673 1.416 . S
C676 C678 1.416 . S
C676 C682 1.448 . S
C677 N674 1.334 . S
C677 C675 1.390 . S
C677 H688 0.930 . S
C678 C675 1.339 . S
C678 C676 1.416 . S
C678 H699 0.930 . S
C679 C680 1.413 . S
C679 C681 1.427 . S
C679 C685 1.416 . S
C680 C673 1.424 . S
C680 C679 1.413 . S
C680 N684 1.361 . S
C681 C679 1.427 . S
C681 C682 1.328 . S
C681 H696 0.929 . S
C682 C676 1.448 . S
C682 C681 1.328 . S
C682 H697 0.930 . S
Tb683 N674 2.617 . S
Tb683 N684 2.572 . S
Tb683 O718 2.349 . S
Tb683 O721 2.393 . S
Tb683 O722 2.465 . S
Tb683 O723 2.387 . S
Tb683 O725 2.428 . S
Tb683 O726 2.308 . S
Tb683 C747 2.802 . S
N684 C680 1.361 . S
N684 Tb683 2.572 . S
N684 C686 1.340 . S
C685 C679 1.416 . S
C685 C687 1.332 . S
C685 H693 0.931 . S
C686 N684 1.340 . S
C686 C687 1.407 . S
C686 H692 0.930 . S
C687 C685 1.332 . S
C687 C686 1.407 . S
C687 H689 0.929 . S
H688 C677 0.930 . S
H689 C687 0.929 . S
H690 C705 0.930 . S
H691 C712 0.929 . S
H692 C686 0.930 . S
H693 C685 0.931 . S
H694 C708 0.930 . S
H695 C675 0.930 . S
H696 C681 0.929 . S
H697 C682 0.930 . S
H698 C703 0.930 . S
H699 C678 0.930 . S
H700 C711 0.946 . S
N701 Tb672 2.617 . S
N701 C702 1.379 . S
N701 C705 1.334 . S
C702 N701 1.379 . S
C702 C704 1.416 . S
C702 C710 1.424 . S
C703 H698 0.930 . S
C703 C705 1.390 . S
C703 C706 1.339 . S
C704 C702 1.416 . S
C704 C706 1.416 . S
C704 C737 1.448 1_655 S
C705 H690 0.930 . S
C705 N701 1.334 . S
C705 C703 1.390 . S
C706 C703 1.339 . S
C706 C704 1.416 . S
C706 H713 0.930 1_655 S
N707 Tb672 2.572 . S
N707 C708 1.340 . S
N707 C710 1.361 . S
C708 H694 0.930 . S
C708 N707 1.340 . S
C708 C712 1.407 . S
C709 C710 1.418 . S
C709 C711 1.416 1_655 S
C709 C738 1.422 1_655 S
C710 C702 1.424 . S
C710 N707 1.361 . S
C710 C709 1.418 . S
C711 H700 0.946 . S
C711 C709 1.416 1_455 S
C711 C712 1.317 1_455 S
C712 H691 0.929 . S
C712 C708 1.407 . S
C712 C711 1.317 1_655 S
H713 C706 0.930 1_455 S
H714 C737 0.930 . S
H715 C738 0.929 . S
O716 Tb672 2.465 . S
O716 C736 1.264 . S
O717 Tb672 2.387 . S
O717 C728 1.264 . S
O718 Tb683 2.349 . S
O718 C728 1.243 . S
O719 Tb672 2.428 . S
O719 C736 1.256 . S
O720 Tb672 2.308 . S
O720 C735 1.266 . S
O721 Tb683 2.393 . S
O721 C735 1.248 . S
O722 Tb683 2.465 . S
O722 C747 1.264 . S
O723 Tb683 2.387 . S
O723 C739 1.264 . S
O724 Tb672 2.349 . S
O724 C739 1.243 . S
O725 Tb683 2.428 . S
O725 C747 1.256 . S
O726 Tb683 2.308 . S
O726 C746 1.266 . S
O727 Tb672 2.393 . S
O727 C746 1.248 . S
C728 O717 1.264 . S
C728 O718 1.243 . S
C729 C732 1.399 . S
C729 C734 1.383 . S
C729 C736 1.496 . S
C730 C731 1.399 . S
C730 C734 1.389 . S
C731 C730 1.399 . S
C731 C733 1.380 . S
C731 H748 0.929 . S
C732 C729 1.399 . S
C732 C733 1.392 . S
C732 H749 0.929 . S
C733 C731 1.380 . S
C733 C732 1.392 . S
C733 H750 0.929 . S
C734 C729 1.383 . S
C734 C730 1.389 . S
C734 H751 0.931 . S
C735 O720 1.266 . S
C735 O721 1.248 . S
C736 Tb672 2.802 . S
C736 O716 1.264 . S
C736 O719 1.256 . S
C736 C729 1.496 . S
C737 C704 1.448 1_455 S
C737 H714 0.930 . S
C737 C738 1.328 . S
C738 C709 1.422 1_455 S
C738 H715 0.929 . S
C738 C737 1.328 . S
C739 O723 1.264 . S
C739 O724 1.243 . S
C740 C743 1.399 . S
C740 C744 1.383 . S
C740 C747 1.496 . S
C741 C742 1.399 . S
C741 C744 1.389 1_554 S
C742 C741 1.399 . S
C742 C745 1.380 . S
C742 H752 0.929 . S
C743 C740 1.399 . S
C743 C745 1.392 1_556 S
C743 H753 0.929 . S
C744 C740 1.383 . S
C744 C741 1.389 1_556 S
C744 H754 0.931 . S
C745 C742 1.380 . S
C745 C743 1.392 1_554 S
C745 H755 0.929 . S
C746 O726 1.266 . S
C746 O727 1.248 . S
C747 Tb683 2.802 . S
C747 O722 1.264 . S
C747 O725 1.256 . S
C747 C740 1.496 . S
H748 C731 0.929 . S
H749 C732 0.929 . S
H750 C733 0.929 . S
H751 C734 0.931 . S
H752 C742 0.929 . S
H753 C743 0.929 . S
H754 C744 0.931 . S
H755 C745 0.929 . S
Tb756 N785 2.617 . S
Tb756 N791 2.572 . S
Tb756 O800 2.465 . S
Tb756 O801 2.387 . S
Tb756 O803 2.428 . S
Tb756 O804 2.308 . S
Tb756 O808 2.349 . S
Tb756 O811 2.393 . S
Tb756 C820 2.802 . S
C757 N758 1.379 . S
C757 C760 1.416 . S
C757 C764 1.424 . S
N758 C757 1.379 . S
N758 C761 1.334 . S
N758 Tb767 2.617 . S
C759 C761 1.390 . S
C759 C762 1.339 . S
C759 H779 0.930 . S
C760 C757 1.416 . S
C760 C762 1.416 . S
C760 C766 1.448 1_545 S
C761 N758 1.334 . S
C761 C759 1.390 . S
C761 H772 0.930 . S
C762 C759 1.339 . S
C762 C760 1.416 . S
C762 H783 0.930 1_545 S
C763 C764 1.418 . S
C763 C765 1.422 1_545 S
C763 C769 1.416 1_545 S
C764 C757 1.424 . S
C764 C763 1.418 . S
C764 N768 1.361 . S
C765 C763 1.422 1_565 S
C765 C766 1.328 . S
C765 H780 0.929 . S
C766 C760 1.448 1_565 S
C766 C765 1.328 . S
C766 H781 0.930 . S
Tb767 N758 2.617 . S
Tb767 N768 2.572 . S
Tb767 O802 2.349 . S
Tb767 O805 2.393 . S
Tb767 O806 2.465 . S
Tb767 O807 2.387 . S
Tb767 O809 2.428 . S
Tb767 O810 2.308 . S
Tb767 C831 2.802 . S
N768 C764 1.361 . S
N768 Tb767 2.572 . S
N768 C770 1.340 . S
C769 C763 1.416 1_565 S
C769 C771 1.317 1_565 S
C769 H777 0.946 . S
C770 N768 1.340 . S
C770 C771 1.407 . S
C770 H776 0.930 . S
C771 C769 1.317 1_545 S
C771 C770 1.407 . S
C771 H773 0.929 . S
H772 C761 0.930 . S
H773 C771 0.929 . S
H774 C789 0.930 . S
H775 C796 0.929 . S
H776 C770 0.930 . S
H777 C769 0.946 . S
H778 C792 0.930 . S
H779 C759 0.930 . S
H780 C765 0.929 . S
H781 C766 0.930 . S
H782 C787 0.930 . S
H783 C762 0.930 1_565 S
H784 C795 0.931 . S
N785 Tb756 2.617 . S
N785 C786 1.379 . S
N785 C789 1.334 . S
C786 N785 1.379 . S
C786 C788 1.416 . S
C786 C794 1.424 . S
C787 H782 0.930 . S
C787 C789 1.390 . S
C787 C790 1.339 . S
C788 C786 1.416 . S
C788 C790 1.416 . S
C788 C821 1.448 . S
C789 H774 0.930 . S
C789 N785 1.334 . S
C789 C787 1.390 . S
C790 C787 1.339 . S
C790 C788 1.416 . S
C790 H797 0.930 . S
N791 Tb756 2.572 . S
N791 C792 1.340 . S
N791 C794 1.361 . S
C792 H778 0.930 . S
C792 N791 1.340 . S
C792 C796 1.407 . S
C793 C794 1.413 . S
C793 C795 1.416 . S
C793 C822 1.427 . S
C794 C786 1.424 . S
C794 N791 1.361 . S
C794 C793 1.413 . S
C795 H784 0.931 . S
C795 C793 1.416 . S
C795 C796 1.332 . S
C796 H775 0.929 . S
C796 C792 1.407 . S
C796 C795 1.332 . S
H797 C790 0.930 . S
H798 C821 0.930 . S
H799 C822 0.929 . S
O800 Tb756 2.465 . S
O800 C820 1.264 . S
O801 Tb756 2.387 . S
O801 C812 1.264 . S
O802 Tb767 2.349 . S
O802 C812 1.243 . S
O803 Tb756 2.428 . S
O803 C820 1.256 . S
O804 Tb756 2.308 . S
O804 C819 1.266 . S
O805 Tb767 2.393 . S
O805 C819 1.248 . S
O806 Tb767 2.465 . S
O806 C831 1.264 . S
O807 Tb767 2.387 . S
O807 C823 1.264 . S
O808 Tb756 2.349 . S
O808 C823 1.243 . S
O809 Tb767 2.428 . S
O809 C831 1.256 . S
O810 Tb767 2.308 . S
O810 C830 1.266 . S
O811 Tb756 2.393 . S
O811 C830 1.248 . S
C812 O801 1.264 . S
C812 O802 1.243 . S
C813 C816 1.399 . S
C813 C818 1.383 . S
C813 C820 1.496 . S
C814 C815 1.399 . S
C814 C818 1.389 1_556 S
C815 C814 1.399 . S
C815 C817 1.380 . S
C815 H832 0.929 . S
C816 C813 1.399 . S
C816 C817 1.392 1_554 S
C816 H833 0.929 . S
C817 C815 1.380 . S
C817 C816 1.392 1_556 S
C817 H834 0.929 . S
C818 C813 1.383 . S
C818 C814 1.389 1_554 S
C818 H835 0.931 . S
C819 O804 1.266 . S
C819 O805 1.248 . S
C820 Tb756 2.802 . S
C820 O800 1.264 . S
C820 O803 1.256 . S
C820 C813 1.496 . S
C821 C788 1.448 . S
C821 H798 0.930 . S
C821 C822 1.328 . S
C822 C793 1.427 . S
C822 H799 0.929 . S
C822 C821 1.328 . S
C823 O807 1.264 . S
C823 O808 1.243 . S
C824 C827 1.399 . S
C824 C828 1.383 . S
C824 C831 1.496 . S
C825 C826 1.399 . S
C825 C828 1.389 . S
C826 C825 1.399 . S
C826 C829 1.380 . S
C826 H836 0.929 . S
C827 C824 1.399 . S
C827 C829 1.392 . S
C827 H837 0.929 . S
C828 C824 1.383 . S
C828 C825 1.389 . S
C828 H838 0.931 . S
C829 C826 1.380 . S
C829 C827 1.392 . S
C829 H839 0.929 . S
C830 O810 1.266 . S
C830 O811 1.248 . S
C831 Tb767 2.802 . S
C831 O806 1.264 . S
C831 O809 1.256 . S
C831 C824 1.496 . S
H832 C815 0.929 . S
H833 C816 0.929 . S
H834 C817 0.929 . S
H835 C818 0.931 . S
H836 C826 0.929 . S
H837 C827 0.929 . S
H838 C828 0.931 . S
H839 C829 0.929 . S
Tb840 N869 2.617 . S
Tb840 N875 2.572 . S
Tb840 O884 2.465 . S
Tb840 O885 2.387 . S
Tb840 O887 2.428 . S
Tb840 O888 2.308 . S
Tb840 O892 2.349 . S
Tb840 O895 2.393 . S
Tb840 C904 2.802 . S
C841 N842 1.379 . S
C841 C844 1.416 . S
C841 C848 1.424 . S
N842 C841 1.379 . S
N842 C845 1.334 . S
N842 Tb851 2.617 . S
C843 C845 1.390 . S
C843 C846 1.339 . S
C843 H863 0.930 . S
C844 C841 1.416 . S
C844 C846 1.416 . S
C844 C850 1.448 . S
C845 N842 1.334 . S
C845 C843 1.390 . S
C845 H856 0.930 . S
C846 C843 1.339 . S
C846 C844 1.416 . S
C846 H867 0.930 . S
C847 C848 1.413 . S
C847 C849 1.427 . S
C847 C853 1.416 . S
C848 C841 1.424 . S
C848 C847 1.413 . S
C848 N852 1.361 . S
C849 C847 1.427 . S
C849 C850 1.328 . S
C849 H864 0.929 . S
C850 C844 1.448 . S
C850 C849 1.328 . S
C850 H865 0.930 . S
Tb851 N842 2.617 . S
Tb851 N852 2.572 . S
Tb851 O886 2.349 . S
Tb851 O889 2.393 . S
Tb851 O890 2.465 . S
Tb851 O891 2.387 . S
Tb851 O893 2.428 . S
Tb851 O894 2.308 . S
Tb851 C915 2.802 . S
N852 C848 1.361 . S
N852 Tb851 2.572 . S
N852 C854 1.340 . S
C853 C847 1.416 . S
C853 C855 1.332 . S
C853 H861 0.931 . S
C854 N852 1.340 . S
C854 C855 1.407 . S
C854 H860 0.930 . S
C855 C853 1.332 . S
C855 C854 1.407 . S
C855 H857 0.929 . S
H856 C845 0.930 . S
H857 C855 0.929 . S
H858 C873 0.930 . S
H859 C880 0.929 . S
H860 C854 0.930 . S
H861 C853 0.931 . S
H862 C876 0.930 . S
H863 C843 0.930 . S
H864 C849 0.929 . S
H865 C850 0.930 . S
H866 C871 0.930 . S
H867 C846 0.930 . S
H868 C879 0.946 . S
N869 Tb840 2.617 . S
N869 C870 1.379 . S
N869 C873 1.334 . S
C870 N869 1.379 . S
C870 C872 1.416 . S
C870 C878 1.424 . S
C871 H866 0.930 . S
C871 C873 1.390 . S
C871 C874 1.339 . S
C872 C870 1.416 . S
C872 C874 1.416 . S
C872 C905 1.448 1_455 S
C873 H858 0.930 . S
C873 N869 1.334 . S
C873 C871 1.390 . S
C874 C871 1.339 . S
C874 C872 1.416 . S
C874 H881 0.930 1_455 S
N875 Tb840 2.572 . S
N875 C876 1.340 . S
N875 C878 1.361 . S
C876 H862 0.930 . S
C876 N875 1.340 . S
C876 C880 1.407 . S
C877 C878 1.418 . S
C877 C879 1.416 1_455 S
C877 C906 1.422 1_455 S
C878 C870 1.424 . S
C878 N875 1.361 . S
C878 C877 1.418 . S
C879 H868 0.946 . S
C879 C877 1.416 1_655 S
C879 C880 1.317 1_655 S
C880 H859 0.929 . S
C880 C876 1.407 . S
C880 C879 1.317 1_455 S
H881 C874 0.930 1_655 S
H882 C905 0.930 . S
H883 C906 0.929 . S
O884 Tb840 2.465 . S
O884 C904 1.264 . S
O885 Tb840 2.387 . S
O885 C896 1.264 . S
O886 Tb851 2.349 . S
O886 C896 1.243 . S
O887 Tb840 2.428 . S
O887 C904 1.256 . S
O888 Tb840 2.308 . S
O888 C903 1.266 . S
O889 Tb851 2.393 . S
O889 C903 1.248 . S
O890 Tb851 2.465 . S
O890 C915 1.264 . S
O891 Tb851 2.387 . S
O891 C907 1.264 . S
O892 Tb840 2.349 . S
O892 C907 1.243 . S
O893 Tb851 2.428 . S
O893 C915 1.256 . S
O894 Tb851 2.308 . S
O894 C914 1.266 . S
O895 Tb840 2.393 . S
O895 C914 1.248 . S
C896 O885 1.264 . S
C896 O886 1.243 . S
C897 C900 1.399 . S
C897 C902 1.383 . S
C897 C904 1.496 . S
C898 C899 1.399 . S
C898 C902 1.389 . S
C899 C898 1.399 . S
C899 C901 1.380 . S
C899 H916 0.929 . S
C900 C897 1.399 . S
C900 C901 1.392 . S
C900 H917 0.929 . S
C901 C899 1.380 . S
C901 C900 1.392 . S
C901 H918 0.929 . S
C902 C897 1.383 . S
C902 C898 1.389 . S
C902 H919 0.931 . S
C903 O888 1.266 . S
C903 O889 1.248 . S
C904 Tb840 2.802 . S
C904 O884 1.264 . S
C904 O887 1.256 . S
C904 C897 1.496 . S
C905 C872 1.448 1_655 S
C905 H882 0.930 . S
C905 C906 1.328 . S
C906 C877 1.422 1_655 S
C906 H883 0.929 . S
C906 C905 1.328 . S
C907 O891 1.264 . S
C907 O892 1.243 . S
C908 C911 1.399 . S
C908 C912 1.383 . S
C908 C915 1.496 . S
C909 C910 1.399 . S
C909 C912 1.389 1_554 S
C910 C909 1.399 . S
C910 C913 1.380 . S
C910 H920 0.929 . S
C911 C908 1.399 . S
C911 C913 1.392 1_556 S
C911 H921 0.929 . S
C912 C908 1.383 . S
C912 C909 1.389 1_556 S
C912 H922 0.931 . S
C913 C910 1.380 . S
C913 C911 1.392 1_554 S
C913 H923 0.929 . S
C914 O894 1.266 . S
C914 O895 1.248 . S
C915 Tb851 2.802 . S
C915 O890 1.264 . S
C915 O893 1.256 . S
C915 C908 1.496 . S
H916 C899 0.929 . S
H917 C900 0.929 . S
H918 C901 0.929 . S
H919 C902 0.931 . S
H920 C910 0.929 . S
H921 C911 0.929 . S
H922 C912 0.931 . S
H923 C913 0.929 . S
Tb924 N953 2.617 . S
Tb924 N959 2.572 . S
Tb924 O968 2.465 . S
Tb924 O969 2.387 . S
Tb924 O971 2.428 . S
Tb924 O972 2.308 . S
Tb924 O976 2.349 . S
Tb924 O979 2.393 . S
Tb924 C988 2.802 . S
C925 N926 1.379 . S
C925 C928 1.416 . S
C925 C932 1.424 . S
N926 C925 1.379 . S
N926 C929 1.334 . S
N926 Tb935 2.617 . S
C927 C929 1.390 . S
C927 C930 1.339 . S
C927 H947 0.930 . S
C928 C925 1.416 . S
C928 C930 1.416 . S
C928 C934 1.448 1_565 S
C929 N926 1.334 . S
C929 C927 1.390 . S
C929 H940 0.930 . S
C930 C927 1.339 . S
C930 C928 1.416 . S
C930 H951 0.930 1_565 S
C931 C932 1.418 . S
C931 C933 1.422 1_565 S
C931 C937 1.416 1_565 S
C932 C925 1.424 . S
C932 C931 1.418 . S
C932 N936 1.361 . S
C933 C931 1.422 1_545 S
C933 C934 1.328 . S
C933 H948 0.929 . S
C934 C928 1.448 1_545 S
C934 C933 1.328 . S
C934 H949 0.930 . S
Tb935 N926 2.617 . S
Tb935 N936 2.572 . S
Tb935 O970 2.349 . S
Tb935 O973 2.393 . S
Tb935 O974 2.465 . S
Tb935 O975 2.387 . S
Tb935 O977 2.428 . S
Tb935 O978 2.308 . S
Tb935 C999 2.802 . S
N936 C932 1.361 . S
N936 Tb935 2.572 . S
N936 C938 1.340 . S
C937 C931 1.416 1_545 S
C937 C939 1.317 1_545 S
C937 H945 0.946 . S
C938 N936 1.340 . S
C938 C939 1.407 . S
C938 H944 0.930 . S
C939 C937 1.317 1_565 S
C939 C938 1.407 . S
C939 H941 0.929 . S
H940 C929 0.930 . S
H941 C939 0.929 . S
H942 C957 0.930 . S
H943 C964 0.929 . S
H944 C938 0.930 . S
H945 C937 0.946 . S
H946 C960 0.930 . S
H947 C927 0.930 . S
H948 C933 0.929 . S
H949 C934 0.930 . S
H950 C955 0.930 . S
H951 C930 0.930 1_545 S
H952 C963 0.931 . S
N953 Tb924 2.617 . S
N953 C954 1.379 . S
N953 C957 1.334 . S
C954 N953 1.379 . S
C954 C956 1.416 . S
C954 C962 1.424 . S
C955 H950 0.930 . S
C955 C957 1.390 . S
C955 C958 1.339 . S
C956 C954 1.416 . S
C956 C958 1.416 . S
C956 C989 1.448 . S
C957 H942 0.930 . S
C957 N953 1.334 . S
C957 C955 1.390 . S
C958 C955 1.339 . S
C958 C956 1.416 . S
C958 H965 0.930 . S
N959 Tb924 2.572 . S
N959 C960 1.340 . S
N959 C962 1.361 . S
C960 H946 0.930 . S
C960 N959 1.340 . S
C960 C964 1.407 . S
C961 C962 1.413 . S
C961 C963 1.416 . S
C961 C990 1.427 . S
C962 C954 1.424 . S
C962 N959 1.361 . S
C962 C961 1.413 . S
C963 H952 0.931 . S
C963 C961 1.416 . S
C963 C964 1.332 . S
C964 H943 0.929 . S
C964 C960 1.407 . S
C964 C963 1.332 . S
H965 C958 0.930 . S
H966 C989 0.930 . S
H967 C990 0.929 . S
O968 Tb924 2.465 . S
O968 C988 1.264 . S
O969 Tb924 2.387 . S
O969 C980 1.264 . S
O970 Tb935 2.349 . S
O970 C980 1.243 . S
O971 Tb924 2.428 . S
O971 C988 1.256 . S
O972 Tb924 2.308 . S
O972 C987 1.266 . S
O973 Tb935 2.393 . S
O973 C987 1.248 . S
O974 Tb935 2.465 . S
O974 C999 1.264 . S
O975 Tb935 2.387 . S
O975 C991 1.264 . S
O976 Tb924 2.349 . S
O976 C991 1.243 . S
O977 Tb935 2.428 . S
O977 C999 1.256 . S
O978 Tb935 2.308 . S
O978 C998 1.266 . S
O979 Tb924 2.393 . S
O979 C998 1.248 . S
C980 O969 1.264 . S
C980 O970 1.243 . S
C981 C984 1.399 . S
C981 C986 1.383 . S
C981 C988 1.496 . S
C982 C983 1.399 . S
C982 C986 1.389 1_556 S
C983 C982 1.399 . S
C983 C985 1.380 . S
C983 H1000 0.929 . S
C984 C981 1.399 . S
C984 C985 1.392 1_554 S
C984 H1001 0.929 . S
C985 C983 1.380 . S
C985 C984 1.392 1_556 S
C985 H1002 0.929 . S
C986 C981 1.383 . S
C986 C982 1.389 1_554 S
C986 H1003 0.931 . S
C987 O972 1.266 . S
C987 O973 1.248 . S
C988 Tb924 2.802 . S
C988 O968 1.264 . S
C988 O971 1.256 . S
C988 C981 1.496 . S
C989 C956 1.448 . S
C989 H966 0.930 . S
C989 C990 1.328 . S
C990 C961 1.427 . S
C990 H967 0.929 . S
C990 C989 1.328 . S
C991 O975 1.264 . S
C991 O976 1.243 . S
C992 C995 1.399 . S
C992 C996 1.383 . S
C992 C999 1.496 . S
C993 C994 1.399 . S
C993 C996 1.389 . S
C994 C993 1.399 . S
C994 C997 1.380 . S
C994 H1004 0.929 . S
C995 C992 1.399 . S
C995 C997 1.392 . S
C995 H1005 0.929 . S
C996 C992 1.383 . S
C996 C993 1.389 . S
C996 H1006 0.931 . S
C997 C994 1.380 . S
C997 C995 1.392 . S
C997 H1007 0.929 . S
C998 O978 1.266 . S
C998 O979 1.248 . S
C999 Tb935 2.802 . S
C999 O974 1.264 . S
C999 O977 1.256 . S
C999 C992 1.496 . S
H1000 C983 0.929 . S
H1001 C984 0.929 . S
H1002 C985 0.929 . S
H1003 C986 0.931 . S
H1004 C994 0.929 . S
H1005 C995 0.929 . S
H1006 C996 0.931 . S
H1007 C997 0.929 . S
Tb1008 N1037 2.617 . S
Tb1008 N1043 2.572 . S
Tb1008 O1052 2.465 . S
Tb1008 O1053 2.387 . S
Tb1008 O1055 2.428 . S
Tb1008 O1056 2.308 . S
Tb1008 O1060 2.349 . S
Tb1008 O1063 2.393 . S
Tb1008 C1072 2.802 . S
C1009 N1010 1.379 . S
C1009 C1012 1.416 . S
C1009 C1016 1.424 . S
N1010 C1009 1.379 . S
N1010 C1013 1.334 . S
N1010 Tb1019 2.617 . S
C1011 C1013 1.390 . S
C1011 C1014 1.339 . S
C1011 H1031 0.930 . S
C1012 C1009 1.416 . S
C1012 C1014 1.416 . S
C1012 C1018 1.448 . S
C1013 N1010 1.334 . S
C1013 C1011 1.390 . S
C1013 H1024 0.930 . S
C1014 C1011 1.339 . S
C1014 C1012 1.416 . S
C1014 H1035 0.930 . S
C1015 C1016 1.413 . S
C1015 C1017 1.427 . S
C1015 C1021 1.416 . S
C1016 C1009 1.424 . S
C1016 C1015 1.413 . S
C1016 N1020 1.361 . S
C1017 C1015 1.427 . S
C1017 C1018 1.328 . S
C1017 H1032 0.929 . S
C1018 C1012 1.448 . S
C1018 C1017 1.328 . S
C1018 H1033 0.930 . S
Tb1019 N1010 2.617 . S
Tb1019 N1020 2.572 . S
Tb1019 O1054 2.349 . S
Tb1019 O1057 2.393 . S
Tb1019 O1058 2.465 . S
Tb1019 O1059 2.387 . S
Tb1019 O1061 2.428 . S
Tb1019 O1062 2.308 . S
Tb1019 C1083 2.802 . S
N1020 C1016 1.361 . S
N1020 Tb1019 2.572 . S
N1020 C1022 1.340 . S
C1021 C1015 1.416 . S
C1021 C1023 1.332 . S
C1021 H1029 0.931 . S
C1022 N1020 1.340 . S
C1022 C1023 1.407 . S
C1022 H1028 0.930 . S
C1023 C1021 1.332 . S
C1023 C1022 1.407 . S
C1023 H1025 0.929 . S
H1024 C1013 0.930 . S
H1025 C1023 0.929 . S
H1026 C1041 0.930 . S
H1027 C1048 0.929 . S
H1028 C1022 0.930 . S
H1029 C1021 0.931 . S
H1030 C1044 0.930 . S
H1031 C1011 0.930 . S
H1032 C1017 0.929 . S
H1033 C1018 0.930 . S
H1034 C1039 0.930 . S
H1035 C1014 0.930 . S
H1036 C1047 0.946 . S
N1037 Tb1008 2.617 . S
N1037 C1038 1.379 . S
N1037 C1041 1.334 . S
C1038 N1037 1.379 . S
C1038 C1040 1.416 . S
C1038 C1046 1.424 . S
C1039 H1034 0.930 . S
C1039 C1041 1.390 1_545 S
C1039 C1042 1.339 1_545 S
C1040 C1038 1.416 . S
C1040 C1042 1.416 . S
C1040 C1073 1.448 1_655 S
C1041 H1026 0.930 . S
C1041 N1037 1.334 . S
C1041 C1039 1.390 1_565 S
C1042 C1039 1.339 1_565 S
C1042 C1040 1.416 . S
C1042 H1049 0.930 1_665 S
N1043 Tb1008 2.572 . S
N1043 C1044 1.340 . S
N1043 C1046 1.361 . S
C1044 H1030 0.930 . S
C1044 N1043 1.340 . S
C1044 C1048 1.407 . S
C1045 C1046 1.418 . S
C1045 C1047 1.416 1_655 S
C1045 C1074 1.422 1_655 S
C1046 C1038 1.424 . S
C1046 N1043 1.361 . S
C1046 C1045 1.418 . S
C1047 H1036 0.946 . S
C1047 C1045 1.416 1_455 S
C1047 C1048 1.317 1_455 S
C1048 H1027 0.929 . S
C1048 C1044 1.407 . S
C1048 C1047 1.317 1_655 S
H1049 C1042 0.930 1_445 S
H1050 C1073 0.930 . S
H1051 C1074 0.929 . S
O1052 Tb1008 2.465 . S
O1052 C1072 1.264 . S
O1053 Tb1008 2.387 . S
O1053 C1064 1.264 . S
O1054 Tb1019 2.349 . S
O1054 C1064 1.243 . S
O1055 Tb1008 2.428 . S
O1055 C1072 1.256 . S
O1056 Tb1008 2.308 . S
O1056 C1071 1.266 . S
O1057 Tb1019 2.393 . S
O1057 C1071 1.248 . S
O1058 Tb1019 2.465 . S
O1058 C1083 1.264 . S
O1059 Tb1019 2.387 . S
O1059 C1075 1.264 . S
O1060 Tb1008 2.349 . S
O1060 C1075 1.243 . S
O1061 Tb1019 2.428 . S
O1061 C1083 1.256 . S
O1062 Tb1019 2.308 . S
O1062 C1082 1.266 . S
O1063 Tb1008 2.393 . S
O1063 C1082 1.248 . S
C1064 O1053 1.264 . S
C1064 O1054 1.243 . S
C1065 C1068 1.399 . S
C1065 C1070 1.383 . S
C1065 C1072 1.496 . S
C1066 C1067 1.399 . S
C1066 C1070 1.389 1_554 S
C1067 C1066 1.399 . S
C1067 C1069 1.380 . S
C1067 H1084 0.929 . S
C1068 C1065 1.399 . S
C1068 C1069 1.392 1_556 S
C1068 H1085 0.929 . S
C1069 C1067 1.380 . S
C1069 C1068 1.392 1_554 S
C1069 H1086 0.929 . S
C1070 C1065 1.383 . S
C1070 C1066 1.389 1_556 S
C1070 H1087 0.931 . S
C1071 O1056 1.266 . S
C1071 O1057 1.248 . S
C1072 Tb1008 2.802 . S
C1072 O1052 1.264 . S
C1072 O1055 1.256 . S
C1072 C1065 1.496 . S
C1073 C1040 1.448 1_455 S
C1073 H1050 0.930 . S
C1073 C1074 1.328 . S
C1074 C1045 1.422 1_455 S
C1074 H1051 0.929 . S
C1074 C1073 1.328 . S
C1075 O1059 1.264 . S
C1075 O1060 1.243 . S
C1076 C1079 1.399 . S
C1076 C1080 1.383 . S
C1076 C1083 1.496 . S
C1077 C1078 1.399 . S
C1077 C1080 1.389 . S
C1078 C1077 1.399 . S
C1078 C1081 1.380 . S
C1078 H1088 0.929 . S
C1079 C1076 1.399 . S
C1079 C1081 1.392 . S
C1079 H1089 0.929 . S
C1080 C1076 1.383 . S
C1080 C1077 1.389 . S
C1080 H1090 0.931 . S
C1081 C1078 1.380 . S
C1081 C1079 1.392 . S
C1081 H1091 0.929 . S
C1082 O1062 1.266 . S
C1082 O1063 1.248 . S
C1083 Tb1019 2.802 . S
C1083 O1058 1.264 . S
C1083 O1061 1.256 . S
C1083 C1076 1.496 . S
H1084 C1067 0.929 . S
H1085 C1068 0.929 . S
H1086 C1069 0.929 . S
H1087 C1070 0.931 . S
H1088 C1078 0.929 . S
H1089 C1079 0.929 . S
H1090 C1080 0.931 . S
H1091 C1081 0.929 . S
Tb1092 N1121 2.617 . S
Tb1092 N1127 2.572 . S
Tb1092 O1136 2.465 . S
Tb1092 O1137 2.387 . S
Tb1092 O1139 2.428 . S
Tb1092 O1140 2.308 . S
Tb1092 O1144 2.349 . S
Tb1092 O1147 2.393 . S
Tb1092 C1156 2.802 . S
C1093 N1094 1.379 . S
C1093 C1096 1.416 . S
C1093 C1100 1.424 . S
N1094 C1093 1.379 . S
N1094 C1097 1.334 . S
N1094 Tb1103 2.617 . S
C1095 C1097 1.390 1_455 S
C1095 C1098 1.339 1_455 S
C1095 H1115 0.930 . S
C1096 C1093 1.416 . S
C1096 C1098 1.416 . S
C1096 C1102 1.448 1_545 S
C1097 N1094 1.334 . S
C1097 C1095 1.390 1_655 S
C1097 H1108 0.930 . S
C1098 C1095 1.339 1_655 S
C1098 C1096 1.416 . S
C1098 H1119 0.930 1_645 S
C1099 C1100 1.418 . S
C1099 C1101 1.422 1_545 S
C1099 C1105 1.416 1_545 S
C1100 C1093 1.424 . S
C1100 C1099 1.418 . S
C1100 N1104 1.361 . S
C1101 C1099 1.422 1_565 S
C1101 C1102 1.328 . S
C1101 H1116 0.929 . S
C1102 C1096 1.448 1_565 S
C1102 C1101 1.328 . S
C1102 H1117 0.930 . S
Tb1103 N1094 2.617 . S
Tb1103 N1104 2.572 . S
Tb1103 O1138 2.349 . S
Tb1103 O1141 2.393 . S
Tb1103 O1142 2.465 . S
Tb1103 O1143 2.387 . S
Tb1103 O1145 2.428 . S
Tb1103 O1146 2.308 . S
Tb1103 C1167 2.802 . S
N1104 C1100 1.361 . S
N1104 Tb1103 2.572 . S
N1104 C1106 1.340 . S
C1105 C1099 1.416 1_565 S
C1105 C1107 1.317 1_565 S
C1105 H1113 0.946 . S
C1106 N1104 1.340 . S
C1106 C1107 1.407 . S
C1106 H1112 0.930 . S
C1107 C1105 1.317 1_545 S
C1107 C1106 1.407 . S
C1107 H1109 0.929 . S
H1108 C1097 0.930 . S
H1109 C1107 0.929 . S
H1110 C1125 0.930 . S
H1111 C1132 0.929 . S
H1112 C1106 0.930 . S
H1113 C1105 0.946 . S
H1114 C1128 0.930 . S
H1115 C1095 0.930 . S
H1116 C1101 0.929 . S
H1117 C1102 0.930 . S
H1118 C1123 0.930 . S
H1119 C1098 0.930 1_465 S
H1120 C1131 0.931 . S
N1121 Tb1092 2.617 . S
N1121 C1122 1.379 . S
N1121 C1125 1.334 . S
C1122 N1121 1.379 . S
C1122 C1124 1.416 . S
C1122 C1130 1.424 . S
C1123 H1118 0.930 . S
C1123 C1125 1.390 . S
C1123 C1126 1.339 . S
C1124 C1122 1.416 . S
C1124 C1126 1.416 . S
C1124 C1157 1.448 . S
C1125 H1110 0.930 . S
C1125 N1121 1.334 . S
C1125 C1123 1.390 . S
C1126 C1123 1.339 . S
C1126 C1124 1.416 . S
C1126 H1133 0.930 . S
N1127 Tb1092 2.572 . S
N1127 C1128 1.340 . S
N1127 C1130 1.361 . S
C1128 H1114 0.930 . S
C1128 N1127 1.340 . S
C1128 C1132 1.407 . S
C1129 C1130 1.413 . S
C1129 C1131 1.416 . S
C1129 C1158 1.427 . S
C1130 C1122 1.424 . S
C1130 N1127 1.361 . S
C1130 C1129 1.413 . S
C1131 H1120 0.931 . S
C1131 C1129 1.416 . S
C1131 C1132 1.332 . S
C1132 H1111 0.929 . S
C1132 C1128 1.407 . S
C1132 C1131 1.332 . S
H1133 C1126 0.930 . S
H1134 C1157 0.930 . S
H1135 C1158 0.929 . S
O1136 Tb1092 2.465 . S
O1136 C1156 1.264 . S
O1137 Tb1092 2.387 . S
O1137 C1148 1.264 . S
O1138 Tb1103 2.349 . S
O1138 C1148 1.243 . S
O1139 Tb1092 2.428 . S
O1139 C1156 1.256 . S
O1140 Tb1092 2.308 . S
O1140 C1155 1.266 . S
O1141 Tb1103 2.393 . S
O1141 C1155 1.248 . S
O1142 Tb1103 2.465 . S
O1142 C1167 1.264 . S
O1143 Tb1103 2.387 . S
O1143 C1159 1.264 . S
O1144 Tb1092 2.349 . S
O1144 C1159 1.243 . S
O1145 Tb1103 2.428 . S
O1145 C1167 1.256 . S
O1146 Tb1103 2.308 . S
O1146 C1166 1.266 . S
O1147 Tb1092 2.393 . S
O1147 C1166 1.248 . S
C1148 O1137 1.264 . S
C1148 O1138 1.243 . S
C1149 C1152 1.399 . S
C1149 C1154 1.383 . S
C1149 C1156 1.496 . S
C1150 C1151 1.399 . S
C1150 C1154 1.389 . S
C1151 C1150 1.399 . S
C1151 C1153 1.380 . S
C1151 H1168 0.929 . S
C1152 C1149 1.399 . S
C1152 C1153 1.392 . S
C1152 H1169 0.929 . S
C1153 C1151 1.380 . S
C1153 C1152 1.392 . S
C1153 H1170 0.929 . S
C1154 C1149 1.383 . S
C1154 C1150 1.389 . S
C1154 H1171 0.931 . S
C1155 O1140 1.266 . S
C1155 O1141 1.248 . S
C1156 Tb1092 2.802 . S
C1156 O1136 1.264 . S
C1156 O1139 1.256 . S
C1156 C1149 1.496 . S
C1157 C1124 1.448 . S
C1157 H1134 0.930 . S
C1157 C1158 1.328 . S
C1158 C1129 1.427 . S
C1158 H1135 0.929 . S
C1158 C1157 1.328 . S
C1159 O1143 1.264 . S
C1159 O1144 1.243 . S
C1160 C1163 1.399 . S
C1160 C1164 1.383 . S
C1160 C1167 1.496 . S
C1161 C1162 1.399 . S
C1161 C1164 1.389 1_556 S
C1162 C1161 1.399 . S
C1162 C1165 1.380 . S
C1162 H1172 0.929 . S
C1163 C1160 1.399 . S
C1163 C1165 1.392 1_554 S
C1163 H1173 0.929 . S
C1164 C1160 1.383 . S
C1164 C1161 1.389 1_554 S
C1164 H1174 0.931 . S
C1165 C1162 1.380 . S
C1165 C1163 1.392 1_556 S
C1165 H1175 0.929 . S
C1166 O1146 1.266 . S
C1166 O1147 1.248 . S
C1167 Tb1103 2.802 . S
C1167 O1142 1.264 . S
C1167 O1145 1.256 . S
C1167 C1160 1.496 . S
H1168 C1151 0.929 . S
H1169 C1152 0.929 . S
H1170 C1153 0.929 . S
H1171 C1154 0.931 . S
H1172 C1162 0.929 . S
H1173 C1163 0.929 . S
H1174 C1164 0.931 . S
H1175 C1165 0.929 . S
Tb1176 N1205 2.617 . S
Tb1176 N1211 2.572 . S
Tb1176 O1220 2.465 . S
Tb1176 O1221 2.387 . S
Tb1176 O1223 2.428 . S
Tb1176 O1224 2.308 . S
Tb1176 O1228 2.349 . S
Tb1176 O1231 2.393 . S
Tb1176 C1240 2.802 . S
C1177 N1178 1.379 . S
C1177 C1180 1.416 . S
C1177 C1184 1.424 . S
N1178 C1177 1.379 . S
N1178 C1181 1.334 . S
N1178 Tb1187 2.617 . S
C1179 C1181 1.390 . S
C1179 C1182 1.339 . S
C1179 H1199 0.930 . S
C1180 C1177 1.416 . S
C1180 C1182 1.416 . S
C1180 C1186 1.448 . S
C1181 N1178 1.334 . S
C1181 C1179 1.390 . S
C1181 H1192 0.930 . S
C1182 C1179 1.339 . S
C1182 C1180 1.416 . S
C1182 H1203 0.930 . S
C1183 C1184 1.413 . S
C1183 C1185 1.427 . S
C1183 C1189 1.416 . S
C1184 C1177 1.424 . S
C1184 C1183 1.413 . S
C1184 N1188 1.361 . S
C1185 C1183 1.427 . S
C1185 C1186 1.328 . S
C1185 H1200 0.929 . S
C1186 C1180 1.448 . S
C1186 C1185 1.328 . S
C1186 H1201 0.930 . S
Tb1187 N1178 2.617 . S
Tb1187 N1188 2.572 . S
Tb1187 O1222 2.349 . S
Tb1187 O1225 2.393 . S
Tb1187 O1226 2.465 . S
Tb1187 O1227 2.387 . S
Tb1187 O1229 2.428 . S
Tb1187 O1230 2.308 . S
Tb1187 C1251 2.802 . S
N1188 C1184 1.361 . S
N1188 Tb1187 2.572 . S
N1188 C1190 1.340 . S
C1189 C1183 1.416 . S
C1189 C1191 1.332 . S
C1189 H1197 0.931 . S
C1190 N1188 1.340 . S
C1190 C1191 1.407 . S
C1190 H1196 0.930 . S
C1191 C1189 1.332 . S
C1191 C1190 1.407 . S
C1191 H1193 0.929 . S
H1192 C1181 0.930 . S
H1193 C1191 0.929 . S
H1194 C1209 0.930 . S
H1195 C1216 0.929 . S
H1196 C1190 0.930 . S
H1197 C1189 0.931 . S
H1198 C1212 0.930 . S
H1199 C1179 0.930 . S
H1200 C1185 0.929 . S
H1201 C1186 0.930 . S
H1202 C1207 0.930 . S
H1203 C1182 0.930 . S
H1204 C1215 0.946 . S
N1205 Tb1176 2.617 . S
N1205 C1206 1.379 . S
N1205 C1209 1.334 . S
C1206 N1205 1.379 . S
C1206 C1208 1.416 . S
C1206 C1214 1.424 . S
C1207 H1202 0.930 . S
C1207 C1209 1.390 1_565 S
C1207 C1210 1.339 1_565 S
C1208 C1206 1.416 . S
C1208 C1210 1.416 . S
C1208 C1241 1.448 1_455 S
C1209 H1194 0.930 . S
C1209 N1205 1.334 . S
C1209 C1207 1.390 1_545 S
C1210 C1207 1.339 1_545 S
C1210 C1208 1.416 . S
C1210 H1217 0.930 1_445 S
N1211 Tb1176 2.572 . S
N1211 C1212 1.340 . S
N1211 C1214 1.361 . S
C1212 H1198 0.930 . S
C1212 N1211 1.340 . S
C1212 C1216 1.407 . S
C1213 C1214 1.418 . S
C1213 C1215 1.416 1_455 S
C1213 C1242 1.422 1_455 S
C1214 C1206 1.424 . S
C1214 N1211 1.361 . S
C1214 C1213 1.418 . S
C1215 H1204 0.946 . S
C1215 C1213 1.416 1_655 S
C1215 C1216 1.317 1_655 S
C1216 H1195 0.929 . S
C1216 C1212 1.407 . S
C1216 C1215 1.317 1_455 S
H1217 C1210 0.930 1_665 S
H1218 C1241 0.930 . S
H1219 C1242 0.929 . S
O1220 Tb1176 2.465 . S
O1220 C1240 1.264 . S
O1221 Tb1176 2.387 . S
O1221 C1232 1.264 . S
O1222 Tb1187 2.349 . S
O1222 C1232 1.243 . S
O1223 Tb1176 2.428 . S
O1223 C1240 1.256 . S
O1224 Tb1176 2.308 . S
O1224 C1239 1.266 . S
O1225 Tb1187 2.393 . S
O1225 C1239 1.248 . S
O1226 Tb1187 2.465 . S
O1226 C1251 1.264 . S
O1227 Tb1187 2.387 . S
O1227 C1243 1.264 . S
O1228 Tb1176 2.349 . S
O1228 C1243 1.243 . S
O1229 Tb1187 2.428 . S
O1229 C1251 1.256 . S
O1230 Tb1187 2.308 . S
O1230 C1250 1.266 . S
O1231 Tb1176 2.393 . S
O1231 C1250 1.248 . S
C1232 O1221 1.264 . S
C1232 O1222 1.243 . S
C1233 C1236 1.399 . S
C1233 C1238 1.383 . S
C1233 C1240 1.496 . S
C1234 C1235 1.399 . S
C1234 C1238 1.389 1_554 S
C1235 C1234 1.399 . S
C1235 C1237 1.380 . S
C1235 H1252 0.929 . S
C1236 C1233 1.399 . S
C1236 C1237 1.392 1_556 S
C1236 H1253 0.929 . S
C1237 C1235 1.380 . S
C1237 C1236 1.392 1_554 S
C1237 H1254 0.929 . S
C1238 C1233 1.383 . S
C1238 C1234 1.389 1_556 S
C1238 H1255 0.931 . S
C1239 O1224 1.266 . S
C1239 O1225 1.248 . S
C1240 Tb1176 2.802 . S
C1240 O1220 1.264 . S
C1240 O1223 1.256 . S
C1240 C1233 1.496 . S
C1241 C1208 1.448 1_655 S
C1241 H1218 0.930 . S
C1241 C1242 1.328 . S
C1242 C1213 1.422 1_655 S
C1242 H1219 0.929 . S
C1242 C1241 1.328 . S
C1243 O1227 1.264 . S
C1243 O1228 1.243 . S
C1244 C1247 1.399 . S
C1244 C1248 1.383 . S
C1244 C1251 1.496 . S
C1245 C1246 1.399 . S
C1245 C1248 1.389 . S
C1246 C1245 1.399 . S
C1246 C1249 1.380 . S
C1246 H1256 0.929 . S
C1247 C1244 1.399 . S
C1247 C1249 1.392 . S
C1247 H1257 0.929 . S
C1248 C1244 1.383 . S
C1248 C1245 1.389 . S
C1248 H1258 0.931 . S
C1249 C1246 1.380 . S
C1249 C1247 1.392 . S
C1249 H1259 0.929 . S
C1250 O1230 1.266 . S
C1250 O1231 1.248 . S
C1251 Tb1187 2.802 . S
C1251 O1226 1.264 . S
C1251 O1229 1.256 . S
C1251 C1244 1.496 . S
H1252 C1235 0.929 . S
H1253 C1236 0.929 . S
H1254 C1237 0.929 . S
H1255 C1238 0.931 . S
H1256 C1246 0.929 . S
H1257 C1247 0.929 . S
H1258 C1248 0.931 . S
H1259 C1249 0.929 . S
Tb1260 N1289 2.617 . S
Tb1260 N1295 2.572 . S
Tb1260 O1304 2.465 . S
Tb1260 O1305 2.387 . S
Tb1260 O1307 2.428 . S
Tb1260 O1308 2.308 . S
Tb1260 O1312 2.349 . S
Tb1260 O1315 2.393 . S
Tb1260 C1324 2.802 . S
C1261 N1262 1.379 . S
C1261 C1264 1.416 . S
C1261 C1268 1.424 . S
N1262 C1261 1.379 . S
N1262 C1265 1.334 . S
N1262 Tb1271 2.617 . S
C1263 C1265 1.390 1_655 S
C1263 C1266 1.339 1_655 S
C1263 H1283 0.930 . S
C1264 C1261 1.416 . S
C1264 C1266 1.416 . S
C1264 C1270 1.448 1_565 S
C1265 N1262 1.334 . S
C1265 C1263 1.390 1_455 S
C1265 H1276 0.930 . S
C1266 C1263 1.339 1_455 S
C1266 C1264 1.416 . S
C1266 H1287 0.930 1_465 S
C1267 C1268 1.418 . S
C1267 C1269 1.422 1_565 S
C1267 C1273 1.416 1_565 S
C1268 C1261 1.424 . S
C1268 C1267 1.418 . S
C1268 N1272 1.361 . S
C1269 C1267 1.422 1_545 S
C1269 C1270 1.328 . S
C1269 H1284 0.929 . S
C1270 C1264 1.448 1_545 S
C1270 C1269 1.328 . S
C1270 H1285 0.930 . S
Tb1271 N1262 2.617 . S
Tb1271 N1272 2.572 . S
Tb1271 O1306 2.349 . S
Tb1271 O1309 2.393 . S
Tb1271 O1310 2.465 . S
Tb1271 O1311 2.387 . S
Tb1271 O1313 2.428 . S
Tb1271 O1314 2.308 . S
Tb1271 C1335 2.802 . S
N1272 C1268 1.361 . S
N1272 Tb1271 2.572 . S
N1272 C1274 1.340 . S
C1273 C1267 1.416 1_545 S
C1273 C1275 1.317 1_545 S
C1273 H1281 0.946 . S
C1274 N1272 1.340 . S
C1274 C1275 1.407 . S
C1274 H1280 0.930 . S
C1275 C1273 1.317 1_565 S
C1275 C1274 1.407 . S
C1275 H1277 0.929 . S
H1276 C1265 0.930 . S
H1277 C1275 0.929 . S
H1278 C1293 0.930 . S
H1279 C1300 0.929 . S
H1280 C1274 0.930 . S
H1281 C1273 0.946 . S
H1282 C1296 0.930 . S
H1283 C1263 0.930 . S
H1284 C1269 0.929 . S
H1285 C1270 0.930 . S
H1286 C1291 0.930 . S
H1287 C1266 0.930 1_645 S
H1288 C1299 0.931 . S
N1289 Tb1260 2.617 . S
N1289 C1290 1.379 . S
N1289 C1293 1.334 . S
C1290 N1289 1.379 . S
C1290 C1292 1.416 . S
C1290 C1298 1.424 . S
C1291 H1286 0.930 . S
C1291 C1293 1.390 . S
C1291 C1294 1.339 . S
C1292 C1290 1.416 . S
C1292 C1294 1.416 . S
C1292 C1325 1.448 . S
C1293 H1278 0.930 . S
C1293 N1289 1.334 . S
C1293 C1291 1.390 . S
C1294 C1291 1.339 . S
C1294 C1292 1.416 . S
C1294 H1301 0.930 . S
N1295 Tb1260 2.572 . S
N1295 C1296 1.340 . S
N1295 C1298 1.361 . S
C1296 H1282 0.930 . S
C1296 N1295 1.340 . S
C1296 C1300 1.407 . S
C1297 C1298 1.413 . S
C1297 C1299 1.416 . S
C1297 C1326 1.427 . S
C1298 C1290 1.424 . S
C1298 N1295 1.361 . S
C1298 C1297 1.413 . S
C1299 H1288 0.931 . S
C1299 C1297 1.416 . S
C1299 C1300 1.332 . S
C1300 H1279 0.929 . S
C1300 C1296 1.407 . S
C1300 C1299 1.332 . S
H1301 C1294 0.930 . S
H1302 C1325 0.930 . S
H1303 C1326 0.929 . S
O1304 Tb1260 2.465 . S
O1304 C1324 1.264 . S
O1305 Tb1260 2.387 . S
O1305 C1316 1.264 . S
O1306 Tb1271 2.349 . S
O1306 C1316 1.243 . S
O1307 Tb1260 2.428 . S
O1307 C1324 1.256 . S
O1308 Tb1260 2.308 . S
O1308 C1323 1.266 . S
O1309 Tb1271 2.393 . S
O1309 C1323 1.248 . S
O1310 Tb1271 2.465 . S
O1310 C1335 1.264 . S
O1311 Tb1271 2.387 . S
O1311 C1327 1.264 . S
O1312 Tb1260 2.349 . S
O1312 C1327 1.243 . S
O1313 Tb1271 2.428 . S
O1313 C1335 1.256 . S
O1314 Tb1271 2.308 . S
O1314 C1334 1.266 . S
O1315 Tb1260 2.393 . S
O1315 C1334 1.248 . S
C1316 O1305 1.264 . S
C1316 O1306 1.243 . S
C1317 C1320 1.399 . S
C1317 C1322 1.383 . S
C1317 C1324 1.496 . S
C1318 C1319 1.399 . S
C1318 C1322 1.389 . S
C1319 C1318 1.399 . S
C1319 C1321 1.380 . S
C1319 H1336 0.929 . S
C1320 C1317 1.399 . S
C1320 C1321 1.392 . S
C1320 H1337 0.929 . S
C1321 C1319 1.380 . S
C1321 C1320 1.392 . S
C1321 H1338 0.929 . S
C1322 C1317 1.383 . S
C1322 C1318 1.389 . S
C1322 H1339 0.931 . S
C1323 O1308 1.266 . S
C1323 O1309 1.248 . S
C1324 Tb1260 2.802 . S
C1324 O1304 1.264 . S
C1324 O1307 1.256 . S
C1324 C1317 1.496 . S
C1325 C1292 1.448 . S
C1325 H1302 0.930 . S
C1325 C1326 1.328 . S
C1326 C1297 1.427 . S
C1326 H1303 0.929 . S
C1326 C1325 1.328 . S
C1327 O1311 1.264 . S
C1327 O1312 1.243 . S
C1328 C1331 1.399 . S
C1328 C1332 1.383 . S
C1328 C1335 1.496 . S
C1329 C1330 1.399 . S
C1329 C1332 1.389 1_556 S
C1330 C1329 1.399 . S
C1330 C1333 1.380 . S
C1330 H1340 0.929 . S
C1331 C1328 1.399 . S
C1331 C1333 1.392 1_554 S
C1331 H1341 0.929 . S
C1332 C1328 1.383 . S
C1332 C1329 1.389 1_554 S
C1332 H1342 0.931 . S
C1333 C1330 1.380 . S
C1333 C1331 1.392 1_556 S
C1333 H1343 0.929 . S
C1334 O1314 1.266 . S
C1334 O1315 1.248 . S
C1335 Tb1271 2.802 . S
C1335 O1310 1.264 . S
C1335 O1313 1.256 . S
C1335 C1328 1.496 . S
H1336 C1319 0.929 . S
H1337 C1320 0.929 . S
H1338 C1321 0.929 . S
H1339 C1322 0.931 . S
H1340 C1330 0.929 . S
H1341 C1331 0.929 . S
H1342 C1332 0.931 . S
H1343 C1333 0.929 . S
C1344 C1345 1.387 . S
C1344 H1348 0.950 . S
C1344 C1353 1.390 . S
C1345 C1344 1.387 . S
C1345 C1347 1.387 . S
H1346 C1353 0.950 . S
C1347 C1345 1.387 . S
C1347 C1349 1.390 . S
C1347 H1351 0.950 . S
H1348 C1344 0.950 . S
C1349 C1347 1.390 . S
C1349 C1350 1.387 . S
C1349 H1352 0.950 1_565 S
C1350 C1349 1.387 . S
C1350 C1353 1.387 . S
H1351 C1347 0.950 . S
H1352 C1349 0.950 1_545 S
C1353 C1344 1.390 . S
C1353 H1346 0.950 . S
C1353 C1350 1.387 . S
C1354 C1355 1.387 . S
C1354 H1358 0.950 . S
C1354 C1363 1.390 . S
C1355 C1354 1.387 . S
C1355 C1357 1.387 . S
H1356 C1363 0.950 . S
C1357 C1355 1.387 . S
C1357 C1359 1.390 . S
C1357 H1361 0.950 . S
H1358 C1354 0.950 . S
C1359 C1357 1.390 . S
C1359 C1360 1.387 . S
C1359 H1362 0.950 1_655 S
C1360 C1359 1.387 . S
C1360 C1363 1.387 . S
H1361 C1357 0.950 . S
H1362 C1359 0.950 1_455 S
C1363 C1354 1.390 . S
C1363 H1356 0.950 . S
C1363 C1360 1.387 . S
C1364 C1365 1.387 . S
C1364 H1368 0.950 . S
C1364 C1373 1.390 . S
C1365 C1364 1.387 . S
C1365 C1367 1.387 . S
H1366 C1373 0.950 . S
C1367 C1365 1.387 . S
C1367 C1369 1.390 . S
C1367 H1371 0.950 1_545 S
H1368 C1364 0.950 . S
C1369 C1367 1.390 . S
C1369 C1370 1.387 . S
C1369 H1372 0.950 . S
C1370 C1369 1.387 . S
C1370 C1373 1.387 . S
H1371 C1367 0.950 1_565 S
H1372 C1369 0.950 . S
C1373 C1364 1.390 . S
C1373 H1366 0.950 . S
C1373 C1370 1.387 . S
C1374 C1375 1.387 . S
C1374 H1378 0.950 . S
C1374 C1383 1.390 . S
C1375 C1374 1.387 . S
C1375 C1377 1.387 . S
H1376 C1383 0.950 . S
C1377 C1375 1.387 . S
C1377 C1379 1.390 . S
C1377 H1381 0.950 1_455 S
H1378 C1374 0.950 . S
C1379 C1377 1.390 . S
C1379 C1380 1.387 . S
C1379 H1382 0.950 . S
C1380 C1379 1.387 . S
C1380 C1383 1.387 . S
H1381 C1377 0.950 1_655 S
H1382 C1379 0.950 . S
C1383 C1374 1.390 . S
C1383 H1376 0.950 . S
C1383 C1380 1.387 . S
C1384 C1385 1.387 . S
C1384 H1388 0.950 . S
C1384 C1393 1.390 . S
C1385 C1384 1.387 . S
C1385 C1387 1.387 1_554 S
H1386 C1393 0.950 . S
C1387 C1385 1.387 1_556 S
C1387 C1389 1.390 . S
C1387 H1391 0.950 . S
H1388 C1384 0.950 . S
C1389 C1387 1.390 . S
C1389 C1390 1.387 . S
C1389 H1392 0.950 . S
C1390 C1389 1.387 . S
C1390 C1393 1.387 1_556 S
H1391 C1387 0.950 . S
H1392 C1389 0.950 . S
C1393 C1384 1.390 . S
C1393 H1386 0.950 . S
C1393 C1390 1.387 1_554 S
C1394 C1395 1.387 1_556 S
C1394 H1398 0.950 . S
C1394 C1403 1.390 . S
C1395 C1394 1.387 1_554 S
C1395 C1397 1.387 . S
H1396 C1403 0.950 . S
C1397 C1395 1.387 . S
C1397 C1399 1.390 . S
C1397 H1401 0.950 . S
H1398 C1394 0.950 . S
C1399 C1397 1.390 . S
C1399 C1400 1.387 1_554 S
C1399 H1402 0.950 . S
C1400 C1399 1.387 1_556 S
C1400 C1403 1.387 . S
H1401 C1397 0.950 . S
H1402 C1399 0.950 . S
C1403 C1394 1.390 . S
C1403 H1396 0.950 . S
C1403 C1400 1.387 . S
C1404 C1405 1.387 . S
C1404 H1408 0.950 . S
C1404 C1413 1.390 . S
C1405 C1404 1.387 . S
C1405 C1407 1.387 1_554 S
H1406 C1413 0.950 . S
C1407 C1405 1.387 1_556 S
C1407 C1409 1.390 . S
C1407 H1411 0.950 . S
H1408 C1404 0.950 . S
C1409 C1407 1.390 . S
C1409 C1410 1.387 . S
C1409 H1412 0.950 . S
C1410 C1409 1.387 . S
C1410 C1413 1.387 1_556 S
H1411 C1407 0.950 . S
H1412 C1409 0.950 . S
C1413 C1404 1.390 . S
C1413 H1406 0.950 . S
C1413 C1410 1.387 1_554 S
C1414 C1415 1.387 1_556 S
C1414 H1418 0.952 . S
C1414 C1423 1.390 . S
C1415 C1414 1.387 1_554 S
C1415 C1417 1.387 1_554 S
H1416 C1423 0.950 . S
C1417 C1415 1.387 1_556 S
C1417 C1419 1.390 . S
C1417 H1421 0.950 1_556 S
H1418 C1414 0.952 . S
C1419 C1417 1.390 . S
C1419 C1420 1.387 . S
C1419 H1422 0.950 . S
C1420 C1419 1.387 . S
C1420 C1423 1.387 . S
H1421 C1417 0.950 1_554 S
H1422 C1419 0.950 . S
C1423 C1414 1.390 . S
C1423 H1416 0.950 . S
C1423 C1420 1.387 . S
C1424 C1425 1.387 . S
C1424 H1428 0.950 . S
C1424 C1433 1.390 . S
C1425 C1424 1.387 . S
C1425 C1427 1.387 . S
H1426 C1433 0.950 . S
C1427 C1425 1.387 . S
C1427 C1429 1.390 . S
C1427 H1431 0.950 . S
H1428 C1424 0.950 . S
C1429 C1427 1.390 . S
C1429 C1430 1.387 . S
C1429 H1432 0.950 . S
C1430 C1429 1.387 . S
C1430 C1433 1.387 . S
H1431 C1427 0.950 . S
H1432 C1429 0.950 . S
C1433 C1424 1.390 . S
C1433 H1426 0.950 . S
C1433 C1430 1.387 . S
C1434 C1435 1.387 . S
C1434 H1438 0.950 . S
C1434 C1443 1.390 . S
C1435 C1434 1.387 . S
C1435 C1437 1.387 . S
H1436 C1443 0.950 . S
C1437 C1435 1.387 . S
C1437 C1439 1.390 . S
C1437 H1441 0.950 . S
H1438 C1434 0.950 . S
C1439 C1437 1.390 . S
C1439 C1440 1.387 . S
C1439 H1442 0.950 . S
C1440 C1439 1.387 . S
C1440 C1443 1.387 . S
H1441 C1437 0.950 . S
H1442 C1439 0.950 . S
C1443 C1434 1.390 . S
C1443 H1436 0.950 . S
C1443 C1440 1.387 . S
C1444 C1445 1.387 . S
C1444 H1448 0.950 . S
C1444 C1453 1.390 . S
C1445 C1444 1.387 . S
C1445 C1447 1.387 . S
H1446 C1453 0.950 . S
C1447 C1445 1.387 . S
C1447 C1449 1.390 . S
C1447 H1451 0.950 . S
H1448 C1444 0.950 . S
C1449 C1447 1.390 . S
C1449 C1450 1.387 . S
C1449 H1452 0.950 . S
C1450 C1449 1.387 . S
C1450 C1453 1.387 . S
H1451 C1447 0.950 . S
H1452 C1449 0.950 . S
C1453 C1444 1.390 . S
C1453 H1446 0.950 . S
C1453 C1450 1.387 . S
C1454 C1455 1.387 . S
C1454 H1458 0.950 . S
C1454 C1463 1.390 . S
C1455 C1454 1.387 . S
C1455 C1457 1.387 . S
H1456 C1463 0.950 . S
C1457 C1455 1.387 . S
C1457 C1459 1.390 . S
C1457 H1461 0.950 . S
H1458 C1454 0.950 . S
C1459 C1457 1.390 . S
C1459 C1460 1.387 . S
C1459 H1462 0.950 . S
C1460 C1459 1.387 . S
C1460 C1463 1.387 . S
H1461 C1457 0.950 . S
H1462 C1459 0.950 . S
C1463 C1454 1.390 . S
C1463 H1456 0.950 . S
C1463 C1460 1.387 . S
C1464 C1465 1.387 . S
C1464 H1468 0.950 . S
C1464 C1473 1.390 . S
C1465 C1464 1.387 . S
C1465 C1467 1.387 . S
H1466 C1473 0.950 . S
C1467 C1465 1.387 . S
C1467 C1469 1.390 . S
C1467 H1471 0.953 . S
H1468 C1464 0.950 . S
C1469 C1467 1.390 . S
C1469 C1470 1.387 . S
C1469 H1472 0.950 . S
C1470 C1469 1.387 . S
C1470 C1473 1.387 . S
H1471 C1467 0.953 . S
H1472 C1469 0.950 . S
C1473 C1464 1.390 . S
C1473 H1466 0.950 . S
C1473 C1470 1.387 . S
C1474 C1475 1.387 . S
C1474 H1478 0.950 . S
C1474 C1483 1.390 . S
C1475 C1474 1.387 . S
C1475 C1477 1.387 . S
H1476 C1483 0.950 . S
C1477 C1475 1.387 . S
C1477 C1479 1.390 . S
C1477 H1481 0.950 . S
H1478 C1474 0.950 . S
C1479 C1477 1.390 . S
C1479 C1480 1.387 . S
C1479 H1482 0.950 . S
C1480 C1479 1.387 . S
C1480 C1483 1.387 . S
H1481 C1477 0.950 . S
H1482 C1479 0.950 . S
C1483 C1474 1.390 . S
C1483 H1476 0.950 . S
C1483 C1480 1.387 . S
C1484 C1485 1.387 . S
C1484 H1488 0.950 . S
C1484 C1493 1.390 . S
C1485 C1484 1.387 . S
C1485 C1487 1.387 . S
H1486 C1493 0.950 . S
C1487 C1485 1.387 . S
C1487 C1489 1.390 . S
C1487 H1491 0.950 . S
H1488 C1484 0.950 . S
C1489 C1487 1.390 . S
C1489 C1490 1.387 . S
C1489 H1492 0.950 1_565 S
C1490 C1489 1.387 . S
C1490 C1493 1.387 . S
H1491 C1487 0.950 . S
H1492 C1489 0.950 1_545 S
C1493 C1484 1.390 . S
C1493 H1486 0.950 . S
C1493 C1490 1.387 . S
C1494 C1495 1.387 . S
C1494 H1498 0.950 . S
C1494 C1503 1.390 . S
C1495 C1494 1.387 . S
C1495 C1497 1.387 . S
H1496 C1503 0.950 . S
C1497 C1495 1.387 . S
C1497 C1499 1.390 . S
C1497 H1501 0.950 . S
H1498 C1494 0.950 . S
C1499 C1497 1.390 . S
C1499 C1500 1.387 . S
C1499 H1502 0.950 . S
C1500 C1499 1.387 . S
C1500 C1503 1.387 . S
H1501 C1497 0.950 . S
H1502 C1499 0.950 . S
C1503 C1494 1.390 . S
C1503 H1496 0.950 . S
C1503 C1500 1.387 . S
C1504 C1505 1.387 . S
C1504 H1508 0.950 . S
C1504 C1513 1.390 . S
C1505 C1504 1.387 . S
C1505 C1507 1.387 . S
H1506 C1513 0.950 . S
C1507 C1505 1.387 . S
C1507 C1509 1.390 . S
C1507 H1511 0.950 . S
H1508 C1504 0.950 . S
C1509 C1507 1.390 . S
C1509 C1510 1.387 . S
C1509 H1512 0.950 . S
C1510 C1509 1.387 . S
C1510 C1513 1.387 . S
H1511 C1507 0.950 . S
H1512 C1509 0.950 . S
C1513 C1504 1.390 . S
C1513 H1506 0.950 . S
C1513 C1510 1.387 . S
C1514 C1515 1.387 . S
C1514 H1518 0.950 . S
C1514 C1523 1.390 . S
C1515 C1514 1.387 . S
C1515 C1517 1.387 . S
H1516 C1523 0.950 . S
C1517 C1515 1.387 . S
C1517 C1519 1.390 . S
C1517 H1521 0.950 . S
H1518 C1514 0.950 . S
C1519 C1517 1.390 . S
C1519 C1520 1.387 . S
C1519 H1522 0.950 . S
C1520 C1519 1.387 . S
C1520 C1523 1.387 . S
H1521 C1517 0.950 . S
H1522 C1519 0.950 . S
C1523 C1514 1.390 . S
C1523 H1516 0.950 . S
C1523 C1520 1.387 . S
C1524 C1525 1.387 . S
C1524 H1528 0.950 . S
C1524 C1533 1.390 . S
C1525 C1524 1.387 . S
C1525 C1527 1.387 . S
H1526 C1533 0.950 . S
C1527 C1525 1.387 . S
C1527 C1529 1.390 . S
C1527 H1531 0.950 . S
H1528 C1524 0.950 . S
C1529 C1527 1.390 . S
C1529 C1530 1.387 . S
C1529 H1532 0.950 . S
C1530 C1529 1.387 . S
C1530 C1533 1.387 . S
H1531 C1527 0.950 . S
H1532 C1529 0.950 . S
C1533 C1524 1.390 . S
C1533 H1526 0.950 . S
C1533 C1530 1.387 . S
C1534 C1535 1.387 . S
C1534 H1538 0.950 . S
C1534 C1543 1.390 . S
C1535 C1534 1.387 . S
C1535 C1537 1.387 . S
H1536 C1543 0.950 . S
C1537 C1535 1.387 . S
C1537 C1539 1.390 . S
C1537 H1541 0.950 . S
H1538 C1534 0.950 . S
C1539 C1537 1.390 . S
C1539 C1540 1.387 . S
C1539 H1542 0.950 . S
C1540 C1539 1.387 . S
C1540 C1543 1.387 . S
H1541 C1537 0.950 . S
H1542 C1539 0.950 . S
C1543 C1534 1.390 . S
C1543 H1536 0.950 . S
C1543 C1540 1.387 . S
C1544 C1545 1.387 . S
C1544 H1548 0.950 . S
C1544 C1553 1.390 . S
C1545 C1544 1.387 . S
C1545 C1547 1.387 . S
H1546 C1553 0.950 . S
C1547 C1545 1.387 . S
C1547 C1549 1.390 . S
C1547 H1551 0.950 . S
H1548 C1544 0.950 . S
C1549 C1547 1.390 . S
C1549 C1550 1.387 . S
C1549 H1552 0.950 . S
C1550 C1549 1.387 . S
C1550 C1553 1.387 . S
H1551 C1547 0.950 . S
H1552 C1549 0.950 . S
C1553 C1544 1.390 . S
C1553 H1546 0.950 . S
C1553 C1550 1.387 . S
C1554 C1555 1.387 . S
C1554 H1558 0.950 . S
C1554 C1563 1.390 . S
C1555 C1554 1.387 . S
C1555 C1557 1.387 . S
H1556 C1563 0.950 . S
C1557 C1555 1.387 . S
C1557 C1559 1.390 . S
C1557 H1561 0.950 . S
H1558 C1554 0.950 . S
C1559 C1557 1.390 . S
C1559 C1560 1.387 . S
C1559 H1562 0.950 . S
C1560 C1559 1.387 . S
C1560 C1563 1.387 . S
H1561 C1557 0.950 . S
H1562 C1559 0.950 . S
C1563 C1554 1.390 . S
C1563 H1556 0.950 . S
C1563 C1560 1.387 . S
C1564 C1565 1.387 . S
C1564 H1568 0.950 . S
C1564 C1573 1.390 . S
C1565 C1564 1.387 . S
C1565 C1567 1.387 . S
H1566 C1573 0.950 . S
C1567 C1565 1.387 . S
C1567 C1569 1.390 . S
C1567 H1571 0.950 . S
H1568 C1564 0.950 . S
C1569 C1567 1.390 . S
C1569 C1570 1.387 . S
C1569 H1572 0.950 . S
C1570 C1569 1.387 . S
C1570 C1573 1.387 . S
H1571 C1567 0.950 . S
H1572 C1569 0.950 . S
C1573 C1564 1.390 . S
C1573 H1566 0.950 . S
C1573 C1570 1.387 . S
C1574 C1575 1.387 . S
C1574 H1578 0.950 . S
C1574 C1583 1.390 . S
C1575 C1574 1.387 . S
C1575 C1577 1.387 . S
H1576 C1583 0.950 . S
C1577 C1575 1.387 . S
C1577 C1579 1.390 . S
C1577 H1581 0.950 . S
H1578 C1574 0.950 . S
C1579 C1577 1.390 . S
C1579 C1580 1.387 . S
C1579 H1582 0.950 . S
C1580 C1579 1.387 . S
C1580 C1583 1.387 . S
H1581 C1577 0.950 . S
H1582 C1579 0.950 . S
C1583 C1574 1.390 . S
C1583 H1576 0.950 . S
C1583 C1580 1.387 . S
C1584 C1585 1.387 . S
C1584 H1588 0.950 . S
C1584 C1593 1.390 . S
C1585 C1584 1.387 . S
C1585 C1587 1.387 . S
H1586 C1593 0.950 . S
C1587 C1585 1.387 . S
C1587 C1589 1.390 . S
C1587 H1591 0.950 . S
H1588 C1584 0.950 . S
C1589 C1587 1.390 . S
C1589 C1590 1.387 . S
C1589 H1592 0.950 . S
C1590 C1589 1.387 . S
C1590 C1593 1.387 . S
H1591 C1587 0.950 . S
H1592 C1589 0.950 . S
C1593 C1584 1.390 . S
C1593 H1586 0.950 . S
C1593 C1590 1.387 . S
C1594 C1595 1.387 . S
C1594 H1598 0.950 . S
C1594 C1603 1.390 . S
C1595 C1594 1.387 . S
C1595 C1597 1.387 . S
H1596 C1603 0.950 . S
C1597 C1595 1.387 . S
C1597 C1599 1.390 . S
C1597 H1601 0.950 . S
H1598 C1594 0.950 . S
C1599 C1597 1.390 . S
C1599 C1600 1.387 . S
C1599 H1602 0.950 . S
C1600 C1599 1.387 . S
C1600 C1603 1.387 . S
H1601 C1597 0.950 . S
H1602 C1599 0.950 . S
C1603 C1594 1.390 . S
C1603 H1596 0.950 . S
C1603 C1600 1.387 . S
C1604 C1605 1.387 . S
C1604 H1608 0.950 . S
C1604 C1613 1.390 . S
C1605 C1604 1.387 . S
C1605 C1607 1.387 . S
H1606 C1613 0.950 . S
C1607 C1605 1.387 . S
C1607 C1609 1.390 . S
C1607 H1611 0.950 . S
H1608 C1604 0.950 . S
C1609 C1607 1.390 . S
C1609 C1610 1.387 . S
C1609 H1612 0.950 . S
C1610 C1609 1.387 . S
C1610 C1613 1.387 . S
H1611 C1607 0.950 . S
H1612 C1609 0.950 . S
C1613 C1604 1.390 . S
C1613 H1606 0.950 . S
C1613 C1610 1.387 . S
C1614 C1615 1.387 . S
C1614 H1618 0.950 . S
C1614 C1623 1.390 . S
C1615 C1614 1.387 . S
C1615 C1617 1.387 . S
H1616 C1623 0.950 . S
C1617 C1615 1.387 . S
C1617 C1619 1.390 . S
C1617 H1621 0.950 . S
H1618 C1614 0.950 . S
C1619 C1617 1.390 . S
C1619 C1620 1.387 . S
C1619 H1622 0.950 . S
C1620 C1619 1.387 . S
C1620 C1623 1.387 . S
H1621 C1617 0.950 . S
H1622 C1619 0.950 . S
C1623 C1614 1.390 . S
C1623 H1616 0.950 . S
C1623 C1620 1.387 . S
C1624 C1625 1.387 . S
C1624 H1628 0.950 . S
C1624 C1633 1.390 . S
C1625 C1624 1.387 . S
C1625 C1627 1.387 . S
H1626 C1633 0.950 . S
C1627 C1625 1.387 . S
C1627 C1629 1.390 . S
C1627 H1631 0.950 . S
H1628 C1624 0.950 . S
C1629 C1627 1.390 . S
C1629 C1630 1.387 . S
C1629 H1632 0.950 . S
C1630 C1629 1.387 . S
C1630 C1633 1.387 . S
H1631 C1627 0.950 . S
H1632 C1629 0.950 . S
C1633 C1624 1.390 . S
C1633 H1626 0.950 . S
C1633 C1630 1.387 . S
C1634 C1635 1.387 . S
C1634 H1638 0.950 . S
C1634 C1643 1.390 . S
C1635 C1634 1.387 . S
C1635 C1637 1.387 . S
H1636 C1643 0.950 . S
C1637 C1635 1.387 . S
C1637 C1639 1.390 . S
C1637 H1641 0.950 . S
H1638 C1634 0.950 . S
C1639 C1637 1.390 . S
C1639 C1640 1.387 . S
C1639 H1642 0.950 . S
C1640 C1639 1.387 . S
C1640 C1643 1.387 . S
H1641 C1637 0.950 . S
H1642 C1639 0.950 . S
C1643 C1634 1.390 . S
C1643 H1636 0.950 . S
C1643 C1640 1.387 . S
C1644 C1645 1.387 . S
C1644 H1648 0.950 . S
C1644 C1653 1.390 . S
C1645 C1644 1.387 . S
C1645 C1647 1.387 . S
H1646 C1653 0.950 . S
C1647 C1645 1.387 . S
C1647 C1649 1.390 . S
C1647 H1651 0.950 . S
H1648 C1644 0.950 . S
C1649 C1647 1.390 . S
C1649 C1650 1.387 . S
C1649 H1652 0.950 . S
C1650 C1649 1.387 . S
C1650 C1653 1.387 . S
H1651 C1647 0.950 . S
H1652 C1649 0.950 . S
C1653 C1644 1.390 . S
C1653 H1646 0.950 . S
C1653 C1650 1.387 . S
C1654 C1655 1.387 . S
C1654 H1658 0.950 . S
C1654 C1663 1.390 . S
C1655 C1654 1.387 . S
C1655 C1657 1.387 . S
H1656 C1663 0.950 . S
C1657 C1655 1.387 . S
C1657 C1659 1.390 . S
C1657 H1661 0.950 . S
H1658 C1654 0.950 . S
C1659 C1657 1.390 . S
C1659 C1660 1.387 . S
C1659 H1662 0.950 . S
C1660 C1659 1.387 . S
C1660 C1663 1.387 . S
H1661 C1657 0.950 . S
H1662 C1659 0.950 . S
C1663 C1654 1.390 . S
C1663 H1656 0.950 . S
C1663 C1660 1.387 . S
C1664 C1665 1.387 . S
C1664 H1668 0.950 . S
C1664 C1673 1.390 . S
C1665 C1664 1.387 . S
C1665 C1667 1.387 . S
H1666 C1673 0.950 . S
C1667 C1665 1.387 . S
C1667 C1669 1.390 . S
C1667 H1671 0.950 . S
H1668 C1664 0.950 . S
C1669 C1667 1.390 . S
C1669 C1670 1.387 . S
C1669 H1672 0.950 . S
C1670 C1669 1.387 . S
C1670 C1673 1.387 . S
H1671 C1667 0.950 . S
H1672 C1669 0.950 . S
C1673 C1664 1.390 . S
C1673 H1666 0.950 . S
C1673 C1670 1.387 . S
C1674 C1675 1.387 . S
C1674 H1678 0.950 . S
C1674 C1683 1.390 . S
C1675 C1674 1.387 . S
C1675 C1677 1.387 . S
H1676 C1683 0.950 . S
C1677 C1675 1.387 . S
C1677 C1679 1.390 . S
C1677 H1681 0.950 . S
H1678 C1674 0.950 . S
C1679 C1677 1.390 . S
C1679 C1680 1.387 . S
C1679 H1682 0.950 . S
C1680 C1679 1.387 . S
C1680 C1683 1.387 . S
H1681 C1677 0.950 . S
H1682 C1679 0.950 . S
C1683 C1674 1.390 . S
C1683 H1676 0.950 . S
C1683 C1680 1.387 . S
C1684 C1685 1.387 . S
C1684 H1688 0.950 . S
C1684 C1693 1.390 . S
C1685 C1684 1.387 . S
C1685 C1687 1.387 . S
H1686 C1693 0.950 . S
C1687 C1685 1.387 . S
C1687 C1689 1.390 . S
C1687 H1691 0.950 . S
H1688 C1684 0.950 . S
C1689 C1687 1.390 . S
C1689 C1690 1.387 . S
C1689 H1692 0.950 . S
C1690 C1689 1.387 . S
C1690 C1693 1.387 . S
H1691 C1687 0.950 . S
H1692 C1689 0.950 . S
C1693 C1684 1.390 . S
C1693 H1686 0.950 . S
C1693 C1690 1.387 . S
C1694 C1695 1.387 . S
C1694 H1698 0.950 . S
C1694 C1703 1.390 . S
C1695 C1694 1.387 . S
C1695 C1697 1.387 . S
H1696 C1703 0.950 . S
C1697 C1695 1.387 . S
C1697 C1699 1.390 . S
C1697 H1701 0.950 . S
H1698 C1694 0.950 . S
C1699 C1697 1.390 . S
C1699 C1700 1.387 . S
C1699 H1702 0.950 . S
C1700 C1699 1.387 . S
C1700 C1703 1.387 . S
H1701 C1697 0.950 . S
H1702 C1699 0.950 . S
C1703 C1694 1.390 . S
C1703 H1696 0.950 . S
C1703 C1700 1.387 . S
C1704 C1705 1.387 . S
C1704 H1708 0.950 . S
C1704 C1713 1.390 . S
C1705 C1704 1.387 . S
C1705 C1707 1.387 . S
H1706 C1713 0.950 . S
C1707 C1705 1.387 . S
C1707 C1709 1.390 . S
C1707 H1711 0.950 . S
H1708 C1704 0.950 . S
C1709 C1707 1.390 . S
C1709 C1710 1.387 . S
C1709 H1712 0.950 . S
C1710 C1709 1.387 . S
C1710 C1713 1.387 . S
H1711 C1707 0.950 . S
H1712 C1709 0.950 . S
C1713 C1704 1.390 . S
C1713 H1706 0.950 . S
C1713 C1710 1.387 . S
C1714 C1715 1.387 . S
C1714 H1718 0.950 . S
C1714 C1723 1.390 . S
C1715 C1714 1.387 . S
C1715 C1717 1.387 . S
H1716 C1723 0.950 . S
C1717 C1715 1.387 . S
C1717 C1719 1.390 . S
C1717 H1721 0.950 . S
H1718 C1714 0.950 . S
C1719 C1717 1.390 . S
C1719 C1720 1.387 . S
C1719 H1722 0.950 . S
C1720 C1719 1.387 . S
C1720 C1723 1.387 . S
H1721 C1717 0.950 . S
H1722 C1719 0.950 . S
C1723 C1714 1.390 . S
C1723 H1716 0.950 . S
C1723 C1720 1.387 . S
C1724 C1725 1.387 . S
C1724 H1728 0.950 . S
C1724 C1733 1.390 . S
C1725 C1724 1.387 . S
C1725 C1727 1.387 . S
H1726 C1733 0.950 . S
C1727 C1725 1.387 . S
C1727 C1729 1.390 . S
C1727 H1731 0.950 . S
H1728 C1724 0.950 . S
C1729 C1727 1.390 . S
C1729 C1730 1.387 . S
C1729 H1732 0.950 . S
C1730 C1729 1.387 . S
C1730 C1733 1.387 . S
H1731 C1727 0.950 . S
H1732 C1729 0.950 . S
C1733 C1724 1.390 . S
C1733 H1726 0.950 . S
C1733 C1730 1.387 . S
C1734 C1735 1.387 . S
C1734 H1738 0.950 . S
C1734 C1743 1.390 . S
C1735 C1734 1.387 . S
C1735 C1737 1.387 . S
H1736 C1743 0.950 . S
C1737 C1735 1.387 . S
C1737 C1739 1.390 . S
C1737 H1741 0.950 . S
H1738 C1734 0.950 . S
C1739 C1737 1.390 . S
C1739 C1740 1.387 . S
C1739 H1742 0.950 . S
C1740 C1739 1.387 . S
C1740 C1743 1.387 . S
H1741 C1737 0.950 . S
H1742 C1739 0.950 . S
C1743 C1734 1.390 . S
C1743 H1736 0.950 . S
C1743 C1740 1.387 . S
C1744 C1745 1.387 . S
C1744 H1748 0.950 . S
C1744 C1753 1.390 . S
C1745 C1744 1.387 . S
C1745 C1747 1.387 . S
H1746 C1753 0.950 . S
C1747 C1745 1.387 . S
C1747 C1749 1.390 . S
C1747 H1751 0.950 . S
H1748 C1744 0.950 . S
C1749 C1747 1.390 . S
C1749 C1750 1.387 . S
C1749 H1752 0.950 . S
C1750 C1749 1.387 . S
C1750 C1753 1.387 . S
H1751 C1747 0.950 . S
H1752 C1749 0.950 . S
C1753 C1744 1.390 . S
C1753 H1746 0.950 . S
C1753 C1750 1.387 . S
C1754 C1755 1.387 . S
C1754 H1758 0.950 . S
C1754 C1763 1.390 . S
C1755 C1754 1.387 . S
C1755 C1757 1.387 . S
H1756 C1763 0.950 . S
C1757 C1755 1.387 . S
C1757 C1759 1.390 . S
C1757 H1761 0.950 . S
H1758 C1754 0.950 . S
C1759 C1757 1.390 . S
C1759 C1760 1.387 . S
C1759 H1762 0.950 . S
C1760 C1759 1.387 . S
C1760 C1763 1.387 . S
H1761 C1757 0.950 . S
H1762 C1759 0.950 . S
C1763 C1754 1.390 . S
C1763 H1756 0.950 . S
C1763 C1760 1.387 . S
C1764 C1765 1.387 . S
C1764 H1768 0.950 . S
C1764 C1773 1.390 . S
C1765 C1764 1.387 . S
C1765 C1767 1.387 . S
H1766 C1773 0.950 . S
C1767 C1765 1.387 . S
C1767 C1769 1.390 . S
C1767 H1771 0.950 . S
H1768 C1764 0.950 . S
C1769 C1767 1.390 . S
C1769 C1770 1.387 . S
C1769 H1772 0.950 . S
C1770 C1769 1.387 . S
C1770 C1773 1.387 . S
H1771 C1767 0.950 . S
H1772 C1769 0.950 . S
C1773 C1764 1.390 . S
C1773 H1766 0.950 . S
C1773 C1770 1.387 . S
C1774 C1775 1.387 . S
C1774 H1778 0.950 . S
C1774 C1783 1.390 . S
C1775 C1774 1.387 . S
C1775 C1777 1.387 . S
H1776 C1783 0.950 . S
C1777 C1775 1.387 . S
C1777 C1779 1.390 . S
C1777 H1781 0.950 . S
H1778 C1774 0.950 . S
C1779 C1777 1.390 . S
C1779 C1780 1.387 . S
C1779 H1782 0.950 . S
C1780 C1779 1.387 . S
C1780 C1783 1.387 . S
H1781 C1777 0.950 . S
H1782 C1779 0.950 . S
C1783 C1774 1.390 . S
C1783 H1776 0.950 . S
C1783 C1780 1.387 . S
C1784 C1785 1.387 . S
C1784 H1788 0.950 . S
C1784 C1793 1.390 . S
C1785 C1784 1.387 . S
C1785 C1787 1.387 . S
H1786 C1793 0.950 . S
C1787 C1785 1.387 . S
C1787 C1789 1.390 . S
C1787 H1791 0.950 . S
H1788 C1784 0.950 . S
C1789 C1787 1.390 . S
C1789 C1790 1.387 . S
C1789 H1792 0.950 . S
C1790 C1789 1.387 . S
C1790 C1793 1.387 . S
H1791 C1787 0.950 . S
H1792 C1789 0.950 . S
C1793 C1784 1.390 . S
C1793 H1786 0.950 . S
C1793 C1790 1.387 . S
C1794 C1795 1.387 . S
C1794 H1798 0.950 . S
C1794 C1803 1.390 . S
C1795 C1794 1.387 . S
C1795 C1797 1.387 . S
H1796 C1803 0.950 . S
C1797 C1795 1.387 . S
C1797 C1799 1.390 . S
C1797 H1801 0.950 . S
H1798 C1794 0.950 . S
C1799 C1797 1.390 . S
C1799 C1800 1.387 . S
C1799 H1802 0.950 . S
C1800 C1799 1.387 . S
C1800 C1803 1.387 . S
H1801 C1797 0.950 . S
H1802 C1799 0.950 . S
C1803 C1794 1.390 . S
C1803 H1796 0.950 . S
C1803 C1800 1.387 . S
C1804 C1805 1.387 . S
C1804 H1808 0.950 . S
C1804 C1813 1.390 . S
C1805 C1804 1.387 . S
C1805 C1807 1.387 . S
H1806 C1813 0.950 . S
C1807 C1805 1.387 . S
C1807 C1809 1.390 . S
C1807 H1811 0.950 . S
H1808 C1804 0.950 . S
C1809 C1807 1.390 . S
C1809 C1810 1.387 . S
C1809 H1812 0.950 . S
C1810 C1809 1.387 . S
C1810 C1813 1.387 . S
H1811 C1807 0.950 . S
H1812 C1809 0.950 . S
C1813 C1804 1.390 . S
C1813 H1806 0.950 . S
C1813 C1810 1.387 . S
C1814 C1815 1.387 . S
C1814 H1818 0.950 . S
C1814 C1823 1.390 . S
C1815 C1814 1.387 . S
C1815 C1817 1.387 . S
H1816 C1823 0.950 . S
C1817 C1815 1.387 . S
C1817 C1819 1.390 . S
C1817 H1821 0.950 . S
H1818 C1814 0.950 . S
C1819 C1817 1.390 . S
C1819 C1820 1.387 . S
C1819 H1822 0.950 . S
C1820 C1819 1.387 . S
C1820 C1823 1.387 . S
H1821 C1817 0.950 . S
H1822 C1819 0.950 . S
C1823 C1814 1.390 . S
C1823 H1816 0.950 . S
C1823 C1820 1.387 . S
C1345 C991 1.696 . S
C1350 C74 1.686 1_565 S
C1355 C728 1.696 . S
C1360 C147 1.685 1_655 S
C1365 C242 1.686 1_545 S
C1370 C823 1.696 . S
C1375 C315 1.685 1_455 S
C1380 C896 1.696 . S
C1385 C410 1.686 . S
C1390 C487 1.696 . S
C1395 C560 1.696 . S
C1400 C483 1.685 . S
C1405 C578 1.686 . S
C1410 C655 1.696 . S
C1415 C392 1.696 . S
C1420 C651 1.686 . S
C1425 C319 1.696 . S
C1430 C746 1.686 . S
C1435 C819 1.685 . S
C1440 C56 1.696 . S
C1445 C151 1.696 . S
C1450 C914 1.686 . S
C1455 C224 1.696 . S
C1460 C987 1.686 . S
C1465 C1082 1.686 1_545 S
C1470 C1159 1.696 . S
C1475 C1232 1.696 . S
C1480 C1155 1.685 1_455 S
C1485 C1327 1.696 . S
C1490 C1250 1.686 1_565 S
C1495 C1323 1.685 1_655 S
C1500 C1064 1.696 . S
C1505 C63 1.382 . S
C1510 C399 1.382 . S
C1515 C494 1.388 . S
C1520 C158 1.388 . S
C1525 C231 1.388 . S
C1530 C567 1.388 . S
C1535 C326 1.388 . S
C1540 C662 1.388 . S
C1545 C735 1.382 . S
C1550 C1071 1.382 . S
C1555 C1166 1.388 . S
C1560 C830 1.388 . S
C1565 C903 1.388 . S
C1570 C1239 1.388 . S
C1575 C998 1.388 . S
C1580 C1334 1.388 . S
C1585 C1243 2.415 . S
C1590 C67 2.415 1_556 S
C1595 C140 2.418 1_554 S
C1600 C1316 2.418 . S
C1605 C235 2.418 1_556 S
C1610 C1075 2.418 . S
C1615 C308 2.415 1_554 S
C1620 C1148 2.415 . S
C1625 C403 2.415 . S
C1630 C907 2.415 . S
C1635 C476 2.415 . S
C1640 C980 2.415 . S
C1645 C571 2.415 . S
C1650 C739 2.415 . S
C1655 C812 2.418 . S
C1660 C644 2.418 . S
C1665 C69 1.214 . S
C1670 C58 1.214 . S
C1675 C142 1.221 . S
C1680 C153 1.221 . S
C1685 C237 1.214 . S
C1690 C226 1.214 . S
C1695 C321 1.214 . S
C1700 C310 1.214 . S
C1705 C394 1.221 . S
C1710 C405 1.221 . S
C1715 C478 1.221 . S
C1720 C489 1.221 . S
C1725 C573 1.214 . S
C1730 C562 1.214 . S
C1735 C657 1.220 . S
C1740 C646 1.220 . S
C1745 C741 1.216 . S
C1750 C730 1.216 . S
C1755 C825 1.214 . S
C1760 C814 1.214 . S
C1765 C898 1.221 . S
C1770 C909 1.221 . S
C1775 C982 1.214 . S
C1780 C993 1.214 . S
C1785 C1077 1.220 . S
C1790 C1066 1.220 . S
C1795 C1161 1.218 . S
C1800 C1150 1.218 . S
C1805 C1234 1.220 . S
C1810 C1245 1.220 . S
C1815 C1318 1.221 . S
C1820 C1329 1.221 . S
