# Generated by pormake.
# Topology umb, (4)-cn, num edge types: 1
# Building blocks:
#     Node 0, Type 0, BuildingBlock: KOZSID_clean_sbu_0, # of connection points: 4
#     Node 1, Type 0, BuildingBlock: KOZSID_clean_sbu_0, # of connection points: 4
#     Node 2, Type 0, BuildingBlock: KOZSID_clean_sbu_0, # of connection points: 4
#     Node 3, Type 0, BuildingBlock: KOZSID_clean_sbu_0, # of connection points: 4
#     Node 4, Type 0, BuildingBlock: KOZSID_clean_sbu_0, # of connection points: 4
#     Node 5, Type 0, BuildingBlock: KOZSID_clean_sbu_0, # of connection points: 4
#     Node 6, Type 0, BuildingBlock: KOZSID_clean_sbu_0, # of connection points: 4
#     Node 7, Type 0, BuildingBlock: KOZSID_clean_sbu_0, # of connection points: 4
#     Node 8, Type 0, BuildingBlock: KOZSID_clean_sbu_0, # of connection points: 4
#     Node 9, Type 0, BuildingBlock: KOZSID_clean_sbu_0, # of connection points: 4
#     Node 10, Type 0, BuildingBlock: KOZSID_clean_sbu_0, # of connection points: 4
#     Node 11, Type 0, BuildingBlock: KOZSID_clean_sbu_0, # of connection points: 4
#     Edge 12, Type (0, 0), BuildingBlock: ZUJKAS_clean_linker_0, # of connection points: 2
#     Edge 13, Type (0, 0), BuildingBlock: ZUJKAS_clean_linker_0, # of connection points: 2
#     Edge 14, Type (0, 0), BuildingBlock: ZUJKAS_clean_linker_0, # of connection points: 2
#     Edge 15, Type (0, 0), BuildingBlock: ZUJKAS_clean_linker_0, # of connection points: 2
#     Edge 16, Type (0, 0), BuildingBlock: ZUJKAS_clean_linker_0, # of connection points: 2
#     Edge 17, Type (0, 0), BuildingBlock: ZUJKAS_clean_linker_0, # of connection points: 2
#     Edge 18, Type (0, 0), BuildingBlock: ZUJKAS_clean_linker_0, # of connection points: 2
#     Edge 19, Type (0, 0), BuildingBlock: ZUJKAS_clean_linker_0, # of connection points: 2
#     Edge 20, Type (0, 0), BuildingBlock: ZUJKAS_clean_linker_0, # of connection points: 2
#     Edge 21, Type (0, 0), BuildingBlock: ZUJKAS_clean_linker_0, # of connection points: 2
#     Edge 22, Type (0, 0), BuildingBlock: ZUJKAS_clean_linker_0, # of connection points: 2
#     Edge 23, Type (0, 0), BuildingBlock: ZUJKAS_clean_linker_0, # of connection points: 2
#     Edge 24, Type (0, 0), BuildingBlock: ZUJKAS_clean_linker_0, # of connection points: 2
#     Edge 25, Type (0, 0), BuildingBlock: ZUJKAS_clean_linker_0, # of connection points: 2
#     Edge 26, Type (0, 0), BuildingBlock: ZUJKAS_clean_linker_0, # of connection points: 2
#     Edge 27, Type (0, 0), BuildingBlock: ZUJKAS_clean_linker_0, # of connection points: 2
#     Edge 28, Type (0, 0), BuildingBlock: ZUJKAS_clean_linker_0, # of connection points: 2
#     Edge 29, Type (0, 0), BuildingBlock: ZUJKAS_clean_linker_0, # of connection points: 2
#     Edge 30, Type (0, 0), BuildingBlock: ZUJKAS_clean_linker_0, # of connection points: 2
#     Edge 31, Type (0, 0), BuildingBlock: ZUJKAS_clean_linker_0, # of connection points: 2
#     Edge 32, Type (0, 0), BuildingBlock: ZUJKAS_clean_linker_0, # of connection points: 2
#     Edge 33, Type (0, 0), BuildingBlock: ZUJKAS_clean_linker_0, # of connection points: 2
#     Edge 34, Type (0, 0), BuildingBlock: ZUJKAS_clean_linker_0, # of connection points: 2
#     Edge 35, Type (0, 0), BuildingBlock: ZUJKAS_clean_linker_0, # of connection points: 2
# Relax obj value: 0.195
# Max RMSD: 0.231
# Mean RMSD: 0.229
data_MOF--net-umb--node1-KOZSID_clean_sbu_0--edge1-ZUJKAS_clean_linker_0
_symmetry_space_group_name_H-M    P1
_symmetry_Int_Tables_number       1
_symmetry_cell_setting            triclinic
loop_
_symmetry_equiv_pos_as_xyz
'x, y, z'
_cell_length_a     75.624438
_cell_length_b     75.793989
_cell_length_c     54.167753
_cell_angle_alpha  90.039589
_cell_angle_beta   89.989247
_cell_angle_gamma 119.94689
loop_
_atom_site_label
_atom_site_type_symbol
_atom_site_fract_x
_atom_site_fract_y
_atom_site_fract_z
_atom_type_partial_charge
C0 C 0.56715 0.19876 0.26665 0.0
C1 C 0.58112 0.20189 0.24821 0.0
C2 C 0.59316 0.19437 0.25701 0.0
C3 C 0.58587 0.187 0.28027 0.0
N4 N 0.56994 0.18934 0.28636 0.0
Co5 Co 0.55593 0.18276 0.31869 0.0
N6 N 0.57947 0.18362 0.33587 0.0
C7 C 0.59446 0.1819 0.32474 0.0
C8 C 0.60857 0.18255 0.34125 0.0
C9 C 0.60187 0.18457 0.36411 0.0
C10 C 0.58392 0.18499 0.36034 0.0
N11 N 0.54176 0.17651 0.35097 0.0
C12 C 0.54932 0.17874 0.37422 0.0
C13 C 0.5337 0.17188 0.39148 0.0
C14 C 0.51584 0.16504 0.37848 0.0
C15 C 0.52147 0.16803 0.35405 0.0
N16 N 0.53255 0.18195 0.3012 0.0
C17 C 0.5132 0.17281 0.30938 0.0
C18 C 0.50076 0.1764 0.29421 0.0
C19 C 0.51315 0.18865 0.27555 0.0
C20 C 0.53255 0.19178 0.28022 0.0
N21 N 0.54479 0.15329 0.31277 0.0
C22 C 0.53147 0.11156 0.30508 0.0
C23 C 0.53785 0.12056 0.32838 0.0
C24 C 0.54448 0.14123 0.33177 0.0
C25 C 0.53175 0.12401 0.28563 0.0
C26 C 0.53825 0.14475 0.28991 0.0
N27 N 0.56721 0.21181 0.32472 0.0
C28 C 0.56287 0.2403 0.33524 0.0
C29 C 0.58329 0.25368 0.32936 0.0
C30 C 0.59561 0.24583 0.32175 0.0
C31 C 0.58734 0.22488 0.31973 0.0
C32 C 0.55507 0.2193 0.33275 0.0
H33 H 0.59718 0.21927 0.31362 0.0
H34 H 0.53919 0.20915 0.3369 0.0
H35 H 0.54974 0.14746 0.3499 0.0
H36 H 0.53823 0.15394 0.27468 0.0
C37 C 0.59635 0.1829 0.29881 0.0
C38 C 0.5508 0.20395 0.26472 0.0
C39 C 0.57068 0.18507 0.38034 0.0
C40 C 0.50884 0.16605 0.33395 0.0
H41 H 0.58261 0.20912 0.23051 0.0
H42 H 0.6065 0.19546 0.24815 0.0
H43 H 0.62243 0.18225 0.33714 0.0
H44 H 0.60924 0.18543 0.38154 0.0
H45 H 0.53502 0.17151 0.41134 0.0
H46 H 0.50066 0.1591 0.38602 0.0
H47 H 0.48497 0.17205 0.29736 0.0
H48 H 0.50843 0.19496 0.26079 0.0
H49 H 0.53824 0.11178 0.34393 0.0
H50 H 0.52684 0.11776 0.2673 0.0
H51 H 0.55302 0.246 0.34137 0.0
H52 H 0.61156 0.25587 0.31731 0.0
C53 C 0.37544 0.5665 0.60028 0.0
C54 C 0.38649 0.58076 0.58226 0.0
C55 C 0.406 0.59244 0.59136 0.0
C56 C 0.40584 0.58466 0.61438 0.0
N57 N 0.38747 0.56878 0.62004 0.0
Co58 Co 0.37974 0.55417 0.65195 0.0
N59 N 0.40239 0.57721 0.66977 0.0
C60 C 0.41932 0.59214 0.65901 0.0
C61 C 0.43285 0.60571 0.67587 0.0
C62 C 0.42395 0.59871 0.69857 0.0
C63 C 0.40533 0.58121 0.69435 0.0
N64 N 0.37149 0.53946 0.68387 0.0
C65 C 0.37662 0.54656 0.70735 0.0
C66 C 0.36682 0.53075 0.72418 0.0
C67 C 0.35577 0.51323 0.71069 0.0
C68 C 0.35919 0.51923 0.68642 0.0
N69 N 0.35725 0.53128 0.63376 0.0
C70 C 0.34683 0.51184 0.64142 0.0
C71 C 0.33094 0.4998 0.62589 0.0
C72 C 0.33137 0.51254 0.60754 0.0
C73 C 0.34767 0.53174 0.61274 0.0
N74 N 0.39798 0.54291 0.64565 0.0
C75 C 0.42635 0.52949 0.63745 0.0
C76 C 0.42353 0.53538 0.66097 0.0
C77 C 0.40952 0.54207 0.66462 0.0
C78 C 0.4144 0.53031 0.61805 0.0
C79 C 0.40018 0.53685 0.62258 0.0
N80 N 0.36208 0.56559 0.65834 0.0
C81 C 0.32907 0.56143 0.66768 0.0
C82 C 0.33674 0.58222 0.66375 0.0
C83 C 0.35724 0.59456 0.65752 0.0
C84 C 0.36963 0.58596 0.65484 0.0
C85 C 0.34211 0.55341 0.66509 0.0
H86 H 0.38526 0.59579 0.64946 0.0
H87 H 0.336 0.53734 0.66814 0.0
H88 H 0.40838 0.54694 0.68293 0.0
H89 H 0.39115 0.53726 0.60737 0.0
C90 C 0.42037 0.59455 0.63315 0.0
C91 C 0.35392 0.55027 0.5978 0.0
C92 C 0.39196 0.5677 0.71409 0.0
C93 C 0.34874 0.50707 0.66596 0.0
H94 H 0.38094 0.58264 0.5646 0.0
H95 H 0.41839 0.60584 0.58286 0.0
H96 H 0.44723 0.61936 0.67212 0.0
H97 H 0.43057 0.6055 0.71621 0.0
H98 H 0.36763 0.53165 0.7441 0.0
H99 H 0.34586 0.49807 0.71779 0.0
H100 H 0.31934 0.48405 0.62865 0.0
H101 H 0.32045 0.50817 0.59267 0.0
H102 H 0.43252 0.53536 0.67652 0.0
H103 H 0.41589 0.52578 0.59955 0.0
H104 H 0.31324 0.55155 0.67269 0.0
H105 H 0.36358 0.61073 0.6544 0.0
C106 C 0.81634 0.37388 0.93045 0.0
C107 C 0.81791 0.38654 0.91099 0.0
C108 C 0.82521 0.40577 0.92071 0.0
C109 C 0.82857 0.40411 0.9453 0.0
N110 N 0.82405 0.38516 0.95132 0.0
Co111 Co 0.82978 0.37709 0.98364 0.0
N112 N 0.82883 0.39953 1.00101 0.0
C113 C 0.83152 0.41666 0.99011 0.0
C114 C 0.83084 0.43001 1.00673 0.0
C115 C 0.82785 0.42076 0.02942 0.0
C116 C 0.82696 0.40223 0.02546 0.0
N117 N 0.83533 0.36856 0.01582 0.0
C118 C 0.83268 0.3735 0.03909 0.0
C119 C 0.83943 0.36459 0.05628 0.0
C120 C 0.84674 0.35401 0.04318 0.0
C121 C 0.84408 0.35699 0.01876 0.0
N122 N 0.83082 0.35489 0.96597 0.0
C123 C 0.84126 0.34583 0.97342 0.0
C124 C 0.84082 0.3323 0.95619 0.0
C125 C 0.8292 0.33289 0.93695 0.0
C126 C 0.82254 0.34625 0.94388 0.0
N127 N 0.85948 0.39528 0.9786 0.0
C128 C 0.90134 0.42389 0.97164 0.0
C129 C 0.89207 0.42105 0.99482 0.0
C130 C 0.87132 0.40689 0.99786 0.0
C131 C 0.88915 0.41173 0.95202 0.0
C132 C 0.86838 0.39741 0.95593 0.0
N133 N 0.80057 0.35951 0.98871 0.0
C134 C 0.77156 0.32697 0.99881 0.0
C135 C 0.75836 0.33433 0.99294 0.0
C136 C 0.76679 0.35464 0.98551 0.0
C137 C 0.78784 0.36693 0.98359 0.0
C138 C 0.79268 0.33982 0.99645 0.0
H139 H 0.79383 0.38245 0.97762 0.0
H140 H 0.80264 0.33382 1.00056 0.0
H141 H 0.86482 0.40571 0.01588 0.0
H142 H 0.85943 0.38828 0.94051 0.0
C143 C 0.83227 0.41843 0.96411 0.0
C144 C 0.80966 0.3518 0.92878 0.0
C145 C 0.82642 0.38858 0.04531 0.0
C146 C 0.84741 0.34751 0.99826 0.0
H147 H 0.81476 0.38261 0.89168 0.0
H148 H 0.82735 0.4192 0.91105 0.0
H149 H 0.83202 0.44456 1.00284 0.0
H150 H 0.82689 0.42715 0.0469 0.0
H151 H 0.83962 0.36607 0.07617 0.0
H152 H 0.85299 0.34503 0.05063 0.0
H153 H 0.84744 0.32256 0.95776 0.0
H154 H 0.82598 0.32441 0.91988 0.0
H155 H 0.90065 0.43015 0.01052 0.0
H156 H 0.89562 0.41317 0.9338 0.0
H157 H 0.76562 0.31136 1.0047 0.0
H158 H 0.75718 0.3611 0.98134 0.0
C159 C 0.4478 0.81523 0.26348 0.0
C160 C 0.43678 0.81689 0.24398 0.0
C161 C 0.42467 0.82404 0.2537 0.0
C162 C 0.42953 0.82722 0.27835 0.0
N163 N 0.44404 0.82275 0.28439 0.0
Co164 Co 0.45762 0.8282 0.31686 0.0
N165 N 0.43399 0.82696 0.33409 0.0
C166 C 0.41954 0.82967 0.32313 0.0
C167 C 0.40536 0.82884 0.33966 0.0
C168 C 0.41152 0.82572 0.36236 0.0
C169 C 0.42927 0.82493 0.3585 0.0
N170 N 0.47148 0.83345 0.34919 0.0
C171 C 0.46372 0.83061 0.37239 0.0
C172 C 0.47928 0.8372 0.38974 0.0
C173 C 0.49727 0.84463 0.37681 0.0
C174 C 0.49179 0.84219 0.35233 0.0
N175 N 0.48108 0.82953 0.29931 0.0
C176 C 0.50052 0.83992 0.30699 0.0
C177 C 0.51379 0.83967 0.28983 0.0
C178 C 0.50174 0.82821 0.2704 0.0
C179 C 0.48164 0.82146 0.27715 0.0
N180 N 0.46893 0.85788 0.31229 0.0
C181 C 0.48097 0.89953 0.30586 0.0
C182 C 0.47486 0.88999 0.32897 0.0
C183 C 0.46886 0.8694 0.33173 0.0
C184 C 0.48168 0.88772 0.28617 0.0
C185 C 0.47574 0.86705 0.28979 0.0
N186 N 0.44615 0.79902 0.32148 0.0
C187 C 0.44986 0.77005 0.33123 0.0
C188 C 0.42935 0.75687 0.32514 0.0
C189 C 0.41741 0.76529 0.31774 0.0
C190 C 0.42604 0.7863 0.3161 0.0
C191 C 0.45801 0.79113 0.32916 0.0
H192 H 0.41646 0.79228 0.31016 0.0
H193 H 0.47393 0.80107 0.33346 0.0
H194 H 0.46372 0.86275 0.3497 0.0
H195 H 0.47617 0.85836 0.27423 0.0
C196 C 0.41871 0.83067 0.29714 0.0
C197 C 0.46332 0.80864 0.26185 0.0
C198 C 0.44234 0.82436 0.37845 0.0
C199 C 0.50477 0.84577 0.33194 0.0
H200 H 0.4377 0.8139 0.22465 0.0
H201 H 0.41337 0.82618 0.244 0.0
H202 H 0.39197 0.83002 0.3357 0.0
H203 H 0.40406 0.82464 0.37979 0.0
H204 H 0.47786 0.83723 0.40962 0.0
H205 H 0.51246 0.85083 0.3844 0.0
H206 H 0.53014 0.84626 0.29158 0.0
H207 H 0.50715 0.82512 0.25335 0.0
H208 H 0.47458 0.89831 0.34507 0.0
H209 H 0.48624 0.89415 0.26788 0.0
H210 H 0.45957 0.76412 0.33711 0.0
H211 H 0.40137 0.75571 0.31341 0.0
C212 C 0.64074 0.44401 0.59948 0.0
C213 C 0.62983 0.4298 0.58133 0.0
C214 C 0.61036 0.41781 0.59042 0.0
C215 C 0.61041 0.42539 0.61355 0.0
N216 N 0.62866 0.44143 0.61929 0.0
Co217 Co 0.63626 0.45582 0.65136 0.0
N218 N 0.61395 0.43242 0.66905 0.0
C219 C 0.59716 0.41732 0.65824 0.0
C220 C 0.58381 0.40351 0.67502 0.0
C221 C 0.59268 0.41053 0.69774 0.0
C222 C 0.61108 0.42829 0.6936 0.0
N223 N 0.64435 0.47039 0.68342 0.0
C224 C 0.63932 0.46315 0.70683 0.0
C225 C 0.64887 0.47893 0.72379 0.0
C226 C 0.65966 0.49655 0.71044 0.0
C227 C 0.65634 0.49066 0.68612 0.0
N228 N 0.65848 0.47903 0.63332 0.0
C229 C 0.66865 0.49844 0.64115 0.0
C230 C 0.68448 0.51072 0.62568 0.0
C231 C 0.68428 0.49816 0.60719 0.0
C232 C 0.66817 0.47883 0.61226 0.0
N233 N 0.61754 0.46658 0.64547 0.0
C234 C 0.58768 0.47821 0.63768 0.0
C235 C 0.59113 0.47268 0.66114 0.0
C236 C 0.60582 0.46686 0.66457 0.0
C237 C 0.60026 0.4785 0.61828 0.0
C238 C 0.61511 0.47272 0.62257 0.0
N239 N 0.65439 0.44489 0.65737 0.0
C240 C 0.68749 0.44957 0.66745 0.0
C241 C 0.68054 0.42912 0.66203 0.0
C242 C 0.66029 0.41662 0.65485 0.0
C243 C 0.64744 0.42474 0.65278 0.0
C244 C 0.67411 0.45721 0.66496 0.0
H245 H 0.63194 0.41476 0.64699 0.0
H246 H 0.67976 0.4731 0.66879 0.0
H247 H 0.60732 0.46218 0.68282 0.0
H248 H 0.62431 0.47279 0.60727 0.0
C249 C 0.59603 0.41512 0.63235 0.0
C250 C 0.66218 0.46042 0.59716 0.0
C251 C 0.62425 0.44191 0.71342 0.0
C252 C 0.66664 0.50301 0.66575 0.0
H253 H 0.63546 0.42811 0.56362 0.0
H254 H 0.59812 0.40434 0.58184 0.0
H255 H 0.56956 0.38973 0.67121 0.0
H256 H 0.58615 0.4036 0.71534 0.0
H257 H 0.64804 0.47792 0.74371 0.0
H258 H 0.66933 0.51173 0.71766 0.0
H259 H 0.69591 0.52651 0.62856 0.0
H260 H 0.6952 0.50274 0.59231 0.0
H261 H 0.58246 0.47273 0.67702 0.0
H262 H 0.59836 0.48262 0.59975 0.0
H263 H 0.7031 0.45955 0.67326 0.0
H264 H 0.65445 0.40065 0.65076 0.0
C265 C 0.20025 0.63731 0.93169 0.0
C266 C 0.20332 0.62618 0.91358 0.0
C267 C 0.1955 0.60671 0.92266 0.0
C268 C 0.18818 0.60698 0.94583 0.0
N269 N 0.19083 0.62538 0.95164 0.0
Co270 Co 0.1848 0.63332 0.98405 0.0
N271 N 0.18527 0.61058 1.00144 0.0
C272 C 0.18313 0.59367 0.99048 0.0
C273 C 0.18362 0.58023 1.0071 0.0
C274 C 0.18596 0.58917 0.02986 0.0
C275 C 0.18672 0.60764 0.02593 0.0
N276 N 0.17909 0.64179 0.0163 0.0
C277 C 0.18137 0.63657 0.03959 0.0
C278 C 0.17492 0.64575 0.0568 0.0
C279 C 0.16829 0.65689 0.04374 0.0
C280 C 0.17099 0.65393 0.01931 0.0
N281 N 0.1844 0.65594 0.96645 0.0
C282 C 0.17552 0.66644 0.97443 0.0
C283 C 0.1791 0.6822 0.9588 0.0
C284 C 0.1911 0.68157 0.94009 0.0
C285 C 0.19425 0.66546 0.94539 0.0
N286 N 0.15514 0.61537 0.97859 0.0
C287 C 0.11353 0.58581 0.97126 0.0
C288 C 0.12263 0.58942 0.99466 0.0
C289 C 0.1432 0.60394 0.99785 0.0
C290 C 0.12571 0.59819 0.9517 0.0
C291 C 0.14639 0.6129 0.95577 0.0
N292 N 0.21403 0.65063 0.98969 0.0
C293 C 0.24311 0.68291 1.00063 0.0
C294 C 0.25622 0.67541 0.995 0.0
C295 C 0.24773 0.65518 0.9872 0.0
C296 C 0.2267 0.64308 0.98479 0.0
C297 C 0.22201 0.67027 0.99774 0.0
H298 H 0.22071 0.62761 0.97871 0.0
H299 H 0.21217 0.6764 1.00177 0.0
H300 H 0.14949 0.60546 0.01605 0.0
H301 H 0.15546 0.62191 0.94034 0.0
C302 C 0.18396 0.59256 0.96458 0.0
C303 C 0.206 0.65902 0.92981 0.0
C304 C 0.18722 0.62123 0.04582 0.0
C305 C 0.16899 0.66447 0.99909 0.0
H306 H 0.21086 0.63155 0.89598 0.0
H307 H 0.19651 0.59433 0.91411 0.0
H308 H 0.18301 0.56594 1.00312 0.0
H309 H 0.18683 0.58274 0.04734 0.0
H310 H 0.17464 0.64421 0.07668 0.0
H311 H 0.16265 0.6664 0.05122 0.0
H312 H 0.1748 0.69371 0.96156 0.0
H313 H 0.19717 0.69195 0.92462 0.0
H314 H 0.11399 0.58094 0.01065 0.0
H315 H 0.11957 0.59617 0.93321 0.0
H316 H 0.2491 0.69845 1.00685 0.0
H317 H 0.25727 0.6486 0.98325 0.0
C318 C 0.81469 0.44419 0.41836 0.0
C319 C 0.81182 0.43023 0.43664 0.0
C320 C 0.81963 0.41851 0.42761 0.0
C321 C 0.8269 0.42597 0.40438 0.0
N322 N 0.82422 0.44169 0.39851 0.0
Co323 Co 0.8306 0.45582 0.36629 0.0
N324 N 0.83003 0.43258 0.34881 0.0
C325 C 0.83219 0.41782 0.35975 0.0
C326 C 0.83199 0.40405 0.34308 0.0
C327 C 0.82979 0.41073 0.32031 0.0
C328 C 0.82869 0.42826 0.32429 0.0
N329 N 0.83665 0.47012 0.33409 0.0
C330 C 0.83442 0.46271 0.31074 0.0
C331 C 0.8402 0.47829 0.29363 0.0
C332 C 0.84677 0.49597 0.30679 0.0
C333 C 0.8445 0.4903 0.33117 0.0
N334 N 0.83108 0.47889 0.3841 0.0
C335 C 0.83988 0.49821 0.37606 0.0
C336 C 0.83611 0.51039 0.39144 0.0
C337 C 0.82407 0.49786 0.41011 0.0
C338 C 0.82124 0.47864 0.40523 0.0
N339 N 0.86019 0.46722 0.37208 0.0
C340 C 0.90172 0.47903 0.37997 0.0
C341 C 0.89279 0.47353 0.35647 0.0
C342 C 0.87226 0.46764 0.35299 0.0
C343 C 0.8894 0.47933 0.39932 0.0
C344 C 0.86876 0.47347 0.39498 0.0
N345 N 0.80142 0.44419 0.36038 0.0
C346 C 0.77243 0.44767 0.34947 0.0
C347 C 0.75924 0.42712 0.3551 0.0
C348 C 0.76765 0.41526 0.36281 0.0
C349 C 0.78866 0.42402 0.36517 0.0
C350 C 0.79352 0.45596 0.35237 0.0
H351 H 0.79458 0.41444 0.37121 0.0
H352 H 0.80342 0.47189 0.34841 0.0
H353 H 0.86609 0.4629 0.33473 0.0
H354 H 0.85959 0.47347 0.41028 0.0
C355 C 0.83128 0.41582 0.38566 0.0
C356 C 0.80926 0.46032 0.42061 0.0
C357 C 0.8286 0.44151 0.30436 0.0
C358 C 0.84633 0.5027 0.35142 0.0
H359 H 0.8046 0.42856 0.45441 0.0
H360 H 0.81881 0.40527 0.43632 0.0
H361 H 0.83283 0.39049 0.347 0.0
H362 H 0.82943 0.40372 0.30276 0.0
H363 H 0.83987 0.47712 0.27371 0.0
H364 H 0.85189 0.51103 0.29942 0.0
H365 H 0.84015 0.52608 0.38842 0.0
H366 H 0.81765 0.50236 0.42501 0.0
H367 H 0.90155 0.47359 0.34062 0.0
H368 H 0.89541 0.48345 0.41787 0.0
H369 H 0.76649 0.45729 0.34329 0.0
H370 H 0.75805 0.39919 0.36675 0.0
C371 C 0.37467 0.81145 0.75138 0.0
C372 C 0.38588 0.80826 0.76927 0.0
C373 C 0.40539 0.8162 0.76008 0.0
C374 C 0.40506 0.82372 0.73708 0.0
N375 N 0.38658 0.82106 0.73146 0.0
Co376 Co 0.37863 0.82757 0.69935 0.0
N377 N 0.40141 0.82733 0.68162 0.0
C378 C 0.41841 0.82944 0.69238 0.0
C379 C 0.43196 0.82938 0.67554 0.0
C380 C 0.42298 0.82731 0.65284 0.0
C381 C 0.40431 0.82614 0.65705 0.0
N382 N 0.37023 0.83385 0.66739 0.0
C383 C 0.37541 0.83187 0.64394 0.0
C384 C 0.36555 0.83782 0.62707 0.0
C385 C 0.35438 0.84421 0.64051 0.0
C386 C 0.3578 0.84167 0.6648 0.0
N387 N 0.3559 0.82764 0.71731 0.0
C388 C 0.3453 0.83652 0.70974 0.0
C389 C 0.32952 0.83272 0.72552 0.0
C390 C 0.33024 0.82057 0.74392 0.0
C391 C 0.34641 0.81756 0.73829 0.0
N392 N 0.39656 0.85707 0.70553 0.0
C393 C 0.42488 0.8988 0.71353 0.0
C394 C 0.42201 0.89003 0.69005 0.0
C395 C 0.40803 0.86936 0.6865 0.0
C396 C 0.41297 0.88614 0.733 0.0
C397 C 0.39875 0.86541 0.72856 0.0
N398 N 0.36131 0.7985 0.69301 0.0
C399 C 0.32908 0.76969 0.68119 0.0
C400 C 0.3365 0.75652 0.68668 0.0
C401 C 0.35665 0.7648 0.69484 0.0
C402 C 0.3688 0.78575 0.69768 0.0
C403 C 0.34172 0.79068 0.68466 0.0
H404 H 0.38424 0.79161 0.70394 0.0
H405 H 0.33562 0.80057 0.68086 0.0
H406 H 0.40692 0.86331 0.66824 0.0
H407 H 0.38976 0.85604 0.74381 0.0
C408 C 0.41954 0.82828 0.71824 0.0
C409 C 0.35294 0.80571 0.75349 0.0
C410 C 0.39081 0.82608 0.6373 0.0
C411 C 0.34719 0.84327 0.68523 0.0
H412 H 0.38053 0.8006 0.7868 0.0
H413 H 0.41785 0.81519 0.76846 0.0
H414 H 0.44641 0.8302 0.6793 0.0
H415 H 0.42958 0.82706 0.63521 0.0
H416 H 0.36639 0.83771 0.60715 0.0
H417 H 0.34438 0.84938 0.63335 0.0
H418 H 0.31794 0.83699 0.72304 0.0
H419 H 0.31987 0.81432 0.75939 0.0
H420 H 0.43097 0.89896 0.67446 0.0
H421 H 0.41451 0.89221 0.75147 0.0
H422 H 0.31359 0.76381 0.67472 0.0
H423 H 0.36309 0.75515 0.69878 0.0
C424 C 0.5681 0.37207 0.08539 0.0
C425 C 0.5822 0.38292 0.10369 0.0
C426 C 0.59415 0.40242 0.09481 0.0
C427 C 0.58667 0.40245 0.07165 0.0
N428 N 0.57073 0.38422 0.06568 0.0
Co429 Co 0.55645 0.3768 0.03352 0.0
N430 N 0.57977 0.3995 0.01617 0.0
C431 C 0.59472 0.41625 0.0272 0.0
C432 C 0.60866 0.4297 0.01058 0.0
C433 C 0.60187 0.42092 0.98777 0.0
C434 C 0.58406 0.40254 0.99168 0.0
N435 N 0.54209 0.36881 1.00136 0.0
C436 C 0.54954 0.37404 0.97806 0.0
C437 C 0.53385 0.36517 0.9609 0.0
C438 C 0.51606 0.35418 0.97402 0.0
C439 C 0.5218 0.35694 0.99842 0.0
N440 N 0.53323 0.35429 0.05119 0.0
C441 C 0.51383 0.3441 0.04318 0.0
C442 C 0.50149 0.32819 0.05848 0.0
C443 C 0.51398 0.32838 0.07706 0.0
C444 C 0.53335 0.34456 0.07222 0.0
N445 N 0.54526 0.3951 0.03968 0.0
C446 C 0.53363 0.42487 0.04786 0.0
C447 C 0.53897 0.4214 0.02429 0.0
C448 C 0.54479 0.40676 0.02067 0.0
C449 C 0.53341 0.41228 0.06715 0.0
C450 C 0.53918 0.39747 0.06267 0.0
N451 N 0.56787 0.35915 0.02714 0.0
C452 C 0.56398 0.32664 0.01588 0.0
C453 C 0.58496 0.33448 0.01886 0.0
C454 C 0.59716 0.35474 0.02615 0.0
C455 C 0.58833 0.36674 0.03037 0.0
C456 C 0.55574 0.33936 0.01984 0.0
H457 H 0.5981 0.38218 0.03637 0.0
H458 H 0.53959 0.3332 0.01707 0.0
H459 H 0.54942 0.40532 1.00235 0.0
H460 H 0.53923 0.3883 0.0779 0.0
C461 C 0.59687 0.41708 0.05309 0.0
C462 C 0.55169 0.35063 0.08757 0.0
C463 C 0.57084 0.38907 0.9718 0.0
C464 C 0.50931 0.34638 0.01862 0.0
H465 H 0.5838 0.37725 0.12139 0.0
H466 H 0.6075 0.41468 0.10358 0.0
H467 H 0.62248 0.44386 0.01459 0.0
H468 H 0.60913 0.4274 0.97028 0.0
H469 H 0.53508 0.36677 0.94102 0.0
H470 H 0.50086 0.34487 0.96659 0.0
H471 H 0.48568 0.31677 0.05546 0.0
H472 H 0.50935 0.31743 0.09188 0.0
H473 H 0.53884 0.43007 1.00849 0.0
H474 H 0.5294 0.41419 0.08575 0.0
H475 H 0.55416 0.311 0.01018 0.0
H476 H 0.61344 0.36121 0.02879 0.0
C477 C 0.20238 0.56737 0.41809 0.0
C478 C 0.20566 0.58168 0.4361 0.0
C479 C 0.19779 0.59333 0.42704 0.0
C480 C 0.19007 0.58547 0.40406 0.0
N481 N 0.19255 0.56959 0.39837 0.0
Co482 Co 0.18541 0.55483 0.36653 0.0
N483 N 0.18556 0.57774 0.34875 0.0
C484 C 0.18358 0.59268 0.35953 0.0
C485 C 0.1835 0.60617 0.34268 0.0
C486 C 0.18532 0.59912 0.31996 0.0
C487 C 0.18651 0.58167 0.32417 0.0
N488 N 0.1787 0.53999 0.33467 0.0
C489 C 0.18058 0.54703 0.31119 0.0
C490 C 0.17448 0.53118 0.29439 0.0
C491 C 0.16808 0.5137 0.3079 0.0
C492 C 0.17079 0.51976 0.33216 0.0
N493 N 0.1852 0.53204 0.38468 0.0
C494 C 0.17614 0.51257 0.37707 0.0
C495 C 0.18004 0.50058 0.39259 0.0
C496 C 0.19241 0.51336 0.41089 0.0
C497 C 0.1953 0.53255 0.40567 0.0
N498 N 0.15594 0.54353 0.37316 0.0
C499 C 0.11419 0.5302 0.38167 0.0
C500 C 0.12276 0.5359 0.35808 0.0
C501 C 0.14343 0.54255 0.35427 0.0
C502 C 0.12709 0.53115 0.401 0.0
C503 C 0.14783 0.53764 0.39632 0.0
N504 N 0.21444 0.56631 0.3597 0.0
C505 C 0.24317 0.56249 0.34848 0.0
C506 C 0.25617 0.58349 0.35097 0.0
C507 C 0.24798 0.59567 0.35797 0.0
C508 C 0.22717 0.5868 0.36243 0.0
C509 C 0.22222 0.5542 0.35265 0.0
H510 H 0.2214 0.59656 0.36824 0.0
H511 H 0.21234 0.53803 0.35027 0.0
H512 H 0.14932 0.54731 0.33591 0.0
H513 H 0.15737 0.53816 0.41147 0.0
C514 C 0.18519 0.59523 0.38537 0.0
C515 C 0.20759 0.55109 0.42063 0.0
C516 C 0.18643 0.56817 0.30445 0.0
C517 C 0.16926 0.50769 0.35261 0.0
H518 H 0.21313 0.5836 0.45374 0.0
H519 H 0.19878 0.60671 0.43556 0.0
H520 H 0.18279 0.61983 0.34644 0.0
H521 H 0.18543 0.60587 0.30232 0.0
H522 H 0.17449 0.53203 0.27446 0.0
H523 H 0.16281 0.49852 0.30082 0.0
H524 H 0.17584 0.48481 0.38987 0.0
H525 H 0.19899 0.50904 0.42575 0.0
H526 H 0.11365 0.53579 0.34258 0.0
H527 H 0.12119 0.52677 0.41956 0.0
H528 H 0.2491 0.55268 0.34303 0.0
H529 H 0.25769 0.61197 0.36025 0.0
C530 C 0.63838 0.19745 0.75329 0.0
C531 C 0.62719 0.20029 0.77152 0.0
C532 C 0.6077 0.1926 0.76235 0.0
C533 C 0.60802 0.18542 0.73908 0.0
N534 N 0.62646 0.18806 0.73333 0.0
Co535 Co 0.63439 0.18174 0.70114 0.0
N536 N 0.61178 0.18243 0.68353 0.0
C537 C 0.5948 0.18031 0.69437 0.0
C538 C 0.58131 0.18061 0.67762 0.0
C539 C 0.5903 0.18281 0.65491 0.0
C540 C 0.6089 0.18381 0.659 0.0
N541 N 0.64279 0.17572 0.66898 0.0
C542 C 0.63769 0.17799 0.64561 0.0
C543 C 0.64756 0.17219 0.62855 0.0
C544 C 0.65864 0.16558 0.64177 0.0
C545 C 0.65516 0.16785 0.66612 0.0
N546 N 0.65692 0.18116 0.71908 0.0
C547 C 0.66749 0.17235 0.71109 0.0
C548 C 0.68336 0.17601 0.7266 0.0
C549 C 0.68275 0.18798 0.7453 0.0
C550 C 0.66639 0.19088 0.74029 0.0
N551 N 0.61618 0.15221 0.70677 0.0
C552 C 0.58654 0.11073 0.71429 0.0
C553 C 0.59001 0.11976 0.69088 0.0
C554 C 0.60461 0.14026 0.68758 0.0
C555 C 0.59905 0.12292 0.73377 0.0
C556 C 0.61378 0.14355 0.72961 0.0
N557 N 0.65195 0.21086 0.69535 0.0
C558 C 0.68436 0.23971 0.68421 0.0
C559 C 0.67695 0.25291 0.68969 0.0
C560 C 0.65671 0.24458 0.69753 0.0
C561 C 0.6445 0.22363 0.70009 0.0
C562 C 0.67161 0.21868 0.68731 0.0
H563 H 0.62901 0.21777 0.70616 0.0
H564 H 0.67768 0.20878 0.68342 0.0
H565 H 0.60609 0.14649 0.66936 0.0
H566 H 0.62289 0.15263 0.74498 0.0
C567 C 0.59359 0.18116 0.72028 0.0
C568 C 0.65994 0.2028 0.75568 0.0
C569 C 0.62231 0.18384 0.63915 0.0
C570 C 0.66564 0.16596 0.68643 0.0
H571 H 0.63263 0.20742 0.78935 0.0
H572 H 0.59523 0.19342 0.77099 0.0
H573 H 0.56689 0.17982 0.68146 0.0
H574 H 0.58372 0.18322 0.63732 0.0
H575 H 0.64677 0.17252 0.60863 0.0
H576 H 0.66861 0.16044 0.63444 0.0
H577 H 0.69502 0.17193 0.72365 0.0
H578 H 0.69354 0.19428 0.76032 0.0
H579 H 0.5814 0.1111 0.67495 0.0
H580 H 0.59713 0.11681 0.75225 0.0
H581 H 0.69991 0.24558 0.67797 0.0
H582 H 0.6502 0.25419 0.70138 0.0
C583 C 0.4467 0.63778 0.08669 0.0
C584 C 0.43256 0.62711 0.105 0.0
C585 C 0.42042 0.60761 0.09616 0.0
C586 C 0.42783 0.60742 0.073 0.0
N587 N 0.44392 0.62554 0.06701 0.0
Co588 Co 0.45818 0.63275 0.03482 0.0
N589 N 0.43465 0.61026 0.01748 0.0
C590 C 0.41948 0.59369 0.02852 0.0
C591 C 0.40542 0.58035 0.01191 0.0
C592 C 0.41234 0.58899 0.98908 0.0
C593 C 0.43036 0.6072 0.99297 0.0
N594 N 0.47259 0.64043 1.00268 0.0
C595 C 0.46517 0.63514 0.97937 0.0
C596 C 0.48092 0.6437 0.96226 0.0
C597 C 0.49871 0.65453 0.97543 0.0
C598 C 0.49292 0.652 0.9998 0.0
N599 N 0.48155 0.65513 0.05247 0.0
C600 C 0.50096 0.6651 0.0445 0.0
C601 C 0.51341 0.68101 0.05977 0.0
C602 C 0.50097 0.68104 0.07829 0.0
C603 C 0.48152 0.665 0.07343 0.0
N604 N 0.46904 0.61419 0.04109 0.0
C605 C 0.48215 0.58563 0.04925 0.0
C606 C 0.47587 0.58818 0.02585 0.0
C607 C 0.46934 0.6023 0.02222 0.0
C608 C 0.48185 0.59791 0.06856 0.0
C609 C 0.47545 0.61222 0.06405 0.0
N610 N 0.44722 0.65077 0.02844 0.0
C611 C 0.452 0.68367 0.01758 0.0
C612 C 0.43154 0.6769 0.02307 0.0
C613 C 0.41899 0.65682 0.0307 0.0
C614 C 0.42707 0.64397 0.03312 0.0
C615 C 0.45958 0.6703 0.02043 0.0
H616 H 0.41707 0.62861 0.03924 0.0
H617 H 0.47547 0.67583 0.01652 0.0
H618 H 0.46419 0.60326 1.00402 0.0
H619 H 0.47546 0.62152 0.07917 0.0
C620 C 0.41739 0.59288 0.05442 0.0
C621 C 0.46322 0.65918 0.08875 0.0
C622 C 0.44379 0.62038 0.97306 0.0
C623 C 0.50545 0.66258 0.02 0.0
H624 H 0.43102 0.6329 0.12266 0.0
H625 H 0.40696 0.5955 0.10491 0.0
H626 H 0.39145 0.56633 0.01592 0.0
H627 H 0.40506 0.58254 0.97159 0.0
H628 H 0.47972 0.64199 0.9424 0.0
H629 H 0.51396 0.6636 0.96804 0.0
H630 H 0.52928 0.69226 0.05679 0.0
H631 H 0.50569 0.69202 0.09312 0.0
H632 H 0.47549 0.57893 0.01039 0.0
H633 H 0.48668 0.59663 0.08695 0.0
H634 H 0.46201 0.69915 0.01145 0.0
H635 H 0.40303 0.65113 0.03487 0.0
H636 H 0.5728 0.15557 0.40707 0.0
H637 H 0.58136 0.15619 0.45095 0.0
H638 H 0.59084 0.21706 0.45727 0.0
H639 H 0.58177 0.21614 0.4135 0.0
H640 H 0.61522 0.17952 0.47683 0.0
H641 H 0.55362 0.19083 0.51488 0.0
H642 H 0.55425 0.18451 0.48291 0.0
H643 H 0.56969 0.21035 0.49348 0.0
C644 C 0.57675 0.16907 0.4179 0.0
C645 C 0.57674 0.18585 0.40688 0.0
C646 C 0.58163 0.16943 0.443 0.0
C647 C 0.58647 0.18654 0.45782 0.0
C648 C 0.58669 0.20344 0.44663 0.0
H649 H 0.62533 0.21626 0.61308 0.0
H650 H 0.61685 0.21733 0.56937 0.0
C651 C 0.5817 0.20302 0.42152 0.0
C652 C 0.59164 0.18674 0.48471 0.0
H653 H 0.5789 0.1937 0.54328 0.0
C654 C 0.60717 0.18254 0.4913 0.0
C655 C 0.58125 0.19068 0.50387 0.0
C656 C 0.56364 0.19415 0.49851 0.0
C657 C 0.61271 0.18241 0.51616 0.0
C658 C 0.60235 0.18638 0.53526 0.0
C659 C 0.58693 0.19073 0.52874 0.0
C660 C 0.60708 0.18569 0.56206 0.0
C661 C 0.62988 0.17834 0.52178 0.0
C662 C 0.60401 0.16749 0.57284 0.0
C663 C 0.60873 0.16686 0.59779 0.0
C664 C 0.61685 0.18447 0.61258 0.0
C665 C 0.61939 0.20255 0.60204 0.0
C666 C 0.61452 0.20314 0.57707 0.0
H667 H 0.63952 0.18059 0.50528 0.0
H668 H 0.63972 0.18842 0.53682 0.0
H669 H 0.62338 0.16232 0.52794 0.0
H670 H 0.59784 0.15368 0.56195 0.0
H671 H 0.60612 0.15259 0.60555 0.0
H672 H 0.38925 0.59721 0.74034 0.0
H673 H 0.39858 0.60723 0.78373 0.0
H674 H 0.41613 0.5614 0.79121 0.0
H675 H 0.40759 0.55203 0.74774 0.0
H676 H 0.38428 0.58717 0.82624 0.0
H677 H 0.46562 0.60893 0.81958 0.0
H678 H 0.44983 0.60404 0.79263 0.0
H679 H 0.44911 0.58325 0.80961 0.0
C680 C 0.39518 0.58938 0.7513 0.0
C681 C 0.39743 0.57366 0.74071 0.0
C682 C 0.4005 0.59507 0.77613 0.0
C683 C 0.4084 0.58534 0.79095 0.0
C684 C 0.41057 0.56958 0.78028 0.0
H685 H 0.44189 0.58888 0.94621 0.0
H686 H 0.43305 0.5808 0.90236 0.0
C687 C 0.40541 0.564 0.75545 0.0
C688 C 0.41389 0.59128 0.8176 0.0
H689 H 0.45208 0.60509 0.8603 0.0
C690 C 0.39918 0.59126 0.83357 0.0
C691 C 0.43335 0.59671 0.82747 0.0
C692 C 0.45044 0.59846 0.81138 0.0
C693 C 0.40315 0.59589 0.85895 0.0
C694 C 0.42247 0.60093 0.86886 0.0
C695 C 0.43723 0.60113 0.85289 0.0
C696 C 0.4276 0.60584 0.89571 0.0
C697 C 0.3864 0.59479 0.87513 0.0
C698 C 0.42776 0.62276 0.90676 0.0
C699 C 0.43286 0.62739 0.93183 0.0
C700 C 0.43782 0.61517 0.94647 0.0
C701 C 0.43786 0.59839 0.93542 0.0
C702 C 0.43288 0.59382 0.91034 0.0
H703 H 0.37119 0.58615 0.86618 0.0
H704 H 0.3859 0.58752 0.89311 0.0
H705 H 0.38941 0.61045 0.87887 0.0
H706 H 0.4242 0.63256 0.89589 0.0
H707 H 0.433 0.64057 0.93981 0.0
H708 H 0.79613 0.41195 0.27845 0.0
H709 H 0.79513 0.40177 0.23506 0.0
H710 H 0.85864 0.44719 0.22711 0.0
H711 H 0.85976 0.45674 0.27055 0.0
H712 H 0.80092 0.42195 0.19256 0.0
H713 H 0.85986 0.39931 0.19857 0.0
H714 H 0.8492 0.40434 0.22565 0.0
H715 H 0.86934 0.42502 0.20861 0.0
C716 C 0.80986 0.41964 0.26739 0.0
C717 C 0.82795 0.4353 0.27782 0.0
C718 C 0.80931 0.41386 0.24256 0.0
C719 C 0.82688 0.42345 0.22761 0.0
C720 C 0.84495 0.43913 0.23814 0.0
H721 H 0.85629 0.41973 0.07227 0.0
H722 H 0.85568 0.42775 0.11616 0.0
C723 C 0.84553 0.4448 0.26296 0.0
C724 C 0.82623 0.41747 0.20095 0.0
H725 H 0.85013 0.40334 0.15795 0.0
C726 C 0.81159 0.41771 0.18511 0.0
C727 C 0.84007 0.41185 0.19092 0.0
C728 C 0.85536 0.4099 0.20687 0.0
C729 C 0.8108 0.41312 0.1597 0.0
C730 C 0.82488 0.40788 0.14964 0.0
C731 C 0.83939 0.40745 0.16548 0.0
C732 C 0.82499 0.40302 0.12274 0.0
C733 C 0.79522 0.41447 0.14365 0.0
C734 C 0.80807 0.38631 0.11164 0.0
C735 C 0.80845 0.38172 0.08652 0.0
C736 C 0.8257 0.3938 0.07191 0.0
C737 C 0.84269 0.41036 0.08302 0.0
C738 C 0.84235 0.41489 0.10813 0.0
H739 H 0.78888 0.42327 0.15271 0.0
H740 H 0.80199 0.42172 0.12566 0.0
H741 H 0.78241 0.39889 0.13994 0.0
H742 H 0.79463 0.37661 0.12248 0.0
H743 H 0.79528 0.36869 0.0785 0.0
H744 H 0.43063 0.7933 0.41181 0.0
H745 H 0.42128 0.79266 0.4555 0.0
H746 H 0.43248 0.85411 0.44879 0.0
H747 H 0.44133 0.85447 0.40512 0.0
H748 H 0.44229 0.81502 0.4948 0.0
H749 H 0.37699 0.8275 0.47984 0.0
H750 H 0.38885 0.82144 0.45489 0.0
H751 H 0.40007 0.84715 0.46624 0.0
C752 C 0.43085 0.80654 0.41969 0.0
C753 C 0.4363 0.82378 0.40498 0.0
C754 C 0.42558 0.80623 0.44468 0.0
C755 C 0.42566 0.82317 0.45557 0.0
C756 C 0.4316 0.84057 0.44088 0.0
H757 H 0.40659 0.85706 0.60331 0.0
H758 H 0.41494 0.85572 0.55977 0.0
C759 C 0.43678 0.84084 0.41591 0.0
C760 C 0.42005 0.82285 0.48231 0.0
H761 H 0.38905 0.83101 0.52122 0.0
C762 C 0.43052 0.81836 0.5005 0.0
C763 C 0.40466 0.82716 0.49005 0.0
C764 C 0.39185 0.83088 0.47173 0.0
C765 C 0.42645 0.81859 0.52593 0.0
C766 C 0.41129 0.82321 0.53363 0.0
C767 C 0.40073 0.82755 0.51548 0.0
C768 C 0.40634 0.82389 0.56037 0.0
C769 C 0.43883 0.81443 0.54443 0.0
C770 C 0.39859 0.80645 0.57544 0.0
C771 C 0.39362 0.80717 0.60033 0.0
C772 C 0.39612 0.82529 0.61069 0.0
C773 C 0.40412 0.84278 0.59573 0.0
C774 C 0.40896 0.84203 0.57084 0.0
H775 H 0.45294 0.81594 0.53607 0.0
H776 H 0.44314 0.82499 0.56039 0.0
H777 H 0.42954 0.79865 0.55146 0.0
H778 H 0.39614 0.79217 0.56787 0.0
H779 H 0.38763 0.79351 0.61146 0.0
H780 H 0.57215 0.4201 0.94463 0.0
H781 H 0.581 0.42804 0.90082 0.0
H782 H 0.59207 0.37758 0.89538 0.0
H783 H 0.58272 0.36943 0.93908 0.0
H784 H 0.61541 0.43918 0.8757 0.0
H785 H 0.55531 0.36593 0.83698 0.0
H786 H 0.55536 0.37281 0.86887 0.0
H787 H 0.57137 0.36286 0.85885 0.0
C788 C 0.57648 0.41074 0.934 0.0
C789 C 0.57684 0.39421 0.94523 0.0
C790 C 0.58153 0.41525 0.90894 0.0
C791 C 0.58694 0.40326 0.8944 0.0
C792 C 0.58749 0.38683 0.9058 0.0
H793 H 0.62772 0.41295 0.73994 0.0
H794 H 0.61892 0.40341 0.78358 0.0
C795 C 0.58233 0.38226 0.93087 0.0
C796 C 0.59238 0.40829 0.86759 0.0
H797 H 0.58068 0.38862 0.80894 0.0
C798 C 0.60772 0.42809 0.86116 0.0
C799 C 0.58245 0.39394 0.84834 0.0
C800 C 0.56508 0.37277 0.85352 0.0
C801 C 0.6135 0.43381 0.83637 0.0
C802 C 0.60359 0.41947 0.81718 0.0
C803 C 0.58837 0.39964 0.82355 0.0
C804 C 0.60858 0.42493 0.79044 0.0
C805 C 0.63046 0.45514 0.83094 0.0
C806 C 0.60532 0.43988 0.77943 0.0
C807 C 0.61023 0.44522 0.75452 0.0
C808 C 0.61873 0.43592 0.74 0.0
C809 C 0.6215 0.42059 0.75077 0.0
C810 C 0.61644 0.41512 0.7757 0.0
H811 H 0.63985 0.46259 0.84758 0.0
H812 H 0.64058 0.45511 0.8161 0.0
H813 H 0.62376 0.46445 0.82456 0.0
H814 H 0.59884 0.44736 0.7901 0.0
H815 H 0.60743 0.45671 0.74656 0.0
H816 H 0.15535 0.55281 0.27047 0.0
H817 H 0.15662 0.56231 0.22694 0.0
H818 H 0.22001 0.60795 0.23539 0.0
H819 H 0.21887 0.59785 0.27875 0.0
H820 H 0.16369 0.59643 0.205 0.0
H821 H 0.22404 0.58013 0.17463 0.0
H822 H 0.21191 0.57235 0.20441 0.0
H823 H 0.23203 0.59815 0.19947 0.0
C824 C 0.16964 0.56464 0.26288 0.0
C825 C 0.18717 0.57418 0.27784 0.0
C826 C 0.17034 0.57018 0.238 0.0
C827 C 0.18855 0.58556 0.2274 0.0
C828 C 0.20592 0.59559 0.24265 0.0
H829 H 0.21817 0.64111 0.07927 0.0
H830 H 0.21869 0.63296 0.12321 0.0
C831 C 0.20524 0.58993 0.26753 0.0
C832 C 0.18909 0.59131 0.20068 0.0
H833 H 0.21389 0.59691 0.14569 0.0
C834 C 0.17465 0.59643 0.19208 0.0
C835 C 0.20334 0.59141 0.18353 0.0
C836 C 0.21858 0.58503 0.19087 0.0
C837 C 0.17421 0.60179 0.16722 0.0
C838 C 0.18844 0.60186 0.15012 0.0
C839 C 0.20299 0.59693 0.15869 0.0
C840 C 0.18825 0.60671 0.12326 0.0
C841 C 0.15867 0.60767 0.15955 0.0
C842 C 0.17113 0.59459 0.10838 0.0
C843 C 0.17089 0.59919 0.0833 0.0
C844 C 0.18782 0.61594 0.0724 0.0
C845 C 0.20498 0.62803 0.08717 0.0
C846 C 0.20526 0.62337 0.11227 0.0
H847 H 0.15259 0.61204 0.17568 0.0
H848 H 0.16536 0.62056 0.1463 0.0
H849 H 0.14567 0.5945 0.15036 0.0
H850 H 0.15792 0.58148 0.11616 0.0
H851 H 0.15742 0.58971 0.07238 0.0
H852 H 0.73014 0.40234 0.38783 0.0
H853 H 0.69381 0.38023 0.37962 0.0
H854 H 0.70111 0.40803 0.30809 0.0
H855 H 0.73779 0.42988 0.31596 0.0
H856 H 0.65957 0.38369 0.36477 0.0
H857 H 0.68512 0.34892 0.29236 0.0
H858 H 0.70264 0.36699 0.31443 0.0
H859 H 0.69336 0.37552 0.28923 0.0
C860 C 0.72394 0.40397 0.37051 0.0
C861 C 0.73682 0.41745 0.35228 0.0
C862 C 0.70315 0.39147 0.36593 0.0
C863 C 0.69487 0.39222 0.34306 0.0
C864 C 0.70731 0.40702 0.32571 0.0
H865 H 0.58965 0.28003 0.29215 0.0
H866 H 0.61231 0.31709 0.29322 0.0
C867 C 0.7282 0.41956 0.33028 0.0
C868 C 0.67422 0.37553 0.33648 0.0
H869 H 0.65091 0.33137 0.30342 0.0
C870 C 0.65751 0.37243 0.35098 0.0
C871 C 0.67157 0.36088 0.31845 0.0
C872 C 0.68908 0.36306 0.30277 0.0
C873 C 0.63846 0.35456 0.34875 0.0
C874 C 0.63625 0.3393 0.33194 0.0
C875 C 0.65258 0.34308 0.31629 0.0
C876 C 0.6185 0.3183 0.33241 0.0
C877 C 0.6211 0.35199 0.36491 0.0
C878 C 0.61387 0.30675 0.35421 0.0
C879 C 0.60078 0.28569 0.35361 0.0
C880 C 0.5923 0.27588 0.3312 0.0
C881 C 0.59587 0.28745 0.30968 0.0
C882 C 0.60882 0.30855 0.3103 0.0
H883 H 0.62235 0.36695 0.36895 0.0
H884 H 0.60606 0.34189 0.35618 0.0
H885 H 0.62176 0.3452 0.38279 0.0
H886 H 0.62158 0.31374 0.37134 0.0
H887 H 0.59849 0.27689 0.37027 0.0
H888 H 0.31465 0.73556 0.64603 0.0
H889 H 0.29977 0.69891 0.63832 0.0
H890 H 0.31601 0.69104 0.71221 0.0
H891 H 0.33047 0.72734 0.72001 0.0
H892 H 0.32399 0.68241 0.63883 0.0
H893 H 0.26154 0.63985 0.70487 0.0
H894 H 0.27056 0.66624 0.6974 0.0
H895 H 0.28333 0.65956 0.72056 0.0
C896 C 0.31433 0.72581 0.66085 0.0
C897 C 0.32382 0.73421 0.68353 0.0
C898 C 0.30587 0.70492 0.65644 0.0
C899 C 0.30655 0.69215 0.67477 0.0
C900 C 0.31482 0.70041 0.69797 0.0
H901 H 0.33544 0.60415 0.70222 0.0
H902 H 0.32113 0.62688 0.70205 0.0
C903 C 0.32332 0.72122 0.70232 0.0
C904 C 0.3023 0.67132 0.66868 0.0
H905 H 0.28153 0.62361 0.69328 0.0
C906 C 0.31415 0.66932 0.65014 0.0
C907 C 0.28948 0.65426 0.68345 0.0
C908 C 0.27536 0.65506 0.7025 0.0
C909 C 0.31508 0.65139 0.64759 0.0
C910 C 0.30355 0.6349 0.66377 0.0
C911 C 0.29042 0.6363 0.68097 0.0
C912 C 0.30765 0.6178 0.66571 0.0
C913 C 0.32976 0.65089 0.62906 0.0
C914 C 0.30398 0.60452 0.64579 0.0
C915 C 0.31212 0.5915 0.64594 0.0
C916 C 0.32385 0.59158 0.66607 0.0
C917 C 0.32622 0.60375 0.68668 0.0
C918 C 0.31807 0.61669 0.68656 0.0
H919 H 0.33941 0.6659 0.62009 0.0
H920 H 0.33991 0.64618 0.63812 0.0
H921 H 0.32104 0.6396 0.61443 0.0
H922 H 0.29589 0.60509 0.62959 0.0
H923 H 0.3104 0.58237 0.62975 0.0
H924 H 0.57978 0.30135 0.04472 0.0
H925 H 0.60164 0.28582 0.04241 0.0
H926 H 0.63417 0.32502 0.98113 0.0
H927 H 0.61258 0.34053 0.98355 0.0
H928 H 0.62614 0.28148 0.97931 0.0
H929 H 0.66267 0.32522 0.06534 0.0
H930 H 0.63546 0.30834 0.06446 0.0
H931 H 0.64672 0.3313 0.04657 0.0
C932 C 0.5912 0.3061 0.03031 0.0
C933 C 0.59464 0.32207 0.0143 0.0
C934 C 0.60367 0.29731 0.02906 0.0
C935 C 0.61954 0.30437 0.01167 0.0
C936 C 0.62193 0.3193 0.99458 0.0
H937 H 0.72998 0.33098 0.95963 0.0
H938 H 0.69344 0.31569 0.96609 0.0
C939 C 0.60967 0.32818 0.99598 0.0
C940 C 0.63562 0.29875 0.01309 0.0
H941 H 0.68117 0.31432 0.04172 0.0
C942 C 0.63794 0.28812 0.99332 0.0
C943 C 0.65083 0.3072 0.03155 0.0
C944 C 0.64898 0.31871 0.05323 0.0
C945 C 0.65587 0.28708 0.99055 0.0
C946 C 0.67205 0.29751 1.00755 0.0
C947 C 0.66885 0.30642 0.02857 0.0
C948 C 0.69333 0.30275 1.0018 0.0
C949 C 0.65759 0.27557 0.96884 0.0
C950 C 0.70562 0.30059 0.01965 0.0
C951 C 0.72675 0.30976 0.01615 0.0
C952 C 0.73588 0.32136 0.99486 0.0
C953 C 0.72338 0.32233 0.97636 0.0
C954 C 0.70238 0.31327 0.97987 0.0
H955 H 0.64258 0.26196 0.96468 0.0
H956 H 0.66229 0.28549 0.95226 0.0
H957 H 0.66893 0.27061 0.97223 0.0
H958 H 0.69902 0.29271 0.03681 0.0
H959 H 0.73604 0.30883 0.03075 0.0
H960 H 0.43258 0.73445 0.36277 0.0
H961 H 0.41179 0.69749 0.36859 0.0
H962 H 0.38327 0.6922 0.29785 0.0
H963 H 0.40446 0.72868 0.2916 0.0
H964 H 0.37238 0.67971 0.37348 0.0
H965 H 0.38621 0.64141 0.29609 0.0
H966 H 0.40385 0.6677 0.30372 0.0
H967 H 0.38225 0.6611 0.28384 0.0
C968 C 0.42241 0.72524 0.3481 0.0
C969 C 0.41992 0.73444 0.32687 0.0
C970 C 0.4105 0.70414 0.35146 0.0
C971 C 0.39607 0.69195 0.33356 0.0
C972 C 0.3946 0.70106 0.31168 0.0
H973 H 0.27748 0.61096 0.3155 0.0
H974 H 0.31456 0.63261 0.3129 0.0
C975 C 0.4065 0.72203 0.3083 0.0
C976 C 0.38006 0.6707 0.33921 0.0
H977 H 0.3503 0.62492 0.31087 0.0
C978 C 0.36798 0.66745 0.36028 0.0
C979 C 0.37434 0.6546 0.32213 0.0
C980 C 0.38755 0.65638 0.30035 0.0
C981 C 0.34924 0.64944 0.36327 0.0
C982 C 0.34251 0.63428 0.34477 0.0
C983 C 0.35544 0.63667 0.32492 0.0
C984 C 0.32084 0.61816 0.34343 0.0
C985 C 0.33591 0.64753 0.38502 0.0
C986 C 0.31219 0.60236 0.36088 0.0
C987 C 0.29095 0.58986 0.36224 0.0
C988 C 0.27827 0.5932 0.34628 0.0
C989 C 0.28704 0.60814 0.3279 0.0
C990 C 0.30817 0.62043 0.32639 0.0
H991 H 0.34301 0.66121 0.39709 0.0
H992 H 0.32095 0.64514 0.37845 0.0
H993 H 0.33296 0.6341 0.39626 0.0
H994 H 0.32177 0.60042 0.37418 0.0
H995 H 0.28441 0.57851 0.3767 0.0
H996 H 0.68852 0.4141 0.70309 0.0
H997 H 0.70215 0.39087 0.70438 0.0
H998 H 0.71499 0.39986 0.62629 0.0
H999 H 0.70075 0.4227 0.625 0.0
H1000 H 0.6904 0.3614 0.63658 0.0
H1001 H 0.75437 0.38942 0.7023 0.0
H1002 H 0.73331 0.39038 0.71602 0.0
H1003 H 0.74583 0.40587 0.68936 0.0
C1004 C 0.69507 0.41174 0.68649 0.0
C1005 C 0.69384 0.4202 0.66402 0.0
C1006 C 0.70298 0.39856 0.68721 0.0
C1007 C 0.70988 0.39379 0.66548 0.0
C1008 C 0.70995 0.40346 0.64332 0.0
H1009 H 0.70113 0.27393 0.65037 0.0
H1010 H 0.71608 0.31049 0.64208 0.0
C1011 C 0.70189 0.41652 0.64258 0.0
C1012 C 0.71296 0.37591 0.66513 0.0
H1013 H 0.73351 0.35228 0.6984 0.0
C1014 C 0.70032 0.35962 0.64955 0.0
C1015 C 0.72586 0.37356 0.68208 0.0
C1016 C 0.74075 0.39087 0.69818 0.0
C1017 C 0.69889 0.34054 0.6519 0.0
C1018 C 0.71072 0.33777 0.67008 0.0
C1019 C 0.72444 0.35443 0.68451 0.0
C1020 C 0.7065 0.31709 0.67686 0.0
C1021 C 0.68347 0.3231 0.63628 0.0
C1022 C 0.69738 0.30903 0.69975 0.0
C1023 C 0.68903 0.28831 0.70457 0.0
C1024 C 0.68963 0.27526 0.68657 0.0
C1025 C 0.70039 0.28364 0.66452 0.0
C1026 C 0.70881 0.30447 0.65971 0.0
H1027 H 0.67346 0.32721 0.6257 0.0
H1028 H 0.69158 0.31857 0.62289 0.0
H1029 H 0.67369 0.30969 0.648 0.0
H1030 H 0.69552 0.31852 0.71329 0.0
H1031 H 0.68117 0.2823 0.72191 0.0
H1032 H 0.28547 0.67917 0.96272 0.0
H1033 H 0.32175 0.69334 0.97122 0.0
H1034 H 0.31421 0.7147 0.04211 0.0
H1035 H 0.27757 0.69989 0.034 0.0
H1036 H 0.35586 0.73101 0.98554 0.0
H1037 H 0.33038 0.672 0.05937 0.0
H1038 H 0.31283 0.67225 0.03706 0.0
H1039 H 0.32213 0.69043 0.06185 0.0
C1040 C 0.2916 0.68715 0.97998 0.0
C1041 C 0.27864 0.688 0.99796 0.0
C1042 C 0.31236 0.69541 0.98471 0.0
C1043 C 0.32057 0.70469 1.00749 0.0
C1044 C 0.30807 0.70729 0.02457 0.0
H1045 H 0.42571 0.69781 0.05966 0.0
H1046 H 0.40329 0.71257 0.05804 0.0
C1047 C 0.28719 0.69894 0.01986 0.0
C1048 C 0.34123 0.70873 0.01429 0.0
H1049 H 0.36456 0.68833 0.04825 0.0
C1050 C 0.35793 0.72204 0.99963 0.0
C1051 C 0.34389 0.69702 0.03272 0.0
C1052 C 0.3264 0.68201 0.04861 0.0
C1053 C 0.37696 0.72316 1.00204 0.0
C1054 C 0.37918 0.71036 0.01925 0.0
C1055 C 0.36289 0.69817 0.03508 0.0
C1056 C 0.39684 0.70691 0.01897 0.0
C1057 C 0.3943 0.73758 0.98566 0.0
C1058 C 0.40124 0.69949 0.9974 0.0
C1059 C 0.41417 0.69129 0.99831 0.0
C1060 C 0.42274 0.69027 0.0208 0.0
C1061 C 0.41943 0.69879 0.04206 0.0
C1062 C 0.40662 0.70714 0.04113 0.0
H1063 H 0.39309 0.75125 0.98123 0.0
H1064 H 0.40936 0.74255 0.99439 0.0
H1065 H 0.39356 0.72983 0.96798 0.0
H1066 H 0.39345 0.69854 0.98026 0.0
H1067 H 0.41627 0.6844 0.98186 0.0
H1068 H 0.54157 0.09361 0.26744 0.0
H1069 H 0.53288 0.05779 0.26382 0.0
H1070 H 0.49827 0.04374 0.33129 0.0
H1071 H 0.50683 0.07932 0.33499 0.0
H1072 H 0.54136 0.03433 0.30116 0.0
H1073 H 0.45875 0.99999 0.28083 0.0
H1074 H 0.4767 0.02671 0.27612 0.0
H1075 H 0.46782 0.01719 0.30665 0.0
C1076 C 0.53186 0.08283 0.28131 0.0
C1077 C 0.52492 0.08945 0.30151 0.0
C1078 C 0.52701 0.06236 0.27931 0.0
C1079 C 0.51479 0.04793 0.29719 0.0
C1080 C 0.50755 0.05444 0.3171 0.0
H1081 H 0.46406 0.91984 0.32953 0.0
H1082 H 0.47331 0.95542 0.32622 0.0
C1083 C 0.51257 0.07488 0.31926 0.0
C1084 C 0.51006 0.02623 0.29568 0.0
H1085 H 0.47055 0.9772 0.29084 0.0
C1086 C 0.52591 0.02182 0.29865 0.0
C1087 C 0.4899 0.00985 0.29258 0.0
C1088 C 0.47228 0.01357 0.28866 0.0
C1089 C 0.52209 1.00157 0.29953 0.0
C1090 C 0.50185 0.9851 0.2966 0.0
C1091 C 0.48607 0.98962 0.29311 0.0
C1092 C 0.49647 0.96312 0.29828 0.0
C1093 C 0.53972 0.99811 0.30474 0.0
C1094 C 0.5061 0.95508 0.28348 0.0
C1095 C 0.50111 0.93458 0.28572 0.0
C1096 C 0.48613 0.9214 0.30263 0.0
C1097 C 0.47609 0.92941 0.3168 0.0
C1098 C 0.48122 0.94988 0.31472 0.0
H1099 H 0.55271 0.01165 0.31347 0.0
H1100 H 0.53504 0.98481 0.31707 0.0
H1101 H 0.54525 0.99515 0.28711 0.0
H1102 H 0.51749 0.96464 0.27008 0.0
H1103 H 0.50926 0.9292 0.27443 0.0
H1104 H 0.45458 0.54002 0.59991 0.0
H1105 H 0.48163 0.53116 0.59583 0.0
H1106 H 0.46076 0.49563 0.66252 0.0
H1107 H 0.43379 0.50432 0.66665 0.0
H1108 H 0.51348 0.5389 0.63251 0.0
H1109 H 0.46493 0.45666 0.61155 0.0
H1110 H 0.45613 0.47469 0.60753 0.0
H1111 H 0.45698 0.46547 0.63781 0.0
C1112 C 0.45556 0.53008 0.6135 0.0
C1113 C 0.44192 0.52291 0.63362 0.0
C1114 C 0.47114 0.52513 0.61124 0.0
C1115 C 0.47324 0.51259 0.62877 0.0
C1116 C 0.45942 0.50515 0.64859 0.0
H1117 H 0.55029 0.46137 0.66086 0.0
H1118 H 0.52398 0.47073 0.65722 0.0
C1119 C 0.44403 0.51025 0.65101 0.0
C1120 C 0.49016 0.50773 0.62697 0.0
H1121 H 0.49952 0.46811 0.62166 0.0
C1122 C 0.51047 0.52346 0.62987 0.0
C1123 C 0.48631 0.48758 0.62368 0.0
C1124 C 0.46494 0.4701 0.61975 0.0
C1125 C 0.52686 0.5195 0.63055 0.0
C1126 C 0.52301 0.49926 0.6275 0.0
C1127 C 0.50267 0.48363 0.62403 0.0
C1128 C 0.53954 0.49372 0.6292 0.0
C1129 C 0.54802 0.53698 0.6357 0.0
C1130 C 0.55723 0.50317 0.61441 0.0
C1131 C 0.57272 0.49809 0.61683 0.0
C1132 C 0.57088 0.48323 0.63393 0.0
C1133 C 0.55278 0.47332 0.648 0.0
C1134 C 0.53746 0.47852 0.64573 0.0
H1135 H 0.54758 0.55005 0.64436 0.0
H1136 H 0.55659 0.53223 0.64808 0.0
H1137 H 0.5565 0.54236 0.61806 0.0
H1138 H 0.55912 0.51452 0.60094 0.0
H1139 H 0.5863 0.50611 0.60559 0.0
H1140 H 0.9192 0.45157 0.93374 0.0
H1141 H 0.955 0.47874 0.92991 0.0
H1142 H 0.96928 0.45949 0.99819 0.0
H1143 H 0.93368 0.43238 1.00212 0.0
H1144 H 0.97861 0.51131 0.96678 0.0
H1145 H 0.01291 0.46283 0.94772 0.0
H1146 H 0.98613 0.45406 0.94292 0.0
H1147 H 0.9957 0.45512 0.97355 0.0
C1148 C 0.93001 0.45294 0.94778 0.0
C1149 C 0.92344 0.43969 0.96824 0.0
C1150 C 0.95048 0.46859 0.94564 0.0
C1151 C 0.96497 0.47116 0.96367 0.0
C1152 C 0.95852 0.45778 0.9839 0.0
H1153 H 0.09328 0.54874 0.99494 0.0
H1154 H 0.05767 0.52239 0.99167 0.0
C1155 C 0.93806 0.44232 0.98619 0.0
C1156 C 0.9867 0.48808 0.96185 0.0
H1157 H 0.03579 0.49756 0.95669 0.0
C1158 C 0.99112 0.50835 0.96433 0.0
C1159 C 1.00309 0.48428 0.9588 0.0
C1160 C 0.99933 0.46293 0.95539 0.0
C1161 C 0.01142 0.52477 0.9648 0.0
C1162 C 0.02791 0.52098 0.96193 0.0
C1163 C 0.02336 0.50067 0.9589 0.0
C1164 C 0.04995 0.53756 0.96341 0.0
C1165 C 0.01493 0.5459 0.96953 0.0
C1166 C 0.05801 0.55505 0.94836 0.0
C1167 C 0.07855 0.57059 0.95057 0.0
C1168 C 0.09172 0.56898 0.96772 0.0
C1169 C 0.0837 0.55106 0.98205 0.0
C1170 C 0.06322 0.53571 0.97999 0.0
H1171 H 1.0014 0.5455 0.97814 0.0
H1172 H 0.02831 0.55467 0.98177 0.0
H1173 H 0.01787 0.55412 0.95171 0.0
H1174 H 0.04843 0.55675 0.93484 0.0
H1175 H 0.08397 0.58401 0.93913 0.0
H1176 H 0.08138 0.5048 0.35284 0.0
H1177 H 0.04579 0.49642 0.35699 0.0
H1178 H 0.06093 0.53243 0.42337 0.0
H1179 H 0.09674 0.54099 0.41927 0.0
H1180 H 0.01753 0.47742 0.39824 0.0
H1181 H 0.03234 0.55558 0.37797 0.0
H1182 H 0.05036 0.54741 0.37013 0.0
H1183 H 0.04768 0.5531 0.4016 0.0
C1184 C 0.0772 0.51097 0.36837 0.0
C1185 C 0.09208 0.52371 0.38563 0.0
C1186 C 0.05676 0.50609 0.37075 0.0
C1187 C 0.0506 0.51399 0.39029 0.0
C1188 C 0.06528 0.52634 0.40793 0.0
H1189 H 0.93119 0.50712 0.41178 0.0
H1190 H 0.96667 0.51508 0.4168 0.0
C1191 C 0.08575 0.53107 0.40569 0.0
C1192 C 0.02886 0.50929 0.39191 0.0
H1193 H 0.99829 0.53048 0.38573 0.0
C1194 C 0.01334 0.48905 0.39561 0.0
C1195 C 0.02328 0.52443 0.3887 0.0
C1196 C 0.03919 0.54636 0.38421 0.0
C1197 C 0.99254 0.48353 0.39611 0.0
C1198 C 0.98685 0.49854 0.39196 0.0
C1199 C 1.00245 0.51889 0.38883 0.0
C1200 C 0.9649 0.49329 0.38964 0.0
C1201 C 0.97693 0.46164 0.4015 0.0
C1202 C 0.95186 0.47848 0.37263 0.0
C1203 C 0.93149 0.47369 0.36998 0.0
C1204 C 0.92346 0.48384 0.38388 0.0
C1205 C 0.93657 0.49876 0.4009 0.0
C1206 C 0.95701 0.50346 0.40366 0.0
H1207 H 0.98363 0.45412 0.41265 0.0
H1208 H 0.96358 0.46042 0.41158 0.0
H1209 H 0.97155 0.45317 0.38385 0.0
H1210 H 0.95749 0.4707 0.36106 0.0
H1211 H 0.92202 0.46188 0.35696 0.0
H1212 H 0.54912 0.09054 0.69122 0.0
H1213 H 0.52284 0.05483 0.69445 0.0
H1214 H 0.55845 0.04533 0.74931 0.0
H1215 H 0.58539 0.08114 0.74565 0.0
H1216 H 0.52919 0.01996 0.68601 0.0
H1217 H 0.49926 0.0201 0.7798 0.0
H1218 H 0.51325 0.04312 0.76185 0.0
H1219 H 0.52649 0.03174 0.77621 0.0
C1220 C 0.55163 0.08095 0.70386 0.0
C1221 C 0.56976 0.08896 0.7179 0.0
C1222 C 0.53639 0.06045 0.70581 0.0
C1223 C 0.53852 0.04727 0.72217 0.0
C1224 C 0.55628 0.05519 0.73672 0.0
H1225 H 0.45347 0.9165 0.75076 0.0
H1226 H 0.48127 0.95204 0.75374 0.0
C1227 C 0.57171 0.07576 0.73464 0.0
C1228 C 0.52246 0.02517 0.72296 0.0
H1229 H 0.48403 0.98881 0.75846 0.0
C1230 C 0.51936 0.01315 0.70189 0.0
C1231 C 0.5097 0.01613 0.74372 0.0
C1232 C 0.51213 0.02836 0.76671 0.0
C1233 C 0.50395 0.9925 0.70096 0.0
C1234 C 0.49062 0.98357 0.72138 0.0
C1235 C 0.49402 0.99551 0.7427 0.0
C1236 C 0.4729 0.96211 0.72061 0.0
C1237 C 0.50245 0.98037 0.67815 0.0
C1238 C 0.45834 0.95585 0.70157 0.0
C1239 C 0.44255 0.93555 0.69977 0.0
C1240 C 0.44054 0.92087 0.7172 0.0
C1241 C 0.45446 0.92734 0.73703 0.0
C1242 C 0.47045 0.9477 0.73869 0.0
H1243 H 0.51729 0.98703 0.66828 0.0
H1244 H 0.4975 0.96429 0.68275 0.0
H1245 H 0.49114 0.9806 0.66529 0.0
H1246 H 0.45929 0.96667 0.68785 0.0
H1247 H 0.43192 0.93129 0.68452 0.0
H1248 H 0.5067 0.57755 0.01959 0.0
H1249 H 0.51519 0.55047 0.0238 0.0
H1250 H 0.48081 0.53091 0.09148 0.0
H1251 H 0.47217 0.55805 0.08736 0.0
H1252 H 0.53522 0.5421 0.06551 0.0
H1253 H 0.45673 0.47848 0.04654 0.0
H1254 H 0.46488 0.50446 0.03791 0.0
H1255 H 0.45953 0.49681 0.06962 0.0
C1256 C 0.50091 0.56751 0.03541 0.0
C1257 C 0.48861 0.57 0.05306 0.0
C1258 C 0.50585 0.55203 0.03783 0.0
C1259 C 0.49845 0.5384 0.05777 0.0
C1260 C 0.48652 0.54104 0.07574 0.0
H1261 H 0.50566 0.42636 0.07987 0.0
H1262 H 0.4977 0.45384 0.08486 0.0
C1263 C 0.48174 0.55671 0.07348 0.0
C1264 C 0.50325 0.52146 0.05951 0.0
H1265 H 0.48207 0.46977 0.05389 0.0
C1266 C 0.52357 0.52628 0.06308 0.0
C1267 C 0.48809 0.50075 0.05657 0.0
C1268 C 0.46606 0.49466 0.05229 0.0
C1269 C 0.52915 0.51107 0.06371 0.0
C1270 C 0.51412 0.49036 0.0598 0.0
C1271 C 0.49369 0.48553 0.05681 0.0
C1272 C 0.51942 0.47373 0.05757 0.0
C1273 C 0.55113 0.51745 0.06899 0.0
C1274 C 0.53421 0.47545 0.04052 0.0
C1275 C 0.53901 0.45991 0.03791 0.0
C1276 C 0.52888 0.4418 0.05186 0.0
C1277 C 0.51401 0.44004 0.06895 0.0
C1278 C 0.5093 0.45575 0.07169 0.0
H1279 H 0.55868 0.5317 0.08005 0.0
H1280 H 0.55247 0.50543 0.07911 0.0
H1281 H 0.55955 0.52048 0.05129 0.0
H1282 H 0.54195 0.48878 0.02888 0.0
H1283 H 0.55081 0.46221 0.02484 0.0
H1284 H 0.52679 0.19756 0.22347 0.0
H1285 H 0.5279 0.2228 0.19432 0.0
H1286 H 0.57959 0.27023 0.23318 0.0
H1287 H 0.57774 0.24498 0.26313 0.0
H1288 H 0.55528 0.28407 0.22162 0.0
H1289 H 0.56391 0.2487 0.13681 0.0
H1290 H 0.54112 0.23148 0.15312 0.0
H1291 H 0.56569 0.23993 0.16714 0.0
C1292 C 0.53825 0.2134 0.22597 0.0
C1293 C 0.55193 0.21925 0.24597 0.0
C1294 C 0.53913 0.22788 0.20895 0.0
C1295 C 0.55407 0.24865 0.21096 0.0
C1296 C 0.56789 0.25444 0.23089 0.0
H1297 H 0.57828 0.33601 0.0893 0.0
H1298 H 0.57985 0.31255 0.11942 0.0
C1299 C 0.5669 0.23995 0.24803 0.0
C1300 C 0.55493 0.26432 0.19283 0.0
H1301 H 0.55511 0.27465 0.13105 0.0
C1302 C 0.55535 0.28197 0.20183 0.0
C1303 C 0.55545 0.26214 0.1668 0.0
C1304 C 0.55675 0.24466 0.1554 0.0
C1305 C 0.55578 0.29699 0.18588 0.0
C1306 C 0.55517 0.29426 0.15985 0.0
C1307 C 0.55526 0.27685 0.15085 0.0
C1308 C 0.55456 0.30919 0.1417 0.0
C1309 C 0.55743 0.31592 0.19727 0.0
C1310 C 0.53987 0.31541 0.14373 0.0
C1311 C 0.53916 0.32906 0.12663 0.0
C1312 C 0.55276 0.33655 0.10652 0.0
C1313 C 0.56751 0.33047 0.10448 0.0
C1314 C 0.56833 0.31693 0.12171 0.0
H1315 H 0.56462 0.31893 0.21584 0.0
H1316 H 0.56651 0.32951 0.18551 0.0
H1317 H 0.54191 0.31379 0.19959 0.0
H1318 H 0.52868 0.30951 0.15841 0.0
H1319 H 0.52786 0.3337 0.1291 0.0
H1320 H 0.24873 0.57804 0.42214 0.0
H1321 H 0.2741 0.57984 0.45191 0.0
H1322 H 0.22658 0.52896 0.49163 0.0
H1323 H 0.20117 0.52794 0.46264 0.0
H1324 H 0.25146 0.55458 0.52372 0.0
H1325 H 0.3001 0.54565 0.45439 0.0
H1326 H 0.29774 0.56767 0.44863 0.0
H1327 H 0.27557 0.54264 0.44662 0.0
C1328 C 0.24373 0.56726 0.43727 0.0
C1329 C 0.22295 0.55247 0.43953 0.0
C1330 C 0.25832 0.56813 0.45421 0.0
C1331 C 0.25263 0.5541 0.47388 0.0
C1332 C 0.23169 0.53982 0.47661 0.0
H1333 H 0.33672 0.52708 0.55589 0.0
H1334 H 0.31236 0.52835 0.52711 0.0
C1335 C 0.2171 0.5391 0.45981 0.0
C1336 C 0.26823 0.55436 0.49173 0.0
H1337 H 0.31336 0.5539 0.49511 0.0
C1338 C 0.26497 0.5544 0.51735 0.0
C1339 C 0.28588 0.5538 0.48385 0.0
C1340 C 0.28996 0.55222 0.4569 0.0
C1341 C 0.27861 0.55401 0.53499 0.0
C1342 C 0.29663 0.55418 0.52711 0.0
C1343 C 0.29983 0.55402 0.50149 0.0
C1344 C 0.31188 0.5537 0.54494 0.0
C1345 C 0.27306 0.5527 0.56196 0.0
C1346 C 0.32043 0.56773 0.5646 0.0
C1347 C 0.33413 0.5667 0.58145 0.0
C1348 C 0.33987 0.55175 0.57908 0.0
C1349 C 0.33212 0.53835 0.55882 0.0
C1350 C 0.31828 0.53923 0.54213 0.0
H1351 H 0.25639 0.54639 0.56451 0.0
H1352 H 0.27767 0.54301 0.57231 0.0
H1353 H 0.28097 0.5682 0.57011 0.0
H1354 H 0.31658 0.57959 0.56696 0.0
H1355 H 0.34007 0.5775 0.59657 0.0
H1356 H 0.79098 0.30912 0.92759 0.0
H1357 H 0.76588 0.28509 0.89895 0.0
H1358 H 0.75859 0.33302 0.86725 0.0
H1359 H 0.78351 0.35718 0.89573 0.0
H1360 H 0.72537 0.27319 0.89039 0.0
H1361 H 0.76958 0.30888 0.80519 0.0
H1362 H 0.78106 0.31506 0.83548 0.0
H1363 H 0.76587 0.32576 0.82502 0.0
C1364 C 0.78514 0.31514 0.9138 0.0
C1365 C 0.79201 0.33629 0.91248 0.0
C1366 C 0.77015 0.30099 0.89761 0.0
C1367 C 0.76095 0.30722 0.87973 0.0
C1368 C 0.76622 0.32782 0.87974 0.0
H1369 H 0.67446 0.24391 0.75747 0.0
H1370 H 0.69774 0.26889 0.78783 0.0
C1371 C 0.78111 0.34196 0.89605 0.0
C1372 C 0.74554 0.29213 0.86167 0.0
H1373 H 0.736 0.28152 0.79987 0.0
C1374 C 0.72777 0.27503 0.8706 0.0
C1375 C 0.74835 0.29436 0.83571 0.0
C1376 C 0.7673 0.31189 0.82467 0.0
C1377 C 0.7128 0.26046 0.85454 0.0
C1378 C 0.71575 0.2625 0.82854 0.0
C1379 C 0.7335 0.2797 0.81964 0.0
C1380 C 0.70087 0.24698 0.8103 0.0
C1381 C 0.69364 0.24334 0.86576 0.0
C1382 C 0.69462 0.22612 0.81236 0.0
C1383 C 0.68111 0.2118 0.7951 0.0
C1384 C 0.67378 0.21791 0.77484 0.0
C1385 C 0.67988 0.23869 0.77278 0.0
C1386 C 0.69329 0.25302 0.79015 0.0
H1387 H 0.69055 0.24758 0.88425 0.0
H1388 H 0.68016 0.23897 0.8538 0.0
H1389 H 0.69558 0.22987 0.86819 0.0
H1390 H 0.70041 0.22085 0.82718 0.0
H1391 H 0.67649 0.19589 0.79754 0.0
H1392 H 0.43698 0.67427 0.09021 0.0
H1393 H 0.43585 0.6982 0.12011 0.0
H1394 H 0.48576 0.69968 0.16026 0.0
H1395 H 0.4867 0.67564 0.13062 0.0
H1396 H 0.43 0.69593 0.17209 0.0
H1397 H 0.50649 0.7604 0.14868 0.0
H1398 H 0.49329 0.7382 0.12921 0.0
H1399 H 0.50625 0.73727 0.15657 0.0
C1400 C 0.44771 0.67973 0.10544 0.0
C1401 C 0.46228 0.67341 0.10761 0.0
C1402 C 0.44706 0.69344 0.12257 0.0
C1403 C 0.46101 0.70128 0.14236 0.0
C1404 C 0.47516 0.69444 0.14492 0.0
H1405 H 0.48757 0.79015 0.26087 0.0
H1406 H 0.48663 0.76496 0.23261 0.0
C1407 C 0.47573 0.68066 0.12789 0.0
C1408 C 0.46075 0.71646 0.16031 0.0
H1409 H 0.49009 0.76478 0.18342 0.0
C1410 C 0.44313 0.71101 0.17444 0.0
C1411 C 0.47783 0.73623 0.16372 0.0
C1412 C 0.49699 0.74352 0.14862 0.0
C1413 C 0.44228 0.72443 0.19206 0.0
C1414 C 0.45934 0.74428 0.19537 0.0
C1415 C 0.47694 0.7497 0.18116 0.0
C1416 C 0.45941 0.75969 0.21333 0.0
C1417 C 0.42327 0.71681 0.20753 0.0
C1418 C 0.44425 0.76528 0.2128 0.0
C1419 C 0.44493 0.78023 0.22895 0.0
C1420 C 0.46135 0.79105 0.24559 0.0
C1421 C 0.47571 0.78425 0.24706 0.0
C1422 C 0.47499 0.76925 0.23101 0.0
H1423 H 0.41474 0.69992 0.20868 0.0
H1424 H 0.42694 0.72308 0.22656 0.0
H1425 H 0.41303 0.72161 0.1989 0.0
H1426 H 0.43185 0.75822 0.19966 0.0
H1427 H 0.43221 0.78282 0.2282 0.0
H1428 H 0.6763 0.43343 0.59602 0.0
H1429 H 0.70002 0.43154 0.56656 0.0
H1430 H 0.70403 0.48267 0.52675 0.0
H1431 H 0.6795 0.48377 0.55542 0.0
H1432 H 0.70307 0.4569 0.49475 0.0
H1433 H 0.76028 0.46528 0.56431 0.0
H1434 H 0.73576 0.4434 0.56995 0.0
H1435 H 0.73889 0.46854 0.57198 0.0
C1436 C 0.68227 0.44426 0.58096 0.0
C1437 C 0.67642 0.45913 0.57857 0.0
C1438 C 0.69608 0.44334 0.56419 0.0
C1439 C 0.70461 0.45739 0.54457 0.0
C1440 C 0.69812 0.47178 0.54175 0.0
H1441 H 0.8155 0.48392 0.46219 0.0
H1442 H 0.79001 0.48281 0.49114 0.0
C1443 C 0.68419 0.47257 0.55837 0.0
C1444 C 0.71993 0.45699 0.5268 0.0
H1445 H 0.76535 0.45709 0.52357 0.0
C1446 C 0.71669 0.45697 0.50117 0.0
C1447 C 0.73805 0.45739 0.53475 0.0
C1448 C 0.7436 0.45887 0.56172 0.0
C1449 C 0.73069 0.45723 0.48358 0.0
C1450 C 0.74845 0.45692 0.49153 0.0
C1451 C 0.75177 0.45707 0.51715 0.0
C1452 C 0.76411 0.45724 0.47372 0.0
C1453 C 0.72653 0.45855 0.4566 0.0
C1454 C 0.75852 0.44301 0.45428 0.0
C1455 C 0.77316 0.44391 0.43737 0.0
C1456 C 0.79387 0.45896 0.43945 0.0
C1457 C 0.79962 0.47256 0.45951 0.0
C1458 C 0.78499 0.47178 0.47627 0.0
H1459 H 0.71621 0.46489 0.45397 0.0
H1460 H 0.74088 0.46821 0.44629 0.0
H1461 H 0.71893 0.44304 0.44846 0.0
H1462 H 0.74279 0.43111 0.45212 0.0
H1463 H 0.76824 0.43296 0.42242 0.0
H1464 H 0.20482 0.65771 0.87872 0.0
H1465 H 0.23011 0.68195 0.84945 0.0
H1466 H 0.26675 0.71866 0.9103 0.0
H1467 H 0.24176 0.69406 0.93951 0.0
H1468 H 0.24354 0.72149 0.84041 0.0
H1469 H 0.31002 0.71531 0.87114 0.0
H1470 H 0.28437 0.69766 0.88111 0.0
H1471 H 0.29867 0.72221 0.89563 0.0
C1472 C 0.21851 0.6707 0.88585 0.0
C1473 C 0.22153 0.67358 0.91152 0.0
C1474 C 0.23293 0.68473 0.86905 0.0
C1475 C 0.25082 0.70211 0.87738 0.0
C1476 C 0.25356 0.7052 0.9031 0.0
H1477 H 0.35434 0.80704 0.80457 0.0
H1478 H 0.3298 0.78211 0.83395 0.0
C1479 C 0.23914 0.69116 0.91988 0.0
C1480 C 0.26617 0.71722 0.85923 0.0
H1481 H 0.31688 0.7421 0.84309 0.0
C1482 C 0.25954 0.72585 0.84098 0.0
C1483 C 0.28723 0.72321 0.8597 0.0
C1484 C 0.2955 0.71399 0.87778 0.0
C1485 C 0.27318 0.74035 0.82379 0.0
C1486 C 0.29423 0.74632 0.82425 0.0
C1487 C 0.30087 0.73772 0.84252 0.0
C1488 C 0.30953 0.76143 0.80608 0.0
C1489 C 0.26491 0.74958 0.80573 0.0
C1490 C 0.3068 0.75826 0.78037 0.0
C1491 C 0.32094 0.77251 0.76354 0.0
C1492 C 0.33844 0.79022 0.77184 0.0
C1493 C 0.34131 0.79336 0.7975 0.0
C1494 C 0.32715 0.77911 0.81435 0.0
H1495 H 0.25035 0.74818 0.8123 0.0
H1496 H 0.27602 0.76593 0.8025 0.0
H1497 H 0.26185 0.74143 0.78784 0.0
H1498 H 0.29373 0.74466 0.77322 0.0
H1499 H 0.31822 0.76964 0.74392 0.0
loop_
_geom_bond_atom_site_label_1
_geom_bond_atom_site_label_2
_geom_bond_distance
_geom_bond_site_symmetry_2
_ccdc_geom_bond_type
C0 C1 1.443 . S
C0 N4 1.376 . S
C0 C38 1.389 . S
C1 C0 1.443 . S
C1 C2 1.340 . S
C1 H41 0.951 . S
C2 C1 1.340 . S
C2 C3 1.439 . S
C2 H42 0.950 . S
C3 C2 1.439 . S
C3 N4 1.374 . S
C3 C37 1.395 . S
N4 C0 1.376 . S
N4 C3 1.374 . S
N4 Co5 2.008 . S
Co5 N4 2.008 . S
Co5 N6 1.995 . S
Co5 N11 2.008 . S
Co5 N16 1.995 . S
Co5 N21 2.282 . S
Co5 N27 2.282 . S
N6 Co5 1.995 . S
N6 C7 1.376 . S
N6 C10 1.383 . S
C7 N6 1.376 . S
C7 C8 1.446 . S
C7 C37 1.391 . S
C8 C7 1.446 . S
C8 C9 1.339 . S
C8 H43 0.949 . S
C9 C8 1.339 . S
C9 C10 1.439 . S
C9 H44 0.950 . S
C10 N6 1.383 . S
C10 C9 1.439 . S
C10 C39 1.392 . S
N11 Co5 2.008 . S
N11 C12 1.376 . S
N11 C15 1.374 . S
C12 N11 1.376 . S
C12 C13 1.443 . S
C12 C39 1.389 . S
C13 C12 1.443 . S
C13 C14 1.340 . S
C13 H45 0.951 . S
C14 C13 1.340 . S
C14 C15 1.439 . S
C14 H46 0.950 . S
C15 N11 1.374 . S
C15 C14 1.439 . S
C15 C40 1.395 . S
N16 Co5 1.995 . S
N16 C17 1.376 . S
N16 C20 1.383 . S
C17 N16 1.376 . S
C17 C18 1.446 . S
C17 C40 1.391 . S
C18 C17 1.446 . S
C18 C19 1.339 . S
C18 H47 0.949 . S
C19 C18 1.339 . S
C19 C20 1.439 . S
C19 H48 0.950 . S
C20 N16 1.383 . S
C20 C19 1.439 . S
C20 C38 1.392 . S
N21 Co5 2.282 . S
N21 C24 1.332 . S
N21 C26 1.332 . S
C22 C23 1.386 . S
C22 C25 1.388 . S
C23 C22 1.386 . S
C23 C24 1.382 . S
C23 H49 0.950 . S
C24 N21 1.332 . S
C24 C23 1.382 . S
C24 H35 0.952 . S
C25 C22 1.388 . S
C25 C26 1.382 . S
C25 H50 0.950 . S
C26 N21 1.332 . S
C26 C25 1.382 . S
C26 H36 0.948 . S
N27 Co5 2.282 . S
N27 C31 1.332 . S
N27 C32 1.332 . S
C28 C29 1.388 . S
C28 C32 1.382 . S
C28 H51 0.950 . S
C29 C28 1.388 . S
C29 C30 1.386 . S
C30 C29 1.386 . S
C30 C31 1.382 . S
C30 H52 0.950 . S
C31 N27 1.332 . S
C31 C30 1.382 . S
C31 H33 0.952 . S
C32 N27 1.332 . S
C32 C28 1.382 . S
C32 H34 0.948 . S
H33 C31 0.952 . S
H34 C32 0.948 . S
H35 C24 0.952 . S
H36 C26 0.948 . S
C37 C3 1.395 . S
C37 C7 1.391 . S
C38 C0 1.389 . S
C38 C20 1.392 . S
C39 C10 1.392 . S
C39 C12 1.389 . S
C40 C15 1.395 . S
C40 C17 1.391 . S
H41 C1 0.951 . S
H42 C2 0.950 . S
H43 C8 0.949 . S
H44 C9 0.950 . S
H45 C13 0.951 . S
H46 C14 0.950 . S
H47 C18 0.949 . S
H48 C19 0.950 . S
H49 C23 0.950 . S
H50 C25 0.950 . S
H51 C28 0.950 . S
H52 C30 0.950 . S
C53 C54 1.443 . S
C53 N57 1.376 . S
C53 C91 1.389 . S
C54 C53 1.443 . S
C54 C55 1.340 . S
C54 H94 0.951 . S
C55 C54 1.340 . S
C55 C56 1.439 . S
C55 H95 0.950 . S
C56 C55 1.439 . S
C56 N57 1.374 . S
C56 C90 1.395 . S
N57 C53 1.376 . S
N57 C56 1.374 . S
N57 Co58 2.008 . S
Co58 N57 2.008 . S
Co58 N59 1.995 . S
Co58 N64 2.008 . S
Co58 N69 1.995 . S
Co58 N74 2.282 . S
Co58 N80 2.282 . S
N59 Co58 1.995 . S
N59 C60 1.376 . S
N59 C63 1.383 . S
C60 N59 1.376 . S
C60 C61 1.446 . S
C60 C90 1.391 . S
C61 C60 1.446 . S
C61 C62 1.339 . S
C61 H96 0.949 . S
C62 C61 1.339 . S
C62 C63 1.439 . S
C62 H97 0.950 . S
C63 N59 1.383 . S
C63 C62 1.439 . S
C63 C92 1.392 . S
N64 Co58 2.008 . S
N64 C65 1.376 . S
N64 C68 1.374 . S
C65 N64 1.376 . S
C65 C66 1.443 . S
C65 C92 1.389 . S
C66 C65 1.443 . S
C66 C67 1.340 . S
C66 H98 0.951 . S
C67 C66 1.340 . S
C67 C68 1.439 . S
C67 H99 0.950 . S
C68 N64 1.374 . S
C68 C67 1.439 . S
C68 C93 1.395 . S
N69 Co58 1.995 . S
N69 C70 1.376 . S
N69 C73 1.383 . S
C70 N69 1.376 . S
C70 C71 1.446 . S
C70 C93 1.391 . S
C71 C70 1.446 . S
C71 C72 1.339 . S
C71 H100 0.949 . S
C72 C71 1.339 . S
C72 C73 1.439 . S
C72 H101 0.950 . S
C73 N69 1.383 . S
C73 C72 1.439 . S
C73 C91 1.392 . S
N74 Co58 2.282 . S
N74 C77 1.332 . S
N74 C79 1.332 . S
C75 C76 1.386 . S
C75 C78 1.388 . S
C76 C75 1.386 . S
C76 C77 1.382 . S
C76 H102 0.950 . S
C77 N74 1.332 . S
C77 C76 1.382 . S
C77 H88 0.952 . S
C78 C75 1.388 . S
C78 C79 1.382 . S
C78 H103 0.950 . S
C79 N74 1.332 . S
C79 C78 1.382 . S
C79 H89 0.948 . S
N80 Co58 2.282 . S
N80 C84 1.332 . S
N80 C85 1.332 . S
C81 C82 1.388 . S
C81 C85 1.382 . S
C81 H104 0.950 . S
C82 C81 1.388 . S
C82 C83 1.386 . S
C83 C82 1.386 . S
C83 C84 1.382 . S
C83 H105 0.950 . S
C84 N80 1.332 . S
C84 C83 1.382 . S
C84 H86 0.952 . S
C85 N80 1.332 . S
C85 C81 1.382 . S
C85 H87 0.948 . S
H86 C84 0.952 . S
H87 C85 0.948 . S
H88 C77 0.952 . S
H89 C79 0.948 . S
C90 C56 1.395 . S
C90 C60 1.391 . S
C91 C53 1.389 . S
C91 C73 1.392 . S
C92 C63 1.392 . S
C92 C65 1.389 . S
C93 C68 1.395 . S
C93 C70 1.391 . S
H94 C54 0.951 . S
H95 C55 0.950 . S
H96 C61 0.949 . S
H97 C62 0.950 . S
H98 C66 0.951 . S
H99 C67 0.950 . S
H100 C71 0.949 . S
H101 C72 0.950 . S
H102 C76 0.950 . S
H103 C78 0.950 . S
H104 C81 0.950 . S
H105 C83 0.950 . S
C106 C107 1.443 . S
C106 N110 1.376 . S
C106 C144 1.389 . S
C107 C106 1.443 . S
C107 C108 1.340 . S
C107 H147 0.951 . S
C108 C107 1.340 . S
C108 C109 1.439 . S
C108 H148 0.950 . S
C109 C108 1.439 . S
C109 N110 1.374 . S
C109 C143 1.395 . S
N110 C106 1.376 . S
N110 C109 1.374 . S
N110 Co111 2.008 . S
Co111 N110 2.008 . S
Co111 N112 1.995 1_556 S
Co111 N117 2.008 1_556 S
Co111 N122 1.995 . S
Co111 N127 2.282 . S
Co111 N133 2.282 1_556 S
N112 Co111 1.995 1_554 S
N112 C113 1.376 . S
N112 C116 1.383 . S
C113 N112 1.376 . S
C113 C114 1.446 . S
C113 C143 1.391 1_554 S
C114 C113 1.446 . S
C114 C115 1.339 . S
C114 H149 0.949 . S
C115 C114 1.339 . S
C115 C116 1.439 . S
C115 H150 0.950 . S
C116 N112 1.383 . S
C116 C115 1.439 . S
C116 C145 1.392 . S
N117 Co111 2.008 1_554 S
N117 C118 1.376 . S
N117 C121 1.374 . S
C118 N117 1.376 . S
C118 C119 1.443 . S
C118 C145 1.389 . S
C119 C118 1.443 . S
C119 C120 1.340 . S
C119 H151 0.951 . S
C120 C119 1.340 . S
C120 C121 1.439 . S
C120 H152 0.950 . S
C121 N117 1.374 . S
C121 C120 1.439 . S
C121 C146 1.395 . S
N122 Co111 1.995 . S
N122 C123 1.376 . S
N122 C126 1.383 . S
C123 N122 1.376 . S
C123 C124 1.446 . S
C123 C146 1.391 1_556 S
C124 C123 1.446 . S
C124 C125 1.339 . S
C124 H153 0.949 . S
C125 C124 1.339 . S
C125 C126 1.439 . S
C125 H154 0.950 . S
C126 N122 1.383 . S
C126 C125 1.439 . S
C126 C144 1.392 . S
N127 Co111 2.282 . S
N127 C130 1.332 1_556 S
N127 C132 1.332 . S
C128 C129 1.386 . S
C128 C131 1.388 1_554 S
C129 C128 1.386 . S
C129 C130 1.382 . S
C129 H155 0.950 . S
C130 N127 1.332 1_554 S
C130 C129 1.382 . S
C130 H141 0.952 . S
C131 C128 1.388 1_556 S
C131 C132 1.382 . S
C131 H156 0.950 . S
C132 N127 1.332 . S
C132 C131 1.382 . S
C132 H142 0.948 . S
N133 Co111 2.282 1_554 S
N133 C137 1.332 1_554 S
N133 C138 1.332 . S
C134 C135 1.388 1_554 S
C134 C138 1.382 . S
C134 H157 0.950 . S
C135 C134 1.388 1_556 S
C135 C136 1.386 . S
C136 C135 1.386 . S
C136 C137 1.382 . S
C136 H158 0.950 . S
C137 N133 1.332 1_556 S
C137 C136 1.382 . S
C137 H139 0.952 . S
C138 N133 1.332 . S
C138 C134 1.382 . S
C138 H140 0.948 . S
H139 C137 0.952 . S
H140 C138 0.948 . S
H141 C130 0.952 . S
H142 C132 0.948 . S
C143 C109 1.395 . S
C143 C113 1.391 1_556 S
C144 C106 1.389 . S
C144 C126 1.392 . S
C145 C116 1.392 . S
C145 C118 1.389 . S
C146 C121 1.395 . S
C146 C123 1.391 1_554 S
H147 C107 0.951 . S
H148 C108 0.950 . S
H149 C114 0.949 . S
H150 C115 0.950 . S
H151 C119 0.951 . S
H152 C120 0.950 . S
H153 C124 0.949 . S
H154 C125 0.950 . S
H155 C129 0.950 . S
H156 C131 0.950 . S
H157 C134 0.950 . S
H158 C136 0.950 . S
C159 C160 1.443 . S
C159 N163 1.376 . S
C159 C197 1.389 . S
C160 C159 1.443 . S
C160 C161 1.340 . S
C160 H200 0.951 . S
C161 C160 1.340 . S
C161 C162 1.439 . S
C161 H201 0.950 . S
C162 C161 1.439 . S
C162 N163 1.374 . S
C162 C196 1.395 . S
N163 C159 1.376 . S
N163 C162 1.374 . S
N163 Co164 2.008 . S
Co164 N163 2.008 . S
Co164 N165 1.995 . S
Co164 N170 2.008 . S
Co164 N175 1.995 . S
Co164 N180 2.282 . S
Co164 N186 2.282 . S
N165 Co164 1.995 . S
N165 C166 1.376 . S
N165 C169 1.383 . S
C166 N165 1.376 . S
C166 C167 1.446 . S
C166 C196 1.391 . S
C167 C166 1.446 . S
C167 C168 1.339 . S
C167 H202 0.949 . S
C168 C167 1.339 . S
C168 C169 1.439 . S
C168 H203 0.950 . S
C169 N165 1.383 . S
C169 C168 1.439 . S
C169 C198 1.392 . S
N170 Co164 2.008 . S
N170 C171 1.376 . S
N170 C174 1.374 . S
C171 N170 1.376 . S
C171 C172 1.443 . S
C171 C198 1.389 . S
C172 C171 1.443 . S
C172 C173 1.340 . S
C172 H204 0.951 . S
C173 C172 1.340 . S
C173 C174 1.439 . S
C173 H205 0.950 . S
C174 N170 1.374 . S
C174 C173 1.439 . S
C174 C199 1.395 . S
N175 Co164 1.995 . S
N175 C176 1.376 . S
N175 C179 1.383 . S
C176 N175 1.376 . S
C176 C177 1.446 . S
C176 C199 1.391 . S
C177 C176 1.446 . S
C177 C178 1.339 . S
C177 H206 0.949 . S
C178 C177 1.339 . S
C178 C179 1.439 . S
C178 H207 0.950 . S
C179 N175 1.383 . S
C179 C178 1.439 . S
C179 C197 1.392 . S
N180 Co164 2.282 . S
N180 C183 1.332 . S
N180 C185 1.332 . S
C181 C182 1.386 . S
C181 C184 1.388 . S
C182 C181 1.386 . S
C182 C183 1.382 . S
C182 H208 0.950 . S
C183 N180 1.332 . S
C183 C182 1.382 . S
C183 H194 0.952 . S
C184 C181 1.388 . S
C184 C185 1.382 . S
C184 H209 0.950 . S
C185 N180 1.332 . S
C185 C184 1.382 . S
C185 H195 0.948 . S
N186 Co164 2.282 . S
N186 C190 1.332 . S
N186 C191 1.332 . S
C187 C188 1.388 . S
C187 C191 1.382 . S
C187 H210 0.950 . S
C188 C187 1.388 . S
C188 C189 1.386 . S
C189 C188 1.386 . S
C189 C190 1.382 . S
C189 H211 0.950 . S
C190 N186 1.332 . S
C190 C189 1.382 . S
C190 H192 0.952 . S
C191 N186 1.332 . S
C191 C187 1.382 . S
C191 H193 0.948 . S
H192 C190 0.952 . S
H193 C191 0.948 . S
H194 C183 0.952 . S
H195 C185 0.948 . S
C196 C162 1.395 . S
C196 C166 1.391 . S
C197 C159 1.389 . S
C197 C179 1.392 . S
C198 C169 1.392 . S
C198 C171 1.389 . S
C199 C174 1.395 . S
C199 C176 1.391 . S
H200 C160 0.951 . S
H201 C161 0.950 . S
H202 C167 0.949 . S
H203 C168 0.950 . S
H204 C172 0.951 . S
H205 C173 0.950 . S
H206 C177 0.949 . S
H207 C178 0.950 . S
H208 C182 0.950 . S
H209 C184 0.950 . S
H210 C187 0.950 . S
H211 C189 0.950 . S
C212 C213 1.443 . S
C212 N216 1.376 . S
C212 C250 1.389 . S
C213 C212 1.443 . S
C213 C214 1.340 . S
C213 H253 0.951 . S
C214 C213 1.340 . S
C214 C215 1.439 . S
C214 H254 0.950 . S
C215 C214 1.439 . S
C215 N216 1.374 . S
C215 C249 1.395 . S
N216 C212 1.376 . S
N216 C215 1.374 . S
N216 Co217 2.008 . S
Co217 N216 2.008 . S
Co217 N218 1.995 . S
Co217 N223 2.008 . S
Co217 N228 1.995 . S
Co217 N233 2.282 . S
Co217 N239 2.282 . S
N218 Co217 1.995 . S
N218 C219 1.376 . S
N218 C222 1.383 . S
C219 N218 1.376 . S
C219 C220 1.446 . S
C219 C249 1.391 . S
C220 C219 1.446 . S
C220 C221 1.339 . S
C220 H255 0.949 . S
C221 C220 1.339 . S
C221 C222 1.439 . S
C221 H256 0.950 . S
C222 N218 1.383 . S
C222 C221 1.439 . S
C222 C251 1.392 . S
N223 Co217 2.008 . S
N223 C224 1.376 . S
N223 C227 1.374 . S
C224 N223 1.376 . S
C224 C225 1.443 . S
C224 C251 1.389 . S
C225 C224 1.443 . S
C225 C226 1.340 . S
C225 H257 0.951 . S
C226 C225 1.340 . S
C226 C227 1.439 . S
C226 H258 0.950 . S
C227 N223 1.374 . S
C227 C226 1.439 . S
C227 C252 1.395 . S
N228 Co217 1.995 . S
N228 C229 1.376 . S
N228 C232 1.383 . S
C229 N228 1.376 . S
C229 C230 1.446 . S
C229 C252 1.391 . S
C230 C229 1.446 . S
C230 C231 1.339 . S
C230 H259 0.949 . S
C231 C230 1.339 . S
C231 C232 1.439 . S
C231 H260 0.950 . S
C232 N228 1.383 . S
C232 C231 1.439 . S
C232 C250 1.392 . S
N233 Co217 2.282 . S
N233 C236 1.332 . S
N233 C238 1.332 . S
C234 C235 1.386 . S
C234 C237 1.388 . S
C235 C234 1.386 . S
C235 C236 1.382 . S
C235 H261 0.950 . S
C236 N233 1.332 . S
C236 C235 1.382 . S
C236 H247 0.952 . S
C237 C234 1.388 . S
C237 C238 1.382 . S
C237 H262 0.950 . S
C238 N233 1.332 . S
C238 C237 1.382 . S
C238 H248 0.948 . S
N239 Co217 2.282 . S
N239 C243 1.332 . S
N239 C244 1.332 . S
C240 C241 1.388 . S
C240 C244 1.382 . S
C240 H263 0.950 . S
C241 C240 1.388 . S
C241 C242 1.386 . S
C242 C241 1.386 . S
C242 C243 1.382 . S
C242 H264 0.950 . S
C243 N239 1.332 . S
C243 C242 1.382 . S
C243 H245 0.952 . S
C244 N239 1.332 . S
C244 C240 1.382 . S
C244 H246 0.948 . S
H245 C243 0.952 . S
H246 C244 0.948 . S
H247 C236 0.952 . S
H248 C238 0.948 . S
C249 C215 1.395 . S
C249 C219 1.391 . S
C250 C212 1.389 . S
C250 C232 1.392 . S
C251 C222 1.392 . S
C251 C224 1.389 . S
C252 C227 1.395 . S
C252 C229 1.391 . S
H253 C213 0.951 . S
H254 C214 0.950 . S
H255 C220 0.949 . S
H256 C221 0.950 . S
H257 C225 0.951 . S
H258 C226 0.950 . S
H259 C230 0.949 . S
H260 C231 0.950 . S
H261 C235 0.950 . S
H262 C237 0.950 . S
H263 C240 0.950 . S
H264 C242 0.950 . S
C265 C266 1.443 . S
C265 N269 1.376 . S
C265 C303 1.389 . S
C266 C265 1.443 . S
C266 C267 1.340 . S
C266 H306 0.951 . S
C267 C266 1.340 . S
C267 C268 1.439 . S
C267 H307 0.950 . S
C268 C267 1.439 . S
C268 N269 1.374 . S
C268 C302 1.395 . S
N269 C265 1.376 . S
N269 C268 1.374 . S
N269 Co270 2.008 . S
Co270 N269 2.008 . S
Co270 N271 1.995 1_556 S
Co270 N276 2.008 1_556 S
Co270 N281 1.995 . S
Co270 N286 2.282 . S
Co270 N292 2.282 1_556 S
N271 Co270 1.995 1_554 S
N271 C272 1.376 . S
N271 C275 1.383 . S
C272 N271 1.376 . S
C272 C273 1.446 . S
C272 C302 1.391 1_554 S
C273 C272 1.446 . S
C273 C274 1.339 . S
C273 H308 0.949 . S
C274 C273 1.339 . S
C274 C275 1.439 . S
C274 H309 0.950 . S
C275 N271 1.383 . S
C275 C274 1.439 . S
C275 C304 1.392 . S
N276 Co270 2.008 1_554 S
N276 C277 1.376 . S
N276 C280 1.374 . S
C277 N276 1.376 . S
C277 C278 1.443 . S
C277 C304 1.389 . S
C278 C277 1.443 . S
C278 C279 1.340 . S
C278 H310 0.951 . S
C279 C278 1.340 . S
C279 C280 1.439 . S
C279 H311 0.950 . S
C280 N276 1.374 . S
C280 C279 1.439 . S
C280 C305 1.395 . S
N281 Co270 1.995 . S
N281 C282 1.376 . S
N281 C285 1.383 . S
C282 N281 1.376 . S
C282 C283 1.446 . S
C282 C305 1.391 1_556 S
C283 C282 1.446 . S
C283 C284 1.339 . S
C283 H312 0.949 . S
C284 C283 1.339 . S
C284 C285 1.439 . S
C284 H313 0.950 . S
C285 N281 1.383 . S
C285 C284 1.439 . S
C285 C303 1.392 . S
N286 Co270 2.282 . S
N286 C289 1.332 1_556 S
N286 C291 1.332 . S
C287 C288 1.386 . S
C287 C290 1.388 1_554 S
C288 C287 1.386 . S
C288 C289 1.382 . S
C288 H314 0.950 . S
C289 N286 1.332 1_554 S
C289 C288 1.382 . S
C289 H300 0.952 . S
C290 C287 1.388 1_556 S
C290 C291 1.382 . S
C290 H315 0.950 . S
C291 N286 1.332 . S
C291 C290 1.382 . S
C291 H301 0.948 . S
N292 Co270 2.282 1_554 S
N292 C296 1.332 1_554 S
N292 C297 1.332 . S
C293 C294 1.388 1_554 S
C293 C297 1.382 . S
C293 H316 0.950 . S
C294 C293 1.388 1_556 S
C294 C295 1.386 . S
C295 C294 1.386 . S
C295 C296 1.382 . S
C295 H317 0.950 . S
C296 N292 1.332 1_556 S
C296 C295 1.382 . S
C296 H298 0.952 . S
C297 N292 1.332 . S
C297 C293 1.382 . S
C297 H299 0.948 . S
H298 C296 0.952 . S
H299 C297 0.948 . S
H300 C289 0.952 . S
H301 C291 0.948 . S
C302 C268 1.395 . S
C302 C272 1.391 1_556 S
C303 C265 1.389 . S
C303 C285 1.392 . S
C304 C275 1.392 . S
C304 C277 1.389 . S
C305 C280 1.395 . S
C305 C282 1.391 1_554 S
H306 C266 0.951 . S
H307 C267 0.950 . S
H308 C273 0.949 . S
H309 C274 0.950 . S
H310 C278 0.951 . S
H311 C279 0.950 . S
H312 C283 0.949 . S
H313 C284 0.950 . S
H314 C288 0.950 . S
H315 C290 0.950 . S
H316 C293 0.950 . S
H317 C295 0.950 . S
C318 C319 1.443 . S
C318 N322 1.376 . S
C318 C356 1.389 . S
C319 C318 1.443 . S
C319 C320 1.340 . S
C319 H359 0.951 . S
C320 C319 1.340 . S
C320 C321 1.439 . S
C320 H360 0.950 . S
C321 C320 1.439 . S
C321 N322 1.374 . S
C321 C355 1.395 . S
N322 C318 1.376 . S
N322 C321 1.374 . S
N322 Co323 2.008 . S
Co323 N322 2.008 . S
Co323 N324 1.995 . S
Co323 N329 2.008 . S
Co323 N334 1.995 . S
Co323 N339 2.282 . S
Co323 N345 2.282 . S
N324 Co323 1.995 . S
N324 C325 1.376 . S
N324 C328 1.383 . S
C325 N324 1.376 . S
C325 C326 1.446 . S
C325 C355 1.391 . S
C326 C325 1.446 . S
C326 C327 1.339 . S
C326 H361 0.949 . S
C327 C326 1.339 . S
C327 C328 1.439 . S
C327 H362 0.950 . S
C328 N324 1.383 . S
C328 C327 1.439 . S
C328 C357 1.392 . S
N329 Co323 2.008 . S
N329 C330 1.376 . S
N329 C333 1.374 . S
C330 N329 1.376 . S
C330 C331 1.443 . S
C330 C357 1.389 . S
C331 C330 1.443 . S
C331 C332 1.340 . S
C331 H363 0.951 . S
C332 C331 1.340 . S
C332 C333 1.439 . S
C332 H364 0.950 . S
C333 N329 1.374 . S
C333 C332 1.439 . S
C333 C358 1.395 . S
N334 Co323 1.995 . S
N334 C335 1.376 . S
N334 C338 1.383 . S
C335 N334 1.376 . S
C335 C336 1.446 . S
C335 C358 1.391 . S
C336 C335 1.446 . S
C336 C337 1.339 . S
C336 H365 0.949 . S
C337 C336 1.339 . S
C337 C338 1.439 . S
C337 H366 0.950 . S
C338 N334 1.383 . S
C338 C337 1.439 . S
C338 C356 1.392 . S
N339 Co323 2.282 . S
N339 C342 1.332 . S
N339 C344 1.332 . S
C340 C341 1.386 . S
C340 C343 1.388 . S
C341 C340 1.386 . S
C341 C342 1.382 . S
C341 H367 0.950 . S
C342 N339 1.332 . S
C342 C341 1.382 . S
C342 H353 0.952 . S
C343 C340 1.388 . S
C343 C344 1.382 . S
C343 H368 0.950 . S
C344 N339 1.332 . S
C344 C343 1.382 . S
C344 H354 0.948 . S
N345 Co323 2.282 . S
N345 C349 1.332 . S
N345 C350 1.332 . S
C346 C347 1.388 . S
C346 C350 1.382 . S
C346 H369 0.950 . S
C347 C346 1.388 . S
C347 C348 1.386 . S
C348 C347 1.386 . S
C348 C349 1.382 . S
C348 H370 0.950 . S
C349 N345 1.332 . S
C349 C348 1.382 . S
C349 H351 0.952 . S
C350 N345 1.332 . S
C350 C346 1.382 . S
C350 H352 0.948 . S
H351 C349 0.952 . S
H352 C350 0.948 . S
H353 C342 0.952 . S
H354 C344 0.948 . S
C355 C321 1.395 . S
C355 C325 1.391 . S
C356 C318 1.389 . S
C356 C338 1.392 . S
C357 C328 1.392 . S
C357 C330 1.389 . S
C358 C333 1.395 . S
C358 C335 1.391 . S
H359 C319 0.951 . S
H360 C320 0.950 . S
H361 C326 0.949 . S
H362 C327 0.950 . S
H363 C331 0.951 . S
H364 C332 0.950 . S
H365 C336 0.949 . S
H366 C337 0.950 . S
H367 C341 0.950 . S
H368 C343 0.950 . S
H369 C346 0.950 . S
H370 C348 0.950 . S
C371 C372 1.443 . S
C371 N375 1.376 . S
C371 C409 1.389 . S
C372 C371 1.443 . S
C372 C373 1.340 . S
C372 H412 0.951 . S
C373 C372 1.340 . S
C373 C374 1.439 . S
C373 H413 0.950 . S
C374 C373 1.439 . S
C374 N375 1.374 . S
C374 C408 1.395 . S
N375 C371 1.376 . S
N375 C374 1.374 . S
N375 Co376 2.008 . S
Co376 N375 2.008 . S
Co376 N377 1.995 . S
Co376 N382 2.008 . S
Co376 N387 1.995 . S
Co376 N392 2.282 . S
Co376 N398 2.282 . S
N377 Co376 1.995 . S
N377 C378 1.376 . S
N377 C381 1.383 . S
C378 N377 1.376 . S
C378 C379 1.446 . S
C378 C408 1.391 . S
C379 C378 1.446 . S
C379 C380 1.339 . S
C379 H414 0.949 . S
C380 C379 1.339 . S
C380 C381 1.439 . S
C380 H415 0.950 . S
C381 N377 1.383 . S
C381 C380 1.439 . S
C381 C410 1.392 . S
N382 Co376 2.008 . S
N382 C383 1.376 . S
N382 C386 1.374 . S
C383 N382 1.376 . S
C383 C384 1.443 . S
C383 C410 1.389 . S
C384 C383 1.443 . S
C384 C385 1.340 . S
C384 H416 0.951 . S
C385 C384 1.340 . S
C385 C386 1.439 . S
C385 H417 0.950 . S
C386 N382 1.374 . S
C386 C385 1.439 . S
C386 C411 1.395 . S
N387 Co376 1.995 . S
N387 C388 1.376 . S
N387 C391 1.383 . S
C388 N387 1.376 . S
C388 C389 1.446 . S
C388 C411 1.391 . S
C389 C388 1.446 . S
C389 C390 1.339 . S
C389 H418 0.949 . S
C390 C389 1.339 . S
C390 C391 1.439 . S
C390 H419 0.950 . S
C391 N387 1.383 . S
C391 C390 1.439 . S
C391 C409 1.392 . S
N392 Co376 2.282 . S
N392 C395 1.332 . S
N392 C397 1.332 . S
C393 C394 1.386 . S
C393 C396 1.388 . S
C394 C393 1.386 . S
C394 C395 1.382 . S
C394 H420 0.950 . S
C395 N392 1.332 . S
C395 C394 1.382 . S
C395 H406 0.952 . S
C396 C393 1.388 . S
C396 C397 1.382 . S
C396 H421 0.950 . S
C397 N392 1.332 . S
C397 C396 1.382 . S
C397 H407 0.948 . S
N398 Co376 2.282 . S
N398 C402 1.332 . S
N398 C403 1.332 . S
C399 C400 1.388 . S
C399 C403 1.382 . S
C399 H422 0.950 . S
C400 C399 1.388 . S
C400 C401 1.386 . S
C401 C400 1.386 . S
C401 C402 1.382 . S
C401 H423 0.950 . S
C402 N398 1.332 . S
C402 C401 1.382 . S
C402 H404 0.952 . S
C403 N398 1.332 . S
C403 C399 1.382 . S
C403 H405 0.948 . S
H404 C402 0.952 . S
H405 C403 0.948 . S
H406 C395 0.952 . S
H407 C397 0.948 . S
C408 C374 1.395 . S
C408 C378 1.391 . S
C409 C371 1.389 . S
C409 C391 1.392 . S
C410 C381 1.392 . S
C410 C383 1.389 . S
C411 C386 1.395 . S
C411 C388 1.391 . S
H412 C372 0.951 . S
H413 C373 0.950 . S
H414 C379 0.949 . S
H415 C380 0.950 . S
H416 C384 0.951 . S
H417 C385 0.950 . S
H418 C389 0.949 . S
H419 C390 0.950 . S
H420 C394 0.950 . S
H421 C396 0.950 . S
H422 C399 0.950 . S
H423 C401 0.950 . S
C424 C425 1.443 . S
C424 N428 1.376 . S
C424 C462 1.389 . S
C425 C424 1.443 . S
C425 C426 1.340 . S
C425 H465 0.951 . S
C426 C425 1.340 . S
C426 C427 1.439 . S
C426 H466 0.950 . S
C427 C426 1.439 . S
C427 N428 1.374 . S
C427 C461 1.395 . S
N428 C424 1.376 . S
N428 C427 1.374 . S
N428 Co429 2.008 . S
Co429 N428 2.008 . S
Co429 N430 1.995 1_554 S
Co429 N435 2.008 1_554 S
Co429 N440 1.995 . S
Co429 N445 2.282 . S
Co429 N451 2.282 1_554 S
N430 Co429 1.995 1_556 S
N430 C431 1.376 . S
N430 C434 1.383 . S
C431 N430 1.376 . S
C431 C432 1.446 . S
C431 C461 1.391 1_556 S
C432 C431 1.446 . S
C432 C433 1.339 . S
C432 H467 0.949 . S
C433 C432 1.339 . S
C433 C434 1.439 . S
C433 H468 0.950 . S
C434 N430 1.383 . S
C434 C433 1.439 . S
C434 C463 1.392 . S
N435 Co429 2.008 1_556 S
N435 C436 1.376 . S
N435 C439 1.374 . S
C436 N435 1.376 . S
C436 C437 1.443 . S
C436 C463 1.389 . S
C437 C436 1.443 . S
C437 C438 1.340 . S
C437 H469 0.951 . S
C438 C437 1.340 . S
C438 C439 1.439 . S
C438 H470 0.950 . S
C439 N435 1.374 . S
C439 C438 1.439 . S
C439 C464 1.395 . S
N440 Co429 1.995 . S
N440 C441 1.376 . S
N440 C444 1.383 . S
C441 N440 1.376 . S
C441 C442 1.446 . S
C441 C464 1.391 1_554 S
C442 C441 1.446 . S
C442 C443 1.339 . S
C442 H471 0.949 . S
C443 C442 1.339 . S
C443 C444 1.439 . S
C443 H472 0.950 . S
C444 N440 1.383 . S
C444 C443 1.439 . S
C444 C462 1.392 . S
N445 Co429 2.282 . S
N445 C448 1.332 1_554 S
N445 C450 1.332 . S
C446 C447 1.386 . S
C446 C449 1.388 1_556 S
C447 C446 1.386 . S
C447 C448 1.382 . S
C447 H473 0.950 . S
C448 N445 1.332 1_556 S
C448 C447 1.382 . S
C448 H459 0.952 . S
C449 C446 1.388 1_554 S
C449 C450 1.382 . S
C449 H474 0.950 . S
C450 N445 1.332 . S
C450 C449 1.382 . S
C450 H460 0.948 . S
N451 Co429 2.282 1_556 S
N451 C455 1.332 1_556 S
N451 C456 1.332 . S
C452 C453 1.388 1_556 S
C452 C456 1.382 . S
C452 H475 0.950 . S
C453 C452 1.388 1_554 S
C453 C454 1.386 . S
C454 C453 1.386 . S
C454 C455 1.382 . S
C454 H476 0.950 . S
C455 N451 1.332 1_554 S
C455 C454 1.382 . S
C455 H457 0.952 . S
C456 N451 1.332 . S
C456 C452 1.382 . S
C456 H458 0.948 . S
H457 C455 0.952 . S
H458 C456 0.948 . S
H459 C448 0.952 . S
H460 C450 0.948 . S
C461 C427 1.395 . S
C461 C431 1.391 1_554 S
C462 C424 1.389 . S
C462 C444 1.392 . S
C463 C434 1.392 . S
C463 C436 1.389 . S
C464 C439 1.395 . S
C464 C441 1.391 1_556 S
H465 C425 0.951 . S
H466 C426 0.950 . S
H467 C432 0.949 . S
H468 C433 0.950 . S
H469 C437 0.951 . S
H470 C438 0.950 . S
H471 C442 0.949 . S
H472 C443 0.950 . S
H473 C447 0.950 . S
H474 C449 0.950 . S
H475 C452 0.950 . S
H476 C454 0.950 . S
C477 C478 1.443 . S
C477 N481 1.376 . S
C477 C515 1.389 . S
C478 C477 1.443 . S
C478 C479 1.340 . S
C478 H518 0.951 . S
C479 C478 1.340 . S
C479 C480 1.439 . S
C479 H519 0.950 . S
C480 C479 1.439 . S
C480 N481 1.374 . S
C480 C514 1.395 . S
N481 C477 1.376 . S
N481 C480 1.374 . S
N481 Co482 2.008 . S
Co482 N481 2.008 . S
Co482 N483 1.995 . S
Co482 N488 2.008 . S
Co482 N493 1.995 . S
Co482 N498 2.282 . S
Co482 N504 2.282 . S
N483 Co482 1.995 . S
N483 C484 1.376 . S
N483 C487 1.383 . S
C484 N483 1.376 . S
C484 C485 1.446 . S
C484 C514 1.391 . S
C485 C484 1.446 . S
C485 C486 1.339 . S
C485 H520 0.949 . S
C486 C485 1.339 . S
C486 C487 1.439 . S
C486 H521 0.950 . S
C487 N483 1.383 . S
C487 C486 1.439 . S
C487 C516 1.392 . S
N488 Co482 2.008 . S
N488 C489 1.376 . S
N488 C492 1.374 . S
C489 N488 1.376 . S
C489 C490 1.443 . S
C489 C516 1.389 . S
C490 C489 1.443 . S
C490 C491 1.340 . S
C490 H522 0.951 . S
C491 C490 1.340 . S
C491 C492 1.439 . S
C491 H523 0.950 . S
C492 N488 1.374 . S
C492 C491 1.439 . S
C492 C517 1.395 . S
N493 Co482 1.995 . S
N493 C494 1.376 . S
N493 C497 1.383 . S
C494 N493 1.376 . S
C494 C495 1.446 . S
C494 C517 1.391 . S
C495 C494 1.446 . S
C495 C496 1.339 . S
C495 H524 0.949 . S
C496 C495 1.339 . S
C496 C497 1.439 . S
C496 H525 0.950 . S
C497 N493 1.383 . S
C497 C496 1.439 . S
C497 C515 1.392 . S
N498 Co482 2.282 . S
N498 C501 1.332 . S
N498 C503 1.332 . S
C499 C500 1.386 . S
C499 C502 1.388 . S
C500 C499 1.386 . S
C500 C501 1.382 . S
C500 H526 0.950 . S
C501 N498 1.332 . S
C501 C500 1.382 . S
C501 H512 0.952 . S
C502 C499 1.388 . S
C502 C503 1.382 . S
C502 H527 0.950 . S
C503 N498 1.332 . S
C503 C502 1.382 . S
C503 H513 0.948 . S
N504 Co482 2.282 . S
N504 C508 1.332 . S
N504 C509 1.332 . S
C505 C506 1.388 . S
C505 C509 1.382 . S
C505 H528 0.950 . S
C506 C505 1.388 . S
C506 C507 1.386 . S
C507 C506 1.386 . S
C507 C508 1.382 . S
C507 H529 0.950 . S
C508 N504 1.332 . S
C508 C507 1.382 . S
C508 H510 0.952 . S
C509 N504 1.332 . S
C509 C505 1.382 . S
C509 H511 0.948 . S
H510 C508 0.952 . S
H511 C509 0.948 . S
H512 C501 0.952 . S
H513 C503 0.948 . S
C514 C480 1.395 . S
C514 C484 1.391 . S
C515 C477 1.389 . S
C515 C497 1.392 . S
C516 C487 1.392 . S
C516 C489 1.389 . S
C517 C492 1.395 . S
C517 C494 1.391 . S
H518 C478 0.951 . S
H519 C479 0.950 . S
H520 C485 0.949 . S
H521 C486 0.950 . S
H522 C490 0.951 . S
H523 C491 0.950 . S
H524 C495 0.949 . S
H525 C496 0.950 . S
H526 C500 0.950 . S
H527 C502 0.950 . S
H528 C505 0.950 . S
H529 C507 0.950 . S
C530 C531 1.443 . S
C530 N534 1.376 . S
C530 C568 1.389 . S
C531 C530 1.443 . S
C531 C532 1.340 . S
C531 H571 0.951 . S
C532 C531 1.340 . S
C532 C533 1.439 . S
C532 H572 0.950 . S
C533 C532 1.439 . S
C533 N534 1.374 . S
C533 C567 1.395 . S
N534 C530 1.376 . S
N534 C533 1.374 . S
N534 Co535 2.008 . S
Co535 N534 2.008 . S
Co535 N536 1.995 . S
Co535 N541 2.008 . S
Co535 N546 1.995 . S
Co535 N551 2.282 . S
Co535 N557 2.282 . S
N536 Co535 1.995 . S
N536 C537 1.376 . S
N536 C540 1.383 . S
C537 N536 1.376 . S
C537 C538 1.446 . S
C537 C567 1.391 . S
C538 C537 1.446 . S
C538 C539 1.339 . S
C538 H573 0.949 . S
C539 C538 1.339 . S
C539 C540 1.439 . S
C539 H574 0.950 . S
C540 N536 1.383 . S
C540 C539 1.439 . S
C540 C569 1.392 . S
N541 Co535 2.008 . S
N541 C542 1.376 . S
N541 C545 1.374 . S
C542 N541 1.376 . S
C542 C543 1.443 . S
C542 C569 1.389 . S
C543 C542 1.443 . S
C543 C544 1.340 . S
C543 H575 0.951 . S
C544 C543 1.340 . S
C544 C545 1.439 . S
C544 H576 0.950 . S
C545 N541 1.374 . S
C545 C544 1.439 . S
C545 C570 1.395 . S
N546 Co535 1.995 . S
N546 C547 1.376 . S
N546 C550 1.383 . S
C547 N546 1.376 . S
C547 C548 1.446 . S
C547 C570 1.391 . S
C548 C547 1.446 . S
C548 C549 1.339 . S
C548 H577 0.949 . S
C549 C548 1.339 . S
C549 C550 1.439 . S
C549 H578 0.950 . S
C550 N546 1.383 . S
C550 C549 1.439 . S
C550 C568 1.392 . S
N551 Co535 2.282 . S
N551 C554 1.332 . S
N551 C556 1.332 . S
C552 C553 1.386 . S
C552 C555 1.388 . S
C553 C552 1.386 . S
C553 C554 1.382 . S
C553 H579 0.950 . S
C554 N551 1.332 . S
C554 C553 1.382 . S
C554 H565 0.952 . S
C555 C552 1.388 . S
C555 C556 1.382 . S
C555 H580 0.950 . S
C556 N551 1.332 . S
C556 C555 1.382 . S
C556 H566 0.948 . S
N557 Co535 2.282 . S
N557 C561 1.332 . S
N557 C562 1.332 . S
C558 C559 1.388 . S
C558 C562 1.382 . S
C558 H581 0.950 . S
C559 C558 1.388 . S
C559 C560 1.386 . S
C560 C559 1.386 . S
C560 C561 1.382 . S
C560 H582 0.950 . S
C561 N557 1.332 . S
C561 C560 1.382 . S
C561 H563 0.952 . S
C562 N557 1.332 . S
C562 C558 1.382 . S
C562 H564 0.948 . S
H563 C561 0.952 . S
H564 C562 0.948 . S
H565 C554 0.952 . S
H566 C556 0.948 . S
C567 C533 1.395 . S
C567 C537 1.391 . S
C568 C530 1.389 . S
C568 C550 1.392 . S
C569 C540 1.392 . S
C569 C542 1.389 . S
C570 C545 1.395 . S
C570 C547 1.391 . S
H571 C531 0.951 . S
H572 C532 0.950 . S
H573 C538 0.949 . S
H574 C539 0.950 . S
H575 C543 0.951 . S
H576 C544 0.950 . S
H577 C548 0.949 . S
H578 C549 0.950 . S
H579 C553 0.950 . S
H580 C555 0.950 . S
H581 C558 0.950 . S
H582 C560 0.950 . S
C583 C584 1.443 . S
C583 N587 1.376 . S
C583 C621 1.389 . S
C584 C583 1.443 . S
C584 C585 1.340 . S
C584 H624 0.951 . S
C585 C584 1.340 . S
C585 C586 1.439 . S
C585 H625 0.950 . S
C586 C585 1.439 . S
C586 N587 1.374 . S
C586 C620 1.395 . S
N587 C583 1.376 . S
N587 C586 1.374 . S
N587 Co588 2.008 . S
Co588 N587 2.008 . S
Co588 N589 1.995 1_554 S
Co588 N594 2.008 1_554 S
Co588 N599 1.995 . S
Co588 N604 2.282 . S
Co588 N610 2.282 1_554 S
N589 Co588 1.995 1_556 S
N589 C590 1.376 . S
N589 C593 1.383 . S
C590 N589 1.376 . S
C590 C591 1.446 . S
C590 C620 1.391 1_556 S
C591 C590 1.446 . S
C591 C592 1.339 . S
C591 H626 0.949 . S
C592 C591 1.339 . S
C592 C593 1.439 . S
C592 H627 0.950 . S
C593 N589 1.383 . S
C593 C592 1.439 . S
C593 C622 1.392 . S
N594 Co588 2.008 1_556 S
N594 C595 1.376 . S
N594 C598 1.374 . S
C595 N594 1.376 . S
C595 C596 1.443 . S
C595 C622 1.389 . S
C596 C595 1.443 . S
C596 C597 1.340 . S
C596 H628 0.951 . S
C597 C596 1.340 . S
C597 C598 1.439 . S
C597 H629 0.950 . S
C598 N594 1.374 . S
C598 C597 1.439 . S
C598 C623 1.395 . S
N599 Co588 1.995 . S
N599 C600 1.376 . S
N599 C603 1.383 . S
C600 N599 1.376 . S
C600 C601 1.446 . S
C600 C623 1.391 1_554 S
C601 C600 1.446 . S
C601 C602 1.339 . S
C601 H630 0.949 . S
C602 C601 1.339 . S
C602 C603 1.439 . S
C602 H631 0.950 . S
C603 N599 1.383 . S
C603 C602 1.439 . S
C603 C621 1.392 . S
N604 Co588 2.282 . S
N604 C607 1.332 1_554 S
N604 C609 1.332 . S
C605 C606 1.386 . S
C605 C608 1.388 1_556 S
C606 C605 1.386 . S
C606 C607 1.382 . S
C606 H632 0.950 . S
C607 N604 1.332 1_556 S
C607 C606 1.382 . S
C607 H618 0.952 . S
C608 C605 1.388 1_554 S
C608 C609 1.382 . S
C608 H633 0.950 . S
C609 N604 1.332 . S
C609 C608 1.382 . S
C609 H619 0.948 . S
N610 Co588 2.282 1_556 S
N610 C614 1.332 1_556 S
N610 C615 1.332 . S
C611 C612 1.388 1_556 S
C611 C615 1.382 . S
C611 H634 0.950 . S
C612 C611 1.388 1_554 S
C612 C613 1.386 . S
C613 C612 1.386 . S
C613 C614 1.382 . S
C613 H635 0.950 . S
C614 N610 1.332 1_554 S
C614 C613 1.382 . S
C614 H616 0.952 . S
C615 N610 1.332 . S
C615 C611 1.382 . S
C615 H617 0.948 . S
H616 C614 0.952 . S
H617 C615 0.948 . S
H618 C607 0.952 . S
H619 C609 0.948 . S
C620 C586 1.395 . S
C620 C590 1.391 1_554 S
C621 C583 1.389 . S
C621 C603 1.392 . S
C622 C593 1.392 . S
C622 C595 1.389 . S
C623 C598 1.395 . S
C623 C600 1.391 1_556 S
H624 C584 0.951 . S
H625 C585 0.950 . S
H626 C591 0.949 . S
H627 C592 0.950 . S
H628 C596 0.951 . S
H629 C597 0.950 . S
H630 C601 0.949 . S
H631 C602 0.950 . S
H632 C606 0.950 . S
H633 C608 0.950 . S
H634 C611 0.950 . S
H635 C613 0.950 . S
H636 C644 0.929 . S
H637 C646 0.930 . S
H638 C648 0.930 . S
H639 C651 0.929 . S
H640 C654 0.930 . S
H641 C656 0.960 . S
H642 C656 0.960 . S
H643 C656 0.960 . S
C644 H636 0.929 . S
C644 C645 1.377 . S
C644 C646 1.384 . S
C645 C644 1.377 . S
C645 C651 1.390 . S
C646 H637 0.930 . S
C646 C644 1.384 . S
C646 C647 1.372 . S
C647 C646 1.372 . S
C647 C648 1.400 . S
C647 C652 1.490 . S
C648 H638 0.930 . S
C648 C647 1.400 . S
C648 C651 1.386 . S
H649 C665 0.930 . S
H650 C666 0.931 . S
C651 H639 0.929 . S
C651 C645 1.390 . S
C651 C648 1.386 . S
C652 C647 1.490 . S
C652 C654 1.395 . S
C652 C655 1.403 . S
H653 C659 0.930 . S
C654 H640 0.930 . S
C654 C652 1.395 . S
C654 C657 1.403 . S
C655 C652 1.403 . S
C655 C656 1.524 . S
C655 C659 1.400 . S
C656 H641 0.960 . S
C656 H642 0.960 . S
C656 H643 0.960 . S
C656 C655 1.524 . S
C657 C654 1.403 . S
C657 C658 1.392 . S
C657 C661 1.495 . S
C658 C657 1.392 . S
C658 C659 1.385 . S
C658 C660 1.478 . S
C659 H653 0.930 . S
C659 C655 1.400 . S
C659 C658 1.385 . S
C660 C658 1.478 . S
C660 C662 1.381 . S
C660 C666 1.383 . S
C661 C657 1.495 . S
C661 H667 0.959 . S
C661 H668 0.961 . S
C661 H669 0.960 . S
C662 C660 1.381 . S
C662 C663 1.394 . S
C662 H670 0.930 . S
C663 C662 1.394 . S
C663 C664 1.383 . S
C663 H671 0.929 . S
C664 C663 1.383 . S
C664 C665 1.377 . S
C665 H649 0.930 . S
C665 C664 1.377 . S
C665 C666 1.379 . S
C666 H650 0.931 . S
C666 C660 1.383 . S
C666 C665 1.379 . S
H667 C661 0.959 . S
H668 C661 0.961 . S
H669 C661 0.960 . S
H670 C662 0.930 . S
H671 C663 0.929 . S
H672 C680 0.929 . S
H673 C682 0.930 . S
H674 C684 0.930 . S
H675 C687 0.929 . S
H676 C690 0.930 . S
H677 C692 0.960 . S
H678 C692 0.960 . S
H679 C692 0.960 . S
C680 H672 0.929 . S
C680 C681 1.377 . S
C680 C682 1.384 . S
C681 C680 1.377 . S
C681 C687 1.390 . S
C682 H673 0.930 . S
C682 C680 1.384 . S
C682 C683 1.372 . S
C683 C682 1.372 . S
C683 C684 1.400 . S
C683 C688 1.490 . S
C684 H674 0.930 . S
C684 C683 1.400 . S
C684 C687 1.386 . S
H685 C701 0.930 . S
H686 C702 0.931 . S
C687 H675 0.929 . S
C687 C681 1.390 . S
C687 C684 1.386 . S
C688 C683 1.490 . S
C688 C690 1.395 . S
C688 C691 1.403 . S
H689 C695 0.930 . S
C690 H676 0.930 . S
C690 C688 1.395 . S
C690 C693 1.403 . S
C691 C688 1.403 . S
C691 C692 1.524 . S
C691 C695 1.400 . S
C692 H677 0.960 . S
C692 H678 0.960 . S
C692 H679 0.960 . S
C692 C691 1.524 . S
C693 C690 1.403 . S
C693 C694 1.392 . S
C693 C697 1.495 . S
C694 C693 1.392 . S
C694 C695 1.385 . S
C694 C696 1.478 . S
C695 H689 0.930 . S
C695 C691 1.400 . S
C695 C694 1.385 . S
C696 C694 1.478 . S
C696 C698 1.381 . S
C696 C702 1.383 . S
C697 C693 1.495 . S
C697 H703 0.959 . S
C697 H704 0.961 . S
C697 H705 0.960 . S
C698 C696 1.381 . S
C698 C699 1.394 . S
C698 H706 0.930 . S
C699 C698 1.394 . S
C699 C700 1.383 . S
C699 H707 0.929 . S
C700 C699 1.383 . S
C700 C701 1.377 . S
C701 H685 0.930 . S
C701 C700 1.377 . S
C701 C702 1.379 . S
C702 H686 0.931 . S
C702 C696 1.383 . S
C702 C701 1.379 . S
H703 C697 0.959 . S
H704 C697 0.961 . S
H705 C697 0.960 . S
H706 C698 0.930 . S
H707 C699 0.929 . S
H708 C716 0.929 . S
H709 C718 0.930 . S
H710 C720 0.930 . S
H711 C723 0.929 . S
H712 C726 0.930 . S
H713 C728 0.960 . S
H714 C728 0.960 . S
H715 C728 0.960 . S
C716 H708 0.929 . S
C716 C717 1.377 . S
C716 C718 1.384 . S
C717 C716 1.377 . S
C717 C723 1.390 . S
C718 H709 0.930 . S
C718 C716 1.384 . S
C718 C719 1.372 . S
C719 C718 1.372 . S
C719 C720 1.400 . S
C719 C724 1.490 . S
C720 H710 0.930 . S
C720 C719 1.400 . S
C720 C723 1.386 . S
H721 C737 0.930 . S
H722 C738 0.931 . S
C723 H711 0.929 . S
C723 C717 1.390 . S
C723 C720 1.386 . S
C724 C719 1.490 . S
C724 C726 1.395 . S
C724 C727 1.403 . S
H725 C731 0.930 . S
C726 H712 0.930 . S
C726 C724 1.395 . S
C726 C729 1.403 . S
C727 C724 1.403 . S
C727 C728 1.524 . S
C727 C731 1.400 . S
C728 H713 0.960 . S
C728 H714 0.960 . S
C728 H715 0.960 . S
C728 C727 1.524 . S
C729 C726 1.403 . S
C729 C730 1.392 . S
C729 C733 1.495 . S
C730 C729 1.392 . S
C730 C731 1.385 . S
C730 C732 1.478 . S
C731 H725 0.930 . S
C731 C727 1.400 . S
C731 C730 1.385 . S
C732 C730 1.478 . S
C732 C734 1.381 . S
C732 C738 1.383 . S
C733 C729 1.495 . S
C733 H739 0.959 . S
C733 H740 0.961 . S
C733 H741 0.960 . S
C734 C732 1.381 . S
C734 C735 1.394 . S
C734 H742 0.930 . S
C735 C734 1.394 . S
C735 C736 1.383 . S
C735 H743 0.929 . S
C736 C735 1.383 . S
C736 C737 1.377 . S
C737 H721 0.930 . S
C737 C736 1.377 . S
C737 C738 1.379 . S
C738 H722 0.931 . S
C738 C732 1.383 . S
C738 C737 1.379 . S
H739 C733 0.959 . S
H740 C733 0.961 . S
H741 C733 0.960 . S
H742 C734 0.930 . S
H743 C735 0.929 . S
H744 C752 0.929 . S
H745 C754 0.930 . S
H746 C756 0.930 . S
H747 C759 0.929 . S
H748 C762 0.930 . S
H749 C764 0.960 . S
H750 C764 0.960 . S
H751 C764 0.960 . S
C752 H744 0.929 . S
C752 C753 1.377 . S
C752 C754 1.384 . S
C753 C752 1.377 . S
C753 C759 1.390 . S
C754 H745 0.930 . S
C754 C752 1.384 . S
C754 C755 1.372 . S
C755 C754 1.372 . S
C755 C756 1.400 . S
C755 C760 1.490 . S
C756 H746 0.930 . S
C756 C755 1.400 . S
C756 C759 1.386 . S
H757 C773 0.930 . S
H758 C774 0.931 . S
C759 H747 0.929 . S
C759 C753 1.390 . S
C759 C756 1.386 . S
C760 C755 1.490 . S
C760 C762 1.395 . S
C760 C763 1.403 . S
H761 C767 0.930 . S
C762 H748 0.930 . S
C762 C760 1.395 . S
C762 C765 1.403 . S
C763 C760 1.403 . S
C763 C764 1.524 . S
C763 C767 1.400 . S
C764 H749 0.960 . S
C764 H750 0.960 . S
C764 H751 0.960 . S
C764 C763 1.524 . S
C765 C762 1.403 . S
C765 C766 1.392 . S
C765 C769 1.495 . S
C766 C765 1.392 . S
C766 C767 1.385 . S
C766 C768 1.478 . S
C767 H761 0.930 . S
C767 C763 1.400 . S
C767 C766 1.385 . S
C768 C766 1.478 . S
C768 C770 1.381 . S
C768 C774 1.383 . S
C769 C765 1.495 . S
C769 H775 0.959 . S
C769 H776 0.961 . S
C769 H777 0.960 . S
C770 C768 1.381 . S
C770 C771 1.394 . S
C770 H778 0.930 . S
C771 C770 1.394 . S
C771 C772 1.383 . S
C771 H779 0.929 . S
C772 C771 1.383 . S
C772 C773 1.377 . S
C773 H757 0.930 . S
C773 C772 1.377 . S
C773 C774 1.379 . S
C774 H758 0.931 . S
C774 C768 1.383 . S
C774 C773 1.379 . S
H775 C769 0.959 . S
H776 C769 0.961 . S
H777 C769 0.960 . S
H778 C770 0.930 . S
H779 C771 0.929 . S
H780 C788 0.929 . S
H781 C790 0.930 . S
H782 C792 0.930 . S
H783 C795 0.929 . S
H784 C798 0.930 . S
H785 C800 0.960 . S
H786 C800 0.960 . S
H787 C800 0.960 . S
C788 H780 0.929 . S
C788 C789 1.377 . S
C788 C790 1.384 . S
C789 C788 1.377 . S
C789 C795 1.390 . S
C790 H781 0.930 . S
C790 C788 1.384 . S
C790 C791 1.372 . S
C791 C790 1.372 . S
C791 C792 1.400 . S
C791 C796 1.490 . S
C792 H782 0.930 . S
C792 C791 1.400 . S
C792 C795 1.386 . S
H793 C809 0.930 . S
H794 C810 0.931 . S
C795 H783 0.929 . S
C795 C789 1.390 . S
C795 C792 1.386 . S
C796 C791 1.490 . S
C796 C798 1.395 . S
C796 C799 1.403 . S
H797 C803 0.930 . S
C798 H784 0.930 . S
C798 C796 1.395 . S
C798 C801 1.403 . S
C799 C796 1.403 . S
C799 C800 1.524 . S
C799 C803 1.400 . S
C800 H785 0.960 . S
C800 H786 0.960 . S
C800 H787 0.960 . S
C800 C799 1.524 . S
C801 C798 1.403 . S
C801 C802 1.392 . S
C801 C805 1.495 . S
C802 C801 1.392 . S
C802 C803 1.385 . S
C802 C804 1.478 . S
C803 H797 0.930 . S
C803 C799 1.400 . S
C803 C802 1.385 . S
C804 C802 1.478 . S
C804 C806 1.381 . S
C804 C810 1.383 . S
C805 C801 1.495 . S
C805 H811 0.959 . S
C805 H812 0.961 . S
C805 H813 0.960 . S
C806 C804 1.381 . S
C806 C807 1.394 . S
C806 H814 0.930 . S
C807 C806 1.394 . S
C807 C808 1.383 . S
C807 H815 0.929 . S
C808 C807 1.383 . S
C808 C809 1.377 . S
C809 H793 0.930 . S
C809 C808 1.377 . S
C809 C810 1.379 . S
C810 H794 0.931 . S
C810 C804 1.383 . S
C810 C809 1.379 . S
H811 C805 0.959 . S
H812 C805 0.961 . S
H813 C805 0.960 . S
H814 C806 0.930 . S
H815 C807 0.929 . S
H816 C824 0.929 . S
H817 C826 0.930 . S
H818 C828 0.930 . S
H819 C831 0.929 . S
H820 C834 0.930 . S
H821 C836 0.960 . S
H822 C836 0.960 . S
H823 C836 0.960 . S
C824 H816 0.929 . S
C824 C825 1.377 . S
C824 C826 1.384 . S
C825 C824 1.377 . S
C825 C831 1.390 . S
C826 H817 0.930 . S
C826 C824 1.384 . S
C826 C827 1.372 . S
C827 C826 1.372 . S
C827 C828 1.400 . S
C827 C832 1.490 . S
C828 H818 0.930 . S
C828 C827 1.400 . S
C828 C831 1.386 . S
H829 C845 0.930 . S
H830 C846 0.931 . S
C831 H819 0.929 . S
C831 C825 1.390 . S
C831 C828 1.386 . S
C832 C827 1.490 . S
C832 C834 1.395 . S
C832 C835 1.403 . S
H833 C839 0.930 . S
C834 H820 0.930 . S
C834 C832 1.395 . S
C834 C837 1.403 . S
C835 C832 1.403 . S
C835 C836 1.524 . S
C835 C839 1.400 . S
C836 H821 0.960 . S
C836 H822 0.960 . S
C836 H823 0.960 . S
C836 C835 1.524 . S
C837 C834 1.403 . S
C837 C838 1.392 . S
C837 C841 1.495 . S
C838 C837 1.392 . S
C838 C839 1.385 . S
C838 C840 1.478 . S
C839 H833 0.930 . S
C839 C835 1.400 . S
C839 C838 1.385 . S
C840 C838 1.478 . S
C840 C842 1.381 . S
C840 C846 1.383 . S
C841 C837 1.495 . S
C841 H847 0.959 . S
C841 H848 0.961 . S
C841 H849 0.960 . S
C842 C840 1.381 . S
C842 C843 1.394 . S
C842 H850 0.930 . S
C843 C842 1.394 . S
C843 C844 1.383 . S
C843 H851 0.929 . S
C844 C843 1.383 . S
C844 C845 1.377 . S
C845 H829 0.930 . S
C845 C844 1.377 . S
C845 C846 1.379 . S
C846 H830 0.931 . S
C846 C840 1.383 . S
C846 C845 1.379 . S
H847 C841 0.959 . S
H848 C841 0.961 . S
H849 C841 0.960 . S
H850 C842 0.930 . S
H851 C843 0.929 . S
H852 C860 0.929 . S
H853 C862 0.930 . S
H854 C864 0.930 . S
H855 C867 0.929 . S
H856 C870 0.930 . S
H857 C872 0.960 . S
H858 C872 0.960 . S
H859 C872 0.960 . S
C860 H852 0.929 . S
C860 C861 1.377 . S
C860 C862 1.384 . S
C861 C860 1.377 . S
C861 C867 1.390 . S
C862 H853 0.930 . S
C862 C860 1.384 . S
C862 C863 1.372 . S
C863 C862 1.372 . S
C863 C864 1.400 . S
C863 C868 1.490 . S
C864 H854 0.930 . S
C864 C863 1.400 . S
C864 C867 1.386 . S
H865 C881 0.930 . S
H866 C882 0.931 . S
C867 H855 0.929 . S
C867 C861 1.390 . S
C867 C864 1.386 . S
C868 C863 1.490 . S
C868 C870 1.395 . S
C868 C871 1.403 . S
H869 C875 0.930 . S
C870 H856 0.930 . S
C870 C868 1.395 . S
C870 C873 1.403 . S
C871 C868 1.403 . S
C871 C872 1.524 . S
C871 C875 1.400 . S
C872 H857 0.960 . S
C872 H858 0.960 . S
C872 H859 0.960 . S
C872 C871 1.524 . S
C873 C870 1.403 . S
C873 C874 1.392 . S
C873 C877 1.495 . S
C874 C873 1.392 . S
C874 C875 1.385 . S
C874 C876 1.478 . S
C875 H869 0.930 . S
C875 C871 1.400 . S
C875 C874 1.385 . S
C876 C874 1.478 . S
C876 C878 1.381 . S
C876 C882 1.383 . S
C877 C873 1.495 . S
C877 H883 0.959 . S
C877 H884 0.961 . S
C877 H885 0.960 . S
C878 C876 1.381 . S
C878 C879 1.394 . S
C878 H886 0.930 . S
C879 C878 1.394 . S
C879 C880 1.383 . S
C879 H887 0.929 . S
C880 C879 1.383 . S
C880 C881 1.377 . S
C881 H865 0.930 . S
C881 C880 1.377 . S
C881 C882 1.379 . S
C882 H866 0.931 . S
C882 C876 1.383 . S
C882 C881 1.379 . S
H883 C877 0.959 . S
H884 C877 0.961 . S
H885 C877 0.960 . S
H886 C878 0.930 . S
H887 C879 0.929 . S
H888 C896 0.929 . S
H889 C898 0.930 . S
H890 C900 0.930 . S
H891 C903 0.929 . S
H892 C906 0.930 . S
H893 C908 0.960 . S
H894 C908 0.960 . S
H895 C908 0.960 . S
C896 H888 0.929 . S
C896 C897 1.377 . S
C896 C898 1.384 . S
C897 C896 1.377 . S
C897 C903 1.390 . S
C898 H889 0.930 . S
C898 C896 1.384 . S
C898 C899 1.372 . S
C899 C898 1.372 . S
C899 C900 1.400 . S
C899 C904 1.490 . S
C900 H890 0.930 . S
C900 C899 1.400 . S
C900 C903 1.386 . S
H901 C917 0.930 . S
H902 C918 0.931 . S
C903 H891 0.929 . S
C903 C897 1.390 . S
C903 C900 1.386 . S
C904 C899 1.490 . S
C904 C906 1.395 . S
C904 C907 1.403 . S
H905 C911 0.930 . S
C906 H892 0.930 . S
C906 C904 1.395 . S
C906 C909 1.403 . S
C907 C904 1.403 . S
C907 C908 1.524 . S
C907 C911 1.400 . S
C908 H893 0.960 . S
C908 H894 0.960 . S
C908 H895 0.960 . S
C908 C907 1.524 . S
C909 C906 1.403 . S
C909 C910 1.392 . S
C909 C913 1.495 . S
C910 C909 1.392 . S
C910 C911 1.385 . S
C910 C912 1.478 . S
C911 H905 0.930 . S
C911 C907 1.400 . S
C911 C910 1.385 . S
C912 C910 1.478 . S
C912 C914 1.381 . S
C912 C918 1.383 . S
C913 C909 1.495 . S
C913 H919 0.959 . S
C913 H920 0.961 . S
C913 H921 0.960 . S
C914 C912 1.381 . S
C914 C915 1.394 . S
C914 H922 0.930 . S
C915 C914 1.394 . S
C915 C916 1.383 . S
C915 H923 0.929 . S
C916 C915 1.383 . S
C916 C917 1.377 . S
C917 H901 0.930 . S
C917 C916 1.377 . S
C917 C918 1.379 . S
C918 H902 0.931 . S
C918 C912 1.383 . S
C918 C917 1.379 . S
H919 C913 0.959 . S
H920 C913 0.961 . S
H921 C913 0.960 . S
H922 C914 0.930 . S
H923 C915 0.929 . S
H924 C932 0.929 . S
H925 C934 0.930 . S
H926 C936 0.930 . S
H927 C939 0.929 . S
H928 C942 0.930 . S
H929 C944 0.960 . S
H930 C944 0.960 . S
H931 C944 0.960 . S
C932 H924 0.929 . S
C932 C933 1.377 . S
C932 C934 1.384 . S
C933 C932 1.377 . S
C933 C939 1.390 1_554 S
C934 H925 0.930 . S
C934 C932 1.384 . S
C934 C935 1.372 . S
C935 C934 1.372 . S
C935 C936 1.400 1_554 S
C935 C940 1.490 . S
C936 H926 0.930 . S
C936 C935 1.400 1_556 S
C936 C939 1.386 . S
H937 C953 0.930 . S
H938 C954 0.931 . S
C939 H927 0.929 . S
C939 C933 1.390 1_556 S
C939 C936 1.386 . S
C940 C935 1.490 . S
C940 C942 1.395 1_554 S
C940 C943 1.403 . S
H941 C947 0.930 . S
C942 H928 0.930 . S
C942 C940 1.395 1_556 S
C942 C945 1.403 . S
C943 C940 1.403 . S
C943 C944 1.524 . S
C943 C947 1.400 . S
C944 H929 0.960 . S
C944 H930 0.960 . S
C944 H931 0.960 . S
C944 C943 1.524 . S
C945 C942 1.403 . S
C945 C946 1.392 . S
C945 C949 1.495 . S
C946 C945 1.392 . S
C946 C947 1.385 1_556 S
C946 C948 1.478 . S
C947 H941 0.930 . S
C947 C943 1.400 . S
C947 C946 1.385 1_554 S
C948 C946 1.478 . S
C948 C950 1.381 1_556 S
C948 C954 1.383 . S
C949 C945 1.495 . S
C949 H955 0.959 . S
C949 H956 0.961 . S
C949 H957 0.960 . S
C950 C948 1.381 1_554 S
C950 C951 1.394 . S
C950 H958 0.930 . S
C951 C950 1.394 . S
C951 C952 1.383 1_554 S
C951 H959 0.929 . S
C952 C951 1.383 1_556 S
C952 C953 1.377 . S
C953 H937 0.930 . S
C953 C952 1.377 . S
C953 C954 1.379 . S
C954 H938 0.931 . S
C954 C948 1.383 . S
C954 C953 1.379 . S
H955 C949 0.959 . S
H956 C949 0.961 . S
H957 C949 0.960 . S
H958 C950 0.930 . S
H959 C951 0.929 . S
H960 C968 0.929 . S
H961 C970 0.930 . S
H962 C972 0.930 . S
H963 C975 0.929 . S
H964 C978 0.930 . S
H965 C980 0.960 . S
H966 C980 0.960 . S
H967 C980 0.960 . S
C968 H960 0.929 . S
C968 C969 1.377 . S
C968 C970 1.384 . S
C969 C968 1.377 . S
C969 C975 1.390 . S
C970 H961 0.930 . S
C970 C968 1.384 . S
C970 C971 1.372 . S
C971 C970 1.372 . S
C971 C972 1.400 . S
C971 C976 1.490 . S
C972 H962 0.930 . S
C972 C971 1.400 . S
C972 C975 1.386 . S
H973 C989 0.930 . S
H974 C990 0.931 . S
C975 H963 0.929 . S
C975 C969 1.390 . S
C975 C972 1.386 . S
C976 C971 1.490 . S
C976 C978 1.395 . S
C976 C979 1.403 . S
H977 C983 0.930 . S
C978 H964 0.930 . S
C978 C976 1.395 . S
C978 C981 1.403 . S
C979 C976 1.403 . S
C979 C980 1.524 . S
C979 C983 1.400 . S
C980 H965 0.960 . S
C980 H966 0.960 . S
C980 H967 0.960 . S
C980 C979 1.524 . S
C981 C978 1.403 . S
C981 C982 1.392 . S
C981 C985 1.495 . S
C982 C981 1.392 . S
C982 C983 1.385 . S
C982 C984 1.478 . S
C983 H977 0.930 . S
C983 C979 1.400 . S
C983 C982 1.385 . S
C984 C982 1.478 . S
C984 C986 1.381 . S
C984 C990 1.383 . S
C985 C981 1.495 . S
C985 H991 0.959 . S
C985 H992 0.961 . S
C985 H993 0.960 . S
C986 C984 1.381 . S
C986 C987 1.394 . S
C986 H994 0.930 . S
C987 C986 1.394 . S
C987 C988 1.383 . S
C987 H995 0.929 . S
C988 C987 1.383 . S
C988 C989 1.377 . S
C989 H973 0.930 . S
C989 C988 1.377 . S
C989 C990 1.379 . S
C990 H974 0.931 . S
C990 C984 1.383 . S
C990 C989 1.379 . S
H991 C985 0.959 . S
H992 C985 0.961 . S
H993 C985 0.960 . S
H994 C986 0.930 . S
H995 C987 0.929 . S
H996 C1004 0.929 . S
H997 C1006 0.930 . S
H998 C1008 0.930 . S
H999 C1011 0.929 . S
H1000 C1014 0.930 . S
H1001 C1016 0.960 . S
H1002 C1016 0.960 . S
H1003 C1016 0.960 . S
C1004 H996 0.929 . S
C1004 C1005 1.377 . S
C1004 C1006 1.384 . S
C1005 C1004 1.377 . S
C1005 C1011 1.390 . S
C1006 H997 0.930 . S
C1006 C1004 1.384 . S
C1006 C1007 1.372 . S
C1007 C1006 1.372 . S
C1007 C1008 1.400 . S
C1007 C1012 1.490 . S
C1008 H998 0.930 . S
C1008 C1007 1.400 . S
C1008 C1011 1.386 . S
H1009 C1025 0.930 . S
H1010 C1026 0.931 . S
C1011 H999 0.929 . S
C1011 C1005 1.390 . S
C1011 C1008 1.386 . S
C1012 C1007 1.490 . S
C1012 C1014 1.395 . S
C1012 C1015 1.403 . S
H1013 C1019 0.930 . S
C1014 H1000 0.930 . S
C1014 C1012 1.395 . S
C1014 C1017 1.403 . S
C1015 C1012 1.403 . S
C1015 C1016 1.524 . S
C1015 C1019 1.400 . S
C1016 H1001 0.960 . S
C1016 H1002 0.960 . S
C1016 H1003 0.960 . S
C1016 C1015 1.524 . S
C1017 C1014 1.403 . S
C1017 C1018 1.392 . S
C1017 C1021 1.495 . S
C1018 C1017 1.392 . S
C1018 C1019 1.385 . S
C1018 C1020 1.478 . S
C1019 H1013 0.930 . S
C1019 C1015 1.400 . S
C1019 C1018 1.385 . S
C1020 C1018 1.478 . S
C1020 C1022 1.381 . S
C1020 C1026 1.383 . S
C1021 C1017 1.495 . S
C1021 H1027 0.959 . S
C1021 H1028 0.961 . S
C1021 H1029 0.960 . S
C1022 C1020 1.381 . S
C1022 C1023 1.394 . S
C1022 H1030 0.930 . S
C1023 C1022 1.394 . S
C1023 C1024 1.383 . S
C1023 H1031 0.929 . S
C1024 C1023 1.383 . S
C1024 C1025 1.377 . S
C1025 H1009 0.930 . S
C1025 C1024 1.377 . S
C1025 C1026 1.379 . S
C1026 H1010 0.931 . S
C1026 C1020 1.383 . S
C1026 C1025 1.379 . S
H1027 C1021 0.959 . S
H1028 C1021 0.961 . S
H1029 C1021 0.960 . S
H1030 C1022 0.930 . S
H1031 C1023 0.929 . S
H1032 C1040 0.929 . S
H1033 C1042 0.930 . S
H1034 C1044 0.930 . S
H1035 C1047 0.929 . S
H1036 C1050 0.930 . S
H1037 C1052 0.960 . S
H1038 C1052 0.960 . S
H1039 C1052 0.960 . S
C1040 H1032 0.929 . S
C1040 C1041 1.377 . S
C1040 C1042 1.384 . S
C1041 C1040 1.377 . S
C1041 C1047 1.390 1_556 S
C1042 H1033 0.930 . S
C1042 C1040 1.384 . S
C1042 C1043 1.372 . S
C1043 C1042 1.372 . S
C1043 C1044 1.400 1_556 S
C1043 C1048 1.490 . S
C1044 H1034 0.930 . S
C1044 C1043 1.400 1_554 S
C1044 C1047 1.386 . S
H1045 C1061 0.930 . S
H1046 C1062 0.931 . S
C1047 H1035 0.929 . S
C1047 C1041 1.390 1_554 S
C1047 C1044 1.386 . S
C1048 C1043 1.490 . S
C1048 C1050 1.395 . S
C1048 C1051 1.403 1_556 S
H1049 C1055 0.930 . S
C1050 H1036 0.930 . S
C1050 C1048 1.395 . S
C1050 C1053 1.403 . S
C1051 C1048 1.403 1_554 S
C1051 C1052 1.524 . S
C1051 C1055 1.400 . S
C1052 H1037 0.960 . S
C1052 H1038 0.960 . S
C1052 H1039 0.960 . S
C1052 C1051 1.524 . S
C1053 C1050 1.403 . S
C1053 C1054 1.392 . S
C1053 C1057 1.495 . S
C1054 C1053 1.392 . S
C1054 C1055 1.385 1_556 S
C1054 C1056 1.478 . S
C1055 H1049 0.930 . S
C1055 C1051 1.400 . S
C1055 C1054 1.385 1_554 S
C1056 C1054 1.478 . S
C1056 C1058 1.381 . S
C1056 C1062 1.383 1_556 S
C1057 C1053 1.495 . S
C1057 H1063 0.959 . S
C1057 H1064 0.961 . S
C1057 H1065 0.960 . S
C1058 C1056 1.381 . S
C1058 C1059 1.394 . S
C1058 H1066 0.930 . S
C1059 C1058 1.394 . S
C1059 C1060 1.383 1_556 S
C1059 H1067 0.929 . S
C1060 C1059 1.383 1_554 S
C1060 C1061 1.377 . S
C1061 H1045 0.930 . S
C1061 C1060 1.377 . S
C1061 C1062 1.379 . S
C1062 H1046 0.931 . S
C1062 C1056 1.383 1_554 S
C1062 C1061 1.379 . S
H1063 C1057 0.959 . S
H1064 C1057 0.961 . S
H1065 C1057 0.960 . S
H1066 C1058 0.930 . S
H1067 C1059 0.929 . S
H1068 C1076 0.929 . S
H1069 C1078 0.930 . S
H1070 C1080 0.930 . S
H1071 C1083 0.929 . S
H1072 C1086 0.930 . S
H1073 C1088 0.960 . S
H1074 C1088 0.960 . S
H1075 C1088 0.960 . S
C1076 H1068 0.929 . S
C1076 C1077 1.377 . S
C1076 C1078 1.384 . S
C1077 C1076 1.377 . S
C1077 C1083 1.390 . S
C1078 H1069 0.930 . S
C1078 C1076 1.384 . S
C1078 C1079 1.372 . S
C1079 C1078 1.372 . S
C1079 C1080 1.400 . S
C1079 C1084 1.490 . S
C1080 H1070 0.930 . S
C1080 C1079 1.400 . S
C1080 C1083 1.386 . S
H1081 C1097 0.930 . S
H1082 C1098 0.931 . S
C1083 H1071 0.929 . S
C1083 C1077 1.390 . S
C1083 C1080 1.386 . S
C1084 C1079 1.490 . S
C1084 C1086 1.395 . S
C1084 C1087 1.403 1_545 S
H1085 C1091 0.930 . S
C1086 H1072 0.930 . S
C1086 C1084 1.395 . S
C1086 C1089 1.403 . S
C1087 C1084 1.403 1_565 S
C1087 C1088 1.524 . S
C1087 C1091 1.400 . S
C1088 H1073 0.960 . S
C1088 H1074 0.960 . S
C1088 H1075 0.960 . S
C1088 C1087 1.524 . S
C1089 C1086 1.403 . S
C1089 C1090 1.392 1_545 S
C1089 C1093 1.495 . S
C1090 C1089 1.392 1_565 S
C1090 C1091 1.385 . S
C1090 C1092 1.478 . S
C1091 H1085 0.930 . S
C1091 C1087 1.400 . S
C1091 C1090 1.385 . S
C1092 C1090 1.478 . S
C1092 C1094 1.381 . S
C1092 C1098 1.383 . S
C1093 C1089 1.495 . S
C1093 H1099 0.959 . S
C1093 H1100 0.961 . S
C1093 H1101 0.960 . S
C1094 C1092 1.381 . S
C1094 C1095 1.394 . S
C1094 H1102 0.930 . S
C1095 C1094 1.394 . S
C1095 C1096 1.383 . S
C1095 H1103 0.929 . S
C1096 C1095 1.383 . S
C1096 C1097 1.377 . S
C1097 H1081 0.930 . S
C1097 C1096 1.377 . S
C1097 C1098 1.379 . S
C1098 H1082 0.931 . S
C1098 C1092 1.383 . S
C1098 C1097 1.379 . S
H1099 C1093 0.959 . S
H1100 C1093 0.961 . S
H1101 C1093 0.960 . S
H1102 C1094 0.930 . S
H1103 C1095 0.929 . S
H1104 C1112 0.929 . S
H1105 C1114 0.930 . S
H1106 C1116 0.930 . S
H1107 C1119 0.929 . S
H1108 C1122 0.930 . S
H1109 C1124 0.960 . S
H1110 C1124 0.960 . S
H1111 C1124 0.960 . S
C1112 H1104 0.929 . S
C1112 C1113 1.377 . S
C1112 C1114 1.384 . S
C1113 C1112 1.377 . S
C1113 C1119 1.390 . S
C1114 H1105 0.930 . S
C1114 C1112 1.384 . S
C1114 C1115 1.372 . S
C1115 C1114 1.372 . S
C1115 C1116 1.400 . S
C1115 C1120 1.490 . S
C1116 H1106 0.930 . S
C1116 C1115 1.400 . S
C1116 C1119 1.386 . S
H1117 C1133 0.930 . S
H1118 C1134 0.931 . S
C1119 H1107 0.929 . S
C1119 C1113 1.390 . S
C1119 C1116 1.386 . S
C1120 C1115 1.490 . S
C1120 C1122 1.395 . S
C1120 C1123 1.403 . S
H1121 C1127 0.930 . S
C1122 H1108 0.930 . S
C1122 C1120 1.395 . S
C1122 C1125 1.403 . S
C1123 C1120 1.403 . S
C1123 C1124 1.524 . S
C1123 C1127 1.400 . S
C1124 H1109 0.960 . S
C1124 H1110 0.960 . S
C1124 H1111 0.960 . S
C1124 C1123 1.524 . S
C1125 C1122 1.403 . S
C1125 C1126 1.392 . S
C1125 C1129 1.495 . S
C1126 C1125 1.392 . S
C1126 C1127 1.385 . S
C1126 C1128 1.478 . S
C1127 H1121 0.930 . S
C1127 C1123 1.400 . S
C1127 C1126 1.385 . S
C1128 C1126 1.478 . S
C1128 C1130 1.381 . S
C1128 C1134 1.383 . S
C1129 C1125 1.495 . S
C1129 H1135 0.959 . S
C1129 H1136 0.961 . S
C1129 H1137 0.960 . S
C1130 C1128 1.381 . S
C1130 C1131 1.394 . S
C1130 H1138 0.930 . S
C1131 C1130 1.394 . S
C1131 C1132 1.383 . S
C1131 H1139 0.929 . S
C1132 C1131 1.383 . S
C1132 C1133 1.377 . S
C1133 H1117 0.930 . S
C1133 C1132 1.377 . S
C1133 C1134 1.379 . S
C1134 H1118 0.931 . S
C1134 C1128 1.383 . S
C1134 C1133 1.379 . S
H1135 C1129 0.959 . S
H1136 C1129 0.961 . S
H1137 C1129 0.960 . S
H1138 C1130 0.930 . S
H1139 C1131 0.929 . S
H1140 C1148 0.929 . S
H1141 C1150 0.930 . S
H1142 C1152 0.930 . S
H1143 C1155 0.929 . S
H1144 C1158 0.930 . S
H1145 C1160 0.960 . S
H1146 C1160 0.960 . S
H1147 C1160 0.960 1_554 S
C1148 H1140 0.929 . S
C1148 C1149 1.377 1_556 S
C1148 C1150 1.384 . S
C1149 C1148 1.377 1_554 S
C1149 C1155 1.390 . S
C1150 H1141 0.930 . S
C1150 C1148 1.384 . S
C1150 C1151 1.372 1_556 S
C1151 C1150 1.372 1_554 S
C1151 C1152 1.400 . S
C1151 C1156 1.490 . S
C1152 H1142 0.930 . S
C1152 C1151 1.400 . S
C1152 C1155 1.386 . S
H1153 C1169 0.930 . S
H1154 C1170 0.931 . S
C1155 H1143 0.929 . S
C1155 C1149 1.390 . S
C1155 C1152 1.386 . S
C1156 C1151 1.490 . S
C1156 C1158 1.395 . S
C1156 C1159 1.402 1_654 S
H1157 C1163 0.927 1_556 S
C1158 H1144 0.930 . S
C1158 C1156 1.395 . S
C1158 C1161 1.403 . S
C1159 C1156 1.402 1_456 S
C1159 C1160 1.525 . S
C1159 C1163 1.399 1_556 S
C1160 H1145 0.960 . S
C1160 H1146 0.960 . S
C1160 H1147 0.960 1_556 S
C1160 C1159 1.525 . S
C1161 C1158 1.403 . S
C1161 C1162 1.392 1_655 S
C1161 C1165 1.495 . S
C1162 C1161 1.392 1_455 S
C1162 C1163 1.389 . S
C1162 C1164 1.478 . S
C1163 H1157 0.927 1_554 S
C1163 C1159 1.399 1_554 S
C1163 C1162 1.389 . S
C1164 C1162 1.478 . S
C1164 C1166 1.381 1_554 S
C1164 C1170 1.383 . S
C1165 C1161 1.495 . S
C1165 H1171 0.959 . S
C1165 H1172 0.961 . S
C1165 H1173 0.960 1_554 S
C1166 C1164 1.381 1_556 S
C1166 C1167 1.394 . S
C1166 H1174 0.930 . S
C1167 C1166 1.394 . S
C1167 C1168 1.383 1_556 S
C1167 H1175 0.929 . S
C1168 C1167 1.383 1_554 S
C1168 C1169 1.377 . S
C1169 H1153 0.930 . S
C1169 C1168 1.377 . S
C1169 C1170 1.379 . S
C1170 H1154 0.931 . S
C1170 C1164 1.383 . S
C1170 C1169 1.379 . S
H1171 C1165 0.959 . S
H1172 C1165 0.961 . S
H1173 C1165 0.960 1_556 S
H1174 C1166 0.930 . S
H1175 C1167 0.929 . S
H1176 C1184 0.929 . S
H1177 C1186 0.930 . S
H1178 C1188 0.930 . S
H1179 C1191 0.929 . S
H1180 C1194 0.930 . S
H1181 C1196 0.960 . S
H1182 C1196 0.960 . S
H1183 C1196 0.960 . S
C1184 H1176 0.929 . S
C1184 C1185 1.377 . S
C1184 C1186 1.384 . S
C1185 C1184 1.377 . S
C1185 C1191 1.390 . S
C1186 H1177 0.930 . S
C1186 C1184 1.384 . S
C1186 C1187 1.372 . S
C1187 C1186 1.372 . S
C1187 C1188 1.400 . S
C1187 C1192 1.490 . S
C1188 H1178 0.930 . S
C1188 C1187 1.400 . S
C1188 C1191 1.386 . S
H1189 C1205 0.930 . S
H1190 C1206 0.931 . S
C1191 H1179 0.929 . S
C1191 C1185 1.390 . S
C1191 C1188 1.386 . S
C1192 C1187 1.490 . S
C1192 C1194 1.395 1_455 S
C1192 C1195 1.403 . S
H1193 C1199 0.917 . S
C1194 H1180 0.930 . S
C1194 C1192 1.395 1_655 S
C1194 C1197 1.403 . S
C1195 C1192 1.403 . S
C1195 C1196 1.524 . S
C1195 C1199 1.433 . S
C1196 H1181 0.960 . S
C1196 H1182 0.960 . S
C1196 H1183 0.960 . S
C1196 C1195 1.524 . S
C1197 C1194 1.403 . S
C1197 C1198 1.392 . S
C1197 C1201 1.495 . S
C1198 C1197 1.392 . S
C1198 C1199 1.364 1_655 S
C1198 C1200 1.478 . S
C1199 H1193 0.917 . S
C1199 C1195 1.433 . S
C1199 C1198 1.364 1_455 S
C1200 C1198 1.478 . S
C1200 C1202 1.381 . S
C1200 C1206 1.383 . S
C1201 C1197 1.495 . S
C1201 H1207 0.959 . S
C1201 H1208 0.961 . S
C1201 H1209 0.960 . S
C1202 C1200 1.381 . S
C1202 C1203 1.394 . S
C1202 H1210 0.930 . S
C1203 C1202 1.394 . S
C1203 C1204 1.383 . S
C1203 H1211 0.929 . S
C1204 C1203 1.383 . S
C1204 C1205 1.377 . S
C1205 H1189 0.930 . S
C1205 C1204 1.377 . S
C1205 C1206 1.379 . S
C1206 H1190 0.931 . S
C1206 C1200 1.383 . S
C1206 C1205 1.379 . S
H1207 C1201 0.959 . S
H1208 C1201 0.961 . S
H1209 C1201 0.960 . S
H1210 C1202 0.930 . S
H1211 C1203 0.929 . S
H1212 C1220 0.929 . S
H1213 C1222 0.930 . S
H1214 C1224 0.930 . S
H1215 C1227 0.929 . S
H1216 C1230 0.944 1_545 S
H1217 C1232 0.960 . S
H1218 C1232 0.960 . S
H1219 C1232 0.960 . S
C1220 H1212 0.929 . S
C1220 C1221 1.377 . S
C1220 C1222 1.384 . S
C1221 C1220 1.377 . S
C1221 C1227 1.390 . S
C1222 H1213 0.930 . S
C1222 C1220 1.384 . S
C1222 C1223 1.372 . S
C1223 C1222 1.372 . S
C1223 C1224 1.400 . S
C1223 C1228 1.490 . S
C1224 H1214 0.930 . S
C1224 C1223 1.400 . S
C1224 C1227 1.386 . S
H1225 C1241 0.930 . S
H1226 C1242 0.931 . S
C1227 H1215 0.929 . S
C1227 C1221 1.390 . S
C1227 C1224 1.386 . S
C1228 C1223 1.490 . S
C1228 C1230 1.398 1_545 S
C1228 C1231 1.403 . S
H1229 C1235 0.930 . S
C1230 H1216 0.944 1_565 S
C1230 C1228 1.398 1_565 S
C1230 C1233 1.402 . S
C1231 C1228 1.403 . S
C1231 C1232 1.524 . S
C1231 C1235 1.400 1_545 S
C1232 H1217 0.960 . S
C1232 H1218 0.960 . S
C1232 H1219 0.960 . S
C1232 C1231 1.524 . S
C1233 C1230 1.402 . S
C1233 C1234 1.392 . S
C1233 C1237 1.495 . S
C1234 C1233 1.392 . S
C1234 C1235 1.385 . S
C1234 C1236 1.478 . S
C1235 H1229 0.930 . S
C1235 C1231 1.400 1_565 S
C1235 C1234 1.385 . S
C1236 C1234 1.478 . S
C1236 C1238 1.381 . S
C1236 C1242 1.383 . S
C1237 C1233 1.495 . S
C1237 H1243 0.959 . S
C1237 H1244 0.961 . S
C1237 H1245 0.960 . S
C1238 C1236 1.381 . S
C1238 C1239 1.394 . S
C1238 H1246 0.930 . S
C1239 C1238 1.394 . S
C1239 C1240 1.383 . S
C1239 H1247 0.929 . S
C1240 C1239 1.383 . S
C1240 C1241 1.377 . S
C1241 H1225 0.930 . S
C1241 C1240 1.377 . S
C1241 C1242 1.379 . S
C1242 H1226 0.931 . S
C1242 C1236 1.383 . S
C1242 C1241 1.379 . S
H1243 C1237 0.959 . S
H1244 C1237 0.961 . S
H1245 C1237 0.960 . S
H1246 C1238 0.930 . S
H1247 C1239 0.929 . S
H1248 C1256 0.929 . S
H1249 C1258 0.930 . S
H1250 C1260 0.930 . S
H1251 C1263 0.929 . S
H1252 C1266 0.926 1_554 S
H1253 C1268 0.960 . S
H1254 C1268 0.960 . S
H1255 C1268 0.960 . S
C1256 H1248 0.929 . S
C1256 C1257 1.377 . S
C1256 C1258 1.384 . S
C1257 C1256 1.377 . S
C1257 C1263 1.390 1_556 S
C1258 H1249 0.930 . S
C1258 C1256 1.384 . S
C1258 C1259 1.372 . S
C1259 C1258 1.372 . S
C1259 C1260 1.400 1_556 S
C1259 C1264 1.490 . S
C1260 H1250 0.930 . S
C1260 C1259 1.400 1_554 S
C1260 C1263 1.386 . S
H1261 C1277 0.930 . S
H1262 C1278 0.931 . S
C1263 H1251 0.929 . S
C1263 C1257 1.390 1_554 S
C1263 C1260 1.386 . S
C1264 C1259 1.490 . S
C1264 C1266 1.400 . S
C1264 C1267 1.403 . S
H1265 C1271 0.930 . S
C1266 H1252 0.926 1_556 S
C1266 C1264 1.400 . S
C1266 C1269 1.403 . S
C1267 C1264 1.403 . S
C1267 C1268 1.524 . S
C1267 C1271 1.400 . S
C1268 H1253 0.960 . S
C1268 H1254 0.960 . S
C1268 H1255 0.960 . S
C1268 C1267 1.524 . S
C1269 C1266 1.403 . S
C1269 C1270 1.392 . S
C1269 C1273 1.496 1_556 S
C1270 C1269 1.392 . S
C1270 C1271 1.385 . S
C1270 C1272 1.478 . S
C1271 H1265 0.930 . S
C1271 C1267 1.400 . S
C1271 C1270 1.385 . S
C1272 C1270 1.478 . S
C1272 C1274 1.381 . S
C1272 C1278 1.383 1_556 S
C1273 C1269 1.496 1_554 S
C1273 H1279 0.959 . S
C1273 H1280 0.961 . S
C1273 H1281 0.960 1_554 S
C1274 C1272 1.381 . S
C1274 C1275 1.394 . S
C1274 H1282 0.930 . S
C1275 C1274 1.394 . S
C1275 C1276 1.383 . S
C1275 H1283 0.929 . S
C1276 C1275 1.383 . S
C1276 C1277 1.377 1_556 S
C1277 H1261 0.930 . S
C1277 C1276 1.377 1_554 S
C1277 C1278 1.379 . S
C1278 H1262 0.931 . S
C1278 C1272 1.383 1_554 S
C1278 C1277 1.379 . S
H1279 C1273 0.959 . S
H1280 C1273 0.961 . S
H1281 C1273 0.960 1_556 S
H1282 C1274 0.930 . S
H1283 C1275 0.929 . S
H1284 C1292 0.929 . S
H1285 C1294 0.930 . S
H1286 C1296 0.930 . S
H1287 C1299 0.929 . S
H1288 C1302 0.930 . S
H1289 C1304 0.960 . S
H1290 C1304 0.960 . S
H1291 C1304 0.960 . S
C1292 H1284 0.929 . S
C1292 C1293 1.377 . S
C1292 C1294 1.384 . S
C1293 C1292 1.377 . S
C1293 C1299 1.390 . S
C1294 H1285 0.930 . S
C1294 C1292 1.384 . S
C1294 C1295 1.372 . S
C1295 C1294 1.372 . S
C1295 C1296 1.400 . S
C1295 C1300 1.490 . S
C1296 H1286 0.930 . S
C1296 C1295 1.400 . S
C1296 C1299 1.386 . S
H1297 C1313 0.930 . S
H1298 C1314 0.931 . S
C1299 H1287 0.929 . S
C1299 C1293 1.390 . S
C1299 C1296 1.386 . S
C1300 C1295 1.490 . S
C1300 C1302 1.395 . S
C1300 C1303 1.403 . S
H1301 C1307 0.930 . S
C1302 H1288 0.930 . S
C1302 C1300 1.395 . S
C1302 C1305 1.403 . S
C1303 C1300 1.403 . S
C1303 C1304 1.524 . S
C1303 C1307 1.400 . S
C1304 H1289 0.960 . S
C1304 H1290 0.960 . S
C1304 H1291 0.960 . S
C1304 C1303 1.524 . S
C1305 C1302 1.403 . S
C1305 C1306 1.392 . S
C1305 C1309 1.495 . S
C1306 C1305 1.392 . S
C1306 C1307 1.385 . S
C1306 C1308 1.478 . S
C1307 H1301 0.930 . S
C1307 C1303 1.400 . S
C1307 C1306 1.385 . S
C1308 C1306 1.478 . S
C1308 C1310 1.381 . S
C1308 C1314 1.383 . S
C1309 C1305 1.495 . S
C1309 H1315 0.959 . S
C1309 H1316 0.961 . S
C1309 H1317 0.960 . S
C1310 C1308 1.381 . S
C1310 C1311 1.394 . S
C1310 H1318 0.930 . S
C1311 C1310 1.394 . S
C1311 C1312 1.383 . S
C1311 H1319 0.929 . S
C1312 C1311 1.383 . S
C1312 C1313 1.377 . S
C1313 H1297 0.930 . S
C1313 C1312 1.377 . S
C1313 C1314 1.379 . S
C1314 H1298 0.931 . S
C1314 C1308 1.383 . S
C1314 C1313 1.379 . S
H1315 C1309 0.959 . S
H1316 C1309 0.961 . S
H1317 C1309 0.960 . S
H1318 C1310 0.930 . S
H1319 C1311 0.929 . S
H1320 C1328 0.929 . S
H1321 C1330 0.930 . S
H1322 C1332 0.930 . S
H1323 C1335 0.929 . S
H1324 C1338 0.930 . S
H1325 C1340 0.960 . S
H1326 C1340 0.960 . S
H1327 C1340 0.960 . S
C1328 H1320 0.929 . S
C1328 C1329 1.377 . S
C1328 C1330 1.384 . S
C1329 C1328 1.377 . S
C1329 C1335 1.390 . S
C1330 H1321 0.930 . S
C1330 C1328 1.384 . S
C1330 C1331 1.372 . S
C1331 C1330 1.372 . S
C1331 C1332 1.400 . S
C1331 C1336 1.490 . S
C1332 H1322 0.930 . S
C1332 C1331 1.400 . S
C1332 C1335 1.386 . S
H1333 C1349 0.930 . S
H1334 C1350 0.931 . S
C1335 H1323 0.929 . S
C1335 C1329 1.390 . S
C1335 C1332 1.386 . S
C1336 C1331 1.490 . S
C1336 C1338 1.395 . S
C1336 C1339 1.403 . S
H1337 C1343 0.930 . S
C1338 H1324 0.930 . S
C1338 C1336 1.395 . S
C1338 C1341 1.403 . S
C1339 C1336 1.403 . S
C1339 C1340 1.524 . S
C1339 C1343 1.400 . S
C1340 H1325 0.960 . S
C1340 H1326 0.960 . S
C1340 H1327 0.960 . S
C1340 C1339 1.524 . S
C1341 C1338 1.403 . S
C1341 C1342 1.392 . S
C1341 C1345 1.495 . S
C1342 C1341 1.392 . S
C1342 C1343 1.385 . S
C1342 C1344 1.478 . S
C1343 H1337 0.930 . S
C1343 C1339 1.400 . S
C1343 C1342 1.385 . S
C1344 C1342 1.478 . S
C1344 C1346 1.381 . S
C1344 C1350 1.383 . S
C1345 C1341 1.495 . S
C1345 H1351 0.959 . S
C1345 H1352 0.961 . S
C1345 H1353 0.960 . S
C1346 C1344 1.381 . S
C1346 C1347 1.394 . S
C1346 H1354 0.930 . S
C1347 C1346 1.394 . S
C1347 C1348 1.383 . S
C1347 H1355 0.929 . S
C1348 C1347 1.383 . S
C1348 C1349 1.377 . S
C1349 H1333 0.930 . S
C1349 C1348 1.377 . S
C1349 C1350 1.379 . S
C1350 H1334 0.931 . S
C1350 C1344 1.383 . S
C1350 C1349 1.379 . S
H1351 C1345 0.959 . S
H1352 C1345 0.961 . S
H1353 C1345 0.960 . S
H1354 C1346 0.930 . S
H1355 C1347 0.929 . S
H1356 C1364 0.929 . S
H1357 C1366 0.930 . S
H1358 C1368 0.930 . S
H1359 C1371 0.929 . S
H1360 C1374 0.930 . S
H1361 C1376 0.960 . S
H1362 C1376 0.960 . S
H1363 C1376 0.960 . S
C1364 H1356 0.929 . S
C1364 C1365 1.377 . S
C1364 C1366 1.384 . S
C1365 C1364 1.377 . S
C1365 C1371 1.390 . S
C1366 H1357 0.930 . S
C1366 C1364 1.384 . S
C1366 C1367 1.372 . S
C1367 C1366 1.372 . S
C1367 C1368 1.400 . S
C1367 C1372 1.490 . S
C1368 H1358 0.930 . S
C1368 C1367 1.400 . S
C1368 C1371 1.386 . S
H1369 C1385 0.930 . S
H1370 C1386 0.931 . S
C1371 H1359 0.929 . S
C1371 C1365 1.390 . S
C1371 C1368 1.386 . S
C1372 C1367 1.490 . S
C1372 C1374 1.395 . S
C1372 C1375 1.403 . S
H1373 C1379 0.930 . S
C1374 H1360 0.930 . S
C1374 C1372 1.395 . S
C1374 C1377 1.403 . S
C1375 C1372 1.403 . S
C1375 C1376 1.524 . S
C1375 C1379 1.400 . S
C1376 H1361 0.960 . S
C1376 H1362 0.960 . S
C1376 H1363 0.960 . S
C1376 C1375 1.524 . S
C1377 C1374 1.403 . S
C1377 C1378 1.392 . S
C1377 C1381 1.495 . S
C1378 C1377 1.392 . S
C1378 C1379 1.385 . S
C1378 C1380 1.478 . S
C1379 H1373 0.930 . S
C1379 C1375 1.400 . S
C1379 C1378 1.385 . S
C1380 C1378 1.478 . S
C1380 C1382 1.381 . S
C1380 C1386 1.383 . S
C1381 C1377 1.495 . S
C1381 H1387 0.959 . S
C1381 H1388 0.961 . S
C1381 H1389 0.960 . S
C1382 C1380 1.381 . S
C1382 C1383 1.394 . S
C1382 H1390 0.930 . S
C1383 C1382 1.394 . S
C1383 C1384 1.383 . S
C1383 H1391 0.929 . S
C1384 C1383 1.383 . S
C1384 C1385 1.377 . S
C1385 H1369 0.930 . S
C1385 C1384 1.377 . S
C1385 C1386 1.379 . S
C1386 H1370 0.931 . S
C1386 C1380 1.383 . S
C1386 C1385 1.379 . S
H1387 C1381 0.959 . S
H1388 C1381 0.961 . S
H1389 C1381 0.960 . S
H1390 C1382 0.930 . S
H1391 C1383 0.929 . S
H1392 C1400 0.929 . S
H1393 C1402 0.930 . S
H1394 C1404 0.930 . S
H1395 C1407 0.929 . S
H1396 C1410 0.930 . S
H1397 C1412 0.960 . S
H1398 C1412 0.960 . S
H1399 C1412 0.960 . S
C1400 H1392 0.929 . S
C1400 C1401 1.377 . S
C1400 C1402 1.384 . S
C1401 C1400 1.377 . S
C1401 C1407 1.390 . S
C1402 H1393 0.930 . S
C1402 C1400 1.384 . S
C1402 C1403 1.372 . S
C1403 C1402 1.372 . S
C1403 C1404 1.400 . S
C1403 C1408 1.490 . S
C1404 H1394 0.930 . S
C1404 C1403 1.400 . S
C1404 C1407 1.386 . S
H1405 C1421 0.930 . S
H1406 C1422 0.931 . S
C1407 H1395 0.929 . S
C1407 C1401 1.390 . S
C1407 C1404 1.386 . S
C1408 C1403 1.490 . S
C1408 C1410 1.395 . S
C1408 C1411 1.403 . S
H1409 C1415 0.930 . S
C1410 H1396 0.930 . S
C1410 C1408 1.395 . S
C1410 C1413 1.403 . S
C1411 C1408 1.403 . S
C1411 C1412 1.524 . S
C1411 C1415 1.400 . S
C1412 H1397 0.960 . S
C1412 H1398 0.960 . S
C1412 H1399 0.960 . S
C1412 C1411 1.524 . S
C1413 C1410 1.403 . S
C1413 C1414 1.392 . S
C1413 C1417 1.495 . S
C1414 C1413 1.392 . S
C1414 C1415 1.385 . S
C1414 C1416 1.478 . S
C1415 H1409 0.930 . S
C1415 C1411 1.400 . S
C1415 C1414 1.385 . S
C1416 C1414 1.478 . S
C1416 C1418 1.381 . S
C1416 C1422 1.383 . S
C1417 C1413 1.495 . S
C1417 H1423 0.959 . S
C1417 H1424 0.961 . S
C1417 H1425 0.960 . S
C1418 C1416 1.381 . S
C1418 C1419 1.394 . S
C1418 H1426 0.930 . S
C1419 C1418 1.394 . S
C1419 C1420 1.383 . S
C1419 H1427 0.929 . S
C1420 C1419 1.383 . S
C1420 C1421 1.377 . S
C1421 H1405 0.930 . S
C1421 C1420 1.377 . S
C1421 C1422 1.379 . S
C1422 H1406 0.931 . S
C1422 C1416 1.383 . S
C1422 C1421 1.379 . S
H1423 C1417 0.959 . S
H1424 C1417 0.961 . S
H1425 C1417 0.960 . S
H1426 C1418 0.930 . S
H1427 C1419 0.929 . S
H1428 C1436 0.929 . S
H1429 C1438 0.930 . S
H1430 C1440 0.930 . S
H1431 C1443 0.929 . S
H1432 C1446 0.930 . S
H1433 C1448 0.960 . S
H1434 C1448 0.960 . S
H1435 C1448 0.960 . S
C1436 H1428 0.929 . S
C1436 C1437 1.377 . S
C1436 C1438 1.384 . S
C1437 C1436 1.377 . S
C1437 C1443 1.390 . S
C1438 H1429 0.930 . S
C1438 C1436 1.384 . S
C1438 C1439 1.372 . S
C1439 C1438 1.372 . S
C1439 C1440 1.400 . S
C1439 C1444 1.490 . S
C1440 H1430 0.930 . S
C1440 C1439 1.400 . S
C1440 C1443 1.386 . S
H1441 C1457 0.930 . S
H1442 C1458 0.931 . S
C1443 H1431 0.929 . S
C1443 C1437 1.390 . S
C1443 C1440 1.386 . S
C1444 C1439 1.490 . S
C1444 C1446 1.395 . S
C1444 C1447 1.403 . S
H1445 C1451 0.930 . S
C1446 H1432 0.930 . S
C1446 C1444 1.395 . S
C1446 C1449 1.403 . S
C1447 C1444 1.403 . S
C1447 C1448 1.524 . S
C1447 C1451 1.400 . S
C1448 H1433 0.960 . S
C1448 H1434 0.960 . S
C1448 H1435 0.960 . S
C1448 C1447 1.524 . S
C1449 C1446 1.403 . S
C1449 C1450 1.392 . S
C1449 C1453 1.495 . S
C1450 C1449 1.392 . S
C1450 C1451 1.385 . S
C1450 C1452 1.478 . S
C1451 H1445 0.930 . S
C1451 C1447 1.400 . S
C1451 C1450 1.385 . S
C1452 C1450 1.478 . S
C1452 C1454 1.381 . S
C1452 C1458 1.383 . S
C1453 C1449 1.495 . S
C1453 H1459 0.959 . S
C1453 H1460 0.961 . S
C1453 H1461 0.960 . S
C1454 C1452 1.381 . S
C1454 C1455 1.394 . S
C1454 H1462 0.930 . S
C1455 C1454 1.394 . S
C1455 C1456 1.383 . S
C1455 H1463 0.929 . S
C1456 C1455 1.383 . S
C1456 C1457 1.377 . S
C1457 H1441 0.930 . S
C1457 C1456 1.377 . S
C1457 C1458 1.379 . S
C1458 H1442 0.931 . S
C1458 C1452 1.383 . S
C1458 C1457 1.379 . S
H1459 C1453 0.959 . S
H1460 C1453 0.961 . S
H1461 C1453 0.960 . S
H1462 C1454 0.930 . S
H1463 C1455 0.929 . S
H1464 C1472 0.929 . S
H1465 C1474 0.930 . S
H1466 C1476 0.930 . S
H1467 C1479 0.929 . S
H1468 C1482 0.930 . S
H1469 C1484 0.960 . S
H1470 C1484 0.960 . S
H1471 C1484 0.960 . S
C1472 H1464 0.929 . S
C1472 C1473 1.377 . S
C1472 C1474 1.384 . S
C1473 C1472 1.377 . S
C1473 C1479 1.390 . S
C1474 H1465 0.930 . S
C1474 C1472 1.384 . S
C1474 C1475 1.372 . S
C1475 C1474 1.372 . S
C1475 C1476 1.400 . S
C1475 C1480 1.490 . S
C1476 H1466 0.930 . S
C1476 C1475 1.400 . S
C1476 C1479 1.386 . S
H1477 C1493 0.930 . S
H1478 C1494 0.931 . S
C1479 H1467 0.929 . S
C1479 C1473 1.390 . S
C1479 C1476 1.386 . S
C1480 C1475 1.490 . S
C1480 C1482 1.395 . S
C1480 C1483 1.403 . S
H1481 C1487 0.930 . S
C1482 H1468 0.930 . S
C1482 C1480 1.395 . S
C1482 C1485 1.403 . S
C1483 C1480 1.403 . S
C1483 C1484 1.524 . S
C1483 C1487 1.400 . S
C1484 H1469 0.960 . S
C1484 H1470 0.960 . S
C1484 H1471 0.960 . S
C1484 C1483 1.524 . S
C1485 C1482 1.403 . S
C1485 C1486 1.392 . S
C1485 C1489 1.495 . S
C1486 C1485 1.392 . S
C1486 C1487 1.385 . S
C1486 C1488 1.478 . S
C1487 H1481 0.930 . S
C1487 C1483 1.400 . S
C1487 C1486 1.385 . S
C1488 C1486 1.478 . S
C1488 C1490 1.381 . S
C1488 C1494 1.383 . S
C1489 C1485 1.495 . S
C1489 H1495 0.959 . S
C1489 H1496 0.961 . S
C1489 H1497 0.960 . S
C1490 C1488 1.381 . S
C1490 C1491 1.394 . S
C1490 H1498 0.930 . S
C1491 C1490 1.394 . S
C1491 C1492 1.383 . S
C1491 H1499 0.929 . S
C1492 C1491 1.383 . S
C1492 C1493 1.377 . S
C1493 H1477 0.930 . S
C1493 C1492 1.377 . S
C1493 C1494 1.379 . S
C1494 H1478 0.931 . S
C1494 C1488 1.383 . S
C1494 C1493 1.379 . S
H1495 C1489 0.959 . S
H1496 C1489 0.961 . S
H1497 C1489 0.960 . S
H1498 C1490 0.930 . S
H1499 C1491 0.929 . S
C645 C39 1.216 . S
C664 C569 1.226 . S
C681 C92 1.387 . S
C700 C622 1.368 . S
C717 C357 1.387 . S
C736 C145 1.368 . S
C753 C198 1.207 . S
C772 C410 1.196 . S
C789 C463 1.389 . S
C808 C251 1.397 . S
C825 C516 1.390 . S
C844 C304 1.407 . S
C861 C347 1.250 . S
C880 C29 1.274 . S
C897 C400 1.256 . S
C916 C82 1.224 . S
C933 C453 1.261 . S
C952 C135 1.280 . S
C969 C188 1.260 . S
C988 C506 1.238 . S
C1005 C241 1.255 . S
C1024 C559 1.224 . S
C1041 C294 1.254 . S
C1060 C612 1.277 . S
C1077 C22 2.963 . S
C1096 C181 2.972 . S
C1113 C75 2.965 . S
C1132 C234 2.978 . S
C1149 C128 2.938 . S
C1168 C287 2.951 . S
C1185 C499 2.964 . S
C1204 C340 2.942 . S
C1221 C552 2.957 . S
C1240 C393 2.943 . S
C1257 C605 2.937 . S
C1276 C446 2.915 . S
C1293 C38 2.429 . S
C1312 C462 2.427 . S
C1329 C515 2.577 . S
C1348 C91 2.568 . S
C1365 C144 2.429 . S
C1384 C568 2.421 . S
C1401 C621 2.428 . S
C1420 C197 2.411 . S
C1437 C250 2.577 . S
C1456 C356 2.568 . S
C1473 C303 2.428 . S
C1492 C409 2.419 . S
