# Generated by pormake.
# Topology ukc, (4)-cn, num edge types: 1
# Building blocks:
#     Node 0, Type 0, BuildingBlock: KUFVIS_clean_sbu_0, # of connection points: 4
#     Node 1, Type 0, BuildingBlock: KUFVIS_clean_sbu_0, # of connection points: 4
#     Node 2, Type 0, BuildingBlock: KUFVIS_clean_sbu_0, # of connection points: 4
#     Node 3, Type 0, BuildingBlock: KUFVIS_clean_sbu_0, # of connection points: 4
#     Node 4, Type 0, BuildingBlock: KUFVIS_clean_sbu_0, # of connection points: 4
#     Node 5, Type 0, BuildingBlock: KUFVIS_clean_sbu_0, # of connection points: 4
#     Node 6, Type 0, BuildingBlock: KUFVIS_clean_sbu_0, # of connection points: 4
#     Node 7, Type 0, BuildingBlock: KUFVIS_clean_sbu_0, # of connection points: 4
#     Node 8, Type 0, BuildingBlock: KUFVIS_clean_sbu_0, # of connection points: 4
#     Node 9, Type 0, BuildingBlock: KUFVIS_clean_sbu_0, # of connection points: 4
#     Node 10, Type 0, BuildingBlock: KUFVIS_clean_sbu_0, # of connection points: 4
#     Node 11, Type 0, BuildingBlock: KUFVIS_clean_sbu_0, # of connection points: 4
#     Node 12, Type 0, BuildingBlock: KUFVIS_clean_sbu_0, # of connection points: 4
#     Node 13, Type 0, BuildingBlock: KUFVIS_clean_sbu_0, # of connection points: 4
#     Node 14, Type 0, BuildingBlock: KUFVIS_clean_sbu_0, # of connection points: 4
#     Node 15, Type 0, BuildingBlock: KUFVIS_clean_sbu_0, # of connection points: 4
#     Node 16, Type 0, BuildingBlock: KUFVIS_clean_sbu_0, # of connection points: 4
#     Node 17, Type 0, BuildingBlock: KUFVIS_clean_sbu_0, # of connection points: 4
#     Node 18, Type 0, BuildingBlock: KUFVIS_clean_sbu_0, # of connection points: 4
#     Node 19, Type 0, BuildingBlock: KUFVIS_clean_sbu_0, # of connection points: 4
#     Node 20, Type 0, BuildingBlock: KUFVIS_clean_sbu_0, # of connection points: 4
#     Node 21, Type 0, BuildingBlock: KUFVIS_clean_sbu_0, # of connection points: 4
#     Node 22, Type 0, BuildingBlock: KUFVIS_clean_sbu_0, # of connection points: 4
#     Node 23, Type 0, BuildingBlock: KUFVIS_clean_sbu_0, # of connection points: 4
#     Node 24, Type 0, BuildingBlock: KUFVIS_clean_sbu_0, # of connection points: 4
#     Node 25, Type 0, BuildingBlock: KUFVIS_clean_sbu_0, # of connection points: 4
#     Node 26, Type 0, BuildingBlock: KUFVIS_clean_sbu_0, # of connection points: 4
#     Node 27, Type 0, BuildingBlock: KUFVIS_clean_sbu_0, # of connection points: 4
#     Node 28, Type 0, BuildingBlock: KUFVIS_clean_sbu_0, # of connection points: 4
#     Node 29, Type 0, BuildingBlock: KUFVIS_clean_sbu_0, # of connection points: 4
#     Node 30, Type 0, BuildingBlock: KUFVIS_clean_sbu_0, # of connection points: 4
#     Node 31, Type 0, BuildingBlock: KUFVIS_clean_sbu_0, # of connection points: 4
#     Edge 32, Type (0, 0), BuildingBlock: KIFKEQ_clean_linker_1, # of connection points: 2
#     Edge 33, Type (0, 0), BuildingBlock: KIFKEQ_clean_linker_1, # of connection points: 2
#     Edge 34, Type (0, 0), BuildingBlock: KIFKEQ_clean_linker_1, # of connection points: 2
#     Edge 35, Type (0, 0), BuildingBlock: KIFKEQ_clean_linker_1, # of connection points: 2
#     Edge 36, Type (0, 0), BuildingBlock: KIFKEQ_clean_linker_1, # of connection points: 2
#     Edge 37, Type (0, 0), BuildingBlock: KIFKEQ_clean_linker_1, # of connection points: 2
#     Edge 38, Type (0, 0), BuildingBlock: KIFKEQ_clean_linker_1, # of connection points: 2
#     Edge 39, Type (0, 0), BuildingBlock: KIFKEQ_clean_linker_1, # of connection points: 2
#     Edge 40, Type (0, 0), BuildingBlock: KIFKEQ_clean_linker_1, # of connection points: 2
#     Edge 41, Type (0, 0), BuildingBlock: KIFKEQ_clean_linker_1, # of connection points: 2
#     Edge 42, Type (0, 0), BuildingBlock: KIFKEQ_clean_linker_1, # of connection points: 2
#     Edge 43, Type (0, 0), BuildingBlock: KIFKEQ_clean_linker_1, # of connection points: 2
#     Edge 44, Type (0, 0), BuildingBlock: KIFKEQ_clean_linker_1, # of connection points: 2
#     Edge 45, Type (0, 0), BuildingBlock: KIFKEQ_clean_linker_1, # of connection points: 2
#     Edge 46, Type (0, 0), BuildingBlock: KIFKEQ_clean_linker_1, # of connection points: 2
#     Edge 47, Type (0, 0), BuildingBlock: KIFKEQ_clean_linker_1, # of connection points: 2
#     Edge 48, Type (0, 0), BuildingBlock: KIFKEQ_clean_linker_1, # of connection points: 2
#     Edge 49, Type (0, 0), BuildingBlock: KIFKEQ_clean_linker_1, # of connection points: 2
#     Edge 50, Type (0, 0), BuildingBlock: KIFKEQ_clean_linker_1, # of connection points: 2
#     Edge 51, Type (0, 0), BuildingBlock: KIFKEQ_clean_linker_1, # of connection points: 2
#     Edge 52, Type (0, 0), BuildingBlock: KIFKEQ_clean_linker_1, # of connection points: 2
#     Edge 53, Type (0, 0), BuildingBlock: KIFKEQ_clean_linker_1, # of connection points: 2
#     Edge 54, Type (0, 0), BuildingBlock: KIFKEQ_clean_linker_1, # of connection points: 2
#     Edge 55, Type (0, 0), BuildingBlock: KIFKEQ_clean_linker_1, # of connection points: 2
#     Edge 56, Type (0, 0), BuildingBlock: KIFKEQ_clean_linker_1, # of connection points: 2
#     Edge 57, Type (0, 0), BuildingBlock: KIFKEQ_clean_linker_1, # of connection points: 2
#     Edge 58, Type (0, 0), BuildingBlock: KIFKEQ_clean_linker_1, # of connection points: 2
#     Edge 59, Type (0, 0), BuildingBlock: KIFKEQ_clean_linker_1, # of connection points: 2
#     Edge 60, Type (0, 0), BuildingBlock: KIFKEQ_clean_linker_1, # of connection points: 2
#     Edge 61, Type (0, 0), BuildingBlock: KIFKEQ_clean_linker_1, # of connection points: 2
#     Edge 62, Type (0, 0), BuildingBlock: KIFKEQ_clean_linker_1, # of connection points: 2
#     Edge 63, Type (0, 0), BuildingBlock: KIFKEQ_clean_linker_1, # of connection points: 2
#     Edge 64, Type (0, 0), BuildingBlock: KIFKEQ_clean_linker_1, # of connection points: 2
#     Edge 65, Type (0, 0), BuildingBlock: KIFKEQ_clean_linker_1, # of connection points: 2
#     Edge 66, Type (0, 0), BuildingBlock: KIFKEQ_clean_linker_1, # of connection points: 2
#     Edge 67, Type (0, 0), BuildingBlock: KIFKEQ_clean_linker_1, # of connection points: 2
#     Edge 68, Type (0, 0), BuildingBlock: KIFKEQ_clean_linker_1, # of connection points: 2
#     Edge 69, Type (0, 0), BuildingBlock: KIFKEQ_clean_linker_1, # of connection points: 2
#     Edge 70, Type (0, 0), BuildingBlock: KIFKEQ_clean_linker_1, # of connection points: 2
#     Edge 71, Type (0, 0), BuildingBlock: KIFKEQ_clean_linker_1, # of connection points: 2
#     Edge 72, Type (0, 0), BuildingBlock: KIFKEQ_clean_linker_1, # of connection points: 2
#     Edge 73, Type (0, 0), BuildingBlock: KIFKEQ_clean_linker_1, # of connection points: 2
#     Edge 74, Type (0, 0), BuildingBlock: KIFKEQ_clean_linker_1, # of connection points: 2
#     Edge 75, Type (0, 0), BuildingBlock: KIFKEQ_clean_linker_1, # of connection points: 2
#     Edge 76, Type (0, 0), BuildingBlock: KIFKEQ_clean_linker_1, # of connection points: 2
#     Edge 77, Type (0, 0), BuildingBlock: KIFKEQ_clean_linker_1, # of connection points: 2
#     Edge 78, Type (0, 0), BuildingBlock: KIFKEQ_clean_linker_1, # of connection points: 2
#     Edge 79, Type (0, 0), BuildingBlock: KIFKEQ_clean_linker_1, # of connection points: 2
#     Edge 80, Type (0, 0), BuildingBlock: KIFKEQ_clean_linker_1, # of connection points: 2
#     Edge 81, Type (0, 0), BuildingBlock: KIFKEQ_clean_linker_1, # of connection points: 2
#     Edge 82, Type (0, 0), BuildingBlock: KIFKEQ_clean_linker_1, # of connection points: 2
#     Edge 83, Type (0, 0), BuildingBlock: KIFKEQ_clean_linker_1, # of connection points: 2
#     Edge 84, Type (0, 0), BuildingBlock: KIFKEQ_clean_linker_1, # of connection points: 2
#     Edge 85, Type (0, 0), BuildingBlock: KIFKEQ_clean_linker_1, # of connection points: 2
#     Edge 86, Type (0, 0), BuildingBlock: KIFKEQ_clean_linker_1, # of connection points: 2
#     Edge 87, Type (0, 0), BuildingBlock: KIFKEQ_clean_linker_1, # of connection points: 2
#     Edge 88, Type (0, 0), BuildingBlock: KIFKEQ_clean_linker_1, # of connection points: 2
#     Edge 89, Type (0, 0), BuildingBlock: KIFKEQ_clean_linker_1, # of connection points: 2
#     Edge 90, Type (0, 0), BuildingBlock: KIFKEQ_clean_linker_1, # of connection points: 2
#     Edge 91, Type (0, 0), BuildingBlock: KIFKEQ_clean_linker_1, # of connection points: 2
#     Edge 92, Type (0, 0), BuildingBlock: KIFKEQ_clean_linker_1, # of connection points: 2
#     Edge 93, Type (0, 0), BuildingBlock: KIFKEQ_clean_linker_1, # of connection points: 2
#     Edge 94, Type (0, 0), BuildingBlock: KIFKEQ_clean_linker_1, # of connection points: 2
#     Edge 95, Type (0, 0), BuildingBlock: KIFKEQ_clean_linker_1, # of connection points: 2
# Relax obj value: 0.035
# Max RMSD: 0.053
# Mean RMSD: 0.053
data_MOF--net-ukc--node1-KUFVIS_clean_sbu_0--edge1-KIFKEQ_clean_linker_1
_symmetry_space_group_name_H-M    P1
_symmetry_Int_Tables_number       1
_symmetry_cell_setting            triclinic
loop_
_symmetry_equiv_pos_as_xyz
'x, y, z'
_cell_length_a     44.517188
_cell_length_b     44.50496
_cell_length_c     88.893976
_cell_angle_alpha  90.034819
_cell_angle_beta   90.007536
_cell_angle_gamma 89.999641
loop_
_atom_site_label
_atom_site_type_symbol
_atom_site_fract_x
_atom_site_fract_y
_atom_site_fract_z
_atom_type_partial_charge
Mn0 Mn 0.10488 0.38939 0.06134 0.0
Mn1 Mn 0.09329 0.35765 0.02727 0.0
C2 C 0.06998 0.35074 0.05866 0.0
C3 C 0.12789 0.39295 0.08501 0.0
C4 C 0.06958 0.41916 0.03572 0.0
O5 O 0.14291 0.40133 0.04949 0.0
O6 O 0.13353 0.37678 0.02775 0.0
C7 C 0.13938 0.30973 0.02814 0.0
N8 N 0.11013 0.31821 0.02666 0.0
C9 C 0.0943 0.2669 0.02355 0.0
C10 C 0.12427 0.25762 0.02494 0.0
C11 C 0.14691 0.27914 0.02723 0.0
C12 C 0.08821 0.29774 0.02428 0.0
H13 H 0.1568 0.32618 0.03005 0.0
C14 C 0.15038 0.39305 0.03616 0.0
O15 O 0.11511 0.41584 0.07867 0.0
O16 O 0.12915 0.36834 0.07715 0.0
N17 N 0.05521 0.33823 0.0255 0.0
C18 C 0.02724 0.35071 0.02558 0.0
C19 C 1.00196 0.33211 0.02417 0.0
C20 C 0.00571 0.30094 0.02272 0.0
C21 C 0.03474 0.2887 0.02243 0.0
C22 C 0.05911 0.30837 0.02364 0.0
H23 H 0.0242 0.37462 0.02694 0.0
O24 O 0.06781 0.36976 0.06967 0.0
O25 O 0.09218 0.35519 0.0494 0.0
O26 O 0.07917 0.41887 0.04921 0.0
O27 O 0.07441 0.3978 0.02647 0.0
C28 C 0.04038 0.25766 0.02179 0.0
C29 C 0.0701 0.24671 0.02213 0.0
H30 H 0.13011 0.23401 0.02448 0.0
H31 H 0.17007 0.27215 0.02841 0.0
H32 H 0.97963 0.3417 0.02445 0.0
H33 H 0.98613 0.28661 0.02218 0.0
H34 H 0.02193 0.24206 0.0218 0.0
H35 H 0.07399 0.22269 0.02186 0.0
Mn36 Mn 0.87348 0.85152 0.31084 0.0
Mn37 Mn 0.90088 0.8429 0.27558 0.0
C38 C 0.90933 0.81431 0.30586 0.0
C39 C 0.87346 0.87109 0.33547 0.0
C40 C 0.83933 0.82099 0.28501 0.0
O41 O 0.86256 0.89194 0.30081 0.0
O42 O 0.88367 0.88349 0.2782 0.0
C43 C 0.95082 0.88681 0.27671 0.0
N44 N 0.94065 0.8585 0.27393 0.0
C45 C 0.9881 0.84381 0.2633 0.0
C46 C 0.9992 0.87278 0.26609 0.0
C47 C 0.98054 0.89429 0.27296 0.0
C48 C 0.95863 0.83743 0.26772 0.0
H49 H 0.93625 0.90356 0.28163 0.0
C50 C 0.86946 0.90031 0.28744 0.0
O51 O 0.84937 0.86064 0.32919 0.0
O52 O 0.8974 0.87201 0.3271 0.0
N53 N 0.91836 0.80481 0.27103 0.0
C54 C 0.90439 0.77773 0.26952 0.0
C55 C 0.9195 0.75398 0.2624 0.0
C56 C 0.94854 0.7585 0.25668 0.0
C57 C 0.96275 0.78633 0.25871 0.0
C58 C 0.94662 0.80911 0.26593 0.0
H59 H 0.88159 0.77453 0.27334 0.0
O60 O 0.89113 0.81223 0.3172 0.0
O61 O 0.90605 0.83817 0.29753 0.0
O62 O 0.84112 0.82939 0.29868 0.0
O63 O 0.86018 0.82555 0.27549 0.0
C64 C 0.99203 0.79257 0.25357 0.0
C65 C 1.00493 0.82111 0.25613 0.0
H66 H 0.02194 0.87878 0.26297 0.0
H67 H 0.98891 0.91672 0.27511 0.0
H68 H 0.90852 0.73246 0.26101 0.0
H69 H 0.95987 0.74031 0.25089 0.0
H70 H 1.00502 0.77543 0.24787 0.0
H71 H 0.02769 0.82543 0.25241 0.0
Mn72 Mn 0.41023 0.62477 0.56597 0.0
Mn73 Mn 0.4176 0.65688 0.5317 0.0
C74 C 0.44456 0.66342 0.56233 0.0
C75 C 0.39057 0.62111 0.59036 0.0
C76 C 0.44408 0.59632 0.53926 0.0
O77 O 0.37077 0.61298 0.55558 0.0
O78 O 0.37907 0.63436 0.53291 0.0
C79 C 0.36779 0.70071 0.53412 0.0
N80 N 0.39744 0.69477 0.53177 0.0
C81 C 0.40856 0.74733 0.52885 0.0
C82 C 0.37812 0.754 0.53112 0.0
C83 C 0.35764 0.73057 0.53375 0.0
C84 C 0.41728 0.7171 0.52906 0.0
H85 H 0.35202 0.68281 0.53632 0.0
C86 C 0.36297 0.61894 0.54203 0.0
O87 O 0.40246 0.5982 0.58359 0.0
O88 O 0.38831 0.64573 0.5826 0.0
N89 N 0.45363 0.67951 0.52898 0.0
C90 C 0.48247 0.66941 0.52802 0.0
C91 C 0.5059 0.69013 0.52611 0.0
C92 C 0.49939 0.72092 0.5252 0.0
C93 C 0.46948 0.73069 0.52577 0.0
C94 C 0.44702 0.70898 0.52749 0.0
H95 H 0.48763 0.6458 0.52906 0.0
O96 O 0.44836 0.64404 0.57305 0.0
O97 O 0.42113 0.65928 0.55379 0.0
O98 O 0.43389 0.59532 0.55266 0.0
O99 O 0.43966 0.61852 0.53048 0.0
C100 C 0.4612 0.76121 0.52562 0.0
C101 C 0.43077 0.76955 0.52697 0.0
H102 H 0.37029 0.77705 0.53108 0.0
H103 H 0.33414 0.73555 0.53562 0.0
H104 H 0.52896 0.68247 0.52571 0.0
H105 H 0.5176 0.73687 0.52455 0.0
H106 H 0.47818 0.77845 0.52521 0.0
H107 H 0.42483 0.79315 0.52706 0.0
Mn108 Mn 0.64381 0.15647 0.81434 0.0
Mn109 Mn 0.6099 0.16702 0.78068 0.0
C110 C 0.60552 0.19179 0.81188 0.0
C111 C 0.64759 0.13476 0.83837 0.0
C112 C 0.67197 0.19092 0.78786 0.0
O113 O 0.65474 0.11771 0.80272 0.0
O114 O 0.62964 0.12713 0.78117 0.0
C115 C 0.56281 0.12028 0.78291 0.0
N116 N 0.57071 0.14958 0.78094 0.0
C117 C 0.51898 0.16451 0.77866 0.0
C118 C 0.51028 0.13447 0.78055 0.0
C119 C 0.5323 0.11226 0.78267 0.0
C120 C 0.54974 0.17108 0.77872 0.0
H121 H 0.57965 0.10318 0.78469 0.0
C122 C 0.64617 0.11028 0.78943 0.0
O123 O 0.6706 0.1467 0.83171 0.0
O124 O 0.62294 0.1333 0.83059 0.0
N125 N 0.58978 0.20472 0.77881 0.0
C126 C 0.60185 0.23284 0.77821 0.0
C127 C 0.58278 0.25778 0.77683 0.0
C128 C 0.55159 0.2535 0.77609 0.0
C129 C 0.53976 0.22431 0.77639 0.0
C130 C 0.55988 0.20029 0.77753 0.0
H131 H 0.6258 0.23627 0.77905 0.0
O132 O 0.62524 0.19419 0.82254 0.0
O133 O 0.60903 0.16911 0.8028 0.0
O134 O 0.67295 0.1813 0.80137 0.0
O135 O 0.64968 0.18634 0.77915 0.0
C136 C 0.50876 0.21819 0.77649 0.0
C137 C 0.49832 0.18834 0.77738 0.0
H138 H 0.48675 0.12827 0.78062 0.0
H139 H 0.52576 0.08905 0.78424 0.0
H140 H 0.59204 0.28026 0.77664 0.0
H141 H 0.53694 0.27284 0.77572 0.0
H142 H 0.49281 0.23639 0.77672 0.0
H143 H 0.47437 0.18408 0.77766 0.0
Mn144 Mn 0.11068 0.62388 0.47299 0.0
Mn145 Mn 0.10317 0.65705 0.50701 0.0
C146 C 0.07627 0.66257 0.47626 0.0
C147 C 0.13069 0.61889 0.44873 0.0
C148 C 0.07523 0.59715 0.49968 0.0
O149 O 0.14995 0.61215 0.48348 0.0
O150 O 0.14072 0.63284 0.50617 0.0
C151 C 0.1551 0.69835 0.5044 0.0
N152 N 0.1252 0.69391 0.50679 0.0
C153 C 0.11684 0.74693 0.50993 0.0
C154 C 0.14757 0.75205 0.50763 0.0
C155 C 0.16678 0.72764 0.50485 0.0
C156 C 0.10655 0.71721 0.50956 0.0
H157 H 0.16995 0.67972 0.50214 0.0
C158 C 0.15712 0.61753 0.49716 0.0
O159 O 0.11849 0.59643 0.45572 0.0
O160 O 0.13287 0.64393 0.45617 0.0
N161 N 0.06832 0.68151 0.5096 0.0
C162 C 0.03903 0.67288 0.51067 0.0
C163 C 0.01673 0.69477 0.51269 0.0
C164 C 0.02486 0.72516 0.51375 0.0
C165 C 0.05521 0.73342 0.51319 0.0
C166 C 0.07646 0.71061 0.51119 0.0
H167 H 0.03267 0.64957 0.50961 0.0
O168 O 0.07274 0.64284 0.46567 0.0
O169 O 0.09976 0.65901 0.48486 0.0
O170 O 0.08663 0.5952 0.48655 0.0
O171 O 0.07925 0.61978 0.50826 0.0
C172 C 0.06512 0.76349 0.51372 0.0
C173 C 0.09591 0.77023 0.51218 0.0
H174 H 0.15661 0.77465 0.50781 0.0
H175 H 0.1905 0.73141 0.50297 0.0
H176 H 0.99331 0.68833 0.51311 0.0
H177 H 0.00754 0.74197 0.51449 0.0
H178 H 0.04925 0.7817 0.51489 0.0
H179 H 0.10315 0.79346 0.5124 0.0
Mn180 Mn 0.64333 0.85578 0.72071 0.0
Mn181 Mn 0.61015 0.84571 0.75459 0.0
C182 C 0.60502 0.82056 0.7235 0.0
C183 C 0.6467 0.87716 0.69658 0.0
C184 C 0.6719 0.82141 0.74712 0.0
O185 O 0.65463 0.89467 0.73213 0.0
O186 O 0.63014 0.88544 0.75387 0.0
C187 C 0.56333 0.89276 0.75246 0.0
N188 N 0.57108 0.86344 0.7545 0.0
C189 C 0.51931 0.84894 0.75721 0.0
C190 C 0.51078 0.87901 0.75524 0.0
C191 C 0.5329 0.90101 0.75287 0.0
C192 C 0.55002 0.84213 0.75695 0.0
H193 H 0.58025 0.9097 0.75048 0.0
C194 C 0.64647 0.90219 0.74548 0.0
O195 O 0.6698 0.8652 0.70316 0.0
O196 O 0.62221 0.8788 0.70447 0.0
N197 N 0.5898 0.80819 0.75673 0.0
C198 C 0.60168 0.78 0.75741 0.0
C199 C 0.58247 0.75524 0.75909 0.0
C200 C 0.55133 0.75977 0.76003 0.0
C201 C 0.53971 0.78904 0.75965 0.0
C202 C 0.55996 0.81287 0.75821 0.0
H203 H 0.62558 0.77638 0.75643 0.0
O204 O 0.62449 0.818 0.71273 0.0
O205 O 0.60877 0.84336 0.73249 0.0
O206 O 0.67266 0.831 0.7336 0.0
O207 O 0.64981 0.82611 0.75594 0.0
C208 C 0.50875 0.79539 0.75976 0.0
C209 C 0.49852 0.8253 0.75877 0.0
H210 H 0.48729 0.88539 0.75532 0.0
H211 H 0.52648 0.92424 0.75125 0.0
H212 H 0.59156 0.7327 0.75935 0.0
H213 H 0.53656 0.74055 0.76064 0.0
H214 H 0.49265 0.77731 0.75979 0.0
H215 H 0.47459 0.82974 0.75865 0.0
Mn216 Mn 0.40822 0.38675 0.97178 0.0
Mn217 Mn 0.41516 0.35395 1.00592 0.0
C218 C 0.44292 0.3483 0.97538 0.0
C219 C 0.38868 0.39062 0.94736 0.0
C220 C 0.44202 0.4146 0.99867 0.0
O221 O 0.36866 0.3988 0.98219 0.0
O222 O 0.3769 0.37655 1.00455 0.0
C223 C 0.36501 0.3107 1.00277 0.0
N224 N 0.39461 0.31627 1.00551 0.0
C225 C 0.40484 0.26362 1.00871 0.0
C226 C 0.37445 0.25733 1.00605 0.0
C227 C 0.35445 0.28098 1.00307 0.0
C228 C 0.41401 0.29372 1.00848 0.0
H229 H 0.34958 0.32875 1.00034 0.0
C230 C 0.36069 0.39233 0.99566 0.0
O231 O 0.40055 0.41348 0.95419 0.0
O232 O 0.38631 0.36598 0.95509 0.0
N233 N 0.45083 0.33087 1.0089 0.0
C234 C 0.47971 0.34062 1.01029 0.0
C235 C 0.50274 0.3196 1.01262 0.0
C236 C 0.49575 0.28891 1.01362 0.0
C237 C 0.46576 0.2795 1.01264 0.0
C238 C 0.44375 0.30148 1.01042 0.0
H239 H 0.48519 0.36418 1.00932 0.0
O240 O 0.44639 0.36769 0.96465 0.0
O241 O 0.4193 0.352 0.98385 0.0
O242 O 0.43205 0.41575 0.98523 0.0
O243 O 0.43738 0.39232 1.00742 0.0
C244 C 0.45698 0.24908 1.01299 0.0
C245 C 0.42656 0.24115 1.01112 0.0
H246 H 0.36629 0.23439 1.0061 0.0
H247 H 0.33098 0.2763 1.0009 0.0
H248 H 0.52586 0.32695 1.01336 0.0
H249 H 0.51366 0.27275 1.01471 0.0
H250 H 0.47346 0.23147 1.01416 0.0
H251 H 0.42023 0.21765 1.01119 0.0
Mn252 Mn 0.87546 0.16176 0.22595 0.0
Mn253 Mn 0.9023 0.17059 0.26128 0.0
C254 C 0.91177 0.1985 0.23095 0.0
C255 C 0.87579 0.14195 0.20138 0.0
C256 C 0.84104 0.19284 0.25152 0.0
O257 O 0.86397 0.12158 0.23608 0.0
O258 O 0.88484 0.13007 0.25877 0.0
C259 C 0.95193 0.12629 0.26061 0.0
N260 N 0.94195 0.15476 0.26315 0.0
C261 C 0.9897 0.16966 0.27338 0.0
C262 C 1.00059 0.14051 0.27084 0.0
C263 C 0.98168 0.11881 0.26431 0.0
C264 C 0.96013 0.17597 0.26911 0.0
H265 H 0.93721 0.10943 0.25589 0.0
C266 C 0.87062 0.11328 0.2495 0.0
O267 O 0.85165 0.15269 0.20749 0.0
O268 O 0.8995 0.14081 0.2099 0.0
N269 N 0.91999 0.20868 0.26562 0.0
C270 C 0.90629 0.23596 0.26675 0.0
C271 C 0.9218 0.26005 0.27334 0.0
C272 C 0.95097 0.25567 0.27893 0.0
C273 C 0.96485 0.22754 0.27734 0.0
C274 C 0.94831 0.20443 0.27063 0.0
H275 H 0.88346 0.23914 0.26296 0.0
O276 O 0.89372 0.20076 0.21955 0.0
O277 O 0.90792 0.17484 0.23935 0.0
O278 O 0.84307 0.18436 0.23788 0.0
O279 O 0.86168 0.1882 0.26116 0.0
C280 C 0.99432 0.22144 0.28226 0.0
C281 C 0.0069 0.19264 0.28007 0.0
H282 H 0.02339 0.13454 0.27387 0.0
H283 H 0.9899 0.09626 0.26234 0.0
H284 H 0.91107 0.28177 0.27441 0.0
H285 H 0.96265 0.27419 0.28427 0.0
H286 H 0.00766 0.23886 0.28753 0.0
H287 H 0.02978 0.1884 0.28364 0.0
Mn288 Mn 0.90367 0.6217 0.9749 0.0
Mn289 Mn 0.91025 0.65131 1.00982 0.0
C290 C 0.93922 0.6592 0.97966 0.0
C291 C 0.88442 0.61936 0.95028 0.0
C292 C 0.93719 0.5915 1.00122 0.0
O293 O 0.86365 0.60933 0.98461 0.0
O294 O 0.87216 0.62878 1.00753 0.0
C295 C 0.86006 0.69479 1.00743 0.0
N296 N 0.88935 0.68874 1.01064 0.0
C297 C 0.89746 0.73908 0.01961 0.0
C298 C 0.86736 0.74587 1.01643 0.0
C299 C 0.84864 0.72368 1.01021 0.0
C300 C 0.9077 0.71009 1.0163 0.0
H301 H 0.8455 0.67765 1.00287 0.0
C302 C 0.85577 0.61424 0.99823 0.0
O303 O 0.89604 0.59614 0.95687 0.0
O304 O 0.88255 0.64376 0.95826 0.0
N305 N 0.94545 0.67412 1.01428 0.0
C306 C 0.97411 0.66413 1.01624 0.0
C307 C 0.9955 0.6832 0.02281 0.0
C308 C 0.98711 0.71218 0.02745 0.0
C309 C 0.95769 0.72226 0.02498 0.0
C310 C 0.9373 0.70216 0.01851 0.0
H311 H 0.98041 0.64155 1.01311 0.0
O312 O 0.94233 0.64054 0.96856 0.0
O313 O 0.91514 0.65565 0.98784 0.0
O314 O 0.92661 0.59108 0.98789 0.0
O315 O 0.93295 0.61328 1.0103 0.0
C316 C 0.94763 0.75127 0.02891 0.0
C317 C 0.91767 0.75983 0.026 0.0
H318 H 0.85839 0.76803 0.01872 0.0
H319 H 0.82539 0.72875 1.00772 0.0
H320 H 0.01824 0.67537 0.0246 0.0
H321 H 1.00341 0.72645 0.03298 0.0
H322 H 0.96278 0.76726 0.0341 0.0
H323 H 0.91035 0.78233 0.02885 0.0
Mn324 Mn 0.13467 0.15993 0.72576 0.0
Mn325 Mn 0.10664 0.1693 0.76082 0.0
C326 C 0.09836 0.19678 0.73024 0.0
C327 C 0.13584 0.13932 0.70144 0.0
C328 C 0.1679 0.19185 0.75141 0.0
O329 O 0.14598 0.12015 0.73612 0.0
O330 O 0.1246 0.12888 0.75864 0.0
C331 C 0.05752 0.12446 0.75978 0.0
N332 N 0.06711 0.15303 0.7624 0.0
C333 C 0.0191 0.16723 0.77256 0.0
C334 C 0.0086 0.13798 0.76994 0.0
C335 C 0.02783 0.11657 0.76339 0.0
C336 C 0.04859 0.17398 0.7683 0.0
H337 H 0.07251 0.10781 0.7551 0.0
C338 C 0.13912 0.11204 0.74952 0.0
O339 O 0.15953 0.15048 0.70779 0.0
O340 O 0.11155 0.13846 0.70957 0.0
N341 N 0.08837 0.20721 0.76498 0.0
C342 C 0.1018 0.23458 0.76635 0.0
C343 C 0.08606 0.2583 0.77315 0.0
C344 C 0.05694 0.25345 0.77871 0.0
C345 C 0.04329 0.22531 0.77682 0.0
C346 C 0.06004 0.20257 0.76992 0.0
H347 H 0.12465 0.23807 0.76267 0.0
O348 O 0.11673 0.19867 0.71895 0.0
O349 O 0.1017 0.17325 0.7388 0.0
O350 O 0.16632 0.18285 0.73785 0.0
O351 O 0.14708 0.18741 0.76097 0.0
C352 C 0.01398 0.21871 0.78179 0.0
C353 C 1.00166 0.18987 0.7794 0.0
H354 H 0.98588 0.13168 0.77294 0.0
H355 H 0.01992 0.09393 0.76137 0.0
H356 H 0.09661 0.28006 0.77444 0.0
H357 H 0.0451 0.27163 0.78424 0.0
H358 H 1.00052 0.23582 0.78725 0.0
H359 H 0.97887 0.18527 0.78298 0.0
Mn360 Mn 0.59866 0.3877 0.47531 0.0
Mn361 Mn 0.59127 0.35911 0.51038 0.0
C362 C 0.56181 0.35154 0.48023 0.0
C363 C 0.61787 0.38847 0.45066 0.0
C364 C 0.56831 0.42067 0.5016 0.0
O365 O 0.63914 0.39883 0.48512 0.0
O366 O 0.63137 0.37741 0.50769 0.0
C367 C 0.63638 0.31035 0.50839 0.0
N368 N 0.60794 0.31968 0.51153 0.0
C369 C 0.5949 0.27147 0.52183 0.0
C370 C 0.62403 0.26124 0.51868 0.0
C371 C 0.64477 0.2807 0.5118 0.0
C372 C 0.58759 0.30093 0.51775 0.0
H373 H 0.65255 0.32552 0.50345 0.0
C374 C 0.6478 0.39199 0.49843 0.0
O375 O 0.60724 0.41235 0.45708 0.0
O376 O 0.61902 0.36433 0.45887 0.0
N377 N 0.55381 0.34046 0.51508 0.0
C378 C 0.52646 0.35366 0.51698 0.0
C379 C 0.50338 0.33763 0.52414 0.0
C380 C 0.50887 0.30848 0.52953 0.0
C381 C 0.53698 0.29512 0.52714 0.0
C382 C 0.55904 0.31213 0.51988 0.0
H383 H 0.52255 0.37653 0.51343 0.0
O384 O 0.5594 0.37005 0.46903 0.0
O385 O 0.58589 0.35461 0.48844 0.0
O386 O 0.57667 0.41951 0.48791 0.0
O387 O 0.57297 0.39943 0.51091 0.0
C388 C 0.54421 0.26586 0.53199 0.0
C389 C 0.57294 0.2538 0.52905 0.0
H390 H 0.63074 0.23856 0.52153 0.0
H391 H 0.66731 0.27299 0.50936 0.0
H392 H 0.48164 0.34798 0.52583 0.0
H393 H 0.49122 0.29645 0.53536 0.0
H394 H 0.52766 0.25225 0.53777 0.0
H395 H 0.57801 0.23104 0.53253 0.0
Mn396 Mn 0.37205 0.85053 0.22417 0.0
Mn397 Mn 0.3994 0.84322 0.2595 0.0
C398 C 0.40836 0.81399 0.2294 0.0
C399 C 0.37187 0.86956 0.19951 0.0
C400 C 0.33832 0.82004 0.25011 0.0
O401 O 0.36035 0.89095 0.23392 0.0
O402 O 0.38124 0.88333 0.25666 0.0
C403 C 0.44836 0.88819 0.25808 0.0
N404 N 0.43882 0.85975 0.26105 0.0
C405 C 0.4867 0.84632 0.27162 0.0
C406 C 0.49715 0.87545 0.26863 0.0
C407 C 0.47796 0.8964 0.26171 0.0
C408 C 0.45731 0.83922 0.26734 0.0
H409 H 0.43339 0.9045 0.25309 0.0
C410 C 0.36677 0.89964 0.24729 0.0
O411 O 0.34789 0.85883 0.20577 0.0
O412 O 0.39575 0.87103 0.2079 0.0
N413 N 0.41771 0.80566 0.2643 0.0
C414 C 0.4043 0.77837 0.26606 0.0
C415 C 0.41992 0.75517 0.27334 0.0
C416 C 0.44893 0.76046 0.27896 0.0
C417 C 0.46259 0.78847 0.27665 0.0
C418 C 0.44592 0.8107 0.26932 0.0
H419 H 0.38153 0.77459 0.26232 0.0
O420 O 0.39025 0.81139 0.21804 0.0
O421 O 0.40475 0.83801 0.2376 0.0
O422 O 0.34001 0.82826 0.23643 0.0
O423 O 0.35909 0.825 0.25964 0.0
C424 C 0.49184 0.79542 0.28161 0.0
C425 C 0.50411 0.82415 0.27884 0.0
H426 H 0.5198 0.88201 0.27165 0.0
H427 H 0.48583 0.91893 0.2594 0.0
H428 H 0.40938 0.7335 0.27493 0.0
H429 H 0.46068 0.74268 0.28484 0.0
H430 H 0.50526 0.77869 0.28737 0.0
H431 H 0.52683 0.82903 0.28245 0.0
Mn432 Mn 0.90878 0.39251 0.55937 0.0
Mn433 Mn 0.91809 0.36536 0.52412 0.0
C434 C 0.9452 0.35573 0.55468 0.0
C435 C 0.88774 0.39308 0.58366 0.0
C436 C 0.94078 0.42643 0.53397 0.0
O437 O 0.86914 0.4044 0.54893 0.0
O438 O 0.87756 0.38292 0.52638 0.0
C439 C 0.87367 0.31583 0.52456 0.0
N440 N 0.9022 0.32574 0.52217 0.0
C441 C 0.91713 0.278 0.51192 0.0
C442 C 0.88792 0.26718 0.51431 0.0
C443 C 0.86617 0.28611 0.52077 0.0
C444 C 0.92346 0.30753 0.51629 0.0
H445 H 0.85678 0.33058 0.52921 0.0
C446 C 0.86087 0.39749 0.53554 0.0
O447 O 0.89929 0.41684 0.57757 0.0
O448 O 0.88685 0.36908 0.57532 0.0
N449 N 0.95621 0.34756 0.52001 0.0
C450 C 0.98355 0.36119 0.51903 0.0
C451 C 0.00768 0.34568 0.51248 0.0
C452 C 1.00331 0.31657 0.5068 0.0
C453 C 0.97513 0.30273 0.50827 0.0
C454 C 0.95198 0.31927 0.51492 0.0
H455 H 0.98673 0.38399 0.52286 0.0
O456 O 0.9473 0.37372 0.56613 0.0
O457 O 0.92183 0.35982 0.5461 0.0
O458 O 0.93223 0.42445 0.54759 0.0
O459 O 0.93584 0.40593 0.5243 0.0
C460 C 0.96902 0.27333 0.50324 0.0
C461 C 0.94016 0.26079 0.50528 0.0
H462 H 0.88194 0.24441 0.5112 0.0
H463 H 0.84357 0.27795 0.52262 0.0
H464 H 0.02943 0.35637 0.51152 0.0
H465 H 0.02185 0.3049 0.5015 0.0
H466 H 0.98647 0.25998 0.49799 0.0
H467 H 0.93591 0.23795 0.50164 0.0
Mn468 Mn 0.37017 0.15454 0.313 0.0
Mn469 Mn 0.40605 0.16422 0.27982 0.0
C470 C 0.40918 0.18914 0.31103 0.0
C471 C 0.36398 0.13297 0.33688 0.0
C472 C 0.34524 0.19128 0.28636 0.0
O473 O 0.35878 0.11607 0.30152 0.0
O474 O 0.38246 0.12642 0.27977 0.0
C475 C 0.44773 0.11267 0.28268 0.0
N476 N 0.44312 0.14263 0.28052 0.0
C477 C 0.49623 0.15174 0.27864 0.0
C478 C 0.50154 0.12097 0.28071 0.0
C479 C 0.47717 0.10136 0.28275 0.0
C480 C 0.46638 0.16167 0.27847 0.0
H481 H 0.42913 0.09751 0.28438 0.0
C482 C 0.36599 0.10947 0.28797 0.0
O483 O 0.34183 0.14559 0.32981 0.0
O484 O 0.38928 0.13112 0.32967 0.0
N485 N 0.43024 0.19949 0.27814 0.0
C486 C 0.42134 0.22872 0.27715 0.0
C487 C 0.44309 0.25134 0.27573 0.0
C488 C 0.47364 0.24361 0.27524 0.0
C489 C 0.48221 0.21333 0.27574 0.0
C490 C 0.45953 0.19175 0.27705 0.0
H491 H 0.39788 0.23475 0.27776 0.0
O492 O 0.38881 0.19196 0.32135 0.0
O493 O 0.40609 0.16629 0.30198 0.0
O494 O 0.3425 0.17951 0.29937 0.0
O495 O 0.36848 0.18769 0.27813 0.0
C496 C 0.51241 0.2038 0.27584 0.0
C497 C 0.51941 0.17304 0.27718 0.0
H498 H 0.52424 0.11221 0.28094 0.0
H499 H 0.48108 0.0776 0.28445 0.0
H500 H 0.43641 0.27471 0.27535 0.0
H501 H 0.49033 0.26113 0.27499 0.0
H502 H 0.53048 0.21994 0.27542 0.0
H503 H 0.54272 0.1661 0.27745 0.0
Mn504 Mn 0.60031 0.61892 0.06351 0.0
Mn505 Mn 0.5893 0.6523 0.02977 0.0
C506 C 0.56527 0.65755 0.06102 0.0
C507 C 0.62274 0.61473 0.08731 0.0
C508 C 0.56481 0.5907 0.03736 0.0
O509 O 0.63869 0.60754 0.05191 0.0
O510 O 0.62865 0.63137 0.03009 0.0
C511 C 0.63762 0.69788 0.03155 0.0
N512 N 0.60805 0.69091 0.02973 0.0
C513 C 0.59487 0.74307 0.02715 0.0
C514 C 0.6252 0.75079 0.0289 0.0
C515 C 0.64667 0.72808 0.0311 0.0
C516 C 0.58725 0.71254 0.02746 0.0
H517 H 0.65417 0.68053 0.0334 0.0
C518 C 0.64571 0.61527 0.03846 0.0
O519 O 0.61024 0.59195 0.08071 0.0
O520 O 0.62391 0.63959 0.07968 0.0
N521 N 0.55226 0.67368 0.02797 0.0
C522 C 0.52374 0.66258 0.02753 0.0
C523 C 0.49947 0.68247 0.026 0.0
C524 C 0.50482 0.71347 0.02496 0.0
C525 C 0.53439 0.72429 0.02514 0.0
C526 C 0.5577 0.70338 0.02643 0.0
H527 H 0.51949 0.6388 0.0286 0.0
O528 O 0.5628 0.63793 0.07174 0.0
O529 O 0.58779 0.65369 0.05189 0.0
O530 O 0.57552 0.58967 0.05065 0.0
O531 O 0.56855 0.61311 0.02861 0.0
C532 C 0.54158 0.75508 0.02493 0.0
C533 C 0.57177 0.7645 0.02574 0.0
H534 H 0.63221 0.7741 0.02877 0.0
H535 H 0.67011 0.73387 0.03255 0.0
H536 H 0.47669 0.67399 0.02592 0.0
H537 H 0.48601 0.72878 0.02444 0.0
H538 H 0.52397 0.77168 0.02493 0.0
H539 H 0.57687 0.78829 0.02579 0.0
Mn540 Mn 0.13391 0.85119 0.81061 0.0
Mn541 Mn 0.10663 0.84195 0.77538 0.0
C542 C 0.09769 0.81432 0.80589 0.0
C543 C 0.13492 0.87169 0.83496 0.0
C544 C 0.16774 0.81954 0.78509 0.0
O545 O 0.14538 0.89103 0.80033 0.0
O546 O 0.1243 0.88245 0.77772 0.0
C547 C 0.0572 0.88647 0.77617 0.0
N548 N 0.06704 0.85797 0.77359 0.0
C549 C 0.01942 0.84353 0.76305 0.0
C550 C 0.00866 0.8727 0.76565 0.0
C551 C 0.02756 0.89419 0.77236 0.0
C552 C 0.04882 0.83694 0.76751 0.0
H553 H 0.07195 0.90318 0.78098 0.0
C554 C 0.13866 0.89923 0.78693 0.0
O555 O 0.15861 0.86055 0.82863 0.0
O556 O 0.11065 0.87256 0.82682 0.0
N557 N 0.08871 0.80395 0.77106 0.0
C558 C 0.10238 0.77668 0.76972 0.0
C559 C 0.08703 0.75294 0.76272 0.0
C560 C 0.05805 0.75765 0.75696 0.0
C561 C 0.04413 0.78566 0.75883 0.0
C562 C 0.0605 0.80844 0.76592 0.0
H563 H 0.12514 0.77331 0.77356 0.0
O564 O 0.11582 0.81238 0.81728 0.0
O565 O 0.10121 0.8379 0.79738 0.0
O566 O 0.16578 0.82834 0.79866 0.0
O567 O 0.14718 0.82409 0.77541 0.0
C568 C 0.0149 0.79209 0.75367 0.0
C569 C 1.00233 0.82084 0.75604 0.0
H570 H 0.98599 0.87888 0.76248 0.0
H571 H 0.01945 0.91676 0.77436 0.0
H572 H 0.09777 0.73127 0.76146 0.0
H573 H 0.04652 0.73945 0.75128 0.0
H574 H 1.00172 0.77495 0.74807 0.0
H575 H 0.97961 0.82532 0.75229 0.0
Mn576 Mn 0.60254 0.89249 0.55954 0.0
Mn577 Mn 0.5927 0.86424 0.52451 0.0
C578 C 0.56588 0.85575 0.55518 0.0
C579 C 0.62363 0.89358 0.58383 0.0
C580 C 0.56989 0.92548 0.53399 0.0
O581 O 0.64213 0.9041 0.54894 0.0
O582 O 0.63299 0.88241 0.52653 0.0
C583 C 0.63786 0.81538 0.5253 0.0
N584 N 0.60919 0.82481 0.52282 0.0
C585 C 0.59516 0.77679 0.51259 0.0
C586 C 0.62451 0.76645 0.51507 0.0
C587 C 0.64588 0.78576 0.52158 0.0
C588 C 0.58828 0.8062 0.51695 0.0
H589 H 0.65447 0.83044 0.52995 0.0
C590 C 0.64999 0.89708 0.53551 0.0
O591 O 0.61218 0.91725 0.57759 0.0
O592 O 0.62449 0.86941 0.57561 0.0
N593 N 0.55485 0.84573 0.52052 0.0
C594 C 0.52736 0.85897 0.51934 0.0
C595 C 0.50362 0.84309 0.51264 0.0
C596 C 0.50857 0.81404 0.50699 0.0
C597 C 0.53686 0.8006 0.50868 0.0
C598 C 0.55959 0.81747 0.51549 0.0
H599 H 0.52378 0.88178 0.5231 0.0
O600 O 0.56401 0.87407 0.56651 0.0
O601 O 0.58921 0.8594 0.54653 0.0
O602 O 0.57908 0.9241 0.54754 0.0
O603 O 0.57437 0.90455 0.52448 0.0
C604 C 0.54359 0.77141 0.50355 0.0
C605 C 0.57254 0.75926 0.50579 0.0
H606 H 0.63091 0.7438 0.51197 0.0
H607 H 0.66859 0.77798 0.52349 0.0
H608 H 0.48177 0.8535 0.51149 0.0
H609 H 0.49042 0.80218 0.50146 0.0
H610 H 0.52651 0.75791 0.4981 0.0
H611 H 0.57725 0.73654 0.50211 0.0
Mn612 Mn 0.37741 0.35072 0.81019 0.0
Mn613 Mn 0.4062 0.3425 0.77521 0.0
C614 C 0.41402 0.31416 0.80558 0.0
C615 C 0.37576 0.37068 0.83463 0.0
C616 C 0.34505 0.31897 0.78415 0.0
O617 O 0.36621 0.39077 0.80021 0.0
O618 O 0.38711 0.38243 0.77756 0.0
C619 C 0.45408 0.38862 0.77684 0.0
N620 N 0.44528 0.35991 0.77391 0.0
C621 C 0.49378 0.34738 0.76378 0.0
C622 C 0.50346 0.37681 0.76671 0.0
C623 C 0.48359 0.39744 0.77339 0.0
C624 C 0.46444 0.33969 0.76787 0.0
H625 H 0.4386 0.40468 0.78163 0.0
C626 C 0.37268 0.39906 0.78682 0.0
O627 O 0.35221 0.35956 0.82813 0.0
O628 O 0.40022 0.37166 0.82665 0.0
N629 N 0.42558 0.30525 0.77083 0.0
C630 C 0.41294 0.27756 0.7692 0.0
C631 C 0.42928 0.25462 0.76209 0.0
C632 C 0.45823 0.26052 0.75657 0.0
C633 C 0.47117 0.28889 0.75885 0.0
C634 C 0.45378 0.31087 0.76596 0.0
H635 H 0.39027 0.27324 0.77292 0.0
O636 O 0.39533 0.31174 0.81672 0.0
O637 O 0.41077 0.33799 0.79721 0.0
O638 O 0.34587 0.32841 0.79766 0.0
O639 O 0.36639 0.32317 0.77486 0.0
C640 C 0.50039 0.29642 0.75407 0.0
C641 C 0.51191 0.32547 0.7568 0.0
H642 H 0.52604 0.38383 0.76384 0.0
H643 H 0.49086 0.4202 0.77565 0.0
H644 H 0.41933 0.23263 0.76058 0.0
H645 H 0.47054 0.24292 0.75084 0.0
H646 H 0.51436 0.27989 0.74849 0.0
H647 H 0.53463 0.33081 0.75335 0.0
Mn648 Mn 0.91468 0.12012 0.06335 0.0
Mn649 Mn 0.91891 0.14533 0.02748 0.0
C650 C 0.95013 0.15668 0.05688 0.0
C651 C 0.89725 0.12091 0.08837 0.0
C652 C 0.94348 0.08506 0.03725 0.0
O653 O 0.87368 0.1077 0.05455 0.0
O654 O 0.87921 0.12675 0.03119 0.0
C655 C 0.87353 0.1939 0.02895 0.0
N656 N 0.90189 0.18451 0.02569 0.0
C657 C 0.91455 0.23237 1.01486 0.0
C658 C 0.88548 0.24265 0.01811 0.0
C659 C 0.86496 0.22339 0.0253 0.0
C660 C 0.92198 0.20303 0.01908 0.0
H661 H 0.85758 0.17892 0.0342 0.0
C662 C 0.86399 0.11289 0.04123 0.0
O663 O 0.908 0.09683 0.08221 0.0
O664 O 0.89505 0.1444 0.07974 0.0
N665 N 0.95598 0.16376 0.02192 0.0
C666 C 0.98337 0.15062 0.02009 0.0
C667 C 0.00628 0.16642 1.01268 0.0
C668 C 1.00061 0.19535 1.00707 0.0
C669 C 0.97247 0.20872 1.00945 0.0
C670 C 0.95052 0.19184 1.01686 0.0
H671 H 0.9875 0.12796 0.0239 0.0
O672 O 0.954 0.13927 0.06843 0.0
O673 O 0.92558 0.1521 0.04921 0.0
O674 O 0.93641 0.08751 0.05108 0.0
O675 O 0.93752 0.10524 0.02757 0.0
C676 C 0.96518 0.23796 1.00459 0.0
C677 C 0.9364 0.24997 1.00751 0.0
H678 H 0.87867 0.26525 1.01515 0.0
H679 H 0.84248 0.23114 0.02783 0.0
H680 H 0.02803 0.1561 1.01102 0.0
H681 H 0.01815 0.20718 1.00106 0.0
H682 H 0.98167 0.25155 0.99876 0.0
H683 H 0.93126 0.27268 1.00396 0.0
Mn684 Mn 0.13846 0.65497 0.3125 0.0
Mn685 Mn 0.10374 0.66601 0.27911 0.0
C686 C 0.09986 0.69003 0.31049 0.0
C687 C 0.14373 0.63258 0.3362 0.0
C688 C 0.16553 0.69054 0.28616 0.0
O689 O 0.14943 0.61672 0.30071 0.0
O690 O 0.12439 0.62643 0.27919 0.0
C691 C 0.05776 0.61814 0.28125 0.0
N692 N 0.06497 0.64766 0.27943 0.0
C693 C 0.01287 0.66145 0.27743 0.0
C694 C 1.00489 0.63118 0.27918 0.0
C695 C 0.02744 0.60943 0.28109 0.0
C696 C 0.04348 0.66873 0.27742 0.0
H697 H 0.075 0.60139 0.28287 0.0
C698 C 0.14103 0.60953 0.28739 0.0
O699 O 0.16622 0.64505 0.32935 0.0
O700 O 0.11856 0.63127 0.32883 0.0
N701 N 0.08273 0.70327 0.27757 0.0
C702 C 0.09413 0.73168 0.27712 0.0
C703 C 0.07448 0.7562 0.27596 0.0
C704 C 0.04339 0.75122 0.27529 0.0
C705 C 0.03224 0.72176 0.2754 0.0
C706 C 0.05292 0.69818 0.27635 0.0
H707 H 0.11798 0.73567 0.27796 0.0
O708 O 0.1199 0.69237 0.32101 0.0
O709 O 0.10321 0.66753 0.30127 0.0
O710 O 0.16701 0.67999 0.29946 0.0
O711 O 0.14298 0.68643 0.27755 0.0
C712 C 1.00138 0.71493 0.27553 0.0
C713 C 0.99166 0.68483 0.27633 0.0
H714 H 0.98151 0.62444 0.2793 0.0
H715 H 0.02145 0.58605 0.28254 0.0
H716 H 0.0832 0.77889 0.27593 0.0
H717 H 0.02831 0.77021 0.27516 0.0
H718 H 0.985 0.73275 0.27581 0.0
H719 H 0.96781 0.68 0.27664 0.0
Mn720 Mn 0.60842 0.12361 0.97599 0.0
Mn721 Mn 0.60201 0.15313 1.0109 0.0
C722 C 0.57301 0.16111 0.98074 0.0
C723 C 0.62732 0.12108 0.95129 0.0
C724 C 0.57423 0.09386 1.00232 0.0
O725 O 0.64851 0.11145 0.98559 0.0
O726 O 0.63942 0.12924 1.00882 0.0
C727 C 0.65365 0.19489 1.00848 0.0
N728 N 0.62415 0.18987 1.01167 0.0
C729 C 0.61758 0.24072 0.02021 0.0
C730 C 0.64791 0.24645 1.01708 0.0
C731 C 0.66597 0.22348 1.01108 0.0
C732 C 0.60644 0.21198 1.0171 0.0
H733 H 0.6677 0.1772 1.00407 0.0
C734 C 0.65588 0.1152 0.99936 0.0
O735 O 0.61581 0.09791 0.95797 0.0
O736 O 0.62931 0.14553 0.95923 0.0
N737 N 0.56757 0.17716 1.01529 0.0
C738 C 0.53866 0.16807 1.01741 0.0
C739 C 0.51789 0.188 0.02384 0.0
C740 C 0.52714 0.21692 0.02817 0.0
C741 C 0.55683 0.226 0.0256 0.0
C742 C 0.57659 0.20506 0.01931 0.0
H743 H 0.53169 0.14556 1.01452 0.0
O744 O 0.56976 0.14228 0.96971 0.0
O745 O 0.59717 0.15768 0.9889 0.0
O746 O 0.58557 0.09308 0.98914 0.0
O747 O 0.57809 0.11585 1.01132 0.0
C748 C 0.56775 0.25482 0.02928 0.0
C749 C 0.59799 0.26232 0.02638 0.0
H750 H 0.65757 0.26838 0.01923 0.0
H751 H 0.68939 0.22772 1.00862 0.0
H752 H 0.49496 0.1809 0.02574 0.0
H753 H 0.51127 0.23196 0.03351 0.0
H754 H 0.55306 0.27146 0.03428 0.0
H755 H 0.606 0.28468 0.02906 0.0
Mn756 Mn 0.14372 0.35309 0.2213 0.0
Mn757 Mn 0.11155 0.34318 0.2554 0.0
C758 C 0.10532 0.31803 0.22435 0.0
C759 C 0.14721 0.37483 0.19734 0.0
C760 C 0.17339 0.31949 0.24756 0.0
O761 O 0.15511 0.39195 0.23261 0.0
O762 O 0.1307 0.38333 0.25445 0.0
C763 C 0.0637 0.38924 0.25366 0.0
N764 N 0.07212 0.36008 0.2556 0.0
C765 C 0.02077 0.34449 0.25874 0.0
C766 C 0.01154 0.37438 0.25687 0.0
C767 C 0.03312 0.39685 0.25433 0.0
C768 C 0.0516 0.33833 0.25822 0.0
H769 H 0.08019 0.40653 0.25156 0.0
C770 C 0.14684 0.39989 0.24587 0.0
O771 O 0.17019 0.36259 0.20387 0.0
O772 O 0.12255 0.37622 0.20513 0.0
N773 N 0.09206 0.30522 0.25764 0.0
C774 C 0.10453 0.27727 0.25808 0.0
C775 C 0.08589 0.25209 0.25983 0.0
C776 C 0.05471 0.25596 0.26107 0.0
C777 C 0.04249 0.285 0.26085 0.0
C778 C 0.06219 0.30927 0.25933 0.0
H779 H 0.12845 0.27414 0.25687 0.0
O780 O 0.12453 0.31532 0.21346 0.0
O781 O 0.10948 0.3408 0.2333 0.0
O782 O 0.17338 0.32847 0.23396 0.0
O783 O 0.15166 0.3244 0.25658 0.0
C784 C 0.01144 0.29071 0.26126 0.0
C785 C 1.00053 0.3204 0.26043 0.0
H786 H 0.98794 0.38027 0.25715 0.0
H787 H 0.02617 0.41994 0.25278 0.0
H788 H 0.09547 0.22975 0.25994 0.0
H789 H 0.04036 0.23642 0.26184 0.0
H790 H 0.99579 0.27228 0.2614 0.0
H791 H 0.97652 0.32433 0.26053 0.0
Mn792 Mn 0.90993 0.88685 0.47362 0.0
Mn793 Mn 0.91548 0.85732 0.50858 0.0
C794 C 0.94555 0.84958 0.47874 0.0
C795 C 0.8921 0.88861 0.44868 0.0
C796 C 0.94218 0.91734 0.50029 0.0
O797 O 0.86938 0.89902 0.48295 0.0
O798 O 0.87752 0.87982 0.50595 0.0
C799 C 0.86542 0.8138 0.50575 0.0
N800 N 0.8946 0.81987 0.50922 0.0
C801 C 0.90243 0.76957 0.51826 0.0
C802 C 0.87244 0.76274 0.51482 0.0
C803 C 0.85393 0.7849 0.50843 0.0
C804 C 0.91276 0.79855 0.51504 0.0
H805 H 0.851 0.83092 0.50107 0.0
C806 C 0.86128 0.89426 0.49656 0.0
O807 O 0.90303 0.91208 0.45536 0.0
O808 O 0.88981 0.86441 0.45678 0.0
N809 N 0.95054 0.83456 0.51336 0.0
C810 C 0.97909 0.84461 0.5156 0.0
C811 C 1.00026 0.82557 0.52237 0.0
C812 C 0.99174 0.79658 0.52692 0.0
C813 C 0.96243 0.78646 0.52417 0.0
C814 C 0.94227 0.80652 0.51751 0.0
H815 H 0.98546 0.86722 0.51257 0.0
O816 O 0.94902 0.86829 0.46771 0.0
O817 O 0.92113 0.85298 0.48667 0.0
O818 O 0.93198 0.91775 0.48688 0.0
O819 O 0.93804 0.8954 0.50926 0.0
C820 C 0.95226 0.75745 0.52802 0.0
C821 C 0.92242 0.74885 0.52484 0.0
H822 H 0.86341 0.74058 0.51704 0.0
H823 H 0.83077 0.77982 0.50574 0.0
H824 H 0.02292 0.83343 0.52437 0.0
H825 H 0.00788 0.7823 0.53257 0.0
H826 H 0.96724 0.74149 0.53334 0.0
H827 H 0.91501 0.72635 0.52763 0.0
Mn828 Mn 0.37798 0.66065 0.72734 0.0
Mn829 Mn 0.40699 0.66964 0.76221 0.0
C830 C 0.41433 0.69753 0.73171 0.0
C831 C 0.37636 0.64037 0.70299 0.0
C832 C 0.34564 0.69265 0.75328 0.0
O833 O 0.3671 0.62072 0.73749 0.0
O834 O 0.38806 0.62956 0.76009 0.0
C835 C 0.45505 0.62369 0.76068 0.0
N836 N 0.44617 0.65242 0.76348 0.0
C837 C 0.4948 0.6654 0.77331 0.0
C838 C 0.50456 0.63596 0.7705 0.0
C839 C 0.48466 0.61509 0.76404 0.0
C840 C 0.46534 0.67286 0.76932 0.0
H841 H 0.43957 0.60746 0.75603 0.0
C842 C 0.37366 0.61269 0.75092 0.0
O843 O 0.35274 0.65138 0.70948 0.0
O844 O 0.40085 0.63963 0.71096 0.0
N845 N 0.42627 0.70706 0.76636 0.0
C846 C 0.41354 0.73473 0.76789 0.0
C847 C 0.42993 0.75792 0.77476 0.0
C848 C 0.45904 0.75229 0.78015 0.0
C849 C 0.47204 0.72391 0.778 0.0
C850 C 0.45459 0.70168 0.77112 0.0
H851 H 0.39077 0.73886 0.76427 0.0
O852 O 0.39552 0.69964 0.72061 0.0
O853 O 0.41135 0.67381 0.74019 0.0
O854 O 0.34641 0.68293 0.73983 0.0
O855 O 0.36708 0.68881 0.76256 0.0
C856 C 0.50139 0.71663 0.78267 0.0
C857 C 0.51298 0.68756 0.78006 0.0
H858 H 0.52723 0.62911 0.7733 0.0
H859 H 0.492 0.59231 0.76186 0.0
H860 H 0.41993 0.7799 0.77619 0.0
H861 H 0.4714 0.77008 0.78571 0.0
H862 H 0.5154 0.73335 0.78808 0.0
H863 H 0.53579 0.6824 0.78344 0.0
Mn864 Mn 0.40045 0.1238 0.47304 0.0
Mn865 Mn 0.41192 0.1586 0.50641 0.0
C866 C 0.43565 0.16232 0.47498 0.0
C867 C 0.37784 0.1186 0.44934 0.0
C868 C 0.43686 0.097 0.49926 0.0
O869 O 0.36225 0.11289 0.48487 0.0
O870 O 0.37274 0.13724 0.50648 0.0
C871 C 0.36307 0.20356 0.50432 0.0
N872 N 0.39274 0.19699 0.50612 0.0
C873 C 0.40539 0.24939 0.50808 0.0
C874 C 0.37495 0.25672 0.50636 0.0
C875 C 0.3537 0.23369 0.50448 0.0
C876 C 0.41334 0.21895 0.50809 0.0
H877 H 0.34668 0.18597 0.50271 0.0
C878 C 0.35553 0.12089 0.49831 0.0
O879 O 0.39033 0.09607 0.45616 0.0
O880 O 0.37668 0.14376 0.45674 0.0
N881 N 0.44873 0.18044 0.50789 0.0
C882 C 0.47737 0.16967 0.50843 0.0
C883 C 0.50143 0.18988 0.50964 0.0
C884 C 0.49575 0.22087 0.5103 0.0
C885 C 0.46607 0.23137 0.51016 0.0
C886 C 0.44298 0.21015 0.50914 0.0
H887 H 0.48187 0.1459 0.50761 0.0
O888 O 0.43782 0.14224 0.46447 0.0
O889 O 0.4132 0.1591 0.48424 0.0
O890 O 0.42558 0.09525 0.4861 0.0
O891 O 0.43317 0.11972 0.50782 0.0
C892 C 0.45856 0.2621 0.51006 0.0
C893 C 0.42826 0.27113 0.50921 0.0
H894 H 0.3677 0.27995 0.50626 0.0
H895 H 0.33019 0.23916 0.50305 0.0
H896 H 0.52431 0.18167 0.50971 0.0
H897 H 0.51436 0.2364 0.51043 0.0
H898 H 0.47595 0.27895 0.50988 0.0
H899 H 0.42289 0.29486 0.50893 0.0
Mn900 Mn 0.63808 0.6557 0.22317 0.0
Mn901 Mn 0.60384 0.66799 0.25658 0.0
C902 C 0.59972 0.69109 0.22509 0.0
C903 C 0.64246 0.63255 0.19955 0.0
C904 C 0.66582 0.69178 0.2492 0.0
O905 O 0.64894 0.61769 0.2352 0.0
O906 O 0.62399 0.62821 0.25666 0.0
C907 C 0.55728 0.62061 0.25488 0.0
N908 N 0.56485 0.65009 0.2565 0.0
C909 C 0.51295 0.66454 0.25857 0.0
C910 C 0.50459 0.63432 0.25704 0.0
C911 C 0.52687 0.61226 0.2552 0.0
C912 C 0.54364 0.67146 0.25844 0.0
H913 H 0.5743 0.60361 0.25331 0.0
C914 C 0.64042 0.61092 0.24857 0.0
O915 O 0.66527 0.64502 0.20614 0.0
O916 O 0.61754 0.63167 0.20714 0.0
N917 N 0.58328 0.70555 0.25794 0.0
C918 C 0.59501 0.73383 0.25818 0.0
C919 C 0.57566 0.7586 0.25929 0.0
C920 C 0.54453 0.754 0.2601 0.0
C921 C 0.53304 0.72467 0.26016 0.0
C922 C 0.55343 0.70083 0.25928 0.0
H923 H 0.6189 0.73752 0.25724 0.0
O924 O 0.61959 0.693 0.21447 0.0
O925 O 0.60313 0.66887 0.23444 0.0
O926 O 0.66708 0.68094 0.23594 0.0
O927 O 0.64334 0.68799 0.25788 0.0
C928 C 0.50211 0.7182 0.26016 0.0
C929 C 0.49202 0.68819 0.25959 0.0
H930 H 0.48113 0.62785 0.25704 0.0
H931 H 0.52059 0.58891 0.25391 0.0
H932 H 0.58465 0.78119 0.25919 0.0
H933 H 0.52967 0.77319 0.26025 0.0
H934 H 0.48596 0.73621 0.25977 0.0
H935 H 0.46812 0.68364 0.25937 0.0
Mn936 Mn 0.10478 0.88447 0.97261 0.0
Mn937 Mn 0.09885 0.85152 1.00674 0.0
C938 C 0.07031 0.84598 0.9764 0.0
C939 C 0.12307 0.88878 0.94795 0.0
C940 C 0.07101 0.91161 0.99977 0.0
O941 O 0.14474 0.89614 0.98259 0.0
O942 O 0.13638 0.87558 1.00538 0.0
C943 C 0.15043 0.80997 1.00351 0.0
N944 N 0.12068 0.81456 1.00627 0.0
C945 C 0.11224 0.76159 1.00955 0.0
C946 C 0.14282 0.75632 1.00686 0.0
C947 C 0.16199 0.78063 1.00382 0.0
C948 C 0.10207 0.79136 1.00929 0.0
H949 H 0.16524 0.82853 1.00105 0.0
C950 C 0.15245 0.89086 0.99621 0.0
O951 O 0.11161 0.91152 0.95505 0.0
O952 O 0.1258 0.86399 0.95553 0.0
N953 N 0.06404 0.82724 1.00981 0.0
C954 C 0.03486 0.83603 1.01124 0.0
C955 C 0.01255 0.81426 1.01354 0.0
C956 C 0.02058 0.78384 1.01451 0.0
C957 C 0.05086 0.77542 1.01357 0.0
C958 C 0.07211 0.79812 1.0113 0.0
H959 H 0.02857 0.85938 1.01025 0.0
O960 O 0.0663 0.86568 0.96586 0.0
O961 O 0.09429 0.84946 0.98467 0.0
O962 O 0.08171 0.91344 0.98648 0.0
O963 O 0.07523 0.88892 1.00828 0.0
C964 C 0.06065 0.74531 1.014 0.0
C965 C 0.09131 0.73841 1.01207 0.0
H966 H 0.15176 0.73368 1.00694 0.0
H967 H 0.18559 0.77674 1.00164 0.0
H968 H 0.98919 0.82082 1.01425 0.0
H969 H 1.00321 0.76712 1.01548 0.0
H970 H 0.04476 0.72718 1.01539 0.0
H971 H 0.09846 0.71515 1.01222 0.0
Mn972 Mn 0.86895 0.35471 0.72048 0.0
Mn973 Mn 0.90336 0.34492 0.75407 0.0
C974 C 0.90733 0.31948 0.72305 0.0
C975 C 0.86503 0.37576 0.69631 0.0
C976 C 0.84154 0.32013 0.74718 0.0
O977 O 0.85815 0.39377 0.73176 0.0
O978 O 0.88248 0.38428 0.75351 0.0
C979 C 0.94903 0.39301 0.75148 0.0
N980 N 0.94202 0.36354 0.75364 0.0
C981 C 0.99418 0.35025 0.75596 0.0
C982 C 1.00196 0.38048 0.75387 0.0
C983 C 0.97927 0.40196 0.75163 0.0
C984 C 0.96364 0.34274 0.75596 0.0
H985 H 0.93168 0.40955 0.74961 0.0
C986 C 0.8662 0.40114 0.74513 0.0
O987 O 0.84203 0.36397 0.70306 0.0
O988 O 0.88972 0.37735 0.70404 0.0
N989 N 0.92465 0.30789 0.75608 0.0
C990 C 0.91346 0.27943 0.75687 0.0
C991 C 0.93328 0.25514 0.75844 0.0
C992 C 0.96432 0.26039 0.75917 0.0
C993 C 0.97525 0.28992 0.75869 0.0
C994 C 0.95441 0.31327 0.75735 0.0
H995 H 0.88965 0.27522 0.75599 0.0
O996 O 0.88738 0.3167 0.71252 0.0
O997 O 0.90398 0.34243 0.73197 0.0
O998 O 0.83985 0.33046 0.73381 0.0
O999 O 0.86427 0.32433 0.75566 0.0
C1000 C 0.00607 0.29698 0.75859 0.0
C1001 C 0.01556 0.32711 0.75743 0.0
H1002 H 0.02529 0.3874 0.75375 0.0
H1003 H 0.9851 0.42531 0.74992 0.0
H1004 H 0.92473 0.23238 0.75875 0.0
H1005 H 0.97955 0.24154 0.75963 0.0
H1006 H 0.0226 0.27929 0.75862 0.0
H1007 H 0.03937 0.33211 0.75715 0.0
Mn1008 Mn 0.40965 0.88775 0.06162 0.0
Mn1009 Mn 0.41528 0.86129 0.02605 0.0
C1010 C 0.4453 0.85101 0.05586 0.0
C1011 C 0.3916 0.88801 0.08649 0.0
C1012 C 0.44077 0.92124 0.03562 0.0
O1013 O 0.36897 0.89987 0.05248 0.0
O1014 O 0.37611 0.88162 0.0291 0.0
C1015 C 0.36774 0.81483 0.02771 0.0
N1016 N 0.39657 0.82282 0.02453 0.0
C1017 C 0.40731 0.77397 1.01427 0.0
C1018 C 0.37773 0.76515 1.01744 0.0
C1019 C 0.35793 0.78561 0.0243 0.0
C1020 C 0.41598 0.8031 0.01828 0.0
H1021 H 0.35234 0.83071 0.03271 0.0
C1022 C 0.36022 0.89526 0.03896 0.0
O1023 O 0.40248 0.91186 0.08017 0.0
O1024 O 0.38956 0.86417 0.07808 0.0
N1025 N 0.45164 0.84095 0.02095 0.0
C1026 C 0.47958 0.85284 0.01901 0.0
C1027 C 0.5018 0.83576 1.01177 0.0
C1028 C 0.49493 0.80688 1.00642 0.0
C1029 C 0.46628 0.79481 1.00892 0.0
C1030 C 0.44503 0.81291 1.01614 0.0
H1031 H 0.48463 0.87548 0.02258 0.0
O1032 O 0.44873 0.869 0.06722 0.0
O1033 O 0.42099 0.85509 0.04791 0.0
O1034 O 0.43185 0.91973 0.04921 0.0
O1035 O 0.43573 0.90059 0.02602 0.0
C1036 C 0.45776 0.76577 1.00425 0.0
C1037 C 0.42846 0.75514 1.00718 0.0
H1038 H 0.36996 0.74277 1.01463 0.0
H1039 H 0.33507 0.77898 0.02676 0.0
H1040 H 0.52398 0.84509 1.01002 0.0
H1041 H 0.51194 0.79404 1.00054 0.0
H1042 H 0.47368 0.75129 0.99855 0.0
H1043 H 0.42236 0.73257 1.00378 0.0
Mn1044 Mn 0.86842 0.6556 0.81347 0.0
Mn1045 Mn 0.90308 0.66624 0.78003 0.0
C1046 C 0.90673 0.69099 0.81121 0.0
C1047 C 0.86426 0.63396 0.83749 0.0
C1048 C 0.84109 0.69061 0.78691 0.0
O1049 O 0.85784 0.6168 0.80193 0.0
O1050 O 0.8825 0.62669 0.78032 0.0
C1051 C 0.94911 0.61846 0.78244 0.0
N1052 N 0.94188 0.64792 0.78045 0.0
C1053 C 0.99397 0.66172 0.77843 0.0
C1054 C 1.00197 0.63149 0.78034 0.0
C1055 C 0.97943 0.60977 0.78234 0.0
C1056 C 0.96335 0.66897 0.77835 0.0
H1057 H 0.93188 0.60172 0.78414 0.0
C1058 C 0.86614 0.60965 0.78857 0.0
O1059 O 0.84132 0.64583 0.83073 0.0
O1060 O 0.88906 0.63263 0.82984 0.0
N1061 N 0.92408 0.70349 0.7783 0.0
C1062 C 0.91266 0.73188 0.77767 0.0
C1063 C 0.9323 0.75638 0.77635 0.0
C1064 C 0.96339 0.7514 0.77573 0.0
C1065 C 0.97456 0.72195 0.77604 0.0
C1066 C 0.9539 0.69839 0.77712 0.0
H1067 H 0.88881 0.73587 0.77849 0.0
O1068 O 0.88666 0.69346 0.82171 0.0
O1069 O 0.90351 0.66825 0.80214 0.0
O1070 O 0.83938 0.68009 0.80024 0.0
O1071 O 0.86385 0.68657 0.77844 0.0
C1072 C 1.00542 0.71516 0.77624 0.0
C1073 C 0.01517 0.68508 0.77721 0.0
H1074 H 0.02536 0.62477 0.7805 0.0
H1075 H 0.98543 0.58642 0.78392 0.0
H1076 H 0.92355 0.77906 0.77617 0.0
H1077 H 0.97845 0.77041 0.77545 0.0
H1078 H 0.02178 0.733 0.77646 0.0
H1079 H 0.03901 0.68028 0.77758 0.0
Mn1080 Mn 0.09899 0.12321 0.56456 0.0
Mn1081 Mn 0.0899 0.15505 0.53032 0.0
C1082 C 0.06418 0.16173 0.56122 0.0
C1083 C 0.11986 0.11991 0.58873 0.0
C1084 C 0.06573 0.09346 0.53818 0.0
O1085 O 0.13807 0.11149 0.5535 0.0
O1086 O 0.12984 0.13553 0.53151 0.0
C1087 C 0.13634 0.20251 0.53218 0.0
N1088 N 0.10714 0.19433 0.53013 0.0
C1089 C 0.09203 0.24582 0.52691 0.0
C1090 C 0.12197 0.2548 0.52888 0.0
C1091 C 0.14421 0.23303 0.53151 0.0
C1092 C 0.08561 0.21503 0.52741 0.0
H1093 H 0.15345 0.18587 0.53435 0.0
C1094 C 0.1462 0.11942 0.54022 0.0
O1095 O 0.10783 0.09688 0.58213 0.0
O1096 O 0.12174 0.14444 0.58087 0.0
N1097 N 0.05217 0.17483 0.52786 0.0
C1098 C 0.02413 0.16259 0.52732 0.0
C1099 C 0.99914 0.18144 0.52547 0.0
C1100 C 1.00328 0.2126 0.52425 0.0
C1101 C 0.03241 0.22458 0.52457 0.0
C1102 C 0.05649 0.20467 0.52617 0.0
H1103 H 0.02079 0.13869 0.52852 0.0
O1104 O 0.06113 0.14261 0.57212 0.0
O1105 O 0.08713 0.1574 0.55241 0.0
O1106 O 0.07456 0.09356 0.55181 0.0
O1107 O 0.07081 0.11507 0.52913 0.0
C1108 C 0.03838 0.25559 0.52419 0.0
C1109 C 0.06814 0.26625 0.52512 0.0
H1110 H 0.12805 0.27836 0.52862 0.0
H1111 H 0.16734 0.2398 0.53314 0.0
H1112 H 0.97672 0.17205 0.52528 0.0
H1113 H 0.98388 0.2271 0.52343 0.0
H1114 H 0.02008 0.27138 0.52399 0.0
H1115 H 0.07227 0.29024 0.52504 0.0
Mn1116 Mn 0.63467 0.35306 0.31271 0.0
Mn1117 Mn 0.60529 0.34731 0.27776 0.0
C1118 C 0.59746 0.31741 0.30767 0.0
C1119 C 0.63641 0.37105 0.33759 0.0
C1120 C 0.66507 0.32029 0.28616 0.0
O1121 O 0.64674 0.39357 0.30341 0.0
O1122 O 0.62814 0.38513 0.28031 0.0
C1123 C 0.56229 0.39786 0.28049 0.0
N1124 N 0.56807 0.36859 0.27706 0.0
C1125 C 0.51773 0.36126 0.26796 0.0
C1126 C 0.51122 0.39135 0.27135 0.0
C1127 C 0.53354 0.40965 0.27776 0.0
C1128 C 0.54657 0.35062 0.27125 0.0
H1129 H 0.57953 0.41212 0.28518 0.0
C1130 C 0.64233 0.4015 0.28976 0.0
O1131 O 0.65991 0.36008 0.33095 0.0
O1132 O 0.61221 0.37324 0.32949 0.0
N1133 N 0.58216 0.31245 0.273 0.0
C1134 C 0.59195 0.28381 0.27072 0.0
C1135 C 0.57273 0.26284 0.26392 0.0
C1136 C 0.5438 0.27163 0.25939 0.0
C1137 C 0.53401 0.30107 0.2621 0.0
C1138 C 0.55423 0.32101 0.26882 0.0
H1139 H 0.6145 0.27723 0.27375 0.0
O1140 O 0.61628 0.31403 0.31867 0.0
O1141 O 0.60077 0.34179 0.29968 0.0
O1142 O 0.66555 0.33091 0.2995 0.0
O1143 O 0.64313 0.3243 0.27716 0.0
C1144 C 0.50515 0.31154 0.25819 0.0
C1145 C 0.49685 0.34148 0.26135 0.0
H1146 H 0.48918 0.40062 0.26909 0.0
H1147 H 0.5287 0.43289 0.28042 0.0
H1148 H 0.58036 0.2401 0.26191 0.0
H1149 H 0.52923 0.25554 0.25387 0.0
H1150 H 0.48905 0.29667 0.25288 0.0
H1151 H 0.47445 0.34912 0.25852 0.0
H1152 H 0.9748 0.58971 0.02555 0.0
H1153 H 0.94287 0.53552 0.98851 0.0
H1154 H 0.00733 0.54898 0.03353 0.0
H1155 H 0.97442 0.49407 0.99693 0.0
H1156 H 0.05559 0.43538 1.00683 0.0
H1157 H 0.02413 0.4769 0.99853 0.0
H1158 H 0.00836 0.50177 0.04489 0.0
H1159 H 0.04092 0.46111 0.05311 0.0
C1160 C 0.97444 0.56896 0.01918 0.0
C1161 C 0.95617 0.56599 1.00635 0.0
C1162 C 0.99304 0.54542 0.02384 0.0
C1163 C 0.99362 0.51801 1.01594 0.0
C1164 C 0.97509 0.51495 1.00317 0.0
C1165 C 0.95677 0.53869 0.99839 0.0
C1166 C 0.04553 0.44982 1.01525 0.0
C1167 C 0.05094 0.44494 0.03065 0.0
C1168 C 0.02722 0.47355 1.01049 0.0
C1169 C 0.01347 0.49284 0.021 0.0
C1170 C 0.01891 0.48786 0.03641 0.0
C1171 C 0.03754 0.46438 0.04116 0.0
H1172 H 0.66706 0.72858 0.27391 0.0
H1173 H 0.72217 0.69754 0.23703 0.0
H1174 H 0.70776 0.76072 0.28245 0.0
H1175 H 0.76339 0.72877 0.24594 0.0
H1176 H 0.82145 0.80955 0.25615 0.0
H1177 H 0.77943 0.77902 0.24773 0.0
H1178 H 0.75542 0.76128 0.294 0.0
H1179 H 0.79685 0.79289 0.30241 0.0
C1180 C 0.68798 0.72835 0.26769 0.0
C1181 C 0.69123 0.71046 0.25473 0.0
C1182 C 0.71146 0.74673 0.27266 0.0
C1183 C 0.739 0.74753 0.26491 0.0
C1184 C 0.74237 0.7293 0.25205 0.0
C1185 C 0.71875 0.71115 0.24698 0.0
C1186 C 0.80709 0.79932 0.26455 0.0
C1187 C 0.81257 0.80374 0.27998 0.0
C1188 C 0.78308 0.78152 0.2597 0.0
C1189 C 0.76403 0.76733 0.27014 0.0
C1190 C 0.76929 0.7721 0.28559 0.0
C1191 C 0.79315 0.7902 0.29044 0.0
H1192 H 0.54018 0.46396 0.48474 0.0
H1193 H 0.55792 0.43781 0.53068 0.0
H1194 H 0.50994 0.50595 0.49369 0.0
H1195 H 0.52883 0.48041 0.53964 0.0
H1196 H 0.44946 0.53992 0.55139 0.0
H1197 H 0.47937 0.49807 0.54209 0.0
H1198 H 0.51115 0.55333 0.50541 0.0
H1199 H 0.48026 0.59469 0.51436 0.0
C1200 C 0.53798 0.4674 0.49675 0.0
C1201 C 0.55145 0.44742 0.50697 0.0
C1202 C 0.5207 0.49161 0.50191 0.0
C1203 C 0.51672 0.49667 0.51743 0.0
C1204 C 0.53075 0.47696 0.52762 0.0
C1205 C 0.5477 0.4526 0.52247 0.0
C1206 C 0.4628 0.54314 0.54133 0.0
C1207 C 0.46238 0.57072 0.53364 0.0
C1208 C 0.48017 0.51915 0.53602 0.0
C1209 C 0.4979 0.5222 0.52299 0.0
C1210 C 0.49748 0.54986 0.51533 0.0
C1211 C 0.47985 0.57372 0.52053 0.0
H1212 H 0.84195 0.28379 0.77198 0.0
H1213 H 0.78421 0.31423 0.73602 0.0
H1214 H 0.80186 0.25224 0.78153 0.0
H1215 H 0.74341 0.28364 0.74602 0.0
H1216 H 0.68537 0.20351 0.7585 0.0
H1217 H 0.72606 0.23428 0.74876 0.0
H1218 H 0.75596 0.25191 0.7942 0.0
H1219 H 0.71599 0.21996 0.80387 0.0
C1220 C 0.82056 0.28403 0.76617 0.0
C1221 C 0.81642 0.3016 0.75317 0.0
C1222 C 0.79738 0.266 0.77175 0.0
C1223 C 0.76916 0.26526 0.76463 0.0
C1224 C 0.76492 0.28309 0.7517 0.0
C1225 C 0.78829 0.30086 0.74599 0.0
C1226 C 0.70071 0.21384 0.76643 0.0
C1227 C 0.69741 0.20912 0.78199 0.0
C1228 C 0.72398 0.23177 0.76083 0.0
C1229 C 0.74443 0.24587 0.77063 0.0
C1230 C 0.74108 0.2411 0.78622 0.0
C1231 C 0.71802 0.22282 0.79181 0.0
H1232 H 0.95385 0.44425 0.50527 0.0
H1233 H 0.96867 0.46853 0.55175 0.0
H1234 H 0.98547 0.48576 0.49727 0.0
H1235 H 1.00132 0.50949 0.54376 0.0
H1236 H 0.03707 0.5972 0.52391 0.0
H1237 H 1.00354 0.55726 0.53214 0.0
H1238 H 0.03625 0.50041 0.49626 0.0
H1239 H 0.06889 0.54074 0.48769 0.0
C1240 C 0.96389 0.45843 0.51381 0.0
C1241 C 0.95866 0.45297 0.52917 0.0
C1242 C 0.98231 0.48215 0.50921 0.0
C1243 C 0.99633 0.50094 0.51984 0.0
C1244 C 0.99069 0.49578 0.53522 0.0
C1245 C 0.97199 0.47219 0.53982 0.0
C1246 C 0.03717 0.57616 0.51777 0.0
C1247 C 0.05568 0.5723 0.50508 0.0
C1248 C 0.01798 0.55313 0.52256 0.0
C1249 C 0.01697 0.5255 0.51486 0.0
C1250 C 0.03585 0.52153 0.5023 0.0
C1251 C 0.0548 0.54465 0.49744 0.0
H1252 H 0.7155 0.79228 0.73087 0.0
H1253 H 0.68568 0.80845 0.7764 0.0
H1254 H 0.75537 0.75992 0.74031 0.0
H1255 H 0.72627 0.77725 0.7859 0.0
H1256 H 0.78387 0.69664 0.79819 0.0
H1257 H 0.74318 0.72764 0.78839 0.0
H1258 H 0.80146 0.7591 0.75283 0.0
H1259 H 0.84144 0.72716 0.76218 0.0
C1260 C 0.7177 0.78928 0.74291 0.0
C1261 C 0.69733 0.80301 0.75285 0.0
C1262 C 0.74069 0.77076 0.74837 0.0
C1263 C 0.74422 0.76577 0.76393 0.0
C1264 C 0.72404 0.77992 0.77385 0.0
C1265 C 0.70083 0.7981 0.76839 0.0
C1266 C 0.78794 0.7101 0.78825 0.0
C1267 C 0.81599 0.70928 0.781 0.0
C1268 C 0.76463 0.72811 0.78266 0.0
C1269 C 0.76886 0.74609 0.76978 0.0
C1270 C 0.797 0.74525 0.76258 0.0
C1271 C 0.82011 0.72698 0.76804 0.0
H1272 H 0.46904 0.4593 0.98238 0.0
H1273 H 0.45613 0.42809 0.02793 0.0
H1274 H 0.49918 0.50094 0.99166 0.0
H1275 H 0.48513 0.4705 0.0373 0.0
H1276 H 0.56225 0.53356 0.04886 0.0
H1277 H 0.53343 0.491 0.03945 0.0
H1278 H 0.49687 0.54702 1.00419 0.0
H1279 H 0.52673 0.58904 1.01319 0.0
C1280 C 0.47237 0.46148 0.9944 0.0
C1281 C 0.46008 0.44029 1.00439 0.0
C1282 C 0.48956 0.48554 0.99976 0.0
C1283 C 0.49464 0.48937 1.01529 0.0
C1284 C 0.48224 0.46816 0.02527 0.0
C1285 C 0.46537 0.44387 0.01989 0.0
C1286 C 0.54808 0.53677 0.03909 0.0
C1287 C 0.54691 0.56477 0.03178 0.0
C1288 C 0.53134 0.51236 0.03372 0.0
C1289 C 0.51267 0.51537 0.02101 0.0
C1290 C 0.51137 0.54351 1.01381 0.0
C1291 C 0.5284 0.56777 0.01905 0.0
H1292 H 0.82258 0.20438 0.2803 0.0
H1293 H 0.79876 0.22074 0.23391 0.0
H1294 H 0.78002 0.23439 0.2885 0.0
H1295 H 0.7568 0.25187 0.2421 0.0
H1296 H 0.66759 0.28353 0.26146 0.0
H1297 H 0.70894 0.2519 0.25324 0.0
H1298 H 0.76286 0.28414 0.29034 0.0
H1299 H 0.72095 0.31483 0.29893 0.0
C1300 C 0.8083 0.21446 0.27182 0.0
C1301 C 0.81414 0.21006 0.25643 0.0
C1302 C 0.78396 0.23196 0.27654 0.0
C1303 C 0.76492 0.24589 0.266 0.0
C1304 C 0.77062 0.24122 0.25058 0.0
C1305 C 0.7948 0.22341 0.24586 0.0
C1306 C 0.68826 0.28392 0.26789 0.0
C1307 C 0.69083 0.30175 0.28091 0.0
C1308 C 0.71214 0.26584 0.2631 0.0
C1309 C 0.73942 0.26529 0.27109 0.0
C1310 C 0.74207 0.28342 0.28403 0.0
C1311 C 0.71806 0.30125 0.28892 0.0
H1312 H 0.28997 0.31388 0.79776 0.0
H1313 H 0.34052 0.28337 0.75917 0.0
H1314 H 0.24734 0.28355 0.78972 0.0
H1315 H 0.29864 0.25199 0.75154 0.0
H1316 H 0.20864 0.22072 0.73349 0.0
H1317 H 0.25044 0.25228 0.74124 0.0
H1318 H 0.22977 0.23397 0.78787 0.0
H1319 H 0.18708 0.20355 0.78008 0.0
C1320 C 0.29206 0.30058 0.78761 0.0
C1321 C 0.3187 0.30114 0.77912 0.0
C1322 C 0.26767 0.28295 0.78304 0.0
C1323 C 0.26943 0.26509 0.76998 0.0
C1324 C 0.29612 0.26576 0.76151 0.0
C1325 C 0.32031 0.2837 0.76595 0.0
C1326 C 0.2131 0.2233 0.7454 0.0
C1327 C 0.1945 0.20955 0.75615 0.0
C1328 C 0.23722 0.24136 0.74987 0.0
C1329 C 0.24365 0.24581 0.76522 0.0
C1330 C 0.22525 0.23164 0.77596 0.0
C1331 C 0.20088 0.21392 0.77149 0.0
H1332 H 0.22193 0.69643 0.29818 0.0
H1333 H 0.1664 0.72719 0.2614 0.0
H1334 H 0.26296 0.72775 0.2892 0.0
H1335 H 0.20698 0.75945 0.25278 0.0
H1336 H 0.29605 0.79155 0.23274 0.0
H1337 H 0.25471 0.75991 0.24119 0.0
H1338 H 0.27859 0.77817 0.28744 0.0
H1339 H 0.32053 0.80874 0.27899 0.0
C1340 C 0.21839 0.71 0.28822 0.0
C1341 C 0.1908 0.70923 0.28053 0.0
C1342 C 0.24189 0.72819 0.28312 0.0
C1343 C 0.23835 0.74639 0.27028 0.0
C1344 C 0.21077 0.74548 0.26256 0.0
C1345 C 0.18738 0.72704 0.26757 0.0
C1346 C 0.29236 0.78895 0.24472 0.0
C1347 C 0.31171 0.80265 0.25517 0.0
C1348 C 0.26854 0.77085 0.24958 0.0
C1349 C 0.26329 0.76624 0.26503 0.0
C1350 C 0.28226 0.78057 0.27546 0.0
C1351 C 0.30623 0.79837 0.2706 0.0
H1352 H 0.28761 0.19526 0.297 0.0
H1353 H 0.34629 0.23038 0.26252 0.0
H1354 H 0.24675 0.22608 0.28745 0.0
H1355 H 0.30575 0.26216 0.25333 0.0
H1356 H 0.21835 0.29294 0.23112 0.0
H1357 H 0.25954 0.26195 0.24031 0.0
H1358 H 0.22914 0.27577 0.28598 0.0
H1359 H 0.18738 0.30569 0.27673 0.0
C1360 C 0.2919 0.20975 0.28745 0.0
C1361 C 0.32031 0.21026 0.28054 0.0
C1362 C 0.26845 0.22764 0.28201 0.0
C1363 C 0.27282 0.24684 0.26961 0.0
C1364 C 0.3013 0.24737 0.26273 0.0
C1365 C 0.32467 0.22923 0.26807 0.0
C1366 C 0.22051 0.28945 0.24313 0.0
C1367 C 0.19943 0.3018 0.25316 0.0
C1368 C 0.24428 0.27174 0.24843 0.0
C1369 C 0.24778 0.26615 0.26392 0.0
C1370 C 0.22693 0.27897 0.27395 0.0
C1371 C 0.20302 0.29639 0.26865 0.0
H1372 H 0.18735 0.80755 0.75652 0.0
H1373 H 0.20838 0.7911 0.80324 0.0
H1374 H 0.23025 0.77717 0.74898 0.0
H1375 H 0.25042 0.75962 0.79574 0.0
H1376 H 0.34088 0.7287 0.7781 0.0
H1377 H 0.2988 0.76005 0.78552 0.0
H1378 H 0.2478 0.72745 0.74747 0.0
H1379 H 0.29056 0.69712 0.73964 0.0
C1380 C 0.20108 0.79735 0.76519 0.0
C1381 C 0.19448 0.8019 0.78049 0.0
C1382 C 0.22557 0.77967 0.76086 0.0
C1383 C 0.24388 0.76571 0.77172 0.0
C1384 C 0.23725 0.77036 0.78703 0.0
C1385 C 0.21301 0.78837 0.79135 0.0
C1386 C 0.32068 0.72813 0.77131 0.0
C1387 C 0.31919 0.7104 0.75823 0.0
C1388 C 0.29639 0.74605 0.77563 0.0
C1389 C 0.26974 0.74643 0.76712 0.0
C1390 C 0.2681 0.72828 0.75416 0.0
C1391 C 0.29257 0.71065 0.74972 0.0
H1392 H 0.55654 0.94275 0.50524 0.0
H1393 H 0.5421 0.9678 0.55164 0.0
H1394 H 0.52508 0.9843 0.49712 0.0
H1395 H 0.50956 0.00874 0.54355 0.0
H1396 H 0.47469 0.09654 0.5236 0.0
H1397 H 0.50768 0.05628 0.5319 0.0
H1398 H 0.47464 0.99974 0.49597 0.0
H1399 H 0.44257 0.04046 0.48731 0.0
C1400 C 0.54658 0.95709 0.51374 0.0
C1401 C 0.55192 0.95188 0.52911 0.0
C1402 C 0.52826 0.98084 0.50907 0.0
C1403 C 0.51442 0.99988 0.51965 0.0
C1404 C 0.52008 0.99488 0.53504 0.0
C1405 C 0.5387 0.97128 0.5397 0.0
C1406 C 0.4744 0.07551 0.51747 0.0
C1407 C 0.45598 0.07186 0.50473 0.0
C1408 C 0.49327 0.05228 0.5223 0.0
C1409 C 0.49404 0.02463 0.51462 0.0
C1410 C 0.47522 0.02086 0.50201 0.0
C1411 C 0.45659 0.0442 0.49709 0.0
H1412 H 0.03512 0.91233 0.02485 0.0
H1413 H 0.06437 0.96802 0.98784 0.0
H1414 H 1.00341 0.95302 0.03395 0.0
H1415 H 0.03352 0.00906 0.99723 0.0
H1416 H 0.95313 0.06665 1.00833 0.0
H1417 H 0.98305 0.02453 0.99958 0.0
H1418 H 1.00373 1.00108 0.0456 0.0
H1419 H 0.97277 0.04279 0.0544 0.0
C1420 C 0.03502 0.93334 0.01871 0.0
C1421 C 0.0523 0.93679 1.00556 0.0
C1422 C 0.0169 0.95679 0.02399 0.0
C1423 C 0.01572 0.98443 1.01634 0.0
C1424 C 0.0333 0.98796 1.00328 0.0
C1425 C 0.05121 0.96443 0.99793 0.0
C1426 C 0.96389 0.05245 1.01662 0.0
C1427 C 0.96052 0.05822 0.03209 0.0
C1428 C 0.98133 0.02835 1.01158 0.0
C1429 C 0.99618 0.00945 0.02184 0.0
C1430 C 0.99241 0.01491 0.03734 0.0
C1431 C 0.9747 0.03892 0.04241 0.0
H1432 H 0.56817 0.03802 0.9895 0.0
H1433 H 0.53622 0.0922 0.02653 0.0
H1434 H 0.53607 0.99684 0.99768 0.0
H1435 H 0.50322 0.05164 0.03433 0.0
H1436 H 0.46897 0.96301 0.0534 0.0
H1437 H 0.50156 1.00399 0.04551 0.0
H1438 H 0.48597 0.98051 0.99896 0.0
H1439 H 0.45443 0.93881 1.0069 0.0
C1440 C 0.55417 0.04125 0.99933 0.0
C1441 C 0.55491 0.06849 1.00735 0.0
C1442 C 0.53552 0.01765 1.00398 0.0
C1443 C 0.51682 0.02076 1.01668 0.0
C1444 C 0.51759 0.04807 0.02466 0.0
C1445 C 0.53647 0.0715 0.02012 0.0
C1446 C 0.47236 0.96669 0.04148 0.0
C1447 C 0.45903 0.94753 0.03081 0.0
C1448 C 0.49102 0.99033 0.03692 0.0
C1449 C 0.49662 0.9957 0.02156 0.0
C1450 C 0.4828 0.97682 1.0109 0.0
C1451 C 0.46443 0.95298 1.01545 0.0
H1452 H 0.05375 0.07801 0.50896 0.0
H1453 H 0.03745 0.04992 0.55475 0.0
H1454 H 0.02454 0.0356 0.49978 0.0
H1455 H 0.00711 0.00826 0.54562 0.0
H1456 H 0.97893 0.91964 0.52492 0.0
H1457 H 0.00919 0.96145 0.53374 0.0
H1458 H 0.97571 0.01629 0.49727 0.0
H1459 H 0.94643 0.97383 0.48805 0.0
C1460 C 0.04377 0.06288 0.51709 0.0
C1461 C 0.0481 0.06736 0.53261 0.0
C1462 C 0.02677 0.03861 0.51182 0.0
C1463 C 0.01328 0.01834 0.52192 0.0
C1464 C 0.01754 0.02296 0.53745 0.0
C1465 C 0.03487 0.04701 0.54272 0.0
C1466 C 0.97799 0.94059 0.51875 0.0
C1467 C 0.9602 0.94329 0.50574 0.0
C1468 C 0.99526 0.96475 0.52389 0.0
C1469 C 0.99496 0.99248 0.5163 0.0
C1470 C 0.97701 0.99521 0.50331 0.0
C1471 C 0.96001 0.97088 0.49805 0.0
H1472 H 0.93222 0.21315 0.04872 0.0
H1473 H 0.0092 0.16313 0.06386 0.0
H1474 H 0.96164 0.25908 0.04865 0.0
H1475 H 0.03781 0.20935 0.06593 0.0
H1476 H 0.09192 0.29402 0.05708 0.0
H1477 H 0.06413 0.24715 0.05623 0.0
H1478 H 0.98122 0.29647 0.06264 0.0
H1479 H 0.00954 0.34341 0.06255 0.0
C1480 C 0.95576 0.21187 0.0516 0.0
C1481 C 0.96879 0.18422 0.05546 0.0
C1482 C 0.97252 0.23853 0.05217 0.0
C1483 C 1.00243 0.2386 0.05747 0.0
C1484 C 0.01526 0.21072 0.06146 0.0
C1485 C 0.99876 0.18398 0.06037 0.0
C1486 C 0.06767 0.2947 0.05808 0.0
C1487 C 0.05269 0.32233 0.05904 0.0
C1488 C 0.05157 0.26767 0.05788 0.0
C1489 C 0.01993 0.26747 0.05891 0.0
C1490 C 1.00529 0.29533 0.06108 0.0
C1491 C 0.0215 0.32238 0.06119 0.0
H1492 H 0.09419 0.75068 0.31408 0.0
H1493 H 0.04258 0.66926 0.31036 0.0
H1494 H 0.04799 0.78018 0.3143 0.0
H1495 H 0.99637 0.69817 0.30977 0.0
H1496 H 0.91379 0.75615 0.31487 0.0
H1497 H 0.95912 0.72669 0.31847 0.0
H1498 H 0.01167 0.79925 0.29948 0.0
H1499 H 0.96658 0.82963 0.29783 0.0
C1500 C 0.07282 0.73918 0.31318 0.0
C1501 C 0.07189 0.70791 0.31134 0.0
C1502 C 0.0462 0.75605 0.31316 0.0
C1503 C 0.01794 0.742 0.31139 0.0
C1504 C 0.01726 0.71029 0.311 0.0
C1505 C 0.04388 0.69354 0.31105 0.0
C1506 C 0.93508 0.76558 0.31132 0.0
C1507 C 0.93638 0.7948 0.30541 0.0
C1508 C 0.96129 0.74859 0.31333 0.0
C1509 C 0.98968 0.76018 0.3093 0.0
C1510 C 0.99068 0.78934 0.30306 0.0
C1511 C 0.96452 0.80658 0.3015 0.0
H1512 H 0.42287 0.7204 0.56168 0.0
H1513 H 0.50528 0.67023 0.56468 0.0
H1514 H 0.45098 0.76704 0.56013 0.0
H1515 H 0.534 0.71687 0.56399 0.0
H1516 H 0.58165 0.79868 0.54707 0.0
H1517 H 0.55179 0.75323 0.54882 0.0
H1518 H 0.47929 0.80486 0.5685 0.0
H1519 H 0.5081 0.85057 0.56472 0.0
C1520 C 0.44718 0.7195 0.56198 0.0
C1521 C 0.46202 0.69173 0.56238 0.0
C1522 C 0.46349 0.74637 0.56138 0.0
C1523 C 0.49521 0.74621 0.56136 0.0
C1524 C 0.50981 0.71825 0.56316 0.0
C1525 C 0.49338 0.69137 0.56371 0.0
C1526 C 0.55869 0.80045 0.55091 0.0
C1527 C 0.5467 0.82845 0.55495 0.0
C1528 C 0.54178 0.7741 0.55252 0.0
C1529 C 0.51283 0.77473 0.559 0.0
C1530 C 0.50104 0.80297 0.56317 0.0
C1531 C 0.51766 0.82939 0.56108 0.0
H1532 H 0.54844 0.17071 0.81177 0.0
H1533 H 0.59949 0.25256 0.81498 0.0
H1534 H 0.50209 0.19924 0.81085 0.0
H1535 H 0.55309 0.28176 0.81487 0.0
H1536 H 0.419 0.25636 0.81503 0.0
H1537 H 0.46455 0.2276 0.81913 0.0
H1538 H 0.51671 0.30022 0.79992 0.0
H1539 H 0.4713 0.33003 0.79781 0.0
C1540 C 0.54958 0.195 0.81228 0.0
C1541 C 0.57748 0.20958 0.81252 0.0
C1542 C 0.52287 0.21157 0.81204 0.0
C1543 C 0.52332 0.24329 0.8122 0.0
C1544 C 0.55147 0.25759 0.81391 0.0
C1545 C 0.5782 0.2409 0.81412 0.0
C1546 C 0.44026 0.26596 0.81155 0.0
C1547 C 0.44134 0.29503 0.80544 0.0
C1548 C 0.4666 0.24937 0.81384 0.0
C1549 C 0.49495 0.26117 0.80988 0.0
C1550 C 0.49576 0.29017 0.80345 0.0
C1551 C 0.46944 0.30706 0.80163 0.0
H1552 H 1.0049 0.84648 0.47188 0.0
H1553 H 0.9303 0.79185 0.48594 0.0
H1554 H 0.03617 0.80209 0.46984 0.0
H1555 H 0.96233 0.74774 0.48621 0.0
H1556 H 0.0156 0.66648 0.47312 0.0
H1557 H 0.98462 0.7115 0.47306 0.0
H1558 H 0.06458 0.76577 0.47901 0.0
H1559 H 0.0951 0.72065 0.47782 0.0
C1560 C 0.99551 0.82497 0.47511 0.0
C1561 C 0.96545 0.82289 0.47973 0.0
C1562 C 0.01359 0.79928 0.47407 0.0
C1563 C 1.00229 0.77064 0.47789 0.0
C1564 C 0.97216 0.76888 0.48281 0.0
C1565 C 0.95383 0.79447 0.48324 0.0
C1566 C 0.02634 0.68817 0.47441 0.0
C1567 C 0.05755 0.69007 0.47629 0.0
C1568 C 0.00857 0.71417 0.47456 0.0
C1569 C 0.02155 0.74287 0.47658 0.0
C1570 C 0.05319 0.74455 0.47746 0.0
C1571 C 0.0709 0.71853 0.4771 0.0
H1572 H 0.54789 0.84147 0.72394 0.0
H1573 H 0.59914 0.75974 0.72073 0.0
H1574 H 0.50168 0.81278 0.72537 0.0
H1575 H 0.55286 0.73037 0.72136 0.0
H1576 H 0.47184 0.68215 0.7393 0.0
H1577 H 0.51705 0.71212 0.73673 0.0
H1578 H 0.46401 0.7841 0.7175 0.0
H1579 H 0.41873 0.7552 0.72204 0.0
C1580 C 0.5491 0.81716 0.72353 0.0
C1581 C 0.57704 0.80268 0.72314 0.0
C1582 C 0.52246 0.80051 0.72407 0.0
C1583 C 0.52304 0.76879 0.72408 0.0
C1584 C 0.55117 0.75455 0.7222 0.0
C1585 C 0.57783 0.77134 0.72169 0.0
C1586 C 0.46977 0.70503 0.73538 0.0
C1587 C 0.44152 0.71684 0.73167 0.0
C1588 C 0.49595 0.722 0.73329 0.0
C1589 C 0.49482 0.75086 0.72671 0.0
C1590 C 0.46632 0.76245 0.72289 0.0
C1591 C 0.44013 0.74578 0.72544 0.0
H1592 H 0.51419 0.16428 0.97301 0.0
H1593 H 0.58799 0.21898 0.98808 0.0
H1594 H 0.48333 0.20868 0.97009 0.0
H1595 H 0.55613 0.26324 0.98747 0.0
H1596 H 0.50383 0.34441 0.97322 0.0
H1597 H 0.5348 0.29935 0.97384 0.0
H1598 H 0.45438 0.24521 0.97833 0.0
H1599 H 0.42404 0.29031 0.97654 0.0
C1600 C 0.52344 0.18583 0.97628 0.0
C1601 C 0.55318 0.18791 0.98142 0.0
C1602 C 0.50558 0.21155 0.97473 0.0
C1603 C 0.51671 0.24026 0.97856 0.0
C1604 C 0.54647 0.24204 0.98403 0.0
C1605 C 0.56465 0.21638 0.98497 0.0
C1606 C 0.49301 0.32273 0.97433 0.0
C1607 C 0.46169 0.32085 0.97567 0.0
C1608 C 0.51075 0.29671 0.97487 0.0
C1609 C 0.49761 0.26804 0.97672 0.0
C1610 C 0.46592 0.26639 0.97696 0.0
C1611 C 0.44827 0.29241 0.97625 0.0
H1612 H 0.04861 0.34002 0.22517 0.0
H1613 H 0.0981 0.25728 0.2215 0.0
H1614 H 1.0018 0.31228 0.22661 0.0
H1615 H 0.05118 0.2289 0.22212 0.0
H1616 H 0.91769 0.25643 0.22178 0.0
H1617 H 0.96374 0.28466 0.21803 0.0
H1618 H 0.01454 0.2111 0.23723 0.0
H1619 H 0.96868 0.18183 0.23897 0.0
C1620 C 0.04932 0.31571 0.22466 0.0
C1621 C 0.07696 0.30067 0.22408 0.0
C1622 C 0.02233 0.29961 0.22522 0.0
C1623 C 0.02219 0.2679 0.225 0.0
C1624 C 0.05003 0.2531 0.22307 0.0
C1625 C 0.07706 0.26932 0.22257 0.0
C1626 C 0.93875 0.24651 0.22534 0.0
C1627 C 0.93932 0.21734 0.23133 0.0
C1628 C 0.96538 0.26279 0.22325 0.0
C1629 C 0.99349 0.25053 0.22729 0.0
C1630 C 0.99377 0.22146 0.23364 0.0
C1631 C 0.96719 0.20489 0.23525 0.0
H1632 H 0.92425 0.71692 0.98707 0.0
H1633 H 0.99837 0.66227 0.97239 0.0
H1634 H 0.95637 0.76097 0.98726 0.0
H1635 H 0.02967 0.70661 0.97026 0.0
H1636 H 0.08901 0.78783 0.97776 0.0
H1637 H 0.05842 0.7428 0.97923 0.0
H1638 H 0.9784 0.79732 0.97415 0.0
H1639 H 0.0095 0.84224 0.97396 0.0
C1640 C 0.9477 0.71428 0.98421 0.0
C1641 C 0.95917 0.68587 0.98056 0.0
C1642 C 0.96607 0.73984 0.98373 0.0
C1643 C 0.99608 0.73807 0.97862 0.0
C1644 C 0.00721 0.70943 0.97465 0.0
C1645 C 0.98911 0.68377 0.97573 0.0
C1646 C 0.0648 0.79002 0.97731 0.0
C1647 C 0.0515 0.81853 0.97667 0.0
C1648 C 0.04703 0.76405 0.97782 0.0
C1649 C 0.01536 0.76582 0.97725 0.0
C1650 C 1.00239 0.79457 0.97541 0.0
C1651 C 0.02023 0.82052 0.97512 0.0
H1652 H 0.96444 0.3405 0.72302 0.0
H1653 H 0.91328 0.25867 0.72018 0.0
H1654 H 0.01074 0.31191 0.72419 0.0
H1655 H 0.95963 0.22939 0.72054 0.0
H1656 H 0.04105 0.18138 0.73816 0.0
H1657 H 0.99575 0.21127 0.73575 0.0
H1658 H 0.04832 0.28325 0.71622 0.0
H1659 H 0.09372 0.25443 0.72058 0.0
C1660 C 0.96327 0.3162 0.72263 0.0
C1661 C 0.93535 0.30166 0.72244 0.0
C1662 C 0.98995 0.2996 0.72302 0.0
C1663 C 0.98943 0.26788 0.72307 0.0
C1664 C 0.96128 0.25358 0.72135 0.0
C1665 C 0.93458 0.27031 0.721 0.0
C1666 C 0.04302 0.20425 0.73421 0.0
C1667 C 0.07117 0.21608 0.73035 0.0
C1668 C 0.01677 0.22117 0.73221 0.0
C1669 C 0.01773 0.25 0.7256 0.0
C1670 C 0.04614 0.26163 0.72164 0.0
C1671 C 0.07241 0.245 0.72409 0.0
H1672 H 0.57683 0.29394 0.48787 0.0
H1673 H 0.50351 0.34777 0.47149 0.0
H1674 H 0.54603 0.24912 0.48602 0.0
H1675 H 0.47366 0.30284 0.46765 0.0
H1676 H 0.41551 0.21982 0.47521 0.0
H1677 H 0.44489 0.26569 0.47594 0.0
H1678 H 0.52632 0.2132 0.47125 0.0
H1679 H 0.49632 0.16734 0.47135 0.0
C1680 C 0.55374 0.29627 0.4843 0.0
C1681 C 0.54212 0.32462 0.48063 0.0
C1682 C 0.53625 0.2703 0.48262 0.0
C1683 C 0.507 0.2717 0.4765 0.0
C1684 C 0.4956 0.30031 0.47271 0.0
C1685 C 0.51282 0.32631 0.47485 0.0
C1686 C 0.43976 0.21826 0.47451 0.0
C1687 C 0.45382 0.1901 0.47417 0.0
C1688 C 0.45681 0.24469 0.47465 0.0
C1689 C 0.48851 0.24367 0.47427 0.0
C1690 C 0.50223 0.21527 0.4724 0.0
C1691 C 0.48506 0.18884 0.47231 0.0
H1692 H 0.46549 0.83004 0.23736 0.0
H1693 H 0.4133 0.7557 0.22075 0.0
H1694 H 0.51088 0.80003 0.23576 0.0
H1695 H 0.45884 0.72662 0.21719 0.0
H1696 H 0.54263 0.67003 0.22543 0.0
H1697 H 0.49628 0.69863 0.226 0.0
H1698 H 0.54731 0.78089 0.22097 0.0
H1699 H 0.59371 0.75168 0.2212 0.0
C1700 C 0.46364 0.8069 0.2338 0.0
C1701 C 0.43558 0.79476 0.22999 0.0
C1702 C 0.48995 0.78986 0.23227 0.0
C1703 C 0.48916 0.76057 0.22616 0.0
C1704 C 0.46086 0.74864 0.22224 0.0
C1705 C 0.43452 0.7654 0.22422 0.0
C1706 C 0.54378 0.69429 0.2246 0.0
C1707 C 0.57168 0.70884 0.22417 0.0
C1708 C 0.51707 0.71088 0.22465 0.0
C1709 C 0.51754 0.74258 0.2241 0.0
C1710 C 0.54568 0.75678 0.22221 0.0
C1711 C 0.57241 0.74007 0.2222 0.0
H1712 H 1.00301 0.34957 0.56402 0.0
H1713 H 0.92848 0.29893 0.54647 0.0
H1714 H 0.03116 0.30339 0.56763 0.0
H1715 H 0.95768 0.25299 0.54807 0.0
H1716 H 1.00346 0.16916 0.56382 0.0
H1717 H 0.97524 0.21617 0.56316 0.0
H1718 H 0.05877 0.26534 0.55892 0.0
H1719 H 0.08637 0.21841 0.5604 0.0
C1720 C 0.99309 0.32857 0.56036 0.0
C1721 C 0.96397 0.32813 0.55431 0.0
C1722 C 0.00933 0.30187 0.56236 0.0
C1723 C 0.99706 0.27384 0.55817 0.0
C1724 C 0.96804 0.27369 0.55177 0.0
C1725 C 0.95151 0.30033 0.55025 0.0
C1726 C 0.01557 0.19017 0.56278 0.0
C1727 C 0.04693 0.19017 0.56136 0.0
C1728 C 0.99944 0.21725 0.56226 0.0
C1729 C 0.01434 0.24505 0.5604 0.0
C1730 C 0.04604 0.24483 0.56025 0.0
C1731 C 0.06205 0.21777 0.56083 0.0
H1732 H 0.46697 0.16964 0.31083 0.0
H1733 H 0.41351 0.24985 0.31444 0.0
H1734 H 0.51245 0.19957 0.31016 0.0
H1735 H 0.45892 0.28038 0.31479 0.0
H1736 H 0.53977 0.33276 0.30026 0.0
H1737 H 0.49523 0.30136 0.30107 0.0
H1738 H 0.54912 0.22825 0.31861 0.0
H1739 H 0.59381 0.25866 0.31554 0.0
C1740 C 0.46511 0.19388 0.31147 0.0
C1741 C 0.43679 0.2076 0.31174 0.0
C1742 C 0.49133 0.21127 0.31139 0.0
C1743 C 0.48995 0.24297 0.31185 0.0
C1744 C 0.46135 0.25633 0.31357 0.0
C1745 C 0.43514 0.23884 0.31354 0.0
C1746 C 0.54218 0.30944 0.30343 0.0
C1747 C 0.57054 0.29776 0.30701 0.0
C1748 C 0.51635 0.29155 0.30451 0.0
C1749 C 0.51787 0.26185 0.31009 0.0
C1750 C 0.54647 0.25049 0.31391 0.0
C1751 C 0.57234 0.26807 0.31225 0.0
H1752 H 0.42822 0.79408 0.04782 0.0
H1753 H 0.50361 0.84506 0.06418 0.0
H1754 H 0.45753 0.74816 0.04934 0.0
H1755 H 0.53189 0.79909 0.06772 0.0
H1756 H 0.58708 0.71433 0.06043 0.0
H1757 H 0.55922 0.76106 0.05929 0.0
H1758 H 0.47607 0.7114 0.06407 0.0
H1759 H 0.5046 0.66456 0.06437 0.0
C1760 C 0.45143 0.79555 0.05131 0.0
C1761 C 0.46406 0.82343 0.05509 0.0
C1762 C 0.46806 0.76895 0.05279 0.0
C1763 C 0.4974 0.76924 0.05885 0.0
C1764 C 0.50983 0.79738 0.06271 0.0
C1765 C 0.49351 0.824 0.06074 0.0
C1766 C 0.56279 0.71355 0.06107 0.0
C1767 C 0.54785 0.68586 0.06161 0.0
C1768 C 0.54661 0.7405 0.06069 0.0
C1769 C 0.5149 0.74055 0.06104 0.0
C1770 C 0.50023 0.71265 0.06299 0.0
C1771 C 0.51655 0.68565 0.06332 0.0
H1772 H 0.91252 0.75174 0.81445 0.0
H1773 H 0.9639 0.67008 0.81133 0.0
H1774 H 0.95882 0.78111 0.8145 0.0
H1775 H 0.01018 0.69881 0.81059 0.0
H1776 H 0.04055 0.82969 0.79764 0.0
H1777 H 0.99528 0.79961 0.79955 0.0
H1778 H 0.04746 0.72741 0.81914 0.0
H1779 H 0.09292 0.7565 0.81532 0.0
C1780 C 0.93386 0.74016 0.81366 0.0
C1781 C 0.93471 0.70884 0.81202 0.0
C1782 C 0.96054 0.75695 0.81354 0.0
C1783 C 0.98875 0.74275 0.8119 0.0
C1784 C 0.98933 0.71104 0.81172 0.0
C1785 C 0.96267 0.69437 0.81187 0.0
C1786 C 0.04247 0.80676 0.80151 0.0
C1787 C 0.07055 0.79495 0.80554 0.0
C1788 C 0.01623 0.78971 0.80321 0.0
C1789 C 0.01707 0.76075 0.80968 0.0
C1790 C 0.0454 0.74915 0.81382 0.0
C1791 C 0.07168 0.76592 0.81168 0.0
H1792 H 0.34109 0.39018 0.0247 0.0
H1793 H 0.31164 0.41441 0.98 0.0
H1794 H 0.2906 0.39665 0.03411 0.0
H1795 H 0.26067 0.422 0.98966 0.0
H1796 H 0.17084 0.38366 1.00758 0.0
H1797 H 0.22107 0.39023 0.99784 0.0
H1798 H 0.24922 0.42771 0.04042 0.0
H1799 H 0.19859 0.42014 0.05046 0.0
C1800 C 0.32393 0.39746 1.01687 0.0
C1801 C 0.33055 0.40132 1.00148 0.0
C1802 C 0.29482 0.40149 0.02237 0.0
C1803 C 0.27125 0.40965 1.01269 0.0
C1804 C 0.27812 0.41519 0.99743 0.0
C1805 C 0.30742 0.41109 0.99188 0.0
C1806 C 0.18754 0.39358 1.01492 0.0
C1807 C 0.18053 0.40099 0.02995 0.0
C1808 C 0.21649 0.39767 1.00921 0.0
C1809 C 0.2395 0.4094 0.01829 0.0
C1810 C 0.23224 0.41816 0.03313 0.0
C1811 C 0.20311 0.414 0.03888 0.0
H1812 H 0.84685 0.06488 0.23378 0.0
H1813 H 0.87722 0.09161 0.278 0.0
H1814 H 0.83934 0.01362 0.24309 0.0
H1815 H 0.87088 0.04093 0.28699 0.0
H1816 H 0.84658 0.94902 0.30325 0.0
H1817 H 0.83966 1.00039 0.29396 0.0
H1818 H 0.87003 0.97259 0.24994 0.0
H1819 H 0.87578 0.92182 0.25891 0.0
C1820 C 0.85171 0.05999 0.24546 0.0
C1821 C 0.86298 0.0825 0.25501 0.0
C1822 C 0.84759 0.03052 0.25081 0.0
C1823 C 0.85469 0.02286 0.26583 0.0
C1824 C 0.86472 0.04577 0.27546 0.0
C1825 C 0.86871 0.07501 0.27017 0.0
C1826 C 0.8513 0.95384 0.29154 0.0
C1827 C 0.86209 0.93116 0.28195 0.0
C1828 C 0.84752 0.98336 0.28621 0.0
C1829 C 0.85449 0.99091 0.27116 0.0
C1830 C 0.864 0.96785 0.26149 0.0
C1831 C 0.86766 0.93855 0.26677 0.0
H1832 H 0.21111 0.61944 0.48259 0.0
H1833 H 0.17047 0.59622 0.52503 0.0
H1834 H 0.26075 0.61462 0.4938 0.0
H1835 H 0.21997 0.5892 0.53613 0.0
H1836 H 0.309 0.62189 0.55661 0.0
H1837 H 0.25928 0.61625 0.5455 0.0
H1838 H 0.30005 0.58825 0.50357 0.0
H1839 H 0.34954 0.59612 0.51452 0.0
C1840 C 0.21288 0.61221 0.4942 0.0
C1841 C 0.18695 0.60825 0.50293 0.0
C1842 C 0.24145 0.60936 0.50071 0.0
C1843 C 0.24482 0.6018 0.51606 0.0
C1844 C 0.21863 0.59592 0.52445 0.0
C1845 C 0.19013 0.59953 0.51803 0.0
C1846 C 0.30718 0.61398 0.54512 0.0
C1847 C 0.33308 0.60951 0.53643 0.0
C1848 C 0.27859 0.61063 0.53867 0.0
C1849 C 0.27521 0.60208 0.52345 0.0
C1850 C 0.30139 0.59575 0.51513 0.0
C1851 C 0.32988 0.59985 0.52147 0.0
H1852 H 0.67128 0.06064 0.80349 0.0
H1853 H 0.63907 0.09183 0.76038 0.0
H1854 H 0.6788 0.01049 0.79274 0.0
H1855 H 0.64556 0.04217 0.74993 0.0
H1856 H 0.66989 0.95222 0.73104 0.0
H1857 H 0.67717 1.0025 0.74169 0.0
H1858 H 0.6476 0.9701 0.78503 0.0
H1859 H 0.64138 0.92033 0.77466 0.0
C1860 C 0.66609 0.05698 0.79173 0.0
C1861 C 0.65422 0.08037 0.78293 0.0
C1862 C 0.6702 0.02814 0.78555 0.0
C1863 C 0.66259 0.02201 0.77042 0.0
C1864 C 0.65207 0.04584 0.76152 0.0
C1865 C 0.64801 0.07447 0.76764 0.0
C1866 C 0.6655 0.95576 0.74289 0.0
C1867 C 0.65469 0.93214 0.75188 0.0
C1868 C 0.66945 0.98467 0.74901 0.0
C1869 C 0.66274 0.99063 0.76426 0.0
C1870 C 0.65338 0.96658 0.77333 0.0
C1871 C 0.64947 0.93789 0.76726 0.0
H1872 H 0.66671 0.62711 1.01021 0.0
H1873 H 0.69286 0.58509 0.05204 0.0
H1874 H 0.71669 0.61979 1.00035 0.0
H1875 H 0.7432 0.57671 0.04183 0.0
H1876 H 0.83635 0.61285 0.02728 0.0
H1877 H 0.78568 0.60667 0.03647 0.0
H1878 H 0.75517 0.58785 0.99129 0.0
H1879 H 0.80634 0.59526 0.98189 0.0
C1880 C 0.68297 0.61579 1.01728 0.0
C1881 C 0.67562 0.60706 0.03208 0.0
C1882 C 0.71178 0.61128 1.01149 0.0
C1883 C 0.73428 0.59774 0.02024 0.0
C1884 C 0.72663 0.58767 0.03481 0.0
C1885 C 0.69767 0.59232 0.04067 0.0
C1886 C 0.819 0.60706 0.01924 0.0
C1887 C 0.82551 0.60505 1.00375 0.0
C1888 C 0.78978 0.60318 0.0246 0.0
C1889 C 0.76603 0.59701 1.01467 0.0
C1890 C 0.77277 0.59315 0.99926 0.0
C1891 C 0.80218 0.59713 0.99386 0.0
H1892 H 0.13221 0.92105 0.75845 0.0
H1893 H 0.16239 0.94732 0.80278 0.0
H1894 H 0.13858 0.97191 0.74962 0.0
H1895 H 0.16983 0.9987 0.79366 0.0
H1896 H 0.13211 0.09031 0.77798 0.0
H1897 H 0.13825 0.03945 0.78686 0.0
H1898 H 0.17039 0.01257 0.74301 0.0
H1899 H 0.16318 0.06393 0.73383 0.0
C1900 C 0.14069 0.93758 0.76633 0.0
C1901 C 0.14636 0.92996 0.78146 0.0
C1902 C 0.14468 0.9669 0.76114 0.0
C1903 C 0.15462 0.98966 0.77088 0.0
C1904 C 0.16168 0.98186 0.78587 0.0
C1905 C 0.15759 0.95234 0.7911 0.0
C1906 C 0.14075 0.07376 0.77016 0.0
C1907 C 0.14673 0.08135 0.75505 0.0
C1908 C 0.1446 0.04444 0.77538 0.0
C1909 C 0.1547 0.02165 0.7657 0.0
C1910 C 0.1621 0.02943 0.75075 0.0
C1911 C 0.15814 0.05894 0.74548 0.0
H1912 H 0.83967 0.39276 0.50686 0.0
H1913 H 0.81197 0.4188 0.55161 0.0
H1914 H 0.7886 0.39748 0.49804 0.0
H1915 H 0.76038 0.42466 0.54252 0.0
H1916 H 0.67073 0.38374 0.52657 0.0
H1917 H 0.72137 0.39151 0.53533 0.0
H1918 H 0.74609 0.42709 0.49184 0.0
H1919 H 0.69487 0.41825 0.48276 0.0
C1920 C 0.82275 0.40002 0.51483 0.0
C1921 C 0.83006 0.40492 0.53008 0.0
C1922 C 0.7933 0.40306 0.50966 0.0
C1923 C 0.77008 0.41124 0.51952 0.0
C1924 C 0.77757 0.41778 0.53462 0.0
C1925 C 0.80721 0.41464 0.53984 0.0
C1926 C 0.68673 0.39344 0.51879 0.0
C1927 C 0.67855 0.4 0.50381 0.0
C1928 C 0.71593 0.39825 0.52395 0.0
C1929 C 0.73808 0.40993 0.51436 0.0
C1930 C 0.72975 0.41766 0.49952 0.0
C1931 C 0.70032 0.41274 0.4943 0.0
H1932 H 0.33688 0.06162 0.30147 0.0
H1933 H 0.37568 0.08998 0.25923 0.0
H1934 H 0.32909 0.0114 0.291 0.0
H1935 H 0.36907 0.04005 0.2491 0.0
H1936 H 0.34678 0.94882 0.23093 0.0
H1937 H 0.33859 1.0 0.2403 0.0
H1938 H 0.36069 0.97052 0.28527 0.0
H1939 H 0.36768 0.92 0.27615 0.0
C1940 C 0.34345 0.05733 0.28994 0.0
C1941 C 0.35728 0.07991 0.28134 0.0
C1942 C 0.33919 0.02843 0.28393 0.0
C1943 C 0.34879 0.02137 0.26921 0.0
C1944 C 0.36106 0.04447 0.26039 0.0
C1945 C 0.36515 0.07324 0.26633 0.0
C1946 C 0.34933 0.95324 0.24284 0.0
C1947 C 0.35828 0.93023 0.25269 0.0
C1948 C 0.34484 0.98264 0.24823 0.0
C1949 C 0.34914 0.98963 0.26359 0.0
C1950 C 0.3567 0.9662 0.27345 0.0
C1951 C 0.36111 0.93706 0.26811 0.0
H1952 H 0.84118 0.89396 0.52552 0.0
H1953 H 0.8126 0.91575 0.48036 0.0
H1954 H 0.79066 0.9011 0.53462 0.0
H1955 H 0.76158 0.9243 0.48972 0.0
H1956 H 0.6715 0.88737 0.50721 0.0
H1957 H 0.72187 0.89365 0.49787 0.0
H1958 H 0.74896 0.93127 0.5406 0.0
H1959 H 0.69801 0.92375 0.55031 0.0
C1960 C 0.8242 0.90085 0.5175 0.0
C1961 C 0.83106 0.90372 0.50208 0.0
C1962 C 0.79505 0.90532 0.52283 0.0
C1963 C 0.77168 0.91303 0.51296 0.0
C1964 C 0.77883 0.91776 0.49765 0.0
C1965 C 0.80817 0.91311 0.49226 0.0
C1966 C 0.68797 0.89723 0.5147 0.0
C1967 C 0.68053 0.90466 0.52968 0.0
C1968 C 0.71704 0.90119 0.5092 0.0
C1969 C 0.73981 0.91292 0.51841 0.0
C1970 C 0.73217 0.92169 0.53321 0.0
C1971 C 0.70289 0.91756 0.53879 0.0
H1972 H 0.38185 0.58995 0.77913 0.0
H1973 H 0.34822 0.56549 0.73517 0.0
H1974 H 0.37524 0.53887 0.78768 0.0
H1975 H 0.34063 0.51398 0.744 0.0
H1976 H 0.37827 0.42137 0.75838 0.0
H1977 H 0.37232 0.47261 0.74996 0.0
H1978 H 0.34276 0.49854 0.7944 0.0
H1979 H 0.34973 0.44683 0.80309 0.0
C1980 C 0.37255 0.57379 0.7713 0.0
C1981 C 0.36595 0.58195 0.75633 0.0
C1982 C 0.36845 0.54436 0.77631 0.0
C1983 C 0.3575 0.52208 0.76656 0.0
C1984 C 0.34956 0.53045 0.75178 0.0
C1985 C 0.35375 0.56004 0.74672 0.0
C1986 C 0.37021 0.4378 0.76642 0.0
C1987 C 0.3649 0.42986 0.78153 0.0
C1988 C 0.36648 0.46733 0.76148 0.0
C1989 C 0.3572 0.48994 0.77147 0.0
C1990 C 0.35042 0.48181 0.78643 0.0
C1991 C 0.35422 0.45211 0.79141 0.0
H1992 H 0.81111 0.12039 0.05659 0.0
H1993 H 0.84785 0.08608 1.01515 0.0
H1994 H 0.76045 0.11557 0.0463 0.0
H1995 H 0.79745 0.07955 1.00506 0.0
H1996 H 0.70948 0.11465 0.98417 0.0
H1997 H 0.75945 0.10873 0.99501 0.0
H1998 H 0.71964 0.08756 0.0381 0.0
H1999 H 0.66993 0.09507 0.02735 0.0
C2000 C 0.80823 0.11078 0.04549 0.0
C2001 C 0.83336 0.10363 0.03668 0.0
C2002 C 0.77915 0.10799 0.03951 0.0
C2003 C 0.77455 0.09753 0.02466 0.0
C2004 C 0.79986 0.0885 1.01632 0.0
C2005 C 0.82881 0.09185 0.02218 0.0
C2006 C 0.71148 0.10808 0.99586 0.0
C2007 C 0.68578 0.10543 1.0049 0.0
C2008 C 0.7402 0.10464 1.00215 0.0
C2009 C 0.74392 0.09795 1.01758 0.0
C2010 C 0.71796 0.09348 0.02632 0.0
C2011 C 0.68936 0.09744 0.02011 0.0
H2012 H 0.13074 0.58915 0.25884 0.0
H2013 H 0.17005 0.56198 0.30117 0.0
H2014 H 0.13873 0.53926 0.24879 0.0
H2015 H 0.17888 0.51179 0.29083 0.0
H2016 H 0.14357 0.419 0.27495 0.0
H2017 H 0.14823 0.46961 0.28457 0.0
H2018 H 0.1726 0.50106 0.24025 0.0
H2019 H 0.16703 0.44992 0.2304 0.0
C2020 C 0.14154 0.57267 0.26599 0.0
C2021 C 0.14939 0.5797 0.28095 0.0
C2022 C 0.14642 0.54397 0.2601 0.0
C2023 C 0.15937 0.52127 0.26896 0.0
C2024 C 0.16845 0.52857 0.28373 0.0
C2025 C 0.16354 0.55743 0.28965 0.0
C2026 C 0.15025 0.43654 0.2672 0.0
C2027 C 0.15451 0.43029 0.2518 0.0
C2028 C 0.15323 0.4657 0.27281 0.0
C2029 C 0.16061 0.48966 0.26322 0.0
C2030 C 0.16643 0.48325 0.24794 0.0
C2031 C 0.16348 0.45387 0.24229 0.0
H2032 H 0.19597 0.09859 0.55574 0.0
H2033 H 0.16534 0.12204 0.51114 0.0
H2034 H 0.24691 0.09175 0.54587 0.0
H2035 H 0.21575 0.11619 0.5015 0.0
H2036 H 0.30728 0.09264 0.48469 0.0
H2037 H 0.25709 0.08482 0.49518 0.0
H2038 H 0.28604 0.12412 0.5372 0.0
H2039 H 0.33592 0.13102 0.527 0.0
C2040 C 0.19994 0.1019 0.54384 0.0
C2041 C 0.17649 0.11121 0.53433 0.0
C2042 C 0.22921 0.09822 0.53817 0.0
C2043 C 0.23567 0.10365 0.52286 0.0
C2044 C 0.21182 0.11144 0.51328 0.0
C2045 C 0.18277 0.11513 0.51891 0.0
C2046 C 0.30305 0.09914 0.49624 0.0
C2047 C 0.32574 0.11276 0.50488 0.0
C2048 C 0.27418 0.09483 0.50225 0.0
C2049 C 0.26726 0.10404 0.51705 0.0
C2050 C 0.29039 0.11636 0.52586 0.0
C2051 C 0.31912 0.1206 0.51989 0.0
H2052 H 0.64652 0.42023 0.26069 0.0
H2053 H 0.65857 0.45168 0.30628 0.0
H2054 H 0.6522 0.47088 0.25137 0.0
H2055 H 0.6655 0.50287 0.2968 0.0
H2056 H 0.62577 0.58983 0.27647 0.0
H2057 H 0.63335 0.5402 0.28673 0.0
H2058 H 0.68129 0.51416 0.24652 0.0
H2059 H 0.67272 0.56413 0.23589 0.0
C2060 C 0.65101 0.43792 0.26877 0.0
C2061 C 0.65158 0.4318 0.28432 0.0
C2062 C 0.65459 0.46713 0.26334 0.0
C2063 C 0.65903 0.49127 0.27328 0.0
C2064 C 0.66154 0.48495 0.2888 0.0
C2065 C 0.65786 0.45554 0.29426 0.0
C2066 C 0.63821 0.57375 0.26977 0.0
C2067 C 0.64831 0.58112 0.25519 0.0
C2068 C 0.64285 0.54516 0.2758 0.0
C2069 C 0.65789 0.52289 0.26751 0.0
C2070 C 0.66918 0.53055 0.25317 0.0
C2071 C 0.6644 0.55929 0.24708 0.0
H2072 H 0.20617 0.89193 0.98117 0.0
H2073 H 0.16612 0.9106 0.02432 0.0
H2074 H 0.25601 0.89821 0.99209 0.0
H2075 H 0.21565 0.91873 0.03516 0.0
H2076 H 0.30712 0.88811 0.05409 0.0
H2077 H 0.25665 0.89217 0.04359 0.0
H2078 H 0.29403 0.92677 1.00214 0.0
H2079 H 0.34432 0.92081 1.01245 0.0
C2080 C 0.20804 0.89838 0.99288 0.0
C2081 C 0.18225 0.90068 1.00187 0.0
C2082 C 0.2367 0.90206 0.99922 0.0
C2083 C 0.24027 0.90871 1.01468 0.0
C2084 C 0.21416 0.91281 0.02338 0.0
C2085 C 0.18564 0.90851 1.01711 0.0
C2086 C 0.30437 0.89723 0.04288 0.0
C2087 C 0.32962 0.90413 0.0341 0.0
C2088 C 0.27536 0.8996 0.03678 0.0
C2089 C 0.27089 0.90946 0.02182 0.0
C2090 C 0.2963 0.91824 1.01348 0.0
C2091 C 0.32521 0.91525 0.01947 0.0
H2092 H 0.84249 0.4509 0.73065 0.0
H2093 H 0.87178 0.41963 0.77426 0.0
H2094 H 0.83528 0.5013 0.74114 0.0
H2095 H 0.86556 0.46956 0.78449 0.0
H2096 H 0.84111 0.56012 0.80268 0.0
H2097 H 0.83385 0.50985 0.79207 0.0
H2098 H 0.86713 0.54116 0.74921 0.0
H2099 H 0.87344 0.59101 0.75954 0.0
C2100 C 0.84706 0.4546 0.74247 0.0
C2101 C 0.85805 0.43112 0.7515 0.0
C2102 C 0.84314 0.48358 0.74849 0.0
C2103 C 0.85005 0.48975 0.7637 0.0
C2104 C 0.85962 0.46585 0.77282 0.0
C2105 C 0.86351 0.43707 0.76684 0.0
C2106 C 0.84636 0.55636 0.79094 0.0
C2107 C 0.85818 0.57971 0.78208 0.0
C2108 C 0.8424 0.52746 0.78485 0.0
C2109 C 0.85011 0.5212 0.76975 0.0
C2110 C 0.86057 0.54496 0.76079 0.0
C2111 C 0.8645 0.57368 0.76683 0.0
H2112 H 0.11935 0.4388 0.105 0.0
H2113 H 0.15551 0.34899 0.10167 0.0
H2114 H 0.1269 0.43794 0.13218 0.0
H2115 H 0.16314 0.34821 0.12892 0.0
H2116 H 0.19272 0.36486 0.17731 0.0
H2117 H 0.1918 0.37194 0.15008 0.0
H2118 H 0.10275 0.40977 0.15331 0.0
H2119 H 0.10358 0.40262 0.18058 0.0
C2120 C 0.12939 0.41904 0.11002 0.0
C2121 C 0.13676 0.39391 0.10113 0.0
C2122 C 0.13349 0.41849 0.12564 0.0
C2123 C 0.14539 0.39294 0.13275 0.0
C2124 C 0.15409 0.36834 0.12379 0.0
C2125 C 0.14969 0.36876 0.10816 0.0
C2126 C 0.1731 0.37513 0.17226 0.0
C2127 C 0.14817 0.38313 0.18115 0.0
C2128 C 0.17252 0.37897 0.15663 0.0
C2129 C 0.14715 0.39123 0.1495 0.0
C2130 C 0.12274 0.40045 0.15845 0.0
C2131 C 0.12319 0.39631 0.17409 0.0
H2132 H 0.86495 0.84468 0.43176 0.0
H2133 H 0.90555 0.93249 0.42823 0.0
H2134 H 0.85902 0.84311 0.4044 0.0
H2135 H 0.89978 0.93082 0.40091 0.0
H2136 H 0.91973 0.89517 0.35212 0.0
H2137 H 0.92209 0.90136 0.37948 0.0
H2138 H 0.83133 0.86819 0.38334 0.0
H2139 H 0.82886 0.86217 0.35609 0.0
C2140 C 0.8723 0.86379 0.42518 0.0
C2141 C 0.88567 0.88872 0.43223 0.0
C2142 C 0.86886 0.86293 0.40948 0.0
C2143 C 0.87906 0.8868 0.40042 0.0
C2144 C 0.89196 0.91193 0.40751 0.0
C2145 C 0.89504 0.91296 0.42321 0.0
C2146 C 0.90014 0.88961 0.35879 0.0
C2147 C 0.87412 0.87818 0.35186 0.0
C2148 C 0.90147 0.89318 0.37448 0.0
C2149 C 0.87695 0.88506 0.38364 0.0
C2150 C 0.85073 0.87431 0.37666 0.0
C2151 C 0.84927 0.87109 0.361 0.0
H2152 H 0.32994 0.64713 0.68325 0.0
H2153 H 0.42165 0.61592 0.68592 0.0
H2154 H 0.33045 0.63967 0.65607 0.0
H2155 H 0.42207 0.60835 0.65863 0.0
H2156 H 0.36224 0.66396 0.60734 0.0
H2157 H 0.35677 0.66514 0.63469 0.0
H2158 H 0.39864 0.57788 0.63778 0.0
H2159 H 0.404 0.57659 0.61044 0.0
C2160 C 0.35011 0.63828 0.67807 0.0
C2161 C 0.37582 0.63221 0.68678 0.0
C2162 C 0.35043 0.6342 0.66247 0.0
C2163 C 0.37634 0.62362 0.65517 0.0
C2164 C 0.40167 0.61635 0.66393 0.0
C2165 C 0.40147 0.62074 0.67956 0.0
C2166 C 0.36983 0.64481 0.61383 0.0
C2167 C 0.38355 0.6202 0.60668 0.0
C2168 C 0.36666 0.64546 0.62951 0.0
C2169 C 0.37746 0.62167 0.63843 0.0
C2170 C 0.3904 0.59669 0.63125 0.0
C2171 C 0.39323 0.59587 0.61556 0.0
H2172 H 0.69223 0.14663 0.85871 0.0
H2173 H 0.60391 0.10718 0.85515 0.0
H2174 H 0.69028 0.14125 0.88605 0.0
H2175 H 0.60201 0.10176 0.88249 0.0
H2176 H 0.65356 0.16516 0.9341 0.0
H2177 H 0.66109 0.16524 0.90683 0.0
H2178 H 0.62511 0.07532 0.90422 0.0
H2179 H 0.61762 0.07521 0.93141 0.0
C2180 C 0.6726 0.13632 0.86372 0.0
C2181 C 0.64822 0.12731 0.8547 0.0
C2182 C 0.67139 0.13351 0.87943 0.0
C2183 C 0.64592 0.12128 0.88651 0.0
C2184 C 0.62208 0.11109 0.87743 0.0
C2185 C 0.62314 0.11422 0.86173 0.0
C2186 C 0.64763 0.14527 0.92774 0.0
C2187 C 0.63495 0.12022 0.93498 0.0
C2188 C 0.65203 0.14526 0.91209 0.0
C2189 C 0.64356 0.12033 0.90329 0.0
C2190 C 0.63157 0.09502 0.91061 0.0
C2191 C 0.62747 0.09491 0.92624 0.0
H2192 H 0.10085 0.60547 0.35367 0.0
H2193 H 0.19079 0.64169 0.35541 0.0
H2194 H 0.10146 0.59899 0.38096 0.0
H2195 H 0.19135 0.63523 0.38268 0.0
H2196 H 0.15813 0.66131 0.43111 0.0
H2197 H 0.16433 0.66049 0.4038 0.0
H2198 H 0.12584 0.57151 0.40219 0.0
H2199 H 0.11965 0.57228 0.42947 0.0
C2200 C 0.12095 0.61152 0.35983 0.0
C2201 C 0.14571 0.62418 0.35234 0.0
C2202 C 0.12134 0.60776 0.37548 0.0
C2203 C 0.14638 0.61684 0.38402 0.0
C2204 C 0.17158 0.62837 0.37646 0.0
C2205 C 0.17132 0.63185 0.3608 0.0
C2206 C 0.15146 0.64137 0.42496 0.0
C2207 C 0.13832 0.61691 0.43249 0.0
C2208 C 0.15508 0.64086 0.40931 0.0
C2209 C 0.1454 0.61599 0.40079 0.0
C2210 C 0.13321 0.59113 0.40839 0.0
C2211 C 0.12987 0.59152 0.42405 0.0
H2212 H 0.60333 0.90588 0.68007 0.0
H2213 H 0.69039 0.86393 0.67592 0.0
H2214 H 0.60098 0.91163 0.65276 0.0
H2215 H 0.68794 0.86957 0.64859 0.0
H2216 H 0.64894 0.84801 0.60049 0.0
H2217 H 0.65728 0.8469 0.62773 0.0
H2218 H 0.62495 0.93807 0.63118 0.0
H2219 H 0.61672 0.93925 0.60407 0.0
C2220 C 0.62219 0.89832 0.67337 0.0
C2221 C 0.64706 0.8845 0.68023 0.0
C2222 C 0.62086 0.90164 0.65769 0.0
C2223 C 0.6442 0.89088 0.64844 0.0
C2224 C 0.66944 0.87779 0.65535 0.0
C2225 C 0.67094 0.87483 0.67104 0.0
C2226 C 0.64403 0.86795 0.60703 0.0
C2227 C 0.63211 0.89368 0.60005 0.0
C2228 C 0.64887 0.86736 0.62265 0.0
C2229 C 0.64158 0.89235 0.63168 0.0
C2230 C 0.63046 0.91831 0.62461 0.0
C2231 C 0.62594 0.91902 0.60902 0.0
H2232 H 0.42095 0.39516 0.8518 0.0
H2233 H 0.32922 0.36395 0.85431 0.0
H2234 H 0.42112 0.40293 0.87907 0.0
H2235 H 0.32946 0.37165 0.88146 0.0
H2236 H 0.40269 0.43493 0.92724 0.0
H2237 H 0.39774 0.43345 0.89986 0.0
H2238 H 0.35526 0.34649 0.90298 0.0
H2239 H 0.36029 0.34788 0.93033 0.0
C2240 C 0.40071 0.39036 0.85812 0.0
C2241 C 0.37513 0.37884 0.85085 0.0
C2242 C 0.40077 0.39488 0.87375 0.0
C2243 C 0.37535 0.38769 0.88247 0.0
C2244 C 0.34952 0.37705 0.87511 0.0
C2245 C 0.34936 0.37283 0.85951 0.0
C2246 C 0.39187 0.41568 0.92211 0.0
C2247 C 0.38188 0.3915 0.931 0.0
C2248 C 0.38928 0.41475 0.9064 0.0
C2249 C 0.37628 0.38979 0.89922 0.0
C2250 C 0.36519 0.36616 0.90815 0.0
C2251 C 0.36811 0.36693 0.92384 0.0
H2252 H 0.92199 0.11664 0.1852 0.0
H2253 H 0.83223 0.15209 0.18033 0.0
H2254 H 0.9252 0.11017 0.15789 0.0
H2255 H 0.83554 0.1458 0.1531 0.0
H2256 H 0.87124 0.16661 0.10467 0.0
H2257 H 0.86463 0.16945 0.13199 0.0
H2258 H 0.90266 0.08073 0.13662 0.0
H2259 H 0.9091 0.0778 0.1094 0.0
C2260 C 0.90282 0.1227 0.17835 0.0
C2261 C 0.87686 0.13483 0.185 0.0
C2262 C 0.90463 0.11898 0.16268 0.0
C2263 C 0.88068 0.12766 0.15327 0.0
C2264 C 0.85452 0.13922 0.15998 0.0
C2265 C 0.85257 0.14258 0.17562 0.0
C2266 C 0.87787 0.14759 0.1115 0.0
C2267 C 0.89066 0.12198 0.1048 0.0
C2268 C 0.87403 0.14918 0.12716 0.0
C2269 C 0.88326 0.12536 0.13653 0.0
C2270 C 0.89562 0.0996 0.12978 0.0
C2271 C 0.89909 0.09787 0.11414 0.0
H2272 H 0.81948 0.64598 0.85774 0.0
H2273 H 0.90754 0.60588 0.85429 0.0
H2274 H 0.82117 0.64031 0.88508 0.0
H2275 H 0.90917 0.60018 0.8816 0.0
H2276 H 0.89342 0.57343 0.93037 0.0
H2277 H 0.8857 0.57371 0.90319 0.0
H2278 H 0.85053 0.66393 0.90595 0.0
H2279 H 0.85827 0.66369 0.93321 0.0
C2280 C 0.83899 0.63547 0.86278 0.0
C2281 C 0.86339 0.62637 0.85379 0.0
C2282 C 0.84005 0.63248 0.87848 0.0
C2283 C 0.86537 0.61998 0.88557 0.0
C2284 C 0.88921 0.6097 0.87652 0.0
C2285 C 0.8883 0.613 0.86084 0.0
C2286 C 0.88369 0.59324 0.92523 0.0
C2287 C 0.87653 0.61859 0.934 0.0
C2288 C 0.87945 0.59344 0.90962 0.0
C2289 C 0.86766 0.61889 0.90235 0.0
C2290 C 0.85944 0.64385 0.91118 0.0
C2291 C 0.86396 0.64376 0.92681 0.0
H2292 H 0.14795 0.16325 0.60558 0.0
H2293 H 0.10728 0.07542 0.60895 0.0
H2294 H 0.15373 0.16468 0.63293 0.0
H2295 H 0.11291 0.07697 0.63627 0.0
H2296 H 0.18172 0.14667 0.68144 0.0
H2297 H 0.1807 0.13947 0.65426 0.0
H2298 H 0.08944 0.10726 0.65722 0.0
H2299 H 0.09035 0.11462 0.68453 0.0
C2300 C 0.14068 0.14406 0.61212 0.0
C2301 C 0.12718 0.11924 0.60505 0.0
C2302 C 0.144 0.14485 0.6278 0.0
C2303 C 0.13358 0.121 0.6368 0.0
C2304 C 0.12085 0.09583 0.62969 0.0
C2305 C 0.11788 0.09487 0.614 0.0
C2306 C 0.16151 0.13769 0.67636 0.0
C2307 C 0.13606 0.13128 0.6852 0.0
C2308 C 0.1609 0.13377 0.66074 0.0
C2309 C 0.13495 0.123 0.65355 0.0
C2310 C 0.10987 0.11543 0.66243 0.0
C2311 C 0.11036 0.11968 0.67808 0.0
H2312 H 0.6086 0.43337 0.43024 0.0
H2313 H 0.64266 0.34282 0.4339 0.0
H2314 H 0.61502 0.43146 0.403 0.0
H2315 H 0.64921 0.341 0.40657 0.0
H2316 H 0.59224 0.39789 0.35443 0.0
H2317 H 0.5905 0.40375 0.38178 0.0
H2318 H 0.67861 0.36393 0.38537 0.0
H2319 H 0.68045 0.35819 0.35805 0.0
C2320 C 0.61783 0.41316 0.42527 0.0
C2321 C 0.62509 0.38822 0.4343 0.0
C2322 C 0.62129 0.41201 0.40961 0.0
C2323 C 0.63245 0.38603 0.40256 0.0
C2324 C 0.64074 0.36145 0.41164 0.0
C2325 C 0.63694 0.36246 0.42731 0.0
C2326 C 0.61141 0.39075 0.36103 0.0
C2327 C 0.63648 0.37761 0.35401 0.0
C2328 C 0.61045 0.39416 0.37672 0.0
C2329 C 0.63437 0.38416 0.3858 0.0
C2330 C 0.65968 0.37157 0.37874 0.0
C2331 C 0.6608 0.36851 0.36305 0.0
H2332 H 0.40308 0.93196 0.10715 0.0
H2333 H 0.36574 0.84276 0.10309 0.0
H2334 H 0.39691 0.92976 0.1344 0.0
H2335 H 0.3594 0.84068 0.13044 0.0
H2336 H 0.32783 0.859 0.17878 0.0
H2337 H 0.33049 0.86485 0.15152 0.0
H2338 H 0.42019 0.90072 0.15565 0.0
H2339 H 0.41764 0.8947 0.183 0.0
C2340 C 0.39322 0.91198 0.11204 0.0
C2341 C 0.38489 0.88751 0.10289 0.0
C2342 C 0.38991 0.91066 0.1277 0.0
C2343 C 0.37782 0.885 0.13463 0.0
C2344 C 0.36861 0.86088 0.12546 0.0
C2345 C 0.37228 0.86204 0.10978 0.0
C2346 C 0.34804 0.86847 0.17392 0.0
C2347 C 0.37255 0.8764 0.18312 0.0
C2348 C 0.34961 0.87158 0.15826 0.0
C2349 C 0.37559 0.88307 0.15137 0.0
C2350 C 0.39975 0.89196 0.1606 0.0
C2351 C 0.39832 0.88849 0.17628 0.0
H2352 H 0.90778 0.40511 0.67976 0.0
H2353 H 0.82131 0.36192 0.67574 0.0
H2354 H 0.90985 0.41099 0.65247 0.0
H2355 H 0.82346 0.3677 0.64839 0.0
H2356 H 0.86289 0.34703 0.60018 0.0
H2357 H 0.85438 0.34565 0.62741 0.0
H2358 H 0.88535 0.43726 0.63104 0.0
H2359 H 0.89376 0.43871 0.60396 0.0
C2360 C 0.88898 0.3973 0.67308 0.0
C2361 C 0.86436 0.38311 0.67998 0.0
C2362 C 0.89014 0.4007 0.65741 0.0
C2363 C 0.86688 0.38967 0.6482 0.0
C2364 C 0.84189 0.37617 0.65513 0.0
C2365 C 0.84055 0.37312 0.67083 0.0
C2366 C 0.86746 0.36701 0.60676 0.0
C2367 C 0.87909 0.39293 0.59985 0.0
C2368 C 0.86252 0.36625 0.62237 0.0
C2369 C 0.8694 0.39129 0.63145 0.0
C2370 C 0.88017 0.41746 0.62444 0.0
C2371 C 0.88481 0.41832 0.60887 0.0
H2372 H 0.31729 0.1442 0.3561 0.0
H2373 H 0.40561 0.1042 0.35441 0.0
H2374 H 0.31634 0.13757 0.38337 0.0
H2375 H 0.40463 0.09759 0.38167 0.0
H2376 H 0.38633 0.07149 0.43004 0.0
H2377 H 0.37947 0.07102 0.4028 0.0
H2378 H 0.34396 0.16121 0.40469 0.0
H2379 H 0.3508 0.1617 0.43196 0.0
C2380 C 0.3363 0.13351 0.3615 0.0
C2381 C 0.36158 0.12479 0.35305 0.0
C2382 C 0.33583 0.12993 0.37716 0.0
C2383 C 0.36047 0.11724 0.38474 0.0
C2384 C 0.38515 0.10723 0.3762 0.0
C2385 C 0.38576 0.11108 0.36055 0.0
C2386 C 0.37656 0.09105 0.4247 0.0
C2387 C 0.36922 0.11669 0.43321 0.0
C2388 C 0.37284 0.09084 0.40905 0.0
C2389 C 0.3614 0.11615 0.40152 0.0
C2390 C 0.35264 0.14124 0.41013 0.0
C2391 C 0.35662 0.14156 0.42577 0.0
H2392 H 0.68827 0.64188 0.17958 0.0
H2393 H 0.59911 0.60422 0.18286 0.0
H2394 H 0.68741 0.6345 0.15236 0.0
H2395 H 0.5983 0.59681 0.15563 0.0
H2396 H 0.6138 0.56862 0.10713 0.0
H2397 H 0.62178 0.56896 0.13431 0.0
H2398 H 0.65892 0.65835 0.13132 0.0
H2399 H 0.65092 0.65807 0.10412 0.0
C2400 C 0.66868 0.63152 0.17454 0.0
C2401 C 0.64371 0.6237 0.18343 0.0
C2402 C 0.66812 0.62752 0.15891 0.0
C2403 C 0.64272 0.61527 0.15178 0.0
C2404 C 0.61833 0.6061 0.16075 0.0
C2405 C 0.61876 0.6104 0.17638 0.0
C2406 C 0.62413 0.58819 0.11222 0.0
C2407 C 0.63165 0.61337 0.10342 0.0
C2408 C 0.62849 0.58843 0.12783 0.0
C2409 C 0.64079 0.61374 0.13502 0.0
C2410 C 0.6496 0.63839 0.12613 0.0
C2411 C 0.64495 0.63827 0.11053 0.0
H2412 H 0.08896 0.89463 0.85225 0.0
H2413 H 0.18158 0.8661 0.85462 0.0
H2414 H 0.08856 0.90165 0.8796 0.0
H2415 H 0.18107 0.87297 0.8818 0.0
H2416 H 0.10724 0.93306 0.92813 0.0
H2417 H 0.11141 0.93228 0.90071 0.0
H2418 H 0.15581 0.84618 0.90305 0.0
H2419 H 0.1515 0.84684 0.93045 0.0
C2420 C 0.10933 0.89029 0.85854 0.0
C2421 C 0.13524 0.87971 0.85121 0.0
C2422 C 0.10913 0.89435 0.87422 0.0
C2423 C 0.13473 0.88761 0.8829 0.0
C2424 C 0.16087 0.87798 0.87548 0.0
C2425 C 0.16117 0.87423 0.85986 0.0
C2426 C 0.11829 0.91414 0.92282 0.0
C2427 C 0.12909 0.89001 0.93151 0.0
C2428 C 0.12043 0.91361 0.90709 0.0
C2429 C 0.13381 0.88913 0.89967 0.0
C2430 C 0.14557 0.8655 0.9084 0.0
C2431 C 0.14308 0.86585 0.92412 0.0
loop_
_geom_bond_atom_site_label_1
_geom_bond_atom_site_label_2
_geom_bond_distance
_geom_bond_site_symmetry_2
_ccdc_geom_bond_type
Mn0 O5 2.095 . S
Mn0 O15 2.162 . S
Mn0 O16 2.297 . S
Mn0 O24 2.385 . S
Mn0 O25 2.209 . S
Mn0 O26 2.094 . S
Mn1 O6 2.121 . S
Mn1 N8 2.287 . S
Mn1 N17 2.282 . S
Mn1 O25 2.215 . S
Mn1 O27 2.117 . S
C2 O24 1.234 . S
C2 O25 1.283 . S
C3 O15 1.281 . S
C3 O16 1.236 . S
C4 O26 1.240 . S
C4 O27 1.264 . S
O5 Mn0 2.095 . S
O5 C14 1.250 . S
O6 Mn1 2.121 . S
O6 C14 1.258 . S
C7 N8 1.319 1_556 S
C7 C11 1.479 . S
C7 H13 0.916 1_556 S
N8 Mn1 2.287 . S
N8 C7 1.319 1_554 S
N8 C12 1.338 1_554 S
C9 C10 1.258 . S
C9 C12 1.431 . S
C9 C29 1.449 . S
C10 C9 1.258 . S
C10 C11 1.477 . S
C10 H30 0.931 . S
C11 C7 1.479 . S
C11 C10 1.477 . S
C11 H31 0.930 . S
C12 N8 1.338 1_556 S
C12 C9 1.431 . S
C12 C22 1.476 . S
H13 C7 0.916 1_554 S
C14 O5 1.250 . S
C14 O6 1.258 . S
O15 Mn0 2.162 . S
O15 C3 1.281 . S
O16 Mn0 2.297 . S
O16 C3 1.236 . S
N17 Mn1 2.282 . S
N17 C18 1.328 . S
N17 C22 1.318 1_554 S
C18 N17 1.328 . S
C18 C19 1.457 1_455 S
C18 H23 0.929 . S
C19 C18 1.457 1_655 S
C19 C20 1.291 1_554 S
C19 H32 0.931 . S
C20 C19 1.291 1_556 S
C20 C21 1.373 1_655 S
C20 H33 0.929 . S
C21 C20 1.373 1_455 S
C21 C22 1.396 . S
C21 C28 1.403 . S
C22 C12 1.476 . S
C22 N17 1.318 1_556 S
C22 C21 1.396 . S
H23 C18 0.929 . S
O24 Mn0 2.385 . S
O24 C2 1.234 . S
O25 Mn0 2.209 . S
O25 Mn1 2.215 . S
O25 C2 1.283 . S
O26 Mn0 2.094 . S
O26 C4 1.240 . S
O27 Mn1 2.117 . S
O27 C4 1.264 . S
C28 C21 1.403 . S
C28 C29 1.399 . S
C28 H34 0.929 . S
C29 C9 1.449 . S
C29 C28 1.399 . S
C29 H35 0.930 . S
H30 C10 0.931 . S
H31 C11 0.930 . S
H32 C19 0.931 . S
H33 C20 0.929 . S
H34 C28 0.929 . S
H35 C29 0.930 . S
Mn36 O41 2.095 . S
Mn36 O51 2.162 . S
Mn36 O52 2.297 . S
Mn36 O60 2.385 . S
Mn36 O61 2.209 . S
Mn36 O62 2.094 . S
Mn37 O42 2.121 . S
Mn37 N44 2.257 . S
Mn37 N53 2.282 . S
Mn37 O61 2.215 . S
Mn37 O63 2.117 . S
C38 O60 1.234 . S
C38 O61 1.283 . S
C39 O51 1.281 . S
C39 O52 1.236 . S
C40 O62 1.240 . S
C40 O63 1.264 . S
O41 Mn36 2.095 . S
O41 C50 1.250 . S
O42 Mn37 2.121 . S
O42 C50 1.258 . S
C43 N44 1.326 . S
C43 C47 1.460 . S
C43 H49 0.929 . S
N44 Mn37 2.257 . S
N44 C43 1.326 . S
N44 C48 1.362 . S
C45 C46 1.258 . S
C45 C48 1.431 . S
C45 C65 1.449 . S
C46 C45 1.258 . S
C46 C47 1.477 . S
C46 H66 0.931 1_655 S
C47 C43 1.460 . S
C47 C46 1.477 . S
C47 H67 0.930 . S
C48 N44 1.362 . S
C48 C45 1.431 . S
C48 C58 1.476 . S
H49 C43 0.929 . S
C50 O41 1.250 . S
C50 O42 1.258 . S
O51 Mn36 2.162 . S
O51 C39 1.281 . S
O52 Mn36 2.297 . S
O52 C39 1.236 . S
N53 Mn37 2.282 . S
N53 C54 1.328 . S
N53 C58 1.318 . S
C54 N53 1.328 . S
C54 C55 1.457 . S
C54 H59 0.929 . S
C55 C54 1.457 . S
C55 C56 1.291 . S
C55 H68 0.931 . S
C56 C55 1.291 . S
C56 C57 1.373 . S
C56 H69 0.929 . S
C57 C56 1.373 . S
C57 C58 1.396 . S
C57 C64 1.403 . S
C58 C48 1.476 . S
C58 N53 1.318 . S
C58 C57 1.396 . S
H59 C54 0.929 . S
O60 Mn36 2.385 . S
O60 C38 1.234 . S
O61 Mn36 2.209 . S
O61 Mn37 2.215 . S
O61 C38 1.283 . S
O62 Mn36 2.094 . S
O62 C40 1.240 . S
O63 Mn37 2.117 . S
O63 C40 1.264 . S
C64 C57 1.403 . S
C64 C65 1.399 . S
C64 H70 0.929 . S
C65 C45 1.449 . S
C65 C64 1.399 . S
C65 H71 0.930 1_655 S
H66 C46 0.931 1_455 S
H67 C47 0.930 . S
H68 C55 0.931 . S
H69 C56 0.929 . S
H70 C64 0.929 . S
H71 C65 0.930 1_455 S
Mn72 O77 2.095 . S
Mn72 O87 2.162 . S
Mn72 O88 2.297 . S
Mn72 O96 2.385 . S
Mn72 O97 2.209 . S
Mn72 O98 2.094 . S
Mn73 O78 2.121 . S
Mn73 N80 2.257 . S
Mn73 N89 2.282 . S
Mn73 O97 2.215 . S
Mn73 O99 2.117 . S
C74 O96 1.234 . S
C74 O97 1.283 . S
C75 O87 1.281 . S
C75 O88 1.236 . S
C76 O98 1.240 . S
C76 O99 1.264 . S
O77 Mn72 2.095 . S
O77 C86 1.250 . S
O78 Mn73 2.121 . S
O78 C86 1.258 . S
C79 N80 1.326 . S
C79 C83 1.460 . S
C79 H85 0.929 . S
N80 Mn73 2.257 . S
N80 C79 1.326 . S
N80 C84 1.362 . S
C81 C82 1.258 . S
C81 C84 1.431 . S
C81 C101 1.449 . S
C82 C81 1.258 . S
C82 C83 1.477 . S
C82 H102 0.931 . S
C83 C79 1.460 . S
C83 C82 1.477 . S
C83 H103 0.930 . S
C84 N80 1.362 . S
C84 C81 1.431 . S
C84 C94 1.476 . S
H85 C79 0.929 . S
C86 O77 1.250 . S
C86 O78 1.258 . S
O87 Mn72 2.162 . S
O87 C75 1.281 . S
O88 Mn72 2.297 . S
O88 C75 1.236 . S
N89 Mn73 2.282 . S
N89 C90 1.328 . S
N89 C94 1.318 . S
C90 N89 1.328 . S
C90 C91 1.457 . S
C90 H95 0.929 . S
C91 C90 1.457 . S
C91 C92 1.291 . S
C91 H104 0.931 . S
C92 C91 1.291 . S
C92 C93 1.373 . S
C92 H105 0.929 . S
C93 C92 1.373 . S
C93 C94 1.396 . S
C93 C100 1.403 . S
C94 C84 1.476 . S
C94 N89 1.318 . S
C94 C93 1.396 . S
H95 C90 0.929 . S
O96 Mn72 2.385 . S
O96 C74 1.234 . S
O97 Mn72 2.209 . S
O97 Mn73 2.215 . S
O97 C74 1.283 . S
O98 Mn72 2.094 . S
O98 C76 1.240 . S
O99 Mn73 2.117 . S
O99 C76 1.264 . S
C100 C93 1.403 . S
C100 C101 1.399 . S
C100 H106 0.929 . S
C101 C81 1.449 . S
C101 C100 1.399 . S
C101 H107 0.930 . S
H102 C82 0.931 . S
H103 C83 0.930 . S
H104 C91 0.931 . S
H105 C92 0.929 . S
H106 C100 0.929 . S
H107 C101 0.930 . S
Mn108 O113 2.095 . S
Mn108 O123 2.162 . S
Mn108 O124 2.297 . S
Mn108 O132 2.385 . S
Mn108 O133 2.209 . S
Mn108 O134 2.094 . S
Mn109 O114 2.121 . S
Mn109 N116 2.257 . S
Mn109 N125 2.282 . S
Mn109 O133 2.215 . S
Mn109 O135 2.117 . S
C110 O132 1.234 . S
C110 O133 1.283 . S
C111 O123 1.281 . S
C111 O124 1.236 . S
C112 O134 1.240 . S
C112 O135 1.264 . S
O113 Mn108 2.095 . S
O113 C122 1.250 . S
O114 Mn109 2.121 . S
O114 C122 1.258 . S
C115 N116 1.326 . S
C115 C119 1.460 . S
C115 H121 0.929 . S
N116 Mn109 2.257 . S
N116 C115 1.326 . S
N116 C120 1.362 . S
C117 C118 1.258 . S
C117 C120 1.431 . S
C117 C137 1.449 . S
C118 C117 1.258 . S
C118 C119 1.477 . S
C118 H138 0.931 . S
C119 C115 1.460 . S
C119 C118 1.477 . S
C119 H139 0.930 . S
C120 N116 1.362 . S
C120 C117 1.431 . S
C120 C130 1.476 . S
H121 C115 0.929 . S
C122 O113 1.250 . S
C122 O114 1.258 . S
O123 Mn108 2.162 . S
O123 C111 1.281 . S
O124 Mn108 2.297 . S
O124 C111 1.236 . S
N125 Mn109 2.282 . S
N125 C126 1.328 . S
N125 C130 1.318 . S
C126 N125 1.328 . S
C126 C127 1.457 . S
C126 H131 0.929 . S
C127 C126 1.457 . S
C127 C128 1.291 . S
C127 H140 0.931 . S
C128 C127 1.291 . S
C128 C129 1.373 . S
C128 H141 0.929 . S
C129 C128 1.373 . S
C129 C130 1.396 . S
C129 C136 1.403 . S
C130 C120 1.476 . S
C130 N125 1.318 . S
C130 C129 1.396 . S
H131 C126 0.929 . S
O132 Mn108 2.385 . S
O132 C110 1.234 . S
O133 Mn108 2.209 . S
O133 Mn109 2.215 . S
O133 C110 1.283 . S
O134 Mn108 2.094 . S
O134 C112 1.240 . S
O135 Mn109 2.117 . S
O135 C112 1.264 . S
C136 C129 1.403 . S
C136 C137 1.399 . S
C136 H142 0.929 . S
C137 C117 1.449 . S
C137 C136 1.399 . S
C137 H143 0.930 . S
H138 C118 0.931 . S
H139 C119 0.930 . S
H140 C127 0.931 . S
H141 C128 0.929 . S
H142 C136 0.929 . S
H143 C137 0.930 . S
Mn144 O149 2.095 . S
Mn144 O159 2.162 . S
Mn144 O160 2.297 . S
Mn144 O168 2.385 . S
Mn144 O169 2.209 . S
Mn144 O170 2.094 . S
Mn145 O150 2.121 . S
Mn145 N152 2.257 . S
Mn145 N161 2.282 . S
Mn145 O169 2.215 . S
Mn145 O171 2.117 . S
C146 O168 1.234 . S
C146 O169 1.283 . S
C147 O159 1.281 . S
C147 O160 1.236 . S
C148 O170 1.240 . S
C148 O171 1.264 . S
O149 Mn144 2.095 . S
O149 C158 1.250 . S
O150 Mn145 2.121 . S
O150 C158 1.258 . S
C151 N152 1.326 . S
C151 C155 1.460 . S
C151 H157 0.929 . S
N152 Mn145 2.257 . S
N152 C151 1.326 . S
N152 C156 1.362 . S
C153 C154 1.258 . S
C153 C156 1.431 . S
C153 C173 1.449 . S
C154 C153 1.258 . S
C154 C155 1.477 . S
C154 H174 0.931 . S
C155 C151 1.460 . S
C155 C154 1.477 . S
C155 H175 0.930 . S
C156 N152 1.362 . S
C156 C153 1.431 . S
C156 C166 1.476 . S
H157 C151 0.929 . S
C158 O149 1.250 . S
C158 O150 1.258 . S
O159 Mn144 2.162 . S
O159 C147 1.281 . S
O160 Mn144 2.297 . S
O160 C147 1.236 . S
N161 Mn145 2.282 . S
N161 C162 1.328 . S
N161 C166 1.318 . S
C162 N161 1.328 . S
C162 C163 1.457 1_455 S
C162 H167 0.929 . S
C163 C162 1.457 1_655 S
C163 C164 1.291 . S
C163 H176 0.931 . S
C164 C163 1.291 . S
C164 C165 1.373 1_655 S
C164 H177 0.929 . S
C165 C164 1.373 1_455 S
C165 C166 1.396 . S
C165 C172 1.403 . S
C166 C156 1.476 . S
C166 N161 1.318 . S
C166 C165 1.396 . S
H167 C162 0.929 . S
O168 Mn144 2.385 . S
O168 C146 1.234 . S
O169 Mn144 2.209 . S
O169 Mn145 2.215 . S
O169 C146 1.283 . S
O170 Mn144 2.094 . S
O170 C148 1.240 . S
O171 Mn145 2.117 . S
O171 C148 1.264 . S
C172 C165 1.403 . S
C172 C173 1.399 . S
C172 H178 0.929 . S
C173 C153 1.449 . S
C173 C172 1.399 . S
C173 H179 0.930 . S
H174 C154 0.931 . S
H175 C155 0.930 . S
H176 C163 0.931 . S
H177 C164 0.929 . S
H178 C172 0.929 . S
H179 C173 0.930 . S
Mn180 O185 2.095 . S
Mn180 O195 2.162 . S
Mn180 O196 2.297 . S
Mn180 O204 2.385 . S
Mn180 O205 2.209 . S
Mn180 O206 2.094 . S
Mn181 O186 2.121 . S
Mn181 N188 2.257 . S
Mn181 N197 2.282 . S
Mn181 O205 2.215 . S
Mn181 O207 2.117 . S
C182 O204 1.234 . S
C182 O205 1.283 . S
C183 O195 1.281 . S
C183 O196 1.236 . S
C184 O206 1.240 . S
C184 O207 1.264 . S
O185 Mn180 2.095 . S
O185 C194 1.250 . S
O186 Mn181 2.121 . S
O186 C194 1.258 . S
C187 N188 1.326 . S
C187 C191 1.460 . S
C187 H193 0.929 . S
N188 Mn181 2.257 . S
N188 C187 1.326 . S
N188 C192 1.362 . S
C189 C190 1.258 . S
C189 C192 1.431 . S
C189 C209 1.449 . S
C190 C189 1.258 . S
C190 C191 1.477 . S
C190 H210 0.931 . S
C191 C187 1.460 . S
C191 C190 1.477 . S
C191 H211 0.930 . S
C192 N188 1.362 . S
C192 C189 1.431 . S
C192 C202 1.476 . S
H193 C187 0.929 . S
C194 O185 1.250 . S
C194 O186 1.258 . S
O195 Mn180 2.162 . S
O195 C183 1.281 . S
O196 Mn180 2.297 . S
O196 C183 1.236 . S
N197 Mn181 2.282 . S
N197 C198 1.328 . S
N197 C202 1.318 . S
C198 N197 1.328 . S
C198 C199 1.457 . S
C198 H203 0.929 . S
C199 C198 1.457 . S
C199 C200 1.291 . S
C199 H212 0.931 . S
C200 C199 1.291 . S
C200 C201 1.373 . S
C200 H213 0.929 . S
C201 C200 1.373 . S
C201 C202 1.396 . S
C201 C208 1.403 . S
C202 C192 1.476 . S
C202 N197 1.318 . S
C202 C201 1.396 . S
H203 C198 0.929 . S
O204 Mn180 2.385 . S
O204 C182 1.234 . S
O205 Mn180 2.209 . S
O205 Mn181 2.215 . S
O205 C182 1.283 . S
O206 Mn180 2.094 . S
O206 C184 1.240 . S
O207 Mn181 2.117 . S
O207 C184 1.264 . S
C208 C201 1.403 . S
C208 C209 1.399 . S
C208 H214 0.929 . S
C209 C189 1.449 . S
C209 C208 1.399 . S
C209 H215 0.930 . S
H210 C190 0.931 . S
H211 C191 0.930 . S
H212 C199 0.931 . S
H213 C200 0.929 . S
H214 C208 0.929 . S
H215 C209 0.930 . S
Mn216 O221 2.095 . S
Mn216 O231 2.162 . S
Mn216 O232 2.297 . S
Mn216 O240 2.385 . S
Mn216 O241 2.209 . S
Mn216 O242 2.094 . S
Mn217 O222 2.121 . S
Mn217 N224 2.287 . S
Mn217 N233 2.282 . S
Mn217 O241 2.215 . S
Mn217 O243 2.117 . S
C218 O240 1.234 . S
C218 O241 1.283 . S
C219 O231 1.281 . S
C219 O232 1.236 . S
C220 O242 1.240 . S
C220 O243 1.264 . S
O221 Mn216 2.095 . S
O221 C230 1.250 . S
O222 Mn217 2.121 . S
O222 C230 1.258 . S
C223 N224 1.319 1_554 S
C223 C227 1.479 . S
C223 H229 0.916 1_554 S
N224 Mn217 2.287 . S
N224 C223 1.319 1_556 S
N224 C228 1.338 1_556 S
C225 C226 1.258 . S
C225 C228 1.431 . S
C225 C245 1.449 . S
C226 C225 1.258 . S
C226 C227 1.477 . S
C226 H246 0.931 . S
C227 C223 1.479 . S
C227 C226 1.477 . S
C227 H247 0.930 . S
C228 N224 1.338 1_554 S
C228 C225 1.431 . S
C228 C238 1.476 . S
H229 C223 0.916 1_556 S
C230 O221 1.250 . S
C230 O222 1.258 . S
O231 Mn216 2.162 . S
O231 C219 1.281 . S
O232 Mn216 2.297 . S
O232 C219 1.236 . S
N233 Mn217 2.282 . S
N233 C234 1.328 . S
N233 C238 1.318 1_556 S
C234 N233 1.328 . S
C234 C235 1.457 . S
C234 H239 0.929 . S
C235 C234 1.457 . S
C235 C236 1.291 1_556 S
C235 H248 0.931 . S
C236 C235 1.291 1_554 S
C236 C237 1.373 . S
C236 H249 0.929 . S
C237 C236 1.373 . S
C237 C238 1.396 . S
C237 C244 1.403 . S
C238 C228 1.476 . S
C238 N233 1.318 1_554 S
C238 C237 1.396 . S
H239 C234 0.929 . S
O240 Mn216 2.385 . S
O240 C218 1.234 . S
O241 Mn216 2.209 . S
O241 Mn217 2.215 . S
O241 C218 1.283 . S
O242 Mn216 2.094 . S
O242 C220 1.240 . S
O243 Mn217 2.117 . S
O243 C220 1.264 . S
C244 C237 1.403 . S
C244 C245 1.399 . S
C244 H250 0.929 . S
C245 C225 1.449 . S
C245 C244 1.399 . S
C245 H251 0.930 . S
H246 C226 0.931 . S
H247 C227 0.930 . S
H248 C235 0.931 . S
H249 C236 0.929 . S
H250 C244 0.929 . S
H251 C245 0.930 . S
Mn252 O257 2.095 . S
Mn252 O267 2.162 . S
Mn252 O268 2.297 . S
Mn252 O276 2.385 . S
Mn252 O277 2.209 . S
Mn252 O278 2.094 . S
Mn253 O258 2.121 . S
Mn253 N260 2.257 . S
Mn253 N269 2.282 . S
Mn253 O277 2.215 . S
Mn253 O279 2.117 . S
C254 O276 1.234 . S
C254 O277 1.283 . S
C255 O267 1.281 . S
C255 O268 1.236 . S
C256 O278 1.240 . S
C256 O279 1.264 . S
O257 Mn252 2.095 . S
O257 C266 1.250 . S
O258 Mn253 2.121 . S
O258 C266 1.258 . S
C259 N260 1.326 . S
C259 C263 1.460 . S
C259 H265 0.929 . S
N260 Mn253 2.257 . S
N260 C259 1.326 . S
N260 C264 1.362 . S
C261 C262 1.258 . S
C261 C264 1.431 . S
C261 C281 1.449 . S
C262 C261 1.258 . S
C262 C263 1.477 . S
C262 H282 0.931 1_655 S
C263 C259 1.460 . S
C263 C262 1.477 . S
C263 H283 0.930 . S
C264 N260 1.362 . S
C264 C261 1.431 . S
C264 C274 1.476 . S
H265 C259 0.929 . S
C266 O257 1.250 . S
C266 O258 1.258 . S
O267 Mn252 2.162 . S
O267 C255 1.281 . S
O268 Mn252 2.297 . S
O268 C255 1.236 . S
N269 Mn253 2.282 . S
N269 C270 1.328 . S
N269 C274 1.318 . S
C270 N269 1.328 . S
C270 C271 1.457 . S
C270 H275 0.929 . S
C271 C270 1.457 . S
C271 C272 1.291 . S
C271 H284 0.931 . S
C272 C271 1.291 . S
C272 C273 1.373 . S
C272 H285 0.929 . S
C273 C272 1.373 . S
C273 C274 1.396 . S
C273 C280 1.403 . S
C274 C264 1.476 . S
C274 N269 1.318 . S
C274 C273 1.396 . S
H275 C270 0.929 . S
O276 Mn252 2.385 . S
O276 C254 1.234 . S
O277 Mn252 2.209 . S
O277 Mn253 2.215 . S
O277 C254 1.283 . S
O278 Mn252 2.094 . S
O278 C256 1.240 . S
O279 Mn253 2.117 . S
O279 C256 1.264 . S
C280 C273 1.403 . S
C280 C281 1.399 . S
C280 H286 0.929 . S
C281 C261 1.449 . S
C281 C280 1.399 . S
C281 H287 0.930 1_655 S
H282 C262 0.931 1_455 S
H283 C263 0.930 . S
H284 C271 0.931 . S
H285 C272 0.929 . S
H286 C280 0.929 . S
H287 C281 0.930 1_455 S
Mn288 O293 2.095 . S
Mn288 O303 2.162 . S
Mn288 O304 2.297 . S
Mn288 O312 2.385 . S
Mn288 O313 2.209 . S
Mn288 O314 2.094 . S
Mn289 O294 2.121 . S
Mn289 N296 2.287 . S
Mn289 N305 2.282 . S
Mn289 O313 2.215 . S
Mn289 O315 2.117 . S
C290 O312 1.234 . S
C290 O313 1.283 . S
C291 O303 1.281 . S
C291 O304 1.236 . S
C292 O314 1.240 . S
C292 O315 1.264 . S
O293 Mn288 2.095 . S
O293 C302 1.250 . S
O294 Mn289 2.121 . S
O294 C302 1.258 . S
C295 N296 1.319 1_554 S
C295 C299 1.479 . S
C295 H301 0.916 1_554 S
N296 Mn289 2.287 . S
N296 C295 1.319 1_556 S
N296 C300 1.338 1_556 S
C297 C298 1.258 . S
C297 C300 1.431 . S
C297 C317 1.449 . S
C298 C297 1.258 . S
C298 C299 1.477 . S
C298 H318 0.931 . S
C299 C295 1.479 . S
C299 C298 1.477 . S
C299 H319 0.930 . S
C300 N296 1.338 1_554 S
C300 C297 1.431 . S
C300 C310 1.476 . S
H301 C295 0.916 1_556 S
C302 O293 1.250 . S
C302 O294 1.258 . S
O303 Mn288 2.162 . S
O303 C291 1.281 . S
O304 Mn288 2.297 . S
O304 C291 1.236 . S
N305 Mn289 2.282 . S
N305 C306 1.328 . S
N305 C310 1.318 1_556 S
C306 N305 1.328 . S
C306 C307 1.457 1_655 S
C306 H311 0.929 . S
C307 C306 1.457 1_455 S
C307 C308 1.291 1_556 S
C307 H320 0.931 . S
C308 C307 1.291 1_554 S
C308 C309 1.373 1_455 S
C308 H321 0.929 . S
C309 C308 1.373 1_655 S
C309 C310 1.396 . S
C309 C316 1.403 . S
C310 C300 1.476 . S
C310 N305 1.318 1_554 S
C310 C309 1.396 . S
H311 C306 0.929 . S
O312 Mn288 2.385 . S
O312 C290 1.234 . S
O313 Mn288 2.209 . S
O313 Mn289 2.215 . S
O313 C290 1.283 . S
O314 Mn288 2.094 . S
O314 C292 1.240 . S
O315 Mn289 2.117 . S
O315 C292 1.264 . S
C316 C309 1.403 . S
C316 C317 1.399 . S
C316 H322 0.929 . S
C317 C297 1.449 . S
C317 C316 1.399 . S
C317 H323 0.930 . S
H318 C298 0.931 . S
H319 C299 0.930 . S
H320 C307 0.931 . S
H321 C308 0.929 . S
H322 C316 0.929 . S
H323 C317 0.930 . S
Mn324 O329 2.095 . S
Mn324 O339 2.162 . S
Mn324 O340 2.297 . S
Mn324 O348 2.385 . S
Mn324 O349 2.209 . S
Mn324 O350 2.094 . S
Mn325 O330 2.121 . S
Mn325 N332 2.257 . S
Mn325 N341 2.282 . S
Mn325 O349 2.215 . S
Mn325 O351 2.117 . S
C326 O348 1.234 . S
C326 O349 1.283 . S
C327 O339 1.281 . S
C327 O340 1.236 . S
C328 O350 1.240 . S
C328 O351 1.264 . S
O329 Mn324 2.095 . S
O329 C338 1.250 . S
O330 Mn325 2.121 . S
O330 C338 1.258 . S
C331 N332 1.326 . S
C331 C335 1.460 . S
C331 H337 0.929 . S
N332 Mn325 2.257 . S
N332 C331 1.326 . S
N332 C336 1.362 . S
C333 C334 1.258 . S
C333 C336 1.431 . S
C333 C353 1.449 . S
C334 C333 1.258 . S
C334 C335 1.477 . S
C334 H354 0.931 1_455 S
C335 C331 1.460 . S
C335 C334 1.477 . S
C335 H355 0.930 . S
C336 N332 1.362 . S
C336 C333 1.431 . S
C336 C346 1.476 . S
H337 C331 0.929 . S
C338 O329 1.250 . S
C338 O330 1.258 . S
O339 Mn324 2.162 . S
O339 C327 1.281 . S
O340 Mn324 2.297 . S
O340 C327 1.236 . S
N341 Mn325 2.282 . S
N341 C342 1.328 . S
N341 C346 1.318 . S
C342 N341 1.328 . S
C342 C343 1.457 . S
C342 H347 0.929 . S
C343 C342 1.457 . S
C343 C344 1.291 . S
C343 H356 0.931 . S
C344 C343 1.291 . S
C344 C345 1.373 . S
C344 H357 0.929 . S
C345 C344 1.373 . S
C345 C346 1.396 . S
C345 C352 1.403 . S
C346 C336 1.476 . S
C346 N341 1.318 . S
C346 C345 1.396 . S
H347 C342 0.929 . S
O348 Mn324 2.385 . S
O348 C326 1.234 . S
O349 Mn324 2.209 . S
O349 Mn325 2.215 . S
O349 C326 1.283 . S
O350 Mn324 2.094 . S
O350 C328 1.240 . S
O351 Mn325 2.117 . S
O351 C328 1.264 . S
C352 C345 1.403 . S
C352 C353 1.399 . S
C352 H358 0.929 . S
C353 C333 1.449 . S
C353 C352 1.399 . S
C353 H359 0.930 1_455 S
H354 C334 0.931 1_655 S
H355 C335 0.930 . S
H356 C343 0.931 . S
H357 C344 0.929 . S
H358 C352 0.929 . S
H359 C353 0.930 1_655 S
Mn360 O365 2.095 . S
Mn360 O375 2.162 . S
Mn360 O376 2.297 . S
Mn360 O384 2.385 . S
Mn360 O385 2.209 . S
Mn360 O386 2.094 . S
Mn361 O366 2.121 . S
Mn361 N368 2.257 . S
Mn361 N377 2.282 . S
Mn361 O385 2.215 . S
Mn361 O387 2.117 . S
C362 O384 1.234 . S
C362 O385 1.283 . S
C363 O375 1.281 . S
C363 O376 1.236 . S
C364 O386 1.240 . S
C364 O387 1.264 . S
O365 Mn360 2.095 . S
O365 C374 1.250 . S
O366 Mn361 2.121 . S
O366 C374 1.258 . S
C367 N368 1.326 . S
C367 C371 1.460 . S
C367 H373 0.929 . S
N368 Mn361 2.257 . S
N368 C367 1.326 . S
N368 C372 1.362 . S
C369 C370 1.258 . S
C369 C372 1.431 . S
C369 C389 1.449 . S
C370 C369 1.258 . S
C370 C371 1.477 . S
C370 H390 0.931 . S
C371 C367 1.460 . S
C371 C370 1.477 . S
C371 H391 0.930 . S
C372 N368 1.362 . S
C372 C369 1.431 . S
C372 C382 1.476 . S
H373 C367 0.929 . S
C374 O365 1.250 . S
C374 O366 1.258 . S
O375 Mn360 2.162 . S
O375 C363 1.281 . S
O376 Mn360 2.297 . S
O376 C363 1.236 . S
N377 Mn361 2.282 . S
N377 C378 1.328 . S
N377 C382 1.318 . S
C378 N377 1.328 . S
C378 C379 1.457 . S
C378 H383 0.929 . S
C379 C378 1.457 . S
C379 C380 1.291 . S
C379 H392 0.931 . S
C380 C379 1.291 . S
C380 C381 1.373 . S
C380 H393 0.929 . S
C381 C380 1.373 . S
C381 C382 1.396 . S
C381 C388 1.403 . S
C382 C372 1.476 . S
C382 N377 1.318 . S
C382 C381 1.396 . S
H383 C378 0.929 . S
O384 Mn360 2.385 . S
O384 C362 1.234 . S
O385 Mn360 2.209 . S
O385 Mn361 2.215 . S
O385 C362 1.283 . S
O386 Mn360 2.094 . S
O386 C364 1.240 . S
O387 Mn361 2.117 . S
O387 C364 1.264 . S
C388 C381 1.403 . S
C388 C389 1.399 . S
C388 H394 0.929 . S
C389 C369 1.449 . S
C389 C388 1.399 . S
C389 H395 0.930 . S
H390 C370 0.931 . S
H391 C371 0.930 . S
H392 C379 0.931 . S
H393 C380 0.929 . S
H394 C388 0.929 . S
H395 C389 0.930 . S
Mn396 O401 2.095 . S
Mn396 O411 2.162 . S
Mn396 O412 2.297 . S
Mn396 O420 2.385 . S
Mn396 O421 2.209 . S
Mn396 O422 2.094 . S
Mn397 O402 2.121 . S
Mn397 N404 2.257 . S
Mn397 N413 2.282 . S
Mn397 O421 2.215 . S
Mn397 O423 2.117 . S
C398 O420 1.234 . S
C398 O421 1.283 . S
C399 O411 1.281 . S
C399 O412 1.236 . S
C400 O422 1.240 . S
C400 O423 1.264 . S
O401 Mn396 2.095 . S
O401 C410 1.250 . S
O402 Mn397 2.121 . S
O402 C410 1.258 . S
C403 N404 1.326 . S
C403 C407 1.460 . S
C403 H409 0.929 . S
N404 Mn397 2.257 . S
N404 C403 1.326 . S
N404 C408 1.362 . S
C405 C406 1.258 . S
C405 C408 1.431 . S
C405 C425 1.449 . S
C406 C405 1.258 . S
C406 C407 1.477 . S
C406 H426 0.931 . S
C407 C403 1.460 . S
C407 C406 1.477 . S
C407 H427 0.930 . S
C408 N404 1.362 . S
C408 C405 1.431 . S
C408 C418 1.476 . S
H409 C403 0.929 . S
C410 O401 1.250 . S
C410 O402 1.258 . S
O411 Mn396 2.162 . S
O411 C399 1.281 . S
O412 Mn396 2.297 . S
O412 C399 1.236 . S
N413 Mn397 2.282 . S
N413 C414 1.328 . S
N413 C418 1.318 . S
C414 N413 1.328 . S
C414 C415 1.457 . S
C414 H419 0.929 . S
C415 C414 1.457 . S
C415 C416 1.291 . S
C415 H428 0.931 . S
C416 C415 1.291 . S
C416 C417 1.373 . S
C416 H429 0.929 . S
C417 C416 1.373 . S
C417 C418 1.396 . S
C417 C424 1.403 . S
C418 C408 1.476 . S
C418 N413 1.318 . S
C418 C417 1.396 . S
H419 C414 0.929 . S
O420 Mn396 2.385 . S
O420 C398 1.234 . S
O421 Mn396 2.209 . S
O421 Mn397 2.215 . S
O421 C398 1.283 . S
O422 Mn396 2.094 . S
O422 C400 1.240 . S
O423 Mn397 2.117 . S
O423 C400 1.264 . S
C424 C417 1.403 . S
C424 C425 1.399 . S
C424 H430 0.929 . S
C425 C405 1.449 . S
C425 C424 1.399 . S
C425 H431 0.930 . S
H426 C406 0.931 . S
H427 C407 0.930 . S
H428 C415 0.931 . S
H429 C416 0.929 . S
H430 C424 0.929 . S
H431 C425 0.930 . S
Mn432 O437 2.095 . S
Mn432 O447 2.162 . S
Mn432 O448 2.297 . S
Mn432 O456 2.385 . S
Mn432 O457 2.209 . S
Mn432 O458 2.094 . S
Mn433 O438 2.121 . S
Mn433 N440 2.257 . S
Mn433 N449 2.282 . S
Mn433 O457 2.215 . S
Mn433 O459 2.117 . S
C434 O456 1.234 . S
C434 O457 1.283 . S
C435 O447 1.281 . S
C435 O448 1.236 . S
C436 O458 1.240 . S
C436 O459 1.264 . S
O437 Mn432 2.095 . S
O437 C446 1.250 . S
O438 Mn433 2.121 . S
O438 C446 1.258 . S
C439 N440 1.326 . S
C439 C443 1.460 . S
C439 H445 0.929 . S
N440 Mn433 2.257 . S
N440 C439 1.326 . S
N440 C444 1.362 . S
C441 C442 1.258 . S
C441 C444 1.431 . S
C441 C461 1.449 . S
C442 C441 1.258 . S
C442 C443 1.477 . S
C442 H462 0.931 . S
C443 C439 1.460 . S
C443 C442 1.477 . S
C443 H463 0.930 . S
C444 N440 1.362 . S
C444 C441 1.431 . S
C444 C454 1.476 . S
H445 C439 0.929 . S
C446 O437 1.250 . S
C446 O438 1.258 . S
O447 Mn432 2.162 . S
O447 C435 1.281 . S
O448 Mn432 2.297 . S
O448 C435 1.236 . S
N449 Mn433 2.282 . S
N449 C450 1.328 . S
N449 C454 1.318 . S
C450 N449 1.328 . S
C450 C451 1.457 1_655 S
C450 H455 0.929 . S
C451 C450 1.457 1_455 S
C451 C452 1.291 . S
C451 H464 0.931 . S
C452 C451 1.291 . S
C452 C453 1.373 1_455 S
C452 H465 0.929 . S
C453 C452 1.373 1_655 S
C453 C454 1.396 . S
C453 C460 1.403 . S
C454 C444 1.476 . S
C454 N449 1.318 . S
C454 C453 1.396 . S
H455 C450 0.929 . S
O456 Mn432 2.385 . S
O456 C434 1.234 . S
O457 Mn432 2.209 . S
O457 Mn433 2.215 . S
O457 C434 1.283 . S
O458 Mn432 2.094 . S
O458 C436 1.240 . S
O459 Mn433 2.117 . S
O459 C436 1.264 . S
C460 C453 1.403 . S
C460 C461 1.399 . S
C460 H466 0.929 . S
C461 C441 1.449 . S
C461 C460 1.399 . S
C461 H467 0.930 . S
H462 C442 0.931 . S
H463 C443 0.930 . S
H464 C451 0.931 . S
H465 C452 0.929 . S
H466 C460 0.929 . S
H467 C461 0.930 . S
Mn468 O473 2.095 . S
Mn468 O483 2.162 . S
Mn468 O484 2.297 . S
Mn468 O492 2.385 . S
Mn468 O493 2.209 . S
Mn468 O494 2.094 . S
Mn469 O474 2.121 . S
Mn469 N476 2.257 . S
Mn469 N485 2.282 . S
Mn469 O493 2.215 . S
Mn469 O495 2.117 . S
C470 O492 1.234 . S
C470 O493 1.283 . S
C471 O483 1.281 . S
C471 O484 1.236 . S
C472 O494 1.240 . S
C472 O495 1.264 . S
O473 Mn468 2.095 . S
O473 C482 1.250 . S
O474 Mn469 2.121 . S
O474 C482 1.258 . S
C475 N476 1.326 . S
C475 C479 1.460 . S
C475 H481 0.929 . S
N476 Mn469 2.257 . S
N476 C475 1.326 . S
N476 C480 1.362 . S
C477 C478 1.258 . S
C477 C480 1.431 . S
C477 C497 1.449 . S
C478 C477 1.258 . S
C478 C479 1.477 . S
C478 H498 0.931 . S
C479 C475 1.460 . S
C479 C478 1.477 . S
C479 H499 0.930 . S
C480 N476 1.362 . S
C480 C477 1.431 . S
C480 C490 1.476 . S
H481 C475 0.929 . S
C482 O473 1.250 . S
C482 O474 1.258 . S
O483 Mn468 2.162 . S
O483 C471 1.281 . S
O484 Mn468 2.297 . S
O484 C471 1.236 . S
N485 Mn469 2.282 . S
N485 C486 1.328 . S
N485 C490 1.318 . S
C486 N485 1.328 . S
C486 C487 1.457 . S
C486 H491 0.929 . S
C487 C486 1.457 . S
C487 C488 1.291 . S
C487 H500 0.931 . S
C488 C487 1.291 . S
C488 C489 1.373 . S
C488 H501 0.929 . S
C489 C488 1.373 . S
C489 C490 1.396 . S
C489 C496 1.403 . S
C490 C480 1.476 . S
C490 N485 1.318 . S
C490 C489 1.396 . S
H491 C486 0.929 . S
O492 Mn468 2.385 . S
O492 C470 1.234 . S
O493 Mn468 2.209 . S
O493 Mn469 2.215 . S
O493 C470 1.283 . S
O494 Mn468 2.094 . S
O494 C472 1.240 . S
O495 Mn469 2.117 . S
O495 C472 1.264 . S
C496 C489 1.403 . S
C496 C497 1.399 . S
C496 H502 0.929 . S
C497 C477 1.449 . S
C497 C496 1.399 . S
C497 H503 0.930 . S
H498 C478 0.931 . S
H499 C479 0.930 . S
H500 C487 0.931 . S
H501 C488 0.929 . S
H502 C496 0.929 . S
H503 C497 0.930 . S
Mn504 O509 2.095 . S
Mn504 O519 2.162 . S
Mn504 O520 2.297 . S
Mn504 O528 2.385 . S
Mn504 O529 2.209 . S
Mn504 O530 2.094 . S
Mn505 O510 2.121 . S
Mn505 N512 2.287 . S
Mn505 N521 2.282 . S
Mn505 O529 2.215 . S
Mn505 O531 2.117 . S
C506 O528 1.234 . S
C506 O529 1.283 . S
C507 O519 1.281 . S
C507 O520 1.236 . S
C508 O530 1.240 . S
C508 O531 1.264 . S
O509 Mn504 2.095 . S
O509 C518 1.250 . S
O510 Mn505 2.121 . S
O510 C518 1.258 . S
C511 N512 1.319 1_556 S
C511 C515 1.479 . S
C511 H517 0.916 1_556 S
N512 Mn505 2.287 . S
N512 C511 1.319 1_554 S
N512 C516 1.338 1_554 S
C513 C514 1.258 . S
C513 C516 1.431 . S
C513 C533 1.449 . S
C514 C513 1.258 . S
C514 C515 1.477 . S
C514 H534 0.931 . S
C515 C511 1.479 . S
C515 C514 1.477 . S
C515 H535 0.930 . S
C516 N512 1.338 1_556 S
C516 C513 1.431 . S
C516 C526 1.476 . S
H517 C511 0.916 1_554 S
C518 O509 1.250 . S
C518 O510 1.258 . S
O519 Mn504 2.162 . S
O519 C507 1.281 . S
O520 Mn504 2.297 . S
O520 C507 1.236 . S
N521 Mn505 2.282 . S
N521 C522 1.328 . S
N521 C526 1.318 1_554 S
C522 N521 1.328 . S
C522 C523 1.457 . S
C522 H527 0.929 . S
C523 C522 1.457 . S
C523 C524 1.291 1_554 S
C523 H536 0.931 . S
C524 C523 1.291 1_556 S
C524 C525 1.373 . S
C524 H537 0.929 . S
C525 C524 1.373 . S
C525 C526 1.396 . S
C525 C532 1.403 . S
C526 C516 1.476 . S
C526 N521 1.318 1_556 S
C526 C525 1.396 . S
H527 C522 0.929 . S
O528 Mn504 2.385 . S
O528 C506 1.234 . S
O529 Mn504 2.209 . S
O529 Mn505 2.215 . S
O529 C506 1.283 . S
O530 Mn504 2.094 . S
O530 C508 1.240 . S
O531 Mn505 2.117 . S
O531 C508 1.264 . S
C532 C525 1.403 . S
C532 C533 1.399 . S
C532 H538 0.929 . S
C533 C513 1.449 . S
C533 C532 1.399 . S
C533 H539 0.930 . S
H534 C514 0.931 . S
H535 C515 0.930 . S
H536 C523 0.931 . S
H537 C524 0.929 . S
H538 C532 0.929 . S
H539 C533 0.930 . S
Mn540 O545 2.095 . S
Mn540 O555 2.162 . S
Mn540 O556 2.297 . S
Mn540 O564 2.385 . S
Mn540 O565 2.209 . S
Mn540 O566 2.094 . S
Mn541 O546 2.121 . S
Mn541 N548 2.257 . S
Mn541 N557 2.282 . S
Mn541 O565 2.215 . S
Mn541 O567 2.117 . S
C542 O564 1.234 . S
C542 O565 1.283 . S
C543 O555 1.281 . S
C543 O556 1.236 . S
C544 O566 1.240 . S
C544 O567 1.264 . S
O545 Mn540 2.095 . S
O545 C554 1.250 . S
O546 Mn541 2.121 . S
O546 C554 1.258 . S
C547 N548 1.326 . S
C547 C551 1.460 . S
C547 H553 0.929 . S
N548 Mn541 2.257 . S
N548 C547 1.326 . S
N548 C552 1.362 . S
C549 C550 1.258 . S
C549 C552 1.431 . S
C549 C569 1.449 . S
C550 C549 1.258 . S
C550 C551 1.477 . S
C550 H570 0.931 1_455 S
C551 C547 1.460 . S
C551 C550 1.477 . S
C551 H571 0.930 . S
C552 N548 1.362 . S
C552 C549 1.431 . S
C552 C562 1.476 . S
H553 C547 0.929 . S
C554 O545 1.250 . S
C554 O546 1.258 . S
O555 Mn540 2.162 . S
O555 C543 1.281 . S
O556 Mn540 2.297 . S
O556 C543 1.236 . S
N557 Mn541 2.282 . S
N557 C558 1.328 . S
N557 C562 1.318 . S
C558 N557 1.328 . S
C558 C559 1.457 . S
C558 H563 0.929 . S
C559 C558 1.457 . S
C559 C560 1.291 . S
C559 H572 0.931 . S
C560 C559 1.291 . S
C560 C561 1.373 . S
C560 H573 0.929 . S
C561 C560 1.373 . S
C561 C562 1.396 . S
C561 C568 1.403 . S
C562 C552 1.476 . S
C562 N557 1.318 . S
C562 C561 1.396 . S
H563 C558 0.929 . S
O564 Mn540 2.385 . S
O564 C542 1.234 . S
O565 Mn540 2.209 . S
O565 Mn541 2.215 . S
O565 C542 1.283 . S
O566 Mn540 2.094 . S
O566 C544 1.240 . S
O567 Mn541 2.117 . S
O567 C544 1.264 . S
C568 C561 1.403 . S
C568 C569 1.399 . S
C568 H574 0.929 . S
C569 C549 1.449 . S
C569 C568 1.399 . S
C569 H575 0.930 1_455 S
H570 C550 0.931 1_655 S
H571 C551 0.930 . S
H572 C559 0.931 . S
H573 C560 0.929 . S
H574 C568 0.929 . S
H575 C569 0.930 1_655 S
Mn576 O581 2.095 . S
Mn576 O591 2.162 . S
Mn576 O592 2.297 . S
Mn576 O600 2.385 . S
Mn576 O601 2.209 . S
Mn576 O602 2.094 . S
Mn577 O582 2.121 . S
Mn577 N584 2.257 . S
Mn577 N593 2.282 . S
Mn577 O601 2.215 . S
Mn577 O603 2.117 . S
C578 O600 1.234 . S
C578 O601 1.283 . S
C579 O591 1.281 . S
C579 O592 1.236 . S
C580 O602 1.240 . S
C580 O603 1.264 . S
O581 Mn576 2.095 . S
O581 C590 1.250 . S
O582 Mn577 2.121 . S
O582 C590 1.258 . S
C583 N584 1.326 . S
C583 C587 1.460 . S
C583 H589 0.929 . S
N584 Mn577 2.257 . S
N584 C583 1.326 . S
N584 C588 1.362 . S
C585 C586 1.258 . S
C585 C588 1.431 . S
C585 C605 1.449 . S
C586 C585 1.258 . S
C586 C587 1.477 . S
C586 H606 0.931 . S
C587 C583 1.460 . S
C587 C586 1.477 . S
C587 H607 0.930 . S
C588 N584 1.362 . S
C588 C585 1.431 . S
C588 C598 1.476 . S
H589 C583 0.929 . S
C590 O581 1.250 . S
C590 O582 1.258 . S
O591 Mn576 2.162 . S
O591 C579 1.281 . S
O592 Mn576 2.297 . S
O592 C579 1.236 . S
N593 Mn577 2.282 . S
N593 C594 1.328 . S
N593 C598 1.318 . S
C594 N593 1.328 . S
C594 C595 1.457 . S
C594 H599 0.929 . S
C595 C594 1.457 . S
C595 C596 1.291 . S
C595 H608 0.931 . S
C596 C595 1.291 . S
C596 C597 1.373 . S
C596 H609 0.929 . S
C597 C596 1.373 . S
C597 C598 1.396 . S
C597 C604 1.403 . S
C598 C588 1.476 . S
C598 N593 1.318 . S
C598 C597 1.396 . S
H599 C594 0.929 . S
O600 Mn576 2.385 . S
O600 C578 1.234 . S
O601 Mn576 2.209 . S
O601 Mn577 2.215 . S
O601 C578 1.283 . S
O602 Mn576 2.094 . S
O602 C580 1.240 . S
O603 Mn577 2.117 . S
O603 C580 1.264 . S
C604 C597 1.403 . S
C604 C605 1.399 . S
C604 H610 0.929 . S
C605 C585 1.449 . S
C605 C604 1.399 . S
C605 H611 0.930 . S
H606 C586 0.931 . S
H607 C587 0.930 . S
H608 C595 0.931 . S
H609 C596 0.929 . S
H610 C604 0.929 . S
H611 C605 0.930 . S
Mn612 O617 2.095 . S
Mn612 O627 2.162 . S
Mn612 O628 2.297 . S
Mn612 O636 2.385 . S
Mn612 O637 2.209 . S
Mn612 O638 2.094 . S
Mn613 O618 2.121 . S
Mn613 N620 2.257 . S
Mn613 N629 2.282 . S
Mn613 O637 2.215 . S
Mn613 O639 2.117 . S
C614 O636 1.234 . S
C614 O637 1.283 . S
C615 O627 1.281 . S
C615 O628 1.236 . S
C616 O638 1.240 . S
C616 O639 1.264 . S
O617 Mn612 2.095 . S
O617 C626 1.250 . S
O618 Mn613 2.121 . S
O618 C626 1.258 . S
C619 N620 1.326 . S
C619 C623 1.460 . S
C619 H625 0.929 . S
N620 Mn613 2.257 . S
N620 C619 1.326 . S
N620 C624 1.362 . S
C621 C622 1.258 . S
C621 C624 1.431 . S
C621 C641 1.449 . S
C622 C621 1.258 . S
C622 C623 1.477 . S
C622 H642 0.931 . S
C623 C619 1.460 . S
C623 C622 1.477 . S
C623 H643 0.930 . S
C624 N620 1.362 . S
C624 C621 1.431 . S
C624 C634 1.476 . S
H625 C619 0.929 . S
C626 O617 1.250 . S
C626 O618 1.258 . S
O627 Mn612 2.162 . S
O627 C615 1.281 . S
O628 Mn612 2.297 . S
O628 C615 1.236 . S
N629 Mn613 2.282 . S
N629 C630 1.328 . S
N629 C634 1.318 . S
C630 N629 1.328 . S
C630 C631 1.457 . S
C630 H635 0.929 . S
C631 C630 1.457 . S
C631 C632 1.291 . S
C631 H644 0.931 . S
C632 C631 1.291 . S
C632 C633 1.373 . S
C632 H645 0.929 . S
C633 C632 1.373 . S
C633 C634 1.396 . S
C633 C640 1.403 . S
C634 C624 1.476 . S
C634 N629 1.318 . S
C634 C633 1.396 . S
H635 C630 0.929 . S
O636 Mn612 2.385 . S
O636 C614 1.234 . S
O637 Mn612 2.209 . S
O637 Mn613 2.215 . S
O637 C614 1.283 . S
O638 Mn612 2.094 . S
O638 C616 1.240 . S
O639 Mn613 2.117 . S
O639 C616 1.264 . S
C640 C633 1.403 . S
C640 C641 1.399 . S
C640 H646 0.929 . S
C641 C621 1.449 . S
C641 C640 1.399 . S
C641 H647 0.930 . S
H642 C622 0.931 . S
H643 C623 0.930 . S
H644 C631 0.931 . S
H645 C632 0.929 . S
H646 C640 0.929 . S
H647 C641 0.930 . S
Mn648 O653 2.095 . S
Mn648 O663 2.162 . S
Mn648 O664 2.297 . S
Mn648 O672 2.385 . S
Mn648 O673 2.209 . S
Mn648 O674 2.094 . S
Mn649 O654 2.121 . S
Mn649 N656 2.287 . S
Mn649 N665 2.282 . S
Mn649 O673 2.215 . S
Mn649 O675 2.117 . S
C650 O672 1.234 . S
C650 O673 1.283 . S
C651 O663 1.281 . S
C651 O664 1.236 . S
C652 O674 1.240 . S
C652 O675 1.264 . S
O653 Mn648 2.095 . S
O653 C662 1.250 . S
O654 Mn649 2.121 . S
O654 C662 1.258 . S
C655 N656 1.319 1_556 S
C655 C659 1.479 . S
C655 H661 0.916 1_556 S
N656 Mn649 2.287 . S
N656 C655 1.319 1_554 S
N656 C660 1.338 1_554 S
C657 C658 1.258 . S
C657 C660 1.431 . S
C657 C677 1.449 . S
C658 C657 1.258 . S
C658 C659 1.477 . S
C658 H678 0.931 . S
C659 C655 1.479 . S
C659 C658 1.477 . S
C659 H679 0.930 . S
C660 N656 1.338 1_556 S
C660 C657 1.431 . S
C660 C670 1.476 . S
H661 C655 0.916 1_554 S
C662 O653 1.250 . S
C662 O654 1.258 . S
O663 Mn648 2.162 . S
O663 C651 1.281 . S
O664 Mn648 2.297 . S
O664 C651 1.236 . S
N665 Mn649 2.282 . S
N665 C666 1.328 . S
N665 C670 1.318 1_554 S
C666 N665 1.328 . S
C666 C667 1.457 1_655 S
C666 H671 0.929 . S
C667 C666 1.457 1_455 S
C667 C668 1.291 1_554 S
C667 H680 0.931 . S
C668 C667 1.291 1_556 S
C668 C669 1.373 1_455 S
C668 H681 0.929 . S
C669 C668 1.373 1_655 S
C669 C670 1.396 . S
C669 C676 1.403 . S
C670 C660 1.476 . S
C670 N665 1.318 1_556 S
C670 C669 1.396 . S
H671 C666 0.929 . S
O672 Mn648 2.385 . S
O672 C650 1.234 . S
O673 Mn648 2.209 . S
O673 Mn649 2.215 . S
O673 C650 1.283 . S
O674 Mn648 2.094 . S
O674 C652 1.240 . S
O675 Mn649 2.117 . S
O675 C652 1.264 . S
C676 C669 1.403 . S
C676 C677 1.399 . S
C676 H682 0.929 . S
C677 C657 1.449 . S
C677 C676 1.399 . S
C677 H683 0.930 . S
H678 C658 0.931 . S
H679 C659 0.930 . S
H680 C667 0.931 . S
H681 C668 0.929 . S
H682 C676 0.929 . S
H683 C677 0.930 . S
Mn684 O689 2.095 . S
Mn684 O699 2.162 . S
Mn684 O700 2.297 . S
Mn684 O708 2.385 . S
Mn684 O709 2.209 . S
Mn684 O710 2.094 . S
Mn685 O690 2.121 . S
Mn685 N692 2.257 . S
Mn685 N701 2.282 . S
Mn685 O709 2.215 . S
Mn685 O711 2.117 . S
C686 O708 1.234 . S
C686 O709 1.283 . S
C687 O699 1.281 . S
C687 O700 1.236 . S
C688 O710 1.240 . S
C688 O711 1.264 . S
O689 Mn684 2.095 . S
O689 C698 1.250 . S
O690 Mn685 2.121 . S
O690 C698 1.258 . S
C691 N692 1.326 . S
C691 C695 1.460 . S
C691 H697 0.929 . S
N692 Mn685 2.257 . S
N692 C691 1.326 . S
N692 C696 1.362 . S
C693 C694 1.258 . S
C693 C696 1.431 . S
C693 C713 1.449 . S
C694 C693 1.258 . S
C694 C695 1.477 . S
C694 H714 0.931 1_455 S
C695 C691 1.460 . S
C695 C694 1.477 . S
C695 H715 0.930 . S
C696 N692 1.362 . S
C696 C693 1.431 . S
C696 C706 1.476 . S
H697 C691 0.929 . S
C698 O689 1.250 . S
C698 O690 1.258 . S
O699 Mn684 2.162 . S
O699 C687 1.281 . S
O700 Mn684 2.297 . S
O700 C687 1.236 . S
N701 Mn685 2.282 . S
N701 C702 1.328 . S
N701 C706 1.318 . S
C702 N701 1.328 . S
C702 C703 1.457 . S
C702 H707 0.929 . S
C703 C702 1.457 . S
C703 C704 1.291 . S
C703 H716 0.931 . S
C704 C703 1.291 . S
C704 C705 1.373 . S
C704 H717 0.929 . S
C705 C704 1.373 . S
C705 C706 1.396 . S
C705 C712 1.403 . S
C706 C696 1.476 . S
C706 N701 1.318 . S
C706 C705 1.396 . S
H707 C702 0.929 . S
O708 Mn684 2.385 . S
O708 C686 1.234 . S
O709 Mn684 2.209 . S
O709 Mn685 2.215 . S
O709 C686 1.283 . S
O710 Mn684 2.094 . S
O710 C688 1.240 . S
O711 Mn685 2.117 . S
O711 C688 1.264 . S
C712 C705 1.403 . S
C712 C713 1.399 . S
C712 H718 0.929 . S
C713 C693 1.449 . S
C713 C712 1.399 . S
C713 H719 0.930 1_455 S
H714 C694 0.931 1_655 S
H715 C695 0.930 . S
H716 C703 0.931 . S
H717 C704 0.929 . S
H718 C712 0.929 . S
H719 C713 0.930 1_655 S
Mn720 O725 2.095 . S
Mn720 O735 2.162 . S
Mn720 O736 2.297 . S
Mn720 O744 2.385 . S
Mn720 O745 2.209 . S
Mn720 O746 2.094 . S
Mn721 O726 2.121 . S
Mn721 N728 2.287 . S
Mn721 N737 2.282 . S
Mn721 O745 2.215 . S
Mn721 O747 2.117 . S
C722 O744 1.234 . S
C722 O745 1.283 . S
C723 O735 1.281 . S
C723 O736 1.236 . S
C724 O746 1.240 . S
C724 O747 1.264 . S
O725 Mn720 2.095 . S
O725 C734 1.250 . S
O726 Mn721 2.121 . S
O726 C734 1.258 . S
C727 N728 1.319 1_554 S
C727 C731 1.479 . S
C727 H733 0.916 1_554 S
N728 Mn721 2.287 . S
N728 C727 1.319 1_556 S
N728 C732 1.338 1_556 S
C729 C730 1.258 . S
C729 C732 1.431 . S
C729 C749 1.449 . S
C730 C729 1.258 . S
C730 C731 1.477 . S
C730 H750 0.931 . S
C731 C727 1.479 . S
C731 C730 1.477 . S
C731 H751 0.930 . S
C732 N728 1.338 1_554 S
C732 C729 1.431 . S
C732 C742 1.476 . S
H733 C727 0.916 1_556 S
C734 O725 1.250 . S
C734 O726 1.258 . S
O735 Mn720 2.162 . S
O735 C723 1.281 . S
O736 Mn720 2.297 . S
O736 C723 1.236 . S
N737 Mn721 2.282 . S
N737 C738 1.328 . S
N737 C742 1.318 1_556 S
C738 N737 1.328 . S
C738 C739 1.457 . S
C738 H743 0.929 . S
C739 C738 1.457 . S
C739 C740 1.291 1_556 S
C739 H752 0.931 . S
C740 C739 1.291 1_554 S
C740 C741 1.373 . S
C740 H753 0.929 . S
C741 C740 1.373 . S
C741 C742 1.396 . S
C741 C748 1.403 . S
C742 C732 1.476 . S
C742 N737 1.318 1_554 S
C742 C741 1.396 . S
H743 C738 0.929 . S
O744 Mn720 2.385 . S
O744 C722 1.234 . S
O745 Mn720 2.209 . S
O745 Mn721 2.215 . S
O745 C722 1.283 . S
O746 Mn720 2.094 . S
O746 C724 1.240 . S
O747 Mn721 2.117 . S
O747 C724 1.264 . S
C748 C741 1.403 . S
C748 C749 1.399 . S
C748 H754 0.929 . S
C749 C729 1.449 . S
C749 C748 1.399 . S
C749 H755 0.930 . S
H750 C730 0.931 . S
H751 C731 0.930 . S
H752 C739 0.931 . S
H753 C740 0.929 . S
H754 C748 0.929 . S
H755 C749 0.930 . S
Mn756 O761 2.095 . S
Mn756 O771 2.162 . S
Mn756 O772 2.297 . S
Mn756 O780 2.385 . S
Mn756 O781 2.209 . S
Mn756 O782 2.094 . S
Mn757 O762 2.121 . S
Mn757 N764 2.257 . S
Mn757 N773 2.282 . S
Mn757 O781 2.215 . S
Mn757 O783 2.117 . S
C758 O780 1.234 . S
C758 O781 1.283 . S
C759 O771 1.281 . S
C759 O772 1.236 . S
C760 O782 1.240 . S
C760 O783 1.264 . S
O761 Mn756 2.095 . S
O761 C770 1.250 . S
O762 Mn757 2.121 . S
O762 C770 1.258 . S
C763 N764 1.326 . S
C763 C767 1.460 . S
C763 H769 0.929 . S
N764 Mn757 2.257 . S
N764 C763 1.326 . S
N764 C768 1.362 . S
C765 C766 1.258 . S
C765 C768 1.431 . S
C765 C785 1.449 . S
C766 C765 1.258 . S
C766 C767 1.477 . S
C766 H786 0.931 1_455 S
C767 C763 1.460 . S
C767 C766 1.477 . S
C767 H787 0.930 . S
C768 N764 1.362 . S
C768 C765 1.431 . S
C768 C778 1.476 . S
H769 C763 0.929 . S
C770 O761 1.250 . S
C770 O762 1.258 . S
O771 Mn756 2.162 . S
O771 C759 1.281 . S
O772 Mn756 2.297 . S
O772 C759 1.236 . S
N773 Mn757 2.282 . S
N773 C774 1.328 . S
N773 C778 1.318 . S
C774 N773 1.328 . S
C774 C775 1.457 . S
C774 H779 0.929 . S
C775 C774 1.457 . S
C775 C776 1.291 . S
C775 H788 0.931 . S
C776 C775 1.291 . S
C776 C777 1.373 . S
C776 H789 0.929 . S
C777 C776 1.373 . S
C777 C778 1.396 . S
C777 C784 1.403 . S
C778 C768 1.476 . S
C778 N773 1.318 . S
C778 C777 1.396 . S
H779 C774 0.929 . S
O780 Mn756 2.385 . S
O780 C758 1.234 . S
O781 Mn756 2.209 . S
O781 Mn757 2.215 . S
O781 C758 1.283 . S
O782 Mn756 2.094 . S
O782 C760 1.240 . S
O783 Mn757 2.117 . S
O783 C760 1.264 . S
C784 C777 1.403 . S
C784 C785 1.399 . S
C784 H790 0.929 . S
C785 C765 1.449 . S
C785 C784 1.399 . S
C785 H791 0.930 1_455 S
H786 C766 0.931 1_655 S
H787 C767 0.930 . S
H788 C775 0.931 . S
H789 C776 0.929 . S
H790 C784 0.929 . S
H791 C785 0.930 1_655 S
Mn792 O797 2.095 . S
Mn792 O807 2.162 . S
Mn792 O808 2.297 . S
Mn792 O816 2.385 . S
Mn792 O817 2.209 . S
Mn792 O818 2.094 . S
Mn793 O798 2.121 . S
Mn793 N800 2.257 . S
Mn793 N809 2.282 . S
Mn793 O817 2.215 . S
Mn793 O819 2.117 . S
C794 O816 1.234 . S
C794 O817 1.283 . S
C795 O807 1.281 . S
C795 O808 1.236 . S
C796 O818 1.240 . S
C796 O819 1.264 . S
O797 Mn792 2.095 . S
O797 C806 1.250 . S
O798 Mn793 2.121 . S
O798 C806 1.258 . S
C799 N800 1.326 . S
C799 C803 1.460 . S
C799 H805 0.929 . S
N800 Mn793 2.257 . S
N800 C799 1.326 . S
N800 C804 1.362 . S
C801 C802 1.258 . S
C801 C804 1.431 . S
C801 C821 1.449 . S
C802 C801 1.258 . S
C802 C803 1.477 . S
C802 H822 0.931 . S
C803 C799 1.460 . S
C803 C802 1.477 . S
C803 H823 0.930 . S
C804 N800 1.362 . S
C804 C801 1.431 . S
C804 C814 1.476 . S
H805 C799 0.929 . S
C806 O797 1.250 . S
C806 O798 1.258 . S
O807 Mn792 2.162 . S
O807 C795 1.281 . S
O808 Mn792 2.297 . S
O808 C795 1.236 . S
N809 Mn793 2.282 . S
N809 C810 1.328 . S
N809 C814 1.318 . S
C810 N809 1.328 . S
C810 C811 1.457 1_655 S
C810 H815 0.929 . S
C811 C810 1.457 1_455 S
C811 C812 1.291 . S
C811 H824 0.931 . S
C812 C811 1.291 . S
C812 C813 1.373 1_455 S
C812 H825 0.929 . S
C813 C812 1.373 1_655 S
C813 C814 1.396 . S
C813 C820 1.403 . S
C814 C804 1.476 . S
C814 N809 1.318 . S
C814 C813 1.396 . S
H815 C810 0.929 . S
O816 Mn792 2.385 . S
O816 C794 1.234 . S
O817 Mn792 2.209 . S
O817 Mn793 2.215 . S
O817 C794 1.283 . S
O818 Mn792 2.094 . S
O818 C796 1.240 . S
O819 Mn793 2.117 . S
O819 C796 1.264 . S
C820 C813 1.403 . S
C820 C821 1.399 . S
C820 H826 0.929 . S
C821 C801 1.449 . S
C821 C820 1.399 . S
C821 H827 0.930 . S
H822 C802 0.931 . S
H823 C803 0.930 . S
H824 C811 0.931 . S
H825 C812 0.929 . S
H826 C820 0.929 . S
H827 C821 0.930 . S
Mn828 O833 2.095 . S
Mn828 O843 2.162 . S
Mn828 O844 2.297 . S
Mn828 O852 2.385 . S
Mn828 O853 2.209 . S
Mn828 O854 2.094 . S
Mn829 O834 2.121 . S
Mn829 N836 2.257 . S
Mn829 N845 2.282 . S
Mn829 O853 2.215 . S
Mn829 O855 2.117 . S
C830 O852 1.234 . S
C830 O853 1.283 . S
C831 O843 1.281 . S
C831 O844 1.236 . S
C832 O854 1.240 . S
C832 O855 1.264 . S
O833 Mn828 2.095 . S
O833 C842 1.250 . S
O834 Mn829 2.121 . S
O834 C842 1.258 . S
C835 N836 1.326 . S
C835 C839 1.460 . S
C835 H841 0.929 . S
N836 Mn829 2.257 . S
N836 C835 1.326 . S
N836 C840 1.362 . S
C837 C838 1.258 . S
C837 C840 1.431 . S
C837 C857 1.449 . S
C838 C837 1.258 . S
C838 C839 1.477 . S
C838 H858 0.931 . S
C839 C835 1.460 . S
C839 C838 1.477 . S
C839 H859 0.930 . S
C840 N836 1.362 . S
C840 C837 1.431 . S
C840 C850 1.476 . S
H841 C835 0.929 . S
C842 O833 1.250 . S
C842 O834 1.258 . S
O843 Mn828 2.162 . S
O843 C831 1.281 . S
O844 Mn828 2.297 . S
O844 C831 1.236 . S
N845 Mn829 2.282 . S
N845 C846 1.328 . S
N845 C850 1.318 . S
C846 N845 1.328 . S
C846 C847 1.457 . S
C846 H851 0.929 . S
C847 C846 1.457 . S
C847 C848 1.291 . S
C847 H860 0.931 . S
C848 C847 1.291 . S
C848 C849 1.373 . S
C848 H861 0.929 . S
C849 C848 1.373 . S
C849 C850 1.396 . S
C849 C856 1.403 . S
C850 C840 1.476 . S
C850 N845 1.318 . S
C850 C849 1.396 . S
H851 C846 0.929 . S
O852 Mn828 2.385 . S
O852 C830 1.234 . S
O853 Mn828 2.209 . S
O853 Mn829 2.215 . S
O853 C830 1.283 . S
O854 Mn828 2.094 . S
O854 C832 1.240 . S
O855 Mn829 2.117 . S
O855 C832 1.264 . S
C856 C849 1.403 . S
C856 C857 1.399 . S
C856 H862 0.929 . S
C857 C837 1.449 . S
C857 C856 1.399 . S
C857 H863 0.930 . S
H858 C838 0.931 . S
H859 C839 0.930 . S
H860 C847 0.931 . S
H861 C848 0.929 . S
H862 C856 0.929 . S
H863 C857 0.930 . S
Mn864 O869 2.095 . S
Mn864 O879 2.162 . S
Mn864 O880 2.297 . S
Mn864 O888 2.385 . S
Mn864 O889 2.209 . S
Mn864 O890 2.094 . S
Mn865 O870 2.121 . S
Mn865 N872 2.257 . S
Mn865 N881 2.282 . S
Mn865 O889 2.215 . S
Mn865 O891 2.117 . S
C866 O888 1.234 . S
C866 O889 1.283 . S
C867 O879 1.281 . S
C867 O880 1.236 . S
C868 O890 1.240 . S
C868 O891 1.264 . S
O869 Mn864 2.095 . S
O869 C878 1.250 . S
O870 Mn865 2.121 . S
O870 C878 1.258 . S
C871 N872 1.326 . S
C871 C875 1.460 . S
C871 H877 0.929 . S
N872 Mn865 2.257 . S
N872 C871 1.326 . S
N872 C876 1.362 . S
C873 C874 1.258 . S
C873 C876 1.431 . S
C873 C893 1.449 . S
C874 C873 1.258 . S
C874 C875 1.477 . S
C874 H894 0.931 . S
C875 C871 1.460 . S
C875 C874 1.477 . S
C875 H895 0.930 . S
C876 N872 1.362 . S
C876 C873 1.431 . S
C876 C886 1.476 . S
H877 C871 0.929 . S
C878 O869 1.250 . S
C878 O870 1.258 . S
O879 Mn864 2.162 . S
O879 C867 1.281 . S
O880 Mn864 2.297 . S
O880 C867 1.236 . S
N881 Mn865 2.282 . S
N881 C882 1.328 . S
N881 C886 1.318 . S
C882 N881 1.328 . S
C882 C883 1.457 . S
C882 H887 0.929 . S
C883 C882 1.457 . S
C883 C884 1.291 . S
C883 H896 0.931 . S
C884 C883 1.291 . S
C884 C885 1.373 . S
C884 H897 0.929 . S
C885 C884 1.373 . S
C885 C886 1.396 . S
C885 C892 1.403 . S
C886 C876 1.476 . S
C886 N881 1.318 . S
C886 C885 1.396 . S
H887 C882 0.929 . S
O888 Mn864 2.385 . S
O888 C866 1.234 . S
O889 Mn864 2.209 . S
O889 Mn865 2.215 . S
O889 C866 1.283 . S
O890 Mn864 2.094 . S
O890 C868 1.240 . S
O891 Mn865 2.117 . S
O891 C868 1.264 . S
C892 C885 1.403 . S
C892 C893 1.399 . S
C892 H898 0.929 . S
C893 C873 1.449 . S
C893 C892 1.399 . S
C893 H899 0.930 . S
H894 C874 0.931 . S
H895 C875 0.930 . S
H896 C883 0.931 . S
H897 C884 0.929 . S
H898 C892 0.929 . S
H899 C893 0.930 . S
Mn900 O905 2.095 . S
Mn900 O915 2.162 . S
Mn900 O916 2.297 . S
Mn900 O924 2.385 . S
Mn900 O925 2.209 . S
Mn900 O926 2.094 . S
Mn901 O906 2.121 . S
Mn901 N908 2.257 . S
Mn901 N917 2.282 . S
Mn901 O925 2.215 . S
Mn901 O927 2.117 . S
C902 O924 1.234 . S
C902 O925 1.283 . S
C903 O915 1.281 . S
C903 O916 1.236 . S
C904 O926 1.240 . S
C904 O927 1.264 . S
O905 Mn900 2.095 . S
O905 C914 1.250 . S
O906 Mn901 2.121 . S
O906 C914 1.258 . S
C907 N908 1.326 . S
C907 C911 1.460 . S
C907 H913 0.929 . S
N908 Mn901 2.257 . S
N908 C907 1.326 . S
N908 C912 1.362 . S
C909 C910 1.258 . S
C909 C912 1.431 . S
C909 C929 1.449 . S
C910 C909 1.258 . S
C910 C911 1.477 . S
C910 H930 0.931 . S
C911 C907 1.460 . S
C911 C910 1.477 . S
C911 H931 0.930 . S
C912 N908 1.362 . S
C912 C909 1.431 . S
C912 C922 1.476 . S
H913 C907 0.929 . S
C914 O905 1.250 . S
C914 O906 1.258 . S
O915 Mn900 2.162 . S
O915 C903 1.281 . S
O916 Mn900 2.297 . S
O916 C903 1.236 . S
N917 Mn901 2.282 . S
N917 C918 1.328 . S
N917 C922 1.318 . S
C918 N917 1.328 . S
C918 C919 1.457 . S
C918 H923 0.929 . S
C919 C918 1.457 . S
C919 C920 1.291 . S
C919 H932 0.931 . S
C920 C919 1.291 . S
C920 C921 1.373 . S
C920 H933 0.929 . S
C921 C920 1.373 . S
C921 C922 1.396 . S
C921 C928 1.403 . S
C922 C912 1.476 . S
C922 N917 1.318 . S
C922 C921 1.396 . S
H923 C918 0.929 . S
O924 Mn900 2.385 . S
O924 C902 1.234 . S
O925 Mn900 2.209 . S
O925 Mn901 2.215 . S
O925 C902 1.283 . S
O926 Mn900 2.094 . S
O926 C904 1.240 . S
O927 Mn901 2.117 . S
O927 C904 1.264 . S
C928 C921 1.403 . S
C928 C929 1.399 . S
C928 H934 0.929 . S
C929 C909 1.449 . S
C929 C928 1.399 . S
C929 H935 0.930 . S
H930 C910 0.931 . S
H931 C911 0.930 . S
H932 C919 0.931 . S
H933 C920 0.929 . S
H934 C928 0.929 . S
H935 C929 0.930 . S
Mn936 O941 2.095 . S
Mn936 O951 2.162 . S
Mn936 O952 2.297 . S
Mn936 O960 2.385 . S
Mn936 O961 2.209 . S
Mn936 O962 2.094 . S
Mn937 O942 2.121 . S
Mn937 N944 2.287 . S
Mn937 N953 2.282 . S
Mn937 O961 2.215 . S
Mn937 O963 2.117 . S
C938 O960 1.234 . S
C938 O961 1.283 . S
C939 O951 1.281 . S
C939 O952 1.236 . S
C940 O962 1.240 . S
C940 O963 1.264 . S
O941 Mn936 2.095 . S
O941 C950 1.250 . S
O942 Mn937 2.121 . S
O942 C950 1.258 . S
C943 N944 1.319 1_554 S
C943 C947 1.479 . S
C943 H949 0.916 1_554 S
N944 Mn937 2.287 . S
N944 C943 1.319 1_556 S
N944 C948 1.338 1_556 S
C945 C946 1.258 . S
C945 C948 1.431 . S
C945 C965 1.449 . S
C946 C945 1.258 . S
C946 C947 1.477 . S
C946 H966 0.931 . S
C947 C943 1.479 . S
C947 C946 1.477 . S
C947 H967 0.930 . S
C948 N944 1.338 1_554 S
C948 C945 1.431 . S
C948 C958 1.476 . S
H949 C943 0.916 1_556 S
C950 O941 1.250 . S
C950 O942 1.258 . S
O951 Mn936 2.162 . S
O951 C939 1.281 . S
O952 Mn936 2.297 . S
O952 C939 1.236 . S
N953 Mn937 2.282 . S
N953 C954 1.328 . S
N953 C958 1.318 1_556 S
C954 N953 1.328 . S
C954 C955 1.457 1_455 S
C954 H959 0.929 . S
C955 C954 1.457 1_655 S
C955 C956 1.291 1_556 S
C955 H968 0.931 . S
C956 C955 1.291 1_554 S
C956 C957 1.373 1_655 S
C956 H969 0.929 . S
C957 C956 1.373 1_455 S
C957 C958 1.396 . S
C957 C964 1.403 . S
C958 C948 1.476 . S
C958 N953 1.318 1_554 S
C958 C957 1.396 . S
H959 C954 0.929 . S
O960 Mn936 2.385 . S
O960 C938 1.234 . S
O961 Mn936 2.209 . S
O961 Mn937 2.215 . S
O961 C938 1.283 . S
O962 Mn936 2.094 . S
O962 C940 1.240 . S
O963 Mn937 2.117 . S
O963 C940 1.264 . S
C964 C957 1.403 . S
C964 C965 1.399 . S
C964 H970 0.929 . S
C965 C945 1.449 . S
C965 C964 1.399 . S
C965 H971 0.930 . S
H966 C946 0.931 . S
H967 C947 0.930 . S
H968 C955 0.931 . S
H969 C956 0.929 . S
H970 C964 0.929 . S
H971 C965 0.930 . S
Mn972 O977 2.095 . S
Mn972 O987 2.162 . S
Mn972 O988 2.297 . S
Mn972 O996 2.385 . S
Mn972 O997 2.209 . S
Mn972 O998 2.094 . S
Mn973 O978 2.121 . S
Mn973 N980 2.257 . S
Mn973 N989 2.282 . S
Mn973 O997 2.215 . S
Mn973 O999 2.117 . S
C974 O996 1.234 . S
C974 O997 1.283 . S
C975 O987 1.281 . S
C975 O988 1.236 . S
C976 O998 1.240 . S
C976 O999 1.264 . S
O977 Mn972 2.095 . S
O977 C986 1.250 . S
O978 Mn973 2.121 . S
O978 C986 1.258 . S
C979 N980 1.326 . S
C979 C983 1.460 . S
C979 H985 0.929 . S
N980 Mn973 2.257 . S
N980 C979 1.326 . S
N980 C984 1.362 . S
C981 C982 1.258 . S
C981 C984 1.431 . S
C981 C1001 1.449 . S
C982 C981 1.258 . S
C982 C983 1.477 . S
C982 H1002 0.931 1_655 S
C983 C979 1.460 . S
C983 C982 1.477 . S
C983 H1003 0.930 . S
C984 N980 1.362 . S
C984 C981 1.431 . S
C984 C994 1.476 . S
H985 C979 0.929 . S
C986 O977 1.250 . S
C986 O978 1.258 . S
O987 Mn972 2.162 . S
O987 C975 1.281 . S
O988 Mn972 2.297 . S
O988 C975 1.236 . S
N989 Mn973 2.282 . S
N989 C990 1.328 . S
N989 C994 1.318 . S
C990 N989 1.328 . S
C990 C991 1.457 . S
C990 H995 0.929 . S
C991 C990 1.457 . S
C991 C992 1.291 . S
C991 H1004 0.931 . S
C992 C991 1.291 . S
C992 C993 1.373 . S
C992 H1005 0.929 . S
C993 C992 1.373 . S
C993 C994 1.396 . S
C993 C1000 1.403 . S
C994 C984 1.476 . S
C994 N989 1.318 . S
C994 C993 1.396 . S
H995 C990 0.929 . S
O996 Mn972 2.385 . S
O996 C974 1.234 . S
O997 Mn972 2.209 . S
O997 Mn973 2.215 . S
O997 C974 1.283 . S
O998 Mn972 2.094 . S
O998 C976 1.240 . S
O999 Mn973 2.117 . S
O999 C976 1.264 . S
C1000 C993 1.403 . S
C1000 C1001 1.399 . S
C1000 H1006 0.929 . S
C1001 C981 1.449 . S
C1001 C1000 1.399 . S
C1001 H1007 0.930 1_655 S
H1002 C982 0.931 1_455 S
H1003 C983 0.930 . S
H1004 C991 0.931 . S
H1005 C992 0.929 . S
H1006 C1000 0.929 . S
H1007 C1001 0.930 1_455 S
Mn1008 O1013 2.095 . S
Mn1008 O1023 2.162 . S
Mn1008 O1024 2.297 . S
Mn1008 O1032 2.385 . S
Mn1008 O1033 2.209 . S
Mn1008 O1034 2.094 . S
Mn1009 O1014 2.121 . S
Mn1009 N1016 2.287 . S
Mn1009 N1025 2.282 . S
Mn1009 O1033 2.215 . S
Mn1009 O1035 2.117 . S
C1010 O1032 1.234 . S
C1010 O1033 1.283 . S
C1011 O1023 1.281 . S
C1011 O1024 1.236 . S
C1012 O1034 1.240 . S
C1012 O1035 1.264 . S
O1013 Mn1008 2.095 . S
O1013 C1022 1.250 . S
O1014 Mn1009 2.121 . S
O1014 C1022 1.258 . S
C1015 N1016 1.319 1_556 S
C1015 C1019 1.479 . S
C1015 H1021 0.916 1_556 S
N1016 Mn1009 2.287 . S
N1016 C1015 1.319 1_554 S
N1016 C1020 1.338 1_554 S
C1017 C1018 1.258 . S
C1017 C1020 1.431 . S
C1017 C1037 1.449 . S
C1018 C1017 1.258 . S
C1018 C1019 1.477 . S
C1018 H1038 0.931 . S
C1019 C1015 1.479 . S
C1019 C1018 1.477 . S
C1019 H1039 0.930 . S
C1020 N1016 1.338 1_556 S
C1020 C1017 1.431 . S
C1020 C1030 1.476 . S
H1021 C1015 0.916 1_554 S
C1022 O1013 1.250 . S
C1022 O1014 1.258 . S
O1023 Mn1008 2.162 . S
O1023 C1011 1.281 . S
O1024 Mn1008 2.297 . S
O1024 C1011 1.236 . S
N1025 Mn1009 2.282 . S
N1025 C1026 1.328 . S
N1025 C1030 1.318 1_554 S
C1026 N1025 1.328 . S
C1026 C1027 1.457 . S
C1026 H1031 0.929 . S
C1027 C1026 1.457 . S
C1027 C1028 1.291 1_554 S
C1027 H1040 0.931 . S
C1028 C1027 1.291 1_556 S
C1028 C1029 1.373 . S
C1028 H1041 0.929 . S
C1029 C1028 1.373 . S
C1029 C1030 1.396 . S
C1029 C1036 1.403 . S
C1030 C1020 1.476 . S
C1030 N1025 1.318 1_556 S
C1030 C1029 1.396 . S
H1031 C1026 0.929 . S
O1032 Mn1008 2.385 . S
O1032 C1010 1.234 . S
O1033 Mn1008 2.209 . S
O1033 Mn1009 2.215 . S
O1033 C1010 1.283 . S
O1034 Mn1008 2.094 . S
O1034 C1012 1.240 . S
O1035 Mn1009 2.117 . S
O1035 C1012 1.264 . S
C1036 C1029 1.403 . S
C1036 C1037 1.399 . S
C1036 H1042 0.929 . S
C1037 C1017 1.449 . S
C1037 C1036 1.399 . S
C1037 H1043 0.930 . S
H1038 C1018 0.931 . S
H1039 C1019 0.930 . S
H1040 C1027 0.931 . S
H1041 C1028 0.929 . S
H1042 C1036 0.929 . S
H1043 C1037 0.930 . S
Mn1044 O1049 2.095 . S
Mn1044 O1059 2.162 . S
Mn1044 O1060 2.297 . S
Mn1044 O1068 2.385 . S
Mn1044 O1069 2.209 . S
Mn1044 O1070 2.094 . S
Mn1045 O1050 2.121 . S
Mn1045 N1052 2.257 . S
Mn1045 N1061 2.282 . S
Mn1045 O1069 2.215 . S
Mn1045 O1071 2.117 . S
C1046 O1068 1.234 . S
C1046 O1069 1.283 . S
C1047 O1059 1.281 . S
C1047 O1060 1.236 . S
C1048 O1070 1.240 . S
C1048 O1071 1.264 . S
O1049 Mn1044 2.095 . S
O1049 C1058 1.250 . S
O1050 Mn1045 2.121 . S
O1050 C1058 1.258 . S
C1051 N1052 1.326 . S
C1051 C1055 1.460 . S
C1051 H1057 0.929 . S
N1052 Mn1045 2.257 . S
N1052 C1051 1.326 . S
N1052 C1056 1.362 . S
C1053 C1054 1.258 . S
C1053 C1056 1.431 . S
C1053 C1073 1.449 . S
C1054 C1053 1.258 . S
C1054 C1055 1.477 . S
C1054 H1074 0.931 1_655 S
C1055 C1051 1.460 . S
C1055 C1054 1.477 . S
C1055 H1075 0.930 . S
C1056 N1052 1.362 . S
C1056 C1053 1.431 . S
C1056 C1066 1.476 . S
H1057 C1051 0.929 . S
C1058 O1049 1.250 . S
C1058 O1050 1.258 . S
O1059 Mn1044 2.162 . S
O1059 C1047 1.281 . S
O1060 Mn1044 2.297 . S
O1060 C1047 1.236 . S
N1061 Mn1045 2.282 . S
N1061 C1062 1.328 . S
N1061 C1066 1.318 . S
C1062 N1061 1.328 . S
C1062 C1063 1.457 . S
C1062 H1067 0.929 . S
C1063 C1062 1.457 . S
C1063 C1064 1.291 . S
C1063 H1076 0.931 . S
C1064 C1063 1.291 . S
C1064 C1065 1.373 . S
C1064 H1077 0.929 . S
C1065 C1064 1.373 . S
C1065 C1066 1.396 . S
C1065 C1072 1.403 . S
C1066 C1056 1.476 . S
C1066 N1061 1.318 . S
C1066 C1065 1.396 . S
H1067 C1062 0.929 . S
O1068 Mn1044 2.385 . S
O1068 C1046 1.234 . S
O1069 Mn1044 2.209 . S
O1069 Mn1045 2.215 . S
O1069 C1046 1.283 . S
O1070 Mn1044 2.094 . S
O1070 C1048 1.240 . S
O1071 Mn1045 2.117 . S
O1071 C1048 1.264 . S
C1072 C1065 1.403 . S
C1072 C1073 1.399 . S
C1072 H1078 0.929 . S
C1073 C1053 1.449 . S
C1073 C1072 1.399 . S
C1073 H1079 0.930 1_655 S
H1074 C1054 0.931 1_455 S
H1075 C1055 0.930 . S
H1076 C1063 0.931 . S
H1077 C1064 0.929 . S
H1078 C1072 0.929 . S
H1079 C1073 0.930 1_455 S
Mn1080 O1085 2.095 . S
Mn1080 O1095 2.162 . S
Mn1080 O1096 2.297 . S
Mn1080 O1104 2.385 . S
Mn1080 O1105 2.209 . S
Mn1080 O1106 2.094 . S
Mn1081 O1086 2.121 . S
Mn1081 N1088 2.257 . S
Mn1081 N1097 2.282 . S
Mn1081 O1105 2.215 . S
Mn1081 O1107 2.117 . S
C1082 O1104 1.234 . S
C1082 O1105 1.283 . S
C1083 O1095 1.281 . S
C1083 O1096 1.236 . S
C1084 O1106 1.240 . S
C1084 O1107 1.264 . S
O1085 Mn1080 2.095 . S
O1085 C1094 1.250 . S
O1086 Mn1081 2.121 . S
O1086 C1094 1.258 . S
C1087 N1088 1.326 . S
C1087 C1091 1.460 . S
C1087 H1093 0.929 . S
N1088 Mn1081 2.257 . S
N1088 C1087 1.326 . S
N1088 C1092 1.362 . S
C1089 C1090 1.258 . S
C1089 C1092 1.431 . S
C1089 C1109 1.449 . S
C1090 C1089 1.258 . S
C1090 C1091 1.477 . S
C1090 H1110 0.931 . S
C1091 C1087 1.460 . S
C1091 C1090 1.477 . S
C1091 H1111 0.930 . S
C1092 N1088 1.362 . S
C1092 C1089 1.431 . S
C1092 C1102 1.476 . S
H1093 C1087 0.929 . S
C1094 O1085 1.250 . S
C1094 O1086 1.258 . S
O1095 Mn1080 2.162 . S
O1095 C1083 1.281 . S
O1096 Mn1080 2.297 . S
O1096 C1083 1.236 . S
N1097 Mn1081 2.282 . S
N1097 C1098 1.328 . S
N1097 C1102 1.318 . S
C1098 N1097 1.328 . S
C1098 C1099 1.457 1_455 S
C1098 H1103 0.929 . S
C1099 C1098 1.457 1_655 S
C1099 C1100 1.291 . S
C1099 H1112 0.931 . S
C1100 C1099 1.291 . S
C1100 C1101 1.373 1_655 S
C1100 H1113 0.929 . S
C1101 C1100 1.373 1_455 S
C1101 C1102 1.396 . S
C1101 C1108 1.403 . S
C1102 C1092 1.476 . S
C1102 N1097 1.318 . S
C1102 C1101 1.396 . S
H1103 C1098 0.929 . S
O1104 Mn1080 2.385 . S
O1104 C1082 1.234 . S
O1105 Mn1080 2.209 . S
O1105 Mn1081 2.215 . S
O1105 C1082 1.283 . S
O1106 Mn1080 2.094 . S
O1106 C1084 1.240 . S
O1107 Mn1081 2.117 . S
O1107 C1084 1.264 . S
C1108 C1101 1.403 . S
C1108 C1109 1.399 . S
C1108 H1114 0.929 . S
C1109 C1089 1.449 . S
C1109 C1108 1.399 . S
C1109 H1115 0.930 . S
H1110 C1090 0.931 . S
H1111 C1091 0.930 . S
H1112 C1099 0.931 . S
H1113 C1100 0.929 . S
H1114 C1108 0.929 . S
H1115 C1109 0.930 . S
Mn1116 O1121 2.095 . S
Mn1116 O1131 2.162 . S
Mn1116 O1132 2.297 . S
Mn1116 O1140 2.385 . S
Mn1116 O1141 2.209 . S
Mn1116 O1142 2.094 . S
Mn1117 O1122 2.121 . S
Mn1117 N1124 2.257 . S
Mn1117 N1133 2.282 . S
Mn1117 O1141 2.215 . S
Mn1117 O1143 2.117 . S
C1118 O1140 1.234 . S
C1118 O1141 1.283 . S
C1119 O1131 1.281 . S
C1119 O1132 1.236 . S
C1120 O1142 1.240 . S
C1120 O1143 1.264 . S
O1121 Mn1116 2.095 . S
O1121 C1130 1.250 . S
O1122 Mn1117 2.121 . S
O1122 C1130 1.258 . S
C1123 N1124 1.326 . S
C1123 C1127 1.460 . S
C1123 H1129 0.929 . S
N1124 Mn1117 2.257 . S
N1124 C1123 1.326 . S
N1124 C1128 1.362 . S
C1125 C1126 1.258 . S
C1125 C1128 1.431 . S
C1125 C1145 1.449 . S
C1126 C1125 1.258 . S
C1126 C1127 1.477 . S
C1126 H1146 0.931 . S
C1127 C1123 1.460 . S
C1127 C1126 1.477 . S
C1127 H1147 0.930 . S
C1128 N1124 1.362 . S
C1128 C1125 1.431 . S
C1128 C1138 1.476 . S
H1129 C1123 0.929 . S
C1130 O1121 1.250 . S
C1130 O1122 1.258 . S
O1131 Mn1116 2.162 . S
O1131 C1119 1.281 . S
O1132 Mn1116 2.297 . S
O1132 C1119 1.236 . S
N1133 Mn1117 2.282 . S
N1133 C1134 1.328 . S
N1133 C1138 1.318 . S
C1134 N1133 1.328 . S
C1134 C1135 1.457 . S
C1134 H1139 0.929 . S
C1135 C1134 1.457 . S
C1135 C1136 1.291 . S
C1135 H1148 0.931 . S
C1136 C1135 1.291 . S
C1136 C1137 1.373 . S
C1136 H1149 0.929 . S
C1137 C1136 1.373 . S
C1137 C1138 1.396 . S
C1137 C1144 1.403 . S
C1138 C1128 1.476 . S
C1138 N1133 1.318 . S
C1138 C1137 1.396 . S
H1139 C1134 0.929 . S
O1140 Mn1116 2.385 . S
O1140 C1118 1.234 . S
O1141 Mn1116 2.209 . S
O1141 Mn1117 2.215 . S
O1141 C1118 1.283 . S
O1142 Mn1116 2.094 . S
O1142 C1120 1.240 . S
O1143 Mn1117 2.117 . S
O1143 C1120 1.264 . S
C1144 C1137 1.403 . S
C1144 C1145 1.399 . S
C1144 H1150 0.929 . S
C1145 C1125 1.449 . S
C1145 C1144 1.399 . S
C1145 H1151 0.930 . S
H1146 C1126 0.931 . S
H1147 C1127 0.930 . S
H1148 C1135 0.931 . S
H1149 C1136 0.929 . S
H1150 C1144 0.929 . S
H1151 C1145 0.930 . S
H1152 C1160 0.950 . S
H1153 C1165 0.950 . S
H1154 C1162 0.950 1_455 S
H1155 C1164 0.950 . S
H1156 C1166 0.950 . S
H1157 C1168 0.950 1_655 S
H1158 C1170 0.950 . S
H1159 C1171 0.950 . S
C1160 H1152 0.950 . S
C1160 C1161 1.386 . S
C1160 C1162 1.391 . S
C1161 C1160 1.386 . S
C1161 C1165 1.393 . S
C1162 H1154 0.950 1_655 S
C1162 C1160 1.391 . S
C1162 C1163 1.400 . S
C1163 C1162 1.400 . S
C1163 C1164 1.398 . S
C1163 C1169 1.491 1_656 S
C1164 H1155 0.950 . S
C1164 C1163 1.398 . S
C1164 C1165 1.391 . S
C1165 H1153 0.950 . S
C1165 C1161 1.393 . S
C1165 C1164 1.391 . S
C1166 H1156 0.950 . S
C1166 C1167 1.386 . S
C1166 C1168 1.391 . S
C1167 C1166 1.386 . S
C1167 C1171 1.393 . S
C1168 H1157 0.950 1_455 S
C1168 C1166 1.391 . S
C1168 C1169 1.400 . S
C1169 C1163 1.491 1_454 S
C1169 C1168 1.400 . S
C1169 C1170 1.398 . S
C1170 H1158 0.950 . S
C1170 C1169 1.398 . S
C1170 C1171 1.391 . S
C1171 H1159 0.950 . S
C1171 C1167 1.393 . S
C1171 C1170 1.391 . S
H1172 C1180 0.950 . S
H1173 C1185 0.950 . S
H1174 C1182 0.950 . S
H1175 C1184 0.950 . S
H1176 C1186 0.950 . S
H1177 C1188 0.950 . S
H1178 C1190 0.950 . S
H1179 C1191 0.950 . S
C1180 H1172 0.950 . S
C1180 C1181 1.386 . S
C1180 C1182 1.391 . S
C1181 C1180 1.386 . S
C1181 C1185 1.393 . S
C1182 H1174 0.950 . S
C1182 C1180 1.391 . S
C1182 C1183 1.400 . S
C1183 C1182 1.400 . S
C1183 C1184 1.398 . S
C1183 C1189 1.491 . S
C1184 H1175 0.950 . S
C1184 C1183 1.398 . S
C1184 C1185 1.391 . S
C1185 H1173 0.950 . S
C1185 C1181 1.393 . S
C1185 C1184 1.391 . S
C1186 H1176 0.950 . S
C1186 C1187 1.386 . S
C1186 C1188 1.391 . S
C1187 C1186 1.386 . S
C1187 C1191 1.393 . S
C1188 H1177 0.950 . S
C1188 C1186 1.391 . S
C1188 C1189 1.400 . S
C1189 C1183 1.491 . S
C1189 C1188 1.400 . S
C1189 C1190 1.398 . S
C1190 H1178 0.950 . S
C1190 C1189 1.398 . S
C1190 C1191 1.391 . S
C1191 H1179 0.950 . S
C1191 C1187 1.393 . S
C1191 C1190 1.391 . S
H1192 C1200 0.950 . S
H1193 C1205 0.950 . S
H1194 C1202 0.950 . S
H1195 C1204 0.950 . S
H1196 C1206 0.950 . S
H1197 C1208 0.950 . S
H1198 C1210 0.950 . S
H1199 C1211 0.950 . S
C1200 H1192 0.950 . S
C1200 C1201 1.386 . S
C1200 C1202 1.391 . S
C1201 C1200 1.386 . S
C1201 C1205 1.393 . S
C1202 H1194 0.950 . S
C1202 C1200 1.391 . S
C1202 C1203 1.400 . S
C1203 C1202 1.400 . S
C1203 C1204 1.398 . S
C1203 C1209 1.491 . S
C1204 H1195 0.950 . S
C1204 C1203 1.398 . S
C1204 C1205 1.391 . S
C1205 H1193 0.950 . S
C1205 C1201 1.393 . S
C1205 C1204 1.391 . S
C1206 H1196 0.950 . S
C1206 C1207 1.386 . S
C1206 C1208 1.391 . S
C1207 C1206 1.386 . S
C1207 C1211 1.393 . S
C1208 H1197 0.950 . S
C1208 C1206 1.391 . S
C1208 C1209 1.400 . S
C1209 C1203 1.491 . S
C1209 C1208 1.400 . S
C1209 C1210 1.398 . S
C1210 H1198 0.950 . S
C1210 C1209 1.398 . S
C1210 C1211 1.391 . S
C1211 H1199 0.950 . S
C1211 C1207 1.393 . S
C1211 C1210 1.391 . S
H1212 C1220 0.950 . S
H1213 C1225 0.950 . S
H1214 C1222 0.950 . S
H1215 C1224 0.950 . S
H1216 C1226 0.950 . S
H1217 C1228 0.950 . S
H1218 C1230 0.950 . S
H1219 C1231 0.950 . S
C1220 H1212 0.950 . S
C1220 C1221 1.386 . S
C1220 C1222 1.391 . S
C1221 C1220 1.386 . S
C1221 C1225 1.393 . S
C1222 H1214 0.950 . S
C1222 C1220 1.391 . S
C1222 C1223 1.400 . S
C1223 C1222 1.400 . S
C1223 C1224 1.398 . S
C1223 C1229 1.491 . S
C1224 H1215 0.950 . S
C1224 C1223 1.398 . S
C1224 C1225 1.391 . S
C1225 H1213 0.950 . S
C1225 C1221 1.393 . S
C1225 C1224 1.391 . S
C1226 H1216 0.950 . S
C1226 C1227 1.386 . S
C1226 C1228 1.391 . S
C1227 C1226 1.386 . S
C1227 C1231 1.393 . S
C1228 H1217 0.950 . S
C1228 C1226 1.391 . S
C1228 C1229 1.400 . S
C1229 C1223 1.491 . S
C1229 C1228 1.400 . S
C1229 C1230 1.398 . S
C1230 H1218 0.950 . S
C1230 C1229 1.398 . S
C1230 C1231 1.391 . S
C1231 H1219 0.950 . S
C1231 C1227 1.393 . S
C1231 C1230 1.391 . S
H1232 C1240 0.950 . S
H1233 C1245 0.950 . S
H1234 C1242 0.950 . S
H1235 C1244 0.962 . S
H1236 C1246 0.950 . S
H1237 C1248 0.950 . S
H1238 C1250 0.962 . S
H1239 C1251 0.950 . S
C1240 H1232 0.950 . S
C1240 C1241 1.386 . S
C1240 C1242 1.391 . S
C1241 C1240 1.386 . S
C1241 C1245 1.393 . S
C1242 H1234 0.950 . S
C1242 C1240 1.391 . S
C1242 C1243 1.400 . S
C1243 C1242 1.400 . S
C1243 C1244 1.394 1_655 S
C1243 C1249 1.491 1_655 S
C1244 H1235 0.962 . S
C1244 C1243 1.394 1_455 S
C1244 C1245 1.383 1_455 S
C1245 H1233 0.950 . S
C1245 C1241 1.393 . S
C1245 C1244 1.383 1_655 S
C1246 H1236 0.950 . S
C1246 C1247 1.386 . S
C1246 C1248 1.391 . S
C1247 C1246 1.386 . S
C1247 C1251 1.393 . S
C1248 H1237 0.950 . S
C1248 C1246 1.391 . S
C1248 C1249 1.400 . S
C1249 C1243 1.491 1_455 S
C1249 C1248 1.400 . S
C1249 C1250 1.394 1_455 S
C1250 H1238 0.962 . S
C1250 C1249 1.394 1_655 S
C1250 C1251 1.383 1_655 S
C1251 H1239 0.950 . S
C1251 C1247 1.393 . S
C1251 C1250 1.383 1_455 S
H1252 C1260 0.950 . S
H1253 C1265 0.950 . S
H1254 C1262 0.950 . S
H1255 C1264 0.950 . S
H1256 C1266 0.950 . S
H1257 C1268 0.950 . S
H1258 C1270 0.950 . S
H1259 C1271 0.950 . S
C1260 H1252 0.950 . S
C1260 C1261 1.386 . S
C1260 C1262 1.391 . S
C1261 C1260 1.386 . S
C1261 C1265 1.393 . S
C1262 H1254 0.950 . S
C1262 C1260 1.391 . S
C1262 C1263 1.400 . S
C1263 C1262 1.400 . S
C1263 C1264 1.398 . S
C1263 C1269 1.491 . S
C1264 H1255 0.950 . S
C1264 C1263 1.398 . S
C1264 C1265 1.391 . S
C1265 H1253 0.950 . S
C1265 C1261 1.393 . S
C1265 C1264 1.391 . S
C1266 H1256 0.950 . S
C1266 C1267 1.386 . S
C1266 C1268 1.391 . S
C1267 C1266 1.386 . S
C1267 C1271 1.393 . S
C1268 H1257 0.950 . S
C1268 C1266 1.391 . S
C1268 C1269 1.400 . S
C1269 C1263 1.491 . S
C1269 C1268 1.400 . S
C1269 C1270 1.398 . S
C1270 H1258 0.950 . S
C1270 C1269 1.398 . S
C1270 C1271 1.391 . S
C1271 H1259 0.950 . S
C1271 C1267 1.393 . S
C1271 C1270 1.391 . S
H1272 C1280 0.950 . S
H1273 C1285 0.950 1_554 S
H1274 C1282 0.950 . S
H1275 C1284 0.950 . S
H1276 C1286 0.950 . S
H1277 C1288 0.950 . S
H1278 C1290 0.950 . S
H1279 C1291 0.950 1_556 S
C1280 H1272 0.950 . S
C1280 C1281 1.386 . S
C1280 C1282 1.391 . S
C1281 C1280 1.386 . S
C1281 C1285 1.393 . S
C1282 H1274 0.950 . S
C1282 C1280 1.391 . S
C1282 C1283 1.400 . S
C1283 C1282 1.400 . S
C1283 C1284 1.398 1_556 S
C1283 C1289 1.491 1_556 S
C1284 H1275 0.950 . S
C1284 C1283 1.398 1_554 S
C1284 C1285 1.391 1_554 S
C1285 H1273 0.950 1_556 S
C1285 C1281 1.393 . S
C1285 C1284 1.391 1_556 S
C1286 H1276 0.950 . S
C1286 C1287 1.386 . S
C1286 C1288 1.391 . S
C1287 C1286 1.386 . S
C1287 C1291 1.393 . S
C1288 H1277 0.950 . S
C1288 C1286 1.391 . S
C1288 C1289 1.400 . S
C1289 C1283 1.491 1_554 S
C1289 C1288 1.400 . S
C1289 C1290 1.398 1_554 S
C1290 H1278 0.950 . S
C1290 C1289 1.398 1_556 S
C1290 C1291 1.391 1_556 S
C1291 H1279 0.950 1_554 S
C1291 C1287 1.393 . S
C1291 C1290 1.391 1_554 S
H1292 C1300 0.950 . S
H1293 C1305 0.950 . S
H1294 C1302 0.950 . S
H1295 C1304 0.950 . S
H1296 C1306 0.950 . S
H1297 C1308 0.950 . S
H1298 C1310 0.950 . S
H1299 C1311 0.950 . S
C1300 H1292 0.950 . S
C1300 C1301 1.386 . S
C1300 C1302 1.391 . S
C1301 C1300 1.386 . S
C1301 C1305 1.393 . S
C1302 H1294 0.950 . S
C1302 C1300 1.391 . S
C1302 C1303 1.400 . S
C1303 C1302 1.400 . S
C1303 C1304 1.398 . S
C1303 C1309 1.491 . S
C1304 H1295 0.950 . S
C1304 C1303 1.398 . S
C1304 C1305 1.391 . S
C1305 H1293 0.950 . S
C1305 C1301 1.393 . S
C1305 C1304 1.391 . S
C1306 H1296 0.950 . S
C1306 C1307 1.386 . S
C1306 C1308 1.391 . S
C1307 C1306 1.386 . S
C1307 C1311 1.393 . S
C1308 H1297 0.950 . S
C1308 C1306 1.391 . S
C1308 C1309 1.400 . S
C1309 C1303 1.491 . S
C1309 C1308 1.400 . S
C1309 C1310 1.398 . S
C1310 H1298 0.950 . S
C1310 C1309 1.398 . S
C1310 C1311 1.391 . S
C1311 H1299 0.950 . S
C1311 C1307 1.393 . S
C1311 C1310 1.391 . S
H1312 C1320 0.950 . S
H1313 C1325 0.950 . S
H1314 C1322 0.950 . S
H1315 C1324 0.950 . S
H1316 C1326 0.950 . S
H1317 C1328 0.950 . S
H1318 C1330 0.950 . S
H1319 C1331 0.950 . S
C1320 H1312 0.950 . S
C1320 C1321 1.386 . S
C1320 C1322 1.391 . S
C1321 C1320 1.386 . S
C1321 C1325 1.393 . S
C1322 H1314 0.950 . S
C1322 C1320 1.391 . S
C1322 C1323 1.400 . S
C1323 C1322 1.400 . S
C1323 C1324 1.398 . S
C1323 C1329 1.491 . S
C1324 H1315 0.950 . S
C1324 C1323 1.398 . S
C1324 C1325 1.391 . S
C1325 H1313 0.950 . S
C1325 C1321 1.393 . S
C1325 C1324 1.391 . S
C1326 H1316 0.950 . S
C1326 C1327 1.386 . S
C1326 C1328 1.391 . S
C1327 C1326 1.386 . S
C1327 C1331 1.393 . S
C1328 H1317 0.950 . S
C1328 C1326 1.391 . S
C1328 C1329 1.400 . S
C1329 C1323 1.491 . S
C1329 C1328 1.400 . S
C1329 C1330 1.398 . S
C1330 H1318 0.950 . S
C1330 C1329 1.398 . S
C1330 C1331 1.391 . S
C1331 H1319 0.950 . S
C1331 C1327 1.393 . S
C1331 C1330 1.391 . S
H1332 C1340 0.950 . S
H1333 C1345 0.950 . S
H1334 C1342 0.950 . S
H1335 C1344 0.950 . S
H1336 C1346 0.950 . S
H1337 C1348 0.950 . S
H1338 C1350 0.950 . S
H1339 C1351 0.950 . S
C1340 H1332 0.950 . S
C1340 C1341 1.386 . S
C1340 C1342 1.391 . S
C1341 C1340 1.386 . S
C1341 C1345 1.393 . S
C1342 H1334 0.950 . S
C1342 C1340 1.391 . S
C1342 C1343 1.400 . S
C1343 C1342 1.400 . S
C1343 C1344 1.398 . S
C1343 C1349 1.491 . S
C1344 H1335 0.950 . S
C1344 C1343 1.398 . S
C1344 C1345 1.391 . S
C1345 H1333 0.950 . S
C1345 C1341 1.393 . S
C1345 C1344 1.391 . S
C1346 H1336 0.950 . S
C1346 C1347 1.386 . S
C1346 C1348 1.391 . S
C1347 C1346 1.386 . S
C1347 C1351 1.393 . S
C1348 H1337 0.950 . S
C1348 C1346 1.391 . S
C1348 C1349 1.400 . S
C1349 C1343 1.491 . S
C1349 C1348 1.400 . S
C1349 C1350 1.398 . S
C1350 H1338 0.950 . S
C1350 C1349 1.398 . S
C1350 C1351 1.391 . S
C1351 H1339 0.950 . S
C1351 C1347 1.393 . S
C1351 C1350 1.391 . S
H1352 C1360 0.950 . S
H1353 C1365 0.950 . S
H1354 C1362 0.950 . S
H1355 C1364 0.950 . S
H1356 C1366 0.950 . S
H1357 C1368 0.950 . S
H1358 C1370 0.950 . S
H1359 C1371 0.950 . S
C1360 H1352 0.950 . S
C1360 C1361 1.386 . S
C1360 C1362 1.391 . S
C1361 C1360 1.386 . S
C1361 C1365 1.393 . S
C1362 H1354 0.950 . S
C1362 C1360 1.391 . S
C1362 C1363 1.400 . S
C1363 C1362 1.400 . S
C1363 C1364 1.398 . S
C1363 C1369 1.491 . S
C1364 H1355 0.950 . S
C1364 C1363 1.398 . S
C1364 C1365 1.391 . S
C1365 H1353 0.950 . S
C1365 C1361 1.393 . S
C1365 C1364 1.391 . S
C1366 H1356 0.950 . S
C1366 C1367 1.386 . S
C1366 C1368 1.391 . S
C1367 C1366 1.386 . S
C1367 C1371 1.393 . S
C1368 H1357 0.950 . S
C1368 C1366 1.391 . S
C1368 C1369 1.400 . S
C1369 C1363 1.491 . S
C1369 C1368 1.400 . S
C1369 C1370 1.398 . S
C1370 H1358 0.950 . S
C1370 C1369 1.398 . S
C1370 C1371 1.391 . S
C1371 H1359 0.950 . S
C1371 C1367 1.393 . S
C1371 C1370 1.391 . S
H1372 C1380 0.950 . S
H1373 C1385 0.950 . S
H1374 C1382 0.950 . S
H1375 C1384 0.950 . S
H1376 C1386 0.950 . S
H1377 C1388 0.950 . S
H1378 C1390 0.950 . S
H1379 C1391 0.950 . S
C1380 H1372 0.950 . S
C1380 C1381 1.386 . S
C1380 C1382 1.391 . S
C1381 C1380 1.386 . S
C1381 C1385 1.393 . S
C1382 H1374 0.950 . S
C1382 C1380 1.391 . S
C1382 C1383 1.400 . S
C1383 C1382 1.400 . S
C1383 C1384 1.398 . S
C1383 C1389 1.491 . S
C1384 H1375 0.950 . S
C1384 C1383 1.398 . S
C1384 C1385 1.391 . S
C1385 H1373 0.950 . S
C1385 C1381 1.393 . S
C1385 C1384 1.391 . S
C1386 H1376 0.950 . S
C1386 C1387 1.386 . S
C1386 C1388 1.391 . S
C1387 C1386 1.386 . S
C1387 C1391 1.393 . S
C1388 H1377 0.950 . S
C1388 C1386 1.391 . S
C1388 C1389 1.400 . S
C1389 C1383 1.491 . S
C1389 C1388 1.400 . S
C1389 C1390 1.398 . S
C1390 H1378 0.950 . S
C1390 C1389 1.398 . S
C1390 C1391 1.391 . S
C1391 H1379 0.950 . S
C1391 C1387 1.393 . S
C1391 C1390 1.391 . S
H1392 C1400 0.950 . S
H1393 C1405 0.950 . S
H1394 C1402 0.950 . S
H1395 C1404 0.950 . S
H1396 C1406 0.950 . S
H1397 C1408 0.950 . S
H1398 C1410 0.950 . S
H1399 C1411 0.950 . S
C1400 H1392 0.950 . S
C1400 C1401 1.386 . S
C1400 C1402 1.391 . S
C1401 C1400 1.386 . S
C1401 C1405 1.393 . S
C1402 H1394 0.950 . S
C1402 C1400 1.391 . S
C1402 C1403 1.400 . S
C1403 C1402 1.400 . S
C1403 C1404 1.398 . S
C1403 C1409 1.491 1_565 S
C1404 H1395 0.950 . S
C1404 C1403 1.398 . S
C1404 C1405 1.391 . S
C1405 H1393 0.950 . S
C1405 C1401 1.393 . S
C1405 C1404 1.391 . S
C1406 H1396 0.950 . S
C1406 C1407 1.386 . S
C1406 C1408 1.391 . S
C1407 C1406 1.386 . S
C1407 C1411 1.393 . S
C1408 H1397 0.950 . S
C1408 C1406 1.391 . S
C1408 C1409 1.400 . S
C1409 C1403 1.491 1_545 S
C1409 C1408 1.400 . S
C1409 C1410 1.398 . S
C1410 H1398 0.950 . S
C1410 C1409 1.398 . S
C1410 C1411 1.391 . S
C1411 H1399 0.950 . S
C1411 C1407 1.393 . S
C1411 C1410 1.391 . S
H1412 C1420 0.950 1_554 S
H1413 C1425 0.950 . S
H1414 C1422 0.950 . S
H1415 C1424 0.950 1_655 S
H1416 C1426 0.950 1_556 S
H1417 C1428 0.950 . S
H1418 C1430 0.950 1_455 S
H1419 C1431 0.950 . S
C1420 H1412 0.950 1_556 S
C1420 C1421 1.386 . S
C1420 C1422 1.391 1_556 S
C1421 C1420 1.386 . S
C1421 C1425 1.393 . S
C1422 H1414 0.950 . S
C1422 C1420 1.391 1_554 S
C1422 C1423 1.400 1_554 S
C1423 C1422 1.400 1_556 S
C1423 C1424 1.398 . S
C1423 C1429 1.491 1_466 S
C1424 H1415 0.950 1_455 S
C1424 C1423 1.398 . S
C1424 C1425 1.391 . S
C1425 H1413 0.950 . S
C1425 C1421 1.393 . S
C1425 C1424 1.391 . S
C1426 H1416 0.950 1_554 S
C1426 C1427 1.386 . S
C1426 C1428 1.391 1_554 S
C1427 C1426 1.386 . S
C1427 C1431 1.393 . S
C1428 H1417 0.950 . S
C1428 C1426 1.391 1_556 S
C1428 C1429 1.400 1_556 S
C1429 C1423 1.491 1_644 S
C1429 C1428 1.400 1_554 S
C1429 C1430 1.398 . S
C1430 H1418 0.950 1_655 S
C1430 C1429 1.398 . S
C1430 C1431 1.391 . S
C1431 H1419 0.950 . S
C1431 C1427 1.393 . S
C1431 C1430 1.391 . S
H1432 C1440 0.950 . S
H1433 C1445 0.950 1_554 S
H1434 C1442 0.950 . S
H1435 C1444 0.950 . S
H1436 C1446 0.950 . S
H1437 C1448 0.950 . S
H1438 C1450 0.950 . S
H1439 C1451 0.950 1_556 S
C1440 H1432 0.950 . S
C1440 C1441 1.386 . S
C1440 C1442 1.391 . S
C1441 C1440 1.386 . S
C1441 C1445 1.393 . S
C1442 H1434 0.950 . S
C1442 C1440 1.391 . S
C1442 C1443 1.400 . S
C1443 C1442 1.400 . S
C1443 C1444 1.398 1_556 S
C1443 C1449 1.491 1_546 S
C1444 H1435 0.950 . S
C1444 C1443 1.398 1_554 S
C1444 C1445 1.391 1_554 S
C1445 H1433 0.950 1_556 S
C1445 C1441 1.393 . S
C1445 C1444 1.391 1_556 S
C1446 H1436 0.950 . S
C1446 C1447 1.386 . S
C1446 C1448 1.391 . S
C1447 C1446 1.386 . S
C1447 C1451 1.393 . S
C1448 H1437 0.950 . S
C1448 C1446 1.391 . S
C1448 C1449 1.400 . S
C1449 C1443 1.491 1_564 S
C1449 C1448 1.400 . S
C1449 C1450 1.398 1_554 S
C1450 H1438 0.950 . S
C1450 C1449 1.398 1_556 S
C1450 C1451 1.391 1_556 S
C1451 H1439 0.950 1_554 S
C1451 C1447 1.393 . S
C1451 C1450 1.391 1_554 S
H1452 C1460 0.950 . S
H1453 C1465 0.950 . S
H1454 C1462 0.950 . S
H1455 C1464 0.950 1_565 S
H1456 C1466 0.950 . S
H1457 C1468 0.950 . S
H1458 C1470 0.950 1_545 S
H1459 C1471 0.950 . S
C1460 H1452 0.950 . S
C1460 C1461 1.386 . S
C1460 C1462 1.391 . S
C1461 C1460 1.386 . S
C1461 C1465 1.393 . S
C1462 H1454 0.950 . S
C1462 C1460 1.391 . S
C1462 C1463 1.400 . S
C1463 C1462 1.400 . S
C1463 C1464 1.398 . S
C1463 C1469 1.491 1_445 S
C1464 H1455 0.950 1_545 S
C1464 C1463 1.398 . S
C1464 C1465 1.391 . S
C1465 H1453 0.950 . S
C1465 C1461 1.393 . S
C1465 C1464 1.391 . S
C1466 H1456 0.950 . S
C1466 C1467 1.386 . S
C1466 C1468 1.391 . S
C1467 C1466 1.386 . S
C1467 C1471 1.393 . S
C1468 H1457 0.950 . S
C1468 C1466 1.391 . S
C1468 C1469 1.400 . S
C1469 C1463 1.491 1_665 S
C1469 C1468 1.400 . S
C1469 C1470 1.398 . S
C1470 H1458 0.950 1_565 S
C1470 C1469 1.398 . S
C1470 C1471 1.391 . S
C1471 H1459 0.950 . S
C1471 C1467 1.393 . S
C1471 C1470 1.391 . S
H1472 C1480 0.950 . S
H1473 C1485 0.950 . S
H1474 C1482 0.950 . S
H1475 C1484 0.950 . S
H1476 C1486 0.950 . S
H1477 C1488 0.950 . S
H1478 C1490 0.950 . S
H1479 C1491 0.950 . S
C1480 H1472 0.950 . S
C1480 C1481 1.386 . S
C1480 C1482 1.391 . S
C1481 C1480 1.386 . S
C1481 C1485 1.393 . S
C1482 H1474 0.950 . S
C1482 C1480 1.391 . S
C1482 C1483 1.400 . S
C1483 C1482 1.400 . S
C1483 C1484 1.398 . S
C1483 C1489 1.491 1_655 S
C1484 H1475 0.950 . S
C1484 C1483 1.398 . S
C1484 C1485 1.391 . S
C1485 H1473 0.950 . S
C1485 C1481 1.393 . S
C1485 C1484 1.391 . S
C1486 H1476 0.950 . S
C1486 C1487 1.386 . S
C1486 C1488 1.391 . S
C1487 C1486 1.386 . S
C1487 C1491 1.393 . S
C1488 H1477 0.950 . S
C1488 C1486 1.391 . S
C1488 C1489 1.400 . S
C1489 C1483 1.491 1_455 S
C1489 C1488 1.400 . S
C1489 C1490 1.398 . S
C1490 H1478 0.950 . S
C1490 C1489 1.398 . S
C1490 C1491 1.391 . S
C1491 H1479 0.950 . S
C1491 C1487 1.393 . S
C1491 C1490 1.391 . S
H1492 C1500 0.950 . S
H1493 C1505 0.950 . S
H1494 C1502 0.950 . S
H1495 C1504 0.950 . S
H1496 C1506 0.950 . S
H1497 C1508 0.950 . S
H1498 C1510 0.950 . S
H1499 C1511 0.950 . S
C1500 H1492 0.950 . S
C1500 C1501 1.386 . S
C1500 C1502 1.391 . S
C1501 C1500 1.386 . S
C1501 C1505 1.393 . S
C1502 H1494 0.950 . S
C1502 C1500 1.391 . S
C1502 C1503 1.400 . S
C1503 C1502 1.400 . S
C1503 C1504 1.398 . S
C1503 C1509 1.491 1_455 S
C1504 H1495 0.950 . S
C1504 C1503 1.398 . S
C1504 C1505 1.391 . S
C1505 H1493 0.950 . S
C1505 C1501 1.393 . S
C1505 C1504 1.391 . S
C1506 H1496 0.950 . S
C1506 C1507 1.386 . S
C1506 C1508 1.391 . S
C1507 C1506 1.386 . S
C1507 C1511 1.393 . S
C1508 H1497 0.950 . S
C1508 C1506 1.391 . S
C1508 C1509 1.400 . S
C1509 C1503 1.491 1_655 S
C1509 C1508 1.400 . S
C1509 C1510 1.398 . S
C1510 H1498 0.950 . S
C1510 C1509 1.398 . S
C1510 C1511 1.391 . S
C1511 H1499 0.950 . S
C1511 C1507 1.393 . S
C1511 C1510 1.391 . S
H1512 C1520 0.950 . S
H1513 C1525 0.950 . S
H1514 C1522 0.950 . S
H1515 C1524 0.950 . S
H1516 C1526 0.950 . S
H1517 C1528 0.950 . S
H1518 C1530 0.950 . S
H1519 C1531 0.950 . S
C1520 H1512 0.950 . S
C1520 C1521 1.386 . S
C1520 C1522 1.391 . S
C1521 C1520 1.386 . S
C1521 C1525 1.393 . S
C1522 H1514 0.950 . S
C1522 C1520 1.391 . S
C1522 C1523 1.400 . S
C1523 C1522 1.400 . S
C1523 C1524 1.398 . S
C1523 C1529 1.491 . S
C1524 H1515 0.950 . S
C1524 C1523 1.398 . S
C1524 C1525 1.391 . S
C1525 H1513 0.950 . S
C1525 C1521 1.393 . S
C1525 C1524 1.391 . S
C1526 H1516 0.950 . S
C1526 C1527 1.386 . S
C1526 C1528 1.391 . S
C1527 C1526 1.386 . S
C1527 C1531 1.393 . S
C1528 H1517 0.950 . S
C1528 C1526 1.391 . S
C1528 C1529 1.400 . S
C1529 C1523 1.491 . S
C1529 C1528 1.400 . S
C1529 C1530 1.398 . S
C1530 H1518 0.950 . S
C1530 C1529 1.398 . S
C1530 C1531 1.391 . S
C1531 H1519 0.950 . S
C1531 C1527 1.393 . S
C1531 C1530 1.391 . S
H1532 C1540 0.950 . S
H1533 C1545 0.950 . S
H1534 C1542 0.950 . S
H1535 C1544 0.950 . S
H1536 C1546 0.950 . S
H1537 C1548 0.950 . S
H1538 C1550 0.950 . S
H1539 C1551 0.950 . S
C1540 H1532 0.950 . S
C1540 C1541 1.386 . S
C1540 C1542 1.391 . S
C1541 C1540 1.386 . S
C1541 C1545 1.393 . S
C1542 H1534 0.950 . S
C1542 C1540 1.391 . S
C1542 C1543 1.400 . S
C1543 C1542 1.400 . S
C1543 C1544 1.398 . S
C1543 C1549 1.491 . S
C1544 H1535 0.950 . S
C1544 C1543 1.398 . S
C1544 C1545 1.391 . S
C1545 H1533 0.950 . S
C1545 C1541 1.393 . S
C1545 C1544 1.391 . S
C1546 H1536 0.950 . S
C1546 C1547 1.386 . S
C1546 C1548 1.391 . S
C1547 C1546 1.386 . S
C1547 C1551 1.393 . S
C1548 H1537 0.950 . S
C1548 C1546 1.391 . S
C1548 C1549 1.400 . S
C1549 C1543 1.491 . S
C1549 C1548 1.400 . S
C1549 C1550 1.398 . S
C1550 H1538 0.950 . S
C1550 C1549 1.398 . S
C1550 C1551 1.391 . S
C1551 H1539 0.950 . S
C1551 C1547 1.393 . S
C1551 C1550 1.391 . S
H1552 C1560 0.950 . S
H1553 C1565 0.950 . S
H1554 C1562 0.950 1_455 S
H1555 C1564 0.950 . S
H1556 C1566 0.950 . S
H1557 C1568 0.950 1_655 S
H1558 C1570 0.950 . S
H1559 C1571 0.950 . S
C1560 H1552 0.950 . S
C1560 C1561 1.386 . S
C1560 C1562 1.391 . S
C1561 C1560 1.386 . S
C1561 C1565 1.393 . S
C1562 H1554 0.950 1_655 S
C1562 C1560 1.391 . S
C1562 C1563 1.400 . S
C1563 C1562 1.400 . S
C1563 C1564 1.398 . S
C1563 C1569 1.491 1_655 S
C1564 H1555 0.950 . S
C1564 C1563 1.398 . S
C1564 C1565 1.391 . S
C1565 H1553 0.950 . S
C1565 C1561 1.393 . S
C1565 C1564 1.391 . S
C1566 H1556 0.950 . S
C1566 C1567 1.386 . S
C1566 C1568 1.391 . S
C1567 C1566 1.386 . S
C1567 C1571 1.393 . S
C1568 H1557 0.950 1_455 S
C1568 C1566 1.391 . S
C1568 C1569 1.400 . S
C1569 C1563 1.491 1_455 S
C1569 C1568 1.400 . S
C1569 C1570 1.398 . S
C1570 H1558 0.950 . S
C1570 C1569 1.398 . S
C1570 C1571 1.391 . S
C1571 H1559 0.950 . S
C1571 C1567 1.393 . S
C1571 C1570 1.391 . S
H1572 C1580 0.950 . S
H1573 C1585 0.950 . S
H1574 C1582 0.950 . S
H1575 C1584 0.950 . S
H1576 C1586 0.950 . S
H1577 C1588 0.950 . S
H1578 C1590 0.950 . S
H1579 C1591 0.950 . S
C1580 H1572 0.950 . S
C1580 C1581 1.386 . S
C1580 C1582 1.391 . S
C1581 C1580 1.386 . S
C1581 C1585 1.393 . S
C1582 H1574 0.950 . S
C1582 C1580 1.391 . S
C1582 C1583 1.400 . S
C1583 C1582 1.400 . S
C1583 C1584 1.398 . S
C1583 C1589 1.491 . S
C1584 H1575 0.950 . S
C1584 C1583 1.398 . S
C1584 C1585 1.391 . S
C1585 H1573 0.950 . S
C1585 C1581 1.393 . S
C1585 C1584 1.391 . S
C1586 H1576 0.950 . S
C1586 C1587 1.386 . S
C1586 C1588 1.391 . S
C1587 C1586 1.386 . S
C1587 C1591 1.393 . S
C1588 H1577 0.950 . S
C1588 C1586 1.391 . S
C1588 C1589 1.400 . S
C1589 C1583 1.491 . S
C1589 C1588 1.400 . S
C1589 C1590 1.398 . S
C1590 H1578 0.950 . S
C1590 C1589 1.398 . S
C1590 C1591 1.391 . S
C1591 H1579 0.950 . S
C1591 C1587 1.393 . S
C1591 C1590 1.391 . S
H1592 C1600 0.950 . S
H1593 C1605 0.950 . S
H1594 C1602 0.950 . S
H1595 C1604 0.950 . S
H1596 C1606 0.950 . S
H1597 C1608 0.950 . S
H1598 C1610 0.950 . S
H1599 C1611 0.950 . S
C1600 H1592 0.950 . S
C1600 C1601 1.386 . S
C1600 C1602 1.391 . S
C1601 C1600 1.386 . S
C1601 C1605 1.393 . S
C1602 H1594 0.950 . S
C1602 C1600 1.391 . S
C1602 C1603 1.400 . S
C1603 C1602 1.400 . S
C1603 C1604 1.398 . S
C1603 C1609 1.491 . S
C1604 H1595 0.950 . S
C1604 C1603 1.398 . S
C1604 C1605 1.391 . S
C1605 H1593 0.950 . S
C1605 C1601 1.393 . S
C1605 C1604 1.391 . S
C1606 H1596 0.950 . S
C1606 C1607 1.386 . S
C1606 C1608 1.391 . S
C1607 C1606 1.386 . S
C1607 C1611 1.393 . S
C1608 H1597 0.950 . S
C1608 C1606 1.391 . S
C1608 C1609 1.400 . S
C1609 C1603 1.491 . S
C1609 C1608 1.400 . S
C1609 C1610 1.398 . S
C1610 H1598 0.950 . S
C1610 C1609 1.398 . S
C1610 C1611 1.391 . S
C1611 H1599 0.950 . S
C1611 C1607 1.393 . S
C1611 C1610 1.391 . S
H1612 C1620 0.950 . S
H1613 C1625 0.950 . S
H1614 C1622 0.950 . S
H1615 C1624 0.950 . S
H1616 C1626 0.950 . S
H1617 C1628 0.950 . S
H1618 C1630 0.950 . S
H1619 C1631 0.950 . S
C1620 H1612 0.950 . S
C1620 C1621 1.386 . S
C1620 C1622 1.391 . S
C1621 C1620 1.386 . S
C1621 C1625 1.393 . S
C1622 H1614 0.950 . S
C1622 C1620 1.391 . S
C1622 C1623 1.400 . S
C1623 C1622 1.400 . S
C1623 C1624 1.398 . S
C1623 C1629 1.491 1_455 S
C1624 H1615 0.950 . S
C1624 C1623 1.398 . S
C1624 C1625 1.391 . S
C1625 H1613 0.950 . S
C1625 C1621 1.393 . S
C1625 C1624 1.391 . S
C1626 H1616 0.950 . S
C1626 C1627 1.386 . S
C1626 C1628 1.391 . S
C1627 C1626 1.386 . S
C1627 C1631 1.393 . S
C1628 H1617 0.950 . S
C1628 C1626 1.391 . S
C1628 C1629 1.400 . S
C1629 C1623 1.491 1_655 S
C1629 C1628 1.400 . S
C1629 C1630 1.398 . S
C1630 H1618 0.950 . S
C1630 C1629 1.398 . S
C1630 C1631 1.391 . S
C1631 H1619 0.950 . S
C1631 C1627 1.393 . S
C1631 C1630 1.391 . S
H1632 C1640 0.950 . S
H1633 C1645 0.950 . S
H1634 C1642 0.950 . S
H1635 C1644 0.965 . S
H1636 C1646 0.950 . S
H1637 C1648 0.950 . S
H1638 C1650 0.965 . S
H1639 C1651 0.950 . S
C1640 H1632 0.950 . S
C1640 C1641 1.386 . S
C1640 C1642 1.391 . S
C1641 C1640 1.386 . S
C1641 C1645 1.393 . S
C1642 H1634 0.950 . S
C1642 C1640 1.391 . S
C1642 C1643 1.400 . S
C1643 C1642 1.400 . S
C1643 C1644 1.393 1_655 S
C1643 C1649 1.491 1_655 S
C1644 H1635 0.965 . S
C1644 C1643 1.393 1_455 S
C1644 C1645 1.381 1_455 S
C1645 H1633 0.950 . S
C1645 C1641 1.393 . S
C1645 C1644 1.381 1_655 S
C1646 H1636 0.950 . S
C1646 C1647 1.386 . S
C1646 C1648 1.391 . S
C1647 C1646 1.386 . S
C1647 C1651 1.393 . S
C1648 H1637 0.950 . S
C1648 C1646 1.391 . S
C1648 C1649 1.400 . S
C1649 C1643 1.491 1_455 S
C1649 C1648 1.400 . S
C1649 C1650 1.393 1_455 S
C1650 H1638 0.965 . S
C1650 C1649 1.393 1_655 S
C1650 C1651 1.381 1_655 S
C1651 H1639 0.950 . S
C1651 C1647 1.393 . S
C1651 C1650 1.381 1_455 S
H1652 C1660 0.950 . S
H1653 C1665 0.950 . S
H1654 C1662 0.950 . S
H1655 C1664 0.950 . S
H1656 C1666 0.950 . S
H1657 C1668 0.950 . S
H1658 C1670 0.950 . S
H1659 C1671 0.950 . S
C1660 H1652 0.950 . S
C1660 C1661 1.386 . S
C1660 C1662 1.391 . S
C1661 C1660 1.386 . S
C1661 C1665 1.393 . S
C1662 H1654 0.950 . S
C1662 C1660 1.391 . S
C1662 C1663 1.400 . S
C1663 C1662 1.400 . S
C1663 C1664 1.398 . S
C1663 C1669 1.491 1_655 S
C1664 H1655 0.950 . S
C1664 C1663 1.398 . S
C1664 C1665 1.391 . S
C1665 H1653 0.950 . S
C1665 C1661 1.393 . S
C1665 C1664 1.391 . S
C1666 H1656 0.950 . S
C1666 C1667 1.386 . S
C1666 C1668 1.391 . S
C1667 C1666 1.386 . S
C1667 C1671 1.393 . S
C1668 H1657 0.950 . S
C1668 C1666 1.391 . S
C1668 C1669 1.400 . S
C1669 C1663 1.491 1_455 S
C1669 C1668 1.400 . S
C1669 C1670 1.398 . S
C1670 H1658 0.950 . S
C1670 C1669 1.398 . S
C1670 C1671 1.391 . S
C1671 H1659 0.950 . S
C1671 C1667 1.393 . S
C1671 C1670 1.391 . S
H1672 C1680 0.950 . S
H1673 C1685 0.950 . S
H1674 C1682 0.950 . S
H1675 C1684 0.950 . S
H1676 C1686 0.950 . S
H1677 C1688 0.950 . S
H1678 C1690 0.950 . S
H1679 C1691 0.950 . S
C1680 H1672 0.950 . S
C1680 C1681 1.386 . S
C1680 C1682 1.391 . S
C1681 C1680 1.386 . S
C1681 C1685 1.393 . S
C1682 H1674 0.950 . S
C1682 C1680 1.391 . S
C1682 C1683 1.400 . S
C1683 C1682 1.400 . S
C1683 C1684 1.398 . S
C1683 C1689 1.491 . S
C1684 H1675 0.950 . S
C1684 C1683 1.398 . S
C1684 C1685 1.391 . S
C1685 H1673 0.950 . S
C1685 C1681 1.393 . S
C1685 C1684 1.391 . S
C1686 H1676 0.950 . S
C1686 C1687 1.386 . S
C1686 C1688 1.391 . S
C1687 C1686 1.386 . S
C1687 C1691 1.393 . S
C1688 H1677 0.950 . S
C1688 C1686 1.391 . S
C1688 C1689 1.400 . S
C1689 C1683 1.491 . S
C1689 C1688 1.400 . S
C1689 C1690 1.398 . S
C1690 H1678 0.950 . S
C1690 C1689 1.398 . S
C1690 C1691 1.391 . S
C1691 H1679 0.950 . S
C1691 C1687 1.393 . S
C1691 C1690 1.391 . S
H1692 C1700 0.950 . S
H1693 C1705 0.950 . S
H1694 C1702 0.950 . S
H1695 C1704 0.950 . S
H1696 C1706 0.950 . S
H1697 C1708 0.950 . S
H1698 C1710 0.950 . S
H1699 C1711 0.950 . S
C1700 H1692 0.950 . S
C1700 C1701 1.386 . S
C1700 C1702 1.391 . S
C1701 C1700 1.386 . S
C1701 C1705 1.393 . S
C1702 H1694 0.950 . S
C1702 C1700 1.391 . S
C1702 C1703 1.400 . S
C1703 C1702 1.400 . S
C1703 C1704 1.398 . S
C1703 C1709 1.491 . S
C1704 H1695 0.950 . S
C1704 C1703 1.398 . S
C1704 C1705 1.391 . S
C1705 H1693 0.950 . S
C1705 C1701 1.393 . S
C1705 C1704 1.391 . S
C1706 H1696 0.950 . S
C1706 C1707 1.386 . S
C1706 C1708 1.391 . S
C1707 C1706 1.386 . S
C1707 C1711 1.393 . S
C1708 H1697 0.950 . S
C1708 C1706 1.391 . S
C1708 C1709 1.400 . S
C1709 C1703 1.491 . S
C1709 C1708 1.400 . S
C1709 C1710 1.398 . S
C1710 H1698 0.950 . S
C1710 C1709 1.398 . S
C1710 C1711 1.391 . S
C1711 H1699 0.950 . S
C1711 C1707 1.393 . S
C1711 C1710 1.391 . S
H1712 C1720 0.950 . S
H1713 C1725 0.950 . S
H1714 C1722 0.950 1_455 S
H1715 C1724 0.950 . S
H1716 C1726 0.950 . S
H1717 C1728 0.950 1_655 S
H1718 C1730 0.950 . S
H1719 C1731 0.950 . S
C1720 H1712 0.950 . S
C1720 C1721 1.386 . S
C1720 C1722 1.391 . S
C1721 C1720 1.386 . S
C1721 C1725 1.393 . S
C1722 H1714 0.950 1_655 S
C1722 C1720 1.391 . S
C1722 C1723 1.400 . S
C1723 C1722 1.400 . S
C1723 C1724 1.398 . S
C1723 C1729 1.491 1_655 S
C1724 H1715 0.950 . S
C1724 C1723 1.398 . S
C1724 C1725 1.391 . S
C1725 H1713 0.950 . S
C1725 C1721 1.393 . S
C1725 C1724 1.391 . S
C1726 H1716 0.950 . S
C1726 C1727 1.386 . S
C1726 C1728 1.391 . S
C1727 C1726 1.386 . S
C1727 C1731 1.393 . S
C1728 H1717 0.950 1_455 S
C1728 C1726 1.391 . S
C1728 C1729 1.400 . S
C1729 C1723 1.491 1_455 S
C1729 C1728 1.400 . S
C1729 C1730 1.398 . S
C1730 H1718 0.950 . S
C1730 C1729 1.398 . S
C1730 C1731 1.391 . S
C1731 H1719 0.950 . S
C1731 C1727 1.393 . S
C1731 C1730 1.391 . S
H1732 C1740 0.950 . S
H1733 C1745 0.950 . S
H1734 C1742 0.950 . S
H1735 C1744 0.950 . S
H1736 C1746 0.950 . S
H1737 C1748 0.950 . S
H1738 C1750 0.950 . S
H1739 C1751 0.950 . S
C1740 H1732 0.950 . S
C1740 C1741 1.386 . S
C1740 C1742 1.391 . S
C1741 C1740 1.386 . S
C1741 C1745 1.393 . S
C1742 H1734 0.950 . S
C1742 C1740 1.391 . S
C1742 C1743 1.400 . S
C1743 C1742 1.400 . S
C1743 C1744 1.398 . S
C1743 C1749 1.491 . S
C1744 H1735 0.950 . S
C1744 C1743 1.398 . S
C1744 C1745 1.391 . S
C1745 H1733 0.950 . S
C1745 C1741 1.393 . S
C1745 C1744 1.391 . S
C1746 H1736 0.950 . S
C1746 C1747 1.386 . S
C1746 C1748 1.391 . S
C1747 C1746 1.386 . S
C1747 C1751 1.393 . S
C1748 H1737 0.950 . S
C1748 C1746 1.391 . S
C1748 C1749 1.400 . S
C1749 C1743 1.491 . S
C1749 C1748 1.400 . S
C1749 C1750 1.398 . S
C1750 H1738 0.950 . S
C1750 C1749 1.398 . S
C1750 C1751 1.391 . S
C1751 H1739 0.950 . S
C1751 C1747 1.393 . S
C1751 C1750 1.391 . S
H1752 C1760 0.950 . S
H1753 C1765 0.950 . S
H1754 C1762 0.950 . S
H1755 C1764 0.950 . S
H1756 C1766 0.950 . S
H1757 C1768 0.950 . S
H1758 C1770 0.950 . S
H1759 C1771 0.950 . S
C1760 H1752 0.950 . S
C1760 C1761 1.386 . S
C1760 C1762 1.391 . S
C1761 C1760 1.386 . S
C1761 C1765 1.393 . S
C1762 H1754 0.950 . S
C1762 C1760 1.391 . S
C1762 C1763 1.400 . S
C1763 C1762 1.400 . S
C1763 C1764 1.398 . S
C1763 C1769 1.491 . S
C1764 H1755 0.950 . S
C1764 C1763 1.398 . S
C1764 C1765 1.391 . S
C1765 H1753 0.950 . S
C1765 C1761 1.393 . S
C1765 C1764 1.391 . S
C1766 H1756 0.950 . S
C1766 C1767 1.386 . S
C1766 C1768 1.391 . S
C1767 C1766 1.386 . S
C1767 C1771 1.393 . S
C1768 H1757 0.950 . S
C1768 C1766 1.391 . S
C1768 C1769 1.400 . S
C1769 C1763 1.491 . S
C1769 C1768 1.400 . S
C1769 C1770 1.398 . S
C1770 H1758 0.950 . S
C1770 C1769 1.398 . S
C1770 C1771 1.391 . S
C1771 H1759 0.950 . S
C1771 C1767 1.393 . S
C1771 C1770 1.391 . S
H1772 C1780 0.950 . S
H1773 C1785 0.950 . S
H1774 C1782 0.950 . S
H1775 C1784 0.950 . S
H1776 C1786 0.950 . S
H1777 C1788 0.950 . S
H1778 C1790 0.950 . S
H1779 C1791 0.950 . S
C1780 H1772 0.950 . S
C1780 C1781 1.386 . S
C1780 C1782 1.391 . S
C1781 C1780 1.386 . S
C1781 C1785 1.393 . S
C1782 H1774 0.950 . S
C1782 C1780 1.391 . S
C1782 C1783 1.400 . S
C1783 C1782 1.400 . S
C1783 C1784 1.398 . S
C1783 C1789 1.491 1_655 S
C1784 H1775 0.950 . S
C1784 C1783 1.398 . S
C1784 C1785 1.391 . S
C1785 H1773 0.950 . S
C1785 C1781 1.393 . S
C1785 C1784 1.391 . S
C1786 H1776 0.950 . S
C1786 C1787 1.386 . S
C1786 C1788 1.391 . S
C1787 C1786 1.386 . S
C1787 C1791 1.393 . S
C1788 H1777 0.950 . S
C1788 C1786 1.391 . S
C1788 C1789 1.400 . S
C1789 C1783 1.491 1_455 S
C1789 C1788 1.400 . S
C1789 C1790 1.398 . S
C1790 H1778 0.950 . S
C1790 C1789 1.398 . S
C1790 C1791 1.391 . S
C1791 H1779 0.950 . S
C1791 C1787 1.393 . S
C1791 C1790 1.391 . S
H1792 C1800 0.950 . S
H1793 C1805 0.950 . S
H1794 C1802 0.950 1_554 S
H1795 C1804 0.950 . S
H1796 C1806 0.950 . S
H1797 C1808 0.950 1_556 S
H1798 C1810 0.950 . S
H1799 C1811 0.950 . S
C1800 H1792 0.950 . S
C1800 C1801 1.386 . S
C1800 C1802 1.391 . S
C1801 C1800 1.386 . S
C1801 C1805 1.393 . S
C1802 H1794 0.950 1_556 S
C1802 C1800 1.391 . S
C1802 C1803 1.400 . S
C1803 C1802 1.400 . S
C1803 C1804 1.398 . S
C1803 C1809 1.491 1_556 S
C1804 H1795 0.950 . S
C1804 C1803 1.398 . S
C1804 C1805 1.391 . S
C1805 H1793 0.950 . S
C1805 C1801 1.393 . S
C1805 C1804 1.391 . S
C1806 H1796 0.950 . S
C1806 C1807 1.386 . S
C1806 C1808 1.391 . S
C1807 C1806 1.386 . S
C1807 C1811 1.393 . S
C1808 H1797 0.950 1_554 S
C1808 C1806 1.391 . S
C1808 C1809 1.400 . S
C1809 C1803 1.491 1_554 S
C1809 C1808 1.400 . S
C1809 C1810 1.398 . S
C1810 H1798 0.950 . S
C1810 C1809 1.398 . S
C1810 C1811 1.391 . S
C1811 H1799 0.950 . S
C1811 C1807 1.393 . S
C1811 C1810 1.391 . S
H1812 C1820 0.950 . S
H1813 C1825 0.950 . S
H1814 C1822 0.950 . S
H1815 C1824 0.950 . S
H1816 C1826 0.950 . S
H1817 C1828 0.950 . S
H1818 C1830 0.950 . S
H1819 C1831 0.950 . S
C1820 H1812 0.950 . S
C1820 C1821 1.386 . S
C1820 C1822 1.391 . S
C1821 C1820 1.386 . S
C1821 C1825 1.393 . S
C1822 H1814 0.950 . S
C1822 C1820 1.391 . S
C1822 C1823 1.400 . S
C1823 C1822 1.400 . S
C1823 C1824 1.398 . S
C1823 C1829 1.491 1_545 S
C1824 H1815 0.950 . S
C1824 C1823 1.398 . S
C1824 C1825 1.391 . S
C1825 H1813 0.950 . S
C1825 C1821 1.393 . S
C1825 C1824 1.391 . S
C1826 H1816 0.950 . S
C1826 C1827 1.386 . S
C1826 C1828 1.391 . S
C1827 C1826 1.386 . S
C1827 C1831 1.393 . S
C1828 H1817 0.950 . S
C1828 C1826 1.391 . S
C1828 C1829 1.400 . S
C1829 C1823 1.491 1_565 S
C1829 C1828 1.400 . S
C1829 C1830 1.398 . S
C1830 H1818 0.950 . S
C1830 C1829 1.398 . S
C1830 C1831 1.391 . S
C1831 H1819 0.950 . S
C1831 C1827 1.393 . S
C1831 C1830 1.391 . S
H1832 C1840 0.950 . S
H1833 C1845 0.950 . S
H1834 C1842 0.950 . S
H1835 C1844 0.950 . S
H1836 C1846 0.950 . S
H1837 C1848 0.950 . S
H1838 C1850 0.950 . S
H1839 C1851 0.950 . S
C1840 H1832 0.950 . S
C1840 C1841 1.386 . S
C1840 C1842 1.391 . S
C1841 C1840 1.386 . S
C1841 C1845 1.393 . S
C1842 H1834 0.950 . S
C1842 C1840 1.391 . S
C1842 C1843 1.400 . S
C1843 C1842 1.400 . S
C1843 C1844 1.398 . S
C1843 C1849 1.491 . S
C1844 H1835 0.950 . S
C1844 C1843 1.398 . S
C1844 C1845 1.391 . S
C1845 H1833 0.950 . S
C1845 C1841 1.393 . S
C1845 C1844 1.391 . S
C1846 H1836 0.950 . S
C1846 C1847 1.386 . S
C1846 C1848 1.391 . S
C1847 C1846 1.386 . S
C1847 C1851 1.393 . S
C1848 H1837 0.950 . S
C1848 C1846 1.391 . S
C1848 C1849 1.400 . S
C1849 C1843 1.491 . S
C1849 C1848 1.400 . S
C1849 C1850 1.398 . S
C1850 H1838 0.950 . S
C1850 C1849 1.398 . S
C1850 C1851 1.391 . S
C1851 H1839 0.950 . S
C1851 C1847 1.393 . S
C1851 C1850 1.391 . S
H1852 C1860 0.950 . S
H1853 C1865 0.950 . S
H1854 C1862 0.957 . S
H1855 C1864 0.950 . S
H1856 C1866 0.950 . S
H1857 C1868 0.957 . S
H1858 C1870 0.950 . S
H1859 C1871 0.950 . S
C1860 H1852 0.950 . S
C1860 C1861 1.386 . S
C1860 C1862 1.391 . S
C1861 C1860 1.386 . S
C1861 C1865 1.393 . S
C1862 H1854 0.957 . S
C1862 C1860 1.391 . S
C1862 C1863 1.400 . S
C1863 C1862 1.400 . S
C1863 C1864 1.398 . S
C1863 C1869 1.491 1_545 S
C1864 H1855 0.950 . S
C1864 C1863 1.398 . S
C1864 C1865 1.391 . S
C1865 H1853 0.950 . S
C1865 C1861 1.393 . S
C1865 C1864 1.391 . S
C1866 H1856 0.950 . S
C1866 C1867 1.386 . S
C1866 C1868 1.391 . S
C1867 C1866 1.386 . S
C1867 C1871 1.393 . S
C1868 H1857 0.957 . S
C1868 C1866 1.391 . S
C1868 C1869 1.400 . S
C1869 C1863 1.491 1_565 S
C1869 C1868 1.400 . S
C1869 C1870 1.398 . S
C1870 H1858 0.950 . S
C1870 C1869 1.398 . S
C1870 C1871 1.391 . S
C1871 H1859 0.950 . S
C1871 C1867 1.393 . S
C1871 C1870 1.391 . S
H1872 C1880 0.950 . S
H1873 C1885 0.950 . S
H1874 C1882 0.921 1_556 S
H1875 C1884 0.950 . S
H1876 C1886 0.950 . S
H1877 C1888 0.921 1_554 S
H1878 C1890 0.950 . S
H1879 C1891 0.950 . S
C1880 H1872 0.950 . S
C1880 C1881 1.386 . S
C1880 C1882 1.411 . S
C1881 C1880 1.386 . S
C1881 C1885 1.393 . S
C1882 H1874 0.921 1_554 S
C1882 C1880 1.411 . S
C1882 C1883 1.410 . S
C1883 C1882 1.410 . S
C1883 C1884 1.398 . S
C1883 C1889 1.491 1_554 S
C1884 H1875 0.950 . S
C1884 C1883 1.398 . S
C1884 C1885 1.391 . S
C1885 H1873 0.950 . S
C1885 C1881 1.393 . S
C1885 C1884 1.391 . S
C1886 H1876 0.950 . S
C1886 C1887 1.386 . S
C1886 C1888 1.411 . S
C1887 C1886 1.386 . S
C1887 C1891 1.393 . S
C1888 H1877 0.921 1_556 S
C1888 C1886 1.411 . S
C1888 C1889 1.410 . S
C1889 C1883 1.491 1_556 S
C1889 C1888 1.410 . S
C1889 C1890 1.398 . S
C1890 H1878 0.950 . S
C1890 C1889 1.398 . S
C1890 C1891 1.391 . S
C1891 H1879 0.950 . S
C1891 C1887 1.393 . S
C1891 C1890 1.391 . S
H1892 C1900 0.950 . S
H1893 C1905 0.950 . S
H1894 C1902 0.950 . S
H1895 C1904 0.950 . S
H1896 C1906 0.950 . S
H1897 C1908 0.950 . S
H1898 C1910 0.950 . S
H1899 C1911 0.950 . S
C1900 H1892 0.950 . S
C1900 C1901 1.386 . S
C1900 C1902 1.391 . S
C1901 C1900 1.386 . S
C1901 C1905 1.393 . S
C1902 H1894 0.950 . S
C1902 C1900 1.391 . S
C1902 C1903 1.400 . S
C1903 C1902 1.400 . S
C1903 C1904 1.398 . S
C1903 C1909 1.491 1_565 S
C1904 H1895 0.950 . S
C1904 C1903 1.398 . S
C1904 C1905 1.391 . S
C1905 H1893 0.950 . S
C1905 C1901 1.393 . S
C1905 C1904 1.391 . S
C1906 H1896 0.950 . S
C1906 C1907 1.386 . S
C1906 C1908 1.391 . S
C1907 C1906 1.386 . S
C1907 C1911 1.393 . S
C1908 H1897 0.950 . S
C1908 C1906 1.391 . S
C1908 C1909 1.400 . S
C1909 C1903 1.491 1_545 S
C1909 C1908 1.400 . S
C1909 C1910 1.398 . S
C1910 H1898 0.950 . S
C1910 C1909 1.398 . S
C1910 C1911 1.391 . S
C1911 H1899 0.950 . S
C1911 C1907 1.393 . S
C1911 C1910 1.391 . S
H1912 C1920 0.950 . S
H1913 C1925 0.950 . S
H1914 C1922 0.950 . S
H1915 C1924 0.950 . S
H1916 C1926 0.950 . S
H1917 C1928 0.950 . S
H1918 C1930 0.950 . S
H1919 C1931 0.950 . S
C1920 H1912 0.950 . S
C1920 C1921 1.386 . S
C1920 C1922 1.391 . S
C1921 C1920 1.386 . S
C1921 C1925 1.393 . S
C1922 H1914 0.950 . S
C1922 C1920 1.391 . S
C1922 C1923 1.400 . S
C1923 C1922 1.400 . S
C1923 C1924 1.398 . S
C1923 C1929 1.491 . S
C1924 H1915 0.950 . S
C1924 C1923 1.398 . S
C1924 C1925 1.391 . S
C1925 H1913 0.950 . S
C1925 C1921 1.393 . S
C1925 C1924 1.391 . S
C1926 H1916 0.950 . S
C1926 C1927 1.386 . S
C1926 C1928 1.391 . S
C1927 C1926 1.386 . S
C1927 C1931 1.393 . S
C1928 H1917 0.950 . S
C1928 C1926 1.391 . S
C1928 C1929 1.400 . S
C1929 C1923 1.491 . S
C1929 C1928 1.400 . S
C1929 C1930 1.398 . S
C1930 H1918 0.950 . S
C1930 C1929 1.398 . S
C1930 C1931 1.391 . S
C1931 H1919 0.950 . S
C1931 C1927 1.393 . S
C1931 C1930 1.391 . S
H1932 C1940 0.950 . S
H1933 C1945 0.950 . S
H1934 C1942 0.950 . S
H1935 C1944 0.950 . S
H1936 C1946 0.950 . S
H1937 C1948 0.950 . S
H1938 C1950 0.950 . S
H1939 C1951 0.950 . S
C1940 H1932 0.950 . S
C1940 C1941 1.386 . S
C1940 C1942 1.391 . S
C1941 C1940 1.386 . S
C1941 C1945 1.393 . S
C1942 H1934 0.950 . S
C1942 C1940 1.391 . S
C1942 C1943 1.400 . S
C1943 C1942 1.400 . S
C1943 C1944 1.398 . S
C1943 C1949 1.491 1_545 S
C1944 H1935 0.950 . S
C1944 C1943 1.398 . S
C1944 C1945 1.391 . S
C1945 H1933 0.950 . S
C1945 C1941 1.393 . S
C1945 C1944 1.391 . S
C1946 H1936 0.950 . S
C1946 C1947 1.386 . S
C1946 C1948 1.391 . S
C1947 C1946 1.386 . S
C1947 C1951 1.393 . S
C1948 H1937 0.950 . S
C1948 C1946 1.391 . S
C1948 C1949 1.400 . S
C1949 C1943 1.491 1_565 S
C1949 C1948 1.400 . S
C1949 C1950 1.398 . S
C1950 H1938 0.950 . S
C1950 C1949 1.398 . S
C1950 C1951 1.391 . S
C1951 H1939 0.950 . S
C1951 C1947 1.393 . S
C1951 C1950 1.391 . S
H1952 C1960 0.950 . S
H1953 C1965 0.950 . S
H1954 C1962 0.950 . S
H1955 C1964 0.950 . S
H1956 C1966 0.950 . S
H1957 C1968 0.950 . S
H1958 C1970 0.950 . S
H1959 C1971 0.950 . S
C1960 H1952 0.950 . S
C1960 C1961 1.386 . S
C1960 C1962 1.391 . S
C1961 C1960 1.386 . S
C1961 C1965 1.393 . S
C1962 H1954 0.950 . S
C1962 C1960 1.391 . S
C1962 C1963 1.400 . S
C1963 C1962 1.400 . S
C1963 C1964 1.398 . S
C1963 C1969 1.491 . S
C1964 H1955 0.950 . S
C1964 C1963 1.398 . S
C1964 C1965 1.391 . S
C1965 H1953 0.950 . S
C1965 C1961 1.393 . S
C1965 C1964 1.391 . S
C1966 H1956 0.950 . S
C1966 C1967 1.386 . S
C1966 C1968 1.391 . S
C1967 C1966 1.386 . S
C1967 C1971 1.393 . S
C1968 H1957 0.950 . S
C1968 C1966 1.391 . S
C1968 C1969 1.400 . S
C1969 C1963 1.491 . S
C1969 C1968 1.400 . S
C1969 C1970 1.398 . S
C1970 H1958 0.950 . S
C1970 C1969 1.398 . S
C1970 C1971 1.391 . S
C1971 H1959 0.950 . S
C1971 C1967 1.393 . S
C1971 C1970 1.391 . S
H1972 C1980 0.950 . S
H1973 C1985 0.950 . S
H1974 C1982 0.950 . S
H1975 C1984 0.950 . S
H1976 C1986 0.950 . S
H1977 C1988 0.950 . S
H1978 C1990 0.950 . S
H1979 C1991 0.950 . S
C1980 H1972 0.950 . S
C1980 C1981 1.386 . S
C1980 C1982 1.391 . S
C1981 C1980 1.386 . S
C1981 C1985 1.393 . S
C1982 H1974 0.950 . S
C1982 C1980 1.391 . S
C1982 C1983 1.400 . S
C1983 C1982 1.400 . S
C1983 C1984 1.398 . S
C1983 C1989 1.491 . S
C1984 H1975 0.950 . S
C1984 C1983 1.398 . S
C1984 C1985 1.391 . S
C1985 H1973 0.950 . S
C1985 C1981 1.393 . S
C1985 C1984 1.391 . S
C1986 H1976 0.950 . S
C1986 C1987 1.386 . S
C1986 C1988 1.391 . S
C1987 C1986 1.386 . S
C1987 C1991 1.393 . S
C1988 H1977 0.950 . S
C1988 C1986 1.391 . S
C1988 C1989 1.400 . S
C1989 C1983 1.491 . S
C1989 C1988 1.400 . S
C1989 C1990 1.398 . S
C1990 H1978 0.950 . S
C1990 C1989 1.398 . S
C1990 C1991 1.391 . S
C1991 H1979 0.950 . S
C1991 C1987 1.393 . S
C1991 C1990 1.391 . S
H1992 C2000 0.950 . S
H1993 C2005 0.926 1_556 S
H1994 C2002 0.950 . S
H1995 C2004 0.950 . S
H1996 C2006 0.950 . S
H1997 C2008 0.950 . S
H1998 C2010 0.950 . S
H1999 C2011 0.926 1_554 S
C2000 H1992 0.950 . S
C2000 C2001 1.386 . S
C2000 C2002 1.391 . S
C2001 C2000 1.386 . S
C2001 C2005 1.393 . S
C2002 H1994 0.950 . S
C2002 C2000 1.391 . S
C2002 C2003 1.400 . S
C2003 C2002 1.400 . S
C2003 C2004 1.398 1_554 S
C2003 C2009 1.491 1_554 S
C2004 H1995 0.950 . S
C2004 C2003 1.398 1_556 S
C2004 C2005 1.391 1_556 S
C2005 H1993 0.926 1_554 S
C2005 C2001 1.393 . S
C2005 C2004 1.391 1_554 S
C2006 H1996 0.950 . S
C2006 C2007 1.386 . S
C2006 C2008 1.391 . S
C2007 C2006 1.386 . S
C2007 C2011 1.393 . S
C2008 H1997 0.950 . S
C2008 C2006 1.391 . S
C2008 C2009 1.400 . S
C2009 C2003 1.491 1_556 S
C2009 C2008 1.400 . S
C2009 C2010 1.398 1_556 S
C2010 H1998 0.950 . S
C2010 C2009 1.398 1_554 S
C2010 C2011 1.391 1_554 S
C2011 H1999 0.926 1_556 S
C2011 C2007 1.393 . S
C2011 C2010 1.391 1_556 S
H2012 C2020 0.950 . S
H2013 C2025 0.950 . S
H2014 C2022 0.950 . S
H2015 C2024 0.950 . S
H2016 C2026 0.950 . S
H2017 C2028 0.950 . S
H2018 C2030 0.950 . S
H2019 C2031 0.950 . S
C2020 H2012 0.950 . S
C2020 C2021 1.386 . S
C2020 C2022 1.391 . S
C2021 C2020 1.386 . S
C2021 C2025 1.393 . S
C2022 H2014 0.950 . S
C2022 C2020 1.391 . S
C2022 C2023 1.400 . S
C2023 C2022 1.400 . S
C2023 C2024 1.398 . S
C2023 C2029 1.491 . S
C2024 H2015 0.950 . S
C2024 C2023 1.398 . S
C2024 C2025 1.391 . S
C2025 H2013 0.950 . S
C2025 C2021 1.393 . S
C2025 C2024 1.391 . S
C2026 H2016 0.950 . S
C2026 C2027 1.386 . S
C2026 C2028 1.391 . S
C2027 C2026 1.386 . S
C2027 C2031 1.393 . S
C2028 H2017 0.950 . S
C2028 C2026 1.391 . S
C2028 C2029 1.400 . S
C2029 C2023 1.491 . S
C2029 C2028 1.400 . S
C2029 C2030 1.398 . S
C2030 H2018 0.950 . S
C2030 C2029 1.398 . S
C2030 C2031 1.391 . S
C2031 H2019 0.950 . S
C2031 C2027 1.393 . S
C2031 C2030 1.391 . S
H2032 C2040 0.950 . S
H2033 C2045 0.950 . S
H2034 C2042 0.950 . S
H2035 C2044 0.950 . S
H2036 C2046 0.950 . S
H2037 C2048 0.950 . S
H2038 C2050 0.950 . S
H2039 C2051 0.950 . S
C2040 H2032 0.950 . S
C2040 C2041 1.386 . S
C2040 C2042 1.391 . S
C2041 C2040 1.386 . S
C2041 C2045 1.393 . S
C2042 H2034 0.950 . S
C2042 C2040 1.391 . S
C2042 C2043 1.400 . S
C2043 C2042 1.400 . S
C2043 C2044 1.398 . S
C2043 C2049 1.491 . S
C2044 H2035 0.950 . S
C2044 C2043 1.398 . S
C2044 C2045 1.391 . S
C2045 H2033 0.950 . S
C2045 C2041 1.393 . S
C2045 C2044 1.391 . S
C2046 H2036 0.950 . S
C2046 C2047 1.386 . S
C2046 C2048 1.391 . S
C2047 C2046 1.386 . S
C2047 C2051 1.393 . S
C2048 H2037 0.950 . S
C2048 C2046 1.391 . S
C2048 C2049 1.400 . S
C2049 C2043 1.491 . S
C2049 C2048 1.400 . S
C2049 C2050 1.398 . S
C2050 H2038 0.950 . S
C2050 C2049 1.398 . S
C2050 C2051 1.391 . S
C2051 H2039 0.950 . S
C2051 C2047 1.393 . S
C2051 C2050 1.391 . S
H2052 C2060 0.950 . S
H2053 C2065 0.950 . S
H2054 C2062 0.950 . S
H2055 C2064 0.950 . S
H2056 C2066 0.950 . S
H2057 C2068 0.950 . S
H2058 C2070 0.950 . S
H2059 C2071 0.950 . S
C2060 H2052 0.950 . S
C2060 C2061 1.386 . S
C2060 C2062 1.391 . S
C2061 C2060 1.386 . S
C2061 C2065 1.393 . S
C2062 H2054 0.950 . S
C2062 C2060 1.391 . S
C2062 C2063 1.400 . S
C2063 C2062 1.400 . S
C2063 C2064 1.398 . S
C2063 C2069 1.491 . S
C2064 H2055 0.950 . S
C2064 C2063 1.398 . S
C2064 C2065 1.391 . S
C2065 H2053 0.950 . S
C2065 C2061 1.393 . S
C2065 C2064 1.391 . S
C2066 H2056 0.950 . S
C2066 C2067 1.386 . S
C2066 C2068 1.391 . S
C2067 C2066 1.386 . S
C2067 C2071 1.393 . S
C2068 H2057 0.950 . S
C2068 C2066 1.391 . S
C2068 C2069 1.400 . S
C2069 C2063 1.491 . S
C2069 C2068 1.400 . S
C2069 C2070 1.398 . S
C2070 H2058 0.950 . S
C2070 C2069 1.398 . S
C2070 C2071 1.391 . S
C2071 H2059 0.950 . S
C2071 C2067 1.393 . S
C2071 C2070 1.391 . S
H2072 C2080 0.950 . S
H2073 C2085 0.947 . S
H2074 C2082 0.950 . S
H2075 C2084 0.950 . S
H2076 C2086 0.950 . S
H2077 C2088 0.950 . S
H2078 C2090 0.950 . S
H2079 C2091 0.947 . S
C2080 H2072 0.950 . S
C2080 C2081 1.386 . S
C2080 C2082 1.391 . S
C2081 C2080 1.386 . S
C2081 C2085 1.393 . S
C2082 H2074 0.950 . S
C2082 C2080 1.391 . S
C2082 C2083 1.400 . S
C2083 C2082 1.400 . S
C2083 C2084 1.398 1_556 S
C2083 C2089 1.491 1_556 S
C2084 H2075 0.950 . S
C2084 C2083 1.398 1_554 S
C2084 C2085 1.391 1_554 S
C2085 H2073 0.947 . S
C2085 C2081 1.393 . S
C2085 C2084 1.391 1_556 S
C2086 H2076 0.950 . S
C2086 C2087 1.386 . S
C2086 C2088 1.391 . S
C2087 C2086 1.386 . S
C2087 C2091 1.393 . S
C2088 H2077 0.950 . S
C2088 C2086 1.391 . S
C2088 C2089 1.400 . S
C2089 C2083 1.491 1_554 S
C2089 C2088 1.400 . S
C2089 C2090 1.398 1_554 S
C2090 H2078 0.950 . S
C2090 C2089 1.398 1_556 S
C2090 C2091 1.391 1_556 S
C2091 H2079 0.947 . S
C2091 C2087 1.393 . S
C2091 C2090 1.391 1_554 S
H2092 C2100 0.950 . S
H2093 C2105 0.950 . S
H2094 C2102 0.950 . S
H2095 C2104 0.950 . S
H2096 C2106 0.950 . S
H2097 C2108 0.950 . S
H2098 C2110 0.950 . S
H2099 C2111 0.950 . S
C2100 H2092 0.950 . S
C2100 C2101 1.386 . S
C2100 C2102 1.391 . S
C2101 C2100 1.386 . S
C2101 C2105 1.393 . S
C2102 H2094 0.950 . S
C2102 C2100 1.391 . S
C2102 C2103 1.400 . S
C2103 C2102 1.400 . S
C2103 C2104 1.398 . S
C2103 C2109 1.491 . S
C2104 H2095 0.950 . S
C2104 C2103 1.398 . S
C2104 C2105 1.391 . S
C2105 H2093 0.950 . S
C2105 C2101 1.393 . S
C2105 C2104 1.391 . S
C2106 H2096 0.950 . S
C2106 C2107 1.386 . S
C2106 C2108 1.391 . S
C2107 C2106 1.386 . S
C2107 C2111 1.393 . S
C2108 H2097 0.950 . S
C2108 C2106 1.391 . S
C2108 C2109 1.400 . S
C2109 C2103 1.491 . S
C2109 C2108 1.400 . S
C2109 C2110 1.398 . S
C2110 H2098 0.950 . S
C2110 C2109 1.398 . S
C2110 C2111 1.391 . S
C2111 H2099 0.950 . S
C2111 C2107 1.393 . S
C2111 C2110 1.391 . S
H2112 C2120 0.950 . S
H2113 C2125 0.950 . S
H2114 C2122 0.950 . S
H2115 C2124 0.950 . S
H2116 C2126 0.950 . S
H2117 C2128 0.950 . S
H2118 C2130 0.950 . S
H2119 C2131 0.950 . S
C2120 H2112 0.950 . S
C2120 C2121 1.386 . S
C2120 C2122 1.391 . S
C2121 C2120 1.386 . S
C2121 C2125 1.393 . S
C2122 H2114 0.950 . S
C2122 C2120 1.391 . S
C2122 C2123 1.400 . S
C2123 C2122 1.400 . S
C2123 C2124 1.398 . S
C2123 C2129 1.491 . S
C2124 H2115 0.950 . S
C2124 C2123 1.398 . S
C2124 C2125 1.391 . S
C2125 H2113 0.950 . S
C2125 C2121 1.393 . S
C2125 C2124 1.391 . S
C2126 H2116 0.950 . S
C2126 C2127 1.386 . S
C2126 C2128 1.391 . S
C2127 C2126 1.386 . S
C2127 C2131 1.393 . S
C2128 H2117 0.950 . S
C2128 C2126 1.391 . S
C2128 C2129 1.400 . S
C2129 C2123 1.491 . S
C2129 C2128 1.400 . S
C2129 C2130 1.398 . S
C2130 H2118 0.950 . S
C2130 C2129 1.398 . S
C2130 C2131 1.391 . S
C2131 H2119 0.950 . S
C2131 C2127 1.393 . S
C2131 C2130 1.391 . S
H2132 C2140 0.950 . S
H2133 C2145 0.950 . S
H2134 C2142 0.950 . S
H2135 C2144 0.950 . S
H2136 C2146 0.950 . S
H2137 C2148 0.950 . S
H2138 C2150 0.950 . S
H2139 C2151 0.950 . S
C2140 H2132 0.950 . S
C2140 C2141 1.386 . S
C2140 C2142 1.391 . S
C2141 C2140 1.386 . S
C2141 C2145 1.393 . S
C2142 H2134 0.950 . S
C2142 C2140 1.391 . S
C2142 C2143 1.400 . S
C2143 C2142 1.400 . S
C2143 C2144 1.398 . S
C2143 C2149 1.491 . S
C2144 H2135 0.950 . S
C2144 C2143 1.398 . S
C2144 C2145 1.391 . S
C2145 H2133 0.950 . S
C2145 C2141 1.393 . S
C2145 C2144 1.391 . S
C2146 H2136 0.950 . S
C2146 C2147 1.386 . S
C2146 C2148 1.391 . S
C2147 C2146 1.386 . S
C2147 C2151 1.393 . S
C2148 H2137 0.950 . S
C2148 C2146 1.391 . S
C2148 C2149 1.400 . S
C2149 C2143 1.491 . S
C2149 C2148 1.400 . S
C2149 C2150 1.398 . S
C2150 H2138 0.950 . S
C2150 C2149 1.398 . S
C2150 C2151 1.391 . S
C2151 H2139 0.950 . S
C2151 C2147 1.393 . S
C2151 C2150 1.391 . S
H2152 C2160 0.950 . S
H2153 C2165 0.950 . S
H2154 C2162 0.950 . S
H2155 C2164 0.950 . S
H2156 C2166 0.950 . S
H2157 C2168 0.950 . S
H2158 C2170 0.950 . S
H2159 C2171 0.950 . S
C2160 H2152 0.950 . S
C2160 C2161 1.386 . S
C2160 C2162 1.391 . S
C2161 C2160 1.386 . S
C2161 C2165 1.393 . S
C2162 H2154 0.950 . S
C2162 C2160 1.391 . S
C2162 C2163 1.400 . S
C2163 C2162 1.400 . S
C2163 C2164 1.398 . S
C2163 C2169 1.491 . S
C2164 H2155 0.950 . S
C2164 C2163 1.398 . S
C2164 C2165 1.391 . S
C2165 H2153 0.950 . S
C2165 C2161 1.393 . S
C2165 C2164 1.391 . S
C2166 H2156 0.950 . S
C2166 C2167 1.386 . S
C2166 C2168 1.391 . S
C2167 C2166 1.386 . S
C2167 C2171 1.393 . S
C2168 H2157 0.950 . S
C2168 C2166 1.391 . S
C2168 C2169 1.400 . S
C2169 C2163 1.491 . S
C2169 C2168 1.400 . S
C2169 C2170 1.398 . S
C2170 H2158 0.950 . S
C2170 C2169 1.398 . S
C2170 C2171 1.391 . S
C2171 H2159 0.950 . S
C2171 C2167 1.393 . S
C2171 C2170 1.391 . S
H2172 C2180 0.950 . S
H2173 C2185 0.950 . S
H2174 C2182 0.950 . S
H2175 C2184 0.950 . S
H2176 C2186 0.950 . S
H2177 C2188 0.950 . S
H2178 C2190 0.950 . S
H2179 C2191 0.950 . S
C2180 H2172 0.950 . S
C2180 C2181 1.386 . S
C2180 C2182 1.391 . S
C2181 C2180 1.386 . S
C2181 C2185 1.393 . S
C2182 H2174 0.950 . S
C2182 C2180 1.391 . S
C2182 C2183 1.400 . S
C2183 C2182 1.400 . S
C2183 C2184 1.398 . S
C2183 C2189 1.491 . S
C2184 H2175 0.950 . S
C2184 C2183 1.398 . S
C2184 C2185 1.391 . S
C2185 H2173 0.950 . S
C2185 C2181 1.393 . S
C2185 C2184 1.391 . S
C2186 H2176 0.950 . S
C2186 C2187 1.386 . S
C2186 C2188 1.391 . S
C2187 C2186 1.386 . S
C2187 C2191 1.393 . S
C2188 H2177 0.950 . S
C2188 C2186 1.391 . S
C2188 C2189 1.400 . S
C2189 C2183 1.491 . S
C2189 C2188 1.400 . S
C2189 C2190 1.398 . S
C2190 H2178 0.950 . S
C2190 C2189 1.398 . S
C2190 C2191 1.391 . S
C2191 H2179 0.950 . S
C2191 C2187 1.393 . S
C2191 C2190 1.391 . S
H2192 C2200 0.950 . S
H2193 C2205 0.950 . S
H2194 C2202 0.950 . S
H2195 C2204 0.950 . S
H2196 C2206 0.950 . S
H2197 C2208 0.950 . S
H2198 C2210 0.950 . S
H2199 C2211 0.950 . S
C2200 H2192 0.950 . S
C2200 C2201 1.386 . S
C2200 C2202 1.391 . S
C2201 C2200 1.386 . S
C2201 C2205 1.393 . S
C2202 H2194 0.950 . S
C2202 C2200 1.391 . S
C2202 C2203 1.400 . S
C2203 C2202 1.400 . S
C2203 C2204 1.398 . S
C2203 C2209 1.491 . S
C2204 H2195 0.950 . S
C2204 C2203 1.398 . S
C2204 C2205 1.391 . S
C2205 H2193 0.950 . S
C2205 C2201 1.393 . S
C2205 C2204 1.391 . S
C2206 H2196 0.950 . S
C2206 C2207 1.386 . S
C2206 C2208 1.391 . S
C2207 C2206 1.386 . S
C2207 C2211 1.393 . S
C2208 H2197 0.950 . S
C2208 C2206 1.391 . S
C2208 C2209 1.400 . S
C2209 C2203 1.491 . S
C2209 C2208 1.400 . S
C2209 C2210 1.398 . S
C2210 H2198 0.950 . S
C2210 C2209 1.398 . S
C2210 C2211 1.391 . S
C2211 H2199 0.950 . S
C2211 C2207 1.393 . S
C2211 C2210 1.391 . S
H2212 C2220 0.950 . S
H2213 C2225 0.950 . S
H2214 C2222 0.950 . S
H2215 C2224 0.950 . S
H2216 C2226 0.950 . S
H2217 C2228 0.950 . S
H2218 C2230 0.950 . S
H2219 C2231 0.950 . S
C2220 H2212 0.950 . S
C2220 C2221 1.386 . S
C2220 C2222 1.391 . S
C2221 C2220 1.386 . S
C2221 C2225 1.393 . S
C2222 H2214 0.950 . S
C2222 C2220 1.391 . S
C2222 C2223 1.400 . S
C2223 C2222 1.400 . S
C2223 C2224 1.398 . S
C2223 C2229 1.491 . S
C2224 H2215 0.950 . S
C2224 C2223 1.398 . S
C2224 C2225 1.391 . S
C2225 H2213 0.950 . S
C2225 C2221 1.393 . S
C2225 C2224 1.391 . S
C2226 H2216 0.950 . S
C2226 C2227 1.386 . S
C2226 C2228 1.391 . S
C2227 C2226 1.386 . S
C2227 C2231 1.393 . S
C2228 H2217 0.950 . S
C2228 C2226 1.391 . S
C2228 C2229 1.400 . S
C2229 C2223 1.491 . S
C2229 C2228 1.400 . S
C2229 C2230 1.398 . S
C2230 H2218 0.950 . S
C2230 C2229 1.398 . S
C2230 C2231 1.391 . S
C2231 H2219 0.950 . S
C2231 C2227 1.393 . S
C2231 C2230 1.391 . S
H2232 C2240 0.950 . S
H2233 C2245 0.950 . S
H2234 C2242 0.950 . S
H2235 C2244 0.950 . S
H2236 C2246 0.950 . S
H2237 C2248 0.950 . S
H2238 C2250 0.950 . S
H2239 C2251 0.950 . S
C2240 H2232 0.950 . S
C2240 C2241 1.386 . S
C2240 C2242 1.391 . S
C2241 C2240 1.386 . S
C2241 C2245 1.393 . S
C2242 H2234 0.950 . S
C2242 C2240 1.391 . S
C2242 C2243 1.400 . S
C2243 C2242 1.400 . S
C2243 C2244 1.398 . S
C2243 C2249 1.491 . S
C2244 H2235 0.950 . S
C2244 C2243 1.398 . S
C2244 C2245 1.391 . S
C2245 H2233 0.950 . S
C2245 C2241 1.393 . S
C2245 C2244 1.391 . S
C2246 H2236 0.950 . S
C2246 C2247 1.386 . S
C2246 C2248 1.391 . S
C2247 C2246 1.386 . S
C2247 C2251 1.393 . S
C2248 H2237 0.950 . S
C2248 C2246 1.391 . S
C2248 C2249 1.400 . S
C2249 C2243 1.491 . S
C2249 C2248 1.400 . S
C2249 C2250 1.398 . S
C2250 H2238 0.950 . S
C2250 C2249 1.398 . S
C2250 C2251 1.391 . S
C2251 H2239 0.950 . S
C2251 C2247 1.393 . S
C2251 C2250 1.391 . S
H2252 C2260 0.950 . S
H2253 C2265 0.950 . S
H2254 C2262 0.950 . S
H2255 C2264 0.950 . S
H2256 C2266 0.950 . S
H2257 C2268 0.950 . S
H2258 C2270 0.950 . S
H2259 C2271 0.950 . S
C2260 H2252 0.950 . S
C2260 C2261 1.386 . S
C2260 C2262 1.391 . S
C2261 C2260 1.386 . S
C2261 C2265 1.393 . S
C2262 H2254 0.950 . S
C2262 C2260 1.391 . S
C2262 C2263 1.400 . S
C2263 C2262 1.400 . S
C2263 C2264 1.398 . S
C2263 C2269 1.491 . S
C2264 H2255 0.950 . S
C2264 C2263 1.398 . S
C2264 C2265 1.391 . S
C2265 H2253 0.950 . S
C2265 C2261 1.393 . S
C2265 C2264 1.391 . S
C2266 H2256 0.950 . S
C2266 C2267 1.386 . S
C2266 C2268 1.391 . S
C2267 C2266 1.386 . S
C2267 C2271 1.393 . S
C2268 H2257 0.950 . S
C2268 C2266 1.391 . S
C2268 C2269 1.400 . S
C2269 C2263 1.491 . S
C2269 C2268 1.400 . S
C2269 C2270 1.398 . S
C2270 H2258 0.950 . S
C2270 C2269 1.398 . S
C2270 C2271 1.391 . S
C2271 H2259 0.950 . S
C2271 C2267 1.393 . S
C2271 C2270 1.391 . S
H2272 C2280 0.950 . S
H2273 C2285 0.950 . S
H2274 C2282 0.950 . S
H2275 C2284 0.950 . S
H2276 C2286 0.950 . S
H2277 C2288 0.950 . S
H2278 C2290 0.950 . S
H2279 C2291 0.950 . S
C2280 H2272 0.950 . S
C2280 C2281 1.386 . S
C2280 C2282 1.391 . S
C2281 C2280 1.386 . S
C2281 C2285 1.393 . S
C2282 H2274 0.950 . S
C2282 C2280 1.391 . S
C2282 C2283 1.400 . S
C2283 C2282 1.400 . S
C2283 C2284 1.398 . S
C2283 C2289 1.491 . S
C2284 H2275 0.950 . S
C2284 C2283 1.398 . S
C2284 C2285 1.391 . S
C2285 H2273 0.950 . S
C2285 C2281 1.393 . S
C2285 C2284 1.391 . S
C2286 H2276 0.950 . S
C2286 C2287 1.386 . S
C2286 C2288 1.391 . S
C2287 C2286 1.386 . S
C2287 C2291 1.393 . S
C2288 H2277 0.950 . S
C2288 C2286 1.391 . S
C2288 C2289 1.400 . S
C2289 C2283 1.491 . S
C2289 C2288 1.400 . S
C2289 C2290 1.398 . S
C2290 H2278 0.950 . S
C2290 C2289 1.398 . S
C2290 C2291 1.391 . S
C2291 H2279 0.950 . S
C2291 C2287 1.393 . S
C2291 C2290 1.391 . S
H2292 C2300 0.950 . S
H2293 C2305 0.950 . S
H2294 C2302 0.950 . S
H2295 C2304 0.950 . S
H2296 C2306 0.950 . S
H2297 C2308 0.950 . S
H2298 C2310 0.950 . S
H2299 C2311 0.950 . S
C2300 H2292 0.950 . S
C2300 C2301 1.386 . S
C2300 C2302 1.391 . S
C2301 C2300 1.386 . S
C2301 C2305 1.393 . S
C2302 H2294 0.950 . S
C2302 C2300 1.391 . S
C2302 C2303 1.400 . S
C2303 C2302 1.400 . S
C2303 C2304 1.398 . S
C2303 C2309 1.491 . S
C2304 H2295 0.950 . S
C2304 C2303 1.398 . S
C2304 C2305 1.391 . S
C2305 H2293 0.950 . S
C2305 C2301 1.393 . S
C2305 C2304 1.391 . S
C2306 H2296 0.950 . S
C2306 C2307 1.386 . S
C2306 C2308 1.391 . S
C2307 C2306 1.386 . S
C2307 C2311 1.393 . S
C2308 H2297 0.950 . S
C2308 C2306 1.391 . S
C2308 C2309 1.400 . S
C2309 C2303 1.491 . S
C2309 C2308 1.400 . S
C2309 C2310 1.398 . S
C2310 H2298 0.950 . S
C2310 C2309 1.398 . S
C2310 C2311 1.391 . S
C2311 H2299 0.950 . S
C2311 C2307 1.393 . S
C2311 C2310 1.391 . S
H2312 C2320 0.950 . S
H2313 C2325 0.950 . S
H2314 C2322 0.950 . S
H2315 C2324 0.950 . S
H2316 C2326 0.950 . S
H2317 C2328 0.950 . S
H2318 C2330 0.950 . S
H2319 C2331 0.950 . S
C2320 H2312 0.950 . S
C2320 C2321 1.386 . S
C2320 C2322 1.391 . S
C2321 C2320 1.386 . S
C2321 C2325 1.393 . S
C2322 H2314 0.950 . S
C2322 C2320 1.391 . S
C2322 C2323 1.400 . S
C2323 C2322 1.400 . S
C2323 C2324 1.398 . S
C2323 C2329 1.491 . S
C2324 H2315 0.950 . S
C2324 C2323 1.398 . S
C2324 C2325 1.391 . S
C2325 H2313 0.950 . S
C2325 C2321 1.393 . S
C2325 C2324 1.391 . S
C2326 H2316 0.950 . S
C2326 C2327 1.386 . S
C2326 C2328 1.391 . S
C2327 C2326 1.386 . S
C2327 C2331 1.393 . S
C2328 H2317 0.950 . S
C2328 C2326 1.391 . S
C2328 C2329 1.400 . S
C2329 C2323 1.491 . S
C2329 C2328 1.400 . S
C2329 C2330 1.398 . S
C2330 H2318 0.950 . S
C2330 C2329 1.398 . S
C2330 C2331 1.391 . S
C2331 H2319 0.950 . S
C2331 C2327 1.393 . S
C2331 C2330 1.391 . S
H2332 C2340 0.950 . S
H2333 C2345 0.950 . S
H2334 C2342 0.950 . S
H2335 C2344 0.950 . S
H2336 C2346 0.950 . S
H2337 C2348 0.950 . S
H2338 C2350 0.950 . S
H2339 C2351 0.950 . S
C2340 H2332 0.950 . S
C2340 C2341 1.386 . S
C2340 C2342 1.391 . S
C2341 C2340 1.386 . S
C2341 C2345 1.393 . S
C2342 H2334 0.950 . S
C2342 C2340 1.391 . S
C2342 C2343 1.400 . S
C2343 C2342 1.400 . S
C2343 C2344 1.398 . S
C2343 C2349 1.491 . S
C2344 H2335 0.950 . S
C2344 C2343 1.398 . S
C2344 C2345 1.391 . S
C2345 H2333 0.950 . S
C2345 C2341 1.393 . S
C2345 C2344 1.391 . S
C2346 H2336 0.950 . S
C2346 C2347 1.386 . S
C2346 C2348 1.391 . S
C2347 C2346 1.386 . S
C2347 C2351 1.393 . S
C2348 H2337 0.950 . S
C2348 C2346 1.391 . S
C2348 C2349 1.400 . S
C2349 C2343 1.491 . S
C2349 C2348 1.400 . S
C2349 C2350 1.398 . S
C2350 H2338 0.950 . S
C2350 C2349 1.398 . S
C2350 C2351 1.391 . S
C2351 H2339 0.950 . S
C2351 C2347 1.393 . S
C2351 C2350 1.391 . S
H2352 C2360 0.950 . S
H2353 C2365 0.950 . S
H2354 C2362 0.950 . S
H2355 C2364 0.950 . S
H2356 C2366 0.950 . S
H2357 C2368 0.950 . S
H2358 C2370 0.950 . S
H2359 C2371 0.950 . S
C2360 H2352 0.950 . S
C2360 C2361 1.386 . S
C2360 C2362 1.391 . S
C2361 C2360 1.386 . S
C2361 C2365 1.393 . S
C2362 H2354 0.950 . S
C2362 C2360 1.391 . S
C2362 C2363 1.400 . S
C2363 C2362 1.400 . S
C2363 C2364 1.398 . S
C2363 C2369 1.491 . S
C2364 H2355 0.950 . S
C2364 C2363 1.398 . S
C2364 C2365 1.391 . S
C2365 H2353 0.950 . S
C2365 C2361 1.393 . S
C2365 C2364 1.391 . S
C2366 H2356 0.950 . S
C2366 C2367 1.386 . S
C2366 C2368 1.391 . S
C2367 C2366 1.386 . S
C2367 C2371 1.393 . S
C2368 H2357 0.950 . S
C2368 C2366 1.391 . S
C2368 C2369 1.400 . S
C2369 C2363 1.491 . S
C2369 C2368 1.400 . S
C2369 C2370 1.398 . S
C2370 H2358 0.950 . S
C2370 C2369 1.398 . S
C2370 C2371 1.391 . S
C2371 H2359 0.950 . S
C2371 C2367 1.393 . S
C2371 C2370 1.391 . S
H2372 C2380 0.950 . S
H2373 C2385 0.950 . S
H2374 C2382 0.950 . S
H2375 C2384 0.950 . S
H2376 C2386 0.950 . S
H2377 C2388 0.950 . S
H2378 C2390 0.950 . S
H2379 C2391 0.950 . S
C2380 H2372 0.950 . S
C2380 C2381 1.386 . S
C2380 C2382 1.391 . S
C2381 C2380 1.386 . S
C2381 C2385 1.393 . S
C2382 H2374 0.950 . S
C2382 C2380 1.391 . S
C2382 C2383 1.400 . S
C2383 C2382 1.400 . S
C2383 C2384 1.398 . S
C2383 C2389 1.491 . S
C2384 H2375 0.950 . S
C2384 C2383 1.398 . S
C2384 C2385 1.391 . S
C2385 H2373 0.950 . S
C2385 C2381 1.393 . S
C2385 C2384 1.391 . S
C2386 H2376 0.950 . S
C2386 C2387 1.386 . S
C2386 C2388 1.391 . S
C2387 C2386 1.386 . S
C2387 C2391 1.393 . S
C2388 H2377 0.950 . S
C2388 C2386 1.391 . S
C2388 C2389 1.400 . S
C2389 C2383 1.491 . S
C2389 C2388 1.400 . S
C2389 C2390 1.398 . S
C2390 H2378 0.950 . S
C2390 C2389 1.398 . S
C2390 C2391 1.391 . S
C2391 H2379 0.950 . S
C2391 C2387 1.393 . S
C2391 C2390 1.391 . S
H2392 C2400 0.950 . S
H2393 C2405 0.950 . S
H2394 C2402 0.950 . S
H2395 C2404 0.950 . S
H2396 C2406 0.950 . S
H2397 C2408 0.950 . S
H2398 C2410 0.950 . S
H2399 C2411 0.950 . S
C2400 H2392 0.950 . S
C2400 C2401 1.386 . S
C2400 C2402 1.391 . S
C2401 C2400 1.386 . S
C2401 C2405 1.393 . S
C2402 H2394 0.950 . S
C2402 C2400 1.391 . S
C2402 C2403 1.400 . S
C2403 C2402 1.400 . S
C2403 C2404 1.398 . S
C2403 C2409 1.491 . S
C2404 H2395 0.950 . S
C2404 C2403 1.398 . S
C2404 C2405 1.391 . S
C2405 H2393 0.950 . S
C2405 C2401 1.393 . S
C2405 C2404 1.391 . S
C2406 H2396 0.950 . S
C2406 C2407 1.386 . S
C2406 C2408 1.391 . S
C2407 C2406 1.386 . S
C2407 C2411 1.393 . S
C2408 H2397 0.950 . S
C2408 C2406 1.391 . S
C2408 C2409 1.400 . S
C2409 C2403 1.491 . S
C2409 C2408 1.400 . S
C2409 C2410 1.398 . S
C2410 H2398 0.950 . S
C2410 C2409 1.398 . S
C2410 C2411 1.391 . S
C2411 H2399 0.950 . S
C2411 C2407 1.393 . S
C2411 C2410 1.391 . S
H2412 C2420 0.950 . S
H2413 C2425 0.950 . S
H2414 C2422 0.950 . S
H2415 C2424 0.950 . S
H2416 C2426 0.950 . S
H2417 C2428 0.950 . S
H2418 C2430 0.950 . S
H2419 C2431 0.950 . S
C2420 H2412 0.950 . S
C2420 C2421 1.386 . S
C2420 C2422 1.391 . S
C2421 C2420 1.386 . S
C2421 C2425 1.393 . S
C2422 H2414 0.950 . S
C2422 C2420 1.391 . S
C2422 C2423 1.400 . S
C2423 C2422 1.400 . S
C2423 C2424 1.398 . S
C2423 C2429 1.491 . S
C2424 H2415 0.950 . S
C2424 C2423 1.398 . S
C2424 C2425 1.391 . S
C2425 H2413 0.950 . S
C2425 C2421 1.393 . S
C2425 C2424 1.391 . S
C2426 H2416 0.950 . S
C2426 C2427 1.386 . S
C2426 C2428 1.391 . S
C2427 C2426 1.386 . S
C2427 C2431 1.393 . S
C2428 H2417 0.950 . S
C2428 C2426 1.391 . S
C2428 C2429 1.400 . S
C2429 C2423 1.491 . S
C2429 C2428 1.400 . S
C2429 C2430 1.398 . S
C2430 H2418 0.950 . S
C2430 C2429 1.398 . S
C2430 C2431 1.391 . S
C2431 H2419 0.950 . S
C2431 C2427 1.393 . S
C2431 C2430 1.391 . S
C1161 C292 1.331 . S
C1167 C4 1.331 . S
C1181 C904 1.334 . S
C1187 C40 1.334 . S
C1201 C364 1.329 . S
C1207 C76 1.329 . S
C1221 C976 1.337 . S
C1227 C112 1.337 . S
C1241 C436 1.334 . S
C1247 C148 1.334 . S
C1261 C184 1.334 . S
C1267 C1048 1.334 . S
C1281 C220 1.337 . S
C1287 C508 1.337 . S
C1301 C256 1.334 . S
C1307 C1120 1.334 . S
C1321 C616 1.331 . S
C1327 C328 1.331 . S
C1341 C688 1.331 . S
C1347 C400 1.331 . S
C1361 C472 1.326 . S
C1367 C760 1.326 . S
C1381 C544 1.338 . S
C1387 C832 1.338 . S
C1401 C580 1.326 . S
C1407 C868 1.326 . S
C1421 C940 1.338 . S
C1427 C652 1.338 . S
C1441 C724 1.338 . S
C1447 C1012 1.338 . S
C1461 C1084 1.337 . S
C1467 C796 1.337 . S
C1481 C650 1.494 . S
C1487 C2 1.495 . S
C1501 C686 1.505 . S
C1507 C38 1.501 . S
C1521 C74 1.493 . S
C1527 C578 1.498 . S
C1541 C110 1.503 . S
C1547 C614 1.504 . S
C1561 C794 1.501 . S
C1567 C146 1.493 . S
C1581 C182 1.493 . S
C1587 C830 1.499 . S
C1601 C722 1.501 . S
C1607 C218 1.493 . S
C1621 C758 1.503 . S
C1627 C254 1.504 . S
C1641 C290 1.500 . S
C1647 C938 1.493 . S
C1661 C974 1.496 . S
C1667 C326 1.494 . S
C1681 C362 1.500 . S
C1687 C866 1.493 . S
C1701 C398 1.505 . S
C1707 C902 1.496 . S
C1721 C434 1.499 . S
C1727 C1082 1.505 . S
C1741 C470 1.501 . S
C1747 C1118 1.493 . S
C1761 C1010 1.505 . S
C1767 C506 1.500 . S
C1781 C1046 1.504 . S
C1787 C542 1.503 . S
C1801 C230 1.581 . S
C1807 C14 1.580 . S
C1821 C266 1.575 . S
C1827 C50 1.578 . S
C1841 C158 1.569 . S
C1847 C86 1.572 . S
C1861 C122 1.573 . S
C1867 C194 1.576 . S
C1881 C518 1.578 . S
C1887 C302 1.580 . S
C1901 C554 1.559 . S
C1907 C338 1.562 . S
C1921 C446 1.563 . S
C1927 C374 1.566 . S
C1941 C482 1.577 . S
C1947 C410 1.574 . S
C1961 C806 1.576 . S
C1967 C590 1.573 . S
C1981 C842 1.556 . S
C1987 C626 1.556 . S
C2001 C662 1.563 . S
C2007 C734 1.566 . S
C2021 C698 1.579 . S
C2027 C770 1.576 . S
C2041 C1094 1.580 . S
C2047 C878 1.578 . S
C2061 C1130 1.578 . S
C2067 C914 1.580 . S
C2081 C950 1.564 . S
C2087 C1022 1.561 . S
C2101 C986 1.556 . S
C2107 C1058 1.556 . S
C2121 C3 1.456 . S
C2127 C759 1.459 . S
C2141 C795 1.457 . S
C2147 C39 1.453 . S
C2161 C831 1.453 . S
C2167 C75 1.453 . S
C2181 C111 1.453 . S
C2187 C723 1.454 . S
C2201 C687 1.458 . S
C2207 C147 1.454 . S
C2221 C183 1.455 . S
C2227 C579 1.453 . S
C2241 C615 1.458 . S
C2247 C219 1.458 . S
C2261 C255 1.459 . S
C2267 C651 1.456 . S
C2281 C1047 1.459 . S
C2287 C291 1.457 . S
C2301 C1083 1.453 . S
C2307 C327 1.454 . S
C2321 C363 1.458 . S
C2327 C1119 1.459 . S
C2341 C1011 1.457 . S
C2347 C399 1.454 . S
C2361 C975 1.454 . S
C2367 C435 1.457 . S
C2381 C471 1.458 . S
C2387 C867 1.456 . S
C2401 C903 1.457 . S
C2407 C507 1.454 . S
C2421 C543 1.455 . S
C2427 C939 1.453 . S
