# Generated by pormake.
# Topology cag, (4)-cn, num edge types: 1
# Building blocks:
#     Node 0, Type 0, BuildingBlock: NAHDIM_clean_sbu_0, # of connection points: 4
#     Node 1, Type 0, BuildingBlock: NAHDIM_clean_sbu_0, # of connection points: 4
#     Node 2, Type 0, BuildingBlock: NAHDIM_clean_sbu_0, # of connection points: 4
#     Node 3, Type 0, BuildingBlock: NAHDIM_clean_sbu_0, # of connection points: 4
#     Node 4, Type 0, BuildingBlock: NAHDIM_clean_sbu_0, # of connection points: 4
#     Node 5, Type 0, BuildingBlock: NAHDIM_clean_sbu_0, # of connection points: 4
#     Node 6, Type 0, BuildingBlock: NAHDIM_clean_sbu_0, # of connection points: 4
#     Node 7, Type 0, BuildingBlock: NAHDIM_clean_sbu_0, # of connection points: 4
#     Node 8, Type 0, BuildingBlock: NAHDIM_clean_sbu_0, # of connection points: 4
#     Node 9, Type 0, BuildingBlock: NAHDIM_clean_sbu_0, # of connection points: 4
#     Node 10, Type 0, BuildingBlock: NAHDIM_clean_sbu_0, # of connection points: 4
#     Node 11, Type 0, BuildingBlock: NAHDIM_clean_sbu_0, # of connection points: 4
#     Node 12, Type 0, BuildingBlock: NAHDIM_clean_sbu_0, # of connection points: 4
#     Node 13, Type 0, BuildingBlock: NAHDIM_clean_sbu_0, # of connection points: 4
#     Node 14, Type 0, BuildingBlock: NAHDIM_clean_sbu_0, # of connection points: 4
#     Node 15, Type 0, BuildingBlock: NAHDIM_clean_sbu_0, # of connection points: 4
#     Edge 16, Type (0, 0), BuildingBlock: TEMPAE_clean_linker_10, # of connection points: 2
#     Edge 17, Type (0, 0), BuildingBlock: TEMPAE_clean_linker_10, # of connection points: 2
#     Edge 18, Type (0, 0), BuildingBlock: TEMPAE_clean_linker_10, # of connection points: 2
#     Edge 19, Type (0, 0), BuildingBlock: TEMPAE_clean_linker_10, # of connection points: 2
#     Edge 20, Type (0, 0), BuildingBlock: TEMPAE_clean_linker_10, # of connection points: 2
#     Edge 21, Type (0, 0), BuildingBlock: TEMPAE_clean_linker_10, # of connection points: 2
#     Edge 22, Type (0, 0), BuildingBlock: TEMPAE_clean_linker_10, # of connection points: 2
#     Edge 23, Type (0, 0), BuildingBlock: TEMPAE_clean_linker_10, # of connection points: 2
#     Edge 24, Type (0, 0), BuildingBlock: TEMPAE_clean_linker_10, # of connection points: 2
#     Edge 25, Type (0, 0), BuildingBlock: TEMPAE_clean_linker_10, # of connection points: 2
#     Edge 26, Type (0, 0), BuildingBlock: TEMPAE_clean_linker_10, # of connection points: 2
#     Edge 27, Type (0, 0), BuildingBlock: TEMPAE_clean_linker_10, # of connection points: 2
#     Edge 28, Type (0, 0), BuildingBlock: TEMPAE_clean_linker_10, # of connection points: 2
#     Edge 29, Type (0, 0), BuildingBlock: TEMPAE_clean_linker_10, # of connection points: 2
#     Edge 30, Type (0, 0), BuildingBlock: TEMPAE_clean_linker_10, # of connection points: 2
#     Edge 31, Type (0, 0), BuildingBlock: TEMPAE_clean_linker_10, # of connection points: 2
#     Edge 32, Type (0, 0), BuildingBlock: TEMPAE_clean_linker_10, # of connection points: 2
#     Edge 33, Type (0, 0), BuildingBlock: TEMPAE_clean_linker_10, # of connection points: 2
#     Edge 34, Type (0, 0), BuildingBlock: TEMPAE_clean_linker_10, # of connection points: 2
#     Edge 35, Type (0, 0), BuildingBlock: TEMPAE_clean_linker_10, # of connection points: 2
#     Edge 36, Type (0, 0), BuildingBlock: TEMPAE_clean_linker_10, # of connection points: 2
#     Edge 37, Type (0, 0), BuildingBlock: TEMPAE_clean_linker_10, # of connection points: 2
#     Edge 38, Type (0, 0), BuildingBlock: TEMPAE_clean_linker_10, # of connection points: 2
#     Edge 39, Type (0, 0), BuildingBlock: TEMPAE_clean_linker_10, # of connection points: 2
#     Edge 40, Type (0, 0), BuildingBlock: TEMPAE_clean_linker_10, # of connection points: 2
#     Edge 41, Type (0, 0), BuildingBlock: TEMPAE_clean_linker_10, # of connection points: 2
#     Edge 42, Type (0, 0), BuildingBlock: TEMPAE_clean_linker_10, # of connection points: 2
#     Edge 43, Type (0, 0), BuildingBlock: TEMPAE_clean_linker_10, # of connection points: 2
#     Edge 44, Type (0, 0), BuildingBlock: TEMPAE_clean_linker_10, # of connection points: 2
#     Edge 45, Type (0, 0), BuildingBlock: TEMPAE_clean_linker_10, # of connection points: 2
#     Edge 46, Type (0, 0), BuildingBlock: TEMPAE_clean_linker_10, # of connection points: 2
#     Edge 47, Type (0, 0), BuildingBlock: TEMPAE_clean_linker_10, # of connection points: 2
# Relax obj value: 0.038
# Max RMSD: 0.071
# Mean RMSD: 0.071
data_MOF--net-cag--node1-NAHDIM_clean_sbu_0--edge1-TEMPAE_clean_linker_10
_symmetry_space_group_name_H-M    P1
_symmetry_Int_Tables_number       1
_symmetry_cell_setting            triclinic
loop_
_symmetry_equiv_pos_as_xyz
'x, y, z'
_cell_length_a     42.405953
_cell_length_b     50.992699
_cell_length_c     43.490014
_cell_angle_alpha  90.012556
_cell_angle_beta   89.982201
_cell_angle_gamma 89.945898
loop_
_atom_site_label
_atom_site_type_symbol
_atom_site_fract_x
_atom_site_fract_y
_atom_site_fract_z
_atom_type_partial_charge
C0 C 0.31061 0.18984 0.04055 0.0
O1 O 0.3348 0.17881 0.02676 0.0
O2 O 0.36956 0.15436 0.08308 0.0
Zn3 Zn 0.32255 0.14896 0.08409 0.0
O4 O 0.30892 0.14441 0.12806 0.0
C5 C 0.32779 0.09561 0.06662 0.0
O6 O 0.34792 0.09626 0.08958 0.0
O7 O 0.30078 0.18024 0.06574 0.0
C8 C 0.28899 0.12751 0.13713 0.0
O9 O 0.27537 0.11211 0.11689 0.0
C10 C 0.385 0.16148 0.10669 0.0
O11 O 0.3698 0.16644 0.13237 0.0
O12 O 0.31294 0.11643 0.05964 0.0
C13 C 0.22436 0.81584 0.57364 0.0
O14 O 0.23031 0.81663 0.60327 0.0
O15 O 0.14615 0.86242 0.58948 0.0
Zn16 Zn 0.19317 0.86582 0.58481 0.0
O17 O 0.21403 0.86815 0.62635 0.0
C18 C 0.18156 0.91701 0.5599 0.0
O19 O 0.15595 0.91464 0.57666 0.0
O20 O 0.2092 0.83458 0.56127 0.0
C21 C 0.21052 0.88815 0.64346 0.0
O22 O 0.19326 0.90783 0.63363 0.0
C23 C 0.13159 0.85732 0.6143 0.0
O24 O 0.14776 0.85246 0.63943 0.0
O25 O 0.20178 0.89857 0.56005 0.0
C26 C 0.27488 0.82777 0.93125 0.0
O27 O 0.27672 0.82704 0.90111 0.0
O28 O 0.35188 0.87032 0.91999 0.0
Zn29 Zn 0.30535 0.87767 0.92238 0.0
O30 O 0.287 0.88053 0.87972 0.0
C31 C 0.31766 0.93064 0.93937 0.0
O32 O 0.33916 0.92761 0.91791 0.0
O33 O 0.28497 0.8479 0.94542 0.0
C34 C 0.30311 0.88906 0.85719 0.0
O35 O 0.3323 0.89665 0.86187 0.0
C36 C 0.36347 0.85174 0.90412 0.0
O37 O 0.34452 0.83653 0.88823 0.0
O38 O 0.29932 0.91162 0.94546 0.0
C39 C 0.20649 0.18598 0.42705 0.0
O40 O 0.1926 0.18881 0.40025 0.0
O41 O 0.14549 0.1378 0.41189 0.0
Zn42 Zn 0.19229 0.1327 0.41442 0.0
O43 O 0.20897 0.13238 0.37128 0.0
C44 C 0.19139 0.0774 0.42571 0.0
O45 O 0.17574 0.07754 0.39963 0.0
O46 O 0.21 0.16306 0.43796 0.0
C47 C 0.23229 0.11883 0.36211 0.0
O48 O 0.24761 0.10407 0.38185 0.0
C49 C 0.12725 0.13066 0.43347 0.0
O50 O 0.13926 0.11937 0.45797 0.0
O51 O 0.20166 0.09894 0.4364 0.0
C52 C 0.67795 0.83888 0.83777 0.0
O53 O 0.65213 0.8247 0.83892 0.0
O54 O 0.61674 0.84542 0.89374 0.0
Zn55 Zn 0.66336 0.84863 0.9015 0.0
O56 O 0.67926 0.81731 0.92474 0.0
C57 C 0.65909 0.88443 0.9523 0.0
O58 O 0.64338 0.86488 0.96464 0.0
O59 O 0.68699 0.85101 0.8617 0.0
C60 C 0.70494 0.81815 0.9397 0.0
O61 O 0.72115 0.84009 0.94027 0.0
C62 C 0.59945 0.83083 0.91037 0.0
O63 O 0.61252 0.8169 0.93235 0.0
O64 O 0.67055 0.88171 0.9255 0.0
C65 C 0.82126 0.12699 0.34533 0.0
O66 O 0.84946 0.11663 0.34837 0.0
O67 O 0.87557 0.13871 0.40569 0.0
Zn68 Zn 0.82855 0.13519 0.41022 0.0
O69 O 0.81156 0.16369 0.43734 0.0
C70 C 0.83576 0.0955 0.45473 0.0
O71 O 0.85396 0.11381 0.4664 0.0
O72 O 0.80753 0.13636 0.36888 0.0
C73 C 0.78222 0.16572 0.44264 0.0
O74 O 0.76273 0.14896 0.42979 0.0
C75 C 0.89188 0.15513 0.42081 0.0
O76 O 0.87758 0.17184 0.4391 0.0
O77 O 0.82083 0.10029 0.43004 0.0
C78 C 0.71182 0.12764 0.13937 0.0
O79 O 0.71066 0.14906 0.12262 0.0
O80 O 0.63038 0.11567 0.0959 0.0
Zn81 Zn 0.67601 0.10676 0.08888 0.0
O82 O 0.69579 0.13333 0.06067 0.0
C83 C 0.65758 0.06306 0.05161 0.0
O84 O 0.63392 0.07881 0.04528 0.0
O85 O 0.6986 0.10693 0.12949 0.0
C86 C 0.68143 0.14273 0.03751 0.0
O87 O 0.65289 0.13439 0.03105 0.0
C88 C 0.62055 0.13906 0.09916 0.0
O89 O 0.64089 0.15847 0.09855 0.0
O90 O 0.67898 0.07084 0.06991 0.0
C91 C 0.80853 0.85046 0.64444 0.0
O92 O 0.82646 0.83079 0.63571 0.0
O93 O 0.87863 0.86585 0.59823 0.0
Zn94 Zn 0.83297 0.87276 0.58928 0.0
O95 O 0.81739 0.84515 0.56037 0.0
C96 C 0.84358 0.91405 0.54616 0.0
O97 O 0.86301 0.89658 0.53451 0.0
O98 O 0.80776 0.8711 0.62813 0.0
C99 C 0.78801 0.84213 0.55608 0.0
O100 O 0.76812 0.85768 0.57042 0.0
C101 C 0.89635 0.88348 0.60945 0.0
O102 O 0.88435 0.90664 0.61573 0.0
O103 O 0.8278 0.90819 0.57001 0.0
C104 C 0.78832 0.65537 0.04355 0.0
O105 O 0.81046 0.64136 0.03021 0.0
O106 O 0.8451 0.62233 0.09032 0.0
Zn107 Zn 0.79816 0.61754 0.09075 0.0
O108 O 0.7819 0.615 0.13407 0.0
C109 C 0.80512 0.56446 0.07291 0.0
O110 O 0.82675 0.5659 0.09446 0.0
O111 O 0.77853 0.6486 0.06999 0.0
C112 C 0.7987 0.60659 0.15617 0.0
O113 O 0.8278 0.59904 0.15075 0.0
C114 C 0.85882 0.64219 0.10177 0.0
O115 O 0.84187 0.66046 0.11525 0.0
O116 O 0.78843 0.58459 0.06721 0.0
C117 C 0.70034 0.31198 0.57702 0.0
O118 O 0.69115 0.30763 0.60543 0.0
O119 O 0.63113 0.359 0.59101 0.0
Zn120 Zn 0.678 0.36395 0.59036 0.0
O121 O 0.69338 0.36335 0.63396 0.0
C122 C 0.67591 0.41945 0.58116 0.0
O123 O 0.65904 0.41826 0.60647 0.0
O124 O 0.69742 0.33485 0.56582 0.0
C125 C 0.71641 0.37691 0.6437 0.0
O126 O 0.73193 0.39193 0.6244 0.0
C127 C 0.61472 0.36483 0.56757 0.0
O128 O 0.62894 0.37373 0.54284 0.0
O129 O 0.68742 0.39844 0.57016 0.0
C130 C 0.78037 0.29657 0.92883 0.0
O131 O 0.79574 0.29409 0.90276 0.0
O132 O 0.8493 0.34335 0.92532 0.0
Zn133 Zn 0.80244 0.34937 0.92334 0.0
O134 O 0.78969 0.35341 0.87912 0.0
C135 C 0.8076 0.403 0.93986 0.0
O136 O 0.82771 0.40225 0.91687 0.0
O137 O 0.77979 0.31877 0.94208 0.0
C138 C 0.76894 0.36948 0.86969 0.0
O139 O 0.75409 0.38436 0.88967 0.0
C140 C 0.86469 0.33448 0.90249 0.0
O141 O 0.84951 0.32825 0.8772 0.0
O142 O 0.79282 0.38222 0.94704 0.0
C143 C 0.70938 0.68634 0.43612 0.0
O144 O 0.69972 0.6882 0.4075 0.0
O145 O 0.64278 0.64103 0.42113 0.0
Zn146 Zn 0.68893 0.63372 0.42745 0.0
O147 O 0.71084 0.62947 0.38676 0.0
C148 C 0.67216 0.58386 0.45317 0.0
O149 O 0.64714 0.58752 0.43589 0.0
O150 O 0.70749 0.66436 0.44975 0.0
C151 C 0.70714 0.60922 0.37014 0.0
O152 O 0.68888 0.5902 0.37999 0.0
C153 C 0.63084 0.64881 0.39594 0.0
O154 O 0.64925 0.65268 0.37208 0.0
O155 O 0.69381 0.60109 0.4532 0.0
C156 C 0.2076 0.37129 0.85218 0.0
O157 O 0.22712 0.37216 0.8756 0.0
O158 O 0.11456 0.36555 0.89907 0.0
Zn159 Zn 0.16136 0.37175 0.90045 0.0
O160 O 0.1824 0.34301 0.92467 0.0
C161 C 0.15384 0.41281 0.94414 0.0
O162 O 0.13512 0.39512 0.95636 0.0
O163 O 0.1781 0.37126 0.85726 0.0
C164 C 0.20491 0.3467 0.94345 0.0
O165 O 0.21533 0.37063 0.9481 0.0
C166 C 0.10199 0.34353 0.90514 0.0
O167 O 0.12011 0.32354 0.91233 0.0
O168 O 0.16878 0.40711 0.9197 0.0
C169 C 0.28156 0.63957 0.34823 0.0
O170 O 0.26486 0.63171 0.37194 0.0
O171 O 0.37862 0.64094 0.38719 0.0
Zn172 Zn 0.33169 0.63947 0.39276 0.0
O173 O 0.31795 0.66799 0.4218 0.0
C174 C 0.33646 0.59703 0.43417 0.0
O175 O 0.35773 0.61297 0.4457 0.0
O176 O 0.31078 0.64411 0.35176 0.0
C177 C 0.29443 0.66517 0.43961 0.0
O178 O 0.27851 0.64309 0.43897 0.0
C179 C 0.39409 0.66223 0.38835 0.0
O180 O 0.37894 0.6844 0.39277 0.0
O181 O 0.32109 0.60422 0.41056 0.0
C182 C 0.18116 0.65334 0.13862 0.0
O183 O 0.16639 0.67468 0.12967 0.0
O184 O 0.11209 0.63793 0.08933 0.0
Zn185 Zn 0.15853 0.63446 0.08075 0.0
O186 O 0.17345 0.66522 0.05587 0.0
C187 C 0.1506 0.59498 0.03424 0.0
O188 O 0.13003 0.61204 0.02371 0.0
O189 O 0.18135 0.63344 0.12105 0.0
C190 C 0.20243 0.66864 0.04973 0.0
O191 O 0.22316 0.65142 0.0596 0.0
C192 C 0.09419 0.65254 0.07333 0.0
O193 O 0.10627 0.66601 0.05045 0.0
O194 O 0.16627 0.60059 0.05825 0.0
C195 C 0.29254 0.36132 0.63567 0.0
O196 O 0.30229 0.33891 0.62416 0.0
O197 O 0.36212 0.37777 0.58202 0.0
Zn198 Zn 0.31504 0.38105 0.57776 0.0
O199 O 0.29864 0.35084 0.55293 0.0
C200 C 0.31969 0.41781 0.52947 0.0
O201 O 0.33683 0.39861 0.51815 0.0
O202 O 0.29532 0.38206 0.6197 0.0
C203 C 0.26984 0.34415 0.55184 0.0
O204 O 0.24892 0.35757 0.56767 0.0
C205 C 0.37726 0.35753 0.57343 0.0
O206 O 0.36171 0.33738 0.56233 0.0
O207 O 0.30654 0.41471 0.55546 0.0
C208 C 0.2698 0.22535 0.04219 0.0
C209 C 0.29512 0.2132 0.02704 0.0
C210 C 0.25487 0.24744 0.02958 0.0
C211 C 0.26548 0.25759 0.00112 0.0
C212 C 0.2911 0.2455 0.98578 0.0
C213 C 0.30563 0.22346 -0.00107 0.0
C214 C 0.22763 0.25984 0.04663 0.0
C215 C 0.30303 0.25575 0.95534 0.0
C216 C 0.20923 0.29848 0.95308 0.0
C217 C 0.21988 0.32404 0.95899 0.0
C218 C 0.2237 0.27671 0.96685 0.0
C219 C 0.24942 0.28057 0.98706 0.0
C220 C 0.26007 0.30632 0.99344 0.0
C221 C 0.24517 0.32776 0.9793 0.0
C222 C 0.21168 0.24955 0.9595 0.0
C223 C 0.28738 0.31118 0.01496 0.0
H224 H 0.26155 0.21759 0.06395 0.0
H225 H 0.32518 0.21422 0.98707 0.0
H226 H 0.23279 0.28078 0.05134 0.0
H227 H 0.20607 0.25919 0.03219 0.0
H228 H 0.2226 0.24984 0.06878 0.0
H229 H 0.32346 0.24433 0.94657 0.0
H230 H 0.28389 0.25502 0.93798 0.0
H231 H 0.3102 0.27657 0.95771 0.0
H232 H 0.18967 0.2954 0.93745 0.0
H233 H 0.25352 0.34743 0.98403 0.0
H234 H 0.20471 0.23934 0.98097 0.0
H235 H 0.23071 0.23779 0.94868 0.0
H236 H 0.19109 0.24993 0.94371 0.0
H237 H 0.28236 0.30246 0.03781 0.0
H238 H 0.29234 0.33241 0.01802 0.0
H239 H 0.30892 0.3015 0.00594 0.0
C240 C 0.30321 0.70947 0.46278 0.0
C241 C 0.28488 0.68667 0.46052 0.0
C242 C 0.29411 0.73023 0.48202 0.0
C243 C 0.26592 0.72819 0.49927 0.0
C244 C 0.24749 0.70512 0.49738 0.0
C245 C 0.25723 0.6846 0.47807 0.0
C246 C 0.31447 0.75449 0.48359 0.0
C247 C 0.21722 0.70228 0.51536 0.0
C248 C 0.25408 0.77368 0.56754 0.0
C249 C 0.23499 0.79334 0.55476 0.0
C250 C 0.26437 0.75233 0.54976 0.0
C251 C 0.25518 0.75056 0.51853 0.0
C252 C 0.23581 0.77027 0.50555 0.0
C253 C 0.22602 0.79144 0.52379 0.0
C254 C 0.28515 0.73173 0.56432 0.0
C255 C 0.2254 0.76898 0.47237 0.0
H256 H 0.32469 0.71119 0.44942 0.0
H257 H 0.24294 0.66704 0.47647 0.0
H258 H 0.30096 0.77172 0.47525 0.0
H259 H 0.32124 0.75852 0.50777 0.0
H260 H 0.33627 0.75259 0.46958 0.0
H261 H 0.20604 0.6828 0.51197 0.0
H262 H 0.22181 0.70508 0.54026 0.0
H263 H 0.20023 0.71768 0.50822 0.0
H264 H 0.26116 0.77501 0.59143 0.0
H265 H 0.2112 0.8065 0.51373 0.0
H266 H 0.30785 0.73042 0.55172 0.0
H267 H 0.27369 0.71223 0.56271 0.0
H268 H 0.29018 0.73597 0.58889 0.0
H269 H 0.24631 0.76886 0.45703 0.0
H270 H 0.21006 0.78576 0.46587 0.0
H271 H 0.21231 0.7505 0.46815 0.0
C272 C 0.26147 0.80535 0.98079 0.0
C273 C 0.26278 0.80487 0.94856 0.0
C274 C 0.25125 0.78338 0.99748 0.0
C275 C 0.24215 0.76039 0.98155 0.0
C276 C 0.24308 0.75987 0.94902 0.0
C277 C 0.25335 0.78212 0.93292 0.0
C278 C 0.25047 0.78469 0.03216 0.0
C279 C 0.23353 0.7357 0.93125 0.0
C280 C 0.24449 0.69561 0.02461 0.0
C281 C 0.21262 0.69198 0.03208 0.0
C282 C 0.25442 0.71777 0.00811 0.0
C283 C 0.23195 0.73677 -0.00107 0.0
C284 C 0.19975 0.73322 0.00637 0.0
C285 C 0.19046 0.71086 0.02282 0.0
C286 C 0.28897 0.72087 0.00051 0.0
C287 C 0.17511 0.75309 0.99702 0.0
H288 H 0.26869 0.82284 0.99307 0.0
H289 H 0.25429 0.78156 0.90802 0.0
H290 H 0.22634 0.78039 0.04062 0.0
H291 H 0.26639 0.76956 0.04195 0.0
H292 H 0.25777 0.80419 0.04104 0.0
H293 H 0.23516 0.73861 0.90598 0.0
H294 H 0.24887 0.71897 0.93776 0.0
H295 H 0.20896 0.73018 0.9371 0.0
H296 H 0.26175 0.68112 0.03165 0.0
H297 H 0.16578 0.70824 0.02852 0.0
H298 H 0.29808 0.73934 0.01065 0.0
H299 H 0.29214 0.72228 0.97524 0.0
H300 H 0.30342 0.70427 0.0092 0.0
H301 H 0.18085 0.77251 0.00705 0.0
H302 H 0.15104 0.7474 0.00458 0.0
H303 H 0.17504 0.7554 0.97166 0.0
C304 C 0.22888 0.31268 0.53289 0.0
C305 C 0.2603 0.32122 0.53317 0.0
C306 C 0.21981 0.29074 0.51551 0.0
C307 C 0.2427 0.27711 0.49797 0.0
C308 C 0.2744 0.28572 0.49803 0.0
C309 C 0.28283 0.30764 0.51565 0.0
C310 C 0.18579 0.28204 0.51605 0.0
C311 C 0.29945 0.27173 0.47953 0.0
C312 C 0.22676 0.20646 0.47542 0.0
C313 C 0.21646 0.20922 0.44494 0.0
C314 C 0.23523 0.22842 0.493 0.0
C315 C 0.23358 0.25371 0.47969 0.0
C316 C 0.2235 0.25662 0.44886 0.0
C317 C 0.21495 0.23433 0.43188 0.0
C318 C 0.24578 0.22458 0.52586 0.0
C319 C 0.22171 0.28327 0.43382 0.0
H320 H 0.21136 0.32304 0.54638 0.0
H321 H 0.30717 0.31411 0.51568 0.0
H322 H 0.17602 0.28214 0.49239 0.0
H323 H 0.18419 0.26162 0.52471 0.0
H324 H 0.17087 0.29483 0.53078 0.0
H325 H 0.32297 0.28111 0.48179 0.0
H326 H 0.30137 0.25103 0.48717 0.0
H327 H 0.2928 0.27146 0.45487 0.0
H328 H 0.22788 0.18713 0.48573 0.0
H329 H 0.20708 0.23662 0.40832 0.0
H330 H 0.23013 0.23572 0.5416 0.0
H331 H 0.27 0.23235 0.52891 0.0
H332 H 0.24557 0.20362 0.53282 0.0
H333 H 0.20533 0.29611 0.44685 0.0
H334 H 0.21355 0.28216 0.40959 0.0
H335 H 0.24524 0.29277 0.43427 0.0
C336 C 0.75397 0.6953 0.04382 0.0
C337 C 0.7756 0.67913 0.02841 0.0
C338 C 0.74219 0.71814 0.02996 0.0
C339 C 0.75219 0.72489 -5e-05 0.0
C340 C 0.77389 0.7086 0.98421 0.0
C341 C 0.78539 0.68593 -0.00134 0.0
C342 C 0.71914 0.7351 0.04748 0.0
C343 C 0.78496 0.71512 0.9521 0.0
C344 C 0.70071 0.77052 0.95272 0.0
C345 C 0.71675 0.79445 0.95562 0.0
C346 C 0.71196 0.74774 0.96708 0.0
C347 C 0.73982 0.74894 0.98491 0.0
C348 C 0.75597 0.77306 0.98819 0.0
C349 C 0.74428 0.79553 0.97344 0.0
C350 C 0.69415 0.72234 0.96298 0.0
C351 C 0.78568 0.7751 0.00718 0.0
H352 H 0.74634 0.69023 0.06685 0.0
H353 H 0.80208 0.67353 0.98659 0.0
H354 H 0.72879 0.7552 0.05006 0.0
H355 H 0.69674 0.73679 0.03447 0.0
H356 H 0.71386 0.72716 0.0707 0.0
H357 H 0.80182 0.70035 0.94298 0.0
H358 H 0.76447 0.71629 0.93631 0.0
H359 H 0.79658 0.73461 0.95195 0.0
H360 H 0.67943 0.76949 0.93897 0.0
H361 H 0.75677 0.81395 0.97587 0.0
H362 H 0.68692 0.71451 0.98571 0.0
H363 H 0.70968 0.70745 0.95213 0.0
H364 H 0.67276 0.72475 0.94851 0.0
H365 H 0.78095 0.76863 0.0311 0.0
H366 H 0.79516 0.7954 0.00781 0.0
H367 H 0.80407 0.76191 0.99766 0.0
C368 C 0.79143 0.20328 0.47849 0.0
C369 C 0.77028 0.18675 0.46302 0.0
C370 C 0.78053 0.22343 0.49771 0.0
C371 C 0.74769 0.22722 0.50143 0.0
C372 C 0.72621 0.21055 0.48602 0.0
C373 C 0.73776 0.19045 0.46704 0.0
C374 C 0.80415 0.24077 0.51388 0.0
C375 C 0.69101 0.2141 0.48935 0.0
C376 C 0.71836 0.26552 0.57069 0.0
C377 C 0.71297 0.29037 0.5579 0.0
C378 C 0.72981 0.24478 0.55261 0.0
C379 C 0.73582 0.24899 0.52098 0.0
C380 C 0.7305 0.27403 0.50794 0.0
C381 C 0.71923 0.29444 0.52658 0.0
C382 C 0.73542 0.21837 0.56733 0.0
C383 C 0.73653 0.27923 0.47426 0.0
H384 H 0.8166 0.2005 0.4756 0.0
H385 H 0.72127 0.17777 0.45517 0.0
H386 H 0.80096 0.26142 0.50648 0.0
H387 H 0.80018 0.24012 0.53909 0.0
H388 H 0.82889 0.23484 0.50911 0.0
H389 H 0.67747 0.19926 0.47612 0.0
H390 H 0.68418 0.21269 0.51392 0.0
H391 H 0.68409 0.23391 0.48124 0.0
H392 H 0.71365 0.26223 0.59488 0.0
H393 H 0.71507 0.31356 0.51647 0.0
H394 H 0.76042 0.21246 0.56426 0.0
H395 H 0.7207 0.20327 0.5559 0.0
H396 H 0.72987 0.21839 0.59229 0.0
H397 H 0.76158 0.27511 0.46866 0.0
H398 H 0.73114 0.2998 0.46769 0.0
H399 H 0.72192 0.26592 0.45999 0.0
C400 C 0.76756 0.24867 0.92984 0.0
C401 C 0.76466 0.27366 0.94304 0.0
C402 C 0.75367 0.22666 0.94367 0.0
C403 C 0.73639 0.22976 0.97128 0.0
C404 C 0.7329 0.25499 0.98442 0.0
C405 C 0.74713 0.27663 0.97018 0.0
C406 C 0.75793 0.20003 0.92905 0.0
C407 C 0.7145 0.25908 0.01379 0.0
C408 C 0.67866 0.17708 0.99649 0.0
C409 C 0.69599 0.16405 0.01932 0.0
C410 C 0.69166 0.19829 0.98031 0.0
C411 C 0.72276 0.20654 0.98704 0.0
C412 C 0.74061 0.1931 0.00957 0.0
C413 C 0.72699 0.17206 0.02549 0.0
C414 C 0.6719 0.21223 0.95648 0.0
C415 C 0.77393 0.20124 0.01726 0.0
H416 H 0.78104 0.2462 0.90886 0.0
H417 H 0.74465 0.29589 0.98047 0.0
H418 H 0.7708 0.18687 0.94503 0.0
H419 H 0.73462 0.19095 0.92455 0.0
H420 H 0.77121 0.20106 0.90706 0.0
H421 H 0.7131 0.28009 0.02045 0.0
H422 H 0.6902 0.25137 0.01115 0.0
H423 H 0.72576 0.24803 0.03282 0.0
H424 H 0.65468 0.17104 0.99161 0.0
H425 H 0.74059 0.16205 0.04303 0.0
H426 H 0.68443 0.21257 0.93409 0.0
H427 H 0.66811 0.23291 0.96353 0.0
H428 H 0.64854 0.2028 0.95318 0.0
H429 H 0.78867 0.20121 0.99618 0.0
H430 H 0.78503 0.18812 0.03454 0.0
H431 H 0.77397 0.22155 0.02644 0.0
C432 C 0.74401 0.81545 0.53406 0.0
C433 C 0.77641 0.82055 0.53639 0.0
C434 C 0.73283 0.79421 0.51672 0.0
C435 C 0.75459 0.77776 0.50128 0.0
C436 C 0.78727 0.78315 0.50295 0.0
C437 C 0.79779 0.80447 0.52053 0.0
C438 C 0.6978 0.78901 0.51546 0.0
C439 C 0.81115 0.7661 0.48666 0.0
C440 C 0.72965 0.70796 0.48375 0.0
C441 C 0.72145 0.70966 0.45257 0.0
C442 C 0.74047 0.73 0.49985 0.0
C443 C 0.74327 0.7543 0.48437 0.0
C444 C 0.73525 0.75613 0.45286 0.0
C445 C 0.72438 0.73377 0.43733 0.0
C446 C 0.74877 0.72732 0.53348 0.0
C447 C 0.73809 0.78172 0.4356 0.0
H448 H 0.72733 0.8278 0.54621 0.0
H449 H 0.82287 0.80834 0.52209 0.0
H450 H 0.68973 0.78824 0.49122 0.0
H451 H 0.69259 0.76965 0.52593 0.0
H452 H 0.68393 0.80424 0.52778 0.0
H453 H 0.83559 0.77365 0.48915 0.0
H454 H 0.81027 0.7459 0.49609 0.0
H455 H 0.80543 0.76479 0.46182 0.0
H456 H 0.72742 0.68941 0.49572 0.0
H457 H 0.71813 0.73524 0.41323 0.0
H458 H 0.73403 0.74084 0.5474 0.0
H459 H 0.77374 0.73294 0.53723 0.0
H460 H 0.74528 0.70703 0.54212 0.0
H461 H 0.72294 0.79682 0.44654 0.0
H462 H 0.73115 0.7798 0.41107 0.0
H463 H 0.76273 0.78894 0.43668 0.0
C464 C 0.30252 0.07054 0.02359 0.0
C465 C 0.32335 0.07121 0.04865 0.0
C466 C 0.29926 0.04781 0.00563 0.0
C467 C 0.31728 0.02527 0.01289 0.0
C468 C 0.33784 0.02566 0.03852 0.0
C469 C 0.34061 0.04861 0.05609 0.0
C470 C 0.27704 0.04809 0.9785 0.0
C471 C 0.35746 0.002 0.047 0.0
C472 C 0.29464 0.9583 0.9815 0.0
C473 C 0.31611 0.95538 0.95717 0.0
C474 C 0.29425 0.9812 -0.00054 0.0
C475 C 0.31583 0.00161 0.99293 0.0
C476 C 0.33706 -0.00098 0.96799 0.0
C477 C 0.33693 0.97596 0.95043 0.0
C478 C 0.27123 0.98331 0.02584 0.0
C479 C 0.36042 0.02038 0.96027 0.0
H480 H 0.28902 0.08789 0.01774 0.0
H481 H 0.35669 0.04891 0.07545 0.0
H482 H 0.29059 0.04538 0.9569 0.0
H483 H 0.26013 0.03157 0.9802 0.0
H484 H 0.26354 0.06672 0.97687 0.0
H485 H 0.37134 0.00515 0.06834 0.0
H486 H 0.34206 0.98465 0.0503 0.0
H487 H 0.37401 0.99732 0.028 0.0
H488 H 0.27842 0.94252 0.98683 0.0
H489 H 0.35354 0.97394 0.93162 0.0
H490 H 0.25706 0.00151 0.02368 0.0
H491 H 0.28431 0.98455 0.04789 0.0
H492 H 0.25494 0.96628 0.02695 0.0
H493 H 0.34792 0.03923 0.95652 0.0
H494 H 0.37448 0.01575 0.9394 0.0
H495 H 0.37685 0.02328 0.97984 0.0
C496 C 0.16305 0.96028 0.54007 0.0
C497 C 0.18598 0.94044 0.54027 0.0
C498 C 0.16608 0.98223 0.52092 0.0
C499 C 0.19271 0.98444 0.50148 0.0
C500 C 0.21616 0.96466 0.50178 0.0
C501 C 0.21251 0.94286 0.5212 0.0
C502 C 0.14058 0.00294 0.52128 0.0
C503 C 0.24489 0.96642 0.48138 0.0
C504 C 0.18141 0.02944 0.43293 0.0
C505 C 0.19458 0.05292 0.44375 0.0
C506 C 0.18175 0.00667 0.45103 0.0
C507 C 0.19558 0.00741 0.48064 0.0
C508 C 0.21003 0.03074 0.49119 0.0
C509 C 0.20936 0.05322 0.47262 0.0
C510 C 0.16619 0.98211 0.43896 0.0
C511 C 0.22509 0.03225 0.52261 0.0
H512 H 0.14249 0.95862 0.55474 0.0
H513 H 0.23034 0.92761 0.52123 0.0
H514 H 0.15086 0.02229 0.52717 0.0
H515 H 0.12991 0.00473 0.49808 0.0
H516 H 0.12157 -0.00157 0.53804 0.0
H517 H 0.2613 0.94968 0.48483 0.0
H518 H 0.23757 0.96684 0.4569 0.0
H519 H 0.25778 0.98493 0.486 0.0
H520 H 0.17009 0.02899 0.4106 0.0
H521 H 0.21974 0.07124 0.48111 0.0
H522 H 0.14512 0.97751 0.45309 0.0
H523 H 0.18252 0.96518 0.44081 0.0
H524 H 0.1587 0.98415 0.4146 0.0
H525 H 0.2067 0.0301 0.54059 0.0
H526 H 0.23755 0.05114 0.52636 0.0
H527 H 0.24214 0.01596 0.52572 0.0
C528 C 0.67721 0.93107 0.95459 0.0
C529 C 0.66156 0.90991 0.96845 0.0
C530 C 0.67798 0.95581 0.96868 0.0
C531 C 0.66276 0.95947 0.99732 0.0
C532 C 0.64763 0.93805 0.01183 0.0
C533 C 0.64721 0.91352 0.99721 0.0
C534 C 0.6944 0.97819 0.95254 0.0
C535 C 0.6312 0.94122 0.04242 0.0
C536 C 0.68395 0.01943 0.04486 0.0
C537 C 0.65905 0.03655 0.03779 0.0
C538 C 0.68545 0.99423 0.03194 0.0
C539 C 0.6615 0.98599 0.01145 0.0
C540 C 0.63632 0.00315 0.00423 0.0
C541 C 0.6354 0.02821 0.01749 0.0
C542 C 0.71265 0.97644 0.04016 0.0
C543 C 0.61035 0.99506 0.98244 0.0
H544 H 0.68844 0.92846 0.93241 0.0
H545 H 0.63513 0.89727 0.00812 0.0
H546 H 0.677 0.99366 0.94668 0.0
H547 H 0.71217 0.98718 0.96798 0.0
H548 H 0.70635 0.97181 0.93106 0.0
H549 H 0.62187 0.92235 0.05135 0.0
H550 H 0.6477 0.94953 0.05964 0.0
H551 H 0.6113 0.95521 0.04006 0.0
H552 H 0.70232 0.02571 0.06054 0.0
H553 H 0.61607 0.04129 0.01189 0.0
H554 H 0.72584 0.97094 0.01908 0.0
H555 H 0.70363 0.95803 0.05052 0.0
H556 H 0.72927 0.98576 0.05659 0.0
H557 H 0.62048 0.99012 0.95964 0.0
H558 H 0.59238 0.0107 0.97932 0.0
H559 H 0.59845 0.9772 0.9912 0.0
C560 C 0.85403 0.06321 0.49405 0.0
C561 C 0.83453 0.06917 0.46896 0.0
C562 C 0.85456 0.03795 0.50675 0.0
C563 C 0.835 0.01821 0.49417 0.0
C564 C 0.81478 0.02421 0.46925 0.0
C565 C 0.81483 0.04963 0.45688 0.0
C566 C 0.8765 0.03226 0.5333 0.0
C567 C 0.79345 0.00368 0.45538 0.0
C568 C 0.85987 0.94761 0.50737 0.0
C569 C 0.84066 0.9404 0.53222 0.0
C570 C 0.85798 0.97278 0.49451 0.0
C571 C 0.83627 0.99115 0.50673 0.0
C572 C 0.81648 0.98389 0.53149 0.0
C573 C 0.81895 0.95861 0.54398 0.0
C574 C 0.87954 0.97987 0.46814 0.0
C575 C 0.79297 0.00293 0.54503 0.0
H576 H 0.86935 0.07817 0.50351 0.0
H577 H 0.79964 0.0541 0.43754 0.0
H578 H 0.86293 0.02456 0.55315 0.0
H579 H 0.89372 0.0169 0.52656 0.0
H580 H 0.8897 0.04993 0.54084 0.0
H581 H 0.77834 0.01174 0.43677 0.0
H582 H 0.80783 0.98743 0.44578 0.0
H583 H 0.77804 0.99514 0.4734 0.0
H584 H 0.87669 0.93366 0.49813 0.0
H585 H 0.80393 0.95318 0.56312 0.0
H586 H 0.89507 0.99638 0.47496 0.0
H587 H 0.86545 0.98655 0.44813 0.0
H588 H 0.89457 0.96314 0.46083 0.0
H589 H 0.80552 0.02016 0.55464 0.0
H590 H 0.77855 0.99393 0.56356 0.0
H591 H 0.77693 0.01028 0.52681 0.0
C592 C 0.82167 0.44955 0.95138 0.0
C593 C 0.80361 0.42726 0.95816 0.0
C594 C 0.81974 0.47214 0.96969 0.0
C595 C 0.79919 0.47248 0.99534 0.0
C596 C 0.78018 0.45035 0.00178 0.0
C597 C 0.78264 0.42798 0.98312 0.0
C598 C 0.8404 0.49537 0.9621 0.0
C599 C 0.7579 0.45005 0.02886 0.0
C600 C 0.82156 0.51874 0.05997 0.0
C601 C 0.80192 0.54033 0.05424 0.0
C602 C 0.82041 0.49633 0.04134 0.0
C603 C 0.79903 0.49544 0.01638 0.0
C604 C 0.77854 0.51687 0.01091 0.0
C605 C 0.78024 0.5391 0.0299 0.0
C606 C 0.84264 0.47386 0.04793 0.0
C607 C 0.75536 0.51655 0.98457 0.0
H608 H 0.83785 0.44922 0.93209 0.0
H609 H 0.76849 0.41088 0.98843 0.0
H610 H 0.82584 0.51335 0.9598 0.0
H611 H 0.85735 0.4988 0.98111 0.0
H612 H 0.85391 0.49248 0.94047 0.0
H613 H 0.74326 0.432 0.02954 0.0
H614 H 0.77155 0.45133 0.05057 0.0
H615 H 0.74204 0.46735 0.02805 0.0
H616 H 0.83832 0.51948 0.07876 0.0
H617 H 0.76493 0.55568 0.02535 0.0
H618 H 0.85883 0.471 0.02816 0.0
H619 H 0.82916 0.45539 0.05087 0.0
H620 H 0.857 0.47722 0.06892 0.0
H621 H 0.7683 0.51569 0.96242 0.0
H622 H 0.73989 0.53414 0.98444 0.0
H623 H 0.74033 0.49878 0.98586 0.0
C624 C 0.66571 0.46757 0.57586 0.0
C625 C 0.67921 0.44448 0.56424 0.0
C626 C 0.66642 0.49094 0.55886 0.0
C627 C 0.6809 0.49119 0.52953 0.0
C628 C 0.6955 0.4682 0.51813 0.0
C629 C 0.69452 0.44512 0.53564 0.0
C630 C 0.65075 0.51514 0.57183 0.0
C631 C 0.71118 0.46771 0.48694 0.0
C632 C 0.65119 0.54087 0.47149 0.0
C633 C 0.67478 0.5601 0.47256 0.0
C634 C 0.65298 0.51836 0.48989 0.0
C635 C 0.67897 0.515 0.50992 0.0
C636 C 0.70292 0.53428 0.51112 0.0
C637 C 0.70056 0.55662 0.49237 0.0
C638 C 0.62701 0.49816 0.4879 0.0
C639 C 0.73093 0.53135 0.53226 0.0
H640 H 0.65398 0.46728 0.598 0.0
H641 H 0.70511 0.42739 0.52652 0.0
H642 H 0.66731 0.53196 0.57136 0.0
H643 H 0.63016 0.52052 0.55741 0.0
H644 H 0.64252 0.51222 0.59584 0.0
H645 H 0.72324 0.44877 0.4823 0.0
H646 H 0.69325 0.47102 0.46877 0.0
H647 H 0.72871 0.48377 0.48514 0.0
H648 H 0.6312 0.54337 0.45624 0.0
H649 H 0.71888 0.57141 0.49336 0.0
H650 H 0.61581 0.49562 0.51077 0.0
H651 H 0.637 0.47889 0.48113 0.0
H652 H 0.60848 0.50368 0.47105 0.0
H653 H 0.72282 0.52977 0.55644 0.0
H654 H 0.74754 0.54811 0.53045 0.0
H655 H 0.74387 0.51301 0.52678 0.0
C656 C 0.13432 0.56174 0.99501 0.0
C657 C 0.15395 0.56889 0.01957 0.0
C658 C 0.1358 0.53653 0.98216 0.0
C659 C 0.15751 0.51803 0.99407 0.0
C660 C 0.17797 0.52533 0.01831 0.0
C661 C 0.17591 0.55066 0.03081 0.0
C662 C 0.11356 0.52947 0.95634 0.0
C663 C 0.20154 0.50618 0.03152 0.0
C664 C 0.13742 0.44611 0.9832 0.0
C665 C 0.15607 0.43938 0.95775 0.0
C666 C 0.138 0.47155 0.99547 0.0
C667 C 0.1578 0.49073 0.98204 0.0
C668 C 0.17715 0.48396 0.95672 0.0
C669 C 0.17603 0.45836 0.94484 0.0
C670 C 0.11698 0.47803 0.02248 0.0
C671 C 0.19868 0.50386 0.94191 0.0
H672 H 0.11731 0.5757 0.98615 0.0
H673 H 0.19126 0.55603 0.04971 0.0
H674 H 0.12705 0.52207 0.93626 0.0
H675 H 0.09759 0.51348 0.96386 0.0
H676 H 0.09898 0.54641 0.94884 0.0
H677 H 0.21689 0.51533 0.04921 0.0
H678 H 0.18892 0.48942 0.04214 0.0
H679 H 0.21666 0.49812 0.01296 0.0
H680 H 0.12195 0.43159 0.99335 0.0
H681 H 0.19058 0.45332 0.92521 0.0
H682 H 0.09999 0.4936 0.01591 0.0
H683 H 0.13131 0.48574 0.0418 0.0
H684 H 0.10353 0.46072 0.03073 0.0
H685 H 0.1845 0.52021 0.9323 0.0
H686 H 0.2131 0.49522 0.92313 0.0
H687 H 0.21475 0.51239 0.95937 0.0
C688 C 0.35082 0.56208 0.47187 0.0
C689 C 0.33131 0.57085 0.44795 0.0
C690 C 0.34703 0.53703 0.48458 0.0
C691 C 0.32304 0.52036 0.47322 0.0
C692 C 0.30293 0.5292 0.44941 0.0
C693 C 0.30736 0.55434 0.43697 0.0
C694 C 0.36904 0.52824 0.50988 0.0
C695 C 0.27697 0.512 0.43688 0.0
C696 C 0.33597 0.4477 0.48681 0.0
C697 C 0.31813 0.44341 0.5135 0.0
C698 C 0.33699 0.47249 0.4729 0.0
C699 C 0.31964 0.49346 0.48592 0.0
C700 C 0.30064 0.48904 0.51216 0.0
C701 C 0.30016 0.46406 0.5257 0.0
C702 C 0.35757 0.47647 0.44493 0.0
C703 C 0.28163 0.51089 0.52654 0.0
H704 H 0.36939 0.57469 0.48047 0.0
H705 H 0.29212 0.56101 0.41856 0.0
H706 H 0.3553 0.52265 0.53057 0.0
H707 H 0.38235 0.51062 0.50237 0.0
H708 H 0.38619 0.54372 0.51644 0.0
H709 H 0.2627 0.52212 0.41903 0.0
H710 H 0.28725 0.49398 0.42668 0.0
H711 H 0.26109 0.50575 0.45577 0.0
H712 H 0.34986 0.43185 0.47717 0.0
H713 H 0.28618 0.46087 0.54623 0.0
H714 H 0.37697 0.49025 0.45057 0.0
H715 H 0.3437 0.4854 0.42601 0.0
H716 H 0.36806 0.45782 0.43656 0.0
H717 H 0.29777 0.526 0.53595 0.0
H718 H 0.26621 0.50378 0.54543 0.0
H719 H 0.26673 0.52058 0.50893 0.0
C720 C 0.5652 0.12342 0.10592 0.0
C721 C 0.58635 0.14429 0.10204 0.0
C722 C 0.53261 0.12783 0.10747 0.0
C723 C 0.52085 0.15372 0.10484 0.0
C724 C 0.54206 0.17492 0.10129 0.0
C725 C 0.57461 0.16996 0.10005 0.0
C726 C 0.51074 0.10472 0.11153 0.0
C727 C 0.53031 0.20276 0.09822 0.0
C728 C 0.43599 0.15849 0.07802 0.0
C729 C 0.41988 0.16195 0.10591 0.0
C730 C 0.46898 0.15676 0.07723 0.0
C731 C 0.48625 0.15833 0.10501 0.0
C732 C 0.47023 0.16265 0.13312 0.0
C733 C 0.43721 0.16451 0.13321 0.0
C734 C 0.48528 0.15241 0.04677 0.0
C735 C 0.48785 0.16431 0.16322 0.0
H736 H 0.57408 0.10354 0.10761 0.0
H737 H 0.59081 0.18618 0.09697 0.0
H738 H 0.49556 0.10771 0.13202 0.0
H739 H 0.49494 0.10303 0.0913 0.0
H740 H 0.52373 0.08594 0.11427 0.0
H741 H 0.54991 0.21713 0.0965 0.0
H742 H 0.51535 0.20455 0.0774 0.0
H743 H 0.51541 0.208 0.11827 0.0
H744 H 0.42278 0.15667 0.05679 0.0
H745 H 0.42494 0.1672 0.15485 0.0
H746 H 0.49665 0.1328 0.04659 0.0
H747 H 0.50417 0.16718 0.04341 0.0
H748 H 0.46869 0.15356 0.02706 0.0
H749 H 0.49922 0.14517 0.16821 0.0
H750 H 0.47214 0.16946 0.18275 0.0
H751 H 0.50688 0.17917 0.1617 0.0
C752 C 0.951 0.89882 0.62146 0.0
C753 C 0.93044 0.87836 0.61367 0.0
C754 C 0.98364 0.89457 0.62346 0.0
C755 C 0.99594 0.86922 0.6177 0.0
C756 C 0.97522 0.84829 0.61085 0.0
C757 C 0.94272 0.85312 0.60883 0.0
C758 C 0.00504 0.9174 0.63073 0.0
C759 C 0.98746 0.82096 0.60474 0.0
C760 C 0.07997 0.8654 0.58835 0.0
C761 C 0.09673 0.8589 0.6151 0.0
C762 C 0.04715 0.86852 0.58889 0.0
C763 C 0.03061 0.86501 0.61684 0.0
C764 C 0.04724 0.85797 0.64383 0.0
C765 C 0.08016 0.85501 0.64265 0.0
C766 C 0.03024 0.87601 0.5596 0.0
C767 C 0.03031 0.85397 0.67401 0.0
H768 H 0.94171 0.91836 0.62527 0.0
H769 H 0.92696 0.83715 0.603 0.0
H770 H 0.02058 0.91251 0.65043 0.0
H771 H 0.02051 0.92149 0.61072 0.0
H772 H 0.99165 0.93551 0.63635 0.0
H773 H 0.96811 0.80648 0.60189 0.0
H774 H 0.00199 0.82095 0.58353 0.0
H775 H 0.00287 0.81445 0.62389 0.0
H776 H 0.09254 0.86843 0.56694 0.0
H777 H 0.09292 0.84999 0.66342 0.0
H778 H 0.01818 0.89516 0.56267 0.0
H779 H 0.01182 0.86129 0.55415 0.0
H780 H 0.04651 0.87754 0.53966 0.0
H781 H 0.01864 0.87249 0.68111 0.0
H782 H 0.04653 0.84766 0.69265 0.0
H783 H 0.01156 0.83899 0.67134 0.0
C784 C 0.41117 0.82725 0.88579 0.0
C785 C 0.398 0.84748 0.90353 0.0
C786 C 0.4439 0.82305 0.88524 0.0
C787 C 0.46384 0.83944 0.90287 0.0
C788 C 0.45069 0.85991 0.92075 0.0
C789 C 0.41795 0.86369 0.92084 0.0
C790 C 0.45714 0.80107 0.86587 0.0
C791 C 0.47121 0.8778 0.93987 0.0
C792 C 0.54548 0.817 0.9269 0.0
C793 C 0.56475 0.83121 0.90667 0.0
C794 C 0.51252 0.81885 0.92529 0.0
C795 C 0.49851 0.83526 0.90288 0.0
C796 C 0.51778 0.84893 0.88169 0.0
C797 C 0.55068 0.84675 0.88385 0.0
C798 C 0.49271 0.80395 0.94826 0.0
C799 C 0.50367 0.86653 0.85739 0.0
H800 H 0.39592 0.81466 0.87233 0.0
H801 H 0.408 0.87938 0.93459 0.0
H802 H 0.47415 0.80902 0.84889 0.0
H803 H 0.47023 0.78706 0.88064 0.0
H804 H 0.43846 0.79019 0.85332 0.0
H805 H 0.45727 0.89283 0.95244 0.0
H806 H 0.48477 0.86611 0.95685 0.0
H807 H 0.48854 0.88795 0.92493 0.0
H808 H 0.55613 0.80487 0.94453 0.0
H809 H 0.56539 0.8577 0.86802 0.0
H810 H 0.47464 0.79208 0.93619 0.0
H811 H 0.48003 0.81799 0.96335 0.0
H812 H 0.50712 0.79073 0.96292 0.0
H813 H 0.48572 0.8557 0.84388 0.0
H814 H 0.52176 0.87435 0.84135 0.0
H815 H 0.49152 0.88331 0.86853 0.0
C816 C 0.07215 0.12394 0.45234 0.0
C817 C 0.09289 0.13519 0.431 0.0
C818 C 0.03949 0.1279 0.45006 0.0
C819 C 0.02736 0.14368 0.42602 0.0
C820 C 0.04818 0.15528 0.40456 0.0
C821 C 0.0807 0.1508 0.40722 0.0
C822 C 0.01794 0.11503 0.47322 0.0
C823 C 0.0361 0.17237 0.37876 0.0
C824 C 0.94177 0.13325 0.40404 0.0
C825 C 0.92672 0.1535 0.42026 0.0
C826 C 0.97459 0.13008 0.40534 0.0
C827 C 0.9928 0.14769 0.42311 0.0
C828 C 0.9779 0.16863 0.4388 0.0
C829 C 0.94499 0.17125 0.43725 0.0
C830 C 0.98967 0.10748 0.38833 0.0
C831 C 0.99664 0.18791 0.45777 0.0
H832 H 0.08139 0.11179 0.47071 0.0
H833 H 0.09661 0.15967 0.39072 0.0
H834 H 0.00381 0.13015 0.48535 0.0
H835 H 0.00114 0.10185 0.46127 0.0
H836 H 0.03114 0.10341 0.49058 0.0
H837 H 0.05547 0.18036 0.36434 0.0
H838 H 0.01997 0.16093 0.36383 0.0
H839 H 0.02232 0.18899 0.3883 0.0
H840 H 0.92785 0.11943 0.39085 0.0
H841 H 0.93356 0.18699 0.44976 0.0
H842 H 0.00124 0.09408 0.40496 0.0
H843 H 0.00825 0.11483 0.37258 0.0
H844 H 0.97229 0.09607 0.3747 0.0
H845 H 0.00827 0.17753 0.47711 0.0
H846 H 0.98167 0.20384 0.46734 0.0
H847 H 0.01554 0.19684 0.44358 0.0
C848 C 0.04726 0.6401 0.10499 0.0
C849 C 0.05988 0.65334 0.07953 0.0
C850 C 0.01463 0.63952 0.11024 0.0
C851 C 0.99414 0.65235 0.08943 0.0
C852 C 0.00675 0.6663 0.06413 0.0
C853 C 0.0395 0.66669 0.05952 0.0
C854 C 0.00204 0.62458 0.13759 0.0
C855 C 0.9856 0.68015 0.04138 0.0
C856 C 0.9108 0.62628 0.08226 0.0
C857 C 0.89347 0.64479 0.09916 0.0
C858 C 0.94355 0.62856 0.07896 0.0
C859 C 0.95943 0.6498 0.09302 0.0
C860 C 0.94218 0.66847 0.1103 0.0
C861 C 0.90934 0.66578 0.1131 0.0
C862 C 0.96112 0.6083 0.06024 0.0
C863 C 0.95841 0.69127 0.12576 0.0
H864 H 0.06286 0.62988 0.12069 0.0
H865 H 0.04905 0.67701 0.03983 0.0
H866 H 0.9862 0.63729 0.1514 0.0
H867 H 0.98786 0.60764 0.12955 0.0
H868 H 0.02118 0.61716 0.1527 0.0
H869 H -0.00081 0.69132 0.02391 0.0
H870 H 0.97062 0.66557 0.02934 0.0
H871 H 0.96958 0.69388 0.05355 0.0
H872 H 0.89875 0.61001 0.07135 0.0
H873 H 0.89612 0.68013 0.12623 0.0
H874 H 0.97928 0.59861 0.07467 0.0
H875 H 0.97357 0.61795 0.04086 0.0
H876 H 0.94523 0.593 0.05076 0.0
H877 H 0.97664 0.68395 0.14193 0.0
H878 H 0.94165 0.70391 0.13867 0.0
H879 H 0.97065 0.70345 0.10832 0.0
C880 C 0.56498 0.35174 0.59441 0.0
C881 C 0.57997 0.36239 0.5685 0.0
C882 C 0.53202 0.34996 0.59596 0.0
C883 C 0.51362 0.35913 0.57104 0.0
C884 C 0.52858 0.36968 0.54471 0.0
C885 C 0.5616 0.37114 0.54373 0.0
C886 C 0.51686 0.33852 0.62437 0.0
C887 C 0.50969 0.37971 0.51772 0.0
C888 C 0.42906 0.33588 0.56253 0.0
C889 C 0.41216 0.35737 0.57415 0.0
C890 C 0.46214 0.33605 0.56167 0.0
C891 C 0.47866 0.35823 0.57275 0.0
C892 C 0.46177 0.37979 0.58497 0.0
C893 C 0.42872 0.37911 0.58552 0.0
C894 C 0.47939 0.31269 0.54851 0.0
C895 C 0.47861 0.40376 0.59706 0.0
H896 H 0.57901 0.34487 0.61363 0.0
H897 H 0.57298 0.37942 0.52364 0.0
H898 H 0.50158 0.35344 0.63547 0.0
H899 H 0.50157 0.32174 0.61799 0.0
H900 H 0.53455 0.33168 0.64142 0.0
H901 H 0.52495 0.38689 0.49873 0.0
H902 H 0.49426 0.36394 0.50868 0.0
H903 H 0.49414 0.396 0.52525 0.0
H904 H 0.41645 0.319 0.55369 0.0
H905 H 0.41587 0.39579 0.59458 0.0
H906 H 0.49634 0.30485 0.56563 0.0
H907 H 0.49323 0.31878 0.52807 0.0
H908 H 0.46309 0.29669 0.54161 0.0
H909 H 0.49542 0.39806 0.61544 0.0
H910 H 0.46203 0.41861 0.60647 0.0
H911 H 0.49255 0.41295 0.57836 0.0
C912 C 0.05303 0.31684 0.91275 0.0
C913 C 0.06725 0.34068 0.9046 0.0
C914 C 0.02009 0.31412 0.91278 0.0
C915 C 0.00098 0.33574 0.9044 0.0
C916 C 0.01519 0.35979 0.89598 0.0
C917 C 0.04814 0.36198 0.89622 0.0
C918 C 0.00571 0.2882 0.92196 0.0
C919 C 0.99557 0.38327 0.88684 0.0
C920 C 0.91676 0.32548 0.87755 0.0
C921 C 0.89953 0.33293 0.90368 0.0
C922 C 0.94984 0.32567 0.87769 0.0
C923 C 0.96606 0.33342 0.90464 0.0
C924 C 0.94884 0.34022 0.93136 0.0
C925 C 0.91577 0.33992 0.93055 0.0
C926 C 0.96743 0.3183 0.84875 0.0
C927 C 0.96533 0.34849 0.96057 0.0
H928 H 0.06762 0.3003 0.91929 0.0
H929 H 0.0589 0.38047 0.88986 0.0
H930 H 0.99024 0.29093 0.94229 0.0
H931 H 0.99073 0.28059 0.90305 0.0
H932 H 0.02386 0.27323 0.92759 0.0
H933 H 0.0103 0.40047 0.88058 0.0
H934 H 0.98037 0.37823 0.86695 0.0
H935 H 0.97977 0.38895 0.90606 0.0
H936 H 0.90441 0.32 0.8567 0.0
H937 H 0.90266 0.34561 0.95089 0.0
H938 H 0.98486 0.30262 0.85371 0.0
H939 H 0.98074 0.33551 0.84011 0.0
H940 H 0.95138 0.31139 0.83026 0.0
H941 H 0.98271 0.33336 0.96759 0.0
H942 H 0.94858 0.35174 0.97984 0.0
H943 H 0.97857 0.36692 0.9565 0.0
C944 C 0.58235 0.6588 0.36516 0.0
C945 C 0.59634 0.65274 0.39351 0.0
C946 C 0.54952 0.66161 0.36252 0.0
C947 C 0.53032 0.65838 0.38888 0.0
C948 C 0.54436 0.65274 0.41764 0.0
C949 C 0.57717 0.64995 0.4196 0.0
C950 C 0.53532 0.66754 0.33145 0.0
C951 C 0.52467 0.64925 0.4463 0.0
C952 C 0.44654 0.68466 0.39102 0.0
C953 C 0.42894 0.66172 0.38641 0.0
C954 C 0.47964 0.68402 0.3911 0.0
C955 C 0.49544 0.65989 0.38636 0.0
C956 C 0.47781 0.63682 0.38082 0.0
C957 C 0.44479 0.63801 0.38095 0.0
C958 C 0.4977 0.70901 0.39713 0.0
C959 C 0.49383 0.61073 0.37555 0.0
H960 H 0.597 0.66099 0.34489 0.0
H961 H 0.58778 0.64537 0.44163 0.0
H962 H 0.51975 0.65117 0.3243 0.0
H963 H 0.52048 0.68543 0.33279 0.0
H964 H 0.55358 0.67047 0.31345 0.0
H965 H 0.53933 0.64587 0.4671 0.0
H966 H 0.5098 0.66685 0.45019 0.0
H967 H 0.50854 0.6323 0.44339 0.0
H968 H 0.43449 0.70307 0.3952 0.0
H969 H 0.43139 0.6202 0.37721 0.0
H970 H 0.51526 0.71237 0.37863 0.0
H971 H 0.51091 0.70723 0.41905 0.0
H972 H 0.48198 0.7264 0.39861 0.0
H973 H 0.51115 0.61233 0.35653 0.0
H974 H 0.47677 0.59492 0.36989 0.0
H975 H 0.50704 0.60492 0.39649 0.0
C976 C 0.26002 0.10632 0.18072 0.0
C977 C 0.28152 0.12521 0.17027 0.0
C978 C 0.25258 0.1042 0.21207 0.0
C979 C 0.26696 0.12141 0.23342 0.0
C980 C 0.28895 0.1403 0.22307 0.0
C981 C 0.29598 0.14196 0.19163 0.0
C982 C 0.22904 0.08379 0.22232 0.0
C983 C 0.30471 0.15902 0.24515 0.0
C984 C 0.2247 0.13525 0.3085 0.0
C985 C 0.24143 0.11941 0.32925 0.0
C986 C 0.23269 0.13594 0.27725 0.0
C987 C 0.25804 0.12043 0.26643 0.0
C988 C 0.27505 0.10437 0.28719 0.0
C989 C 0.26654 0.10405 0.3184 0.0
C990 C 0.21403 0.15335 0.25582 0.0
C991 C 0.30225 0.08758 0.27642 0.0
H992 H 0.24885 0.09323 0.16439 0.0
H993 H 0.3127 0.15657 0.18379 0.0
H994 H 0.23964 0.07103 0.24021 0.0
H995 H 0.20824 0.09353 0.23279 0.0
H996 H 0.22086 0.07127 0.203 0.0
H997 H 0.32207 0.17197 0.23353 0.0
H998 H 0.28666 0.17148 0.25647 0.0
H999 H 0.31701 0.14792 0.26352 0.0
H1000 H 0.20525 0.14717 0.31665 0.0
H1001 H 0.27955 0.09174 0.33426 0.0
H1002 H 0.20352 0.14144 0.2371 0.0
H1003 H 0.22989 0.16792 0.2449 0.0
H1004 H 0.1948 0.16402 0.26786 0.0
H1005 H 0.29416 0.07389 0.25823 0.0
H1006 H 0.31285 0.07598 0.29541 0.0
H1007 H 0.32082 0.10014 0.26614 0.0
C1008 C 0.30735 0.89897 0.801 0.0
C1009 C 0.28946 0.8897 0.82586 0.0
C1010 C 0.29497 0.89921 0.77108 0.0
C1011 C 0.26397 0.88994 0.76591 0.0
C1012 C 0.24572 0.88071 0.79091 0.0
C1013 C 0.25867 0.88071 0.8206 0.0
C1014 C 0.31513 0.90922 0.74497 0.0
C1015 C 0.21256 0.87067 0.78627 0.0
C1016 C 0.22102 0.91095 0.69337 0.0
C1017 C 0.22477 0.88883 0.67453 0.0
C1018 C 0.23382 0.91164 0.72311 0.0
C1019 C 0.25072 0.88968 0.73428 0.0
C1020 C 0.25476 0.86735 0.71533 0.0
C1021 C 0.24176 0.8672 0.68567 0.0
C1022 C 0.2291 0.93582 0.74266 0.0
C1023 C 0.27263 0.84355 0.72648 0.0
H1024 H 0.33115 0.90596 0.80485 0.0
H1025 H 0.24469 0.87349 0.83966 0.0
H1026 H 0.31861 0.89349 0.72768 0.0
H1027 H 0.30304 0.92571 0.73321 0.0
H1028 H 0.33862 0.91606 0.75291 0.0
H1029 H 0.20137 0.86442 0.80817 0.0
H1030 H 0.19773 0.88615 0.77565 0.0
H1031 H 0.2128 0.85374 0.77024 0.0
H1032 H 0.20796 0.92775 0.68495 0.0
H1033 H 0.24475 0.85002 0.67129 0.0
H1034 H 0.25228 0.9439 0.74969 0.0
H1035 H 0.21617 0.93061 0.76398 0.0
H1036 H 0.21571 0.95137 0.73042 0.0
H1037 H 0.29698 0.84917 0.73306 0.0
H1038 H 0.27392 0.82787 0.70878 0.0
H1039 H 0.26109 0.83545 0.74731 0.0
C1040 C 0.72616 0.85296 0.80914 0.0
C1041 C 0.69671 0.84045 0.80913 0.0
C1042 C 0.74442 0.85441 0.78232 0.0
C1043 C 0.73285 0.84323 0.75478 0.0
C1044 C 0.7031 0.83066 0.75453 0.0
C1045 C 0.68541 0.82934 0.78177 0.0
C1046 C 0.77612 0.86785 0.78348 0.0
C1047 C 0.68994 0.81868 0.72549 0.0
C1048 C 0.76737 0.86832 0.6799 0.0
C1049 C 0.78908 0.8485 0.67258 0.0
C1050 C 0.74866 0.86671 0.70642 0.0
C1051 C 0.75189 0.84483 0.72618 0.0
C1052 C 0.77371 0.82473 0.71892 0.0
C1053 C 0.79198 0.82677 0.69213 0.0
C1054 C 0.72551 0.88845 0.71335 0.0
C1055 C 0.77791 0.80118 0.73958 0.0
H1056 H 0.73512 0.86152 0.83021 0.0
H1057 H 0.66265 0.81969 0.78156 0.0
H1058 H 0.79492 0.854 0.7763 0.0
H1059 H 0.77653 0.88454 0.76714 0.0
H1060 H 0.78183 0.87533 0.80682 0.0
H1061 H 0.66637 0.80971 0.72914 0.0
H1062 H 0.68789 0.83389 0.70736 0.0
H1063 H 0.70624 0.80338 0.71673 0.0
H1064 H 0.76487 0.88513 0.66483 0.0
H1065 H 0.80872 0.81138 0.68664 0.0
H1066 H 0.73145 0.89774 0.73568 0.0
H1067 H 0.70135 0.88032 0.71548 0.0
H1068 H 0.72539 0.90385 0.69528 0.0
H1069 H 0.78542 0.80764 0.76281 0.0
H1070 H 0.79568 0.78716 0.73051 0.0
H1071 H 0.75513 0.79076 0.74228 0.0
C1072 C 0.82151 0.11888 0.28859 0.0
C1073 C 0.80551 0.12751 0.31496 0.0
C1074 C 0.80678 0.11906 0.25971 0.0
C1075 C 0.77526 0.12795 0.25718 0.0
C1076 C 0.759 0.13674 0.28368 0.0
C1077 C 0.77435 0.13648 0.31224 0.0
C1078 C 0.82491 0.10967 0.2319 0.0
C1079 C 0.72531 0.14626 0.28188 0.0
C1080 C 0.74494 0.14988 0.17918 0.0
C1081 C 0.7282 0.12767 0.16942 0.0
C1082 C 0.76051 0.1502 0.20763 0.0
C1083 C 0.75916 0.12783 0.22684 0.0
C1084 C 0.7423 0.10536 0.21716 0.0
C1085 C 0.72708 0.10552 0.18852 0.0
C1086 C 0.77841 0.17447 0.21715 0.0
C1087 C 0.74022 0.08118 0.23711 0.0
H1088 H 0.84562 0.11199 0.29047 0.0
H1089 H 0.7618 0.14315 0.33251 0.0
H1090 H 0.81268 0.09267 0.22136 0.0
H1091 H 0.82582 0.12539 0.2143 0.0
H1092 H 0.84941 0.10374 0.23769 0.0
H1093 H 0.71605 0.15257 0.30461 0.0
H1094 H 0.7236 0.16301 0.26569 0.0
H1095 H 0.70997 0.13044 0.27282 0.0
H1096 H 0.74598 0.16705 0.16453 0.0
H1097 H 0.71415 0.0883 0.18119 0.0
H1098 H 0.80348 0.16947 0.22153 0.0
H1099 H 0.76857 0.18233 0.23893 0.0
H1100 H 0.77743 0.19013 0.19942 0.0
H1101 H 0.76421 0.07355 0.24195 0.0
H1102 H 0.72615 0.06533 0.22621 0.0
H1103 H 0.7293 0.08623 0.25953 0.0
C1104 C 0.71814 0.58538 0.32097 0.0
C1105 C 0.7221 0.60769 0.33944 0.0
C1106 C 0.73123 0.58413 0.29135 0.0
C1107 C 0.7486 0.60573 0.27996 0.0
C1108 C 0.75309 0.62814 0.29865 0.0
C1109 C 0.73982 0.62884 0.32817 0.0
C1110 C 0.72605 0.55988 0.27208 0.0
C1111 C 0.77146 0.65157 0.28726 0.0
C1112 C 0.80396 0.59619 0.2122 0.0
C1113 C 0.78572 0.60581 0.18776 0.0
C1114 C 0.79208 0.59579 0.24233 0.0
C1115 C 0.76127 0.60529 0.24811 0.0
C1116 C 0.74266 0.61483 0.22353 0.0
C1117 C 0.75509 0.61495 0.19365 0.0
C1118 C 0.81256 0.58542 0.26799 0.0
C1119 C 0.70971 0.62517 0.22883 0.0
H1120 H 0.70456 0.56893 0.32951 0.0
H1121 H 0.74301 0.64616 0.34229 0.0
H1122 H 0.71256 0.56503 0.25107 0.0
H1123 H 0.74903 0.55173 0.26449 0.0
H1124 H 0.71296 0.54441 0.28473 0.0
H1125 H 0.77359 0.66716 0.30499 0.0
H1126 H 0.79548 0.64546 0.28012 0.0
H1127 H 0.75969 0.66001 0.26673 0.0
H1128 H 0.82763 0.58905 0.20785 0.0
H1129 H 0.74082 0.62241 0.17492 0.0
H1130 H 0.80037 0.56912 0.28 0.0
H1131 H 0.81674 0.60108 0.28523 0.0
H1132 H 0.83573 0.57822 0.25955 0.0
H1133 H 0.69492 0.60982 0.23973 0.0
H1134 H 0.69814 0.63154 0.20716 0.0
H1135 H 0.71046 0.64209 0.24486 0.0
C1136 C 0.74921 0.39206 0.68819 0.0
C1137 C 0.7249 0.3762 0.67671 0.0
C1138 C 0.757 0.39179 0.71957 0.0
C1139 C 0.7401 0.37524 0.73985 0.0
C1140 C 0.7156 0.35917 0.72839 0.0
C1141 C 0.7083 0.35984 0.69697 0.0
C1142 C 0.78328 0.40919 0.73103 0.0
C1143 C 0.69711 0.34121 0.74931 0.0
C1144 C 0.77733 0.35488 0.81544 0.0
C1145 C 0.76185 0.37136 0.83645 0.0
C1146 C 0.77075 0.35619 0.78389 0.0
C1147 C 0.7482 0.37444 0.77306 0.0
C1148 C 0.73272 0.39132 0.79406 0.0
C1149 C 0.73972 0.38957 0.82554 0.0
C1150 C 0.78768 0.33782 0.76218 0.0
C1151 C 0.70856 0.41106 0.7833 0.0
H1152 H 0.76211 0.40478 0.67271 0.0
H1153 H 0.68948 0.34751 0.68832 0.0
H1154 H 0.77421 0.42268 0.74899 0.0
H1155 H 0.80201 0.39707 0.74179 0.0
H1156 H 0.79399 0.42104 0.71232 0.0
H1157 H 0.67868 0.33004 0.73677 0.0
H1158 H 0.71326 0.32706 0.76062 0.0
H1159 H 0.6856 0.3528 0.76777 0.0
H1160 H 0.79452 0.34078 0.82364 0.0
H1161 H 0.72774 0.40242 0.8416 0.0
H1162 H 0.80009 0.3492 0.74413 0.0
H1163 H 0.77035 0.32499 0.75042 0.0
H1164 H 0.80516 0.32522 0.77421 0.0
H1165 H 0.71907 0.42417 0.76572 0.0
H1166 H 0.69931 0.42327 0.80245 0.0
H1167 H 0.68849 0.40075 0.77228 0.0
C1168 C 0.27221 0.38692 0.68058 0.0
C1169 C 0.27924 0.3626 0.66712 0.0
C1170 C 0.26031 0.3885 0.71062 0.0
C1171 C 0.25515 0.3652 0.72755 0.0
C1172 C 0.26188 0.34058 0.71402 0.0
C1173 C 0.27394 0.33957 0.68397 0.0
C1174 C 0.25351 0.41513 0.72434 0.0
C1175 C 0.25648 0.31531 0.73132 0.0
C1176 C 0.25233 0.36994 0.81465 0.0
C1177 C 0.21976 0.36985 0.82029 0.0
C1178 C 0.26417 0.36837 0.78457 0.0
C1179 C 0.24293 0.36664 0.75955 0.0
C1180 C 0.21004 0.36652 0.76506 0.0
C1181 C 0.19884 0.36815 0.79537 0.0
C1182 C 0.29941 0.36861 0.77956 0.0
C1183 C 0.18668 0.36467 0.73895 0.0
H1184 H 0.27628 0.40482 0.66775 0.0
H1185 H 0.27922 0.3207 0.67371 0.0
H1186 H 0.22838 0.41638 0.73131 0.0
H1187 H 0.26791 0.41802 0.74536 0.0
H1188 H 0.25862 0.43136 0.70805 0.0
H1189 H 0.26245 0.29775 0.71735 0.0
H1190 H 0.27101 0.31505 0.75254 0.0
H1191 H 0.23144 0.3139 0.73852 0.0
H1192 H 0.26866 0.37123 0.83376 0.0
H1193 H 0.17364 0.36804 0.7995 0.0
H1194 H 0.30602 0.38546 0.76477 0.0
H1195 H 0.30681 0.3505 0.76737 0.0
H1196 H 0.31274 0.36999 0.80148 0.0
H1197 H 0.18988 0.38145 0.72303 0.0
H1198 H 0.16186 0.3646 0.74714 0.0
H1199 H 0.19095 0.3465 0.72554 0.0
C1200 C 0.2848 0.65079 0.29231 0.0
C1201 C 0.26674 0.6427 0.31763 0.0
C1202 C 0.27124 0.65332 0.26305 0.0
C1203 C 0.23885 0.64762 0.25901 0.0
C1204 C 0.22041 0.63972 0.28451 0.0
C1205 C 0.23457 0.63736 0.31353 0.0
C1206 C 0.29164 0.66181 0.23639 0.0
C1207 C 0.18578 0.63349 0.28105 0.0
C1208 C 0.19674 0.67415 0.1885 0.0
C1209 C 0.19651 0.65213 0.16916 0.0
C1210 C 0.21058 0.67302 0.21778 0.0
C1211 C 0.22444 0.64929 0.22795 0.0
C1212 C 0.22445 0.62706 0.20848 0.0
C1213 C 0.21053 0.62875 0.1793 0.0
C1214 C 0.21025 0.69716 0.23791 0.0
C1215 C 0.239 0.6014 0.21854 0.0
H1216 H 0.30966 0.655 0.29527 0.0
H1217 H 0.22044 0.63115 0.33297 0.0
H1218 H 0.29219 0.64618 0.21865 0.0
H1219 H 0.28154 0.67958 0.22544 0.0
H1220 H 0.31624 0.66614 0.24354 0.0
H1221 H 0.17458 0.62819 0.30329 0.0
H1222 H 0.17312 0.6506 0.27126 0.0
H1223 H 0.1827 0.61693 0.26479 0.0
H1224 H 0.18599 0.69229 0.18082 0.0
H1225 H 0.21045 0.61163 0.16453 0.0
H1226 H 0.23471 0.70267 0.24419 0.0
H1227 H 0.19747 0.69296 0.25961 0.0
H1228 H 0.19883 0.71416 0.22646 0.0
H1229 H 0.26425 0.60434 0.22425 0.0
H1230 H 0.23722 0.58599 0.20058 0.0
H1231 H 0.22714 0.59425 0.23968 0.0
loop_
_geom_bond_atom_site_label_1
_geom_bond_atom_site_label_2
_geom_bond_distance
_geom_bond_site_symmetry_2
_ccdc_geom_bond_type
C0 O1 1.160 . S
C0 O7 1.185 . S
O1 C0 1.160 . S
O2 Zn3 1.899 . S
O2 C10 1.284 . S
Zn3 O2 1.899 . S
Zn3 O4 2.032 . S
Zn3 O7 2.086 . S
Zn3 O12 1.977 . S
O4 Zn3 2.032 . S
O4 C8 1.278 . S
C5 O6 1.203 . S
C5 O12 1.267 . S
O6 C5 1.203 . S
O7 C0 1.185 . S
O7 Zn3 2.086 . S
C8 O4 1.278 . S
C8 O9 1.211 . S
O9 C8 1.211 . S
C10 O2 1.284 . S
C10 O11 1.273 . S
O11 C10 1.273 . S
O12 Zn3 1.977 . S
O12 C5 1.267 . S
C13 O14 1.160 . S
C13 O20 1.185 . S
O14 C13 1.160 . S
O15 Zn16 1.899 . S
O15 C23 1.284 . S
Zn16 O15 1.899 . S
Zn16 O17 2.032 . S
Zn16 O20 2.086 . S
Zn16 O25 1.977 . S
O17 Zn16 2.032 . S
O17 C21 1.278 . S
C18 O19 1.203 . S
C18 O25 1.267 . S
O19 C18 1.203 . S
O20 C13 1.185 . S
O20 Zn16 2.086 . S
C21 O17 1.278 . S
C21 O22 1.211 . S
O22 C21 1.211 . S
C23 O15 1.284 . S
C23 O24 1.273 . S
O24 C23 1.273 . S
O25 Zn16 1.977 . S
O25 C18 1.267 . S
C26 O27 1.160 . S
C26 O33 1.185 . S
O27 C26 1.160 . S
O28 Zn29 1.899 . S
O28 C36 1.284 . S
Zn29 O28 1.899 . S
Zn29 O30 2.032 . S
Zn29 O33 2.086 . S
Zn29 O38 1.977 . S
O30 Zn29 2.032 . S
O30 C34 1.278 . S
C31 O32 1.203 . S
C31 O38 1.267 . S
O32 C31 1.203 . S
O33 C26 1.185 . S
O33 Zn29 2.086 . S
C34 O30 1.278 . S
C34 O35 1.211 . S
O35 C34 1.211 . S
C36 O28 1.284 . S
C36 O37 1.273 . S
O37 C36 1.273 . S
O38 Zn29 1.977 . S
O38 C31 1.267 . S
C39 O40 1.160 . S
C39 O46 1.185 . S
O40 C39 1.160 . S
O41 Zn42 1.899 . S
O41 C49 1.284 . S
Zn42 O41 1.899 . S
Zn42 O43 2.032 . S
Zn42 O46 2.086 . S
Zn42 O51 1.977 . S
O43 Zn42 2.032 . S
O43 C47 1.278 . S
C44 O45 1.203 . S
C44 O51 1.267 . S
O45 C44 1.203 . S
O46 C39 1.185 . S
O46 Zn42 2.086 . S
C47 O43 1.278 . S
C47 O48 1.211 . S
O48 C47 1.211 . S
C49 O41 1.284 . S
C49 O50 1.273 . S
O50 C49 1.273 . S
O51 Zn42 1.977 . S
O51 C44 1.267 . S
C52 O53 1.160 . S
C52 O59 1.185 . S
O53 C52 1.160 . S
O54 Zn55 1.899 . S
O54 C62 1.284 . S
Zn55 O54 1.899 . S
Zn55 O56 2.032 . S
Zn55 O59 2.086 . S
Zn55 O64 1.977 . S
O56 Zn55 2.032 . S
O56 C60 1.278 . S
C57 O58 1.203 . S
C57 O64 1.267 . S
O58 C57 1.203 . S
O59 C52 1.185 . S
O59 Zn55 2.086 . S
C60 O56 1.278 . S
C60 O61 1.211 . S
O61 C60 1.211 . S
C62 O54 1.284 . S
C62 O63 1.273 . S
O63 C62 1.273 . S
O64 Zn55 1.977 . S
O64 C57 1.267 . S
C65 O66 1.160 . S
C65 O72 1.185 . S
O66 C65 1.160 . S
O67 Zn68 1.899 . S
O67 C75 1.284 . S
Zn68 O67 1.899 . S
Zn68 O69 2.032 . S
Zn68 O72 2.086 . S
Zn68 O77 1.977 . S
O69 Zn68 2.032 . S
O69 C73 1.278 . S
C70 O71 1.203 . S
C70 O77 1.267 . S
O71 C70 1.203 . S
O72 C65 1.185 . S
O72 Zn68 2.086 . S
C73 O69 1.278 . S
C73 O74 1.211 . S
O74 C73 1.211 . S
C75 O67 1.284 . S
C75 O76 1.273 . S
O76 C75 1.273 . S
O77 Zn68 1.977 . S
O77 C70 1.267 . S
C78 O79 1.160 . S
C78 O85 1.185 . S
O79 C78 1.160 . S
O80 Zn81 1.899 . S
O80 C88 1.284 . S
Zn81 O80 1.899 . S
Zn81 O82 2.032 . S
Zn81 O85 2.086 . S
Zn81 O90 1.977 . S
O82 Zn81 2.032 . S
O82 C86 1.278 . S
C83 O84 1.203 . S
C83 O90 1.267 . S
O84 C83 1.203 . S
O85 C78 1.185 . S
O85 Zn81 2.086 . S
C86 O82 1.278 . S
C86 O87 1.211 . S
O87 C86 1.211 . S
C88 O80 1.284 . S
C88 O89 1.273 . S
O89 C88 1.273 . S
O90 Zn81 1.977 . S
O90 C83 1.267 . S
C91 O92 1.160 . S
C91 O98 1.185 . S
O92 C91 1.160 . S
O93 Zn94 1.899 . S
O93 C101 1.284 . S
Zn94 O93 1.899 . S
Zn94 O95 2.032 . S
Zn94 O98 2.086 . S
Zn94 O103 1.977 . S
O95 Zn94 2.032 . S
O95 C99 1.278 . S
C96 O97 1.203 . S
C96 O103 1.267 . S
O97 C96 1.203 . S
O98 C91 1.185 . S
O98 Zn94 2.086 . S
C99 O95 1.278 . S
C99 O100 1.211 . S
O100 C99 1.211 . S
C101 O93 1.284 . S
C101 O102 1.273 . S
O102 C101 1.273 . S
O103 Zn94 1.977 . S
O103 C96 1.267 . S
C104 O105 1.160 . S
C104 O111 1.185 . S
O105 C104 1.160 . S
O106 Zn107 1.899 . S
O106 C114 1.284 . S
Zn107 O106 1.899 . S
Zn107 O108 2.032 . S
Zn107 O111 2.086 . S
Zn107 O116 1.977 . S
O108 Zn107 2.032 . S
O108 C112 1.278 . S
C109 O110 1.203 . S
C109 O116 1.267 . S
O110 C109 1.203 . S
O111 C104 1.185 . S
O111 Zn107 2.086 . S
C112 O108 1.278 . S
C112 O113 1.211 . S
O113 C112 1.211 . S
C114 O106 1.284 . S
C114 O115 1.273 . S
O115 C114 1.273 . S
O116 Zn107 1.977 . S
O116 C109 1.267 . S
C117 O118 1.160 . S
C117 O124 1.185 . S
O118 C117 1.160 . S
O119 Zn120 1.899 . S
O119 C127 1.284 . S
Zn120 O119 1.899 . S
Zn120 O121 2.032 . S
Zn120 O124 2.086 . S
Zn120 O129 1.977 . S
O121 Zn120 2.032 . S
O121 C125 1.278 . S
C122 O123 1.203 . S
C122 O129 1.267 . S
O123 C122 1.203 . S
O124 C117 1.185 . S
O124 Zn120 2.086 . S
C125 O121 1.278 . S
C125 O126 1.211 . S
O126 C125 1.211 . S
C127 O119 1.284 . S
C127 O128 1.273 . S
O128 C127 1.273 . S
O129 Zn120 1.977 . S
O129 C122 1.267 . S
C130 O131 1.160 . S
C130 O137 1.185 . S
O131 C130 1.160 . S
O132 Zn133 1.899 . S
O132 C140 1.284 . S
Zn133 O132 1.899 . S
Zn133 O134 2.032 . S
Zn133 O137 2.086 . S
Zn133 O142 1.977 . S
O134 Zn133 2.032 . S
O134 C138 1.278 . S
C135 O136 1.203 . S
C135 O142 1.267 . S
O136 C135 1.203 . S
O137 C130 1.185 . S
O137 Zn133 2.086 . S
C138 O134 1.278 . S
C138 O139 1.211 . S
O139 C138 1.211 . S
C140 O132 1.284 . S
C140 O141 1.273 . S
O141 C140 1.273 . S
O142 Zn133 1.977 . S
O142 C135 1.267 . S
C143 O144 1.160 . S
C143 O150 1.185 . S
O144 C143 1.160 . S
O145 Zn146 1.899 . S
O145 C153 1.284 . S
Zn146 O145 1.899 . S
Zn146 O147 2.032 . S
Zn146 O150 2.086 . S
Zn146 O155 1.977 . S
O147 Zn146 2.032 . S
O147 C151 1.278 . S
C148 O149 1.203 . S
C148 O155 1.267 . S
O149 C148 1.203 . S
O150 C143 1.185 . S
O150 Zn146 2.086 . S
C151 O147 1.278 . S
C151 O152 1.211 . S
O152 C151 1.211 . S
C153 O145 1.284 . S
C153 O154 1.273 . S
O154 C153 1.273 . S
O155 Zn146 1.977 . S
O155 C148 1.267 . S
C156 O157 1.160 . S
C156 O163 1.185 . S
O157 C156 1.160 . S
O158 Zn159 1.899 . S
O158 C166 1.284 . S
Zn159 O158 1.899 . S
Zn159 O160 2.032 . S
Zn159 O163 2.086 . S
Zn159 O168 1.977 . S
O160 Zn159 2.032 . S
O160 C164 1.278 . S
C161 O162 1.203 . S
C161 O168 1.267 . S
O162 C161 1.203 . S
O163 C156 1.185 . S
O163 Zn159 2.086 . S
C164 O160 1.278 . S
C164 O165 1.211 . S
O165 C164 1.211 . S
C166 O158 1.284 . S
C166 O167 1.273 . S
O167 C166 1.273 . S
O168 Zn159 1.977 . S
O168 C161 1.267 . S
C169 O170 1.160 . S
C169 O176 1.185 . S
O170 C169 1.160 . S
O171 Zn172 1.899 . S
O171 C179 1.284 . S
Zn172 O171 1.899 . S
Zn172 O173 2.032 . S
Zn172 O176 2.086 . S
Zn172 O181 1.977 . S
O173 Zn172 2.032 . S
O173 C177 1.278 . S
C174 O175 1.203 . S
C174 O181 1.267 . S
O175 C174 1.203 . S
O176 C169 1.185 . S
O176 Zn172 2.086 . S
C177 O173 1.278 . S
C177 O178 1.211 . S
O178 C177 1.211 . S
C179 O171 1.284 . S
C179 O180 1.273 . S
O180 C179 1.273 . S
O181 Zn172 1.977 . S
O181 C174 1.267 . S
C182 O183 1.160 . S
C182 O189 1.185 . S
O183 C182 1.160 . S
O184 Zn185 1.899 . S
O184 C192 1.284 . S
Zn185 O184 1.899 . S
Zn185 O186 2.032 . S
Zn185 O189 2.086 . S
Zn185 O194 1.977 . S
O186 Zn185 2.032 . S
O186 C190 1.278 . S
C187 O188 1.203 . S
C187 O194 1.267 . S
O188 C187 1.203 . S
O189 C182 1.185 . S
O189 Zn185 2.086 . S
C190 O186 1.278 . S
C190 O191 1.211 . S
O191 C190 1.211 . S
C192 O184 1.284 . S
C192 O193 1.273 . S
O193 C192 1.273 . S
O194 Zn185 1.977 . S
O194 C187 1.267 . S
C195 O196 1.160 . S
C195 O202 1.185 . S
O196 C195 1.160 . S
O197 Zn198 1.899 . S
O197 C205 1.284 . S
Zn198 O197 1.899 . S
Zn198 O199 2.032 . S
Zn198 O202 2.086 . S
Zn198 O207 1.977 . S
O199 Zn198 2.032 . S
O199 C203 1.278 . S
C200 O201 1.203 . S
C200 O207 1.267 . S
O201 C200 1.203 . S
O202 C195 1.185 . S
O202 Zn198 2.086 . S
C203 O199 1.278 . S
C203 O204 1.211 . S
O204 C203 1.211 . S
C205 O197 1.284 . S
C205 O206 1.273 . S
O206 C205 1.273 . S
O207 Zn198 1.977 . S
O207 C200 1.267 . S
C208 C209 1.391 . S
C208 C210 1.394 . S
C208 H224 0.931 . S
C209 C208 1.391 . S
C209 C213 1.376 . S
C210 C208 1.394 . S
C210 C211 1.369 . S
C210 C214 1.531 . S
C211 C210 1.369 . S
C211 C212 1.410 . S
C211 C219 1.503 1_554 S
C212 C211 1.410 . S
C212 C213 1.392 . S
C212 C215 1.511 1_554 S
C213 C209 1.376 . S
C213 C212 1.392 . S
C213 H225 0.929 . S
C214 C210 1.531 . S
C214 H226 0.960 . S
C214 H227 0.962 . S
C214 H228 0.960 . S
C215 C212 1.511 1_556 S
C215 H229 0.961 . S
C215 H230 0.961 . S
C215 H231 0.961 1_556 S
C216 C217 1.370 . S
C216 C218 1.363 . S
C216 H232 0.931 . S
C217 C216 1.370 . S
C217 C221 1.408 . S
C218 C216 1.363 . S
C218 C219 1.370 . S
C218 C222 1.524 . S
C219 C211 1.503 1_556 S
C219 C218 1.370 . S
C219 C220 1.403 1_556 S
C220 C219 1.403 1_554 S
C220 C221 1.404 1_554 S
C220 C223 1.539 . S
C221 C217 1.408 . S
C221 C220 1.404 1_556 S
C221 H233 0.930 . S
C222 C218 1.524 . S
C222 H234 0.956 . S
C222 H235 0.961 . S
C222 H236 0.961 . S
C223 C220 1.539 . S
C223 H237 0.958 . S
C223 H238 0.961 . S
C223 H239 0.960 . S
H224 C208 0.931 . S
H225 C213 0.929 . S
H226 C214 0.960 . S
H227 C214 0.962 . S
H228 C214 0.960 . S
H229 C215 0.961 . S
H230 C215 0.961 . S
H231 C215 0.961 1_554 S
H232 C216 0.931 . S
H233 C221 0.930 . S
H234 C222 0.956 . S
H235 C222 0.961 . S
H236 C222 0.961 . S
H237 C223 0.958 . S
H238 C223 0.961 . S
H239 C223 0.960 . S
C240 C241 1.391 . S
C240 C242 1.394 . S
C240 H256 0.931 . S
C241 C240 1.391 . S
C241 C245 1.376 . S
C242 C240 1.394 . S
C242 C243 1.369 . S
C242 C246 1.531 . S
C243 C242 1.369 . S
C243 C244 1.410 . S
C243 C251 1.503 . S
C244 C243 1.410 . S
C244 C245 1.392 . S
C244 C247 1.511 . S
C245 C241 1.376 . S
C245 C244 1.392 . S
C245 H257 0.929 . S
C246 C242 1.531 . S
C246 H258 0.960 . S
C246 H259 0.962 . S
C246 H260 0.960 . S
C247 C244 1.511 . S
C247 H261 0.961 . S
C247 H262 0.961 . S
C247 H263 0.961 . S
C248 C249 1.370 . S
C248 C250 1.363 . S
C248 H264 0.931 . S
C249 C248 1.370 . S
C249 C253 1.408 . S
C250 C248 1.363 . S
C250 C251 1.370 . S
C250 C254 1.524 . S
C251 C243 1.503 . S
C251 C250 1.370 . S
C251 C252 1.403 . S
C252 C251 1.403 . S
C252 C253 1.404 . S
C252 C255 1.539 . S
C253 C249 1.408 . S
C253 C252 1.404 . S
C253 H265 0.930 . S
C254 C250 1.524 . S
C254 H266 0.956 . S
C254 H267 0.961 . S
C254 H268 0.961 . S
C255 C252 1.539 . S
C255 H269 0.958 . S
C255 H270 0.961 . S
C255 H271 0.960 . S
H256 C240 0.931 . S
H257 C245 0.929 . S
H258 C246 0.960 . S
H259 C246 0.962 . S
H260 C246 0.960 . S
H261 C247 0.961 . S
H262 C247 0.961 . S
H263 C247 0.961 . S
H264 C248 0.931 . S
H265 C253 0.930 . S
H266 C254 0.956 . S
H267 C254 0.961 . S
H268 C254 0.961 . S
H269 C255 0.958 . S
H270 C255 0.961 . S
H271 C255 0.960 . S
C272 C273 1.391 . S
C272 C274 1.394 1_556 S
C272 H288 0.931 . S
C273 C272 1.391 . S
C273 C277 1.376 . S
C274 C272 1.394 1_554 S
C274 C275 1.369 1_554 S
C274 C278 1.531 . S
C275 C274 1.369 1_556 S
C275 C276 1.410 . S
C275 C283 1.503 1_556 S
C276 C275 1.410 . S
C276 C277 1.392 . S
C276 C279 1.511 . S
C277 C273 1.376 . S
C277 C276 1.392 . S
C277 H289 0.929 . S
C278 C274 1.531 . S
C278 H290 0.960 . S
C278 H291 0.962 . S
C278 H292 0.960 . S
C279 C276 1.511 . S
C279 H293 0.961 . S
C279 H294 0.961 . S
C279 H295 0.961 . S
C280 C281 1.370 . S
C280 C282 1.363 . S
C280 H296 0.931 . S
C281 C280 1.370 . S
C281 C285 1.408 . S
C282 C280 1.363 . S
C282 C283 1.370 . S
C282 C286 1.524 1_554 S
C283 C275 1.503 1_554 S
C283 C282 1.370 . S
C283 C284 1.403 . S
C284 C283 1.403 . S
C284 C285 1.404 . S
C284 C287 1.539 . S
C285 C281 1.408 . S
C285 C284 1.404 . S
C285 H297 0.930 . S
C286 C282 1.524 1_556 S
C286 H298 0.956 . S
C286 H299 0.961 . S
C286 H300 0.961 . S
C287 C284 1.539 . S
C287 H301 0.958 . S
C287 H302 0.961 . S
C287 H303 0.960 . S
H288 C272 0.931 . S
H289 C277 0.929 . S
H290 C278 0.960 . S
H291 C278 0.962 . S
H292 C278 0.960 . S
H293 C279 0.961 . S
H294 C279 0.961 . S
H295 C279 0.961 . S
H296 C280 0.931 . S
H297 C285 0.930 . S
H298 C286 0.956 . S
H299 C286 0.961 . S
H300 C286 0.961 . S
H301 C287 0.958 . S
H302 C287 0.961 . S
H303 C287 0.960 . S
C304 C305 1.391 . S
C304 C306 1.394 . S
C304 H320 0.931 . S
C305 C304 1.391 . S
C305 C309 1.376 . S
C306 C304 1.394 . S
C306 C307 1.369 . S
C306 C310 1.531 . S
C307 C306 1.369 . S
C307 C308 1.410 . S
C307 C315 1.503 . S
C308 C307 1.410 . S
C308 C309 1.392 . S
C308 C311 1.511 . S
C309 C305 1.376 . S
C309 C308 1.392 . S
C309 H321 0.929 . S
C310 C306 1.531 . S
C310 H322 0.960 . S
C310 H323 0.962 . S
C310 H324 0.960 . S
C311 C308 1.511 . S
C311 H325 0.961 . S
C311 H326 0.961 . S
C311 H327 0.961 . S
C312 C313 1.370 . S
C312 C314 1.363 . S
C312 H328 0.931 . S
C313 C312 1.370 . S
C313 C317 1.408 . S
C314 C312 1.363 . S
C314 C315 1.370 . S
C314 C318 1.524 . S
C315 C307 1.503 . S
C315 C314 1.370 . S
C315 C316 1.403 . S
C316 C315 1.403 . S
C316 C317 1.404 . S
C316 C319 1.539 . S
C317 C313 1.408 . S
C317 C316 1.404 . S
C317 H329 0.930 . S
C318 C314 1.524 . S
C318 H330 0.956 . S
C318 H331 0.961 . S
C318 H332 0.961 . S
C319 C316 1.539 . S
C319 H333 0.958 . S
C319 H334 0.961 . S
C319 H335 0.960 . S
H320 C304 0.931 . S
H321 C309 0.929 . S
H322 C310 0.960 . S
H323 C310 0.962 . S
H324 C310 0.960 . S
H325 C311 0.961 . S
H326 C311 0.961 . S
H327 C311 0.961 . S
H328 C312 0.931 . S
H329 C317 0.930 . S
H330 C318 0.956 . S
H331 C318 0.961 . S
H332 C318 0.961 . S
H333 C319 0.958 . S
H334 C319 0.961 . S
H335 C319 0.960 . S
C336 C337 1.391 . S
C336 C338 1.394 . S
C336 H352 0.931 . S
C337 C336 1.391 . S
C337 C341 1.376 . S
C338 C336 1.394 . S
C338 C339 1.369 . S
C338 C342 1.531 . S
C339 C338 1.369 . S
C339 C340 1.410 . S
C339 C347 1.503 1_554 S
C340 C339 1.410 . S
C340 C341 1.392 . S
C340 C343 1.511 1_554 S
C341 C337 1.376 . S
C341 C340 1.392 . S
C341 H353 0.929 . S
C342 C338 1.531 . S
C342 H354 0.960 . S
C342 H355 0.962 . S
C342 H356 0.960 . S
C343 C340 1.511 1_556 S
C343 H357 0.961 . S
C343 H358 0.961 . S
C343 H359 0.961 . S
C344 C345 1.370 . S
C344 C346 1.363 . S
C344 H360 0.931 . S
C345 C344 1.370 . S
C345 C349 1.408 . S
C346 C344 1.363 . S
C346 C347 1.370 . S
C346 C350 1.524 . S
C347 C339 1.503 1_556 S
C347 C346 1.370 . S
C347 C348 1.403 1_556 S
C348 C347 1.403 1_554 S
C348 C349 1.404 1_554 S
C348 C351 1.539 . S
C349 C345 1.408 . S
C349 C348 1.404 1_556 S
C349 H361 0.930 . S
C350 C346 1.524 . S
C350 H362 0.956 . S
C350 H363 0.961 . S
C350 H364 0.961 . S
C351 C348 1.539 . S
C351 H365 0.958 . S
C351 H366 0.961 . S
C351 H367 0.960 . S
H352 C336 0.931 . S
H353 C341 0.929 . S
H354 C342 0.960 . S
H355 C342 0.962 . S
H356 C342 0.960 . S
H357 C343 0.961 . S
H358 C343 0.961 . S
H359 C343 0.961 . S
H360 C344 0.931 . S
H361 C349 0.930 . S
H362 C350 0.956 . S
H363 C350 0.961 . S
H364 C350 0.961 . S
H365 C351 0.958 . S
H366 C351 0.961 . S
H367 C351 0.960 . S
C368 C369 1.391 . S
C368 C370 1.394 . S
C368 H384 0.931 . S
C369 C368 1.391 . S
C369 C373 1.376 . S
C370 C368 1.394 . S
C370 C371 1.369 . S
C370 C374 1.531 . S
C371 C370 1.369 . S
C371 C372 1.410 . S
C371 C379 1.503 . S
C372 C371 1.410 . S
C372 C373 1.392 . S
C372 C375 1.511 . S
C373 C369 1.376 . S
C373 C372 1.392 . S
C373 H385 0.929 . S
C374 C370 1.531 . S
C374 H386 0.960 . S
C374 H387 0.962 . S
C374 H388 0.960 . S
C375 C372 1.511 . S
C375 H389 0.961 . S
C375 H390 0.961 . S
C375 H391 0.961 . S
C376 C377 1.370 . S
C376 C378 1.363 . S
C376 H392 0.931 . S
C377 C376 1.370 . S
C377 C381 1.408 . S
C378 C376 1.363 . S
C378 C379 1.370 . S
C378 C382 1.524 . S
C379 C371 1.503 . S
C379 C378 1.370 . S
C379 C380 1.403 . S
C380 C379 1.403 . S
C380 C381 1.404 . S
C380 C383 1.539 . S
C381 C377 1.408 . S
C381 C380 1.404 . S
C381 H393 0.930 . S
C382 C378 1.524 . S
C382 H394 0.956 . S
C382 H395 0.961 . S
C382 H396 0.961 . S
C383 C380 1.539 . S
C383 H397 0.958 . S
C383 H398 0.961 . S
C383 H399 0.960 . S
H384 C368 0.931 . S
H385 C373 0.929 . S
H386 C374 0.960 . S
H387 C374 0.962 . S
H388 C374 0.960 . S
H389 C375 0.961 . S
H390 C375 0.961 . S
H391 C375 0.961 . S
H392 C376 0.931 . S
H393 C381 0.930 . S
H394 C382 0.956 . S
H395 C382 0.961 . S
H396 C382 0.961 . S
H397 C383 0.958 . S
H398 C383 0.961 . S
H399 C383 0.960 . S
C400 C401 1.391 . S
C400 C402 1.394 . S
C400 H416 0.931 . S
C401 C400 1.391 . S
C401 C405 1.376 . S
C402 C400 1.394 . S
C402 C403 1.369 . S
C402 C406 1.531 . S
C403 C402 1.369 . S
C403 C404 1.412 . S
C403 C411 1.503 1_556 S
C404 C403 1.412 . S
C404 C405 1.414 . S
C404 C407 1.489 1_556 S
C405 C401 1.376 . S
C405 C404 1.414 . S
C405 H417 0.929 . S
C406 C402 1.531 . S
C406 H418 0.960 . S
C406 H419 0.962 . S
C406 H420 0.960 . S
C407 C404 1.489 1_554 S
C407 H421 0.961 . S
C407 H422 0.961 . S
C407 H423 0.961 . S
C408 C409 1.370 . S
C408 C410 1.363 1_554 S
C408 H424 0.931 . S
C409 C408 1.370 . S
C409 C413 1.408 . S
C410 C408 1.363 1_556 S
C410 C411 1.370 1_556 S
C410 C414 1.524 . S
C411 C403 1.503 1_554 S
C411 C410 1.370 1_554 S
C411 C412 1.403 . S
C412 C411 1.403 . S
C412 C413 1.404 . S
C412 C415 1.539 . S
C413 C409 1.408 . S
C413 C412 1.404 . S
C413 H425 0.930 . S
C414 C410 1.524 . S
C414 H426 0.956 . S
C414 H427 0.961 . S
C414 H428 0.961 . S
C415 C412 1.539 . S
C415 H429 0.958 . S
C415 H430 0.961 . S
C415 H431 0.960 . S
H416 C400 0.931 . S
H417 C405 0.929 . S
H418 C406 0.960 . S
H419 C406 0.962 . S
H420 C406 0.960 . S
H421 C407 0.961 . S
H422 C407 0.961 . S
H423 C407 0.961 . S
H424 C408 0.931 . S
H425 C413 0.930 . S
H426 C414 0.956 . S
H427 C414 0.961 . S
H428 C414 0.961 . S
H429 C415 0.958 . S
H430 C415 0.961 . S
H431 C415 0.960 . S
C432 C433 1.391 . S
C432 C434 1.394 . S
C432 H448 0.931 . S
C433 C432 1.391 . S
C433 C437 1.376 . S
C434 C432 1.394 . S
C434 C435 1.369 . S
C434 C438 1.531 . S
C435 C434 1.369 . S
C435 C436 1.410 . S
C435 C443 1.503 . S
C436 C435 1.410 . S
C436 C437 1.392 . S
C436 C439 1.511 . S
C437 C433 1.376 . S
C437 C436 1.392 . S
C437 H449 0.929 . S
C438 C434 1.531 . S
C438 H450 0.960 . S
C438 H451 0.962 . S
C438 H452 0.960 . S
C439 C436 1.511 . S
C439 H453 0.961 . S
C439 H454 0.961 . S
C439 H455 0.961 . S
C440 C441 1.370 . S
C440 C442 1.363 . S
C440 H456 0.931 . S
C441 C440 1.370 . S
C441 C445 1.408 . S
C442 C440 1.363 . S
C442 C443 1.370 . S
C442 C446 1.524 . S
C443 C435 1.503 . S
C443 C442 1.370 . S
C443 C444 1.403 . S
C444 C443 1.403 . S
C444 C445 1.404 . S
C444 C447 1.539 . S
C445 C441 1.408 . S
C445 C444 1.404 . S
C445 H457 0.930 . S
C446 C442 1.524 . S
C446 H458 0.956 . S
C446 H459 0.961 . S
C446 H460 0.961 . S
C447 C444 1.539 . S
C447 H461 0.958 . S
C447 H462 0.961 . S
C447 H463 0.960 . S
H448 C432 0.931 . S
H449 C437 0.929 . S
H450 C438 0.960 . S
H451 C438 0.962 . S
H452 C438 0.960 . S
H453 C439 0.961 . S
H454 C439 0.961 . S
H455 C439 0.961 . S
H456 C440 0.931 . S
H457 C445 0.930 . S
H458 C446 0.956 . S
H459 C446 0.961 . S
H460 C446 0.961 . S
H461 C447 0.958 . S
H462 C447 0.961 . S
H463 C447 0.960 . S
C464 C465 1.391 . S
C464 C466 1.394 . S
C464 H480 0.931 . S
C465 C464 1.391 . S
C465 C469 1.376 . S
C466 C464 1.394 . S
C466 C467 1.369 . S
C466 C470 1.531 1_554 S
C467 C466 1.369 . S
C467 C468 1.410 . S
C467 C475 1.503 1_544 S
C468 C467 1.410 . S
C468 C469 1.392 . S
C468 C471 1.511 . S
C469 C465 1.376 . S
C469 C468 1.392 . S
C469 H481 0.929 . S
C470 C466 1.531 1_556 S
C470 H482 0.960 . S
C470 H483 0.962 . S
C470 H484 0.960 . S
C471 C468 1.511 . S
C471 H485 0.961 . S
C471 H486 0.961 1_545 S
C471 H487 0.961 . S
C472 C473 1.370 . S
C472 C474 1.363 1_556 S
C472 H488 0.931 . S
C473 C472 1.370 . S
C473 C477 1.408 . S
C474 C472 1.363 1_554 S
C474 C475 1.370 1_554 S
C474 C478 1.524 . S
C475 C467 1.503 1_566 S
C475 C474 1.370 1_556 S
C475 C476 1.403 . S
C476 C475 1.403 . S
C476 C477 1.404 . S
C476 C479 1.539 1_565 S
C477 C473 1.408 . S
C477 C476 1.404 . S
C477 H489 0.930 . S
C478 C474 1.524 . S
C478 H490 0.956 . S
C478 H491 0.961 . S
C478 H492 0.961 . S
C479 C476 1.539 1_545 S
C479 H493 0.958 . S
C479 H494 0.961 . S
C479 H495 0.960 . S
H480 C464 0.931 . S
H481 C469 0.929 . S
H482 C470 0.960 . S
H483 C470 0.962 . S
H484 C470 0.960 . S
H485 C471 0.961 . S
H486 C471 0.961 1_565 S
H487 C471 0.961 . S
H488 C472 0.931 . S
H489 C477 0.930 . S
H490 C478 0.956 . S
H491 C478 0.961 . S
H492 C478 0.961 . S
H493 C479 0.958 . S
H494 C479 0.961 . S
H495 C479 0.960 . S
C496 C497 1.391 . S
C496 C498 1.394 . S
C496 H512 0.931 . S
C497 C496 1.391 . S
C497 C501 1.376 . S
C498 C496 1.394 . S
C498 C499 1.369 . S
C498 C502 1.531 1_565 S
C499 C498 1.369 . S
C499 C500 1.410 . S
C499 C507 1.503 1_565 S
C500 C499 1.410 . S
C500 C501 1.392 . S
C500 C503 1.511 . S
C501 C497 1.376 . S
C501 C500 1.392 . S
C501 H513 0.929 . S
C502 C498 1.531 1_545 S
C502 H514 0.960 . S
C502 H515 0.962 . S
C502 H516 0.960 . S
C503 C500 1.511 . S
C503 H517 0.961 . S
C503 H518 0.961 . S
C503 H519 0.961 . S
C504 C505 1.370 . S
C504 C506 1.363 . S
C504 H520 0.931 . S
C505 C504 1.370 . S
C505 C509 1.408 . S
C506 C504 1.363 . S
C506 C507 1.370 . S
C506 C510 1.524 1_545 S
C507 C499 1.503 1_545 S
C507 C506 1.370 . S
C507 C508 1.403 . S
C508 C507 1.403 . S
C508 C509 1.404 . S
C508 C511 1.539 . S
C509 C505 1.408 . S
C509 C508 1.404 . S
C509 H521 0.930 . S
C510 C506 1.524 1_565 S
C510 H522 0.956 . S
C510 H523 0.961 . S
C510 H524 0.951 1_565 S
C511 C508 1.539 . S
C511 H525 0.958 . S
C511 H526 0.961 . S
C511 H527 0.960 . S
H512 C496 0.931 . S
H513 C501 0.929 . S
H514 C502 0.960 . S
H515 C502 0.962 . S
H516 C502 0.960 . S
H517 C503 0.961 . S
H518 C503 0.961 . S
H519 C503 0.961 . S
H520 C504 0.931 . S
H521 C509 0.930 . S
H522 C510 0.956 . S
H523 C510 0.961 . S
H524 C510 0.951 1_545 S
H525 C511 0.958 . S
H526 C511 0.961 . S
H527 C511 0.960 . S
C528 C529 1.391 . S
C528 C530 1.394 . S
C528 H544 0.931 . S
C529 C528 1.391 . S
C529 C533 1.376 . S
C530 C528 1.394 . S
C530 C531 1.369 . S
C530 C534 1.531 1_565 S
C531 C530 1.369 . S
C531 C532 1.410 . S
C531 C539 1.503 1_566 S
C532 C531 1.410 . S
C532 C533 1.392 . S
C532 C535 1.511 1_556 S
C533 C529 1.376 . S
C533 C532 1.392 . S
C533 H545 0.929 . S
C534 C530 1.531 1_545 S
C534 H546 0.960 . S
C534 H547 0.961 1_545 S
C534 H548 0.960 1_545 S
C535 C532 1.511 1_554 S
C535 H549 0.961 . S
C535 H550 0.961 . S
C535 H551 0.945 1_554 S
C536 C537 1.370 . S
C536 C538 1.363 . S
C536 H552 0.931 . S
C537 C536 1.370 . S
C537 C541 1.408 . S
C538 C536 1.363 . S
C538 C539 1.370 . S
C538 C542 1.524 1_545 S
C539 C531 1.503 1_544 S
C539 C538 1.370 . S
C539 C540 1.403 1_554 S
C540 C539 1.403 1_556 S
C540 C541 1.404 1_556 S
C540 C543 1.539 . S
C541 C537 1.408 . S
C541 C540 1.404 1_554 S
C541 H553 0.930 1_554 S
C542 C538 1.524 1_565 S
C542 H554 0.956 . S
C542 H555 0.961 . S
C542 H556 0.961 . S
C543 C540 1.539 . S
C543 H557 0.958 . S
C543 H558 0.961 . S
C543 H559 0.960 . S
H544 C528 0.931 . S
H545 C533 0.929 . S
H546 C534 0.960 . S
H547 C534 0.961 1_565 S
H548 C534 0.960 1_565 S
H549 C535 0.961 . S
H550 C535 0.961 . S
H551 C535 0.945 1_556 S
H552 C536 0.931 . S
H553 C541 0.930 1_556 S
H554 C542 0.956 . S
H555 C542 0.961 . S
H556 C542 0.961 . S
H557 C543 0.958 . S
H558 C543 0.961 . S
H559 C543 0.960 . S
C560 C561 1.391 . S
C560 C562 1.394 . S
C560 H576 0.931 . S
C561 C560 1.391 . S
C561 C565 1.376 . S
C562 C560 1.394 . S
C562 C563 1.369 . S
C562 C566 1.531 . S
C563 C562 1.369 . S
C563 C564 1.410 . S
C563 C571 1.503 1_545 S
C564 C563 1.410 . S
C564 C565 1.392 . S
C564 C567 1.511 . S
C565 C561 1.376 . S
C565 C564 1.392 . S
C565 H577 0.929 . S
C566 C562 1.531 . S
C566 H578 0.960 . S
C566 H579 0.962 . S
C566 H580 0.960 . S
C567 C564 1.511 . S
C567 H581 0.961 . S
C567 H582 0.961 1_545 S
C567 H583 0.961 . S
C568 C569 1.370 . S
C568 C570 1.363 . S
C568 H584 0.931 . S
C569 C568 1.370 . S
C569 C573 1.408 . S
C570 C568 1.363 . S
C570 C571 1.370 . S
C570 C574 1.524 . S
C571 C563 1.503 1_565 S
C571 C570 1.370 . S
C571 C572 1.403 . S
C572 C571 1.403 . S
C572 C573 1.404 . S
C572 C575 1.539 1_565 S
C573 C569 1.408 . S
C573 C572 1.404 . S
C573 H585 0.930 . S
C574 C570 1.524 . S
C574 H586 0.956 . S
C574 H587 0.961 . S
C574 H588 0.961 . S
C575 C572 1.539 1_545 S
C575 H589 0.958 . S
C575 H590 0.974 . S
C575 H591 0.960 . S
H576 C560 0.931 . S
H577 C565 0.929 . S
H578 C566 0.960 . S
H579 C566 0.962 . S
H580 C566 0.960 . S
H581 C567 0.961 . S
H582 C567 0.961 1_565 S
H583 C567 0.961 . S
H584 C568 0.931 . S
H585 C573 0.930 . S
H586 C574 0.956 . S
H587 C574 0.961 . S
H588 C574 0.961 . S
H589 C575 0.958 . S
H590 C575 0.974 . S
H591 C575 0.960 . S
C592 C593 1.391 . S
C592 C594 1.394 . S
C592 H608 0.931 . S
C593 C592 1.391 . S
C593 C597 1.376 . S
C594 C592 1.394 . S
C594 C595 1.369 . S
C594 C598 1.531 . S
C595 C594 1.369 . S
C595 C596 1.410 . S
C595 C603 1.503 1_556 S
C596 C595 1.410 . S
C596 C597 1.392 . S
C596 C599 1.511 1_556 S
C597 C593 1.376 . S
C597 C596 1.392 . S
C597 H609 0.929 . S
C598 C594 1.531 . S
C598 H610 0.960 . S
C598 H611 0.962 . S
C598 H612 0.960 . S
C599 C596 1.511 1_554 S
C599 H613 0.961 . S
C599 H614 0.961 . S
C599 H615 0.961 . S
C600 C601 1.370 . S
C600 C602 1.363 . S
C600 H616 0.931 . S
C601 C600 1.370 . S
C601 C605 1.408 . S
C602 C600 1.363 . S
C602 C603 1.370 . S
C602 C606 1.524 . S
C603 C595 1.503 1_554 S
C603 C602 1.370 . S
C603 C604 1.403 1_554 S
C604 C603 1.403 1_556 S
C604 C605 1.404 1_556 S
C604 C607 1.539 . S
C605 C601 1.408 . S
C605 C604 1.404 1_554 S
C605 H617 0.930 . S
C606 C602 1.524 . S
C606 H618 0.956 . S
C606 H619 0.961 . S
C606 H620 0.961 . S
C607 C604 1.539 . S
C607 H621 0.958 . S
C607 H622 0.961 . S
C607 H623 0.960 . S
H608 C592 0.931 . S
H609 C597 0.929 . S
H610 C598 0.960 . S
H611 C598 0.962 . S
H612 C598 0.960 . S
H613 C599 0.961 . S
H614 C599 0.961 . S
H615 C599 0.961 . S
H616 C600 0.931 . S
H617 C605 0.930 . S
H618 C606 0.956 . S
H619 C606 0.961 . S
H620 C606 0.961 . S
H621 C607 0.958 . S
H622 C607 0.961 . S
H623 C607 0.960 . S
C624 C625 1.391 . S
C624 C626 1.394 . S
C624 H640 0.931 . S
C625 C624 1.391 . S
C625 C629 1.376 . S
C626 C624 1.394 . S
C626 C627 1.369 . S
C626 C630 1.531 . S
C627 C626 1.369 . S
C627 C628 1.410 . S
C627 C635 1.503 . S
C628 C627 1.410 . S
C628 C629 1.392 . S
C628 C631 1.511 . S
C629 C625 1.376 . S
C629 C628 1.392 . S
C629 H641 0.929 . S
C630 C626 1.531 . S
C630 H642 0.960 . S
C630 H643 0.962 . S
C630 H644 0.960 . S
C631 C628 1.511 . S
C631 H645 0.961 . S
C631 H646 0.961 . S
C631 H647 0.961 . S
C632 C633 1.370 . S
C632 C634 1.363 . S
C632 H648 0.931 . S
C633 C632 1.370 . S
C633 C637 1.408 . S
C634 C632 1.363 . S
C634 C635 1.370 . S
C634 C638 1.524 . S
C635 C627 1.503 . S
C635 C634 1.370 . S
C635 C636 1.403 . S
C636 C635 1.403 . S
C636 C637 1.404 . S
C636 C639 1.539 . S
C637 C633 1.408 . S
C637 C636 1.404 . S
C637 H649 0.930 . S
C638 C634 1.524 . S
C638 H650 0.956 . S
C638 H651 0.961 . S
C638 H652 0.961 . S
C639 C636 1.539 . S
C639 H653 0.958 . S
C639 H654 0.961 . S
C639 H655 0.960 . S
H640 C624 0.931 . S
H641 C629 0.929 . S
H642 C630 0.960 . S
H643 C630 0.962 . S
H644 C630 0.960 . S
H645 C631 0.961 . S
H646 C631 0.961 . S
H647 C631 0.961 . S
H648 C632 0.931 . S
H649 C637 0.930 . S
H650 C638 0.956 . S
H651 C638 0.961 . S
H652 C638 0.961 . S
H653 C639 0.958 . S
H654 C639 0.961 . S
H655 C639 0.960 . S
C656 C657 1.391 . S
C656 C658 1.394 . S
C656 H672 0.931 . S
C657 C656 1.391 . S
C657 C661 1.376 . S
C658 C656 1.394 . S
C658 C659 1.369 . S
C658 C662 1.531 1_554 S
C659 C658 1.369 . S
C659 C660 1.410 . S
C659 C667 1.503 1_554 S
C660 C659 1.410 . S
C660 C661 1.392 . S
C660 C663 1.511 . S
C661 C657 1.376 . S
C661 C660 1.392 . S
C661 H673 0.929 . S
C662 C658 1.531 1_556 S
C662 H674 0.960 . S
C662 H675 0.963 1_556 S
C662 H676 0.960 . S
C663 C660 1.511 . S
C663 H677 0.961 . S
C663 H678 0.961 . S
C663 H679 0.961 1_554 S
C664 C665 1.370 . S
C664 C666 1.363 1_556 S
C664 H680 0.931 1_556 S
C665 C664 1.370 . S
C665 C669 1.408 . S
C666 C664 1.363 1_554 S
C666 C667 1.370 1_554 S
C666 C670 1.524 . S
C667 C659 1.503 1_556 S
C667 C666 1.370 1_556 S
C667 C668 1.403 . S
C668 C667 1.403 . S
C668 C669 1.404 . S
C668 C671 1.539 . S
C669 C665 1.408 . S
C669 C668 1.404 . S
C669 H681 0.930 . S
C670 C666 1.524 . S
C670 H682 0.956 . S
C670 H683 0.961 . S
C670 H684 0.961 . S
C671 C668 1.539 . S
C671 H685 0.958 . S
C671 H686 0.961 . S
C671 H687 0.960 . S
H672 C656 0.931 . S
H673 C661 0.929 . S
H674 C662 0.960 . S
H675 C662 0.963 1_554 S
H676 C662 0.960 . S
H677 C663 0.961 . S
H678 C663 0.961 . S
H679 C663 0.961 1_556 S
H680 C664 0.931 1_554 S
H681 C669 0.930 . S
H682 C670 0.956 . S
H683 C670 0.961 . S
H684 C670 0.961 . S
H685 C671 0.958 . S
H686 C671 0.961 . S
H687 C671 0.960 . S
C688 C689 1.391 . S
C688 C690 1.394 . S
C688 H704 0.931 . S
C689 C688 1.391 . S
C689 C693 1.376 . S
C690 C688 1.394 . S
C690 C691 1.369 . S
C690 C694 1.531 . S
C691 C690 1.369 . S
C691 C692 1.410 . S
C691 C699 1.503 . S
C692 C691 1.410 . S
C692 C693 1.392 . S
C692 C695 1.511 . S
C693 C689 1.376 . S
C693 C692 1.392 . S
C693 H705 0.929 . S
C694 C690 1.531 . S
C694 H706 0.960 . S
C694 H707 0.962 . S
C694 H708 0.960 . S
C695 C692 1.511 . S
C695 H709 0.961 . S
C695 H710 0.961 . S
C695 H711 0.961 . S
C696 C697 1.370 . S
C696 C698 1.363 . S
C696 H712 0.931 . S
C697 C696 1.370 . S
C697 C701 1.408 . S
C698 C696 1.363 . S
C698 C699 1.370 . S
C698 C702 1.524 . S
C699 C691 1.503 . S
C699 C698 1.370 . S
C699 C700 1.403 . S
C700 C699 1.403 . S
C700 C701 1.404 . S
C700 C703 1.539 . S
C701 C697 1.408 . S
C701 C700 1.404 . S
C701 H713 0.930 . S
C702 C698 1.524 . S
C702 H714 0.956 . S
C702 H715 0.961 . S
C702 H716 0.961 . S
C703 C700 1.539 . S
C703 H717 0.958 . S
C703 H718 0.961 . S
C703 H719 0.960 . S
H704 C688 0.931 . S
H705 C693 0.929 . S
H706 C694 0.960 . S
H707 C694 0.962 . S
H708 C694 0.960 . S
H709 C695 0.961 . S
H710 C695 0.961 . S
H711 C695 0.961 . S
H712 C696 0.931 . S
H713 C701 0.930 . S
H714 C702 0.956 . S
H715 C702 0.961 . S
H716 C702 0.961 . S
H717 C703 0.958 . S
H718 C703 0.961 . S
H719 C703 0.960 . S
C720 C721 1.391 . S
C720 C722 1.394 . S
C720 H736 0.931 . S
C721 C720 1.391 . S
C721 C725 1.376 . S
C722 C720 1.394 . S
C722 C723 1.369 . S
C722 C726 1.531 . S
C723 C722 1.369 . S
C723 C724 1.410 . S
C723 C731 1.503 . S
C724 C723 1.410 . S
C724 C725 1.392 . S
C724 C727 1.511 . S
C725 C721 1.376 . S
C725 C724 1.392 . S
C725 H737 0.929 . S
C726 C722 1.531 . S
C726 H738 0.960 . S
C726 H739 0.962 . S
C726 H740 0.960 . S
C727 C724 1.511 . S
C727 H741 0.961 . S
C727 H742 0.961 . S
C727 H743 0.961 . S
C728 C729 1.370 . S
C728 C730 1.363 . S
C728 H744 0.931 . S
C729 C728 1.370 . S
C729 C733 1.408 . S
C730 C728 1.363 . S
C730 C731 1.370 . S
C730 C734 1.524 . S
C731 C723 1.503 . S
C731 C730 1.370 . S
C731 C732 1.403 . S
C732 C731 1.403 . S
C732 C733 1.404 . S
C732 C735 1.539 . S
C733 C729 1.408 . S
C733 C732 1.404 . S
C733 H745 0.930 . S
C734 C730 1.524 . S
C734 H746 0.956 . S
C734 H747 0.961 . S
C734 H748 0.961 . S
C735 C732 1.539 . S
C735 H749 0.958 . S
C735 H750 0.961 . S
C735 H751 0.960 . S
H736 C720 0.931 . S
H737 C725 0.929 . S
H738 C726 0.960 . S
H739 C726 0.962 . S
H740 C726 0.960 . S
H741 C727 0.961 . S
H742 C727 0.961 . S
H743 C727 0.961 . S
H744 C728 0.931 . S
H745 C733 0.930 . S
H746 C734 0.956 . S
H747 C734 0.961 . S
H748 C734 0.961 . S
H749 C735 0.958 . S
H750 C735 0.961 . S
H751 C735 0.960 . S
C752 C753 1.391 . S
C752 C754 1.394 . S
C752 H768 0.931 . S
C753 C752 1.391 . S
C753 C757 1.376 . S
C754 C752 1.394 . S
C754 C755 1.369 . S
C754 C758 1.531 . S
C755 C754 1.369 . S
C755 C756 1.410 . S
C755 C763 1.503 1_655 S
C756 C755 1.410 . S
C756 C757 1.392 . S
C756 C759 1.511 . S
C757 C753 1.376 . S
C757 C756 1.392 . S
C757 H769 0.929 . S
C758 C754 1.531 . S
C758 H770 0.960 1_655 S
C758 H771 0.962 . S
C758 H772 0.960 . S
C759 C756 1.511 . S
C759 H773 0.961 . S
C759 H774 0.961 1_655 S
C759 H775 0.961 . S
C760 C761 1.370 . S
C760 C762 1.363 . S
C760 H776 0.931 . S
C761 C760 1.370 . S
C761 C765 1.408 . S
C762 C760 1.363 . S
C762 C763 1.370 . S
C762 C766 1.524 . S
C763 C755 1.503 1_455 S
C763 C762 1.370 . S
C763 C764 1.403 . S
C764 C763 1.403 . S
C764 C765 1.404 . S
C764 C767 1.539 . S
C765 C761 1.408 . S
C765 C764 1.404 . S
C765 H777 0.930 . S
C766 C762 1.524 . S
C766 H778 0.956 . S
C766 H779 0.961 . S
C766 H780 0.961 . S
C767 C764 1.539 . S
C767 H781 0.958 . S
C767 H782 0.961 . S
C767 H783 0.960 . S
H768 C752 0.931 . S
H769 C757 0.929 . S
H770 C758 0.960 1_455 S
H771 C758 0.962 . S
H772 C758 0.960 . S
H773 C759 0.961 . S
H774 C759 0.961 1_455 S
H775 C759 0.961 . S
H776 C760 0.931 . S
H777 C765 0.930 . S
H778 C766 0.956 . S
H779 C766 0.961 . S
H780 C766 0.961 . S
H781 C767 0.958 . S
H782 C767 0.961 . S
H783 C767 0.960 . S
C784 C785 1.391 . S
C784 C786 1.394 . S
C784 H800 0.931 . S
C785 C784 1.391 . S
C785 C789 1.376 . S
C786 C784 1.394 . S
C786 C787 1.369 . S
C786 C790 1.531 . S
C787 C786 1.369 . S
C787 C788 1.410 . S
C787 C795 1.503 . S
C788 C787 1.410 . S
C788 C789 1.392 . S
C788 C791 1.511 . S
C789 C785 1.376 . S
C789 C788 1.392 . S
C789 H801 0.929 . S
C790 C786 1.531 . S
C790 H802 0.960 . S
C790 H803 0.962 . S
C790 H804 0.960 . S
C791 C788 1.511 . S
C791 H805 0.961 . S
C791 H806 0.961 . S
C791 H807 0.961 . S
C792 C793 1.370 . S
C792 C794 1.363 . S
C792 H808 0.931 . S
C793 C792 1.370 . S
C793 C797 1.408 . S
C794 C792 1.363 . S
C794 C795 1.370 . S
C794 C798 1.524 . S
C795 C787 1.503 . S
C795 C794 1.370 . S
C795 C796 1.403 . S
C796 C795 1.403 . S
C796 C797 1.404 . S
C796 C799 1.539 . S
C797 C793 1.408 . S
C797 C796 1.404 . S
C797 H809 0.930 . S
C798 C794 1.524 . S
C798 H810 0.956 . S
C798 H811 0.961 . S
C798 H812 0.961 . S
C799 C796 1.539 . S
C799 H813 0.958 . S
C799 H814 0.961 . S
C799 H815 0.960 . S
H800 C784 0.931 . S
H801 C789 0.929 . S
H802 C790 0.960 . S
H803 C790 0.962 . S
H804 C790 0.960 . S
H805 C791 0.961 . S
H806 C791 0.961 . S
H807 C791 0.961 . S
H808 C792 0.931 . S
H809 C797 0.930 . S
H810 C798 0.956 . S
H811 C798 0.961 . S
H812 C798 0.961 . S
H813 C799 0.958 . S
H814 C799 0.961 . S
H815 C799 0.960 . S
C816 C817 1.391 . S
C816 C818 1.394 . S
C816 H832 0.931 . S
C817 C816 1.391 . S
C817 C821 1.376 . S
C818 C816 1.394 . S
C818 C819 1.369 . S
C818 C822 1.531 . S
C819 C818 1.369 . S
C819 C820 1.410 . S
C819 C827 1.503 1_455 S
C820 C819 1.410 . S
C820 C821 1.392 . S
C820 C823 1.511 . S
C821 C817 1.376 . S
C821 C820 1.392 . S
C821 H833 0.929 . S
C822 C818 1.531 . S
C822 H834 0.960 . S
C822 H835 0.962 . S
C822 H836 0.960 . S
C823 C820 1.511 . S
C823 H837 0.961 . S
C823 H838 0.961 . S
C823 H839 0.961 . S
C824 C825 1.370 . S
C824 C826 1.363 . S
C824 H840 0.931 . S
C825 C824 1.370 . S
C825 C829 1.408 . S
C826 C824 1.363 . S
C826 C827 1.370 . S
C826 C830 1.524 . S
C827 C819 1.503 1_655 S
C827 C826 1.370 . S
C827 C828 1.403 . S
C828 C827 1.403 . S
C828 C829 1.404 . S
C828 C831 1.539 . S
C829 C825 1.408 . S
C829 C828 1.404 . S
C829 H841 0.930 . S
C830 C826 1.524 . S
C830 H842 0.956 1_655 S
C830 H843 0.961 1_655 S
C830 H844 0.961 . S
C831 C828 1.539 . S
C831 H845 0.958 . S
C831 H846 0.961 . S
C831 H847 0.960 1_655 S
H832 C816 0.931 . S
H833 C821 0.929 . S
H834 C822 0.960 . S
H835 C822 0.962 . S
H836 C822 0.960 . S
H837 C823 0.961 . S
H838 C823 0.961 . S
H839 C823 0.961 . S
H840 C824 0.931 . S
H841 C829 0.930 . S
H842 C830 0.956 1_455 S
H843 C830 0.961 1_455 S
H844 C830 0.961 . S
H845 C831 0.958 . S
H846 C831 0.961 . S
H847 C831 0.960 1_455 S
C848 C849 1.391 . S
C848 C850 1.394 . S
C848 H864 0.931 . S
C849 C848 1.391 . S
C849 C853 1.376 . S
C850 C848 1.394 . S
C850 C851 1.369 . S
C850 C854 1.531 . S
C851 C850 1.369 . S
C851 C852 1.410 . S
C851 C859 1.503 1_455 S
C852 C851 1.410 . S
C852 C853 1.392 . S
C852 C855 1.511 . S
C853 C849 1.376 . S
C853 C852 1.392 . S
C853 H865 0.929 . S
C854 C850 1.531 . S
C854 H866 0.960 1_455 S
C854 H867 0.962 . S
C854 H868 0.960 . S
C855 C852 1.511 . S
C855 H869 0.961 . S
C855 H870 0.961 1_455 S
C855 H871 0.961 . S
C856 C857 1.370 . S
C856 C858 1.363 . S
C856 H872 0.931 . S
C857 C856 1.370 . S
C857 C861 1.408 . S
C858 C856 1.363 . S
C858 C859 1.370 . S
C858 C862 1.524 . S
C859 C851 1.503 1_655 S
C859 C858 1.370 . S
C859 C860 1.403 . S
C860 C859 1.403 . S
C860 C861 1.404 . S
C860 C863 1.539 . S
C861 C857 1.408 . S
C861 C860 1.404 . S
C861 H873 0.930 . S
C862 C858 1.524 . S
C862 H874 0.956 . S
C862 H875 0.961 . S
C862 H876 0.961 . S
C863 C860 1.539 . S
C863 H877 0.958 . S
C863 H878 0.961 . S
C863 H879 0.960 . S
H864 C848 0.931 . S
H865 C853 0.929 . S
H866 C854 0.960 1_655 S
H867 C854 0.962 . S
H868 C854 0.960 . S
H869 C855 0.961 . S
H870 C855 0.961 1_655 S
H871 C855 0.961 . S
H872 C856 0.931 . S
H873 C861 0.930 . S
H874 C862 0.956 . S
H875 C862 0.961 . S
H876 C862 0.961 . S
H877 C863 0.958 . S
H878 C863 0.961 . S
H879 C863 0.960 . S
C880 C881 1.391 . S
C880 C882 1.394 . S
C880 H896 0.931 . S
C881 C880 1.391 . S
C881 C885 1.376 . S
C882 C880 1.394 . S
C882 C883 1.369 . S
C882 C886 1.531 . S
C883 C882 1.369 . S
C883 C884 1.410 . S
C883 C891 1.503 . S
C884 C883 1.410 . S
C884 C885 1.392 . S
C884 C887 1.511 . S
C885 C881 1.376 . S
C885 C884 1.392 . S
C885 H897 0.929 . S
C886 C882 1.531 . S
C886 H898 0.960 . S
C886 H899 0.962 . S
C886 H900 0.960 . S
C887 C884 1.511 . S
C887 H901 0.961 . S
C887 H902 0.961 . S
C887 H903 0.961 . S
C888 C889 1.370 . S
C888 C890 1.363 . S
C888 H904 0.931 . S
C889 C888 1.370 . S
C889 C893 1.408 . S
C890 C888 1.363 . S
C890 C891 1.370 . S
C890 C894 1.524 . S
C891 C883 1.503 . S
C891 C890 1.370 . S
C891 C892 1.403 . S
C892 C891 1.403 . S
C892 C893 1.404 . S
C892 C895 1.539 . S
C893 C889 1.408 . S
C893 C892 1.404 . S
C893 H905 0.930 . S
C894 C890 1.524 . S
C894 H906 0.956 . S
C894 H907 0.961 . S
C894 H908 0.961 . S
C895 C892 1.539 . S
C895 H909 0.958 . S
C895 H910 0.961 . S
C895 H911 0.960 . S
H896 C880 0.931 . S
H897 C885 0.929 . S
H898 C886 0.960 . S
H899 C886 0.962 . S
H900 C886 0.960 . S
H901 C887 0.961 . S
H902 C887 0.961 . S
H903 C887 0.961 . S
H904 C888 0.931 . S
H905 C893 0.930 . S
H906 C894 0.956 . S
H907 C894 0.961 . S
H908 C894 0.961 . S
H909 C895 0.958 . S
H910 C895 0.961 . S
H911 C895 0.960 . S
C912 C913 1.391 . S
C912 C914 1.394 . S
C912 H928 0.931 . S
C913 C912 1.391 . S
C913 C917 1.376 . S
C914 C912 1.394 . S
C914 C915 1.369 . S
C914 C918 1.531 . S
C915 C914 1.369 . S
C915 C916 1.410 . S
C915 C923 1.503 1_455 S
C916 C915 1.410 . S
C916 C917 1.392 . S
C916 C919 1.511 . S
C917 C913 1.376 . S
C917 C916 1.392 . S
C917 H929 0.929 . S
C918 C914 1.531 . S
C918 H930 0.960 1_455 S
C918 H931 0.962 . S
C918 H932 0.960 . S
C919 C916 1.511 . S
C919 H933 0.961 . S
C919 H934 0.961 1_455 S
C919 H935 0.961 . S
C920 C921 1.370 . S
C920 C922 1.363 . S
C920 H936 0.931 . S
C921 C920 1.370 . S
C921 C925 1.408 . S
C922 C920 1.363 . S
C922 C923 1.370 . S
C922 C926 1.524 . S
C923 C915 1.503 1_655 S
C923 C922 1.370 . S
C923 C924 1.403 . S
C924 C923 1.403 . S
C924 C925 1.404 . S
C924 C927 1.539 . S
C925 C921 1.408 . S
C925 C924 1.404 . S
C925 H937 0.930 . S
C926 C922 1.524 . S
C926 H938 0.956 . S
C926 H939 0.961 . S
C926 H940 0.961 . S
C927 C924 1.539 . S
C927 H941 0.958 . S
C927 H942 0.961 . S
C927 H943 0.960 . S
H928 C912 0.931 . S
H929 C917 0.929 . S
H930 C918 0.960 1_655 S
H931 C918 0.962 . S
H932 C918 0.960 . S
H933 C919 0.961 . S
H934 C919 0.961 1_655 S
H935 C919 0.961 . S
H936 C920 0.931 . S
H937 C925 0.930 . S
H938 C926 0.956 . S
H939 C926 0.961 . S
H940 C926 0.961 . S
H941 C927 0.958 . S
H942 C927 0.961 . S
H943 C927 0.960 . S
C944 C945 1.391 . S
C944 C946 1.394 . S
C944 H960 0.931 . S
C945 C944 1.391 . S
C945 C949 1.376 . S
C946 C944 1.394 . S
C946 C947 1.369 . S
C946 C950 1.531 . S
C947 C946 1.369 . S
C947 C948 1.410 . S
C947 C955 1.503 . S
C948 C947 1.410 . S
C948 C949 1.392 . S
C948 C951 1.511 . S
C949 C945 1.376 . S
C949 C948 1.392 . S
C949 H961 0.929 . S
C950 C946 1.531 . S
C950 H962 0.960 . S
C950 H963 0.962 . S
C950 H964 0.960 . S
C951 C948 1.511 . S
C951 H965 0.961 . S
C951 H966 0.961 . S
C951 H967 0.961 . S
C952 C953 1.370 . S
C952 C954 1.363 . S
C952 H968 0.931 . S
C953 C952 1.370 . S
C953 C957 1.408 . S
C954 C952 1.363 . S
C954 C955 1.370 . S
C954 C958 1.524 . S
C955 C947 1.503 . S
C955 C954 1.370 . S
C955 C956 1.403 . S
C956 C955 1.403 . S
C956 C957 1.404 . S
C956 C959 1.539 . S
C957 C953 1.408 . S
C957 C956 1.404 . S
C957 H969 0.930 . S
C958 C954 1.524 . S
C958 H970 0.956 . S
C958 H971 0.961 . S
C958 H972 0.961 . S
C959 C956 1.539 . S
C959 H973 0.958 . S
C959 H974 0.961 . S
C959 H975 0.960 . S
H960 C944 0.931 . S
H961 C949 0.929 . S
H962 C950 0.960 . S
H963 C950 0.962 . S
H964 C950 0.960 . S
H965 C951 0.961 . S
H966 C951 0.961 . S
H967 C951 0.961 . S
H968 C952 0.931 . S
H969 C957 0.930 . S
H970 C958 0.956 . S
H971 C958 0.961 . S
H972 C958 0.961 . S
H973 C959 0.958 . S
H974 C959 0.961 . S
H975 C959 0.960 . S
C976 C977 1.391 . S
C976 C978 1.394 . S
C976 H992 0.931 . S
C977 C976 1.391 . S
C977 C981 1.376 . S
C978 C976 1.394 . S
C978 C979 1.369 . S
C978 C982 1.531 . S
C979 C978 1.369 . S
C979 C980 1.410 . S
C979 C987 1.503 . S
C980 C979 1.410 . S
C980 C981 1.392 . S
C980 C983 1.511 . S
C981 C977 1.376 . S
C981 C980 1.392 . S
C981 H993 0.929 . S
C982 C978 1.531 . S
C982 H994 0.960 . S
C982 H995 0.962 . S
C982 H996 0.960 . S
C983 C980 1.511 . S
C983 H997 0.961 . S
C983 H998 0.961 . S
C983 H999 0.961 . S
C984 C985 1.370 . S
C984 C986 1.363 . S
C984 H1000 0.931 . S
C985 C984 1.370 . S
C985 C989 1.408 . S
C986 C984 1.363 . S
C986 C987 1.370 . S
C986 C990 1.524 . S
C987 C979 1.503 . S
C987 C986 1.370 . S
C987 C988 1.403 . S
C988 C987 1.403 . S
C988 C989 1.404 . S
C988 C991 1.539 . S
C989 C985 1.408 . S
C989 C988 1.404 . S
C989 H1001 0.930 . S
C990 C986 1.524 . S
C990 H1002 0.956 . S
C990 H1003 0.961 . S
C990 H1004 0.961 . S
C991 C988 1.539 . S
C991 H1005 0.958 . S
C991 H1006 0.961 . S
C991 H1007 0.960 . S
H992 C976 0.931 . S
H993 C981 0.929 . S
H994 C982 0.960 . S
H995 C982 0.962 . S
H996 C982 0.960 . S
H997 C983 0.961 . S
H998 C983 0.961 . S
H999 C983 0.961 . S
H1000 C984 0.931 . S
H1001 C989 0.930 . S
H1002 C990 0.956 . S
H1003 C990 0.961 . S
H1004 C990 0.961 . S
H1005 C991 0.958 . S
H1006 C991 0.961 . S
H1007 C991 0.960 . S
C1008 C1009 1.391 . S
C1008 C1010 1.394 . S
C1008 H1024 0.931 . S
C1009 C1008 1.391 . S
C1009 C1013 1.376 . S
C1010 C1008 1.394 . S
C1010 C1011 1.369 . S
C1010 C1014 1.531 . S
C1011 C1010 1.369 . S
C1011 C1012 1.410 . S
C1011 C1019 1.503 . S
C1012 C1011 1.410 . S
C1012 C1013 1.392 . S
C1012 C1015 1.511 . S
C1013 C1009 1.376 . S
C1013 C1012 1.392 . S
C1013 H1025 0.929 . S
C1014 C1010 1.531 . S
C1014 H1026 0.960 . S
C1014 H1027 0.962 . S
C1014 H1028 0.960 . S
C1015 C1012 1.511 . S
C1015 H1029 0.961 . S
C1015 H1030 0.961 . S
C1015 H1031 0.961 . S
C1016 C1017 1.370 . S
C1016 C1018 1.363 . S
C1016 H1032 0.931 . S
C1017 C1016 1.370 . S
C1017 C1021 1.408 . S
C1018 C1016 1.363 . S
C1018 C1019 1.370 . S
C1018 C1022 1.524 . S
C1019 C1011 1.503 . S
C1019 C1018 1.370 . S
C1019 C1020 1.403 . S
C1020 C1019 1.403 . S
C1020 C1021 1.404 . S
C1020 C1023 1.539 . S
C1021 C1017 1.408 . S
C1021 C1020 1.404 . S
C1021 H1033 0.930 . S
C1022 C1018 1.524 . S
C1022 H1034 0.956 . S
C1022 H1035 0.961 . S
C1022 H1036 0.961 . S
C1023 C1020 1.539 . S
C1023 H1037 0.958 . S
C1023 H1038 0.961 . S
C1023 H1039 0.960 . S
H1024 C1008 0.931 . S
H1025 C1013 0.929 . S
H1026 C1014 0.960 . S
H1027 C1014 0.962 . S
H1028 C1014 0.960 . S
H1029 C1015 0.961 . S
H1030 C1015 0.961 . S
H1031 C1015 0.961 . S
H1032 C1016 0.931 . S
H1033 C1021 0.930 . S
H1034 C1022 0.956 . S
H1035 C1022 0.961 . S
H1036 C1022 0.961 . S
H1037 C1023 0.958 . S
H1038 C1023 0.961 . S
H1039 C1023 0.960 . S
C1040 C1041 1.391 . S
C1040 C1042 1.394 . S
C1040 H1056 0.931 . S
C1041 C1040 1.391 . S
C1041 C1045 1.376 . S
C1042 C1040 1.394 . S
C1042 C1043 1.369 . S
C1042 C1046 1.531 . S
C1043 C1042 1.369 . S
C1043 C1044 1.410 . S
C1043 C1051 1.503 . S
C1044 C1043 1.410 . S
C1044 C1045 1.392 . S
C1044 C1047 1.511 . S
C1045 C1041 1.376 . S
C1045 C1044 1.392 . S
C1045 H1057 0.929 . S
C1046 C1042 1.531 . S
C1046 H1058 0.960 . S
C1046 H1059 0.962 . S
C1046 H1060 0.960 . S
C1047 C1044 1.511 . S
C1047 H1061 0.961 . S
C1047 H1062 0.961 . S
C1047 H1063 0.961 . S
C1048 C1049 1.370 . S
C1048 C1050 1.363 . S
C1048 H1064 0.931 . S
C1049 C1048 1.370 . S
C1049 C1053 1.408 . S
C1050 C1048 1.363 . S
C1050 C1051 1.370 . S
C1050 C1054 1.524 . S
C1051 C1043 1.503 . S
C1051 C1050 1.370 . S
C1051 C1052 1.403 . S
C1052 C1051 1.403 . S
C1052 C1053 1.404 . S
C1052 C1055 1.539 . S
C1053 C1049 1.408 . S
C1053 C1052 1.404 . S
C1053 H1065 0.930 . S
C1054 C1050 1.524 . S
C1054 H1066 0.956 . S
C1054 H1067 0.961 . S
C1054 H1068 0.961 . S
C1055 C1052 1.539 . S
C1055 H1069 0.958 . S
C1055 H1070 0.961 . S
C1055 H1071 0.960 . S
H1056 C1040 0.931 . S
H1057 C1045 0.929 . S
H1058 C1046 0.960 . S
H1059 C1046 0.962 . S
H1060 C1046 0.960 . S
H1061 C1047 0.961 . S
H1062 C1047 0.961 . S
H1063 C1047 0.961 . S
H1064 C1048 0.931 . S
H1065 C1053 0.930 . S
H1066 C1054 0.956 . S
H1067 C1054 0.961 . S
H1068 C1054 0.961 . S
H1069 C1055 0.958 . S
H1070 C1055 0.961 . S
H1071 C1055 0.960 . S
C1072 C1073 1.391 . S
C1072 C1074 1.394 . S
C1072 H1088 0.931 . S
C1073 C1072 1.391 . S
C1073 C1077 1.376 . S
C1074 C1072 1.394 . S
C1074 C1075 1.369 . S
C1074 C1078 1.531 . S
C1075 C1074 1.369 . S
C1075 C1076 1.410 . S
C1075 C1083 1.503 . S
C1076 C1075 1.410 . S
C1076 C1077 1.392 . S
C1076 C1079 1.511 . S
C1077 C1073 1.376 . S
C1077 C1076 1.392 . S
C1077 H1089 0.929 . S
C1078 C1074 1.531 . S
C1078 H1090 0.960 . S
C1078 H1091 0.962 . S
C1078 H1092 0.960 . S
C1079 C1076 1.511 . S
C1079 H1093 0.961 . S
C1079 H1094 0.961 . S
C1079 H1095 0.961 . S
C1080 C1081 1.370 . S
C1080 C1082 1.363 . S
C1080 H1096 0.931 . S
C1081 C1080 1.370 . S
C1081 C1085 1.408 . S
C1082 C1080 1.363 . S
C1082 C1083 1.370 . S
C1082 C1086 1.524 . S
C1083 C1075 1.503 . S
C1083 C1082 1.370 . S
C1083 C1084 1.403 . S
C1084 C1083 1.403 . S
C1084 C1085 1.404 . S
C1084 C1087 1.539 . S
C1085 C1081 1.408 . S
C1085 C1084 1.404 . S
C1085 H1097 0.930 . S
C1086 C1082 1.524 . S
C1086 H1098 0.956 . S
C1086 H1099 0.961 . S
C1086 H1100 0.961 . S
C1087 C1084 1.539 . S
C1087 H1101 0.958 . S
C1087 H1102 0.961 . S
C1087 H1103 0.960 . S
H1088 C1072 0.931 . S
H1089 C1077 0.929 . S
H1090 C1078 0.960 . S
H1091 C1078 0.962 . S
H1092 C1078 0.960 . S
H1093 C1079 0.961 . S
H1094 C1079 0.961 . S
H1095 C1079 0.961 . S
H1096 C1080 0.931 . S
H1097 C1085 0.930 . S
H1098 C1086 0.956 . S
H1099 C1086 0.961 . S
H1100 C1086 0.961 . S
H1101 C1087 0.958 . S
H1102 C1087 0.961 . S
H1103 C1087 0.960 . S
C1104 C1105 1.391 . S
C1104 C1106 1.394 . S
C1104 H1120 0.931 . S
C1105 C1104 1.391 . S
C1105 C1109 1.376 . S
C1106 C1104 1.394 . S
C1106 C1107 1.369 . S
C1106 C1110 1.531 . S
C1107 C1106 1.369 . S
C1107 C1108 1.410 . S
C1107 C1115 1.503 . S
C1108 C1107 1.410 . S
C1108 C1109 1.392 . S
C1108 C1111 1.511 . S
C1109 C1105 1.376 . S
C1109 C1108 1.392 . S
C1109 H1121 0.929 . S
C1110 C1106 1.531 . S
C1110 H1122 0.960 . S
C1110 H1123 0.962 . S
C1110 H1124 0.960 . S
C1111 C1108 1.511 . S
C1111 H1125 0.961 . S
C1111 H1126 0.961 . S
C1111 H1127 0.961 . S
C1112 C1113 1.370 . S
C1112 C1114 1.363 . S
C1112 H1128 0.931 . S
C1113 C1112 1.370 . S
C1113 C1117 1.408 . S
C1114 C1112 1.363 . S
C1114 C1115 1.370 . S
C1114 C1118 1.524 . S
C1115 C1107 1.503 . S
C1115 C1114 1.370 . S
C1115 C1116 1.403 . S
C1116 C1115 1.403 . S
C1116 C1117 1.404 . S
C1116 C1119 1.539 . S
C1117 C1113 1.408 . S
C1117 C1116 1.404 . S
C1117 H1129 0.930 . S
C1118 C1114 1.524 . S
C1118 H1130 0.956 . S
C1118 H1131 0.961 . S
C1118 H1132 0.961 . S
C1119 C1116 1.539 . S
C1119 H1133 0.958 . S
C1119 H1134 0.961 . S
C1119 H1135 0.960 . S
H1120 C1104 0.931 . S
H1121 C1109 0.929 . S
H1122 C1110 0.960 . S
H1123 C1110 0.962 . S
H1124 C1110 0.960 . S
H1125 C1111 0.961 . S
H1126 C1111 0.961 . S
H1127 C1111 0.961 . S
H1128 C1112 0.931 . S
H1129 C1117 0.930 . S
H1130 C1118 0.956 . S
H1131 C1118 0.961 . S
H1132 C1118 0.961 . S
H1133 C1119 0.958 . S
H1134 C1119 0.961 . S
H1135 C1119 0.960 . S
C1136 C1137 1.391 . S
C1136 C1138 1.394 . S
C1136 H1152 0.931 . S
C1137 C1136 1.391 . S
C1137 C1141 1.376 . S
C1138 C1136 1.394 . S
C1138 C1139 1.369 . S
C1138 C1142 1.531 . S
C1139 C1138 1.369 . S
C1139 C1140 1.410 . S
C1139 C1147 1.503 . S
C1140 C1139 1.410 . S
C1140 C1141 1.392 . S
C1140 C1143 1.511 . S
C1141 C1137 1.376 . S
C1141 C1140 1.392 . S
C1141 H1153 0.929 . S
C1142 C1138 1.531 . S
C1142 H1154 0.960 . S
C1142 H1155 0.962 . S
C1142 H1156 0.960 . S
C1143 C1140 1.511 . S
C1143 H1157 0.961 . S
C1143 H1158 0.961 . S
C1143 H1159 0.961 . S
C1144 C1145 1.370 . S
C1144 C1146 1.363 . S
C1144 H1160 0.931 . S
C1145 C1144 1.370 . S
C1145 C1149 1.408 . S
C1146 C1144 1.363 . S
C1146 C1147 1.370 . S
C1146 C1150 1.524 . S
C1147 C1139 1.503 . S
C1147 C1146 1.370 . S
C1147 C1148 1.403 . S
C1148 C1147 1.403 . S
C1148 C1149 1.404 . S
C1148 C1151 1.539 . S
C1149 C1145 1.408 . S
C1149 C1148 1.404 . S
C1149 H1161 0.930 . S
C1150 C1146 1.524 . S
C1150 H1162 0.956 . S
C1150 H1163 0.961 . S
C1150 H1164 0.961 . S
C1151 C1148 1.539 . S
C1151 H1165 0.958 . S
C1151 H1166 0.961 . S
C1151 H1167 0.960 . S
H1152 C1136 0.931 . S
H1153 C1141 0.929 . S
H1154 C1142 0.960 . S
H1155 C1142 0.962 . S
H1156 C1142 0.960 . S
H1157 C1143 0.961 . S
H1158 C1143 0.961 . S
H1159 C1143 0.961 . S
H1160 C1144 0.931 . S
H1161 C1149 0.930 . S
H1162 C1150 0.956 . S
H1163 C1150 0.961 . S
H1164 C1150 0.961 . S
H1165 C1151 0.958 . S
H1166 C1151 0.961 . S
H1167 C1151 0.960 . S
C1168 C1169 1.391 . S
C1168 C1170 1.394 . S
C1168 H1184 0.931 . S
C1169 C1168 1.391 . S
C1169 C1173 1.376 . S
C1170 C1168 1.394 . S
C1170 C1171 1.369 . S
C1170 C1174 1.531 . S
C1171 C1170 1.369 . S
C1171 C1172 1.410 . S
C1171 C1179 1.503 . S
C1172 C1171 1.410 . S
C1172 C1173 1.392 . S
C1172 C1175 1.511 . S
C1173 C1169 1.376 . S
C1173 C1172 1.392 . S
C1173 H1185 0.929 . S
C1174 C1170 1.531 . S
C1174 H1186 0.960 . S
C1174 H1187 0.962 . S
C1174 H1188 0.960 . S
C1175 C1172 1.511 . S
C1175 H1189 0.961 . S
C1175 H1190 0.961 . S
C1175 H1191 0.961 . S
C1176 C1177 1.370 . S
C1176 C1178 1.363 . S
C1176 H1192 0.931 . S
C1177 C1176 1.370 . S
C1177 C1181 1.408 . S
C1178 C1176 1.363 . S
C1178 C1179 1.370 . S
C1178 C1182 1.524 . S
C1179 C1171 1.503 . S
C1179 C1178 1.370 . S
C1179 C1180 1.403 . S
C1180 C1179 1.403 . S
C1180 C1181 1.404 . S
C1180 C1183 1.539 . S
C1181 C1177 1.408 . S
C1181 C1180 1.404 . S
C1181 H1193 0.930 . S
C1182 C1178 1.524 . S
C1182 H1194 0.956 . S
C1182 H1195 0.961 . S
C1182 H1196 0.961 . S
C1183 C1180 1.539 . S
C1183 H1197 0.958 . S
C1183 H1198 0.961 . S
C1183 H1199 0.960 . S
H1184 C1168 0.931 . S
H1185 C1173 0.929 . S
H1186 C1174 0.960 . S
H1187 C1174 0.962 . S
H1188 C1174 0.960 . S
H1189 C1175 0.961 . S
H1190 C1175 0.961 . S
H1191 C1175 0.961 . S
H1192 C1176 0.931 . S
H1193 C1181 0.930 . S
H1194 C1182 0.956 . S
H1195 C1182 0.961 . S
H1196 C1182 0.961 . S
H1197 C1183 0.958 . S
H1198 C1183 0.961 . S
H1199 C1183 0.960 . S
C1200 C1201 1.391 . S
C1200 C1202 1.394 . S
C1200 H1216 0.931 . S
C1201 C1200 1.391 . S
C1201 C1205 1.376 . S
C1202 C1200 1.394 . S
C1202 C1203 1.369 . S
C1202 C1206 1.531 . S
C1203 C1202 1.369 . S
C1203 C1204 1.410 . S
C1203 C1211 1.503 . S
C1204 C1203 1.410 . S
C1204 C1205 1.392 . S
C1204 C1207 1.511 . S
C1205 C1201 1.376 . S
C1205 C1204 1.392 . S
C1205 H1217 0.929 . S
C1206 C1202 1.531 . S
C1206 H1218 0.960 . S
C1206 H1219 0.962 . S
C1206 H1220 0.960 . S
C1207 C1204 1.511 . S
C1207 H1221 0.961 . S
C1207 H1222 0.961 . S
C1207 H1223 0.961 . S
C1208 C1209 1.370 . S
C1208 C1210 1.363 . S
C1208 H1224 0.931 . S
C1209 C1208 1.370 . S
C1209 C1213 1.408 . S
C1210 C1208 1.363 . S
C1210 C1211 1.370 . S
C1210 C1214 1.524 . S
C1211 C1203 1.503 . S
C1211 C1210 1.370 . S
C1211 C1212 1.403 . S
C1212 C1211 1.403 . S
C1212 C1213 1.404 . S
C1212 C1215 1.539 . S
C1213 C1209 1.408 . S
C1213 C1212 1.404 . S
C1213 H1225 0.930 . S
C1214 C1210 1.524 . S
C1214 H1226 0.956 . S
C1214 H1227 0.961 . S
C1214 H1228 0.961 . S
C1215 C1212 1.539 . S
C1215 H1229 0.958 . S
C1215 H1230 0.961 . S
C1215 H1231 0.960 . S
H1216 C1200 0.931 . S
H1217 C1205 0.929 . S
H1218 C1206 0.960 . S
H1219 C1206 0.962 . S
H1220 C1206 0.960 . S
H1221 C1207 0.961 . S
H1222 C1207 0.961 . S
H1223 C1207 0.961 . S
H1224 C1208 0.931 . S
H1225 C1213 0.930 . S
H1226 C1214 0.956 . S
H1227 C1214 0.961 . S
H1228 C1214 0.961 . S
H1229 C1215 0.958 . S
H1230 C1215 0.961 . S
H1231 C1215 0.960 . S
C209 C0 1.390 . S
C217 C164 1.397 . S
C241 C177 1.414 . S
C249 C13 1.389 . S
C273 C26 1.408 . S
C281 C190 1.413 . S
C305 C203 1.386 . S
C313 C39 1.408 . S
C337 C104 1.388 . S
C345 C60 1.397 . S
C369 C73 1.418 . S
C377 C117 1.391 . S
C401 C130 1.379 . S
C409 C86 1.414 . S
C433 C99 1.381 . S
C441 C143 1.406 . S
C465 C5 1.517 . S
C473 C31 1.520 . S
C497 C18 1.542 . S
C505 C44 1.537 . S
C529 C57 1.342 . S
C537 C83 1.345 . S
C561 C70 1.356 . S
C569 C96 1.362 . S
C593 C135 1.538 . S
C601 C109 1.536 . S
C625 C122 1.547 . S
C633 C148 1.538 . S
C657 C187 1.354 . S
C665 C161 1.361 . S
C689 C174 1.373 . S
C697 C200 1.366 . S
C721 C88 1.470 . S
C729 C10 1.455 . S
C753 C101 1.465 . S
C761 C23 1.456 . S
C785 C36 1.451 . S
C793 C62 1.461 . S
C817 C49 1.465 . S
C825 C75 1.456 . S
C849 C192 1.461 . S
C857 C114 1.459 . S
C881 C127 1.447 . S
C889 C205 1.464 . S
C913 C166 1.444 . S
C921 C140 1.464 . S
C945 C153 1.450 . S
C953 C179 1.462 . S
C977 C8 1.531 . S
C985 C47 1.547 . S
C1009 C34 1.570 . S
C1017 C21 1.562 . S
C1041 C52 1.252 . S
C1049 C91 1.263 . S
C1073 C65 1.269 . S
C1081 C78 1.253 . S
C1105 C151 1.550 . S
C1113 C112 1.556 . S
C1137 C125 1.537 . S
C1145 C138 1.550 . S
C1169 C195 1.277 . S
C1177 C156 1.251 . S
C1201 C169 1.271 . S
C1209 C182 1.253 . S
