# Generated by pormake.
# Topology fcr, (5)-cn, num edge types: 1
# Building blocks:
#     Node 0, Type 0, BuildingBlock: XOMCOT_clean_sbu_1, # of connection points: 5
#     Node 1, Type 0, BuildingBlock: XOMCOT_clean_sbu_1, # of connection points: 5
#     Node 2, Type 0, BuildingBlock: XOMCOT_clean_sbu_1, # of connection points: 5
#     Node 3, Type 0, BuildingBlock: XOMCOT_clean_sbu_1, # of connection points: 5
#     Node 4, Type 0, BuildingBlock: XOMCOT_clean_sbu_1, # of connection points: 5
#     Node 5, Type 0, BuildingBlock: XOMCOT_clean_sbu_1, # of connection points: 5
#     Node 6, Type 0, BuildingBlock: XOMCOT_clean_sbu_1, # of connection points: 5
#     Node 7, Type 0, BuildingBlock: XOMCOT_clean_sbu_1, # of connection points: 5
#     Node 8, Type 0, BuildingBlock: XOMCOT_clean_sbu_1, # of connection points: 5
#     Node 9, Type 0, BuildingBlock: XOMCOT_clean_sbu_1, # of connection points: 5
#     Node 10, Type 0, BuildingBlock: XOMCOT_clean_sbu_1, # of connection points: 5
#     Node 11, Type 0, BuildingBlock: XOMCOT_clean_sbu_1, # of connection points: 5
#     Node 12, Type 0, BuildingBlock: XOMCOT_clean_sbu_1, # of connection points: 5
#     Node 13, Type 0, BuildingBlock: XOMCOT_clean_sbu_1, # of connection points: 5
#     Node 14, Type 0, BuildingBlock: XOMCOT_clean_sbu_1, # of connection points: 5
#     Node 15, Type 0, BuildingBlock: XOMCOT_clean_sbu_1, # of connection points: 5
#     Node 16, Type 0, BuildingBlock: XOMCOT_clean_sbu_1, # of connection points: 5
#     Node 17, Type 0, BuildingBlock: XOMCOT_clean_sbu_1, # of connection points: 5
#     Node 18, Type 0, BuildingBlock: XOMCOT_clean_sbu_1, # of connection points: 5
#     Node 19, Type 0, BuildingBlock: XOMCOT_clean_sbu_1, # of connection points: 5
#     Node 20, Type 0, BuildingBlock: XOMCOT_clean_sbu_1, # of connection points: 5
#     Node 21, Type 0, BuildingBlock: XOMCOT_clean_sbu_1, # of connection points: 5
#     Node 22, Type 0, BuildingBlock: XOMCOT_clean_sbu_1, # of connection points: 5
#     Node 23, Type 0, BuildingBlock: XOMCOT_clean_sbu_1, # of connection points: 5
#     Node 24, Type 0, BuildingBlock: XOMCOT_clean_sbu_1, # of connection points: 5
#     Node 25, Type 0, BuildingBlock: XOMCOT_clean_sbu_1, # of connection points: 5
#     Node 26, Type 0, BuildingBlock: XOMCOT_clean_sbu_1, # of connection points: 5
#     Node 27, Type 0, BuildingBlock: XOMCOT_clean_sbu_1, # of connection points: 5
#     Node 28, Type 0, BuildingBlock: XOMCOT_clean_sbu_1, # of connection points: 5
#     Node 29, Type 0, BuildingBlock: XOMCOT_clean_sbu_1, # of connection points: 5
#     Node 30, Type 0, BuildingBlock: XOMCOT_clean_sbu_1, # of connection points: 5
#     Node 31, Type 0, BuildingBlock: XOMCOT_clean_sbu_1, # of connection points: 5
#     Node 32, Type 0, BuildingBlock: XOMCOT_clean_sbu_1, # of connection points: 5
#     Node 33, Type 0, BuildingBlock: XOMCOT_clean_sbu_1, # of connection points: 5
#     Node 34, Type 0, BuildingBlock: XOMCOT_clean_sbu_1, # of connection points: 5
#     Node 35, Type 0, BuildingBlock: XOMCOT_clean_sbu_1, # of connection points: 5
#     Node 36, Type 0, BuildingBlock: XOMCOT_clean_sbu_1, # of connection points: 5
#     Node 37, Type 0, BuildingBlock: XOMCOT_clean_sbu_1, # of connection points: 5
#     Node 38, Type 0, BuildingBlock: XOMCOT_clean_sbu_1, # of connection points: 5
#     Node 39, Type 0, BuildingBlock: XOMCOT_clean_sbu_1, # of connection points: 5
#     Node 40, Type 0, BuildingBlock: XOMCOT_clean_sbu_1, # of connection points: 5
#     Node 41, Type 0, BuildingBlock: XOMCOT_clean_sbu_1, # of connection points: 5
#     Node 42, Type 0, BuildingBlock: XOMCOT_clean_sbu_1, # of connection points: 5
#     Node 43, Type 0, BuildingBlock: XOMCOT_clean_sbu_1, # of connection points: 5
#     Node 44, Type 0, BuildingBlock: XOMCOT_clean_sbu_1, # of connection points: 5
#     Node 45, Type 0, BuildingBlock: XOMCOT_clean_sbu_1, # of connection points: 5
#     Node 46, Type 0, BuildingBlock: XOMCOT_clean_sbu_1, # of connection points: 5
#     Node 47, Type 0, BuildingBlock: XOMCOT_clean_sbu_1, # of connection points: 5
#     Edge 48, Type (0, 0), BuildingBlock: XUDNAN_clean_linker_2, # of connection points: 2
#     Edge 49, Type (0, 0), BuildingBlock: XUDNAN_clean_linker_2, # of connection points: 2
#     Edge 50, Type (0, 0), BuildingBlock: XUDNAN_clean_linker_2, # of connection points: 2
#     Edge 51, Type (0, 0), BuildingBlock: XUDNAN_clean_linker_2, # of connection points: 2
#     Edge 52, Type (0, 0), BuildingBlock: XUDNAN_clean_linker_2, # of connection points: 2
#     Edge 53, Type (0, 0), BuildingBlock: XUDNAN_clean_linker_2, # of connection points: 2
#     Edge 54, Type (0, 0), BuildingBlock: XUDNAN_clean_linker_2, # of connection points: 2
#     Edge 55, Type (0, 0), BuildingBlock: XUDNAN_clean_linker_2, # of connection points: 2
#     Edge 56, Type (0, 0), BuildingBlock: XUDNAN_clean_linker_2, # of connection points: 2
#     Edge 57, Type (0, 0), BuildingBlock: XUDNAN_clean_linker_2, # of connection points: 2
#     Edge 58, Type (0, 0), BuildingBlock: XUDNAN_clean_linker_2, # of connection points: 2
#     Edge 59, Type (0, 0), BuildingBlock: XUDNAN_clean_linker_2, # of connection points: 2
#     Edge 60, Type (0, 0), BuildingBlock: XUDNAN_clean_linker_2, # of connection points: 2
#     Edge 61, Type (0, 0), BuildingBlock: XUDNAN_clean_linker_2, # of connection points: 2
#     Edge 62, Type (0, 0), BuildingBlock: XUDNAN_clean_linker_2, # of connection points: 2
#     Edge 63, Type (0, 0), BuildingBlock: XUDNAN_clean_linker_2, # of connection points: 2
#     Edge 64, Type (0, 0), BuildingBlock: XUDNAN_clean_linker_2, # of connection points: 2
#     Edge 65, Type (0, 0), BuildingBlock: XUDNAN_clean_linker_2, # of connection points: 2
#     Edge 66, Type (0, 0), BuildingBlock: XUDNAN_clean_linker_2, # of connection points: 2
#     Edge 67, Type (0, 0), BuildingBlock: XUDNAN_clean_linker_2, # of connection points: 2
#     Edge 68, Type (0, 0), BuildingBlock: XUDNAN_clean_linker_2, # of connection points: 2
#     Edge 69, Type (0, 0), BuildingBlock: XUDNAN_clean_linker_2, # of connection points: 2
#     Edge 70, Type (0, 0), BuildingBlock: XUDNAN_clean_linker_2, # of connection points: 2
#     Edge 71, Type (0, 0), BuildingBlock: XUDNAN_clean_linker_2, # of connection points: 2
#     Edge 72, Type (0, 0), BuildingBlock: XUDNAN_clean_linker_2, # of connection points: 2
#     Edge 73, Type (0, 0), BuildingBlock: XUDNAN_clean_linker_2, # of connection points: 2
#     Edge 74, Type (0, 0), BuildingBlock: XUDNAN_clean_linker_2, # of connection points: 2
#     Edge 75, Type (0, 0), BuildingBlock: XUDNAN_clean_linker_2, # of connection points: 2
#     Edge 76, Type (0, 0), BuildingBlock: XUDNAN_clean_linker_2, # of connection points: 2
#     Edge 77, Type (0, 0), BuildingBlock: XUDNAN_clean_linker_2, # of connection points: 2
#     Edge 78, Type (0, 0), BuildingBlock: XUDNAN_clean_linker_2, # of connection points: 2
#     Edge 79, Type (0, 0), BuildingBlock: XUDNAN_clean_linker_2, # of connection points: 2
#     Edge 80, Type (0, 0), BuildingBlock: XUDNAN_clean_linker_2, # of connection points: 2
#     Edge 81, Type (0, 0), BuildingBlock: XUDNAN_clean_linker_2, # of connection points: 2
#     Edge 82, Type (0, 0), BuildingBlock: XUDNAN_clean_linker_2, # of connection points: 2
#     Edge 83, Type (0, 0), BuildingBlock: XUDNAN_clean_linker_2, # of connection points: 2
#     Edge 84, Type (0, 0), BuildingBlock: XUDNAN_clean_linker_2, # of connection points: 2
#     Edge 85, Type (0, 0), BuildingBlock: XUDNAN_clean_linker_2, # of connection points: 2
#     Edge 86, Type (0, 0), BuildingBlock: XUDNAN_clean_linker_2, # of connection points: 2
#     Edge 87, Type (0, 0), BuildingBlock: XUDNAN_clean_linker_2, # of connection points: 2
#     Edge 88, Type (0, 0), BuildingBlock: XUDNAN_clean_linker_2, # of connection points: 2
#     Edge 89, Type (0, 0), BuildingBlock: XUDNAN_clean_linker_2, # of connection points: 2
#     Edge 90, Type (0, 0), BuildingBlock: XUDNAN_clean_linker_2, # of connection points: 2
#     Edge 91, Type (0, 0), BuildingBlock: XUDNAN_clean_linker_2, # of connection points: 2
#     Edge 92, Type (0, 0), BuildingBlock: XUDNAN_clean_linker_2, # of connection points: 2
#     Edge 93, Type (0, 0), BuildingBlock: XUDNAN_clean_linker_2, # of connection points: 2
#     Edge 94, Type (0, 0), BuildingBlock: XUDNAN_clean_linker_2, # of connection points: 2
#     Edge 95, Type (0, 0), BuildingBlock: XUDNAN_clean_linker_2, # of connection points: 2
#     Edge 96, Type (0, 0), BuildingBlock: XUDNAN_clean_linker_2, # of connection points: 2
#     Edge 97, Type (0, 0), BuildingBlock: XUDNAN_clean_linker_2, # of connection points: 2
#     Edge 98, Type (0, 0), BuildingBlock: XUDNAN_clean_linker_2, # of connection points: 2
#     Edge 99, Type (0, 0), BuildingBlock: XUDNAN_clean_linker_2, # of connection points: 2
#     Edge 100, Type (0, 0), BuildingBlock: XUDNAN_clean_linker_2, # of connection points: 2
#     Edge 101, Type (0, 0), BuildingBlock: XUDNAN_clean_linker_2, # of connection points: 2
#     Edge 102, Type (0, 0), BuildingBlock: XUDNAN_clean_linker_2, # of connection points: 2
#     Edge 103, Type (0, 0), BuildingBlock: XUDNAN_clean_linker_2, # of connection points: 2
#     Edge 104, Type (0, 0), BuildingBlock: XUDNAN_clean_linker_2, # of connection points: 2
#     Edge 105, Type (0, 0), BuildingBlock: XUDNAN_clean_linker_2, # of connection points: 2
#     Edge 106, Type (0, 0), BuildingBlock: XUDNAN_clean_linker_2, # of connection points: 2
#     Edge 107, Type (0, 0), BuildingBlock: XUDNAN_clean_linker_2, # of connection points: 2
#     Edge 108, Type (0, 0), BuildingBlock: XUDNAN_clean_linker_2, # of connection points: 2
#     Edge 109, Type (0, 0), BuildingBlock: XUDNAN_clean_linker_2, # of connection points: 2
#     Edge 110, Type (0, 0), BuildingBlock: XUDNAN_clean_linker_2, # of connection points: 2
#     Edge 111, Type (0, 0), BuildingBlock: XUDNAN_clean_linker_2, # of connection points: 2
#     Edge 112, Type (0, 0), BuildingBlock: XUDNAN_clean_linker_2, # of connection points: 2
#     Edge 113, Type (0, 0), BuildingBlock: XUDNAN_clean_linker_2, # of connection points: 2
#     Edge 114, Type (0, 0), BuildingBlock: XUDNAN_clean_linker_2, # of connection points: 2
#     Edge 115, Type (0, 0), BuildingBlock: XUDNAN_clean_linker_2, # of connection points: 2
#     Edge 116, Type (0, 0), BuildingBlock: XUDNAN_clean_linker_2, # of connection points: 2
#     Edge 117, Type (0, 0), BuildingBlock: XUDNAN_clean_linker_2, # of connection points: 2
#     Edge 118, Type (0, 0), BuildingBlock: XUDNAN_clean_linker_2, # of connection points: 2
#     Edge 119, Type (0, 0), BuildingBlock: XUDNAN_clean_linker_2, # of connection points: 2
#     Edge 120, Type (0, 0), BuildingBlock: XUDNAN_clean_linker_2, # of connection points: 2
#     Edge 121, Type (0, 0), BuildingBlock: XUDNAN_clean_linker_2, # of connection points: 2
#     Edge 122, Type (0, 0), BuildingBlock: XUDNAN_clean_linker_2, # of connection points: 2
#     Edge 123, Type (0, 0), BuildingBlock: XUDNAN_clean_linker_2, # of connection points: 2
#     Edge 124, Type (0, 0), BuildingBlock: XUDNAN_clean_linker_2, # of connection points: 2
#     Edge 125, Type (0, 0), BuildingBlock: XUDNAN_clean_linker_2, # of connection points: 2
#     Edge 126, Type (0, 0), BuildingBlock: XUDNAN_clean_linker_2, # of connection points: 2
#     Edge 127, Type (0, 0), BuildingBlock: XUDNAN_clean_linker_2, # of connection points: 2
#     Edge 128, Type (0, 0), BuildingBlock: XUDNAN_clean_linker_2, # of connection points: 2
#     Edge 129, Type (0, 0), BuildingBlock: XUDNAN_clean_linker_2, # of connection points: 2
#     Edge 130, Type (0, 0), BuildingBlock: XUDNAN_clean_linker_2, # of connection points: 2
#     Edge 131, Type (0, 0), BuildingBlock: XUDNAN_clean_linker_2, # of connection points: 2
#     Edge 132, Type (0, 0), BuildingBlock: XUDNAN_clean_linker_2, # of connection points: 2
#     Edge 133, Type (0, 0), BuildingBlock: XUDNAN_clean_linker_2, # of connection points: 2
#     Edge 134, Type (0, 0), BuildingBlock: XUDNAN_clean_linker_2, # of connection points: 2
#     Edge 135, Type (0, 0), BuildingBlock: XUDNAN_clean_linker_2, # of connection points: 2
#     Edge 136, Type (0, 0), BuildingBlock: XUDNAN_clean_linker_2, # of connection points: 2
#     Edge 137, Type (0, 0), BuildingBlock: XUDNAN_clean_linker_2, # of connection points: 2
#     Edge 138, Type (0, 0), BuildingBlock: XUDNAN_clean_linker_2, # of connection points: 2
#     Edge 139, Type (0, 0), BuildingBlock: XUDNAN_clean_linker_2, # of connection points: 2
#     Edge 140, Type (0, 0), BuildingBlock: XUDNAN_clean_linker_2, # of connection points: 2
#     Edge 141, Type (0, 0), BuildingBlock: XUDNAN_clean_linker_2, # of connection points: 2
#     Edge 142, Type (0, 0), BuildingBlock: XUDNAN_clean_linker_2, # of connection points: 2
#     Edge 143, Type (0, 0), BuildingBlock: XUDNAN_clean_linker_2, # of connection points: 2
#     Edge 144, Type (0, 0), BuildingBlock: XUDNAN_clean_linker_2, # of connection points: 2
#     Edge 145, Type (0, 0), BuildingBlock: XUDNAN_clean_linker_2, # of connection points: 2
#     Edge 146, Type (0, 0), BuildingBlock: XUDNAN_clean_linker_2, # of connection points: 2
#     Edge 147, Type (0, 0), BuildingBlock: XUDNAN_clean_linker_2, # of connection points: 2
#     Edge 148, Type (0, 0), BuildingBlock: XUDNAN_clean_linker_2, # of connection points: 2
#     Edge 149, Type (0, 0), BuildingBlock: XUDNAN_clean_linker_2, # of connection points: 2
#     Edge 150, Type (0, 0), BuildingBlock: XUDNAN_clean_linker_2, # of connection points: 2
#     Edge 151, Type (0, 0), BuildingBlock: XUDNAN_clean_linker_2, # of connection points: 2
#     Edge 152, Type (0, 0), BuildingBlock: XUDNAN_clean_linker_2, # of connection points: 2
#     Edge 153, Type (0, 0), BuildingBlock: XUDNAN_clean_linker_2, # of connection points: 2
#     Edge 154, Type (0, 0), BuildingBlock: XUDNAN_clean_linker_2, # of connection points: 2
#     Edge 155, Type (0, 0), BuildingBlock: XUDNAN_clean_linker_2, # of connection points: 2
#     Edge 156, Type (0, 0), BuildingBlock: XUDNAN_clean_linker_2, # of connection points: 2
#     Edge 157, Type (0, 0), BuildingBlock: XUDNAN_clean_linker_2, # of connection points: 2
#     Edge 158, Type (0, 0), BuildingBlock: XUDNAN_clean_linker_2, # of connection points: 2
#     Edge 159, Type (0, 0), BuildingBlock: XUDNAN_clean_linker_2, # of connection points: 2
#     Edge 160, Type (0, 0), BuildingBlock: XUDNAN_clean_linker_2, # of connection points: 2
#     Edge 161, Type (0, 0), BuildingBlock: XUDNAN_clean_linker_2, # of connection points: 2
#     Edge 162, Type (0, 0), BuildingBlock: XUDNAN_clean_linker_2, # of connection points: 2
#     Edge 163, Type (0, 0), BuildingBlock: XUDNAN_clean_linker_2, # of connection points: 2
#     Edge 164, Type (0, 0), BuildingBlock: XUDNAN_clean_linker_2, # of connection points: 2
#     Edge 165, Type (0, 0), BuildingBlock: XUDNAN_clean_linker_2, # of connection points: 2
#     Edge 166, Type (0, 0), BuildingBlock: XUDNAN_clean_linker_2, # of connection points: 2
#     Edge 167, Type (0, 0), BuildingBlock: XUDNAN_clean_linker_2, # of connection points: 2
# Relax obj value: 0.107
# Max RMSD: 0.137
# Mean RMSD: 0.137
data_MOF--net-fcr--node1-XOMCOT_clean_sbu_1--edge1-XUDNAN_clean_linker_2
_symmetry_space_group_name_H-M    P1
_symmetry_Int_Tables_number       1
_symmetry_cell_setting            triclinic
loop_
_symmetry_equiv_pos_as_xyz
'x, y, z'
_cell_length_a     65.599236
_cell_length_b     65.611556
_cell_length_c     65.65252
_cell_angle_alpha  90.015313
_cell_angle_beta   90.022747
_cell_angle_gamma 90.036948
loop_
_atom_site_label
_atom_site_type_symbol
_atom_site_fract_x
_atom_site_fract_y
_atom_site_fract_z
_atom_type_partial_charge
C0 C 0.11143 0.35144 0.23394 0.0
C1 C 0.11142 0.36733 0.22027 0.0
N2 N 0.12828 0.37863 0.22336 0.0
N3 N 0.12817 0.35261 0.24588 0.0
C4 C 0.13807 0.36944 0.23904 0.0
H5 H 0.10018 0.33944 0.23445 0.0
Co6 Co 0.13732 0.33342 0.26561 0.0
C7 C 0.12872 0.37148 0.29059 0.0
O8 O 0.11456 0.37828 0.27818 0.0
N9 N 0.14646 0.31459 0.28502 0.0
C10 C 0.149 0.29648 0.31356 0.0
C11 C 0.13852 0.31176 0.3038 0.0
C12 C 0.16195 0.30103 0.28383 0.0
N13 N 0.16378 0.28986 0.30102 0.0
O14 O 0.16535 0.33956 0.25896 0.0
H15 H 0.12595 0.32035 0.31008 0.0
H16 H 0.17158 0.29918 0.27058 0.0
O17 O 0.13752 0.35445 0.28695 0.0
C18 C 0.17064 0.33254 0.24159 0.0
O19 O 0.1567 0.32395 0.23004 0.0
N20 N 0.11031 0.3248 0.27054 0.0
C21 C 0.07266 0.30472 0.27025 0.0
C22 C 0.07566 0.32212 0.28244 0.0
C23 C 0.09475 0.33205 0.28237 0.0
C24 C 0.10774 0.30746 0.25942 0.0
C25 C 0.08912 0.29731 0.25893 0.0
H26 H 0.09686 0.34539 0.29172 0.0
H27 H 0.12028 0.30176 0.25037 0.0
H28 H 0.15246 0.3746 0.24522 0.0
H29 H 0.10035 0.36968 0.20828 0.0
H30 H 0.14625 0.2909 0.32883 0.0
H31 H 0.06324 0.32827 0.29139 0.0
H32 H 0.08748 0.28392 0.24941 0.0
C33 C 0.59157 0.65871 0.04139 0.0
C34 C 0.6058 0.66034 0.05664 0.0
N35 N 0.62179 0.64835 0.05197 0.0
N36 N 0.59845 0.64583 0.02693 0.0
C37 C 0.61702 0.63981 0.03378 0.0
H38 H 0.57671 0.6658 0.0414 0.0
Co39 Co 0.58278 0.63594 1.005 0.0
C40 C 0.61384 0.62399 0.97525 0.0
O41 O 0.60487 0.6061 0.97448 0.0
N42 N 0.56693 0.62604 0.98333 0.0
C43 C 0.55125 0.6231 0.9534 0.0
C44 C 0.56519 0.63417 0.9645 0.0
C45 C 0.55409 0.6099 0.98323 0.0
N46 N 0.54444 0.6078 0.96519 0.0
O47 O 0.58932 0.60833 0.01276 0.0
H48 H 0.57342 0.6474 0.95916 0.0
H49 H 0.55144 0.60014 0.99625 0.0
O50 O 0.6067 0.63776 0.98707 0.0
C51 C 0.58007 0.60273 0.02891 0.0
O52 O 0.56877 0.61609 0.03864 0.0
N53 N 0.57425 0.66263 0.99873 0.0
C54 C 0.55472 0.69983 0.99149 0.0
C55 C 0.57454 0.69624 0.9841 0.0
C56 C 0.58423 0.67753 0.98816 0.0
C57 C 0.55503 0.66591 1.00589 0.0
C58 C 0.5451 0.68442 1.00267 0.0
H59 H 0.59948 0.67495 0.98251 0.0
H60 H 0.54734 0.65391 0.01419 0.0
H61 H 0.62628 0.62848 0.02617 0.0
H62 H 0.60426 0.66932 0.07039 0.0
H63 H 0.54653 0.62597 0.93786 0.0
H64 H 0.58245 0.70781 0.9754 0.0
H65 H 0.52977 0.68647 1.00846 0.0
C66 C 0.90595 0.1798 0.22633 0.0
C67 C 0.90698 0.16507 0.21146 0.0
N68 N 0.89524 0.14925 0.21716 0.0
N69 N 0.89363 0.17338 0.24149 0.0
C70 C 0.88731 0.15463 0.23541 0.0
H71 H 0.91292 0.1947 0.2255 0.0
Co72 Co 0.88356 0.18972 0.26286 0.0
C73 C 0.8949 0.15067 0.28588 0.0
O74 O 0.91079 0.14571 0.27477 0.0
N75 N 0.8732 0.20609 0.28395 0.0
C76 C 0.86985 0.22222 0.31362 0.0
C77 C 0.88107 0.2081 0.30287 0.0
C78 C 0.85705 0.21892 0.28368 0.0
N79 N 0.8547 0.22884 0.30153 0.0
O80 O 0.85633 0.18179 0.25564 0.0
H81 H 0.89427 0.19998 0.30845 0.0
H82 H 0.84742 0.22142 0.27055 0.0
O83 O 0.8849 0.16696 0.28207 0.0
C84 C 0.85016 0.1929 0.24093 0.0
O85 O 0.86287 0.20639 0.23332 0.0
N86 N 0.90996 0.19994 0.26832 0.0
C87 C 0.94608 0.22279 0.26823 0.0
C88 C 0.94506 0.20397 0.2785 0.0
C89 C 0.9267 0.19269 0.2784 0.0
C90 C 0.91055 0.21864 0.25936 0.0
C91 C 0.92829 0.23022 0.2591 0.0
H92 H 0.92617 0.17831 0.28626 0.0
H93 H 0.89709 0.22438 0.25176 0.0
H94 H 0.87614 0.14565 0.24359 0.0
H95 H 0.91525 0.16615 0.19723 0.0
H96 H 0.8725 0.22714 0.32914 0.0
H97 H 0.95843 0.19777 0.28592 0.0
H98 H 0.92818 0.24481 0.25136 0.0
C99 C 0.42744 0.86043 0.03922 0.0
C100 C 0.4122 0.85825 0.05341 0.0
N101 N 0.39734 0.87177 0.0492 0.0
N102 N 0.42227 0.87517 0.02587 0.0
C103 C 0.40381 0.88179 0.03236 0.0
H104 H 0.44177 0.85234 0.0393 0.0
Co105 Co 0.43891 0.88607 1.00524 0.0
C106 C 0.40868 0.89857 0.9747 0.0
O107 O 0.41712 0.91674 0.97498 0.0
N108 N 0.45554 0.89695 0.98478 0.0
C109 C 0.47218 0.90138 0.95559 0.0
C110 C 0.45799 0.8897 0.96567 0.0
C111 C 0.46822 0.91318 0.98589 0.0
N112 N 0.47847 0.91617 0.96831 0.0
O113 O 0.43153 0.91335 0.01358 0.0
H114 H 0.45003 0.87668 0.95944 0.0
H115 H 0.47026 0.92236 0.99943 0.0
O116 O 0.41588 0.88452 0.98614 0.0
C117 C 0.43861 0.91879 0.03086 0.0
O118 O 0.44868 0.90542 0.04184 0.0
N119 N 0.44818 0.85976 0.99845 0.0
C120 C 0.46852 0.82303 0.99104 0.0
C121 C 0.4491 0.82667 0.98268 0.0
C122 C 0.43898 0.84513 0.98682 0.0
C123 C 0.46703 0.85644 1.00653 0.0
C124 C 0.47734 0.83815 1.00324 0.0
H125 H 0.42402 0.84772 0.98045 0.0
H126 H 0.47409 0.86821 0.01567 0.0
H127 H 0.39562 0.89418 0.0252 0.0
H128 H 0.41261 0.84819 0.06646 0.0
H129 H 0.47738 0.89928 0.94009 0.0
H130 H 0.4418 0.81531 0.97318 0.0
H131 H 0.49235 0.83605 1.0098 0.0
C132 C 0.10907 0.67594 0.28672 0.0
C133 C 0.10837 0.66104 0.30143 0.0
N134 N 0.12265 0.64701 0.29707 0.0
N135 N 0.12376 0.67141 0.27303 0.0
C136 C 0.13185 0.65366 0.2799 0.0
H137 H 0.1001 0.68973 0.28675 0.0
Co138 Co 0.13398 0.6891 0.2528 0.0
C139 C 0.12713 0.64949 0.22889 0.0
O140 O 0.11425 0.64135 0.24186 0.0
N141 N 0.14445 0.70686 0.23305 0.0
C142 C 0.1489 0.72402 0.20414 0.0
C143 C 0.13775 0.70907 0.21371 0.0
C144 C 0.15991 0.72043 0.23477 0.0
N145 N 0.16287 0.731 0.21739 0.0
O146 O 0.16133 0.68238 0.26101 0.0
H147 H 0.1255 0.70038 0.20692 0.0
H148 H 0.16863 0.72282 0.24855 0.0
O149 O 0.1345 0.66727 0.23219 0.0
C150 C 0.16686 0.69169 0.27719 0.0
O151 O 0.15349 0.7034 0.28642 0.0
N152 N 0.10732 0.69782 0.24597 0.0
C153 C 0.07114 0.71907 0.23774 0.0
C154 C 0.0752 0.7002 0.22837 0.0
C155 C 0.09336 0.68968 0.23281 0.0
C156 C 0.10353 0.71605 0.25519 0.0
C157 C 0.08555 0.72679 0.25149 0.0
H158 H 0.09633 0.67548 0.22514 0.0
H159 H 0.11484 0.72245 0.26535 0.0
H160 H 0.14492 0.64629 0.27304 0.0
H161 H 0.09853 0.6608 0.31466 0.0
H162 H 0.1471 0.7292 0.18859 0.0
H163 H 0.06448 0.69368 0.21764 0.0
H164 H 0.08326 0.74138 0.25887 0.0
C165 C 0.92765 0.66115 0.98293 0.0
C166 C 0.91172 0.66402 0.96965 0.0
N167 N 0.8972 0.65025 0.97398 0.0
N168 N 0.92307 0.64586 0.99594 0.0
C169 C 0.90439 0.63933 0.98989 0.0
H170 H 0.94184 0.66953 0.98287 0.0
Co171 Co 0.94049 0.63576 0.01641 0.0
C172 C 0.9119 0.6421 0.05297 0.0
O173 O 0.92378 0.65492 0.06267 0.0
N174 N 0.95823 0.62545 0.03686 0.0
C175 C 0.97886 0.62343 0.06379 0.0
C176 C 0.96442 0.63497 0.05408 0.0
C177 C 0.96932 0.60799 0.03657 0.0
N178 N 0.98195 0.60646 0.05278 0.0
O179 O 0.93413 0.60819 1.00832 0.0
H180 H 0.95994 0.65005 0.05878 0.0
H181 H 0.96905 0.59714 0.02418 0.0
O182 O 0.91727 0.63484 0.03566 0.0
C183 C 0.94052 0.60281 0.99076 0.0
O184 O 0.94963 0.61639 0.9792 0.0
N185 N 0.94859 0.66276 0.02271 0.0
C186 C 0.96721 0.70068 0.02845 0.0
C187 C 0.94634 0.69801 0.03258 0.0
C188 C 0.93712 0.67897 0.02898 0.0
C189 C 0.96862 0.66549 0.01779 0.0
C190 C 0.97822 0.68423 0.02059 0.0
H191 H 0.92087 0.67732 0.03106 0.0
H192 H 0.97728 0.65284 0.01172 0.0
H193 H 0.89632 0.62676 0.99689 0.0
H194 H 0.91104 0.67503 0.95738 0.0
H195 H 0.98698 0.62751 0.07756 0.0
H196 H 0.93724 0.7106 0.03814 0.0
H197 H 0.99426 0.68576 0.01697 0.0
C198 C 0.91499 0.84459 0.28367 0.0
C199 C 0.91732 0.8573 0.30003 0.0
N200 N 0.89995 0.86785 0.30268 0.0
N201 N 0.89616 0.84689 0.2756 0.0
C202 C 0.88738 0.86142 0.28756 0.0
H203 H 0.92658 0.83425 0.27835 0.0
Co204 Co 0.88495 0.83188 0.25329 0.0
C205 C 0.89106 0.87412 0.23445 0.0
O206 O 0.90748 0.87888 0.24489 0.0
N207 N 0.87394 0.81736 0.2312 0.0
C208 C 0.86535 0.8088 0.19956 0.0
C209 C 0.87557 0.82268 0.21139 0.0
C210 C 0.86302 0.79986 0.23092 0.0
N211 N 0.85734 0.79446 0.21184 0.0
O212 O 0.85774 0.83559 0.2641 0.0
H213 H 0.88381 0.83579 0.20574 0.0
H214 H 0.85924 0.79131 0.24442 0.0
O215 O 0.8824 0.85688 0.23719 0.0
C216 C 0.85403 0.82117 0.27665 0.0
O217 O 0.86884 0.80845 0.28109 0.0
N218 N 0.91116 0.82505 0.24368 0.0
C219 C 0.94816 0.80573 0.23468 0.0
C220 C 0.94292 0.82433 0.22531 0.0
C221 C 0.92422 0.83384 0.23005 0.0
C222 C 0.91569 0.80658 0.25202 0.0
C223 C 0.93412 0.79687 0.24804 0.0
H224 H 0.92027 0.8479 0.22253 0.0
H225 H 0.90492 0.79948 0.26226 0.0
H226 H 0.87191 0.86678 0.28557 0.0
H227 H 0.93087 0.85862 0.30935 0.0
H228 H 0.86419 0.80912 0.18312 0.0
H229 H 0.95322 0.83149 0.21459 0.0
H230 H 0.93723 0.78232 0.2552 0.0
C231 C 0.08819 0.8656 0.97614 0.0
C232 C 0.10237 0.86377 0.96085 0.0
N233 N 0.11911 0.87442 0.96616 0.0
N234 N 0.09585 0.87734 0.99118 0.0
C235 C 0.11481 0.88242 0.98469 0.0
H236 H 0.07289 0.85952 0.97577 0.0
Co237 Co 0.08108 0.88725 0.01365 0.0
C238 C 0.11391 0.89991 0.04107 0.0
O239 O 0.10558 0.91811 0.04094 0.0
N240 N 0.0663 0.89711 0.03601 0.0
C241 C 0.0551 0.90181 0.06761 0.0
C242 C 0.06815 0.89083 0.0555 0.0
C243 C 0.05177 0.91172 0.0366 0.0
N244 N 0.0448 0.91499 0.05574 0.0
O245 O 0.08718 0.91476 1.00546 0.0
H246 H 0.07842 0.87903 0.06067 0.0
H247 H 0.04658 0.91995 0.02328 0.0
O248 O 0.10581 0.8856 0.03056 0.0
C249 C 0.07801 0.92047 0.98931 0.0
O250 O 0.06651 0.90734 0.9795 0.0
N251 N 0.07286 0.86068 0.02035 0.0
C252 C 0.05318 0.82372 0.0281 0.0
C253 C 0.07274 0.82756 0.03603 0.0
C254 C 0.08253 0.84618 0.03173 0.0
C255 C 0.05385 0.85716 0.01277 0.0
C256 C 0.04387 0.83873 0.01619 0.0
H257 H 0.09756 0.84902 0.03785 0.0
H258 H 0.04635 0.86893 1.00399 0.0
H259 H 0.1248 0.89273 0.99284 0.0
H260 H 0.10033 0.8556 0.94667 0.0
H261 H 0.05308 0.89993 0.08386 0.0
H262 H 0.08035 0.81629 0.04538 0.0
H263 H 0.02872 0.83644 0.01001 0.0
C264 C 0.23209 0.10476 0.34502 0.0
C265 C 0.21735 0.1015 0.35952 0.0
N266 N 0.21744 0.11735 0.37246 0.0
N267 N 0.24185 0.12255 0.34885 0.0
C268 C 0.23227 0.12995 0.36567 0.0
H269 H 0.23553 0.09431 0.33285 0.0
Co270 Co 0.26452 0.1344 0.33478 0.0
C271 C 0.28138 0.11976 0.3746 0.0
O272 O 0.26902 0.104 0.37428 0.0
N273 N 0.28647 0.1463 0.32109 0.0
C274 C 0.31766 0.15619 0.31232 0.0
C275 C 0.30647 0.14446 0.32557 0.0
C276 C 0.2859 0.15902 0.30489 0.0
N277 N 0.30472 0.16538 0.29931 0.0
O278 O 0.25559 0.16117 0.34251 0.0
H279 H 0.31266 0.13516 0.33766 0.0
H280 H 0.2719 0.16381 0.29758 0.0
O281 O 0.28132 0.13241 0.35975 0.0
C282 C 0.23962 0.16686 0.33299 0.0
O283 O 0.23027 0.1538 0.32103 0.0
N284 N 0.27267 0.10884 0.32446 0.0
C285 C 0.28145 0.07415 0.30121 0.0
C286 C 0.29252 0.07848 0.31906 0.0
C287 C 0.28794 0.09602 0.3305 0.0
C288 C 0.26258 0.10533 0.30665 0.0
C289 C 0.26637 0.08793 0.29507 0.0
H290 H 0.2971 0.09944 0.34369 0.0
H291 H 0.25122 0.11614 0.30154 0.0
H292 H 0.23662 0.14392 0.37331 0.0
H293 H 0.20739 0.08838 0.36058 0.0
H294 H 0.3341 0.15757 0.31208 0.0
H295 H 0.3046 0.06842 0.32409 0.0
H296 H 0.25786 0.08551 0.28113 0.0
C297 C 0.36243 0.54049 0.9295 0.0
C298 C 0.35893 0.55695 0.91719 0.0
N299 N 0.37185 0.55616 0.90126 0.0
N300 N 0.37723 0.52879 0.92136 0.0
C301 C 0.38266 0.53874 0.90402 0.0
H302 H 0.35515 0.53784 0.94402 0.0
Co303 Co 0.38937 0.50635 0.93485 0.0
C304 C 0.39877 0.47828 0.90179 0.0
O305 O 0.41754 0.47871 0.90877 0.0
N306 N 0.40145 0.4843 0.94851 0.0
C307 C 0.40584 0.454 0.96301 0.0
C308 C 0.39427 0.46502 0.94945 0.0
C309 C 0.41751 0.48459 0.96143 0.0
N310 N 0.42047 0.46632 0.97039 0.0
O311 O 0.41588 0.51504 0.92572 0.0
H312 H 0.38093 0.45957 0.94144 0.0
H313 H 0.42613 0.49818 0.96508 0.0
O314 O 0.38508 0.48907 0.9106 0.0
C315 C 0.42202 0.53117 0.93467 0.0
O316 O 0.40961 0.54061 0.94722 0.0
N317 N 0.36403 0.49919 0.94627 0.0
C318 C 0.3282 0.49848 0.96936 0.0
C319 C 0.32771 0.49417 0.94833 0.0
C320 C 0.34597 0.4946 0.93692 0.0
C321 C 0.36475 0.50229 0.96676 0.0
C322 C 0.34722 0.50166 0.97856 0.0
H323 H 0.34544 0.49259 0.92058 0.0
H324 H 0.37904 0.50637 0.97391 0.0
H325 H 0.39514 0.53398 0.89435 0.0
H326 H 0.34801 0.56893 0.92019 0.0
H327 H 0.4034 0.43832 0.96754 0.0
H328 H 0.31332 0.49169 0.94062 0.0
H329 H 0.34847 0.50465 0.99474 0.0
C330 C 0.79138 0.40535 0.33917 0.0
C331 C 0.80697 0.40585 0.3532 0.0
N332 N 0.80145 0.39453 0.36933 0.0
N333 N 0.77593 0.39374 0.34635 0.0
C334 C 0.78274 0.38722 0.36478 0.0
H335 H 0.79197 0.41229 0.32431 0.0
Co336 Co 0.75241 0.38434 0.33213 0.0
C337 C 0.73615 0.39849 0.37238 0.0
O338 O 0.7487 0.41411 0.37217 0.0
N339 N 0.72966 0.37444 0.31806 0.0
C340 C 0.698 0.36673 0.30881 0.0
C341 C 0.70979 0.37785 0.3221 0.0
C342 C 0.72956 0.36127 0.30219 0.0
N343 N 0.71041 0.35619 0.2963 0.0
O344 O 0.75991 0.35673 0.33862 0.0
H345 H 0.70412 0.3876 0.33409 0.0
H346 H 0.7433 0.3551 0.2955 0.0
O347 O 0.73592 0.38606 0.35733 0.0
C348 C 0.77562 0.35067 0.32889 0.0
O349 O 0.78505 0.36346 0.31674 0.0
N350 N 0.74581 0.41114 0.3233 0.0
C351 C 0.73826 0.44776 0.30245 0.0
C352 C 0.72688 0.44244 0.3198 0.0
C353 C 0.7308 0.42398 0.32997 0.0
C354 C 0.75629 0.41574 0.30597 0.0
C355 C 0.75315 0.43408 0.29562 0.0
H356 H 0.72115 0.41989 0.34258 0.0
H357 H 0.76706 0.40483 0.29991 0.0
H358 H 0.77448 0.37663 0.37436 0.0
H359 H 0.82142 0.41367 0.35156 0.0
H360 H 0.68151 0.36654 0.30838 0.0
H361 H 0.71492 0.45235 0.32536 0.0
H362 H 0.76181 0.43717 0.28192 0.0
C363 C 0.65568 0.98224 0.929 0.0
C364 C 0.65672 0.96669 0.91493 0.0
N365 N 0.6447 0.97156 0.89907 0.0
N366 N 0.64302 0.9969 0.92209 0.0
C367 C 0.63645 0.98983 0.9038 0.0
H368 H 0.66297 0.9824 0.94378 0.0
Co369 Co 0.63336 0.01898 0.93778 0.0
C370 C 0.64139 0.04054 0.89648 0.0
O371 O 0.65402 0.0273 0.88839 0.0
N372 N 0.62336 0.04071 0.95339 0.0
C373 C 0.61748 0.07192 0.96513 0.0
C374 C 0.62884 0.06047 0.95177 0.0
C375 C 0.60882 0.04048 0.968 0.0
N376 N 0.60484 0.05936 0.97533 0.0
O377 O 0.60582 0.01159 0.9312 0.0
H378 H 0.64036 0.06621 0.94149 0.0
H379 H 0.60105 0.02678 0.97289 0.0
O380 O 0.63409 0.03759 0.91432 0.0
C381 C 0.60008 0.99529 0.94009 0.0
O382 O 0.61324 0.9852 0.95129 0.0
N383 N 0.66021 0.02515 0.94649 0.0
C384 C 0.69887 0.02692 0.96471 0.0
C385 C 0.69645 0.02999 0.94362 0.0
C386 C 0.67695 0.02913 0.9348 0.0
C387 C 0.66231 0.02252 0.96702 0.0
C388 C 0.68138 0.02364 0.97645 0.0
H389 H 0.67559 0.0307 0.91857 0.0
H390 H 0.64911 0.01869 0.97611 0.0
H391 H 0.62506 0.99743 0.89459 0.0
H392 H 0.66537 0.95271 0.91637 0.0
H393 H 0.61866 0.08822 0.96737 0.0
H394 H 0.70959 0.03247 0.93395 0.0
H395 H 0.68252 0.02077 0.99266 0.0
C396 C 0.22891 0.91198 0.17812 0.0
C397 C 0.21409 0.91389 0.16341 0.0
N398 N 0.21823 0.90073 0.14819 0.0
N399 N 0.24255 0.89779 0.17223 0.0
C400 C 0.2356 0.89118 0.15394 0.0
H401 H 0.22925 0.91999 0.1925 0.0
Co402 Co 0.26466 0.88779 0.18747 0.0
C403 C 0.29212 0.87442 0.15503 0.0
O404 O 0.2919 0.8563 0.16355 0.0
N405 N 0.28675 0.87782 0.20255 0.0
C406 C 0.31819 0.87295 0.21415 0.0
C407 C 0.30623 0.88433 0.20131 0.0
C408 C 0.2872 0.86261 0.21645 0.0
N409 N 0.30625 0.85922 0.22365 0.0
O410 O 0.25617 0.86028 0.18174 0.0
H411 H 0.31148 0.8965 0.19152 0.0
H412 H 0.27388 0.85398 0.22091 0.0
O413 O 0.28174 0.88887 0.16298 0.0
C414 C 0.23965 0.8549 0.19044 0.0
O415 O 0.22942 0.86841 0.20109 0.0
N416 N 0.27172 0.91438 0.1953 0.0
C417 C 0.27971 0.95182 0.21401 0.0
C418 C 0.2866 0.94785 0.19409 0.0
C419 C 0.28222 0.92899 0.18483 0.0
C420 C 0.26508 0.91799 0.21461 0.0
C421 C 0.26873 0.9366 0.22417 0.0
H422 H 0.28744 0.92612 0.16949 0.0
H423 H 0.25683 0.90619 0.22265 0.0
H424 H 0.24297 0.87927 0.14523 0.0
H425 H 0.20082 0.92363 0.16432 0.0
H426 H 0.33441 0.87485 0.21648 0.0
H427 H 0.29511 0.95926 0.18573 0.0
H428 H 0.26335 0.93889 0.2396 0.0
C429 C 0.16245 0.54081 0.08515 0.0
C430 C 0.16541 0.55793 0.09668 0.0
N431 N 0.15367 0.55674 0.11352 0.0
N432 N 0.14941 0.52817 0.09474 0.0
C433 C 0.1442 0.53835 0.11202 0.0
H434 H 0.16879 0.53816 0.07018 0.0
Co435 Co 0.13806 0.50484 0.08204 0.0
C436 C 0.15172 0.47297 0.1117 0.0
O437 O 0.16231 0.46396 0.09732 0.0
N438 N 0.12561 0.48257 0.06873 0.0
C439 C 0.10884 0.45459 0.05899 0.0
C440 C 0.12171 0.46286 0.07343 0.0
C441 C 0.11457 0.48587 0.05167 0.0
N442 N 0.10424 0.46921 0.0454 0.0
O443 O 0.11126 0.51349 0.09007 0.0
H444 H 0.12647 0.45508 0.08705 0.0
H445 H 0.11379 0.50058 0.04428 0.0
O446 O 0.14117 0.48893 0.10766 0.0
C447 C 0.10506 0.52881 0.07985 0.0
O448 O 0.11757 0.53751 0.06687 0.0
N449 N 0.1645 0.49734 0.07199 0.0
C450 C 0.20293 0.49566 0.05317 0.0
C451 C 0.20118 0.49784 0.07439 0.0
C452 C 0.18188 0.49873 0.08349 0.0
C453 C 0.16605 0.49465 0.0514 0.0
C454 C 0.18504 0.49343 0.04177 0.0
H455 H 0.18088 0.50175 0.09965 0.0
H456 H 0.15261 0.49482 0.04197 0.0
H457 H 0.13268 0.53298 0.12251 0.0
H458 H 0.17513 0.57054 0.09245 0.0
H459 H 0.10237 0.43941 0.05922 0.0
H460 H 0.21461 0.49974 0.08379 0.0
H461 H 0.18562 0.49224 0.02532 0.0
C462 C 0.78534 0.60056 0.17509 0.0
C463 C 0.79899 0.59589 0.15986 0.0
N464 N 0.80033 0.61198 0.14727 0.0
N465 N 0.77776 0.61948 0.17201 0.0
C466 C 0.78736 0.62602 0.1549 0.0
H467 H 0.78156 0.59073 0.18773 0.0
Co468 Co 0.75895 0.63457 0.18791 0.0
C469 C 0.72043 0.63409 0.16364 0.0
O470 O 0.70995 0.63216 0.1806 0.0
N471 N 0.74058 0.65066 0.20351 0.0
C472 C 0.72184 0.67795 0.21127 0.0
C473 C 0.73199 0.66785 0.19606 0.0
C474 C 0.73554 0.65088 0.22356 0.0
N475 N 0.7241 0.66732 0.22862 0.0
O476 O 0.77134 0.65942 0.17887 0.0
H477 H 0.73349 0.6731 0.18051 0.0
H478 H 0.74094 0.63992 0.23456 0.0
O479 O 0.73995 0.63476 0.16441 0.0
C480 C 0.78489 0.66533 0.1915 0.0
O481 O 0.78904 0.65352 0.20713 0.0
N482 N 0.74822 0.61001 0.1989 0.0
C483 C 0.73949 0.57361 0.21963 0.0
C484 C 0.73147 0.57732 0.20011 0.0
C485 C 0.73641 0.59544 0.18976 0.0
C486 C 0.75642 0.60636 0.21765 0.0
C487 C 0.7522 0.58842 0.22828 0.0
H488 H 0.73135 0.59723 0.17425 0.0
H489 H 0.76683 0.61734 0.2242 0.0
H490 H 0.78492 0.64083 0.14806 0.0
H491 H 0.80775 0.58197 0.15849 0.0
H492 H 0.71364 0.69218 0.20972 0.0
H493 H 0.72207 0.566 0.19262 0.0
H494 H 0.75889 0.58617 0.2432 0.0
C495 C 0.86132 0.97742 0.08758 0.0
C496 C 0.85631 0.96247 0.10136 0.0
N497 N 0.86567 0.96656 0.1192 0.0
N498 N 0.87355 0.99122 0.09664 0.0
C499 C 0.87614 0.98407 0.11588 0.0
H500 H 0.85686 0.97785 0.07173 0.0
Co501 Co 0.88668 0.01281 0.08309 0.0
C502 C 0.87376 0.04748 0.1098 0.0
O503 O 0.86511 0.05647 0.09414 0.0
N504 N 0.9012 0.03394 0.0692 0.0
C505 C 0.9197 0.061 0.05978 0.0
C506 C 0.907 0.05305 0.07449 0.0
C507 C 0.91148 0.03052 0.05164 0.0
N508 N 0.92256 0.04672 0.0454 0.0
O509 O 0.91237 1.00333 0.09324 0.0
H510 H 0.9036 0.06061 0.08863 0.0
H511 H 0.91101 0.01614 0.04363 0.0
O512 O 0.88271 0.03031 0.10734 0.0
C513 C 0.91854 0.98966 0.08086 0.0
O514 O 0.90614 0.98392 0.06619 0.0
N515 N 0.86131 0.02055 0.07064 0.0
C516 C 0.82548 0.02171 0.04693 0.0
C517 C 0.82449 0.02235 0.06836 0.0
C518 C 0.84264 0.02161 0.07998 0.0
C519 C 0.86223 0.02031 0.04989 0.0
C520 C 0.84481 0.02156 0.03792 0.0
H521 H 0.84161 0.0206 0.09639 0.0
H522 H 0.87635 0.01756 0.04219 0.0
H523 H 0.88588 0.99132 0.12705 0.0
H524 H 0.84714 0.94913 0.09819 0.0
H525 H 0.92709 0.07575 0.0602 0.0
H526 H 0.80989 0.0222 0.07605 0.0
H527 H 0.84656 0.02124 0.02152 0.0
C528 C 0.34319 0.22111 0.11499 0.0
C529 C 0.35867 0.2069 0.11495 0.0
N530 N 0.37371 0.21343 0.12738 0.0
N531 N 0.34837 0.23675 0.12726 0.0
C532 C 0.36703 0.23168 0.13449 0.0
H533 H 0.32866 0.21952 0.10741 0.0
Co534 Co 0.3316 0.2582 0.1363 0.0
C535 C 0.36203 0.28902 0.14814 0.0
O536 O 0.35326 0.28967 0.16611 0.0
N537 N 0.31468 0.27953 0.14566 0.0
C538 C 0.29844 0.30923 0.14842 0.0
C539 C 0.3127 0.29835 0.13753 0.0
C540 C 0.30159 0.27947 0.16163 0.0
N541 N 0.29159 0.29735 0.16363 0.0
O542 O 0.33804 0.25097 0.16399 0.0
H543 H 0.32114 0.30393 0.12455 0.0
H544 H 0.29908 0.26652 0.17147 0.0
O545 O 0.35493 0.27701 0.13451 0.0
C546 C 0.32683 0.23619 0.16986 0.0
O547 O 0.31381 0.22839 0.15677 0.0
N548 N 0.32331 0.26373 0.10933 0.0
C549 C 0.30356 0.27097 0.07219 0.0
C550 C 0.32265 0.27983 0.0764 0.0
C551 C 0.33248 0.27578 0.09503 0.0
C552 C 0.30494 0.25487 0.10533 0.0
C553 C 0.29494 0.25807 0.08683 0.0
H554 H 0.34704 0.28284 0.09812 0.0
H555 H 0.29784 0.24547 0.11686 0.0
H556 H 0.37508 0.24094 0.14548 0.0
H557 H 0.35822 0.19236 0.10719 0.0
H558 H 0.2937 0.32478 0.14559 0.0
H559 H 0.32982 0.28987 0.06545 0.0
H560 H 0.28018 0.25108 0.08432 0.0
C561 C 0.33406 0.79212 0.3986 0.0
C562 C 0.34675 0.80802 0.40358 0.0
N563 N 0.36572 0.80377 0.39685 0.0
N564 N 0.34485 0.77761 0.38893 0.0
C565 C 0.36409 0.78521 0.38786 0.0
H566 H 0.31784 0.79134 0.40143 0.0
Co567 Co 0.33291 0.75423 0.37743 0.0
C568 C 0.36097 0.72128 0.3907 0.0
O569 O 0.34497 0.71206 0.39848 0.0
N570 N 0.32062 0.73116 0.36436 0.0
C571 C 0.31745 0.70431 0.3437 0.0
C572 C 0.33058 0.71544 0.35547 0.0
C573 C 0.30145 0.72966 0.35656 0.0
N574 N 0.29907 0.71334 0.34409 0.0
O575 O 0.34172 0.7632 0.35114 0.0
H576 H 0.34683 0.71303 0.3556 0.0
H577 H 0.28998 0.74134 0.35841 0.0
O578 O 0.35866 0.73861 0.38189 0.0
C579 C 0.32745 0.77435 0.34405 0.0
O580 O 0.31127 0.77737 0.35548 0.0
N581 N 0.32219 0.74699 0.40365 0.0
C582 C 0.3034 0.74683 0.44219 0.0
C583 C 0.32472 0.74783 0.4403 0.0
C584 C 0.33379 0.74801 0.42096 0.0
C585 C 0.30147 0.7456 0.40532 0.0
C586 C 0.29183 0.7451 0.42435 0.0
H587 H 0.35009 0.75027 0.41989 0.0
H588 H 0.29202 0.74651 0.39198 0.0
H589 H 0.37655 0.7774 0.38039 0.0
H590 H 0.3421 0.82199 0.411 0.0
H591 H 0.32158 0.69119 0.33462 0.0
H592 H 0.33429 0.74938 0.45366 0.0
H593 H 0.27533 0.74492 0.425 0.0
C594 C 0.04306 0.42919 0.8626 0.0
C595 C 0.05765 0.41427 0.8608 0.0
N596 N 0.05376 0.39958 0.8746 0.0
N597 N 0.02969 0.42398 0.8773 0.0
C598 C 0.03677 0.40593 0.88451 0.0
H599 H 0.04268 0.44327 0.85406 0.0
Co600 Co 1.00801 0.44038 0.88693 0.0
C601 C 0.98497 0.40055 0.87703 0.0
O602 O 0.99737 0.39343 0.86304 0.0
N603 N 0.98619 0.45653 0.89667 0.0
C604 C 0.95648 0.47298 0.89814 0.0
C605 C 0.96795 0.45908 0.88739 0.0
C606 C 0.98514 0.46863 0.91331 0.0
N607 N 0.96734 0.47884 0.91449 0.0
O608 O 0.01527 0.4336 0.91465 0.0
H609 H 0.96342 0.45162 0.87341 0.0
H610 H 0.99726 0.47039 0.92415 0.0
O611 O 0.9887 0.41766 0.88562 0.0
C612 C 0.03022 0.44518 0.91945 0.0
O613 O 0.03785 0.45709 0.90529 0.0
N614 N 1.0029 0.4501 0.86027 0.0
C615 C 1.00439 0.47315 0.82424 0.0
C616 C 0.99787 0.45263 0.82394 0.0
C617 C 0.99724 0.44125 0.84227 0.0
C618 C 1.0086 0.47006 0.8607 0.0
C619 C 1.00902 0.48184 0.84317 0.0
H620 H 0.993 0.42539 0.84177 0.0
H621 H 0.01341 0.47685 0.87493 0.0
H622 H 0.02968 0.39773 0.89693 0.0
H623 H 0.0706 0.41467 0.8506 0.0
H624 H 0.94139 0.47841 0.89426 0.0
H625 H 0.99412 0.44525 0.80967 0.0
H626 H 0.01353 0.49767 0.8445 0.0
C627 C 0.67145 0.73289 0.41765 0.0
C628 C 0.65596 0.71922 0.42111 0.0
N629 N 0.64434 0.71821 0.40428 0.0
N630 N 0.66945 0.74102 0.39883 0.0
C631 C 0.65291 0.73133 0.39091 0.0
H632 H 0.68358 0.73631 0.42825 0.0
Co633 Co 0.68725 0.76009 0.38601 0.0
C634 C 0.64705 0.78382 0.39014 0.0
O635 O 0.6384 0.77057 0.40237 0.0
N636 N 0.70493 0.77853 0.37313 0.0
C637 C 0.72041 0.807 0.36326 0.0
C638 C 0.70545 0.79893 0.37554 0.0
C639 C 0.71986 0.77454 0.35951 0.0
N640 N 0.72956 0.79166 0.35308 0.0
O641 O 0.68053 0.74866 0.3598 0.0
H642 H 0.69562 0.80743 0.38567 0.0
H643 H 0.72361 0.75927 0.35463 0.0
O644 O 0.66526 0.78075 0.38368 0.0
C645 C 0.68949 0.73149 0.35782 0.0
O646 O 0.70042 0.72456 0.3731 0.0
N647 N 0.69618 0.76986 0.41157 0.0
C648 C 0.71365 0.77538 0.45014 0.0
C649 C 0.69387 0.78254 0.44585 0.0
C650 C 0.68541 0.77976 0.42637 0.0
C651 C 0.71565 0.76358 0.41526 0.0
C652 C 0.72472 0.76633 0.43431 0.0
H653 H 0.66997 0.78461 0.42367 0.0
H654 H 0.72391 0.7555 0.40352 0.0
H655 H 0.64698 0.73414 0.37579 0.0
H656 H 0.65363 0.71036 0.43483 0.0
H657 H 0.72402 0.82302 0.36192 0.0
H658 H 0.68479 0.78971 0.45761 0.0
H659 H 0.73987 0.7603 0.43692 0.0
C660 C 0.47496 0.58431 0.36967 0.0
C661 C 0.45978 0.59864 0.36761 0.0
N662 N 0.46657 0.61648 0.37522 0.0
N663 N 0.49133 0.59303 0.37852 0.0
C664 C 0.48579 0.61268 0.38167 0.0
H665 H 0.47385 0.56832 0.3658 0.0
Co666 Co 0.51415 0.57895 0.38839 0.0
C667 C 0.54495 0.61109 0.37367 0.0
O668 O 0.55102 0.60128 0.35735 0.0
N669 N 0.53716 0.56492 0.399 0.0
C670 C 0.56737 0.54958 0.40165 0.0
C671 C 0.55581 0.56298 0.39042 0.0
C672 C 0.53798 0.55272 0.41564 0.0
N673 N 0.55614 0.54327 0.41754 0.0
O674 O 0.50706 0.58753 0.41541 0.0
H675 H 0.56039 0.56977 0.37619 0.0
H676 H 0.52521 0.54976 0.42558 0.0
O677 O 0.53117 0.60343 0.38516 0.0
C678 C 0.49372 0.57497 0.42198 0.0
O679 O 0.48808 0.56 0.40989 0.0
N680 N 0.51907 0.56796 0.36198 0.0
C681 C 0.51695 0.54436 0.32627 0.0
C682 C 0.51652 0.56581 0.32531 0.0
C683 C 0.51729 0.57738 0.34346 0.0
C684 C 0.5195 0.54718 0.36291 0.0
C685 C 0.51909 0.53527 0.34543 0.0
H686 H 0.51522 0.59372 0.3427 0.0
H687 H 0.51906 0.53951 0.37745 0.0
H688 H 0.49516 0.62363 0.38972 0.0
H689 H 0.44469 0.596 0.36146 0.0
H690 H 0.58262 0.54437 0.39809 0.0
H691 H 0.51442 0.57349 0.31087 0.0
H692 H 0.51953 0.51885 0.34708 0.0
C693 C 0.17955 0.79484 0.60747 0.0
C694 C 0.16469 0.80946 0.60522 0.0
N695 N 0.14875 0.80455 0.61722 0.0
N696 N 0.17304 0.78049 0.62065 0.0
C697 C 0.15423 0.78685 0.62637 0.0
H698 H 0.19457 0.79521 0.60069 0.0
Co699 Co 0.18898 0.75935 0.63182 0.0
C700 C 0.16064 0.72391 0.62111 0.0
O701 O 0.1735 0.71597 0.60808 0.0
N702 N 0.20523 0.7382 0.64363 0.0
C703 C 0.22507 0.71078 0.64692 0.0
C704 C 0.21116 0.72052 0.63479 0.0
C705 C 0.21596 0.73867 0.66135 0.0
N706 N 0.22816 0.7222 0.6636 0.0
O707 O 0.18081 0.76805 0.65869 0.0
H708 H 0.20739 0.71573 0.61958 0.0
H709 H 0.21596 0.75143 0.67177 0.0
O710 O 0.16507 0.74057 0.63034 0.0
C711 C 0.19093 0.78419 0.66278 0.0
O712 O 0.20428 0.79077 0.64939 0.0
N713 N 0.19941 0.75325 0.60545 0.0
C714 C 0.22151 0.75395 0.56876 0.0
C715 C 0.20025 0.7508 0.56872 0.0
C716 C 0.18937 0.75085 0.58731 0.0
C717 C 0.21998 0.75632 0.60551 0.0
C718 C 0.23126 0.75621 0.5876 0.0
H719 H 0.17291 0.75007 0.58705 0.0
H720 H 0.22773 0.75969 0.61966 0.0
H721 H 0.14512 0.77902 0.63766 0.0
H722 H 0.16608 0.82326 0.5963 0.0
H723 H 0.23315 0.69687 0.64324 0.0
H724 H 0.19202 0.74947 0.55449 0.0
H725 H 0.24757 0.75867 0.58852 0.0
C726 C 0.04423 0.59054 0.65062 0.0
C727 C 0.05947 0.60488 0.6518 0.0
N728 N 0.05283 0.62219 0.64301 0.0
N729 N 0.02792 0.59864 0.6411 0.0
C730 C 0.03358 0.61806 0.63669 0.0
H731 H 0.04527 0.57485 0.65556 0.0
Co732 Co 1.00539 0.58305 0.63246 0.0
C733 C 0.97107 0.61187 0.6439 0.0
O734 O 0.96387 0.59912 0.65747 0.0
N735 N 0.98281 0.56688 0.62307 0.0
C736 C 0.95483 0.54746 0.62199 0.0
C737 C 0.96613 0.5607 0.63356 0.0
C738 C 0.98103 0.55699 0.60494 0.0
N739 N 0.96421 0.54508 0.60398 0.0
O740 O 0.01208 0.58976 0.60475 0.0
H741 H 0.96295 0.56407 0.64929 0.0
H742 H 0.99235 0.55749 0.59302 0.0
O743 O 0.98739 0.60748 0.63407 0.0
C744 C 0.02695 0.57878 0.59865 0.0
O745 O 0.03466 0.56537 0.61137 0.0
N746 N 1.00097 0.57446 0.65978 0.0
C747 C 1.00135 0.55674 0.69867 0.0
C748 C 1.00096 0.57807 0.69629 0.0
C749 C 1.00085 0.58666 0.67666 0.0
C750 C 1.00222 0.55378 0.66197 0.0
C751 C 1.00178 0.54463 0.68116 0.0
H752 H 1.00144 0.60305 0.67499 0.0
H753 H 1.00401 0.54423 0.64866 0.0
H754 H 0.02431 0.62851 0.62793 0.0
H755 H 0.07453 0.60261 0.65816 0.0
H756 H 0.94117 0.53953 0.62678 0.0
H757 H 1.00121 0.58798 0.70948 0.0
H758 H 1.00292 0.52819 0.68228 0.0
C759 C 0.97594 0.92713 0.65653 0.0
C760 C 0.96182 0.91158 0.6568 0.0
N761 N 0.96713 0.89765 0.64267 0.0
N762 N 0.99031 0.92304 0.64242 0.0
C763 C 0.9845 0.905 0.63424 0.0
H764 H 0.97528 0.94084 0.66562 0.0
Co765 Co 0.0121 0.93976 0.63406 0.0
C766 C 0.04204 0.90962 0.62041 0.0
O767 O 0.04248 0.91931 0.6029 0.0
N768 N 0.03416 0.95641 0.62559 0.0
C769 C 0.06381 0.9731 0.62443 0.0
C770 C 0.05217 0.95938 0.63523 0.0
C771 C 0.03559 0.96813 0.60871 0.0
N772 N 0.05334 0.97845 0.60769 0.0
O773 O 1.00431 0.93532 0.60593 0.0
H774 H 0.05672 0.95206 0.64924 0.0
H775 H 0.0239 0.96931 0.59736 0.0
O776 O 0.0303 0.91604 0.63457 0.0
C777 C 0.98965 0.94739 0.60151 0.0
O778 O 0.98237 0.95915 0.61598 0.0
N779 N 0.01779 0.94657 0.66127 0.0
C780 C 0.02476 0.96543 0.69882 0.0
C781 C 0.03293 0.94602 0.69463 0.0
C782 C 0.02897 0.93661 0.67573 0.0
C783 C 1.00963 0.96523 0.66527 0.0
C784 C 0.01273 0.97481 0.68393 0.0
H785 H 0.03544 0.92181 0.67252 0.0
H786 H 1.00088 0.97288 0.6536 0.0
H787 H 0.9927 0.89764 0.62198 0.0
H788 H 0.94816 0.9111 0.66603 0.0
H789 H 0.07886 0.97858 0.62845 0.0
H790 H 0.0423 0.93829 0.7058 0.0
H791 H 1.00632 0.98982 0.68643 0.0
C792 C 0.61745 0.8398 0.72872 0.0
C793 C 0.61489 0.85408 0.71361 0.0
N794 N 0.62501 0.87116 0.71893 0.0
N795 N 0.62892 0.84781 0.74378 0.0
C796 C 0.63335 0.86693 0.73735 0.0
H797 H 0.61208 0.82421 0.72831 0.0
Co798 Co 0.63962 0.83345 0.76621 0.0
C799 C 0.6235 0.86257 0.79896 0.0
O800 O 0.60942 0.85008 0.80566 0.0
N801 N 0.65095 0.81904 0.78856 0.0
C802 C 0.65473 0.80187 0.81759 0.0
C803 C 0.64249 0.81502 0.80691 0.0
C804 C 0.66846 0.80807 0.78858 0.0
N805 N 0.67106 0.79752 0.80606 0.0
O806 O 0.6665 0.8436 0.75983 0.0
H807 H 0.62759 0.81973 0.81175 0.0
H808 H 0.67843 0.80671 0.77553 0.0
O809 O 0.63491 0.85748 0.78395 0.0
C810 C 0.67375 0.83583 0.74353 0.0
O811 O 0.66229 0.82333 0.73287 0.0
N812 N 0.61369 0.82104 0.77078 0.0
C813 C 0.57884 0.79599 0.76936 0.0
C814 C 0.57703 0.8174 0.76994 0.0
C815 C 0.59472 0.82971 0.77041 0.0
C816 C 0.6155 0.80033 0.77009 0.0
C817 C 0.5985 0.78769 0.77005 0.0
H818 H 0.59319 0.84609 0.7694 0.0
H819 H 0.63037 0.79338 0.76879 0.0
H820 H 0.64316 0.87725 0.74569 0.0
H821 H 0.60711 0.85163 0.69927 0.0
H822 H 0.65142 0.79526 0.83233 0.0
H823 H 0.5622 0.82457 0.76902 0.0
H824 H 0.60092 0.77136 0.76989 0.0
C825 C 0.09251 0.15559 0.54331 0.0
C826 C 0.10817 0.15595 0.55728 0.0
N827 N 0.12304 0.14335 0.55079 0.0
N828 N 0.09749 0.14304 0.52781 0.0
C829 C 0.11616 0.13578 0.53284 0.0
H830 H 0.07803 0.16331 0.54478 0.0
Co831 Co 0.08021 0.13466 0.50637 0.0
C832 C 0.11018 0.14566 0.4721 0.0
O833 O 0.10013 0.16167 0.46558 0.0
N834 N 0.06288 0.12569 0.48499 0.0
C835 C 0.04416 0.12437 0.45668 0.0
C836 C 0.05889 0.13503 0.46707 0.0
C837 C 0.0504 0.10919 0.48495 0.0
N838 N 0.03887 0.10809 0.46791 0.0
O839 O 0.08645 0.10665 0.51252 0.0
H840 H 0.06533 0.14933 0.46221 0.0
H841 H 0.04913 0.09862 0.49753 0.0
O842 O 0.10348 0.13534 0.48727 0.0
C843 C 0.07898 0.10065 0.52943 0.0
O844 O 0.06876 0.11369 0.54067 0.0
N845 N 0.07215 0.16215 0.502 0.0
C846 C 0.05523 0.20142 0.5024 0.0
C847 C 0.07649 0.19861 0.5017 0.0
C848 C 0.08467 0.17881 0.50167 0.0
C849 C 0.05153 0.16476 0.50332 0.0
C850 C 0.04278 0.18412 0.50303 0.0
H851 H 0.10104 0.17687 0.50222 0.0
H852 H 0.04169 0.15168 0.50527 0.0
H853 H 0.12418 0.12453 0.52383 0.0
H854 H 0.10805 0.16395 0.5717 0.0
H855 H 0.03757 0.12845 0.44212 0.0
H856 H 0.08671 0.21157 0.50163 0.0
H857 H 0.02638 0.18551 0.50439 0.0
C858 C 0.41001 0.67719 0.72726 0.0
C859 C 0.41093 0.66281 0.71208 0.0
N860 N 0.39591 0.64912 0.71509 0.0
N861 N 0.39469 0.67256 0.74016 0.0
C862 C 0.38612 0.65555 0.73207 0.0
H863 H 0.41966 0.6905 0.72845 0.0
Co864 Co 0.38606 0.68867 0.76242 0.0
C865 C 0.39233 0.64683 0.78332 0.0
O866 O 0.40216 0.63754 0.76859 0.0
N867 N 0.37733 0.70458 0.78435 0.0
C868 C 0.37415 0.71719 0.81559 0.0
C869 C 0.38476 0.70381 0.8035 0.0
C870 C 0.36238 0.71871 0.78508 0.0
N871 N 0.36003 0.72654 0.804 0.0
O872 O 0.35798 0.68318 0.75563 0.0
H873 H 0.39718 0.69413 0.80838 0.0
H874 H 0.35321 0.72296 0.77206 0.0
O875 O 0.38663 0.66536 0.7812 0.0
C876 C 0.35237 0.69289 0.73974 0.0
O877 O 0.36597 0.70369 0.72978 0.0
N878 N 0.41328 0.69632 0.76806 0.0
C879 C 0.45237 0.71337 0.77076 0.0
C880 C 0.44918 0.69244 0.77433 0.0
C881 C 0.42943 0.68419 0.77302 0.0
C882 C 0.41614 0.71665 0.76473 0.0
C883 C 0.43542 0.72552 0.76626 0.0
H884 H 0.42735 0.66804 0.7752 0.0
H885 H 0.40332 0.72603 0.7603 0.0
H886 H 0.37296 0.64803 0.73858 0.0
H887 H 0.42149 0.66284 0.69943 0.0
H888 H 0.37688 0.72005 0.83159 0.0
H889 H 0.46189 0.68248 0.77775 0.0
H890 H 0.43716 0.7416 0.76298 0.0
C891 C 0.93155 0.37214 0.54328 0.0
C892 C 0.91714 0.37058 0.5584 0.0
N893 N 0.89935 0.37771 0.55112 0.0
N894 N 0.92296 0.38038 0.52653 0.0
C895 C 0.90322 0.38353 0.53174 0.0
H896 H 0.94756 0.36848 0.54472 0.0
Co897 Co 0.93772 0.38921 0.50371 0.0
C898 C 0.90908 0.37336 0.47068 0.0
O899 O 0.92212 0.35997 0.46366 0.0
N900 N 0.95284 0.39852 0.48075 0.0
C901 C 0.97194 0.39917 0.45266 0.0
C902 C 0.95892 0.3877 0.46427 0.0
C903 C 0.96259 0.41664 0.47865 0.0
N904 N 0.97426 0.41736 0.46172 0.0
O905 O 0.92858 0.41673 0.50868 0.0
H906 H 0.95594 0.37178 0.46168 0.0
H907 H 0.96242 0.42855 0.49002 0.0
O908 O 0.91364 0.38441 0.48611 0.0
C909 C 0.93808 0.42408 0.524 0.0
O910 O 0.95153 0.4126 0.53338 0.0
N911 N 0.94896 0.36279 0.50095 0.0
C912 C 0.97251 0.3273 0.50464 0.0
C913 C 0.95119 0.32612 0.50219 0.0
C914 C 0.93957 0.34418 0.50075 0.0
C915 C 0.96954 0.36401 0.5036 0.0
C916 C 0.98154 0.34664 0.50494 0.0
H917 H 0.92312 0.34323 0.5003 0.0
H918 H 0.97675 0.37875 0.5052 0.0
H919 H 0.89226 0.39112 0.52203 0.0
H920 H 0.91966 0.36521 0.57379 0.0
H921 H 0.98004 0.3941 0.43922 0.0
H922 H 0.94353 0.3115 0.50236 0.0
H923 H 0.99786 0.34845 0.50671 0.0
C924 C 0.62032 0.19069 0.79501 0.0
C925 C 0.61563 0.17827 0.81115 0.0
N926 N 0.6221 0.15922 0.80692 0.0
N927 N 0.62954 0.17964 0.7804 0.0
C928 C 0.63064 0.16051 0.78815 0.0
H929 H 0.61765 0.20693 0.79416 0.0
Co930 Co 0.64057 0.19133 0.75679 0.0
C931 C 0.62464 0.15941 0.72698 0.0
O932 O 0.60998 0.1712 0.72027 0.0
N933 N 0.65238 0.20342 0.73317 0.0
C934 C 0.65653 0.21765 0.70258 0.0
C935 C 0.64445 0.20512 0.71421 0.0
C936 C 0.6695 0.21503 0.73246 0.0
N937 N 0.6723 0.22378 0.71408 0.0
O938 O 0.66714 0.18219 0.76524 0.0
H939 H 0.62995 0.19923 0.70939 0.0
H940 H 0.679 0.21832 0.74548 0.0
O941 O 0.63644 0.16554 0.74131 0.0
C942 C 0.67393 0.19512 0.77814 0.0
O943 O 0.6623 0.21077 0.78276 0.0
N944 N 0.61461 0.20292 0.75044 0.0
C945 C 0.57918 0.22705 0.75073 0.0
C946 C 0.57795 0.20575 0.75293 0.0
C947 C 0.59592 0.19396 0.75309 0.0
C948 C 0.61582 0.22357 0.74819 0.0
C949 C 0.59846 0.23572 0.74777 0.0
H950 H 0.59491 0.17786 0.75646 0.0
H951 H 0.6305 0.23104 0.74788 0.0
H952 H 0.63786 0.14791 0.78033 0.0
H953 H 0.60866 0.18314 0.82527 0.0
H954 H 0.65343 0.22272 0.68719 0.0
H955 H 0.56342 0.19843 0.75572 0.0
H956 H 0.60027 0.25204 0.74602 0.0
C957 C 0.42481 0.15547 0.47881 0.0
C958 C 0.40898 0.1565 0.46508 0.0
N959 N 0.39455 0.14287 0.47053 0.0
N960 N 0.42047 0.14141 0.49312 0.0
C961 C 0.40198 0.13401 0.48767 0.0
H962 H 0.43878 0.16415 0.47803 0.0
Co963 Co 0.43733 0.13221 0.51438 0.0
C964 C 0.40751 0.12018 0.5456 0.0
O965 O 0.41679 0.10246 0.5465 0.0
N966 N 0.45427 0.12292 0.5356 0.0
C967 C 0.47073 0.12075 0.56521 0.0
C968 C 0.4562 0.13125 0.55434 0.0
C969 C 0.46765 0.10722 0.53556 0.0
N970 N 0.47777 0.10559 0.55338 0.0
O971 O 0.43097 0.10446 0.50699 0.0
H972 H 0.44763 0.1442 0.55982 0.0
H973 H 0.47036 0.09739 0.52263 0.0
O974 O 0.41406 0.13378 0.53325 0.0
C975 C 0.44243 0.0987 0.49236 0.0
O976 O 0.45549 0.11192 0.48485 0.0
N977 N 0.4456 0.15913 0.52 0.0
C978 C 0.46521 0.19649 0.52643 0.0
C979 C 0.44591 0.19259 0.53498 0.0
C980 C 0.43615 0.17381 0.53133 0.0
C981 C 0.46424 0.16276 0.51157 0.0
C982 C 0.47419 0.18133 0.5144 0.0
H983 H 0.42136 0.17096 0.53799 0.0
H984 H 0.47151 0.15093 0.50269 0.0
H985 H 0.39456 0.12178 0.49584 0.0
H986 H 0.40842 0.16645 0.45197 0.0
H987 H 0.47565 0.12387 0.58064 0.0
H988 H 0.43846 0.20394 0.54435 0.0
H989 H 0.48912 0.18358 0.50771 0.0
C990 C 0.40314 0.33683 0.79189 0.0
C991 C 0.40499 0.35164 0.80659 0.0
N992 N 0.39383 0.36792 0.80093 0.0
N993 N 0.39109 0.34372 0.77676 0.0
C994 C 0.38545 0.36267 0.78278 0.0
H995 H 0.40981 0.32177 0.79242 0.0
Co996 Co 0.38283 0.32814 0.75423 0.0
C997 C 0.39191 0.35702 0.71955 0.0
O998 O 0.40427 0.34384 0.71109 0.0
N999 N 0.37391 0.31186 0.73147 0.0
C1000 C 0.37302 0.29326 0.70291 0.0
C1001 C 0.38489 0.30521 0.71529 0.0
C1002 C 0.35535 0.30307 0.72856 0.0
N1003 N 0.35445 0.29186 0.71131 0.0
O1004 O 0.35502 0.33385 0.76128 0.0
H1005 H 0.40097 0.30771 0.71293 0.0
H1006 H 0.34269 0.30439 0.73896 0.0
O1007 O 0.38342 0.35287 0.73664 0.0
C1008 C 0.34878 0.32129 0.77476 0.0
O1009 O 0.36131 0.30688 0.78082 0.0
N1010 N 0.41034 0.32086 0.74944 0.0
C1011 C 0.45019 0.30535 0.74942 0.0
C1012 C 0.44653 0.3264 0.74725 0.0
C1013 C 0.42648 0.3339 0.74758 0.0
C1014 C 0.41368 0.30051 0.75213 0.0
C1015 C 0.43335 0.29241 0.75177 0.0
H1016 H 0.42395 0.35017 0.74707 0.0
H1017 H 0.40091 0.29048 0.75501 0.0
H1018 H 0.3752 0.37229 0.77416 0.0
H1019 H 0.41335 0.35022 0.82074 0.0
H1020 H 0.37801 0.2852 0.68941 0.0
H1021 H 0.45905 0.33704 0.7457 0.0
H1022 H 0.43534 0.27621 0.75424 0.0
C1023 C 0.59603 0.35819 0.47902 0.0
C1024 C 0.61196 0.35728 0.46542 0.0
N1025 N 0.62579 0.37165 0.47045 0.0
N1026 N 0.59969 0.37295 0.49284 0.0
C1027 C 0.61798 0.38079 0.48727 0.0
H1028 H 0.58236 0.34903 0.47835 0.0
Co1029 Co 0.58188 0.38265 0.51321 0.0
C1030 C 0.61058 0.39495 0.54525 0.0
O1031 O 0.60132 0.4127 0.5456 0.0
N1032 N 0.56408 0.39241 0.53339 0.0
C1033 C 0.54623 0.39557 0.56204 0.0
C1034 C 0.56098 0.38446 0.55213 0.0
C1035 C 0.55121 0.40849 0.53238 0.0
N1036 N 0.54021 0.41072 0.54963 0.0
O1037 O 0.58884 0.41034 0.50623 0.0
H1038 H 0.56894 0.37142 0.55826 0.0
H1039 H 0.54962 0.41817 0.51914 0.0
O1040 O 0.60427 0.38111 0.53304 0.0
C1041 C 0.58232 0.41643 0.48897 0.0
O1042 O 0.57304 0.40336 0.47696 0.0
N1043 N 0.57308 0.35587 0.51878 0.0
C1044 C 0.55275 0.31898 0.52559 0.0
C1045 C 0.57178 0.32289 0.53472 0.0
C1046 C 0.58191 0.34142 0.53088 0.0
C1047 C 0.55475 0.3522 0.50972 0.0
C1048 C 0.54445 0.33383 0.51272 0.0
H1049 H 0.59645 0.3443 0.53807 0.0
H1050 H 0.54796 0.36385 0.50024 0.0
H1051 H 0.62488 0.39366 0.49493 0.0
H1052 H 0.61297 0.34697 0.45261 0.0
H1053 H 0.54053 0.3929 0.57728 0.0
H1054 H 0.57871 0.31176 0.54473 0.0
H1055 H 0.52974 0.33156 0.50555 0.0
C1056 C 0.73042 0.61881 0.83853 0.0
C1057 C 0.71489 0.61658 0.85243 0.0
N1058 N 0.72005 0.62652 0.86966 0.0
N1059 N 0.74558 0.62986 0.84694 0.0
C1060 C 0.73876 0.63446 0.86588 0.0
H1061 H 0.73038 0.61331 0.82299 0.0
Co1062 Co 0.76898 0.63952 0.83338 0.0
C1063 C 0.79843 0.62399 0.8664 0.0
O1064 O 0.80455 0.60775 0.85647 0.0
N1065 N 0.79223 0.64989 0.81992 0.0
C1066 C 0.82359 0.6555 0.80824 0.0
C1067 C 0.81183 0.64371 0.82095 0.0
C1068 C 0.79249 0.66537 0.80628 0.0
N1069 N 0.81141 0.66915 0.79897 0.0
O1070 O 0.76246 0.66682 0.84171 0.0
H1071 H 0.81734 0.63104 0.82978 0.0
H1072 H 0.77897 0.67358 0.80166 0.0
O1073 O 0.78521 0.63596 0.85845 0.0
C1074 C 0.74715 0.67383 0.83201 0.0
O1075 O 0.73761 0.66193 0.81903 0.0
N1076 N 0.77399 0.61295 0.82268 0.0
C1077 C 0.77171 0.57681 0.79987 0.0
C1078 C 0.77081 0.57628 0.82126 0.0
C1079 C 0.77161 0.59464 0.83242 0.0
C1080 C 0.77517 0.61343 0.80192 0.0
C1081 C 0.77443 0.59568 0.79036 0.0
H1082 H 0.76897 0.59423 0.84867 0.0
H1083 H 0.7753 0.62781 0.79394 0.0
H1084 H 0.74715 0.64392 0.87647 0.0
H1085 H 0.70047 0.60902 0.84969 0.0
H1086 H 0.83974 0.65362 0.80548 0.0
H1087 H 0.76816 0.56203 0.82915 0.0
H1088 H 0.77493 0.59684 0.7739 0.0
C1089 C 0.85295 0.03735 0.42242 0.0
C1090 C 0.84891 0.05177 0.40794 0.0
N1091 N 0.86362 0.05113 0.39366 0.0
N1092 N 0.87015 0.02717 0.41753 0.0
C1093 C 0.87649 0.0362 0.39995 0.0
H1094 H 0.84403 0.03511 0.43601 0.0
Co1095 Co 0.88295 1.00743 0.43454 0.0
C1096 C 0.87498 0.98328 0.39529 0.0
O1097 O 0.86144 0.99592 0.38773 0.0
N1098 N 0.89563 0.98847 0.45151 0.0
C1099 C 0.90542 0.95984 0.46667 0.0
C1100 C 0.89303 0.96809 0.4519 0.0
C1101 C 0.90941 0.99229 0.4663 0.0
N1102 N 0.9158 0.97508 0.47578 0.0
O1103 O 0.90946 0.0169 0.42626 0.0
H1104 H 0.8827 0.95973 0.44215 0.0
H1105 H 0.91438 1.00753 0.47013 0.0
O1106 O 0.8831 0.98689 0.41267 0.0
C1107 C 0.9146 0.0342 0.43354 0.0
O1108 O 0.90089 0.045 0.44333 0.0
N1109 N 0.85753 0.99899 0.44505 0.0
C1110 C 0.82201 0.99106 0.46735 0.0
C1111 C 0.82552 0.98139 0.44854 0.0
C1112 C 0.84341 0.98567 0.43748 0.0
C1113 C 0.85457 1.00796 0.46355 0.0
C1114 C 0.83687 1.00446 0.47478 0.0
H1115 H 0.84581 0.97816 0.42309 0.0
H1116 H 0.86603 0.01823 0.46948 0.0
H1117 H 0.89031 0.03197 0.39202 0.0
H1118 H 0.83638 0.06248 0.4084 0.0
H1119 H 0.90669 0.9438 0.47021 0.0
H1120 H 0.81445 0.97082 0.44234 0.0
H1121 H 0.83497 0.01198 0.48935 0.0
C1122 C 0.29111 0.90803 0.83861 0.0
C1123 C 0.30612 0.9108 0.85303 0.0
N1124 N 0.30239 0.89828 0.86889 0.0
N1125 N 0.2777 0.89398 0.84535 0.0
C1126 C 0.285 0.88833 0.86382 0.0
H1127 H 0.29059 0.91513 0.82377 0.0
Co1128 Co 0.25639 0.8817 0.83067 0.0
C1129 C 0.21957 0.88738 0.85619 0.0
O1130 O 0.20956 0.89222 0.83953 0.0
N1131 N 0.23532 0.86803 0.81596 0.0
C1132 C 0.21367 0.84256 0.80937 0.0
C1133 C 0.22471 0.85235 0.82418 0.0
C1134 C 0.23049 0.86718 0.79586 0.0
N1135 N 0.21734 0.85185 0.79153 0.0
O1136 O 0.2664 0.85559 0.83878 0.0
H1137 H 0.22581 0.84755 0.8399 0.0
H1138 H 0.23747 0.87645 0.78424 0.0
O1139 O 0.23865 0.88327 0.85509 0.0
C1140 C 0.27764 0.84865 0.82456 0.0
O1141 O 0.28035 0.85997 0.80826 0.0
N1142 N 0.24825 0.90769 0.82088 0.0
C1143 C 0.24557 0.94677 0.80359 0.0
C1144 C 0.24029 0.94338 0.82409 0.0
C1145 C 0.24201 0.92379 0.83253 0.0
C1146 C 0.2538 0.91087 0.8011 0.0
C1147 C 0.25214 0.93008 0.79204 0.0
H1148 H 0.2395 0.92196 0.84867 0.0
H1149 H 0.26106 0.89876 0.79267 0.0
H1150 H 0.278 0.87659 0.87303 0.0
H1151 H 0.31938 0.92049 0.85138 0.0
H1152 H 0.20419 0.8292 0.81144 0.0
H1153 H 0.23557 0.95589 0.83375 0.0
H1154 H 0.25729 0.93206 0.7765 0.0
C1155 C 0.15175 0.4796 0.43626 0.0
C1156 C 0.15625 0.46295 0.42442 0.0
N1157 N 0.14895 0.46615 0.40548 0.0
N1158 N 0.14184 0.49354 0.42492 0.0
C1159 C 0.14013 0.48484 0.40623 0.0
H1160 H 0.155 0.48124 0.45233 0.0
Co1161 Co 0.1306 0.51756 0.4359 0.0
C1162 C 0.14563 0.54902 0.40697 0.0
O1163 O 0.15357 0.55881 0.42254 0.0
N1164 N 0.11793 0.54105 0.44727 0.0
C1165 C 0.09849 0.56877 0.45038 0.0
C1166 C 0.11059 0.55767 0.43751 0.0
C1167 C 0.10894 0.54203 0.46587 0.0
N1168 N 0.09722 0.55887 0.46826 0.0
O1169 O 0.10429 0.50951 0.42635 0.0
H1170 H 0.11199 0.56086 0.42149 0.0
H1171 H 0.1096 0.52975 0.47684 0.0
O1172 O 0.13614 0.5322 0.41 0.0
C1173 C 0.09681 0.49562 0.43765 0.0
O1174 O 0.10783 0.48842 0.45272 0.0
N1175 N 0.15672 0.52445 0.44713 0.0
C1176 C 0.19481 0.52438 0.46679 0.0
C1177 C 0.1934 0.52252 0.44552 0.0
C1178 C 0.17427 0.52253 0.43601 0.0
C1179 C 0.15795 0.52682 0.46778 0.0
C1180 C 0.17678 0.52721 0.47784 0.0
H1181 H 0.17352 0.51964 0.41981 0.0
H1182 H 0.14436 0.52688 0.47692 0.0
H1183 H 0.13227 0.49192 0.39359 0.0
H1184 H 0.16366 0.44919 0.42967 0.0
H1185 H 0.09042 0.58257 0.44637 0.0
H1186 H 0.20693 0.52011 0.43639 0.0
H1187 H 0.17711 0.52814 0.49431 0.0
C1188 C 0.72689 0.40538 0.68182 0.0
C1189 C 0.71147 0.40702 0.66773 0.0
N1190 N 0.71693 0.39675 0.6508 0.0
N1191 N 0.7423 0.39439 0.67383 0.0
C1192 C 0.73573 0.3892 0.65494 0.0
H1193 H 0.7266 0.41123 0.69722 0.0
Co1194 Co 0.76546 0.38558 0.6884 0.0
C1195 C 0.79659 0.4001 0.65689 0.0
O1196 O 0.80244 0.41583 0.66778 0.0
N1197 N 0.78829 0.3759 0.7032 0.0
C1198 C 0.81919 0.37032 0.71612 0.0
C1199 C 0.80795 0.38206 0.70296 0.0
C1200 C 0.78801 0.36055 0.71703 0.0
N1201 N 0.80666 0.35675 0.72497 0.0
O1202 O 0.75935 0.35786 0.68103 0.0
H1203 H 0.81398 0.39459 0.69438 0.0
H1204 H 0.77436 0.35227 0.72116 0.0
O1205 O 0.7825 0.38822 0.66343 0.0
C1206 C 0.74345 0.35071 0.68962 0.0
O1207 O 0.73261 0.36264 0.70148 0.0
N1208 N 0.77019 0.41278 0.69769 0.0
C1209 C 0.76974 0.45145 0.71622 0.0
C1210 C 0.76761 0.44932 0.69499 0.0
C1211 C 0.76757 0.42988 0.68607 0.0
C1212 C 0.77217 0.41463 0.71833 0.0
C1213 C 0.77232 0.43371 0.72781 0.0
H1214 H 0.76476 0.42853 0.66989 0.0
H1215 H 0.77263 0.40119 0.72782 0.0
H1216 H 0.74432 0.37955 0.6447 0.0
H1217 H 0.69691 0.41438 0.67018 0.0
H1218 H 0.83527 0.37209 0.71939 0.0
H1219 H 0.76548 0.46253 0.68534 0.0
H1220 H 0.77332 0.43441 0.74426 0.0
C1221 C 0.65718 0.04518 0.59408 0.0
C1222 C 0.65855 0.05948 0.60934 0.0
N1223 N 0.64834 0.05247 0.62566 0.0
N1224 N 0.646 0.02921 0.60062 0.0
C1225 C 0.64088 0.03406 0.62005 0.0
H1226 H 0.66292 0.04696 0.57876 0.0
Co1227 Co 0.63626 1.00827 0.58361 0.0
C1228 C 0.62403 0.9769 0.61297 0.0
O1229 O 0.60624 0.9763 0.60378 0.0
N1230 N 0.62644 0.98761 0.56632 0.0
C1231 C 0.62356 0.95877 0.54868 0.0
C1232 C 0.63442 0.96883 0.56353 0.0
C1233 C 0.61057 0.98849 0.55315 0.0
N1234 N 0.60852 0.97112 0.54228 0.0
O1235 O 0.60866 0.01552 0.59047 0.0
H1236 H 0.64742 0.96283 0.57168 0.0
H1237 H 0.60099 1.00176 0.55118 0.0
O1238 O 0.63781 0.98905 0.60643 0.0
C1239 C 0.60267 0.0325 0.58316 0.0
O1240 O 0.61568 0.04383 0.57301 0.0
N1241 N 0.66303 1.00244 0.57506 0.0
C1242 C 0.70005 0.99487 0.55529 0.0
C1243 C 0.69606 0.98655 0.57465 0.0
C1244 C 0.67747 0.99076 0.58447 0.0
C1245 C 0.66679 0.01077 0.55643 0.0
C1246 C 0.68521 1.00735 0.54638 0.0
H1247 H 0.67456 0.9842 0.59927 0.0
H1248 H 0.65515 0.01991 0.54917 0.0
H1249 H 0.63074 0.02499 0.62938 0.0
H1250 H 0.66581 0.07427 0.6083 0.0
H1251 H 0.62636 0.9435 0.54309 0.0
H1252 H 0.70718 0.97689 0.58208 0.0
H1253 H 0.68753 0.0139 0.53141 0.0
C1254 C 0.29247 0.11768 0.6843 0.0
C1255 C 0.30815 0.11531 0.67053 0.0
N1256 N 0.3025 0.12374 0.65267 0.0
N1257 N 0.27675 0.12722 0.67514 0.0
C1258 C 0.28339 0.13088 0.65593 0.0
H1259 H 0.29277 0.11336 0.7002 0.0
Co1260 Co 0.25296 0.13702 0.68788 0.0
C1261 C 0.2246 0.11804 0.65635 0.0
O1262 O 0.21951 0.10285 0.66828 0.0
N1263 N 0.22929 0.14797 0.70057 0.0
C1264 C 0.19769 0.15546 0.71055 0.0
C1265 C 0.20933 0.1439 0.69748 0.0
C1266 C 0.22925 0.1621 0.71564 0.0
N1267 N 0.21026 0.16689 0.72205 0.0
O1268 O 0.25962 0.16387 0.67839 0.0
H1269 H 0.20331 0.13299 0.68683 0.0
H1270 H 0.24295 0.16854 0.72211 0.0
O1271 O 0.23699 0.13181 0.66259 0.0
C1272 C 0.27198 0.17175 0.69119 0.0
O1273 O 0.27792 0.16062 0.70675 0.0
N1274 N 0.24807 0.11066 0.6999 0.0
C1275 C 0.24842 0.07515 0.72414 0.0
C1276 C 0.25246 0.07413 0.70312 0.0
C1277 C 0.25251 0.09211 0.69132 0.0
C1278 C 0.2442 0.11162 0.72032 0.0
C1279 C 0.24371 0.09423 0.73243 0.0
H1280 H 0.2569 0.09121 0.67546 0.0
H1281 H 0.24263 0.12608 0.72791 0.0
H1282 H 0.27457 0.1392 0.64476 0.0
H1283 H 0.32295 0.1088 0.67377 0.0
H1284 H 0.18126 0.15494 0.71189 0.0
H1285 H 0.25657 0.05979 0.69607 0.0
H1286 H 0.24045 0.09595 0.74851 0.0
C1287 C 0.36368 0.47376 0.58667 0.0
C1288 C 0.3616 0.45859 0.60099 0.0
N1289 N 0.37067 0.46478 0.61832 0.0
N1290 N 0.37415 0.48944 0.59487 0.0
C1291 C 0.37811 0.48358 0.61426 0.0
H1292 H 0.35876 0.473 0.57097 0.0
Co1293 Co 0.38418 0.51184 0.58024 0.0
C1294 C 0.39459 0.5402 0.61276 0.0
O1295 O 0.41311 0.53984 0.60515 0.0
N1296 N 0.39428 0.53424 0.56564 0.0
C1297 C 0.39867 0.56559 0.55363 0.0
C1298 C 0.38717 0.55352 0.56631 0.0
C1299 C 0.40987 0.53487 0.5522 0.0
N1300 N 0.41297 0.55385 0.54475 0.0
O1301 O 0.41161 0.50439 0.58782 0.0
H1302 H 0.37435 0.55848 0.5754 0.0
H1303 H 0.41884 0.52167 0.54804 0.0
O1304 O 0.38062 0.52939 0.6044 0.0
C1305 C 0.41783 0.48859 0.57835 0.0
O1306 O 0.40522 0.47908 0.56604 0.0
N1307 N 0.35789 0.51735 0.57037 0.0
C1308 C 0.32086 0.51718 0.54917 0.0
C1309 C 0.32144 0.52188 0.57012 0.0
C1310 C 0.34029 0.52177 0.58058 0.0
C1311 C 0.35752 0.51352 0.55 0.0
C1312 C 0.33936 0.51363 0.53913 0.0
H1313 H 0.34064 0.52429 0.59686 0.0
H1314 H 0.3715 0.50954 0.54222 0.0
H1315 H 0.38734 0.49234 0.62477 0.0
H1316 H 0.35447 0.44388 0.59868 0.0
H1317 H 0.39635 0.58167 0.55078 0.0
H1318 H 0.30748 0.52458 0.57847 0.0
H1319 H 0.33976 0.51021 0.52299 0.0
C1320 C 0.834 0.72624 0.62296 0.0
C1321 C 0.84777 0.71059 0.62061 0.0
N1322 N 0.8664 0.71744 0.62591 0.0
N1323 N 0.84384 0.74299 0.62969 0.0
C1324 C 0.86361 0.73717 0.63129 0.0
H1325 H 0.81768 0.72525 0.6208 0.0
Co1326 Co 0.83106 0.7667 0.63948 0.0
C1327 C 0.86171 0.79517 0.61933 0.0
O1328 O 0.84978 0.79901 0.60378 0.0
N1329 N 0.81846 0.79053 0.65022 0.0
C1330 C 0.8049 0.82154 0.65349 0.0
C1331 C 0.81744 0.80937 0.64189 0.0
C1332 C 0.80663 0.79186 0.66711 0.0
N1333 N 0.79826 0.8105 0.66939 0.0
O1334 O 0.84128 0.76035 0.66623 0.0
H1335 H 0.82429 0.8138 0.62766 0.0
H1336 H 0.80315 0.77918 0.67699 0.0
O1337 O 0.85588 0.78309 0.63352 0.0
C1338 C 0.82862 0.74763 0.67383 0.0
O1339 O 0.81287 0.74223 0.66267 0.0
N1340 N 0.8182 0.77086 0.61343 0.0
C1341 C 0.79287 0.77075 0.57864 0.0
C1342 C 0.8138 0.76627 0.57708 0.0
C1343 C 0.82612 0.76606 0.59471 0.0
C1344 C 0.79777 0.7746 0.61504 0.0
C1345 C 0.78517 0.77535 0.598 0.0
H1346 H 0.84191 0.76151 0.59336 0.0
H1347 H 0.79069 0.77624 0.62977 0.0
H1348 H 0.87548 0.74677 0.63757 0.0
H1349 H 0.84425 0.69516 0.61592 0.0
H1350 H 0.8005 0.8371 0.65021 0.0
H1351 H 0.82043 0.7621 0.56256 0.0
H1352 H 0.76923 0.77898 0.60025 0.0
C1353 C 0.83579 0.29822 0.90426 0.0
C1354 C 0.84856 0.31438 0.90793 0.0
N1355 N 0.86714 0.31003 0.90027 0.0
N1356 N 0.84614 0.28345 0.89449 0.0
C1357 C 0.86521 0.29115 0.89201 0.0
H1358 H 0.81979 0.29738 0.90813 0.0
Co1359 Co 0.83338 0.25963 0.88502 0.0
C1360 C 0.86823 0.23086 0.89782 0.0
O1361 O 0.8594 0.22461 0.91462 0.0
N1362 N 0.82027 0.23595 0.87479 0.0
C1363 C 0.80973 0.20411 0.86939 0.0
C1364 C 0.82252 0.21634 0.88062 0.0
C1365 C 0.80572 0.23517 0.86014 0.0
N1366 N 0.79912 0.21597 0.85648 0.0
O1367 O 0.83989 0.2676 0.85764 0.0
H1368 H 0.83224 0.21107 0.89271 0.0
H1369 H 0.7999 0.24846 0.85238 0.0
O1370 O 0.85946 0.24416 0.88647 0.0
C1371 C 0.82676 0.28025 0.85088 0.0
O1372 O 0.81182 0.28581 0.863 0.0
N1373 N 0.82469 0.25334 0.91206 0.0
C1374 C 0.80631 0.24906 0.95048 0.0
C1375 C 0.82729 0.25306 0.94871 0.0
C1376 C 0.83606 0.25578 0.92937 0.0
C1377 C 0.80413 0.25026 0.91369 0.0
C1378 C 0.79471 0.24792 0.93263 0.0
H1379 H 0.85194 0.26009 0.9283 0.0
H1380 H 0.79469 0.2502 0.9002 0.0
H1381 H 0.87732 0.28318 0.88417 0.0
H1382 H 0.84425 0.32854 0.91519 0.0
H1383 H 0.80787 0.18782 0.87117 0.0
H1384 H 0.8367 0.25464 0.96217 0.0
H1385 H 0.77844 0.24518 0.93327 0.0
C1386 C 0.53859 0.92865 0.35977 0.0
C1387 C 0.55522 0.91655 0.35627 0.0
N1388 N 0.55553 0.90148 0.37022 0.0
N1389 N 0.52779 0.92121 0.37558 0.0
C1390 C 0.53863 0.90463 0.38177 0.0
H1391 H 0.53511 0.94254 0.35165 0.0
Co1392 Co 0.50539 0.93533 0.38738 0.0
C1393 C 0.48612 0.8925 0.38107 0.0
O1394 O 0.49967 0.88476 0.36856 0.0
N1395 N 0.48358 0.94948 0.39928 0.0
C1396 C 0.45226 0.95915 0.4078 0.0
C1397 C 0.46356 0.94611 0.39594 0.0
C1398 C 0.48409 0.96485 0.41304 0.0
N1399 N 0.46516 0.97095 0.41857 0.0
O1400 O 0.51543 0.92923 0.4143 0.0
H1401 H 0.4575 0.93495 0.38542 0.0
H1402 H 0.49806 0.97127 0.41903 0.0
O1403 O 0.48823 0.9107 0.3878 0.0
C1404 C 0.53172 0.93864 0.41932 0.0
O1405 O 0.54108 0.94981 0.40561 0.0
N1406 N 0.49625 0.94359 0.36112 0.0
C1407 C 0.49305 0.96093 0.3222 0.0
C1408 C 0.49148 0.93973 0.32496 0.0
C1409 C 0.49286 0.93134 0.34462 0.0
C1410 C 0.49689 0.96426 0.35871 0.0
C1411 C 0.495 0.97325 0.33949 0.0
H1412 H 0.49287 0.91502 0.34624 0.0
H1413 H 0.50023 0.97389 0.37166 0.0
H1414 H 0.53475 0.89569 0.39507 0.0
H1415 H 0.56648 0.91903 0.34449 0.0
H1416 H 0.4358 0.96014 0.40816 0.0
H1417 H 0.49017 0.92967 0.31194 0.0
H1418 H 0.49667 0.98961 0.33804 0.0
C1419 C 0.17959 0.22551 0.90857 0.0
C1420 C 0.16475 0.21083 0.91063 0.0
N1421 N 0.149 0.21563 0.89835 0.0
N1422 N 0.17327 0.23975 0.89519 0.0
C1423 C 0.15459 0.23327 0.88917 0.0
H1424 H 0.19436 0.22529 0.91584 0.0
Co1425 Co 0.18853 0.26175 0.88502 0.0
C1426 C 0.15614 0.29031 0.87329 0.0
O1427 O 0.16388 0.28989 0.85484 0.0
N1428 N 0.20387 0.28364 0.87471 0.0
C1429 C 0.21615 0.31481 0.86949 0.0
C1430 C 0.2029 0.30324 0.88088 0.0
C1431 C 0.21812 0.28362 0.85979 0.0
N1432 N 0.22571 0.30246 0.85618 0.0
O1433 O 0.18133 0.2536 0.85776 0.0
H1434 H 0.19311 0.30884 0.89288 0.0
H1435 H 0.2227 0.27013 0.85156 0.0
O1436 O 0.16436 0.27953 0.88733 0.0
C1437 C 0.19332 0.23987 0.85103 0.0
O1438 O 0.20781 0.23316 0.86313 0.0
N1439 N 0.19767 0.26825 0.91144 0.0
C1440 C 0.2177 0.27473 0.94856 0.0
C1441 C 0.19813 0.28282 0.94508 0.0
C1442 C 0.18819 0.27918 0.9264 0.0
C1443 C 0.21672 0.26058 0.91454 0.0
C1444 C 0.22688 0.2634 0.933 0.0
H1445 H 0.17309 0.28528 0.92397 0.0
H1446 H 0.22404 0.25205 0.90248 0.0
H1447 H 0.14551 0.24114 0.87788 0.0
H1448 H 0.16595 0.19717 0.91978 0.0
H1449 H 0.21876 0.33101 0.87113 0.0
H1450 H 0.19054 0.29169 0.95674 0.0
H1451 H 0.24203 0.25711 0.93492 0.0
C1452 C 0.97693 0.09442 0.85714 0.0
C1453 C 0.96387 0.11045 0.85383 0.0
N1454 N 0.96776 0.12493 0.8678 0.0
N1455 N 0.98937 0.09883 0.87295 0.0
C1456 C 0.98319 0.11752 0.87931 0.0
H1457 H 0.97724 0.08044 0.84847 0.0
Co1458 Co 0.0105 0.08222 0.88322 0.0
C1459 C 0.04015 0.11265 0.897 0.0
O1460 O 0.03982 0.10371 0.9149 0.0
N1461 N 0.03184 0.06574 0.89341 0.0
C1462 C 0.06165 0.04968 0.8964 0.0
C1463 C 0.05071 0.06372 0.88533 0.0
C1464 C 0.03192 0.05302 0.90963 0.0
N1465 N 0.0498 0.04311 0.91173 0.0
O1466 O 1.0015 0.08775 0.91075 0.0
H1467 H 0.05623 0.0719 0.87216 0.0
H1468 H 0.01912 0.05069 0.91958 0.0
O1469 O 0.02892 0.10572 0.88265 0.0
C1470 C 0.98648 0.07588 0.91439 0.0
O1471 O 0.97927 0.06493 0.89925 0.0
N1472 N 0.01755 0.0742 0.85666 0.0
C1473 C 0.02526 0.05436 0.81977 0.0
C1474 C 0.03313 0.074 0.8235 0.0
C1475 C 0.02883 0.08388 0.84208 0.0
C1476 C 1.00993 0.05519 0.8532 0.0
C1477 C 0.01341 0.04511 0.83487 0.0
H1478 H 0.03485 0.09896 0.84487 0.0
H1479 H 1.00109 0.04776 0.86496 0.0
H1480 H 0.99006 0.12565 0.89192 0.0
H1481 H 0.9522 0.11132 0.84221 0.0
H1482 H 0.07715 0.04478 0.89354 0.0
H1483 H 0.04237 0.08162 0.81216 0.0
H1484 H 1.00725 0.02994 0.83273 0.0
C1485 C 0.68457 0.29509 0.11898 0.0
C1486 C 0.67082 0.31074 0.11632 0.0
N1487 N 0.65239 0.3044 0.12283 0.0
N1488 N 0.6749 0.27891 0.12715 0.0
C1489 C 0.65528 0.28502 0.12926 0.0
H1490 H 0.70078 0.29578 0.11607 0.0
Co1491 Co 0.68758 0.25562 0.13789 0.0
C1492 C 0.65609 0.22643 0.12001 0.0
O1493 O 0.66827 0.22053 0.10534 0.0
N1494 N 0.70017 0.23229 0.14966 0.0
C1495 C 0.70912 0.2008 0.15875 0.0
C1496 C 0.69644 0.21224 0.14665 0.0
C1497 C 0.71534 0.23249 0.16369 0.0
N1498 N 0.72105 0.21356 0.16945 0.0
O1499 O 0.67829 0.26352 0.16459 0.0
H1500 H 0.6855 0.20592 0.13624 0.0
H1501 H 0.72224 0.2463 0.16947 0.0
O1502 O 0.66215 0.23946 0.13327 0.0
C1503 C 0.69118 0.27649 0.17137 0.0
O1504 O 0.7065 0.28159 0.15951 0.0
N1505 N 0.69959 0.24981 0.11186 0.0
C1506 C 0.72342 0.24507 0.07643 0.0
C1507 C 0.70254 0.24991 0.07511 0.0
C1508 C 0.691 0.25269 0.09304 0.0
C1509 C 0.72012 0.24669 0.11317 0.0
C1510 C 0.73211 0.24398 0.09589 0.0
H1511 H 0.67515 0.25707 0.09179 0.0
H1512 H 0.72769 0.24705 0.12774 0.0
H1513 H 0.64364 0.27595 0.13664 0.0
H1514 H 0.67422 0.32583 0.11058 0.0
H1515 H 0.70988 0.18433 0.15917 0.0
H1516 H 0.69517 0.25151 0.06045 0.0
H1517 H 0.74833 0.24164 0.09788 0.0
C1518 C 0.54387 0.09224 0.15838 0.0
C1519 C 0.55839 0.10749 0.15855 0.0
N1520 N 0.55358 0.1213 0.14412 0.0
N1521 N 0.52974 0.09642 0.14403 0.0
C1522 C 0.53619 0.11414 0.13559 0.0
H1523 H 0.544 0.07874 0.16781 0.0
Co1524 Co 0.50733 0.08045 0.13513 0.0
C1525 C 0.48849 0.11905 0.15119 0.0
O1526 O 0.50341 0.1211 0.16439 0.0
N1527 N 0.48537 0.06453 0.12579 0.0
C1528 C 0.45553 0.04841 0.1239 0.0
C1529 C 0.46689 0.06247 0.13464 0.0
C1530 C 0.48476 0.05178 0.10959 0.0
N1531 N 0.4668 0.04188 0.1081 0.0
O1532 O 0.51274 0.08906 0.10754 0.0
H1533 H 0.46209 0.07042 0.14825 0.0
H1534 H 0.4974 0.04924 0.09934 0.0
O1535 O 0.48818 0.10355 0.13931 0.0
C1536 C 0.52692 0.07757 0.10076 0.0
O1537 O 0.53444 0.06365 0.11305 0.0
N1538 N 0.50372 0.06923 0.16157 0.0
C1539 C 0.504 0.04394 0.1963 0.0
C1540 C 0.49515 0.06354 0.19689 0.0
C1541 C 0.49492 0.07589 0.17925 0.0
C1542 C 0.51187 0.05018 0.16069 0.0
C1543 C 0.51187 0.0373 0.17754 0.0
H1544 H 0.48758 0.09053 0.18002 0.0
H1545 H 0.51836 0.04482 0.14654 0.0
H1546 H 0.52811 0.12168 0.12337 0.0
H1547 H 0.57183 0.10792 0.1681 0.0
H1548 H 0.44019 0.0434 0.12738 0.0
H1549 H 0.48865 0.06945 0.21084 0.0
H1550 H 0.518 0.02213 0.1756 0.0
C1551 C 0.47561 0.42741 0.15402 0.0
C1552 C 0.46118 0.41243 0.15621 0.0
N1553 N 0.46673 0.39622 0.1449 0.0
N1554 N 0.49056 0.42082 0.14156 0.0
C1555 C 0.48463 0.40175 0.13606 0.0
H1556 H 0.4749 0.4425 0.16061 0.0
Co1557 Co 0.51227 0.4377 0.13289 0.0
C1558 C 0.54849 0.41039 0.14243 0.0
O1559 O 0.55645 0.42368 0.15503 0.0
N1560 N 0.53377 0.4553 0.12382 0.0
C1561 C 0.56015 0.47684 0.12338 0.0
C1562 C 0.5499 0.46249 0.13455 0.0
C1563 C 0.53468 0.46588 0.10605 0.0
N1564 N 0.55057 0.47903 0.10545 0.0
O1565 O 0.50615 0.43116 0.1049 0.0
H1566 H 0.55322 0.45913 0.15027 0.0
H1567 H 0.52318 0.46509 0.0943 0.0
O1568 O 0.53132 0.41407 0.13386 0.0
C1569 C 0.48934 0.43845 0.09837 0.0
O1570 O 0.47755 0.44843 0.11109 0.0
N1571 N 0.51662 0.44584 0.16027 0.0
C1572 C 0.51689 0.46268 0.19952 0.0
C1573 C 0.51968 0.4416 0.19654 0.0
C1574 C 0.51934 0.43343 0.17675 0.0
C1575 C 0.51316 0.46617 0.16303 0.0
C1576 C 0.5137 0.47495 0.18238 0.0
H1577 H 0.52057 0.41712 0.1747 0.0
H1578 H 0.50964 0.47567 0.15004 0.0
H1579 H 0.49304 0.39233 0.12546 0.0
H1580 H 0.44716 0.41378 0.1648 0.0
H1581 H 0.57313 0.4857 0.12845 0.0
H1582 H 0.52177 0.43149 0.2094 0.0
H1583 H 0.51075 0.49112 0.18394 0.0
H1584 H 0.20098 0.18083 0.33726 0.0
H1585 H 0.263 0.20059 0.32632 0.0
H1586 H 0.25042 0.23517 0.31759 0.0
H1587 H 0.1778 0.2065 0.29787 0.0
H1588 H 0.15505 0.21361 0.31152 0.0
H1589 H 0.169 0.19121 0.31893 0.0
H1590 H 0.17261 0.20501 0.35572 0.0
H1591 H 0.15825 0.22731 0.34857 0.0
H1592 H 0.18318 0.23005 0.35982 0.0
H1593 H 0.23017 0.26581 0.30478 0.0
H1594 H 0.20453 0.2919 0.295 0.0
H1595 H 0.15624 0.25283 0.3172 0.0
C1596 C 0.21191 0.19267 0.33367 0.0
C1597 C 0.23293 0.18827 0.33266 0.0
C1598 C 0.24687 0.2039 0.32758 0.0
C1599 C 0.23983 0.22348 0.32242 0.0
C1600 C 0.21887 0.22718 0.32289 0.0
C1601 C 0.20518 0.21235 0.329 0.0
C1602 C 0.18344 0.22 0.32794 0.0
C1603 C 0.17058 0.20706 0.31319 0.0
C1604 C 0.17381 0.22064 0.34928 0.0
C1605 C 0.18691 0.24124 0.31965 0.0
C1606 C 0.20742 0.24508 0.31661 0.0
C1607 C 0.21413 0.26313 0.30755 0.0
C1608 C 0.19952 0.27776 0.30187 0.0
C1609 C 0.17856 0.27435 0.30558 0.0
C1610 C 0.17225 0.25586 0.31455 0.0
H1611 H 0.4355 0.56989 0.93004 0.0
H1612 H 0.45625 0.50792 0.93911 0.0
H1613 H 0.49106 0.52072 0.94656 0.0
H1614 H 0.48393 0.58879 0.90596 0.0
H1615 H 0.48125 0.61342 0.91784 0.0
H1616 H 0.45891 0.59894 0.91101 0.0
H1617 H 0.44614 0.60156 0.94825 0.0
H1618 H 0.46859 0.61562 0.95533 0.0
H1619 H 0.46214 0.59249 0.96865 0.0
H1620 H 0.52176 0.54111 0.95904 0.0
H1621 H 0.5475 0.56695 0.96941 0.0
H1622 H 0.5074 0.61513 0.94904 0.0
C1623 C 0.4476 0.55902 0.93287 0.0
C1624 C 0.4434 0.53796 0.93382 0.0
C1625 C 0.45937 0.52409 0.93793 0.0
C1626 C 0.4791 0.53125 0.94235 0.0
C1627 C 0.4826 0.55226 0.94205 0.0
C1628 C 0.46741 0.56588 0.93677 0.0
C1629 C 0.47482 0.5877 0.93809 0.0
C1630 C 0.47473 0.5978 0.91697 0.0
C1631 C 0.46217 0.60005 0.9535 0.0
C1632 C 0.49633 0.58434 0.94568 0.0
C1633 C 0.50054 0.56381 0.94806 0.0
C1634 C 0.51882 0.55717 0.9567 0.0
C1635 C 0.53325 0.57186 0.96269 0.0
C1636 C 0.52941 0.59285 0.95969 0.0
C1637 C 0.51077 0.5991 0.95104 0.0
H1638 H 0.86106 0.26599 0.31805 0.0
H1639 H 0.81407 0.22537 0.29585 0.0
H1640 H 0.78765 0.25096 0.30479 0.0
H1641 H 0.83256 0.2897 0.35971 0.0
H1642 H 0.8429 0.31469 0.35485 0.0
H1643 H 0.8577 0.29233 0.34892 0.0
H1644 H 0.86163 0.30458 0.31158 0.0
H1645 H 0.84707 0.32704 0.3175 0.0
H1646 H 0.83915 0.3106 0.29696 0.0
H1647 H 0.76647 0.28155 0.31593 0.0
H1648 H 0.75301 0.31624 0.32278 0.0
H1649 H 0.81433 0.33761 0.33468 0.0
C1650 C 0.84516 0.26246 0.3154 0.0
C1651 C 0.83943 0.24371 0.30659 0.0
C1652 C 0.8186 0.23969 0.3027 0.0
C1653 C 0.80356 0.25404 0.30787 0.0
C1654 C 0.80968 0.27245 0.31662 0.0
C1655 C 0.83005 0.27682 0.31999 0.0
C1656 C 0.83286 0.29848 0.32747 0.0
C1657 C 0.84205 0.29881 0.34902 0.0
C1658 C 0.84594 0.3109 0.31248 0.0
C1659 C 0.81095 0.30571 0.32761 0.0
C1660 C 0.79771 0.29035 0.32183 0.0
C1661 C 0.7767 0.29364 0.32056 0.0
C1662 C 0.76915 0.31329 0.32464 0.0
C1663 C 0.78266 0.32938 0.32947 0.0
C1664 C 0.80372 0.32542 0.33128 0.0
H1665 H 0.51509 0.91031 0.9507 0.0
H1666 H 0.47573 0.9565 0.97646 0.0
H1667 H 0.50133 0.9831 0.96792 0.0
H1668 H 0.56084 0.93091 0.97099 0.0
H1669 H 0.57625 0.92372 0.94943 0.0
H1670 H 0.55391 0.90912 0.95574 0.0
H1671 H 0.54007 0.91472 0.91916 0.0
H1672 H 0.56229 0.9296 0.91287 0.0
H1673 H 0.5372 0.9403 0.90957 0.0
H1674 H 0.53173 1.00452 0.95642 0.0
H1675 H 0.56624 0.01796 0.94857 0.0
H1676 H 0.58635 0.95703 0.93314 0.0
C1677 C 0.51185 0.92609 0.95428 0.0
C1678 C 0.49345 0.93154 0.96394 0.0
C1679 C 0.48979 0.95218 0.96898 0.0
C1680 C 0.50414 0.96732 0.96403 0.0
C1681 C 0.52215 0.96146 0.95433 0.0
C1682 C 0.52617 0.94125 0.94988 0.0
C1683 C 0.54742 0.93857 0.94134 0.0
C1684 C 0.56037 0.92477 0.95521 0.0
C1685 C 0.54669 0.93031 0.91943 0.0
C1686 C 0.55485 0.9604 0.9418 0.0
C1687 C 0.53992 0.9735 0.94884 0.0
C1688 C 0.54349 0.9944 0.95083 0.0
C1689 C 0.56302 1.00194 0.94617 0.0
C1690 C 0.57871 0.9885 0.94006 0.0
C1691 C 0.57445 0.9676 0.93754 0.0
H1692 H 0.15576 0.76841 0.20204 0.0
H1693 H 0.2034 0.72868 0.22433 0.0
H1694 H 0.22932 0.75514 0.21627 0.0
H1695 H 0.18384 0.79281 0.16121 0.0
H1696 H 0.173 0.8176 0.16595 0.0
H1697 H 0.15862 0.79496 0.17188 0.0
H1698 H 0.15429 0.80718 0.20919 0.0
H1699 H 0.16839 0.82995 0.20328 0.0
H1700 H 0.17658 0.81374 0.22388 0.0
H1701 H 0.24993 0.78621 0.20506 0.0
H1702 H 0.26277 0.82098 0.19743 0.0
H1703 H 0.201 0.84106 0.18562 0.0
C1704 C 0.1717 0.76533 0.20504 0.0
C1705 C 0.17778 0.74657 0.21354 0.0
C1706 C 0.19862 0.74304 0.21777 0.0
C1707 C 0.21337 0.75788 0.21309 0.0
C1708 C 0.2069 0.77625 0.20453 0.0
C1709 C 0.18648 0.78015 0.20095 0.0
C1710 C 0.18324 0.8017 0.19342 0.0
C1711 C 0.17414 0.80176 0.17183 0.0
C1712 C 0.16984 0.81386 0.20834 0.0
C1713 C 0.20498 0.8094 0.19336 0.0
C1714 C 0.21851 0.79439 0.19932 0.0
C1715 C 0.23946 0.79806 0.20039 0.0
C1716 C 0.24665 0.81775 0.19587 0.0
C1717 C 0.23284 0.83351 0.19085 0.0
C1718 C 0.21184 0.82917 0.1893 0.0
H1719 H 0.092 0.56767 0.08333 0.0
H1720 H 0.0706 0.50572 0.07557 0.0
H1721 H 0.03575 0.51868 0.06832 0.0
H1722 H 0.04486 0.58747 0.10776 0.0
H1723 H 0.04748 0.61183 0.09535 0.0
H1724 H 0.06984 0.5972 0.1017 0.0
H1725 H 0.08139 0.59893 0.064 0.0
H1726 H 0.05891 0.61316 0.05742 0.0
H1727 H 0.06458 0.5897 0.04431 0.0
H1728 H 1.00434 0.53938 0.0572 0.0
H1729 H 0.9782 0.56544 0.04851 0.0
H1730 H 0.02038 0.61322 0.06571 0.0
C1731 C 0.07978 0.55684 0.08076 0.0
C1732 C 0.08374 0.53575 0.08031 0.0
C1733 C 0.06762 0.52194 0.07647 0.0
C1734 C 0.04789 0.52919 0.07213 0.0
C1735 C 0.04459 0.55024 0.07209 0.0
C1736 C 0.06004 0.5638 0.07684 0.0
C1737 C 0.05288 0.58565 0.07537 0.0
C1738 C 0.05381 0.59615 0.09629 0.0
C1739 C 0.06517 0.59755 0.05932 0.0
C1740 C 0.03111 0.58239 0.06856 0.0
C1741 C 0.02655 0.56191 0.06655 0.0
C1742 C 1.00765 0.55542 0.05913 0.0
C1743 C 0.99298 0.57026 0.05408 0.0
C1744 C 0.99724 0.59124 0.05674 0.0
C1745 C 0.0166 0.59725 0.06396 0.0
H1746 H 0.81208 0.68222 0.21813 0.0
H1747 H 0.77939 0.69465 0.16198 0.0
H1748 H 0.79448 0.72926 0.16113 0.0
H1749 H 0.80594 0.73143 0.24022 0.0
H1750 H 0.83089 0.73185 0.25172 0.0
H1751 H 0.81811 0.70791 0.24753 0.0
H1752 H 0.84904 0.69479 0.22677 0.0
H1753 H 0.862 0.71863 0.23103 0.0
H1754 H 0.85817 0.70947 0.20543 0.0
H1755 H 0.81273 0.76274 0.16696 0.0
H1756 H 0.83297 0.79223 0.17848 0.0
H1757 H 0.85357 0.75773 0.23096 0.0
C1758 C 0.80815 0.69212 0.20553 0.0
C1759 C 0.79458 0.68568 0.19006 0.0
C1760 C 0.78981 0.69921 0.17395 0.0
C1761 C 0.79828 0.7189 0.17337 0.0
C1762 C 0.81143 0.72479 0.18903 0.0
C1763 C 0.81637 0.71176 0.20478 0.0
C1764 C 0.83068 0.72182 0.21989 0.0
C1765 C 0.82081 0.72334 0.24109 0.0
C1766 C 0.85119 0.7105 0.22083 0.0
C1767 C 0.83302 0.74263 0.21024 0.0
C1768 C 0.82183 0.74402 0.19244 0.0
C1769 C 0.82163 0.76175 0.18081 0.0
C1770 C 0.83328 0.77841 0.18745 0.0
C1771 C 0.84502 0.77731 0.20558 0.0
C1772 C 0.84469 0.75915 0.21715 0.0
H1773 H 0.0117 0.92772 0.03427 0.0
H1774 H 0.04226 0.93367 0.09253 0.0
H1775 H 0.01409 0.95521 0.10515 0.0
H1776 H 0.99007 0.97964 0.03293 0.0
H1777 H 0.96669 0.97107 0.02131 0.0
H1778 H 0.99018 0.95771 0.01637 0.0
H1779 H 0.97357 0.92399 0.0286 0.0
H1780 H 0.9501 0.93723 0.03366 0.0
H1781 H 0.9623 0.92283 0.05362 0.0
H1782 H 0.9813 0.97492 0.112 0.0
H1783 H 0.94665 0.99022 0.11228 0.0
H1784 H 0.93793 0.97053 0.04978 0.0
C1785 C 0.01268 0.93392 0.04951 0.0
C1786 C 0.02919 0.92899 0.06239 0.0
C1787 C 0.02966 0.93707 0.08244 0.0
C1788 C 0.01379 0.94943 0.08971 0.0
C1789 C 0.99751 0.95365 0.07677 0.0
C1790 C 0.99691 0.94618 0.05705 0.0
C1791 C 0.9772 0.95195 0.04657 0.0
C1792 C 0.98129 0.96592 0.02821 0.0
C1793 C 0.96508 0.93287 0.04025 0.0
C1794 C 0.96664 0.96339 0.06359 0.0
C1795 C 0.97864 0.96451 0.08082 0.0
C1796 C 0.9718 0.97419 0.09853 0.0
C1797 C 0.95214 0.98283 0.09859 0.0
C1798 C 0.93954 0.98142 0.08115 0.0
C1799 C 0.94708 0.9717 0.06347 0.0
H1800 H 0.28561 0.16951 0.26277 0.0
H1801 H 0.33663 0.19166 0.29845 0.0
H1802 H 0.34759 0.2132 0.26959 0.0
H1803 H 0.31215 0.16591 0.21599 0.0
H1804 H 0.29095 0.174 0.20051 0.0
H1805 H 0.28639 0.16141 0.22443 0.0
H1806 H 0.26434 0.1919 0.23646 0.0
H1807 H 0.26875 0.20453 0.2125 0.0
H1808 H 0.27496 0.21725 0.23604 0.0
H1809 H 0.35352 0.2318 0.23608 0.0
H1810 H 0.35398 0.24518 0.20073 0.0
H1811 H 0.29952 0.2101 0.18719 0.0
C1812 C 0.29887 0.17916 0.26461 0.0
C1813 C 0.31025 0.17891 0.28287 0.0
C1814 C 0.32778 0.19146 0.28454 0.0
C1815 C 0.33407 0.20384 0.26826 0.0
C1816 C 0.3227 0.20348 0.25034 0.0
C1817 C 0.30546 0.19147 0.24844 0.0
C1818 C 0.29643 0.19317 0.22729 0.0
C1819 C 0.29649 0.17239 0.21642 0.0
C1820 C 0.27484 0.20226 0.22813 0.0
C1821 C 0.31136 0.20784 0.21755 0.0
C1822 C 0.32634 0.21379 0.23108 0.0
C1823 C 0.34183 0.22725 0.22536 0.0
C1824 C 0.342 0.23477 0.20527 0.0
C1825 C 0.32688 0.22864 0.19115 0.0
C1826 C 0.3114 0.21503 0.19753 0.0
H1827 H 0.41088 0.45167 1.00743 0.0
H1828 H 0.46143 0.47071 0.9697 0.0
H1829 H 0.48564 0.46159 0.99744 0.0
H1830 H 0.4305 0.47324 0.05305 0.0
H1831 H 0.42046 0.45348 0.06927 0.0
H1832 H 0.40785 0.45951 0.04569 0.0
H1833 H 0.41086 0.42172 0.03455 0.0
H1834 H 0.42374 0.41564 0.05802 0.0
H1835 H 0.43558 0.40973 0.03396 0.0
H1836 H 0.50411 0.44992 0.02981 0.0
H1837 H 0.51471 0.44277 0.06536 0.0
H1838 H 0.45141 0.43473 0.08243 0.0
C1839 C 0.42709 0.45365 1.00503 0.0
C1840 C 0.43449 0.46153 0.98649 0.0
C1841 C 0.45567 0.46454 0.98387 0.0
C1842 C 0.46943 0.45928 0.99945 0.0
C1843 C 0.46166 0.45137 0.01761 0.0
C1844 C 0.44091 0.44898 0.02056 0.0
C1845 C 0.43619 0.44217 0.04206 0.0
C1846 C 0.42298 0.45805 0.05317 0.0
C1847 C 0.42599 0.42106 0.04214 0.0
C1848 C 0.45748 0.4412 0.05086 0.0
C1849 C 0.47205 0.44604 0.03644 0.0
C1850 C 0.49281 0.44617 0.04121 0.0
C1851 C 0.49871 0.44197 0.06139 0.0
C1852 C 0.48385 0.43828 0.07657 0.0
C1853 C 0.46307 0.43748 0.07107 0.0
H1854 H 0.73188 0.34598 0.26223 0.0
H1855 H 0.67491 0.33476 0.29384 0.0
H1856 H 0.66376 0.31222 0.26589 0.0
H1857 H 0.71127 0.3479 0.21243 0.0
H1858 H 0.73258 0.33524 0.2006 0.0
H1859 H 0.73634 0.34977 0.22355 0.0
H1860 H 0.75215 0.31812 0.24114 0.0
H1861 H 0.74848 0.3035 0.2182 0.0
H1862 H 0.73794 0.29461 0.24194 0.0
H1863 H 0.65847 0.29117 0.23343 0.0
H1864 H 0.65977 0.27432 0.19953 0.0
H1865 H 0.72017 0.29957 0.18996 0.0
C1866 C 0.71719 0.33858 0.26345 0.0
C1867 C 0.70429 0.34229 0.28029 0.0
C1868 C 0.68501 0.33247 0.28102 0.0
C1869 C 0.67856 0.31949 0.26525 0.0
C1870 C 0.69157 0.31635 0.24878 0.0
C1871 C 0.7105 0.32561 0.24783 0.0
C1872 C 0.7214 0.32024 0.22825 0.0
C1873 C 0.72563 0.33943 0.21546 0.0
C1874 C 0.74116 0.30841 0.23265 0.0
C1875 C 0.70558 0.30673 0.21823 0.0
C1876 C 0.68849 0.30448 0.23029 0.0
C1877 C 0.67183 0.29279 0.2239 0.0
C1878 C 0.67267 0.28326 0.20465 0.0
C1879 C 0.69 0.28564 0.19203 0.0
C1880 C 0.70662 0.29745 0.19913 0.0
H1881 H 0.59248 0.03655 1.00764 0.0
H1882 H 0.58474 0.09541 0.9787 0.0
H1883 H 0.5618 0.10615 1.00655 0.0
H1884 H 0.5403 0.03187 0.02744 0.0
H1885 H 0.5487 0.02002 0.05073 0.0
H1886 H 0.5631 0.01655 0.02762 0.0
H1887 H 0.59552 0.03012 0.04574 0.0
H1888 H 0.58123 0.03365 0.06885 0.0
H1889 H 0.59488 0.05479 0.05783 0.0
H1890 H 0.54063 0.11095 0.03897 0.0
H1891 H 0.52466 0.10948 0.07329 0.0
H1892 H 0.54698 0.04769 0.08049 0.0
C1893 C 0.58565 0.05154 1.00694 0.0
C1894 C 0.59042 0.06511 0.99094 0.0
C1895 C 0.58148 0.0848 0.99088 0.0
C1896 C 0.5683 0.09099 1.00657 0.0
C1897 C 0.56416 0.07734 0.02229 0.0
C1898 C 0.57259 0.05801 0.02255 0.0
C1899 C 0.56673 0.04662 0.0417 0.0
C1900 C 0.55395 0.02764 0.03656 0.0
C1901 C 0.58572 0.04097 0.05426 0.0
C1902 C 0.55401 0.06265 0.05234 0.0
C1903 C 0.55241 0.08021 0.04088 0.0
C1904 C 0.5417 0.09721 0.04801 0.0
C1905 C 0.53263 0.09626 0.06747 0.0
C1906 C 0.53462 0.07853 0.07957 0.0
C1907 C 0.54524 0.06153 0.07167 0.0
H1908 H 0.29649 0.79353 0.32434 0.0
H1909 H 0.36033 0.77749 0.3179 0.0
H1910 H 0.36137 0.79596 0.28491 0.0
H1911 H 0.28291 0.7894 0.2706 0.0
H1912 H 0.26561 0.81069 0.27184 0.0
H1913 H 0.26976 0.79508 0.29403 0.0
H1914 H 0.27994 0.82715 0.31475 0.0
H1915 H 0.27585 0.84284 0.29266 0.0
H1916 H 0.30013 0.84335 0.30551 0.0
H1917 H 0.35557 0.81824 0.25365 0.0
H1918 H 0.34371 0.84179 0.22686 0.0
H1919 H 0.28364 0.84303 0.25443 0.0
C1920 C 0.31071 0.7937 0.31597 0.0
C1921 C 0.32838 0.78409 0.32371 0.0
C1922 C 0.34661 0.78469 0.31221 0.0
C1923 C 0.34731 0.79514 0.29349 0.0
C1924 C 0.32961 0.8047 0.28647 0.0
C1925 C 0.31162 0.80392 0.29735 0.0
C1926 C 0.29487 0.81597 0.28703 0.0
C1927 C 0.27725 0.80194 0.28049 0.0
C1928 C 0.28726 0.83336 0.30081 0.0
C1929 C 0.3063 0.8241 0.26876 0.0
C1930 C 0.32627 0.81735 0.26862 0.0
C1931 C 0.33994 0.8235 0.25361 0.0
C1932 C 0.33308 0.83702 0.23852 0.0
C1933 C 0.31272 0.84436 0.23853 0.0
C1934 C 0.29917 0.83752 0.25378 0.0
H1935 H 0.04825 0.42056 0.94869 0.0
H1936 H 0.02663 0.48188 0.93705 0.0
H1937 H 0.03927 0.49302 0.97028 0.0
H1938 H 0.04204 0.42084 1.00596 0.0
H1939 H 0.06586 0.40775 0.00993 0.0
H1940 H 0.05117 0.40299 0.98719 0.0
H1941 H 0.08251 0.41233 0.96513 0.0
H1942 H 0.09722 0.4173 0.98774 0.0
H1943 H 0.09462 0.43677 0.96855 0.0
H1944 H 0.05713 0.49908 1.00228 0.0
H1945 H 0.08073 0.50001 0.03133 0.0
H1946 H 0.09445 0.43592 0.02227 0.0
C1947 C 0.04545 0.43605 0.95366 0.0
C1948 C 0.03533 0.45006 0.9408 0.0
C1949 C 0.03318 0.47059 0.94711 0.0
C1950 C 0.04054 0.47715 0.96593 0.0
C1951 C 0.05067 0.46319 0.97817 0.0
C1952 C 0.05334 0.44309 0.97237 0.0
C1953 C 0.06733 0.43219 0.9873 0.0
C1954 C 0.05592 0.41491 0.99825 0.0
C1955 C 0.08656 0.42418 0.97653 0.0
C1956 C 0.07242 0.44947 1.00191 0.0
C1957 C 0.06231 0.46708 0.99644 0.0
C1958 C 0.06509 0.48537 1.00682 0.0
C1959 C 0.07872 0.48581 0.02319 0.0
C1960 C 0.08964 0.46812 0.02898 0.0
C1961 C 0.08619 0.44963 0.01832 0.0
H1962 H 0.7189 0.70584 0.24319 0.0
H1963 H 0.71271 0.64202 0.25923 0.0
H1964 H 0.69957 0.65195 0.29314 0.0
H1965 H 0.73639 0.72256 0.29171 0.0
H1966 H 0.72316 0.74661 0.29079 0.0
H1967 H 0.73095 0.73438 0.26752 0.0
H1968 H 0.69365 0.73557 0.25451 0.0
H1969 H 0.68573 0.7476 0.27789 0.0
H1970 H 0.67367 0.72432 0.26965 0.0
H1971 H 0.68864 0.6687 0.32561 0.0
H1972 H 0.68305 0.69099 0.35541 0.0
H1973 H 0.69574 0.74417 0.31839 0.0
C1974 C 0.7145 0.69395 0.25372 0.0
C1975 C 0.71667 0.6731 0.2485 0.0
C1976 C 0.71126 0.65803 0.26294 0.0
C1977 C 0.70362 0.66355 0.28215 0.0
C1978 C 0.70154 0.68421 0.28673 0.0
C1979 C 0.70698 0.6992 0.273 0.0
C1980 C 0.7044 0.7203 0.28216 0.0
C1981 C 0.72494 0.73162 0.2831 0.0
C1982 C 0.6884 0.73268 0.27035 0.0
C1983 C 0.6968 0.71486 0.30329 0.0
C1984 C 0.69513 0.69394 0.3055 0.0
C1985 C 0.68965 0.68508 0.32398 0.0
C1986 C 0.68644 0.69785 0.34078 0.0
C1987 C 0.68856 0.71924 0.33902 0.0
C1988 C 0.69335 0.7279 0.31992 0.0
H1989 H 0.93308 0.08092 0.02397 0.0
H1990 H 0.94135 0.01528 0.02624 0.0
H1991 H 0.96105 0.01668 0.99447 0.0
H1992 H 0.92633 0.08502 0.97112 0.0
H1993 H 0.94038 0.10844 0.96806 0.0
H1994 H 0.92819 0.10282 0.99197 0.0
H1995 H 0.96266 0.10717 0.0107 0.0
H1996 H 0.97497 0.11286 0.98682 0.0
H1997 H 0.98441 0.09247 1.00262 0.0
H1998 H 0.97574 0.02408 0.96098 0.0
H1999 H 0.98693 0.03735 0.9279 0.0
H2000 H 0.97267 0.09894 0.94722 0.0
C2001 C 0.93938 0.06691 0.01799 0.0
C2002 C 0.93541 0.04794 0.02757 0.0
C2003 C 0.94373 0.02993 0.01905 0.0
C2004 C 0.95515 0.03059 1.00107 0.0
C2005 C 0.9584 0.04941 0.99183 0.0
C2006 C 0.951 0.06731 1.00001 0.0
C2007 C 0.9561 0.08535 0.98633 0.0
C2008 C 0.93658 0.09603 0.97893 0.0
C2009 C 0.97039 0.10035 0.99728 0.0
C2010 C 0.96698 0.07463 0.96892 0.0
C2011 C 0.96808 0.05389 0.97259 0.0
C2012 C 0.97554 0.04033 0.95816 0.0
C2013 C 0.98191 0.04806 0.93942 0.0
C2014 C 0.98136 0.06923 0.93528 0.0
C2015 C 0.97397 0.08278 0.95031 0.0
H2016 H 0.25594 0.31707 0.15741 0.0
H2017 H 0.29351 0.28958 0.2041 0.0
H2018 H 0.26817 0.29954 0.23036 0.0
H2019 H 0.23579 0.35949 0.1872 0.0
H2020 H 0.21066 0.35753 0.17627 0.0
H2021 H 0.23263 0.35003 0.16161 0.0
H2022 H 0.2169 0.31422 0.15589 0.0
H2023 H 0.1948 0.32172 0.17027 0.0
H2024 H 0.20898 0.29936 0.1776 0.0
H2025 H 0.23811 0.31262 0.25149 0.0
H2026 H 0.204 0.32235 0.26459 0.0
H2027 H 0.18528 0.33866 0.20345 0.0
C2028 C 0.25889 0.31342 0.17321 0.0
C2029 C 0.27673 0.30281 0.17885 0.0
C2030 C 0.27991 0.29774 0.19957 0.0
C2031 C 0.26569 0.30349 0.21455 0.0
C2032 C 0.24824 0.31406 0.2085 0.0
C2033 C 0.24465 0.31863 0.18824 0.0
C2034 C 0.22389 0.32829 0.18538 0.0
C2035 C 0.22587 0.35013 0.17713 0.0
C2036 C 0.21035 0.31511 0.17147 0.0
C2037 C 0.21621 0.32828 0.20714 0.0
C2038 C 0.23063 0.32049 0.22037 0.0
C2039 C 0.22676 0.31878 0.24124 0.0
C2040 C 0.20742 0.3245 0.2486 0.0
C2041 C 0.19214 0.33136 0.23503 0.0
C2042 C 0.1968 0.33363 0.21416 0.0
H2043 H 0.18193 0.70936 0.31183 0.0
H2044 H 0.20015 0.67335 0.25944 0.0
H2045 H 0.23601 0.67485 0.27114 0.0
H2046 H 0.22477 0.74259 0.31222 0.0
H2047 H 0.2265 0.74391 0.33959 0.0
H2048 H 0.20224 0.73933 0.32759 0.0
H2049 H 0.19778 0.70626 0.34869 0.0
H2050 H 0.22197 0.71081 0.36087 0.0
H2051 H 0.21736 0.68701 0.34793 0.0
H2052 H 0.26995 0.68166 0.2878 0.0
H2053 H 0.29935 0.69178 0.30856 0.0
H2054 H 0.25901 0.72293 0.35077 0.0
C2055 C 0.1934 0.70163 0.30286 0.0
C2056 C 0.1882 0.69118 0.28469 0.0
C2057 C 0.20374 0.68134 0.27343 0.0
C2058 C 0.22415 0.68218 0.27994 0.0
C2059 C 0.22874 0.69285 0.29777 0.0
C2060 C 0.21379 0.70229 0.30914 0.0
C2061 C 0.22276 0.71298 0.32759 0.0
C2062 C 0.21883 0.73607 0.32668 0.0
C2063 C 0.21448 0.7037 0.34745 0.0
C2064 C 0.24519 0.70819 0.3248 0.0
C2065 C 0.24826 0.69658 0.30749 0.0
C2066 C 0.26767 0.69054 0.3015 0.0
C2067 C 0.28433 0.69631 0.31357 0.0
C2068 C 0.28164 0.70798 0.33161 0.0
C2069 C 0.2617 0.71407 0.33713 0.0
H2070 H 0.95147 0.51609 0.90712 0.0
H2071 H 0.97129 0.47578 0.95535 0.0
H2072 H 0.9623 0.50206 0.98105 0.0
H2073 H 0.97324 0.56028 0.92854 0.0
H2074 H 0.95342 0.57723 0.91994 0.0
H2075 H 0.95882 0.55431 0.90592 0.0
H2076 H 0.92101 0.54332 0.90936 0.0
H2077 H 0.91554 0.56618 0.92358 0.0
H2078 H 0.90965 0.54159 0.9343 0.0
H2079 H 0.95158 0.53337 1.00135 0.0
H2080 H 0.9454 0.56842 0.01402 0.0
H2081 H 0.93575 0.58899 0.95203 0.0
C2082 C 0.95349 0.51273 0.92314 0.0
C2083 C 0.96168 0.49387 0.92941 0.0
C2084 C 0.96485 0.49014 0.95039 0.0
C2085 C 0.95967 0.5049 0.96503 0.0
C2086 C 0.95163 0.52343 0.95836 0.0
C2087 C 0.94888 0.52748 0.93786 0.0
C2088 C 0.94219 0.54931 0.93447 0.0
C2089 C 0.95786 0.56097 0.92146 0.0
C2090 C 0.92083 0.55014 0.92486 0.0
C2091 C 0.94187 0.55701 0.95621 0.0
C2092 C 0.94681 0.54175 0.96985 0.0
C2093 C 0.94768 0.54542 0.99079 0.0
C2094 C 0.94404 0.56532 0.99787 0.0
C2095 C 0.94014 0.58134 0.98398 0.0
C2096 C 0.93866 0.57698 0.96297 0.0
H2097 H 0.82594 0.84352 0.29888 0.0
H2098 H 0.83586 0.78502 0.26987 0.0
H2099 H 0.80356 0.77228 0.28385 0.0
H2100 H 0.80787 0.82334 0.34465 0.0
H2101 H 0.78891 0.84262 0.34945 0.0
H2102 H 0.81106 0.84866 0.33447 0.0
H2103 H 0.78798 0.86062 0.30479 0.0
H2104 H 0.76571 0.85475 0.31976 0.0
H2105 H 0.7688 0.84361 0.29486 0.0
H2106 H 0.7718 0.76462 0.30298 0.0
H2107 H 0.74298 0.76233 0.32668 0.0
H2108 H 0.75427 0.8248 0.34586 0.0
C2109 C 0.82085 0.82832 0.29495 0.0
C2110 C 0.83309 0.81547 0.28275 0.0
C2111 C 0.82648 0.79532 0.27868 0.0
C2112 C 0.80815 0.78788 0.28663 0.0
C2113 C 0.7966 0.80066 0.29896 0.0
C2114 C 0.80262 0.82046 0.30316 0.0
C2115 C 0.78825 0.83019 0.31848 0.0
C2116 C 0.79971 0.83657 0.33791 0.0
C2117 C 0.77702 0.84837 0.3089 0.0
C2118 C 0.7737 0.8126 0.32258 0.0
C2119 C 0.77863 0.79586 0.31088 0.0
C2120 C 0.76775 0.77766 0.31222 0.0
C2121 C 0.75141 0.77647 0.32596 0.0
C2122 C 0.74614 0.79328 0.33851 0.0
C2123 C 0.75752 0.81162 0.33654 0.0
H2124 H 0.57233 0.50646 0.40903 0.0
H2125 H 0.55105 0.54461 0.45837 0.0
H2126 H 0.55957 0.5173 0.48318 0.0
H2127 H 0.55041 0.46122 0.42801 0.0
H2128 H 0.5706 0.44485 0.41913 0.0
H2129 H 0.56524 0.4683 0.406 0.0
H2130 H 0.60284 0.47953 0.41076 0.0
H2131 H 0.60827 0.45614 0.42409 0.0
H2132 H 0.61365 0.4803 0.436 0.0
H2133 H 0.56998 0.48512 0.50237 0.0
H2134 H 0.57628 0.44957 0.5136 0.0
H2135 H 0.5878 0.43194 0.45105 0.0
C2136 C 0.56987 0.50913 0.42512 0.0
C2137 C 0.56143 0.52767 0.43197 0.0
C2138 C 0.55769 0.5305 0.45299 0.0
C2139 C 0.56259 0.51515 0.46712 0.0
C2140 C 0.57093 0.49697 0.45987 0.0
C2141 C 0.57421 0.49381 0.43929 0.0
C2142 C 0.58121 0.47224 0.4351 0.0
C2143 C 0.56595 0.461 0.42125 0.0
C2144 C 0.60278 0.47205 0.42595 0.0
C2145 C 0.58115 0.46362 0.45648 0.0
C2146 C 0.57568 0.47821 0.47066 0.0
C2147 C 0.57433 0.47361 0.49139 0.0
C2148 C 0.57807 0.45345 0.49766 0.0
C2149 C 0.58259 0.43815 0.48317 0.0
C2150 C 0.58448 0.44343 0.46243 0.0
H2151 H 0.26674 0.71014 0.65642 0.0
H2152 H 0.22494 0.72658 0.70468 0.0
H2153 H 0.25151 0.71807 0.73042 0.0
H2154 H 0.29144 0.66821 0.68117 0.0
H2155 H 0.31629 0.67439 0.67122 0.0
H2156 H 0.29377 0.6811 0.65703 0.0
H2157 H 0.30521 0.71894 0.65623 0.0
H2158 H 0.3279 0.71228 0.67011 0.0
H2159 H 0.31113 0.73175 0.6798 0.0
H2160 H 0.28328 0.70631 0.75077 0.0
H2161 H 0.31807 0.6979 0.76324 0.0
H2162 H 0.33869 0.69139 0.70094 0.0
C2163 C 0.26315 0.71183 0.67243 0.0
C2164 C 0.24376 0.71871 0.67867 0.0
C2165 C 0.23974 0.72126 0.69969 0.0
C2166 C 0.25467 0.71632 0.71434 0.0
C2167 C 0.27359 0.70915 0.70763 0.0
C2168 C 0.27791 0.70733 0.6871 0.0
C2169 C 0.29964 0.70054 0.68355 0.0
C2170 C 0.30031 0.67983 0.6726 0.0
C2171 C 0.31167 0.71685 0.67173 0.0
C2172 C 0.30702 0.69874 0.70528 0.0
C2173 C 0.29177 0.7034 0.71906 0.0
C2174 C 0.29527 0.70267 0.74006 0.0
C2175 C 0.31498 0.69768 0.74704 0.0
C2176 C 0.33091 0.69386 0.73302 0.0
C2177 C 0.32671 0.69412 0.71196 0.0
H2178 H 0.94923 0.50714 0.60971 0.0
H2179 H 0.96736 0.55002 0.56299 0.0
H2180 H 0.95774 0.52486 0.53634 0.0
H2181 H 0.96985 0.46403 0.58582 0.0
H2182 H 0.9501 0.44696 0.5944 0.0
H2183 H 0.95625 0.46923 0.60911 0.0
H2184 H 0.91845 0.48065 0.60731 0.0
H2185 H 0.91227 0.45848 0.5923 0.0
H2186 H 0.90633 0.48357 0.58283 0.0
H2187 H 0.94688 0.49388 0.51486 0.0
H2188 H 0.94105 0.45904 0.50122 0.0
H2189 H 0.93204 0.43664 0.56257 0.0
C2190 C 0.95079 0.51139 0.59386 0.0
C2191 C 0.95871 0.53063 0.58835 0.0
C2192 C 0.96123 0.53537 0.56746 0.0
C2193 C 0.95564 0.52125 0.55228 0.0
C2194 C 0.94773 0.50239 0.55827 0.0
C2195 C 0.9456 0.49742 0.57863 0.0
C2196 C 0.93877 0.47556 0.58133 0.0
C2197 C 0.95469 0.46322 0.59336 0.0
C2198 C 0.9177 0.47452 0.59154 0.0
C2199 C 0.93767 0.46881 0.55933 0.0
C2200 C 0.94239 0.48456 0.54615 0.0
C2201 C 0.94301 0.48153 0.52507 0.0
C2202 C 0.9395 0.46176 0.51741 0.0
C2203 C 0.93585 0.44534 0.53088 0.0
C2204 C 0.93446 0.44908 0.55198 0.0
H2205 H 0.07062 0.01526 0.61397 0.0
H2206 H 0.04865 0.97458 0.56693 0.0
H2207 H 0.05754 1.00021 0.5406 0.0
H2208 H 0.04922 0.05921 0.59279 0.0
H2209 H 0.06958 0.076 0.60049 0.0
H2210 H 0.06434 0.05334 0.61496 0.0
H2211 H 0.10184 0.04176 0.61031 0.0
H2212 H 0.10713 0.06437 0.59565 0.0
H2213 H 0.11229 0.03958 0.58501 0.0
H2214 H 0.06762 0.03124 0.51959 0.0
H2215 H 0.07316 0.06628 0.50645 0.0
H2216 H 0.08583 0.08717 0.56775 0.0
C2217 C 0.06818 0.01163 0.59807 0.0
C2218 C 0.05933 0.9929 0.59234 0.0
C2219 C 0.05559 0.98885 0.5715 0.0
C2220 C 0.06071 1.00324 0.55649 0.0
C2221 C 0.06934 0.02169 0.56264 0.0
C2222 C 0.07278 0.026 0.58299 0.0
C2223 C 0.07988 0.04775 0.5859 0.0
C2224 C 0.06485 0.05978 0.59931 0.0
C2225 C 0.10158 0.04839 0.59474 0.0
C2226 C 0.07955 0.05517 0.56408 0.0
C2227 C 0.07398 0.03981 0.55077 0.0
C2228 C 0.07212 0.04333 0.52986 0.0
C2229 C 0.07543 0.0632 0.5225 0.0
C2230 C 0.08002 0.07925 0.53612 0.0
C2231 C 0.08249 0.07505 0.55704 0.0
H2232 H 0.70916 0.68804 0.83867 0.0
H2233 H 0.77091 0.70751 0.82599 0.0
H2234 H 0.75843 0.74259 0.81917 0.0
H2235 H 0.68517 0.71493 0.80103 0.0
H2236 H 0.66284 0.72169 0.81552 0.0
H2237 H 0.6769 0.69904 0.82186 0.0
H2238 H 0.6816 0.71175 0.85894 0.0
H2239 H 0.66714 0.73429 0.85286 0.0
H2240 H 0.69238 0.73662 0.86348 0.0
H2241 H 0.73783 0.77399 0.80822 0.0
H2242 H 0.71183 0.80022 0.79964 0.0
H2243 H 0.66431 0.76026 0.82191 0.0
C2244 C 0.7201 0.69992 0.8352 0.0
C2245 C 0.74097 0.69533 0.83314 0.0
C2246 C 0.75491 0.71098 0.82811 0.0
C2247 C 0.74791 0.73084 0.82402 0.0
C2248 C 0.72702 0.73475 0.82548 0.0
C2249 C 0.71342 0.7198 0.83153 0.0
C2250 C 0.69171 0.72751 0.83132 0.0
C2251 C 0.67838 0.71505 0.81655 0.0
C2252 C 0.68268 0.72755 0.85294 0.0
C2253 C 0.69504 0.74895 0.82359 0.0
C2254 C 0.71546 0.7529 0.82014 0.0
C2255 C 0.72188 0.77121 0.81136 0.0
C2256 C 0.70708 0.78594 0.80639 0.0
C2257 C 0.68621 0.78231 0.81047 0.0
C2258 C 0.68023 0.76357 0.81914 0.0
H2259 H 0.92942 0.07277 0.43037 0.0
H2260 H 0.94797 0.01033 0.44103 0.0
H2261 H 0.98258 0.02228 0.45049 0.0
H2262 H 0.97892 0.09004 0.40879 0.0
H2263 H 0.97654 0.11487 0.42029 0.0
H2264 H 0.95405 0.10095 0.41286 0.0
H2265 H 0.94009 0.10432 0.44962 0.0
H2266 H 0.96268 0.11788 0.45728 0.0
H2267 H 0.95516 0.0951 0.47066 0.0
H2268 H 0.01377 0.04198 0.46338 0.0
H2269 H 0.04035 0.06713 0.47328 0.0
H2270 H 1.00185 0.11616 0.45174 0.0
C2271 C 0.94097 0.0616 0.43412 0.0
C2272 C 0.93616 0.04064 0.43477 0.0
C2273 C 0.95151 0.02642 0.44004 0.0
C2274 C 0.97113 0.03311 0.44562 0.0
C2275 C 0.97522 0.05401 0.44542 0.0
C2276 C 0.96068 0.06797 0.43927 0.0
C2277 C 0.96871 0.08958 0.4406 0.0
C2278 C 0.96961 0.09944 0.41937 0.0
C2279 C 0.95589 0.10247 0.45543 0.0
C2280 C 0.98985 0.08571 0.44898 0.0
C2281 C 0.99333 0.06513 0.45186 0.0
C2282 C 0.01134 0.05808 0.46078 0.0
C2283 C 0.02627 0.07242 0.4665 0.0
C2284 C 0.0232 0.09348 0.46301 0.0
C2285 C 1.00472 0.1001 0.45419 0.0
H2286 H 0.29612 0.82827 0.7936 0.0
H2287 H 0.2814 0.82332 0.85785 0.0
H2288 H 0.29951 0.79017 0.85923 0.0
H2289 H 0.29077 0.77433 0.78142 0.0
H2290 H 0.31164 0.77476 0.76358 0.0
H2291 H 0.29656 0.79735 0.76759 0.0
H2292 H 0.32926 0.81771 0.77647 0.0
H2293 H 0.34443 0.79523 0.77251 0.0
H2294 H 0.3458 0.80863 0.79644 0.0
H2295 H 0.32121 0.75858 0.85371 0.0
H2296 H 0.34395 0.73103 0.84186 0.0
H2297 H 0.344 0.75714 0.78118 0.0
C2298 C 0.29654 0.82019 0.80798 0.0
C2299 C 0.28739 0.82838 0.82566 0.0
C2300 C 0.28826 0.81728 0.84412 0.0
C2301 C 0.29851 0.79847 0.84503 0.0
C2302 C 0.30757 0.79097 0.82729 0.0
C2303 C 0.30653 0.80146 0.80909 0.0
C2304 C 0.31795 0.79054 0.79231 0.0
C2305 C 0.30336 0.78385 0.77522 0.0
C2306 C 0.33539 0.80382 0.78395 0.0
C2307 C 0.32602 0.7724 0.80396 0.0
C2308 C 0.3198 0.77284 0.82409 0.0
C2309 C 0.32605 0.75805 0.83796 0.0
C2310 C 0.33908 0.74254 0.83111 0.0
C2311 C 0.34578 0.74192 0.81058 0.0
C2312 C 0.33891 0.75698 0.79686 0.0
H2313 H 0.01301 0.41054 0.45008 0.0
H2314 H 0.96923 0.45839 0.46197 0.0
H2315 H 0.99514 0.48439 0.45238 0.0
H2316 H 0.05467 0.43591 0.47225 0.0
H2317 H 0.0731 0.42597 0.45448 0.0
H2318 H 0.05037 0.41168 0.46001 0.0
H2319 H 0.04169 0.41073 0.42147 0.0
H2320 H 0.0643 0.42529 0.41586 0.0
H2321 H 0.03974 0.43428 0.40747 0.0
H2322 H 0.02672 0.50498 0.44203 0.0
H2323 H 0.06189 0.51826 0.43732 0.0
H2324 H 0.08477 0.45645 0.43469 0.0
C2325 C 1.00879 0.42649 0.45028 0.0
C2326 C 0.9891 0.43257 0.45635 0.0
C2327 C 0.98426 0.45356 0.45719 0.0
C2328 C 0.99881 0.46833 0.45163 0.0
C2329 C 0.01813 0.46177 0.44553 0.0
C2330 C 0.02317 0.44131 0.44518 0.0
C2331 C 0.04543 0.43813 0.44018 0.0
C2332 C 0.05654 0.42729 0.45778 0.0
C2333 C 0.04793 0.42641 0.42005 0.0
C2334 C 0.05231 0.46 0.43801 0.0
C2335 C 0.03631 0.47347 0.44064 0.0
C2336 C 0.03929 0.49455 0.43982 0.0
C2337 C 0.05922 0.50196 0.43695 0.0
C2338 C 0.07579 0.48829 0.43537 0.0
C2339 C 0.07221 0.46714 0.43553 0.0
H2340 H 0.70586 0.33514 0.68304 0.0
H2341 H 0.76837 0.3178 0.69515 0.0
H2342 H 0.75727 0.28208 0.70096 0.0
H2343 H 0.68286 0.30606 0.71976 0.0
H2344 H 0.66086 0.29883 0.70496 0.0
H2345 H 0.67401 0.32223 0.6994 0.0
H2346 H 0.67928 0.31087 0.66197 0.0
H2347 H 0.66579 0.28752 0.6673 0.0
H2348 H 0.69113 0.28665 0.65672 0.0
H2349 H 0.73804 0.24978 0.71119 0.0
H2350 H 0.71313 0.22246 0.71962 0.0
H2351 H 0.66392 0.26055 0.69789 0.0
C2352 C 0.71726 0.32363 0.68625 0.0
C2353 C 0.73795 0.329 0.68846 0.0
C2354 C 0.75249 0.31377 0.69301 0.0
C2355 C 0.74628 0.29354 0.69648 0.0
C2356 C 0.72557 0.28883 0.69484 0.0
C2357 C 0.71138 0.30337 0.68925 0.0
C2358 C 0.68999 0.29471 0.68913 0.0
C2359 C 0.67613 0.30614 0.70421 0.0
C2360 C 0.68102 0.29495 0.66749 0.0
C2361 C 0.6942 0.2732 0.69621 0.0
C2362 C 0.71478 0.27006 0.69959 0.0
C2363 C 0.72198 0.25191 0.70805 0.0
C2364 C 0.70781 0.23656 0.7129 0.0
C2365 C 0.68681 0.23938 0.70898 0.0
C2366 C 0.68001 0.25789 0.70047 0.0
H2367 H 0.58759 0.07053 0.58869 0.0
H2368 H 0.56942 1.00824 0.57642 0.0
H2369 H 0.53428 0.02 0.5689 0.0
H2370 H 0.53832 0.08633 0.61274 0.0
H2371 H 0.54012 0.11157 0.60206 0.0
H2372 H 0.56296 0.09773 0.60846 0.0
H2373 H 0.57599 0.10255 0.57153 0.0
H2374 H 0.55309 0.11605 0.56488 0.0
H2375 H 0.56054 0.09384 0.55054 0.0
H2376 H 0.50293 0.03965 0.55714 0.0
H2377 H 0.4763 0.06483 0.54764 0.0
H2378 H 0.51427 0.11368 0.57052 0.0
C2379 C 0.57601 0.05933 0.58504 0.0
C2380 C 0.58104 0.03851 0.58323 0.0
C2381 C 0.56569 0.02422 0.57819 0.0
C2382 C 0.54577 0.0308 0.57375 0.0
C2383 C 0.54145 0.05161 0.57496 0.0
C2384 C 0.55603 0.06558 0.58107 0.0
C2385 C 0.54776 0.08712 0.58069 0.0
C2386 C 0.54726 0.09622 0.60227 0.0
C2387 C 0.56008 0.10068 0.56604 0.0
C2388 C 0.52648 0.08324 0.5727 0.0
C2389 C 0.52313 0.06269 0.56932 0.0
C2390 C 0.50521 0.05569 0.56022 0.0
C2391 C 0.49027 0.07003 0.55474 0.0
C2392 C 0.49324 0.09102 0.55866 0.0
C2393 C 0.51153 0.09763 0.56782 0.0
H2394 H 0.33091 0.26744 0.73479 0.0
H2395 H 0.34254 0.28543 0.67245 0.0
H2396 H 0.31832 0.25915 0.66027 0.0
H2397 H 0.33158 0.21601 0.72565 0.0
H2398 H 0.31195 0.20928 0.74365 0.0
H2399 H 0.32691 0.23189 0.74758 0.0
H2400 H 0.294 0.25363 0.74908 0.0
H2401 H 0.27887 0.23101 0.74523 0.0
H2402 H 0.27602 0.25247 0.72833 0.0
H2403 H 0.29563 0.22834 0.65479 0.0
H2404 H 0.27835 0.19469 0.65661 0.0
H2405 H 0.28303 0.19628 0.72246 0.0
C2406 C 0.32773 0.26631 0.71865 0.0
C2407 C 0.3383 0.27861 0.70454 0.0
C2408 C 0.33444 0.27619 0.68346 0.0
C2409 C 0.32065 0.26139 0.67644 0.0
C2410 C 0.31088 0.24905 0.69071 0.0
C2411 C 0.31426 0.25139 0.71141 0.0
C2412 C 0.3039 0.23466 0.72346 0.0
C2413 C 0.31952 0.22223 0.73579 0.0
C2414 C 0.28721 0.24348 0.73734 0.0
C2415 C 0.29478 0.22219 0.7063 0.0
C2416 C 0.29852 0.23093 0.68753 0.0
C2417 C 0.29239 0.22149 0.66943 0.0
C2418 C 0.28257 0.20243 0.67057 0.0
C2419 C 0.27942 0.19295 0.68964 0.0
C2420 C 0.28526 0.20321 0.70765 0.0
H2421 H 0.50313 0.40418 0.56615 0.0
H2422 H 0.54295 0.45135 0.54291 0.0
H2423 H 0.51716 0.47757 0.55192 0.0
H2424 H 0.45763 0.42557 0.54584 0.0
H2425 H 0.44191 0.41751 0.56686 0.0
H2426 H 0.46434 0.4032 0.5603 0.0
H2427 H 0.4776 0.40734 0.59729 0.0
H2428 H 0.4553 0.42197 0.60384 0.0
H2429 H 0.48035 0.43252 0.60794 0.0
H2430 H 0.48649 0.49856 0.56378 0.0
H2431 H 0.45186 0.51166 0.57161 0.0
H2432 H 0.43153 0.45016 0.58427 0.0
C2433 C 0.50643 0.42008 0.56318 0.0
C2434 C 0.52503 0.42589 0.55411 0.0
C2435 C 0.52874 0.44671 0.54991 0.0
C2436 C 0.51428 0.46165 0.55514 0.0
C2437 C 0.49608 0.45543 0.56427 0.0
C2438 C 0.49199 0.43506 0.56786 0.0
C2439 C 0.4706 0.43205 0.57597 0.0
C2440 C 0.45787 0.41881 0.56137 0.0
C2441 C 0.471 0.42293 0.59754 0.0
C2442 C 0.46317 0.45389 0.57628 0.0
C2443 C 0.47821 0.46725 0.56998 0.0
C2444 C 0.47466 0.48822 0.56879 0.0
C2445 C 0.45505 0.49557 0.57346 0.0
C2446 C 0.43925 0.4819 0.57878 0.0
C2447 C 0.44351 0.46091 0.58053 0.0
H2448 H 0.78797 0.68369 0.76803 0.0
H2449 H 0.84852 0.68709 0.79431 0.0
H2450 H 0.85946 0.70968 0.76624 0.0
H2451 H 0.80343 0.68083 0.71719 0.0
H2452 H 0.78279 0.69606 0.70736 0.0
H2453 H 0.77939 0.68174 0.73047 0.0
H2454 H 0.76908 0.71474 0.74959 0.0
H2455 H 0.77237 0.72918 0.72648 0.0
H2456 H 0.78595 0.73644 0.74923 0.0
H2457 H 0.86419 0.73076 0.73366 0.0
H2458 H 0.8621 0.74719 0.69959 0.0
H2459 H 0.79853 0.72938 0.69547 0.0
C2460 C 0.80339 0.68952 0.76817 0.0
C2461 C 0.81734 0.6836 0.78344 0.0
C2462 C 0.83757 0.69125 0.78271 0.0
C2463 C 0.84391 0.70422 0.76688 0.0
C2464 C 0.82984 0.70948 0.75187 0.0
C2465 C 0.80997 0.70238 0.75247 0.0
C2466 C 0.79808 0.70926 0.73399 0.0
C2467 C 0.79049 0.69088 0.72152 0.0
C2468 C 0.78032 0.72324 0.7402 0.0
C2469 C 0.81441 0.72098 0.72269 0.0
C2470 C 0.8326 0.72122 0.73326 0.0
C2471 C 0.84995 0.73077 0.72533 0.0
C2472 C 0.84866 0.74009 0.70601 0.0
C2473 C 0.83022 0.73952 0.69484 0.0
C2474 C 0.81292 0.73004 0.70354 0.0
H2475 H 0.96815 0.9245 0.57353 0.0
H2476 H 0.99656 0.98338 0.58303 0.0
H2477 H 0.98423 0.99502 0.54978 0.0
H2478 H 0.97267 0.92234 0.51653 0.0
H2479 H 0.94744 0.91186 0.51356 0.0
H2480 H 0.96207 0.90629 0.53614 0.0
H2481 H 0.93255 0.91988 0.55852 0.0
H2482 H 0.91792 0.92562 0.53606 0.0
H2483 H 0.92316 0.94537 0.55442 0.0
H2484 H 0.96671 1.00171 0.51718 0.0
H2485 H 0.94319 1.00384 0.48821 0.0
H2486 H 0.92215 0.94229 0.50106 0.0
C2487 C 0.97243 0.93949 0.5681 0.0
C2488 C 0.98442 0.95259 0.58028 0.0
C2489 C 0.98854 0.97264 0.57343 0.0
C2490 C 0.98138 0.97951 0.5546 0.0
C2491 C 0.96945 0.96641 0.54298 0.0
C2492 C 0.96477 0.94688 0.54947 0.0
C2493 C 0.94929 0.9371 0.53529 0.0
C2494 C 0.95842 0.91828 0.52475 0.0
C2495 C 0.92957 0.93168 0.54676 0.0
C2496 C 0.94582 0.95432 0.52018 0.0
C2497 C 0.95792 0.97089 0.52474 0.0
C2498 C 0.95714 0.98881 0.51341 0.0
C2499 C 0.9435 0.98994 0.49703 0.0
C2500 C 0.93046 0.97336 0.49222 0.0
C2501 C 0.9319 0.95525 0.50399 0.0
H2502 H 0.19403 0.77218 0.70287 0.0
H2503 H 0.18277 0.82424 0.66391 0.0
H2504 H 0.18575 0.84727 0.69349 0.0
H2505 H 0.16804 0.79315 0.74979 0.0
H2506 H 0.18708 0.78241 0.76642 0.0
H2507 H 0.18068 0.76975 0.7429 0.0
H2508 H 0.2187 0.77056 0.73235 0.0
H2509 H 0.22519 0.7835 0.75564 0.0
H2510 H 0.23195 0.79463 0.73147 0.0
H2511 H 0.19517 0.86499 0.72575 0.0
H2512 H 0.20716 0.87604 0.75979 0.0
H2513 H 0.21206 0.81287 0.77839 0.0
C2514 C 0.19127 0.78833 0.70085 0.0
C2515 C 0.18771 0.79649 0.68127 0.0
C2516 C 0.18515 0.81777 0.67891 0.0
C2517 C 0.1869 0.83096 0.69559 0.0
C2518 C 0.19126 0.82263 0.7146 0.0
C2519 C 0.19311 0.8018 0.71745 0.0
C2520 C 0.19949 0.79707 0.73917 0.0
C2521 C 0.18283 0.78487 0.75023 0.0
C2522 C 0.22005 0.78577 0.73967 0.0
C2523 C 0.20142 0.81845 0.74783 0.0
C2524 C 0.19657 0.83296 0.7334 0.0
C2525 C 0.19862 0.85377 0.73733 0.0
C2526 C 0.20558 0.85993 0.7566 0.0
C2527 C 0.21029 0.84536 0.77175 0.0
C2528 C 0.20811 0.82436 0.76724 0.0
H2529 H 0.10139 0.54699 0.50791 0.0
H2530 H 0.06323 0.58285 0.46747 0.0
H2531 H 0.04179 0.59287 0.49645 0.0
H2532 H 0.06028 0.5282 0.53917 0.0
H2533 H 0.07489 0.52921 0.5624 0.0
H2534 H 0.08759 0.52522 0.53842 0.0
H2535 H 0.11074 0.55647 0.54546 0.0
H2536 H 0.09803 0.56062 0.56942 0.0
H2537 H 0.09925 0.58084 0.55088 0.0
H2538 H 0.02413 0.59915 0.5302 0.0
H2539 H 0.01133 0.59978 0.56574 0.0
H2540 H 0.0605 0.55934 0.5837 0.0
C2541 C 0.08848 0.55684 0.50509 0.0
C2542 C 0.08428 0.56424 0.4853 0.0
C2543 C 0.0672 0.57724 0.48243 0.0
C2544 C 0.05476 0.58297 0.49884 0.0
C2545 C 0.05945 0.57556 0.51812 0.0
C2546 C 0.07584 0.56269 0.52131 0.0
C2547 C 0.07738 0.55661 0.5435 0.0
C2548 C 0.07488 0.53344 0.54601 0.0
C2549 C 0.09755 0.56409 0.55286 0.0
C2550 C 0.05932 0.56804 0.55224 0.0
C2551 C 0.04918 0.57896 0.53741 0.0
C2552 C 0.03196 0.59064 0.54195 0.0
C2553 C 0.02482 0.59097 0.56217 0.0
C2554 C 0.03486 0.57962 0.57751 0.0
C2555 C 0.0524 0.56817 0.57236 0.0
H2556 H 0.78361 0.34377 0.75689 0.0
H2557 H 0.84272 0.33695 0.72823 0.0
H2558 H 0.85382 0.31444 0.75628 0.0
H2559 H 0.80156 0.34732 0.80683 0.0
H2560 H 0.78091 0.33326 0.81826 0.0
H2561 H 0.77683 0.34691 0.79485 0.0
H2562 H 0.76424 0.31372 0.77748 0.0
H2563 H 0.76818 0.29996 0.80091 0.0
H2564 H 0.78024 0.29139 0.77778 0.0
H2565 H 0.85924 0.2943 0.7888 0.0
H2566 H 0.85848 0.27898 0.82334 0.0
H2567 H 0.79611 0.29969 0.83072 0.0
C2568 C 0.79869 0.33714 0.75629 0.0
C2569 C 0.81228 0.34209 0.74036 0.0
C2570 C 0.83211 0.33348 0.74037 0.0
C2571 C 0.83851 0.32058 0.75617 0.0
C2572 C 0.82492 0.31637 0.7719 0.0
C2573 C 0.80538 0.32434 0.77204 0.0
C2574 C 0.79421 0.31858 0.79138 0.0
C2575 C 0.78803 0.33765 0.80354 0.0
C2576 C 0.77562 0.30511 0.7866 0.0
C2577 C 0.81066 0.30658 0.80228 0.0
C2578 C 0.82817 0.30518 0.79072 0.0
C2579 C 0.84554 0.29519 0.79794 0.0
C2580 C 0.845 0.28653 0.81755 0.0
C2581 C 0.82731 0.2882 0.82976 0.0
C2582 C 0.80993 0.2982 0.82183 0.0
H2583 H 0.61602 0.95628 0.50467 0.0
H2584 H 0.56765 0.97586 0.54494 0.0
H2585 H 0.54194 0.96624 0.5188 0.0
H2586 H 0.59325 0.97663 0.45938 0.0
H2587 H 0.60248 0.95643 0.44322 0.0
H2588 H 0.61649 0.96343 0.46574 0.0
H2589 H 0.61468 0.92601 0.47828 0.0
H2590 H 0.60039 0.91897 0.45591 0.0
H2591 H 0.5902 0.91378 0.48087 0.0
H2592 H 0.5216 0.95346 0.48802 0.0
H2593 H 0.50877 0.94456 0.45357 0.0
H2594 H 0.57087 0.93648 0.4327 0.0
C2595 C 0.59998 0.95839 0.50794 0.0
C2596 C 0.59367 0.96655 0.5268 0.0
C2597 C 0.57265 0.96958 0.53053 0.0
C2598 C 0.55802 0.96402 0.51586 0.0
C2599 C 0.56473 0.95578 0.49742 0.0
C2600 C 0.58527 0.95342 0.49329 0.0
C2601 C 0.58867 0.9459 0.47174 0.0
C2602 C 0.60094 0.96153 0.45929 0.0
C2603 C 0.5991 0.92492 0.47171 0.0
C2604 C 0.56686 0.94439 0.46432 0.0
C2605 C 0.55321 0.94968 0.47946 0.0
C2606 C 0.53218 0.94932 0.47608 0.0
C2607 C 0.525 0.94406 0.45656 0.0
C2608 C 0.53885 0.93969 0.44063 0.0
C2609 C 0.55998 0.9396 0.4447 0.0
H2610 H 0.2227 0.21908 0.83038 0.0
H2611 H 0.16138 0.24293 0.82386 0.0
H2612 H 0.15952 0.22815 0.7891 0.0
H2613 H 0.23843 0.22784 0.77773 0.0
H2614 H 0.25353 0.20492 0.77684 0.0
H2615 H 0.25017 0.21823 0.80061 0.0
H2616 H 0.23621 0.18517 0.81719 0.0
H2617 H 0.23951 0.17178 0.7935 0.0
H2618 H 0.21488 0.17224 0.80564 0.0
H2619 H 0.16398 0.20868 0.75572 0.0
H2620 H 0.17444 0.18731 0.72655 0.0
H2621 H 0.23301 0.17679 0.75538 0.0
C2622 C 0.20887 0.22131 0.82165 0.0
C2623 C 0.1921 0.23207 0.82987 0.0
C2624 C 0.1744 0.23477 0.81784 0.0
C2625 C 0.17323 0.22642 0.79811 0.0
C2626 C 0.19001 0.21569 0.79057 0.0
C2627 C 0.20756 0.21331 0.80195 0.0
C2628 C 0.22339 0.20089 0.79064 0.0
C2629 C 0.2425 0.21374 0.78619 0.0
C2630 C 0.2288 0.18136 0.80244 0.0
C2631 C 0.21184 0.19609 0.77127 0.0
C2632 C 0.19266 0.20484 0.77143 0.0
C2633 C 0.179 0.20188 0.75543 0.0
C2634 C 0.18505 0.18959 0.73897 0.0
C2635 C 0.20458 0.18033 0.73857 0.0
C2636 C 0.21813 0.18387 0.75495 0.0
H2637 H 0.42852 0.53119 0.51384 0.0
H2638 H 0.43047 0.59122 0.54134 0.0
H2639 H 0.45372 0.60299 0.51414 0.0
H2640 H 0.48178 0.53017 0.4961 0.0
H2641 H 0.47515 0.51705 0.47291 0.0
H2642 H 0.46029 0.51304 0.49564 0.0
H2643 H 0.42754 0.5234 0.47609 0.0
H2644 H 0.44228 0.5275 0.45336 0.0
H2645 H 0.42661 0.54772 0.46334 0.0
H2646 H 0.47557 0.60861 0.4824 0.0
H2647 H 0.49262 0.60759 0.44861 0.0
H2648 H 0.4755 0.54403 0.44238 0.0
C2649 C 0.4342 0.54667 0.51441 0.0
C2650 C 0.42771 0.56026 0.52975 0.0
C2651 C 0.43511 0.58058 0.52964 0.0
C2652 C 0.44844 0.58736 0.51433 0.0
C2653 C 0.45427 0.57365 0.49921 0.0
C2654 C 0.44737 0.55371 0.49919 0.0
C2655 C 0.45476 0.54232 0.48059 0.0
C2656 C 0.46883 0.5246 0.48668 0.0
C2657 C 0.43672 0.53481 0.46758 0.0
C2658 C 0.4665 0.55905 0.46993 0.0
C2659 C 0.46636 0.57696 0.48096 0.0
C2660 C 0.47588 0.5946 0.4737 0.0
C2661 C 0.48554 0.59392 0.45454 0.0
C2662 C 0.4853 0.5758 0.44286 0.0
C2663 C 0.47587 0.55817 0.45088 0.0
H2664 H 0.68813 0.84275 0.70556 0.0
H2665 H 0.70758 0.83229 0.76771 0.0
H2666 H 0.74301 0.82691 0.75568 0.0
H2667 H 0.7166 0.80607 0.68264 0.0
H2668 H 0.72313 0.82027 0.66007 0.0
H2669 H 0.70015 0.82619 0.67375 0.0
H2670 H 0.71164 0.86376 0.67772 0.0
H2671 H 0.73453 0.85809 0.66365 0.0
H2672 H 0.73623 0.86935 0.68864 0.0
H2673 H 0.7746 0.81612 0.73574 0.0
H2674 H 0.80093 0.80653 0.71026 0.0
H2675 H 0.76146 0.82708 0.66167 0.0
C2676 C 0.70004 0.84011 0.71668 0.0
C2677 C 0.69528 0.83813 0.73754 0.0
C2678 C 0.71106 0.83426 0.7517 0.0
C2679 C 0.73117 0.83103 0.74496 0.0
C2680 C 0.73523 0.83227 0.7241 0.0
C2681 C 0.72018 0.83736 0.71025 0.0
C2682 C 0.72816 0.8369 0.68861 0.0
C2683 C 0.7163 0.82143 0.67551 0.0
C2684 C 0.72761 0.8583 0.6791 0.0
C2685 C 0.74984 0.82994 0.69229 0.0
C2686 C 0.75365 0.82722 0.71284 0.0
C2687 C 0.77196 0.8188 0.71969 0.0
C2688 C 0.78676 0.81328 0.70519 0.0
C2689 C 0.78326 0.8165 0.68418 0.0
C2690 C 0.76463 0.82505 0.67773 0.0
H2691 H 0.76664 0.23816 0.84325 0.0
H2692 H 0.79538 0.17885 0.83838 0.0
H2693 H 0.76726 0.16704 0.81626 0.0
H2694 H 0.7162 0.22052 0.84649 0.0
H2695 H 0.70546 0.24101 0.83168 0.0
H2696 H 0.72855 0.24507 0.84591 0.0
H2697 H 0.74703 0.25673 0.813 0.0
H2698 H 0.72393 0.25277 0.79867 0.0
H2699 H 0.74714 0.24023 0.79104 0.0
H2700 H 0.73473 0.16139 0.79537 0.0
H2701 H 0.70075 0.16255 0.77865 0.0
H2702 H 0.69406 0.22549 0.7978 0.0
C2703 C 0.76727 0.22282 0.83725 0.0
C2704 C 0.78329 0.20947 0.84259 0.0
C2705 C 0.7832 0.18932 0.8347 0.0
C2706 C 0.76734 0.18251 0.822 0.0
C2707 C 0.75165 0.196 0.81725 0.0
C2708 C 0.75156 0.21576 0.82463 0.0
C2709 C 0.73256 0.22703 0.81807 0.0
C2710 C 0.71995 0.2338 0.83665 0.0
C2711 C 0.738 0.24526 0.80438 0.0
C2712 C 0.7218 0.21046 0.80615 0.0
C2713 C 0.73306 0.1927 0.8056 0.0
C2714 C 0.72584 0.17527 0.79565 0.0
C2715 C 0.70656 0.17604 0.78619 0.0
C2716 C 0.6947 0.19404 0.78698 0.0
C2717 C 0.70264 0.21142 0.79698 0.0
H2718 H 0.48523 1.00661 0.42543 0.0
H2719 H 0.43199 0.97175 0.44315 0.0
H2720 H 0.42077 1.00005 0.46533 0.0
H2721 H 0.49395 0.03136 0.47481 0.0
H2722 H 0.50151 0.05514 0.46333 0.0
H2723 H 0.506 0.03149 0.45013 0.0
H2724 H 0.48607 0.04517 0.41889 0.0
H2725 H 0.48144 0.06879 0.43203 0.0
H2726 H 0.46033 0.05419 0.42219 0.0
H2727 H 0.41478 0.03307 0.4849 0.0
H2728 H 0.41432 0.0681 0.49921 0.0
H2729 H 0.47099 0.08127 0.46776 0.0
C2730 C 0.47143 1.00481 0.43428 0.0
C2731 C 0.45951 0.98695 0.43259 0.0
C2732 C 0.44128 0.98535 0.44409 0.0
C2733 C 0.43484 1.00131 0.45681 0.0
C2734 C 0.44675 0.01887 0.45787 0.0
C2735 C 0.46467 0.02069 0.4469 0.0
C2736 C 0.47415 0.04153 0.44987 0.0
C2737 C 0.49514 0.03977 0.46015 0.0
C2738 C 0.47557 0.0531 0.42954 0.0
C2739 C 0.45867 0.05121 0.464 0.0
C2740 C 0.44306 0.03788 0.46866 0.0
C2741 C 0.42696 0.04362 0.48137 0.0
C2742 C 0.4268 0.06352 0.48944 0.0
C2743 C 0.44252 0.07747 0.48454 0.0
C2744 C 0.45864 0.07106 0.47173 0.0
H2745 H 0.32856 0.29054 0.79393 0.0
H2746 H 0.32191 0.35352 0.77496 0.0
H2747 H 0.28818 0.35488 0.79199 0.0
H2748 H 0.27442 0.27646 0.78813 0.0
H2749 H 0.27502 0.25987 0.81 0.0
H2750 H 0.29768 0.26354 0.79491 0.0
H2751 H 0.31746 0.27473 0.82724 0.0
H2752 H 0.2949 0.27119 0.84239 0.0
H2753 H 0.30779 0.29546 0.84245 0.0
H2754 H 0.25668 0.35003 0.8139 0.0
H2755 H 0.22945 0.3392 0.83749 0.0
H2756 H 0.25681 0.27917 0.84156 0.0
C2757 C 0.31993 0.30459 0.79314 0.0
C2758 C 0.32786 0.32198 0.78318 0.0
C2759 C 0.31606 0.34 0.78242 0.0
C2760 C 0.29692 0.3409 0.79207 0.0
C2761 C 0.28973 0.32354 0.80209 0.0
C2762 C 0.3008 0.30564 0.80244 0.0
C2763 C 0.29008 0.2893 0.81476 0.0
C2764 C 0.28394 0.27123 0.80114 0.0
C2765 C 0.30335 0.28227 0.83278 0.0
C2766 C 0.27156 0.30099 0.82197 0.0
C2767 C 0.27154 0.32066 0.81437 0.0
C2768 C 0.25647 0.33461 0.81975 0.0
C2769 C 0.24115 0.32836 0.83331 0.0
C2770 C 0.24096 0.30832 0.84143 0.0
C2771 C 0.2563 0.29446 0.83541 0.0
H2772 H 0.06599 1.00598 0.90485 0.0
H2773 H 0.04468 0.04628 0.95243 0.0
H2774 H 0.05378 0.02038 0.9785 0.0
H2775 H 0.04478 0.96133 0.92658 0.0
H2776 H 0.06508 0.94482 0.91824 0.0
H2777 H 0.05913 0.96746 0.90399 0.0
H2778 H 0.09665 0.97944 0.90752 0.0
H2779 H 0.10263 0.95689 0.922 0.0
H2780 H 0.10783 0.98175 0.9325 0.0
H2781 H 0.06517 0.98954 0.99922 0.0
H2782 H 0.0722 0.95472 0.01225 0.0
H2783 H 0.08285 0.93385 0.95058 0.0
C2784 C 0.06358 1.00937 0.92081 0.0
C2785 C 0.05501 0.02813 0.92682 0.0
C2786 C 0.05139 0.03197 0.9477 0.0
C2787 C 0.05664 0.01744 0.96253 0.0
C2788 C 0.06517 0.99903 0.95613 0.0
C2789 C 0.06823 0.99484 0.9357 0.0
C2790 C 0.0755 0.97317 0.93256 0.0
C2791 C 0.06021 0.96098 0.91958 0.0
C2792 C 0.09693 0.9728 0.92309 0.0
C2793 C 0.0759 0.96573 0.95438 0.0
C2794 C 0.07042 0.98098 0.96783 0.0
C2795 C 0.06952 0.97751 0.98881 0.0
C2796 C 0.0737 0.95779 0.99611 0.0
C2797 C 0.0782 0.94181 0.98239 0.0
C2798 C 0.07963 0.94594 0.96136 0.0
H2799 H 0.75634 0.23417 0.1762 0.0
H2800 H 0.72291 0.1798 0.19329 0.0
H2801 H 0.75181 0.16881 0.21484 0.0
H2802 H 0.80433 0.21078 0.1718 0.0
H2803 H 0.81845 0.23208 0.18192 0.0
H2804 H 0.79454 0.23632 0.16919 0.0
H2805 H 0.78068 0.25514 0.20104 0.0
H2806 H 0.80463 0.25106 0.21384 0.0
H2807 H 0.78123 0.24256 0.22545 0.0
H2808 H 0.78536 0.1633 0.23383 0.0
H2809 H 0.82062 0.16363 0.24764 0.0
H2810 H 0.8316 0.22128 0.21716 0.0
C2811 C 0.75492 0.22017 0.18479 0.0
C2812 C 0.73733 0.20788 0.18311 0.0
C2813 C 0.7363 0.18939 0.19424 0.0
C2814 C 0.7526 0.18307 0.2066 0.0
C2815 C 0.76987 0.19541 0.20767 0.0
C2816 C 0.77108 0.21359 0.19706 0.0
C2817 C 0.79164 0.22361 0.19995 0.0
C2818 C 0.8029 0.22582 0.1795 0.0
C2819 C 0.7894 0.24431 0.21071 0.0
C2820 C 0.80191 0.20812 0.21359 0.0
C2821 C 0.78911 0.19204 0.21812 0.0
C2822 C 0.79549 0.17586 0.2304 0.0
C2823 C 0.81551 0.17615 0.23818 0.0
C2824 C 0.82889 0.19238 0.23339 0.0
C2825 C 0.82184 0.20854 0.22101 0.0
H2826 H 0.43378 0.93232 0.06964 0.0
H2827 H 0.44384 0.95322 1.00787 0.0
H2828 H 0.45047 0.98812 0.02082 0.0
H2829 H 0.40846 0.98001 0.08792 0.0
H2830 H 0.41985 0.97771 0.1128 0.0
H2831 H 0.41396 0.95516 0.09826 0.0
H2832 H 0.45149 0.94339 0.10167 0.0
H2833 H 0.4576 0.96601 0.11591 0.0
H2834 H 0.47167 0.95997 0.09311 0.0
H2835 H 0.46156 0.01916 0.04138 0.0
H2836 H 0.4709 0.04513 0.0673 0.0
H2837 H 0.45062 1.00467 0.11521 0.0
C2838 C 0.43679 0.94441 0.05882 0.0
C2839 C 0.4382 0.94021 0.03778 0.0
C2840 C 0.44238 0.95626 0.02402 0.0
C2841 C 0.44631 0.97607 0.03127 0.0
C2842 C 0.44547 0.97958 0.05225 0.0
C2843 C 0.44025 0.96429 0.06576 0.0
C2844 C 0.44087 0.97179 0.08759 0.0
C2845 C 0.41951 0.97113 0.09721 0.0
C2846 C 0.45633 0.95956 0.10031 0.0
C2847 C 0.44796 0.99351 0.08438 0.0
C2848 C 0.45068 0.99771 0.0639 0.0
C2849 C 0.45896 0.0162 0.05739 0.0
C2850 C 0.46434 0.03078 0.07215 0.0
C2851 C 0.46113 0.02692 0.0931 0.0
C2852 C 0.45272 1.0081 0.09922 0.0
H2853 H 0.58052 0.58971 0.06796 0.0
H2854 H 0.57767 0.56791 1.00575 0.0
H2855 H 0.5702 0.53298 0.0184 0.0
H2856 H 0.60457 0.54358 0.08957 0.0
H2857 H 0.59048 0.54591 0.11302 0.0
H2858 H 0.59711 0.56839 0.09871 0.0
H2859 H 0.55901 0.57878 0.0978 0.0
H2860 H 0.5522 0.55619 0.11175 0.0
H2861 H 0.54048 0.5613 0.08744 0.0
H2862 H 0.5586 0.5012 0.03861 0.0
H2863 H 0.54916 0.4749 0.06426 0.0
H2864 H 0.5617 0.51797 0.11264 0.0
C2865 C 0.57883 0.57745 0.05702 0.0
C2866 C 0.57979 0.58136 0.03593 0.0
C2867 C 0.57732 0.56507 0.02201 0.0
C2868 C 0.5729 0.54527 0.02907 0.0
C2869 C 0.5714 0.54205 0.05006 0.0
C2870 C 0.57481 0.55767 0.0638 0.0
C2871 C 0.57211 0.55057 0.08554 0.0
C2872 C 0.59227 0.5522 0.0974 0.0
C2873 C 0.55493 0.56241 0.09625 0.0
C2874 C 0.56619 0.52859 0.082 0.0
C2875 C 0.56566 0.52388 0.06148 0.0
C2876 C 0.55935 0.50467 0.0547 0.0
C2877 C 0.55388 0.48989 0.0693 0.0
C2878 C 0.55502 0.49435 0.09037 0.0
C2879 C 0.56113 0.514 0.09665 0.0
H2880 H 0.04813 0.28518 0.29882 0.0
H2881 H 0.05193 0.30163 0.23497 0.0
H2882 H 0.02063 0.28204 0.22793 0.0
H2883 H 0.0309 0.23404 0.29082 0.0
H2884 H 0.01354 0.23347 0.31209 0.0
H2885 H 0.03564 0.24979 0.31283 0.0
H2886 H 0.01265 0.28113 0.31954 0.0
H2887 H 0.99051 0.26486 0.31909 0.0
H2888 H 0.99192 0.28659 0.30236 0.0
H2889 H 0.99052 0.25967 0.22703 0.0
H2890 H 0.96087 0.23744 0.23265 0.0
H2891 H 0.97508 0.23451 0.29716 0.0
C2892 C 0.04205 0.28494 0.28349 0.0
C2893 C 0.05234 0.29504 0.2674 0.0
C2894 C 0.04422 0.29407 0.24746 0.0
C2895 C 0.0265 0.28293 0.24331 0.0
C2896 C 0.01698 0.27272 0.25928 0.0
C2897 C 0.02425 0.2737 0.27902 0.0
C2898 C 0.01104 0.2608 0.29313 0.0
C2899 C 0.02353 0.2435 0.30279 0.0
C2900 C 1.00093 0.27414 0.3095 0.0
C2901 C 0.99534 0.25245 0.27817 0.0
C2902 C 0.99924 0.25957 0.25875 0.0
C2903 C 0.98718 0.25413 0.24219 0.0
C2904 C 0.97035 0.24148 0.24556 0.0
C2905 C 0.9655 0.23434 0.26535 0.0
C2906 C 0.97843 0.23964 0.28185 0.0
H2907 H 0.53639 0.72547 0.01892 0.0
H2908 H 0.54736 0.71735 0.95435 0.0
H2909 H 0.52558 0.74734 0.94693 0.0
H2910 H 0.48455 0.74102 0.01578 0.0
H2911 H 0.48642 0.75982 0.03572 0.0
H2912 H 0.50299 0.73795 0.03591 0.0
H2913 H 0.53463 0.76157 0.03706 0.0
H2914 H 0.51815 0.78352 0.03713 0.0
H2915 H 0.53763 0.78106 0.01793 0.0
H2916 H 0.50043 0.77711 0.94669 0.0
H2917 H 0.47811 0.80678 0.95383 0.0
H2918 H 0.48547 0.79661 0.01863 0.0
C2919 C 0.53433 0.73014 1.00323 0.0
C2920 C 0.54354 0.71911 0.98718 0.0
C2921 C 0.54058 0.72571 0.96686 0.0
C2922 C 0.52811 0.74262 0.96252 0.0
C2923 C 0.51894 0.75296 0.97869 0.0
C2924 C 0.52225 0.74719 0.99868 0.0
C2925 C 0.51113 0.76117 0.01334 0.0
C2926 C 0.49534 0.74927 0.02593 0.0
C2927 C 0.52629 0.7725 0.02718 0.0
C2928 C 0.50085 0.77561 0.99852 0.0
C2929 C 0.5053 0.77049 0.97859 0.0
C2930 C 0.49701 0.78133 0.96226 0.0
C2931 C 0.48424 0.79805 0.96643 0.0
C2932 C 0.4801 0.80398 0.98675 0.0
C2933 C 0.48845 0.79246 1.00294 0.0
H2934 H 0.97493 0.78993 0.26251 0.0
H2935 H 0.96533 0.7966 0.19755 0.0
H2936 H 0.99558 0.77486 0.19097 0.0
H2937 H 0.03064 0.79097 0.2607 0.0
H2938 H 0.03318 0.77264 0.28098 0.0
H2939 H 0.01138 0.7893 0.28021 0.0
H2940 H 0.98744 0.75789 0.28124 0.0
H2941 H 1.00916 0.74112 0.28177 0.0
H2942 H 0.99008 0.73826 0.2622 0.0
H2943 H 0.02572 0.74991 0.19187 0.0
H2944 H 0.05506 0.72756 0.20002 0.0
H2945 H 0.04522 0.73833 0.26442 0.0
C2946 C 0.97933 0.78699 0.24689 0.0
C2947 C 0.96776 0.79495 0.23051 0.0
C2948 C 0.97407 0.79083 0.2103 0.0
C2949 C 0.99114 0.77837 0.20645 0.0
C2950 C 1.0019 0.77035 0.22298 0.0
C2951 C 0.9964 0.77482 0.2428 0.0
C2952 C 0.01045 0.76444 0.25793 0.0
C2953 C 0.0221 0.78028 0.2707 0.0
C2954 C 0.99857 0.74955 0.27159 0.0
C2955 C 0.02461 0.75318 0.24359 0.0
C2956 C 0.01938 0.75662 0.22348 0.0
C2957 C 0.03 0.74729 0.20758 0.0
C2958 C 0.04655 0.73448 0.21234 0.0
C2959 C 0.05251 0.73121 0.23284 0.0
C2960 C 0.0412 0.74065 0.24859 0.0
H2961 H 0.98697 0.72493 1.00089 0.0
H2962 H 0.97213 0.71999 0.06497 0.0
H2963 H 0.99375 0.75019 0.07229 0.0
H2964 H 0.03856 0.74034 1.00623 0.0
H2965 H 0.03806 0.75824 0.98542 0.0
H2966 H 0.02127 0.73651 0.98523 0.0
H2967 H 0.98999 0.76027 0.98126 0.0
H2968 H 1.0067 0.78205 0.98111 0.0
H2969 H 0.98616 0.78065 0.99927 0.0
H2970 H 0.01919 0.77968 0.07263 0.0
H2971 H 0.042 0.809 0.06541 0.0
H2972 H 0.03818 0.79594 1.00084 0.0
C2973 C 0.9881 0.73042 0.01641 0.0
C2974 C 0.97789 0.72025 0.03241 0.0
C2975 C 0.9797 0.72775 0.05253 0.0
C2976 C 0.99206 0.74477 0.05681 0.0
C2977 C 1.00226 0.75426 0.04073 0.0
C2978 C 1.00003 0.7476 0.02087 0.0
C2979 C 0.01212 0.76079 1.00625 0.0
C2980 C 0.02847 0.74821 0.99513 0.0
C2981 C 0.99789 0.77159 0.99108 0.0
C2982 C 0.0217 0.77581 0.02097 0.0
C2983 C 0.01609 0.77163 0.04084 0.0
C2984 C 0.02352 0.78316 0.05711 0.0
C2985 C 0.03659 0.79966 0.05292 0.0
C2986 C 0.04184 0.80464 0.03262 0.0
C2987 C 0.03439 0.79242 0.01651 0.0
H2988 H 0.25279 0.97633 0.2344 0.0
H2989 H 0.31659 0.97117 0.2181 0.0
H2990 H 0.32437 1.00167 0.23906 0.0
H2991 H 0.25085 0.03186 0.23357 0.0
H2992 H 0.23336 0.03318 0.2547 0.0
H2993 H 0.23307 0.01138 0.23801 0.0
H2994 H 0.23824 0.98761 0.2691 0.0
H2995 H 0.23878 1.00934 0.28585 0.0
H2996 H 0.25976 0.99162 0.28571 0.0
H2997 H 0.32524 0.03161 0.26407 0.0
H2998 H 0.31857 0.06055 0.28746 0.0
H2999 H 0.254 0.04657 0.28606 0.0
C3000 C 0.26838 0.98173 0.23512 0.0
C3001 C 0.28412 0.97138 0.22465 0.0
C3002 C 0.3043 0.97898 0.22585 0.0
C3003 C 0.30885 0.99619 0.23784 0.0
C3004 C 0.29302 1.00578 0.24833 0.0
C3005 C 0.27312 0.99899 0.24677 0.0
C3006 C 0.2588 0.01206 0.25929 0.0
C3007 C 0.24309 0.02276 0.24557 0.0
C3008 C 0.24828 0.99939 0.27598 0.0
C3009 C 0.27372 0.02717 0.26837 0.0
C3010 C 0.29342 0.02323 0.26205 0.0
C3011 C 0.30984 0.0349 0.26896 0.0
C3012 C 0.30594 0.05121 0.28235 0.0
C3013 C 0.28578 0.05584 0.28852 0.0
C3014 C 0.26955 0.04351 0.28148 0.0
H3015 H 0.29264 0.47506 0.97145 0.0
H3016 H 0.32119 0.52976 0.99544 0.0
H3017 H 0.29278 0.53427 0.01933 0.0
H3018 H 0.23989 0.49468 0.97516 0.0
H3019 H 0.22936 0.47034 0.98235 0.0
H3020 H 0.25173 0.47147 0.96646 0.0
H3021 H 0.27109 0.44874 0.99223 0.0
H3022 H 0.24886 0.44773 1.0083 0.0
H3023 H 0.2728 0.45657 0.0185 0.0
H3024 H 0.26308 0.532 0.04227 0.0
H3025 H 0.23108 0.52517 0.06065 0.0
H3026 H 0.21973 0.47293 0.02166 0.0
C3027 C 0.29271 0.48812 0.98153 0.0
C3028 C 0.30942 0.50183 0.9818 0.0
C3029 C 0.30888 0.51876 0.99525 0.0
C3030 C 0.29274 0.52152 1.00887 0.0
C3031 C 0.27692 0.50743 1.00878 0.0
C3032 C 0.27648 0.49125 0.99529 0.0
C3033 C 0.25736 0.4785 0.99859 0.0
C3034 C 0.24378 0.47877 0.9795 0.0
C3035 C 0.26287 0.45659 1.00478 0.0
C3036 C 0.24743 0.48996 0.01614 0.0
C3037 C 0.25914 0.5065 0.0218 0.0
C3038 C 0.25367 0.51916 0.03793 0.0
C3039 C 0.23555 0.51503 0.04842 0.0
C3040 C 0.22293 0.49845 0.04273 0.0
C3041 C 0.22903 0.48574 0.02634 0.0
H3042 H 0.76665 0.54839 0.23918 0.0
H3043 H 0.70233 0.55534 0.22566 0.0
H3044 H 0.69477 0.52442 0.246 0.0
H3045 H 0.76735 0.49332 0.23597 0.0
H3046 H 0.78562 0.49048 0.25628 0.0
H3047 H 0.78575 0.51316 0.24084 0.0
H3048 H 0.78225 0.53532 0.27331 0.0
H3049 H 0.78199 0.51271 0.28885 0.0
H3050 H 0.76136 0.53076 0.29056 0.0
H3051 H 0.69427 0.4933 0.26929 0.0
H3052 H 0.70112 0.46291 0.29057 0.0
H3053 H 0.76593 0.47561 0.28763 0.0
C3054 C 0.75096 0.54342 0.24052 0.0
C3055 C 0.73504 0.55436 0.23091 0.0
C3056 C 0.71476 0.54716 0.2328 0.0
C3057 C 0.71033 0.52968 0.24442 0.0
C3058 C 0.72637 0.51939 0.25389 0.0
C3059 C 0.74632 0.52586 0.25181 0.0
C3060 C 0.76085 0.51181 0.26304 0.0
C3061 C 0.77577 0.50159 0.24814 0.0
C3062 C 0.77228 0.52334 0.27994 0.0
C3063 C 0.74599 0.49647 0.27189 0.0
C3064 C 0.72614 0.5012 0.26662 0.0
C3065 C 0.70976 0.48943 0.2734 0.0
C3066 C 0.71379 0.47226 0.2856 0.0
C3067 C 0.73405 0.46683 0.29077 0.0
C3068 C 0.75029 0.47925 0.28383 0.0
H3069 H 0.78726 0.04062 0.0494 0.0
H3070 H 0.82176 0.99639 0.01425 0.0
H3071 H 0.79391 0.99417 0.98946 0.0
H3072 H 0.73754 0.01565 0.04079 0.0
H3073 H 0.72377 0.03935 0.03922 0.0
H3074 H 0.74646 0.03767 0.05461 0.0
H3075 H 0.76208 0.068 0.03481 0.0
H3076 H 0.73953 0.06963 0.01921 0.0
H3077 H 0.76417 0.0666 1.00746 0.0
H3078 H 0.76382 0.99803 0.96702 0.0
H3079 H 0.73065 1.00439 0.95052 0.0
H3080 H 0.71349 0.04419 1.00045 0.0
C3081 C 0.78883 0.03031 0.03662 0.0
C3082 C 0.8071 0.01914 0.03358 0.0
C3083 C 0.80834 1.00569 0.01667 0.0
C3084 C 0.79251 1.00419 1.00247 0.0
C3085 C 0.77513 0.0159 1.00544 0.0
C3086 C 0.7729 0.02839 0.02226 0.0
C3087 C 0.7522 0.03888 0.02177 0.0
C3088 C 0.73922 0.0325 0.0402 0.0
C3089 C 0.75465 0.06216 0.02075 0.0
C3090 C 0.74342 0.03046 1.00199 0.0
C3091 C 0.75709 0.0174 0.99278 0.0
C3092 C 0.7529 1.00812 0.97414 0.0
C3093 C 0.73408 0.01197 0.96478 0.0
C3094 C 0.71948 0.02483 0.9741 0.0
C3095 C 0.72432 0.03424 0.99297 0.0
H3096 H 0.23585 0.24638 0.97341 0.0
H3097 H 0.2255 0.3113 0.96718 0.0
H3098 H 0.24719 0.31763 0.99749 0.0
H3099 H 0.2343 0.24571 0.02891 0.0
H3100 H 0.25362 0.22629 0.03096 0.0
H3101 H 0.23731 0.22713 1.0089 0.0
H3102 H 0.26912 0.22875 0.98559 0.0
H3103 H 0.28553 0.22815 1.00759 0.0
H3104 H 0.28771 0.24864 0.98944 0.0
H3105 H 0.27208 0.31678 0.02742 0.0
H3106 H 0.29414 0.30864 0.05698 0.0
H3107 H 0.28642 0.24416 0.04488 0.0
C3108 C 0.23805 0.26192 0.97854 0.0
C3109 C 0.22902 0.27839 0.96793 0.0
C3110 C 0.23214 0.29848 0.97517 0.0
C3111 C 0.24456 0.30221 0.99228 0.0
C3112 C 0.25352 0.28564 1.00219 0.0
C3113 C 0.25008 0.26586 0.99579 0.0
C3114 C 0.26099 0.25069 1.00942 0.0
C3115 C 0.24564 0.23663 0.02019 0.0
C3116 C 0.27677 0.23833 0.99728 0.0
C3117 C 0.27129 0.26499 0.02439 0.0
C3118 C 0.26702 0.28511 0.01982 0.0
C3119 C 0.27535 0.30106 0.0312 0.0
C3120 C 0.28799 0.29632 0.04787 0.0
C3121 C 0.29198 0.2758 0.05324 0.0
C3122 C 0.28356 0.26 0.0412 0.0
H3123 H 0.27062 0.72608 0.45934 0.0
H3124 H 0.31273 0.77598 0.4702 0.0
H3125 H 0.29512 0.78384 0.50239 0.0
H3126 H 0.22565 0.75042 0.4801 0.0
H3127 H 0.21583 0.72765 0.49192 0.0
H3128 H 0.23143 0.72578 0.46941 0.0
H3129 H 0.25632 0.70176 0.48837 0.0
H3130 H 0.2407 0.70342 0.51087 0.0
H3131 H 0.26738 0.70987 0.51217 0.0
H3132 H 0.27278 0.78725 0.53257 0.0
H3133 H 0.24918 0.78386 0.56141 0.0
H3134 H 0.22161 0.73083 0.53297 0.0
C3135 C 0.27613 0.73863 0.46855 0.0
C3136 C 0.29321 0.75035 0.46225 0.0
C3137 C 0.29996 0.76658 0.47479 0.0
C3138 C 0.28991 0.77129 0.49303 0.0
C3139 C 0.27313 0.75958 0.49873 0.0
C3140 C 0.26638 0.74341 0.48707 0.0
C3141 C 0.24834 0.73293 0.49728 0.0
C3142 C 0.22918 0.73428 0.48387 0.0
C3143 C 0.2535 0.71068 0.50248 0.0
C3144 C 0.24606 0.74577 0.51647 0.0
C3145 C 0.26045 0.76118 0.51674 0.0
C3146 C 0.26159 0.77513 0.53264 0.0
C3147 C 0.24812 0.77301 0.54902 0.0
C3148 C 0.23371 0.75688 0.54972 0.0
C3149 C 0.2324 0.74332 0.53292 0.0
H3150 H 0.98085 0.47543 0.78865 0.0
H3151 H 0.03593 0.49918 0.81676 0.0
H3152 H 0.03988 0.52358 0.78878 0.0
H3153 H 1.0007 0.4795 0.73602 0.0
H3154 H 0.9763 0.48637 0.72544 0.0
H3155 H 0.97756 0.47045 0.74777 0.0
H3156 H 0.9544 0.49591 0.76704 0.0
H3157 H 0.9533 0.51204 0.74487 0.0
H3158 H 0.96191 0.52229 0.76886 0.0
H3159 H 0.03677 0.54747 0.7596 0.0
H3160 H 0.02984 0.56572 0.72742 0.0
H3161 H 0.97879 0.52536 0.71559 0.0
C3162 C 0.99389 0.48555 0.78875 0.0
C3163 C 1.00771 0.48567 0.80539 0.0
C3164 C 0.02466 0.49916 0.80471 0.0
C3165 C 0.02715 0.51309 0.78877 0.0
C3166 C 0.01287 0.5132 0.77314 0.0
C3167 C 0.99686 0.49949 0.77262 0.0
C3168 C 0.98415 0.50268 0.75347 0.0
C3169 C 0.98472 0.48362 0.73987 0.0
C3170 C 0.96213 0.50858 0.75889 0.0
C3171 C 0.99542 0.52043 0.74362 0.0
C3172 C 0.01178 0.52638 0.75544 0.0
C3173 C 0.02413 0.54283 0.75007 0.0
C3174 C 0.01997 0.55324 0.73187 0.0
C3175 C 1.00378 0.54703 0.71905 0.0
C3176 C 0.9913 0.53043 0.7251 0.0
H3177 H 0.75266 0.78521 0.4632 0.0
H3178 H 0.69368 0.76456 0.48493 0.0
H3179 H 0.70783 0.76077 0.51953 0.0
H3180 H 0.7832 0.75185 0.49353 0.0
H3181 H 0.80287 0.77032 0.49878 0.0
H3182 H 0.78819 0.7721 0.47565 0.0
H3183 H 0.77781 0.80905 0.4848 0.0
H3184 H 0.79264 0.80746 0.50785 0.0
H3185 H 0.76602 0.81415 0.50907 0.0
H3186 H 0.72867 0.75658 0.55092 0.0
H3187 H 0.75371 0.75619 0.57863 0.0
H3188 H 0.79939 0.78165 0.53799 0.0
C3189 C 0.7427 0.78005 0.4753 0.0
C3190 C 0.72196 0.77527 0.47132 0.0
C3191 C 0.70946 0.76862 0.4876 0.0
C3192 C 0.71743 0.76624 0.50729 0.0
C3193 C 0.73793 0.77074 0.5106 0.0
C3194 C 0.75037 0.77782 0.49519 0.0
C3195 C 0.77183 0.78179 0.50309 0.0
C3196 C 0.78744 0.7682 0.49211 0.0
C3197 C 0.7774 0.80446 0.50108 0.0
C3198 C 0.76953 0.77562 0.52531 0.0
C3199 C 0.74986 0.76914 0.52914 0.0
C3200 C 0.744 0.76204 0.54821 0.0
C3201 C 0.7584 0.76204 0.56395 0.0
C3202 C 0.77853 0.76945 0.56085 0.0
C3203 C 0.78419 0.77599 0.54103 0.0
H3204 H 0.53425 0.49842 0.21364 0.0
H3205 H 0.49591 0.44783 0.23228 0.0
H3206 H 0.49099 0.46405 0.26585 0.0
H3207 H 0.55888 0.50565 0.26281 0.0
H3208 H 0.55978 0.53303 0.26063 0.0
H3209 H 0.5604 0.51743 0.23805 0.0
H3210 H 0.52911 0.53683 0.22387 0.0
H3211 H 0.52825 0.55235 0.2465 0.0
H3212 H 0.50607 0.53807 0.23878 0.0
H3213 H 0.48867 0.48626 0.29649 0.0
H3214 H 0.49217 0.5111 0.32426 0.0
H3215 H 0.53334 0.54726 0.28714 0.0
C3216 C 0.52489 0.49074 0.22484 0.0
C3217 C 0.51549 0.47178 0.22031 0.0
C3218 C 0.50347 0.46217 0.23544 0.0
C3219 C 0.50044 0.47138 0.25449 0.0
C3220 C 0.50964 0.49015 0.25833 0.0
C3221 C 0.52187 0.49964 0.24408 0.0
C3222 C 0.53034 0.51958 0.25241 0.0
C3223 C 0.55374 0.51887 0.25354 0.0
C3224 C 0.523 0.53778 0.23962 0.0
C3225 C 0.52089 0.51984 0.27355 0.0
C3226 C 0.50886 0.50277 0.27645 0.0
C3227 C 0.49828 0.49953 0.29449 0.0
C3228 C 0.50046 0.51375 0.31024 0.0
C3229 C 0.51338 0.53099 0.30814 0.0
C3230 C 0.52339 0.53427 0.28929 0.0
H3231 H 0.99777 0.0364 0.79406 0.0
H3232 H 0.06254 0.04586 0.80288 0.0
H3233 H 0.06978 0.02288 0.77372 0.0
H3234 H 0.9997 0.98405 0.78073 0.0
H3235 H 0.98003 0.98562 0.76161 0.0
H3236 H 0.98002 1.00311 0.78276 0.0
H3237 H 0.98005 0.03376 0.75788 0.0
H3238 H 0.97972 0.01637 0.73666 0.0
H3239 H 0.99946 0.0354 0.73852 0.0
H3240 H 0.06965 0.9967 0.74468 0.0
H3241 H 0.06215 0.97385 0.71549 0.0
H3242 H 0.99745 0.98304 0.725 0.0
C3243 C 0.01347 0.0338 0.78968 0.0
C3244 C 0.02962 0.0429 0.80068 0.0
C3245 C 0.04996 0.0392 0.79451 0.0
C3246 C 0.05419 0.02603 0.77809 0.0
C3247 C 0.03789 0.0169 0.76785 0.0
C3248 C 0.01792 0.02098 0.77319 0.0
C3249 C 1.0031 1.00967 0.75953 0.0
C3250 C 0.98994 0.99472 0.7719 0.0
C3251 C 0.9898 0.0247 0.74743 0.0
C3252 C 0.0178 0.99842 0.74574 0.0
C3253 C 0.03782 1.00254 0.7509 0.0
C3254 C 0.05402 0.99351 0.74047 0.0
C3255 C 0.04964 0.9804 0.72403 0.0
C3256 C 0.02925 0.97666 0.71803 0.0
C3257 C 0.01319 0.98564 0.72925 0.0
H3258 H 0.46624 0.7495 0.78763 0.0
H3259 H 0.48557 0.69784 0.75117 0.0
H3260 H 0.51926 0.71392 0.74638 0.0
H3261 H 0.49173 0.78828 0.759 0.0
H3262 H 0.49922 0.80319 0.78082 0.0
H3263 H 0.47661 0.78763 0.78191 0.0
H3264 H 0.49057 0.76913 0.81382 0.0
H3265 H 0.51312 0.78479 0.81297 0.0
H3266 H 0.5154 0.75742 0.81286 0.0
H3267 H 0.54965 0.73641 0.7433 0.0
H3268 H 0.57703 0.76175 0.74568 0.0
H3269 H 0.53973 0.79854 0.78615 0.0
C3270 C 0.47765 0.74153 0.77877 0.0
C3271 C 0.47327 0.72233 0.76981 0.0
C3272 C 0.48862 0.71236 0.7584 0.0
C3273 C 0.50775 0.72148 0.75544 0.0
C3274 C 0.51145 0.74051 0.76417 0.0
C3275 C 0.497 0.75031 0.7759 0.0
C3276 C 0.50521 0.77051 0.78387 0.0
C3277 C 0.49243 0.78846 0.77592 0.0
C3278 C 0.50613 0.77045 0.80727 0.0
C3279 C 0.52646 0.7706 0.77462 0.0
C3280 C 0.52954 0.75319 0.76316 0.0
C3281 C 0.54758 0.74989 0.75258 0.0
C3282 C 0.56314 0.7644 0.75417 0.0
C3283 C 0.56094 0.782 0.7666 0.0
C3284 C 0.54206 0.78527 0.77663 0.0
H3285 H 0.97188 0.28976 0.48484 0.0
H3286 H 1.00293 0.32336 0.53266 0.0
H3287 H 0.02769 0.29551 0.53633 0.0
H3288 H 0.97877 0.23931 0.50853 0.0
H3289 H 0.9825 0.22655 0.48451 0.0
H3290 H 0.96677 0.24902 0.48581 0.0
H3291 H 0.98896 0.26601 0.45795 0.0
H3292 H 1.00491 0.2437 0.45676 0.0
H3293 H 0.01608 0.2683 0.4618 0.0
H3294 H 0.05049 0.26527 0.53362 0.0
H3295 H 0.06756 0.23232 0.52747 0.0
H3296 H 0.02149 0.21695 0.48255 0.0
C3297 C 0.98369 0.29109 0.49628 0.0
C3298 C 0.98562 0.30901 0.50818 0.0
C3299 C 1.00137 0.31008 0.52298 0.0
C3300 C 0.01551 0.29428 0.52526 0.0
C3301 C 0.01367 0.27721 0.51285 0.0
C3302 C 0.99798 0.27527 0.4989 0.0
C3303 C 0.99956 0.25508 0.48765 0.0
C3304 C 0.98078 0.2417 0.49188 0.0
C3305 C 1.00256 0.25849 0.46468 0.0
C3306 C 0.01863 0.24618 0.49737 0.0
C3307 C 0.02658 0.25932 0.51175 0.0
C3308 C 0.04436 0.25477 0.52248 0.0
C3309 C 0.05407 0.23609 0.51874 0.0
C3310 C 0.04594 0.22205 0.50451 0.0
C3311 C 0.02803 0.22732 0.4936 0.0
H3312 H 0.46527 0.26942 0.73317 0.0
H3313 H 0.48293 0.32193 0.7694 0.0
H3314 H 0.51724 0.30726 0.77383 0.0
H3315 H 0.4923 0.232 0.7626 0.0
H3316 H 0.49987 0.21694 0.74092 0.0
H3317 H 0.47674 0.2317 0.73996 0.0
H3318 H 0.48952 0.24999 0.70744 0.0
H3319 H 0.51263 0.23519 0.70821 0.0
H3320 H 0.51393 0.26263 0.70776 0.0
H3321 H 0.54905 0.28656 0.77559 0.0
H3322 H 0.5774 0.26225 0.77272 0.0
H3323 H 0.53995 0.22276 0.73503 0.0
C3324 C 0.47635 0.27786 0.74203 0.0
C3325 C 0.47133 0.29696 0.75086 0.0
C3326 C 0.48641 0.30751 0.76218 0.0
C3327 C 0.50592 0.29919 0.76495 0.0
C3328 C 0.51024 0.28028 0.75627 0.0
C3329 C 0.49598 0.26978 0.7449 0.0
C3330 C 0.50471 0.24975 0.73716 0.0
C3331 C 0.49268 0.23152 0.74568 0.0
C3332 C 0.50523 0.24938 0.71375 0.0
C3333 C 0.52609 0.2506 0.74605 0.0
C3334 C 0.52883 0.26836 0.75706 0.0
C3335 C 0.54714 0.27272 0.76683 0.0
C3336 C 0.56322 0.2588 0.765 0.0
C3337 C 0.56111 0.24069 0.75336 0.0
C3338 C 0.54209 0.23643 0.74403 0.0
H3339 H 0.53513 0.29263 0.49821 0.0
H3340 H 0.54325 0.30292 0.56291 0.0
H3341 H 0.52073 0.27349 0.57034 0.0
H3342 H 0.48284 0.27777 0.49958 0.0
H3343 H 0.48535 0.25828 0.48039 0.0
H3344 H 0.50217 0.27999 0.4802 0.0
H3345 H 0.53355 0.25605 0.48124 0.0
H3346 H 0.51683 0.23427 0.48119 0.0
H3347 H 0.5355 0.23722 0.50114 0.0
H3348 H 0.49542 0.24389 0.57049 0.0
H3349 H 0.47331 0.21404 0.56344 0.0
H3350 H 0.48332 0.22206 0.49868 0.0
C3351 C 0.53225 0.28858 0.51394 0.0
C3352 C 0.54092 0.30007 0.53001 0.0
C3353 C 0.53692 0.29423 0.55039 0.0
C3354 C 0.52401 0.27763 0.55473 0.0
C3355 C 0.51543 0.26683 0.53853 0.0
C3356 C 0.5197 0.27187 0.51853 0.0
C3357 C 0.50905 0.25748 0.50388 0.0
C3358 C 0.49396 0.26908 0.49021 0.0
C3359 C 0.52466 0.24555 0.49111 0.0
C3360 C 0.49798 0.24365 0.51871 0.0
C3361 C 0.50162 0.24943 0.53863 0.0
C3362 C 0.4926 0.23917 0.55495 0.0
C3363 C 0.47994 0.22234 0.55081 0.0
C3364 C 0.4766 0.21573 0.53054 0.0
C3365 C 0.48566 0.22671 0.51434 0.0
H3366 H 0.79071 0.53894 0.8001 0.0
H3367 H 0.74319 0.57383 0.7702 0.0
H3368 H 0.7376 0.54571 0.74595 0.0
H3369 H 0.81172 0.51737 0.75488 0.0
H3370 H 0.81699 0.49271 0.76576 0.0
H3371 H 0.81666 0.51498 0.78179 0.0
H3372 H 0.78958 0.49811 0.80501 0.0
H3373 H 0.78997 0.4757 0.78914 0.0
H3374 H 0.76625 0.48868 0.79395 0.0
H3375 H 0.73802 0.51489 0.72391 0.0
H3376 H 0.74318 0.48213 0.70637 0.0
H3377 H 0.7908 0.4666 0.74965 0.0
C3378 C 0.77892 0.54044 0.78865 0.0
C3379 C 0.76741 0.55861 0.78699 0.0
C3380 C 0.75228 0.56012 0.77165 0.0
C3381 C 0.74897 0.54422 0.7578 0.0
C3382 C 0.76088 0.52676 0.75944 0.0
C3383 C 0.77544 0.52462 0.77452 0.0
C3384 C 0.78642 0.50433 0.77239 0.0
C3385 C 0.80931 0.50755 0.76847 0.0
C3386 C 0.78283 0.49091 0.79124 0.0
C3387 C 0.77582 0.49557 0.75371 0.0
C3388 C 0.76115 0.50882 0.74654 0.0
C3389 C 0.74947 0.50436 0.72938 0.0
C3390 C 0.75268 0.48575 0.71936 0.0
C3391 C 0.7675 0.47171 0.72644 0.0
C3392 C 0.77924 0.47685 0.74388 0.0
H3393 H 0.72596 0.02158 0.5361 0.0
H3394 H 0.71683 0.95728 0.5482 0.0
H3395 H 0.74652 0.94901 0.52636 0.0
H3396 H 0.74078 0.01712 0.48413 0.0
H3397 H 0.75986 0.03686 0.48539 0.0
H3398 H 0.73817 0.03767 0.50218 0.0
H3399 H 0.76219 0.03918 0.53348 0.0
H3400 H 0.78395 0.03859 0.51678 0.0
H3401 H 0.78143 0.01983 0.53668 0.0
H3402 H 0.77621 0.94786 0.50117 0.0
H3403 H 0.80569 0.95415 0.47836 0.0
H3404 H 0.79621 0.01925 0.48422 0.0
C3405 C 0.7303 1.00576 0.53425 0.0
C3406 C 0.71907 0.99004 0.54383 0.0
C3407 C 0.72532 0.96955 0.54115 0.0
C3408 C 0.74207 0.96472 0.52865 0.0
C3409 C 0.7526 0.98058 0.51913 0.0
C3410 C 0.74714 1.00071 0.52209 0.0
C3411 C 0.76119 0.01495 0.51052 0.0
C3412 C 0.74929 0.02738 0.49461 0.0
C3413 C 0.77289 0.02896 0.52525 0.0
C3414 C 0.77531 0.99972 0.50042 0.0
C3415 C 0.77 0.97995 0.50536 0.0
C3416 C 0.78057 0.9633 0.49735 0.0
C3417 C 0.7972 0.96699 0.4843 0.0
C3418 C 0.80327 0.98716 0.47958 0.0
C3419 C 0.79202 1.00366 0.48769 0.0
H3420 H 0.23354 0.96012 0.76533 0.0
H3421 H 0.2606 0.98099 0.82199 0.0
H3422 H 0.26482 0.0153 0.80734 0.0
H3423 H 0.2657 0.9891 0.73165 0.0
H3424 H 0.24574 0.99505 0.71374 0.0
H3425 H 0.24442 0.97197 0.72857 0.0
H3426 H 0.20891 0.9825 0.74218 0.0
H3427 H 0.21005 1.00552 0.72726 0.0
H3428 H 0.20585 1.00694 0.75436 0.0
H3429 H 0.26775 0.0467 0.78644 0.0
H3430 H 0.2663 0.07466 0.76166 0.0
H3431 H 0.23612 0.0348 0.71823 0.0
C3432 C 0.24029 0.97195 0.77466 0.0
C3433 C 0.24661 0.96782 0.79493 0.0
C3434 C 0.25529 0.98377 0.80662 0.0
C3435 C 0.25794 1.0033 0.79834 0.0
C3436 C 0.25175 1.00678 0.77834 0.0
C3437 C 0.24288 0.99168 0.76667 0.0
C3438 C 0.2373 0.99976 0.74566 0.0
C3439 C 0.24899 0.98828 0.72892 0.0
C3440 C 0.21415 0.99861 0.74217 0.0
C3441 C 0.2445 0.02174 0.74735 0.0
C3442 C 0.25292 0.02529 0.76633 0.0
C3443 C 0.26093 0.04418 0.77164 0.0
C3444 C 0.2599 0.06004 0.75742 0.0
C3445 C 0.25068 0.05719 0.73805 0.0
C3446 C 0.24322 0.03757 0.73287 0.0
H3447 H 0.28631 0.542 0.54739 0.0
H3448 H 0.3116 0.4853 0.52457 0.0
H3449 H 0.28235 0.48136 0.50151 0.0
H3450 H 0.23226 0.52499 0.54516 0.0
H3451 H 0.22301 0.54965 0.53737 0.0
H3452 H 0.2455 0.54775 0.55303 0.0
H3453 H 0.26574 0.56864 0.52639 0.0
H3454 H 0.24339 0.5704 0.51054 0.0
H3455 H 0.26666 0.55997 0.50035 0.0
H3456 H 0.25247 0.48462 0.47884 0.0
H3457 H 0.22093 0.49296 0.46025 0.0
H3458 H 0.21285 0.54666 0.498 0.0
C3459 C 0.28543 0.52859 0.53781 0.0
C3460 C 0.30146 0.5141 0.53762 0.0
C3461 C 0.29976 0.49681 0.52475 0.0
C3462 C 0.28315 0.49438 0.51161 0.0
C3463 C 0.26804 0.50922 0.51157 0.0
C3464 C 0.26872 0.52582 0.52454 0.0
C3465 C 0.25029 0.5395 0.52107 0.0
C3466 C 0.23698 0.54053 0.5403 0.0
C3467 C 0.25693 0.5609 0.51418 0.0
C3468 C 0.23948 0.52812 0.50397 0.0
C3469 C 0.25015 0.51076 0.49872 0.0
C3470 C 0.24385 0.49807 0.48291 0.0
C3471 C 0.226 0.50305 0.4723 0.0
C3472 C 0.21445 0.5205 0.47756 0.0
C3473 C 0.22132 0.53318 0.49368 0.0
H3474 H 0.72258 0.26471 0.03872 0.0
H3475 H 0.75428 0.21731 0.07232 0.0
H3476 H 0.77884 0.21379 0.0443 0.0
H3477 H 0.72909 0.24048 0.98846 0.0
H3478 H 0.73238 0.26444 0.97545 0.0
H3479 H 0.71691 0.26314 0.99808 0.0
H3480 H 0.73891 0.29147 0.0146 0.0
H3481 H 0.75458 0.29269 0.99211 0.0
H3482 H 0.76611 0.28802 0.01659 0.0
H3483 H 0.80168 0.21694 0.0139 0.0
H3484 H 0.8188 0.22377 0.98103 0.0
H3485 H 0.77148 0.26724 0.96556 0.0
C3486 C 0.73446 0.25334 0.04006 0.0
C3487 C 0.73659 0.24158 0.05807 0.0
C3488 C 0.75252 0.22695 0.05905 0.0
C3489 C 0.76655 0.22472 0.04312 0.0
C3490 C 0.76442 0.23695 0.02596 0.0
C3491 C 0.74857 0.25071 0.02409 0.0
C3492 C 0.74978 0.26179 1.00379 0.0
C3493 C 0.73092 0.25718 0.99067 0.0
C3494 C 0.75251 0.28486 1.00697 0.0
C3495 C 0.76888 0.25227 0.99474 0.0
C3496 C 0.77716 0.2381 1.00791 0.0
C3497 C 0.79522 0.22784 1.00336 0.0
C3498 C 0.80492 0.23191 0.98473 0.0
C3499 C 0.79646 0.24594 0.97071 0.0
C3500 C 0.7782 0.25626 0.97589 0.0
H3501 H 0.47186 0.99272 0.30401 0.0
H3502 H 0.52142 0.95012 0.29424 0.0
H3503 H 0.52977 0.96725 0.26181 0.0
H3504 H 0.4564 0.99503 0.24995 0.0
H3505 H 0.4498 0.02167 0.25108 0.0
H3506 H 0.44753 1.006 0.27351 0.0
H3507 H 0.47082 0.03106 0.2932 0.0
H3508 H 0.47338 0.04666 0.27076 0.0
H3509 H 0.49578 0.03692 0.28332 0.0
H3510 H 0.53509 0.99089 0.23267 0.0
H3511 H 0.53386 0.01578 0.20503 0.0
H3512 H 0.47815 0.04127 0.23037 0.0
C3513 C 0.48427 0.98688 0.29484 0.0
C3514 C 0.49596 0.96998 0.30158 0.0
C3515 C 0.51212 0.96282 0.28925 0.0
C3516 C 0.51708 0.97257 0.27089 0.0
C3517 C 0.50551 0.98932 0.26481 0.0
C3518 C 0.48913 0.99617 0.27611 0.0
C3519 C 0.47892 0.01417 0.26557 0.0
C3520 C 0.45685 1.0089 0.25968 0.0
C3521 C 0.47978 0.03334 0.27902 0.0
C3522 C 0.49233 0.01651 0.24679 0.0
C3523 C 0.50772 1.00215 0.24695 0.0
C3524 C 0.52273 1.00179 0.23203 0.0
C3525 C 0.52172 0.01601 0.21617 0.0
C3526 C 0.50544 0.03025 0.21472 0.0
C3527 C 0.49073 0.03062 0.23064 0.0
H3528 H 0.1188 0.46112 0.13482 0.0
H3529 H 0.1848 0.46206 0.13353 0.0
H3530 H 0.18584 0.44097 0.16469 0.0
H3531 H 0.11249 0.45965 0.19174 0.0
H3532 H 0.09143 0.44207 0.19014 0.0
H3533 H 0.09577 0.46018 0.16995 0.0
H3534 H 0.09692 0.43062 0.14382 0.0
H3535 H 0.09278 0.41244 0.16391 0.0
H3536 H 0.11472 0.41003 0.14757 0.0
H3537 H 0.17994 0.41675 0.19349 0.0
H3538 H 0.16759 0.39057 0.21738 0.0
H3539 H 0.10524 0.40424 0.19993 0.0
C3540 C 0.1334 0.45751 0.14164 0.0
C3541 C 0.15175 0.4636 0.13216 0.0
C3542 C 0.17061 0.45782 0.14085 0.0
C3543 C 0.17134 0.44585 0.15853 0.0
C3544 C 0.15303 0.43956 0.16726 0.0
C3545 C 0.13438 0.4452 0.15917 0.0
C3546 C 0.11708 0.43451 0.17022 0.0
C3547 C 0.10338 0.45003 0.18116 0.0
C3548 C 0.10465 0.42111 0.1555 0.0
C3549 C 0.12894 0.42164 0.18537 0.0
C3550 C 0.14963 0.42504 0.18361 0.0
C3551 C 0.16374 0.41421 0.19524 0.0
C3552 C 0.15654 0.39938 0.20889 0.0
C3553 C 0.1354 0.39529 0.21074 0.0
C3554 C 0.12149 0.40688 0.19893 0.0
H3555 H 0.67952 0.63949 0.15784 0.0
H3556 H 0.73611 0.63129 0.12467 0.0
H3557 H 0.717 0.63287 0.09209 0.0
H3558 H 0.64743 0.6098 0.12469 0.0
H3559 H 0.62595 0.62671 0.12736 0.0
H3560 H 0.64413 0.62432 0.14778 0.0
H3561 H 0.65011 0.66337 0.14721 0.0
H3562 H 0.63193 0.66589 0.12682 0.0
H3563 H 0.65746 0.67555 0.12372 0.0
H3564 H 0.69075 0.63513 0.06275 0.0
H3565 H 0.66074 0.64005 0.04016 0.0
H3566 H 0.62227 0.64749 0.09327 0.0
C3567 C 0.68797 0.63791 0.14377 0.0
C3568 C 0.70935 0.63515 0.14387 0.0
C3569 C 0.71974 0.6334 0.12502 0.0
C3570 C 0.70899 0.63423 0.10643 0.0
C3571 C 0.68786 0.63693 0.10692 0.0
C3572 C 0.67755 0.63887 0.12518 0.0
C3573 C 0.65497 0.64226 0.12179 0.0
C3574 C 0.64238 0.62472 0.13095 0.0
C3575 C 0.64823 0.663 0.13039 0.0
C3576 C 0.65409 0.64202 0.09876 0.0
C3577 C 0.67312 0.63874 0.09035 0.0
C3578 C 0.67582 0.63776 0.06925 0.0
C3579 C 0.6587 0.64047 0.05652 0.0
C3580 C 0.63919 0.64436 0.06491 0.0
C3581 C 0.637 0.64491 0.08633 0.0
H3582 H 0.88787 0.14806 0.17663 0.0
H3583 H 0.89235 0.11016 0.23039 0.0
H3584 H 0.88682 0.07931 0.20905 0.0
H3585 H 0.84756 0.11875 0.15225 0.0
H3586 H 0.85748 0.12301 0.12701 0.0
H3587 H 0.86165 0.14169 0.14669 0.0
H3588 H 0.90062 0.13956 0.14054 0.0
H3589 H 0.89658 0.12084 0.12089 0.0
H3590 H 0.91319 0.11518 0.14202 0.0
H3591 H 0.88348 0.05234 0.18055 0.0
H3592 H 0.87911 0.03243 0.14864 0.0
H3593 H 0.87431 0.08878 0.11451 0.0
C3594 C 0.88765 0.13325 0.18389 0.0
C3595 C 0.89071 0.1314 0.20511 0.0
C3596 C 0.88999 0.11183 0.21415 0.0
C3597 C 0.88694 0.09428 0.20213 0.0
C3598 C 0.88424 0.09663 0.18114 0.0
C3599 C 0.88422 0.11571 0.1722 0.0
C3600 C 0.88059 0.11433 0.14947 0.0
C3601 C 0.86063 0.12508 0.14351 0.0
C3602 C 0.89883 0.12299 0.13753 0.0
C3603 C 0.8789 0.09147 0.14684 0.0
C3604 C 0.88123 0.08141 0.16519 0.0
C3605 C 0.88134 0.06013 0.16618 0.0
C3606 C 0.8789 0.04893 0.148 0.0
C3607 C 0.87606 0.05903 0.12914 0.0
C3608 C 0.87602 0.08058 0.12872 0.0
H3609 H 0.3778 0.84516 0.0742 0.0
H3610 H 0.37672 0.90773 0.05291 0.0
H3611 H 0.34822 0.91512 0.07645 0.0
H3612 H 0.32308 0.8393 0.08157 0.0
H3613 H 0.32621 0.82403 0.10417 0.0
H3614 H 0.34536 0.8235 0.08451 0.0
H3615 H 0.37292 0.83349 0.11102 0.0
H3616 H 0.35386 0.83411 0.13072 0.0
H3617 H 0.36952 0.85621 0.12609 0.0
H3618 H 0.321 0.91602 0.10447 0.0
H3619 H 0.29751 0.91009 0.13342 0.0
H3620 H 0.31726 0.84703 0.13615 0.0
C3621 C 0.37156 0.86042 0.07438 0.0
C3622 C 0.37958 0.87584 0.06163 0.0
C3623 C 0.37073 0.89555 0.06227 0.0
C3624 C 0.35459 0.89993 0.07571 0.0
C3625 C 0.34735 0.88442 0.08834 0.0
C3626 C 0.35552 0.86502 0.08765 0.0
C3627 C 0.34564 0.85116 0.10321 0.0
C3628 C 0.3344 0.83345 0.09273 0.0
C3629 C 0.36142 0.84329 0.11867 0.0
C3630 C 0.33082 0.86583 0.11305 0.0
C3631 C 0.3319 0.88493 0.10426 0.0
C3632 C 0.31996 0.90106 0.11133 0.0
C3633 C 0.30667 0.89756 0.12781 0.0
C3634 C 0.30546 0.87809 0.13709 0.0
C3635 C 0.31767 0.86208 0.12941 0.0
H3636 H 0.1292 0.64714 0.33761 0.0
H3637 H 0.1282 0.60806 0.28455 0.0
H3638 H 0.13479 0.57792 0.30662 0.0
H3639 H 0.17054 0.62034 0.36355 0.0
H3640 H 0.15978 0.62465 0.38844 0.0
H3641 H 0.15528 0.64269 0.36826 0.0
H3642 H 0.1163 0.63884 0.3735 0.0
H3643 H 0.12067 0.62074 0.39362 0.0
H3644 H 0.1049 0.61386 0.37221 0.0
H3645 H 0.13829 0.55169 0.33581 0.0
H3646 H 0.1423 0.53269 0.36835 0.0
H3647 H 0.14391 0.58999 0.4012 0.0
C3648 C 0.1305 0.63222 0.33069 0.0
C3649 C 0.12807 0.62976 0.30948 0.0
C3650 C 0.13009 0.61013 0.30081 0.0
C3651 C 0.13374 0.59299 0.31323 0.0
C3652 C 0.13578 0.59589 0.33422 0.0
C3653 C 0.13461 0.61514 0.34277 0.0
C3654 C 0.13769 0.61441 0.3656 0.0
C3655 C 0.15697 0.62622 0.37182 0.0
C3656 C 0.11876 0.62243 0.37689 0.0
C3657 C 0.14035 0.59172 0.36872 0.0
C3658 C 0.13902 0.58117 0.35055 0.0
C3659 C 0.13973 0.55987 0.35005 0.0
C3660 C 0.14195 0.5492 0.36856 0.0
C3661 C 0.1438 0.55986 0.38722 0.0
C3662 C 0.14306 0.58139 0.38714 0.0
H3663 H 0.82844 0.60293 0.88688 0.0
H3664 H 0.79227 0.65827 0.88962 0.0
H3665 H 0.81165 0.66929 0.91993 0.0
H3666 H 0.8339 0.59598 0.94265 0.0
H3667 H 0.85971 0.58684 0.94041 0.0
H3668 H 0.84173 0.58234 0.92013 0.0
H3669 H 0.86628 0.59963 0.89451 0.0
H3670 H 0.88429 0.60413 0.91469 0.0
H3671 H 0.87521 0.62514 0.8995 0.0
H3672 H 0.8375 0.67622 0.94732 0.0
H3673 H 0.86735 0.6779 0.97044 0.0
H3674 H 0.88594 0.61769 0.95122 0.0
C3675 C 0.82431 0.61721 0.89404 0.0
C3676 C 0.80875 0.62971 0.88579 0.0
C3677 C 0.80404 0.64837 0.8956 0.0
C3678 C 0.81496 0.65476 0.91288 0.0
C3679 C 0.83044 0.64225 0.92037 0.0
C3680 C 0.835 0.62377 0.91138 0.0
C3681 C 0.85307 0.6137 0.92179 0.0
C3682 C 0.84671 0.59352 0.93184 0.0
C3683 C 0.87075 0.61047 0.90672 0.0
C3684 C 0.85833 0.62966 0.93767 0.0
C3685 C 0.845 0.64597 0.93664 0.0
C3686 C 0.84773 0.66335 0.94858 0.0
C3687 C 0.86463 0.66419 0.96166 0.0
C3688 C 0.87846 0.64773 0.96291 0.0
C3689 C 0.87511 0.63013 0.95099 0.0
H3690 H 0.86274 0.971 0.35669 0.0
H3691 H 0.89896 0.95193 0.40871 0.0
H3692 H 0.90711 0.91981 0.39122 0.0
H3693 H 0.84263 0.92086 0.34357 0.0
H3694 H 0.84444 0.92485 0.31647 0.0
H3695 H 0.84048 0.94623 0.33325 0.0
H3696 H 0.8725 0.96397 0.3185 0.0
H3697 H 0.87649 0.9427 0.30162 0.0
H3698 H 0.89655 0.95068 0.31862 0.0
H3699 H 0.91172 0.89 0.36856 0.0
H3700 H 0.91461 0.8649 0.34094 0.0
H3701 H 0.87664 0.90271 0.30222 0.0
C3702 C 0.8723 0.96002 0.36445 0.0
C3703 C 0.88001 0.96403 0.38428 0.0
C3704 C 0.89267 0.94929 0.3937 0.0
C3705 C 0.89739 0.93092 0.38386 0.0
C3706 C 0.88949 0.92742 0.36448 0.0
C3707 C 0.87734 0.94156 0.35473 0.0
C3708 C 0.8716 0.93415 0.33349 0.0
C3709 C 0.84841 0.93136 0.33159 0.0
C3710 C 0.87978 0.94875 0.31709 0.0
C3711 C 0.88255 0.91372 0.33282 0.0
C3712 C 0.89259 0.91019 0.351 0.0
C3713 C 0.90401 0.89264 0.35423 0.0
C3714 C 0.90564 0.87849 0.33836 0.0
C3715 C 0.89606 0.88186 0.31928 0.0
C3716 C 0.88402 0.89961 0.31664 0.0
H3717 H 0.11995 0.87845 0.92511 0.0
H3718 H 0.1585 0.87807 0.97868 0.0
H3719 H 0.18906 0.88183 0.95662 0.0
H3720 H 0.15235 0.84982 0.89265 0.0
H3721 H 0.14642 0.86446 0.87019 0.0
H3722 H 0.12795 0.86224 0.89034 0.0
H3723 H 0.12591 0.90161 0.893 0.0
H3724 H 0.14434 0.90395 0.8728 0.0
H3725 H 0.14892 0.9161 0.897 0.0
H3726 H 0.21569 0.88354 0.92762 0.0
H3727 H 0.23517 0.88559 0.89527 0.0
H3728 H 0.17832 0.88609 0.8615 0.0
C3729 C 0.13482 0.87911 0.93222 0.0
C3730 C 0.13689 0.87777 0.95361 0.0
C3731 C 0.1566 0.87913 0.96233 0.0
C3732 C 0.17401 0.88117 0.9499 0.0
C3733 C 0.17141 0.88214 0.92879 0.0
C3734 C 0.15222 0.8814 0.92011 0.0
C3735 C 0.15331 0.88295 0.89713 0.0
C3736 C 0.14449 0.86372 0.88699 0.0
C3737 C 0.14248 0.9023 0.88954 0.0
C3738 C 0.17613 0.88436 0.8941 0.0
C3739 C 0.18642 0.88379 0.91246 0.0
C3740 C 0.20771 0.88419 0.91321 0.0
C3741 C 0.21867 0.8853 0.89476 0.0
C3742 C 0.20831 0.88617 0.87582 0.0
C3743 C 0.18676 0.88571 0.87568 0.0
H3744 H 0.19473 0.1501 0.38386 0.0
H3745 H 0.21131 0.0886 0.40097 0.0
H3746 H 0.1875 0.09015 0.43017 0.0
H3747 H 0.18655 0.17028 0.43595 0.0
H3748 H 0.16476 0.18523 0.42846 0.0
H3749 H 0.18482 0.18019 0.4104 0.0
H3750 H 0.15844 0.16489 0.38537 0.0
H3751 H 0.13832 0.16978 0.40334 0.0
H3752 H 0.14221 0.14434 0.39372 0.0
H3753 H 0.16061 0.09766 0.4564 0.0
H3754 H 0.1314 0.1099 0.47674 0.0
H3755 H 0.13081 0.16604 0.44174 0.0
C3756 C 0.19363 0.13722 0.39411 0.0
C3757 C 0.20498 0.1193 0.39042 0.0
C3758 C 0.20277 0.10245 0.4037 0.0
C3759 C 0.18935 0.10324 0.42031 0.0
C3760 C 0.17804 0.12095 0.42337 0.0
C3761 C 0.17996 0.13763 0.41062 0.0
C3762 C 0.1648 0.15414 0.41635 0.0
C3763 C 0.1759 0.17361 0.4232 0.0
C3764 C 0.15007 0.15853 0.39864 0.0
C3765 C 0.15389 0.144 0.43408 0.0
C3766 C 0.16198 0.12499 0.43806 0.0
C3767 C 0.1542 0.11258 0.45347 0.0
C3768 C 0.13759 0.11966 0.46497 0.0
C3769 C 0.12871 0.13891 0.46088 0.0
C3770 C 0.13719 0.15125 0.4453 0.0
H3771 H 0.39936 0.60626 0.7931 0.0
H3772 H 0.37599 0.66295 0.81806 0.0
H3773 H 0.36969 0.64593 0.85077 0.0
H3774 H 0.36272 0.57366 0.81807 0.0
H3775 H 0.38052 0.55326 0.82272 0.0
H3776 H 0.38407 0.56992 0.8012 0.0
H3777 H 0.42049 0.57851 0.81378 0.0
H3778 H 0.41702 0.56191 0.83538 0.0
H3779 H 0.42406 0.58819 0.83924 0.0
H3780 H 0.36613 0.62351 0.88073 0.0
H3781 H 0.36344 0.59634 0.90611 0.0
H3782 H 0.38733 0.55275 0.8624 0.0
C3783 C 0.39299 0.61511 0.80547 0.0
C3784 C 0.38839 0.63611 0.80294 0.0
C3785 C 0.37986 0.647 0.81951 0.0
C3786 C 0.3762 0.63744 0.83823 0.0
C3787 C 0.38097 0.61686 0.84023 0.0
C3788 C 0.38903 0.60571 0.82433 0.0
C3789 C 0.3921 0.58356 0.83059 0.0
C3790 C 0.37907 0.56925 0.81736 0.0
C3791 C 0.41477 0.5777 0.82969 0.0
C3792 C 0.38444 0.58408 0.85246 0.0
C3793 C 0.37826 0.60355 0.85761 0.0
C3794 C 0.37071 0.60815 0.87683 0.0
C3795 C 0.36908 0.59246 0.89114 0.0
C3796 C 0.37475 0.57214 0.88628 0.0
C3797 C 0.38283 0.56803 0.86665 0.0
H3798 H 0.9033 0.36961 0.42978 0.0
H3799 H 0.87172 0.3854 0.48558 0.0
H3800 H 0.83984 0.3908 0.46586 0.0
H3801 H 0.87947 0.40781 0.39926 0.0
H3802 H 0.87881 0.39228 0.37662 0.0
H3803 H 0.89842 0.38831 0.39539 0.0
H3804 H 0.88799 0.35031 0.39824 0.0
H3805 H 0.86827 0.35418 0.37953 0.0
H3806 H 0.86195 0.34383 0.40416 0.0
H3807 H 0.81096 0.39345 0.4394 0.0
H3808 H 0.78926 0.39742 0.40859 0.0
H3809 H 0.84097 0.38294 0.37036 0.0
C3810 C 0.88961 0.374 0.4379 0.0
C3811 C 0.88987 0.37681 0.45926 0.0
C3812 C 0.8718 0.38308 0.46924 0.0
C3813 C 0.85364 0.38609 0.45816 0.0
C3814 C 0.85391 0.38312 0.43707 0.0
C3815 C 0.87158 0.37753 0.42705 0.0
C3816 C 0.86836 0.37666 0.40421 0.0
C3817 C 0.88208 0.39219 0.39323 0.0
C3818 C 0.87185 0.35495 0.39606 0.0
C3819 C 0.84612 0.38261 0.40284 0.0
C3820 C 0.83788 0.38591 0.42195 0.0
C3821 C 0.81735 0.39104 0.4244 0.0
C3822 C 0.80512 0.39317 0.4069 0.0
C3823 C 0.81354 0.39062 0.38722 0.0
C3824 C 0.83426 0.38516 0.38526 0.0
H3825 H 0.63299 0.93205 0.89858 0.0
H3826 H 0.64801 0.98307 0.85968 0.0
H3827 H 0.64431 0.96088 0.82917 0.0
H3828 H 0.65788 0.89307 0.87063 0.0
H3829 H 0.63827 0.87424 0.8746 0.0
H3830 H 0.64206 0.89419 0.89305 0.0
H3831 H 0.60418 0.90487 0.88956 0.0
H3832 H 0.60024 0.88484 0.8712 0.0
H3833 H 0.59406 0.91081 0.86474 0.0
H3834 H 0.64184 0.93163 0.80314 0.0
H3835 H 0.63628 0.89955 0.7838 0.0
H3836 H 0.61959 0.86887 0.83982 0.0
C3837 C 0.63535 0.93849 0.88359 0.0
C3838 C 0.6409 0.95917 0.88135 0.0
C3839 C 0.64369 0.96726 0.86157 0.0
C3840 C 0.64171 0.95474 0.84424 0.0
C3841 C 0.63647 0.93427 0.84696 0.0
C3842 C 0.6329 0.92635 0.86616 0.0
C3843 C 0.62682 0.9041 0.86503 0.0
C3844 C 0.64218 0.89061 0.8765 0.0
C3845 C 0.60503 0.90097 0.87311 0.0
C3846 C 0.6279 0.90054 0.84224 0.0
C3847 C 0.63375 0.91802 0.83204 0.0
C3848 C 0.63692 0.91798 0.81098 0.0
C3849 C 0.63382 0.8997 0.80011 0.0
C3850 C 0.62722 0.88184 0.81025 0.0
C3851 C 0.62424 0.8824 0.83158 0.0
H3852 H 0.19251 0.92735 0.12957 0.0
H3853 H 0.21506 0.8653 0.12661 0.0
H3854 H 0.19187 0.85835 0.09768 0.0
H3855 H 0.1407 0.91571 0.11983 0.0
H3856 H 0.13611 0.93827 0.10487 0.0
H3857 H 0.15537 0.9385 0.1244 0.0
H3858 H 0.18236 0.94985 0.09789 0.0
H3859 H 0.16316 0.94968 0.07826 0.0
H3860 H 0.18608 0.93486 0.07517 0.0
H3861 H 0.16424 0.85789 0.06991 0.0
H3862 H 0.13579 0.86426 0.04587 0.0
H3863 H 0.13186 0.92661 0.06762 0.0
C3864 C 0.19265 0.91229 0.12286 0.0
C3865 C 0.20568 0.89689 0.13045 0.0
C3866 C 0.20546 0.87745 0.12097 0.0
C3867 C 0.19223 0.87333 0.10457 0.0
C3868 C 0.17938 0.88883 0.0977 0.0
C3869 C 0.17962 0.90796 0.10652 0.0
C3870 C 0.16407 0.92191 0.09674 0.0
C3871 C 0.14812 0.92901 0.11239 0.0
C3872 C 0.17455 0.94015 0.0864 0.0
C3873 C 0.15479 0.90762 0.08119 0.0
C3874 C 0.16379 0.8886 0.08186 0.0
C3875 C 0.15721 0.87279 0.06919 0.0
C3876 C 0.14102 0.87654 0.05558 0.0
C3877 C 0.13157 0.89595 0.05474 0.0
C3878 C 0.13876 0.91162 0.0677 0.0
H3879 H 0.1368 0.55406 0.15198 0.0
H3880 H 0.16288 0.59703 0.1088 0.0
H3881 H 0.15922 0.62442 0.13361 0.0
H3882 H 0.09911 0.58968 0.17217 0.0
H3883 H 0.10108 0.58044 0.19795 0.0
H3884 H 0.10598 0.56351 0.17689 0.0
H3885 H 0.14156 0.55521 0.1918 0.0
H3886 H 0.1368 0.57215 0.21287 0.0
H3887 H 0.15908 0.5757 0.1972 0.0
H3888 H 0.154 0.6475 0.163 0.0
H3889 H 0.14544 0.66519 0.19496 0.0
H3890 H 0.1208 0.60881 0.2194 0.0
C3891 C 0.14165 0.56921 0.14767 0.0
C3892 C 0.15058 0.57296 0.12832 0.0
C3893 C 0.1566 0.59322 0.12351 0.0
C3894 C 0.15443 0.60913 0.13753 0.0
C3895 C 0.14593 0.60487 0.15642 0.0
C3896 C 0.13941 0.58551 0.16154 0.0
C3897 C 0.13046 0.58542 0.18293 0.0
C3898 C 0.10781 0.57941 0.18245 0.0
C3899 C 0.14271 0.57128 0.19703 0.0
C3900 C 0.13316 0.60768 0.18893 0.0
C3901 C 0.14221 0.61854 0.17337 0.0
C3902 C 0.14677 0.63921 0.17528 0.0
C3903 C 0.14189 0.64913 0.19355 0.0
C3904 C 0.13235 0.6385 0.20973 0.0
C3905 C 0.12793 0.61745 0.20729 0.0
H3906 H 0.89104 0.66108 0.08384 0.0
H3907 H 0.88946 0.60765 0.04491 0.0
H3908 H 0.85937 0.59491 0.06377 0.0
H3909 H 0.87789 0.6369 0.12972 0.0
H3910 H 0.86212 0.65734 0.1391 0.0
H3911 H 0.88271 0.66277 0.12182 0.0
H3912 H 0.85751 0.68047 0.09714 0.0
H3913 H 0.83682 0.67515 0.1144 0.0
H3914 H 0.83537 0.66679 0.08828 0.0
H3915 H 0.83174 0.58631 0.08943 0.0
H3916 H 0.80693 0.58404 0.11784 0.0
H3917 H 0.82492 0.64408 0.13847 0.0
C3918 C 0.88424 0.6468 0.07911 0.0
C3919 C 0.89269 0.63531 0.06291 0.0
C3920 C 0.88324 0.61675 0.05719 0.0
C3921 C 0.86617 0.60938 0.06786 0.0
C3922 C 0.85846 0.62091 0.08399 0.0
C3923 C 0.867 0.6394 0.08936 0.0
C3924 C 0.85599 0.64875 0.10742 0.0
C3925 C 0.87055 0.6516 0.12558 0.0
C3926 C 0.84582 0.66899 0.10144 0.0
C3927 C 0.84021 0.63242 0.11172 0.0
C3928 C 0.84194 0.61643 0.09809 0.0
C3929 C 0.83001 0.59892 0.09993 0.0
C3930 C 0.81603 0.59771 0.1161 0.0
C3931 C 0.81384 0.614 0.13007 0.0
C3932 C 0.82597 0.63164 0.12767 0.0
H3933 H 0.8958 0.96101 0.14778 0.0
H3934 H 0.83429 0.9429 0.13154 0.0
H3935 H 0.83381 0.91859 0.16008 0.0
H3936 H 0.91342 0.91178 0.16138 0.0
H3937 H 0.92873 0.92002 0.18265 0.0
H3938 H 0.92401 0.93715 0.16175 0.0
H3939 H 0.90932 0.96389 0.18674 0.0
H3940 H 0.9141 0.94687 0.20776 0.0
H3941 H 0.88882 0.9568 0.2036 0.0
H3942 H 0.84056 0.89446 0.18856 0.0
H3943 H 0.85368 0.87285 0.21629 0.0
H3944 H 0.91064 0.90657 0.21562 0.0
C3945 C 0.88211 0.95222 0.1505 0.0
C3946 C 0.86508 0.95386 0.13726 0.0
C3947 C 0.8476 0.94178 0.14121 0.0
C3948 C 0.84714 0.92797 0.15749 0.0
C3949 C 0.86425 0.92636 0.16993 0.0
C3950 C 0.88138 0.93824 0.16681 0.0
C3951 C 0.89792 0.93285 0.18216 0.0
C3952 C 0.91716 0.92498 0.17133 0.0
C3953 C 0.90283 0.9512 0.19588 0.0
C3954 C 0.88748 0.91594 0.19414 0.0
C3955 C 0.86804 0.91252 0.18677 0.0
C3956 C 0.85566 0.89715 0.19462 0.0
C3957 C 0.86329 0.88489 0.21038 0.0
C3958 C 0.88314 0.88804 0.21833 0.0
C3959 C 0.8953 0.90393 0.21012 0.0
H3960 H 0.45666 0.12354 0.12344 0.0
H3961 H 0.48328 0.15062 0.17767 0.0
H3962 H 0.45724 0.17752 0.17709 0.0
H3963 H 0.44403 0.17118 0.09873 0.0
H3964 H 0.42031 0.16207 0.08824 0.0
H3965 H 0.4409 0.14451 0.09287 0.0
H3966 H 0.41713 0.12237 0.11528 0.0
H3967 H 0.39646 0.13985 0.11068 0.0
H3968 H 0.40394 0.13391 0.13642 0.0
H3969 H 0.42841 0.2016 0.17104 0.0
H3970 H 0.3985 0.22111 0.16005 0.0
H3971 H 0.3905 0.17964 0.10897 0.0
C3972 C 0.45696 0.13508 0.13523 0.0
C3973 C 0.47213 0.13484 0.15062 0.0
C3974 C 0.47194 0.15036 0.16568 0.0
C3975 C 0.45717 0.16578 0.16551 0.0
C3976 C 0.44256 0.16568 0.15014 0.0
C3977 C 0.44228 0.15078 0.13525 0.0
C3978 C 0.42487 0.15446 0.1204 0.0
C3979 C 0.43302 0.15828 0.09878 0.0
C3980 C 0.4097 0.13658 0.12072 0.0
C3981 C 0.41545 0.17367 0.12935 0.0
C3982 C 0.42594 0.17982 0.1465 0.0
C3983 C 0.42011 0.19698 0.15756 0.0
C3984 C 0.40304 0.20811 0.15104 0.0
C3985 C 0.39183 0.2022 0.13349 0.0
C3986 C 0.39839 0.18469 0.12251 0.0
H3987 H 0.39941 0.80568 0.37184 0.0
H3988 H 0.37235 0.83224 0.42603 0.0
H3989 H 0.40036 0.85702 0.42797 0.0
H3990 H 0.45273 0.81166 0.38869 0.0
H3991 H 0.46193 0.81774 0.36355 0.0
H3992 H 0.44002 0.80143 0.36658 0.0
H3993 H 0.41892 0.82546 0.34349 0.0
H3994 H 0.44072 0.84188 0.34047 0.0
H3995 H 0.41703 0.85211 0.3499 0.0
H3996 H 0.4299 0.88045 0.42318 0.0
H3997 H 0.46047 0.89979 0.41301 0.0
H3998 H 0.47015 0.85784 0.36278 0.0
C3999 C 0.39954 0.81649 0.38428 0.0
C4000 C 0.38337 0.81704 0.39864 0.0
C4001 C 0.38418 0.83165 0.41457 0.0
C4002 C 0.40016 0.84578 0.41591 0.0
C4003 C 0.41553 0.84515 0.40133 0.0
C4004 C 0.41556 0.83078 0.38593 0.0
C4005 C 0.43397 0.83379 0.37212 0.0
C4006 C 0.44799 0.81504 0.37278 0.0
C4007 C 0.42725 0.8386 0.3502 0.0
C4008 C 0.44405 0.85218 0.38207 0.0
C4009 C 0.43307 0.85847 0.39887 0.0
C4010 C 0.43876 0.87555 0.41017 0.0
C4011 C 0.45615 0.8865 0.40422 0.0
C4012 C 0.46788 0.88034 0.38717 0.0
C4013 C 0.4617 0.86284 0.37603 0.0
H4014 H 0.13766 0.31687 0.84696 0.0
H4015 H 0.13578 0.29622 0.90971 0.0
H4016 H 0.1081 0.32095 0.91681 0.0
H4017 H 0.13036 0.36932 0.85726 0.0
H4018 H 0.11493 0.37381 0.83498 0.0
H4019 H 0.13369 0.35381 0.83484 0.0
H4020 H 0.1058 0.32756 0.82507 0.0
H4021 H 0.08694 0.3475 0.82516 0.0
H4022 H 0.08338 0.32518 0.84076 0.0
H4023 H 0.08082 0.34932 0.91693 0.0
H4024 H 0.05785 0.37854 0.9103 0.0
H4025 H 0.07811 0.37987 0.84745 0.0
C4026 C 0.13137 0.31735 0.86219 0.0
C4027 C 0.13893 0.30448 0.87776 0.0
C4028 C 0.13026 0.30584 0.89749 0.0
C4029 C 0.1145 0.31985 0.90166 0.0
C4030 C 0.10753 0.33241 0.88594 0.0
C4031 C 0.11575 0.33121 0.8666 0.0
C4032 C 0.10617 0.34671 0.85243 0.0
C4033 C 0.12224 0.3618 0.84441 0.0
C4034 C 0.0949 0.3361 0.83482 0.0
C4035 C 0.09138 0.35704 0.8668 0.0
C4036 C 0.09221 0.34856 0.88605 0.0
C4037 C 0.08004 0.35595 0.90186 0.0
C4038 C 0.06692 0.37252 0.89793 0.0
C4039 C 0.06612 0.38165 0.87836 0.0
C4040 C 0.07844 0.3735 0.86265 0.0
H4041 H 0.63453 0.69454 0.3716 0.0
H4042 H 0.61413 0.7131 0.43151 0.0
H4043 H 0.58469 0.68968 0.42886 0.0
H4044 H 0.58352 0.68671 0.34864 0.0
H4045 H 0.59141 0.6644 0.3347 0.0
H4046 H 0.60958 0.68426 0.34028 0.0
H4047 H 0.63317 0.65786 0.35768 0.0
H4048 H 0.6151 0.63795 0.3522 0.0
H4049 H 0.62328 0.64231 0.37805 0.0
H4050 H 0.55861 0.66299 0.42064 0.0
H4051 H 0.5386 0.63367 0.40824 0.0
H4052 H 0.57641 0.63105 0.35401 0.0
C4053 C 0.62355 0.69395 0.38389 0.0
C4054 C 0.6264 0.70575 0.40169 0.0
C4055 C 0.61211 0.70419 0.41776 0.0
C4056 C 0.59534 0.691 0.41634 0.0
C4057 C 0.59309 0.67929 0.39878 0.0
C4058 C 0.60683 0.68054 0.38284 0.0
C4059 C 0.60172 0.66505 0.36641 0.0
C4060 C 0.59623 0.67575 0.34632 0.0
C4061 C 0.61937 0.6499 0.36342 0.0
C4062 C 0.5832 0.65473 0.37575 0.0
C4063 C 0.57834 0.66339 0.39429 0.0
C4064 C 0.56221 0.65616 0.40608 0.0
C4065 C 0.5509 0.63945 0.39889 0.0
C4066 C 0.55584 0.62995 0.38013 0.0
C4067 C 0.57211 0.63796 0.36836 0.0
H4068 H 0.36578 0.68023 0.39465 0.0
H4069 H 0.39975 0.73547 0.38176 0.0
H4070 H 0.43125 0.71484 0.37756 0.0
H4071 H 0.40496 0.65334 0.42231 0.0
H4072 H 0.39821 0.62902 0.41145 0.0
H4073 H 0.37904 0.64841 0.4146 0.0
H4074 H 0.37031 0.6461 0.37616 0.0
H4075 H 0.38947 0.62676 0.37287 0.0
H4076 H 0.39025 0.64956 0.35759 0.0
H4077 H 0.45935 0.68711 0.375 0.0
H4078 H 0.48007 0.65555 0.37187 0.0
H4079 H 0.42643 0.61923 0.38458 0.0
C4080 C 0.37986 0.68813 0.39121 0.0
C4081 C 0.38032 0.70956 0.3888 0.0
C4082 C 0.39904 0.71911 0.38381 0.0
C4083 C 0.417 0.70749 0.38143 0.0
C4084 C 0.41592 0.68633 0.38384 0.0
C4085 C 0.39771 0.67681 0.38847 0.0
C4086 C 0.40008 0.65387 0.38925 0.0
C4087 C 0.39529 0.64568 0.41068 0.0
C4088 C 0.38674 0.64347 0.373 0.0
C4089 C 0.4225 0.6518 0.38431 0.0
C4090 C 0.43154 0.67064 0.38148 0.0
C4091 C 0.45232 0.67233 0.37711 0.0
C4092 C 0.464 0.65437 0.37543 0.0
C4093 C 0.45482 0.63495 0.37777 0.0
C4094 C 0.43381 0.63382 0.38237 0.0
H4095 H 0.13181 0.83255 0.59167 0.0
H4096 H 0.12523 0.80539 0.65155 0.0
H4097 H 0.09627 0.8284 0.65867 0.0
H4098 H 0.12208 0.88354 0.60684 0.0
H4099 H 0.10837 0.89012 0.58398 0.0
H4100 H 0.12768 0.87066 0.58324 0.0
H4101 H 0.10148 0.84505 0.56842 0.0
H4102 H 0.08209 0.86448 0.56906 0.0
H4103 H 0.07793 0.84051 0.58182 0.0
H4104 H 0.06877 0.85613 0.65979 0.0
H4105 H 0.04517 0.88509 0.65439 0.0
H4106 H 0.07032 0.89395 0.59391 0.0
C4107 C 0.12431 0.83136 0.60629 0.0
C4108 C 0.13091 0.81703 0.62101 0.0
C4109 C 0.12039 0.81595 0.63987 0.0
C4110 C 0.10396 0.82909 0.64411 0.0
C4111 C 0.09809 0.84322 0.62934 0.0
C4112 C 0.10792 0.84432 0.61076 0.0
C4113 C 0.09906 0.86109 0.5976 0.0
C4114 C 0.11526 0.87731 0.59263 0.0
C4115 C 0.08957 0.85225 0.57807 0.0
C4116 C 0.08284 0.86947 0.61172 0.0
C4117 C 0.08243 0.85897 0.62996 0.0
C4118 C 0.06893 0.86435 0.6455 0.0
C4119 C 0.05557 0.88086 0.64231 0.0
C4120 C 0.05578 0.89184 0.62371 0.0
C4121 C 0.06962 0.88589 0.60828 0.0
H4122 H 0.09221 0.62371 0.63089 0.0
H4123 H 0.04082 0.66163 0.64729 0.0
H4124 H 0.06262 0.69251 0.64388 0.0
H4125 H 0.13091 0.65172 0.6564 0.0
H4126 H 0.14969 0.64811 0.6367 0.0
H4127 H 0.12992 0.62943 0.64036 0.0
H4128 H 0.11906 0.6332 0.60258 0.0
H4129 H 0.1389 0.6518 0.59878 0.0
H4130 H 0.11284 0.65809 0.59275 0.0
H4131 H 0.0918 0.71922 0.64087 0.0
H4132 H 0.12362 0.73888 0.63468 0.0
H4133 H 0.15454 0.68294 0.61804 0.0
C4134 C 0.08555 0.63854 0.63372 0.0
C4135 C 0.06488 0.64032 0.63953 0.0
C4136 C 0.05661 0.65998 0.64278 0.0
C4137 C 0.06893 0.67755 0.64098 0.0
C4138 C 0.08941 0.6752 0.63554 0.0
C4139 C 0.09749 0.65614 0.6316 0.0
C4140 C 0.11969 0.65753 0.62546 0.0
C4141 C 0.13335 0.64602 0.64064 0.0
C4142 C 0.1228 0.6497 0.60359 0.0
C4143 C 0.12306 0.68033 0.62678 0.0
C4144 C 0.10555 0.69036 0.63283 0.0
C4145 C 0.10547 0.71147 0.63589 0.0
C4146 C 0.12363 0.72253 0.63243 0.0
C4147 C 0.14152 0.71252 0.62566 0.0
C4148 C 0.14106 0.69114 0.6229 0.0
H4149 H 0.87887 0.81434 0.65258 0.0
H4150 H 0.88797 0.80218 0.58834 0.0
H4151 H 0.91812 0.82474 0.58825 0.0
H4152 H 0.88953 0.86639 0.64949 0.0
H4153 H 0.90231 0.86843 0.67371 0.0
H4154 H 0.88345 0.8489 0.66977 0.0
H4155 H 0.90965 0.82121 0.67995 0.0
H4156 H 0.92859 0.8407 0.68409 0.0
H4157 H 0.93378 0.81994 0.66687 0.0
H4158 H 0.94528 0.85088 0.59417 0.0
H4159 H 0.96699 0.87939 0.60543 0.0
H4160 H 0.94006 0.87586 0.66572 0.0
C4161 C 0.88767 0.81594 0.63871 0.0
C4162 C 0.88137 0.80622 0.62054 0.0
C4163 C 0.89272 0.8093 0.60246 0.0
C4164 C 0.90987 0.82208 0.60227 0.0
C4165 C 0.91542 0.83189 0.62026 0.0
C4166 C 0.9047 0.82901 0.63818 0.0
C4167 C 0.91274 0.84294 0.65483 0.0
C4168 C 0.89601 0.85753 0.66239 0.0
C4169 C 0.92173 0.83045 0.67248 0.0
C4170 C 0.92932 0.85435 0.64336 0.0
C4171 C 0.93079 0.84751 0.62353 0.0
C4172 C 0.94445 0.85618 0.60975 0.0
C4173 C 0.95683 0.87237 0.61634 0.0
C4174 C 0.95542 0.87995 0.63652 0.0
C4175 C 0.94154 0.87056 0.65019 0.0
H4176 H 0.59925 0.94666 0.62778 0.0
H4177 H 0.65769 0.97593 0.6381 0.0
H4178 H 0.66388 0.95292 0.66736 0.0
H4179 H 0.58612 0.93872 0.68059 0.0
H4180 H 0.57444 0.91429 0.67593 0.0
H4181 H 0.57451 0.93342 0.65626 0.0
H4182 H 0.59199 0.90807 0.63154 0.0
H4183 H 0.59193 0.88885 0.65111 0.0
H4184 H 0.61552 0.89601 0.639 0.0
H4185 H 0.66362 0.92599 0.69562 0.0
H4186 H 0.65762 0.89701 0.71897 0.0
H4187 H 0.59937 0.88573 0.68979 0.0
C4188 C 0.61334 0.94835 0.63621 0.0
C4189 C 0.62796 0.9632 0.63062 0.0
C4190 C 0.64624 0.96471 0.64205 0.0
C4191 C 0.64987 0.95172 0.65874 0.0
C4192 C 0.6351 0.93725 0.66382 0.0
C4193 C 0.61723 0.9355 0.65281 0.0
C4194 C 0.60398 0.91841 0.66096 0.0
C4195 C 0.58355 0.92671 0.66891 0.0
C4196 C 0.60067 0.90186 0.64468 0.0
C4197 C 0.6172 0.9107 0.67823 0.0
C4198 C 0.63503 0.92181 0.67978 0.0
C4199 C 0.64965 0.91727 0.69455 0.0
C4200 C 0.64605 0.90084 0.70787 0.0
C4201 C 0.628 0.88901 0.7063 0.0
C4202 C 0.61339 0.89428 0.69134 0.0
H4203 H 0.20491 0.15149 0.6404 0.0
H4204 H 0.21896 0.08808 0.6286 0.0
H4205 H 0.19698 0.08878 0.59802 0.0
H4206 H 0.15317 0.14731 0.62877 0.0
H4207 H 0.15058 0.17208 0.61721 0.0
H4208 H 0.16995 0.1678 0.63614 0.0
H4209 H 0.1977 0.18014 0.61095 0.0
H4210 H 0.17837 0.18462 0.59195 0.0
H4211 H 0.19973 0.16833 0.58624 0.0
H4212 H 0.17121 0.09535 0.57054 0.0
H4213 H 0.14262 0.10684 0.54903 0.0
H4214 H 0.14384 0.16573 0.57911 0.0
C4215 C 0.20388 0.13802 0.63091 0.0
C4216 C 0.21401 0.11984 0.63651 0.0
C4217 C 0.21159 0.10222 0.62432 0.0
C4218 C 0.19913 0.10249 0.60694 0.0
C4219 C 0.18893 0.12046 0.60204 0.0
C4220 C 0.19112 0.13792 0.61367 0.0
C4221 C 0.1768 0.15453 0.60625 0.0
C4222 C 0.16174 0.16079 0.6231 0.0
C4223 C 0.18887 0.173 0.59838 0.0
C4224 C 0.16599 0.14356 0.58895 0.0
C4225 C 0.17346 0.12403 0.58658 0.0
C4226 C 0.16541 0.11071 0.57209 0.0
C4227 C 0.14919 0.11743 0.55983 0.0
C4228 C 0.14094 0.13725 0.5622 0.0
C4229 C 0.14971 0.15048 0.57689 0.0
H4230 H 0.42256 0.62797 0.69158 0.0
H4231 H 0.35901 0.63056 0.7095 0.0
H4232 H 0.35141 0.60172 0.68629 0.0
H4233 H 0.41405 0.61805 0.63922 0.0
H4234 H 0.43567 0.6013 0.63671 0.0
H4235 H 0.43594 0.62125 0.65552 0.0
H4236 H 0.44309 0.59461 0.68379 0.0
H4237 H 0.44284 0.57456 0.66505 0.0
H4238 H 0.42612 0.5732 0.68679 0.0
H4239 H 0.35088 0.57309 0.65913 0.0
H4240 H 0.35766 0.5479 0.63171 0.0
H4241 H 0.42155 0.56506 0.63239 0.0
C4242 C 0.40701 0.62257 0.69065 0.0
C4243 C 0.39139 0.63166 0.70237 0.0
C4244 C 0.3713 0.62377 0.70086 0.0
C4245 C 0.36683 0.60744 0.68762 0.0
C4246 C 0.38262 0.59903 0.67609 0.0
C4247 C 0.40233 0.60635 0.67763 0.0
C4248 C 0.41661 0.59515 0.66344 0.0
C4249 C 0.42612 0.60981 0.6478 0.0
C4250 C 0.43314 0.5837 0.67549 0.0
C4251 C 0.40189 0.58051 0.65341 0.0
C4252 C 0.38234 0.58282 0.66086 0.0
C4253 C 0.36619 0.57112 0.65332 0.0
C4254 C 0.37017 0.55683 0.63775 0.0
C4255 C 0.39013 0.55441 0.62987 0.0
C4256 C 0.4061 0.56639 0.63803 0.0
H4257 H 0.8964 0.39576 0.58787 0.0
H4258 H 0.86103 0.36627 0.54069 0.0
H4259 H 0.83 0.36873 0.56239 0.0
H4260 H 0.87271 0.37318 0.63058 0.0
H4261 H 0.87337 0.39591 0.646 0.0
H4262 H 0.89229 0.39204 0.62653 0.0
H4263 H 0.88278 0.42667 0.61009 0.0
H4264 H 0.86392 0.43073 0.62961 0.0
H4265 H 0.85665 0.43159 0.60314 0.0
H4266 H 0.8035 0.37201 0.59139 0.0
H4267 H 0.78344 0.37949 0.62263 0.0
H4268 H 0.83626 0.4092 0.64903 0.0
C4269 C 0.88205 0.38995 0.58212 0.0
C4270 C 0.88099 0.38069 0.56276 0.0
C4271 C 0.86201 0.37345 0.55551 0.0
C4272 C 0.84441 0.37472 0.56777 0.0
C4273 C 0.84604 0.38367 0.58703 0.0
C4274 C 0.86436 0.39152 0.59393 0.0
C4275 C 0.8622 0.40079 0.61492 0.0
C4276 C 0.87596 0.38982 0.63042 0.0
C4277 C 0.86665 0.42381 0.6144 0.0
C4278 C 0.83988 0.39661 0.61903 0.0
C4279 C 0.83077 0.38654 0.60292 0.0
C4280 C 0.81045 0.38017 0.60392 0.0
C4281 C 0.79919 0.38438 0.62173 0.0
C4282 C 0.80819 0.39516 0.63812 0.0
C4283 C 0.8288 0.40128 0.63661 0.0
H4284 H 0.65876 0.0564 0.86149 0.0
H4285 H 0.60984 0.06638 0.90492 0.0
H4286 H 0.59886 0.09661 0.88555 0.0
H4287 H 0.67109 0.10941 0.85465 0.0
H4288 H 0.67671 0.10702 0.82788 0.0
H4289 H 0.68033 0.08556 0.8446 0.0
H4290 H 0.6567 0.06371 0.82173 0.0
H4291 H 0.65292 0.08514 0.80499 0.0
H4292 H 0.63126 0.07252 0.81624 0.0
H4293 H 0.59293 0.12553 0.86171 0.0
H4294 H 0.59378 0.15299 0.83628 0.0
H4295 H 0.64738 0.12585 0.8086 0.0
C4296 C 0.64567 0.06488 0.86686 0.0
C4297 C 0.6351 0.05887 0.88472 0.0
C4298 C 0.6182 0.07059 0.89133 0.0
C4299 C 0.61178 0.08777 0.88037 0.0
C4300 C 0.62247 0.09323 0.86285 0.0
C4301 C 0.63915 0.08228 0.85619 0.0
C4302 C 0.64838 0.09204 0.83729 0.0
C4303 C 0.67043 0.09892 0.84136 0.0
C4304 C 0.64725 0.07748 0.81898 0.0
C4305 C 0.63429 0.1102 0.83445 0.0
C4306 C 0.61937 0.11041 0.84931 0.0
C4307 C 0.60462 0.12561 0.85009 0.0
C4308 C 0.60532 0.14125 0.83559 0.0
C4309 C 0.62078 0.14185 0.82049 0.0
C4310 C 0.63528 0.12584 0.81979 0.0
H4311 H 0.38329 0.15499 0.43197 0.0
H4312 H 0.36255 0.11977 0.48412 0.0
H4313 H 0.33142 0.11069 0.4654 0.0
H4314 H 0.33351 0.17502 0.41834 0.0
H4315 H 0.33838 0.17371 0.39135 0.0
H4316 H 0.35917 0.17761 0.40886 0.0
H4317 H 0.37764 0.14606 0.39401 0.0
H4318 H 0.35689 0.14203 0.3765 0.0
H4319 H 0.36465 0.12184 0.39342 0.0
H4320 H 0.30295 0.10424 0.44059 0.0
H4321 H 0.27876 0.10186 0.41195 0.0
H4322 H 0.31689 0.14256 0.37638 0.0
C4323 C 0.37225 0.14555 0.43971 0.0
C4324 C 0.3758 0.13808 0.45972 0.0
C4325 C 0.36067 0.12557 0.46884 0.0
C4326 C 0.34275 0.12037 0.45832 0.0
C4327 C 0.33992 0.1279 0.43868 0.0
C4328 C 0.35417 0.14034 0.4295 0.0
C4329 C 0.3474 0.14637 0.40819 0.0
C4330 C 0.34444 0.16956 0.4066 0.0
C4331 C 0.36255 0.13861 0.39208 0.0
C4332 C 0.32718 0.13521 0.40677 0.0
C4333 C 0.32321 0.12461 0.42453 0.0
C4334 C 0.30584 0.11259 0.42668 0.0
C4335 C 0.2922 0.1113 0.41026 0.0
C4336 C 0.29584 0.12206 0.39189 0.0
C4337 C 0.31355 0.1343 0.39026 0.0
H4338 H 0.42096 0.38548 0.8267 0.0
H4339 H 0.35997 0.39206 0.80222 0.0
H4340 H 0.35434 0.42199 0.82464 0.0
H4341 H 0.409 0.39744 0.87786 0.0
H4342 H 0.43244 0.41102 0.88253 0.0
H4343 H 0.43172 0.39097 0.86383 0.0
H4344 H 0.44531 0.41591 0.83638 0.0
H4345 H 0.44615 0.43603 0.85503 0.0
H4346 H 0.43198 0.43948 0.83176 0.0
H4347 H 0.35504 0.45033 0.85217 0.0
H4348 H 0.36272 0.47479 0.88003 0.0
H4349 H 0.42346 0.44918 0.88524 0.0
C4350 C 0.40641 0.39322 0.82599 0.0
C4351 C 0.39088 0.38634 0.81272 0.0
C4352 C 0.37217 0.39713 0.8121 0.0
C4353 C 0.36881 0.41408 0.82489 0.0
C4354 C 0.38438 0.42021 0.83807 0.0
C4355 C 0.4029 0.41015 0.83848 0.0
C4356 C 0.41719 0.41942 0.85404 0.0
C4357 C 0.42291 0.40378 0.87054 0.0
C4358 C 0.43628 0.42823 0.84368 0.0
C4359 C 0.40382 0.43615 0.86258 0.0
C4360 C 0.38491 0.43645 0.8533 0.0
C4361 C 0.36989 0.45029 0.85936 0.0
C4362 C 0.37436 0.46412 0.87523 0.0
C4363 C 0.39374 0.46408 0.88479 0.0
C4364 C 0.40855 0.44986 0.8782 0.0
H4365 H 0.63606 0.36087 0.43131 0.0
H4366 H 0.6577 0.39486 0.4839 0.0
H4367 H 0.68822 0.40499 0.4646 0.0
H4368 H 0.6856 0.34193 0.41571 0.0
H4369 H 0.67995 0.34397 0.38891 0.0
H4370 H 0.65971 0.33932 0.40686 0.0
H4371 H 0.64049 0.37109 0.39348 0.0
H4372 H 0.66069 0.37587 0.37554 0.0
H4373 H 0.6532 0.39546 0.39327 0.0
H4374 H 0.71604 0.4124 0.43921 0.0
H4375 H 0.73952 0.41565 0.41006 0.0
H4376 H 0.70074 0.37563 0.37437 0.0
C4377 C 0.64722 0.37023 0.43901 0.0
C4378 C 0.64415 0.37706 0.45932 0.0
C4379 C 0.6593 0.38957 0.46839 0.0
C4380 C 0.67684 0.39535 0.45755 0.0
C4381 C 0.67923 0.38842 0.43762 0.0
C4382 C 0.6649 0.37603 0.42847 0.0
C4383 C 0.67112 0.37071 0.40681 0.0
C4384 C 0.67429 0.34761 0.40444 0.0
C4385 C 0.65544 0.37876 0.39137 0.0
C4386 C 0.69117 0.38214 0.40518 0.0
C4387 C 0.6955 0.39231 0.42311 0.0
C4388 C 0.71285 0.4044 0.42515 0.0
C4389 C 0.72607 0.4062 0.40845 0.0
C4390 C 0.72205 0.39586 0.3899 0.0
C4391 C 0.70437 0.38357 0.38837 0.0
H4392 H 0.69068 0.60082 0.88371 0.0
H4393 H 0.72004 0.65879 0.89588 0.0
H4394 H 0.69664 0.66442 0.92492 0.0
H4395 H 0.63997 0.61679 0.89427 0.0
H4396 H 0.63253 0.59305 0.90591 0.0
H4397 H 0.65215 0.59335 0.88675 0.0
H4398 H 0.67703 0.57555 0.91174 0.0
H4399 H 0.65744 0.57515 0.93096 0.0
H4400 H 0.68176 0.58676 0.93636 0.0
H4401 H 0.66828 0.66431 0.95189 0.0
H4402 H 0.63901 0.65772 0.97483 0.0
H4403 H 0.62884 0.59968 0.94478 0.0
C4404 C 0.69224 0.61471 0.89246 0.0
C4405 C 0.70726 0.62936 0.88742 0.0
C4406 C 0.70887 0.64721 0.89952 0.0
C4407 C 0.69553 0.6506 0.91599 0.0
C4408 C 0.68072 0.63593 0.92033 0.0
C4409 C 0.67915 0.61827 0.90896 0.0
C4410 C 0.66189 0.60492 0.91654 0.0
C4411 C 0.64568 0.60186 0.89988 0.0
C4412 C 0.67002 0.58438 0.92437 0.0
C4413 C 0.6538 0.61789 0.93384 0.0
C4414 C 0.66479 0.63575 0.93583 0.0
C4415 C 0.65969 0.65029 0.95052 0.0
C4416 C 0.643 0.64644 0.96347 0.0
C4417 C 0.63161 0.62814 0.96174 0.0
C4418 C 0.63725 0.61376 0.94669 0.0
H4419 H 0.8979 0.06346 0.37262 0.0
H4420 H 0.83196 0.06909 0.37437 0.0
H4421 H 0.83331 0.09487 0.34742 0.0
H4422 H 0.90916 0.11571 0.36358 0.0
H4423 H 0.9296 0.11128 0.34579 0.0
H4424 H 0.9239 0.09257 0.36504 0.0
H4425 H 0.91939 0.06495 0.33724 0.0
H4426 H 0.92527 0.08354 0.3179 0.0
H4427 H 0.9018 0.06929 0.31659 0.0
H4428 H 0.84136 0.12204 0.32271 0.0
H4429 H 0.85556 0.14642 0.29799 0.0
H4430 H 0.91621 0.12234 0.30899 0.0
C4431 C 0.88375 0.06988 0.36708 0.0
C4432 C 0.86483 0.06443 0.37606 0.0
C4433 C 0.84669 0.0733 0.3683 0.0
C4434 C 0.84726 0.08794 0.35283 0.0
C4435 C 0.86607 0.09346 0.34482 0.0
C4436 C 0.88399 0.08449 0.3513 0.0
C4437 C 0.90208 0.09336 0.33976 0.0
C4438 C 0.91707 0.10385 0.35442 0.0
C4439 C 0.91277 0.0768 0.32712 0.0
C4440 C 0.89144 0.10883 0.3261 0.0
C4441 C 0.87067 0.10867 0.32951 0.0
C4442 C 0.85757 0.12214 0.31966 0.0
C4443 C 0.86581 0.13604 0.30572 0.0
C4444 C 0.88697 0.13625 0.30144 0.0
C4445 C 0.89994 0.12239 0.31178 0.0
H4446 H 0.3299 0.92477 0.88543 0.0
H4447 H 0.30528 0.86371 0.89189 0.0
H4448 H 0.3291 0.85724 0.92029 0.0
H4449 H 0.38181 0.91162 0.89447 0.0
H4450 H 0.38757 0.93463 0.90834 0.0
H4451 H 0.36789 0.93472 0.88921 0.0
H4452 H 0.34195 0.9482 0.91574 0.0
H4453 H 0.36157 0.9482 0.93495 0.0
H4454 H 0.3382 0.93438 0.93917 0.0
H4455 H 0.35715 0.85698 0.94736 0.0
H4456 H 0.38588 0.86345 0.97099 0.0
H4457 H 0.39201 0.92457 0.94647 0.0
C4458 C 0.32946 0.91002 0.89277 0.0
C4459 C 0.31557 0.89479 0.8863 0.0
C4460 C 0.31548 0.87578 0.89661 0.0
C4461 C 0.32909 0.8719 0.91273 0.0
C4462 C 0.34273 0.88718 0.91851 0.0
C4463 C 0.34291 0.9059 0.90888 0.0
C4464 C 0.35921 0.91969 0.91774 0.0
C4465 C 0.37506 0.9255 0.90147 0.0
C4466 C 0.34966 0.93874 0.92748 0.0
C4467 C 0.36834 0.90576 0.93374 0.0
C4468 C 0.35865 0.88706 0.934 0.0
C4469 C 0.36475 0.87163 0.94732 0.0
C4470 C 0.38113 0.87542 0.96069 0.0
C4471 C 0.39125 0.89452 0.96069 0.0
C4472 C 0.38462 0.90982 0.94699 0.0
H4473 H 0.1223 0.46207 0.37335 0.0
H4474 H 0.17785 0.43733 0.3994 0.0
H4475 H 0.17843 0.41071 0.37307 0.0
H4476 H 0.09958 0.41447 0.35991 0.0
H4477 H 0.08896 0.4232 0.33614 0.0
H4478 H 0.09296 0.44094 0.3567 0.0
H4479 H 0.11493 0.4637 0.33312 0.0
H4480 H 0.11087 0.4461 0.31243 0.0
H4481 H 0.13644 0.45275 0.31999 0.0
H4482 H 0.1724 0.38562 0.34514 0.0
H4483 H 0.16127 0.36495 0.31581 0.0
H4484 H 0.11025 0.40603 0.30636 0.0
C4485 C 0.13473 0.45125 0.37333 0.0
C4486 C 0.14992 0.45177 0.38872 0.0
C4487 C 0.16581 0.43712 0.38814 0.0
C4488 C 0.16635 0.42194 0.37313 0.0
C4489 C 0.15098 0.42155 0.35853 0.0
C4490 C 0.13557 0.4359 0.35831 0.0
C4491 C 0.12088 0.43178 0.34084 0.0
C4492 C 0.09932 0.42734 0.34888 0.0
C4493 C 0.12078 0.44965 0.3257 0.0
C4494 C 0.13042 0.41283 0.33145 0.0
C4495 C 0.14773 0.4072 0.342 0.0
C4496 C 0.15895 0.38997 0.33665 0.0
C4497 C 0.15245 0.37826 0.31997 0.0
C4498 C 0.13492 0.38382 0.30864 0.0
C4499 C 0.12378 0.40138 0.31458 0.0
H4500 H 0.62496 0.42004 0.57543 0.0
H4501 H 0.63612 0.36157 0.54662 0.0
H4502 H 0.66551 0.356 0.56967 0.0
H4503 H 0.6775 0.43411 0.58312 0.0
H4504 H 0.67274 0.44591 0.60745 0.0
H4505 H 0.65297 0.44531 0.58841 0.0
H4506 H 0.62865 0.42761 0.61399 0.0
H4507 H 0.64831 0.42821 0.63312 0.0
H4508 H 0.63657 0.40433 0.62624 0.0
H4509 H 0.69403 0.35706 0.59654 0.0
H4510 H 0.7175 0.36387 0.62531 0.0
H4511 H 0.68718 0.42158 0.6361 0.0
C4512 C 0.63358 0.40605 0.57386 0.0
C4513 C 0.62819 0.39126 0.55911 0.0
C4514 C 0.63989 0.37314 0.55777 0.0
C4515 C 0.65666 0.36987 0.57078 0.0
C4516 C 0.66156 0.38483 0.58512 0.0
C4517 C 0.65025 0.40253 0.58674 0.0
C4518 C 0.65825 0.41607 0.60366 0.0
C4519 C 0.66581 0.43656 0.59514 0.0
C4520 C 0.64198 0.41923 0.62023 0.0
C4521 C 0.6758 0.40325 0.61143 0.0
C4522 C 0.67761 0.38533 0.60051 0.0
C4523 C 0.69273 0.37108 0.60512 0.0
C4524 C 0.70611 0.37514 0.62143 0.0
C4525 C 0.70424 0.39326 0.63307 0.0
C4526 C 0.68894 0.40749 0.62772 0.0
H4527 H 0.61684 0.15152 0.68704 0.0
H4528 H 0.64253 0.12406 0.74132 0.0
H4529 H 0.64937 0.0923 0.7218 0.0
H4530 H 0.59333 0.10653 0.66552 0.0
H4531 H 0.59997 0.11327 0.63975 0.0
H4532 H 0.59584 0.13295 0.65843 0.0
H4533 H 0.6317 0.14779 0.65102 0.0
H4534 H 0.6359 0.12824 0.63225 0.0
H4535 H 0.65371 0.13146 0.65292 0.0
H4536 H 0.65287 0.06305 0.69548 0.0
H4537 H 0.65655 0.04136 0.66455 0.0
H4538 H 0.63105 0.08964 0.62771 0.0
C4539 C 0.62366 0.13874 0.69495 0.0
C4540 C 0.62886 0.14014 0.71581 0.0
C4541 C 0.63831 0.12327 0.72539 0.0
C4542 C 0.64216 0.10517 0.71442 0.0
C4543 C 0.63677 0.10432 0.69382 0.0
C4544 C 0.62798 0.12085 0.68417 0.0
C4545 C 0.62492 0.11684 0.66165 0.0
C4546 C 0.60216 0.11743 0.65602 0.0
C4547 C 0.6373 0.13198 0.6487 0.0
C4548 C 0.63337 0.09546 0.65998 0.0
C4549 C 0.63981 0.08825 0.67871 0.0
C4550 C 0.64794 0.06866 0.68078 0.0
C4551 C 0.64988 0.05639 0.66323 0.0
C4552 C 0.64411 0.06392 0.64389 0.0
C4553 C 0.63561 0.08362 0.64237 0.0
H4554 H 0.33328 0.09889 0.64004 0.0
H4555 H 0.30084 0.15434 0.62461 0.0
H4556 H 0.32374 0.15944 0.59512 0.0
H4557 H 0.38317 0.11675 0.62772 0.0
H4558 H 0.39163 0.09275 0.61739 0.0
H4559 H 0.37227 0.09323 0.63682 0.0
H4560 H 0.34799 0.07271 0.61338 0.0
H4561 H 0.3673 0.07211 0.59389 0.0
H4562 H 0.34237 0.08214 0.58821 0.0
H4563 H 0.35177 0.15922 0.56791 0.0
H4564 H 0.3809 0.15268 0.5448 0.0
H4565 H 0.39439 0.09708 0.57793 0.0
C4566 C 0.33096 0.11212 0.63048 0.0
C4567 C 0.31517 0.12621 0.63474 0.0
C4568 C 0.31259 0.14318 0.62161 0.0
C4569 C 0.32565 0.14628 0.60486 0.0
C4570 C 0.34118 0.1322 0.60126 0.0
C4571 C 0.34375 0.11536 0.61364 0.0
C4572 C 0.36157 0.10245 0.60656 0.0
C4573 C 0.37814 0.10123 0.62311 0.0
C4574 C 0.35437 0.08109 0.60013 0.0
C4575 C 0.36879 0.11472 0.58837 0.0
C4576 C 0.35691 0.13188 0.58555 0.0
C4577 C 0.36106 0.14574 0.56994 0.0
C4578 C 0.37768 0.14193 0.55689 0.0
C4579 C 0.38994 0.12432 0.5594 0.0
C4580 C 0.38528 0.11061 0.57541 0.0
H4581 H 0.38221 0.42533 0.61971 0.0
H4582 H 0.36609 0.47678 0.65764 0.0
H4583 H 0.36932 0.45497 0.6885 0.0
H4584 H 0.35662 0.38663 0.6476 0.0
H4585 H 0.37636 0.36788 0.644 0.0
H4586 H 0.37269 0.38765 0.62535 0.0
H4587 H 0.4105 0.39856 0.62918 0.0
H4588 H 0.41431 0.37873 0.64776 0.0
H4589 H 0.42031 0.40479 0.65407 0.0
H4590 H 0.37236 0.4259 0.71515 0.0
H4591 H 0.37858 0.39407 0.73477 0.0
H4592 H 0.39485 0.36312 0.67873 0.0
C4593 C 0.37935 0.43197 0.63453 0.0
C4594 C 0.37369 0.45263 0.63638 0.0
C4595 C 0.37045 0.46095 0.65601 0.0
C4596 C 0.37216 0.44865 0.67354 0.0
C4597 C 0.37753 0.42817 0.67116 0.0
C4598 C 0.38142 0.42006 0.6521 0.0
C4599 C 0.38757 0.39789 0.65346 0.0
C4600 C 0.3724 0.38421 0.64192 0.0
C4601 C 0.40947 0.39482 0.64566 0.0
C4602 C 0.38623 0.39458 0.67623 0.0
C4603 C 0.38025 0.41208 0.68628 0.0
C4604 C 0.37728 0.41221 0.70739 0.0
C4605 C 0.38076 0.39406 0.71841 0.0
C4606 C 0.38741 0.37617 0.70834 0.0
C4607 C 0.39008 0.3766 0.68697 0.0
H4608 H 0.9304 0.61756 0.64982 0.0
H4609 H 0.98442 0.64839 0.62747 0.0
H4610 H 0.96374 0.67948 0.621 0.0
H4611 H 0.896 0.63842 0.61282 0.0
H4612 H 0.875 0.63994 0.63045 0.0
H4613 H 0.89432 0.62075 0.63378 0.0
H4614 H 0.90083 0.63361 0.67054 0.0
H4615 H 0.88156 0.65288 0.66731 0.0
H4616 H 0.90703 0.66006 0.67472 0.0
H4617 H 0.93637 0.70795 0.61841 0.0
H4618 H 0.90508 0.72927 0.61681 0.0
H4619 H 0.86939 0.67835 0.63891 0.0
C4620 C 0.93798 0.63087 0.64366 0.0
C4621 C 0.95911 0.63061 0.63936 0.0
C4622 C 0.96828 0.64825 0.63093 0.0
C4623 C 0.95664 0.66598 0.62728 0.0
C4624 C 0.9358 0.66571 0.63184 0.0
C4625 C 0.92658 0.64844 0.63961 0.0
C4626 C 0.90389 0.65155 0.64255 0.0
C4627 C 0.89158 0.63679 0.62909 0.0
C4628 C 0.89799 0.6494 0.66512 0.0
C4629 C 0.90165 0.67334 0.63535 0.0
C4630 C 0.9202 0.68143 0.62944 0.0
C4631 C 0.92179 0.70163 0.62284 0.0
C4632 C 0.90399 0.71366 0.62205 0.0
C4633 C 0.8848 0.7054 0.62751 0.0
C4634 C 0.88378 0.68499 0.6343 0.0
H4635 H 0.89874 0.31261 0.87273 0.0
H4636 H 0.8756 0.33815 0.92916 0.0
H4637 H 0.90319 0.36347 0.92916 0.0
H4638 H 0.95316 0.31963 0.88531 0.0
H4639 H 0.9602 0.32615 0.85959 0.0
H4640 H 0.93894 0.30934 0.86417 0.0
H4641 H 0.9156 0.33314 0.84309 0.0
H4642 H 0.93673 0.35009 0.83857 0.0
H4643 H 0.91365 0.35968 0.84996 0.0
H4644 H 0.93168 0.38742 0.9224 0.0
H4645 H 0.96115 0.40729 0.91044 0.0
H4646 H 0.96777 0.36628 0.85891 0.0
C4647 C 0.89969 0.32333 0.88523 0.0
C4648 C 0.88472 0.32345 0.90084 0.0
C4649 C 0.88651 0.33791 0.91681 0.0
C4650 C 0.90225 0.35234 0.91702 0.0
C4651 C 0.91638 0.35218 0.90124 0.0
C4652 C 0.91549 0.33795 0.88573 0.0
C4653 C 0.93268 0.3415 0.87054 0.0
C4654 C 0.9471 0.32306 0.86987 0.0
C4655 C 0.92415 0.34639 0.84928 0.0
C4656 C 0.94314 0.36002 0.87989 0.0
C4657 C 0.93336 0.36588 0.89757 0.0
C4658 C 0.9396 0.38287 0.90868 0.0
C4659 C 0.95637 0.39413 0.90169 0.0
C4660 C 0.96696 0.38839 0.88376 0.0
C4661 C 0.96016 0.37102 0.87275 0.0
H4662 H 0.60718 0.79437 0.39896 0.0
H4663 H 0.66217 0.81725 0.37007 0.0
H4664 H 0.64484 0.84983 0.36311 0.0
H4665 H 0.57186 0.81785 0.36359 0.0
H4666 H 0.55303 0.82348 0.38276 0.0
H4667 H 0.56978 0.80196 0.3859 0.0
H4668 H 0.58138 0.81608 0.42086 0.0
H4669 H 0.56475 0.83771 0.41778 0.0
H4670 H 0.59155 0.84157 0.42246 0.0
H4671 H 0.6222 0.88016 0.36005 0.0
H4672 H 0.59503 0.90569 0.35856 0.0
H4673 H 0.55333 0.86341 0.38784 0.0
C4674 C 0.6156 0.80623 0.39116 0.0
C4675 C 0.6362 0.80319 0.38522 0.0
C4676 C 0.64651 0.81911 0.3749 0.0
C4677 C 0.63677 0.83774 0.37089 0.0
C4678 C 0.6166 0.84027 0.37712 0.0
C4679 C 0.60602 0.82492 0.38685 0.0
C4680 C 0.58425 0.83156 0.39144 0.0
C4681 C 0.56882 0.8179 0.38025 0.0
C4682 C 0.58025 0.83174 0.41451 0.0
C4683 C 0.58428 0.85306 0.38278 0.0
C4684 C 0.6032 0.85771 0.37475 0.0
C4685 C 0.60726 0.87659 0.36606 0.0
C4686 C 0.59155 0.891 0.36517 0.0
C4687 C 0.57173 0.8866 0.3727 0.0
C4688 C 0.56822 0.86735 0.38192 0.0
H4689 H 0.13152 0.18843 0.92439 0.0
H4690 H 0.12555 0.21453 0.86398 0.0
H4691 H 0.09614 0.19192 0.85724 0.0
H4692 H 0.12065 0.13732 0.91031 0.0
H4693 H 0.10677 0.13154 0.93328 0.0
H4694 H 0.12653 0.15059 0.93363 0.0
H4695 H 0.10091 0.17707 0.94783 0.0
H4696 H 0.08107 0.15808 0.94756 0.0
H4697 H 0.07749 0.18184 0.93427 0.0
H4698 H 0.06817 0.16466 0.85659 0.0
H4699 H 0.04394 0.13632 0.86252 0.0
H4700 H 0.06865 0.12832 0.92332 0.0
C4701 C 0.12407 0.18945 0.90973 0.0
C4702 C 0.13098 0.20335 0.89473 0.0
C4703 C 0.1205 0.20427 0.87584 0.0
C4704 C 0.10381 0.19136 0.87183 0.0
C4705 C 0.09764 0.17765 0.88687 0.0
C4706 C 0.10742 0.17674 0.90549 0.0
C4707 C 0.09815 0.16046 0.919 0.0
C4708 C 0.11397 0.144 0.92436 0.0
C4709 C 0.08885 0.16993 0.9383 0.0
C4710 C 0.08176 0.15213 0.90502 0.0
C4711 C 0.08164 0.16223 0.88655 0.0
C4712 C 0.06809 0.15677 0.87106 0.0
C4713 C 0.05438 0.14062 0.87456 0.0
C4714 C 0.05427 0.13007 0.89341 0.0
C4715 C 0.06817 0.13608 0.90878 0.0
H4716 H 0.89154 0.20331 0.91904 0.0
H4717 H 0.88626 0.23257 0.85999 0.0
H4718 H 0.91385 0.21056 0.84682 0.0
H4719 H 0.94771 0.19575 0.91762 0.0
H4720 H 0.946 0.17141 0.93024 0.0
H4721 H 0.92749 0.19099 0.93559 0.0
H4722 H 0.89838 0.16608 0.92602 0.0
H4723 H 0.91676 0.1465 0.92056 0.0
H4724 H 0.89857 0.15395 0.90137 0.0
H4725 H 0.93868 0.18229 0.83889 0.0
H4726 H 0.96016 0.15131 0.83738 0.0
H4727 H 0.95059 0.14121 0.90179 0.0
C4728 C 0.89645 0.20544 0.90344 0.0
C4729 C 0.88667 0.21977 0.89057 0.0
C4730 C 0.89353 0.22186 0.87021 0.0
C4731 C 0.9092 0.20937 0.86259 0.0
C4732 C 0.9181 0.19504 0.87555 0.0
C4733 C 0.91216 0.19321 0.89564 0.0
C4734 C 0.92339 0.17588 0.90612 0.0
C4735 C 0.93695 0.184 0.92342 0.0
C4736 C 0.90838 0.15965 0.91397 0.0
C4737 C 0.93614 0.1678 0.88863 0.0
C4738 C 0.9329 0.17913 0.87114 0.0
C4739 C 0.94164 0.17361 0.85259 0.0
C4740 C 0.95377 0.156 0.85184 0.0
C4741 C 0.95728 0.14416 0.86952 0.0
C4742 C 0.9486 0.15036 0.88821 0.0
H4743 H 0.58958 0.40531 0.14559 0.0
H4744 H 0.53441 0.37316 0.12845 0.0
H4745 H 0.55487 0.34196 0.12188 0.0
H4746 H 0.62161 0.38286 0.10724 0.0
H4747 H 0.64377 0.38227 0.12348 0.0
H4748 H 0.62458 0.40154 0.12717 0.0
H4749 H 0.62064 0.39046 0.16485 0.0
H4750 H 0.63977 0.37113 0.16127 0.0
H4751 H 0.6149 0.36422 0.17068 0.0
H4752 H 0.58212 0.31358 0.11883 0.0
H4753 H 0.61331 0.29221 0.11646 0.0
H4754 H 0.65016 0.34424 0.1336 0.0
C4755 C 0.58172 0.3917 0.14052 0.0
C4756 C 0.56033 0.39162 0.13773 0.0
C4757 C 0.55076 0.37357 0.13072 0.0
C4758 C 0.56227 0.35578 0.12702 0.0
C4759 C 0.58337 0.3564 0.13009 0.0
C4760 C 0.59297 0.37405 0.13643 0.0
C4761 C 0.61582 0.37117 0.138 0.0
C4762 C 0.62711 0.3853 0.12308 0.0
C4763 C 0.62321 0.37443 0.16001 0.0
C4764 C 0.61773 0.34906 0.13171 0.0
C4765 C 0.59887 0.34065 0.12741 0.0
C4766 C 0.59693 0.32014 0.12198 0.0
C4767 C 0.61468 0.30809 0.12075 0.0
C4768 C 0.63415 0.31662 0.12461 0.0
C4769 C 0.63554 0.33738 0.13019 0.0
H4770 H 0.64109 0.20585 0.15336 0.0
H4771 H 0.6279 0.22114 0.09055 0.0
H4772 H 0.59827 0.19789 0.09098 0.0
H4773 H 0.63154 0.15397 0.14818 0.0
H4774 H 0.62017 0.15021 0.17289 0.0
H4775 H 0.63822 0.17052 0.16908 0.0
H4776 H 0.61186 0.19682 0.18211 0.0
H4777 H 0.59378 0.17653 0.18622 0.0
H4778 H 0.587 0.19798 0.17046 0.0
H4779 H 0.57259 0.17047 0.09679 0.0
H4780 H 0.55224 0.14093 0.10756 0.0
H4781 H 0.58195 0.14224 0.1667 0.0
C4782 C 0.63142 0.20486 0.14002 0.0
C4783 C 0.63637 0.21569 0.12206 0.0
C4784 C 0.62404 0.21329 0.10455 0.0
C4785 C 0.60723 0.20008 0.10465 0.0
C4786 C 0.60303 0.18913 0.12235 0.0
C4787 C 0.61468 0.1914 0.13978 0.0
C4788 C 0.60798 0.17634 0.15606 0.0
C4789 C 0.62552 0.16191 0.16188 0.0
C4790 C 0.59966 0.18759 0.17482 0.0
C4791 C 0.59111 0.16502 0.14489 0.0
C4792 C 0.58839 0.17283 0.12556 0.0
C4793 C 0.57435 0.16443 0.11203 0.0
C4794 C 0.56274 0.14761 0.11837 0.0
C4795 C 0.5652 0.13915 0.13811 0.0
C4796 C 0.5796 0.14818 0.15151 0.0
H4797 H 0.44021 0.37932 0.17185 0.0
H4798 H 0.46551 0.37154 0.11137 0.0
H4799 H 0.44235 0.34219 0.10564 0.0
H4800 H 0.4327 0.32556 0.18321 0.0
H4801 H 0.40923 0.3301 0.19673 0.0
H4802 H 0.42874 0.34942 0.19624 0.0
H4803 H 0.4027 0.37535 0.1818 0.0
H4804 H 0.38314 0.3561 0.18215 0.0
H4805 H 0.38897 0.36928 0.15878 0.0
H4806 H 0.41415 0.31466 0.10609 0.0
H4807 H 0.38524 0.29135 0.11311 0.0
H4808 H 0.37881 0.31794 0.17327 0.0
C4809 C 0.44099 0.37145 0.15739 0.0
C4810 C 0.45472 0.37787 0.14203 0.0
C4811 C 0.45534 0.36685 0.12346 0.0
C4812 C 0.44211 0.35022 0.12004 0.0
C4813 C 0.42844 0.34464 0.1354 0.0
C4814 C 0.42798 0.3549 0.15378 0.0
C4815 C 0.41165 0.34639 0.16772 0.0
C4816 C 0.42115 0.33733 0.18712 0.0
C4817 C 0.39567 0.36276 0.1729 0.0
C4818 C 0.4027 0.32989 0.15428 0.0
C4819 C 0.41256 0.32901 0.13569 0.0
C4820 C 0.40647 0.31519 0.12067 0.0
C4821 C 0.38999 0.30201 0.12478 0.0
C4822 C 0.37969 0.3027 0.14376 0.0
C4823 C 0.38632 0.31686 0.15863 0.0
loop_
_geom_bond_atom_site_label_1
_geom_bond_atom_site_label_2
_geom_bond_distance
_geom_bond_site_symmetry_2
_ccdc_geom_bond_type
C0 C1 1.351 . S
C0 N3 1.368 . S
C0 H5 0.931 . S
C1 C0 1.351 . S
C1 N2 1.373 . S
C1 H29 0.930 . S
N2 C1 1.373 . S
N2 C4 1.340 . S
N3 C0 1.368 . S
N3 C4 1.321 . S
N3 Co6 2.135 . S
C4 N2 1.340 . S
C4 N3 1.321 . S
C4 H28 0.930 . S
H5 C0 0.931 . S
Co6 N3 2.135 . S
Co6 N9 2.121 . S
Co6 O14 2.055 . S
Co6 O17 2.039 . S
Co6 N20 2.140 . S
C7 O8 1.227 . S
C7 O17 1.265 . S
O8 C7 1.227 . S
N9 Co6 2.121 . S
N9 C11 1.375 . S
N9 C12 1.313 . S
C10 C11 1.338 . S
C10 N13 1.377 . S
C10 H30 0.930 . S
C11 N9 1.375 . S
C11 C10 1.338 . S
C11 H15 0.931 . S
C12 N9 1.313 . S
C12 N13 1.344 . S
C12 H16 0.930 . S
N13 C10 1.377 . S
N13 C12 1.344 . S
O14 Co6 2.055 . S
O14 C18 1.253 . S
H15 C11 0.931 . S
H16 C12 0.930 . S
O17 Co6 2.039 . S
O17 C7 1.265 . S
C18 O14 1.253 . S
C18 O19 1.227 . S
O19 C18 1.227 . S
N20 Co6 2.140 . S
N20 C23 1.346 . S
N20 C24 1.345 . S
C21 C22 1.387 . S
C21 C25 1.391 . S
C22 C21 1.387 . S
C22 C23 1.369 . S
C22 H31 0.929 . S
C23 N20 1.346 . S
C23 C22 1.369 . S
C23 H26 0.928 . S
C24 N20 1.345 . S
C24 C25 1.371 . S
C24 H27 0.931 . S
C25 C21 1.391 . S
C25 C24 1.371 . S
C25 H32 0.930 . S
H26 C23 0.928 . S
H27 C24 0.931 . S
H28 C4 0.930 . S
H29 C1 0.930 . S
H30 C10 0.930 . S
H31 C22 0.929 . S
H32 C25 0.930 . S
C33 C34 1.351 . S
C33 N36 1.368 . S
C33 H38 0.931 . S
C34 C33 1.351 . S
C34 N35 1.373 . S
C34 H62 0.930 . S
N35 C34 1.373 . S
N35 C37 1.340 . S
N36 C33 1.368 . S
N36 C37 1.321 . S
N36 Co39 2.135 . S
C37 N35 1.340 . S
C37 N36 1.321 . S
C37 H61 0.930 . S
H38 C33 0.931 . S
Co39 N36 2.135 . S
Co39 N42 2.140 . S
Co39 O47 2.055 . S
Co39 O50 2.039 . S
Co39 N53 2.140 . S
C40 O41 1.227 . S
C40 O50 1.265 1_556 S
O41 C40 1.227 . S
N42 Co39 2.140 . S
N42 C44 1.352 1_554 S
N42 C45 1.315 . S
C43 C44 1.338 . S
C43 N46 1.377 . S
C43 H63 0.930 . S
C44 N42 1.352 1_556 S
C44 C43 1.338 . S
C44 H48 0.931 . S
C45 N42 1.315 . S
C45 N46 1.344 1_554 S
C45 H49 0.930 . S
N46 C43 1.377 . S
N46 C45 1.344 1_556 S
O47 Co39 2.055 . S
O47 C51 1.253 . S
H48 C44 0.931 . S
H49 C45 0.930 . S
O50 Co39 2.039 . S
O50 C40 1.265 1_554 S
C51 O47 1.253 . S
C51 O52 1.227 . S
O52 C51 1.227 . S
N53 Co39 2.140 . S
N53 C56 1.346 . S
N53 C57 1.345 . S
C54 C55 1.387 . S
C54 C58 1.391 . S
C55 C54 1.387 . S
C55 C56 1.369 . S
C55 H64 0.929 . S
C56 N53 1.346 . S
C56 C55 1.369 . S
C56 H59 0.928 . S
C57 N53 1.345 . S
C57 C58 1.371 . S
C57 H60 0.931 . S
C58 C54 1.391 . S
C58 C57 1.371 . S
C58 H65 0.930 . S
H59 C56 0.928 . S
H60 C57 0.931 . S
H61 C37 0.930 . S
H62 C34 0.930 . S
H63 C43 0.930 . S
H64 C55 0.929 . S
H65 C58 0.930 . S
C66 C67 1.351 . S
C66 N69 1.368 . S
C66 H71 0.931 . S
C67 C66 1.351 . S
C67 N68 1.373 . S
C67 H95 0.930 . S
N68 C67 1.373 . S
N68 C70 1.340 . S
N69 C66 1.368 . S
N69 C70 1.321 . S
N69 Co72 2.135 . S
C70 N68 1.340 . S
C70 N69 1.321 . S
C70 H94 0.930 . S
H71 C66 0.931 . S
Co72 N69 2.135 . S
Co72 N75 2.121 . S
Co72 O80 2.055 . S
Co72 O83 2.039 . S
Co72 N86 2.140 . S
C73 O74 1.227 . S
C73 O83 1.265 . S
O74 C73 1.227 . S
N75 Co72 2.121 . S
N75 C77 1.375 . S
N75 C78 1.313 . S
C76 C77 1.338 . S
C76 N79 1.377 . S
C76 H96 0.930 . S
C77 N75 1.375 . S
C77 C76 1.338 . S
C77 H81 0.931 . S
C78 N75 1.313 . S
C78 N79 1.344 . S
C78 H82 0.930 . S
N79 C76 1.377 . S
N79 C78 1.344 . S
O80 Co72 2.055 . S
O80 C84 1.253 . S
H81 C77 0.931 . S
H82 C78 0.930 . S
O83 Co72 2.039 . S
O83 C73 1.265 . S
C84 O80 1.253 . S
C84 O85 1.227 . S
O85 C84 1.227 . S
N86 Co72 2.140 . S
N86 C89 1.346 . S
N86 C90 1.345 . S
C87 C88 1.387 . S
C87 C91 1.391 . S
C88 C87 1.387 . S
C88 C89 1.369 . S
C88 H97 0.929 . S
C89 N86 1.346 . S
C89 C88 1.369 . S
C89 H92 0.928 . S
C90 N86 1.345 . S
C90 C91 1.371 . S
C90 H93 0.931 . S
C91 C87 1.391 . S
C91 C90 1.371 . S
C91 H98 0.930 . S
H92 C89 0.928 . S
H93 C90 0.931 . S
H94 C70 0.930 . S
H95 C67 0.930 . S
H96 C76 0.930 . S
H97 C88 0.929 . S
H98 C91 0.930 . S
C99 C100 1.351 . S
C99 N102 1.368 . S
C99 H104 0.931 . S
C100 C99 1.351 . S
C100 N101 1.373 . S
C100 H128 0.930 . S
N101 C100 1.373 . S
N101 C103 1.340 . S
N102 C99 1.368 . S
N102 C103 1.321 . S
N102 Co105 2.135 . S
C103 N101 1.340 . S
C103 N102 1.321 . S
C103 H127 0.930 . S
H104 C99 0.931 . S
Co105 N102 2.135 . S
Co105 N108 2.140 . S
Co105 O113 2.055 . S
Co105 O116 2.039 . S
Co105 N119 2.140 . S
C106 O107 1.227 . S
C106 O116 1.265 1_556 S
O107 C106 1.227 . S
N108 Co105 2.140 . S
N108 C110 1.352 1_554 S
N108 C111 1.315 . S
C109 C110 1.338 . S
C109 N112 1.377 . S
C109 H129 0.930 . S
C110 N108 1.352 1_556 S
C110 C109 1.338 . S
C110 H114 0.931 . S
C111 N108 1.315 . S
C111 N112 1.344 1_554 S
C111 H115 0.930 . S
N112 C109 1.377 . S
N112 C111 1.344 1_556 S
O113 Co105 2.055 . S
O113 C117 1.253 . S
H114 C110 0.931 . S
H115 C111 0.930 . S
O116 Co105 2.039 . S
O116 C106 1.265 1_554 S
C117 O113 1.253 . S
C117 O118 1.227 . S
O118 C117 1.227 . S
N119 Co105 2.140 . S
N119 C122 1.346 . S
N119 C123 1.345 . S
C120 C121 1.387 . S
C120 C124 1.391 . S
C121 C120 1.387 . S
C121 C122 1.369 . S
C121 H130 0.929 . S
C122 N119 1.346 . S
C122 C121 1.369 . S
C122 H125 0.928 . S
C123 N119 1.345 . S
C123 C124 1.371 . S
C123 H126 0.931 . S
C124 C120 1.391 . S
C124 C123 1.371 . S
C124 H131 0.930 . S
H125 C122 0.928 . S
H126 C123 0.931 . S
H127 C103 0.930 . S
H128 C100 0.930 . S
H129 C109 0.930 . S
H130 C121 0.929 . S
H131 C124 0.930 . S
C132 C133 1.351 . S
C132 N135 1.368 . S
C132 H137 0.931 . S
C133 C132 1.351 . S
C133 N134 1.373 . S
C133 H161 0.930 . S
N134 C133 1.373 . S
N134 C136 1.340 . S
N135 C132 1.368 . S
N135 C136 1.321 . S
N135 Co138 2.135 . S
C136 N134 1.340 . S
C136 N135 1.321 . S
C136 H160 0.930 . S
H137 C132 0.931 . S
Co138 N135 2.135 . S
Co138 N141 2.121 . S
Co138 O146 2.055 . S
Co138 O149 2.039 . S
Co138 N152 2.140 . S
C139 O140 1.227 . S
C139 O149 1.265 . S
O140 C139 1.227 . S
N141 Co138 2.121 . S
N141 C143 1.375 . S
N141 C144 1.313 . S
C142 C143 1.338 . S
C142 N145 1.377 . S
C142 H162 0.930 . S
C143 N141 1.375 . S
C143 C142 1.338 . S
C143 H147 0.931 . S
C144 N141 1.313 . S
C144 N145 1.344 . S
C144 H148 0.930 . S
N145 C142 1.377 . S
N145 C144 1.344 . S
O146 Co138 2.055 . S
O146 C150 1.253 . S
H147 C143 0.931 . S
H148 C144 0.930 . S
O149 Co138 2.039 . S
O149 C139 1.265 . S
C150 O146 1.253 . S
C150 O151 1.227 . S
O151 C150 1.227 . S
N152 Co138 2.140 . S
N152 C155 1.346 . S
N152 C156 1.345 . S
C153 C154 1.387 . S
C153 C157 1.391 . S
C154 C153 1.387 . S
C154 C155 1.369 . S
C154 H163 0.929 . S
C155 N152 1.346 . S
C155 C154 1.369 . S
C155 H158 0.928 . S
C156 N152 1.345 . S
C156 C157 1.371 . S
C156 H159 0.931 . S
C157 C153 1.391 . S
C157 C156 1.371 . S
C157 H164 0.930 . S
H158 C155 0.928 . S
H159 C156 0.931 . S
H160 C136 0.930 . S
H161 C133 0.930 . S
H162 C142 0.930 . S
H163 C154 0.929 . S
H164 C157 0.930 . S
C165 C166 1.351 . S
C165 N168 1.368 . S
C165 H170 0.931 . S
C166 C165 1.351 . S
C166 N167 1.373 . S
C166 H194 0.930 . S
N167 C166 1.373 . S
N167 C169 1.340 . S
N168 C165 1.368 . S
N168 C169 1.321 . S
N168 Co171 2.135 . S
C169 N167 1.340 . S
C169 N168 1.321 . S
C169 H193 0.930 . S
H170 C165 0.931 . S
Co171 N168 2.135 . S
Co171 N174 2.140 . S
Co171 O179 2.055 . S
Co171 O182 2.039 . S
Co171 N185 2.140 . S
C172 O173 1.227 . S
C172 O182 1.265 1_554 S
O173 C172 1.227 . S
N174 Co171 2.140 . S
N174 C176 1.352 1_556 S
N174 C177 1.315 . S
C175 C176 1.338 . S
C175 N178 1.377 . S
C175 H195 0.930 . S
C176 N174 1.352 1_554 S
C176 C175 1.338 . S
C176 H180 0.931 . S
C177 N174 1.315 . S
C177 N178 1.344 1_556 S
C177 H181 0.930 . S
N178 C175 1.377 . S
N178 C177 1.344 1_554 S
O179 Co171 2.055 . S
O179 C183 1.253 . S
H180 C176 0.931 . S
H181 C177 0.930 . S
O182 Co171 2.039 . S
O182 C172 1.265 1_556 S
C183 O179 1.253 . S
C183 O184 1.227 . S
O184 C183 1.227 . S
N185 Co171 2.140 . S
N185 C188 1.346 . S
N185 C189 1.345 . S
C186 C187 1.387 . S
C186 C190 1.391 . S
C187 C186 1.387 . S
C187 C188 1.369 . S
C187 H196 0.929 . S
C188 N185 1.346 . S
C188 C187 1.369 . S
C188 H191 0.928 . S
C189 N185 1.345 . S
C189 C190 1.371 . S
C189 H192 0.931 . S
C190 C186 1.391 . S
C190 C189 1.371 . S
C190 H197 0.930 . S
H191 C188 0.928 . S
H192 C189 0.931 . S
H193 C169 0.930 . S
H194 C166 0.930 . S
H195 C175 0.930 . S
H196 C187 0.929 . S
H197 C190 0.930 . S
C198 C199 1.351 . S
C198 N201 1.368 . S
C198 H203 0.931 . S
C199 C198 1.351 . S
C199 N200 1.373 . S
C199 H227 0.930 . S
N200 C199 1.373 . S
N200 C202 1.340 . S
N201 C198 1.368 . S
N201 C202 1.321 . S
N201 Co204 2.135 . S
C202 N200 1.340 . S
C202 N201 1.321 . S
C202 H226 0.930 . S
H203 C198 0.931 . S
Co204 N201 2.135 . S
Co204 N207 2.121 . S
Co204 O212 2.055 . S
Co204 O215 2.039 . S
Co204 N218 2.140 . S
C205 O206 1.227 . S
C205 O215 1.265 . S
O206 C205 1.227 . S
N207 Co204 2.121 . S
N207 C209 1.375 . S
N207 C210 1.313 . S
C208 C209 1.338 . S
C208 N211 1.377 . S
C208 H228 0.930 . S
C209 N207 1.375 . S
C209 C208 1.338 . S
C209 H213 0.931 . S
C210 N207 1.313 . S
C210 N211 1.344 . S
C210 H214 0.930 . S
N211 C208 1.377 . S
N211 C210 1.344 . S
O212 Co204 2.055 . S
O212 C216 1.253 . S
H213 C209 0.931 . S
H214 C210 0.930 . S
O215 Co204 2.039 . S
O215 C205 1.265 . S
C216 O212 1.253 . S
C216 O217 1.227 . S
O217 C216 1.227 . S
N218 Co204 2.140 . S
N218 C221 1.346 . S
N218 C222 1.345 . S
C219 C220 1.387 . S
C219 C223 1.391 . S
C220 C219 1.387 . S
C220 C221 1.369 . S
C220 H229 0.929 . S
C221 N218 1.346 . S
C221 C220 1.369 . S
C221 H224 0.928 . S
C222 N218 1.345 . S
C222 C223 1.371 . S
C222 H225 0.931 . S
C223 C219 1.391 . S
C223 C222 1.371 . S
C223 H230 0.930 . S
H224 C221 0.928 . S
H225 C222 0.931 . S
H226 C202 0.930 . S
H227 C199 0.930 . S
H228 C208 0.930 . S
H229 C220 0.929 . S
H230 C223 0.930 . S
C231 C232 1.351 . S
C231 N234 1.368 . S
C231 H236 0.931 . S
C232 C231 1.351 . S
C232 N233 1.373 . S
C232 H260 0.930 . S
N233 C232 1.373 . S
N233 C235 1.340 . S
N234 C231 1.368 . S
N234 C235 1.321 . S
N234 Co237 2.135 . S
C235 N233 1.340 . S
C235 N234 1.321 . S
C235 H259 0.930 . S
H236 C231 0.931 . S
Co237 N234 2.135 . S
Co237 N240 2.140 . S
Co237 O245 2.055 . S
Co237 O248 2.039 . S
Co237 N251 2.140 . S
C238 O239 1.227 . S
C238 O248 1.265 1_554 S
O239 C238 1.227 . S
N240 Co237 2.140 . S
N240 C242 1.352 1_556 S
N240 C243 1.315 . S
C241 C242 1.338 . S
C241 N244 1.377 . S
C241 H261 0.930 . S
C242 N240 1.352 1_554 S
C242 C241 1.338 . S
C242 H246 0.931 . S
C243 N240 1.315 . S
C243 N244 1.344 1_556 S
C243 H247 0.930 . S
N244 C241 1.377 . S
N244 C243 1.344 1_554 S
O245 Co237 2.055 . S
O245 C249 1.253 . S
H246 C242 0.931 . S
H247 C243 0.930 . S
O248 Co237 2.039 . S
O248 C238 1.265 1_556 S
C249 O245 1.253 . S
C249 O250 1.227 . S
O250 C249 1.227 . S
N251 Co237 2.140 . S
N251 C254 1.346 . S
N251 C255 1.345 . S
C252 C253 1.387 . S
C252 C256 1.391 . S
C253 C252 1.387 . S
C253 C254 1.369 . S
C253 H262 0.929 . S
C254 N251 1.346 . S
C254 C253 1.369 . S
C254 H257 0.928 . S
C255 N251 1.345 . S
C255 C256 1.371 . S
C255 H258 0.931 . S
C256 C252 1.391 . S
C256 C255 1.371 . S
C256 H263 0.930 . S
H257 C254 0.928 . S
H258 C255 0.931 . S
H259 C235 0.930 . S
H260 C232 0.930 . S
H261 C241 0.930 . S
H262 C253 0.929 . S
H263 C256 0.930 . S
C264 C265 1.351 . S
C264 N267 1.368 . S
C264 H269 0.931 . S
C265 C264 1.351 . S
C265 N266 1.373 . S
C265 H293 0.930 . S
N266 C265 1.373 . S
N266 C268 1.340 . S
N267 C264 1.368 . S
N267 C268 1.321 . S
N267 Co270 2.135 . S
C268 N266 1.340 . S
C268 N267 1.321 . S
C268 H292 0.930 . S
H269 C264 0.931 . S
Co270 N267 2.135 . S
Co270 N273 2.121 . S
Co270 O278 2.055 . S
Co270 O281 2.039 . S
Co270 N284 2.140 . S
C271 O272 1.227 . S
C271 O281 1.265 . S
O272 C271 1.227 . S
N273 Co270 2.121 . S
N273 C275 1.375 . S
N273 C276 1.313 . S
C274 C275 1.338 . S
C274 N277 1.377 . S
C274 H294 0.930 . S
C275 N273 1.375 . S
C275 C274 1.338 . S
C275 H279 0.931 . S
C276 N273 1.313 . S
C276 N277 1.344 . S
C276 H280 0.930 . S
N277 C274 1.377 . S
N277 C276 1.344 . S
O278 Co270 2.055 . S
O278 C282 1.253 . S
H279 C275 0.931 . S
H280 C276 0.930 . S
O281 Co270 2.039 . S
O281 C271 1.265 . S
C282 O278 1.253 . S
C282 O283 1.227 . S
O283 C282 1.227 . S
N284 Co270 2.140 . S
N284 C287 1.346 . S
N284 C288 1.345 . S
C285 C286 1.387 . S
C285 C289 1.391 . S
C286 C285 1.387 . S
C286 C287 1.369 . S
C286 H295 0.929 . S
C287 N284 1.346 . S
C287 C286 1.369 . S
C287 H290 0.928 . S
C288 N284 1.345 . S
C288 C289 1.371 . S
C288 H291 0.931 . S
C289 C285 1.391 . S
C289 C288 1.371 . S
C289 H296 0.930 . S
H290 C287 0.928 . S
H291 C288 0.931 . S
H292 C268 0.930 . S
H293 C265 0.930 . S
H294 C274 0.930 . S
H295 C286 0.929 . S
H296 C289 0.930 . S
C297 C298 1.351 . S
C297 N300 1.368 . S
C297 H302 0.931 . S
C298 C297 1.351 . S
C298 N299 1.373 . S
C298 H326 0.930 . S
N299 C298 1.373 . S
N299 C301 1.340 . S
N300 C297 1.368 . S
N300 C301 1.321 . S
N300 Co303 2.135 . S
C301 N299 1.340 . S
C301 N300 1.321 . S
C301 H325 0.930 . S
H302 C297 0.931 . S
Co303 N300 2.135 . S
Co303 N306 2.121 . S
Co303 O311 2.055 . S
Co303 O314 2.039 . S
Co303 N317 2.140 . S
C304 O305 1.227 . S
C304 O314 1.265 . S
O305 C304 1.227 . S
N306 Co303 2.121 . S
N306 C308 1.375 . S
N306 C309 1.313 . S
C307 C308 1.338 . S
C307 N310 1.377 . S
C307 H327 0.930 . S
C308 N306 1.375 . S
C308 C307 1.338 . S
C308 H312 0.931 . S
C309 N306 1.313 . S
C309 N310 1.344 . S
C309 H313 0.930 . S
N310 C307 1.377 . S
N310 C309 1.344 . S
O311 Co303 2.055 . S
O311 C315 1.253 . S
H312 C308 0.931 . S
H313 C309 0.930 . S
O314 Co303 2.039 . S
O314 C304 1.265 . S
C315 O311 1.253 . S
C315 O316 1.227 . S
O316 C315 1.227 . S
N317 Co303 2.140 . S
N317 C320 1.346 . S
N317 C321 1.345 . S
C318 C319 1.387 . S
C318 C322 1.391 . S
C319 C318 1.387 . S
C319 C320 1.369 . S
C319 H328 0.929 . S
C320 N317 1.346 . S
C320 C319 1.369 . S
C320 H323 0.928 . S
C321 N317 1.345 . S
C321 C322 1.371 . S
C321 H324 0.931 . S
C322 C318 1.391 . S
C322 C321 1.371 . S
C322 H329 0.930 . S
H323 C320 0.928 . S
H324 C321 0.931 . S
H325 C301 0.930 . S
H326 C298 0.930 . S
H327 C307 0.930 . S
H328 C319 0.929 . S
H329 C322 0.930 . S
C330 C331 1.351 . S
C330 N333 1.368 . S
C330 H335 0.931 . S
C331 C330 1.351 . S
C331 N332 1.373 . S
C331 H359 0.930 . S
N332 C331 1.373 . S
N332 C334 1.340 . S
N333 C330 1.368 . S
N333 C334 1.321 . S
N333 Co336 2.135 . S
C334 N332 1.340 . S
C334 N333 1.321 . S
C334 H358 0.930 . S
H335 C330 0.931 . S
Co336 N333 2.135 . S
Co336 N339 2.121 . S
Co336 O344 2.055 . S
Co336 O347 2.039 . S
Co336 N350 2.140 . S
C337 O338 1.227 . S
C337 O347 1.265 . S
O338 C337 1.227 . S
N339 Co336 2.121 . S
N339 C341 1.375 . S
N339 C342 1.313 . S
C340 C341 1.338 . S
C340 N343 1.377 . S
C340 H360 0.930 . S
C341 N339 1.375 . S
C341 C340 1.338 . S
C341 H345 0.931 . S
C342 N339 1.313 . S
C342 N343 1.344 . S
C342 H346 0.930 . S
N343 C340 1.377 . S
N343 C342 1.344 . S
O344 Co336 2.055 . S
O344 C348 1.253 . S
H345 C341 0.931 . S
H346 C342 0.930 . S
O347 Co336 2.039 . S
O347 C337 1.265 . S
C348 O344 1.253 . S
C348 O349 1.227 . S
O349 C348 1.227 . S
N350 Co336 2.140 . S
N350 C353 1.346 . S
N350 C354 1.345 . S
C351 C352 1.387 . S
C351 C355 1.391 . S
C352 C351 1.387 . S
C352 C353 1.369 . S
C352 H361 0.929 . S
C353 N350 1.346 . S
C353 C352 1.369 . S
C353 H356 0.928 . S
C354 N350 1.345 . S
C354 C355 1.371 . S
C354 H357 0.931 . S
C355 C351 1.391 . S
C355 C354 1.371 . S
C355 H362 0.930 . S
H356 C353 0.928 . S
H357 C354 0.931 . S
H358 C334 0.930 . S
H359 C331 0.930 . S
H360 C340 0.930 . S
H361 C352 0.929 . S
H362 C355 0.930 . S
C363 C364 1.351 . S
C363 N366 1.368 . S
C363 H368 0.931 . S
C364 C363 1.351 . S
C364 N365 1.373 . S
C364 H392 0.930 . S
N365 C364 1.373 . S
N365 C367 1.340 . S
N366 C363 1.368 . S
N366 C367 1.321 . S
N366 Co369 2.135 . S
C367 N365 1.340 . S
C367 N366 1.321 . S
C367 H391 0.930 . S
H368 C363 0.931 . S
Co369 N366 2.135 . S
Co369 N372 2.140 . S
Co369 O377 2.055 . S
Co369 O380 2.039 . S
Co369 N383 2.140 . S
C370 O371 1.227 . S
C370 O380 1.265 1_545 S
O371 C370 1.227 . S
N372 Co369 2.140 . S
N372 C374 1.352 1_565 S
N372 C375 1.315 . S
C373 C374 1.338 . S
C373 N376 1.377 . S
C373 H393 0.930 . S
C374 N372 1.352 1_545 S
C374 C373 1.338 . S
C374 H378 0.931 . S
C375 N372 1.315 . S
C375 N376 1.344 1_565 S
C375 H379 0.930 . S
N376 C373 1.377 . S
N376 C375 1.344 1_545 S
O377 Co369 2.055 . S
O377 C381 1.253 . S
H378 C374 0.931 . S
H379 C375 0.930 . S
O380 Co369 2.039 . S
O380 C370 1.265 1_565 S
C381 O377 1.253 . S
C381 O382 1.227 . S
O382 C381 1.227 . S
N383 Co369 2.140 . S
N383 C386 1.346 . S
N383 C387 1.345 . S
C384 C385 1.387 . S
C384 C388 1.391 . S
C385 C384 1.387 . S
C385 C386 1.369 . S
C385 H394 0.929 . S
C386 N383 1.346 . S
C386 C385 1.369 . S
C386 H389 0.928 . S
C387 N383 1.345 . S
C387 C388 1.371 . S
C387 H390 0.931 . S
C388 C384 1.391 . S
C388 C387 1.371 . S
C388 H395 0.930 . S
H389 C386 0.928 . S
H390 C387 0.931 . S
H391 C367 0.930 . S
H392 C364 0.930 . S
H393 C373 0.930 . S
H394 C385 0.929 . S
H395 C388 0.930 . S
C396 C397 1.351 . S
C396 N399 1.368 . S
C396 H401 0.931 . S
C397 C396 1.351 . S
C397 N398 1.373 . S
C397 H425 0.930 . S
N398 C397 1.373 . S
N398 C400 1.340 . S
N399 C396 1.368 . S
N399 C400 1.321 . S
N399 Co402 2.135 . S
C400 N398 1.340 . S
C400 N399 1.321 . S
C400 H424 0.930 . S
H401 C396 0.931 . S
Co402 N399 2.135 . S
Co402 N405 2.121 . S
Co402 O410 2.055 . S
Co402 O413 2.039 . S
Co402 N416 2.140 . S
C403 O404 1.227 . S
C403 O413 1.265 . S
O404 C403 1.227 . S
N405 Co402 2.121 . S
N405 C407 1.375 . S
N405 C408 1.313 . S
C406 C407 1.338 . S
C406 N409 1.377 . S
C406 H426 0.930 . S
C407 N405 1.375 . S
C407 C406 1.338 . S
C407 H411 0.931 . S
C408 N405 1.313 . S
C408 N409 1.344 . S
C408 H412 0.930 . S
N409 C406 1.377 . S
N409 C408 1.344 . S
O410 Co402 2.055 . S
O410 C414 1.253 . S
H411 C407 0.931 . S
H412 C408 0.930 . S
O413 Co402 2.039 . S
O413 C403 1.265 . S
C414 O410 1.253 . S
C414 O415 1.227 . S
O415 C414 1.227 . S
N416 Co402 2.140 . S
N416 C419 1.346 . S
N416 C420 1.345 . S
C417 C418 1.387 . S
C417 C421 1.391 . S
C418 C417 1.387 . S
C418 C419 1.369 . S
C418 H427 0.929 . S
C419 N416 1.346 . S
C419 C418 1.369 . S
C419 H422 0.928 . S
C420 N416 1.345 . S
C420 C421 1.371 . S
C420 H423 0.931 . S
C421 C417 1.391 . S
C421 C420 1.371 . S
C421 H428 0.930 . S
H422 C419 0.928 . S
H423 C420 0.931 . S
H424 C400 0.930 . S
H425 C397 0.930 . S
H426 C406 0.930 . S
H427 C418 0.929 . S
H428 C421 0.930 . S
C429 C430 1.351 . S
C429 N432 1.368 . S
C429 H434 0.931 . S
C430 C429 1.351 . S
C430 N431 1.373 . S
C430 H458 0.930 . S
N431 C430 1.373 . S
N431 C433 1.340 . S
N432 C429 1.368 . S
N432 C433 1.321 . S
N432 Co435 2.135 . S
C433 N431 1.340 . S
C433 N432 1.321 . S
C433 H457 0.930 . S
H434 C429 0.931 . S
Co435 N432 2.135 . S
Co435 N438 2.121 . S
Co435 O443 2.055 . S
Co435 O446 2.039 . S
Co435 N449 2.140 . S
C436 O437 1.227 . S
C436 O446 1.265 . S
O437 C436 1.227 . S
N438 Co435 2.121 . S
N438 C440 1.375 . S
N438 C441 1.313 . S
C439 C440 1.338 . S
C439 N442 1.377 . S
C439 H459 0.930 . S
C440 N438 1.375 . S
C440 C439 1.338 . S
C440 H444 0.931 . S
C441 N438 1.313 . S
C441 N442 1.344 . S
C441 H445 0.930 . S
N442 C439 1.377 . S
N442 C441 1.344 . S
O443 Co435 2.055 . S
O443 C447 1.253 . S
H444 C440 0.931 . S
H445 C441 0.930 . S
O446 Co435 2.039 . S
O446 C436 1.265 . S
C447 O443 1.253 . S
C447 O448 1.227 . S
O448 C447 1.227 . S
N449 Co435 2.140 . S
N449 C452 1.346 . S
N449 C453 1.345 . S
C450 C451 1.387 . S
C450 C454 1.391 . S
C451 C450 1.387 . S
C451 C452 1.369 . S
C451 H460 0.929 . S
C452 N449 1.346 . S
C452 C451 1.369 . S
C452 H455 0.928 . S
C453 N449 1.345 . S
C453 C454 1.371 . S
C453 H456 0.931 . S
C454 C450 1.391 . S
C454 C453 1.371 . S
C454 H461 0.930 . S
H455 C452 0.928 . S
H456 C453 0.931 . S
H457 C433 0.930 . S
H458 C430 0.930 . S
H459 C439 0.930 . S
H460 C451 0.929 . S
H461 C454 0.930 . S
C462 C463 1.351 . S
C462 N465 1.368 . S
C462 H467 0.931 . S
C463 C462 1.351 . S
C463 N464 1.373 . S
C463 H491 0.930 . S
N464 C463 1.373 . S
N464 C466 1.340 . S
N465 C462 1.368 . S
N465 C466 1.321 . S
N465 Co468 2.135 . S
C466 N464 1.340 . S
C466 N465 1.321 . S
C466 H490 0.930 . S
H467 C462 0.931 . S
Co468 N465 2.135 . S
Co468 N471 2.121 . S
Co468 O476 2.055 . S
Co468 O479 2.039 . S
Co468 N482 2.140 . S
C469 O470 1.227 . S
C469 O479 1.265 . S
O470 C469 1.227 . S
N471 Co468 2.121 . S
N471 C473 1.375 . S
N471 C474 1.313 . S
C472 C473 1.338 . S
C472 N475 1.377 . S
C472 H492 0.930 . S
C473 N471 1.375 . S
C473 C472 1.338 . S
C473 H477 0.931 . S
C474 N471 1.313 . S
C474 N475 1.344 . S
C474 H478 0.930 . S
N475 C472 1.377 . S
N475 C474 1.344 . S
O476 Co468 2.055 . S
O476 C480 1.253 . S
H477 C473 0.931 . S
H478 C474 0.930 . S
O479 Co468 2.039 . S
O479 C469 1.265 . S
C480 O476 1.253 . S
C480 O481 1.227 . S
O481 C480 1.227 . S
N482 Co468 2.140 . S
N482 C485 1.346 . S
N482 C486 1.345 . S
C483 C484 1.387 . S
C483 C487 1.391 . S
C484 C483 1.387 . S
C484 C485 1.369 . S
C484 H493 0.929 . S
C485 N482 1.346 . S
C485 C484 1.369 . S
C485 H488 0.928 . S
C486 N482 1.345 . S
C486 C487 1.371 . S
C486 H489 0.931 . S
C487 C483 1.391 . S
C487 C486 1.371 . S
C487 H494 0.930 . S
H488 C485 0.928 . S
H489 C486 0.931 . S
H490 C466 0.930 . S
H491 C463 0.930 . S
H492 C472 0.930 . S
H493 C484 0.929 . S
H494 C487 0.930 . S
C495 C496 1.351 . S
C495 N498 1.368 . S
C495 H500 0.931 . S
C496 C495 1.351 . S
C496 N497 1.373 . S
C496 H524 0.930 . S
N497 C496 1.373 . S
N497 C499 1.340 . S
N498 C495 1.368 . S
N498 C499 1.321 . S
N498 Co501 2.135 . S
C499 N497 1.340 . S
C499 N498 1.321 . S
C499 H523 0.930 . S
H500 C495 0.931 . S
Co501 N498 2.135 . S
Co501 N504 2.140 . S
Co501 O509 2.055 . S
Co501 O512 2.039 . S
Co501 N515 2.140 . S
C502 O503 1.227 . S
C502 O512 1.265 1_545 S
O503 C502 1.227 . S
N504 Co501 2.140 . S
N504 C506 1.352 1_565 S
N504 C507 1.315 . S
C505 C506 1.338 . S
C505 N508 1.377 . S
C505 H525 0.930 . S
C506 N504 1.352 1_545 S
C506 C505 1.338 . S
C506 H510 0.931 . S
C507 N504 1.315 . S
C507 N508 1.344 1_565 S
C507 H511 0.930 . S
N508 C505 1.377 . S
N508 C507 1.344 1_545 S
O509 Co501 2.055 . S
O509 C513 1.253 . S
H510 C506 0.931 . S
H511 C507 0.930 . S
O512 Co501 2.039 . S
O512 C502 1.265 1_565 S
C513 O509 1.253 . S
C513 O514 1.227 . S
O514 C513 1.227 . S
N515 Co501 2.140 . S
N515 C518 1.346 . S
N515 C519 1.345 . S
C516 C517 1.387 . S
C516 C520 1.391 . S
C517 C516 1.387 . S
C517 C518 1.369 . S
C517 H526 0.929 . S
C518 N515 1.346 . S
C518 C517 1.369 . S
C518 H521 0.928 . S
C519 N515 1.345 . S
C519 C520 1.371 . S
C519 H522 0.931 . S
C520 C516 1.391 . S
C520 C519 1.371 . S
C520 H527 0.930 . S
H521 C518 0.928 . S
H522 C519 0.931 . S
H523 C499 0.930 . S
H524 C496 0.930 . S
H525 C505 0.930 . S
H526 C517 0.929 . S
H527 C520 0.930 . S
C528 C529 1.351 . S
C528 N531 1.368 . S
C528 H533 0.931 . S
C529 C528 1.351 . S
C529 N530 1.373 . S
C529 H557 0.930 . S
N530 C529 1.373 . S
N530 C532 1.340 . S
N531 C528 1.368 . S
N531 C532 1.321 . S
N531 Co534 2.135 . S
C532 N530 1.340 . S
C532 N531 1.321 . S
C532 H556 0.930 . S
H533 C528 0.931 . S
Co534 N531 2.135 . S
Co534 N537 2.121 . S
Co534 O542 2.055 . S
Co534 O545 2.039 . S
Co534 N548 2.140 . S
C535 O536 1.227 . S
C535 O545 1.265 . S
O536 C535 1.227 . S
N537 Co534 2.121 . S
N537 C539 1.375 . S
N537 C540 1.313 . S
C538 C539 1.338 . S
C538 N541 1.377 . S
C538 H558 0.930 . S
C539 N537 1.375 . S
C539 C538 1.338 . S
C539 H543 0.931 . S
C540 N537 1.313 . S
C540 N541 1.344 . S
C540 H544 0.930 . S
N541 C538 1.377 . S
N541 C540 1.344 . S
O542 Co534 2.055 . S
O542 C546 1.253 . S
H543 C539 0.931 . S
H544 C540 0.930 . S
O545 Co534 2.039 . S
O545 C535 1.265 . S
C546 O542 1.253 . S
C546 O547 1.227 . S
O547 C546 1.227 . S
N548 Co534 2.140 . S
N548 C551 1.346 . S
N548 C552 1.345 . S
C549 C550 1.387 . S
C549 C553 1.391 . S
C550 C549 1.387 . S
C550 C551 1.369 . S
C550 H559 0.929 . S
C551 N548 1.346 . S
C551 C550 1.369 . S
C551 H554 0.928 . S
C552 N548 1.345 . S
C552 C553 1.371 . S
C552 H555 0.931 . S
C553 C549 1.391 . S
C553 C552 1.371 . S
C553 H560 0.930 . S
H554 C551 0.928 . S
H555 C552 0.931 . S
H556 C532 0.930 . S
H557 C529 0.930 . S
H558 C538 0.930 . S
H559 C550 0.929 . S
H560 C553 0.930 . S
C561 C562 1.351 . S
C561 N564 1.368 . S
C561 H566 0.931 . S
C562 C561 1.351 . S
C562 N563 1.373 . S
C562 H590 0.930 . S
N563 C562 1.373 . S
N563 C565 1.340 . S
N564 C561 1.368 . S
N564 C565 1.321 . S
N564 Co567 2.135 . S
C565 N563 1.340 . S
C565 N564 1.321 . S
C565 H589 0.930 . S
H566 C561 0.931 . S
Co567 N564 2.135 . S
Co567 N570 2.121 . S
Co567 O575 2.055 . S
Co567 O578 2.039 . S
Co567 N581 2.140 . S
C568 O569 1.227 . S
C568 O578 1.265 . S
O569 C568 1.227 . S
N570 Co567 2.121 . S
N570 C572 1.375 . S
N570 C573 1.313 . S
C571 C572 1.338 . S
C571 N574 1.377 . S
C571 H591 0.930 . S
C572 N570 1.375 . S
C572 C571 1.338 . S
C572 H576 0.931 . S
C573 N570 1.313 . S
C573 N574 1.344 . S
C573 H577 0.930 . S
N574 C571 1.377 . S
N574 C573 1.344 . S
O575 Co567 2.055 . S
O575 C579 1.253 . S
H576 C572 0.931 . S
H577 C573 0.930 . S
O578 Co567 2.039 . S
O578 C568 1.265 . S
C579 O575 1.253 . S
C579 O580 1.227 . S
O580 C579 1.227 . S
N581 Co567 2.140 . S
N581 C584 1.346 . S
N581 C585 1.345 . S
C582 C583 1.387 . S
C582 C586 1.391 . S
C583 C582 1.387 . S
C583 C584 1.369 . S
C583 H592 0.929 . S
C584 N581 1.346 . S
C584 C583 1.369 . S
C584 H587 0.928 . S
C585 N581 1.345 . S
C585 C586 1.371 . S
C585 H588 0.931 . S
C586 C582 1.391 . S
C586 C585 1.371 . S
C586 H593 0.930 . S
H587 C584 0.928 . S
H588 C585 0.931 . S
H589 C565 0.930 . S
H590 C562 0.930 . S
H591 C571 0.930 . S
H592 C583 0.929 . S
H593 C586 0.930 . S
C594 C595 1.351 . S
C594 N597 1.368 . S
C594 H599 0.931 . S
C595 C594 1.351 . S
C595 N596 1.373 . S
C595 H623 0.930 . S
N596 C595 1.373 . S
N596 C598 1.340 . S
N597 C594 1.368 . S
N597 C598 1.321 . S
N597 Co600 2.135 . S
C598 N596 1.340 . S
C598 N597 1.321 . S
C598 H622 0.930 . S
H599 C594 0.931 . S
Co600 N597 2.135 . S
Co600 N603 2.140 . S
Co600 O608 2.055 . S
Co600 O611 2.039 . S
Co600 N614 2.140 . S
C601 O602 1.227 . S
C601 O611 1.265 1_655 S
O602 C601 1.227 . S
N603 Co600 2.140 . S
N603 C605 1.352 1_455 S
N603 C606 1.315 . S
C604 C605 1.338 . S
C604 N607 1.377 . S
C604 H624 0.930 . S
C605 N603 1.352 1_655 S
C605 C604 1.338 . S
C605 H609 0.931 . S
C606 N603 1.315 . S
C606 N607 1.344 1_455 S
C606 H610 0.930 . S
N607 C604 1.377 . S
N607 C606 1.344 1_655 S
O608 Co600 2.055 . S
O608 C612 1.253 . S
H609 C605 0.931 . S
H610 C606 0.930 . S
O611 Co600 2.039 . S
O611 C601 1.265 1_455 S
C612 O608 1.253 . S
C612 O613 1.227 . S
O613 C612 1.227 . S
N614 Co600 2.140 . S
N614 C617 1.346 . S
N614 C618 1.345 . S
C615 C616 1.387 . S
C615 C619 1.391 . S
C616 C615 1.387 . S
C616 C617 1.369 . S
C616 H625 0.929 . S
C617 N614 1.346 . S
C617 C616 1.369 . S
C617 H620 0.928 . S
C618 N614 1.345 . S
C618 C619 1.371 . S
C618 H621 0.931 . S
C619 C615 1.391 . S
C619 C618 1.371 . S
C619 H626 0.930 . S
H620 C617 0.928 . S
H621 C618 0.931 . S
H622 C598 0.930 . S
H623 C595 0.930 . S
H624 C604 0.930 . S
H625 C616 0.929 . S
H626 C619 0.930 . S
C627 C628 1.351 . S
C627 N630 1.368 . S
C627 H632 0.931 . S
C628 C627 1.351 . S
C628 N629 1.373 . S
C628 H656 0.930 . S
N629 C628 1.373 . S
N629 C631 1.340 . S
N630 C627 1.368 . S
N630 C631 1.321 . S
N630 Co633 2.135 . S
C631 N629 1.340 . S
C631 N630 1.321 . S
C631 H655 0.930 . S
H632 C627 0.931 . S
Co633 N630 2.135 . S
Co633 N636 2.121 . S
Co633 O641 2.055 . S
Co633 O644 2.039 . S
Co633 N647 2.140 . S
C634 O635 1.227 . S
C634 O644 1.265 . S
O635 C634 1.227 . S
N636 Co633 2.121 . S
N636 C638 1.375 . S
N636 C639 1.313 . S
C637 C638 1.338 . S
C637 N640 1.377 . S
C637 H657 0.930 . S
C638 N636 1.375 . S
C638 C637 1.338 . S
C638 H642 0.931 . S
C639 N636 1.313 . S
C639 N640 1.344 . S
C639 H643 0.930 . S
N640 C637 1.377 . S
N640 C639 1.344 . S
O641 Co633 2.055 . S
O641 C645 1.253 . S
H642 C638 0.931 . S
H643 C639 0.930 . S
O644 Co633 2.039 . S
O644 C634 1.265 . S
C645 O641 1.253 . S
C645 O646 1.227 . S
O646 C645 1.227 . S
N647 Co633 2.140 . S
N647 C650 1.346 . S
N647 C651 1.345 . S
C648 C649 1.387 . S
C648 C652 1.391 . S
C649 C648 1.387 . S
C649 C650 1.369 . S
C649 H658 0.929 . S
C650 N647 1.346 . S
C650 C649 1.369 . S
C650 H653 0.928 . S
C651 N647 1.345 . S
C651 C652 1.371 . S
C651 H654 0.931 . S
C652 C648 1.391 . S
C652 C651 1.371 . S
C652 H659 0.930 . S
H653 C650 0.928 . S
H654 C651 0.931 . S
H655 C631 0.930 . S
H656 C628 0.930 . S
H657 C637 0.930 . S
H658 C649 0.929 . S
H659 C652 0.930 . S
C660 C661 1.351 . S
C660 N663 1.368 . S
C660 H665 0.931 . S
C661 C660 1.351 . S
C661 N662 1.373 . S
C661 H689 0.930 . S
N662 C661 1.373 . S
N662 C664 1.340 . S
N663 C660 1.368 . S
N663 C664 1.321 . S
N663 Co666 2.135 . S
C664 N662 1.340 . S
C664 N663 1.321 . S
C664 H688 0.930 . S
H665 C660 0.931 . S
Co666 N663 2.135 . S
Co666 N669 2.121 . S
Co666 O674 2.055 . S
Co666 O677 2.039 . S
Co666 N680 2.140 . S
C667 O668 1.227 . S
C667 O677 1.265 . S
O668 C667 1.227 . S
N669 Co666 2.121 . S
N669 C671 1.375 . S
N669 C672 1.313 . S
C670 C671 1.338 . S
C670 N673 1.377 . S
C670 H690 0.930 . S
C671 N669 1.375 . S
C671 C670 1.338 . S
C671 H675 0.931 . S
C672 N669 1.313 . S
C672 N673 1.344 . S
C672 H676 0.930 . S
N673 C670 1.377 . S
N673 C672 1.344 . S
O674 Co666 2.055 . S
O674 C678 1.253 . S
H675 C671 0.931 . S
H676 C672 0.930 . S
O677 Co666 2.039 . S
O677 C667 1.265 . S
C678 O674 1.253 . S
C678 O679 1.227 . S
O679 C678 1.227 . S
N680 Co666 2.140 . S
N680 C683 1.346 . S
N680 C684 1.345 . S
C681 C682 1.387 . S
C681 C685 1.391 . S
C682 C681 1.387 . S
C682 C683 1.369 . S
C682 H691 0.929 . S
C683 N680 1.346 . S
C683 C682 1.369 . S
C683 H686 0.928 . S
C684 N680 1.345 . S
C684 C685 1.371 . S
C684 H687 0.931 . S
C685 C681 1.391 . S
C685 C684 1.371 . S
C685 H692 0.930 . S
H686 C683 0.928 . S
H687 C684 0.931 . S
H688 C664 0.930 . S
H689 C661 0.930 . S
H690 C670 0.930 . S
H691 C682 0.929 . S
H692 C685 0.930 . S
C693 C694 1.351 . S
C693 N696 1.368 . S
C693 H698 0.931 . S
C694 C693 1.351 . S
C694 N695 1.373 . S
C694 H722 0.930 . S
N695 C694 1.373 . S
N695 C697 1.340 . S
N696 C693 1.368 . S
N696 C697 1.321 . S
N696 Co699 2.135 . S
C697 N695 1.340 . S
C697 N696 1.321 . S
C697 H721 0.930 . S
H698 C693 0.931 . S
Co699 N696 2.135 . S
Co699 N702 2.121 . S
Co699 O707 2.055 . S
Co699 O710 2.039 . S
Co699 N713 2.140 . S
C700 O701 1.227 . S
C700 O710 1.265 . S
O701 C700 1.227 . S
N702 Co699 2.121 . S
N702 C704 1.375 . S
N702 C705 1.313 . S
C703 C704 1.338 . S
C703 N706 1.377 . S
C703 H723 0.930 . S
C704 N702 1.375 . S
C704 C703 1.338 . S
C704 H708 0.931 . S
C705 N702 1.313 . S
C705 N706 1.344 . S
C705 H709 0.930 . S
N706 C703 1.377 . S
N706 C705 1.344 . S
O707 Co699 2.055 . S
O707 C711 1.253 . S
H708 C704 0.931 . S
H709 C705 0.930 . S
O710 Co699 2.039 . S
O710 C700 1.265 . S
C711 O707 1.253 . S
C711 O712 1.227 . S
O712 C711 1.227 . S
N713 Co699 2.140 . S
N713 C716 1.346 . S
N713 C717 1.345 . S
C714 C715 1.387 . S
C714 C718 1.391 . S
C715 C714 1.387 . S
C715 C716 1.369 . S
C715 H724 0.929 . S
C716 N713 1.346 . S
C716 C715 1.369 . S
C716 H719 0.928 . S
C717 N713 1.345 . S
C717 C718 1.371 . S
C717 H720 0.931 . S
C718 C714 1.391 . S
C718 C717 1.371 . S
C718 H725 0.930 . S
H719 C716 0.928 . S
H720 C717 0.931 . S
H721 C697 0.930 . S
H722 C694 0.930 . S
H723 C703 0.930 . S
H724 C715 0.929 . S
H725 C718 0.930 . S
C726 C727 1.351 . S
C726 N729 1.368 . S
C726 H731 0.931 . S
C727 C726 1.351 . S
C727 N728 1.373 . S
C727 H755 0.930 . S
N728 C727 1.373 . S
N728 C730 1.340 . S
N729 C726 1.368 . S
N729 C730 1.321 . S
N729 Co732 2.135 . S
C730 N728 1.340 . S
C730 N729 1.321 . S
C730 H754 0.930 . S
H731 C726 0.931 . S
Co732 N729 2.135 . S
Co732 N735 2.140 . S
Co732 O740 2.055 . S
Co732 O743 2.039 . S
Co732 N746 2.140 . S
C733 O734 1.227 . S
C733 O743 1.265 1_655 S
O734 C733 1.227 . S
N735 Co732 2.140 . S
N735 C737 1.352 1_455 S
N735 C738 1.315 . S
C736 C737 1.338 . S
C736 N739 1.377 . S
C736 H756 0.930 . S
C737 N735 1.352 1_655 S
C737 C736 1.338 . S
C737 H741 0.931 . S
C738 N735 1.315 . S
C738 N739 1.344 1_455 S
C738 H742 0.930 . S
N739 C736 1.377 . S
N739 C738 1.344 1_655 S
O740 Co732 2.055 . S
O740 C744 1.253 . S
H741 C737 0.931 . S
H742 C738 0.930 . S
O743 Co732 2.039 . S
O743 C733 1.265 1_455 S
C744 O740 1.253 . S
C744 O745 1.227 . S
O745 C744 1.227 . S
N746 Co732 2.140 . S
N746 C749 1.346 . S
N746 C750 1.345 . S
C747 C748 1.387 . S
C747 C751 1.391 . S
C748 C747 1.387 . S
C748 C749 1.369 . S
C748 H757 0.929 . S
C749 N746 1.346 . S
C749 C748 1.369 . S
C749 H752 0.928 . S
C750 N746 1.345 . S
C750 C751 1.371 . S
C750 H753 0.931 . S
C751 C747 1.391 . S
C751 C750 1.371 . S
C751 H758 0.930 . S
H752 C749 0.928 . S
H753 C750 0.931 . S
H754 C730 0.930 . S
H755 C727 0.930 . S
H756 C736 0.930 . S
H757 C748 0.929 . S
H758 C751 0.930 . S
C759 C760 1.351 . S
C759 N762 1.368 . S
C759 H764 0.931 . S
C760 C759 1.351 . S
C760 N761 1.373 . S
C760 H788 0.930 . S
N761 C760 1.373 . S
N761 C763 1.340 . S
N762 C759 1.368 . S
N762 C763 1.321 . S
N762 Co765 2.135 . S
C763 N761 1.340 . S
C763 N762 1.321 . S
C763 H787 0.930 . S
H764 C759 0.931 . S
Co765 N762 2.135 . S
Co765 N768 2.140 . S
Co765 O773 2.055 . S
Co765 O776 2.039 . S
Co765 N779 2.140 . S
C766 O767 1.227 . S
C766 O776 1.265 1_455 S
O767 C766 1.227 . S
N768 Co765 2.140 . S
N768 C770 1.352 1_655 S
N768 C771 1.315 . S
C769 C770 1.338 . S
C769 N772 1.377 . S
C769 H789 0.930 . S
C770 N768 1.352 1_455 S
C770 C769 1.338 . S
C770 H774 0.931 . S
C771 N768 1.315 . S
C771 N772 1.344 1_655 S
C771 H775 0.930 . S
N772 C769 1.377 . S
N772 C771 1.344 1_455 S
O773 Co765 2.055 . S
O773 C777 1.253 . S
H774 C770 0.931 . S
H775 C771 0.930 . S
O776 Co765 2.039 . S
O776 C766 1.265 1_655 S
C777 O773 1.253 . S
C777 O778 1.227 . S
O778 C777 1.227 . S
N779 Co765 2.140 . S
N779 C782 1.346 . S
N779 C783 1.345 . S
C780 C781 1.387 . S
C780 C784 1.391 . S
C781 C780 1.387 . S
C781 C782 1.369 . S
C781 H790 0.929 . S
C782 N779 1.346 . S
C782 C781 1.369 . S
C782 H785 0.928 . S
C783 N779 1.345 . S
C783 C784 1.371 . S
C783 H786 0.931 . S
C784 C780 1.391 . S
C784 C783 1.371 . S
C784 H791 0.930 . S
H785 C782 0.928 . S
H786 C783 0.931 . S
H787 C763 0.930 . S
H788 C760 0.930 . S
H789 C769 0.930 . S
H790 C781 0.929 . S
H791 C784 0.930 . S
C792 C793 1.351 . S
C792 N795 1.368 . S
C792 H797 0.931 . S
C793 C792 1.351 . S
C793 N794 1.373 . S
C793 H821 0.930 . S
N794 C793 1.373 . S
N794 C796 1.340 . S
N795 C792 1.368 . S
N795 C796 1.321 . S
N795 Co798 2.135 . S
C796 N794 1.340 . S
C796 N795 1.321 . S
C796 H820 0.930 . S
H797 C792 0.931 . S
Co798 N795 2.135 . S
Co798 N801 2.121 . S
Co798 O806 2.055 . S
Co798 O809 2.039 . S
Co798 N812 2.140 . S
C799 O800 1.227 . S
C799 O809 1.265 . S
O800 C799 1.227 . S
N801 Co798 2.121 . S
N801 C803 1.375 . S
N801 C804 1.313 . S
C802 C803 1.338 . S
C802 N805 1.377 . S
C802 H822 0.930 . S
C803 N801 1.375 . S
C803 C802 1.338 . S
C803 H807 0.931 . S
C804 N801 1.313 . S
C804 N805 1.344 . S
C804 H808 0.930 . S
N805 C802 1.377 . S
N805 C804 1.344 . S
O806 Co798 2.055 . S
O806 C810 1.253 . S
H807 C803 0.931 . S
H808 C804 0.930 . S
O809 Co798 2.039 . S
O809 C799 1.265 . S
C810 O806 1.253 . S
C810 O811 1.227 . S
O811 C810 1.227 . S
N812 Co798 2.140 . S
N812 C815 1.346 . S
N812 C816 1.345 . S
C813 C814 1.387 . S
C813 C817 1.391 . S
C814 C813 1.387 . S
C814 C815 1.369 . S
C814 H823 0.929 . S
C815 N812 1.346 . S
C815 C814 1.369 . S
C815 H818 0.928 . S
C816 N812 1.345 . S
C816 C817 1.371 . S
C816 H819 0.931 . S
C817 C813 1.391 . S
C817 C816 1.371 . S
C817 H824 0.930 . S
H818 C815 0.928 . S
H819 C816 0.931 . S
H820 C796 0.930 . S
H821 C793 0.930 . S
H822 C802 0.930 . S
H823 C814 0.929 . S
H824 C817 0.930 . S
C825 C826 1.351 . S
C825 N828 1.368 . S
C825 H830 0.931 . S
C826 C825 1.351 . S
C826 N827 1.373 . S
C826 H854 0.930 . S
N827 C826 1.373 . S
N827 C829 1.340 . S
N828 C825 1.368 . S
N828 C829 1.321 . S
N828 Co831 2.135 . S
C829 N827 1.340 . S
C829 N828 1.321 . S
C829 H853 0.930 . S
H830 C825 0.931 . S
Co831 N828 2.135 . S
Co831 N834 2.121 . S
Co831 O839 2.055 . S
Co831 O842 2.039 . S
Co831 N845 2.140 . S
C832 O833 1.227 . S
C832 O842 1.265 . S
O833 C832 1.227 . S
N834 Co831 2.121 . S
N834 C836 1.375 . S
N834 C837 1.313 . S
C835 C836 1.338 . S
C835 N838 1.377 . S
C835 H855 0.930 . S
C836 N834 1.375 . S
C836 C835 1.338 . S
C836 H840 0.931 . S
C837 N834 1.313 . S
C837 N838 1.344 . S
C837 H841 0.930 . S
N838 C835 1.377 . S
N838 C837 1.344 . S
O839 Co831 2.055 . S
O839 C843 1.253 . S
H840 C836 0.931 . S
H841 C837 0.930 . S
O842 Co831 2.039 . S
O842 C832 1.265 . S
C843 O839 1.253 . S
C843 O844 1.227 . S
O844 C843 1.227 . S
N845 Co831 2.140 . S
N845 C848 1.346 . S
N845 C849 1.345 . S
C846 C847 1.387 . S
C846 C850 1.391 . S
C847 C846 1.387 . S
C847 C848 1.369 . S
C847 H856 0.929 . S
C848 N845 1.346 . S
C848 C847 1.369 . S
C848 H851 0.928 . S
C849 N845 1.345 . S
C849 C850 1.371 . S
C849 H852 0.931 . S
C850 C846 1.391 . S
C850 C849 1.371 . S
C850 H857 0.930 . S
H851 C848 0.928 . S
H852 C849 0.931 . S
H853 C829 0.930 . S
H854 C826 0.930 . S
H855 C835 0.930 . S
H856 C847 0.929 . S
H857 C850 0.930 . S
C858 C859 1.351 . S
C858 N861 1.368 . S
C858 H863 0.931 . S
C859 C858 1.351 . S
C859 N860 1.373 . S
C859 H887 0.930 . S
N860 C859 1.373 . S
N860 C862 1.340 . S
N861 C858 1.368 . S
N861 C862 1.321 . S
N861 Co864 2.135 . S
C862 N860 1.340 . S
C862 N861 1.321 . S
C862 H886 0.930 . S
H863 C858 0.931 . S
Co864 N861 2.135 . S
Co864 N867 2.121 . S
Co864 O872 2.055 . S
Co864 O875 2.039 . S
Co864 N878 2.140 . S
C865 O866 1.227 . S
C865 O875 1.265 . S
O866 C865 1.227 . S
N867 Co864 2.121 . S
N867 C869 1.375 . S
N867 C870 1.313 . S
C868 C869 1.338 . S
C868 N871 1.377 . S
C868 H888 0.930 . S
C869 N867 1.375 . S
C869 C868 1.338 . S
C869 H873 0.931 . S
C870 N867 1.313 . S
C870 N871 1.344 . S
C870 H874 0.930 . S
N871 C868 1.377 . S
N871 C870 1.344 . S
O872 Co864 2.055 . S
O872 C876 1.253 . S
H873 C869 0.931 . S
H874 C870 0.930 . S
O875 Co864 2.039 . S
O875 C865 1.265 . S
C876 O872 1.253 . S
C876 O877 1.227 . S
O877 C876 1.227 . S
N878 Co864 2.140 . S
N878 C881 1.346 . S
N878 C882 1.345 . S
C879 C880 1.387 . S
C879 C883 1.391 . S
C880 C879 1.387 . S
C880 C881 1.369 . S
C880 H889 0.929 . S
C881 N878 1.346 . S
C881 C880 1.369 . S
C881 H884 0.928 . S
C882 N878 1.345 . S
C882 C883 1.371 . S
C882 H885 0.931 . S
C883 C879 1.391 . S
C883 C882 1.371 . S
C883 H890 0.930 . S
H884 C881 0.928 . S
H885 C882 0.931 . S
H886 C862 0.930 . S
H887 C859 0.930 . S
H888 C868 0.930 . S
H889 C880 0.929 . S
H890 C883 0.930 . S
C891 C892 1.351 . S
C891 N894 1.368 . S
C891 H896 0.931 . S
C892 C891 1.351 . S
C892 N893 1.373 . S
C892 H920 0.930 . S
N893 C892 1.373 . S
N893 C895 1.340 . S
N894 C891 1.368 . S
N894 C895 1.321 . S
N894 Co897 2.135 . S
C895 N893 1.340 . S
C895 N894 1.321 . S
C895 H919 0.930 . S
H896 C891 0.931 . S
Co897 N894 2.135 . S
Co897 N900 2.121 . S
Co897 O905 2.055 . S
Co897 O908 2.039 . S
Co897 N911 2.140 . S
C898 O899 1.227 . S
C898 O908 1.265 . S
O899 C898 1.227 . S
N900 Co897 2.121 . S
N900 C902 1.375 . S
N900 C903 1.313 . S
C901 C902 1.338 . S
C901 N904 1.377 . S
C901 H921 0.930 . S
C902 N900 1.375 . S
C902 C901 1.338 . S
C902 H906 0.931 . S
C903 N900 1.313 . S
C903 N904 1.344 . S
C903 H907 0.930 . S
N904 C901 1.377 . S
N904 C903 1.344 . S
O905 Co897 2.055 . S
O905 C909 1.253 . S
H906 C902 0.931 . S
H907 C903 0.930 . S
O908 Co897 2.039 . S
O908 C898 1.265 . S
C909 O905 1.253 . S
C909 O910 1.227 . S
O910 C909 1.227 . S
N911 Co897 2.140 . S
N911 C914 1.346 . S
N911 C915 1.345 . S
C912 C913 1.387 . S
C912 C916 1.391 . S
C913 C912 1.387 . S
C913 C914 1.369 . S
C913 H922 0.929 . S
C914 N911 1.346 . S
C914 C913 1.369 . S
C914 H917 0.928 . S
C915 N911 1.345 . S
C915 C916 1.371 . S
C915 H918 0.931 . S
C916 C912 1.391 . S
C916 C915 1.371 . S
C916 H923 0.930 . S
H917 C914 0.928 . S
H918 C915 0.931 . S
H919 C895 0.930 . S
H920 C892 0.930 . S
H921 C901 0.930 . S
H922 C913 0.929 . S
H923 C916 0.930 . S
C924 C925 1.351 . S
C924 N927 1.368 . S
C924 H929 0.931 . S
C925 C924 1.351 . S
C925 N926 1.373 . S
C925 H953 0.930 . S
N926 C925 1.373 . S
N926 C928 1.340 . S
N927 C924 1.368 . S
N927 C928 1.321 . S
N927 Co930 2.135 . S
C928 N926 1.340 . S
C928 N927 1.321 . S
C928 H952 0.930 . S
H929 C924 0.931 . S
Co930 N927 2.135 . S
Co930 N933 2.121 . S
Co930 O938 2.055 . S
Co930 O941 2.039 . S
Co930 N944 2.140 . S
C931 O932 1.227 . S
C931 O941 1.265 . S
O932 C931 1.227 . S
N933 Co930 2.121 . S
N933 C935 1.375 . S
N933 C936 1.313 . S
C934 C935 1.338 . S
C934 N937 1.377 . S
C934 H954 0.930 . S
C935 N933 1.375 . S
C935 C934 1.338 . S
C935 H939 0.931 . S
C936 N933 1.313 . S
C936 N937 1.344 . S
C936 H940 0.930 . S
N937 C934 1.377 . S
N937 C936 1.344 . S
O938 Co930 2.055 . S
O938 C942 1.253 . S
H939 C935 0.931 . S
H940 C936 0.930 . S
O941 Co930 2.039 . S
O941 C931 1.265 . S
C942 O938 1.253 . S
C942 O943 1.227 . S
O943 C942 1.227 . S
N944 Co930 2.140 . S
N944 C947 1.346 . S
N944 C948 1.345 . S
C945 C946 1.387 . S
C945 C949 1.391 . S
C946 C945 1.387 . S
C946 C947 1.369 . S
C946 H955 0.929 . S
C947 N944 1.346 . S
C947 C946 1.369 . S
C947 H950 0.928 . S
C948 N944 1.345 . S
C948 C949 1.371 . S
C948 H951 0.931 . S
C949 C945 1.391 . S
C949 C948 1.371 . S
C949 H956 0.930 . S
H950 C947 0.928 . S
H951 C948 0.931 . S
H952 C928 0.930 . S
H953 C925 0.930 . S
H954 C934 0.930 . S
H955 C946 0.929 . S
H956 C949 0.930 . S
C957 C958 1.351 . S
C957 N960 1.368 . S
C957 H962 0.931 . S
C958 C957 1.351 . S
C958 N959 1.373 . S
C958 H986 0.930 . S
N959 C958 1.373 . S
N959 C961 1.340 . S
N960 C957 1.368 . S
N960 C961 1.321 . S
N960 Co963 2.135 . S
C961 N959 1.340 . S
C961 N960 1.321 . S
C961 H985 0.930 . S
H962 C957 0.931 . S
Co963 N960 2.135 . S
Co963 N966 2.121 . S
Co963 O971 2.055 . S
Co963 O974 2.039 . S
Co963 N977 2.140 . S
C964 O965 1.227 . S
C964 O974 1.265 . S
O965 C964 1.227 . S
N966 Co963 2.121 . S
N966 C968 1.375 . S
N966 C969 1.313 . S
C967 C968 1.338 . S
C967 N970 1.377 . S
C967 H987 0.930 . S
C968 N966 1.375 . S
C968 C967 1.338 . S
C968 H972 0.931 . S
C969 N966 1.313 . S
C969 N970 1.344 . S
C969 H973 0.930 . S
N970 C967 1.377 . S
N970 C969 1.344 . S
O971 Co963 2.055 . S
O971 C975 1.253 . S
H972 C968 0.931 . S
H973 C969 0.930 . S
O974 Co963 2.039 . S
O974 C964 1.265 . S
C975 O971 1.253 . S
C975 O976 1.227 . S
O976 C975 1.227 . S
N977 Co963 2.140 . S
N977 C980 1.346 . S
N977 C981 1.345 . S
C978 C979 1.387 . S
C978 C982 1.391 . S
C979 C978 1.387 . S
C979 C980 1.369 . S
C979 H988 0.929 . S
C980 N977 1.346 . S
C980 C979 1.369 . S
C980 H983 0.928 . S
C981 N977 1.345 . S
C981 C982 1.371 . S
C981 H984 0.931 . S
C982 C978 1.391 . S
C982 C981 1.371 . S
C982 H989 0.930 . S
H983 C980 0.928 . S
H984 C981 0.931 . S
H985 C961 0.930 . S
H986 C958 0.930 . S
H987 C967 0.930 . S
H988 C979 0.929 . S
H989 C982 0.930 . S
C990 C991 1.351 . S
C990 N993 1.368 . S
C990 H995 0.931 . S
C991 C990 1.351 . S
C991 N992 1.373 . S
C991 H1019 0.930 . S
N992 C991 1.373 . S
N992 C994 1.340 . S
N993 C990 1.368 . S
N993 C994 1.321 . S
N993 Co996 2.135 . S
C994 N992 1.340 . S
C994 N993 1.321 . S
C994 H1018 0.930 . S
H995 C990 0.931 . S
Co996 N993 2.135 . S
Co996 N999 2.121 . S
Co996 O1004 2.055 . S
Co996 O1007 2.039 . S
Co996 N1010 2.140 . S
C997 O998 1.227 . S
C997 O1007 1.265 . S
O998 C997 1.227 . S
N999 Co996 2.121 . S
N999 C1001 1.375 . S
N999 C1002 1.313 . S
C1000 C1001 1.338 . S
C1000 N1003 1.377 . S
C1000 H1020 0.930 . S
C1001 N999 1.375 . S
C1001 C1000 1.338 . S
C1001 H1005 0.931 . S
C1002 N999 1.313 . S
C1002 N1003 1.344 . S
C1002 H1006 0.930 . S
N1003 C1000 1.377 . S
N1003 C1002 1.344 . S
O1004 Co996 2.055 . S
O1004 C1008 1.253 . S
H1005 C1001 0.931 . S
H1006 C1002 0.930 . S
O1007 Co996 2.039 . S
O1007 C997 1.265 . S
C1008 O1004 1.253 . S
C1008 O1009 1.227 . S
O1009 C1008 1.227 . S
N1010 Co996 2.140 . S
N1010 C1013 1.346 . S
N1010 C1014 1.345 . S
C1011 C1012 1.387 . S
C1011 C1015 1.391 . S
C1012 C1011 1.387 . S
C1012 C1013 1.369 . S
C1012 H1021 0.929 . S
C1013 N1010 1.346 . S
C1013 C1012 1.369 . S
C1013 H1016 0.928 . S
C1014 N1010 1.345 . S
C1014 C1015 1.371 . S
C1014 H1017 0.931 . S
C1015 C1011 1.391 . S
C1015 C1014 1.371 . S
C1015 H1022 0.930 . S
H1016 C1013 0.928 . S
H1017 C1014 0.931 . S
H1018 C994 0.930 . S
H1019 C991 0.930 . S
H1020 C1000 0.930 . S
H1021 C1012 0.929 . S
H1022 C1015 0.930 . S
C1023 C1024 1.351 . S
C1023 N1026 1.368 . S
C1023 H1028 0.931 . S
C1024 C1023 1.351 . S
C1024 N1025 1.373 . S
C1024 H1052 0.930 . S
N1025 C1024 1.373 . S
N1025 C1027 1.340 . S
N1026 C1023 1.368 . S
N1026 C1027 1.321 . S
N1026 Co1029 2.135 . S
C1027 N1025 1.340 . S
C1027 N1026 1.321 . S
C1027 H1051 0.930 . S
H1028 C1023 0.931 . S
Co1029 N1026 2.135 . S
Co1029 N1032 2.121 . S
Co1029 O1037 2.055 . S
Co1029 O1040 2.039 . S
Co1029 N1043 2.140 . S
C1030 O1031 1.227 . S
C1030 O1040 1.265 . S
O1031 C1030 1.227 . S
N1032 Co1029 2.121 . S
N1032 C1034 1.375 . S
N1032 C1035 1.313 . S
C1033 C1034 1.338 . S
C1033 N1036 1.377 . S
C1033 H1053 0.930 . S
C1034 N1032 1.375 . S
C1034 C1033 1.338 . S
C1034 H1038 0.931 . S
C1035 N1032 1.313 . S
C1035 N1036 1.344 . S
C1035 H1039 0.930 . S
N1036 C1033 1.377 . S
N1036 C1035 1.344 . S
O1037 Co1029 2.055 . S
O1037 C1041 1.253 . S
H1038 C1034 0.931 . S
H1039 C1035 0.930 . S
O1040 Co1029 2.039 . S
O1040 C1030 1.265 . S
C1041 O1037 1.253 . S
C1041 O1042 1.227 . S
O1042 C1041 1.227 . S
N1043 Co1029 2.140 . S
N1043 C1046 1.346 . S
N1043 C1047 1.345 . S
C1044 C1045 1.387 . S
C1044 C1048 1.391 . S
C1045 C1044 1.387 . S
C1045 C1046 1.369 . S
C1045 H1054 0.929 . S
C1046 N1043 1.346 . S
C1046 C1045 1.369 . S
C1046 H1049 0.928 . S
C1047 N1043 1.345 . S
C1047 C1048 1.371 . S
C1047 H1050 0.931 . S
C1048 C1044 1.391 . S
C1048 C1047 1.371 . S
C1048 H1055 0.930 . S
H1049 C1046 0.928 . S
H1050 C1047 0.931 . S
H1051 C1027 0.930 . S
H1052 C1024 0.930 . S
H1053 C1033 0.930 . S
H1054 C1045 0.929 . S
H1055 C1048 0.930 . S
C1056 C1057 1.351 . S
C1056 N1059 1.368 . S
C1056 H1061 0.931 . S
C1057 C1056 1.351 . S
C1057 N1058 1.373 . S
C1057 H1085 0.930 . S
N1058 C1057 1.373 . S
N1058 C1060 1.340 . S
N1059 C1056 1.368 . S
N1059 C1060 1.321 . S
N1059 Co1062 2.135 . S
C1060 N1058 1.340 . S
C1060 N1059 1.321 . S
C1060 H1084 0.930 . S
H1061 C1056 0.931 . S
Co1062 N1059 2.135 . S
Co1062 N1065 2.121 . S
Co1062 O1070 2.055 . S
Co1062 O1073 2.039 . S
Co1062 N1076 2.140 . S
C1063 O1064 1.227 . S
C1063 O1073 1.265 . S
O1064 C1063 1.227 . S
N1065 Co1062 2.121 . S
N1065 C1067 1.375 . S
N1065 C1068 1.313 . S
C1066 C1067 1.338 . S
C1066 N1069 1.377 . S
C1066 H1086 0.930 . S
C1067 N1065 1.375 . S
C1067 C1066 1.338 . S
C1067 H1071 0.931 . S
C1068 N1065 1.313 . S
C1068 N1069 1.344 . S
C1068 H1072 0.930 . S
N1069 C1066 1.377 . S
N1069 C1068 1.344 . S
O1070 Co1062 2.055 . S
O1070 C1074 1.253 . S
H1071 C1067 0.931 . S
H1072 C1068 0.930 . S
O1073 Co1062 2.039 . S
O1073 C1063 1.265 . S
C1074 O1070 1.253 . S
C1074 O1075 1.227 . S
O1075 C1074 1.227 . S
N1076 Co1062 2.140 . S
N1076 C1079 1.346 . S
N1076 C1080 1.345 . S
C1077 C1078 1.387 . S
C1077 C1081 1.391 . S
C1078 C1077 1.387 . S
C1078 C1079 1.369 . S
C1078 H1087 0.929 . S
C1079 N1076 1.346 . S
C1079 C1078 1.369 . S
C1079 H1082 0.928 . S
C1080 N1076 1.345 . S
C1080 C1081 1.371 . S
C1080 H1083 0.931 . S
C1081 C1077 1.391 . S
C1081 C1080 1.371 . S
C1081 H1088 0.930 . S
H1082 C1079 0.928 . S
H1083 C1080 0.931 . S
H1084 C1060 0.930 . S
H1085 C1057 0.930 . S
H1086 C1066 0.930 . S
H1087 C1078 0.929 . S
H1088 C1081 0.930 . S
C1089 C1090 1.351 . S
C1089 N1092 1.368 . S
C1089 H1094 0.931 . S
C1090 C1089 1.351 . S
C1090 N1091 1.373 . S
C1090 H1118 0.930 . S
N1091 C1090 1.373 . S
N1091 C1093 1.340 . S
N1092 C1089 1.368 . S
N1092 C1093 1.321 . S
N1092 Co1095 2.135 . S
C1093 N1091 1.340 . S
C1093 N1092 1.321 . S
C1093 H1117 0.930 . S
H1094 C1089 0.931 . S
Co1095 N1092 2.135 . S
Co1095 N1098 2.140 . S
Co1095 O1103 2.055 . S
Co1095 O1106 2.039 . S
Co1095 N1109 2.140 . S
C1096 O1097 1.227 . S
C1096 O1106 1.265 1_565 S
O1097 C1096 1.227 . S
N1098 Co1095 2.140 . S
N1098 C1100 1.352 1_545 S
N1098 C1101 1.315 . S
C1099 C1100 1.338 . S
C1099 N1102 1.377 . S
C1099 H1119 0.930 . S
C1100 N1098 1.352 1_565 S
C1100 C1099 1.338 . S
C1100 H1104 0.931 . S
C1101 N1098 1.315 . S
C1101 N1102 1.344 1_545 S
C1101 H1105 0.930 . S
N1102 C1099 1.377 . S
N1102 C1101 1.344 1_565 S
O1103 Co1095 2.055 . S
O1103 C1107 1.253 . S
H1104 C1100 0.931 . S
H1105 C1101 0.930 . S
O1106 Co1095 2.039 . S
O1106 C1096 1.265 1_545 S
C1107 O1103 1.253 . S
C1107 O1108 1.227 . S
O1108 C1107 1.227 . S
N1109 Co1095 2.140 . S
N1109 C1112 1.346 . S
N1109 C1113 1.345 . S
C1110 C1111 1.387 . S
C1110 C1114 1.391 . S
C1111 C1110 1.387 . S
C1111 C1112 1.369 . S
C1111 H1120 0.929 . S
C1112 N1109 1.346 . S
C1112 C1111 1.369 . S
C1112 H1115 0.928 . S
C1113 N1109 1.345 . S
C1113 C1114 1.371 . S
C1113 H1116 0.931 . S
C1114 C1110 1.391 . S
C1114 C1113 1.371 . S
C1114 H1121 0.930 . S
H1115 C1112 0.928 . S
H1116 C1113 0.931 . S
H1117 C1093 0.930 . S
H1118 C1090 0.930 . S
H1119 C1099 0.930 . S
H1120 C1111 0.929 . S
H1121 C1114 0.930 . S
C1122 C1123 1.351 . S
C1122 N1125 1.368 . S
C1122 H1127 0.931 . S
C1123 C1122 1.351 . S
C1123 N1124 1.373 . S
C1123 H1151 0.930 . S
N1124 C1123 1.373 . S
N1124 C1126 1.340 . S
N1125 C1122 1.368 . S
N1125 C1126 1.321 . S
N1125 Co1128 2.135 . S
C1126 N1124 1.340 . S
C1126 N1125 1.321 . S
C1126 H1150 0.930 . S
H1127 C1122 0.931 . S
Co1128 N1125 2.135 . S
Co1128 N1131 2.121 . S
Co1128 O1136 2.055 . S
Co1128 O1139 2.039 . S
Co1128 N1142 2.140 . S
C1129 O1130 1.227 . S
C1129 O1139 1.265 . S
O1130 C1129 1.227 . S
N1131 Co1128 2.121 . S
N1131 C1133 1.375 . S
N1131 C1134 1.313 . S
C1132 C1133 1.338 . S
C1132 N1135 1.377 . S
C1132 H1152 0.930 . S
C1133 N1131 1.375 . S
C1133 C1132 1.338 . S
C1133 H1137 0.931 . S
C1134 N1131 1.313 . S
C1134 N1135 1.344 . S
C1134 H1138 0.930 . S
N1135 C1132 1.377 . S
N1135 C1134 1.344 . S
O1136 Co1128 2.055 . S
O1136 C1140 1.253 . S
H1137 C1133 0.931 . S
H1138 C1134 0.930 . S
O1139 Co1128 2.039 . S
O1139 C1129 1.265 . S
C1140 O1136 1.253 . S
C1140 O1141 1.227 . S
O1141 C1140 1.227 . S
N1142 Co1128 2.140 . S
N1142 C1145 1.346 . S
N1142 C1146 1.345 . S
C1143 C1144 1.387 . S
C1143 C1147 1.391 . S
C1144 C1143 1.387 . S
C1144 C1145 1.369 . S
C1144 H1153 0.929 . S
C1145 N1142 1.346 . S
C1145 C1144 1.369 . S
C1145 H1148 0.928 . S
C1146 N1142 1.345 . S
C1146 C1147 1.371 . S
C1146 H1149 0.931 . S
C1147 C1143 1.391 . S
C1147 C1146 1.371 . S
C1147 H1154 0.930 . S
H1148 C1145 0.928 . S
H1149 C1146 0.931 . S
H1150 C1126 0.930 . S
H1151 C1123 0.930 . S
H1152 C1132 0.930 . S
H1153 C1144 0.929 . S
H1154 C1147 0.930 . S
C1155 C1156 1.351 . S
C1155 N1158 1.368 . S
C1155 H1160 0.931 . S
C1156 C1155 1.351 . S
C1156 N1157 1.373 . S
C1156 H1184 0.930 . S
N1157 C1156 1.373 . S
N1157 C1159 1.340 . S
N1158 C1155 1.368 . S
N1158 C1159 1.321 . S
N1158 Co1161 2.135 . S
C1159 N1157 1.340 . S
C1159 N1158 1.321 . S
C1159 H1183 0.930 . S
H1160 C1155 0.931 . S
Co1161 N1158 2.135 . S
Co1161 N1164 2.121 . S
Co1161 O1169 2.055 . S
Co1161 O1172 2.039 . S
Co1161 N1175 2.140 . S
C1162 O1163 1.227 . S
C1162 O1172 1.265 . S
O1163 C1162 1.227 . S
N1164 Co1161 2.121 . S
N1164 C1166 1.375 . S
N1164 C1167 1.313 . S
C1165 C1166 1.338 . S
C1165 N1168 1.377 . S
C1165 H1185 0.930 . S
C1166 N1164 1.375 . S
C1166 C1165 1.338 . S
C1166 H1170 0.931 . S
C1167 N1164 1.313 . S
C1167 N1168 1.344 . S
C1167 H1171 0.930 . S
N1168 C1165 1.377 . S
N1168 C1167 1.344 . S
O1169 Co1161 2.055 . S
O1169 C1173 1.253 . S
H1170 C1166 0.931 . S
H1171 C1167 0.930 . S
O1172 Co1161 2.039 . S
O1172 C1162 1.265 . S
C1173 O1169 1.253 . S
C1173 O1174 1.227 . S
O1174 C1173 1.227 . S
N1175 Co1161 2.140 . S
N1175 C1178 1.346 . S
N1175 C1179 1.345 . S
C1176 C1177 1.387 . S
C1176 C1180 1.391 . S
C1177 C1176 1.387 . S
C1177 C1178 1.369 . S
C1177 H1186 0.929 . S
C1178 N1175 1.346 . S
C1178 C1177 1.369 . S
C1178 H1181 0.928 . S
C1179 N1175 1.345 . S
C1179 C1180 1.371 . S
C1179 H1182 0.931 . S
C1180 C1176 1.391 . S
C1180 C1179 1.371 . S
C1180 H1187 0.930 . S
H1181 C1178 0.928 . S
H1182 C1179 0.931 . S
H1183 C1159 0.930 . S
H1184 C1156 0.930 . S
H1185 C1165 0.930 . S
H1186 C1177 0.929 . S
H1187 C1180 0.930 . S
C1188 C1189 1.351 . S
C1188 N1191 1.368 . S
C1188 H1193 0.931 . S
C1189 C1188 1.351 . S
C1189 N1190 1.373 . S
C1189 H1217 0.930 . S
N1190 C1189 1.373 . S
N1190 C1192 1.340 . S
N1191 C1188 1.368 . S
N1191 C1192 1.321 . S
N1191 Co1194 2.135 . S
C1192 N1190 1.340 . S
C1192 N1191 1.321 . S
C1192 H1216 0.930 . S
H1193 C1188 0.931 . S
Co1194 N1191 2.135 . S
Co1194 N1197 2.121 . S
Co1194 O1202 2.055 . S
Co1194 O1205 2.039 . S
Co1194 N1208 2.140 . S
C1195 O1196 1.227 . S
C1195 O1205 1.265 . S
O1196 C1195 1.227 . S
N1197 Co1194 2.121 . S
N1197 C1199 1.375 . S
N1197 C1200 1.313 . S
C1198 C1199 1.338 . S
C1198 N1201 1.377 . S
C1198 H1218 0.930 . S
C1199 N1197 1.375 . S
C1199 C1198 1.338 . S
C1199 H1203 0.931 . S
C1200 N1197 1.313 . S
C1200 N1201 1.344 . S
C1200 H1204 0.930 . S
N1201 C1198 1.377 . S
N1201 C1200 1.344 . S
O1202 Co1194 2.055 . S
O1202 C1206 1.253 . S
H1203 C1199 0.931 . S
H1204 C1200 0.930 . S
O1205 Co1194 2.039 . S
O1205 C1195 1.265 . S
C1206 O1202 1.253 . S
C1206 O1207 1.227 . S
O1207 C1206 1.227 . S
N1208 Co1194 2.140 . S
N1208 C1211 1.346 . S
N1208 C1212 1.345 . S
C1209 C1210 1.387 . S
C1209 C1213 1.391 . S
C1210 C1209 1.387 . S
C1210 C1211 1.369 . S
C1210 H1219 0.929 . S
C1211 N1208 1.346 . S
C1211 C1210 1.369 . S
C1211 H1214 0.928 . S
C1212 N1208 1.345 . S
C1212 C1213 1.371 . S
C1212 H1215 0.931 . S
C1213 C1209 1.391 . S
C1213 C1212 1.371 . S
C1213 H1220 0.930 . S
H1214 C1211 0.928 . S
H1215 C1212 0.931 . S
H1216 C1192 0.930 . S
H1217 C1189 0.930 . S
H1218 C1198 0.930 . S
H1219 C1210 0.929 . S
H1220 C1213 0.930 . S
C1221 C1222 1.351 . S
C1221 N1224 1.368 . S
C1221 H1226 0.931 . S
C1222 C1221 1.351 . S
C1222 N1223 1.373 . S
C1222 H1250 0.930 . S
N1223 C1222 1.373 . S
N1223 C1225 1.340 . S
N1224 C1221 1.368 . S
N1224 C1225 1.321 . S
N1224 Co1227 2.135 . S
C1225 N1223 1.340 . S
C1225 N1224 1.321 . S
C1225 H1249 0.930 . S
H1226 C1221 0.931 . S
Co1227 N1224 2.135 . S
Co1227 N1230 2.140 . S
Co1227 O1235 2.055 . S
Co1227 O1238 2.039 . S
Co1227 N1241 2.140 . S
C1228 O1229 1.227 . S
C1228 O1238 1.265 1_565 S
O1229 C1228 1.227 . S
N1230 Co1227 2.140 . S
N1230 C1232 1.352 1_545 S
N1230 C1233 1.315 . S
C1231 C1232 1.338 . S
C1231 N1234 1.377 . S
C1231 H1251 0.930 . S
C1232 N1230 1.352 1_565 S
C1232 C1231 1.338 . S
C1232 H1236 0.931 . S
C1233 N1230 1.315 . S
C1233 N1234 1.344 1_545 S
C1233 H1237 0.930 . S
N1234 C1231 1.377 . S
N1234 C1233 1.344 1_565 S
O1235 Co1227 2.055 . S
O1235 C1239 1.253 . S
H1236 C1232 0.931 . S
H1237 C1233 0.930 . S
O1238 Co1227 2.039 . S
O1238 C1228 1.265 1_545 S
C1239 O1235 1.253 . S
C1239 O1240 1.227 . S
O1240 C1239 1.227 . S
N1241 Co1227 2.140 . S
N1241 C1244 1.346 . S
N1241 C1245 1.345 . S
C1242 C1243 1.387 . S
C1242 C1246 1.391 . S
C1243 C1242 1.387 . S
C1243 C1244 1.369 . S
C1243 H1252 0.929 . S
C1244 N1241 1.346 . S
C1244 C1243 1.369 . S
C1244 H1247 0.928 . S
C1245 N1241 1.345 . S
C1245 C1246 1.371 . S
C1245 H1248 0.931 . S
C1246 C1242 1.391 . S
C1246 C1245 1.371 . S
C1246 H1253 0.930 . S
H1247 C1244 0.928 . S
H1248 C1245 0.931 . S
H1249 C1225 0.930 . S
H1250 C1222 0.930 . S
H1251 C1231 0.930 . S
H1252 C1243 0.929 . S
H1253 C1246 0.930 . S
C1254 C1255 1.351 . S
C1254 N1257 1.368 . S
C1254 H1259 0.931 . S
C1255 C1254 1.351 . S
C1255 N1256 1.373 . S
C1255 H1283 0.930 . S
N1256 C1255 1.373 . S
N1256 C1258 1.340 . S
N1257 C1254 1.368 . S
N1257 C1258 1.321 . S
N1257 Co1260 2.135 . S
C1258 N1256 1.340 . S
C1258 N1257 1.321 . S
C1258 H1282 0.930 . S
H1259 C1254 0.931 . S
Co1260 N1257 2.135 . S
Co1260 N1263 2.121 . S
Co1260 O1268 2.055 . S
Co1260 O1271 2.039 . S
Co1260 N1274 2.140 . S
C1261 O1262 1.227 . S
C1261 O1271 1.265 . S
O1262 C1261 1.227 . S
N1263 Co1260 2.121 . S
N1263 C1265 1.375 . S
N1263 C1266 1.313 . S
C1264 C1265 1.338 . S
C1264 N1267 1.377 . S
C1264 H1284 0.930 . S
C1265 N1263 1.375 . S
C1265 C1264 1.338 . S
C1265 H1269 0.931 . S
C1266 N1263 1.313 . S
C1266 N1267 1.344 . S
C1266 H1270 0.930 . S
N1267 C1264 1.377 . S
N1267 C1266 1.344 . S
O1268 Co1260 2.055 . S
O1268 C1272 1.253 . S
H1269 C1265 0.931 . S
H1270 C1266 0.930 . S
O1271 Co1260 2.039 . S
O1271 C1261 1.265 . S
C1272 O1268 1.253 . S
C1272 O1273 1.227 . S
O1273 C1272 1.227 . S
N1274 Co1260 2.140 . S
N1274 C1277 1.346 . S
N1274 C1278 1.345 . S
C1275 C1276 1.387 . S
C1275 C1279 1.391 . S
C1276 C1275 1.387 . S
C1276 C1277 1.369 . S
C1276 H1285 0.929 . S
C1277 N1274 1.346 . S
C1277 C1276 1.369 . S
C1277 H1280 0.928 . S
C1278 N1274 1.345 . S
C1278 C1279 1.371 . S
C1278 H1281 0.931 . S
C1279 C1275 1.391 . S
C1279 C1278 1.371 . S
C1279 H1286 0.930 . S
H1280 C1277 0.928 . S
H1281 C1278 0.931 . S
H1282 C1258 0.930 . S
H1283 C1255 0.930 . S
H1284 C1264 0.930 . S
H1285 C1276 0.929 . S
H1286 C1279 0.930 . S
C1287 C1288 1.351 . S
C1287 N1290 1.368 . S
C1287 H1292 0.931 . S
C1288 C1287 1.351 . S
C1288 N1289 1.373 . S
C1288 H1316 0.930 . S
N1289 C1288 1.373 . S
N1289 C1291 1.340 . S
N1290 C1287 1.368 . S
N1290 C1291 1.321 . S
N1290 Co1293 2.135 . S
C1291 N1289 1.340 . S
C1291 N1290 1.321 . S
C1291 H1315 0.930 . S
H1292 C1287 0.931 . S
Co1293 N1290 2.135 . S
Co1293 N1296 2.121 . S
Co1293 O1301 2.055 . S
Co1293 O1304 2.039 . S
Co1293 N1307 2.140 . S
C1294 O1295 1.227 . S
C1294 O1304 1.265 . S
O1295 C1294 1.227 . S
N1296 Co1293 2.121 . S
N1296 C1298 1.375 . S
N1296 C1299 1.313 . S
C1297 C1298 1.338 . S
C1297 N1300 1.377 . S
C1297 H1317 0.930 . S
C1298 N1296 1.375 . S
C1298 C1297 1.338 . S
C1298 H1302 0.931 . S
C1299 N1296 1.313 . S
C1299 N1300 1.344 . S
C1299 H1303 0.930 . S
N1300 C1297 1.377 . S
N1300 C1299 1.344 . S
O1301 Co1293 2.055 . S
O1301 C1305 1.253 . S
H1302 C1298 0.931 . S
H1303 C1299 0.930 . S
O1304 Co1293 2.039 . S
O1304 C1294 1.265 . S
C1305 O1301 1.253 . S
C1305 O1306 1.227 . S
O1306 C1305 1.227 . S
N1307 Co1293 2.140 . S
N1307 C1310 1.346 . S
N1307 C1311 1.345 . S
C1308 C1309 1.387 . S
C1308 C1312 1.391 . S
C1309 C1308 1.387 . S
C1309 C1310 1.369 . S
C1309 H1318 0.929 . S
C1310 N1307 1.346 . S
C1310 C1309 1.369 . S
C1310 H1313 0.928 . S
C1311 N1307 1.345 . S
C1311 C1312 1.371 . S
C1311 H1314 0.931 . S
C1312 C1308 1.391 . S
C1312 C1311 1.371 . S
C1312 H1319 0.930 . S
H1313 C1310 0.928 . S
H1314 C1311 0.931 . S
H1315 C1291 0.930 . S
H1316 C1288 0.930 . S
H1317 C1297 0.930 . S
H1318 C1309 0.929 . S
H1319 C1312 0.930 . S
C1320 C1321 1.351 . S
C1320 N1323 1.368 . S
C1320 H1325 0.931 . S
C1321 C1320 1.351 . S
C1321 N1322 1.373 . S
C1321 H1349 0.930 . S
N1322 C1321 1.373 . S
N1322 C1324 1.340 . S
N1323 C1320 1.368 . S
N1323 C1324 1.321 . S
N1323 Co1326 2.135 . S
C1324 N1322 1.340 . S
C1324 N1323 1.321 . S
C1324 H1348 0.930 . S
H1325 C1320 0.931 . S
Co1326 N1323 2.135 . S
Co1326 N1329 2.121 . S
Co1326 O1334 2.055 . S
Co1326 O1337 2.039 . S
Co1326 N1340 2.140 . S
C1327 O1328 1.227 . S
C1327 O1337 1.265 . S
O1328 C1327 1.227 . S
N1329 Co1326 2.121 . S
N1329 C1331 1.375 . S
N1329 C1332 1.313 . S
C1330 C1331 1.338 . S
C1330 N1333 1.377 . S
C1330 H1350 0.930 . S
C1331 N1329 1.375 . S
C1331 C1330 1.338 . S
C1331 H1335 0.931 . S
C1332 N1329 1.313 . S
C1332 N1333 1.344 . S
C1332 H1336 0.930 . S
N1333 C1330 1.377 . S
N1333 C1332 1.344 . S
O1334 Co1326 2.055 . S
O1334 C1338 1.253 . S
H1335 C1331 0.931 . S
H1336 C1332 0.930 . S
O1337 Co1326 2.039 . S
O1337 C1327 1.265 . S
C1338 O1334 1.253 . S
C1338 O1339 1.227 . S
O1339 C1338 1.227 . S
N1340 Co1326 2.140 . S
N1340 C1343 1.346 . S
N1340 C1344 1.345 . S
C1341 C1342 1.387 . S
C1341 C1345 1.391 . S
C1342 C1341 1.387 . S
C1342 C1343 1.369 . S
C1342 H1351 0.929 . S
C1343 N1340 1.346 . S
C1343 C1342 1.369 . S
C1343 H1346 0.928 . S
C1344 N1340 1.345 . S
C1344 C1345 1.371 . S
C1344 H1347 0.931 . S
C1345 C1341 1.391 . S
C1345 C1344 1.371 . S
C1345 H1352 0.930 . S
H1346 C1343 0.928 . S
H1347 C1344 0.931 . S
H1348 C1324 0.930 . S
H1349 C1321 0.930 . S
H1350 C1330 0.930 . S
H1351 C1342 0.929 . S
H1352 C1345 0.930 . S
C1353 C1354 1.351 . S
C1353 N1356 1.368 . S
C1353 H1358 0.931 . S
C1354 C1353 1.351 . S
C1354 N1355 1.373 . S
C1354 H1382 0.930 . S
N1355 C1354 1.373 . S
N1355 C1357 1.340 . S
N1356 C1353 1.368 . S
N1356 C1357 1.321 . S
N1356 Co1359 2.135 . S
C1357 N1355 1.340 . S
C1357 N1356 1.321 . S
C1357 H1381 0.930 . S
H1358 C1353 0.931 . S
Co1359 N1356 2.135 . S
Co1359 N1362 2.121 . S
Co1359 O1367 2.055 . S
Co1359 O1370 2.039 . S
Co1359 N1373 2.140 . S
C1360 O1361 1.227 . S
C1360 O1370 1.265 . S
O1361 C1360 1.227 . S
N1362 Co1359 2.121 . S
N1362 C1364 1.375 . S
N1362 C1365 1.313 . S
C1363 C1364 1.338 . S
C1363 N1366 1.377 . S
C1363 H1383 0.930 . S
C1364 N1362 1.375 . S
C1364 C1363 1.338 . S
C1364 H1368 0.931 . S
C1365 N1362 1.313 . S
C1365 N1366 1.344 . S
C1365 H1369 0.930 . S
N1366 C1363 1.377 . S
N1366 C1365 1.344 . S
O1367 Co1359 2.055 . S
O1367 C1371 1.253 . S
H1368 C1364 0.931 . S
H1369 C1365 0.930 . S
O1370 Co1359 2.039 . S
O1370 C1360 1.265 . S
C1371 O1367 1.253 . S
C1371 O1372 1.227 . S
O1372 C1371 1.227 . S
N1373 Co1359 2.140 . S
N1373 C1376 1.346 . S
N1373 C1377 1.345 . S
C1374 C1375 1.387 . S
C1374 C1378 1.391 . S
C1375 C1374 1.387 . S
C1375 C1376 1.369 . S
C1375 H1384 0.929 . S
C1376 N1373 1.346 . S
C1376 C1375 1.369 . S
C1376 H1379 0.928 . S
C1377 N1373 1.345 . S
C1377 C1378 1.371 . S
C1377 H1380 0.931 . S
C1378 C1374 1.391 . S
C1378 C1377 1.371 . S
C1378 H1385 0.930 . S
H1379 C1376 0.928 . S
H1380 C1377 0.931 . S
H1381 C1357 0.930 . S
H1382 C1354 0.930 . S
H1383 C1363 0.930 . S
H1384 C1375 0.929 . S
H1385 C1378 0.930 . S
C1386 C1387 1.351 . S
C1386 N1389 1.368 . S
C1386 H1391 0.931 . S
C1387 C1386 1.351 . S
C1387 N1388 1.373 . S
C1387 H1415 0.930 . S
N1388 C1387 1.373 . S
N1388 C1390 1.340 . S
N1389 C1386 1.368 . S
N1389 C1390 1.321 . S
N1389 Co1392 2.135 . S
C1390 N1388 1.340 . S
C1390 N1389 1.321 . S
C1390 H1414 0.930 . S
H1391 C1386 0.931 . S
Co1392 N1389 2.135 . S
Co1392 N1395 2.121 . S
Co1392 O1400 2.055 . S
Co1392 O1403 2.039 . S
Co1392 N1406 2.140 . S
C1393 O1394 1.227 . S
C1393 O1403 1.265 . S
O1394 C1393 1.227 . S
N1395 Co1392 2.121 . S
N1395 C1397 1.375 . S
N1395 C1398 1.313 . S
C1396 C1397 1.338 . S
C1396 N1399 1.377 . S
C1396 H1416 0.930 . S
C1397 N1395 1.375 . S
C1397 C1396 1.338 . S
C1397 H1401 0.931 . S
C1398 N1395 1.313 . S
C1398 N1399 1.344 . S
C1398 H1402 0.930 . S
N1399 C1396 1.377 . S
N1399 C1398 1.344 . S
O1400 Co1392 2.055 . S
O1400 C1404 1.253 . S
H1401 C1397 0.931 . S
H1402 C1398 0.930 . S
O1403 Co1392 2.039 . S
O1403 C1393 1.265 . S
C1404 O1400 1.253 . S
C1404 O1405 1.227 . S
O1405 C1404 1.227 . S
N1406 Co1392 2.140 . S
N1406 C1409 1.346 . S
N1406 C1410 1.345 . S
C1407 C1408 1.387 . S
C1407 C1411 1.391 . S
C1408 C1407 1.387 . S
C1408 C1409 1.369 . S
C1408 H1417 0.929 . S
C1409 N1406 1.346 . S
C1409 C1408 1.369 . S
C1409 H1412 0.928 . S
C1410 N1406 1.345 . S
C1410 C1411 1.371 . S
C1410 H1413 0.931 . S
C1411 C1407 1.391 . S
C1411 C1410 1.371 . S
C1411 H1418 0.930 . S
H1412 C1409 0.928 . S
H1413 C1410 0.931 . S
H1414 C1390 0.930 . S
H1415 C1387 0.930 . S
H1416 C1396 0.930 . S
H1417 C1408 0.929 . S
H1418 C1411 0.930 . S
C1419 C1420 1.351 . S
C1419 N1422 1.368 . S
C1419 H1424 0.931 . S
C1420 C1419 1.351 . S
C1420 N1421 1.373 . S
C1420 H1448 0.930 . S
N1421 C1420 1.373 . S
N1421 C1423 1.340 . S
N1422 C1419 1.368 . S
N1422 C1423 1.321 . S
N1422 Co1425 2.135 . S
C1423 N1421 1.340 . S
C1423 N1422 1.321 . S
C1423 H1447 0.930 . S
H1424 C1419 0.931 . S
Co1425 N1422 2.135 . S
Co1425 N1428 2.121 . S
Co1425 O1433 2.055 . S
Co1425 O1436 2.039 . S
Co1425 N1439 2.140 . S
C1426 O1427 1.227 . S
C1426 O1436 1.265 . S
O1427 C1426 1.227 . S
N1428 Co1425 2.121 . S
N1428 C1430 1.375 . S
N1428 C1431 1.313 . S
C1429 C1430 1.338 . S
C1429 N1432 1.377 . S
C1429 H1449 0.930 . S
C1430 N1428 1.375 . S
C1430 C1429 1.338 . S
C1430 H1434 0.931 . S
C1431 N1428 1.313 . S
C1431 N1432 1.344 . S
C1431 H1435 0.930 . S
N1432 C1429 1.377 . S
N1432 C1431 1.344 . S
O1433 Co1425 2.055 . S
O1433 C1437 1.253 . S
H1434 C1430 0.931 . S
H1435 C1431 0.930 . S
O1436 Co1425 2.039 . S
O1436 C1426 1.265 . S
C1437 O1433 1.253 . S
C1437 O1438 1.227 . S
O1438 C1437 1.227 . S
N1439 Co1425 2.140 . S
N1439 C1442 1.346 . S
N1439 C1443 1.345 . S
C1440 C1441 1.387 . S
C1440 C1444 1.391 . S
C1441 C1440 1.387 . S
C1441 C1442 1.369 . S
C1441 H1450 0.929 . S
C1442 N1439 1.346 . S
C1442 C1441 1.369 . S
C1442 H1445 0.928 . S
C1443 N1439 1.345 . S
C1443 C1444 1.371 . S
C1443 H1446 0.931 . S
C1444 C1440 1.391 . S
C1444 C1443 1.371 . S
C1444 H1451 0.930 . S
H1445 C1442 0.928 . S
H1446 C1443 0.931 . S
H1447 C1423 0.930 . S
H1448 C1420 0.930 . S
H1449 C1429 0.930 . S
H1450 C1441 0.929 . S
H1451 C1444 0.930 . S
C1452 C1453 1.351 . S
C1452 N1455 1.368 . S
C1452 H1457 0.931 . S
C1453 C1452 1.351 . S
C1453 N1454 1.373 . S
C1453 H1481 0.930 . S
N1454 C1453 1.373 . S
N1454 C1456 1.340 . S
N1455 C1452 1.368 . S
N1455 C1456 1.321 . S
N1455 Co1458 2.135 . S
C1456 N1454 1.340 . S
C1456 N1455 1.321 . S
C1456 H1480 0.930 . S
H1457 C1452 0.931 . S
Co1458 N1455 2.135 . S
Co1458 N1461 2.140 . S
Co1458 O1466 2.055 . S
Co1458 O1469 2.039 . S
Co1458 N1472 2.140 . S
C1459 O1460 1.227 . S
C1459 O1469 1.265 1_455 S
O1460 C1459 1.227 . S
N1461 Co1458 2.140 . S
N1461 C1463 1.352 1_655 S
N1461 C1464 1.315 . S
C1462 C1463 1.338 . S
C1462 N1465 1.377 . S
C1462 H1482 0.930 . S
C1463 N1461 1.352 1_455 S
C1463 C1462 1.338 . S
C1463 H1467 0.931 . S
C1464 N1461 1.315 . S
C1464 N1465 1.344 1_655 S
C1464 H1468 0.930 . S
N1465 C1462 1.377 . S
N1465 C1464 1.344 1_455 S
O1466 Co1458 2.055 . S
O1466 C1470 1.253 . S
H1467 C1463 0.931 . S
H1468 C1464 0.930 . S
O1469 Co1458 2.039 . S
O1469 C1459 1.265 1_655 S
C1470 O1466 1.253 . S
C1470 O1471 1.227 . S
O1471 C1470 1.227 . S
N1472 Co1458 2.140 . S
N1472 C1475 1.346 . S
N1472 C1476 1.345 . S
C1473 C1474 1.387 . S
C1473 C1477 1.391 . S
C1474 C1473 1.387 . S
C1474 C1475 1.369 . S
C1474 H1483 0.929 . S
C1475 N1472 1.346 . S
C1475 C1474 1.369 . S
C1475 H1478 0.928 . S
C1476 N1472 1.345 . S
C1476 C1477 1.371 . S
C1476 H1479 0.931 . S
C1477 C1473 1.391 . S
C1477 C1476 1.371 . S
C1477 H1484 0.930 . S
H1478 C1475 0.928 . S
H1479 C1476 0.931 . S
H1480 C1456 0.930 . S
H1481 C1453 0.930 . S
H1482 C1462 0.930 . S
H1483 C1474 0.929 . S
H1484 C1477 0.930 . S
C1485 C1486 1.351 . S
C1485 N1488 1.368 . S
C1485 H1490 0.931 . S
C1486 C1485 1.351 . S
C1486 N1487 1.373 . S
C1486 H1514 0.930 . S
N1487 C1486 1.373 . S
N1487 C1489 1.340 . S
N1488 C1485 1.368 . S
N1488 C1489 1.321 . S
N1488 Co1491 2.135 . S
C1489 N1487 1.340 . S
C1489 N1488 1.321 . S
C1489 H1513 0.930 . S
H1490 C1485 0.931 . S
Co1491 N1488 2.135 . S
Co1491 N1494 2.121 . S
Co1491 O1499 2.055 . S
Co1491 O1502 2.039 . S
Co1491 N1505 2.140 . S
C1492 O1493 1.227 . S
C1492 O1502 1.265 . S
O1493 C1492 1.227 . S
N1494 Co1491 2.121 . S
N1494 C1496 1.375 . S
N1494 C1497 1.313 . S
C1495 C1496 1.338 . S
C1495 N1498 1.377 . S
C1495 H1515 0.930 . S
C1496 N1494 1.375 . S
C1496 C1495 1.338 . S
C1496 H1500 0.931 . S
C1497 N1494 1.313 . S
C1497 N1498 1.344 . S
C1497 H1501 0.930 . S
N1498 C1495 1.377 . S
N1498 C1497 1.344 . S
O1499 Co1491 2.055 . S
O1499 C1503 1.253 . S
H1500 C1496 0.931 . S
H1501 C1497 0.930 . S
O1502 Co1491 2.039 . S
O1502 C1492 1.265 . S
C1503 O1499 1.253 . S
C1503 O1504 1.227 . S
O1504 C1503 1.227 . S
N1505 Co1491 2.140 . S
N1505 C1508 1.346 . S
N1505 C1509 1.345 . S
C1506 C1507 1.387 . S
C1506 C1510 1.391 . S
C1507 C1506 1.387 . S
C1507 C1508 1.369 . S
C1507 H1516 0.929 . S
C1508 N1505 1.346 . S
C1508 C1507 1.369 . S
C1508 H1511 0.928 . S
C1509 N1505 1.345 . S
C1509 C1510 1.371 . S
C1509 H1512 0.931 . S
C1510 C1506 1.391 . S
C1510 C1509 1.371 . S
C1510 H1517 0.930 . S
H1511 C1508 0.928 . S
H1512 C1509 0.931 . S
H1513 C1489 0.930 . S
H1514 C1486 0.930 . S
H1515 C1495 0.930 . S
H1516 C1507 0.929 . S
H1517 C1510 0.930 . S
C1518 C1519 1.351 . S
C1518 N1521 1.368 . S
C1518 H1523 0.931 . S
C1519 C1518 1.351 . S
C1519 N1520 1.373 . S
C1519 H1547 0.930 . S
N1520 C1519 1.373 . S
N1520 C1522 1.340 . S
N1521 C1518 1.368 . S
N1521 C1522 1.321 . S
N1521 Co1524 2.135 . S
C1522 N1520 1.340 . S
C1522 N1521 1.321 . S
C1522 H1546 0.930 . S
H1523 C1518 0.931 . S
Co1524 N1521 2.135 . S
Co1524 N1527 2.121 . S
Co1524 O1532 2.055 . S
Co1524 O1535 2.039 . S
Co1524 N1538 2.140 . S
C1525 O1526 1.227 . S
C1525 O1535 1.265 . S
O1526 C1525 1.227 . S
N1527 Co1524 2.121 . S
N1527 C1529 1.375 . S
N1527 C1530 1.313 . S
C1528 C1529 1.338 . S
C1528 N1531 1.377 . S
C1528 H1548 0.930 . S
C1529 N1527 1.375 . S
C1529 C1528 1.338 . S
C1529 H1533 0.931 . S
C1530 N1527 1.313 . S
C1530 N1531 1.344 . S
C1530 H1534 0.930 . S
N1531 C1528 1.377 . S
N1531 C1530 1.344 . S
O1532 Co1524 2.055 . S
O1532 C1536 1.253 . S
H1533 C1529 0.931 . S
H1534 C1530 0.930 . S
O1535 Co1524 2.039 . S
O1535 C1525 1.265 . S
C1536 O1532 1.253 . S
C1536 O1537 1.227 . S
O1537 C1536 1.227 . S
N1538 Co1524 2.140 . S
N1538 C1541 1.346 . S
N1538 C1542 1.345 . S
C1539 C1540 1.387 . S
C1539 C1543 1.391 . S
C1540 C1539 1.387 . S
C1540 C1541 1.369 . S
C1540 H1549 0.929 . S
C1541 N1538 1.346 . S
C1541 C1540 1.369 . S
C1541 H1544 0.928 . S
C1542 N1538 1.345 . S
C1542 C1543 1.371 . S
C1542 H1545 0.931 . S
C1543 C1539 1.391 . S
C1543 C1542 1.371 . S
C1543 H1550 0.930 . S
H1544 C1541 0.928 . S
H1545 C1542 0.931 . S
H1546 C1522 0.930 . S
H1547 C1519 0.930 . S
H1548 C1528 0.930 . S
H1549 C1540 0.929 . S
H1550 C1543 0.930 . S
C1551 C1552 1.351 . S
C1551 N1554 1.368 . S
C1551 H1556 0.931 . S
C1552 C1551 1.351 . S
C1552 N1553 1.373 . S
C1552 H1580 0.930 . S
N1553 C1552 1.373 . S
N1553 C1555 1.340 . S
N1554 C1551 1.368 . S
N1554 C1555 1.321 . S
N1554 Co1557 2.135 . S
C1555 N1553 1.340 . S
C1555 N1554 1.321 . S
C1555 H1579 0.930 . S
H1556 C1551 0.931 . S
Co1557 N1554 2.135 . S
Co1557 N1560 2.121 . S
Co1557 O1565 2.055 . S
Co1557 O1568 2.039 . S
Co1557 N1571 2.140 . S
C1558 O1559 1.227 . S
C1558 O1568 1.265 . S
O1559 C1558 1.227 . S
N1560 Co1557 2.121 . S
N1560 C1562 1.375 . S
N1560 C1563 1.313 . S
C1561 C1562 1.338 . S
C1561 N1564 1.377 . S
C1561 H1581 0.930 . S
C1562 N1560 1.375 . S
C1562 C1561 1.338 . S
C1562 H1566 0.931 . S
C1563 N1560 1.313 . S
C1563 N1564 1.344 . S
C1563 H1567 0.930 . S
N1564 C1561 1.377 . S
N1564 C1563 1.344 . S
O1565 Co1557 2.055 . S
O1565 C1569 1.253 . S
H1566 C1562 0.931 . S
H1567 C1563 0.930 . S
O1568 Co1557 2.039 . S
O1568 C1558 1.265 . S
C1569 O1565 1.253 . S
C1569 O1570 1.227 . S
O1570 C1569 1.227 . S
N1571 Co1557 2.140 . S
N1571 C1574 1.346 . S
N1571 C1575 1.345 . S
C1572 C1573 1.387 . S
C1572 C1576 1.391 . S
C1573 C1572 1.387 . S
C1573 C1574 1.369 . S
C1573 H1582 0.929 . S
C1574 N1571 1.346 . S
C1574 C1573 1.369 . S
C1574 H1577 0.928 . S
C1575 N1571 1.345 . S
C1575 C1576 1.371 . S
C1575 H1578 0.931 . S
C1576 C1572 1.391 . S
C1576 C1575 1.371 . S
C1576 H1583 0.930 . S
H1577 C1574 0.928 . S
H1578 C1575 0.931 . S
H1579 C1555 0.930 . S
H1580 C1552 0.930 . S
H1581 C1561 0.930 . S
H1582 C1573 0.929 . S
H1583 C1576 0.930 . S
H1584 C1596 0.930 . S
H1585 C1598 0.930 . S
H1586 C1599 0.930 . S
H1587 C1603 0.959 . S
H1588 C1603 0.959 . S
H1589 C1603 0.961 . S
H1590 C1604 0.960 . S
H1591 C1604 0.961 . S
H1592 C1604 0.959 . S
H1593 C1607 0.929 . S
H1594 C1608 0.931 . S
H1595 C1610 0.930 . S
C1596 H1584 0.930 . S
C1596 C1597 1.399 . S
C1596 C1601 1.399 . S
C1597 C1596 1.399 . S
C1597 C1598 1.376 . S
C1598 H1585 0.930 . S
C1598 C1597 1.376 . S
C1598 C1599 1.388 . S
C1599 H1586 0.930 . S
C1599 C1598 1.388 . S
C1599 C1600 1.390 . S
C1600 C1599 1.390 . S
C1600 C1601 1.394 . S
C1600 C1606 1.465 . S
C1601 C1596 1.399 . S
C1601 C1600 1.394 . S
C1601 C1602 1.516 . S
C1602 C1601 1.516 . S
C1602 C1603 1.502 . S
C1602 C1604 1.561 . S
C1602 C1605 1.526 . S
C1603 H1587 0.959 . S
C1603 H1588 0.959 . S
C1603 H1589 0.961 . S
C1603 C1602 1.502 . S
C1604 H1590 0.960 . S
C1604 H1591 0.961 . S
C1604 H1592 0.959 . S
C1604 C1602 1.561 . S
C1605 C1602 1.526 . S
C1605 C1606 1.396 . S
C1605 C1610 1.390 . S
C1606 C1600 1.465 . S
C1606 C1605 1.396 . S
C1606 C1607 1.399 . S
C1607 H1593 0.929 . S
C1607 C1606 1.399 . S
C1607 C1608 1.385 . S
C1608 H1594 0.931 . S
C1608 C1607 1.385 . S
C1608 C1609 1.389 . S
C1609 C1608 1.389 . S
C1609 C1610 1.387 . S
C1610 H1595 0.930 . S
C1610 C1605 1.390 . S
C1610 C1609 1.387 . S
H1611 C1623 0.930 . S
H1612 C1625 0.930 . S
H1613 C1626 0.930 . S
H1614 C1630 0.959 . S
H1615 C1630 0.959 . S
H1616 C1630 0.961 . S
H1617 C1631 0.960 . S
H1618 C1631 0.961 . S
H1619 C1631 0.959 . S
H1620 C1634 0.929 1_554 S
H1621 C1635 0.984 . S
H1622 C1637 0.930 . S
C1623 H1611 0.930 . S
C1623 C1624 1.399 . S
C1623 C1628 1.399 . S
C1624 C1623 1.399 . S
C1624 C1625 1.376 . S
C1625 H1612 0.930 . S
C1625 C1624 1.376 . S
C1625 C1626 1.388 . S
C1626 H1613 0.930 . S
C1626 C1625 1.388 . S
C1626 C1627 1.390 . S
C1627 C1626 1.390 . S
C1627 C1628 1.394 . S
C1627 C1633 1.465 . S
C1628 C1623 1.399 . S
C1628 C1627 1.394 . S
C1628 C1629 1.516 . S
C1629 C1628 1.516 . S
C1629 C1630 1.502 . S
C1629 C1631 1.561 . S
C1629 C1632 1.526 . S
C1630 H1614 0.959 . S
C1630 H1615 0.959 . S
C1630 H1616 0.961 . S
C1630 C1629 1.502 . S
C1631 H1617 0.960 . S
C1631 H1618 0.961 . S
C1631 H1619 0.959 . S
C1631 C1629 1.561 . S
C1632 C1629 1.526 . S
C1632 C1633 1.396 . S
C1632 C1637 1.390 . S
C1633 C1627 1.465 . S
C1633 C1632 1.396 . S
C1633 C1634 1.399 . S
C1634 H1620 0.929 1_556 S
C1634 C1633 1.399 . S
C1634 C1635 1.381 1_556 S
C1635 H1621 0.984 . S
C1635 C1634 1.381 1_554 S
C1635 C1636 1.344 1_554 S
C1636 C1635 1.344 1_556 S
C1636 C1637 1.387 . S
C1637 H1622 0.930 . S
C1637 C1632 1.390 . S
C1637 C1636 1.387 . S
H1638 C1650 0.930 . S
H1639 C1652 0.930 . S
H1640 C1653 0.930 . S
H1641 C1657 0.959 . S
H1642 C1657 0.959 . S
H1643 C1657 0.961 . S
H1644 C1658 0.960 . S
H1645 C1658 0.961 . S
H1646 C1658 0.959 . S
H1647 C1661 0.929 . S
H1648 C1662 0.931 . S
H1649 C1664 0.930 . S
C1650 H1638 0.930 . S
C1650 C1651 1.399 . S
C1650 C1655 1.399 . S
C1651 C1650 1.399 . S
C1651 C1652 1.376 . S
C1652 H1639 0.930 . S
C1652 C1651 1.376 . S
C1652 C1653 1.388 . S
C1653 H1640 0.930 . S
C1653 C1652 1.388 . S
C1653 C1654 1.390 . S
C1654 C1653 1.390 . S
C1654 C1655 1.394 . S
C1654 C1660 1.465 . S
C1655 C1650 1.399 . S
C1655 C1654 1.394 . S
C1655 C1656 1.516 . S
C1656 C1655 1.516 . S
C1656 C1657 1.502 . S
C1656 C1658 1.561 . S
C1656 C1659 1.526 . S
C1657 H1641 0.959 . S
C1657 H1642 0.959 . S
C1657 H1643 0.961 . S
C1657 C1656 1.502 . S
C1658 H1644 0.960 . S
C1658 H1645 0.961 . S
C1658 H1646 0.959 . S
C1658 C1656 1.561 . S
C1659 C1656 1.526 . S
C1659 C1660 1.396 . S
C1659 C1664 1.390 . S
C1660 C1654 1.465 . S
C1660 C1659 1.396 . S
C1660 C1661 1.399 . S
C1661 H1647 0.929 . S
C1661 C1660 1.399 . S
C1661 C1662 1.385 . S
C1662 H1648 0.931 . S
C1662 C1661 1.385 . S
C1662 C1663 1.389 . S
C1663 C1662 1.389 . S
C1663 C1664 1.387 . S
C1664 H1649 0.930 . S
C1664 C1659 1.390 . S
C1664 C1663 1.387 . S
H1665 C1677 0.930 . S
H1666 C1679 0.930 . S
H1667 C1680 0.930 . S
H1668 C1684 0.963 . S
H1669 C1684 0.959 . S
H1670 C1684 0.961 . S
H1671 C1685 0.960 . S
H1672 C1685 0.961 . S
H1673 C1685 0.959 . S
H1674 C1688 0.929 . S
H1675 C1689 0.931 . S
H1676 C1691 0.930 . S
C1677 H1665 0.930 . S
C1677 C1678 1.399 . S
C1677 C1682 1.399 . S
C1678 C1677 1.399 . S
C1678 C1679 1.376 . S
C1679 H1666 0.930 . S
C1679 C1678 1.376 . S
C1679 C1680 1.388 . S
C1680 H1667 0.930 . S
C1680 C1679 1.388 . S
C1680 C1681 1.390 . S
C1681 C1680 1.390 . S
C1681 C1682 1.394 . S
C1681 C1687 1.465 . S
C1682 C1677 1.399 . S
C1682 C1681 1.394 . S
C1682 C1683 1.516 . S
C1683 C1682 1.516 . S
C1683 C1684 1.502 . S
C1683 C1685 1.561 . S
C1683 C1686 1.526 . S
C1684 H1668 0.963 . S
C1684 H1669 0.959 . S
C1684 H1670 0.961 . S
C1684 C1683 1.502 . S
C1685 H1671 0.960 . S
C1685 H1672 0.961 . S
C1685 H1673 0.959 . S
C1685 C1683 1.561 . S
C1686 C1683 1.526 . S
C1686 C1687 1.396 . S
C1686 C1691 1.390 . S
C1687 C1681 1.465 . S
C1687 C1686 1.396 . S
C1687 C1688 1.399 . S
C1688 H1674 0.929 . S
C1688 C1687 1.399 . S
C1688 C1689 1.385 . S
C1689 H1675 0.931 . S
C1689 C1688 1.385 . S
C1689 C1690 1.389 . S
C1690 C1689 1.389 . S
C1690 C1691 1.387 . S
C1691 H1676 0.930 . S
C1691 C1686 1.390 . S
C1691 C1690 1.387 . S
H1692 C1704 0.930 . S
H1693 C1706 0.930 . S
H1694 C1707 0.930 . S
H1695 C1711 0.959 . S
H1696 C1711 0.959 . S
H1697 C1711 0.961 . S
H1698 C1712 0.960 . S
H1699 C1712 0.961 . S
H1700 C1712 0.959 . S
H1701 C1715 0.929 . S
H1702 C1716 0.931 . S
H1703 C1718 0.930 . S
C1704 H1692 0.930 . S
C1704 C1705 1.399 . S
C1704 C1709 1.399 . S
C1705 C1704 1.399 . S
C1705 C1706 1.376 . S
C1706 H1693 0.930 . S
C1706 C1705 1.376 . S
C1706 C1707 1.388 . S
C1707 H1694 0.930 . S
C1707 C1706 1.388 . S
C1707 C1708 1.390 . S
C1708 C1707 1.390 . S
C1708 C1709 1.394 . S
C1708 C1714 1.465 . S
C1709 C1704 1.399 . S
C1709 C1708 1.394 . S
C1709 C1710 1.516 . S
C1710 C1709 1.516 . S
C1710 C1711 1.502 . S
C1710 C1712 1.561 . S
C1710 C1713 1.526 . S
C1711 H1695 0.959 . S
C1711 H1696 0.959 . S
C1711 H1697 0.961 . S
C1711 C1710 1.502 . S
C1712 H1698 0.960 . S
C1712 H1699 0.961 . S
C1712 H1700 0.959 . S
C1712 C1710 1.561 . S
C1713 C1710 1.526 . S
C1713 C1714 1.396 . S
C1713 C1718 1.390 . S
C1714 C1708 1.465 . S
C1714 C1713 1.396 . S
C1714 C1715 1.399 . S
C1715 H1701 0.929 . S
C1715 C1714 1.399 . S
C1715 C1716 1.385 . S
C1716 H1702 0.931 . S
C1716 C1715 1.385 . S
C1716 C1717 1.389 . S
C1717 C1716 1.389 . S
C1717 C1718 1.387 . S
C1718 H1703 0.930 . S
C1718 C1713 1.390 . S
C1718 C1717 1.387 . S
H1719 C1731 0.930 . S
H1720 C1733 0.930 . S
H1721 C1734 0.930 . S
H1722 C1738 0.959 . S
H1723 C1738 0.959 . S
H1724 C1738 0.961 . S
H1725 C1739 0.960 . S
H1726 C1739 0.961 . S
H1727 C1739 0.959 . S
H1728 C1742 0.885 1_556 S
H1729 C1743 0.931 1_655 S
H1730 C1745 0.927 . S
C1731 H1719 0.930 . S
C1731 C1732 1.399 . S
C1731 C1736 1.399 . S
C1732 C1731 1.399 . S
C1732 C1733 1.376 . S
C1733 H1720 0.930 . S
C1733 C1732 1.376 . S
C1733 C1734 1.388 . S
C1734 H1721 0.930 . S
C1734 C1733 1.388 . S
C1734 C1735 1.390 . S
C1735 C1734 1.390 . S
C1735 C1736 1.394 . S
C1735 C1741 1.465 . S
C1736 C1731 1.399 . S
C1736 C1735 1.394 . S
C1736 C1737 1.516 . S
C1737 C1736 1.516 . S
C1737 C1738 1.502 . S
C1737 C1739 1.561 . S
C1737 C1740 1.526 . S
C1738 H1722 0.959 . S
C1738 H1723 0.959 . S
C1738 H1724 0.961 . S
C1738 C1737 1.502 . S
C1739 H1725 0.960 . S
C1739 H1726 0.961 . S
C1739 H1727 0.959 . S
C1739 C1737 1.561 . S
C1740 C1737 1.526 . S
C1740 C1741 1.396 . S
C1740 C1745 1.395 1_455 S
C1741 C1735 1.465 . S
C1741 C1740 1.396 . S
C1741 C1742 1.450 . S
C1742 H1728 0.885 1_554 S
C1742 C1741 1.450 . S
C1742 C1743 1.381 1_554 S
C1743 H1729 0.931 1_455 S
C1743 C1742 1.381 1_556 S
C1743 C1744 1.389 1_456 S
C1744 C1743 1.389 1_654 S
C1744 C1745 1.384 . S
C1745 H1730 0.927 . S
C1745 C1740 1.395 1_655 S
C1745 C1744 1.384 . S
H1746 C1758 0.930 . S
H1747 C1760 0.930 . S
H1748 C1761 0.930 . S
H1749 C1765 0.959 . S
H1750 C1765 0.959 . S
H1751 C1765 0.961 . S
H1752 C1766 0.960 . S
H1753 C1766 0.961 . S
H1754 C1766 0.959 . S
H1755 C1769 0.929 . S
H1756 C1770 0.931 . S
H1757 C1772 0.930 . S
C1758 H1746 0.930 . S
C1758 C1759 1.399 . S
C1758 C1763 1.399 . S
C1759 C1758 1.399 . S
C1759 C1760 1.376 . S
C1760 H1747 0.930 . S
C1760 C1759 1.376 . S
C1760 C1761 1.388 . S
C1761 H1748 0.930 . S
C1761 C1760 1.388 . S
C1761 C1762 1.390 . S
C1762 C1761 1.390 . S
C1762 C1763 1.394 . S
C1762 C1768 1.465 . S
C1763 C1758 1.399 . S
C1763 C1762 1.394 . S
C1763 C1764 1.516 . S
C1764 C1763 1.516 . S
C1764 C1765 1.502 . S
C1764 C1766 1.561 . S
C1764 C1767 1.526 . S
C1765 H1749 0.959 . S
C1765 H1750 0.959 . S
C1765 H1751 0.961 . S
C1765 C1764 1.502 . S
C1766 H1752 0.960 . S
C1766 H1753 0.961 . S
C1766 H1754 0.959 . S
C1766 C1764 1.561 . S
C1767 C1764 1.526 . S
C1767 C1768 1.396 . S
C1767 C1772 1.390 . S
C1768 C1762 1.465 . S
C1768 C1767 1.396 . S
C1768 C1769 1.399 . S
C1769 H1755 0.929 . S
C1769 C1768 1.399 . S
C1769 C1770 1.385 . S
C1770 H1756 0.931 . S
C1770 C1769 1.385 . S
C1770 C1771 1.389 . S
C1771 C1770 1.389 . S
C1771 C1772 1.387 . S
C1772 H1757 0.930 . S
C1772 C1767 1.390 . S
C1772 C1771 1.387 . S
H1773 C1785 0.930 1_556 S
H1774 C1787 0.930 . S
H1775 C1788 0.930 . S
H1776 C1792 0.959 . S
H1777 C1792 0.959 . S
H1778 C1792 0.961 . S
H1779 C1793 0.960 . S
H1780 C1793 0.961 . S
H1781 C1793 0.959 . S
H1782 C1796 0.929 . S
H1783 C1797 0.931 . S
H1784 C1799 0.930 . S
C1785 H1773 0.930 1_554 S
C1785 C1786 1.399 1_655 S
C1785 C1790 1.399 . S
C1786 C1785 1.399 1_455 S
C1786 C1787 1.376 . S
C1787 H1774 0.930 . S
C1787 C1786 1.376 . S
C1787 C1788 1.388 1_455 S
C1788 H1775 0.930 . S
C1788 C1787 1.388 1_655 S
C1788 C1789 1.390 . S
C1789 C1788 1.390 . S
C1789 C1790 1.394 . S
C1789 C1795 1.465 . S
C1790 C1785 1.399 . S
C1790 C1789 1.394 . S
C1790 C1791 1.516 . S
C1791 C1790 1.516 . S
C1791 C1792 1.502 1_554 S
C1791 C1793 1.561 . S
C1791 C1794 1.526 . S
C1792 H1776 0.959 . S
C1792 H1777 0.959 . S
C1792 H1778 0.961 . S
C1792 C1791 1.502 1_556 S
C1793 H1779 0.960 . S
C1793 H1780 0.961 . S
C1793 H1781 0.959 . S
C1793 C1791 1.561 . S
C1794 C1791 1.526 . S
C1794 C1795 1.396 . S
C1794 C1799 1.390 . S
C1795 C1789 1.465 . S
C1795 C1794 1.396 . S
C1795 C1796 1.399 . S
C1796 H1782 0.929 . S
C1796 C1795 1.399 . S
C1796 C1797 1.385 . S
C1797 H1783 0.931 . S
C1797 C1796 1.385 . S
C1797 C1798 1.389 . S
C1798 C1797 1.389 . S
C1798 C1799 1.387 . S
C1799 H1784 0.930 . S
C1799 C1794 1.390 . S
C1799 C1798 1.387 . S
H1800 C1812 0.930 . S
H1801 C1814 0.930 . S
H1802 C1815 0.930 . S
H1803 C1819 0.959 . S
H1804 C1819 0.959 . S
H1805 C1819 0.961 . S
H1806 C1820 0.960 . S
H1807 C1820 0.961 . S
H1808 C1820 0.959 . S
H1809 C1823 0.929 . S
H1810 C1824 0.931 . S
H1811 C1826 0.930 . S
C1812 H1800 0.930 . S
C1812 C1813 1.399 . S
C1812 C1817 1.399 . S
C1813 C1812 1.399 . S
C1813 C1814 1.376 . S
C1814 H1801 0.930 . S
C1814 C1813 1.376 . S
C1814 C1815 1.388 . S
C1815 H1802 0.930 . S
C1815 C1814 1.388 . S
C1815 C1816 1.390 . S
C1816 C1815 1.390 . S
C1816 C1817 1.394 . S
C1816 C1822 1.465 . S
C1817 C1812 1.399 . S
C1817 C1816 1.394 . S
C1817 C1818 1.516 . S
C1818 C1817 1.516 . S
C1818 C1819 1.502 . S
C1818 C1820 1.561 . S
C1818 C1821 1.526 . S
C1819 H1803 0.959 . S
C1819 H1804 0.959 . S
C1819 H1805 0.961 . S
C1819 C1818 1.502 . S
C1820 H1806 0.960 . S
C1820 H1807 0.961 . S
C1820 H1808 0.959 . S
C1820 C1818 1.561 . S
C1821 C1818 1.526 . S
C1821 C1822 1.396 . S
C1821 C1826 1.390 . S
C1822 C1816 1.465 . S
C1822 C1821 1.396 . S
C1822 C1823 1.399 . S
C1823 H1809 0.929 . S
C1823 C1822 1.399 . S
C1823 C1824 1.385 . S
C1824 H1810 0.931 . S
C1824 C1823 1.385 . S
C1824 C1825 1.389 . S
C1825 C1824 1.389 . S
C1825 C1826 1.387 . S
C1826 H1811 0.930 . S
C1826 C1821 1.390 . S
C1826 C1825 1.387 . S
H1827 C1839 0.942 . S
H1828 C1841 0.930 1_556 S
H1829 C1842 0.930 . S
H1830 C1846 0.959 . S
H1831 C1846 0.959 . S
H1832 C1846 0.961 . S
H1833 C1847 0.960 . S
H1834 C1847 0.961 . S
H1835 C1847 0.959 . S
H1836 C1850 0.929 . S
H1837 C1851 0.931 . S
H1838 C1853 0.930 . S
C1839 H1827 0.942 . S
C1839 C1840 1.409 . S
C1839 C1844 1.377 1_556 S
C1840 C1839 1.409 . S
C1840 C1841 1.376 1_556 S
C1841 H1828 0.930 1_554 S
C1841 C1840 1.376 1_554 S
C1841 C1842 1.388 . S
C1842 H1829 0.930 . S
C1842 C1841 1.388 . S
C1842 C1843 1.390 . S
C1843 C1842 1.390 . S
C1843 C1844 1.394 . S
C1843 C1849 1.465 . S
C1844 C1839 1.377 1_554 S
C1844 C1843 1.394 . S
C1844 C1845 1.516 . S
C1845 C1844 1.516 . S
C1845 C1846 1.502 . S
C1845 C1847 1.561 . S
C1845 C1848 1.526 . S
C1846 H1830 0.959 . S
C1846 H1831 0.959 . S
C1846 H1832 0.961 . S
C1846 C1845 1.502 . S
C1847 H1833 0.960 . S
C1847 H1834 0.961 . S
C1847 H1835 0.959 . S
C1847 C1845 1.561 . S
C1848 C1845 1.526 . S
C1848 C1849 1.396 . S
C1848 C1853 1.390 . S
C1849 C1843 1.465 . S
C1849 C1848 1.396 . S
C1849 C1850 1.399 . S
C1850 H1836 0.929 . S
C1850 C1849 1.399 . S
C1850 C1851 1.385 . S
C1851 H1837 0.931 . S
C1851 C1850 1.385 . S
C1851 C1852 1.389 . S
C1852 C1851 1.389 . S
C1852 C1853 1.387 . S
C1853 H1838 0.930 . S
C1853 C1848 1.390 . S
C1853 C1852 1.387 . S
H1854 C1866 0.930 . S
H1855 C1868 0.930 . S
H1856 C1869 0.930 . S
H1857 C1873 0.959 . S
H1858 C1873 0.959 . S
H1859 C1873 0.961 . S
H1860 C1874 0.960 . S
H1861 C1874 0.961 . S
H1862 C1874 0.959 . S
H1863 C1877 0.929 . S
H1864 C1878 0.931 . S
H1865 C1880 0.930 . S
C1866 H1854 0.930 . S
C1866 C1867 1.399 . S
C1866 C1871 1.399 . S
C1867 C1866 1.399 . S
C1867 C1868 1.376 . S
C1868 H1855 0.930 . S
C1868 C1867 1.376 . S
C1868 C1869 1.388 . S
C1869 H1856 0.930 . S
C1869 C1868 1.388 . S
C1869 C1870 1.390 . S
C1870 C1869 1.390 . S
C1870 C1871 1.394 . S
C1870 C1876 1.465 . S
C1871 C1866 1.399 . S
C1871 C1870 1.394 . S
C1871 C1872 1.516 . S
C1872 C1871 1.516 . S
C1872 C1873 1.502 . S
C1872 C1874 1.561 . S
C1872 C1875 1.526 . S
C1873 H1857 0.959 . S
C1873 H1858 0.959 . S
C1873 H1859 0.961 . S
C1873 C1872 1.502 . S
C1874 H1860 0.960 . S
C1874 H1861 0.961 . S
C1874 H1862 0.959 . S
C1874 C1872 1.561 . S
C1875 C1872 1.526 . S
C1875 C1876 1.396 . S
C1875 C1880 1.390 . S
C1876 C1870 1.465 . S
C1876 C1875 1.396 . S
C1876 C1877 1.399 . S
C1877 H1863 0.929 . S
C1877 C1876 1.399 . S
C1877 C1878 1.385 . S
C1878 H1864 0.931 . S
C1878 C1877 1.385 . S
C1878 C1879 1.389 . S
C1879 C1878 1.389 . S
C1879 C1880 1.387 . S
C1880 H1865 0.930 . S
C1880 C1875 1.390 . S
C1880 C1879 1.387 . S
H1881 C1893 0.930 1_565 S
H1882 C1895 0.930 . S
H1883 C1896 0.930 . S
H1884 C1900 0.959 . S
H1885 C1900 0.959 1_565 S
H1886 C1900 0.961 1_565 S
H1887 C1901 0.960 . S
H1888 C1901 0.961 . S
H1889 C1901 0.950 1_545 S
H1890 C1904 0.929 . S
H1891 C1905 0.931 . S
H1892 C1907 0.930 . S
C1893 H1881 0.930 1_545 S
C1893 C1894 1.399 1_554 S
C1893 C1898 1.399 . S
C1894 C1893 1.399 1_556 S
C1894 C1895 1.376 . S
C1895 H1882 0.930 . S
C1895 C1894 1.376 . S
C1895 C1896 1.388 1_556 S
C1896 H1883 0.930 . S
C1896 C1895 1.388 1_554 S
C1896 C1897 1.390 . S
C1897 C1896 1.390 . S
C1897 C1898 1.394 . S
C1897 C1903 1.465 . S
C1898 C1893 1.399 . S
C1898 C1897 1.394 . S
C1898 C1899 1.516 . S
C1899 C1898 1.516 . S
C1899 C1900 1.502 . S
C1899 C1901 1.561 1_545 S
C1899 C1902 1.526 . S
C1900 H1884 0.959 . S
C1900 H1885 0.959 1_545 S
C1900 H1886 0.961 1_545 S
C1900 C1899 1.502 . S
C1901 H1887 0.960 . S
C1901 H1888 0.961 . S
C1901 H1889 0.950 1_565 S
C1901 C1899 1.561 1_565 S
C1902 C1899 1.526 . S
C1902 C1903 1.396 . S
C1902 C1907 1.390 . S
C1903 C1897 1.465 . S
C1903 C1902 1.396 . S
C1903 C1904 1.399 . S
C1904 H1890 0.929 . S
C1904 C1903 1.399 . S
C1904 C1905 1.385 . S
C1905 H1891 0.931 . S
C1905 C1904 1.385 . S
C1905 C1906 1.389 . S
C1906 C1905 1.389 . S
C1906 C1907 1.387 . S
C1907 H1892 0.930 . S
C1907 C1902 1.390 . S
C1907 C1906 1.387 . S
H1908 C1920 0.930 . S
H1909 C1922 0.930 . S
H1910 C1923 0.930 . S
H1911 C1927 0.959 . S
H1912 C1927 0.959 . S
H1913 C1927 0.961 . S
H1914 C1928 0.960 . S
H1915 C1928 0.961 . S
H1916 C1928 0.959 . S
H1917 C1931 0.929 . S
H1918 C1932 0.931 . S
H1919 C1934 0.930 . S
C1920 H1908 0.930 . S
C1920 C1921 1.399 . S
C1920 C1925 1.399 . S
C1921 C1920 1.399 . S
C1921 C1922 1.376 . S
C1922 H1909 0.930 . S
C1922 C1921 1.376 . S
C1922 C1923 1.388 . S
C1923 H1910 0.930 . S
C1923 C1922 1.388 . S
C1923 C1924 1.390 . S
C1924 C1923 1.390 . S
C1924 C1925 1.394 . S
C1924 C1930 1.465 . S
C1925 C1920 1.399 . S
C1925 C1924 1.394 . S
C1925 C1926 1.516 . S
C1926 C1925 1.516 . S
C1926 C1927 1.502 . S
C1926 C1928 1.561 . S
C1926 C1929 1.526 . S
C1927 H1911 0.959 . S
C1927 H1912 0.959 . S
C1927 H1913 0.961 . S
C1927 C1926 1.502 . S
C1928 H1914 0.960 . S
C1928 H1915 0.961 . S
C1928 H1916 0.959 . S
C1928 C1926 1.561 . S
C1929 C1926 1.526 . S
C1929 C1930 1.396 . S
C1929 C1934 1.390 . S
C1930 C1924 1.465 . S
C1930 C1929 1.396 . S
C1930 C1931 1.399 . S
C1931 H1917 0.929 . S
C1931 C1930 1.399 . S
C1931 C1932 1.385 . S
C1932 H1918 0.931 . S
C1932 C1931 1.385 . S
C1932 C1933 1.389 . S
C1933 C1932 1.389 . S
C1933 C1934 1.387 . S
C1934 H1919 0.930 . S
C1934 C1929 1.390 . S
C1934 C1933 1.387 . S
H1935 C1947 0.930 . S
H1936 C1949 0.930 . S
H1937 C1950 0.930 . S
H1938 C1954 0.959 . S
H1939 C1954 0.959 . S
H1940 C1954 0.961 . S
H1941 C1955 0.960 . S
H1942 C1955 0.961 . S
H1943 C1955 0.959 . S
H1944 C1958 0.929 . S
H1945 C1959 0.931 . S
H1946 C1961 0.930 . S
C1947 H1935 0.930 . S
C1947 C1948 1.399 . S
C1947 C1952 1.399 . S
C1948 C1947 1.399 . S
C1948 C1949 1.376 . S
C1949 H1936 0.930 . S
C1949 C1948 1.376 . S
C1949 C1950 1.388 . S
C1950 H1937 0.930 . S
C1950 C1949 1.388 . S
C1950 C1951 1.390 . S
C1951 C1950 1.390 . S
C1951 C1952 1.394 . S
C1951 C1957 1.465 . S
C1952 C1947 1.399 . S
C1952 C1951 1.394 . S
C1952 C1953 1.516 . S
C1953 C1952 1.516 . S
C1953 C1954 1.502 . S
C1953 C1955 1.561 . S
C1953 C1956 1.526 . S
C1954 H1938 0.959 . S
C1954 H1939 0.959 . S
C1954 H1940 0.961 . S
C1954 C1953 1.502 . S
C1955 H1941 0.960 . S
C1955 H1942 0.961 . S
C1955 H1943 0.959 . S
C1955 C1953 1.561 . S
C1956 C1953 1.526 . S
C1956 C1957 1.396 . S
C1956 C1961 1.390 1_556 S
C1957 C1951 1.465 . S
C1957 C1956 1.396 . S
C1957 C1958 1.399 . S
C1958 H1944 0.929 . S
C1958 C1957 1.399 . S
C1958 C1959 1.385 . S
C1959 H1945 0.931 . S
C1959 C1958 1.385 . S
C1959 C1960 1.389 1_556 S
C1960 C1959 1.389 1_554 S
C1960 C1961 1.387 . S
C1961 H1946 0.930 . S
C1961 C1956 1.390 1_554 S
C1961 C1960 1.387 . S
H1962 C1974 0.930 . S
H1963 C1976 0.930 . S
H1964 C1977 0.930 . S
H1965 C1981 0.959 . S
H1966 C1981 0.959 . S
H1967 C1981 0.961 . S
H1968 C1982 0.960 . S
H1969 C1982 0.961 . S
H1970 C1982 0.959 . S
H1971 C1985 0.929 . S
H1972 C1986 0.931 . S
H1973 C1988 0.930 . S
C1974 H1962 0.930 . S
C1974 C1975 1.399 . S
C1974 C1979 1.399 . S
C1975 C1974 1.399 . S
C1975 C1976 1.376 . S
C1976 H1963 0.930 . S
C1976 C1975 1.376 . S
C1976 C1977 1.388 . S
C1977 H1964 0.930 . S
C1977 C1976 1.388 . S
C1977 C1978 1.390 . S
C1978 C1977 1.390 . S
C1978 C1979 1.394 . S
C1978 C1984 1.465 . S
C1979 C1974 1.399 . S
C1979 C1978 1.394 . S
C1979 C1980 1.516 . S
C1980 C1979 1.516 . S
C1980 C1981 1.502 . S
C1980 C1982 1.561 . S
C1980 C1983 1.526 . S
C1981 H1965 0.959 . S
C1981 H1966 0.959 . S
C1981 H1967 0.961 . S
C1981 C1980 1.502 . S
C1982 H1968 0.960 . S
C1982 H1969 0.961 . S
C1982 H1970 0.959 . S
C1982 C1980 1.561 . S
C1983 C1980 1.526 . S
C1983 C1984 1.396 . S
C1983 C1988 1.390 . S
C1984 C1978 1.465 . S
C1984 C1983 1.396 . S
C1984 C1985 1.399 . S
C1985 H1971 0.929 . S
C1985 C1984 1.399 . S
C1985 C1986 1.385 . S
C1986 H1972 0.931 . S
C1986 C1985 1.385 . S
C1986 C1987 1.389 . S
C1987 C1986 1.389 . S
C1987 C1988 1.387 . S
C1988 H1973 0.930 . S
C1988 C1983 1.390 . S
C1988 C1987 1.387 . S
H1989 C2001 0.930 . S
H1990 C2003 0.963 1_554 S
H1991 C2004 0.930 1_565 S
H1992 C2008 0.959 . S
H1993 C2008 0.959 . S
H1994 C2008 0.961 . S
H1995 C2009 0.960 . S
H1996 C2009 0.961 . S
H1997 C2009 0.959 . S
H1998 C2012 0.929 . S
H1999 C2013 0.931 . S
H2000 C2015 0.930 . S
C2001 H1989 0.930 . S
C2001 C2002 1.399 . S
C2001 C2006 1.399 1_554 S
C2002 C2001 1.399 . S
C2002 C2003 1.339 1_544 S
C2003 H1990 0.963 1_556 S
C2003 C2002 1.339 1_566 S
C2003 C2004 1.385 1_565 S
C2004 H1991 0.930 1_545 S
C2004 C2003 1.385 1_545 S
C2004 C2005 1.390 . S
C2005 C2004 1.390 . S
C2005 C2006 1.394 . S
C2005 C2011 1.465 . S
C2006 C2001 1.399 1_556 S
C2006 C2005 1.394 . S
C2006 C2007 1.516 . S
C2007 C2006 1.516 . S
C2007 C2008 1.502 . S
C2007 C2009 1.561 . S
C2007 C2010 1.526 . S
C2008 H1992 0.959 . S
C2008 H1993 0.959 . S
C2008 H1994 0.961 . S
C2008 C2007 1.502 . S
C2009 H1995 0.960 . S
C2009 H1996 0.961 . S
C2009 H1997 0.959 . S
C2009 C2007 1.561 . S
C2010 C2007 1.526 . S
C2010 C2011 1.396 . S
C2010 C2015 1.390 . S
C2011 C2005 1.465 . S
C2011 C2010 1.396 . S
C2011 C2012 1.399 . S
C2012 H1998 0.929 . S
C2012 C2011 1.399 . S
C2012 C2013 1.385 . S
C2013 H1999 0.931 . S
C2013 C2012 1.385 . S
C2013 C2014 1.389 . S
C2014 C2013 1.389 . S
C2014 C2015 1.387 . S
C2015 H2000 0.930 . S
C2015 C2010 1.390 . S
C2015 C2014 1.387 . S
H2016 C2028 0.930 . S
H2017 C2030 0.930 . S
H2018 C2031 0.930 . S
H2019 C2035 0.959 . S
H2020 C2035 0.959 . S
H2021 C2035 0.961 . S
H2022 C2036 0.960 . S
H2023 C2036 0.961 . S
H2024 C2036 0.959 . S
H2025 C2039 0.929 . S
H2026 C2040 0.931 . S
H2027 C2042 0.930 . S
C2028 H2016 0.930 . S
C2028 C2029 1.399 . S
C2028 C2033 1.399 . S
C2029 C2028 1.399 . S
C2029 C2030 1.376 . S
C2030 H2017 0.930 . S
C2030 C2029 1.376 . S
C2030 C2031 1.388 . S
C2031 H2018 0.930 . S
C2031 C2030 1.388 . S
C2031 C2032 1.390 . S
C2032 C2031 1.390 . S
C2032 C2033 1.394 . S
C2032 C2038 1.465 . S
C2033 C2028 1.399 . S
C2033 C2032 1.394 . S
C2033 C2034 1.516 . S
C2034 C2033 1.516 . S
C2034 C2035 1.502 . S
C2034 C2036 1.561 . S
C2034 C2037 1.526 . S
C2035 H2019 0.959 . S
C2035 H2020 0.959 . S
C2035 H2021 0.961 . S
C2035 C2034 1.502 . S
C2036 H2022 0.960 . S
C2036 H2023 0.961 . S
C2036 H2024 0.959 . S
C2036 C2034 1.561 . S
C2037 C2034 1.526 . S
C2037 C2038 1.396 . S
C2037 C2042 1.390 . S
C2038 C2032 1.465 . S
C2038 C2037 1.396 . S
C2038 C2039 1.399 . S
C2039 H2025 0.929 . S
C2039 C2038 1.399 . S
C2039 C2040 1.385 . S
C2040 H2026 0.931 . S
C2040 C2039 1.385 . S
C2040 C2041 1.389 . S
C2041 C2040 1.389 . S
C2041 C2042 1.387 . S
C2042 H2027 0.930 . S
C2042 C2037 1.390 . S
C2042 C2041 1.387 . S
H2043 C2055 0.930 . S
H2044 C2057 0.930 . S
H2045 C2058 0.930 . S
H2046 C2062 0.959 . S
H2047 C2062 0.959 . S
H2048 C2062 0.961 . S
H2049 C2063 0.960 . S
H2050 C2063 0.961 . S
H2051 C2063 0.959 . S
H2052 C2066 0.929 . S
H2053 C2067 0.931 . S
H2054 C2069 0.930 . S
C2055 H2043 0.930 . S
C2055 C2056 1.399 . S
C2055 C2060 1.399 . S
C2056 C2055 1.399 . S
C2056 C2057 1.376 . S
C2057 H2044 0.930 . S
C2057 C2056 1.376 . S
C2057 C2058 1.388 . S
C2058 H2045 0.930 . S
C2058 C2057 1.388 . S
C2058 C2059 1.390 . S
C2059 C2058 1.390 . S
C2059 C2060 1.394 . S
C2059 C2065 1.465 . S
C2060 C2055 1.399 . S
C2060 C2059 1.394 . S
C2060 C2061 1.516 . S
C2061 C2060 1.516 . S
C2061 C2062 1.502 . S
C2061 C2063 1.561 . S
C2061 C2064 1.526 . S
C2062 H2046 0.959 . S
C2062 H2047 0.959 . S
C2062 H2048 0.961 . S
C2062 C2061 1.502 . S
C2063 H2049 0.960 . S
C2063 H2050 0.961 . S
C2063 H2051 0.959 . S
C2063 C2061 1.561 . S
C2064 C2061 1.526 . S
C2064 C2065 1.396 . S
C2064 C2069 1.390 . S
C2065 C2059 1.465 . S
C2065 C2064 1.396 . S
C2065 C2066 1.399 . S
C2066 H2052 0.929 . S
C2066 C2065 1.399 . S
C2066 C2067 1.385 . S
C2067 H2053 0.931 . S
C2067 C2066 1.385 . S
C2067 C2068 1.389 . S
C2068 C2067 1.389 . S
C2068 C2069 1.387 . S
C2069 H2054 0.930 . S
C2069 C2064 1.390 . S
C2069 C2068 1.387 . S
H2070 C2082 0.930 . S
H2071 C2084 0.930 . S
H2072 C2085 0.930 . S
H2073 C2089 0.959 . S
H2074 C2089 0.959 . S
H2075 C2089 0.961 . S
H2076 C2090 0.960 . S
H2077 C2090 0.961 . S
H2078 C2090 0.959 . S
H2079 C2093 0.929 . S
H2080 C2094 0.931 . S
H2081 C2096 0.930 . S
C2082 H2070 0.930 . S
C2082 C2083 1.399 . S
C2082 C2087 1.399 . S
C2083 C2082 1.399 . S
C2083 C2084 1.376 . S
C2084 H2071 0.930 . S
C2084 C2083 1.376 . S
C2084 C2085 1.388 . S
C2085 H2072 0.930 . S
C2085 C2084 1.388 . S
C2085 C2086 1.390 . S
C2086 C2085 1.390 . S
C2086 C2087 1.394 . S
C2086 C2092 1.465 . S
C2087 C2082 1.399 . S
C2087 C2086 1.394 . S
C2087 C2088 1.516 . S
C2088 C2087 1.516 . S
C2088 C2089 1.502 . S
C2088 C2090 1.561 . S
C2088 C2091 1.526 . S
C2089 H2073 0.959 . S
C2089 H2074 0.959 . S
C2089 H2075 0.961 . S
C2089 C2088 1.502 . S
C2090 H2076 0.960 . S
C2090 H2077 0.961 . S
C2090 H2078 0.959 . S
C2090 C2088 1.561 . S
C2091 C2088 1.526 . S
C2091 C2092 1.396 . S
C2091 C2096 1.390 . S
C2092 C2086 1.465 . S
C2092 C2091 1.396 . S
C2092 C2093 1.399 . S
C2093 H2079 0.929 . S
C2093 C2092 1.399 . S
C2093 C2094 1.385 . S
C2094 H2080 0.931 . S
C2094 C2093 1.385 . S
C2094 C2095 1.389 . S
C2095 C2094 1.389 . S
C2095 C2096 1.387 . S
C2096 H2081 0.930 . S
C2096 C2091 1.390 . S
C2096 C2095 1.387 . S
H2097 C2109 0.930 . S
H2098 C2111 0.930 . S
H2099 C2112 0.930 . S
H2100 C2116 0.959 . S
H2101 C2116 0.959 . S
H2102 C2116 0.961 . S
H2103 C2117 0.960 . S
H2104 C2117 0.961 . S
H2105 C2117 0.959 . S
H2106 C2120 0.929 . S
H2107 C2121 0.931 . S
H2108 C2123 0.930 . S
C2109 H2097 0.930 . S
C2109 C2110 1.399 . S
C2109 C2114 1.399 . S
C2110 C2109 1.399 . S
C2110 C2111 1.376 . S
C2111 H2098 0.930 . S
C2111 C2110 1.376 . S
C2111 C2112 1.388 . S
C2112 H2099 0.930 . S
C2112 C2111 1.388 . S
C2112 C2113 1.390 . S
C2113 C2112 1.390 . S
C2113 C2114 1.394 . S
C2113 C2119 1.465 . S
C2114 C2109 1.399 . S
C2114 C2113 1.394 . S
C2114 C2115 1.516 . S
C2115 C2114 1.516 . S
C2115 C2116 1.502 . S
C2115 C2117 1.561 . S
C2115 C2118 1.526 . S
C2116 H2100 0.959 . S
C2116 H2101 0.959 . S
C2116 H2102 0.961 . S
C2116 C2115 1.502 . S
C2117 H2103 0.960 . S
C2117 H2104 0.961 . S
C2117 H2105 0.959 . S
C2117 C2115 1.561 . S
C2118 C2115 1.526 . S
C2118 C2119 1.396 . S
C2118 C2123 1.390 . S
C2119 C2113 1.465 . S
C2119 C2118 1.396 . S
C2119 C2120 1.399 . S
C2120 H2106 0.929 . S
C2120 C2119 1.399 . S
C2120 C2121 1.385 . S
C2121 H2107 0.931 . S
C2121 C2120 1.385 . S
C2121 C2122 1.389 . S
C2122 C2121 1.389 . S
C2122 C2123 1.387 . S
C2123 H2108 0.930 . S
C2123 C2118 1.390 . S
C2123 C2122 1.387 . S
H2124 C2136 0.930 . S
H2125 C2138 0.930 . S
H2126 C2139 0.930 . S
H2127 C2143 0.959 . S
H2128 C2143 0.959 . S
H2129 C2143 0.961 . S
H2130 C2144 0.960 . S
H2131 C2144 0.961 . S
H2132 C2144 0.959 . S
H2133 C2147 0.929 . S
H2134 C2148 0.931 . S
H2135 C2150 0.930 . S
C2136 H2124 0.930 . S
C2136 C2137 1.399 . S
C2136 C2141 1.399 . S
C2137 C2136 1.399 . S
C2137 C2138 1.376 . S
C2138 H2125 0.930 . S
C2138 C2137 1.376 . S
C2138 C2139 1.388 . S
C2139 H2126 0.930 . S
C2139 C2138 1.388 . S
C2139 C2140 1.390 . S
C2140 C2139 1.390 . S
C2140 C2141 1.394 . S
C2140 C2146 1.465 . S
C2141 C2136 1.399 . S
C2141 C2140 1.394 . S
C2141 C2142 1.516 . S
C2142 C2141 1.516 . S
C2142 C2143 1.502 . S
C2142 C2144 1.561 . S
C2142 C2145 1.526 . S
C2143 H2127 0.959 . S
C2143 H2128 0.959 . S
C2143 H2129 0.961 . S
C2143 C2142 1.502 . S
C2144 H2130 0.960 . S
C2144 H2131 0.961 . S
C2144 H2132 0.959 . S
C2144 C2142 1.561 . S
C2145 C2142 1.526 . S
C2145 C2146 1.396 . S
C2145 C2150 1.390 . S
C2146 C2140 1.465 . S
C2146 C2145 1.396 . S
C2146 C2147 1.399 . S
C2147 H2133 0.929 . S
C2147 C2146 1.399 . S
C2147 C2148 1.385 . S
C2148 H2134 0.931 . S
C2148 C2147 1.385 . S
C2148 C2149 1.389 . S
C2149 C2148 1.389 . S
C2149 C2150 1.387 . S
C2150 H2135 0.930 . S
C2150 C2145 1.390 . S
C2150 C2149 1.387 . S
H2151 C2163 0.930 . S
H2152 C2165 0.930 . S
H2153 C2166 0.930 . S
H2154 C2170 0.959 . S
H2155 C2170 0.959 . S
H2156 C2170 0.961 . S
H2157 C2171 0.960 . S
H2158 C2171 0.961 . S
H2159 C2171 0.959 . S
H2160 C2174 0.929 . S
H2161 C2175 0.931 . S
H2162 C2177 0.930 . S
C2163 H2151 0.930 . S
C2163 C2164 1.399 . S
C2163 C2168 1.399 . S
C2164 C2163 1.399 . S
C2164 C2165 1.376 . S
C2165 H2152 0.930 . S
C2165 C2164 1.376 . S
C2165 C2166 1.388 . S
C2166 H2153 0.930 . S
C2166 C2165 1.388 . S
C2166 C2167 1.390 . S
C2167 C2166 1.390 . S
C2167 C2168 1.394 . S
C2167 C2173 1.465 . S
C2168 C2163 1.399 . S
C2168 C2167 1.394 . S
C2168 C2169 1.516 . S
C2169 C2168 1.516 . S
C2169 C2170 1.502 . S
C2169 C2171 1.561 . S
C2169 C2172 1.526 . S
C2170 H2154 0.959 . S
C2170 H2155 0.959 . S
C2170 H2156 0.961 . S
C2170 C2169 1.502 . S
C2171 H2157 0.960 . S
C2171 H2158 0.961 . S
C2171 H2159 0.959 . S
C2171 C2169 1.561 . S
C2172 C2169 1.526 . S
C2172 C2173 1.396 . S
C2172 C2177 1.390 . S
C2173 C2167 1.465 . S
C2173 C2172 1.396 . S
C2173 C2174 1.399 . S
C2174 H2160 0.929 . S
C2174 C2173 1.399 . S
C2174 C2175 1.385 . S
C2175 H2161 0.931 . S
C2175 C2174 1.385 . S
C2175 C2176 1.389 . S
C2176 C2175 1.389 . S
C2176 C2177 1.387 . S
C2177 H2162 0.930 . S
C2177 C2172 1.390 . S
C2177 C2176 1.387 . S
H2178 C2190 0.930 . S
H2179 C2192 0.978 . S
H2180 C2193 0.930 1_455 S
H2181 C2197 0.959 . S
H2182 C2197 0.959 . S
H2183 C2197 0.961 . S
H2184 C2198 0.960 . S
H2185 C2198 0.961 . S
H2186 C2198 0.959 . S
H2187 C2201 0.929 . S
H2188 C2202 0.931 . S
H2189 C2204 0.930 . S
C2190 H2178 0.930 . S
C2190 C2191 1.399 . S
C2190 C2195 1.399 . S
C2191 C2190 1.399 . S
C2191 C2192 1.335 1_655 S
C2192 H2179 0.978 . S
C2192 C2191 1.335 1_455 S
C2192 C2193 1.384 1_455 S
C2193 H2180 0.930 1_655 S
C2193 C2192 1.384 1_655 S
C2193 C2194 1.390 . S
C2194 C2193 1.390 . S
C2194 C2195 1.394 . S
C2194 C2200 1.465 . S
C2195 C2190 1.399 . S
C2195 C2194 1.394 . S
C2195 C2196 1.516 . S
C2196 C2195 1.516 . S
C2196 C2197 1.502 . S
C2196 C2198 1.561 . S
C2196 C2199 1.526 . S
C2197 H2181 0.959 . S
C2197 H2182 0.959 . S
C2197 H2183 0.961 . S
C2197 C2196 1.502 . S
C2198 H2184 0.960 . S
C2198 H2185 0.961 . S
C2198 H2186 0.959 . S
C2198 C2196 1.561 . S
C2199 C2196 1.526 . S
C2199 C2200 1.396 . S
C2199 C2204 1.390 . S
C2200 C2194 1.465 . S
C2200 C2199 1.396 . S
C2200 C2201 1.399 . S
C2201 H2187 0.929 . S
C2201 C2200 1.399 . S
C2201 C2202 1.385 . S
C2202 H2188 0.931 . S
C2202 C2201 1.385 . S
C2202 C2203 1.389 . S
C2203 C2202 1.389 . S
C2203 C2204 1.387 . S
C2204 H2189 0.930 . S
C2204 C2199 1.390 . S
C2204 C2203 1.387 . S
H2205 C2217 0.930 . S
H2206 C2219 0.909 1_655 S
H2207 C2220 0.930 1_655 S
H2208 C2224 0.959 . S
H2209 C2224 0.959 . S
H2210 C2224 0.961 . S
H2211 C2225 0.983 . S
H2212 C2225 0.961 . S
H2213 C2225 0.959 . S
H2214 C2228 0.929 . S
H2215 C2229 0.931 . S
H2216 C2231 0.930 . S
C2217 H2205 0.930 . S
C2217 C2218 1.399 . S
C2217 C2222 1.399 1_565 S
C2218 C2217 1.399 . S
C2218 C2219 1.395 1_565 S
C2219 H2206 0.909 1_455 S
C2219 C2218 1.395 1_545 S
C2219 C2220 1.391 . S
C2220 H2207 0.930 1_455 S
C2220 C2219 1.391 . S
C2220 C2221 1.390 . S
C2221 C2220 1.390 . S
C2221 C2222 1.394 . S
C2221 C2227 1.465 . S
C2222 C2217 1.399 1_545 S
C2222 C2221 1.394 . S
C2222 C2223 1.516 . S
C2223 C2222 1.516 . S
C2223 C2224 1.502 . S
C2223 C2225 1.561 . S
C2223 C2226 1.526 . S
C2224 H2208 0.959 . S
C2224 H2209 0.959 . S
C2224 H2210 0.961 . S
C2224 C2223 1.502 . S
C2225 H2211 0.983 . S
C2225 H2212 0.961 . S
C2225 H2213 0.959 . S
C2225 C2223 1.561 . S
C2226 C2223 1.526 . S
C2226 C2227 1.396 . S
C2226 C2231 1.390 . S
C2227 C2221 1.465 . S
C2227 C2226 1.396 . S
C2227 C2228 1.399 . S
C2228 H2214 0.929 . S
C2228 C2227 1.399 . S
C2228 C2229 1.385 . S
C2229 H2215 0.931 . S
C2229 C2228 1.385 . S
C2229 C2230 1.389 . S
C2230 C2229 1.389 . S
C2230 C2231 1.387 . S
C2231 H2216 0.930 . S
C2231 C2226 1.390 . S
C2231 C2230 1.387 . S
H2232 C2244 0.930 . S
H2233 C2246 0.930 . S
H2234 C2247 0.930 . S
H2235 C2251 0.959 . S
H2236 C2251 0.959 . S
H2237 C2251 0.961 . S
H2238 C2252 0.960 . S
H2239 C2252 0.961 . S
H2240 C2252 0.959 . S
H2241 C2255 0.929 . S
H2242 C2256 0.931 . S
H2243 C2258 0.930 . S
C2244 H2232 0.930 . S
C2244 C2245 1.399 . S
C2244 C2249 1.399 . S
C2245 C2244 1.399 . S
C2245 C2246 1.376 . S
C2246 H2233 0.930 . S
C2246 C2245 1.376 . S
C2246 C2247 1.388 . S
C2247 H2234 0.930 . S
C2247 C2246 1.388 . S
C2247 C2248 1.390 . S
C2248 C2247 1.390 . S
C2248 C2249 1.394 . S
C2248 C2254 1.465 . S
C2249 C2244 1.399 . S
C2249 C2248 1.394 . S
C2249 C2250 1.516 . S
C2250 C2249 1.516 . S
C2250 C2251 1.502 . S
C2250 C2252 1.561 . S
C2250 C2253 1.526 . S
C2251 H2235 0.959 . S
C2251 H2236 0.959 . S
C2251 H2237 0.961 . S
C2251 C2250 1.502 . S
C2252 H2238 0.960 . S
C2252 H2239 0.961 . S
C2252 H2240 0.959 . S
C2252 C2250 1.561 . S
C2253 C2250 1.526 . S
C2253 C2254 1.396 . S
C2253 C2258 1.390 . S
C2254 C2248 1.465 . S
C2254 C2253 1.396 . S
C2254 C2255 1.399 . S
C2255 H2241 0.929 . S
C2255 C2254 1.399 . S
C2255 C2256 1.385 . S
C2256 H2242 0.931 . S
C2256 C2255 1.385 . S
C2256 C2257 1.389 . S
C2257 C2256 1.389 . S
C2257 C2258 1.387 . S
C2258 H2243 0.930 . S
C2258 C2253 1.390 . S
C2258 C2257 1.387 . S
H2259 C2271 0.930 . S
H2260 C2273 0.930 . S
H2261 C2274 0.930 . S
H2262 C2278 0.959 . S
H2263 C2278 0.959 . S
H2264 C2278 0.961 . S
H2265 C2279 0.960 . S
H2266 C2279 0.961 . S
H2267 C2279 0.959 . S
H2268 C2282 0.929 . S
H2269 C2283 0.931 . S
H2270 C2285 0.930 . S
C2271 H2259 0.930 . S
C2271 C2272 1.399 . S
C2271 C2276 1.399 . S
C2272 C2271 1.399 . S
C2272 C2273 1.376 . S
C2273 H2260 0.930 . S
C2273 C2272 1.376 . S
C2273 C2274 1.388 . S
C2274 H2261 0.930 . S
C2274 C2273 1.388 . S
C2274 C2275 1.390 . S
C2275 C2274 1.390 . S
C2275 C2276 1.394 . S
C2275 C2281 1.465 . S
C2276 C2271 1.399 . S
C2276 C2275 1.394 . S
C2276 C2277 1.516 . S
C2277 C2276 1.516 . S
C2277 C2278 1.502 . S
C2277 C2279 1.561 . S
C2277 C2280 1.526 . S
C2278 H2262 0.959 . S
C2278 H2263 0.959 . S
C2278 H2264 0.961 . S
C2278 C2277 1.502 . S
C2279 H2265 0.960 . S
C2279 H2266 0.961 . S
C2279 H2267 0.959 . S
C2279 C2277 1.561 . S
C2280 C2277 1.526 . S
C2280 C2281 1.396 . S
C2280 C2285 1.390 . S
C2281 C2275 1.465 . S
C2281 C2280 1.396 . S
C2281 C2282 1.399 . S
C2282 H2268 0.929 . S
C2282 C2281 1.399 . S
C2282 C2283 1.385 1_655 S
C2283 H2269 0.931 . S
C2283 C2282 1.385 1_455 S
C2283 C2284 1.389 . S
C2284 C2283 1.389 . S
C2284 C2285 1.387 1_455 S
C2285 H2270 0.930 . S
C2285 C2280 1.390 . S
C2285 C2284 1.387 1_655 S
H2286 C2298 0.930 . S
H2287 C2300 0.930 . S
H2288 C2301 0.930 . S
H2289 C2305 0.959 . S
H2290 C2305 0.959 . S
H2291 C2305 0.961 . S
H2292 C2306 0.960 . S
H2293 C2306 0.961 . S
H2294 C2306 0.959 . S
H2295 C2309 0.929 . S
H2296 C2310 0.931 . S
H2297 C2312 0.930 . S
C2298 H2286 0.930 . S
C2298 C2299 1.399 . S
C2298 C2303 1.399 . S
C2299 C2298 1.399 . S
C2299 C2300 1.376 . S
C2300 H2287 0.930 . S
C2300 C2299 1.376 . S
C2300 C2301 1.388 . S
C2301 H2288 0.930 . S
C2301 C2300 1.388 . S
C2301 C2302 1.390 . S
C2302 C2301 1.390 . S
C2302 C2303 1.394 . S
C2302 C2308 1.465 . S
C2303 C2298 1.399 . S
C2303 C2302 1.394 . S
C2303 C2304 1.516 . S
C2304 C2303 1.516 . S
C2304 C2305 1.502 . S
C2304 C2306 1.561 . S
C2304 C2307 1.526 . S
C2305 H2289 0.959 . S
C2305 H2290 0.959 . S
C2305 H2291 0.961 . S
C2305 C2304 1.502 . S
C2306 H2292 0.960 . S
C2306 H2293 0.961 . S
C2306 H2294 0.959 . S
C2306 C2304 1.561 . S
C2307 C2304 1.526 . S
C2307 C2308 1.396 . S
C2307 C2312 1.390 . S
C2308 C2302 1.465 . S
C2308 C2307 1.396 . S
C2308 C2309 1.399 . S
C2309 H2295 0.929 . S
C2309 C2308 1.399 . S
C2309 C2310 1.385 . S
C2310 H2296 0.931 . S
C2310 C2309 1.385 . S
C2310 C2311 1.389 . S
C2311 C2310 1.389 . S
C2311 C2312 1.387 . S
C2312 H2297 0.930 . S
C2312 C2307 1.390 . S
C2312 C2311 1.387 . S
H2313 C2325 0.930 . S
H2314 C2327 0.930 . S
H2315 C2328 0.930 . S
H2316 C2332 0.959 . S
H2317 C2332 0.959 . S
H2318 C2332 0.961 . S
H2319 C2333 0.960 . S
H2320 C2333 0.961 . S
H2321 C2333 0.959 . S
H2322 C2336 0.929 . S
H2323 C2337 0.931 . S
H2324 C2339 0.930 . S
C2325 H2313 0.930 . S
C2325 C2326 1.399 1_455 S
C2325 C2330 1.399 . S
C2326 C2325 1.399 1_655 S
C2326 C2327 1.376 . S
C2327 H2314 0.930 . S
C2327 C2326 1.376 . S
C2327 C2328 1.388 1_655 S
C2328 H2315 0.930 . S
C2328 C2327 1.388 1_455 S
C2328 C2329 1.390 . S
C2329 C2328 1.390 . S
C2329 C2330 1.394 . S
C2329 C2335 1.465 . S
C2330 C2325 1.399 . S
C2330 C2329 1.394 . S
C2330 C2331 1.516 . S
C2331 C2330 1.516 . S
C2331 C2332 1.502 . S
C2331 C2333 1.561 . S
C2331 C2334 1.526 . S
C2332 H2316 0.959 . S
C2332 H2317 0.959 . S
C2332 H2318 0.961 . S
C2332 C2331 1.502 . S
C2333 H2319 0.960 . S
C2333 H2320 0.961 . S
C2333 H2321 0.959 . S
C2333 C2331 1.561 . S
C2334 C2331 1.526 . S
C2334 C2335 1.396 . S
C2334 C2339 1.390 . S
C2335 C2329 1.465 . S
C2335 C2334 1.396 . S
C2335 C2336 1.399 . S
C2336 H2322 0.929 . S
C2336 C2335 1.399 . S
C2336 C2337 1.385 . S
C2337 H2323 0.931 . S
C2337 C2336 1.385 . S
C2337 C2338 1.389 . S
C2338 C2337 1.389 . S
C2338 C2339 1.387 . S
C2339 H2324 0.930 . S
C2339 C2334 1.390 . S
C2339 C2338 1.387 . S
H2340 C2352 0.930 . S
H2341 C2354 0.930 . S
H2342 C2355 0.930 . S
H2343 C2359 0.959 . S
H2344 C2359 0.959 . S
H2345 C2359 0.961 . S
H2346 C2360 0.960 . S
H2347 C2360 0.961 . S
H2348 C2360 0.959 . S
H2349 C2363 0.929 . S
H2350 C2364 0.931 . S
H2351 C2366 0.930 . S
C2352 H2340 0.930 . S
C2352 C2353 1.399 . S
C2352 C2357 1.399 . S
C2353 C2352 1.399 . S
C2353 C2354 1.376 . S
C2354 H2341 0.930 . S
C2354 C2353 1.376 . S
C2354 C2355 1.388 . S
C2355 H2342 0.930 . S
C2355 C2354 1.388 . S
C2355 C2356 1.390 . S
C2356 C2355 1.390 . S
C2356 C2357 1.394 . S
C2356 C2362 1.465 . S
C2357 C2352 1.399 . S
C2357 C2356 1.394 . S
C2357 C2358 1.516 . S
C2358 C2357 1.516 . S
C2358 C2359 1.502 . S
C2358 C2360 1.561 . S
C2358 C2361 1.526 . S
C2359 H2343 0.959 . S
C2359 H2344 0.959 . S
C2359 H2345 0.961 . S
C2359 C2358 1.502 . S
C2360 H2346 0.960 . S
C2360 H2347 0.961 . S
C2360 H2348 0.959 . S
C2360 C2358 1.561 . S
C2361 C2358 1.526 . S
C2361 C2362 1.396 . S
C2361 C2366 1.390 . S
C2362 C2356 1.465 . S
C2362 C2361 1.396 . S
C2362 C2363 1.399 . S
C2363 H2349 0.929 . S
C2363 C2362 1.399 . S
C2363 C2364 1.385 . S
C2364 H2350 0.931 . S
C2364 C2363 1.385 . S
C2364 C2365 1.389 . S
C2365 C2364 1.389 . S
C2365 C2366 1.387 . S
C2366 H2351 0.930 . S
C2366 C2361 1.390 . S
C2366 C2365 1.387 . S
H2367 C2379 0.930 . S
H2368 C2381 0.930 . S
H2369 C2382 0.930 . S
H2370 C2386 0.959 . S
H2371 C2386 0.959 . S
H2372 C2386 0.961 . S
H2373 C2387 0.960 . S
H2374 C2387 0.961 . S
H2375 C2387 0.959 . S
H2376 C2390 0.929 . S
H2377 C2391 0.931 . S
H2378 C2393 0.930 . S
C2379 H2367 0.930 . S
C2379 C2380 1.399 . S
C2379 C2384 1.399 . S
C2380 C2379 1.399 . S
C2380 C2381 1.376 . S
C2381 H2368 0.930 . S
C2381 C2380 1.376 . S
C2381 C2382 1.388 . S
C2382 H2369 0.930 . S
C2382 C2381 1.388 . S
C2382 C2383 1.390 . S
C2383 C2382 1.390 . S
C2383 C2384 1.394 . S
C2383 C2389 1.465 . S
C2384 C2379 1.399 . S
C2384 C2383 1.394 . S
C2384 C2385 1.516 . S
C2385 C2384 1.516 . S
C2385 C2386 1.502 . S
C2385 C2387 1.561 . S
C2385 C2388 1.526 . S
C2386 H2370 0.959 . S
C2386 H2371 0.959 . S
C2386 H2372 0.961 . S
C2386 C2385 1.502 . S
C2387 H2373 0.960 . S
C2387 H2374 0.961 . S
C2387 H2375 0.959 . S
C2387 C2385 1.561 . S
C2388 C2385 1.526 . S
C2388 C2389 1.396 . S
C2388 C2393 1.390 . S
C2389 C2383 1.465 . S
C2389 C2388 1.396 . S
C2389 C2390 1.399 . S
C2390 H2376 0.929 . S
C2390 C2389 1.399 . S
C2390 C2391 1.385 . S
C2391 H2377 0.931 . S
C2391 C2390 1.385 . S
C2391 C2392 1.389 . S
C2392 C2391 1.389 . S
C2392 C2393 1.387 . S
C2393 H2378 0.930 . S
C2393 C2388 1.390 . S
C2393 C2392 1.387 . S
H2394 C2406 0.930 . S
H2395 C2408 0.930 . S
H2396 C2409 0.930 . S
H2397 C2413 0.959 . S
H2398 C2413 0.959 . S
H2399 C2413 0.961 . S
H2400 C2414 0.960 . S
H2401 C2414 0.961 . S
H2402 C2414 0.959 . S
H2403 C2417 0.929 . S
H2404 C2418 0.931 . S
H2405 C2420 0.930 . S
C2406 H2394 0.930 . S
C2406 C2407 1.399 . S
C2406 C2411 1.399 . S
C2407 C2406 1.399 . S
C2407 C2408 1.376 . S
C2408 H2395 0.930 . S
C2408 C2407 1.376 . S
C2408 C2409 1.388 . S
C2409 H2396 0.930 . S
C2409 C2408 1.388 . S
C2409 C2410 1.390 . S
C2410 C2409 1.390 . S
C2410 C2411 1.394 . S
C2410 C2416 1.465 . S
C2411 C2406 1.399 . S
C2411 C2410 1.394 . S
C2411 C2412 1.516 . S
C2412 C2411 1.516 . S
C2412 C2413 1.502 . S
C2412 C2414 1.561 . S
C2412 C2415 1.526 . S
C2413 H2397 0.959 . S
C2413 H2398 0.959 . S
C2413 H2399 0.961 . S
C2413 C2412 1.502 . S
C2414 H2400 0.960 . S
C2414 H2401 0.961 . S
C2414 H2402 0.959 . S
C2414 C2412 1.561 . S
C2415 C2412 1.526 . S
C2415 C2416 1.396 . S
C2415 C2420 1.390 . S
C2416 C2410 1.465 . S
C2416 C2415 1.396 . S
C2416 C2417 1.399 . S
C2417 H2403 0.929 . S
C2417 C2416 1.399 . S
C2417 C2418 1.385 . S
C2418 H2404 0.931 . S
C2418 C2417 1.385 . S
C2418 C2419 1.389 . S
C2419 C2418 1.389 . S
C2419 C2420 1.387 . S
C2420 H2405 0.930 . S
C2420 C2415 1.390 . S
C2420 C2419 1.387 . S
H2421 C2433 0.930 . S
H2422 C2435 0.930 . S
H2423 C2436 0.930 . S
H2424 C2440 0.959 . S
H2425 C2440 0.959 . S
H2426 C2440 0.961 . S
H2427 C2441 0.960 . S
H2428 C2441 0.961 . S
H2429 C2441 0.959 . S
H2430 C2444 0.929 . S
H2431 C2445 0.931 . S
H2432 C2447 0.930 . S
C2433 H2421 0.930 . S
C2433 C2434 1.399 . S
C2433 C2438 1.399 . S
C2434 C2433 1.399 . S
C2434 C2435 1.376 . S
C2435 H2422 0.930 . S
C2435 C2434 1.376 . S
C2435 C2436 1.388 . S
C2436 H2423 0.930 . S
C2436 C2435 1.388 . S
C2436 C2437 1.390 . S
C2437 C2436 1.390 . S
C2437 C2438 1.394 . S
C2437 C2443 1.465 . S
C2438 C2433 1.399 . S
C2438 C2437 1.394 . S
C2438 C2439 1.516 . S
C2439 C2438 1.516 . S
C2439 C2440 1.502 . S
C2439 C2441 1.561 . S
C2439 C2442 1.526 . S
C2440 H2424 0.959 . S
C2440 H2425 0.959 . S
C2440 H2426 0.961 . S
C2440 C2439 1.502 . S
C2441 H2427 0.960 . S
C2441 H2428 0.961 . S
C2441 H2429 0.959 . S
C2441 C2439 1.561 . S
C2442 C2439 1.526 . S
C2442 C2443 1.396 . S
C2442 C2447 1.390 . S
C2443 C2437 1.465 . S
C2443 C2442 1.396 . S
C2443 C2444 1.399 . S
C2444 H2430 0.929 . S
C2444 C2443 1.399 . S
C2444 C2445 1.385 . S
C2445 H2431 0.931 . S
C2445 C2444 1.385 . S
C2445 C2446 1.389 . S
C2446 C2445 1.389 . S
C2446 C2447 1.387 . S
C2447 H2432 0.930 . S
C2447 C2442 1.390 . S
C2447 C2446 1.387 . S
H2448 C2460 0.930 . S
H2449 C2462 0.930 . S
H2450 C2463 0.930 . S
H2451 C2467 0.959 . S
H2452 C2467 0.959 . S
H2453 C2467 0.961 . S
H2454 C2468 0.960 . S
H2455 C2468 0.961 . S
H2456 C2468 0.959 . S
H2457 C2471 0.929 . S
H2458 C2472 0.931 . S
H2459 C2474 0.930 . S
C2460 H2448 0.930 . S
C2460 C2461 1.399 . S
C2460 C2465 1.399 . S
C2461 C2460 1.399 . S
C2461 C2462 1.376 . S
C2462 H2449 0.930 . S
C2462 C2461 1.376 . S
C2462 C2463 1.388 . S
C2463 H2450 0.930 . S
C2463 C2462 1.388 . S
C2463 C2464 1.390 . S
C2464 C2463 1.390 . S
C2464 C2465 1.394 . S
C2464 C2470 1.465 . S
C2465 C2460 1.399 . S
C2465 C2464 1.394 . S
C2465 C2466 1.516 . S
C2466 C2465 1.516 . S
C2466 C2467 1.502 . S
C2466 C2468 1.561 . S
C2466 C2469 1.526 . S
C2467 H2451 0.959 . S
C2467 H2452 0.959 . S
C2467 H2453 0.961 . S
C2467 C2466 1.502 . S
C2468 H2454 0.960 . S
C2468 H2455 0.961 . S
C2468 H2456 0.959 . S
C2468 C2466 1.561 . S
C2469 C2466 1.526 . S
C2469 C2470 1.396 . S
C2469 C2474 1.390 . S
C2470 C2464 1.465 . S
C2470 C2469 1.396 . S
C2470 C2471 1.399 . S
C2471 H2457 0.929 . S
C2471 C2470 1.399 . S
C2471 C2472 1.385 . S
C2472 H2458 0.931 . S
C2472 C2471 1.385 . S
C2472 C2473 1.389 . S
C2473 C2472 1.389 . S
C2473 C2474 1.387 . S
C2474 H2459 0.930 . S
C2474 C2469 1.390 . S
C2474 C2473 1.387 . S
H2475 C2487 0.930 . S
H2476 C2489 0.930 . S
H2477 C2490 0.930 . S
H2478 C2494 0.959 . S
H2479 C2494 0.959 . S
H2480 C2494 0.961 . S
H2481 C2495 0.960 . S
H2482 C2495 0.961 . S
H2483 C2495 0.959 . S
H2484 C2498 0.929 1_545 S
H2485 C2499 0.954 . S
H2486 C2501 0.930 . S
C2487 H2475 0.930 . S
C2487 C2488 1.399 . S
C2487 C2492 1.399 . S
C2488 C2487 1.399 . S
C2488 C2489 1.376 . S
C2489 H2476 0.930 . S
C2489 C2488 1.376 . S
C2489 C2490 1.388 . S
C2490 H2477 0.930 . S
C2490 C2489 1.388 . S
C2490 C2491 1.390 . S
C2491 C2490 1.390 . S
C2491 C2492 1.394 . S
C2491 C2497 1.465 . S
C2492 C2487 1.399 . S
C2492 C2491 1.394 . S
C2492 C2493 1.516 . S
C2493 C2492 1.516 . S
C2493 C2494 1.502 . S
C2493 C2495 1.561 . S
C2493 C2496 1.526 . S
C2494 H2478 0.959 . S
C2494 H2479 0.959 . S
C2494 H2480 0.961 . S
C2494 C2493 1.502 . S
C2495 H2481 0.960 . S
C2495 H2482 0.961 . S
C2495 H2483 0.959 . S
C2495 C2493 1.561 . S
C2496 C2493 1.526 . S
C2496 C2497 1.396 . S
C2496 C2501 1.390 . S
C2497 C2491 1.465 . S
C2497 C2496 1.396 . S
C2497 C2498 1.399 . S
C2498 H2484 0.929 1_565 S
C2498 C2497 1.399 . S
C2498 C2499 1.383 1_565 S
C2499 H2485 0.954 . S
C2499 C2498 1.383 1_545 S
C2499 C2500 1.370 1_545 S
C2500 C2499 1.370 1_565 S
C2500 C2501 1.387 . S
C2501 H2486 0.930 . S
C2501 C2496 1.390 . S
C2501 C2500 1.387 . S
H2502 C2514 0.930 . S
H2503 C2516 0.930 . S
H2504 C2517 0.930 . S
H2505 C2521 0.959 . S
H2506 C2521 0.959 . S
H2507 C2521 0.961 . S
H2508 C2522 0.960 . S
H2509 C2522 0.961 . S
H2510 C2522 0.959 . S
H2511 C2525 0.929 . S
H2512 C2526 0.931 . S
H2513 C2528 0.930 . S
C2514 H2502 0.930 . S
C2514 C2515 1.399 . S
C2514 C2519 1.399 . S
C2515 C2514 1.399 . S
C2515 C2516 1.376 . S
C2516 H2503 0.930 . S
C2516 C2515 1.376 . S
C2516 C2517 1.388 . S
C2517 H2504 0.930 . S
C2517 C2516 1.388 . S
C2517 C2518 1.390 . S
C2518 C2517 1.390 . S
C2518 C2519 1.394 . S
C2518 C2524 1.465 . S
C2519 C2514 1.399 . S
C2519 C2518 1.394 . S
C2519 C2520 1.516 . S
C2520 C2519 1.516 . S
C2520 C2521 1.502 . S
C2520 C2522 1.561 . S
C2520 C2523 1.526 . S
C2521 H2505 0.959 . S
C2521 H2506 0.959 . S
C2521 H2507 0.961 . S
C2521 C2520 1.502 . S
C2522 H2508 0.960 . S
C2522 H2509 0.961 . S
C2522 H2510 0.959 . S
C2522 C2520 1.561 . S
C2523 C2520 1.526 . S
C2523 C2524 1.396 . S
C2523 C2528 1.390 . S
C2524 C2518 1.465 . S
C2524 C2523 1.396 . S
C2524 C2525 1.399 . S
C2525 H2511 0.929 . S
C2525 C2524 1.399 . S
C2525 C2526 1.385 . S
C2526 H2512 0.931 . S
C2526 C2525 1.385 . S
C2526 C2527 1.389 . S
C2527 C2526 1.389 . S
C2527 C2528 1.387 . S
C2528 H2513 0.930 . S
C2528 C2523 1.390 . S
C2528 C2527 1.387 . S
H2529 C2541 0.930 . S
H2530 C2543 0.930 . S
H2531 C2544 0.930 . S
H2532 C2548 0.959 . S
H2533 C2548 0.959 . S
H2534 C2548 0.961 . S
H2535 C2549 0.960 . S
H2536 C2549 0.961 . S
H2537 C2549 0.959 . S
H2538 C2552 0.929 . S
H2539 C2553 0.931 . S
H2540 C2555 0.930 . S
C2541 H2529 0.930 . S
C2541 C2542 1.399 . S
C2541 C2546 1.399 . S
C2542 C2541 1.399 . S
C2542 C2543 1.376 . S
C2543 H2530 0.930 . S
C2543 C2542 1.376 . S
C2543 C2544 1.388 . S
C2544 H2531 0.930 . S
C2544 C2543 1.388 . S
C2544 C2545 1.390 . S
C2545 C2544 1.390 . S
C2545 C2546 1.394 . S
C2545 C2551 1.465 . S
C2546 C2541 1.399 . S
C2546 C2545 1.394 . S
C2546 C2547 1.516 . S
C2547 C2546 1.516 . S
C2547 C2548 1.502 . S
C2547 C2549 1.561 . S
C2547 C2550 1.526 . S
C2548 H2532 0.959 . S
C2548 H2533 0.959 . S
C2548 H2534 0.961 . S
C2548 C2547 1.502 . S
C2549 H2535 0.960 . S
C2549 H2536 0.961 . S
C2549 H2537 0.959 . S
C2549 C2547 1.561 . S
C2550 C2547 1.526 . S
C2550 C2551 1.396 . S
C2550 C2555 1.390 . S
C2551 C2545 1.465 . S
C2551 C2550 1.396 . S
C2551 C2552 1.399 . S
C2552 H2538 0.929 . S
C2552 C2551 1.399 . S
C2552 C2553 1.385 . S
C2553 H2539 0.931 . S
C2553 C2552 1.385 . S
C2553 C2554 1.389 . S
C2554 C2553 1.389 . S
C2554 C2555 1.387 . S
C2555 H2540 0.930 . S
C2555 C2550 1.390 . S
C2555 C2554 1.387 . S
H2556 C2568 0.930 . S
H2557 C2570 0.930 . S
H2558 C2571 0.930 . S
H2559 C2575 0.959 . S
H2560 C2575 0.959 . S
H2561 C2575 0.961 . S
H2562 C2576 0.960 . S
H2563 C2576 0.961 . S
H2564 C2576 0.959 . S
H2565 C2579 0.929 . S
H2566 C2580 0.931 . S
H2567 C2582 0.930 . S
C2568 H2556 0.930 . S
C2568 C2569 1.399 . S
C2568 C2573 1.399 . S
C2569 C2568 1.399 . S
C2569 C2570 1.376 . S
C2570 H2557 0.930 . S
C2570 C2569 1.376 . S
C2570 C2571 1.388 . S
C2571 H2558 0.930 . S
C2571 C2570 1.388 . S
C2571 C2572 1.390 . S
C2572 C2571 1.390 . S
C2572 C2573 1.394 . S
C2572 C2578 1.465 . S
C2573 C2568 1.399 . S
C2573 C2572 1.394 . S
C2573 C2574 1.516 . S
C2574 C2573 1.516 . S
C2574 C2575 1.502 . S
C2574 C2576 1.561 . S
C2574 C2577 1.526 . S
C2575 H2559 0.959 . S
C2575 H2560 0.959 . S
C2575 H2561 0.961 . S
C2575 C2574 1.502 . S
C2576 H2562 0.960 . S
C2576 H2563 0.961 . S
C2576 H2564 0.959 . S
C2576 C2574 1.561 . S
C2577 C2574 1.526 . S
C2577 C2578 1.396 . S
C2577 C2582 1.390 . S
C2578 C2572 1.465 . S
C2578 C2577 1.396 . S
C2578 C2579 1.399 . S
C2579 H2565 0.929 . S
C2579 C2578 1.399 . S
C2579 C2580 1.385 . S
C2580 H2566 0.931 . S
C2580 C2579 1.385 . S
C2580 C2581 1.389 . S
C2581 C2580 1.389 . S
C2581 C2582 1.387 . S
C2582 H2567 0.930 . S
C2582 C2577 1.390 . S
C2582 C2581 1.387 . S
H2583 C2595 0.930 . S
H2584 C2597 0.930 . S
H2585 C2598 0.930 . S
H2586 C2602 0.959 . S
H2587 C2602 0.959 . S
H2588 C2602 0.961 . S
H2589 C2603 0.960 . S
H2590 C2603 0.961 . S
H2591 C2603 0.959 . S
H2592 C2606 0.929 . S
H2593 C2607 0.931 . S
H2594 C2609 0.930 . S
C2595 H2583 0.930 . S
C2595 C2596 1.399 . S
C2595 C2600 1.399 . S
C2596 C2595 1.399 . S
C2596 C2597 1.376 . S
C2597 H2584 0.930 . S
C2597 C2596 1.376 . S
C2597 C2598 1.388 . S
C2598 H2585 0.930 . S
C2598 C2597 1.388 . S
C2598 C2599 1.390 . S
C2599 C2598 1.390 . S
C2599 C2600 1.394 . S
C2599 C2605 1.465 . S
C2600 C2595 1.399 . S
C2600 C2599 1.394 . S
C2600 C2601 1.516 . S
C2601 C2600 1.516 . S
C2601 C2602 1.502 . S
C2601 C2603 1.561 . S
C2601 C2604 1.526 . S
C2602 H2586 0.959 . S
C2602 H2587 0.959 . S
C2602 H2588 0.961 . S
C2602 C2601 1.502 . S
C2603 H2589 0.960 . S
C2603 H2590 0.961 . S
C2603 H2591 0.959 . S
C2603 C2601 1.561 . S
C2604 C2601 1.526 . S
C2604 C2605 1.396 . S
C2604 C2609 1.390 . S
C2605 C2599 1.465 . S
C2605 C2604 1.396 . S
C2605 C2606 1.399 . S
C2606 H2592 0.929 . S
C2606 C2605 1.399 . S
C2606 C2607 1.385 . S
C2607 H2593 0.931 . S
C2607 C2606 1.385 . S
C2607 C2608 1.389 . S
C2608 C2607 1.389 . S
C2608 C2609 1.387 . S
C2609 H2594 0.930 . S
C2609 C2604 1.390 . S
C2609 C2608 1.387 . S
H2610 C2622 0.930 . S
H2611 C2624 0.930 . S
H2612 C2625 0.930 . S
H2613 C2629 0.959 . S
H2614 C2629 0.959 . S
H2615 C2629 0.961 . S
H2616 C2630 0.960 . S
H2617 C2630 0.961 . S
H2618 C2630 0.959 . S
H2619 C2633 0.929 . S
H2620 C2634 0.931 . S
H2621 C2636 0.930 . S
C2622 H2610 0.930 . S
C2622 C2623 1.399 . S
C2622 C2627 1.399 . S
C2623 C2622 1.399 . S
C2623 C2624 1.376 . S
C2624 H2611 0.930 . S
C2624 C2623 1.376 . S
C2624 C2625 1.388 . S
C2625 H2612 0.930 . S
C2625 C2624 1.388 . S
C2625 C2626 1.390 . S
C2626 C2625 1.390 . S
C2626 C2627 1.394 . S
C2626 C2632 1.465 . S
C2627 C2622 1.399 . S
C2627 C2626 1.394 . S
C2627 C2628 1.516 . S
C2628 C2627 1.516 . S
C2628 C2629 1.502 . S
C2628 C2630 1.561 . S
C2628 C2631 1.526 . S
C2629 H2613 0.959 . S
C2629 H2614 0.959 . S
C2629 H2615 0.961 . S
C2629 C2628 1.502 . S
C2630 H2616 0.960 . S
C2630 H2617 0.961 . S
C2630 H2618 0.959 . S
C2630 C2628 1.561 . S
C2631 C2628 1.526 . S
C2631 C2632 1.396 . S
C2631 C2636 1.390 . S
C2632 C2626 1.465 . S
C2632 C2631 1.396 . S
C2632 C2633 1.399 . S
C2633 H2619 0.929 . S
C2633 C2632 1.399 . S
C2633 C2634 1.385 . S
C2634 H2620 0.931 . S
C2634 C2633 1.385 . S
C2634 C2635 1.389 . S
C2635 C2634 1.389 . S
C2635 C2636 1.387 . S
C2636 H2621 0.930 . S
C2636 C2631 1.390 . S
C2636 C2635 1.387 . S
H2637 C2649 0.930 . S
H2638 C2651 0.930 . S
H2639 C2652 0.930 . S
H2640 C2656 0.959 . S
H2641 C2656 0.959 . S
H2642 C2656 0.961 . S
H2643 C2657 0.960 . S
H2644 C2657 0.961 . S
H2645 C2657 0.959 . S
H2646 C2660 0.929 . S
H2647 C2661 0.931 . S
H2648 C2663 0.930 . S
C2649 H2637 0.930 . S
C2649 C2650 1.399 . S
C2649 C2654 1.399 . S
C2650 C2649 1.399 . S
C2650 C2651 1.376 . S
C2651 H2638 0.930 . S
C2651 C2650 1.376 . S
C2651 C2652 1.388 . S
C2652 H2639 0.930 . S
C2652 C2651 1.388 . S
C2652 C2653 1.390 . S
C2653 C2652 1.390 . S
C2653 C2654 1.394 . S
C2653 C2659 1.465 . S
C2654 C2649 1.399 . S
C2654 C2653 1.394 . S
C2654 C2655 1.516 . S
C2655 C2654 1.516 . S
C2655 C2656 1.502 . S
C2655 C2657 1.561 . S
C2655 C2658 1.526 . S
C2656 H2640 0.959 . S
C2656 H2641 0.959 . S
C2656 H2642 0.961 . S
C2656 C2655 1.502 . S
C2657 H2643 0.960 . S
C2657 H2644 0.961 . S
C2657 H2645 0.959 . S
C2657 C2655 1.561 . S
C2658 C2655 1.526 . S
C2658 C2659 1.396 . S
C2658 C2663 1.390 . S
C2659 C2653 1.465 . S
C2659 C2658 1.396 . S
C2659 C2660 1.399 . S
C2660 H2646 0.929 . S
C2660 C2659 1.399 . S
C2660 C2661 1.385 . S
C2661 H2647 0.931 . S
C2661 C2660 1.385 . S
C2661 C2662 1.389 . S
C2662 C2661 1.389 . S
C2662 C2663 1.387 . S
C2663 H2648 0.930 . S
C2663 C2658 1.390 . S
C2663 C2662 1.387 . S
H2664 C2676 0.930 . S
H2665 C2678 0.930 . S
H2666 C2679 0.930 . S
H2667 C2683 0.959 . S
H2668 C2683 0.959 . S
H2669 C2683 0.961 . S
H2670 C2684 0.960 . S
H2671 C2684 0.961 . S
H2672 C2684 0.959 . S
H2673 C2687 0.929 . S
H2674 C2688 0.931 . S
H2675 C2690 0.930 . S
C2676 H2664 0.930 . S
C2676 C2677 1.399 . S
C2676 C2681 1.399 . S
C2677 C2676 1.399 . S
C2677 C2678 1.376 . S
C2678 H2665 0.930 . S
C2678 C2677 1.376 . S
C2678 C2679 1.388 . S
C2679 H2666 0.930 . S
C2679 C2678 1.388 . S
C2679 C2680 1.390 . S
C2680 C2679 1.390 . S
C2680 C2681 1.394 . S
C2680 C2686 1.465 . S
C2681 C2676 1.399 . S
C2681 C2680 1.394 . S
C2681 C2682 1.516 . S
C2682 C2681 1.516 . S
C2682 C2683 1.502 . S
C2682 C2684 1.561 . S
C2682 C2685 1.526 . S
C2683 H2667 0.959 . S
C2683 H2668 0.959 . S
C2683 H2669 0.961 . S
C2683 C2682 1.502 . S
C2684 H2670 0.960 . S
C2684 H2671 0.961 . S
C2684 H2672 0.959 . S
C2684 C2682 1.561 . S
C2685 C2682 1.526 . S
C2685 C2686 1.396 . S
C2685 C2690 1.390 . S
C2686 C2680 1.465 . S
C2686 C2685 1.396 . S
C2686 C2687 1.399 . S
C2687 H2673 0.929 . S
C2687 C2686 1.399 . S
C2687 C2688 1.385 . S
C2688 H2674 0.931 . S
C2688 C2687 1.385 . S
C2688 C2689 1.389 . S
C2689 C2688 1.389 . S
C2689 C2690 1.387 . S
C2690 H2675 0.930 . S
C2690 C2685 1.390 . S
C2690 C2689 1.387 . S
H2691 C2703 0.930 . S
H2692 C2705 0.930 . S
H2693 C2706 0.930 . S
H2694 C2710 0.959 . S
H2695 C2710 0.959 . S
H2696 C2710 0.961 . S
H2697 C2711 0.960 . S
H2698 C2711 0.961 . S
H2699 C2711 0.959 . S
H2700 C2714 0.929 . S
H2701 C2715 0.931 . S
H2702 C2717 0.930 . S
C2703 H2691 0.930 . S
C2703 C2704 1.399 . S
C2703 C2708 1.399 . S
C2704 C2703 1.399 . S
C2704 C2705 1.376 . S
C2705 H2692 0.930 . S
C2705 C2704 1.376 . S
C2705 C2706 1.388 . S
C2706 H2693 0.930 . S
C2706 C2705 1.388 . S
C2706 C2707 1.390 . S
C2707 C2706 1.390 . S
C2707 C2708 1.394 . S
C2707 C2713 1.465 . S
C2708 C2703 1.399 . S
C2708 C2707 1.394 . S
C2708 C2709 1.516 . S
C2709 C2708 1.516 . S
C2709 C2710 1.502 . S
C2709 C2711 1.561 . S
C2709 C2712 1.526 . S
C2710 H2694 0.959 . S
C2710 H2695 0.959 . S
C2710 H2696 0.961 . S
C2710 C2709 1.502 . S
C2711 H2697 0.960 . S
C2711 H2698 0.961 . S
C2711 H2699 0.959 . S
C2711 C2709 1.561 . S
C2712 C2709 1.526 . S
C2712 C2713 1.396 . S
C2712 C2717 1.390 . S
C2713 C2707 1.465 . S
C2713 C2712 1.396 . S
C2713 C2714 1.399 . S
C2714 H2700 0.929 . S
C2714 C2713 1.399 . S
C2714 C2715 1.385 . S
C2715 H2701 0.931 . S
C2715 C2714 1.385 . S
C2715 C2716 1.389 . S
C2716 C2715 1.389 . S
C2716 C2717 1.387 . S
C2717 H2702 0.930 . S
C2717 C2712 1.390 . S
C2717 C2716 1.387 . S
H2718 C2730 0.930 . S
H2719 C2732 0.930 . S
H2720 C2733 0.930 . S
H2721 C2737 0.959 . S
H2722 C2737 0.959 . S
H2723 C2737 0.961 . S
H2724 C2738 0.960 . S
H2725 C2738 0.961 . S
H2726 C2738 0.959 . S
H2727 C2741 0.929 . S
H2728 C2742 0.931 . S
H2729 C2744 0.930 . S
C2730 H2718 0.930 . S
C2730 C2731 1.399 . S
C2730 C2735 1.399 1_565 S
C2731 C2730 1.399 . S
C2731 C2732 1.376 1_565 S
C2732 H2719 0.930 . S
C2732 C2731 1.376 1_545 S
C2732 C2733 1.388 . S
C2733 H2720 0.930 . S
C2733 C2732 1.388 . S
C2733 C2734 1.390 . S
C2734 C2733 1.390 . S
C2734 C2735 1.394 . S
C2734 C2740 1.465 . S
C2735 C2730 1.399 1_545 S
C2735 C2734 1.394 . S
C2735 C2736 1.516 . S
C2736 C2735 1.516 . S
C2736 C2737 1.502 . S
C2736 C2738 1.561 . S
C2736 C2739 1.526 . S
C2737 H2721 0.959 . S
C2737 H2722 0.959 . S
C2737 H2723 0.961 . S
C2737 C2736 1.502 . S
C2738 H2724 0.960 . S
C2738 H2725 0.961 . S
C2738 H2726 0.959 . S
C2738 C2736 1.561 . S
C2739 C2736 1.526 . S
C2739 C2740 1.396 . S
C2739 C2744 1.390 . S
C2740 C2734 1.465 . S
C2740 C2739 1.396 . S
C2740 C2741 1.399 . S
C2741 H2727 0.929 . S
C2741 C2740 1.399 . S
C2741 C2742 1.385 . S
C2742 H2728 0.931 . S
C2742 C2741 1.385 . S
C2742 C2743 1.389 . S
C2743 C2742 1.389 . S
C2743 C2744 1.387 . S
C2744 H2729 0.930 . S
C2744 C2739 1.390 . S
C2744 C2743 1.387 . S
H2745 C2757 0.930 . S
H2746 C2759 0.930 . S
H2747 C2760 0.930 . S
H2748 C2764 0.959 . S
H2749 C2764 0.959 . S
H2750 C2764 0.961 . S
H2751 C2765 0.960 . S
H2752 C2765 0.961 . S
H2753 C2765 0.959 . S
H2754 C2768 0.929 . S
H2755 C2769 0.931 . S
H2756 C2771 0.930 . S
C2757 H2745 0.930 . S
C2757 C2758 1.399 . S
C2757 C2762 1.399 . S
C2758 C2757 1.399 . S
C2758 C2759 1.376 . S
C2759 H2746 0.930 . S
C2759 C2758 1.376 . S
C2759 C2760 1.388 . S
C2760 H2747 0.930 . S
C2760 C2759 1.388 . S
C2760 C2761 1.390 . S
C2761 C2760 1.390 . S
C2761 C2762 1.394 . S
C2761 C2767 1.465 . S
C2762 C2757 1.399 . S
C2762 C2761 1.394 . S
C2762 C2763 1.516 . S
C2763 C2762 1.516 . S
C2763 C2764 1.502 . S
C2763 C2765 1.561 . S
C2763 C2766 1.526 . S
C2764 H2748 0.959 . S
C2764 H2749 0.959 . S
C2764 H2750 0.961 . S
C2764 C2763 1.502 . S
C2765 H2751 0.960 . S
C2765 H2752 0.961 . S
C2765 H2753 0.959 . S
C2765 C2763 1.561 . S
C2766 C2763 1.526 . S
C2766 C2767 1.396 . S
C2766 C2771 1.390 . S
C2767 C2761 1.465 . S
C2767 C2766 1.396 . S
C2767 C2768 1.399 . S
C2768 H2754 0.929 . S
C2768 C2767 1.399 . S
C2768 C2769 1.385 . S
C2769 H2755 0.931 . S
C2769 C2768 1.385 . S
C2769 C2770 1.389 . S
C2770 C2769 1.389 . S
C2770 C2771 1.387 . S
C2771 H2756 0.930 . S
C2771 C2766 1.390 . S
C2771 C2770 1.387 . S
H2772 C2784 0.930 . S
H2773 C2786 0.930 . S
H2774 C2787 0.930 . S
H2775 C2791 0.959 . S
H2776 C2791 0.959 . S
H2777 C2791 0.961 . S
H2778 C2792 0.960 . S
H2779 C2792 0.961 . S
H2780 C2792 0.959 . S
H2781 C2795 0.929 . S
H2782 C2796 0.931 . S
H2783 C2798 0.930 . S
C2784 H2772 0.930 . S
C2784 C2785 1.399 1_565 S
C2784 C2789 1.399 . S
C2785 C2784 1.399 1_545 S
C2785 C2786 1.376 . S
C2786 H2773 0.930 . S
C2786 C2785 1.376 . S
C2786 C2787 1.388 1_545 S
C2787 H2774 0.930 . S
C2787 C2786 1.388 1_565 S
C2787 C2788 1.390 . S
C2788 C2787 1.390 . S
C2788 C2789 1.394 . S
C2788 C2794 1.465 . S
C2789 C2784 1.399 . S
C2789 C2788 1.394 . S
C2789 C2790 1.516 . S
C2790 C2789 1.516 . S
C2790 C2791 1.502 . S
C2790 C2792 1.561 . S
C2790 C2793 1.526 . S
C2791 H2775 0.959 . S
C2791 H2776 0.959 . S
C2791 H2777 0.961 . S
C2791 C2790 1.502 . S
C2792 H2778 0.960 . S
C2792 H2779 0.961 . S
C2792 H2780 0.959 . S
C2792 C2790 1.561 . S
C2793 C2790 1.526 . S
C2793 C2794 1.396 . S
C2793 C2798 1.390 . S
C2794 C2788 1.465 . S
C2794 C2793 1.396 . S
C2794 C2795 1.399 . S
C2795 H2781 0.929 . S
C2795 C2794 1.399 . S
C2795 C2796 1.385 . S
C2796 H2782 0.931 . S
C2796 C2795 1.385 . S
C2796 C2797 1.389 . S
C2797 C2796 1.389 . S
C2797 C2798 1.387 . S
C2798 H2783 0.930 . S
C2798 C2793 1.390 . S
C2798 C2797 1.387 . S
H2799 C2811 0.930 . S
H2800 C2813 0.930 . S
H2801 C2814 0.930 . S
H2802 C2818 0.959 . S
H2803 C2818 0.959 . S
H2804 C2818 0.961 . S
H2805 C2819 0.960 . S
H2806 C2819 0.961 . S
H2807 C2819 0.959 . S
H2808 C2822 0.929 . S
H2809 C2823 0.931 . S
H2810 C2825 0.930 . S
C2811 H2799 0.930 . S
C2811 C2812 1.399 . S
C2811 C2816 1.399 . S
C2812 C2811 1.399 . S
C2812 C2813 1.376 . S
C2813 H2800 0.930 . S
C2813 C2812 1.376 . S
C2813 C2814 1.388 . S
C2814 H2801 0.930 . S
C2814 C2813 1.388 . S
C2814 C2815 1.390 . S
C2815 C2814 1.390 . S
C2815 C2816 1.394 . S
C2815 C2821 1.465 . S
C2816 C2811 1.399 . S
C2816 C2815 1.394 . S
C2816 C2817 1.516 . S
C2817 C2816 1.516 . S
C2817 C2818 1.502 . S
C2817 C2819 1.561 . S
C2817 C2820 1.526 . S
C2818 H2802 0.959 . S
C2818 H2803 0.959 . S
C2818 H2804 0.961 . S
C2818 C2817 1.502 . S
C2819 H2805 0.960 . S
C2819 H2806 0.961 . S
C2819 H2807 0.959 . S
C2819 C2817 1.561 . S
C2820 C2817 1.526 . S
C2820 C2821 1.396 . S
C2820 C2825 1.390 . S
C2821 C2815 1.465 . S
C2821 C2820 1.396 . S
C2821 C2822 1.399 . S
C2822 H2808 0.929 . S
C2822 C2821 1.399 . S
C2822 C2823 1.385 . S
C2823 H2809 0.931 . S
C2823 C2822 1.385 . S
C2823 C2824 1.389 . S
C2824 C2823 1.389 . S
C2824 C2825 1.387 . S
C2825 H2810 0.930 . S
C2825 C2820 1.390 . S
C2825 C2824 1.387 . S
H2826 C2838 0.930 . S
H2827 C2840 0.930 . S
H2828 C2841 0.930 . S
H2829 C2845 0.959 . S
H2830 C2845 0.959 . S
H2831 C2845 0.961 . S
H2832 C2846 0.960 . S
H2833 C2846 0.961 . S
H2834 C2846 0.959 . S
H2835 C2849 0.929 . S
H2836 C2850 0.931 . S
H2837 C2852 0.930 . S
C2838 H2826 0.930 . S
C2838 C2839 1.399 . S
C2838 C2843 1.399 . S
C2839 C2838 1.399 . S
C2839 C2840 1.376 . S
C2840 H2827 0.930 . S
C2840 C2839 1.376 . S
C2840 C2841 1.388 . S
C2841 H2828 0.930 . S
C2841 C2840 1.388 . S
C2841 C2842 1.390 . S
C2842 C2841 1.390 . S
C2842 C2843 1.394 . S
C2842 C2848 1.465 . S
C2843 C2838 1.399 . S
C2843 C2842 1.394 . S
C2843 C2844 1.516 . S
C2844 C2843 1.516 . S
C2844 C2845 1.502 . S
C2844 C2846 1.561 . S
C2844 C2847 1.526 . S
C2845 H2829 0.959 . S
C2845 H2830 0.959 . S
C2845 H2831 0.961 . S
C2845 C2844 1.502 . S
C2846 H2832 0.960 . S
C2846 H2833 0.961 . S
C2846 H2834 0.959 . S
C2846 C2844 1.561 . S
C2847 C2844 1.526 . S
C2847 C2848 1.396 . S
C2847 C2852 1.390 . S
C2848 C2842 1.465 . S
C2848 C2847 1.396 . S
C2848 C2849 1.399 . S
C2849 H2835 0.929 . S
C2849 C2848 1.399 . S
C2849 C2850 1.385 1_565 S
C2850 H2836 0.931 . S
C2850 C2849 1.385 1_545 S
C2850 C2851 1.389 . S
C2851 C2850 1.389 . S
C2851 C2852 1.387 1_545 S
C2852 H2837 0.930 . S
C2852 C2847 1.390 . S
C2852 C2851 1.387 1_565 S
H2853 C2865 0.930 . S
H2854 C2867 0.930 . S
H2855 C2868 0.930 . S
H2856 C2872 0.959 . S
H2857 C2872 0.959 . S
H2858 C2872 0.961 . S
H2859 C2873 0.960 . S
H2860 C2873 0.961 . S
H2861 C2873 0.959 . S
H2862 C2876 0.929 . S
H2863 C2877 0.931 . S
H2864 C2879 0.930 . S
C2865 H2853 0.930 . S
C2865 C2866 1.399 . S
C2865 C2870 1.399 . S
C2866 C2865 1.399 . S
C2866 C2867 1.376 . S
C2867 H2854 0.930 . S
C2867 C2866 1.376 . S
C2867 C2868 1.388 . S
C2868 H2855 0.930 . S
C2868 C2867 1.388 . S
C2868 C2869 1.390 . S
C2869 C2868 1.390 . S
C2869 C2870 1.394 . S
C2869 C2875 1.465 . S
C2870 C2865 1.399 . S
C2870 C2869 1.394 . S
C2870 C2871 1.516 . S
C2871 C2870 1.516 . S
C2871 C2872 1.502 . S
C2871 C2873 1.561 . S
C2871 C2874 1.526 . S
C2872 H2856 0.959 . S
C2872 H2857 0.959 . S
C2872 H2858 0.961 . S
C2872 C2871 1.502 . S
C2873 H2859 0.960 . S
C2873 H2860 0.961 . S
C2873 H2861 0.959 . S
C2873 C2871 1.561 . S
C2874 C2871 1.526 . S
C2874 C2875 1.396 . S
C2874 C2879 1.390 . S
C2875 C2869 1.465 . S
C2875 C2874 1.396 . S
C2875 C2876 1.399 . S
C2876 H2862 0.929 . S
C2876 C2875 1.399 . S
C2876 C2877 1.385 . S
C2877 H2863 0.931 . S
C2877 C2876 1.385 . S
C2877 C2878 1.389 . S
C2878 C2877 1.389 . S
C2878 C2879 1.387 . S
C2879 H2864 0.930 . S
C2879 C2874 1.390 . S
C2879 C2878 1.387 . S
H2880 C2892 0.930 . S
H2881 C2894 0.930 . S
H2882 C2895 0.930 . S
H2883 C2899 0.959 . S
H2884 C2899 0.959 . S
H2885 C2899 0.961 . S
H2886 C2900 0.949 1_455 S
H2887 C2900 0.961 . S
H2888 C2900 0.959 . S
H2889 C2903 0.929 . S
H2890 C2904 0.931 . S
H2891 C2906 0.930 . S
C2892 H2880 0.930 . S
C2892 C2893 1.399 . S
C2892 C2897 1.399 . S
C2893 C2892 1.399 . S
C2893 C2894 1.376 . S
C2894 H2881 0.930 . S
C2894 C2893 1.376 . S
C2894 C2895 1.388 . S
C2895 H2882 0.930 . S
C2895 C2894 1.388 . S
C2895 C2896 1.390 . S
C2896 C2895 1.390 . S
C2896 C2897 1.394 . S
C2896 C2902 1.465 1_455 S
C2897 C2892 1.399 . S
C2897 C2896 1.394 . S
C2897 C2898 1.516 . S
C2898 C2897 1.516 . S
C2898 C2899 1.502 . S
C2898 C2900 1.561 1_455 S
C2898 C2901 1.526 1_455 S
C2899 H2883 0.959 . S
C2899 H2884 0.959 . S
C2899 H2885 0.961 . S
C2899 C2898 1.502 . S
C2900 H2886 0.949 1_655 S
C2900 H2887 0.961 . S
C2900 H2888 0.959 . S
C2900 C2898 1.561 1_655 S
C2901 C2898 1.526 1_655 S
C2901 C2902 1.396 . S
C2901 C2906 1.390 . S
C2902 C2896 1.465 1_655 S
C2902 C2901 1.396 . S
C2902 C2903 1.399 . S
C2903 H2889 0.929 . S
C2903 C2902 1.399 . S
C2903 C2904 1.385 . S
C2904 H2890 0.931 . S
C2904 C2903 1.385 . S
C2904 C2905 1.389 . S
C2905 C2904 1.389 . S
C2905 C2906 1.387 . S
C2906 H2891 0.930 . S
C2906 C2901 1.390 . S
C2906 C2905 1.387 . S
H2907 C2919 0.930 . S
H2908 C2921 0.930 . S
H2909 C2922 0.956 . S
H2910 C2926 0.959 . S
H2911 C2926 0.959 . S
H2912 C2926 0.961 . S
H2913 C2927 0.960 . S
H2914 C2927 0.961 . S
H2915 C2927 0.959 . S
H2916 C2930 0.928 . S
H2917 C2931 0.931 . S
H2918 C2933 0.930 . S
C2919 H2907 0.930 . S
C2919 C2920 1.399 . S
C2919 C2924 1.399 . S
C2920 C2919 1.399 . S
C2920 C2921 1.376 . S
C2921 H2908 0.930 . S
C2921 C2920 1.376 . S
C2921 C2922 1.388 . S
C2922 H2909 0.956 . S
C2922 C2921 1.388 . S
C2922 C2923 1.390 . S
C2923 C2922 1.390 . S
C2923 C2924 1.394 . S
C2923 C2929 1.465 . S
C2924 C2919 1.399 . S
C2924 C2923 1.394 . S
C2924 C2925 1.516 . S
C2925 C2924 1.516 . S
C2925 C2926 1.502 . S
C2925 C2927 1.561 . S
C2925 C2928 1.526 . S
C2926 H2910 0.959 . S
C2926 H2911 0.959 . S
C2926 H2912 0.961 . S
C2926 C2925 1.502 . S
C2927 H2913 0.960 . S
C2927 H2914 0.961 . S
C2927 H2915 0.959 . S
C2927 C2925 1.561 . S
C2928 C2925 1.526 . S
C2928 C2929 1.396 . S
C2928 C2933 1.390 . S
C2929 C2923 1.465 . S
C2929 C2928 1.396 . S
C2929 C2930 1.399 . S
C2930 H2916 0.928 . S
C2930 C2929 1.399 . S
C2930 C2931 1.385 . S
C2931 H2917 0.931 . S
C2931 C2930 1.385 . S
C2931 C2932 1.389 . S
C2932 C2931 1.389 . S
C2932 C2933 1.387 . S
C2933 H2918 0.930 . S
C2933 C2928 1.390 . S
C2933 C2932 1.387 . S
H2934 C2946 0.930 . S
H2935 C2948 0.930 . S
H2936 C2949 0.930 . S
H2937 C2953 0.959 . S
H2938 C2953 0.959 . S
H2939 C2953 0.961 . S
H2940 C2954 0.960 . S
H2941 C2954 0.961 1_455 S
H2942 C2954 0.959 . S
H2943 C2957 0.929 . S
H2944 C2958 0.931 . S
H2945 C2960 0.930 . S
C2946 H2934 0.930 . S
C2946 C2947 1.399 . S
C2946 C2951 1.399 . S
C2947 C2946 1.399 . S
C2947 C2948 1.376 . S
C2948 H2935 0.930 . S
C2948 C2947 1.376 . S
C2948 C2949 1.388 . S
C2949 H2936 0.930 . S
C2949 C2948 1.388 . S
C2949 C2950 1.390 . S
C2950 C2949 1.390 . S
C2950 C2951 1.394 . S
C2950 C2956 1.465 1_655 S
C2951 C2946 1.399 . S
C2951 C2950 1.394 . S
C2951 C2952 1.516 1_655 S
C2952 C2951 1.516 1_455 S
C2952 C2953 1.502 . S
C2952 C2954 1.561 1_455 S
C2952 C2955 1.526 . S
C2953 H2937 0.959 . S
C2953 H2938 0.959 . S
C2953 H2939 0.961 . S
C2953 C2952 1.502 . S
C2954 H2940 0.960 . S
C2954 H2941 0.961 1_655 S
C2954 H2942 0.959 . S
C2954 C2952 1.561 1_655 S
C2955 C2952 1.526 . S
C2955 C2956 1.396 . S
C2955 C2960 1.390 . S
C2956 C2950 1.465 1_455 S
C2956 C2955 1.396 . S
C2956 C2957 1.399 . S
C2957 H2943 0.929 . S
C2957 C2956 1.399 . S
C2957 C2958 1.385 . S
C2958 H2944 0.931 . S
C2958 C2957 1.385 . S
C2958 C2959 1.389 . S
C2959 C2958 1.389 . S
C2959 C2960 1.387 . S
C2960 H2945 0.930 . S
C2960 C2955 1.390 . S
C2960 C2959 1.387 . S
H2961 C2973 0.930 . S
H2962 C2975 0.930 . S
H2963 C2976 0.930 1_554 S
H2964 C2980 0.959 . S
H2965 C2980 0.959 . S
H2966 C2980 0.961 . S
H2967 C2981 0.960 . S
H2968 C2981 0.961 . S
H2969 C2981 0.959 . S
H2970 C2984 0.929 1_554 S
H2971 C2985 0.931 . S
H2972 C2987 0.930 . S
C2973 H2961 0.930 . S
C2973 C2974 1.399 . S
C2973 C2978 1.399 . S
C2974 C2973 1.399 . S
C2974 C2975 1.376 . S
C2975 H2962 0.930 . S
C2975 C2974 1.376 . S
C2975 C2976 1.388 . S
C2976 H2963 0.930 1_556 S
C2976 C2975 1.388 . S
C2976 C2977 1.390 . S
C2977 C2976 1.390 . S
C2977 C2978 1.394 . S
C2977 C2983 1.465 1_655 S
C2978 C2973 1.399 . S
C2978 C2977 1.394 . S
C2978 C2979 1.537 . S
C2979 C2978 1.537 . S
C2979 C2980 1.474 1_655 S
C2979 C2981 1.592 . S
C2979 C2982 1.506 1_655 S
C2980 H2964 0.959 . S
C2980 H2965 0.959 . S
C2980 H2966 0.961 . S
C2980 C2979 1.474 1_455 S
C2981 H2967 0.960 . S
C2981 H2968 0.961 . S
C2981 H2969 0.959 . S
C2981 C2979 1.592 . S
C2982 C2979 1.506 1_455 S
C2982 C2983 1.396 . S
C2982 C2987 1.390 . S
C2983 C2977 1.465 1_455 S
C2983 C2982 1.396 . S
C2983 C2984 1.399 . S
C2984 H2970 0.929 1_556 S
C2984 C2983 1.399 . S
C2984 C2985 1.385 . S
C2985 H2971 0.931 . S
C2985 C2984 1.385 . S
C2985 C2986 1.389 . S
C2986 C2985 1.389 . S
C2986 C2987 1.387 . S
C2987 H2972 0.930 . S
C2987 C2982 1.390 . S
C2987 C2986 1.387 . S
H2988 C3000 0.930 . S
H2989 C3002 0.930 . S
H2990 C3003 0.930 . S
H2991 C3007 0.959 1_545 S
H2992 C3007 0.959 . S
H2993 C3007 0.961 . S
H2994 C3008 0.960 . S
H2995 C3008 0.961 . S
H2996 C3008 0.959 . S
H2997 C3011 0.929 . S
H2998 C3012 0.931 . S
H2999 C3014 0.930 . S
C3000 H2988 0.930 . S
C3000 C3001 1.399 . S
C3000 C3005 1.399 . S
C3001 C3000 1.399 . S
C3001 C3002 1.376 . S
C3002 H2989 0.930 . S
C3002 C3001 1.376 . S
C3002 C3003 1.388 . S
C3003 H2990 0.930 . S
C3003 C3002 1.388 . S
C3003 C3004 1.390 . S
C3004 C3003 1.390 . S
C3004 C3005 1.394 . S
C3004 C3010 1.465 1_565 S
C3005 C3000 1.399 . S
C3005 C3004 1.394 . S
C3005 C3006 1.516 . S
C3006 C3005 1.516 . S
C3006 C3007 1.502 . S
C3006 C3008 1.561 . S
C3006 C3009 1.526 1_565 S
C3007 H2991 0.959 1_565 S
C3007 H2992 0.959 . S
C3007 H2993 0.961 . S
C3007 C3006 1.502 . S
C3008 H2994 0.960 . S
C3008 H2995 0.961 . S
C3008 H2996 0.959 . S
C3008 C3006 1.561 . S
C3009 C3006 1.526 1_545 S
C3009 C3010 1.396 . S
C3009 C3014 1.390 . S
C3010 C3004 1.465 1_545 S
C3010 C3009 1.396 . S
C3010 C3011 1.399 . S
C3011 H2997 0.929 . S
C3011 C3010 1.399 . S
C3011 C3012 1.385 . S
C3012 H2998 0.931 . S
C3012 C3011 1.385 . S
C3012 C3013 1.389 . S
C3013 C3012 1.389 . S
C3013 C3014 1.387 . S
C3014 H2999 0.930 . S
C3014 C3009 1.390 . S
C3014 C3013 1.387 . S
H3015 C3027 0.930 . S
H3016 C3029 0.930 . S
H3017 C3030 0.971 . S
H3018 C3034 0.959 . S
H3019 C3034 0.959 . S
H3020 C3034 0.961 . S
H3021 C3035 0.960 . S
H3022 C3035 0.961 . S
H3023 C3035 0.959 1_554 S
H3024 C3038 0.929 . S
H3025 C3039 0.931 . S
H3026 C3041 0.930 . S
C3027 H3015 0.930 . S
C3027 C3028 1.399 . S
C3027 C3032 1.399 . S
C3028 C3027 1.399 . S
C3028 C3029 1.376 . S
C3029 H3016 0.930 . S
C3029 C3028 1.376 . S
C3029 C3030 1.349 1_556 S
C3030 H3017 0.971 . S
C3030 C3029 1.349 1_554 S
C3030 C3031 1.389 . S
C3031 C3030 1.389 . S
C3031 C3032 1.380 1_554 S
C3031 C3037 1.476 . S
C3032 C3027 1.399 . S
C3032 C3031 1.380 1_556 S
C3032 C3033 1.516 . S
C3033 C3032 1.516 . S
C3033 C3034 1.502 . S
C3033 C3035 1.561 . S
C3033 C3036 1.526 1_556 S
C3034 H3018 0.959 . S
C3034 H3019 0.959 . S
C3034 H3020 0.961 . S
C3034 C3033 1.502 . S
C3035 H3021 0.960 . S
C3035 H3022 0.961 . S
C3035 H3023 0.959 1_556 S
C3035 C3033 1.561 . S
C3036 C3033 1.526 1_554 S
C3036 C3037 1.396 . S
C3036 C3041 1.390 . S
C3037 C3031 1.476 . S
C3037 C3036 1.396 . S
C3037 C3038 1.399 . S
C3038 H3024 0.929 . S
C3038 C3037 1.399 . S
C3038 C3039 1.385 . S
C3039 H3025 0.931 . S
C3039 C3038 1.385 . S
C3039 C3040 1.389 . S
C3040 C3039 1.389 . S
C3040 C3041 1.387 . S
C3041 H3026 0.930 . S
C3041 C3036 1.390 . S
C3041 C3040 1.387 . S
H3042 C3054 0.930 . S
H3043 C3056 0.930 . S
H3044 C3057 0.930 . S
H3045 C3061 0.959 . S
H3046 C3061 0.959 . S
H3047 C3061 0.961 . S
H3048 C3062 0.960 . S
H3049 C3062 0.961 . S
H3050 C3062 0.959 . S
H3051 C3065 0.929 . S
H3052 C3066 0.931 . S
H3053 C3068 0.930 . S
C3054 H3042 0.930 . S
C3054 C3055 1.399 . S
C3054 C3059 1.399 . S
C3055 C3054 1.399 . S
C3055 C3056 1.376 . S
C3056 H3043 0.930 . S
C3056 C3055 1.376 . S
C3056 C3057 1.388 . S
C3057 H3044 0.930 . S
C3057 C3056 1.388 . S
C3057 C3058 1.390 . S
C3058 C3057 1.390 . S
C3058 C3059 1.394 . S
C3058 C3064 1.465 . S
C3059 C3054 1.399 . S
C3059 C3058 1.394 . S
C3059 C3060 1.516 . S
C3060 C3059 1.516 . S
C3060 C3061 1.502 . S
C3060 C3062 1.561 . S
C3060 C3063 1.526 . S
C3061 H3045 0.959 . S
C3061 H3046 0.959 . S
C3061 H3047 0.961 . S
C3061 C3060 1.502 . S
C3062 H3048 0.960 . S
C3062 H3049 0.961 . S
C3062 H3050 0.959 . S
C3062 C3060 1.561 . S
C3063 C3060 1.526 . S
C3063 C3064 1.396 . S
C3063 C3068 1.390 . S
C3064 C3058 1.465 . S
C3064 C3063 1.396 . S
C3064 C3065 1.399 . S
C3065 H3051 0.929 . S
C3065 C3064 1.399 . S
C3065 C3066 1.385 . S
C3066 H3052 0.931 . S
C3066 C3065 1.385 . S
C3066 C3067 1.389 . S
C3067 C3066 1.389 . S
C3067 C3068 1.387 . S
C3068 H3053 0.930 . S
C3068 C3063 1.390 . S
C3068 C3067 1.387 . S
H3069 C3081 0.930 . S
H3070 C3083 0.930 . S
H3071 C3084 0.941 . S
H3072 C3088 0.959 . S
H3073 C3088 0.959 1_545 S
H3074 C3088 0.961 1_545 S
H3075 C3089 0.960 . S
H3076 C3089 0.961 . S
H3077 C3089 0.959 1_565 S
H3078 C3092 0.929 . S
H3079 C3093 0.931 . S
H3080 C3095 0.930 . S
C3081 H3069 0.930 . S
C3081 C3082 1.399 . S
C3081 C3086 1.399 . S
C3082 C3081 1.399 . S
C3082 C3083 1.376 . S
C3083 H3070 0.930 . S
C3083 C3082 1.376 . S
C3083 C3084 1.388 . S
C3084 H3071 0.941 . S
C3084 C3083 1.388 . S
C3084 C3085 1.390 . S
C3085 C3084 1.390 . S
C3085 C3086 1.394 . S
C3085 C3091 1.465 1_554 S
C3086 C3081 1.399 . S
C3086 C3085 1.394 . S
C3086 C3087 1.516 . S
C3087 C3086 1.516 . S
C3087 C3088 1.502 . S
C3087 C3089 1.561 1_564 S
C3087 C3090 1.526 1_554 S
C3088 H3072 0.959 . S
C3088 H3073 0.959 1_565 S
C3088 H3074 0.961 1_565 S
C3088 C3087 1.502 . S
C3089 H3075 0.960 . S
C3089 H3076 0.961 . S
C3089 H3077 0.959 1_545 S
C3089 C3087 1.561 1_546 S
C3090 C3087 1.526 1_556 S
C3090 C3091 1.396 . S
C3090 C3095 1.390 . S
C3091 C3085 1.465 1_556 S
C3091 C3090 1.396 . S
C3091 C3092 1.399 . S
C3092 H3078 0.929 . S
C3092 C3091 1.399 . S
C3092 C3093 1.385 . S
C3093 H3079 0.931 . S
C3093 C3092 1.385 . S
C3093 C3094 1.389 . S
C3094 C3093 1.389 . S
C3094 C3095 1.387 . S
C3095 H3080 0.930 . S
C3095 C3090 1.390 . S
C3095 C3094 1.387 . S
H3096 C3108 0.930 . S
H3097 C3110 0.930 . S
H3098 C3111 0.957 . S
H3099 C3115 0.959 . S
H3100 C3115 0.959 . S
H3101 C3115 0.961 . S
H3102 C3116 0.960 . S
H3103 C3116 0.961 . S
H3104 C3116 0.959 . S
H3105 C3119 0.929 . S
H3106 C3120 0.931 . S
H3107 C3122 0.930 . S
C3108 H3096 0.930 . S
C3108 C3109 1.399 . S
C3108 C3113 1.399 . S
C3109 C3108 1.399 . S
C3109 C3110 1.376 . S
C3110 H3097 0.930 . S
C3110 C3109 1.376 . S
C3110 C3111 1.388 . S
C3111 H3098 0.957 . S
C3111 C3110 1.388 . S
C3111 C3112 1.390 . S
C3112 C3111 1.390 . S
C3112 C3113 1.394 . S
C3112 C3118 1.465 1_556 S
C3113 C3108 1.399 . S
C3113 C3112 1.394 . S
C3113 C3114 1.516 . S
C3114 C3113 1.516 . S
C3114 C3115 1.502 . S
C3114 C3116 1.561 . S
C3114 C3117 1.526 1_556 S
C3115 H3099 0.959 . S
C3115 H3100 0.959 . S
C3115 H3101 0.961 . S
C3115 C3114 1.502 . S
C3116 H3102 0.960 . S
C3116 H3103 0.961 . S
C3116 H3104 0.959 . S
C3116 C3114 1.561 . S
C3117 C3114 1.526 1_554 S
C3117 C3118 1.396 . S
C3117 C3122 1.390 . S
C3118 C3112 1.465 1_554 S
C3118 C3117 1.396 . S
C3118 C3119 1.399 . S
C3119 H3105 0.929 . S
C3119 C3118 1.399 . S
C3119 C3120 1.385 . S
C3120 H3106 0.931 . S
C3120 C3119 1.385 . S
C3120 C3121 1.389 . S
C3121 C3120 1.389 . S
C3121 C3122 1.387 . S
C3122 H3107 0.930 . S
C3122 C3117 1.390 . S
C3122 C3121 1.387 . S
H3123 C3135 0.930 . S
H3124 C3137 0.930 . S
H3125 C3138 0.930 . S
H3126 C3142 0.959 . S
H3127 C3142 0.959 . S
H3128 C3142 0.961 . S
H3129 C3143 0.960 . S
H3130 C3143 0.961 . S
H3131 C3143 0.959 . S
H3132 C3146 0.929 . S
H3133 C3147 0.931 . S
H3134 C3149 0.930 . S
C3135 H3123 0.930 . S
C3135 C3136 1.399 . S
C3135 C3140 1.399 . S
C3136 C3135 1.399 . S
C3136 C3137 1.376 . S
C3137 H3124 0.930 . S
C3137 C3136 1.376 . S
C3137 C3138 1.388 . S
C3138 H3125 0.930 . S
C3138 C3137 1.388 . S
C3138 C3139 1.390 . S
C3139 C3138 1.390 . S
C3139 C3140 1.394 . S
C3139 C3145 1.465 . S
C3140 C3135 1.399 . S
C3140 C3139 1.394 . S
C3140 C3141 1.516 . S
C3141 C3140 1.516 . S
C3141 C3142 1.502 . S
C3141 C3143 1.561 . S
C3141 C3144 1.526 . S
C3142 H3126 0.959 . S
C3142 H3127 0.959 . S
C3142 H3128 0.961 . S
C3142 C3141 1.502 . S
C3143 H3129 0.960 . S
C3143 H3130 0.961 . S
C3143 H3131 0.959 . S
C3143 C3141 1.561 . S
C3144 C3141 1.526 . S
C3144 C3145 1.396 . S
C3144 C3149 1.390 . S
C3145 C3139 1.465 . S
C3145 C3144 1.396 . S
C3145 C3146 1.399 . S
C3146 H3132 0.929 . S
C3146 C3145 1.399 . S
C3146 C3147 1.385 . S
C3147 H3133 0.931 . S
C3147 C3146 1.385 . S
C3147 C3148 1.389 . S
C3148 C3147 1.389 . S
C3148 C3149 1.387 . S
C3149 H3134 0.930 . S
C3149 C3144 1.390 . S
C3149 C3148 1.387 . S
H3150 C3162 0.930 . S
H3151 C3164 0.930 . S
H3152 C3165 0.930 . S
H3153 C3169 0.959 . S
H3154 C3169 0.959 . S
H3155 C3169 0.961 . S
H3156 C3170 0.960 . S
H3157 C3170 0.961 . S
H3158 C3170 0.959 1_655 S
H3159 C3173 0.929 . S
H3160 C3174 0.931 . S
H3161 C3176 0.930 . S
C3162 H3150 0.930 . S
C3162 C3163 1.399 . S
C3162 C3167 1.399 . S
C3163 C3162 1.399 . S
C3163 C3164 1.376 . S
C3164 H3151 0.930 . S
C3164 C3163 1.376 . S
C3164 C3165 1.388 . S
C3165 H3152 0.930 . S
C3165 C3164 1.388 . S
C3165 C3166 1.390 . S
C3166 C3165 1.390 . S
C3166 C3167 1.394 . S
C3166 C3172 1.465 . S
C3167 C3162 1.399 . S
C3167 C3166 1.394 . S
C3167 C3168 1.516 . S
C3168 C3167 1.516 . S
C3168 C3169 1.502 . S
C3168 C3170 1.561 . S
C3168 C3171 1.526 . S
C3169 H3153 0.959 . S
C3169 H3154 0.959 . S
C3169 H3155 0.961 . S
C3169 C3168 1.502 . S
C3170 H3156 0.960 . S
C3170 H3157 0.961 . S
C3170 H3158 0.959 1_455 S
C3170 C3168 1.561 . S
C3171 C3168 1.526 . S
C3171 C3172 1.396 . S
C3171 C3176 1.390 . S
C3172 C3166 1.465 . S
C3172 C3171 1.396 . S
C3172 C3173 1.399 . S
C3173 H3159 0.929 . S
C3173 C3172 1.399 . S
C3173 C3174 1.385 . S
C3174 H3160 0.931 . S
C3174 C3173 1.385 . S
C3174 C3175 1.389 . S
C3175 C3174 1.389 . S
C3175 C3176 1.387 . S
C3176 H3161 0.930 . S
C3176 C3171 1.390 . S
C3176 C3175 1.387 . S
H3177 C3189 0.930 . S
H3178 C3191 0.930 . S
H3179 C3192 0.930 . S
H3180 C3196 0.959 . S
H3181 C3196 0.959 . S
H3182 C3196 0.961 . S
H3183 C3197 0.960 . S
H3184 C3197 0.961 . S
H3185 C3197 0.959 . S
H3186 C3200 0.929 . S
H3187 C3201 0.931 . S
H3188 C3203 0.930 . S
C3189 H3177 0.930 . S
C3189 C3190 1.399 . S
C3189 C3194 1.399 . S
C3190 C3189 1.399 . S
C3190 C3191 1.376 . S
C3191 H3178 0.930 . S
C3191 C3190 1.376 . S
C3191 C3192 1.388 . S
C3192 H3179 0.930 . S
C3192 C3191 1.388 . S
C3192 C3193 1.390 . S
C3193 C3192 1.390 . S
C3193 C3194 1.394 . S
C3193 C3199 1.465 . S
C3194 C3189 1.399 . S
C3194 C3193 1.394 . S
C3194 C3195 1.516 . S
C3195 C3194 1.516 . S
C3195 C3196 1.502 . S
C3195 C3197 1.561 . S
C3195 C3198 1.526 . S
C3196 H3180 0.959 . S
C3196 H3181 0.959 . S
C3196 H3182 0.961 . S
C3196 C3195 1.502 . S
C3197 H3183 0.960 . S
C3197 H3184 0.961 . S
C3197 H3185 0.959 . S
C3197 C3195 1.561 . S
C3198 C3195 1.526 . S
C3198 C3199 1.396 . S
C3198 C3203 1.390 . S
C3199 C3193 1.465 . S
C3199 C3198 1.396 . S
C3199 C3200 1.399 . S
C3200 H3186 0.929 . S
C3200 C3199 1.399 . S
C3200 C3201 1.385 . S
C3201 H3187 0.931 . S
C3201 C3200 1.385 . S
C3201 C3202 1.389 . S
C3202 C3201 1.389 . S
C3202 C3203 1.387 . S
C3203 H3188 0.930 . S
C3203 C3198 1.390 . S
C3203 C3202 1.387 . S
H3204 C3216 0.930 . S
H3205 C3218 0.930 . S
H3206 C3219 0.930 . S
H3207 C3223 0.959 . S
H3208 C3223 0.959 . S
H3209 C3223 0.961 . S
H3210 C3224 0.960 . S
H3211 C3224 0.961 . S
H3212 C3224 0.959 . S
H3213 C3227 0.929 . S
H3214 C3228 0.931 . S
H3215 C3230 0.930 . S
C3216 H3204 0.930 . S
C3216 C3217 1.399 . S
C3216 C3221 1.399 . S
C3217 C3216 1.399 . S
C3217 C3218 1.376 . S
C3218 H3205 0.930 . S
C3218 C3217 1.376 . S
C3218 C3219 1.388 . S
C3219 H3206 0.930 . S
C3219 C3218 1.388 . S
C3219 C3220 1.390 . S
C3220 C3219 1.390 . S
C3220 C3221 1.394 . S
C3220 C3226 1.465 . S
C3221 C3216 1.399 . S
C3221 C3220 1.394 . S
C3221 C3222 1.516 . S
C3222 C3221 1.516 . S
C3222 C3223 1.502 . S
C3222 C3224 1.561 . S
C3222 C3225 1.526 . S
C3223 H3207 0.959 . S
C3223 H3208 0.959 . S
C3223 H3209 0.961 . S
C3223 C3222 1.502 . S
C3224 H3210 0.960 . S
C3224 H3211 0.961 . S
C3224 H3212 0.959 . S
C3224 C3222 1.561 . S
C3225 C3222 1.526 . S
C3225 C3226 1.396 . S
C3225 C3230 1.390 . S
C3226 C3220 1.465 . S
C3226 C3225 1.396 . S
C3226 C3227 1.399 . S
C3227 H3213 0.929 . S
C3227 C3226 1.399 . S
C3227 C3228 1.385 . S
C3228 H3214 0.931 . S
C3228 C3227 1.385 . S
C3228 C3229 1.389 . S
C3229 C3228 1.389 . S
C3229 C3230 1.387 . S
C3230 H3215 0.930 . S
C3230 C3225 1.390 . S
C3230 C3229 1.387 . S
H3231 C3243 0.930 . S
H3232 C3245 0.930 . S
H3233 C3246 0.930 . S
H3234 C3250 0.959 . S
H3235 C3250 0.959 . S
H3236 C3250 0.961 . S
H3237 C3251 0.960 . S
H3238 C3251 0.961 . S
H3239 C3251 0.959 . S
H3240 C3254 0.929 . S
H3241 C3255 0.931 . S
H3242 C3257 0.930 . S
C3243 H3231 0.930 . S
C3243 C3244 1.399 . S
C3243 C3248 1.399 . S
C3244 C3243 1.399 . S
C3244 C3245 1.376 . S
C3245 H3232 0.930 . S
C3245 C3244 1.376 . S
C3245 C3246 1.388 . S
C3246 H3233 0.930 . S
C3246 C3245 1.388 . S
C3246 C3247 1.390 . S
C3247 C3246 1.390 . S
C3247 C3248 1.394 . S
C3247 C3253 1.465 . S
C3248 C3243 1.399 . S
C3248 C3247 1.394 . S
C3248 C3249 1.516 1_545 S
C3249 C3248 1.516 1_565 S
C3249 C3250 1.502 . S
C3249 C3251 1.561 . S
C3249 C3252 1.526 . S
C3250 H3234 0.959 . S
C3250 H3235 0.959 . S
C3250 H3236 0.961 . S
C3250 C3249 1.502 . S
C3251 H3237 0.960 . S
C3251 H3238 0.961 . S
C3251 H3239 0.959 . S
C3251 C3249 1.561 . S
C3252 C3249 1.526 . S
C3252 C3253 1.396 1_565 S
C3252 C3257 1.390 . S
C3253 C3247 1.465 . S
C3253 C3252 1.396 1_545 S
C3253 C3254 1.399 . S
C3254 H3240 0.929 . S
C3254 C3253 1.399 . S
C3254 C3255 1.385 1_545 S
C3255 H3241 0.931 . S
C3255 C3254 1.385 1_565 S
C3255 C3256 1.389 . S
C3256 C3255 1.389 . S
C3256 C3257 1.387 . S
C3257 H3242 0.930 . S
C3257 C3252 1.390 . S
C3257 C3256 1.387 . S
H3258 C3270 0.930 . S
H3259 C3272 0.930 . S
H3260 C3273 0.930 . S
H3261 C3277 0.959 . S
H3262 C3277 0.959 . S
H3263 C3277 0.961 . S
H3264 C3278 0.960 . S
H3265 C3278 0.961 . S
H3266 C3278 0.959 . S
H3267 C3281 0.929 . S
H3268 C3282 0.931 . S
H3269 C3284 0.930 . S
C3270 H3258 0.930 . S
C3270 C3271 1.399 . S
C3270 C3275 1.399 . S
C3271 C3270 1.399 . S
C3271 C3272 1.376 . S
C3272 H3259 0.930 . S
C3272 C3271 1.376 . S
C3272 C3273 1.388 . S
C3273 H3260 0.930 . S
C3273 C3272 1.388 . S
C3273 C3274 1.390 . S
C3274 C3273 1.390 . S
C3274 C3275 1.394 . S
C3274 C3280 1.465 . S
C3275 C3270 1.399 . S
C3275 C3274 1.394 . S
C3275 C3276 1.516 . S
C3276 C3275 1.516 . S
C3276 C3277 1.502 . S
C3276 C3278 1.561 . S
C3276 C3279 1.526 . S
C3277 H3261 0.959 . S
C3277 H3262 0.959 . S
C3277 H3263 0.961 . S
C3277 C3276 1.502 . S
C3278 H3264 0.960 . S
C3278 H3265 0.961 . S
C3278 H3266 0.959 . S
C3278 C3276 1.561 . S
C3279 C3276 1.526 . S
C3279 C3280 1.396 . S
C3279 C3284 1.390 . S
C3280 C3274 1.465 . S
C3280 C3279 1.396 . S
C3280 C3281 1.399 . S
C3281 H3267 0.929 . S
C3281 C3280 1.399 . S
C3281 C3282 1.385 . S
C3282 H3268 0.931 . S
C3282 C3281 1.385 . S
C3282 C3283 1.389 . S
C3283 C3282 1.389 . S
C3283 C3284 1.387 . S
C3284 H3269 0.930 . S
C3284 C3279 1.390 . S
C3284 C3283 1.387 . S
H3285 C3297 0.930 . S
H3286 C3299 0.930 . S
H3287 C3300 0.930 . S
H3288 C3304 0.959 . S
H3289 C3304 0.959 . S
H3290 C3304 0.961 . S
H3291 C3305 0.960 . S
H3292 C3305 0.961 . S
H3293 C3305 0.959 . S
H3294 C3308 0.929 . S
H3295 C3309 0.931 . S
H3296 C3311 0.930 . S
C3297 H3285 0.930 . S
C3297 C3298 1.399 . S
C3297 C3302 1.399 . S
C3298 C3297 1.399 . S
C3298 C3299 1.376 . S
C3299 H3286 0.930 . S
C3299 C3298 1.376 . S
C3299 C3300 1.388 . S
C3300 H3287 0.930 . S
C3300 C3299 1.388 . S
C3300 C3301 1.390 . S
C3301 C3300 1.390 . S
C3301 C3302 1.394 . S
C3301 C3307 1.465 1_655 S
C3302 C3297 1.399 . S
C3302 C3301 1.394 . S
C3302 C3303 1.516 1_655 S
C3303 C3302 1.516 1_455 S
C3303 C3304 1.502 1_455 S
C3303 C3305 1.561 . S
C3303 C3306 1.526 . S
C3304 H3288 0.959 . S
C3304 H3289 0.959 . S
C3304 H3290 0.961 . S
C3304 C3303 1.502 1_655 S
C3305 H3291 0.960 . S
C3305 H3292 0.961 . S
C3305 H3293 0.959 . S
C3305 C3303 1.561 . S
C3306 C3303 1.526 . S
C3306 C3307 1.396 . S
C3306 C3311 1.390 . S
C3307 C3301 1.465 1_455 S
C3307 C3306 1.396 . S
C3307 C3308 1.399 . S
C3308 H3294 0.929 . S
C3308 C3307 1.399 . S
C3308 C3309 1.385 . S
C3309 H3295 0.931 . S
C3309 C3308 1.385 . S
C3309 C3310 1.389 . S
C3310 C3309 1.389 . S
C3310 C3311 1.387 . S
C3311 H3296 0.930 . S
C3311 C3306 1.390 . S
C3311 C3310 1.387 . S
H3312 C3324 0.930 . S
H3313 C3326 0.930 . S
H3314 C3327 0.930 . S
H3315 C3331 0.959 . S
H3316 C3331 0.959 . S
H3317 C3331 0.961 . S
H3318 C3332 0.960 . S
H3319 C3332 0.961 . S
H3320 C3332 0.959 . S
H3321 C3335 0.929 . S
H3322 C3336 0.931 . S
H3323 C3338 0.930 . S
C3324 H3312 0.930 . S
C3324 C3325 1.399 . S
C3324 C3329 1.399 . S
C3325 C3324 1.399 . S
C3325 C3326 1.376 . S
C3326 H3313 0.930 . S
C3326 C3325 1.376 . S
C3326 C3327 1.388 . S
C3327 H3314 0.930 . S
C3327 C3326 1.388 . S
C3327 C3328 1.390 . S
C3328 C3327 1.390 . S
C3328 C3329 1.394 . S
C3328 C3334 1.465 . S
C3329 C3324 1.399 . S
C3329 C3328 1.394 . S
C3329 C3330 1.516 . S
C3330 C3329 1.516 . S
C3330 C3331 1.502 . S
C3330 C3332 1.561 . S
C3330 C3333 1.526 . S
C3331 H3315 0.959 . S
C3331 H3316 0.959 . S
C3331 H3317 0.961 . S
C3331 C3330 1.502 . S
C3332 H3318 0.960 . S
C3332 H3319 0.961 . S
C3332 H3320 0.959 . S
C3332 C3330 1.561 . S
C3333 C3330 1.526 . S
C3333 C3334 1.396 . S
C3333 C3338 1.390 . S
C3334 C3328 1.465 . S
C3334 C3333 1.396 . S
C3334 C3335 1.399 . S
C3335 H3321 0.929 . S
C3335 C3334 1.399 . S
C3335 C3336 1.385 . S
C3336 H3322 0.931 . S
C3336 C3335 1.385 . S
C3336 C3337 1.389 . S
C3337 C3336 1.389 . S
C3337 C3338 1.387 . S
C3338 H3323 0.930 . S
C3338 C3333 1.390 . S
C3338 C3337 1.387 . S
H3339 C3351 0.930 . S
H3340 C3353 0.930 . S
H3341 C3354 0.930 . S
H3342 C3358 0.959 . S
H3343 C3358 0.959 . S
H3344 C3358 0.961 . S
H3345 C3359 0.960 . S
H3346 C3359 0.961 . S
H3347 C3359 0.959 . S
H3348 C3362 0.929 . S
H3349 C3363 0.931 . S
H3350 C3365 0.930 . S
C3351 H3339 0.930 . S
C3351 C3352 1.399 . S
C3351 C3356 1.399 . S
C3352 C3351 1.399 . S
C3352 C3353 1.376 . S
C3353 H3340 0.930 . S
C3353 C3352 1.376 . S
C3353 C3354 1.388 . S
C3354 H3341 0.930 . S
C3354 C3353 1.388 . S
C3354 C3355 1.390 . S
C3355 C3354 1.390 . S
C3355 C3356 1.394 . S
C3355 C3361 1.465 . S
C3356 C3351 1.399 . S
C3356 C3355 1.394 . S
C3356 C3357 1.516 . S
C3357 C3356 1.516 . S
C3357 C3358 1.502 . S
C3357 C3359 1.561 . S
C3357 C3360 1.526 . S
C3358 H3342 0.959 . S
C3358 H3343 0.959 . S
C3358 H3344 0.961 . S
C3358 C3357 1.502 . S
C3359 H3345 0.960 . S
C3359 H3346 0.961 . S
C3359 H3347 0.959 . S
C3359 C3357 1.561 . S
C3360 C3357 1.526 . S
C3360 C3361 1.396 . S
C3360 C3365 1.390 . S
C3361 C3355 1.465 . S
C3361 C3360 1.396 . S
C3361 C3362 1.399 . S
C3362 H3348 0.929 . S
C3362 C3361 1.399 . S
C3362 C3363 1.385 . S
C3363 H3349 0.931 . S
C3363 C3362 1.385 . S
C3363 C3364 1.389 . S
C3364 C3363 1.389 . S
C3364 C3365 1.387 . S
C3365 H3350 0.930 . S
C3365 C3360 1.390 . S
C3365 C3364 1.387 . S
H3366 C3378 0.930 . S
H3367 C3380 0.930 . S
H3368 C3381 0.930 . S
H3369 C3385 0.959 . S
H3370 C3385 0.959 . S
H3371 C3385 0.961 . S
H3372 C3386 0.960 . S
H3373 C3386 0.961 . S
H3374 C3386 0.959 . S
H3375 C3389 0.929 . S
H3376 C3390 0.931 . S
H3377 C3392 0.930 . S
C3378 H3366 0.930 . S
C3378 C3379 1.399 . S
C3378 C3383 1.399 . S
C3379 C3378 1.399 . S
C3379 C3380 1.376 . S
C3380 H3367 0.930 . S
C3380 C3379 1.376 . S
C3380 C3381 1.388 . S
C3381 H3368 0.930 . S
C3381 C3380 1.388 . S
C3381 C3382 1.390 . S
C3382 C3381 1.390 . S
C3382 C3383 1.394 . S
C3382 C3388 1.465 . S
C3383 C3378 1.399 . S
C3383 C3382 1.394 . S
C3383 C3384 1.516 . S
C3384 C3383 1.516 . S
C3384 C3385 1.502 . S
C3384 C3386 1.561 . S
C3384 C3387 1.526 . S
C3385 H3369 0.959 . S
C3385 H3370 0.959 . S
C3385 H3371 0.961 . S
C3385 C3384 1.502 . S
C3386 H3372 0.960 . S
C3386 H3373 0.961 . S
C3386 H3374 0.959 . S
C3386 C3384 1.561 . S
C3387 C3384 1.526 . S
C3387 C3388 1.396 . S
C3387 C3392 1.390 . S
C3388 C3382 1.465 . S
C3388 C3387 1.396 . S
C3388 C3389 1.399 . S
C3389 H3375 0.929 . S
C3389 C3388 1.399 . S
C3389 C3390 1.385 . S
C3390 H3376 0.931 . S
C3390 C3389 1.385 . S
C3390 C3391 1.389 . S
C3391 C3390 1.389 . S
C3391 C3392 1.387 . S
C3392 H3377 0.930 . S
C3392 C3387 1.390 . S
C3392 C3391 1.387 . S
H3393 C3405 0.930 . S
H3394 C3407 0.930 . S
H3395 C3408 0.912 1_565 S
H3396 C3412 0.959 . S
H3397 C3412 0.959 . S
H3398 C3412 0.961 . S
H3399 C3413 0.960 . S
H3400 C3413 0.961 . S
H3401 C3413 0.959 . S
H3402 C3416 0.886 1_565 S
H3403 C3417 0.931 . S
H3404 C3419 0.930 . S
C3405 H3393 0.930 . S
C3405 C3406 1.399 . S
C3405 C3410 1.399 . S
C3406 C3405 1.399 . S
C3406 C3407 1.376 . S
C3407 H3394 0.930 . S
C3407 C3406 1.376 . S
C3407 C3408 1.388 . S
C3408 H3395 0.912 1_545 S
C3408 C3407 1.388 . S
C3408 C3409 1.390 . S
C3409 C3408 1.390 . S
C3409 C3410 1.394 . S
C3409 C3415 1.465 . S
C3410 C3405 1.399 . S
C3410 C3409 1.394 . S
C3410 C3411 1.516 . S
C3411 C3410 1.516 . S
C3411 C3412 1.502 . S
C3411 C3413 1.561 . S
C3411 C3414 1.526 . S
C3412 H3396 0.959 . S
C3412 H3397 0.959 . S
C3412 H3398 0.961 . S
C3412 C3411 1.502 . S
C3413 H3399 0.960 . S
C3413 H3400 0.961 . S
C3413 H3401 0.959 . S
C3413 C3411 1.561 . S
C3414 C3411 1.526 . S
C3414 C3415 1.396 . S
C3414 C3419 1.390 . S
C3415 C3409 1.465 . S
C3415 C3414 1.396 . S
C3415 C3416 1.399 . S
C3416 H3402 0.886 1_545 S
C3416 C3415 1.399 . S
C3416 C3417 1.385 . S
C3417 H3403 0.931 . S
C3417 C3416 1.385 . S
C3417 C3418 1.389 . S
C3418 C3417 1.389 . S
C3418 C3419 1.387 . S
C3419 H3404 0.930 . S
C3419 C3414 1.390 . S
C3419 C3418 1.387 . S
H3420 C3432 0.930 . S
H3421 C3434 0.930 . S
H3422 C3435 0.930 1_545 S
H3423 C3439 0.959 . S
H3424 C3439 0.959 . S
H3425 C3439 0.961 . S
H3426 C3440 0.960 . S
H3427 C3440 0.961 . S
H3428 C3440 0.959 . S
H3429 C3443 0.929 . S
H3430 C3444 0.931 . S
H3431 C3446 0.930 . S
C3432 H3420 0.930 . S
C3432 C3433 1.399 . S
C3432 C3437 1.399 . S
C3433 C3432 1.399 . S
C3433 C3434 1.376 . S
C3434 H3421 0.930 . S
C3434 C3433 1.376 . S
C3434 C3435 1.388 . S
C3435 H3422 0.930 1_565 S
C3435 C3434 1.388 . S
C3435 C3436 1.390 . S
C3436 C3435 1.390 . S
C3436 C3437 1.394 . S
C3436 C3442 1.465 1_565 S
C3437 C3432 1.399 . S
C3437 C3436 1.394 . S
C3437 C3438 1.516 . S
C3438 C3437 1.516 . S
C3438 C3439 1.502 . S
C3438 C3440 1.561 . S
C3438 C3441 1.526 1_565 S
C3439 H3423 0.959 . S
C3439 H3424 0.959 . S
C3439 H3425 0.961 . S
C3439 C3438 1.502 . S
C3440 H3426 0.960 . S
C3440 H3427 0.961 . S
C3440 H3428 0.959 . S
C3440 C3438 1.561 . S
C3441 C3438 1.526 1_545 S
C3441 C3442 1.396 . S
C3441 C3446 1.390 . S
C3442 C3436 1.465 1_545 S
C3442 C3441 1.396 . S
C3442 C3443 1.399 . S
C3443 H3429 0.929 . S
C3443 C3442 1.399 . S
C3443 C3444 1.385 . S
C3444 H3430 0.931 . S
C3444 C3443 1.385 . S
C3444 C3445 1.389 . S
C3445 C3444 1.389 . S
C3445 C3446 1.387 . S
C3446 H3431 0.930 . S
C3446 C3441 1.390 . S
C3446 C3445 1.387 . S
H3447 C3459 0.930 . S
H3448 C3461 0.930 . S
H3449 C3462 0.930 . S
H3450 C3466 0.959 . S
H3451 C3466 0.959 . S
H3452 C3466 0.961 . S
H3453 C3467 0.960 . S
H3454 C3467 0.961 . S
H3455 C3467 0.959 . S
H3456 C3470 0.929 . S
H3457 C3471 0.931 . S
H3458 C3473 0.930 . S
C3459 H3447 0.930 . S
C3459 C3460 1.399 . S
C3459 C3464 1.399 . S
C3460 C3459 1.399 . S
C3460 C3461 1.376 . S
C3461 H3448 0.930 . S
C3461 C3460 1.376 . S
C3461 C3462 1.388 . S
C3462 H3449 0.930 . S
C3462 C3461 1.388 . S
C3462 C3463 1.390 . S
C3463 C3462 1.390 . S
C3463 C3464 1.394 . S
C3463 C3469 1.465 . S
C3464 C3459 1.399 . S
C3464 C3463 1.394 . S
C3464 C3465 1.516 . S
C3465 C3464 1.516 . S
C3465 C3466 1.502 . S
C3465 C3467 1.561 . S
C3465 C3468 1.526 . S
C3466 H3450 0.959 . S
C3466 H3451 0.959 . S
C3466 H3452 0.961 . S
C3466 C3465 1.502 . S
C3467 H3453 0.960 . S
C3467 H3454 0.961 . S
C3467 H3455 0.959 . S
C3467 C3465 1.561 . S
C3468 C3465 1.526 . S
C3468 C3469 1.396 . S
C3468 C3473 1.390 . S
C3469 C3463 1.465 . S
C3469 C3468 1.396 . S
C3469 C3470 1.399 . S
C3470 H3456 0.929 . S
C3470 C3469 1.399 . S
C3470 C3471 1.385 . S
C3471 H3457 0.931 . S
C3471 C3470 1.385 . S
C3471 C3472 1.389 . S
C3472 C3471 1.389 . S
C3472 C3473 1.387 . S
C3473 H3458 0.930 . S
C3473 C3468 1.390 . S
C3473 C3472 1.387 . S
H3474 C3486 0.930 . S
H3475 C3488 0.930 . S
H3476 C3489 0.930 . S
H3477 C3493 0.959 . S
H3478 C3493 0.959 . S
H3479 C3493 0.961 . S
H3480 C3494 0.996 . S
H3481 C3494 0.914 1_556 S
H3482 C3494 0.990 . S
H3483 C3497 0.929 . S
H3484 C3498 0.931 . S
H3485 C3500 0.930 . S
C3486 H3474 0.930 . S
C3486 C3487 1.399 . S
C3486 C3491 1.399 . S
C3487 C3486 1.399 . S
C3487 C3488 1.376 . S
C3488 H3475 0.930 . S
C3488 C3487 1.376 . S
C3488 C3489 1.388 . S
C3489 H3476 0.930 . S
C3489 C3488 1.388 . S
C3489 C3490 1.390 . S
C3490 C3489 1.390 . S
C3490 C3491 1.394 . S
C3490 C3496 1.465 1_554 S
C3491 C3486 1.399 . S
C3491 C3490 1.394 . S
C3491 C3492 1.516 1_554 S
C3492 C3491 1.516 1_556 S
C3492 C3493 1.502 . S
C3492 C3494 1.544 1_556 S
C3492 C3495 1.526 . S
C3493 H3477 0.959 . S
C3493 H3478 0.959 . S
C3493 H3479 0.961 . S
C3493 C3492 1.502 . S
C3494 H3480 0.996 . S
C3494 H3481 0.914 1_554 S
C3494 H3482 0.990 . S
C3494 C3492 1.544 1_554 S
C3495 C3492 1.526 . S
C3495 C3496 1.396 . S
C3495 C3500 1.390 . S
C3496 C3490 1.465 1_556 S
C3496 C3495 1.396 . S
C3496 C3497 1.399 . S
C3497 H3483 0.929 . S
C3497 C3496 1.399 . S
C3497 C3498 1.385 . S
C3498 H3484 0.931 . S
C3498 C3497 1.385 . S
C3498 C3499 1.389 . S
C3499 C3498 1.389 . S
C3499 C3500 1.387 . S
C3500 H3485 0.930 . S
C3500 C3495 1.390 . S
C3500 C3499 1.387 . S
H3501 C3513 0.930 . S
H3502 C3515 0.930 . S
H3503 C3516 0.930 . S
H3504 C3520 0.959 . S
H3505 C3520 0.959 . S
H3506 C3520 0.961 . S
H3507 C3521 0.960 . S
H3508 C3521 0.961 . S
H3509 C3521 0.959 . S
H3510 C3524 0.929 . S
H3511 C3525 0.931 . S
H3512 C3527 0.930 . S
C3513 H3501 0.930 . S
C3513 C3514 1.399 . S
C3513 C3518 1.399 . S
C3514 C3513 1.399 . S
C3514 C3515 1.376 . S
C3515 H3502 0.930 . S
C3515 C3514 1.376 . S
C3515 C3516 1.388 . S
C3516 H3503 0.930 . S
C3516 C3515 1.388 . S
C3516 C3517 1.390 . S
C3517 C3516 1.390 . S
C3517 C3518 1.394 . S
C3517 C3523 1.459 1_565 S
C3518 C3513 1.399 . S
C3518 C3517 1.394 . S
C3518 C3519 1.516 1_565 S
C3519 C3518 1.516 1_545 S
C3519 C3520 1.502 . S
C3519 C3521 1.561 . S
C3519 C3522 1.526 . S
C3520 H3504 0.959 . S
C3520 H3505 0.959 . S
C3520 H3506 0.961 . S
C3520 C3519 1.502 . S
C3521 H3507 0.960 . S
C3521 H3508 0.961 . S
C3521 H3509 0.959 . S
C3521 C3519 1.561 . S
C3522 C3519 1.526 . S
C3522 C3523 1.405 . S
C3522 C3527 1.390 . S
C3523 C3517 1.459 1_545 S
C3523 C3522 1.405 . S
C3523 C3524 1.397 1_545 S
C3524 H3510 0.929 . S
C3524 C3523 1.397 1_565 S
C3524 C3525 1.385 1_565 S
C3525 H3511 0.931 . S
C3525 C3524 1.385 1_545 S
C3525 C3526 1.389 . S
C3526 C3525 1.389 . S
C3526 C3527 1.387 . S
C3527 H3512 0.930 . S
C3527 C3522 1.390 . S
C3527 C3526 1.387 . S
H3528 C3540 0.930 . S
H3529 C3542 0.930 . S
H3530 C3543 0.930 . S
H3531 C3547 0.959 . S
H3532 C3547 0.959 . S
H3533 C3547 0.961 . S
H3534 C3548 0.960 . S
H3535 C3548 0.961 . S
H3536 C3548 0.959 . S
H3537 C3551 0.929 . S
H3538 C3552 0.931 . S
H3539 C3554 0.930 . S
C3540 H3528 0.930 . S
C3540 C3541 1.399 . S
C3540 C3545 1.399 . S
C3541 C3540 1.399 . S
C3541 C3542 1.376 . S
C3542 H3529 0.930 . S
C3542 C3541 1.376 . S
C3542 C3543 1.388 . S
C3543 H3530 0.930 . S
C3543 C3542 1.388 . S
C3543 C3544 1.390 . S
C3544 C3543 1.390 . S
C3544 C3545 1.394 . S
C3544 C3550 1.465 . S
C3545 C3540 1.399 . S
C3545 C3544 1.394 . S
C3545 C3546 1.516 . S
C3546 C3545 1.516 . S
C3546 C3547 1.502 . S
C3546 C3548 1.561 . S
C3546 C3549 1.526 . S
C3547 H3531 0.959 . S
C3547 H3532 0.959 . S
C3547 H3533 0.961 . S
C3547 C3546 1.502 . S
C3548 H3534 0.960 . S
C3548 H3535 0.961 . S
C3548 H3536 0.959 . S
C3548 C3546 1.561 . S
C3549 C3546 1.526 . S
C3549 C3550 1.396 . S
C3549 C3554 1.390 . S
C3550 C3544 1.465 . S
C3550 C3549 1.396 . S
C3550 C3551 1.399 . S
C3551 H3537 0.929 . S
C3551 C3550 1.399 . S
C3551 C3552 1.385 . S
C3552 H3538 0.931 . S
C3552 C3551 1.385 . S
C3552 C3553 1.389 . S
C3553 C3552 1.389 . S
C3553 C3554 1.387 . S
C3554 H3539 0.930 . S
C3554 C3549 1.390 . S
C3554 C3553 1.387 . S
H3555 C3567 0.930 . S
H3556 C3569 0.930 . S
H3557 C3570 0.930 . S
H3558 C3574 0.959 . S
H3559 C3574 0.959 . S
H3560 C3574 0.961 . S
H3561 C3575 0.960 . S
H3562 C3575 0.961 . S
H3563 C3575 0.959 . S
H3564 C3578 0.929 . S
H3565 C3579 0.931 . S
H3566 C3581 0.930 . S
C3567 H3555 0.930 . S
C3567 C3568 1.399 . S
C3567 C3572 1.399 . S
C3568 C3567 1.399 . S
C3568 C3569 1.376 . S
C3569 H3556 0.930 . S
C3569 C3568 1.376 . S
C3569 C3570 1.388 . S
C3570 H3557 0.930 . S
C3570 C3569 1.388 . S
C3570 C3571 1.390 . S
C3571 C3570 1.390 . S
C3571 C3572 1.394 . S
C3571 C3577 1.465 . S
C3572 C3567 1.399 . S
C3572 C3571 1.394 . S
C3572 C3573 1.516 . S
C3573 C3572 1.516 . S
C3573 C3574 1.502 . S
C3573 C3575 1.561 . S
C3573 C3576 1.526 . S
C3574 H3558 0.959 . S
C3574 H3559 0.959 . S
C3574 H3560 0.961 . S
C3574 C3573 1.502 . S
C3575 H3561 0.960 . S
C3575 H3562 0.961 . S
C3575 H3563 0.959 . S
C3575 C3573 1.561 . S
C3576 C3573 1.526 . S
C3576 C3577 1.396 . S
C3576 C3581 1.390 . S
C3577 C3571 1.465 . S
C3577 C3576 1.396 . S
C3577 C3578 1.399 . S
C3578 H3564 0.929 . S
C3578 C3577 1.399 . S
C3578 C3579 1.385 . S
C3579 H3565 0.931 . S
C3579 C3578 1.385 . S
C3579 C3580 1.389 . S
C3580 C3579 1.389 . S
C3580 C3581 1.387 . S
C3581 H3566 0.930 . S
C3581 C3576 1.390 . S
C3581 C3580 1.387 . S
H3582 C3594 0.930 . S
H3583 C3596 0.930 . S
H3584 C3597 0.930 . S
H3585 C3601 0.959 . S
H3586 C3601 0.959 . S
H3587 C3601 0.961 . S
H3588 C3602 0.960 . S
H3589 C3602 0.961 . S
H3590 C3602 0.959 . S
H3591 C3605 0.929 . S
H3592 C3606 0.931 . S
H3593 C3608 0.930 . S
C3594 H3582 0.930 . S
C3594 C3595 1.399 . S
C3594 C3599 1.399 . S
C3595 C3594 1.399 . S
C3595 C3596 1.376 . S
C3596 H3583 0.930 . S
C3596 C3595 1.376 . S
C3596 C3597 1.388 . S
C3597 H3584 0.930 . S
C3597 C3596 1.388 . S
C3597 C3598 1.390 . S
C3598 C3597 1.390 . S
C3598 C3599 1.394 . S
C3598 C3604 1.465 . S
C3599 C3594 1.399 . S
C3599 C3598 1.394 . S
C3599 C3600 1.516 . S
C3600 C3599 1.516 . S
C3600 C3601 1.502 . S
C3600 C3602 1.561 . S
C3600 C3603 1.526 . S
C3601 H3585 0.959 . S
C3601 H3586 0.959 . S
C3601 H3587 0.961 . S
C3601 C3600 1.502 . S
C3602 H3588 0.960 . S
C3602 H3589 0.961 . S
C3602 H3590 0.959 . S
C3602 C3600 1.561 . S
C3603 C3600 1.526 . S
C3603 C3604 1.396 . S
C3603 C3608 1.390 . S
C3604 C3598 1.465 . S
C3604 C3603 1.396 . S
C3604 C3605 1.399 . S
C3605 H3591 0.929 . S
C3605 C3604 1.399 . S
C3605 C3606 1.385 . S
C3606 H3592 0.931 . S
C3606 C3605 1.385 . S
C3606 C3607 1.389 . S
C3607 C3606 1.389 . S
C3607 C3608 1.387 . S
C3608 H3593 0.930 . S
C3608 C3603 1.390 . S
C3608 C3607 1.387 . S
H3609 C3621 0.930 . S
H3610 C3623 0.930 . S
H3611 C3624 0.930 . S
H3612 C3628 0.959 . S
H3613 C3628 0.959 . S
H3614 C3628 0.961 . S
H3615 C3629 0.960 . S
H3616 C3629 0.961 . S
H3617 C3629 0.959 . S
H3618 C3632 0.929 . S
H3619 C3633 0.931 . S
H3620 C3635 0.930 . S
C3621 H3609 0.930 . S
C3621 C3622 1.399 . S
C3621 C3626 1.399 . S
C3622 C3621 1.399 . S
C3622 C3623 1.376 . S
C3623 H3610 0.930 . S
C3623 C3622 1.376 . S
C3623 C3624 1.388 . S
C3624 H3611 0.930 . S
C3624 C3623 1.388 . S
C3624 C3625 1.390 . S
C3625 C3624 1.390 . S
C3625 C3626 1.394 . S
C3625 C3631 1.465 . S
C3626 C3621 1.399 . S
C3626 C3625 1.394 . S
C3626 C3627 1.516 . S
C3627 C3626 1.516 . S
C3627 C3628 1.502 . S
C3627 C3629 1.561 . S
C3627 C3630 1.526 . S
C3628 H3612 0.959 . S
C3628 H3613 0.959 . S
C3628 H3614 0.961 . S
C3628 C3627 1.502 . S
C3629 H3615 0.960 . S
C3629 H3616 0.961 . S
C3629 H3617 0.959 . S
C3629 C3627 1.561 . S
C3630 C3627 1.526 . S
C3630 C3631 1.396 . S
C3630 C3635 1.390 . S
C3631 C3625 1.465 . S
C3631 C3630 1.396 . S
C3631 C3632 1.399 . S
C3632 H3618 0.929 . S
C3632 C3631 1.399 . S
C3632 C3633 1.385 . S
C3633 H3619 0.931 . S
C3633 C3632 1.385 . S
C3633 C3634 1.389 . S
C3634 C3633 1.389 . S
C3634 C3635 1.387 . S
C3635 H3620 0.930 . S
C3635 C3630 1.390 . S
C3635 C3634 1.387 . S
H3636 C3648 0.930 . S
H3637 C3650 0.930 . S
H3638 C3651 0.930 . S
H3639 C3655 0.959 . S
H3640 C3655 0.959 . S
H3641 C3655 0.961 . S
H3642 C3656 0.960 . S
H3643 C3656 0.961 . S
H3644 C3656 0.959 . S
H3645 C3659 0.929 . S
H3646 C3660 0.931 . S
H3647 C3662 0.930 . S
C3648 H3636 0.930 . S
C3648 C3649 1.399 . S
C3648 C3653 1.399 . S
C3649 C3648 1.399 . S
C3649 C3650 1.376 . S
C3650 H3637 0.930 . S
C3650 C3649 1.376 . S
C3650 C3651 1.388 . S
C3651 H3638 0.930 . S
C3651 C3650 1.388 . S
C3651 C3652 1.390 . S
C3652 C3651 1.390 . S
C3652 C3653 1.394 . S
C3652 C3658 1.465 . S
C3653 C3648 1.399 . S
C3653 C3652 1.394 . S
C3653 C3654 1.516 . S
C3654 C3653 1.516 . S
C3654 C3655 1.502 . S
C3654 C3656 1.561 . S
C3654 C3657 1.526 . S
C3655 H3639 0.959 . S
C3655 H3640 0.959 . S
C3655 H3641 0.961 . S
C3655 C3654 1.502 . S
C3656 H3642 0.960 . S
C3656 H3643 0.961 . S
C3656 H3644 0.959 . S
C3656 C3654 1.561 . S
C3657 C3654 1.526 . S
C3657 C3658 1.396 . S
C3657 C3662 1.390 . S
C3658 C3652 1.465 . S
C3658 C3657 1.396 . S
C3658 C3659 1.399 . S
C3659 H3645 0.929 . S
C3659 C3658 1.399 . S
C3659 C3660 1.385 . S
C3660 H3646 0.931 . S
C3660 C3659 1.385 . S
C3660 C3661 1.389 . S
C3661 C3660 1.389 . S
C3661 C3662 1.387 . S
C3662 H3647 0.930 . S
C3662 C3657 1.390 . S
C3662 C3661 1.387 . S
H3663 C3675 0.930 . S
H3664 C3677 0.930 . S
H3665 C3678 0.930 . S
H3666 C3682 0.959 . S
H3667 C3682 0.959 . S
H3668 C3682 0.961 . S
H3669 C3683 0.960 . S
H3670 C3683 0.961 . S
H3671 C3683 0.959 . S
H3672 C3686 0.929 . S
H3673 C3687 0.931 . S
H3674 C3689 0.930 . S
C3675 H3663 0.930 . S
C3675 C3676 1.399 . S
C3675 C3680 1.399 . S
C3676 C3675 1.399 . S
C3676 C3677 1.376 . S
C3677 H3664 0.930 . S
C3677 C3676 1.376 . S
C3677 C3678 1.388 . S
C3678 H3665 0.930 . S
C3678 C3677 1.388 . S
C3678 C3679 1.390 . S
C3679 C3678 1.390 . S
C3679 C3680 1.394 . S
C3679 C3685 1.465 . S
C3680 C3675 1.399 . S
C3680 C3679 1.394 . S
C3680 C3681 1.516 . S
C3681 C3680 1.516 . S
C3681 C3682 1.502 . S
C3681 C3683 1.561 . S
C3681 C3684 1.526 . S
C3682 H3666 0.959 . S
C3682 H3667 0.959 . S
C3682 H3668 0.961 . S
C3682 C3681 1.502 . S
C3683 H3669 0.960 . S
C3683 H3670 0.961 . S
C3683 H3671 0.959 . S
C3683 C3681 1.561 . S
C3684 C3681 1.526 . S
C3684 C3685 1.396 . S
C3684 C3689 1.390 . S
C3685 C3679 1.465 . S
C3685 C3684 1.396 . S
C3685 C3686 1.399 . S
C3686 H3672 0.929 . S
C3686 C3685 1.399 . S
C3686 C3687 1.385 . S
C3687 H3673 0.931 . S
C3687 C3686 1.385 . S
C3687 C3688 1.389 . S
C3688 C3687 1.389 . S
C3688 C3689 1.387 . S
C3689 H3674 0.930 . S
C3689 C3684 1.390 . S
C3689 C3688 1.387 . S
H3690 C3702 0.930 . S
H3691 C3704 0.930 . S
H3692 C3705 0.930 . S
H3693 C3709 0.959 . S
H3694 C3709 0.959 . S
H3695 C3709 0.961 . S
H3696 C3710 0.960 . S
H3697 C3710 0.961 . S
H3698 C3710 0.959 . S
H3699 C3713 0.929 . S
H3700 C3714 0.931 . S
H3701 C3716 0.930 . S
C3702 H3690 0.930 . S
C3702 C3703 1.399 . S
C3702 C3707 1.399 . S
C3703 C3702 1.399 . S
C3703 C3704 1.376 . S
C3704 H3691 0.930 . S
C3704 C3703 1.376 . S
C3704 C3705 1.388 . S
C3705 H3692 0.930 . S
C3705 C3704 1.388 . S
C3705 C3706 1.390 . S
C3706 C3705 1.390 . S
C3706 C3707 1.394 . S
C3706 C3712 1.465 . S
C3707 C3702 1.399 . S
C3707 C3706 1.394 . S
C3707 C3708 1.516 . S
C3708 C3707 1.516 . S
C3708 C3709 1.502 . S
C3708 C3710 1.561 . S
C3708 C3711 1.526 . S
C3709 H3693 0.959 . S
C3709 H3694 0.959 . S
C3709 H3695 0.961 . S
C3709 C3708 1.502 . S
C3710 H3696 0.960 . S
C3710 H3697 0.961 . S
C3710 H3698 0.959 . S
C3710 C3708 1.561 . S
C3711 C3708 1.526 . S
C3711 C3712 1.396 . S
C3711 C3716 1.390 . S
C3712 C3706 1.465 . S
C3712 C3711 1.396 . S
C3712 C3713 1.399 . S
C3713 H3699 0.929 . S
C3713 C3712 1.399 . S
C3713 C3714 1.385 . S
C3714 H3700 0.931 . S
C3714 C3713 1.385 . S
C3714 C3715 1.389 . S
C3715 C3714 1.389 . S
C3715 C3716 1.387 . S
C3716 H3701 0.930 . S
C3716 C3711 1.390 . S
C3716 C3715 1.387 . S
H3717 C3729 0.930 . S
H3718 C3731 0.930 . S
H3719 C3732 0.930 . S
H3720 C3736 0.959 . S
H3721 C3736 0.959 . S
H3722 C3736 0.961 . S
H3723 C3737 0.960 . S
H3724 C3737 0.961 . S
H3725 C3737 0.959 . S
H3726 C3740 0.929 . S
H3727 C3741 0.931 . S
H3728 C3743 0.930 . S
C3729 H3717 0.930 . S
C3729 C3730 1.399 . S
C3729 C3734 1.399 . S
C3730 C3729 1.399 . S
C3730 C3731 1.376 . S
C3731 H3718 0.930 . S
C3731 C3730 1.376 . S
C3731 C3732 1.388 . S
C3732 H3719 0.930 . S
C3732 C3731 1.388 . S
C3732 C3733 1.390 . S
C3733 C3732 1.390 . S
C3733 C3734 1.394 . S
C3733 C3739 1.465 . S
C3734 C3729 1.399 . S
C3734 C3733 1.394 . S
C3734 C3735 1.516 . S
C3735 C3734 1.516 . S
C3735 C3736 1.502 . S
C3735 C3737 1.561 . S
C3735 C3738 1.526 . S
C3736 H3720 0.959 . S
C3736 H3721 0.959 . S
C3736 H3722 0.961 . S
C3736 C3735 1.502 . S
C3737 H3723 0.960 . S
C3737 H3724 0.961 . S
C3737 H3725 0.959 . S
C3737 C3735 1.561 . S
C3738 C3735 1.526 . S
C3738 C3739 1.396 . S
C3738 C3743 1.390 . S
C3739 C3733 1.465 . S
C3739 C3738 1.396 . S
C3739 C3740 1.399 . S
C3740 H3726 0.929 . S
C3740 C3739 1.399 . S
C3740 C3741 1.385 . S
C3741 H3727 0.931 . S
C3741 C3740 1.385 . S
C3741 C3742 1.389 . S
C3742 C3741 1.389 . S
C3742 C3743 1.387 . S
C3743 H3728 0.930 . S
C3743 C3738 1.390 . S
C3743 C3742 1.387 . S
H3744 C3756 0.930 . S
H3745 C3758 0.930 . S
H3746 C3759 0.930 . S
H3747 C3763 0.959 . S
H3748 C3763 0.959 . S
H3749 C3763 0.961 . S
H3750 C3764 0.960 . S
H3751 C3764 0.961 . S
H3752 C3764 0.959 . S
H3753 C3767 0.929 . S
H3754 C3768 0.931 . S
H3755 C3770 0.930 . S
C3756 H3744 0.930 . S
C3756 C3757 1.399 . S
C3756 C3761 1.399 . S
C3757 C3756 1.399 . S
C3757 C3758 1.376 . S
C3758 H3745 0.930 . S
C3758 C3757 1.376 . S
C3758 C3759 1.388 . S
C3759 H3746 0.930 . S
C3759 C3758 1.388 . S
C3759 C3760 1.390 . S
C3760 C3759 1.390 . S
C3760 C3761 1.394 . S
C3760 C3766 1.465 . S
C3761 C3756 1.399 . S
C3761 C3760 1.394 . S
C3761 C3762 1.516 . S
C3762 C3761 1.516 . S
C3762 C3763 1.502 . S
C3762 C3764 1.561 . S
C3762 C3765 1.526 . S
C3763 H3747 0.959 . S
C3763 H3748 0.959 . S
C3763 H3749 0.961 . S
C3763 C3762 1.502 . S
C3764 H3750 0.960 . S
C3764 H3751 0.961 . S
C3764 H3752 0.959 . S
C3764 C3762 1.561 . S
C3765 C3762 1.526 . S
C3765 C3766 1.396 . S
C3765 C3770 1.390 . S
C3766 C3760 1.465 . S
C3766 C3765 1.396 . S
C3766 C3767 1.399 . S
C3767 H3753 0.929 . S
C3767 C3766 1.399 . S
C3767 C3768 1.385 . S
C3768 H3754 0.931 . S
C3768 C3767 1.385 . S
C3768 C3769 1.389 . S
C3769 C3768 1.389 . S
C3769 C3770 1.387 . S
C3770 H3755 0.930 . S
C3770 C3765 1.390 . S
C3770 C3769 1.387 . S
H3771 C3783 0.930 . S
H3772 C3785 0.930 . S
H3773 C3786 0.930 . S
H3774 C3790 0.959 . S
H3775 C3790 0.959 . S
H3776 C3790 0.961 . S
H3777 C3791 0.960 . S
H3778 C3791 0.961 . S
H3779 C3791 0.959 . S
H3780 C3794 0.929 . S
H3781 C3795 0.931 . S
H3782 C3797 0.930 . S
C3783 H3771 0.930 . S
C3783 C3784 1.399 . S
C3783 C3788 1.399 . S
C3784 C3783 1.399 . S
C3784 C3785 1.376 . S
C3785 H3772 0.930 . S
C3785 C3784 1.376 . S
C3785 C3786 1.388 . S
C3786 H3773 0.930 . S
C3786 C3785 1.388 . S
C3786 C3787 1.390 . S
C3787 C3786 1.390 . S
C3787 C3788 1.394 . S
C3787 C3793 1.465 . S
C3788 C3783 1.399 . S
C3788 C3787 1.394 . S
C3788 C3789 1.516 . S
C3789 C3788 1.516 . S
C3789 C3790 1.502 . S
C3789 C3791 1.561 . S
C3789 C3792 1.526 . S
C3790 H3774 0.959 . S
C3790 H3775 0.959 . S
C3790 H3776 0.961 . S
C3790 C3789 1.502 . S
C3791 H3777 0.960 . S
C3791 H3778 0.961 . S
C3791 H3779 0.959 . S
C3791 C3789 1.561 . S
C3792 C3789 1.526 . S
C3792 C3793 1.396 . S
C3792 C3797 1.390 . S
C3793 C3787 1.465 . S
C3793 C3792 1.396 . S
C3793 C3794 1.399 . S
C3794 H3780 0.929 . S
C3794 C3793 1.399 . S
C3794 C3795 1.385 . S
C3795 H3781 0.931 . S
C3795 C3794 1.385 . S
C3795 C3796 1.389 . S
C3796 C3795 1.389 . S
C3796 C3797 1.387 . S
C3797 H3782 0.930 . S
C3797 C3792 1.390 . S
C3797 C3796 1.387 . S
H3798 C3810 0.930 . S
H3799 C3812 0.930 . S
H3800 C3813 0.930 . S
H3801 C3817 0.959 . S
H3802 C3817 0.959 . S
H3803 C3817 0.961 . S
H3804 C3818 0.960 . S
H3805 C3818 0.961 . S
H3806 C3818 0.959 . S
H3807 C3821 0.929 . S
H3808 C3822 0.931 . S
H3809 C3824 0.930 . S
C3810 H3798 0.930 . S
C3810 C3811 1.399 . S
C3810 C3815 1.399 . S
C3811 C3810 1.399 . S
C3811 C3812 1.376 . S
C3812 H3799 0.930 . S
C3812 C3811 1.376 . S
C3812 C3813 1.388 . S
C3813 H3800 0.930 . S
C3813 C3812 1.388 . S
C3813 C3814 1.390 . S
C3814 C3813 1.390 . S
C3814 C3815 1.394 . S
C3814 C3820 1.465 . S
C3815 C3810 1.399 . S
C3815 C3814 1.394 . S
C3815 C3816 1.516 . S
C3816 C3815 1.516 . S
C3816 C3817 1.502 . S
C3816 C3818 1.561 . S
C3816 C3819 1.526 . S
C3817 H3801 0.959 . S
C3817 H3802 0.959 . S
C3817 H3803 0.961 . S
C3817 C3816 1.502 . S
C3818 H3804 0.960 . S
C3818 H3805 0.961 . S
C3818 H3806 0.959 . S
C3818 C3816 1.561 . S
C3819 C3816 1.526 . S
C3819 C3820 1.396 . S
C3819 C3824 1.390 . S
C3820 C3814 1.465 . S
C3820 C3819 1.396 . S
C3820 C3821 1.399 . S
C3821 H3807 0.929 . S
C3821 C3820 1.399 . S
C3821 C3822 1.385 . S
C3822 H3808 0.931 . S
C3822 C3821 1.385 . S
C3822 C3823 1.389 . S
C3823 C3822 1.389 . S
C3823 C3824 1.387 . S
C3824 H3809 0.930 . S
C3824 C3819 1.390 . S
C3824 C3823 1.387 . S
H3825 C3837 0.930 . S
H3826 C3839 0.930 . S
H3827 C3840 0.930 . S
H3828 C3844 0.959 . S
H3829 C3844 0.959 . S
H3830 C3844 0.961 . S
H3831 C3845 0.960 . S
H3832 C3845 0.961 . S
H3833 C3845 0.959 . S
H3834 C3848 0.929 . S
H3835 C3849 0.931 . S
H3836 C3851 0.930 . S
C3837 H3825 0.930 . S
C3837 C3838 1.399 . S
C3837 C3842 1.399 . S
C3838 C3837 1.399 . S
C3838 C3839 1.376 . S
C3839 H3826 0.930 . S
C3839 C3838 1.376 . S
C3839 C3840 1.388 . S
C3840 H3827 0.930 . S
C3840 C3839 1.388 . S
C3840 C3841 1.390 . S
C3841 C3840 1.390 . S
C3841 C3842 1.394 . S
C3841 C3847 1.465 . S
C3842 C3837 1.399 . S
C3842 C3841 1.394 . S
C3842 C3843 1.516 . S
C3843 C3842 1.516 . S
C3843 C3844 1.502 . S
C3843 C3845 1.561 . S
C3843 C3846 1.526 . S
C3844 H3828 0.959 . S
C3844 H3829 0.959 . S
C3844 H3830 0.961 . S
C3844 C3843 1.502 . S
C3845 H3831 0.960 . S
C3845 H3832 0.961 . S
C3845 H3833 0.959 . S
C3845 C3843 1.561 . S
C3846 C3843 1.526 . S
C3846 C3847 1.396 . S
C3846 C3851 1.390 . S
C3847 C3841 1.465 . S
C3847 C3846 1.396 . S
C3847 C3848 1.399 . S
C3848 H3834 0.929 . S
C3848 C3847 1.399 . S
C3848 C3849 1.385 . S
C3849 H3835 0.931 . S
C3849 C3848 1.385 . S
C3849 C3850 1.389 . S
C3850 C3849 1.389 . S
C3850 C3851 1.387 . S
C3851 H3836 0.930 . S
C3851 C3846 1.390 . S
C3851 C3850 1.387 . S
H3852 C3864 0.930 . S
H3853 C3866 0.930 . S
H3854 C3867 0.930 . S
H3855 C3871 0.959 . S
H3856 C3871 0.959 . S
H3857 C3871 0.961 . S
H3858 C3872 0.960 . S
H3859 C3872 0.961 . S
H3860 C3872 0.959 . S
H3861 C3875 0.929 . S
H3862 C3876 0.931 . S
H3863 C3878 0.930 . S
C3864 H3852 0.930 . S
C3864 C3865 1.399 . S
C3864 C3869 1.399 . S
C3865 C3864 1.399 . S
C3865 C3866 1.376 . S
C3866 H3853 0.930 . S
C3866 C3865 1.376 . S
C3866 C3867 1.388 . S
C3867 H3854 0.930 . S
C3867 C3866 1.388 . S
C3867 C3868 1.390 . S
C3868 C3867 1.390 . S
C3868 C3869 1.394 . S
C3868 C3874 1.465 . S
C3869 C3864 1.399 . S
C3869 C3868 1.394 . S
C3869 C3870 1.516 . S
C3870 C3869 1.516 . S
C3870 C3871 1.502 . S
C3870 C3872 1.561 . S
C3870 C3873 1.526 . S
C3871 H3855 0.959 . S
C3871 H3856 0.959 . S
C3871 H3857 0.961 . S
C3871 C3870 1.502 . S
C3872 H3858 0.960 . S
C3872 H3859 0.961 . S
C3872 H3860 0.959 . S
C3872 C3870 1.561 . S
C3873 C3870 1.526 . S
C3873 C3874 1.396 . S
C3873 C3878 1.390 . S
C3874 C3868 1.465 . S
C3874 C3873 1.396 . S
C3874 C3875 1.399 . S
C3875 H3861 0.929 . S
C3875 C3874 1.399 . S
C3875 C3876 1.385 . S
C3876 H3862 0.931 . S
C3876 C3875 1.385 . S
C3876 C3877 1.389 . S
C3877 C3876 1.389 . S
C3877 C3878 1.387 . S
C3878 H3863 0.930 . S
C3878 C3873 1.390 . S
C3878 C3877 1.387 . S
H3879 C3891 0.930 . S
H3880 C3893 0.930 . S
H3881 C3894 0.930 . S
H3882 C3898 0.959 . S
H3883 C3898 0.959 . S
H3884 C3898 0.961 . S
H3885 C3899 0.960 . S
H3886 C3899 0.961 . S
H3887 C3899 0.959 . S
H3888 C3902 0.929 . S
H3889 C3903 0.931 . S
H3890 C3905 0.930 . S
C3891 H3879 0.930 . S
C3891 C3892 1.399 . S
C3891 C3896 1.399 . S
C3892 C3891 1.399 . S
C3892 C3893 1.376 . S
C3893 H3880 0.930 . S
C3893 C3892 1.376 . S
C3893 C3894 1.388 . S
C3894 H3881 0.930 . S
C3894 C3893 1.388 . S
C3894 C3895 1.390 . S
C3895 C3894 1.390 . S
C3895 C3896 1.394 . S
C3895 C3901 1.465 . S
C3896 C3891 1.399 . S
C3896 C3895 1.394 . S
C3896 C3897 1.516 . S
C3897 C3896 1.516 . S
C3897 C3898 1.502 . S
C3897 C3899 1.561 . S
C3897 C3900 1.526 . S
C3898 H3882 0.959 . S
C3898 H3883 0.959 . S
C3898 H3884 0.961 . S
C3898 C3897 1.502 . S
C3899 H3885 0.960 . S
C3899 H3886 0.961 . S
C3899 H3887 0.959 . S
C3899 C3897 1.561 . S
C3900 C3897 1.526 . S
C3900 C3901 1.396 . S
C3900 C3905 1.390 . S
C3901 C3895 1.465 . S
C3901 C3900 1.396 . S
C3901 C3902 1.399 . S
C3902 H3888 0.929 . S
C3902 C3901 1.399 . S
C3902 C3903 1.385 . S
C3903 H3889 0.931 . S
C3903 C3902 1.385 . S
C3903 C3904 1.389 . S
C3904 C3903 1.389 . S
C3904 C3905 1.387 . S
C3905 H3890 0.930 . S
C3905 C3900 1.390 . S
C3905 C3904 1.387 . S
H3906 C3918 0.930 . S
H3907 C3920 0.930 . S
H3908 C3921 0.930 . S
H3909 C3925 0.959 . S
H3910 C3925 0.959 . S
H3911 C3925 0.961 . S
H3912 C3926 0.960 . S
H3913 C3926 0.961 . S
H3914 C3926 0.959 . S
H3915 C3929 0.929 . S
H3916 C3930 0.931 . S
H3917 C3932 0.930 . S
C3918 H3906 0.930 . S
C3918 C3919 1.399 . S
C3918 C3923 1.399 . S
C3919 C3918 1.399 . S
C3919 C3920 1.376 . S
C3920 H3907 0.930 . S
C3920 C3919 1.376 . S
C3920 C3921 1.388 . S
C3921 H3908 0.930 . S
C3921 C3920 1.388 . S
C3921 C3922 1.390 . S
C3922 C3921 1.390 . S
C3922 C3923 1.394 . S
C3922 C3928 1.465 . S
C3923 C3918 1.399 . S
C3923 C3922 1.394 . S
C3923 C3924 1.516 . S
C3924 C3923 1.516 . S
C3924 C3925 1.502 . S
C3924 C3926 1.561 . S
C3924 C3927 1.526 . S
C3925 H3909 0.959 . S
C3925 H3910 0.959 . S
C3925 H3911 0.961 . S
C3925 C3924 1.502 . S
C3926 H3912 0.960 . S
C3926 H3913 0.961 . S
C3926 H3914 0.959 . S
C3926 C3924 1.561 . S
C3927 C3924 1.526 . S
C3927 C3928 1.396 . S
C3927 C3932 1.390 . S
C3928 C3922 1.465 . S
C3928 C3927 1.396 . S
C3928 C3929 1.399 . S
C3929 H3915 0.929 . S
C3929 C3928 1.399 . S
C3929 C3930 1.385 . S
C3930 H3916 0.931 . S
C3930 C3929 1.385 . S
C3930 C3931 1.389 . S
C3931 C3930 1.389 . S
C3931 C3932 1.387 . S
C3932 H3917 0.930 . S
C3932 C3927 1.390 . S
C3932 C3931 1.387 . S
H3933 C3945 0.930 . S
H3934 C3947 0.930 . S
H3935 C3948 0.930 . S
H3936 C3952 0.959 . S
H3937 C3952 0.959 . S
H3938 C3952 0.961 . S
H3939 C3953 0.960 . S
H3940 C3953 0.961 . S
H3941 C3953 0.959 . S
H3942 C3956 0.929 . S
H3943 C3957 0.931 . S
H3944 C3959 0.930 . S
C3945 H3933 0.930 . S
C3945 C3946 1.399 . S
C3945 C3950 1.399 . S
C3946 C3945 1.399 . S
C3946 C3947 1.376 . S
C3947 H3934 0.930 . S
C3947 C3946 1.376 . S
C3947 C3948 1.388 . S
C3948 H3935 0.930 . S
C3948 C3947 1.388 . S
C3948 C3949 1.390 . S
C3949 C3948 1.390 . S
C3949 C3950 1.394 . S
C3949 C3955 1.465 . S
C3950 C3945 1.399 . S
C3950 C3949 1.394 . S
C3950 C3951 1.516 . S
C3951 C3950 1.516 . S
C3951 C3952 1.502 . S
C3951 C3953 1.561 . S
C3951 C3954 1.526 . S
C3952 H3936 0.959 . S
C3952 H3937 0.959 . S
C3952 H3938 0.961 . S
C3952 C3951 1.502 . S
C3953 H3939 0.960 . S
C3953 H3940 0.961 . S
C3953 H3941 0.959 . S
C3953 C3951 1.561 . S
C3954 C3951 1.526 . S
C3954 C3955 1.396 . S
C3954 C3959 1.390 . S
C3955 C3949 1.465 . S
C3955 C3954 1.396 . S
C3955 C3956 1.399 . S
C3956 H3942 0.929 . S
C3956 C3955 1.399 . S
C3956 C3957 1.385 . S
C3957 H3943 0.931 . S
C3957 C3956 1.385 . S
C3957 C3958 1.389 . S
C3958 C3957 1.389 . S
C3958 C3959 1.387 . S
C3959 H3944 0.930 . S
C3959 C3954 1.390 . S
C3959 C3958 1.387 . S
H3960 C3972 0.930 . S
H3961 C3974 0.930 . S
H3962 C3975 0.930 . S
H3963 C3979 0.959 . S
H3964 C3979 0.959 . S
H3965 C3979 0.961 . S
H3966 C3980 0.960 . S
H3967 C3980 0.961 . S
H3968 C3980 0.959 . S
H3969 C3983 0.929 . S
H3970 C3984 0.931 . S
H3971 C3986 0.930 . S
C3972 H3960 0.930 . S
C3972 C3973 1.399 . S
C3972 C3977 1.399 . S
C3973 C3972 1.399 . S
C3973 C3974 1.376 . S
C3974 H3961 0.930 . S
C3974 C3973 1.376 . S
C3974 C3975 1.388 . S
C3975 H3962 0.930 . S
C3975 C3974 1.388 . S
C3975 C3976 1.390 . S
C3976 C3975 1.390 . S
C3976 C3977 1.394 . S
C3976 C3982 1.465 . S
C3977 C3972 1.399 . S
C3977 C3976 1.394 . S
C3977 C3978 1.516 . S
C3978 C3977 1.516 . S
C3978 C3979 1.502 . S
C3978 C3980 1.561 . S
C3978 C3981 1.526 . S
C3979 H3963 0.959 . S
C3979 H3964 0.959 . S
C3979 H3965 0.961 . S
C3979 C3978 1.502 . S
C3980 H3966 0.960 . S
C3980 H3967 0.961 . S
C3980 H3968 0.959 . S
C3980 C3978 1.561 . S
C3981 C3978 1.526 . S
C3981 C3982 1.396 . S
C3981 C3986 1.390 . S
C3982 C3976 1.465 . S
C3982 C3981 1.396 . S
C3982 C3983 1.399 . S
C3983 H3969 0.929 . S
C3983 C3982 1.399 . S
C3983 C3984 1.385 . S
C3984 H3970 0.931 . S
C3984 C3983 1.385 . S
C3984 C3985 1.389 . S
C3985 C3984 1.389 . S
C3985 C3986 1.387 . S
C3986 H3971 0.930 . S
C3986 C3981 1.390 . S
C3986 C3985 1.387 . S
H3987 C3999 0.930 . S
H3988 C4001 0.930 . S
H3989 C4002 0.930 . S
H3990 C4006 0.959 . S
H3991 C4006 0.959 . S
H3992 C4006 0.961 . S
H3993 C4007 0.960 . S
H3994 C4007 0.961 . S
H3995 C4007 0.959 . S
H3996 C4010 0.929 . S
H3997 C4011 0.931 . S
H3998 C4013 0.930 . S
C3999 H3987 0.930 . S
C3999 C4000 1.399 . S
C3999 C4004 1.399 . S
C4000 C3999 1.399 . S
C4000 C4001 1.376 . S
C4001 H3988 0.930 . S
C4001 C4000 1.376 . S
C4001 C4002 1.388 . S
C4002 H3989 0.930 . S
C4002 C4001 1.388 . S
C4002 C4003 1.390 . S
C4003 C4002 1.390 . S
C4003 C4004 1.394 . S
C4003 C4009 1.465 . S
C4004 C3999 1.399 . S
C4004 C4003 1.394 . S
C4004 C4005 1.516 . S
C4005 C4004 1.516 . S
C4005 C4006 1.502 . S
C4005 C4007 1.561 . S
C4005 C4008 1.526 . S
C4006 H3990 0.959 . S
C4006 H3991 0.959 . S
C4006 H3992 0.961 . S
C4006 C4005 1.502 . S
C4007 H3993 0.960 . S
C4007 H3994 0.961 . S
C4007 H3995 0.959 . S
C4007 C4005 1.561 . S
C4008 C4005 1.526 . S
C4008 C4009 1.396 . S
C4008 C4013 1.390 . S
C4009 C4003 1.465 . S
C4009 C4008 1.396 . S
C4009 C4010 1.399 . S
C4010 H3996 0.929 . S
C4010 C4009 1.399 . S
C4010 C4011 1.385 . S
C4011 H3997 0.931 . S
C4011 C4010 1.385 . S
C4011 C4012 1.389 . S
C4012 C4011 1.389 . S
C4012 C4013 1.387 . S
C4013 H3998 0.930 . S
C4013 C4008 1.390 . S
C4013 C4012 1.387 . S
H4014 C4026 0.930 . S
H4015 C4028 0.930 . S
H4016 C4029 0.930 . S
H4017 C4033 0.959 . S
H4018 C4033 0.959 . S
H4019 C4033 0.961 . S
H4020 C4034 0.960 . S
H4021 C4034 0.961 . S
H4022 C4034 0.959 . S
H4023 C4037 0.929 . S
H4024 C4038 0.931 . S
H4025 C4040 0.930 . S
C4026 H4014 0.930 . S
C4026 C4027 1.399 . S
C4026 C4031 1.399 . S
C4027 C4026 1.399 . S
C4027 C4028 1.376 . S
C4028 H4015 0.930 . S
C4028 C4027 1.376 . S
C4028 C4029 1.388 . S
C4029 H4016 0.930 . S
C4029 C4028 1.388 . S
C4029 C4030 1.390 . S
C4030 C4029 1.390 . S
C4030 C4031 1.394 . S
C4030 C4036 1.465 . S
C4031 C4026 1.399 . S
C4031 C4030 1.394 . S
C4031 C4032 1.516 . S
C4032 C4031 1.516 . S
C4032 C4033 1.502 . S
C4032 C4034 1.561 . S
C4032 C4035 1.526 . S
C4033 H4017 0.959 . S
C4033 H4018 0.959 . S
C4033 H4019 0.961 . S
C4033 C4032 1.502 . S
C4034 H4020 0.960 . S
C4034 H4021 0.961 . S
C4034 H4022 0.959 . S
C4034 C4032 1.561 . S
C4035 C4032 1.526 . S
C4035 C4036 1.396 . S
C4035 C4040 1.390 . S
C4036 C4030 1.465 . S
C4036 C4035 1.396 . S
C4036 C4037 1.399 . S
C4037 H4023 0.929 . S
C4037 C4036 1.399 . S
C4037 C4038 1.385 . S
C4038 H4024 0.931 . S
C4038 C4037 1.385 . S
C4038 C4039 1.389 . S
C4039 C4038 1.389 . S
C4039 C4040 1.387 . S
C4040 H4025 0.930 . S
C4040 C4035 1.390 . S
C4040 C4039 1.387 . S
H4041 C4053 0.930 . S
H4042 C4055 0.930 . S
H4043 C4056 0.930 . S
H4044 C4060 0.959 . S
H4045 C4060 0.959 . S
H4046 C4060 0.961 . S
H4047 C4061 0.960 . S
H4048 C4061 0.961 . S
H4049 C4061 0.959 . S
H4050 C4064 0.929 . S
H4051 C4065 0.931 . S
H4052 C4067 0.930 . S
C4053 H4041 0.930 . S
C4053 C4054 1.399 . S
C4053 C4058 1.399 . S
C4054 C4053 1.399 . S
C4054 C4055 1.376 . S
C4055 H4042 0.930 . S
C4055 C4054 1.376 . S
C4055 C4056 1.388 . S
C4056 H4043 0.930 . S
C4056 C4055 1.388 . S
C4056 C4057 1.390 . S
C4057 C4056 1.390 . S
C4057 C4058 1.394 . S
C4057 C4063 1.465 . S
C4058 C4053 1.399 . S
C4058 C4057 1.394 . S
C4058 C4059 1.516 . S
C4059 C4058 1.516 . S
C4059 C4060 1.502 . S
C4059 C4061 1.561 . S
C4059 C4062 1.526 . S
C4060 H4044 0.959 . S
C4060 H4045 0.959 . S
C4060 H4046 0.961 . S
C4060 C4059 1.502 . S
C4061 H4047 0.960 . S
C4061 H4048 0.961 . S
C4061 H4049 0.959 . S
C4061 C4059 1.561 . S
C4062 C4059 1.526 . S
C4062 C4063 1.396 . S
C4062 C4067 1.390 . S
C4063 C4057 1.465 . S
C4063 C4062 1.396 . S
C4063 C4064 1.399 . S
C4064 H4050 0.929 . S
C4064 C4063 1.399 . S
C4064 C4065 1.385 . S
C4065 H4051 0.931 . S
C4065 C4064 1.385 . S
C4065 C4066 1.389 . S
C4066 C4065 1.389 . S
C4066 C4067 1.387 . S
C4067 H4052 0.930 . S
C4067 C4062 1.390 . S
C4067 C4066 1.387 . S
H4068 C4080 0.930 . S
H4069 C4082 0.930 . S
H4070 C4083 0.930 . S
H4071 C4087 0.959 . S
H4072 C4087 0.959 . S
H4073 C4087 0.961 . S
H4074 C4088 0.960 . S
H4075 C4088 0.961 . S
H4076 C4088 0.959 . S
H4077 C4091 0.929 . S
H4078 C4092 0.931 . S
H4079 C4094 0.930 . S
C4080 H4068 0.930 . S
C4080 C4081 1.399 . S
C4080 C4085 1.399 . S
C4081 C4080 1.399 . S
C4081 C4082 1.376 . S
C4082 H4069 0.930 . S
C4082 C4081 1.376 . S
C4082 C4083 1.388 . S
C4083 H4070 0.930 . S
C4083 C4082 1.388 . S
C4083 C4084 1.390 . S
C4084 C4083 1.390 . S
C4084 C4085 1.394 . S
C4084 C4090 1.465 . S
C4085 C4080 1.399 . S
C4085 C4084 1.394 . S
C4085 C4086 1.516 . S
C4086 C4085 1.516 . S
C4086 C4087 1.502 . S
C4086 C4088 1.561 . S
C4086 C4089 1.526 . S
C4087 H4071 0.959 . S
C4087 H4072 0.959 . S
C4087 H4073 0.961 . S
C4087 C4086 1.502 . S
C4088 H4074 0.960 . S
C4088 H4075 0.961 . S
C4088 H4076 0.959 . S
C4088 C4086 1.561 . S
C4089 C4086 1.526 . S
C4089 C4090 1.396 . S
C4089 C4094 1.390 . S
C4090 C4084 1.465 . S
C4090 C4089 1.396 . S
C4090 C4091 1.399 . S
C4091 H4077 0.929 . S
C4091 C4090 1.399 . S
C4091 C4092 1.385 . S
C4092 H4078 0.931 . S
C4092 C4091 1.385 . S
C4092 C4093 1.389 . S
C4093 C4092 1.389 . S
C4093 C4094 1.387 . S
C4094 H4079 0.930 . S
C4094 C4089 1.390 . S
C4094 C4093 1.387 . S
H4095 C4107 0.930 . S
H4096 C4109 0.930 . S
H4097 C4110 0.930 . S
H4098 C4114 0.959 . S
H4099 C4114 0.959 . S
H4100 C4114 0.961 . S
H4101 C4115 0.960 . S
H4102 C4115 0.961 . S
H4103 C4115 0.959 . S
H4104 C4118 0.929 . S
H4105 C4119 0.931 . S
H4106 C4121 0.930 . S
C4107 H4095 0.930 . S
C4107 C4108 1.399 . S
C4107 C4112 1.399 . S
C4108 C4107 1.399 . S
C4108 C4109 1.376 . S
C4109 H4096 0.930 . S
C4109 C4108 1.376 . S
C4109 C4110 1.388 . S
C4110 H4097 0.930 . S
C4110 C4109 1.388 . S
C4110 C4111 1.390 . S
C4111 C4110 1.390 . S
C4111 C4112 1.394 . S
C4111 C4117 1.465 . S
C4112 C4107 1.399 . S
C4112 C4111 1.394 . S
C4112 C4113 1.516 . S
C4113 C4112 1.516 . S
C4113 C4114 1.502 . S
C4113 C4115 1.561 . S
C4113 C4116 1.526 . S
C4114 H4098 0.959 . S
C4114 H4099 0.959 . S
C4114 H4100 0.961 . S
C4114 C4113 1.502 . S
C4115 H4101 0.960 . S
C4115 H4102 0.961 . S
C4115 H4103 0.959 . S
C4115 C4113 1.561 . S
C4116 C4113 1.526 . S
C4116 C4117 1.396 . S
C4116 C4121 1.390 . S
C4117 C4111 1.465 . S
C4117 C4116 1.396 . S
C4117 C4118 1.399 . S
C4118 H4104 0.929 . S
C4118 C4117 1.399 . S
C4118 C4119 1.385 . S
C4119 H4105 0.931 . S
C4119 C4118 1.385 . S
C4119 C4120 1.389 . S
C4120 C4119 1.389 . S
C4120 C4121 1.387 . S
C4121 H4106 0.930 . S
C4121 C4116 1.390 . S
C4121 C4120 1.387 . S
H4122 C4134 0.930 . S
H4123 C4136 0.930 . S
H4124 C4137 0.930 . S
H4125 C4141 0.959 . S
H4126 C4141 0.959 . S
H4127 C4141 0.961 . S
H4128 C4142 0.960 . S
H4129 C4142 0.961 . S
H4130 C4142 0.959 . S
H4131 C4145 0.929 . S
H4132 C4146 0.931 . S
H4133 C4148 0.930 . S
C4134 H4122 0.930 . S
C4134 C4135 1.399 . S
C4134 C4139 1.399 . S
C4135 C4134 1.399 . S
C4135 C4136 1.376 . S
C4136 H4123 0.930 . S
C4136 C4135 1.376 . S
C4136 C4137 1.388 . S
C4137 H4124 0.930 . S
C4137 C4136 1.388 . S
C4137 C4138 1.390 . S
C4138 C4137 1.390 . S
C4138 C4139 1.394 . S
C4138 C4144 1.465 . S
C4139 C4134 1.399 . S
C4139 C4138 1.394 . S
C4139 C4140 1.516 . S
C4140 C4139 1.516 . S
C4140 C4141 1.502 . S
C4140 C4142 1.561 . S
C4140 C4143 1.526 . S
C4141 H4125 0.959 . S
C4141 H4126 0.959 . S
C4141 H4127 0.961 . S
C4141 C4140 1.502 . S
C4142 H4128 0.960 . S
C4142 H4129 0.961 . S
C4142 H4130 0.959 . S
C4142 C4140 1.561 . S
C4143 C4140 1.526 . S
C4143 C4144 1.396 . S
C4143 C4148 1.390 . S
C4144 C4138 1.465 . S
C4144 C4143 1.396 . S
C4144 C4145 1.399 . S
C4145 H4131 0.929 . S
C4145 C4144 1.399 . S
C4145 C4146 1.385 . S
C4146 H4132 0.931 . S
C4146 C4145 1.385 . S
C4146 C4147 1.389 . S
C4147 C4146 1.389 . S
C4147 C4148 1.387 . S
C4148 H4133 0.930 . S
C4148 C4143 1.390 . S
C4148 C4147 1.387 . S
H4149 C4161 0.930 . S
H4150 C4163 0.930 . S
H4151 C4164 0.930 . S
H4152 C4168 0.959 . S
H4153 C4168 0.959 . S
H4154 C4168 0.961 . S
H4155 C4169 0.960 . S
H4156 C4169 0.961 . S
H4157 C4169 0.959 . S
H4158 C4172 0.929 . S
H4159 C4173 0.931 . S
H4160 C4175 0.930 . S
C4161 H4149 0.930 . S
C4161 C4162 1.399 . S
C4161 C4166 1.399 . S
C4162 C4161 1.399 . S
C4162 C4163 1.376 . S
C4163 H4150 0.930 . S
C4163 C4162 1.376 . S
C4163 C4164 1.388 . S
C4164 H4151 0.930 . S
C4164 C4163 1.388 . S
C4164 C4165 1.390 . S
C4165 C4164 1.390 . S
C4165 C4166 1.394 . S
C4165 C4171 1.465 . S
C4166 C4161 1.399 . S
C4166 C4165 1.394 . S
C4166 C4167 1.516 . S
C4167 C4166 1.516 . S
C4167 C4168 1.502 . S
C4167 C4169 1.561 . S
C4167 C4170 1.526 . S
C4168 H4152 0.959 . S
C4168 H4153 0.959 . S
C4168 H4154 0.961 . S
C4168 C4167 1.502 . S
C4169 H4155 0.960 . S
C4169 H4156 0.961 . S
C4169 H4157 0.959 . S
C4169 C4167 1.561 . S
C4170 C4167 1.526 . S
C4170 C4171 1.396 . S
C4170 C4175 1.390 . S
C4171 C4165 1.465 . S
C4171 C4170 1.396 . S
C4171 C4172 1.399 . S
C4172 H4158 0.929 . S
C4172 C4171 1.399 . S
C4172 C4173 1.385 . S
C4173 H4159 0.931 . S
C4173 C4172 1.385 . S
C4173 C4174 1.389 . S
C4174 C4173 1.389 . S
C4174 C4175 1.387 . S
C4175 H4160 0.930 . S
C4175 C4170 1.390 . S
C4175 C4174 1.387 . S
H4176 C4188 0.930 . S
H4177 C4190 0.930 . S
H4178 C4191 0.930 . S
H4179 C4195 0.959 . S
H4180 C4195 0.959 . S
H4181 C4195 0.961 . S
H4182 C4196 0.960 . S
H4183 C4196 0.961 . S
H4184 C4196 0.959 . S
H4185 C4199 0.929 . S
H4186 C4200 0.931 . S
H4187 C4202 0.930 . S
C4188 H4176 0.930 . S
C4188 C4189 1.399 . S
C4188 C4193 1.399 . S
C4189 C4188 1.399 . S
C4189 C4190 1.376 . S
C4190 H4177 0.930 . S
C4190 C4189 1.376 . S
C4190 C4191 1.388 . S
C4191 H4178 0.930 . S
C4191 C4190 1.388 . S
C4191 C4192 1.390 . S
C4192 C4191 1.390 . S
C4192 C4193 1.394 . S
C4192 C4198 1.465 . S
C4193 C4188 1.399 . S
C4193 C4192 1.394 . S
C4193 C4194 1.516 . S
C4194 C4193 1.516 . S
C4194 C4195 1.502 . S
C4194 C4196 1.561 . S
C4194 C4197 1.526 . S
C4195 H4179 0.959 . S
C4195 H4180 0.959 . S
C4195 H4181 0.961 . S
C4195 C4194 1.502 . S
C4196 H4182 0.960 . S
C4196 H4183 0.961 . S
C4196 H4184 0.959 . S
C4196 C4194 1.561 . S
C4197 C4194 1.526 . S
C4197 C4198 1.396 . S
C4197 C4202 1.390 . S
C4198 C4192 1.465 . S
C4198 C4197 1.396 . S
C4198 C4199 1.399 . S
C4199 H4185 0.929 . S
C4199 C4198 1.399 . S
C4199 C4200 1.385 . S
C4200 H4186 0.931 . S
C4200 C4199 1.385 . S
C4200 C4201 1.389 . S
C4201 C4200 1.389 . S
C4201 C4202 1.387 . S
C4202 H4187 0.930 . S
C4202 C4197 1.390 . S
C4202 C4201 1.387 . S
H4203 C4215 0.930 . S
H4204 C4217 0.930 . S
H4205 C4218 0.930 . S
H4206 C4222 0.959 . S
H4207 C4222 0.959 . S
H4208 C4222 0.961 . S
H4209 C4223 0.960 . S
H4210 C4223 0.961 . S
H4211 C4223 0.959 . S
H4212 C4226 0.929 . S
H4213 C4227 0.931 . S
H4214 C4229 0.930 . S
C4215 H4203 0.930 . S
C4215 C4216 1.399 . S
C4215 C4220 1.399 . S
C4216 C4215 1.399 . S
C4216 C4217 1.376 . S
C4217 H4204 0.930 . S
C4217 C4216 1.376 . S
C4217 C4218 1.388 . S
C4218 H4205 0.930 . S
C4218 C4217 1.388 . S
C4218 C4219 1.390 . S
C4219 C4218 1.390 . S
C4219 C4220 1.394 . S
C4219 C4225 1.465 . S
C4220 C4215 1.399 . S
C4220 C4219 1.394 . S
C4220 C4221 1.516 . S
C4221 C4220 1.516 . S
C4221 C4222 1.502 . S
C4221 C4223 1.561 . S
C4221 C4224 1.526 . S
C4222 H4206 0.959 . S
C4222 H4207 0.959 . S
C4222 H4208 0.961 . S
C4222 C4221 1.502 . S
C4223 H4209 0.960 . S
C4223 H4210 0.961 . S
C4223 H4211 0.959 . S
C4223 C4221 1.561 . S
C4224 C4221 1.526 . S
C4224 C4225 1.396 . S
C4224 C4229 1.390 . S
C4225 C4219 1.465 . S
C4225 C4224 1.396 . S
C4225 C4226 1.399 . S
C4226 H4212 0.929 . S
C4226 C4225 1.399 . S
C4226 C4227 1.385 . S
C4227 H4213 0.931 . S
C4227 C4226 1.385 . S
C4227 C4228 1.389 . S
C4228 C4227 1.389 . S
C4228 C4229 1.387 . S
C4229 H4214 0.930 . S
C4229 C4224 1.390 . S
C4229 C4228 1.387 . S
H4230 C4242 0.930 . S
H4231 C4244 0.930 . S
H4232 C4245 0.930 . S
H4233 C4249 0.959 . S
H4234 C4249 0.959 . S
H4235 C4249 0.961 . S
H4236 C4250 0.960 . S
H4237 C4250 0.961 . S
H4238 C4250 0.959 . S
H4239 C4253 0.929 . S
H4240 C4254 0.931 . S
H4241 C4256 0.930 . S
C4242 H4230 0.930 . S
C4242 C4243 1.399 . S
C4242 C4247 1.399 . S
C4243 C4242 1.399 . S
C4243 C4244 1.376 . S
C4244 H4231 0.930 . S
C4244 C4243 1.376 . S
C4244 C4245 1.388 . S
C4245 H4232 0.930 . S
C4245 C4244 1.388 . S
C4245 C4246 1.390 . S
C4246 C4245 1.390 . S
C4246 C4247 1.394 . S
C4246 C4252 1.465 . S
C4247 C4242 1.399 . S
C4247 C4246 1.394 . S
C4247 C4248 1.516 . S
C4248 C4247 1.516 . S
C4248 C4249 1.502 . S
C4248 C4250 1.561 . S
C4248 C4251 1.526 . S
C4249 H4233 0.959 . S
C4249 H4234 0.959 . S
C4249 H4235 0.961 . S
C4249 C4248 1.502 . S
C4250 H4236 0.960 . S
C4250 H4237 0.961 . S
C4250 H4238 0.959 . S
C4250 C4248 1.561 . S
C4251 C4248 1.526 . S
C4251 C4252 1.396 . S
C4251 C4256 1.390 . S
C4252 C4246 1.465 . S
C4252 C4251 1.396 . S
C4252 C4253 1.399 . S
C4253 H4239 0.929 . S
C4253 C4252 1.399 . S
C4253 C4254 1.385 . S
C4254 H4240 0.931 . S
C4254 C4253 1.385 . S
C4254 C4255 1.389 . S
C4255 C4254 1.389 . S
C4255 C4256 1.387 . S
C4256 H4241 0.930 . S
C4256 C4251 1.390 . S
C4256 C4255 1.387 . S
H4257 C4269 0.930 . S
H4258 C4271 0.930 . S
H4259 C4272 0.930 . S
H4260 C4276 0.959 . S
H4261 C4276 0.959 . S
H4262 C4276 0.961 . S
H4263 C4277 0.960 . S
H4264 C4277 0.961 . S
H4265 C4277 0.959 . S
H4266 C4280 0.929 . S
H4267 C4281 0.931 . S
H4268 C4283 0.930 . S
C4269 H4257 0.930 . S
C4269 C4270 1.399 . S
C4269 C4274 1.399 . S
C4270 C4269 1.399 . S
C4270 C4271 1.376 . S
C4271 H4258 0.930 . S
C4271 C4270 1.376 . S
C4271 C4272 1.388 . S
C4272 H4259 0.930 . S
C4272 C4271 1.388 . S
C4272 C4273 1.390 . S
C4273 C4272 1.390 . S
C4273 C4274 1.394 . S
C4273 C4279 1.465 . S
C4274 C4269 1.399 . S
C4274 C4273 1.394 . S
C4274 C4275 1.516 . S
C4275 C4274 1.516 . S
C4275 C4276 1.502 . S
C4275 C4277 1.561 . S
C4275 C4278 1.526 . S
C4276 H4260 0.959 . S
C4276 H4261 0.959 . S
C4276 H4262 0.961 . S
C4276 C4275 1.502 . S
C4277 H4263 0.960 . S
C4277 H4264 0.961 . S
C4277 H4265 0.959 . S
C4277 C4275 1.561 . S
C4278 C4275 1.526 . S
C4278 C4279 1.396 . S
C4278 C4283 1.390 . S
C4279 C4273 1.465 . S
C4279 C4278 1.396 . S
C4279 C4280 1.399 . S
C4280 H4266 0.929 . S
C4280 C4279 1.399 . S
C4280 C4281 1.385 . S
C4281 H4267 0.931 . S
C4281 C4280 1.385 . S
C4281 C4282 1.389 . S
C4282 C4281 1.389 . S
C4282 C4283 1.387 . S
C4283 H4268 0.930 . S
C4283 C4278 1.390 . S
C4283 C4282 1.387 . S
H4284 C4296 0.930 . S
H4285 C4298 0.930 . S
H4286 C4299 0.930 . S
H4287 C4303 0.959 . S
H4288 C4303 0.959 . S
H4289 C4303 0.961 . S
H4290 C4304 0.960 . S
H4291 C4304 0.961 . S
H4292 C4304 0.959 . S
H4293 C4307 0.929 . S
H4294 C4308 0.931 . S
H4295 C4310 0.930 . S
C4296 H4284 0.930 . S
C4296 C4297 1.399 . S
C4296 C4301 1.399 . S
C4297 C4296 1.399 . S
C4297 C4298 1.376 . S
C4298 H4285 0.930 . S
C4298 C4297 1.376 . S
C4298 C4299 1.388 . S
C4299 H4286 0.930 . S
C4299 C4298 1.388 . S
C4299 C4300 1.390 . S
C4300 C4299 1.390 . S
C4300 C4301 1.394 . S
C4300 C4306 1.465 . S
C4301 C4296 1.399 . S
C4301 C4300 1.394 . S
C4301 C4302 1.516 . S
C4302 C4301 1.516 . S
C4302 C4303 1.502 . S
C4302 C4304 1.561 . S
C4302 C4305 1.526 . S
C4303 H4287 0.959 . S
C4303 H4288 0.959 . S
C4303 H4289 0.961 . S
C4303 C4302 1.502 . S
C4304 H4290 0.960 . S
C4304 H4291 0.961 . S
C4304 H4292 0.959 . S
C4304 C4302 1.561 . S
C4305 C4302 1.526 . S
C4305 C4306 1.396 . S
C4305 C4310 1.390 . S
C4306 C4300 1.465 . S
C4306 C4305 1.396 . S
C4306 C4307 1.399 . S
C4307 H4293 0.929 . S
C4307 C4306 1.399 . S
C4307 C4308 1.385 . S
C4308 H4294 0.931 . S
C4308 C4307 1.385 . S
C4308 C4309 1.389 . S
C4309 C4308 1.389 . S
C4309 C4310 1.387 . S
C4310 H4295 0.930 . S
C4310 C4305 1.390 . S
C4310 C4309 1.387 . S
H4311 C4323 0.930 . S
H4312 C4325 0.930 . S
H4313 C4326 0.930 . S
H4314 C4330 0.959 . S
H4315 C4330 0.959 . S
H4316 C4330 0.961 . S
H4317 C4331 0.960 . S
H4318 C4331 0.961 . S
H4319 C4331 0.959 . S
H4320 C4334 0.929 . S
H4321 C4335 0.931 . S
H4322 C4337 0.930 . S
C4323 H4311 0.930 . S
C4323 C4324 1.399 . S
C4323 C4328 1.399 . S
C4324 C4323 1.399 . S
C4324 C4325 1.376 . S
C4325 H4312 0.930 . S
C4325 C4324 1.376 . S
C4325 C4326 1.388 . S
C4326 H4313 0.930 . S
C4326 C4325 1.388 . S
C4326 C4327 1.390 . S
C4327 C4326 1.390 . S
C4327 C4328 1.394 . S
C4327 C4333 1.465 . S
C4328 C4323 1.399 . S
C4328 C4327 1.394 . S
C4328 C4329 1.516 . S
C4329 C4328 1.516 . S
C4329 C4330 1.502 . S
C4329 C4331 1.561 . S
C4329 C4332 1.526 . S
C4330 H4314 0.959 . S
C4330 H4315 0.959 . S
C4330 H4316 0.961 . S
C4330 C4329 1.502 . S
C4331 H4317 0.960 . S
C4331 H4318 0.961 . S
C4331 H4319 0.959 . S
C4331 C4329 1.561 . S
C4332 C4329 1.526 . S
C4332 C4333 1.396 . S
C4332 C4337 1.390 . S
C4333 C4327 1.465 . S
C4333 C4332 1.396 . S
C4333 C4334 1.399 . S
C4334 H4320 0.929 . S
C4334 C4333 1.399 . S
C4334 C4335 1.385 . S
C4335 H4321 0.931 . S
C4335 C4334 1.385 . S
C4335 C4336 1.389 . S
C4336 C4335 1.389 . S
C4336 C4337 1.387 . S
C4337 H4322 0.930 . S
C4337 C4332 1.390 . S
C4337 C4336 1.387 . S
H4338 C4350 0.930 . S
H4339 C4352 0.930 . S
H4340 C4353 0.930 . S
H4341 C4357 0.959 . S
H4342 C4357 0.959 . S
H4343 C4357 0.961 . S
H4344 C4358 0.960 . S
H4345 C4358 0.961 . S
H4346 C4358 0.959 . S
H4347 C4361 0.929 . S
H4348 C4362 0.931 . S
H4349 C4364 0.930 . S
C4350 H4338 0.930 . S
C4350 C4351 1.399 . S
C4350 C4355 1.399 . S
C4351 C4350 1.399 . S
C4351 C4352 1.376 . S
C4352 H4339 0.930 . S
C4352 C4351 1.376 . S
C4352 C4353 1.388 . S
C4353 H4340 0.930 . S
C4353 C4352 1.388 . S
C4353 C4354 1.390 . S
C4354 C4353 1.390 . S
C4354 C4355 1.394 . S
C4354 C4360 1.465 . S
C4355 C4350 1.399 . S
C4355 C4354 1.394 . S
C4355 C4356 1.516 . S
C4356 C4355 1.516 . S
C4356 C4357 1.502 . S
C4356 C4358 1.561 . S
C4356 C4359 1.526 . S
C4357 H4341 0.959 . S
C4357 H4342 0.959 . S
C4357 H4343 0.961 . S
C4357 C4356 1.502 . S
C4358 H4344 0.960 . S
C4358 H4345 0.961 . S
C4358 H4346 0.959 . S
C4358 C4356 1.561 . S
C4359 C4356 1.526 . S
C4359 C4360 1.396 . S
C4359 C4364 1.390 . S
C4360 C4354 1.465 . S
C4360 C4359 1.396 . S
C4360 C4361 1.399 . S
C4361 H4347 0.929 . S
C4361 C4360 1.399 . S
C4361 C4362 1.385 . S
C4362 H4348 0.931 . S
C4362 C4361 1.385 . S
C4362 C4363 1.389 . S
C4363 C4362 1.389 . S
C4363 C4364 1.387 . S
C4364 H4349 0.930 . S
C4364 C4359 1.390 . S
C4364 C4363 1.387 . S
H4365 C4377 0.930 . S
H4366 C4379 0.930 . S
H4367 C4380 0.930 . S
H4368 C4384 0.959 . S
H4369 C4384 0.959 . S
H4370 C4384 0.961 . S
H4371 C4385 0.960 . S
H4372 C4385 0.961 . S
H4373 C4385 0.959 . S
H4374 C4388 0.929 . S
H4375 C4389 0.931 . S
H4376 C4391 0.930 . S
C4377 H4365 0.930 . S
C4377 C4378 1.399 . S
C4377 C4382 1.399 . S
C4378 C4377 1.399 . S
C4378 C4379 1.376 . S
C4379 H4366 0.930 . S
C4379 C4378 1.376 . S
C4379 C4380 1.388 . S
C4380 H4367 0.930 . S
C4380 C4379 1.388 . S
C4380 C4381 1.390 . S
C4381 C4380 1.390 . S
C4381 C4382 1.394 . S
C4381 C4387 1.465 . S
C4382 C4377 1.399 . S
C4382 C4381 1.394 . S
C4382 C4383 1.516 . S
C4383 C4382 1.516 . S
C4383 C4384 1.502 . S
C4383 C4385 1.561 . S
C4383 C4386 1.526 . S
C4384 H4368 0.959 . S
C4384 H4369 0.959 . S
C4384 H4370 0.961 . S
C4384 C4383 1.502 . S
C4385 H4371 0.960 . S
C4385 H4372 0.961 . S
C4385 H4373 0.959 . S
C4385 C4383 1.561 . S
C4386 C4383 1.526 . S
C4386 C4387 1.396 . S
C4386 C4391 1.390 . S
C4387 C4381 1.465 . S
C4387 C4386 1.396 . S
C4387 C4388 1.399 . S
C4388 H4374 0.929 . S
C4388 C4387 1.399 . S
C4388 C4389 1.385 . S
C4389 H4375 0.931 . S
C4389 C4388 1.385 . S
C4389 C4390 1.389 . S
C4390 C4389 1.389 . S
C4390 C4391 1.387 . S
C4391 H4376 0.930 . S
C4391 C4386 1.390 . S
C4391 C4390 1.387 . S
H4392 C4404 0.930 . S
H4393 C4406 0.930 . S
H4394 C4407 0.930 . S
H4395 C4411 0.959 . S
H4396 C4411 0.959 . S
H4397 C4411 0.961 . S
H4398 C4412 0.960 . S
H4399 C4412 0.961 . S
H4400 C4412 0.959 . S
H4401 C4415 0.929 . S
H4402 C4416 0.931 . S
H4403 C4418 0.930 . S
C4404 H4392 0.930 . S
C4404 C4405 1.399 . S
C4404 C4409 1.399 . S
C4405 C4404 1.399 . S
C4405 C4406 1.376 . S
C4406 H4393 0.930 . S
C4406 C4405 1.376 . S
C4406 C4407 1.388 . S
C4407 H4394 0.930 . S
C4407 C4406 1.388 . S
C4407 C4408 1.390 . S
C4408 C4407 1.390 . S
C4408 C4409 1.394 . S
C4408 C4414 1.465 . S
C4409 C4404 1.399 . S
C4409 C4408 1.394 . S
C4409 C4410 1.516 . S
C4410 C4409 1.516 . S
C4410 C4411 1.502 . S
C4410 C4412 1.561 . S
C4410 C4413 1.526 . S
C4411 H4395 0.959 . S
C4411 H4396 0.959 . S
C4411 H4397 0.961 . S
C4411 C4410 1.502 . S
C4412 H4398 0.960 . S
C4412 H4399 0.961 . S
C4412 H4400 0.959 . S
C4412 C4410 1.561 . S
C4413 C4410 1.526 . S
C4413 C4414 1.396 . S
C4413 C4418 1.390 . S
C4414 C4408 1.465 . S
C4414 C4413 1.396 . S
C4414 C4415 1.399 . S
C4415 H4401 0.929 . S
C4415 C4414 1.399 . S
C4415 C4416 1.385 . S
C4416 H4402 0.931 . S
C4416 C4415 1.385 . S
C4416 C4417 1.389 . S
C4417 C4416 1.389 . S
C4417 C4418 1.387 . S
C4418 H4403 0.930 . S
C4418 C4413 1.390 . S
C4418 C4417 1.387 . S
H4419 C4431 0.930 . S
H4420 C4433 0.930 . S
H4421 C4434 0.930 . S
H4422 C4438 0.959 . S
H4423 C4438 0.959 . S
H4424 C4438 0.961 . S
H4425 C4439 0.960 . S
H4426 C4439 0.961 . S
H4427 C4439 0.959 . S
H4428 C4442 0.929 . S
H4429 C4443 0.931 . S
H4430 C4445 0.930 . S
C4431 H4419 0.930 . S
C4431 C4432 1.399 . S
C4431 C4436 1.399 . S
C4432 C4431 1.399 . S
C4432 C4433 1.376 . S
C4433 H4420 0.930 . S
C4433 C4432 1.376 . S
C4433 C4434 1.388 . S
C4434 H4421 0.930 . S
C4434 C4433 1.388 . S
C4434 C4435 1.390 . S
C4435 C4434 1.390 . S
C4435 C4436 1.394 . S
C4435 C4441 1.465 . S
C4436 C4431 1.399 . S
C4436 C4435 1.394 . S
C4436 C4437 1.516 . S
C4437 C4436 1.516 . S
C4437 C4438 1.502 . S
C4437 C4439 1.561 . S
C4437 C4440 1.526 . S
C4438 H4422 0.959 . S
C4438 H4423 0.959 . S
C4438 H4424 0.961 . S
C4438 C4437 1.502 . S
C4439 H4425 0.960 . S
C4439 H4426 0.961 . S
C4439 H4427 0.959 . S
C4439 C4437 1.561 . S
C4440 C4437 1.526 . S
C4440 C4441 1.396 . S
C4440 C4445 1.390 . S
C4441 C4435 1.465 . S
C4441 C4440 1.396 . S
C4441 C4442 1.399 . S
C4442 H4428 0.929 . S
C4442 C4441 1.399 . S
C4442 C4443 1.385 . S
C4443 H4429 0.931 . S
C4443 C4442 1.385 . S
C4443 C4444 1.389 . S
C4444 C4443 1.389 . S
C4444 C4445 1.387 . S
C4445 H4430 0.930 . S
C4445 C4440 1.390 . S
C4445 C4444 1.387 . S
H4446 C4458 0.930 . S
H4447 C4460 0.930 . S
H4448 C4461 0.930 . S
H4449 C4465 0.959 . S
H4450 C4465 0.959 . S
H4451 C4465 0.961 . S
H4452 C4466 0.960 . S
H4453 C4466 0.961 . S
H4454 C4466 0.959 . S
H4455 C4469 0.929 . S
H4456 C4470 0.931 . S
H4457 C4472 0.930 . S
C4458 H4446 0.930 . S
C4458 C4459 1.399 . S
C4458 C4463 1.399 . S
C4459 C4458 1.399 . S
C4459 C4460 1.376 . S
C4460 H4447 0.930 . S
C4460 C4459 1.376 . S
C4460 C4461 1.388 . S
C4461 H4448 0.930 . S
C4461 C4460 1.388 . S
C4461 C4462 1.390 . S
C4462 C4461 1.390 . S
C4462 C4463 1.394 . S
C4462 C4468 1.465 . S
C4463 C4458 1.399 . S
C4463 C4462 1.394 . S
C4463 C4464 1.516 . S
C4464 C4463 1.516 . S
C4464 C4465 1.502 . S
C4464 C4466 1.561 . S
C4464 C4467 1.526 . S
C4465 H4449 0.959 . S
C4465 H4450 0.959 . S
C4465 H4451 0.961 . S
C4465 C4464 1.502 . S
C4466 H4452 0.960 . S
C4466 H4453 0.961 . S
C4466 H4454 0.959 . S
C4466 C4464 1.561 . S
C4467 C4464 1.526 . S
C4467 C4468 1.396 . S
C4467 C4472 1.390 . S
C4468 C4462 1.465 . S
C4468 C4467 1.396 . S
C4468 C4469 1.399 . S
C4469 H4455 0.929 . S
C4469 C4468 1.399 . S
C4469 C4470 1.385 . S
C4470 H4456 0.931 . S
C4470 C4469 1.385 . S
C4470 C4471 1.389 . S
C4471 C4470 1.389 . S
C4471 C4472 1.387 . S
C4472 H4457 0.930 . S
C4472 C4467 1.390 . S
C4472 C4471 1.387 . S
H4473 C4485 0.930 . S
H4474 C4487 0.930 . S
H4475 C4488 0.930 . S
H4476 C4492 0.959 . S
H4477 C4492 0.959 . S
H4478 C4492 0.961 . S
H4479 C4493 0.960 . S
H4480 C4493 0.961 . S
H4481 C4493 0.959 . S
H4482 C4496 0.929 . S
H4483 C4497 0.931 . S
H4484 C4499 0.930 . S
C4485 H4473 0.930 . S
C4485 C4486 1.399 . S
C4485 C4490 1.399 . S
C4486 C4485 1.399 . S
C4486 C4487 1.376 . S
C4487 H4474 0.930 . S
C4487 C4486 1.376 . S
C4487 C4488 1.388 . S
C4488 H4475 0.930 . S
C4488 C4487 1.388 . S
C4488 C4489 1.390 . S
C4489 C4488 1.390 . S
C4489 C4490 1.394 . S
C4489 C4495 1.465 . S
C4490 C4485 1.399 . S
C4490 C4489 1.394 . S
C4490 C4491 1.516 . S
C4491 C4490 1.516 . S
C4491 C4492 1.502 . S
C4491 C4493 1.561 . S
C4491 C4494 1.526 . S
C4492 H4476 0.959 . S
C4492 H4477 0.959 . S
C4492 H4478 0.961 . S
C4492 C4491 1.502 . S
C4493 H4479 0.960 . S
C4493 H4480 0.961 . S
C4493 H4481 0.959 . S
C4493 C4491 1.561 . S
C4494 C4491 1.526 . S
C4494 C4495 1.396 . S
C4494 C4499 1.390 . S
C4495 C4489 1.465 . S
C4495 C4494 1.396 . S
C4495 C4496 1.399 . S
C4496 H4482 0.929 . S
C4496 C4495 1.399 . S
C4496 C4497 1.385 . S
C4497 H4483 0.931 . S
C4497 C4496 1.385 . S
C4497 C4498 1.389 . S
C4498 C4497 1.389 . S
C4498 C4499 1.387 . S
C4499 H4484 0.930 . S
C4499 C4494 1.390 . S
C4499 C4498 1.387 . S
H4500 C4512 0.930 . S
H4501 C4514 0.930 . S
H4502 C4515 0.930 . S
H4503 C4519 0.959 . S
H4504 C4519 0.959 . S
H4505 C4519 0.961 . S
H4506 C4520 0.960 . S
H4507 C4520 0.961 . S
H4508 C4520 0.959 . S
H4509 C4523 0.929 . S
H4510 C4524 0.931 . S
H4511 C4526 0.930 . S
C4512 H4500 0.930 . S
C4512 C4513 1.399 . S
C4512 C4517 1.399 . S
C4513 C4512 1.399 . S
C4513 C4514 1.376 . S
C4514 H4501 0.930 . S
C4514 C4513 1.376 . S
C4514 C4515 1.388 . S
C4515 H4502 0.930 . S
C4515 C4514 1.388 . S
C4515 C4516 1.390 . S
C4516 C4515 1.390 . S
C4516 C4517 1.394 . S
C4516 C4522 1.465 . S
C4517 C4512 1.399 . S
C4517 C4516 1.394 . S
C4517 C4518 1.516 . S
C4518 C4517 1.516 . S
C4518 C4519 1.502 . S
C4518 C4520 1.561 . S
C4518 C4521 1.526 . S
C4519 H4503 0.959 . S
C4519 H4504 0.959 . S
C4519 H4505 0.961 . S
C4519 C4518 1.502 . S
C4520 H4506 0.960 . S
C4520 H4507 0.961 . S
C4520 H4508 0.959 . S
C4520 C4518 1.561 . S
C4521 C4518 1.526 . S
C4521 C4522 1.396 . S
C4521 C4526 1.390 . S
C4522 C4516 1.465 . S
C4522 C4521 1.396 . S
C4522 C4523 1.399 . S
C4523 H4509 0.929 . S
C4523 C4522 1.399 . S
C4523 C4524 1.385 . S
C4524 H4510 0.931 . S
C4524 C4523 1.385 . S
C4524 C4525 1.389 . S
C4525 C4524 1.389 . S
C4525 C4526 1.387 . S
C4526 H4511 0.930 . S
C4526 C4521 1.390 . S
C4526 C4525 1.387 . S
H4527 C4539 0.930 . S
H4528 C4541 0.930 . S
H4529 C4542 0.930 . S
H4530 C4546 0.959 . S
H4531 C4546 0.959 . S
H4532 C4546 0.961 . S
H4533 C4547 0.960 . S
H4534 C4547 0.961 . S
H4535 C4547 0.959 . S
H4536 C4550 0.929 . S
H4537 C4551 0.931 . S
H4538 C4553 0.930 . S
C4539 H4527 0.930 . S
C4539 C4540 1.399 . S
C4539 C4544 1.399 . S
C4540 C4539 1.399 . S
C4540 C4541 1.376 . S
C4541 H4528 0.930 . S
C4541 C4540 1.376 . S
C4541 C4542 1.388 . S
C4542 H4529 0.930 . S
C4542 C4541 1.388 . S
C4542 C4543 1.390 . S
C4543 C4542 1.390 . S
C4543 C4544 1.394 . S
C4543 C4549 1.465 . S
C4544 C4539 1.399 . S
C4544 C4543 1.394 . S
C4544 C4545 1.516 . S
C4545 C4544 1.516 . S
C4545 C4546 1.502 . S
C4545 C4547 1.561 . S
C4545 C4548 1.526 . S
C4546 H4530 0.959 . S
C4546 H4531 0.959 . S
C4546 H4532 0.961 . S
C4546 C4545 1.502 . S
C4547 H4533 0.960 . S
C4547 H4534 0.961 . S
C4547 H4535 0.959 . S
C4547 C4545 1.561 . S
C4548 C4545 1.526 . S
C4548 C4549 1.396 . S
C4548 C4553 1.390 . S
C4549 C4543 1.465 . S
C4549 C4548 1.396 . S
C4549 C4550 1.399 . S
C4550 H4536 0.929 . S
C4550 C4549 1.399 . S
C4550 C4551 1.385 . S
C4551 H4537 0.931 . S
C4551 C4550 1.385 . S
C4551 C4552 1.389 . S
C4552 C4551 1.389 . S
C4552 C4553 1.387 . S
C4553 H4538 0.930 . S
C4553 C4548 1.390 . S
C4553 C4552 1.387 . S
H4554 C4566 0.930 . S
H4555 C4568 0.930 . S
H4556 C4569 0.930 . S
H4557 C4573 0.959 . S
H4558 C4573 0.959 . S
H4559 C4573 0.961 . S
H4560 C4574 0.960 . S
H4561 C4574 0.961 . S
H4562 C4574 0.959 . S
H4563 C4577 0.929 . S
H4564 C4578 0.931 . S
H4565 C4580 0.930 . S
C4566 H4554 0.930 . S
C4566 C4567 1.399 . S
C4566 C4571 1.399 . S
C4567 C4566 1.399 . S
C4567 C4568 1.376 . S
C4568 H4555 0.930 . S
C4568 C4567 1.376 . S
C4568 C4569 1.388 . S
C4569 H4556 0.930 . S
C4569 C4568 1.388 . S
C4569 C4570 1.390 . S
C4570 C4569 1.390 . S
C4570 C4571 1.394 . S
C4570 C4576 1.465 . S
C4571 C4566 1.399 . S
C4571 C4570 1.394 . S
C4571 C4572 1.516 . S
C4572 C4571 1.516 . S
C4572 C4573 1.502 . S
C4572 C4574 1.561 . S
C4572 C4575 1.526 . S
C4573 H4557 0.959 . S
C4573 H4558 0.959 . S
C4573 H4559 0.961 . S
C4573 C4572 1.502 . S
C4574 H4560 0.960 . S
C4574 H4561 0.961 . S
C4574 H4562 0.959 . S
C4574 C4572 1.561 . S
C4575 C4572 1.526 . S
C4575 C4576 1.396 . S
C4575 C4580 1.390 . S
C4576 C4570 1.465 . S
C4576 C4575 1.396 . S
C4576 C4577 1.399 . S
C4577 H4563 0.929 . S
C4577 C4576 1.399 . S
C4577 C4578 1.385 . S
C4578 H4564 0.931 . S
C4578 C4577 1.385 . S
C4578 C4579 1.389 . S
C4579 C4578 1.389 . S
C4579 C4580 1.387 . S
C4580 H4565 0.930 . S
C4580 C4575 1.390 . S
C4580 C4579 1.387 . S
H4581 C4593 0.930 . S
H4582 C4595 0.930 . S
H4583 C4596 0.930 . S
H4584 C4600 0.959 . S
H4585 C4600 0.959 . S
H4586 C4600 0.961 . S
H4587 C4601 0.960 . S
H4588 C4601 0.961 . S
H4589 C4601 0.959 . S
H4590 C4604 0.929 . S
H4591 C4605 0.931 . S
H4592 C4607 0.930 . S
C4593 H4581 0.930 . S
C4593 C4594 1.399 . S
C4593 C4598 1.399 . S
C4594 C4593 1.399 . S
C4594 C4595 1.376 . S
C4595 H4582 0.930 . S
C4595 C4594 1.376 . S
C4595 C4596 1.388 . S
C4596 H4583 0.930 . S
C4596 C4595 1.388 . S
C4596 C4597 1.390 . S
C4597 C4596 1.390 . S
C4597 C4598 1.394 . S
C4597 C4603 1.465 . S
C4598 C4593 1.399 . S
C4598 C4597 1.394 . S
C4598 C4599 1.516 . S
C4599 C4598 1.516 . S
C4599 C4600 1.502 . S
C4599 C4601 1.561 . S
C4599 C4602 1.526 . S
C4600 H4584 0.959 . S
C4600 H4585 0.959 . S
C4600 H4586 0.961 . S
C4600 C4599 1.502 . S
C4601 H4587 0.960 . S
C4601 H4588 0.961 . S
C4601 H4589 0.959 . S
C4601 C4599 1.561 . S
C4602 C4599 1.526 . S
C4602 C4603 1.396 . S
C4602 C4607 1.390 . S
C4603 C4597 1.465 . S
C4603 C4602 1.396 . S
C4603 C4604 1.399 . S
C4604 H4590 0.929 . S
C4604 C4603 1.399 . S
C4604 C4605 1.385 . S
C4605 H4591 0.931 . S
C4605 C4604 1.385 . S
C4605 C4606 1.389 . S
C4606 C4605 1.389 . S
C4606 C4607 1.387 . S
C4607 H4592 0.930 . S
C4607 C4602 1.390 . S
C4607 C4606 1.387 . S
H4608 C4620 0.930 . S
H4609 C4622 0.930 . S
H4610 C4623 0.930 . S
H4611 C4627 0.959 . S
H4612 C4627 0.959 . S
H4613 C4627 0.961 . S
H4614 C4628 0.960 . S
H4615 C4628 0.961 . S
H4616 C4628 0.959 . S
H4617 C4631 0.929 . S
H4618 C4632 0.931 . S
H4619 C4634 0.930 . S
C4620 H4608 0.930 . S
C4620 C4621 1.399 . S
C4620 C4625 1.399 . S
C4621 C4620 1.399 . S
C4621 C4622 1.376 . S
C4622 H4609 0.930 . S
C4622 C4621 1.376 . S
C4622 C4623 1.388 . S
C4623 H4610 0.930 . S
C4623 C4622 1.388 . S
C4623 C4624 1.390 . S
C4624 C4623 1.390 . S
C4624 C4625 1.394 . S
C4624 C4630 1.465 . S
C4625 C4620 1.399 . S
C4625 C4624 1.394 . S
C4625 C4626 1.516 . S
C4626 C4625 1.516 . S
C4626 C4627 1.502 . S
C4626 C4628 1.561 . S
C4626 C4629 1.526 . S
C4627 H4611 0.959 . S
C4627 H4612 0.959 . S
C4627 H4613 0.961 . S
C4627 C4626 1.502 . S
C4628 H4614 0.960 . S
C4628 H4615 0.961 . S
C4628 H4616 0.959 . S
C4628 C4626 1.561 . S
C4629 C4626 1.526 . S
C4629 C4630 1.396 . S
C4629 C4634 1.390 . S
C4630 C4624 1.465 . S
C4630 C4629 1.396 . S
C4630 C4631 1.399 . S
C4631 H4617 0.929 . S
C4631 C4630 1.399 . S
C4631 C4632 1.385 . S
C4632 H4618 0.931 . S
C4632 C4631 1.385 . S
C4632 C4633 1.389 . S
C4633 C4632 1.389 . S
C4633 C4634 1.387 . S
C4634 H4619 0.930 . S
C4634 C4629 1.390 . S
C4634 C4633 1.387 . S
H4635 C4647 0.930 . S
H4636 C4649 0.930 . S
H4637 C4650 0.930 . S
H4638 C4654 0.959 . S
H4639 C4654 0.959 . S
H4640 C4654 0.961 . S
H4641 C4655 0.960 . S
H4642 C4655 0.961 . S
H4643 C4655 0.959 . S
H4644 C4658 0.929 . S
H4645 C4659 0.931 . S
H4646 C4661 0.930 . S
C4647 H4635 0.930 . S
C4647 C4648 1.399 . S
C4647 C4652 1.399 . S
C4648 C4647 1.399 . S
C4648 C4649 1.376 . S
C4649 H4636 0.930 . S
C4649 C4648 1.376 . S
C4649 C4650 1.388 . S
C4650 H4637 0.930 . S
C4650 C4649 1.388 . S
C4650 C4651 1.390 . S
C4651 C4650 1.390 . S
C4651 C4652 1.394 . S
C4651 C4657 1.465 . S
C4652 C4647 1.399 . S
C4652 C4651 1.394 . S
C4652 C4653 1.516 . S
C4653 C4652 1.516 . S
C4653 C4654 1.502 . S
C4653 C4655 1.561 . S
C4653 C4656 1.526 . S
C4654 H4638 0.959 . S
C4654 H4639 0.959 . S
C4654 H4640 0.961 . S
C4654 C4653 1.502 . S
C4655 H4641 0.960 . S
C4655 H4642 0.961 . S
C4655 H4643 0.959 . S
C4655 C4653 1.561 . S
C4656 C4653 1.526 . S
C4656 C4657 1.396 . S
C4656 C4661 1.390 . S
C4657 C4651 1.465 . S
C4657 C4656 1.396 . S
C4657 C4658 1.399 . S
C4658 H4644 0.929 . S
C4658 C4657 1.399 . S
C4658 C4659 1.385 . S
C4659 H4645 0.931 . S
C4659 C4658 1.385 . S
C4659 C4660 1.389 . S
C4660 C4659 1.389 . S
C4660 C4661 1.387 . S
C4661 H4646 0.930 . S
C4661 C4656 1.390 . S
C4661 C4660 1.387 . S
H4662 C4674 0.930 . S
H4663 C4676 0.930 . S
H4664 C4677 0.930 . S
H4665 C4681 0.959 . S
H4666 C4681 0.959 . S
H4667 C4681 0.961 . S
H4668 C4682 0.960 . S
H4669 C4682 0.961 . S
H4670 C4682 0.959 . S
H4671 C4685 0.929 . S
H4672 C4686 0.931 . S
H4673 C4688 0.930 . S
C4674 H4662 0.930 . S
C4674 C4675 1.399 . S
C4674 C4679 1.399 . S
C4675 C4674 1.399 . S
C4675 C4676 1.376 . S
C4676 H4663 0.930 . S
C4676 C4675 1.376 . S
C4676 C4677 1.388 . S
C4677 H4664 0.930 . S
C4677 C4676 1.388 . S
C4677 C4678 1.390 . S
C4678 C4677 1.390 . S
C4678 C4679 1.394 . S
C4678 C4684 1.465 . S
C4679 C4674 1.399 . S
C4679 C4678 1.394 . S
C4679 C4680 1.516 . S
C4680 C4679 1.516 . S
C4680 C4681 1.502 . S
C4680 C4682 1.561 . S
C4680 C4683 1.526 . S
C4681 H4665 0.959 . S
C4681 H4666 0.959 . S
C4681 H4667 0.961 . S
C4681 C4680 1.502 . S
C4682 H4668 0.960 . S
C4682 H4669 0.961 . S
C4682 H4670 0.959 . S
C4682 C4680 1.561 . S
C4683 C4680 1.526 . S
C4683 C4684 1.396 . S
C4683 C4688 1.390 . S
C4684 C4678 1.465 . S
C4684 C4683 1.396 . S
C4684 C4685 1.399 . S
C4685 H4671 0.929 . S
C4685 C4684 1.399 . S
C4685 C4686 1.385 . S
C4686 H4672 0.931 . S
C4686 C4685 1.385 . S
C4686 C4687 1.389 . S
C4687 C4686 1.389 . S
C4687 C4688 1.387 . S
C4688 H4673 0.930 . S
C4688 C4683 1.390 . S
C4688 C4687 1.387 . S
H4689 C4701 0.930 . S
H4690 C4703 0.930 . S
H4691 C4704 0.930 . S
H4692 C4708 0.959 . S
H4693 C4708 0.959 . S
H4694 C4708 0.961 . S
H4695 C4709 0.960 . S
H4696 C4709 0.961 . S
H4697 C4709 0.959 . S
H4698 C4712 0.929 . S
H4699 C4713 0.931 . S
H4700 C4715 0.930 . S
C4701 H4689 0.930 . S
C4701 C4702 1.399 . S
C4701 C4706 1.399 . S
C4702 C4701 1.399 . S
C4702 C4703 1.376 . S
C4703 H4690 0.930 . S
C4703 C4702 1.376 . S
C4703 C4704 1.388 . S
C4704 H4691 0.930 . S
C4704 C4703 1.388 . S
C4704 C4705 1.390 . S
C4705 C4704 1.390 . S
C4705 C4706 1.394 . S
C4705 C4711 1.465 . S
C4706 C4701 1.399 . S
C4706 C4705 1.394 . S
C4706 C4707 1.516 . S
C4707 C4706 1.516 . S
C4707 C4708 1.502 . S
C4707 C4709 1.561 . S
C4707 C4710 1.526 . S
C4708 H4692 0.959 . S
C4708 H4693 0.959 . S
C4708 H4694 0.961 . S
C4708 C4707 1.502 . S
C4709 H4695 0.960 . S
C4709 H4696 0.961 . S
C4709 H4697 0.959 . S
C4709 C4707 1.561 . S
C4710 C4707 1.526 . S
C4710 C4711 1.396 . S
C4710 C4715 1.390 . S
C4711 C4705 1.465 . S
C4711 C4710 1.396 . S
C4711 C4712 1.399 . S
C4712 H4698 0.929 . S
C4712 C4711 1.399 . S
C4712 C4713 1.385 . S
C4713 H4699 0.931 . S
C4713 C4712 1.385 . S
C4713 C4714 1.389 . S
C4714 C4713 1.389 . S
C4714 C4715 1.387 . S
C4715 H4700 0.930 . S
C4715 C4710 1.390 . S
C4715 C4714 1.387 . S
H4716 C4728 0.930 . S
H4717 C4730 0.930 . S
H4718 C4731 0.930 . S
H4719 C4735 0.959 . S
H4720 C4735 0.959 . S
H4721 C4735 0.961 . S
H4722 C4736 0.960 . S
H4723 C4736 0.961 . S
H4724 C4736 0.959 . S
H4725 C4739 0.929 . S
H4726 C4740 0.931 . S
H4727 C4742 0.930 . S
C4728 H4716 0.930 . S
C4728 C4729 1.399 . S
C4728 C4733 1.399 . S
C4729 C4728 1.399 . S
C4729 C4730 1.376 . S
C4730 H4717 0.930 . S
C4730 C4729 1.376 . S
C4730 C4731 1.388 . S
C4731 H4718 0.930 . S
C4731 C4730 1.388 . S
C4731 C4732 1.390 . S
C4732 C4731 1.390 . S
C4732 C4733 1.394 . S
C4732 C4738 1.465 . S
C4733 C4728 1.399 . S
C4733 C4732 1.394 . S
C4733 C4734 1.516 . S
C4734 C4733 1.516 . S
C4734 C4735 1.502 . S
C4734 C4736 1.561 . S
C4734 C4737 1.526 . S
C4735 H4719 0.959 . S
C4735 H4720 0.959 . S
C4735 H4721 0.961 . S
C4735 C4734 1.502 . S
C4736 H4722 0.960 . S
C4736 H4723 0.961 . S
C4736 H4724 0.959 . S
C4736 C4734 1.561 . S
C4737 C4734 1.526 . S
C4737 C4738 1.396 . S
C4737 C4742 1.390 . S
C4738 C4732 1.465 . S
C4738 C4737 1.396 . S
C4738 C4739 1.399 . S
C4739 H4725 0.929 . S
C4739 C4738 1.399 . S
C4739 C4740 1.385 . S
C4740 H4726 0.931 . S
C4740 C4739 1.385 . S
C4740 C4741 1.389 . S
C4741 C4740 1.389 . S
C4741 C4742 1.387 . S
C4742 H4727 0.930 . S
C4742 C4737 1.390 . S
C4742 C4741 1.387 . S
H4743 C4755 0.930 . S
H4744 C4757 0.930 . S
H4745 C4758 0.930 . S
H4746 C4762 0.959 . S
H4747 C4762 0.959 . S
H4748 C4762 0.961 . S
H4749 C4763 0.960 . S
H4750 C4763 0.961 . S
H4751 C4763 0.959 . S
H4752 C4766 0.929 . S
H4753 C4767 0.931 . S
H4754 C4769 0.930 . S
C4755 H4743 0.930 . S
C4755 C4756 1.399 . S
C4755 C4760 1.399 . S
C4756 C4755 1.399 . S
C4756 C4757 1.376 . S
C4757 H4744 0.930 . S
C4757 C4756 1.376 . S
C4757 C4758 1.388 . S
C4758 H4745 0.930 . S
C4758 C4757 1.388 . S
C4758 C4759 1.390 . S
C4759 C4758 1.390 . S
C4759 C4760 1.394 . S
C4759 C4765 1.465 . S
C4760 C4755 1.399 . S
C4760 C4759 1.394 . S
C4760 C4761 1.516 . S
C4761 C4760 1.516 . S
C4761 C4762 1.502 . S
C4761 C4763 1.561 . S
C4761 C4764 1.526 . S
C4762 H4746 0.959 . S
C4762 H4747 0.959 . S
C4762 H4748 0.961 . S
C4762 C4761 1.502 . S
C4763 H4749 0.960 . S
C4763 H4750 0.961 . S
C4763 H4751 0.959 . S
C4763 C4761 1.561 . S
C4764 C4761 1.526 . S
C4764 C4765 1.396 . S
C4764 C4769 1.390 . S
C4765 C4759 1.465 . S
C4765 C4764 1.396 . S
C4765 C4766 1.399 . S
C4766 H4752 0.929 . S
C4766 C4765 1.399 . S
C4766 C4767 1.385 . S
C4767 H4753 0.931 . S
C4767 C4766 1.385 . S
C4767 C4768 1.389 . S
C4768 C4767 1.389 . S
C4768 C4769 1.387 . S
C4769 H4754 0.930 . S
C4769 C4764 1.390 . S
C4769 C4768 1.387 . S
H4770 C4782 0.930 . S
H4771 C4784 0.930 . S
H4772 C4785 0.930 . S
H4773 C4789 0.959 . S
H4774 C4789 0.959 . S
H4775 C4789 0.961 . S
H4776 C4790 0.960 . S
H4777 C4790 0.961 . S
H4778 C4790 0.959 . S
H4779 C4793 0.929 . S
H4780 C4794 0.931 . S
H4781 C4796 0.930 . S
C4782 H4770 0.930 . S
C4782 C4783 1.399 . S
C4782 C4787 1.399 . S
C4783 C4782 1.399 . S
C4783 C4784 1.376 . S
C4784 H4771 0.930 . S
C4784 C4783 1.376 . S
C4784 C4785 1.388 . S
C4785 H4772 0.930 . S
C4785 C4784 1.388 . S
C4785 C4786 1.390 . S
C4786 C4785 1.390 . S
C4786 C4787 1.394 . S
C4786 C4792 1.465 . S
C4787 C4782 1.399 . S
C4787 C4786 1.394 . S
C4787 C4788 1.516 . S
C4788 C4787 1.516 . S
C4788 C4789 1.502 . S
C4788 C4790 1.561 . S
C4788 C4791 1.526 . S
C4789 H4773 0.959 . S
C4789 H4774 0.959 . S
C4789 H4775 0.961 . S
C4789 C4788 1.502 . S
C4790 H4776 0.960 . S
C4790 H4777 0.961 . S
C4790 H4778 0.959 . S
C4790 C4788 1.561 . S
C4791 C4788 1.526 . S
C4791 C4792 1.396 . S
C4791 C4796 1.390 . S
C4792 C4786 1.465 . S
C4792 C4791 1.396 . S
C4792 C4793 1.399 . S
C4793 H4779 0.929 . S
C4793 C4792 1.399 . S
C4793 C4794 1.385 . S
C4794 H4780 0.931 . S
C4794 C4793 1.385 . S
C4794 C4795 1.389 . S
C4795 C4794 1.389 . S
C4795 C4796 1.387 . S
C4796 H4781 0.930 . S
C4796 C4791 1.390 . S
C4796 C4795 1.387 . S
H4797 C4809 0.930 . S
H4798 C4811 0.930 . S
H4799 C4812 0.930 . S
H4800 C4816 0.959 . S
H4801 C4816 0.959 . S
H4802 C4816 0.961 . S
H4803 C4817 0.960 . S
H4804 C4817 0.961 . S
H4805 C4817 0.959 . S
H4806 C4820 0.929 . S
H4807 C4821 0.931 . S
H4808 C4823 0.930 . S
C4809 H4797 0.930 . S
C4809 C4810 1.399 . S
C4809 C4814 1.399 . S
C4810 C4809 1.399 . S
C4810 C4811 1.376 . S
C4811 H4798 0.930 . S
C4811 C4810 1.376 . S
C4811 C4812 1.388 . S
C4812 H4799 0.930 . S
C4812 C4811 1.388 . S
C4812 C4813 1.390 . S
C4813 C4812 1.390 . S
C4813 C4814 1.394 . S
C4813 C4819 1.465 . S
C4814 C4809 1.399 . S
C4814 C4813 1.394 . S
C4814 C4815 1.516 . S
C4815 C4814 1.516 . S
C4815 C4816 1.502 . S
C4815 C4817 1.561 . S
C4815 C4818 1.526 . S
C4816 H4800 0.959 . S
C4816 H4801 0.959 . S
C4816 H4802 0.961 . S
C4816 C4815 1.502 . S
C4817 H4803 0.960 . S
C4817 H4804 0.961 . S
C4817 H4805 0.959 . S
C4817 C4815 1.561 . S
C4818 C4815 1.526 . S
C4818 C4819 1.396 . S
C4818 C4823 1.390 . S
C4819 C4813 1.465 . S
C4819 C4818 1.396 . S
C4819 C4820 1.399 . S
C4820 H4806 0.929 . S
C4820 C4819 1.399 . S
C4820 C4821 1.385 . S
C4821 H4807 0.931 . S
C4821 C4820 1.385 . S
C4821 C4822 1.389 . S
C4822 C4821 1.389 . S
C4822 C4823 1.387 . S
C4823 H4808 0.930 . S
C4823 C4818 1.390 . S
C4823 C4822 1.387 . S
C1597 C282 0.941 . S
C1609 N13 0.975 . S
C1624 C315 0.966 . S
C1636 N46 0.977 . S
C1651 N79 0.973 . S
C1663 C348 0.964 . S
C1678 N112 0.951 . S
C1690 C381 0.945 . S
C1705 N145 0.974 . S
C1717 C414 0.963 . S
C1732 C447 0.964 . S
C1744 N178 0.978 . S
C1759 C480 0.945 . S
C1771 N211 0.977 . S
C1786 N244 0.945 . S
C1798 C513 0.957 . S
C1813 N277 0.949 . S
C1825 C546 0.980 . S
C1840 N310 0.977 . S
C1852 C1569 0.952 . S
C1867 N343 0.952 . S
C1879 C1503 0.980 . S
C1894 N376 0.948 . S
C1906 C1536 0.973 . S
C1921 C579 0.971 . S
C1933 N409 0.945 . S
C1948 C612 0.972 . S
C1960 N442 0.975 . S
C1975 N475 0.950 . S
C1987 C645 0.980 . S
C2002 N508 0.978 . S
C2014 C1470 0.957 . S
C2029 N541 0.976 . S
C2041 C18 0.957 . S
C2056 C150 0.978 . S
C2068 N574 0.946 . S
C2083 N607 0.955 . S
C2095 C183 0.942 . S
C2110 C216 0.949 . S
C2122 N640 0.978 . S
C2137 N673 0.952 . S
C2149 C1041 0.944 . S
C2164 N706 0.966 . S
C2176 C876 0.942 . S
C2191 N739 0.978 . S
C2203 C909 0.956 . S
C2218 N772 0.978 . S
C2230 C843 0.963 . S
C2245 C1074 0.944 . S
C2257 N805 0.977 . S
C2272 C1107 0.949 . S
C2284 N838 0.975 . S
C2299 C1140 0.979 . S
C2311 N871 0.947 . S
C2326 N904 0.964 . S
C2338 C1173 0.941 . S
C2353 C1206 0.943 . S
C2365 N937 0.963 . S
C2380 C1239 0.972 . S
C2392 N970 0.975 . S
C2407 N1003 0.944 . S
C2419 C1272 0.970 . S
C2434 N1036 0.959 . S
C2446 C1305 0.941 . S
C2461 N1069 0.945 . S
C2473 C1338 0.976 . S
C2488 C777 0.969 . S
C2500 N1102 0.976 . S
C2515 C711 0.974 . S
C2527 N1135 0.965 . S
C2542 N1168 0.946 . S
C2554 C744 0.969 . S
C2569 N1201 0.950 . S
C2581 C1371 0.980 . S
C2596 N1234 0.958 . S
C2608 C1404 0.941 . S
C2623 C1437 0.976 . S
C2635 N1267 0.962 . S
C2650 N1300 0.952 . S
C2662 C678 0.977 . S
C2677 C810 0.940 . S
C2689 N1333 0.969 . S
C2704 N1366 0.949 . S
C2716 C942 0.958 . S
C2731 N1399 0.969 . S
C2743 C975 0.978 . S
C2758 C1008 0.980 . S
C2770 N1432 0.949 . S
C2785 N1465 0.957 . S
C2797 C249 0.941 . S
C2812 N1498 0.958 . S
C2824 C84 0.947 . S
C2839 C117 0.946 . S
C2851 N1531 0.973 . S
C2866 C51 0.951 . S
C2878 N1564 0.976 . S
C2893 C21 1.857 . S
C2905 C87 1.846 . S
C2920 C54 1.846 . S
C2932 C120 1.826 . S
C2947 C219 1.825 . S
C2959 C153 1.838 . S
C2974 C186 1.840 . S
C2986 C252 1.829 . S
C3001 C417 1.834 . S
C3013 C285 1.827 . S
C3028 C318 1.831 . S
C3040 C450 1.858 . S
C3055 C483 1.843 . S
C3067 C351 1.824 . S
C3082 C516 1.838 . S
C3094 C384 1.856 . S
C3109 C1440 1.838 . S
C3121 C549 1.825 . S
C3136 C582 1.858 . S
C3148 C714 1.843 . S
C3163 C615 1.825 . S
C3175 C747 1.856 . S
C3190 C648 1.858 . S
C3202 C1341 1.843 . S
C3217 C1572 1.858 . S
C3229 C681 1.832 . S
C3244 C1473 1.858 . S
C3256 C780 1.827 . S
C3271 C879 1.858 . S
C3283 C813 1.839 . S
C3298 C912 1.843 . S
C3310 C846 1.853 . S
C3325 C1011 1.857 . S
C3337 C945 1.846 . S
C3352 C1044 1.835 . S
C3364 C978 1.833 . S
C3379 C1077 1.839 . S
C3391 C1209 1.858 . S
C3406 C1242 1.845 . S
C3418 C1110 1.827 . S
C3433 C1143 1.855 . S
C3445 C1275 1.830 . S
C3460 C1308 1.833 . S
C3472 C1176 1.858 . S
C3487 C1506 1.824 . S
C3499 C1374 1.843 . S
C3514 C1407 1.857 . S
C3526 C1539 1.836 . S
C3541 C436 1.733 . S
C3553 N2 1.586 . S
C3568 C469 1.729 . S
C3580 N35 1.598 . S
C3595 N68 1.670 . S
C3607 C502 1.736 . S
C3622 N101 1.669 . S
C3634 C403 1.740 . S
C3649 N134 1.668 . S
C3661 C1162 1.734 . S
C3676 C1063 1.743 . S
C3688 N167 1.665 . S
C3703 C1096 1.742 . S
C3715 N200 1.592 . S
C3730 N233 1.582 . S
C3742 C1129 1.731 . S
C3757 N266 1.631 . S
C3769 C832 1.745 . S
C3784 C865 1.738 . S
C3796 N299 1.591 . S
C3811 C898 1.734 . S
C3823 N332 1.666 . S
C3838 N365 1.624 . S
C3850 C799 1.731 . S
C3865 N398 1.581 . S
C3877 C238 1.735 . S
C3892 N431 1.616 . S
C3904 C139 1.742 . S
C3919 C172 1.740 . S
C3931 N464 1.665 . S
C3946 N497 1.654 . S
C3958 C205 1.745 . S
C3973 C1525 1.734 . S
C3985 N530 1.583 . S
C4000 N563 1.601 . S
C4012 C1393 1.744 . S
C4027 C1426 1.733 . S
C4039 N596 1.580 . S
C4054 N629 1.626 . S
C4066 C667 1.745 . S
C4081 C568 1.743 . S
C4093 N662 1.666 . S
C4108 N695 1.625 . S
C4120 C766 1.730 . S
C4135 N728 1.670 . S
C4147 C700 1.740 . S
C4162 C1327 1.729 . S
C4174 N761 1.610 . S
C4189 C1228 1.730 . S
C4201 N794 1.649 . S
C4216 C1261 1.730 . S
C4228 N827 1.617 . S
C4243 N860 1.579 . S
C4255 C1294 1.737 . S
C4270 N893 1.670 . S
C4282 C1195 1.741 . S
C4297 C370 1.744 . S
C4309 N926 1.619 . S
C4324 N959 1.580 . S
C4336 C271 1.735 . S
C4351 N992 1.579 . S
C4363 C304 1.738 . S
C4378 N1025 1.579 . S
C4390 C337 1.732 . S
C4405 N1058 1.631 . S
C4417 C40 1.745 . S
C4432 N1091 1.656 . S
C4444 C73 1.745 . S
C4459 N1124 1.617 . S
C4471 C106 1.730 . S
C4486 N1157 1.637 . S
C4498 C7 1.744 . S
C4513 C1030 1.738 . S
C4525 N1190 1.669 . S
C4540 C931 1.735 . S
C4552 N1223 1.655 . S
C4567 N1256 1.617 . S
C4579 C964 1.730 . S
C4594 N1289 1.615 . S
C4606 C997 1.730 . S
C4621 C733 1.739 . S
C4633 N1322 1.667 . S
C4648 N1355 1.616 . S
C4660 C601 1.745 . S
C4675 C634 1.737 . S
C4687 N1388 1.587 . S
C4702 N1421 1.597 . S
C4714 C1459 1.731 . S
C4729 C1360 1.744 . S
C4741 N1454 1.636 . S
C4756 C1558 1.735 . S
C4768 N1487 1.669 . S
C4783 C1492 1.729 . S
C4795 N1520 1.602 . S
C4810 N1553 1.582 . S
C4822 C535 1.736 . S
