# Generated by pormake.
# Topology whz, (6)-cn, num edge types: 1
# Building blocks:
#     Node 0, Type 0, BuildingBlock: UKALOJ_clean_sbu_0, # of connection points: 6
#     Node 1, Type 0, BuildingBlock: UKALOJ_clean_sbu_0, # of connection points: 6
#     Node 2, Type 0, BuildingBlock: UKALOJ_clean_sbu_0, # of connection points: 6
#     Node 3, Type 0, BuildingBlock: UKALOJ_clean_sbu_0, # of connection points: 6
#     Node 4, Type 0, BuildingBlock: UKALOJ_clean_sbu_0, # of connection points: 6
#     Node 5, Type 0, BuildingBlock: UKALOJ_clean_sbu_0, # of connection points: 6
#     Node 6, Type 0, BuildingBlock: UKALOJ_clean_sbu_0, # of connection points: 6
#     Node 7, Type 0, BuildingBlock: UKALOJ_clean_sbu_0, # of connection points: 6
#     Node 8, Type 0, BuildingBlock: UKALOJ_clean_sbu_0, # of connection points: 6
#     Node 9, Type 0, BuildingBlock: UKALOJ_clean_sbu_0, # of connection points: 6
#     Node 10, Type 0, BuildingBlock: UKALOJ_clean_sbu_0, # of connection points: 6
#     Node 11, Type 0, BuildingBlock: UKALOJ_clean_sbu_0, # of connection points: 6
#     Node 12, Type 0, BuildingBlock: UKALOJ_clean_sbu_0, # of connection points: 6
#     Node 13, Type 0, BuildingBlock: UKALOJ_clean_sbu_0, # of connection points: 6
#     Node 14, Type 0, BuildingBlock: UKALOJ_clean_sbu_0, # of connection points: 6
#     Node 15, Type 0, BuildingBlock: UKALOJ_clean_sbu_0, # of connection points: 6
#     Edge 16, Type (0, 0), BuildingBlock: KIFKEQ_clean_linker_1, # of connection points: 2
#     Edge 17, Type (0, 0), BuildingBlock: KIFKEQ_clean_linker_1, # of connection points: 2
#     Edge 18, Type (0, 0), BuildingBlock: KIFKEQ_clean_linker_1, # of connection points: 2
#     Edge 19, Type (0, 0), BuildingBlock: KIFKEQ_clean_linker_1, # of connection points: 2
#     Edge 20, Type (0, 0), BuildingBlock: KIFKEQ_clean_linker_1, # of connection points: 2
#     Edge 21, Type (0, 0), BuildingBlock: KIFKEQ_clean_linker_1, # of connection points: 2
#     Edge 22, Type (0, 0), BuildingBlock: KIFKEQ_clean_linker_1, # of connection points: 2
#     Edge 23, Type (0, 0), BuildingBlock: KIFKEQ_clean_linker_1, # of connection points: 2
#     Edge 24, Type (0, 0), BuildingBlock: KIFKEQ_clean_linker_1, # of connection points: 2
#     Edge 25, Type (0, 0), BuildingBlock: KIFKEQ_clean_linker_1, # of connection points: 2
#     Edge 26, Type (0, 0), BuildingBlock: KIFKEQ_clean_linker_1, # of connection points: 2
#     Edge 27, Type (0, 0), BuildingBlock: KIFKEQ_clean_linker_1, # of connection points: 2
#     Edge 28, Type (0, 0), BuildingBlock: KIFKEQ_clean_linker_1, # of connection points: 2
#     Edge 29, Type (0, 0), BuildingBlock: KIFKEQ_clean_linker_1, # of connection points: 2
#     Edge 30, Type (0, 0), BuildingBlock: KIFKEQ_clean_linker_1, # of connection points: 2
#     Edge 31, Type (0, 0), BuildingBlock: KIFKEQ_clean_linker_1, # of connection points: 2
#     Edge 32, Type (0, 0), BuildingBlock: KIFKEQ_clean_linker_1, # of connection points: 2
#     Edge 33, Type (0, 0), BuildingBlock: KIFKEQ_clean_linker_1, # of connection points: 2
#     Edge 34, Type (0, 0), BuildingBlock: KIFKEQ_clean_linker_1, # of connection points: 2
#     Edge 35, Type (0, 0), BuildingBlock: KIFKEQ_clean_linker_1, # of connection points: 2
#     Edge 36, Type (0, 0), BuildingBlock: KIFKEQ_clean_linker_1, # of connection points: 2
#     Edge 37, Type (0, 0), BuildingBlock: KIFKEQ_clean_linker_1, # of connection points: 2
#     Edge 38, Type (0, 0), BuildingBlock: KIFKEQ_clean_linker_1, # of connection points: 2
#     Edge 39, Type (0, 0), BuildingBlock: KIFKEQ_clean_linker_1, # of connection points: 2
#     Edge 40, Type (0, 0), BuildingBlock: KIFKEQ_clean_linker_1, # of connection points: 2
#     Edge 41, Type (0, 0), BuildingBlock: KIFKEQ_clean_linker_1, # of connection points: 2
#     Edge 42, Type (0, 0), BuildingBlock: KIFKEQ_clean_linker_1, # of connection points: 2
#     Edge 43, Type (0, 0), BuildingBlock: KIFKEQ_clean_linker_1, # of connection points: 2
#     Edge 44, Type (0, 0), BuildingBlock: KIFKEQ_clean_linker_1, # of connection points: 2
#     Edge 45, Type (0, 0), BuildingBlock: KIFKEQ_clean_linker_1, # of connection points: 2
#     Edge 46, Type (0, 0), BuildingBlock: KIFKEQ_clean_linker_1, # of connection points: 2
#     Edge 47, Type (0, 0), BuildingBlock: KIFKEQ_clean_linker_1, # of connection points: 2
#     Edge 48, Type (0, 0), BuildingBlock: KIFKEQ_clean_linker_1, # of connection points: 2
#     Edge 49, Type (0, 0), BuildingBlock: KIFKEQ_clean_linker_1, # of connection points: 2
#     Edge 50, Type (0, 0), BuildingBlock: KIFKEQ_clean_linker_1, # of connection points: 2
#     Edge 51, Type (0, 0), BuildingBlock: KIFKEQ_clean_linker_1, # of connection points: 2
#     Edge 52, Type (0, 0), BuildingBlock: KIFKEQ_clean_linker_1, # of connection points: 2
#     Edge 53, Type (0, 0), BuildingBlock: KIFKEQ_clean_linker_1, # of connection points: 2
#     Edge 54, Type (0, 0), BuildingBlock: KIFKEQ_clean_linker_1, # of connection points: 2
#     Edge 55, Type (0, 0), BuildingBlock: KIFKEQ_clean_linker_1, # of connection points: 2
#     Edge 56, Type (0, 0), BuildingBlock: KIFKEQ_clean_linker_1, # of connection points: 2
#     Edge 57, Type (0, 0), BuildingBlock: KIFKEQ_clean_linker_1, # of connection points: 2
#     Edge 58, Type (0, 0), BuildingBlock: KIFKEQ_clean_linker_1, # of connection points: 2
#     Edge 59, Type (0, 0), BuildingBlock: KIFKEQ_clean_linker_1, # of connection points: 2
#     Edge 60, Type (0, 0), BuildingBlock: KIFKEQ_clean_linker_1, # of connection points: 2
#     Edge 61, Type (0, 0), BuildingBlock: KIFKEQ_clean_linker_1, # of connection points: 2
#     Edge 62, Type (0, 0), BuildingBlock: KIFKEQ_clean_linker_1, # of connection points: 2
#     Edge 63, Type (0, 0), BuildingBlock: KIFKEQ_clean_linker_1, # of connection points: 2
# Relax obj value: 0.341
# Max RMSD: 0.234
# Mean RMSD: 0.234
data_MOF--net-whz--node1-UKALOJ_clean_sbu_0--edge1-KIFKEQ_clean_linker_1
_symmetry_space_group_name_H-M    P1
_symmetry_Int_Tables_number       1
_symmetry_cell_setting            triclinic
loop_
_symmetry_equiv_pos_as_xyz
'x, y, z'
_cell_length_a     41.69638
_cell_length_b     41.747026
_cell_length_c     47.878551
_cell_angle_alpha  89.956598
_cell_angle_beta   89.97536
_cell_angle_gamma 90.107171
loop_
_atom_site_label
_atom_site_type_symbol
_atom_site_fract_x
_atom_site_fract_y
_atom_site_fract_z
_atom_type_partial_charge
Zn0 Zn 0.30834 0.15532 0.12537 0.0
O1 O 0.31245 0.17921 0.16511 0.0
C2 C 0.31318 0.09008 0.15136 0.0
Zn3 Zn 0.26069 0.13516 0.13716 0.0
C4 C 0.29043 0.17323 0.18282 0.0
O5 O 0.26828 0.15387 0.17636 0.0
C6 C 0.27414 0.12002 0.07855 0.0
O7 O 0.23864 0.17833 0.1259 0.0
O8 O 0.2845 0.19702 0.11007 0.0
N9 N 0.2182 0.11732 0.15191 0.0
C10 C 0.18922 0.11178 0.14041 0.0
C11 C 0.18602 0.09883 0.18342 0.0
N12 N 0.21607 0.10927 0.17863 0.0
N13 N 0.1687 0.10014 0.15976 0.0
C14 C 0.37958 0.1824 0.12443 0.0
C15 C 0.38527 0.19206 0.08104 0.0
N16 N 0.3519 0.17379 0.11169 0.0
N17 N 0.35565 0.17987 0.08475 0.0
N18 N 0.40095 0.1941 0.1056 0.0
H19 H 0.37215 0.15683 0.16294 0.0
H20 H 0.37845 0.19925 0.1665 0.0
H21 H 0.41197 0.17355 0.15867 0.0
C22 C 0.38603 0.17755 0.15489 0.0
C23 C 0.18065 0.11939 0.1108 0.0
H24 H 0.19427 0.14059 0.10343 0.0
H25 H 0.15456 0.12404 0.10872 0.0
H26 H 0.18692 0.09861 0.09746 0.0
O27 O 0.25279 0.11737 0.09733 0.0
O28 O 0.30119 0.13252 0.08474 0.0
C29 C 0.25463 0.20077 0.11458 0.0
O30 O 0.33103 0.11287 0.14261 0.0
O31 O 0.28296 0.09277 0.14931 0.0
Zn32 Zn 0.60214 0.55688 0.37286 0.0
O33 O 0.57805 0.55794 0.41235 0.0
C34 C 0.66556 0.56103 0.40115 0.0
Zn35 Zn 0.62328 0.50854 0.38007 0.0
C36 C 0.58139 0.53265 0.42686 0.0
O37 O 0.59916 0.51044 0.41782 0.0
C38 C 0.64198 0.52914 0.32483 0.0
O39 O 0.58285 0.48613 0.36261 0.0
O40 O 0.56128 0.53352 0.35624 0.0
N41 N 0.64099 0.46562 0.39303 0.0
C42 C 0.64721 0.43731 0.38066 0.0
C43 C 0.65551 0.43141 0.42434 0.0
N44 N 0.6463 0.46185 0.42011 0.0
N45 N 0.65622 0.41547 0.39995 0.0
C46 C 0.57449 0.62713 0.37573 0.0
C47 C 0.55849 0.63334 0.3338 0.0
N48 N 0.58263 0.6004 0.36147 0.0
N49 N 0.57278 0.6045 0.33543 0.0
N50 N 0.55923 0.64813 0.35878 0.0
H51 H 0.55719 0.62119 0.41734 0.0
H52 H 0.58101 0.65656 0.4125 0.0
H53 H 0.60003 0.61767 0.41392 0.0
C54 C 0.57866 0.63102 0.40662 0.0
C55 C 0.64291 0.43082 0.35014 0.0
H56 H 0.63684 0.40527 0.3465 0.0
H57 H 0.6657 0.43631 0.33913 0.0
H58 H 0.62391 0.44628 0.34125 0.0
O59 O 0.64686 0.50644 0.34195 0.0
O60 O 0.62515 0.55319 0.33227 0.0
C61 C 0.55929 0.50315 0.35479 0.0
O62 O 0.64379 0.57933 0.3914 0.0
O63 O 0.66278 0.53096 0.39815 0.0
Zn64 Zn 0.20111 0.85277 0.62315 0.0
O65 O 0.19653 0.82782 0.6616 0.0
C66 C 0.19668 0.91633 0.65165 0.0
Zn67 Zn 0.24913 0.87096 0.63632 0.0
C68 C 0.21846 0.83093 0.67984 0.0
O69 O 0.24187 0.84956 0.67517 0.0
C70 C 0.23582 0.88951 0.5779 0.0
O71 O 0.27094 0.8282 0.62284 0.0
O72 O 0.22426 0.81129 0.60744 0.0
N73 N 0.29147 0.8889 0.65106 0.0
C74 C 0.32105 0.89291 0.64017 0.0
C75 C 0.32178 0.91207 0.68142 0.0
N76 N 0.29207 0.9008 0.67667 0.0
N77 N 0.34056 0.90763 0.65885 0.0
C78 C 0.13025 0.82582 0.62218 0.0
C79 C 0.12431 0.8159 0.57887 0.0
N80 N 0.15764 0.83483 0.60917 0.0
N81 N 0.15376 0.82861 0.58228 0.0
N82 N 0.10896 0.81363 0.60358 0.0
H83 H 0.13172 0.80907 0.66431 0.0
H84 H 0.09801 0.83455 0.65657 0.0
H85 H 0.13771 0.85153 0.66061 0.0
C86 C 0.12395 0.83069 0.65267 0.0
C87 C 0.33089 0.88105 0.6119 0.0
H88 H 0.31489 0.86167 0.60456 0.0
H89 H 0.35598 0.87227 0.61234 0.0
H90 H 0.32926 0.90099 0.5967 0.0
O91 O 0.25675 0.89137 0.59711 0.0
O92 O 0.20883 0.87637 0.58324 0.0
C93 C 0.25408 0.80659 0.61125 0.0
O94 O 0.17851 0.89485 0.64115 0.0
O95 O 0.22684 0.91263 0.6505 0.0
Zn96 Zn 0.88348 0.49811 0.88167 0.0
O97 O 0.92448 0.52159 0.86588 0.0
C98 C 0.86609 0.48073 0.82497 0.0
Zn99 Zn 0.90653 0.45128 0.87159 0.0
C100 C 0.94793 0.50598 0.8558 0.0
O101 O 0.94649 0.47558 0.85459 0.0
C102 C 0.84265 0.44418 0.90044 0.0
O103 O 0.93169 0.44928 0.9107 0.0
O104 O 0.90684 0.49424 0.91965 0.0
N105 N 0.92561 0.40798 0.85881 0.0
C106 C 0.9341 0.38074 0.87222 0.0
C107 C 0.94346 0.37364 0.82894 0.0
N108 N 0.93152 0.40338 0.83194 0.0
N109 N 0.94548 0.35879 0.85388 0.0
C110 C 0.85887 0.56894 0.88377 0.0
C111 C 0.85001 0.57376 0.92746 0.0
N112 N 0.86535 0.54045 0.89574 0.0
N113 N 0.85974 0.54355 0.92284 0.0
N114 N 0.84927 0.59022 0.9033 0.0
H115 H 0.88346 0.56177 0.84468 0.0
H116 H 0.8687 0.60206 0.85018 0.0
H117 H 0.84133 0.56999 0.84192 0.0
C118 C 0.86358 0.57623 0.8534 0.0
C119 C 0.9295 0.37525 0.90287 0.0
H120 H 0.95158 0.38268 0.91408 0.0
H121 H 0.92495 0.34954 0.90726 0.0
H122 H 0.90925 0.38972 0.91089 0.0
O123 O 0.86562 0.42774 0.89026 0.0
O124 O 0.84349 0.47447 0.89833 0.0
C125 C 0.92665 0.47288 0.92692 0.0
O126 O 0.86083 0.50228 0.84309 0.0
O127 O 0.88283 0.4563 0.83153 0.0
Zn128 Zn 0.74707 0.87512 0.87294 0.0
O129 O 0.77148 0.834 0.88791 0.0
C130 C 0.72869 0.89054 0.92981 0.0
Zn131 Zn 0.69985 0.85189 0.88172 0.0
C132 C 0.75523 0.80991 0.89602 0.0
O133 O 0.72481 0.81162 0.89651 0.0
C134 C 0.69206 0.91593 0.85503 0.0
O135 O 0.69806 0.82905 0.84183 0.0
O136 O 0.74399 0.85297 0.83434 0.0
N137 N 0.65731 0.83055 0.89388 0.0
C138 C 0.63046 0.82138 0.88017 0.0
C139 C 0.6262 0.80474 0.92211 0.0
N140 N 0.6544 0.82031 0.91994 0.0
N141 N 0.6106 0.80507 0.89748 0.0
C142 C 0.81736 0.90204 0.87142 0.0
C143 C 0.82144 0.91322 0.82807 0.0
N144 N 0.78895 0.89508 0.85942 0.0
N145 N 0.79159 0.90216 0.83254 0.0
N146 N 0.83812 0.91341 0.85211 0.0
H147 H 0.81087 0.87575 0.90976 0.0
H148 H 0.85103 0.89121 0.90429 0.0
H149 H 0.81884 0.91778 0.91378 0.0
C150 C 0.82508 0.89612 0.90153 0.0
C151 C 0.62536 0.82576 0.84945 0.0
H152 H 0.63569 0.80492 0.83827 0.0
H153 H 0.59951 0.82705 0.84428 0.0
H154 H 0.63758 0.84779 0.84204 0.0
O155 O 0.67545 0.89281 0.8648 0.0
O156 O 0.72241 0.91503 0.85709 0.0
C157 C 0.72213 0.83414 0.82613 0.0
O158 O 0.75041 0.89663 0.91198 0.0
O159 O 0.70451 0.87359 0.92274 0.0
Zn160 Zn 0.38351 0.49542 0.62036 0.0
O161 O 0.42466 0.52027 0.63362 0.0
C162 C 0.36633 0.48008 0.67876 0.0
Zn163 Zn 0.40625 0.44958 0.63376 0.0
C164 C 0.44752 0.50588 0.64585 0.0
O165 O 0.44543 0.47592 0.6504 0.0
C166 C 0.343 0.43999 0.60486 0.0
O167 O 0.4318 0.44738 0.59554 0.0
O168 O 0.40537 0.48974 0.58141 0.0
N169 N 0.42729 0.40744 0.64741 0.0
C170 C 0.43705 0.38044 0.63431 0.0
C171 C 0.45193 0.37683 0.67677 0.0
N172 N 0.43646 0.40493 0.6738 0.0
N173 N 0.45263 0.36088 0.65233 0.0
C174 C 0.35694 0.56553 0.61695 0.0
C175 C 0.34495 0.5683 0.57371 0.0
N176 N 0.36371 0.53682 0.60552 0.0
N177 N 0.35619 0.53866 0.57868 0.0
N178 N 0.34511 0.58562 0.59739 0.0
H179 H 0.36965 0.6002 0.64839 0.0
H180 H 0.34172 0.56984 0.6593 0.0
H181 H 0.38343 0.55986 0.65534 0.0
C182 C 0.36357 0.57439 0.6467 0.0
C183 C 0.43408 0.37493 0.60351 0.0
H184 H 0.45549 0.38512 0.59295 0.0
H185 H 0.43295 0.34906 0.59855 0.0
H186 H 0.41244 0.38701 0.5952 0.0
O187 O 0.36642 0.42419 0.61507 0.0
O188 O 0.34331 0.47034 0.60625 0.0
C189 C 0.42629 0.46838 0.57693 0.0
O190 O 0.36261 0.50113 0.65983 0.0
O191 O 0.38179 0.45455 0.67313 0.0
Zn192 Zn 0.80785 0.15607 0.38196 0.0
O193 O 0.80796 0.17902 0.34206 0.0
C194 C 0.81777 0.09246 0.3555 0.0
Zn195 Zn 0.76113 0.13164 0.37343 0.0
C196 C 0.78389 0.17337 0.32643 0.0
O197 O 0.76287 0.15336 0.33439 0.0
C198 C 0.7806 0.11726 0.43051 0.0
O199 O 0.73538 0.17206 0.38787 0.0
O200 O 0.78152 0.19534 0.39694 0.0
N201 N 0.72026 0.10873 0.36098 0.0
C202 C 0.68963 0.10804 0.37003 0.0
C203 C 0.69264 0.07699 0.33478 0.0
N204 N 0.72196 0.08949 0.33905 0.0
N205 N 0.67185 0.08834 0.35384 0.0
C206 C 0.87656 0.18904 0.3808 0.0
C207 C 0.88125 0.20198 0.42366 0.0
N208 N 0.84989 0.17858 0.39413 0.0
N209 N 0.85307 0.1866 0.42074 0.0
N210 N 0.89665 0.20385 0.39897 0.0
H211 H 0.86735 0.20697 0.3399 0.0
H212 H 0.90655 0.18992 0.34374 0.0
H213 H 0.87153 0.16422 0.34177 0.0
C214 C 0.88107 0.18726 0.34981 0.0
C215 C 0.67774 0.12526 0.39541 0.0
H216 H 0.66879 0.1492 0.3891 0.0
H217 H 0.65771 0.11188 0.40531 0.0
H218 H 0.69738 0.12859 0.41074 0.0
O219 O 0.75876 0.11075 0.41294 0.0
O220 O 0.8045 0.13434 0.42302 0.0
C221 C 0.75106 0.19646 0.39611 0.0
O222 O 0.83377 0.11622 0.36476 0.0
O223 O 0.78748 0.09242 0.35807 0.0
Zn224 Zn 0.12559 0.51307 0.11885 0.0
O225 O 0.08326 0.49004 0.1323 0.0
C226 C 0.14174 0.52877 0.17711 0.0
Zn227 Zn 0.10293 0.55935 0.1313 0.0
C228 C 0.06009 0.50498 0.14364 0.0
O229 O 0.06217 0.53511 0.14747 0.0
C230 C 0.16774 0.56678 0.10357 0.0
O231 O 0.07912 0.56214 0.09224 0.0
O232 O 0.10424 0.51837 0.07953 0.0
N233 N 0.08561 0.60361 0.14362 0.0
C234 C 0.05948 0.62124 0.13706 0.0
C235 C 0.08761 0.64893 0.16527 0.0
N236 N 0.10294 0.62098 0.16116 0.0
N237 N 0.06028 0.64993 0.15029 0.0
C238 C 0.15011 0.44203 0.11664 0.0
C239 C 0.16879 0.44072 0.07521 0.0
N240 N 0.14515 0.47111 0.10514 0.0
N241 N 0.1568 0.47017 0.07944 0.0
N242 N 0.16509 0.42245 0.09821 0.0
H243 H 0.11891 0.44822 0.15225 0.0
H244 H 0.13125 0.40742 0.14583 0.0
H245 H 0.159 0.43623 0.1603 0.0
C246 C 0.13898 0.43286 0.14532 0.0
C247 C 0.03252 0.60948 0.11913 0.0
H248 H 0.02974 0.58318 0.12136 0.0
H249 H 0.00967 0.62139 0.12483 0.0
H250 H 0.03801 0.61496 0.09695 0.0
O251 O 0.14436 0.58284 0.1134 0.0
O252 O 0.16675 0.53648 0.10471 0.0
C253 C 0.08418 0.54032 0.07425 0.0
O254 O 0.14616 0.50755 0.15851 0.0
O255 O 0.12579 0.55386 0.17118 0.0
Zn256 Zn 0.80649 0.65664 0.62205 0.0
O257 O 0.80881 0.68185 0.66035 0.0
C258 C 0.81364 0.5934 0.65057 0.0
Zn259 Zn 0.75927 0.63573 0.63437 0.0
C260 C 0.78687 0.67736 0.67837 0.0
O261 O 0.76459 0.65752 0.67335 0.0
C262 C 0.77559 0.61769 0.57659 0.0
O263 O 0.73535 0.67712 0.62073 0.0
O264 O 0.78109 0.69638 0.60524 0.0
N265 N 0.7178 0.6156 0.6487 0.0
C266 C 0.6883 0.61074 0.63796 0.0
C267 C 0.6881 0.59242 0.67953 0.0
N268 N 0.71756 0.60414 0.67448 0.0
N269 N 0.66912 0.59612 0.65699 0.0
C270 C 0.87605 0.68691 0.62203 0.0
C271 C 0.88001 0.70201 0.57965 0.0
N272 N 0.84911 0.67717 0.60874 0.0
N273 N 0.85184 0.68647 0.58239 0.0
N274 N 0.89578 0.70263 0.60419 0.0
H275 H 0.87139 0.70509 0.66345 0.0
H276 H 0.9073 0.68237 0.65782 0.0
H277 H 0.86906 0.66209 0.661 0.0
C278 C 0.8814 0.6837 0.65283 0.0
C279 C 0.67833 0.62153 0.60939 0.0
H280 H 0.69405 0.64092 0.60158 0.0
H281 H 0.6531 0.62994 0.60955 0.0
H282 H 0.68044 0.60112 0.59467 0.0
O283 O 0.7538 0.61461 0.59497 0.0
O284 O 0.80134 0.6327 0.58257 0.0
C285 C 0.75099 0.69938 0.60878 0.0
O286 O 0.83103 0.61595 0.64075 0.0
O287 O 0.78339 0.59553 0.64872 0.0
Zn288 Zn 0.10449 0.05864 0.87478 0.0
O289 O 0.08295 0.06132 0.91554 0.0
C290 C 0.17041 0.06203 0.90064 0.0
Zn291 Zn 0.12576 0.01063 0.88333 0.0
C292 C 0.08719 0.03688 0.93104 0.0
O293 O 0.10489 0.01436 0.92243 0.0
C294 C 0.1408 0.02807 0.82597 0.0
O295 O 0.0823 0.98987 0.86891 0.0
O296 O 0.0619 0.03742 0.86031 0.0
N297 N 0.14343 0.96745 0.8956 0.0
C298 C 0.14673 0.93845 0.88357 0.0
C299 C 0.16498 0.93496 0.92505 0.0
N300 N 0.15482 0.96516 0.92131 0.0
N301 N 0.16029 0.91756 0.90172 0.0
C302 C 0.06301 0.12203 0.8713 0.0
C303 C 0.09118 0.14957 0.84294 0.0
N304 N 0.08861 0.10395 0.86411 0.0
N305 N 0.10599 0.12124 0.84651 0.0
N306 N 0.06417 0.15089 0.85835 0.0
H307 H 0.03342 0.08431 0.88812 0.0
H308 H 0.01332 0.12241 0.88386 0.0
H309 H 0.04188 0.1168 0.91165 0.0
C310 C 0.03622 0.11066 0.88966 0.0
C311 C 0.13542 0.93068 0.85465 0.0
H312 H 0.11642 0.9474 0.84784 0.0
H313 H 0.12623 0.90574 0.85362 0.0
H314 H 0.1558 0.9332 0.8399 0.0
O315 O 0.1461 0.00631 0.84388 0.0
O316 O 0.12499 0.05294 0.83308 0.0
C317 C 0.05883 0.00711 0.86101 0.0
O318 O 0.14783 0.07947 0.89122 0.0
O319 O 0.16794 0.03183 0.89871 0.0
Zn320 Zn 0.74934 0.37272 0.13916 0.0
O321 O 0.76948 0.32875 0.12817 0.0
C322 C 0.73757 0.38823 0.07952 0.0
Zn323 Zn 0.70151 0.35473 0.12534 0.0
C324 C 0.75327 0.30726 0.11574 0.0
O325 O 0.72379 0.31221 0.11015 0.0
C326 C 0.69865 0.41997 0.15175 0.0
O327 O 0.69612 0.33158 0.16477 0.0
O328 O 0.74075 0.35415 0.17893 0.0
N329 N 0.65633 0.33927 0.11266 0.0
C330 C 0.63796 0.31357 0.11926 0.0
C331 C 0.61071 0.34258 0.09147 0.0
N332 N 0.63923 0.35715 0.09537 0.0
N333 N 0.60907 0.31521 0.10637 0.0
C334 C 0.82193 0.39308 0.14315 0.0
C335 C 0.82224 0.41435 0.18359 0.0
N336 N 0.79208 0.39012 0.15373 0.0
N337 N 0.79245 0.40329 0.17886 0.0
N338 N 0.84135 0.40847 0.16149 0.0
H339 H 0.81594 0.3599 0.10896 0.0
H340 H 0.85706 0.37072 0.11658 0.0
H341 H 0.83069 0.39876 0.09956 0.0
C342 C 0.83202 0.37961 0.11554 0.0
C343 C 0.64912 0.28613 0.13689 0.0
H344 H 0.6754 0.28299 0.13487 0.0
H345 H 0.63688 0.2636 0.13075 0.0
H346 H 0.64343 0.29121 0.15909 0.0
O347 O 0.68033 0.39799 0.14236 0.0
O348 O 0.72873 0.41597 0.15077 0.0
C349 C 0.7173 0.33556 0.18357 0.0
O350 O 0.75831 0.38995 0.09892 0.0
O351 O 0.7098 0.37689 0.08494 0.0
Zn352 Zn 0.38145 0.99695 0.38207 0.0
O353 O 0.42176 0.02385 0.36855 0.0
C354 C 0.36774 0.97689 0.32437 0.0
Zn355 Zn 0.407 0.95135 0.37247 0.0
C356 C 0.44587 0.00924 0.3585 0.0
O357 O 0.44525 0.97889 0.35644 0.0
C358 C 0.34356 0.93917 0.39914 0.0
O359 O 0.43017 0.95288 0.41228 0.0
O360 O 0.40195 0.99584 0.42155 0.0
N361 N 0.43124 0.91011 0.36151 0.0
C362 C 0.44027 0.8837 0.37585 0.0
C363 C 0.45867 0.87911 0.3345 0.0
N364 N 0.44266 0.90706 0.33584 0.0
N365 N 0.45756 0.8639 0.3593 0.0
C366 C 0.35667 0.06796 0.38699 0.0
C367 C 0.32139 0.06192 0.41888 0.0
N368 N 0.35638 0.03669 0.39408 0.0
N369 N 0.33448 0.03312 0.41389 0.0
N370 N 0.33479 0.08425 0.40228 0.0
H371 H 0.40473 0.08135 0.37707 0.0
H372 H 0.37571 0.10791 0.36261 0.0
H373 H 0.38134 0.06841 0.34767 0.0
C374 C 0.38064 0.08247 0.36732 0.0
C375 C 0.43509 0.8792 0.40658 0.0
H376 H 0.4558 0.88966 0.41794 0.0
H377 H 0.43352 0.85353 0.41221 0.0
H378 H 0.41305 0.89163 0.41351 0.0
O379 O 0.36805 0.92411 0.39022 0.0
O380 O 0.34254 0.96935 0.39643 0.0
C381 C 0.42322 0.9758 0.42872 0.0
O382 O 0.36164 0.99876 0.34201 0.0
O383 O 0.38486 0.95299 0.33163 0.0
Zn384 Zn 0.24943 0.37297 0.36704 0.0
O385 O 0.26897 0.32971 0.38073 0.0
C386 C 0.23694 0.39162 0.42549 0.0
Zn387 Zn 0.20149 0.35515 0.38058 0.0
C388 C 0.25241 0.30824 0.39288 0.0
O389 O 0.22266 0.31298 0.39736 0.0
C390 C 0.19982 0.41946 0.35156 0.0
O391 O 0.19589 0.33021 0.34213 0.0
O392 O 0.24112 0.35176 0.32834 0.0
N393 N 0.15599 0.34144 0.39331 0.0
C394 C 0.13716 0.31581 0.38766 0.0
C395 C 0.10978 0.34761 0.41288 0.0
N396 N 0.13883 0.36106 0.40902 0.0
N397 N 0.10785 0.31922 0.39957 0.0
C398 C 0.32192 0.3927 0.3625 0.0
C399 C 0.32477 0.40355 0.31903 0.0
N400 N 0.2926 0.3876 0.35155 0.0
N401 N 0.29453 0.39428 0.32454 0.0
N402 N 0.34245 0.40278 0.3425 0.0
H403 H 0.31481 0.36786 0.40152 0.0
H404 H 0.35609 0.37831 0.39373 0.0
H405 H 0.3283 0.40876 0.40435 0.0
C406 C 0.33077 0.38628 0.39226 0.0
C407 C 0.14824 0.28688 0.3719 0.0
H408 H 0.1744 0.28343 0.37454 0.0
H409 H 0.13546 0.26508 0.37918 0.0
H410 H 0.14322 0.29031 0.34934 0.0
O411 O 0.18135 0.39809 0.36182 0.0
O412 O 0.22987 0.41541 0.35278 0.0
C413 C 0.21763 0.33332 0.32372 0.0
O414 O 0.25791 0.39328 0.40625 0.0
O415 O 0.20978 0.37883 0.42018 0.0
Zn416 Zn 0.90437 0.95057 0.13138 0.0
O417 O 0.92954 0.94609 0.09275 0.0
C418 C 0.84106 0.94427 0.10334 0.0
Zn419 Zn 0.88555 0.99809 0.11797 0.0
C420 C 0.92635 0.96811 0.07457 0.0
O421 O 0.90752 0.99125 0.07933 0.0
C422 C 0.86696 0.98499 0.17634 0.0
O423 O 0.92731 0.02159 0.13165 0.0
O424 O 0.94532 0.9752 0.14678 0.0
N425 N 0.86611 0.03917 0.10261 0.0
C426 C 0.86334 0.06951 0.11191 0.0
C427 C 0.83677 0.06618 0.07393 0.0
N428 N 0.84978 0.03731 0.07893 0.0
N429 N 0.84504 0.08682 0.09424 0.0
C430 C 0.93114 0.87988 0.13332 0.0
C431 C 0.94071 0.87447 0.17675 0.0
N432 N 0.92287 0.90768 0.14589 0.0
N433 N 0.92888 0.90414 0.17286 0.0
N434 N 0.94255 0.85863 0.15227 0.0
H435 H 0.90588 0.88722 0.0946 0.0
H436 H 0.9482 0.88019 0.09127 0.0
H437 H 0.92174 0.84727 0.09935 0.0
C438 C 0.92627 0.87315 0.10289 0.0
C439 C 0.87681 0.08166 0.1389 0.0
H440 H 0.88609 0.06193 0.15202 0.0
H441 H 0.89677 0.09849 0.13436 0.0
H442 H 0.85812 0.0951 0.1505 0.0
O443 O 0.86456 0.00545 0.15683 0.0
O444 O 0.88063 0.95827 0.17133 0.0
C445 C 0.94929 0.00519 0.14321 0.0
O446 O 0.86275 0.92655 0.11392 0.0
O447 O 0.84463 0.97439 0.10395 0.0
Zn448 Zn 0.30603 0.65389 0.87878 0.0
O449 O 0.30934 0.67672 0.83872 0.0
C450 C 0.31558 0.58838 0.85474 0.0
Zn451 Zn 0.26047 0.6308 0.866 0.0
C452 C 0.28888 0.66879 0.82023 0.0
O453 O 0.26814 0.64761 0.82599 0.0
C454 C 0.27285 0.61887 0.92559 0.0
O455 O 0.23617 0.67378 0.8746 0.0
O456 O 0.27992 0.69432 0.89287 0.0
N457 N 0.21958 0.60945 0.85174 0.0
C458 C 0.18925 0.60692 0.8613 0.0
C459 C 0.1912 0.58298 0.82202 0.0
N460 N 0.22067 0.59451 0.82739 0.0
N461 N 0.17091 0.5903 0.84296 0.0
C462 C 0.37549 0.68407 0.87922 0.0
C463 C 0.38016 0.69681 0.92209 0.0
N464 N 0.34804 0.6752 0.89217 0.0
N465 N 0.3511 0.68322 0.91878 0.0
N466 N 0.39603 0.69785 0.89757 0.0
H467 H 0.37502 0.69849 0.83643 0.0
H468 H 0.4087 0.67378 0.84588 0.0
H469 H 0.36927 0.65625 0.8417 0.0
C470 C 0.38263 0.67757 0.84909 0.0
C471 C 0.1776 0.62187 0.88788 0.0
H472 H 0.19388 0.64104 0.89512 0.0
H473 H 0.15312 0.63174 0.88505 0.0
H474 H 0.17678 0.60333 0.90444 0.0
O475 O 0.25218 0.61492 0.90643 0.0
O476 O 0.29961 0.63212 0.91964 0.0
C477 C 0.25038 0.69687 0.88665 0.0
O478 O 0.33146 0.61276 0.86292 0.0
O479 O 0.28523 0.58882 0.85635 0.0
Zn480 Zn 0.62449 0.01069 0.61668 0.0
O481 O 0.58293 0.98606 0.62826 0.0
C482 C 0.64154 0.02281 0.6759 0.0
Zn483 Zn 0.60416 0.05694 0.63147 0.0
C484 C 0.56077 1.00063 0.64125 0.0
O485 O 0.564 0.03029 0.6469 0.0
C486 C 0.66782 0.06577 0.60404 0.0
O487 O 0.57916 0.06126 0.59295 0.0
O488 O 0.60392 0.01845 0.57754 0.0
N489 N 0.58373 0.09889 0.6462 0.0
C490 C 0.57442 0.12642 0.63369 0.0
C491 C 0.56307 0.13061 0.67689 0.0
N492 N 0.57659 0.10166 0.67303 0.0
N493 N 0.56118 0.14671 0.65253 0.0
C494 C 0.64621 0.9393 0.60921 0.0
C495 C 0.67624 0.94396 0.57336 0.0
N496 N 0.64523 0.97024 0.60117 0.0
N497 N 0.66376 0.97296 0.57881 0.0
N498 N 0.66549 0.92238 0.59203 0.0
H499 H 0.62393 0.94532 0.64964 0.0
H500 H 0.60692 0.91453 0.62798 0.0
H501 H 0.64483 0.90772 0.64478 0.0
C502 C 0.62967 0.92611 0.63453 0.0
C503 C 0.57998 0.13388 0.60347 0.0
H504 H 0.55865 0.12632 0.59126 0.0
H505 H 0.58371 0.15996 0.60035 0.0
H506 H 0.60109 0.12069 0.59544 0.0
O507 O 0.64514 0.08264 0.61417 0.0
O508 O 0.66535 0.03554 0.60453 0.0
C509 C 0.58383 0.04079 0.57373 0.0
O510 O 0.644 1.00258 0.65621 0.0
O511 O 0.62801 0.04965 0.67111 0.0
H512 H 0.32067 0.22937 0.19782 0.0
H513 H 0.24779 0.16221 0.22438 0.0
H514 H 0.3015 0.26768 0.23254 0.0
H515 H 0.22706 0.20083 0.25687 0.0
H516 H 0.20724 0.26973 0.32726 0.0
H517 H 0.22957 0.22921 0.29677 0.0
H518 H 0.25965 0.30318 0.23889 0.0
H519 H 0.23949 0.34377 0.27098 0.0
C520 C 0.301 0.22256 0.21139 0.0
C521 C 0.28559 0.1929 0.20812 0.0
C522 C 0.28946 0.24478 0.23088 0.0
C523 C 0.262 0.23791 0.24711 0.0
C524 C 0.24825 0.20726 0.24507 0.0
C525 C 0.26018 0.18496 0.22619 0.0
C526 C 0.21769 0.27719 0.30757 0.0
C527 C 0.22121 0.30978 0.3012 0.0
C528 C 0.23083 0.25393 0.29007 0.0
C529 C 0.24698 0.2627 0.26533 0.0
C530 C 0.2484 0.2954 0.25812 0.0
C531 C 0.2361 0.31869 0.27609 0.0
H532 H 0.48873 0.45062 0.57387 0.0
H533 H 0.41366 0.49768 0.52735 0.0
H534 H 0.52805 0.46905 0.54006 0.0
H535 H 0.45269 0.51464 0.49239 0.0
H536 H 0.53224 0.56857 0.44913 0.0
H537 H 0.49485 0.55168 0.48571 0.0
H538 H 0.54771 0.46331 0.49545 0.0
H539 H 0.58564 0.48089 0.46075 0.0
C540 C 0.4805 0.46392 0.55581 0.0
C541 C 0.44817 0.47258 0.55311 0.0
C542 C 0.50307 0.47469 0.53643 0.0
C543 C 0.49369 0.49375 0.51357 0.0
C544 C 0.46096 0.50083 0.51012 0.0
C545 C 0.43849 0.4906 0.52983 0.0
C546 C 0.53621 0.54596 0.45967 0.0
C547 C 0.56179 0.52606 0.45192 0.0
C548 C 0.51453 0.53598 0.4803 0.0
C549 C 0.5179 0.50583 0.49329 0.0
C550 C 0.54437 0.48676 0.48626 0.0
C551 C 0.56615 0.49687 0.46611 0.0
H552 H 0.2425 0.84076 0.73194 0.0
H553 H 0.20546 0.76772 0.67699 0.0
H554 H 0.26155 0.79957 0.764 0.0
H555 H 0.22659 0.72649 0.70748 0.0
H556 H 0.24369 0.65957 0.78029 0.0
H557 H 0.22362 0.69882 0.74797 0.0
H558 H 0.30207 0.76225 0.76938 0.0
H559 H 0.32075 0.72346 0.80384 0.0
C560 C 0.23789 0.81582 0.7271 0.0
C561 C 0.22202 0.80734 0.70236 0.0
C562 C 0.2495 0.79215 0.74506 0.0
C563 C 0.24633 0.75949 0.73819 0.0
C564 C 0.22921 0.75121 0.71387 0.0
C565 C 0.2168 0.77488 0.69638 0.0
C566 C 0.25709 0.68166 0.77786 0.0
C567 C 0.28358 0.68856 0.79504 0.0
C568 C 0.24553 0.70432 0.7591 0.0
C569 C 0.26068 0.73423 0.75631 0.0
C570 C 0.289 0.73998 0.77166 0.0
C571 C 0.30019 0.71747 0.79102 0.0
H572 H 0.92133 0.523 0.96246 0.0
H573 H 0.97851 0.43865 0.94669 0.0
H574 H 0.95997 0.5415 0.99597 0.0
H575 H 0.01665 0.45618 0.98239 0.0
H576 H 0.0967 0.51145 0.02439 0.0
H577 H 0.05744 0.49362 0.98995 0.0
H578 H 0.98188 0.53683 0.03912 0.0
H579 H 0.02136 0.55637 0.07206 0.0
C580 C 0.94181 0.50783 0.96672 0.0
C581 C 0.94692 0.47938 0.95163 0.0
C582 C 0.96407 0.51848 0.98624 0.0
C583 C 0.9918 0.50061 0.99192 0.0
C584 C 0.99602 0.47107 0.97807 0.0
C585 C 0.97389 0.46066 0.95795 0.0
C586 C 0.07175 0.51791 0.02721 0.0
C587 C 0.06211 0.53573 0.0506 0.0
C588 C 0.04912 0.50714 0.00782 0.0
C589 C 0.01625 0.51329 0.0118 0.0
C590 C 0.00691 0.53198 0.0349 0.0
C591 C 0.02961 0.54342 0.05383 0.0
H592 H 0.68645 0.78432 0.80472 0.0
H593 H 0.77294 0.83945 0.79113 0.0
H594 H 0.70343 0.74665 0.7686 0.0
H595 H 0.79081 0.80116 0.75699 0.0
H596 H 0.80472 0.73971 0.68042 0.0
H597 H 0.78595 0.77966 0.71332 0.0
H598 H 0.7405 0.70518 0.76238 0.0
H599 H 0.75761 0.66554 0.72814 0.0
C600 C 0.70881 0.78862 0.79382 0.0
C601 C 0.72837 0.81475 0.80094 0.0
C602 C 0.71888 0.76675 0.77347 0.0
C603 C 0.74887 0.77042 0.76017 0.0
C604 C 0.76749 0.79752 0.76643 0.0
C605 C 0.75721 0.81954 0.78625 0.0
C606 C 0.79139 0.73183 0.69862 0.0
C607 C 0.78279 0.69957 0.70189 0.0
C608 C 0.78042 0.75477 0.71748 0.0
C609 C 0.76127 0.74582 0.74046 0.0
C610 C 0.75433 0.71315 0.74454 0.0
C611 C 0.76468 0.69032 0.72527 0.0
H612 H 0.74563 0.34617 0.23397 0.0
H613 H 0.69708 0.27381 0.1854 0.0
H614 H 0.76224 0.3055 0.26752 0.0
H615 H 0.71513 0.23291 0.21769 0.0
H616 H 0.73133 0.16965 0.29312 0.0
H617 H 0.71182 0.20957 0.26098 0.0
H618 H 0.79952 0.26375 0.2715 0.0
H619 H 0.81827 0.22438 0.30549 0.0
C620 C 0.73796 0.32162 0.23083 0.0
C621 C 0.71977 0.31319 0.20727 0.0
C622 C 0.74804 0.29817 0.2497 0.0
C623 C 0.74072 0.26568 0.2451 0.0
C624 C 0.72106 0.25761 0.22222 0.0
C625 C 0.71043 0.28116 0.20371 0.0
C626 C 0.74679 0.18982 0.28837 0.0
C627 C 0.77634 0.1939 0.30211 0.0
C628 C 0.73552 0.21283 0.26975 0.0
C629 C 0.75377 0.2403 0.26381 0.0
C630 C 0.78433 0.24339 0.27618 0.0
C631 C 0.79541 0.22053 0.29529 0.0
H632 H 0.9159 0.99485 0.02357 0.0
H633 H 0.9893 0.95223 0.07496 0.0
H634 H 0.95664 0.01315 0.99067 0.0
H635 H 0.03029 0.97224 0.04338 0.0
H636 H 0.09435 0.9883 0.96809 0.0
H637 H 0.05533 0.9689 1.00116 0.0
H638 H 0.99631 0.0521 0.98536 0.0
H639 H 0.03482 0.07044 0.95033 0.0
C640 C 0.94078 0.98889 0.02748 0.0
C641 C 0.94945 0.97171 0.05152 0.0
C642 C 0.96424 1.0 0.009 0.0
C643 C 0.997 0.99487 0.01452 0.0
C644 C 0.00543 0.97645 0.03808 0.0
C645 C 0.98189 0.96468 0.05618 0.0
C646 C 0.07328 1.00283 0.97189 0.0
C647 C 0.06755 0.0308 0.95626 0.0
C648 C 0.0508 0.99166 0.99108 0.0
C649 C 0.02217 0.0085 0.99576 0.0
C650 C 0.01758 0.03788 0.98171 0.0
C651 C 0.03996 0.04883 0.96201 0.0
H652 H 0.47362 0.94123 0.45007 0.0
H653 H 0.41936 0.02827 0.46208 0.0
H654 H 0.51239 0.95939 0.48484 0.0
H655 H 0.45872 0.04716 0.49518 0.0
H656 H 0.52182 0.0604 0.57195 0.0
H657 H 0.48114 0.04282 0.53905 0.0
H658 H 0.55432 0.99672 0.48925 0.0
H659 H 0.59469 0.01284 0.52325 0.0
C660 C 0.46976 0.96401 0.46034 0.0
C661 C 0.44344 0.98326 0.45323 0.0
C662 C 0.49226 0.97473 0.47993 0.0
C663 C 0.48912 0.0051 0.49249 0.0
C664 C 0.46195 0.02358 0.48623 0.0
C665 C 0.43928 0.01268 0.46709 0.0
C666 C 0.5293 0.04724 0.55358 0.0
C667 C 0.5614 0.03802 0.55011 0.0
C668 C 0.50592 0.03695 0.53472 0.0
C669 C 0.51425 0.01776 0.51165 0.0
C670 C 0.5468 0.01053 0.50722 0.0
C671 C 0.57007 0.0203 0.52638 0.0
H672 H 0.17476 0.12317 0.92093 0.0
H673 H 0.22315 0.03173 0.92217 0.0
H674 H 0.20666 0.14052 0.96087 0.0
H675 H 0.25501 0.04929 0.96216 0.0
H676 H 0.31268 0.10259 0.03379 0.0
H677 H 0.29503 0.09264 0.98528 0.0
H678 H 0.1976 0.11407 0.00917 0.0
H679 H 0.21473 0.12334 0.0567 0.0
C680 C 0.19295 0.10717 0.92902 0.0
C681 C 0.19593 0.07584 0.91864 0.0
C682 C 0.21115 0.11709 0.95199 0.0
C683 C 0.23292 0.09603 0.96487 0.0
C684 C 0.23845 0.06602 0.95264 0.0
C685 C 0.22006 0.05596 0.92977 0.0
C686 C 0.28754 0.10503 0.02852 0.0
C687 C 0.26502 0.11317 0.04921 0.0
C688 C 0.27749 0.09946 1.00085 0.0
C689 C 0.245 0.10303 0.99342 0.0
C690 C 0.22284 0.11163 0.01411 0.0
C691 C 0.23266 0.11643 0.04154 0.0
H692 H 0.69652 0.50121 0.30607 0.0
H693 H 0.6087 0.54506 0.27776 0.0
H694 H 0.70794 0.48354 0.25851 0.0
H695 H 0.61967 0.52632 0.23002 0.0
H696 H 0.63806 0.42824 0.1735 0.0
H697 H 0.62381 0.46416 0.21203 0.0
H698 H 0.71755 0.50769 0.20769 0.0
H699 H 0.73169 0.47255 0.16909 0.0
C700 C 0.68011 0.50776 0.28949 0.0
C701 C 0.65195 0.52477 0.29549 0.0
C702 C 0.68658 0.49763 0.2623 0.0
C703 C 0.66464 0.50357 0.24063 0.0
C704 C 0.63696 0.52153 0.24637 0.0
C705 C 0.63088 0.53247 0.27356 0.0
C706 C 0.65514 0.44634 0.17999 0.0
C707 C 0.68619 0.44713 0.16851 0.0
C708 C 0.64699 0.46687 0.20208 0.0
C709 C 0.66981 0.48831 0.21303 0.0
C710 C 0.69967 0.49115 0.19979 0.0
C711 C 0.70768 0.47099 0.17764 0.0
H712 H 0.29179 0.91701 0.56122 0.0
H713 H 0.20195 0.88112 0.52872 0.0
H714 H 0.31236 0.92246 0.514 0.0
H715 H 0.22262 0.888 0.48085 0.0
H716 H 0.28247 0.95877 0.41038 0.0
H717 H 0.25069 0.94435 0.45156 0.0
H718 H 0.32049 0.87251 0.47327 0.0
H719 H 0.35201 0.88628 0.43184 0.0
C720 C 0.27621 0.91061 0.54404 0.0
C721 C 0.24528 0.89825 0.54892 0.0
C722 C 0.28814 0.91361 0.51697 0.0
C723 C 0.2693 0.90499 0.49394 0.0
C724 C 0.23769 0.89443 0.4984 0.0
C725 C 0.22583 0.89078 0.52574 0.0
C726 C 0.29034 0.93896 0.42328 0.0
C727 C 0.31985 0.92375 0.41792 0.0
C728 C 0.27213 0.93078 0.44684 0.0
C729 C 0.28336 0.90758 0.4656 0.0
C730 C 0.3114 0.89051 0.45902 0.0
C731 C 0.32931 0.89825 0.43521 0.0
H732 H 0.87289 0.58984 0.67604 0.0
H733 H 0.78332 0.53875 0.6665 0.0
H734 H 0.8869 0.55466 0.71535 0.0
H735 H 0.79703 0.50462 0.70592 0.0
H736 H 0.90075 0.46683 0.77819 0.0
H737 H 0.89195 0.48824 0.73093 0.0
H738 H 0.80377 0.53174 0.75867 0.0
H739 H 0.81308 0.5115 0.80592 0.0
C740 C 0.85676 0.57049 0.68161 0.0
C741 C 0.82683 0.5674 0.66833 0.0
C742 C 0.86472 0.55045 0.70415 0.0
C743 C 0.84279 0.52727 0.71377 0.0
C744 C 0.81421 0.52246 0.69901 0.0
C745 C 0.80645 0.54206 0.6764 0.0
C746 C 0.87907 0.48025 0.77394 0.0
C747 C 0.85735 0.48723 0.7956 0.0
C748 C 0.87428 0.49274 0.74705 0.0
C749 C 0.84724 0.51159 0.74128 0.0
C750 C 0.82472 0.51709 0.76258 0.0
C751 C 0.82994 0.50541 0.78955 0.0
H752 H 0.78715 0.97545 0.08706 0.0
H753 H 0.83547 0.88438 0.07954 0.0
H754 H 0.75227 0.96135 0.04822 0.0
H755 H 0.79973 0.87008 0.04072 0.0
H756 H 0.75721 0.94451 0.94928 0.0
H757 H 0.77671 0.95434 0.9966 0.0
H758 H 0.7361 0.86445 0.02381 0.0
H759 H 0.71548 0.85505 0.97637 0.0
C760 C 0.78967 0.95195 0.07773 0.0
C761 C 0.81447 0.93122 0.08615 0.0
C762 C 0.76966 0.94397 0.05545 0.0
C763 C 0.7736 0.91487 0.0413 0.0
C764 C 0.79617 0.89266 0.0514 0.0
C765 C 0.81656 0.90081 0.07366 0.0
C766 C 0.75156 0.92734 0.96555 0.0
C767 C 0.7345 0.89926 0.95927 0.0
C768 C 0.76278 0.9329 0.99259 0.0
C769 C 0.75792 0.9101 0.0138 0.0
C770 C 0.74009 0.88237 0.00781 0.0
C771 C 0.72805 0.87721 0.98081 0.0
H772 H 0.29209 0.52874 0.84363 0.0
H773 H 0.37162 0.59181 0.82524 0.0
H774 H 0.30624 0.49555 0.8034 0.0
H775 H 0.38538 0.55858 0.78489 0.0
H776 H 0.32947 0.52992 0.69627 0.0
H777 H 0.32286 0.54945 0.74387 0.0
H778 H 0.3759 0.46862 0.77533 0.0
H779 H 0.38327 0.44894 0.72731 0.0
C780 C 0.31337 0.53477 0.83173 0.0
C781 C 0.33061 0.56306 0.83751 0.0
C782 C 0.32139 0.51575 0.80873 0.0
C783 C 0.34675 0.5247 0.79119 0.0
C784 C 0.36585 0.55118 0.79837 0.0
C785 C 0.35804 0.57008 0.82154 0.0
C786 C 0.33946 0.51598 0.71323 0.0
C787 C 0.3571 0.48796 0.70789 0.0
C788 C 0.33575 0.52727 0.74044 0.0
C789 C 0.3493 0.51071 0.76298 0.0
C790 C 0.36547 0.48181 0.7581 0.0
C791 C 0.3694 0.4705 0.7307 0.0
H792 H 0.75392 0.06301 0.45153 0.0
H793 H 0.79221 0.1549 0.47596 0.0
H794 H 0.73418 0.05449 0.49905 0.0
H795 H 0.77129 0.14682 0.52351 0.0
H796 H 0.67085 0.12483 0.57833 0.0
H797 H 0.70671 0.13911 0.53952 0.0
H798 H 0.75901 0.05119 0.55156 0.0
H799 H 0.72405 0.03721 0.59044 0.0
C800 C 0.75878 0.08101 0.46728 0.0
C801 C 0.77496 0.10937 0.4602 0.0
C802 C 0.74741 0.07621 0.49441 0.0
C803 C 0.75118 0.10006 0.51487 0.0
C804 C 0.76815 0.1281 0.50809 0.0
C805 C 0.78037 0.13252 0.48104 0.0
C806 C 0.69086 0.10927 0.57349 0.0
C807 C 0.69432 0.07971 0.58725 0.0
C808 C 0.71129 0.11738 0.55121 0.0
C809 C 0.73527 0.09596 0.54238 0.0
C810 C 0.74054 0.06794 0.55782 0.0
C811 C 0.72049 0.06004 0.58013 0.0
H812 H 0.13887 0.42782 0.33059 0.0
H813 H 0.23355 0.4702 0.33128 0.0
H814 H 0.12422 0.4624 0.29116 0.0
H815 H 0.21901 0.50383 0.29176 0.0
H816 H 0.11145 0.54636 0.2253 0.0
H817 H 0.12286 0.52674 0.27271 0.0
H818 H 0.2053 0.47585 0.24135 0.0
H819 H 0.1934 0.49441 0.19408 0.0
C820 C 0.15615 0.44518 0.32304 0.0
C821 C 0.18752 0.44586 0.33381 0.0
C822 C 0.14778 0.46492 0.30046 0.0
C823 C 0.17071 0.48536 0.2883 0.0
C824 C 0.20104 0.48806 0.30065 0.0
C825 C 0.20927 0.46875 0.32332 0.0
C826 C 0.1324 0.53156 0.22872 0.0
C827 C 0.15172 0.52203 0.2061 0.0
C828 C 0.13871 0.52019 0.25573 0.0
C829 C 0.16495 0.49992 0.26056 0.0
C830 C 0.18508 0.4917 0.23816 0.0
C831 C 0.17831 0.50231 0.21115 0.0
H832 H 0.74048 0.56634 0.55993 0.0
H833 H 0.79325 0.6477 0.52827 0.0
H834 H 0.72099 0.55485 0.51283 0.0
H835 H 0.77266 0.63676 0.48108 0.0
H836 H 0.71617 0.5275 0.42173 0.0
H837 H 0.74941 0.5416 0.46163 0.0
H838 H 0.70673 0.63553 0.46382 0.0
H839 H 0.67242 0.62128 0.42401 0.0
C840 C 0.74839 0.58136 0.54278 0.0
C841 C 0.76864 0.60765 0.54765 0.0
C842 C 0.73719 0.57487 0.51589 0.0
C843 C 0.74532 0.59501 0.49346 0.0
C844 C 0.76613 0.62093 0.4981 0.0
C845 C 0.7781 0.62694 0.52497 0.0
C846 C 0.71427 0.55149 0.43017 0.0
C847 C 0.69121 0.57313 0.41989 0.0
C848 C 0.73338 0.55947 0.45304 0.0
C849 C 0.73036 0.58946 0.46585 0.0
C850 C 0.70952 0.61226 0.45414 0.0
C851 C 0.68995 0.60411 0.43135 0.0
H852 H 0.19484 0.99926 0.80728 0.0
H853 H 0.10608 0.04096 0.77879 0.0
H854 H 0.20563 0.97964 0.7602 0.0
H855 H 0.11645 0.02027 0.73149 0.0
H856 H 0.13627 0.92286 0.6745 0.0
H857 H 0.12169 0.95799 0.71359 0.0
H858 H 0.21474 1.00298 0.7093 0.0
H859 H 0.22917 0.96867 0.67023 0.0
C860 C 0.17801 0.00485 0.79075 0.0
C861 C 0.14987 0.02198 0.79659 0.0
C862 C 0.18412 0.99356 0.76382 0.0
C863 C 0.16184 0.99842 0.7422 0.0
C864 C 0.134 0.01625 0.74778 0.0
C865 C 0.12827 0.02834 0.77471 0.0
C866 C 0.15313 0.94108 0.68119 0.0
C867 C 0.18403 0.94263 0.66943 0.0
C868 C 0.1448 0.96113 0.70361 0.0
C869 C 0.1673 0.98286 0.71469 0.0
C870 C 0.19708 0.98623 0.70137 0.0
C871 C 0.20526 0.96654 0.67892 0.0
H872 H 0.79835 0.38891 0.05996 0.0
H873 H 0.70041 0.40155 0.03292 0.0
H874 H 0.81709 0.39697 0.01269 0.0
H875 H 0.71962 0.41011 0.98473 0.0
H876 H 0.78681 0.47069 0.91936 0.0
H877 H 0.7559 0.45358 0.96006 0.0
H878 H 0.81339 0.36801 0.9658 0.0
H879 H 0.8444 0.38502 0.92511 0.0
C880 C 0.78074 0.3938 0.04397 0.0
C881 C 0.74787 0.39507 0.05042 0.0
C882 C 0.79153 0.39788 0.01668 0.0
C883 C 0.76983 0.4037 0.9949 0.0
C884 C 0.73686 0.40544 1.00114 0.0
C885 C 0.7259 0.4007 0.02866 0.0
C886 C 0.79221 0.4477 0.92872 0.0
C887 C 0.81843 0.42945 0.91922 0.0
C888 C 0.77438 0.43788 0.95201 0.0
C889 C 0.7826 0.40977 0.96637 0.0
C890 C 0.80681 0.39004 0.9553 0.0
C891 C 0.82445 0.39968 0.93186 0.0
H892 H 0.37302 0.08415 0.17527 0.0
H893 H 0.28159 0.03607 0.16751 0.0
H894 H 0.38726 0.04806 0.21377 0.0
H895 H 0.29566 1.00078 0.20606 0.0
H896 H 0.31262 1.00298 0.30484 0.0
H897 H 0.30226 0.02259 0.25764 0.0
H898 H 0.3938 0.98593 0.23049 0.0
H899 H 0.40375 0.96526 0.27783 0.0
C900 C 0.35646 0.06525 0.18105 0.0
C901 C 0.32599 0.06333 0.16853 0.0
C902 C 0.36458 0.04464 0.20314 0.0
C903 C 0.34232 0.02197 0.21311 0.0
C904 C 0.31311 0.01825 0.19898 0.0
C905 C 0.30514 0.0385 0.17683 0.0
C906 C 0.33005 0.99818 0.28859 0.0
C907 C 0.35877 0.98228 0.29488 0.0
C908 C 0.32419 0.00945 0.26159 0.0
C909 C 0.34728 0.00581 0.24043 0.0
C910 C 0.37562 0.989 0.24643 0.0
C911 C 0.38113 0.97691 0.27338 0.0
H912 H 0.28261 0.46086 0.5928 0.0
H913 H 0.35058 0.38626 0.5732 0.0
H914 H 0.25118 0.44664 0.55141 0.0
H915 H 0.31945 0.37265 0.53155 0.0
H916 H 0.29391 0.4165 0.44272 0.0
H917 H 0.31381 0.42155 0.49014 0.0
H918 H 0.22195 0.39165 0.52234 0.0
H919 H 0.20191 0.3852 0.47427 0.0
C920 C 0.29015 0.44063 0.58027 0.0
C921 C 0.31915 0.42475 0.58619 0.0
C922 C 0.27216 0.43256 0.5566 0.0
C923 C 0.28314 0.40882 0.53827 0.0
C924 C 0.31057 0.39108 0.54545 0.0
C925 C 0.32824 0.39873 0.56939 0.0
C926 C 0.27774 0.41101 0.45972 0.0
C927 C 0.24637 0.40007 0.45452 0.0
C928 C 0.28928 0.41375 0.48692 0.0
C929 C 0.26962 0.40629 0.50976 0.0
C930 C 0.23765 0.39714 0.50495 0.0
C931 C 0.22617 0.39373 0.47749 0.0
H932 H 0.86975 0.94979 0.22538 0.0
H933 H 0.84601 0.04353 0.19298 0.0
H934 H 0.86266 0.97027 0.27327 0.0
H935 H 0.84017 0.06364 0.24021 0.0
H936 H 0.8721 0.0991 0.32418 0.0
H937 H 0.88582 0.06786 0.2827 0.0
H938 H 0.80966 1.0012 0.3013 0.0
H939 H 0.79537 0.03272 0.34258 0.0
C940 C 0.86273 0.97451 0.22837 0.0
C941 C 0.85848 0.99495 0.20524 0.0
C942 C 0.85893 0.98622 0.25573 0.0
C943 C 0.85159 0.01867 0.2603 0.0
C944 C 0.84646 0.03869 0.23724 0.0
C945 C 0.84955 0.02697 0.21013 0.0
C946 C 0.85908 0.07712 0.32012 0.0
C947 C 0.8325 0.06853 0.33657 0.0
C948 C 0.8668 0.05937 0.29626 0.0
C949 C 0.84856 0.03234 0.28876 0.0
C950 C 0.82413 0.02186 0.30671 0.0
C951 C 0.81601 0.03993 0.33032 0.0
H952 H 0.16512 0.62511 0.07778 0.0
H953 H 0.22576 0.54215 0.08813 0.0
H954 H 0.19693 0.64145 0.03733 0.0
H955 H 0.25772 0.55888 0.04783 0.0
H956 H 0.31073 0.61665 0.97315 0.0
H957 H 0.29208 0.60968 0.02173 0.0
H958 H 0.1947 0.60118 0.99229 0.0
H959 H 0.21286 0.60702 0.94456 0.0
C960 C 0.18602 0.61112 0.07223 0.0
C961 C 0.1926 0.58207 0.08588 0.0
C962 C 0.20416 0.62043 0.04901 0.0
C963 C 0.2295 0.60118 0.03938 0.0
C964 C 0.23838 0.57416 0.05492 0.0
C965 C 0.21998 0.56458 0.07792 0.0
C966 C 0.28542 0.61296 0.97714 0.0
C967 C 0.26334 0.6122 0.9549 0.0
C968 C 0.2748 0.6092 0.00486 0.0
C969 C 0.24191 0.6056 0.01065 0.0
C970 C 0.2201 0.60457 0.98843 0.0
C971 C 0.23065 0.60755 0.96099 0.0
H972 H 0.65922 0.96328 0.69279 0.0
H973 H 0.64187 0.05866 0.72451 0.0
H974 H 0.66567 0.94358 0.74012 0.0
H975 H 0.64952 0.03855 0.77247 0.0
H976 H 0.71641 0.97445 0.8405 0.0
H977 H 0.70175 0.00584 0.79923 0.0
H978 H 0.62214 0.94215 0.78407 0.0
H979 H 0.63625 0.91105 0.82555 0.0
C980 C 0.65721 0.98025 0.7098 0.0
C981 C 0.64995 0.01265 0.70473 0.0
C982 C 0.66062 0.96878 0.73697 0.0
C983 C 0.65749 0.98943 0.75987 0.0
C984 C 0.6517 0.02214 0.75506 0.0
C985 C 0.64756 0.03362 0.72768 0.0
C986 C 0.69501 0.96789 0.829 0.0
C987 C 0.67762 0.94011 0.83618 0.0
C988 C 0.68667 0.98589 0.80541 0.0
C989 C 0.66109 0.97613 0.7884 0.0
C990 C 0.64206 0.95005 0.79688 0.0
C991 C 0.65003 0.93238 0.82073 0.0
H992 H 0.42312 0.23345 0.14686 0.0
H993 H 0.45095 0.18537 0.07102 0.0
H994 H 0.4755 0.26003 0.14862 0.0
H995 H 0.50315 0.21179 0.07261 0.0
H996 H 0.57151 0.29762 0.06343 0.0
H997 H 0.52241 0.2658 0.06516 0.0
H998 H 0.53418 0.25393 0.15418 0.0
H999 H 0.58311 0.28658 0.15233 0.0
C1000 C 0.44074 0.22781 0.13103 0.0
C1001 C 0.43299 0.20693 0.10898 0.0
C1002 C 0.47076 0.2432 0.13192 0.0
C1003 C 0.4936 0.23829 0.11064 0.0
C1004 C 0.48607 0.21662 0.08912 0.0
C1005 C 0.45621 0.2013 0.08827 0.0
C1006 C 0.56375 0.28791 0.0833 0.0
C1007 C 0.58156 0.29408 0.10761 0.0
C1008 C 0.53569 0.2695 0.08432 0.0
C1009 C 0.52432 0.25697 0.1098 0.0
C1010 C 0.54214 0.26318 0.13421 0.0
C1011 C 0.57046 0.28149 0.13312 0.0
H1012 H 0.49803 0.66374 0.34856 0.0
H1013 H 0.58681 0.70107 0.38101 0.0
H1014 H 0.47332 0.71652 0.35308 0.0
H1015 H 0.56209 0.75402 0.38633 0.0
H1016 H 0.51926 0.84889 0.35036 0.0
H1017 H 0.54411 0.79608 0.35466 0.0
H1018 H 0.45445 0.75747 0.38513 0.0
H1019 H 0.42964 0.81032 0.37996 0.0
C1020 C 0.51197 0.68323 0.35727 0.0
C1021 C 0.54407 0.67829 0.36492 0.0
C1022 C 0.49783 0.71343 0.36002 0.0
C1023 C 0.51563 0.73962 0.37019 0.0
C1024 C 0.54769 0.73446 0.37834 0.0
C1025 C 0.56177 0.7041 0.37569 0.0
C1026 C 0.50516 0.82914 0.35844 0.0
C1027 C 0.47279 0.83375 0.36539 0.0
C1028 C 0.51936 0.79893 0.36106 0.0
C1029 C 0.50135 0.77243 0.37035 0.0
C1030 C 0.46903 0.77727 0.37782 0.0
C1031 C 0.45489 0.80759 0.37529 0.0
H1032 H 0.95168 0.67926 0.62456 0.0
H1033 H 0.90631 0.76487 0.59394 0.0
H1034 H 1.0031 0.70776 0.62748 0.0
H1035 H 0.95713 0.7938 0.59729 0.0
H1036 H 0.05846 0.82095 0.56941 0.0
H1037 H 0.00634 0.79484 0.5725 0.0
H1038 H 0.03527 0.74902 0.6494 0.0
H1039 H 0.0881 0.77431 0.64545 0.0
C1040 C 0.95262 0.70445 0.61923 0.0
C1041 C 0.92507 0.72004 0.60934 0.0
C1042 C 0.98204 0.72083 0.62082 0.0
C1043 C 0.98449 0.75314 0.61244 0.0
C1044 C 0.95646 0.76884 0.60343 0.0
C1045 C 0.92725 0.75242 0.6017 0.0
C1046 C 0.05355 0.80555 0.58712 0.0
C1047 C 0.07723 0.8003 0.60746 0.0
C1048 C 0.02354 0.7907 0.58905 0.0
C1049 C 0.01627 0.76994 0.61137 0.0
C1050 C 0.03995 0.76476 0.63188 0.0
C1051 C 0.0701 0.77971 0.62991 0.0
H1052 H 0.93436 0.30769 0.82126 0.0
H1053 H 0.98531 0.33765 0.89509 0.0
H1054 H 0.95945 0.25504 0.82415 0.0
H1055 H 0.01063 0.28486 0.89812 0.0
H1056 H 0.03614 0.17749 0.9042 0.0
H1057 H 1.0035 0.22637 0.90551 0.0
H1058 H 0.0132 0.23546 0.81602 0.0
H1059 H 0.04499 0.18656 0.81488 0.0
C1060 C 0.95064 0.3028 0.83835 0.0
C1061 C 0.95755 0.32672 0.85809 0.0
C1062 C 0.96516 0.27269 0.83996 0.0
C1063 C 0.9873 0.26568 0.86126 0.0
C1064 C 0.99341 0.28925 0.88164 0.0
C1065 C 0.97879 0.31949 0.88001 0.0
C1066 C 0.03053 0.18956 0.88481 0.0
C1067 C 0.0426 0.1779 0.85935 0.0
C1068 C 0.01223 0.2178 0.88557 0.0
C1069 C 0.00551 0.23485 0.86085 0.0
C1070 C 0.01733 0.22277 0.83542 0.0
C1071 C 0.03571 0.19483 0.83473 0.0
H1072 H 0.55524 0.82954 0.87695 0.0
H1073 H 0.59918 0.74285 0.90691 0.0
H1074 H 0.5034 0.80183 0.87359 0.0
H1075 H 0.54786 0.71482 0.90332 0.0
H1076 H 0.44592 0.69095 0.9324 0.0
H1077 H 0.49854 0.71606 0.92903 0.0
H1078 H 0.47104 0.76006 0.85095 0.0
H1079 H 0.41776 0.73549 0.85499 0.0
C1080 C 0.55391 0.80429 0.88199 0.0
C1081 C 0.58117 0.78815 0.89183 0.0
C1082 C 0.52426 0.78839 0.88018 0.0
C1083 C 0.5213 0.75608 0.88837 0.0
C1084 C 0.54902 0.7398 0.89728 0.0
C1085 C 0.57847 0.75571 0.89916 0.0
C1086 C 0.45126 0.70573 0.91439 0.0
C1087 C 0.42791 0.71072 0.89373 0.0
C1088 C 0.48151 0.72 0.91231 0.0
C1089 C 0.48928 0.73992 0.88956 0.0
C1090 C 0.46591 0.7449 0.86876 0.0
C1091 C 0.43554 0.73044 0.87083 0.0
H1092 H 0.42871 0.30538 0.63149 0.0
H1093 H 0.51442 0.34929 0.6639 0.0
H1094 H 0.45643 0.25369 0.62874 0.0
H1095 H 0.54253 0.29811 0.66087 0.0
H1096 H 0.56753 0.19615 0.68798 0.0
H1097 H 0.54193 0.24844 0.68527 0.0
H1098 H 0.49803 0.22159 0.60696 0.0
H1099 H 0.52284 0.16862 0.61045 0.0
C1100 C 0.45377 0.30407 0.63725 0.0
C1101 C 0.46963 0.33133 0.64752 0.0
C1102 C 0.46969 0.27448 0.63579 0.0
C1103 C 0.50177 0.27152 0.64473 0.0
C1104 C 0.51773 0.2992 0.65425 0.0
C1105 C 0.50178 0.3286 0.65581 0.0
C1106 C 0.55262 0.20154 0.67008 0.0
C1107 C 0.54782 0.17844 0.64918 0.0
C1108 C 0.53808 0.23165 0.66837 0.0
C1109 C 0.51806 0.23957 0.64572 0.0
C1110 C 0.51322 0.21641 0.62472 0.0
C1111 C 0.52789 0.18619 0.62646 0.0
H1112 H 0.06576 0.30919 0.44116 0.0
H1113 H 0.08442 0.28555 0.35502 0.0
H1114 H 0.01479 0.28056 0.43887 0.0
H1115 H 0.03349 0.25629 0.35278 0.0
H1116 H 0.95071 0.18144 0.37382 0.0
H1117 H 1.00332 0.20809 0.37234 0.0
H1118 H 0.96316 0.28958 0.41532 0.0
H1119 H 0.91092 0.2631 0.41637 0.0
C1120 C 0.05912 0.2975 0.42182 0.0
C1121 C 0.07948 0.29924 0.39847 0.0
C1122 C 0.02983 0.28123 0.42043 0.0
C1123 C 0.01989 0.26629 0.39556 0.0
C1124 C 0.04056 0.26725 0.37233 0.0
C1125 C 0.06993 0.28378 0.37369 0.0
C1126 C 0.95302 0.20546 0.38208 0.0
C1127 C 0.92659 0.22054 0.39468 0.0
C1128 C 0.98318 0.22061 0.38149 0.0
C1129 C 0.98756 0.25087 0.39394 0.0
C1130 C 0.96083 0.2661 0.40593 0.0
C1131 C 0.93084 0.25109 0.40636 0.0
H1132 H 0.04158 0.68608 0.19362 0.0
H1133 H 0.03173 0.67602 0.10448 0.0
H1134 H 0.01012 0.73522 0.19223 0.0
H1135 H 0.99938 0.72503 0.10294 0.0
H1136 H 0.98203 0.83615 0.11137 0.0
H1137 H 0.00702 0.78321 0.10926 0.0
H1138 H 0.95683 0.75578 0.18452 0.0
H1139 H 0.93204 0.80865 0.18649 0.0
C1140 C 0.03211 0.69415 0.17377 0.0
C1141 C 0.03863 0.67688 0.14928 0.0
C1142 C 0.01392 0.72224 0.17294 0.0
C1143 C 1.00195 0.73411 0.14748 0.0
C1144 C 0.00825 0.71666 0.1229 0.0
C1145 C 0.02636 0.68832 0.1238 0.0
C1146 C 0.97565 0.81849 0.12696 0.0
C1147 C 0.9547 0.82645 0.14891 0.0
C1148 C 0.99008 0.78814 0.12585 0.0
C1149 C 0.98411 0.76517 0.14681 0.0
C1150 C 0.96241 0.77295 0.16825 0.0
C1151 C 0.94806 0.80319 0.16934 0.0
H1152 H 0.20103 0.2239 0.13966 0.0
H1153 H 0.27391 0.24862 0.0791 0.0
H1154 H 0.17828 0.27758 0.1355 0.0
H1155 H 0.2503 0.30221 0.07442 0.0
H1156 H 0.1677 0.37902 0.05679 0.0
H1157 H 0.18894 0.32449 0.05918 0.0
H1158 H 0.20785 0.33683 0.14704 0.0
H1159 H 0.18876 0.39195 0.1444 0.0
C1160 C 0.21186 0.24061 0.1251 0.0
C1161 C 0.23924 0.23208 0.10964 0.0
C1162 C 0.19893 0.27131 0.1229 0.0
C1163 C 0.21267 0.29381 0.10474 0.0
C1164 C 0.23934 0.28508 0.08853 0.0
C1165 C 0.25279 0.25455 0.09121 0.0
C1166 C 0.17633 0.37009 0.07665 0.0
C1167 C 0.17555 0.38964 0.1006 0.0
C1168 C 0.18847 0.33897 0.07795 0.0
C1169 C 0.19966 0.3266 0.10332 0.0
C1170 C 0.19879 0.34584 0.12734 0.0
C1171 C 0.18733 0.37725 0.1259 0.0
H1172 H 0.39162 0.38727 0.30898 0.0
H1173 H 0.36554 0.44495 0.38004 0.0
H1174 H 0.44554 0.41102 0.30925 0.0
H1175 H 0.41924 0.46861 0.38054 0.0
H1176 H 0.50094 0.53185 0.34967 0.0
H1177 H 0.44882 0.50563 0.34628 0.0
H1178 H 0.49524 0.41345 0.34172 0.0
H1179 H 0.54762 0.43958 0.34528 0.0
C1180 C 0.39775 0.40465 0.3249 0.0
C1181 C 0.37486 0.41394 0.3448 0.0
C1182 C 0.42841 0.41818 0.32507 0.0
C1183 C 0.43637 0.44173 0.34481 0.0
C1184 C 0.41357 0.45066 0.36497 0.0
C1185 C 0.38309 0.43681 0.365 0.0
C1186 C 0.50013 0.50604 0.34746 0.0
C1187 C 0.52839 0.48776 0.3479 0.0
C1188 C 0.47028 0.49105 0.34579 0.0
C1189 C 0.4681 0.45754 0.34418 0.0
C1190 C 0.49634 0.43933 0.343 0.0
C1191 C 0.52625 0.4543 0.34502 0.0
H1192 H 0.22256 0.74986 0.60503 0.0
H1193 H 0.31753 0.79152 0.60558 0.0
H1194 H 0.24603 0.69643 0.60191 0.0
H1195 H 0.34092 0.7379 0.602 0.0
H1196 H 0.36187 0.63506 0.56462 0.0
H1197 H 0.3405 0.68979 0.56636 0.0
H1198 H 0.28141 0.66336 0.63682 0.0
H1199 H 0.30311 0.60879 0.63509 0.0
C1200 C 0.24842 0.74765 0.60396 0.0
C1201 C 0.26823 0.77487 0.6055 0.0
C1202 C 0.26181 0.71707 0.60246 0.0
C1203 C 0.29523 0.71315 0.60198 0.0
C1204 C 0.31506 0.74037 0.60234 0.0
C1205 C 0.30168 0.77097 0.60436 0.0
C1206 C 0.34459 0.64124 0.58061 0.0
C1207 C 0.33435 0.6181 0.59995 0.0
C1208 C 0.33244 0.67239 0.58165 0.0
C1209 C 0.30928 0.68064 0.60166 0.0
C1210 C 0.29915 0.65748 0.6211 0.0
C1211 C 0.31175 0.62649 0.62035 0.0
H1212 H 0.96804 0.56376 0.87533 0.0
H1213 H 0.99646 0.48523 0.82205 0.0
H1214 H 0.02158 0.58717 0.87077 0.0
H1215 H 0.04979 0.50934 0.81694 0.0
H1216 H 0.13131 0.58592 0.79877 0.0
H1217 H 0.07532 0.56807 0.79875 0.0
H1218 H 0.07856 0.5576 0.8883 0.0
H1219 H 0.13486 0.5732 0.88825 0.0
C1220 C 0.98543 0.55194 0.86208 0.0
C1221 C 0.97817 0.52262 0.84908 0.0
C1222 C 0.01603 0.56526 0.85963 0.0
C1223 C 0.03956 0.5499 0.84362 0.0
C1224 C 0.03185 0.52159 0.82932 0.0
C1225 C 1.00145 0.50784 0.83227 0.0
C1226 C 0.12001 0.57994 0.81847 0.0
C1227 C 0.13736 0.58198 0.84362 0.0
C1228 C 0.08807 0.56982 0.8184 0.0
C1229 C 0.07277 0.56201 0.84355 0.0
C1230 C 0.08982 0.56425 0.86872 0.0
C1231 C 0.12197 0.57366 0.86872 0.0
H1232 H 0.81966 0.79706 0.89942 0.0
H1233 H 0.72628 0.7519 0.90252 0.0
H1234 H 0.84499 0.74412 0.90038 0.0
H1235 H 0.75161 0.69946 0.90312 0.0
H1236 H 0.80631 0.61412 0.86679 0.0
H1237 H 0.78508 0.66885 0.86612 0.0
H1238 H 0.84837 0.69449 0.93391 0.0
H1239 H 0.86939 0.63964 0.93452 0.0
C1240 C 0.80459 0.77594 0.90069 0.0
C1241 C 0.77097 0.77869 0.90084 0.0
C1242 C 0.81907 0.74572 0.90116 0.0
C1243 C 0.80017 0.71783 0.90134 0.0
C1244 C 0.76668 0.72062 0.90247 0.0
C1245 C 0.75224 0.7507 0.90242 0.0
C1246 C 0.81609 0.63172 0.88104 0.0
C1247 C 0.83961 0.62301 0.9005 0.0
C1248 C 0.80378 0.66282 0.88091 0.0
C1249 C 0.81504 0.68574 0.90008 0.0
C1250 C 0.83943 0.6773 0.91885 0.0
C1251 C 0.85137 0.64606 0.91924 0.0
H1252 H 0.63631 0.57247 0.61202 0.0
H1253 H 0.62711 0.59542 0.69962 0.0
H1254 H 0.58062 0.55453 0.61125 0.0
H1255 H 0.57194 0.57537 0.69911 0.0
H1256 H 0.49551 0.48935 0.68202 0.0
H1257 H 0.54873 0.51414 0.68573 0.0
H1258 H 0.52199 0.58429 0.62383 0.0
H1259 H 0.46861 0.56032 0.62061 0.0
C1260 C 0.62231 0.57458 0.63089 0.0
C1261 C 0.63593 0.58646 0.65567 0.0
C1262 C 0.59055 0.56383 0.63053 0.0
C1263 C 0.57217 0.56383 0.6551 0.0
C1264 C 0.58573 0.57524 0.67993 0.0
C1265 C 0.61722 0.58665 0.68016 0.0
C1266 C 0.50082 0.51043 0.66964 0.0
C1267 C 0.47793 0.52295 0.65111 0.0
C1268 C 0.53116 0.52454 0.67175 0.0
C1269 C 0.53925 0.55089 0.6549 0.0
C1270 C 0.51619 0.56389 0.63691 0.0
C1271 C 0.48566 0.55029 0.63526 0.0
H1272 H 0.779 0.25485 0.40303 0.0
H1273 H 0.68636 0.20848 0.3977 0.0
H1274 H 0.75304 0.30695 0.40213 0.0
H1275 H 0.66038 0.26109 0.39716 0.0
H1276 H 0.63444 0.36599 0.43022 0.0
H1277 H 0.65532 0.31111 0.43011 0.0
H1278 H 0.72064 0.33661 0.36367 0.0
H1279 H 0.69952 0.39142 0.36383 0.0
C1280 C 0.75306 0.25571 0.40214 0.0
C1281 C 0.73474 0.22747 0.40035 0.0
C1282 C 0.73827 0.28559 0.4013 0.0
C1283 C 0.70483 0.28793 0.39906 0.0
C1284 C 0.68626 0.25982 0.39873 0.0
C1285 C 0.70112 0.22979 0.39916 0.0
C1286 C 0.65282 0.3595 0.41527 0.0
C1287 C 0.66527 0.38257 0.39686 0.0
C1288 C 0.66467 0.32825 0.41517 0.0
C1289 C 0.68967 0.31982 0.39702 0.0
C1290 C 0.70146 0.34267 0.37799 0.0
C1291 C 0.68923 0.3738 0.37782 0.0
H1292 H 0.8838 0.41364 0.20358 0.0
H1293 H 0.87317 0.42924 0.11487 0.0
H1294 H 0.93818 0.43577 0.20135 0.0
H1295 H 0.92801 0.44914 0.11251 0.0
H1296 H 0.04021 0.44859 0.12113 0.0
H1297 H 0.98778 0.42305 0.12616 0.0
H1298 H 0.95889 0.49675 0.18397 0.0
H1299 H 0.01118 0.5231 0.17842 0.0
C1300 C 0.89325 0.42113 0.18354 0.0
C1301 C 0.87434 0.41864 0.15927 0.0
C1302 C 0.92426 0.43378 0.18233 0.0
C1303 C 0.93716 0.44377 0.15674 0.0
C1304 C 0.91864 0.44099 0.1324 0.0
C1305 C 0.88735 0.42903 0.13371 0.0
C1306 C 0.02288 0.45918 0.13521 0.0
C1307 C 0.02978 0.48787 0.14941 0.0
C1308 C 0.99288 0.44463 0.13792 0.0
C1309 C 0.96952 0.45804 0.15538 0.0
C1310 C 0.97672 0.48598 0.17047 0.0
C1311 C 0.00652 0.501 0.16727 0.0
H1312 H 0.69423 0.72151 0.62921 0.0
H1313 H 0.77204 0.74657 0.57372 0.0
H1314 H 0.6721 0.77502 0.62415 0.0
H1315 H 0.74902 0.79964 0.56736 0.0
H1316 H 0.72617 0.90196 0.59144 0.0
H1317 H 0.74491 0.8468 0.59317 0.0
H1318 H 0.64651 0.8138 0.59648 0.0
H1319 H 0.62822 0.86953 0.596 0.0
C1320 C 0.70617 0.73824 0.61535 0.0
C1321 C 0.73504 0.72996 0.60205 0.0
C1322 C 0.69339 0.76896 0.61236 0.0
C1323 C 0.70895 0.79195 0.59565 0.0
C1324 C 0.73685 0.78292 0.58105 0.0
C1325 C 0.74991 0.75239 0.58444 0.0
C1326 C 0.70871 0.88277 0.59266 0.0
C1327 C 0.6759 0.88974 0.59391 0.0
C1328 C 0.71932 0.85114 0.59334 0.0
C1329 C 0.69726 0.82564 0.59468 0.0
C1330 C 0.66425 0.83276 0.59582 0.0
C1331 C 0.65369 0.86457 0.59558 0.0
H1332 H 0.88738 0.89636 0.81942 0.0
H1333 H 0.8619 0.95484 0.89013 0.0
H1334 H 0.94198 0.91816 0.82041 0.0
H1335 H 0.9165 0.97682 0.89126 0.0
H1336 H 1.00104 0.03733 0.85832 0.0
H1337 H 0.94799 0.01272 0.85716 0.0
H1338 H 0.99129 0.91902 0.85283 0.0
H1339 H 0.04462 0.94355 0.85422 0.0
C1340 C 0.89376 0.91357 0.8354 0.0
C1341 C 0.87079 0.92372 0.85491 0.0
C1342 C 0.92487 0.92596 0.83601 0.0
C1343 C 0.93334 0.94923 0.85583 0.0
C1344 C 0.91046 0.95904 0.87565 0.0
C1345 C 0.87945 0.94625 0.87526 0.0
C1346 C 0.99933 0.0115 0.85673 0.0
C1347 C 0.02704 0.99237 0.85634 0.0
C1348 C 0.96894 0.99744 0.85639 0.0
C1349 C 0.96562 0.964 0.85527 0.0
C1350 C 0.99325 0.94488 0.85373 0.0
C1351 C 0.02371 0.95892 0.85447 0.0
H1352 H 0.78333 0.10397 0.09402 0.0
H1353 H 0.87945 0.14105 0.10033 0.0
H1354 H 0.76172 0.15803 0.09793 0.0
H1355 H 0.85838 0.19564 0.10286 0.0
H1356 H 0.80867 0.28412 0.13766 0.0
H1357 H 0.83126 0.23108 0.13211 0.0
H1358 H 0.75514 0.20667 0.07451 0.0
H1359 H 0.73151 0.25949 0.08139 0.0
C1360 C 0.79973 0.12397 0.09611 0.0
C1361 C 0.83287 0.11867 0.09726 0.0
C1362 C 0.78749 0.15495 0.09805 0.0
C1363 C 0.80825 0.18139 0.10057 0.0
C1364 C 0.8416 0.1759 0.10146 0.0
C1365 C 0.85376 0.14476 0.10002 0.0
C1366 C 0.79685 0.26752 0.12363 0.0
C1367 C 0.76823 0.27594 0.11001 0.0
C1368 C 0.80996 0.23707 0.12032 0.0
C1369 C 0.79506 0.21439 0.10292 0.0
C1370 C 0.76693 0.22323 0.08856 0.0
C1371 C 0.75349 0.25359 0.09227 0.0
H1372 H 0.4938 0.99151 0.3233 0.0
H1373 H 0.4668 0.06495 0.38217 0.0
H1374 H 0.54771 0.01373 0.32089 0.0
H1375 H 0.52126 0.08643 0.38088 0.0
H1376 H 0.62078 0.12799 0.35845 0.0
H1377 H 0.56404 0.11247 0.3564 0.0
H1378 H 0.59209 0.01295 0.35112 0.0
H1379 H 0.64825 0.02886 0.35217 0.0
C1380 C 0.49935 0.01268 0.33547 0.0
C1381 C 0.4762 0.0264 0.35301 0.0
C1382 C 0.53035 0.02523 0.33439 0.0
C1383 C 0.53916 0.05139 0.35128 0.0
C1384 C 0.51538 0.06633 0.36754 0.0
C1385 C 0.48413 0.05405 0.36827 0.0
C1386 C 0.61452 0.10285 0.35725 0.0
C1387 C 0.63863 0.07951 0.35567 0.0
C1388 C 0.58213 0.09392 0.35596 0.0
C1389 C 0.57339 0.06146 0.35317 0.0
C1390 C 0.59778 0.03822 0.35242 0.0
C1391 C 0.62996 0.04719 0.35336 0.0
H1392 H 0.30948 0.28636 0.37335 0.0
H1393 H 0.22819 0.25858 0.42409 0.0
H1394 H 0.33087 0.23228 0.37685 0.0
H1395 H 0.25034 0.20435 0.42803 0.0
H1396 H 0.32472 0.1213 0.44719 0.0
H1397 H 0.30543 0.1768 0.44756 0.0
H1398 H 0.30461 0.17711 0.35743 0.0
H1399 H 0.32221 0.12118 0.35715 0.0
C1400 C 0.29645 0.2689 0.38569 0.0
C1401 C 0.26706 0.27672 0.39842 0.0
C1402 C 0.30866 0.23794 0.38752 0.0
C1403 C 0.2921 0.21434 0.40254 0.0
C1404 C 0.26351 0.22234 0.41638 0.0
C1405 C 0.25089 0.25326 0.41412 0.0
C1406 C 0.3206 0.13343 0.42752 0.0
C1407 C 0.32608 0.11749 0.40212 0.0
C1408 C 0.30951 0.16497 0.42775 0.0
C1409 C 0.30397 0.18111 0.40254 0.0
C1410 C 0.30936 0.16522 0.37712 0.0
C1411 C 0.31984 0.13348 0.37693 0.0
H1412 H 0.9629 0.06895 0.14905 0.0
H1413 H 0.00661 0.97515 0.15018 0.0
H1414 H 0.01604 0.09363 0.15335 0.0
H1415 H 0.05951 0.9999 0.15401 0.0
H1416 H 0.14622 0.05878 0.12131 0.0
H1417 H 0.09188 0.03635 0.11895 0.0
H1418 H 0.06411 0.09383 0.18985 0.0
H1419 H 0.1187 0.11592 0.19226 0.0
C1420 C 0.98379 0.05364 0.15054 0.0
C1421 C 0.98062 0.02013 0.14932 0.0
C1422 C 0.0141 0.06775 0.15298 0.0
C1423 C 0.04173 0.0486 0.15369 0.0
C1424 C 0.03852 0.01514 0.15318 0.0
C1425 C 0.00824 1.00102 0.15126 0.0
C1426 C 0.12827 0.06694 0.136 0.0
C1427 C 0.13625 0.08927 0.15673 0.0
C1428 C 0.09741 0.05393 0.13488 0.0
C1429 C 0.07397 0.06336 0.15429 0.0
C1430 C 0.08176 0.08633 0.1746 0.0
C1431 C 0.11281 0.09888 0.176 0.0
H1432 H 0.18351 0.88713 0.85544 0.0
H1433 H 0.15857 0.87297 0.94215 0.0
H1434 H 0.20138 0.83158 0.85257 0.0
H1435 H 0.17832 0.81795 0.93959 0.0
H1436 H 0.26472 0.74418 0.92397 0.0
H1437 H 0.2393 0.79689 0.92776 0.0
H1438 H 0.17384 0.77185 0.86148 0.0
H1439 H 0.19852 0.71887 0.85811 0.0
C1440 C 0.18089 0.87204 0.87362 0.0
C1441 C 0.16874 0.88428 0.89883 0.0
C1442 C 0.19155 0.84036 0.87207 0.0
C1443 C 0.19108 0.82071 0.89586 0.0
C1444 C 0.1789 0.83277 0.921 0.0
C1445 C 0.16765 0.86416 0.92241 0.0
C1446 C 0.24462 0.7498 0.91051 0.0
C1447 C 0.23351 0.72747 0.89083 0.0
C1448 C 0.23012 0.77983 0.91269 0.0
C1449 C 0.20479 0.78822 0.89482 0.0
C1450 C 0.19342 0.76582 0.87539 0.0
C1451 C 0.20741 0.73554 0.87363 0.0
H1452 H 0.37154 0.93121 0.6129 0.0
H1453 H 0.38375 0.90999 0.70055 0.0
H1454 H 0.4267 0.95027 0.61053 0.0
H1455 H 0.4385 0.93124 0.69844 0.0
H1456 H 0.51355 0.01763 0.67817 0.0
H1457 H 0.46073 0.99237 0.68368 0.0
H1458 H 0.48578 0.92185 0.62162 0.0
H1459 H 0.53871 0.94629 0.61657 0.0
C1460 C 0.38613 0.92965 0.63145 0.0
C1461 C 0.37352 0.91785 0.65669 0.0
C1462 C 0.41759 0.9411 0.63018 0.0
C1463 C 0.43669 0.94195 0.65427 0.0
C1464 C 0.42413 0.93072 0.6796 0.0
C1465 C 0.39291 0.91858 0.68075 0.0
C1466 C 0.50793 0.99645 0.66605 0.0
C1467 C 0.53023 0.98393 0.64696 0.0
C1468 C 0.47783 0.98203 0.66924 0.0
C1469 C 0.4694 0.95537 0.65294 0.0
C1470 C 0.49184 0.94248 0.63431 0.0
C1471 C 0.52212 0.9564 0.63157 0.0
loop_
_geom_bond_atom_site_label_1
_geom_bond_atom_site_label_2
_geom_bond_distance
_geom_bond_site_symmetry_2
_ccdc_geom_bond_type
Zn0 O1 2.055 . S
Zn0 O8 2.046 . S
Zn0 N16 2.036 . S
Zn0 O28 2.053 . S
Zn0 O30 2.066 . S
O1 Zn0 2.055 . S
O1 C4 1.259 . S
C2 O30 1.256 . S
C2 O31 1.244 . S
Zn3 O5 2.046 . S
Zn3 O7 2.055 . S
Zn3 N9 2.036 . S
Zn3 O27 2.066 . S
Zn3 O31 2.053 . S
C4 O1 1.259 . S
C4 O5 1.254 . S
O5 Zn3 2.046 . S
O5 C4 1.254 . S
C6 O27 1.256 . S
C6 O28 1.244 . S
O7 Zn3 2.055 . S
O7 C29 1.259 . S
O8 Zn0 2.046 . S
O8 C29 1.254 . S
N9 Zn3 2.036 . S
N9 C10 1.298 . S
N9 N12 1.398 . S
C10 N9 1.298 . S
C10 N13 1.367 . S
C10 C23 1.481 . S
C11 N12 1.299 . S
C11 N13 1.379 . S
N12 N9 1.398 . S
N12 C11 1.299 . S
N13 C10 1.367 . S
N13 C11 1.379 . S
C14 N16 1.298 . S
C14 N18 1.367 . S
C14 C22 1.481 . S
C15 N17 1.299 . S
C15 N18 1.379 . S
N16 Zn0 2.036 . S
N16 C14 1.298 . S
N16 N17 1.398 . S
N17 C15 1.299 . S
N17 N16 1.398 . S
N18 C14 1.367 . S
N18 C15 1.379 . S
H19 C22 0.980 . S
H20 C22 0.981 . S
H21 C22 0.981 . S
C22 C14 1.481 . S
C22 H19 0.980 . S
C22 H20 0.981 . S
C22 H21 0.981 . S
C23 C10 1.481 . S
C23 H24 0.980 . S
C23 H25 0.981 . S
C23 H26 0.981 . S
H24 C23 0.980 . S
H25 C23 0.981 . S
H26 C23 0.981 . S
O27 Zn3 2.066 . S
O27 C6 1.256 . S
O28 Zn0 2.053 . S
O28 C6 1.244 . S
C29 O7 1.259 . S
C29 O8 1.254 . S
O30 Zn0 2.066 . S
O30 C2 1.256 . S
O31 C2 1.244 . S
O31 Zn3 2.053 . S
Zn32 O33 2.055 . S
Zn32 O40 2.046 . S
Zn32 N48 2.036 . S
Zn32 O60 2.053 . S
Zn32 O62 2.066 . S
O33 Zn32 2.055 . S
O33 C36 1.259 . S
C34 O62 1.256 . S
C34 O63 1.244 . S
Zn35 O37 2.046 . S
Zn35 O39 2.055 . S
Zn35 N41 2.036 . S
Zn35 O59 2.066 . S
Zn35 O63 2.053 . S
C36 O33 1.259 . S
C36 O37 1.254 . S
O37 Zn35 2.046 . S
O37 C36 1.254 . S
C38 O59 1.256 . S
C38 O60 1.244 . S
O39 Zn35 2.055 . S
O39 C61 1.259 . S
O40 Zn32 2.046 . S
O40 C61 1.254 . S
N41 Zn35 2.036 . S
N41 C42 1.298 . S
N41 N44 1.398 . S
C42 N41 1.298 . S
C42 N45 1.367 . S
C42 C55 1.481 . S
C43 N44 1.299 . S
C43 N45 1.379 . S
N44 N41 1.398 . S
N44 C43 1.299 . S
N45 C42 1.367 . S
N45 C43 1.379 . S
C46 N48 1.298 . S
C46 N50 1.367 . S
C46 C54 1.481 . S
C47 N49 1.299 . S
C47 N50 1.379 . S
N48 Zn32 2.036 . S
N48 C46 1.298 . S
N48 N49 1.398 . S
N49 C47 1.299 . S
N49 N48 1.398 . S
N50 C46 1.367 . S
N50 C47 1.379 . S
H51 C54 0.980 . S
H52 C54 0.981 . S
H53 C54 0.981 . S
C54 C46 1.481 . S
C54 H51 0.980 . S
C54 H52 0.981 . S
C54 H53 0.981 . S
C55 C42 1.481 . S
C55 H56 0.980 . S
C55 H57 0.981 . S
C55 H58 0.981 . S
H56 C55 0.980 . S
H57 C55 0.981 . S
H58 C55 0.981 . S
O59 Zn35 2.066 . S
O59 C38 1.256 . S
O60 Zn32 2.053 . S
O60 C38 1.244 . S
C61 O39 1.259 . S
C61 O40 1.254 . S
O62 Zn32 2.066 . S
O62 C34 1.256 . S
O63 C34 1.244 . S
O63 Zn35 2.053 . S
Zn64 O65 2.055 . S
Zn64 O72 2.046 . S
Zn64 N80 2.036 . S
Zn64 O92 2.053 . S
Zn64 O94 2.066 . S
O65 Zn64 2.055 . S
O65 C68 1.259 . S
C66 O94 1.256 . S
C66 O95 1.244 . S
Zn67 O69 2.046 . S
Zn67 O71 2.055 . S
Zn67 N73 2.036 . S
Zn67 O91 2.066 . S
Zn67 O95 2.053 . S
C68 O65 1.259 . S
C68 O69 1.254 . S
O69 Zn67 2.046 . S
O69 C68 1.254 . S
C70 O91 1.256 . S
C70 O92 1.244 . S
O71 Zn67 2.055 . S
O71 C93 1.259 . S
O72 Zn64 2.046 . S
O72 C93 1.254 . S
N73 Zn67 2.036 . S
N73 C74 1.298 . S
N73 N76 1.398 . S
C74 N73 1.298 . S
C74 N77 1.367 . S
C74 C87 1.481 . S
C75 N76 1.299 . S
C75 N77 1.379 . S
N76 N73 1.398 . S
N76 C75 1.299 . S
N77 C74 1.367 . S
N77 C75 1.379 . S
C78 N80 1.298 . S
C78 N82 1.367 . S
C78 C86 1.481 . S
C79 N81 1.299 . S
C79 N82 1.379 . S
N80 Zn64 2.036 . S
N80 C78 1.298 . S
N80 N81 1.398 . S
N81 C79 1.299 . S
N81 N80 1.398 . S
N82 C78 1.367 . S
N82 C79 1.379 . S
H83 C86 0.980 . S
H84 C86 0.981 . S
H85 C86 0.981 . S
C86 C78 1.481 . S
C86 H83 0.980 . S
C86 H84 0.981 . S
C86 H85 0.981 . S
C87 C74 1.481 . S
C87 H88 0.980 . S
C87 H89 0.981 . S
C87 H90 0.981 . S
H88 C87 0.980 . S
H89 C87 0.981 . S
H90 C87 0.981 . S
O91 Zn67 2.066 . S
O91 C70 1.256 . S
O92 Zn64 2.053 . S
O92 C70 1.244 . S
C93 O71 1.259 . S
C93 O72 1.254 . S
O94 Zn64 2.066 . S
O94 C66 1.256 . S
O95 C66 1.244 . S
O95 Zn67 2.053 . S
Zn96 O97 2.055 . S
Zn96 O104 2.046 . S
Zn96 N112 2.036 . S
Zn96 O124 2.053 . S
Zn96 O126 2.066 . S
O97 Zn96 2.055 . S
O97 C100 1.259 . S
C98 O126 1.256 . S
C98 O127 1.244 . S
Zn99 O101 2.046 . S
Zn99 O103 2.055 . S
Zn99 N105 2.036 . S
Zn99 O123 2.066 . S
Zn99 O127 2.053 . S
C100 O97 1.259 . S
C100 O101 1.254 . S
O101 Zn99 2.046 . S
O101 C100 1.254 . S
C102 O123 1.256 . S
C102 O124 1.244 . S
O103 Zn99 2.055 . S
O103 C125 1.259 . S
O104 Zn96 2.046 . S
O104 C125 1.254 . S
N105 Zn99 2.036 . S
N105 C106 1.298 . S
N105 N108 1.398 . S
C106 N105 1.298 . S
C106 N109 1.367 . S
C106 C119 1.481 . S
C107 N108 1.299 . S
C107 N109 1.379 . S
N108 N105 1.398 . S
N108 C107 1.299 . S
N109 C106 1.367 . S
N109 C107 1.379 . S
C110 N112 1.298 . S
C110 N114 1.367 . S
C110 C118 1.481 . S
C111 N113 1.299 . S
C111 N114 1.379 . S
N112 Zn96 2.036 . S
N112 C110 1.298 . S
N112 N113 1.398 . S
N113 C111 1.299 . S
N113 N112 1.398 . S
N114 C110 1.367 . S
N114 C111 1.379 . S
H115 C118 0.980 . S
H116 C118 0.981 . S
H117 C118 0.981 . S
C118 C110 1.481 . S
C118 H115 0.980 . S
C118 H116 0.981 . S
C118 H117 0.981 . S
C119 C106 1.481 . S
C119 H120 0.980 . S
C119 H121 0.981 . S
C119 H122 0.981 . S
H120 C119 0.980 . S
H121 C119 0.981 . S
H122 C119 0.981 . S
O123 Zn99 2.066 . S
O123 C102 1.256 . S
O124 Zn96 2.053 . S
O124 C102 1.244 . S
C125 O103 1.259 . S
C125 O104 1.254 . S
O126 Zn96 2.066 . S
O126 C98 1.256 . S
O127 C98 1.244 . S
O127 Zn99 2.053 . S
Zn128 O129 2.055 . S
Zn128 O136 2.046 . S
Zn128 N144 2.036 . S
Zn128 O156 2.053 . S
Zn128 O158 2.066 . S
O129 Zn128 2.055 . S
O129 C132 1.259 . S
C130 O158 1.256 . S
C130 O159 1.244 . S
Zn131 O133 2.046 . S
Zn131 O135 2.055 . S
Zn131 N137 2.036 . S
Zn131 O155 2.066 . S
Zn131 O159 2.053 . S
C132 O129 1.259 . S
C132 O133 1.254 . S
O133 Zn131 2.046 . S
O133 C132 1.254 . S
C134 O155 1.256 . S
C134 O156 1.244 . S
O135 Zn131 2.055 . S
O135 C157 1.259 . S
O136 Zn128 2.046 . S
O136 C157 1.254 . S
N137 Zn131 2.036 . S
N137 C138 1.298 . S
N137 N140 1.398 . S
C138 N137 1.298 . S
C138 N141 1.367 . S
C138 C151 1.481 . S
C139 N140 1.299 . S
C139 N141 1.379 . S
N140 N137 1.398 . S
N140 C139 1.299 . S
N141 C138 1.367 . S
N141 C139 1.379 . S
C142 N144 1.298 . S
C142 N146 1.367 . S
C142 C150 1.481 . S
C143 N145 1.299 . S
C143 N146 1.379 . S
N144 Zn128 2.036 . S
N144 C142 1.298 . S
N144 N145 1.398 . S
N145 C143 1.299 . S
N145 N144 1.398 . S
N146 C142 1.367 . S
N146 C143 1.379 . S
H147 C150 0.980 . S
H148 C150 0.981 . S
H149 C150 0.981 . S
C150 C142 1.481 . S
C150 H147 0.980 . S
C150 H148 0.981 . S
C150 H149 0.981 . S
C151 C138 1.481 . S
C151 H152 0.980 . S
C151 H153 0.981 . S
C151 H154 0.981 . S
H152 C151 0.980 . S
H153 C151 0.981 . S
H154 C151 0.981 . S
O155 Zn131 2.066 . S
O155 C134 1.256 . S
O156 Zn128 2.053 . S
O156 C134 1.244 . S
C157 O135 1.259 . S
C157 O136 1.254 . S
O158 Zn128 2.066 . S
O158 C130 1.256 . S
O159 C130 1.244 . S
O159 Zn131 2.053 . S
Zn160 O161 2.055 . S
Zn160 O168 2.046 . S
Zn160 N176 2.036 . S
Zn160 O188 2.053 . S
Zn160 O190 2.066 . S
O161 Zn160 2.055 . S
O161 C164 1.259 . S
C162 O190 1.256 . S
C162 O191 1.244 . S
Zn163 O165 2.046 . S
Zn163 O167 2.055 . S
Zn163 N169 2.036 . S
Zn163 O187 2.066 . S
Zn163 O191 2.053 . S
C164 O161 1.259 . S
C164 O165 1.254 . S
O165 Zn163 2.046 . S
O165 C164 1.254 . S
C166 O187 1.256 . S
C166 O188 1.244 . S
O167 Zn163 2.055 . S
O167 C189 1.259 . S
O168 Zn160 2.046 . S
O168 C189 1.254 . S
N169 Zn163 2.036 . S
N169 C170 1.298 . S
N169 N172 1.398 . S
C170 N169 1.298 . S
C170 N173 1.367 . S
C170 C183 1.481 . S
C171 N172 1.299 . S
C171 N173 1.379 . S
N172 N169 1.398 . S
N172 C171 1.299 . S
N173 C170 1.367 . S
N173 C171 1.379 . S
C174 N176 1.298 . S
C174 N178 1.367 . S
C174 C182 1.481 . S
C175 N177 1.299 . S
C175 N178 1.379 . S
N176 Zn160 2.036 . S
N176 C174 1.298 . S
N176 N177 1.398 . S
N177 C175 1.299 . S
N177 N176 1.398 . S
N178 C174 1.367 . S
N178 C175 1.379 . S
H179 C182 0.980 . S
H180 C182 0.981 . S
H181 C182 0.981 . S
C182 C174 1.481 . S
C182 H179 0.980 . S
C182 H180 0.981 . S
C182 H181 0.981 . S
C183 C170 1.481 . S
C183 H184 0.980 . S
C183 H185 0.981 . S
C183 H186 0.981 . S
H184 C183 0.980 . S
H185 C183 0.981 . S
H186 C183 0.981 . S
O187 Zn163 2.066 . S
O187 C166 1.256 . S
O188 Zn160 2.053 . S
O188 C166 1.244 . S
C189 O167 1.259 . S
C189 O168 1.254 . S
O190 Zn160 2.066 . S
O190 C162 1.256 . S
O191 C162 1.244 . S
O191 Zn163 2.053 . S
Zn192 O193 2.055 . S
Zn192 O200 2.046 . S
Zn192 N208 2.036 . S
Zn192 O220 2.053 . S
Zn192 O222 2.066 . S
O193 Zn192 2.055 . S
O193 C196 1.259 . S
C194 O222 1.256 . S
C194 O223 1.244 . S
Zn195 O197 2.046 . S
Zn195 O199 2.055 . S
Zn195 N201 2.036 . S
Zn195 O219 2.066 . S
Zn195 O223 2.053 . S
C196 O193 1.259 . S
C196 O197 1.254 . S
O197 Zn195 2.046 . S
O197 C196 1.254 . S
C198 O219 1.256 . S
C198 O220 1.244 . S
O199 Zn195 2.055 . S
O199 C221 1.259 . S
O200 Zn192 2.046 . S
O200 C221 1.254 . S
N201 Zn195 2.036 . S
N201 C202 1.298 . S
N201 N204 1.398 . S
C202 N201 1.298 . S
C202 N205 1.367 . S
C202 C215 1.481 . S
C203 N204 1.299 . S
C203 N205 1.379 . S
N204 N201 1.398 . S
N204 C203 1.299 . S
N205 C202 1.367 . S
N205 C203 1.379 . S
C206 N208 1.298 . S
C206 N210 1.367 . S
C206 C214 1.481 . S
C207 N209 1.299 . S
C207 N210 1.379 . S
N208 Zn192 2.036 . S
N208 C206 1.298 . S
N208 N209 1.398 . S
N209 C207 1.299 . S
N209 N208 1.398 . S
N210 C206 1.367 . S
N210 C207 1.379 . S
H211 C214 0.980 . S
H212 C214 0.981 . S
H213 C214 0.981 . S
C214 C206 1.481 . S
C214 H211 0.980 . S
C214 H212 0.981 . S
C214 H213 0.981 . S
C215 C202 1.481 . S
C215 H216 0.980 . S
C215 H217 0.981 . S
C215 H218 0.981 . S
H216 C215 0.980 . S
H217 C215 0.981 . S
H218 C215 0.981 . S
O219 Zn195 2.066 . S
O219 C198 1.256 . S
O220 Zn192 2.053 . S
O220 C198 1.244 . S
C221 O199 1.259 . S
C221 O200 1.254 . S
O222 Zn192 2.066 . S
O222 C194 1.256 . S
O223 C194 1.244 . S
O223 Zn195 2.053 . S
Zn224 O225 2.055 . S
Zn224 O232 2.046 . S
Zn224 N240 2.036 . S
Zn224 O252 2.053 . S
Zn224 O254 2.066 . S
O225 Zn224 2.055 . S
O225 C228 1.259 . S
C226 O254 1.256 . S
C226 O255 1.244 . S
Zn227 O229 2.046 . S
Zn227 O231 2.055 . S
Zn227 N233 2.036 . S
Zn227 O251 2.066 . S
Zn227 O255 2.053 . S
C228 O225 1.259 . S
C228 O229 1.254 . S
O229 Zn227 2.046 . S
O229 C228 1.254 . S
C230 O251 1.256 . S
C230 O252 1.244 . S
O231 Zn227 2.055 . S
O231 C253 1.259 . S
O232 Zn224 2.046 . S
O232 C253 1.254 . S
N233 Zn227 2.036 . S
N233 C234 1.298 . S
N233 N236 1.398 . S
C234 N233 1.298 . S
C234 N237 1.367 . S
C234 C247 1.481 . S
C235 N236 1.299 . S
C235 N237 1.379 . S
N236 N233 1.398 . S
N236 C235 1.299 . S
N237 C234 1.367 . S
N237 C235 1.379 . S
C238 N240 1.298 . S
C238 N242 1.367 . S
C238 C246 1.481 . S
C239 N241 1.299 . S
C239 N242 1.379 . S
N240 Zn224 2.036 . S
N240 C238 1.298 . S
N240 N241 1.398 . S
N241 C239 1.299 . S
N241 N240 1.398 . S
N242 C238 1.367 . S
N242 C239 1.379 . S
H243 C246 0.980 . S
H244 C246 0.981 . S
H245 C246 0.981 . S
C246 C238 1.481 . S
C246 H243 0.980 . S
C246 H244 0.981 . S
C246 H245 0.981 . S
C247 C234 1.481 . S
C247 H248 0.980 . S
C247 H249 0.981 . S
C247 H250 0.981 . S
H248 C247 0.980 . S
H249 C247 0.981 . S
H250 C247 0.981 . S
O251 Zn227 2.066 . S
O251 C230 1.256 . S
O252 Zn224 2.053 . S
O252 C230 1.244 . S
C253 O231 1.259 . S
C253 O232 1.254 . S
O254 Zn224 2.066 . S
O254 C226 1.256 . S
O255 C226 1.244 . S
O255 Zn227 2.053 . S
Zn256 O257 2.055 . S
Zn256 O264 2.046 . S
Zn256 N272 2.036 . S
Zn256 O284 2.053 . S
Zn256 O286 2.066 . S
O257 Zn256 2.055 . S
O257 C260 1.259 . S
C258 O286 1.256 . S
C258 O287 1.244 . S
Zn259 O261 2.046 . S
Zn259 O263 2.055 . S
Zn259 N265 2.036 . S
Zn259 O283 2.066 . S
Zn259 O287 2.053 . S
C260 O257 1.259 . S
C260 O261 1.254 . S
O261 Zn259 2.046 . S
O261 C260 1.254 . S
C262 O283 1.256 . S
C262 O284 1.244 . S
O263 Zn259 2.055 . S
O263 C285 1.259 . S
O264 Zn256 2.046 . S
O264 C285 1.254 . S
N265 Zn259 2.036 . S
N265 C266 1.298 . S
N265 N268 1.398 . S
C266 N265 1.298 . S
C266 N269 1.367 . S
C266 C279 1.481 . S
C267 N268 1.299 . S
C267 N269 1.379 . S
N268 N265 1.398 . S
N268 C267 1.299 . S
N269 C266 1.367 . S
N269 C267 1.379 . S
C270 N272 1.298 . S
C270 N274 1.367 . S
C270 C278 1.481 . S
C271 N273 1.299 . S
C271 N274 1.379 . S
N272 Zn256 2.036 . S
N272 C270 1.298 . S
N272 N273 1.398 . S
N273 C271 1.299 . S
N273 N272 1.398 . S
N274 C270 1.367 . S
N274 C271 1.379 . S
H275 C278 0.980 . S
H276 C278 0.981 . S
H277 C278 0.981 . S
C278 C270 1.481 . S
C278 H275 0.980 . S
C278 H276 0.981 . S
C278 H277 0.981 . S
C279 C266 1.481 . S
C279 H280 0.980 . S
C279 H281 0.981 . S
C279 H282 0.981 . S
H280 C279 0.980 . S
H281 C279 0.981 . S
H282 C279 0.981 . S
O283 Zn259 2.066 . S
O283 C262 1.256 . S
O284 Zn256 2.053 . S
O284 C262 1.244 . S
C285 O263 1.259 . S
C285 O264 1.254 . S
O286 Zn256 2.066 . S
O286 C258 1.256 . S
O287 C258 1.244 . S
O287 Zn259 2.053 . S
Zn288 O289 2.055 . S
Zn288 O296 2.046 . S
Zn288 N304 2.036 . S
Zn288 O316 2.053 . S
Zn288 O318 2.066 . S
O289 Zn288 2.055 . S
O289 C292 1.259 . S
C290 O318 1.256 . S
C290 O319 1.244 . S
Zn291 O293 2.046 . S
Zn291 O295 2.055 . S
Zn291 N297 2.036 . S
Zn291 O315 2.066 . S
Zn291 O319 2.053 1_565 S
C292 O289 1.259 . S
C292 O293 1.254 1_545 S
O293 Zn291 2.046 . S
O293 C292 1.254 1_565 S
C294 O315 1.256 1_545 S
C294 O316 1.244 . S
O295 Zn291 2.055 . S
O295 C317 1.259 . S
O296 Zn288 2.046 . S
O296 C317 1.254 1_545 S
N297 Zn291 2.036 . S
N297 C298 1.298 . S
N297 N300 1.398 . S
C298 N297 1.298 . S
C298 N301 1.367 . S
C298 C311 1.481 . S
C299 N300 1.299 . S
C299 N301 1.379 . S
N300 N297 1.398 . S
N300 C299 1.299 . S
N301 C298 1.367 . S
N301 C299 1.379 . S
C302 N304 1.298 . S
C302 N306 1.367 . S
C302 C310 1.481 . S
C303 N305 1.299 . S
C303 N306 1.379 . S
N304 Zn288 2.036 . S
N304 C302 1.298 . S
N304 N305 1.398 . S
N305 C303 1.299 . S
N305 N304 1.398 . S
N306 C302 1.367 . S
N306 C303 1.379 . S
H307 C310 0.980 . S
H308 C310 0.981 . S
H309 C310 0.981 . S
C310 C302 1.481 . S
C310 H307 0.980 . S
C310 H308 0.981 . S
C310 H309 0.981 . S
C311 C298 1.481 . S
C311 H312 0.980 . S
C311 H313 0.981 . S
C311 H314 0.981 . S
H312 C311 0.980 . S
H313 C311 0.981 . S
H314 C311 0.981 . S
O315 Zn291 2.066 . S
O315 C294 1.256 1_565 S
O316 Zn288 2.053 . S
O316 C294 1.244 . S
C317 O295 1.259 . S
C317 O296 1.254 1_565 S
O318 Zn288 2.066 . S
O318 C290 1.256 . S
O319 C290 1.244 . S
O319 Zn291 2.053 1_545 S
Zn320 O321 2.055 . S
Zn320 O328 2.046 . S
Zn320 N336 2.036 . S
Zn320 O348 2.053 . S
Zn320 O350 2.066 . S
O321 Zn320 2.055 . S
O321 C324 1.259 . S
C322 O350 1.256 . S
C322 O351 1.244 . S
Zn323 O325 2.046 . S
Zn323 O327 2.055 . S
Zn323 N329 2.036 . S
Zn323 O347 2.066 . S
Zn323 O351 2.053 . S
C324 O321 1.259 . S
C324 O325 1.254 . S
O325 Zn323 2.046 . S
O325 C324 1.254 . S
C326 O347 1.256 . S
C326 O348 1.244 . S
O327 Zn323 2.055 . S
O327 C349 1.259 . S
O328 Zn320 2.046 . S
O328 C349 1.254 . S
N329 Zn323 2.036 . S
N329 C330 1.298 . S
N329 N332 1.398 . S
C330 N329 1.298 . S
C330 N333 1.367 . S
C330 C343 1.481 . S
C331 N332 1.299 . S
C331 N333 1.379 . S
N332 N329 1.398 . S
N332 C331 1.299 . S
N333 C330 1.367 . S
N333 C331 1.379 . S
C334 N336 1.298 . S
C334 N338 1.367 . S
C334 C342 1.481 . S
C335 N337 1.299 . S
C335 N338 1.379 . S
N336 Zn320 2.036 . S
N336 C334 1.298 . S
N336 N337 1.398 . S
N337 C335 1.299 . S
N337 N336 1.398 . S
N338 C334 1.367 . S
N338 C335 1.379 . S
H339 C342 0.980 . S
H340 C342 0.981 . S
H341 C342 0.981 . S
C342 C334 1.481 . S
C342 H339 0.980 . S
C342 H340 0.981 . S
C342 H341 0.981 . S
C343 C330 1.481 . S
C343 H344 0.980 . S
C343 H345 0.981 . S
C343 H346 0.981 . S
H344 C343 0.980 . S
H345 C343 0.981 . S
H346 C343 0.981 . S
O347 Zn323 2.066 . S
O347 C326 1.256 . S
O348 Zn320 2.053 . S
O348 C326 1.244 . S
C349 O327 1.259 . S
C349 O328 1.254 . S
O350 Zn320 2.066 . S
O350 C322 1.256 . S
O351 C322 1.244 . S
O351 Zn323 2.053 . S
Zn352 O353 2.055 . S
Zn352 O360 2.046 . S
Zn352 N368 2.036 . S
Zn352 O380 2.053 1_545 S
Zn352 O382 2.066 . S
O353 Zn352 2.055 . S
O353 C356 1.259 . S
C354 O382 1.256 1_565 S
C354 O383 1.244 . S
Zn355 O357 2.046 . S
Zn355 O359 2.055 . S
Zn355 N361 2.036 . S
Zn355 O379 2.066 . S
Zn355 O383 2.053 . S
C356 O353 1.259 . S
C356 O357 1.254 1_545 S
O357 Zn355 2.046 . S
O357 C356 1.254 1_565 S
C358 O379 1.256 . S
C358 O380 1.244 . S
O359 Zn355 2.055 . S
O359 C381 1.259 . S
O360 Zn352 2.046 . S
O360 C381 1.254 1_545 S
N361 Zn355 2.036 . S
N361 C362 1.298 . S
N361 N364 1.398 . S
C362 N361 1.298 . S
C362 N365 1.367 . S
C362 C375 1.481 . S
C363 N364 1.299 . S
C363 N365 1.379 . S
N364 N361 1.398 . S
N364 C363 1.299 . S
N365 C362 1.367 . S
N365 C363 1.379 . S
C366 N368 1.298 . S
C366 N370 1.367 . S
C366 C374 1.481 . S
C367 N369 1.299 . S
C367 N370 1.379 . S
N368 Zn352 2.036 . S
N368 C366 1.298 . S
N368 N369 1.398 . S
N369 C367 1.299 . S
N369 N368 1.398 . S
N370 C366 1.367 . S
N370 C367 1.379 . S
H371 C374 0.980 . S
H372 C374 0.981 . S
H373 C374 0.981 . S
C374 C366 1.481 . S
C374 H371 0.980 . S
C374 H372 0.981 . S
C374 H373 0.981 . S
C375 C362 1.481 . S
C375 H376 0.980 . S
C375 H377 0.981 . S
C375 H378 0.981 . S
H376 C375 0.980 . S
H377 C375 0.981 . S
H378 C375 0.981 . S
O379 Zn355 2.066 . S
O379 C358 1.256 . S
O380 Zn352 2.053 1_565 S
O380 C358 1.244 . S
C381 O359 1.259 . S
C381 O360 1.254 1_565 S
O382 Zn352 2.066 . S
O382 C354 1.256 1_545 S
O383 C354 1.244 . S
O383 Zn355 2.053 . S
Zn384 O385 2.055 . S
Zn384 O392 2.046 . S
Zn384 N400 2.036 . S
Zn384 O412 2.053 . S
Zn384 O414 2.066 . S
O385 Zn384 2.055 . S
O385 C388 1.259 . S
C386 O414 1.256 . S
C386 O415 1.244 . S
Zn387 O389 2.046 . S
Zn387 O391 2.055 . S
Zn387 N393 2.036 . S
Zn387 O411 2.066 . S
Zn387 O415 2.053 . S
C388 O385 1.259 . S
C388 O389 1.254 . S
O389 Zn387 2.046 . S
O389 C388 1.254 . S
C390 O411 1.256 . S
C390 O412 1.244 . S
O391 Zn387 2.055 . S
O391 C413 1.259 . S
O392 Zn384 2.046 . S
O392 C413 1.254 . S
N393 Zn387 2.036 . S
N393 C394 1.298 . S
N393 N396 1.398 . S
C394 N393 1.298 . S
C394 N397 1.367 . S
C394 C407 1.481 . S
C395 N396 1.299 . S
C395 N397 1.379 . S
N396 N393 1.398 . S
N396 C395 1.299 . S
N397 C394 1.367 . S
N397 C395 1.379 . S
C398 N400 1.298 . S
C398 N402 1.367 . S
C398 C406 1.481 . S
C399 N401 1.299 . S
C399 N402 1.379 . S
N400 Zn384 2.036 . S
N400 C398 1.298 . S
N400 N401 1.398 . S
N401 C399 1.299 . S
N401 N400 1.398 . S
N402 C398 1.367 . S
N402 C399 1.379 . S
H403 C406 0.980 . S
H404 C406 0.981 . S
H405 C406 0.981 . S
C406 C398 1.481 . S
C406 H403 0.980 . S
C406 H404 0.981 . S
C406 H405 0.981 . S
C407 C394 1.481 . S
C407 H408 0.980 . S
C407 H409 0.981 . S
C407 H410 0.981 . S
H408 C407 0.980 . S
H409 C407 0.981 . S
H410 C407 0.981 . S
O411 Zn387 2.066 . S
O411 C390 1.256 . S
O412 Zn384 2.053 . S
O412 C390 1.244 . S
C413 O391 1.259 . S
C413 O392 1.254 . S
O414 Zn384 2.066 . S
O414 C386 1.256 . S
O415 C386 1.244 . S
O415 Zn387 2.053 . S
Zn416 O417 2.055 . S
Zn416 O424 2.046 . S
Zn416 N432 2.036 . S
Zn416 O444 2.053 . S
Zn416 O446 2.066 . S
O417 Zn416 2.055 . S
O417 C420 1.259 . S
C418 O446 1.256 . S
C418 O447 1.244 . S
Zn419 O421 2.046 . S
Zn419 O423 2.055 . S
Zn419 N425 2.036 . S
Zn419 O443 2.066 . S
Zn419 O447 2.053 1_545 S
C420 O417 1.259 . S
C420 O421 1.254 1_565 S
O421 Zn419 2.046 . S
O421 C420 1.254 1_545 S
C422 O443 1.256 1_565 S
C422 O444 1.244 . S
O423 Zn419 2.055 . S
O423 C445 1.259 . S
O424 Zn416 2.046 . S
O424 C445 1.254 1_565 S
N425 Zn419 2.036 . S
N425 C426 1.298 . S
N425 N428 1.398 . S
C426 N425 1.298 . S
C426 N429 1.367 . S
C426 C439 1.481 . S
C427 N428 1.299 . S
C427 N429 1.379 . S
N428 N425 1.398 . S
N428 C427 1.299 . S
N429 C426 1.367 . S
N429 C427 1.379 . S
C430 N432 1.298 . S
C430 N434 1.367 . S
C430 C438 1.481 . S
C431 N433 1.299 . S
C431 N434 1.379 . S
N432 Zn416 2.036 . S
N432 C430 1.298 . S
N432 N433 1.398 . S
N433 C431 1.299 . S
N433 N432 1.398 . S
N434 C430 1.367 . S
N434 C431 1.379 . S
H435 C438 0.980 . S
H436 C438 0.981 . S
H437 C438 0.981 . S
C438 C430 1.481 . S
C438 H435 0.980 . S
C438 H436 0.981 . S
C438 H437 0.981 . S
C439 C426 1.481 . S
C439 H440 0.980 . S
C439 H441 0.981 . S
C439 H442 0.981 . S
H440 C439 0.980 . S
H441 C439 0.981 . S
H442 C439 0.981 . S
O443 Zn419 2.066 . S
O443 C422 1.256 1_545 S
O444 Zn416 2.053 . S
O444 C422 1.244 . S
C445 O423 1.259 . S
C445 O424 1.254 1_545 S
O446 Zn416 2.066 . S
O446 C418 1.256 . S
O447 C418 1.244 . S
O447 Zn419 2.053 1_565 S
Zn448 O449 2.055 . S
Zn448 O456 2.046 . S
Zn448 N464 2.036 . S
Zn448 O476 2.053 . S
Zn448 O478 2.066 . S
O449 Zn448 2.055 . S
O449 C452 1.259 . S
C450 O478 1.256 . S
C450 O479 1.244 . S
Zn451 O453 2.046 . S
Zn451 O455 2.055 . S
Zn451 N457 2.036 . S
Zn451 O475 2.066 . S
Zn451 O479 2.053 . S
C452 O449 1.259 . S
C452 O453 1.254 . S
O453 Zn451 2.046 . S
O453 C452 1.254 . S
C454 O475 1.256 . S
C454 O476 1.244 . S
O455 Zn451 2.055 . S
O455 C477 1.259 . S
O456 Zn448 2.046 . S
O456 C477 1.254 . S
N457 Zn451 2.036 . S
N457 C458 1.298 . S
N457 N460 1.398 . S
C458 N457 1.298 . S
C458 N461 1.367 . S
C458 C471 1.481 . S
C459 N460 1.299 . S
C459 N461 1.379 . S
N460 N457 1.398 . S
N460 C459 1.299 . S
N461 C458 1.367 . S
N461 C459 1.379 . S
C462 N464 1.298 . S
C462 N466 1.367 . S
C462 C470 1.481 . S
C463 N465 1.299 . S
C463 N466 1.379 . S
N464 Zn448 2.036 . S
N464 C462 1.298 . S
N464 N465 1.398 . S
N465 C463 1.299 . S
N465 N464 1.398 . S
N466 C462 1.367 . S
N466 C463 1.379 . S
H467 C470 0.980 . S
H468 C470 0.981 . S
H469 C470 0.981 . S
C470 C462 1.481 . S
C470 H467 0.980 . S
C470 H468 0.981 . S
C470 H469 0.981 . S
C471 C458 1.481 . S
C471 H472 0.980 . S
C471 H473 0.981 . S
C471 H474 0.981 . S
H472 C471 0.980 . S
H473 C471 0.981 . S
H474 C471 0.981 . S
O475 Zn451 2.066 . S
O475 C454 1.256 . S
O476 Zn448 2.053 . S
O476 C454 1.244 . S
C477 O455 1.259 . S
C477 O456 1.254 . S
O478 Zn448 2.066 . S
O478 C450 1.256 . S
O479 C450 1.244 . S
O479 Zn451 2.053 . S
Zn480 O481 2.055 . S
Zn480 O488 2.046 . S
Zn480 N496 2.036 . S
Zn480 O508 2.053 1_565 S
Zn480 O510 2.066 . S
O481 Zn480 2.055 . S
O481 C484 1.259 . S
C482 O510 1.256 1_545 S
C482 O511 1.244 . S
Zn483 O485 2.046 . S
Zn483 O487 2.055 . S
Zn483 N489 2.036 . S
Zn483 O507 2.066 . S
Zn483 O511 2.053 . S
C484 O481 1.259 . S
C484 O485 1.254 1_565 S
O485 Zn483 2.046 . S
O485 C484 1.254 1_545 S
C486 O507 1.256 . S
C486 O508 1.244 . S
O487 Zn483 2.055 . S
O487 C509 1.259 . S
O488 Zn480 2.046 . S
O488 C509 1.254 1_565 S
N489 Zn483 2.036 . S
N489 C490 1.298 . S
N489 N492 1.398 . S
C490 N489 1.298 . S
C490 N493 1.367 . S
C490 C503 1.481 . S
C491 N492 1.299 . S
C491 N493 1.379 . S
N492 N489 1.398 . S
N492 C491 1.299 . S
N493 C490 1.367 . S
N493 C491 1.379 . S
C494 N496 1.298 . S
C494 N498 1.367 . S
C494 C502 1.481 . S
C495 N497 1.299 . S
C495 N498 1.379 . S
N496 Zn480 2.036 . S
N496 C494 1.298 . S
N496 N497 1.398 . S
N497 C495 1.299 . S
N497 N496 1.398 . S
N498 C494 1.367 . S
N498 C495 1.379 . S
H499 C502 0.980 . S
H500 C502 0.981 . S
H501 C502 0.981 . S
C502 C494 1.481 . S
C502 H499 0.980 . S
C502 H500 0.981 . S
C502 H501 0.981 . S
C503 C490 1.481 . S
C503 H504 0.980 . S
C503 H505 0.981 . S
C503 H506 0.981 . S
H504 C503 0.980 . S
H505 C503 0.981 . S
H506 C503 0.981 . S
O507 Zn483 2.066 . S
O507 C486 1.256 . S
O508 Zn480 2.053 1_545 S
O508 C486 1.244 . S
C509 O487 1.259 . S
C509 O488 1.254 1_545 S
O510 Zn480 2.066 . S
O510 C482 1.256 1_565 S
O511 C482 1.244 . S
O511 Zn483 2.053 . S
H512 C520 0.950 . S
H513 C525 0.950 . S
H514 C522 0.950 . S
H515 C524 0.950 . S
H516 C526 0.950 . S
H517 C528 0.950 . S
H518 C530 0.950 . S
H519 C531 0.950 . S
C520 H512 0.950 . S
C520 C521 1.386 . S
C520 C522 1.391 . S
C521 C520 1.386 . S
C521 C525 1.393 . S
C522 H514 0.950 . S
C522 C520 1.391 . S
C522 C523 1.400 . S
C523 C522 1.400 . S
C523 C524 1.398 . S
C523 C529 1.491 . S
C524 H515 0.950 . S
C524 C523 1.398 . S
C524 C525 1.391 . S
C525 H513 0.950 . S
C525 C521 1.393 . S
C525 C524 1.391 . S
C526 H516 0.950 . S
C526 C527 1.386 . S
C526 C528 1.391 . S
C527 C526 1.386 . S
C527 C531 1.393 . S
C528 H517 0.950 . S
C528 C526 1.391 . S
C528 C529 1.400 . S
C529 C523 1.491 . S
C529 C528 1.400 . S
C529 C530 1.398 . S
C530 H518 0.950 . S
C530 C529 1.398 . S
C530 C531 1.391 . S
C531 H519 0.950 . S
C531 C527 1.393 . S
C531 C530 1.391 . S
H532 C540 0.950 . S
H533 C545 0.950 . S
H534 C542 0.950 . S
H535 C544 0.950 . S
H536 C546 0.950 . S
H537 C548 0.950 . S
H538 C550 0.950 . S
H539 C551 0.950 . S
C540 H532 0.950 . S
C540 C541 1.386 . S
C540 C542 1.391 . S
C541 C540 1.386 . S
C541 C545 1.393 . S
C542 H534 0.950 . S
C542 C540 1.391 . S
C542 C543 1.400 . S
C543 C542 1.400 . S
C543 C544 1.398 . S
C543 C549 1.491 . S
C544 H535 0.950 . S
C544 C543 1.398 . S
C544 C545 1.391 . S
C545 H533 0.950 . S
C545 C541 1.393 . S
C545 C544 1.391 . S
C546 H536 0.950 . S
C546 C547 1.386 . S
C546 C548 1.391 . S
C547 C546 1.386 . S
C547 C551 1.393 . S
C548 H537 0.950 . S
C548 C546 1.391 . S
C548 C549 1.400 . S
C549 C543 1.491 . S
C549 C548 1.400 . S
C549 C550 1.398 . S
C550 H538 0.950 . S
C550 C549 1.398 . S
C550 C551 1.391 . S
C551 H539 0.950 . S
C551 C547 1.393 . S
C551 C550 1.391 . S
H552 C560 0.950 . S
H553 C565 0.950 . S
H554 C562 0.950 . S
H555 C564 0.950 . S
H556 C566 0.950 . S
H557 C568 0.950 . S
H558 C570 0.950 . S
H559 C571 0.950 . S
C560 H552 0.950 . S
C560 C561 1.386 . S
C560 C562 1.391 . S
C561 C560 1.386 . S
C561 C565 1.393 . S
C562 H554 0.950 . S
C562 C560 1.391 . S
C562 C563 1.400 . S
C563 C562 1.400 . S
C563 C564 1.398 . S
C563 C569 1.491 . S
C564 H555 0.950 . S
C564 C563 1.398 . S
C564 C565 1.391 . S
C565 H553 0.950 . S
C565 C561 1.393 . S
C565 C564 1.391 . S
C566 H556 0.950 . S
C566 C567 1.386 . S
C566 C568 1.391 . S
C567 C566 1.386 . S
C567 C571 1.393 . S
C568 H557 0.950 . S
C568 C566 1.391 . S
C568 C569 1.400 . S
C569 C563 1.491 . S
C569 C568 1.400 . S
C569 C570 1.398 . S
C570 H558 0.950 . S
C570 C569 1.398 . S
C570 C571 1.391 . S
C571 H559 0.950 . S
C571 C567 1.393 . S
C571 C570 1.391 . S
H572 C580 0.950 . S
H573 C585 0.950 . S
H574 C582 0.950 1_554 S
H575 C584 0.950 1_455 S
H576 C586 0.950 . S
H577 C588 0.950 1_556 S
H578 C590 0.950 1_655 S
H579 C591 0.950 . S
C580 H572 0.950 . S
C580 C581 1.386 . S
C580 C582 1.391 . S
C581 C580 1.386 . S
C581 C585 1.393 . S
C582 H574 0.950 1_556 S
C582 C580 1.391 . S
C582 C583 1.400 . S
C583 C582 1.400 . S
C583 C584 1.398 . S
C583 C589 1.491 1_656 S
C584 H575 0.950 1_655 S
C584 C583 1.398 . S
C584 C585 1.391 . S
C585 H573 0.950 . S
C585 C581 1.393 . S
C585 C584 1.391 . S
C586 H576 0.950 . S
C586 C587 1.386 . S
C586 C588 1.391 . S
C587 C586 1.386 . S
C587 C591 1.393 . S
C588 H577 0.950 1_554 S
C588 C586 1.391 . S
C588 C589 1.400 . S
C589 C583 1.491 1_454 S
C589 C588 1.400 . S
C589 C590 1.398 . S
C590 H578 0.950 1_455 S
C590 C589 1.398 . S
C590 C591 1.391 . S
C591 H579 0.950 . S
C591 C587 1.393 . S
C591 C590 1.391 . S
H592 C600 0.950 . S
H593 C605 0.950 . S
H594 C602 0.950 . S
H595 C604 0.950 . S
H596 C606 0.950 . S
H597 C608 0.950 . S
H598 C610 0.950 . S
H599 C611 0.950 . S
C600 H592 0.950 . S
C600 C601 1.386 . S
C600 C602 1.391 . S
C601 C600 1.386 . S
C601 C605 1.393 . S
C602 H594 0.950 . S
C602 C600 1.391 . S
C602 C603 1.400 . S
C603 C602 1.400 . S
C603 C604 1.398 . S
C603 C609 1.491 . S
C604 H595 0.950 . S
C604 C603 1.398 . S
C604 C605 1.391 . S
C605 H593 0.950 . S
C605 C601 1.393 . S
C605 C604 1.391 . S
C606 H596 0.950 . S
C606 C607 1.386 . S
C606 C608 1.391 . S
C607 C606 1.386 . S
C607 C611 1.393 . S
C608 H597 0.950 . S
C608 C606 1.391 . S
C608 C609 1.400 . S
C609 C603 1.491 . S
C609 C608 1.400 . S
C609 C610 1.398 . S
C610 H598 0.950 . S
C610 C609 1.398 . S
C610 C611 1.391 . S
C611 H599 0.950 . S
C611 C607 1.393 . S
C611 C610 1.391 . S
H612 C620 0.950 . S
H613 C625 0.950 . S
H614 C622 0.950 . S
H615 C624 0.950 . S
H616 C626 0.950 . S
H617 C628 0.950 . S
H618 C630 0.950 . S
H619 C631 0.950 . S
C620 H612 0.950 . S
C620 C621 1.386 . S
C620 C622 1.391 . S
C621 C620 1.386 . S
C621 C625 1.393 . S
C622 H614 0.950 . S
C622 C620 1.391 . S
C622 C623 1.400 . S
C623 C622 1.400 . S
C623 C624 1.398 . S
C623 C629 1.491 . S
C624 H615 0.950 . S
C624 C623 1.398 . S
C624 C625 1.391 . S
C625 H613 0.950 . S
C625 C621 1.393 . S
C625 C624 1.391 . S
C626 H616 0.950 . S
C626 C627 1.386 . S
C626 C628 1.391 . S
C627 C626 1.386 . S
C627 C631 1.393 . S
C628 H617 0.950 . S
C628 C626 1.391 . S
C628 C629 1.400 . S
C629 C623 1.491 . S
C629 C628 1.400 . S
C629 C630 1.398 . S
C630 H618 0.950 . S
C630 C629 1.398 . S
C630 C631 1.391 . S
C631 H619 0.950 . S
C631 C627 1.393 . S
C631 C630 1.391 . S
H632 C640 0.950 . S
H633 C645 0.950 . S
H634 C642 0.949 1_546 S
H635 C644 0.950 1_455 S
H636 C646 0.950 . S
H637 C648 0.949 1_564 S
H638 C650 0.950 1_655 S
H639 C651 0.950 . S
C640 H632 0.950 . S
C640 C641 1.386 . S
C640 C642 1.391 . S
C641 C640 1.386 . S
C641 C645 1.393 . S
C642 H634 0.949 1_564 S
C642 C640 1.391 . S
C642 C643 1.400 . S
C643 C642 1.400 . S
C643 C644 1.398 . S
C643 C649 1.491 1_664 S
C644 H635 0.950 1_655 S
C644 C643 1.398 . S
C644 C645 1.391 . S
C645 H633 0.950 . S
C645 C641 1.393 . S
C645 C644 1.391 . S
C646 H636 0.950 . S
C646 C647 1.386 . S
C646 C648 1.391 . S
C647 C646 1.386 . S
C647 C651 1.393 . S
C648 H637 0.949 1_546 S
C648 C646 1.391 . S
C648 C649 1.400 . S
C649 C643 1.491 1_446 S
C649 C648 1.400 . S
C649 C650 1.398 . S
C650 H638 0.950 1_455 S
C650 C649 1.398 . S
C650 C651 1.391 . S
C651 H639 0.950 . S
C651 C647 1.393 . S
C651 C650 1.391 . S
H652 C660 0.950 . S
H653 C665 0.950 . S
H654 C662 0.950 . S
H655 C664 0.950 . S
H656 C666 0.950 . S
H657 C668 0.950 . S
H658 C670 0.950 . S
H659 C671 0.950 . S
C660 H652 0.950 . S
C660 C661 1.386 . S
C660 C662 1.391 1_565 S
C661 C660 1.386 . S
C661 C665 1.393 . S
C662 H654 0.950 . S
C662 C660 1.391 1_545 S
C662 C663 1.400 1_545 S
C663 C662 1.400 1_565 S
C663 C664 1.398 . S
C663 C669 1.491 1_565 S
C664 H655 0.950 . S
C664 C663 1.398 . S
C664 C665 1.391 . S
C665 H653 0.950 . S
C665 C661 1.393 . S
C665 C664 1.391 . S
C666 H656 0.950 . S
C666 C667 1.386 . S
C666 C668 1.391 1_545 S
C667 C666 1.386 . S
C667 C671 1.393 . S
C668 H657 0.950 . S
C668 C666 1.391 1_565 S
C668 C669 1.400 1_565 S
C669 C663 1.491 1_545 S
C669 C668 1.400 1_545 S
C669 C670 1.398 . S
C670 H658 0.950 . S
C670 C669 1.398 . S
C670 C671 1.391 . S
C671 H659 0.950 . S
C671 C667 1.393 . S
C671 C670 1.391 . S
H672 C680 0.950 . S
H673 C685 0.950 . S
H674 C682 0.950 . S
H675 C684 0.950 1_554 S
H676 C686 0.950 . S
H677 C688 0.950 . S
H678 C690 0.950 1_556 S
H679 C691 0.950 . S
C680 H672 0.950 . S
C680 C681 1.386 . S
C680 C682 1.391 . S
C681 C680 1.386 . S
C681 C685 1.393 . S
C682 H674 0.950 . S
C682 C680 1.391 . S
C682 C683 1.400 . S
C683 C682 1.400 . S
C683 C684 1.398 . S
C683 C689 1.491 1_556 S
C684 H675 0.950 1_556 S
C684 C683 1.398 . S
C684 C685 1.391 . S
C685 H673 0.950 . S
C685 C681 1.393 . S
C685 C684 1.391 . S
C686 H676 0.950 . S
C686 C687 1.386 . S
C686 C688 1.391 . S
C687 C686 1.386 . S
C687 C691 1.393 . S
C688 H677 0.950 . S
C688 C686 1.391 . S
C688 C689 1.400 . S
C689 C683 1.491 1_554 S
C689 C688 1.400 . S
C689 C690 1.398 . S
C690 H678 0.950 1_554 S
C690 C689 1.398 . S
C690 C691 1.391 . S
C691 H679 0.950 . S
C691 C687 1.393 . S
C691 C690 1.391 . S
H692 C700 0.950 . S
H693 C705 0.950 . S
H694 C702 0.950 . S
H695 C704 0.950 . S
H696 C706 0.950 . S
H697 C708 0.950 . S
H698 C710 0.950 . S
H699 C711 0.950 . S
C700 H692 0.950 . S
C700 C701 1.386 . S
C700 C702 1.391 . S
C701 C700 1.386 . S
C701 C705 1.393 . S
C702 H694 0.950 . S
C702 C700 1.391 . S
C702 C703 1.400 . S
C703 C702 1.400 . S
C703 C704 1.398 . S
C703 C709 1.491 . S
C704 H695 0.950 . S
C704 C703 1.398 . S
C704 C705 1.391 . S
C705 H693 0.950 . S
C705 C701 1.393 . S
C705 C704 1.391 . S
C706 H696 0.950 . S
C706 C707 1.386 . S
C706 C708 1.391 . S
C707 C706 1.386 . S
C707 C711 1.393 . S
C708 H697 0.950 . S
C708 C706 1.391 . S
C708 C709 1.400 . S
C709 C703 1.491 . S
C709 C708 1.400 . S
C709 C710 1.398 . S
C710 H698 0.950 . S
C710 C709 1.398 . S
C710 C711 1.391 . S
C711 H699 0.950 . S
C711 C707 1.393 . S
C711 C710 1.391 . S
H712 C720 0.950 . S
H713 C725 0.950 . S
H714 C722 0.950 . S
H715 C724 0.950 . S
H716 C726 0.950 . S
H717 C728 0.950 . S
H718 C730 0.950 . S
H719 C731 0.950 . S
C720 H712 0.950 . S
C720 C721 1.386 . S
C720 C722 1.391 . S
C721 C720 1.386 . S
C721 C725 1.393 . S
C722 H714 0.950 . S
C722 C720 1.391 . S
C722 C723 1.400 . S
C723 C722 1.400 . S
C723 C724 1.398 . S
C723 C729 1.491 . S
C724 H715 0.950 . S
C724 C723 1.398 . S
C724 C725 1.391 . S
C725 H713 0.950 . S
C725 C721 1.393 . S
C725 C724 1.391 . S
C726 H716 0.950 . S
C726 C727 1.386 . S
C726 C728 1.391 . S
C727 C726 1.386 . S
C727 C731 1.393 . S
C728 H717 0.950 . S
C728 C726 1.391 . S
C728 C729 1.400 . S
C729 C723 1.491 . S
C729 C728 1.400 . S
C729 C730 1.398 . S
C730 H718 0.950 . S
C730 C729 1.398 . S
C730 C731 1.391 . S
C731 H719 0.950 . S
C731 C727 1.393 . S
C731 C730 1.391 . S
H732 C740 0.950 . S
H733 C745 0.950 . S
H734 C742 0.950 . S
H735 C744 0.950 . S
H736 C746 0.950 . S
H737 C748 0.950 . S
H738 C750 0.950 . S
H739 C751 0.950 . S
C740 H732 0.950 . S
C740 C741 1.386 . S
C740 C742 1.391 . S
C741 C740 1.386 . S
C741 C745 1.393 . S
C742 H734 0.950 . S
C742 C740 1.391 . S
C742 C743 1.400 . S
C743 C742 1.400 . S
C743 C744 1.398 . S
C743 C749 1.491 . S
C744 H735 0.950 . S
C744 C743 1.398 . S
C744 C745 1.391 . S
C745 H733 0.950 . S
C745 C741 1.393 . S
C745 C744 1.391 . S
C746 H736 0.950 . S
C746 C747 1.386 . S
C746 C748 1.391 . S
C747 C746 1.386 . S
C747 C751 1.393 . S
C748 H737 0.950 . S
C748 C746 1.391 . S
C748 C749 1.400 . S
C749 C743 1.491 . S
C749 C748 1.400 . S
C749 C750 1.398 . S
C750 H738 0.950 . S
C750 C749 1.398 . S
C750 C751 1.391 . S
C751 H739 0.950 . S
C751 C747 1.393 . S
C751 C750 1.391 . S
H752 C760 0.950 . S
H753 C765 0.950 . S
H754 C762 0.950 . S
H755 C764 0.950 . S
H756 C766 0.950 . S
H757 C768 0.950 . S
H758 C770 0.950 . S
H759 C771 0.950 . S
C760 H752 0.950 . S
C760 C761 1.386 . S
C760 C762 1.391 . S
C761 C760 1.386 . S
C761 C765 1.393 . S
C762 H754 0.950 . S
C762 C760 1.391 . S
C762 C763 1.400 . S
C763 C762 1.400 . S
C763 C764 1.398 . S
C763 C769 1.491 1_554 S
C764 H755 0.950 . S
C764 C763 1.398 . S
C764 C765 1.391 . S
C765 H753 0.950 . S
C765 C761 1.393 . S
C765 C764 1.391 . S
C766 H756 0.950 . S
C766 C767 1.386 . S
C766 C768 1.391 . S
C767 C766 1.386 . S
C767 C771 1.393 . S
C768 H757 0.950 . S
C768 C766 1.391 . S
C768 C769 1.400 . S
C769 C763 1.491 1_556 S
C769 C768 1.400 . S
C769 C770 1.398 . S
C770 H758 0.950 . S
C770 C769 1.398 . S
C770 C771 1.391 . S
C771 H759 0.950 . S
C771 C767 1.393 . S
C771 C770 1.391 . S
H772 C780 0.950 . S
H773 C785 0.950 . S
H774 C782 0.950 . S
H775 C784 0.950 . S
H776 C786 0.950 . S
H777 C788 0.950 . S
H778 C790 0.950 . S
H779 C791 0.950 . S
C780 H772 0.950 . S
C780 C781 1.386 . S
C780 C782 1.391 . S
C781 C780 1.386 . S
C781 C785 1.393 . S
C782 H774 0.950 . S
C782 C780 1.391 . S
C782 C783 1.400 . S
C783 C782 1.400 . S
C783 C784 1.398 . S
C783 C789 1.491 . S
C784 H775 0.950 . S
C784 C783 1.398 . S
C784 C785 1.391 . S
C785 H773 0.950 . S
C785 C781 1.393 . S
C785 C784 1.391 . S
C786 H776 0.950 . S
C786 C787 1.386 . S
C786 C788 1.391 . S
C787 C786 1.386 . S
C787 C791 1.393 . S
C788 H777 0.950 . S
C788 C786 1.391 . S
C788 C789 1.400 . S
C789 C783 1.491 . S
C789 C788 1.400 . S
C789 C790 1.398 . S
C790 H778 0.950 . S
C790 C789 1.398 . S
C790 C791 1.391 . S
C791 H779 0.950 . S
C791 C787 1.393 . S
C791 C790 1.391 . S
H792 C800 0.950 . S
H793 C805 0.950 . S
H794 C802 0.950 . S
H795 C804 0.950 . S
H796 C806 0.950 . S
H797 C808 0.950 . S
H798 C810 0.950 . S
H799 C811 0.950 . S
C800 H792 0.950 . S
C800 C801 1.386 . S
C800 C802 1.391 . S
C801 C800 1.386 . S
C801 C805 1.393 . S
C802 H794 0.950 . S
C802 C800 1.391 . S
C802 C803 1.400 . S
C803 C802 1.400 . S
C803 C804 1.398 . S
C803 C809 1.491 . S
C804 H795 0.950 . S
C804 C803 1.398 . S
C804 C805 1.391 . S
C805 H793 0.950 . S
C805 C801 1.393 . S
C805 C804 1.391 . S
C806 H796 0.950 . S
C806 C807 1.386 . S
C806 C808 1.391 . S
C807 C806 1.386 . S
C807 C811 1.393 . S
C808 H797 0.950 . S
C808 C806 1.391 . S
C808 C809 1.400 . S
C809 C803 1.491 . S
C809 C808 1.400 . S
C809 C810 1.398 . S
C810 H798 0.950 . S
C810 C809 1.398 . S
C810 C811 1.391 . S
C811 H799 0.950 . S
C811 C807 1.393 . S
C811 C810 1.391 . S
H812 C820 0.950 . S
H813 C825 0.950 . S
H814 C822 0.950 . S
H815 C824 0.950 . S
H816 C826 0.950 . S
H817 C828 0.950 . S
H818 C830 0.950 . S
H819 C831 0.950 . S
C820 H812 0.950 . S
C820 C821 1.386 . S
C820 C822 1.391 . S
C821 C820 1.386 . S
C821 C825 1.393 . S
C822 H814 0.950 . S
C822 C820 1.391 . S
C822 C823 1.400 . S
C823 C822 1.400 . S
C823 C824 1.398 . S
C823 C829 1.491 . S
C824 H815 0.950 . S
C824 C823 1.398 . S
C824 C825 1.391 . S
C825 H813 0.950 . S
C825 C821 1.393 . S
C825 C824 1.391 . S
C826 H816 0.950 . S
C826 C827 1.386 . S
C826 C828 1.391 . S
C827 C826 1.386 . S
C827 C831 1.393 . S
C828 H817 0.950 . S
C828 C826 1.391 . S
C828 C829 1.400 . S
C829 C823 1.491 . S
C829 C828 1.400 . S
C829 C830 1.398 . S
C830 H818 0.950 . S
C830 C829 1.398 . S
C830 C831 1.391 . S
C831 H819 0.950 . S
C831 C827 1.393 . S
C831 C830 1.391 . S
H832 C840 0.950 . S
H833 C845 0.950 . S
H834 C842 0.950 . S
H835 C844 0.950 . S
H836 C846 0.950 . S
H837 C848 0.950 . S
H838 C850 0.950 . S
H839 C851 0.950 . S
C840 H832 0.950 . S
C840 C841 1.386 . S
C840 C842 1.391 . S
C841 C840 1.386 . S
C841 C845 1.393 . S
C842 H834 0.950 . S
C842 C840 1.391 . S
C842 C843 1.400 . S
C843 C842 1.400 . S
C843 C844 1.398 . S
C843 C849 1.491 . S
C844 H835 0.950 . S
C844 C843 1.398 . S
C844 C845 1.391 . S
C845 H833 0.950 . S
C845 C841 1.393 . S
C845 C844 1.391 . S
C846 H836 0.950 . S
C846 C847 1.386 . S
C846 C848 1.391 . S
C847 C846 1.386 . S
C847 C851 1.393 . S
C848 H837 0.950 . S
C848 C846 1.391 . S
C848 C849 1.400 . S
C849 C843 1.491 . S
C849 C848 1.400 . S
C849 C850 1.398 . S
C850 H838 0.950 . S
C850 C849 1.398 . S
C850 C851 1.391 . S
C851 H839 0.950 . S
C851 C847 1.393 . S
C851 C850 1.391 . S
H852 C860 0.950 . S
H853 C865 0.950 . S
H854 C862 0.950 . S
H855 C864 0.950 . S
H856 C866 0.950 . S
H857 C868 0.950 . S
H858 C870 0.950 . S
H859 C871 0.950 . S
C860 H852 0.950 . S
C860 C861 1.399 . S
C860 C862 1.391 . S
C861 C860 1.399 . S
C861 C865 1.389 1_565 S
C862 H854 0.950 . S
C862 C860 1.391 . S
C862 C863 1.400 . S
C863 C862 1.400 . S
C863 C864 1.398 . S
C863 C869 1.491 . S
C864 H855 0.950 . S
C864 C863 1.398 . S
C864 C865 1.391 1_565 S
C865 H853 0.950 . S
C865 C861 1.389 1_545 S
C865 C864 1.391 1_545 S
C866 H856 0.950 . S
C866 C867 1.386 . S
C866 C868 1.391 . S
C867 C866 1.386 . S
C867 C871 1.393 . S
C868 H857 0.950 . S
C868 C866 1.391 . S
C868 C869 1.400 . S
C869 C863 1.491 . S
C869 C868 1.400 . S
C869 C870 1.398 . S
C870 H858 0.950 . S
C870 C869 1.398 . S
C870 C871 1.391 . S
C871 H859 0.950 . S
C871 C867 1.393 . S
C871 C870 1.391 . S
H872 C880 0.950 . S
H873 C885 0.950 . S
H874 C882 0.950 1_556 S
H875 C884 0.950 . S
H876 C886 0.950 . S
H877 C888 0.950 1_554 S
H878 C890 0.950 . S
H879 C891 0.950 . S
C880 H872 0.950 . S
C880 C881 1.386 . S
C880 C882 1.391 . S
C881 C880 1.386 . S
C881 C885 1.393 . S
C882 H874 0.950 1_554 S
C882 C880 1.391 . S
C882 C883 1.400 . S
C883 C882 1.400 . S
C883 C884 1.398 . S
C883 C889 1.491 1_554 S
C884 H875 0.950 . S
C884 C883 1.398 . S
C884 C885 1.391 . S
C885 H873 0.950 . S
C885 C881 1.393 . S
C885 C884 1.391 . S
C886 H876 0.950 . S
C886 C887 1.386 . S
C886 C888 1.391 . S
C887 C886 1.386 . S
C887 C891 1.393 . S
C888 H877 0.950 1_556 S
C888 C886 1.391 . S
C888 C889 1.400 . S
C889 C883 1.491 1_556 S
C889 C888 1.400 . S
C889 C890 1.398 . S
C890 H878 0.950 . S
C890 C889 1.398 . S
C890 C891 1.391 . S
C891 H879 0.950 . S
C891 C887 1.393 . S
C891 C890 1.391 . S
H892 C900 0.950 . S
H893 C905 0.950 . S
H894 C902 0.950 . S
H895 C904 0.950 . S
H896 C906 0.950 1_565 S
H897 C908 0.950 . S
H898 C910 0.950 . S
H899 C911 0.950 . S
C900 H892 0.950 . S
C900 C901 1.386 . S
C900 C902 1.391 . S
C901 C900 1.386 . S
C901 C905 1.393 . S
C902 H894 0.950 . S
C902 C900 1.391 . S
C902 C903 1.400 . S
C903 C902 1.400 . S
C903 C904 1.398 . S
C903 C909 1.491 . S
C904 H895 0.950 . S
C904 C903 1.398 . S
C904 C905 1.391 . S
C905 H893 0.950 . S
C905 C901 1.393 . S
C905 C904 1.391 . S
C906 H896 0.950 1_545 S
C906 C907 1.386 1_545 S
C906 C908 1.391 . S
C907 C906 1.386 1_565 S
C907 C911 1.393 1_565 S
C908 H897 0.950 . S
C908 C906 1.391 . S
C908 C909 1.400 . S
C909 C903 1.491 . S
C909 C908 1.400 . S
C909 C910 1.398 . S
C910 H898 0.950 . S
C910 C909 1.398 . S
C910 C911 1.391 . S
C911 H899 0.950 . S
C911 C907 1.393 1_545 S
C911 C910 1.391 . S
H912 C920 0.950 . S
H913 C925 0.950 . S
H914 C922 0.950 . S
H915 C924 0.950 . S
H916 C926 0.950 . S
H917 C928 0.950 . S
H918 C930 0.950 . S
H919 C931 0.950 . S
C920 H912 0.950 . S
C920 C921 1.386 . S
C920 C922 1.391 . S
C921 C920 1.386 . S
C921 C925 1.393 . S
C922 H914 0.950 . S
C922 C920 1.391 . S
C922 C923 1.400 . S
C923 C922 1.400 . S
C923 C924 1.398 . S
C923 C929 1.491 . S
C924 H915 0.950 . S
C924 C923 1.398 . S
C924 C925 1.391 . S
C925 H913 0.950 . S
C925 C921 1.393 . S
C925 C924 1.391 . S
C926 H916 0.950 . S
C926 C927 1.386 . S
C926 C928 1.391 . S
C927 C926 1.386 . S
C927 C931 1.393 . S
C928 H917 0.950 . S
C928 C926 1.391 . S
C928 C929 1.400 . S
C929 C923 1.491 . S
C929 C928 1.400 . S
C929 C930 1.398 . S
C930 H918 0.950 . S
C930 C929 1.398 . S
C930 C931 1.391 . S
C931 H919 0.950 . S
C931 C927 1.393 . S
C931 C930 1.391 . S
H932 C940 0.950 . S
H933 C945 0.950 . S
H934 C942 0.943 1_565 S
H935 C944 0.950 . S
H936 C946 0.950 . S
H937 C948 0.950 . S
H938 C950 0.950 . S
H939 C951 0.950 . S
C940 H932 0.950 . S
C940 C941 1.393 . S
C940 C942 1.391 1_565 S
C941 C940 1.393 . S
C941 C945 1.374 1_565 S
C942 H934 0.943 1_545 S
C942 C940 1.391 1_545 S
C942 C943 1.400 . S
C943 C942 1.400 . S
C943 C944 1.398 . S
C943 C949 1.491 . S
C944 H935 0.950 . S
C944 C943 1.398 . S
C944 C945 1.391 . S
C945 H933 0.950 . S
C945 C941 1.374 1_545 S
C945 C944 1.391 . S
C946 H936 0.950 . S
C946 C947 1.386 . S
C946 C948 1.391 . S
C947 C946 1.386 . S
C947 C951 1.393 . S
C948 H937 0.950 . S
C948 C946 1.391 . S
C948 C949 1.400 . S
C949 C943 1.491 . S
C949 C948 1.400 . S
C949 C950 1.398 . S
C950 H938 0.950 . S
C950 C949 1.398 . S
C950 C951 1.391 . S
C951 H939 0.950 . S
C951 C947 1.393 . S
C951 C950 1.391 . S
H952 C960 0.950 . S
H953 C965 0.950 . S
H954 C962 0.927 1_556 S
H955 C964 0.950 . S
H956 C966 0.950 . S
H957 C968 0.950 . S
H958 C970 0.950 . S
H959 C971 0.950 . S
C960 H952 0.950 . S
C960 C961 1.386 . S
C960 C962 1.391 . S
C961 C960 1.386 . S
C961 C965 1.393 . S
C962 H954 0.927 1_554 S
C962 C960 1.391 . S
C962 C963 1.400 . S
C963 C962 1.400 . S
C963 C964 1.398 . S
C963 C969 1.491 1_554 S
C964 H955 0.950 . S
C964 C963 1.398 . S
C964 C965 1.391 . S
C965 H953 0.950 . S
C965 C961 1.393 . S
C965 C964 1.391 . S
C966 H956 0.950 . S
C966 C967 1.386 . S
C966 C968 1.391 . S
C967 C966 1.386 . S
C967 C971 1.393 . S
C968 H957 0.950 . S
C968 C966 1.391 . S
C968 C969 1.400 . S
C969 C963 1.491 1_556 S
C969 C968 1.400 . S
C969 C970 1.398 . S
C970 H958 0.950 . S
C970 C969 1.398 . S
C970 C971 1.391 . S
C971 H959 0.950 . S
C971 C967 1.393 . S
C971 C970 1.391 . S
H972 C980 0.950 . S
H973 C985 0.950 . S
H974 C982 0.950 . S
H975 C984 0.950 . S
H976 C986 0.950 . S
H977 C988 0.950 . S
H978 C990 0.950 . S
H979 C991 0.950 . S
C980 H972 0.950 . S
C980 C981 1.360 1_565 S
C980 C982 1.391 . S
C981 C980 1.360 1_545 S
C981 C985 1.402 . S
C982 H974 0.950 . S
C982 C980 1.391 . S
C982 C983 1.400 . S
C983 C982 1.400 . S
C983 C984 1.398 . S
C983 C989 1.491 . S
C984 H975 0.950 . S
C984 C983 1.398 . S
C984 C985 1.391 1_565 S
C985 H973 0.950 . S
C985 C981 1.402 . S
C985 C984 1.391 1_545 S
C986 H976 0.950 . S
C986 C987 1.386 . S
C986 C988 1.391 . S
C987 C986 1.386 . S
C987 C991 1.393 . S
C988 H977 0.950 . S
C988 C986 1.391 . S
C988 C989 1.400 . S
C989 C983 1.491 . S
C989 C988 1.400 . S
C989 C990 1.398 . S
C990 H978 0.950 . S
C990 C989 1.398 . S
C990 C991 1.391 . S
C991 H979 0.950 . S
C991 C987 1.393 . S
C991 C990 1.391 . S
H992 C1000 0.950 . S
H993 C1005 0.950 . S
H994 C1002 0.950 . S
H995 C1004 0.950 . S
H996 C1006 0.950 . S
H997 C1008 0.950 . S
H998 C1010 0.950 . S
H999 C1011 0.950 . S
C1000 H992 0.950 . S
C1000 C1001 1.386 . S
C1000 C1002 1.391 . S
C1001 C1000 1.386 . S
C1001 C1005 1.393 . S
C1002 H994 0.950 . S
C1002 C1000 1.391 . S
C1002 C1003 1.400 . S
C1003 C1002 1.400 . S
C1003 C1004 1.398 . S
C1003 C1009 1.491 . S
C1004 H995 0.950 . S
C1004 C1003 1.398 . S
C1004 C1005 1.391 . S
C1005 H993 0.950 . S
C1005 C1001 1.393 . S
C1005 C1004 1.391 . S
C1006 H996 0.950 . S
C1006 C1007 1.386 . S
C1006 C1008 1.391 . S
C1007 C1006 1.386 . S
C1007 C1011 1.393 . S
C1008 H997 0.950 . S
C1008 C1006 1.391 . S
C1008 C1009 1.400 . S
C1009 C1003 1.491 . S
C1009 C1008 1.400 . S
C1009 C1010 1.398 . S
C1010 H998 0.950 . S
C1010 C1009 1.398 . S
C1010 C1011 1.391 . S
C1011 H999 0.950 . S
C1011 C1007 1.393 . S
C1011 C1010 1.391 . S
H1012 C1020 0.950 . S
H1013 C1025 0.950 . S
H1014 C1022 0.950 . S
H1015 C1024 0.950 . S
H1016 C1026 0.950 . S
H1017 C1028 0.950 . S
H1018 C1030 0.950 . S
H1019 C1031 0.950 . S
C1020 H1012 0.950 . S
C1020 C1021 1.386 . S
C1020 C1022 1.391 . S
C1021 C1020 1.386 . S
C1021 C1025 1.393 . S
C1022 H1014 0.950 . S
C1022 C1020 1.391 . S
C1022 C1023 1.400 . S
C1023 C1022 1.400 . S
C1023 C1024 1.398 . S
C1023 C1029 1.491 . S
C1024 H1015 0.950 . S
C1024 C1023 1.398 . S
C1024 C1025 1.391 . S
C1025 H1013 0.950 . S
C1025 C1021 1.393 . S
C1025 C1024 1.391 . S
C1026 H1016 0.950 . S
C1026 C1027 1.386 . S
C1026 C1028 1.391 . S
C1027 C1026 1.386 . S
C1027 C1031 1.393 . S
C1028 H1017 0.950 . S
C1028 C1026 1.391 . S
C1028 C1029 1.400 . S
C1029 C1023 1.491 . S
C1029 C1028 1.400 . S
C1029 C1030 1.398 . S
C1030 H1018 0.950 . S
C1030 C1029 1.398 . S
C1030 C1031 1.391 . S
C1031 H1019 0.950 . S
C1031 C1027 1.393 . S
C1031 C1030 1.391 . S
H1032 C1040 0.950 . S
H1033 C1045 0.950 . S
H1034 C1042 0.950 1_455 S
H1035 C1044 0.950 . S
H1036 C1046 0.950 . S
H1037 C1048 0.950 1_655 S
H1038 C1050 0.950 . S
H1039 C1051 0.950 . S
C1040 H1032 0.950 . S
C1040 C1041 1.386 . S
C1040 C1042 1.391 . S
C1041 C1040 1.386 . S
C1041 C1045 1.393 . S
C1042 H1034 0.950 1_655 S
C1042 C1040 1.391 . S
C1042 C1043 1.400 . S
C1043 C1042 1.400 . S
C1043 C1044 1.398 . S
C1043 C1049 1.491 1_655 S
C1044 H1035 0.950 . S
C1044 C1043 1.398 . S
C1044 C1045 1.391 . S
C1045 H1033 0.950 . S
C1045 C1041 1.393 . S
C1045 C1044 1.391 . S
C1046 H1036 0.950 . S
C1046 C1047 1.386 . S
C1046 C1048 1.391 . S
C1047 C1046 1.386 . S
C1047 C1051 1.393 . S
C1048 H1037 0.950 1_455 S
C1048 C1046 1.391 . S
C1048 C1049 1.400 . S
C1049 C1043 1.491 1_455 S
C1049 C1048 1.400 . S
C1049 C1050 1.398 . S
C1050 H1038 0.950 . S
C1050 C1049 1.398 . S
C1050 C1051 1.391 . S
C1051 H1039 0.950 . S
C1051 C1047 1.393 . S
C1051 C1050 1.391 . S
H1052 C1060 0.950 . S
H1053 C1065 0.950 . S
H1054 C1062 0.950 . S
H1055 C1064 0.950 . S
H1056 C1066 0.950 . S
H1057 C1068 0.950 . S
H1058 C1070 0.950 . S
H1059 C1071 0.950 . S
C1060 H1052 0.950 . S
C1060 C1061 1.386 . S
C1060 C1062 1.391 . S
C1061 C1060 1.386 . S
C1061 C1065 1.393 . S
C1062 H1054 0.950 . S
C1062 C1060 1.391 . S
C1062 C1063 1.400 . S
C1063 C1062 1.400 . S
C1063 C1064 1.398 1_655 S
C1063 C1069 1.491 1_655 S
C1064 H1055 0.950 . S
C1064 C1063 1.398 1_455 S
C1064 C1065 1.391 1_455 S
C1065 H1053 0.950 . S
C1065 C1061 1.393 . S
C1065 C1064 1.391 1_655 S
C1066 H1056 0.950 . S
C1066 C1067 1.386 . S
C1066 C1068 1.391 . S
C1067 C1066 1.386 . S
C1067 C1071 1.393 . S
C1068 H1057 0.950 . S
C1068 C1066 1.391 . S
C1068 C1069 1.400 . S
C1069 C1063 1.491 1_455 S
C1069 C1068 1.400 . S
C1069 C1070 1.398 1_455 S
C1070 H1058 0.950 . S
C1070 C1069 1.398 1_655 S
C1070 C1071 1.391 1_655 S
C1071 H1059 0.950 . S
C1071 C1067 1.393 . S
C1071 C1070 1.391 1_455 S
H1072 C1080 0.950 . S
H1073 C1085 0.950 . S
H1074 C1082 0.950 . S
H1075 C1084 0.950 . S
H1076 C1086 0.950 . S
H1077 C1088 0.950 . S
H1078 C1090 0.950 . S
H1079 C1091 0.950 . S
C1080 H1072 0.950 . S
C1080 C1081 1.386 . S
C1080 C1082 1.391 . S
C1081 C1080 1.386 . S
C1081 C1085 1.393 . S
C1082 H1074 0.950 . S
C1082 C1080 1.391 . S
C1082 C1083 1.400 . S
C1083 C1082 1.400 . S
C1083 C1084 1.398 . S
C1083 C1089 1.491 . S
C1084 H1075 0.950 . S
C1084 C1083 1.398 . S
C1084 C1085 1.391 . S
C1085 H1073 0.950 . S
C1085 C1081 1.393 . S
C1085 C1084 1.391 . S
C1086 H1076 0.950 . S
C1086 C1087 1.386 . S
C1086 C1088 1.391 . S
C1087 C1086 1.386 . S
C1087 C1091 1.393 . S
C1088 H1077 0.950 . S
C1088 C1086 1.391 . S
C1088 C1089 1.400 . S
C1089 C1083 1.491 . S
C1089 C1088 1.400 . S
C1089 C1090 1.398 . S
C1090 H1078 0.950 . S
C1090 C1089 1.398 . S
C1090 C1091 1.391 . S
C1091 H1079 0.950 . S
C1091 C1087 1.393 . S
C1091 C1090 1.391 . S
H1092 C1100 0.950 . S
H1093 C1105 0.950 . S
H1094 C1102 0.950 . S
H1095 C1104 0.950 . S
H1096 C1106 0.950 . S
H1097 C1108 0.950 . S
H1098 C1110 0.950 . S
H1099 C1111 0.950 . S
C1100 H1092 0.950 . S
C1100 C1101 1.386 . S
C1100 C1102 1.391 . S
C1101 C1100 1.386 . S
C1101 C1105 1.393 . S
C1102 H1094 0.950 . S
C1102 C1100 1.391 . S
C1102 C1103 1.400 . S
C1103 C1102 1.400 . S
C1103 C1104 1.398 . S
C1103 C1109 1.491 . S
C1104 H1095 0.950 . S
C1104 C1103 1.398 . S
C1104 C1105 1.391 . S
C1105 H1093 0.950 . S
C1105 C1101 1.393 . S
C1105 C1104 1.391 . S
C1106 H1096 0.950 . S
C1106 C1107 1.386 . S
C1106 C1108 1.391 . S
C1107 C1106 1.386 . S
C1107 C1111 1.393 . S
C1108 H1097 0.950 . S
C1108 C1106 1.391 . S
C1108 C1109 1.400 . S
C1109 C1103 1.491 . S
C1109 C1108 1.400 . S
C1109 C1110 1.398 . S
C1110 H1098 0.950 . S
C1110 C1109 1.398 . S
C1110 C1111 1.391 . S
C1111 H1099 0.950 . S
C1111 C1107 1.393 . S
C1111 C1110 1.391 . S
H1112 C1120 0.950 . S
H1113 C1125 0.950 . S
H1114 C1122 0.950 . S
H1115 C1124 0.950 . S
H1116 C1126 0.950 . S
H1117 C1128 0.950 . S
H1118 C1130 0.950 . S
H1119 C1131 0.950 . S
C1120 H1112 0.950 . S
C1120 C1121 1.386 . S
C1120 C1122 1.391 . S
C1121 C1120 1.386 . S
C1121 C1125 1.393 . S
C1122 H1114 0.950 . S
C1122 C1120 1.391 . S
C1122 C1123 1.400 . S
C1123 C1122 1.400 . S
C1123 C1124 1.398 . S
C1123 C1129 1.491 1_455 S
C1124 H1115 0.950 . S
C1124 C1123 1.398 . S
C1124 C1125 1.391 . S
C1125 H1113 0.950 . S
C1125 C1121 1.393 . S
C1125 C1124 1.391 . S
C1126 H1116 0.950 . S
C1126 C1127 1.386 . S
C1126 C1128 1.391 . S
C1127 C1126 1.386 . S
C1127 C1131 1.393 . S
C1128 H1117 0.950 . S
C1128 C1126 1.391 . S
C1128 C1129 1.400 . S
C1129 C1123 1.491 1_655 S
C1129 C1128 1.400 . S
C1129 C1130 1.398 . S
C1130 H1118 0.950 . S
C1130 C1129 1.398 . S
C1130 C1131 1.391 . S
C1131 H1119 0.950 . S
C1131 C1127 1.393 . S
C1131 C1130 1.391 . S
H1132 C1140 0.950 . S
H1133 C1145 0.950 . S
H1134 C1142 0.936 1_655 S
H1135 C1144 0.950 . S
H1136 C1146 0.950 . S
H1137 C1148 0.936 1_455 S
H1138 C1150 0.950 . S
H1139 C1151 0.950 . S
C1140 H1132 0.950 . S
C1140 C1141 1.386 . S
C1140 C1142 1.391 . S
C1141 C1140 1.386 . S
C1141 C1145 1.393 . S
C1142 H1134 0.936 1_455 S
C1142 C1140 1.391 . S
C1142 C1143 1.400 . S
C1143 C1142 1.400 . S
C1143 C1144 1.398 . S
C1143 C1149 1.491 1_455 S
C1144 H1135 0.950 . S
C1144 C1143 1.398 . S
C1144 C1145 1.391 . S
C1145 H1133 0.950 . S
C1145 C1141 1.393 . S
C1145 C1144 1.391 . S
C1146 H1136 0.950 . S
C1146 C1147 1.386 . S
C1146 C1148 1.391 . S
C1147 C1146 1.386 . S
C1147 C1151 1.393 . S
C1148 H1137 0.936 1_655 S
C1148 C1146 1.391 . S
C1148 C1149 1.400 . S
C1149 C1143 1.491 1_655 S
C1149 C1148 1.400 . S
C1149 C1150 1.398 . S
C1150 H1138 0.950 . S
C1150 C1149 1.398 . S
C1150 C1151 1.391 . S
C1151 H1139 0.950 . S
C1151 C1147 1.393 . S
C1151 C1150 1.391 . S
H1152 C1160 0.950 . S
H1153 C1165 0.950 . S
H1154 C1162 0.950 . S
H1155 C1164 0.950 . S
H1156 C1166 0.950 . S
H1157 C1168 0.950 . S
H1158 C1170 0.950 . S
H1159 C1171 0.950 . S
C1160 H1152 0.950 . S
C1160 C1161 1.386 . S
C1160 C1162 1.391 . S
C1161 C1160 1.386 . S
C1161 C1165 1.393 . S
C1162 H1154 0.950 . S
C1162 C1160 1.391 . S
C1162 C1163 1.400 . S
C1163 C1162 1.400 . S
C1163 C1164 1.398 . S
C1163 C1169 1.491 . S
C1164 H1155 0.950 . S
C1164 C1163 1.398 . S
C1164 C1165 1.391 . S
C1165 H1153 0.950 . S
C1165 C1161 1.393 . S
C1165 C1164 1.391 . S
C1166 H1156 0.950 . S
C1166 C1167 1.386 . S
C1166 C1168 1.391 . S
C1167 C1166 1.386 . S
C1167 C1171 1.393 . S
C1168 H1157 0.950 . S
C1168 C1166 1.391 . S
C1168 C1169 1.400 . S
C1169 C1163 1.491 . S
C1169 C1168 1.400 . S
C1169 C1170 1.398 . S
C1170 H1158 0.950 . S
C1170 C1169 1.398 . S
C1170 C1171 1.391 . S
C1171 H1159 0.950 . S
C1171 C1167 1.393 . S
C1171 C1170 1.391 . S
H1172 C1180 0.950 . S
H1173 C1185 0.950 . S
H1174 C1182 0.950 . S
H1175 C1184 0.950 . S
H1176 C1186 0.950 . S
H1177 C1188 0.950 . S
H1178 C1190 0.950 . S
H1179 C1191 0.950 . S
C1180 H1172 0.950 . S
C1180 C1181 1.386 . S
C1180 C1182 1.391 . S
C1181 C1180 1.386 . S
C1181 C1185 1.393 . S
C1182 H1174 0.950 . S
C1182 C1180 1.391 . S
C1182 C1183 1.400 . S
C1183 C1182 1.400 . S
C1183 C1184 1.398 . S
C1183 C1189 1.491 . S
C1184 H1175 0.950 . S
C1184 C1183 1.398 . S
C1184 C1185 1.391 . S
C1185 H1173 0.950 . S
C1185 C1181 1.393 . S
C1185 C1184 1.391 . S
C1186 H1176 0.950 . S
C1186 C1187 1.386 . S
C1186 C1188 1.391 . S
C1187 C1186 1.386 . S
C1187 C1191 1.393 . S
C1188 H1177 0.950 . S
C1188 C1186 1.391 . S
C1188 C1189 1.400 . S
C1189 C1183 1.491 . S
C1189 C1188 1.400 . S
C1189 C1190 1.398 . S
C1190 H1178 0.950 . S
C1190 C1189 1.398 . S
C1190 C1191 1.391 . S
C1191 H1179 0.950 . S
C1191 C1187 1.393 . S
C1191 C1190 1.391 . S
H1192 C1200 0.950 . S
H1193 C1205 0.950 . S
H1194 C1202 0.950 . S
H1195 C1204 0.950 . S
H1196 C1206 0.950 . S
H1197 C1208 0.950 . S
H1198 C1210 0.950 . S
H1199 C1211 0.950 . S
C1200 H1192 0.950 . S
C1200 C1201 1.386 . S
C1200 C1202 1.391 . S
C1201 C1200 1.386 . S
C1201 C1205 1.393 . S
C1202 H1194 0.950 . S
C1202 C1200 1.391 . S
C1202 C1203 1.400 . S
C1203 C1202 1.400 . S
C1203 C1204 1.398 . S
C1203 C1209 1.491 . S
C1204 H1195 0.950 . S
C1204 C1203 1.398 . S
C1204 C1205 1.391 . S
C1205 H1193 0.950 . S
C1205 C1201 1.393 . S
C1205 C1204 1.391 . S
C1206 H1196 0.950 . S
C1206 C1207 1.386 . S
C1206 C1208 1.391 . S
C1207 C1206 1.386 . S
C1207 C1211 1.393 . S
C1208 H1197 0.950 . S
C1208 C1206 1.391 . S
C1208 C1209 1.400 . S
C1209 C1203 1.491 . S
C1209 C1208 1.400 . S
C1209 C1210 1.398 . S
C1210 H1198 0.950 . S
C1210 C1209 1.398 . S
C1210 C1211 1.391 . S
C1211 H1199 0.950 . S
C1211 C1207 1.393 . S
C1211 C1210 1.391 . S
H1212 C1220 0.950 . S
H1213 C1225 0.950 . S
H1214 C1222 0.950 . S
H1215 C1224 0.950 . S
H1216 C1226 0.950 . S
H1217 C1228 0.950 . S
H1218 C1230 0.950 . S
H1219 C1231 0.950 . S
C1220 H1212 0.950 . S
C1220 C1221 1.386 . S
C1220 C1222 1.391 1_655 S
C1221 C1220 1.386 . S
C1221 C1225 1.393 . S
C1222 H1214 0.950 . S
C1222 C1220 1.391 1_455 S
C1222 C1223 1.400 . S
C1223 C1222 1.400 . S
C1223 C1224 1.398 . S
C1223 C1229 1.491 . S
C1224 H1215 0.950 . S
C1224 C1223 1.398 . S
C1224 C1225 1.391 1_455 S
C1225 H1213 0.950 . S
C1225 C1221 1.393 . S
C1225 C1224 1.391 1_655 S
C1226 H1216 0.950 . S
C1226 C1227 1.386 . S
C1226 C1228 1.391 . S
C1227 C1226 1.386 . S
C1227 C1231 1.393 . S
C1228 H1217 0.950 . S
C1228 C1226 1.391 . S
C1228 C1229 1.400 . S
C1229 C1223 1.491 . S
C1229 C1228 1.400 . S
C1229 C1230 1.398 . S
C1230 H1218 0.950 . S
C1230 C1229 1.398 . S
C1230 C1231 1.391 . S
C1231 H1219 0.950 . S
C1231 C1227 1.393 . S
C1231 C1230 1.391 . S
H1232 C1240 0.950 . S
H1233 C1245 0.950 . S
H1234 C1242 0.950 . S
H1235 C1244 0.950 . S
H1236 C1246 0.950 . S
H1237 C1248 0.950 . S
H1238 C1250 0.950 . S
H1239 C1251 0.950 . S
C1240 H1232 0.950 . S
C1240 C1241 1.386 . S
C1240 C1242 1.391 . S
C1241 C1240 1.386 . S
C1241 C1245 1.393 . S
C1242 H1234 0.950 . S
C1242 C1240 1.391 . S
C1242 C1243 1.400 . S
C1243 C1242 1.400 . S
C1243 C1244 1.398 . S
C1243 C1249 1.491 . S
C1244 H1235 0.950 . S
C1244 C1243 1.398 . S
C1244 C1245 1.391 . S
C1245 H1233 0.950 . S
C1245 C1241 1.393 . S
C1245 C1244 1.391 . S
C1246 H1236 0.950 . S
C1246 C1247 1.386 . S
C1246 C1248 1.391 . S
C1247 C1246 1.386 . S
C1247 C1251 1.393 . S
C1248 H1237 0.950 . S
C1248 C1246 1.391 . S
C1248 C1249 1.400 . S
C1249 C1243 1.491 . S
C1249 C1248 1.400 . S
C1249 C1250 1.398 . S
C1250 H1238 0.950 . S
C1250 C1249 1.398 . S
C1250 C1251 1.391 . S
C1251 H1239 0.950 . S
C1251 C1247 1.393 . S
C1251 C1250 1.391 . S
H1252 C1260 0.950 . S
H1253 C1265 0.950 . S
H1254 C1262 0.950 . S
H1255 C1264 0.950 . S
H1256 C1266 0.950 . S
H1257 C1268 0.950 . S
H1258 C1270 0.950 . S
H1259 C1271 0.950 . S
C1260 H1252 0.950 . S
C1260 C1261 1.386 . S
C1260 C1262 1.391 . S
C1261 C1260 1.386 . S
C1261 C1265 1.393 . S
C1262 H1254 0.950 . S
C1262 C1260 1.391 . S
C1262 C1263 1.400 . S
C1263 C1262 1.400 . S
C1263 C1264 1.398 . S
C1263 C1269 1.491 . S
C1264 H1255 0.950 . S
C1264 C1263 1.398 . S
C1264 C1265 1.391 . S
C1265 H1253 0.950 . S
C1265 C1261 1.393 . S
C1265 C1264 1.391 . S
C1266 H1256 0.950 . S
C1266 C1267 1.386 . S
C1266 C1268 1.391 . S
C1267 C1266 1.386 . S
C1267 C1271 1.393 . S
C1268 H1257 0.950 . S
C1268 C1266 1.391 . S
C1268 C1269 1.400 . S
C1269 C1263 1.491 . S
C1269 C1268 1.400 . S
C1269 C1270 1.398 . S
C1270 H1258 0.950 . S
C1270 C1269 1.398 . S
C1270 C1271 1.391 . S
C1271 H1259 0.950 . S
C1271 C1267 1.393 . S
C1271 C1270 1.391 . S
H1272 C1280 0.950 . S
H1273 C1285 0.950 . S
H1274 C1282 0.950 . S
H1275 C1284 0.950 . S
H1276 C1286 0.950 . S
H1277 C1288 0.950 . S
H1278 C1290 0.950 . S
H1279 C1291 0.950 . S
C1280 H1272 0.950 . S
C1280 C1281 1.386 . S
C1280 C1282 1.391 . S
C1281 C1280 1.386 . S
C1281 C1285 1.393 . S
C1282 H1274 0.950 . S
C1282 C1280 1.391 . S
C1282 C1283 1.400 . S
C1283 C1282 1.400 . S
C1283 C1284 1.398 . S
C1283 C1289 1.491 . S
C1284 H1275 0.950 . S
C1284 C1283 1.398 . S
C1284 C1285 1.391 . S
C1285 H1273 0.950 . S
C1285 C1281 1.393 . S
C1285 C1284 1.391 . S
C1286 H1276 0.950 . S
C1286 C1287 1.386 . S
C1286 C1288 1.391 . S
C1287 C1286 1.386 . S
C1287 C1291 1.393 . S
C1288 H1277 0.950 . S
C1288 C1286 1.391 . S
C1288 C1289 1.400 . S
C1289 C1283 1.491 . S
C1289 C1288 1.400 . S
C1289 C1290 1.398 . S
C1290 H1278 0.950 . S
C1290 C1289 1.398 . S
C1290 C1291 1.391 . S
C1291 H1279 0.950 . S
C1291 C1287 1.393 . S
C1291 C1290 1.391 . S
H1292 C1300 0.950 . S
H1293 C1305 0.950 . S
H1294 C1302 0.950 . S
H1295 C1304 0.950 . S
H1296 C1306 0.950 . S
H1297 C1308 0.950 . S
H1298 C1310 0.950 . S
H1299 C1311 0.950 . S
C1300 H1292 0.950 . S
C1300 C1301 1.386 . S
C1300 C1302 1.391 . S
C1301 C1300 1.386 . S
C1301 C1305 1.393 . S
C1302 H1294 0.950 . S
C1302 C1300 1.391 . S
C1302 C1303 1.400 . S
C1303 C1302 1.400 . S
C1303 C1304 1.398 . S
C1303 C1309 1.491 . S
C1304 H1295 0.950 . S
C1304 C1303 1.398 . S
C1304 C1305 1.391 . S
C1305 H1293 0.950 . S
C1305 C1301 1.393 . S
C1305 C1304 1.391 . S
C1306 H1296 0.950 . S
C1306 C1307 1.386 . S
C1306 C1308 1.391 1_455 S
C1307 C1306 1.386 . S
C1307 C1311 1.393 . S
C1308 H1297 0.950 . S
C1308 C1306 1.391 1_655 S
C1308 C1309 1.400 . S
C1309 C1303 1.491 . S
C1309 C1308 1.400 . S
C1309 C1310 1.398 . S
C1310 H1298 0.950 . S
C1310 C1309 1.398 . S
C1310 C1311 1.391 1_655 S
C1311 H1299 0.950 . S
C1311 C1307 1.393 . S
C1311 C1310 1.391 1_455 S
H1312 C1320 0.950 . S
H1313 C1325 0.950 . S
H1314 C1322 0.950 . S
H1315 C1324 0.950 . S
H1316 C1326 0.950 . S
H1317 C1328 0.950 . S
H1318 C1330 0.950 . S
H1319 C1331 0.950 . S
C1320 H1312 0.950 . S
C1320 C1321 1.386 . S
C1320 C1322 1.391 . S
C1321 C1320 1.386 . S
C1321 C1325 1.393 . S
C1322 H1314 0.950 . S
C1322 C1320 1.391 . S
C1322 C1323 1.400 . S
C1323 C1322 1.400 . S
C1323 C1324 1.398 . S
C1323 C1329 1.491 . S
C1324 H1315 0.950 . S
C1324 C1323 1.398 . S
C1324 C1325 1.391 . S
C1325 H1313 0.950 . S
C1325 C1321 1.393 . S
C1325 C1324 1.391 . S
C1326 H1316 0.950 . S
C1326 C1327 1.386 . S
C1326 C1328 1.391 . S
C1327 C1326 1.386 . S
C1327 C1331 1.393 . S
C1328 H1317 0.950 . S
C1328 C1326 1.391 . S
C1328 C1329 1.400 . S
C1329 C1323 1.491 . S
C1329 C1328 1.400 . S
C1329 C1330 1.398 . S
C1330 H1318 0.950 . S
C1330 C1329 1.398 . S
C1330 C1331 1.391 . S
C1331 H1319 0.950 . S
C1331 C1327 1.393 . S
C1331 C1330 1.391 . S
H1332 C1340 0.950 . S
H1333 C1345 0.950 . S
H1334 C1342 0.950 . S
H1335 C1344 0.950 . S
H1336 C1346 0.950 1_545 S
H1337 C1348 0.950 . S
H1338 C1350 0.950 . S
H1339 C1351 0.950 . S
C1340 H1332 0.950 . S
C1340 C1341 1.386 . S
C1340 C1342 1.391 . S
C1341 C1340 1.386 . S
C1341 C1345 1.393 . S
C1342 H1334 0.950 . S
C1342 C1340 1.391 . S
C1342 C1343 1.400 . S
C1343 C1342 1.400 . S
C1343 C1344 1.398 . S
C1343 C1349 1.491 . S
C1344 H1335 0.950 . S
C1344 C1343 1.398 . S
C1344 C1345 1.391 . S
C1345 H1333 0.950 . S
C1345 C1341 1.393 . S
C1345 C1344 1.391 . S
C1346 H1336 0.950 1_565 S
C1346 C1347 1.386 . S
C1346 C1348 1.391 1_455 S
C1347 C1346 1.386 . S
C1347 C1351 1.393 . S
C1348 H1337 0.950 . S
C1348 C1346 1.391 1_655 S
C1348 C1349 1.400 . S
C1349 C1343 1.491 . S
C1349 C1348 1.400 . S
C1349 C1350 1.398 . S
C1350 H1338 0.950 . S
C1350 C1349 1.398 . S
C1350 C1351 1.391 1_655 S
C1351 H1339 0.950 . S
C1351 C1347 1.393 . S
C1351 C1350 1.391 1_455 S
H1352 C1360 0.950 . S
H1353 C1365 0.950 . S
H1354 C1362 0.950 . S
H1355 C1364 0.950 . S
H1356 C1366 0.950 . S
H1357 C1368 0.950 . S
H1358 C1370 0.950 . S
H1359 C1371 0.950 . S
C1360 H1352 0.950 . S
C1360 C1361 1.386 . S
C1360 C1362 1.391 . S
C1361 C1360 1.386 . S
C1361 C1365 1.393 . S
C1362 H1354 0.950 . S
C1362 C1360 1.391 . S
C1362 C1363 1.400 . S
C1363 C1362 1.400 . S
C1363 C1364 1.398 . S
C1363 C1369 1.491 . S
C1364 H1355 0.950 . S
C1364 C1363 1.398 . S
C1364 C1365 1.391 . S
C1365 H1353 0.950 . S
C1365 C1361 1.393 . S
C1365 C1364 1.391 . S
C1366 H1356 0.950 . S
C1366 C1367 1.386 . S
C1366 C1368 1.391 . S
C1367 C1366 1.386 . S
C1367 C1371 1.393 . S
C1368 H1357 0.950 . S
C1368 C1366 1.391 . S
C1368 C1369 1.400 . S
C1369 C1363 1.491 . S
C1369 C1368 1.400 . S
C1369 C1370 1.398 . S
C1370 H1358 0.950 . S
C1370 C1369 1.398 . S
C1370 C1371 1.391 . S
C1371 H1359 0.950 . S
C1371 C1367 1.393 . S
C1371 C1370 1.391 . S
H1372 C1380 0.950 . S
H1373 C1385 0.950 . S
H1374 C1382 0.950 1_565 S
H1375 C1384 0.950 . S
H1376 C1386 0.950 . S
H1377 C1388 0.950 . S
H1378 C1390 0.950 . S
H1379 C1391 0.950 . S
C1380 H1372 0.950 . S
C1380 C1381 1.386 1_565 S
C1380 C1382 1.391 1_565 S
C1381 C1380 1.386 1_545 S
C1381 C1385 1.393 . S
C1382 H1374 0.950 1_545 S
C1382 C1380 1.391 1_545 S
C1382 C1383 1.400 . S
C1383 C1382 1.400 . S
C1383 C1384 1.398 . S
C1383 C1389 1.491 . S
C1384 H1375 0.950 . S
C1384 C1383 1.398 . S
C1384 C1385 1.391 . S
C1385 H1373 0.950 . S
C1385 C1381 1.393 . S
C1385 C1384 1.391 . S
C1386 H1376 0.950 . S
C1386 C1387 1.386 . S
C1386 C1388 1.391 . S
C1387 C1386 1.386 . S
C1387 C1391 1.393 . S
C1388 H1377 0.950 . S
C1388 C1386 1.391 . S
C1388 C1389 1.400 . S
C1389 C1383 1.491 . S
C1389 C1388 1.400 . S
C1389 C1390 1.398 . S
C1390 H1378 0.950 . S
C1390 C1389 1.398 . S
C1390 C1391 1.391 . S
C1391 H1379 0.950 . S
C1391 C1387 1.393 . S
C1391 C1390 1.391 . S
H1392 C1400 0.950 . S
H1393 C1405 0.950 . S
H1394 C1402 0.950 . S
H1395 C1404 0.950 . S
H1396 C1406 0.950 . S
H1397 C1408 0.950 . S
H1398 C1410 0.950 . S
H1399 C1411 0.950 . S
C1400 H1392 0.950 . S
C1400 C1401 1.386 . S
C1400 C1402 1.391 . S
C1401 C1400 1.386 . S
C1401 C1405 1.393 . S
C1402 H1394 0.950 . S
C1402 C1400 1.391 . S
C1402 C1403 1.400 . S
C1403 C1402 1.400 . S
C1403 C1404 1.398 . S
C1403 C1409 1.491 . S
C1404 H1395 0.950 . S
C1404 C1403 1.398 . S
C1404 C1405 1.391 . S
C1405 H1393 0.950 . S
C1405 C1401 1.393 . S
C1405 C1404 1.391 . S
C1406 H1396 0.950 . S
C1406 C1407 1.386 . S
C1406 C1408 1.391 . S
C1407 C1406 1.386 . S
C1407 C1411 1.393 . S
C1408 H1397 0.950 . S
C1408 C1406 1.391 . S
C1408 C1409 1.400 . S
C1409 C1403 1.491 . S
C1409 C1408 1.400 . S
C1409 C1410 1.398 . S
C1410 H1398 0.950 . S
C1410 C1409 1.398 . S
C1410 C1411 1.391 . S
C1411 H1399 0.950 . S
C1411 C1407 1.393 . S
C1411 C1410 1.391 . S
H1412 C1420 0.950 . S
H1413 C1425 0.972 . S
H1414 C1422 0.950 . S
H1415 C1424 0.950 . S
H1416 C1426 0.950 . S
H1417 C1428 0.950 . S
H1418 C1430 0.950 . S
H1419 C1431 0.950 . S
C1420 H1412 0.950 . S
C1420 C1421 1.386 . S
C1420 C1422 1.391 1_655 S
C1421 C1420 1.386 . S
C1421 C1425 1.381 1_645 S
C1422 H1414 0.950 . S
C1422 C1420 1.391 1_455 S
C1422 C1423 1.400 . S
C1423 C1422 1.400 . S
C1423 C1424 1.398 . S
C1423 C1429 1.491 . S
C1424 H1415 0.950 . S
C1424 C1423 1.398 . S
C1424 C1425 1.381 1_545 S
C1425 H1413 0.972 . S
C1425 C1421 1.381 1_465 S
C1425 C1424 1.381 1_565 S
C1426 H1416 0.950 . S
C1426 C1427 1.386 . S
C1426 C1428 1.391 . S
C1427 C1426 1.386 . S
C1427 C1431 1.393 . S
C1428 H1417 0.950 . S
C1428 C1426 1.391 . S
C1428 C1429 1.400 . S
C1429 C1423 1.491 . S
C1429 C1428 1.400 . S
C1429 C1430 1.398 . S
C1430 H1418 0.950 . S
C1430 C1429 1.398 . S
C1430 C1431 1.391 . S
C1431 H1419 0.950 . S
C1431 C1427 1.393 . S
C1431 C1430 1.391 . S
H1432 C1440 0.950 . S
H1433 C1445 0.950 . S
H1434 C1442 0.950 . S
H1435 C1444 0.950 . S
H1436 C1446 0.950 . S
H1437 C1448 0.950 . S
H1438 C1450 0.950 . S
H1439 C1451 0.950 . S
C1440 H1432 0.950 . S
C1440 C1441 1.386 . S
C1440 C1442 1.391 . S
C1441 C1440 1.386 . S
C1441 C1445 1.393 . S
C1442 H1434 0.950 . S
C1442 C1440 1.391 . S
C1442 C1443 1.400 . S
C1443 C1442 1.400 . S
C1443 C1444 1.398 . S
C1443 C1449 1.491 . S
C1444 H1435 0.950 . S
C1444 C1443 1.398 . S
C1444 C1445 1.391 . S
C1445 H1433 0.950 . S
C1445 C1441 1.393 . S
C1445 C1444 1.391 . S
C1446 H1436 0.950 . S
C1446 C1447 1.386 . S
C1446 C1448 1.391 . S
C1447 C1446 1.386 . S
C1447 C1451 1.393 . S
C1448 H1437 0.950 . S
C1448 C1446 1.391 . S
C1448 C1449 1.400 . S
C1449 C1443 1.491 . S
C1449 C1448 1.400 . S
C1449 C1450 1.398 . S
C1450 H1438 0.950 . S
C1450 C1449 1.398 . S
C1450 C1451 1.391 . S
C1451 H1439 0.950 . S
C1451 C1447 1.393 . S
C1451 C1450 1.391 . S
H1452 C1460 0.950 . S
H1453 C1465 0.950 . S
H1454 C1462 0.950 . S
H1455 C1464 0.950 . S
H1456 C1466 0.950 1_545 S
H1457 C1468 0.950 . S
H1458 C1470 0.950 . S
H1459 C1471 0.950 . S
C1460 H1452 0.950 . S
C1460 C1461 1.386 . S
C1460 C1462 1.391 . S
C1461 C1460 1.386 . S
C1461 C1465 1.393 . S
C1462 H1454 0.950 . S
C1462 C1460 1.391 . S
C1462 C1463 1.400 . S
C1463 C1462 1.400 . S
C1463 C1464 1.398 . S
C1463 C1469 1.491 . S
C1464 H1455 0.950 . S
C1464 C1463 1.398 . S
C1464 C1465 1.391 . S
C1465 H1453 0.950 . S
C1465 C1461 1.393 . S
C1465 C1464 1.391 . S
C1466 H1456 0.950 1_565 S
C1466 C1467 1.386 . S
C1466 C1468 1.391 . S
C1467 C1466 1.386 . S
C1467 C1471 1.393 . S
C1468 H1457 0.950 . S
C1468 C1466 1.391 . S
C1468 C1469 1.400 . S
C1469 C1463 1.491 . S
C1469 C1468 1.400 . S
C1469 C1470 1.398 . S
C1470 H1458 0.950 . S
C1470 C1469 1.398 . S
C1470 C1471 1.391 . S
C1471 H1459 0.950 . S
C1471 C1467 1.393 . S
C1471 C1470 1.391 . S
C521 C4 0.657 . S
C527 C413 0.657 . S
C541 C189 0.690 . S
C547 C36 0.690 . S
C561 C68 0.648 . S
C567 C452 0.648 . S
C581 C125 0.650 . S
C587 C253 0.650 . S
C601 C157 0.689 . S
C607 C260 0.689 . S
C621 C349 0.689 . S
C627 C196 0.689 . S
C641 C420 0.631 . S
C647 C292 0.631 . S
C661 C381 0.656 . S
C667 C509 0.656 . S
C681 C290 1.871 . S
C687 C6 1.855 . S
C701 C38 1.836 . S
C707 C326 1.881 . S
C721 C70 1.846 . S
C727 C358 1.871 . S
C741 C258 1.875 . S
C747 C98 1.840 . S
C761 C418 1.869 . S
C767 C130 1.851 . S
C781 C450 1.872 . S
C787 C162 1.845 . S
C801 C198 1.854 . S
C807 C486 1.869 . S
C821 C390 1.879 . S
C827 C226 1.846 . S
C841 C262 1.842 . S
C847 C34 1.874 . S
C861 C294 1.834 1_565 S
C867 C66 1.876 . S
C881 C322 1.854 . S
C887 C102 1.872 . S
C901 C2 1.869 . S
C907 C354 1.855 . S
C921 C166 1.869 . S
C927 C386 1.851 . S
C941 C422 1.858 . S
C947 C194 1.869 . S
C961 C230 1.881 . S
C967 C454 1.842 . S
C981 C482 1.865 . S
C987 C134 1.874 . S
C1001 N18 1.339 . S
C1007 N333 1.340 . S
C1021 N50 1.342 . S
C1027 N365 1.330 . S
C1041 N274 1.322 . S
C1047 N82 1.339 . S
C1061 N109 1.316 . S
C1067 N306 1.328 . S
C1081 N141 1.334 . S
C1087 N466 1.318 . S
C1101 N173 1.330 . S
C1107 N493 1.316 . S
C1121 N397 1.340 . S
C1127 N210 1.338 . S
C1141 N237 1.337 . S
C1147 N434 1.341 . S
C1161 C29 0.997 . S
C1167 N242 1.038 . S
C1181 N402 1.022 . S
C1187 C61 0.985 . S
C1201 C93 1.006 . S
C1207 N178 1.043 . S
C1221 C100 0.990 . S
C1227 N461 1.033 . S
C1241 C132 1.025 . S
C1247 N114 1.049 . S
C1261 N269 1.035 . S
C1267 C164 1.014 . S
C1281 C221 0.992 . S
C1287 N45 1.024 . S
C1301 N338 1.033 . S
C1307 C228 0.990 . S
C1321 C285 0.982 . S
C1327 N498 1.025 . S
C1341 N146 1.026 . S
C1347 C317 0.998 . S
C1361 N429 1.045 . S
C1367 C324 1.026 . S
C1381 C356 1.027 . S
C1387 N205 1.048 . S
C1401 C388 1.021 . S
C1407 N370 1.040 . S
C1421 C445 1.023 . S
C1427 N13 1.049 . S
C1441 N301 1.030 . S
C1447 C477 1.007 . S
C1461 N77 1.039 . S
C1467 C484 1.020 . S
