# Generated by pormake.
# Topology unb, (4)-cn, num edge types: 1
# Building blocks:
#     Node 0, Type 0, BuildingBlock: KUFVIS_clean_sbu_0, # of connection points: 4
#     Node 1, Type 0, BuildingBlock: KUFVIS_clean_sbu_0, # of connection points: 4
#     Node 2, Type 0, BuildingBlock: KUFVIS_clean_sbu_0, # of connection points: 4
#     Node 3, Type 0, BuildingBlock: KUFVIS_clean_sbu_0, # of connection points: 4
#     Node 4, Type 0, BuildingBlock: KUFVIS_clean_sbu_0, # of connection points: 4
#     Node 5, Type 0, BuildingBlock: KUFVIS_clean_sbu_0, # of connection points: 4
#     Node 6, Type 0, BuildingBlock: KUFVIS_clean_sbu_0, # of connection points: 4
#     Node 7, Type 0, BuildingBlock: KUFVIS_clean_sbu_0, # of connection points: 4
#     Node 8, Type 0, BuildingBlock: KUFVIS_clean_sbu_0, # of connection points: 4
#     Node 9, Type 0, BuildingBlock: KUFVIS_clean_sbu_0, # of connection points: 4
#     Node 10, Type 0, BuildingBlock: KUFVIS_clean_sbu_0, # of connection points: 4
#     Node 11, Type 0, BuildingBlock: KUFVIS_clean_sbu_0, # of connection points: 4
#     Node 12, Type 0, BuildingBlock: KUFVIS_clean_sbu_0, # of connection points: 4
#     Node 13, Type 0, BuildingBlock: KUFVIS_clean_sbu_0, # of connection points: 4
#     Node 14, Type 0, BuildingBlock: KUFVIS_clean_sbu_0, # of connection points: 4
#     Node 15, Type 0, BuildingBlock: KUFVIS_clean_sbu_0, # of connection points: 4
#     Node 16, Type 0, BuildingBlock: KUFVIS_clean_sbu_0, # of connection points: 4
#     Node 17, Type 0, BuildingBlock: KUFVIS_clean_sbu_0, # of connection points: 4
#     Edge 18, Type (0, 0), BuildingBlock: XIVTED_clean_linker_0, # of connection points: 2
#     Edge 19, Type (0, 0), BuildingBlock: XIVTED_clean_linker_0, # of connection points: 2
#     Edge 20, Type (0, 0), BuildingBlock: XIVTED_clean_linker_0, # of connection points: 2
#     Edge 21, Type (0, 0), BuildingBlock: XIVTED_clean_linker_0, # of connection points: 2
#     Edge 22, Type (0, 0), BuildingBlock: XIVTED_clean_linker_0, # of connection points: 2
#     Edge 23, Type (0, 0), BuildingBlock: XIVTED_clean_linker_0, # of connection points: 2
#     Edge 24, Type (0, 0), BuildingBlock: XIVTED_clean_linker_0, # of connection points: 2
#     Edge 25, Type (0, 0), BuildingBlock: XIVTED_clean_linker_0, # of connection points: 2
#     Edge 26, Type (0, 0), BuildingBlock: XIVTED_clean_linker_0, # of connection points: 2
#     Edge 27, Type (0, 0), BuildingBlock: XIVTED_clean_linker_0, # of connection points: 2
#     Edge 28, Type (0, 0), BuildingBlock: XIVTED_clean_linker_0, # of connection points: 2
#     Edge 29, Type (0, 0), BuildingBlock: XIVTED_clean_linker_0, # of connection points: 2
#     Edge 30, Type (0, 0), BuildingBlock: XIVTED_clean_linker_0, # of connection points: 2
#     Edge 31, Type (0, 0), BuildingBlock: XIVTED_clean_linker_0, # of connection points: 2
#     Edge 32, Type (0, 0), BuildingBlock: XIVTED_clean_linker_0, # of connection points: 2
#     Edge 33, Type (0, 0), BuildingBlock: XIVTED_clean_linker_0, # of connection points: 2
#     Edge 34, Type (0, 0), BuildingBlock: XIVTED_clean_linker_0, # of connection points: 2
#     Edge 35, Type (0, 0), BuildingBlock: XIVTED_clean_linker_0, # of connection points: 2
#     Edge 36, Type (0, 0), BuildingBlock: XIVTED_clean_linker_0, # of connection points: 2
#     Edge 37, Type (0, 0), BuildingBlock: XIVTED_clean_linker_0, # of connection points: 2
#     Edge 38, Type (0, 0), BuildingBlock: XIVTED_clean_linker_0, # of connection points: 2
#     Edge 39, Type (0, 0), BuildingBlock: XIVTED_clean_linker_0, # of connection points: 2
#     Edge 40, Type (0, 0), BuildingBlock: XIVTED_clean_linker_0, # of connection points: 2
#     Edge 41, Type (0, 0), BuildingBlock: XIVTED_clean_linker_0, # of connection points: 2
#     Edge 42, Type (0, 0), BuildingBlock: XIVTED_clean_linker_0, # of connection points: 2
#     Edge 43, Type (0, 0), BuildingBlock: XIVTED_clean_linker_0, # of connection points: 2
#     Edge 44, Type (0, 0), BuildingBlock: XIVTED_clean_linker_0, # of connection points: 2
#     Edge 45, Type (0, 0), BuildingBlock: XIVTED_clean_linker_0, # of connection points: 2
#     Edge 46, Type (0, 0), BuildingBlock: XIVTED_clean_linker_0, # of connection points: 2
#     Edge 47, Type (0, 0), BuildingBlock: XIVTED_clean_linker_0, # of connection points: 2
#     Edge 48, Type (0, 0), BuildingBlock: XIVTED_clean_linker_0, # of connection points: 2
#     Edge 49, Type (0, 0), BuildingBlock: XIVTED_clean_linker_0, # of connection points: 2
#     Edge 50, Type (0, 0), BuildingBlock: XIVTED_clean_linker_0, # of connection points: 2
#     Edge 51, Type (0, 0), BuildingBlock: XIVTED_clean_linker_0, # of connection points: 2
#     Edge 52, Type (0, 0), BuildingBlock: XIVTED_clean_linker_0, # of connection points: 2
#     Edge 53, Type (0, 0), BuildingBlock: XIVTED_clean_linker_0, # of connection points: 2
# Relax obj value: 0.080
# Max RMSD: 0.075
# Mean RMSD: 0.075
data_MOF--net-unb--node1-KUFVIS_clean_sbu_0--edge1-XIVTED_clean_linker_0
_symmetry_space_group_name_H-M    P1
_symmetry_Int_Tables_number       1
_symmetry_cell_setting            triclinic
loop_
_symmetry_equiv_pos_as_xyz
'x, y, z'
_cell_length_a     64.702345
_cell_length_b     64.690411
_cell_length_c     25.125687
_cell_angle_alpha  89.998288
_cell_angle_beta   90.007798
_cell_angle_gamma 119.99546
loop_
_atom_site_label
_atom_site_type_symbol
_atom_site_fract_x
_atom_site_fract_y
_atom_site_fract_z
_atom_type_partial_charge
Mn0 Mn 0.15035 0.27163 0.06606 0.0
Mn1 Mn 0.14272 0.31975 0.06477 0.0
C2 C 0.15579 0.29312 0.98901 0.0
C3 C 0.17372 0.25328 0.069 0.0
C4 C 0.10145 0.26889 0.06139 0.0
O5 O 0.15363 0.28065 0.14554 0.0
O6 O 0.14676 0.31154 0.13823 0.0
C7 C 0.19068 0.35586 0.10365 0.0
N8 N 0.17314 0.34836 0.06625 0.0
C9 C 0.19569 0.38442 0.0155 0.0
C10 C 0.21392 0.39257 0.05364 0.0
C11 C 0.21143 0.37819 0.0978 0.0
C12 C 0.17541 0.36201 0.02345 0.0
H13 H 0.18887 0.34492 0.13771 0.0
C14 C 0.1514 0.29767 0.16556 0.0
O15 O 0.15091 0.24137 0.07803 0.0
O16 O 0.18326 0.27622 0.06394 0.0
N17 N 0.13903 0.33014 0.99594 0.0
C18 C 0.12035 0.31919 0.96144 0.0
C19 C 0.12029 0.33104 0.9147 0.0
C20 C 0.13933 0.35406 0.90409 0.0
C21 C 0.15826 0.36504 0.9403 0.0
C22 C 0.15725 0.35245 0.98646 0.0
H23 H 0.10559 0.30155 0.96953 0.0
O24 O 0.15015 0.27089 0.98666 0.0
O25 O 0.15755 0.30208 0.03608 0.0
O26 O 0.11394 0.25869 0.06588 0.0
O27 O 0.11058 0.29151 0.06137 0.0
C28 C 0.17823 0.38787 0.93209 0.0
C29 C 0.19698 0.3975 0.96954 0.0
H30 H 0.22998 0.40977 0.04922 0.0
H31 H 0.22547 0.38432 0.12731 0.0
H32 H 0.10554 0.32248 0.88708 0.0
H33 H 0.13927 0.36317 0.86805 0.0
H34 H 0.17949 0.39803 0.89676 0.0
H35 H 0.21241 0.41492 0.96238 0.0
Mn36 Mn 0.75601 0.88665 0.06691 0.0
Mn37 Mn 0.70872 0.83052 0.05944 0.0
C38 C 0.73638 0.87163 0.98743 0.0
C39 C 0.77365 0.92825 0.07248 0.0
C40 C 0.75993 0.84115 0.06041 0.0
O41 O 0.74538 0.87956 0.14532 0.0
O42 O 0.71538 0.84162 0.13399 0.0
C43 C 0.67117 0.84066 0.09644 0.0
N44 N 0.67967 0.83151 0.05915 0.0
C45 C 0.64415 0.8175 0.00616 0.0
C46 C 0.63497 0.82665 0.04414 0.0
C47 C 0.64858 0.83836 0.08937 0.0
C48 C 0.66677 0.82033 0.01534 0.0
H49 H 0.6815 0.8496 0.13136 0.0
C50 C 0.72831 0.85978 0.1632 0.0
O51 O 0.78567 0.91755 0.08247 0.0
O52 O 0.75087 0.91465 0.06517 0.0
N53 N 0.69974 0.81739 0.9894 0.0
C54 C 0.71173 0.81081 0.95506 0.0
C55 C 0.70085 0.79947 0.90707 0.0
C56 C 0.67767 0.79475 0.89521 0.0
C57 C 0.6656 0.80146 0.93137 0.0
C58 C 0.67732 0.81266 0.97862 0.0
H59 H 0.72948 0.81424 0.96411 0.0
O60 O 0.75851 0.88849 0.98784 0.0
O61 O 0.72635 0.86352 0.03332 0.0
O62 O 0.76963 0.86369 0.06707 0.0
O63 O 0.73739 0.82737 0.05774 0.0
C64 C 0.64254 0.79782 0.92201 0.0
C65 C 0.63188 0.80595 0.95923 0.0
H66 H 0.61756 0.82493 0.03881 0.0
H67 H 0.64165 0.84554 0.11878 0.0
H68 H 0.71027 0.7943 0.87942 0.0
H69 H 0.66932 0.78605 0.85818 0.0
H70 H 0.63298 0.78907 0.88596 0.0
H71 H 0.6143 0.80339 0.95117 0.0
Mn72 Mn 0.14063 0.87691 0.07099 0.0
Mn73 Mn 0.19681 0.88574 0.07517 0.0
C74 C 0.15793 0.87112 0.99635 0.0
C75 C 0.09889 0.85337 0.07198 0.0
C76 C 0.18626 0.92625 0.06685 0.0
O77 O 0.14542 0.87427 0.15128 0.0
O78 O 0.18354 0.88195 0.14755 0.0
C79 C 0.18584 0.83854 0.11755 0.0
N80 N 0.19601 0.85584 0.07966 0.0
C81 C 0.21265 0.8346 0.03494 0.0
C82 C 0.20246 0.81662 0.07362 0.0
C83 C 0.18888 0.81854 0.11493 0.0
C84 C 0.20886 0.85403 0.0394 0.0
H85 H 0.17557 0.84002 0.14962 0.0
C86 C 0.16455 0.87705 0.17319 0.0
O87 O 0.10966 0.87623 0.08007 0.0
O88 O 0.11236 0.84384 0.06868 0.0
N89 N 0.21193 0.88926 0.00771 0.0
C90 C 0.21931 0.90739 0.97182 0.0
C91 C 0.23252 0.90775 0.92717 0.0
C92 C 0.23828 0.88967 0.92025 0.0
C93 C 0.23065 0.8713 0.95793 0.0
C94 C 0.21745 0.87183 0.00151 0.0
H95 H 0.2152 0.92151 0.97727 0.0
O96 O 0.14119 0.87647 0.99161 0.0
O97 O 0.16462 0.86992 0.04436 0.0
O98 O 0.16359 0.91343 0.07006 0.0
O99 O 0.20006 0.91752 0.06906 0.0
C100 C 0.23552 0.85244 0.95384 0.0
C101 C 0.22632 0.83396 0.99198 0.0
H102 H 0.20483 0.8012 0.07183 0.0
H103 H 0.1809 0.8047 0.14486 0.0
H104 H 0.23844 0.92206 0.89843 0.0
H105 H 0.24854 0.89003 0.88589 0.0
H106 H 0.24604 0.85177 0.92104 0.0
H107 H 0.22977 0.81929 0.98777 0.0
Mn108 Mn 0.27433 0.14522 0.92954 0.0
Mn109 Mn 0.3219 0.13686 0.93764 0.0
C110 C 0.29388 0.15004 0.00918 0.0
C111 C 0.25643 0.16892 0.92344 0.0
C112 C 0.27085 0.09601 0.9367 0.0
O113 O 0.28504 0.14873 0.85125 0.0
O114 O 0.31519 0.14105 0.86298 0.0
C115 C 0.35916 0.18462 0.9003 0.0
N116 N 0.35079 0.16704 0.93775 0.0
C117 C 0.38629 0.18886 0.99065 0.0
C118 C 0.39534 0.20713 0.9525 0.0
C119 C 0.38167 0.20503 0.90725 0.0
C120 C 0.36374 0.16895 0.9816 0.0
H121 H 0.34879 0.18309 0.86536 0.0
C122 C 0.30217 0.1461 0.83357 0.0
O123 O 0.24457 0.14618 0.91355 0.0
O124 O 0.27921 0.17826 0.93098 0.0
N125 N 0.33096 0.13294 0.00778 0.0
C126 C 0.31912 0.11438 0.04221 0.0
C127 C 0.33008 0.11409 0.09021 0.0
C128 C 0.35319 0.13269 0.10198 0.0
C129 C 0.36512 0.15146 0.0657 0.0
C130 C 0.35332 0.15078 0.01846 0.0
H131 H 0.30142 0.09993 0.03322 0.0
O132 O 0.2717 0.14462 0.00855 0.0
O133 O 0.30401 0.15201 0.96342 0.0
O134 O 0.261 0.10869 0.92966 0.0
O135 O 0.2934 0.10493 0.93955 0.0
C136 C 0.38812 0.17101 0.07492 0.0
C137 C 0.39864 0.18976 0.03757 0.0
H138 H 0.41268 0.22291 0.95772 0.0
H139 H 0.38849 0.21909 0.87772 0.0
H140 H 0.32077 0.09949 0.11791 0.0
H141 H 0.36159 0.13247 0.13902 0.0
H142 H 0.39775 0.17195 0.11095 0.0
H143 H 0.41617 0.20487 0.04552 0.0
Mn144 Mn 0.88189 0.13706 0.93022 0.0
Mn145 Mn 0.88989 0.19293 0.93314 0.0
C146 C 0.8767 0.15291 0.00791 0.0
C147 C 0.85842 0.09535 0.9268 0.0
C148 C 0.93095 0.18305 0.93549 0.0
O149 O 0.87839 0.14308 0.851 0.0
O150 O 0.88585 0.181 0.85939 0.0
C151 C 0.84205 0.18151 0.89427 0.0
N152 N 0.85955 0.1913 0.93181 0.0
C153 C 0.83713 0.20484 0.98296 0.0
C154 C 0.81894 0.19502 0.94469 0.0
C155 C 0.82138 0.18323 0.90026 0.0
C156 C 0.85732 0.20257 0.97487 0.0
H157 H 0.84382 0.17247 0.85998 0.0
C158 C 0.8809 0.16254 0.83151 0.0
O159 O 0.88119 0.10623 0.9173 0.0
O160 O 0.84894 0.10877 0.93255 0.0
N161 N 0.89358 0.20674 0.00229 0.0
C162 C 0.9122 0.21421 0.03687 0.0
C163 C 0.91229 0.22598 0.08386 0.0
C164 C 0.89335 0.23011 0.09463 0.0
C165 C 0.87448 0.22241 0.05833 0.0
C166 C 0.87544 0.21093 0.01195 0.0
H167 H 0.92688 0.21123 0.02867 0.0
O168 O 0.8823 0.13628 0.00963 0.0
O169 O 0.87489 0.1603 0.96109 0.0
O170 O 0.91835 0.16041 0.93005 0.0
O171 O 0.92195 0.19664 0.93643 0.0
C172 C 0.85461 0.22542 0.06667 0.0
C173 C 0.83589 0.21654 0.02915 0.0
H174 H 0.80295 0.19627 0.9492 0.0
H175 H 0.80738 0.17552 0.87065 0.0
H176 H 0.92699 0.23196 0.11156 0.0
H177 H 0.89344 0.23919 0.13084 0.0
H178 H 0.8534 0.23426 0.10216 0.0
H179 H 0.82054 0.21863 0.0364 0.0
Mn180 Mn 0.88997 0.75108 0.93025 0.0
Mn181 Mn 0.83348 0.70419 0.93179 0.0
C182 C 0.87364 0.72976 0.00744 0.0
C183 C 0.93162 0.76862 0.92692 0.0
C184 C 0.8448 0.7556 0.93513 0.0
O185 O 0.88397 0.74203 0.85085 0.0
O186 O 0.84579 0.71203 0.8583 0.0
C187 C 0.84292 0.66651 0.8923 0.0
N188 N 0.83357 0.6747 0.92978 0.0
C189 C 0.8164 0.63749 0.97746 0.0
C190 C 0.82576 0.62862 0.93926 0.0
C191 C 0.8392 0.64325 0.89666 0.0
C192 C 0.82083 0.66086 0.97122 0.0
H193 H 0.85306 0.67758 0.85921 0.0
C194 C 0.86445 0.72539 0.83091 0.0
O195 O 0.92109 0.78088 0.91787 0.0
O196 O 0.91788 0.74574 0.93232 0.0
N197 N 0.81923 0.69416 0.00054 0.0
C198 C 0.813 0.70602 0.03605 0.0
C199 C 0.80034 0.69424 0.08218 0.0
C200 C 0.79385 0.67029 0.09082 0.0
C201 C 0.80031 0.65841 0.05351 0.0
C202 C 0.81311 0.67113 0.00855 0.0
H203 H 0.81766 0.72433 0.02923 0.0
O204 O 0.89061 0.75184 0.00948 0.0
O205 O 0.86611 0.72078 0.96045 0.0
O206 O 0.86741 0.76517 0.9306 0.0
O207 O 0.83083 0.73308 0.93535 0.0
C208 C 0.79474 0.63452 0.05938 0.0
C209 C 0.80297 0.62413 0.02169 0.0
H210 H 0.82286 0.61066 0.94239 0.0
H211 H 0.84654 0.63655 0.86709 0.0
H212 H 0.79539 0.70353 0.11073 0.0
H213 H 0.78398 0.66121 0.12626 0.0
H214 H 0.78453 0.62411 0.09336 0.0
H215 H 0.79904 0.60592 0.02731 0.0
Mn216 Mn 0.81712 0.6037 0.40253 0.0
Mn217 Mn 0.80697 0.65023 0.40065 0.0
C218 C 0.82183 0.62486 0.32519 0.0
C219 C 0.84146 0.5864 0.40568 0.0
C220 C 0.76723 0.5987 0.39755 0.0
O221 O 0.82023 0.61287 0.48191 0.0
O222 O 0.81148 0.64246 0.47414 0.0
C223 C 0.85391 0.68818 0.44036 0.0
N224 N 0.83639 0.67987 0.40279 0.0
C225 C 0.85614 0.71714 0.3553 0.0
C226 C 0.87434 0.72613 0.39359 0.0
C227 C 0.87329 0.71154 0.43613 0.0
C228 C 0.83737 0.69367 0.3614 0.0
H229 H 0.85307 0.67713 0.47343 0.0
C230 C 0.81705 0.62935 0.50173 0.0
O231 O 0.81871 0.57405 0.415 0.0
O232 O 0.85046 0.60927 0.40023 0.0
N233 N 0.80268 0.6602 0.33189 0.0
C234 C 0.78462 0.64825 0.29634 0.0
C235 C 0.78362 0.66 0.25027 0.0
C236 C 0.80092 0.68402 0.24175 0.0
C237 C 0.81921 0.696 0.27912 0.0
C238 C 0.81942 0.6833 0.324 0.0
H239 H 0.77109 0.62989 0.30308 0.0
O240 O 0.81688 0.60282 0.32329 0.0
O241 O 0.82327 0.63388 0.37211 0.0
O242 O 0.78043 0.58932 0.40241 0.0
O243 O 0.77558 0.62118 0.39697 0.0
C244 C 0.83734 0.71998 0.2734 0.0
C245 C 0.85593 0.73047 0.31116 0.0
H246 H 0.88928 0.74417 0.39057 0.0
H247 H 0.8873 0.71833 0.46578 0.0
H248 H 0.76942 0.65064 0.2217 0.0
H249 H 0.80004 0.69309 0.20636 0.0
H250 H 0.83744 0.73037 0.2395 0.0
H251 H 0.87007 0.74876 0.30565 0.0
Mn252 Mn 0.4212 0.21683 0.40135 0.0
Mn253 Mn 0.37383 0.16066 0.40507 0.0
C254 C 0.39824 0.1996 0.3265 0.0
C255 C 0.43929 0.25857 0.40248 0.0
C256 C 0.42487 0.17115 0.39708 0.0
O257 O 0.41367 0.21197 0.4816 0.0
O258 O 0.3833 0.17384 0.47748 0.0
C259 C 0.33767 0.17169 0.44751 0.0
N260 N 0.34479 0.16154 0.40955 0.0
C261 C 0.30695 0.14504 0.36469 0.0
C262 C 0.29918 0.15522 0.40342 0.0
C263 C 0.31466 0.16872 0.44484 0.0
C264 C 0.33013 0.14876 0.36919 0.0
H265 H 0.3494 0.1819 0.47967 0.0
C266 C 0.39732 0.19278 0.50334 0.0
O267 O 0.45145 0.24787 0.41054 0.0
O268 O 0.4163 0.24502 0.39914 0.0
N269 N 0.36226 0.14561 0.33753 0.0
C270 C 0.37299 0.13822 0.30163 0.0
C271 C 0.36014 0.12508 0.25689 0.0
C272 C 0.33633 0.1194 0.24991 0.0
C273 C 0.32562 0.12704 0.2876 0.0
C274 C 0.33933 0.14017 0.33126 0.0
H275 H 0.39118 0.14227 0.30714 0.0
O276 O 0.42033 0.21635 0.32195 0.0
O277 O 0.39028 0.19287 0.37444 0.0
O278 O 0.43475 0.19383 0.40047 0.0
O279 O 0.40233 0.15738 0.39899 0.0
C280 C 0.30191 0.12224 0.28345 0.0
C281 C 0.29266 0.13144 0.32164 0.0
H282 H 0.28141 0.1529 0.40161 0.0
H283 H 0.30882 0.17669 0.47482 0.0
H284 H 0.36852 0.11915 0.22813 0.0
H285 H 0.32644 0.10918 0.21548 0.0
H286 H 0.29073 0.11178 0.25058 0.0
H287 H 0.27456 0.12805 0.31738 0.0
Mn288 Mn 0.80654 0.20904 0.4012 0.0
Mn289 Mn 0.86259 0.21744 0.40002 0.0
C290 C 0.82284 0.20396 0.32411 0.0
C291 C 0.76486 0.18524 0.40418 0.0
C292 C 0.8523 0.25827 0.39689 0.0
O293 O 0.81236 0.20585 0.4807 0.0
O294 O 0.85024 0.21308 0.47342 0.0
C295 C 0.85136 0.16958 0.43835 0.0
N296 N 0.86126 0.18723 0.40117 0.0
C297 C 0.87542 0.16526 0.35036 0.0
C298 C 0.86549 0.14692 0.38826 0.0
C299 C 0.85334 0.14906 0.43235 0.0
C300 C 0.87287 0.18529 0.35845 0.0
H301 H 0.84204 0.17114 0.47235 0.0
C302 C 0.83168 0.20825 0.50072 0.0
O303 O 0.77552 0.20804 0.41324 0.0
O304 O 0.77847 0.17595 0.399 0.0
N305 N 0.87682 0.22149 0.33126 0.0
C306 C 0.88437 0.24023 0.29701 0.0
C307 C 0.89651 0.24063 0.25038 0.0
C308 C 0.90091 0.22186 0.23965 0.0
C309 C 0.89314 0.20287 0.27563 0.0
C310 C 0.88131 0.20354 0.32167 0.0
H311 H 0.88119 0.25479 0.3052 0.0
O312 O 0.80602 0.20927 0.32178 0.0
O313 O 0.83009 0.20228 0.37118 0.0
O314 O 0.82964 0.24555 0.40109 0.0
O315 O 0.86602 0.2494 0.39699 0.0
C316 C 0.89643 0.18316 0.26731 0.0
C317 C 0.88746 0.16431 0.30451 0.0
H318 H 0.86694 0.13104 0.38374 0.0
H319 H 0.84554 0.13494 0.46167 0.0
H320 H 0.90256 0.25543 0.22296 0.0
H321 H 0.91027 0.22219 0.2037 0.0
H322 H 0.90554 0.18218 0.23207 0.0
H323 H 0.88977 0.14908 0.29727 0.0
Mn324 Mn 0.94165 0.47798 0.26241 0.0
Mn325 Mn 0.98843 0.46823 0.26473 0.0
C326 C 0.9628 0.48292 0.33985 0.0
C327 C 0.92406 0.50205 0.25895 0.0
C328 C 0.93705 0.42825 0.2684 0.0
O329 O 0.95086 0.48108 0.1831 0.0
O330 O 0.98043 0.47232 0.19111 0.0
C331 C 0.02599 0.51517 0.22403 0.0
N332 N 0.01791 0.4978 0.26194 0.0
C333 C 0.05529 0.518 0.30889 0.0
C334 C 0.06405 0.53605 0.27024 0.0
C335 C 0.04928 0.53469 0.22781 0.0
C336 C 0.03188 0.49907 0.30326 0.0
H337 H 1.01481 0.51409 0.19104 0.0
C338 C 0.96731 0.47784 0.16339 0.0
O339 O 0.91187 0.47928 0.24966 0.0
O340 O 0.94693 0.51122 0.26455 0.0
N341 N 0.99867 0.46435 0.33354 0.0
C342 C 0.98694 0.4464 0.36943 0.0
C343 C 0.9989 0.44568 0.41541 0.0
C344 C 0.02289 0.46316 0.42352 0.0
C345 C 0.03463 0.48134 0.3858 0.0
C346 C 0.02173 0.48127 0.34102 0.0
H347 H 0.96861 0.43272 0.36302 0.0
O348 O 0.94071 0.47779 0.34162 0.0
O349 O 0.97189 0.48441 0.29299 0.0
O350 O 0.92755 0.44131 0.26271 0.0
O351 O 0.95954 0.43674 0.2692 0.0
C352 C 0.05857 0.49963 0.39104 0.0
C353 C 0.06882 0.51809 0.35293 0.0
H354 H 0.08204 0.55109 0.2729 0.0
H355 H 0.05588 0.54858 0.19789 0.0
H356 H 0.98972 0.43155 0.44423 0.0
H357 H 0.0321 0.46251 0.45888 0.0
H358 H 0.06912 0.49994 0.42484 0.0
H359 H 0.08708 0.53235 0.35808 0.0
Mn360 Mn 0.54783 0.46775 0.26236 0.0
Mn361 Mn 0.55762 0.52431 0.26417 0.0
C362 C 0.5428 0.48403 0.3396 0.0
C363 C 0.52381 0.42608 0.25869 0.0
C364 C 0.59756 0.51283 0.26828 0.0
O365 O 0.5449 0.47383 0.18297 0.0
O366 O 0.55349 0.51213 0.19061 0.0
C367 C 0.51069 0.51497 0.2235 0.0
N368 N 0.52809 0.52429 0.26134 0.0
C369 C 0.50796 0.54158 0.30818 0.0
C370 C 0.48988 0.53226 0.26959 0.0
C371 C 0.49119 0.51878 0.22724 0.0
C372 C 0.52685 0.53705 0.30258 0.0
H373 H 0.51173 0.50481 0.19059 0.0
C374 C 0.54808 0.49347 0.16309 0.0
O375 O 0.54659 0.43669 0.24972 0.0
O376 O 0.5146 0.43976 0.26425 0.0
N377 N 0.56156 0.53852 0.33289 0.0
C378 C 0.57954 0.54479 0.36872 0.0
C379 C 0.58032 0.55756 0.41458 0.0
C380 C 0.56287 0.5641 0.42264 0.0
C381 C 0.54466 0.55763 0.38498 0.0
C382 C 0.54468 0.54473 0.3403 0.0
H383 H 0.59319 0.5401 0.36235 0.0
O384 O 0.54787 0.46703 0.34158 0.0
O385 O 0.54139 0.49162 0.29264 0.0
O386 O 0.58448 0.49026 0.26293 0.0
O387 O 0.5891 0.52687 0.26867 0.0
C388 C 0.52639 0.56331 0.3902 0.0
C389 C 0.50791 0.55508 0.35214 0.0
H390 H 0.47486 0.53524 0.27222 0.0
H391 H 0.47729 0.51148 0.19736 0.0
H392 H 0.59449 0.56255 0.44333 0.0
H393 H 0.56357 0.57405 0.4579 0.0
H394 H 0.52612 0.5736 0.42394 0.0
H395 H 0.49367 0.55911 0.35726 0.0
Mn396 Mn 0.55589 0.08305 0.26292 0.0
Mn397 Mn 0.49999 0.03523 0.26579 0.0
C398 C 0.54003 0.06198 0.34061 0.0
C399 C 0.59759 0.10139 0.25929 0.0
C400 C 0.50996 0.0862 0.26838 0.0
O401 O 0.54984 0.07358 0.18367 0.0
O402 O 0.51191 0.0432 0.19207 0.0
C403 C 0.51138 0.99882 0.22665 0.0
N404 N 0.50157 1.00649 0.26424 0.0
C405 C 0.48789 0.97041 0.31503 0.0
C406 C 0.49774 0.96209 0.27671 0.0
C407 C 0.50961 0.9764 0.23244 0.0
C408 C 0.49025 0.99292 0.30716 0.0
H409 H 0.52048 1.00969 0.19249 0.0
C410 C 0.53035 0.05669 0.16417 0.0
O411 O 0.58663 0.1132 0.24987 0.0
O412 O 0.58426 0.07848 0.26518 0.0
N413 N 0.48614 0.02502 0.33486 0.0
C414 C 0.47859 0.0361 0.36943 0.0
C415 C 0.46667 0.02431 0.4162 0.0
C416 C 0.4625 1.00121 0.42678 0.0
C417 C 0.47026 0.9901 0.39048 0.0
C418 C 0.48187 1.00264 0.3443 0.0
H419 H 0.48159 0.05379 0.36136 0.0
O420 O 0.55668 0.0842 0.34235 0.0
O421 O 0.53264 0.0528 0.29378 0.0
O422 O 0.53257 0.09617 0.26282 0.0
O423 O 0.49632 0.06361 0.26933 0.0
C424 C 0.46717 0.96717 0.39859 0.0
C425 C 0.4761 0.95739 0.36103 0.0
H426 H 0.49643 0.94481 0.28105 0.0
H427 H 0.51733 0.97014 0.20279 0.0
H428 H 0.46061 0.03297 0.44383 0.0
H429 H 0.45331 0.99214 0.46284 0.0
H430 H 0.45823 0.95704 0.43392 0.0
H431 H 0.47393 0.9399 0.36811 0.0
Mn432 Mn 0.48206 0.93563 0.73408 0.0
Mn433 Mn 0.47381 0.98338 0.73229 0.0
C434 C 0.48729 0.95697 0.65682 0.0
C435 C 0.50567 0.91753 0.73755 0.0
C436 C 0.43288 0.93233 0.7292 0.0
O437 O 0.4853 0.94479 0.81348 0.0
O438 O 0.47798 0.97537 0.80586 0.0
C439 C 0.52162 0.0199 0.77109 0.0
N440 N 0.50406 0.01219 0.73368 0.0
C441 C 0.52625 0.04829 0.68285 0.0
C442 C 0.5445 0.05666 0.72099 0.0
C443 C 0.5422 0.04236 0.76519 0.0
C444 C 0.50616 0.02575 0.69084 0.0
H445 H 0.51995 1.00903 0.80518 0.0
C446 C 0.48284 0.9617 0.83333 0.0
O447 O 0.48287 0.90554 0.7466 0.0
O448 O 0.51509 0.94043 0.73198 0.0
N449 N 0.46997 0.99358 0.66337 0.0
C450 C 0.45132 0.98242 0.62889 0.0
C451 C 0.45108 0.99417 0.58213 0.0
C452 C 0.46991 0.0173 0.5715 0.0
C453 C 0.48882 0.02848 0.60769 0.0
C454 C 0.488 0.01598 0.65386 0.0
H455 H 0.43671 0.9647 0.63699 0.0
O456 O 0.48185 0.93479 0.65464 0.0
O457 O 0.48895 0.96595 0.70383 0.0
O458 O 0.44557 0.92236 0.73393 0.0
O459 O 0.44181 0.95493 0.72898 0.0
C460 C 0.5086 0.05143 0.59945 0.0
C461 C 0.52736 0.06128 0.63688 0.0
H462 H 0.56042 0.07396 0.71655 0.0
H463 H 0.55624 0.04866 0.7947 0.0
H464 H 0.43634 0.98545 0.55452 0.0
H465 H 0.4697 0.02634 0.53548 0.0
H466 H 0.50971 0.06153 0.56411 0.0
H467 H 0.54264 0.07879 0.6297 0.0
Mn468 Mn 0.08892 0.55151 0.73479 0.0
Mn469 Mn 0.04217 0.49493 0.73353 0.0
C470 C 0.06756 0.53505 0.65772 0.0
C471 C 0.10632 0.59316 0.73773 0.0
C472 C 0.09362 0.50645 0.73004 0.0
O473 O 0.07995 0.54556 0.81425 0.0
O474 O 0.05003 0.50732 0.80696 0.0
C475 C 1.00439 0.50421 0.77302 0.0
N476 N 1.01263 0.49489 0.73554 0.0
C477 C 0.97542 0.47761 0.68784 0.0
C478 C 0.9665 0.48693 0.72604 0.0
C479 C 0.9811 0.5004 0.76864 0.0
C480 C 0.99881 0.48211 0.6941 0.0
H481 H 1.01544 0.51437 0.8061 0.0
C482 C 0.06336 0.52603 0.83427 0.0
O483 O 0.11867 0.58273 0.74687 0.0
O484 O 0.08344 0.57933 0.7326 0.0
N485 N 0.03216 0.48062 0.66482 0.0
C486 C 0.04406 0.47442 0.62933 0.0
C487 C 0.0323 0.46173 0.58321 0.0
C488 C 1.00834 0.45519 0.57454 0.0
C489 C 0.99642 0.46161 0.61182 0.0
C490 C 1.00912 0.47444 0.65679 0.0
H491 H 0.06238 0.47914 0.63615 0.0
O492 O 0.08962 0.55207 0.65558 0.0
O493 O 0.05864 0.52754 0.70475 0.0
O494 O 0.10313 0.52906 0.73448 0.0
O495 O 0.07113 0.4924 0.72995 0.0
C496 C 0.97252 0.45597 0.60592 0.0
C497 C 0.96209 0.46416 0.6436 0.0
H498 H 0.94852 0.48398 0.72289 0.0
H499 H 0.97436 0.50771 0.79821 0.0
H500 H 0.04162 0.45681 0.55467 0.0
H501 H 0.99928 0.4453 0.5391 0.0
H502 H 0.96213 0.44575 0.57193 0.0
H503 H 0.94386 0.46018 0.63796 0.0
Mn504 Mn 0.47523 0.54247 0.73494 0.0
Mn505 Mn 0.53176 0.55228 0.73261 0.0
C506 C 0.49143 0.53748 0.65752 0.0
C507 C 0.43358 0.51842 0.7383 0.0
C508 C 0.52027 0.59222 0.72911 0.0
O509 O 0.48135 0.53937 0.81425 0.0
O510 O 0.51967 0.5481 0.80625 0.0
C511 C 0.52254 0.50536 0.77308 0.0
N512 N 0.53175 0.52274 0.73521 0.0
C513 C 0.54882 0.50255 0.68779 0.0
C514 C 0.53961 0.48448 0.7264 0.0
C515 C 0.5263 0.48583 0.76906 0.0
C516 C 0.54436 0.52148 0.6937 0.0
H517 H 0.51251 0.50642 0.80623 0.0
C518 C 0.50103 0.54257 0.83396 0.0
O519 O 0.44415 0.54119 0.74759 0.0
O520 O 0.44728 0.50924 0.73282 0.0
N521 N 0.54582 0.55623 0.66372 0.0
C522 C 0.55196 0.57419 0.62788 0.0
C523 C 0.56452 0.57491 0.58172 0.0
C524 C 0.571 0.55742 0.57335 0.0
C525 C 0.56464 0.53923 0.61099 0.0
C526 C 0.55195 0.53931 0.656 0.0
H527 H 0.5473 0.58785 0.63447 0.0
O528 O 0.47448 0.54263 0.6557 0.0
O529 O 0.49905 0.53605 0.70441 0.0
O530 O 0.49772 0.57912 0.73466 0.0
O531 O 0.53431 0.58376 0.72834 0.0
C532 C 0.57023 0.5209 0.60542 0.0
C533 C 0.56212 0.50244 0.64349 0.0
H534 H 0.54254 0.46942 0.72354 0.0
H535 H 0.51908 0.47193 0.79896 0.0
H536 H 0.56941 0.58905 0.55294 0.0
H537 H 0.58079 0.55809 0.53788 0.0
H538 H 0.58035 0.52058 0.5714 0.0
H539 H 0.56607 0.48816 0.63811 0.0
Mn540 Mn 0.60885 0.81135 0.59524 0.0
Mn541 Mn 0.65608 0.80232 0.59172 0.0
C542 C 0.6317 0.81688 0.67025 0.0
C543 C 0.59076 0.835 0.59422 0.0
C544 C 0.60496 0.76191 0.5991 0.0
O545 O 0.61656 0.81419 0.51501 0.0
O546 O 0.64682 0.80627 0.51927 0.0
C547 C 0.69251 0.84953 0.54986 0.0
N548 N 0.68523 0.83217 0.58765 0.0
C549 C 0.72301 0.8532 0.63283 0.0
C550 C 0.73095 0.87126 0.59428 0.0
C551 C 0.71558 0.86947 0.55279 0.0
C552 C 0.69978 0.83385 0.62807 0.0
H553 H 0.68086 0.84816 0.51765 0.0
C554 C 0.63293 0.81134 0.49334 0.0
O555 O 0.57863 0.81216 0.58585 0.0
O556 O 0.61375 0.84445 0.59779 0.0
N557 N 0.66747 0.79863 0.6593 0.0
C558 C 0.65658 0.78045 0.69504 0.0
C559 C 0.66929 0.77997 0.73984 0.0
C560 C 0.69315 0.79796 0.74703 0.0
C561 C 0.70402 0.81637 0.70952 0.0
C562 C 0.69043 0.81599 0.66581 0.0
H563 H 0.63834 0.7664 0.68935 0.0
O564 O 0.60962 0.81159 0.67468 0.0
O565 O 0.63971 0.81817 0.62235 0.0
O566 O 0.59518 0.7748 0.59575 0.0
O567 O 0.62748 0.77059 0.59737 0.0
C568 C 0.72778 0.83516 0.71391 0.0
C569 C 0.73719 0.8537 0.67592 0.0
H570 H 0.74877 0.88662 0.59629 0.0
H571 H 0.72155 0.88335 0.52296 0.0
H572 H 0.66079 0.76563 0.76848 0.0
H573 H 0.70294 0.79748 0.78149 0.0
H574 H 0.73886 0.83572 0.74682 0.0
H575 H 0.75532 0.86831 0.68037 0.0
Mn576 Mn 0.21289 0.80214 0.59948 0.0
Mn577 Mn 0.22078 0.85789 0.60798 0.0
C578 C 0.20801 0.81671 0.67931 0.0
C579 C 0.18939 0.7605 0.59329 0.0
C580 C 0.26193 0.84813 0.60638 0.0
O581 O 0.20919 0.80934 0.52122 0.0
O582 O 0.21657 0.84704 0.53332 0.0
C583 C 0.17285 0.84699 0.57106 0.0
N584 N 0.19048 0.85631 0.60838 0.0
C585 C 0.16853 0.86976 0.6615 0.0
C586 C 0.15021 0.86042 0.62349 0.0
C587 C 0.15235 0.8489 0.57819 0.0
C588 C 0.18853 0.86729 0.65229 0.0
H589 H 0.17442 0.83819 0.53606 0.0
C590 C 0.21163 0.82907 0.50371 0.0
O591 O 0.21212 0.7715 0.58328 0.0
O592 O 0.17995 0.77383 0.60102 0.0
N593 N 0.2247 0.8708 0.67817 0.0
C594 C 0.24333 0.87765 0.71246 0.0
C595 C 0.24359 0.88886 0.7605 0.0
C596 C 0.22489 0.89321 0.77243 0.0
C597 C 0.20605 0.88625 0.73629 0.0
C598 C 0.20676 0.87516 0.68902 0.0
H599 H 0.25785 0.87454 0.70331 0.0
O600 O 0.21361 0.80008 0.6785 0.0
O601 O 0.20592 0.82485 0.63362 0.0
O602 O 0.2494 0.82557 0.59942 0.0
O603 O 0.25283 0.8616 0.6095 0.0
C604 C 0.18643 0.88956 0.74566 0.0
C605 C 0.16761 0.88119 0.70845 0.0
H606 H 0.13436 0.86185 0.62885 0.0
H607 H 0.13824 0.84157 0.54876 0.0
H608 H 0.25824 0.89425 0.7881 0.0
H609 H 0.22511 0.90182 0.80949 0.0
H610 H 0.18548 0.89824 0.78169 0.0
H611 H 0.15244 0.88349 0.71653 0.0
Mn612 Mn 0.2251 0.41887 0.59496 0.0
Mn613 Mn 0.16905 0.37134 0.59807 0.0
C614 C 0.20921 0.39791 0.6727 0.0
C615 C 0.26676 0.43674 0.5912 0.0
C616 C 0.17941 0.42246 0.60073 0.0
O617 O 0.21891 0.40941 0.51573 0.0
O618 O 0.18091 0.3792 0.5243 0.0
C619 C 0.18005 0.33466 0.55889 0.0
N620 N 0.17038 0.34246 0.59652 0.0
C621 C 0.15653 0.30639 0.64741 0.0
C622 C 0.16622 0.29792 0.60905 0.0
C623 C 0.17811 0.31217 0.56471 0.0
C624 C 0.15904 0.32896 0.63951 0.0
H625 H 0.18916 0.34548 0.52467 0.0
C626 C 0.19935 0.3926 0.49632 0.0
O627 O 0.25605 0.44881 0.58188 0.0
O628 O 0.25319 0.41387 0.59699 0.0
N629 N 0.15523 0.36123 0.6672 0.0
C630 C 0.14783 0.37244 0.7018 0.0
C631 C 0.13594 0.36073 0.74866 0.0
C632 C 0.13161 0.33758 0.75928 0.0
C633 C 0.1392 0.32634 0.72293 0.0
C634 C 0.15081 0.33881 0.67668 0.0
H635 H 0.15096 0.39016 0.6937 0.0
O636 O 0.22601 0.42006 0.67435 0.0
O637 O 0.20171 0.38872 0.62592 0.0
O638 O 0.20202 0.43231 0.59511 0.0
O639 O 0.16566 0.39987 0.60161 0.0
C640 C 0.13595 0.30335 0.73108 0.0
C641 C 0.14472 0.29343 0.69348 0.0
H642 H 0.16478 0.28059 0.61341 0.0
H643 H 0.18572 0.3058 0.53502 0.0
H644 H 0.12999 0.3695 0.77632 0.0
H645 H 0.12244 0.32858 0.79542 0.0
H646 H 0.127 0.29327 0.76646 0.0
H647 H 0.14243 0.27589 0.70058 0.0
H648 H 0.22938 0.38191 0.44083 0.0
H649 H 0.12351 0.30314 0.23723 0.0
H650 H 0.16361 0.38311 0.42769 0.0
H651 H 0.19336 0.31135 0.21821 0.0
H652 H 0.13759 0.32885 0.31539 0.0
H653 H 0.21765 0.35544 0.3625 0.0
C654 C 0.21299 0.37746 0.42008 0.0
C655 C 0.19758 0.38498 0.44025 0.0
C656 C 0.14984 0.32478 0.29489 0.0
C657 C 0.18351 0.35382 0.35288 0.0
C658 C 0.14162 0.30965 0.25091 0.0
C659 C 0.15715 0.30476 0.22183 0.0
C660 C 0.17396 0.33546 0.30987 0.0
C661 C 0.18067 0.31423 0.24038 0.0
C662 C 0.20607 0.36195 0.37614 0.0
C663 C 0.17613 0.37795 0.41308 0.0
N664 N 0.18849 0.32939 0.28296 0.0
N665 N 0.16964 0.3626 0.3714 0.0
H666 H 0.64484 0.85305 0.44123 0.0
H667 H 0.71968 0.824 0.23085 0.0
H668 H 0.63936 0.7844 0.42054 0.0
H669 H 0.71555 0.88824 0.21878 0.0
H670 H 0.69335 0.81192 0.30791 0.0
H671 H 0.67095 0.86776 0.36239 0.0
C672 C 0.64821 0.84078 0.41864 0.0
C673 C 0.63963 0.81735 0.4369 0.0
C674 C 0.6984 0.82887 0.28914 0.0
C675 C 0.67041 0.83434 0.34888 0.0
C676 C 0.71386 0.83598 0.24575 0.0
C677 C 0.72011 0.85732 0.21893 0.0
C678 C 0.6888 0.84304 0.30593 0.0
C679 C 0.71157 0.87191 0.23913 0.0
C680 C 0.66353 0.84932 0.37439 0.0
C681 C 0.64532 0.80247 0.4074 0.0
N682 N 0.69612 0.8644 0.2812 0.0
N683 N 0.66054 0.81128 0.36548 0.0
H684 H 0.17184 0.79862 0.44561 0.0
H685 H 0.19599 0.90554 0.2475 0.0
H686 H 0.23673 0.86668 0.43866 0.0
H687 H 0.13673 0.83456 0.22396 0.0
H688 H 0.20754 0.89177 0.32632 0.0
H689 H 0.15672 0.81036 0.36791 0.0
C690 C 0.18326 0.8156 0.42644 0.0
C691 C 0.20571 0.8316 0.44813 0.0
C692 C 0.19171 0.87919 0.30471 0.0
C693 C 0.18813 0.84559 0.36147 0.0
C694 C 0.18482 0.88723 0.26037 0.0
C695 C 0.16514 0.87129 0.22977 0.0
C696 C 0.17904 0.85487 0.31848 0.0
C697 C 0.15169 0.84753 0.24728 0.0
C698 C 0.17444 0.8225 0.38285 0.0
C699 C 0.21943 0.85372 0.42291 0.0
N700 N 0.15906 0.83992 0.29016 0.0
N701 N 0.21036 0.86012 0.38151 0.0
H702 H 0.38559 0.22265 0.55559 0.0
H703 H 0.31094 0.11891 0.76637 0.0
H704 H 0.391 0.15944 0.57612 0.0
H705 H 0.31478 0.18717 0.77759 0.0
H706 H 0.33728 0.1331 0.68933 0.0
H707 H 0.35955 0.2113 0.63452 0.0
C708 C 0.38222 0.20701 0.57818 0.0
C709 C 0.39075 0.19213 0.55984 0.0
C710 C 0.33216 0.14498 0.70791 0.0
C711 C 0.36005 0.17838 0.64795 0.0
C712 C 0.3167 0.13667 0.75129 0.0
C713 C 0.31036 0.15174 0.77785 0.0
C714 C 0.34168 0.16872 0.6909 0.0
C715 C 0.31882 0.17482 0.75743 0.0
C716 C 0.36694 0.20025 0.62246 0.0
C717 C 0.38507 0.17156 0.58933 0.0
N718 N 0.33428 0.18274 0.71539 0.0
N719 N 0.36989 0.16517 0.6313 0.0
H720 H 0.8645 0.23677 0.57263 0.0
H721 H 0.8404 0.13175 0.77619 0.0
H722 H 0.80428 0.16603 0.55316 0.0
H723 H 0.90635 0.19854 0.76278 0.0
H724 H 0.82502 0.14282 0.6979 0.0
H725 H 0.87671 0.22329 0.65088 0.0
C726 C 0.85331 0.21857 0.58625 0.0
C727 C 0.83312 0.20263 0.55703 0.0
C728 C 0.84303 0.15478 0.71149 0.0
C729 C 0.84772 0.18653 0.64515 0.0
C730 C 0.85199 0.14825 0.75542 0.0
C731 C 0.87481 0.16413 0.77551 0.0
C732 C 0.85697 0.17742 0.68817 0.0
C733 C 0.88876 0.18567 0.74827 0.0
C734 C 0.86056 0.2107 0.63027 0.0
C735 C 0.81964 0.17902 0.57546 0.0
N736 N 0.87955 0.19177 0.70661 0.0
N737 N 0.82732 0.17156 0.61808 0.0
H738 H 0.83079 0.7193 0.75941 0.0
H739 H 0.8582 0.64073 0.55612 0.0
H740 H 0.89278 0.71167 0.77843 0.0
H741 H 0.79071 0.63829 0.57131 0.0
H742 H 0.87303 0.6674 0.63411 0.0
H743 H 0.81911 0.69326 0.68181 0.0
C744 C 0.84244 0.71283 0.74586 0.0
C745 C 0.86297 0.71797 0.77482 0.0
C746 C 0.85481 0.66057 0.62101 0.0
C747 C 0.84906 0.68694 0.68737 0.0
C748 C 0.84619 0.64495 0.57726 0.0
C749 C 0.82307 0.63703 0.55772 0.0
C750 C 0.84024 0.66842 0.6447 0.0
C751 C 0.80855 0.64377 0.5854 0.0
C752 C 0.83552 0.69752 0.7022 0.0
C753 C 0.87711 0.70857 0.75639 0.0
N754 N 0.81744 0.65924 0.62685 0.0
N755 N 0.86975 0.69325 0.7141 0.0
H756 H 0.97807 0.51873 0.10851 0.0
H757 H 0.05786 0.49265 0.90599 0.0
H758 H 0.97695 0.45182 0.09428 0.0
H759 H 0.04914 0.55399 0.88655 0.0
H760 H 0.03183 0.48073 0.98361 0.0
H761 H 1.00475 0.53379 0.03059 0.0
C762 C 0.98259 0.50688 0.08761 0.0
C763 C 0.97504 0.48387 0.10741 0.0
C764 C 0.03586 0.49705 0.96313 0.0
C765 C 1.00644 0.50132 0.02049 0.0
C766 C 0.05116 0.50412 0.91946 0.0
C767 C 0.056 0.52454 0.89038 0.0
C768 C 0.02496 0.51032 0.97784 0.0
C769 C 0.0463 0.53842 0.9087 0.0
C770 C 0.99822 0.51564 0.0439 0.0
C771 C 0.98215 0.46957 0.08001 0.0
N772 N 0.03098 0.53092 0.95099 0.0
N773 N 0.99761 0.47859 0.03858 0.0
H774 H 0.57617 0.52705 0.09196 0.0
H775 H 0.47072 0.50169 0.88867 0.0
H776 H 0.50606 0.4657 0.11012 0.0
H777 H 0.53675 0.56834 0.90313 0.0
H778 H 0.48218 0.48644 0.96654 0.0
H779 H 0.56231 0.53922 0.01431 0.0
C780 C 0.55804 0.51564 0.0782 0.0
C781 C 0.54237 0.49514 0.10694 0.0
C782 C 0.49388 0.50458 0.95329 0.0
C783 C 0.52582 0.50963 0.01944 0.0
C784 C 0.48712 0.51345 0.9096 0.0
C785 C 0.50269 0.53644 0.88989 0.0
C786 C 0.51644 0.51877 0.97676 0.0
C787 C 0.52412 0.55062 0.91733 0.0
C788 C 0.54994 0.52284 0.03451 0.0
C789 C 0.51884 0.48133 0.08825 0.0
N790 N 0.53045 0.54148 0.95875 0.0
N791 N 0.51115 0.48896 0.04595 0.0
H792 H 0.5605 0.04612 0.10886 0.0
H793 H 0.45491 0.96725 0.90474 0.0
H794 H 0.49468 0.04718 0.09531 0.0
H795 H 0.52482 0.97556 0.88617 0.0
H796 H 0.46889 0.993 0.98284 0.0
H797 H 0.54892 0.01969 0.03046 0.0
C798 C 0.54413 0.04164 0.08801 0.0
C799 C 0.52866 0.04912 0.10809 0.0
C800 C 0.48118 0.98895 0.96245 0.0
C801 C 0.51475 0.018 0.02062 0.0
C802 C 0.47301 0.9738 0.9185 0.0
C803 C 0.48859 0.96892 0.88956 0.0
C804 C 0.50528 0.99966 0.97757 0.0
C805 C 0.5121 0.97844 0.90822 0.0
C806 C 0.53729 0.02616 0.04402 0.0
C807 C 0.50724 0.04206 0.08078 0.0
N808 N 0.51986 0.99361 0.95078 0.0
N809 N 0.50083 0.02674 0.03905 0.0
H810 H 0.19665 0.33557 0.98369 0.0
H811 H 0.20689 0.35515 0.67898 0.0
H812 H 0.13825 0.28413 0.88777 0.0
H813 H 0.20124 0.40764 0.77383 0.0
H814 H 0.19511 0.32863 0.75674 0.0
H815 H 0.21204 0.36231 0.90634 0.0
C816 C 0.18702 0.33008 0.94635 0.0
C817 C 0.16556 0.30836 0.94221 0.0
C818 C 0.19655 0.34599 0.76023 0.0
C819 C 0.18368 0.33779 0.85422 0.0
C820 C 0.20298 0.36094 0.7162 0.0
C821 C 0.20371 0.3829 0.71991 0.0
C822 C 0.19187 0.35366 0.80836 0.0
C823 C 0.20006 0.39044 0.76943 0.0
C824 C 0.19589 0.34514 0.90256 0.0
C825 C 0.15446 0.30116 0.89253 0.0
N826 N 0.19411 0.37567 0.81212 0.0
N827 N 0.16364 0.316 0.85007 0.0
H828 H 0.67557 0.85623 0.67098 0.0
H829 H 0.74938 0.86597 0.88797 0.0
H830 H 0.62345 0.80148 0.77324 0.0
H831 H 0.69284 0.86739 0.97556 0.0
H832 H 0.72475 0.85569 0.8072 0.0
H833 H 0.7033 0.87219 0.74639 0.0
C834 C 0.67018 0.84739 0.70922 0.0
C835 C 0.64787 0.82679 0.71572 0.0
C836 C 0.7178 0.8581 0.84426 0.0
C837 C 0.67853 0.84572 0.80183 0.0
C838 C 0.73173 0.86393 0.89004 0.0
C839 C 0.72245 0.86624 0.93847 0.0
C840 C 0.69459 0.85448 0.84756 0.0
C841 C 0.69993 0.86437 0.93922 0.0
C842 C 0.68582 0.85663 0.752 0.0
C843 C 0.64088 0.81695 0.7666 0.0
N844 N 0.68638 0.85794 0.89453 0.0
N845 N 0.65626 0.82656 0.80806 0.0
H846 H 0.16243 0.83174 0.99613 0.0
H847 H 0.22683 0.82247 0.77866 0.0
H848 H 0.16508 0.88635 0.89332 0.0
H849 H 0.16831 0.82017 0.69165 0.0
H850 H 0.21236 0.83247 0.85964 0.0
H851 H 0.17416 0.81563 0.92089 0.0
C852 C 0.16588 0.84052 0.95781 0.0
C853 C 0.1642 0.86113 0.9511 0.0
C854 C 0.20287 0.82989 0.82268 0.0
C855 C 0.17582 0.84201 0.86521 0.0
C856 C 0.21105 0.82423 0.77678 0.0
C857 C 0.19934 0.82178 0.72845 0.0
C858 C 0.18309 0.8332 0.81956 0.0
C859 C 0.17849 0.82329 0.72793 0.0
C860 C 0.17226 0.83119 0.91513 0.0
C861 C 0.16702 0.87088 0.90014 0.0
N862 N 0.1713 0.82958 0.77271 0.0
N863 N 0.17274 0.86118 0.8588 0.0
H864 H 0.35443 0.19524 0.32602 0.0
H865 H 0.28076 0.13125 0.1085 0.0
H866 H 0.4064 0.19248 0.22351 0.0
H867 H 0.33724 0.1895 0.02143 0.0
H868 H 0.30526 0.14558 0.18945 0.0
H869 H 0.3267 0.18365 0.25062 0.0
C870 C 0.35978 0.19179 0.28773 0.0
C871 C 0.38204 0.1934 0.28114 0.0
C872 C 0.31222 0.15504 0.15248 0.0
C873 C 0.35142 0.18192 0.19508 0.0
C874 C 0.29836 0.14693 0.10659 0.0
C875 C 0.30768 0.15861 0.05826 0.0
C876 C 0.33538 0.17471 0.14936 0.0
C877 C 0.33013 0.17935 0.05771 0.0
C878 C 0.34414 0.1855 0.24496 0.0
C879 C 0.38901 0.19058 0.23022 0.0
N880 N 0.34361 0.18647 0.1025 0.0
N881 N 0.37364 0.18492 0.18879 0.0
H882 H 0.83595 0.15464 0.0136 0.0
H883 H 0.82521 0.16352 0.31819 0.0
H884 H 0.89412 0.16093 0.10933 0.0
H885 H 0.83144 0.22187 0.2232 0.0
H886 H 0.83726 0.14883 0.24076 0.0
H887 H 0.82064 0.16591 0.09118 0.0
C888 C 0.84554 0.15859 0.05097 0.0
C889 C 0.86692 0.15818 0.05499 0.0
C890 C 0.83592 0.16481 0.2372 0.0
C891 C 0.84889 0.16943 0.14324 0.0
C892 C 0.82932 0.17329 0.28103 0.0
C893 C 0.82865 0.19454 0.2772 0.0
C894 C 0.84079 0.1772 0.1891 0.0
C895 C 0.83256 0.20582 0.22773 0.0
C896 C 0.83671 0.16474 0.09489 0.0
C897 C 0.87797 0.16187 0.10469 0.0
N898 N 0.83864 0.19702 0.18522 0.0
N899 N 0.86885 0.16751 0.14728 0.0
H900 H 0.87024 0.74169 0.10957 0.0
H901 H 0.80646 0.6127 0.2231 0.0
H902 H 0.86657 0.68483 0.01335 0.0
H903 H 0.85938 0.66994 0.31899 0.0
H904 H 0.8224 0.63839 0.14432 0.0
H905 H 0.86083 0.71599 0.18824 0.0
C906 C 0.86697 0.72365 0.10503 0.0
C907 C 0.86773 0.71471 0.05485 0.0
C908 C 0.83009 0.64538 0.18286 0.0
C909 C 0.85649 0.68546 0.14349 0.0
C910 C 0.8211 0.63081 0.22755 0.0
C911 C 0.83081 0.63985 0.27767 0.0
C912 C 0.84842 0.66909 0.18891 0.0
C913 C 0.85045 0.663 0.28135 0.0
C914 C 0.86158 0.70908 0.14965 0.0
C915 C 0.8645 0.69167 0.05104 0.0
N916 N 0.8583 0.67716 0.23765 0.0
N917 N 0.85836 0.67749 0.0947 0.0
H918 H 0.95058 0.46755 0.44191 0.0
H919 H 0.07947 0.53159 0.55564 0.0
H920 H 1.00778 0.52062 0.34622 0.0
H921 H 0.02259 0.52786 0.65189 0.0
H922 H 0.05375 0.52211 0.47701 0.0
H923 H 0.97619 0.48357 0.52081 0.0
C924 C 0.96867 0.48226 0.43754 0.0
C925 C 0.97773 0.49198 0.38744 0.0
C926 C 0.04684 0.52287 0.51559 0.0
C927 C 1.00686 0.50968 0.47632 0.0
C928 C 0.06142 0.52829 0.5602 0.0
C929 C 0.05249 0.52906 0.61037 0.0
C930 C 0.02322 0.51776 0.52175 0.0
C931 C 0.02943 0.52578 0.6142 0.0
C932 C 0.98318 0.49128 0.48229 0.0
C933 C 1.00083 0.51169 0.38385 0.0
N934 N 1.01524 0.51962 0.57055 0.0
N935 N 1.01495 0.51958 0.42761 0.0
H936 H 0.49448 0.55258 0.55523 0.0
H937 H 0.5583 0.48742 0.4416 0.0
H938 H 0.49857 0.49966 0.65166 0.0
H939 H 0.50518 0.49147 0.34591 0.0
H940 H 0.54244 0.49725 0.52039 0.0
H941 H 0.50376 0.53618 0.47654 0.0
C942 C 0.4978 0.53783 0.5598 0.0
C943 C 0.4972 0.52825 0.61004 0.0
C944 C 0.53468 0.49646 0.48189 0.0
C945 C 0.50827 0.51012 0.52135 0.0
C946 C 0.54361 0.49083 0.4372 0.0
C947 C 0.53383 0.49006 0.38712 0.0
C948 C 0.51629 0.50177 0.47591 0.0
C949 C 0.51415 0.49352 0.38351 0.0
C950 C 0.50311 0.5286 0.51516 0.0
C951 C 0.5005 0.50849 0.6139 0.0
N952 N 0.50634 0.49987 0.42722 0.0
N953 N 0.50655 0.50038 0.57022 0.0
H954 H 0.52786 0.99967 0.65145 0.0
H955 H 0.53804 0.01936 0.34676 0.0
H956 H 0.46981 0.94777 0.55547 0.0
H957 H 0.53185 0.07149 0.44181 0.0
H958 H 0.52637 0.99277 0.42438 0.0
H959 H 0.54299 0.02644 0.57413 0.0
C960 C 0.51825 0.99407 0.6141 0.0
C961 C 0.49695 0.9722 0.60994 0.0
C962 C 0.52765 1.01007 0.42794 0.0
C963 C 0.5148 1.00171 0.52196 0.0
C964 C 0.53404 0.02506 0.38399 0.0
C965 C 0.5346 0.04693 0.38778 0.0
C966 C 0.52286 0.01761 0.4761 0.0
C967 C 0.53082 0.05435 0.43733 0.0
C968 C 0.52698 1.00916 0.57032 0.0
C969 C 0.48589 0.96491 0.56024 0.0
N970 N 0.52493 0.03955 0.47995 0.0
N971 N 0.49493 0.97978 0.51779 0.0
H972 H 0.22155 0.27335 0.04742 0.0
H973 H 0.20829 0.15198 0.93016 0.0
H974 H 0.15635 0.20538 0.0543 0.0
H975 H 0.27631 0.21626 0.95016 0.0
H976 H 0.18859 0.17242 0.96838 0.0
H977 H 0.2418 0.25354 0.00841 0.0
C978 C 0.21156 0.2542 0.04158 0.0
C979 C 0.18718 0.24103 0.05442 0.0
C980 C 0.20781 0.18213 0.96405 0.0
C981 C 0.21017 0.21829 0.00834 0.0
C982 C 0.21908 0.17053 0.94163 0.0
C983 C 0.24404 0.18239 0.93679 0.0
C984 C 0.22154 0.20584 0.9817 0.0
C985 C 0.25704 0.2064 0.95294 0.0
C986 C 0.22312 0.24292 0.0189 0.0
C987 C 0.17517 0.21628 0.04541 0.0
N988 N 0.24566 0.21728 0.97481 0.0
N989 N 0.18671 0.20578 0.02257 0.0
H990 H 0.87557 0.06442 0.93666 0.0
H991 H 0.75343 0.95572 0.04885 0.0
H992 H 0.81095 0.06785 0.95248 0.0
H993 H 0.82165 0.95932 0.06167 0.0
H994 H 0.77342 0.99591 0.01044 0.0
H995 H 0.85503 0.02441 0.97552 0.0
C996 C 0.85693 0.05662 0.9474 0.0
C997 C 0.845 0.06959 0.94112 0.0
C998 C 0.78404 0.98801 0.02215 0.0
C999 C 0.8214 0.02376 0.98672 0.0
C1000 C 0.77266 0.9651 0.0445 0.0
C1001 C 0.78585 0.95407 0.05876 0.0
C1002 C 0.80881 0.99994 0.01333 0.0
C1003 C 0.81072 0.96709 0.05163 0.0
C1004 C 0.84527 0.03383 0.97018 0.0
C1005 C 0.82088 0.05853 0.95636 0.0
N1006 N 0.82132 0.98918 0.02902 0.0
N1007 N 0.80992 0.03634 0.97855 0.0
H1008 H 0.95873 0.74803 0.95145 0.0
H1009 H 0.06784 0.87028 0.06186 0.0
H1010 H 0.96297 0.81652 0.93743 0.0
H1011 H 0.07157 0.80582 0.04588 0.0
H1012 H 0.02781 0.84961 0.02342 0.0
H1013 H 0.99905 0.76791 0.98948 0.0
C1014 C 0.96826 0.76728 0.95549 0.0
C1015 C 0.95739 0.7806 0.94099 0.0
C1016 C 0.0373 0.83991 0.02858 0.0
C1017 C 1.00337 0.80341 0.9859 0.0
C1018 C 0.06012 0.85165 0.05109 0.0
C1019 C 0.07318 0.83981 0.05726 0.0
C1020 C 0.02726 0.81602 0.01218 0.0
C1021 C 0.06218 0.81568 0.04208 0.0
C1022 C 0.99123 0.7786 0.97759 0.0
C1023 C 0.9706 0.80548 0.94772 0.0
N1024 N 0.03992 0.80461 0.02014 0.0
N1025 N 0.99272 0.81601 0.97005 0.0
H1026 H 0.79755 0.74196 0.93294 0.0
H1027 H 0.80864 0.86337 0.04028 0.0
H1028 H 0.86662 0.80325 0.96559 0.0
H1029 H 0.74549 0.79378 0.05165 0.0
H1030 H 0.83083 0.84422 0.00695 0.0
H1031 H 0.77866 0.7637 0.96577 0.0
C1032 C 0.80885 0.76014 0.94648 0.0
C1033 C 0.83382 0.77063 0.94671 0.0
C1034 C 0.81217 0.83324 0.01728 0.0
C1035 C 0.81196 0.79581 0.9854 0.0
C1036 C 0.79951 0.84412 0.03666 0.0
C1037 C 0.77503 0.83025 0.04869 0.0
C1038 C 0.80019 0.8084 0.00936 0.0
C1039 C 0.76421 0.80537 0.04272 0.0
C1040 C 0.79797 0.77253 0.96569 0.0
C1041 C 0.84733 0.7944 0.96454 0.0
N1042 N 0.77675 0.79538 0.02313 0.0
N1043 N 0.83623 0.80618 0.98347 0.0
H1044 H 0.23375 0.95936 0.06526 0.0
H1045 H 0.22223 0.06943 0.95742 0.0
H1046 H 0.16469 0.95233 0.03682 0.0
H1047 H 0.28553 0.06327 0.94577 0.0
H1048 H 0.20029 0.02823 0.99155 0.0
H1049 H 0.25266 0.99977 0.03096 0.0
C1050 C 0.22247 0.96635 0.05235 0.0
C1051 C 0.19747 0.95215 0.05381 0.0
C1052 C 0.21893 0.03594 0.98098 0.0
C1053 C 0.21934 0.99892 0.01343 0.0
C1054 C 0.23144 0.05939 0.96112 0.0
C1055 C 0.25588 0.07004 0.94878 0.0
C1056 C 0.23102 0.02319 0.98902 0.0
C1057 C 0.26682 0.05609 0.95492 0.0
C1058 C 0.23336 0.9895 0.03229 0.0
C1059 C 0.184 0.96254 0.03658 0.0
N1060 N 0.25442 0.03363 0.97493 0.0
N1061 N 0.1951 0.98528 0.01687 0.0
H1062 H 0.95777 0.16134 0.95684 0.0
H1063 H 0.06889 0.28399 0.05784 0.0
H1064 H 0.96348 0.23059 0.94428 0.0
H1065 H 0.07458 0.22083 0.03554 0.0
H1066 H 0.02822 0.26241 0.02498 0.0
H1067 H 0.99905 0.18087 0.99026 0.0
C1068 C 0.96772 0.1806 0.96025 0.0
C1069 C 0.95693 0.19426 0.94774 0.0
C1070 C 0.03825 0.25315 0.02737 0.0
C1071 C 1.00394 0.21658 0.98713 0.0
C1072 C 0.06155 0.26546 0.04661 0.0
C1073 C 0.07543 0.25434 0.04937 0.0
C1074 C 0.02838 0.22935 0.01064 0.0
C1075 C 0.06462 0.23017 0.03427 0.0
C1076 C 0.99123 0.1917 0.9797 0.0
C1077 C 0.97078 0.21917 0.9535 0.0
N1078 N 0.04176 0.2185 0.01531 0.0
N1079 N 0.99332 0.2294 0.97306 0.0
H1080 H 0.88918 0.60717 0.38103 0.0
H1081 H 0.87609 0.48553 0.26663 0.0
H1082 H 0.82503 0.53857 0.39422 0.0
H1083 H 0.94442 0.54945 0.28654 0.0
H1084 H 0.85672 0.50616 0.30528 0.0
H1085 H 0.90966 0.58748 0.34218 0.0
C1086 C 0.8795 0.58794 0.37663 0.0
C1087 C 0.85532 0.57453 0.39116 0.0
C1088 C 0.87595 0.51576 0.3009 0.0
C1089 C 0.87852 0.55195 0.34526 0.0
C1090 C 0.88703 0.50405 0.27824 0.0
C1091 C 0.91197 0.51574 0.27318 0.0
C1092 C 0.88982 0.53945 0.31854 0.0
C1093 C 0.92515 0.53972 0.28947 0.0
C1094 C 0.89117 0.57673 0.35407 0.0
C1095 C 0.84368 0.54967 0.38395 0.0
N1096 N 0.91394 0.55075 0.31153 0.0
N1097 N 0.85529 0.53926 0.36114 0.0
H1098 H 0.5402 0.39448 0.26448 0.0
H1099 H 0.41884 0.28605 0.38043 0.0
H1100 H 0.47649 0.39906 0.28689 0.0
H1101 H 0.48707 0.28942 0.38816 0.0
H1102 H 0.43855 0.32633 0.34217 0.0
H1103 H 0.51957 0.35428 0.30204 0.0
C1104 C 0.52173 0.3869 0.27644 0.0
C1105 C 0.5101 0.40026 0.27239 0.0
C1106 C 0.44922 0.31832 0.35269 0.0
C1107 C 0.48639 0.35414 0.3165 0.0
C1108 C 0.438 0.29537 0.37491 0.0
C1109 C 0.4513 0.28428 0.38777 0.0
C1110 C 0.4739 0.33021 0.34262 0.0
C1111 C 0.47607 0.29722 0.37918 0.0
C1112 C 0.51002 0.36398 0.29845 0.0
C1113 C 0.48618 0.38944 0.28904 0.0
N1114 N 0.48649 0.31933 0.35681 0.0
N1115 N 0.47515 0.36708 0.3105 0.0
H1116 H 0.62848 0.14954 0.26703 0.0
H1117 H 0.73753 0.13738 0.38204 0.0
H1118 H 0.62525 0.08171 0.2863 0.0
H1119 H 0.73382 0.20205 0.3907 0.0
H1120 H 0.69733 0.11677 0.34365 0.0
H1121 H 0.6686 0.16943 0.30524 0.0
C1122 C 0.63634 0.13883 0.2784 0.0
C1123 C 0.62339 0.11387 0.27329 0.0
C1124 C 0.70523 0.13541 0.35441 0.0
C1125 C 0.66936 0.13659 0.31815 0.0
C1126 C 0.72813 0.14717 0.37673 0.0
C1127 C 0.73912 0.17151 0.38988 0.0
C1128 C 0.69324 0.14812 0.34451 0.0
C1129 C 0.72608 0.18327 0.38154 0.0
C1130 C 0.6592 0.1502 0.3008 0.0
C1131 C 0.63454 0.10098 0.28928 0.0
N1132 N 0.70399 0.17154 0.35903 0.0
N1133 N 0.65681 0.11246 0.31111 0.0
H1134 H 0.53184 0.13487 0.28829 0.0
H1135 H 0.41043 0.12364 0.39645 0.0
H1136 H 0.4625 0.07126 0.27904 0.0
H1137 H 0.47247 0.19256 0.3669 0.0
H1138 H 0.43185 0.10455 0.36279 0.0
H1139 H 0.5126 0.15684 0.32216 0.0
C1140 C 0.51261 0.12558 0.29253 0.0
C1141 C 0.49885 0.10106 0.28084 0.0
C1142 C 0.44091 0.12386 0.36373 0.0
C1143 C 0.47689 0.12599 0.32074 0.0
C1144 C 0.42869 0.13486 0.38341 0.0
C1145 C 0.43952 0.15987 0.38438 0.0
C1146 C 0.46433 0.13778 0.34475 0.0
C1147 C 0.46337 0.17325 0.36703 0.0
C1148 C 0.50168 0.13812 0.31221 0.0
C1149 C 0.474 0.09004 0.28761 0.0
N1150 N 0.47496 0.16205 0.34769 0.0
N1151 N 0.46395 0.10248 0.30742 0.0
H1152 H 0.89982 0.29129 0.39501 0.0
H1153 H 0.88869 0.40235 0.29275 0.0
H1154 H 0.83075 0.28469 0.3697 0.0
H1155 H 0.95108 0.39496 0.27497 0.0
H1156 H 0.86668 0.36116 0.32711 0.0
H1157 H 0.91869 0.33188 0.36172 0.0
C1158 C 0.88852 0.29842 0.38303 0.0
C1159 C 0.86354 0.28428 0.38498 0.0
C1160 C 0.88513 0.36861 0.31517 0.0
C1161 C 0.88535 0.33124 0.34577 0.0
C1162 C 0.89767 0.39205 0.2952 0.0
C1163 C 0.92189 0.40234 0.28102 0.0
C1164 C 0.89699 0.35554 0.32151 0.0
C1165 C 0.93255 0.38807 0.28556 0.0
C1166 C 0.89939 0.32166 0.36354 0.0
C1167 C 0.85005 0.29485 0.36901 0.0
N1168 N 0.92015 0.36566 0.30574 0.0
N1169 N 0.86112 0.31767 0.34981 0.0
H1170 H 0.6235 0.49033 0.29213 0.0
H1171 H 0.7333 0.61189 0.39953 0.0
H1172 H 0.63079 0.56013 0.27559 0.0
H1173 H 0.74182 0.55101 0.36721 0.0
H1174 H 0.69278 0.58989 0.36612 0.0
H1175 H 0.66465 0.50944 0.3268 0.0
C1176 C 0.63376 0.5096 0.29492 0.0
C1177 C 0.62345 0.52356 0.28103 0.0
C1178 C 0.7034 0.5812 0.36642 0.0
C1179 C 0.67018 0.54536 0.32189 0.0
C1180 C 0.72661 0.59375 0.38597 0.0
C1181 C 0.74126 0.58345 0.38592 0.0
C1182 C 0.69437 0.55798 0.34658 0.0
C1183 C 0.73123 0.5597 0.36808 0.0
C1184 C 0.65718 0.52046 0.31504 0.0
C1185 C 0.63768 0.54847 0.28597 0.0
N1186 N 0.70842 0.54778 0.3488 0.0
N1187 N 0.66005 0.55844 0.30635 0.0
H1188 H 0.61108 0.88279 0.61774 0.0
H1189 H 0.48889 0.86947 0.72959 0.0
H1190 H 0.54289 0.81799 0.60721 0.0
H1191 H 0.55316 0.93765 0.71162 0.0
H1192 H 0.50965 0.84997 0.69221 0.0
H1193 H 0.59113 0.90312 0.65592 0.0
C1194 C 0.59188 0.87292 0.62264 0.0
C1195 C 0.57867 0.84862 0.60899 0.0
C1196 C 0.51929 0.86919 0.69675 0.0
C1197 C 0.55577 0.87168 0.65405 0.0
C1198 C 0.50749 0.88034 0.71866 0.0
C1199 C 0.51926 0.90529 0.7239 0.0
C1200 C 0.54313 0.883 0.68001 0.0
C1201 C 0.54336 0.91839 0.70851 0.0
C1202 C 0.58052 0.88451 0.64482 0.0
C1203 C 0.55384 0.83674 0.61681 0.0
N1204 N 0.55446 0.90711 0.68714 0.0
N1205 N 0.54327 0.8483 0.63914 0.0
H1206 H 0.20667 0.72957 0.60015 0.0
H1207 H 0.08548 0.62012 0.71423 0.0
H1208 H 0.14201 0.73267 0.61943 0.0
H1209 H 0.15411 0.6245 0.72493 0.0
H1210 H 0.10493 0.66027 0.67547 0.0
H1211 H 0.18642 0.68936 0.63797 0.0
C1212 C 0.18807 0.72166 0.61138 0.0
C1213 C 0.17606 0.73461 0.60646 0.0
C1214 C 0.11576 0.65253 0.68675 0.0
C1215 C 0.1528 0.68854 0.65089 0.0
C1216 C 0.10468 0.62965 0.70929 0.0
C1217 C 0.11816 0.61887 0.72314 0.0
C1218 C 0.14049 0.66467 0.67732 0.0
C1219 C 0.14297 0.63207 0.71522 0.0
C1220 C 0.17658 0.69875 0.63358 0.0
C1221 C 0.152 0.72339 0.6223 0.0
N1222 N 0.15327 0.65412 0.69249 0.0
N1223 N 0.14121 0.70108 0.64393 0.0
H1224 H 0.40637 0.4708 0.71317 0.0
H1225 H 0.29803 0.48474 0.6005 0.0
H1226 H 0.40247 0.53523 0.7272 0.0
H1227 H 0.29396 0.41642 0.617 0.0
H1228 H 0.33803 0.50397 0.63926 0.0
H1229 H 0.36626 0.45066 0.67411 0.0
C1230 C 0.39695 0.48062 0.70892 0.0
C1231 C 0.40786 0.50477 0.72374 0.0
C1232 C 0.32847 0.48478 0.63409 0.0
C1233 C 0.36214 0.48197 0.6776 0.0
C1234 C 0.30569 0.47379 0.61136 0.0
C1235 C 0.29253 0.44888 0.60534 0.0
C1236 C 0.33837 0.47084 0.65082 0.0
C1237 C 0.30342 0.43567 0.62071 0.0
C1238 C 0.37411 0.46914 0.68621 0.0
C1239 C 0.39481 0.51659 0.7167 0.0
N1240 N 0.32563 0.44678 0.64286 0.0
N1241 N 0.3728 0.50517 0.69378 0.0
H1242 H 0.20145 0.47108 0.6217 0.0
H1243 H 0.08021 0.45924 0.73226 0.0
H1244 H 0.132 0.4077 0.61086 0.0
H1245 H 0.14117 0.52845 0.69897 0.0
H1246 H 0.102 0.44051 0.69868 0.0
H1247 H 0.18224 0.49301 0.65625 0.0
C1248 C 0.18221 0.46184 0.62572 0.0
C1249 C 0.16841 0.43738 0.61341 0.0
C1250 C 0.11074 0.45981 0.69881 0.0
C1251 C 0.1465 0.46224 0.65415 0.0
C1252 C 0.09833 0.47061 0.71845 0.0
C1253 C 0.10872 0.49557 0.71823 0.0
C1254 C 0.13392 0.47389 0.67868 0.0
C1255 C 0.13241 0.50917 0.70003 0.0
C1256 C 0.17131 0.47435 0.64578 0.0
C1257 C 0.14354 0.42642 0.61992 0.0
N1258 N 0.1442 0.49815 0.68068 0.0
N1259 N 0.13353 0.43881 0.64018 0.0
H1260 H 0.49767 0.61805 0.70544 0.0
H1261 H 0.61919 0.7287 0.60002 0.0
H1262 H 0.56755 0.62556 0.72205 0.0
H1263 H 0.55724 0.73584 0.62868 0.0
H1264 H 0.59761 0.68823 0.6339 0.0
H1265 H 0.51668 0.65922 0.67104 0.0
C1266 C 0.51694 0.62837 0.70274 0.0
C1267 C 0.53095 0.61811 0.71656 0.0
C1268 C 0.58861 0.69854 0.63271 0.0
C1269 C 0.55265 0.6649 0.67603 0.0
C1270 C 0.60092 0.72172 0.61289 0.0
C1271 C 0.59017 0.73597 0.61168 0.0
C1272 C 0.56518 0.68913 0.65154 0.0
C1273 C 0.56629 0.72559 0.62878 0.0
C1274 C 0.52774 0.6518 0.68276 0.0
C1275 C 0.55586 0.63242 0.71171 0.0
N1276 N 0.5546 0.70281 0.64826 0.0
N1277 N 0.56577 0.65482 0.69151 0.0
H1278 H 0.29462 0.89569 0.61002 0.0
H1279 H 0.40615 0.8839 0.70647 0.0
H1280 H 0.28883 0.8267 0.63006 0.0
H1281 H 0.40019 0.9472 0.72215 0.0
H1282 H 0.36477 0.86219 0.67354 0.0
H1283 H 0.33541 0.9146 0.64193 0.0
C1284 C 0.30197 0.88443 0.62056 0.0
C1285 C 0.28801 0.85944 0.61747 0.0
C1286 C 0.37256 0.88078 0.68467 0.0
C1287 C 0.33523 0.8813 0.65513 0.0
C1288 C 0.39614 0.89317 0.70383 0.0
C1289 C 0.40688 0.91754 0.71708 0.0
C1290 C 0.35976 0.89291 0.67827 0.0
C1291 C 0.39294 0.92854 0.71232 0.0
C1292 C 0.32534 0.89532 0.63925 0.0
C1293 C 0.29886 0.846 0.6316 0.0
N1294 N 0.37034 0.91625 0.69303 0.0
N1295 N 0.3218 0.85708 0.65009 0.0
loop_
_geom_bond_atom_site_label_1
_geom_bond_atom_site_label_2
_geom_bond_distance
_geom_bond_site_symmetry_2
_ccdc_geom_bond_type
Mn0 O5 2.095 . S
Mn0 O15 2.162 . S
Mn0 O16 2.297 . S
Mn0 O24 2.385 1_554 S
Mn0 O25 2.209 . S
Mn0 O26 2.094 . S
Mn1 O6 2.121 . S
Mn1 N8 2.257 . S
Mn1 N17 2.282 1_554 S
Mn1 O25 2.215 . S
Mn1 O27 2.117 . S
C2 O24 1.234 . S
C2 O25 1.283 1_556 S
C3 O15 1.281 . S
C3 O16 1.236 . S
C4 O26 1.240 . S
C4 O27 1.264 . S
O5 Mn0 2.095 . S
O5 C14 1.250 . S
O6 Mn1 2.121 . S
O6 C14 1.258 . S
C7 N8 1.326 . S
C7 C11 1.460 . S
C7 H13 0.929 . S
N8 Mn1 2.257 . S
N8 C7 1.326 . S
N8 C12 1.362 1_554 S
C9 C10 1.258 1_556 S
C9 C12 1.431 . S
C9 C29 1.449 . S
C10 C9 1.258 1_554 S
C10 C11 1.477 . S
C10 H30 0.931 . S
C11 C7 1.460 . S
C11 C10 1.477 . S
C11 H31 0.930 . S
C12 N8 1.362 1_556 S
C12 C9 1.431 . S
C12 C22 1.476 . S
H13 C7 0.929 . S
C14 O5 1.250 . S
C14 O6 1.258 . S
O15 Mn0 2.162 . S
O15 C3 1.281 . S
O16 Mn0 2.297 . S
O16 C3 1.236 . S
N17 Mn1 2.282 1_556 S
N17 C18 1.328 . S
N17 C22 1.318 . S
C18 N17 1.328 . S
C18 C19 1.457 . S
C18 H23 0.929 . S
C19 C18 1.457 . S
C19 C20 1.291 . S
C19 H32 0.931 . S
C20 C19 1.291 . S
C20 C21 1.373 . S
C20 H33 0.929 . S
C21 C20 1.373 . S
C21 C22 1.396 . S
C21 C28 1.403 . S
C22 C12 1.476 . S
C22 N17 1.318 . S
C22 C21 1.396 . S
H23 C18 0.929 . S
O24 Mn0 2.385 1_556 S
O24 C2 1.234 . S
O25 Mn0 2.209 . S
O25 Mn1 2.215 . S
O25 C2 1.283 1_554 S
O26 Mn0 2.094 . S
O26 C4 1.240 . S
O27 Mn1 2.117 . S
O27 C4 1.264 . S
C28 C21 1.403 . S
C28 C29 1.399 . S
C28 H34 0.929 . S
C29 C9 1.449 . S
C29 C28 1.399 . S
C29 H35 0.930 . S
H30 C10 0.931 . S
H31 C11 0.930 . S
H32 C19 0.931 . S
H33 C20 0.929 . S
H34 C28 0.929 . S
H35 C29 0.930 . S
Mn36 O41 2.095 . S
Mn36 O51 2.162 . S
Mn36 O52 2.297 . S
Mn36 O60 2.385 1_554 S
Mn36 O61 2.209 . S
Mn36 O62 2.094 . S
Mn37 O42 2.121 . S
Mn37 N44 2.257 . S
Mn37 N53 2.282 1_554 S
Mn37 O61 2.215 . S
Mn37 O63 2.117 . S
C38 O60 1.234 . S
C38 O61 1.283 1_556 S
C39 O51 1.281 . S
C39 O52 1.236 . S
C40 O62 1.240 . S
C40 O63 1.264 . S
O41 Mn36 2.095 . S
O41 C50 1.250 . S
O42 Mn37 2.121 . S
O42 C50 1.258 . S
C43 N44 1.326 . S
C43 C47 1.460 . S
C43 H49 0.929 . S
N44 Mn37 2.257 . S
N44 C43 1.326 . S
N44 C48 1.362 1_554 S
C45 C46 1.258 1_556 S
C45 C48 1.431 . S
C45 C65 1.449 . S
C46 C45 1.258 1_554 S
C46 C47 1.477 . S
C46 H66 0.931 . S
C47 C43 1.460 . S
C47 C46 1.477 . S
C47 H67 0.930 . S
C48 N44 1.362 1_556 S
C48 C45 1.431 . S
C48 C58 1.476 . S
H49 C43 0.929 . S
C50 O41 1.250 . S
C50 O42 1.258 . S
O51 Mn36 2.162 . S
O51 C39 1.281 . S
O52 Mn36 2.297 . S
O52 C39 1.236 . S
N53 Mn37 2.282 1_556 S
N53 C54 1.328 . S
N53 C58 1.318 . S
C54 N53 1.328 . S
C54 C55 1.457 . S
C54 H59 0.929 . S
C55 C54 1.457 . S
C55 C56 1.291 . S
C55 H68 0.931 . S
C56 C55 1.291 . S
C56 C57 1.373 . S
C56 H69 0.929 . S
C57 C56 1.373 . S
C57 C58 1.396 . S
C57 C64 1.403 . S
C58 C48 1.476 . S
C58 N53 1.318 . S
C58 C57 1.396 . S
H59 C54 0.929 . S
O60 Mn36 2.385 1_556 S
O60 C38 1.234 . S
O61 Mn36 2.209 . S
O61 Mn37 2.215 . S
O61 C38 1.283 1_554 S
O62 Mn36 2.094 . S
O62 C40 1.240 . S
O63 Mn37 2.117 . S
O63 C40 1.264 . S
C64 C57 1.403 . S
C64 C65 1.399 . S
C64 H70 0.929 . S
C65 C45 1.449 . S
C65 C64 1.399 . S
C65 H71 0.930 . S
H66 C46 0.931 . S
H67 C47 0.930 . S
H68 C55 0.931 . S
H69 C56 0.929 . S
H70 C64 0.929 . S
H71 C65 0.930 . S
Mn72 O77 2.095 . S
Mn72 O87 2.162 . S
Mn72 O88 2.297 . S
Mn72 O96 2.385 1_554 S
Mn72 O97 2.209 . S
Mn72 O98 2.094 . S
Mn73 O78 2.121 . S
Mn73 N80 2.257 . S
Mn73 N89 2.282 1_554 S
Mn73 O97 2.215 . S
Mn73 O99 2.117 . S
C74 O96 1.234 . S
C74 O97 1.283 1_556 S
C75 O87 1.281 . S
C75 O88 1.236 . S
C76 O98 1.240 . S
C76 O99 1.264 . S
O77 Mn72 2.095 . S
O77 C86 1.250 . S
O78 Mn73 2.121 . S
O78 C86 1.258 . S
C79 N80 1.326 . S
C79 C83 1.460 . S
C79 H85 0.929 . S
N80 Mn73 2.257 . S
N80 C79 1.326 . S
N80 C84 1.362 1_554 S
C81 C82 1.258 1_556 S
C81 C84 1.431 . S
C81 C101 1.449 . S
C82 C81 1.258 1_554 S
C82 C83 1.477 . S
C82 H102 0.931 . S
C83 C79 1.460 . S
C83 C82 1.477 . S
C83 H103 0.930 . S
C84 N80 1.362 1_556 S
C84 C81 1.431 . S
C84 C94 1.476 . S
H85 C79 0.929 . S
C86 O77 1.250 . S
C86 O78 1.258 . S
O87 Mn72 2.162 . S
O87 C75 1.281 . S
O88 Mn72 2.297 . S
O88 C75 1.236 . S
N89 Mn73 2.282 1_556 S
N89 C90 1.328 . S
N89 C94 1.318 . S
C90 N89 1.328 . S
C90 C91 1.457 . S
C90 H95 0.929 . S
C91 C90 1.457 . S
C91 C92 1.291 . S
C91 H104 0.931 . S
C92 C91 1.291 . S
C92 C93 1.373 . S
C92 H105 0.929 . S
C93 C92 1.373 . S
C93 C94 1.396 . S
C93 C100 1.403 . S
C94 C84 1.476 . S
C94 N89 1.318 . S
C94 C93 1.396 . S
H95 C90 0.929 . S
O96 Mn72 2.385 1_556 S
O96 C74 1.234 . S
O97 Mn72 2.209 . S
O97 Mn73 2.215 . S
O97 C74 1.283 1_554 S
O98 Mn72 2.094 . S
O98 C76 1.240 . S
O99 Mn73 2.117 . S
O99 C76 1.264 . S
C100 C93 1.403 . S
C100 C101 1.399 . S
C100 H106 0.929 . S
C101 C81 1.449 . S
C101 C100 1.399 . S
C101 H107 0.930 . S
H102 C82 0.931 . S
H103 C83 0.930 . S
H104 C91 0.931 . S
H105 C92 0.929 . S
H106 C100 0.929 . S
H107 C101 0.930 . S
Mn108 O113 2.095 . S
Mn108 O123 2.162 . S
Mn108 O124 2.297 . S
Mn108 O132 2.385 1_556 S
Mn108 O133 2.209 . S
Mn108 O134 2.094 . S
Mn109 O114 2.121 . S
Mn109 N116 2.257 . S
Mn109 N125 2.282 1_556 S
Mn109 O133 2.215 . S
Mn109 O135 2.117 . S
C110 O132 1.234 . S
C110 O133 1.283 1_554 S
C111 O123 1.281 . S
C111 O124 1.236 . S
C112 O134 1.240 . S
C112 O135 1.264 . S
O113 Mn108 2.095 . S
O113 C122 1.250 . S
O114 Mn109 2.121 . S
O114 C122 1.258 . S
C115 N116 1.326 . S
C115 C119 1.460 . S
C115 H121 0.929 . S
N116 Mn109 2.257 . S
N116 C115 1.326 . S
N116 C120 1.362 1_556 S
C117 C118 1.258 1_554 S
C117 C120 1.431 . S
C117 C137 1.449 . S
C118 C117 1.258 1_556 S
C118 C119 1.477 . S
C118 H138 0.931 . S
C119 C115 1.460 . S
C119 C118 1.477 . S
C119 H139 0.930 . S
C120 N116 1.362 1_554 S
C120 C117 1.431 . S
C120 C130 1.476 . S
H121 C115 0.929 . S
C122 O113 1.250 . S
C122 O114 1.258 . S
O123 Mn108 2.162 . S
O123 C111 1.281 . S
O124 Mn108 2.297 . S
O124 C111 1.236 . S
N125 Mn109 2.282 1_554 S
N125 C126 1.328 . S
N125 C130 1.318 . S
C126 N125 1.328 . S
C126 C127 1.457 . S
C126 H131 0.929 . S
C127 C126 1.457 . S
C127 C128 1.291 . S
C127 H140 0.931 . S
C128 C127 1.291 . S
C128 C129 1.373 . S
C128 H141 0.929 . S
C129 C128 1.373 . S
C129 C130 1.396 . S
C129 C136 1.403 . S
C130 C120 1.476 . S
C130 N125 1.318 . S
C130 C129 1.396 . S
H131 C126 0.929 . S
O132 Mn108 2.385 1_554 S
O132 C110 1.234 . S
O133 Mn108 2.209 . S
O133 Mn109 2.215 . S
O133 C110 1.283 1_556 S
O134 Mn108 2.094 . S
O134 C112 1.240 . S
O135 Mn109 2.117 . S
O135 C112 1.264 . S
C136 C129 1.403 . S
C136 C137 1.399 . S
C136 H142 0.929 . S
C137 C117 1.449 . S
C137 C136 1.399 . S
C137 H143 0.930 . S
H138 C118 0.931 . S
H139 C119 0.930 . S
H140 C127 0.931 . S
H141 C128 0.929 . S
H142 C136 0.929 . S
H143 C137 0.930 . S
Mn144 O149 2.095 . S
Mn144 O159 2.162 . S
Mn144 O160 2.297 . S
Mn144 O168 2.385 1_556 S
Mn144 O169 2.209 . S
Mn144 O170 2.094 . S
Mn145 O150 2.121 . S
Mn145 N152 2.257 . S
Mn145 N161 2.282 1_556 S
Mn145 O169 2.215 . S
Mn145 O171 2.117 . S
C146 O168 1.234 . S
C146 O169 1.283 1_554 S
C147 O159 1.281 . S
C147 O160 1.236 . S
C148 O170 1.240 . S
C148 O171 1.264 . S
O149 Mn144 2.095 . S
O149 C158 1.250 . S
O150 Mn145 2.121 . S
O150 C158 1.258 . S
C151 N152 1.326 . S
C151 C155 1.460 . S
C151 H157 0.929 . S
N152 Mn145 2.257 . S
N152 C151 1.326 . S
N152 C156 1.362 1_556 S
C153 C154 1.258 1_554 S
C153 C156 1.431 . S
C153 C173 1.449 . S
C154 C153 1.258 1_556 S
C154 C155 1.477 . S
C154 H174 0.931 . S
C155 C151 1.460 . S
C155 C154 1.477 . S
C155 H175 0.930 . S
C156 N152 1.362 1_554 S
C156 C153 1.431 . S
C156 C166 1.476 . S
H157 C151 0.929 . S
C158 O149 1.250 . S
C158 O150 1.258 . S
O159 Mn144 2.162 . S
O159 C147 1.281 . S
O160 Mn144 2.297 . S
O160 C147 1.236 . S
N161 Mn145 2.282 1_554 S
N161 C162 1.328 . S
N161 C166 1.318 . S
C162 N161 1.328 . S
C162 C163 1.457 . S
C162 H167 0.929 . S
C163 C162 1.457 . S
C163 C164 1.291 . S
C163 H176 0.931 . S
C164 C163 1.291 . S
C164 C165 1.373 . S
C164 H177 0.929 . S
C165 C164 1.373 . S
C165 C166 1.396 . S
C165 C172 1.403 . S
C166 C156 1.476 . S
C166 N161 1.318 . S
C166 C165 1.396 . S
H167 C162 0.929 . S
O168 Mn144 2.385 1_554 S
O168 C146 1.234 . S
O169 Mn144 2.209 . S
O169 Mn145 2.215 . S
O169 C146 1.283 1_556 S
O170 Mn144 2.094 . S
O170 C148 1.240 . S
O171 Mn145 2.117 . S
O171 C148 1.264 . S
C172 C165 1.403 . S
C172 C173 1.399 . S
C172 H178 0.929 . S
C173 C153 1.449 . S
C173 C172 1.399 . S
C173 H179 0.930 . S
H174 C154 0.931 . S
H175 C155 0.930 . S
H176 C163 0.931 . S
H177 C164 0.929 . S
H178 C172 0.929 . S
H179 C173 0.930 . S
Mn180 O185 2.095 . S
Mn180 O195 2.162 . S
Mn180 O196 2.297 . S
Mn180 O204 2.385 1_556 S
Mn180 O205 2.209 . S
Mn180 O206 2.094 . S
Mn181 O186 2.121 . S
Mn181 N188 2.257 . S
Mn181 N197 2.282 1_556 S
Mn181 O205 2.215 . S
Mn181 O207 2.117 . S
C182 O204 1.234 . S
C182 O205 1.283 1_554 S
C183 O195 1.281 . S
C183 O196 1.236 . S
C184 O206 1.240 . S
C184 O207 1.264 . S
O185 Mn180 2.095 . S
O185 C194 1.250 . S
O186 Mn181 2.121 . S
O186 C194 1.258 . S
C187 N188 1.326 . S
C187 C191 1.460 . S
C187 H193 0.929 . S
N188 Mn181 2.257 . S
N188 C187 1.326 . S
N188 C192 1.362 1_556 S
C189 C190 1.258 1_554 S
C189 C192 1.431 . S
C189 C209 1.449 . S
C190 C189 1.258 1_556 S
C190 C191 1.477 . S
C190 H210 0.931 . S
C191 C187 1.460 . S
C191 C190 1.477 . S
C191 H211 0.930 . S
C192 N188 1.362 1_554 S
C192 C189 1.431 . S
C192 C202 1.476 . S
H193 C187 0.929 . S
C194 O185 1.250 . S
C194 O186 1.258 . S
O195 Mn180 2.162 . S
O195 C183 1.281 . S
O196 Mn180 2.297 . S
O196 C183 1.236 . S
N197 Mn181 2.282 1_554 S
N197 C198 1.328 . S
N197 C202 1.318 . S
C198 N197 1.328 . S
C198 C199 1.457 . S
C198 H203 0.929 . S
C199 C198 1.457 . S
C199 C200 1.291 . S
C199 H212 0.931 . S
C200 C199 1.291 . S
C200 C201 1.373 . S
C200 H213 0.929 . S
C201 C200 1.373 . S
C201 C202 1.396 . S
C201 C208 1.403 . S
C202 C192 1.476 . S
C202 N197 1.318 . S
C202 C201 1.396 . S
H203 C198 0.929 . S
O204 Mn180 2.385 1_554 S
O204 C182 1.234 . S
O205 Mn180 2.209 . S
O205 Mn181 2.215 . S
O205 C182 1.283 1_556 S
O206 Mn180 2.094 . S
O206 C184 1.240 . S
O207 Mn181 2.117 . S
O207 C184 1.264 . S
C208 C201 1.403 . S
C208 C209 1.399 . S
C208 H214 0.929 . S
C209 C189 1.449 . S
C209 C208 1.399 . S
C209 H215 0.930 . S
H210 C190 0.931 . S
H211 C191 0.930 . S
H212 C199 0.931 . S
H213 C200 0.929 . S
H214 C208 0.929 . S
H215 C209 0.930 . S
Mn216 O221 2.095 . S
Mn216 O231 2.162 . S
Mn216 O232 2.297 . S
Mn216 O240 2.385 . S
Mn216 O241 2.209 . S
Mn216 O242 2.094 . S
Mn217 O222 2.121 . S
Mn217 N224 2.257 . S
Mn217 N233 2.282 . S
Mn217 O241 2.215 . S
Mn217 O243 2.117 . S
C218 O240 1.234 . S
C218 O241 1.283 . S
C219 O231 1.281 . S
C219 O232 1.236 . S
C220 O242 1.240 . S
C220 O243 1.264 . S
O221 Mn216 2.095 . S
O221 C230 1.250 . S
O222 Mn217 2.121 . S
O222 C230 1.258 . S
C223 N224 1.326 . S
C223 C227 1.460 . S
C223 H229 0.929 . S
N224 Mn217 2.257 . S
N224 C223 1.326 . S
N224 C228 1.362 . S
C225 C226 1.258 . S
C225 C228 1.431 . S
C225 C245 1.449 . S
C226 C225 1.258 . S
C226 C227 1.477 . S
C226 H246 0.931 . S
C227 C223 1.460 . S
C227 C226 1.477 . S
C227 H247 0.930 . S
C228 N224 1.362 . S
C228 C225 1.431 . S
C228 C238 1.476 . S
H229 C223 0.929 . S
C230 O221 1.250 . S
C230 O222 1.258 . S
O231 Mn216 2.162 . S
O231 C219 1.281 . S
O232 Mn216 2.297 . S
O232 C219 1.236 . S
N233 Mn217 2.282 . S
N233 C234 1.328 . S
N233 C238 1.318 . S
C234 N233 1.328 . S
C234 C235 1.457 . S
C234 H239 0.929 . S
C235 C234 1.457 . S
C235 C236 1.291 . S
C235 H248 0.931 . S
C236 C235 1.291 . S
C236 C237 1.373 . S
C236 H249 0.929 . S
C237 C236 1.373 . S
C237 C238 1.396 . S
C237 C244 1.403 . S
C238 C228 1.476 . S
C238 N233 1.318 . S
C238 C237 1.396 . S
H239 C234 0.929 . S
O240 Mn216 2.385 . S
O240 C218 1.234 . S
O241 Mn216 2.209 . S
O241 Mn217 2.215 . S
O241 C218 1.283 . S
O242 Mn216 2.094 . S
O242 C220 1.240 . S
O243 Mn217 2.117 . S
O243 C220 1.264 . S
C244 C237 1.403 . S
C244 C245 1.399 . S
C244 H250 0.929 . S
C245 C225 1.449 . S
C245 C244 1.399 . S
C245 H251 0.930 . S
H246 C226 0.931 . S
H247 C227 0.930 . S
H248 C235 0.931 . S
H249 C236 0.929 . S
H250 C244 0.929 . S
H251 C245 0.930 . S
Mn252 O257 2.095 . S
Mn252 O267 2.162 . S
Mn252 O268 2.297 . S
Mn252 O276 2.385 . S
Mn252 O277 2.209 . S
Mn252 O278 2.094 . S
Mn253 O258 2.121 . S
Mn253 N260 2.257 . S
Mn253 N269 2.282 . S
Mn253 O277 2.215 . S
Mn253 O279 2.117 . S
C254 O276 1.234 . S
C254 O277 1.283 . S
C255 O267 1.281 . S
C255 O268 1.236 . S
C256 O278 1.240 . S
C256 O279 1.264 . S
O257 Mn252 2.095 . S
O257 C266 1.250 . S
O258 Mn253 2.121 . S
O258 C266 1.258 . S
C259 N260 1.326 . S
C259 C263 1.460 . S
C259 H265 0.929 . S
N260 Mn253 2.257 . S
N260 C259 1.326 . S
N260 C264 1.362 . S
C261 C262 1.258 . S
C261 C264 1.431 . S
C261 C281 1.449 . S
C262 C261 1.258 . S
C262 C263 1.477 . S
C262 H282 0.931 . S
C263 C259 1.460 . S
C263 C262 1.477 . S
C263 H283 0.930 . S
C264 N260 1.362 . S
C264 C261 1.431 . S
C264 C274 1.476 . S
H265 C259 0.929 . S
C266 O257 1.250 . S
C266 O258 1.258 . S
O267 Mn252 2.162 . S
O267 C255 1.281 . S
O268 Mn252 2.297 . S
O268 C255 1.236 . S
N269 Mn253 2.282 . S
N269 C270 1.328 . S
N269 C274 1.318 . S
C270 N269 1.328 . S
C270 C271 1.457 . S
C270 H275 0.929 . S
C271 C270 1.457 . S
C271 C272 1.291 . S
C271 H284 0.931 . S
C272 C271 1.291 . S
C272 C273 1.373 . S
C272 H285 0.929 . S
C273 C272 1.373 . S
C273 C274 1.396 . S
C273 C280 1.403 . S
C274 C264 1.476 . S
C274 N269 1.318 . S
C274 C273 1.396 . S
H275 C270 0.929 . S
O276 Mn252 2.385 . S
O276 C254 1.234 . S
O277 Mn252 2.209 . S
O277 Mn253 2.215 . S
O277 C254 1.283 . S
O278 Mn252 2.094 . S
O278 C256 1.240 . S
O279 Mn253 2.117 . S
O279 C256 1.264 . S
C280 C273 1.403 . S
C280 C281 1.399 . S
C280 H286 0.929 . S
C281 C261 1.449 . S
C281 C280 1.399 . S
C281 H287 0.930 . S
H282 C262 0.931 . S
H283 C263 0.930 . S
H284 C271 0.931 . S
H285 C272 0.929 . S
H286 C280 0.929 . S
H287 C281 0.930 . S
Mn288 O293 2.095 . S
Mn288 O303 2.162 . S
Mn288 O304 2.297 . S
Mn288 O312 2.385 . S
Mn288 O313 2.209 . S
Mn288 O314 2.094 . S
Mn289 O294 2.121 . S
Mn289 N296 2.257 . S
Mn289 N305 2.282 . S
Mn289 O313 2.215 . S
Mn289 O315 2.117 . S
C290 O312 1.234 . S
C290 O313 1.283 . S
C291 O303 1.281 . S
C291 O304 1.236 . S
C292 O314 1.240 . S
C292 O315 1.264 . S
O293 Mn288 2.095 . S
O293 C302 1.250 . S
O294 Mn289 2.121 . S
O294 C302 1.258 . S
C295 N296 1.326 . S
C295 C299 1.460 . S
C295 H301 0.929 . S
N296 Mn289 2.257 . S
N296 C295 1.326 . S
N296 C300 1.362 . S
C297 C298 1.258 . S
C297 C300 1.431 . S
C297 C317 1.449 . S
C298 C297 1.258 . S
C298 C299 1.477 . S
C298 H318 0.931 . S
C299 C295 1.460 . S
C299 C298 1.477 . S
C299 H319 0.930 . S
C300 N296 1.362 . S
C300 C297 1.431 . S
C300 C310 1.476 . S
H301 C295 0.929 . S
C302 O293 1.250 . S
C302 O294 1.258 . S
O303 Mn288 2.162 . S
O303 C291 1.281 . S
O304 Mn288 2.297 . S
O304 C291 1.236 . S
N305 Mn289 2.282 . S
N305 C306 1.328 . S
N305 C310 1.318 . S
C306 N305 1.328 . S
C306 C307 1.457 . S
C306 H311 0.929 . S
C307 C306 1.457 . S
C307 C308 1.291 . S
C307 H320 0.931 . S
C308 C307 1.291 . S
C308 C309 1.373 . S
C308 H321 0.929 . S
C309 C308 1.373 . S
C309 C310 1.396 . S
C309 C316 1.403 . S
C310 C300 1.476 . S
C310 N305 1.318 . S
C310 C309 1.396 . S
H311 C306 0.929 . S
O312 Mn288 2.385 . S
O312 C290 1.234 . S
O313 Mn288 2.209 . S
O313 Mn289 2.215 . S
O313 C290 1.283 . S
O314 Mn288 2.094 . S
O314 C292 1.240 . S
O315 Mn289 2.117 . S
O315 C292 1.264 . S
C316 C309 1.403 . S
C316 C317 1.399 . S
C316 H322 0.929 . S
C317 C297 1.449 . S
C317 C316 1.399 . S
C317 H323 0.930 . S
H318 C298 0.931 . S
H319 C299 0.930 . S
H320 C307 0.931 . S
H321 C308 0.929 . S
H322 C316 0.929 . S
H323 C317 0.930 . S
Mn324 O329 2.095 . S
Mn324 O339 2.162 . S
Mn324 O340 2.297 . S
Mn324 O348 2.385 . S
Mn324 O349 2.209 . S
Mn324 O350 2.094 . S
Mn325 O330 2.121 . S
Mn325 N332 2.257 1_655 S
Mn325 N341 2.282 . S
Mn325 O349 2.215 . S
Mn325 O351 2.117 . S
C326 O348 1.234 . S
C326 O349 1.283 . S
C327 O339 1.281 . S
C327 O340 1.236 . S
C328 O350 1.240 . S
C328 O351 1.264 . S
O329 Mn324 2.095 . S
O329 C338 1.250 . S
O330 Mn325 2.121 . S
O330 C338 1.258 . S
C331 N332 1.326 . S
C331 C335 1.460 . S
C331 H337 0.929 . S
N332 Mn325 2.257 1_455 S
N332 C331 1.326 . S
N332 C336 1.362 . S
C333 C334 1.258 . S
C333 C336 1.431 . S
C333 C353 1.449 . S
C334 C333 1.258 . S
C334 C335 1.477 . S
C334 H354 0.931 . S
C335 C331 1.460 . S
C335 C334 1.477 . S
C335 H355 0.930 . S
C336 N332 1.362 . S
C336 C333 1.431 . S
C336 C346 1.476 . S
H337 C331 0.929 . S
C338 O329 1.250 . S
C338 O330 1.258 . S
O339 Mn324 2.162 . S
O339 C327 1.281 . S
O340 Mn324 2.297 . S
O340 C327 1.236 . S
N341 Mn325 2.282 . S
N341 C342 1.328 . S
N341 C346 1.318 1_655 S
C342 N341 1.328 . S
C342 C343 1.457 . S
C342 H347 0.929 . S
C343 C342 1.457 . S
C343 C344 1.291 1_655 S
C343 H356 0.931 . S
C344 C343 1.291 1_455 S
C344 C345 1.373 . S
C344 H357 0.929 . S
C345 C344 1.373 . S
C345 C346 1.396 . S
C345 C352 1.403 . S
C346 C336 1.476 . S
C346 N341 1.318 1_455 S
C346 C345 1.396 . S
H347 C342 0.929 . S
O348 Mn324 2.385 . S
O348 C326 1.234 . S
O349 Mn324 2.209 . S
O349 Mn325 2.215 . S
O349 C326 1.283 . S
O350 Mn324 2.094 . S
O350 C328 1.240 . S
O351 Mn325 2.117 . S
O351 C328 1.264 . S
C352 C345 1.403 . S
C352 C353 1.399 . S
C352 H358 0.929 . S
C353 C333 1.449 . S
C353 C352 1.399 . S
C353 H359 0.930 . S
H354 C334 0.931 . S
H355 C335 0.930 . S
H356 C343 0.931 . S
H357 C344 0.929 . S
H358 C352 0.929 . S
H359 C353 0.930 . S
Mn360 O365 2.095 . S
Mn360 O375 2.162 . S
Mn360 O376 2.297 . S
Mn360 O384 2.385 . S
Mn360 O385 2.209 . S
Mn360 O386 2.094 . S
Mn361 O366 2.121 . S
Mn361 N368 2.257 . S
Mn361 N377 2.282 . S
Mn361 O385 2.215 . S
Mn361 O387 2.117 . S
C362 O384 1.234 . S
C362 O385 1.283 . S
C363 O375 1.281 . S
C363 O376 1.236 . S
C364 O386 1.240 . S
C364 O387 1.264 . S
O365 Mn360 2.095 . S
O365 C374 1.250 . S
O366 Mn361 2.121 . S
O366 C374 1.258 . S
C367 N368 1.326 . S
C367 C371 1.460 . S
C367 H373 0.929 . S
N368 Mn361 2.257 . S
N368 C367 1.326 . S
N368 C372 1.362 . S
C369 C370 1.258 . S
C369 C372 1.431 . S
C369 C389 1.449 . S
C370 C369 1.258 . S
C370 C371 1.477 . S
C370 H390 0.931 . S
C371 C367 1.460 . S
C371 C370 1.477 . S
C371 H391 0.930 . S
C372 N368 1.362 . S
C372 C369 1.431 . S
C372 C382 1.476 . S
H373 C367 0.929 . S
C374 O365 1.250 . S
C374 O366 1.258 . S
O375 Mn360 2.162 . S
O375 C363 1.281 . S
O376 Mn360 2.297 . S
O376 C363 1.236 . S
N377 Mn361 2.282 . S
N377 C378 1.328 . S
N377 C382 1.318 . S
C378 N377 1.328 . S
C378 C379 1.457 . S
C378 H383 0.929 . S
C379 C378 1.457 . S
C379 C380 1.291 . S
C379 H392 0.931 . S
C380 C379 1.291 . S
C380 C381 1.373 . S
C380 H393 0.929 . S
C381 C380 1.373 . S
C381 C382 1.396 . S
C381 C388 1.403 . S
C382 C372 1.476 . S
C382 N377 1.318 . S
C382 C381 1.396 . S
H383 C378 0.929 . S
O384 Mn360 2.385 . S
O384 C362 1.234 . S
O385 Mn360 2.209 . S
O385 Mn361 2.215 . S
O385 C362 1.283 . S
O386 Mn360 2.094 . S
O386 C364 1.240 . S
O387 Mn361 2.117 . S
O387 C364 1.264 . S
C388 C381 1.403 . S
C388 C389 1.399 . S
C388 H394 0.929 . S
C389 C369 1.449 . S
C389 C388 1.399 . S
C389 H395 0.930 . S
H390 C370 0.931 . S
H391 C371 0.930 . S
H392 C379 0.931 . S
H393 C380 0.929 . S
H394 C388 0.929 . S
H395 C389 0.930 . S
Mn396 O401 2.095 . S
Mn396 O411 2.162 . S
Mn396 O412 2.297 . S
Mn396 O420 2.385 . S
Mn396 O421 2.209 . S
Mn396 O422 2.094 . S
Mn397 O402 2.121 . S
Mn397 N404 2.257 1_545 S
Mn397 N413 2.282 . S
Mn397 O421 2.215 . S
Mn397 O423 2.117 . S
C398 O420 1.234 . S
C398 O421 1.283 . S
C399 O411 1.281 . S
C399 O412 1.236 . S
C400 O422 1.240 . S
C400 O423 1.264 . S
O401 Mn396 2.095 . S
O401 C410 1.250 . S
O402 Mn397 2.121 . S
O402 C410 1.258 . S
C403 N404 1.326 . S
C403 C407 1.460 . S
C403 H409 0.929 . S
N404 Mn397 2.257 1_565 S
N404 C403 1.326 . S
N404 C408 1.362 . S
C405 C406 1.258 . S
C405 C408 1.431 . S
C405 C425 1.449 . S
C406 C405 1.258 . S
C406 C407 1.477 . S
C406 H426 0.931 . S
C407 C403 1.460 . S
C407 C406 1.477 . S
C407 H427 0.930 . S
C408 N404 1.362 . S
C408 C405 1.431 . S
C408 C418 1.476 . S
H409 C403 0.929 . S
C410 O401 1.250 . S
C410 O402 1.258 . S
O411 Mn396 2.162 . S
O411 C399 1.281 . S
O412 Mn396 2.297 . S
O412 C399 1.236 . S
N413 Mn397 2.282 . S
N413 C414 1.328 . S
N413 C418 1.318 1_545 S
C414 N413 1.328 . S
C414 C415 1.457 . S
C414 H419 0.929 . S
C415 C414 1.457 . S
C415 C416 1.291 1_545 S
C415 H428 0.931 . S
C416 C415 1.291 1_565 S
C416 C417 1.373 . S
C416 H429 0.929 . S
C417 C416 1.373 . S
C417 C418 1.396 . S
C417 C424 1.403 . S
C418 C408 1.476 . S
C418 N413 1.318 1_565 S
C418 C417 1.396 . S
H419 C414 0.929 . S
O420 Mn396 2.385 . S
O420 C398 1.234 . S
O421 Mn396 2.209 . S
O421 Mn397 2.215 . S
O421 C398 1.283 . S
O422 Mn396 2.094 . S
O422 C400 1.240 . S
O423 Mn397 2.117 . S
O423 C400 1.264 . S
C424 C417 1.403 . S
C424 C425 1.399 . S
C424 H430 0.929 . S
C425 C405 1.449 . S
C425 C424 1.399 . S
C425 H431 0.930 . S
H426 C406 0.931 . S
H427 C407 0.930 . S
H428 C415 0.931 . S
H429 C416 0.929 . S
H430 C424 0.929 . S
H431 C425 0.930 . S
Mn432 O437 2.095 . S
Mn432 O447 2.162 . S
Mn432 O448 2.297 . S
Mn432 O456 2.385 . S
Mn432 O457 2.209 . S
Mn432 O458 2.094 . S
Mn433 O438 2.121 . S
Mn433 N440 2.257 1_565 S
Mn433 N449 2.282 . S
Mn433 O457 2.215 . S
Mn433 O459 2.117 . S
C434 O456 1.234 . S
C434 O457 1.283 . S
C435 O447 1.281 . S
C435 O448 1.236 . S
C436 O458 1.240 . S
C436 O459 1.264 . S
O437 Mn432 2.095 . S
O437 C446 1.250 . S
O438 Mn433 2.121 . S
O438 C446 1.258 . S
C439 N440 1.326 . S
C439 C443 1.460 . S
C439 H445 0.929 . S
N440 Mn433 2.257 1_545 S
N440 C439 1.326 . S
N440 C444 1.362 . S
C441 C442 1.258 . S
C441 C444 1.431 . S
C441 C461 1.449 . S
C442 C441 1.258 . S
C442 C443 1.477 . S
C442 H462 0.931 . S
C443 C439 1.460 . S
C443 C442 1.477 . S
C443 H463 0.930 . S
C444 N440 1.362 . S
C444 C441 1.431 . S
C444 C454 1.476 . S
H445 C439 0.929 . S
C446 O437 1.250 . S
C446 O438 1.258 . S
O447 Mn432 2.162 . S
O447 C435 1.281 . S
O448 Mn432 2.297 . S
O448 C435 1.236 . S
N449 Mn433 2.282 . S
N449 C450 1.328 . S
N449 C454 1.318 1_565 S
C450 N449 1.328 . S
C450 C451 1.457 . S
C450 H455 0.929 . S
C451 C450 1.457 . S
C451 C452 1.291 1_565 S
C451 H464 0.931 . S
C452 C451 1.291 1_545 S
C452 C453 1.373 . S
C452 H465 0.929 . S
C453 C452 1.373 . S
C453 C454 1.396 . S
C453 C460 1.403 . S
C454 C444 1.476 . S
C454 N449 1.318 1_545 S
C454 C453 1.396 . S
H455 C450 0.929 . S
O456 Mn432 2.385 . S
O456 C434 1.234 . S
O457 Mn432 2.209 . S
O457 Mn433 2.215 . S
O457 C434 1.283 . S
O458 Mn432 2.094 . S
O458 C436 1.240 . S
O459 Mn433 2.117 . S
O459 C436 1.264 . S
C460 C453 1.403 . S
C460 C461 1.399 . S
C460 H466 0.929 . S
C461 C441 1.449 . S
C461 C460 1.399 . S
C461 H467 0.930 . S
H462 C442 0.931 . S
H463 C443 0.930 . S
H464 C451 0.931 . S
H465 C452 0.929 . S
H466 C460 0.929 . S
H467 C461 0.930 . S
Mn468 O473 2.095 . S
Mn468 O483 2.162 . S
Mn468 O484 2.297 . S
Mn468 O492 2.385 . S
Mn468 O493 2.209 . S
Mn468 O494 2.094 . S
Mn469 O474 2.121 . S
Mn469 N476 2.257 1_455 S
Mn469 N485 2.282 . S
Mn469 O493 2.215 . S
Mn469 O495 2.117 . S
C470 O492 1.234 . S
C470 O493 1.283 . S
C471 O483 1.281 . S
C471 O484 1.236 . S
C472 O494 1.240 . S
C472 O495 1.264 . S
O473 Mn468 2.095 . S
O473 C482 1.250 . S
O474 Mn469 2.121 . S
O474 C482 1.258 . S
C475 N476 1.326 . S
C475 C479 1.460 . S
C475 H481 0.929 . S
N476 Mn469 2.257 1_655 S
N476 C475 1.326 . S
N476 C480 1.362 . S
C477 C478 1.258 . S
C477 C480 1.431 . S
C477 C497 1.449 . S
C478 C477 1.258 . S
C478 C479 1.477 . S
C478 H498 0.931 . S
C479 C475 1.460 . S
C479 C478 1.477 . S
C479 H499 0.930 . S
C480 N476 1.362 . S
C480 C477 1.431 . S
C480 C490 1.476 . S
H481 C475 0.929 . S
C482 O473 1.250 . S
C482 O474 1.258 . S
O483 Mn468 2.162 . S
O483 C471 1.281 . S
O484 Mn468 2.297 . S
O484 C471 1.236 . S
N485 Mn469 2.282 . S
N485 C486 1.328 . S
N485 C490 1.318 1_455 S
C486 N485 1.328 . S
C486 C487 1.457 . S
C486 H491 0.929 . S
C487 C486 1.457 . S
C487 C488 1.291 1_455 S
C487 H500 0.931 . S
C488 C487 1.291 1_655 S
C488 C489 1.373 . S
C488 H501 0.929 . S
C489 C488 1.373 . S
C489 C490 1.396 . S
C489 C496 1.403 . S
C490 C480 1.476 . S
C490 N485 1.318 1_655 S
C490 C489 1.396 . S
H491 C486 0.929 . S
O492 Mn468 2.385 . S
O492 C470 1.234 . S
O493 Mn468 2.209 . S
O493 Mn469 2.215 . S
O493 C470 1.283 . S
O494 Mn468 2.094 . S
O494 C472 1.240 . S
O495 Mn469 2.117 . S
O495 C472 1.264 . S
C496 C489 1.403 . S
C496 C497 1.399 . S
C496 H502 0.929 . S
C497 C477 1.449 . S
C497 C496 1.399 . S
C497 H503 0.930 . S
H498 C478 0.931 . S
H499 C479 0.930 . S
H500 C487 0.931 . S
H501 C488 0.929 . S
H502 C496 0.929 . S
H503 C497 0.930 . S
Mn504 O509 2.095 . S
Mn504 O519 2.162 . S
Mn504 O520 2.297 . S
Mn504 O528 2.385 . S
Mn504 O529 2.209 . S
Mn504 O530 2.094 . S
Mn505 O510 2.121 . S
Mn505 N512 2.257 . S
Mn505 N521 2.282 . S
Mn505 O529 2.215 . S
Mn505 O531 2.117 . S
C506 O528 1.234 . S
C506 O529 1.283 . S
C507 O519 1.281 . S
C507 O520 1.236 . S
C508 O530 1.240 . S
C508 O531 1.264 . S
O509 Mn504 2.095 . S
O509 C518 1.250 . S
O510 Mn505 2.121 . S
O510 C518 1.258 . S
C511 N512 1.326 . S
C511 C515 1.460 . S
C511 H517 0.929 . S
N512 Mn505 2.257 . S
N512 C511 1.326 . S
N512 C516 1.362 . S
C513 C514 1.258 . S
C513 C516 1.431 . S
C513 C533 1.449 . S
C514 C513 1.258 . S
C514 C515 1.477 . S
C514 H534 0.931 . S
C515 C511 1.460 . S
C515 C514 1.477 . S
C515 H535 0.930 . S
C516 N512 1.362 . S
C516 C513 1.431 . S
C516 C526 1.476 . S
H517 C511 0.929 . S
C518 O509 1.250 . S
C518 O510 1.258 . S
O519 Mn504 2.162 . S
O519 C507 1.281 . S
O520 Mn504 2.297 . S
O520 C507 1.236 . S
N521 Mn505 2.282 . S
N521 C522 1.328 . S
N521 C526 1.318 . S
C522 N521 1.328 . S
C522 C523 1.457 . S
C522 H527 0.929 . S
C523 C522 1.457 . S
C523 C524 1.291 . S
C523 H536 0.931 . S
C524 C523 1.291 . S
C524 C525 1.373 . S
C524 H537 0.929 . S
C525 C524 1.373 . S
C525 C526 1.396 . S
C525 C532 1.403 . S
C526 C516 1.476 . S
C526 N521 1.318 . S
C526 C525 1.396 . S
H527 C522 0.929 . S
O528 Mn504 2.385 . S
O528 C506 1.234 . S
O529 Mn504 2.209 . S
O529 Mn505 2.215 . S
O529 C506 1.283 . S
O530 Mn504 2.094 . S
O530 C508 1.240 . S
O531 Mn505 2.117 . S
O531 C508 1.264 . S
C532 C525 1.403 . S
C532 C533 1.399 . S
C532 H538 0.929 . S
C533 C513 1.449 . S
C533 C532 1.399 . S
C533 H539 0.930 . S
H534 C514 0.931 . S
H535 C515 0.930 . S
H536 C523 0.931 . S
H537 C524 0.929 . S
H538 C532 0.929 . S
H539 C533 0.930 . S
Mn540 O545 2.095 . S
Mn540 O555 2.162 . S
Mn540 O556 2.297 . S
Mn540 O564 2.385 . S
Mn540 O565 2.209 . S
Mn540 O566 2.094 . S
Mn541 O546 2.121 . S
Mn541 N548 2.257 . S
Mn541 N557 2.282 . S
Mn541 O565 2.215 . S
Mn541 O567 2.117 . S
C542 O564 1.234 . S
C542 O565 1.283 . S
C543 O555 1.281 . S
C543 O556 1.236 . S
C544 O566 1.240 . S
C544 O567 1.264 . S
O545 Mn540 2.095 . S
O545 C554 1.250 . S
O546 Mn541 2.121 . S
O546 C554 1.258 . S
C547 N548 1.326 . S
C547 C551 1.460 . S
C547 H553 0.929 . S
N548 Mn541 2.257 . S
N548 C547 1.326 . S
N548 C552 1.362 . S
C549 C550 1.258 . S
C549 C552 1.431 . S
C549 C569 1.449 . S
C550 C549 1.258 . S
C550 C551 1.477 . S
C550 H570 0.931 . S
C551 C547 1.460 . S
C551 C550 1.477 . S
C551 H571 0.930 . S
C552 N548 1.362 . S
C552 C549 1.431 . S
C552 C562 1.476 . S
H553 C547 0.929 . S
C554 O545 1.250 . S
C554 O546 1.258 . S
O555 Mn540 2.162 . S
O555 C543 1.281 . S
O556 Mn540 2.297 . S
O556 C543 1.236 . S
N557 Mn541 2.282 . S
N557 C558 1.328 . S
N557 C562 1.318 . S
C558 N557 1.328 . S
C558 C559 1.457 . S
C558 H563 0.929 . S
C559 C558 1.457 . S
C559 C560 1.291 . S
C559 H572 0.931 . S
C560 C559 1.291 . S
C560 C561 1.373 . S
C560 H573 0.929 . S
C561 C560 1.373 . S
C561 C562 1.396 . S
C561 C568 1.403 . S
C562 C552 1.476 . S
C562 N557 1.318 . S
C562 C561 1.396 . S
H563 C558 0.929 . S
O564 Mn540 2.385 . S
O564 C542 1.234 . S
O565 Mn540 2.209 . S
O565 Mn541 2.215 . S
O565 C542 1.283 . S
O566 Mn540 2.094 . S
O566 C544 1.240 . S
O567 Mn541 2.117 . S
O567 C544 1.264 . S
C568 C561 1.403 . S
C568 C569 1.399 . S
C568 H574 0.929 . S
C569 C549 1.449 . S
C569 C568 1.399 . S
C569 H575 0.930 . S
H570 C550 0.931 . S
H571 C551 0.930 . S
H572 C559 0.931 . S
H573 C560 0.929 . S
H574 C568 0.929 . S
H575 C569 0.930 . S
Mn576 O581 2.095 . S
Mn576 O591 2.162 . S
Mn576 O592 2.297 . S
Mn576 O600 2.385 . S
Mn576 O601 2.209 . S
Mn576 O602 2.094 . S
Mn577 O582 2.121 . S
Mn577 N584 2.257 . S
Mn577 N593 2.282 . S
Mn577 O601 2.215 . S
Mn577 O603 2.117 . S
C578 O600 1.234 . S
C578 O601 1.283 . S
C579 O591 1.281 . S
C579 O592 1.236 . S
C580 O602 1.240 . S
C580 O603 1.264 . S
O581 Mn576 2.095 . S
O581 C590 1.250 . S
O582 Mn577 2.121 . S
O582 C590 1.258 . S
C583 N584 1.326 . S
C583 C587 1.460 . S
C583 H589 0.929 . S
N584 Mn577 2.257 . S
N584 C583 1.326 . S
N584 C588 1.362 . S
C585 C586 1.258 . S
C585 C588 1.431 . S
C585 C605 1.449 . S
C586 C585 1.258 . S
C586 C587 1.477 . S
C586 H606 0.931 . S
C587 C583 1.460 . S
C587 C586 1.477 . S
C587 H607 0.930 . S
C588 N584 1.362 . S
C588 C585 1.431 . S
C588 C598 1.476 . S
H589 C583 0.929 . S
C590 O581 1.250 . S
C590 O582 1.258 . S
O591 Mn576 2.162 . S
O591 C579 1.281 . S
O592 Mn576 2.297 . S
O592 C579 1.236 . S
N593 Mn577 2.282 . S
N593 C594 1.328 . S
N593 C598 1.318 . S
C594 N593 1.328 . S
C594 C595 1.457 . S
C594 H599 0.929 . S
C595 C594 1.457 . S
C595 C596 1.291 . S
C595 H608 0.931 . S
C596 C595 1.291 . S
C596 C597 1.373 . S
C596 H609 0.929 . S
C597 C596 1.373 . S
C597 C598 1.396 . S
C597 C604 1.403 . S
C598 C588 1.476 . S
C598 N593 1.318 . S
C598 C597 1.396 . S
H599 C594 0.929 . S
O600 Mn576 2.385 . S
O600 C578 1.234 . S
O601 Mn576 2.209 . S
O601 Mn577 2.215 . S
O601 C578 1.283 . S
O602 Mn576 2.094 . S
O602 C580 1.240 . S
O603 Mn577 2.117 . S
O603 C580 1.264 . S
C604 C597 1.403 . S
C604 C605 1.399 . S
C604 H610 0.929 . S
C605 C585 1.449 . S
C605 C604 1.399 . S
C605 H611 0.930 . S
H606 C586 0.931 . S
H607 C587 0.930 . S
H608 C595 0.931 . S
H609 C596 0.929 . S
H610 C604 0.929 . S
H611 C605 0.930 . S
Mn612 O617 2.095 . S
Mn612 O627 2.162 . S
Mn612 O628 2.297 . S
Mn612 O636 2.385 . S
Mn612 O637 2.209 . S
Mn612 O638 2.094 . S
Mn613 O618 2.121 . S
Mn613 N620 2.257 . S
Mn613 N629 2.282 . S
Mn613 O637 2.215 . S
Mn613 O639 2.117 . S
C614 O636 1.234 . S
C614 O637 1.283 . S
C615 O627 1.281 . S
C615 O628 1.236 . S
C616 O638 1.240 . S
C616 O639 1.264 . S
O617 Mn612 2.095 . S
O617 C626 1.250 . S
O618 Mn613 2.121 . S
O618 C626 1.258 . S
C619 N620 1.326 . S
C619 C623 1.460 . S
C619 H625 0.929 . S
N620 Mn613 2.257 . S
N620 C619 1.326 . S
N620 C624 1.362 . S
C621 C622 1.258 . S
C621 C624 1.431 . S
C621 C641 1.449 . S
C622 C621 1.258 . S
C622 C623 1.477 . S
C622 H642 0.931 . S
C623 C619 1.460 . S
C623 C622 1.477 . S
C623 H643 0.930 . S
C624 N620 1.362 . S
C624 C621 1.431 . S
C624 C634 1.476 . S
H625 C619 0.929 . S
C626 O617 1.250 . S
C626 O618 1.258 . S
O627 Mn612 2.162 . S
O627 C615 1.281 . S
O628 Mn612 2.297 . S
O628 C615 1.236 . S
N629 Mn613 2.282 . S
N629 C630 1.328 . S
N629 C634 1.318 . S
C630 N629 1.328 . S
C630 C631 1.457 . S
C630 H635 0.929 . S
C631 C630 1.457 . S
C631 C632 1.291 . S
C631 H644 0.931 . S
C632 C631 1.291 . S
C632 C633 1.373 . S
C632 H645 0.929 . S
C633 C632 1.373 . S
C633 C634 1.396 . S
C633 C640 1.403 . S
C634 C624 1.476 . S
C634 N629 1.318 . S
C634 C633 1.396 . S
H635 C630 0.929 . S
O636 Mn612 2.385 . S
O636 C614 1.234 . S
O637 Mn612 2.209 . S
O637 Mn613 2.215 . S
O637 C614 1.283 . S
O638 Mn612 2.094 . S
O638 C616 1.240 . S
O639 Mn613 2.117 . S
O639 C616 1.264 . S
C640 C633 1.403 . S
C640 C641 1.399 . S
C640 H646 0.929 . S
C641 C621 1.449 . S
C641 C640 1.399 . S
C641 H647 0.930 . S
H642 C622 0.931 . S
H643 C623 0.930 . S
H644 C631 0.931 . S
H645 C632 0.929 . S
H646 C640 0.929 . S
H647 C641 0.930 . S
H648 C654 0.930 . S
H649 C658 0.930 . S
H650 C663 0.929 . S
H651 C661 0.929 . S
H652 C656 0.929 . S
H653 C662 0.929 . S
C654 H648 0.930 . S
C654 C655 1.367 . S
C654 C662 1.378 . S
C655 C654 1.367 . S
C655 C663 1.433 . S
C656 H652 0.929 . S
C656 C658 1.378 . S
C656 C660 1.350 . S
C657 C660 1.463 . S
C657 C662 1.350 . S
C657 N665 1.427 . S
C658 H649 0.930 . S
C658 C656 1.378 . S
C658 C659 1.367 . S
C659 C658 1.367 . S
C659 C661 1.433 . S
C660 C656 1.350 . S
C660 C657 1.463 . S
C660 N664 1.427 . S
C661 H651 0.929 . S
C661 C659 1.433 . S
C661 N664 1.384 . S
C662 H653 0.929 . S
C662 C654 1.378 . S
C662 C657 1.350 . S
C663 H650 0.929 . S
C663 C655 1.433 . S
C663 N665 1.384 . S
N664 C660 1.427 . S
N664 C661 1.384 . S
N665 C657 1.427 . S
N665 C663 1.384 . S
H666 C672 0.930 . S
H667 C676 0.930 . S
H668 C681 0.929 . S
H669 C679 0.929 . S
H670 C674 0.929 . S
H671 C680 0.929 . S
C672 H666 0.930 . S
C672 C673 1.367 . S
C672 C680 1.378 . S
C673 C672 1.367 . S
C673 C681 1.433 . S
C674 H670 0.929 . S
C674 C676 1.378 . S
C674 C678 1.350 . S
C675 C678 1.463 . S
C675 C680 1.350 . S
C675 N683 1.427 . S
C676 H667 0.930 . S
C676 C674 1.378 . S
C676 C677 1.367 . S
C677 C676 1.367 . S
C677 C679 1.433 . S
C678 C674 1.350 . S
C678 C675 1.463 . S
C678 N682 1.427 . S
C679 H669 0.929 . S
C679 C677 1.433 . S
C679 N682 1.384 . S
C680 H671 0.929 . S
C680 C672 1.378 . S
C680 C675 1.350 . S
C681 H668 0.929 . S
C681 C673 1.433 . S
C681 N683 1.384 . S
N682 C678 1.427 . S
N682 C679 1.384 . S
N683 C675 1.427 . S
N683 C681 1.384 . S
H684 C690 0.930 . S
H685 C694 0.930 . S
H686 C699 0.929 . S
H687 C697 0.929 . S
H688 C692 0.929 . S
H689 C698 0.929 . S
C690 H684 0.930 . S
C690 C691 1.367 . S
C690 C698 1.378 . S
C691 C690 1.367 . S
C691 C699 1.433 . S
C692 H688 0.929 . S
C692 C694 1.378 . S
C692 C696 1.350 . S
C693 C696 1.463 . S
C693 C698 1.350 . S
C693 N701 1.427 . S
C694 H685 0.930 . S
C694 C692 1.378 . S
C694 C695 1.367 . S
C695 C694 1.367 . S
C695 C697 1.433 . S
C696 C692 1.350 . S
C696 C693 1.463 . S
C696 N700 1.427 . S
C697 H687 0.929 . S
C697 C695 1.433 . S
C697 N700 1.384 . S
C698 H689 0.929 . S
C698 C690 1.378 . S
C698 C693 1.350 . S
C699 H686 0.929 . S
C699 C691 1.433 . S
C699 N701 1.384 . S
N700 C696 1.427 . S
N700 C697 1.384 . S
N701 C693 1.427 . S
N701 C699 1.384 . S
H702 C708 0.930 . S
H703 C712 0.930 . S
H704 C717 0.929 . S
H705 C715 0.929 . S
H706 C710 0.929 . S
H707 C716 0.929 . S
C708 H702 0.930 . S
C708 C709 1.367 . S
C708 C716 1.378 . S
C709 C708 1.367 . S
C709 C717 1.433 . S
C710 H706 0.929 . S
C710 C712 1.378 . S
C710 C714 1.350 . S
C711 C714 1.463 . S
C711 C716 1.350 . S
C711 N719 1.427 . S
C712 H703 0.930 . S
C712 C710 1.378 . S
C712 C713 1.367 . S
C713 C712 1.367 . S
C713 C715 1.433 . S
C714 C710 1.350 . S
C714 C711 1.463 . S
C714 N718 1.427 . S
C715 H705 0.929 . S
C715 C713 1.433 . S
C715 N718 1.384 . S
C716 H707 0.929 . S
C716 C708 1.378 . S
C716 C711 1.350 . S
C717 H704 0.929 . S
C717 C709 1.433 . S
C717 N719 1.384 . S
N718 C714 1.427 . S
N718 C715 1.384 . S
N719 C711 1.427 . S
N719 C717 1.384 . S
H720 C726 0.930 . S
H721 C730 0.930 . S
H722 C735 0.929 . S
H723 C733 0.929 . S
H724 C728 0.929 . S
H725 C734 0.929 . S
C726 H720 0.930 . S
C726 C727 1.367 . S
C726 C734 1.378 . S
C727 C726 1.367 . S
C727 C735 1.433 . S
C728 H724 0.929 . S
C728 C730 1.378 . S
C728 C732 1.350 . S
C729 C732 1.463 . S
C729 C734 1.350 . S
C729 N737 1.427 . S
C730 H721 0.930 . S
C730 C728 1.378 . S
C730 C731 1.367 . S
C731 C730 1.367 . S
C731 C733 1.433 . S
C732 C728 1.350 . S
C732 C729 1.463 . S
C732 N736 1.427 . S
C733 H723 0.929 . S
C733 C731 1.433 . S
C733 N736 1.384 . S
C734 H725 0.929 . S
C734 C726 1.378 . S
C734 C729 1.350 . S
C735 H722 0.929 . S
C735 C727 1.433 . S
C735 N737 1.384 . S
N736 C732 1.427 . S
N736 C733 1.384 . S
N737 C729 1.427 . S
N737 C735 1.384 . S
H738 C744 0.930 . S
H739 C748 0.930 . S
H740 C753 0.929 . S
H741 C751 0.929 . S
H742 C746 0.929 . S
H743 C752 0.929 . S
C744 H738 0.930 . S
C744 C745 1.367 . S
C744 C752 1.378 . S
C745 C744 1.367 . S
C745 C753 1.433 . S
C746 H742 0.929 . S
C746 C748 1.378 . S
C746 C750 1.350 . S
C747 C750 1.463 . S
C747 C752 1.350 . S
C747 N755 1.427 . S
C748 H739 0.930 . S
C748 C746 1.378 . S
C748 C749 1.367 . S
C749 C748 1.367 . S
C749 C751 1.433 . S
C750 C746 1.350 . S
C750 C747 1.463 . S
C750 N754 1.427 . S
C751 H741 0.929 . S
C751 C749 1.433 . S
C751 N754 1.384 . S
C752 H743 0.929 . S
C752 C744 1.378 . S
C752 C747 1.350 . S
C753 H740 0.929 . S
C753 C745 1.433 . S
C753 N755 1.384 . S
N754 C750 1.427 . S
N754 C751 1.384 . S
N755 C747 1.427 . S
N755 C753 1.384 . S
H756 C762 0.931 1_455 S
H757 C766 0.931 1_655 S
H758 C771 0.929 . S
H759 C769 0.929 . S
H760 C764 0.929 . S
H761 C770 0.929 . S
C762 H756 0.931 1_655 S
C762 C763 1.367 . S
C762 C770 1.378 1_655 S
C763 C762 1.367 . S
C763 C771 1.433 . S
C764 H760 0.929 . S
C764 C766 1.378 1_655 S
C764 C768 1.350 1_655 S
C765 C768 1.463 1_654 S
C765 C770 1.350 1_655 S
C765 N773 1.427 . S
C766 H757 0.931 1_455 S
C766 C764 1.378 1_455 S
C766 C767 1.367 . S
C767 C766 1.367 . S
C767 C769 1.433 . S
C768 C764 1.350 1_455 S
C768 C765 1.463 1_456 S
C768 N772 1.427 . S
C769 H759 0.929 . S
C769 C767 1.433 . S
C769 N772 1.384 . S
C770 H761 0.929 . S
C770 C762 1.378 1_455 S
C770 C765 1.350 1_455 S
C771 H758 0.929 . S
C771 C763 1.433 . S
C771 N773 1.384 . S
N772 C768 1.427 . S
N772 C769 1.384 . S
N773 C765 1.427 . S
N773 C771 1.384 . S
H774 C780 0.930 . S
H775 C784 0.930 . S
H776 C789 0.929 . S
H777 C787 0.929 . S
H778 C782 0.929 . S
H779 C788 0.929 . S
C780 H774 0.930 . S
C780 C781 1.367 . S
C780 C788 1.378 . S
C781 C780 1.367 . S
C781 C789 1.433 . S
C782 H778 0.929 . S
C782 C784 1.378 . S
C782 C786 1.350 . S
C783 C786 1.463 1_554 S
C783 C788 1.350 . S
C783 N791 1.427 . S
C784 H775 0.930 . S
C784 C782 1.378 . S
C784 C785 1.367 . S
C785 C784 1.367 . S
C785 C787 1.433 . S
C786 C782 1.350 . S
C786 C783 1.463 1_556 S
C786 N790 1.427 . S
C787 H777 0.929 . S
C787 C785 1.433 . S
C787 N790 1.384 . S
C788 H779 0.929 . S
C788 C780 1.378 . S
C788 C783 1.350 . S
C789 H776 0.929 . S
C789 C781 1.433 . S
C789 N791 1.384 . S
N790 C786 1.427 . S
N790 C787 1.384 . S
N791 C783 1.427 . S
N791 C789 1.384 . S
H792 C798 0.930 . S
H793 C802 0.930 . S
H794 C807 0.929 . S
H795 C805 0.929 . S
H796 C800 0.929 . S
H797 C806 0.929 . S
C798 H792 0.930 . S
C798 C799 1.367 . S
C798 C806 1.378 . S
C799 C798 1.367 . S
C799 C807 1.433 . S
C800 H796 0.929 . S
C800 C802 1.378 . S
C800 C804 1.350 . S
C801 C804 1.463 1_544 S
C801 C806 1.350 . S
C801 N809 1.427 1_545 S
C802 H793 0.930 . S
C802 C800 1.378 . S
C802 C803 1.367 . S
C803 C802 1.367 . S
C803 C805 1.433 . S
C804 C800 1.350 . S
C804 C801 1.463 1_566 S
C804 N808 1.427 1_565 S
C805 H795 0.929 . S
C805 C803 1.433 . S
C805 N808 1.384 1_565 S
C806 H797 0.929 . S
C806 C798 1.378 . S
C806 C801 1.350 . S
C807 H794 0.929 . S
C807 C799 1.433 . S
C807 N809 1.384 1_545 S
N808 C804 1.427 1_545 S
N808 C805 1.384 1_545 S
N809 C801 1.427 1_565 S
N809 C807 1.384 1_565 S
H810 C816 0.930 . S
H811 C820 0.930 . S
H812 C825 0.929 . S
H813 C823 0.929 . S
H814 C818 0.929 . S
H815 C824 0.929 . S
C816 H810 0.930 . S
C816 C817 1.367 . S
C816 C824 1.378 . S
C817 C816 1.367 . S
C817 C825 1.433 . S
C818 H814 0.929 . S
C818 C820 1.378 . S
C818 C822 1.350 . S
C819 C822 1.463 . S
C819 C824 1.350 . S
C819 N827 1.427 . S
C820 H811 0.930 . S
C820 C818 1.378 . S
C820 C821 1.367 . S
C821 C820 1.367 . S
C821 C823 1.433 . S
C822 C818 1.350 . S
C822 C819 1.463 . S
C822 N826 1.427 . S
C823 H813 0.929 . S
C823 C821 1.433 . S
C823 N826 1.384 . S
C824 H815 0.929 . S
C824 C816 1.378 . S
C824 C819 1.350 . S
C825 H812 0.929 . S
C825 C817 1.433 . S
C825 N827 1.384 . S
N826 C822 1.427 . S
N826 C823 1.384 . S
N827 C819 1.427 . S
N827 C825 1.384 . S
H828 C834 0.930 . S
H829 C838 0.930 . S
H830 C843 0.929 . S
H831 C841 0.929 . S
H832 C836 0.929 . S
H833 C842 0.929 . S
C834 H828 0.930 . S
C834 C835 1.367 . S
C834 C842 1.378 . S
C835 C834 1.367 . S
C835 C843 1.433 . S
C836 H832 0.929 . S
C836 C838 1.378 . S
C836 C840 1.350 . S
C837 C840 1.463 . S
C837 C842 1.350 . S
C837 N845 1.427 . S
C838 H829 0.930 . S
C838 C836 1.378 . S
C838 C839 1.367 . S
C839 C838 1.367 . S
C839 C841 1.433 . S
C840 C836 1.350 . S
C840 C837 1.463 . S
C840 N844 1.427 . S
C841 H831 0.929 . S
C841 C839 1.433 . S
C841 N844 1.384 . S
C842 H833 0.929 . S
C842 C834 1.378 . S
C842 C837 1.350 . S
C843 H830 0.929 . S
C843 C835 1.433 . S
C843 N845 1.384 . S
N844 C840 1.427 . S
N844 C841 1.384 . S
N845 C837 1.427 . S
N845 C843 1.384 . S
H846 C852 0.930 . S
H847 C856 0.930 . S
H848 C861 0.929 . S
H849 C859 0.929 . S
H850 C854 0.929 . S
H851 C860 0.929 . S
C852 H846 0.930 . S
C852 C853 1.367 . S
C852 C860 1.378 . S
C853 C852 1.367 . S
C853 C861 1.433 . S
C854 H850 0.929 . S
C854 C856 1.378 . S
C854 C858 1.350 . S
C855 C858 1.463 . S
C855 C860 1.350 . S
C855 N863 1.427 . S
C856 H847 0.930 . S
C856 C854 1.378 . S
C856 C857 1.367 . S
C857 C856 1.367 . S
C857 C859 1.433 . S
C858 C854 1.350 . S
C858 C855 1.463 . S
C858 N862 1.427 . S
C859 H849 0.929 . S
C859 C857 1.433 . S
C859 N862 1.384 . S
C860 H851 0.929 . S
C860 C852 1.378 . S
C860 C855 1.350 . S
C861 H848 0.929 . S
C861 C853 1.433 . S
C861 N863 1.384 . S
N862 C858 1.427 . S
N862 C859 1.384 . S
N863 C855 1.427 . S
N863 C861 1.384 . S
H864 C870 0.930 . S
H865 C874 0.930 . S
H866 C879 0.929 . S
H867 C877 0.929 . S
H868 C872 0.929 . S
H869 C878 0.929 . S
C870 H864 0.930 . S
C870 C871 1.367 . S
C870 C878 1.378 . S
C871 C870 1.367 . S
C871 C879 1.433 . S
C872 H868 0.929 . S
C872 C874 1.378 . S
C872 C876 1.350 . S
C873 C876 1.463 . S
C873 C878 1.350 . S
C873 N881 1.427 . S
C874 H865 0.930 . S
C874 C872 1.378 . S
C874 C875 1.367 . S
C875 C874 1.367 . S
C875 C877 1.433 . S
C876 C872 1.350 . S
C876 C873 1.463 . S
C876 N880 1.427 . S
C877 H867 0.929 . S
C877 C875 1.433 . S
C877 N880 1.384 . S
C878 H869 0.929 . S
C878 C870 1.378 . S
C878 C873 1.350 . S
C879 H866 0.929 . S
C879 C871 1.433 . S
C879 N881 1.384 . S
N880 C876 1.427 . S
N880 C877 1.384 . S
N881 C873 1.427 . S
N881 C879 1.384 . S
H882 C888 0.930 . S
H883 C892 0.930 . S
H884 C897 0.929 . S
H885 C895 0.929 . S
H886 C890 0.929 . S
H887 C896 0.929 . S
C888 H882 0.930 . S
C888 C889 1.367 . S
C888 C896 1.378 . S
C889 C888 1.367 . S
C889 C897 1.433 . S
C890 H886 0.929 . S
C890 C892 1.378 . S
C890 C894 1.350 . S
C891 C894 1.463 . S
C891 C896 1.350 . S
C891 N899 1.427 . S
C892 H883 0.930 . S
C892 C890 1.378 . S
C892 C893 1.367 . S
C893 C892 1.367 . S
C893 C895 1.433 . S
C894 C890 1.350 . S
C894 C891 1.463 . S
C894 N898 1.427 . S
C895 H885 0.929 . S
C895 C893 1.433 . S
C895 N898 1.384 . S
C896 H887 0.929 . S
C896 C888 1.378 . S
C896 C891 1.350 . S
C897 H884 0.929 . S
C897 C889 1.433 . S
C897 N899 1.384 . S
N898 C894 1.427 . S
N898 C895 1.384 . S
N899 C891 1.427 . S
N899 C897 1.384 . S
H900 C906 0.930 . S
H901 C910 0.930 . S
H902 C915 0.929 . S
H903 C913 0.929 . S
H904 C908 0.929 . S
H905 C914 0.929 . S
C906 H900 0.930 . S
C906 C907 1.367 . S
C906 C914 1.378 . S
C907 C906 1.367 . S
C907 C915 1.433 . S
C908 H904 0.929 . S
C908 C910 1.378 . S
C908 C912 1.350 . S
C909 C912 1.463 . S
C909 C914 1.350 . S
C909 N917 1.427 . S
C910 H901 0.930 . S
C910 C908 1.378 . S
C910 C911 1.367 . S
C911 C910 1.367 . S
C911 C913 1.433 . S
C912 C908 1.350 . S
C912 C909 1.463 . S
C912 N916 1.427 . S
C913 H903 0.929 . S
C913 C911 1.433 . S
C913 N916 1.384 . S
C914 H905 0.929 . S
C914 C906 1.378 . S
C914 C909 1.350 . S
C915 H902 0.929 . S
C915 C907 1.433 . S
C915 N917 1.384 . S
N916 C912 1.427 . S
N916 C913 1.384 . S
N917 C909 1.427 . S
N917 C915 1.384 . S
H918 C924 0.930 . S
H919 C928 0.930 . S
H920 C933 0.926 1_455 S
H921 C931 0.926 1_655 S
H922 C926 0.929 . S
H923 C932 0.929 . S
C924 H918 0.930 . S
C924 C925 1.367 . S
C924 C932 1.378 . S
C925 C924 1.367 . S
C925 C933 1.433 . S
C926 H922 0.929 . S
C926 C928 1.378 . S
C926 C930 1.350 . S
C927 C930 1.463 1_655 S
C927 C932 1.350 . S
C927 N935 1.427 1_655 S
C928 H919 0.930 . S
C928 C926 1.378 . S
C928 C929 1.367 . S
C929 C928 1.367 . S
C929 C931 1.433 . S
C930 C926 1.350 . S
C930 C927 1.463 1_455 S
C930 N934 1.427 1_455 S
C931 H921 0.926 1_455 S
C931 C929 1.433 . S
C931 N934 1.384 1_455 S
C932 H923 0.929 . S
C932 C924 1.378 . S
C932 C927 1.350 . S
C933 H920 0.926 1_655 S
C933 C925 1.433 . S
C933 N935 1.384 1_655 S
N934 C930 1.427 1_655 S
N934 C931 1.384 1_655 S
N935 C927 1.427 1_455 S
N935 C933 1.384 1_455 S
H936 C942 0.930 . S
H937 C946 0.930 . S
H938 C951 0.929 . S
H939 C949 0.929 . S
H940 C944 0.929 . S
H941 C950 0.929 . S
C942 H936 0.930 . S
C942 C943 1.367 . S
C942 C950 1.378 . S
C943 C942 1.367 . S
C943 C951 1.433 . S
C944 H940 0.929 . S
C944 C946 1.378 . S
C944 C948 1.350 . S
C945 C948 1.463 . S
C945 C950 1.350 . S
C945 N953 1.427 . S
C946 H937 0.930 . S
C946 C944 1.378 . S
C946 C947 1.367 . S
C947 C946 1.367 . S
C947 C949 1.433 . S
C948 C944 1.350 . S
C948 C945 1.463 . S
C948 N952 1.427 . S
C949 H939 0.929 . S
C949 C947 1.433 . S
C949 N952 1.384 . S
C950 H941 0.929 . S
C950 C942 1.378 . S
C950 C945 1.350 . S
C951 H938 0.929 . S
C951 C943 1.433 . S
C951 N953 1.384 . S
N952 C948 1.427 . S
N952 C949 1.384 . S
N953 C945 1.427 . S
N953 C951 1.384 . S
H954 C960 0.930 . S
H955 C964 0.930 . S
H956 C969 0.929 . S
H957 C967 0.929 . S
H958 C962 0.929 1_565 S
H959 C968 0.929 1_545 S
C960 H954 0.930 . S
C960 C961 1.367 . S
C960 C968 1.378 . S
C961 C960 1.367 . S
C961 C969 1.433 . S
C962 H958 0.929 1_545 S
C962 C964 1.378 . S
C962 C966 1.350 . S
C963 C966 1.463 1_565 S
C963 C968 1.350 . S
C963 N971 1.427 . S
C964 H955 0.930 . S
C964 C962 1.378 . S
C964 C965 1.367 . S
C965 C964 1.367 . S
C965 C967 1.433 . S
C966 C962 1.350 . S
C966 C963 1.463 1_545 S
C966 N970 1.427 . S
C967 H957 0.929 . S
C967 C965 1.433 . S
C967 N970 1.384 . S
C968 H959 0.929 1_565 S
C968 C960 1.378 . S
C968 C963 1.350 . S
C969 H956 0.929 . S
C969 C961 1.433 . S
C969 N971 1.384 . S
N970 C966 1.427 . S
N970 C967 1.384 . S
N971 C963 1.427 . S
N971 C969 1.384 . S
H972 C978 0.930 . S
H973 C982 0.930 . S
H974 C987 0.929 . S
H975 C985 0.929 . S
H976 C980 0.929 . S
H977 C986 0.929 . S
C978 H972 0.930 . S
C978 C979 1.367 . S
C978 C986 1.378 . S
C979 C978 1.367 . S
C979 C987 1.433 1_554 S
C980 H976 0.929 . S
C980 C982 1.378 . S
C980 C984 1.350 . S
C981 C984 1.463 1_554 S
C981 C986 1.350 . S
C981 N989 1.427 1_554 S
C982 H973 0.930 . S
C982 C980 1.378 . S
C982 C983 1.367 . S
C983 C982 1.367 . S
C983 C985 1.433 1_556 S
C984 C980 1.350 . S
C984 C981 1.463 1_556 S
C984 N988 1.427 1_556 S
C985 H975 0.929 . S
C985 C983 1.433 1_554 S
C985 N988 1.384 . S
C986 H977 0.929 . S
C986 C978 1.378 . S
C986 C981 1.350 . S
C987 H974 0.929 . S
C987 C979 1.433 1_556 S
C987 N989 1.384 . S
N988 C984 1.427 1_554 S
N988 C985 1.384 . S
N989 C981 1.427 1_556 S
N989 C987 1.384 . S
H990 C996 0.930 . S
H991 C1000 0.930 . S
H992 C1005 0.929 1_554 S
H993 C1003 0.929 1_556 S
H994 C998 0.929 . S
H995 C1004 0.929 . S
C996 H990 0.930 . S
C996 C997 1.367 . S
C996 C1004 1.378 . S
C997 C996 1.367 . S
C997 C1005 1.433 . S
C998 H994 0.929 . S
C998 C1000 1.378 . S
C998 C1002 1.350 . S
C999 C1002 1.463 1_546 S
C999 C1004 1.350 . S
C999 N1007 1.427 1_556 S
C1000 H991 0.930 . S
C1000 C998 1.378 . S
C1000 C1001 1.367 . S
C1001 C1000 1.367 . S
C1001 C1003 1.433 . S
C1002 C998 1.350 . S
C1002 C999 1.463 1_564 S
C1002 N1006 1.427 1_554 S
C1003 H993 0.929 1_554 S
C1003 C1001 1.433 . S
C1003 N1006 1.384 1_554 S
C1004 H995 0.929 . S
C1004 C996 1.378 . S
C1004 C999 1.350 . S
C1005 H992 0.929 1_556 S
C1005 C997 1.433 . S
C1005 N1007 1.384 1_556 S
N1006 C1002 1.427 1_556 S
N1006 C1003 1.384 1_556 S
N1007 C999 1.427 1_554 S
N1007 C1005 1.384 1_554 S
H1008 C1014 0.930 . S
H1009 C1018 0.930 . S
H1010 C1023 0.929 . S
H1011 C1021 0.929 . S
H1012 C1016 0.929 . S
H1013 C1022 0.929 . S
C1014 H1008 0.930 . S
C1014 C1015 1.367 . S
C1014 C1022 1.378 . S
C1015 C1014 1.367 . S
C1015 C1023 1.433 1_556 S
C1016 H1012 0.929 . S
C1016 C1018 1.378 . S
C1016 C1020 1.350 . S
C1017 C1020 1.463 1_656 S
C1017 C1022 1.350 . S
C1017 N1025 1.427 1_556 S
C1018 H1009 0.930 . S
C1018 C1016 1.378 . S
C1018 C1019 1.367 . S
C1019 C1018 1.367 . S
C1019 C1021 1.433 1_554 S
C1020 C1016 1.350 . S
C1020 C1017 1.463 1_454 S
C1020 N1024 1.427 1_554 S
C1021 H1011 0.929 . S
C1021 C1019 1.433 1_556 S
C1021 N1024 1.384 . S
C1022 H1013 0.929 . S
C1022 C1014 1.378 . S
C1022 C1017 1.350 . S
C1023 H1010 0.929 . S
C1023 C1015 1.433 1_554 S
C1023 N1025 1.384 . S
N1024 C1020 1.427 1_556 S
N1024 C1021 1.384 . S
N1025 C1017 1.427 1_554 S
N1025 C1023 1.384 . S
H1026 C1032 0.930 . S
H1027 C1036 0.930 . S
H1028 C1041 0.929 . S
H1029 C1039 0.929 . S
H1030 C1034 0.929 . S
H1031 C1040 0.929 . S
C1032 H1026 0.930 . S
C1032 C1033 1.367 . S
C1032 C1040 1.378 . S
C1033 C1032 1.367 . S
C1033 C1041 1.433 . S
C1034 H1030 0.929 . S
C1034 C1036 1.378 . S
C1034 C1038 1.350 . S
C1035 C1038 1.463 1_556 S
C1035 C1040 1.350 . S
C1035 N1043 1.427 1_556 S
C1036 H1027 0.930 . S
C1036 C1034 1.378 . S
C1036 C1037 1.367 . S
C1037 C1036 1.367 . S
C1037 C1039 1.433 . S
C1038 C1034 1.350 . S
C1038 C1035 1.463 1_554 S
C1038 N1042 1.427 1_554 S
C1039 H1029 0.929 . S
C1039 C1037 1.433 . S
C1039 N1042 1.384 1_554 S
C1040 H1031 0.929 . S
C1040 C1032 1.378 . S
C1040 C1035 1.350 . S
C1041 H1028 0.929 . S
C1041 C1033 1.433 . S
C1041 N1043 1.384 1_556 S
N1042 C1038 1.427 1_556 S
N1042 C1039 1.384 1_556 S
N1043 C1035 1.427 1_554 S
N1043 C1041 1.384 1_554 S
H1044 C1050 0.930 . S
H1045 C1054 0.930 . S
H1046 C1059 0.929 . S
H1047 C1057 0.929 . S
H1048 C1052 0.929 . S
H1049 C1058 0.929 . S
C1050 H1044 0.930 . S
C1050 C1051 1.367 . S
C1050 C1058 1.378 . S
C1051 C1050 1.367 . S
C1051 C1059 1.433 . S
C1052 H1048 0.929 . S
C1052 C1054 1.378 . S
C1052 C1056 1.350 . S
C1053 C1056 1.463 1_564 S
C1053 C1058 1.350 . S
C1053 N1061 1.427 . S
C1054 H1045 0.930 . S
C1054 C1052 1.378 . S
C1054 C1055 1.367 . S
C1055 C1054 1.367 . S
C1055 C1057 1.433 . S
C1056 C1052 1.350 . S
C1056 C1053 1.463 1_546 S
C1056 N1060 1.427 . S
C1057 H1047 0.929 . S
C1057 C1055 1.433 . S
C1057 N1060 1.384 . S
C1058 H1049 0.929 . S
C1058 C1050 1.378 . S
C1058 C1053 1.350 . S
C1059 H1046 0.929 . S
C1059 C1051 1.433 . S
C1059 N1061 1.384 . S
N1060 C1056 1.427 . S
N1060 C1057 1.384 . S
N1061 C1053 1.427 . S
N1061 C1059 1.384 . S
H1062 C1068 0.930 . S
H1063 C1072 0.930 . S
H1064 C1077 0.929 . S
H1065 C1075 0.929 . S
H1066 C1070 0.929 . S
H1067 C1076 0.929 . S
C1068 H1062 0.930 . S
C1068 C1069 1.367 1_554 S
C1068 C1076 1.378 . S
C1069 C1068 1.367 1_556 S
C1069 C1077 1.433 . S
C1070 H1066 0.929 . S
C1070 C1072 1.378 . S
C1070 C1074 1.350 1_556 S
C1071 C1074 1.463 1_656 S
C1071 C1076 1.350 1_556 S
C1071 N1079 1.427 . S
C1072 H1063 0.930 . S
C1072 C1070 1.378 . S
C1072 C1073 1.367 1_556 S
C1073 C1072 1.367 1_554 S
C1073 C1075 1.433 . S
C1074 C1070 1.350 1_554 S
C1074 C1071 1.463 1_454 S
C1074 N1078 1.427 . S
C1075 H1065 0.929 . S
C1075 C1073 1.433 . S
C1075 N1078 1.384 . S
C1076 H1067 0.929 . S
C1076 C1068 1.378 . S
C1076 C1071 1.350 1_554 S
C1077 H1064 0.929 . S
C1077 C1069 1.433 . S
C1077 N1079 1.384 . S
N1078 C1074 1.427 . S
N1078 C1075 1.384 . S
N1079 C1071 1.427 . S
N1079 C1077 1.384 . S
H1080 C1086 0.930 . S
H1081 C1090 0.930 . S
H1082 C1095 0.929 . S
H1083 C1093 0.929 . S
H1084 C1088 0.929 . S
H1085 C1094 0.929 . S
C1086 H1080 0.930 . S
C1086 C1087 1.367 . S
C1086 C1094 1.378 . S
C1087 C1086 1.367 . S
C1087 C1095 1.433 . S
C1088 H1084 0.929 . S
C1088 C1090 1.378 . S
C1088 C1092 1.350 . S
C1089 C1092 1.463 . S
C1089 C1094 1.350 . S
C1089 N1097 1.427 . S
C1090 H1081 0.930 . S
C1090 C1088 1.378 . S
C1090 C1091 1.367 . S
C1091 C1090 1.367 . S
C1091 C1093 1.433 . S
C1092 C1088 1.350 . S
C1092 C1089 1.463 . S
C1092 N1096 1.427 . S
C1093 H1083 0.929 . S
C1093 C1091 1.433 . S
C1093 N1096 1.384 . S
C1094 H1085 0.929 . S
C1094 C1086 1.378 . S
C1094 C1089 1.350 . S
C1095 H1082 0.929 . S
C1095 C1087 1.433 . S
C1095 N1097 1.384 . S
N1096 C1092 1.427 . S
N1096 C1093 1.384 . S
N1097 C1089 1.427 . S
N1097 C1095 1.384 . S
H1098 C1104 0.930 . S
H1099 C1108 0.930 . S
H1100 C1113 0.929 . S
H1101 C1111 0.929 . S
H1102 C1106 0.929 . S
H1103 C1112 0.929 . S
C1104 H1098 0.930 . S
C1104 C1105 1.367 . S
C1104 C1112 1.378 . S
C1105 C1104 1.367 . S
C1105 C1113 1.433 . S
C1106 H1102 0.929 . S
C1106 C1108 1.378 . S
C1106 C1110 1.350 . S
C1107 C1110 1.463 . S
C1107 C1112 1.350 . S
C1107 N1115 1.427 . S
C1108 H1099 0.930 . S
C1108 C1106 1.378 . S
C1108 C1109 1.367 . S
C1109 C1108 1.367 . S
C1109 C1111 1.433 . S
C1110 C1106 1.350 . S
C1110 C1107 1.463 . S
C1110 N1114 1.427 . S
C1111 H1101 0.929 . S
C1111 C1109 1.433 . S
C1111 N1114 1.384 . S
C1112 H1103 0.929 . S
C1112 C1104 1.378 . S
C1112 C1107 1.350 . S
C1113 H1100 0.929 . S
C1113 C1105 1.433 . S
C1113 N1115 1.384 . S
N1114 C1110 1.427 . S
N1114 C1111 1.384 . S
N1115 C1107 1.427 . S
N1115 C1113 1.384 . S
H1116 C1122 0.930 . S
H1117 C1126 0.930 . S
H1118 C1131 0.929 . S
H1119 C1129 0.929 . S
H1120 C1124 0.929 . S
H1121 C1130 0.929 . S
C1122 H1116 0.930 . S
C1122 C1123 1.367 . S
C1122 C1130 1.378 . S
C1123 C1122 1.367 . S
C1123 C1131 1.433 . S
C1124 H1120 0.929 . S
C1124 C1126 1.378 . S
C1124 C1128 1.350 . S
C1125 C1128 1.463 . S
C1125 C1130 1.350 . S
C1125 N1133 1.427 . S
C1126 H1117 0.930 . S
C1126 C1124 1.378 . S
C1126 C1127 1.367 . S
C1127 C1126 1.367 . S
C1127 C1129 1.433 . S
C1128 C1124 1.350 . S
C1128 C1125 1.463 . S
C1128 N1132 1.427 . S
C1129 H1119 0.929 . S
C1129 C1127 1.433 . S
C1129 N1132 1.384 . S
C1130 H1121 0.929 . S
C1130 C1122 1.378 . S
C1130 C1125 1.350 . S
C1131 H1118 0.929 . S
C1131 C1123 1.433 . S
C1131 N1133 1.384 . S
N1132 C1128 1.427 . S
N1132 C1129 1.384 . S
N1133 C1125 1.427 . S
N1133 C1131 1.384 . S
H1134 C1140 0.930 . S
H1135 C1144 0.930 . S
H1136 C1149 0.929 . S
H1137 C1147 0.929 . S
H1138 C1142 0.929 . S
H1139 C1148 0.929 . S
C1140 H1134 0.930 . S
C1140 C1141 1.367 . S
C1140 C1148 1.378 . S
C1141 C1140 1.367 . S
C1141 C1149 1.433 . S
C1142 H1138 0.929 . S
C1142 C1144 1.378 . S
C1142 C1146 1.350 . S
C1143 C1146 1.463 . S
C1143 C1148 1.350 . S
C1143 N1151 1.427 . S
C1144 H1135 0.930 . S
C1144 C1142 1.378 . S
C1144 C1145 1.367 . S
C1145 C1144 1.367 . S
C1145 C1147 1.433 . S
C1146 C1142 1.350 . S
C1146 C1143 1.463 . S
C1146 N1150 1.427 . S
C1147 H1137 0.929 . S
C1147 C1145 1.433 . S
C1147 N1150 1.384 . S
C1148 H1139 0.929 . S
C1148 C1140 1.378 . S
C1148 C1143 1.350 . S
C1149 H1136 0.929 . S
C1149 C1141 1.433 . S
C1149 N1151 1.384 . S
N1150 C1146 1.427 . S
N1150 C1147 1.384 . S
N1151 C1143 1.427 . S
N1151 C1149 1.384 . S
H1152 C1158 0.930 . S
H1153 C1162 0.930 . S
H1154 C1167 0.929 . S
H1155 C1165 0.929 . S
H1156 C1160 0.929 . S
H1157 C1166 0.929 . S
C1158 H1152 0.930 . S
C1158 C1159 1.367 . S
C1158 C1166 1.378 . S
C1159 C1158 1.367 . S
C1159 C1167 1.433 . S
C1160 H1156 0.929 . S
C1160 C1162 1.378 . S
C1160 C1164 1.350 . S
C1161 C1164 1.463 . S
C1161 C1166 1.350 . S
C1161 N1169 1.427 . S
C1162 H1153 0.930 . S
C1162 C1160 1.378 . S
C1162 C1163 1.367 . S
C1163 C1162 1.367 . S
C1163 C1165 1.433 . S
C1164 C1160 1.350 . S
C1164 C1161 1.463 . S
C1164 N1168 1.427 . S
C1165 H1155 0.929 . S
C1165 C1163 1.433 . S
C1165 N1168 1.384 . S
C1166 H1157 0.929 . S
C1166 C1158 1.378 . S
C1166 C1161 1.350 . S
C1167 H1154 0.929 . S
C1167 C1159 1.433 . S
C1167 N1169 1.384 . S
N1168 C1164 1.427 . S
N1168 C1165 1.384 . S
N1169 C1161 1.427 . S
N1169 C1167 1.384 . S
H1170 C1176 0.930 . S
H1171 C1180 0.930 . S
H1172 C1185 0.929 . S
H1173 C1183 0.929 . S
H1174 C1178 0.929 . S
H1175 C1184 0.929 . S
C1176 H1170 0.930 . S
C1176 C1177 1.367 . S
C1176 C1184 1.378 . S
C1177 C1176 1.367 . S
C1177 C1185 1.433 . S
C1178 H1174 0.929 . S
C1178 C1180 1.378 . S
C1178 C1182 1.350 . S
C1179 C1182 1.463 . S
C1179 C1184 1.350 . S
C1179 N1187 1.427 . S
C1180 H1171 0.930 . S
C1180 C1178 1.378 . S
C1180 C1181 1.367 . S
C1181 C1180 1.367 . S
C1181 C1183 1.433 . S
C1182 C1178 1.350 . S
C1182 C1179 1.463 . S
C1182 N1186 1.427 . S
C1183 H1173 0.929 . S
C1183 C1181 1.433 . S
C1183 N1186 1.384 . S
C1184 H1175 0.929 . S
C1184 C1176 1.378 . S
C1184 C1179 1.350 . S
C1185 H1172 0.929 . S
C1185 C1177 1.433 . S
C1185 N1187 1.384 . S
N1186 C1182 1.427 . S
N1186 C1183 1.384 . S
N1187 C1179 1.427 . S
N1187 C1185 1.384 . S
H1188 C1194 0.930 . S
H1189 C1198 0.930 . S
H1190 C1203 0.929 . S
H1191 C1201 0.929 . S
H1192 C1196 0.929 . S
H1193 C1202 0.929 . S
C1194 H1188 0.930 . S
C1194 C1195 1.367 . S
C1194 C1202 1.378 . S
C1195 C1194 1.367 . S
C1195 C1203 1.433 . S
C1196 H1192 0.929 . S
C1196 C1198 1.378 . S
C1196 C1200 1.350 . S
C1197 C1200 1.463 . S
C1197 C1202 1.350 . S
C1197 N1205 1.427 . S
C1198 H1189 0.930 . S
C1198 C1196 1.378 . S
C1198 C1199 1.367 . S
C1199 C1198 1.367 . S
C1199 C1201 1.433 . S
C1200 C1196 1.350 . S
C1200 C1197 1.463 . S
C1200 N1204 1.427 . S
C1201 H1191 0.929 . S
C1201 C1199 1.433 . S
C1201 N1204 1.384 . S
C1202 H1193 0.929 . S
C1202 C1194 1.378 . S
C1202 C1197 1.350 . S
C1203 H1190 0.929 . S
C1203 C1195 1.433 . S
C1203 N1205 1.384 . S
N1204 C1200 1.427 . S
N1204 C1201 1.384 . S
N1205 C1197 1.427 . S
N1205 C1203 1.384 . S
H1206 C1212 0.930 . S
H1207 C1216 0.930 . S
H1208 C1221 0.929 . S
H1209 C1219 0.929 . S
H1210 C1214 0.929 . S
H1211 C1220 0.929 . S
C1212 H1206 0.930 . S
C1212 C1213 1.367 . S
C1212 C1220 1.378 . S
C1213 C1212 1.367 . S
C1213 C1221 1.433 . S
C1214 H1210 0.929 . S
C1214 C1216 1.378 . S
C1214 C1218 1.350 . S
C1215 C1218 1.463 . S
C1215 C1220 1.350 . S
C1215 N1223 1.427 . S
C1216 H1207 0.930 . S
C1216 C1214 1.378 . S
C1216 C1217 1.367 . S
C1217 C1216 1.367 . S
C1217 C1219 1.433 . S
C1218 C1214 1.350 . S
C1218 C1215 1.463 . S
C1218 N1222 1.427 . S
C1219 H1209 0.929 . S
C1219 C1217 1.433 . S
C1219 N1222 1.384 . S
C1220 H1211 0.929 . S
C1220 C1212 1.378 . S
C1220 C1215 1.350 . S
C1221 H1208 0.929 . S
C1221 C1213 1.433 . S
C1221 N1223 1.384 . S
N1222 C1218 1.427 . S
N1222 C1219 1.384 . S
N1223 C1215 1.427 . S
N1223 C1221 1.384 . S
H1224 C1230 0.930 . S
H1225 C1234 0.930 . S
H1226 C1239 0.929 . S
H1227 C1237 0.929 . S
H1228 C1232 0.929 . S
H1229 C1238 0.929 . S
C1230 H1224 0.930 . S
C1230 C1231 1.367 . S
C1230 C1238 1.378 . S
C1231 C1230 1.367 . S
C1231 C1239 1.433 . S
C1232 H1228 0.929 . S
C1232 C1234 1.378 . S
C1232 C1236 1.350 . S
C1233 C1236 1.463 . S
C1233 C1238 1.350 . S
C1233 N1241 1.427 . S
C1234 H1225 0.930 . S
C1234 C1232 1.378 . S
C1234 C1235 1.367 . S
C1235 C1234 1.367 . S
C1235 C1237 1.433 . S
C1236 C1232 1.350 . S
C1236 C1233 1.463 . S
C1236 N1240 1.427 . S
C1237 H1227 0.929 . S
C1237 C1235 1.433 . S
C1237 N1240 1.384 . S
C1238 H1229 0.929 . S
C1238 C1230 1.378 . S
C1238 C1233 1.350 . S
C1239 H1226 0.929 . S
C1239 C1231 1.433 . S
C1239 N1241 1.384 . S
N1240 C1236 1.427 . S
N1240 C1237 1.384 . S
N1241 C1233 1.427 . S
N1241 C1239 1.384 . S
H1242 C1248 0.930 . S
H1243 C1252 0.930 . S
H1244 C1257 0.929 . S
H1245 C1255 0.929 . S
H1246 C1250 0.929 . S
H1247 C1256 0.929 . S
C1248 H1242 0.930 . S
C1248 C1249 1.367 . S
C1248 C1256 1.378 . S
C1249 C1248 1.367 . S
C1249 C1257 1.433 . S
C1250 H1246 0.929 . S
C1250 C1252 1.378 . S
C1250 C1254 1.350 . S
C1251 C1254 1.463 . S
C1251 C1256 1.350 . S
C1251 N1259 1.427 . S
C1252 H1243 0.930 . S
C1252 C1250 1.378 . S
C1252 C1253 1.367 . S
C1253 C1252 1.367 . S
C1253 C1255 1.433 . S
C1254 C1250 1.350 . S
C1254 C1251 1.463 . S
C1254 N1258 1.427 . S
C1255 H1245 0.929 . S
C1255 C1253 1.433 . S
C1255 N1258 1.384 . S
C1256 H1247 0.929 . S
C1256 C1248 1.378 . S
C1256 C1251 1.350 . S
C1257 H1244 0.929 . S
C1257 C1249 1.433 . S
C1257 N1259 1.384 . S
N1258 C1254 1.427 . S
N1258 C1255 1.384 . S
N1259 C1251 1.427 . S
N1259 C1257 1.384 . S
H1260 C1266 0.930 . S
H1261 C1270 0.930 . S
H1262 C1275 0.929 . S
H1263 C1273 0.929 . S
H1264 C1268 0.929 . S
H1265 C1274 0.929 . S
C1266 H1260 0.930 . S
C1266 C1267 1.367 . S
C1266 C1274 1.378 . S
C1267 C1266 1.367 . S
C1267 C1275 1.433 . S
C1268 H1264 0.929 . S
C1268 C1270 1.378 . S
C1268 C1272 1.350 . S
C1269 C1272 1.463 . S
C1269 C1274 1.350 . S
C1269 N1277 1.427 . S
C1270 H1261 0.930 . S
C1270 C1268 1.378 . S
C1270 C1271 1.367 . S
C1271 C1270 1.367 . S
C1271 C1273 1.433 . S
C1272 C1268 1.350 . S
C1272 C1269 1.463 . S
C1272 N1276 1.427 . S
C1273 H1263 0.929 . S
C1273 C1271 1.433 . S
C1273 N1276 1.384 . S
C1274 H1265 0.929 . S
C1274 C1266 1.378 . S
C1274 C1269 1.350 . S
C1275 H1262 0.929 . S
C1275 C1267 1.433 . S
C1275 N1277 1.384 . S
N1276 C1272 1.427 . S
N1276 C1273 1.384 . S
N1277 C1269 1.427 . S
N1277 C1275 1.384 . S
H1278 C1284 0.930 . S
H1279 C1288 0.930 . S
H1280 C1293 0.929 . S
H1281 C1291 0.929 . S
H1282 C1286 0.929 . S
H1283 C1292 0.929 . S
C1284 H1278 0.930 . S
C1284 C1285 1.367 . S
C1284 C1292 1.378 . S
C1285 C1284 1.367 . S
C1285 C1293 1.433 . S
C1286 H1282 0.929 . S
C1286 C1288 1.378 . S
C1286 C1290 1.350 . S
C1287 C1290 1.463 . S
C1287 C1292 1.350 . S
C1287 N1295 1.427 . S
C1288 H1279 0.930 . S
C1288 C1286 1.378 . S
C1288 C1289 1.367 . S
C1289 C1288 1.367 . S
C1289 C1291 1.433 . S
C1290 C1286 1.350 . S
C1290 C1287 1.463 . S
C1290 N1294 1.427 . S
C1291 H1281 0.929 . S
C1291 C1289 1.433 . S
C1291 N1294 1.384 . S
C1292 H1283 0.929 . S
C1292 C1284 1.378 . S
C1292 C1287 1.350 . S
C1293 H1280 0.929 . S
C1293 C1285 1.433 . S
C1293 N1295 1.384 . S
N1294 C1290 1.427 . S
N1294 C1291 1.384 . S
N1295 C1287 1.427 . S
N1295 C1293 1.384 . S
C655 C626 1.745 . S
C659 C14 1.736 . S
C673 C554 1.741 . S
C677 C50 1.736 . S
C691 C590 1.748 . S
C695 C86 1.739 . S
C709 C266 1.748 . S
C713 C122 1.738 . S
C727 C302 1.737 . S
C731 C158 1.740 . S
C745 C194 1.736 . S
C749 C230 1.741 . S
C763 C338 1.742 . S
C767 C482 1.736 . S
C781 C374 1.737 . S
C785 C518 1.747 . S
C799 C410 1.748 . S
C803 C446 1.741 . S
C817 C2 0.591 . S
C821 C614 0.591 . S
C835 C542 0.582 . S
C839 C38 0.580 . S
C853 C74 0.579 . S
C857 C578 0.577 . S
C871 C254 0.581 . S
C875 C110 0.580 . S
C889 C146 0.586 . S
C893 C290 0.587 . S
C907 C182 0.573 . S
C911 C218 0.574 . S
C925 C326 0.569 . S
C929 C470 0.570 . S
C943 C506 0.569 . S
C947 C362 0.568 . S
C961 C434 0.586 . S
C965 C398 0.587 . S
C979 C3 1.666 . S
C983 C111 1.664 . S
C997 C147 1.663 . S
C1001 C39 1.666 . S
C1015 C183 1.665 . S
C1019 C75 1.665 . S
C1033 C184 1.671 . S
C1037 C40 1.674 . S
C1051 C76 1.670 . S
C1055 C112 1.673 . S
C1069 C148 1.668 . S
C1073 C4 1.668 . S
C1087 C219 1.663 . S
C1091 C327 1.662 . S
C1105 C363 1.665 . S
C1109 C255 1.666 . S
C1123 C399 1.662 . S
C1127 C291 1.665 . S
C1141 C400 1.668 . S
C1145 C256 1.668 . S
C1159 C292 1.674 . S
C1163 C328 1.675 . S
C1177 C364 1.670 . S
C1181 C220 1.668 . S
C1195 C543 1.666 . S
C1199 C435 1.664 . S
C1213 C579 1.665 . S
C1217 C471 1.665 . S
C1231 C507 1.665 . S
C1235 C615 1.662 . S
C1249 C616 1.675 . S
C1253 C472 1.673 . S
C1267 C508 1.670 . S
C1271 C544 1.668 . S
C1285 C580 1.668 . S
C1289 C436 1.668 . S
