# Generated by pormake.
# Topology gis, (4)-cn, num edge types: 1
# Building blocks:
#     Node 0, Type 0, BuildingBlock: CEKHIL_clean_sbu_0, # of connection points: 4
#     Node 1, Type 0, BuildingBlock: CEKHIL_clean_sbu_0, # of connection points: 4
#     Node 2, Type 0, BuildingBlock: CEKHIL_clean_sbu_0, # of connection points: 4
#     Node 3, Type 0, BuildingBlock: CEKHIL_clean_sbu_0, # of connection points: 4
#     Node 4, Type 0, BuildingBlock: CEKHIL_clean_sbu_0, # of connection points: 4
#     Node 5, Type 0, BuildingBlock: CEKHIL_clean_sbu_0, # of connection points: 4
#     Node 6, Type 0, BuildingBlock: CEKHIL_clean_sbu_0, # of connection points: 4
#     Node 7, Type 0, BuildingBlock: CEKHIL_clean_sbu_0, # of connection points: 4
#     Node 8, Type 0, BuildingBlock: CEKHIL_clean_sbu_0, # of connection points: 4
#     Node 9, Type 0, BuildingBlock: CEKHIL_clean_sbu_0, # of connection points: 4
#     Node 10, Type 0, BuildingBlock: CEKHIL_clean_sbu_0, # of connection points: 4
#     Node 11, Type 0, BuildingBlock: CEKHIL_clean_sbu_0, # of connection points: 4
#     Node 12, Type 0, BuildingBlock: CEKHIL_clean_sbu_0, # of connection points: 4
#     Node 13, Type 0, BuildingBlock: CEKHIL_clean_sbu_0, # of connection points: 4
#     Node 14, Type 0, BuildingBlock: CEKHIL_clean_sbu_0, # of connection points: 4
#     Node 15, Type 0, BuildingBlock: CEKHIL_clean_sbu_0, # of connection points: 4
#     Edge 16, Type (0, 0), BuildingBlock: ZUJKAS_clean_linker_0, # of connection points: 2
#     Edge 17, Type (0, 0), BuildingBlock: ZUJKAS_clean_linker_0, # of connection points: 2
#     Edge 18, Type (0, 0), BuildingBlock: ZUJKAS_clean_linker_0, # of connection points: 2
#     Edge 19, Type (0, 0), BuildingBlock: ZUJKAS_clean_linker_0, # of connection points: 2
#     Edge 20, Type (0, 0), BuildingBlock: ZUJKAS_clean_linker_0, # of connection points: 2
#     Edge 21, Type (0, 0), BuildingBlock: ZUJKAS_clean_linker_0, # of connection points: 2
#     Edge 22, Type (0, 0), BuildingBlock: ZUJKAS_clean_linker_0, # of connection points: 2
#     Edge 23, Type (0, 0), BuildingBlock: ZUJKAS_clean_linker_0, # of connection points: 2
#     Edge 24, Type (0, 0), BuildingBlock: ZUJKAS_clean_linker_0, # of connection points: 2
#     Edge 25, Type (0, 0), BuildingBlock: ZUJKAS_clean_linker_0, # of connection points: 2
#     Edge 26, Type (0, 0), BuildingBlock: ZUJKAS_clean_linker_0, # of connection points: 2
#     Edge 27, Type (0, 0), BuildingBlock: ZUJKAS_clean_linker_0, # of connection points: 2
#     Edge 28, Type (0, 0), BuildingBlock: ZUJKAS_clean_linker_0, # of connection points: 2
#     Edge 29, Type (0, 0), BuildingBlock: ZUJKAS_clean_linker_0, # of connection points: 2
#     Edge 30, Type (0, 0), BuildingBlock: ZUJKAS_clean_linker_0, # of connection points: 2
#     Edge 31, Type (0, 0), BuildingBlock: ZUJKAS_clean_linker_0, # of connection points: 2
#     Edge 32, Type (0, 0), BuildingBlock: ZUJKAS_clean_linker_0, # of connection points: 2
#     Edge 33, Type (0, 0), BuildingBlock: ZUJKAS_clean_linker_0, # of connection points: 2
#     Edge 34, Type (0, 0), BuildingBlock: ZUJKAS_clean_linker_0, # of connection points: 2
#     Edge 35, Type (0, 0), BuildingBlock: ZUJKAS_clean_linker_0, # of connection points: 2
#     Edge 36, Type (0, 0), BuildingBlock: ZUJKAS_clean_linker_0, # of connection points: 2
#     Edge 37, Type (0, 0), BuildingBlock: ZUJKAS_clean_linker_0, # of connection points: 2
#     Edge 38, Type (0, 0), BuildingBlock: ZUJKAS_clean_linker_0, # of connection points: 2
#     Edge 39, Type (0, 0), BuildingBlock: ZUJKAS_clean_linker_0, # of connection points: 2
#     Edge 40, Type (0, 0), BuildingBlock: ZUJKAS_clean_linker_0, # of connection points: 2
#     Edge 41, Type (0, 0), BuildingBlock: ZUJKAS_clean_linker_0, # of connection points: 2
#     Edge 42, Type (0, 0), BuildingBlock: ZUJKAS_clean_linker_0, # of connection points: 2
#     Edge 43, Type (0, 0), BuildingBlock: ZUJKAS_clean_linker_0, # of connection points: 2
#     Edge 44, Type (0, 0), BuildingBlock: ZUJKAS_clean_linker_0, # of connection points: 2
#     Edge 45, Type (0, 0), BuildingBlock: ZUJKAS_clean_linker_0, # of connection points: 2
#     Edge 46, Type (0, 0), BuildingBlock: ZUJKAS_clean_linker_0, # of connection points: 2
#     Edge 47, Type (0, 0), BuildingBlock: ZUJKAS_clean_linker_0, # of connection points: 2
# Relax obj value: 0.062
# Max RMSD: 0.132
# Mean RMSD: 0.126
data_MOF--net-gis--node1-CEKHIL_clean_sbu_0--edge1-ZUJKAS_clean_linker_0
_symmetry_space_group_name_H-M    P1
_symmetry_Int_Tables_number       1
_symmetry_cell_setting            triclinic
loop_
_symmetry_equiv_pos_as_xyz
'x, y, z'
_cell_length_a     71.001635
_cell_length_b     66.531461
_cell_length_c     45.481008
_cell_angle_alpha  90.373633
_cell_angle_beta   90.376474
_cell_angle_gamma 90.015302
loop_
_atom_site_label
_atom_site_type_symbol
_atom_site_fract_x
_atom_site_fract_y
_atom_site_fract_z
_atom_type_partial_charge
Co0 Co 0.14101 0.60471 0.13396 0.0
O1 O 0.1679 0.60685 0.13617 0.0
O2 O 0.14905 0.60697 0.17474 0.0
C3 C 0.14028 0.57898 0.10169 0.0
O4 O 0.11257 0.60191 0.13965 0.0
Co5 Co 0.12083 0.61296 0.07443 0.0
O6 O 0.09933 0.60009 0.09461 0.0
C7 C 0.13524 0.64693 0.10972 0.0
C8 C 0.16613 0.60771 0.16449 0.0
C9 C 0.09836 0.59852 0.1225 0.0
O10 O 0.13892 0.63482 0.13094 0.0
O11 O 0.12929 0.64099 0.08448 0.0
O12 O 0.14276 0.5756 0.12955 0.0
O13 O 0.14024 0.59765 0.09412 0.0
Co14 Co 0.63963 0.88883 0.36956 0.0
O15 O 0.66661 0.88841 0.36778 0.0
O16 O 0.64761 0.88564 0.32915 0.0
C17 C 0.63733 0.91559 0.39978 0.0
O18 O 0.61117 0.88954 0.36315 0.0
Co19 Co 0.61985 0.88116 0.42901 0.0
O20 O 0.59755 0.89166 0.40756 0.0
C21 C 0.63543 0.8469 0.39596 0.0
C22 C 0.66473 0.88642 0.33953 0.0
C23 C 0.59666 0.8923 0.37957 0.0
O24 O 0.63915 0.85877 0.37456 0.0
O25 O 0.6289 0.85309 0.42059 0.0
O26 O 0.63971 0.91805 0.37174 0.0
O27 O 0.63842 0.89726 0.40892 0.0
Co28 Co 0.36175 0.39139 0.63605 0.0
O29 O 0.33477 0.3909 0.63698 0.0
O30 O 0.35321 0.38815 0.67618 0.0
C31 C 0.36423 0.4181 0.60628 0.0
O32 O 0.39022 0.39222 0.64318 0.0
Co33 Co 0.38218 0.38403 0.57671 0.0
O34 O 0.40424 0.39437 0.59907 0.0
C35 C 0.36531 0.34987 0.60791 0.0
C36 C 0.33623 0.38884 0.66522 0.0
C37 C 0.40488 0.39504 0.6271 0.0
O38 O 0.36218 0.36132 0.63025 0.0
O39 O 0.37184 0.3564 0.58359 0.0
O40 O 0.36162 0.42068 0.6343 0.0
O41 O 0.36336 0.39974 0.59701 0.0
Co42 Co 0.86129 0.10076 0.8544 0.0
O43 O 0.83432 0.10052 0.853 0.0
O44 O 0.85259 0.1037 0.81406 0.0
C45 C 0.86436 0.07424 0.8845 0.0
O46 O 0.8898 0.10094 0.84806 0.0
Co47 Co 0.88088 0.10898 0.91485 0.0
O48 O 0.90395 0.10232 0.89257 0.0
C49 C 0.86305 0.14227 0.88282 0.0
C50 C 0.83565 0.10272 0.82481 0.0
C51 C 0.90463 0.10079 0.86462 0.0
O52 O 0.86095 0.13083 0.86012 0.0
O53 O 0.86908 0.13587 0.90764 0.0
O54 O 0.86191 0.07141 0.85642 0.0
O55 O 0.86299 0.0926 0.89344 0.0
Co56 Co 0.13883 0.39257 0.85929 0.0
O57 O 0.16573 0.38996 0.85991 0.0
O58 O 0.14815 0.3894 0.81953 0.0
C59 C 0.13762 0.41886 0.89058 0.0
O60 O 0.11069 0.39567 0.85051 0.0
Co61 Co 0.11623 0.38622 0.91682 0.0
O62 O 0.0961 0.39976 0.89393 0.0
C63 C 0.13162 0.35116 0.88498 0.0
C64 C 0.16485 0.38858 0.83149 0.0
C65 C 0.09613 0.40032 0.86591 0.0
O66 O 0.13622 0.36255 0.86342 0.0
O67 O 0.12476 0.35793 0.90907 0.0
O68 O 0.14098 0.42175 0.86288 0.0
O69 O 0.13683 0.40032 0.89866 0.0
Co70 Co 0.85787 0.89704 0.13577 0.0
O71 O 0.83097 0.89421 0.13558 0.0
O72 O 0.84868 0.89654 0.17574 0.0
C73 C 0.85911 0.92092 0.10113 0.0
O74 O 0.88594 0.90075 0.14425 0.0
Co75 Co 0.88086 0.88686 0.07963 0.0
O76 O 0.90116 0.90141 0.10104 0.0
C77 C 0.86615 0.85407 0.11645 0.0
C78 C 0.83197 0.89465 0.16406 0.0
C79 C 0.90082 0.90386 0.12885 0.0
O80 O 0.86071 0.86696 0.13579 0.0
O81 O 0.87331 0.85905 0.09175 0.0
O82 O 0.85561 0.92579 0.12828 0.0
O83 O 0.85998 0.90191 0.09556 0.0
Co84 Co 0.36242 0.60269 0.36627 0.0
O85 O 0.3354 0.60353 0.36595 0.0
O86 O 0.35314 0.60379 0.32611 0.0
C87 C 0.36522 0.57782 0.3992 0.0
O88 O 0.39071 0.60109 0.35843 0.0
Co89 Co 0.38414 0.61341 0.4237 0.0
O90 O 0.40569 0.60155 0.40217 0.0
C91 C 0.36702 0.64573 0.38878 0.0
C92 C 0.33636 0.60403 0.33751 0.0
C93 C 0.40571 0.59916 0.37433 0.0
O94 O 0.36329 0.63291 0.36826 0.0
O95 O 0.37404 0.64075 0.41369 0.0
O96 O 0.36199 0.57366 0.37166 0.0
O97 O 0.36475 0.59666 0.4062 0.0
Co98 Co 0.63622 0.10765 0.63055 0.0
O99 O 0.66322 0.10678 0.63029 0.0
O100 O 0.64598 0.1099 0.67042 0.0
C101 C 0.63179 0.08144 0.59971 0.0
O102 O 0.60796 0.10825 0.6389 0.0
Co103 Co 0.61516 0.11725 0.57225 0.0
O104 O 0.59255 0.11066 0.59559 0.0
C105 C 0.6338 0.14995 0.6049 0.0
C106 C 0.66262 0.10852 0.65866 0.0
C107 C 0.59267 0.10864 0.62346 0.0
O108 O 0.63693 0.1378 0.62629 0.0
O109 O 0.6267 0.14429 0.58027 0.0
O110 O 0.63497 0.07844 0.6275 0.0
O111 O 0.63331 0.09984 0.59117 0.0
Co112 Co 0.86346 0.39759 0.85613 0.0
O113 O 0.83652 0.39604 0.85457 0.0
O114 O 0.85508 0.39464 0.81567 0.0
C115 C 0.86477 0.42381 0.88756 0.0
O116 O 0.89185 0.39951 0.84959 0.0
Co117 Co 0.88438 0.3905 0.91551 0.0
O118 O 0.9059 0.40221 0.89395 0.0
C119 C 0.86812 0.35614 0.88279 0.0
C120 C 0.83808 0.39446 0.82627 0.0
C121 C 0.90641 0.40293 0.86595 0.0
O122 O 0.86489 0.36753 0.86057 0.0
O123 O 0.8744 0.36278 0.90748 0.0
O124 O 0.86225 0.42688 0.85961 0.0
O125 O 0.86475 0.40526 0.89558 0.0
Co126 Co 0.36054 0.09459 0.63788 0.0
O127 O 0.33355 0.09489 0.63867 0.0
O128 O 0.35191 0.09856 0.67788 0.0
C129 C 0.3633 0.06738 0.60856 0.0
O130 O 0.38902 0.09426 0.6451 0.0
Co131 Co 0.38099 0.10099 0.57838 0.0
O132 O 0.4029 0.09073 0.601 0.0
C133 C 0.36406 0.13566 0.60901 0.0
C134 C 0.33495 0.09761 0.66684 0.0
C135 C 0.40361 0.0909 0.62904 0.0
O136 O 0.36078 0.12455 0.63146 0.0
O137 O 0.37073 0.12876 0.58488 0.0
O138 O 0.36064 0.0652 0.63661 0.0
O139 O 0.3623 0.08559 0.59907 0.0
Co140 Co 0.63403 0.59248 0.34708 0.0
O141 O 0.6346 0.56469 0.35832 0.0
O142 O 0.62556 0.58985 0.38719 0.0
C143 C 0.66255 0.593 0.326 0.0
O144 O 0.63267 0.62295 0.34397 0.0
Co145 Co 0.63406 0.60473 0.28203 0.0
O146 O 0.63998 0.63188 0.29794 0.0
C147 C 0.5988 0.59028 0.30777 0.0
C148 C 0.62847 0.57068 0.38372 0.0
C149 C 0.63687 0.63633 0.32476 0.0
O150 O 0.60726 0.5895 0.33282 0.0
O151 O 0.60725 0.59495 0.284 0.0
O152 O 0.66092 0.59488 0.35431 0.0
O153 O 0.6472 0.58891 0.31161 0.0
Co154 Co 0.13032 0.90101 0.15453 0.0
O155 O 0.12924 0.92859 0.14243 0.0
O156 O 0.12258 0.90239 0.11384 0.0
C157 C 0.15853 0.90262 0.17701 0.0
O158 O 0.13073 0.87061 0.15857 0.0
Co159 Co 0.13038 0.88966 0.22024 0.0
O160 O 0.13739 0.86257 0.20537 0.0
C161 C 0.0949 0.90238 0.19239 0.0
C162 C 0.12429 0.92177 0.1167 0.0
C163 C 0.13501 0.85769 0.17845 0.0
O164 O 0.10331 0.90236 0.16744 0.0
O165 O 0.10349 0.89905 0.21672 0.0
O166 O 0.15733 0.90055 0.14865 0.0
O167 O 0.14279 0.90575 0.19053 0.0
Co168 Co 0.86401 0.59965 0.1462 0.0
O169 O 0.83731 0.60268 0.15056 0.0
O170 O 0.85765 0.60006 0.18761 0.0
C171 C 0.86268 0.5756 0.11125 0.0
O172 O 0.89253 0.59589 0.14961 0.0
Co173 Co 0.88251 0.60956 0.08604 0.0
O174 O 0.9045 0.59577 0.10387 0.0
C175 C 0.86878 0.64225 0.12451 0.0
C176 C 0.84031 0.60211 0.17867 0.0
C177 C 0.90621 0.59311 0.13151 0.0
O178 O 0.86673 0.62978 0.14576 0.0
O179 O 0.87332 0.63683 0.09842 0.0
O180 O 0.86117 0.57082 0.13879 0.0
O181 O 0.86316 0.59459 0.10585 0.0
Co182 Co 0.1374 0.09535 0.86031 0.0
O183 O 0.16435 0.09716 0.86113 0.0
O184 O 0.14688 0.09834 0.82066 0.0
C185 C 0.13534 0.06906 0.89103 0.0
O186 O 0.10918 0.09322 0.85141 0.0
Co187 Co 0.11505 0.10251 0.918 0.0
O188 O 0.09428 0.09023 0.8947 0.0
C189 C 0.13146 0.13701 0.88683 0.0
C190 C 0.16356 0.09875 0.83276 0.0
C191 C 0.09434 0.08954 0.86667 0.0
O192 O 0.13563 0.12543 0.86505 0.0
O193 O 0.12451 0.1305 0.91088 0.0
O194 O 0.13869 0.06608 0.86328 0.0
O195 O 0.13512 0.08761 0.89948 0.0
Co196 Co 0.63372 0.4045 0.65039 0.0
O197 O 0.63354 0.43241 0.63993 0.0
O198 O 0.6245 0.40744 0.61053 0.0
C199 C 0.66267 0.40424 0.67072 0.0
O200 O 0.63307 0.37394 0.65305 0.0
Co201 Co 0.63521 0.39206 0.71568 0.0
O202 O 0.64142 0.36527 0.69899 0.0
C203 C 0.59917 0.4055 0.69063 0.0
C204 C 0.62721 0.42662 0.61443 0.0
C205 C 0.6379 0.36072 0.67224 0.0
O206 O 0.60717 0.40662 0.66541 0.0
O207 O 0.60814 0.40103 0.71421 0.0
O208 O 0.66052 0.40296 0.64238 0.0
O209 O 0.64749 0.40783 0.68551 0.0
Co210 Co 0.36623 0.89864 0.34615 0.0
O211 O 0.36817 0.92607 0.35937 0.0
O212 O 0.37387 0.89935 0.3869 0.0
C213 C 0.33824 0.90144 0.32333 0.0
O214 O 0.36494 0.86831 0.34098 0.0
Co215 Co 0.36619 0.88772 0.28007 0.0
O216 O 0.35828 0.86076 0.29387 0.0
C217 C 0.40199 0.89847 0.30894 0.0
C218 C 0.37289 0.9188 0.38482 0.0
C219 C 0.36045 0.85564 0.32063 0.0
O220 O 0.39332 0.89907 0.33364 0.0
O221 O 0.39354 0.89537 0.28436 0.0
O222 O 0.33919 0.89913 0.35164 0.0
O223 O 0.35416 0.90409 0.31014 0.0
H224 H 0.14385 0.82581 0.21379 0.0
H225 H 0.14595 0.79041 0.19983 0.0
H226 H 0.13262 0.80542 0.11 0.0
H227 H 0.13026 0.84091 0.1237 0.0
H228 H 0.111 0.77394 0.13267 0.0
H229 H 0.18723 0.76146 0.15315 0.0
H230 H 0.17495 0.77257 0.18359 0.0
H231 H 0.17712 0.78625 0.14983 0.0
C232 C 0.14147 0.82166 0.191 0.0
C233 C 0.13687 0.83626 0.16987 0.0
C234 C 0.14282 0.80141 0.18304 0.0
C235 C 0.13972 0.79536 0.15382 0.0
C236 C 0.13518 0.80984 0.13265 0.0
H237 H 0.13077 0.67749 0.07014 0.0
H238 H 0.13266 0.71359 0.07967 0.0
C239 C 0.13383 0.83011 0.14055 0.0
C240 C 0.1402 0.77381 0.1457 0.0
H241 H 0.1684 0.73226 0.14518 0.0
C242 C 0.12358 0.76484 0.13513 0.0
C243 C 0.15663 0.76202 0.14908 0.0
C244 C 0.17506 0.77107 0.15928 0.0
C245 C 0.12279 0.74424 0.12857 0.0
C246 C 0.13919 0.7324 0.13217 0.0
C247 C 0.15587 0.7414 0.14247 0.0
C248 C 0.13915 0.71055 0.12596 0.0
C249 C 0.10427 0.7352 0.11873 0.0
C250 C 0.14286 0.69689 0.14863 0.0
C251 C 0.14194 0.67622 0.14326 0.0
C252 C 0.13731 0.66882 0.11505 0.0
C253 C 0.13417 0.68261 0.09219 0.0
C254 C 0.13516 0.70327 0.0976 0.0
H255 H 0.09219 0.74517 0.12402 0.0
H256 H 0.10447 0.73291 0.09455 0.0
H257 H 0.10194 0.72039 0.1292 0.0
H258 H 0.14607 0.70224 0.17065 0.0
H259 H 0.14453 0.66607 0.16136 0.0
H260 H 0.42429 0.90819 0.35601 0.0
H261 H 0.45854 0.90823 0.35868 0.0
H262 H 0.4615 0.89317 0.26652 0.0
H263 H 0.42697 0.89307 0.26343 0.0
H264 H 0.48025 0.87181 0.34152 0.0
H265 H 0.50032 0.94127 0.28128 0.0
H266 H 0.47747 0.9386 0.2981 0.0
H267 H 0.4829 0.92463 0.26543 0.0
C268 C 0.43212 0.90508 0.33613 0.0
C269 C 0.42281 0.90046 0.30952 0.0
C270 C 0.45173 0.90516 0.33773 0.0
C271 C 0.46249 0.90076 0.3128 0.0
C272 C 0.45338 0.8968 0.28593 0.0
H273 H 0.58641 0.88782 0.32132 0.0
H274 H 0.55443 0.88962 0.30048 0.0
C275 C 0.43366 0.8967 0.28426 0.0
C276 C 0.48313 0.89877 0.31602 0.0
H277 H 0.52474 0.92322 0.3046 0.0
C278 C 0.49002 0.88288 0.33309 0.0
C279 C 0.49578 0.91316 0.30477 0.0
C280 C 0.48888 0.93047 0.28641 0.0
C281 C 0.50917 0.88144 0.34026 0.0
C282 C 0.5217 0.89645 0.33046 0.0
C283 C 0.51502 0.91179 0.31211 0.0
C284 C 0.54125 0.89735 0.34175 0.0
C285 C 0.51581 0.86418 0.35904 0.0
C286 C 0.54436 0.90165 0.37157 0.0
C287 C 0.56245 0.90061 0.38351 0.0
C288 C 0.57788 0.89528 0.36583 0.0
C289 C 0.57484 0.89188 0.33556 0.0
C290 C 0.55662 0.89292 0.3236 0.0
H291 H 0.5057 0.85143 0.35841 0.0
H292 H 0.52981 0.85871 0.35175 0.0
H293 H 0.51717 0.86937 0.38219 0.0
H294 H 0.53267 0.90534 0.38582 0.0
H295 H 0.56423 0.9036 0.4068 0.0
H296 H 0.35198 0.3293 0.65575 0.0
H297 H 0.34889 0.29279 0.66098 0.0
H298 H 0.36789 0.28445 0.57193 0.0
H299 H 0.37109 0.32068 0.56636 0.0
H300 H 0.32787 0.26271 0.62248 0.0
H301 H 0.40547 0.25258 0.6271 0.0
H302 H 0.39419 0.27639 0.63463 0.0
H303 H 0.39715 0.26794 0.59734 0.0
C304 C 0.35539 0.31972 0.63719 0.0
C305 C 0.36201 0.32796 0.61072 0.0
C306 C 0.35356 0.29889 0.64024 0.0
C307 C 0.35839 0.28604 0.61695 0.0
C308 C 0.36431 0.2942 0.59024 0.0
H309 H 0.37058 0.16428 0.56745 0.0
H310 H 0.36739 0.20059 0.57255 0.0
C311 C 0.36611 0.31493 0.58713 0.0
C312 C 0.35813 0.264 0.62058 0.0
H313 H 0.38707 0.22314 0.61904 0.0
C314 C 0.34077 0.25399 0.62219 0.0
C315 C 0.37503 0.25281 0.62038 0.0
C316 C 0.39405 0.26294 0.62004 0.0
C317 C 0.33989 0.23288 0.62201 0.0
C318 C 0.3568 0.22173 0.6204 0.0
C319 C 0.37414 0.2318 0.62005 0.0
C320 C 0.35695 0.19963 0.61707 0.0
C321 C 0.32096 0.2226 0.6222 0.0
C322 C 0.35196 0.18709 0.64042 0.0
C323 C 0.35382 0.16622 0.63765 0.0
C324 C 0.36075 0.15761 0.61149 0.0
C325 C 0.36525 0.17032 0.58794 0.0
C326 C 0.36343 0.1911 0.59077 0.0
H327 H 0.30915 0.23343 0.61985 0.0
H328 H 0.32007 0.21135 0.6041 0.0
H329 H 0.31925 0.21447 0.64325 0.0
H330 H 0.34714 0.19347 0.66101 0.0
H331 H 0.35019 0.15691 0.65622 0.0
H332 H 0.06397 0.0703 0.88903 0.0
H333 H 0.03225 0.06892 0.86883 0.0
H334 H 0.05105 0.09894 0.79052 0.0
H335 H 0.08316 0.10058 0.81098 0.0
H336 H 0.02159 0.11795 0.81556 0.0
H337 H 0.00379 0.03767 0.80692 0.0
H338 H 0.0142 0.04265 0.8422 0.0
H339 H 0.02788 0.04637 0.80939 0.0
C340 C 0.06151 0.07624 0.86721 0.0
C341 C 0.07607 0.08571 0.85171 0.0
C342 C 0.04335 0.07522 0.8555 0.0
C343 C 0.03926 0.08354 0.82792 0.0
C344 C 0.05393 0.09221 0.8117 0.0
H345 H 0.91473 0.08488 0.81069 0.0
H346 H 0.94693 0.08123 0.79129 0.0
C347 C 0.07226 0.09312 0.82339 0.0
C348 C 0.01924 0.08573 0.81878 0.0
H349 H 0.97756 0.0602 0.82078 0.0
C350 C 0.01202 0.10524 0.81565 0.0
C351 C 0.00667 0.06921 0.8183 0.0
C352 C 0.01361 0.0478 0.81905 0.0
C353 C 0.99253 0.10878 0.81553 0.0
C354 C 0.98003 0.09243 0.81897 0.0
C355 C 0.98717 0.07277 0.81863 0.0
C356 C 0.96037 0.09565 0.82869 0.0
C357 C 0.98552 0.13013 0.81373 0.0
C358 C 0.95736 0.10476 0.85611 0.0
C359 C 0.93924 0.10662 0.86727 0.0
C360 C 0.92359 0.09945 0.85127 0.0
C361 C 0.92651 0.09063 0.82345 0.0
C362 C 0.94484 0.08853 0.81237 0.0
H363 H 0.99547 0.13971 0.8013 0.0
H364 H 0.97142 0.13084 0.80305 0.0
H365 H 0.98437 0.13647 0.83629 0.0
H366 H 0.96915 0.11002 0.86932 0.0
H367 H 0.93755 0.1136 0.88868 0.0
H368 H 0.14554 0.33012 0.83764 0.0
H369 H 0.1494 0.29366 0.83296 0.0
H370 H 0.12739 0.28596 0.92029 0.0
H371 H 0.12361 0.3222 0.92539 0.0
H372 H 0.16124 0.26407 0.90816 0.0
H373 H 0.10576 0.25262 0.82242 0.0
H374 H 0.12363 0.27106 0.81508 0.0
H375 H 0.10722 0.27532 0.84429 0.0
C376 C 0.14149 0.32068 0.85586 0.0
C377 C 0.13417 0.32914 0.88186 0.0
C378 C 0.14366 0.29986 0.85307 0.0
C379 C 0.13849 0.28717 0.87617 0.0
C380 C 0.13142 0.29554 0.9022 0.0
H381 H 0.12534 0.16629 0.92815 0.0
H382 H 0.12955 0.20243 0.92303 0.0
C383 C 0.12924 0.31628 0.90502 0.0
C384 C 0.14038 0.2651 0.87362 0.0
H385 H 0.12095 0.2238 0.84045 0.0
C386 C 0.15258 0.25525 0.89315 0.0
C387 C 0.12916 0.25371 0.85385 0.0
C388 C 0.11559 0.26361 0.83278 0.0
C389 C 0.15346 0.23422 0.89407 0.0
C390 C 0.14156 0.2228 0.87533 0.0
C391 C 0.13 0.23264 0.85484 0.0
C392 C 0.13976 0.20077 0.87836 0.0
C393 C 0.16693 0.2244 0.91537 0.0
C394 C 0.14374 0.18788 0.85468 0.0
C395 C 0.14126 0.16712 0.85746 0.0
C396 C 0.13456 0.15894 0.88389 0.0
C397 C 0.13058 0.17199 0.9075 0.0
C398 C 0.1331 0.19268 0.90471 0.0
H399 H 0.17881 0.23457 0.92123 0.0
H400 H 0.15934 0.22076 0.9359 0.0
H401 H 0.17273 0.21023 0.9061 0.0
H402 H 0.14875 0.19389 0.83408 0.0
H403 H 0.14444 0.15753 0.8388 0.0
H404 H 0.93153 0.92196 0.10521 0.0
H405 H 0.96302 0.92468 0.12676 0.0
H406 H 0.94288 0.89887 0.20733 0.0
H407 H 0.91108 0.8962 0.18599 0.0
H408 H 0.97597 0.9412 0.19336 0.0
H409 H 0.98593 0.86104 0.15998 0.0
H410 H 0.97005 0.87706 0.1397 0.0
H411 H 0.96407 0.86931 0.17611 0.0
C412 C 0.93366 0.91721 0.12773 0.0
C413 C 0.91886 0.90866 0.1438 0.0
C414 C 0.95164 0.91888 0.14003 0.0
C415 C 0.95519 0.91193 0.16852 0.0
C416 C 0.9403 0.9044 0.18532 0.0
H417 H 0.07092 0.90265 0.23976 0.0
H418 H 0.03648 0.90585 0.23875 0.0
C419 C 0.92218 0.9029 0.1731 0.0
C420 C 0.97488 0.91037 0.17885 0.0
H421 H 0.01278 0.87894 0.17543 0.0
C422 C 0.98399 0.9275 0.19011 0.0
C423 C 0.98521 0.8925 0.17424 0.0
C424 C 0.97595 0.87384 0.16184 0.0
C425 C 0.00346 0.92735 0.19599 0.0
C426 C 0.01389 0.9097 0.1902 0.0
C427 C 0.00463 0.8924 0.17994 0.0
C428 C 0.03466 0.90942 0.19161 0.0
C429 C 0.01301 0.9462 0.20698 0.0
C430 C 0.0449 0.91051 0.16546 0.0
C431 C 0.06446 0.90872 0.16589 0.0
C432 C 0.07422 0.90564 0.19253 0.0
C433 C 0.06389 0.90498 0.21886 0.0
C434 C 0.04423 0.90684 0.21838 0.0
H435 H 0.0029 0.95873 0.21042 0.0
H436 H 0.02036 0.9431 0.22809 0.0
H437 H 0.02382 0.95101 0.19096 0.0
H438 H 0.03768 0.91244 0.1446 0.0
H439 H 0.07188 0.90938 0.14518 0.0
H440 H 0.373 0.67781 0.42588 0.0
H441 H 0.36901 0.71345 0.41492 0.0
H442 H 0.34932 0.69834 0.32767 0.0
H443 H 0.35336 0.66265 0.33821 0.0
H444 H 0.37862 0.72702 0.32975 0.0
H445 H 0.32059 0.74719 0.40574 0.0
H446 H 0.34002 0.73419 0.42255 0.0
H447 H 0.32577 0.72153 0.39541 0.0
C448 C 0.36765 0.68201 0.40443 0.0
C449 C 0.36357 0.66731 0.3829 0.0
C450 C 0.36526 0.7024 0.3983 0.0
C451 C 0.35866 0.70848 0.37062 0.0
C452 C 0.35433 0.6939 0.34922 0.0
H453 H 0.34902 0.82456 0.28495 0.0
H454 H 0.34752 0.78889 0.29708 0.0
C455 C 0.35668 0.67351 0.35532 0.0
C456 C 0.35754 0.73006 0.36328 0.0
H457 H 0.33633 0.77425 0.38239 0.0
C458 C 0.36928 0.73734 0.34107 0.0
C459 C 0.34541 0.74343 0.37827 0.0
C460 C 0.3321 0.73622 0.40167 0.0
C461 C 0.36951 0.75778 0.33382 0.0
C462 C 0.35738 0.77119 0.34879 0.0
C463 C 0.34558 0.7639 0.37094 0.0
C464 C 0.35704 0.7929 0.34202 0.0
C465 C 0.38314 0.76493 0.31078 0.0
C466 C 0.36222 0.80703 0.36362 0.0
C467 C 0.36298 0.82746 0.35686 0.0
C468 C 0.35854 0.83414 0.32834 0.0
C469 C 0.35275 0.81995 0.30703 0.0
C470 C 0.35194 0.79954 0.31387 0.0
H471 H 0.39457 0.75385 0.30685 0.0
H472 H 0.37545 0.76712 0.28972 0.0
H473 H 0.3896 0.77951 0.31731 0.0
H474 H 0.36611 0.80218 0.38553 0.0
H475 H 0.36741 0.83795 0.37385 0.0
H476 H 0.5593 0.12294 0.60339 0.0
H477 H 0.52823 0.11858 0.6244 0.0
H478 H 0.55242 0.0864 0.69746 0.0
H479 H 0.58404 0.09081 0.67634 0.0
H480 H 0.52197 0.06632 0.66897 0.0
H481 H 0.5023 0.14443 0.69553 0.0
H482 H 0.5124 0.14288 0.65955 0.0
H483 H 0.52652 0.1366 0.69125 0.0
C484 C 0.55814 0.1151 0.6241 0.0
C485 C 0.57415 0.10713 0.63813 0.0
C486 C 0.54033 0.11281 0.63626 0.0
C487 C 0.53802 0.10247 0.66275 0.0
C488 C 0.55396 0.09466 0.67718 0.0
H489 H 0.41529 0.10224 0.68466 0.0
H490 H 0.44774 0.10194 0.70391 0.0
C491 C 0.57196 0.09719 0.66512 0.0
C492 C 0.51863 0.0984 0.67305 0.0
H493 H 0.47643 0.12238 0.67975 0.0
C494 C 0.51206 0.07851 0.67233 0.0
C495 C 0.50572 0.11421 0.67817 0.0
C496 C 0.51215 0.13571 0.68151 0.0
C497 C 0.49268 0.07428 0.67312 0.0
C498 C 0.47964 0.09036 0.67412 0.0
C499 C 0.48635 0.11002 0.67842 0.0
C500 C 0.4596 0.08766 0.66535 0.0
C501 C 0.48637 0.05267 0.67124 0.0
C502 C 0.45547 0.0796 0.63747 0.0
C503 C 0.43712 0.07983 0.62647 0.0
C504 C 0.42238 0.08827 0.64296 0.0
C505 C 0.42632 0.09557 0.67146 0.0
C506 C 0.44484 0.09542 0.68247 0.0
H507 H 0.4966 0.04267 0.68255 0.0
H508 H 0.47225 0.05055 0.68112 0.0
H509 H 0.48572 0.04793 0.64781 0.0
H510 H 0.46661 0.07404 0.62346 0.0
H511 H 0.43461 0.074 0.60449 0.0
H512 H 0.86461 0.17095 0.92601 0.0
H513 H 0.86222 0.20724 0.92038 0.0
H514 H 0.85135 0.1997 0.8276 0.0
H515 H 0.85364 0.16315 0.83288 0.0
H516 H 0.88728 0.22827 0.87965 0.0
H517 H 0.81094 0.2416 0.85791 0.0
H518 H 0.81928 0.21941 0.87663 0.0
H519 H 0.8226 0.22184 0.83779 0.0
C520 C 0.86147 0.1769 0.90441 0.0
C521 C 0.85949 0.1641 0.87983 0.0
C522 C 0.86007 0.19766 0.90129 0.0
C523 C 0.85656 0.20605 0.87363 0.0
C524 C 0.85386 0.19342 0.84918 0.0
H525 H 0.85745 0.33503 0.83325 0.0
H526 H 0.85415 0.2985 0.82801 0.0
C527 C 0.85526 0.17256 0.85226 0.0
C528 C 0.85751 0.22806 0.8703 0.0
H529 H 0.83073 0.27008 0.8602 0.0
C530 C 0.87495 0.23743 0.87518 0.0
C531 C 0.84143 0.23982 0.86412 0.0
C532 C 0.82242 0.23028 0.85891 0.0
C533 C 0.87667 0.25837 0.87487 0.0
C534 C 0.86043 0.27022 0.87012 0.0
C535 C 0.8431 0.26087 0.864 0.0
C536 C 0.86112 0.29229 0.8734 0.0
C537 C 0.89582 0.26765 0.87998 0.0
C538 C 0.86567 0.30078 0.90081 0.0
C539 C 0.86764 0.32152 0.9039 0.0
C540 C 0.86498 0.33423 0.87962 0.0
C541 C 0.85973 0.32569 0.85235 0.0
C542 C 0.85779 0.30485 0.8493 0.0
H543 H 0.90733 0.25685 0.87506 0.0
H544 H 0.89773 0.28123 0.86623 0.0
H545 H 0.89716 0.27222 0.90341 0.0
H546 H 0.86797 0.2913 0.91978 0.0
H547 H 0.87147 0.32753 0.9253 0.0
H548 H 0.64562 0.66888 0.29092 0.0
H549 H 0.64712 0.70411 0.30603 0.0
H550 H 0.6322 0.68773 0.39443 0.0
H551 H 0.63045 0.65237 0.37954 0.0
H552 H 0.61121 0.71996 0.37152 0.0
H553 H 0.68786 0.73186 0.35621 0.0
H554 H 0.67605 0.72133 0.32465 0.0
H555 H 0.67745 0.70713 0.3581 0.0
C556 C 0.64272 0.67269 0.31363 0.0
C557 C 0.63793 0.65773 0.33402 0.0
C558 C 0.64372 0.69285 0.32226 0.0
C559 C 0.64008 0.69847 0.35144 0.0
C560 C 0.6352 0.68366 0.37183 0.0
H561 H 0.63011 0.81652 0.43563 0.0
H562 H 0.63208 0.78034 0.42658 0.0
C563 C 0.6342 0.66346 0.36325 0.0
C564 C 0.64061 0.71992 0.3603 0.0
H565 H 0.66917 0.76119 0.36349 0.0
C566 C 0.62391 0.72895 0.37007 0.0
C567 C 0.6572 0.73158 0.35827 0.0
C568 C 0.67571 0.72248 0.349 0.0
C569 C 0.6232 0.74953 0.37699 0.0
C570 C 0.63975 0.76125 0.37465 0.0
C571 C 0.65652 0.75215 0.36527 0.0
C572 C 0.63976 0.78315 0.38083 0.0
C573 C 0.60458 0.75866 0.38574 0.0
C574 C 0.64417 0.79671 0.35843 0.0
C575 C 0.64323 0.81741 0.36356 0.0
C576 C 0.63788 0.82496 0.39127 0.0
C577 C 0.6341 0.81128 0.41396 0.0
C578 C 0.63511 0.79057 0.4088 0.0
H579 H 0.59252 0.74881 0.3796 0.0
H580 H 0.60438 0.76087 0.40994 0.0
H581 H 0.60254 0.77353 0.37525 0.0
H582 H 0.6479 0.79128 0.33673 0.0
H583 H 0.64632 0.82746 0.34558 0.0
H584 H 0.86535 0.67208 0.08405 0.0
H585 H 0.86191 0.70802 0.09307 0.0
H586 H 0.8623 0.69786 0.18658 0.0
H587 H 0.86569 0.66158 0.17787 0.0
H588 H 0.83199 0.72888 0.13166 0.0
H589 H 0.90732 0.73887 0.16441 0.0
H590 H 0.89983 0.71775 0.14209 0.0
H591 H 0.8937 0.71882 0.18022 0.0
C592 C 0.86466 0.67738 0.10659 0.0
C593 C 0.86596 0.66395 0.13026 0.0
C594 C 0.86259 0.69792 0.11165 0.0
C595 C 0.86191 0.70546 0.14043 0.0
C596 C 0.86284 0.6922 0.16421 0.0
H597 H 0.84822 0.83667 0.16317 0.0
H598 H 0.84595 0.80074 0.17427 0.0
C599 C 0.86478 0.67153 0.15917 0.0
C600 C 0.86109 0.72739 0.14498 0.0
H601 H 0.88962 0.76806 0.1556 0.0
C602 C 0.84442 0.73752 0.13759 0.0
C603 C 0.87743 0.73843 0.1525 0.0
C604 C 0.89567 0.72805 0.16024 0.0
C605 C 0.84392 0.75857 0.13624 0.0
C606 C 0.86052 0.76956 0.14233 0.0
C607 C 0.87694 0.75946 0.15106 0.0
C608 C 0.86176 0.79123 0.13619 0.0
C609 C 0.82604 0.76892 0.12661 0.0
C610 C 0.87144 0.79759 0.11119 0.0
C611 C 0.87272 0.81798 0.10468 0.0
C612 C 0.86443 0.83242 0.12323 0.0
C613 C 0.85477 0.82595 0.14842 0.0
C614 C 0.85342 0.80547 0.15481 0.0
H615 H 0.81458 0.75809 0.12134 0.0
H616 H 0.82116 0.77916 0.14435 0.0
H617 H 0.82879 0.77822 0.1069 0.0
H618 H 0.87794 0.78672 0.09659 0.0
H619 H 0.88033 0.82238 0.08519 0.0
H620 H 0.63076 0.34392 0.61788 0.0
H621 H 0.63166 0.3082 0.6044 0.0
H622 H 0.64873 0.29336 0.69276 0.0
H623 H 0.64776 0.32878 0.70657 0.0
H624 H 0.6623 0.27962 0.60898 0.0
H625 H 0.60099 0.25909 0.67779 0.0
H626 H 0.60621 0.28473 0.66795 0.0
H627 H 0.61915 0.27272 0.69704 0.0
C628 C 0.63472 0.33307 0.63446 0.0
C629 C 0.639 0.33926 0.6634 0.0
C630 C 0.63526 0.31269 0.62668 0.0
C631 C 0.63999 0.29818 0.64773 0.0
C632 C 0.64472 0.30432 0.67635 0.0
H633 H 0.64587 0.16873 0.65542 0.0
H634 H 0.64894 0.20483 0.66438 0.0
C635 C 0.6442 0.32462 0.68415 0.0
C636 C 0.63976 0.27654 0.64007 0.0
H637 H 0.61862 0.23217 0.65749 0.0
C638 C 0.65269 0.26922 0.61939 0.0
C639 C 0.6272 0.26309 0.65375 0.0
C640 C 0.61247 0.27027 0.67518 0.0
C641 C 0.65369 0.24862 0.61258 0.0
C642 C 0.64126 0.23516 0.62655 0.0
C643 C 0.62823 0.24254 0.647 0.0
C644 C 0.64124 0.21334 0.62009 0.0
C645 C 0.66829 0.24134 0.59105 0.0
C646 C 0.63603 0.20619 0.59213 0.0
C647 C 0.63421 0.18556 0.5869 0.0
C648 C 0.63748 0.17168 0.60962 0.0
C649 C 0.64323 0.17893 0.63741 0.0
C650 C 0.64499 0.19957 0.64261 0.0
H651 H 0.67952 0.2527 0.58763 0.0
H652 H 0.67488 0.22717 0.59876 0.0
H653 H 0.6614 0.23826 0.56952 0.0
H654 H 0.63278 0.2166 0.5746 0.0
H655 H 0.62976 0.18055 0.56524 0.0
H656 H 0.08322 0.38808 0.81147 0.0
H657 H 0.05119 0.39252 0.79156 0.0
H658 H 0.03653 0.42797 0.86779 0.0
H659 H 0.06816 0.42369 0.88753 0.0
H660 H 0.01972 0.37855 0.82044 0.0
H661 H 0.01184 0.45987 0.8024 0.0
H662 H 0.03463 0.44785 0.80479 0.0
H663 H 0.02237 0.45537 0.83767 0.0
C664 C 0.07328 0.39727 0.82351 0.0
C665 C 0.07814 0.40543 0.85115 0.0
C666 C 0.055 0.39976 0.81215 0.0
C667 C 0.04153 0.41082 0.82797 0.0
C668 C 0.04676 0.41978 0.85482 0.0
H669 H 0.93685 0.42084 0.89141 0.0
H670 H 0.96857 0.42362 0.8719 0.0
C671 C 0.06482 0.41713 0.86626 0.0
C672 C 0.02136 0.41085 0.81926 0.0
H673 H 0.98329 0.44212 0.81829 0.0
C674 C 0.01174 0.39241 0.81883 0.0
C675 C 0.01098 0.42891 0.81696 0.0
C676 C 0.02056 0.44909 0.81516 0.0
C677 C 0.99197 0.39166 0.81954 0.0
C678 C 0.98166 0.40985 0.8204 0.0
C679 C 0.99123 0.4282 0.81786 0.0
C680 C 0.96171 0.41019 0.82973 0.0
C681 C 0.98233 0.37154 0.82215 0.0
C682 C 0.94717 0.40218 0.81214 0.0
C683 C 0.92885 0.40058 0.82329 0.0
C684 C 0.92493 0.40682 0.85226 0.0
C685 C 0.93941 0.41566 0.86916 0.0
C686 C 0.95755 0.41738 0.85798 0.0
H687 H 0.99252 0.35888 0.82295 0.0
H688 H 0.97361 0.37121 0.84232 0.0
H689 H 0.9728 0.36917 0.803 0.0
H690 H 0.9501 0.39669 0.79017 0.0
H691 H 0.91799 0.39373 0.80972 0.0
H692 H 0.5765 0.5777 0.35282 0.0
H693 H 0.54235 0.57492 0.35342 0.0
H694 H 0.53974 0.59186 0.26213 0.0
H695 H 0.57414 0.59502 0.26135 0.0
H696 H 0.51576 0.61391 0.29675 0.0
H697 H 0.50643 0.5332 0.32012 0.0
H698 H 0.52256 0.5447 0.34564 0.0
H699 H 0.52843 0.5434 0.30719 0.0
C700 C 0.56877 0.58059 0.33267 0.0
C701 C 0.57815 0.58663 0.30702 0.0
C702 C 0.54919 0.57882 0.33301 0.0
C703 C 0.53849 0.58285 0.30769 0.0
C704 C 0.54775 0.58851 0.28185 0.0
H705 H 0.41443 0.59943 0.31528 0.0
H706 H 0.44549 0.59385 0.29312 0.0
C707 C 0.56742 0.59027 0.28145 0.0
C708 C 0.51761 0.58283 0.30934 0.0
H709 H 0.48064 0.55503 0.33422 0.0
C710 C 0.50796 0.60091 0.30423 0.0
C711 C 0.50744 0.56582 0.31893 0.0
C712 C 0.51674 0.54564 0.32298 0.0
C713 C 0.48871 0.60286 0.31066 0.0
C714 C 0.47887 0.58622 0.32218 0.0
C715 C 0.48824 0.5678 0.32552 0.0
C716 C 0.45969 0.58835 0.33453 0.0
C717 C 0.47933 0.62305 0.30695 0.0
C718 C 0.45734 0.5866 0.36496 0.0
C719 C 0.43976 0.58975 0.37762 0.0
C720 C 0.42401 0.59464 0.36011 0.0
C721 C 0.42625 0.59577 0.32942 0.0
C722 C 0.44399 0.59267 0.31673 0.0
H723 H 0.48954 0.63503 0.30116 0.0
H724 H 0.46859 0.62202 0.28918 0.0
H725 H 0.47203 0.62751 0.3275 0.0
H726 H 0.46927 0.58324 0.37908 0.0
H727 H 0.4386 0.58857 0.40128 0.0
H728 H 0.57587 0.41838 0.64657 0.0
H729 H 0.54164 0.42009 0.64664 0.0
H730 H 0.54089 0.40089 0.73698 0.0
H731 H 0.57537 0.39886 0.73711 0.0
H732 H 0.51688 0.37889 0.7009 0.0
H733 H 0.50542 0.46009 0.68351 0.0
H734 H 0.52151 0.44976 0.65722 0.0
H735 H 0.52777 0.45005 0.69566 0.0
C736 C 0.56853 0.41475 0.66665 0.0
C737 C 0.57845 0.40845 0.69185 0.0
C738 C 0.5489 0.4159 0.6667 0.0
C739 C 0.53871 0.41093 0.69195 0.0
C740 C 0.54851 0.40496 0.71734 0.0
H741 H 0.41477 0.39224 0.68575 0.0
H742 H 0.44622 0.39719 0.70755 0.0
C743 C 0.56822 0.40385 0.71736 0.0
C744 C 0.51782 0.41042 0.69067 0.0
H745 H 0.47984 0.4381 0.66873 0.0
C746 C 0.50866 0.39193 0.69458 0.0
C747 C 0.50714 0.42748 0.68258 0.0
C748 C 0.51595 0.448 0.67981 0.0
C749 C 0.48935 0.3897 0.68841 0.0
C750 C 0.47895 0.40648 0.67842 0.0
C751 C 0.48787 0.42524 0.67628 0.0
C752 C 0.45962 0.40433 0.66632 0.0
C753 C 0.48046 0.36918 0.69073 0.0
C754 C 0.45671 0.40711 0.63614 0.0
C755 C 0.43891 0.40433 0.62369 0.0
C756 C 0.4235 0.39877 0.64117 0.0
C757 C 0.42632 0.39645 0.67164 0.0
C758 C 0.44428 0.39918 0.68412 0.0
H759 H 0.491 0.35728 0.69555 0.0
H760 H 0.46993 0.36932 0.70864 0.0
H761 H 0.47299 0.36524 0.66996 0.0
H762 H 0.46836 0.4111 0.62203 0.0
H763 H 0.43733 0.40642 0.60021 0.0
H764 H 0.06826 0.58239 0.09362 0.0
H765 H 0.03662 0.57705 0.11205 0.0
H766 H 0.05416 0.59735 0.1982 0.0
H767 H 0.08621 0.60301 0.17972 0.0
H768 H 0.02258 0.55334 0.15972 0.0
H769 H 0.01026 0.63558 0.17497 0.0
H770 H 0.02982 0.62626 0.15373 0.0
H771 H 0.03018 0.62422 0.19304 0.0
C772 C 0.06553 0.58565 0.11657 0.0
C773 C 0.07975 0.5934 0.13509 0.0
C774 C 0.04741 0.58246 0.12711 0.0
C775 C 0.04298 0.587 0.15638 0.0
C776 C 0.05726 0.59397 0.17541 0.0
H777 H 0.92104 0.59981 0.18677 0.0
H778 H 0.95405 0.59541 0.20218 0.0
C779 C 0.07556 0.5971 0.16486 0.0
C780 C 0.02305 0.58548 0.16565 0.0
H781 H 0.98388 0.61457 0.17458 0.0
C782 C 0.01416 0.56666 0.16377 0.0
C783 C 0.0121 0.60285 0.17117 0.0
C784 C 0.02094 0.62344 0.17329 0.0
C785 C 0.99448 0.56495 0.16505 0.0
C786 C 0.98343 0.58253 0.16778 0.0
C787 C 0.99239 0.60111 0.17235 0.0
C788 C 0.96299 0.58252 0.16076 0.0
C789 C 0.98566 0.54441 0.16202 0.0
C790 C 0.95707 0.5766 0.13252 0.0
C791 C 0.93841 0.57921 0.12366 0.0
C792 C 0.92518 0.58786 0.14281 0.0
C793 C 0.93088 0.593 0.17159 0.0
C794 C 0.94972 0.59054 0.18039 0.0
H795 H 0.99512 0.53262 0.17101 0.0
H796 H 0.97192 0.54366 0.17349 0.0
H797 H 0.98329 0.54098 0.13837 0.0
H798 H 0.9671 0.57082 0.11674 0.0
H799 H 0.93449 0.57502 0.10139 0.0
H800 H 0.13633 0.53898 0.11275 0.0
H801 H 0.13311 0.51167 0.07678 0.0
H802 H 0.13505 0.55459 0.00618 0.0
H803 H 0.13783 0.58203 0.04204 0.0
H804 H 0.10776 0.52513 0.99769 0.0
H805 H 0.17682 0.49142 0.02724 0.0
H806 H 0.16107 0.49415 0.0577 0.0
H807 H 0.16987 0.51614 0.03954 0.0
C808 C 0.13601 0.54259 0.08957 0.0
C809 C 0.13753 0.56259 0.08015 0.0
C810 C 0.13425 0.52698 0.06907 0.0
C811 C 0.13423 0.53111 0.03885 0.0
C812 C 0.13516 0.55111 0.02942 0.0
H813 H 0.13795 0.45917 0.87936 0.0
H814 H 0.1354 0.48669 0.91521 0.0
C815 C 0.13679 0.56674 0.04991 0.0
C816 C 0.13366 0.51454 0.01703 0.0
H817 H 0.15766 0.47301 0.99384 0.0
C818 C 0.11867 0.51375 0.99676 0.0
C819 C 0.14799 0.4998 0.01585 0.0
C820 C 0.16495 0.50046 0.03604 0.0
C821 C 0.11749 0.49835 0.97558 0.0
C822 C 0.13175 0.48357 0.9746 0.0
C823 C 0.14671 0.48436 0.99484 0.0
C824 C 0.13164 0.46716 0.95259 0.0
C825 C 0.10089 0.49779 0.95472 0.0
C826 C 0.13044 0.44715 0.96184 0.0
C827 C 0.13195 0.43146 0.94151 0.0
C828 C 0.13485 0.43553 0.9116 0.0
C829 C 0.1357 0.4556 0.90228 0.0
C830 C 0.13414 0.47132 0.92266 0.0
H831 H 0.08919 0.50756 0.9624 0.0
H832 H 0.1054 0.50317 0.93282 0.0
H833 H 0.09554 0.4822 0.95201 0.0
H834 H 0.12861 0.44369 0.9849 0.0
H835 H 0.13121 0.41614 0.94934 0.0
H836 H 0.66601 0.8823 0.27945 0.0
H837 H 0.69421 0.88188 0.24846 0.0
H838 H 0.72928 0.88884 0.32563 0.0
H839 H 0.70142 0.88896 0.35659 0.0
H840 H 0.72145 0.91197 0.24352 0.0
H841 H 0.75376 0.84139 0.28378 0.0
H842 H 0.7295 0.84787 0.29073 0.0
H843 H 0.74807 0.85877 0.31272 0.0
C844 C 0.67975 0.88355 0.28978 0.0
C845 C 0.6815 0.88556 0.32045 0.0
C846 C 0.69582 0.88333 0.27208 0.0
C847 C 0.71384 0.88497 0.28482 0.0
C848 C 0.71556 0.88705 0.3154 0.0
H849 H 0.82885 0.89673 0.2241 0.0
H850 H 0.79989 0.8945 0.25308 0.0
C851 C 0.69958 0.88724 0.33305 0.0
C852 C 0.73089 0.8855 0.26624 0.0
H853 H 0.77344 0.8628 0.2554 0.0
C854 C 0.73274 0.90111 0.24587 0.0
C855 C 0.74564 0.87138 0.26953 0.0
C856 C 0.74411 0.85379 0.29018 0.0
C857 C 0.74918 0.9033 0.22922 0.0
C858 C 0.76401 0.88929 0.23274 0.0
C859 C 0.76209 0.87357 0.25291 0.0
C860 C 0.78151 0.89052 0.21532 0.0
C861 C 0.75073 0.92089 0.2086 0.0
C862 C 0.78077 0.8887 0.18462 0.0
C863 C 0.7972 0.89002 0.1681 0.0
C864 C 0.81475 0.89302 0.18198 0.0
C865 C 0.81553 0.89448 0.2128 0.0
C866 C 0.79903 0.8932 0.22935 0.0
H867 H 0.74051 0.93296 0.21413 0.0
H868 H 0.76516 0.92734 0.20911 0.0
H869 H 0.74769 0.91571 0.18582 0.0
H870 H 0.76746 0.88618 0.17342 0.0
H871 H 0.79612 0.88866 0.1444 0.0
H872 H 0.36863 0.41648 0.54686 0.0
H873 H 0.37288 0.44465 0.51337 0.0
H874 H 0.37289 0.4859 0.58696 0.0
H875 H 0.36827 0.45777 0.62062 0.0
H876 H 0.34838 0.49671 0.54329 0.0
H877 H 0.41828 0.47961 0.49579 0.0
H878 H 0.40214 0.45891 0.49321 0.0
H879 H 0.40982 0.46775 0.52878 0.0
C880 C 0.36975 0.43153 0.55595 0.0
C881 C 0.36806 0.43496 0.58633 0.0
C882 C 0.37234 0.44759 0.5368 0.0
C883 C 0.3735 0.46732 0.54773 0.0
C884 C 0.37216 0.47075 0.57813 0.0
H885 H 0.37234 0.58283 0.45778 0.0
H886 H 0.37608 0.55655 0.49479 0.0
C887 C 0.36949 0.45469 0.5973 0.0
C888 C 0.37446 0.48446 0.52724 0.0
H889 H 0.3995 0.50388 0.47022 0.0
C890 C 0.35968 0.49845 0.52757 0.0
C891 C 0.38919 0.48659 0.5067 0.0
C892 C 0.40585 0.47253 0.50622 0.0
C893 C 0.3589 0.51417 0.50726 0.0
C894 C 0.37344 0.51609 0.48638 0.0
C895 C 0.38839 0.50231 0.4863 0.0
C896 C 0.37292 0.53194 0.46382 0.0
C897 C 0.34219 0.5282 0.50764 0.0
C898 C 0.37053 0.52672 0.43411 0.0
C899 C 0.36844 0.54167 0.41293 0.0
C900 C 0.36877 0.56206 0.42118 0.0
C901 C 0.37187 0.56724 0.45082 0.0
C902 C 0.37397 0.55227 0.47198 0.0
H903 H 0.33042 0.52218 0.52095 0.0
H904 H 0.34653 0.54285 0.51734 0.0
H905 H 0.33696 0.53098 0.48497 0.0
H906 H 0.36976 0.51108 0.42744 0.0
H907 H 0.36617 0.53725 0.39021 0.0
H908 H 0.69843 0.10625 0.63817 0.0
H909 H 0.72772 0.10564 0.66642 0.0
H910 H 0.69634 0.11075 0.74699 0.0
H911 H 0.66674 0.11115 0.71874 0.0
H912 H 0.74228 0.13444 0.70558 0.0
H913 H 0.73003 0.06123 0.7604 0.0
H914 H 0.71637 0.06935 0.72904 0.0
H915 H 0.71156 0.07942 0.76496 0.0
C916 C 0.69769 0.10723 0.66192 0.0
C917 C 0.68023 0.10865 0.67625 0.0
C918 C 0.71448 0.1069 0.67801 0.0
C919 C 0.7142 0.1079 0.70878 0.0
C920 C 0.69683 0.10961 0.72324 0.0
H921 H 0.79959 0.10514 0.84388 0.0
H922 H 0.77082 0.10695 0.81462 0.0
C923 C 0.67995 0.10995 0.7071 0.0
C924 C 0.73219 0.10725 0.72548 0.0
H925 H 0.75709 0.0795 0.77517 0.0
C926 C 0.74557 0.12243 0.72078 0.0
C927 C 0.73645 0.09148 0.74512 0.0
C928 C 0.72295 0.07433 0.75008 0.0
C929 C 0.76294 0.12252 0.73573 0.0
C930 C 0.76718 0.10678 0.75546 0.0
C931 C 0.75383 0.09154 0.76 0.0
C932 C 0.78499 0.10621 0.77268 0.0
C933 C 0.77639 0.13973 0.73085 0.0
C934 C 0.80262 0.10515 0.75881 0.0
C935 C 0.81924 0.10423 0.77558 0.0
C936 C 0.81842 0.10413 0.80645 0.0
C937 C 0.80074 0.10514 0.82014 0.0
C938 C 0.78424 0.10617 0.80345 0.0
H939 H 0.76922 0.15287 0.72081 0.0
H940 H 0.78308 0.14459 0.75186 0.0
H941 H 0.78768 0.13476 0.7157 0.0
H942 H 0.80351 0.10476 0.73505 0.0
H943 H 0.83264 0.10335 0.76443 0.0
H944 H 0.86542 0.46426 0.87708 0.0
H945 H 0.8681 0.4914 0.91365 0.0
H946 H 0.87214 0.44753 0.98283 0.0
H947 H 0.86979 0.42047 0.94659 0.0
H948 H 0.84351 0.4984 0.95925 0.0
H949 H 0.91545 0.48519 0.00292 0.0
H950 H 0.90717 0.47419 0.96881 0.0
H951 H 0.901 0.46307 0.0034 0.0
C952 C 0.86713 0.46044 0.90006 0.0
C953 C 0.86742 0.44028 0.90901 0.0
C954 C 0.86865 0.47592 0.92088 0.0
C955 C 0.87062 0.47144 0.95087 0.0
C956 C 0.8711 0.45131 0.95975 0.0
H957 H 0.86374 0.53469 0.11646 0.0
H958 H 0.86619 0.50983 0.07659 0.0
C959 C 0.86961 0.43587 0.93901 0.0
C960 C 0.87074 0.48769 0.97319 0.0
H961 H 0.89545 0.50634 0.03194 0.0
C962 C 0.85496 0.50032 0.97492 0.0
C963 C 0.88568 0.49006 0.99365 0.0
C964 C 0.90336 0.47753 0.99198 0.0
C965 C 0.85345 0.51489 0.99718 0.0
C966 C 0.86822 0.51697 0.01797 0.0
C967 C 0.88413 0.50457 0.01601 0.0
C968 C 0.86732 0.53195 0.04199 0.0
C969 C 0.83584 0.52753 0.99884 0.0
C970 C 0.86745 0.55252 0.0356 0.0
C971 C 0.86605 0.56669 0.05822 0.0
C972 C 0.86457 0.56049 0.08761 0.0
C973 C 0.86479 0.53987 0.094 0.0
C974 C 0.86622 0.52569 0.07132 0.0
H975 H 0.82422 0.52117 0.98521 0.0
H976 H 0.83096 0.52894 0.02191 0.0
H977 H 0.83896 0.54285 0.99069 0.0
H978 H 0.86857 0.55761 0.0131 0.0
H979 H 0.86602 0.58248 0.05263 0.0
H980 H 0.16775 0.09737 0.77275 0.0
H981 H 0.19739 0.09869 0.74525 0.0
H982 H 0.22831 0.10622 0.82651 0.0
H983 H 0.19901 0.10457 0.85401 0.0
H984 H 0.22548 0.1286 0.74323 0.0
H985 H 0.2539 0.05759 0.78911 0.0
H986 H 0.22948 0.06471 0.79263 0.0
H987 H 0.24705 0.07569 0.81645 0.0
C988 C 0.18087 0.09934 0.78469 0.0
C989 C 0.18106 0.10064 0.81554 0.0
C990 C 0.19777 0.10009 0.76899 0.0
C991 C 0.21507 0.10213 0.78393 0.0
C992 C 0.21518 0.10413 0.81462 0.0
H993 H 0.33247 0.10328 0.72664 0.0
H994 H 0.30359 0.1059 0.75591 0.0
C995 C 0.19838 0.10327 0.83027 0.0
C996 C 0.23305 0.10214 0.76757 0.0
H997 H 0.27479 0.07708 0.76054 0.0
C998 C 0.23624 0.11731 0.74691 0.0
C999 C 0.24712 0.08745 0.77259 0.0
C1000 C 0.2442 0.07032 0.7937 0.0
C1001 C 0.25321 0.1183 0.73129 0.0
C1002 C 0.2672 0.10351 0.73616 0.0
C1003 C 0.26408 0.08846 0.757 0.0
C1004 C 0.2847 0.1027 0.71862 0.0
C1005 C 0.2561 0.13529 0.70998 0.0
C1006 C 0.28361 0.09979 0.68812 0.0
C1007 C 0.29998 0.09828 0.67147 0.0
C1008 C 0.31782 0.09951 0.68499 0.0
C1009 C 0.31893 0.10233 0.71561 0.0
C1010 C 0.30247 0.10384 0.73232 0.0
H1011 H 0.24682 0.14828 0.71508 0.0
H1012 H 0.27096 0.14048 0.71023 0.0
H1013 H 0.25261 0.12998 0.68742 0.0
H1014 H 0.27007 0.09838 0.6772 0.0
H1015 H 0.2986 0.09599 0.64796 0.0
H1016 H 0.64733 0.53597 0.39324 0.0
H1017 H 0.64244 0.51175 0.43244 0.0
H1018 H 0.59667 0.54777 0.46596 0.0
H1019 H 0.60251 0.57284 0.42774 0.0
H1020 H 0.61535 0.53545 0.50923 0.0
H1021 H 0.60495 0.46886 0.43878 0.0
H1022 H 0.62738 0.47963 0.43058 0.0
H1023 H 0.60613 0.49382 0.42372 0.0
C1024 C 0.63619 0.53867 0.40894 0.0
C1025 C 0.62523 0.55617 0.40747 0.0
C1026 C 0.63323 0.52468 0.43116 0.0
C1027 C 0.61874 0.52749 0.45167 0.0
C1028 C 0.60782 0.54511 0.45027 0.0
H1029 H 0.60152 0.4246 0.56937 0.0
H1030 H 0.59604 0.44979 0.53103 0.0
C1031 C 0.61116 0.55944 0.4285 0.0
C1032 C 0.61582 0.51256 0.47544 0.0
H1033 H 0.61536 0.46215 0.4888 0.0
C1034 C 0.615 0.51943 0.50467 0.0
C1035 C 0.61471 0.49163 0.46971 0.0
C1036 C 0.6131 0.48313 0.43895 0.0
C1037 C 0.61423 0.50598 0.52826 0.0
C1038 C 0.61533 0.48503 0.52261 0.0
C1039 C 0.615 0.47817 0.49334 0.0
C1040 C 0.61788 0.47011 0.54654 0.0
C1041 C 0.61212 0.51449 0.55891 0.0
C1042 C 0.6321 0.47292 0.5678 0.0
C1043 C 0.63483 0.45889 0.59005 0.0
C1044 C 0.62392 0.44132 0.59087 0.0
C1045 C 0.61009 0.43807 0.56917 0.0
C1046 C 0.60697 0.45245 0.54732 0.0
H1047 H 0.60397 0.52874 0.55856 0.0
H1048 H 0.60491 0.5038 0.57372 0.0
H1049 H 0.62626 0.51801 0.56812 0.0
H1050 H 0.6413 0.48588 0.56703 0.0
H1051 H 0.64582 0.46157 0.60625 0.0
H1052 H 0.33205 0.90173 0.26384 0.0
H1053 H 0.30157 0.90082 0.2382 0.0
H1054 H 0.273 0.89903 0.32157 0.0
H1055 H 0.3033 0.89947 0.34723 0.0
H1056 H 0.25853 0.87194 0.28204 0.0
H1057 H 0.26478 0.9473 0.23122 0.0
H1058 H 0.28384 0.93057 0.22269 0.0
H1059 H 0.28046 0.93888 0.25999 0.0
C1060 C 0.31926 0.90118 0.27666 0.0
C1061 C 0.32003 0.9008 0.30752 0.0
C1062 C 0.30187 0.90076 0.26201 0.0
C1063 C 0.28503 0.90021 0.27802 0.0
C1064 C 0.28583 0.89954 0.30881 0.0
H1065 H 0.1653 0.90403 0.23637 0.0
H1066 H 0.19602 0.90263 0.26134 0.0
C1067 C 0.30316 0.89983 0.32342 0.0
C1068 C 0.2665 0.9002 0.26287 0.0
H1069 H 0.23854 0.9275 0.21666 0.0
C1070 C 0.25413 0.88411 0.26781 0.0
C1071 C 0.26078 0.91614 0.24441 0.0
C1072 C 0.27307 0.9343 0.23943 0.0
C1073 C 0.23626 0.88341 0.25446 0.0
C1074 C 0.23062 0.8993 0.23594 0.0
C1075 C 0.24298 0.91535 0.2309 0.0
C1076 C 0.21201 0.89949 0.22121 0.0
C1077 C 0.22366 0.86556 0.25982 0.0
C1078 C 0.21093 0.8984 0.19048 0.0
C1079 C 0.19349 0.8992 0.17624 0.0
C1080 C 0.17682 0.90131 0.19248 0.0
C1081 C 0.17791 0.90239 0.22331 0.0
C1082 C 0.19541 0.90149 0.23758 0.0
H1083 H 0.23149 0.85281 0.26973 0.0
H1084 H 0.21227 0.87002 0.27513 0.0
H1085 H 0.21698 0.86038 0.23897 0.0
H1086 H 0.22361 0.89693 0.17751 0.0
H1087 H 0.19311 0.89835 0.15245 0.0
H1088 H 0.62589 0.08374 0.54049 0.0
H1089 H 0.62248 0.05577 0.50562 0.0
H1090 H 0.62606 0.01363 0.57712 0.0
H1091 H 0.62927 0.04149 0.61213 0.0
H1092 H 0.64992 0.02624 0.4984 0.0
H1093 H 0.58146 0.9921 0.52855 0.0
H1094 H 0.58812 0.01726 0.53962 0.0
H1095 H 0.59729 0.99591 0.55904 0.0
C1096 C 0.62565 0.06853 0.54882 0.0
C1097 C 0.62792 0.06477 0.579 0.0
C1098 C 0.62369 0.05259 0.52889 0.0
C1099 C 0.62382 0.03267 0.53884 0.0
C1100 C 0.62554 0.02891 0.56905 0.0
H1101 H 0.63452 0.915 0.45964 0.0
H1102 H 0.63013 0.94382 0.49272 0.0
C1103 C 0.62751 0.04484 0.58899 0.0
C1104 C 0.62405 0.01582 0.51746 0.0
H1105 H 0.60123 0.97272 0.49699 0.0
C1106 C 0.63917 0.01464 0.49785 0.0
C1107 C 0.61008 0.00067 0.51704 0.0
C1108 C 0.59322 0.00157 0.537 0.0
C1109 C 0.641 -0.00158 0.47827 0.0
C1110 C 0.62709 0.9832 0.4779 0.0
C1111 C 0.61185 0.98445 0.49734 0.0
C1112 C 0.62839 0.96569 0.45779 0.0
C1113 C 0.65813 0.99742 0.45882 0.0
C1114 C 0.62841 0.96843 0.42724 0.0
C1115 C 0.63106 0.95207 0.40837 0.0
C1116 C 0.63353 0.93265 0.41973 0.0
C1117 C 0.63277 0.92982 0.45029 0.0
C1118 C 0.63021 0.94623 0.46918 0.0
H1119 H 0.66962 0.00738 0.467 0.0
H1120 H 0.66362 0.98183 0.45729 0.0
H1121 H 0.65421 0.00239 0.43635 0.0
H1122 H 0.62662 0.98328 0.41802 0.0
H1123 H 0.63137 0.95467 0.38489 0.0
H1124 H 0.29983 0.3904 0.64658 0.0
H1125 H 0.27137 0.38916 0.67615 0.0
H1126 H 0.30512 0.38293 0.75475 0.0
H1127 H 0.3339 0.38444 0.72517 0.0
H1128 H 0.25874 0.35888 0.71315 0.0
H1129 H 0.27044 0.43056 0.77411 0.0
H1130 H 0.28359 0.4239 0.74164 0.0
H1131 H 0.28939 0.41272 0.77638 0.0
C1132 C 0.30127 0.38879 0.67017 0.0
C1133 C 0.31915 0.38761 0.68357 0.0
C1134 C 0.28496 0.38805 0.68702 0.0
C1135 C 0.28613 0.38619 0.71764 0.0
C1136 C 0.30393 0.38473 0.73116 0.0
H1137 H 0.20056 0.38413 0.85229 0.0
H1138 H 0.22969 0.38247 0.82431 0.0
C1139 C 0.32034 0.38548 0.71425 0.0
C1140 C 0.26858 0.3857 0.7351 0.0
H1141 H 0.24383 0.41141 0.78728 0.0
C1142 C 0.25547 0.37034 0.7294 0.0
C1143 C 0.26435 0.40073 0.75617 0.0
C1144 C 0.27758 0.41803 0.76236 0.0
C1145 C 0.23827 0.36948 0.74442 0.0
C1146 C 0.23398 0.38458 0.76533 0.0
C1147 C 0.24716 0.39987 0.77118 0.0
C1148 C 0.21604 0.38471 0.78181 0.0
C1149 C 0.22501 0.35223 0.73815 0.0
C1150 C 0.19863 0.38652 0.76718 0.0
C1151 C 0.18184 0.3874 0.78317 0.0
C1152 C 0.18226 0.38667 0.81403 0.0
C1153 C 0.19973 0.38475 0.82853 0.0
C1154 C 0.21642 0.38381 0.81258 0.0
H1155 H 0.23233 0.33942 0.72737 0.0
H1156 H 0.21839 0.34682 0.75868 0.0
H1157 H 0.21365 0.35739 0.72313 0.0
H1158 H 0.19804 0.38762 0.74345 0.0
H1159 H 0.16862 0.38901 0.77142 0.0
H1160 H 0.86903 0.07691 0.94377 0.0
H1161 H 0.87218 0.04938 0.97858 0.0
H1162 H 0.87092 0.00659 0.90693 0.0
H1163 H 0.86742 0.03416 0.87182 0.0
H1164 H 0.84569 -0.00206 0.95023 0.0
H1165 H 0.91584 0.01281 -0.00035 0.0
H1166 H 0.90078 0.03445 0.00053 0.0
H1167 H 0.90817 0.02423 0.96572 0.0
C1168 C 0.86968 0.06166 0.93535 0.0
C1169 C 0.86792 0.05765 0.90509 0.0
C1170 C 0.87165 0.04596 0.95528 0.0
C1171 C 0.87209 0.02598 0.94529 0.0
C1172 C 0.87075 0.02194 0.91502 0.0
H1173 H 0.86654 0.914 0.04332 0.0
H1174 H 0.87098 0.93892 0.0047 0.0
C1175 C 0.86874 0.03767 0.89503 0.0
C1176 C 0.87214 0.00936 0.96671 0.0
H1177 H 0.89546 0.99085 0.02657 0.0
C1178 C 0.8567 0.99618 0.96665 0.0
C1179 C 0.8865 0.00721 0.98816 0.0
C1180 C 0.90385 0.02031 0.98839 0.0
C1181 C 0.8549 0.98134 0.98815 0.0
C1182 C 0.86901 0.97953 0.01002 0.0
C1183 C 0.88464 0.99241 0.00979 0.0
C1184 C 0.86751 0.96455 0.03364 0.0
C1185 C 0.83761 0.96813 0.98793 0.0
C1186 C 0.86455 0.97082 0.06275 0.0
C1187 C 0.862 0.95663 0.08489 0.0
C1188 C 0.86249 0.936 0.07818 0.0
C1189 C 0.86597 0.92981 0.04911 0.0
C1190 C 0.86848 0.94398 0.02702 0.0
H1191 H 0.82641 0.974 0.97313 0.0
H1192 H 0.8415 0.95285 0.98018 0.0
H1193 H 0.83179 0.96676 0.01044 0.0
H1194 H 0.86381 0.98668 0.06819 0.0
H1195 H 0.85943 0.96182 0.10713 0.0
H1196 H 0.16811 0.60607 0.22486 0.0
H1197 H 0.19674 0.60619 0.2555 0.0
H1198 H 0.23076 0.61218 0.17783 0.0
H1199 H 0.20246 0.61183 0.14724 0.0
H1200 H 0.24282 0.58169 0.21503 0.0
H1201 H 0.23199 0.65326 0.27636 0.0
H1202 H 0.21279 0.6357 0.2779 0.0
H1203 H 0.21886 0.64696 0.24343 0.0
C1204 C 0.18169 0.6076 0.2144 0.0
C1205 C 0.18302 0.60893 0.18365 0.0
C1206 C 0.19802 0.60775 0.23191 0.0
C1207 C 0.21586 0.60937 0.21892 0.0
C1208 C 0.21714 0.61093 0.1883 0.0
H1209 H 0.33315 0.60709 0.27748 0.0
H1210 H 0.30398 0.60846 0.2483 0.0
C1211 C 0.20092 0.61075 0.17086 0.0
C1212 C 0.23336 0.60864 0.23686 0.0
H1213 H 0.25821 0.63348 0.29035 0.0
C1214 C 0.24622 0.59303 0.23147 0.0
C1215 C 0.23773 0.62344 0.25828 0.0
C1216 C 0.22472 0.6409 0.26427 0.0
C1217 C 0.26326 0.59169 0.24716 0.0
C1218 C 0.26771 0.60658 0.26842 0.0
C1219 C 0.2548 0.62213 0.27394 0.0
C1220 C 0.28547 0.60602 0.28576 0.0
C1221 C 0.27614 0.57409 0.24128 0.0
C1222 C 0.28473 0.60469 0.31647 0.0
C1223 C 0.30129 0.60407 0.33312 0.0
C1224 C 0.31898 0.60482 0.31941 0.0
C1225 C 0.31974 0.60635 0.28864 0.0
C1226 C 0.3031 0.60703 0.27195 0.0
H1227 H 0.26861 0.56153 0.23006 0.0
H1228 H 0.28776 0.57899 0.22679 0.0
H1229 H 0.28242 0.5684 0.26203 0.0
H1230 H 0.27129 0.60395 0.32758 0.0
H1231 H 0.3002 0.60292 0.35679 0.0
H1232 H 0.3674 0.02772 0.62288 0.0
H1233 H 0.37405 -0.0004 0.58935 0.0
H1234 H 0.37566 0.04068 0.51641 0.0
H1235 H 0.36934 0.06874 0.54965 0.0
H1236 H 0.35224 0.98731 0.54257 0.0
H1237 H 0.42323 0.00808 0.50371 0.0
H1238 H 0.41279 0.0193 0.53599 0.0
H1239 H 0.40676 0.02836 0.4999 0.0
C1240 C 0.36937 0.03074 0.59973 0.0
C1241 C 0.36788 0.05041 0.58886 0.0
C1242 C 0.37319 0.0147 0.58065 0.0
C1243 C 0.3757 0.01812 0.55051 0.0
C1244 C 0.37428 0.03776 0.5397 0.0
H1245 H 0.37324 0.95972 0.38564 0.0
H1246 H 0.37603 0.98188 0.42848 0.0
C1247 C 0.3705 0.05377 0.55871 0.0
C1248 C 0.37834 0.00112 0.52979 0.0
H1249 H 0.40567 0.98501 0.47286 0.0
C1250 C 0.36411 0.98653 0.52771 0.0
C1251 C 0.39387 0.00016 0.5105 0.0
C1252 C 0.41012 0.01471 0.51282 0.0
C1253 C 0.36441 0.9717 0.50566 0.0
C1254 C 0.37947 0.97137 0.48547 0.0
C1255 C 0.39412 0.9854 0.48835 0.0
C1256 C 0.37935 0.95773 0.4597 0.0
C1257 C 0.34814 0.95717 0.50311 0.0
C1258 C 0.38071 0.93684 0.4631 0.0
C1259 C 0.37912 0.9241 0.43862 0.0
C1260 C 0.37614 0.93212 0.41044 0.0
C1261 C 0.37543 0.95309 0.40707 0.0
C1262 C 0.37707 0.96577 0.4315 0.0
H1263 H 0.33624 0.96145 0.51761 0.0
H1264 H 0.34292 0.95637 0.48006 0.0
H1265 H 0.35297 0.94193 0.50941 0.0
H1266 H 0.3827 0.9304 0.48471 0.0
H1267 H 0.3798 0.90801 0.44187 0.0
H1268 H 0.83105 0.57592 0.22197 0.0
H1269 H 0.80117 0.57482 0.2488 0.0
H1270 H 0.78439 0.63068 0.20856 0.0
H1271 H 0.81354 0.63087 0.18017 0.0
H1272 H 0.78315 0.59563 0.28689 0.0
H1273 H 0.74097 0.59758 0.18446 0.0
H1274 H 0.76623 0.59529 0.18416 0.0
H1275 H 0.75527 0.61964 0.18785 0.0
C1276 C 0.821 0.58803 0.21923 0.0
C1277 C 0.82437 0.60339 0.19899 0.0
C1278 C 0.80393 0.58739 0.23445 0.0
C1279 C 0.79017 0.60232 0.22996 0.0
C1280 C 0.79435 0.61853 0.21146 0.0
H1281 H 0.69225 0.61597 0.34355 0.0
H1282 H 0.72312 0.61854 0.32036 0.0
C1283 C 0.8111 0.61881 0.19558 0.0
C1284 C 0.77131 0.60062 0.24383 0.0
H1285 H 0.72416 0.6029 0.22898 0.0
C1286 C 0.77025 0.59707 0.27418 0.0
C1287 C 0.75439 0.60196 0.22721 0.0
C1288 C 0.75426 0.60359 0.19409 0.0
C1289 C 0.75283 0.59514 0.2884 0.0
C1290 C 0.73594 0.59783 0.27208 0.0
C1291 C 0.73703 0.60113 0.24168 0.0
C1292 C 0.71696 0.5969 0.28578 0.0
C1293 C 0.75285 0.58961 0.32054 0.0
C1294 C 0.70273 0.58484 0.27317 0.0
C1295 C 0.68482 0.58402 0.28573 0.0
C1296 C 0.68094 0.59492 0.31148 0.0
C1297 C 0.69502 0.60719 0.3239 0.0
C1298 C 0.71274 0.60847 0.31085 0.0
H1299 H 0.76591 0.58141 0.32672 0.0
H1300 H 0.75232 0.60352 0.33408 0.0
H1301 H 0.74057 0.58006 0.32607 0.0
H1302 H 0.70552 0.57585 0.25373 0.0
H1303 H 0.67419 0.57442 0.27578 0.0
H1304 H 0.12421 0.96263 0.11805 0.0
H1305 H 0.12354 0.98546 0.07629 0.0
H1306 H 0.11902 0.93495 0.01673 0.0
H1307 H 0.11937 0.91191 0.05859 0.0
H1308 H 0.15058 0.98508 0.03233 0.0
H1309 H 0.0787 0.97387 0.98558 0.0
H1310 H 0.08501 0.96613 0.02234 0.0
H1311 H 0.09232 0.95143 0.9912 0.0
C1312 C 0.12278 0.95636 0.09611 0.0
C1313 C 0.12189 0.93548 0.09157 0.0
C1314 C 0.12241 0.96943 0.07228 0.0
C1315 C 0.12112 0.9619 0.04347 0.0
C1316 C 0.11969 0.94107 0.03883 0.0
H1317 H 0.13401 0.0287 0.87904 0.0
H1318 H 0.13021 0.00131 0.91449 0.0
C1319 C 0.11998 0.92794 0.06275 0.0
C1320 C 0.1228 0.97588 0.01848 0.0
H1321 H 0.09914 0.99544 0.95961 0.0
C1322 C 0.13935 0.9873 0.01639 0.0
C1323 C 0.10818 0.97859 0.9976 0.0
C1324 C 0.08996 0.96699 -0.00073 0.0
C1325 C 0.14156 0.00164 0.9943 0.0
C1326 C 0.12675 0.00476 0.97395 0.0
C1327 C 0.11042 0.99295 0.97537 0.0
C1328 C 0.12772 0.02107 0.95219 0.0
C1329 C 0.15966 0.01349 0.99297 0.0
C1330 C 0.1272 0.04113 0.96176 0.0
C1331 C 0.12933 0.05671 0.94171 0.0
C1332 C 0.13203 0.05248 0.91172 0.0
C1333 C 0.13204 0.03237 0.90205 0.0
C1334 C 0.12983 0.01674 0.92218 0.0
H1335 H 0.17114 0.00626 0.0058 0.0
H1336 H 0.16432 0.01522 0.96986 0.0
H1337 H 0.15727 0.02874 0.00227 0.0
H1338 H 0.12541 0.0447 0.98485 0.0
H1339 H 0.12917 0.07205 0.94981 0.0
H1340 H 0.67114 0.40463 0.7295 0.0
H1341 H 0.70227 0.40058 0.7524 0.0
H1342 H 0.72715 0.39315 0.66678 0.0
H1343 H 0.6962 0.3973 0.64374 0.0
H1344 H 0.72825 0.36718 0.74632 0.0
H1345 H 0.75792 0.43926 0.70586 0.0
H1346 H 0.73292 0.43424 0.70617 0.0
H1347 H 0.74753 0.423 0.67851 0.0
C1348 C 0.68325 0.40216 0.71558 0.0
C1349 C 0.68126 0.40143 0.68484 0.0
C1350 C 0.70099 0.39982 0.72867 0.0
C1351 C 0.717 0.39684 0.71122 0.0
C1352 C 0.715 0.39577 0.68057 0.0
H1353 H 0.83591 0.3919 0.76595 0.0
H1354 H 0.80714 0.39029 0.73563 0.0
C1355 C 0.69729 0.39807 0.66748 0.0
C1356 C 0.73579 0.39485 0.72515 0.0
H1357 H 0.77823 0.41844 0.73326 0.0
C1358 C 0.73922 0.37833 0.74341 0.0
C1359 C 0.75011 0.40933 0.72099 0.0
C1360 C 0.74699 0.42756 0.702 0.0
C1361 C 0.75655 0.37602 0.75799 0.0
C1362 C 0.77064 0.39087 0.75468 0.0
C1363 C 0.76741 0.40708 0.73571 0.0
C1364 C 0.78813 0.3908 0.77263 0.0
C1365 C 0.7596 0.3577 0.7768 0.0
C1366 C 0.78692 0.39183 0.80334 0.0
C1367 C 0.8032 0.39273 0.82058 0.0
C1368 C 0.82108 0.39282 0.80747 0.0
C1369 C 0.82233 0.39179 0.77666 0.0
C1370 C 0.80594 0.39088 0.75935 0.0
H1371 H 0.75046 0.34502 0.76954 0.0
H1372 H 0.77451 0.3527 0.77624 0.0
H1373 H 0.75595 0.36139 0.7999 0.0
H1374 H 0.77334 0.39231 0.81403 0.0
H1375 H 0.80171 0.39362 0.84423 0.0
loop_
_geom_bond_atom_site_label_1
_geom_bond_atom_site_label_2
_geom_bond_distance
_geom_bond_site_symmetry_2
_ccdc_geom_bond_type
Co0 O1 2.216 . S
Co0 O2 2.091 . S
Co0 O4 2.004 . S
Co0 O10 2.021 . S
Co0 O12 2.137 . S
Co0 O13 2.244 . S
O1 Co0 2.216 . S
O1 C8 1.247 . S
O2 Co0 2.091 . S
O2 C8 1.261 . S
C3 O12 1.247 . S
C3 O13 1.272 . S
O4 Co0 2.004 . S
O4 C9 1.259 . S
Co5 O6 2.061 . S
Co5 O11 2.052 . S
Co5 O13 2.135 . S
O6 Co5 2.061 . S
O6 C9 1.235 . S
C7 O10 1.238 . S
C7 O11 1.241 . S
C8 O1 1.247 . S
C8 O2 1.261 . S
C9 O4 1.259 . S
C9 O6 1.235 . S
O10 Co0 2.021 . S
O10 C7 1.238 . S
O11 Co5 2.052 . S
O11 C7 1.241 . S
O12 Co0 2.137 . S
O12 C3 1.247 . S
O13 Co0 2.244 . S
O13 C3 1.272 . S
O13 Co5 2.135 . S
Co14 O15 2.216 . S
Co14 O16 2.091 . S
Co14 O18 2.004 . S
Co14 O24 2.021 . S
Co14 O26 2.137 . S
Co14 O27 2.244 . S
O15 Co14 2.216 . S
O15 C22 1.247 . S
O16 Co14 2.091 . S
O16 C22 1.261 . S
C17 O26 1.247 . S
C17 O27 1.272 . S
O18 Co14 2.004 . S
O18 C23 1.259 . S
Co19 O20 2.061 . S
Co19 O25 2.052 . S
Co19 O27 2.135 . S
O20 Co19 2.061 . S
O20 C23 1.235 . S
C21 O24 1.238 . S
C21 O25 1.241 . S
C22 O15 1.247 . S
C22 O16 1.261 . S
C23 O18 1.259 . S
C23 O20 1.235 . S
O24 Co14 2.021 . S
O24 C21 1.238 . S
O25 Co19 2.052 . S
O25 C21 1.241 . S
O26 Co14 2.137 . S
O26 C17 1.247 . S
O27 Co14 2.244 . S
O27 C17 1.272 . S
O27 Co19 2.135 . S
Co28 O29 2.216 . S
Co28 O30 2.091 . S
Co28 O32 2.004 . S
Co28 O38 2.021 . S
Co28 O40 2.137 . S
Co28 O41 2.244 . S
O29 Co28 2.216 . S
O29 C36 1.247 . S
O30 Co28 2.091 . S
O30 C36 1.261 . S
C31 O40 1.247 . S
C31 O41 1.272 . S
O32 Co28 2.004 . S
O32 C37 1.259 . S
Co33 O34 2.061 . S
Co33 O39 2.052 . S
Co33 O41 2.135 . S
O34 Co33 2.061 . S
O34 C37 1.235 . S
C35 O38 1.238 . S
C35 O39 1.241 . S
C36 O29 1.247 . S
C36 O30 1.261 . S
C37 O32 1.259 . S
C37 O34 1.235 . S
O38 Co28 2.021 . S
O38 C35 1.238 . S
O39 Co33 2.052 . S
O39 C35 1.241 . S
O40 Co28 2.137 . S
O40 C31 1.247 . S
O41 Co28 2.244 . S
O41 C31 1.272 . S
O41 Co33 2.135 . S
Co42 O43 2.216 . S
Co42 O44 2.091 . S
Co42 O46 2.004 . S
Co42 O52 2.021 . S
Co42 O54 2.137 . S
Co42 O55 2.244 . S
O43 Co42 2.216 . S
O43 C50 1.247 . S
O44 Co42 2.091 . S
O44 C50 1.261 . S
C45 O54 1.247 . S
C45 O55 1.272 . S
O46 Co42 2.004 . S
O46 C51 1.259 . S
Co47 O48 2.061 . S
Co47 O53 2.052 . S
Co47 O55 2.135 . S
O48 Co47 2.061 . S
O48 C51 1.235 . S
C49 O52 1.238 . S
C49 O53 1.241 . S
C50 O43 1.247 . S
C50 O44 1.261 . S
C51 O46 1.259 . S
C51 O48 1.235 . S
O52 Co42 2.021 . S
O52 C49 1.238 . S
O53 Co47 2.052 . S
O53 C49 1.241 . S
O54 Co42 2.137 . S
O54 C45 1.247 . S
O55 Co42 2.244 . S
O55 C45 1.272 . S
O55 Co47 2.135 . S
Co56 O57 2.216 . S
Co56 O58 2.091 . S
Co56 O60 2.004 . S
Co56 O66 2.021 . S
Co56 O68 2.137 . S
Co56 O69 2.244 . S
O57 Co56 2.216 . S
O57 C64 1.247 . S
O58 Co56 2.091 . S
O58 C64 1.261 . S
C59 O68 1.247 . S
C59 O69 1.272 . S
O60 Co56 2.004 . S
O60 C65 1.259 . S
Co61 O62 2.061 . S
Co61 O67 2.052 . S
Co61 O69 2.135 . S
O62 Co61 2.061 . S
O62 C65 1.235 . S
C63 O66 1.238 . S
C63 O67 1.241 . S
C64 O57 1.247 . S
C64 O58 1.261 . S
C65 O60 1.259 . S
C65 O62 1.235 . S
O66 Co56 2.021 . S
O66 C63 1.238 . S
O67 Co61 2.052 . S
O67 C63 1.241 . S
O68 Co56 2.137 . S
O68 C59 1.247 . S
O69 Co56 2.244 . S
O69 C59 1.272 . S
O69 Co61 2.135 . S
Co70 O71 2.216 . S
Co70 O72 2.091 . S
Co70 O74 2.004 . S
Co70 O80 2.021 . S
Co70 O82 2.137 . S
Co70 O83 2.244 . S
O71 Co70 2.216 . S
O71 C78 1.247 . S
O72 Co70 2.091 . S
O72 C78 1.261 . S
C73 O82 1.247 . S
C73 O83 1.272 . S
O74 Co70 2.004 . S
O74 C79 1.259 . S
Co75 O76 2.061 . S
Co75 O81 2.052 . S
Co75 O83 2.135 . S
O76 Co75 2.061 . S
O76 C79 1.235 . S
C77 O80 1.238 . S
C77 O81 1.241 . S
C78 O71 1.247 . S
C78 O72 1.261 . S
C79 O74 1.259 . S
C79 O76 1.235 . S
O80 Co70 2.021 . S
O80 C77 1.238 . S
O81 Co75 2.052 . S
O81 C77 1.241 . S
O82 Co70 2.137 . S
O82 C73 1.247 . S
O83 Co70 2.244 . S
O83 C73 1.272 . S
O83 Co75 2.135 . S
Co84 O85 2.216 . S
Co84 O86 2.091 . S
Co84 O88 2.004 . S
Co84 O94 2.021 . S
Co84 O96 2.137 . S
Co84 O97 2.244 . S
O85 Co84 2.216 . S
O85 C92 1.247 . S
O86 Co84 2.091 . S
O86 C92 1.261 . S
C87 O96 1.247 . S
C87 O97 1.272 . S
O88 Co84 2.004 . S
O88 C93 1.259 . S
Co89 O90 2.061 . S
Co89 O95 2.052 . S
Co89 O97 2.135 . S
O90 Co89 2.061 . S
O90 C93 1.235 . S
C91 O94 1.238 . S
C91 O95 1.241 . S
C92 O85 1.247 . S
C92 O86 1.261 . S
C93 O88 1.259 . S
C93 O90 1.235 . S
O94 Co84 2.021 . S
O94 C91 1.238 . S
O95 Co89 2.052 . S
O95 C91 1.241 . S
O96 Co84 2.137 . S
O96 C87 1.247 . S
O97 Co84 2.244 . S
O97 C87 1.272 . S
O97 Co89 2.135 . S
Co98 O99 2.216 . S
Co98 O100 2.091 . S
Co98 O102 2.004 . S
Co98 O108 2.021 . S
Co98 O110 2.137 . S
Co98 O111 2.244 . S
O99 Co98 2.216 . S
O99 C106 1.247 . S
O100 Co98 2.091 . S
O100 C106 1.261 . S
C101 O110 1.247 . S
C101 O111 1.272 . S
O102 Co98 2.004 . S
O102 C107 1.259 . S
Co103 O104 2.061 . S
Co103 O109 2.052 . S
Co103 O111 2.135 . S
O104 Co103 2.061 . S
O104 C107 1.235 . S
C105 O108 1.238 . S
C105 O109 1.241 . S
C106 O99 1.247 . S
C106 O100 1.261 . S
C107 O102 1.259 . S
C107 O104 1.235 . S
O108 Co98 2.021 . S
O108 C105 1.238 . S
O109 Co103 2.052 . S
O109 C105 1.241 . S
O110 Co98 2.137 . S
O110 C101 1.247 . S
O111 Co98 2.244 . S
O111 C101 1.272 . S
O111 Co103 2.135 . S
Co112 O113 2.216 . S
Co112 O114 2.091 . S
Co112 O116 2.004 . S
Co112 O122 2.021 . S
Co112 O124 2.137 . S
Co112 O125 2.244 . S
O113 Co112 2.216 . S
O113 C120 1.247 . S
O114 Co112 2.091 . S
O114 C120 1.261 . S
C115 O124 1.247 . S
C115 O125 1.272 . S
O116 Co112 2.004 . S
O116 C121 1.259 . S
Co117 O118 2.061 . S
Co117 O123 2.052 . S
Co117 O125 2.135 . S
O118 Co117 2.061 . S
O118 C121 1.235 . S
C119 O122 1.238 . S
C119 O123 1.241 . S
C120 O113 1.247 . S
C120 O114 1.261 . S
C121 O116 1.259 . S
C121 O118 1.235 . S
O122 Co112 2.021 . S
O122 C119 1.238 . S
O123 Co117 2.052 . S
O123 C119 1.241 . S
O124 Co112 2.137 . S
O124 C115 1.247 . S
O125 Co112 2.244 . S
O125 C115 1.272 . S
O125 Co117 2.135 . S
Co126 O127 2.216 . S
Co126 O128 2.091 . S
Co126 O130 2.004 . S
Co126 O136 2.021 . S
Co126 O138 2.137 . S
Co126 O139 2.244 . S
O127 Co126 2.216 . S
O127 C134 1.247 . S
O128 Co126 2.091 . S
O128 C134 1.261 . S
C129 O138 1.247 . S
C129 O139 1.272 . S
O130 Co126 2.004 . S
O130 C135 1.259 . S
Co131 O132 2.061 . S
Co131 O137 2.052 . S
Co131 O139 2.135 . S
O132 Co131 2.061 . S
O132 C135 1.235 . S
C133 O136 1.238 . S
C133 O137 1.241 . S
C134 O127 1.247 . S
C134 O128 1.261 . S
C135 O130 1.259 . S
C135 O132 1.235 . S
O136 Co126 2.021 . S
O136 C133 1.238 . S
O137 Co131 2.052 . S
O137 C133 1.241 . S
O138 Co126 2.137 . S
O138 C129 1.247 . S
O139 Co126 2.244 . S
O139 C129 1.272 . S
O139 Co131 2.135 . S
Co140 O141 2.216 . S
Co140 O142 2.091 . S
Co140 O144 2.004 . S
Co140 O150 2.021 . S
Co140 O152 2.137 . S
Co140 O153 2.244 . S
O141 Co140 2.216 . S
O141 C148 1.247 . S
O142 Co140 2.091 . S
O142 C148 1.261 . S
C143 O152 1.247 . S
C143 O153 1.272 . S
O144 Co140 2.004 . S
O144 C149 1.259 . S
Co145 O146 2.061 . S
Co145 O151 2.052 . S
Co145 O153 2.135 . S
O146 Co145 2.061 . S
O146 C149 1.235 . S
C147 O150 1.238 . S
C147 O151 1.241 . S
C148 O141 1.247 . S
C148 O142 1.261 . S
C149 O144 1.259 . S
C149 O146 1.235 . S
O150 Co140 2.021 . S
O150 C147 1.238 . S
O151 Co145 2.052 . S
O151 C147 1.241 . S
O152 Co140 2.137 . S
O152 C143 1.247 . S
O153 Co140 2.244 . S
O153 C143 1.272 . S
O153 Co145 2.135 . S
Co154 O155 2.216 . S
Co154 O156 2.091 . S
Co154 O158 2.004 . S
Co154 O164 2.021 . S
Co154 O166 2.137 . S
Co154 O167 2.244 . S
O155 Co154 2.216 . S
O155 C162 1.247 . S
O156 Co154 2.091 . S
O156 C162 1.261 . S
C157 O166 1.247 . S
C157 O167 1.272 . S
O158 Co154 2.004 . S
O158 C163 1.259 . S
Co159 O160 2.061 . S
Co159 O165 2.052 . S
Co159 O167 2.135 . S
O160 Co159 2.061 . S
O160 C163 1.235 . S
C161 O164 1.238 . S
C161 O165 1.241 . S
C162 O155 1.247 . S
C162 O156 1.261 . S
C163 O158 1.259 . S
C163 O160 1.235 . S
O164 Co154 2.021 . S
O164 C161 1.238 . S
O165 Co159 2.052 . S
O165 C161 1.241 . S
O166 Co154 2.137 . S
O166 C157 1.247 . S
O167 Co154 2.244 . S
O167 C157 1.272 . S
O167 Co159 2.135 . S
Co168 O169 2.216 . S
Co168 O170 2.091 . S
Co168 O172 2.004 . S
Co168 O178 2.021 . S
Co168 O180 2.137 . S
Co168 O181 2.244 . S
O169 Co168 2.216 . S
O169 C176 1.247 . S
O170 Co168 2.091 . S
O170 C176 1.261 . S
C171 O180 1.247 . S
C171 O181 1.272 . S
O172 Co168 2.004 . S
O172 C177 1.259 . S
Co173 O174 2.061 . S
Co173 O179 2.052 . S
Co173 O181 2.135 . S
O174 Co173 2.061 . S
O174 C177 1.235 . S
C175 O178 1.238 . S
C175 O179 1.241 . S
C176 O169 1.247 . S
C176 O170 1.261 . S
C177 O172 1.259 . S
C177 O174 1.235 . S
O178 Co168 2.021 . S
O178 C175 1.238 . S
O179 Co173 2.052 . S
O179 C175 1.241 . S
O180 Co168 2.137 . S
O180 C171 1.247 . S
O181 Co168 2.244 . S
O181 C171 1.272 . S
O181 Co173 2.135 . S
Co182 O183 2.216 . S
Co182 O184 2.091 . S
Co182 O186 2.004 . S
Co182 O192 2.021 . S
Co182 O194 2.137 . S
Co182 O195 2.244 . S
O183 Co182 2.216 . S
O183 C190 1.247 . S
O184 Co182 2.091 . S
O184 C190 1.261 . S
C185 O194 1.247 . S
C185 O195 1.272 . S
O186 Co182 2.004 . S
O186 C191 1.259 . S
Co187 O188 2.061 . S
Co187 O193 2.052 . S
Co187 O195 2.135 . S
O188 Co187 2.061 . S
O188 C191 1.235 . S
C189 O192 1.238 . S
C189 O193 1.241 . S
C190 O183 1.247 . S
C190 O184 1.261 . S
C191 O186 1.259 . S
C191 O188 1.235 . S
O192 Co182 2.021 . S
O192 C189 1.238 . S
O193 Co187 2.052 . S
O193 C189 1.241 . S
O194 Co182 2.137 . S
O194 C185 1.247 . S
O195 Co182 2.244 . S
O195 C185 1.272 . S
O195 Co187 2.135 . S
Co196 O197 2.216 . S
Co196 O198 2.091 . S
Co196 O200 2.004 . S
Co196 O206 2.021 . S
Co196 O208 2.137 . S
Co196 O209 2.244 . S
O197 Co196 2.216 . S
O197 C204 1.247 . S
O198 Co196 2.091 . S
O198 C204 1.261 . S
C199 O208 1.247 . S
C199 O209 1.272 . S
O200 Co196 2.004 . S
O200 C205 1.259 . S
Co201 O202 2.061 . S
Co201 O207 2.052 . S
Co201 O209 2.135 . S
O202 Co201 2.061 . S
O202 C205 1.235 . S
C203 O206 1.238 . S
C203 O207 1.241 . S
C204 O197 1.247 . S
C204 O198 1.261 . S
C205 O200 1.259 . S
C205 O202 1.235 . S
O206 Co196 2.021 . S
O206 C203 1.238 . S
O207 Co201 2.052 . S
O207 C203 1.241 . S
O208 Co196 2.137 . S
O208 C199 1.247 . S
O209 Co196 2.244 . S
O209 C199 1.272 . S
O209 Co201 2.135 . S
Co210 O211 2.216 . S
Co210 O212 2.091 . S
Co210 O214 2.004 . S
Co210 O220 2.021 . S
Co210 O222 2.137 . S
Co210 O223 2.244 . S
O211 Co210 2.216 . S
O211 C218 1.247 . S
O212 Co210 2.091 . S
O212 C218 1.261 . S
C213 O222 1.247 . S
C213 O223 1.272 . S
O214 Co210 2.004 . S
O214 C219 1.259 . S
Co215 O216 2.061 . S
Co215 O221 2.052 . S
Co215 O223 2.135 . S
O216 Co215 2.061 . S
O216 C219 1.235 . S
C217 O220 1.238 . S
C217 O221 1.241 . S
C218 O211 1.247 . S
C218 O212 1.261 . S
C219 O214 1.259 . S
C219 O216 1.235 . S
O220 Co210 2.021 . S
O220 C217 1.238 . S
O221 Co215 2.052 . S
O221 C217 1.241 . S
O222 Co210 2.137 . S
O222 C213 1.247 . S
O223 Co210 2.244 . S
O223 C213 1.272 . S
O223 Co215 2.135 . S
H224 C232 0.929 . S
H225 C234 0.930 . S
H226 C236 0.930 . S
H227 C239 0.929 . S
H228 C242 0.930 . S
H229 C244 0.960 . S
H230 C244 0.960 . S
H231 C244 0.960 . S
C232 H224 0.929 . S
C232 C233 1.377 . S
C232 C234 1.384 . S
C233 C232 1.377 . S
C233 C239 1.390 . S
C234 H225 0.930 . S
C234 C232 1.384 . S
C234 C235 1.372 . S
C235 C234 1.372 . S
C235 C236 1.400 . S
C235 C240 1.490 . S
C236 H226 0.930 . S
C236 C235 1.400 . S
C236 C239 1.386 . S
H237 C253 0.930 . S
H238 C254 0.931 . S
C239 H227 0.929 . S
C239 C233 1.390 . S
C239 C236 1.386 . S
C240 C235 1.490 . S
C240 C242 1.395 . S
C240 C243 1.403 . S
H241 C247 0.930 . S
C242 H228 0.930 . S
C242 C240 1.395 . S
C242 C245 1.403 . S
C243 C240 1.403 . S
C243 C244 1.524 . S
C243 C247 1.400 . S
C244 H229 0.960 . S
C244 H230 0.960 . S
C244 H231 0.960 . S
C244 C243 1.524 . S
C245 C242 1.403 . S
C245 C246 1.392 . S
C245 C249 1.495 . S
C246 C245 1.392 . S
C246 C247 1.385 . S
C246 C248 1.478 . S
C247 H241 0.930 . S
C247 C243 1.400 . S
C247 C246 1.385 . S
C248 C246 1.478 . S
C248 C250 1.381 . S
C248 C254 1.383 . S
C249 C245 1.495 . S
C249 H255 0.959 . S
C249 H256 0.961 . S
C249 H257 0.960 . S
C250 C248 1.381 . S
C250 C251 1.394 . S
C250 H258 0.930 . S
C251 C250 1.394 . S
C251 C252 1.383 . S
C251 H259 0.929 . S
C252 C251 1.383 . S
C252 C253 1.377 . S
C253 H237 0.930 . S
C253 C252 1.377 . S
C253 C254 1.379 . S
C254 H238 0.931 . S
C254 C248 1.383 . S
C254 C253 1.379 . S
H255 C249 0.959 . S
H256 C249 0.961 . S
H257 C249 0.960 . S
H258 C250 0.930 . S
H259 C251 0.929 . S
H260 C268 0.929 . S
H261 C270 0.930 . S
H262 C272 0.930 . S
H263 C275 0.929 . S
H264 C278 0.930 . S
H265 C280 0.960 . S
H266 C280 0.960 . S
H267 C280 0.960 . S
C268 H260 0.929 . S
C268 C269 1.377 . S
C268 C270 1.384 . S
C269 C268 1.377 . S
C269 C275 1.390 . S
C270 H261 0.930 . S
C270 C268 1.384 . S
C270 C271 1.372 . S
C271 C270 1.372 . S
C271 C272 1.400 . S
C271 C276 1.490 . S
C272 H262 0.930 . S
C272 C271 1.400 . S
C272 C275 1.386 . S
H273 C289 0.930 . S
H274 C290 0.931 . S
C275 H263 0.929 . S
C275 C269 1.390 . S
C275 C272 1.386 . S
C276 C271 1.490 . S
C276 C278 1.395 . S
C276 C279 1.403 . S
H277 C283 0.930 . S
C278 H264 0.930 . S
C278 C276 1.395 . S
C278 C281 1.403 . S
C279 C276 1.403 . S
C279 C280 1.524 . S
C279 C283 1.400 . S
C280 H265 0.960 . S
C280 H266 0.960 . S
C280 H267 0.960 . S
C280 C279 1.524 . S
C281 C278 1.403 . S
C281 C282 1.392 . S
C281 C285 1.495 . S
C282 C281 1.392 . S
C282 C283 1.385 . S
C282 C284 1.478 . S
C283 H277 0.930 . S
C283 C279 1.400 . S
C283 C282 1.385 . S
C284 C282 1.478 . S
C284 C286 1.381 . S
C284 C290 1.383 . S
C285 C281 1.495 . S
C285 H291 0.959 . S
C285 H292 0.961 . S
C285 H293 0.960 . S
C286 C284 1.381 . S
C286 C287 1.394 . S
C286 H294 0.930 . S
C287 C286 1.394 . S
C287 C288 1.383 . S
C287 H295 0.929 . S
C288 C287 1.383 . S
C288 C289 1.377 . S
C289 H273 0.930 . S
C289 C288 1.377 . S
C289 C290 1.379 . S
C290 H274 0.931 . S
C290 C284 1.383 . S
C290 C289 1.379 . S
H291 C285 0.959 . S
H292 C285 0.961 . S
H293 C285 0.960 . S
H294 C286 0.930 . S
H295 C287 0.929 . S
H296 C304 0.929 . S
H297 C306 0.930 . S
H298 C308 0.930 . S
H299 C311 0.929 . S
H300 C314 0.930 . S
H301 C316 0.960 . S
H302 C316 0.960 . S
H303 C316 0.960 . S
C304 H296 0.929 . S
C304 C305 1.377 . S
C304 C306 1.384 . S
C305 C304 1.377 . S
C305 C311 1.390 . S
C306 H297 0.930 . S
C306 C304 1.384 . S
C306 C307 1.372 . S
C307 C306 1.372 . S
C307 C308 1.400 . S
C307 C312 1.490 . S
C308 H298 0.930 . S
C308 C307 1.400 . S
C308 C311 1.386 . S
H309 C325 0.930 . S
H310 C326 0.931 . S
C311 H299 0.929 . S
C311 C305 1.390 . S
C311 C308 1.386 . S
C312 C307 1.490 . S
C312 C314 1.395 . S
C312 C315 1.403 . S
H313 C319 0.930 . S
C314 H300 0.930 . S
C314 C312 1.395 . S
C314 C317 1.403 . S
C315 C312 1.403 . S
C315 C316 1.524 . S
C315 C319 1.400 . S
C316 H301 0.960 . S
C316 H302 0.960 . S
C316 H303 0.960 . S
C316 C315 1.524 . S
C317 C314 1.403 . S
C317 C318 1.392 . S
C317 C321 1.495 . S
C318 C317 1.392 . S
C318 C319 1.385 . S
C318 C320 1.478 . S
C319 H313 0.930 . S
C319 C315 1.400 . S
C319 C318 1.385 . S
C320 C318 1.478 . S
C320 C322 1.381 . S
C320 C326 1.383 . S
C321 C317 1.495 . S
C321 H327 0.959 . S
C321 H328 0.961 . S
C321 H329 0.960 . S
C322 C320 1.381 . S
C322 C323 1.394 . S
C322 H330 0.930 . S
C323 C322 1.394 . S
C323 C324 1.383 . S
C323 H331 0.929 . S
C324 C323 1.383 . S
C324 C325 1.377 . S
C325 H309 0.930 . S
C325 C324 1.377 . S
C325 C326 1.379 . S
C326 H310 0.931 . S
C326 C320 1.383 . S
C326 C325 1.379 . S
H327 C321 0.959 . S
H328 C321 0.961 . S
H329 C321 0.960 . S
H330 C322 0.930 . S
H331 C323 0.929 . S
H332 C340 0.929 . S
H333 C342 0.930 . S
H334 C344 0.930 . S
H335 C347 0.929 . S
H336 C350 0.930 . S
H337 C352 0.960 . S
H338 C352 0.960 . S
H339 C352 0.960 . S
C340 H332 0.929 . S
C340 C341 1.377 . S
C340 C342 1.384 . S
C341 C340 1.377 . S
C341 C347 1.390 . S
C342 H333 0.930 . S
C342 C340 1.384 . S
C342 C343 1.372 . S
C343 C342 1.372 . S
C343 C344 1.400 . S
C343 C348 1.490 . S
C344 H334 0.930 . S
C344 C343 1.400 . S
C344 C347 1.386 . S
H345 C361 0.930 . S
H346 C362 0.931 . S
C347 H335 0.929 . S
C347 C341 1.390 . S
C347 C344 1.386 . S
C348 C343 1.490 . S
C348 C350 1.395 . S
C348 C351 1.403 . S
H349 C355 0.930 . S
C350 H336 0.930 . S
C350 C348 1.395 . S
C350 C353 1.403 1_455 S
C351 C348 1.403 . S
C351 C352 1.524 . S
C351 C355 1.400 1_455 S
C352 H337 0.960 . S
C352 H338 0.960 . S
C352 H339 0.960 . S
C352 C351 1.524 . S
C353 C350 1.403 1_655 S
C353 C354 1.392 . S
C353 C357 1.495 . S
C354 C353 1.392 . S
C354 C355 1.385 . S
C354 C356 1.478 . S
C355 H349 0.930 . S
C355 C351 1.400 1_655 S
C355 C354 1.385 . S
C356 C354 1.478 . S
C356 C358 1.381 . S
C356 C362 1.383 . S
C357 C353 1.495 . S
C357 H363 0.959 . S
C357 H364 0.961 . S
C357 H365 0.960 . S
C358 C356 1.381 . S
C358 C359 1.394 . S
C358 H366 0.930 . S
C359 C358 1.394 . S
C359 C360 1.383 . S
C359 H367 0.929 . S
C360 C359 1.383 . S
C360 C361 1.377 . S
C361 H345 0.930 . S
C361 C360 1.377 . S
C361 C362 1.379 . S
C362 H346 0.931 . S
C362 C356 1.383 . S
C362 C361 1.379 . S
H363 C357 0.959 . S
H364 C357 0.961 . S
H365 C357 0.960 . S
H366 C358 0.930 . S
H367 C359 0.929 . S
H368 C376 0.929 . S
H369 C378 0.930 . S
H370 C380 0.930 . S
H371 C383 0.929 . S
H372 C386 0.930 . S
H373 C388 0.960 . S
H374 C388 0.960 . S
H375 C388 0.960 . S
C376 H368 0.929 . S
C376 C377 1.377 . S
C376 C378 1.384 . S
C377 C376 1.377 . S
C377 C383 1.390 . S
C378 H369 0.930 . S
C378 C376 1.384 . S
C378 C379 1.372 . S
C379 C378 1.372 . S
C379 C380 1.400 . S
C379 C384 1.490 . S
C380 H370 0.930 . S
C380 C379 1.400 . S
C380 C383 1.386 . S
H381 C397 0.930 . S
H382 C398 0.931 . S
C383 H371 0.929 . S
C383 C377 1.390 . S
C383 C380 1.386 . S
C384 C379 1.490 . S
C384 C386 1.395 . S
C384 C387 1.403 . S
H385 C391 0.930 . S
C386 H372 0.930 . S
C386 C384 1.395 . S
C386 C389 1.403 . S
C387 C384 1.403 . S
C387 C388 1.524 . S
C387 C391 1.400 . S
C388 H373 0.960 . S
C388 H374 0.960 . S
C388 H375 0.960 . S
C388 C387 1.524 . S
C389 C386 1.403 . S
C389 C390 1.392 . S
C389 C393 1.495 . S
C390 C389 1.392 . S
C390 C391 1.385 . S
C390 C392 1.478 . S
C391 H385 0.930 . S
C391 C387 1.400 . S
C391 C390 1.385 . S
C392 C390 1.478 . S
C392 C394 1.381 . S
C392 C398 1.383 . S
C393 C389 1.495 . S
C393 H399 0.959 . S
C393 H400 0.961 . S
C393 H401 0.960 . S
C394 C392 1.381 . S
C394 C395 1.394 . S
C394 H402 0.930 . S
C395 C394 1.394 . S
C395 C396 1.383 . S
C395 H403 0.929 . S
C396 C395 1.383 . S
C396 C397 1.377 . S
C397 H381 0.930 . S
C397 C396 1.377 . S
C397 C398 1.379 . S
C398 H382 0.931 . S
C398 C392 1.383 . S
C398 C397 1.379 . S
H399 C393 0.959 . S
H400 C393 0.961 . S
H401 C393 0.960 . S
H402 C394 0.930 . S
H403 C395 0.929 . S
H404 C412 0.929 . S
H405 C414 0.930 . S
H406 C416 0.930 . S
H407 C419 0.929 . S
H408 C422 0.930 . S
H409 C424 0.960 . S
H410 C424 0.960 . S
H411 C424 0.960 . S
C412 H404 0.929 . S
C412 C413 1.377 . S
C412 C414 1.384 . S
C413 C412 1.377 . S
C413 C419 1.390 . S
C414 H405 0.930 . S
C414 C412 1.384 . S
C414 C415 1.372 . S
C415 C414 1.372 . S
C415 C416 1.400 . S
C415 C420 1.490 . S
C416 H406 0.930 . S
C416 C415 1.400 . S
C416 C419 1.386 . S
H417 C433 0.930 . S
H418 C434 0.931 . S
C419 H407 0.929 . S
C419 C413 1.390 . S
C419 C416 1.386 . S
C420 C415 1.490 . S
C420 C422 1.395 . S
C420 C423 1.403 . S
H421 C427 0.930 . S
C422 H408 0.930 . S
C422 C420 1.395 . S
C422 C425 1.403 1_655 S
C423 C420 1.403 . S
C423 C424 1.524 . S
C423 C427 1.400 1_655 S
C424 H409 0.960 . S
C424 H410 0.960 . S
C424 H411 0.960 . S
C424 C423 1.524 . S
C425 C422 1.403 1_455 S
C425 C426 1.392 . S
C425 C429 1.495 . S
C426 C425 1.392 . S
C426 C427 1.385 . S
C426 C428 1.478 . S
C427 H421 0.930 . S
C427 C423 1.400 1_455 S
C427 C426 1.385 . S
C428 C426 1.478 . S
C428 C430 1.381 . S
C428 C434 1.383 . S
C429 C425 1.495 . S
C429 H435 0.959 . S
C429 H436 0.961 . S
C429 H437 0.960 . S
C430 C428 1.381 . S
C430 C431 1.394 . S
C430 H438 0.930 . S
C431 C430 1.394 . S
C431 C432 1.383 . S
C431 H439 0.929 . S
C432 C431 1.383 . S
C432 C433 1.377 . S
C433 H417 0.930 . S
C433 C432 1.377 . S
C433 C434 1.379 . S
C434 H418 0.931 . S
C434 C428 1.383 . S
C434 C433 1.379 . S
H435 C429 0.959 . S
H436 C429 0.961 . S
H437 C429 0.960 . S
H438 C430 0.930 . S
H439 C431 0.929 . S
H440 C448 0.929 . S
H441 C450 0.930 . S
H442 C452 0.930 . S
H443 C455 0.929 . S
H444 C458 0.930 . S
H445 C460 0.960 . S
H446 C460 0.960 . S
H447 C460 0.960 . S
C448 H440 0.929 . S
C448 C449 1.377 . S
C448 C450 1.384 . S
C449 C448 1.377 . S
C449 C455 1.390 . S
C450 H441 0.930 . S
C450 C448 1.384 . S
C450 C451 1.372 . S
C451 C450 1.372 . S
C451 C452 1.400 . S
C451 C456 1.490 . S
C452 H442 0.930 . S
C452 C451 1.400 . S
C452 C455 1.386 . S
H453 C469 0.930 . S
H454 C470 0.931 . S
C455 H443 0.929 . S
C455 C449 1.390 . S
C455 C452 1.386 . S
C456 C451 1.490 . S
C456 C458 1.395 . S
C456 C459 1.403 . S
H457 C463 0.930 . S
C458 H444 0.930 . S
C458 C456 1.395 . S
C458 C461 1.403 . S
C459 C456 1.403 . S
C459 C460 1.524 . S
C459 C463 1.400 . S
C460 H445 0.960 . S
C460 H446 0.960 . S
C460 H447 0.960 . S
C460 C459 1.524 . S
C461 C458 1.403 . S
C461 C462 1.392 . S
C461 C465 1.495 . S
C462 C461 1.392 . S
C462 C463 1.385 . S
C462 C464 1.478 . S
C463 H457 0.930 . S
C463 C459 1.400 . S
C463 C462 1.385 . S
C464 C462 1.478 . S
C464 C466 1.381 . S
C464 C470 1.383 . S
C465 C461 1.495 . S
C465 H471 0.959 . S
C465 H472 0.961 . S
C465 H473 0.960 . S
C466 C464 1.381 . S
C466 C467 1.394 . S
C466 H474 0.930 . S
C467 C466 1.394 . S
C467 C468 1.383 . S
C467 H475 0.929 . S
C468 C467 1.383 . S
C468 C469 1.377 . S
C469 H453 0.930 . S
C469 C468 1.377 . S
C469 C470 1.379 . S
C470 H454 0.931 . S
C470 C464 1.383 . S
C470 C469 1.379 . S
H471 C465 0.959 . S
H472 C465 0.961 . S
H473 C465 0.960 . S
H474 C466 0.930 . S
H475 C467 0.929 . S
H476 C484 0.929 . S
H477 C486 0.930 . S
H478 C488 0.930 . S
H479 C491 0.929 . S
H480 C494 0.930 . S
H481 C496 0.960 . S
H482 C496 0.960 . S
H483 C496 0.960 . S
C484 H476 0.929 . S
C484 C485 1.377 . S
C484 C486 1.384 . S
C485 C484 1.377 . S
C485 C491 1.390 . S
C486 H477 0.930 . S
C486 C484 1.384 . S
C486 C487 1.372 . S
C487 C486 1.372 . S
C487 C488 1.400 . S
C487 C492 1.490 . S
C488 H478 0.930 . S
C488 C487 1.400 . S
C488 C491 1.386 . S
H489 C505 0.930 . S
H490 C506 0.931 . S
C491 H479 0.929 . S
C491 C485 1.390 . S
C491 C488 1.386 . S
C492 C487 1.490 . S
C492 C494 1.395 . S
C492 C495 1.403 . S
H493 C499 0.930 . S
C494 H480 0.930 . S
C494 C492 1.395 . S
C494 C497 1.403 . S
C495 C492 1.403 . S
C495 C496 1.524 . S
C495 C499 1.400 . S
C496 H481 0.960 . S
C496 H482 0.960 . S
C496 H483 0.960 . S
C496 C495 1.524 . S
C497 C494 1.403 . S
C497 C498 1.392 . S
C497 C501 1.495 . S
C498 C497 1.392 . S
C498 C499 1.385 . S
C498 C500 1.478 . S
C499 H493 0.930 . S
C499 C495 1.400 . S
C499 C498 1.385 . S
C500 C498 1.478 . S
C500 C502 1.381 . S
C500 C506 1.383 . S
C501 C497 1.495 . S
C501 H507 0.959 . S
C501 H508 0.961 . S
C501 H509 0.960 . S
C502 C500 1.381 . S
C502 C503 1.394 . S
C502 H510 0.930 . S
C503 C502 1.394 . S
C503 C504 1.383 . S
C503 H511 0.929 . S
C504 C503 1.383 . S
C504 C505 1.377 . S
C505 H489 0.930 . S
C505 C504 1.377 . S
C505 C506 1.379 . S
C506 H490 0.931 . S
C506 C500 1.383 . S
C506 C505 1.379 . S
H507 C501 0.959 . S
H508 C501 0.961 . S
H509 C501 0.960 . S
H510 C502 0.930 . S
H511 C503 0.929 . S
H512 C520 0.929 . S
H513 C522 0.930 . S
H514 C524 0.930 . S
H515 C527 0.929 . S
H516 C530 0.930 . S
H517 C532 0.960 . S
H518 C532 0.960 . S
H519 C532 0.960 . S
C520 H512 0.929 . S
C520 C521 1.377 . S
C520 C522 1.384 . S
C521 C520 1.377 . S
C521 C527 1.390 . S
C522 H513 0.930 . S
C522 C520 1.384 . S
C522 C523 1.372 . S
C523 C522 1.372 . S
C523 C524 1.400 . S
C523 C528 1.490 . S
C524 H514 0.930 . S
C524 C523 1.400 . S
C524 C527 1.386 . S
H525 C541 0.930 . S
H526 C542 0.931 . S
C527 H515 0.929 . S
C527 C521 1.390 . S
C527 C524 1.386 . S
C528 C523 1.490 . S
C528 C530 1.395 . S
C528 C531 1.403 . S
H529 C535 0.930 . S
C530 H516 0.930 . S
C530 C528 1.395 . S
C530 C533 1.403 . S
C531 C528 1.403 . S
C531 C532 1.524 . S
C531 C535 1.400 . S
C532 H517 0.960 . S
C532 H518 0.960 . S
C532 H519 0.960 . S
C532 C531 1.524 . S
C533 C530 1.403 . S
C533 C534 1.392 . S
C533 C537 1.495 . S
C534 C533 1.392 . S
C534 C535 1.385 . S
C534 C536 1.478 . S
C535 H529 0.930 . S
C535 C531 1.400 . S
C535 C534 1.385 . S
C536 C534 1.478 . S
C536 C538 1.381 . S
C536 C542 1.383 . S
C537 C533 1.495 . S
C537 H543 0.959 . S
C537 H544 0.961 . S
C537 H545 0.960 . S
C538 C536 1.381 . S
C538 C539 1.394 . S
C538 H546 0.930 . S
C539 C538 1.394 . S
C539 C540 1.383 . S
C539 H547 0.929 . S
C540 C539 1.383 . S
C540 C541 1.377 . S
C541 H525 0.930 . S
C541 C540 1.377 . S
C541 C542 1.379 . S
C542 H526 0.931 . S
C542 C536 1.383 . S
C542 C541 1.379 . S
H543 C537 0.959 . S
H544 C537 0.961 . S
H545 C537 0.960 . S
H546 C538 0.930 . S
H547 C539 0.929 . S
H548 C556 0.929 . S
H549 C558 0.930 . S
H550 C560 0.930 . S
H551 C563 0.929 . S
H552 C566 0.930 . S
H553 C568 0.960 . S
H554 C568 0.960 . S
H555 C568 0.960 . S
C556 H548 0.929 . S
C556 C557 1.377 . S
C556 C558 1.384 . S
C557 C556 1.377 . S
C557 C563 1.390 . S
C558 H549 0.930 . S
C558 C556 1.384 . S
C558 C559 1.372 . S
C559 C558 1.372 . S
C559 C560 1.400 . S
C559 C564 1.490 . S
C560 H550 0.930 . S
C560 C559 1.400 . S
C560 C563 1.386 . S
H561 C577 0.930 . S
H562 C578 0.931 . S
C563 H551 0.929 . S
C563 C557 1.390 . S
C563 C560 1.386 . S
C564 C559 1.490 . S
C564 C566 1.395 . S
C564 C567 1.403 . S
H565 C571 0.930 . S
C566 H552 0.930 . S
C566 C564 1.395 . S
C566 C569 1.403 . S
C567 C564 1.403 . S
C567 C568 1.524 . S
C567 C571 1.400 . S
C568 H553 0.960 . S
C568 H554 0.960 . S
C568 H555 0.960 . S
C568 C567 1.524 . S
C569 C566 1.403 . S
C569 C570 1.392 . S
C569 C573 1.495 . S
C570 C569 1.392 . S
C570 C571 1.385 . S
C570 C572 1.478 . S
C571 H565 0.930 . S
C571 C567 1.400 . S
C571 C570 1.385 . S
C572 C570 1.478 . S
C572 C574 1.381 . S
C572 C578 1.383 . S
C573 C569 1.495 . S
C573 H579 0.959 . S
C573 H580 0.961 . S
C573 H581 0.960 . S
C574 C572 1.381 . S
C574 C575 1.394 . S
C574 H582 0.930 . S
C575 C574 1.394 . S
C575 C576 1.383 . S
C575 H583 0.929 . S
C576 C575 1.383 . S
C576 C577 1.377 . S
C577 H561 0.930 . S
C577 C576 1.377 . S
C577 C578 1.379 . S
C578 H562 0.931 . S
C578 C572 1.383 . S
C578 C577 1.379 . S
H579 C573 0.959 . S
H580 C573 0.961 . S
H581 C573 0.960 . S
H582 C574 0.930 . S
H583 C575 0.929 . S
H584 C592 0.929 . S
H585 C594 0.930 . S
H586 C596 0.930 . S
H587 C599 0.929 . S
H588 C602 0.930 . S
H589 C604 0.960 . S
H590 C604 0.960 . S
H591 C604 0.960 . S
C592 H584 0.929 . S
C592 C593 1.377 . S
C592 C594 1.384 . S
C593 C592 1.377 . S
C593 C599 1.390 . S
C594 H585 0.930 . S
C594 C592 1.384 . S
C594 C595 1.372 . S
C595 C594 1.372 . S
C595 C596 1.400 . S
C595 C600 1.490 . S
C596 H586 0.930 . S
C596 C595 1.400 . S
C596 C599 1.386 . S
H597 C613 0.930 . S
H598 C614 0.931 . S
C599 H587 0.929 . S
C599 C593 1.390 . S
C599 C596 1.386 . S
C600 C595 1.490 . S
C600 C602 1.395 . S
C600 C603 1.403 . S
H601 C607 0.930 . S
C602 H588 0.930 . S
C602 C600 1.395 . S
C602 C605 1.403 . S
C603 C600 1.403 . S
C603 C604 1.524 . S
C603 C607 1.400 . S
C604 H589 0.960 . S
C604 H590 0.960 . S
C604 H591 0.960 . S
C604 C603 1.524 . S
C605 C602 1.403 . S
C605 C606 1.392 . S
C605 C609 1.495 . S
C606 C605 1.392 . S
C606 C607 1.385 . S
C606 C608 1.478 . S
C607 H601 0.930 . S
C607 C603 1.400 . S
C607 C606 1.385 . S
C608 C606 1.478 . S
C608 C610 1.381 . S
C608 C614 1.383 . S
C609 C605 1.495 . S
C609 H615 0.959 . S
C609 H616 0.961 . S
C609 H617 0.960 . S
C610 C608 1.381 . S
C610 C611 1.394 . S
C610 H618 0.930 . S
C611 C610 1.394 . S
C611 C612 1.383 . S
C611 H619 0.929 . S
C612 C611 1.383 . S
C612 C613 1.377 . S
C613 H597 0.930 . S
C613 C612 1.377 . S
C613 C614 1.379 . S
C614 H598 0.931 . S
C614 C608 1.383 . S
C614 C613 1.379 . S
H615 C609 0.959 . S
H616 C609 0.961 . S
H617 C609 0.960 . S
H618 C610 0.930 . S
H619 C611 0.929 . S
H620 C628 0.929 . S
H621 C630 0.930 . S
H622 C632 0.930 . S
H623 C635 0.929 . S
H624 C638 0.930 . S
H625 C640 0.960 . S
H626 C640 0.960 . S
H627 C640 0.960 . S
C628 H620 0.929 . S
C628 C629 1.377 . S
C628 C630 1.384 . S
C629 C628 1.377 . S
C629 C635 1.390 . S
C630 H621 0.930 . S
C630 C628 1.384 . S
C630 C631 1.372 . S
C631 C630 1.372 . S
C631 C632 1.400 . S
C631 C636 1.490 . S
C632 H622 0.930 . S
C632 C631 1.400 . S
C632 C635 1.386 . S
H633 C649 0.930 . S
H634 C650 0.931 . S
C635 H623 0.929 . S
C635 C629 1.390 . S
C635 C632 1.386 . S
C636 C631 1.490 . S
C636 C638 1.395 . S
C636 C639 1.403 . S
H637 C643 0.930 . S
C638 H624 0.930 . S
C638 C636 1.395 . S
C638 C641 1.403 . S
C639 C636 1.403 . S
C639 C640 1.524 . S
C639 C643 1.400 . S
C640 H625 0.960 . S
C640 H626 0.960 . S
C640 H627 0.960 . S
C640 C639 1.524 . S
C641 C638 1.403 . S
C641 C642 1.392 . S
C641 C645 1.495 . S
C642 C641 1.392 . S
C642 C643 1.385 . S
C642 C644 1.478 . S
C643 H637 0.930 . S
C643 C639 1.400 . S
C643 C642 1.385 . S
C644 C642 1.478 . S
C644 C646 1.381 . S
C644 C650 1.383 . S
C645 C641 1.495 . S
C645 H651 0.959 . S
C645 H652 0.961 . S
C645 H653 0.960 . S
C646 C644 1.381 . S
C646 C647 1.394 . S
C646 H654 0.930 . S
C647 C646 1.394 . S
C647 C648 1.383 . S
C647 H655 0.929 . S
C648 C647 1.383 . S
C648 C649 1.377 . S
C649 H633 0.930 . S
C649 C648 1.377 . S
C649 C650 1.379 . S
C650 H634 0.931 . S
C650 C644 1.383 . S
C650 C649 1.379 . S
H651 C645 0.959 . S
H652 C645 0.961 . S
H653 C645 0.960 . S
H654 C646 0.930 . S
H655 C647 0.929 . S
H656 C664 0.929 . S
H657 C666 0.930 . S
H658 C668 0.930 . S
H659 C671 0.929 . S
H660 C674 0.930 . S
H661 C676 0.960 . S
H662 C676 0.960 . S
H663 C676 0.960 . S
C664 H656 0.929 . S
C664 C665 1.377 . S
C664 C666 1.384 . S
C665 C664 1.377 . S
C665 C671 1.390 . S
C666 H657 0.930 . S
C666 C664 1.384 . S
C666 C667 1.372 . S
C667 C666 1.372 . S
C667 C668 1.400 . S
C667 C672 1.490 . S
C668 H658 0.930 . S
C668 C667 1.400 . S
C668 C671 1.386 . S
H669 C685 0.930 . S
H670 C686 0.931 . S
C671 H659 0.929 . S
C671 C665 1.390 . S
C671 C668 1.386 . S
C672 C667 1.490 . S
C672 C674 1.395 . S
C672 C675 1.403 . S
H673 C679 0.930 . S
C674 H660 0.930 . S
C674 C672 1.395 . S
C674 C677 1.403 1_455 S
C675 C672 1.403 . S
C675 C676 1.524 . S
C675 C679 1.400 1_455 S
C676 H661 0.960 . S
C676 H662 0.960 . S
C676 H663 0.960 . S
C676 C675 1.524 . S
C677 C674 1.403 1_655 S
C677 C678 1.392 . S
C677 C681 1.495 . S
C678 C677 1.392 . S
C678 C679 1.385 . S
C678 C680 1.478 . S
C679 H673 0.930 . S
C679 C675 1.400 1_655 S
C679 C678 1.385 . S
C680 C678 1.478 . S
C680 C682 1.381 . S
C680 C686 1.383 . S
C681 C677 1.495 . S
C681 H687 0.959 . S
C681 H688 0.961 . S
C681 H689 0.960 . S
C682 C680 1.381 . S
C682 C683 1.394 . S
C682 H690 0.930 . S
C683 C682 1.394 . S
C683 C684 1.383 . S
C683 H691 0.929 . S
C684 C683 1.383 . S
C684 C685 1.377 . S
C685 H669 0.930 . S
C685 C684 1.377 . S
C685 C686 1.379 . S
C686 H670 0.931 . S
C686 C680 1.383 . S
C686 C685 1.379 . S
H687 C681 0.959 . S
H688 C681 0.961 . S
H689 C681 0.960 . S
H690 C682 0.930 . S
H691 C683 0.929 . S
H692 C700 0.929 . S
H693 C702 0.930 . S
H694 C704 0.930 . S
H695 C707 0.929 . S
H696 C710 0.930 . S
H697 C712 0.960 . S
H698 C712 0.960 . S
H699 C712 0.960 . S
C700 H692 0.929 . S
C700 C701 1.377 . S
C700 C702 1.384 . S
C701 C700 1.377 . S
C701 C707 1.390 . S
C702 H693 0.930 . S
C702 C700 1.384 . S
C702 C703 1.372 . S
C703 C702 1.372 . S
C703 C704 1.400 . S
C703 C708 1.490 . S
C704 H694 0.930 . S
C704 C703 1.400 . S
C704 C707 1.386 . S
H705 C721 0.930 . S
H706 C722 0.931 . S
C707 H695 0.929 . S
C707 C701 1.390 . S
C707 C704 1.386 . S
C708 C703 1.490 . S
C708 C710 1.395 . S
C708 C711 1.403 . S
H709 C715 0.930 . S
C710 H696 0.930 . S
C710 C708 1.395 . S
C710 C713 1.403 . S
C711 C708 1.403 . S
C711 C712 1.524 . S
C711 C715 1.400 . S
C712 H697 0.960 . S
C712 H698 0.960 . S
C712 H699 0.960 . S
C712 C711 1.524 . S
C713 C710 1.403 . S
C713 C714 1.392 . S
C713 C717 1.495 . S
C714 C713 1.392 . S
C714 C715 1.385 . S
C714 C716 1.478 . S
C715 H709 0.930 . S
C715 C711 1.400 . S
C715 C714 1.385 . S
C716 C714 1.478 . S
C716 C718 1.381 . S
C716 C722 1.383 . S
C717 C713 1.495 . S
C717 H723 0.959 . S
C717 H724 0.961 . S
C717 H725 0.960 . S
C718 C716 1.381 . S
C718 C719 1.394 . S
C718 H726 0.930 . S
C719 C718 1.394 . S
C719 C720 1.383 . S
C719 H727 0.929 . S
C720 C719 1.383 . S
C720 C721 1.377 . S
C721 H705 0.930 . S
C721 C720 1.377 . S
C721 C722 1.379 . S
C722 H706 0.931 . S
C722 C716 1.383 . S
C722 C721 1.379 . S
H723 C717 0.959 . S
H724 C717 0.961 . S
H725 C717 0.960 . S
H726 C718 0.930 . S
H727 C719 0.929 . S
H728 C736 0.929 . S
H729 C738 0.930 . S
H730 C740 0.930 . S
H731 C743 0.929 . S
H732 C746 0.930 . S
H733 C748 0.960 . S
H734 C748 0.960 . S
H735 C748 0.960 . S
C736 H728 0.929 . S
C736 C737 1.377 . S
C736 C738 1.384 . S
C737 C736 1.377 . S
C737 C743 1.390 . S
C738 H729 0.930 . S
C738 C736 1.384 . S
C738 C739 1.372 . S
C739 C738 1.372 . S
C739 C740 1.400 . S
C739 C744 1.490 . S
C740 H730 0.930 . S
C740 C739 1.400 . S
C740 C743 1.386 . S
H741 C757 0.930 . S
H742 C758 0.931 . S
C743 H731 0.929 . S
C743 C737 1.390 . S
C743 C740 1.386 . S
C744 C739 1.490 . S
C744 C746 1.395 . S
C744 C747 1.403 . S
H745 C751 0.930 . S
C746 H732 0.930 . S
C746 C744 1.395 . S
C746 C749 1.403 . S
C747 C744 1.403 . S
C747 C748 1.524 . S
C747 C751 1.400 . S
C748 H733 0.960 . S
C748 H734 0.960 . S
C748 H735 0.960 . S
C748 C747 1.524 . S
C749 C746 1.403 . S
C749 C750 1.392 . S
C749 C753 1.495 . S
C750 C749 1.392 . S
C750 C751 1.385 . S
C750 C752 1.478 . S
C751 H745 0.930 . S
C751 C747 1.400 . S
C751 C750 1.385 . S
C752 C750 1.478 . S
C752 C754 1.381 . S
C752 C758 1.383 . S
C753 C749 1.495 . S
C753 H759 0.959 . S
C753 H760 0.961 . S
C753 H761 0.960 . S
C754 C752 1.381 . S
C754 C755 1.394 . S
C754 H762 0.930 . S
C755 C754 1.394 . S
C755 C756 1.383 . S
C755 H763 0.929 . S
C756 C755 1.383 . S
C756 C757 1.377 . S
C757 H741 0.930 . S
C757 C756 1.377 . S
C757 C758 1.379 . S
C758 H742 0.931 . S
C758 C752 1.383 . S
C758 C757 1.379 . S
H759 C753 0.959 . S
H760 C753 0.961 . S
H761 C753 0.960 . S
H762 C754 0.930 . S
H763 C755 0.929 . S
H764 C772 0.929 . S
H765 C774 0.930 . S
H766 C776 0.930 . S
H767 C779 0.929 . S
H768 C782 0.930 . S
H769 C784 0.960 . S
H770 C784 0.960 . S
H771 C784 0.960 . S
C772 H764 0.929 . S
C772 C773 1.377 . S
C772 C774 1.384 . S
C773 C772 1.377 . S
C773 C779 1.390 . S
C774 H765 0.930 . S
C774 C772 1.384 . S
C774 C775 1.372 . S
C775 C774 1.372 . S
C775 C776 1.400 . S
C775 C780 1.490 . S
C776 H766 0.930 . S
C776 C775 1.400 . S
C776 C779 1.386 . S
H777 C793 0.930 . S
H778 C794 0.931 . S
C779 H767 0.929 . S
C779 C773 1.390 . S
C779 C776 1.386 . S
C780 C775 1.490 . S
C780 C782 1.395 . S
C780 C783 1.403 . S
H781 C787 0.930 . S
C782 H768 0.930 . S
C782 C780 1.395 . S
C782 C785 1.403 1_455 S
C783 C780 1.403 . S
C783 C784 1.524 . S
C783 C787 1.400 1_455 S
C784 H769 0.960 . S
C784 H770 0.960 . S
C784 H771 0.960 . S
C784 C783 1.524 . S
C785 C782 1.403 1_655 S
C785 C786 1.392 . S
C785 C789 1.495 . S
C786 C785 1.392 . S
C786 C787 1.385 . S
C786 C788 1.478 . S
C787 H781 0.930 . S
C787 C783 1.400 1_655 S
C787 C786 1.385 . S
C788 C786 1.478 . S
C788 C790 1.381 . S
C788 C794 1.383 . S
C789 C785 1.495 . S
C789 H795 0.959 . S
C789 H796 0.961 . S
C789 H797 0.960 . S
C790 C788 1.381 . S
C790 C791 1.394 . S
C790 H798 0.930 . S
C791 C790 1.394 . S
C791 C792 1.383 . S
C791 H799 0.929 . S
C792 C791 1.383 . S
C792 C793 1.377 . S
C793 H777 0.930 . S
C793 C792 1.377 . S
C793 C794 1.379 . S
C794 H778 0.931 . S
C794 C788 1.383 . S
C794 C793 1.379 . S
H795 C789 0.959 . S
H796 C789 0.961 . S
H797 C789 0.960 . S
H798 C790 0.930 . S
H799 C791 0.929 . S
H800 C808 0.929 . S
H801 C810 0.930 . S
H802 C812 0.930 . S
H803 C815 0.929 . S
H804 C818 0.930 . S
H805 C820 0.960 . S
H806 C820 0.960 . S
H807 C820 0.960 . S
C808 H800 0.929 . S
C808 C809 1.377 . S
C808 C810 1.384 . S
C809 C808 1.377 . S
C809 C815 1.390 . S
C810 H801 0.930 . S
C810 C808 1.384 . S
C810 C811 1.372 . S
C811 C810 1.372 . S
C811 C812 1.400 . S
C811 C816 1.490 . S
C812 H802 0.930 . S
C812 C811 1.400 . S
C812 C815 1.386 . S
H813 C829 0.930 . S
H814 C830 0.931 . S
C815 H803 0.929 . S
C815 C809 1.390 . S
C815 C812 1.386 . S
C816 C811 1.490 . S
C816 C818 1.395 . S
C816 C819 1.403 . S
H817 C823 0.930 . S
C818 H804 0.930 . S
C818 C816 1.395 . S
C818 C821 1.403 1_554 S
C819 C816 1.403 . S
C819 C820 1.524 . S
C819 C823 1.400 1_554 S
C820 H805 0.960 . S
C820 H806 0.960 . S
C820 H807 0.960 . S
C820 C819 1.524 . S
C821 C818 1.403 1_556 S
C821 C822 1.392 . S
C821 C825 1.495 . S
C822 C821 1.392 . S
C822 C823 1.385 . S
C822 C824 1.478 . S
C823 H817 0.930 . S
C823 C819 1.400 1_556 S
C823 C822 1.385 . S
C824 C822 1.478 . S
C824 C826 1.381 . S
C824 C830 1.383 . S
C825 C821 1.495 . S
C825 H831 0.959 . S
C825 H832 0.961 . S
C825 H833 0.960 . S
C826 C824 1.381 . S
C826 C827 1.394 . S
C826 H834 0.930 . S
C827 C826 1.394 . S
C827 C828 1.383 . S
C827 H835 0.929 . S
C828 C827 1.383 . S
C828 C829 1.377 . S
C829 H813 0.930 . S
C829 C828 1.377 . S
C829 C830 1.379 . S
C830 H814 0.931 . S
C830 C824 1.383 . S
C830 C829 1.379 . S
H831 C825 0.959 . S
H832 C825 0.961 . S
H833 C825 0.960 . S
H834 C826 0.930 . S
H835 C827 0.929 . S
H836 C844 0.929 . S
H837 C846 0.930 . S
H838 C848 0.930 . S
H839 C851 0.929 . S
H840 C854 0.930 . S
H841 C856 0.960 . S
H842 C856 0.960 . S
H843 C856 0.960 . S
C844 H836 0.929 . S
C844 C845 1.377 . S
C844 C846 1.384 . S
C845 C844 1.377 . S
C845 C851 1.390 . S
C846 H837 0.930 . S
C846 C844 1.384 . S
C846 C847 1.372 . S
C847 C846 1.372 . S
C847 C848 1.400 . S
C847 C852 1.490 . S
C848 H838 0.930 . S
C848 C847 1.400 . S
C848 C851 1.386 . S
H849 C865 0.930 . S
H850 C866 0.931 . S
C851 H839 0.929 . S
C851 C845 1.390 . S
C851 C848 1.386 . S
C852 C847 1.490 . S
C852 C854 1.395 . S
C852 C855 1.403 . S
H853 C859 0.930 . S
C854 H840 0.930 . S
C854 C852 1.395 . S
C854 C857 1.403 . S
C855 C852 1.403 . S
C855 C856 1.524 . S
C855 C859 1.400 . S
C856 H841 0.960 . S
C856 H842 0.960 . S
C856 H843 0.960 . S
C856 C855 1.524 . S
C857 C854 1.403 . S
C857 C858 1.392 . S
C857 C861 1.495 . S
C858 C857 1.392 . S
C858 C859 1.385 . S
C858 C860 1.478 . S
C859 H853 0.930 . S
C859 C855 1.400 . S
C859 C858 1.385 . S
C860 C858 1.478 . S
C860 C862 1.381 . S
C860 C866 1.383 . S
C861 C857 1.495 . S
C861 H867 0.959 . S
C861 H868 0.961 . S
C861 H869 0.960 . S
C862 C860 1.381 . S
C862 C863 1.394 . S
C862 H870 0.930 . S
C863 C862 1.394 . S
C863 C864 1.383 . S
C863 H871 0.929 . S
C864 C863 1.383 . S
C864 C865 1.377 . S
C865 H849 0.930 . S
C865 C864 1.377 . S
C865 C866 1.379 . S
C866 H850 0.931 . S
C866 C860 1.383 . S
C866 C865 1.379 . S
H867 C861 0.959 . S
H868 C861 0.961 . S
H869 C861 0.960 . S
H870 C862 0.930 . S
H871 C863 0.929 . S
H872 C880 0.929 . S
H873 C882 0.930 . S
H874 C884 0.930 . S
H875 C887 0.929 . S
H876 C890 0.930 . S
H877 C892 0.960 . S
H878 C892 0.960 . S
H879 C892 0.960 . S
C880 H872 0.929 . S
C880 C881 1.377 . S
C880 C882 1.384 . S
C881 C880 1.377 . S
C881 C887 1.390 . S
C882 H873 0.930 . S
C882 C880 1.384 . S
C882 C883 1.372 . S
C883 C882 1.372 . S
C883 C884 1.400 . S
C883 C888 1.490 . S
C884 H874 0.930 . S
C884 C883 1.400 . S
C884 C887 1.386 . S
H885 C901 0.930 . S
H886 C902 0.931 . S
C887 H875 0.929 . S
C887 C881 1.390 . S
C887 C884 1.386 . S
C888 C883 1.490 . S
C888 C890 1.395 . S
C888 C891 1.403 . S
H889 C895 0.930 . S
C890 H876 0.930 . S
C890 C888 1.395 . S
C890 C893 1.403 . S
C891 C888 1.403 . S
C891 C892 1.524 . S
C891 C895 1.400 . S
C892 H877 0.960 . S
C892 H878 0.960 . S
C892 H879 0.960 . S
C892 C891 1.524 . S
C893 C890 1.403 . S
C893 C894 1.392 . S
C893 C897 1.495 . S
C894 C893 1.392 . S
C894 C895 1.385 . S
C894 C896 1.478 . S
C895 H889 0.930 . S
C895 C891 1.400 . S
C895 C894 1.385 . S
C896 C894 1.478 . S
C896 C898 1.381 . S
C896 C902 1.383 . S
C897 C893 1.495 . S
C897 H903 0.959 . S
C897 H904 0.961 . S
C897 H905 0.960 . S
C898 C896 1.381 . S
C898 C899 1.394 . S
C898 H906 0.930 . S
C899 C898 1.394 . S
C899 C900 1.383 . S
C899 H907 0.929 . S
C900 C899 1.383 . S
C900 C901 1.377 . S
C901 H885 0.930 . S
C901 C900 1.377 . S
C901 C902 1.379 . S
C902 H886 0.931 . S
C902 C896 1.383 . S
C902 C901 1.379 . S
H903 C897 0.959 . S
H904 C897 0.961 . S
H905 C897 0.960 . S
H906 C898 0.930 . S
H907 C899 0.929 . S
H908 C916 0.929 . S
H909 C918 0.930 . S
H910 C920 0.930 . S
H911 C923 0.929 . S
H912 C926 0.930 . S
H913 C928 0.960 . S
H914 C928 0.960 . S
H915 C928 0.960 . S
C916 H908 0.929 . S
C916 C917 1.377 . S
C916 C918 1.384 . S
C917 C916 1.377 . S
C917 C923 1.390 . S
C918 H909 0.930 . S
C918 C916 1.384 . S
C918 C919 1.372 . S
C919 C918 1.372 . S
C919 C920 1.400 . S
C919 C924 1.490 . S
C920 H910 0.930 . S
C920 C919 1.400 . S
C920 C923 1.386 . S
H921 C937 0.930 . S
H922 C938 0.931 . S
C923 H911 0.929 . S
C923 C917 1.390 . S
C923 C920 1.386 . S
C924 C919 1.490 . S
C924 C926 1.395 . S
C924 C927 1.403 . S
H925 C931 0.930 . S
C926 H912 0.930 . S
C926 C924 1.395 . S
C926 C929 1.403 . S
C927 C924 1.403 . S
C927 C928 1.524 . S
C927 C931 1.400 . S
C928 H913 0.960 . S
C928 H914 0.960 . S
C928 H915 0.960 . S
C928 C927 1.524 . S
C929 C926 1.403 . S
C929 C930 1.392 . S
C929 C933 1.495 . S
C930 C929 1.392 . S
C930 C931 1.385 . S
C930 C932 1.478 . S
C931 H925 0.930 . S
C931 C927 1.400 . S
C931 C930 1.385 . S
C932 C930 1.478 . S
C932 C934 1.381 . S
C932 C938 1.383 . S
C933 C929 1.495 . S
C933 H939 0.959 . S
C933 H940 0.961 . S
C933 H941 0.960 . S
C934 C932 1.381 . S
C934 C935 1.394 . S
C934 H942 0.930 . S
C935 C934 1.394 . S
C935 C936 1.383 . S
C935 H943 0.929 . S
C936 C935 1.383 . S
C936 C937 1.377 . S
C937 H921 0.930 . S
C937 C936 1.377 . S
C937 C938 1.379 . S
C938 H922 0.931 . S
C938 C932 1.383 . S
C938 C937 1.379 . S
H939 C933 0.959 . S
H940 C933 0.961 . S
H941 C933 0.960 . S
H942 C934 0.930 . S
H943 C935 0.929 . S
H944 C952 0.929 . S
H945 C954 0.930 . S
H946 C956 0.930 . S
H947 C959 0.929 . S
H948 C962 0.930 . S
H949 C964 0.960 . S
H950 C964 0.960 . S
H951 C964 0.960 . S
C952 H944 0.929 . S
C952 C953 1.377 . S
C952 C954 1.384 . S
C953 C952 1.377 . S
C953 C959 1.390 . S
C954 H945 0.930 . S
C954 C952 1.384 . S
C954 C955 1.372 . S
C955 C954 1.372 . S
C955 C956 1.400 . S
C955 C960 1.490 . S
C956 H946 0.930 . S
C956 C955 1.400 . S
C956 C959 1.386 . S
H957 C973 0.930 . S
H958 C974 0.931 . S
C959 H947 0.929 . S
C959 C953 1.390 . S
C959 C956 1.386 . S
C960 C955 1.490 . S
C960 C962 1.395 . S
C960 C963 1.403 1_556 S
H961 C967 0.930 . S
C962 H948 0.930 . S
C962 C960 1.395 . S
C962 C965 1.403 . S
C963 C960 1.403 1_554 S
C963 C964 1.524 . S
C963 C967 1.400 . S
C964 H949 0.960 . S
C964 H950 0.960 . S
C964 H951 0.960 . S
C964 C963 1.524 . S
C965 C962 1.403 . S
C965 C966 1.392 1_556 S
C965 C969 1.495 . S
C966 C965 1.392 1_554 S
C966 C967 1.385 . S
C966 C968 1.478 . S
C967 H961 0.930 . S
C967 C963 1.400 . S
C967 C966 1.385 . S
C968 C966 1.478 . S
C968 C970 1.381 . S
C968 C974 1.383 . S
C969 C965 1.495 . S
C969 H975 0.959 . S
C969 H976 0.961 . S
C969 H977 0.960 . S
C970 C968 1.381 . S
C970 C971 1.394 . S
C970 H978 0.930 . S
C971 C970 1.394 . S
C971 C972 1.383 . S
C971 H979 0.929 . S
C972 C971 1.383 . S
C972 C973 1.377 . S
C973 H957 0.930 . S
C973 C972 1.377 . S
C973 C974 1.379 . S
C974 H958 0.931 . S
C974 C968 1.383 . S
C974 C973 1.379 . S
H975 C969 0.959 . S
H976 C969 0.961 . S
H977 C969 0.960 . S
H978 C970 0.930 . S
H979 C971 0.929 . S
H980 C988 0.929 . S
H981 C990 0.930 . S
H982 C992 0.930 . S
H983 C995 0.929 . S
H984 C998 0.930 . S
H985 C1000 0.960 . S
H986 C1000 0.960 . S
H987 C1000 0.960 . S
C988 H980 0.929 . S
C988 C989 1.377 . S
C988 C990 1.384 . S
C989 C988 1.377 . S
C989 C995 1.390 . S
C990 H981 0.930 . S
C990 C988 1.384 . S
C990 C991 1.372 . S
C991 C990 1.372 . S
C991 C992 1.400 . S
C991 C996 1.490 . S
C992 H982 0.930 . S
C992 C991 1.400 . S
C992 C995 1.386 . S
H993 C1009 0.930 . S
H994 C1010 0.931 . S
C995 H983 0.929 . S
C995 C989 1.390 . S
C995 C992 1.386 . S
C996 C991 1.490 . S
C996 C998 1.395 . S
C996 C999 1.403 . S
H997 C1003 0.930 . S
C998 H984 0.930 . S
C998 C996 1.395 . S
C998 C1001 1.403 . S
C999 C996 1.403 . S
C999 C1000 1.524 . S
C999 C1003 1.400 . S
C1000 H985 0.960 . S
C1000 H986 0.960 . S
C1000 H987 0.960 . S
C1000 C999 1.524 . S
C1001 C998 1.403 . S
C1001 C1002 1.392 . S
C1001 C1005 1.495 . S
C1002 C1001 1.392 . S
C1002 C1003 1.385 . S
C1002 C1004 1.478 . S
C1003 H997 0.930 . S
C1003 C999 1.400 . S
C1003 C1002 1.385 . S
C1004 C1002 1.478 . S
C1004 C1006 1.381 . S
C1004 C1010 1.383 . S
C1005 C1001 1.495 . S
C1005 H1011 0.959 . S
C1005 H1012 0.961 . S
C1005 H1013 0.960 . S
C1006 C1004 1.381 . S
C1006 C1007 1.394 . S
C1006 H1014 0.930 . S
C1007 C1006 1.394 . S
C1007 C1008 1.383 . S
C1007 H1015 0.929 . S
C1008 C1007 1.383 . S
C1008 C1009 1.377 . S
C1009 H993 0.930 . S
C1009 C1008 1.377 . S
C1009 C1010 1.379 . S
C1010 H994 0.931 . S
C1010 C1004 1.383 . S
C1010 C1009 1.379 . S
H1011 C1005 0.959 . S
H1012 C1005 0.961 . S
H1013 C1005 0.960 . S
H1014 C1006 0.930 . S
H1015 C1007 0.929 . S
H1016 C1024 0.929 . S
H1017 C1026 0.930 . S
H1018 C1028 0.930 . S
H1019 C1031 0.929 . S
H1020 C1034 0.930 . S
H1021 C1036 0.960 . S
H1022 C1036 0.960 . S
H1023 C1036 0.960 . S
C1024 H1016 0.929 . S
C1024 C1025 1.377 . S
C1024 C1026 1.384 . S
C1025 C1024 1.377 . S
C1025 C1031 1.390 . S
C1026 H1017 0.930 . S
C1026 C1024 1.384 . S
C1026 C1027 1.372 . S
C1027 C1026 1.372 . S
C1027 C1028 1.400 . S
C1027 C1032 1.490 . S
C1028 H1018 0.930 . S
C1028 C1027 1.400 . S
C1028 C1031 1.386 . S
H1029 C1045 0.930 . S
H1030 C1046 0.931 . S
C1031 H1019 0.929 . S
C1031 C1025 1.390 . S
C1031 C1028 1.386 . S
C1032 C1027 1.490 . S
C1032 C1034 1.395 . S
C1032 C1035 1.403 . S
H1033 C1039 0.930 . S
C1034 H1020 0.930 . S
C1034 C1032 1.395 . S
C1034 C1037 1.403 . S
C1035 C1032 1.403 . S
C1035 C1036 1.524 . S
C1035 C1039 1.400 . S
C1036 H1021 0.960 . S
C1036 H1022 0.960 . S
C1036 H1023 0.960 . S
C1036 C1035 1.524 . S
C1037 C1034 1.403 . S
C1037 C1038 1.392 . S
C1037 C1041 1.495 . S
C1038 C1037 1.392 . S
C1038 C1039 1.385 . S
C1038 C1040 1.478 . S
C1039 H1033 0.930 . S
C1039 C1035 1.400 . S
C1039 C1038 1.385 . S
C1040 C1038 1.478 . S
C1040 C1042 1.381 . S
C1040 C1046 1.383 . S
C1041 C1037 1.495 . S
C1041 H1047 0.959 . S
C1041 H1048 0.961 . S
C1041 H1049 0.960 . S
C1042 C1040 1.381 . S
C1042 C1043 1.394 . S
C1042 H1050 0.930 . S
C1043 C1042 1.394 . S
C1043 C1044 1.383 . S
C1043 H1051 0.929 . S
C1044 C1043 1.383 . S
C1044 C1045 1.377 . S
C1045 H1029 0.930 . S
C1045 C1044 1.377 . S
C1045 C1046 1.379 . S
C1046 H1030 0.931 . S
C1046 C1040 1.383 . S
C1046 C1045 1.379 . S
H1047 C1041 0.959 . S
H1048 C1041 0.961 . S
H1049 C1041 0.960 . S
H1050 C1042 0.930 . S
H1051 C1043 0.929 . S
H1052 C1060 0.929 . S
H1053 C1062 0.930 . S
H1054 C1064 0.930 . S
H1055 C1067 0.929 . S
H1056 C1070 0.930 . S
H1057 C1072 0.960 . S
H1058 C1072 0.960 . S
H1059 C1072 0.960 . S
C1060 H1052 0.929 . S
C1060 C1061 1.377 . S
C1060 C1062 1.384 . S
C1061 C1060 1.377 . S
C1061 C1067 1.390 . S
C1062 H1053 0.930 . S
C1062 C1060 1.384 . S
C1062 C1063 1.372 . S
C1063 C1062 1.372 . S
C1063 C1064 1.400 . S
C1063 C1068 1.490 . S
C1064 H1054 0.930 . S
C1064 C1063 1.400 . S
C1064 C1067 1.386 . S
H1065 C1081 0.930 . S
H1066 C1082 0.931 . S
C1067 H1055 0.929 . S
C1067 C1061 1.390 . S
C1067 C1064 1.386 . S
C1068 C1063 1.490 . S
C1068 C1070 1.395 . S
C1068 C1071 1.403 . S
H1069 C1075 0.930 . S
C1070 H1056 0.930 . S
C1070 C1068 1.395 . S
C1070 C1073 1.403 . S
C1071 C1068 1.403 . S
C1071 C1072 1.524 . S
C1071 C1075 1.400 . S
C1072 H1057 0.960 . S
C1072 H1058 0.960 . S
C1072 H1059 0.960 . S
C1072 C1071 1.524 . S
C1073 C1070 1.403 . S
C1073 C1074 1.392 . S
C1073 C1077 1.495 . S
C1074 C1073 1.392 . S
C1074 C1075 1.385 . S
C1074 C1076 1.478 . S
C1075 H1069 0.930 . S
C1075 C1071 1.400 . S
C1075 C1074 1.385 . S
C1076 C1074 1.478 . S
C1076 C1078 1.381 . S
C1076 C1082 1.383 . S
C1077 C1073 1.495 . S
C1077 H1083 0.959 . S
C1077 H1084 0.961 . S
C1077 H1085 0.960 . S
C1078 C1076 1.381 . S
C1078 C1079 1.394 . S
C1078 H1086 0.930 . S
C1079 C1078 1.394 . S
C1079 C1080 1.383 . S
C1079 H1087 0.929 . S
C1080 C1079 1.383 . S
C1080 C1081 1.377 . S
C1081 H1065 0.930 . S
C1081 C1080 1.377 . S
C1081 C1082 1.379 . S
C1082 H1066 0.931 . S
C1082 C1076 1.383 . S
C1082 C1081 1.379 . S
H1083 C1077 0.959 . S
H1084 C1077 0.961 . S
H1085 C1077 0.960 . S
H1086 C1078 0.930 . S
H1087 C1079 0.929 . S
H1088 C1096 0.929 . S
H1089 C1098 0.930 . S
H1090 C1100 0.930 . S
H1091 C1103 0.929 . S
H1092 C1106 0.930 . S
H1093 C1108 0.960 . S
H1094 C1108 0.960 . S
H1095 C1108 0.960 . S
C1096 H1088 0.929 . S
C1096 C1097 1.377 . S
C1096 C1098 1.384 . S
C1097 C1096 1.377 . S
C1097 C1103 1.390 . S
C1098 H1089 0.930 . S
C1098 C1096 1.384 . S
C1098 C1099 1.372 . S
C1099 C1098 1.372 . S
C1099 C1100 1.400 . S
C1099 C1104 1.490 . S
C1100 H1090 0.930 . S
C1100 C1099 1.400 . S
C1100 C1103 1.386 . S
H1101 C1117 0.930 . S
H1102 C1118 0.931 . S
C1103 H1091 0.929 . S
C1103 C1097 1.390 . S
C1103 C1100 1.386 . S
C1104 C1099 1.490 . S
C1104 C1106 1.395 . S
C1104 C1107 1.403 1_545 S
H1105 C1111 0.930 . S
C1106 H1092 0.930 . S
C1106 C1104 1.395 . S
C1106 C1109 1.403 . S
C1107 C1104 1.403 1_565 S
C1107 C1108 1.524 . S
C1107 C1111 1.400 . S
C1108 H1093 0.960 . S
C1108 H1094 0.960 . S
C1108 H1095 0.960 . S
C1108 C1107 1.524 . S
C1109 C1106 1.403 . S
C1109 C1110 1.392 1_545 S
C1109 C1113 1.495 . S
C1110 C1109 1.392 1_565 S
C1110 C1111 1.385 . S
C1110 C1112 1.478 . S
C1111 H1105 0.930 . S
C1111 C1107 1.400 . S
C1111 C1110 1.385 . S
C1112 C1110 1.478 . S
C1112 C1114 1.381 . S
C1112 C1118 1.383 . S
C1113 C1109 1.495 . S
C1113 H1119 0.959 . S
C1113 H1120 0.961 . S
C1113 H1121 0.960 . S
C1114 C1112 1.381 . S
C1114 C1115 1.394 . S
C1114 H1122 0.930 . S
C1115 C1114 1.394 . S
C1115 C1116 1.383 . S
C1115 H1123 0.929 . S
C1116 C1115 1.383 . S
C1116 C1117 1.377 . S
C1117 H1101 0.930 . S
C1117 C1116 1.377 . S
C1117 C1118 1.379 . S
C1118 H1102 0.931 . S
C1118 C1112 1.383 . S
C1118 C1117 1.379 . S
H1119 C1113 0.959 . S
H1120 C1113 0.961 . S
H1121 C1113 0.960 . S
H1122 C1114 0.930 . S
H1123 C1115 0.929 . S
H1124 C1132 0.929 . S
H1125 C1134 0.930 . S
H1126 C1136 0.930 . S
H1127 C1139 0.929 . S
H1128 C1142 0.930 . S
H1129 C1144 0.960 . S
H1130 C1144 0.960 . S
H1131 C1144 0.960 . S
C1132 H1124 0.929 . S
C1132 C1133 1.377 . S
C1132 C1134 1.384 . S
C1133 C1132 1.377 . S
C1133 C1139 1.390 . S
C1134 H1125 0.930 . S
C1134 C1132 1.384 . S
C1134 C1135 1.372 . S
C1135 C1134 1.372 . S
C1135 C1136 1.400 . S
C1135 C1140 1.490 . S
C1136 H1126 0.930 . S
C1136 C1135 1.400 . S
C1136 C1139 1.386 . S
H1137 C1153 0.930 . S
H1138 C1154 0.931 . S
C1139 H1127 0.929 . S
C1139 C1133 1.390 . S
C1139 C1136 1.386 . S
C1140 C1135 1.490 . S
C1140 C1142 1.395 . S
C1140 C1143 1.403 . S
H1141 C1147 0.930 . S
C1142 H1128 0.930 . S
C1142 C1140 1.395 . S
C1142 C1145 1.403 . S
C1143 C1140 1.403 . S
C1143 C1144 1.524 . S
C1143 C1147 1.400 . S
C1144 H1129 0.960 . S
C1144 H1130 0.960 . S
C1144 H1131 0.960 . S
C1144 C1143 1.524 . S
C1145 C1142 1.403 . S
C1145 C1146 1.392 . S
C1145 C1149 1.495 . S
C1146 C1145 1.392 . S
C1146 C1147 1.385 . S
C1146 C1148 1.478 . S
C1147 H1141 0.930 . S
C1147 C1143 1.400 . S
C1147 C1146 1.385 . S
C1148 C1146 1.478 . S
C1148 C1150 1.381 . S
C1148 C1154 1.383 . S
C1149 C1145 1.495 . S
C1149 H1155 0.959 . S
C1149 H1156 0.961 . S
C1149 H1157 0.960 . S
C1150 C1148 1.381 . S
C1150 C1151 1.394 . S
C1150 H1158 0.930 . S
C1151 C1150 1.394 . S
C1151 C1152 1.383 . S
C1151 H1159 0.929 . S
C1152 C1151 1.383 . S
C1152 C1153 1.377 . S
C1153 H1137 0.930 . S
C1153 C1152 1.377 . S
C1153 C1154 1.379 . S
C1154 H1138 0.931 . S
C1154 C1148 1.383 . S
C1154 C1153 1.379 . S
H1155 C1149 0.959 . S
H1156 C1149 0.961 . S
H1157 C1149 0.960 . S
H1158 C1150 0.930 . S
H1159 C1151 0.929 . S
H1160 C1168 0.929 . S
H1161 C1170 0.930 . S
H1162 C1172 0.930 . S
H1163 C1175 0.929 . S
H1164 C1178 0.930 . S
H1165 C1180 0.960 . S
H1166 C1180 0.960 . S
H1167 C1180 0.960 1_556 S
C1168 H1160 0.929 . S
C1168 C1169 1.377 . S
C1168 C1170 1.384 . S
C1169 C1168 1.377 . S
C1169 C1175 1.390 . S
C1170 H1161 0.930 . S
C1170 C1168 1.384 . S
C1170 C1171 1.372 . S
C1171 C1170 1.372 . S
C1171 C1172 1.400 . S
C1171 C1176 1.490 . S
C1172 H1162 0.930 . S
C1172 C1171 1.400 . S
C1172 C1175 1.386 . S
H1173 C1189 0.930 . S
H1174 C1190 0.931 . S
C1175 H1163 0.929 . S
C1175 C1169 1.390 . S
C1175 C1172 1.386 . S
C1176 C1171 1.490 . S
C1176 C1178 1.395 . S
C1176 C1179 1.403 1_556 S
H1177 C1183 0.930 . S
C1178 H1164 0.930 . S
C1178 C1176 1.395 . S
C1178 C1181 1.403 1_546 S
C1179 C1176 1.403 1_554 S
C1179 C1180 1.524 . S
C1179 C1183 1.400 1_545 S
C1180 H1165 0.960 . S
C1180 H1166 0.960 . S
C1180 H1167 0.960 1_554 S
C1180 C1179 1.524 . S
C1181 C1178 1.403 1_564 S
C1181 C1182 1.392 . S
C1181 C1185 1.495 . S
C1182 C1181 1.392 . S
C1182 C1183 1.385 . S
C1182 C1184 1.478 . S
C1183 H1177 0.930 . S
C1183 C1179 1.400 1_565 S
C1183 C1182 1.385 . S
C1184 C1182 1.478 . S
C1184 C1186 1.381 . S
C1184 C1190 1.383 . S
C1185 C1181 1.495 . S
C1185 H1191 0.959 1_554 S
C1185 H1192 0.961 . S
C1185 H1193 0.960 . S
C1186 C1184 1.381 . S
C1186 C1187 1.394 . S
C1186 H1194 0.930 . S
C1187 C1186 1.394 . S
C1187 C1188 1.383 . S
C1187 H1195 0.929 . S
C1188 C1187 1.383 . S
C1188 C1189 1.377 . S
C1189 H1173 0.930 . S
C1189 C1188 1.377 . S
C1189 C1190 1.379 . S
C1190 H1174 0.931 . S
C1190 C1184 1.383 . S
C1190 C1189 1.379 . S
H1191 C1185 0.959 1_556 S
H1192 C1185 0.961 . S
H1193 C1185 0.960 . S
H1194 C1186 0.930 . S
H1195 C1187 0.929 . S
H1196 C1204 0.929 . S
H1197 C1206 0.930 . S
H1198 C1208 0.930 . S
H1199 C1211 0.929 . S
H1200 C1214 0.930 . S
H1201 C1216 0.960 . S
H1202 C1216 0.960 . S
H1203 C1216 0.960 . S
C1204 H1196 0.929 . S
C1204 C1205 1.377 . S
C1204 C1206 1.384 . S
C1205 C1204 1.377 . S
C1205 C1211 1.390 . S
C1206 H1197 0.930 . S
C1206 C1204 1.384 . S
C1206 C1207 1.372 . S
C1207 C1206 1.372 . S
C1207 C1208 1.400 . S
C1207 C1212 1.490 . S
C1208 H1198 0.930 . S
C1208 C1207 1.400 . S
C1208 C1211 1.386 . S
H1209 C1225 0.930 . S
H1210 C1226 0.931 . S
C1211 H1199 0.929 . S
C1211 C1205 1.390 . S
C1211 C1208 1.386 . S
C1212 C1207 1.490 . S
C1212 C1214 1.395 . S
C1212 C1215 1.403 . S
H1213 C1219 0.930 . S
C1214 H1200 0.930 . S
C1214 C1212 1.395 . S
C1214 C1217 1.403 . S
C1215 C1212 1.403 . S
C1215 C1216 1.524 . S
C1215 C1219 1.400 . S
C1216 H1201 0.960 . S
C1216 H1202 0.960 . S
C1216 H1203 0.960 . S
C1216 C1215 1.524 . S
C1217 C1214 1.403 . S
C1217 C1218 1.392 . S
C1217 C1221 1.495 . S
C1218 C1217 1.392 . S
C1218 C1219 1.385 . S
C1218 C1220 1.478 . S
C1219 H1213 0.930 . S
C1219 C1215 1.400 . S
C1219 C1218 1.385 . S
C1220 C1218 1.478 . S
C1220 C1222 1.381 . S
C1220 C1226 1.383 . S
C1221 C1217 1.495 . S
C1221 H1227 0.959 . S
C1221 H1228 0.961 . S
C1221 H1229 0.960 . S
C1222 C1220 1.381 . S
C1222 C1223 1.394 . S
C1222 H1230 0.930 . S
C1223 C1222 1.394 . S
C1223 C1224 1.383 . S
C1223 H1231 0.929 . S
C1224 C1223 1.383 . S
C1224 C1225 1.377 . S
C1225 H1209 0.930 . S
C1225 C1224 1.377 . S
C1225 C1226 1.379 . S
C1226 H1210 0.931 . S
C1226 C1220 1.383 . S
C1226 C1225 1.379 . S
H1227 C1221 0.959 . S
H1228 C1221 0.961 . S
H1229 C1221 0.960 . S
H1230 C1222 0.930 . S
H1231 C1223 0.929 . S
H1232 C1240 0.929 . S
H1233 C1242 0.930 . S
H1234 C1244 0.930 . S
H1235 C1247 0.929 . S
H1236 C1250 0.930 . S
H1237 C1252 0.960 . S
H1238 C1252 0.960 . S
H1239 C1252 0.960 . S
C1240 H1232 0.929 . S
C1240 C1241 1.377 . S
C1240 C1242 1.384 . S
C1241 C1240 1.377 . S
C1241 C1247 1.390 . S
C1242 H1233 0.930 . S
C1242 C1240 1.384 . S
C1242 C1243 1.372 . S
C1243 C1242 1.372 . S
C1243 C1244 1.400 . S
C1243 C1248 1.490 . S
C1244 H1234 0.930 . S
C1244 C1243 1.400 . S
C1244 C1247 1.386 . S
H1245 C1261 0.930 . S
H1246 C1262 0.931 . S
C1247 H1235 0.929 . S
C1247 C1241 1.390 . S
C1247 C1244 1.386 . S
C1248 C1243 1.490 . S
C1248 C1250 1.395 . S
C1248 C1251 1.403 . S
H1249 C1255 0.934 . S
C1250 H1236 0.930 . S
C1250 C1248 1.395 . S
C1250 C1253 1.403 1_545 S
C1251 C1248 1.403 . S
C1251 C1252 1.524 . S
C1251 C1255 1.380 1_545 S
C1252 H1237 0.960 . S
C1252 H1238 0.960 . S
C1252 H1239 0.960 . S
C1252 C1251 1.524 . S
C1253 C1250 1.403 1_565 S
C1253 C1254 1.392 . S
C1253 C1257 1.495 . S
C1254 C1253 1.392 . S
C1254 C1255 1.403 . S
C1254 C1256 1.478 . S
C1255 H1249 0.934 . S
C1255 C1251 1.380 1_565 S
C1255 C1254 1.403 . S
C1256 C1254 1.478 . S
C1256 C1258 1.381 . S
C1256 C1262 1.383 . S
C1257 C1253 1.495 . S
C1257 H1263 0.959 . S
C1257 H1264 0.961 . S
C1257 H1265 0.960 . S
C1258 C1256 1.381 . S
C1258 C1259 1.394 . S
C1258 H1266 0.930 . S
C1259 C1258 1.394 . S
C1259 C1260 1.383 . S
C1259 H1267 0.929 . S
C1260 C1259 1.383 . S
C1260 C1261 1.377 . S
C1261 H1245 0.930 . S
C1261 C1260 1.377 . S
C1261 C1262 1.379 . S
C1262 H1246 0.931 . S
C1262 C1256 1.383 . S
C1262 C1261 1.379 . S
H1263 C1257 0.959 . S
H1264 C1257 0.961 . S
H1265 C1257 0.960 . S
H1266 C1258 0.930 . S
H1267 C1259 0.929 . S
H1268 C1276 0.929 . S
H1269 C1278 0.930 . S
H1270 C1280 0.930 . S
H1271 C1283 0.929 . S
H1272 C1286 0.930 . S
H1273 C1288 0.960 . S
H1274 C1288 0.960 . S
H1275 C1288 0.960 . S
C1276 H1268 0.929 . S
C1276 C1277 1.377 . S
C1276 C1278 1.384 . S
C1277 C1276 1.377 . S
C1277 C1283 1.390 . S
C1278 H1269 0.930 . S
C1278 C1276 1.384 . S
C1278 C1279 1.372 . S
C1279 C1278 1.372 . S
C1279 C1280 1.400 . S
C1279 C1284 1.490 . S
C1280 H1270 0.930 . S
C1280 C1279 1.400 . S
C1280 C1283 1.386 . S
H1281 C1297 0.930 . S
H1282 C1298 0.931 . S
C1283 H1271 0.929 . S
C1283 C1277 1.390 . S
C1283 C1280 1.386 . S
C1284 C1279 1.490 . S
C1284 C1286 1.395 . S
C1284 C1287 1.403 . S
H1285 C1291 0.930 . S
C1286 H1272 0.930 . S
C1286 C1284 1.395 . S
C1286 C1289 1.403 . S
C1287 C1284 1.403 . S
C1287 C1288 1.524 . S
C1287 C1291 1.400 . S
C1288 H1273 0.960 . S
C1288 H1274 0.960 . S
C1288 H1275 0.960 . S
C1288 C1287 1.524 . S
C1289 C1286 1.403 . S
C1289 C1290 1.392 . S
C1289 C1293 1.495 . S
C1290 C1289 1.392 . S
C1290 C1291 1.385 . S
C1290 C1292 1.478 . S
C1291 H1285 0.930 . S
C1291 C1287 1.400 . S
C1291 C1290 1.385 . S
C1292 C1290 1.478 . S
C1292 C1294 1.381 . S
C1292 C1298 1.383 . S
C1293 C1289 1.495 . S
C1293 H1299 0.959 . S
C1293 H1300 0.961 . S
C1293 H1301 0.960 . S
C1294 C1292 1.381 . S
C1294 C1295 1.394 . S
C1294 H1302 0.930 . S
C1295 C1294 1.394 . S
C1295 C1296 1.383 . S
C1295 H1303 0.929 . S
C1296 C1295 1.383 . S
C1296 C1297 1.377 . S
C1297 H1281 0.930 . S
C1297 C1296 1.377 . S
C1297 C1298 1.379 . S
C1298 H1282 0.931 . S
C1298 C1292 1.383 . S
C1298 C1297 1.379 . S
H1299 C1293 0.959 . S
H1300 C1293 0.961 . S
H1301 C1293 0.960 . S
H1302 C1294 0.930 . S
H1303 C1295 0.929 . S
H1304 C1312 0.929 . S
H1305 C1314 0.930 . S
H1306 C1316 0.930 . S
H1307 C1319 0.929 . S
H1308 C1322 0.930 . S
H1309 C1324 0.960 . S
H1310 C1324 0.960 1_554 S
H1311 C1324 0.960 . S
C1312 H1304 0.929 . S
C1312 C1313 1.377 . S
C1312 C1314 1.384 . S
C1313 C1312 1.377 . S
C1313 C1319 1.390 . S
C1314 H1305 0.930 . S
C1314 C1312 1.384 . S
C1314 C1315 1.372 . S
C1315 C1314 1.372 . S
C1315 C1316 1.400 . S
C1315 C1320 1.490 . S
C1316 H1306 0.930 . S
C1316 C1315 1.400 . S
C1316 C1319 1.386 . S
H1317 C1333 0.930 . S
H1318 C1334 0.931 . S
C1319 H1307 0.929 . S
C1319 C1313 1.390 . S
C1319 C1316 1.386 . S
C1320 C1315 1.490 . S
C1320 C1322 1.395 1_565 S
C1320 C1323 1.376 1_554 S
H1321 C1327 0.930 . S
C1322 H1308 0.930 . S
C1322 C1320 1.395 1_545 S
C1322 C1325 1.403 . S
C1323 C1320 1.376 1_556 S
C1323 C1324 1.527 . S
C1323 C1327 1.425 1_565 S
C1324 H1309 0.960 . S
C1324 H1310 0.960 1_556 S
C1324 H1311 0.960 . S
C1324 C1323 1.527 . S
C1325 C1322 1.403 . S
C1325 C1326 1.392 1_554 S
C1325 C1329 1.495 . S
C1326 C1325 1.392 1_556 S
C1326 C1327 1.385 . S
C1326 C1328 1.478 . S
C1327 H1321 0.930 . S
C1327 C1323 1.425 1_545 S
C1327 C1326 1.385 . S
C1328 C1326 1.478 . S
C1328 C1330 1.381 . S
C1328 C1334 1.383 . S
C1329 C1325 1.495 . S
C1329 H1335 0.959 . S
C1329 H1336 0.961 1_554 S
C1329 H1337 0.960 . S
C1330 C1328 1.381 . S
C1330 C1331 1.394 . S
C1330 H1338 0.930 . S
C1331 C1330 1.394 . S
C1331 C1332 1.383 . S
C1331 H1339 0.929 . S
C1332 C1331 1.383 . S
C1332 C1333 1.377 . S
C1333 H1317 0.930 . S
C1333 C1332 1.377 . S
C1333 C1334 1.379 . S
C1334 H1318 0.931 . S
C1334 C1328 1.383 . S
C1334 C1333 1.379 . S
H1335 C1329 0.959 . S
H1336 C1329 0.961 1_556 S
H1337 C1329 0.960 . S
H1338 C1330 0.930 . S
H1339 C1331 0.929 . S
H1340 C1348 0.929 . S
H1341 C1350 0.930 . S
H1342 C1352 0.930 . S
H1343 C1355 0.929 . S
H1344 C1358 0.930 . S
H1345 C1360 0.960 . S
H1346 C1360 0.960 . S
H1347 C1360 0.960 . S
C1348 H1340 0.929 . S
C1348 C1349 1.377 . S
C1348 C1350 1.384 . S
C1349 C1348 1.377 . S
C1349 C1355 1.390 . S
C1350 H1341 0.930 . S
C1350 C1348 1.384 . S
C1350 C1351 1.372 . S
C1351 C1350 1.372 . S
C1351 C1352 1.400 . S
C1351 C1356 1.490 . S
C1352 H1342 0.930 . S
C1352 C1351 1.400 . S
C1352 C1355 1.386 . S
H1353 C1369 0.930 . S
H1354 C1370 0.931 . S
C1355 H1343 0.929 . S
C1355 C1349 1.390 . S
C1355 C1352 1.386 . S
C1356 C1351 1.490 . S
C1356 C1358 1.395 . S
C1356 C1359 1.403 . S
H1357 C1363 0.930 . S
C1358 H1344 0.930 . S
C1358 C1356 1.395 . S
C1358 C1361 1.403 . S
C1359 C1356 1.403 . S
C1359 C1360 1.524 . S
C1359 C1363 1.400 . S
C1360 H1345 0.960 . S
C1360 H1346 0.960 . S
C1360 H1347 0.960 . S
C1360 C1359 1.524 . S
C1361 C1358 1.403 . S
C1361 C1362 1.392 . S
C1361 C1365 1.495 . S
C1362 C1361 1.392 . S
C1362 C1363 1.385 . S
C1362 C1364 1.478 . S
C1363 H1357 0.930 . S
C1363 C1359 1.400 . S
C1363 C1362 1.385 . S
C1364 C1362 1.478 . S
C1364 C1366 1.381 . S
C1364 C1370 1.383 . S
C1365 C1361 1.495 . S
C1365 H1371 0.959 . S
C1365 H1372 0.961 . S
C1365 H1373 0.960 . S
C1366 C1364 1.381 . S
C1366 C1367 1.394 . S
C1366 H1374 0.930 . S
C1367 C1366 1.394 . S
C1367 C1368 1.383 . S
C1367 H1375 0.929 . S
C1368 C1367 1.383 . S
C1368 C1369 1.377 . S
C1369 H1353 0.930 . S
C1369 C1368 1.377 . S
C1369 C1370 1.379 . S
C1370 H1354 0.931 . S
C1370 C1364 1.383 . S
C1370 C1369 1.379 . S
H1371 C1365 0.959 . S
H1372 C1365 0.961 . S
H1373 C1365 0.960 . S
H1374 C1366 0.930 . S
H1375 C1367 0.929 . S
C233 C163 1.380 . S
C252 C7 1.363 . S
C269 C217 1.310 . S
C288 C23 1.255 . S
C305 C35 1.378 . S
C324 C133 1.391 . S
C341 C191 1.201 . S
C360 C51 1.204 . S
C377 C63 1.368 . S
C396 C189 1.360 . S
C413 C79 1.301 . S
C432 C161 1.329 . S
C449 C91 1.395 . S
C468 C219 1.377 . S
C485 C107 1.182 . S
C504 C135 1.168 . S
C521 C49 1.412 . S
C540 C119 1.387 . S
C557 C149 1.348 . S
C576 C21 1.330 . S
C593 C175 1.430 . S
C612 C77 1.448 . S
C629 C205 1.332 . S
C648 C105 1.339 . S
C665 C65 1.265 . S
C684 C121 1.247 . S
C701 C147 1.247 . S
C720 C93 1.239 . S
C737 C203 1.259 . S
C756 C37 1.231 . S
C773 C9 1.249 . S
C792 C177 1.234 . S
C809 C3 1.274 . S
C828 C59 1.263 . S
C845 C22 1.198 . S
C864 C78 1.189 . S
C881 C31 1.400 . S
C900 C87 1.405 . S
C917 C106 1.136 . S
C936 C50 1.139 . S
C953 C115 1.324 . S
C972 C171 1.330 . S
C989 C190 1.118 . S
C1008 C134 1.111 . S
C1025 C148 1.211 . S
C1044 C204 1.210 . S
C1061 C213 1.259 . S
C1080 C157 1.262 . S
C1097 C101 1.330 . S
C1116 C17 1.325 . S
C1133 C36 1.228 . S
C1152 C64 1.227 . S
C1169 C45 1.345 . S
C1188 C73 1.348 . S
C1205 C8 1.109 . S
C1224 C92 1.115 . S
C1241 C129 1.252 . S
C1260 C218 1.259 . S
C1277 C176 1.203 . S
C1296 C143 1.173 . S
C1313 C162 1.279 . S
C1332 C185 1.280 . S
C1349 C199 1.174 . S
C1368 C120 1.173 . S
