# Generated by pormake.
# Topology qtz-e, (6)-cn, num edge types: 1
# Building blocks:
#     Node 0, Type 0, BuildingBlock: BETFAJ_clean_sbu_0, # of connection points: 6
#     Node 1, Type 0, BuildingBlock: BETFAJ_clean_sbu_0, # of connection points: 6
#     Node 2, Type 0, BuildingBlock: BETFAJ_clean_sbu_0, # of connection points: 6
#     Node 3, Type 0, BuildingBlock: BETFAJ_clean_sbu_0, # of connection points: 6
#     Node 4, Type 0, BuildingBlock: BETFAJ_clean_sbu_0, # of connection points: 6
#     Node 5, Type 0, BuildingBlock: BETFAJ_clean_sbu_0, # of connection points: 6
#     Edge 6, Type (0, 0), BuildingBlock: CIFDUS_clean_linker_0, # of connection points: 2
#     Edge 7, Type (0, 0), BuildingBlock: CIFDUS_clean_linker_0, # of connection points: 2
#     Edge 8, Type (0, 0), BuildingBlock: CIFDUS_clean_linker_0, # of connection points: 2
#     Edge 9, Type (0, 0), BuildingBlock: CIFDUS_clean_linker_0, # of connection points: 2
#     Edge 10, Type (0, 0), BuildingBlock: CIFDUS_clean_linker_0, # of connection points: 2
#     Edge 11, Type (0, 0), BuildingBlock: CIFDUS_clean_linker_0, # of connection points: 2
#     Edge 12, Type (0, 0), BuildingBlock: CIFDUS_clean_linker_0, # of connection points: 2
#     Edge 13, Type (0, 0), BuildingBlock: CIFDUS_clean_linker_0, # of connection points: 2
#     Edge 14, Type (0, 0), BuildingBlock: CIFDUS_clean_linker_0, # of connection points: 2
#     Edge 15, Type (0, 0), BuildingBlock: CIFDUS_clean_linker_0, # of connection points: 2
#     Edge 16, Type (0, 0), BuildingBlock: CIFDUS_clean_linker_0, # of connection points: 2
#     Edge 17, Type (0, 0), BuildingBlock: CIFDUS_clean_linker_0, # of connection points: 2
#     Edge 18, Type (0, 0), BuildingBlock: CIFDUS_clean_linker_0, # of connection points: 2
#     Edge 19, Type (0, 0), BuildingBlock: CIFDUS_clean_linker_0, # of connection points: 2
#     Edge 20, Type (0, 0), BuildingBlock: CIFDUS_clean_linker_0, # of connection points: 2
#     Edge 21, Type (0, 0), BuildingBlock: CIFDUS_clean_linker_0, # of connection points: 2
#     Edge 22, Type (0, 0), BuildingBlock: CIFDUS_clean_linker_0, # of connection points: 2
#     Edge 23, Type (0, 0), BuildingBlock: CIFDUS_clean_linker_0, # of connection points: 2
# Relax obj value: 0.099
# Max RMSD: 0.185
# Mean RMSD: 0.185
data_MOF--net-qtz-e--node1-BETFAJ_clean_sbu_0--edge1-CIFDUS_clean_linker_0
_symmetry_space_group_name_H-M    P1
_symmetry_Int_Tables_number       1
_symmetry_cell_setting            triclinic
loop_
_symmetry_equiv_pos_as_xyz
'x, y, z'
_cell_length_a     23.062781
_cell_length_b     22.899334
_cell_length_c     47.455444
_cell_angle_alpha  90.634202
_cell_angle_beta   90.014008
_cell_angle_gamma 120.27072
loop_
_atom_site_label
_atom_site_type_symbol
_atom_site_fract_x
_atom_site_fract_y
_atom_site_fract_z
_atom_type_partial_charge
Sm0 Sm 0.179 0.48441 0.07059 0.0
Sm1 Sm 0.15213 0.35125 0.04386 0.0
C2 C 0.18644 0.59565 0.09108 0.0
C3 C 0.19104 0.61916 0.12051 0.0
C4 C 0.15365 0.6489 0.12921 0.0
C5 C 0.15214 0.66458 0.1577 0.0
C6 C 0.18817 0.65089 0.17798 0.0
C7 C 0.22686 0.62257 0.16908 0.0
C8 C 0.22795 0.60646 0.14066 0.0
C9 C 0.28084 0.45659 0.07848 0.0
C10 C 0.11676 0.35433 0.11127 0.0
C11 C 0.14494 0.24161 1.02136 0.0
C12 C 0.15637 0.22875 0.99196 0.0
C13 C 0.16987 0.17705 0.98508 0.0
C14 C 0.18793 0.17044 0.95748 0.0
C15 C 0.1935 0.21606 0.93656 0.0
C16 C 0.17747 0.26612 0.94341 0.0
C17 C 0.159 0.2723 0.97078 0.0
C18 C 0.0582 0.38858 0.03243 0.0
C19 C 0.21692 0.48047 1.00404 0.0
O20 O 0.12945 0.54203 0.08398 0.0
O21 O 0.23863 0.59373 0.08145 0.0
O22 O 0.24762 0.44649 0.05609 0.0
O23 O 0.25993 0.48171 0.09792 0.0
O24 O 0.12362 0.4143 0.10711 0.0
O25 O 0.13119 0.32277 0.09128 0.0
O26 O 0.19828 0.28816 0.03474 0.0
O27 O 0.09214 0.24775 0.02552 0.0
O28 O 0.08474 0.3921 0.05603 0.0
O29 O 0.08022 0.36342 1.01356 0.0
O30 O 0.21556 0.42355 1.00933 0.0
O31 O 0.19749 0.51006 1.02291 0.0
H32 H 0.12435 0.6585 0.11408 0.0
H33 H 0.12227 0.68688 0.16391 0.0
H34 H 0.25438 0.61061 0.18421 0.0
H35 H 0.25632 0.58244 0.13459 0.0
H36 H 0.16841 0.14318 1.00119 0.0
H37 H 0.2005 0.13174 0.95282 0.0
H38 H 0.18073 0.30161 0.92769 0.0
H39 H 0.14861 0.31246 0.97559 0.0
Sm40 Sm 0.71662 0.19397 0.41322 0.0
Sm41 Sm 0.8195 0.1718 0.38168 0.0
C42 C 0.61749 0.20233 0.43715 0.0
C43 C 0.59124 0.18923 0.46605 0.0
C44 C 0.58689 0.13491 0.48132 0.0
C45 C 0.56707 0.12598 0.50948 0.0
C46 C 0.55199 0.17161 0.52297 0.0
C47 C 0.55609 0.22572 0.50762 0.0
C48 C 0.57543 0.23433 0.47935 0.0
C49 C 0.84734 0.29595 0.42007 0.0
C50 C 0.7845 0.12453 0.44844 0.0
C51 C 0.92156 0.17488 0.35481 0.0
C52 C 0.95063 0.2002 0.32641 0.0
C53 C -0.01068 0.26994 0.32122 0.0
C54 C 0.0111 0.29354 0.29395 0.0
C55 C -0.00524 0.24824 0.27099 0.0
C56 C 0.95811 0.17842 0.27636 0.0
C57 C 0.93644 0.15475 0.30371 0.0
C58 C 0.68725 0.07348 0.37352 0.0
C59 C 0.74606 0.23665 0.34725 0.0
O60 O 0.60821 0.14984 0.42233 0.0
O61 O 0.67781 0.25443 0.4344 0.0
O62 O 0.82103 0.26647 0.39702 0.0
O63 O 0.80498 0.26994 0.44053 0.0
O64 O 0.73115 0.13102 0.44591 0.0
O65 O 0.82907 0.14141 0.4278 0.0
O66 O 0.92926 0.22004 0.37396 0.0
O67 O 0.86151 0.12122 0.35522 0.0
O68 O 0.71478 0.10146 0.39654 0.0
O69 O 0.73093 0.0955 0.35339 0.0
O70 O 0.80288 0.23678 0.35037 0.0
O71 O 0.7004 0.21467 0.36727 0.0
H72 H 0.59994 0.1 0.47166 0.0
H73 H 0.56499 0.08425 0.52089 0.0
H74 H 0.54408 0.26121 0.51745 0.0
H75 H 0.57908 0.27684 0.468 0.0
H76 H 0.00181 0.30664 0.33811 0.0
H77 H 0.04048 0.34763 0.29085 0.0
H78 H 0.94418 0.14193 0.25928 0.0
H79 H 0.90697 0.10071 0.30696 0.0
Sm80 Sm 0.49886 0.70176 0.73586 0.0
Sm81 Sm 0.63866 0.79211 0.71112 0.0
C82 C 0.38378 0.61135 0.75775 0.0
C83 C 0.36595 0.59736 0.78781 0.0
C84 C 0.41192 0.59659 0.80707 0.0
C85 C 0.39843 0.59003 0.83588 0.0
C86 C 0.33884 0.58458 0.84624 0.0
C87 C 0.29237 0.58444 0.82691 0.0
C88 C 0.3059 0.5909 0.79796 0.0
C89 C 0.5536 0.83779 0.74827 0.0
C90 C 0.62939 0.74486 0.77526 0.0
C91 C 0.74429 0.88284 0.68259 0.0
C92 C 0.75238 0.92268 0.6571 0.0
C93 C 0.7012 0.9347 0.64854 0.0
C94 C 0.70572 0.96655 0.62299 0.0
C95 C 0.76214 0.98826 0.60544 0.0
C96 C 0.81403 0.97714 0.61445 0.0
C97 C 0.80895 0.94436 0.63993 0.0
C98 C 0.59195 0.65518 0.70974 0.0
C99 C 0.50463 0.74682 0.67086 0.0
O100 O 0.42826 0.59628 0.74843 0.0
O101 O 0.39442 0.66995 0.74889 0.0
O102 O 0.55696 0.81272 0.72503 0.0
O103 O 0.52336 0.79003 0.76645 0.0
O104 O 0.57033 0.69423 0.76729 0.0
O105 O 0.66351 0.79762 0.75876 0.0
O106 O 0.72164 0.89802 0.70522 0.0
O107 O 0.71629 0.81765 0.67833 0.0
O108 O 0.55936 0.68375 0.70416 0.0
O109 O 0.65368 0.69939 0.71636 0.0
O110 O 0.57 0.78656 0.67471 0.0
O111 O 0.46541 0.70559 0.69063 0.0
H112 H 0.45902 0.60215 0.79995 0.0
H113 H 0.43479 0.58911 0.85005 0.0
H114 H 0.24625 0.58095 0.83421 0.0
H115 H 0.27019 0.59234 0.78357 0.0
H116 H 0.65692 0.91822 0.66137 0.0
H117 H 0.66397 0.97273 0.61683 0.0
H118 H 0.85876 -0.00608 0.60191 0.0
H119 H 0.84895 0.93529 0.64609 0.0
Sm120 Sm 0.75247 0.52962 0.08415 0.0
Sm121 Sm 0.79327 0.65658 0.04916 0.0
C122 C 0.72983 0.41613 0.10825 0.0
C123 C 0.71606 0.38433 0.1358 0.0
C124 C 0.72028 0.32589 0.1388 0.0
C125 C 0.72225 0.30255 0.16557 0.0
C126 C 0.72001 0.33747 0.18969 0.0
C127 C 0.71143 0.39364 0.18659 0.0
C128 C 0.70987 0.41725 0.15973 0.0
C129 C 0.66956 0.58256 0.09125 0.0
C130 C 0.84289 0.67379 0.11534 0.0
C131 C 0.81246 0.76276 1.0199 0.0
C132 C 0.8021 0.77016 0.98971 0.0
C133 C 0.789 0.71788 0.97043 0.0
C134 C 0.77632 0.72325 0.942 0.0
C135 C 0.77625 0.78104 0.93215 0.0
C136 C 0.7902 0.83367 0.95156 0.0
C137 C 0.80289 0.82819 0.98005 0.0
C138 C 0.86751 0.5936 0.03994 0.0
C139 C 0.70338 0.51484 1.01797 0.0
O140 O 0.78929 0.46969 0.10605 0.0
O141 O 0.6825 0.42283 0.09623 0.0
O142 O 0.69442 0.57795 0.06822 0.0
O143 O 0.69037 0.56042 0.11168 0.0
O144 O 0.82768 0.6101 0.11435 0.0
O145 O 0.8272 0.70155 0.09449 0.0
O146 O 0.75789 0.72524 0.03431 0.0
O147 O 0.86065 0.75038 0.02581 0.0
O148 O 0.8475 0.60322 0.06321 0.0
O149 O 0.85167 0.62122 1.01997 0.0
O150 O 0.71369 0.57661 1.02037 0.0
O151 O 0.72187 0.48818 0.03819 0.0
H152 H 0.72575 0.30042 0.12048 0.0
H153 H 0.72816 0.25871 0.16746 0.0
H154 H 0.71003 0.42159 0.20489 0.0
H155 H 0.70756 0.46311 0.15765 0.0
H156 H 0.78818 0.67259 0.97742 0.0
H157 H 0.76679 0.68208 0.92773 0.0
H158 H 0.78974 0.87851 0.9449 0.0
H159 H 0.81251 0.86892 0.99461 0.0
Sm160 Sm 0.2469 0.78465 0.40778 0.0
Sm161 Sm 0.15703 0.82741 0.38073 0.0
C162 C 0.34151 0.76305 0.42764 0.0
C163 C 0.37319 0.77175 0.45555 0.0
C164 C 0.40379 0.83442 0.46991 0.0
C165 C 0.42828 0.83998 0.49734 0.0
C166 C 0.42181 0.78288 0.51101 0.0
C167 C 0.39225 0.72061 0.49646 0.0
C168 C 0.36848 0.71521 0.46894 0.0
C169 C 0.11355 0.68762 0.40999 0.0
C170 C 0.18719 0.85404 0.449 0.0
C171 C 0.06698 0.84873 0.35573 0.0
C172 C 0.03481 0.82597 0.32761 0.0
C173 C 0.03325 0.87239 0.30894 0.0
C174 C 0.01224 0.85365 0.28085 0.0
C175 C -0.00739 0.78808 0.27087 0.0
C176 C -0.00832 0.74105 0.29004 0.0
C177 C 0.01293 0.75984 0.31793 0.0
C178 C 0.29317 0.92073 0.38131 0.0
C179 C 0.2154 0.75781 0.34022 0.0
O180 O 0.35468 0.81785 0.41411 0.0
O181 O 0.27832 0.71593 0.42592 0.0
O182 O 0.14226 0.7232 0.3887 0.0
O183 O 0.15494 0.70531 0.43112 0.0
O184 O 0.23811 0.84412 0.44478 0.0
O185 O 0.14349 0.84384 0.42859 0.0
O186 O 0.05105 0.80203 0.37477 0.0
O187 O 0.13135 0.89239 0.35531 0.0
O188 O 0.25802 0.88546 0.40112 0.0
O189 O 0.2567 0.90662 0.35869 0.0
O190 O 0.16143 0.76141 0.34563 0.0
O191 O 0.2622 0.77446 0.35978 0.0
H192 H 0.40756 0.87881 0.46024 0.0
H193 H 0.45061 0.88852 0.50816 0.0
H194 H 0.38749 0.67603 0.50638 0.0
H195 H 0.34505 0.66641 0.45829 0.0
H196 H 0.05068 0.92393 0.3158 0.0
H197 H 0.01406 0.89132 0.26671 0.0
H198 H 0.9756 0.68969 0.28338 0.0
H199 H 0.01418 0.72299 0.33166 0.0
Sm200 Sm 0.45646 0.2285 0.74981 0.0
Sm201 Sm 0.32709 0.12291 0.72033 0.0
C202 C 0.56617 0.3321 0.77178 0.0
C203 C 0.58744 0.35531 0.80085 0.0
C204 C 0.63383 0.42351 0.80638 0.0
C205 C 0.64783 0.44781 0.83415 0.0
C206 C 0.61542 0.40418 0.85678 0.0
C207 C 0.57012 0.33542 0.85111 0.0
C208 C 0.55599 0.31125 0.82334 0.0
C209 C 0.42224 0.09703 0.76005 0.0
C210 C 0.32027 0.16603 0.78612 0.0
C211 C 0.21921 0.02035 0.69656 0.0
C212 C 0.20433 -0.0072 0.66742 0.0
C213 C 0.25583 -0.00229 0.65004 0.0
C214 C 0.24258 0.97524 0.62198 0.0
C215 C 0.17749 0.94764 0.61051 0.0
C216 C 0.12583 0.94227 0.6281 0.0
C217 C 0.13921 0.96477 0.65625 0.0
C218 C 0.36755 0.25576 0.70899 0.0
C219 C 0.46166 0.18525 0.68398 0.0
O220 O 0.5144 0.33609 0.76341 0.0
O221 O 0.56246 0.27513 0.76431 0.0
O222 O 0.41806 0.11982 0.73651 0.0
O223 O 0.44299 0.14399 0.77933 0.0
O224 O 0.38046 0.21908 0.7826 0.0
O225 O 0.29201 0.11732 0.76674 0.0
O226 O 0.26405 0.01306 0.71059 0.0
O227 O 0.22655 0.08045 0.69999 0.0
O228 O 0.36871 0.23213 0.73258 0.0
O229 O 0.34147 0.20827 0.68998 0.0
O230 O 0.40367 0.13005 0.68836 0.0
O231 O 0.48869 0.2347 0.70301 0.0
H232 H 0.65782 0.4583 0.78922 0.0
H233 H 0.68344 0.50091 0.8379 0.0
H234 H 0.54375 0.30082 0.86806 0.0
H235 H 0.51896 0.25862 0.8194 0.0
H236 H 0.30656 0.01936 0.65809 0.0
H237 H 0.28346 0.97919 0.60934 0.0
H238 H 0.07531 0.92197 0.61997 0.0
H239 H 0.09885 0.96112 0.6692 0.0
H240 H 0.11604 0.68861 0.30234 0.0
H241 H 0.32998 0.77806 0.31372 0.0
H242 H 0.34058 0.7514 0.26443 0.0
H243 H 0.28905 0.70835 0.21734 0.0
H244 H 0.07469 0.61891 0.20717 0.0
H245 H 0.06429 0.63897 0.25702 0.0
C246 C 0.1651 0.70204 0.29415 0.0
C247 C 0.22228 0.73577 0.3116 0.0
C248 C 0.17074 0.68703 0.26595 0.0
C249 C 0.28521 0.75196 0.30073 0.0
C250 C 0.29129 0.73709 0.27251 0.0
C251 C 0.24009 0.69323 0.22608 0.0
C252 C 0.18284 0.66316 0.20844 0.0
C253 C 0.23445 0.7056 0.25479 0.0
C254 C 0.11971 0.64364 0.22009 0.0
C255 C 0.11367 0.65494 0.24858 0.0
H256 H 0.42887 0.08778 0.64421 0.0
H257 H 0.56425 0.30025 0.66082 0.0
H258 H 0.60556 0.31446 0.61242 0.0
H259 H 0.59826 0.26738 0.56464 0.0
H260 H 0.46065 0.05533 0.54845 0.0
H261 H 0.42469 0.04015 0.59755 0.0
C262 C 0.46767 0.13725 0.63737 0.0
C263 C 0.49308 0.19299 0.65607 0.0
C264 C 0.4903 0.14517 0.60954 0.0
C265 C 0.54397 0.25646 0.64689 0.0
C266 C 0.56726 0.26469 0.61917 0.0
C267 C 0.56031 0.21795 0.57191 0.0
C268 C 0.53185 0.16261 0.55297 0.0
C269 C 0.53989 0.20962 0.60018 0.0
C270 C 0.48354 0.09856 0.5627 0.0
C271 C 0.46286 0.08991 0.59072 0.0
H272 H 0.33161 0.57822 0.97985 0.0
H273 H 0.12637 0.42613 0.96225 0.0
H274 H 0.1445 0.44722 0.91183 0.0
H275 H 0.22065 0.50273 0.87254 0.0
H276 H 0.4274 0.65308 0.88937 0.0
H277 H 0.40726 0.63847 0.94003 0.0
C278 C 0.29078 0.55113 0.96489 0.0
C279 C 0.22736 0.50211 0.97457 0.0
C280 C 0.30216 0.56232 0.93576 0.0
C281 C 0.17511 0.4654 0.95515 0.0
C282 C 0.18562 0.47697 0.92634 0.0
C283 C 0.26105 0.5332 0.88726 0.0
C284 C 0.32544 0.57867 0.87709 0.0
C285 C 0.24918 0.52453 0.91635 0.0
C286 C 0.3775 0.61688 0.89657 0.0
C287 C 0.36597 0.60889 0.92558 0.0
H288 H 0.81787 0.2616 0.2995 0.0
H289 H 0.64407 0.26045 0.33402 0.0
H290 H 0.62095 0.29281 0.2882 0.0
H291 H 0.64927 0.31907 0.23795 0.0
H292 H 0.82149 0.31629 0.20408 0.0
H293 H 0.84596 0.28741 0.25015 0.0
C294 C 0.77511 0.26883 0.29716 0.0
C295 C 0.73291 0.25895 0.32017 0.0
C296 C 0.7616 0.28621 0.27083 0.0
C297 C 0.67739 0.26788 0.31662 0.0
C298 C 0.6641 0.28627 0.29044 0.0
C299 C 0.69212 0.31222 0.2408 0.0
C300 C 0.73319 0.31913 0.21773 0.0
C301 C 0.70568 0.29518 0.26735 0.0
C302 C 0.78855 0.31003 0.22149 0.0
C303 C 0.80281 0.29397 0.24782 0.0
H304 H 0.56653 0.83595 0.62877 0.0
H305 H 0.37883 0.65845 0.65002 0.0
H306 H 0.33612 0.65497 0.60247 0.0
H307 H 0.35415 0.69985 0.5543 0.0
H308 H 0.54201 0.87758 0.53361 0.0
H309 H 0.58278 0.88363 0.58169 0.0
C310 C 0.51616 0.79662 0.62316 0.0
C311 C 0.47619 0.74727 0.64294 0.0
C312 C 0.49214 0.79487 0.59587 0.0
C313 C 0.41073 0.69706 0.63524 0.0
C314 C 0.38637 0.6949 0.60803 0.0
C315 C 0.40404 0.73977 0.56038 0.0
C316 C 0.44529 0.78789 0.54045 0.0
C317 C 0.42699 0.74303 0.58807 0.0
C318 C 0.50933 0.84015 0.54864 0.0
C319 C 0.53269 0.84349 0.57608 0.0
H320 H 0.66679 0.55945 0.97256 0.0
H321 H 0.68498 0.39118 1.0015 0.0
H322 H 0.65696 0.34067 0.95414 0.0
H323 H 0.63478 0.34859 0.90382 0.0
H324 H 0.62063 0.51954 0.8755 0.0
H325 H 0.64102 0.56545 0.92342 0.0
C326 C 0.66416 0.51139 0.96872 0.0
C327 C 0.67819 0.47925 0.99059 0.0
C328 C 0.64982 0.48372 0.94144 0.0
C329 C 0.67423 0.41692 0.98508 0.0
C330 C 0.65863 0.38824 0.95796 0.0
C331 C 0.63558 0.39556 0.90823 0.0
C332 C 0.62681 0.43091 0.8861 0.0
C333 C 0.64751 0.42184 0.93587 0.0
C334 C 0.62849 0.49201 0.89206 0.0
C335 C 0.63964 0.51805 0.91947 0.0
H336 H 0.37654 0.51763 0.11928 0.0
H337 H 0.3419 0.4293 0.03573 0.0
H338 H 0.4611 0.46743 0.03124 0.0
H339 H 0.57478 0.52657 0.05066 0.0
H340 H 0.61023 0.60948 0.13509 0.0
H341 H 0.49105 0.57457 0.13939 0.0
C342 C 0.39505 0.50609 0.10025 0.0
C343 C 0.35064 0.47086 0.07784 0.0
C344 C 0.46379 0.52857 0.09772 0.0
C345 C 0.37518 0.45627 0.05328 0.0
C346 C 0.44335 0.47853 0.05059 0.0
C347 C 0.55668 0.53814 0.06982 0.0
C348 C 0.60109 0.5716 0.09239 0.0
C349 C 0.48813 0.51541 0.07252 0.0
C350 C 0.57678 0.58465 0.11735 0.0
C351 C 0.50873 0.56408 0.11988 0.0
H352 H 0.06374 0.59508 0.4511 0.0
H353 H 0.03822 0.62298 0.36312 0.0
H354 H 0.95657 0.5021 0.35785 0.0
H355 H 0.89485 0.38814 0.3782 0.0
H356 H 0.92024 0.36188 0.46635 0.0
H357 H 0.00155 0.4826 0.47145 0.0
C358 C 0.03984 0.57487 0.43082 0.0
C359 C 0.05695 0.61769 0.40753 0.0
C360 C -0.00573 0.50554 0.42786 0.0
C361 C 0.02556 0.59092 0.38139 0.0
C362 C -0.02056 0.5218 0.37832 0.0
C363 C 0.91902 0.40883 0.3984 0.0
C364 C 0.90242 0.36646 0.42185 0.0
C365 C 0.96422 0.4785 0.40132 0.0
C366 C 0.93291 0.39377 0.44802 0.0
C367 C -0.02116 0.4627 0.45098 0.0
H368 H 0.48842 0.06585 0.72158 0.0
H369 H 0.40033 0.01391 0.80417 0.0
H370 H 0.43975 0.93301 0.80938 0.0
H371 H 0.49703 0.87563 0.78966 0.0
H372 H 0.58906 0.93231 0.70774 0.0
H373 H 0.55245 0.01496 0.70346 0.0
C374 C 0.47713 0.0361 0.74056 0.0
C375 C 0.44014 0.04411 0.76222 0.0
C376 C 0.50201 -0.00805 0.74375 0.0
C377 C 0.42768 0.00723 0.78708 0.0
C378 C 0.45071 0.96163 0.79013 0.0
C379 C 0.51018 0.907 0.77112 0.0
C380 C 0.54524 0.89755 0.74895 0.0
C381 C 0.48803 0.95368 0.76859 0.0
C382 C 0.56204 0.93863 0.72508 0.0
C383 C 0.54054 0.98537 0.72247 0.0
H384 H 0.46472 0.56363 0.69507 0.0
H385 H 0.65213 0.58137 0.72143 0.0
H386 H 0.59974 0.45785 0.72046 0.0
H387 H 0.49979 0.34591 0.71342 0.0
H388 H 0.3107 0.3277 0.69092 0.0
H389 H 0.36517 0.45132 0.68773 0.0
C390 C 0.49417 0.54047 0.70059 0.0
C391 C 0.56206 0.58124 0.70852 0.0
C392 C 0.46353 0.46987 0.70034 0.0
C393 C 0.59978 0.55081 0.71538 0.0
C394 C 0.56988 0.4804 0.71478 0.0
C395 C 0.47041 0.36905 0.7084 0.0
C396 C 0.40128 0.32846 0.70328 0.0
C397 C 0.50166 0.43961 0.70761 0.0
C398 C 0.36409 0.35849 0.69509 0.0
C399 C 0.3951 0.42891 0.69349 0.0
H400 H 0.94262 0.36872 0.05408 0.0
H401 H 0.09723 0.49248 0.99534 0.0
H402 H 0.05203 0.56828 0.99148 0.0
H403 H 0.9725 0.60453 1.00868 0.0
H404 H 0.80486 0.46532 0.05814 0.0
H405 H 0.84966 0.39002 0.06189 0.0
C406 C 0.96566 0.41176 0.04014 0.0
C407 C 0.02438 0.42664 0.02588 0.0
C408 C 0.93731 0.45284 0.03683 0.0
C409 C 0.05306 0.48125 1.00723 0.0
C410 C 0.02701 0.52452 1.0049 0.0
C411 C 0.94564 0.5573 1.01992 0.0
C412 C 0.8884 0.543 0.03555 0.0
C413 C 0.96992 0.51176 1.02021 0.0
C414 C 0.85249 0.48047 0.04882 0.0
C415 C 0.87728 0.4365 0.05021 0.0
H416 H 0.38365 0.95551 0.33807 0.0
H417 H 0.36716 0.96097 0.42859 0.0
H418 H 0.48603 0.00053 0.43401 0.0
H419 H 0.59364 0.03023 0.41359 0.0
H420 H 0.6174 0.03961 0.32342 0.0
H421 H 0.49634 -0.00555 0.31718 0.0
C422 C 0.4066 0.96658 0.35886 0.0
C423 C 0.36682 0.955 0.38289 0.0
C424 C 0.47572 -0.00993 0.36191 0.0
C425 C 0.39683 0.96924 0.40977 0.0
C426 C 0.46467 -0.00866 0.41295 0.0
C427 C 0.57241 0.02289 0.39255 0.0
C428 C 0.61411 0.0389 0.36906 0.0
C429 C 0.50426 0.00101 0.38924 0.0
C430 C 0.58596 0.02759 0.34188 0.0
C431 C 0.51699 0.00251 0.33832 0.0
H432 H 0.3489 0.26932 0.82204 0.0
H433 H 0.21303 0.05525 0.81028 0.0
H434 H 0.16151 0.05108 0.85606 0.0
H435 H 0.15746 0.10892 0.90016 0.0
H436 H 0.29345 0.3236 0.91 0.0
H437 H 0.34267 0.32675 0.86425 0.0
C438 C 0.30796 0.22154 0.82938 0.0
C439 C 0.28519 0.16255 0.81281 0.0
C440 C 0.27872 0.21968 0.85547 0.0
C441 C 0.23147 0.10143 0.82259 0.0
C442 C 0.20222 0.09902 0.84881 0.0
C443 C 0.1979 0.1562 0.8922 0.0
C444 C 0.22167 0.216 0.90842 0.0
C445 C 0.22583 0.15783 0.86557 0.0
C446 C 0.27376 0.27708 0.89781 0.0
C447 C 0.30214 0.2789 0.87169 0.0
H448 H 0.03837 0.19889 0.22768 0.0
H449 H -0.00738 0.35572 0.24768 0.0
H450 H 0.02595 0.40138 0.20059 0.0
H451 H 0.06895 0.39828 0.15392 0.0
H452 H 0.11205 0.24046 0.13245 0.0
H453 H 0.0778 0.19328 0.17966 0.0
C454 C 0.0351 0.24269 0.22169 0.0
C455 C 0.01379 0.2742 0.2416 0.0
C456 C 0.05372 0.26856 0.19421 0.0
C457 C 0.01036 0.33122 0.23327 0.0
C458 C 0.02891 0.35717 0.20617 0.0
C459 C 0.07087 0.35343 0.15941 0.0
C460 C 0.09341 0.32323 0.1395 0.0
C461 C 0.05104 0.32658 0.18654 0.0
C462 C 0.09493 0.26487 0.14721 0.0
C463 C 0.07546 0.23791 0.17428 0.0
H464 H 0.81982 0.9813 0.55533 0.0
H465 H 0.7145 0.07336 0.59351 0.0
H466 H 0.7127 0.12231 0.54868 0.0
H467 H 0.73845 0.13792 0.4987 0.0
H468 H 0.84988 0.05403 0.45987 0.0
H469 H 0.85386 0.00496 0.5052 0.0
C470 C 0.79741 0.01294 0.55407 0.0
C471 C 0.76616 0.02212 0.57803 0.0
C472 C 0.79798 0.04285 0.52812 0.0
C473 C 0.73707 0.06315 0.57553 0.0
C474 C 0.73658 0.09198 0.54987 0.0
C475 C 0.76383 0.10898 0.50006 0.0
C476 C 0.79321 0.09898 0.47583 0.0
C477 C 0.76623 0.08163 0.52603 0.0
C478 C 0.82689 0.06246 0.47818 0.0
C479 C 0.82884 0.03418 0.50407 0.0
H480 H 0.73249 0.84647 0.80648 0.0
H481 H 0.58285 0.63411 0.80826 0.0
H482 H 0.61536 0.62662 0.85615 0.0
H483 H 0.6822 0.68036 0.89849 0.0
H484 H 0.83333 0.892 0.89769 0.0
H485 H 0.80384 0.89965 0.8489 0.0
C486 C 0.70757 0.79847 0.81725 0.0
C487 C 0.65501 0.74114 0.80362 0.0
C488 C 0.72627 0.79431 0.84521 0.0
C489 C 0.62309 0.67938 0.81809 0.0
C490 C 0.64164 0.67486 0.84561 0.0
C491 C 0.70956 0.72804 0.8876 0.0
C492 C 0.75994 0.78547 0.90197 0.0
C493 C 0.6926 0.73206 0.8595 0.0
C494 C 0.79366 0.84705 0.88744 0.0
C495 C 0.7771 0.85142 0.8594 0.0
H496 H 0.92271 0.82281 0.23387 0.0
H497 H 0.02807 0.71206 0.23882 0.0
H498 H -0.00529 0.67077 0.19079 0.0
H499 H 0.92951 0.65952 0.14846 0.0
H500 H 0.82775 0.77314 0.14132 0.0
H501 H 0.86731 0.82151 0.1887 0.0
C502 C 0.93907 0.79036 0.22433 0.0
C503 C 0.97622 0.76886 0.24046 0.0
C504 C 0.9205 0.7675 0.19622 0.0
C505 C -0.00271 0.72721 0.22748 0.0
C506 C -0.0212 0.70409 0.19982 0.0
C507 C 0.91663 0.69555 0.15713 0.0
C508 C 0.87534 0.71234 0.14155 0.0
C509 C 0.93929 0.72273 0.18422 0.0
C510 C 0.85976 0.75968 0.15288 0.0
C511 C 0.88192 0.78685 0.18005 0.0
H512 H 0.25702 0.00844 0.56513 0.0
H513 H 0.06743 0.83531 0.58782 0.0
H514 H 0.04886 0.79497 0.5389 0.0
H515 H 0.09134 0.80395 0.49003 0.0
H516 H 0.28447 0.97351 0.46905 0.0
H517 H 0.29687 0.02 0.51669 0.0
C518 C 0.21169 0.96169 0.55949 0.0
C519 C 0.16409 0.9248 0.58035 0.0
C520 C 0.20188 0.93814 0.53143 0.0
C521 C 0.10489 0.86515 0.5723 0.0
C522 C 0.09434 0.84177 0.54428 0.0
C523 C 0.13515 0.85187 0.49583 0.0
C524 C 0.18653 0.88595 0.47608 0.0
C525 C 0.14294 0.87729 0.52369 0.0
C526 C 0.24402 0.94703 0.48391 0.0
C527 C 0.25132 0.97335 0.51118 0.0
loop_
_geom_bond_atom_site_label_1
_geom_bond_atom_site_label_2
_geom_bond_distance
_geom_bond_site_symmetry_2
_ccdc_geom_bond_type
Sm0 C2 2.846 . S
Sm0 O20 2.543 . S
Sm0 O21 2.450 . S
Sm0 O22 2.681 . S
Sm0 O23 2.464 . S
Sm0 O24 2.396 . S
Sm0 O28 2.386 . S
Sm0 O31 2.408 . S
Sm1 C11 2.846 1_554 S
Sm1 O22 2.386 . S
Sm1 O25 2.408 . S
Sm1 O26 2.543 1_554 S
Sm1 O27 2.450 1_554 S
Sm1 O28 2.681 . S
Sm1 O29 2.464 . S
Sm1 O30 2.396 1_554 S
C2 Sm0 2.846 . S
C2 C3 1.506 . S
C2 O20 1.261 . S
C2 O21 1.242 . S
C3 C2 1.506 . S
C3 C4 1.358 . S
C3 C8 1.382 . S
C4 C3 1.358 . S
C4 C5 1.385 . S
C4 H32 0.930 . S
C5 C4 1.385 . S
C5 C6 1.395 . S
C5 H33 0.929 . S
C6 C5 1.395 . S
C6 C7 1.335 . S
C7 C6 1.335 . S
C7 C8 1.398 . S
C7 H34 0.930 . S
C8 C3 1.382 . S
C8 C7 1.398 . S
C8 H35 0.929 . S
C9 O22 1.271 . S
C9 O23 1.251 . S
C10 O24 1.252 . S
C10 O25 1.272 . S
C11 Sm1 2.846 1_556 S
C11 C12 1.506 . S
C11 O26 1.261 . S
C11 O27 1.242 . S
C12 C11 1.506 . S
C12 C13 1.358 . S
C12 C17 1.382 . S
C13 C12 1.358 . S
C13 C14 1.385 . S
C13 H36 0.930 . S
C14 C13 1.385 . S
C14 C15 1.395 . S
C14 H37 0.929 . S
C15 C14 1.395 . S
C15 C16 1.335 . S
C16 C15 1.335 . S
C16 C17 1.398 . S
C16 H38 0.930 . S
C17 C12 1.382 . S
C17 C16 1.398 . S
C17 H39 0.929 . S
C18 O28 1.271 . S
C18 O29 1.251 . S
C19 O30 1.252 . S
C19 O31 1.272 1_556 S
O20 Sm0 2.543 . S
O20 C2 1.261 . S
O21 Sm0 2.450 . S
O21 C2 1.242 . S
O22 Sm0 2.681 . S
O22 Sm1 2.386 . S
O22 C9 1.271 . S
O23 Sm0 2.464 . S
O23 C9 1.251 . S
O24 Sm0 2.396 . S
O24 C10 1.252 . S
O25 Sm1 2.408 . S
O25 C10 1.272 . S
O26 Sm1 2.543 1_556 S
O26 C11 1.261 . S
O27 Sm1 2.450 1_556 S
O27 C11 1.242 . S
O28 Sm0 2.386 . S
O28 Sm1 2.681 . S
O28 C18 1.271 . S
O29 Sm1 2.464 . S
O29 C18 1.251 . S
O30 Sm1 2.396 1_556 S
O30 C19 1.252 . S
O31 Sm0 2.408 . S
O31 C19 1.272 1_554 S
H32 C4 0.930 . S
H33 C5 0.929 . S
H34 C7 0.930 . S
H35 C8 0.929 . S
H36 C13 0.930 . S
H37 C14 0.929 . S
H38 C16 0.930 . S
H39 C17 0.929 . S
Sm40 C42 2.846 . S
Sm40 O60 2.543 . S
Sm40 O61 2.450 . S
Sm40 O62 2.681 . S
Sm40 O63 2.464 . S
Sm40 O64 2.396 . S
Sm40 O68 2.386 . S
Sm40 O71 2.408 . S
Sm41 C51 2.846 . S
Sm41 O62 2.386 . S
Sm41 O65 2.408 . S
Sm41 O66 2.543 . S
Sm41 O67 2.450 . S
Sm41 O68 2.681 . S
Sm41 O69 2.464 . S
Sm41 O70 2.396 . S
C42 Sm40 2.846 . S
C42 C43 1.506 . S
C42 O60 1.261 . S
C42 O61 1.242 . S
C43 C42 1.506 . S
C43 C44 1.358 . S
C43 C48 1.382 . S
C44 C43 1.358 . S
C44 C45 1.385 . S
C44 H72 0.930 . S
C45 C44 1.385 . S
C45 C46 1.395 . S
C45 H73 0.929 . S
C46 C45 1.395 . S
C46 C47 1.335 . S
C47 C46 1.335 . S
C47 C48 1.398 . S
C47 H74 0.930 . S
C48 C43 1.382 . S
C48 C47 1.398 . S
C48 H75 0.929 . S
C49 O62 1.271 . S
C49 O63 1.251 . S
C50 O64 1.252 . S
C50 O65 1.272 . S
C51 Sm41 2.846 . S
C51 C52 1.506 . S
C51 O66 1.261 . S
C51 O67 1.242 . S
C52 C51 1.506 . S
C52 C53 1.358 . S
C52 C57 1.382 . S
C53 C52 1.358 . S
C53 C54 1.385 1_655 S
C53 H76 0.930 . S
C54 C53 1.385 1_455 S
C54 C55 1.395 1_455 S
C54 H77 0.929 . S
C55 C54 1.395 1_655 S
C55 C56 1.335 . S
C56 C55 1.335 . S
C56 C57 1.398 . S
C56 H78 0.930 . S
C57 C52 1.382 . S
C57 C56 1.398 . S
C57 H79 0.929 . S
C58 O68 1.271 . S
C58 O69 1.251 . S
C59 O70 1.252 . S
C59 O71 1.272 . S
O60 Sm40 2.543 . S
O60 C42 1.261 . S
O61 Sm40 2.450 . S
O61 C42 1.242 . S
O62 Sm40 2.681 . S
O62 Sm41 2.386 . S
O62 C49 1.271 . S
O63 Sm40 2.464 . S
O63 C49 1.251 . S
O64 Sm40 2.396 . S
O64 C50 1.252 . S
O65 Sm41 2.408 . S
O65 C50 1.272 . S
O66 Sm41 2.543 . S
O66 C51 1.261 . S
O67 Sm41 2.450 . S
O67 C51 1.242 . S
O68 Sm40 2.386 . S
O68 Sm41 2.681 . S
O68 C58 1.271 . S
O69 Sm41 2.464 . S
O69 C58 1.251 . S
O70 Sm41 2.396 . S
O70 C59 1.252 . S
O71 Sm40 2.408 . S
O71 C59 1.272 . S
H72 C44 0.930 . S
H73 C45 0.929 . S
H74 C47 0.930 . S
H75 C48 0.929 . S
H76 C53 0.930 . S
H77 C54 0.929 . S
H78 C56 0.930 . S
H79 C57 0.929 . S
Sm80 C82 2.846 . S
Sm80 O100 2.543 . S
Sm80 O101 2.450 . S
Sm80 O102 2.681 . S
Sm80 O103 2.464 . S
Sm80 O104 2.396 . S
Sm80 O108 2.386 . S
Sm80 O111 2.408 . S
Sm81 C91 2.846 . S
Sm81 O102 2.386 . S
Sm81 O105 2.408 . S
Sm81 O106 2.543 . S
Sm81 O107 2.450 . S
Sm81 O108 2.681 . S
Sm81 O109 2.464 . S
Sm81 O110 2.396 . S
C82 Sm80 2.846 . S
C82 C83 1.506 . S
C82 O100 1.261 . S
C82 O101 1.242 . S
C83 C82 1.506 . S
C83 C84 1.358 . S
C83 C88 1.382 . S
C84 C83 1.358 . S
C84 C85 1.385 . S
C84 H112 0.930 . S
C85 C84 1.385 . S
C85 C86 1.395 . S
C85 H113 0.929 . S
C86 C85 1.395 . S
C86 C87 1.335 . S
C87 C86 1.335 . S
C87 C88 1.398 . S
C87 H114 0.930 . S
C88 C83 1.382 . S
C88 C87 1.398 . S
C88 H115 0.929 . S
C89 O102 1.271 . S
C89 O103 1.251 . S
C90 O104 1.252 . S
C90 O105 1.272 . S
C91 Sm81 2.846 . S
C91 C92 1.506 . S
C91 O106 1.261 . S
C91 O107 1.242 . S
C92 C91 1.506 . S
C92 C93 1.358 . S
C92 C97 1.382 . S
C93 C92 1.358 . S
C93 C94 1.385 1_565 S
C93 H116 0.930 . S
C94 C93 1.385 1_545 S
C94 C95 1.395 1_545 S
C94 H117 0.929 . S
C95 C94 1.395 1_565 S
C95 C96 1.335 . S
C96 C95 1.335 . S
C96 C97 1.398 . S
C96 H118 0.930 . S
C97 C92 1.382 . S
C97 C96 1.398 . S
C97 H119 0.929 . S
C98 O108 1.271 . S
C98 O109 1.251 . S
C99 O110 1.252 . S
C99 O111 1.272 . S
O100 Sm80 2.543 . S
O100 C82 1.261 . S
O101 Sm80 2.450 . S
O101 C82 1.242 . S
O102 Sm80 2.681 . S
O102 Sm81 2.386 . S
O102 C89 1.271 . S
O103 Sm80 2.464 . S
O103 C89 1.251 . S
O104 Sm80 2.396 . S
O104 C90 1.252 . S
O105 Sm81 2.408 . S
O105 C90 1.272 . S
O106 Sm81 2.543 . S
O106 C91 1.261 . S
O107 Sm81 2.450 . S
O107 C91 1.242 . S
O108 Sm80 2.386 . S
O108 Sm81 2.681 . S
O108 C98 1.271 . S
O109 Sm81 2.464 . S
O109 C98 1.251 . S
O110 Sm81 2.396 . S
O110 C99 1.252 . S
O111 Sm80 2.408 . S
O111 C99 1.272 . S
H112 C84 0.930 . S
H113 C85 0.929 . S
H114 C87 0.930 . S
H115 C88 0.929 . S
H116 C93 0.930 . S
H117 C94 0.929 . S
H118 C96 0.930 . S
H119 C97 0.929 . S
Sm120 C122 2.846 . S
Sm120 O140 2.543 . S
Sm120 O141 2.450 . S
Sm120 O142 2.681 . S
Sm120 O143 2.464 . S
Sm120 O144 2.396 . S
Sm120 O148 2.386 . S
Sm120 O151 2.408 . S
Sm121 C131 2.846 1_554 S
Sm121 O142 2.386 . S
Sm121 O145 2.408 . S
Sm121 O146 2.543 1_554 S
Sm121 O147 2.450 1_554 S
Sm121 O148 2.681 . S
Sm121 O149 2.464 . S
Sm121 O150 2.396 1_554 S
C122 Sm120 2.846 . S
C122 C123 1.506 . S
C122 O140 1.261 . S
C122 O141 1.242 . S
C123 C122 1.506 . S
C123 C124 1.358 . S
C123 C128 1.382 . S
C124 C123 1.358 . S
C124 C125 1.385 . S
C124 H152 0.930 . S
C125 C124 1.385 . S
C125 C126 1.395 . S
C125 H153 0.929 . S
C126 C125 1.395 . S
C126 C127 1.335 . S
C127 C126 1.335 . S
C127 C128 1.398 . S
C127 H154 0.930 . S
C128 C123 1.382 . S
C128 C127 1.398 . S
C128 H155 0.929 . S
C129 O142 1.271 . S
C129 O143 1.251 . S
C130 O144 1.252 . S
C130 O145 1.272 . S
C131 Sm121 2.846 1_556 S
C131 C132 1.506 . S
C131 O146 1.261 . S
C131 O147 1.242 . S
C132 C131 1.506 . S
C132 C133 1.358 . S
C132 C137 1.382 . S
C133 C132 1.358 . S
C133 C134 1.385 . S
C133 H156 0.930 . S
C134 C133 1.385 . S
C134 C135 1.395 . S
C134 H157 0.929 . S
C135 C134 1.395 . S
C135 C136 1.335 . S
C136 C135 1.335 . S
C136 C137 1.398 . S
C136 H158 0.930 . S
C137 C132 1.382 . S
C137 C136 1.398 . S
C137 H159 0.929 . S
C138 O148 1.271 . S
C138 O149 1.251 . S
C139 O150 1.252 . S
C139 O151 1.272 1_556 S
O140 Sm120 2.543 . S
O140 C122 1.261 . S
O141 Sm120 2.450 . S
O141 C122 1.242 . S
O142 Sm120 2.681 . S
O142 Sm121 2.386 . S
O142 C129 1.271 . S
O143 Sm120 2.464 . S
O143 C129 1.251 . S
O144 Sm120 2.396 . S
O144 C130 1.252 . S
O145 Sm121 2.408 . S
O145 C130 1.272 . S
O146 Sm121 2.543 1_556 S
O146 C131 1.261 . S
O147 Sm121 2.450 1_556 S
O147 C131 1.242 . S
O148 Sm120 2.386 . S
O148 Sm121 2.681 . S
O148 C138 1.271 . S
O149 Sm121 2.464 . S
O149 C138 1.251 . S
O150 Sm121 2.396 1_556 S
O150 C139 1.252 . S
O151 Sm120 2.408 . S
O151 C139 1.272 1_554 S
H152 C124 0.930 . S
H153 C125 0.929 . S
H154 C127 0.930 . S
H155 C128 0.929 . S
H156 C133 0.930 . S
H157 C134 0.929 . S
H158 C136 0.930 . S
H159 C137 0.929 . S
Sm160 C162 2.846 . S
Sm160 O180 2.543 . S
Sm160 O181 2.450 . S
Sm160 O182 2.681 . S
Sm160 O183 2.464 . S
Sm160 O184 2.396 . S
Sm160 O188 2.386 . S
Sm160 O191 2.408 . S
Sm161 C171 2.846 . S
Sm161 O182 2.386 . S
Sm161 O185 2.408 . S
Sm161 O186 2.543 . S
Sm161 O187 2.450 . S
Sm161 O188 2.681 . S
Sm161 O189 2.464 . S
Sm161 O190 2.396 . S
C162 Sm160 2.846 . S
C162 C163 1.506 . S
C162 O180 1.261 . S
C162 O181 1.242 . S
C163 C162 1.506 . S
C163 C164 1.358 . S
C163 C168 1.382 . S
C164 C163 1.358 . S
C164 C165 1.385 . S
C164 H192 0.930 . S
C165 C164 1.385 . S
C165 C166 1.395 . S
C165 H193 0.929 . S
C166 C165 1.395 . S
C166 C167 1.335 . S
C167 C166 1.335 . S
C167 C168 1.398 . S
C167 H194 0.930 . S
C168 C163 1.382 . S
C168 C167 1.398 . S
C168 H195 0.929 . S
C169 O182 1.271 . S
C169 O183 1.251 . S
C170 O184 1.252 . S
C170 O185 1.272 . S
C171 Sm161 2.846 . S
C171 C172 1.506 . S
C171 O186 1.261 . S
C171 O187 1.242 . S
C172 C171 1.506 . S
C172 C173 1.358 . S
C172 C177 1.382 . S
C173 C172 1.358 . S
C173 C174 1.385 1_455 S
C173 H196 0.930 . S
C174 C173 1.385 1_655 S
C174 C175 1.395 1_655 S
C174 H197 0.929 . S
C175 C174 1.395 1_455 S
C175 C176 1.335 . S
C176 C175 1.335 . S
C176 C177 1.398 . S
C176 H198 0.930 . S
C177 C172 1.382 . S
C177 C176 1.398 . S
C177 H199 0.929 . S
C178 O188 1.271 . S
C178 O189 1.251 . S
C179 O190 1.252 . S
C179 O191 1.272 . S
O180 Sm160 2.543 . S
O180 C162 1.261 . S
O181 Sm160 2.450 . S
O181 C162 1.242 . S
O182 Sm160 2.681 . S
O182 Sm161 2.386 . S
O182 C169 1.271 . S
O183 Sm160 2.464 . S
O183 C169 1.251 . S
O184 Sm160 2.396 . S
O184 C170 1.252 . S
O185 Sm161 2.408 . S
O185 C170 1.272 . S
O186 Sm161 2.543 . S
O186 C171 1.261 . S
O187 Sm161 2.450 . S
O187 C171 1.242 . S
O188 Sm160 2.386 . S
O188 Sm161 2.681 . S
O188 C178 1.271 . S
O189 Sm161 2.464 . S
O189 C178 1.251 . S
O190 Sm161 2.396 . S
O190 C179 1.252 . S
O191 Sm160 2.408 . S
O191 C179 1.272 . S
H192 C164 0.930 . S
H193 C165 0.929 . S
H194 C167 0.930 . S
H195 C168 0.929 . S
H196 C173 0.930 . S
H197 C174 0.929 . S
H198 C176 0.930 . S
H199 C177 0.929 . S
Sm200 C202 2.846 . S
Sm200 O220 2.543 . S
Sm200 O221 2.450 . S
Sm200 O222 2.681 . S
Sm200 O223 2.464 . S
Sm200 O224 2.396 . S
Sm200 O228 2.386 . S
Sm200 O231 2.408 . S
Sm201 C211 2.846 . S
Sm201 O222 2.386 . S
Sm201 O225 2.408 . S
Sm201 O226 2.543 . S
Sm201 O227 2.450 . S
Sm201 O228 2.681 . S
Sm201 O229 2.464 . S
Sm201 O230 2.396 . S
C202 Sm200 2.846 . S
C202 C203 1.506 . S
C202 O220 1.261 . S
C202 O221 1.242 . S
C203 C202 1.506 . S
C203 C204 1.358 . S
C203 C208 1.382 . S
C204 C203 1.358 . S
C204 C205 1.385 . S
C204 H232 0.930 . S
C205 C204 1.385 . S
C205 C206 1.395 . S
C205 H233 0.929 . S
C206 C205 1.395 . S
C206 C207 1.335 . S
C207 C206 1.335 . S
C207 C208 1.398 . S
C207 H234 0.930 . S
C208 C203 1.382 . S
C208 C207 1.398 . S
C208 H235 0.929 . S
C209 O222 1.271 . S
C209 O223 1.251 . S
C210 O224 1.252 . S
C210 O225 1.272 . S
C211 Sm201 2.846 . S
C211 C212 1.506 . S
C211 O226 1.261 . S
C211 O227 1.242 . S
C212 C211 1.506 . S
C212 C213 1.358 . S
C212 C217 1.382 . S
C213 C212 1.358 . S
C213 C214 1.385 1_545 S
C213 H236 0.930 . S
C214 C213 1.385 1_565 S
C214 C215 1.395 1_565 S
C214 H237 0.929 . S
C215 C214 1.395 1_545 S
C215 C216 1.335 . S
C216 C215 1.335 . S
C216 C217 1.398 . S
C216 H238 0.930 . S
C217 C212 1.382 . S
C217 C216 1.398 . S
C217 H239 0.929 . S
C218 O228 1.271 . S
C218 O229 1.251 . S
C219 O230 1.252 . S
C219 O231 1.272 . S
O220 Sm200 2.543 . S
O220 C202 1.261 . S
O221 Sm200 2.450 . S
O221 C202 1.242 . S
O222 Sm200 2.681 . S
O222 Sm201 2.386 . S
O222 C209 1.271 . S
O223 Sm200 2.464 . S
O223 C209 1.251 . S
O224 Sm200 2.396 . S
O224 C210 1.252 . S
O225 Sm201 2.408 . S
O225 C210 1.272 . S
O226 Sm201 2.543 . S
O226 C211 1.261 . S
O227 Sm201 2.450 . S
O227 C211 1.242 . S
O228 Sm200 2.386 . S
O228 Sm201 2.681 . S
O228 C218 1.271 . S
O229 Sm201 2.464 . S
O229 C218 1.251 . S
O230 Sm201 2.396 . S
O230 C219 1.252 . S
O231 Sm200 2.408 . S
O231 C219 1.272 . S
H232 C204 0.930 . S
H233 C205 0.929 . S
H234 C207 0.930 . S
H235 C208 0.929 . S
H236 C213 0.930 . S
H237 C214 0.929 . S
H238 C216 0.930 . S
H239 C217 0.929 . S
H240 C246 0.930 . S
H241 C249 0.930 . S
H242 C250 0.930 . S
H243 C251 0.930 . S
H244 C254 0.930 . S
H245 C255 0.930 . S
C246 H240 0.930 . S
C246 C247 1.355 . S
C246 C248 1.415 . S
C247 C246 1.355 . S
C247 C249 1.419 . S
C248 C246 1.415 . S
C248 C253 1.425 . S
C248 C255 1.409 . S
C249 H241 0.930 . S
C249 C247 1.419 . S
C249 C250 1.362 . S
C250 H242 0.930 . S
C250 C249 1.362 . S
C250 C253 1.409 . S
C251 H243 0.930 . S
C251 C252 1.355 . S
C251 C253 1.415 . S
C252 C251 1.355 . S
C252 C254 1.419 . S
C253 C248 1.425 . S
C253 C250 1.409 . S
C253 C251 1.415 . S
C254 H244 0.930 . S
C254 C252 1.419 . S
C254 C255 1.362 . S
C255 H245 0.930 . S
C255 C248 1.409 . S
C255 C254 1.362 . S
H256 C262 0.930 . S
H257 C265 0.930 . S
H258 C266 0.930 . S
H259 C267 0.930 . S
H260 C270 0.930 . S
H261 C271 0.930 . S
C262 H256 0.930 . S
C262 C263 1.355 . S
C262 C264 1.415 . S
C263 C262 1.355 . S
C263 C265 1.419 . S
C264 C262 1.415 . S
C264 C269 1.425 . S
C264 C271 1.409 . S
C265 H257 0.930 . S
C265 C263 1.419 . S
C265 C266 1.362 . S
C266 H258 0.930 . S
C266 C265 1.362 . S
C266 C269 1.409 . S
C267 H259 0.930 . S
C267 C268 1.355 . S
C267 C269 1.415 . S
C268 C267 1.355 . S
C268 C270 1.419 . S
C269 C264 1.425 . S
C269 C266 1.409 . S
C269 C267 1.415 . S
C270 H260 0.930 . S
C270 C268 1.419 . S
C270 C271 1.362 . S
C271 H261 0.930 . S
C271 C264 1.409 . S
C271 C270 1.362 . S
H272 C278 0.930 . S
H273 C281 0.930 . S
H274 C282 0.930 . S
H275 C283 0.930 . S
H276 C286 0.930 . S
H277 C287 0.930 . S
C278 H272 0.930 . S
C278 C279 1.355 . S
C278 C280 1.415 . S
C279 C278 1.355 . S
C279 C281 1.419 . S
C280 C278 1.415 . S
C280 C285 1.425 . S
C280 C287 1.409 . S
C281 H273 0.930 . S
C281 C279 1.419 . S
C281 C282 1.362 . S
C282 H274 0.930 . S
C282 C281 1.362 . S
C282 C285 1.409 . S
C283 H275 0.930 . S
C283 C284 1.355 . S
C283 C285 1.415 . S
C284 C283 1.355 . S
C284 C286 1.419 . S
C285 C280 1.425 . S
C285 C282 1.409 . S
C285 C283 1.415 . S
C286 H276 0.930 . S
C286 C284 1.419 . S
C286 C287 1.362 . S
C287 H277 0.930 . S
C287 C280 1.409 . S
C287 C286 1.362 . S
H288 C294 0.930 . S
H289 C297 0.930 . S
H290 C298 0.930 . S
H291 C299 0.930 . S
H292 C302 0.930 . S
H293 C303 0.930 . S
C294 H288 0.930 . S
C294 C295 1.355 . S
C294 C296 1.415 . S
C295 C294 1.355 . S
C295 C297 1.419 . S
C296 C294 1.415 . S
C296 C301 1.425 . S
C296 C303 1.409 . S
C297 H289 0.930 . S
C297 C295 1.419 . S
C297 C298 1.362 . S
C298 H290 0.930 . S
C298 C297 1.362 . S
C298 C301 1.409 . S
C299 H291 0.930 . S
C299 C300 1.355 . S
C299 C301 1.415 . S
C300 C299 1.355 . S
C300 C302 1.419 . S
C301 C296 1.425 . S
C301 C298 1.409 . S
C301 C299 1.415 . S
C302 H292 0.930 . S
C302 C300 1.419 . S
C302 C303 1.362 . S
C303 H293 0.930 . S
C303 C296 1.409 . S
C303 C302 1.362 . S
H304 C310 0.930 . S
H305 C313 0.930 . S
H306 C314 0.930 . S
H307 C315 0.930 . S
H308 C318 0.930 . S
H309 C319 0.930 . S
C310 H304 0.930 . S
C310 C311 1.355 . S
C310 C312 1.415 . S
C311 C310 1.355 . S
C311 C313 1.419 . S
C312 C310 1.415 . S
C312 C317 1.425 . S
C312 C319 1.409 . S
C313 H305 0.930 . S
C313 C311 1.419 . S
C313 C314 1.362 . S
C314 H306 0.930 . S
C314 C313 1.362 . S
C314 C317 1.409 . S
C315 H307 0.930 . S
C315 C316 1.355 . S
C315 C317 1.415 . S
C316 C315 1.355 . S
C316 C318 1.419 . S
C317 C312 1.425 . S
C317 C314 1.409 . S
C317 C315 1.415 . S
C318 H308 0.930 . S
C318 C316 1.419 . S
C318 C319 1.362 . S
C319 H309 0.930 . S
C319 C312 1.409 . S
C319 C318 1.362 . S
H320 C326 0.930 . S
H321 C329 0.930 . S
H322 C330 0.930 . S
H323 C331 0.930 . S
H324 C334 0.930 . S
H325 C335 0.930 . S
C326 H320 0.930 . S
C326 C327 1.355 . S
C326 C328 1.415 . S
C327 C326 1.355 . S
C327 C329 1.419 . S
C328 C326 1.415 . S
C328 C333 1.425 . S
C328 C335 1.409 . S
C329 H321 0.930 . S
C329 C327 1.419 . S
C329 C330 1.362 . S
C330 H322 0.930 . S
C330 C329 1.362 . S
C330 C333 1.409 . S
C331 H323 0.930 . S
C331 C332 1.355 . S
C331 C333 1.415 . S
C332 C331 1.355 . S
C332 C334 1.419 . S
C333 C328 1.425 . S
C333 C330 1.409 . S
C333 C331 1.415 . S
C334 H324 0.930 . S
C334 C332 1.419 . S
C334 C335 1.362 . S
C335 H325 0.930 . S
C335 C328 1.409 . S
C335 C334 1.362 . S
H336 C342 0.930 . S
H337 C345 0.930 . S
H338 C346 0.930 . S
H339 C347 0.930 . S
H340 C350 0.930 . S
H341 C351 0.930 . S
C342 H336 0.930 . S
C342 C343 1.355 . S
C342 C344 1.415 . S
C343 C342 1.355 . S
C343 C345 1.419 . S
C344 C342 1.415 . S
C344 C349 1.425 . S
C344 C351 1.409 . S
C345 H337 0.930 . S
C345 C343 1.419 . S
C345 C346 1.362 . S
C346 H338 0.930 . S
C346 C345 1.362 . S
C346 C349 1.409 . S
C347 H339 0.930 . S
C347 C348 1.355 . S
C347 C349 1.415 . S
C348 C347 1.355 . S
C348 C350 1.419 . S
C349 C344 1.425 . S
C349 C346 1.409 . S
C349 C347 1.415 . S
C350 H340 0.930 . S
C350 C348 1.419 . S
C350 C351 1.362 . S
C351 H341 0.930 . S
C351 C344 1.409 . S
C351 C350 1.362 . S
H352 C358 0.930 . S
H353 C361 0.930 . S
H354 C362 0.930 . S
H355 C363 0.930 . S
H356 C366 0.930 . S
H357 C367 0.930 . S
C358 H352 0.930 . S
C358 C359 1.355 1_655 S
C358 C360 1.415 . S
C359 C358 1.355 1_455 S
C359 C361 1.419 . S
C360 C358 1.415 . S
C360 C365 1.425 1_655 S
C360 C367 1.409 . S
C361 H353 0.930 . S
C361 C359 1.419 . S
C361 C362 1.362 . S
C362 H354 0.930 . S
C362 C361 1.362 . S
C362 C365 1.409 . S
C363 H355 0.930 . S
C363 C364 1.355 1_455 S
C363 C365 1.415 . S
C364 C363 1.355 1_655 S
C364 C366 1.419 . S
C365 C360 1.425 1_455 S
C365 C362 1.409 . S
C365 C363 1.415 . S
C366 H356 0.930 . S
C366 C364 1.419 . S
C366 C367 1.362 . S
C367 H357 0.930 . S
C367 C360 1.409 . S
C367 C366 1.362 . S
H368 C374 0.930 . S
H369 C377 0.930 . S
H370 C378 0.930 . S
H371 C379 0.930 . S
H372 C382 0.930 . S
H373 C383 0.930 . S
C374 H368 0.930 . S
C374 C375 1.355 . S
C374 C376 1.415 . S
C375 C374 1.355 . S
C375 C377 1.419 1_545 S
C376 C374 1.415 . S
C376 C381 1.425 1_545 S
C376 C383 1.409 . S
C377 H369 0.930 . S
C377 C375 1.419 1_565 S
C377 C378 1.362 . S
C378 H370 0.930 . S
C378 C377 1.362 . S
C378 C381 1.409 . S
C379 H371 0.930 . S
C379 C380 1.355 . S
C379 C381 1.415 . S
C380 C379 1.355 . S
C380 C382 1.419 1_565 S
C381 C376 1.425 1_565 S
C381 C378 1.409 . S
C381 C379 1.415 . S
C382 H372 0.930 . S
C382 C380 1.419 1_545 S
C382 C383 1.362 . S
C383 H373 0.930 . S
C383 C376 1.409 . S
C383 C382 1.362 . S
H384 C390 0.930 . S
H385 C393 0.930 . S
H386 C394 0.930 . S
H387 C395 0.930 . S
H388 C398 0.930 . S
H389 C399 0.930 . S
C390 H384 0.930 . S
C390 C391 1.355 . S
C390 C392 1.415 . S
C391 C390 1.355 . S
C391 C393 1.419 . S
C392 C390 1.415 . S
C392 C397 1.425 . S
C392 C399 1.409 . S
C393 H385 0.930 . S
C393 C391 1.419 . S
C393 C394 1.362 . S
C394 H386 0.930 . S
C394 C393 1.362 . S
C394 C397 1.409 . S
C395 H387 0.930 . S
C395 C396 1.355 . S
C395 C397 1.415 . S
C396 C395 1.355 . S
C396 C398 1.419 . S
C397 C392 1.425 . S
C397 C394 1.409 . S
C397 C395 1.415 . S
C398 H388 0.930 . S
C398 C396 1.419 . S
C398 C399 1.362 . S
C399 H389 0.930 . S
C399 C392 1.409 . S
C399 C398 1.362 . S
H400 C406 0.930 . S
H401 C409 0.930 . S
H402 C410 0.930 . S
H403 C411 0.930 . S
H404 C414 0.930 . S
H405 C415 0.930 . S
C406 H400 0.930 . S
C406 C407 1.355 1_655 S
C406 C408 1.415 . S
C407 C406 1.355 1_455 S
C407 C409 1.419 . S
C408 C406 1.415 . S
C408 C413 1.425 1_655 S
C408 C415 1.409 . S
C409 H401 0.930 . S
C409 C407 1.419 . S
C409 C410 1.362 . S
C410 H402 0.930 . S
C410 C409 1.362 . S
C410 C413 1.409 . S
C411 H403 0.930 . S
C411 C412 1.355 1_455 S
C411 C413 1.415 . S
C412 C411 1.355 1_655 S
C412 C414 1.419 . S
C413 C408 1.425 1_455 S
C413 C410 1.409 . S
C413 C411 1.415 . S
C414 H404 0.930 . S
C414 C412 1.419 . S
C414 C415 1.362 . S
C415 H405 0.930 . S
C415 C408 1.409 . S
C415 C414 1.362 . S
H416 C422 0.930 . S
H417 C425 0.930 . S
H418 C426 0.930 . S
H419 C427 0.930 . S
H420 C430 0.930 . S
H421 C431 0.930 . S
C422 H416 0.930 . S
C422 C423 1.355 . S
C422 C424 1.415 1_565 S
C423 C422 1.355 . S
C423 C425 1.419 . S
C424 C422 1.415 1_545 S
C424 C429 1.425 1_545 S
C424 C431 1.409 . S
C425 H417 0.930 . S
C425 C423 1.419 . S
C425 C426 1.362 . S
C426 H418 0.930 . S
C426 C425 1.362 . S
C426 C429 1.409 . S
C427 H419 0.930 . S
C427 C428 1.355 . S
C427 C429 1.415 1_545 S
C428 C427 1.355 . S
C428 C430 1.419 . S
C429 C424 1.425 1_565 S
C429 C426 1.409 . S
C429 C427 1.415 1_565 S
C430 H420 0.930 . S
C430 C428 1.419 . S
C430 C431 1.362 . S
C431 H421 0.930 . S
C431 C424 1.409 . S
C431 C430 1.362 . S
H432 C438 0.930 . S
H433 C441 0.930 . S
H434 C442 0.930 . S
H435 C443 0.930 . S
H436 C446 0.930 . S
H437 C447 0.930 . S
C438 H432 0.930 . S
C438 C439 1.355 . S
C438 C440 1.415 . S
C439 C438 1.355 . S
C439 C441 1.419 . S
C440 C438 1.415 . S
C440 C445 1.425 . S
C440 C447 1.409 . S
C441 H433 0.930 . S
C441 C439 1.419 . S
C441 C442 1.362 . S
C442 H434 0.930 . S
C442 C441 1.362 . S
C442 C445 1.409 . S
C443 H435 0.930 . S
C443 C444 1.355 . S
C443 C445 1.415 . S
C444 C443 1.355 . S
C444 C446 1.419 . S
C445 C440 1.425 . S
C445 C442 1.409 . S
C445 C443 1.415 . S
C446 H436 0.930 . S
C446 C444 1.419 . S
C446 C447 1.362 . S
C447 H437 0.930 . S
C447 C440 1.409 . S
C447 C446 1.362 . S
H448 C454 0.930 . S
H449 C457 0.930 . S
H450 C458 0.930 . S
H451 C459 0.930 . S
H452 C462 0.930 . S
H453 C463 0.930 . S
C454 H448 0.930 . S
C454 C455 1.355 . S
C454 C456 1.415 . S
C455 C454 1.355 . S
C455 C457 1.419 . S
C456 C454 1.415 . S
C456 C461 1.425 . S
C456 C463 1.409 . S
C457 H449 0.930 . S
C457 C455 1.419 . S
C457 C458 1.362 . S
C458 H450 0.930 . S
C458 C457 1.362 . S
C458 C461 1.409 . S
C459 H451 0.930 . S
C459 C460 1.355 . S
C459 C461 1.415 . S
C460 C459 1.355 . S
C460 C462 1.419 . S
C461 C456 1.425 . S
C461 C458 1.409 . S
C461 C459 1.415 . S
C462 H452 0.930 . S
C462 C460 1.419 . S
C462 C463 1.362 . S
C463 H453 0.930 . S
C463 C456 1.409 . S
C463 C462 1.362 . S
H464 C470 0.930 . S
H465 C473 0.930 . S
H466 C474 0.930 . S
H467 C475 0.930 . S
H468 C478 0.930 . S
H469 C479 0.930 1_565 S
C470 H464 0.930 . S
C470 C471 1.355 1_565 S
C470 C472 1.415 1_565 S
C471 C470 1.355 1_545 S
C471 C473 1.419 . S
C472 C470 1.415 1_545 S
C472 C477 1.425 . S
C472 C479 1.409 . S
C473 H465 0.930 . S
C473 C471 1.419 . S
C473 C474 1.362 . S
C474 H466 0.930 . S
C474 C473 1.362 . S
C474 C477 1.409 . S
C475 H467 0.930 . S
C475 C476 1.355 . S
C475 C477 1.415 . S
C476 C475 1.355 . S
C476 C478 1.419 . S
C477 C472 1.425 . S
C477 C474 1.409 . S
C477 C475 1.415 . S
C478 H468 0.930 . S
C478 C476 1.419 . S
C478 C479 1.362 . S
C479 H469 0.930 1_545 S
C479 C472 1.409 . S
C479 C478 1.362 . S
H480 C486 0.930 . S
H481 C489 0.930 . S
H482 C490 0.930 . S
H483 C491 0.930 . S
H484 C494 0.930 . S
H485 C495 0.930 . S
C486 H480 0.930 . S
C486 C487 1.355 . S
C486 C488 1.415 . S
C487 C486 1.355 . S
C487 C489 1.419 . S
C488 C486 1.415 . S
C488 C493 1.425 . S
C488 C495 1.409 . S
C489 H481 0.930 . S
C489 C487 1.419 . S
C489 C490 1.362 . S
C490 H482 0.930 . S
C490 C489 1.362 . S
C490 C493 1.409 . S
C491 H483 0.930 . S
C491 C492 1.355 . S
C491 C493 1.415 . S
C492 C491 1.355 . S
C492 C494 1.419 . S
C493 C488 1.425 . S
C493 C490 1.409 . S
C493 C491 1.415 . S
C494 H484 0.930 . S
C494 C492 1.419 . S
C494 C495 1.362 . S
C495 H485 0.930 . S
C495 C488 1.409 . S
C495 C494 1.362 . S
H496 C502 0.930 . S
H497 C505 0.930 . S
H498 C506 0.930 . S
H499 C507 0.930 . S
H500 C510 0.930 . S
H501 C511 0.930 . S
C502 H496 0.930 . S
C502 C503 1.355 . S
C502 C504 1.415 . S
C503 C502 1.355 . S
C503 C505 1.419 1_655 S
C504 C502 1.415 . S
C504 C509 1.425 . S
C504 C511 1.409 . S
C505 H497 0.930 . S
C505 C503 1.419 1_455 S
C505 C506 1.362 1_455 S
C506 H498 0.930 . S
C506 C505 1.362 1_655 S
C506 C509 1.409 . S
C507 H499 0.930 . S
C507 C508 1.355 . S
C507 C509 1.415 . S
C508 C507 1.355 . S
C508 C510 1.419 . S
C509 C504 1.425 . S
C509 C506 1.409 . S
C509 C507 1.415 . S
C510 H500 0.930 . S
C510 C508 1.419 . S
C510 C511 1.362 . S
C511 H501 0.930 . S
C511 C504 1.409 . S
C511 C510 1.362 . S
H512 C518 0.930 . S
H513 C521 0.930 . S
H514 C522 0.930 . S
H515 C523 0.930 . S
H516 C526 0.930 . S
H517 C527 0.930 . S
C518 H512 0.930 . S
C518 C519 1.355 . S
C518 C520 1.415 . S
C519 C518 1.355 . S
C519 C521 1.419 . S
C520 C518 1.415 . S
C520 C525 1.425 . S
C520 C527 1.409 . S
C521 H513 0.930 . S
C521 C519 1.419 . S
C521 C522 1.362 . S
C522 H514 0.930 . S
C522 C521 1.362 . S
C522 C525 1.409 . S
C523 H515 0.930 . S
C523 C524 1.355 . S
C523 C525 1.415 . S
C524 C523 1.355 . S
C524 C526 1.419 . S
C525 C520 1.425 . S
C525 C522 1.409 . S
C525 C523 1.415 . S
C526 H516 0.930 . S
C526 C524 1.419 . S
C526 C527 1.362 . S
C527 H517 0.930 . S
C527 C520 1.409 . S
C527 C526 1.362 . S
C247 C179 1.170 . S
C252 C6 1.194 . S
C263 C219 1.203 . S
C268 C46 1.207 . S
C279 C19 1.170 . S
C284 C86 1.195 . S
C295 C59 1.180 . S
C300 C126 1.202 . S
C311 C99 1.212 . S
C316 C166 1.205 . S
C327 C139 1.172 . S
C332 C206 1.192 . S
C343 C9 1.126 . S
C348 C129 1.115 . S
C359 C169 0.965 . S
C364 C49 0.972 . S
C375 C209 1.135 . S
C380 C89 1.135 . S
C391 C98 1.237 . S
C396 C218 1.224 . S
C407 C18 1.204 . S
C412 C138 1.215 . S
C423 C178 1.217 . S
C428 C58 1.205 . S
C439 C210 1.351 . S
C444 C15 1.346 . S
C455 C55 1.288 1_455 S
C460 C10 1.343 . S
C471 C95 1.337 1_545 S
C476 C50 1.359 . S
C487 C90 1.349 . S
C492 C135 1.343 . S
C503 C175 1.336 1_655 S
C508 C130 1.344 . S
C519 C215 1.346 1_565 S
C524 C170 1.352 . S
