# Generated by pormake.
# Topology rkf, (6)-cn, num edge types: 1
# Building blocks:
#     Node 0, Type 0, BuildingBlock: CUWYAW_clean_sbu_0, # of connection points: 6
#     Node 1, Type 0, BuildingBlock: CUWYAW_clean_sbu_0, # of connection points: 6
#     Node 2, Type 0, BuildingBlock: CUWYAW_clean_sbu_0, # of connection points: 6
#     Node 3, Type 0, BuildingBlock: CUWYAW_clean_sbu_0, # of connection points: 6
#     Node 4, Type 0, BuildingBlock: CUWYAW_clean_sbu_0, # of connection points: 6
#     Node 5, Type 0, BuildingBlock: CUWYAW_clean_sbu_0, # of connection points: 6
#     Edge 6, Type (0, 0), BuildingBlock: KIFKEQ_clean_linker_1, # of connection points: 2
#     Edge 7, Type (0, 0), BuildingBlock: KIFKEQ_clean_linker_1, # of connection points: 2
#     Edge 8, Type (0, 0), BuildingBlock: KIFKEQ_clean_linker_1, # of connection points: 2
#     Edge 9, Type (0, 0), BuildingBlock: KIFKEQ_clean_linker_1, # of connection points: 2
#     Edge 10, Type (0, 0), BuildingBlock: KIFKEQ_clean_linker_1, # of connection points: 2
#     Edge 11, Type (0, 0), BuildingBlock: KIFKEQ_clean_linker_1, # of connection points: 2
#     Edge 12, Type (0, 0), BuildingBlock: KIFKEQ_clean_linker_1, # of connection points: 2
#     Edge 13, Type (0, 0), BuildingBlock: KIFKEQ_clean_linker_1, # of connection points: 2
#     Edge 14, Type (0, 0), BuildingBlock: KIFKEQ_clean_linker_1, # of connection points: 2
#     Edge 15, Type (0, 0), BuildingBlock: KIFKEQ_clean_linker_1, # of connection points: 2
#     Edge 16, Type (0, 0), BuildingBlock: KIFKEQ_clean_linker_1, # of connection points: 2
#     Edge 17, Type (0, 0), BuildingBlock: KIFKEQ_clean_linker_1, # of connection points: 2
#     Edge 18, Type (0, 0), BuildingBlock: KIFKEQ_clean_linker_1, # of connection points: 2
#     Edge 19, Type (0, 0), BuildingBlock: KIFKEQ_clean_linker_1, # of connection points: 2
#     Edge 20, Type (0, 0), BuildingBlock: KIFKEQ_clean_linker_1, # of connection points: 2
#     Edge 21, Type (0, 0), BuildingBlock: KIFKEQ_clean_linker_1, # of connection points: 2
#     Edge 22, Type (0, 0), BuildingBlock: KIFKEQ_clean_linker_1, # of connection points: 2
#     Edge 23, Type (0, 0), BuildingBlock: KIFKEQ_clean_linker_1, # of connection points: 2
# Relax obj value: 0.732
# Max RMSD: 0.261
# Mean RMSD: 0.261
data_MOF--net-rkf--node1-CUWYAW_clean_sbu_0--edge1-KIFKEQ_clean_linker_1
_symmetry_space_group_name_H-M    P1
_symmetry_Int_Tables_number       1
_symmetry_cell_setting            triclinic
loop_
_symmetry_equiv_pos_as_xyz
'x, y, z'
_cell_length_a     25.473558
_cell_length_b     25.690442
_cell_length_c     44.424458
_cell_angle_alpha  89.580374
_cell_angle_beta   90.456862
_cell_angle_gamma 119.70515
loop_
_atom_site_label
_atom_site_type_symbol
_atom_site_fract_x
_atom_site_fract_y
_atom_site_fract_z
_atom_type_partial_charge
C0 C 0.44472 0.37593 1.13626 0.0
Eu1 Eu 0.40684 0.27199 0.16209 0.0
C2 C 0.48128 0.40999 1.11023 0.0
C3 C 0.52165 0.47165 1.11302 0.0
C4 C 0.55193 0.50604 1.08776 0.0
C5 C 0.54188 0.47932 1.05919 0.0
C6 C 0.50415 0.41666 1.05704 0.0
C7 C 0.47444 0.38238 1.08229 0.0
C8 C 0.48497 0.23362 0.17903 0.0
C9 C 0.35911 0.1599 1.11288 0.0
C10 C 0.33445 0.0444 0.20814 0.0
Eu11 Eu 0.35135 0.14519 0.18574 0.0
C12 C 0.33782 0.00921 0.23342 0.0
C13 C 0.31494 0.00995 0.26188 0.0
C14 C 0.31111 0.96927 0.28398 0.0
C15 C 0.32988 0.92724 0.27785 0.0
C16 C 0.35567 0.92893 0.24983 0.0
C17 C 0.35969 0.96972 0.22782 0.0
C18 C 0.27241 0.1717 0.1609 0.0
C19 C 0.36933 0.25221 0.23253 0.0
O20 O 0.39203 0.32886 1.13065 0.0
O21 O 0.47363 0.36697 0.15826 0.0
O22 O 0.49386 0.28633 0.18555 0.0
O23 O 0.43717 0.20563 0.16434 0.0
O24 O 0.37866 0.21808 1.11732 0.0
O25 O 0.35131 0.12389 1.13602 0.0
O26 O 0.38545 0.0846 0.19625 0.0
O27 O 0.29279 0.06026 0.20822 0.0
O28 O 0.26637 0.11852 0.16068 0.0
O29 O 0.31526 0.20746 0.17771 0.0
O30 O 0.3672 0.19948 0.22981 0.0
O31 O 0.37602 0.28514 0.20819 0.0
H32 H 0.52816 0.49361 1.13456 0.0
H33 H 0.5812 0.55382 1.09044 0.0
H34 H 0.49414 0.39416 1.03551 0.0
H35 H 0.44411 0.33469 1.07964 0.0
H36 H 0.29789 0.04016 0.26663 0.0
H37 H 0.29028 0.96851 0.30526 0.0
H38 H 0.37082 0.8974 0.24459 0.0
H39 H 0.37765 0.96873 0.20593 0.0
C40 C 0.17208 0.47605 0.48252 0.0
Eu41 Eu 0.24738 0.43659 0.49238 0.0
C42 C 0.1424 0.49124 0.45855 0.0
C43 C 0.10581 0.51565 0.4661 0.0
C44 C 0.07547 0.52883 0.44366 0.0
C45 C 0.08161 0.51807 0.41327 0.0
C46 C 0.12006 0.49519 0.40588 0.0
C47 C 0.15027 0.48197 0.42835 0.0
C48 C 0.36172 0.51159 0.51025 0.0
C49 C 0.31297 0.40116 0.44016 0.0
C50 C 0.39982 0.35107 0.52415 0.0
Eu51 Eu 0.31411 0.37644 0.51404 0.0
C52 C 0.44238 0.35203 0.54683 0.0
C53 C 0.42998 0.34947 0.57761 0.0
C54 C 0.46747 0.34287 0.59855 0.0
C55 C 0.51815 0.33901 0.58906 0.0
C56 C 0.53193 0.34472 0.55823 0.0
C57 C 0.49426 0.35115 0.5373 0.0
C58 C 0.20093 0.29857 0.49364 0.0
C59 C 0.23417 0.39186 0.56407 0.0
O60 O 0.15501 0.41926 0.48629 0.0
O61 O 0.2305 0.51065 0.48473 0.0
O62 O 0.33804 0.52023 0.48614 0.0
O63 O 0.32464 0.46449 0.52363 0.0
O64 O 0.26989 0.41522 0.44517 0.0
O65 O 0.34011 0.39175 0.46359 0.0
O66 O 0.40978 0.40278 0.5135 0.0
O67 O 0.34239 0.31309 0.52848 0.0
O68 O 0.22524 0.29061 0.51778 0.0
O69 O 0.23734 0.3485 0.48254 0.0
O70 O 0.2827 0.38629 0.56032 0.0
O71 O 0.20962 0.4043 0.54049 0.0
H72 H 0.09986 0.52353 0.48944 0.0
H73 H 0.04616 0.54607 0.45017 0.0
H74 H 0.12481 0.48478 0.38284 0.0
H75 H 0.17867 0.46334 0.42223 0.0
H76 H 0.39013 0.35021 0.58534 0.0
H77 H 0.45481 0.33766 0.62205 0.0
H78 H 0.57085 0.34258 0.5502 0.0
H79 H 0.50455 0.3534 0.51354 0.0
C80 C 0.85799 0.2989 0.8123 0.0
Eu81 Eu 0.95853 0.30682 0.83236 0.0
C82 C 0.82022 0.27991 0.78508 0.0
C83 C 0.75748 0.25539 0.78762 0.0
C84 C 0.71995 0.23035 0.76251 0.0
C85 C 0.7448 0.22971 0.73448 0.0
C86 C 0.80811 0.25712 0.73184 0.0
C87 C 0.84544 0.28179 0.75693 0.0
C88 C 0.04605 0.40996 0.85878 0.0
C89 C 0.05884 0.343 0.77853 0.0
C90 C 0.17478 0.32897 0.86799 0.0
Eu91 Eu 0.07157 0.30756 0.84473 0.0
C92 C 0.23361 0.38039 0.87708 0.0
C93 C 0.24284 0.39774 0.9074 0.0
C94 C 0.29874 0.44299 0.91736 0.0
C95 C 0.34746 0.4722 0.89736 0.0
C96 C 0.33831 0.45555 0.86684 0.0
C97 C 0.28175 0.41003 0.85675 0.0
C98 C -0.00979 0.20873 0.81476 0.0
C99 C 0.96631 0.25549 0.89773 0.0
O100 O 0.86053 0.2563 0.82727 0.0
O101 O 0.91072 0.34739 0.81025 0.0
O102 O -0.01023 0.38225 0.86663 0.0
O103 O 0.0529 0.38126 0.83801 0.0
O104 O -5e-05 0.31351 0.78483 0.0
O105 O 0.09807 0.35945 0.80099 0.0
O106 O 0.1621 0.31856 0.83934 0.0
O107 O 0.12819 0.32074 0.88371 0.0
O108 O 0.04819 0.23351 0.81181 0.0
O109 O -0.02203 0.23242 0.83624 0.0
O110 O 0.0241 0.27755 0.89084 0.0
O111 O 0.92891 0.25749 0.87752 0.0
H112 H 0.73734 0.25361 0.80927 0.0
H113 H 0.67148 0.20957 0.76527 0.0
H114 H 0.8288 0.25627 0.71078 0.0
H115 H 0.89374 0.30014 0.75456 0.0
H116 H 0.20716 0.37517 0.92379 0.0
H117 H 0.30435 0.45305 0.94119 0.0
H118 H 0.37504 0.47695 0.85092 0.0
H119 H 0.27616 0.39727 0.83326 0.0
C120 C 0.6915 0.85505 1.14184 0.0
Eu121 Eu 0.76379 0.96231 0.16264 0.0
C122 C 0.68879 0.81326 1.1188 0.0
C123 C 0.65358 0.75147 1.1241 0.0
C124 C 0.65403 0.71053 1.10374 0.0
C125 C 0.68953 0.73094 1.07768 0.0
C126 C 0.72362 0.79302 1.0721 0.0
C127 C 0.72346 0.83391 1.09258 0.0
C128 C 0.72034 0.02606 0.19211 0.0
C129 C 0.8224 0.0666 1.10945 0.0
C130 C 0.91029 0.19515 0.2011 0.0
Eu131 Eu 0.856 0.08659 0.17981 0.0
C132 C 0.8953 0.23231 0.22051 0.0
C133 C 0.89831 0.22951 0.25196 0.0
C134 C 0.88868 0.26841 0.26982 0.0
C135 C 0.87588 0.31097 0.25662 0.0
C136 C 0.87034 0.31195 0.22521 0.0
C137 C 0.88019 0.27319 0.20734 0.0
C138 C 0.90206 0.03021 1.14824 0.0
C139 C 0.81945 -0.02048 0.23009 0.0
O140 O 0.7306 0.8663 0.16348 0.0
O141 O 0.69029 0.90296 1.13268 0.0
O142 O 0.69916 0.96924 0.19573 0.0
O143 O 0.75923 0.04476 0.17187 0.0
O144 O 0.7967 0.00809 1.11558 0.0
O145 O 0.83938 0.10538 1.13179 0.0
O146 O 0.88216 0.18024 0.17529 0.0
O147 O 0.9155 0.15141 0.21341 0.0
O148 O 0.92569 0.08783 1.14931 0.0
O149 O 0.86258 0.00526 0.16823 0.0
O150 O 0.83761 0.03725 0.22562 0.0
O151 O 0.79543 0.94145 0.20738 0.0
H152 H 0.62676 0.73492 1.14437 0.0
H153 H 0.6273 0.66304 1.10854 0.0
H154 H 0.75229 0.81009 1.05247 0.0
H155 H 0.75146 0.88151 1.08831 0.0
H156 H 0.90998 0.19866 0.26278 0.0
H157 H 0.8946 0.26723 0.29393 0.0
H158 H 0.8603 0.34397 0.2144 0.0
H159 H 0.87749 0.27635 0.1831 0.0
C160 C -0.03015 0.71814 0.48898 0.0
Eu161 Eu 0.91743 0.78221 0.49688 0.0
C162 C 0.00187 0.70383 0.46628 0.0
C163 C 0.03781 0.67932 0.47541 0.0
C164 C 0.07347 0.6708 0.45452 0.0
C165 C 0.07338 0.68643 0.42414 0.0
C166 C 0.03479 0.70837 0.41497 0.0
C167 C -0.00054 0.71715 0.4359 0.0
C168 C 0.80103 0.73204 0.51341 0.0
C169 C 0.87226 0.83741 0.44274 0.0
C170 C 0.82335 0.92713 0.52357 0.0
Eu171 Eu 0.88286 0.87015 0.51555 0.0
C172 C 0.78566 0.93766 0.54478 0.0
C173 C 0.80071 0.94849 0.57539 0.0
C174 C 0.76765 0.96482 0.59423 0.0
C175 C 0.71884 0.97038 0.58281 0.0
C176 C 0.70236 0.95675 0.55242 0.0
C177 C 0.73556 0.94061 0.53359 0.0
C178 C -0.00064 0.91885 0.49629 0.0
C179 C 0.94123 0.83118 0.5681 0.0
O180 O -0.00208 0.77303 0.49918 0.0
O181 O 0.91239 0.69823 0.48411 0.0
O182 O 0.8197 0.71366 0.49109 0.0
O183 O 0.84436 0.77468 0.52702 0.0
O184 O 0.90501 0.81094 0.44869 0.0
O185 O 0.85362 0.85704 0.46558 0.0
O186 O 0.79941 0.8738 0.5116 0.0
O187 O 0.88088 0.94993 0.52997 0.0
O188 O -0.01745 0.93819 0.51913 0.0
O189 O 0.95364 0.87603 0.48472 0.0
O190 O 0.90291 0.85099 0.56301 0.0
O191 O 0.95742 0.80865 0.54538 0.0
H192 H 0.03986 0.66868 0.49889 0.0
H193 H 0.10271 0.65406 0.46237 0.0
H194 H 0.03453 0.72236 0.39195 0.0
H195 H -0.02799 0.73637 0.42857 0.0
H196 H 0.8391 0.94624 0.58452 0.0
H197 H 0.78219 -0.0242 0.61741 0.0
H198 H 0.66466 0.95989 0.54302 0.0
H199 H 0.72314 0.93208 0.51002 0.0
C200 C 0.32985 0.05259 0.8196 0.0
Eu201 Eu 0.22643 0.95845 0.83231 0.0
C202 C 0.37751 0.0714 0.79679 0.0
C203 C 0.43833 0.10093 0.80589 0.0
C204 C 0.48449 0.12226 0.78452 0.0
C205 C 0.47054 0.11477 0.7536 0.0
C206 C 0.40927 0.08261 0.74475 0.0
C207 C 0.36329 0.0609 0.76611 0.0
C208 C 0.22357 0.85276 0.84238 0.0
C209 C 0.12871 0.88249 0.7815 0.0
C210 C 0.02037 0.75682 0.86868 0.0
Eu211 Eu 0.11255 0.86207 0.8569 0.0
C212 C -0.01057 0.71518 0.89351 0.0
C213 C -0.00026 0.7353 0.92331 0.0
C214 C 0.95949 0.70039 0.94582 0.0
C215 C 0.90831 0.64486 0.93881 0.0
C216 C 0.90196 0.62241 0.90943 0.0
C217 C 0.94219 0.65752 0.88691 0.0
C218 C 0.10614 0.96173 0.84837 0.0
C219 C 0.20172 0.95853 0.90485 0.0
O220 O 0.27767 0.04614 0.81096 0.0
O221 O 0.32421 0.01021 0.83789 0.0
O222 O 0.24453 0.88361 0.81782 0.0
O223 O 0.20471 0.87829 0.85949 0.0
O224 O 0.18208 0.93056 0.78618 0.0
O225 O 0.09699 0.84878 0.80485 0.0
O226 O 0.07296 0.7647 0.86047 0.0
O227 O 0.01847 0.80671 0.86912 0.0
O228 O 0.08717 0.92857 0.87243 0.0
O229 O 0.13199 0.943 0.83074 0.0
O230 O 0.15932 0.90129 0.90215 0.0
O231 O 0.22564 -0.00875 0.88025 0.0
H232 H 0.45014 0.10866 0.82956 0.0
H233 H 0.53101 0.14609 0.79218 0.0
H234 H 0.39639 0.07679 0.7212 0.0
H235 H 0.31667 0.0375 0.75854 0.0
H236 H 0.03613 0.77981 0.92874 0.0
H237 H 0.96567 0.71952 0.96809 0.0
H238 H 0.86362 0.57952 0.90341 0.0
H239 H 0.9339 0.64131 0.86394 0.0
H240 H 0.9245 0.04045 1.08859 0.0
H241 H 0.9491 0.96248 0.16973 0.0
H242 H 0.03272 0.09176 1.07951 0.0
H243 H 0.05691 0.01061 0.15993 0.0
H244 H 0.18918 0.19329 0.1859 0.0
H245 H 0.0857 0.1312 0.16815 0.0
H246 H 0.15125 0.10502 1.08352 0.0
H247 H 0.25475 0.16974 1.1009 0.0
C248 C 0.95243 0.02986 1.10304 0.0
C249 C 0.93096 0.00316 1.13134 0.0
C250 C 0.01451 0.05998 1.09796 0.0
C251 C 0.05245 0.05791 1.12024 0.0
C252 C 0.02779 0.01448 1.14321 0.0
C253 C 0.96589 -0.01415 1.14852 0.0
C254 C 0.18153 0.17821 0.16273 0.0
C255 C 0.22905 0.18319 1.14525 0.0
C256 C 0.12255 0.14116 1.1529 0.0
C257 C 0.11178 0.11049 1.12542 0.0
C258 C 0.15912 0.12654 1.10526 0.0
C259 C 0.2181 0.16442 1.11506 0.0
H260 H 0.11519 -0.00539 0.51265 0.0
H261 H -0.00871 0.94143 0.43731 0.0
H262 H 0.17764 0.09172 0.48881 0.0
H263 H 0.05106 0.04015 0.41485 0.0
H264 H 0.08229 0.21353 0.48973 0.0
H265 H 0.04502 0.11441 0.46755 0.0
H266 H 0.22249 0.16974 0.43227 0.0
H267 H 0.25885 0.26943 0.45301 0.0
C268 C 0.10326 0.00256 0.49028 0.0
C269 C 0.04803 0.96187 0.47719 0.0
C270 C 0.13904 0.05777 0.47648 0.0
C271 C 0.11785 0.07309 0.45046 0.0
C272 C 0.06798 0.02887 0.43487 0.0
C273 C 0.0336 -0.02734 0.448 0.0
C274 C 0.11203 0.20536 0.47569 0.0
C275 C 0.17305 0.24802 0.47316 0.0
C276 C 0.09085 0.14922 0.46272 0.0
C277 C 0.13136 0.1352 0.44835 0.0
C278 C 0.19062 0.18019 0.44281 0.0
C279 C 0.21127 0.23679 0.45495 0.0
H280 H 0.05661 0.01584 0.87945 0.0
H281 H 0.0628 0.9506 0.79102 0.0
H282 H -0.01826 0.04092 0.86192 0.0
H283 H -0.0147 -0.02694 0.7734 0.0
H284 H -0.002 0.1618 0.76212 0.0
H285 H -0.0102 0.06433 0.76185 0.0
H286 H 0.88365 0.01736 0.84311 0.0
H287 H 0.89448 0.11691 0.84397 0.0
C288 C 0.04178 0.00706 0.85618 0.0
C289 C 0.06685 -0.01654 0.83637 0.0
C290 C -0.00265 0.01955 0.84622 0.0
C291 C -0.02364 0.00807 0.81618 0.0
C292 C 0.00031 -0.01752 0.7966 0.0
C293 C 0.04558 0.97081 0.80653 0.0
C294 C -0.03025 0.12929 0.77891 0.0
C295 C 0.95106 0.14753 0.80435 0.0
C296 C 0.96466 0.07287 0.77876 0.0
C297 C 0.94152 0.03598 0.80432 0.0
C298 C 0.90562 0.04722 0.82428 0.0
C299 C 0.91159 0.10423 0.82477 0.0
H300 H 0.55248 0.59016 1.04899 0.0
H301 H 0.57745 0.45437 1.0054 0.0
H302 H 0.54517 0.62902 1.00045 0.0
H303 H 0.56225 0.48775 0.95714 0.0
H304 H 0.37645 0.55838 0.93997 0.0
H305 H 0.46127 0.59479 0.97362 0.0
H306 H 0.54609 0.52425 0.91495 0.0
H307 H 0.45696 0.48226 0.88283 0.0
C308 C 0.55753 0.569 1.0291 0.0
C309 C 0.56128 0.51629 1.03117 0.0
C310 C 0.55206 0.59072 1.00099 0.0
C311 C 0.54695 0.55829 0.97462 0.0
C312 C 0.56288 0.51301 0.97661 0.0
C313 C 0.57075 0.49283 1.00462 0.0
C314 C 0.41367 0.55139 0.93403 0.0
C315 C 0.40831 0.51433 0.90979 0.0
C316 C 0.46349 0.57318 0.95328 0.0
C317 C 0.50992 0.55936 0.9484 0.0
C318 C 0.50973 0.53255 0.92074 0.0
C319 C 0.45885 0.50923 0.90187 0.0
H320 H 0.11109 0.55592 0.35492 0.0
H321 H 0.96345 0.49187 0.41798 0.0
H322 H 0.04035 0.52759 0.31357 0.0
H323 H 0.89263 0.46735 0.37652 0.0
H324 H 0.82707 0.30069 0.31243 0.0
H325 H 0.86337 0.37953 0.34942 0.0
H326 H 0.96229 0.5108 0.28024 0.0
H327 H 0.92885 0.4308 0.24354 0.0
C328 C 0.06359 0.53754 0.35997 0.0
C329 C 0.04266 0.52288 0.38964 0.0
C330 C 0.02274 0.52228 0.33616 0.0
C331 C 0.96009 0.49226 0.34165 0.0
C332 C 0.94037 0.4881 0.3715 0.0
C333 C -0.01875 0.50264 0.39536 0.0
C334 C 0.85529 0.34657 0.30497 0.0
C335 C 0.87752 0.35916 0.27547 0.0
C336 C 0.87558 0.39232 0.32616 0.0
C337 C 0.91824 0.45161 0.31811 0.0
C338 C 0.93138 0.46534 0.28742 0.0
C339 C 0.91172 0.41936 0.26628 0.0
H340 H 0.75707 0.25743 0.67443 0.0
H341 H 0.64471 0.11814 0.73735 0.0
H342 H 0.72082 0.18499 0.63396 0.0
H343 H 0.6057 0.04591 0.69652 0.0
H344 H 0.68386 0.05193 0.56671 0.0
H345 H 0.65626 0.10892 0.60024 0.0
H346 H 0.66385 0.00588 0.67587 0.0
H347 H 0.68789 0.947 0.6422 0.0
C348 C 0.7228 0.2117 0.67938 0.0
C349 C 0.70595 0.19293 0.70923 0.0
C350 C 0.70131 0.17003 0.65606 0.0
C351 C 0.66216 0.1089 0.66221 0.0
C352 C 0.63761 0.09226 0.69125 0.0
C353 C 0.65958 0.1339 0.71465 0.0
C354 C 0.6773 0.03989 0.59034 0.0
C355 C 0.68954 -0.00416 0.60192 0.0
C356 C 0.66192 0.07296 0.60961 0.0
C357 C 0.65902 0.06305 0.64087 0.0
C358 C 0.66534 0.01492 0.65196 0.0
C359 C 0.68025 -0.01836 0.63269 0.0
H360 H 0.68642 0.72947 1.0164 0.0
H361 H 0.70619 0.637 1.09341 0.0
H362 H 0.71859 0.67566 0.98352 0.0
H363 H 0.73733 0.58173 1.06032 0.0
H364 H 0.91212 0.63324 1.00017 0.0
H365 H 0.83544 0.62547 1.03497 0.0
H366 H 0.71042 0.58584 0.96096 0.0
H367 H 0.78794 0.59646 0.92598 0.0
C368 C 0.69631 0.69651 1.02618 0.0
C369 C 0.69531 0.68852 1.05746 0.0
C370 C 0.71391 0.66488 1.00731 0.0
C371 C 0.73136 0.62491 1.01938 0.0
C372 C 0.72483 0.61275 1.05043 0.0
C373 C 0.70685 0.64427 1.06934 0.0
C374 C 0.86771 0.6211 0.99141 0.0
C375 C 0.85697 0.61766 0.96023 0.0
C376 C 0.82336 0.61591 1.01142 0.0
C377 C 0.76743 0.60684 1.00054 0.0
C378 C 0.75365 0.59427 0.96986 0.0
C379 C 0.79813 0.59988 0.94983 0.0
H380 H 0.06041 0.65957 0.364 0.0
H381 H 0.19179 0.72092 0.43629 0.0
H382 H 0.14148 0.70154 0.32758 0.0
H383 H 0.27296 0.76008 0.39978 0.0
H384 H 0.34561 0.93402 0.33877 0.0
H385 H 0.29638 0.85196 0.37432 0.0
H386 H 0.23247 0.72531 0.30088 0.0
H387 H 0.2803 0.80817 0.26518 0.0
C388 C 0.10662 0.6801 0.37209 0.0
C389 C 0.11962 0.68949 0.403 0.0
C390 C 0.15333 0.70343 0.35116 0.0
C391 C 0.21384 0.73634 0.36087 0.0
C392 C 0.22671 0.73654 0.39169 0.0
C393 C 0.17995 0.71359 0.41264 0.0
C394 C 0.32239 0.88856 0.3303 0.0
C395 C 0.31542 0.87759 0.29926 0.0
C396 C 0.29478 0.84121 0.35069 0.0
C397 C 0.25948 0.78192 0.3404 0.0
C398 C 0.25856 0.77052 0.30946 0.0
C399 C 0.28625 0.81802 0.28903 0.0
H400 H 0.57126 0.22657 0.75781 0.0
H401 H 0.47866 0.07747 0.69686 0.0
H402 H 0.62434 0.29171 0.71578 0.0
H403 H 0.52722 0.14347 0.65468 0.0
H404 H 0.56141 0.26111 0.58116 0.0
H405 H 0.59117 0.21453 0.62056 0.0
H406 H 0.57613 0.32995 0.68626 0.0
H407 H 0.55105 0.3789 0.64675 0.0
C408 C 0.56335 0.20702 0.73558 0.0
C409 C 0.51794 0.14741 0.73051 0.0
C410 C 0.59344 0.24479 0.71132 0.0
C411 C 0.57712 0.22409 0.68162 0.0
C412 C 0.54001 0.16203 0.67707 0.0
C413 C 0.51109 0.12399 0.70136 0.0
C414 C 0.56707 0.27828 0.60385 0.0
C415 C 0.55171 0.32232 0.61103 0.0
C416 C 0.5836 0.25107 0.62655 0.0
C417 C 0.58389 0.26656 0.65689 0.0
C418 C 0.57621 0.31603 0.66335 0.0
C419 C 0.56061 0.3437 0.64065 0.0
H420 H 0.58236 0.27731 0.21812 0.0
H421 H 0.47521 0.13197 0.15714 0.0
H422 H 0.64277 0.22909 0.23114 0.0
H423 H 0.53257 0.08332 0.17107 0.0
H424 H 0.76735 0.14645 0.19086 0.0
H425 H 0.71236 0.20121 0.19627 0.0
H426 H 0.55173 0.03652 0.22038 0.0
H427 H 0.60716 -0.01823 0.21539 0.0
C428 C 0.57143 0.23504 0.20781 0.0
C429 C 0.5235 0.20775 0.18708 0.0
C430 C 0.60548 0.20737 0.21539 0.0
C431 C 0.59098 0.15175 0.20272 0.0
C432 C 0.54344 0.1252 0.18188 0.0
C433 C 0.51077 0.15327 0.17384 0.0
C434 C 0.72084 0.12235 0.19825 0.0
C435 C 0.69102 0.05984 0.20216 0.0
C436 C 0.68958 0.15377 0.20156 0.0
C437 C 0.62782 0.12285 0.20841 0.0
C438 C 0.59941 0.06116 0.21495 0.0
C439 C 0.63098 0.02988 0.21206 0.0
H440 H 0.42255 0.48807 0.55396 0.0
H441 H 0.44146 0.62229 0.48901 0.0
H442 H 0.53119 0.54542 0.56457 0.0
H443 H 0.54947 0.68069 0.50071 0.0
H444 H 0.71896 0.61625 0.50386 0.0
H445 H 0.61072 0.56675 0.5135 0.0
H446 H 0.63205 0.72864 0.55363 0.0
H447 H 0.7419 0.77767 0.54553 0.0
C448 C 0.44968 0.53047 0.54252 0.0
C449 C 0.42433 0.5503 0.52014 0.0
C450 C 0.5114 0.56337 0.54885 0.0
C451 C 0.54786 0.61735 0.5336 0.0
C452 C 0.52166 0.63948 0.513 0.0
C453 C 0.46027 0.60587 0.5061 0.0
C454 C 0.70081 0.64083 0.51542 0.0
C455 C 0.73815 0.70094 0.52349 0.0
C456 C 0.63916 0.61242 0.52111 0.0
C457 C 0.61377 0.64418 0.53425 0.0
C458 C 0.65124 0.70353 0.5436 0.0
C459 C 0.7136 0.73149 0.5388 0.0
H460 H 0.08597 0.48527 0.90737 0.0
H461 H 0.08627 0.48208 0.81035 0.0
H462 H 0.14457 0.5949 0.9062 0.0
H463 H 0.13939 0.5901 0.80867 0.0
H464 H 0.25264 0.78482 0.80634 0.0
H465 H 0.22351 0.67981 0.81355 0.0
H466 H 0.13774 0.67812 0.89767 0.0
H467 H 0.17296 0.78393 0.8918 0.0
C468 C 0.0984 0.50828 0.88586 0.0
C469 C 0.08193 0.4757 0.85902 0.0
C470 C 0.13162 0.57109 0.88504 0.0
C471 C 0.14717 0.60231 0.85727 0.0
C472 C 0.13041 0.56869 0.83054 0.0
C473 C 0.09905 0.50637 0.83144 0.0
C474 C 0.2287 0.76198 0.82661 0.0
C475 C 0.21336 0.79182 0.84803 0.0
C476 C 0.21115 0.70147 0.83067 0.0
C477 C 0.17616 0.66909 0.85577 0.0
C478 C 0.16461 0.70065 0.87809 0.0
C479 C 0.18412 0.76151 0.87452 0.0
H480 H 0.36381 0.20495 0.28991 0.0
H481 H 0.35635 0.35052 0.24507 0.0
H482 H 0.35066 0.24151 0.33851 0.0
H483 H 0.34343 0.3871 0.29346 0.0
H484 H 0.26432 0.40715 0.38441 0.0
H485 H 0.27706 0.37158 0.33532 0.0
H486 H 0.39787 0.31853 0.3758 0.0
H487 H 0.38519 0.3538 0.42446 0.0
C488 C 0.35951 0.24482 0.29026 0.0
C489 C 0.36149 0.27442 0.26303 0.0
C490 C 0.3522 0.26623 0.31839 0.0
C491 C 0.34586 0.31787 0.32058 0.0
C492 C 0.34735 0.34703 0.29325 0.0
C493 C 0.35528 0.32602 0.26521 0.0
C494 C 0.29416 0.38854 0.38286 0.0
C495 C 0.32391 0.38423 0.40892 0.0
C496 C 0.30159 0.36792 0.35447 0.0
C497 C 0.33844 0.34135 0.35097 0.0
C498 C 0.36837 0.33755 0.37708 0.0
C499 C 0.36148 0.35866 0.40526 0.0
H500 H 0.27472 0.3719 0.61857 0.0
H501 H 0.13103 0.39494 0.5809 0.0
H502 H 0.2315 0.3605 0.66862 0.0
H503 H 0.08799 0.38433 0.63115 0.0
H504 H -0.00493 0.30849 0.72415 0.0
H505 H 0.03531 0.31954 0.67301 0.0
H506 H 0.21685 0.41131 0.70888 0.0
H507 H 0.17688 0.39966 0.7595 0.0
C508 C 0.23393 0.37475 0.62084 0.0
C509 C 0.20692 0.3846 0.59519 0.0
C510 C 0.20905 0.36855 0.64986 0.0
C511 C 0.15583 0.37169 0.65463 0.0
C512 C 0.12847 0.38095 0.62887 0.0
C513 C 0.15359 0.38747 0.59982 0.0
C514 C 0.04359 0.33143 0.72114 0.0
C515 C 0.08228 0.35306 0.74645 0.0
C516 C 0.06694 0.33795 0.69159 0.0
C517 C 0.12991 0.366 0.68619 0.0
C518 C 0.16828 0.38835 0.71158 0.0
C519 C 0.14506 0.38208 0.74094 0.0
H520 H 0.03141 0.26832 0.94995 0.0
H521 H 0.8488 0.17578 0.91583 0.0
H522 H -0.00457 0.22158 0.9993 0.0
H523 H 0.81281 0.12787 0.96523 0.0
H524 H 0.90235 0.18208 1.09232 0.0
H525 H 0.93506 0.22465 1.0423 0.0
H526 H 0.81613 0.05254 1.00278 0.0
H527 H 0.7838 0.00896 1.05352 0.0
C528 C -0.01653 0.23796 0.95283 0.0
C529 C 0.94335 0.22664 0.92846 0.0
C530 C 0.96262 0.21102 0.98139 0.0
C531 C 0.90079 0.17042 0.98679 0.0
C532 C 0.86069 0.15831 0.96228 0.0
C533 C 0.88143 0.18634 0.93381 0.0
C534 C 0.88258 0.15278 1.07315 0.0
C535 C 0.83966 0.09157 1.07757 0.0
C536 C 0.90197 0.17749 1.04415 0.0
C537 C 0.87876 0.1426 1.01794 0.0
C538 C 0.83511 0.08141 1.02216 0.0
C539 C 0.81649 0.05619 1.05142 0.0
H540 H 0.80557 0.86862 0.24645 0.0
H541 H 0.85154 0.03975 0.2847 0.0
H542 H 0.81849 0.83337 0.29592 0.0
H543 H 0.86425 0.00461 0.3341 0.0
H544 H 0.82277 0.90698 0.42534 0.0
H545 H 0.81097 0.93945 0.37545 0.0
H546 H 0.88893 0.84045 0.33618 0.0
H547 H 0.90114 0.80779 0.38676 0.0
C548 C 0.81833 0.89893 0.26531 0.0
C549 C 0.82707 0.95735 0.26099 0.0
C550 C 0.82624 0.87869 0.29396 0.0
C551 C 0.84239 0.91554 0.31976 0.0
C552 C 0.85106 -0.02604 0.31534 0.0
C553 C 0.84396 -0.00557 0.28666 0.0
C554 C 0.83739 0.89159 0.40626 0.0
C555 C 0.86286 0.85409 0.41078 0.0
C556 C 0.83099 0.91092 0.37725 0.0
C557 C 0.84914 0.89343 0.35104 0.0
C558 C 0.8738 0.85503 0.3554 0.0
C559 C 0.88096 0.83619 0.38465 0.0
H560 H 0.04179 0.823 0.58542 0.0
H561 H 0.90171 0.8503 0.62276 0.0
H562 H 0.08617 0.83336 0.63573 0.0
H563 H 0.94544 0.85959 0.67314 0.0
H564 H 0.00825 0.81596 0.76444 0.0
H565 H 0.96325 0.80266 0.71408 0.0
H566 H 0.14084 0.90878 0.6761 0.0
H567 H 0.18567 0.92296 0.7265 0.0
C568 C 0.02001 0.83083 0.6043 0.0
C569 C -0.03235 0.83562 0.59951 0.0
C570 C 0.04588 0.83718 0.63337 0.0
C571 C 0.01987 0.84738 0.65908 0.0
C572 C 0.96697 0.85128 0.65431 0.0
C573 C 0.94182 0.84615 0.62515 0.0
C574 C 0.03797 0.8361 0.74539 0.0
C575 C 0.10108 0.87028 0.75002 0.0
C576 C 0.01193 0.82888 0.7163 0.0
C577 C 0.04791 0.85451 0.69044 0.0
C578 C 0.11113 0.8877 0.69505 0.0
C579 C 0.13706 0.89599 0.7242 0.0
H580 H 0.16402 0.9105 0.96235 0.0
H581 H 0.29052 0.0742 0.91757 0.0
H582 H 0.20154 0.95894 1.01118 0.0
H583 H 0.32908 0.12208 0.96603 0.0
H584 H 0.3564 0.21317 1.05841 0.0
H585 H 0.31746 0.1656 1.00957 0.0
H586 H 0.27839 -0.00503 1.04743 0.0
H587 H 0.31576 0.04223 1.09612 0.0
C588 C 0.19992 0.95678 0.96277 0.0
C589 C 0.2237 -0.01212 0.9355 0.0
C590 C 0.22208 -0.01517 0.99104 0.0
C591 C 0.2691 0.04524 0.99332 0.0
C592 C 0.29248 0.07616 0.96591 0.0
C593 C 0.27033 0.0482 0.93775 0.0
C594 C 0.34002 0.16558 1.05633 0.0
C595 C 0.33997 0.13219 1.08171 0.0
C596 C 0.3175 0.1379 1.02803 0.0
C597 C 0.29391 0.07555 1.02381 0.0
C598 C 0.29468 0.04255 1.04923 0.0
C599 C 0.31706 0.07015 1.07744 0.0
loop_
_geom_bond_atom_site_label_1
_geom_bond_atom_site_label_2
_geom_bond_distance
_geom_bond_site_symmetry_2
_ccdc_geom_bond_type
C0 Eu1 2.835 . S
C0 C2 1.500 . S
C0 O20 1.257 . S
C0 O21 1.260 . S
Eu1 C0 2.835 . S
Eu1 O20 2.473 . S
Eu1 O21 2.480 . S
Eu1 O22 2.427 1_556 S
Eu1 O23 2.670 1_556 S
Eu1 O24 2.394 . S
Eu1 O29 2.355 1_556 S
Eu1 O31 2.374 1_556 S
C2 C0 1.500 . S
C2 C3 1.377 . S
C2 C7 1.377 . S
C3 C2 1.377 . S
C3 C4 1.395 . S
C3 H32 0.931 . S
C4 C3 1.395 . S
C4 C5 1.383 . S
C4 H33 0.931 . S
C5 C4 1.383 . S
C5 C6 1.394 . S
C6 C5 1.394 . S
C6 C7 1.378 . S
C6 H34 0.931 . S
C7 C2 1.377 . S
C7 C6 1.378 . S
C7 H35 0.931 . S
C8 O22 1.282 . S
C8 O23 1.270 . S
C9 O24 1.251 . S
C9 O25 1.251 . S
C10 Eu11 2.835 . S
C10 C12 1.500 . S
C10 O26 1.257 . S
C10 O27 1.260 . S
Eu11 C10 2.835 . S
Eu11 O23 2.355 . S
Eu11 O25 2.374 1_554 S
Eu11 O26 2.473 . S
Eu11 O27 2.480 . S
Eu11 O28 2.430 . S
Eu11 O29 2.670 . S
Eu11 O30 2.394 . S
C12 C10 1.500 . S
C12 C13 1.377 . S
C12 C17 1.377 . S
C13 C12 1.377 . S
C13 C14 1.395 . S
C13 H36 0.931 . S
C14 C13 1.395 . S
C14 C15 1.383 . S
C14 H37 0.931 . S
C15 C14 1.383 . S
C15 C16 1.394 . S
C16 C15 1.394 . S
C16 C17 1.378 . S
C16 H38 0.931 . S
C17 C12 1.377 . S
C17 C16 1.378 . S
C17 H39 0.931 . S
C18 O28 1.259 . S
C18 O29 1.270 . S
C19 O30 1.251 . S
C19 O31 1.251 . S
O20 C0 1.257 . S
O20 Eu1 2.473 . S
O21 C0 1.260 . S
O21 Eu1 2.480 . S
O22 Eu1 2.427 1_554 S
O22 C8 1.282 . S
O23 Eu1 2.670 1_554 S
O23 C8 1.270 . S
O23 Eu11 2.355 . S
O24 Eu1 2.394 . S
O24 C9 1.251 . S
O25 C9 1.251 . S
O25 Eu11 2.374 1_556 S
O26 C10 1.257 . S
O26 Eu11 2.473 . S
O27 C10 1.260 . S
O27 Eu11 2.480 . S
O28 Eu11 2.430 . S
O28 C18 1.259 . S
O29 Eu1 2.355 1_554 S
O29 Eu11 2.670 . S
O29 C18 1.270 . S
O30 Eu11 2.394 . S
O30 C19 1.251 . S
O31 Eu1 2.374 1_554 S
O31 C19 1.251 . S
H32 C3 0.931 . S
H33 C4 0.931 . S
H34 C6 0.931 . S
H35 C7 0.931 . S
H36 C13 0.931 . S
H37 C14 0.931 . S
H38 C16 0.931 . S
H39 C17 0.931 . S
C40 Eu41 2.835 . S
C40 C42 1.500 . S
C40 O60 1.257 . S
C40 O61 1.260 . S
Eu41 C40 2.835 . S
Eu41 O60 2.473 . S
Eu41 O61 2.480 . S
Eu41 O62 2.430 . S
Eu41 O63 2.670 . S
Eu41 O64 2.394 . S
Eu41 O69 2.355 . S
Eu41 O71 2.374 . S
C42 C40 1.500 . S
C42 C43 1.377 . S
C42 C47 1.377 . S
C43 C42 1.377 . S
C43 C44 1.395 . S
C43 H72 0.931 . S
C44 C43 1.395 . S
C44 C45 1.383 . S
C44 H73 0.931 . S
C45 C44 1.383 . S
C45 C46 1.394 . S
C46 C45 1.394 . S
C46 C47 1.378 . S
C46 H74 0.931 . S
C47 C42 1.377 . S
C47 C46 1.378 . S
C47 H75 0.931 . S
C48 O62 1.259 . S
C48 O63 1.270 . S
C49 O64 1.251 . S
C49 O65 1.251 . S
C50 Eu51 2.835 . S
C50 C52 1.500 . S
C50 O66 1.257 . S
C50 O67 1.260 . S
Eu51 C50 2.835 . S
Eu51 O63 2.355 . S
Eu51 O65 2.374 . S
Eu51 O66 2.473 . S
Eu51 O67 2.480 . S
Eu51 O68 2.430 . S
Eu51 O69 2.670 . S
Eu51 O70 2.394 . S
C52 C50 1.500 . S
C52 C53 1.377 . S
C52 C57 1.377 . S
C53 C52 1.377 . S
C53 C54 1.395 . S
C53 H76 0.931 . S
C54 C53 1.395 . S
C54 C55 1.383 . S
C54 H77 0.931 . S
C55 C54 1.383 . S
C55 C56 1.394 . S
C56 C55 1.394 . S
C56 C57 1.378 . S
C56 H78 0.931 . S
C57 C52 1.377 . S
C57 C56 1.378 . S
C57 H79 0.931 . S
C58 O68 1.259 . S
C58 O69 1.270 . S
C59 O70 1.251 . S
C59 O71 1.251 . S
O60 C40 1.257 . S
O60 Eu41 2.473 . S
O61 C40 1.260 . S
O61 Eu41 2.480 . S
O62 Eu41 2.430 . S
O62 C48 1.259 . S
O63 Eu41 2.670 . S
O63 C48 1.270 . S
O63 Eu51 2.355 . S
O64 Eu41 2.394 . S
O64 C49 1.251 . S
O65 C49 1.251 . S
O65 Eu51 2.374 . S
O66 C50 1.257 . S
O66 Eu51 2.473 . S
O67 C50 1.260 . S
O67 Eu51 2.480 . S
O68 Eu51 2.430 . S
O68 C58 1.259 . S
O69 Eu41 2.355 . S
O69 Eu51 2.670 . S
O69 C58 1.270 . S
O70 Eu51 2.394 . S
O70 C59 1.251 . S
O71 Eu41 2.374 . S
O71 C59 1.251 . S
H72 C43 0.931 . S
H73 C44 0.931 . S
H74 C46 0.931 . S
H75 C47 0.931 . S
H76 C53 0.931 . S
H77 C54 0.931 . S
H78 C56 0.931 . S
H79 C57 0.931 . S
C80 Eu81 2.835 . S
C80 C82 1.500 . S
C80 O100 1.257 . S
C80 O101 1.260 . S
Eu81 C80 2.835 . S
Eu81 O100 2.473 . S
Eu81 O101 2.480 . S
Eu81 O102 2.430 . S
Eu81 O103 2.675 . S
Eu81 O104 2.394 1_655 S
Eu81 O109 2.355 1_655 S
Eu81 O111 2.374 . S
C82 C80 1.500 . S
C82 C83 1.377 . S
C82 C87 1.377 . S
C83 C82 1.377 . S
C83 C84 1.395 . S
C83 H112 0.931 . S
C84 C83 1.395 . S
C84 C85 1.383 . S
C84 H113 0.931 . S
C85 C84 1.383 . S
C85 C86 1.394 . S
C86 C85 1.394 . S
C86 C87 1.378 . S
C86 H114 0.931 . S
C87 C82 1.377 . S
C87 C86 1.378 . S
C87 H115 0.931 . S
C88 O102 1.259 . S
C88 O103 1.282 . S
C89 O104 1.251 . S
C89 O105 1.251 . S
C90 Eu91 2.835 . S
C90 C92 1.500 . S
C90 O106 1.257 . S
C90 O107 1.260 . S
Eu91 C90 2.835 . S
Eu91 O103 2.340 1_455 S
Eu91 O105 2.374 . S
Eu91 O106 2.473 . S
Eu91 O107 2.480 . S
Eu91 O108 2.430 . S
Eu91 O109 2.670 . S
Eu91 O110 2.388 1_455 S
C92 C90 1.500 . S
C92 C93 1.377 . S
C92 C97 1.377 . S
C93 C92 1.377 . S
C93 C94 1.395 . S
C93 H116 0.931 . S
C94 C93 1.395 . S
C94 C95 1.383 . S
C94 H117 0.931 . S
C95 C94 1.383 . S
C95 C96 1.394 . S
C96 C95 1.394 . S
C96 C97 1.378 . S
C96 H118 0.931 . S
C97 C92 1.377 . S
C97 C96 1.378 . S
C97 H119 0.931 . S
C98 O108 1.259 . S
C98 O109 1.270 . S
C99 O110 1.263 . S
C99 O111 1.251 . S
O100 C80 1.257 . S
O100 Eu81 2.473 . S
O101 C80 1.260 . S
O101 Eu81 2.480 . S
O102 Eu81 2.430 . S
O102 C88 1.259 . S
O103 Eu81 2.675 . S
O103 C88 1.282 . S
O103 Eu91 2.340 1_655 S
O104 Eu81 2.394 1_455 S
O104 C89 1.251 . S
O105 C89 1.251 . S
O105 Eu91 2.374 . S
O106 C90 1.257 . S
O106 Eu91 2.473 . S
O107 C90 1.260 . S
O107 Eu91 2.480 . S
O108 Eu91 2.430 . S
O108 C98 1.259 . S
O109 Eu81 2.355 1_455 S
O109 Eu91 2.670 . S
O109 C98 1.270 . S
O110 Eu91 2.388 1_655 S
O110 C99 1.263 . S
O111 Eu81 2.374 . S
O111 C99 1.251 . S
H112 C83 0.931 . S
H113 C84 0.931 . S
H114 C86 0.931 . S
H115 C87 0.931 . S
H116 C93 0.931 . S
H117 C94 0.931 . S
H118 C96 0.931 . S
H119 C97 0.931 . S
C120 Eu121 2.835 . S
C120 C122 1.500 . S
C120 O140 1.257 . S
C120 O141 1.260 . S
Eu121 C120 2.835 . S
Eu121 O140 2.473 . S
Eu121 O141 2.480 . S
Eu121 O142 2.427 1_556 S
Eu121 O143 2.670 1_566 S
Eu121 O144 2.394 1_565 S
Eu121 O149 2.355 1_566 S
Eu121 O151 2.374 1_556 S
C122 C120 1.500 . S
C122 C123 1.377 . S
C122 C127 1.377 . S
C123 C122 1.377 . S
C123 C124 1.395 . S
C123 H152 0.931 . S
C124 C123 1.395 . S
C124 C125 1.383 . S
C124 H153 0.931 . S
C125 C124 1.383 . S
C125 C126 1.394 . S
C126 C125 1.394 . S
C126 C127 1.378 . S
C126 H154 0.931 . S
C127 C122 1.377 . S
C127 C126 1.378 . S
C127 H155 0.931 . S
C128 O142 1.283 . S
C128 O143 1.270 1_565 S
C129 O144 1.251 . S
C129 O145 1.251 . S
C130 Eu131 2.835 . S
C130 C132 1.500 . S
C130 O146 1.257 . S
C130 O147 1.260 . S
Eu131 C130 2.835 . S
Eu131 O143 2.355 . S
Eu131 O145 2.374 1_554 S
Eu131 O146 2.473 . S
Eu131 O147 2.480 . S
Eu131 O148 2.430 . S
Eu131 O149 2.670 . S
Eu131 O150 2.394 . S
C132 C130 1.500 . S
C132 C133 1.377 . S
C132 C137 1.377 . S
C133 C132 1.377 . S
C133 C134 1.395 . S
C133 H156 0.931 . S
C134 C133 1.395 . S
C134 C135 1.383 . S
C134 H157 0.931 . S
C135 C134 1.383 . S
C135 C136 1.394 . S
C136 C135 1.394 . S
C136 C137 1.378 . S
C136 H158 0.931 . S
C137 C132 1.377 . S
C137 C136 1.378 . S
C137 H159 0.931 . S
C138 O148 1.259 . S
C138 O149 1.270 . S
C139 O150 1.251 1_565 S
C139 O151 1.251 . S
O140 C120 1.257 . S
O140 Eu121 2.473 . S
O141 C120 1.260 . S
O141 Eu121 2.480 . S
O142 Eu121 2.427 1_554 S
O142 C128 1.283 . S
O143 Eu121 2.670 1_544 S
O143 C128 1.270 1_545 S
O143 Eu131 2.355 . S
O144 Eu121 2.394 1_545 S
O144 C129 1.251 . S
O145 C129 1.251 . S
O145 Eu131 2.374 1_556 S
O146 C130 1.257 . S
O146 Eu131 2.473 . S
O147 C130 1.260 . S
O147 Eu131 2.480 . S
O148 Eu131 2.430 . S
O148 C138 1.259 . S
O149 Eu121 2.355 1_544 S
O149 Eu131 2.670 . S
O149 C138 1.270 . S
O150 Eu131 2.394 . S
O150 C139 1.251 1_545 S
O151 Eu121 2.374 1_554 S
O151 C139 1.251 . S
H152 C123 0.931 . S
H153 C124 0.931 . S
H154 C126 0.931 . S
H155 C127 0.931 . S
H156 C133 0.931 . S
H157 C134 0.931 . S
H158 C136 0.931 . S
H159 C137 0.931 . S
C160 Eu161 2.835 . S
C160 C162 1.500 . S
C160 O180 1.257 . S
C160 O181 1.259 1_455 S
Eu161 C160 2.835 . S
Eu161 O180 2.473 . S
Eu161 O181 2.480 1_455 S
Eu161 O182 2.430 1_455 S
Eu161 O183 2.670 1_455 S
Eu161 O184 2.394 1_455 S
Eu161 O189 2.355 . S
Eu161 O191 2.374 . S
C162 C160 1.500 . S
C162 C163 1.377 . S
C162 C167 1.377 . S
C163 C162 1.377 . S
C163 C164 1.395 . S
C163 H192 0.931 . S
C164 C163 1.395 . S
C164 C165 1.383 . S
C164 H193 0.931 . S
C165 C164 1.383 . S
C165 C166 1.394 . S
C166 C165 1.394 . S
C166 C167 1.378 . S
C166 H194 0.931 . S
C167 C162 1.377 . S
C167 C166 1.378 . S
C167 H195 0.931 . S
C168 O182 1.259 . S
C168 O183 1.270 . S
C169 O184 1.251 . S
C169 O185 1.251 . S
C170 Eu171 2.835 . S
C170 C172 1.500 . S
C170 O186 1.257 . S
C170 O187 1.260 . S
Eu171 C170 2.835 . S
Eu171 O183 2.355 . S
Eu171 O185 2.374 . S
Eu171 O186 2.473 . S
Eu171 O187 2.480 . S
Eu171 O188 2.430 1_655 S
Eu171 O189 2.670 1_655 S
Eu171 O190 2.394 . S
C172 C170 1.500 . S
C172 C173 1.377 . S
C172 C177 1.377 . S
C173 C172 1.377 . S
C173 C174 1.395 . S
C173 H196 0.931 . S
C174 C173 1.395 . S
C174 C175 1.383 . S
C174 H197 0.931 . S
C175 C174 1.383 . S
C175 C176 1.394 . S
C176 C175 1.394 . S
C176 C177 1.378 . S
C176 H198 0.931 . S
C177 C172 1.377 . S
C177 C176 1.378 . S
C177 H199 0.931 . S
C178 O188 1.259 . S
C178 O189 1.270 . S
C179 O190 1.251 1_455 S
C179 O191 1.251 . S
O180 C160 1.257 . S
O180 Eu161 2.473 . S
O181 C160 1.259 1_655 S
O181 Eu161 2.480 1_655 S
O182 Eu161 2.430 1_655 S
O182 C168 1.259 . S
O183 Eu161 2.670 1_655 S
O183 C168 1.270 . S
O183 Eu171 2.355 . S
O184 Eu161 2.394 1_655 S
O184 C169 1.251 . S
O185 C169 1.251 . S
O185 Eu171 2.374 . S
O186 C170 1.257 . S
O186 Eu171 2.473 . S
O187 C170 1.260 . S
O187 Eu171 2.480 . S
O188 Eu171 2.430 1_455 S
O188 C178 1.259 . S
O189 Eu161 2.355 . S
O189 Eu171 2.670 1_455 S
O189 C178 1.270 . S
O190 Eu171 2.394 . S
O190 C179 1.251 1_655 S
O191 Eu161 2.374 . S
O191 C179 1.251 . S
H192 C163 0.931 . S
H193 C164 0.931 . S
H194 C166 0.931 . S
H195 C167 0.931 . S
H196 C173 0.931 . S
H197 C174 0.931 . S
H198 C176 0.931 . S
H199 C177 0.931 . S
C200 Eu201 2.835 . S
C200 C202 1.500 . S
C200 O220 1.257 . S
C200 O221 1.260 . S
Eu201 C200 2.835 . S
Eu201 O220 2.473 . S
Eu201 O221 2.480 . S
Eu201 O222 2.430 1_545 S
Eu201 O223 2.670 1_545 S
Eu201 O224 2.394 1_545 S
Eu201 O229 2.355 . S
Eu201 O231 2.374 . S
C202 C200 1.500 . S
C202 C203 1.377 . S
C202 C207 1.377 . S
C203 C202 1.377 . S
C203 C204 1.395 . S
C203 H232 0.931 . S
C204 C203 1.395 . S
C204 C205 1.383 . S
C204 H233 0.931 . S
C205 C204 1.383 . S
C205 C206 1.394 . S
C206 C205 1.394 . S
C206 C207 1.378 . S
C206 H234 0.931 . S
C207 C202 1.377 . S
C207 C206 1.378 . S
C207 H235 0.931 . S
C208 O222 1.259 . S
C208 O223 1.270 . S
C209 O224 1.251 . S
C209 O225 1.251 . S
C210 Eu211 2.835 . S
C210 C212 1.500 . S
C210 O226 1.257 . S
C210 O227 1.260 . S
Eu211 C210 2.835 . S
Eu211 O223 2.355 . S
Eu211 O225 2.374 . S
Eu211 O226 2.473 . S
Eu211 O227 2.480 . S
Eu211 O228 2.430 1_565 S
Eu211 O229 2.670 1_565 S
Eu211 O230 2.391 1_565 S
C212 C210 1.500 . S
C212 C213 1.377 . S
C212 C217 1.377 . S
C213 C212 1.377 . S
C213 C214 1.395 . S
C213 H236 0.931 . S
C214 C213 1.395 . S
C214 C215 1.383 . S
C214 H237 0.931 . S
C215 C214 1.383 . S
C215 C216 1.394 . S
C216 C215 1.394 . S
C216 C217 1.378 . S
C216 H238 0.931 . S
C217 C212 1.377 . S
C217 C216 1.378 . S
C217 H239 0.931 . S
C218 O228 1.259 . S
C218 O229 1.270 . S
C219 O230 1.248 . S
C219 O231 1.251 . S
O220 C200 1.257 . S
O220 Eu201 2.473 . S
O221 C200 1.260 . S
O221 Eu201 2.480 . S
O222 Eu201 2.430 1_565 S
O222 C208 1.259 . S
O223 Eu201 2.670 1_565 S
O223 C208 1.270 . S
O223 Eu211 2.355 . S
O224 Eu201 2.394 1_565 S
O224 C209 1.251 . S
O225 C209 1.251 . S
O225 Eu211 2.374 . S
O226 C210 1.257 . S
O226 Eu211 2.473 . S
O227 C210 1.260 . S
O227 Eu211 2.480 . S
O228 Eu211 2.430 1_545 S
O228 C218 1.259 . S
O229 Eu201 2.355 . S
O229 Eu211 2.670 1_545 S
O229 C218 1.270 . S
O230 Eu211 2.391 1_545 S
O230 C219 1.248 . S
O231 Eu201 2.374 . S
O231 C219 1.251 . S
H232 C203 0.931 . S
H233 C204 0.931 . S
H234 C206 0.931 . S
H235 C207 0.931 . S
H236 C213 0.931 . S
H237 C214 0.931 . S
H238 C216 0.931 . S
H239 C217 0.931 . S
H240 C248 0.946 1_655 S
H241 C253 0.950 . S
H242 C250 0.950 . S
H243 C252 0.950 . S
H244 C254 0.950 . S
H245 C256 0.950 . S
H246 C258 0.950 . S
H247 C259 0.950 . S
C248 H240 0.946 1_455 S
C248 C249 1.376 1_456 S
C248 C250 1.405 . S
C249 C248 1.376 1_654 S
C249 C253 1.393 . S
C250 H242 0.950 . S
C250 C248 1.405 . S
C250 C251 1.400 1_556 S
C251 C250 1.400 1_554 S
C251 C252 1.398 . S
C251 C257 1.491 . S
C252 H243 0.950 . S
C252 C251 1.398 . S
C252 C253 1.391 1_455 S
C253 H241 0.950 . S
C253 C249 1.393 . S
C253 C252 1.391 1_655 S
C254 H244 0.950 . S
C254 C255 1.386 . S
C254 C256 1.391 . S
C255 C254 1.386 . S
C255 C259 1.393 1_554 S
C256 H245 0.950 . S
C256 C254 1.391 . S
C256 C257 1.400 . S
C257 C251 1.491 . S
C257 C256 1.400 . S
C257 C258 1.398 1_554 S
C258 H246 0.950 . S
C258 C257 1.398 1_556 S
C258 C259 1.391 . S
C259 H247 0.950 . S
C259 C255 1.393 1_556 S
C259 C258 1.391 . S
H260 C268 0.950 . S
H261 C273 0.950 1_655 S
H262 C270 0.950 . S
H263 C272 0.950 . S
H264 C274 0.950 . S
H265 C276 0.950 . S
H266 C278 0.950 . S
H267 C279 0.950 . S
C268 H260 0.950 . S
C268 C269 1.386 1_545 S
C268 C270 1.391 . S
C269 C268 1.386 1_565 S
C269 C273 1.393 . S
C270 H262 0.950 . S
C270 C268 1.391 . S
C270 C271 1.400 . S
C271 C270 1.400 . S
C271 C272 1.398 . S
C271 C277 1.491 . S
C272 H263 0.950 . S
C272 C271 1.398 . S
C272 C273 1.391 1_545 S
C273 H261 0.950 1_455 S
C273 C269 1.393 . S
C273 C272 1.391 1_565 S
C274 H264 0.950 . S
C274 C275 1.386 . S
C274 C276 1.391 . S
C275 C274 1.386 . S
C275 C279 1.393 . S
C276 H265 0.950 . S
C276 C274 1.391 . S
C276 C277 1.400 . S
C277 C271 1.491 . S
C277 C276 1.400 . S
C277 C278 1.398 . S
C278 H266 0.950 . S
C278 C277 1.398 . S
C278 C279 1.391 . S
C279 H267 0.950 . S
C279 C275 1.393 . S
C279 C278 1.391 . S
H280 C288 0.950 . S
H281 C293 0.950 . S
H282 C290 0.950 . S
H283 C292 0.950 . S
H284 C294 0.950 1_655 S
H285 C296 0.950 . S
H286 C298 0.950 . S
H287 C299 0.950 . S
C288 H280 0.950 . S
C288 C289 1.386 . S
C288 C290 1.391 . S
C289 C288 1.386 . S
C289 C293 1.393 . S
C290 H282 0.950 . S
C290 C288 1.391 . S
C290 C291 1.400 . S
C291 C290 1.400 . S
C291 C292 1.398 . S
C291 C297 1.491 . S
C292 H283 0.950 . S
C292 C291 1.398 . S
C292 C293 1.391 . S
C293 H281 0.950 . S
C293 C289 1.393 . S
C293 C292 1.391 . S
C294 H284 0.950 1_455 S
C294 C295 1.386 . S
C294 C296 1.391 . S
C295 C294 1.386 . S
C295 C299 1.393 . S
C296 H285 0.950 . S
C296 C294 1.391 . S
C296 C297 1.400 . S
C297 C291 1.491 . S
C297 C296 1.400 . S
C297 C298 1.398 . S
C298 H286 0.950 . S
C298 C297 1.398 . S
C298 C299 1.391 . S
C299 H287 0.950 . S
C299 C295 1.393 . S
C299 C298 1.391 . S
H300 C308 0.950 . S
H301 C313 0.950 . S
H302 C310 0.950 . S
H303 C312 0.950 . S
H304 C314 0.950 . S
H305 C316 0.950 . S
H306 C318 0.950 . S
H307 C319 0.950 . S
C308 H300 0.950 . S
C308 C309 1.386 . S
C308 C310 1.391 . S
C309 C308 1.386 . S
C309 C313 1.393 . S
C310 H302 0.950 . S
C310 C308 1.391 . S
C310 C311 1.400 . S
C311 C310 1.400 . S
C311 C312 1.398 . S
C311 C317 1.491 . S
C312 H303 0.950 . S
C312 C311 1.398 . S
C312 C313 1.391 . S
C313 H301 0.950 . S
C313 C309 1.393 . S
C313 C312 1.391 . S
C314 H304 0.950 . S
C314 C315 1.386 . S
C314 C316 1.391 . S
C315 C314 1.386 . S
C315 C319 1.393 . S
C316 H305 0.950 . S
C316 C314 1.391 . S
C316 C317 1.400 . S
C317 C311 1.491 . S
C317 C316 1.400 . S
C317 C318 1.398 . S
C318 H306 0.950 . S
C318 C317 1.398 . S
C318 C319 1.391 . S
C319 H307 0.950 . S
C319 C315 1.393 . S
C319 C318 1.391 . S
H320 C328 0.950 . S
H321 C333 0.950 . S
H322 C330 0.950 . S
H323 C332 0.950 . S
H324 C334 0.950 . S
H325 C336 0.950 . S
H326 C338 0.950 . S
H327 C339 0.950 . S
C328 H320 0.950 . S
C328 C329 1.386 . S
C328 C330 1.391 . S
C329 C328 1.386 . S
C329 C333 1.393 . S
C330 H322 0.950 . S
C330 C328 1.391 . S
C330 C331 1.400 . S
C331 C330 1.400 . S
C331 C332 1.398 . S
C331 C337 1.491 1_455 S
C332 H323 0.950 . S
C332 C331 1.398 . S
C332 C333 1.391 . S
C333 H321 0.950 . S
C333 C329 1.393 . S
C333 C332 1.391 . S
C334 H324 0.950 . S
C334 C335 1.386 . S
C334 C336 1.391 . S
C335 C334 1.386 . S
C335 C339 1.393 . S
C336 H325 0.950 . S
C336 C334 1.391 . S
C336 C337 1.400 . S
C337 C331 1.491 1_655 S
C337 C336 1.400 . S
C337 C338 1.398 . S
C338 H326 0.950 . S
C338 C337 1.398 . S
C338 C339 1.391 . S
C339 H327 0.950 . S
C339 C335 1.393 . S
C339 C338 1.391 . S
H340 C348 0.950 . S
H341 C353 0.950 . S
H342 C350 0.950 . S
H343 C352 0.950 . S
H344 C354 0.950 . S
H345 C356 0.950 . S
H346 C358 0.950 1_545 S
H347 C359 0.950 . S
C348 H340 0.950 . S
C348 C349 1.386 . S
C348 C350 1.391 . S
C349 C348 1.386 . S
C349 C353 1.393 . S
C350 H342 0.950 . S
C350 C348 1.391 . S
C350 C351 1.400 . S
C351 C350 1.400 . S
C351 C352 1.398 . S
C351 C357 1.491 1_545 S
C352 H343 0.950 . S
C352 C351 1.398 . S
C352 C353 1.391 . S
C353 H341 0.950 . S
C353 C349 1.393 . S
C353 C352 1.391 . S
C354 H344 0.950 . S
C354 C355 1.386 . S
C354 C356 1.391 . S
C355 C354 1.386 . S
C355 C359 1.393 . S
C356 H345 0.950 . S
C356 C354 1.391 . S
C356 C357 1.400 . S
C357 C351 1.491 1_565 S
C357 C356 1.400 . S
C357 C358 1.398 . S
C358 H346 0.950 1_565 S
C358 C357 1.398 . S
C358 C359 1.391 . S
C359 H347 0.950 . S
C359 C355 1.393 . S
C359 C358 1.391 . S
H360 C368 0.950 . S
H361 C373 0.950 . S
H362 C370 0.950 . S
H363 C372 0.950 . S
H364 C374 0.950 . S
H365 C376 0.950 . S
H366 C378 0.950 . S
H367 C379 0.950 . S
C368 H360 0.950 . S
C368 C369 1.386 . S
C368 C370 1.391 . S
C369 C368 1.386 . S
C369 C373 1.393 . S
C370 H362 0.950 . S
C370 C368 1.391 . S
C370 C371 1.400 . S
C371 C370 1.400 . S
C371 C372 1.398 . S
C371 C377 1.491 . S
C372 H363 0.950 . S
C372 C371 1.398 . S
C372 C373 1.391 . S
C373 H361 0.950 . S
C373 C369 1.393 . S
C373 C372 1.391 . S
C374 H364 0.950 . S
C374 C375 1.386 . S
C374 C376 1.391 1_455 S
C375 C374 1.386 . S
C375 C379 1.393 . S
C376 H365 0.950 . S
C376 C374 1.391 1_655 S
C376 C377 1.400 . S
C377 C371 1.491 . S
C377 C376 1.400 . S
C377 C378 1.398 . S
C378 H366 0.950 . S
C378 C377 1.398 . S
C378 C379 1.391 1_655 S
C379 H367 0.950 . S
C379 C375 1.393 . S
C379 C378 1.391 1_455 S
H380 C388 0.950 . S
H381 C393 0.950 . S
H382 C390 0.950 . S
H383 C392 0.950 . S
H384 C394 0.950 . S
H385 C396 0.950 . S
H386 C398 0.950 . S
H387 C399 0.950 . S
C388 H380 0.950 . S
C388 C389 1.386 . S
C388 C390 1.391 . S
C389 C388 1.386 . S
C389 C393 1.393 . S
C390 H382 0.950 . S
C390 C388 1.391 . S
C390 C391 1.400 . S
C391 C390 1.400 . S
C391 C392 1.398 . S
C391 C397 1.491 . S
C392 H383 0.950 . S
C392 C391 1.398 . S
C392 C393 1.391 . S
C393 H381 0.950 . S
C393 C389 1.393 . S
C393 C392 1.391 . S
C394 H384 0.950 . S
C394 C395 1.386 . S
C394 C396 1.391 1_545 S
C395 C394 1.386 . S
C395 C399 1.393 . S
C396 H385 0.950 . S
C396 C394 1.391 1_565 S
C396 C397 1.400 . S
C397 C391 1.491 . S
C397 C396 1.400 . S
C397 C398 1.398 . S
C398 H386 0.950 . S
C398 C397 1.398 . S
C398 C399 1.391 1_565 S
C399 H387 0.950 . S
C399 C395 1.393 . S
C399 C398 1.391 1_545 S
H400 C408 0.950 . S
H401 C413 0.950 . S
H402 C410 0.950 . S
H403 C412 0.950 . S
H404 C414 0.950 . S
H405 C416 0.950 . S
H406 C418 0.950 . S
H407 C419 0.950 . S
C408 H400 0.950 . S
C408 C409 1.386 . S
C408 C410 1.391 . S
C409 C408 1.386 . S
C409 C413 1.393 . S
C410 H402 0.950 . S
C410 C408 1.391 . S
C410 C411 1.400 . S
C411 C410 1.400 . S
C411 C412 1.398 . S
C411 C417 1.491 . S
C412 H403 0.950 . S
C412 C411 1.398 . S
C412 C413 1.391 . S
C413 H401 0.950 . S
C413 C409 1.393 . S
C413 C412 1.391 . S
C414 H404 0.950 . S
C414 C415 1.386 . S
C414 C416 1.391 . S
C415 C414 1.386 . S
C415 C419 1.393 . S
C416 H405 0.950 . S
C416 C414 1.391 . S
C416 C417 1.400 . S
C417 C411 1.491 . S
C417 C416 1.400 . S
C417 C418 1.398 . S
C418 H406 0.950 . S
C418 C417 1.398 . S
C418 C419 1.391 . S
C419 H407 0.950 . S
C419 C415 1.393 . S
C419 C418 1.391 . S
H420 C428 0.950 . S
H421 C433 0.950 . S
H422 C430 0.950 . S
H423 C432 0.984 . S
H424 C434 0.950 1_565 S
H425 C436 0.950 . S
H426 C438 0.950 . S
H427 C439 0.950 . S
C428 H420 0.950 . S
C428 C429 1.386 . S
C428 C430 1.391 . S
C429 C428 1.386 . S
C429 C433 1.393 1_554 S
C430 H422 0.950 . S
C430 C428 1.391 . S
C430 C431 1.400 . S
C431 C430 1.400 . S
C431 C432 1.366 1_554 S
C431 C437 1.491 . S
C432 H423 0.984 . S
C432 C431 1.366 1_556 S
C432 C433 1.392 . S
C433 H421 0.950 . S
C433 C429 1.393 1_556 S
C433 C432 1.392 . S
C434 H424 0.950 1_545 S
C434 C435 1.386 1_556 S
C434 C436 1.391 . S
C435 C434 1.386 1_554 S
C435 C439 1.393 . S
C436 H425 0.950 . S
C436 C434 1.391 . S
C436 C437 1.400 1_556 S
C437 C431 1.491 . S
C437 C436 1.400 1_554 S
C437 C438 1.398 . S
C438 H426 0.950 . S
C438 C437 1.398 . S
C438 C439 1.391 . S
C439 H427 0.950 . S
C439 C435 1.393 . S
C439 C438 1.391 . S
H440 C448 0.950 . S
H441 C453 0.950 . S
H442 C450 0.950 . S
H443 C452 0.950 . S
H444 C454 0.950 . S
H445 C456 0.950 . S
H446 C458 0.950 . S
H447 C459 0.950 . S
C448 H440 0.950 . S
C448 C449 1.386 . S
C448 C450 1.391 . S
C449 C448 1.386 . S
C449 C453 1.393 . S
C450 H442 0.950 . S
C450 C448 1.391 . S
C450 C451 1.400 . S
C451 C450 1.400 . S
C451 C452 1.398 . S
C451 C457 1.491 . S
C452 H443 0.950 . S
C452 C451 1.398 . S
C452 C453 1.391 . S
C453 H441 0.950 . S
C453 C449 1.393 . S
C453 C452 1.391 . S
C454 H444 0.950 . S
C454 C455 1.386 . S
C454 C456 1.391 . S
C455 C454 1.386 . S
C455 C459 1.393 . S
C456 H445 0.950 . S
C456 C454 1.391 . S
C456 C457 1.400 . S
C457 C451 1.491 . S
C457 C456 1.400 . S
C457 C458 1.398 . S
C458 H446 0.950 . S
C458 C457 1.398 . S
C458 C459 1.391 . S
C459 H447 0.950 . S
C459 C455 1.393 . S
C459 C458 1.391 . S
H460 C468 0.950 . S
H461 C473 0.950 . S
H462 C470 0.950 . S
H463 C472 0.950 . S
H464 C474 0.950 . S
H465 C476 0.950 . S
H466 C478 0.950 . S
H467 C479 0.950 . S
C468 H460 0.950 . S
C468 C469 1.386 1_655 S
C468 C470 1.391 1_655 S
C469 C468 1.386 1_455 S
C469 C473 1.393 . S
C470 H462 0.950 . S
C470 C468 1.391 1_455 S
C470 C471 1.400 . S
C471 C470 1.400 . S
C471 C472 1.398 . S
C471 C477 1.491 . S
C472 H463 0.950 . S
C472 C471 1.398 . S
C472 C473 1.391 . S
C473 H461 0.950 . S
C473 C469 1.393 . S
C473 C472 1.391 . S
C474 H464 0.950 . S
C474 C475 1.386 . S
C474 C476 1.391 . S
C475 C474 1.386 . S
C475 C479 1.393 . S
C476 H465 0.950 . S
C476 C474 1.391 . S
C476 C477 1.400 . S
C477 C471 1.491 . S
C477 C476 1.400 . S
C477 C478 1.398 . S
C478 H466 0.950 . S
C478 C477 1.398 . S
C478 C479 1.391 . S
C479 H467 0.950 . S
C479 C475 1.393 . S
C479 C478 1.391 . S
H480 C488 0.950 . S
H481 C493 0.950 . S
H482 C490 0.950 . S
H483 C492 0.950 . S
H484 C494 0.950 . S
H485 C496 0.950 . S
H486 C498 0.950 . S
H487 C499 0.950 . S
C488 H480 0.950 . S
C488 C489 1.386 . S
C488 C490 1.391 . S
C489 C488 1.386 . S
C489 C493 1.393 . S
C490 H482 0.950 . S
C490 C488 1.391 . S
C490 C491 1.400 . S
C491 C490 1.400 . S
C491 C492 1.398 . S
C491 C497 1.491 . S
C492 H483 0.950 . S
C492 C491 1.398 . S
C492 C493 1.391 . S
C493 H481 0.950 . S
C493 C489 1.393 . S
C493 C492 1.391 . S
C494 H484 0.950 . S
C494 C495 1.386 . S
C494 C496 1.391 . S
C495 C494 1.386 . S
C495 C499 1.393 . S
C496 H485 0.950 . S
C496 C494 1.391 . S
C496 C497 1.400 . S
C497 C491 1.491 . S
C497 C496 1.400 . S
C497 C498 1.398 . S
C498 H486 0.950 . S
C498 C497 1.398 . S
C498 C499 1.391 . S
C499 H487 0.950 . S
C499 C495 1.393 . S
C499 C498 1.391 . S
H500 C508 0.950 . S
H501 C513 0.950 . S
H502 C510 0.950 . S
H503 C512 0.950 . S
H504 C514 0.950 . S
H505 C516 0.950 . S
H506 C518 0.950 . S
H507 C519 0.950 . S
C508 H500 0.950 . S
C508 C509 1.386 . S
C508 C510 1.391 . S
C509 C508 1.386 . S
C509 C513 1.393 . S
C510 H502 0.950 . S
C510 C508 1.391 . S
C510 C511 1.400 . S
C511 C510 1.400 . S
C511 C512 1.398 . S
C511 C517 1.491 . S
C512 H503 0.950 . S
C512 C511 1.398 . S
C512 C513 1.391 . S
C513 H501 0.950 . S
C513 C509 1.393 . S
C513 C512 1.391 . S
C514 H504 0.950 . S
C514 C515 1.386 . S
C514 C516 1.391 . S
C515 C514 1.386 . S
C515 C519 1.393 . S
C516 H505 0.950 . S
C516 C514 1.391 . S
C516 C517 1.400 . S
C517 C511 1.491 . S
C517 C516 1.400 . S
C517 C518 1.398 . S
C518 H506 0.950 . S
C518 C517 1.398 . S
C518 C519 1.391 . S
C519 H507 0.950 . S
C519 C515 1.393 . S
C519 C518 1.391 . S
H520 C528 0.950 . S
H521 C533 0.950 . S
H522 C530 0.950 . S
H523 C532 0.950 . S
H524 C534 0.950 . S
H525 C536 0.950 . S
H526 C538 0.950 . S
H527 C539 0.950 . S
C528 H520 0.950 . S
C528 C529 1.386 . S
C528 C530 1.391 . S
C529 C528 1.386 . S
C529 C533 1.393 . S
C530 H522 0.950 . S
C530 C528 1.391 . S
C530 C531 1.400 . S
C531 C530 1.400 . S
C531 C532 1.398 . S
C531 C537 1.491 . S
C532 H523 0.950 . S
C532 C531 1.398 . S
C532 C533 1.391 . S
C533 H521 0.950 . S
C533 C529 1.393 . S
C533 C532 1.391 . S
C534 H524 0.950 . S
C534 C535 1.386 . S
C534 C536 1.391 . S
C535 C534 1.386 . S
C535 C539 1.393 . S
C536 H525 0.950 . S
C536 C534 1.391 . S
C536 C537 1.400 . S
C537 C531 1.491 . S
C537 C536 1.400 . S
C537 C538 1.398 . S
C538 H526 0.950 . S
C538 C537 1.398 . S
C538 C539 1.391 . S
C539 H527 0.950 . S
C539 C535 1.393 . S
C539 C538 1.391 . S
H540 C548 0.950 . S
H541 C553 0.950 . S
H542 C550 0.950 . S
H543 C552 0.950 . S
H544 C554 0.950 . S
H545 C556 0.950 . S
H546 C558 0.950 . S
H547 C559 0.950 . S
C548 H540 0.950 . S
C548 C549 1.386 . S
C548 C550 1.391 . S
C549 C548 1.386 . S
C549 C553 1.393 . S
C550 H542 0.950 . S
C550 C548 1.391 . S
C550 C551 1.400 . S
C551 C550 1.400 . S
C551 C552 1.398 . S
C551 C557 1.491 . S
C552 H543 0.950 . S
C552 C551 1.398 . S
C552 C553 1.391 . S
C553 H541 0.950 . S
C553 C549 1.393 . S
C553 C552 1.391 . S
C554 H544 0.950 . S
C554 C555 1.386 . S
C554 C556 1.391 . S
C555 C554 1.386 . S
C555 C559 1.393 . S
C556 H545 0.950 . S
C556 C554 1.391 . S
C556 C557 1.400 . S
C557 C551 1.491 . S
C557 C556 1.400 . S
C557 C558 1.398 . S
C558 H546 0.950 . S
C558 C557 1.398 . S
C558 C559 1.391 . S
C559 H547 0.950 . S
C559 C555 1.393 . S
C559 C558 1.391 . S
H560 C568 0.950 . S
H561 C573 0.950 1_655 S
H562 C570 0.950 . S
H563 C572 0.950 1_655 S
H564 C574 0.950 . S
H565 C576 0.950 . S
H566 C578 0.950 . S
H567 C579 0.950 . S
C568 H560 0.950 . S
C568 C569 1.386 . S
C568 C570 1.391 . S
C569 C568 1.386 . S
C569 C573 1.393 . S
C570 H562 0.950 . S
C570 C568 1.391 . S
C570 C571 1.400 . S
C571 C570 1.400 . S
C571 C572 1.398 . S
C571 C577 1.491 . S
C572 H563 0.950 1_455 S
C572 C571 1.398 . S
C572 C573 1.391 . S
C573 H561 0.950 1_455 S
C573 C569 1.393 . S
C573 C572 1.391 . S
C574 H564 0.950 . S
C574 C575 1.386 . S
C574 C576 1.391 . S
C575 C574 1.386 . S
C575 C579 1.393 . S
C576 H565 0.950 . S
C576 C574 1.391 . S
C576 C577 1.400 . S
C577 C571 1.491 . S
C577 C576 1.400 . S
C577 C578 1.398 . S
C578 H566 0.950 . S
C578 C577 1.398 . S
C578 C579 1.391 . S
C579 H567 0.950 . S
C579 C575 1.393 . S
C579 C578 1.391 . S
H580 C588 0.950 1_565 S
H581 C593 0.950 . S
H582 C590 0.950 . S
H583 C592 0.950 . S
H584 C594 0.950 . S
H585 C596 0.950 . S
H586 C598 0.950 . S
H587 C599 0.950 . S
C588 H580 0.950 1_545 S
C588 C589 1.386 . S
C588 C590 1.391 . S
C589 C588 1.386 . S
C589 C593 1.393 . S
C590 H582 0.950 . S
C590 C588 1.391 . S
C590 C591 1.400 . S
C591 C590 1.400 . S
C591 C592 1.398 . S
C591 C597 1.491 . S
C592 H583 0.950 . S
C592 C591 1.398 . S
C592 C593 1.391 . S
C593 H581 0.950 . S
C593 C589 1.393 . S
C593 C592 1.391 . S
C594 H584 0.950 . S
C594 C595 1.386 . S
C594 C596 1.391 . S
C595 C594 1.386 . S
C595 C599 1.393 . S
C596 H585 0.950 . S
C596 C594 1.391 . S
C596 C597 1.400 . S
C597 C591 1.491 . S
C597 C596 1.400 . S
C597 C598 1.398 . S
C598 H586 0.950 . S
C598 C597 1.398 . S
C598 C599 1.391 . S
C599 H587 0.950 . S
C599 C595 1.393 . S
C599 C598 1.391 . S
C249 C138 0.683 . S
C255 C18 0.680 . S
C269 C178 0.743 . S
C275 C58 0.725 . S
C289 C218 0.754 . S
C295 C98 0.738 . S
C309 C5 0.790 . S
C315 C95 0.800 . S
C329 C45 0.756 . S
C335 C135 0.793 . S
C349 C85 0.747 . S
C355 C175 0.726 . S
C369 C125 0.728 . S
C375 C215 0.768 . S
C389 C165 0.726 . S
C395 C15 0.764 . S
C409 C205 0.800 . S
C415 C55 0.770 . S
C429 C8 1.627 . S
C435 C128 1.623 1_545 S
C449 C48 1.632 . S
C455 C168 1.627 . S
C469 C88 1.634 1_455 S
C475 C208 1.626 . S
C489 C19 4.010 . S
C495 C49 4.062 . S
C509 C59 4.010 . S
C515 C89 4.061 . S
C529 C99 4.007 . S
C535 C129 4.060 . S
C549 C139 4.002 . S
C555 C169 4.060 . S
C569 C179 4.002 . S
C575 C209 4.060 . S
C589 C219 4.010 . S
C595 C9 4.062 . S
