# Generated by pormake.
# Topology tzs, (4)-cn, num edge types: 1
# Building blocks:
#     Node 0, Type 0, BuildingBlock: QUQFOY_clean_sbu_1, # of connection points: 4
#     Node 1, Type 0, BuildingBlock: QUQFOY_clean_sbu_1, # of connection points: 4
#     Node 2, Type 0, BuildingBlock: QUQFOY_clean_sbu_1, # of connection points: 4
#     Node 3, Type 0, BuildingBlock: QUQFOY_clean_sbu_1, # of connection points: 4
#     Node 4, Type 0, BuildingBlock: QUQFOY_clean_sbu_1, # of connection points: 4
#     Node 5, Type 0, BuildingBlock: QUQFOY_clean_sbu_1, # of connection points: 4
#     Node 6, Type 0, BuildingBlock: QUQFOY_clean_sbu_1, # of connection points: 4
#     Node 7, Type 0, BuildingBlock: QUQFOY_clean_sbu_1, # of connection points: 4
#     Node 8, Type 0, BuildingBlock: QUQFOY_clean_sbu_1, # of connection points: 4
#     Node 9, Type 0, BuildingBlock: QUQFOY_clean_sbu_1, # of connection points: 4
#     Node 10, Type 0, BuildingBlock: QUQFOY_clean_sbu_1, # of connection points: 4
#     Node 11, Type 0, BuildingBlock: QUQFOY_clean_sbu_1, # of connection points: 4
#     Node 12, Type 0, BuildingBlock: QUQFOY_clean_sbu_1, # of connection points: 4
#     Node 13, Type 0, BuildingBlock: QUQFOY_clean_sbu_1, # of connection points: 4
#     Node 14, Type 0, BuildingBlock: QUQFOY_clean_sbu_1, # of connection points: 4
#     Node 15, Type 0, BuildingBlock: QUQFOY_clean_sbu_1, # of connection points: 4
#     Edge 16, Type (0, 0), BuildingBlock: AJUNOK_clean_linker_0, # of connection points: 2
#     Edge 17, Type (0, 0), BuildingBlock: AJUNOK_clean_linker_0, # of connection points: 2
#     Edge 18, Type (0, 0), BuildingBlock: AJUNOK_clean_linker_0, # of connection points: 2
#     Edge 19, Type (0, 0), BuildingBlock: AJUNOK_clean_linker_0, # of connection points: 2
#     Edge 20, Type (0, 0), BuildingBlock: AJUNOK_clean_linker_0, # of connection points: 2
#     Edge 21, Type (0, 0), BuildingBlock: AJUNOK_clean_linker_0, # of connection points: 2
#     Edge 22, Type (0, 0), BuildingBlock: AJUNOK_clean_linker_0, # of connection points: 2
#     Edge 23, Type (0, 0), BuildingBlock: AJUNOK_clean_linker_0, # of connection points: 2
#     Edge 24, Type (0, 0), BuildingBlock: AJUNOK_clean_linker_0, # of connection points: 2
#     Edge 25, Type (0, 0), BuildingBlock: AJUNOK_clean_linker_0, # of connection points: 2
#     Edge 26, Type (0, 0), BuildingBlock: AJUNOK_clean_linker_0, # of connection points: 2
#     Edge 27, Type (0, 0), BuildingBlock: AJUNOK_clean_linker_0, # of connection points: 2
#     Edge 28, Type (0, 0), BuildingBlock: AJUNOK_clean_linker_0, # of connection points: 2
#     Edge 29, Type (0, 0), BuildingBlock: AJUNOK_clean_linker_0, # of connection points: 2
#     Edge 30, Type (0, 0), BuildingBlock: AJUNOK_clean_linker_0, # of connection points: 2
#     Edge 31, Type (0, 0), BuildingBlock: AJUNOK_clean_linker_0, # of connection points: 2
#     Edge 32, Type (0, 0), BuildingBlock: AJUNOK_clean_linker_0, # of connection points: 2
#     Edge 33, Type (0, 0), BuildingBlock: AJUNOK_clean_linker_0, # of connection points: 2
#     Edge 34, Type (0, 0), BuildingBlock: AJUNOK_clean_linker_0, # of connection points: 2
#     Edge 35, Type (0, 0), BuildingBlock: AJUNOK_clean_linker_0, # of connection points: 2
#     Edge 36, Type (0, 0), BuildingBlock: AJUNOK_clean_linker_0, # of connection points: 2
#     Edge 37, Type (0, 0), BuildingBlock: AJUNOK_clean_linker_0, # of connection points: 2
#     Edge 38, Type (0, 0), BuildingBlock: AJUNOK_clean_linker_0, # of connection points: 2
#     Edge 39, Type (0, 0), BuildingBlock: AJUNOK_clean_linker_0, # of connection points: 2
#     Edge 40, Type (0, 0), BuildingBlock: AJUNOK_clean_linker_0, # of connection points: 2
#     Edge 41, Type (0, 0), BuildingBlock: AJUNOK_clean_linker_0, # of connection points: 2
#     Edge 42, Type (0, 0), BuildingBlock: AJUNOK_clean_linker_0, # of connection points: 2
#     Edge 43, Type (0, 0), BuildingBlock: AJUNOK_clean_linker_0, # of connection points: 2
#     Edge 44, Type (0, 0), BuildingBlock: AJUNOK_clean_linker_0, # of connection points: 2
#     Edge 45, Type (0, 0), BuildingBlock: AJUNOK_clean_linker_0, # of connection points: 2
#     Edge 46, Type (0, 0), BuildingBlock: AJUNOK_clean_linker_0, # of connection points: 2
#     Edge 47, Type (0, 0), BuildingBlock: AJUNOK_clean_linker_0, # of connection points: 2
# Relax obj value: 0.143
# Max RMSD: 0.156
# Mean RMSD: 0.156
data_MOF--net-tzs--node1-QUQFOY_clean_sbu_1--edge1-AJUNOK_clean_linker_0
_symmetry_space_group_name_H-M    P1
_symmetry_Int_Tables_number       1
_symmetry_cell_setting            triclinic
loop_
_symmetry_equiv_pos_as_xyz
'x, y, z'
_cell_length_a     37.021744
_cell_length_b     37.026999
_cell_length_c     33.410723
_cell_angle_alpha  89.978646
_cell_angle_beta   90.048424
_cell_angle_gamma 90.066731
loop_
_atom_site_label
_atom_site_type_symbol
_atom_site_fract_x
_atom_site_fract_y
_atom_site_fract_z
_atom_type_partial_charge
O0 O 0.15272 0.38434 0.25562 0.0
Cd1 Cd 0.13506 0.33263 0.24582 0.0
Cd2 Cd 0.10815 0.362 0.17456 0.0
O3 O 0.13214 0.40757 0.19926 0.0
O4 O 0.16262 0.30213 0.28403 0.0
O5 O 0.1661 0.29602 0.2183 0.0
C6 C 0.17615 0.28567 0.25355 0.0
C7 C 0.11083 0.35723 0.10409 0.0
C8 C 0.1484 0.41126 0.23259 0.0
C9 C 0.0552 0.32979 0.23479 0.0
O10 O 0.06045 0.34429 0.20075 0.0
O11 O 0.08165 0.32279 0.25771 0.0
O12 O 0.09068 0.38054 0.12182 0.0
O13 O 0.12996 0.33621 0.12647 0.0
O14 O 0.58003 0.15274 0.2556 0.0
Cd15 Cd 0.63208 0.13688 0.24235 0.0
Cd16 Cd 0.59696 0.11103 0.17359 0.0
O17 O 0.55459 0.13975 0.19767 0.0
O18 O 0.66185 0.16234 0.2831 0.0
O19 O 0.66763 0.17159 0.21813 0.0
C20 C 0.67769 0.17907 0.25425 0.0
C21 C 0.60097 0.10994 0.10306 0.0
C22 C 0.55254 0.15274 0.23279 0.0
C23 C 0.62961 0.05731 0.23236 0.0
O24 O 0.60907 0.06303 0.20251 0.0
O25 O 0.64425 0.08331 0.25103 0.0
O26 O 0.57599 0.09314 0.12224 0.0
O27 O 0.62406 0.12804 0.12398 0.0
O28 O 0.82153 0.58706 0.26041 0.0
Cd29 Cd 0.83688 0.63892 0.2456 0.0
Cd30 Cd 0.86021 0.60296 0.17611 0.0
O31 O 0.83102 0.56149 0.20174 0.0
O32 O 0.81239 0.66932 0.28641 0.0
O33 O 0.80177 0.67408 0.22157 0.0
C34 C 0.79504 0.68467 0.25766 0.0
C35 C 0.86079 0.60508 0.10529 0.0
C36 C 0.8199 0.55962 0.23767 0.0
C37 C 0.91582 0.63536 0.23327 0.0
O38 O 0.90891 0.61447 0.20403 0.0
O39 O 0.89064 0.65093 0.25229 0.0
O40 O 0.87705 0.58024 0.12521 0.0
O41 O 0.84363 0.62921 0.12563 0.0
O42 O 0.38923 0.81544 0.2556 0.0
Cd43 Cd 0.33713 0.83147 0.24288 0.0
Cd44 Cd 0.37195 0.85769 0.17386 0.0
O45 O 0.41448 0.829 0.19776 0.0
O46 O 0.30788 0.80595 0.28402 0.0
O47 O 0.30112 0.79695 0.21913 0.0
C48 C 0.2916 0.78934 0.25537 0.0
C49 C 0.36782 0.85889 0.10332 0.0
C50 C 0.41664 0.81569 0.23274 0.0
C51 C 0.3395 0.91112 0.23305 0.0
O52 O 0.35976 0.90555 0.20297 0.0
O53 O 0.32514 0.88503 0.25184 0.0
O54 O 0.39274 0.87579 0.12252 0.0
O55 O 0.34483 0.84068 0.12423 0.0
O56 O 0.152 0.58337 0.27598 0.0
Cd57 Cd 0.13778 0.63518 0.29209 0.0
Cd58 Cd 0.11342 0.59971 0.35925 0.0
O59 O 0.14029 0.55682 0.33355 0.0
O60 O 0.16457 0.6665 0.254 0.0
O61 O 0.17275 0.66838 0.3195 0.0
C62 C 0.18108 0.68029 0.28434 0.0
C63 C 0.11574 0.60507 0.42963 0.0
C64 C 0.15179 0.55523 0.29774 0.0
C65 C 0.05872 0.63369 0.30282 0.0
O66 O 0.06481 0.61251 0.33201 0.0
O67 O 0.0845 0.64864 0.28412 0.0
O68 O 0.09754 0.58003 0.41207 0.0
O69 O 0.13317 0.62744 0.40711 0.0
O70 O 0.38226 0.15005 0.27791 0.0
Cd71 Cd 0.33081 0.133 0.29231 0.0
Cd72 Cd 0.36669 0.10979 0.36015 0.0
O73 O 0.4085 0.13927 0.33585 0.0
O74 O 0.29987 0.1575 0.25194 0.0
O75 O 0.29499 0.16709 0.31694 0.0
C76 C 0.28428 0.17418 0.28096 0.0
C77 C 0.35995 0.11141 0.4303 0.0
C78 C 0.41 0.15135 0.30026 0.0
C79 C 0.33608 0.05385 0.30297 0.0
O80 O 0.35679 0.06078 0.33236 0.0
O81 O 0.32003 0.079 0.28434 0.0
O82 O 0.38618 0.09463 0.41326 0.0
O83 O 0.33712 0.12776 0.40737 0.0
O84 O 0.81229 0.3881 0.28029 0.0
Cd85 Cd 0.82883 0.33606 0.29011 0.0
Cd86 Cd 0.85921 0.36557 0.35901 0.0
O87 O 0.83645 0.41181 0.33455 0.0
O88 O 0.80001 0.30662 0.25195 0.0
O89 O 0.79719 0.29975 0.31759 0.0
C90 C 0.78649 0.29004 0.28237 0.0
C91 C 0.85674 0.36028 0.42939 0.0
C92 C 0.81889 0.41541 0.30202 0.0
C93 C 0.90917 0.33172 0.29737 0.0
O94 O 0.90573 0.34648 0.33155 0.0
O95 O 0.88157 0.32495 0.27612 0.0
O96 O 0.87776 0.38295 0.41177 0.0
O97 O 0.83669 0.34016 0.40693 0.0
O98 O 0.58705 0.81809 0.278 0.0
Cd99 Cd 0.63822 0.8355 0.29303 0.0
Cd100 Cd 0.60242 0.8589 0.35993 0.0
O101 O 0.5606 0.82939 0.33562 0.0
O102 O 0.67036 0.80957 0.25515 0.0
O103 O 0.67319 0.8026 0.32078 0.0
C104 C 0.68503 0.79412 0.28565 0.0
C105 C 0.60909 0.85732 0.43009 0.0
C106 C 0.55922 0.81701 0.30016 0.0
C107 C 0.63302 0.91461 0.30249 0.0
O108 O 0.61241 0.90785 0.33197 0.0
O109 O 0.64899 0.88935 0.28401 0.0
O110 O 0.58292 0.87415 0.41294 0.0
O111 O 0.63193 0.84093 0.40726 0.0
O112 O 0.89074 0.65784 0.78102 0.0
Cd113 Cd 0.839 0.64126 0.79078 0.0
Cd114 Cd 0.86901 0.60933 0.85938 0.0
O115 O 0.91497 0.63201 0.83408 0.0
O116 O 0.81128 0.66854 0.75009 0.0
O117 O 0.80152 0.67342 0.81509 0.0
C118 C 0.79325 0.68275 0.77895 0.0
C119 C 0.8661 0.60895 0.93009 0.0
C120 C 0.91825 0.65022 0.80194 0.0
C121 C 0.83422 0.56106 0.79669 0.0
O122 O 0.84873 0.56366 0.8311 0.0
O123 O 0.82802 0.58901 0.77594 0.0
O124 O 0.888 0.58869 0.91047 0.0
O125 O 0.84556 0.63014 0.90951 0.0
O126 O 0.3144 0.88209 0.77767 0.0
Cd127 Cd 0.33297 0.83121 0.78853 0.0
Cd128 Cd 0.36254 0.86321 0.85752 0.0
O129 O 0.33752 0.90752 0.83157 0.0
O130 O 0.3072 0.80162 0.74824 0.0
O131 O 0.30187 0.7931 0.81344 0.0
C132 C 0.29319 0.78379 0.77742 0.0
C133 C 0.36264 0.86198 0.92826 0.0
C134 C 0.31992 0.90988 0.79893 0.0
C135 C 0.41323 0.83019 0.7961 0.0
O136 O 0.40947 0.84518 0.8301 0.0
O137 O 0.38588 0.82221 0.77506 0.0
O138 O 0.38183 0.88449 0.9081 0.0
O139 O 0.3429 0.83964 0.90818 0.0
O140 O 0.07786 0.30924 0.78015 0.0
Cd141 Cd 0.12958 0.32572 0.79028 0.0
Cd142 Cd 0.10166 0.35631 0.8587 0.0
O143 O 0.05502 0.33395 0.83457 0.0
O144 O 0.15904 0.2967 0.75294 0.0
O145 O 0.16576 0.29503 0.81875 0.0
C146 C 0.1757 0.28401 0.78375 0.0
C147 C 0.10709 0.35401 0.92908 0.0
C148 C 0.05094 0.31625 0.80222 0.0
C149 C 0.13504 0.40553 0.79614 0.0
O150 O 0.12116 0.40256 0.83082 0.0
O151 O 0.14081 0.37777 0.77496 0.0
O152 O 0.08457 0.37512 0.9114 0.0
O153 O 0.127 0.33378 0.90668 0.0
O154 O 0.65447 0.08437 0.77725 0.0
Cd155 Cd 0.63596 0.13523 0.78811 0.0
Cd156 Cd 0.60707 0.1045 0.85733 0.0
O157 O 0.63246 0.05999 0.83233 0.0
O158 O 0.66325 0.16614 0.7505 0.0
O159 O 0.66583 0.17228 0.81633 0.0
C160 C 0.67598 0.18288 0.78123 0.0
C161 C 0.60658 0.10625 0.92805 0.0
C162 C 0.64968 0.0571 0.79956 0.0
C163 C 0.55605 0.13668 0.79528 0.0
O164 O 0.56006 0.12208 0.82949 0.0
O165 O 0.58326 0.14443 0.77397 0.0
O166 O 0.58759 0.08353 0.90793 0.0
O167 O 0.62634 0.12853 0.90792 0.0
O168 O 0.87933 0.31945 0.75824 0.0
Cd169 Cd 0.82864 0.33685 0.7443 0.0
Cd170 Cd 0.86228 0.36153 0.6749 0.0
O171 O 0.90589 0.33636 0.70227 0.0
O172 O 0.798 0.31214 0.78437 0.0
O173 O 0.79249 0.30369 0.71914 0.0
C174 C 0.78208 0.29609 0.75509 0.0
C175 C 0.8588 0.35758 0.60445 0.0
C176 C 0.90743 0.32188 0.73679 0.0
C177 C 0.82887 0.41625 0.73196 0.0
O178 O 0.84589 0.41027 0.69957 0.0
O179 O 0.81872 0.39026 0.75397 0.0
O180 O 0.88272 0.37701 0.62229 0.0
O181 O 0.83654 0.33978 0.62672 0.0
O182 O 0.65428 0.88554 0.75769 0.0
Cd183 Cd 0.63807 0.83432 0.74447 0.0
Cd184 Cd 0.61206 0.86566 0.67523 0.0
O185 O 0.63574 0.91062 0.70153 0.0
O186 O 0.66551 0.80369 0.78218 0.0
O187 O 0.67091 0.79998 0.71633 0.0
C188 C 0.68054 0.78899 0.75147 0.0
C189 C 0.6152 0.86174 0.60484 0.0
C190 C 0.65062 0.91322 0.73576 0.0
C191 C 0.55882 0.83105 0.73327 0.0
O192 O 0.56413 0.84751 0.70038 0.0
O193 O 0.58519 0.8226 0.7556 0.0
O194 O 0.59505 0.88496 0.62273 0.0
O195 O 0.63427 0.84051 0.62703 0.0
O196 O 0.08908 0.64719 0.75859 0.0
Cd197 Cd 0.13981 0.62997 0.74471 0.0
Cd198 Cd 0.10745 0.60592 0.67501 0.0
O199 O 0.06366 0.63155 0.70143 0.0
O200 O 0.17161 0.65638 0.78219 0.0
O201 O 0.17473 0.66208 0.71631 0.0
C202 C 0.18638 0.67121 0.75136 0.0
C203 C 0.11165 0.60936 0.60457 0.0
C204 C 0.06153 0.64558 0.73612 0.0
C205 C 0.14007 0.5509 0.73267 0.0
O206 O 0.12337 0.5571 0.70009 0.0
O207 O 0.15006 0.57675 0.75496 0.0
O208 O 0.0875 0.59012 0.62225 0.0
O209 O 0.13369 0.62731 0.62698 0.0
O210 O 0.31493 0.08093 0.75862 0.0
Cd211 Cd 0.33069 0.13263 0.74693 0.0
Cd212 Cd 0.35598 0.10253 0.67546 0.0
O213 O 0.33206 0.05739 0.70105 0.0
O214 O 0.30465 0.16181 0.78721 0.0
O215 O 0.29688 0.16807 0.72191 0.0
C216 C 0.28864 0.17778 0.75793 0.0
C217 C 0.35322 0.10667 0.60501 0.0
C218 C 0.31777 0.05397 0.73547 0.0
C219 C 0.40984 0.13608 0.73388 0.0
O220 O 0.40409 0.12016 0.70074 0.0
O221 O 0.3838 0.14415 0.75678 0.0
O222 O 0.37316 0.08332 0.623 0.0
O223 O 0.33414 0.12793 0.62712 0.0
C224 C 0.24119 0.22141 0.30493 0.0
C225 C 0.25571 0.20135 0.27307 0.0
C226 C 0.2153 0.24827 0.29823 0.0
C227 C 0.20281 0.25626 0.25939 0.0
H228 H 0.25015 0.21668 0.33535 0.0
H229 H 0.20531 0.26314 0.32385 0.0
S230 S 0.23093 0.21044 0.16567 0.0
N231 N 0.25474 0.19052 0.20113 0.0
N232 N 0.20612 0.24105 0.18867 0.0
C233 C 0.21663 0.23603 0.22726 0.0
C234 C 0.24303 0.20858 0.23407 0.0
C235 C 0.74712 0.25301 0.2375 0.0
C236 C 0.7593 0.26106 0.27644 0.0
C237 C 0.72106 0.22629 0.23064 0.0
C238 C 0.70603 0.20646 0.26242 0.0
H239 H 0.75758 0.26762 0.2119 0.0
H240 H 0.71246 0.22141 0.20012 0.0
S241 S 0.72949 0.21613 0.37013 0.0
N242 N 0.7549 0.24639 0.34725 0.0
N243 N 0.70594 0.19615 0.33447 0.0
C244 C 0.71825 0.2139 0.30156 0.0
C245 C 0.74484 0.24118 0.30854 0.0
C246 C 0.74993 0.73009 0.23395 0.0
C247 C 0.76791 0.71316 0.26591 0.0
C248 C 0.72357 0.75644 0.24076 0.0
C249 C 0.71395 0.76694 0.27984 0.0
H250 H 0.75607 0.72285 0.20329 0.0
H251 H 0.7104 0.76839 0.215 0.0
S252 S 0.75352 0.73157 0.37413 0.0
N253 N 0.77468 0.70933 0.33836 0.0
N254 N 0.72505 0.7588 0.35104 0.0
C255 C 0.73195 0.75054 0.31215 0.0
C256 C 0.75892 0.7237 0.30522 0.0
C257 C 0.24507 0.74508 0.23208 0.0
C258 C 0.26318 0.76213 0.2639 0.0
C259 C 0.21851 0.71891 0.23914 0.0
C260 C 0.20896 0.70857 0.2783 0.0
H261 H 0.25147 0.75188 0.20136 0.0
H262 H 0.20554 0.70657 0.21348 0.0
S263 S 0.2479 0.74529 0.3723 0.0
N264 N 0.26938 0.76702 0.33633 0.0
N265 N 0.2195 0.71778 0.34945 0.0
C266 C 0.22667 0.72551 0.31048 0.0
C267 C 0.25374 0.75227 0.30331 0.0
C268 C 0.7184 0.75056 0.79612 0.0
C269 C 0.70856 0.76099 0.75707 0.0
C270 C 0.7456 0.72512 0.80283 0.0
C271 C 0.76412 0.70905 0.77078 0.0
H272 H 0.70521 0.76231 0.82194 0.0
H273 H 0.75227 0.71824 0.83347 0.0
S274 S 0.74799 0.7262 0.66256 0.0
N275 N 0.71898 0.7527 0.68578 0.0
N276 N 0.77016 0.70481 0.69827 0.0
C277 C 0.75428 0.71886 0.73147 0.0
C278 C 0.7265 0.74483 0.72465 0.0
C279 C 0.22424 0.71004 0.79563 0.0
C280 C 0.21499 0.69869 0.75673 0.0
C281 C 0.24989 0.73717 0.802 0.0
C282 C 0.26738 0.75407 0.76972 0.0
H283 H 0.21121 0.69828 0.82158 0.0
H284 H 0.25563 0.74523 0.83251 0.0
S285 S 0.2545 0.73281 0.66189 0.0
N286 N 0.22647 0.70541 0.68542 0.0
N287 N 0.2748 0.75641 0.69727 0.0
C288 C 0.25903 0.74244 0.73061 0.0
C289 C 0.23283 0.71476 0.72414 0.0
C290 C 0.21329 0.24481 0.73978 0.0
C291 C 0.20518 0.25754 0.77845 0.0
C292 C 0.24061 0.21944 0.73344 0.0
C293 C 0.26095 0.2057 0.76551 0.0
H294 H 0.19825 0.25428 0.71401 0.0
H295 H 0.24547 0.21028 0.70313 0.0
S296 S 0.25164 0.23137 0.87256 0.0
N297 N 0.22049 0.25531 0.84924 0.0
N298 N 0.27194 0.20757 0.83742 0.0
C299 C 0.25355 0.21856 0.80435 0.0
C300 C 0.22565 0.24446 0.8108 0.0
C301 C 0.714 0.22153 0.73698 0.0
C302 C 0.70188 0.21292 0.77576 0.0
C303 C 0.73937 0.24891 0.73056 0.0
C304 C 0.75368 0.26881 0.76267 0.0
H305 H 0.7042 0.20674 0.71119 0.0
H306 H 0.74818 0.25406 0.70018 0.0
S307 S 0.72936 0.25838 0.87 0.0
N308 N 0.70502 0.2275 0.84668 0.0
N309 N 0.75272 0.27907 0.83473 0.0
C310 C 0.74122 0.26108 0.8016 0.0
C311 C 0.71533 0.23311 0.80813 0.0
C312 C 0.08753 0.37745 0.99568 0.0
C313 C 0.10941 0.35362 0.97361 0.0
C314 C 0.08844 0.37823 0.03753 0.0
C315 C 0.11123 0.35518 0.05955 0.0
H316 H 0.06935 0.39588 0.98058 0.0
H317 H 0.07089 0.3972 0.05267 0.0
S318 S 0.17416 0.28752 1.0165 0.0
N319 N 0.15479 0.30623 0.97707 0.0
N320 N 0.15646 0.30766 0.05598 0.0
C321 C 0.13337 0.33112 0.03802 0.0
C322 C 0.13248 0.33035 0.99509 0.0
C323 C 0.62675 0.1309 0.99481 0.0
C324 C 0.60533 0.10657 0.97265 0.0
C325 C 0.62554 0.13167 0.03692 0.0
C326 C 0.60271 0.10829 0.05854 0.0
H327 H 0.64456 0.14961 0.97957 0.0
H328 H 0.64237 0.15101 0.05257 0.0
S329 S 0.54196 0.03858 1.015 0.0
N330 N 0.56115 0.05787 0.97592 0.0
N331 N 0.55885 0.0594 0.05443 0.0
C332 C 0.58141 0.08362 0.03674 0.0
C333 C 0.58273 0.08274 0.99402 0.0
C334 C 0.84399 0.6326 0.99653 0.0
C335 C 0.86476 0.60757 0.97469 0.0
C336 C 0.8428 0.63174 0.03865 0.0
C337 C 0.86219 0.60569 0.06066 0.0
H338 H 0.82863 0.65319 0.98103 0.0
H339 H 0.82652 0.65165 0.05402 0.0
S340 S 0.92032 0.53354 0.01786 0.0
N341 N 0.90492 0.55565 0.97855 0.0
N342 N 0.90265 0.55398 0.05706 0.0
C343 C 0.88291 0.58038 0.03911 0.0
C344 C 0.88421 0.58134 0.99638 0.0
C345 C 0.34347 0.83687 0.03717 0.0
C346 C 0.36608 0.86049 0.0588 0.0
C347 C 0.34237 0.8375 0.99505 0.0
C348 C 0.36368 0.86191 0.97288 0.0
H349 H 0.32677 0.81744 0.05282 0.0
H350 H 0.32476 0.81859 0.97981 0.0
S351 S 0.42634 0.93058 1.01525 0.0
N352 N 0.40952 0.90974 0.05469 0.0
N353 N 0.40742 0.91101 0.97615 0.0
C354 C 0.38601 0.88601 0.99426 0.0
C355 C 0.38721 0.88527 0.03699 0.0
C356 C 0.09141 0.58623 0.53803 0.0
C357 C 0.11374 0.60977 0.56003 0.0
C358 C 0.09248 0.58512 0.49619 0.0
C359 C 0.11579 0.60762 0.47413 0.0
H360 H 0.07289 0.56816 0.55318 0.0
H361 H 0.07464 0.56634 0.48107 0.0
S362 S 0.1798 0.67456 0.517 0.0
N363 N 0.15998 0.65642 0.55647 0.0
N364 N 0.16183 0.65448 0.47757 0.0
C365 C 0.13823 0.63154 0.49559 0.0
C366 C 0.13728 0.63255 0.53851 0.0
C367 C 0.37801 0.08748 0.53893 0.0
C368 C 0.35333 0.10881 0.5605 0.0
C369 C 0.37971 0.0887 0.49714 0.0
C370 C 0.35666 0.11115 0.47471 0.0
H371 H 0.39655 0.06967 0.55441 0.0
H372 H 0.39937 0.07167 0.48236 0.0
S373 S 0.28674 0.17233 0.51635 0.0
N374 N 0.30502 0.15315 0.55614 0.0
N375 N 0.30806 0.15527 0.47729 0.0
C376 C 0.33159 0.13256 0.49572 0.0
C377 C 0.32999 0.13146 0.5386 0.0
C378 C 0.88096 0.37896 0.49603 0.0
C379 C 0.85626 0.35801 0.47392 0.0
C380 C 0.88149 0.37826 0.5379 0.0
C381 C 0.85728 0.35666 0.55988 0.0
H382 H 0.90025 0.39625 0.48095 0.0
H383 H 0.90112 0.39511 0.55308 0.0
S384 S 0.78715 0.29634 0.51669 0.0
N385 N 0.80692 0.31464 0.47729 0.0
N386 N 0.80784 0.31342 0.55622 0.0
C387 C 0.83243 0.33536 0.5383 0.0
C388 C 0.83194 0.336 0.49535 0.0
C389 C 0.59073 0.88111 0.53862 0.0
C390 C 0.61529 0.85972 0.56032 0.0
C391 C 0.58919 0.87998 0.49682 0.0
C392 C 0.61228 0.85753 0.47451 0.0
H393 H 0.57214 0.89892 0.554 0.0
H394 H 0.5696 0.89706 0.48194 0.0
S395 S 0.68197 0.79619 0.51651 0.0
N396 N 0.66356 0.81532 0.55621 0.0
N397 N 0.66082 0.81335 0.47734 0.0
C398 C 0.63725 0.83607 0.49565 0.0
C399 C 0.6387 0.83708 0.53854 0.0
C400 C 0.16196 0.4888 0.30473 0.0
C401 C 0.15958 0.51936 0.27982 0.0
C402 C 0.16117 0.45382 0.28885 0.0
C403 C 0.15755 0.44794 0.2474 0.0
H404 H 0.16256 0.4918 0.33698 0.0
H405 H 0.16104 0.43132 0.30957 0.0
S406 S 0.15696 0.51858 0.16859 0.0
N407 N 0.15867 0.54132 0.21104 0.0
N408 N 0.15674 0.47551 0.18135 0.0
C409 C 0.15828 0.47815 0.22189 0.0
C410 C 0.15947 0.51386 0.23805 0.0
C411 C 0.51137 0.16122 0.29119 0.0
C412 C 0.51662 0.1621 0.24947 0.0
C413 C 0.47659 0.16075 0.30764 0.0
C414 C 0.44567 0.1614 0.28309 0.0
H415 H 0.53412 0.15821 0.3113 0.0
H416 H 0.47408 0.1576 0.33976 0.0
S417 S 0.44504 0.17248 0.17251 0.0
N418 N 0.48825 0.1699 0.18438 0.0
N419 N 0.42285 0.1694 0.21521 0.0
C420 C 0.45064 0.16635 0.2416 0.0
C421 C 0.48612 0.16655 0.22483 0.0
C422 C 0.81668 0.51755 0.29595 0.0
C423 C 0.81085 0.52385 0.2549 0.0
C424 C 0.81677 0.48243 0.31157 0.0
C425 C 0.81061 0.45224 0.28687 0.0
H426 H 0.82373 0.53961 0.31577 0.0
H427 H 0.82359 0.47889 0.34287 0.0
S428 S 0.78668 0.45503 0.17879 0.0
N429 N 0.79363 0.49766 0.19099 0.0
N430 N 0.79318 0.43166 0.22026 0.0
C431 C 0.80123 0.45853 0.24652 0.0
C432 C 0.80156 0.49432 0.23056 0.0
C433 C 0.49272 0.80712 0.30746 0.0
C434 C 0.5236 0.80687 0.2829 0.0
C435 C 0.45793 0.80667 0.29101 0.0
C436 C 0.45261 0.80624 0.24928 0.0
H437 H 0.49529 0.80994 0.33962 0.0
H438 H 0.4352 0.80936 0.31116 0.0
S439 S 0.5241 0.79702 0.17219 0.0
N440 N 0.54635 0.79973 0.21492 0.0
N441 N 0.4809 0.79926 0.18409 0.0
C442 C 0.48308 0.80216 0.22458 0.0
C443 C 0.51859 0.80234 0.24135 0.0
C444 C 0.82369 0.49478 0.80417 0.0
C445 C 0.82773 0.52497 0.77909 0.0
C446 C 0.82192 0.45982 0.78835 0.0
C447 C 0.82485 0.45365 0.74687 0.0
H448 H 0.82275 0.49808 0.83637 0.0
H449 H 0.82001 0.43738 0.80906 0.0
S450 S 0.83318 0.5237 0.66803 0.0
N451 N 0.83229 0.54662 0.71039 0.0
N452 N 0.82961 0.48078 0.68083 0.0
C453 C 0.82743 0.48368 0.72131 0.0
C454 C 0.82867 0.51936 0.73737 0.0
C455 C 0.51513 0.82363 0.7895 0.0
C456 C 0.52156 0.82549 0.74801 0.0
C457 C 0.47994 0.82385 0.80482 0.0
C458 C 0.44984 0.82525 0.77922 0.0
H459 H 0.53744 0.82374 0.81051 0.0
H460 H 0.47635 0.82381 0.837 0.0
S461 S 0.45204 0.82692 0.66802 0.0
N462 N 0.49495 0.82635 0.68149 0.0
N463 N 0.42874 0.82615 0.71011 0.0
C464 C 0.45586 0.8251 0.73757 0.0
C465 C 0.49172 0.82542 0.722 0.0
C466 C 0.14534 0.4718 0.80421 0.0
C467 C 0.14133 0.4418 0.77885 0.0
C468 C 0.14701 0.50689 0.78871 0.0
C469 C 0.14404 0.51338 0.74729 0.0
H470 H 0.14635 0.46825 0.83638 0.0
H471 H 0.14893 0.52917 0.80962 0.0
S472 S 0.1358 0.44396 0.6678 0.0
N473 N 0.13675 0.42071 0.70995 0.0
N474 N 0.1393 0.48677 0.68099 0.0
C475 C 0.1415 0.48356 0.72145 0.0
C476 C 0.14033 0.44775 0.73719 0.0
C477 C 0.45414 0.14343 0.78959 0.0
C478 C 0.44729 0.14146 0.74818 0.0
C479 C 0.48946 0.14316 0.80457 0.0
C480 C 0.51932 0.14157 0.77869 0.0
H481 H 0.43205 0.1435 0.81085 0.0
H482 H 0.49335 0.14334 0.83671 0.0
S483 S 0.51606 0.13951 0.66753 0.0
N484 N 0.47329 0.14028 0.6814 0.0
N485 N 0.53976 0.14034 0.70939 0.0
C486 C 0.51291 0.14157 0.7371 0.0
C487 C 0.47689 0.14133 0.72188 0.0
C488 C 0.65866 0.01479 0.74253 0.0
C489 C 0.65875 0.02084 0.78413 0.0
C490 C 0.65854 0.97973 0.72692 0.0
C491 C 0.65905 0.94942 0.75228 0.0
H492 H 0.65606 0.03717 0.72183 0.0
H493 H 0.65616 0.97644 0.69481 0.0
S494 S 0.66681 0.95112 0.86325 0.0
N495 N 0.66453 -0.00595 0.85017 0.0
N496 N 0.66506 0.92801 0.82104 0.0
C497 C 0.66279 0.95522 0.79382 0.0
C498 C 0.66239 -0.00902 0.8097 0.0
C499 C -0.01478 0.6529 0.81049 0.0
C500 C 0.95481 0.65764 0.7858 0.0
C501 C 0.02008 0.65188 0.79437 0.0
C502 C 0.02582 0.65499 0.75286 0.0
H503 H 0.98201 0.64814 0.84229 0.0
H504 H 0.04239 0.64616 0.81439 0.0
S505 S 0.95618 0.67411 0.67599 0.0
N506 N 0.93335 0.67056 0.71823 0.0
N507 N -0.00105 0.66784 0.68808 0.0
C508 C -0.00393 0.66265 0.72823 0.0
C509 C 0.96055 0.66425 0.74468 0.0
C510 C 0.31167 0.01137 0.79277 0.0
C511 C 0.30971 0.01753 0.75124 0.0
C512 C 0.31236 0.97629 0.8083 0.0
C513 C 0.3106 0.94603 0.78297 0.0
H514 H 0.3152 0.03368 0.81338 0.0
H515 H 0.31619 0.97292 0.84024 0.0
S516 S 0.29791 0.94791 0.67258 0.0
N517 N 0.30087 -0.00918 0.68555 0.0
N518 N 0.3015 0.92474 0.71462 0.0
C519 C 0.30502 0.95191 0.7417 0.0
C520 C 0.30482 -0.01229 0.72585 0.0
C521 C 0.00837 0.30831 0.74514 0.0
C522 C 0.01417 0.30924 0.78679 0.0
C523 C 0.97348 0.31009 0.72912 0.0
C524 C 0.94303 0.31228 0.75411 0.0
H525 H 0.03098 0.30872 0.72459 0.0
H526 H 0.97052 0.31149 0.69689 0.0
S527 S 0.94354 0.30868 0.86535 0.0
N528 N -0.01338 0.30771 0.85271 0.0
N529 N 0.92087 0.31031 0.82283 0.0
C530 C 0.94834 0.30979 0.79586 0.0
C531 C -0.01604 0.30851 0.81214 0.0
C532 C 0.36841 0.00059 0.27637 0.0
C533 C 0.33549 0.01711 0.28631 0.0
C534 C 0.3692 0.9667 0.25791 0.0
C535 C 0.33712 0.94773 0.24987 0.0
H536 H 0.39375 0.01433 0.28214 0.0
H537 H 0.39515 0.95489 0.25064 0.0
S538 S 0.24402 0.979 0.27076 0.0
N539 N 0.27005 0.01248 0.28636 0.0
N540 N 0.2716 0.94752 0.25362 0.0
C541 C 0.30402 0.96365 0.26022 0.0
C542 C 0.30318 -0.00124 0.27788 0.0
C543 C 0.97599 0.32556 0.30644 0.0
C544 C 0.94586 0.32571 0.28076 0.0
C545 C 0.01125 0.3248 0.29126 0.0
C546 C 0.01784 0.32476 0.24976 0.0
H547 H 0.97238 0.32705 0.33857 0.0
H548 H 0.0335 0.326 0.31232 0.0
S549 S 0.94846 0.32161 0.16963 0.0
N550 N 0.92503 0.3229 0.21162 0.0
N551 N -0.00867 0.32203 0.18325 0.0
C552 C -0.01199 0.3232 0.22374 0.0
C553 C 0.95205 0.32348 0.23919 0.0
C554 C 0.60071 0.96766 0.27528 0.0
C555 C 0.63362 0.95127 0.2856 0.0
C556 C 0.59994 0.00156 0.25679 0.0
C557 C 0.632 0.02065 0.2491 0.0
H558 H 0.57538 0.95385 0.28082 0.0
H559 H 0.57399 0.01328 0.24926 0.0
S560 S 0.72506 -0.01033 0.27097 0.0
N561 N 0.69903 0.95611 0.28633 0.0
N562 N 0.6975 0.02107 0.25351 0.0
C563 C 0.66509 0.00482 0.25978 0.0
C564 C 0.66592 0.96971 0.27748 0.0
C565 C 0.00466 0.6034 0.27528 0.0
C566 C 0.02208 0.63567 0.28607 0.0
C567 C 0.97078 0.60387 0.25677 0.0
C568 C 0.95273 0.63657 0.24949 0.0
H569 H 0.01764 0.5776 0.2805 0.0
H570 H 0.9582 0.57836 0.249 0.0
S571 S -0.01326 0.72838 0.27252 0.0
N572 N 0.01943 0.70118 0.28757 0.0
N573 N 0.95445 0.702 0.25471 0.0
C574 C 0.96963 0.66904 0.26057 0.0
C575 C 0.00474 0.66861 0.2783 0.0
loop_
_geom_bond_atom_site_label_1
_geom_bond_atom_site_label_2
_geom_bond_distance
_geom_bond_site_symmetry_2
_ccdc_geom_bond_type
O0 Cd1 2.223 . S
O0 C8 1.315 . S
Cd1 O0 2.223 . S
Cd1 O4 2.297 . S
Cd1 O5 2.439 . S
Cd1 O11 2.240 . S
Cd2 O3 2.240 . S
Cd2 O10 2.223 . S
Cd2 O12 2.297 . S
Cd2 O13 2.439 . S
O3 Cd2 2.240 . S
O3 C8 1.279 . S
O4 Cd1 2.297 . S
O4 C6 1.247 . S
O5 Cd1 2.439 . S
O5 C6 1.208 . S
C6 O4 1.247 . S
C6 O5 1.208 . S
C7 O12 1.247 . S
C7 O13 1.208 . S
C8 O0 1.315 . S
C8 O3 1.279 . S
C9 O10 1.315 . S
C9 O11 1.279 . S
O10 Cd2 2.223 . S
O10 C9 1.315 . S
O11 Cd1 2.240 . S
O11 C9 1.279 . S
O12 Cd2 2.297 . S
O12 C7 1.247 . S
O13 Cd2 2.439 . S
O13 C7 1.208 . S
O14 Cd15 2.223 . S
O14 C22 1.315 . S
Cd15 O14 2.223 . S
Cd15 O18 2.297 . S
Cd15 O19 2.439 . S
Cd15 O25 2.240 . S
Cd16 O17 2.240 . S
Cd16 O24 2.223 . S
Cd16 O26 2.297 . S
Cd16 O27 2.439 . S
O17 Cd16 2.240 . S
O17 C22 1.279 . S
O18 Cd15 2.297 . S
O18 C20 1.247 . S
O19 Cd15 2.439 . S
O19 C20 1.208 . S
C20 O18 1.247 . S
C20 O19 1.208 . S
C21 O26 1.247 . S
C21 O27 1.208 . S
C22 O14 1.315 . S
C22 O17 1.279 . S
C23 O24 1.315 . S
C23 O25 1.279 . S
O24 Cd16 2.223 . S
O24 C23 1.315 . S
O25 Cd15 2.240 . S
O25 C23 1.279 . S
O26 Cd16 2.297 . S
O26 C21 1.247 . S
O27 Cd16 2.439 . S
O27 C21 1.208 . S
O28 Cd29 2.223 . S
O28 C36 1.315 . S
Cd29 O28 2.223 . S
Cd29 O32 2.297 . S
Cd29 O33 2.439 . S
Cd29 O39 2.240 . S
Cd30 O31 2.240 . S
Cd30 O38 2.223 . S
Cd30 O40 2.297 . S
Cd30 O41 2.439 . S
O31 Cd30 2.240 . S
O31 C36 1.279 . S
O32 Cd29 2.297 . S
O32 C34 1.247 . S
O33 Cd29 2.439 . S
O33 C34 1.208 . S
C34 O32 1.247 . S
C34 O33 1.208 . S
C35 O40 1.247 . S
C35 O41 1.208 . S
C36 O28 1.315 . S
C36 O31 1.279 . S
C37 O38 1.315 . S
C37 O39 1.279 . S
O38 Cd30 2.223 . S
O38 C37 1.315 . S
O39 Cd29 2.240 . S
O39 C37 1.279 . S
O40 Cd30 2.297 . S
O40 C35 1.247 . S
O41 Cd30 2.439 . S
O41 C35 1.208 . S
O42 Cd43 2.223 . S
O42 C50 1.315 . S
Cd43 O42 2.223 . S
Cd43 O46 2.297 . S
Cd43 O47 2.439 . S
Cd43 O53 2.240 . S
Cd44 O45 2.240 . S
Cd44 O52 2.223 . S
Cd44 O54 2.297 . S
Cd44 O55 2.439 . S
O45 Cd44 2.240 . S
O45 C50 1.279 . S
O46 Cd43 2.297 . S
O46 C48 1.247 . S
O47 Cd43 2.439 . S
O47 C48 1.208 . S
C48 O46 1.247 . S
C48 O47 1.208 . S
C49 O54 1.247 . S
C49 O55 1.208 . S
C50 O42 1.315 . S
C50 O45 1.279 . S
C51 O52 1.315 . S
C51 O53 1.279 . S
O52 Cd44 2.223 . S
O52 C51 1.315 . S
O53 Cd43 2.240 . S
O53 C51 1.279 . S
O54 Cd44 2.297 . S
O54 C49 1.247 . S
O55 Cd44 2.439 . S
O55 C49 1.208 . S
O56 Cd57 2.223 . S
O56 C64 1.315 . S
Cd57 O56 2.223 . S
Cd57 O60 2.297 . S
Cd57 O61 2.439 . S
Cd57 O67 2.240 . S
Cd58 O59 2.240 . S
Cd58 O66 2.223 . S
Cd58 O68 2.297 . S
Cd58 O69 2.439 . S
O59 Cd58 2.240 . S
O59 C64 1.279 . S
O60 Cd57 2.297 . S
O60 C62 1.247 . S
O61 Cd57 2.439 . S
O61 C62 1.208 . S
C62 O60 1.247 . S
C62 O61 1.208 . S
C63 O68 1.247 . S
C63 O69 1.208 . S
C64 O56 1.315 . S
C64 O59 1.279 . S
C65 O66 1.315 . S
C65 O67 1.279 . S
O66 Cd58 2.223 . S
O66 C65 1.315 . S
O67 Cd57 2.240 . S
O67 C65 1.279 . S
O68 Cd58 2.297 . S
O68 C63 1.247 . S
O69 Cd58 2.439 . S
O69 C63 1.208 . S
O70 Cd71 2.223 . S
O70 C78 1.315 . S
Cd71 O70 2.223 . S
Cd71 O74 2.297 . S
Cd71 O75 2.439 . S
Cd71 O81 2.240 . S
Cd72 O73 2.240 . S
Cd72 O80 2.223 . S
Cd72 O82 2.297 . S
Cd72 O83 2.439 . S
O73 Cd72 2.240 . S
O73 C78 1.279 . S
O74 Cd71 2.297 . S
O74 C76 1.247 . S
O75 Cd71 2.439 . S
O75 C76 1.208 . S
C76 O74 1.247 . S
C76 O75 1.208 . S
C77 O82 1.247 . S
C77 O83 1.208 . S
C78 O70 1.315 . S
C78 O73 1.279 . S
C79 O80 1.315 . S
C79 O81 1.279 . S
O80 Cd72 2.223 . S
O80 C79 1.315 . S
O81 Cd71 2.240 . S
O81 C79 1.279 . S
O82 Cd72 2.297 . S
O82 C77 1.247 . S
O83 Cd72 2.439 . S
O83 C77 1.208 . S
O84 Cd85 2.223 . S
O84 C92 1.315 . S
Cd85 O84 2.223 . S
Cd85 O88 2.297 . S
Cd85 O89 2.439 . S
Cd85 O95 2.240 . S
Cd86 O87 2.240 . S
Cd86 O94 2.223 . S
Cd86 O96 2.297 . S
Cd86 O97 2.439 . S
O87 Cd86 2.240 . S
O87 C92 1.279 . S
O88 Cd85 2.297 . S
O88 C90 1.247 . S
O89 Cd85 2.439 . S
O89 C90 1.208 . S
C90 O88 1.247 . S
C90 O89 1.208 . S
C91 O96 1.247 . S
C91 O97 1.208 . S
C92 O84 1.315 . S
C92 O87 1.279 . S
C93 O94 1.315 . S
C93 O95 1.279 . S
O94 Cd86 2.223 . S
O94 C93 1.315 . S
O95 Cd85 2.240 . S
O95 C93 1.279 . S
O96 Cd86 2.297 . S
O96 C91 1.247 . S
O97 Cd86 2.439 . S
O97 C91 1.208 . S
O98 Cd99 2.223 . S
O98 C106 1.315 . S
Cd99 O98 2.223 . S
Cd99 O102 2.297 . S
Cd99 O103 2.439 . S
Cd99 O109 2.240 . S
Cd100 O101 2.240 . S
Cd100 O108 2.223 . S
Cd100 O110 2.297 . S
Cd100 O111 2.439 . S
O101 Cd100 2.240 . S
O101 C106 1.279 . S
O102 Cd99 2.297 . S
O102 C104 1.247 . S
O103 Cd99 2.439 . S
O103 C104 1.208 . S
C104 O102 1.247 . S
C104 O103 1.208 . S
C105 O110 1.247 . S
C105 O111 1.208 . S
C106 O98 1.315 . S
C106 O101 1.279 . S
C107 O108 1.315 . S
C107 O109 1.279 . S
O108 Cd100 2.223 . S
O108 C107 1.315 . S
O109 Cd99 2.240 . S
O109 C107 1.279 . S
O110 Cd100 2.297 . S
O110 C105 1.247 . S
O111 Cd100 2.439 . S
O111 C105 1.208 . S
O112 Cd113 2.223 . S
O112 C120 1.315 . S
Cd113 O112 2.223 . S
Cd113 O116 2.297 . S
Cd113 O117 2.439 . S
Cd113 O123 2.240 . S
Cd114 O115 2.240 . S
Cd114 O122 2.223 . S
Cd114 O124 2.297 . S
Cd114 O125 2.439 . S
O115 Cd114 2.240 . S
O115 C120 1.279 . S
O116 Cd113 2.297 . S
O116 C118 1.247 . S
O117 Cd113 2.439 . S
O117 C118 1.208 . S
C118 O116 1.247 . S
C118 O117 1.208 . S
C119 O124 1.247 . S
C119 O125 1.208 . S
C120 O112 1.315 . S
C120 O115 1.279 . S
C121 O122 1.315 . S
C121 O123 1.279 . S
O122 Cd114 2.223 . S
O122 C121 1.315 . S
O123 Cd113 2.240 . S
O123 C121 1.279 . S
O124 Cd114 2.297 . S
O124 C119 1.247 . S
O125 Cd114 2.439 . S
O125 C119 1.208 . S
O126 Cd127 2.223 . S
O126 C134 1.315 . S
Cd127 O126 2.223 . S
Cd127 O130 2.297 . S
Cd127 O131 2.439 . S
Cd127 O137 2.240 . S
Cd128 O129 2.240 . S
Cd128 O136 2.223 . S
Cd128 O138 2.297 . S
Cd128 O139 2.439 . S
O129 Cd128 2.240 . S
O129 C134 1.279 . S
O130 Cd127 2.297 . S
O130 C132 1.247 . S
O131 Cd127 2.439 . S
O131 C132 1.208 . S
C132 O130 1.247 . S
C132 O131 1.208 . S
C133 O138 1.247 . S
C133 O139 1.208 . S
C134 O126 1.315 . S
C134 O129 1.279 . S
C135 O136 1.315 . S
C135 O137 1.279 . S
O136 Cd128 2.223 . S
O136 C135 1.315 . S
O137 Cd127 2.240 . S
O137 C135 1.279 . S
O138 Cd128 2.297 . S
O138 C133 1.247 . S
O139 Cd128 2.439 . S
O139 C133 1.208 . S
O140 Cd141 2.223 . S
O140 C148 1.315 . S
Cd141 O140 2.223 . S
Cd141 O144 2.297 . S
Cd141 O145 2.439 . S
Cd141 O151 2.240 . S
Cd142 O143 2.240 . S
Cd142 O150 2.223 . S
Cd142 O152 2.297 . S
Cd142 O153 2.439 . S
O143 Cd142 2.240 . S
O143 C148 1.279 . S
O144 Cd141 2.297 . S
O144 C146 1.247 . S
O145 Cd141 2.439 . S
O145 C146 1.208 . S
C146 O144 1.247 . S
C146 O145 1.208 . S
C147 O152 1.247 . S
C147 O153 1.208 . S
C148 O140 1.315 . S
C148 O143 1.279 . S
C149 O150 1.315 . S
C149 O151 1.279 . S
O150 Cd142 2.223 . S
O150 C149 1.315 . S
O151 Cd141 2.240 . S
O151 C149 1.279 . S
O152 Cd142 2.297 . S
O152 C147 1.247 . S
O153 Cd142 2.439 . S
O153 C147 1.208 . S
O154 Cd155 2.223 . S
O154 C162 1.315 . S
Cd155 O154 2.223 . S
Cd155 O158 2.297 . S
Cd155 O159 2.439 . S
Cd155 O165 2.240 . S
Cd156 O157 2.240 . S
Cd156 O164 2.223 . S
Cd156 O166 2.297 . S
Cd156 O167 2.439 . S
O157 Cd156 2.240 . S
O157 C162 1.279 . S
O158 Cd155 2.297 . S
O158 C160 1.247 . S
O159 Cd155 2.439 . S
O159 C160 1.208 . S
C160 O158 1.247 . S
C160 O159 1.208 . S
C161 O166 1.247 . S
C161 O167 1.208 . S
C162 O154 1.315 . S
C162 O157 1.279 . S
C163 O164 1.315 . S
C163 O165 1.279 . S
O164 Cd156 2.223 . S
O164 C163 1.315 . S
O165 Cd155 2.240 . S
O165 C163 1.279 . S
O166 Cd156 2.297 . S
O166 C161 1.247 . S
O167 Cd156 2.439 . S
O167 C161 1.208 . S
O168 Cd169 2.223 . S
O168 C176 1.315 . S
Cd169 O168 2.223 . S
Cd169 O172 2.297 . S
Cd169 O173 2.439 . S
Cd169 O179 2.240 . S
Cd170 O171 2.240 . S
Cd170 O178 2.223 . S
Cd170 O180 2.297 . S
Cd170 O181 2.439 . S
O171 Cd170 2.240 . S
O171 C176 1.279 . S
O172 Cd169 2.297 . S
O172 C174 1.247 . S
O173 Cd169 2.439 . S
O173 C174 1.208 . S
C174 O172 1.247 . S
C174 O173 1.208 . S
C175 O180 1.247 . S
C175 O181 1.208 . S
C176 O168 1.315 . S
C176 O171 1.279 . S
C177 O178 1.315 . S
C177 O179 1.279 . S
O178 Cd170 2.223 . S
O178 C177 1.315 . S
O179 Cd169 2.240 . S
O179 C177 1.279 . S
O180 Cd170 2.297 . S
O180 C175 1.247 . S
O181 Cd170 2.439 . S
O181 C175 1.208 . S
O182 Cd183 2.223 . S
O182 C190 1.315 . S
Cd183 O182 2.223 . S
Cd183 O186 2.297 . S
Cd183 O187 2.439 . S
Cd183 O193 2.240 . S
Cd184 O185 2.240 . S
Cd184 O192 2.223 . S
Cd184 O194 2.297 . S
Cd184 O195 2.439 . S
O185 Cd184 2.240 . S
O185 C190 1.279 . S
O186 Cd183 2.297 . S
O186 C188 1.247 . S
O187 Cd183 2.439 . S
O187 C188 1.208 . S
C188 O186 1.247 . S
C188 O187 1.208 . S
C189 O194 1.247 . S
C189 O195 1.208 . S
C190 O182 1.315 . S
C190 O185 1.279 . S
C191 O192 1.315 . S
C191 O193 1.279 . S
O192 Cd184 2.223 . S
O192 C191 1.315 . S
O193 Cd183 2.240 . S
O193 C191 1.279 . S
O194 Cd184 2.297 . S
O194 C189 1.247 . S
O195 Cd184 2.439 . S
O195 C189 1.208 . S
O196 Cd197 2.223 . S
O196 C204 1.315 . S
Cd197 O196 2.223 . S
Cd197 O200 2.297 . S
Cd197 O201 2.439 . S
Cd197 O207 2.240 . S
Cd198 O199 2.240 . S
Cd198 O206 2.223 . S
Cd198 O208 2.297 . S
Cd198 O209 2.439 . S
O199 Cd198 2.240 . S
O199 C204 1.279 . S
O200 Cd197 2.297 . S
O200 C202 1.247 . S
O201 Cd197 2.439 . S
O201 C202 1.208 . S
C202 O200 1.247 . S
C202 O201 1.208 . S
C203 O208 1.247 . S
C203 O209 1.208 . S
C204 O196 1.315 . S
C204 O199 1.279 . S
C205 O206 1.315 . S
C205 O207 1.279 . S
O206 Cd198 2.223 . S
O206 C205 1.315 . S
O207 Cd197 2.240 . S
O207 C205 1.279 . S
O208 Cd198 2.297 . S
O208 C203 1.247 . S
O209 Cd198 2.439 . S
O209 C203 1.208 . S
O210 Cd211 2.223 . S
O210 C218 1.315 . S
Cd211 O210 2.223 . S
Cd211 O214 2.297 . S
Cd211 O215 2.439 . S
Cd211 O221 2.240 . S
Cd212 O213 2.240 . S
Cd212 O220 2.223 . S
Cd212 O222 2.297 . S
Cd212 O223 2.439 . S
O213 Cd212 2.240 . S
O213 C218 1.279 . S
O214 Cd211 2.297 . S
O214 C216 1.247 . S
O215 Cd211 2.439 . S
O215 C216 1.208 . S
C216 O214 1.247 . S
C216 O215 1.208 . S
C217 O222 1.247 . S
C217 O223 1.208 . S
C218 O210 1.315 . S
C218 O213 1.279 . S
C219 O220 1.315 . S
C219 O221 1.279 . S
O220 Cd212 2.223 . S
O220 C219 1.315 . S
O221 Cd211 2.240 . S
O221 C219 1.279 . S
O222 Cd212 2.297 . S
O222 C217 1.247 . S
O223 Cd212 2.439 . S
O223 C217 1.208 . S
C224 C225 1.369 . S
C224 C226 1.419 . S
C224 H228 0.930 . S
C225 C224 1.369 . S
C225 C234 1.429 . S
C226 C224 1.419 . S
C226 C227 1.363 . S
C226 H229 0.929 . S
C227 C226 1.363 . S
C227 C233 1.428 . S
H228 C224 0.930 . S
H229 C226 0.929 . S
S230 N231 1.613 . S
S230 N232 1.610 . S
N231 S230 1.613 . S
N231 C234 1.350 . S
N232 S230 1.610 . S
N232 C233 1.351 . S
C233 C227 1.428 . S
C233 N232 1.351 . S
C233 C234 1.434 . S
C234 C225 1.429 . S
C234 N231 1.350 . S
C234 C233 1.434 . S
C235 C236 1.369 . S
C235 C237 1.419 . S
C235 H239 0.930 . S
C236 C235 1.369 . S
C236 C245 1.429 . S
C237 C235 1.419 . S
C237 C238 1.363 . S
C237 H240 0.929 . S
C238 C237 1.363 . S
C238 C244 1.428 . S
H239 C235 0.930 . S
H240 C237 0.929 . S
S241 N242 1.613 . S
S241 N243 1.610 . S
N242 S241 1.613 . S
N242 C245 1.350 . S
N243 S241 1.610 . S
N243 C244 1.351 . S
C244 C238 1.428 . S
C244 N243 1.351 . S
C244 C245 1.434 . S
C245 C236 1.429 . S
C245 N242 1.350 . S
C245 C244 1.434 . S
C246 C247 1.369 . S
C246 C248 1.419 . S
C246 H250 0.930 . S
C247 C246 1.369 . S
C247 C256 1.429 . S
C248 C246 1.419 . S
C248 C249 1.363 . S
C248 H251 0.929 . S
C249 C248 1.363 . S
C249 C255 1.428 . S
H250 C246 0.930 . S
H251 C248 0.929 . S
S252 N253 1.613 . S
S252 N254 1.610 . S
N253 S252 1.613 . S
N253 C256 1.350 . S
N254 S252 1.610 . S
N254 C255 1.351 . S
C255 C249 1.428 . S
C255 N254 1.351 . S
C255 C256 1.434 . S
C256 C247 1.429 . S
C256 N253 1.350 . S
C256 C255 1.434 . S
C257 C258 1.369 . S
C257 C259 1.419 . S
C257 H261 0.930 . S
C258 C257 1.369 . S
C258 C267 1.429 . S
C259 C257 1.419 . S
C259 C260 1.363 . S
C259 H262 0.929 . S
C260 C259 1.363 . S
C260 C266 1.428 . S
H261 C257 0.930 . S
H262 C259 0.929 . S
S263 N264 1.613 . S
S263 N265 1.610 . S
N264 S263 1.613 . S
N264 C267 1.350 . S
N265 S263 1.610 . S
N265 C266 1.351 . S
C266 C260 1.428 . S
C266 N265 1.351 . S
C266 C267 1.434 . S
C267 C258 1.429 . S
C267 N264 1.350 . S
C267 C266 1.434 . S
C268 C269 1.369 . S
C268 C270 1.419 . S
C268 H272 0.930 . S
C269 C268 1.369 . S
C269 C278 1.429 . S
C270 C268 1.419 . S
C270 C271 1.363 . S
C270 H273 0.929 . S
C271 C270 1.363 . S
C271 C277 1.428 . S
H272 C268 0.930 . S
H273 C270 0.929 . S
S274 N275 1.613 . S
S274 N276 1.610 . S
N275 S274 1.613 . S
N275 C278 1.350 . S
N276 S274 1.610 . S
N276 C277 1.351 . S
C277 C271 1.428 . S
C277 N276 1.351 . S
C277 C278 1.434 . S
C278 C269 1.429 . S
C278 N275 1.350 . S
C278 C277 1.434 . S
C279 C280 1.369 . S
C279 C281 1.419 . S
C279 H283 0.930 . S
C280 C279 1.369 . S
C280 C289 1.429 . S
C281 C279 1.419 . S
C281 C282 1.363 . S
C281 H284 0.929 . S
C282 C281 1.363 . S
C282 C288 1.428 . S
H283 C279 0.930 . S
H284 C281 0.929 . S
S285 N286 1.613 . S
S285 N287 1.610 . S
N286 S285 1.613 . S
N286 C289 1.350 . S
N287 S285 1.610 . S
N287 C288 1.351 . S
C288 C282 1.428 . S
C288 N287 1.351 . S
C288 C289 1.434 . S
C289 C280 1.429 . S
C289 N286 1.350 . S
C289 C288 1.434 . S
C290 C291 1.369 . S
C290 C292 1.419 . S
C290 H294 0.930 . S
C291 C290 1.369 . S
C291 C300 1.429 . S
C292 C290 1.419 . S
C292 C293 1.363 . S
C292 H295 0.929 . S
C293 C292 1.363 . S
C293 C299 1.428 . S
H294 C290 0.930 . S
H295 C292 0.929 . S
S296 N297 1.613 . S
S296 N298 1.610 . S
N297 S296 1.613 . S
N297 C300 1.350 . S
N298 S296 1.610 . S
N298 C299 1.351 . S
C299 C293 1.428 . S
C299 N298 1.351 . S
C299 C300 1.434 . S
C300 C291 1.429 . S
C300 N297 1.350 . S
C300 C299 1.434 . S
C301 C302 1.369 . S
C301 C303 1.419 . S
C301 H305 0.930 . S
C302 C301 1.369 . S
C302 C311 1.429 . S
C303 C301 1.419 . S
C303 C304 1.363 . S
C303 H306 0.929 . S
C304 C303 1.363 . S
C304 C310 1.428 . S
H305 C301 0.930 . S
H306 C303 0.929 . S
S307 N308 1.613 . S
S307 N309 1.610 . S
N308 S307 1.613 . S
N308 C311 1.350 . S
N309 S307 1.610 . S
N309 C310 1.351 . S
C310 C304 1.428 . S
C310 N309 1.351 . S
C310 C311 1.434 . S
C311 C302 1.429 . S
C311 N308 1.350 . S
C311 C310 1.434 . S
C312 C313 1.369 . S
C312 C314 1.419 1_556 S
C312 H316 0.930 . S
C313 C312 1.369 . S
C313 C322 1.429 . S
C314 C312 1.419 1_554 S
C314 C315 1.363 . S
C314 H317 0.929 . S
C315 C314 1.363 . S
C315 C321 1.428 . S
H316 C312 0.930 . S
H317 C314 0.929 . S
S318 N319 1.617 . S
S318 N320 1.607 1_556 S
N319 S318 1.617 . S
N319 C322 1.350 . S
N320 S318 1.607 1_554 S
N320 C321 1.351 . S
C321 C315 1.428 . S
C321 N320 1.351 . S
C321 C322 1.434 1_554 S
C322 C313 1.429 . S
C322 N319 1.350 . S
C322 C321 1.434 1_556 S
C323 C324 1.369 . S
C323 C325 1.419 1_556 S
C323 H327 0.930 . S
C324 C323 1.369 . S
C324 C333 1.429 . S
C325 C323 1.419 1_554 S
C325 C326 1.363 . S
C325 H328 0.929 . S
C326 C325 1.363 . S
C326 C332 1.428 . S
H327 C323 0.930 . S
H328 C325 0.929 . S
S329 N330 1.613 1_554 S
S329 N331 1.610 . S
N330 S329 1.613 1_556 S
N330 C333 1.350 . S
N331 S329 1.610 . S
N331 C332 1.351 . S
C332 C326 1.428 . S
C332 N331 1.351 . S
C332 C333 1.434 1_554 S
C333 C324 1.429 . S
C333 N330 1.350 . S
C333 C332 1.434 1_556 S
C334 C335 1.369 . S
C334 C336 1.419 1_556 S
C334 H338 0.930 . S
C335 C334 1.369 . S
C335 C344 1.429 . S
C336 C334 1.419 1_554 S
C336 C337 1.363 . S
C336 H339 0.929 . S
C337 C336 1.363 . S
C337 C343 1.428 . S
H338 C334 0.930 . S
H339 C336 0.929 . S
S340 N341 1.613 . S
S340 N342 1.610 1_556 S
N341 S340 1.613 . S
N341 C344 1.350 . S
N342 S340 1.610 1_554 S
N342 C343 1.351 . S
C343 C337 1.428 . S
C343 N342 1.351 . S
C343 C344 1.434 1_554 S
C344 C335 1.429 . S
C344 N341 1.350 . S
C344 C343 1.434 1_556 S
C345 C346 1.369 . S
C345 C347 1.419 1_554 S
C345 H349 0.930 . S
C346 C345 1.369 . S
C346 C355 1.429 . S
C347 C345 1.419 1_556 S
C347 C348 1.363 . S
C347 H350 0.929 . S
C348 C347 1.363 . S
C348 C354 1.428 . S
H349 C345 0.930 . S
H350 C347 0.929 . S
S351 N352 1.613 . S
S351 N353 1.610 1_554 S
N352 S351 1.613 . S
N352 C355 1.350 . S
N353 S351 1.610 1_556 S
N353 C354 1.351 . S
C354 C348 1.428 . S
C354 N353 1.351 . S
C354 C355 1.434 1_556 S
C355 C346 1.429 . S
C355 N352 1.350 . S
C355 C354 1.434 1_554 S
C356 C357 1.369 . S
C356 C358 1.419 . S
C356 H360 0.930 . S
C357 C356 1.369 . S
C357 C366 1.429 . S
C358 C356 1.419 . S
C358 C359 1.363 . S
C358 H361 0.929 . S
C359 C358 1.363 . S
C359 C365 1.428 . S
H360 C356 0.930 . S
H361 C358 0.929 . S
S362 N363 1.613 . S
S362 N364 1.610 . S
N363 S362 1.613 . S
N363 C366 1.350 . S
N364 S362 1.610 . S
N364 C365 1.351 . S
C365 C359 1.428 . S
C365 N364 1.351 . S
C365 C366 1.434 . S
C366 C357 1.429 . S
C366 N363 1.350 . S
C366 C365 1.434 . S
C367 C368 1.369 . S
C367 C369 1.419 . S
C367 H371 0.930 . S
C368 C367 1.369 . S
C368 C377 1.429 . S
C369 C367 1.419 . S
C369 C370 1.363 . S
C369 H372 0.929 . S
C370 C369 1.363 . S
C370 C376 1.428 . S
H371 C367 0.930 . S
H372 C369 0.929 . S
S373 N374 1.613 . S
S373 N375 1.610 . S
N374 S373 1.613 . S
N374 C377 1.350 . S
N375 S373 1.610 . S
N375 C376 1.351 . S
C376 C370 1.428 . S
C376 N375 1.351 . S
C376 C377 1.434 . S
C377 C368 1.429 . S
C377 N374 1.350 . S
C377 C376 1.434 . S
C378 C379 1.369 . S
C378 C380 1.419 . S
C378 H382 0.930 . S
C379 C378 1.369 . S
C379 C388 1.429 . S
C380 C378 1.419 . S
C380 C381 1.363 . S
C380 H383 0.929 . S
C381 C380 1.363 . S
C381 C387 1.428 . S
H382 C378 0.930 . S
H383 C380 0.929 . S
S384 N385 1.613 . S
S384 N386 1.610 . S
N385 S384 1.613 . S
N385 C388 1.350 . S
N386 S384 1.610 . S
N386 C387 1.351 . S
C387 C381 1.428 . S
C387 N386 1.351 . S
C387 C388 1.434 . S
C388 C379 1.429 . S
C388 N385 1.350 . S
C388 C387 1.434 . S
C389 C390 1.369 . S
C389 C391 1.419 . S
C389 H393 0.930 . S
C390 C389 1.369 . S
C390 C399 1.429 . S
C391 C389 1.419 . S
C391 C392 1.363 . S
C391 H394 0.929 . S
C392 C391 1.363 . S
C392 C398 1.428 . S
H393 C389 0.930 . S
H394 C391 0.929 . S
S395 N396 1.613 . S
S395 N397 1.610 . S
N396 S395 1.613 . S
N396 C399 1.350 . S
N397 S395 1.610 . S
N397 C398 1.351 . S
C398 C392 1.428 . S
C398 N397 1.351 . S
C398 C399 1.434 . S
C399 C390 1.429 . S
C399 N396 1.350 . S
C399 C398 1.434 . S
C400 C401 1.369 . S
C400 C402 1.419 . S
C400 H404 0.930 . S
C401 C400 1.369 . S
C401 C410 1.429 . S
C402 C400 1.419 . S
C402 C403 1.363 . S
C402 H405 0.929 . S
C403 C402 1.363 . S
C403 C409 1.428 . S
H404 C400 0.930 . S
H405 C402 0.929 . S
S406 N407 1.613 . S
S406 N408 1.610 . S
N407 S406 1.613 . S
N407 C410 1.350 . S
N408 S406 1.610 . S
N408 C409 1.351 . S
C409 C403 1.428 . S
C409 N408 1.351 . S
C409 C410 1.434 . S
C410 C401 1.429 . S
C410 N407 1.350 . S
C410 C409 1.434 . S
C411 C412 1.369 . S
C411 C413 1.419 . S
C411 H415 0.930 . S
C412 C411 1.369 . S
C412 C421 1.429 . S
C413 C411 1.419 . S
C413 C414 1.363 . S
C413 H416 0.929 . S
C414 C413 1.363 . S
C414 C420 1.428 . S
H415 C411 0.930 . S
H416 C413 0.929 . S
S417 N418 1.613 . S
S417 N419 1.610 . S
N418 S417 1.613 . S
N418 C421 1.350 . S
N419 S417 1.610 . S
N419 C420 1.351 . S
C420 C414 1.428 . S
C420 N419 1.351 . S
C420 C421 1.434 . S
C421 C412 1.429 . S
C421 N418 1.350 . S
C421 C420 1.434 . S
C422 C423 1.369 . S
C422 C424 1.419 . S
C422 H426 0.930 . S
C423 C422 1.369 . S
C423 C432 1.429 . S
C424 C422 1.419 . S
C424 C425 1.363 . S
C424 H427 0.929 . S
C425 C424 1.363 . S
C425 C431 1.428 . S
H426 C422 0.930 . S
H427 C424 0.929 . S
S428 N429 1.613 . S
S428 N430 1.610 . S
N429 S428 1.613 . S
N429 C432 1.350 . S
N430 S428 1.610 . S
N430 C431 1.351 . S
C431 C425 1.428 . S
C431 N430 1.351 . S
C431 C432 1.434 . S
C432 C423 1.429 . S
C432 N429 1.350 . S
C432 C431 1.434 . S
C433 C434 1.369 . S
C433 C435 1.419 . S
C433 H437 0.930 . S
C434 C433 1.369 . S
C434 C443 1.429 . S
C435 C433 1.419 . S
C435 C436 1.363 . S
C435 H438 0.929 . S
C436 C435 1.363 . S
C436 C442 1.428 . S
H437 C433 0.930 . S
H438 C435 0.929 . S
S439 N440 1.613 . S
S439 N441 1.610 . S
N440 S439 1.613 . S
N440 C443 1.350 . S
N441 S439 1.610 . S
N441 C442 1.351 . S
C442 C436 1.428 . S
C442 N441 1.351 . S
C442 C443 1.434 . S
C443 C434 1.429 . S
C443 N440 1.350 . S
C443 C442 1.434 . S
C444 C445 1.369 . S
C444 C446 1.419 . S
C444 H448 0.930 . S
C445 C444 1.369 . S
C445 C454 1.429 . S
C446 C444 1.419 . S
C446 C447 1.363 . S
C446 H449 0.929 . S
C447 C446 1.363 . S
C447 C453 1.428 . S
H448 C444 0.930 . S
H449 C446 0.929 . S
S450 N451 1.613 . S
S450 N452 1.610 . S
N451 S450 1.613 . S
N451 C454 1.350 . S
N452 S450 1.610 . S
N452 C453 1.351 . S
C453 C447 1.428 . S
C453 N452 1.351 . S
C453 C454 1.434 . S
C454 C445 1.429 . S
C454 N451 1.350 . S
C454 C453 1.434 . S
C455 C456 1.369 . S
C455 C457 1.419 . S
C455 H459 0.930 . S
C456 C455 1.369 . S
C456 C465 1.429 . S
C457 C455 1.419 . S
C457 C458 1.363 . S
C457 H460 0.929 . S
C458 C457 1.363 . S
C458 C464 1.428 . S
H459 C455 0.930 . S
H460 C457 0.929 . S
S461 N462 1.613 . S
S461 N463 1.610 . S
N462 S461 1.613 . S
N462 C465 1.350 . S
N463 S461 1.610 . S
N463 C464 1.351 . S
C464 C458 1.428 . S
C464 N463 1.351 . S
C464 C465 1.434 . S
C465 C456 1.429 . S
C465 N462 1.350 . S
C465 C464 1.434 . S
C466 C467 1.369 . S
C466 C468 1.419 . S
C466 H470 0.930 . S
C467 C466 1.369 . S
C467 C476 1.429 . S
C468 C466 1.419 . S
C468 C469 1.363 . S
C468 H471 0.929 . S
C469 C468 1.363 . S
C469 C475 1.428 . S
H470 C466 0.930 . S
H471 C468 0.929 . S
S472 N473 1.613 . S
S472 N474 1.610 . S
N473 S472 1.613 . S
N473 C476 1.350 . S
N474 S472 1.610 . S
N474 C475 1.351 . S
C475 C469 1.428 . S
C475 N474 1.351 . S
C475 C476 1.434 . S
C476 C467 1.429 . S
C476 N473 1.350 . S
C476 C475 1.434 . S
C477 C478 1.369 . S
C477 C479 1.419 . S
C477 H481 0.930 . S
C478 C477 1.369 . S
C478 C487 1.429 . S
C479 C477 1.419 . S
C479 C480 1.363 . S
C479 H482 0.929 . S
C480 C479 1.363 . S
C480 C486 1.428 . S
H481 C477 0.930 . S
H482 C479 0.929 . S
S483 N484 1.613 . S
S483 N485 1.610 . S
N484 S483 1.613 . S
N484 C487 1.350 . S
N485 S483 1.610 . S
N485 C486 1.351 . S
C486 C480 1.428 . S
C486 N485 1.351 . S
C486 C487 1.434 . S
C487 C478 1.429 . S
C487 N484 1.350 . S
C487 C486 1.434 . S
C488 C489 1.369 . S
C488 C490 1.419 1_545 S
C488 H492 0.930 . S
C489 C488 1.369 . S
C489 C498 1.429 . S
C490 C488 1.419 1_565 S
C490 C491 1.363 . S
C490 H493 0.929 . S
C491 C490 1.363 . S
C491 C497 1.428 . S
H492 C488 0.930 . S
H493 C490 0.929 . S
S494 N495 1.613 1_565 S
S494 N496 1.610 . S
N495 S494 1.613 1_545 S
N495 C498 1.350 . S
N496 S494 1.610 . S
N496 C497 1.351 . S
C497 C491 1.428 . S
C497 N496 1.351 . S
C497 C498 1.434 1_565 S
C498 C489 1.429 . S
C498 N495 1.350 . S
C498 C497 1.434 1_545 S
C499 C500 1.369 . S
C499 C501 1.419 1_655 S
C499 H503 0.930 . S
C500 C499 1.369 . S
C500 C509 1.429 . S
C501 C499 1.419 1_455 S
C501 C502 1.363 . S
C501 H504 0.929 . S
C502 C501 1.363 . S
C502 C508 1.428 . S
H503 C499 0.930 . S
H504 C501 0.929 . S
S505 N506 1.613 . S
S505 N507 1.610 1_655 S
N506 S505 1.613 . S
N506 C509 1.350 . S
N507 S505 1.610 1_455 S
N507 C508 1.351 . S
C508 C502 1.428 . S
C508 N507 1.351 . S
C508 C509 1.434 1_455 S
C509 C500 1.429 . S
C509 N506 1.350 . S
C509 C508 1.434 1_655 S
C510 C511 1.369 . S
C510 C512 1.419 1_545 S
C510 H514 0.930 . S
C511 C510 1.369 . S
C511 C520 1.429 . S
C512 C510 1.419 1_565 S
C512 C513 1.363 . S
C512 H515 0.929 . S
C513 C512 1.363 . S
C513 C519 1.428 . S
H514 C510 0.930 . S
H515 C512 0.929 . S
S516 N517 1.613 1_565 S
S516 N518 1.610 . S
N517 S516 1.613 1_545 S
N517 C520 1.350 . S
N518 S516 1.610 . S
N518 C519 1.351 . S
C519 C513 1.428 . S
C519 N518 1.351 . S
C519 C520 1.434 1_565 S
C520 C511 1.429 . S
C520 N517 1.350 . S
C520 C519 1.434 1_545 S
C521 C522 1.369 . S
C521 C523 1.419 1_455 S
C521 H525 0.930 . S
C522 C521 1.369 . S
C522 C531 1.429 . S
C523 C521 1.419 1_655 S
C523 C524 1.363 . S
C523 H526 0.929 . S
C524 C523 1.363 . S
C524 C530 1.428 . S
H525 C521 0.930 . S
H526 C523 0.929 . S
S527 N528 1.613 1_655 S
S527 N529 1.610 . S
N528 S527 1.613 1_455 S
N528 C531 1.350 . S
N529 S527 1.610 . S
N529 C530 1.351 . S
C530 C524 1.428 . S
C530 N529 1.351 . S
C530 C531 1.434 1_655 S
C531 C522 1.429 . S
C531 N528 1.350 . S
C531 C530 1.434 1_455 S
C532 C533 1.369 . S
C532 C534 1.419 1_545 S
C532 H536 0.930 . S
C533 C532 1.369 . S
C533 C542 1.429 . S
C534 C532 1.419 1_565 S
C534 C535 1.363 . S
C534 H537 0.929 . S
C535 C534 1.363 . S
C535 C541 1.428 . S
H536 C532 0.930 . S
H537 C534 0.929 . S
S538 N539 1.613 . S
S538 N540 1.610 1_545 S
N539 S538 1.613 . S
N539 C542 1.350 . S
N540 S538 1.610 1_565 S
N540 C541 1.351 . S
C541 C535 1.428 . S
C541 N540 1.351 . S
C541 C542 1.434 1_565 S
C542 C533 1.429 . S
C542 N539 1.350 . S
C542 C541 1.434 1_545 S
C543 C544 1.372 . S
C543 C545 1.416 1_655 S
C543 H547 0.930 1_655 S
C544 C543 1.372 . S
C544 C553 1.429 . S
C545 C543 1.416 1_455 S
C545 C546 1.363 . S
C545 H548 0.929 . S
C546 C545 1.363 . S
C546 C552 1.428 1_455 S
H547 C543 0.930 1_455 S
H548 C545 0.929 . S
S549 N550 1.613 . S
S549 N551 1.610 . S
N550 S549 1.613 . S
N550 C553 1.350 . S
N551 S549 1.610 . S
N551 C552 1.351 . S
C552 C546 1.428 1_655 S
C552 N551 1.351 . S
C552 C553 1.434 . S
C553 C544 1.429 . S
C553 N550 1.350 . S
C553 C552 1.434 . S
C554 C555 1.369 . S
C554 C556 1.419 1_565 S
C554 H558 0.930 . S
C555 C554 1.369 . S
C555 C564 1.429 . S
C556 C554 1.419 1_545 S
C556 C557 1.363 . S
C556 H559 0.929 . S
C557 C556 1.363 . S
C557 C563 1.428 . S
H558 C554 0.930 . S
H559 C556 0.929 . S
S560 N561 1.613 1_545 S
S560 N562 1.610 . S
N561 S560 1.613 1_565 S
N561 C564 1.350 . S
N562 S560 1.610 . S
N562 C563 1.351 . S
C563 C557 1.428 . S
C563 N562 1.351 . S
C563 C564 1.434 1_545 S
C564 C555 1.429 . S
C564 N561 1.350 . S
C564 C563 1.434 1_565 S
C565 C566 1.369 . S
C565 C567 1.419 1_455 S
C565 H569 0.930 . S
C566 C565 1.369 . S
C566 C575 1.429 . S
C567 C565 1.419 1_655 S
C567 C568 1.363 . S
C567 H570 0.929 . S
C568 C567 1.363 . S
C568 C574 1.428 . S
H569 C565 0.930 . S
H570 C567 0.929 . S
S571 N572 1.613 1_655 S
S571 N573 1.610 . S
N572 S571 1.613 1_455 S
N572 C575 1.350 . S
N573 S571 1.610 . S
N573 C574 1.351 . S
C574 C568 1.428 . S
C574 N573 1.351 . S
C574 C575 1.434 1_655 S
C575 C566 1.429 . S
C575 N572 1.350 . S
C575 C574 1.434 1_455 S
C225 C76 1.554 . S
C227 C6 1.557 . S
C236 C90 1.554 . S
C238 C20 1.557 . S
C247 C34 1.555 . S
C249 C104 1.560 . S
C258 C48 1.558 . S
C260 C62 1.561 . S
C269 C188 1.562 . S
C271 C118 1.560 . S
C280 C202 1.556 . S
C282 C132 1.555 . S
C291 C146 1.556 . S
C293 C216 1.555 . S
C302 C160 1.562 . S
C304 C174 1.557 . S
C313 C147 1.494 . S
C315 C7 1.495 . S
C324 C161 1.489 . S
C326 C21 1.492 . S
C335 C119 1.496 . S
C337 C35 1.490 . S
C346 C49 1.495 . S
C348 C133 1.490 . S
C357 C203 1.493 . S
C359 C63 1.496 . S
C368 C217 1.495 . S
C370 C77 1.495 . S
C379 C91 1.489 . S
C381 C175 1.495 . S
C390 C189 1.491 . S
C392 C105 1.496 . S
C401 C64 0.756 . S
C403 C8 0.758 . S
C412 C22 0.758 . S
C414 C78 0.756 . S
C423 C36 0.756 . S
C425 C92 0.756 . S
C434 C106 0.756 . S
C436 C50 0.757 . S
C445 C121 2.169 . S
C447 C177 2.170 . S
C456 C191 2.170 . S
C458 C135 2.170 . S
C467 C149 2.169 . S
C469 C205 2.170 . S
C478 C219 2.169 . S
C480 C163 2.169 . S
C489 C162 0.758 . S
C491 C190 0.757 . S
C500 C120 0.756 . S
C502 C204 0.757 . S
C511 C218 0.758 . S
C513 C134 0.757 . S
C522 C148 0.758 . S
C524 C176 0.756 . S
C533 C79 2.170 . S
C535 C51 2.170 . S
C544 C93 2.170 . S
C546 C9 2.170 . S
C555 C107 2.170 . S
C557 C23 2.170 . S
C566 C65 2.170 . S
C568 C37 2.170 . S
