# Generated by pormake.
# Topology wlk, (5)-cn, num edge types: 1
# Building blocks:
#     Node 0, Type 0, BuildingBlock: XOMCOT_clean_sbu_1, # of connection points: 5
#     Node 1, Type 0, BuildingBlock: XOMCOT_clean_sbu_1, # of connection points: 5
#     Node 2, Type 0, BuildingBlock: XOMCOT_clean_sbu_1, # of connection points: 5
#     Node 3, Type 0, BuildingBlock: XOMCOT_clean_sbu_1, # of connection points: 5
#     Node 4, Type 0, BuildingBlock: XOMCOT_clean_sbu_1, # of connection points: 5
#     Node 5, Type 0, BuildingBlock: XOMCOT_clean_sbu_1, # of connection points: 5
#     Node 6, Type 0, BuildingBlock: XOMCOT_clean_sbu_1, # of connection points: 5
#     Node 7, Type 0, BuildingBlock: XOMCOT_clean_sbu_1, # of connection points: 5
#     Node 8, Type 0, BuildingBlock: XOMCOT_clean_sbu_1, # of connection points: 5
#     Node 9, Type 0, BuildingBlock: XOMCOT_clean_sbu_1, # of connection points: 5
#     Node 10, Type 0, BuildingBlock: XOMCOT_clean_sbu_1, # of connection points: 5
#     Node 11, Type 0, BuildingBlock: XOMCOT_clean_sbu_1, # of connection points: 5
#     Node 12, Type 0, BuildingBlock: XOMCOT_clean_sbu_1, # of connection points: 5
#     Node 13, Type 0, BuildingBlock: XOMCOT_clean_sbu_1, # of connection points: 5
#     Node 14, Type 0, BuildingBlock: XOMCOT_clean_sbu_1, # of connection points: 5
#     Node 15, Type 0, BuildingBlock: XOMCOT_clean_sbu_1, # of connection points: 5
#     Node 16, Type 0, BuildingBlock: XOMCOT_clean_sbu_1, # of connection points: 5
#     Node 17, Type 0, BuildingBlock: XOMCOT_clean_sbu_1, # of connection points: 5
#     Edge 18, Type (0, 0), BuildingBlock: UVAHIK_clean_linker_0, # of connection points: 2
#     Edge 19, Type (0, 0), BuildingBlock: UVAHIK_clean_linker_0, # of connection points: 2
#     Edge 20, Type (0, 0), BuildingBlock: UVAHIK_clean_linker_0, # of connection points: 2
#     Edge 21, Type (0, 0), BuildingBlock: UVAHIK_clean_linker_0, # of connection points: 2
#     Edge 22, Type (0, 0), BuildingBlock: UVAHIK_clean_linker_0, # of connection points: 2
#     Edge 23, Type (0, 0), BuildingBlock: UVAHIK_clean_linker_0, # of connection points: 2
#     Edge 24, Type (0, 0), BuildingBlock: UVAHIK_clean_linker_0, # of connection points: 2
#     Edge 25, Type (0, 0), BuildingBlock: UVAHIK_clean_linker_0, # of connection points: 2
#     Edge 26, Type (0, 0), BuildingBlock: UVAHIK_clean_linker_0, # of connection points: 2
#     Edge 27, Type (0, 0), BuildingBlock: UVAHIK_clean_linker_0, # of connection points: 2
#     Edge 28, Type (0, 0), BuildingBlock: UVAHIK_clean_linker_0, # of connection points: 2
#     Edge 29, Type (0, 0), BuildingBlock: UVAHIK_clean_linker_0, # of connection points: 2
#     Edge 30, Type (0, 0), BuildingBlock: UVAHIK_clean_linker_0, # of connection points: 2
#     Edge 31, Type (0, 0), BuildingBlock: UVAHIK_clean_linker_0, # of connection points: 2
#     Edge 32, Type (0, 0), BuildingBlock: UVAHIK_clean_linker_0, # of connection points: 2
#     Edge 33, Type (0, 0), BuildingBlock: UVAHIK_clean_linker_0, # of connection points: 2
#     Edge 34, Type (0, 0), BuildingBlock: UVAHIK_clean_linker_0, # of connection points: 2
#     Edge 35, Type (0, 0), BuildingBlock: UVAHIK_clean_linker_0, # of connection points: 2
#     Edge 36, Type (0, 0), BuildingBlock: UVAHIK_clean_linker_0, # of connection points: 2
#     Edge 37, Type (0, 0), BuildingBlock: UVAHIK_clean_linker_0, # of connection points: 2
#     Edge 38, Type (0, 0), BuildingBlock: UVAHIK_clean_linker_0, # of connection points: 2
#     Edge 39, Type (0, 0), BuildingBlock: UVAHIK_clean_linker_0, # of connection points: 2
#     Edge 40, Type (0, 0), BuildingBlock: UVAHIK_clean_linker_0, # of connection points: 2
#     Edge 41, Type (0, 0), BuildingBlock: UVAHIK_clean_linker_0, # of connection points: 2
#     Edge 42, Type (0, 0), BuildingBlock: UVAHIK_clean_linker_0, # of connection points: 2
#     Edge 43, Type (0, 0), BuildingBlock: UVAHIK_clean_linker_0, # of connection points: 2
#     Edge 44, Type (0, 0), BuildingBlock: UVAHIK_clean_linker_0, # of connection points: 2
#     Edge 45, Type (0, 0), BuildingBlock: UVAHIK_clean_linker_0, # of connection points: 2
#     Edge 46, Type (0, 0), BuildingBlock: UVAHIK_clean_linker_0, # of connection points: 2
#     Edge 47, Type (0, 0), BuildingBlock: UVAHIK_clean_linker_0, # of connection points: 2
#     Edge 48, Type (0, 0), BuildingBlock: UVAHIK_clean_linker_0, # of connection points: 2
#     Edge 49, Type (0, 0), BuildingBlock: UVAHIK_clean_linker_0, # of connection points: 2
#     Edge 50, Type (0, 0), BuildingBlock: UVAHIK_clean_linker_0, # of connection points: 2
#     Edge 51, Type (0, 0), BuildingBlock: UVAHIK_clean_linker_0, # of connection points: 2
#     Edge 52, Type (0, 0), BuildingBlock: UVAHIK_clean_linker_0, # of connection points: 2
#     Edge 53, Type (0, 0), BuildingBlock: UVAHIK_clean_linker_0, # of connection points: 2
#     Edge 54, Type (0, 0), BuildingBlock: UVAHIK_clean_linker_0, # of connection points: 2
#     Edge 55, Type (0, 0), BuildingBlock: UVAHIK_clean_linker_0, # of connection points: 2
#     Edge 56, Type (0, 0), BuildingBlock: UVAHIK_clean_linker_0, # of connection points: 2
#     Edge 57, Type (0, 0), BuildingBlock: UVAHIK_clean_linker_0, # of connection points: 2
#     Edge 58, Type (0, 0), BuildingBlock: UVAHIK_clean_linker_0, # of connection points: 2
#     Edge 59, Type (0, 0), BuildingBlock: UVAHIK_clean_linker_0, # of connection points: 2
#     Edge 60, Type (0, 0), BuildingBlock: UVAHIK_clean_linker_0, # of connection points: 2
#     Edge 61, Type (0, 0), BuildingBlock: UVAHIK_clean_linker_0, # of connection points: 2
#     Edge 62, Type (0, 0), BuildingBlock: UVAHIK_clean_linker_0, # of connection points: 2
# Relax obj value: 0.170
# Max RMSD: 0.216
# Mean RMSD: 0.216
data_MOF--net-wlk--node1-XOMCOT_clean_sbu_1--edge1-UVAHIK_clean_linker_0
_symmetry_space_group_name_H-M    P1
_symmetry_Int_Tables_number       1
_symmetry_cell_setting            triclinic
loop_
_symmetry_equiv_pos_as_xyz
'x, y, z'
_cell_length_a     81.891111
_cell_length_b     81.868492
_cell_length_c     35.327518
_cell_angle_alpha  90.082949
_cell_angle_beta   89.94175
_cell_angle_gamma 120.00778
loop_
_atom_site_label
_atom_site_type_symbol
_atom_site_fract_x
_atom_site_fract_y
_atom_site_fract_z
_atom_type_partial_charge
C0 C 0.18999 0.2613 0.0104 0.0
C1 C 0.19292 0.24789 0.99325 0.0
N2 N 0.20603 0.24614 0.0131 0.0
N3 N 0.20104 0.26805 0.0413 0.0
C4 C 0.21074 0.25861 0.04208 0.0
H5 H 0.18042 0.26586 1.00065 0.0
Co6 Co 0.20211 0.28695 0.07367 0.0
C7 C 0.20755 0.2679 0.14139 0.0
O8 O 0.18959 0.25824 0.15031 0.0
N9 N 0.20313 0.30584 0.10593 0.0
C10 C 0.20563 0.33289 0.12503 0.0
C11 C 0.20686 0.32308 0.09455 0.0
C12 C 0.19954 0.30547 0.14351 0.0
N13 N 0.20099 0.32182 0.15596 0.0
O14 O 0.17625 0.27011 0.08892 0.0
H15 H 0.21007 0.32815 0.06575 0.0
H16 H 0.1954 0.29328 0.16123 0.0
O17 O 0.21296 0.27894 0.11298 0.0
C18 C 0.16662 0.27462 0.06726 0.0
O19 O 0.17585 0.28911 0.04451 0.0
N20 N 0.2261 0.30395 0.05491 0.0
C21 C 0.25872 0.33123 0.01815 0.0
C22 C 0.25963 0.32495 0.05482 0.0
C23 C 0.24307 0.31141 0.07296 0.0
C24 C 0.22495 0.30981 0.01951 0.0
C25 C 0.24094 0.32346 1.00082 0.0
H26 H 0.24393 0.30725 0.10154 0.0
H27 H 0.21131 0.30414 0.00606 0.0
H28 H 0.22132 0.2611 0.06313 0.0
H29 H 0.18571 0.23992 0.96823 0.0
H30 H 0.20808 0.34716 0.12436 0.0
H31 H 0.27295 0.33041 0.0695 0.0
H32 H 0.23919 0.32814 0.97328 0.0
C33 C 0.75929 0.93166 1.00388 0.0
C34 C 0.77283 0.94775 0.9864 0.0
N35 N 0.77475 0.96283 1.00568 0.0
N36 N 0.7526 0.93637 0.03435 0.0
C37 C 0.76225 0.9555 0.03464 0.0
H38 H 0.75459 0.9174 0.99469 0.0
Co39 Co 0.73375 0.91894 0.06699 0.0
C40 C 0.75382 0.94433 0.13376 0.0
O41 O 0.76431 0.93678 0.14146 0.0
N42 N 0.7151 0.90145 0.09954 0.0
C43 C 0.68813 0.87762 0.12071 0.0
C44 C 0.69732 0.88859 0.08974 0.0
C45 C 0.71647 0.89794 0.13648 0.0
N46 N 0.70021 0.88348 0.15021 0.0
O47 O 0.75039 0.90955 0.08175 0.0
H48 H 0.69146 0.88717 0.06169 0.0
H49 H 0.72934 0.90545 0.15266 0.0
O50 O 0.7422 0.93803 0.10628 0.0
C51 C 0.74552 0.89504 0.06084 0.0
O52 O 0.73086 0.88965 0.03849 0.0
N53 N 0.7169 0.92642 0.04912 0.0
C54 C 0.68942 0.93253 0.01602 0.0
C55 C 0.69367 0.93607 0.05476 0.0
C56 C 0.70754 0.93294 0.07085 0.0
C57 C 0.71275 0.92271 0.01167 0.0
C58 C 0.69927 0.92587 0.99449 0.0
H59 H 0.71024 0.93509 0.1009 0.0
H60 H 0.71961 0.91675 0.99513 0.0
H61 H 0.75995 0.96388 0.05537 0.0
H62 H 0.78084 0.9482 0.96166 0.0
H63 H 0.67364 0.86624 0.12135 0.0
H64 H 0.68627 0.94107 0.07246 0.0
H65 H 0.69612 0.92247 0.96478 0.0
C66 C 0.08613 0.83578 0.02054 0.0
C67 C 0.06995 0.8332 1.00331 0.0
N68 N 0.05503 0.81778 0.01823 0.0
N69 N 0.08163 0.82219 0.0466 0.0
C70 C 0.06261 0.81138 0.04442 0.0
H71 H 0.1003 0.84691 0.01431 0.0
Co72 Co 0.09875 0.8195 0.0778 0.0
C73 C 0.07509 0.81525 0.14683 0.0
O74 O 0.08459 0.83299 0.15748 0.0
N75 N 0.11593 0.81695 0.10927 0.0
C76 C 0.13892 0.81197 0.12842 0.0
C77 C 0.12786 0.81102 0.09822 0.0
C78 C 0.12015 0.82164 0.14619 0.0
N79 N 0.13409 0.81868 0.15873 0.0
O80 O 0.1097 0.8456 0.09339 0.0
H81 H 0.12868 0.80659 0.06976 0.0
H82 H 0.11327 0.82731 0.16343 0.0
O83 O 0.08003 0.80979 0.11743 0.0
C84 C 0.12514 0.85468 0.07492 0.0
O85 O 0.12984 0.84506 0.05191 0.0
N86 N 0.08965 0.79492 0.05953 0.0
C87 C 0.08224 0.76079 0.02703 0.0
C88 C 0.07954 0.76199 0.06598 0.0
C89 C 0.08324 0.77924 0.08174 0.0
C90 C 0.09223 0.79394 0.02167 0.0
C91 C 0.08836 0.77698 1.00477 0.0
H92 H 0.08183 0.78018 0.11198 0.0
H93 H 0.09795 0.80658 1.00464 0.0
H94 H 0.05457 0.79888 0.06139 0.0
H95 H 0.06937 0.84222 0.98168 0.0
H96 H 0.15003 0.80848 0.12764 0.0
H97 H 0.07493 0.74981 0.08413 0.0
H98 H 0.091 0.77676 0.97476 0.0
C99 C 0.83359 0.7536 1.00081 0.0
C100 C 0.83104 0.7673 0.01768 0.0
N101 N 0.81793 0.76911 0.99803 0.0
N102 N 0.82224 0.74668 0.97035 0.0
C103 C 0.81282 0.75639 0.96942 0.0
H104 H 0.84308 0.74891 0.01049 0.0
Co105 Co 0.82063 0.7273 0.93867 0.0
C106 C 0.81778 0.74791 0.87053 0.0
O107 O 0.83595 0.75759 0.86343 0.0
N108 N 0.81922 0.70811 0.90696 0.0
C109 C 0.81554 0.68058 0.88794 0.0
C110 C 0.81437 0.69055 0.91824 0.0
C111 C 0.82341 0.70855 0.86971 0.0
N112 N 0.82125 0.69191 0.85729 0.0
O113 O 0.84704 0.74302 0.92563 0.0
H114 H 0.8103 0.68534 0.94682 0.0
H115 H 0.82843 0.72097 0.85224 0.0
O116 O 0.8116 0.73643 0.89818 0.0
C117 C 0.85587 0.73747 0.94712 0.0
O118 O 0.84576 0.72311 0.96965 0.0
N119 N 0.79565 0.71124 0.95461 0.0
C120 C 0.76077 0.68431 0.98406 0.0
C121 C 0.76303 0.68801 0.94503 0.0
C122 C 0.78064 0.70168 0.93082 0.0
C123 C 0.79367 0.70766 0.99251 0.0
C124 C 0.7763 0.69451 0.00788 0.0
H125 H 0.7824 0.704 0.9006 0.0
H126 H 0.80579 0.71466 0.01092 0.0
H127 H 0.80217 0.75393 0.94855 0.0
H128 H 0.83853 0.77545 0.04234 0.0
H129 H 0.81225 0.66603 0.88848 0.0
H130 H 0.75138 0.68026 0.92571 0.0
H131 H 0.77524 0.69178 0.03804 0.0
C132 C 0.26454 0.08335 1.00373 0.0
C133 C 0.25058 0.06717 0.02028 0.0
N134 N 0.24865 0.05222 1.0005 0.0
N135 N 0.27145 0.07879 0.97336 0.0
C136 C 0.26158 0.05967 0.97233 0.0
H137 H 0.26943 0.09754 0.01359 0.0
Co138 Co 0.29059 0.09635 0.94124 0.0
C139 C 0.27061 0.07155 0.87367 0.0
O140 O 0.26034 0.07933 0.86587 0.0
N141 N 0.30951 0.11389 0.90907 0.0
C142 C 0.33693 0.137 0.88791 0.0
C143 C 0.32743 0.12627 0.91892 0.0
C144 C 0.30837 0.11753 0.87208 0.0
N145 N 0.32493 0.13154 0.85829 0.0
O146 O 0.27431 0.10624 0.92678 0.0
H147 H 0.33323 0.1274 0.94693 0.0
H148 H 0.29549 0.11032 0.85586 0.0
O149 O 0.28206 0.07756 0.90145 0.0
C150 C 0.27936 0.12056 0.94835 0.0
O151 O 0.29383 0.12539 0.97092 0.0
N152 N 0.30714 0.08839 0.95884 0.0
C153 C 0.33482 0.08227 0.99104 0.0
C154 C 0.33054 0.079 0.95226 0.0
C155 C 0.31658 0.08213 0.93665 0.0
C156 C 0.31121 0.09169 0.99642 0.0
C157 C 0.32479 0.08852 0.01315 0.0
H158 H 0.31394 0.08029 0.90654 0.0
H159 H 0.30426 0.09742 0.01339 0.0
H160 H 0.26369 0.05136 0.95111 0.0
H161 H 0.2427 0.0665 0.0454 0.0
H162 H 0.35163 0.14787 0.88737 0.0
H163 H 0.33804 0.07429 0.93413 0.0
H164 H 0.32792 0.09167 0.04294 0.0
C165 C 0.93736 0.18277 0.99679 0.0
C166 C 0.95351 0.18559 0.01452 0.0
N167 N 0.96853 0.19918 0.99586 0.0
N168 N 0.94198 0.19441 0.96677 0.0
C169 C 0.96111 0.2043 0.96702 0.0
H170 H 0.92313 0.17292 1.00565 0.0
Co171 Co 0.92457 0.19603 0.93425 0.0
C172 C 0.94853 0.20014 0.86591 0.0
O173 O 0.93933 0.18229 0.85596 0.0
N174 N 0.90706 0.19744 0.90187 0.0
C175 C 0.88327 0.20102 0.88213 0.0
C176 C 0.89447 0.20258 0.91254 0.0
C177 C 0.90313 0.19264 0.86489 0.0
N178 N 0.88869 0.19472 0.85205 0.0
O179 O 0.91457 0.16992 0.92019 0.0
H180 H 0.89339 0.20703 0.94082 0.0
H181 H 0.91027 0.18712 0.848 0.0
O182 O 0.94338 0.20573 0.89481 0.0
C183 C 0.9001 0.16061 0.94126 0.0
O184 O 0.89509 0.17018 0.9637 0.0
N185 N 0.93287 0.22069 0.9511 0.0
C186 C 0.94014 0.25507 0.98205 0.0
C187 C 0.94284 0.25352 0.94322 0.0
C188 C 0.93921 0.23615 0.92824 0.0
C189 C 0.93007 0.22197 0.98874 0.0
C190 C 0.93388 0.23906 1.00489 0.0
H191 H 0.94077 0.23495 0.89814 0.0
H192 H 0.92432 0.20949 0.00626 0.0
H193 H 0.96941 0.21532 0.94692 0.0
H194 H 0.95405 0.17802 0.03911 0.0
H195 H 0.87205 0.20436 0.88226 0.0
H196 H 0.9475 0.26556 0.92464 0.0
H197 H 0.93121 0.23954 0.03479 0.0
C198 C 0.86217 0.59664 0.33149 0.0
C199 C 0.86584 0.58379 0.31419 0.0
N200 N 0.87322 0.57718 0.33996 0.0
N201 N 0.86708 0.59827 0.36825 0.0
C202 C 0.87375 0.58618 0.37269 0.0
H203 H 0.85642 0.60448 0.31791 0.0
Co204 Co 0.86463 0.61528 0.40037 0.0
C205 C 0.88517 0.61778 0.47122 0.0
O206 O 0.8905 0.6358 0.47299 0.0
N207 N 0.8614 0.63245 0.43196 0.0
C208 C 0.86059 0.65762 0.45355 0.0
C209 C 0.86529 0.65012 0.42348 0.0
C210 C 0.85367 0.62938 0.46717 0.0
N211 N 0.85338 0.64464 0.48129 0.0
O212 O 0.83897 0.5961 0.41194 0.0
H213 H 0.87112 0.65737 0.3972 0.0
H214 H 0.84863 0.61625 0.48237 0.0
O215 O 0.87499 0.60778 0.44341 0.0
C216 C 0.82864 0.59885 0.38866 0.0
O217 O 0.83703 0.6132 0.36531 0.0
N218 N 0.88883 0.63438 0.38433 0.0
C219 C 0.92103 0.66297 0.34879 0.0
C220 C 0.92264 0.65237 0.37824 0.0
C221 C 0.90631 0.6377 0.39489 0.0
C222 C 0.88715 0.6439 0.35435 0.0
C223 C 0.90297 0.65834 0.33651 0.0
H224 H 0.90794 0.62885 0.41526 0.0
H225 H 0.87327 0.64028 0.34431 0.0
H226 H 0.87921 0.58427 0.3991 0.0
H227 H 0.86306 0.57956 0.2848 0.0
H228 H 0.86278 0.67178 0.45509 0.0
H229 H 0.93636 0.65501 0.38746 0.0
H230 H 0.90107 0.66593 0.31344 0.0
C231 C 0.42623 0.26677 0.34402 0.0
C232 C 0.44009 0.28326 0.32817 0.0
N233 N 0.44238 0.29784 0.34978 0.0
N234 N 0.41972 0.27075 0.37573 0.0
C235 C 0.42972 0.28982 0.37831 0.0
H236 H 0.42112 0.25274 0.33286 0.0
Co237 Co 0.40064 0.25237 0.40656 0.0
C238 C 0.40316 0.27127 0.48196 0.0
O239 O 0.38613 0.25814 0.49173 0.0
N240 N 0.38139 0.23323 0.43684 0.0
C241 C 0.3537 0.21114 0.45968 0.0
C242 C 0.36259 0.22388 0.43084 0.0
C243 C 0.38356 0.22533 0.46882 0.0
N244 N 0.36691 0.21221 0.48387 0.0
O245 O 0.41705 0.24242 0.41902 0.0
H246 H 0.35561 0.22628 0.40736 0.0
H247 H 0.39713 0.22975 0.48169 0.0
O248 O 0.40999 0.2705 0.44971 0.0
C249 C 0.41155 0.22768 0.39853 0.0
O250 O 0.39728 0.223 0.37548 0.0
N251 N 0.3841 0.26062 0.38992 0.0
C252 C 0.35702 0.2667 0.35471 0.0
C253 C 0.36379 0.27398 0.39097 0.0
C254 C 0.37753 0.27096 0.40801 0.0
C255 C 0.3779 0.25379 0.35444 0.0
C256 C 0.36447 0.2567 0.33628 0.0
H257 H 0.38249 0.27681 0.43564 0.0
H258 H 0.38314 0.24555 0.34047 0.0
H259 H 0.42783 0.29767 0.40074 0.0
H260 H 0.44764 0.28436 0.30228 0.0
H261 H 0.33862 0.20232 0.46328 0.0
H262 H 0.35855 0.28198 0.40596 0.0
H263 H 0.35954 0.25067 0.30846 0.0
C264 C 0.75488 0.16663 0.33494 0.0
C265 C 0.73826 0.16314 0.31841 0.0
N266 N 0.72379 0.14954 0.33829 0.0
N267 N 0.75113 0.15541 0.3654 0.0
C268 C 0.73203 0.14508 0.36665 0.0
H269 H 0.76885 0.17673 0.32513 0.0
Co270 Co 0.7697 0.15544 0.39689 0.0
C271 C 0.74503 0.1495 0.46445 0.0
O272 O 0.75176 0.16759 0.47053 0.0
N273 N 0.78835 0.15572 0.42822 0.0
C274 C 0.81352 0.1544 0.44712 0.0
C275 C 0.80203 0.15225 0.41687 0.0
C276 C 0.79191 0.16014 0.46541 0.0
N277 N 0.8072 0.15942 0.47779 0.0
O278 O 0.77751 0.18107 0.41218 0.0
H279 H 0.80359 0.14847 0.38829 0.0
H280 H 0.78375 0.1643 0.48281 0.0
O281 O 0.75132 0.14406 0.43712 0.0
C282 C 0.79148 0.19225 0.3915 0.0
O283 O 0.7982 0.18481 0.36746 0.0
N284 N 0.76348 0.13134 0.37879 0.0
C285 C 0.75864 0.09807 0.34576 0.0
C286 C 0.75551 0.09889 0.3847 0.0
C287 C 0.75801 0.11571 0.40073 0.0
C288 C 0.7668 0.13084 0.34112 0.0
C289 C 0.76428 0.11435 0.324 0.0
H290 H 0.75613 0.1163 0.43088 0.0
H291 H 0.77189 0.14349 0.32431 0.0
H292 H 0.72434 0.13433 0.38767 0.0
H293 H 0.73704 0.17036 0.2939 0.0
H294 H 0.82554 0.15228 0.44645 0.0
H295 H 0.75123 0.0867 0.40262 0.0
H296 H 0.76732 0.11457 0.2941 0.0
C297 C 0.50144 0.08818 0.33751 0.0
C298 C 0.49913 0.10213 0.35386 0.0
N299 N 0.48614 0.10397 0.33391 0.0
N300 N 0.49004 0.08117 0.3071 0.0
C301 C 0.48074 0.09098 0.30584 0.0
H302 H 0.51079 0.08338 0.34751 0.0
Co303 Co 0.48879 0.0621 0.27513 0.0
C304 C 0.48386 0.08196 0.20786 0.0
O305 O 0.50195 0.09273 0.20095 0.0
N306 N 0.48779 0.04331 0.24308 0.0
C307 C 0.48463 0.01632 0.22183 0.0
C308 C 0.48284 0.02551 0.25286 0.0
C309 C 0.49279 0.04468 0.20618 0.0
N310 N 0.49093 0.02841 0.19237 0.0
O311 O 0.51482 0.07864 0.26054 0.0
H312 H 0.47842 0.01968 0.28093 0.0
H313 H 0.49779 0.05744 0.18981 0.0
O314 O 0.47836 0.0703 0.23524 0.0
C315 C 0.52427 0.07384 0.28203 0.0
O316 O 0.51484 0.05944 0.30491 0.0
N317 N 0.46436 0.04529 0.29278 0.0
C318 C 0.43065 0.01753 0.32518 0.0
C319 C 0.43167 0.02162 0.28632 0.0
C320 C 0.44871 0.03563 0.2706 0.0
C321 C 0.46361 0.04138 0.33042 0.0
C322 C 0.4469 0.02776 0.34725 0.0
H323 H 0.44952 0.03815 0.24045 0.0
H324 H 0.47626 0.0485 0.34739 0.0
H325 H 0.47036 0.0888 0.28453 0.0
H326 H 0.50628 0.11008 0.37897 0.0
H327 H 0.48196 1.00197 0.2214 0.0
H328 H 0.41949 0.01395 0.26822 0.0
H329 H 0.44691 0.02478 0.37711 0.0
C330 C 0.94278 0.41169 0.34822 0.0
C331 C 0.92758 0.3979 0.36768 0.0
N332 N 0.91294 0.38912 0.34359 0.0
N333 N 0.93803 0.41155 0.31163 0.0
C334 C 0.91948 0.39829 0.31021 0.0
H335 H 0.95672 0.42057 0.35975 0.0
Co336 Co 0.95496 0.42589 0.27226 0.0
C337 C 0.93516 0.3862 0.23586 0.0
O338 O 0.92837 0.37639 0.26703 0.0
N339 N 0.97187 0.43994 0.23229 0.0
C340 C 0.99368 0.44686 0.18776 0.0
C341 C 0.98432 0.43535 0.21758 0.0
C342 C 0.97365 0.45416 0.20957 0.0
N343 N 0.98703 0.4587 0.18247 0.0
O344 O 0.93721 0.43352 0.25564 0.0
H345 H 0.98606 0.42373 0.22667 0.0
H346 H 0.96511 0.46078 0.21224 0.0
O347 O 0.94483 0.40423 0.23711 0.0
C348 C 0.93941 0.44647 0.27896 0.0
O349 O 0.9525 0.45161 0.30509 0.0
N350 N 0.97325 0.42066 0.29249 0.0
C351 C 1.00277 0.41907 0.32901 0.0
C352 C 0.98781 0.40287 0.31245 0.0
C353 C 0.97313 0.40393 0.29445 0.0
C354 C 0.98763 0.43648 0.30853 0.0
C355 C 1.00253 0.43605 0.32668 0.0
H356 H 0.96182 0.39127 0.28259 0.0
H357 H 0.98746 0.44959 0.30724 0.0
H358 H 0.91126 0.3946 0.28442 0.0
H359 H 0.9278 0.39377 0.39668 0.0
H360 H 1.00396 0.44592 0.16995 0.0
H361 H 0.98721 0.38938 0.31403 0.0
H362 H 0.01383 0.44898 0.33857 0.0
C363 C 0.60356 0.52596 0.3518 0.0
C364 C 0.61862 0.52551 0.36782 0.0
N365 N 0.63172 0.52953 0.34087 0.0
N366 N 0.60717 0.53101 0.31503 0.0
C367 C 0.62404 0.53199 0.30893 0.0
H368 H 0.59057 0.52241 0.36625 0.0
Co369 Co 0.58966 0.53291 0.28188 0.0
C370 C 0.62506 0.55625 0.23911 0.0
O371 O 0.63278 0.56572 0.27037 0.0
N372 N 0.57192 0.53386 0.24981 0.0
C373 C 0.54766 0.53656 0.22995 0.0
C374 C 0.55817 0.53729 0.26094 0.0
C375 C 0.56936 0.53085 0.21204 0.0
N376 N 0.55469 0.53251 0.19908 0.0
O377 O 0.57977 0.50668 0.26843 0.0
H378 H 0.55591 0.54004 0.28986 0.0
H379 H 0.57815 0.52756 0.19441 0.0
O380 O 0.60812 0.54229 0.23962 0.0
C381 C 0.56542 0.4975 0.28989 0.0
O382 O 0.56116 0.50722 0.31357 0.0
N383 N 0.5974 0.55803 0.29826 0.0
C384 C 0.60312 0.59256 0.32659 0.0
C385 C 0.60465 0.5901 0.28768 0.0
C386 C 0.60151 0.57266 0.27402 0.0
C387 C 0.59492 0.56005 0.3358 0.0
C388 C 0.59813 0.57719 0.35062 0.0
H389 H 0.60182 0.57076 0.2438 0.0
H390 H 0.58935 0.54812 0.35441 0.0
H391 H 0.63039 0.53378 0.28139 0.0
H392 H 0.61976 0.52258 0.39724 0.0
H393 H 0.5355 0.53847 0.23038 0.0
H394 H 0.60801 0.60146 0.26793 0.0
H395 H 0.59583 0.57811 0.38057 0.0
C396 C 0.5251 0.93208 0.67163 0.0
C397 C 0.52809 0.91869 0.65459 0.0
N398 N 0.54166 0.91748 0.67384 0.0
N399 N 0.53661 0.93935 0.70178 0.0
C400 C 0.54662 0.93025 0.70227 0.0
H401 H 0.51513 0.93623 0.6624 0.0
Co402 Co 0.53759 0.95806 0.73434 0.0
C403 C 0.54227 0.9377 0.80078 0.0
O404 O 0.52414 0.92708 0.80751 0.0
N405 N 0.53835 0.97655 0.76695 0.0
C406 C 0.54129 1.00337 0.78867 0.0
C407 C 0.54313 0.99433 0.75744 0.0
C408 C 0.53341 0.97503 0.80391 0.0
N409 N 0.53515 0.99121 0.818 0.0
O410 O 0.51164 0.94124 0.74861 0.0
H411 H 0.54746 1.00025 0.72942 0.0
H412 H 0.52855 0.96224 0.82014 0.0
O413 O 0.54797 0.94961 0.7738 0.0
C414 C 0.50184 0.94582 0.72769 0.0
O415 O 0.51089 0.96042 0.70509 0.0
N416 N 0.56201 0.9751 0.71711 0.0
C417 C 0.59588 1.00264 0.68498 0.0
C418 C 0.5948 0.99838 0.72376 0.0
C419 C 0.57767 0.98448 0.73935 0.0
C420 C 0.56278 0.97926 0.67959 0.0
C421 C 0.57958 0.99277 0.66289 0.0
H422 H 0.57684 0.98173 0.76941 0.0
H423 H 0.55012 0.97232 0.66261 0.0
H424 H 0.55752 0.93313 0.72282 0.0
H425 H 0.52056 0.91031 0.6302 0.0
H426 H 0.54384 0.01768 0.78933 0.0
H427 H 0.60703 1.00579 0.74186 0.0
H428 H 0.57964 0.9959 0.6331 0.0
C429 C 0.08302 0.60472 0.66335 0.0
C430 C 0.09819 0.61871 0.6442 0.0
N431 N 0.11281 0.6274 0.66838 0.0
N432 N 0.08774 0.60464 0.69987 0.0
C433 C 0.10627 0.61793 0.70149 0.0
H434 H 0.06908 0.59592 0.65173 0.0
Co435 Co 0.07082 0.59024 0.73924 0.0
C436 C 0.09024 0.63004 0.77522 0.0
O437 O 0.09712 0.63975 0.74397 0.0
N438 N 0.05392 0.57614 0.77919 0.0
C439 C 0.03203 0.56912 0.82359 0.0
C440 C 0.04137 0.58063 0.79376 0.0
C441 C 0.05221 0.56197 0.80197 0.0
N442 N 0.03879 0.55737 0.829 0.0
O443 O 0.08873 0.5829 0.75622 0.0
H444 H 0.03954 0.59218 0.78458 0.0
H445 H 0.06083 0.55544 0.79941 0.0
O446 O 0.08068 0.61199 0.77421 0.0
C447 C 0.08686 0.57006 0.73295 0.0
O448 O 0.07399 0.56485 0.70634 0.0
N449 N 0.05238 0.59518 0.71875 0.0
C450 C 0.02257 0.5963 0.68254 0.0
C451 C 0.03746 0.61262 0.69888 0.0
C452 C 0.0523 0.6118 0.71672 0.0
C453 C 0.0381 0.57925 0.7028 0.0
C454 C 0.02305 0.57945 0.6848 0.0
H455 H 0.06354 0.62455 0.72844 0.0
H456 H 0.03845 0.56623 0.70415 0.0
H457 H 0.11441 0.62148 0.72736 0.0
H458 H 0.0979 0.62307 0.61542 0.0
H459 H 0.02169 0.56998 0.84131 0.0
H460 H 0.03786 0.62603 0.69729 0.0
H461 H 1.01182 0.56645 0.67302 0.0
C462 C 0.423 0.49276 0.66957 0.0
C463 C 0.40667 0.48979 0.6526 0.0
N464 N 0.39289 0.48352 0.6789 0.0
N465 N 0.41984 0.48855 0.70664 0.0
C466 C 0.40134 0.48299 0.71159 0.0
H467 H 0.43637 0.49754 0.65555 0.0
Co468 Co 0.4388 0.49027 0.73909 0.0
C469 C 0.41919 0.46874 0.80854 0.0
O470 O 0.43144 0.46291 0.81128 0.0
N471 N 0.45867 0.49273 0.77111 0.0
C472 C 0.48451 0.49328 0.79251 0.0
C473 C 0.4729 0.48962 0.76189 0.0
C474 C 0.46263 0.49921 0.80731 0.0
N475 N 0.47796 0.4991 0.82143 0.0
O476 O 0.44561 0.51585 0.75184 0.0
H477 H 0.47516 0.48523 0.73459 0.0
H478 H 0.45398 0.50327 0.82342 0.0
O479 O 0.42035 0.47955 0.78114 0.0
C480 C 0.4583 0.52602 0.7277 0.0
O481 O 0.46365 0.51753 0.70321 0.0
N482 N 0.43343 0.4662 0.72197 0.0
C483 C 0.42917 0.43404 0.68478 0.0
C484 C 0.41627 0.43256 0.71275 0.0
C485 C 0.4184 0.44887 0.73042 0.0
C486 C 0.44525 0.46789 0.69316 0.0
C487 C 0.44369 0.45209 0.67486 0.0
H488 H 0.40755 0.44741 0.74968 0.0
H489 H 0.45607 0.48176 0.6842 0.0
H490 H 0.39414 0.47835 0.73843 0.0
H491 H 0.40522 0.49224 0.62304 0.0
H492 H 0.49698 0.49191 0.79315 0.0
H493 H 0.40432 0.41899 0.7201 0.0
H494 H 0.45388 0.45409 0.6532 0.0
C495 C 0.16009 0.41683 0.6831 0.0
C496 C 0.15633 0.42967 0.70008 0.0
N497 N 0.15061 0.43747 0.67339 0.0
N498 N 0.15693 0.41637 0.64562 0.0
C499 C 0.15121 0.42919 0.64042 0.0
H500 H 0.16467 0.40816 0.69742 0.0
Co501 Co 0.15995 0.39962 0.61366 0.0
C502 C 0.13917 0.39658 0.54284 0.0
O503 O 0.134 0.37859 0.54142 0.0
N504 N 0.16376 0.38276 0.58232 0.0
C505 C 0.16574 0.3581 0.5614 0.0
C506 C 0.16092 0.36551 0.59145 0.0
C507 C 0.17107 0.38572 0.54672 0.0
N508 N 0.172 0.37073 0.533 0.0
O509 O 0.18544 0.41909 0.60217 0.0
H510 H 0.15578 0.3585 0.61821 0.0
H511 H 0.17536 0.39857 0.53098 0.0
O512 O 0.14941 0.40677 0.5704 0.0
C513 C 0.19607 0.41782 0.62707 0.0
O514 O 0.18819 0.4046 0.65293 0.0
N515 N 0.13585 0.38019 0.62941 0.0
C516 C 0.10361 0.35141 0.66446 0.0
C517 C 0.10204 0.36227 0.63555 0.0
C518 C 0.11838 0.37704 0.6192 0.0
C519 C 0.1375 0.3704 0.65892 0.0
C520 C 0.12165 0.35586 0.67651 0.0
H521 H 0.11678 0.38614 0.59942 0.0
H522 H 0.15137 0.37401 0.66904 0.0
H523 H 0.14723 0.43213 0.61323 0.0
H524 H 0.15787 0.43304 0.72994 0.0
H525 H 0.16427 0.34422 0.56036 0.0
H526 H 0.08833 0.35978 0.62663 0.0
H527 H 0.12352 0.3481 0.69929 0.0
C528 C 0.60145 0.75476 0.67186 0.0
C529 C 0.58794 0.73844 0.68879 0.0
N530 N 0.58576 0.72365 0.66809 0.0
N531 N 0.60787 0.75045 0.64041 0.0
C532 C 0.59805 0.73134 0.6389 0.0
H533 H 0.60635 0.76888 0.68219 0.0
Co534 Co 0.62678 0.76829 0.60835 0.0
C535 C 0.6064 0.74369 0.54123 0.0
O536 O 0.59552 0.75098 0.53541 0.0
N537 N 0.64548 0.78614 0.5764 0.0
C538 C 0.67245 0.81017 0.55575 0.0
C539 C 0.6632 0.79903 0.58651 0.0
C540 C 0.64421 0.78981 0.53951 0.0
N541 N 0.66047 0.80438 0.52609 0.0
O542 O 0.61028 0.77786 0.59451 0.0
H543 H 0.66899 0.80032 0.61458 0.0
H544 H 0.6314 0.78229 0.52312 0.0
O545 O 0.61836 0.74981 0.56814 0.0
C546 C 0.61513 0.79203 0.61633 0.0
O547 O 0.62951 0.79686 0.63918 0.0
N548 N 0.64358 0.76057 0.6252 0.0
C549 C 0.67121 0.75429 0.65685 0.0
C550 C 0.6669 0.75114 0.61808 0.0
C551 C 0.65297 0.75438 0.60272 0.0
C552 C 0.64777 0.7639 0.66271 0.0
C553 C 0.66134 0.76065 0.67917 0.0
H554 H 0.65028 0.75262 0.57263 0.0
H555 H 0.64091 0.76966 0.67985 0.0
H556 H 0.60012 0.72319 0.61724 0.0
H557 H 0.58017 0.73761 0.71419 0.0
H558 H 0.68692 0.82158 0.55534 0.0
H559 H 0.67433 0.7464 0.59979 0.0
H560 H 0.66454 0.76378 0.70894 0.0
C561 C 0.27153 0.85112 0.6736 0.0
C562 C 0.28804 0.85451 0.69048 0.0
N563 N 0.30264 0.86764 0.67013 0.0
N564 N 0.27548 0.86194 0.64245 0.0
C565 C 0.29459 0.87193 0.64113 0.0
H566 H 0.2575 0.84136 0.68366 0.0
Co567 Co 0.25707 0.86186 0.61041 0.0
C568 C 0.28221 0.86814 0.54326 0.0
O569 O 0.27557 0.85011 0.53664 0.0
N570 N 0.23856 0.86152 0.57865 0.0
C571 C 0.21357 0.86304 0.55921 0.0
C572 C 0.22477 0.86488 0.58978 0.0
C573 C 0.2353 0.85739 0.5413 0.0
N574 N 0.22018 0.85832 0.52861 0.0
O575 O 0.24943 0.83624 0.59529 0.0
H576 H 0.22291 0.86831 0.61845 0.0
H577 H 0.24384 0.85377 0.52374 0.0
O578 O 0.27568 0.87333 0.57058 0.0
C579 C 0.23548 0.82524 0.61621 0.0
O580 O 0.22881 0.83286 0.63992 0.0
N581 N 0.26311 0.88591 0.62834 0.0
C582 C 0.26767 0.91913 0.66099 0.0
C583 C 0.27108 0.91834 0.6222 0.0
C584 C 0.2687 0.90155 0.60635 0.0
C585 C 0.25949 0.88638 0.66586 0.0
C586 C 0.26186 0.90283 0.6828 0.0
H587 H 0.27079 0.90098 0.57627 0.0
H588 H 0.25427 0.87371 0.68267 0.0
H589 H 0.30245 0.88233 0.61961 0.0
H590 H 0.2891 0.84752 0.71555 0.0
H591 H 0.20124 0.86467 0.55976 0.0
H592 H 0.27547 0.93055 0.60424 0.0
H593 H 0.2586 0.9026 0.71259 0.0
C594 C 0.21813 0.26055 0.20283 0.0
C595 C 0.22198 0.26697 0.16522 0.0
C596 C 0.23235 0.26098 0.22569 0.0
C597 C 0.2847 0.28402 0.23179 0.0
H598 H 0.27442 0.24391 0.30271 0.0
C599 C 0.34343 0.27391 0.29778 0.0
C600 C 0.34195 0.26896 0.33622 0.0
C601 C 0.32871 0.27467 0.27942 0.0
C602 C 0.27747 0.25534 0.28338 0.0
H603 H 0.24353 0.27799 0.12163 0.0
H604 H 0.26802 0.2784 0.16091 0.0
H605 H 0.24864 0.24264 0.26561 0.0
H606 H 0.32391 0.26111 0.38566 0.0
H607 H 0.29807 0.26239 0.35347 0.0
H608 H 0.31357 0.29649 0.24892 0.0
C609 C 0.25427 0.27359 0.17335 0.0
C610 C 0.26268 0.25463 0.2621 0.0
C611 C 0.24015 0.27327 0.15068 0.0
C612 C 0.32552 0.26511 0.35609 0.0
C613 C 0.31066 0.26566 0.33758 0.0
C614 C 0.29946 0.28466 0.25283 0.0
C615 C 0.25069 0.26773 0.21135 0.0
C616 C 0.26615 0.26884 0.23563 0.0
C617 C 0.31205 0.27033 0.29894 0.0
C618 C 0.29608 0.27023 0.27856 0.0
H619 H 0.20429 0.25565 0.2149 0.0
H620 H 0.22908 0.25645 0.25486 0.0
H621 H 0.28788 0.29548 0.21243 0.0
H622 H 0.35596 0.27706 0.28176 0.0
H623 H 0.33019 0.27817 0.24959 0.0
C624 C 0.76413 0.96458 0.19265 0.0
C625 C 0.75484 0.95986 0.15747 0.0
C626 C 0.76429 0.97877 0.21531 0.0
C627 C 0.73886 1.00557 0.22863 0.0
H628 H 0.78343 0.04047 0.28505 0.0
C629 C 0.7482 0.07484 0.29193 0.0
C630 C 0.75667 0.08066 0.32774 0.0
C631 C 0.74738 0.05926 0.27368 0.0
C632 C 0.77078 0.03069 0.26986 0.0
H633 H 0.73901 0.96692 0.11807 0.0
H634 H 0.73952 0.99164 0.15698 0.0
H635 H 0.78358 0.01526 0.24823 0.0
H636 H 0.77079 0.07444 0.37256 0.0
H637 H 0.76928 0.04713 0.34074 0.0
H638 H 0.72618 0.02116 0.24972 0.0
C639 C 0.74627 0.9841 0.16773 0.0
C640 C 0.77085 0.0162 0.24872 0.0
C641 C 0.74605 0.96993 0.14524 0.0
C642 C 0.76403 0.07026 0.34514 0.0
C643 C 0.76335 0.05473 0.32671 0.0
C644 C 0.73882 0.02007 0.24959 0.0
C645 C 0.75521 0.98863 0.20328 0.0
C646 C 0.75496 1.00356 0.22741 0.0
C647 C 0.7551 0.04909 0.29062 0.0
C648 C 0.75484 0.03296 0.27017 0.0
H649 H 0.77101 0.95709 0.20301 0.0
H650 H 0.7712 0.98174 0.24261 0.0
H651 H 0.72619 0.99588 0.21339 0.0
H652 H 0.74225 0.08241 0.27783 0.0
H653 H 0.74107 0.05546 0.2458 0.0
C654 C 0.05686 0.80405 0.20792 0.0
C655 C 0.05898 0.80102 0.16948 0.0
C656 C 0.04213 0.78992 0.22936 0.0
C657 C 0.995 0.74829 0.22051 0.0
H658 H 1.00583 0.73133 0.31466 0.0
C659 C 0.93911 0.67954 0.29044 0.0
C660 C 0.93792 0.67853 0.3301 0.0
C661 C 0.95422 0.69483 0.27248 0.0
C662 C 1.00245 0.73605 0.28877 0.0
H663 H 0.0471 0.7809 0.12331 0.0
H664 H 0.0213 0.75663 0.16033 0.0
H665 H 0.03115 0.75813 0.28098 0.0
H666 H 0.95179 0.6926 0.38212 0.0
H667 H 0.978 0.71968 0.35086 0.0
H668 H 0.96636 0.72667 0.22822 0.0
C669 C 0.03104 0.76983 0.17399 0.0
C670 C 0.017 0.7514 0.26946 0.0
C671 C 0.04589 0.78374 0.15282 0.0
C672 C 0.95242 0.69297 0.35148 0.0
C673 C 0.96746 0.70847 0.33349 0.0
C674 C 0.98043 0.73317 0.24 0.0
C675 C 0.02907 0.77268 0.21254 0.0
C676 C 0.01346 0.75748 0.23482 0.0
C677 C 0.96845 0.70974 0.29367 0.0
C678 C 0.98397 0.72656 0.27408 0.0
H679 H 0.06678 0.81716 0.22161 0.0
H680 H 0.04089 0.79251 0.25901 0.0
H681 H 0.9918 0.75284 0.19413 0.0
H682 H 0.92827 0.66846 0.27323 0.0
H683 H 0.95469 0.69492 0.24185 0.0
C684 C 0.68377 0.74356 0.71011 0.0
C685 C 0.68645 0.75191 0.67423 0.0
C686 C 0.69865 0.74329 0.7288 0.0
C687 C 0.74633 0.74922 0.71654 0.0
H688 H 0.75004 0.76041 0.82394 0.0
C689 C 0.80916 0.75899 0.8111 0.0
C690 C 0.80399 0.74979 0.84633 0.0
C691 C 0.79569 0.76009 0.78831 0.0
C692 C 0.74916 0.75713 0.79403 0.0
H693 H 0.70673 0.76591 0.62922 0.0
H694 H 0.73284 0.76548 0.662 0.0
H695 H 0.72477 0.75995 0.78705 0.0
H696 H 0.78064 0.73473 0.88534 0.0
H697 H 0.75742 0.73659 0.8459 0.0
H698 H 0.77083 0.74639 0.72386 0.0
C699 C 0.71915 0.75903 0.67555 0.0
C700 C 0.73461 0.75681 0.77286 0.0
C701 C 0.70418 0.75925 0.65673 0.0
C702 C 0.78516 0.74188 0.85835 0.0
C703 C 0.77182 0.74308 0.83582 0.0
C704 C 0.76096 0.74957 0.73782 0.0
C705 C 0.71666 0.75143 0.71222 0.0
C706 C 0.73279 0.75254 0.73397 0.0
C707 C 0.77687 0.75218 0.80053 0.0
C708 C 0.76235 0.75324 0.77696 0.0
H709 H 0.67019 0.73748 0.72407 0.0
H710 H 0.69607 0.73685 0.75656 0.0
H711 H 0.74532 0.74582 0.68669 0.0
H712 H 0.82353 0.76519 0.80097 0.0
H713 H 0.80005 0.76729 0.76135 0.0
C714 C 0.26075 0.05181 0.8141 0.0
C715 C 0.26967 0.05616 0.84965 0.0
C716 C 0.26079 0.0378 0.79113 0.0
C717 C 0.28642 0.01126 0.7779 0.0
H718 H 0.24228 0.97643 0.7203 0.0
C719 C 0.27776 0.94231 0.7148 0.0
C720 C 0.2695 0.93651 0.67881 0.0
C721 C 0.27842 0.95784 0.73288 0.0
C722 C 0.25482 0.98621 0.73581 0.0
H723 H 0.28501 0.04863 0.88941 0.0
H724 H 0.28485 0.02427 0.84994 0.0
H725 H 0.24175 1.00142 0.75725 0.0
H726 H 0.25561 0.9427 0.63348 0.0
H727 H 0.25685 0.96996 0.66504 0.0
H728 H 0.29938 0.99589 0.75701 0.0
C729 C 0.27825 0.03195 0.83916 0.0
C730 C 0.25452 1.00056 0.75702 0.0
C731 C 0.27826 0.04591 0.86197 0.0
C732 C 0.26221 0.94688 0.66106 0.0
C733 C 0.26274 0.96237 0.67932 0.0
C734 C 0.28668 0.99691 0.75685 0.0
C735 C 0.26971 0.0278 0.80323 0.0
C736 C 0.27024 0.01313 0.7788 0.0
C737 C 0.27075 0.96798 0.71559 0.0
C738 C 0.27082 0.98403 0.7359 0.0
H739 H 0.25404 0.05944 0.80369 0.0
H740 H 0.25416 0.0351 0.76355 0.0
H741 H 0.29896 0.02093 0.79352 0.0
H742 H 0.28365 0.93475 0.72916 0.0
H743 H 0.28454 0.96162 0.76091 0.0
C744 C 0.97749 0.23179 0.85942 0.0
C745 C 0.96465 0.21429 0.8432 0.0
C746 C 0.99244 0.24556 0.83825 0.0
C747 C 1.00718 0.26339 0.74297 0.0
H748 H 0.05764 0.28786 0.78511 0.0
C749 C 0.0722 0.32148 0.66155 0.0
C750 C 0.0867 0.33586 0.68304 0.0
C751 C 0.05707 0.30604 0.67944 0.0
C752 C 0.04362 0.28144 0.77307 0.0
H753 H 0.95737 0.19764 0.79177 0.0
H754 H 0.98342 0.22207 0.75428 0.0
H755 H 0.0319 0.26192 0.81911 0.0
H756 H 0.09629 0.34588 0.73994 0.0
H757 H 0.06968 0.31955 0.77115 0.0
H758 H 0.01866 0.28335 0.69764 0.0
C759 C 0.98191 0.22491 0.78364 0.0
C760 C 0.0289 0.26644 0.7925 0.0
C761 C 0.9671 0.21092 0.80513 0.0
C762 C 0.08544 0.33485 0.72268 0.0
C763 C 0.07022 0.31962 0.74053 0.0
C764 C 0.02188 0.27864 0.72373 0.0
C765 C 0.99475 0.24235 0.8001 0.0
C766 C 1.01051 0.25736 0.77786 0.0
C767 C 0.05597 0.30477 0.71925 0.0
C768 C 0.0403 0.28803 0.73874 0.0
H769 H 0.97601 0.23491 0.88861 0.0
H770 H 1.00202 0.25892 0.85157 0.0
H771 H 0.99308 0.25672 0.73121 0.0
H772 H 0.07291 0.32187 0.63092 0.0
H773 H 0.04653 0.29486 0.66198 0.0
C774 C 0.90027 0.61942 0.53317 0.0
C775 C 0.89409 0.61063 0.49777 0.0
C776 C 0.91191 0.61563 0.55589 0.0
C777 C 0.93194 0.584 0.56905 0.0
H778 H 0.97356 0.62909 0.6129 0.0
C779 C 0.99896 0.58644 0.62948 0.0
C780 C 1.00672 0.59683 0.66294 0.0
C781 C 0.9841 0.58693 0.61103 0.0
C782 C 0.96191 0.6163 0.60133 0.0
H783 H 0.89441 0.59016 0.45935 0.0
H784 H 0.91505 0.5837 0.4988 0.0
H785 H 0.94905 0.63128 0.57857 0.0
H786 H 1.00457 0.61556 0.70355 0.0
H787 H 0.97876 0.61651 0.67122 0.0
H788 H 0.94515 0.56913 0.59143 0.0
C789 C 0.91071 0.59339 0.50922 0.0
C790 C 0.94779 0.61754 0.58166 0.0
C791 C 0.89885 0.59706 0.48657 0.0
C792 C 0.99918 0.60765 0.67752 0.0
C793 C 0.98434 0.60816 0.65902 0.0
C794 C 0.94614 0.58277 0.58872 0.0
C795 C 0.91789 0.60313 0.5436 0.0
C796 C 0.93258 0.60142 0.56529 0.0
C797 C 0.97666 0.59785 0.62547 0.0
C798 C 0.9613 0.59893 0.60509 0.0
H799 H 0.89664 0.62978 0.54276 0.0
H800 H 0.9167 0.62298 0.58266 0.0
H801 H 0.92037 0.57129 0.5571 0.0
H802 H 1.0046 0.57819 0.61709 0.0
H803 H 0.97873 0.57906 0.58494 0.0
C804 C 0.42236 0.40041 0.68565 0.0
C805 C 0.42743 0.41705 0.66537 0.0
C806 C 0.4216 0.3848 0.66759 0.0
C807 C 0.43916 0.37138 0.58324 0.0
H808 H 0.39703 0.32136 0.6026 0.0
C809 C 0.42101 0.30653 0.4884 0.0
C810 C 0.41208 0.2886 0.50525 0.0
C811 C 0.42537 0.3226 0.50995 0.0
C812 C 0.40912 0.33516 0.59733 0.0
H813 H 0.43499 0.42997 0.60973 0.0
H814 H 0.43378 0.40287 0.5785 0.0
H815 H 0.39913 0.34829 0.63619 0.0
H816 H 0.402 0.27354 0.55821 0.0
H817 H 0.41026 0.30152 0.59606 0.0
H818 H 0.44911 0.35825 0.5442 0.0
C819 C 0.43076 0.40202 0.60852 0.0
C820 C 0.41026 0.35063 0.61656 0.0
C821 C 0.43144 0.41757 0.62648 0.0
C822 C 0.40881 0.2872 0.54445 0.0
C823 C 0.41335 0.30322 0.56604 0.0
C824 C 0.43808 0.35587 0.56411 0.0
C825 C 0.42593 0.38548 0.62887 0.0
C826 C 0.4252 0.36895 0.60953 0.0
C827 C 0.42101 0.32105 0.54884 0.0
C828 C 0.42296 0.33755 0.5707 0.0
H829 H 0.4194 0.39958 0.71568 0.0
H830 H 0.41796 0.37231 0.68415 0.0
H831 H 0.451 0.38529 0.57756 0.0
H832 H 0.42336 0.30804 0.4582 0.0
H833 H 0.43113 0.33604 0.4956 0.0
C834 C 0.62388 0.03559 0.68453 0.0
C835 C 0.61353 0.01774 0.66743 0.0
C836 C 0.63938 0.05031 0.66594 0.0
C837 C 0.67395 0.06028 0.58904 0.0
H838 H 0.67654 0.10882 0.5832 0.0
C839 C 0.72103 0.116 0.47943 0.0
C840 C 0.73043 0.13515 0.48979 0.0
C841 C 0.70764 0.10226 0.50341 0.0
C842 C 0.67624 0.09547 0.58498 0.0
H843 H 0.61183 1.00115 0.61818 0.0
H844 H 0.63885 0.02671 0.5859 0.0
H845 H 0.65225 0.08376 0.62195 0.0
H846 H 0.73294 0.15487 0.53356 0.0
H847 H 0.7097 0.13081 0.57578 0.0
H848 H 0.69786 0.07186 0.55215 0.0
C849 C 0.63501 0.0294 0.61361 0.0
C850 C 0.66228 0.08108 0.60723 0.0
C851 C 0.61944 0.01477 0.63198 0.0
C852 C 0.72593 0.14025 0.52465 0.0
C853 C 0.71255 0.12644 0.54881 0.0
C854 C 0.68794 0.07466 0.56702 0.0
C855 C 0.64502 0.04743 0.63007 0.0
C856 C 0.66079 0.06322 0.60904 0.0
C857 C 0.7033 0.10723 0.53859 0.0
C858 C 0.6891 0.09236 0.56414 0.0
H859 H 0.61959 0.03835 0.71169 0.0
H860 H 0.6469 0.06399 0.67952 0.0
H861 H 0.6734 0.04679 0.59033 0.0
H862 H 0.72393 0.11156 0.45258 0.0
H863 H 0.70053 0.08771 0.49408 0.0
C864 C 0.47425 0.09159 0.14777 0.0
C865 C 0.46946 0.08255 0.18318 0.0
C866 C 0.46027 0.09115 0.12409 0.0
C867 C 0.40831 0.06423 0.10854 0.0
H868 H 0.41694 0.10819 0.05124 0.0
C869 C 0.34763 0.07167 0.04428 0.0
C870 C 0.3502 0.08012 0.00849 0.0
C871 C 0.3625 0.0711 0.06244 0.0
C872 C 0.41438 0.0957 0.06664 0.0
H873 H 0.44628 0.06659 0.22198 0.0
H874 H 0.42217 0.06606 0.18128 0.0
H875 H 0.44244 0.1094 0.08922 0.0
H876 H 0.37041 0.09433 0.96347 0.0
H877 H 0.39645 0.09327 0.9952 0.0
H878 H 0.38017 0.05065 0.08659 0.0
C879 C 0.43658 0.07306 0.17116 0.0
C880 C 0.42902 0.09639 0.08845 0.0
C881 C 0.45048 0.07345 0.19466 0.0
C882 C 0.36793 0.08759 0.99089 0.0
C883 C 0.3829 0.08717 0.00924 0.0
C884 C 0.39369 0.06357 0.08692 0.0
C885 C 0.44121 0.0817 0.13534 0.0
C886 C 0.42609 0.08075 0.11017 0.0
C887 C 0.38041 0.07907 0.04542 0.0
C888 C 0.39644 0.07937 0.06609 0.0
H889 H 0.48873 0.09869 0.13801 0.0
H890 H 0.46437 0.09788 0.09663 0.0
H891 H 0.40562 0.05174 0.12411 0.0
H892 H 0.33413 0.06568 0.0585 0.0
H893 H 0.3601 0.0649 0.09039 0.0
C894 C 0.94795 0.385 0.17182 0.0
C895 C 0.93447 0.37605 0.20059 0.0
C896 C 0.94892 0.37457 0.14129 0.0
C897 C 0.92253 0.32933 0.08958 0.0
H898 H 0.97163 0.33428 0.07288 0.0
C899 C 0.93365 0.28197 0.98298 0.0
C900 C 0.94267 0.27282 0.99884 0.0
C901 C 0.93384 0.29713 1.00186 0.0
C902 C 0.95786 0.33284 0.07702 0.0
H903 H 0.91076 0.34941 0.21868 0.0
H904 H 0.91225 0.33135 0.16521 0.0
H905 H 0.96858 0.35599 0.11602 0.0
H906 H 0.95974 0.27293 0.04571 0.0
H907 H 0.96033 0.29953 0.07836 0.0
H908 H 0.91172 0.30581 0.05148 0.0
C909 C 0.92214 0.34637 0.16632 0.0
C910 C 0.95613 0.34535 0.10147 0.0
C911 C 0.92135 0.35671 0.19707 0.0
C912 C 0.95264 0.2797 0.03293 0.0
C913 C 0.95306 0.29499 0.05148 0.0
C914 C 0.9243 0.31696 0.06477 0.0
C915 C 0.93622 0.35507 0.13857 0.0
C916 C 0.93837 0.34345 0.10872 0.0
C917 C 0.9433 0.30361 0.03663 0.0
C918 C 0.94191 0.31829 0.05892 0.0
H919 H 0.95828 0.39987 0.17371 0.0
H920 H 0.95983 0.38167 0.12016 0.0
H921 H 0.90869 0.32759 0.09444 0.0
H922 H 0.92574 0.27686 0.95689 0.0
H923 H 0.92629 0.30357 0.98964 0.0
C924 C 0.65545 0.57112 0.20405 0.0
C925 C 0.63578 0.56323 0.20346 0.0
C926 C 0.66636 0.58083 0.17264 0.0
C927 C 0.66747 0.61097 0.09726 0.0
H928 H 0.71007 0.60707 0.06064 0.0
C929 C 0.73476 0.67279 0.032 0.0
C930 C 0.74277 0.66916 1.00019 0.0
C931 C 0.7191 0.65811 0.05013 0.0
C932 C 0.69809 0.60819 0.07017 0.0
H933 H 0.61197 0.55885 0.16934 0.0
H934 H 0.6312 0.57637 0.11435 0.0
H935 H 0.68743 0.58321 0.10413 0.0
H936 H 0.74048 0.64742 0.96192 0.0
H937 H 0.71324 0.62161 0.99418 0.0
H938 H 0.67868 0.6365 0.06485 0.0
C939 C 0.6381 0.57474 0.13903 0.0
C940 C 0.6852 0.59459 0.09518 0.0
C941 C 0.6271 0.5646 0.17029 0.0
C942 C 0.73447 0.65062 0.9862 0.0
C943 C 0.719 0.63586 1.00479 0.0
C944 C 0.68055 0.62475 0.07275 0.0
C945 C 0.65787 0.58324 0.1402 0.0
C946 C 0.66993 0.59601 0.10951 0.0
C947 C 0.71131 0.63943 0.03726 0.0
C948 C 0.69618 0.62369 0.05947 0.0
H949 H 0.66249 0.57032 0.22936 0.0
H950 H 0.68155 0.58734 0.17452 0.0
H951 H 0.65594 0.61253 0.10811 0.0
H952 H 0.74089 0.68695 0.04335 0.0
H953 H 0.7136 0.66128 0.07526 0.0
C954 C 0.55153 0.92681 0.85957 0.0
C955 C 0.55645 0.93632 0.82464 0.0
C956 C 0.56527 0.92611 0.88213 0.0
C957 C 0.61246 0.93065 0.87629 0.0
H958 H 0.6154 0.9407 0.9841 0.0
C959 C 0.67723 0.94316 0.96187 0.0
C960 C 0.67431 0.93489 0.99789 0.0
C961 C 0.66253 0.94356 0.94268 0.0
C962 C 0.61466 0.93765 0.95411 0.0
H963 H 0.57967 0.9523 0.78589 0.0
H964 H 0.60342 0.95106 0.82496 0.0
H965 H 0.58992 0.94005 0.94678 0.0
H966 H 0.65376 0.92107 0.04252 0.0
H967 H 0.62794 0.92161 0.00884 0.0
H968 H 0.637 0.92811 0.88332 0.0
C969 C 0.58898 0.94409 0.83499 0.0
C970 C 0.60004 0.93727 0.93273 0.0
C971 C 0.57535 0.94492 0.81267 0.0
C972 C 0.65649 0.92768 0.01492 0.0
C973 C 0.64169 0.92798 0.99556 0.0
C974 C 0.62697 0.93095 0.89759 0.0
C975 C 0.58416 0.93471 0.87001 0.0
C976 C 0.59892 0.93401 0.89346 0.0
C977 C 0.64442 0.93558 0.95883 0.0
C978 C 0.62846 0.93471 0.93671 0.0
H979 H 0.53712 0.92007 0.86965 0.0
H980 H 0.56107 0.91865 0.90885 0.0
H981 H 0.61181 0.92772 0.84625 0.0
H982 H 0.69088 0.94912 0.94825 0.0
H983 H 0.66534 0.95001 0.91492 0.0
C984 C 0.07683 0.63143 0.83841 0.0
C985 C 0.09059 0.64029 0.8101 0.0
C986 C 0.07553 0.64197 0.86836 0.0
C987 C 0.10137 0.68732 0.91978 0.0
H988 H 0.05211 0.68237 0.93391 0.0
C989 C 0.08899 0.73406 0.02569 0.0
C990 C 0.08006 0.74327 0.00967 0.0
C991 C 0.08909 0.7191 0.00662 0.0
C992 C 0.06592 0.68383 0.93046 0.0
H993 H 0.11445 0.66688 0.79225 0.0
H994 H 0.11239 0.68513 0.84475 0.0
H995 H 0.05561 0.66068 0.89148 0.0
H996 H 0.06345 0.74344 0.96216 0.0
H997 H 0.06339 0.71717 0.92911 0.0
H998 H 0.11178 0.71078 0.95794 0.0
C999 C 0.10253 0.6701 0.84371 0.0
C1000 C 0.06791 0.67132 0.90642 0.0
C1001 C 0.10365 0.65965 0.81353 0.0
C1002 C 0.07049 0.73664 0.9751 0.0
C1003 C 0.07037 0.72154 0.95631 0.0
C1004 C 0.09935 0.69967 0.94418 0.0
C1005 C 0.08818 0.66149 0.87095 0.0
C1006 C 0.08573 0.67319 0.90016 0.0
C1007 C 0.08002 0.71287 0.97143 0.0
C1008 C 0.08168 0.69833 0.94914 0.0
H1009 H 0.06654 0.61655 0.83657 0.0
H1010 H 0.06442 0.63493 0.88911 0.0
H1011 H 0.11526 0.68904 0.91567 0.0
H1012 H 0.0966 0.73897 0.05215 0.0
H1013 H 0.09655 0.71262 0.01906 0.0
C1014 C 0.29096 0.36078 0.01797 0.0
C1015 C 0.2759 0.34604 0.99806 0.0
C1016 C 0.30648 0.37512 0.99861 0.0
C1017 C 0.32927 0.38736 0.9024 0.0
H1018 H 0.35579 0.43795 0.94416 0.0
C1019 C 0.38416 0.45184 0.81713 0.0
C1020 C 0.40227 0.45954 0.83287 0.0
C1021 C 0.36824 0.43957 0.83842 0.0
C1022 C 0.34841 0.42388 0.9322 0.0
H1023 H 0.26604 0.3347 0.94172 0.0
H1024 H 0.29201 0.36005 0.90836 0.0
H1025 H 0.3292 0.4129 0.97876 0.0
H1026 H 0.41794 0.46138 0.88357 0.0
H1027 H 0.39002 0.44061 0.92132 0.0
H1028 H 0.34817 0.39869 0.85522 0.0
C1029 C 0.29227 0.36044 0.93898 0.0
C1030 C 0.3333 0.40941 0.95217 0.0
C1031 C 0.27702 0.34595 0.95829 0.0
C1032 C 0.4041 0.45572 0.87092 0.0
C1033 C 0.38817 0.44387 0.89247 0.0
C1034 C 0.34403 0.4019 0.88211 0.0
C1035 C 0.30728 0.37531 0.95873 0.0
C1036 C 0.32351 0.39087 0.93766 0.0
C1037 C 0.37017 0.4352 0.87603 0.0
C1038 C 0.35379 0.42025 0.89686 0.0
H1039 H 0.29065 0.36154 0.04853 0.0
H1040 H 0.31784 0.38603 0.0151 0.0
H1041 H 0.3226 0.3733 0.8905 0.0
H1042 H 0.38237 0.45425 0.7877 0.0
H1043 H 0.35447 0.433 0.82515 0.0
C1044 C 0.02616 0.42867 0.38243 0.0
C1045 C 0.01841 0.41829 0.34897 0.0
C1046 C 0.04083 0.42797 0.40123 0.0
C1047 C 0.06241 0.39808 0.41198 0.0
H1048 H 0.10421 0.44296 0.45599 0.0
C1049 C 0.12366 0.39445 0.48111 0.0
C1050 C 0.13006 0.40351 0.51622 0.0
C1051 C 0.11201 0.39819 0.4583 0.0
C1052 C 0.09257 0.43028 0.44413 0.0
H1053 H 0.02036 0.39929 0.30877 0.0
H1054 H 0.04582 0.39795 0.34171 0.0
H1055 H 0.07971 0.44537 0.42118 0.0
H1056 H 0.13004 0.42432 0.55409 0.0
H1057 H 0.1094 0.43071 0.51448 0.0
H1058 H 0.07492 0.38288 0.43531 0.0
C1059 C 0.04039 0.40649 0.35363 0.0
C1060 C 0.07852 0.43166 0.42417 0.0
C1061 C 0.02575 0.40722 0.33477 0.0
C1062 C 0.12545 0.41722 0.52707 0.0
C1063 C 0.11359 0.42086 0.50433 0.0
C1064 C 0.07638 0.3967 0.43196 0.0
C1065 C 0.04808 0.41681 0.38715 0.0
C1066 C 0.06326 0.41556 0.40786 0.0
C1067 C 0.10624 0.41092 0.47019 0.0
C1068 C 0.09168 0.41276 0.44826 0.0
H1069 H 0.02067 0.43711 0.39458 0.0
H1070 H 0.04621 0.43586 0.42729 0.0
H1071 H 0.05069 0.38534 0.40046 0.0
H1072 H 0.12716 0.38396 0.47178 0.0
H1073 H 0.10709 0.39068 0.43173 0.0
C1074 C 0.59577 0.72425 0.48134 0.0
C1075 C 0.60555 0.72876 0.51596 0.0
C1076 C 0.59589 0.7107 0.45712 0.0
C1077 C 0.62317 0.6865 0.4374 0.0
H1078 H 0.57778 0.64921 0.38645 0.0
C1079 C 0.61547 0.61775 0.37651 0.0
C1080 C 0.60558 0.61053 0.34243 0.0
C1081 C 0.61633 0.63355 0.39368 0.0
C1082 C 0.59066 0.6597 0.39999 0.0
H1083 H 0.62247 0.72193 0.55284 0.0
H1084 H 0.62258 0.69844 0.51108 0.0
H1085 H 0.5771 0.67387 0.42434 0.0
H1086 H 0.58915 0.61455 0.29923 0.0
H1087 H 0.59076 0.64234 0.32917 0.0
H1088 H 0.63666 0.67219 0.4137 0.0
C1089 C 0.6152 0.70564 0.50203 0.0
C1090 C 0.59026 0.67384 0.42175 0.0
C1091 C 0.61507 0.71911 0.52611 0.0
C1092 C 0.597 0.61985 0.32533 0.0
C1093 C 0.59775 0.63563 0.3427 0.0
C1094 C 0.62356 0.67239 0.41575 0.0
C1095 C 0.6058 0.70137 0.46702 0.0
C1096 C 0.60643 0.6872 0.44133 0.0
C1097 C 0.60726 0.64255 0.37732 0.0
C1098 C 0.60723 0.6586 0.39731 0.0
H1099 H 0.58829 0.73141 0.47264 0.0
H1100 H 0.58855 0.7078 0.43031 0.0
H1101 H 0.63601 0.69681 0.45133 0.0
H1102 H 0.62234 0.61097 0.39027 0.0
H1103 H 0.62363 0.63834 0.42048 0.0
C1104 C 0.30166 0.87799 0.48346 0.0
C1105 C 0.29694 0.88274 0.51846 0.0
C1106 C 0.31509 0.89204 0.45976 0.0
C1107 C 0.33924 0.94394 0.44311 0.0
H1108 H 0.37536 0.93578 0.38743 0.0
C1109 C 0.40715 1.00487 0.37834 0.0
C1110 C 0.41317 1.00215 0.34279 0.0
C1111 C 0.39177 0.99001 0.3967 0.0
C1112 C 0.36521 0.9382 0.40238 0.0
H1113 H 0.30316 0.90598 0.55646 0.0
H1114 H 0.32661 0.93027 0.51575 0.0
H1115 H 0.35123 0.9103 0.42569 0.0
H1116 H 0.40748 0.98171 0.29837 0.0
H1117 H 0.3805 0.95568 0.33047 0.0
H1118 H 0.35347 0.97194 0.42045 0.0
C1119 C 0.31963 0.91579 0.50595 0.0
C1120 C 0.35134 0.92358 0.42434 0.0
C1121 C 0.3062 0.9018 0.52947 0.0
C1122 C 0.40311 0.9843 0.3256 0.0
C1123 C 0.38779 0.96934 0.34417 0.0
C1124 C 0.35313 0.95855 0.42135 0.0
C1125 C 0.32416 0.91117 0.47059 0.0
C1126 C 0.33832 0.92632 0.44543 0.0
C1127 C 0.38205 0.97198 0.38013 0.0
C1128 C 0.36644 0.95596 0.40106 0.0
H1129 H 0.29476 0.86345 0.47406 0.0
H1130 H 0.31809 0.88794 0.43264 0.0
H1131 H 0.3292 0.94648 0.45818 0.0
H1132 H 0.41452 0.01849 0.39223 0.0
H1133 H 0.38785 0.99253 0.42448 0.0
C1134 C 0.17442 0.37657 0.46351 0.0
C1135 C 0.17706 0.36779 0.49528 0.0
C1136 C 0.17765 0.37219 0.42676 0.0
C1137 C 0.18043 0.33446 0.37315 0.0
H1138 H 0.20306 0.3724 0.29476 0.0
C1139 C 0.20059 0.31787 0.22589 0.0
C1140 C 0.198 0.32658 0.19394 0.0
C1141 C 0.19825 0.323 0.2626 0.0
C1142 C 0.1965 0.36155 0.31614 0.0
H1143 H 0.18615 0.34825 0.51306 0.0
H1144 H 0.19179 0.34073 0.44949 0.0
H1145 H 0.1989 0.38156 0.35821 0.0
H1146 H 0.19025 0.34712 0.17601 0.0
H1147 H 0.18606 0.3559 0.2395 0.0
H1148 H 0.17789 0.31443 0.33115 0.0
C1149 C 0.1868 0.35065 0.45275 0.0
C1150 C 0.19413 0.36684 0.35264 0.0
C1151 C 0.18359 0.35502 0.48934 0.0
C1152 C 0.19275 0.34035 0.19978 0.0
C1153 C 0.19036 0.34543 0.23638 0.0
C1154 C 0.18276 0.32917 0.33666 0.0
C1155 C 0.1836 0.35892 0.42084 0.0
C1156 C 0.18609 0.35338 0.38173 0.0
C1157 C 0.19319 0.33694 0.26841 0.0
C1158 C 0.19083 0.34262 0.30755 0.0
H1159 H 0.16921 0.3863 0.46691 0.0
H1160 H 0.1749 0.37876 0.40293 0.0
H1161 H 0.17387 0.32361 0.39455 0.0
H1162 H 0.20483 0.30737 0.2226 0.0
H1163 H 0.20079 0.31628 0.28645 0.0
C1164 C 0.6538 0.80154 0.45702 0.0
C1165 C 0.66424 0.81235 0.48834 0.0
C1166 C 0.65767 0.80923 0.42047 0.0
C1167 C 0.68092 0.85499 0.36896 0.0
H1168 H 0.68006 0.82441 0.28429 0.0
C1169 C 0.70708 0.88645 0.21921 0.0
C1170 C 0.69655 0.87558 0.18802 0.0
C1171 C 0.70329 0.87881 0.25582 0.0
C1172 C 0.68017 0.83311 0.30752 0.0
H1173 H 0.68678 0.83998 0.50539 0.0
H1174 H 0.69372 0.8532 0.44191 0.0
H1175 H 0.67289 0.81095 0.34775 0.0
H1176 H 0.67395 0.84793 0.17124 0.0
H1177 H 0.66717 0.83481 0.23479 0.0
H1178 H 0.68821 0.87715 0.32872 0.0
C1179 C 0.68241 0.8388 0.44558 0.0
C1180 C 0.67603 0.82536 0.34399 0.0
C1181 C 0.67857 0.83111 0.48206 0.0
C1182 C 0.68223 0.85684 0.19447 0.0
C1183 C 0.67848 0.84921 0.23099 0.0
C1184 C 0.68507 0.86274 0.33249 0.0
C1185 C 0.67206 0.82797 0.41422 0.0
C1186 C 0.67634 0.83619 0.37525 0.0
C1187 C 0.68892 0.86008 0.26222 0.0
C1188 C 0.68474 0.8519 0.30123 0.0
H1189 H 0.64277 0.78702 0.4606 0.0
H1190 H 0.64926 0.80051 0.39711 0.0
H1191 H 0.68102 0.86368 0.39219 0.0
H1192 H 0.7181 0.90095 0.21548 0.0
H1193 H 0.71177 0.88756 0.27908 0.0
C1194 C 0.15242 0.81344 0.20848 0.0
C1195 C 0.14256 0.82245 0.1961 0.0
C1196 C 0.16099 0.81734 0.24419 0.0
C1197 C 0.17831 0.85314 0.32135 0.0
H1198 H 0.17778 0.813 0.38045 0.0
C1199 C 0.202 0.86317 0.47817 0.0
C1200 C 0.21241 0.85478 0.4907 0.0
C1201 C 0.19399 0.85943 0.44196 0.0
C1202 C 0.17827 0.82443 0.36415 0.0
H1203 H 0.13411 0.84272 0.21231 0.0
H1204 H 0.14862 0.84916 0.27472 0.0
H1205 H 0.16247 0.80593 0.31867 0.0
H1206 H 0.22253 0.83585 0.4745 0.0
H1207 H 0.2087 0.82945 0.41115 0.0
H1208 H 0.19398 0.8716 0.36701 0.0
C1209 C 0.14996 0.83925 0.25651 0.0
C1210 C 0.16947 0.82038 0.32863 0.0
C1211 C 0.1414 0.83536 0.22075 0.0
C1212 C 0.21474 0.84267 0.4658 0.0
C1213 C 0.20662 0.83884 0.42957 0.0
C1214 C 0.18705 0.85718 0.35691 0.0
C1215 C 0.15995 0.83035 0.26872 0.0
C1216 C 0.16933 0.83466 0.30671 0.0
C1217 C 0.19609 0.84714 0.41719 0.0
C1218 C 0.18713 0.84288 0.37886 0.0
H1219 H 0.15348 0.80325 0.19069 0.0
H1220 H 0.1687 0.81033 0.25229 0.0
H1221 H 0.17883 0.8646 0.30511 0.0
H1222 H 0.20008 0.87274 0.49629 0.0
H1223 H 0.18585 0.86595 0.43363 0.0
C1224 C 0.82876 0.67265 0.81391 0.0
C1225 C 0.82446 0.68712 0.81951 0.0
C1226 C 0.83147 0.66767 0.77744 0.0
C1227 C 0.84194 0.68527 0.67812 0.0
H1228 H 0.82358 0.63266 0.65417 0.0
C1229 C 0.8423 0.66086 0.52482 0.0
C1230 C 0.84803 0.64746 0.51882 0.0
C1231 C 0.83881 0.66501 0.56135 0.0
C1232 C 0.82897 0.64743 0.66044 0.0
H1233 H 0.81958 0.70762 0.79055 0.0
H1234 H 0.82419 0.6989 0.727 0.0
H1235 H 0.81886 0.64145 0.71756 0.0
H1236 H 0.85412 0.62761 0.54699 0.0
H1237 H 0.8479 0.63477 0.61088 0.0
H1238 H 0.85199 0.69124 0.621 0.0
C1239 C 0.82576 0.69156 0.75094 0.0
C1240 C 0.82628 0.65251 0.6969 0.0
C1241 C 0.8231 0.69658 0.78749 0.0
C1242 C 0.84955 0.63785 0.55043 0.0
C1243 C 0.84602 0.64201 0.58712 0.0
C1244 C 0.84458 0.68019 0.64168 0.0
C1245 C 0.82994 0.67698 0.74534 0.0
C1246 C 0.83272 0.67152 0.70632 0.0
C1247 C 0.84089 0.65589 0.59313 0.0
C1248 C 0.83811 0.66119 0.63224 0.0
H1249 H 0.83027 0.66526 0.83779 0.0
H1250 H 0.83504 0.65666 0.7745 0.0
H1251 H 0.84743 0.70007 0.68432 0.0
H1252 H 0.84061 0.66827 0.5012 0.0
H1253 H 0.83446 0.67544 0.56466 0.0
C1254 C 0.34476 0.15714 0.81308 0.0
C1255 C 0.329 0.13925 0.82024 0.0
C1256 C 0.3489 0.16456 0.77639 0.0
C1257 C 0.33895 0.15095 0.67467 0.0
H1258 H 0.35925 0.20465 0.66064 0.0
C1259 C 0.3473 0.18552 0.52685 0.0
C1260 C 0.36362 0.20304 0.52033 0.0
C1261 C 0.34338 0.17727 0.56288 0.0
C1262 C 0.3538 0.18965 0.66404 0.0
H1263 H 0.3053 0.1152 0.79352 0.0
H1264 H 0.3122 0.12836 0.72987 0.0
H1265 H 0.35136 0.19131 0.72404 0.0
H1266 H 0.3887 0.22552 0.54686 0.0
H1267 H 0.38198 0.21108 0.60951 0.0
H1268 H 0.34118 0.14935 0.61442 0.0
C1269 C 0.32156 0.13654 0.75268 0.0
C1270 C 0.34927 0.18197 0.70051 0.0
C1271 C 0.31745 0.12906 0.78944 0.0
C1272 C 0.37611 0.21193 0.55067 0.0
C1273 C 0.37213 0.20375 0.58676 0.0
C1274 C 0.34339 0.15864 0.63812 0.0
C1275 C 0.33736 0.15441 0.7456 0.0
C1276 C 0.34185 0.1625 0.70644 0.0
C1277 C 0.35562 0.18639 0.59345 0.0
C1278 C 0.35094 0.17811 0.63234 0.0
H1279 H 0.35393 0.16559 0.83582 0.0
H1280 H 0.36134 0.17823 0.77218 0.0
H1281 H 0.33355 0.13596 0.67802 0.0
H1282 H 0.33745 0.17823 0.50409 0.0
H1283 H 0.33048 0.16396 0.567 0.0
C1284 C 0.83429 0.16836 0.52108 0.0
C1285 C 0.81532 0.16336 0.51549 0.0
C1286 C 0.84212 0.17181 0.55745 0.0
C1287 C 0.82912 0.16289 0.65935 0.0
H1288 H 0.88087 0.20252 0.67482 0.0
C1289 C 0.86166 0.18636 0.80903 0.0
C1290 C 0.88046 0.19075 0.8145 0.0
C1291 C 0.85373 0.18286 0.77274 0.0
C1292 C 0.86647 0.19124 0.67098 0.0
H1293 H 0.7898 0.15814 0.5445 0.0
H1294 H 0.80354 0.16452 0.60778 0.0
H1295 H 0.867 0.19716 0.61182 0.0
H1296 H 0.9056 0.19487 0.78555 0.0
H1297 H 0.89171 0.18856 0.72229 0.0
H1298 H 0.82858 0.15706 0.71859 0.0
C1299 C 0.81232 0.16554 0.58393 0.0
C1300 C 0.85848 0.18815 0.63475 0.0
C1301 C 0.80447 0.16208 0.54748 0.0
C1302 C 0.89106 0.19141 0.78256 0.0
C1303 C 0.88314 0.18798 0.74617 0.0
C1304 C 0.8371 0.16602 0.6956 0.0
C1305 C 0.83127 0.17041 0.58947 0.0
C1306 C 0.83969 0.17391 0.62834 0.0
C1307 C 0.86436 0.18369 0.74074 0.0
C1308 C 0.8559 0.18023 0.70195 0.0
H1309 H 0.84323 0.16975 0.49733 0.0
H1310 H 0.85667 0.1753 0.56044 0.0
H1311 H 0.81473 0.15159 0.65553 0.0
H1312 H 0.85295 0.18548 0.83285 0.0
H1313 H 0.83931 0.17978 0.76974 0.0
C1314 C 0.50802 0.03956 0.13118 0.0
C1315 C 0.49518 0.02474 0.15451 0.0
C1316 C 0.51233 0.03591 0.09483 0.0
C1317 C 0.49455 0.99958 0.01869 0.0
H1318 H 0.54616 0.02733 0.98278 0.0
C1319 C 0.51817 0.97985 0.87926 0.0
C1320 C 0.53095 0.99474 0.856 0.0
C1321 C 0.51388 0.98339 0.91573 0.0
C1322 C 0.53163 0.01958 0.99214 0.0
H1323 H 0.47656 0.99444 0.15712 0.0
H1324 H 0.4843 0.98808 0.09429 0.0
H1325 H 0.53846 0.03385 0.04562 0.0
H1326 H 0.54948 0.02507 0.85364 0.0
H1327 H 0.54179 0.03124 0.91664 0.0
H1328 H 0.48773 0.98531 0.9652 0.0
C1329 C 0.49095 1.00257 0.10395 0.0
C1330 C 0.5272 0.02334 0.02826 0.0
C1331 C 0.48667 1.00621 0.14029 0.0
C1332 C 0.53942 0.01324 0.87042 0.0
C1333 C 0.53516 0.01677 0.90686 0.0
C1334 C 0.49898 0.99582 0.98257 0.0
C1335 C 0.50388 0.01735 0.08071 0.0
C1336 C 0.5086 0.0134 0.04207 0.0
C1337 C 0.52229 1.00191 0.93002 0.0
C1338 C 0.51759 1.00577 0.96875 0.0
H1339 H 0.515 0.05399 0.14112 0.0
H1340 H 0.52219 0.04769 0.07765 0.0
H1341 H 0.48002 0.99184 0.02805 0.0
H1342 H 0.51122 0.96544 0.86917 0.0
H1343 H 0.50405 0.97156 0.93284 0.0
C1344 C 0.01462 0.53472 0.87252 0.0
C1345 C 0.0335 0.54441 0.86038 0.0
C1346 C 1.0096 0.52508 0.90697 0.0
C1347 C 0.02602 0.5059 0.984 0.0
H1348 H 0.98998 0.51242 0.04409 0.0
C1349 C 1.01123 0.48133 0.139 0.0
C1350 C 0.99236 0.47169 0.15114 0.0
C1351 C 0.01628 0.491 0.10458 0.0
C1352 C 0.9999 0.51027 0.02759 0.0
H1353 H 0.06182 0.55083 0.87407 0.0
H1354 H 0.05311 0.53388 0.93468 0.0
H1355 H 0.99878 0.52653 0.98132 0.0
H1356 H 0.96406 0.46536 0.13748 0.0
H1357 H 0.97281 0.48235 0.07691 0.0
H1358 H 0.02714 0.48963 0.03026 0.0
C1359 C 0.04212 0.53368 0.91733 0.0
C1360 C 1.00496 0.51835 0.99147 0.0
C1361 C 0.04715 0.54332 0.88254 0.0
C1362 C 0.97873 0.47284 0.12901 0.0
C1363 C 0.98378 0.48251 0.09425 0.0
C1364 C 0.02096 0.49781 0.02012 0.0
C1365 C 0.02334 0.5249 0.9305 0.0
C1366 C 0.01806 0.51625 0.96909 0.0
C1367 C 1.00257 0.49125 0.08107 0.0
C1368 C 1.00786 0.49991 0.0425 0.0
H1369 H 1.00378 0.53517 0.85579 0.0
H1370 H 0.99493 0.51807 0.91552 0.0
H1371 H 0.03595 0.50375 0.96749 0.0
H1372 H 0.02205 0.48083 0.15571 0.0
H1373 H 0.03095 0.49799 0.09603 0.0
C1374 C 0.49568 0.49479 0.87352 0.0
C1375 C 0.48523 0.50292 0.85978 0.0
C1376 C 0.50283 0.49831 0.91037 0.0
C1377 C 0.51547 0.53167 0.99063 0.0
H1378 H 0.51498 0.49082 0.04706 0.0
C1379 C 0.53724 0.53865 0.14892 0.0
C1380 C 0.54757 0.53005 0.16073 0.0
C1381 C 0.52971 0.53576 0.11233 0.0
C1382 C 0.51546 0.50247 0.03158 0.0
H1383 H 0.47412 0.52117 0.87465 0.0
H1384 H 0.48642 0.52716 0.93943 0.0
H1385 H 0.50113 0.48486 0.98407 0.0
H1386 H 0.55816 0.51175 0.14269 0.0
H1387 H 0.54528 0.50692 0.07878 0.0
H1388 H 0.52981 0.54926 0.03832 0.0
C1389 C 0.48924 0.51818 0.92128 0.0
C1390 C 0.50747 0.49904 0.99538 0.0
C1391 C 0.48202 0.51461 0.88423 0.0
C1392 C 0.5504 0.5187 0.13465 0.0
C1393 C 0.54281 0.51575 0.09806 0.0
C1394 C 0.52346 0.5351 0.02694 0.0
C1395 C 0.49971 0.51002 0.93486 0.0
C1396 C 0.50749 0.51361 0.97423 0.0
C1397 C 0.53225 0.52415 0.08646 0.0
C1398 C 0.52367 0.52056 0.04782 0.0
H1399 H 0.49823 0.48546 0.85597 0.0
H1400 H 0.51101 0.49196 0.9195 0.0
H1401 H 0.51597 0.5433 0.97507 0.0
H1402 H 0.53497 0.5477 0.16793 0.0
H1403 H 0.52156 0.54236 0.1046 0.0
C1404 C 0.22208 0.22848 0.03288 0.0
C1405 C 0.2132 0.23349 1.00478 0.0
C1406 C 0.22859 0.21592 0.02483 0.0
C1407 C 0.22297 0.17846 0.95726 0.0
H1408 H 0.2709 0.18866 0.99891 0.0
C1409 C 0.25918 0.13353 0.92196 0.0
C1410 C 0.26886 0.13096 0.95211 0.0
C1411 C 0.25151 0.14551 0.92625 0.0
C1412 C 0.25736 0.18541 0.98733 0.0
H1413 H 0.20476 0.22927 0.94566 0.0
H1414 H 0.21592 0.20741 0.93197 0.0
H1415 H 0.25953 0.21047 0.0112 0.0
H1416 H 0.27686 0.13784 0.01102 0.0
H1417 H 0.2633 0.15793 0.01863 0.0
H1418 H 0.22081 0.15323 0.93365 0.0
C1419 C 0.21759 0.21298 0.96041 0.0
C1420 C 0.25083 0.19798 0.99445 0.0
C1421 C 0.21116 0.22559 0.96837 0.0
C1422 C 0.26984 0.13978 0.9869 0.0
C1423 C 0.26214 0.15147 0.99124 0.0
C1424 C 0.22949 0.16578 0.95024 0.0
C1425 C 0.2264 0.20795 0.98849 0.0
C1426 C 0.23346 0.19462 0.97989 0.0
C1427 C 0.25333 0.15501 0.96081 0.0
C1428 C 0.24667 0.16894 0.96567 0.0
H1429 H 0.22374 0.23398 0.06133 0.0
H1430 H 0.23509 0.2122 0.04736 0.0
H1431 H 0.20946 0.17534 0.94572 0.0
H1432 H 0.2582 0.12694 0.89481 0.0
H1433 H 0.24476 0.14784 0.90217 0.0
C1434 C 0.88898 0.12777 0.91524 0.0
C1435 C 0.88995 0.13975 0.94477 0.0
C1436 C 0.87796 0.10804 0.91936 0.0
C1437 C 0.85605 0.07068 0.99261 0.0
H1438 H 0.81891 0.04133 0.91616 0.0
C1439 C 0.79361 0.99644 0.02538 0.0
C1440 C 0.78778 0.98248 0.99716 0.0
C1441 C 0.80688 0.01528 0.01732 0.0
C1442 C 0.82936 0.04922 0.93762 0.0
H1443 H 0.88075 0.14043 1.00212 0.0
H1444 H 0.86204 0.10656 0.00926 0.0
H1445 H 0.84181 0.07449 0.90412 0.0
H1446 H 0.79107 0.97782 0.93779 0.0
H1447 H 0.8144 0.01038 0.92414 0.0
H1448 H 0.84369 0.04562 0.02627 0.0
C1449 C 0.86958 0.11216 0.98293 0.0
C1450 C 0.84253 0.06824 0.93062 0.0
C1451 C 0.88023 0.13165 0.97865 0.0
C1452 C 0.79537 0.98802 0.96051 0.0
C1453 C 0.80864 1.00683 0.95249 0.0
C1454 C 0.843 0.0517 0.99954 0.0
C1455 C 0.86813 0.10006 0.95335 0.0
C1456 C 0.85579 0.07929 0.95835 0.0
C1457 C 0.81472 0.02073 0.98082 0.0
C1458 C 0.82922 0.04076 0.97247 0.0
H1459 H 0.89627 0.13361 0.8888 0.0
H1460 H 0.87714 0.09904 0.89607 0.0
H1461 H 0.86627 0.07873 0.01438 0.0
H1462 H 0.78822 0.99279 0.05395 0.0
H1463 H 0.81094 0.02561 0.03977 0.0
C1464 C 0.02082 0.7966 0.03148 0.0
C1465 C 0.03529 0.80997 0.00818 0.0
C1466 C 1.00181 0.78919 0.02174 0.0
C1467 C 0.96944 0.79853 0.96471 0.0
H1468 H 0.9353 0.74493 0.97734 0.0
C1469 C 0.88903 0.76105 0.92445 0.0
C1470 C 0.87681 0.74699 0.94983 0.0
C1471 C 0.90875 0.76924 0.92819 0.0
C1472 C 0.94456 0.75998 0.97395 0.0
H1473 H 0.04058 0.8257 0.95568 0.0
H1474 H 1.00761 0.81304 0.93936 0.0
H1475 H 0.96861 0.75816 0.99155 0.0
H1476 H 0.87591 0.73108 0.99977 0.0
H1477 H 0.90955 0.74535 0.00651 0.0
H1478 H 0.94519 0.80035 0.94789 0.0
C1479 C 1.01105 0.80842 0.96535 0.0
C1480 C 0.96371 0.76756 0.98213 0.0
C1481 C 0.03006 0.81571 0.97487 0.0
C1482 C 0.88475 0.74163 0.97921 0.0
C1483 C 0.9042 0.74978 0.98301 0.0
C1484 C 0.95016 0.79094 0.9568 0.0
C1485 C 0.99666 0.79501 0.98856 0.0
C1486 C 0.97638 0.78697 0.97817 0.0
C1487 C 0.91656 0.76351 0.95739 0.0
C1488 C 0.93739 0.77159 0.96198 0.0
H1489 H 0.02406 0.79194 0.05758 0.0
H1490 H 0.99108 0.77905 0.04056 0.0
H1491 H 0.97881 0.81357 0.96143 0.0
H1492 H 0.88339 0.76555 0.90159 0.0
H1493 H 0.91783 0.77979 0.90789 0.0
C1494 C 0.75554 0.876 0.02297 0.0
C1495 C 0.75653 0.88516 0.05734 0.0
C1496 C 0.76426 0.86522 0.01873 0.0
C1497 C 0.77993 0.83707 0.0715 0.0
H1498 H 0.80407 0.83812 0.97628 0.0
C1499 C 0.81301 0.78973 0.04276 0.0
C1500 C 0.81122 0.78214 0.00615 0.0
C1501 C 0.80739 0.80298 0.05048 0.0
C1502 C 0.79718 0.83744 1.00289 0.0
H1503 H 0.76784 0.89039 0.11421 0.0
H1504 H 0.78314 0.87111 0.10696 0.0
H1505 H 0.7938 0.86092 0.98796 0.0
H1506 H 0.80171 0.78256 0.94911 0.0
H1507 H 0.79152 0.80532 0.96269 0.0
H1508 H 0.78296 0.81331 0.08611 0.0
C1509 C 0.77551 0.87243 0.08325 0.0
C1510 C 0.79139 0.85063 0.00971 0.0
C1511 C 0.7669 0.88356 0.08736 0.0
C1512 C 0.80327 0.78797 0.97764 0.0
C1513 C 0.79763 0.80125 0.98538 0.0
C1514 C 0.78569 0.8238 0.06463 0.0
C1515 C 0.7742 0.86306 0.0488 0.0
C1516 C 0.7824 0.85045 0.04383 0.0
C1517 C 0.79974 0.80908 0.02187 0.0
C1518 C 0.79415 0.82361 0.02996 0.0
H1519 H 0.74777 0.87699 0.99911 0.0
H1520 H 0.76271 0.85808 0.99201 0.0
H1521 H 0.77286 0.83637 0.09789 0.0
H1522 H 0.81877 0.78544 0.0657 0.0
H1523 H 0.80939 0.80872 0.07883 0.0
C1524 C 0.23955 0.01838 0.99807 0.0
C1525 C 0.23547 0.03255 0.00835 0.0
C1526 C 0.22698 0.99943 0.00691 0.0
C1527 C 0.18624 0.96869 0.06973 0.0
H1528 H 0.18043 0.92978 0.99945 0.0
C1529 C 0.13057 0.88774 0.08503 0.0
C1530 C 0.1374 0.87552 0.07583 0.0
C1531 C 0.14197 0.90733 0.07933 0.0
C1532 C 0.18197 0.94046 0.01955 0.0
H1533 H 0.21458 0.03768 0.03502 0.0
H1534 H 0.19266 1.00477 0.04991 0.0
H1535 H 0.20118 0.96274 0.98336 0.0
H1536 H 0.16194 0.87441 0.05614 0.0
H1537 H 0.18155 0.9081 0.04668 0.0
H1538 H 0.16676 0.94614 0.10572 0.0
C1539 C 0.20578 1.00829 0.03589 0.0
C1540 C 0.19396 0.95942 0.01037 0.0
C1541 C 0.21837 0.02722 0.02724 0.0
C1542 C 0.15609 0.88335 0.06297 0.0
C1543 C 0.16735 0.90271 0.0573 0.0
C1544 C 0.1741 0.94964 0.07883 0.0
C1545 C 0.20991 0.99409 0.02602 0.0
C1546 C 0.1965 0.97385 0.03549 0.0
C1547 C 0.16032 0.91493 0.06427 0.0
C1548 C 0.17206 0.93529 0.05408 0.0
H1549 H 0.25265 0.02197 0.98395 0.0
H1550 H 0.23086 0.989 0.99933 0.0
H1551 H 0.18792 0.97935 0.09001 0.0
H1552 H 0.11621 0.88212 0.09485 0.0
H1553 H 0.13617 0.91641 0.08511 0.0
C1554 C 0.13802 0.26317 0.02767 0.0
C1555 C 0.1458 0.26338 0.06324 0.0
C1556 C 0.11863 0.25514 0.02295 0.0
C1557 C 0.07168 0.2235 0.06423 0.0
H1558 H 0.05748 0.25291 1.00037 0.0
C1559 C 0.99367 0.20457 0.04198 0.0
C1560 C 0.98823 0.20648 1.00513 0.0
C1561 C 1.01262 0.21116 0.05088 0.0
C1562 C 0.06114 0.24438 0.01792 0.0
H1563 H 0.13917 0.25443 0.12156 0.0
H1564 H 0.10477 0.24032 0.11343 0.0
H1565 H 0.09057 0.26437 0.01367 0.0
H1566 H 0.99881 0.21685 0.94878 0.0
H1567 H 0.03181 0.22839 0.96428 0.0
H1568 H 0.04208 0.20348 0.06833 0.0
C1569 C 0.1139 0.24642 0.08912 0.0
C1570 C 0.08017 0.25097 0.02564 0.0
C1571 C 0.13355 0.25444 0.09383 0.0
C1572 C 1.00239 0.21533 0.97753 0.0
C1573 C 0.02137 0.22195 0.98647 0.0
C1574 C 0.05254 0.21688 0.05651 0.0
C1575 C 0.10628 0.24719 0.05374 0.0
C1576 C 0.08577 0.2405 0.04836 0.0
C1577 C 0.02676 0.21993 0.02327 0.0
C1578 C 0.04704 0.22713 0.0328 0.0
H1579 H 0.14703 0.2696 1.00329 0.0
H1580 H 0.11332 0.25546 0.99505 0.0
H1581 H 0.07546 0.21503 0.08167 0.0
H1582 H 0.9833 0.19818 0.06426 0.0
H1583 H 0.01623 0.20963 0.07964 0.0
C1584 C 0.88389 0.56068 0.29598 0.0
C1585 C 0.87926 0.56351 0.33293 0.0
C1586 C 0.88885 0.54693 0.28838 0.0
C1587 C 0.88553 0.50316 0.32775 0.0
H1588 H 0.9242 0.51293 0.25329 0.0
C1589 C 0.92166 0.45831 0.31566 0.0
C1590 C 0.92728 0.45515 0.28009 0.0
C1591 C 0.91353 0.4697 0.31942 0.0
C1592 C 0.91313 0.50981 0.27367 0.0
H1593 H 0.87666 0.55403 0.39101 0.0
H1594 H 0.88573 0.53029 0.37795 0.0
H1595 H 0.91575 0.537 0.26666 0.0
H1596 H 0.92832 0.46107 0.22023 0.0
H1597 H 0.91397 0.48118 0.22663 0.0
H1598 H 0.8832 0.47609 0.33524 0.0
C1599 C 0.88515 0.53855 0.35462 0.0
C1600 C 0.9083 0.52368 0.28149 0.0
C1601 C 0.88016 0.55236 0.36225 0.0
C1602 C 0.92386 0.46304 0.24791 0.0
C1603 C 0.91588 0.47474 0.25173 0.0
C1604 C 0.8904 0.48932 0.32001 0.0
C1605 C 0.88948 0.53556 0.31748 0.0
C1606 C 0.89452 0.52064 0.30889 0.0
C1607 C 0.91096 0.47852 0.28772 0.0
C1608 C 0.90441 0.4925 0.29312 0.0
H1609 H 0.88373 0.56912 0.27263 0.0
H1610 H 0.89189 0.54503 0.25939 0.0
H1611 H 0.87459 0.50007 0.34842 0.0
H1612 H 0.92424 0.45251 0.34102 0.0
H1613 H 0.91017 0.47237 0.3476 0.0
C1614 C 0.55935 0.46448 0.27471 0.0
C1615 C 0.55347 0.47655 0.29018 0.0
C1616 C 0.54821 0.44477 0.27937 0.0
C1617 C 0.51103 0.40978 0.34319 0.0
H1618 H 0.50092 0.37338 0.26352 0.0
C1619 C 0.45238 0.33176 0.35828 0.0
C1620 C 0.45561 0.31769 0.3433 0.0
C1621 C 0.46505 0.35091 0.35127 0.0
C1622 C 0.50377 0.38333 0.28628 0.0
H1623 H 0.53075 0.47718 0.32072 0.0
H1624 H 0.51165 0.44342 0.32831 0.0
H1625 H 0.52207 0.407 0.25132 0.0
H1626 H 0.47519 0.31306 0.30988 0.0
H1627 H 0.49716 0.34626 0.29784 0.0
H1628 H 0.49283 0.38633 0.37819 0.0
C1629 C 0.52497 0.44897 0.31352 0.0
C1630 C 0.51593 0.40262 0.27922 0.0
C1631 C 0.53596 0.46844 0.30892 0.0
C1632 C 0.47197 0.32338 0.32137 0.0
C1633 C 0.48463 0.34251 0.31439 0.0
C1634 C 0.49895 0.39057 0.35024 0.0
C1635 C 0.53106 0.43683 0.29964 0.0
C1636 C 0.51947 0.41613 0.30743 0.0
C1637 C 0.48136 0.35658 0.32917 0.0
C1638 C 0.4949 0.37705 0.32178 0.0
H1639 H 0.57274 0.47027 0.26014 0.0
H1640 H 0.55329 0.4358 0.2682 0.0
H1641 H 0.51374 0.41972 0.3659 0.0
H1642 H 0.43988 0.32801 0.37487 0.0
H1643 H 0.46185 0.36128 0.36269 0.0
C1644 C 0.55708 0.09417 0.25442 0.0
C1645 C 0.54516 0.08442 0.28498 0.0
C1646 C 0.57677 0.10199 0.25782 0.0
C1647 C 0.61155 0.09648 0.31658 0.0
H1648 H 0.64862 0.14474 0.27492 0.0
C1649 C 0.69026 0.13281 0.35926 0.0
C1650 C 0.70385 0.14186 0.3307 0.0
C1651 C 0.67107 0.12596 0.35198 0.0
C1652 C 0.63844 0.13113 0.28644 0.0
H1653 H 0.54464 0.07644 0.3437 0.0
H1654 H 0.57839 0.09027 0.3498 0.0
H1655 H 0.61501 0.13304 0.26434 0.0
H1656 H 0.70748 0.15021 0.27155 0.0
H1657 H 0.67424 0.13846 0.25918 0.0
H1658 H 0.63482 0.09458 0.33898 0.0
C1659 C 0.57279 0.09136 0.32276 0.0
C1660 C 0.61916 0.12442 0.28028 0.0
C1661 C 0.55335 0.08351 0.3193 0.0
C1662 C 0.69761 0.14369 0.29459 0.0
C1663 C 0.67847 0.13693 0.28739 0.0
C1664 C 0.63074 0.10321 0.32284 0.0
C1665 C 0.5848 0.10026 0.29189 0.0
C1666 C 0.60544 0.1071 0.29577 0.0
C1667 C 0.66492 0.128 0.31598 0.0
C1668 C 0.64447 0.12071 0.30825 0.0
H1669 H 0.55117 0.09509 0.22763 0.0
H1670 H 0.5856 0.10881 0.23345 0.0
H1671 H 0.60147 0.08286 0.32815 0.0
H1672 H 0.69443 0.13131 0.38751 0.0
H1673 H 0.66107 0.11935 0.37485 0.0
C1674 C 0.46125 0.11286 0.33152 0.0
C1675 C 0.47956 0.11709 0.34163 0.0
C1676 C 0.45469 0.12525 0.34077 0.0
C1677 C 0.47056 0.17493 0.36715 0.0
H1678 H 0.41942 0.15371 0.40445 0.0
C1679 C 0.43847 0.2217 0.41346 0.0
C1680 C 0.42019 0.21547 0.39959 0.0
C1681 C 0.44656 0.21007 0.41052 0.0
C1682 C 0.43371 0.15991 0.39388 0.0
H1683 H 0.50553 0.13812 0.36821 0.0
H1684 H 0.49408 0.15957 0.38449 0.0
H1685 H 0.43171 0.13289 0.38902 0.0
H1686 H 0.39593 0.1919 0.37301 0.0
H1687 H 0.40984 0.17204 0.36788 0.0
H1688 H 0.47239 0.20196 0.37142 0.0
C1689 C 0.48476 0.14667 0.36946 0.0
C1690 C 0.44074 0.14793 0.3849 0.0
C1691 C 0.49126 0.13424 0.36045 0.0
C1692 C 0.41007 0.19726 0.3839 0.0
C1693 C 0.41801 0.18572 0.38122 0.0
C1694 C 0.46349 0.18695 0.37601 0.0
C1695 C 0.46632 0.14227 0.3601 0.0
C1696 C 0.45916 0.15522 0.37087 0.0
C1697 C 0.43641 0.19194 0.39413 0.0
C1698 C 0.44484 0.17956 0.38887 0.0
H1699 H 0.45183 0.09977 0.31719 0.0
H1700 H 0.44049 0.12151 0.33265 0.0
H1701 H 0.48479 0.18105 0.35626 0.0
H1702 H 0.44665 0.23567 0.42558 0.0
H1703 H 0.46074 0.21527 0.42097 0.0
C1704 C 0.80718 0.22264 0.35651 0.0
C1705 C 0.79925 0.21299 0.39051 0.0
C1706 C 0.81594 0.24225 0.3546 0.0
C1707 C 0.84198 0.28482 0.41122 0.0
H1708 H 0.83565 0.30913 0.32277 0.0
C1709 C 0.88913 0.36538 0.38731 0.0
C1710 C 0.896 0.37113 0.35028 0.0
C1711 C 0.87459 0.34694 0.39468 0.0
C1712 C 0.83774 0.30263 0.34756 0.0
H1713 H 0.79404 0.21644 0.44925 0.0
H1714 H 0.80992 0.25119 0.44619 0.0
H1715 H 0.81507 0.27532 0.33195 0.0
H1716 H 0.8921 0.36186 0.29176 0.0
H1717 H 0.86713 0.3299 0.30449 0.0
H1718 H 0.86518 0.31192 0.42605 0.0
C1719 C 0.80914 0.24334 0.4209 0.0
C1720 C 0.82583 0.28322 0.35292 0.0
C1721 C 0.79997 0.22349 0.42264 0.0
C1722 C 0.88722 0.35814 0.3206 0.0
C1723 C 0.87277 0.33967 0.32798 0.0
C1724 C 0.85402 0.30425 0.40571 0.0
C1725 C 0.81729 0.25293 0.38678 0.0
C1726 C 0.82807 0.27397 0.38435 0.0
C1727 C 0.86649 0.33364 0.36524 0.0
C1728 C 0.85236 0.31338 0.37332 0.0
H1729 H 0.8068 0.21499 0.33114 0.0
H1730 H 0.82223 0.24911 0.32802 0.0
H1731 H 0.84422 0.27813 0.43553 0.0
H1732 H 0.89527 0.37506 0.41082 0.0
H1733 H 0.8699 0.34303 0.42361 0.0
C1734 C 0.65527 0.52577 0.37891 0.0
C1735 C 0.65048 0.5321 0.34586 0.0
C1736 C 0.67377 0.52963 0.38513 0.0
C1737 C 0.71884 0.54331 0.33612 0.0
H1738 H 0.7421 0.56386 0.43335 0.0
C1739 C 0.7988 0.58746 0.35279 0.0
C1740 C 0.80781 0.58667 0.38604 0.0
C1741 C 0.77922 0.57765 0.34974 0.0
C1742 C 0.73575 0.55779 0.40629 0.0
H1743 H 0.66187 0.54737 0.29329 0.0
H1744 H 0.69382 0.55368 0.30383 0.0
H1745 H 0.70854 0.55274 0.42407 0.0
H1746 H 0.80314 0.57446 0.44209 0.0
H1747 H 0.76846 0.55705 0.43679 0.0
H1748 H 0.74596 0.5485 0.31806 0.0
C1749 C 0.68317 0.54564 0.32489 0.0
C1750 C 0.7165 0.55147 0.40091 0.0
C1751 C 0.66473 0.54195 0.3188 0.0
C1752 C 0.79662 0.57531 0.41606 0.0
C1753 C 0.77679 0.56548 0.41308 0.0
C1754 C 0.73799 0.54949 0.34154 0.0
C1755 C 0.688 0.53973 0.35833 0.0
C1756 C 0.70793 0.54461 0.36543 0.0
C1757 C 0.76785 0.56664 0.37984 0.0
C1758 C 0.74686 0.55733 0.37634 0.0
H1759 H 0.64478 0.5179 0.40027 0.0
H1760 H 0.67694 0.52465 0.41096 0.0
H1761 H 0.71262 0.53773 0.3087 0.0
H1762 H 0.80691 0.59599 0.32897 0.0
H1763 H 0.77298 0.57923 0.32398 0.0
C1764 C 0.59483 0.8045 0.5888 0.0
C1765 C 0.60474 0.80253 0.61924 0.0
C1766 C 0.58715 0.8165 0.59206 0.0
C1767 C 0.59357 0.8575 0.64949 0.0
H1768 H 0.54484 0.84609 0.61021 0.0
C1769 C 0.55813 0.90034 0.69391 0.0
C1770 C 0.5489 0.9049 0.6658 0.0
C1771 C 0.56471 0.88784 0.68622 0.0
C1772 C 0.55857 0.84957 0.62104 0.0
H1773 H 0.61318 0.81045 0.67767 0.0
H1774 H 0.59963 0.83064 0.68352 0.0
H1775 H 0.55624 0.82391 0.59953 0.0
H1776 H 0.53984 0.89993 0.60706 0.0
H1777 H 0.55114 0.8781 0.59397 0.0
H1778 H 0.59591 0.88297 0.67135 0.0
C1779 C 0.59828 0.82367 0.65668 0.0
C1780 C 0.56511 0.83686 0.61483 0.0
C1781 C 0.60598 0.81194 0.65335 0.0
C1782 C 0.54655 0.8966 0.62974 0.0
C1783 C 0.55305 0.88403 0.62213 0.0
C1784 C 0.58703 0.8701 0.65581 0.0
C1785 C 0.58922 0.82658 0.62587 0.0
C1786 C 0.58258 0.84053 0.62954 0.0
C1787 C 0.56223 0.87948 0.65025 0.0
C1788 C 0.56935 0.86622 0.64212 0.0
H1789 H 0.59366 0.79742 0.56218 0.0
H1790 H 0.5802 0.81837 0.56778 0.0
H1791 H 0.60732 0.86108 0.66042 0.0
H1792 H 0.56 0.90615 0.72214 0.0
H1793 H 0.5715 0.88447 0.70874 0.0
C1794 C 0.22367 0.79304 0.58645 0.0
C1795 C 0.22794 0.8046 0.6186 0.0
C1796 C 0.21348 0.77323 0.59018 0.0
C1797 C 0.18042 0.7371 0.65835 0.0
H1798 H 0.18698 0.70134 0.59765 0.0
C1799 C 0.13847 0.65807 0.69289 0.0
C1800 C 0.12954 0.64568 0.66238 0.0
C1801 C 0.15239 0.67686 0.68654 0.0
C1802 C 0.18493 0.71116 0.61471 0.0
H1803 H 0.22631 0.80463 0.67979 0.0
H1804 H 0.20947 0.77061 0.68639 0.0
H1805 H 0.20774 0.7353 0.58753 0.0
H1806 H 0.1297 0.64322 0.60124 0.0
H1807 H 0.15382 0.676 0.59024 0.0
H1808 H 0.15768 0.71323 0.68544 0.0
C1809 C 0.21313 0.77651 0.65818 0.0
C1810 C 0.1968 0.73064 0.60883 0.0
C1811 C 0.22297 0.79609 0.65442 0.0
C1812 C 0.13594 0.65236 0.62546 0.0
C1813 C 0.14993 0.67117 0.61912 0.0
C1814 C 0.1687 0.71776 0.66431 0.0
C1815 C 0.20758 0.76474 0.62615 0.0
C1816 C 0.19482 0.74389 0.63089 0.0
C1817 C 0.1579 0.68384 0.64953 0.0
C1818 C 0.17083 0.70448 0.64285 0.0
H1819 H 0.22726 0.79926 0.55848 0.0
H1820 H 0.20949 0.76463 0.56485 0.0
H1821 H 0.178 0.74675 0.67517 0.0
H1822 H 0.13413 0.65363 0.72174 0.0
H1823 H 0.15851 0.68609 0.71074 0.0
C1824 C 0.22795 0.43482 0.59531 0.0
C1825 C 0.21683 0.43017 0.62814 0.0
C1826 C 0.24767 0.44312 0.59819 0.0
C1827 C 0.28811 0.46759 0.66534 0.0
H1828 H 0.31027 0.44339 0.60725 0.0
C1829 C 0.36157 0.4773 0.70251 0.0
C1830 C 0.37335 0.47829 0.6725 0.0
C1831 C 0.34282 0.47266 0.69575 0.0
C1832 C 0.30447 0.45056 0.62336 0.0
H1833 H 0.21758 0.43146 0.6894 0.0
H1834 H 0.25165 0.44616 0.69439 0.0
H1835 H 0.27762 0.4349 0.59591 0.0
H1836 H 0.37407 0.47456 0.6117 0.0
H1837 H 0.34201 0.46719 0.60001 0.0
H1838 H 0.31488 0.48319 0.69296 0.0
C1839 C 0.24539 0.44344 0.66644 0.0
C1840 C 0.28569 0.44569 0.61673 0.0
C1841 C 0.22581 0.43495 0.66358 0.0
C1842 C 0.36572 0.47431 0.63565 0.0
C1843 C 0.34709 0.46977 0.62891 0.0
C1844 C 0.30692 0.47255 0.67183 0.0
C1845 C 0.25658 0.44719 0.63391 0.0
C1846 C 0.27717 0.45395 0.63796 0.0
C1847 C 0.33532 0.46888 0.65878 0.0
C1848 C 0.31534 0.46395 0.65125 0.0
H1849 H 0.22136 0.43107 0.56766 0.0
H1850 H 0.25591 0.44596 0.57254 0.0
H1851 H 0.28208 0.47439 0.68196 0.0
H1852 H 0.36683 0.48032 0.73123 0.0
H1853 H 0.33416 0.47186 0.71964 0.0
C1854 C 0.10581 0.55924 0.69746 0.0
C1855 C 0.09908 0.56149 0.73256 0.0
C1856 C 0.11373 0.54765 0.69378 0.0
C1857 C 0.11117 0.50558 0.73675 0.0
H1858 H 0.15202 0.51615 0.66737 0.0
C1859 C 0.1389 0.45348 0.71616 0.0
C1860 C 0.1449 0.45143 0.67994 0.0
C1861 C 0.13422 0.46744 0.72352 0.0
C1862 C 0.14043 0.51283 0.68648 0.0
H1863 H 0.09582 0.55374 0.79171 0.0
H1864 H 0.10979 0.53331 0.78547 0.0
H1865 H 0.14387 0.54045 0.68074 0.0
H1866 H 0.15023 0.46253 0.62283 0.0
H1867 H 0.14161 0.48666 0.63539 0.0
H1868 H 0.10741 0.47785 0.74192 0.0
C1869 C 0.10894 0.54062 0.7607 0.0
C1870 C 0.13582 0.52685 0.69436 0.0
C1871 C 0.10119 0.55251 0.76447 0.0
C1872 C 0.14566 0.46359 0.65102 0.0
C1873 C 0.14091 0.47761 0.6584 0.0
C1874 C 0.11572 0.49153 0.72875 0.0
C1875 C 0.11492 0.5377 0.72505 0.0
C1876 C 0.12103 0.52339 0.71941 0.0
C1877 C 0.13521 0.47981 0.69488 0.0
C1878 C 0.13036 0.49488 0.70333 0.0
H1879 H 0.10418 0.56586 0.6723 0.0
H1880 H 0.11794 0.54568 0.66586 0.0
H1881 H 0.09947 0.50223 0.75558 0.0
H1882 H 0.13775 0.44425 0.73914 0.0
H1883 H 0.13012 0.46869 0.75204 0.0
C1884 C 0.47275 0.55853 0.75716 0.0
C1885 C 0.46715 0.54679 0.72509 0.0
C1886 C 0.48462 0.57817 0.75316 0.0
C1887 C 0.52019 0.61179 0.68582 0.0
H1888 H 0.51644 0.65067 0.74112 0.0
C1889 C 0.56586 0.69054 0.64633 0.0
C1890 C 0.57279 0.7039 0.67576 0.0
C1891 C 0.55275 0.67157 0.65378 0.0
C1892 C 0.51783 0.63998 0.72573 0.0
H1893 H 0.46826 0.54642 0.66382 0.0
H1894 H 0.48829 0.58027 0.65689 0.0
H1895 H 0.49336 0.61743 0.7526 0.0
H1896 H 0.57167 0.7075 0.73639 0.0
H1897 H 0.54903 0.67455 0.74934 0.0
H1898 H 0.5446 0.63408 0.65911 0.0
C1899 C 0.48417 0.57451 0.68513 0.0
C1900 C 0.50457 0.62092 0.73235 0.0
C1901 C 0.47253 0.55509 0.68911 0.0
C1902 C 0.56642 0.69772 0.71288 0.0
C1903 C 0.55337 0.67877 0.72034 0.0
C1904 C 0.53341 0.63075 0.67931 0.0
C1905 C 0.49097 0.58627 0.71706 0.0
C1906 C 0.50544 0.6066 0.71205 0.0
C1907 C 0.54628 0.66541 0.6909 0.0
C1908 C 0.53234 0.64515 0.69882 0.0
H1909 H 0.46893 0.55247 0.78523 0.0
H1910 H 0.48957 0.58686 0.77835 0.0
H1911 H 0.52159 0.60114 0.67031 0.0
H1912 H 0.57022 0.6948 0.61738 0.0
H1913 H 0.54743 0.66179 0.63024 0.0
C1914 C 0.32866 0.87372 0.71434 0.0
C1915 C 0.3225 0.87497 0.67778 0.0
C1916 C 0.34768 0.87989 0.72158 0.0
C1917 C 0.39237 0.89101 0.67284 0.0
H1918 H 0.41574 0.9164 0.76696 0.0
C1919 C 0.47247 0.93543 0.69082 0.0
C1920 C 0.48099 0.93452 0.7247 0.0
C1921 C 0.45293 0.92612 0.6871 0.0
C1922 C 0.40934 0.90904 0.74082 0.0
H1923 H 0.33193 0.88412 0.62031 0.0
H1924 H 0.36512 0.89535 0.6331 0.0
H1925 H 0.38232 0.90523 0.75605 0.0
H1926 H 0.47554 0.92283 0.78126 0.0
H1927 H 0.44089 0.90656 0.77497 0.0
H1928 H 0.41951 0.89529 0.65723 0.0
C1929 C 0.35512 0.8892 0.65611 0.0
C1930 C 0.39016 0.90266 0.73447 0.0
C1931 C 0.33605 0.88297 0.64883 0.0
C1932 C 0.46938 0.92372 0.7548 0.0
C1933 C 0.4496 0.91454 0.75124 0.0
C1934 C 0.41151 0.89746 0.67912 0.0
C1935 C 0.36119 0.88759 0.69254 0.0
C1936 C 0.38146 0.8938 0.70011 0.0
C1937 C 0.44118 0.9157 0.71726 0.0
C1938 C 0.42033 0.90683 0.71291 0.0
H1939 H 0.3188 0.86795 0.7376 0.0
H1940 H 0.3517 0.87827 0.7499 0.0
H1941 H 0.38613 0.88383 0.64648 0.0
H1942 H 0.48097 0.94352 0.66693 0.0
H1943 H 0.447 0.92754 0.66074 0.0
loop_
_geom_bond_atom_site_label_1
_geom_bond_atom_site_label_2
_geom_bond_distance
_geom_bond_site_symmetry_2
_ccdc_geom_bond_type
C0 C1 1.351 . S
C0 N3 1.368 . S
C0 H5 0.931 . S
C1 C0 1.351 . S
C1 N2 1.373 . S
C1 H29 0.958 . S
N2 C1 1.373 . S
N2 C4 1.340 . S
N3 C0 1.368 . S
N3 C4 1.321 . S
N3 Co6 2.135 . S
C4 N2 1.340 . S
C4 N3 1.321 . S
C4 H28 0.930 . S
H5 C0 0.931 . S
Co6 N3 2.135 . S
Co6 N9 2.121 . S
Co6 O14 2.055 . S
Co6 O17 2.039 . S
Co6 N20 2.140 . S
C7 O8 1.227 . S
C7 O17 1.265 . S
O8 C7 1.227 . S
N9 Co6 2.121 . S
N9 C11 1.375 . S
N9 C12 1.313 . S
C10 C11 1.338 . S
C10 N13 1.377 . S
C10 H30 0.930 . S
C11 N9 1.375 . S
C11 C10 1.338 . S
C11 H15 0.931 . S
C12 N9 1.313 . S
C12 N13 1.344 . S
C12 H16 0.930 . S
N13 C10 1.377 . S
N13 C12 1.344 . S
O14 Co6 2.055 . S
O14 C18 1.253 . S
H15 C11 0.931 . S
H16 C12 0.930 . S
O17 Co6 2.039 . S
O17 C7 1.265 . S
C18 O14 1.253 . S
C18 O19 1.227 . S
O19 C18 1.227 . S
N20 Co6 2.140 . S
N20 C23 1.346 . S
N20 C24 1.345 . S
C21 C22 1.387 . S
C21 C25 1.391 . S
C22 C21 1.387 . S
C22 C23 1.369 . S
C22 H31 0.929 . S
C23 N20 1.346 . S
C23 C22 1.369 . S
C23 H26 0.928 . S
C24 N20 1.345 . S
C24 C25 1.371 . S
C24 H27 0.931 . S
C25 C21 1.391 . S
C25 C24 1.371 . S
C25 H32 0.930 . S
H26 C23 0.928 . S
H27 C24 0.931 . S
H28 C4 0.930 . S
H29 C1 0.958 . S
H30 C10 0.930 . S
H31 C22 0.929 . S
H32 C25 0.930 . S
C33 C34 1.351 . S
C33 N36 1.368 . S
C33 H38 0.931 . S
C34 C33 1.351 . S
C34 N35 1.373 . S
C34 H62 0.958 . S
N35 C34 1.373 . S
N35 C37 1.340 . S
N36 C33 1.368 . S
N36 C37 1.321 . S
N36 Co39 2.135 . S
C37 N35 1.340 . S
C37 N36 1.321 . S
C37 H61 0.930 . S
H38 C33 0.931 . S
Co39 N36 2.135 . S
Co39 N42 2.121 . S
Co39 O47 2.055 . S
Co39 O50 2.039 . S
Co39 N53 2.140 . S
C40 O41 1.227 . S
C40 O50 1.265 . S
O41 C40 1.227 . S
N42 Co39 2.121 . S
N42 C44 1.375 . S
N42 C45 1.313 . S
C43 C44 1.338 . S
C43 N46 1.377 . S
C43 H63 0.930 . S
C44 N42 1.375 . S
C44 C43 1.338 . S
C44 H48 0.931 . S
C45 N42 1.313 . S
C45 N46 1.344 . S
C45 H49 0.930 . S
N46 C43 1.377 . S
N46 C45 1.344 . S
O47 Co39 2.055 . S
O47 C51 1.253 . S
H48 C44 0.931 . S
H49 C45 0.930 . S
O50 Co39 2.039 . S
O50 C40 1.265 . S
C51 O47 1.253 . S
C51 O52 1.227 . S
O52 C51 1.227 . S
N53 Co39 2.140 . S
N53 C56 1.346 . S
N53 C57 1.345 . S
C54 C55 1.387 . S
C54 C58 1.391 . S
C55 C54 1.387 . S
C55 C56 1.369 . S
C55 H64 0.929 . S
C56 N53 1.346 . S
C56 C55 1.369 . S
C56 H59 0.928 . S
C57 N53 1.345 . S
C57 C58 1.371 . S
C57 H60 0.931 . S
C58 C54 1.391 . S
C58 C57 1.371 . S
C58 H65 0.930 . S
H59 C56 0.928 . S
H60 C57 0.931 . S
H61 C37 0.930 . S
H62 C34 0.958 . S
H63 C43 0.930 . S
H64 C55 0.929 . S
H65 C58 0.930 . S
C66 C67 1.351 . S
C66 N69 1.368 . S
C66 H71 0.931 . S
C67 C66 1.351 . S
C67 N68 1.373 . S
C67 H95 0.958 . S
N68 C67 1.373 . S
N68 C70 1.340 . S
N69 C66 1.368 . S
N69 C70 1.321 . S
N69 Co72 2.135 . S
C70 N68 1.340 . S
C70 N69 1.321 . S
C70 H94 0.930 . S
H71 C66 0.931 . S
Co72 N69 2.135 . S
Co72 N75 2.121 . S
Co72 O80 2.055 . S
Co72 O83 2.039 . S
Co72 N86 2.140 . S
C73 O74 1.227 . S
C73 O83 1.265 . S
O74 C73 1.227 . S
N75 Co72 2.121 . S
N75 C77 1.375 . S
N75 C78 1.313 . S
C76 C77 1.338 . S
C76 N79 1.377 . S
C76 H96 0.930 . S
C77 N75 1.375 . S
C77 C76 1.338 . S
C77 H81 0.931 . S
C78 N75 1.313 . S
C78 N79 1.344 . S
C78 H82 0.930 . S
N79 C76 1.377 . S
N79 C78 1.344 . S
O80 Co72 2.055 . S
O80 C84 1.253 . S
H81 C77 0.931 . S
H82 C78 0.930 . S
O83 Co72 2.039 . S
O83 C73 1.265 . S
C84 O80 1.253 . S
C84 O85 1.227 . S
O85 C84 1.227 . S
N86 Co72 2.140 . S
N86 C89 1.346 . S
N86 C90 1.345 . S
C87 C88 1.387 . S
C87 C91 1.391 . S
C88 C87 1.387 . S
C88 C89 1.369 . S
C88 H97 0.929 . S
C89 N86 1.346 . S
C89 C88 1.369 . S
C89 H92 0.928 . S
C90 N86 1.345 . S
C90 C91 1.371 . S
C90 H93 0.931 . S
C91 C87 1.391 . S
C91 C90 1.371 . S
C91 H98 0.930 . S
H92 C89 0.928 . S
H93 C90 0.931 . S
H94 C70 0.930 . S
H95 C67 0.958 . S
H96 C76 0.930 . S
H97 C88 0.929 . S
H98 C91 0.930 . S
C99 C100 1.351 . S
C99 N102 1.368 . S
C99 H104 0.931 . S
C100 C99 1.351 . S
C100 N101 1.373 . S
C100 H128 0.958 . S
N101 C100 1.373 . S
N101 C103 1.340 . S
N102 C99 1.368 . S
N102 C103 1.321 . S
N102 Co105 2.135 . S
C103 N101 1.340 . S
C103 N102 1.321 . S
C103 H127 0.930 . S
H104 C99 0.931 . S
Co105 N102 2.135 . S
Co105 N108 2.121 . S
Co105 O113 2.055 . S
Co105 O116 2.039 . S
Co105 N119 2.140 . S
C106 O107 1.227 . S
C106 O116 1.265 . S
O107 C106 1.227 . S
N108 Co105 2.121 . S
N108 C110 1.375 . S
N108 C111 1.313 . S
C109 C110 1.338 . S
C109 N112 1.377 . S
C109 H129 0.930 . S
C110 N108 1.375 . S
C110 C109 1.338 . S
C110 H114 0.931 . S
C111 N108 1.313 . S
C111 N112 1.344 . S
C111 H115 0.930 . S
N112 C109 1.377 . S
N112 C111 1.344 . S
O113 Co105 2.055 . S
O113 C117 1.253 . S
H114 C110 0.931 . S
H115 C111 0.930 . S
O116 Co105 2.039 . S
O116 C106 1.265 . S
C117 O113 1.253 . S
C117 O118 1.227 . S
O118 C117 1.227 . S
N119 Co105 2.140 . S
N119 C122 1.346 . S
N119 C123 1.345 . S
C120 C121 1.387 . S
C120 C124 1.391 . S
C121 C120 1.387 . S
C121 C122 1.369 . S
C121 H130 0.929 . S
C122 N119 1.346 . S
C122 C121 1.369 . S
C122 H125 0.928 . S
C123 N119 1.345 . S
C123 C124 1.371 . S
C123 H126 0.931 . S
C124 C120 1.391 . S
C124 C123 1.371 . S
C124 H131 0.930 . S
H125 C122 0.928 . S
H126 C123 0.931 . S
H127 C103 0.930 . S
H128 C100 0.958 . S
H129 C109 0.930 . S
H130 C121 0.929 . S
H131 C124 0.930 . S
C132 C133 1.351 . S
C132 N135 1.368 . S
C132 H137 0.931 . S
C133 C132 1.351 . S
C133 N134 1.373 . S
C133 H161 0.958 . S
N134 C133 1.373 . S
N134 C136 1.340 . S
N135 C132 1.368 . S
N135 C136 1.321 . S
N135 Co138 2.135 . S
C136 N134 1.340 . S
C136 N135 1.321 . S
C136 H160 0.930 . S
H137 C132 0.931 . S
Co138 N135 2.135 . S
Co138 N141 2.121 . S
Co138 O146 2.055 . S
Co138 O149 2.039 . S
Co138 N152 2.140 . S
C139 O140 1.227 . S
C139 O149 1.265 . S
O140 C139 1.227 . S
N141 Co138 2.121 . S
N141 C143 1.375 . S
N141 C144 1.313 . S
C142 C143 1.338 . S
C142 N145 1.377 . S
C142 H162 0.930 . S
C143 N141 1.375 . S
C143 C142 1.338 . S
C143 H147 0.931 . S
C144 N141 1.313 . S
C144 N145 1.344 . S
C144 H148 0.930 . S
N145 C142 1.377 . S
N145 C144 1.344 . S
O146 Co138 2.055 . S
O146 C150 1.253 . S
H147 C143 0.931 . S
H148 C144 0.930 . S
O149 Co138 2.039 . S
O149 C139 1.265 . S
C150 O146 1.253 . S
C150 O151 1.227 . S
O151 C150 1.227 . S
N152 Co138 2.140 . S
N152 C155 1.346 . S
N152 C156 1.345 . S
C153 C154 1.387 . S
C153 C157 1.391 . S
C154 C153 1.387 . S
C154 C155 1.369 . S
C154 H163 0.929 . S
C155 N152 1.346 . S
C155 C154 1.369 . S
C155 H158 0.928 . S
C156 N152 1.345 . S
C156 C157 1.371 . S
C156 H159 0.931 . S
C157 C153 1.391 . S
C157 C156 1.371 . S
C157 H164 0.930 . S
H158 C155 0.928 . S
H159 C156 0.931 . S
H160 C136 0.930 . S
H161 C133 0.958 . S
H162 C142 0.930 . S
H163 C154 0.929 . S
H164 C157 0.930 . S
C165 C166 1.351 . S
C165 N168 1.368 . S
C165 H170 0.931 . S
C166 C165 1.351 . S
C166 N167 1.373 . S
C166 H194 0.958 . S
N167 C166 1.373 . S
N167 C169 1.340 . S
N168 C165 1.368 . S
N168 C169 1.321 . S
N168 Co171 2.135 . S
C169 N167 1.340 . S
C169 N168 1.321 . S
C169 H193 0.930 . S
H170 C165 0.931 . S
Co171 N168 2.135 . S
Co171 N174 2.121 . S
Co171 O179 2.055 . S
Co171 O182 2.039 . S
Co171 N185 2.140 . S
C172 O173 1.227 . S
C172 O182 1.265 . S
O173 C172 1.227 . S
N174 Co171 2.121 . S
N174 C176 1.375 . S
N174 C177 1.313 . S
C175 C176 1.338 . S
C175 N178 1.377 . S
C175 H195 0.930 . S
C176 N174 1.375 . S
C176 C175 1.338 . S
C176 H180 0.931 . S
C177 N174 1.313 . S
C177 N178 1.344 . S
C177 H181 0.930 . S
N178 C175 1.377 . S
N178 C177 1.344 . S
O179 Co171 2.055 . S
O179 C183 1.253 . S
H180 C176 0.931 . S
H181 C177 0.930 . S
O182 Co171 2.039 . S
O182 C172 1.265 . S
C183 O179 1.253 . S
C183 O184 1.227 . S
O184 C183 1.227 . S
N185 Co171 2.140 . S
N185 C188 1.346 . S
N185 C189 1.345 . S
C186 C187 1.387 . S
C186 C190 1.391 . S
C187 C186 1.387 . S
C187 C188 1.369 . S
C187 H196 0.929 . S
C188 N185 1.346 . S
C188 C187 1.369 . S
C188 H191 0.928 . S
C189 N185 1.345 . S
C189 C190 1.371 . S
C189 H192 0.931 . S
C190 C186 1.391 . S
C190 C189 1.371 . S
C190 H197 0.930 . S
H191 C188 0.928 . S
H192 C189 0.931 . S
H193 C169 0.930 . S
H194 C166 0.958 . S
H195 C175 0.930 . S
H196 C187 0.929 . S
H197 C190 0.930 . S
C198 C199 1.351 . S
C198 N201 1.368 . S
C198 H203 0.931 . S
C199 C198 1.351 . S
C199 N200 1.373 . S
C199 H227 0.930 . S
N200 C199 1.373 . S
N200 C202 1.340 . S
N201 C198 1.368 . S
N201 C202 1.321 . S
N201 Co204 2.135 . S
C202 N200 1.340 . S
C202 N201 1.321 . S
C202 H226 0.930 . S
H203 C198 0.931 . S
Co204 N201 2.135 . S
Co204 N207 2.121 . S
Co204 O212 2.055 . S
Co204 O215 2.039 . S
Co204 N218 2.140 . S
C205 O206 1.227 . S
C205 O215 1.265 . S
O206 C205 1.227 . S
N207 Co204 2.121 . S
N207 C209 1.375 . S
N207 C210 1.313 . S
C208 C209 1.338 . S
C208 N211 1.377 . S
C208 H228 0.930 . S
C209 N207 1.375 . S
C209 C208 1.338 . S
C209 H213 0.931 . S
C210 N207 1.313 . S
C210 N211 1.344 . S
C210 H214 0.930 . S
N211 C208 1.377 . S
N211 C210 1.344 . S
O212 Co204 2.055 . S
O212 C216 1.253 . S
H213 C209 0.931 . S
H214 C210 0.930 . S
O215 Co204 2.039 . S
O215 C205 1.265 . S
C216 O212 1.253 . S
C216 O217 1.227 . S
O217 C216 1.227 . S
N218 Co204 2.140 . S
N218 C221 1.346 . S
N218 C222 1.345 . S
C219 C220 1.387 . S
C219 C223 1.391 . S
C220 C219 1.387 . S
C220 C221 1.369 . S
C220 H229 0.929 . S
C221 N218 1.346 . S
C221 C220 1.369 . S
C221 H224 0.928 . S
C222 N218 1.345 . S
C222 C223 1.371 . S
C222 H225 0.931 . S
C223 C219 1.391 . S
C223 C222 1.371 . S
C223 H230 0.930 . S
H224 C221 0.928 . S
H225 C222 0.931 . S
H226 C202 0.930 . S
H227 C199 0.930 . S
H228 C208 0.930 . S
H229 C220 0.929 . S
H230 C223 0.930 . S
C231 C232 1.351 . S
C231 N234 1.368 . S
C231 H236 0.931 . S
C232 C231 1.351 . S
C232 N233 1.373 . S
C232 H260 0.930 . S
N233 C232 1.373 . S
N233 C235 1.340 . S
N234 C231 1.368 . S
N234 C235 1.321 . S
N234 Co237 2.135 . S
C235 N233 1.340 . S
C235 N234 1.321 . S
C235 H259 0.930 . S
H236 C231 0.931 . S
Co237 N234 2.135 . S
Co237 N240 2.121 . S
Co237 O245 2.055 . S
Co237 O248 2.039 . S
Co237 N251 2.140 . S
C238 O239 1.227 . S
C238 O248 1.265 . S
O239 C238 1.227 . S
N240 Co237 2.121 . S
N240 C242 1.375 . S
N240 C243 1.313 . S
C241 C242 1.338 . S
C241 N244 1.377 . S
C241 H261 0.930 . S
C242 N240 1.375 . S
C242 C241 1.338 . S
C242 H246 0.931 . S
C243 N240 1.313 . S
C243 N244 1.344 . S
C243 H247 0.930 . S
N244 C241 1.377 . S
N244 C243 1.344 . S
O245 Co237 2.055 . S
O245 C249 1.253 . S
H246 C242 0.931 . S
H247 C243 0.930 . S
O248 Co237 2.039 . S
O248 C238 1.265 . S
C249 O245 1.253 . S
C249 O250 1.227 . S
O250 C249 1.227 . S
N251 Co237 2.140 . S
N251 C254 1.346 . S
N251 C255 1.345 . S
C252 C253 1.387 . S
C252 C256 1.391 . S
C253 C252 1.387 . S
C253 C254 1.369 . S
C253 H262 0.929 . S
C254 N251 1.346 . S
C254 C253 1.369 . S
C254 H257 0.928 . S
C255 N251 1.345 . S
C255 C256 1.371 . S
C255 H258 0.931 . S
C256 C252 1.391 . S
C256 C255 1.371 . S
C256 H263 0.930 . S
H257 C254 0.928 . S
H258 C255 0.931 . S
H259 C235 0.930 . S
H260 C232 0.930 . S
H261 C241 0.930 . S
H262 C253 0.929 . S
H263 C256 0.930 . S
C264 C265 1.351 . S
C264 N267 1.368 . S
C264 H269 0.931 . S
C265 C264 1.351 . S
C265 N266 1.373 . S
C265 H293 0.930 . S
N266 C265 1.373 . S
N266 C268 1.340 . S
N267 C264 1.368 . S
N267 C268 1.321 . S
N267 Co270 2.135 . S
C268 N266 1.340 . S
C268 N267 1.321 . S
C268 H292 0.930 . S
H269 C264 0.931 . S
Co270 N267 2.135 . S
Co270 N273 2.121 . S
Co270 O278 2.055 . S
Co270 O281 2.039 . S
Co270 N284 2.140 . S
C271 O272 1.227 . S
C271 O281 1.265 . S
O272 C271 1.227 . S
N273 Co270 2.121 . S
N273 C275 1.375 . S
N273 C276 1.313 . S
C274 C275 1.338 . S
C274 N277 1.377 . S
C274 H294 0.930 . S
C275 N273 1.375 . S
C275 C274 1.338 . S
C275 H279 0.931 . S
C276 N273 1.313 . S
C276 N277 1.344 . S
C276 H280 0.930 . S
N277 C274 1.377 . S
N277 C276 1.344 . S
O278 Co270 2.055 . S
O278 C282 1.253 . S
H279 C275 0.931 . S
H280 C276 0.930 . S
O281 Co270 2.039 . S
O281 C271 1.265 . S
C282 O278 1.253 . S
C282 O283 1.227 . S
O283 C282 1.227 . S
N284 Co270 2.140 . S
N284 C287 1.346 . S
N284 C288 1.345 . S
C285 C286 1.387 . S
C285 C289 1.391 . S
C286 C285 1.387 . S
C286 C287 1.369 . S
C286 H295 0.929 . S
C287 N284 1.346 . S
C287 C286 1.369 . S
C287 H290 0.928 . S
C288 N284 1.345 . S
C288 C289 1.371 . S
C288 H291 0.931 . S
C289 C285 1.391 . S
C289 C288 1.371 . S
C289 H296 0.930 . S
H290 C287 0.928 . S
H291 C288 0.931 . S
H292 C268 0.930 . S
H293 C265 0.930 . S
H294 C274 0.930 . S
H295 C286 0.929 . S
H296 C289 0.930 . S
C297 C298 1.351 . S
C297 N300 1.368 . S
C297 H302 0.931 . S
C298 C297 1.351 . S
C298 N299 1.373 . S
C298 H326 0.930 . S
N299 C298 1.373 . S
N299 C301 1.340 . S
N300 C297 1.368 . S
N300 C301 1.321 . S
N300 Co303 2.135 . S
C301 N299 1.340 . S
C301 N300 1.321 . S
C301 H325 0.930 . S
H302 C297 0.931 . S
Co303 N300 2.135 . S
Co303 N306 2.121 . S
Co303 O311 2.055 . S
Co303 O314 2.039 . S
Co303 N317 2.140 . S
C304 O305 1.227 . S
C304 O314 1.265 . S
O305 C304 1.227 . S
N306 Co303 2.121 . S
N306 C308 1.375 . S
N306 C309 1.313 . S
C307 C308 1.338 . S
C307 N310 1.377 . S
C307 H327 0.930 . S
C308 N306 1.375 . S
C308 C307 1.338 . S
C308 H312 0.931 . S
C309 N306 1.313 . S
C309 N310 1.344 . S
C309 H313 0.930 . S
N310 C307 1.377 . S
N310 C309 1.344 . S
O311 Co303 2.055 . S
O311 C315 1.253 . S
H312 C308 0.931 . S
H313 C309 0.930 . S
O314 Co303 2.039 . S
O314 C304 1.265 . S
C315 O311 1.253 . S
C315 O316 1.227 . S
O316 C315 1.227 . S
N317 Co303 2.140 . S
N317 C320 1.346 . S
N317 C321 1.345 . S
C318 C319 1.387 . S
C318 C322 1.391 . S
C319 C318 1.387 . S
C319 C320 1.369 . S
C319 H328 0.929 . S
C320 N317 1.346 . S
C320 C319 1.369 . S
C320 H323 0.928 . S
C321 N317 1.345 . S
C321 C322 1.371 . S
C321 H324 0.931 . S
C322 C318 1.391 . S
C322 C321 1.371 . S
C322 H329 0.930 . S
H323 C320 0.928 . S
H324 C321 0.931 . S
H325 C301 0.930 . S
H326 C298 0.930 . S
H327 C307 0.930 . S
H328 C319 0.929 . S
H329 C322 0.930 . S
C330 C331 1.351 . S
C330 N333 1.368 . S
C330 H335 0.931 . S
C331 C330 1.351 . S
C331 N332 1.373 . S
C331 H359 0.930 . S
N332 C331 1.373 . S
N332 C334 1.340 . S
N333 C330 1.368 . S
N333 C334 1.321 . S
N333 Co336 2.135 . S
C334 N332 1.340 . S
C334 N333 1.321 . S
C334 H358 0.930 . S
H335 C330 0.931 . S
Co336 N333 2.135 . S
Co336 N339 2.121 . S
Co336 O344 2.055 . S
Co336 O347 2.039 . S
Co336 N350 2.140 . S
C337 O338 1.227 . S
C337 O347 1.265 . S
O338 C337 1.227 . S
N339 Co336 2.121 . S
N339 C341 1.375 . S
N339 C342 1.313 . S
C340 C341 1.338 . S
C340 N343 1.377 . S
C340 H360 0.930 . S
C341 N339 1.375 . S
C341 C340 1.338 . S
C341 H345 0.931 . S
C342 N339 1.313 . S
C342 N343 1.344 . S
C342 H346 0.930 . S
N343 C340 1.377 . S
N343 C342 1.344 . S
O344 Co336 2.055 . S
O344 C348 1.253 . S
H345 C341 0.931 . S
H346 C342 0.930 . S
O347 Co336 2.039 . S
O347 C337 1.265 . S
C348 O344 1.253 . S
C348 O349 1.227 . S
O349 C348 1.227 . S
N350 Co336 2.140 . S
N350 C353 1.346 . S
N350 C354 1.345 . S
C351 C352 1.387 . S
C351 C355 1.391 . S
C352 C351 1.387 . S
C352 C353 1.369 . S
C352 H361 0.929 . S
C353 N350 1.346 . S
C353 C352 1.369 . S
C353 H356 0.928 . S
C354 N350 1.345 . S
C354 C355 1.371 . S
C354 H357 0.931 . S
C355 C351 1.391 . S
C355 C354 1.371 . S
C355 H362 0.930 . S
H356 C353 0.928 . S
H357 C354 0.931 . S
H358 C334 0.930 . S
H359 C331 0.930 . S
H360 C340 0.930 . S
H361 C352 0.929 . S
H362 C355 0.930 . S
C363 C364 1.351 . S
C363 N366 1.368 . S
C363 H368 0.931 . S
C364 C363 1.351 . S
C364 N365 1.373 . S
C364 H392 0.930 . S
N365 C364 1.373 . S
N365 C367 1.340 . S
N366 C363 1.368 . S
N366 C367 1.321 . S
N366 Co369 2.135 . S
C367 N365 1.340 . S
C367 N366 1.321 . S
C367 H391 0.930 . S
H368 C363 0.931 . S
Co369 N366 2.135 . S
Co369 N372 2.121 . S
Co369 O377 2.055 . S
Co369 O380 2.039 . S
Co369 N383 2.140 . S
C370 O371 1.227 . S
C370 O380 1.265 . S
O371 C370 1.227 . S
N372 Co369 2.121 . S
N372 C374 1.375 . S
N372 C375 1.313 . S
C373 C374 1.338 . S
C373 N376 1.377 . S
C373 H393 0.930 . S
C374 N372 1.375 . S
C374 C373 1.338 . S
C374 H378 0.931 . S
C375 N372 1.313 . S
C375 N376 1.344 . S
C375 H379 0.930 . S
N376 C373 1.377 . S
N376 C375 1.344 . S
O377 Co369 2.055 . S
O377 C381 1.253 . S
H378 C374 0.931 . S
H379 C375 0.930 . S
O380 Co369 2.039 . S
O380 C370 1.265 . S
C381 O377 1.253 . S
C381 O382 1.227 . S
O382 C381 1.227 . S
N383 Co369 2.140 . S
N383 C386 1.346 . S
N383 C387 1.345 . S
C384 C385 1.387 . S
C384 C388 1.391 . S
C385 C384 1.387 . S
C385 C386 1.369 . S
C385 H394 0.929 . S
C386 N383 1.346 . S
C386 C385 1.369 . S
C386 H389 0.928 . S
C387 N383 1.345 . S
C387 C388 1.371 . S
C387 H390 0.931 . S
C388 C384 1.391 . S
C388 C387 1.371 . S
C388 H395 0.930 . S
H389 C386 0.928 . S
H390 C387 0.931 . S
H391 C367 0.930 . S
H392 C364 0.930 . S
H393 C373 0.930 . S
H394 C385 0.929 . S
H395 C388 0.930 . S
C396 C397 1.351 . S
C396 N399 1.368 . S
C396 H401 0.931 . S
C397 C396 1.351 . S
C397 N398 1.373 . S
C397 H425 0.930 . S
N398 C397 1.373 . S
N398 C400 1.340 . S
N399 C396 1.368 . S
N399 C400 1.321 . S
N399 Co402 2.135 . S
C400 N398 1.340 . S
C400 N399 1.321 . S
C400 H424 0.930 . S
H401 C396 0.931 . S
Co402 N399 2.135 . S
Co402 N405 2.121 . S
Co402 O410 2.055 . S
Co402 O413 2.039 . S
Co402 N416 2.140 . S
C403 O404 1.227 . S
C403 O413 1.265 . S
O404 C403 1.227 . S
N405 Co402 2.121 . S
N405 C407 1.375 . S
N405 C408 1.313 . S
C406 C407 1.338 . S
C406 N409 1.377 . S
C406 H426 0.930 . S
C407 N405 1.375 . S
C407 C406 1.338 . S
C407 H411 0.931 . S
C408 N405 1.313 . S
C408 N409 1.344 . S
C408 H412 0.930 . S
N409 C406 1.377 . S
N409 C408 1.344 . S
O410 Co402 2.055 . S
O410 C414 1.253 . S
H411 C407 0.931 . S
H412 C408 0.930 . S
O413 Co402 2.039 . S
O413 C403 1.265 . S
C414 O410 1.253 . S
C414 O415 1.227 . S
O415 C414 1.227 . S
N416 Co402 2.140 . S
N416 C419 1.346 . S
N416 C420 1.345 . S
C417 C418 1.387 . S
C417 C421 1.391 . S
C418 C417 1.387 . S
C418 C419 1.369 . S
C418 H427 0.929 . S
C419 N416 1.346 . S
C419 C418 1.369 . S
C419 H422 0.928 . S
C420 N416 1.345 . S
C420 C421 1.371 . S
C420 H423 0.931 . S
C421 C417 1.391 . S
C421 C420 1.371 . S
C421 H428 0.930 . S
H422 C419 0.928 . S
H423 C420 0.931 . S
H424 C400 0.930 . S
H425 C397 0.930 . S
H426 C406 0.930 . S
H427 C418 0.929 . S
H428 C421 0.930 . S
C429 C430 1.351 . S
C429 N432 1.368 . S
C429 H434 0.931 . S
C430 C429 1.351 . S
C430 N431 1.373 . S
C430 H458 0.930 . S
N431 C430 1.373 . S
N431 C433 1.340 . S
N432 C429 1.368 . S
N432 C433 1.321 . S
N432 Co435 2.135 . S
C433 N431 1.340 . S
C433 N432 1.321 . S
C433 H457 0.930 . S
H434 C429 0.931 . S
Co435 N432 2.135 . S
Co435 N438 2.121 . S
Co435 O443 2.055 . S
Co435 O446 2.039 . S
Co435 N449 2.140 . S
C436 O437 1.227 . S
C436 O446 1.265 . S
O437 C436 1.227 . S
N438 Co435 2.121 . S
N438 C440 1.375 . S
N438 C441 1.313 . S
C439 C440 1.338 . S
C439 N442 1.377 . S
C439 H459 0.930 . S
C440 N438 1.375 . S
C440 C439 1.338 . S
C440 H444 0.931 . S
C441 N438 1.313 . S
C441 N442 1.344 . S
C441 H445 0.930 . S
N442 C439 1.377 . S
N442 C441 1.344 . S
O443 Co435 2.055 . S
O443 C447 1.253 . S
H444 C440 0.931 . S
H445 C441 0.930 . S
O446 Co435 2.039 . S
O446 C436 1.265 . S
C447 O443 1.253 . S
C447 O448 1.227 . S
O448 C447 1.227 . S
N449 Co435 2.140 . S
N449 C452 1.346 . S
N449 C453 1.345 . S
C450 C451 1.387 . S
C450 C454 1.391 . S
C451 C450 1.387 . S
C451 C452 1.369 . S
C451 H460 0.929 . S
C452 N449 1.346 . S
C452 C451 1.369 . S
C452 H455 0.928 . S
C453 N449 1.345 . S
C453 C454 1.371 . S
C453 H456 0.931 . S
C454 C450 1.391 . S
C454 C453 1.371 . S
C454 H461 0.930 . S
H455 C452 0.928 . S
H456 C453 0.931 . S
H457 C433 0.930 . S
H458 C430 0.930 . S
H459 C439 0.930 . S
H460 C451 0.929 . S
H461 C454 0.930 . S
C462 C463 1.351 . S
C462 N465 1.368 . S
C462 H467 0.931 . S
C463 C462 1.351 . S
C463 N464 1.373 . S
C463 H491 0.930 . S
N464 C463 1.373 . S
N464 C466 1.340 . S
N465 C462 1.368 . S
N465 C466 1.321 . S
N465 Co468 2.135 . S
C466 N464 1.340 . S
C466 N465 1.321 . S
C466 H490 0.930 . S
H467 C462 0.931 . S
Co468 N465 2.135 . S
Co468 N471 2.121 . S
Co468 O476 2.055 . S
Co468 O479 2.039 . S
Co468 N482 2.140 . S
C469 O470 1.227 . S
C469 O479 1.265 . S
O470 C469 1.227 . S
N471 Co468 2.121 . S
N471 C473 1.375 . S
N471 C474 1.313 . S
C472 C473 1.338 . S
C472 N475 1.377 . S
C472 H492 0.930 . S
C473 N471 1.375 . S
C473 C472 1.338 . S
C473 H477 0.931 . S
C474 N471 1.313 . S
C474 N475 1.344 . S
C474 H478 0.930 . S
N475 C472 1.377 . S
N475 C474 1.344 . S
O476 Co468 2.055 . S
O476 C480 1.253 . S
H477 C473 0.931 . S
H478 C474 0.930 . S
O479 Co468 2.039 . S
O479 C469 1.265 . S
C480 O476 1.253 . S
C480 O481 1.227 . S
O481 C480 1.227 . S
N482 Co468 2.140 . S
N482 C485 1.346 . S
N482 C486 1.345 . S
C483 C484 1.387 . S
C483 C487 1.391 . S
C484 C483 1.387 . S
C484 C485 1.369 . S
C484 H493 0.929 . S
C485 N482 1.346 . S
C485 C484 1.369 . S
C485 H488 0.928 . S
C486 N482 1.345 . S
C486 C487 1.371 . S
C486 H489 0.931 . S
C487 C483 1.391 . S
C487 C486 1.371 . S
C487 H494 0.930 . S
H488 C485 0.928 . S
H489 C486 0.931 . S
H490 C466 0.930 . S
H491 C463 0.930 . S
H492 C472 0.930 . S
H493 C484 0.929 . S
H494 C487 0.930 . S
C495 C496 1.351 . S
C495 N498 1.368 . S
C495 H500 0.931 . S
C496 C495 1.351 . S
C496 N497 1.373 . S
C496 H524 0.930 . S
N497 C496 1.373 . S
N497 C499 1.340 . S
N498 C495 1.368 . S
N498 C499 1.321 . S
N498 Co501 2.135 . S
C499 N497 1.340 . S
C499 N498 1.321 . S
C499 H523 0.930 . S
H500 C495 0.931 . S
Co501 N498 2.135 . S
Co501 N504 2.121 . S
Co501 O509 2.055 . S
Co501 O512 2.039 . S
Co501 N515 2.140 . S
C502 O503 1.227 . S
C502 O512 1.265 . S
O503 C502 1.227 . S
N504 Co501 2.121 . S
N504 C506 1.375 . S
N504 C507 1.313 . S
C505 C506 1.338 . S
C505 N508 1.377 . S
C505 H525 0.930 . S
C506 N504 1.375 . S
C506 C505 1.338 . S
C506 H510 0.931 . S
C507 N504 1.313 . S
C507 N508 1.344 . S
C507 H511 0.930 . S
N508 C505 1.377 . S
N508 C507 1.344 . S
O509 Co501 2.055 . S
O509 C513 1.253 . S
H510 C506 0.931 . S
H511 C507 0.930 . S
O512 Co501 2.039 . S
O512 C502 1.265 . S
C513 O509 1.253 . S
C513 O514 1.227 . S
O514 C513 1.227 . S
N515 Co501 2.140 . S
N515 C518 1.346 . S
N515 C519 1.345 . S
C516 C517 1.387 . S
C516 C520 1.391 . S
C517 C516 1.387 . S
C517 C518 1.369 . S
C517 H526 0.929 . S
C518 N515 1.346 . S
C518 C517 1.369 . S
C518 H521 0.928 . S
C519 N515 1.345 . S
C519 C520 1.371 . S
C519 H522 0.931 . S
C520 C516 1.391 . S
C520 C519 1.371 . S
C520 H527 0.930 . S
H521 C518 0.928 . S
H522 C519 0.931 . S
H523 C499 0.930 . S
H524 C496 0.930 . S
H525 C505 0.930 . S
H526 C517 0.929 . S
H527 C520 0.930 . S
C528 C529 1.351 . S
C528 N531 1.368 . S
C528 H533 0.931 . S
C529 C528 1.351 . S
C529 N530 1.373 . S
C529 H557 0.930 . S
N530 C529 1.373 . S
N530 C532 1.340 . S
N531 C528 1.368 . S
N531 C532 1.321 . S
N531 Co534 2.135 . S
C532 N530 1.340 . S
C532 N531 1.321 . S
C532 H556 0.930 . S
H533 C528 0.931 . S
Co534 N531 2.135 . S
Co534 N537 2.121 . S
Co534 O542 2.055 . S
Co534 O545 2.039 . S
Co534 N548 2.140 . S
C535 O536 1.227 . S
C535 O545 1.265 . S
O536 C535 1.227 . S
N537 Co534 2.121 . S
N537 C539 1.375 . S
N537 C540 1.313 . S
C538 C539 1.338 . S
C538 N541 1.377 . S
C538 H558 0.930 . S
C539 N537 1.375 . S
C539 C538 1.338 . S
C539 H543 0.931 . S
C540 N537 1.313 . S
C540 N541 1.344 . S
C540 H544 0.930 . S
N541 C538 1.377 . S
N541 C540 1.344 . S
O542 Co534 2.055 . S
O542 C546 1.253 . S
H543 C539 0.931 . S
H544 C540 0.930 . S
O545 Co534 2.039 . S
O545 C535 1.265 . S
C546 O542 1.253 . S
C546 O547 1.227 . S
O547 C546 1.227 . S
N548 Co534 2.140 . S
N548 C551 1.346 . S
N548 C552 1.345 . S
C549 C550 1.387 . S
C549 C553 1.391 . S
C550 C549 1.387 . S
C550 C551 1.369 . S
C550 H559 0.929 . S
C551 N548 1.346 . S
C551 C550 1.369 . S
C551 H554 0.928 . S
C552 N548 1.345 . S
C552 C553 1.371 . S
C552 H555 0.931 . S
C553 C549 1.391 . S
C553 C552 1.371 . S
C553 H560 0.930 . S
H554 C551 0.928 . S
H555 C552 0.931 . S
H556 C532 0.930 . S
H557 C529 0.930 . S
H558 C538 0.930 . S
H559 C550 0.929 . S
H560 C553 0.930 . S
C561 C562 1.351 . S
C561 N564 1.368 . S
C561 H566 0.931 . S
C562 C561 1.351 . S
C562 N563 1.373 . S
C562 H590 0.930 . S
N563 C562 1.373 . S
N563 C565 1.340 . S
N564 C561 1.368 . S
N564 C565 1.321 . S
N564 Co567 2.135 . S
C565 N563 1.340 . S
C565 N564 1.321 . S
C565 H589 0.930 . S
H566 C561 0.931 . S
Co567 N564 2.135 . S
Co567 N570 2.121 . S
Co567 O575 2.055 . S
Co567 O578 2.039 . S
Co567 N581 2.140 . S
C568 O569 1.227 . S
C568 O578 1.265 . S
O569 C568 1.227 . S
N570 Co567 2.121 . S
N570 C572 1.375 . S
N570 C573 1.313 . S
C571 C572 1.338 . S
C571 N574 1.377 . S
C571 H591 0.930 . S
C572 N570 1.375 . S
C572 C571 1.338 . S
C572 H576 0.931 . S
C573 N570 1.313 . S
C573 N574 1.344 . S
C573 H577 0.930 . S
N574 C571 1.377 . S
N574 C573 1.344 . S
O575 Co567 2.055 . S
O575 C579 1.253 . S
H576 C572 0.931 . S
H577 C573 0.930 . S
O578 Co567 2.039 . S
O578 C568 1.265 . S
C579 O575 1.253 . S
C579 O580 1.227 . S
O580 C579 1.227 . S
N581 Co567 2.140 . S
N581 C584 1.346 . S
N581 C585 1.345 . S
C582 C583 1.387 . S
C582 C586 1.391 . S
C583 C582 1.387 . S
C583 C584 1.369 . S
C583 H592 0.929 . S
C584 N581 1.346 . S
C584 C583 1.369 . S
C584 H587 0.928 . S
C585 N581 1.345 . S
C585 C586 1.371 . S
C585 H588 0.931 . S
C586 C582 1.391 . S
C586 C585 1.371 . S
C586 H593 0.930 . S
H587 C584 0.928 . S
H588 C585 0.931 . S
H589 C565 0.930 . S
H590 C562 0.930 . S
H591 C571 0.930 . S
H592 C583 0.929 . S
H593 C586 0.930 . S
C594 C595 1.349 . S
C594 C596 1.327 . S
C594 H619 0.950 . S
C595 C594 1.349 . S
C595 C611 1.349 . S
C596 C594 1.327 . S
C596 C615 1.429 . S
C596 H620 0.950 . S
C597 C614 1.574 . S
C597 C616 1.368 . S
C597 H621 0.949 . S
H598 C602 0.949 . S
C599 C600 1.349 . S
C599 C601 1.327 . S
C599 H622 0.950 . S
C600 C599 1.349 . S
C600 C612 1.349 . S
C601 C599 1.327 . S
C601 C617 1.429 . S
C601 H623 0.950 . S
C602 H598 0.949 . S
C602 C610 1.574 . S
C602 C618 1.368 . S
H603 C611 0.950 . S
H604 C609 0.950 . S
H605 C610 0.949 . S
H606 C612 0.950 . S
H607 C613 0.950 . S
H608 C614 0.949 . S
C609 H604 0.950 . S
C609 C611 1.327 . S
C609 C615 1.429 . S
C610 C602 1.574 . S
C610 H605 0.949 . S
C610 C616 1.368 . S
C611 C595 1.349 . S
C611 H603 0.950 . S
C611 C609 1.327 . S
C612 C600 1.349 . S
C612 H606 0.950 . S
C612 C613 1.327 . S
C613 H607 0.950 . S
C613 C612 1.327 . S
C613 C617 1.429 . S
C614 C597 1.574 . S
C614 H608 0.949 . S
C614 C618 1.368 . S
C615 C596 1.429 . S
C615 C609 1.429 . S
C615 C616 1.523 . S
C616 C597 1.368 . S
C616 C610 1.368 . S
C616 C615 1.523 . S
C617 C601 1.429 . S
C617 C613 1.429 . S
C617 C618 1.523 . S
C618 C602 1.368 . S
C618 C614 1.368 . S
C618 C617 1.523 . S
H619 C594 0.950 . S
H620 C596 0.950 . S
H621 C597 0.949 . S
H622 C599 0.950 . S
H623 C601 0.950 . S
C624 C625 1.349 . S
C624 C626 1.327 . S
C624 H649 0.950 . S
C625 C624 1.349 . S
C625 C641 1.349 . S
C626 C624 1.327 . S
C626 C645 1.429 1_565 S
C626 H650 0.950 . S
C627 C644 1.574 . S
C627 C646 1.368 . S
C627 H651 0.949 . S
H628 C632 0.949 . S
C629 C630 1.349 . S
C629 C631 1.327 . S
C629 H652 0.950 . S
C630 C629 1.349 . S
C630 C642 1.349 . S
C631 C629 1.327 . S
C631 C647 1.429 . S
C631 H653 0.950 . S
C632 H628 0.949 . S
C632 C640 1.574 . S
C632 C648 1.368 . S
H633 C641 0.950 . S
H634 C639 0.994 . S
H635 C640 0.949 . S
H636 C642 0.950 . S
H637 C643 0.950 . S
H638 C644 0.949 . S
C639 H634 0.994 . S
C639 C641 1.279 1_545 S
C639 C645 1.435 . S
C640 C632 1.574 . S
C640 H635 0.949 . S
C640 C646 1.368 . S
C641 C625 1.349 . S
C641 H633 0.950 . S
C641 C639 1.279 1_565 S
C642 C630 1.349 . S
C642 H636 0.950 . S
C642 C643 1.327 . S
C643 H637 0.950 . S
C643 C642 1.327 . S
C643 C647 1.429 . S
C644 C627 1.574 . S
C644 H638 0.949 . S
C644 C648 1.368 . S
C645 C626 1.429 1_545 S
C645 C639 1.435 . S
C645 C646 1.523 . S
C646 C627 1.368 . S
C646 C640 1.368 . S
C646 C645 1.523 . S
C647 C631 1.429 . S
C647 C643 1.429 . S
C647 C648 1.523 . S
C648 C632 1.368 . S
C648 C644 1.368 . S
C648 C647 1.523 . S
H649 C624 0.950 . S
H650 C626 0.950 . S
H651 C627 0.949 . S
H652 C629 0.950 . S
H653 C631 0.950 . S
C654 C655 1.349 . S
C654 C656 1.327 . S
C654 H679 0.950 . S
C655 C654 1.349 . S
C655 C671 1.349 . S
C656 C654 1.327 . S
C656 C675 1.429 1_455 S
C656 H680 0.950 . S
C657 C674 1.574 . S
C657 C676 1.368 . S
C657 H681 0.949 . S
H658 C662 0.949 . S
C659 C660 1.349 . S
C659 C661 1.327 . S
C659 H682 0.950 . S
C660 C659 1.349 . S
C660 C672 1.349 . S
C661 C659 1.327 . S
C661 C677 1.429 . S
C661 H683 0.950 . S
C662 H658 0.949 . S
C662 C670 1.574 . S
C662 C678 1.368 . S
H663 C671 0.950 1_655 S
H664 C669 0.950 . S
H665 C670 0.949 1_455 S
H666 C672 0.950 . S
H667 C673 0.950 . S
H668 C674 0.949 . S
C669 H664 0.950 . S
C669 C671 1.327 1_655 S
C669 C675 1.429 . S
C670 C662 1.574 . S
C670 H665 0.949 1_655 S
C670 C676 1.368 . S
C671 C655 1.349 . S
C671 H663 0.950 1_455 S
C671 C669 1.327 1_455 S
C672 C660 1.349 . S
C672 H666 0.950 . S
C672 C673 1.327 . S
C673 H667 0.950 . S
C673 C672 1.327 . S
C673 C677 1.429 . S
C674 C657 1.574 . S
C674 H668 0.949 . S
C674 C678 1.368 . S
C675 C656 1.429 1_655 S
C675 C669 1.429 . S
C675 C676 1.523 . S
C676 C657 1.368 . S
C676 C670 1.368 . S
C676 C675 1.523 . S
C677 C661 1.429 . S
C677 C673 1.429 . S
C677 C678 1.523 . S
C678 C662 1.368 . S
C678 C674 1.368 . S
C678 C677 1.523 . S
H679 C654 0.950 . S
H680 C656 0.950 . S
H681 C657 0.949 . S
H682 C659 0.950 . S
H683 C661 0.950 . S
C684 C685 1.349 . S
C684 C686 1.327 . S
C684 H709 0.950 . S
C685 C684 1.349 . S
C685 C701 1.349 . S
C686 C684 1.327 . S
C686 C705 1.429 . S
C686 H710 0.950 . S
C687 C704 1.574 . S
C687 C706 1.368 . S
C687 H711 0.949 . S
H688 C692 0.949 . S
C689 C690 1.349 . S
C689 C691 1.327 . S
C689 H712 0.950 . S
C690 C689 1.349 . S
C690 C702 1.349 . S
C691 C689 1.327 . S
C691 C707 1.429 . S
C691 H713 0.950 . S
C692 H688 0.949 . S
C692 C700 1.574 . S
C692 C708 1.368 . S
H693 C701 0.950 . S
H694 C699 0.950 . S
H695 C700 0.949 . S
H696 C702 0.950 . S
H697 C703 0.950 . S
H698 C704 0.949 . S
C699 H694 0.950 . S
C699 C701 1.327 . S
C699 C705 1.429 . S
C700 C692 1.574 . S
C700 H695 0.949 . S
C700 C706 1.368 . S
C701 C685 1.349 . S
C701 H693 0.950 . S
C701 C699 1.327 . S
C702 C690 1.349 . S
C702 H696 0.950 . S
C702 C703 1.327 . S
C703 H697 0.950 . S
C703 C702 1.327 . S
C703 C707 1.429 . S
C704 C687 1.574 . S
C704 H698 0.949 . S
C704 C708 1.368 . S
C705 C686 1.429 . S
C705 C699 1.429 . S
C705 C706 1.523 . S
C706 C687 1.368 . S
C706 C700 1.368 . S
C706 C705 1.523 . S
C707 C691 1.429 . S
C707 C703 1.429 . S
C707 C708 1.523 . S
C708 C692 1.368 . S
C708 C704 1.368 . S
C708 C707 1.523 . S
H709 C684 0.950 . S
H710 C686 0.950 . S
H711 C687 0.949 . S
H712 C689 0.950 . S
H713 C691 0.950 . S
C714 C715 1.349 . S
C714 C716 1.327 . S
C714 H739 0.950 . S
C715 C714 1.349 . S
C715 C731 1.349 . S
C716 C714 1.327 . S
C716 C735 1.429 1_545 S
C716 H740 0.950 . S
C717 C734 1.574 . S
C717 C736 1.368 . S
C717 H741 0.949 . S
H718 C722 0.949 . S
C719 C720 1.349 . S
C719 C721 1.327 . S
C719 H742 0.950 . S
C720 C719 1.349 . S
C720 C732 1.349 . S
C721 C719 1.327 . S
C721 C737 1.429 . S
C721 H743 0.950 . S
C722 H718 0.949 . S
C722 C730 1.574 . S
C722 C738 1.368 . S
H723 C731 0.950 . S
H724 C729 0.950 . S
H725 C730 0.949 . S
H726 C732 0.950 . S
H727 C733 0.950 . S
H728 C734 0.949 . S
C729 H724 0.950 . S
C729 C731 1.327 1_565 S
C729 C735 1.429 . S
C730 C722 1.574 . S
C730 H725 0.949 . S
C730 C736 1.368 . S
C731 C715 1.349 . S
C731 H723 0.950 . S
C731 C729 1.327 1_545 S
C732 C720 1.349 . S
C732 H726 0.950 . S
C732 C733 1.327 . S
C733 H727 0.950 . S
C733 C732 1.327 . S
C733 C737 1.429 . S
C734 C717 1.574 . S
C734 H728 0.949 . S
C734 C738 1.368 . S
C735 C716 1.429 1_565 S
C735 C729 1.429 . S
C735 C736 1.523 . S
C736 C717 1.368 . S
C736 C730 1.368 . S
C736 C735 1.523 . S
C737 C721 1.429 . S
C737 C733 1.429 . S
C737 C738 1.523 . S
C738 C722 1.368 . S
C738 C734 1.368 . S
C738 C737 1.523 . S
H739 C714 0.950 . S
H740 C716 0.950 . S
H741 C717 0.949 . S
H742 C719 0.950 . S
H743 C721 0.950 . S
C744 C745 1.349 . S
C744 C746 1.327 1_655 S
C744 H769 0.950 1_655 S
C745 C744 1.349 . S
C745 C761 1.349 . S
C746 C744 1.327 1_455 S
C746 C765 1.429 . S
C746 H770 0.950 . S
C747 C764 1.574 . S
C747 C766 1.368 . S
C747 H771 0.949 1_455 S
H748 C752 0.949 . S
C749 C750 1.349 . S
C749 C751 1.327 . S
C749 H772 0.950 . S
C750 C749 1.349 . S
C750 C762 1.349 . S
C751 C749 1.327 . S
C751 C767 1.429 . S
C751 H773 0.950 . S
C752 H748 0.949 . S
C752 C760 1.574 . S
C752 C768 1.368 . S
H753 C761 0.950 . S
H754 C759 0.950 . S
H755 C760 0.949 . S
H756 C762 0.950 . S
H757 C763 0.950 . S
H758 C764 0.949 . S
C759 H754 0.950 . S
C759 C761 1.327 . S
C759 C765 1.429 1_655 S
C760 C752 1.574 . S
C760 H755 0.949 . S
C760 C766 1.368 . S
C761 C745 1.349 . S
C761 H753 0.950 . S
C761 C759 1.327 . S
C762 C750 1.349 . S
C762 H756 0.950 . S
C762 C763 1.327 . S
C763 H757 0.950 . S
C763 C762 1.327 . S
C763 C767 1.429 . S
C764 C747 1.574 . S
C764 H758 0.949 . S
C764 C768 1.368 . S
C765 C746 1.429 . S
C765 C759 1.429 1_455 S
C765 C766 1.523 . S
C766 C747 1.368 . S
C766 C760 1.368 . S
C766 C765 1.523 . S
C767 C751 1.429 . S
C767 C763 1.429 . S
C767 C768 1.523 . S
C768 C752 1.368 . S
C768 C764 1.368 . S
C768 C767 1.523 . S
H769 C744 0.950 1_455 S
H770 C746 0.950 . S
H771 C747 0.949 1_655 S
H772 C749 0.950 . S
H773 C751 0.950 . S
C774 C775 1.349 . S
C774 C776 1.327 . S
C774 H799 0.950 . S
C775 C774 1.349 . S
C775 C791 1.349 . S
C776 C774 1.327 . S
C776 C795 1.429 . S
C776 H800 0.950 . S
C777 C794 1.574 . S
C777 C796 1.368 . S
C777 H801 0.949 . S
H778 C782 0.949 . S
C779 C780 1.349 . S
C779 C781 1.327 1_455 S
C779 H802 0.950 . S
C780 C779 1.349 . S
C780 C792 1.349 . S
C781 C779 1.327 1_655 S
C781 C797 1.429 . S
C781 H803 0.950 . S
C782 H778 0.949 . S
C782 C790 1.574 . S
C782 C798 1.368 . S
H783 C791 0.950 . S
H784 C789 0.950 . S
H785 C790 0.949 . S
H786 C792 0.950 . S
H787 C793 0.972 . S
H788 C794 0.949 . S
C789 H784 0.950 . S
C789 C791 1.327 . S
C789 C795 1.429 . S
C790 C782 1.574 . S
C790 H785 0.949 . S
C790 C796 1.368 . S
C791 C775 1.349 . S
C791 H783 0.950 . S
C791 C789 1.327 . S
C792 C780 1.349 . S
C792 H786 0.950 . S
C792 C793 1.300 1_455 S
C793 H787 0.972 . S
C793 C792 1.300 1_655 S
C793 C797 1.434 . S
C794 C777 1.574 . S
C794 H788 0.949 . S
C794 C798 1.368 . S
C795 C776 1.429 . S
C795 C789 1.429 . S
C795 C796 1.523 . S
C796 C777 1.368 . S
C796 C790 1.368 . S
C796 C795 1.523 . S
C797 C781 1.429 . S
C797 C793 1.434 . S
C797 C798 1.523 . S
C798 C782 1.368 . S
C798 C794 1.368 . S
C798 C797 1.523 . S
H799 C774 0.950 . S
H800 C776 0.950 . S
H801 C777 0.949 . S
H802 C779 0.950 . S
H803 C781 0.950 . S
C804 C805 1.349 . S
C804 C806 1.327 . S
C804 H829 0.950 . S
C805 C804 1.349 . S
C805 C821 1.349 . S
C806 C804 1.327 . S
C806 C825 1.429 . S
C806 H830 0.950 . S
C807 C824 1.574 . S
C807 C826 1.368 . S
C807 H831 0.949 . S
H808 C812 0.949 . S
C809 C810 1.349 . S
C809 C811 1.327 . S
C809 H832 0.950 . S
C810 C809 1.349 . S
C810 C822 1.349 . S
C811 C809 1.327 . S
C811 C827 1.429 . S
C811 H833 0.950 . S
C812 H808 0.949 . S
C812 C820 1.574 . S
C812 C828 1.368 . S
H813 C821 0.950 . S
H814 C819 0.950 . S
H815 C820 0.949 . S
H816 C822 0.950 . S
H817 C823 0.950 . S
H818 C824 0.949 . S
C819 H814 0.950 . S
C819 C821 1.327 . S
C819 C825 1.429 . S
C820 C812 1.574 . S
C820 H815 0.949 . S
C820 C826 1.368 . S
C821 C805 1.349 . S
C821 H813 0.950 . S
C821 C819 1.327 . S
C822 C810 1.349 . S
C822 H816 0.950 . S
C822 C823 1.327 . S
C823 H817 0.950 . S
C823 C822 1.327 . S
C823 C827 1.429 . S
C824 C807 1.574 . S
C824 H818 0.949 . S
C824 C828 1.368 . S
C825 C806 1.429 . S
C825 C819 1.429 . S
C825 C826 1.523 . S
C826 C807 1.368 . S
C826 C820 1.368 . S
C826 C825 1.523 . S
C827 C811 1.429 . S
C827 C823 1.429 . S
C827 C828 1.523 . S
C828 C812 1.368 . S
C828 C824 1.368 . S
C828 C827 1.523 . S
H829 C804 0.950 . S
H830 C806 0.950 . S
H831 C807 0.949 . S
H832 C809 0.950 . S
H833 C811 0.950 . S
C834 C835 1.349 . S
C834 C836 1.327 1_565 S
C834 H859 0.950 . S
C835 C834 1.349 . S
C835 C851 1.349 . S
C836 C834 1.327 1_545 S
C836 C855 1.429 . S
C836 H860 0.950 . S
C837 C854 1.574 . S
C837 C856 1.368 . S
C837 H861 0.949 . S
H838 C842 0.949 . S
C839 C840 1.349 . S
C839 C841 1.327 . S
C839 H862 0.950 . S
C840 C839 1.349 . S
C840 C852 1.349 . S
C841 C839 1.327 . S
C841 C857 1.429 . S
C841 H863 0.950 . S
C842 H838 0.949 . S
C842 C850 1.574 . S
C842 C858 1.368 . S
H843 C851 0.950 . S
H844 C849 0.962 . S
H845 C850 0.949 . S
H846 C852 0.950 . S
H847 C853 0.950 . S
H848 C854 0.949 . S
C849 H844 0.962 . S
C849 C851 1.314 1_545 S
C849 C855 1.431 . S
C850 C842 1.574 . S
C850 H845 0.949 . S
C850 C856 1.368 . S
C851 C835 1.349 . S
C851 H843 0.950 . S
C851 C849 1.314 1_565 S
C852 C840 1.349 . S
C852 H846 0.950 . S
C852 C853 1.327 . S
C853 H847 0.950 . S
C853 C852 1.327 . S
C853 C857 1.429 . S
C854 C837 1.574 . S
C854 H848 0.949 . S
C854 C858 1.368 . S
C855 C836 1.429 . S
C855 C849 1.431 . S
C855 C856 1.523 . S
C856 C837 1.368 . S
C856 C850 1.368 . S
C856 C855 1.523 . S
C857 C841 1.429 . S
C857 C853 1.429 . S
C857 C858 1.523 . S
C858 C842 1.368 . S
C858 C854 1.368 . S
C858 C857 1.523 . S
H859 C834 0.950 . S
H860 C836 0.950 . S
H861 C837 0.949 . S
H862 C839 0.950 . S
H863 C841 0.950 . S
C864 C865 1.349 . S
C864 C866 1.327 . S
C864 H889 0.950 . S
C865 C864 1.349 . S
C865 C881 1.349 . S
C866 C864 1.327 . S
C866 C885 1.429 . S
C866 H890 0.950 . S
C867 C884 1.574 . S
C867 C886 1.368 . S
C867 H891 0.949 . S
H868 C872 0.949 . S
C869 C870 1.349 1_554 S
C869 C871 1.327 . S
C869 H892 0.950 . S
C870 C869 1.349 1_556 S
C870 C882 1.349 . S
C871 C869 1.327 . S
C871 C887 1.429 . S
C871 H893 0.950 . S
C872 H868 0.949 . S
C872 C880 1.574 . S
C872 C888 1.368 . S
H873 C881 0.950 . S
H874 C879 0.950 . S
H875 C880 0.949 . S
H876 C882 0.950 . S
H877 C883 0.950 . S
H878 C884 0.949 . S
C879 H874 0.950 . S
C879 C881 1.327 . S
C879 C885 1.429 . S
C880 C872 1.574 . S
C880 H875 0.949 . S
C880 C886 1.368 . S
C881 C865 1.349 . S
C881 H873 0.950 . S
C881 C879 1.327 . S
C882 C870 1.349 . S
C882 H876 0.950 . S
C882 C883 1.327 . S
C883 H877 0.950 . S
C883 C882 1.327 . S
C883 C887 1.429 1_556 S
C884 C867 1.574 . S
C884 H878 0.949 . S
C884 C888 1.368 . S
C885 C866 1.429 . S
C885 C879 1.429 . S
C885 C886 1.523 . S
C886 C867 1.368 . S
C886 C880 1.368 . S
C886 C885 1.523 . S
C887 C871 1.429 . S
C887 C883 1.429 1_554 S
C887 C888 1.523 . S
C888 C872 1.368 . S
C888 C884 1.368 . S
C888 C887 1.523 . S
H889 C864 0.950 . S
H890 C866 0.950 . S
H891 C867 0.949 . S
H892 C869 0.950 . S
H893 C871 0.950 . S
C894 C895 1.349 . S
C894 C896 1.327 . S
C894 H919 0.950 . S
C895 C894 1.349 . S
C895 C911 1.349 . S
C896 C894 1.327 . S
C896 C915 1.429 . S
C896 H920 0.950 . S
C897 C914 1.574 . S
C897 C916 1.368 . S
C897 H921 0.949 . S
H898 C902 0.949 . S
C899 C900 1.349 . S
C899 C901 1.327 . S
C899 H922 0.950 . S
C900 C899 1.349 . S
C900 C912 1.349 1_556 S
C901 C899 1.327 . S
C901 C917 1.429 1_556 S
C901 H923 0.950 . S
C902 H898 0.949 . S
C902 C910 1.574 . S
C902 C918 1.368 . S
H903 C911 0.950 . S
H904 C909 0.950 . S
H905 C910 0.949 . S
H906 C912 0.950 . S
H907 C913 0.950 . S
H908 C914 0.949 . S
C909 H904 0.950 . S
C909 C911 1.327 . S
C909 C915 1.429 . S
C910 C902 1.574 . S
C910 H905 0.949 . S
C910 C916 1.368 . S
C911 C895 1.349 . S
C911 H903 0.950 . S
C911 C909 1.327 . S
C912 C900 1.349 1_554 S
C912 H906 0.950 . S
C912 C913 1.327 . S
C913 H907 0.950 . S
C913 C912 1.327 . S
C913 C917 1.429 . S
C914 C897 1.574 . S
C914 H908 0.949 . S
C914 C918 1.368 . S
C915 C896 1.429 . S
C915 C909 1.429 . S
C915 C916 1.523 . S
C916 C897 1.368 . S
C916 C910 1.368 . S
C916 C915 1.523 . S
C917 C901 1.429 1_554 S
C917 C913 1.429 . S
C917 C918 1.523 . S
C918 C902 1.368 . S
C918 C914 1.368 . S
C918 C917 1.523 . S
H919 C894 0.950 . S
H920 C896 0.950 . S
H921 C897 0.949 . S
H922 C899 0.950 . S
H923 C901 0.950 . S
C924 C925 1.349 . S
C924 C926 1.327 . S
C924 H949 0.950 . S
C925 C924 1.349 . S
C925 C941 1.349 . S
C926 C924 1.327 . S
C926 C945 1.429 . S
C926 H950 0.950 . S
C927 C944 1.574 . S
C927 C946 1.368 . S
C927 H951 0.949 . S
H928 C932 0.949 . S
C929 C930 1.349 1_554 S
C929 C931 1.327 . S
C929 H952 0.950 . S
C930 C929 1.349 1_556 S
C930 C942 1.349 . S
C931 C929 1.327 . S
C931 C947 1.429 . S
C931 H953 0.950 . S
C932 H928 0.949 . S
C932 C940 1.574 . S
C932 C948 1.368 . S
H933 C941 0.950 . S
H934 C939 0.950 . S
H935 C940 0.949 . S
H936 C942 0.950 . S
H937 C943 0.949 1_556 S
H938 C944 0.949 . S
C939 H934 0.950 . S
C939 C941 1.327 . S
C939 C945 1.429 . S
C940 C932 1.574 . S
C940 H935 0.949 . S
C940 C946 1.368 . S
C941 C925 1.349 . S
C941 H933 0.950 . S
C941 C939 1.327 . S
C942 C930 1.349 . S
C942 H936 0.950 . S
C942 C943 1.325 1_556 S
C943 H937 0.949 1_554 S
C943 C942 1.325 1_554 S
C943 C947 1.431 . S
C944 C927 1.574 . S
C944 H938 0.949 . S
C944 C948 1.368 . S
C945 C926 1.429 . S
C945 C939 1.429 . S
C945 C946 1.523 . S
C946 C927 1.368 . S
C946 C940 1.368 . S
C946 C945 1.523 . S
C947 C931 1.429 . S
C947 C943 1.431 . S
C947 C948 1.523 . S
C948 C932 1.368 . S
C948 C944 1.368 . S
C948 C947 1.523 . S
H949 C924 0.950 . S
H950 C926 0.950 . S
H951 C927 0.949 . S
H952 C929 0.950 . S
H953 C931 0.950 . S
C954 C955 1.349 . S
C954 C956 1.327 . S
C954 H979 0.950 . S
C955 C954 1.349 . S
C955 C971 1.349 . S
C956 C954 1.327 . S
C956 C975 1.429 . S
C956 H980 0.950 . S
C957 C974 1.574 . S
C957 C976 1.368 . S
C957 H981 0.949 . S
H958 C962 0.949 . S
C959 C960 1.349 1_556 S
C959 C961 1.327 . S
C959 H982 0.950 . S
C960 C959 1.349 1_554 S
C960 C972 1.349 . S
C961 C959 1.327 . S
C961 C977 1.429 . S
C961 H983 0.950 . S
C962 H958 0.949 . S
C962 C970 1.574 . S
C962 C978 1.368 . S
H963 C971 0.950 . S
H964 C969 0.950 . S
H965 C970 0.949 . S
H966 C972 0.950 . S
H967 C973 0.950 . S
H968 C974 0.949 . S
C969 H964 0.950 . S
C969 C971 1.327 . S
C969 C975 1.429 . S
C970 C962 1.574 . S
C970 H965 0.949 . S
C970 C976 1.368 . S
C971 C955 1.349 . S
C971 H963 0.950 . S
C971 C969 1.327 . S
C972 C960 1.349 . S
C972 H966 0.950 . S
C972 C973 1.327 . S
C973 H967 0.950 . S
C973 C972 1.327 . S
C973 C977 1.429 1_554 S
C974 C957 1.574 . S
C974 H968 0.949 . S
C974 C978 1.368 . S
C975 C956 1.429 . S
C975 C969 1.429 . S
C975 C976 1.523 . S
C976 C957 1.368 . S
C976 C970 1.368 . S
C976 C975 1.523 . S
C977 C961 1.429 . S
C977 C973 1.429 1_556 S
C977 C978 1.523 . S
C978 C962 1.368 . S
C978 C974 1.368 . S
C978 C977 1.523 . S
H979 C954 0.950 . S
H980 C956 0.950 . S
H981 C957 0.949 . S
H982 C959 0.950 . S
H983 C961 0.950 . S
C984 C985 1.349 . S
C984 C986 1.327 . S
C984 H1009 0.950 . S
C985 C984 1.349 . S
C985 C1001 1.349 . S
C986 C984 1.327 . S
C986 C1005 1.429 . S
C986 H1010 0.950 . S
C987 C1004 1.574 . S
C987 C1006 1.368 . S
C987 H1011 0.949 . S
H988 C992 0.949 . S
C989 C990 1.349 . S
C989 C991 1.327 . S
C989 H1012 0.950 . S
C990 C989 1.349 . S
C990 C1002 1.349 1_554 S
C991 C989 1.327 . S
C991 C1007 1.429 1_554 S
C991 H1013 0.950 . S
C992 H988 0.949 . S
C992 C1000 1.574 . S
C992 C1008 1.368 . S
H993 C1001 0.950 . S
H994 C999 0.950 . S
H995 C1000 0.949 . S
H996 C1002 0.950 . S
H997 C1003 0.950 . S
H998 C1004 0.949 . S
C999 H994 0.950 . S
C999 C1001 1.327 . S
C999 C1005 1.429 . S
C1000 C992 1.574 . S
C1000 H995 0.949 . S
C1000 C1006 1.368 . S
C1001 C985 1.349 . S
C1001 H993 0.950 . S
C1001 C999 1.327 . S
C1002 C990 1.349 1_556 S
C1002 H996 0.950 . S
C1002 C1003 1.327 . S
C1003 H997 0.950 . S
C1003 C1002 1.327 . S
C1003 C1007 1.429 . S
C1004 C987 1.574 . S
C1004 H998 0.949 . S
C1004 C1008 1.368 . S
C1005 C986 1.429 . S
C1005 C999 1.429 . S
C1005 C1006 1.523 . S
C1006 C987 1.368 . S
C1006 C1000 1.368 . S
C1006 C1005 1.523 . S
C1007 C991 1.429 1_556 S
C1007 C1003 1.429 . S
C1007 C1008 1.523 . S
C1008 C992 1.368 . S
C1008 C1004 1.368 . S
C1008 C1007 1.523 . S
H1009 C984 0.950 . S
H1010 C986 0.950 . S
H1011 C987 0.949 . S
H1012 C989 0.950 . S
H1013 C991 0.950 . S
C1014 C1015 1.349 . S
C1014 C1016 1.327 . S
C1014 H1039 0.950 . S
C1015 C1014 1.349 . S
C1015 C1031 1.349 1_554 S
C1016 C1014 1.327 . S
C1016 C1035 1.429 1_554 S
C1016 H1040 0.950 . S
C1017 C1034 1.574 . S
C1017 C1036 1.368 . S
C1017 H1041 0.949 . S
H1018 C1022 0.949 . S
C1019 C1020 1.349 . S
C1019 C1021 1.327 . S
C1019 H1042 0.950 . S
C1020 C1019 1.349 . S
C1020 C1032 1.349 . S
C1021 C1019 1.327 . S
C1021 C1037 1.429 . S
C1021 H1043 0.950 . S
C1022 H1018 0.949 . S
C1022 C1030 1.574 . S
C1022 C1038 1.368 . S
H1023 C1031 0.950 . S
H1024 C1029 0.950 . S
H1025 C1030 0.949 . S
H1026 C1032 0.950 . S
H1027 C1033 0.950 . S
H1028 C1034 0.949 . S
C1029 H1024 0.950 . S
C1029 C1031 1.327 . S
C1029 C1035 1.429 . S
C1030 C1022 1.574 . S
C1030 H1025 0.949 . S
C1030 C1036 1.368 . S
C1031 C1015 1.349 1_556 S
C1031 H1023 0.950 . S
C1031 C1029 1.327 . S
C1032 C1020 1.349 . S
C1032 H1026 0.950 . S
C1032 C1033 1.327 . S
C1033 H1027 0.950 . S
C1033 C1032 1.327 . S
C1033 C1037 1.429 . S
C1034 C1017 1.574 . S
C1034 H1028 0.949 . S
C1034 C1038 1.368 . S
C1035 C1016 1.429 1_556 S
C1035 C1029 1.429 . S
C1035 C1036 1.523 . S
C1036 C1017 1.368 . S
C1036 C1030 1.368 . S
C1036 C1035 1.523 . S
C1037 C1021 1.429 . S
C1037 C1033 1.429 . S
C1037 C1038 1.523 . S
C1038 C1022 1.368 . S
C1038 C1034 1.368 . S
C1038 C1037 1.523 . S
H1039 C1014 0.950 . S
H1040 C1016 0.950 . S
H1041 C1017 0.949 . S
H1042 C1019 0.950 . S
H1043 C1021 0.950 . S
C1044 C1045 1.349 . S
C1044 C1046 1.327 1_655 S
C1044 H1069 0.950 . S
C1045 C1044 1.349 . S
C1045 C1061 1.349 . S
C1046 C1044 1.327 1_455 S
C1046 C1065 1.429 . S
C1046 H1070 0.950 . S
C1047 C1064 1.574 . S
C1047 C1066 1.368 . S
C1047 H1071 0.949 . S
H1048 C1052 0.949 . S
C1049 C1050 1.349 . S
C1049 C1051 1.327 . S
C1049 H1072 0.950 . S
C1050 C1049 1.349 . S
C1050 C1062 1.349 . S
C1051 C1049 1.327 . S
C1051 C1067 1.429 . S
C1051 H1073 0.950 . S
C1052 H1048 0.949 . S
C1052 C1060 1.574 . S
C1052 C1068 1.368 . S
H1053 C1061 0.950 . S
H1054 C1059 0.926 1_455 S
H1055 C1060 0.949 . S
H1056 C1062 0.950 . S
H1057 C1063 0.950 . S
H1058 C1064 0.949 . S
C1059 H1054 0.926 1_655 S
C1059 C1061 1.358 . S
C1059 C1065 1.422 1_655 S
C1060 C1052 1.574 . S
C1060 H1055 0.949 . S
C1060 C1066 1.368 . S
C1061 C1045 1.349 . S
C1061 H1053 0.950 . S
C1061 C1059 1.358 . S
C1062 C1050 1.349 . S
C1062 H1056 0.950 . S
C1062 C1063 1.327 . S
C1063 H1057 0.950 . S
C1063 C1062 1.327 . S
C1063 C1067 1.429 . S
C1064 C1047 1.574 . S
C1064 H1058 0.949 . S
C1064 C1068 1.368 . S
C1065 C1046 1.429 . S
C1065 C1059 1.422 1_455 S
C1065 C1066 1.523 . S
C1066 C1047 1.368 . S
C1066 C1060 1.368 . S
C1066 C1065 1.523 . S
C1067 C1051 1.429 . S
C1067 C1063 1.429 . S
C1067 C1068 1.523 . S
C1068 C1052 1.368 . S
C1068 C1064 1.368 . S
C1068 C1067 1.523 . S
H1069 C1044 0.950 . S
H1070 C1046 0.950 . S
H1071 C1047 0.949 . S
H1072 C1049 0.950 . S
H1073 C1051 0.950 . S
C1074 C1075 1.349 . S
C1074 C1076 1.327 . S
C1074 H1099 0.950 . S
C1075 C1074 1.349 . S
C1075 C1091 1.349 . S
C1076 C1074 1.327 . S
C1076 C1095 1.429 . S
C1076 H1100 0.950 . S
C1077 C1094 1.574 . S
C1077 C1096 1.368 . S
C1077 H1101 0.949 . S
H1078 C1082 0.949 . S
C1079 C1080 1.349 . S
C1079 C1081 1.327 . S
C1079 H1102 0.950 . S
C1080 C1079 1.349 . S
C1080 C1092 1.349 . S
C1081 C1079 1.327 . S
C1081 C1097 1.429 . S
C1081 H1103 0.950 . S
C1082 H1078 0.949 . S
C1082 C1090 1.574 . S
C1082 C1098 1.368 . S
H1083 C1091 0.950 . S
H1084 C1089 0.950 . S
H1085 C1090 0.949 . S
H1086 C1092 0.950 . S
H1087 C1093 0.950 . S
H1088 C1094 0.949 . S
C1089 H1084 0.950 . S
C1089 C1091 1.327 . S
C1089 C1095 1.429 . S
C1090 C1082 1.574 . S
C1090 H1085 0.949 . S
C1090 C1096 1.368 . S
C1091 C1075 1.349 . S
C1091 H1083 0.950 . S
C1091 C1089 1.327 . S
C1092 C1080 1.349 . S
C1092 H1086 0.950 . S
C1092 C1093 1.327 . S
C1093 H1087 0.950 . S
C1093 C1092 1.327 . S
C1093 C1097 1.429 . S
C1094 C1077 1.574 . S
C1094 H1088 0.949 . S
C1094 C1098 1.368 . S
C1095 C1076 1.429 . S
C1095 C1089 1.429 . S
C1095 C1096 1.523 . S
C1096 C1077 1.368 . S
C1096 C1090 1.368 . S
C1096 C1095 1.523 . S
C1097 C1081 1.429 . S
C1097 C1093 1.429 . S
C1097 C1098 1.523 . S
C1098 C1082 1.368 . S
C1098 C1094 1.368 . S
C1098 C1097 1.523 . S
H1099 C1074 0.950 . S
H1100 C1076 0.950 . S
H1101 C1077 0.949 . S
H1102 C1079 0.950 . S
H1103 C1081 0.950 . S
C1104 C1105 1.349 . S
C1104 C1106 1.327 . S
C1104 H1129 0.950 . S
C1105 C1104 1.349 . S
C1105 C1121 1.349 . S
C1106 C1104 1.327 . S
C1106 C1125 1.429 . S
C1106 H1130 0.950 . S
C1107 C1124 1.574 . S
C1107 C1126 1.368 . S
C1107 H1131 0.949 . S
H1108 C1112 0.949 . S
C1109 C1110 1.349 . S
C1109 C1111 1.327 . S
C1109 H1132 0.950 . S
C1110 C1109 1.349 . S
C1110 C1122 1.349 . S
C1111 C1109 1.327 . S
C1111 C1127 1.429 1_545 S
C1111 H1133 0.950 . S
C1112 H1108 0.949 . S
C1112 C1120 1.574 . S
C1112 C1128 1.368 . S
H1113 C1121 0.950 . S
H1114 C1119 0.950 . S
H1115 C1120 0.949 . S
H1116 C1122 0.950 . S
H1117 C1123 0.950 . S
H1118 C1124 0.949 . S
C1119 H1114 0.950 . S
C1119 C1121 1.327 . S
C1119 C1125 1.429 . S
C1120 C1112 1.574 . S
C1120 H1115 0.949 . S
C1120 C1126 1.368 . S
C1121 C1105 1.349 . S
C1121 H1113 0.950 . S
C1121 C1119 1.327 . S
C1122 C1110 1.349 . S
C1122 H1116 0.950 . S
C1122 C1123 1.327 1_545 S
C1123 H1117 0.950 . S
C1123 C1122 1.327 1_565 S
C1123 C1127 1.429 . S
C1124 C1107 1.574 . S
C1124 H1118 0.949 . S
C1124 C1128 1.368 . S
C1125 C1106 1.429 . S
C1125 C1119 1.429 . S
C1125 C1126 1.523 . S
C1126 C1107 1.368 . S
C1126 C1120 1.368 . S
C1126 C1125 1.523 . S
C1127 C1111 1.429 1_565 S
C1127 C1123 1.429 . S
C1127 C1128 1.523 . S
C1128 C1112 1.368 . S
C1128 C1124 1.368 . S
C1128 C1127 1.523 . S
H1129 C1104 0.950 . S
H1130 C1106 0.950 . S
H1131 C1107 0.949 . S
H1132 C1109 0.950 . S
H1133 C1111 0.950 . S
C1134 C1135 1.349 . S
C1134 C1136 1.327 . S
C1134 H1159 0.950 . S
C1135 C1134 1.349 . S
C1135 C1151 1.349 . S
C1136 C1134 1.327 . S
C1136 C1155 1.429 . S
C1136 H1160 0.950 . S
C1137 C1154 1.574 . S
C1137 C1156 1.368 . S
C1137 H1161 0.949 . S
H1138 C1142 0.949 . S
C1139 C1140 1.349 . S
C1139 C1141 1.327 . S
C1139 H1162 0.950 . S
C1140 C1139 1.349 . S
C1140 C1152 1.349 . S
C1141 C1139 1.327 . S
C1141 C1157 1.429 . S
C1141 H1163 0.950 . S
C1142 H1138 0.949 . S
C1142 C1150 1.574 . S
C1142 C1158 1.368 . S
H1143 C1151 0.950 . S
H1144 C1149 0.950 . S
H1145 C1150 0.949 . S
H1146 C1152 0.950 . S
H1147 C1153 0.950 . S
H1148 C1154 0.949 . S
C1149 H1144 0.950 . S
C1149 C1151 1.327 . S
C1149 C1155 1.429 . S
C1150 C1142 1.574 . S
C1150 H1145 0.949 . S
C1150 C1156 1.368 . S
C1151 C1135 1.349 . S
C1151 H1143 0.950 . S
C1151 C1149 1.327 . S
C1152 C1140 1.349 . S
C1152 H1146 0.950 . S
C1152 C1153 1.327 . S
C1153 H1147 0.950 . S
C1153 C1152 1.327 . S
C1153 C1157 1.429 . S
C1154 C1137 1.574 . S
C1154 H1148 0.949 . S
C1154 C1158 1.368 . S
C1155 C1136 1.429 . S
C1155 C1149 1.429 . S
C1155 C1156 1.523 . S
C1156 C1137 1.368 . S
C1156 C1150 1.368 . S
C1156 C1155 1.523 . S
C1157 C1141 1.429 . S
C1157 C1153 1.429 . S
C1157 C1158 1.523 . S
C1158 C1142 1.368 . S
C1158 C1154 1.368 . S
C1158 C1157 1.523 . S
H1159 C1134 0.950 . S
H1160 C1136 0.950 . S
H1161 C1137 0.949 . S
H1162 C1139 0.950 . S
H1163 C1141 0.950 . S
C1164 C1165 1.349 . S
C1164 C1166 1.327 . S
C1164 H1189 0.950 . S
C1165 C1164 1.349 . S
C1165 C1181 1.349 . S
C1166 C1164 1.327 . S
C1166 C1185 1.429 . S
C1166 H1190 0.950 . S
C1167 C1184 1.574 . S
C1167 C1186 1.368 . S
C1167 H1191 0.949 . S
H1168 C1172 0.949 . S
C1169 C1170 1.349 . S
C1169 C1171 1.327 . S
C1169 H1192 0.950 . S
C1170 C1169 1.349 . S
C1170 C1182 1.349 . S
C1171 C1169 1.327 . S
C1171 C1187 1.429 . S
C1171 H1193 0.950 . S
C1172 H1168 0.949 . S
C1172 C1180 1.574 . S
C1172 C1188 1.368 . S
H1173 C1181 0.950 . S
H1174 C1179 0.950 . S
H1175 C1180 0.949 . S
H1176 C1182 0.950 . S
H1177 C1183 0.950 . S
H1178 C1184 0.949 . S
C1179 H1174 0.950 . S
C1179 C1181 1.327 . S
C1179 C1185 1.429 . S
C1180 C1172 1.574 . S
C1180 H1175 0.949 . S
C1180 C1186 1.368 . S
C1181 C1165 1.349 . S
C1181 H1173 0.950 . S
C1181 C1179 1.327 . S
C1182 C1170 1.349 . S
C1182 H1176 0.950 . S
C1182 C1183 1.327 . S
C1183 H1177 0.950 . S
C1183 C1182 1.327 . S
C1183 C1187 1.429 . S
C1184 C1167 1.574 . S
C1184 H1178 0.949 . S
C1184 C1188 1.368 . S
C1185 C1166 1.429 . S
C1185 C1179 1.429 . S
C1185 C1186 1.523 . S
C1186 C1167 1.368 . S
C1186 C1180 1.368 . S
C1186 C1185 1.523 . S
C1187 C1171 1.429 . S
C1187 C1183 1.429 . S
C1187 C1188 1.523 . S
C1188 C1172 1.368 . S
C1188 C1184 1.368 . S
C1188 C1187 1.523 . S
H1189 C1164 0.950 . S
H1190 C1166 0.950 . S
H1191 C1167 0.949 . S
H1192 C1169 0.950 . S
H1193 C1171 0.950 . S
C1194 C1195 1.349 . S
C1194 C1196 1.327 . S
C1194 H1219 0.950 . S
C1195 C1194 1.349 . S
C1195 C1211 1.349 . S
C1196 C1194 1.327 . S
C1196 C1215 1.429 . S
C1196 H1220 0.950 . S
C1197 C1214 1.574 . S
C1197 C1216 1.368 . S
C1197 H1221 0.949 . S
H1198 C1202 0.949 . S
C1199 C1200 1.349 . S
C1199 C1201 1.327 . S
C1199 H1222 0.950 . S
C1200 C1199 1.349 . S
C1200 C1212 1.349 . S
C1201 C1199 1.327 . S
C1201 C1217 1.429 . S
C1201 H1223 0.950 . S
C1202 H1198 0.949 . S
C1202 C1210 1.574 . S
C1202 C1218 1.368 . S
H1203 C1211 0.950 . S
H1204 C1209 0.950 . S
H1205 C1210 0.949 . S
H1206 C1212 0.950 . S
H1207 C1213 0.950 . S
H1208 C1214 0.949 . S
C1209 H1204 0.950 . S
C1209 C1211 1.327 . S
C1209 C1215 1.429 . S
C1210 C1202 1.574 . S
C1210 H1205 0.949 . S
C1210 C1216 1.368 . S
C1211 C1195 1.349 . S
C1211 H1203 0.950 . S
C1211 C1209 1.327 . S
C1212 C1200 1.349 . S
C1212 H1206 0.950 . S
C1212 C1213 1.327 . S
C1213 H1207 0.950 . S
C1213 C1212 1.327 . S
C1213 C1217 1.429 . S
C1214 C1197 1.574 . S
C1214 H1208 0.949 . S
C1214 C1218 1.368 . S
C1215 C1196 1.429 . S
C1215 C1209 1.429 . S
C1215 C1216 1.523 . S
C1216 C1197 1.368 . S
C1216 C1210 1.368 . S
C1216 C1215 1.523 . S
C1217 C1201 1.429 . S
C1217 C1213 1.429 . S
C1217 C1218 1.523 . S
C1218 C1202 1.368 . S
C1218 C1214 1.368 . S
C1218 C1217 1.523 . S
H1219 C1194 0.950 . S
H1220 C1196 0.950 . S
H1221 C1197 0.949 . S
H1222 C1199 0.950 . S
H1223 C1201 0.950 . S
C1224 C1225 1.349 . S
C1224 C1226 1.327 . S
C1224 H1249 0.950 . S
C1225 C1224 1.349 . S
C1225 C1241 1.349 . S
C1226 C1224 1.327 . S
C1226 C1245 1.429 . S
C1226 H1250 0.950 . S
C1227 C1244 1.574 . S
C1227 C1246 1.368 . S
C1227 H1251 0.949 . S
H1228 C1232 0.949 . S
C1229 C1230 1.349 . S
C1229 C1231 1.327 . S
C1229 H1252 0.950 . S
C1230 C1229 1.349 . S
C1230 C1242 1.349 . S
C1231 C1229 1.327 . S
C1231 C1247 1.429 . S
C1231 H1253 0.950 . S
C1232 H1228 0.949 . S
C1232 C1240 1.574 . S
C1232 C1248 1.368 . S
H1233 C1241 0.950 . S
H1234 C1239 0.950 . S
H1235 C1240 0.949 . S
H1236 C1242 0.950 . S
H1237 C1243 0.950 . S
H1238 C1244 0.949 . S
C1239 H1234 0.950 . S
C1239 C1241 1.327 . S
C1239 C1245 1.429 . S
C1240 C1232 1.574 . S
C1240 H1235 0.949 . S
C1240 C1246 1.368 . S
C1241 C1225 1.349 . S
C1241 H1233 0.950 . S
C1241 C1239 1.327 . S
C1242 C1230 1.349 . S
C1242 H1236 0.950 . S
C1242 C1243 1.327 . S
C1243 H1237 0.950 . S
C1243 C1242 1.327 . S
C1243 C1247 1.429 . S
C1244 C1227 1.574 . S
C1244 H1238 0.949 . S
C1244 C1248 1.368 . S
C1245 C1226 1.429 . S
C1245 C1239 1.429 . S
C1245 C1246 1.523 . S
C1246 C1227 1.368 . S
C1246 C1240 1.368 . S
C1246 C1245 1.523 . S
C1247 C1231 1.429 . S
C1247 C1243 1.429 . S
C1247 C1248 1.523 . S
C1248 C1232 1.368 . S
C1248 C1244 1.368 . S
C1248 C1247 1.523 . S
H1249 C1224 0.950 . S
H1250 C1226 0.950 . S
H1251 C1227 0.949 . S
H1252 C1229 0.950 . S
H1253 C1231 0.950 . S
C1254 C1255 1.349 . S
C1254 C1256 1.327 . S
C1254 H1279 0.950 . S
C1255 C1254 1.349 . S
C1255 C1271 1.349 . S
C1256 C1254 1.327 . S
C1256 C1275 1.429 . S
C1256 H1280 0.950 . S
C1257 C1274 1.574 . S
C1257 C1276 1.368 . S
C1257 H1281 0.949 . S
H1258 C1262 0.949 . S
C1259 C1260 1.349 . S
C1259 C1261 1.327 . S
C1259 H1282 0.950 . S
C1260 C1259 1.349 . S
C1260 C1272 1.349 . S
C1261 C1259 1.327 . S
C1261 C1277 1.429 . S
C1261 H1283 0.950 . S
C1262 H1258 0.949 . S
C1262 C1270 1.574 . S
C1262 C1278 1.368 . S
H1263 C1271 0.950 . S
H1264 C1269 0.950 . S
H1265 C1270 0.949 . S
H1266 C1272 0.950 . S
H1267 C1273 0.950 . S
H1268 C1274 0.949 . S
C1269 H1264 0.950 . S
C1269 C1271 1.327 . S
C1269 C1275 1.429 . S
C1270 C1262 1.574 . S
C1270 H1265 0.949 . S
C1270 C1276 1.368 . S
C1271 C1255 1.349 . S
C1271 H1263 0.950 . S
C1271 C1269 1.327 . S
C1272 C1260 1.349 . S
C1272 H1266 0.950 . S
C1272 C1273 1.327 . S
C1273 H1267 0.950 . S
C1273 C1272 1.327 . S
C1273 C1277 1.429 . S
C1274 C1257 1.574 . S
C1274 H1268 0.949 . S
C1274 C1278 1.368 . S
C1275 C1256 1.429 . S
C1275 C1269 1.429 . S
C1275 C1276 1.523 . S
C1276 C1257 1.368 . S
C1276 C1270 1.368 . S
C1276 C1275 1.523 . S
C1277 C1261 1.429 . S
C1277 C1273 1.429 . S
C1277 C1278 1.523 . S
C1278 C1262 1.368 . S
C1278 C1274 1.368 . S
C1278 C1277 1.523 . S
H1279 C1254 0.950 . S
H1280 C1256 0.950 . S
H1281 C1257 0.949 . S
H1282 C1259 0.950 . S
H1283 C1261 0.950 . S
C1284 C1285 1.349 . S
C1284 C1286 1.327 . S
C1284 H1309 0.950 . S
C1285 C1284 1.349 . S
C1285 C1301 1.349 . S
C1286 C1284 1.327 . S
C1286 C1305 1.429 . S
C1286 H1310 0.950 . S
C1287 C1304 1.574 . S
C1287 C1306 1.368 . S
C1287 H1311 0.949 . S
H1288 C1292 0.949 . S
C1289 C1290 1.349 . S
C1289 C1291 1.327 . S
C1289 H1312 0.950 . S
C1290 C1289 1.349 . S
C1290 C1302 1.349 . S
C1291 C1289 1.327 . S
C1291 C1307 1.429 . S
C1291 H1313 0.950 . S
C1292 H1288 0.949 . S
C1292 C1300 1.574 . S
C1292 C1308 1.368 . S
H1293 C1301 0.950 . S
H1294 C1299 0.950 . S
H1295 C1300 0.949 . S
H1296 C1302 0.950 . S
H1297 C1303 0.950 . S
H1298 C1304 0.949 . S
C1299 H1294 0.950 . S
C1299 C1301 1.327 . S
C1299 C1305 1.429 . S
C1300 C1292 1.574 . S
C1300 H1295 0.949 . S
C1300 C1306 1.368 . S
C1301 C1285 1.349 . S
C1301 H1293 0.950 . S
C1301 C1299 1.327 . S
C1302 C1290 1.349 . S
C1302 H1296 0.950 . S
C1302 C1303 1.327 . S
C1303 H1297 0.950 . S
C1303 C1302 1.327 . S
C1303 C1307 1.429 . S
C1304 C1287 1.574 . S
C1304 H1298 0.949 . S
C1304 C1308 1.368 . S
C1305 C1286 1.429 . S
C1305 C1299 1.429 . S
C1305 C1306 1.523 . S
C1306 C1287 1.368 . S
C1306 C1300 1.368 . S
C1306 C1305 1.523 . S
C1307 C1291 1.429 . S
C1307 C1303 1.429 . S
C1307 C1308 1.523 . S
C1308 C1292 1.368 . S
C1308 C1304 1.368 . S
C1308 C1307 1.523 . S
H1309 C1284 0.950 . S
H1310 C1286 0.950 . S
H1311 C1287 0.949 . S
H1312 C1289 0.950 . S
H1313 C1291 0.950 . S
C1314 C1315 1.349 . S
C1314 C1316 1.327 . S
C1314 H1339 0.950 . S
C1315 C1314 1.349 . S
C1315 C1331 1.349 . S
C1316 C1314 1.327 . S
C1316 C1335 1.429 . S
C1316 H1340 0.950 . S
C1317 C1334 1.574 1_554 S
C1317 C1336 1.368 1_565 S
C1317 H1341 0.949 . S
H1318 C1322 0.949 . S
C1319 C1320 1.349 . S
C1319 C1321 1.327 . S
C1319 H1342 0.950 . S
C1320 C1319 1.349 . S
C1320 C1332 1.349 . S
C1321 C1319 1.327 . S
C1321 C1337 1.429 . S
C1321 H1343 0.950 . S
C1322 H1318 0.949 . S
C1322 C1330 1.574 1_556 S
C1322 C1338 1.368 1_545 S
H1323 C1331 0.950 . S
H1324 C1329 0.950 1_565 S
H1325 C1330 0.949 . S
H1326 C1332 0.950 . S
H1327 C1333 0.950 1_545 S
H1328 C1334 0.949 . S
C1329 H1324 0.950 1_545 S
C1329 C1331 1.327 . S
C1329 C1335 1.429 . S
C1330 C1322 1.574 1_554 S
C1330 H1325 0.949 . S
C1330 C1336 1.368 . S
C1331 C1315 1.349 . S
C1331 H1323 0.950 . S
C1331 C1329 1.327 . S
C1332 C1320 1.349 . S
C1332 H1326 0.950 . S
C1332 C1333 1.327 . S
C1333 H1327 0.950 1_565 S
C1333 C1332 1.327 . S
C1333 C1337 1.429 . S
C1334 C1317 1.574 1_556 S
C1334 H1328 0.949 . S
C1334 C1338 1.368 . S
C1335 C1316 1.429 . S
C1335 C1329 1.429 . S
C1335 C1336 1.523 . S
C1336 C1317 1.368 1_545 S
C1336 C1330 1.368 . S
C1336 C1335 1.523 . S
C1337 C1321 1.429 . S
C1337 C1333 1.429 . S
C1337 C1338 1.523 . S
C1338 C1322 1.368 1_565 S
C1338 C1334 1.368 . S
C1338 C1337 1.523 . S
H1339 C1314 0.950 . S
H1340 C1316 0.950 . S
H1341 C1317 0.949 . S
H1342 C1319 0.950 . S
H1343 C1321 0.950 . S
C1344 C1345 1.349 . S
C1344 C1346 1.327 . S
C1344 H1369 0.950 . S
C1345 C1344 1.349 . S
C1345 C1361 1.349 . S
C1346 C1344 1.327 . S
C1346 C1365 1.429 . S
C1346 H1370 0.950 . S
C1347 C1364 1.574 1_556 S
C1347 C1366 1.368 . S
C1347 H1371 0.949 . S
H1348 C1352 0.949 . S
C1349 C1350 1.349 . S
C1349 C1351 1.327 . S
C1349 H1372 0.950 . S
C1350 C1349 1.349 . S
C1350 C1362 1.349 . S
C1351 C1349 1.327 . S
C1351 C1367 1.429 . S
C1351 H1373 0.950 . S
C1352 H1348 0.949 . S
C1352 C1360 1.574 1_554 S
C1352 C1368 1.368 . S
H1353 C1361 0.950 . S
H1354 C1359 0.950 . S
H1355 C1360 0.949 . S
H1356 C1362 0.950 . S
H1357 C1363 0.950 . S
H1358 C1364 0.949 . S
C1359 H1354 0.950 . S
C1359 C1361 1.327 . S
C1359 C1365 1.429 . S
C1360 C1352 1.574 1_556 S
C1360 H1355 0.949 . S
C1360 C1366 1.368 1_655 S
C1361 C1345 1.349 . S
C1361 H1353 0.950 . S
C1361 C1359 1.327 . S
C1362 C1350 1.349 . S
C1362 H1356 0.950 . S
C1362 C1363 1.327 . S
C1363 H1357 0.950 . S
C1363 C1362 1.327 . S
C1363 C1367 1.429 . S
C1364 C1347 1.574 1_554 S
C1364 H1358 0.949 . S
C1364 C1368 1.368 1_455 S
C1365 C1346 1.429 . S
C1365 C1359 1.429 . S
C1365 C1366 1.523 . S
C1366 C1347 1.368 . S
C1366 C1360 1.368 1_455 S
C1366 C1365 1.523 . S
C1367 C1351 1.429 . S
C1367 C1363 1.429 . S
C1367 C1368 1.523 . S
C1368 C1352 1.368 . S
C1368 C1364 1.368 1_655 S
C1368 C1367 1.523 . S
H1369 C1344 0.950 . S
H1370 C1346 0.950 . S
H1371 C1347 0.949 . S
H1372 C1349 0.950 . S
H1373 C1351 0.950 . S
C1374 C1375 1.349 . S
C1374 C1376 1.327 . S
C1374 H1399 0.950 . S
C1375 C1374 1.349 . S
C1375 C1391 1.349 . S
C1376 C1374 1.327 . S
C1376 C1395 1.429 . S
C1376 H1400 0.950 . S
C1377 C1394 1.574 1_556 S
C1377 C1396 1.368 . S
C1377 H1401 0.949 . S
H1378 C1382 0.949 . S
C1379 C1380 1.349 . S
C1379 C1381 1.327 . S
C1379 H1402 0.950 . S
C1380 C1379 1.349 . S
C1380 C1392 1.349 . S
C1381 C1379 1.327 . S
C1381 C1397 1.429 . S
C1381 H1403 0.950 . S
C1382 H1378 0.949 . S
C1382 C1390 1.574 1_554 S
C1382 C1398 1.368 . S
H1383 C1391 0.950 . S
H1384 C1389 0.950 . S
H1385 C1390 0.949 . S
H1386 C1392 0.950 . S
H1387 C1393 0.950 . S
H1388 C1394 0.949 . S
C1389 H1384 0.950 . S
C1389 C1391 1.327 . S
C1389 C1395 1.429 . S
C1390 C1382 1.574 1_556 S
C1390 H1385 0.949 . S
C1390 C1396 1.368 . S
C1391 C1375 1.349 . S
C1391 H1383 0.950 . S
C1391 C1389 1.327 . S
C1392 C1380 1.349 . S
C1392 H1386 0.950 . S
C1392 C1393 1.327 . S
C1393 H1387 0.950 . S
C1393 C1392 1.327 . S
C1393 C1397 1.429 . S
C1394 C1377 1.574 1_554 S
C1394 H1388 0.949 . S
C1394 C1398 1.368 . S
C1395 C1376 1.429 . S
C1395 C1389 1.429 . S
C1395 C1396 1.523 . S
C1396 C1377 1.368 . S
C1396 C1390 1.368 . S
C1396 C1395 1.523 . S
C1397 C1381 1.429 . S
C1397 C1393 1.429 . S
C1397 C1398 1.523 . S
C1398 C1382 1.368 . S
C1398 C1394 1.368 . S
C1398 C1397 1.523 . S
H1399 C1374 0.950 . S
H1400 C1376 0.950 . S
H1401 C1377 0.949 . S
H1402 C1379 0.950 . S
H1403 C1381 0.950 . S
C1404 C1405 1.349 . S
C1404 C1406 1.327 . S
C1404 H1429 0.950 . S
C1405 C1404 1.349 . S
C1405 C1421 1.349 1_554 S
C1406 C1404 1.327 . S
C1406 C1425 1.429 . S
C1406 H1430 0.950 . S
C1407 C1424 1.574 . S
C1407 C1426 1.368 . S
C1407 H1431 0.949 . S
H1408 C1412 0.949 1_554 S
C1409 C1410 1.349 . S
C1409 C1411 1.327 . S
C1409 H1432 0.950 . S
C1410 C1409 1.349 . S
C1410 C1422 1.349 . S
C1411 C1409 1.327 . S
C1411 C1427 1.429 . S
C1411 H1433 0.950 . S
C1412 H1408 0.949 1_556 S
C1412 C1420 1.574 1_556 S
C1412 C1428 1.368 . S
H1413 C1421 0.950 . S
H1414 C1419 0.950 . S
H1415 C1420 0.949 . S
H1416 C1422 0.950 . S
H1417 C1423 0.950 . S
H1418 C1424 0.949 . S
C1419 H1414 0.950 . S
C1419 C1421 1.327 . S
C1419 C1425 1.429 1_556 S
C1420 C1412 1.574 1_554 S
C1420 H1415 0.949 . S
C1420 C1426 1.368 1_554 S
C1421 C1405 1.349 1_556 S
C1421 H1413 0.950 . S
C1421 C1419 1.327 . S
C1422 C1410 1.349 . S
C1422 H1416 0.950 . S
C1422 C1423 1.327 . S
C1423 H1417 0.950 . S
C1423 C1422 1.327 . S
C1423 C1427 1.429 . S
C1424 C1407 1.574 . S
C1424 H1418 0.949 . S
C1424 C1428 1.368 . S
C1425 C1406 1.429 . S
C1425 C1419 1.429 1_554 S
C1425 C1426 1.523 1_554 S
C1426 C1407 1.368 . S
C1426 C1420 1.368 1_556 S
C1426 C1425 1.523 1_556 S
C1427 C1411 1.429 . S
C1427 C1423 1.429 . S
C1427 C1428 1.523 . S
C1428 C1412 1.368 . S
C1428 C1424 1.368 . S
C1428 C1427 1.523 . S
H1429 C1404 0.950 . S
H1430 C1406 0.950 . S
H1431 C1407 0.949 . S
H1432 C1409 0.950 . S
H1433 C1411 0.950 . S
C1434 C1435 1.349 . S
C1434 C1436 1.327 . S
C1434 H1459 0.950 . S
C1435 C1434 1.349 . S
C1435 C1451 1.349 . S
C1436 C1434 1.327 . S
C1436 C1455 1.429 . S
C1436 H1460 0.950 . S
C1437 C1454 1.574 1_556 S
C1437 C1456 1.368 . S
C1437 H1461 0.949 1_556 S
H1438 C1442 0.949 . S
C1439 C1440 1.349 . S
C1439 C1441 1.327 . S
C1439 H1462 0.950 . S
C1440 C1439 1.349 . S
C1440 C1452 1.358 . S
C1441 C1439 1.327 . S
C1441 C1457 1.429 . S
C1441 H1463 0.950 . S
C1442 H1438 0.949 . S
C1442 C1450 1.574 . S
C1442 C1458 1.368 . S
H1443 C1451 0.950 . S
H1444 C1449 0.950 . S
H1445 C1450 0.949 . S
H1446 C1452 0.945 1_556 S
H1447 C1453 0.950 . S
H1448 C1454 0.949 . S
C1449 H1444 0.950 . S
C1449 C1451 1.327 . S
C1449 C1455 1.429 . S
C1450 C1442 1.574 . S
C1450 H1445 0.949 . S
C1450 C1456 1.368 . S
C1451 C1435 1.349 . S
C1451 H1443 0.950 . S
C1451 C1449 1.327 . S
C1452 C1440 1.358 . S
C1452 H1446 0.945 1_554 S
C1452 C1453 1.323 1_554 S
C1453 H1447 0.950 . S
C1453 C1452 1.323 1_556 S
C1453 C1457 1.429 1_556 S
C1454 C1437 1.574 1_554 S
C1454 H1448 0.949 . S
C1454 C1458 1.368 1_554 S
C1455 C1436 1.429 . S
C1455 C1449 1.429 . S
C1455 C1456 1.523 . S
C1456 C1437 1.368 . S
C1456 C1450 1.368 . S
C1456 C1455 1.523 . S
C1457 C1441 1.429 . S
C1457 C1453 1.429 1_554 S
C1457 C1458 1.523 1_554 S
C1458 C1442 1.368 . S
C1458 C1454 1.368 1_556 S
C1458 C1457 1.523 1_556 S
H1459 C1434 0.950 . S
H1460 C1436 0.950 . S
H1461 C1437 0.949 1_554 S
H1462 C1439 0.950 . S
H1463 C1441 0.950 . S
C1464 C1465 1.349 . S
C1464 C1466 1.327 . S
C1464 H1489 0.950 . S
C1465 C1464 1.349 . S
C1465 C1481 1.349 1_554 S
C1466 C1464 1.327 . S
C1466 C1485 1.429 . S
C1466 H1490 0.950 . S
C1467 C1484 1.574 . S
C1467 C1486 1.368 . S
C1467 H1491 0.949 . S
H1468 C1472 0.949 1_554 S
C1469 C1470 1.349 . S
C1469 C1471 1.327 . S
C1469 H1492 0.950 . S
C1470 C1469 1.349 . S
C1470 C1482 1.349 . S
C1471 C1469 1.327 . S
C1471 C1487 1.429 . S
C1471 H1493 0.950 . S
C1472 H1468 0.949 1_556 S
C1472 C1480 1.574 1_556 S
C1472 C1488 1.368 . S
H1473 C1481 0.950 . S
H1474 C1479 0.950 . S
H1475 C1480 0.949 . S
H1476 C1482 0.950 . S
H1477 C1483 0.950 . S
H1478 C1484 0.949 . S
C1479 H1474 0.950 . S
C1479 C1481 1.327 . S
C1479 C1485 1.429 1_556 S
C1480 C1472 1.574 1_554 S
C1480 H1475 0.949 . S
C1480 C1486 1.368 1_554 S
C1481 C1465 1.349 1_556 S
C1481 H1473 0.950 . S
C1481 C1479 1.327 . S
C1482 C1470 1.349 . S
C1482 H1476 0.950 . S
C1482 C1483 1.327 . S
C1483 H1477 0.950 . S
C1483 C1482 1.327 . S
C1483 C1487 1.429 . S
C1484 C1467 1.574 . S
C1484 H1478 0.949 . S
C1484 C1488 1.368 . S
C1485 C1466 1.429 . S
C1485 C1479 1.429 1_554 S
C1485 C1486 1.523 1_554 S
C1486 C1467 1.368 . S
C1486 C1480 1.368 1_556 S
C1486 C1485 1.523 1_556 S
C1487 C1471 1.429 . S
C1487 C1483 1.429 . S
C1487 C1488 1.523 . S
C1488 C1472 1.368 . S
C1488 C1484 1.368 . S
C1488 C1487 1.523 . S
H1489 C1464 0.950 . S
H1490 C1466 0.950 . S
H1491 C1467 0.949 . S
H1492 C1469 0.950 . S
H1493 C1471 0.950 . S
C1494 C1495 1.349 . S
C1494 C1496 1.327 . S
C1494 H1519 0.950 . S
C1495 C1494 1.349 . S
C1495 C1511 1.349 . S
C1496 C1494 1.327 . S
C1496 C1515 1.429 . S
C1496 H1520 0.950 . S
C1497 C1514 1.574 . S
C1497 C1516 1.368 . S
C1497 H1521 0.949 . S
H1498 C1502 0.950 . S
C1499 C1500 1.349 . S
C1499 C1501 1.327 1_556 S
C1499 H1522 0.950 . S
C1500 C1499 1.349 . S
C1500 C1512 1.349 . S
C1501 C1499 1.327 1_554 S
C1501 C1517 1.429 1_554 S
C1501 H1523 0.950 . S
C1502 H1498 0.950 . S
C1502 C1510 1.573 1_556 S
C1502 C1518 1.368 1_556 S
H1503 C1511 0.950 . S
H1504 C1509 0.950 . S
H1505 C1510 0.949 . S
H1506 C1512 0.950 . S
H1507 C1513 0.950 . S
H1508 C1514 0.949 . S
C1509 H1504 0.950 . S
C1509 C1511 1.327 . S
C1509 C1515 1.429 . S
C1510 C1502 1.573 1_554 S
C1510 H1505 0.949 . S
C1510 C1516 1.368 . S
C1511 C1495 1.349 . S
C1511 H1503 0.950 . S
C1511 C1509 1.327 . S
C1512 C1500 1.349 . S
C1512 H1506 0.950 . S
C1512 C1513 1.327 . S
C1513 H1507 0.950 . S
C1513 C1512 1.327 . S
C1513 C1517 1.429 . S
C1514 C1497 1.574 . S
C1514 H1508 0.949 . S
C1514 C1518 1.368 . S
C1515 C1496 1.429 . S
C1515 C1509 1.429 . S
C1515 C1516 1.523 . S
C1516 C1497 1.368 . S
C1516 C1510 1.368 . S
C1516 C1515 1.523 . S
C1517 C1501 1.429 1_556 S
C1517 C1513 1.429 . S
C1517 C1518 1.523 1_556 S
C1518 C1502 1.368 1_554 S
C1518 C1514 1.368 . S
C1518 C1517 1.523 1_554 S
H1519 C1494 0.950 . S
H1520 C1496 0.950 . S
H1521 C1497 0.949 . S
H1522 C1499 0.950 . S
H1523 C1501 0.950 . S
C1524 C1525 1.349 . S
C1524 C1526 1.327 . S
C1524 H1549 0.950 . S
C1525 C1524 1.349 . S
C1525 C1541 1.349 . S
C1526 C1524 1.327 . S
C1526 C1545 1.429 . S
C1526 H1550 0.950 . S
C1527 C1544 1.574 . S
C1527 C1546 1.368 . S
C1527 H1551 0.949 . S
H1528 C1532 0.949 . S
C1529 C1530 1.349 . S
C1529 C1531 1.327 . S
C1529 H1552 0.950 . S
C1530 C1529 1.349 . S
C1530 C1542 1.349 . S
C1531 C1529 1.327 . S
C1531 C1547 1.429 . S
C1531 H1553 0.950 . S
C1532 H1528 0.949 . S
C1532 C1540 1.574 1_554 S
C1532 C1548 1.368 . S
H1533 C1541 0.950 1_544 S
H1534 C1539 0.950 . S
H1535 C1540 0.949 . S
H1536 C1542 0.950 . S
H1537 C1543 0.950 . S
H1538 C1544 0.949 . S
C1539 H1534 0.950 . S
C1539 C1541 1.327 1_554 S
C1539 C1545 1.429 1_554 S
C1540 C1532 1.574 1_556 S
C1540 H1535 0.949 . S
C1540 C1546 1.368 1_556 S
C1541 C1525 1.349 . S
C1541 H1533 0.950 1_566 S
C1541 C1539 1.327 1_556 S
C1542 C1530 1.349 . S
C1542 H1536 0.950 . S
C1542 C1543 1.327 . S
C1543 H1537 0.950 . S
C1543 C1542 1.327 . S
C1543 C1547 1.429 . S
C1544 C1527 1.574 . S
C1544 H1538 0.949 . S
C1544 C1548 1.368 . S
C1545 C1526 1.429 . S
C1545 C1539 1.429 1_556 S
C1545 C1546 1.523 1_556 S
C1546 C1527 1.368 . S
C1546 C1540 1.368 1_554 S
C1546 C1545 1.523 1_554 S
C1547 C1531 1.429 . S
C1547 C1543 1.429 . S
C1547 C1548 1.523 . S
C1548 C1532 1.368 . S
C1548 C1544 1.368 . S
C1548 C1547 1.523 . S
H1549 C1524 0.950 . S
H1550 C1526 0.950 . S
H1551 C1527 0.949 . S
H1552 C1529 0.950 . S
H1553 C1531 0.950 . S
C1554 C1555 1.349 . S
C1554 C1556 1.327 . S
C1554 H1579 0.950 . S
C1555 C1554 1.349 . S
C1555 C1571 1.349 . S
C1556 C1554 1.327 . S
C1556 C1575 1.429 . S
C1556 H1580 0.950 . S
C1557 C1574 1.574 . S
C1557 C1576 1.368 . S
C1557 H1581 0.949 . S
H1558 C1562 0.949 . S
C1559 C1560 1.349 1_554 S
C1559 C1561 1.327 . S
C1559 H1582 0.950 1_455 S
C1560 C1559 1.349 1_556 S
C1560 C1572 1.349 . S
C1561 C1559 1.327 . S
C1561 C1577 1.429 1_554 S
C1561 H1583 0.950 . S
C1562 H1558 0.949 . S
C1562 C1570 1.574 1_556 S
C1562 C1578 1.368 1_556 S
H1563 C1571 0.950 . S
H1564 C1569 0.950 . S
H1565 C1570 0.949 1_556 S
H1566 C1572 0.950 . S
H1567 C1573 0.950 . S
H1568 C1574 0.949 . S
C1569 H1564 0.950 . S
C1569 C1571 1.327 . S
C1569 C1575 1.429 . S
C1570 C1562 1.574 1_554 S
C1570 H1565 0.949 1_554 S
C1570 C1576 1.368 . S
C1571 C1555 1.349 . S
C1571 H1563 0.950 . S
C1571 C1569 1.327 . S
C1572 C1560 1.349 . S
C1572 H1566 0.950 . S
C1572 C1573 1.327 . S
C1573 H1567 0.950 . S
C1573 C1572 1.327 . S
C1573 C1577 1.429 . S
C1574 C1557 1.574 . S
C1574 H1568 0.949 . S
C1574 C1578 1.368 . S
C1575 C1556 1.429 . S
C1575 C1569 1.429 . S
C1575 C1576 1.523 . S
C1576 C1557 1.368 . S
C1576 C1570 1.368 . S
C1576 C1575 1.523 . S
C1577 C1561 1.429 1_556 S
C1577 C1573 1.429 . S
C1577 C1578 1.523 1_556 S
C1578 C1562 1.368 1_554 S
C1578 C1574 1.368 . S
C1578 C1577 1.523 1_554 S
H1579 C1554 0.950 . S
H1580 C1556 0.950 . S
H1581 C1557 0.949 . S
H1582 C1559 0.950 1_655 S
H1583 C1561 0.950 . S
C1584 C1585 1.349 . S
C1584 C1586 1.327 . S
C1584 H1609 0.950 . S
C1585 C1584 1.349 . S
C1585 C1601 1.349 . S
C1586 C1584 1.327 . S
C1586 C1605 1.429 . S
C1586 H1610 0.950 . S
C1587 C1604 1.574 . S
C1587 C1606 1.368 . S
C1587 H1611 0.949 . S
H1588 C1592 0.949 . S
C1589 C1590 1.349 . S
C1589 C1591 1.327 . S
C1589 H1612 0.950 . S
C1590 C1589 1.349 . S
C1590 C1602 1.349 . S
C1591 C1589 1.327 . S
C1591 C1607 1.429 . S
C1591 H1613 0.950 . S
C1592 H1588 0.949 . S
C1592 C1600 1.574 . S
C1592 C1608 1.368 . S
H1593 C1601 0.950 . S
H1594 C1599 0.950 . S
H1595 C1600 0.949 . S
H1596 C1602 0.950 . S
H1597 C1603 0.950 . S
H1598 C1604 0.949 . S
C1599 H1594 0.950 . S
C1599 C1601 1.327 . S
C1599 C1605 1.429 . S
C1600 C1592 1.574 . S
C1600 H1595 0.949 . S
C1600 C1606 1.368 . S
C1601 C1585 1.349 . S
C1601 H1593 0.950 . S
C1601 C1599 1.327 . S
C1602 C1590 1.349 . S
C1602 H1596 0.950 . S
C1602 C1603 1.327 . S
C1603 H1597 0.950 . S
C1603 C1602 1.327 . S
C1603 C1607 1.429 . S
C1604 C1587 1.574 . S
C1604 H1598 0.949 . S
C1604 C1608 1.368 . S
C1605 C1586 1.429 . S
C1605 C1599 1.429 . S
C1605 C1606 1.523 . S
C1606 C1587 1.368 . S
C1606 C1600 1.368 . S
C1606 C1605 1.523 . S
C1607 C1591 1.429 . S
C1607 C1603 1.429 . S
C1607 C1608 1.523 . S
C1608 C1592 1.368 . S
C1608 C1604 1.368 . S
C1608 C1607 1.523 . S
H1609 C1584 0.950 . S
H1610 C1586 0.950 . S
H1611 C1587 0.949 . S
H1612 C1589 0.950 . S
H1613 C1591 0.950 . S
C1614 C1615 1.349 . S
C1614 C1616 1.327 . S
C1614 H1639 0.950 . S
C1615 C1614 1.349 . S
C1615 C1631 1.349 . S
C1616 C1614 1.327 . S
C1616 C1635 1.429 . S
C1616 H1640 0.950 . S
C1617 C1634 1.574 . S
C1617 C1636 1.368 . S
C1617 H1641 0.949 . S
H1618 C1622 0.949 . S
C1619 C1620 1.349 . S
C1619 C1621 1.327 . S
C1619 H1642 0.950 . S
C1620 C1619 1.349 . S
C1620 C1632 1.349 . S
C1621 C1619 1.327 . S
C1621 C1637 1.429 . S
C1621 H1643 0.950 . S
C1622 H1618 0.949 . S
C1622 C1630 1.574 . S
C1622 C1638 1.368 . S
H1623 C1631 0.950 . S
H1624 C1629 0.950 . S
H1625 C1630 0.949 . S
H1626 C1632 0.950 . S
H1627 C1633 0.950 . S
H1628 C1634 0.949 . S
C1629 H1624 0.950 . S
C1629 C1631 1.327 . S
C1629 C1635 1.429 . S
C1630 C1622 1.574 . S
C1630 H1625 0.949 . S
C1630 C1636 1.368 . S
C1631 C1615 1.349 . S
C1631 H1623 0.950 . S
C1631 C1629 1.327 . S
C1632 C1620 1.349 . S
C1632 H1626 0.950 . S
C1632 C1633 1.327 . S
C1633 H1627 0.950 . S
C1633 C1632 1.327 . S
C1633 C1637 1.429 . S
C1634 C1617 1.574 . S
C1634 H1628 0.949 . S
C1634 C1638 1.368 . S
C1635 C1616 1.429 . S
C1635 C1629 1.429 . S
C1635 C1636 1.523 . S
C1636 C1617 1.368 . S
C1636 C1630 1.368 . S
C1636 C1635 1.523 . S
C1637 C1621 1.429 . S
C1637 C1633 1.429 . S
C1637 C1638 1.523 . S
C1638 C1622 1.368 . S
C1638 C1634 1.368 . S
C1638 C1637 1.523 . S
H1639 C1614 0.950 . S
H1640 C1616 0.950 . S
H1641 C1617 0.949 . S
H1642 C1619 0.950 . S
H1643 C1621 0.950 . S
C1644 C1645 1.349 . S
C1644 C1646 1.327 . S
C1644 H1669 0.950 . S
C1645 C1644 1.349 . S
C1645 C1661 1.349 . S
C1646 C1644 1.327 . S
C1646 C1665 1.429 . S
C1646 H1670 0.950 . S
C1647 C1664 1.574 . S
C1647 C1666 1.368 . S
C1647 H1671 0.949 . S
H1648 C1652 0.949 . S
C1649 C1650 1.349 . S
C1649 C1651 1.327 . S
C1649 H1672 0.950 . S
C1650 C1649 1.349 . S
C1650 C1662 1.349 . S
C1651 C1649 1.327 . S
C1651 C1667 1.429 . S
C1651 H1673 0.950 . S
C1652 H1648 0.949 . S
C1652 C1660 1.574 . S
C1652 C1668 1.368 . S
H1653 C1661 0.950 . S
H1654 C1659 0.950 . S
H1655 C1660 0.949 . S
H1656 C1662 0.950 . S
H1657 C1663 0.950 . S
H1658 C1664 0.949 . S
C1659 H1654 0.950 . S
C1659 C1661 1.327 . S
C1659 C1665 1.429 . S
C1660 C1652 1.574 . S
C1660 H1655 0.949 . S
C1660 C1666 1.368 . S
C1661 C1645 1.349 . S
C1661 H1653 0.950 . S
C1661 C1659 1.327 . S
C1662 C1650 1.349 . S
C1662 H1656 0.950 . S
C1662 C1663 1.327 . S
C1663 H1657 0.950 . S
C1663 C1662 1.327 . S
C1663 C1667 1.429 . S
C1664 C1647 1.574 . S
C1664 H1658 0.949 . S
C1664 C1668 1.368 . S
C1665 C1646 1.429 . S
C1665 C1659 1.429 . S
C1665 C1666 1.523 . S
C1666 C1647 1.368 . S
C1666 C1660 1.368 . S
C1666 C1665 1.523 . S
C1667 C1651 1.429 . S
C1667 C1663 1.429 . S
C1667 C1668 1.523 . S
C1668 C1652 1.368 . S
C1668 C1664 1.368 . S
C1668 C1667 1.523 . S
H1669 C1644 0.950 . S
H1670 C1646 0.950 . S
H1671 C1647 0.949 . S
H1672 C1649 0.950 . S
H1673 C1651 0.950 . S
C1674 C1675 1.349 . S
C1674 C1676 1.327 . S
C1674 H1699 0.950 . S
C1675 C1674 1.349 . S
C1675 C1691 1.349 . S
C1676 C1674 1.327 . S
C1676 C1695 1.429 . S
C1676 H1700 0.950 . S
C1677 C1694 1.574 . S
C1677 C1696 1.368 . S
C1677 H1701 0.949 . S
H1678 C1682 0.949 . S
C1679 C1680 1.349 . S
C1679 C1681 1.327 . S
C1679 H1702 0.950 . S
C1680 C1679 1.349 . S
C1680 C1692 1.349 . S
C1681 C1679 1.327 . S
C1681 C1697 1.429 . S
C1681 H1703 0.950 . S
C1682 H1678 0.949 . S
C1682 C1690 1.574 . S
C1682 C1698 1.368 . S
H1683 C1691 0.950 . S
H1684 C1689 0.950 . S
H1685 C1690 0.949 . S
H1686 C1692 0.950 . S
H1687 C1693 0.950 . S
H1688 C1694 0.949 . S
C1689 H1684 0.950 . S
C1689 C1691 1.327 . S
C1689 C1695 1.429 . S
C1690 C1682 1.574 . S
C1690 H1685 0.949 . S
C1690 C1696 1.368 . S
C1691 C1675 1.349 . S
C1691 H1683 0.950 . S
C1691 C1689 1.327 . S
C1692 C1680 1.349 . S
C1692 H1686 0.950 . S
C1692 C1693 1.327 . S
C1693 H1687 0.950 . S
C1693 C1692 1.327 . S
C1693 C1697 1.429 . S
C1694 C1677 1.574 . S
C1694 H1688 0.949 . S
C1694 C1698 1.368 . S
C1695 C1676 1.429 . S
C1695 C1689 1.429 . S
C1695 C1696 1.523 . S
C1696 C1677 1.368 . S
C1696 C1690 1.368 . S
C1696 C1695 1.523 . S
C1697 C1681 1.429 . S
C1697 C1693 1.429 . S
C1697 C1698 1.523 . S
C1698 C1682 1.368 . S
C1698 C1694 1.368 . S
C1698 C1697 1.523 . S
H1699 C1674 0.950 . S
H1700 C1676 0.950 . S
H1701 C1677 0.949 . S
H1702 C1679 0.950 . S
H1703 C1681 0.950 . S
C1704 C1705 1.349 . S
C1704 C1706 1.327 . S
C1704 H1729 0.950 . S
C1705 C1704 1.349 . S
C1705 C1721 1.349 . S
C1706 C1704 1.327 . S
C1706 C1725 1.429 . S
C1706 H1730 0.950 . S
C1707 C1724 1.574 . S
C1707 C1726 1.368 . S
C1707 H1731 0.949 . S
H1708 C1712 0.949 . S
C1709 C1710 1.349 . S
C1709 C1711 1.327 . S
C1709 H1732 0.950 . S
C1710 C1709 1.349 . S
C1710 C1722 1.349 . S
C1711 C1709 1.327 . S
C1711 C1727 1.429 . S
C1711 H1733 0.950 . S
C1712 H1708 0.949 . S
C1712 C1720 1.574 . S
C1712 C1728 1.368 . S
H1713 C1721 0.950 . S
H1714 C1719 0.950 . S
H1715 C1720 0.949 . S
H1716 C1722 0.950 . S
H1717 C1723 0.950 . S
H1718 C1724 0.949 . S
C1719 H1714 0.950 . S
C1719 C1721 1.327 . S
C1719 C1725 1.429 . S
C1720 C1712 1.574 . S
C1720 H1715 0.949 . S
C1720 C1726 1.368 . S
C1721 C1705 1.349 . S
C1721 H1713 0.950 . S
C1721 C1719 1.327 . S
C1722 C1710 1.349 . S
C1722 H1716 0.950 . S
C1722 C1723 1.327 . S
C1723 H1717 0.950 . S
C1723 C1722 1.327 . S
C1723 C1727 1.429 . S
C1724 C1707 1.574 . S
C1724 H1718 0.949 . S
C1724 C1728 1.368 . S
C1725 C1706 1.429 . S
C1725 C1719 1.429 . S
C1725 C1726 1.523 . S
C1726 C1707 1.368 . S
C1726 C1720 1.368 . S
C1726 C1725 1.523 . S
C1727 C1711 1.429 . S
C1727 C1723 1.429 . S
C1727 C1728 1.523 . S
C1728 C1712 1.368 . S
C1728 C1724 1.368 . S
C1728 C1727 1.523 . S
H1729 C1704 0.950 . S
H1730 C1706 0.950 . S
H1731 C1707 0.949 . S
H1732 C1709 0.950 . S
H1733 C1711 0.950 . S
C1734 C1735 1.349 . S
C1734 C1736 1.327 . S
C1734 H1759 0.950 . S
C1735 C1734 1.349 . S
C1735 C1751 1.349 . S
C1736 C1734 1.327 . S
C1736 C1755 1.429 . S
C1736 H1760 0.950 . S
C1737 C1754 1.574 . S
C1737 C1756 1.368 . S
C1737 H1761 0.949 . S
H1738 C1742 0.949 . S
C1739 C1740 1.349 . S
C1739 C1741 1.327 . S
C1739 H1762 0.950 . S
C1740 C1739 1.349 . S
C1740 C1752 1.349 . S
C1741 C1739 1.327 . S
C1741 C1757 1.429 . S
C1741 H1763 0.950 . S
C1742 H1738 0.949 . S
C1742 C1750 1.574 . S
C1742 C1758 1.368 . S
H1743 C1751 0.950 . S
H1744 C1749 0.950 . S
H1745 C1750 0.949 . S
H1746 C1752 0.950 . S
H1747 C1753 0.950 . S
H1748 C1754 0.949 . S
C1749 H1744 0.950 . S
C1749 C1751 1.327 . S
C1749 C1755 1.429 . S
C1750 C1742 1.574 . S
C1750 H1745 0.949 . S
C1750 C1756 1.368 . S
C1751 C1735 1.349 . S
C1751 H1743 0.950 . S
C1751 C1749 1.327 . S
C1752 C1740 1.349 . S
C1752 H1746 0.950 . S
C1752 C1753 1.327 . S
C1753 H1747 0.950 . S
C1753 C1752 1.327 . S
C1753 C1757 1.429 . S
C1754 C1737 1.574 . S
C1754 H1748 0.949 . S
C1754 C1758 1.368 . S
C1755 C1736 1.429 . S
C1755 C1749 1.429 . S
C1755 C1756 1.523 . S
C1756 C1737 1.368 . S
C1756 C1750 1.368 . S
C1756 C1755 1.523 . S
C1757 C1741 1.429 . S
C1757 C1753 1.429 . S
C1757 C1758 1.523 . S
C1758 C1742 1.368 . S
C1758 C1754 1.368 . S
C1758 C1757 1.523 . S
H1759 C1734 0.950 . S
H1760 C1736 0.950 . S
H1761 C1737 0.949 . S
H1762 C1739 0.950 . S
H1763 C1741 0.950 . S
C1764 C1765 1.349 . S
C1764 C1766 1.327 . S
C1764 H1789 0.950 . S
C1765 C1764 1.349 . S
C1765 C1781 1.349 . S
C1766 C1764 1.327 . S
C1766 C1785 1.429 . S
C1766 H1790 0.950 . S
C1767 C1784 1.574 . S
C1767 C1786 1.368 . S
C1767 H1791 0.949 . S
H1768 C1772 0.949 . S
C1769 C1770 1.349 . S
C1769 C1771 1.327 . S
C1769 H1792 0.950 . S
C1770 C1769 1.349 . S
C1770 C1782 1.349 . S
C1771 C1769 1.327 . S
C1771 C1787 1.429 . S
C1771 H1793 0.950 . S
C1772 H1768 0.949 . S
C1772 C1780 1.574 . S
C1772 C1788 1.368 . S
H1773 C1781 0.950 . S
H1774 C1779 0.950 . S
H1775 C1780 0.949 . S
H1776 C1782 0.950 . S
H1777 C1783 0.950 . S
H1778 C1784 0.949 . S
C1779 H1774 0.950 . S
C1779 C1781 1.327 . S
C1779 C1785 1.429 . S
C1780 C1772 1.574 . S
C1780 H1775 0.949 . S
C1780 C1786 1.368 . S
C1781 C1765 1.349 . S
C1781 H1773 0.950 . S
C1781 C1779 1.327 . S
C1782 C1770 1.349 . S
C1782 H1776 0.950 . S
C1782 C1783 1.327 . S
C1783 H1777 0.950 . S
C1783 C1782 1.327 . S
C1783 C1787 1.429 . S
C1784 C1767 1.574 . S
C1784 H1778 0.949 . S
C1784 C1788 1.368 . S
C1785 C1766 1.429 . S
C1785 C1779 1.429 . S
C1785 C1786 1.523 . S
C1786 C1767 1.368 . S
C1786 C1780 1.368 . S
C1786 C1785 1.523 . S
C1787 C1771 1.429 . S
C1787 C1783 1.429 . S
C1787 C1788 1.523 . S
C1788 C1772 1.368 . S
C1788 C1784 1.368 . S
C1788 C1787 1.523 . S
H1789 C1764 0.950 . S
H1790 C1766 0.950 . S
H1791 C1767 0.949 . S
H1792 C1769 0.950 . S
H1793 C1771 0.950 . S
C1794 C1795 1.349 . S
C1794 C1796 1.327 . S
C1794 H1819 0.950 . S
C1795 C1794 1.349 . S
C1795 C1811 1.349 . S
C1796 C1794 1.327 . S
C1796 C1815 1.429 . S
C1796 H1820 0.950 . S
C1797 C1814 1.574 . S
C1797 C1816 1.368 . S
C1797 H1821 0.949 . S
H1798 C1802 0.949 . S
C1799 C1800 1.349 . S
C1799 C1801 1.327 . S
C1799 H1822 0.950 . S
C1800 C1799 1.349 . S
C1800 C1812 1.349 . S
C1801 C1799 1.327 . S
C1801 C1817 1.429 . S
C1801 H1823 0.950 . S
C1802 H1798 0.949 . S
C1802 C1810 1.574 . S
C1802 C1818 1.368 . S
H1803 C1811 0.950 . S
H1804 C1809 0.950 . S
H1805 C1810 0.949 . S
H1806 C1812 0.950 . S
H1807 C1813 0.950 . S
H1808 C1814 0.949 . S
C1809 H1804 0.950 . S
C1809 C1811 1.327 . S
C1809 C1815 1.429 . S
C1810 C1802 1.574 . S
C1810 H1805 0.949 . S
C1810 C1816 1.368 . S
C1811 C1795 1.349 . S
C1811 H1803 0.950 . S
C1811 C1809 1.327 . S
C1812 C1800 1.349 . S
C1812 H1806 0.950 . S
C1812 C1813 1.327 . S
C1813 H1807 0.950 . S
C1813 C1812 1.327 . S
C1813 C1817 1.429 . S
C1814 C1797 1.574 . S
C1814 H1808 0.949 . S
C1814 C1818 1.368 . S
C1815 C1796 1.429 . S
C1815 C1809 1.429 . S
C1815 C1816 1.523 . S
C1816 C1797 1.368 . S
C1816 C1810 1.368 . S
C1816 C1815 1.523 . S
C1817 C1801 1.429 . S
C1817 C1813 1.429 . S
C1817 C1818 1.523 . S
C1818 C1802 1.368 . S
C1818 C1814 1.368 . S
C1818 C1817 1.523 . S
H1819 C1794 0.950 . S
H1820 C1796 0.950 . S
H1821 C1797 0.949 . S
H1822 C1799 0.950 . S
H1823 C1801 0.950 . S
C1824 C1825 1.349 . S
C1824 C1826 1.327 . S
C1824 H1849 0.950 . S
C1825 C1824 1.349 . S
C1825 C1841 1.349 . S
C1826 C1824 1.327 . S
C1826 C1845 1.429 . S
C1826 H1850 0.950 . S
C1827 C1844 1.574 . S
C1827 C1846 1.368 . S
C1827 H1851 0.949 . S
H1828 C1832 0.949 . S
C1829 C1830 1.349 . S
C1829 C1831 1.327 . S
C1829 H1852 0.950 . S
C1830 C1829 1.349 . S
C1830 C1842 1.349 . S
C1831 C1829 1.327 . S
C1831 C1847 1.429 . S
C1831 H1853 0.950 . S
C1832 H1828 0.949 . S
C1832 C1840 1.574 . S
C1832 C1848 1.368 . S
H1833 C1841 0.950 . S
H1834 C1839 0.950 . S
H1835 C1840 0.949 . S
H1836 C1842 0.950 . S
H1837 C1843 0.950 . S
H1838 C1844 0.949 . S
C1839 H1834 0.950 . S
C1839 C1841 1.327 . S
C1839 C1845 1.429 . S
C1840 C1832 1.574 . S
C1840 H1835 0.949 . S
C1840 C1846 1.368 . S
C1841 C1825 1.349 . S
C1841 H1833 0.950 . S
C1841 C1839 1.327 . S
C1842 C1830 1.349 . S
C1842 H1836 0.950 . S
C1842 C1843 1.327 . S
C1843 H1837 0.950 . S
C1843 C1842 1.327 . S
C1843 C1847 1.429 . S
C1844 C1827 1.574 . S
C1844 H1838 0.949 . S
C1844 C1848 1.368 . S
C1845 C1826 1.429 . S
C1845 C1839 1.429 . S
C1845 C1846 1.523 . S
C1846 C1827 1.368 . S
C1846 C1840 1.368 . S
C1846 C1845 1.523 . S
C1847 C1831 1.429 . S
C1847 C1843 1.429 . S
C1847 C1848 1.523 . S
C1848 C1832 1.368 . S
C1848 C1844 1.368 . S
C1848 C1847 1.523 . S
H1849 C1824 0.950 . S
H1850 C1826 0.950 . S
H1851 C1827 0.949 . S
H1852 C1829 0.950 . S
H1853 C1831 0.950 . S
C1854 C1855 1.349 . S
C1854 C1856 1.327 . S
C1854 H1879 0.950 . S
C1855 C1854 1.349 . S
C1855 C1871 1.349 . S
C1856 C1854 1.327 . S
C1856 C1875 1.429 . S
C1856 H1880 0.950 . S
C1857 C1874 1.574 . S
C1857 C1876 1.368 . S
C1857 H1881 0.949 . S
H1858 C1862 0.949 . S
C1859 C1860 1.349 . S
C1859 C1861 1.327 . S
C1859 H1882 0.950 . S
C1860 C1859 1.349 . S
C1860 C1872 1.349 . S
C1861 C1859 1.327 . S
C1861 C1877 1.429 . S
C1861 H1883 0.950 . S
C1862 H1858 0.949 . S
C1862 C1870 1.574 . S
C1862 C1878 1.368 . S
H1863 C1871 0.950 . S
H1864 C1869 0.950 . S
H1865 C1870 0.949 . S
H1866 C1872 0.950 . S
H1867 C1873 0.950 . S
H1868 C1874 0.949 . S
C1869 H1864 0.950 . S
C1869 C1871 1.327 . S
C1869 C1875 1.429 . S
C1870 C1862 1.574 . S
C1870 H1865 0.949 . S
C1870 C1876 1.368 . S
C1871 C1855 1.349 . S
C1871 H1863 0.950 . S
C1871 C1869 1.327 . S
C1872 C1860 1.349 . S
C1872 H1866 0.950 . S
C1872 C1873 1.327 . S
C1873 H1867 0.950 . S
C1873 C1872 1.327 . S
C1873 C1877 1.429 . S
C1874 C1857 1.574 . S
C1874 H1868 0.949 . S
C1874 C1878 1.368 . S
C1875 C1856 1.429 . S
C1875 C1869 1.429 . S
C1875 C1876 1.523 . S
C1876 C1857 1.368 . S
C1876 C1870 1.368 . S
C1876 C1875 1.523 . S
C1877 C1861 1.429 . S
C1877 C1873 1.429 . S
C1877 C1878 1.523 . S
C1878 C1862 1.368 . S
C1878 C1874 1.368 . S
C1878 C1877 1.523 . S
H1879 C1854 0.950 . S
H1880 C1856 0.950 . S
H1881 C1857 0.949 . S
H1882 C1859 0.950 . S
H1883 C1861 0.950 . S
C1884 C1885 1.349 . S
C1884 C1886 1.327 . S
C1884 H1909 0.950 . S
C1885 C1884 1.349 . S
C1885 C1901 1.349 . S
C1886 C1884 1.327 . S
C1886 C1905 1.429 . S
C1886 H1910 0.950 . S
C1887 C1904 1.574 . S
C1887 C1906 1.368 . S
C1887 H1911 0.949 . S
H1888 C1892 0.949 . S
C1889 C1890 1.349 . S
C1889 C1891 1.327 . S
C1889 H1912 0.950 . S
C1890 C1889 1.349 . S
C1890 C1902 1.349 . S
C1891 C1889 1.327 . S
C1891 C1907 1.429 . S
C1891 H1913 0.950 . S
C1892 H1888 0.949 . S
C1892 C1900 1.574 . S
C1892 C1908 1.368 . S
H1893 C1901 0.950 . S
H1894 C1899 0.950 . S
H1895 C1900 0.949 . S
H1896 C1902 0.950 . S
H1897 C1903 0.950 . S
H1898 C1904 0.949 . S
C1899 H1894 0.950 . S
C1899 C1901 1.327 . S
C1899 C1905 1.429 . S
C1900 C1892 1.574 . S
C1900 H1895 0.949 . S
C1900 C1906 1.368 . S
C1901 C1885 1.349 . S
C1901 H1893 0.950 . S
C1901 C1899 1.327 . S
C1902 C1890 1.349 . S
C1902 H1896 0.950 . S
C1902 C1903 1.327 . S
C1903 H1897 0.950 . S
C1903 C1902 1.327 . S
C1903 C1907 1.429 . S
C1904 C1887 1.574 . S
C1904 H1898 0.949 . S
C1904 C1908 1.368 . S
C1905 C1886 1.429 . S
C1905 C1899 1.429 . S
C1905 C1906 1.523 . S
C1906 C1887 1.368 . S
C1906 C1900 1.368 . S
C1906 C1905 1.523 . S
C1907 C1891 1.429 . S
C1907 C1903 1.429 . S
C1907 C1908 1.523 . S
C1908 C1892 1.368 . S
C1908 C1904 1.368 . S
C1908 C1907 1.523 . S
H1909 C1884 0.950 . S
H1910 C1886 0.950 . S
H1911 C1887 0.949 . S
H1912 C1889 0.950 . S
H1913 C1891 0.950 . S
C1914 C1915 1.349 . S
C1914 C1916 1.327 . S
C1914 H1939 0.950 . S
C1915 C1914 1.349 . S
C1915 C1931 1.349 . S
C1916 C1914 1.327 . S
C1916 C1935 1.429 . S
C1916 H1940 0.950 . S
C1917 C1934 1.574 . S
C1917 C1936 1.368 . S
C1917 H1941 0.949 . S
H1918 C1922 0.949 . S
C1919 C1920 1.349 . S
C1919 C1921 1.327 . S
C1919 H1942 0.950 . S
C1920 C1919 1.349 . S
C1920 C1932 1.349 . S
C1921 C1919 1.327 . S
C1921 C1937 1.429 . S
C1921 H1943 0.950 . S
C1922 H1918 0.949 . S
C1922 C1930 1.574 . S
C1922 C1938 1.368 . S
H1923 C1931 0.950 . S
H1924 C1929 0.950 . S
H1925 C1930 0.949 . S
H1926 C1932 0.950 . S
H1927 C1933 0.950 . S
H1928 C1934 0.949 . S
C1929 H1924 0.950 . S
C1929 C1931 1.327 . S
C1929 C1935 1.429 . S
C1930 C1922 1.574 . S
C1930 H1925 0.949 . S
C1930 C1936 1.368 . S
C1931 C1915 1.349 . S
C1931 H1923 0.950 . S
C1931 C1929 1.327 . S
C1932 C1920 1.349 . S
C1932 H1926 0.950 . S
C1932 C1933 1.327 . S
C1933 H1927 0.950 . S
C1933 C1932 1.327 . S
C1933 C1937 1.429 . S
C1934 C1917 1.574 . S
C1934 H1928 0.949 . S
C1934 C1938 1.368 . S
C1935 C1916 1.429 . S
C1935 C1929 1.429 . S
C1935 C1936 1.523 . S
C1936 C1917 1.368 . S
C1936 C1930 1.368 . S
C1936 C1935 1.523 . S
C1937 C1921 1.429 . S
C1937 C1933 1.429 . S
C1937 C1938 1.523 . S
C1938 C1922 1.368 . S
C1938 C1934 1.368 . S
C1938 C1937 1.523 . S
H1939 C1914 0.950 . S
H1940 C1916 0.950 . S
H1941 C1917 0.949 . S
H1942 C1919 0.950 . S
H1943 C1921 0.950 . S
C595 C7 0.927 . S
C600 C252 0.950 . S
C625 C40 0.927 . S
C630 C285 0.950 . S
C655 C73 0.927 . S
C660 C219 0.950 . S
C685 C549 0.950 . S
C690 C106 0.927 . S
C715 C139 0.927 . S
C720 C582 0.950 . S
C745 C172 0.927 . S
C750 C516 0.950 . S
C775 C205 0.927 . S
C780 C450 0.950 . S
C805 C483 0.950 . S
C810 C238 0.927 . S
C835 C417 0.950 . S
C840 C271 0.927 . S
C865 C304 0.927 . S
C870 C153 0.950 . S
C895 C337 0.927 . S
C900 C186 0.950 . S
C925 C370 0.927 . S
C930 C120 0.950 . S
C955 C403 0.927 . S
C960 C54 0.950 . S
C985 C436 0.927 . S
C990 C87 0.950 . S
C1015 C21 0.950 . S
C1020 C469 0.927 . S
C1045 C351 0.950 . S
C1050 C502 0.927 . S
C1075 C535 0.927 . S
C1080 C384 0.950 . S
C1105 C568 0.927 . S
C1110 C318 0.950 . S
C1135 N508 1.642 . S
C1140 N13 1.642 . S
C1165 N541 1.643 . S
C1170 N46 1.643 . S
C1195 N79 1.643 . S
C1200 N574 1.643 . S
C1225 N112 1.642 . S
C1230 N211 1.642 . S
C1255 N145 1.643 . S
C1260 N244 1.643 . S
C1285 N277 1.643 . S
C1290 N178 1.643 . S
C1315 N310 1.642 . S
C1320 N409 1.642 . S
C1345 N442 1.643 . S
C1350 N343 1.643 . S
C1375 N475 1.643 . S
C1380 N376 1.643 . S
C1405 N2 1.470 . S
C1410 C150 1.469 . S
C1435 C183 1.470 . S
C1440 N35 1.470 1_545 S
C1465 N68 1.470 1_655 S
C1470 C117 1.470 . S
C1495 C51 1.469 . S
C1500 N101 1.470 . S
C1525 N134 1.470 1_565 S
C1530 C84 1.470 . S
C1555 C18 1.470 . S
C1560 N167 1.470 1_455 S
C1585 N200 1.470 . S
C1590 C348 1.470 . S
C1615 C381 1.470 . S
C1620 N233 1.470 . S
C1645 C315 1.470 . S
C1650 N266 1.470 . S
C1675 N299 1.470 . S
C1680 C249 1.470 . S
C1705 C282 1.470 . S
C1710 N332 1.470 . S
C1735 N365 1.470 . S
C1740 C216 1.470 . S
C1765 C546 1.470 . S
C1770 N398 1.470 . S
C1795 C579 1.470 . S
C1800 N431 1.470 . S
C1825 C513 1.470 . S
C1830 N464 1.470 . S
C1855 C447 1.469 . S
C1860 N497 1.470 . S
C1885 C480 1.470 . S
C1890 N530 1.470 . S
C1915 N563 1.470 . S
C1920 C414 1.470 . S
