# Generated by pormake.
# Topology ums, (4)-cn, num edge types: 1
# Building blocks:
#     Node 0, Type 0, BuildingBlock: CEKHIL_clean_sbu_0, # of connection points: 4
#     Node 1, Type 0, BuildingBlock: CEKHIL_clean_sbu_0, # of connection points: 4
#     Node 2, Type 0, BuildingBlock: CEKHIL_clean_sbu_0, # of connection points: 4
#     Node 3, Type 0, BuildingBlock: CEKHIL_clean_sbu_0, # of connection points: 4
#     Node 4, Type 0, BuildingBlock: CEKHIL_clean_sbu_0, # of connection points: 4
#     Node 5, Type 0, BuildingBlock: CEKHIL_clean_sbu_0, # of connection points: 4
#     Node 6, Type 0, BuildingBlock: CEKHIL_clean_sbu_0, # of connection points: 4
#     Node 7, Type 0, BuildingBlock: CEKHIL_clean_sbu_0, # of connection points: 4
#     Node 8, Type 0, BuildingBlock: CEKHIL_clean_sbu_0, # of connection points: 4
#     Node 9, Type 0, BuildingBlock: CEKHIL_clean_sbu_0, # of connection points: 4
#     Node 10, Type 0, BuildingBlock: CEKHIL_clean_sbu_0, # of connection points: 4
#     Node 11, Type 0, BuildingBlock: CEKHIL_clean_sbu_0, # of connection points: 4
#     Node 12, Type 0, BuildingBlock: CEKHIL_clean_sbu_0, # of connection points: 4
#     Node 13, Type 0, BuildingBlock: CEKHIL_clean_sbu_0, # of connection points: 4
#     Node 14, Type 0, BuildingBlock: CEKHIL_clean_sbu_0, # of connection points: 4
#     Node 15, Type 0, BuildingBlock: CEKHIL_clean_sbu_0, # of connection points: 4
#     Node 16, Type 0, BuildingBlock: CEKHIL_clean_sbu_0, # of connection points: 4
#     Node 17, Type 0, BuildingBlock: CEKHIL_clean_sbu_0, # of connection points: 4
#     Node 18, Type 0, BuildingBlock: CEKHIL_clean_sbu_0, # of connection points: 4
#     Node 19, Type 0, BuildingBlock: CEKHIL_clean_sbu_0, # of connection points: 4
#     Node 20, Type 0, BuildingBlock: CEKHIL_clean_sbu_0, # of connection points: 4
#     Node 21, Type 0, BuildingBlock: CEKHIL_clean_sbu_0, # of connection points: 4
#     Node 22, Type 0, BuildingBlock: CEKHIL_clean_sbu_0, # of connection points: 4
#     Node 23, Type 0, BuildingBlock: CEKHIL_clean_sbu_0, # of connection points: 4
#     Node 24, Type 0, BuildingBlock: CEKHIL_clean_sbu_0, # of connection points: 4
#     Node 25, Type 0, BuildingBlock: CEKHIL_clean_sbu_0, # of connection points: 4
#     Node 26, Type 0, BuildingBlock: CEKHIL_clean_sbu_0, # of connection points: 4
#     Node 27, Type 0, BuildingBlock: CEKHIL_clean_sbu_0, # of connection points: 4
#     Node 28, Type 0, BuildingBlock: CEKHIL_clean_sbu_0, # of connection points: 4
#     Node 29, Type 0, BuildingBlock: CEKHIL_clean_sbu_0, # of connection points: 4
#     Node 30, Type 0, BuildingBlock: CEKHIL_clean_sbu_0, # of connection points: 4
#     Node 31, Type 0, BuildingBlock: CEKHIL_clean_sbu_0, # of connection points: 4
#     Node 32, Type 0, BuildingBlock: CEKHIL_clean_sbu_0, # of connection points: 4
#     Node 33, Type 0, BuildingBlock: CEKHIL_clean_sbu_0, # of connection points: 4
#     Node 34, Type 0, BuildingBlock: CEKHIL_clean_sbu_0, # of connection points: 4
#     Node 35, Type 0, BuildingBlock: CEKHIL_clean_sbu_0, # of connection points: 4
#     Edge 36, Type (0, 0), BuildingBlock: XUDNAN_clean_linker_2, # of connection points: 2
#     Edge 37, Type (0, 0), BuildingBlock: XUDNAN_clean_linker_2, # of connection points: 2
#     Edge 38, Type (0, 0), BuildingBlock: XUDNAN_clean_linker_2, # of connection points: 2
#     Edge 39, Type (0, 0), BuildingBlock: XUDNAN_clean_linker_2, # of connection points: 2
#     Edge 40, Type (0, 0), BuildingBlock: XUDNAN_clean_linker_2, # of connection points: 2
#     Edge 41, Type (0, 0), BuildingBlock: XUDNAN_clean_linker_2, # of connection points: 2
#     Edge 42, Type (0, 0), BuildingBlock: XUDNAN_clean_linker_2, # of connection points: 2
#     Edge 43, Type (0, 0), BuildingBlock: XUDNAN_clean_linker_2, # of connection points: 2
#     Edge 44, Type (0, 0), BuildingBlock: XUDNAN_clean_linker_2, # of connection points: 2
#     Edge 45, Type (0, 0), BuildingBlock: XUDNAN_clean_linker_2, # of connection points: 2
#     Edge 46, Type (0, 0), BuildingBlock: XUDNAN_clean_linker_2, # of connection points: 2
#     Edge 47, Type (0, 0), BuildingBlock: XUDNAN_clean_linker_2, # of connection points: 2
#     Edge 48, Type (0, 0), BuildingBlock: XUDNAN_clean_linker_2, # of connection points: 2
#     Edge 49, Type (0, 0), BuildingBlock: XUDNAN_clean_linker_2, # of connection points: 2
#     Edge 50, Type (0, 0), BuildingBlock: XUDNAN_clean_linker_2, # of connection points: 2
#     Edge 51, Type (0, 0), BuildingBlock: XUDNAN_clean_linker_2, # of connection points: 2
#     Edge 52, Type (0, 0), BuildingBlock: XUDNAN_clean_linker_2, # of connection points: 2
#     Edge 53, Type (0, 0), BuildingBlock: XUDNAN_clean_linker_2, # of connection points: 2
#     Edge 54, Type (0, 0), BuildingBlock: XUDNAN_clean_linker_2, # of connection points: 2
#     Edge 55, Type (0, 0), BuildingBlock: XUDNAN_clean_linker_2, # of connection points: 2
#     Edge 56, Type (0, 0), BuildingBlock: XUDNAN_clean_linker_2, # of connection points: 2
#     Edge 57, Type (0, 0), BuildingBlock: XUDNAN_clean_linker_2, # of connection points: 2
#     Edge 58, Type (0, 0), BuildingBlock: XUDNAN_clean_linker_2, # of connection points: 2
#     Edge 59, Type (0, 0), BuildingBlock: XUDNAN_clean_linker_2, # of connection points: 2
#     Edge 60, Type (0, 0), BuildingBlock: XUDNAN_clean_linker_2, # of connection points: 2
#     Edge 61, Type (0, 0), BuildingBlock: XUDNAN_clean_linker_2, # of connection points: 2
#     Edge 62, Type (0, 0), BuildingBlock: XUDNAN_clean_linker_2, # of connection points: 2
#     Edge 63, Type (0, 0), BuildingBlock: XUDNAN_clean_linker_2, # of connection points: 2
#     Edge 64, Type (0, 0), BuildingBlock: XUDNAN_clean_linker_2, # of connection points: 2
#     Edge 65, Type (0, 0), BuildingBlock: XUDNAN_clean_linker_2, # of connection points: 2
#     Edge 66, Type (0, 0), BuildingBlock: XUDNAN_clean_linker_2, # of connection points: 2
#     Edge 67, Type (0, 0), BuildingBlock: XUDNAN_clean_linker_2, # of connection points: 2
#     Edge 68, Type (0, 0), BuildingBlock: XUDNAN_clean_linker_2, # of connection points: 2
#     Edge 69, Type (0, 0), BuildingBlock: XUDNAN_clean_linker_2, # of connection points: 2
#     Edge 70, Type (0, 0), BuildingBlock: XUDNAN_clean_linker_2, # of connection points: 2
#     Edge 71, Type (0, 0), BuildingBlock: XUDNAN_clean_linker_2, # of connection points: 2
#     Edge 72, Type (0, 0), BuildingBlock: XUDNAN_clean_linker_2, # of connection points: 2
#     Edge 73, Type (0, 0), BuildingBlock: XUDNAN_clean_linker_2, # of connection points: 2
#     Edge 74, Type (0, 0), BuildingBlock: XUDNAN_clean_linker_2, # of connection points: 2
#     Edge 75, Type (0, 0), BuildingBlock: XUDNAN_clean_linker_2, # of connection points: 2
#     Edge 76, Type (0, 0), BuildingBlock: XUDNAN_clean_linker_2, # of connection points: 2
#     Edge 77, Type (0, 0), BuildingBlock: XUDNAN_clean_linker_2, # of connection points: 2
#     Edge 78, Type (0, 0), BuildingBlock: XUDNAN_clean_linker_2, # of connection points: 2
#     Edge 79, Type (0, 0), BuildingBlock: XUDNAN_clean_linker_2, # of connection points: 2
#     Edge 80, Type (0, 0), BuildingBlock: XUDNAN_clean_linker_2, # of connection points: 2
#     Edge 81, Type (0, 0), BuildingBlock: XUDNAN_clean_linker_2, # of connection points: 2
#     Edge 82, Type (0, 0), BuildingBlock: XUDNAN_clean_linker_2, # of connection points: 2
#     Edge 83, Type (0, 0), BuildingBlock: XUDNAN_clean_linker_2, # of connection points: 2
#     Edge 84, Type (0, 0), BuildingBlock: XUDNAN_clean_linker_2, # of connection points: 2
#     Edge 85, Type (0, 0), BuildingBlock: XUDNAN_clean_linker_2, # of connection points: 2
#     Edge 86, Type (0, 0), BuildingBlock: XUDNAN_clean_linker_2, # of connection points: 2
#     Edge 87, Type (0, 0), BuildingBlock: XUDNAN_clean_linker_2, # of connection points: 2
#     Edge 88, Type (0, 0), BuildingBlock: XUDNAN_clean_linker_2, # of connection points: 2
#     Edge 89, Type (0, 0), BuildingBlock: XUDNAN_clean_linker_2, # of connection points: 2
#     Edge 90, Type (0, 0), BuildingBlock: XUDNAN_clean_linker_2, # of connection points: 2
#     Edge 91, Type (0, 0), BuildingBlock: XUDNAN_clean_linker_2, # of connection points: 2
#     Edge 92, Type (0, 0), BuildingBlock: XUDNAN_clean_linker_2, # of connection points: 2
#     Edge 93, Type (0, 0), BuildingBlock: XUDNAN_clean_linker_2, # of connection points: 2
#     Edge 94, Type (0, 0), BuildingBlock: XUDNAN_clean_linker_2, # of connection points: 2
#     Edge 95, Type (0, 0), BuildingBlock: XUDNAN_clean_linker_2, # of connection points: 2
#     Edge 96, Type (0, 0), BuildingBlock: XUDNAN_clean_linker_2, # of connection points: 2
#     Edge 97, Type (0, 0), BuildingBlock: XUDNAN_clean_linker_2, # of connection points: 2
#     Edge 98, Type (0, 0), BuildingBlock: XUDNAN_clean_linker_2, # of connection points: 2
#     Edge 99, Type (0, 0), BuildingBlock: XUDNAN_clean_linker_2, # of connection points: 2
#     Edge 100, Type (0, 0), BuildingBlock: XUDNAN_clean_linker_2, # of connection points: 2
#     Edge 101, Type (0, 0), BuildingBlock: XUDNAN_clean_linker_2, # of connection points: 2
#     Edge 102, Type (0, 0), BuildingBlock: XUDNAN_clean_linker_2, # of connection points: 2
#     Edge 103, Type (0, 0), BuildingBlock: XUDNAN_clean_linker_2, # of connection points: 2
#     Edge 104, Type (0, 0), BuildingBlock: XUDNAN_clean_linker_2, # of connection points: 2
#     Edge 105, Type (0, 0), BuildingBlock: XUDNAN_clean_linker_2, # of connection points: 2
#     Edge 106, Type (0, 0), BuildingBlock: XUDNAN_clean_linker_2, # of connection points: 2
#     Edge 107, Type (0, 0), BuildingBlock: XUDNAN_clean_linker_2, # of connection points: 2
# Relax obj value: 0.198
# Max RMSD: 0.149
# Mean RMSD: 0.148
data_MOF--net-ums--node1-CEKHIL_clean_sbu_0--edge1-XUDNAN_clean_linker_2
_symmetry_space_group_name_H-M    P1
_symmetry_Int_Tables_number       1
_symmetry_cell_setting            triclinic
loop_
_symmetry_equiv_pos_as_xyz
'x, y, z'
_cell_length_a     99.960427
_cell_length_b     99.988578
_cell_length_c     23.750958
_cell_angle_alpha  89.965438
_cell_angle_beta   90.041151
_cell_angle_gamma 120.01825
loop_
_atom_site_label
_atom_site_type_symbol
_atom_site_fract_x
_atom_site_fract_y
_atom_site_fract_z
_atom_type_partial_charge
Co0 Co 0.18531 0.26397 0.20214 0.0
O1 O 0.20206 0.26498 0.24468 0.0
O2 O 0.18438 0.24394 0.20168 0.0
C3 C 0.20006 0.28603 0.15325 0.0
O4 O 0.1668 0.25923 0.15181 0.0
Co5 Co 0.17774 0.29051 0.21718 0.0
O6 O 0.16411 0.28031 0.15171 0.0
C7 C 0.16886 0.26676 0.30512 0.0
C8 C 0.19711 0.25073 0.23095 0.0
C9 C 0.1604 0.26687 0.13367 0.0
O10 O 0.172 0.25841 0.27239 0.0
O11 O 0.17197 0.2805 0.29304 0.0
O12 O 0.19891 0.27311 0.13695 0.0
O13 O 0.19353 0.28545 0.20066 0.0
Co14 Co 0.74171 0.91819 0.21364 0.0
O15 O 0.74552 0.93717 0.24938 0.0
O16 O 0.76334 0.93368 0.2078 0.0
C17 C 0.72037 0.91404 0.16584 0.0
O18 O 0.74252 0.9012 0.16834 0.0
Co19 Co 0.71176 0.88662 0.23185 0.0
O20 O 0.7189 0.88015 0.16495 0.0
C21 C 0.73668 0.89815 0.31721 0.0
C22 C 0.75979 0.94297 0.23339 0.0
C23 C 0.73291 0.88772 0.14873 0.0
O24 O 0.74542 0.91014 0.28712 0.0
O25 O 0.72289 0.88799 0.30352 0.0
O26 O 0.73408 0.92362 0.14668 0.0
O27 O 0.71998 0.90826 0.21483 0.0
Co28 Co 0.08632 0.82098 0.22568 0.0
O29 O 0.06776 0.80633 0.2648 0.0
O30 O 0.07134 0.82786 0.22474 0.0
C31 C 0.08867 0.80303 0.1755 0.0
O32 O 0.10293 0.83832 0.17777 0.0
Co33 Co 0.11737 0.82096 0.23531 0.0
O34 O 0.12385 0.83559 0.17119 0.0
C35 C 0.10697 0.83314 0.32881 0.0
C36 C 0.06212 0.81509 0.25089 0.0
C37 C 0.11627 0.84219 0.15688 0.0
O38 O 0.09606 0.83267 0.29815 0.0
O39 O 0.11547 0.82762 0.31282 0.0
O40 O 0.07927 0.80767 0.15892 0.0
O41 O 0.0954 0.80851 0.22304 0.0
Co42 Co 0.26822 0.18232 0.2706 0.0
O43 O 0.26773 0.19922 0.2338 0.0
O44 O 0.24878 0.18166 0.28621 0.0
C45 C 0.29253 0.1971 0.30425 0.0
O46 O 0.26488 0.16393 0.31869 0.0
Co47 Co 0.2924 0.17261 0.23933 0.0
O48 O 0.28355 0.158 0.30313 0.0
C49 C 0.2668 0.16633 0.16195 0.0
C50 C 0.2543 0.19429 0.25678 0.0
C51 C 0.27152 0.15598 0.32891 0.0
O52 O 0.25943 0.16891 0.20108 0.0
O53 O 0.28067 0.16904 0.16748 0.0
O54 O 0.28087 0.19634 0.33132 0.0
O55 O 0.28922 0.18965 0.25743 0.0
Co56 Co 0.82311 0.08068 0.28195 0.0
O57 O 0.8083 0.06231 0.24206 0.0
O58 O 0.82954 0.06537 0.28297 0.0
C59 C 0.80517 0.08337 0.33109 0.0
O60 O 0.84057 0.09693 0.33038 0.0
Co61 Co 0.82393 0.11222 0.2753 0.0
O62 O 0.83607 0.11651 0.34589 0.0
C63 C 0.83621 0.10193 0.18114 0.0
C64 C 0.8168 0.05639 0.2562 0.0
C65 C 0.84317 0.10921 0.35688 0.0
O66 O 0.83512 0.09049 0.21022 0.0
O67 O 0.83118 0.11075 0.19825 0.0
O68 O 0.80952 0.07377 0.34822 0.0
O69 O 0.81105 0.09019 0.2841 0.0
Co70 Co 0.92377 0.74008 0.27337 0.0
O71 O 0.94299 0.7452 0.23647 0.0
O72 O 0.93916 0.76137 0.28824 0.0
C73 C 0.91974 0.71733 0.30829 0.0
O74 O 0.90648 0.73926 0.32164 0.0
Co75 Co 0.89233 0.71054 0.24827 0.0
O76 O 0.8858 0.7154 0.32047 0.0
C77 C 0.90393 0.73796 0.17318 0.0
C78 C 0.94864 0.75878 0.2592 0.0
C79 C 0.89316 0.72903 0.34052 0.0
O80 O 0.91598 0.74603 0.20409 0.0
O81 O 0.89395 0.7238 0.18277 0.0
O82 O 0.92878 0.73012 0.3347 0.0
O83 O 0.91411 0.7187 0.26135 0.0
Co84 Co 0.82466 0.74018 0.77483 0.0
O85 O 0.80943 0.74331 0.73591 0.0
O86 O 0.83102 0.76188 0.77358 0.0
C87 C 0.8074 0.72003 0.82753 0.0
O88 O 0.84257 0.74192 0.82174 0.0
Co89 Co 0.82574 0.70961 0.76936 0.0
O90 O 0.84017 0.7185 0.8339 0.0
C91 C 0.83706 0.73148 0.67317 0.0
C92 C 0.81804 0.75786 0.74817 0.0
C93 C 0.84663 0.73287 0.84481 0.0
O94 O 0.83605 0.74189 0.70201 0.0
O95 O 0.83223 0.71773 0.69115 0.0
O96 O 0.81178 0.73413 0.84265 0.0
O97 O 0.81273 0.71859 0.77997 0.0
Co98 Co 0.26227 0.08277 0.77494 0.0
O99 O 0.25951 0.06433 0.73795 0.0
O100 O 0.24078 0.0668 0.77715 0.0
C101 C 0.28325 0.08704 0.82567 0.0
O102 O 0.26022 0.09894 0.82069 0.0
Co103 Co 0.29179 0.11496 0.76283 0.0
O104 O 0.28302 0.12097 0.82598 0.0
C105 C 0.2678 0.10373 0.67382 0.0
C106 C 0.24503 0.05801 0.75188 0.0
C107 C 0.26892 0.11265 0.84023 0.0
O108 O 0.25908 0.09123 0.70153 0.0
O109 O 0.28128 0.11405 0.69012 0.0
O110 O 0.26941 0.07707 0.84258 0.0
O111 O 0.28405 0.09326 0.77722 0.0
Co112 Co 0.9212 0.18341 0.78185 0.0
O113 O 0.93999 0.19678 0.74052 0.0
O114 O 0.93683 0.17794 0.79754 0.0
C115 C 0.9178 0.20289 0.81341 0.0
O116 O 0.90471 0.16774 0.83474 0.0
Co117 Co 0.88939 0.18125 0.76311 0.0
O118 O 0.88329 0.16962 0.83492 0.0
C119 C 0.89986 0.16442 0.68727 0.0
C120 C 0.94598 0.18945 0.76559 0.0
C121 C 0.89131 0.16403 0.85455 0.0
O122 O 0.91229 0.16843 0.71605 0.0
O123 O 0.89044 0.16927 0.69782 0.0
O124 O 0.92711 0.19948 0.83969 0.0
O125 O 0.91137 0.19498 0.76879 0.0
Co126 Co 0.74259 0.82057 0.71172 0.0
O127 O 0.7466 0.80545 0.74668 0.0
O128 O 0.7643 0.82705 0.70619 0.0
C129 C 0.72148 0.80341 0.66303 0.0
O130 O 0.74308 0.83831 0.66739 0.0
Co131 Co 0.71214 0.8213 0.73107 0.0
O132 O 0.71998 0.8371 0.67057 0.0
C133 C 0.73598 0.83226 0.82009 0.0
C134 C 0.76086 0.81411 0.73091 0.0
C135 C 0.73378 0.84305 0.6525 0.0
O136 O 0.74586 0.83197 0.78582 0.0
O137 O 0.72174 0.82691 0.8076 0.0
O138 O 0.73525 0.80777 0.64393 0.0
O139 O 0.72096 0.80852 0.71231 0.0
Co140 Co 0.18611 0.92007 0.7259 0.0
O141 O 0.20001 0.93939 0.76255 0.0
O142 O 0.17941 0.93492 0.71309 0.0
C143 C 0.20518 0.91694 0.68875 0.0
O144 O 0.16964 0.90259 0.67831 0.0
Co145 Co 0.18542 0.88919 0.74921 0.0
O146 O 0.17249 0.88173 0.68035 0.0
C147 C 0.17228 0.90169 0.83209 0.0
C148 C 0.19156 0.94464 0.74132 0.0
C149 C 0.16618 0.88908 0.66052 0.0
O150 O 0.17304 0.91185 0.79663 0.0
O151 O 0.17796 0.89293 0.82242 0.0
O152 O 0.20082 0.92563 0.6632 0.0
O153 O 0.19844 0.91104 0.73579 0.0
Co154 Co 0.0836 0.26009 0.70352 0.0
O155 O 0.06693 0.25856 0.74863 0.0
O156 O 0.06574 0.23932 0.69873 0.0
C157 C 0.08939 0.28258 0.66056 0.0
O158 O 0.0985 0.2578 0.6505 0.0
Co159 Co 0.11683 0.28815 0.72247 0.0
O160 O 0.12153 0.2798 0.65444 0.0
C161 C 0.10308 0.26293 0.80562 0.0
C162 C 0.05887 0.24435 0.73199 0.0
C163 C 0.11255 0.26649 0.63355 0.0
O164 O 0.09214 0.25435 0.77117 0.0
O165 O 0.11285 0.27716 0.79633 0.0
O166 O 0.07816 0.26956 0.64198 0.0
O167 O 0.09555 0.28167 0.70702 0.0
Co168 Co 0.84952 0.59803 0.55756 0.0
O169 O 0.86476 0.59483 0.59578 0.0
O170 O 0.84305 0.57625 0.5589 0.0
C171 C 0.86669 0.61801 0.50404 0.0
O172 O 0.83161 0.59659 0.51116 0.0
Co173 Co 0.84912 0.6289 0.56566 0.0
O174 O 0.834 0.62009 0.50319 0.0
C175 C 0.83765 0.60686 0.66091 0.0
C176 C 0.85611 0.58028 0.58379 0.0
C177 C 0.82744 0.60583 0.49012 0.0
O178 O 0.83835 0.59642 0.63106 0.0
O179 O 0.84277 0.62073 0.64381 0.0
O180 O 0.86214 0.60386 0.48913 0.0
O181 O 0.8617 0.61959 0.55215 0.0
Co182 Co 0.41297 0.25618 0.54775 0.0
O183 O 0.41607 0.27485 0.58349 0.0
O184 O 0.43476 0.27154 0.54891 0.0
C185 C 0.39308 0.25292 0.49272 0.0
O186 O 0.41444 0.23937 0.50424 0.0
Co187 Co 0.38191 0.22493 0.55599 0.0
O188 O 0.39023 0.22002 0.48809 0.0
C189 C 0.40381 0.23597 0.65216 0.0
C190 C 0.43064 0.28071 0.57203 0.0
C191 C 0.4047 0.22699 0.47833 0.0
O192 O 0.41435 0.24711 0.62261 0.0
O193 O 0.39005 0.227 0.6343 0.0
O194 O 0.40724 0.26238 0.47747 0.0
O195 O 0.39146 0.24678 0.54172 0.0
Co196 Co 0.74897 0.15258 0.53871 0.0
O197 O 0.7297 0.13796 0.57437 0.0
O198 O 0.73329 0.15805 0.52352 0.0
C199 C 0.75378 0.13431 0.50419 0.0
O200 O 0.7661 0.16957 0.4916 0.0
Co201 Co 0.78079 0.15567 0.56501 0.0
O202 O 0.78815 0.1689 0.49685 0.0
C203 C 0.76627 0.1672 0.64587 0.0
C204 C 0.72389 0.14581 0.55198 0.0
C205 C 0.78003 0.17419 0.47554 0.0
O206 O 0.75615 0.1659 0.60915 0.0
O207 O 0.77574 0.16229 0.63758 0.0
O208 O 0.74464 0.1378 0.47696 0.0
O209 O 0.75916 0.14142 0.55105 0.0
Co210 Co 0.93327 0.5198 0.63087 0.0
O211 O 0.92818 0.53316 0.58815 0.0
O212 O 0.91171 0.51355 0.64086 0.0
C213 C 0.95544 0.53935 0.6667 0.0
O214 O 0.93372 0.50404 0.68421 0.0
Co215 Co 0.96357 0.51854 0.61753 0.0
O216 O 0.9573 0.50661 0.68871 0.0
C217 C 0.93749 0.50177 0.53673 0.0
C218 C 0.91438 0.52522 0.6092 0.0
C219 C 0.94341 0.50061 0.70595 0.0
O220 O 0.92849 0.50525 0.56432 0.0
O221 O 0.9517 0.50698 0.54953 0.0
O222 O 0.94231 0.53559 0.69042 0.0
O223 O 0.95475 0.53178 0.62209 0.0
Co224 Co 0.4874 0.41735 0.6198 0.0
O225 O 0.47425 0.39891 0.57729 0.0
O226 O 0.49563 0.40344 0.62128 0.0
C227 C 0.46789 0.41762 0.66731 0.0
O228 O 0.50334 0.43417 0.67131 0.0
Co229 Co 0.48469 0.44704 0.61198 0.0
O230 O 0.49689 0.45255 0.68251 0.0
C231 C 0.5006 0.43979 0.52152 0.0
C232 C 0.48344 0.39392 0.59269 0.0
C233 C 0.5048 0.44627 0.69632 0.0
O234 O 0.49986 0.42842 0.55001 0.0
O235 O 0.49418 0.44747 0.53755 0.0
O236 O 0.47323 0.4088 0.68396 0.0
O237 O 0.47363 0.42494 0.62093 0.0
Co238 Co 0.58644 0.07072 0.5931 0.0
O239 O 0.60475 0.07464 0.5523 0.0
O240 O 0.60132 0.09263 0.59268 0.0
C241 C 0.58472 0.05072 0.64357 0.0
O242 O 0.57001 0.07137 0.64246 0.0
Co243 Co 0.55559 0.03937 0.58601 0.0
O244 O 0.5494 0.04753 0.65077 0.0
C245 C 0.56495 0.06179 0.49208 0.0
C246 C 0.61043 0.08906 0.56582 0.0
C247 C 0.55685 0.06177 0.66443 0.0
O248 O 0.57613 0.07233 0.52153 0.0
O249 O 0.55664 0.04781 0.50879 0.0
O250 O 0.59409 0.06486 0.65922 0.0
O251 O 0.57764 0.0492 0.59663 0.0
Co252 Co 0.48634 0.07074 0.09293 0.0
O253 O 0.47239 0.07594 0.05554 0.0
O254 O 0.49312 0.09243 0.1036 0.0
C255 C 0.46736 0.04887 0.13231 0.0
O256 O 0.50284 0.06983 0.14086 0.0
Co257 Co 0.48651 0.04016 0.07153 0.0
O258 O 0.49906 0.04573 0.14136 0.0
C259 C 0.50005 0.06551 0.98744 0.0
C260 C 0.48086 0.08978 0.0755 0.0
C261 C 0.50575 0.05951 0.16017 0.0
O262 O 0.49925 0.07508 0.02193 0.0
O263 O 0.4943 0.05111 0.99804 0.0
O264 O 0.47185 0.06211 0.15649 0.0
O265 O 0.47384 0.04935 0.08504 0.0
Co266 Co 0.92458 0.41443 0.12905 0.0
O267 O 0.92052 0.39643 0.08612 0.0
O268 O 0.90259 0.39959 0.12843 0.0
C269 C 0.9445 0.41539 0.17702 0.0
O270 O 0.92425 0.4307 0.18042 0.0
Co271 Co 0.95633 0.44503 0.12474 0.0
O272 O 0.94883 0.44937 0.19576 0.0
C273 C 0.93398 0.43659 0.03052 0.0
C274 C 0.90612 0.39066 0.10007 0.0
C275 C 0.93448 0.44259 0.20758 0.0
O276 O 0.92316 0.42533 0.05887 0.0
O277 O 0.94793 0.44459 0.04801 0.0
O278 O 0.93045 0.40623 0.19394 0.0
O279 O 0.94599 0.42288 0.13128 0.0
Co280 Co 0.58868 0.5196 0.11948 0.0
O281 O 0.60681 0.53286 0.07574 0.0
O282 O 0.60297 0.51179 0.12033 0.0
C283 C 0.58824 0.5391 0.16633 0.0
O284 O 0.57219 0.50366 0.17219 0.0
Co285 Co 0.55864 0.5218 0.11322 0.0
O286 O 0.55332 0.50944 0.18322 0.0
C287 C 0.56578 0.50577 0.02281 0.0
C288 C 0.61216 0.52396 0.09097 0.0
C289 C 0.5599 0.50181 0.19703 0.0
O290 O 0.57742 0.50682 0.05047 0.0
O291 O 0.55806 0.51211 0.03919 0.0
O292 O 0.59731 0.53406 0.1829 0.0
O293 O 0.58076 0.53307 0.12052 0.0
Co294 Co 0.40679 0.15391 0.04766 0.0
O295 O 0.41149 0.13974 0.08641 0.0
O296 O 0.42816 0.15967 0.03528 0.0
C297 C 0.38418 0.13521 0.01137 0.0
O298 O 0.40653 0.17047 0.99819 0.0
Co299 Co 0.37717 0.15601 0.06825 0.0
O300 O 0.38309 0.1683 0.9979 0.0
C301 C 0.40408 0.17176 0.14601 0.0
C302 C 0.42526 0.1476 0.06501 0.0
C303 C 0.39682 0.17424 0.9791 0.0
O304 O 0.41239 0.1678 0.11645 0.0
O305 O 0.38993 0.16739 0.135 0.0
O306 O 0.39711 0.13885 0.98624 0.0
O307 O 0.38532 0.14233 0.05776 0.0
Co308 Co 0.84559 0.25337 0.03804 0.0
O309 O 0.86027 0.27209 0.07641 0.0
O310 O 0.83875 0.26837 0.03577 0.0
C311 C 0.86342 0.25054 0.98867 0.0
O312 O 0.82819 0.23662 0.99086 0.0
Co313 Co 0.84531 0.22224 0.05037 0.0
O314 O 0.83045 0.21539 0.98684 0.0
C315 C 0.83372 0.23348 0.14289 0.0
C316 C 0.85145 0.27765 0.06219 0.0
C317 C 0.82406 0.22308 0.97138 0.0
O318 O 0.83391 0.24403 0.11088 0.0
O319 O 0.83927 0.22493 0.12797 0.0
O320 O 0.85891 0.25998 0.97113 0.0
O321 O 0.85793 0.24413 0.03663 0.0
Co322 Co 0.75041 0.59783 0.05833 0.0
O323 O 0.73107 0.59297 0.09338 0.0
O324 O 0.73508 0.57636 0.04529 0.0
C325 C 0.75448 0.62027 0.0201 0.0
O326 O 0.76801 0.59847 0.01248 0.0
Co327 Co 0.78149 0.62768 0.08458 0.0
O328 O 0.78879 0.62228 0.01521 0.0
C329 C 0.76797 0.60182 0.1665 0.0
C330 C 0.7255 0.57919 0.07257 0.0
C331 C 0.78153 0.60865 0.99502 0.0
O332 O 0.75796 0.59264 0.13016 0.0
O333 O 0.77703 0.61625 0.15756 0.0
O334 O 0.74562 0.60729 0.99443 0.0
O335 O 0.75985 0.61921 0.06802 0.0
Co336 Co 0.52111 0.93221 0.88174 0.0
O337 O 0.53385 0.9267 0.92579 0.0
O338 O 0.51328 0.91016 0.87707 0.0
C339 C 0.54134 0.95271 0.84062 0.0
O340 O 0.50574 0.9334 0.82808 0.0
Co341 Co 0.52326 0.96432 0.88985 0.0
O342 O 0.51164 0.95809 0.81805 0.0
C343 C 0.50578 0.94004 0.97618 0.0
C344 C 0.52508 0.91268 0.90792 0.0
C345 C 0.50407 0.94395 0.80334 0.0
O346 O 0.50755 0.92979 0.9493 0.0
O347 O 0.51218 0.95421 0.96093 0.0
O348 O 0.53627 0.93896 0.82011 0.0
O349 O 0.53463 0.95353 0.88552 0.0
Co350 Co 0.07981 0.58887 0.87796 0.0
O351 O 0.08376 0.60739 0.9174 0.0
O352 O 0.10147 0.60438 0.87253 0.0
C353 C 0.05837 0.58556 0.83266 0.0
O354 O 0.08031 0.57238 0.82915 0.0
Co355 Co 0.04951 0.55733 0.89402 0.0
O356 O 0.057 0.55071 0.8283 0.0
C357 C 0.07388 0.56892 0.98145 0.0
C358 C 0.09796 0.61338 0.9004 0.0
C359 C 0.07086 0.55872 0.81104 0.0
O360 O 0.08352 0.57977 0.94871 0.0
O361 O 0.0596 0.56005 0.96924 0.0
O362 O 0.07205 0.59522 0.81346 0.0
O363 O 0.05812 0.57915 0.88006 0.0
Co364 Co 0.41712 0.48455 0.90967 0.0
O365 O 0.39885 0.47215 0.95426 0.0
O366 O 0.40322 0.49276 0.90511 0.0
C367 C 0.41689 0.46401 0.86894 0.0
O368 O 0.43361 0.49963 0.8553 0.0
Co369 Co 0.44684 0.48197 0.91642 0.0
O370 O 0.4521 0.49338 0.84414 0.0
C371 C 0.44085 0.50003 0.00266 0.0
C372 C 0.39383 0.48111 0.93622 0.0
C373 C 0.44562 0.50107 0.82982 0.0
O374 O 0.42866 0.4982 0.97668 0.0
O375 O 0.44848 0.49352 0.98695 0.0
O376 O 0.40833 0.46925 0.84857 0.0
O377 O 0.42463 0.47077 0.91346 0.0
Co378 Co 0.59513 0.84428 0.94984 0.0
O379 O 0.59192 0.85989 0.91426 0.0
O380 O 0.57424 0.83993 0.96266 0.0
C381 C 0.61831 0.86129 0.98737 0.0
O382 O 0.59363 0.82641 0.99644 0.0
Co383 Co 0.62261 0.83901 0.9262 0.0
O384 O 0.61563 0.82563 0.99371 0.0
C385 C 0.59656 0.82757 0.84544 0.0
C386 C 0.57799 0.85247 0.93462 0.0
C387 C 0.60216 0.82095 0.0134 0.0
O388 O 0.58879 0.83146 0.87823 0.0
O389 O 0.61028 0.83036 0.85591 0.0
O390 O 0.60565 0.85839 0.01309 0.0
O391 O 0.61662 0.85439 0.93997 0.0
Co392 Co 0.1556 0.75011 0.94516 0.0
O393 O 0.14304 0.73179 0.90122 0.0
O394 O 0.16344 0.73593 0.95126 0.0
C395 C 0.13518 0.75039 0.98463 0.0
O396 O 0.17081 0.76671 0.99898 0.0
Co397 Co 0.15353 0.7801 0.93618 0.0
O398 O 0.16503 0.78559 0.00825 0.0
C399 C 0.17125 0.77327 0.85099 0.0
C400 C 0.15176 0.72658 0.92014 0.0
C401 C 0.17252 0.77897 0.02339 0.0
O402 O 0.16938 0.76121 0.87799 0.0
O403 O 0.16484 0.78106 0.86575 0.0
O404 O 0.1402 0.74176 0.00607 0.0
O405 O 0.1421 0.75792 0.93998 0.0
Co406 Co 0.25492 0.41362 0.95385 0.0
O407 O 0.27424 0.41739 0.92127 0.0
O408 O 0.27148 0.43388 0.97526 0.0
C409 C 0.24751 0.38937 0.98342 0.0
O410 O 0.2377 0.41399 0.99862 0.0
Co411 Co 0.22266 0.38723 0.91566 0.0
O412 O 0.21429 0.39376 0.97858 0.0
C413 C 0.23879 0.41614 0.84918 0.0
C414 C 0.2806 0.43065 0.94682 0.0
C415 C 0.223 0.40601 0.00614 0.0
O416 O 0.25003 0.42241 0.88479 0.0
O417 O 0.22761 0.40224 0.85289 0.0
O418 O 0.25699 0.40119 0.01367 0.0
O419 O 0.24349 0.3925 0.93589 0.0
Co420 Co 0.15979 0.40982 0.45381 0.0
O421 O 0.14177 0.40761 0.41595 0.0
O422 O 0.15866 0.42862 0.46152 0.0
C423 C 0.14675 0.3864 0.4961 0.0
O424 O 0.17916 0.41627 0.50152 0.0
Co425 Co 0.17221 0.38736 0.43497 0.0
O426 O 0.18703 0.39879 0.49565 0.0
C427 C 0.17836 0.41147 0.3504 0.0
C428 C 0.14573 0.42136 0.43379 0.0
C429 C 0.18826 0.41117 0.51544 0.0
O430 O 0.17229 0.41754 0.38183 0.0
O431 O 0.17853 0.39912 0.36284 0.0
O432 O 0.14688 0.39834 0.51827 0.0
O433 O 0.15386 0.38875 0.44872 0.0
Co434 Co 0.59575 0.7489 0.45423 0.0
O435 O 0.59124 0.72936 0.42167 0.0
O436 O 0.57471 0.73321 0.47116 0.0
C437 C 0.61904 0.75453 0.48909 0.0
O438 O 0.59592 0.76647 0.49827 0.0
Co439 Co 0.62404 0.78046 0.42136 0.0
O440 O 0.61704 0.78946 0.48093 0.0
C441 C 0.5979 0.76413 0.34277 0.0
C442 C 0.57763 0.72365 0.4443 0.0
C443 C 0.60435 0.78109 0.50662 0.0
O444 O 0.5892 0.75507 0.38225 0.0
O445 O 0.61239 0.77343 0.34894 0.0
O446 O 0.60654 0.7455 0.51718 0.0
O447 O 0.61703 0.75919 0.44105 0.0
Co448 Co 0.25796 0.85103 0.44472 0.0
O449 O 0.27637 0.86474 0.40305 0.0
O450 O 0.27223 0.84323 0.44489 0.0
C451 C 0.25721 0.87001 0.49415 0.0
O452 O 0.24131 0.83456 0.49517 0.0
Co453 Co 0.22785 0.85309 0.43988 0.0
O454 O 0.2233 0.84128 0.51119 0.0
C455 C 0.23535 0.838 0.34692 0.0
C456 C 0.28165 0.85572 0.41758 0.0
C457 C 0.22963 0.83327 0.52271 0.0
O458 O 0.24702 0.83894 0.37411 0.0
O459 O 0.22741 0.84397 0.3647 0.0
O460 O 0.26619 0.86481 0.51015 0.0
O461 O 0.24997 0.86443 0.44755 0.0
Co462 Co 0.07001 0.48425 0.38217 0.0
O463 O 0.07032 0.46854 0.42763 0.0
O464 O 0.09035 0.486 0.37931 0.0
C465 C 0.04739 0.4677 0.33948 0.0
O466 O 0.07365 0.50174 0.32768 0.0
Co467 Co 0.04301 0.49126 0.39281 0.0
O468 O 0.05183 0.50301 0.32276 0.0
C469 C 0.06855 0.50414 0.4762 0.0
C470 C 0.08437 0.47367 0.41071 0.0
C471 C 0.06547 0.50716 0.30605 0.0
O472 O 0.07594 0.49862 0.44943 0.0
O473 O 0.05518 0.50173 0.46183 0.0
O474 O 0.06033 0.46922 0.32132 0.0
O475 O 0.0484 0.47539 0.38433 0.0
Co476 Co 0.5187 0.58689 0.41043 0.0
O477 O 0.53161 0.60501 0.45476 0.0
O478 O 0.5108 0.60108 0.408 0.0
C479 C 0.53888 0.58699 0.36744 0.0
O480 O 0.50308 0.57055 0.35677 0.0
Co481 Co 0.52082 0.55694 0.41436 0.0
O482 O 0.50998 0.55268 0.34102 0.0
C483 C 0.50444 0.56365 0.50523 0.0
C484 C 0.52279 0.61031 0.43809 0.0
C485 C 0.50205 0.55906 0.32874 0.0
O486 O 0.50559 0.57546 0.47852 0.0
O487 O 0.5107 0.55592 0.48798 0.0
O488 O 0.53361 0.59562 0.34813 0.0
O489 O 0.53229 0.57915 0.41197 0.0
Co490 Co 0.41871 0.93089 0.3819 0.0
O491 O 0.40039 0.92627 0.42401 0.0
O492 O 0.40437 0.90882 0.38206 0.0
C493 C 0.41937 0.95058 0.33235 0.0
O494 O 0.43527 0.93104 0.33103 0.0
Co495 Co 0.44883 0.96305 0.38661 0.0
O496 O 0.45337 0.95578 0.31542 0.0
C497 C 0.44142 0.94043 0.47945 0.0
C498 C 0.39503 0.91196 0.40953 0.0
C499 C 0.447 0.94144 0.30369 0.0
O500 O 0.42974 0.92974 0.45227 0.0
O501 O 0.44935 0.95437 0.46176 0.0
O502 O 0.41035 0.93637 0.31672 0.0
O503 O 0.42671 0.9523 0.3788 0.0
H504 H 0.22387 0.18661 0.23545 0.0
H505 H 0.26919 0.22455 0.2797 0.0
H506 H 0.25871 0.24217 0.28387 0.0
H507 H 0.21454 0.2095 0.14261 0.0
H508 H 0.19431 0.19984 0.16058 0.0
H509 H 0.20486 0.18963 0.16537 0.0
H510 H 0.19668 0.18314 0.26972 0.0
H511 H 0.18616 0.1934 0.2653 0.0
H512 H 0.20082 0.19856 0.31843 0.0
H513 H 0.24394 0.25558 0.28533 0.0
H514 H 0.22623 0.26552 0.27191 0.0
H515 H 0.1902 0.22011 0.21746 0.0
C516 C 0.23147 0.19861 0.24635 0.0
C517 C 0.24732 0.20427 0.25772 0.0
C518 C 0.25704 0.22005 0.27082 0.0
C519 C 0.25118 0.23012 0.27363 0.0
C520 C 0.23559 0.2243 0.26214 0.0
C521 C 0.22586 0.20903 0.24774 0.0
C522 C 0.20983 0.20631 0.23325 0.0
C523 C 0.20564 0.20101 0.17179 0.0
C524 C 0.19765 0.19466 0.27412 0.0
C525 C 0.21218 0.22244 0.24184 0.0
C526 C 0.22709 0.23246 0.25956 0.0
C527 C 0.23224 0.24789 0.27119 0.0
C528 C 0.22201 0.25341 0.26353 0.0
C529 C 0.20678 0.24364 0.24344 0.0
C530 C 0.20175 0.22786 0.23285 0.0
H531 H 0.78696 0.0328 0.24804 0.0
H532 H 0.83433 0.0424 0.24929 0.0
H533 H 0.825 0.01433 0.24369 0.0
H534 H 0.77239 0.99983 0.3378 0.0
H535 H 0.75401 0.9894 0.30246 0.0
H536 H 0.76441 0.0102 0.30221 0.0
H537 H 0.76369 0.01029 0.19314 0.0
H538 H 0.75315 0.98949 0.19308 0.0
H539 H 0.77095 0.99979 0.15418 0.0
H540 H 0.81024 0.98501 0.23689 0.0
H541 H 0.79137 0.95697 0.23329 0.0
H542 H 0.75376 0.96669 0.24464 0.0
C543 C 0.79537 0.02901 0.24608 0.0
C544 C 0.81138 0.03976 0.24809 0.0
C545 C 0.82202 0.03434 0.24719 0.0
C546 C 0.81682 0.01843 0.24412 0.0
C547 C 0.80094 0.0081 0.24301 0.0
C548 C 0.79038 0.01318 0.24433 0.0
C549 C 0.77394 0.99973 0.24568 0.0
C550 C 0.76571 0.9998 0.30029 0.0
C551 C 0.7649 0.99983 0.1934 0.0
C552 C 0.77687 0.98626 0.24443 0.0
C553 C 0.79251 0.99131 0.2424 0.0
C554 C 0.79798 0.98095 0.23893 0.0
C555 C 0.78719 0.96505 0.23699 0.0
C556 C 0.77113 0.95965 0.23945 0.0
C557 C 0.76598 0.97045 0.24375 0.0
H558 H 0.97229 0.75284 0.24659 0.0
H559 H 0.96274 0.79029 0.26883 0.0
H560 H 0.99087 0.80905 0.27023 0.0
H561 H 0.00431 0.76785 0.34173 0.0
H562 H 0.01503 0.76116 0.30107 0.0
H563 H 0.99424 0.75091 0.2981 0.0
H564 H 0.99524 0.75393 0.18955 0.0
H565 H 0.01603 0.76406 0.19214 0.0
H566 H 0.00617 0.77292 0.15896 0.0
H567 H 0.02037 0.82374 0.26602 0.0
H568 H 0.04844 0.83285 0.26213 0.0
H569 H 0.03829 0.78538 0.25216 0.0
C570 C 0.97612 0.76502 0.25093 0.0
C571 C 0.96537 0.77017 0.2567 0.0
C572 C 0.97081 0.78614 0.26386 0.0
C573 C 0.98675 0.79685 0.26476 0.0
C574 C 0.99708 0.79136 0.25958 0.0
C575 C 0.99195 0.77579 0.25332 0.0
C576 C 0.00533 0.77273 0.25128 0.0
C577 C 0.00468 0.76256 0.30101 0.0
C578 C 0.00572 0.76549 0.19461 0.0
C579 C 0.01883 0.78902 0.25692 0.0
C580 C 0.01388 0.79965 0.26101 0.0
C581 C 0.02435 0.81549 0.26359 0.0
C582 C 0.04025 0.82056 0.26145 0.0
C583 C 0.0455 0.80981 0.25799 0.0
C584 C 0.03461 0.79385 0.25628 0.0
H585 H 0.78813 0.7515 0.74041 0.0
H586 H 0.83548 0.78935 0.74015 0.0
H587 H 0.82611 0.80804 0.73538 0.0
H588 H 0.77187 0.76871 0.64753 0.0
H589 H 0.75416 0.76109 0.68707 0.0
H590 H 0.76472 0.75085 0.68584 0.0
H591 H 0.76568 0.75138 0.79488 0.0
H592 H 0.75529 0.76178 0.79644 0.0
H593 H 0.77375 0.76963 0.83112 0.0
H594 H 0.81133 0.82259 0.73081 0.0
H595 H 0.79244 0.83175 0.72958 0.0
H596 H 0.7549 0.78437 0.74052 0.0
C597 C 0.79653 0.76372 0.7382 0.0
C598 C 0.81255 0.769 0.73972 0.0
C599 C 0.82317 0.78508 0.73846 0.0
C600 C 0.81794 0.79576 0.73586 0.0
C601 C 0.80206 0.79018 0.73544 0.0
C602 C 0.79151 0.77453 0.7368 0.0
C603 C 0.77508 0.77153 0.73902 0.0
C604 C 0.76592 0.76251 0.68675 0.0
C605 C 0.76698 0.76308 0.79362 0.0
C606 C 0.778 0.78793 0.73857 0.0
C607 C 0.79362 0.79853 0.73594 0.0
C608 C 0.79908 0.81438 0.73326 0.0
C609 C 0.78828 0.81948 0.73269 0.0
C610 C 0.77224 0.8088 0.73574 0.0
C611 C 0.76711 0.79284 0.73922 0.0
H612 H 0.2522 0.03503 0.7496 0.0
H613 H 0.21355 0.04321 0.74139 0.0
H614 H 0.19544 0.01498 0.73734 0.0
H615 H 0.23664 1.00131 0.65899 0.0
H616 H 0.24428 0.99173 0.70147 0.0
H617 H 0.25407 0.01251 0.69926 0.0
H618 H 0.25245 0.01324 0.80802 0.0
H619 H 0.24252 0.99246 0.81053 0.0
H620 H 0.23389 0.00273 0.84205 0.0
H621 H 0.18162 0.98563 0.73304 0.0
H622 H 0.17321 0.95773 0.73366 0.0
H623 H 0.22085 0.96899 0.75354 0.0
C624 C 0.23994 0.03087 0.74588 0.0
C625 C 0.23425 0.04127 0.7448 0.0
C626 C 0.21812 0.03541 0.74169 0.0
C627 C 0.20777 0.01941 0.73944 0.0
C628 C 0.21374 0.00944 0.74142 0.0
C629 C 0.22945 0.01496 0.74499 0.0
C630 C 0.23288 1.00186 0.74976 0.0
C631 C 0.24254 1.00185 0.69936 0.0
C632 C 0.24091 0.00262 0.80593 0.0
C633 C 0.21666 0.98809 0.74801 0.0
C634 C 0.20577 0.99267 0.74255 0.0
C635 C 0.19004 0.98193 0.73783 0.0
C636 C 0.18537 0.96612 0.7383 0.0
C637 C 0.19635 0.96122 0.74453 0.0
C638 C 0.21216 0.97239 0.7499 0.0
H639 H 0.03419 0.22175 0.67175 0.0
H640 H 0.04665 0.24624 0.83103 0.0
H641 H 0.01922 0.23306 0.85866 0.0
H642 H 1.00132 0.225 0.64796 0.0
H643 H 0.98963 0.20615 0.61709 0.0
H644 H 0.01036 0.21567 0.61223 0.0
H645 H 0.01006 0.19208 0.65857 0.0
H646 H 0.98928 0.18242 0.66328 0.0
H647 H 1.00066 0.18513 0.72561 0.0
H648 H 0.9908 0.21865 0.8678 0.0
H649 H 0.96247 0.20468 0.85589 0.0
H650 H 0.96739 0.19061 0.6882 0.0
C651 C 0.03112 0.22396 0.713 0.0
C652 C 0.04255 0.23483 0.74973 0.0
C653 C 0.03809 0.23785 0.80257 0.0
C654 C 0.02254 0.2304 0.81868 0.0
C655 C 0.0115 0.22002 0.78127 0.0
C656 C 0.0155 0.21678 0.72943 0.0
C657 C 1.00112 0.2061 0.69558 0.0
C658 C 1.00058 0.21369 0.63993 0.0
C659 C 1.00023 0.19051 0.68514 0.0
C660 C 0.98848 0.20431 0.73578 0.0
C661 C 0.99483 0.21216 0.78547 0.0
C662 C 0.98569 0.21237 0.82928 0.0
C663 C 0.96964 0.20442 0.82219 0.0
C664 C 0.96286 0.19659 0.7714 0.0
C665 C 0.97237 0.1965 0.72751 0.0
H666 H 0.88606 0.5868 0.58729 0.0
H667 H 0.83887 0.54881 0.59602 0.0
H668 H 0.84851 0.53033 0.60298 0.0
H669 H 0.89975 0.56744 0.49836 0.0
H670 H 0.91857 0.57602 0.53073 0.0
H671 H 0.90799 0.58624 0.53064 0.0
H672 H 0.91008 0.58856 0.63934 0.0
H673 H 0.9208 0.57848 0.63973 0.0
H674 H 0.90349 0.57136 0.68136 0.0
H675 H 0.86367 0.51611 0.6111 0.0
H676 H 0.88286 0.50732 0.61483 0.0
H677 H 0.91984 0.55454 0.59167 0.0
C678 C 0.87776 0.57461 0.59162 0.0
C679 C 0.86171 0.56922 0.59211 0.0
C680 C 0.85121 0.55316 0.59614 0.0
C681 C 0.85659 0.5426 0.60002 0.0
C682 C 0.8725 0.54829 0.59868 0.0
C683 C 0.88291 0.56392 0.59413 0.0
C684 C 0.89937 0.56705 0.59071 0.0
C685 C 0.90686 0.57463 0.53425 0.0
C686 C 0.909 0.57694 0.64078 0.0
C687 C 0.89665 0.55075 0.59447 0.0
C688 C 0.88109 0.54008 0.59966 0.0
C689 C 0.87586 0.52436 0.60642 0.0
C690 C 0.88682 0.51946 0.6084 0.0
C691 C 0.90278 0.5302 0.60254 0.0
C692 C 0.90768 0.54601 0.59494 0.0
H693 H 0.42362 0.30372 0.57819 0.0
H694 H 0.46235 0.29559 0.57813 0.0
H695 H 0.48046 0.32386 0.5821 0.0
H696 H 0.44088 0.33633 0.48686 0.0
H697 H 0.43245 0.34633 0.5219 0.0
H698 H 0.42266 0.32555 0.52297 0.0
H699 H 0.42207 0.32573 0.63206 0.0
H700 H 0.43168 0.3465 0.63132 0.0
H701 H 0.43984 0.33685 0.67051 0.0
H702 H 0.49425 0.35341 0.58822 0.0
H703 H 0.50234 0.38126 0.59214 0.0
H704 H 0.45439 0.36947 0.57947 0.0
C705 C 0.43591 0.30785 0.57992 0.0
C706 C 0.4416 0.29746 0.57875 0.0
C707 C 0.45776 0.30336 0.57954 0.0
C708 C 0.46812 0.31939 0.58168 0.0
C709 C 0.4621 0.32934 0.582 0.0
C710 C 0.44635 0.32376 0.58079 0.0
C711 C 0.44276 0.33677 0.57897 0.0
C712 C 0.43418 0.33621 0.52443 0.0
C713 C 0.43355 0.33644 0.63133 0.0
C714 C 0.45893 0.3506 0.57966 0.0
C715 C 0.46997 0.34614 0.58199 0.0
C716 C 0.4857 0.357 0.58576 0.0
C717 C 0.49019 0.37278 0.58782 0.0
C718 C 0.47902 0.37752 0.58505 0.0
C719 C 0.46324 0.36623 0.58028 0.0
H720 H 0.70016 0.11606 0.56066 0.0
H721 H 0.70991 0.16334 0.54754 0.0
H722 H 0.68181 0.15412 0.54789 0.0
H723 H 0.6677 0.10031 0.46623 0.0
H724 H 0.65704 0.08244 0.50449 0.0
H725 H 0.67785 0.09284 0.50633 0.0
H726 H 0.6773 0.09356 0.61535 0.0
H727 H 0.6565 0.08305 0.61386 0.0
H728 H 0.66662 0.10135 0.64977 0.0
H729 H 0.65238 0.13946 0.55348 0.0
H730 H 0.62429 0.12062 0.55839 0.0
H731 H 0.6341 0.08301 0.55848 0.0
C732 C 0.69637 0.12447 0.55858 0.0
C733 C 0.70717 0.14043 0.55496 0.0
C734 C 0.70179 0.15107 0.55078 0.0
C735 C 0.68587 0.14594 0.55089 0.0
C736 C 0.67549 0.13009 0.55399 0.0
C737 C 0.68055 0.11952 0.55718 0.0
C738 C 0.66709 0.1031 0.55763 0.0
C739 C 0.66745 0.09415 0.50557 0.0
C740 C 0.66687 0.09478 0.61242 0.0
C741 C 0.65365 0.10606 0.55502 0.0
C742 C 0.65869 0.1217 0.55344 0.0
C743 C 0.64831 0.12719 0.55393 0.0
C744 C 0.6324 0.11644 0.55663 0.0
C745 C 0.62703 0.10038 0.55773 0.0
C746 C 0.63784 0.0952 0.55626 0.0
H747 H 0.45134 0.08423 0.06882 0.0
H748 H 0.49894 0.12139 0.07577 0.0
H749 H 0.49007 0.14056 0.07374 0.0
H750 H 0.43625 0.10266 0.97882 0.0
H751 H 0.41828 0.09494 0.01678 0.0
H752 H 0.42857 0.08444 0.01508 0.0
H753 H 0.4288 0.084 0.12418 0.0
H754 H 0.41862 0.0946 0.12622 0.0
H755 H 0.4368 0.10194 0.16249 0.0
H756 H 0.47558 0.15558 0.06752 0.0
H757 H 0.45688 0.16504 0.06509 0.0
H758 H 0.41897 0.11782 0.07242 0.0
C759 C 0.45991 0.09641 0.06908 0.0
C760 C 0.47584 0.10138 0.07143 0.0
C761 C 0.48669 0.11739 0.07341 0.0
C762 C 0.48174 0.12832 0.0723 0.0
C763 C 0.4659 0.12302 0.07045 0.0
C764 C 0.45516 0.10742 0.06953 0.0
C765 C 0.43881 0.10464 0.07069 0.0
C766 C 0.42996 0.09617 0.01715 0.0
C767 C 0.43026 0.09577 0.12408 0.0
C768 C 0.44198 0.1211 0.07194 0.0
C769 C 0.45766 0.13158 0.07102 0.0
C770 C 0.46329 0.14747 0.06899 0.0
C771 C 0.45262 0.15275 0.06766 0.0
C772 C 0.43653 0.14217 0.06963 0.0
C773 C 0.43122 0.12618 0.07223 0.0
H774 H 0.8809 0.30171 0.0743 0.0
H775 H 0.83318 0.2909 0.06697 0.0
H776 H 0.84174 0.31877 0.07526 0.0
H777 H 0.89495 0.3336 0.17215 0.0
H778 H 0.91318 0.34462 0.1364 0.0
H779 H 0.90307 0.32385 0.13344 0.0
H780 H 0.90369 0.32508 0.02438 0.0
H781 H 0.91367 0.34586 0.02703 0.0
H782 H 0.8958 0.33549 0.98854 0.0
H783 H 0.85591 0.3482 0.08675 0.0
H784 H 0.87438 0.37633 0.09552 0.0
H785 H 0.91259 0.36748 0.0865 0.0
C786 C 0.87223 0.30518 0.0753 0.0
C787 C 0.85635 0.29415 0.07087 0.0
C788 C 0.84539 0.29918 0.07081 0.0
C789 C 0.85015 0.31498 0.07543 0.0
C790 C 0.86594 0.3256 0.07907 0.0
C791 C 0.87679 0.32088 0.07859 0.0
C792 C 0.89306 0.33456 0.08036 0.0
C793 C 0.90156 0.33413 0.13377 0.0
C794 C 0.90208 0.33528 0.02689 0.0
C795 C 0.88971 0.34773 0.08223 0.0
C796 C 0.87401 0.34238 0.08209 0.0
C797 C 0.86823 0.3525 0.08625 0.0
C798 C 0.87878 0.36844 0.09111 0.0
C799 C 0.89489 0.3741 0.09066 0.0
C800 C 0.90034 0.36355 0.08564 0.0
H801 H 0.63614 0.55328 0.08004 0.0
H802 H 0.62545 0.50561 0.08597 0.0
H803 H 0.65343 0.51433 0.07964 0.0
H804 H 0.66915 0.56826 0.98595 0.0
H805 H 0.67962 0.58619 0.02399 0.0
H806 H 0.65881 0.57595 0.0235 0.0
H807 H 0.65868 0.57567 0.13262 0.0
H808 H 0.67947 0.58577 0.13347 0.0
H809 H 0.66872 0.56757 0.16968 0.0
H810 H 0.68307 0.52881 0.07182 0.0
H811 H 0.71126 0.5475 0.07008 0.0
H812 H 0.70196 0.58538 0.07928 0.0
C813 C 0.63965 0.54464 0.07881 0.0
C814 C 0.62863 0.52875 0.08231 0.0
C815 C 0.63372 0.51783 0.08257 0.0
C816 C 0.64957 0.5227 0.07905 0.0
C817 C 0.66018 0.53852 0.07644 0.0
C818 C 0.65538 0.5493 0.07682 0.0
C819 C 0.66898 0.56562 0.07771 0.0
C820 C 0.66915 0.57453 0.02462 0.0
C821 C 0.66895 0.57415 0.13158 0.0
C822 C 0.68224 0.56241 0.07765 0.0
C823 C 0.677 0.54673 0.07605 0.0
C824 C 0.68726 0.54109 0.07361 0.0
C825 C 0.70323 0.55176 0.07267 0.0
C826 C 0.70876 0.56784 0.07547 0.0
C827 C 0.69807 0.57314 0.07825 0.0
H828 H 0.55419 0.91753 0.92128 0.0
H829 H 0.50632 0.88113 0.90971 0.0
H830 H 0.51453 0.8615 0.91658 0.0
H831 H 0.56887 0.89909 0.83321 0.0
H832 H 0.58667 0.90609 0.87181 0.0
H833 H 0.57691 0.91711 0.87101 0.0
H834 H 0.57614 0.91683 0.98008 0.0
H835 H 0.58602 0.90592 0.98125 0.0
H836 H 0.56776 0.89864 0.01689 0.0
H837 H 0.52832 0.84595 0.92652 0.0
H838 H 0.54642 0.83583 0.9319 0.0
H839 H 0.58522 0.88262 0.92709 0.0
C840 C 0.5454 0.90542 0.92125 0.0
C841 C 0.52959 0.9008 0.91609 0.0
C842 C 0.51848 0.88487 0.91431 0.0
C843 C 0.52305 0.87368 0.91813 0.0
C844 C 0.53879 0.87864 0.92253 0.0
C845 C 0.54979 0.89416 0.92351 0.0
C846 C 0.566 0.89655 0.92488 0.0
C847 C 0.57514 0.90522 0.87208 0.0
C848 C 0.57448 0.90498 0.979 0.0
C849 C 0.56245 0.87996 0.92481 0.0
C850 C 0.54669 0.86978 0.92423 0.0
C851 C 0.54067 0.85383 0.92641 0.0
C852 C 0.55101 0.84819 0.92944 0.0
C853 C 0.56718 0.85844 0.92906 0.0
C854 C 0.57291 0.87451 0.92631 0.0
H855 H 0.09127 0.63658 0.90367 0.0
H856 H 0.12959 0.62788 0.908 0.0
H857 H 0.14797 0.65611 0.91246 0.0
H858 H 0.10972 0.66925 0.81171 0.0
H859 H 0.10116 0.67941 0.84464 0.0
H860 H 0.09116 0.65861 0.84567 0.0
H861 H 0.08957 0.65879 0.95458 0.0
H862 H 0.09942 0.67957 0.95384 0.0
H863 H 0.10702 0.66973 0.99501 0.0
H864 H 0.162 0.68568 0.91999 0.0
H865 H 0.17036 0.7136 0.92372 0.0
H866 H 0.12274 0.70239 0.90423 0.0
C867 C 0.10352 0.64061 0.90646 0.0
C868 C 0.10904 0.63009 0.90662 0.0
C869 C 0.12516 0.63579 0.90848 0.0
C870 C 0.13565 0.65178 0.91093 0.0
C871 C 0.12982 0.66188 0.91014 0.0
C872 C 0.11411 0.65648 0.90733 0.0
C873 C 0.11075 0.66963 0.90402 0.0
C874 C 0.10273 0.66919 0.84819 0.0
C875 C 0.10112 0.66941 0.9549 0.0
C876 C 0.12699 0.68333 0.9062 0.0
C877 C 0.13786 0.67869 0.91031 0.0
C878 C 0.15358 0.68941 0.91599 0.0
C879 C 0.15824 0.70523 0.91798 0.0
C880 C 0.14724 0.71014 0.91315 0.0
C881 C 0.13147 0.699 0.90659 0.0
H882 H 0.30305 0.42277 0.93977 0.0
H883 H 0.2963 0.46221 0.95411 0.0
H884 H 0.3247 0.47974 0.95475 0.0
H885 H 0.33542 0.43752 0.03523 0.0
H886 H 0.34517 0.42938 0.99663 0.0
H887 H 0.3244 0.42012 0.99469 0.0
H888 H 0.3251 0.42162 0.8857 0.0
H889 H 0.34585 0.43079 0.8873 0.0
H890 H 0.33671 0.44004 0.85173 0.0
H891 H 0.35413 0.49296 0.94817 0.0
H892 H 0.38184 0.50049 0.94285 0.0
H893 H 0.36896 0.45216 0.94341 0.0
C894 C 0.30757 0.43511 0.94256 0.0
C895 C 0.29753 0.4412 0.94609 0.0
C896 C 0.30383 0.45736 0.95104 0.0
C897 C 0.31993 0.46738 0.95142 0.0
C898 C 0.32954 0.461 0.94814 0.0
C899 C 0.32356 0.44521 0.94458 0.0
C900 C 0.3363 0.4412 0.94392 0.0
C901 C 0.33525 0.43148 0.99571 0.0
C902 C 0.33597 0.43293 0.88889 0.0
C903 C 0.3504 0.45719 0.94688 0.0
C904 C 0.34631 0.4685 0.94861 0.0
C905 C 0.35745 0.48418 0.9478 0.0
C906 C 0.37313 0.48836 0.94483 0.0
C907 C 0.37751 0.47692 0.94402 0.0
C908 C 0.36596 0.46117 0.94562 0.0
H909 H 0.11568 0.48256 0.40688 0.0
H910 H 0.06978 0.44318 0.43341 0.0
H911 H 0.08072 0.42609 0.43998 0.0
H912 H 0.13103 0.46318 0.32498 0.0
H913 H 0.14988 0.47266 0.3573 0.0
H914 H 0.13873 0.48229 0.35415 0.0
H915 H 0.14082 0.48589 0.46235 0.0
H916 H 0.15209 0.47639 0.46577 0.0
H917 H 0.13474 0.46929 0.5072 0.0
H918 H 0.09565 0.41278 0.43568 0.0
H919 H 0.11473 0.4041 0.43607 0.0
H920 H 0.15191 0.45167 0.42284 0.0
C921 C 0.10801 0.47036 0.41458 0.0
C922 C 0.09185 0.46423 0.41957 0.0
C923 C 0.08219 0.44821 0.42982 0.0
C924 C 0.08827 0.43835 0.43327 0.0
C925 C 0.10413 0.44464 0.42755 0.0
C926 C 0.11398 0.46028 0.41972 0.0
C927 C 0.13068 0.46386 0.41722 0.0
C928 C 0.13801 0.47092 0.36 0.0
C929 C 0.14014 0.47449 0.46605 0.0
C930 C 0.12853 0.44775 0.42408 0.0
C931 C 0.11304 0.43689 0.42894 0.0
C932 C 0.10785 0.42116 0.43273 0.0
C933 C 0.11878 0.41634 0.43253 0.0
C934 C 0.13477 0.42719 0.42976 0.0
C935 C 0.13974 0.44315 0.42553 0.0
H936 H 0.55215 0.63435 0.44528 0.0
H937 H 0.5044 0.62352 0.44348 0.0
H938 H 0.5131 0.65152 0.447 0.0
H939 H 0.56794 0.66821 0.53532 0.0
H940 H 0.5855 0.67837 0.49497 0.0
H941 H 0.57533 0.65758 0.49794 0.0
H942 H 0.57403 0.65646 0.38894 0.0
H943 H 0.58405 0.67722 0.38562 0.0
H944 H 0.56552 0.66611 0.35184 0.0
H945 H 0.52749 0.68108 0.45147 0.0
H946 H 0.54604 0.70927 0.4498 0.0
H947 H 0.58407 0.70021 0.43843 0.0
C948 C 0.54351 0.63785 0.4469 0.0
C949 C 0.52759 0.6268 0.4454 0.0
C950 C 0.51664 0.63183 0.44543 0.0
C951 C 0.52149 0.64769 0.44734 0.0
C952 C 0.53733 0.65833 0.44795 0.0
C953 C 0.54815 0.65357 0.4472 0.0
C954 C 0.56444 0.66719 0.44388 0.0
C955 C 0.57385 0.66787 0.49615 0.0
C956 C 0.57248 0.66671 0.38932 0.0
C957 C 0.56116 0.68041 0.44317 0.0
C958 C 0.54548 0.67512 0.44636 0.0
C959 C 0.53977 0.68531 0.44845 0.0
C960 C 0.55037 0.70128 0.44744 0.0
C961 C 0.56644 0.70687 0.44312 0.0
C962 C 0.57183 0.69625 0.44063 0.0
H963 H 0.37131 0.9178 0.41785 0.0
H964 H 0.38117 0.88025 0.41149 0.0
H965 H 0.35302 0.86135 0.41201 0.0
H966 H 0.33715 0.89937 0.50577 0.0
H967 H 0.32748 0.90757 0.46694 0.0
H968 H 0.34826 0.91773 0.47086 0.0
H969 H 0.34969 0.91869 0.36185 0.0
H970 H 0.32892 0.90833 0.35758 0.0
H971 H 0.33985 0.90095 0.3223 0.0
H972 H 0.32332 0.84662 0.41449 0.0
H973 H 0.29524 0.83764 0.415 0.0
H974 H 0.30558 0.88521 0.40999 0.0
C975 C 0.36757 0.90559 0.41778 0.0
C976 C 0.37841 0.90045 0.41578 0.0
C977 C 0.37304 0.8844 0.41379 0.0
C978 C 0.35709 0.87361 0.4139 0.0
C979 C 0.3467 0.8791 0.41486 0.0
C980 C 0.35178 0.89474 0.41641 0.0
C981 C 0.33841 0.8978 0.41397 0.0
C982 C 0.33779 0.90611 0.46758 0.0
C983 C 0.33927 0.90698 0.36076 0.0
C984 C 0.32495 0.88145 0.41117 0.0
C985 C 0.32989 0.87077 0.41234 0.0
C986 C 0.31937 0.85491 0.41291 0.0
C987 C 0.30346 0.8499 0.41301 0.0
C988 C 0.29824 0.86071 0.41139 0.0
C989 C 0.30919 0.87665 0.40977 0.0
H990 H 0.10692 0.27473 0.90993 0.0
H991 H 0.10619 0.23732 0.81608 0.0
H992 H 0.1178 0.23131 0.89777 0.0
H993 H 0.14197 0.28898 0.965 0.0
H994 H 0.13797 0.29415 0.03307 0.0
H995 H 0.12642 0.29304 0.97349 0.0
H996 H 0.10151 0.27329 0.02567 0.0
H997 H 0.11297 0.27453 0.08622 0.0
H998 H 0.10022 0.25602 0.05477 0.0
H999 H 0.13446 0.23323 0.98316 0.0
H1000 H 0.15252 0.2417 0.0643 0.0
H1001 H 0.1413 0.27747 0.10084 0.0
C1002 C 0.10855 0.26482 0.9077 0.0
C1003 C 0.1055 0.25633 0.85744 0.0
C1004 C 0.10813 0.2437 0.85495 0.0
C1005 C 0.11481 0.24029 0.90102 0.0
C1006 C 0.11843 0.24944 0.94934 0.0
C1007 C 0.11501 0.26122 0.95325 0.0
C1008 C 0.12139 0.27047 0.00664 0.0
C1009 C 0.1326 0.28766 0.99373 0.0
C1010 C 0.10824 0.26845 0.04564 0.0
C1011 C 0.12977 0.26271 0.03076 0.0
C1012 C 0.1278 0.25045 0.99794 0.0
C1013 C 0.13574 0.24257 0.00982 0.0
C1014 C 0.14601 0.24748 0.05593 0.0
C1015 C 0.14837 0.26026 0.08908 0.0
C1016 C 0.13979 0.26763 0.07667 0.0
H1017 H 0.71625 0.85889 0.10286 0.0
H1018 H 0.76116 0.90057 0.09478 0.0
H1019 H 0.76864 0.88911 0.01717 0.0
H1020 H 0.72929 0.8312 0.06745 0.0
H1021 H 0.71214 0.81942 0.02652 0.0
H1022 H 0.71129 0.83012 0.08613 0.0
H1023 H 0.7002 0.84334 0.02239 0.0
H1024 H 0.70092 0.83264 0.96291 0.0
H1025 H 0.71064 0.85343 0.95998 0.0
H1026 H 0.76996 0.87384 0.93264 0.0
H1027 H 0.76428 0.8572 0.84829 0.0
H1028 H 0.71865 0.82594 0.9145 0.0
C1029 C 0.72779 0.86557 0.08567 0.0
C1030 C 0.73811 0.88064 0.1052 0.0
C1031 C 0.75304 0.88897 0.08084 0.0
C1032 C 0.75742 0.88252 0.03682 0.0
C1033 C 0.74681 0.86769 0.01804 0.0
C1034 C 0.73232 0.85934 0.04204 0.0
C1035 C 0.72246 0.84425 0.01161 0.0
C1036 C 0.71857 0.83044 0.05024 0.0
C1037 C 0.7077 0.84338 0.98781 0.0
C1038 C 0.73342 0.84562 0.96529 0.0
C1039 C 0.74754 0.85904 0.96998 0.0
C1040 C 0.75903 0.86318 0.92916 0.0
C1041 C 0.75576 0.85363 0.88154 0.0
C1042 C 0.74105 0.84027 0.875 0.0
C1043 C 0.73004 0.83603 0.9185 0.0
H1044 H 0.1458 0.85653 0.11634 0.0
H1045 H 0.10219 0.85572 0.09865 0.0
H1046 H 0.1133 0.8747 0.02092 0.0
H1047 H 0.1713 0.8979 0.081 0.0
H1048 H 0.18459 0.89387 0.04374 0.0
H1049 H 0.17382 0.88202 0.10272 0.0
H1050 H 0.16309 0.85754 0.04009 0.0
H1051 H 0.17389 0.86927 0.98131 0.0
H1052 H 0.15328 0.85675 0.97538 0.0
H1053 H 0.12855 0.89145 0.9364 0.0
H1054 H 0.14576 0.9029 0.85353 0.0
H1055 H 0.17904 0.89278 0.93022 0.0
C1056 C 0.13861 0.86052 0.09697 0.0
C1057 C 0.12311 0.85461 0.11376 0.0
C1058 C 0.11414 0.86013 0.08683 0.0
C1059 C 0.12037 0.87096 0.0427 0.0
C1060 C 0.13565 0.87632 0.02654 0.0
C1061 C 0.14464 0.87131 0.05334 0.0
C1062 C 0.16024 0.87767 0.02557 0.0
C1063 C 0.17326 0.88851 0.06566 0.0
C1064 C 0.16276 0.86453 0.00432 0.0
C1065 C 0.15846 0.88653 0.97741 0.0
C1066 C 0.14434 0.88592 0.97887 0.0
C1067 C 0.13975 0.89224 0.93553 0.0
C1068 C 0.14962 0.89882 0.88878 0.0
C1069 C 0.16374 0.89879 0.88571 0.0
C1070 C 0.16836 0.89309 0.93167 0.0
H1071 H 0.26981 0.13071 0.64349 0.0
H1072 H 0.25427 0.08428 0.58392 0.0
H1073 H 0.25012 0.09184 0.48867 0.0
H1074 H 0.24294 0.13786 0.55316 0.0
H1075 H 0.25744 0.15786 0.54385 0.0
H1076 H 0.25677 0.148 0.60828 0.0
H1077 H 0.2854 0.15553 0.5942 0.0
H1078 H 0.28614 0.16525 0.52964 0.0
H1079 H 0.29109 0.15021 0.52979 0.0
H1080 H 0.25292 0.10608 0.39716 0.0
H1081 H 0.25963 0.12494 0.31934 0.0
H1082 H 0.27125 0.16145 0.44049 0.0
C1083 C 0.26507 0.12202 0.61071 0.0
C1084 C 0.2623 0.10692 0.62065 0.0
C1085 C 0.25626 0.09585 0.57702 0.0
C1086 C 0.25393 0.10007 0.52291 0.0
C1087 C 0.25732 0.11528 0.51393 0.0
C1088 C 0.2624 0.12597 0.55713 0.0
C1089 C 0.26621 0.1418 0.53623 0.0
C1090 C 0.25518 0.14666 0.5619 0.0
C1091 C 0.28321 0.1539 0.54816 0.0
C1092 C 0.26328 0.13861 0.47389 0.0
C1093 C 0.2581 0.12323 0.46175 0.0
C1094 C 0.25645 0.118 0.40633 0.0
C1095 C 0.26031 0.12875 0.36247 0.0
C1096 C 0.2655 0.14445 0.37436 0.0
C1097 C 0.26674 0.14937 0.43062 0.0
H1098 H 0.83757 0.11323 0.46454 0.0
H1099 H 0.87398 0.11816 0.35307 0.0
H1100 H 0.89311 0.13026 0.43063 0.0
H1101 H 0.85743 0.14776 0.53359 0.0
H1102 H 0.84907 0.14045 0.60184 0.0
H1103 H 0.83853 0.13083 0.53935 0.0
H1104 H 0.83609 0.10516 0.5748 0.0
H1105 H 0.84671 0.11476 0.63754 0.0
H1106 H 0.85326 0.10453 0.59336 0.0
H1107 H 0.90859 0.14532 0.51911 0.0
H1108 H 0.91812 0.16072 0.60741 0.0
H1109 H 0.87074 0.14335 0.65992 0.0
C1110 C 0.84954 0.11662 0.45693 0.0
C1111 C 0.85442 0.1149 0.40332 0.0
C1112 C 0.87011 0.11939 0.39433 0.0
C1113 C 0.881 0.12623 0.43808 0.0
C1114 C 0.87585 0.12803 0.49069 0.0
C1115 C 0.86038 0.12304 0.50026 0.0
C1116 C 0.85767 0.12677 0.55916 0.0
C1117 C 0.85025 0.13707 0.55839 0.0
C1118 C 0.84785 0.11192 0.59322 0.0
C1119 C 0.87409 0.1354 0.58055 0.0
C1120 C 0.88452 0.13596 0.54115 0.0
C1121 C 0.90048 0.14466 0.55067 0.0
C1122 C 0.90582 0.15331 0.60094 0.0
C1123 C 0.89517 0.15322 0.64035 0.0
C1124 C 0.87918 0.14366 0.63056 0.0
H1125 H 0.83397 0.71142 0.59021 0.0
H1126 H 0.85877 0.76016 0.63254 0.0
H1127 H 0.87511 0.76539 0.5476 0.0
H1128 H 0.86569 0.70881 0.54904 0.0
H1129 H 0.85605 0.69526 0.49272 0.0
H1130 H 0.84512 0.69574 0.55202 0.0
H1131 H 0.8271 0.70012 0.48542 0.0
H1132 H 0.83783 0.69942 0.42569 0.0
H1133 H 0.83535 0.71591 0.43595 0.0
H1134 H 0.89071 0.76446 0.46352 0.0
H1135 H 0.90277 0.75786 0.38548 0.0
H1136 H 0.86727 0.70965 0.4008 0.0
C1137 C 0.84262 0.72327 0.58118 0.0
C1138 C 0.8451 0.7354 0.61806 0.0
C1139 C 0.85657 0.75072 0.6046 0.0
C1140 C 0.86594 0.75377 0.55662 0.0
C1141 C 0.86355 0.74139 0.52241 0.0
C1142 C 0.85198 0.72648 0.53385 0.0
C1143 C 0.85218 0.715 0.49289 0.0
C1144 C 0.85493 0.703 0.52351 0.0
C1145 C 0.83723 0.70716 0.45791 0.0
C1146 C 0.8659 0.72569 0.45713 0.0
C1147 C 0.87232 0.74088 0.47445 0.0
C1148 C 0.88562 0.75264 0.44919 0.0
C1149 C 0.89243 0.74875 0.40505 0.0
C1150 C 0.88594 0.73324 0.38663 0.0
C1151 C 0.87246 0.72165 0.41319 0.0
H1152 H 0.84258 0.73199 0.9572 0.0
H1153 H 0.87781 0.74712 0.82852 0.0
H1154 H 0.89799 0.755 0.90243 0.0
H1155 H 0.86662 0.76217 0.06504 0.0
H1156 H 0.8579 0.74852 0.12181 0.0
H1157 H 0.84687 0.74672 0.05929 0.0
H1158 H 0.84105 0.71856 0.04593 0.0
H1159 H 0.8519 0.72025 0.10839 0.0
H1160 H 0.85689 0.71479 0.04277 0.0
H1161 H 0.91364 0.75761 0.99079 0.0
H1162 H 0.92265 0.75324 0.08291 0.0
H1163 H 0.87701 0.73678 0.15224 0.0
C1164 C 0.85462 0.73738 0.94494 0.0
C1165 C 0.85881 0.73918 0.88779 0.0
C1166 C 0.87453 0.74589 0.8725 0.0
C1167 C 0.88602 0.75043 0.91414 0.0
C1168 C 0.88152 0.74831 0.97061 0.0
C1169 C 0.86616 0.74202 0.98588 0.0
C1170 C 0.86401 0.73939 0.04865 0.0
C1171 C 0.85853 0.74983 0.07526 0.0
C1172 C 0.85282 0.72224 0.06218 0.0
C1173 C 0.88039 0.74434 0.06614 0.0
C1174 C 0.89046 0.74983 0.02102 0.0
C1175 C 0.90592 0.75368 0.02663 0.0
C1176 C 0.911 0.75128 0.07907 0.0
C1177 C 0.90054 0.7449 0.12448 0.0
C1178 C 0.88528 0.74196 0.11827 0.0
H1179 H 0.28115 0.14278 0.87117 0.0
H1180 H 0.24241 0.09701 0.90375 0.0
H1181 H 0.23374 0.10768 0.9803 0.0
H1182 H 0.29081 0.15321 0.00617 0.0
H1183 H 0.29635 0.17323 0.99728 0.0
H1184 H 0.2973 0.16247 0.93862 0.0
H1185 H 0.27959 0.16952 0.88118 0.0
H1186 H 0.27844 0.18018 0.94041 0.0
H1187 H 0.26101 0.16498 0.90909 0.0
H1188 H 0.23228 0.12254 0.06427 0.0
H1189 H 0.23924 0.13949 0.14815 0.0
H1190 H 0.27836 0.1754 0.05822 0.0
C1191 C 0.27062 0.13503 0.89341 0.0
C1192 C 0.26248 0.11906 0.88148 0.0
C1193 C 0.2488 0.10932 0.91187 0.0
C1194 C 0.24374 0.11529 0.95527 0.0
C1195 C 0.25231 0.13108 0.96696 0.0
C1196 C 0.2654 0.14081 0.93635 0.0
C1197 C 0.27372 0.15689 0.96101 0.0
C1198 C 0.29052 0.16171 0.97673 0.0
C1199 C 0.27315 0.16858 0.9205 0.0
C1200 C 0.26391 0.15449 0.01254 0.0
C1201 C 0.25133 0.13967 0.0147 0.0
C1202 C 0.24181 0.1343 0.06221 0.0
C1203 C 0.24574 0.14402 0.10955 0.0
C1204 C 0.25916 0.15879 0.1089 0.0
C1205 C 0.26781 0.16429 0.05892 0.0
H1206 H 0.83059 0.11556 0.09292 0.0
H1207 H 0.86101 0.09889 0.14787 0.0
H1208 H 0.87789 0.11155 0.06522 0.0
H1209 H 0.83552 0.11294 0.93871 0.0
H1210 H 0.83473 0.1303 0.92573 0.0
H1211 H 0.82413 0.11788 0.98375 0.0
H1212 H 0.83788 0.14115 0.05188 0.0
H1213 H 0.84875 0.15356 0.99447 0.0
H1214 H 0.8587 0.15178 0.0548 0.0
H1215 H 0.89317 0.12931 0.98309 0.0
H1216 H 0.90427 0.1485 0.90621 0.0
H1217 H 0.86346 0.15333 0.90779 0.0
C1218 C 0.84058 0.11419 0.0868 0.0
C1219 C 0.84449 0.10621 0.12664 0.0
C1220 C 0.85769 0.10476 0.11738 0.0
C1221 C 0.86738 0.11201 0.07078 0.0
C1222 C 0.86353 0.12043 0.0337 0.0
C1223 C 0.85025 0.12127 0.04084 0.0
C1224 C 0.84908 0.13181 0.99787 0.0
C1225 C 0.83503 0.12268 0.95921 0.0
C1226 C 0.84858 0.14537 0.02649 0.0
C1227 C 0.86404 0.13725 0.96634 0.0
C1228 C 0.8722 0.13051 0.98711 0.0
C1229 C 0.88673 0.13445 0.96606 0.0
C1230 C 0.89298 0.14543 0.92252 0.0
C1231 C 0.88474 0.15244 0.90063 0.0
C1232 C 0.87006 0.14817 0.92308 0.0
H1233 H 0.73893 0.87307 0.34247 0.0
H1234 H 0.74617 0.91622 0.41161 0.0
H1235 H 0.74958 0.90802 0.50672 0.0
H1236 H 0.71664 0.84952 0.44617 0.0
H1237 H 0.72438 0.83666 0.4469 0.0
H1238 H 0.72541 0.84702 0.38373 0.0
H1239 H 0.75511 0.85877 0.38026 0.0
H1240 H 0.75417 0.84823 0.44315 0.0
H1241 H 0.76663 0.8689 0.44078 0.0
H1242 H 0.74668 0.89269 0.59544 0.0
H1243 H 0.74075 0.87282 0.66893 0.0
H1244 H 0.73725 0.84047 0.54083 0.0
C1245 C 0.74187 0.88102 0.37741 0.0
C1246 C 0.74253 0.89533 0.37011 0.0
C1247 C 0.74597 0.90536 0.41654 0.0
C1248 C 0.74784 0.90074 0.47058 0.0
C1249 C 0.74655 0.88624 0.47684 0.0
C1250 C 0.74404 0.8767 0.43112 0.0
C1251 C 0.74197 0.86125 0.44916 0.0
C1252 C 0.72617 0.84783 0.43039 0.0
C1253 C 0.75527 0.85917 0.42703 0.0
C1254 C 0.74283 0.86319 0.51243 0.0
C1255 C 0.74556 0.87771 0.52773 0.0
C1256 C 0.74505 0.8815 0.58395 0.0
C1257 C 0.74164 0.87018 0.62533 0.0
C1258 C 0.73896 0.85537 0.61018 0.0
C1259 C 0.73976 0.85192 0.55327 0.0
H1260 H 0.12242 0.82899 0.41501 0.0
H1261 H 0.10149 0.85618 0.36575 0.0
H1262 H 0.1128 0.8726 0.45041 0.0
H1263 H 0.11873 0.83145 0.56901 0.0
H1264 H 0.13711 0.83269 0.58153 0.0
H1265 H 0.12557 0.82207 0.52177 0.0
H1266 H 0.1487 0.83866 0.45574 0.0
H1267 H 0.16023 0.84947 0.51502 0.0
H1268 H 0.15742 0.8594 0.45688 0.0
H1269 H 0.12939 0.88795 0.53476 0.0
H1270 H 0.1481 0.89972 0.6128 0.0
H1271 H 0.15787 0.86206 0.60441 0.0
C1272 C 0.11989 0.83818 0.4225 0.0
C1273 C 0.11105 0.8413 0.38372 0.0
C1274 C 0.10808 0.85347 0.39516 0.0
C1275 C 0.11453 0.86289 0.443 0.0
C1276 C 0.12373 0.85984 0.47912 0.0
C1277 C 0.12618 0.8476 0.46967 0.0
C1278 C 0.13725 0.84721 0.5122 0.0
C1279 C 0.12918 0.83248 0.54827 0.0
C1280 C 0.15175 0.84878 0.48321 0.0
C1281 C 0.14103 0.86139 0.54648 0.0
C1282 C 0.13309 0.86851 0.52717 0.0
C1283 C 0.13546 0.88231 0.55064 0.0
C1284 C 0.14618 0.88894 0.59487 0.0
C1285 C 0.15445 0.8818 0.61515 0.0
C1286 C 0.15167 0.86777 0.59056 0.0
H1287 H 0.14236 0.28058 0.59699 0.0
H1288 H 0.09724 0.24063 0.56532 0.0
H1289 H 0.10819 0.23353 0.48464 0.0
H1290 H 0.15169 0.29141 0.45975 0.0
H1291 H 0.17198 0.29793 0.46752 0.0
H1292 H 0.16103 0.2981 0.52708 0.0
H1293 H 0.16946 0.28124 0.58304 0.0
H1294 H 0.18036 0.28091 0.52315 0.0
H1295 H 0.16582 0.26305 0.55418 0.0
H1296 H 0.12391 0.23269 0.40042 0.0
H1297 H 0.14176 0.23947 0.31908 0.0
H1298 H 0.17581 0.28024 0.40739 0.0
C1299 C 0.13473 0.27016 0.57393 0.0
C1300 C 0.1189 0.26116 0.58772 0.0
C1301 C 0.10942 0.24768 0.55586 0.0
C1302 C 0.11557 0.24353 0.5101 0.0
C1303 C 0.13123 0.25288 0.49721 0.0
C1304 C 0.14064 0.26591 0.52853 0.0
C1305 C 0.15663 0.27501 0.50354 0.0
C1306 C 0.16055 0.29158 0.48856 0.0
C1307 C 0.16878 0.27505 0.54336 0.0
C1308 C 0.15465 0.26551 0.45156 0.0
C1309 C 0.14009 0.25254 0.4491 0.0
C1310 C 0.13541 0.24266 0.40255 0.0
C1311 C 0.14563 0.24651 0.35673 0.0
C1312 C 0.16018 0.26024 0.35766 0.0
C1313 C 0.16485 0.26953 0.4063 0.0
H1314 H 0.81202 0.62017 0.45204 0.0
H1315 H 0.81439 0.57829 0.4316 0.0
H1316 H 0.79519 0.57007 0.35444 0.0
H1317 H 0.7703 0.60313 0.41674 0.0
H1318 H 0.77386 0.62046 0.38052 0.0
H1319 H 0.78578 0.62166 0.4395 0.0
H1320 H 0.81031 0.63635 0.37759 0.0
H1321 H 0.79851 0.63529 0.31885 0.0
H1322 H 0.81153 0.62782 0.31232 0.0
H1323 H 0.7784 0.56841 0.27001 0.0
H1324 H 0.76709 0.57422 0.18684 0.0
H1325 H 0.77563 0.61679 0.26601 0.0
C1326 C 0.80831 0.6091 0.43226 0.0
C1327 C 0.81474 0.59988 0.44801 0.0
C1328 C 0.80956 0.58552 0.4206 0.0
C1329 C 0.79862 0.58073 0.37678 0.0
C1330 C 0.79277 0.59031 0.3615 0.0
C1331 C 0.7974 0.60415 0.38895 0.0
C1332 C 0.79066 0.61313 0.36176 0.0
C1333 C 0.77948 0.61468 0.40204 0.0
C1334 C 0.80351 0.62907 0.34141 0.0
C1335 C 0.78209 0.60258 0.31301 0.0
C1336 C 0.78312 0.5893 0.31382 0.0
C1337 C 0.77725 0.57861 0.26968 0.0
C1338 C 0.77074 0.58192 0.22276 0.0
C1339 C 0.7704 0.59589 0.22032 0.0
C1340 C 0.77558 0.60594 0.26709 0.0
H1341 H 0.39793 0.19413 0.17358 0.0
H1342 H 0.42456 0.17311 0.22781 0.0
H1343 H 0.43086 0.18806 0.31722 0.0
H1344 H 0.42188 0.23251 0.24367 0.0
H1345 H 0.40486 0.23362 0.25999 0.0
H1346 H 0.40544 0.22383 0.19712 0.0
H1347 H 0.38039 0.19924 0.22886 0.0
H1348 H 0.37984 0.20885 0.2919 0.0
H1349 H 0.37987 0.19087 0.29667 0.0
H1350 H 0.43091 0.20292 0.4065 0.0
H1351 H 0.42456 0.21552 0.48423 0.0
H1352 H 0.39665 0.22498 0.3696 0.0
C1353 C 0.40544 0.19296 0.20361 0.0
C1354 C 0.41078 0.1825 0.19404 0.0
C1355 C 0.42053 0.18123 0.23422 0.0
C1356 C 0.4241 0.18964 0.28506 0.0
C1357 C 0.41798 0.19937 0.29422 0.0
C1358 C 0.409 0.20115 0.25394 0.0
C1359 C 0.40237 0.21087 0.27504 0.0
C1360 C 0.40904 0.22611 0.24199 0.0
C1361 C 0.38457 0.20191 0.27302 0.0
C1362 C 0.40828 0.21367 0.33471 0.0
C1363 C 0.41762 0.20736 0.34499 0.0
C1364 C 0.42379 0.20806 0.39846 0.0
C1365 C 0.42014 0.21519 0.44228 0.0
C1366 C 0.41015 0.22113 0.4323 0.0
C1367 C 0.40436 0.22052 0.37787 0.0
H1368 H 0.84006 0.2211 0.23362 0.0
H1369 H 0.80901 0.2367 0.17571 0.0
H1370 H 0.79279 0.22519 0.26066 0.0
H1371 H 0.8125 0.18547 0.27829 0.0
H1372 H 0.82288 0.18458 0.33894 0.0
H1373 H 0.83332 0.19629 0.27953 0.0
H1374 H 0.84729 0.22039 0.34374 0.0
H1375 H 0.83706 0.2087 0.40376 0.0
H1376 H 0.83606 0.2258 0.38766 0.0
H1377 H 0.77805 0.2084 0.34506 0.0
H1378 H 0.76715 0.18969 0.42335 0.0
H1379 H 0.80824 0.18534 0.42423 0.0
C1380 C 0.83008 0.22249 0.23949 0.0
C1381 C 0.82579 0.22982 0.19814 0.0
C1382 C 0.81261 0.23131 0.20722 0.0
C1383 C 0.8033 0.22473 0.2552 0.0
C1384 C 0.80752 0.21694 0.2939 0.0
C1385 C 0.82078 0.21608 0.28689 0.0
C1386 C 0.82229 0.20615 0.33173 0.0
C1387 C 0.82277 0.19231 0.30553 0.0
C1388 C 0.83652 0.21584 0.36894 0.0
C1389 C 0.80748 0.20101 0.36404 0.0
C1390 C 0.79916 0.20744 0.3421 0.0
C1391 C 0.78463 0.20354 0.36309 0.0
C1392 C 0.7785 0.19282 0.40747 0.0
C1393 C 0.78684 0.18604 0.43034 0.0
C1394 C 0.80159 0.19038 0.40834 0.0
H1395 H 0.96053 0.49055 0.76317 0.0
H1396 H 0.91431 0.4841 0.75241 0.0
H1397 H 0.90576 0.46464 0.82849 0.0
H1398 H 0.94912 0.45052 0.79243 0.0
H1399 H 0.96495 0.45578 0.84049 0.0
H1400 H 0.96703 0.4684 0.78284 0.0
H1401 H 0.97448 0.49099 0.85275 0.0
H1402 H 0.9726 0.4785 0.91039 0.0
H1403 H 0.96173 0.48844 0.91052 0.0
H1404 H 0.90276 0.44661 0.91063 0.0
H1405 H 0.90631 0.43346 0.99331 0.0
H1406 H 0.9543 0.45183 0.94647 0.0
C1407 C 0.94856 0.48499 0.77628 0.0
C1408 C 0.93811 0.48887 0.75152 0.0
C1409 C 0.92257 0.48134 0.77058 0.0
C1410 C 0.91757 0.4702 0.81364 0.0
C1411 C 0.92821 0.46664 0.83703 0.0
C1412 C 0.94339 0.47388 0.81892 0.0
C1413 C 0.95284 0.46873 0.8525 0.0
C1414 C 0.95883 0.46035 0.8148 0.0
C1415 C 0.96619 0.48247 0.88337 0.0
C1416 C 0.94071 0.45767 0.89316 0.0
C1417 C 0.9265 0.45642 0.88351 0.0
C1418 C 0.91381 0.4474 0.91816 0.0
C1419 C 0.91588 0.43988 0.96479 0.0
C1420 C 0.93056 0.44161 0.97635 0.0
C1421 C 0.94291 0.45025 0.93886 0.0
H1422 H 0.54222 0.50234 0.95576 0.0
H1423 H 0.57595 0.48729 0.97229 0.0
H1424 H 0.56431 0.4702 0.88912 0.0
H1425 H 0.51054 0.4658 0.92089 0.0
H1426 H 0.50216 0.4737 0.87357 0.0
H1427 H 0.5137 0.48499 0.93216 0.0
H1428 H 0.5316 0.50705 0.86412 0.0
H1429 H 0.52007 0.49587 0.80534 0.0
H1430 H 0.54056 0.50289 0.80607 0.0
H1431 H 0.54755 0.45383 0.80416 0.0
H1432 H 0.52859 0.4411 0.72686 0.0
H1433 H 0.50659 0.46761 0.77159 0.0
C1434 C 0.54738 0.4956 0.94213 0.0
C1435 C 0.56009 0.49624 0.97083 0.0
C1436 C 0.56627 0.48708 0.95096 0.0
C1437 C 0.55969 0.47731 0.90388 0.0
C1438 C 0.54696 0.47684 0.8774 0.0
C1439 C 0.54097 0.48585 0.89609 0.0
C1440 C 0.52707 0.48322 0.86229 0.0
C1441 C 0.51251 0.47653 0.89945 0.0
C1442 C 0.53002 0.49814 0.83269 0.0
C1443 C 0.52617 0.47142 0.82072 0.0
C1444 C 0.5376 0.46772 0.8299 0.0
C1445 C 0.53863 0.45675 0.79666 0.0
C1446 C 0.5278 0.44955 0.75295 0.0
C1447 C 0.51616 0.45343 0.74277 0.0
C1448 C 0.51542 0.46447 0.77755 0.0
H1449 H 0.52752 0.04615 0.70649 0.0
H1450 H 0.5706 0.08961 0.72139 0.0
H1451 H 0.5593 0.09743 0.79869 0.0
H1452 H 0.50139 0.06118 0.73968 0.0
H1453 H 0.48842 0.04395 0.77817 0.0
H1454 H 0.49934 0.04284 0.7198 0.0
H1455 H 0.51064 0.02997 0.78433 0.0
H1456 H 0.49969 0.03093 0.84253 0.0
H1457 H 0.52036 0.03952 0.84851 0.0
H1458 H 0.54379 0.09895 0.88267 0.0
H1459 H 0.52639 0.09338 0.96481 0.0
H1460 H 0.49384 0.04926 0.89081 0.0
C1461 C 0.53457 0.05744 0.72521 0.0
C1462 C 0.54996 0.06726 0.70771 0.0
C1463 C 0.55873 0.0819 0.73378 0.0
C1464 C 0.5524 0.08646 0.77766 0.0
C1465 C 0.53721 0.07634 0.79443 0.0
C1466 C 0.52843 0.06216 0.76854 0.0
C1467 C 0.51289 0.05278 0.79656 0.0
C1468 C 0.49973 0.05003 0.75613 0.0
C1469 C 0.51079 0.03741 0.81934 0.0
C1470 C 0.51442 0.0636 0.84367 0.0
C1471 C 0.5284 0.07726 0.84165 0.0
C1472 C 0.53271 0.08841 0.88398 0.0
C1473 C 0.52273 0.08521 0.9303 0.0
C1474 C 0.50875 0.07093 0.93396 0.0
C1475 C 0.5044 0.06034 0.88897 0.0
H1476 H 0.51223 0.0401 0.22059 0.0
H1477 H 0.52522 0.08837 0.20477 0.0
H1478 H 0.54378 0.09491 0.28324 0.0
H1479 H 0.51276 0.03937 0.36848 0.0
H1480 H 0.5201 0.02619 0.3722 0.0
H1481 H 0.50886 0.02576 0.31236 0.0
H1482 H 0.53114 0.02975 0.24585 0.0
H1483 H 0.54251 0.03029 0.30563 0.0
H1484 H 0.55021 0.04611 0.25628 0.0
H1485 H 0.56028 0.09577 0.36787 0.0
H1486 H 0.57159 0.0905 0.45224 0.0
H1487 H 0.54738 0.04176 0.40971 0.0
C1488 C 0.51909 0.0521 0.23292 0.0
C1489 C 0.5173 0.06372 0.20607 0.0
C1490 C 0.52639 0.07924 0.22447 0.0
C1491 C 0.53702 0.08308 0.26892 0.0
C1492 C 0.53844 0.07129 0.29452 0.0
C1493 C 0.52966 0.05611 0.2771 0.0
C1494 C 0.53258 0.04539 0.31317 0.0
C1495 C 0.5177 0.03349 0.34334 0.0
C1496 C 0.53953 0.03742 0.27813 0.0
C1497 C 0.54426 0.05684 0.35416 0.0
C1498 C 0.54767 0.07177 0.34273 0.0
C1499 C 0.55776 0.08413 0.37685 0.0
C1500 C 0.56421 0.08106 0.42453 0.0
C1501 C 0.5604 0.06573 0.43774 0.0
C1502 C 0.55057 0.05362 0.40104 0.0
H1503 H 0.94879 0.45141 0.30795 0.0
H1504 H 0.90979 0.44761 0.21483 0.0
H1505 H 0.90426 0.46065 0.29328 0.0
H1506 H 0.93055 0.44476 0.44844 0.0
H1507 H 0.94872 0.45795 0.48121 0.0
H1508 H 0.94832 0.44716 0.41987 0.0
H1509 H 0.96732 0.47265 0.36929 0.0
H1510 H 0.96774 0.48356 0.42997 0.0
H1511 H 0.96243 0.48766 0.36228 0.0
H1512 H 0.90535 0.47714 0.38045 0.0
H1513 H 0.91234 0.49385 0.46569 0.0
H1514 H 0.94968 0.48469 0.49929 0.0
C1515 C 0.93894 0.45311 0.30442 0.0
C1516 C 0.92975 0.44864 0.25556 0.0
C1517 C 0.9169 0.45094 0.25234 0.0
C1518 C 0.91372 0.45834 0.2966 0.0
C1519 C 0.92328 0.46295 0.34406 0.0
C1520 C 0.93545 0.46011 0.34831 0.0
C1521 C 0.9444 0.46643 0.40215 0.0
C1522 C 0.9429 0.45329 0.44016 0.0
C1523 C 0.96147 0.47828 0.39016 0.0
C1524 C 0.9359 0.474 0.42662 0.0
C1525 C 0.92363 0.47183 0.39335 0.0
C1526 C 0.91481 0.4787 0.4071 0.0
C1527 C 0.91883 0.48815 0.45553 0.0
C1528 C 0.93164 0.49072 0.48895 0.0
C1529 C 0.93991 0.48317 0.47454 0.0
H1530 H 0.50073 0.46025 0.44585 0.0
H1531 H 0.52192 0.43227 0.47877 0.0
H1532 H 0.53927 0.4444 0.39663 0.0
H1533 H 0.50231 0.46019 0.29416 0.0
H1534 H 0.50658 0.47994 0.28943 0.0
H1535 H 0.49534 0.46803 0.34745 0.0
H1536 H 0.51475 0.48839 0.41757 0.0
H1537 H 0.52613 0.50028 0.35983 0.0
H1538 H 0.53495 0.49426 0.41275 0.0
H1539 H 0.55558 0.46155 0.31254 0.0
H1540 H 0.56802 0.48064 0.23552 0.0
H1541 H 0.53561 0.49688 0.26344 0.0
C1542 C 0.50886 0.45644 0.43582 0.0
C1543 C 0.50993 0.44527 0.46903 0.0
C1544 C 0.52079 0.44073 0.45383 0.0
C1545 C 0.53073 0.44761 0.40739 0.0
C1546 C 0.5296 0.45894 0.37667 0.0
C1547 C 0.5188 0.46318 0.39039 0.0
C1548 C 0.52009 0.47602 0.3532 0.0
C1549 C 0.5052 0.47072 0.31903 0.0
C1550 C 0.52423 0.49059 0.38792 0.0
C1551 C 0.53333 0.47846 0.31596 0.0
C1552 C 0.53876 0.46859 0.32976 0.0
C1553 C 0.5513 0.46922 0.30133 0.0
C1554 C 0.55832 0.48013 0.25773 0.0
C1555 C 0.55279 0.49026 0.24303 0.0
C1556 C 0.54013 0.48929 0.27295 0.0
H1557 H 0.3838 0.22129 0.7377 0.0
H1558 H 0.43194 0.24087 0.69101 0.0
H1559 H 0.4362 0.22884 0.77546 0.0
H1560 H 0.38931 0.22371 0.89316 0.0
H1561 H 0.3717 0.20559 0.90325 0.0
H1562 H 0.37339 0.2179 0.84501 0.0
H1563 H 0.36628 0.19518 0.77622 0.0
H1564 H 0.36486 0.18289 0.83391 0.0
H1565 H 0.3777 0.1858 0.77607 0.0
H1566 H 0.43389 0.21127 0.85774 0.0
H1567 H 0.42589 0.1917 0.93324 0.0
H1568 H 0.37911 0.1838 0.92319 0.0
C1569 C 0.39537 0.22344 0.74598 0.0
C1570 C 0.40756 0.23204 0.70788 0.0
C1571 C 0.42249 0.23449 0.72005 0.0
C1572 C 0.42497 0.22762 0.76772 0.0
C1573 C 0.41244 0.21854 0.80292 0.0
C1574 C 0.39799 0.2167 0.79296 0.0
C1575 C 0.38609 0.2055 0.83399 0.0
C1576 C 0.37975 0.21367 0.87106 0.0
C1577 C 0.37297 0.19152 0.80319 0.0
C1578 C 0.39594 0.20088 0.86774 0.0
C1579 C 0.41113 0.20856 0.84968 0.0
C1580 C 0.42209 0.2054 0.87274 0.0
C1581 C 0.4174 0.19419 0.91542 0.0
C1582 C 0.40186 0.18621 0.93447 0.0
C1583 C 0.3911 0.18974 0.91019 0.0
H1584 H 0.77346 0.15994 0.74629 0.0
H1585 H 0.765 0.19375 0.66472 0.0
H1586 H 0.77587 0.21093 0.7479 0.0
H1587 H 0.7675 0.16843 0.89665 0.0
H1588 H 0.7829 0.16538 0.92039 0.0
H1589 H 0.77113 0.15462 0.86121 0.0
H1590 H 0.79585 0.16425 0.80082 0.0
H1591 H 0.80766 0.17526 0.85909 0.0
H1592 H 0.80885 0.18473 0.79313 0.0
H1593 H 0.79226 0.22618 0.83265 0.0
H1594 H 0.81115 0.23734 0.91061 0.0
H1595 H 0.80906 0.19327 0.93342 0.0
C1596 C 0.7733 0.1707 0.74692 0.0
C1597 C 0.76829 0.1755 0.69947 0.0
C1598 C 0.76851 0.18975 0.70119 0.0
C1599 C 0.77476 0.19959 0.74814 0.0
C1600 C 0.78048 0.19486 0.79303 0.0
C1601 C 0.7795 0.18056 0.79303 0.0
C1602 C 0.78801 0.17874 0.84242 0.0
C1603 C 0.77671 0.16604 0.88255 0.0
C1604 C 0.80085 0.17557 0.82264 0.0
C1605 C 0.79466 0.19452 0.86893 0.0
C1606 C 0.79 0.20361 0.84075 0.0
C1607 C 0.7957 0.21903 0.85559 0.0
C1608 C 0.80647 0.22529 0.89988 0.0
C1609 C 0.81162 0.2162 0.92829 0.0
C1610 C 0.80536 0.20055 0.91289 0.0
H1611 H 0.80749 0.62814 0.93524 0.0
H1612 H 0.77221 0.57985 0.95026 0.0
H1613 H 0.78427 0.57342 0.87171 0.0
H1614 H 0.80859 0.62905 0.78779 0.0
H1615 H 0.8291 0.64227 0.78366 0.0
H1616 H 0.8184 0.64259 0.844 0.0
H1617 H 0.83686 0.63856 0.90954 0.0
H1618 H 0.84757 0.63812 0.84925 0.0
H1619 H 0.83959 0.62224 0.89834 0.0
H1620 H 0.79979 0.57268 0.78679 0.0
H1621 H 0.81602 0.57809 0.70142 0.0
H1622 H 0.84062 0.6268 0.74441 0.0
C1623 C 0.80239 0.61615 0.92279 0.0
C1624 C 0.78896 0.60449 0.94939 0.0
C1625 C 0.78254 0.589 0.93076 0.0
C1626 C 0.78935 0.58522 0.88629 0.0
C1627 C 0.80257 0.59705 0.86086 0.0
C1628 C 0.80896 0.61221 0.87852 0.0
C1629 C 0.82253 0.62299 0.84223 0.0
C1630 C 0.81946 0.63492 0.81267 0.0
C1631 C 0.83752 0.63094 0.87692 0.0
C1632 C 0.82269 0.61161 0.80078 0.0
C1633 C 0.81124 0.59666 0.81229 0.0
C1634 C 0.80888 0.58434 0.77775 0.0
C1635 C 0.8182 0.58749 0.72951 0.0
C1636 C 0.8296 0.60285 0.71611 0.0
C1637 C 0.83203 0.61491 0.75329 0.0
H1638 H 0.46235 0.96113 0.5532 0.0
H1639 H 0.43367 0.91181 0.52472 0.0
H1640 H 0.44605 0.9069 0.60681 0.0
H1641 H 0.49637 0.96074 0.58572 0.0
H1642 H 0.50275 0.97586 0.63758 0.0
H1643 H 0.49069 0.97519 0.58012 0.0
H1644 H 0.47074 0.97486 0.65081 0.0
H1645 H 0.48283 0.97567 0.70847 0.0
H1646 H 0.46299 0.96032 0.70516 0.0
H1647 H 0.46341 0.90796 0.68981 0.0
H1648 H 0.48264 0.91471 0.76622 0.0
H1649 H 0.49962 0.96338 0.73511 0.0
C1650 C 0.45844 0.94923 0.56423 0.0
C1651 C 0.447 0.93684 0.53225 0.0
C1652 C 0.44233 0.9215 0.54871 0.0
C1653 C 0.44936 0.91862 0.5951 0.0
C1654 C 0.46097 0.93121 0.62449 0.0
C1655 C 0.46534 0.9462 0.60964 0.0
C1656 C 0.47843 0.95786 0.64582 0.0
C1657 C 0.49291 0.968 0.61017 0.0
C1658 C 0.47344 0.96775 0.67957 0.0
C1659 C 0.48087 0.94715 0.68365 0.0
C1660 C 0.47076 0.93181 0.67103 0.0
C1661 C 0.47127 0.91994 0.70013 0.0
C1662 C 0.48228 0.92389 0.74336 0.0
C1663 C 0.49263 0.93959 0.75705 0.0
C1664 C 0.49184 0.95127 0.72633 0.0
H1665 H 0.06867 0.5619 0.69931 0.0
H1666 H 0.08355 0.54027 0.82285 0.0
H1667 H 0.08908 0.52677 0.74642 0.0
H1668 H 0.04824 0.53004 0.61737 0.0
H1669 H 0.05301 0.54001 0.55073 0.0
H1670 H 0.05321 0.55002 0.61372 0.0
H1671 H 0.08161 0.57102 0.5939 0.0
H1672 H 0.0815 0.561 0.53066 0.0
H1673 H 0.09601 0.56543 0.58378 0.0
H1674 H 0.08977 0.51322 0.6567 0.0
H1675 H 0.08376 0.49971 0.56445 0.0
H1676 H 0.0679 0.53006 0.50163 0.0
C1677 C 0.07356 0.55469 0.70981 0.0
C1678 C 0.07598 0.55223 0.76625 0.0
C1679 C 0.0819 0.54239 0.77937 0.0
C1680 C 0.0851 0.53476 0.7363 0.0
C1681 C 0.08235 0.53719 0.68062 0.0
C1682 C 0.07674 0.54699 0.66743 0.0
C1683 C 0.073 0.54631 0.60551 0.0
C1684 C 0.05585 0.54129 0.59634 0.0
C1685 C 0.08367 0.56187 0.57678 0.0
C1686 C 0.0766 0.53404 0.5863 0.0
C1687 C 0.08239 0.52918 0.62964 0.0
C1688 C 0.0855 0.51712 0.62225 0.0
C1689 C 0.08213 0.50956 0.5698 0.0
C1690 C 0.07544 0.51393 0.52626 0.0
C1691 C 0.07312 0.5266 0.53429 0.0
H1692 H 0.4692 0.50525 0.76041 0.0
H1693 H 0.43782 0.52252 0.79309 0.0
H1694 H 0.45005 0.54157 0.71605 0.0
H1695 H 0.50268 0.54162 0.72932 0.0
H1696 H 0.50923 0.53373 0.67478 0.0
H1697 H 0.49801 0.52173 0.73266 0.0
H1698 H 0.47802 0.50185 0.6627 0.0
H1699 H 0.48923 0.51372 0.6046 0.0
H1700 H 0.46916 0.50821 0.61115 0.0
H1701 H 0.46616 0.55883 0.6325 0.0
H1702 H 0.48345 0.57128 0.55045 0.0
H1703 H 0.50383 0.54231 0.57776 0.0
C1704 C 0.46488 0.51305 0.7518 0.0
C1705 C 0.45258 0.5124 0.78316 0.0
C1706 C 0.44724 0.52277 0.76973 0.0
C1707 C 0.45415 0.53368 0.72613 0.0
C1708 C 0.46636 0.53405 0.69636 0.0
C1709 C 0.47159 0.52392 0.70875 0.0
C1710 C 0.48458 0.52626 0.6703 0.0
C1711 C 0.49951 0.53113 0.70378 0.0
C1712 C 0.47997 0.51165 0.6351 0.0
C1713 C 0.48594 0.53932 0.63422 0.0
C1714 C 0.47542 0.54376 0.64948 0.0
C1715 C 0.47448 0.55545 0.62042 0.0
C1716 C 0.48439 0.56251 0.57405 0.0
C1717 C 0.49502 0.55781 0.55734 0.0
C1718 C 0.49586 0.54624 0.58888 0.0
H1719 H 0.6153 0.8043 0.05134 0.0
H1720 H 0.5757 0.81041 0.07687 0.0
H1721 H 0.5671 0.79176 0.15565 0.0
H1722 H 0.59587 0.76258 0.09084 0.0
H1723 H 0.61308 0.76508 0.12502 0.0
H1724 H 0.61463 0.7769 0.06526 0.0
H1725 H 0.63136 0.80166 0.12405 0.0
H1726 H 0.63001 0.78994 0.1834 0.0
H1727 H 0.62403 0.80414 0.19021 0.0
H1728 H 0.56503 0.77529 0.24065 0.0
H1729 H 0.57082 0.76436 0.32482 0.0
H1730 H 0.61117 0.76859 0.24071 0.0
C1731 C 0.60463 0.80151 0.07263 0.0
C1732 C 0.59619 0.80884 0.05772 0.0
C1733 C 0.58236 0.80491 0.08721 0.0
C1734 C 0.57733 0.79425 0.13191 0.0
C1735 C 0.5861 0.78743 0.14609 0.0
C1736 C 0.59943 0.79088 0.11694 0.0
C1737 C 0.60772 0.78332 0.14354 0.0
C1738 C 0.60783 0.77125 0.10378 0.0
C1739 C 0.62424 0.79549 0.16138 0.0
C1740 C 0.59743 0.77569 0.19389 0.0
C1741 C 0.58481 0.77786 0.19429 0.0
C1742 C 0.57466 0.77321 0.24008 0.0
C1743 C 0.57793 0.76688 0.28757 0.0
C1744 C 0.59133 0.76549 0.28882 0.0
C1745 C 0.6007 0.76928 0.24035 0.0
H1746 H 0.21436 0.83778 0.27349 0.0
H1747 H 0.24314 0.81722 0.30116 0.0
H1748 H 0.23072 0.79998 0.21903 0.0
H1749 H 0.18039 0.80333 0.24138 0.0
H1750 H 0.17387 0.81202 0.18976 0.0
H1751 H 0.18598 0.82344 0.24705 0.0
H1752 H 0.2058 0.84313 0.17623 0.0
H1753 H 0.19366 0.83186 0.1187 0.0
H1754 H 0.21353 0.83643 0.12156 0.0
H1755 H 0.21331 0.7837 0.13626 0.0
H1756 H 0.19401 0.77121 0.06012 0.0
H1757 H 0.17694 0.80279 0.09185 0.0
C1758 C 0.21829 0.82982 0.26227 0.0
C1759 C 0.22978 0.82889 0.29403 0.0
C1760 C 0.23446 0.81824 0.27733 0.0
C1761 C 0.2274 0.80836 0.23093 0.0
C1762 C 0.21575 0.80933 0.20179 0.0
C1763 C 0.21136 0.81992 0.21686 0.0
C1764 C 0.19821 0.81845 0.181 0.0
C1765 C 0.18376 0.81405 0.21695 0.0
C1766 C 0.2031 0.83335 0.14737 0.0
C1767 C 0.19576 0.80534 0.14301 0.0
C1768 C 0.20591 0.80015 0.15537 0.0
C1769 C 0.20541 0.7878 0.12615 0.0
C1770 C 0.19436 0.78073 0.08308 0.0
C1771 C 0.18397 0.78605 0.06964 0.0
C1772 C 0.18475 0.79849 0.10046 0.0
H1773 H 0.23367 0.41659 0.11163 0.0
H1774 H 0.1959 0.4062 0.99743 0.0
H1775 H 0.1829 0.41289 0.07169 0.0
H1776 H 0.2104 0.39793 0.22399 0.0
H1777 H 0.22313 0.41097 0.27712 0.0
H1778 H 0.23094 0.40897 0.21174 0.0
H1779 H 0.24392 0.43854 0.19577 0.0
H1780 H 0.23589 0.44056 0.26106 0.0
H1781 H 0.23227 0.44766 0.1964 0.0
H1782 H 0.17249 0.41743 0.16112 0.0
H1783 H 0.16382 0.41527 0.26007 0.0
H1784 H 0.2075 0.42103 0.31709 0.0
C1785 C 0.22291 0.41624 0.10192 0.0
C1786 C 0.21587 0.41117 0.04882 0.0
C1787 C 0.20149 0.4102 0.03793 0.0
C1788 C 0.19412 0.41412 0.07963 0.0
C1789 C 0.20121 0.41885 0.13214 0.0
C1790 C 0.21523 0.41973 0.14355 0.0
C1791 C 0.21913 0.42246 0.20556 0.0
C1792 C 0.22099 0.4093 0.23107 0.0
C1793 C 0.23367 0.43825 0.21524 0.0
C1794 C 0.20485 0.42231 0.22765 0.0
C1795 C 0.19489 0.42078 0.18447 0.0
C1796 C 0.18032 0.41896 0.19519 0.0
C1797 C 0.17552 0.41789 0.25142 0.0
C1798 C 0.18517 0.41833 0.29571 0.0
C1799 C 0.20017 0.42115 0.2837 0.0
H1800 H 0.21563 0.42144 0.8254 0.0
H1801 H 0.25929 0.42861 0.76232 0.0
H1802 H 0.25289 0.43424 0.66771 0.0
H1803 H 0.19419 0.40036 0.72259 0.0
H1804 H 0.18082 0.40745 0.71785 0.0
H1805 H 0.19064 0.40911 0.78285 0.0
H1806 H 0.20159 0.43867 0.78404 0.0
H1807 H 0.1915 0.43712 0.71922 0.0
H1808 H 0.21204 0.45013 0.72384 0.0
H1809 H 0.23864 0.43095 0.57827 0.0
H1810 H 0.21892 0.42176 0.50295 0.0
H1811 H 0.18469 0.41795 0.6231 0.0
C1812 C 0.22421 0.42516 0.79227 0.0
C1813 C 0.23806 0.42495 0.80091 0.0
C1814 C 0.24884 0.42918 0.75662 0.0
C1815 C 0.24522 0.4323 0.70275 0.0
C1816 C 0.23093 0.4314 0.69454 0.0
C1817 C 0.22076 0.42835 0.73862 0.0
C1818 C 0.20525 0.42564 0.71779 0.0
C1819 C 0.19196 0.4097 0.73634 0.0
C1820 C 0.20244 0.43867 0.73738 0.0
C1821 C 0.20779 0.42633 0.65483 0.0
C1822 C 0.22277 0.42995 0.64221 0.0
C1823 C 0.22711 0.42877 0.58745 0.0
C1824 C 0.21585 0.42348 0.54499 0.0
C1825 C 0.20049 0.4196 0.55736 0.0
C1826 C 0.19654 0.42149 0.61249 0.0
H1827 H 0.58953 0.79873 0.81628 0.0
H1828 H 0.59129 0.84009 0.75249 0.0
H1829 H 0.58999 0.83081 0.65487 0.0
H1830 H 0.61374 0.7972 0.72494 0.0
H1831 H 0.60416 0.77658 0.71508 0.0
H1832 H 0.60135 0.78436 0.7792 0.0
H1833 H 0.57173 0.76953 0.76409 0.0
H1834 H 0.57435 0.7613 0.70043 0.0
H1835 H 0.56383 0.77159 0.69853 0.0
H1836 H 0.59543 0.82036 0.56698 0.0
H1837 H 0.60268 0.80733 0.49433 0.0
H1838 H 0.59537 0.77168 0.61432 0.0
C1839 C 0.58869 0.80533 0.78169 0.0
C1840 C 0.59008 0.81989 0.79146 0.0
C1841 C 0.58971 0.82868 0.74557 0.0
C1842 C 0.58912 0.82355 0.69008 0.0
C1843 C 0.58861 0.80947 0.68161 0.0
C1844 C 0.58787 0.80024 0.72628 0.0
C1845 C 0.58895 0.78641 0.7063 0.0
C1846 C 0.60287 0.78614 0.73296 0.0
C1847 C 0.57381 0.77131 0.71802 0.0
C1848 C 0.5913 0.78974 0.64384 0.0
C1849 C 0.59106 0.80309 0.63032 0.0
C1850 C 0.59507 0.8096 0.57664 0.0
C1851 C 0.59929 0.80223 0.53582 0.0
C1852 C 0.59925 0.7884 0.54874 0.0
C1853 C 0.595 0.782 0.60313 0.0
H1854 H 0.18205 0.80141 0.80314 0.0
H1855 H 0.18437 0.75937 0.78671 0.0
H1856 H 0.20107 0.77051 0.7021 0.0
H1857 H 0.17851 0.80724 0.66078 0.0
H1858 H 0.18999 0.82799 0.66532 0.0
H1859 H 0.17941 0.81696 0.7258 0.0
H1860 H 0.20468 0.8293 0.78456 0.0
H1861 H 0.21537 0.84041 0.72419 0.0
H1862 H 0.22107 0.82809 0.75958 0.0
H1863 H 0.21718 0.78695 0.61558 0.0
H1864 H 0.22964 0.80584 0.53768 0.0
H1865 H 0.21508 0.83577 0.61462 0.0
C1866 C 0.18599 0.79438 0.78221 0.0
C1867 C 0.18173 0.7794 0.80152 0.0
C1868 C 0.18744 0.77087 0.77273 0.0
C1869 C 0.19693 0.77712 0.72471 0.0
C1870 C 0.20065 0.79192 0.7066 0.0
C1871 C 0.19531 0.80037 0.73498 0.0
C1872 C 0.20027 0.81573 0.70728 0.0
C1873 C 0.18621 0.81704 0.68869 0.0
C1874 C 0.21098 0.82917 0.74622 0.0
C1875 C 0.20896 0.81459 0.65753 0.0
C1876 C 0.20937 0.80096 0.65784 0.0
C1877 C 0.21688 0.79762 0.61524 0.0
C1878 C 0.22394 0.8084 0.57125 0.0
C1879 C 0.22315 0.82217 0.56992 0.0
C1880 C 0.21569 0.82526 0.61404 0.0
H1881 H 0.05885 0.56152 0.08072 0.0
H1882 H 0.1 0.56689 -0.00056 0.0
H1883 H 0.10444 0.55384 0.0804 0.0
H1884 H 0.07302 0.56545 0.23032 0.0
H1885 H 0.05398 0.55118 0.25371 0.0
H1886 H 0.05619 0.56361 0.19519 0.0
H1887 H 0.03932 0.53948 0.13382 0.0
H1888 H 0.03732 0.52699 0.19145 0.0
H1889 H 0.04499 0.52508 0.12517 0.0
H1890 H 0.10137 0.53592 0.1641 0.0
H1891 H 0.0922 0.51705 0.24294 0.0
H1892 H 0.05314 0.52416 0.26612 0.0
C1893 C 0.06915 0.5605 0.08106 0.0
C1894 C 0.07918 0.56532 0.03438 0.0
C1895 C 0.09237 0.56355 0.0355 0.0
C1896 C 0.09489 0.55605 0.08113 0.0
C1897 C 0.08426 0.55068 0.12545 0.0
C1898 C 0.07183 0.55318 0.12606 0.0
C1899 C 0.06122 0.5452 0.1752 0.0
C1900 C 0.0611 0.55707 0.21603 0.0
C1901 C 0.04476 0.5335 0.15517 0.0
C1902 C 0.06914 0.53719 0.20094 0.0
C1903 C 0.08252 0.54055 0.1725 0.0
C1904 C 0.09106 0.53347 0.1872 0.0
C1905 C 0.08575 0.52272 0.2319 0.0
C1906 C 0.07192 0.51904 0.26082 0.0
C1907 C 0.06375 0.52662 0.24517 0.0
H1908 H 0.4689 0.51003 0.05102 0.0
H1909 H 0.42776 0.51406 0.06605 0.0
H1910 H 0.43939 0.53106 0.14955 0.0
H1911 H 0.47494 0.50723 0.19412 0.0
H1912 H 0.49571 0.51823 0.18885 0.0
H1913 H 0.48438 0.50742 0.1292 0.0
H1914 H 0.49716 0.53232 0.06836 0.0
H1915 H 0.50854 0.54319 0.12797 0.0
H1916 H 0.49651 0.54912 0.09181 0.0
H1917 H 0.45611 0.54731 0.23466 0.0
H1918 H 0.47511 0.55981 0.31205 0.0
H1919 H 0.50413 0.5437 0.23801 0.0
C1920 C 0.46217 0.5144 0.07144 0.0
C1921 C 0.44729 0.51055 0.05197 0.0
C1922 C 0.43916 0.5168 0.08013 0.0
C1923 C 0.4457 0.52648 0.12751 0.0
C1924 C 0.4604 0.52985 0.14566 0.0
C1925 C 0.46847 0.52396 0.11805 0.0
C1926 C 0.48382 0.52872 0.14571 0.0
C1927 C 0.48475 0.51456 0.16567 0.0
C1928 C 0.4973 0.53895 0.10611 0.0
C1929 C 0.48306 0.5379 0.19464 0.0
C1930 C 0.46964 0.53872 0.19378 0.0
C1931 C 0.46662 0.5467 0.23545 0.0
C1932 C 0.47748 0.55379 0.27916 0.0
C1933 C 0.49102 0.5526 0.28122 0.0
C1934 C 0.49382 0.54467 0.23796 0.0
H1935 H 0.49586 0.95786 0.0262 0.0
H1936 H 0.49201 0.91274 0.03897 0.0
H1937 H 0.47517 0.90713 0.12318 0.0
H1938 H 0.49894 0.96634 0.16966 0.0
H1939 H 0.48794 0.97611 0.16522 0.0
H1940 H 0.4987 0.97575 0.1052 0.0
H1941 H 0.47376 0.96378 0.04455 0.0
H1942 H 0.4629 0.9641 0.10448 0.0
H1943 H 0.45697 0.94624 0.06763 0.0
H1944 H 0.45891 0.90738 0.20936 0.0
H1945 H 0.44634 0.91372 0.28704 0.0
H1946 H 0.46236 0.95891 0.21346 0.0
C1947 C 0.49158 0.94673 0.04627 0.0
C1948 C 0.49542 0.93578 0.02598 0.0
C1949 C 0.48927 0.92134 0.05372 0.0
C1950 C 0.47969 0.91807 0.10149 0.0
C1951 C 0.47633 0.92932 0.12043 0.0
C1952 C 0.48214 0.94334 0.09319 0.0
C1953 C 0.4774 0.95384 0.12136 0.0
C1954 C 0.49159 0.96889 0.14157 0.0
C1955 C 0.46715 0.95718 0.08217 0.0
C1956 C 0.46827 0.94378 0.17007 0.0
C1957 C 0.46748 0.92957 0.16887 0.0
C1958 C 0.4595 0.91848 0.21041 0.0
C1959 C 0.45238 0.92216 0.25426 0.0
C1960 C 0.45353 0.93687 0.25651 0.0
C1961 C 0.46145 0.94765 0.21339 0.0
H1962 H 0.23955 0.37672 0.0898 0.0
H1963 H 0.24173 0.36556 0.91487 0.0
H1964 H 0.23073 0.33808 0.93995 0.0
H1965 H 0.24793 0.34845 0.15335 0.0
H1966 H 0.23415 0.34366 0.20955 0.0
H1967 H 0.24336 0.36268 0.17883 0.0
H1968 H 0.21652 0.35951 0.15698 0.0
H1969 H 0.20724 0.34046 0.18744 0.0
H1970 H 0.20277 0.34315 0.11626 0.0
H1971 H 0.21953 0.31193 0.98323 0.0
H1972 H 0.20713 0.28829 0.04151 0.0
H1973 H 0.2102 0.31579 0.18746 0.0
C1974 C 0.23791 0.36848 0.05715 0.0
C1975 C 0.24165 0.37321 0.00055 0.0
C1976 C 0.23899 0.36212 0.95852 0.0
C1977 C 0.23278 0.34651 0.97234 0.0
C1978 C 0.22904 0.34213 0.02832 0.0
C1979 C 0.23135 0.35272 0.07007 0.0
C1980 C 0.22533 0.3447 0.12624 0.0
C1981 C 0.23848 0.3502 0.16955 0.0
C1982 C 0.21219 0.3471 0.14799 0.0
C1983 C 0.21938 0.32802 0.10944 0.0
C1984 C 0.22181 0.32684 0.05288 0.0
C1985 C 0.21751 0.31268 0.02757 0.0
C1986 C 0.2105 0.29933 0.06097 0.0
C1987 C 0.20766 0.30022 0.1188 0.0
C1988 C 0.21215 0.31477 0.14321 0.0
H1989 H 0.69032 0.89439 0.19744 0.0
H1990 H 0.71847 0.92201 0.05733 0.0
H1991 H 0.69499 0.91277 -0.00081 0.0
H1992 H 0.66387 0.86194 0.11699 0.0
H1993 H 0.64719 0.85787 0.15864 0.0
H1994 H 0.66609 0.86726 0.19035 0.0
H1995 H 0.66223 0.88988 0.2222 0.0
H1996 H 0.64331 0.88057 0.19045 0.0
H1997 H 0.6574 0.90004 0.17069 0.0
H1998 H 0.66909 0.89911 0.95421 0.0
H1999 H 0.64198 0.88231 0.92516 0.0
H2000 H 0.62997 0.86429 0.095 0.0
C2001 C 0.69152 0.8986 0.15467 0.0
C2002 C 0.70623 0.90894 0.13184 0.0
C2003 C 0.70734 0.91413 0.07569 0.0
C2004 C 0.69406 0.90896 0.0424 0.0
C2005 C 0.67976 0.89871 0.06604 0.0
C2006 C 0.67837 0.89363 0.12094 0.0
C2007 C 0.66163 0.88223 0.13538 0.0
C2008 C 0.65958 0.86639 0.15126 0.0
C2009 C 0.6558 0.88857 0.18247 0.0
C2010 C 0.65386 0.88153 0.0797 0.0
C2011 C 0.6646 0.89114 0.04038 0.0
C2012 C 0.66054 0.89175 0.98481 0.0
C2013 C 0.64514 0.88216 0.96872 0.0
C2014 C 0.63393 0.87226 0.00812 0.0
C2015 C 0.63828 0.87209 0.06456 0.0
H2016 H 0.13599 0.76124 0.09093 0.0
H2017 H 0.10965 0.74764 0.93593 0.0
H2018 H 0.09323 0.7578 0.97147 0.0
H2019 H 0.10369 0.75492 0.18797 0.0
H2020 H 0.11614 0.77194 0.2284 0.0
H2021 H 0.12394 0.76113 0.19503 0.0
H2022 H 0.14426 0.786 0.14418 0.0
H2023 H 0.1364 0.79684 0.17657 0.0
H2024 H 0.13787 0.79657 0.101 0.0
H2025 H 0.08182 0.77213 0.01834 0.0
H2026 H 0.07559 0.789 0.07527 0.0
H2027 H 0.10985 0.79409 0.19882 0.0
C2028 C 0.1263 0.7598 0.06585 0.0
C2029 C 0.12366 0.75326 0.0116 0.0
C2030 C 0.11149 0.7523 0.97823 0.0
C2031 C 0.10218 0.75808 0.99796 0.0
C2032 C 0.10533 0.76495 0.05093 0.0
C2033 C 0.11703 0.76578 0.08465 0.0
C2034 C 0.11904 0.77521 0.13717 0.0
C2035 C 0.11549 0.7652 0.19029 0.0
C2036 C 0.13535 0.78949 0.13984 0.0
C2037 C 0.10685 0.77973 0.12714 0.0
C2038 C 0.099 0.77361 0.07738 0.0
C2039 C 0.08773 0.77681 0.05784 0.0
C2040 C 0.08431 0.78645 0.09026 0.0
C2041 C 0.09218 0.7928 0.14147 0.0
C2042 C 0.10355 0.78932 0.16003 0.0
H2043 H 0.30363 0.20678 0.41169 0.0
H2044 H 0.318 0.20862 0.23818 0.0
H2045 H 0.34527 0.22458 0.26655 0.0
H2046 H 0.33315 0.24548 0.45245 0.0
H2047 H 0.33594 0.23969 0.52132 0.0
H2048 H 0.3174 0.22916 0.48717 0.0
H2049 H 0.31814 0.20372 0.49778 0.0
H2050 H 0.33661 0.21416 0.53226 0.0
H2051 H 0.33445 0.20272 0.47069 0.0
H2052 H 0.37106 0.24038 0.31339 0.0
H2053 H 0.39362 0.25282 0.37738 0.0
H2054 H 0.36269 0.23949 0.52073 0.0
C2055 C 0.31254 0.21068 0.37977 0.0
C2056 C 0.30874 0.20659 0.32274 0.0
C2057 C 0.32069 0.21163 0.28216 0.0
C2058 C 0.33621 0.22077 0.29777 0.0
C2059 C 0.33963 0.22463 0.35428 0.0
C2060 C 0.32817 0.21959 0.39481 0.0
C2061 C 0.33507 0.22457 0.45306 0.0
C2062 C 0.33009 0.23537 0.48007 0.0
C2063 C 0.33082 0.21045 0.49064 0.0
C2064 C 0.35214 0.23316 0.43881 0.0
C2065 C 0.35453 0.23325 0.38153 0.0
C2066 C 0.36935 0.24043 0.35835 0.0
C2067 C 0.38208 0.24754 0.39487 0.0
C2068 C 0.37985 0.24715 0.45376 0.0
C2069 C 0.3647 0.23998 0.47577 0.0
H2070 H 0.76206 0.13064 0.3971 0.0
H2071 H 0.75652 0.11358 0.5682 0.0
H2072 H 0.76718 0.09697 0.54093 0.0
H2073 H 0.75432 0.09461 0.32418 0.0
H2074 H 0.76916 0.10491 0.27234 0.0
H2075 H 0.7591 0.11384 0.30332 0.0
H2076 H 0.78529 0.13717 0.33408 0.0
H2077 H 0.7954 0.12828 0.30361 0.0
H2078 H 0.79832 0.1339 0.37666 0.0
H2079 H 0.78022 0.08368 0.49732 0.0
H2080 H 0.79528 0.07512 0.44015 0.0
H2081 H 0.79345 0.10163 0.2986 0.0
C2082 C 0.76267 0.12303 0.42815 0.0
C2083 C 0.75822 0.12311 0.48443 0.0
C2084 C 0.75973 0.1135 0.52468 0.0
C2085 C 0.76575 0.10402 0.50962 0.0
C2086 C 0.7704 0.10442 0.45416 0.0
C2087 C 0.76897 0.11367 0.41398 0.0
C2088 C 0.77618 0.113 0.35876 0.0
C2089 C 0.76396 0.10618 0.31188 0.0
C2090 C 0.78959 0.12904 0.34234 0.0
C2091 C 0.78199 0.10208 0.37446 0.0
C2092 C 0.7784 0.09713 0.42948 0.0
C2093 C 0.78299 0.08736 0.45395 0.0
C2094 C 0.79154 0.08256 0.42127 0.0
C2095 C 0.7955 0.08767 0.36503 0.0
C2096 C 0.79055 0.09748 0.34148 0.0
H2097 H 0.91093 0.70721 0.41676 0.0
H2098 H 0.91618 0.69256 0.25059 0.0
H2099 H 0.90464 0.66565 0.28427 0.0
H2100 H 0.91744 0.67968 0.49966 0.0
H2101 H 0.90263 0.67637 0.55008 0.0
H2102 H 0.91309 0.69476 0.51489 0.0
H2103 H 0.88722 0.692 0.4803 0.0
H2104 H 0.87669 0.67357 0.51494 0.0
H2105 H 0.87399 0.67512 0.44069 0.0
H2106 H 0.89119 0.64022 0.33386 0.0
H2107 H 0.8761 0.61774 0.39602 0.0
H2108 H 0.8783 0.64859 0.52882 0.0
C2109 C 0.91006 0.69837 0.38819 0.0
C2110 C 0.91472 0.70189 0.33152 0.0
C2111 C 0.91284 0.69002 0.2944 0.0
C2112 C 0.90631 0.67474 0.31311 0.0
C2113 C 0.9015 0.6715 0.36891 0.0
C2114 C 0.90323 0.68295 0.40596 0.0
C2115 C 0.89583 0.67611 0.46227 0.0
C2116 C 0.90798 0.68208 0.50952 0.0
C2117 C 0.88266 0.67939 0.47528 0.0
C2118 C 0.88967 0.65909 0.45091 0.0
C2119 C 0.89318 0.6567 0.39697 0.0
C2120 C 0.88844 0.64193 0.37636 0.0
C2121 C 0.87987 0.62924 0.41188 0.0
C2122 C 0.87604 0.63141 0.46716 0.0
C2123 C 0.88107 0.64656 0.48677 0.0
H2124 H 0.79673 0.68964 0.80258 0.0
H2125 H 0.79667 0.71979 0.93391 0.0
H2126 H 0.78121 0.69702 0.99448 0.0
H2127 H 0.75764 0.65783 0.82615 0.0
H2128 H 0.76272 0.64319 0.81245 0.0
H2129 H 0.77321 0.66175 0.77845 0.0
H2130 H 0.79894 0.66524 0.81798 0.0
H2131 H 0.78855 0.64667 0.85179 0.0
H2132 H 0.80092 0.6636 0.89274 0.0
H2133 H 0.76756 0.67142 0.04284 0.0
H2134 H 0.75637 0.64453 0.0762 0.0
H2135 H 0.76417 0.63066 0.91229 0.0
C2136 C 0.79337 0.69146 0.84395 0.0
C2137 C 0.79787 0.70649 0.86361 0.0
C2138 C 0.79331 0.70838 0.91801 0.0
C2139 C 0.78452 0.69552 0.95261 0.0
C2140 C 0.7803 0.68087 0.93194 0.0
C2141 C 0.78455 0.67876 0.87886 0.0
C2142 C 0.77896 0.66183 0.8675 0.0
C2143 C 0.76745 0.6558 0.81821 0.0
C2144 C 0.79266 0.65919 0.8569 0.0
C2145 C 0.77103 0.65474 0.92281 0.0
C2146 C 0.77197 0.66597 0.95934 0.0
C2147 C 0.76652 0.66251 0.01435 0.0
C2148 C 0.76018 0.64723 0.03286 0.0
C2149 C 0.75914 0.63557 0.99634 0.0
C2150 C 0.7644 0.63931 0.94033 0.0
H2151 H 0.37326 0.13437 0.90428 0.0
H2152 H 0.36032 0.11269 0.06849 0.0
H2153 H 0.33329 0.09681 0.03679 0.0
H2154 H 0.3402 0.1379 0.88769 0.0
H2155 H 0.33816 0.13429 0.81297 0.0
H2156 H 0.35692 0.14247 0.84534 0.0
H2157 H 0.3603 0.12024 0.80522 0.0
H2158 H 0.34159 0.11207 0.7722 0.0
H2159 H 0.34578 0.10049 0.8193 0.0
H2160 H 0.30751 0.08466 0.99033 0.0
H2161 H 0.28439 0.07701 0.93165 0.0
H2162 H 0.31351 0.10732 0.79841 0.0
C2163 C 0.36478 0.12589 0.93267 0.0
C2164 C 0.36882 0.1244 0.98831 0.0
C2165 C 0.35739 0.11374 0.0254 0.0
C2166 C 0.34203 0.10471 0.00782 0.0
C2167 C 0.33826 0.10664 0.95317 0.0
C2168 C 0.34926 0.11695 0.91603 0.0
C2169 C 0.3418 0.11771 0.86135 0.0
C2170 C 0.34443 0.13406 0.85127 0.0
C2171 C 0.34772 0.1123 0.81157 0.0
C2172 C 0.32495 0.1063 0.87384 0.0
C2173 C 0.3232 0.09998 0.92688 0.0
C2174 C 0.30872 0.08944 0.94851 0.0
C2175 C 0.29565 0.08518 0.91494 0.0
C2176 C 0.29714 0.09154 0.8605 0.0
C2177 C 0.31201 0.10223 0.83982 0.0
H2178 H 0.90685 0.20371 0.91841 0.0
H2179 H 0.91726 0.22564 0.7545 0.0
H2180 H 0.90599 0.24164 0.78358 0.0
H2181 H 0.87022 0.20032 0.92848 0.0
H2182 H 0.87096 0.20362 0.00329 0.0
H2183 H 0.8818 0.19547 0.97297 0.0
H2184 H 0.90701 0.21743 0.01679 0.0
H2185 H 0.89621 0.22556 0.04776 0.0
H2186 H 0.91253 0.23727 0.00308 0.0
H2187 H 0.89188 0.25384 0.8277 0.0
H2188 H 0.87573 0.26121 0.88389 0.0
H2189 H 0.8734 0.2305 0.01757 0.0
C2190 C 0.90721 0.21229 0.8896 0.0
C2191 C 0.91327 0.21384 0.83485 0.0
C2192 C 0.91291 0.22458 0.79702 0.0
C2193 C 0.90652 0.23368 0.81311 0.0
C2194 C 0.90029 0.23169 0.86695 0.0
C2195 C 0.90055 0.22125 0.90468 0.0
C2196 C 0.89177 0.22032 0.95791 0.0
C2197 C 0.87787 0.20397 0.96611 0.0
C2198 C 0.90253 0.22546 0.00943 0.0
C2199 C 0.88658 0.23184 0.94416 0.0
C2200 C 0.89168 0.23833 0.89164 0.0
C2201 C 0.88792 0.24893 0.86912 0.0
C2202 C 0.87872 0.25303 0.90122 0.0
C2203 C 0.87333 0.24647 0.95505 0.0
C2204 C 0.87739 0.23578 0.97662 0.0
H2205 H 0.69148 0.79173 0.69672 0.0
H2206 H 0.71961 0.79498 0.5525 0.0
H2207 H 0.69601 0.78097 0.49466 0.0
H2208 H 0.65906 0.75308 0.66522 0.0
H2209 H 0.64475 0.75773 0.68893 0.0
H2210 H 0.66375 0.76723 0.71998 0.0
H2211 H 0.66691 0.79389 0.69499 0.0
H2212 H 0.64793 0.78449 0.66398 0.0
H2213 H 0.66439 0.79797 0.62306 0.0
H2214 H 0.66993 0.76877 0.45096 0.0
H2215 H 0.64271 0.75843 0.42377 0.0
H2216 H 0.63095 0.76186 0.59684 0.0
C2217 C 0.69266 0.78935 0.6531 0.0
C2218 C 0.70737 0.79442 0.629 0.0
C2219 C 0.70846 0.79115 0.5718 0.0
C2220 C 0.69512 0.78319 0.53869 0.0
C2221 C 0.68081 0.77846 0.56363 0.0
C2222 C 0.67946 0.78132 0.61958 0.0
C2223 C 0.66271 0.77543 0.63546 0.0
C2224 C 0.65725 0.7626 0.68004 0.0
C2225 C 0.66035 0.78874 0.65554 0.0
C2226 C 0.65487 0.76907 0.57932 0.0
C2227 C 0.66558 0.77095 0.53859 0.0
C2228 C 0.66142 0.76701 0.4826 0.0
C2229 C 0.64595 0.76119 0.46759 0.0
C2230 C 0.63478 0.75918 0.50841 0.0
C2231 C 0.63923 0.76294 0.56519 0.0
H2232 H 0.20936 0.91109 0.57886 0.0
H2233 H 0.22618 0.91359 0.74895 0.0
H2234 H 0.24352 0.90434 0.71571 0.0
H2235 H 0.20715 0.87597 0.54665 0.0
H2236 H 0.21288 0.88044 0.47401 0.0
H2237 H 0.20358 0.88955 0.50906 0.0
H2238 H 0.22662 0.91652 0.48386 0.0
H2239 H 0.23597 0.90747 0.44843 0.0
H2240 H 0.24594 0.92132 0.50365 0.0
H2241 H 0.25731 0.89272 0.6662 0.0
H2242 H 0.2659 0.87865 0.60381 0.0
H2243 H 0.23941 0.88267 0.46663 0.0
C2244 C 0.21707 0.91013 0.60853 0.0
C2245 C 0.2167 0.91328 0.66619 0.0
C2246 C 0.22646 0.91135 0.70446 0.0
C2247 C 0.23636 0.90615 0.68599 0.0
C2248 C 0.23625 0.90277 0.62912 0.0
C2249 C 0.22685 0.90465 0.59088 0.0
C2250 C 0.2278 0.89865 0.53333 0.0
C2251 C 0.21191 0.88537 0.5147 0.0
C2252 C 0.23448 0.91178 0.48975 0.0
C2253 C 0.23897 0.89292 0.54556 0.0
C2254 C 0.24387 0.89559 0.60085 0.0
C2255 C 0.2537 0.89071 0.62258 0.0
C2256 C 0.25852 0.88274 0.58692 0.0
C2257 C 0.25337 0.87961 0.53046 0.0
C2258 C 0.24362 0.88496 0.50956 0.0
H2259 H 0.14643 0.37244 0.59645 0.0
H2260 H 0.12307 0.36473 0.43591 0.0
H2261 H 0.10513 0.33756 0.46208 0.0
H2262 H 0.1447 0.33568 0.5988 0.0
H2263 H 0.14194 0.33307 0.67383 0.0
H2264 H 0.15225 0.35226 0.6446 0.0
H2265 H 0.13334 0.35912 0.69382 0.0
H2266 H 0.12301 0.33997 0.72336 0.0
H2267 H 0.11286 0.3472 0.68193 0.0
H2268 H 0.09015 0.31125 0.50417 0.0
H2269 H 0.07954 0.287 0.55856 0.0
H2270 H 0.11323 0.31117 0.69048 0.0
C2271 C 0.13737 0.36502 0.56744 0.0
C2272 C 0.1359 0.37057 0.51455 0.0
C2273 C 0.12423 0.36057 0.47675 0.0
C2274 C 0.114 0.34517 0.49125 0.0
C2275 C 0.11578 0.33991 0.54343 0.0
C2276 C 0.12722 0.34945 0.58087 0.0
C2277 C 0.12715 0.34054 0.63267 0.0
C2278 C 0.14242 0.34038 0.63775 0.0
C2279 C 0.12389 0.3471 0.6861 0.0
C2280 C 0.11379 0.3246 0.61868 0.0
C2281 C 0.10739 0.32453 0.56708 0.0
C2282 C 0.09504 0.31115 0.54472 0.0
C2283 C 0.08909 0.29743 0.57588 0.0
C2284 C 0.09553 0.29719 0.62869 0.0
C2285 C 0.10803 0.31099 0.65027 0.0
H2286 H 0.02857 0.56469 0.86298 0.0
H2287 H 0.05569 0.59763 0.73268 0.0
H2288 H 0.03169 0.59117 0.68127 0.0
H2289 H 1.00101 0.53608 0.77133 0.0
H2290 H 0.98489 0.5303 0.8184 0.0
H2291 H 0.00412 0.5382 0.84635 0.0
H2292 H 1.00099 0.55915 0.89914 0.0
H2293 H 0.98178 0.55139 0.87083 0.0
H2294 H 0.99592 0.57146 0.86019 0.0
H2295 H 0.00517 0.57993 0.64098 0.0
H2296 H 0.97782 0.56401 0.61261 0.0
H2297 H 0.96753 0.53883 0.76989 0.0
C2298 C 0.02946 0.57063 0.82383 0.0
C2299 C 0.04401 0.58172 0.80186 0.0
C2300 C 0.04468 0.58913 0.75032 0.0
C2301 C 0.03111 0.58558 0.72097 0.0
C2302 C 0.01696 0.57464 0.74386 0.0
C2303 C 0.01602 0.56723 0.79402 0.0
C2304 C 0.9994 0.55537 0.80798 0.0
C2305 C 0.99723 0.53903 0.81118 0.0
C2306 C 0.99422 0.5596 0.8628 0.0
C2307 C 0.99113 0.55712 0.75739 0.0
C2308 C 1.00152 0.56837 0.72112 0.0
C2309 C 0.9969 0.57132 0.6695 0.0
C2310 C 0.98136 0.56229 0.65386 0.0
C2311 C 0.9706 0.55061 0.68992 0.0
C2312 C 0.97546 0.54815 0.74275 0.0
H2313 H 0.42637 0.46445 0.7606 0.0
H2314 H 0.41481 0.43865 0.91669 0.0
H2315 H 0.42431 0.42199 0.87797 0.0
H2316 H 0.41864 0.4318 0.66287 0.0
H2317 H 0.43516 0.44407 0.61984 0.0
H2318 H 0.42483 0.45203 0.65576 0.0
H2319 H 0.45035 0.47245 0.70292 0.0
H2320 H 0.46071 0.46445 0.66784 0.0
H2321 H 0.46143 0.46614 0.74347 0.0
H2322 H 0.43792 0.41037 0.8276 0.0
H2323 H 0.45442 0.40427 0.76791 0.0
H2324 H 0.45792 0.43808 0.64528 0.0
C2325 C 0.42523 0.45483 0.78537 0.0
C2326 C 0.41946 0.45242 0.84082 0.0
C2327 C 0.41888 0.44034 0.87357 0.0
C2328 C 0.42427 0.43087 0.852 0.0
C2329 C 0.43038 0.43379 0.79778 0.0
C2330 C 0.43084 0.44543 0.7647 0.0
C2331 C 0.43958 0.44725 0.71048 0.0
C2332 C 0.42891 0.44356 0.6592 0.0
C2333 C 0.45386 0.46353 0.70596 0.0
C2334 C 0.44418 0.43505 0.71886 0.0
C2335 C 0.43864 0.42733 0.76922 0.0
C2336 C 0.44213 0.41617 0.78761 0.0
C2337 C 0.45155 0.4128 0.75358 0.0
C2338 C 0.4574 0.42063 0.70194 0.0
C2339 C 0.45352 0.43179 0.68434 0.0
H2340 H 0.53948 0.96201 0.7342 0.0
H2341 H 0.56718 0.97593 0.88602 0.0
H2342 H 0.583 0.00234 0.84808 0.0
H2343 H 0.57077 0.98785 0.63306 0.0
H2344 H 0.55775 0.99192 0.59399 0.0
H2345 H 0.55056 0.97352 0.62843 0.0
H2346 H 0.5304 0.97785 0.68142 0.0
H2347 H 0.53766 0.99635 0.64802 0.0
H2348 H 0.53687 0.99496 0.72373 0.0
H2349 H 0.59357 0.02776 0.79969 0.0
H2350 H 0.59884 0.05049 0.74208 0.0
H2351 H 0.56374 0.02037 0.62271 0.0
C2352 C 0.54934 0.97048 0.758 0.0
C2353 C 0.55254 0.96696 0.81207 0.0
C2354 C 0.56492 0.97844 0.84384 0.0
C2355 C 0.57389 0.99344 0.82274 0.0
C2356 C 0.57018 0.99679 0.77005 0.0
C2357 C 0.55827 0.98563 0.73784 0.0
C2358 C 0.55562 0.99267 0.68549 0.0
C2359 C 0.55887 0.9861 0.63208 0.0
C2360 C 0.53917 0.99032 0.68466 0.0
C2361 C 0.56768 0.00951 0.69397 0.0
C2362 C 0.57603 0.01162 0.74275 0.0
C2363 C 0.58728 0.02625 0.76093 0.0
C2364 C 0.59014 0.03909 0.72813 0.0
C2365 C 0.58175 0.03719 0.67792 0.0
C2366 C 0.57043 0.02218 0.66071 0.0
H2367 H 0.46593 0.03928 0.24165 0.0
H2368 H 0.44468 0.02452 0.07737 0.0
H2369 H 0.42818 0.99803 0.11334 0.0
H2370 H 0.46878 0.00637 0.26663 0.0
H2371 H 0.46504 0.00531 0.34119 0.0
H2372 H 0.47346 0.02364 0.30559 0.0
H2373 H 0.45132 0.02777 0.34168 0.0
H2374 H 0.44289 0.00948 0.37781 0.0
H2375 H 0.43153 0.01325 0.32813 0.0
H2376 H 0.41568 0.97277 0.1641 0.0
H2377 H 0.40842 0.95031 0.22625 0.0
H2378 H 0.43848 0.98112 0.35661 0.0
C2379 C 0.45741 0.03054 0.21406 0.0
C2380 C 0.45625 0.0339 0.15721 0.0
C2381 C 0.44551 0.02212 0.12133 0.0
C2382 C 0.4361 0.00707 0.14136 0.0
C2383 C 0.43772 0.00395 0.19726 0.0
C2384 C 0.44811 0.01533 0.23319 0.0
C2385 C 0.44868 0.00854 0.28959 0.0
C2386 C 0.46495 0.01112 0.30141 0.0
C2387 C 0.44328 0.01516 0.33711 0.0
C2388 C 0.43715 0.99161 0.27938 0.0
C2389 C 0.43084 0.98924 0.22609 0.0
C2390 C 0.42041 0.97449 0.20621 0.0
C2391 C 0.41635 0.9618 0.24171 0.0
C2392 C 0.42284 0.96397 0.2962 0.0
C2393 C 0.43325 0.9791 0.31525 0.0
H2394 H 0.01972 0.46655 0.35671 0.0
H2395 H 0.04125 0.44533 0.26147 0.0
H2396 H 0.01601 0.42718 0.21885 0.0
H2397 H 0.98269 0.43176 0.38277 0.0
H2398 H 0.97169 0.44138 0.37263 0.0
H2399 H 0.99119 0.45202 0.39895 0.0
H2400 H 0.99857 0.47179 0.31777 0.0
H2401 H 0.97907 0.46127 0.29165 0.0
H2402 H 0.99497 0.46503 0.24598 0.0
H2403 H 0.98902 0.41236 0.18289 0.0
H2404 H 0.96244 0.40343 0.14925 0.0
H2405 H 0.95815 0.43393 0.26784 0.0
C2406 C 0.01908 0.458 0.3272 0.0
C2407 C 0.0324 0.45726 0.31256 0.0
C2408 C 0.03118 0.44609 0.27318 0.0
C2409 C 0.01688 0.43566 0.24913 0.0
C2410 C 0.00394 0.4366 0.26479 0.0
C2411 C 0.00491 0.44759 0.30241 0.0
C2412 C 0.98947 0.44688 0.30875 0.0
C2413 C 0.9834 0.44276 0.36939 0.0
C2414 C 0.99059 0.46215 0.28989 0.0
C2415 C 0.9797 0.43383 0.26847 0.0
C2416 C 0.98825 0.42797 0.24403 0.0
C2417 C 0.98212 0.41665 0.20242 0.0
C2418 C 0.96701 0.41156 0.18388 0.0
C2419 C 0.95825 0.4177 0.20729 0.0
C2420 C 0.96451 0.42872 0.25085 0.0
H2421 H 0.56751 0.5486 0.14336 0.0
H2422 H 0.60138 0.55278 0.26707 0.0
H2423 H 0.59458 0.56879 0.32662 0.0
H2424 H 0.57253 0.58749 0.16197 0.0
H2425 H 0.55217 0.58057 0.15373 0.0
H2426 H 0.56091 0.57096 0.118 0.0
H2427 H 0.54104 0.54499 0.16402 0.0
H2428 H 0.53225 0.55453 0.19951 0.0
H2429 H 0.53906 0.5438 0.23958 0.0
H2430 H 0.58207 0.58152 0.37705 0.0
H2431 H 0.5645 0.58986 0.41586 0.0
H2432 H 0.53915 0.57812 0.25868 0.0
C2433 C 0.57369 0.55308 0.18257 0.0
C2434 C 0.58503 0.5495 0.20062 0.0
C2435 C 0.59271 0.55544 0.25242 0.0
C2436 C 0.58896 0.56458 0.28635 0.0
C2437 C 0.57758 0.56773 0.2676 0.0
C2438 C 0.57007 0.56218 0.21688 0.0
C2439 C 0.55745 0.5662 0.20842 0.0
C2440 C 0.56098 0.57695 0.1575 0.0
C2441 C 0.54151 0.5515 0.20257 0.0
C2442 C 0.55875 0.57456 0.26306 0.0
C2443 C 0.57055 0.57542 0.29634 0.0
C2444 C 0.57307 0.58126 0.35091 0.0
C2445 C 0.56308 0.58599 0.37254 0.0
C2446 C 0.55086 0.58502 0.3395 0.0
C2447 C 0.54884 0.57955 0.28372 0.0
loop_
_geom_bond_atom_site_label_1
_geom_bond_atom_site_label_2
_geom_bond_distance
_geom_bond_site_symmetry_2
_ccdc_geom_bond_type
Co0 O1 2.216 . S
Co0 O2 2.091 . S
Co0 O4 2.004 . S
Co0 O10 2.021 . S
Co0 O12 2.137 . S
Co0 O13 2.244 . S
O1 Co0 2.216 . S
O1 C8 1.247 . S
O2 Co0 2.091 . S
O2 C8 1.261 . S
C3 O12 1.247 . S
C3 O13 1.272 . S
O4 Co0 2.004 . S
O4 C9 1.259 . S
Co5 O6 2.061 . S
Co5 O11 2.052 . S
Co5 O13 2.135 . S
O6 Co5 2.061 . S
O6 C9 1.235 . S
C7 O10 1.238 . S
C7 O11 1.241 . S
C8 O1 1.247 . S
C8 O2 1.261 . S
C9 O4 1.259 . S
C9 O6 1.235 . S
O10 Co0 2.021 . S
O10 C7 1.238 . S
O11 Co5 2.052 . S
O11 C7 1.241 . S
O12 Co0 2.137 . S
O12 C3 1.247 . S
O13 Co0 2.244 . S
O13 C3 1.272 . S
O13 Co5 2.135 . S
Co14 O15 2.216 . S
Co14 O16 2.091 . S
Co14 O18 2.004 . S
Co14 O24 2.021 . S
Co14 O26 2.137 . S
Co14 O27 2.244 . S
O15 Co14 2.216 . S
O15 C22 1.247 . S
O16 Co14 2.091 . S
O16 C22 1.261 . S
C17 O26 1.247 . S
C17 O27 1.272 . S
O18 Co14 2.004 . S
O18 C23 1.259 . S
Co19 O20 2.061 . S
Co19 O25 2.052 . S
Co19 O27 2.135 . S
O20 Co19 2.061 . S
O20 C23 1.235 . S
C21 O24 1.238 . S
C21 O25 1.241 . S
C22 O15 1.247 . S
C22 O16 1.261 . S
C23 O18 1.259 . S
C23 O20 1.235 . S
O24 Co14 2.021 . S
O24 C21 1.238 . S
O25 Co19 2.052 . S
O25 C21 1.241 . S
O26 Co14 2.137 . S
O26 C17 1.247 . S
O27 Co14 2.244 . S
O27 C17 1.272 . S
O27 Co19 2.135 . S
Co28 O29 2.216 . S
Co28 O30 2.091 . S
Co28 O32 2.004 . S
Co28 O38 2.021 . S
Co28 O40 2.137 . S
Co28 O41 2.244 . S
O29 Co28 2.216 . S
O29 C36 1.247 . S
O30 Co28 2.091 . S
O30 C36 1.261 . S
C31 O40 1.247 . S
C31 O41 1.272 . S
O32 Co28 2.004 . S
O32 C37 1.259 . S
Co33 O34 2.061 . S
Co33 O39 2.052 . S
Co33 O41 2.135 . S
O34 Co33 2.061 . S
O34 C37 1.235 . S
C35 O38 1.238 . S
C35 O39 1.241 . S
C36 O29 1.247 . S
C36 O30 1.261 . S
C37 O32 1.259 . S
C37 O34 1.235 . S
O38 Co28 2.021 . S
O38 C35 1.238 . S
O39 Co33 2.052 . S
O39 C35 1.241 . S
O40 Co28 2.137 . S
O40 C31 1.247 . S
O41 Co28 2.244 . S
O41 C31 1.272 . S
O41 Co33 2.135 . S
Co42 O43 2.216 . S
Co42 O44 2.091 . S
Co42 O46 2.004 . S
Co42 O52 2.021 . S
Co42 O54 2.137 . S
Co42 O55 2.244 . S
O43 Co42 2.216 . S
O43 C50 1.247 . S
O44 Co42 2.091 . S
O44 C50 1.261 . S
C45 O54 1.247 . S
C45 O55 1.272 . S
O46 Co42 2.004 . S
O46 C51 1.259 . S
Co47 O48 2.061 . S
Co47 O53 2.052 . S
Co47 O55 2.135 . S
O48 Co47 2.061 . S
O48 C51 1.235 . S
C49 O52 1.238 . S
C49 O53 1.241 . S
C50 O43 1.247 . S
C50 O44 1.261 . S
C51 O46 1.259 . S
C51 O48 1.235 . S
O52 Co42 2.021 . S
O52 C49 1.238 . S
O53 Co47 2.052 . S
O53 C49 1.241 . S
O54 Co42 2.137 . S
O54 C45 1.247 . S
O55 Co42 2.244 . S
O55 C45 1.272 . S
O55 Co47 2.135 . S
Co56 O57 2.216 . S
Co56 O58 2.091 . S
Co56 O60 2.004 . S
Co56 O66 2.021 . S
Co56 O68 2.137 . S
Co56 O69 2.244 . S
O57 Co56 2.216 . S
O57 C64 1.247 . S
O58 Co56 2.091 . S
O58 C64 1.261 . S
C59 O68 1.247 . S
C59 O69 1.272 . S
O60 Co56 2.004 . S
O60 C65 1.259 . S
Co61 O62 2.061 . S
Co61 O67 2.052 . S
Co61 O69 2.135 . S
O62 Co61 2.061 . S
O62 C65 1.235 . S
C63 O66 1.238 . S
C63 O67 1.241 . S
C64 O57 1.247 . S
C64 O58 1.261 . S
C65 O60 1.259 . S
C65 O62 1.235 . S
O66 Co56 2.021 . S
O66 C63 1.238 . S
O67 Co61 2.052 . S
O67 C63 1.241 . S
O68 Co56 2.137 . S
O68 C59 1.247 . S
O69 Co56 2.244 . S
O69 C59 1.272 . S
O69 Co61 2.135 . S
Co70 O71 2.216 . S
Co70 O72 2.091 . S
Co70 O74 2.004 . S
Co70 O80 2.021 . S
Co70 O82 2.137 . S
Co70 O83 2.244 . S
O71 Co70 2.216 . S
O71 C78 1.247 . S
O72 Co70 2.091 . S
O72 C78 1.261 . S
C73 O82 1.247 . S
C73 O83 1.272 . S
O74 Co70 2.004 . S
O74 C79 1.259 . S
Co75 O76 2.061 . S
Co75 O81 2.052 . S
Co75 O83 2.135 . S
O76 Co75 2.061 . S
O76 C79 1.235 . S
C77 O80 1.238 . S
C77 O81 1.241 . S
C78 O71 1.247 . S
C78 O72 1.261 . S
C79 O74 1.259 . S
C79 O76 1.235 . S
O80 Co70 2.021 . S
O80 C77 1.238 . S
O81 Co75 2.052 . S
O81 C77 1.241 . S
O82 Co70 2.137 . S
O82 C73 1.247 . S
O83 Co70 2.244 . S
O83 C73 1.272 . S
O83 Co75 2.135 . S
Co84 O85 2.216 . S
Co84 O86 2.091 . S
Co84 O88 2.004 . S
Co84 O94 2.021 . S
Co84 O96 2.137 . S
Co84 O97 2.244 . S
O85 Co84 2.216 . S
O85 C92 1.247 . S
O86 Co84 2.091 . S
O86 C92 1.261 . S
C87 O96 1.247 . S
C87 O97 1.272 . S
O88 Co84 2.004 . S
O88 C93 1.259 . S
Co89 O90 2.061 . S
Co89 O95 2.052 . S
Co89 O97 2.135 . S
O90 Co89 2.061 . S
O90 C93 1.235 . S
C91 O94 1.238 . S
C91 O95 1.241 . S
C92 O85 1.247 . S
C92 O86 1.261 . S
C93 O88 1.259 . S
C93 O90 1.235 . S
O94 Co84 2.021 . S
O94 C91 1.238 . S
O95 Co89 2.052 . S
O95 C91 1.241 . S
O96 Co84 2.137 . S
O96 C87 1.247 . S
O97 Co84 2.244 . S
O97 C87 1.272 . S
O97 Co89 2.135 . S
Co98 O99 2.216 . S
Co98 O100 2.091 . S
Co98 O102 2.004 . S
Co98 O108 2.021 . S
Co98 O110 2.137 . S
Co98 O111 2.244 . S
O99 Co98 2.216 . S
O99 C106 1.247 . S
O100 Co98 2.091 . S
O100 C106 1.261 . S
C101 O110 1.247 . S
C101 O111 1.272 . S
O102 Co98 2.004 . S
O102 C107 1.259 . S
Co103 O104 2.061 . S
Co103 O109 2.052 . S
Co103 O111 2.135 . S
O104 Co103 2.061 . S
O104 C107 1.235 . S
C105 O108 1.238 . S
C105 O109 1.241 . S
C106 O99 1.247 . S
C106 O100 1.261 . S
C107 O102 1.259 . S
C107 O104 1.235 . S
O108 Co98 2.021 . S
O108 C105 1.238 . S
O109 Co103 2.052 . S
O109 C105 1.241 . S
O110 Co98 2.137 . S
O110 C101 1.247 . S
O111 Co98 2.244 . S
O111 C101 1.272 . S
O111 Co103 2.135 . S
Co112 O113 2.216 . S
Co112 O114 2.091 . S
Co112 O116 2.004 . S
Co112 O122 2.021 . S
Co112 O124 2.137 . S
Co112 O125 2.244 . S
O113 Co112 2.216 . S
O113 C120 1.247 . S
O114 Co112 2.091 . S
O114 C120 1.261 . S
C115 O124 1.247 . S
C115 O125 1.272 . S
O116 Co112 2.004 . S
O116 C121 1.259 . S
Co117 O118 2.061 . S
Co117 O123 2.052 . S
Co117 O125 2.135 . S
O118 Co117 2.061 . S
O118 C121 1.235 . S
C119 O122 1.238 . S
C119 O123 1.241 . S
C120 O113 1.247 . S
C120 O114 1.261 . S
C121 O116 1.259 . S
C121 O118 1.235 . S
O122 Co112 2.021 . S
O122 C119 1.238 . S
O123 Co117 2.052 . S
O123 C119 1.241 . S
O124 Co112 2.137 . S
O124 C115 1.247 . S
O125 Co112 2.244 . S
O125 C115 1.272 . S
O125 Co117 2.135 . S
Co126 O127 2.216 . S
Co126 O128 2.091 . S
Co126 O130 2.004 . S
Co126 O136 2.021 . S
Co126 O138 2.137 . S
Co126 O139 2.244 . S
O127 Co126 2.216 . S
O127 C134 1.247 . S
O128 Co126 2.091 . S
O128 C134 1.261 . S
C129 O138 1.247 . S
C129 O139 1.272 . S
O130 Co126 2.004 . S
O130 C135 1.259 . S
Co131 O132 2.061 . S
Co131 O137 2.052 . S
Co131 O139 2.135 . S
O132 Co131 2.061 . S
O132 C135 1.235 . S
C133 O136 1.238 . S
C133 O137 1.241 . S
C134 O127 1.247 . S
C134 O128 1.261 . S
C135 O130 1.259 . S
C135 O132 1.235 . S
O136 Co126 2.021 . S
O136 C133 1.238 . S
O137 Co131 2.052 . S
O137 C133 1.241 . S
O138 Co126 2.137 . S
O138 C129 1.247 . S
O139 Co126 2.244 . S
O139 C129 1.272 . S
O139 Co131 2.135 . S
Co140 O141 2.216 . S
Co140 O142 2.091 . S
Co140 O144 2.004 . S
Co140 O150 2.021 . S
Co140 O152 2.137 . S
Co140 O153 2.244 . S
O141 Co140 2.216 . S
O141 C148 1.247 . S
O142 Co140 2.091 . S
O142 C148 1.261 . S
C143 O152 1.247 . S
C143 O153 1.272 . S
O144 Co140 2.004 . S
O144 C149 1.259 . S
Co145 O146 2.061 . S
Co145 O151 2.052 . S
Co145 O153 2.135 . S
O146 Co145 2.061 . S
O146 C149 1.235 . S
C147 O150 1.238 . S
C147 O151 1.241 . S
C148 O141 1.247 . S
C148 O142 1.261 . S
C149 O144 1.259 . S
C149 O146 1.235 . S
O150 Co140 2.021 . S
O150 C147 1.238 . S
O151 Co145 2.052 . S
O151 C147 1.241 . S
O152 Co140 2.137 . S
O152 C143 1.247 . S
O153 Co140 2.244 . S
O153 C143 1.272 . S
O153 Co145 2.135 . S
Co154 O155 2.216 . S
Co154 O156 2.091 . S
Co154 O158 2.004 . S
Co154 O164 2.021 . S
Co154 O166 2.137 . S
Co154 O167 2.244 . S
O155 Co154 2.216 . S
O155 C162 1.247 . S
O156 Co154 2.091 . S
O156 C162 1.261 . S
C157 O166 1.247 . S
C157 O167 1.272 . S
O158 Co154 2.004 . S
O158 C163 1.259 . S
Co159 O160 2.061 . S
Co159 O165 2.052 . S
Co159 O167 2.135 . S
O160 Co159 2.061 . S
O160 C163 1.235 . S
C161 O164 1.238 . S
C161 O165 1.241 . S
C162 O155 1.247 . S
C162 O156 1.261 . S
C163 O158 1.259 . S
C163 O160 1.235 . S
O164 Co154 2.021 . S
O164 C161 1.238 . S
O165 Co159 2.052 . S
O165 C161 1.241 . S
O166 Co154 2.137 . S
O166 C157 1.247 . S
O167 Co154 2.244 . S
O167 C157 1.272 . S
O167 Co159 2.135 . S
Co168 O169 2.216 . S
Co168 O170 2.091 . S
Co168 O172 2.004 . S
Co168 O178 2.021 . S
Co168 O180 2.137 . S
Co168 O181 2.244 . S
O169 Co168 2.216 . S
O169 C176 1.247 . S
O170 Co168 2.091 . S
O170 C176 1.261 . S
C171 O180 1.247 . S
C171 O181 1.272 . S
O172 Co168 2.004 . S
O172 C177 1.259 . S
Co173 O174 2.061 . S
Co173 O179 2.052 . S
Co173 O181 2.135 . S
O174 Co173 2.061 . S
O174 C177 1.235 . S
C175 O178 1.238 . S
C175 O179 1.241 . S
C176 O169 1.247 . S
C176 O170 1.261 . S
C177 O172 1.259 . S
C177 O174 1.235 . S
O178 Co168 2.021 . S
O178 C175 1.238 . S
O179 Co173 2.052 . S
O179 C175 1.241 . S
O180 Co168 2.137 . S
O180 C171 1.247 . S
O181 Co168 2.244 . S
O181 C171 1.272 . S
O181 Co173 2.135 . S
Co182 O183 2.216 . S
Co182 O184 2.091 . S
Co182 O186 2.004 . S
Co182 O192 2.021 . S
Co182 O194 2.137 . S
Co182 O195 2.244 . S
O183 Co182 2.216 . S
O183 C190 1.247 . S
O184 Co182 2.091 . S
O184 C190 1.261 . S
C185 O194 1.247 . S
C185 O195 1.272 . S
O186 Co182 2.004 . S
O186 C191 1.259 . S
Co187 O188 2.061 . S
Co187 O193 2.052 . S
Co187 O195 2.135 . S
O188 Co187 2.061 . S
O188 C191 1.235 . S
C189 O192 1.238 . S
C189 O193 1.241 . S
C190 O183 1.247 . S
C190 O184 1.261 . S
C191 O186 1.259 . S
C191 O188 1.235 . S
O192 Co182 2.021 . S
O192 C189 1.238 . S
O193 Co187 2.052 . S
O193 C189 1.241 . S
O194 Co182 2.137 . S
O194 C185 1.247 . S
O195 Co182 2.244 . S
O195 C185 1.272 . S
O195 Co187 2.135 . S
Co196 O197 2.216 . S
Co196 O198 2.091 . S
Co196 O200 2.004 . S
Co196 O206 2.021 . S
Co196 O208 2.137 . S
Co196 O209 2.244 . S
O197 Co196 2.216 . S
O197 C204 1.247 . S
O198 Co196 2.091 . S
O198 C204 1.261 . S
C199 O208 1.247 . S
C199 O209 1.272 . S
O200 Co196 2.004 . S
O200 C205 1.259 . S
Co201 O202 2.061 . S
Co201 O207 2.052 . S
Co201 O209 2.135 . S
O202 Co201 2.061 . S
O202 C205 1.235 . S
C203 O206 1.238 . S
C203 O207 1.241 . S
C204 O197 1.247 . S
C204 O198 1.261 . S
C205 O200 1.259 . S
C205 O202 1.235 . S
O206 Co196 2.021 . S
O206 C203 1.238 . S
O207 Co201 2.052 . S
O207 C203 1.241 . S
O208 Co196 2.137 . S
O208 C199 1.247 . S
O209 Co196 2.244 . S
O209 C199 1.272 . S
O209 Co201 2.135 . S
Co210 O211 2.216 . S
Co210 O212 2.091 . S
Co210 O214 2.004 . S
Co210 O220 2.021 . S
Co210 O222 2.137 . S
Co210 O223 2.244 . S
O211 Co210 2.216 . S
O211 C218 1.247 . S
O212 Co210 2.091 . S
O212 C218 1.261 . S
C213 O222 1.247 . S
C213 O223 1.272 . S
O214 Co210 2.004 . S
O214 C219 1.259 . S
Co215 O216 2.061 . S
Co215 O221 2.052 . S
Co215 O223 2.135 . S
O216 Co215 2.061 . S
O216 C219 1.235 . S
C217 O220 1.238 . S
C217 O221 1.241 . S
C218 O211 1.247 . S
C218 O212 1.261 . S
C219 O214 1.259 . S
C219 O216 1.235 . S
O220 Co210 2.021 . S
O220 C217 1.238 . S
O221 Co215 2.052 . S
O221 C217 1.241 . S
O222 Co210 2.137 . S
O222 C213 1.247 . S
O223 Co210 2.244 . S
O223 C213 1.272 . S
O223 Co215 2.135 . S
Co224 O225 2.216 . S
Co224 O226 2.091 . S
Co224 O228 2.004 . S
Co224 O234 2.021 . S
Co224 O236 2.137 . S
Co224 O237 2.244 . S
O225 Co224 2.216 . S
O225 C232 1.247 . S
O226 Co224 2.091 . S
O226 C232 1.261 . S
C227 O236 1.247 . S
C227 O237 1.272 . S
O228 Co224 2.004 . S
O228 C233 1.259 . S
Co229 O230 2.061 . S
Co229 O235 2.052 . S
Co229 O237 2.135 . S
O230 Co229 2.061 . S
O230 C233 1.235 . S
C231 O234 1.238 . S
C231 O235 1.241 . S
C232 O225 1.247 . S
C232 O226 1.261 . S
C233 O228 1.259 . S
C233 O230 1.235 . S
O234 Co224 2.021 . S
O234 C231 1.238 . S
O235 Co229 2.052 . S
O235 C231 1.241 . S
O236 Co224 2.137 . S
O236 C227 1.247 . S
O237 Co224 2.244 . S
O237 C227 1.272 . S
O237 Co229 2.135 . S
Co238 O239 2.216 . S
Co238 O240 2.091 . S
Co238 O242 2.004 . S
Co238 O248 2.021 . S
Co238 O250 2.137 . S
Co238 O251 2.244 . S
O239 Co238 2.216 . S
O239 C246 1.247 . S
O240 Co238 2.091 . S
O240 C246 1.261 . S
C241 O250 1.247 . S
C241 O251 1.272 . S
O242 Co238 2.004 . S
O242 C247 1.259 . S
Co243 O244 2.061 . S
Co243 O249 2.052 . S
Co243 O251 2.135 . S
O244 Co243 2.061 . S
O244 C247 1.235 . S
C245 O248 1.238 . S
C245 O249 1.241 . S
C246 O239 1.247 . S
C246 O240 1.261 . S
C247 O242 1.259 . S
C247 O244 1.235 . S
O248 Co238 2.021 . S
O248 C245 1.238 . S
O249 Co243 2.052 . S
O249 C245 1.241 . S
O250 Co238 2.137 . S
O250 C241 1.247 . S
O251 Co238 2.244 . S
O251 C241 1.272 . S
O251 Co243 2.135 . S
Co252 O253 2.216 . S
Co252 O254 2.091 . S
Co252 O256 2.004 . S
Co252 O262 2.021 . S
Co252 O264 2.137 . S
Co252 O265 2.244 . S
O253 Co252 2.216 . S
O253 C260 1.247 . S
O254 Co252 2.091 . S
O254 C260 1.261 . S
C255 O264 1.247 . S
C255 O265 1.272 . S
O256 Co252 2.004 . S
O256 C261 1.259 . S
Co257 O258 2.061 . S
Co257 O263 2.052 . S
Co257 O265 2.135 . S
O258 Co257 2.061 . S
O258 C261 1.235 . S
C259 O262 1.238 . S
C259 O263 1.241 . S
C260 O253 1.247 . S
C260 O254 1.261 . S
C261 O256 1.259 . S
C261 O258 1.235 . S
O262 Co252 2.021 . S
O262 C259 1.238 . S
O263 Co257 2.052 . S
O263 C259 1.241 . S
O264 Co252 2.137 . S
O264 C255 1.247 . S
O265 Co252 2.244 . S
O265 C255 1.272 . S
O265 Co257 2.135 . S
Co266 O267 2.216 . S
Co266 O268 2.091 . S
Co266 O270 2.004 . S
Co266 O276 2.021 . S
Co266 O278 2.137 . S
Co266 O279 2.244 . S
O267 Co266 2.216 . S
O267 C274 1.247 . S
O268 Co266 2.091 . S
O268 C274 1.261 . S
C269 O278 1.247 . S
C269 O279 1.272 . S
O270 Co266 2.004 . S
O270 C275 1.259 . S
Co271 O272 2.061 . S
Co271 O277 2.052 . S
Co271 O279 2.135 . S
O272 Co271 2.061 . S
O272 C275 1.235 . S
C273 O276 1.238 . S
C273 O277 1.241 . S
C274 O267 1.247 . S
C274 O268 1.261 . S
C275 O270 1.259 . S
C275 O272 1.235 . S
O276 Co266 2.021 . S
O276 C273 1.238 . S
O277 Co271 2.052 . S
O277 C273 1.241 . S
O278 Co266 2.137 . S
O278 C269 1.247 . S
O279 Co266 2.244 . S
O279 C269 1.272 . S
O279 Co271 2.135 . S
Co280 O281 2.216 . S
Co280 O282 2.091 . S
Co280 O284 2.004 . S
Co280 O290 2.021 . S
Co280 O292 2.137 . S
Co280 O293 2.244 . S
O281 Co280 2.216 . S
O281 C288 1.247 . S
O282 Co280 2.091 . S
O282 C288 1.261 . S
C283 O292 1.247 . S
C283 O293 1.272 . S
O284 Co280 2.004 . S
O284 C289 1.259 . S
Co285 O286 2.061 . S
Co285 O291 2.052 . S
Co285 O293 2.135 . S
O286 Co285 2.061 . S
O286 C289 1.235 . S
C287 O290 1.238 . S
C287 O291 1.241 . S
C288 O281 1.247 . S
C288 O282 1.261 . S
C289 O284 1.259 . S
C289 O286 1.235 . S
O290 Co280 2.021 . S
O290 C287 1.238 . S
O291 Co285 2.052 . S
O291 C287 1.241 . S
O292 Co280 2.137 . S
O292 C283 1.247 . S
O293 Co280 2.244 . S
O293 C283 1.272 . S
O293 Co285 2.135 . S
Co294 O295 2.216 1_556 S
Co294 O296 2.091 . S
Co294 O298 2.004 . S
Co294 O304 2.021 1_556 S
Co294 O306 2.137 . S
Co294 O307 2.245 . S
O295 Co294 2.216 1_554 S
O295 C302 1.247 . S
O296 Co294 2.091 . S
O296 C302 1.261 1_556 S
C297 O306 1.247 . S
C297 O307 1.282 . S
O298 Co294 2.004 . S
O298 C303 1.259 . S
Co299 O300 2.061 1_554 S
Co299 O305 2.052 . S
Co299 O307 2.134 1_554 S
O300 Co299 2.061 1_556 S
O300 C303 1.235 . S
C301 O304 1.238 . S
C301 O305 1.241 . S
C302 O295 1.247 . S
C302 O296 1.261 1_554 S
C303 O298 1.259 . S
C303 O300 1.235 . S
O304 Co294 2.021 1_554 S
O304 C301 1.238 . S
O305 Co299 2.052 . S
O305 C301 1.241 . S
O306 Co294 2.137 . S
O306 C297 1.247 . S
O307 Co294 2.245 . S
O307 C297 1.282 . S
O307 Co299 2.134 1_556 S
Co308 O309 2.216 1_556 S
Co308 O310 2.091 . S
Co308 O312 2.004 . S
Co308 O318 2.021 1_556 S
Co308 O320 2.137 . S
Co308 O321 2.245 . S
O309 Co308 2.216 1_554 S
O309 C316 1.247 . S
O310 Co308 2.091 . S
O310 C316 1.261 1_556 S
C311 O320 1.247 . S
C311 O321 1.282 . S
O312 Co308 2.004 . S
O312 C317 1.259 . S
Co313 O314 2.061 1_554 S
Co313 O319 2.052 . S
Co313 O321 2.134 1_554 S
O314 Co313 2.061 1_556 S
O314 C317 1.235 . S
C315 O318 1.238 . S
C315 O319 1.241 . S
C316 O309 1.247 . S
C316 O310 1.261 1_554 S
C317 O312 1.259 . S
C317 O314 1.235 . S
O318 Co308 2.021 1_554 S
O318 C315 1.238 . S
O319 Co313 2.052 . S
O319 C315 1.241 . S
O320 Co308 2.137 . S
O320 C311 1.247 . S
O321 Co308 2.245 . S
O321 C311 1.282 . S
O321 Co313 2.134 1_556 S
Co322 O323 2.216 1_556 S
Co322 O324 2.091 . S
Co322 O326 2.004 . S
Co322 O332 2.021 1_556 S
Co322 O334 2.137 . S
Co322 O335 2.245 . S
O323 Co322 2.216 1_554 S
O323 C330 1.247 . S
O324 Co322 2.091 . S
O324 C330 1.261 1_556 S
C325 O334 1.247 . S
C325 O335 1.282 . S
O326 Co322 2.004 . S
O326 C331 1.259 . S
Co327 O328 2.061 1_554 S
Co327 O333 2.052 . S
Co327 O335 2.134 1_554 S
O328 Co327 2.061 1_556 S
O328 C331 1.235 . S
C329 O332 1.238 . S
C329 O333 1.241 . S
C330 O323 1.247 . S
C330 O324 1.261 1_554 S
C331 O326 1.259 . S
C331 O328 1.235 . S
O332 Co322 2.021 1_554 S
O332 C329 1.238 . S
O333 Co327 2.052 . S
O333 C329 1.241 . S
O334 Co322 2.137 . S
O334 C325 1.247 . S
O335 Co322 2.245 . S
O335 C325 1.282 . S
O335 Co327 2.134 1_556 S
Co336 O337 2.216 . S
Co336 O338 2.091 . S
Co336 O340 2.004 . S
Co336 O346 2.021 . S
Co336 O348 2.137 . S
Co336 O349 2.244 . S
O337 Co336 2.216 . S
O337 C344 1.247 . S
O338 Co336 2.091 . S
O338 C344 1.261 . S
C339 O348 1.247 . S
C339 O349 1.272 . S
O340 Co336 2.004 . S
O340 C345 1.259 . S
Co341 O342 2.061 . S
Co341 O347 2.052 . S
Co341 O349 2.135 . S
O342 Co341 2.061 . S
O342 C345 1.235 . S
C343 O346 1.238 . S
C343 O347 1.241 . S
C344 O337 1.247 . S
C344 O338 1.261 . S
C345 O340 1.259 . S
C345 O342 1.235 . S
O346 Co336 2.021 . S
O346 C343 1.238 . S
O347 Co341 2.052 . S
O347 C343 1.241 . S
O348 Co336 2.137 . S
O348 C339 1.247 . S
O349 Co336 2.244 . S
O349 C339 1.272 . S
O349 Co341 2.135 . S
Co350 O351 2.216 . S
Co350 O352 2.091 . S
Co350 O354 2.004 . S
Co350 O360 2.021 . S
Co350 O362 2.137 . S
Co350 O363 2.244 . S
O351 Co350 2.216 . S
O351 C358 1.247 . S
O352 Co350 2.091 . S
O352 C358 1.261 . S
C353 O362 1.247 . S
C353 O363 1.272 . S
O354 Co350 2.004 . S
O354 C359 1.259 . S
Co355 O356 2.061 . S
Co355 O361 2.052 . S
Co355 O363 2.135 . S
O356 Co355 2.061 . S
O356 C359 1.235 . S
C357 O360 1.238 . S
C357 O361 1.241 . S
C358 O351 1.247 . S
C358 O352 1.261 . S
C359 O354 1.259 . S
C359 O356 1.235 . S
O360 Co350 2.021 . S
O360 C357 1.238 . S
O361 Co355 2.052 . S
O361 C357 1.241 . S
O362 Co350 2.137 . S
O362 C353 1.247 . S
O363 Co350 2.244 . S
O363 C353 1.272 . S
O363 Co355 2.135 . S
Co364 O365 2.216 . S
Co364 O366 2.091 . S
Co364 O368 2.004 . S
Co364 O374 2.021 . S
Co364 O376 2.137 . S
Co364 O377 2.244 . S
O365 Co364 2.216 . S
O365 C372 1.247 . S
O366 Co364 2.091 . S
O366 C372 1.261 . S
C367 O376 1.247 . S
C367 O377 1.272 . S
O368 Co364 2.004 . S
O368 C373 1.259 . S
Co369 O370 2.061 . S
Co369 O375 2.052 . S
Co369 O377 2.135 . S
O370 Co369 2.061 . S
O370 C373 1.235 . S
C371 O374 1.238 . S
C371 O375 1.241 . S
C372 O365 1.247 . S
C372 O366 1.261 . S
C373 O368 1.259 . S
C373 O370 1.235 . S
O374 Co364 2.021 . S
O374 C371 1.238 . S
O375 Co369 2.052 . S
O375 C371 1.241 . S
O376 Co364 2.137 . S
O376 C367 1.247 . S
O377 Co364 2.244 . S
O377 C367 1.272 . S
O377 Co369 2.135 . S
Co378 O379 2.216 1_554 S
Co378 O380 2.091 . S
Co378 O382 2.004 . S
Co378 O388 2.021 1_554 S
Co378 O390 2.137 . S
Co378 O391 2.245 . S
O379 Co378 2.216 1_556 S
O379 C386 1.247 . S
O380 Co378 2.091 . S
O380 C386 1.261 1_554 S
C381 O390 1.247 . S
C381 O391 1.282 . S
O382 Co378 2.004 . S
O382 C387 1.259 . S
Co383 O384 2.061 1_556 S
Co383 O389 2.052 . S
Co383 O391 2.134 1_556 S
O384 Co383 2.061 1_554 S
O384 C387 1.235 . S
C385 O388 1.238 . S
C385 O389 1.241 . S
C386 O379 1.247 . S
C386 O380 1.261 1_556 S
C387 O382 1.259 . S
C387 O384 1.235 . S
O388 Co378 2.021 1_556 S
O388 C385 1.238 . S
O389 Co383 2.052 . S
O389 C385 1.241 . S
O390 Co378 2.137 . S
O390 C381 1.247 . S
O391 Co378 2.245 . S
O391 C381 1.282 . S
O391 Co383 2.134 1_554 S
Co392 O393 2.216 1_554 S
Co392 O394 2.091 . S
Co392 O396 2.004 . S
Co392 O402 2.021 1_554 S
Co392 O404 2.137 . S
Co392 O405 2.245 . S
O393 Co392 2.216 1_556 S
O393 C400 1.247 . S
O394 Co392 2.091 . S
O394 C400 1.261 1_554 S
C395 O404 1.247 . S
C395 O405 1.282 . S
O396 Co392 2.004 . S
O396 C401 1.259 . S
Co397 O398 2.061 1_556 S
Co397 O403 2.052 . S
Co397 O405 2.134 1_556 S
O398 Co397 2.061 1_554 S
O398 C401 1.235 . S
C399 O402 1.238 . S
C399 O403 1.241 . S
C400 O393 1.247 . S
C400 O394 1.261 1_556 S
C401 O396 1.259 . S
C401 O398 1.235 . S
O402 Co392 2.021 1_556 S
O402 C399 1.238 . S
O403 Co397 2.052 . S
O403 C399 1.241 . S
O404 Co392 2.137 . S
O404 C395 1.247 . S
O405 Co392 2.245 . S
O405 C395 1.282 . S
O405 Co397 2.134 1_554 S
Co406 O407 2.216 1_554 S
Co406 O408 2.091 . S
Co406 O410 2.004 . S
Co406 O416 2.021 1_554 S
Co406 O418 2.137 . S
Co406 O419 2.245 . S
O407 Co406 2.216 1_556 S
O407 C414 1.247 . S
O408 Co406 2.091 . S
O408 C414 1.261 1_554 S
C409 O418 1.247 . S
C409 O419 1.282 . S
O410 Co406 2.004 . S
O410 C415 1.259 . S
Co411 O412 2.061 1_556 S
Co411 O417 2.052 . S
Co411 O419 2.134 1_556 S
O412 Co411 2.061 1_554 S
O412 C415 1.235 . S
C413 O416 1.238 . S
C413 O417 1.241 . S
C414 O407 1.247 . S
C414 O408 1.261 1_556 S
C415 O410 1.259 . S
C415 O412 1.235 . S
O416 Co406 2.021 1_556 S
O416 C413 1.238 . S
O417 Co411 2.052 . S
O417 C413 1.241 . S
O418 Co406 2.137 . S
O418 C409 1.247 . S
O419 Co406 2.245 . S
O419 C409 1.282 . S
O419 Co411 2.134 1_554 S
Co420 O421 2.216 . S
Co420 O422 2.091 . S
Co420 O424 2.004 . S
Co420 O430 2.021 . S
Co420 O432 2.137 . S
Co420 O433 2.244 . S
O421 Co420 2.216 . S
O421 C428 1.247 . S
O422 Co420 2.091 . S
O422 C428 1.261 . S
C423 O432 1.247 . S
C423 O433 1.272 . S
O424 Co420 2.004 . S
O424 C429 1.259 . S
Co425 O426 2.061 . S
Co425 O431 2.052 . S
Co425 O433 2.135 . S
O426 Co425 2.061 . S
O426 C429 1.235 . S
C427 O430 1.238 . S
C427 O431 1.241 . S
C428 O421 1.247 . S
C428 O422 1.261 . S
C429 O424 1.259 . S
C429 O426 1.235 . S
O430 Co420 2.021 . S
O430 C427 1.238 . S
O431 Co425 2.052 . S
O431 C427 1.241 . S
O432 Co420 2.137 . S
O432 C423 1.247 . S
O433 Co420 2.244 . S
O433 C423 1.272 . S
O433 Co425 2.135 . S
Co434 O435 2.216 . S
Co434 O436 2.091 . S
Co434 O438 2.004 . S
Co434 O444 2.021 . S
Co434 O446 2.137 . S
Co434 O447 2.244 . S
O435 Co434 2.216 . S
O435 C442 1.247 . S
O436 Co434 2.091 . S
O436 C442 1.261 . S
C437 O446 1.247 . S
C437 O447 1.272 . S
O438 Co434 2.004 . S
O438 C443 1.259 . S
Co439 O440 2.061 . S
Co439 O445 2.052 . S
Co439 O447 2.135 . S
O440 Co439 2.061 . S
O440 C443 1.235 . S
C441 O444 1.238 . S
C441 O445 1.241 . S
C442 O435 1.247 . S
C442 O436 1.261 . S
C443 O438 1.259 . S
C443 O440 1.235 . S
O444 Co434 2.021 . S
O444 C441 1.238 . S
O445 Co439 2.052 . S
O445 C441 1.241 . S
O446 Co434 2.137 . S
O446 C437 1.247 . S
O447 Co434 2.244 . S
O447 C437 1.272 . S
O447 Co439 2.135 . S
Co448 O449 2.216 . S
Co448 O450 2.091 . S
Co448 O452 2.004 . S
Co448 O458 2.021 . S
Co448 O460 2.137 . S
Co448 O461 2.244 . S
O449 Co448 2.216 . S
O449 C456 1.247 . S
O450 Co448 2.091 . S
O450 C456 1.261 . S
C451 O460 1.247 . S
C451 O461 1.272 . S
O452 Co448 2.004 . S
O452 C457 1.259 . S
Co453 O454 2.061 . S
Co453 O459 2.052 . S
Co453 O461 2.135 . S
O454 Co453 2.061 . S
O454 C457 1.235 . S
C455 O458 1.238 . S
C455 O459 1.241 . S
C456 O449 1.247 . S
C456 O450 1.261 . S
C457 O452 1.259 . S
C457 O454 1.235 . S
O458 Co448 2.021 . S
O458 C455 1.238 . S
O459 Co453 2.052 . S
O459 C455 1.241 . S
O460 Co448 2.137 . S
O460 C451 1.247 . S
O461 Co448 2.244 . S
O461 C451 1.272 . S
O461 Co453 2.135 . S
Co462 O463 2.216 . S
Co462 O464 2.091 . S
Co462 O466 2.004 . S
Co462 O472 2.021 . S
Co462 O474 2.137 . S
Co462 O475 2.244 . S
O463 Co462 2.216 . S
O463 C470 1.247 . S
O464 Co462 2.091 . S
O464 C470 1.261 . S
C465 O474 1.247 . S
C465 O475 1.272 . S
O466 Co462 2.004 . S
O466 C471 1.259 . S
Co467 O468 2.061 . S
Co467 O473 2.052 . S
Co467 O475 2.135 . S
O468 Co467 2.061 . S
O468 C471 1.235 . S
C469 O472 1.238 . S
C469 O473 1.241 . S
C470 O463 1.247 . S
C470 O464 1.261 . S
C471 O466 1.259 . S
C471 O468 1.235 . S
O472 Co462 2.021 . S
O472 C469 1.238 . S
O473 Co467 2.052 . S
O473 C469 1.241 . S
O474 Co462 2.137 . S
O474 C465 1.247 . S
O475 Co462 2.244 . S
O475 C465 1.272 . S
O475 Co467 2.135 . S
Co476 O477 2.216 . S
Co476 O478 2.091 . S
Co476 O480 2.004 . S
Co476 O486 2.021 . S
Co476 O488 2.137 . S
Co476 O489 2.244 . S
O477 Co476 2.216 . S
O477 C484 1.247 . S
O478 Co476 2.091 . S
O478 C484 1.261 . S
C479 O488 1.247 . S
C479 O489 1.272 . S
O480 Co476 2.004 . S
O480 C485 1.259 . S
Co481 O482 2.061 . S
Co481 O487 2.052 . S
Co481 O489 2.135 . S
O482 Co481 2.061 . S
O482 C485 1.235 . S
C483 O486 1.238 . S
C483 O487 1.241 . S
C484 O477 1.247 . S
C484 O478 1.261 . S
C485 O480 1.259 . S
C485 O482 1.235 . S
O486 Co476 2.021 . S
O486 C483 1.238 . S
O487 Co481 2.052 . S
O487 C483 1.241 . S
O488 Co476 2.137 . S
O488 C479 1.247 . S
O489 Co476 2.244 . S
O489 C479 1.272 . S
O489 Co481 2.135 . S
Co490 O491 2.216 . S
Co490 O492 2.091 . S
Co490 O494 2.004 . S
Co490 O500 2.021 . S
Co490 O502 2.137 . S
Co490 O503 2.244 . S
O491 Co490 2.216 . S
O491 C498 1.247 . S
O492 Co490 2.091 . S
O492 C498 1.261 . S
C493 O502 1.247 . S
C493 O503 1.272 . S
O494 Co490 2.004 . S
O494 C499 1.259 . S
Co495 O496 2.061 . S
Co495 O501 2.052 . S
Co495 O503 2.135 . S
O496 Co495 2.061 . S
O496 C499 1.235 . S
C497 O500 1.238 . S
C497 O501 1.241 . S
C498 O491 1.247 . S
C498 O492 1.261 . S
C499 O494 1.259 . S
C499 O496 1.235 . S
O500 Co490 2.021 . S
O500 C497 1.238 . S
O501 Co495 2.052 . S
O501 C497 1.241 . S
O502 Co490 2.137 . S
O502 C493 1.247 . S
O503 Co490 2.244 . S
O503 C493 1.272 . S
O503 Co495 2.135 . S
H504 C516 0.930 . S
H505 C518 0.930 . S
H506 C519 0.930 . S
H507 C523 0.959 . S
H508 C523 0.959 . S
H509 C523 0.961 . S
H510 C524 0.960 . S
H511 C524 0.961 . S
H512 C524 0.959 . S
H513 C527 0.929 . S
H514 C528 0.931 . S
H515 C530 0.930 . S
C516 H504 0.930 . S
C516 C517 1.399 . S
C516 C521 1.399 . S
C517 C516 1.399 . S
C517 C518 1.376 . S
C518 H505 0.930 . S
C518 C517 1.376 . S
C518 C519 1.388 . S
C519 H506 0.930 . S
C519 C518 1.388 . S
C519 C520 1.390 . S
C520 C519 1.390 . S
C520 C521 1.394 . S
C520 C526 1.465 . S
C521 C516 1.399 . S
C521 C520 1.394 . S
C521 C522 1.516 . S
C522 C521 1.516 . S
C522 C523 1.502 . S
C522 C524 1.561 . S
C522 C525 1.526 . S
C523 H507 0.959 . S
C523 H508 0.959 . S
C523 H509 0.961 . S
C523 C522 1.502 . S
C524 H510 0.960 . S
C524 H511 0.961 . S
C524 H512 0.959 . S
C524 C522 1.561 . S
C525 C522 1.526 . S
C525 C526 1.396 . S
C525 C530 1.390 . S
C526 C520 1.465 . S
C526 C525 1.396 . S
C526 C527 1.399 . S
C527 H513 0.929 . S
C527 C526 1.399 . S
C527 C528 1.385 . S
C528 H514 0.931 . S
C528 C527 1.385 . S
C528 C529 1.389 . S
C529 C528 1.389 . S
C529 C530 1.387 . S
C530 H515 0.930 . S
C530 C525 1.390 . S
C530 C529 1.387 . S
H531 C543 0.930 . S
H532 C545 0.930 . S
H533 C546 0.930 . S
H534 C550 0.959 . S
H535 C550 0.959 . S
H536 C550 0.961 . S
H537 C551 0.960 . S
H538 C551 0.961 . S
H539 C551 0.959 . S
H540 C554 0.929 . S
H541 C555 0.931 . S
H542 C557 0.930 . S
C543 H531 0.930 . S
C543 C544 1.399 . S
C543 C548 1.399 . S
C544 C543 1.399 . S
C544 C545 1.376 . S
C545 H532 0.930 . S
C545 C544 1.376 . S
C545 C546 1.388 . S
C546 H533 0.930 . S
C546 C545 1.388 . S
C546 C547 1.390 . S
C547 C546 1.390 . S
C547 C548 1.394 . S
C547 C553 1.465 1_545 S
C548 C543 1.399 . S
C548 C547 1.394 . S
C548 C549 1.516 1_545 S
C549 C548 1.516 1_565 S
C549 C550 1.502 . S
C549 C551 1.561 . S
C549 C552 1.526 . S
C550 H534 0.959 . S
C550 H535 0.959 . S
C550 H536 0.961 . S
C550 C549 1.502 . S
C551 H537 0.960 . S
C551 H538 0.961 . S
C551 H539 0.959 . S
C551 C549 1.561 . S
C552 C549 1.526 . S
C552 C553 1.396 . S
C552 C557 1.390 . S
C553 C547 1.465 1_565 S
C553 C552 1.396 . S
C553 C554 1.399 . S
C554 H540 0.929 . S
C554 C553 1.399 . S
C554 C555 1.385 . S
C555 H541 0.931 . S
C555 C554 1.385 . S
C555 C556 1.389 . S
C556 C555 1.389 . S
C556 C557 1.387 . S
C557 H542 0.930 . S
C557 C552 1.390 . S
C557 C556 1.387 . S
H558 C570 0.930 . S
H559 C572 0.930 . S
H560 C573 0.930 . S
H561 C577 0.959 . S
H562 C577 0.959 . S
H563 C577 0.961 . S
H564 C578 0.960 . S
H565 C578 0.961 . S
H566 C578 0.959 . S
H567 C581 0.929 . S
H568 C582 0.931 . S
H569 C584 0.930 . S
C570 H558 0.930 . S
C570 C571 1.399 . S
C570 C575 1.399 . S
C571 C570 1.399 . S
C571 C572 1.376 . S
C572 H559 0.930 . S
C572 C571 1.376 . S
C572 C573 1.388 . S
C573 H560 0.930 . S
C573 C572 1.388 . S
C573 C574 1.390 . S
C574 C573 1.390 . S
C574 C575 1.394 . S
C574 C580 1.465 1_655 S
C575 C570 1.399 . S
C575 C574 1.394 . S
C575 C576 1.516 . S
C576 C575 1.516 . S
C576 C577 1.502 . S
C576 C578 1.561 . S
C576 C579 1.526 1_655 S
C577 H561 0.959 . S
C577 H562 0.959 . S
C577 H563 0.961 . S
C577 C576 1.502 . S
C578 H564 0.960 . S
C578 H565 0.961 . S
C578 H566 0.959 . S
C578 C576 1.561 . S
C579 C576 1.526 1_455 S
C579 C580 1.396 . S
C579 C584 1.390 . S
C580 C574 1.465 1_455 S
C580 C579 1.396 . S
C580 C581 1.399 . S
C581 H567 0.929 . S
C581 C580 1.399 . S
C581 C582 1.385 . S
C582 H568 0.931 . S
C582 C581 1.385 . S
C582 C583 1.389 . S
C583 C582 1.389 . S
C583 C584 1.387 . S
C584 H569 0.930 . S
C584 C579 1.390 . S
C584 C583 1.387 . S
H585 C597 0.930 . S
H586 C599 0.930 . S
H587 C600 0.930 . S
H588 C604 0.959 . S
H589 C604 0.959 . S
H590 C604 0.961 . S
H591 C605 0.960 . S
H592 C605 0.961 . S
H593 C605 0.959 . S
H594 C608 0.929 . S
H595 C609 0.931 . S
H596 C611 0.930 . S
C597 H585 0.930 . S
C597 C598 1.399 . S
C597 C602 1.399 . S
C598 C597 1.399 . S
C598 C599 1.376 . S
C599 H586 0.930 . S
C599 C598 1.376 . S
C599 C600 1.388 . S
C600 H587 0.930 . S
C600 C599 1.388 . S
C600 C601 1.390 . S
C601 C600 1.390 . S
C601 C602 1.394 . S
C601 C607 1.465 . S
C602 C597 1.399 . S
C602 C601 1.394 . S
C602 C603 1.516 . S
C603 C602 1.516 . S
C603 C604 1.502 . S
C603 C605 1.561 . S
C603 C606 1.526 . S
C604 H588 0.959 . S
C604 H589 0.959 . S
C604 H590 0.961 . S
C604 C603 1.502 . S
C605 H591 0.960 . S
C605 H592 0.961 . S
C605 H593 0.959 . S
C605 C603 1.561 . S
C606 C603 1.526 . S
C606 C607 1.396 . S
C606 C611 1.390 . S
C607 C601 1.465 . S
C607 C606 1.396 . S
C607 C608 1.399 . S
C608 H594 0.929 . S
C608 C607 1.399 . S
C608 C609 1.385 . S
C609 H595 0.931 . S
C609 C608 1.385 . S
C609 C610 1.389 . S
C610 C609 1.389 . S
C610 C611 1.387 . S
C611 H596 0.930 . S
C611 C606 1.390 . S
C611 C610 1.387 . S
H612 C624 0.930 . S
H613 C626 0.930 . S
H614 C627 0.930 . S
H615 C631 0.959 . S
H616 C631 0.959 . S
H617 C631 0.961 . S
H618 C632 0.960 . S
H619 C632 0.961 1_565 S
H620 C632 0.986 . S
H621 C635 0.929 . S
H622 C636 0.931 . S
H623 C638 0.930 . S
C624 H612 0.930 . S
C624 C625 1.399 . S
C624 C629 1.399 . S
C625 C624 1.399 . S
C625 C626 1.376 . S
C626 H613 0.930 . S
C626 C625 1.376 . S
C626 C627 1.388 . S
C627 H614 0.930 . S
C627 C626 1.388 . S
C627 C628 1.390 . S
C628 C627 1.390 . S
C628 C629 1.394 . S
C628 C634 1.465 1_545 S
C629 C624 1.399 . S
C629 C628 1.394 . S
C629 C630 1.516 . S
C630 C629 1.516 . S
C630 C631 1.502 . S
C630 C632 1.561 . S
C630 C633 1.526 1_545 S
C631 H615 0.959 . S
C631 H616 0.959 . S
C631 H617 0.961 . S
C631 C630 1.502 . S
C632 H618 0.960 . S
C632 H619 0.961 1_545 S
C632 H620 0.986 . S
C632 C630 1.561 . S
C633 C630 1.526 1_565 S
C633 C634 1.396 . S
C633 C638 1.390 . S
C634 C628 1.465 1_565 S
C634 C633 1.396 . S
C634 C635 1.399 . S
C635 H621 0.929 . S
C635 C634 1.399 . S
C635 C636 1.385 . S
C636 H622 0.931 . S
C636 C635 1.385 . S
C636 C637 1.389 . S
C637 C636 1.389 . S
C637 C638 1.387 . S
C638 H623 0.930 . S
C638 C633 1.390 . S
C638 C637 1.387 . S
H639 C651 0.930 . S
H640 C653 0.930 . S
H641 C654 0.930 . S
H642 C658 0.959 . S
H643 C658 0.959 . S
H644 C658 0.961 . S
H645 C659 0.954 . S
H646 C659 0.964 1_655 S
H647 C659 0.958 . S
H648 C662 0.929 . S
H649 C663 0.931 . S
H650 C665 0.930 . S
C651 H639 0.930 . S
C651 C652 1.399 . S
C651 C656 1.399 . S
C652 C651 1.399 . S
C652 C653 1.376 . S
C653 H640 0.930 . S
C653 C652 1.376 . S
C653 C654 1.388 . S
C654 H641 0.930 . S
C654 C653 1.388 . S
C654 C655 1.390 . S
C655 C654 1.390 . S
C655 C656 1.394 . S
C655 C661 1.465 1_455 S
C656 C651 1.399 . S
C656 C655 1.394 . S
C656 C657 1.516 1_455 S
C657 C656 1.516 1_655 S
C657 C658 1.502 . S
C657 C659 1.565 1_655 S
C657 C660 1.526 . S
C658 H642 0.959 . S
C658 H643 0.959 . S
C658 H644 0.961 . S
C658 C657 1.502 . S
C659 H645 0.954 . S
C659 H646 0.964 1_455 S
C659 H647 0.958 . S
C659 C657 1.565 1_455 S
C660 C657 1.526 . S
C660 C661 1.396 . S
C660 C665 1.390 . S
C661 C655 1.465 1_655 S
C661 C660 1.396 . S
C661 C662 1.399 . S
C662 H648 0.929 . S
C662 C661 1.399 . S
C662 C663 1.385 . S
C663 H649 0.931 . S
C663 C662 1.385 . S
C663 C664 1.389 . S
C664 C663 1.389 . S
C664 C665 1.387 . S
C665 H650 0.930 . S
C665 C660 1.390 . S
C665 C664 1.387 . S
H666 C678 0.930 . S
H667 C680 0.930 . S
H668 C681 0.930 . S
H669 C685 0.959 . S
H670 C685 0.959 . S
H671 C685 0.961 . S
H672 C686 0.960 . S
H673 C686 0.961 . S
H674 C686 0.959 . S
H675 C689 0.929 . S
H676 C690 0.931 . S
H677 C692 0.930 . S
C678 H666 0.930 . S
C678 C679 1.399 . S
C678 C683 1.399 . S
C679 C678 1.399 . S
C679 C680 1.376 . S
C680 H667 0.930 . S
C680 C679 1.376 . S
C680 C681 1.388 . S
C681 H668 0.930 . S
C681 C680 1.388 . S
C681 C682 1.390 . S
C682 C681 1.390 . S
C682 C683 1.394 . S
C682 C688 1.465 . S
C683 C678 1.399 . S
C683 C682 1.394 . S
C683 C684 1.516 . S
C684 C683 1.516 . S
C684 C685 1.502 . S
C684 C686 1.561 . S
C684 C687 1.526 . S
C685 H669 0.959 . S
C685 H670 0.959 . S
C685 H671 0.961 . S
C685 C684 1.502 . S
C686 H672 0.960 . S
C686 H673 0.961 . S
C686 H674 0.959 . S
C686 C684 1.561 . S
C687 C684 1.526 . S
C687 C688 1.396 . S
C687 C692 1.390 . S
C688 C682 1.465 . S
C688 C687 1.396 . S
C688 C689 1.399 . S
C689 H675 0.929 . S
C689 C688 1.399 . S
C689 C690 1.385 . S
C690 H676 0.931 . S
C690 C689 1.385 . S
C690 C691 1.389 . S
C691 C690 1.389 . S
C691 C692 1.387 . S
C692 H677 0.930 . S
C692 C687 1.390 . S
C692 C691 1.387 . S
H693 C705 0.930 . S
H694 C707 0.930 . S
H695 C708 0.930 . S
H696 C712 0.959 . S
H697 C712 0.959 . S
H698 C712 0.961 . S
H699 C713 0.960 . S
H700 C713 0.961 . S
H701 C713 0.959 . S
H702 C716 0.929 . S
H703 C717 0.931 . S
H704 C719 0.930 . S
C705 H693 0.930 . S
C705 C706 1.399 . S
C705 C710 1.399 . S
C706 C705 1.399 . S
C706 C707 1.376 . S
C707 H694 0.930 . S
C707 C706 1.376 . S
C707 C708 1.388 . S
C708 H695 0.930 . S
C708 C707 1.388 . S
C708 C709 1.390 . S
C709 C708 1.390 . S
C709 C710 1.394 . S
C709 C715 1.465 . S
C710 C705 1.399 . S
C710 C709 1.394 . S
C710 C711 1.516 . S
C711 C710 1.516 . S
C711 C712 1.502 . S
C711 C713 1.561 . S
C711 C714 1.526 . S
C712 H696 0.959 . S
C712 H697 0.959 . S
C712 H698 0.961 . S
C712 C711 1.502 . S
C713 H699 0.960 . S
C713 H700 0.961 . S
C713 H701 0.959 . S
C713 C711 1.561 . S
C714 C711 1.526 . S
C714 C715 1.396 . S
C714 C719 1.390 . S
C715 C709 1.465 . S
C715 C714 1.396 . S
C715 C716 1.399 . S
C716 H702 0.929 . S
C716 C715 1.399 . S
C716 C717 1.385 . S
C717 H703 0.931 . S
C717 C716 1.385 . S
C717 C718 1.389 . S
C718 C717 1.389 . S
C718 C719 1.387 . S
C719 H704 0.930 . S
C719 C714 1.390 . S
C719 C718 1.387 . S
H720 C732 0.930 . S
H721 C734 0.930 . S
H722 C735 0.930 . S
H723 C739 0.959 . S
H724 C739 0.959 . S
H725 C739 0.961 . S
H726 C740 0.960 . S
H727 C740 0.961 . S
H728 C740 0.959 . S
H729 C743 0.929 . S
H730 C744 0.931 . S
H731 C746 0.930 . S
C732 H720 0.930 . S
C732 C733 1.399 . S
C732 C737 1.399 . S
C733 C732 1.399 . S
C733 C734 1.376 . S
C734 H721 0.930 . S
C734 C733 1.376 . S
C734 C735 1.388 . S
C735 H722 0.930 . S
C735 C734 1.388 . S
C735 C736 1.390 . S
C736 C735 1.390 . S
C736 C737 1.394 . S
C736 C742 1.465 . S
C737 C732 1.399 . S
C737 C736 1.394 . S
C737 C738 1.516 . S
C738 C737 1.516 . S
C738 C739 1.502 . S
C738 C740 1.561 . S
C738 C741 1.526 . S
C739 H723 0.959 . S
C739 H724 0.959 . S
C739 H725 0.961 . S
C739 C738 1.502 . S
C740 H726 0.960 . S
C740 H727 0.961 . S
C740 H728 0.959 . S
C740 C738 1.561 . S
C741 C738 1.526 . S
C741 C742 1.396 . S
C741 C746 1.390 . S
C742 C736 1.465 . S
C742 C741 1.396 . S
C742 C743 1.399 . S
C743 H729 0.929 . S
C743 C742 1.399 . S
C743 C744 1.385 . S
C744 H730 0.931 . S
C744 C743 1.385 . S
C744 C745 1.389 . S
C745 C744 1.389 . S
C745 C746 1.387 . S
C746 H731 0.930 . S
C746 C741 1.390 . S
C746 C745 1.387 . S
H747 C759 0.930 . S
H748 C761 0.930 . S
H749 C762 0.930 . S
H750 C766 0.959 . S
H751 C766 0.959 . S
H752 C766 0.961 . S
H753 C767 0.960 . S
H754 C767 0.961 1_556 S
H755 C767 0.959 . S
H756 C770 0.929 . S
H757 C771 0.931 . S
H758 C773 0.930 1_556 S
C759 H747 0.930 . S
C759 C760 1.399 . S
C759 C764 1.399 . S
C760 C759 1.399 . S
C760 C761 1.376 . S
C761 H748 0.930 . S
C761 C760 1.376 . S
C761 C762 1.388 . S
C762 H749 0.930 . S
C762 C761 1.388 . S
C762 C763 1.390 . S
C763 C762 1.390 . S
C763 C764 1.394 . S
C763 C769 1.465 . S
C764 C759 1.399 . S
C764 C763 1.394 . S
C764 C765 1.516 . S
C765 C764 1.516 . S
C765 C766 1.502 1_554 S
C765 C767 1.561 . S
C765 C768 1.526 . S
C766 H750 0.959 . S
C766 H751 0.959 . S
C766 H752 0.961 . S
C766 C765 1.502 1_556 S
C767 H753 0.960 . S
C767 H754 0.961 1_554 S
C767 H755 0.959 . S
C767 C765 1.561 . S
C768 C765 1.526 . S
C768 C769 1.396 . S
C768 C773 1.390 . S
C769 C763 1.465 . S
C769 C768 1.396 . S
C769 C770 1.399 . S
C770 H756 0.929 . S
C770 C769 1.399 . S
C770 C771 1.385 . S
C771 H757 0.931 . S
C771 C770 1.385 . S
C771 C772 1.389 . S
C772 C771 1.389 . S
C772 C773 1.387 . S
C773 H758 0.930 1_554 S
C773 C768 1.390 . S
C773 C772 1.387 . S
H774 C786 0.930 . S
H775 C788 0.930 1_556 S
H776 C789 0.930 1_556 S
H777 C793 0.959 . S
H778 C793 0.959 . S
H779 C793 0.961 . S
H780 C794 0.960 . S
H781 C794 0.961 . S
H782 C794 0.959 . S
H783 C797 0.929 . S
H784 C798 0.931 . S
H785 C800 0.930 . S
C786 H774 0.930 . S
C786 C787 1.399 . S
C786 C791 1.399 . S
C787 C786 1.399 . S
C787 C788 1.376 . S
C788 H775 0.930 1_554 S
C788 C787 1.376 . S
C788 C789 1.388 . S
C789 H776 0.930 1_554 S
C789 C788 1.388 . S
C789 C790 1.390 . S
C790 C789 1.390 . S
C790 C791 1.394 . S
C790 C796 1.465 . S
C791 C786 1.399 . S
C791 C790 1.394 . S
C791 C792 1.516 . S
C792 C791 1.516 . S
C792 C793 1.502 . S
C792 C794 1.561 . S
C792 C795 1.526 . S
C793 H777 0.959 . S
C793 H778 0.959 . S
C793 H779 0.961 . S
C793 C792 1.502 . S
C794 H780 0.960 . S
C794 H781 0.961 . S
C794 H782 0.959 . S
C794 C792 1.561 . S
C795 C792 1.526 . S
C795 C796 1.396 . S
C795 C800 1.390 . S
C796 C790 1.465 . S
C796 C795 1.396 . S
C796 C797 1.399 . S
C797 H783 0.929 . S
C797 C796 1.399 . S
C797 C798 1.385 . S
C798 H784 0.931 . S
C798 C797 1.385 . S
C798 C799 1.389 . S
C799 C798 1.389 . S
C799 C800 1.387 . S
C800 H785 0.930 . S
C800 C795 1.390 . S
C800 C799 1.387 . S
H801 C813 0.930 . S
H802 C815 0.930 . S
H803 C816 0.930 . S
H804 C820 0.959 . S
H805 C820 0.959 . S
H806 C820 0.961 . S
H807 C821 0.960 . S
H808 C821 0.961 . S
H809 C821 0.959 . S
H810 C824 0.929 . S
H811 C825 0.931 1_556 S
H812 C827 0.930 . S
C813 H801 0.930 . S
C813 C814 1.399 . S
C813 C818 1.399 . S
C814 C813 1.399 . S
C814 C815 1.376 . S
C815 H802 0.930 . S
C815 C814 1.376 . S
C815 C816 1.388 . S
C816 H803 0.930 . S
C816 C815 1.388 . S
C816 C817 1.390 . S
C817 C816 1.390 . S
C817 C818 1.394 . S
C817 C823 1.465 . S
C818 C813 1.399 . S
C818 C817 1.394 . S
C818 C819 1.516 . S
C819 C818 1.516 . S
C819 C820 1.502 . S
C819 C821 1.561 . S
C819 C822 1.526 . S
C820 H804 0.959 . S
C820 H805 0.959 . S
C820 H806 0.961 . S
C820 C819 1.502 . S
C821 H807 0.960 . S
C821 H808 0.961 . S
C821 H809 0.959 . S
C821 C819 1.561 . S
C822 C819 1.526 . S
C822 C823 1.396 . S
C822 C827 1.390 . S
C823 C817 1.465 . S
C823 C822 1.396 . S
C823 C824 1.399 . S
C824 H810 0.929 . S
C824 C823 1.399 . S
C824 C825 1.385 . S
C825 H811 0.931 1_554 S
C825 C824 1.385 . S
C825 C826 1.389 . S
C826 C825 1.389 . S
C826 C827 1.387 . S
C827 H812 0.930 . S
C827 C822 1.390 . S
C827 C826 1.387 . S
H828 C840 0.930 . S
H829 C842 0.930 . S
H830 C843 0.930 . S
H831 C847 0.959 . S
H832 C847 0.959 . S
H833 C847 0.961 . S
H834 C848 0.960 . S
H835 C848 0.961 1_554 S
H836 C848 0.959 1_554 S
H837 C851 0.929 . S
H838 C852 0.931 . S
H839 C854 0.930 . S
C840 H828 0.930 . S
C840 C841 1.399 . S
C840 C845 1.399 . S
C841 C840 1.399 . S
C841 C842 1.376 . S
C842 H829 0.930 . S
C842 C841 1.376 . S
C842 C843 1.388 . S
C843 H830 0.930 . S
C843 C842 1.388 . S
C843 C844 1.390 . S
C844 C843 1.390 . S
C844 C845 1.394 . S
C844 C850 1.465 . S
C845 C840 1.399 . S
C845 C844 1.394 . S
C845 C846 1.516 . S
C846 C845 1.516 . S
C846 C847 1.502 . S
C846 C848 1.561 . S
C846 C849 1.526 . S
C847 H831 0.959 . S
C847 H832 0.959 . S
C847 H833 0.961 . S
C847 C846 1.502 . S
C848 H834 0.960 . S
C848 H835 0.961 1_556 S
C848 H836 0.959 1_556 S
C848 C846 1.561 . S
C849 C846 1.526 . S
C849 C850 1.396 . S
C849 C854 1.390 . S
C850 C844 1.465 . S
C850 C849 1.396 . S
C850 C851 1.399 . S
C851 H837 0.929 . S
C851 C850 1.399 . S
C851 C852 1.385 . S
C852 H838 0.931 . S
C852 C851 1.385 . S
C852 C853 1.389 . S
C853 C852 1.389 . S
C853 C854 1.387 . S
C854 H839 0.930 . S
C854 C849 1.390 . S
C854 C853 1.387 . S
H855 C867 0.930 . S
H856 C869 0.930 . S
H857 C870 0.930 . S
H858 C874 0.959 . S
H859 C874 0.959 . S
H860 C874 0.961 . S
H861 C875 0.960 . S
H862 C875 0.961 . S
H863 C875 0.959 . S
H864 C878 0.929 1_554 S
H865 C879 0.931 . S
H866 C881 0.930 . S
C867 H855 0.930 . S
C867 C868 1.399 . S
C867 C872 1.399 . S
C868 C867 1.399 . S
C868 C869 1.376 . S
C869 H856 0.930 . S
C869 C868 1.376 . S
C869 C870 1.388 . S
C870 H857 0.930 . S
C870 C869 1.388 . S
C870 C871 1.390 . S
C871 C870 1.390 . S
C871 C872 1.394 . S
C871 C877 1.465 . S
C872 C867 1.399 . S
C872 C871 1.394 . S
C872 C873 1.516 . S
C873 C872 1.516 . S
C873 C874 1.502 . S
C873 C875 1.561 . S
C873 C876 1.526 . S
C874 H858 0.959 . S
C874 H859 0.959 . S
C874 H860 0.961 . S
C874 C873 1.502 . S
C875 H861 0.960 . S
C875 H862 0.961 . S
C875 H863 0.959 . S
C875 C873 1.561 . S
C876 C873 1.526 . S
C876 C877 1.396 . S
C876 C881 1.390 . S
C877 C871 1.465 . S
C877 C876 1.396 . S
C877 C878 1.399 . S
C878 H864 0.929 1_556 S
C878 C877 1.399 . S
C878 C879 1.385 1_556 S
C879 H865 0.931 . S
C879 C878 1.385 1_554 S
C879 C880 1.389 1_554 S
C880 C879 1.389 1_556 S
C880 C881 1.387 . S
C881 H866 0.930 . S
C881 C876 1.390 . S
C881 C880 1.387 . S
H882 C894 0.930 1_554 S
H883 C896 0.930 . S
H884 C897 0.930 . S
H885 C901 0.959 1_556 S
H886 C901 0.959 . S
H887 C901 0.961 . S
H888 C902 0.960 . S
H889 C902 0.961 . S
H890 C902 0.959 1_556 S
H891 C905 0.929 . S
H892 C906 0.931 . S
H893 C908 0.930 . S
C894 H882 0.930 1_556 S
C894 C895 1.399 . S
C894 C899 1.399 . S
C895 C894 1.399 . S
C895 C896 1.376 . S
C896 H883 0.930 . S
C896 C895 1.376 . S
C896 C897 1.388 . S
C897 H884 0.930 . S
C897 C896 1.388 . S
C897 C898 1.390 . S
C898 C897 1.390 . S
C898 C899 1.394 . S
C898 C904 1.465 . S
C899 C894 1.399 . S
C899 C898 1.394 . S
C899 C900 1.516 . S
C900 C899 1.516 . S
C900 C901 1.502 1_556 S
C900 C902 1.561 1_556 S
C900 C903 1.526 . S
C901 H885 0.959 1_554 S
C901 H886 0.959 . S
C901 H887 0.961 . S
C901 C900 1.502 1_554 S
C902 H888 0.960 . S
C902 H889 0.961 . S
C902 H890 0.959 1_554 S
C902 C900 1.561 1_554 S
C903 C900 1.526 . S
C903 C904 1.396 . S
C903 C908 1.390 . S
C904 C898 1.465 . S
C904 C903 1.396 . S
C904 C905 1.399 . S
C905 H891 0.929 . S
C905 C904 1.399 . S
C905 C906 1.385 . S
C906 H892 0.931 . S
C906 C905 1.385 . S
C906 C907 1.389 . S
C907 C906 1.389 . S
C907 C908 1.387 . S
C908 H893 0.930 . S
C908 C903 1.390 . S
C908 C907 1.387 . S
H909 C921 0.930 . S
H910 C923 0.930 . S
H911 C924 0.930 . S
H912 C928 0.959 . S
H913 C928 0.959 . S
H914 C928 0.961 . S
H915 C929 0.960 . S
H916 C929 0.961 . S
H917 C929 0.959 . S
H918 C932 0.929 . S
H919 C933 0.931 . S
H920 C935 0.930 . S
C921 H909 0.930 . S
C921 C922 1.399 . S
C921 C926 1.399 . S
C922 C921 1.399 . S
C922 C923 1.376 . S
C923 H910 0.930 . S
C923 C922 1.376 . S
C923 C924 1.388 . S
C924 H911 0.930 . S
C924 C923 1.388 . S
C924 C925 1.390 . S
C925 C924 1.390 . S
C925 C926 1.394 . S
C925 C931 1.465 . S
C926 C921 1.399 . S
C926 C925 1.394 . S
C926 C927 1.516 . S
C927 C926 1.516 . S
C927 C928 1.502 . S
C927 C929 1.561 . S
C927 C930 1.526 . S
C928 H912 0.959 . S
C928 H913 0.959 . S
C928 H914 0.961 . S
C928 C927 1.502 . S
C929 H915 0.960 . S
C929 H916 0.961 . S
C929 H917 0.959 . S
C929 C927 1.561 . S
C930 C927 1.526 . S
C930 C931 1.396 . S
C930 C935 1.390 . S
C931 C925 1.465 . S
C931 C930 1.396 . S
C931 C932 1.399 . S
C932 H918 0.929 . S
C932 C931 1.399 . S
C932 C933 1.385 . S
C933 H919 0.931 . S
C933 C932 1.385 . S
C933 C934 1.389 . S
C934 C933 1.389 . S
C934 C935 1.387 . S
C935 H920 0.930 . S
C935 C930 1.390 . S
C935 C934 1.387 . S
H936 C948 0.930 . S
H937 C950 0.930 . S
H938 C951 0.930 . S
H939 C955 0.959 . S
H940 C955 0.959 . S
H941 C955 0.961 . S
H942 C956 0.960 . S
H943 C956 0.961 . S
H944 C956 0.959 . S
H945 C959 0.929 . S
H946 C960 0.931 . S
H947 C962 0.930 . S
C948 H936 0.930 . S
C948 C949 1.399 . S
C948 C953 1.399 . S
C949 C948 1.399 . S
C949 C950 1.376 . S
C950 H937 0.930 . S
C950 C949 1.376 . S
C950 C951 1.388 . S
C951 H938 0.930 . S
C951 C950 1.388 . S
C951 C952 1.390 . S
C952 C951 1.390 . S
C952 C953 1.394 . S
C952 C958 1.465 . S
C953 C948 1.399 . S
C953 C952 1.394 . S
C953 C954 1.516 . S
C954 C953 1.516 . S
C954 C955 1.502 . S
C954 C956 1.561 . S
C954 C957 1.526 . S
C955 H939 0.959 . S
C955 H940 0.959 . S
C955 H941 0.961 . S
C955 C954 1.502 . S
C956 H942 0.960 . S
C956 H943 0.961 . S
C956 H944 0.959 . S
C956 C954 1.561 . S
C957 C954 1.526 . S
C957 C958 1.396 . S
C957 C962 1.390 . S
C958 C952 1.465 . S
C958 C957 1.396 . S
C958 C959 1.399 . S
C959 H945 0.929 . S
C959 C958 1.399 . S
C959 C960 1.385 . S
C960 H946 0.931 . S
C960 C959 1.385 . S
C960 C961 1.389 . S
C961 C960 1.389 . S
C961 C962 1.387 . S
C962 H947 0.930 . S
C962 C957 1.390 . S
C962 C961 1.387 . S
H963 C975 0.930 . S
H964 C977 0.930 . S
H965 C978 0.930 . S
H966 C982 0.959 . S
H967 C982 0.959 . S
H968 C982 0.961 . S
H969 C983 0.960 . S
H970 C983 0.961 . S
H971 C983 0.959 . S
H972 C986 0.929 . S
H973 C987 0.931 . S
H974 C989 0.930 . S
C975 H963 0.930 . S
C975 C976 1.399 . S
C975 C980 1.399 . S
C976 C975 1.399 . S
C976 C977 1.376 . S
C977 H964 0.930 . S
C977 C976 1.376 . S
C977 C978 1.388 . S
C978 H965 0.930 . S
C978 C977 1.388 . S
C978 C979 1.390 . S
C979 C978 1.390 . S
C979 C980 1.394 . S
C979 C985 1.465 . S
C980 C975 1.399 . S
C980 C979 1.394 . S
C980 C981 1.516 . S
C981 C980 1.516 . S
C981 C982 1.502 . S
C981 C983 1.561 . S
C981 C984 1.526 . S
C982 H966 0.959 . S
C982 H967 0.959 . S
C982 H968 0.961 . S
C982 C981 1.502 . S
C983 H969 0.960 . S
C983 H970 0.961 . S
C983 H971 0.959 . S
C983 C981 1.561 . S
C984 C981 1.526 . S
C984 C985 1.396 . S
C984 C989 1.390 . S
C985 C979 1.465 . S
C985 C984 1.396 . S
C985 C986 1.399 . S
C986 H972 0.929 . S
C986 C985 1.399 . S
C986 C987 1.385 . S
C987 H973 0.931 . S
C987 C986 1.385 . S
C987 C988 1.389 . S
C988 C987 1.389 . S
C988 C989 1.387 . S
C989 H974 0.930 . S
C989 C984 1.390 . S
C989 C988 1.387 . S
H990 C1002 0.930 . S
H991 C1004 0.930 . S
H992 C1005 0.930 . S
H993 C1009 0.959 . S
H994 C1009 0.959 . S
H995 C1009 0.961 . S
H996 C1010 0.960 . S
H997 C1010 0.961 . S
H998 C1010 0.959 . S
H999 C1013 0.929 . S
H1000 C1014 0.931 1_554 S
H1001 C1016 0.930 1_554 S
C1002 H990 0.930 . S
C1002 C1003 1.399 . S
C1002 C1007 1.399 . S
C1003 C1002 1.399 . S
C1003 C1004 1.376 . S
C1004 H991 0.930 . S
C1004 C1003 1.376 . S
C1004 C1005 1.388 . S
C1005 H992 0.930 . S
C1005 C1004 1.388 . S
C1005 C1006 1.390 . S
C1006 C1005 1.390 . S
C1006 C1007 1.394 . S
C1006 C1012 1.465 . S
C1007 C1002 1.399 . S
C1007 C1006 1.394 . S
C1007 C1008 1.516 . S
C1008 C1007 1.516 . S
C1008 C1009 1.502 . S
C1008 C1010 1.561 . S
C1008 C1011 1.526 . S
C1009 H993 0.959 . S
C1009 H994 0.959 . S
C1009 H995 0.961 . S
C1009 C1008 1.502 . S
C1010 H996 0.960 . S
C1010 H997 0.961 . S
C1010 H998 0.959 . S
C1010 C1008 1.561 . S
C1011 C1008 1.526 . S
C1011 C1012 1.396 . S
C1011 C1016 1.390 . S
C1012 C1006 1.465 . S
C1012 C1011 1.396 . S
C1012 C1013 1.399 . S
C1013 H999 0.929 . S
C1013 C1012 1.399 . S
C1013 C1014 1.385 . S
C1014 H1000 0.931 1_556 S
C1014 C1013 1.385 . S
C1014 C1015 1.389 1_556 S
C1015 C1014 1.389 1_554 S
C1015 C1016 1.387 1_554 S
C1016 H1001 0.930 1_556 S
C1016 C1011 1.390 . S
C1016 C1015 1.387 1_556 S
H1017 C1029 0.930 . S
H1018 C1031 0.930 . S
H1019 C1032 0.930 . S
H1020 C1036 0.959 . S
H1021 C1036 0.959 . S
H1022 C1036 0.961 1_554 S
H1023 C1037 0.960 . S
H1024 C1037 0.961 . S
H1025 C1037 0.959 . S
H1026 C1040 0.929 . S
H1027 C1041 0.931 . S
H1028 C1043 0.930 . S
C1029 H1017 0.930 . S
C1029 C1030 1.399 . S
C1029 C1034 1.399 1_554 S
C1030 C1029 1.399 . S
C1030 C1031 1.376 1_554 S
C1031 H1018 0.930 . S
C1031 C1030 1.376 1_556 S
C1031 C1032 1.388 . S
C1032 H1019 0.930 . S
C1032 C1031 1.388 . S
C1032 C1033 1.390 . S
C1033 C1032 1.390 . S
C1033 C1034 1.394 . S
C1033 C1039 1.465 . S
C1034 C1029 1.399 1_556 S
C1034 C1033 1.394 . S
C1034 C1035 1.516 . S
C1035 C1034 1.516 . S
C1035 C1036 1.502 . S
C1035 C1037 1.561 . S
C1035 C1038 1.526 . S
C1036 H1020 0.959 . S
C1036 H1021 0.959 . S
C1036 H1022 0.961 1_556 S
C1036 C1035 1.502 . S
C1037 H1023 0.960 . S
C1037 H1024 0.961 . S
C1037 H1025 0.959 . S
C1037 C1035 1.561 . S
C1038 C1035 1.526 . S
C1038 C1039 1.396 . S
C1038 C1043 1.390 . S
C1039 C1033 1.465 . S
C1039 C1038 1.396 . S
C1039 C1040 1.399 . S
C1040 H1026 0.929 . S
C1040 C1039 1.399 . S
C1040 C1041 1.385 . S
C1041 H1027 0.931 . S
C1041 C1040 1.385 . S
C1041 C1042 1.389 . S
C1042 C1041 1.389 . S
C1042 C1043 1.387 . S
C1043 H1028 0.930 . S
C1043 C1038 1.390 . S
C1043 C1042 1.387 . S
H1044 C1056 0.930 . S
H1045 C1058 0.930 . S
H1046 C1059 0.930 . S
H1047 C1063 0.959 . S
H1048 C1063 0.959 . S
H1049 C1063 0.961 1_554 S
H1050 C1064 0.960 . S
H1051 C1064 0.961 . S
H1052 C1064 0.959 . S
H1053 C1067 0.929 . S
H1054 C1068 0.931 . S
H1055 C1070 0.930 . S
C1056 H1044 0.930 . S
C1056 C1057 1.399 . S
C1056 C1061 1.399 1_554 S
C1057 C1056 1.399 . S
C1057 C1058 1.376 1_554 S
C1058 H1045 0.930 . S
C1058 C1057 1.376 1_556 S
C1058 C1059 1.388 . S
C1059 H1046 0.930 . S
C1059 C1058 1.388 . S
C1059 C1060 1.390 . S
C1060 C1059 1.390 . S
C1060 C1061 1.394 . S
C1060 C1066 1.465 . S
C1061 C1056 1.399 1_556 S
C1061 C1060 1.394 . S
C1061 C1062 1.516 . S
C1062 C1061 1.516 . S
C1062 C1063 1.502 . S
C1062 C1064 1.561 . S
C1062 C1065 1.526 . S
C1063 H1047 0.959 . S
C1063 H1048 0.959 . S
C1063 H1049 0.961 1_556 S
C1063 C1062 1.502 . S
C1064 H1050 0.960 . S
C1064 H1051 0.961 . S
C1064 H1052 0.959 . S
C1064 C1062 1.561 . S
C1065 C1062 1.526 . S
C1065 C1066 1.396 . S
C1065 C1070 1.390 . S
C1066 C1060 1.465 . S
C1066 C1065 1.396 . S
C1066 C1067 1.399 . S
C1067 H1053 0.929 . S
C1067 C1066 1.399 . S
C1067 C1068 1.385 . S
C1068 H1054 0.931 . S
C1068 C1067 1.385 . S
C1068 C1069 1.389 . S
C1069 C1068 1.389 . S
C1069 C1070 1.387 . S
C1070 H1055 0.930 . S
C1070 C1065 1.390 . S
C1070 C1069 1.387 . S
H1071 C1083 0.930 . S
H1072 C1085 0.930 . S
H1073 C1086 0.930 . S
H1074 C1090 0.959 . S
H1075 C1090 0.959 . S
H1076 C1090 0.961 . S
H1077 C1091 0.960 . S
H1078 C1091 0.961 . S
H1079 C1091 0.959 . S
H1080 C1094 0.929 . S
H1081 C1095 0.931 . S
H1082 C1097 0.930 . S
C1083 H1071 0.930 . S
C1083 C1084 1.399 . S
C1083 C1088 1.399 . S
C1084 C1083 1.399 . S
C1084 C1085 1.376 . S
C1085 H1072 0.930 . S
C1085 C1084 1.376 . S
C1085 C1086 1.388 . S
C1086 H1073 0.930 . S
C1086 C1085 1.388 . S
C1086 C1087 1.390 . S
C1087 C1086 1.390 . S
C1087 C1088 1.394 . S
C1087 C1093 1.465 . S
C1088 C1083 1.399 . S
C1088 C1087 1.394 . S
C1088 C1089 1.516 . S
C1089 C1088 1.516 . S
C1089 C1090 1.502 . S
C1089 C1091 1.561 . S
C1089 C1092 1.526 . S
C1090 H1074 0.959 . S
C1090 H1075 0.959 . S
C1090 H1076 0.961 . S
C1090 C1089 1.502 . S
C1091 H1077 0.960 . S
C1091 H1078 0.961 . S
C1091 H1079 0.959 . S
C1091 C1089 1.561 . S
C1092 C1089 1.526 . S
C1092 C1093 1.396 . S
C1092 C1097 1.390 . S
C1093 C1087 1.465 . S
C1093 C1092 1.396 . S
C1093 C1094 1.399 . S
C1094 H1080 0.929 . S
C1094 C1093 1.399 . S
C1094 C1095 1.385 . S
C1095 H1081 0.931 . S
C1095 C1094 1.385 . S
C1095 C1096 1.389 . S
C1096 C1095 1.389 . S
C1096 C1097 1.387 . S
C1097 H1082 0.930 . S
C1097 C1092 1.390 . S
C1097 C1096 1.387 . S
H1098 C1110 0.930 . S
H1099 C1112 0.930 . S
H1100 C1113 0.930 . S
H1101 C1117 0.959 . S
H1102 C1117 0.959 . S
H1103 C1117 0.961 . S
H1104 C1118 0.960 . S
H1105 C1118 0.961 . S
H1106 C1118 0.959 . S
H1107 C1121 0.929 . S
H1108 C1122 0.931 . S
H1109 C1124 0.930 . S
C1110 H1098 0.930 . S
C1110 C1111 1.399 . S
C1110 C1115 1.399 . S
C1111 C1110 1.399 . S
C1111 C1112 1.376 . S
C1112 H1099 0.930 . S
C1112 C1111 1.376 . S
C1112 C1113 1.388 . S
C1113 H1100 0.930 . S
C1113 C1112 1.388 . S
C1113 C1114 1.390 . S
C1114 C1113 1.390 . S
C1114 C1115 1.394 . S
C1114 C1120 1.465 . S
C1115 C1110 1.399 . S
C1115 C1114 1.394 . S
C1115 C1116 1.516 . S
C1116 C1115 1.516 . S
C1116 C1117 1.502 . S
C1116 C1118 1.561 . S
C1116 C1119 1.526 . S
C1117 H1101 0.959 . S
C1117 H1102 0.959 . S
C1117 H1103 0.961 . S
C1117 C1116 1.502 . S
C1118 H1104 0.960 . S
C1118 H1105 0.961 . S
C1118 H1106 0.959 . S
C1118 C1116 1.561 . S
C1119 C1116 1.526 . S
C1119 C1120 1.396 . S
C1119 C1124 1.390 . S
C1120 C1114 1.465 . S
C1120 C1119 1.396 . S
C1120 C1121 1.399 . S
C1121 H1107 0.929 . S
C1121 C1120 1.399 . S
C1121 C1122 1.385 . S
C1122 H1108 0.931 . S
C1122 C1121 1.385 . S
C1122 C1123 1.389 . S
C1123 C1122 1.389 . S
C1123 C1124 1.387 . S
C1124 H1109 0.930 . S
C1124 C1119 1.390 . S
C1124 C1123 1.387 . S
H1125 C1137 0.930 . S
H1126 C1139 0.930 . S
H1127 C1140 0.930 . S
H1128 C1144 0.959 . S
H1129 C1144 0.959 . S
H1130 C1144 0.961 . S
H1131 C1145 0.960 . S
H1132 C1145 0.961 . S
H1133 C1145 0.959 . S
H1134 C1148 0.929 . S
H1135 C1149 0.931 . S
H1136 C1151 0.930 . S
C1137 H1125 0.930 . S
C1137 C1138 1.399 . S
C1137 C1142 1.399 . S
C1138 C1137 1.399 . S
C1138 C1139 1.376 . S
C1139 H1126 0.930 . S
C1139 C1138 1.376 . S
C1139 C1140 1.388 . S
C1140 H1127 0.930 . S
C1140 C1139 1.388 . S
C1140 C1141 1.390 . S
C1141 C1140 1.390 . S
C1141 C1142 1.394 . S
C1141 C1147 1.465 . S
C1142 C1137 1.399 . S
C1142 C1141 1.394 . S
C1142 C1143 1.516 . S
C1143 C1142 1.516 . S
C1143 C1144 1.502 . S
C1143 C1145 1.561 . S
C1143 C1146 1.526 . S
C1144 H1128 0.959 . S
C1144 H1129 0.959 . S
C1144 H1130 0.961 . S
C1144 C1143 1.502 . S
C1145 H1131 0.960 . S
C1145 H1132 0.961 . S
C1145 H1133 0.959 . S
C1145 C1143 1.561 . S
C1146 C1143 1.526 . S
C1146 C1147 1.396 . S
C1146 C1151 1.390 . S
C1147 C1141 1.465 . S
C1147 C1146 1.396 . S
C1147 C1148 1.399 . S
C1148 H1134 0.929 . S
C1148 C1147 1.399 . S
C1148 C1149 1.385 . S
C1149 H1135 0.931 . S
C1149 C1148 1.385 . S
C1149 C1150 1.389 . S
C1150 C1149 1.389 . S
C1150 C1151 1.387 . S
C1151 H1136 0.930 . S
C1151 C1146 1.390 . S
C1151 C1150 1.387 . S
H1152 C1164 0.930 1_556 S
H1153 C1166 0.930 . S
H1154 C1167 0.930 . S
H1155 C1171 0.959 . S
H1156 C1171 0.959 . S
H1157 C1171 0.961 . S
H1158 C1172 0.960 . S
H1159 C1172 0.961 . S
H1160 C1172 0.959 . S
H1161 C1175 0.929 . S
H1162 C1176 0.931 . S
H1163 C1178 0.930 . S
C1164 H1152 0.930 1_554 S
C1164 C1165 1.399 1_554 S
C1164 C1169 1.399 . S
C1165 C1164 1.399 1_556 S
C1165 C1166 1.376 1_556 S
C1166 H1153 0.930 . S
C1166 C1165 1.376 1_554 S
C1166 C1167 1.388 . S
C1167 H1154 0.930 . S
C1167 C1166 1.388 . S
C1167 C1168 1.390 . S
C1168 C1167 1.390 . S
C1168 C1169 1.394 . S
C1168 C1174 1.465 . S
C1169 C1164 1.399 . S
C1169 C1168 1.394 . S
C1169 C1170 1.516 . S
C1170 C1169 1.516 . S
C1170 C1171 1.502 . S
C1170 C1172 1.561 . S
C1170 C1173 1.526 . S
C1171 H1155 0.959 . S
C1171 H1156 0.959 . S
C1171 H1157 0.961 . S
C1171 C1170 1.502 . S
C1172 H1158 0.960 . S
C1172 H1159 0.961 . S
C1172 H1160 0.959 . S
C1172 C1170 1.561 . S
C1173 C1170 1.526 . S
C1173 C1174 1.396 . S
C1173 C1178 1.390 . S
C1174 C1168 1.465 . S
C1174 C1173 1.396 . S
C1174 C1175 1.399 . S
C1175 H1161 0.929 . S
C1175 C1174 1.399 . S
C1175 C1176 1.385 . S
C1176 H1162 0.931 . S
C1176 C1175 1.385 . S
C1176 C1177 1.389 . S
C1177 C1176 1.389 . S
C1177 C1178 1.387 . S
C1178 H1163 0.930 . S
C1178 C1173 1.390 . S
C1178 C1177 1.387 . S
H1179 C1191 0.930 . S
H1180 C1193 0.930 . S
H1181 C1194 0.930 . S
H1182 C1198 0.959 . S
H1183 C1198 0.959 . S
H1184 C1198 0.961 . S
H1185 C1199 0.960 1_556 S
H1186 C1199 0.961 . S
H1187 C1199 0.959 . S
H1188 C1202 0.929 . S
H1189 C1203 0.931 . S
H1190 C1205 0.930 . S
C1191 H1179 0.930 . S
C1191 C1192 1.399 . S
C1191 C1196 1.399 1_556 S
C1192 C1191 1.399 . S
C1192 C1193 1.376 1_556 S
C1193 H1180 0.930 . S
C1193 C1192 1.376 1_554 S
C1193 C1194 1.388 . S
C1194 H1181 0.930 . S
C1194 C1193 1.388 . S
C1194 C1195 1.390 . S
C1195 C1194 1.390 . S
C1195 C1196 1.394 . S
C1195 C1201 1.465 . S
C1196 C1191 1.399 1_554 S
C1196 C1195 1.394 . S
C1196 C1197 1.516 . S
C1197 C1196 1.516 . S
C1197 C1198 1.502 . S
C1197 C1199 1.561 . S
C1197 C1200 1.526 . S
C1198 H1182 0.959 . S
C1198 H1183 0.959 . S
C1198 H1184 0.961 . S
C1198 C1197 1.502 . S
C1199 H1185 0.960 1_554 S
C1199 H1186 0.961 . S
C1199 H1187 0.959 . S
C1199 C1197 1.561 . S
C1200 C1197 1.526 . S
C1200 C1201 1.396 . S
C1200 C1205 1.390 . S
C1201 C1195 1.465 . S
C1201 C1200 1.396 . S
C1201 C1202 1.399 . S
C1202 H1188 0.929 . S
C1202 C1201 1.399 . S
C1202 C1203 1.385 . S
C1203 H1189 0.931 . S
C1203 C1202 1.385 . S
C1203 C1204 1.389 . S
C1204 C1203 1.389 . S
C1204 C1205 1.387 . S
C1205 H1190 0.930 . S
C1205 C1200 1.390 . S
C1205 C1204 1.387 . S
H1206 C1218 0.930 . S
H1207 C1220 0.930 . S
H1208 C1221 0.930 . S
H1209 C1225 0.959 . S
H1210 C1225 0.959 1_556 S
H1211 C1225 0.961 . S
H1212 C1226 0.960 . S
H1213 C1226 0.961 1_556 S
H1214 C1226 0.959 . S
H1215 C1229 0.929 . S
H1216 C1230 0.931 . S
H1217 C1232 0.930 . S
C1218 H1206 0.930 . S
C1218 C1219 1.399 . S
C1218 C1223 1.399 . S
C1219 C1218 1.399 . S
C1219 C1220 1.376 . S
C1220 H1207 0.930 . S
C1220 C1219 1.376 . S
C1220 C1221 1.388 . S
C1221 H1208 0.930 . S
C1221 C1220 1.388 . S
C1221 C1222 1.390 . S
C1222 C1221 1.390 . S
C1222 C1223 1.394 . S
C1222 C1228 1.465 . S
C1223 C1218 1.399 . S
C1223 C1222 1.394 . S
C1223 C1224 1.516 . S
C1224 C1223 1.516 . S
C1224 C1225 1.502 . S
C1224 C1226 1.561 . S
C1224 C1227 1.526 . S
C1225 H1209 0.959 . S
C1225 H1210 0.959 1_554 S
C1225 H1211 0.961 . S
C1225 C1224 1.502 . S
C1226 H1212 0.960 . S
C1226 H1213 0.961 1_554 S
C1226 H1214 0.959 . S
C1226 C1224 1.561 . S
C1227 C1224 1.526 . S
C1227 C1228 1.396 . S
C1227 C1232 1.390 1_554 S
C1228 C1222 1.465 . S
C1228 C1227 1.396 . S
C1228 C1229 1.399 . S
C1229 H1215 0.929 . S
C1229 C1228 1.399 . S
C1229 C1230 1.385 . S
C1230 H1216 0.931 . S
C1230 C1229 1.385 . S
C1230 C1231 1.389 1_554 S
C1231 C1230 1.389 1_556 S
C1231 C1232 1.387 . S
C1232 H1217 0.930 . S
C1232 C1227 1.390 1_556 S
C1232 C1231 1.387 . S
H1233 C1245 0.930 . S
H1234 C1247 0.930 . S
H1235 C1248 0.930 . S
H1236 C1252 0.959 . S
H1237 C1252 0.959 . S
H1238 C1252 0.961 . S
H1239 C1253 0.960 . S
H1240 C1253 0.961 . S
H1241 C1253 0.959 . S
H1242 C1256 0.929 . S
H1243 C1257 0.931 . S
H1244 C1259 0.930 . S
C1245 H1233 0.930 . S
C1245 C1246 1.399 . S
C1245 C1250 1.399 . S
C1246 C1245 1.399 . S
C1246 C1247 1.376 . S
C1247 H1234 0.930 . S
C1247 C1246 1.376 . S
C1247 C1248 1.388 . S
C1248 H1235 0.930 . S
C1248 C1247 1.388 . S
C1248 C1249 1.390 . S
C1249 C1248 1.390 . S
C1249 C1250 1.394 . S
C1249 C1255 1.465 . S
C1250 C1245 1.399 . S
C1250 C1249 1.394 . S
C1250 C1251 1.516 . S
C1251 C1250 1.516 . S
C1251 C1252 1.502 . S
C1251 C1253 1.561 . S
C1251 C1254 1.526 . S
C1252 H1236 0.959 . S
C1252 H1237 0.959 . S
C1252 H1238 0.961 . S
C1252 C1251 1.502 . S
C1253 H1239 0.960 . S
C1253 H1240 0.961 . S
C1253 H1241 0.959 . S
C1253 C1251 1.561 . S
C1254 C1251 1.526 . S
C1254 C1255 1.396 . S
C1254 C1259 1.390 . S
C1255 C1249 1.465 . S
C1255 C1254 1.396 . S
C1255 C1256 1.399 . S
C1256 H1242 0.929 . S
C1256 C1255 1.399 . S
C1256 C1257 1.385 . S
C1257 H1243 0.931 . S
C1257 C1256 1.385 . S
C1257 C1258 1.389 . S
C1258 C1257 1.389 . S
C1258 C1259 1.387 . S
C1259 H1244 0.930 . S
C1259 C1254 1.390 . S
C1259 C1258 1.387 . S
H1260 C1272 0.930 . S
H1261 C1274 0.930 . S
H1262 C1275 0.930 . S
H1263 C1279 0.959 . S
H1264 C1279 0.959 . S
H1265 C1279 0.961 . S
H1266 C1280 0.960 . S
H1267 C1280 0.961 . S
H1268 C1280 0.959 . S
H1269 C1283 0.929 . S
H1270 C1284 0.931 . S
H1271 C1286 0.930 . S
C1272 H1260 0.930 . S
C1272 C1273 1.399 . S
C1272 C1277 1.399 . S
C1273 C1272 1.399 . S
C1273 C1274 1.376 . S
C1274 H1261 0.930 . S
C1274 C1273 1.376 . S
C1274 C1275 1.388 . S
C1275 H1262 0.930 . S
C1275 C1274 1.388 . S
C1275 C1276 1.390 . S
C1276 C1275 1.390 . S
C1276 C1277 1.394 . S
C1276 C1282 1.465 . S
C1277 C1272 1.399 . S
C1277 C1276 1.394 . S
C1277 C1278 1.516 . S
C1278 C1277 1.516 . S
C1278 C1279 1.502 . S
C1278 C1280 1.561 . S
C1278 C1281 1.526 . S
C1279 H1263 0.959 . S
C1279 H1264 0.959 . S
C1279 H1265 0.961 . S
C1279 C1278 1.502 . S
C1280 H1266 0.960 . S
C1280 H1267 0.961 . S
C1280 H1268 0.959 . S
C1280 C1278 1.561 . S
C1281 C1278 1.526 . S
C1281 C1282 1.396 . S
C1281 C1286 1.390 . S
C1282 C1276 1.465 . S
C1282 C1281 1.396 . S
C1282 C1283 1.399 . S
C1283 H1269 0.929 . S
C1283 C1282 1.399 . S
C1283 C1284 1.385 . S
C1284 H1270 0.931 . S
C1284 C1283 1.385 . S
C1284 C1285 1.389 . S
C1285 C1284 1.389 . S
C1285 C1286 1.387 . S
C1286 H1271 0.930 . S
C1286 C1281 1.390 . S
C1286 C1285 1.387 . S
H1287 C1299 0.930 . S
H1288 C1301 0.930 . S
H1289 C1302 0.930 . S
H1290 C1306 0.959 . S
H1291 C1306 0.959 . S
H1292 C1306 0.961 . S
H1293 C1307 0.960 . S
H1294 C1307 0.961 . S
H1295 C1307 0.959 . S
H1296 C1310 0.929 . S
H1297 C1311 0.931 . S
H1298 C1313 0.930 . S
C1299 H1287 0.930 . S
C1299 C1300 1.399 . S
C1299 C1304 1.399 . S
C1300 C1299 1.399 . S
C1300 C1301 1.376 . S
C1301 H1288 0.930 . S
C1301 C1300 1.376 . S
C1301 C1302 1.388 . S
C1302 H1289 0.930 . S
C1302 C1301 1.388 . S
C1302 C1303 1.390 . S
C1303 C1302 1.390 . S
C1303 C1304 1.394 . S
C1303 C1309 1.465 . S
C1304 C1299 1.399 . S
C1304 C1303 1.394 . S
C1304 C1305 1.516 . S
C1305 C1304 1.516 . S
C1305 C1306 1.502 . S
C1305 C1307 1.561 . S
C1305 C1308 1.526 . S
C1306 H1290 0.959 . S
C1306 H1291 0.959 . S
C1306 H1292 0.961 . S
C1306 C1305 1.502 . S
C1307 H1293 0.960 . S
C1307 H1294 0.961 . S
C1307 H1295 0.959 . S
C1307 C1305 1.561 . S
C1308 C1305 1.526 . S
C1308 C1309 1.396 . S
C1308 C1313 1.390 . S
C1309 C1303 1.465 . S
C1309 C1308 1.396 . S
C1309 C1310 1.399 . S
C1310 H1296 0.929 . S
C1310 C1309 1.399 . S
C1310 C1311 1.385 . S
C1311 H1297 0.931 . S
C1311 C1310 1.385 . S
C1311 C1312 1.389 . S
C1312 C1311 1.389 . S
C1312 C1313 1.387 . S
C1313 H1298 0.930 . S
C1313 C1308 1.390 . S
C1313 C1312 1.387 . S
H1314 C1326 0.930 . S
H1315 C1328 0.930 . S
H1316 C1329 0.930 . S
H1317 C1333 0.959 . S
H1318 C1333 0.959 . S
H1319 C1333 0.961 . S
H1320 C1334 0.960 . S
H1321 C1334 0.961 . S
H1322 C1334 0.959 . S
H1323 C1337 0.929 . S
H1324 C1338 0.931 . S
H1325 C1340 0.930 . S
C1326 H1314 0.930 . S
C1326 C1327 1.399 . S
C1326 C1331 1.399 . S
C1327 C1326 1.399 . S
C1327 C1328 1.376 . S
C1328 H1315 0.930 . S
C1328 C1327 1.376 . S
C1328 C1329 1.388 . S
C1329 H1316 0.930 . S
C1329 C1328 1.388 . S
C1329 C1330 1.390 . S
C1330 C1329 1.390 . S
C1330 C1331 1.394 . S
C1330 C1336 1.465 . S
C1331 C1326 1.399 . S
C1331 C1330 1.394 . S
C1331 C1332 1.516 . S
C1332 C1331 1.516 . S
C1332 C1333 1.502 . S
C1332 C1334 1.561 . S
C1332 C1335 1.526 . S
C1333 H1317 0.959 . S
C1333 H1318 0.959 . S
C1333 H1319 0.961 . S
C1333 C1332 1.502 . S
C1334 H1320 0.960 . S
C1334 H1321 0.961 . S
C1334 H1322 0.959 . S
C1334 C1332 1.561 . S
C1335 C1332 1.526 . S
C1335 C1336 1.396 . S
C1335 C1340 1.390 . S
C1336 C1330 1.465 . S
C1336 C1335 1.396 . S
C1336 C1337 1.399 . S
C1337 H1323 0.929 . S
C1337 C1336 1.399 . S
C1337 C1338 1.385 . S
C1338 H1324 0.931 . S
C1338 C1337 1.385 . S
C1338 C1339 1.389 . S
C1339 C1338 1.389 . S
C1339 C1340 1.387 . S
C1340 H1325 0.930 . S
C1340 C1335 1.390 . S
C1340 C1339 1.387 . S
H1341 C1353 0.930 . S
H1342 C1355 0.930 . S
H1343 C1356 0.930 . S
H1344 C1360 0.959 . S
H1345 C1360 0.959 . S
H1346 C1360 0.961 . S
H1347 C1361 0.960 . S
H1348 C1361 0.961 . S
H1349 C1361 0.959 . S
H1350 C1364 0.929 . S
H1351 C1365 0.931 . S
H1352 C1367 0.930 . S
C1353 H1341 0.930 . S
C1353 C1354 1.399 . S
C1353 C1358 1.399 . S
C1354 C1353 1.399 . S
C1354 C1355 1.376 . S
C1355 H1342 0.930 . S
C1355 C1354 1.376 . S
C1355 C1356 1.388 . S
C1356 H1343 0.930 . S
C1356 C1355 1.388 . S
C1356 C1357 1.390 . S
C1357 C1356 1.390 . S
C1357 C1358 1.394 . S
C1357 C1363 1.465 . S
C1358 C1353 1.399 . S
C1358 C1357 1.394 . S
C1358 C1359 1.516 . S
C1359 C1358 1.516 . S
C1359 C1360 1.502 . S
C1359 C1361 1.561 . S
C1359 C1362 1.526 . S
C1360 H1344 0.959 . S
C1360 H1345 0.959 . S
C1360 H1346 0.961 . S
C1360 C1359 1.502 . S
C1361 H1347 0.960 . S
C1361 H1348 0.961 . S
C1361 H1349 0.959 . S
C1361 C1359 1.561 . S
C1362 C1359 1.526 . S
C1362 C1363 1.396 . S
C1362 C1367 1.390 . S
C1363 C1357 1.465 . S
C1363 C1362 1.396 . S
C1363 C1364 1.399 . S
C1364 H1350 0.929 . S
C1364 C1363 1.399 . S
C1364 C1365 1.385 . S
C1365 H1351 0.931 . S
C1365 C1364 1.385 . S
C1365 C1366 1.389 . S
C1366 C1365 1.389 . S
C1366 C1367 1.387 . S
C1367 H1352 0.930 . S
C1367 C1362 1.390 . S
C1367 C1366 1.387 . S
H1368 C1380 0.930 . S
H1369 C1382 0.930 . S
H1370 C1383 0.930 . S
H1371 C1387 0.959 . S
H1372 C1387 0.959 . S
H1373 C1387 0.961 . S
H1374 C1388 0.960 . S
H1375 C1388 0.961 . S
H1376 C1388 0.959 . S
H1377 C1391 0.929 . S
H1378 C1392 0.931 . S
H1379 C1394 0.930 . S
C1380 H1368 0.930 . S
C1380 C1381 1.399 . S
C1380 C1385 1.399 . S
C1381 C1380 1.399 . S
C1381 C1382 1.376 . S
C1382 H1369 0.930 . S
C1382 C1381 1.376 . S
C1382 C1383 1.388 . S
C1383 H1370 0.930 . S
C1383 C1382 1.388 . S
C1383 C1384 1.390 . S
C1384 C1383 1.390 . S
C1384 C1385 1.394 . S
C1384 C1390 1.465 . S
C1385 C1380 1.399 . S
C1385 C1384 1.394 . S
C1385 C1386 1.516 . S
C1386 C1385 1.516 . S
C1386 C1387 1.502 . S
C1386 C1388 1.561 . S
C1386 C1389 1.526 . S
C1387 H1371 0.959 . S
C1387 H1372 0.959 . S
C1387 H1373 0.961 . S
C1387 C1386 1.502 . S
C1388 H1374 0.960 . S
C1388 H1375 0.961 . S
C1388 H1376 0.959 . S
C1388 C1386 1.561 . S
C1389 C1386 1.526 . S
C1389 C1390 1.396 . S
C1389 C1394 1.390 . S
C1390 C1384 1.465 . S
C1390 C1389 1.396 . S
C1390 C1391 1.399 . S
C1391 H1377 0.929 . S
C1391 C1390 1.399 . S
C1391 C1392 1.385 . S
C1392 H1378 0.931 . S
C1392 C1391 1.385 . S
C1392 C1393 1.389 . S
C1393 C1392 1.389 . S
C1393 C1394 1.387 . S
C1394 H1379 0.930 . S
C1394 C1389 1.390 . S
C1394 C1393 1.387 . S
H1395 C1407 0.930 . S
H1396 C1409 0.930 . S
H1397 C1410 0.930 . S
H1398 C1414 0.959 . S
H1399 C1414 0.959 . S
H1400 C1414 0.961 . S
H1401 C1415 0.960 . S
H1402 C1415 0.961 . S
H1403 C1415 0.959 . S
H1404 C1418 0.929 . S
H1405 C1419 0.931 . S
H1406 C1421 0.930 . S
C1407 H1395 0.930 . S
C1407 C1408 1.399 . S
C1407 C1412 1.399 . S
C1408 C1407 1.399 . S
C1408 C1409 1.376 . S
C1409 H1396 0.930 . S
C1409 C1408 1.376 . S
C1409 C1410 1.388 . S
C1410 H1397 0.930 . S
C1410 C1409 1.388 . S
C1410 C1411 1.390 . S
C1411 C1410 1.390 . S
C1411 C1412 1.394 . S
C1411 C1417 1.465 . S
C1412 C1407 1.399 . S
C1412 C1411 1.394 . S
C1412 C1413 1.516 . S
C1413 C1412 1.516 . S
C1413 C1414 1.502 . S
C1413 C1415 1.561 . S
C1413 C1416 1.526 . S
C1414 H1398 0.959 . S
C1414 H1399 0.959 . S
C1414 H1400 0.961 . S
C1414 C1413 1.502 . S
C1415 H1401 0.960 . S
C1415 H1402 0.961 . S
C1415 H1403 0.959 . S
C1415 C1413 1.561 . S
C1416 C1413 1.526 . S
C1416 C1417 1.396 . S
C1416 C1421 1.390 . S
C1417 C1411 1.465 . S
C1417 C1416 1.396 . S
C1417 C1418 1.399 1_556 S
C1418 H1404 0.929 . S
C1418 C1417 1.399 1_554 S
C1418 C1419 1.385 . S
C1419 H1405 0.931 . S
C1419 C1418 1.385 . S
C1419 C1420 1.389 . S
C1420 C1419 1.389 . S
C1420 C1421 1.387 1_554 S
C1421 H1406 0.930 . S
C1421 C1416 1.390 . S
C1421 C1420 1.387 1_556 S
H1422 C1434 0.930 . S
H1423 C1436 0.930 . S
H1424 C1437 0.930 . S
H1425 C1441 0.959 1_554 S
H1426 C1441 0.959 . S
H1427 C1441 0.961 1_554 S
H1428 C1442 0.960 . S
H1429 C1442 0.961 . S
H1430 C1442 0.959 . S
H1431 C1445 0.929 . S
H1432 C1446 0.931 . S
H1433 C1448 0.930 . S
C1434 H1422 0.930 . S
C1434 C1435 1.399 . S
C1434 C1439 1.399 1_554 S
C1435 C1434 1.399 . S
C1435 C1436 1.376 . S
C1436 H1423 0.930 . S
C1436 C1435 1.376 . S
C1436 C1437 1.388 1_554 S
C1437 H1424 0.930 . S
C1437 C1436 1.388 1_556 S
C1437 C1438 1.390 . S
C1438 C1437 1.390 . S
C1438 C1439 1.394 . S
C1438 C1444 1.465 . S
C1439 C1434 1.399 1_556 S
C1439 C1438 1.394 . S
C1439 C1440 1.516 . S
C1440 C1439 1.516 . S
C1440 C1441 1.502 . S
C1440 C1442 1.561 . S
C1440 C1443 1.526 . S
C1441 H1425 0.959 1_556 S
C1441 H1426 0.959 . S
C1441 H1427 0.961 1_556 S
C1441 C1440 1.502 . S
C1442 H1428 0.960 . S
C1442 H1429 0.961 . S
C1442 H1430 0.959 . S
C1442 C1440 1.561 . S
C1443 C1440 1.526 . S
C1443 C1444 1.396 . S
C1443 C1448 1.390 . S
C1444 C1438 1.465 . S
C1444 C1443 1.396 . S
C1444 C1445 1.399 . S
C1445 H1431 0.929 . S
C1445 C1444 1.399 . S
C1445 C1446 1.385 . S
C1446 H1432 0.931 . S
C1446 C1445 1.385 . S
C1446 C1447 1.389 . S
C1447 C1446 1.389 . S
C1447 C1448 1.387 . S
C1448 H1433 0.930 . S
C1448 C1443 1.390 . S
C1448 C1447 1.387 . S
H1449 C1461 0.930 . S
H1450 C1463 0.930 . S
H1451 C1464 0.930 . S
H1452 C1468 0.959 . S
H1453 C1468 0.959 . S
H1454 C1468 0.961 . S
H1455 C1469 0.960 . S
H1456 C1469 0.961 . S
H1457 C1469 0.959 . S
H1458 C1472 0.929 . S
H1459 C1473 0.931 . S
H1460 C1475 0.930 . S
C1461 H1449 0.930 . S
C1461 C1462 1.399 . S
C1461 C1466 1.399 . S
C1462 C1461 1.399 . S
C1462 C1463 1.376 . S
C1463 H1450 0.930 . S
C1463 C1462 1.376 . S
C1463 C1464 1.388 . S
C1464 H1451 0.930 . S
C1464 C1463 1.388 . S
C1464 C1465 1.390 . S
C1465 C1464 1.390 . S
C1465 C1466 1.394 . S
C1465 C1471 1.465 . S
C1466 C1461 1.399 . S
C1466 C1465 1.394 . S
C1466 C1467 1.516 . S
C1467 C1466 1.516 . S
C1467 C1468 1.502 . S
C1467 C1469 1.561 . S
C1467 C1470 1.526 . S
C1468 H1452 0.959 . S
C1468 H1453 0.959 . S
C1468 H1454 0.961 . S
C1468 C1467 1.502 . S
C1469 H1455 0.960 . S
C1469 H1456 0.961 . S
C1469 H1457 0.959 . S
C1469 C1467 1.561 . S
C1470 C1467 1.526 . S
C1470 C1471 1.396 . S
C1470 C1475 1.390 1_556 S
C1471 C1465 1.465 . S
C1471 C1470 1.396 . S
C1471 C1472 1.399 1_556 S
C1472 H1458 0.929 . S
C1472 C1471 1.399 1_554 S
C1472 C1473 1.385 . S
C1473 H1459 0.931 . S
C1473 C1472 1.385 . S
C1473 C1474 1.389 . S
C1474 C1473 1.389 . S
C1474 C1475 1.387 . S
C1475 H1460 0.930 . S
C1475 C1470 1.390 1_554 S
C1475 C1474 1.387 . S
H1476 C1488 0.930 . S
H1477 C1490 0.930 . S
H1478 C1491 0.930 . S
H1479 C1495 0.959 . S
H1480 C1495 0.959 . S
H1481 C1495 0.961 . S
H1482 C1496 0.960 . S
H1483 C1496 0.961 . S
H1484 C1496 0.959 . S
H1485 C1499 0.929 . S
H1486 C1500 0.931 . S
H1487 C1502 0.930 . S
C1488 H1476 0.930 . S
C1488 C1489 1.399 . S
C1488 C1493 1.399 . S
C1489 C1488 1.399 . S
C1489 C1490 1.376 . S
C1490 H1477 0.930 . S
C1490 C1489 1.376 . S
C1490 C1491 1.388 . S
C1491 H1478 0.930 . S
C1491 C1490 1.388 . S
C1491 C1492 1.390 . S
C1492 C1491 1.390 . S
C1492 C1493 1.394 . S
C1492 C1498 1.465 . S
C1493 C1488 1.399 . S
C1493 C1492 1.394 . S
C1493 C1494 1.516 . S
C1494 C1493 1.516 . S
C1494 C1495 1.502 . S
C1494 C1496 1.561 . S
C1494 C1497 1.526 . S
C1495 H1479 0.959 . S
C1495 H1480 0.959 . S
C1495 H1481 0.961 . S
C1495 C1494 1.502 . S
C1496 H1482 0.960 . S
C1496 H1483 0.961 . S
C1496 H1484 0.959 . S
C1496 C1494 1.561 . S
C1497 C1494 1.526 . S
C1497 C1498 1.396 . S
C1497 C1502 1.390 . S
C1498 C1492 1.465 . S
C1498 C1497 1.396 . S
C1498 C1499 1.399 . S
C1499 H1485 0.929 . S
C1499 C1498 1.399 . S
C1499 C1500 1.385 . S
C1500 H1486 0.931 . S
C1500 C1499 1.385 . S
C1500 C1501 1.389 . S
C1501 C1500 1.389 . S
C1501 C1502 1.387 . S
C1502 H1487 0.930 . S
C1502 C1497 1.390 . S
C1502 C1501 1.387 . S
H1503 C1515 0.930 . S
H1504 C1517 0.930 . S
H1505 C1518 0.930 . S
H1506 C1522 0.959 . S
H1507 C1522 0.959 . S
H1508 C1522 0.961 . S
H1509 C1523 0.960 . S
H1510 C1523 0.961 . S
H1511 C1523 0.959 . S
H1512 C1526 0.929 . S
H1513 C1527 0.931 . S
H1514 C1529 0.930 . S
C1515 H1503 0.930 . S
C1515 C1516 1.399 . S
C1515 C1520 1.399 . S
C1516 C1515 1.399 . S
C1516 C1517 1.376 . S
C1517 H1504 0.930 . S
C1517 C1516 1.376 . S
C1517 C1518 1.388 . S
C1518 H1505 0.930 . S
C1518 C1517 1.388 . S
C1518 C1519 1.390 . S
C1519 C1518 1.390 . S
C1519 C1520 1.394 . S
C1519 C1525 1.465 . S
C1520 C1515 1.399 . S
C1520 C1519 1.394 . S
C1520 C1521 1.516 . S
C1521 C1520 1.516 . S
C1521 C1522 1.502 . S
C1521 C1523 1.561 . S
C1521 C1524 1.526 . S
C1522 H1506 0.959 . S
C1522 H1507 0.959 . S
C1522 H1508 0.961 . S
C1522 C1521 1.502 . S
C1523 H1509 0.960 . S
C1523 H1510 0.961 . S
C1523 H1511 0.959 . S
C1523 C1521 1.561 . S
C1524 C1521 1.526 . S
C1524 C1525 1.396 . S
C1524 C1529 1.390 . S
C1525 C1519 1.465 . S
C1525 C1524 1.396 . S
C1525 C1526 1.399 . S
C1526 H1512 0.929 . S
C1526 C1525 1.399 . S
C1526 C1527 1.385 . S
C1527 H1513 0.931 . S
C1527 C1526 1.385 . S
C1527 C1528 1.389 . S
C1528 C1527 1.389 . S
C1528 C1529 1.387 . S
C1529 H1514 0.930 . S
C1529 C1524 1.390 . S
C1529 C1528 1.387 . S
H1530 C1542 0.930 . S
H1531 C1544 0.930 . S
H1532 C1545 0.930 . S
H1533 C1549 0.959 . S
H1534 C1549 0.959 . S
H1535 C1549 0.961 . S
H1536 C1550 0.960 . S
H1537 C1550 0.961 . S
H1538 C1550 0.959 . S
H1539 C1553 0.929 . S
H1540 C1554 0.931 . S
H1541 C1556 0.930 . S
C1542 H1530 0.930 . S
C1542 C1543 1.399 . S
C1542 C1547 1.399 . S
C1543 C1542 1.399 . S
C1543 C1544 1.376 . S
C1544 H1531 0.930 . S
C1544 C1543 1.376 . S
C1544 C1545 1.388 . S
C1545 H1532 0.930 . S
C1545 C1544 1.388 . S
C1545 C1546 1.390 . S
C1546 C1545 1.390 . S
C1546 C1547 1.394 . S
C1546 C1552 1.465 . S
C1547 C1542 1.399 . S
C1547 C1546 1.394 . S
C1547 C1548 1.516 . S
C1548 C1547 1.516 . S
C1548 C1549 1.502 . S
C1548 C1550 1.561 . S
C1548 C1551 1.526 . S
C1549 H1533 0.959 . S
C1549 H1534 0.959 . S
C1549 H1535 0.961 . S
C1549 C1548 1.502 . S
C1550 H1536 0.960 . S
C1550 H1537 0.961 . S
C1550 H1538 0.959 . S
C1550 C1548 1.561 . S
C1551 C1548 1.526 . S
C1551 C1552 1.396 . S
C1551 C1556 1.390 . S
C1552 C1546 1.465 . S
C1552 C1551 1.396 . S
C1552 C1553 1.399 . S
C1553 H1539 0.929 . S
C1553 C1552 1.399 . S
C1553 C1554 1.385 . S
C1554 H1540 0.931 . S
C1554 C1553 1.385 . S
C1554 C1555 1.389 . S
C1555 C1554 1.389 . S
C1555 C1556 1.387 . S
C1556 H1541 0.930 . S
C1556 C1551 1.390 . S
C1556 C1555 1.387 . S
H1557 C1569 0.930 . S
H1558 C1571 0.930 . S
H1559 C1572 0.930 . S
H1560 C1576 0.959 . S
H1561 C1576 0.959 . S
H1562 C1576 0.961 . S
H1563 C1577 0.960 . S
H1564 C1577 0.961 . S
H1565 C1577 0.959 . S
H1566 C1580 0.929 . S
H1567 C1581 0.931 . S
H1568 C1583 0.930 . S
C1569 H1557 0.930 . S
C1569 C1570 1.399 . S
C1569 C1574 1.399 . S
C1570 C1569 1.399 . S
C1570 C1571 1.376 . S
C1571 H1558 0.930 . S
C1571 C1570 1.376 . S
C1571 C1572 1.388 . S
C1572 H1559 0.930 . S
C1572 C1571 1.388 . S
C1572 C1573 1.390 . S
C1573 C1572 1.390 . S
C1573 C1574 1.394 . S
C1573 C1579 1.465 . S
C1574 C1569 1.399 . S
C1574 C1573 1.394 . S
C1574 C1575 1.516 . S
C1575 C1574 1.516 . S
C1575 C1576 1.502 . S
C1575 C1577 1.561 . S
C1575 C1578 1.526 . S
C1576 H1560 0.959 . S
C1576 H1561 0.959 . S
C1576 H1562 0.961 . S
C1576 C1575 1.502 . S
C1577 H1563 0.960 . S
C1577 H1564 0.961 . S
C1577 H1565 0.959 . S
C1577 C1575 1.561 . S
C1578 C1575 1.526 . S
C1578 C1579 1.396 . S
C1578 C1583 1.390 . S
C1579 C1573 1.465 . S
C1579 C1578 1.396 . S
C1579 C1580 1.399 . S
C1580 H1566 0.929 . S
C1580 C1579 1.399 . S
C1580 C1581 1.385 . S
C1581 H1567 0.931 . S
C1581 C1580 1.385 . S
C1581 C1582 1.389 . S
C1582 C1581 1.389 . S
C1582 C1583 1.387 . S
C1583 H1568 0.930 . S
C1583 C1578 1.390 . S
C1583 C1582 1.387 . S
H1584 C1596 0.930 . S
H1585 C1598 0.930 . S
H1586 C1599 0.930 . S
H1587 C1603 0.959 . S
H1588 C1603 0.959 . S
H1589 C1603 0.961 . S
H1590 C1604 0.960 . S
H1591 C1604 0.961 . S
H1592 C1604 0.959 . S
H1593 C1607 0.929 . S
H1594 C1608 0.931 . S
H1595 C1610 0.930 . S
C1596 H1584 0.930 . S
C1596 C1597 1.399 . S
C1596 C1601 1.399 . S
C1597 C1596 1.399 . S
C1597 C1598 1.376 . S
C1598 H1585 0.930 . S
C1598 C1597 1.376 . S
C1598 C1599 1.388 . S
C1599 H1586 0.930 . S
C1599 C1598 1.388 . S
C1599 C1600 1.390 . S
C1600 C1599 1.390 . S
C1600 C1601 1.394 . S
C1600 C1606 1.465 . S
C1601 C1596 1.399 . S
C1601 C1600 1.394 . S
C1601 C1602 1.516 . S
C1602 C1601 1.516 . S
C1602 C1603 1.502 . S
C1602 C1604 1.561 . S
C1602 C1605 1.526 . S
C1603 H1587 0.959 . S
C1603 H1588 0.959 . S
C1603 H1589 0.961 . S
C1603 C1602 1.502 . S
C1604 H1590 0.960 . S
C1604 H1591 0.961 . S
C1604 H1592 0.959 . S
C1604 C1602 1.561 . S
C1605 C1602 1.526 . S
C1605 C1606 1.396 . S
C1605 C1610 1.390 . S
C1606 C1600 1.465 . S
C1606 C1605 1.396 . S
C1606 C1607 1.399 . S
C1607 H1593 0.929 . S
C1607 C1606 1.399 . S
C1607 C1608 1.385 . S
C1608 H1594 0.931 . S
C1608 C1607 1.385 . S
C1608 C1609 1.389 . S
C1609 C1608 1.389 . S
C1609 C1610 1.387 . S
C1610 H1595 0.930 . S
C1610 C1605 1.390 . S
C1610 C1609 1.387 . S
H1611 C1623 0.930 . S
H1612 C1625 0.930 . S
H1613 C1626 0.930 . S
H1614 C1630 0.959 . S
H1615 C1630 0.959 . S
H1616 C1630 0.961 . S
H1617 C1631 0.960 . S
H1618 C1631 0.961 . S
H1619 C1631 0.959 . S
H1620 C1634 0.929 . S
H1621 C1635 0.931 . S
H1622 C1637 0.930 . S
C1623 H1611 0.930 . S
C1623 C1624 1.399 . S
C1623 C1628 1.399 . S
C1624 C1623 1.399 . S
C1624 C1625 1.376 . S
C1625 H1612 0.930 . S
C1625 C1624 1.376 . S
C1625 C1626 1.388 . S
C1626 H1613 0.930 . S
C1626 C1625 1.388 . S
C1626 C1627 1.390 . S
C1627 C1626 1.390 . S
C1627 C1628 1.394 . S
C1627 C1633 1.465 . S
C1628 C1623 1.399 . S
C1628 C1627 1.394 . S
C1628 C1629 1.516 . S
C1629 C1628 1.516 . S
C1629 C1630 1.502 . S
C1629 C1631 1.561 . S
C1629 C1632 1.526 . S
C1630 H1614 0.959 . S
C1630 H1615 0.959 . S
C1630 H1616 0.961 . S
C1630 C1629 1.502 . S
C1631 H1617 0.960 . S
C1631 H1618 0.961 . S
C1631 H1619 0.959 . S
C1631 C1629 1.561 . S
C1632 C1629 1.526 . S
C1632 C1633 1.396 . S
C1632 C1637 1.390 . S
C1633 C1627 1.465 . S
C1633 C1632 1.396 . S
C1633 C1634 1.399 . S
C1634 H1620 0.929 . S
C1634 C1633 1.399 . S
C1634 C1635 1.385 . S
C1635 H1621 0.931 . S
C1635 C1634 1.385 . S
C1635 C1636 1.389 . S
C1636 C1635 1.389 . S
C1636 C1637 1.387 . S
C1637 H1622 0.930 . S
C1637 C1632 1.390 . S
C1637 C1636 1.387 . S
H1638 C1650 0.930 . S
H1639 C1652 0.930 . S
H1640 C1653 0.930 . S
H1641 C1657 0.959 . S
H1642 C1657 0.959 . S
H1643 C1657 0.961 . S
H1644 C1658 0.960 . S
H1645 C1658 0.961 . S
H1646 C1658 0.959 . S
H1647 C1661 0.929 . S
H1648 C1662 0.931 . S
H1649 C1664 0.930 . S
C1650 H1638 0.930 . S
C1650 C1651 1.399 . S
C1650 C1655 1.399 . S
C1651 C1650 1.399 . S
C1651 C1652 1.376 . S
C1652 H1639 0.930 . S
C1652 C1651 1.376 . S
C1652 C1653 1.388 . S
C1653 H1640 0.930 . S
C1653 C1652 1.388 . S
C1653 C1654 1.390 . S
C1654 C1653 1.390 . S
C1654 C1655 1.394 . S
C1654 C1660 1.465 . S
C1655 C1650 1.399 . S
C1655 C1654 1.394 . S
C1655 C1656 1.516 . S
C1656 C1655 1.516 . S
C1656 C1657 1.502 . S
C1656 C1658 1.561 . S
C1656 C1659 1.526 . S
C1657 H1641 0.959 . S
C1657 H1642 0.959 . S
C1657 H1643 0.961 . S
C1657 C1656 1.502 . S
C1658 H1644 0.960 . S
C1658 H1645 0.961 . S
C1658 H1646 0.959 . S
C1658 C1656 1.561 . S
C1659 C1656 1.526 . S
C1659 C1660 1.396 . S
C1659 C1664 1.390 . S
C1660 C1654 1.465 . S
C1660 C1659 1.396 . S
C1660 C1661 1.399 . S
C1661 H1647 0.929 . S
C1661 C1660 1.399 . S
C1661 C1662 1.385 . S
C1662 H1648 0.931 . S
C1662 C1661 1.385 . S
C1662 C1663 1.389 . S
C1663 C1662 1.389 . S
C1663 C1664 1.387 . S
C1664 H1649 0.930 . S
C1664 C1659 1.390 . S
C1664 C1663 1.387 . S
H1665 C1677 0.930 . S
H1666 C1679 0.930 . S
H1667 C1680 0.930 . S
H1668 C1684 0.959 . S
H1669 C1684 0.959 . S
H1670 C1684 0.961 . S
H1671 C1685 0.960 . S
H1672 C1685 0.961 . S
H1673 C1685 0.959 . S
H1674 C1688 0.929 . S
H1675 C1689 0.931 . S
H1676 C1691 0.930 . S
C1677 H1665 0.930 . S
C1677 C1678 1.399 . S
C1677 C1682 1.399 . S
C1678 C1677 1.399 . S
C1678 C1679 1.376 . S
C1679 H1666 0.930 . S
C1679 C1678 1.376 . S
C1679 C1680 1.388 . S
C1680 H1667 0.930 . S
C1680 C1679 1.388 . S
C1680 C1681 1.390 . S
C1681 C1680 1.390 . S
C1681 C1682 1.394 . S
C1681 C1687 1.465 . S
C1682 C1677 1.399 . S
C1682 C1681 1.394 . S
C1682 C1683 1.516 . S
C1683 C1682 1.516 . S
C1683 C1684 1.502 . S
C1683 C1685 1.561 . S
C1683 C1686 1.526 . S
C1684 H1668 0.959 . S
C1684 H1669 0.959 . S
C1684 H1670 0.961 . S
C1684 C1683 1.502 . S
C1685 H1671 0.960 . S
C1685 H1672 0.961 . S
C1685 H1673 0.959 . S
C1685 C1683 1.561 . S
C1686 C1683 1.526 . S
C1686 C1687 1.396 . S
C1686 C1691 1.390 . S
C1687 C1681 1.465 . S
C1687 C1686 1.396 . S
C1687 C1688 1.399 . S
C1688 H1674 0.929 . S
C1688 C1687 1.399 . S
C1688 C1689 1.385 . S
C1689 H1675 0.931 . S
C1689 C1688 1.385 . S
C1689 C1690 1.389 . S
C1690 C1689 1.389 . S
C1690 C1691 1.387 . S
C1691 H1676 0.930 . S
C1691 C1686 1.390 . S
C1691 C1690 1.387 . S
H1692 C1704 0.930 . S
H1693 C1706 0.930 . S
H1694 C1707 0.930 . S
H1695 C1711 0.959 . S
H1696 C1711 0.959 . S
H1697 C1711 0.961 . S
H1698 C1712 0.960 . S
H1699 C1712 0.961 . S
H1700 C1712 0.959 . S
H1701 C1715 0.929 . S
H1702 C1716 0.931 . S
H1703 C1718 0.930 . S
C1704 H1692 0.930 . S
C1704 C1705 1.399 . S
C1704 C1709 1.399 . S
C1705 C1704 1.399 . S
C1705 C1706 1.376 . S
C1706 H1693 0.930 . S
C1706 C1705 1.376 . S
C1706 C1707 1.388 . S
C1707 H1694 0.930 . S
C1707 C1706 1.388 . S
C1707 C1708 1.390 . S
C1708 C1707 1.390 . S
C1708 C1709 1.394 . S
C1708 C1714 1.465 . S
C1709 C1704 1.399 . S
C1709 C1708 1.394 . S
C1709 C1710 1.516 . S
C1710 C1709 1.516 . S
C1710 C1711 1.502 . S
C1710 C1712 1.561 . S
C1710 C1713 1.526 . S
C1711 H1695 0.959 . S
C1711 H1696 0.959 . S
C1711 H1697 0.961 . S
C1711 C1710 1.502 . S
C1712 H1698 0.960 . S
C1712 H1699 0.961 . S
C1712 H1700 0.959 . S
C1712 C1710 1.561 . S
C1713 C1710 1.526 . S
C1713 C1714 1.396 . S
C1713 C1718 1.390 . S
C1714 C1708 1.465 . S
C1714 C1713 1.396 . S
C1714 C1715 1.399 . S
C1715 H1701 0.929 . S
C1715 C1714 1.399 . S
C1715 C1716 1.385 . S
C1716 H1702 0.931 . S
C1716 C1715 1.385 . S
C1716 C1717 1.389 . S
C1717 C1716 1.389 . S
C1717 C1718 1.387 . S
C1718 H1703 0.930 . S
C1718 C1713 1.390 . S
C1718 C1717 1.387 . S
H1719 C1731 0.930 . S
H1720 C1733 0.930 . S
H1721 C1734 0.930 . S
H1722 C1738 0.959 . S
H1723 C1738 0.959 . S
H1724 C1738 0.961 . S
H1725 C1739 0.960 . S
H1726 C1739 0.961 . S
H1727 C1739 0.959 . S
H1728 C1742 0.929 . S
H1729 C1743 0.931 . S
H1730 C1745 0.930 . S
C1731 H1719 0.930 . S
C1731 C1732 1.399 . S
C1731 C1736 1.399 . S
C1732 C1731 1.399 . S
C1732 C1733 1.376 . S
C1733 H1720 0.930 . S
C1733 C1732 1.376 . S
C1733 C1734 1.388 . S
C1734 H1721 0.930 . S
C1734 C1733 1.388 . S
C1734 C1735 1.390 . S
C1735 C1734 1.390 . S
C1735 C1736 1.394 . S
C1735 C1741 1.465 . S
C1736 C1731 1.399 . S
C1736 C1735 1.394 . S
C1736 C1737 1.516 . S
C1737 C1736 1.516 . S
C1737 C1738 1.502 . S
C1737 C1739 1.561 . S
C1737 C1740 1.526 . S
C1738 H1722 0.959 . S
C1738 H1723 0.959 . S
C1738 H1724 0.961 . S
C1738 C1737 1.502 . S
C1739 H1725 0.960 . S
C1739 H1726 0.961 . S
C1739 H1727 0.959 . S
C1739 C1737 1.561 . S
C1740 C1737 1.526 . S
C1740 C1741 1.396 . S
C1740 C1745 1.390 . S
C1741 C1735 1.465 . S
C1741 C1740 1.396 . S
C1741 C1742 1.399 . S
C1742 H1728 0.929 . S
C1742 C1741 1.399 . S
C1742 C1743 1.385 . S
C1743 H1729 0.931 . S
C1743 C1742 1.385 . S
C1743 C1744 1.389 . S
C1744 C1743 1.389 . S
C1744 C1745 1.387 . S
C1745 H1730 0.930 . S
C1745 C1740 1.390 . S
C1745 C1744 1.387 . S
H1746 C1758 0.930 . S
H1747 C1760 0.930 . S
H1748 C1761 0.930 . S
H1749 C1765 0.959 . S
H1750 C1765 0.959 . S
H1751 C1765 0.961 . S
H1752 C1766 0.960 . S
H1753 C1766 0.961 . S
H1754 C1766 0.959 . S
H1755 C1769 0.929 . S
H1756 C1770 0.931 . S
H1757 C1772 0.930 . S
C1758 H1746 0.930 . S
C1758 C1759 1.399 . S
C1758 C1763 1.399 . S
C1759 C1758 1.399 . S
C1759 C1760 1.376 . S
C1760 H1747 0.930 . S
C1760 C1759 1.376 . S
C1760 C1761 1.388 . S
C1761 H1748 0.930 . S
C1761 C1760 1.388 . S
C1761 C1762 1.390 . S
C1762 C1761 1.390 . S
C1762 C1763 1.394 . S
C1762 C1768 1.465 . S
C1763 C1758 1.399 . S
C1763 C1762 1.394 . S
C1763 C1764 1.516 . S
C1764 C1763 1.516 . S
C1764 C1765 1.502 . S
C1764 C1766 1.561 . S
C1764 C1767 1.526 . S
C1765 H1749 0.959 . S
C1765 H1750 0.959 . S
C1765 H1751 0.961 . S
C1765 C1764 1.502 . S
C1766 H1752 0.960 . S
C1766 H1753 0.961 . S
C1766 H1754 0.959 . S
C1766 C1764 1.561 . S
C1767 C1764 1.526 . S
C1767 C1768 1.396 . S
C1767 C1772 1.390 . S
C1768 C1762 1.465 . S
C1768 C1767 1.396 . S
C1768 C1769 1.399 . S
C1769 H1755 0.929 . S
C1769 C1768 1.399 . S
C1769 C1770 1.385 . S
C1770 H1756 0.931 . S
C1770 C1769 1.385 . S
C1770 C1771 1.389 . S
C1771 C1770 1.389 . S
C1771 C1772 1.387 . S
C1772 H1757 0.930 . S
C1772 C1767 1.390 . S
C1772 C1771 1.387 . S
H1773 C1785 0.930 . S
H1774 C1787 0.930 . S
H1775 C1788 0.930 . S
H1776 C1792 0.959 . S
H1777 C1792 0.959 . S
H1778 C1792 0.961 . S
H1779 C1793 0.960 . S
H1780 C1793 0.961 . S
H1781 C1793 0.959 . S
H1782 C1796 0.929 . S
H1783 C1797 0.931 . S
H1784 C1799 0.930 . S
C1785 H1773 0.930 . S
C1785 C1786 1.399 . S
C1785 C1790 1.399 . S
C1786 C1785 1.399 . S
C1786 C1787 1.376 . S
C1787 H1774 0.930 . S
C1787 C1786 1.376 . S
C1787 C1788 1.388 . S
C1788 H1775 0.930 . S
C1788 C1787 1.388 . S
C1788 C1789 1.390 . S
C1789 C1788 1.390 . S
C1789 C1790 1.394 . S
C1789 C1795 1.465 . S
C1790 C1785 1.399 . S
C1790 C1789 1.394 . S
C1790 C1791 1.516 . S
C1791 C1790 1.516 . S
C1791 C1792 1.502 . S
C1791 C1793 1.561 . S
C1791 C1794 1.526 . S
C1792 H1776 0.959 . S
C1792 H1777 0.959 . S
C1792 H1778 0.961 . S
C1792 C1791 1.502 . S
C1793 H1779 0.960 . S
C1793 H1780 0.961 . S
C1793 H1781 0.959 . S
C1793 C1791 1.561 . S
C1794 C1791 1.526 . S
C1794 C1795 1.396 . S
C1794 C1799 1.390 . S
C1795 C1789 1.465 . S
C1795 C1794 1.396 . S
C1795 C1796 1.399 . S
C1796 H1782 0.929 . S
C1796 C1795 1.399 . S
C1796 C1797 1.385 . S
C1797 H1783 0.931 . S
C1797 C1796 1.385 . S
C1797 C1798 1.389 . S
C1798 C1797 1.389 . S
C1798 C1799 1.387 . S
C1799 H1784 0.930 . S
C1799 C1794 1.390 . S
C1799 C1798 1.387 . S
H1800 C1812 0.930 . S
H1801 C1814 0.930 . S
H1802 C1815 0.930 . S
H1803 C1819 0.959 . S
H1804 C1819 0.959 . S
H1805 C1819 0.961 . S
H1806 C1820 0.960 . S
H1807 C1820 0.961 . S
H1808 C1820 0.959 . S
H1809 C1823 0.929 . S
H1810 C1824 0.931 . S
H1811 C1826 0.930 . S
C1812 H1800 0.930 . S
C1812 C1813 1.399 . S
C1812 C1817 1.399 . S
C1813 C1812 1.399 . S
C1813 C1814 1.376 . S
C1814 H1801 0.930 . S
C1814 C1813 1.376 . S
C1814 C1815 1.388 . S
C1815 H1802 0.930 . S
C1815 C1814 1.388 . S
C1815 C1816 1.390 . S
C1816 C1815 1.390 . S
C1816 C1817 1.394 . S
C1816 C1822 1.465 . S
C1817 C1812 1.399 . S
C1817 C1816 1.394 . S
C1817 C1818 1.516 . S
C1818 C1817 1.516 . S
C1818 C1819 1.502 . S
C1818 C1820 1.561 . S
C1818 C1821 1.526 . S
C1819 H1803 0.959 . S
C1819 H1804 0.959 . S
C1819 H1805 0.961 . S
C1819 C1818 1.502 . S
C1820 H1806 0.960 . S
C1820 H1807 0.961 . S
C1820 H1808 0.959 . S
C1820 C1818 1.561 . S
C1821 C1818 1.526 . S
C1821 C1822 1.396 . S
C1821 C1826 1.390 . S
C1822 C1816 1.465 . S
C1822 C1821 1.396 . S
C1822 C1823 1.399 . S
C1823 H1809 0.929 . S
C1823 C1822 1.399 . S
C1823 C1824 1.385 . S
C1824 H1810 0.931 . S
C1824 C1823 1.385 . S
C1824 C1825 1.389 . S
C1825 C1824 1.389 . S
C1825 C1826 1.387 . S
C1826 H1811 0.930 . S
C1826 C1821 1.390 . S
C1826 C1825 1.387 . S
H1827 C1839 0.930 . S
H1828 C1841 0.930 . S
H1829 C1842 0.930 . S
H1830 C1846 0.959 . S
H1831 C1846 0.959 . S
H1832 C1846 0.961 . S
H1833 C1847 0.960 . S
H1834 C1847 0.961 . S
H1835 C1847 0.959 . S
H1836 C1850 0.929 . S
H1837 C1851 0.931 . S
H1838 C1853 0.930 . S
C1839 H1827 0.930 . S
C1839 C1840 1.399 . S
C1839 C1844 1.399 . S
C1840 C1839 1.399 . S
C1840 C1841 1.376 . S
C1841 H1828 0.930 . S
C1841 C1840 1.376 . S
C1841 C1842 1.388 . S
C1842 H1829 0.930 . S
C1842 C1841 1.388 . S
C1842 C1843 1.390 . S
C1843 C1842 1.390 . S
C1843 C1844 1.394 . S
C1843 C1849 1.465 . S
C1844 C1839 1.399 . S
C1844 C1843 1.394 . S
C1844 C1845 1.516 . S
C1845 C1844 1.516 . S
C1845 C1846 1.502 . S
C1845 C1847 1.561 . S
C1845 C1848 1.526 . S
C1846 H1830 0.959 . S
C1846 H1831 0.959 . S
C1846 H1832 0.961 . S
C1846 C1845 1.502 . S
C1847 H1833 0.960 . S
C1847 H1834 0.961 . S
C1847 H1835 0.959 . S
C1847 C1845 1.561 . S
C1848 C1845 1.526 . S
C1848 C1849 1.396 . S
C1848 C1853 1.390 . S
C1849 C1843 1.465 . S
C1849 C1848 1.396 . S
C1849 C1850 1.399 . S
C1850 H1836 0.929 . S
C1850 C1849 1.399 . S
C1850 C1851 1.385 . S
C1851 H1837 0.931 . S
C1851 C1850 1.385 . S
C1851 C1852 1.389 . S
C1852 C1851 1.389 . S
C1852 C1853 1.387 . S
C1853 H1838 0.930 . S
C1853 C1848 1.390 . S
C1853 C1852 1.387 . S
H1854 C1866 0.930 . S
H1855 C1868 0.930 . S
H1856 C1869 0.930 . S
H1857 C1873 0.959 . S
H1858 C1873 0.959 . S
H1859 C1873 0.961 . S
H1860 C1874 0.960 . S
H1861 C1874 0.961 . S
H1862 C1874 0.959 . S
H1863 C1877 0.929 . S
H1864 C1878 0.931 . S
H1865 C1880 0.930 . S
C1866 H1854 0.930 . S
C1866 C1867 1.399 . S
C1866 C1871 1.399 . S
C1867 C1866 1.399 . S
C1867 C1868 1.376 . S
C1868 H1855 0.930 . S
C1868 C1867 1.376 . S
C1868 C1869 1.388 . S
C1869 H1856 0.930 . S
C1869 C1868 1.388 . S
C1869 C1870 1.390 . S
C1870 C1869 1.390 . S
C1870 C1871 1.394 . S
C1870 C1876 1.465 . S
C1871 C1866 1.399 . S
C1871 C1870 1.394 . S
C1871 C1872 1.516 . S
C1872 C1871 1.516 . S
C1872 C1873 1.502 . S
C1872 C1874 1.561 . S
C1872 C1875 1.526 . S
C1873 H1857 0.959 . S
C1873 H1858 0.959 . S
C1873 H1859 0.961 . S
C1873 C1872 1.502 . S
C1874 H1860 0.960 . S
C1874 H1861 0.961 . S
C1874 H1862 0.959 . S
C1874 C1872 1.561 . S
C1875 C1872 1.526 . S
C1875 C1876 1.396 . S
C1875 C1880 1.390 . S
C1876 C1870 1.465 . S
C1876 C1875 1.396 . S
C1876 C1877 1.399 . S
C1877 H1863 0.929 . S
C1877 C1876 1.399 . S
C1877 C1878 1.385 . S
C1878 H1864 0.931 . S
C1878 C1877 1.385 . S
C1878 C1879 1.389 . S
C1879 C1878 1.389 . S
C1879 C1880 1.387 . S
C1880 H1865 0.930 . S
C1880 C1875 1.390 . S
C1880 C1879 1.387 . S
H1881 C1893 0.931 . S
H1882 C1895 0.930 . S
H1883 C1896 0.930 . S
H1884 C1900 0.959 . S
H1885 C1900 0.959 . S
H1886 C1900 0.961 . S
H1887 C1901 0.960 . S
H1888 C1901 0.961 . S
H1889 C1901 0.959 . S
H1890 C1904 0.929 . S
H1891 C1905 0.931 . S
H1892 C1907 0.930 . S
C1893 H1881 0.931 . S
C1893 C1894 1.395 1_554 S
C1893 C1898 1.402 . S
C1894 C1893 1.395 1_556 S
C1894 C1895 1.376 . S
C1895 H1882 0.930 . S
C1895 C1894 1.376 . S
C1895 C1896 1.388 . S
C1896 H1883 0.930 . S
C1896 C1895 1.388 . S
C1896 C1897 1.390 1_556 S
C1897 C1896 1.390 1_554 S
C1897 C1898 1.394 . S
C1897 C1903 1.465 . S
C1898 C1893 1.402 . S
C1898 C1897 1.394 . S
C1898 C1899 1.516 . S
C1899 C1898 1.516 . S
C1899 C1900 1.502 . S
C1899 C1901 1.561 . S
C1899 C1902 1.526 . S
C1900 H1884 0.959 . S
C1900 H1885 0.959 . S
C1900 H1886 0.961 . S
C1900 C1899 1.502 . S
C1901 H1887 0.960 . S
C1901 H1888 0.961 . S
C1901 H1889 0.959 . S
C1901 C1899 1.561 . S
C1902 C1899 1.526 . S
C1902 C1903 1.396 . S
C1902 C1907 1.390 . S
C1903 C1897 1.465 . S
C1903 C1902 1.396 . S
C1903 C1904 1.399 . S
C1904 H1890 0.929 . S
C1904 C1903 1.399 . S
C1904 C1905 1.385 . S
C1905 H1891 0.931 . S
C1905 C1904 1.385 . S
C1905 C1906 1.389 . S
C1906 C1905 1.389 . S
C1906 C1907 1.387 . S
C1907 H1892 0.930 . S
C1907 C1902 1.390 . S
C1907 C1906 1.387 . S
H1908 C1920 0.930 . S
H1909 C1922 0.930 . S
H1910 C1923 0.930 . S
H1911 C1927 0.959 . S
H1912 C1927 0.959 . S
H1913 C1927 0.961 . S
H1914 C1928 0.960 . S
H1915 C1928 0.961 . S
H1916 C1928 0.959 . S
H1917 C1931 0.929 . S
H1918 C1932 0.931 . S
H1919 C1934 0.930 . S
C1920 H1908 0.930 . S
C1920 C1921 1.399 . S
C1920 C1925 1.399 1_556 S
C1921 C1920 1.399 . S
C1921 C1922 1.376 . S
C1922 H1909 0.930 . S
C1922 C1921 1.376 . S
C1922 C1923 1.388 . S
C1923 H1910 0.930 . S
C1923 C1922 1.388 . S
C1923 C1924 1.390 1_556 S
C1924 C1923 1.390 1_554 S
C1924 C1925 1.394 . S
C1924 C1930 1.465 . S
C1925 C1920 1.399 1_554 S
C1925 C1924 1.394 . S
C1925 C1926 1.516 . S
C1926 C1925 1.516 . S
C1926 C1927 1.502 . S
C1926 C1928 1.561 . S
C1926 C1929 1.526 . S
C1927 H1911 0.959 . S
C1927 H1912 0.959 . S
C1927 H1913 0.961 . S
C1927 C1926 1.502 . S
C1928 H1914 0.960 . S
C1928 H1915 0.961 . S
C1928 H1916 0.959 . S
C1928 C1926 1.561 . S
C1929 C1926 1.526 . S
C1929 C1930 1.396 . S
C1929 C1934 1.390 . S
C1930 C1924 1.465 . S
C1930 C1929 1.396 . S
C1930 C1931 1.399 . S
C1931 H1917 0.929 . S
C1931 C1930 1.399 . S
C1931 C1932 1.385 . S
C1932 H1918 0.931 . S
C1932 C1931 1.385 . S
C1932 C1933 1.389 . S
C1933 C1932 1.389 . S
C1933 C1934 1.387 . S
C1934 H1919 0.930 . S
C1934 C1929 1.390 . S
C1934 C1933 1.387 . S
H1935 C1947 0.930 . S
H1936 C1949 0.930 . S
H1937 C1950 0.930 . S
H1938 C1954 0.959 . S
H1939 C1954 0.959 . S
H1940 C1954 0.961 . S
H1941 C1955 0.960 1_556 S
H1942 C1955 0.961 . S
H1943 C1955 0.959 1_556 S
H1944 C1958 0.929 . S
H1945 C1959 0.931 . S
H1946 C1961 0.930 . S
C1947 H1935 0.930 . S
C1947 C1948 1.399 . S
C1947 C1952 1.399 1_556 S
C1948 C1947 1.399 . S
C1948 C1949 1.376 . S
C1949 H1936 0.930 . S
C1949 C1948 1.376 . S
C1949 C1950 1.388 1_556 S
C1950 H1937 0.930 . S
C1950 C1949 1.388 1_554 S
C1950 C1951 1.390 . S
C1951 C1950 1.390 . S
C1951 C1952 1.394 . S
C1951 C1957 1.465 . S
C1952 C1947 1.399 1_554 S
C1952 C1951 1.394 . S
C1952 C1953 1.516 . S
C1953 C1952 1.516 . S
C1953 C1954 1.502 . S
C1953 C1955 1.561 . S
C1953 C1956 1.526 . S
C1954 H1938 0.959 . S
C1954 H1939 0.959 . S
C1954 H1940 0.961 . S
C1954 C1953 1.502 . S
C1955 H1941 0.960 1_554 S
C1955 H1942 0.961 . S
C1955 H1943 0.959 1_554 S
C1955 C1953 1.561 . S
C1956 C1953 1.526 . S
C1956 C1957 1.396 . S
C1956 C1961 1.390 . S
C1957 C1951 1.465 . S
C1957 C1956 1.396 . S
C1957 C1958 1.399 . S
C1958 H1944 0.929 . S
C1958 C1957 1.399 . S
C1958 C1959 1.385 . S
C1959 H1945 0.931 . S
C1959 C1958 1.385 . S
C1959 C1960 1.389 . S
C1960 C1959 1.389 . S
C1960 C1961 1.387 . S
C1961 H1946 0.930 . S
C1961 C1956 1.390 . S
C1961 C1960 1.387 . S
H1962 C1974 0.930 . S
H1963 C1976 0.930 . S
H1964 C1977 0.930 . S
H1965 C1981 0.959 . S
H1966 C1981 0.959 . S
H1967 C1981 0.961 . S
H1968 C1982 0.960 . S
H1969 C1982 0.961 . S
H1970 C1982 0.959 . S
H1971 C1985 0.929 1_556 S
H1972 C1986 0.931 . S
H1973 C1988 0.930 . S
C1974 H1962 0.930 . S
C1974 C1975 1.399 . S
C1974 C1979 1.399 . S
C1975 C1974 1.399 . S
C1975 C1976 1.376 1_554 S
C1976 H1963 0.930 . S
C1976 C1975 1.376 1_556 S
C1976 C1977 1.388 . S
C1977 H1964 0.930 . S
C1977 C1976 1.388 . S
C1977 C1978 1.390 1_556 S
C1978 C1977 1.390 1_554 S
C1978 C1979 1.394 . S
C1978 C1984 1.465 . S
C1979 C1974 1.399 . S
C1979 C1978 1.394 . S
C1979 C1980 1.516 . S
C1980 C1979 1.516 . S
C1980 C1981 1.502 . S
C1980 C1982 1.561 . S
C1980 C1983 1.526 . S
C1981 H1965 0.959 . S
C1981 H1966 0.959 . S
C1981 H1967 0.961 . S
C1981 C1980 1.502 . S
C1982 H1968 0.960 . S
C1982 H1969 0.961 . S
C1982 H1970 0.959 . S
C1982 C1980 1.561 . S
C1983 C1980 1.526 . S
C1983 C1984 1.396 . S
C1983 C1988 1.390 . S
C1984 C1978 1.465 . S
C1984 C1983 1.396 . S
C1984 C1985 1.399 . S
C1985 H1971 0.929 1_554 S
C1985 C1984 1.399 . S
C1985 C1986 1.385 . S
C1986 H1972 0.931 . S
C1986 C1985 1.385 . S
C1986 C1987 1.389 . S
C1987 C1986 1.389 . S
C1987 C1988 1.387 . S
C1988 H1973 0.930 . S
C1988 C1983 1.390 . S
C1988 C1987 1.387 . S
H1989 C2001 0.930 . S
H1990 C2003 0.930 . S
H1991 C2004 0.930 . S
H1992 C2008 0.959 . S
H1993 C2008 0.959 . S
H1994 C2008 0.961 . S
H1995 C2009 0.960 . S
H1996 C2009 0.961 . S
H1997 C2009 0.959 . S
H1998 C2012 0.929 1_556 S
H1999 C2013 0.931 1_556 S
H2000 C2015 0.930 . S
C2001 H1989 0.930 . S
C2001 C2002 1.399 . S
C2001 C2006 1.399 . S
C2002 C2001 1.399 . S
C2002 C2003 1.376 . S
C2003 H1990 0.930 . S
C2003 C2002 1.376 . S
C2003 C2004 1.388 . S
C2004 H1991 0.930 . S
C2004 C2003 1.388 . S
C2004 C2005 1.390 . S
C2005 C2004 1.390 . S
C2005 C2006 1.394 . S
C2005 C2011 1.465 . S
C2006 C2001 1.399 . S
C2006 C2005 1.394 . S
C2006 C2007 1.516 . S
C2007 C2006 1.516 . S
C2007 C2008 1.502 . S
C2007 C2009 1.561 . S
C2007 C2010 1.526 . S
C2008 H1992 0.959 . S
C2008 H1993 0.959 . S
C2008 H1994 0.961 . S
C2008 C2007 1.502 . S
C2009 H1995 0.960 . S
C2009 H1996 0.961 . S
C2009 H1997 0.959 . S
C2009 C2007 1.561 . S
C2010 C2007 1.526 . S
C2010 C2011 1.396 . S
C2010 C2015 1.390 . S
C2011 C2005 1.465 . S
C2011 C2010 1.396 . S
C2011 C2012 1.399 . S
C2012 H1998 0.929 1_554 S
C2012 C2011 1.399 . S
C2012 C2013 1.385 . S
C2013 H1999 0.931 1_554 S
C2013 C2012 1.385 . S
C2013 C2014 1.389 . S
C2014 C2013 1.389 . S
C2014 C2015 1.387 . S
C2015 H2000 0.930 . S
C2015 C2010 1.390 . S
C2015 C2014 1.387 . S
H2016 C2028 0.930 . S
H2017 C2030 0.930 1_556 S
H2018 C2031 0.930 1_556 S
H2019 C2035 0.959 . S
H2020 C2035 0.959 . S
H2021 C2035 0.961 . S
H2022 C2036 0.960 . S
H2023 C2036 0.961 . S
H2024 C2036 0.959 . S
H2025 C2039 0.929 . S
H2026 C2040 0.931 . S
H2027 C2042 0.930 . S
C2028 H2016 0.930 . S
C2028 C2029 1.399 . S
C2028 C2033 1.399 . S
C2029 C2028 1.399 . S
C2029 C2030 1.376 . S
C2030 H2017 0.930 1_554 S
C2030 C2029 1.376 . S
C2030 C2031 1.388 . S
C2031 H2018 0.930 1_554 S
C2031 C2030 1.388 . S
C2031 C2032 1.390 . S
C2032 C2031 1.390 . S
C2032 C2033 1.394 . S
C2032 C2038 1.465 . S
C2033 C2028 1.399 . S
C2033 C2032 1.394 . S
C2033 C2034 1.516 . S
C2034 C2033 1.516 . S
C2034 C2035 1.502 . S
C2034 C2036 1.561 . S
C2034 C2037 1.526 . S
C2035 H2019 0.959 . S
C2035 H2020 0.959 . S
C2035 H2021 0.961 . S
C2035 C2034 1.502 . S
C2036 H2022 0.960 . S
C2036 H2023 0.961 . S
C2036 H2024 0.959 . S
C2036 C2034 1.561 . S
C2037 C2034 1.526 . S
C2037 C2038 1.396 . S
C2037 C2042 1.390 . S
C2038 C2032 1.465 . S
C2038 C2037 1.396 . S
C2038 C2039 1.399 . S
C2039 H2025 0.929 . S
C2039 C2038 1.399 . S
C2039 C2040 1.385 . S
C2040 H2026 0.931 . S
C2040 C2039 1.385 . S
C2040 C2041 1.389 . S
C2041 C2040 1.389 . S
C2041 C2042 1.387 . S
C2042 H2027 0.930 . S
C2042 C2037 1.390 . S
C2042 C2041 1.387 . S
H2043 C2055 0.930 . S
H2044 C2057 0.930 . S
H2045 C2058 0.930 . S
H2046 C2062 0.959 . S
H2047 C2062 0.959 . S
H2048 C2062 0.961 . S
H2049 C2063 0.960 . S
H2050 C2063 0.961 . S
H2051 C2063 0.959 . S
H2052 C2066 0.929 . S
H2053 C2067 0.931 . S
H2054 C2069 0.930 . S
C2055 H2043 0.930 . S
C2055 C2056 1.399 . S
C2055 C2060 1.399 . S
C2056 C2055 1.399 . S
C2056 C2057 1.376 . S
C2057 H2044 0.930 . S
C2057 C2056 1.376 . S
C2057 C2058 1.388 . S
C2058 H2045 0.930 . S
C2058 C2057 1.388 . S
C2058 C2059 1.390 . S
C2059 C2058 1.390 . S
C2059 C2060 1.394 . S
C2059 C2065 1.465 . S
C2060 C2055 1.399 . S
C2060 C2059 1.394 . S
C2060 C2061 1.516 . S
C2061 C2060 1.516 . S
C2061 C2062 1.502 . S
C2061 C2063 1.561 . S
C2061 C2064 1.526 . S
C2062 H2046 0.959 . S
C2062 H2047 0.959 . S
C2062 H2048 0.961 . S
C2062 C2061 1.502 . S
C2063 H2049 0.960 . S
C2063 H2050 0.961 . S
C2063 H2051 0.959 . S
C2063 C2061 1.561 . S
C2064 C2061 1.526 . S
C2064 C2065 1.396 . S
C2064 C2069 1.390 . S
C2065 C2059 1.465 . S
C2065 C2064 1.396 . S
C2065 C2066 1.399 . S
C2066 H2052 0.929 . S
C2066 C2065 1.399 . S
C2066 C2067 1.385 . S
C2067 H2053 0.931 . S
C2067 C2066 1.385 . S
C2067 C2068 1.389 . S
C2068 C2067 1.389 . S
C2068 C2069 1.387 . S
C2069 H2054 0.930 . S
C2069 C2064 1.390 . S
C2069 C2068 1.387 . S
H2070 C2082 0.930 . S
H2071 C2084 0.930 . S
H2072 C2085 0.930 . S
H2073 C2089 0.959 . S
H2074 C2089 0.959 . S
H2075 C2089 0.961 . S
H2076 C2090 0.960 . S
H2077 C2090 0.961 . S
H2078 C2090 0.959 . S
H2079 C2093 0.929 . S
H2080 C2094 0.931 . S
H2081 C2096 0.930 . S
C2082 H2070 0.930 . S
C2082 C2083 1.399 . S
C2082 C2087 1.399 . S
C2083 C2082 1.399 . S
C2083 C2084 1.376 . S
C2084 H2071 0.930 . S
C2084 C2083 1.376 . S
C2084 C2085 1.388 . S
C2085 H2072 0.930 . S
C2085 C2084 1.388 . S
C2085 C2086 1.390 . S
C2086 C2085 1.390 . S
C2086 C2087 1.394 . S
C2086 C2092 1.465 . S
C2087 C2082 1.399 . S
C2087 C2086 1.394 . S
C2087 C2088 1.516 . S
C2088 C2087 1.516 . S
C2088 C2089 1.502 . S
C2088 C2090 1.561 . S
C2088 C2091 1.526 . S
C2089 H2073 0.959 . S
C2089 H2074 0.959 . S
C2089 H2075 0.961 . S
C2089 C2088 1.502 . S
C2090 H2076 0.960 . S
C2090 H2077 0.961 . S
C2090 H2078 0.959 . S
C2090 C2088 1.561 . S
C2091 C2088 1.526 . S
C2091 C2092 1.396 . S
C2091 C2096 1.390 . S
C2092 C2086 1.465 . S
C2092 C2091 1.396 . S
C2092 C2093 1.399 . S
C2093 H2079 0.929 . S
C2093 C2092 1.399 . S
C2093 C2094 1.385 . S
C2094 H2080 0.931 . S
C2094 C2093 1.385 . S
C2094 C2095 1.389 . S
C2095 C2094 1.389 . S
C2095 C2096 1.387 . S
C2096 H2081 0.930 . S
C2096 C2091 1.390 . S
C2096 C2095 1.387 . S
H2097 C2109 0.930 . S
H2098 C2111 0.930 . S
H2099 C2112 0.930 . S
H2100 C2116 0.959 . S
H2101 C2116 0.959 . S
H2102 C2116 0.961 . S
H2103 C2117 0.960 . S
H2104 C2117 0.961 . S
H2105 C2117 0.959 . S
H2106 C2120 0.929 . S
H2107 C2121 0.931 . S
H2108 C2123 0.930 . S
C2109 H2097 0.930 . S
C2109 C2110 1.399 . S
C2109 C2114 1.399 . S
C2110 C2109 1.399 . S
C2110 C2111 1.376 . S
C2111 H2098 0.930 . S
C2111 C2110 1.376 . S
C2111 C2112 1.388 . S
C2112 H2099 0.930 . S
C2112 C2111 1.388 . S
C2112 C2113 1.390 . S
C2113 C2112 1.390 . S
C2113 C2114 1.394 . S
C2113 C2119 1.465 . S
C2114 C2109 1.399 . S
C2114 C2113 1.394 . S
C2114 C2115 1.516 . S
C2115 C2114 1.516 . S
C2115 C2116 1.502 . S
C2115 C2117 1.561 . S
C2115 C2118 1.526 . S
C2116 H2100 0.959 . S
C2116 H2101 0.959 . S
C2116 H2102 0.961 . S
C2116 C2115 1.502 . S
C2117 H2103 0.960 . S
C2117 H2104 0.961 . S
C2117 H2105 0.959 . S
C2117 C2115 1.561 . S
C2118 C2115 1.526 . S
C2118 C2119 1.396 . S
C2118 C2123 1.390 . S
C2119 C2113 1.465 . S
C2119 C2118 1.396 . S
C2119 C2120 1.399 . S
C2120 H2106 0.929 . S
C2120 C2119 1.399 . S
C2120 C2121 1.385 . S
C2121 H2107 0.931 . S
C2121 C2120 1.385 . S
C2121 C2122 1.389 . S
C2122 C2121 1.389 . S
C2122 C2123 1.387 . S
C2123 H2108 0.930 . S
C2123 C2118 1.390 . S
C2123 C2122 1.387 . S
H2124 C2136 0.930 . S
H2125 C2138 0.930 . S
H2126 C2139 0.930 1_554 S
H2127 C2143 0.959 . S
H2128 C2143 0.959 . S
H2129 C2143 0.961 . S
H2130 C2144 0.960 . S
H2131 C2144 0.961 . S
H2132 C2144 0.959 . S
H2133 C2147 0.929 . S
H2134 C2148 0.931 . S
H2135 C2150 0.930 . S
C2136 H2124 0.930 . S
C2136 C2137 1.399 . S
C2136 C2141 1.399 . S
C2137 C2136 1.399 . S
C2137 C2138 1.376 . S
C2138 H2125 0.930 . S
C2138 C2137 1.376 . S
C2138 C2139 1.388 . S
C2139 H2126 0.930 1_556 S
C2139 C2138 1.388 . S
C2139 C2140 1.390 . S
C2140 C2139 1.390 . S
C2140 C2141 1.394 . S
C2140 C2146 1.465 . S
C2141 C2136 1.399 . S
C2141 C2140 1.394 . S
C2141 C2142 1.516 . S
C2142 C2141 1.516 . S
C2142 C2143 1.502 . S
C2142 C2144 1.561 . S
C2142 C2145 1.526 . S
C2143 H2127 0.959 . S
C2143 H2128 0.959 . S
C2143 H2129 0.961 . S
C2143 C2142 1.502 . S
C2144 H2130 0.960 . S
C2144 H2131 0.961 . S
C2144 H2132 0.959 . S
C2144 C2142 1.561 . S
C2145 C2142 1.526 . S
C2145 C2146 1.396 . S
C2145 C2150 1.390 . S
C2146 C2140 1.465 . S
C2146 C2145 1.396 . S
C2146 C2147 1.399 1_556 S
C2147 H2133 0.929 . S
C2147 C2146 1.399 1_554 S
C2147 C2148 1.385 . S
C2148 H2134 0.931 . S
C2148 C2147 1.385 . S
C2148 C2149 1.389 1_554 S
C2149 C2148 1.389 1_556 S
C2149 C2150 1.387 . S
C2150 H2135 0.930 . S
C2150 C2145 1.390 . S
C2150 C2149 1.387 . S
H2151 C2163 0.930 . S
H2152 C2165 0.930 1_554 S
H2153 C2166 0.930 1_554 S
H2154 C2170 0.959 . S
H2155 C2170 0.959 . S
H2156 C2170 0.961 . S
H2157 C2171 0.960 . S
H2158 C2171 0.961 . S
H2159 C2171 0.959 . S
H2160 C2174 0.929 1_554 S
H2161 C2175 0.931 . S
H2162 C2177 0.930 . S
C2163 H2151 0.930 . S
C2163 C2164 1.399 . S
C2163 C2168 1.399 . S
C2164 C2163 1.399 . S
C2164 C2165 1.376 . S
C2165 H2152 0.930 1_556 S
C2165 C2164 1.376 . S
C2165 C2166 1.388 . S
C2166 H2153 0.930 1_556 S
C2166 C2165 1.388 . S
C2166 C2167 1.390 . S
C2167 C2166 1.390 . S
C2167 C2168 1.394 . S
C2167 C2173 1.465 . S
C2168 C2163 1.399 . S
C2168 C2167 1.394 . S
C2168 C2169 1.516 . S
C2169 C2168 1.516 . S
C2169 C2170 1.502 . S
C2169 C2171 1.561 . S
C2169 C2172 1.526 . S
C2170 H2154 0.959 . S
C2170 H2155 0.959 . S
C2170 H2156 0.961 . S
C2170 C2169 1.502 . S
C2171 H2157 0.960 . S
C2171 H2158 0.961 . S
C2171 H2159 0.959 . S
C2171 C2169 1.561 . S
C2172 C2169 1.526 . S
C2172 C2173 1.396 . S
C2172 C2177 1.390 . S
C2173 C2167 1.465 . S
C2173 C2172 1.396 . S
C2173 C2174 1.399 . S
C2174 H2160 0.929 1_556 S
C2174 C2173 1.399 . S
C2174 C2175 1.385 . S
C2175 H2161 0.931 . S
C2175 C2174 1.385 . S
C2175 C2176 1.389 . S
C2176 C2175 1.389 . S
C2176 C2177 1.387 . S
C2177 H2162 0.930 . S
C2177 C2172 1.390 . S
C2177 C2176 1.387 . S
H2178 C2190 0.930 . S
H2179 C2192 0.930 . S
H2180 C2193 0.930 . S
H2181 C2197 0.959 . S
H2182 C2197 0.959 . S
H2183 C2197 0.961 . S
H2184 C2198 0.960 . S
H2185 C2198 0.961 . S
H2186 C2198 0.959 . S
H2187 C2201 0.929 . S
H2188 C2202 0.931 . S
H2189 C2204 0.933 . S
C2190 H2178 0.930 . S
C2190 C2191 1.399 . S
C2190 C2195 1.399 . S
C2191 C2190 1.399 . S
C2191 C2192 1.376 . S
C2192 H2179 0.930 . S
C2192 C2191 1.376 . S
C2192 C2193 1.388 . S
C2193 H2180 0.930 . S
C2193 C2192 1.388 . S
C2193 C2194 1.390 . S
C2194 C2193 1.390 . S
C2194 C2195 1.394 . S
C2194 C2200 1.465 . S
C2195 C2190 1.399 . S
C2195 C2194 1.394 . S
C2195 C2196 1.516 . S
C2196 C2195 1.516 . S
C2196 C2197 1.502 . S
C2196 C2198 1.561 1_556 S
C2196 C2199 1.526 . S
C2197 H2181 0.959 . S
C2197 H2182 0.959 . S
C2197 H2183 0.961 . S
C2197 C2196 1.502 . S
C2198 H2184 0.960 . S
C2198 H2185 0.961 . S
C2198 H2186 0.959 . S
C2198 C2196 1.561 1_554 S
C2199 C2196 1.526 . S
C2199 C2200 1.396 . S
C2199 C2204 1.390 . S
C2200 C2194 1.465 . S
C2200 C2199 1.396 . S
C2200 C2201 1.399 . S
C2201 H2187 0.929 . S
C2201 C2200 1.399 . S
C2201 C2202 1.385 . S
C2202 H2188 0.931 . S
C2202 C2201 1.385 . S
C2202 C2203 1.389 . S
C2203 C2202 1.389 . S
C2203 C2204 1.387 . S
C2204 H2189 0.933 . S
C2204 C2199 1.390 . S
C2204 C2203 1.387 . S
H2205 C2217 0.930 . S
H2206 C2219 0.930 . S
H2207 C2220 0.930 . S
H2208 C2224 0.959 . S
H2209 C2224 0.959 . S
H2210 C2224 0.961 . S
H2211 C2225 0.960 . S
H2212 C2225 0.961 . S
H2213 C2225 0.959 . S
H2214 C2228 0.929 . S
H2215 C2229 0.931 . S
H2216 C2231 0.930 . S
C2217 H2205 0.930 . S
C2217 C2218 1.399 . S
C2217 C2222 1.399 . S
C2218 C2217 1.399 . S
C2218 C2219 1.376 . S
C2219 H2206 0.930 . S
C2219 C2218 1.376 . S
C2219 C2220 1.388 . S
C2220 H2207 0.930 . S
C2220 C2219 1.388 . S
C2220 C2221 1.390 . S
C2221 C2220 1.390 . S
C2221 C2222 1.394 . S
C2221 C2227 1.465 . S
C2222 C2217 1.399 . S
C2222 C2221 1.394 . S
C2222 C2223 1.516 . S
C2223 C2222 1.516 . S
C2223 C2224 1.502 . S
C2223 C2225 1.561 . S
C2223 C2226 1.526 . S
C2224 H2208 0.959 . S
C2224 H2209 0.959 . S
C2224 H2210 0.961 . S
C2224 C2223 1.502 . S
C2225 H2211 0.960 . S
C2225 H2212 0.961 . S
C2225 H2213 0.959 . S
C2225 C2223 1.561 . S
C2226 C2223 1.526 . S
C2226 C2227 1.396 . S
C2226 C2231 1.390 . S
C2227 C2221 1.465 . S
C2227 C2226 1.396 . S
C2227 C2228 1.399 . S
C2228 H2214 0.929 . S
C2228 C2227 1.399 . S
C2228 C2229 1.385 . S
C2229 H2215 0.931 . S
C2229 C2228 1.385 . S
C2229 C2230 1.389 . S
C2230 C2229 1.389 . S
C2230 C2231 1.387 . S
C2231 H2216 0.930 . S
C2231 C2226 1.390 . S
C2231 C2230 1.387 . S
H2232 C2244 0.930 . S
H2233 C2246 0.930 . S
H2234 C2247 0.930 . S
H2235 C2251 0.959 . S
H2236 C2251 0.959 . S
H2237 C2251 0.961 . S
H2238 C2252 0.960 . S
H2239 C2252 0.961 . S
H2240 C2252 0.959 . S
H2241 C2255 0.929 . S
H2242 C2256 0.931 . S
H2243 C2258 0.930 . S
C2244 H2232 0.930 . S
C2244 C2245 1.399 . S
C2244 C2249 1.399 . S
C2245 C2244 1.399 . S
C2245 C2246 1.376 . S
C2246 H2233 0.930 . S
C2246 C2245 1.376 . S
C2246 C2247 1.388 . S
C2247 H2234 0.930 . S
C2247 C2246 1.388 . S
C2247 C2248 1.390 . S
C2248 C2247 1.390 . S
C2248 C2249 1.394 . S
C2248 C2254 1.465 . S
C2249 C2244 1.399 . S
C2249 C2248 1.394 . S
C2249 C2250 1.516 . S
C2250 C2249 1.516 . S
C2250 C2251 1.502 . S
C2250 C2252 1.561 . S
C2250 C2253 1.526 . S
C2251 H2235 0.959 . S
C2251 H2236 0.959 . S
C2251 H2237 0.961 . S
C2251 C2250 1.502 . S
C2252 H2238 0.960 . S
C2252 H2239 0.961 . S
C2252 H2240 0.959 . S
C2252 C2250 1.561 . S
C2253 C2250 1.526 . S
C2253 C2254 1.396 . S
C2253 C2258 1.390 . S
C2254 C2248 1.465 . S
C2254 C2253 1.396 . S
C2254 C2255 1.399 . S
C2255 H2241 0.929 . S
C2255 C2254 1.399 . S
C2255 C2256 1.385 . S
C2256 H2242 0.931 . S
C2256 C2255 1.385 . S
C2256 C2257 1.389 . S
C2257 C2256 1.389 . S
C2257 C2258 1.387 . S
C2258 H2243 0.930 . S
C2258 C2253 1.390 . S
C2258 C2257 1.387 . S
H2259 C2271 0.930 . S
H2260 C2273 0.930 . S
H2261 C2274 0.930 . S
H2262 C2278 0.959 . S
H2263 C2278 0.959 . S
H2264 C2278 0.961 . S
H2265 C2279 0.960 . S
H2266 C2279 0.961 . S
H2267 C2279 0.959 . S
H2268 C2282 0.929 . S
H2269 C2283 0.931 . S
H2270 C2285 0.930 . S
C2271 H2259 0.930 . S
C2271 C2272 1.399 . S
C2271 C2276 1.399 . S
C2272 C2271 1.399 . S
C2272 C2273 1.376 . S
C2273 H2260 0.930 . S
C2273 C2272 1.376 . S
C2273 C2274 1.388 . S
C2274 H2261 0.930 . S
C2274 C2273 1.388 . S
C2274 C2275 1.390 . S
C2275 C2274 1.390 . S
C2275 C2276 1.394 . S
C2275 C2281 1.465 . S
C2276 C2271 1.399 . S
C2276 C2275 1.394 . S
C2276 C2277 1.516 . S
C2277 C2276 1.516 . S
C2277 C2278 1.502 . S
C2277 C2279 1.561 . S
C2277 C2280 1.526 . S
C2278 H2262 0.959 . S
C2278 H2263 0.959 . S
C2278 H2264 0.961 . S
C2278 C2277 1.502 . S
C2279 H2265 0.960 . S
C2279 H2266 0.961 . S
C2279 H2267 0.959 . S
C2279 C2277 1.561 . S
C2280 C2277 1.526 . S
C2280 C2281 1.396 . S
C2280 C2285 1.390 . S
C2281 C2275 1.465 . S
C2281 C2280 1.396 . S
C2281 C2282 1.399 . S
C2282 H2268 0.929 . S
C2282 C2281 1.399 . S
C2282 C2283 1.385 . S
C2283 H2269 0.931 . S
C2283 C2282 1.385 . S
C2283 C2284 1.389 . S
C2284 C2283 1.389 . S
C2284 C2285 1.387 . S
C2285 H2270 0.930 . S
C2285 C2280 1.390 . S
C2285 C2284 1.387 . S
H2286 C2298 0.930 . S
H2287 C2300 0.930 . S
H2288 C2301 0.930 . S
H2289 C2305 0.959 . S
H2290 C2305 0.959 . S
H2291 C2305 0.961 1_455 S
H2292 C2306 0.960 1_455 S
H2293 C2306 0.961 . S
H2294 C2306 0.959 . S
H2295 C2309 0.929 . S
H2296 C2310 0.931 . S
H2297 C2312 0.930 . S
C2298 H2286 0.930 . S
C2298 C2299 1.399 . S
C2298 C2303 1.399 . S
C2299 C2298 1.399 . S
C2299 C2300 1.376 . S
C2300 H2287 0.930 . S
C2300 C2299 1.376 . S
C2300 C2301 1.388 . S
C2301 H2288 0.930 . S
C2301 C2300 1.388 . S
C2301 C2302 1.390 . S
C2302 C2301 1.390 . S
C2302 C2303 1.394 . S
C2302 C2308 1.465 1_455 S
C2303 C2298 1.399 . S
C2303 C2302 1.394 . S
C2303 C2304 1.516 1_455 S
C2304 C2303 1.516 1_655 S
C2304 C2305 1.502 . S
C2304 C2306 1.561 . S
C2304 C2307 1.526 . S
C2305 H2289 0.959 . S
C2305 H2290 0.959 . S
C2305 H2291 0.961 1_655 S
C2305 C2304 1.502 . S
C2306 H2292 0.960 1_655 S
C2306 H2293 0.961 . S
C2306 H2294 0.959 . S
C2306 C2304 1.561 . S
C2307 C2304 1.526 . S
C2307 C2308 1.396 . S
C2307 C2312 1.390 . S
C2308 C2302 1.465 1_655 S
C2308 C2307 1.396 . S
C2308 C2309 1.399 . S
C2309 H2295 0.929 . S
C2309 C2308 1.399 . S
C2309 C2310 1.385 . S
C2310 H2296 0.931 . S
C2310 C2309 1.385 . S
C2310 C2311 1.389 . S
C2311 C2310 1.389 . S
C2311 C2312 1.387 . S
C2312 H2297 0.930 . S
C2312 C2307 1.390 . S
C2312 C2311 1.387 . S
H2313 C2325 0.930 . S
H2314 C2327 0.930 . S
H2315 C2328 0.930 . S
H2316 C2332 0.959 . S
H2317 C2332 0.959 . S
H2318 C2332 0.961 . S
H2319 C2333 0.960 . S
H2320 C2333 0.961 . S
H2321 C2333 0.959 . S
H2322 C2336 0.929 . S
H2323 C2337 0.931 . S
H2324 C2339 0.930 . S
C2325 H2313 0.930 . S
C2325 C2326 1.399 . S
C2325 C2330 1.399 . S
C2326 C2325 1.399 . S
C2326 C2327 1.376 . S
C2327 H2314 0.930 . S
C2327 C2326 1.376 . S
C2327 C2328 1.388 . S
C2328 H2315 0.930 . S
C2328 C2327 1.388 . S
C2328 C2329 1.390 . S
C2329 C2328 1.390 . S
C2329 C2330 1.394 . S
C2329 C2335 1.465 . S
C2330 C2325 1.399 . S
C2330 C2329 1.394 . S
C2330 C2331 1.516 . S
C2331 C2330 1.516 . S
C2331 C2332 1.502 . S
C2331 C2333 1.561 . S
C2331 C2334 1.526 . S
C2332 H2316 0.959 . S
C2332 H2317 0.959 . S
C2332 H2318 0.961 . S
C2332 C2331 1.502 . S
C2333 H2319 0.960 . S
C2333 H2320 0.961 . S
C2333 H2321 0.959 . S
C2333 C2331 1.561 . S
C2334 C2331 1.526 . S
C2334 C2335 1.396 . S
C2334 C2339 1.390 . S
C2335 C2329 1.465 . S
C2335 C2334 1.396 . S
C2335 C2336 1.399 . S
C2336 H2322 0.929 . S
C2336 C2335 1.399 . S
C2336 C2337 1.385 . S
C2337 H2323 0.931 . S
C2337 C2336 1.385 . S
C2337 C2338 1.389 . S
C2338 C2337 1.389 . S
C2338 C2339 1.387 . S
C2339 H2324 0.930 . S
C2339 C2334 1.390 . S
C2339 C2338 1.387 . S
H2340 C2352 0.930 . S
H2341 C2354 0.930 . S
H2342 C2355 0.930 . S
H2343 C2359 0.959 . S
H2344 C2359 0.959 . S
H2345 C2359 0.961 1_565 S
H2346 C2360 0.960 . S
H2347 C2360 0.961 1_545 S
H2348 C2360 0.959 . S
H2349 C2363 0.929 . S
H2350 C2364 0.931 . S
H2351 C2366 0.930 . S
C2352 H2340 0.930 . S
C2352 C2353 1.399 . S
C2352 C2357 1.399 . S
C2353 C2352 1.399 . S
C2353 C2354 1.376 . S
C2354 H2341 0.930 . S
C2354 C2353 1.376 . S
C2354 C2355 1.388 . S
C2355 H2342 0.930 . S
C2355 C2354 1.388 . S
C2355 C2356 1.390 . S
C2356 C2355 1.390 . S
C2356 C2357 1.394 . S
C2356 C2362 1.465 1_565 S
C2357 C2352 1.399 . S
C2357 C2356 1.394 . S
C2357 C2358 1.535 . S
C2358 C2357 1.535 . S
C2358 C2359 1.518 1_565 S
C2358 C2360 1.579 . S
C2358 C2361 1.472 1_565 S
C2359 H2343 0.959 . S
C2359 H2344 0.959 . S
C2359 H2345 0.961 1_545 S
C2359 C2358 1.518 1_545 S
C2360 H2346 0.960 . S
C2360 H2347 0.961 1_565 S
C2360 H2348 0.959 . S
C2360 C2358 1.579 . S
C2361 C2358 1.472 1_545 S
C2361 C2362 1.396 . S
C2361 C2366 1.390 . S
C2362 C2356 1.465 1_545 S
C2362 C2361 1.396 . S
C2362 C2363 1.399 . S
C2363 H2349 0.929 . S
C2363 C2362 1.399 . S
C2363 C2364 1.385 . S
C2364 H2350 0.931 . S
C2364 C2363 1.385 . S
C2364 C2365 1.389 . S
C2365 C2364 1.389 . S
C2365 C2366 1.387 . S
C2366 H2351 0.930 . S
C2366 C2361 1.390 . S
C2366 C2365 1.387 . S
H2367 C2379 0.930 . S
H2368 C2381 0.930 . S
H2369 C2382 0.930 . S
H2370 C2386 0.959 . S
H2371 C2386 0.959 1_565 S
H2372 C2386 0.961 . S
H2373 C2387 0.960 . S
H2374 C2387 0.961 1_565 S
H2375 C2387 0.959 . S
H2376 C2390 0.929 . S
H2377 C2391 0.931 . S
H2378 C2393 0.930 . S
C2379 H2367 0.930 . S
C2379 C2380 1.399 . S
C2379 C2384 1.399 . S
C2380 C2379 1.399 . S
C2380 C2381 1.376 . S
C2381 H2368 0.930 . S
C2381 C2380 1.376 . S
C2381 C2382 1.388 . S
C2382 H2369 0.930 . S
C2382 C2381 1.388 . S
C2382 C2383 1.390 . S
C2383 C2382 1.390 . S
C2383 C2384 1.394 . S
C2383 C2389 1.465 1_545 S
C2384 C2379 1.399 . S
C2384 C2383 1.394 . S
C2384 C2385 1.516 . S
C2385 C2384 1.516 . S
C2385 C2386 1.502 . S
C2385 C2387 1.561 . S
C2385 C2388 1.526 1_545 S
C2386 H2370 0.959 . S
C2386 H2371 0.959 1_545 S
C2386 H2372 0.961 . S
C2386 C2385 1.502 . S
C2387 H2373 0.960 . S
C2387 H2374 0.961 1_545 S
C2387 H2375 0.959 . S
C2387 C2385 1.561 . S
C2388 C2385 1.526 1_565 S
C2388 C2389 1.396 . S
C2388 C2393 1.390 . S
C2389 C2383 1.465 1_565 S
C2389 C2388 1.396 . S
C2389 C2390 1.399 . S
C2390 H2376 0.929 . S
C2390 C2389 1.399 . S
C2390 C2391 1.385 . S
C2391 H2377 0.931 . S
C2391 C2390 1.385 . S
C2391 C2392 1.389 . S
C2392 C2391 1.389 . S
C2392 C2393 1.387 . S
C2393 H2378 0.930 . S
C2393 C2388 1.390 . S
C2393 C2392 1.387 . S
H2394 C2406 0.930 . S
H2395 C2408 0.930 . S
H2396 C2409 0.930 . S
H2397 C2413 0.959 . S
H2398 C2413 0.959 . S
H2399 C2413 0.961 1_455 S
H2400 C2414 0.960 1_455 S
H2401 C2414 0.961 . S
H2402 C2414 0.960 . S
H2403 C2417 0.929 . S
H2404 C2418 0.931 . S
H2405 C2420 0.930 . S
C2406 H2394 0.930 . S
C2406 C2407 1.399 . S
C2406 C2411 1.399 . S
C2407 C2406 1.399 . S
C2407 C2408 1.376 . S
C2408 H2395 0.930 . S
C2408 C2407 1.376 . S
C2408 C2409 1.388 . S
C2409 H2396 0.930 . S
C2409 C2408 1.388 . S
C2409 C2410 1.390 . S
C2410 C2409 1.390 . S
C2410 C2411 1.394 . S
C2410 C2416 1.465 1_455 S
C2411 C2406 1.399 . S
C2411 C2410 1.394 . S
C2411 C2412 1.516 1_455 S
C2412 C2411 1.516 1_655 S
C2412 C2413 1.502 . S
C2412 C2414 1.561 . S
C2412 C2415 1.526 . S
C2413 H2397 0.959 . S
C2413 H2398 0.959 . S
C2413 H2399 0.961 1_655 S
C2413 C2412 1.502 . S
C2414 H2400 0.960 1_655 S
C2414 H2401 0.961 . S
C2414 H2402 0.960 . S
C2414 C2412 1.561 . S
C2415 C2412 1.526 . S
C2415 C2416 1.396 . S
C2415 C2420 1.390 . S
C2416 C2410 1.465 1_655 S
C2416 C2415 1.396 . S
C2416 C2417 1.399 . S
C2417 H2403 0.929 . S
C2417 C2416 1.399 . S
C2417 C2418 1.385 . S
C2418 H2404 0.931 . S
C2418 C2417 1.385 . S
C2418 C2419 1.389 . S
C2419 C2418 1.389 . S
C2419 C2420 1.387 . S
C2420 H2405 0.930 . S
C2420 C2415 1.390 . S
C2420 C2419 1.387 . S
H2421 C2433 0.930 . S
H2422 C2435 0.930 . S
H2423 C2436 0.930 . S
H2424 C2440 0.959 . S
H2425 C2440 0.959 . S
H2426 C2440 0.961 . S
H2427 C2441 0.960 . S
H2428 C2441 0.961 . S
H2429 C2441 0.959 . S
H2430 C2444 0.929 . S
H2431 C2445 0.931 . S
H2432 C2447 0.930 . S
C2433 H2421 0.930 . S
C2433 C2434 1.399 . S
C2433 C2438 1.399 . S
C2434 C2433 1.399 . S
C2434 C2435 1.376 . S
C2435 H2422 0.930 . S
C2435 C2434 1.376 . S
C2435 C2436 1.388 . S
C2436 H2423 0.930 . S
C2436 C2435 1.388 . S
C2436 C2437 1.390 . S
C2437 C2436 1.390 . S
C2437 C2438 1.394 . S
C2437 C2443 1.465 . S
C2438 C2433 1.399 . S
C2438 C2437 1.394 . S
C2438 C2439 1.516 . S
C2439 C2438 1.516 . S
C2439 C2440 1.502 . S
C2439 C2441 1.561 . S
C2439 C2442 1.526 . S
C2440 H2424 0.959 . S
C2440 H2425 0.959 . S
C2440 H2426 0.961 . S
C2440 C2439 1.502 . S
C2441 H2427 0.960 . S
C2441 H2428 0.961 . S
C2441 H2429 0.959 . S
C2441 C2439 1.561 . S
C2442 C2439 1.526 . S
C2442 C2443 1.396 . S
C2442 C2447 1.390 . S
C2443 C2437 1.465 . S
C2443 C2442 1.396 . S
C2443 C2444 1.399 . S
C2444 H2430 0.929 . S
C2444 C2443 1.399 . S
C2444 C2445 1.385 . S
C2445 H2431 0.931 . S
C2445 C2444 1.385 . S
C2445 C2446 1.389 . S
C2446 C2445 1.389 . S
C2446 C2447 1.387 . S
C2447 H2432 0.930 . S
C2447 C2442 1.390 . S
C2447 C2446 1.387 . S
C517 C50 1.121 . S
C529 C8 1.124 . S
C544 C64 1.125 . S
C556 C22 1.118 . S
C571 C78 1.114 . S
C583 C36 1.121 . S
C598 C92 1.116 . S
C610 C134 1.122 . S
C625 C106 1.115 . S
C637 C148 1.121 . S
C652 C162 1.125 . S
C664 C120 1.121 . S
C679 C176 1.102 . S
C691 C218 1.112 . S
C706 C190 1.102 . S
C718 C232 1.116 . S
C733 C204 1.116 . S
C745 C246 1.106 . S
C760 C260 1.101 . S
C772 C302 1.113 . S
C787 C316 1.106 . S
C799 C274 1.113 . S
C814 C288 1.107 . S
C826 C330 1.099 . S
C841 C344 1.105 . S
C853 C386 1.102 . S
C868 C358 1.114 . S
C880 C400 1.102 . S
C895 C414 1.116 . S
C907 C372 1.101 . S
C922 C470 1.114 . S
C934 C428 1.114 . S
C949 C484 1.110 . S
C961 C442 1.102 . S
C976 C498 1.107 . S
C988 C456 1.103 . S
C1003 C161 1.437 . S
C1015 C9 1.492 . S
C1030 C23 1.514 . S
C1042 C133 1.459 . S
C1057 C37 1.512 . S
C1069 C147 1.456 . S
C1084 C105 1.494 . S
C1096 C51 1.517 . S
C1111 C65 1.530 . S
C1123 C119 1.513 . S
C1138 C91 1.530 . S
C1150 C79 1.549 . S
C1165 C93 1.500 . S
C1177 C77 1.438 . S
C1192 C107 1.545 . S
C1204 C49 1.494 . S
C1219 C63 1.443 . S
C1231 C121 1.518 . S
C1246 C21 1.454 . S
C1258 C135 1.501 . S
C1273 C35 1.472 . S
C1285 C149 1.545 . S
C1300 C163 1.512 . S
C1312 C7 1.448 . S
C1327 C177 1.498 . S
C1339 C329 1.443 . S
C1354 C301 1.416 . S
C1366 C191 1.459 . S
C1381 C315 1.423 . S
C1393 C205 1.481 . S
C1408 C219 1.522 . S
C1420 C273 1.460 . S
C1435 C287 1.511 . S
C1447 C233 1.532 . S
C1462 C247 1.545 . S
C1474 C259 1.501 . S
C1489 C261 1.530 . S
C1501 C245 1.515 . S
C1516 C275 1.490 . S
C1528 C217 1.440 . S
C1543 C231 1.506 . S
C1555 C289 1.542 . S
C1570 C189 1.530 . S
C1582 C303 1.573 . S
C1597 C203 1.478 . S
C1609 C317 1.557 . S
C1624 C331 1.536 . S
C1636 C175 1.465 . S
C1651 C497 1.508 . S
C1663 C345 1.530 . S
C1678 C359 1.534 . S
C1690 C469 1.512 . S
C1705 C373 1.542 . S
C1717 C483 1.515 . S
C1732 C387 1.518 . S
C1744 C441 1.464 . S
C1759 C455 1.523 . S
C1771 C401 1.547 . S
C1786 C415 1.518 . S
C1798 C427 1.479 . S
C1813 C413 1.440 . S
C1825 C429 1.459 . S
C1840 C385 1.447 . S
C1852 C443 1.461 . S
C1867 C399 1.490 . S
C1879 C457 1.509 . S
C1894 C357 1.460 . S
C1906 C471 1.538 . S
C1921 C371 1.438 . S
C1933 C485 1.497 . S
C1948 C343 1.515 . S
C1960 C499 1.544 . S
C1975 C409 1.356 . S
C1987 C3 1.363 . S
C2002 C17 1.387 . S
C2014 C381 1.383 . S
C2029 C395 1.353 . S
C2041 C31 1.359 . S
C2056 C45 1.358 . S
C2068 C185 1.354 . S
C2083 C199 1.353 . S
C2095 C59 1.355 . S
C2110 C73 1.356 . S
C2122 C171 1.354 . S
C2137 C87 1.367 . S
C2149 C325 1.371 . S
C2164 C297 1.384 . S
C2176 C101 1.383 . S
C2191 C115 1.387 . S
C2203 C311 1.386 . S
C2218 C129 1.359 . S
C2230 C437 1.360 . S
C2245 C143 1.374 . S
C2257 C451 1.372 . S
C2272 C423 1.386 . S
C2284 C157 1.384 . S
C2299 C353 1.383 . S
C2311 C213 1.372 . S
C2326 C367 1.358 . S
C2338 C227 1.369 . S
C2353 C339 1.357 . S
C2365 C241 1.355 . S
C2380 C255 1.379 . S
C2392 C493 1.380 . S
C2407 C465 1.381 . S
C2419 C269 1.380 . S
C2434 C283 1.379 . S
C2446 C479 1.378 . S
