# Generated by pormake.
# Topology snk, (6)-cn, num edge types: 1
# Building blocks:
#     Node 0, Type 0, BuildingBlock: LEVNOQ01_clean_sbu_1, # of connection points: 6
#     Node 1, Type 0, BuildingBlock: LEVNOQ01_clean_sbu_1, # of connection points: 6
#     Node 2, Type 0, BuildingBlock: LEVNOQ01_clean_sbu_1, # of connection points: 6
#     Node 3, Type 0, BuildingBlock: LEVNOQ01_clean_sbu_1, # of connection points: 6
#     Node 4, Type 0, BuildingBlock: LEVNOQ01_clean_sbu_1, # of connection points: 6
#     Node 5, Type 0, BuildingBlock: LEVNOQ01_clean_sbu_1, # of connection points: 6
#     Node 6, Type 0, BuildingBlock: LEVNOQ01_clean_sbu_1, # of connection points: 6
#     Node 7, Type 0, BuildingBlock: LEVNOQ01_clean_sbu_1, # of connection points: 6
#     Edge 8, Type (0, 0), BuildingBlock: ZUJKAS_clean_linker_0, # of connection points: 2
#     Edge 9, Type (0, 0), BuildingBlock: ZUJKAS_clean_linker_0, # of connection points: 2
#     Edge 10, Type (0, 0), BuildingBlock: ZUJKAS_clean_linker_0, # of connection points: 2
#     Edge 11, Type (0, 0), BuildingBlock: ZUJKAS_clean_linker_0, # of connection points: 2
#     Edge 12, Type (0, 0), BuildingBlock: ZUJKAS_clean_linker_0, # of connection points: 2
#     Edge 13, Type (0, 0), BuildingBlock: ZUJKAS_clean_linker_0, # of connection points: 2
#     Edge 14, Type (0, 0), BuildingBlock: ZUJKAS_clean_linker_0, # of connection points: 2
#     Edge 15, Type (0, 0), BuildingBlock: ZUJKAS_clean_linker_0, # of connection points: 2
#     Edge 16, Type (0, 0), BuildingBlock: ZUJKAS_clean_linker_0, # of connection points: 2
#     Edge 17, Type (0, 0), BuildingBlock: ZUJKAS_clean_linker_0, # of connection points: 2
#     Edge 18, Type (0, 0), BuildingBlock: ZUJKAS_clean_linker_0, # of connection points: 2
#     Edge 19, Type (0, 0), BuildingBlock: ZUJKAS_clean_linker_0, # of connection points: 2
#     Edge 20, Type (0, 0), BuildingBlock: ZUJKAS_clean_linker_0, # of connection points: 2
#     Edge 21, Type (0, 0), BuildingBlock: ZUJKAS_clean_linker_0, # of connection points: 2
#     Edge 22, Type (0, 0), BuildingBlock: ZUJKAS_clean_linker_0, # of connection points: 2
#     Edge 23, Type (0, 0), BuildingBlock: ZUJKAS_clean_linker_0, # of connection points: 2
#     Edge 24, Type (0, 0), BuildingBlock: ZUJKAS_clean_linker_0, # of connection points: 2
#     Edge 25, Type (0, 0), BuildingBlock: ZUJKAS_clean_linker_0, # of connection points: 2
#     Edge 26, Type (0, 0), BuildingBlock: ZUJKAS_clean_linker_0, # of connection points: 2
#     Edge 27, Type (0, 0), BuildingBlock: ZUJKAS_clean_linker_0, # of connection points: 2
#     Edge 28, Type (0, 0), BuildingBlock: ZUJKAS_clean_linker_0, # of connection points: 2
#     Edge 29, Type (0, 0), BuildingBlock: ZUJKAS_clean_linker_0, # of connection points: 2
#     Edge 30, Type (0, 0), BuildingBlock: ZUJKAS_clean_linker_0, # of connection points: 2
#     Edge 31, Type (0, 0), BuildingBlock: ZUJKAS_clean_linker_0, # of connection points: 2
# Relax obj value: 0.027
# Max RMSD: 0.082
# Mean RMSD: 0.077
data_MOF--net-snk--node1-LEVNOQ01_clean_sbu_1--edge1-ZUJKAS_clean_linker_0
_symmetry_space_group_name_H-M    P1
_symmetry_Int_Tables_number       1
_symmetry_cell_setting            triclinic
loop_
_symmetry_equiv_pos_as_xyz
'x, y, z'
_cell_length_a     55.965878
_cell_length_b     55.943958
_cell_length_c     20.573402
_cell_angle_alpha  90.586774
_cell_angle_beta   90.575571
_cell_angle_gamma 89.975281
loop_
_atom_site_label
_atom_site_type_symbol
_atom_site_fract_x
_atom_site_fract_y
_atom_site_fract_z
_atom_type_partial_charge
O0 O 0.02874 -0.00822 0.3694 0.0
Mg1 Mg 0.0358 0.98998 0.47005 0.0
O2 O 0.99045 0.98746 0.38774 0.0
Mg3 Mg 0.99097 -0.00551 0.50049 0.0
O4 O 0.02031 0.96417 0.52525 0.0
O5 O 0.05727 0.96189 0.48305 0.0
O6 O -0.00787 0.00162 0.61445 0.0
O7 O 0.96655 0.95974 0.51116 0.0
Mg8 Mg 0.94445 0.00522 0.54932 0.0
O9 O 0.9605 0.0228 0.4745 0.0
O10 O 0.95621 0.01342 0.64347 0.0
O11 O 0.92992 0.97156 0.53161 0.0
O12 O 0.92351 0.03055 0.51204 0.0
C13 C 0.03634 0.03605 0.5014 0.0
C14 C 0.00769 0.98891 0.34792 0.0
C15 C 0.04063 0.953 0.51818 0.0
C16 C 0.9777 0.00896 0.65816 0.0
C17 C 0.9445 0.95491 0.52006 0.0
C18 C 0.94066 0.03513 0.47266 0.0
O19 O 0.0509 0.0198 0.51615 0.0
O20 O 0.01483 0.03011 0.48715 0.0
O21 O 0.26436 0.77189 0.60191 0.0
Mg22 Mg 0.25331 0.78911 0.68674 0.0
O23 O 0.24757 0.73905 0.63871 0.0
Mg24 Mg 0.24321 0.74253 0.75285 0.0
O25 O 0.26886 0.77527 0.76828 0.0
O26 O 0.27708 0.81164 0.72868 0.0
O27 O 0.23858 0.7465 0.8672 0.0
O28 O 0.27871 0.72005 0.76238 0.0
Mg29 Mg 0.23378 0.69741 0.81944 0.0
O30 O 0.2177 0.70948 0.73629 0.0
O31 O 0.22122 0.71391 0.90326 0.0
O32 O 0.26971 0.68721 0.81563 0.0
O33 O 0.21134 0.67327 0.77994 0.0
C34 C 0.20188 0.78526 0.71828 0.0
C35 C 0.25703 0.75077 0.59256 0.0
C36 C 0.28133 0.79494 0.77004 0.0
C37 C 0.22846 0.73502 0.91279 0.0
C38 C 0.28483 0.70026 0.78794 0.0
C39 C 0.20632 0.68914 0.73684 0.0
O40 O 0.21724 0.79872 0.69286 0.0
O41 O 0.20776 0.7651 0.74223 0.0
O42 O 0.47581 0.96582 0.13753 0.0
Mg43 Mg 0.45533 0.97792 0.06 0.0
O44 O 0.50122 -0.00828 0.09851 0.0
Mg45 Mg 0.49372 -0.00581 0.98473 0.0
O46 O 0.4644 0.96374 0.97187 0.0
O47 O 0.4319 0.95325 0.02908 0.0
O48 O 0.48719 -0.0027 0.8711 0.0
O49 O 0.5206 0.96174 0.97185 0.0
Mg50 Mg 0.5371 0.00903 0.91442 0.0
O51 O 0.52231 0.02493 -0.00594 0.0
O52 O 0.5183 0.01573 0.82929 0.0
O53 O 0.55283 0.97537 0.92383 0.0
O54 O 0.55635 0.03695 0.94685 0.0
C55 C 0.44812 0.02932 0.03279 0.0
C56 C 0.49423 0.97851 0.14487 0.0
C57 C 0.44566 0.95024 0.97978 0.0
C58 C 0.49762 0.00699 0.82307 0.0
C59 C 0.54136 0.95828 0.94824 0.0
C60 C 0.54011 0.03987 -0.00968 0.0
O61 O 0.44002 0.01217 0.0655 0.0
O62 O 0.46665 0.02624 -0.00203 0.0
O63 O 0.24513 0.20921 0.37028 0.0
Mg64 Mg 0.24628 0.2019 0.26984 0.0
O65 O 0.24927 0.24719 0.34832 0.0
Mg66 Mg 0.24171 0.24419 0.23619 0.0
O67 O 0.27301 0.21479 0.21354 0.0
O68 O 0.27331 0.17895 0.26186 0.0
O69 O 0.23454 0.24029 0.12095 0.0
O70 O 0.27623 0.26805 0.22238 0.0
Mg71 Mg 0.22936 0.28455 0.17645 0.0
O72 O 0.21289 0.27511 0.26111 0.0
O73 O 0.21392 0.27179 0.092 0.0
O74 O 0.26353 0.29871 0.16638 0.0
O75 O 0.20838 0.31029 0.21011 0.0
C76 C 0.20072 0.19863 0.24256 0.0
C77 C 0.24823 0.23046 0.38973 0.0
C78 C 0.28336 0.19428 0.22485 0.0
C79 C 0.2228 0.2518 0.0776 0.0
C80 C 0.28047 0.28732 0.19218 0.0
C81 C 0.2022 0.29579 0.25516 0.0
O82 O 0.2173 0.18471 0.22643 0.0
O83 O 0.20601 0.22047 0.25458 0.0
O84 O 0.75526 0.27837 0.11087 0.0
Mg85 Mg 0.7526 0.29153 0.20636 0.0
O86 O 0.74707 0.24156 0.14186 0.0
Mg87 Mg 0.74258 0.24364 0.2552 0.0
O88 O 0.77261 0.27276 0.27181 0.0
O89 O 0.78122 0.30991 0.23776 0.0
O90 O 0.73796 0.24581 0.36794 0.0
O91 O 0.77842 0.21966 0.26517 0.0
Mg92 Mg 0.73945 0.20165 0.28555 0.0
O93 O 0.71031 0.21506 0.2383 0.0
O94 O 0.74533 0.20799 0.38522 0.0
O95 O 0.76618 0.18453 0.23341 0.0
O96 O 0.71188 0.17919 0.28665 0.0
C97 C 0.70393 0.29115 0.24562 0.0
C98 C 0.75197 0.25649 0.09735 0.0
C99 C 0.78642 0.29153 0.27249 0.0
C100 C 0.74141 0.22872 0.4073 0.0
C101 C 0.78325 0.19815 0.24857 0.0
C102 C 0.70031 0.19482 0.25344 0.0
O103 O 0.72052 0.30606 0.23826 0.0
O104 O 0.70845 0.26878 0.24662 0.0
O105 O 0.7433 0.70823 0.87311 0.0
Mg106 Mg 0.74731 0.69892 0.77355 0.0
O107 O 0.75109 0.74576 0.85144 0.0
Mg108 Mg 0.74324 0.74292 0.7395 0.0
O109 O 0.77335 0.71325 0.71718 0.0
O110 O 0.77487 0.67659 0.76159 0.0
O111 O 0.73535 0.73998 0.62727 0.0
O112 O 0.77886 0.76657 0.7213 0.0
Mg113 Mg 0.73975 0.78554 0.70696 0.0
O114 O 0.71235 0.77213 0.76035 0.0
O115 O 0.74571 0.77694 0.60808 0.0
O116 O 0.76817 0.80184 0.75597 0.0
O117 O 0.7114 0.8074 0.70886 0.0
C118 C 0.70184 0.69802 0.74354 0.0
C119 C 0.74728 0.72938 0.89266 0.0
C120 C 0.78376 0.69253 0.72407 0.0
C121 C 0.74067 0.75626 0.58705 0.0
C122 C 0.78449 0.78805 0.73681 0.0
C123 C 0.70154 0.79217 0.74672 0.0
O124 O 0.71792 0.68383 0.72541 0.0
O125 O 0.70787 0.71938 0.75902 0.0
O126 O 0.49541 0.4627 0.86191 0.0
Mg127 Mg 0.52056 0.47872 0.92553 0.0
O128 O 0.48328 0.49756 0.89427 0.0
Mg129 Mg 0.49186 0.49612 0.00799 0.0
O130 O 0.52257 0.46605 0.01773 0.0
O131 O 0.54745 0.45555 0.93692 0.0
O132 O 0.49722 0.49821 0.12147 0.0
O133 O 0.46597 0.4633 0.01784 0.0
Mg134 Mg 0.44306 0.50862 0.07609 0.0
O135 O 0.46195 0.52452 0.00446 0.0
O136 O 0.46237 0.50895 0.164 0.0
O137 O 0.42965 0.47522 0.04506 0.0
O138 O 0.42775 0.53936 0.04275 0.0
C139 C 0.53179 0.53057 0.94759 0.0
C140 C 0.48365 0.48135 0.85047 0.0
C141 C 0.54017 0.45305 -0.00428 0.0
C142 C 0.48424 0.50353 0.17033 0.0
C143 C 0.44399 0.4588 0.02842 0.0
C144 C 0.44517 0.54051 0.00231 0.0
O145 O 0.53389 0.51374 0.9063 0.0
O146 O 0.51867 0.52769 -0.00277 0.0
O147 O 0.98234 0.46354 0.63594 0.0
Mg148 Mg 0.96184 0.47841 0.56154 0.0
O149 O 0.00282 0.49379 0.60082 0.0
Mg150 Mg -0.0042 0.49397 0.48634 0.0
O151 O 0.96555 0.46383 0.47091 0.0
O152 O 0.93527 0.456 0.539 0.0
O153 O 0.99018 0.49579 0.37227 0.0
O154 O 0.02261 0.46176 0.47761 0.0
Mg155 Mg 0.0389 0.50973 0.41286 0.0
O156 O 0.02548 0.5231 0.49742 0.0
O157 O 0.01844 0.51859 0.33171 0.0
O158 O 0.05272 0.47481 0.41905 0.0
O159 O 0.059 0.53647 0.45073 0.0
C160 C 0.95212 0.52927 0.53513 0.0
C161 C -0.00181 0.47909 0.64591 0.0
C162 C 0.94611 0.45214 0.48496 0.0
C163 C -0.00098 0.50737 0.32501 0.0
C164 C 0.04251 0.45812 0.4493 0.0
C165 C 0.04336 0.53794 0.49624 0.0
O166 O 0.94647 0.51262 0.57311 0.0
O167 O 0.9691 0.52613 0.4951 0.0
H168 H 0.017 0.07022 0.42116 0.0
H169 H 0.03836 0.10426 0.37427 0.0
H170 H 0.09938 0.0893 0.49656 0.0
H171 H 0.07837 0.05546 0.54343 0.0
H172 H 0.07098 0.14717 0.44331 0.0
H173 H 0.11522 0.0784 0.28865 0.0
H174 H 0.08631 0.07361 0.32458 0.0
H175 H 0.11288 0.07193 0.37385 0.0
C176 C 0.03463 0.0747 0.43969 0.0
C177 C 0.04604 0.06001 0.48576 0.0
C178 C 0.04684 0.0941 0.41265 0.0
C179 C 0.07049 0.09914 0.43167 0.0
C180 C 0.08114 0.08568 0.48121 0.0
H181 H 0.19922 0.16146 0.32289 0.0
H182 H 0.16465 0.14056 0.36434 0.0
C183 C 0.06907 0.06634 0.50798 0.0
C184 C 0.08536 0.1162 0.39489 0.0
H185 H 0.13204 0.11712 0.28959 0.0
C186 C 0.0841 0.14078 0.40881 0.0
C187 C 0.10237 0.10772 0.34988 0.0
C188 C 0.1043 0.0815 0.33276 0.0
C189 C 0.10044 0.15698 0.38152 0.0
C190 C 0.11818 0.14828 0.3387 0.0
C191 C 0.11847 0.12383 0.32238 0.0
C192 C 0.13859 0.16318 0.31674 0.0
C193 C 0.09946 0.18296 0.40142 0.0
C194 C 0.1356 0.1834 0.27707 0.0
C195 C 0.15566 0.19577 0.25372 0.0
C196 C 0.17882 0.18765 0.26866 0.0
C197 C 0.18158 0.16784 0.30948 0.0
C198 C 0.1618 0.15589 0.3334 0.0
H199 H 0.08711 0.18611 0.44258 0.0
H200 H 0.11752 0.1895 0.4156 0.0
H201 H 0.09314 0.1937 0.35958 0.0
H202 H 0.11788 0.1892 0.26279 0.0
H203 H 0.15311 0.21104 0.22247 0.0
H204 H 0.05936 0.91422 0.46023 0.0
H205 H 0.07795 0.88005 0.51341 0.0
H206 H 0.0535 0.90592 0.69932 0.0
H207 H 0.03434 0.94032 0.64555 0.0
H208 H 0.11395 0.89534 0.61938 0.0
H209 H 0.04652 0.82745 0.69113 0.0
H210 H 0.04181 0.84576 0.62024 0.0
H211 H 0.04027 0.85902 0.69967 0.0
C212 C 0.05718 0.91217 0.51217 0.0
C213 C 0.0455 0.92983 0.54894 0.0
C214 C 0.0678 0.89266 0.54245 0.0
C215 C 0.06711 0.8905 0.61017 0.0
C216 C 0.05396 0.90717 0.64685 0.0
H217 H 0.17458 0.80394 0.81533 0.0
H218 H 0.13807 0.82792 0.79955 0.0
C219 C 0.043 0.92672 0.6162 0.0
C220 C 0.08361 0.87337 0.64159 0.0
H221 H 0.08733 0.81727 0.70523 0.0
C222 C 0.10812 0.87846 0.6393 0.0
C223 C 0.07588 0.85139 0.66715 0.0
C224 C 0.04969 0.84535 0.66997 0.0
C225 C 0.12519 0.86178 0.65975 0.0
C226 C 0.11757 0.83937 0.68286 0.0
C227 C 0.09303 0.83453 0.6876 0.0
C228 C 0.13528 0.8204 0.69642 0.0
C229 C 0.15138 0.86778 0.65391 0.0
C230 C 0.14513 0.80767 0.64412 0.0
C231 C 0.16584 0.79415 0.65303 0.0
C232 C 0.17683 0.79295 0.71449 0.0
C233 C 0.16601 0.8042 0.76789 0.0
C234 C 0.14528 0.81792 0.75887 0.0
H235 H 0.1543 0.88699 0.64336 0.0
H236 H 0.16111 0.86325 0.69943 0.0
H237 H 0.15923 0.85698 0.6139 0.0
H238 H 0.13782 0.80964 0.59549 0.0
H239 H 0.17422 0.78599 0.61102 0.0
H240 H 0.28599 0.82998 0.85965 0.0
H241 H 0.32404 0.84604 0.89943 0.0
H242 H 0.36102 0.78588 0.81467 0.0
H243 H 0.32265 0.76954 0.77541 0.0
H244 H 0.36727 0.82949 0.97031 0.0
H245 H 0.37923 0.84695 0.70612 0.0
H246 H 0.35069 0.83844 0.73866 0.0
H247 H 0.37408 0.81668 0.73143 0.0
C248 C 0.3021 0.81955 0.85263 0.0
C249 C 0.30151 0.79852 0.81503 0.0
C250 C 0.32385 0.8288 0.87495 0.0
C251 C 0.34533 0.81735 0.85894 0.0
C252 C 0.3446 0.79502 0.82713 0.0
H253 H 0.46863 0.90781 0.96765 0.0
H254 H 0.44982 0.87058 0.92832 0.0
C255 C 0.3227 0.78557 0.80544 0.0
C256 C 0.36787 0.831 0.86601 0.0
H257 H 0.4041 0.86776 0.77913 0.0
C258 C 0.37591 0.83729 0.9286 0.0
C259 C 0.37873 0.84144 0.81125 0.0
C260 C 0.3703 0.83573 0.74292 0.0
C261 C 0.39368 0.85473 0.93805 0.0
C262 C 0.40368 0.86603 0.88338 0.0
C263 C 0.39657 0.85881 0.82072 0.0
C264 C 0.41809 0.88805 0.89118 0.0
C265 C 0.40033 0.86233 0.00649 0.0
C266 C 0.40709 0.91015 0.87955 0.0
C267 C 0.41775 0.93126 0.90186 0.0
C268 C 0.43975 0.93057 0.93499 0.0
C269 C 0.45191 0.90874 0.94081 0.0
C270 C 0.44108 0.8875 0.91908 0.0
H271 H 0.38956 0.85302 0.04356 0.0
H272 H 0.41948 0.85835 0.01574 0.0
H273 H 0.39779 0.88191 0.01266 0.0
H274 H 0.38932 0.91091 0.85827 0.0
H275 H 0.40789 0.94787 0.89819 0.0
H276 H 0.41173 0.04143 0.11314 0.0
H277 H 0.39173 0.07975 0.12468 0.0
H278 H 0.4365 0.1096 0.97697 0.0
H279 H 0.4571 0.07082 0.96484 0.0
H280 H 0.42195 0.13036 0.14314 0.0
H281 H 0.35673 0.119 0.93895 0.0
H282 H 0.36724 0.09274 0.98072 0.0
H283 H 0.38753 0.1096 0.93236 0.0
C284 C 0.41743 0.05599 0.08266 0.0
C285 C 0.43604 0.05293 0.03778 0.0
C286 C 0.40594 0.07794 0.08955 0.0
C287 C 0.41262 0.09741 0.05167 0.0
C288 C 0.43112 0.09468 0.00657 0.0
H289 H 0.30466 0.21059 0.1125 0.0
H290 H 0.34093 0.19404 0.0613 0.0
C291 C 0.44282 0.07255 -0.00026 0.0
C292 C 0.39984 0.12034 0.06117 0.0
H293 H 0.34649 0.14643 0.02277 0.0
C294 C 0.40588 0.13447 0.11554 0.0
C295 C 0.37899 0.1257 0.02493 0.0
C296 C 0.37211 0.1111 0.96569 0.0
C297 C 0.39053 0.15258 0.13777 0.0
C298 C 0.36834 0.15623 0.10563 0.0
C299 C 0.36344 0.14364 0.04758 0.0
C300 C 0.34836 0.16891 0.1383 0.0
C301 C 0.39759 0.16664 0.19787 0.0
C302 C 0.34059 0.16037 0.19827 0.0
C303 C 0.32017 0.16962 0.22702 0.0
C304 C 0.30668 0.18758 0.19645 0.0
C305 C 0.31478 0.19686 0.13734 0.0
C306 C 0.33541 0.18738 0.10806 0.0
H307 H 0.41729 0.1689 0.20087 0.0
H308 H 0.38904 0.18456 0.19882 0.0
H309 H 0.39201 0.15671 0.2416 0.0
H310 H 0.34979 0.14572 0.22182 0.0
H311 H 0.31453 0.16208 0.27269 0.0
H312 H 0.89953 0.9395 0.49452 0.0
H313 H 0.88195 0.90136 0.5237 0.0
H314 H 0.95115 0.87567 0.58521 0.0
H315 H 0.96901 0.91434 0.55646 0.0
H316 H 0.88939 0.85297 0.49219 0.0
H317 H 0.91097 0.87377 0.75192 0.0
H318 H 0.91365 0.89591 0.68932 0.0
H319 H 0.93535 0.8724 0.69574 0.0
C320 C 0.91117 0.92559 0.51297 0.0
C321 C 0.93562 0.93002 0.52382 0.0
C322 C 0.90108 0.90373 0.5295 0.0
C323 C 0.91512 0.88578 0.55769 0.0
C324 C 0.93991 0.88942 0.56437 0.0
H325 H 0.82647 0.765 0.70371 0.0
H326 H 0.86289 0.78357 0.66006 0.0
C327 C 0.95013 0.91141 0.54736 0.0
C328 C 0.90291 0.86466 0.58555 0.0
H329 H 0.88355 0.84317 0.73079 0.0
C330 C 0.88869 0.85027 0.54426 0.0
C331 C 0.90176 0.86137 0.65364 0.0
C332 C 0.91609 0.87669 0.70058 0.0
C333 C 0.87234 0.83376 0.56941 0.0
C334 C 0.8702 0.83158 0.63745 0.0
C335 C 0.88548 0.84477 0.6786 0.0
C336 C 0.84925 0.81969 0.66647 0.0
C337 C 0.85602 0.82018 0.52345 0.0
C338 C 0.82993 0.8339 0.68561 0.0
C339 C 0.8095 0.82353 0.71119 0.0
C340 C 0.80774 0.79857 0.7178 0.0
C341 C 0.82732 0.78426 0.69954 0.0
C342 C 0.84804 0.7948 0.67434 0.0
H343 H 0.86154 0.82192 0.47199 0.0
H344 H 0.85576 0.80095 0.53615 0.0
H345 H 0.83752 0.82712 0.52826 0.0
H346 H 0.83048 0.85312 0.6795 0.0
H347 H 0.7947 0.83515 0.72354 0.0
H348 H 0.90382 0.03861 0.38921 0.0
H349 H 0.88919 0.07512 0.33847 0.0
H350 H 0.95182 0.11295 0.40676 0.0
H351 H 0.96693 0.0759 0.45684 0.0
H352 H 0.89722 0.12639 0.44991 0.0
H353 H 0.91655 0.12284 0.18555 0.0
H354 H 0.90919 0.09495 0.22354 0.0
H355 H 0.93634 0.11009 0.24612 0.0
C356 C 0.915 0.05443 0.3908 0.0
C357 C 0.93658 0.05449 0.42614 0.0
C358 C 0.90658 0.07529 0.36212 0.0
C359 C 0.91943 0.09666 0.36895 0.0
C360 C 0.94178 0.09652 0.40069 0.0
H361 H 0.82672 0.22092 0.26683 0.0
H362 H 0.86508 0.20202 0.29742 0.0
C363 C 0.95047 0.07539 0.42867 0.0
C364 C 0.90738 0.1192 0.35097 0.0
H365 H 0.88321 0.14674 0.21858 0.0
C366 C 0.89487 0.13159 0.39959 0.0
C367 C 0.90411 0.12559 0.28532 0.0
C368 C 0.91735 0.11282 0.23187 0.0
C369 C 0.87765 0.14888 0.38357 0.0
C370 C 0.87308 0.15396 0.31748 0.0
C371 C 0.88697 0.14297 0.26927 0.0
C372 C 0.8508 0.16609 0.29727 0.0
C373 C 0.86282 0.15995 0.43677 0.0
C374 C 0.83045 0.15207 0.28636 0.0
C375 C 0.80892 0.16259 0.26806 0.0
C376 C 0.80711 0.18752 0.26089 0.0
C377 C 0.82762 0.20167 0.27152 0.0
C378 C 0.84944 0.19096 0.2892 0.0
H379 H 0.87105 0.15736 0.48557 0.0
H380 H 0.86038 0.17938 0.42839 0.0
H381 H 0.84484 0.15154 0.43631 0.0
H382 H 0.83116 0.13288 0.29283 0.0
H383 H 0.79347 0.15113 0.26157 0.0
H384 H 0.66916 0.16738 0.31805 0.0
H385 H 0.63239 0.14955 0.27616 0.0
H386 H 0.63908 0.18982 0.09959 0.0
H387 H 0.67643 0.20777 0.14153 0.0
H388 H 0.58794 0.16514 0.22534 0.0
H389 H 0.64498 0.11885 0.04287 0.0
H390 H 0.65737 0.13506 0.11145 0.0
H391 H 0.646 0.15096 0.04231 0.0
C392 C 0.66258 0.17283 0.27076 0.0
C393 C 0.67581 0.18863 0.23245 0.0
C394 C 0.64147 0.16273 0.2471 0.0
C395 C 0.63323 0.16808 0.18449 0.0
C396 C 0.64536 0.1853 0.14789 0.0
H397 H 0.53746 0.0845 0.94593 0.0
H398 H 0.55461 0.11983 -0.00092 0.0
C399 C 0.66656 0.19562 0.17189 0.0
C400 C 0.61394 0.1532 0.15558 0.0
H401 H 0.6045 0.10847 0.0444 0.0
C402 C 0.59139 0.15297 0.18516 0.0
C403 C 0.61875 0.13694 0.10424 0.0
C404 C 0.64311 0.13519 0.07354 0.0
C405 C 0.57353 0.13682 0.16459 0.0
C406 C 0.57846 0.12063 0.11351 0.0
C407 C 0.60081 0.12113 0.08334 0.0
C408 C 0.56122 0.10233 0.0907 0.0
C409 C 0.54961 0.13692 0.19751 0.0
C410 C 0.55813 0.08117 0.12596 0.0
C411 C 0.54818 0.06089 0.09558 0.0
C412 C 0.54141 0.06177 0.02985 0.0
C413 C 0.54233 0.0836 -0.00302 0.0
C414 C 0.55216 0.10375 0.02717 0.0
H415 H 0.54753 0.1525 0.2309 0.0
H416 H 0.535 0.13719 0.16057 0.0
H417 H 0.54766 0.12028 0.22592 0.0
H418 H 0.56536 0.0797 0.1748 0.0
H419 H 0.548 0.04409 0.12128 0.0
H420 H 0.68247 0.77749 0.86276 0.0
H421 H 0.64688 0.79421 0.91637 0.0
H422 H 0.63353 0.83866 0.7498 0.0
H423 H 0.66852 0.82221 0.6967 0.0
H424 H 0.64213 0.84297 0.94647 0.0
H425 H 0.56691 0.81451 0.78882 0.0
H426 H 0.59546 0.79936 0.78848 0.0
H427 H 0.59092 0.826 0.74139 0.0
C428 C 0.67151 0.79035 0.83713 0.0
C429 C 0.67832 0.79864 0.77573 0.0
C430 C 0.65127 0.79993 0.86779 0.0
C431 C 0.63734 0.81744 0.83671 0.0
C432 C 0.64361 0.82479 0.77421 0.0
H433 H 0.56774 0.94189 0.84887 0.0
H434 H 0.58658 0.90299 0.83586 0.0
C435 C 0.6638 0.81551 0.7441 0.0
C436 C 0.61807 0.83054 0.87113 0.0
H437 H 0.56247 0.85353 0.8429 0.0
C438 C 0.62435 0.84463 0.92555 0.0
C439 C 0.59487 0.8327 0.84384 0.0
C440 C 0.58658 0.81711 0.78778 0.0
C441 C 0.60894 0.86253 0.94899 0.0
C442 C 0.5867 0.86621 0.9175 0.0
C443 C 0.57954 0.85066 0.86703 0.0
C444 C 0.57342 0.8889 0.92615 0.0
C445 C 0.61735 0.8789 0.00322 0.0
C446 C 0.5594 0.89376 0.98109 0.0
C447 C 0.54824 0.91617 -0.01157 0.0
C448 C 0.5515 0.93397 0.94152 0.0
C449 C 0.56522 0.9287 0.88637 0.0
C450 C 0.57589 0.90641 0.87861 0.0
H451 H 0.63505 0.8735 0.02319 0.0
H452 H 0.61867 0.89748 0.98514 0.0
H453 H 0.60415 0.8789 0.04312 0.0
H454 H 0.55732 0.88039 0.0183 0.0
H455 H 0.53771 0.9198 0.0313 0.0
H456 H 0.5489 0.56295 0.03836 0.0
H457 H 0.57372 0.59842 0.01755 0.0
H458 H 0.56825 0.58462 0.81143 0.0
H459 H 0.54409 0.54919 0.83165 0.0
H460 H 0.61956 0.59434 0.93536 0.0
H461 H 0.55218 0.65899 0.84377 0.0
H462 H 0.54488 0.63517 0.89895 0.0
H463 H 0.54902 0.62875 0.81414 0.0
C464 C 0.55276 0.56773 -0.01133 0.0
C465 C 0.5447 0.55325 0.93664 0.0
C466 C 0.56692 0.58793 0.97689 0.0
C467 C 0.5726 0.59421 0.91292 0.0
C468 C 0.56386 0.58021 0.86107 0.0
H469 H 0.68152 0.65704 0.69769 0.0
H470 H 0.64869 0.63491 0.74593 0.0
C471 C 0.55017 0.5599 0.87277 0.0
C472 C 0.58929 0.61404 0.89919 0.0
H473 H 0.59299 0.66672 0.81712 0.0
C474 C 0.61374 0.61044 0.91087 0.0
C475 C 0.58163 0.635 0.86727 0.0
C476 C 0.55547 0.63993 0.85559 0.0
C477 C 0.63084 0.62658 0.88793 0.0
C478 C 0.62326 0.64675 0.85225 0.0
C479 C 0.59874 0.65115 0.84408 0.0
C480 C 0.64073 0.66198 0.81823 0.0
C481 C 0.65699 0.62148 0.89976 0.0
C482 C 0.64632 0.68508 0.84096 0.0
C483 C 0.66509 0.69795 0.81304 0.0
C484 C 0.67847 0.6878 0.76214 0.0
C485 C 0.67163 0.66534 0.73689 0.0
C486 C 0.65295 0.6526 0.76462 0.0
H487 H 0.65973 0.60849 0.93965 0.0
H488 H 0.66483 0.61378 0.85482 0.0
H489 H 0.66682 0.6382 0.91195 0.0
H490 H 0.63699 0.69264 0.88221 0.0
H491 H 0.67008 0.7151 0.83403 0.0
H492 H 0.68531 0.32513 0.32417 0.0
H493 H 0.64942 0.34879 0.30262 0.0
H494 H 0.63316 0.30379 0.13631 0.0
H495 H 0.66837 0.2793 0.16043 0.0
H496 H 0.64711 0.37423 0.1992 0.0
H497 H 0.56701 0.31638 0.19642 0.0
H498 H 0.59508 0.30685 0.23161 0.0
H499 H 0.58996 0.30459 0.14513 0.0
C500 C 0.67336 0.31964 0.28503 0.0
C501 C 0.67931 0.30029 0.24446 0.0
C502 C 0.65297 0.33324 0.27238 0.0
C503 C 0.63844 0.32812 0.21791 0.0
C504 C 0.64361 0.30781 0.17961 0.0
H505 H 0.56256 0.41337 0.95145 0.0
H506 H 0.58318 0.3828 0.01412 0.0
C507 C 0.66376 0.2938 0.19332 0.0
C508 C 0.6207 0.34615 0.19552 0.0
H509 H 0.56372 0.35354 0.13752 0.0
C510 C 0.62871 0.36975 0.18735 0.0
C511 C 0.59674 0.34035 0.17906 0.0
C512 C 0.58664 0.3157 0.18912 0.0
C513 C 0.61376 0.38742 0.16148 0.0
C514 C 0.59014 0.38143 0.14325 0.0
C515 C 0.58183 0.35806 0.15234 0.0
C516 C 0.57505 0.39864 0.10752 0.0
C517 C 0.62358 0.41219 0.1508 0.0
C518 C 0.56337 0.41753 0.13967 0.0
C519 C 0.55134 0.43512 0.10383 0.0
C520 C 0.55132 0.43416 0.03553 0.0
C521 C 0.56257 0.41483 0.00401 0.0
C522 C 0.57418 0.3972 0.03965 0.0
H523 H 0.64265 0.41377 0.16574 0.0
H524 H 0.62189 0.41688 0.09863 0.0
H525 H 0.61301 0.42542 0.17898 0.0
H526 H 0.56404 0.41892 0.1922 0.0
H527 H 0.54277 0.44978 0.12928 0.0
H528 H 0.96958 0.41741 0.41524 0.0
H529 H 0.95095 0.38207 0.3629 0.0
H530 H 0.88118 0.41039 0.40684 0.0
H531 H 0.89951 0.44516 0.45893 0.0
H532 H 0.91951 0.35085 0.43544 0.0
H533 H 0.87412 0.38702 0.21748 0.0
H534 H 0.89885 0.40221 0.25724 0.0
H535 H 0.86905 0.40504 0.28862 0.0
C536 C 0.95029 0.41633 0.4116 0.0
C537 C 0.93591 0.43391 0.4408 0.0
C538 C 0.9397 0.39614 0.38225 0.0
C539 C 0.91469 0.39374 0.38064 0.0
C540 C 0.90047 0.41204 0.40658 0.0
H541 H 0.79531 0.31218 0.38923 0.0
H542 H 0.83361 0.33068 0.41844 0.0
C543 C 0.91096 0.43188 0.43648 0.0
C544 C 0.90296 0.3713 0.35898 0.0
H545 H 0.85624 0.35187 0.26501 0.0
C546 C 0.90617 0.35074 0.39684 0.0
C547 C 0.88556 0.37125 0.30875 0.0
C548 C 0.88184 0.39252 0.26531 0.0
C549 C 0.89101 0.33086 0.38908 0.0
C550 C 0.87249 0.33165 0.34227 0.0
C551 C 0.8705 0.35141 0.30112 0.0
C552 C 0.853 0.31389 0.33986 0.0
C553 C 0.89393 0.30964 0.43291 0.0
C554 C 0.85173 0.29721 0.28866 0.0
C555 C 0.82995 0.28622 0.27291 0.0
C556 C 0.80927 0.29217 0.30758 0.0
C557 C 0.81118 0.30686 0.36301 0.0
C558 C 0.833 0.31757 0.37931 0.0
H559 H 0.91107 0.31024 0.46057 0.0
H560 H 0.87897 0.30931 0.46794 0.0
H561 H 0.89312 0.29281 0.40387 0.0
H562 H 0.86692 0.29442 0.25727 0.0
H563 H 0.82869 0.27542 0.22898 0.0
H564 H 0.82747 0.71455 0.71018 0.0
H565 H 0.86278 0.6971 0.65619 0.0
H566 H 0.82035 0.63638 0.595 0.0
H567 H 0.78568 0.65345 0.64877 0.0
H568 H 0.88154 0.6524 0.6928 0.0
H569 H 0.85818 0.65027 0.43153 0.0
H570 H 0.84375 0.67025 0.48856 0.0
H571 H 0.83395 0.6397 0.47982 0.0
C572 C 0.82571 0.69784 0.68349 0.0
C573 C 0.80401 0.68527 0.68331 0.0
C574 C 0.8458 0.68788 0.65289 0.0
C575 C 0.84409 0.66562 0.62058 0.0
C576 C 0.82202 0.6538 0.6181 0.0
H577 H 0.9081 0.53601 0.58579 0.0
H578 H 0.88617 0.57334 0.59854 0.0
C579 C 0.80225 0.66348 0.64928 0.0
C580 C 0.86555 0.65269 0.59714 0.0
H581 H 0.8841 0.61791 0.46978 0.0
C582 C 0.88265 0.64556 0.6434 0.0
C583 C 0.86697 0.64367 0.53274 0.0
C584 C 0.84983 0.65158 0.4802 0.0
C585 C 0.89975 0.62803 0.62843 0.0
C586 C 0.89975 0.6175 0.56574 0.0
C587 C 0.88401 0.62602 0.5179 0.0
C588 C 0.91303 0.59511 0.55312 0.0
C589 C 0.91661 0.61952 0.68095 0.0
C590 C 0.93525 0.595 0.52201 0.0
C591 C 0.94794 0.5735 0.51435 0.0
C592 C 0.93855 0.55198 0.53811 0.0
C593 C 0.916 0.55228 0.56765 0.0
C594 C 0.90338 0.57358 0.57486 0.0
H595 H 0.91718 0.63202 0.72325 0.0
H596 H 0.91064 0.60176 0.6981 0.0
H597 H 0.93493 0.61741 0.66148 0.0
H598 H 0.94292 0.61153 0.50497 0.0
H599 H 0.9653 0.57381 0.49155 0.0
H600 H 0.31752 0.29336 0.28006 0.0
H601 H 0.35528 0.3148 0.25987 0.0
H602 H 0.33586 0.32108 0.05744 0.0
H603 H 0.2983 0.30045 0.07749 0.0
H604 H 0.39082 0.31123 0.10112 0.0
H605 H 0.34099 0.38952 0.20161 0.0
H606 H 0.34059 0.3613 0.24322 0.0
H607 H 0.32519 0.36428 0.16693 0.0
C608 C 0.32174 0.29879 0.23111 0.0
C609 C 0.30502 0.2956 0.18042 0.0
C610 C 0.34324 0.31091 0.21959 0.0
C611 C 0.34828 0.31942 0.1571 0.0
C612 C 0.33237 0.3145 0.10579 0.0
H613 H 0.40205 0.44137 0.98183 0.0
H614 H 0.38301 0.40392 0.01268 0.0
C615 C 0.31086 0.30289 0.11743 0.0
C616 C 0.36751 0.33699 0.14611 0.0
H617 H 0.37601 0.39729 0.14487 0.0
C618 C 0.388 0.33003 0.11185 0.0
C619 C 0.36348 0.36145 0.15958 0.0
C620 C 0.34141 0.3698 0.19479 0.0
C621 C 0.40411 0.34717 0.08832 0.0
C622 C 0.39935 0.37171 0.09909 0.0
C623 C 0.3795 0.37845 0.13621 0.0
C624 C 0.41328 0.39109 0.06864 0.0
C625 C 0.42538 0.33906 0.04947 0.0
C626 C 0.43708 0.39572 0.08703 0.0
C627 C 0.4482 0.41696 0.068 0.0
C628 C 0.43543 0.43395 0.03158 0.0
C629 C 0.41225 0.4285 0.0097 0.0
C630 C 0.40136 0.40718 0.02757 0.0
H631 H 0.42452 0.31971 0.03703 0.0
H632 H 0.42668 0.34942 0.00389 0.0
H633 H 0.44194 0.34234 0.07829 0.0
H634 H 0.44648 0.38379 0.11956 0.0
H635 H 0.46597 0.421 0.08641 0.0
H636 H 0.45031 0.58783 0.02201 0.0
H637 H 0.43101 0.61841 0.95577 0.0
H638 H 0.41558 0.5655 0.80721 0.0
H639 H 0.43489 0.53478 0.87409 0.0
H640 H 0.42982 0.63807 0.83228 0.0
H641 H 0.34989 0.58216 0.88088 0.0
H642 H 0.37862 0.57628 0.91752 0.0
H643 H 0.37274 0.56749 0.83459 0.0
C644 C 0.44391 0.58304 0.97371 0.0
C645 C 0.44409 0.55912 0.95282 0.0
C646 C 0.43273 0.60047 0.93605 0.0
C647 C 0.42129 0.59409 0.87742 0.0
C648 C 0.42398 0.5707 0.85285 0.0
H649 H 0.30376 0.67195 0.6949 0.0
H650 H 0.34015 0.6477 0.70564 0.0
C651 C 0.4353 0.55325 0.89056 0.0
C652 C 0.40352 0.61077 0.8489 0.0
H653 H 0.34337 0.61846 0.82791 0.0
C654 C 0.41096 0.63369 0.83036 0.0
C655 C 0.37881 0.60519 0.84791 0.0
C656 C 0.36942 0.58156 0.8718 0.0
C657 C 0.39431 0.65119 0.81148 0.0
C658 C 0.36973 0.64557 0.81087 0.0
C659 C 0.36233 0.62254 0.82775 0.0
C660 C 0.35104 0.66362 0.79747 0.0
C661 C 0.40293 0.67573 0.79341 0.0
C662 C 0.34551 0.68094 0.84486 0.0
C663 C 0.32476 0.69474 0.83873 0.0
C664 C 0.30948 0.6915 0.78491 0.0
C665 C 0.3157 0.67514 0.73584 0.0
C666 C 0.33634 0.66123 0.74214 0.0
H667 H 0.42255 0.67613 0.78581 0.0
H668 H 0.39373 0.68184 0.74847 0.0
H669 H 0.39851 0.68856 0.83301 0.0
H670 H 0.35635 0.68265 0.88858 0.0
H671 H 0.31985 0.70677 0.87801 0.0
H672 H 0.20254 0.65089 0.65721 0.0
H673 H 0.16513 0.63422 0.61424 0.0
H674 H 0.12731 0.69701 0.67969 0.0
H675 H 0.16507 0.71413 0.7213 0.0
H676 H 0.11792 0.64395 0.7362 0.0
H677 H 0.11059 0.65603 0.4686 0.0
H678 H 0.13983 0.65002 0.50219 0.0
H679 H 0.12519 0.67767 0.52158 0.0
C680 C 0.18644 0.66164 0.65933 0.0
C681 C 0.18656 0.68382 0.69176 0.0
C682 C 0.16511 0.65207 0.63521 0.0
C683 C 0.14357 0.6644 0.64414 0.0
C684 C 0.14386 0.68739 0.67207 0.0
H685 H 0.02245 0.58148 0.50116 0.0
H686 H 0.04076 0.61693 0.55221 0.0
C687 C 0.16539 0.69721 0.69518 0.0
C688 C 0.12091 0.65135 0.63407 0.0
H689 H 0.08665 0.6257 0.51492 0.0
C690 C 0.11057 0.64042 0.68805 0.0
C691 C 0.1116 0.64677 0.57133 0.0
C692 C 0.12221 0.6583 0.51235 0.0
C693 C 0.09196 0.62378 0.68037 0.0
C694 C 0.08361 0.61801 0.61708 0.0
C695 C 0.09294 0.63022 0.56355 0.0
C696 C 0.06807 0.59705 0.60364 0.0
C697 C 0.08215 0.61183 0.7398 0.0
C698 C 0.07656 0.5741 0.61851 0.0
C699 C 0.06605 0.55395 0.58973 0.0
C700 C 0.04689 0.55649 0.54597 0.0
C701 C 0.03687 0.57915 0.53608 0.0
C702 C 0.04745 0.59937 0.5647 0.0
H703 H 0.08377 0.62368 0.7833 0.0
H704 H 0.06312 0.60675 0.73279 0.0
H705 H 0.09264 0.5954 0.74967 0.0
H706 H 0.09274 0.57184 0.64712 0.0
H707 H 0.07439 0.53665 0.59655 0.0
H708 H 0.18987 0.28213 0.38014 0.0
H709 H 0.15535 0.29705 0.44305 0.0
H710 H 0.13309 0.33937 0.27911 0.0
H711 H 0.16665 0.32488 0.21743 0.0
H712 H 0.1466 0.34601 0.4722 0.0
H713 H 0.07037 0.30953 0.33223 0.0
H714 H 0.0999 0.29646 0.32834 0.0
H715 H 0.09204 0.32155 0.27804 0.0
C716 C 0.17732 0.29432 0.35763 0.0
C717 C 0.18111 0.30251 0.29415 0.0
C718 C 0.15765 0.30278 0.39339 0.0
C719 C 0.14134 0.31892 0.36519 0.0
C720 C 0.14497 0.32646 0.30141 0.0
H721 H 0.07784 0.44271 0.36998 0.0
H722 H 0.09763 0.40406 0.36836 0.0
C723 C 0.16448 0.31837 0.26644 0.0
C724 C 0.12194 0.33057 0.40259 0.0
H725 H 0.06513 0.35071 0.37584 0.0
C726 C 0.12843 0.34627 0.45338 0.0
C727 C 0.09817 0.3309 0.3783 0.0
C728 C 0.08969 0.31347 0.32663 0.0
C729 C 0.11269 0.36425 0.4745 0.0
C730 C 0.09007 0.36644 0.4441 0.0
C731 C 0.08256 0.34904 0.39891 0.0
C732 C 0.07696 0.38935 0.44656 0.0
C733 C 0.12113 0.38234 0.52441 0.0
C734 C 0.0585 0.39374 0.49084 0.0
C735 C 0.04694 0.41605 0.49191 0.0
C736 C 0.05387 0.43417 0.44894 0.0
C737 C 0.0722 0.42936 0.40437 0.0
C738 C 0.08353 0.40722 0.40314 0.0
H739 H 0.1372 0.37603 0.55136 0.0
H740 H 0.12566 0.39927 0.49967 0.0
H741 H 0.10669 0.3863 0.55957 0.0
H742 H 0.05323 0.38005 0.52464 0.0
H743 H 0.03287 0.41921 0.52673 0.0
H744 H 0.95582 0.03396 0.75463 0.0
H745 H 0.96262 0.0307 0.87163 0.0
H746 H 0.0216 0.98283 0.83741 0.0
H747 H 0.01499 0.986 0.71936 0.0
H748 H 0.97167 0.97166 0.92944 0.0
H749 H 0.03153 0.04906 0.98431 0.0
H750 H 0.00841 0.05151 0.92288 0.0
H751 H 0.03367 0.03259 0.90854 0.0
C752 C 0.97053 0.02303 0.77176 0.0
C753 C 0.98481 0.01013 0.72768 0.0
C754 C 0.97433 0.02119 0.83865 0.0
C755 C -0.00755 0.00642 0.86284 0.0
C756 C 0.00749 -0.00569 0.8193 0.0
H757 H 0.04127 0.98335 0.25454 0.0
H758 H 0.03617 0.98627 0.13729 0.0
C759 C 0.0038 -0.00374 0.75202 0.0
C760 C -0.00551 0.00259 0.93365 0.0
H761 H 0.01848 0.02635 0.0729 0.0
C762 C 0.98197 0.9835 0.961 0.0
C763 C 0.00774 0.01825 0.97423 0.0
C764 C 0.0212 0.03907 0.9465 0.0
C765 C 0.98253 0.97954 0.02837 0.0
C766 C -0.00423 -0.00474 0.06919 0.0
C767 C 0.00828 0.01436 0.04154 0.0
C768 C -0.00205 -0.00833 0.14038 0.0
C769 C 0.96933 0.95838 0.0552 0.0
C770 C 0.97802 -0.0066 0.18128 0.0
C771 C 0.98085 -0.00837 0.24893 0.0
C772 C 0.00369 0.98834 0.27656 0.0
C773 C 0.02343 0.98604 0.23507 0.0
C774 C 0.02058 0.98772 0.1679 0.0
H775 H 0.96425 0.94532 0.01642 0.0
H776 H 0.98037 0.94911 0.09233 0.0
H777 H 0.95273 0.96469 0.07895 0.0
H778 H 0.96042 -0.00321 0.16107 0.0
H779 H 0.96534 -0.00636 0.27957 0.0
H780 H 0.22164 0.72508 0.53214 0.0
H781 H 0.2159 0.7207 0.41402 0.0
H782 H 0.28473 0.75304 0.38306 0.0
H783 H 0.2904 0.75768 0.50037 0.0
H784 H 0.21614 0.7635 0.33544 0.0
H785 H 0.28237 0.69649 0.25103 0.0
H786 H 0.27195 0.69788 0.33383 0.0
H787 H 0.29423 0.71852 0.30675 0.0
C788 C 0.2359 0.73037 0.50009 0.0
C789 C 0.25645 0.74173 0.52509 0.0
C790 C 0.23252 0.72806 0.43276 0.0
C791 C 0.2499 0.73657 0.38998 0.0
C792 C 0.27123 0.74615 0.41523 0.0
H793 H 0.26297 0.76074 0.97686 0.0
H794 H 0.26691 0.76503 0.09544 0.0
C795 C 0.27444 0.74879 0.48221 0.0
C796 C 0.24476 0.73841 0.31955 0.0
H797 H 0.26534 0.72172 0.17037 0.0
C798 C 0.2267 0.75419 0.29922 0.0
C799 C 0.25877 0.72646 0.27268 0.0
C800 C 0.2778 0.70872 0.29196 0.0
C801 C 0.22262 0.7587 0.23302 0.0
C802 C 0.23683 0.74694 0.1862 0.0
C803 C 0.25473 0.731 0.20654 0.0
C804 C 0.23242 0.74942 0.11557 0.0
C805 C 0.2035 0.77633 0.21366 0.0
C806 C 0.21137 0.74013 0.08792 0.0
C807 C 0.20918 0.73756 0.02063 0.0
C808 C 0.22795 0.74436 0.97992 0.0
C809 C 0.24816 0.75561 0.0072 0.0
C810 C 0.25049 0.75789 0.07482 0.0
H811 H 0.19847 0.78822 0.25489 0.0
H812 H 0.20952 0.78752 0.17265 0.0
H813 H 0.1873 0.76642 0.19747 0.0
H814 H 0.19734 0.73327 0.11846 0.0
H815 H 0.19344 0.7288 0.00063 0.0
H816 H 0.48453 0.96692 0.7565 0.0
H817 H 0.4836 0.96313 0.63753 0.0
H818 H 0.48925 0.03974 0.62137 0.0
H819 H 0.49106 0.04343 0.73998 0.0
H820 H 0.4577 0.982 0.53191 0.0
H821 H 0.55103 0.01591 0.53895 0.0
H822 H 0.53537 0.00729 0.61125 0.0
H823 H 0.52942 0.03571 0.57439 0.0
C824 C 0.48452 0.98296 0.72742 0.0
C825 C 0.48782 0.00546 0.75686 0.0
C826 C 0.48426 0.98079 0.65959 0.0
C827 C 0.48715 0.00112 0.6209 0.0
C828 C 0.4877 0.0238 0.65049 0.0
H829 H 0.50685 0.01992 0.20696 0.0
H830 H 0.50808 0.02567 0.32538 0.0
C831 C 0.48835 0.02594 0.71807 0.0
C832 C 0.49183 -0.00155 0.55052 0.0
H833 H 0.53415 0.00821 0.43499 0.0
C834 C 0.4744 0.98768 0.51069 0.0
C835 C 0.51372 0.00589 0.52312 0.0
C836 C 0.53357 0.01666 0.56412 0.0
C837 C 0.4781 0.98443 0.44387 0.0
C838 C 0.50006 -0.00836 0.41657 0.0
C839 C 0.51743 0.0026 0.45624 0.0
C840 C 0.505 0.98799 0.34666 0.0
C841 C 0.45824 0.97366 0.40287 0.0
C842 C 0.5047 0.96484 0.3199 0.0
C843 C 0.50381 0.96156 0.25267 0.0
C844 C 0.50376 0.98137 0.21132 0.0
C845 C 0.50704 0.00437 0.23793 0.0
C846 C 0.50754 0.00767 0.30547 0.0
H847 H 0.44071 0.97488 0.42751 0.0
H848 H 0.45677 0.98267 0.35515 0.0
H849 H 0.46214 0.95446 0.39384 0.0
H850 H 0.50342 0.9494 0.35103 0.0
H851 H 0.50139 0.94366 0.23311 0.0
H852 H 0.19427 0.26913 0.98154 0.0
H853 H 0.20013 0.26527 0.86465 0.0
H854 H 0.25798 0.21588 0.89753 0.0
H855 H 0.25249 0.21982 0.01571 0.0
H856 H 0.25836 0.27012 0.80915 0.0
H857 H 0.19797 0.19375 0.74765 0.0
H858 H 0.19058 0.21465 0.81186 0.0
H859 H 0.21487 0.19421 0.82297 0.0
C860 C 0.20797 0.25704 0.96415 0.0
C861 C 0.22299 0.24481 0.00803 0.0
C862 C 0.21135 0.255 0.89731 0.0
C863 C 0.22963 0.24056 0.87291 0.0
C864 C 0.24385 0.22723 0.91594 0.0
H865 H 0.2628 0.19958 0.48224 0.0
H866 H 0.26033 0.2044 0.59971 0.0
C867 C 0.24052 0.22929 0.98324 0.0
C868 C 0.23423 0.24024 0.80239 0.0
H869 H 0.21789 0.21206 0.66135 0.0
C870 C 0.24968 0.25739 0.77658 0.0
C871 C 0.22256 0.22382 0.76058 0.0
C872 C 0.2055 0.20548 0.78663 0.0
C873 C 0.25408 0.25824 0.70946 0.0
C874 C 0.24247 0.24168 0.66747 0.0
C875 C 0.22683 0.22471 0.69363 0.0
C876 C 0.2469 0.24063 0.59654 0.0
C877 C 0.27141 0.2765 0.68425 0.0
C878 C 0.24079 0.25971 0.55555 0.0
C879 C 0.24243 0.25707 0.48781 0.0
C880 C 0.24982 0.23519 0.46044 0.0
C881 C 0.25682 0.21658 0.50186 0.0
C882 C 0.25543 0.21929 0.56906 0.0
H883 H 0.28276 0.28421 0.72382 0.0
H884 H 0.28316 0.26848 0.64671 0.0
H885 H 0.26126 0.29132 0.6615 0.0
H886 H 0.23382 0.27622 0.57568 0.0
H887 H 0.23676 0.27164 0.45696 0.0
H888 H 0.77951 0.27559 0.00389 0.0
H889 H 0.7771 0.26807 0.88688 0.0
H890 H 0.72389 0.21371 0.91732 0.0
H891 H 0.72641 0.22099 0.03544 0.0
H892 H 0.78154 0.22246 0.81021 0.0
H893 H 0.69294 0.26779 0.7968 0.0
H894 H 0.71307 0.27177 0.86524 0.0
H895 H 0.69673 0.24438 0.85551 0.0
C896 C 0.76754 0.26177 0.98579 0.0
C897 C 0.75298 0.249 0.02852 0.0
C898 C 0.76623 0.25749 0.91904 0.0
C899 C 0.7501 0.24062 0.89371 0.0
C900 C 0.73631 0.22696 0.93626 0.0
H901 H 0.73168 0.19497 0.49626 0.0
H902 H 0.73265 0.19887 0.61432 0.0
C903 C 0.73786 0.23101 0.0035 0.0
C904 C 0.74694 0.23858 0.82254 0.0
H905 H 0.70939 0.25411 0.69799 0.0
C906 C 0.76573 0.22921 0.78561 0.0
C907 C 0.72642 0.24781 0.7909 0.0
C908 C 0.70612 0.25867 0.8288 0.0
C909 C 0.76442 0.22866 0.71751 0.0
C910 C 0.74389 0.23782 0.68593 0.0
C911 C 0.72513 0.24726 0.72272 0.0
C912 C 0.74132 0.23649 0.61462 0.0
C913 C 0.78501 0.21846 0.67939 0.0
C914 C 0.74526 0.25664 0.57597 0.0
C915 C 0.74465 0.25452 0.508 0.0
C916 C 0.74025 0.23218 0.47838 0.0
C917 C 0.73551 0.21234 0.51766 0.0
C918 C 0.73596 0.21451 0.58508 0.0
H919 H 0.80081 0.21469 0.71078 0.0
H920 H 0.77934 0.20153 0.65527 0.0
H921 H 0.79033 0.23106 0.64074 0.0
H922 H 0.74942 0.27377 0.59836 0.0
H923 H 0.74836 0.27007 0.47883 0.0
H924 H 0.7686 0.77912 0.50111 0.0
H925 H 0.7694 0.77433 0.38313 0.0
H926 H 0.71627 0.71879 0.39348 0.0
H927 H 0.71561 0.72322 0.51291 0.0
H928 H 0.77614 0.72594 0.30588 0.0
H929 H 0.69206 0.77743 0.26611 0.0
H930 H 0.71055 0.78174 0.33775 0.0
H931 H 0.69285 0.75521 0.32905 0.0
C932 C 0.75711 0.76578 0.47846 0.0
C933 C 0.74187 0.75166 0.51619 0.0
C934 C 0.75767 0.76306 0.41106 0.0
C935 C 0.74277 0.7464 0.37976 0.0
C936 C 0.72783 0.73183 0.41705 0.0
H937 H 0.71864 0.70799 0.97951 0.0
H938 H 0.71747 0.71414 0.09718 0.0
C939 C 0.72752 0.7343 0.48504 0.0
C940 C 0.74268 0.74486 0.30788 0.0
H941 H 0.71151 0.76245 0.17293 0.0
C942 C 0.76202 0.73387 0.27671 0.0
C943 C 0.72438 0.75553 0.27028 0.0
C944 C 0.70375 0.76829 0.30205 0.0
C945 C 0.7633 0.73288 0.20855 0.0
C946 C 0.74494 0.74345 0.1709 0.0
C947 C 0.72564 0.75453 0.20209 0.0
C948 C 0.74471 0.7415 0.09905 0.0
C949 C 0.784 0.72019 0.17691 0.0
C950 C 0.76009 0.75531 0.06098 0.0
C951 C 0.76058 0.75207 -0.00678 0.0
C952 C 0.74602 0.73464 0.96314 0.0
C953 C 0.73032 0.7213 0.00151 0.0
C954 C 0.72953 0.72485 0.06865 0.0
H955 H 0.79549 0.7108 0.21285 0.0
H956 H 0.77732 0.70697 0.14042 0.0
H957 H 0.7951 0.73339 0.15092 0.0
H958 H 0.77191 0.7683 0.08379 0.0
H959 H 0.77281 0.76258 0.96475 0.0
H960 H 0.47111 0.45029 0.75361 0.0
H961 H 0.47352 0.4577 0.6369 0.0
H962 H 0.48838 0.53214 0.67603 0.0
H963 H 0.4851 0.52501 0.79287 0.0
H964 H 0.46103 0.52539 0.56499 0.0
H965 H 0.53996 0.46569 0.56208 0.0
H966 H 0.51386 0.45113 0.59243 0.0
H967 H 0.52653 0.47611 0.63656 0.0
C968 C 0.47414 0.46836 0.73718 0.0
C969 C 0.47815 0.48701 0.78214 0.0
C970 C 0.47582 0.47253 0.67064 0.0
C971 C 0.48207 0.49526 0.64811 0.0
C972 C 0.4839 0.51439 0.69255 0.0
H973 H 0.5126 0.53398 0.24135 0.0
H974 H 0.51687 0.534 0.36086 0.0
C975 C 0.48182 0.51032 0.75924 0.0
C976 C 0.48812 0.49855 0.57884 0.0
H977 H 0.52329 0.47592 0.45811 0.0
C978 C 0.4749 0.51489 0.54179 0.0
C979 C 0.50657 0.48514 0.54897 0.0
C980 C 0.52273 0.46873 0.58722 0.0
C981 C 0.47861 0.51702 0.47469 0.0
C982 C 0.49599 0.50248 0.44431 0.0
C983 C 0.50997 0.48699 0.48177 0.0
C984 C 0.49752 0.50088 0.37284 0.0
C985 C 0.46314 0.53385 0.43584 0.0
C986 C 0.48622 0.48176 0.34064 0.0
C987 C 0.48393 0.48169 0.27317 0.0
C988 C 0.49314 0.50059 0.23689 0.0
C989 C 0.50584 0.519 0.26857 0.0
C990 C 0.50806 0.51913 0.33652 0.0
H991 H 0.45018 0.54369 0.46671 0.0
H992 H 0.47456 0.54703 0.41084 0.0
H993 H 0.45311 0.52366 0.39783 0.0
H994 H 0.4779 0.46761 0.36801 0.0
H995 H 0.47361 0.46762 0.24957 0.0
H996 H 0.00653 0.44603 0.73864 0.0
H997 H 0.00696 0.45331 0.85603 0.0
H998 H 0.00586 0.52934 0.82373 0.0
H999 H 0.00607 0.52216 0.70583 0.0
H1000 H 0.03341 0.51409 0.9365 0.0
H1001 H 0.94173 0.47632 0.92768 0.0
H1002 H 0.96403 0.45706 0.89312 0.0
H1003 H 0.95749 0.48526 0.85575 0.0
C1004 C 0.00723 0.46429 0.75663 0.0
C1005 C 0.00601 0.48352 0.71345 0.0
C1006 C 0.00727 0.46842 0.82354 0.0
C1007 C 0.00566 0.49181 0.84819 0.0
C1008 C 0.00685 0.51115 0.8054 0.0
H1009 H 0.98371 0.54251 0.24549 0.0
H1010 H 0.98144 0.53983 0.12643 0.0
C1011 C 0.00714 0.50702 0.73818 0.0
C1012 C 0.00024 0.49576 0.91766 0.0
H1013 H 0.95877 0.48283 0.03292 0.0
C1014 C 0.01702 0.50751 0.95759 0.0
C1015 C 0.97865 0.48737 0.94463 0.0
C1016 C 0.95931 0.476 0.90305 0.0
C1017 C 0.01322 0.51012 0.02463 0.0
C1018 C -0.00796 0.5009 0.05187 0.0
C1019 C 0.975 0.48974 0.01169 0.0
C1020 C 0.98803 0.50175 0.12264 0.0
C1021 C 0.03221 0.52194 0.06646 0.0
C1022 C 0.99081 0.48093 0.15944 0.0
C1023 C -0.00849 0.48236 0.2273 0.0
C1024 C 0.98959 0.50464 0.25873 0.0
C1025 C 0.98493 0.52514 0.22199 0.0
C1026 C 0.9839 0.52366 0.15424 0.0
H1027 H 0.04864 0.52594 0.03876 0.0
H1028 H 0.02519 0.53897 0.08675 0.0
H1029 H 0.037 0.51027 0.10796 0.0
H1030 H -0.00592 0.46389 0.13565 0.0
H1031 H -0.00426 0.46645 0.25477 0.0
loop_
_geom_bond_atom_site_label_1
_geom_bond_atom_site_label_2
_geom_bond_distance
_geom_bond_site_symmetry_2
_ccdc_geom_bond_type
O0 Mg1 1.990 . S
O0 C14 1.253 . S
Mg1 O0 1.990 . S
Mg1 O4 2.180 . S
Mg1 O5 2.117 . S
Mg1 O19 2.030 1_565 S
O2 Mg3 2.072 1_655 S
O2 C14 1.260 1_645 S
Mg3 O2 2.072 1_455 S
Mg3 O4 2.099 1_545 S
Mg3 O6 2.079 . S
Mg3 O7 2.072 1_445 S
Mg3 O9 2.099 1_455 S
Mg3 O20 2.079 . S
O4 Mg1 2.180 . S
O4 Mg3 2.099 1_565 S
O4 C15 1.279 . S
O5 Mg1 2.117 . S
O5 C15 1.250 . S
O6 Mg3 2.079 . S
O6 C16 1.264 1_455 S
O7 Mg3 2.072 1_665 S
O7 C17 1.260 . S
Mg8 O9 2.180 . S
Mg8 O10 2.030 . S
Mg8 O11 1.990 1_545 S
Mg8 O12 2.117 . S
O9 Mg3 2.099 1_655 S
O9 Mg8 2.180 . S
O9 C18 1.279 . S
O10 Mg8 2.030 . S
O10 C16 1.248 . S
O11 Mg8 1.990 1_565 S
O11 C17 1.253 . S
O12 Mg8 2.117 . S
O12 C18 1.250 . S
C13 O19 1.248 . S
C13 O20 1.264 . S
C14 O0 1.253 . S
C14 O2 1.260 1_465 S
C15 O4 1.279 . S
C15 O5 1.250 . S
C16 O6 1.264 1_655 S
C16 O10 1.248 . S
C17 O7 1.260 . S
C17 O11 1.253 . S
C18 O9 1.279 . S
C18 O12 1.250 . S
O19 Mg1 2.030 1_545 S
O19 C13 1.248 . S
O20 Mg3 2.079 . S
O20 C13 1.264 . S
O21 Mg22 1.990 . S
O21 C35 1.253 . S
Mg22 O21 1.990 . S
Mg22 O25 2.180 . S
Mg22 O26 2.117 . S
Mg22 O40 2.030 . S
O23 Mg24 2.072 . S
O23 C35 1.260 . S
Mg24 O23 2.072 . S
Mg24 O25 2.099 . S
Mg24 O27 2.079 . S
Mg24 O28 2.072 . S
Mg24 O30 2.099 . S
Mg24 O41 2.079 . S
O25 Mg22 2.180 . S
O25 Mg24 2.099 . S
O25 C36 1.279 . S
O26 Mg22 2.117 . S
O26 C36 1.250 . S
O27 Mg24 2.079 . S
O27 C37 1.264 . S
O28 Mg24 2.072 . S
O28 C38 1.260 . S
Mg29 O30 2.180 . S
Mg29 O31 2.030 . S
Mg29 O32 1.990 . S
Mg29 O33 2.117 . S
O30 Mg24 2.099 . S
O30 Mg29 2.180 . S
O30 C39 1.279 . S
O31 Mg29 2.030 . S
O31 C37 1.248 . S
O32 Mg29 1.990 . S
O32 C38 1.253 . S
O33 Mg29 2.117 . S
O33 C39 1.250 . S
C34 O40 1.248 . S
C34 O41 1.264 . S
C35 O21 1.253 . S
C35 O23 1.260 . S
C36 O25 1.279 . S
C36 O26 1.250 . S
C37 O27 1.264 . S
C37 O31 1.248 . S
C38 O28 1.260 . S
C38 O32 1.253 . S
C39 O30 1.279 . S
C39 O33 1.250 . S
O40 Mg22 2.030 . S
O40 C34 1.248 . S
O41 Mg24 2.079 . S
O41 C34 1.264 . S
O42 Mg43 1.990 . S
O42 C56 1.253 . S
Mg43 O42 1.990 . S
Mg43 O46 2.180 1_554 S
Mg43 O47 2.117 . S
Mg43 O61 2.030 1_565 S
O44 Mg45 2.072 1_554 S
O44 C56 1.260 1_545 S
Mg45 O44 2.072 1_556 S
Mg45 O46 2.099 1_545 S
Mg45 O48 2.079 . S
Mg45 O49 2.072 1_545 S
Mg45 O51 2.099 . S
Mg45 O62 2.079 1_556 S
O46 Mg43 2.180 1_556 S
O46 Mg45 2.099 1_565 S
O46 C57 1.279 . S
O47 Mg43 2.117 . S
O47 C57 1.250 1_554 S
O48 Mg45 2.079 . S
O48 C58 1.264 . S
O49 Mg45 2.072 1_565 S
O49 C59 1.260 . S
Mg50 O51 2.180 . S
Mg50 O52 2.030 . S
Mg50 O53 1.990 1_545 S
Mg50 O54 2.117 1_556 S
O51 Mg45 2.099 . S
O51 Mg50 2.180 . S
O51 C60 1.279 1_556 S
O52 Mg50 2.030 . S
O52 C58 1.248 . S
O53 Mg50 1.990 1_565 S
O53 C59 1.253 . S
O54 Mg50 2.117 1_554 S
O54 C60 1.250 . S
C55 O61 1.248 . S
C55 O62 1.264 . S
C56 O42 1.253 . S
C56 O44 1.260 1_565 S
C57 O46 1.279 . S
C57 O47 1.250 1_556 S
C58 O48 1.264 . S
C58 O52 1.248 . S
C59 O49 1.260 . S
C59 O53 1.253 . S
C60 O51 1.279 1_554 S
C60 O54 1.250 . S
O61 Mg43 2.030 1_545 S
O61 C55 1.248 . S
O62 Mg45 2.079 1_554 S
O62 C55 1.264 . S
O63 Mg64 1.990 . S
O63 C77 1.253 . S
Mg64 O63 1.990 . S
Mg64 O67 2.180 . S
Mg64 O68 2.117 . S
Mg64 O82 2.030 . S
O65 Mg66 2.072 . S
O65 C77 1.260 . S
Mg66 O65 2.072 . S
Mg66 O67 2.099 . S
Mg66 O69 2.079 . S
Mg66 O70 2.072 . S
Mg66 O72 2.099 . S
Mg66 O83 2.079 . S
O67 Mg64 2.180 . S
O67 Mg66 2.099 . S
O67 C78 1.279 . S
O68 Mg64 2.117 . S
O68 C78 1.250 . S
O69 Mg66 2.079 . S
O69 C79 1.264 . S
O70 Mg66 2.072 . S
O70 C80 1.260 . S
Mg71 O72 2.180 . S
Mg71 O73 2.030 . S
Mg71 O74 1.990 . S
Mg71 O75 2.117 . S
O72 Mg66 2.099 . S
O72 Mg71 2.180 . S
O72 C81 1.279 . S
O73 Mg71 2.030 . S
O73 C79 1.248 . S
O74 Mg71 1.990 . S
O74 C80 1.253 . S
O75 Mg71 2.117 . S
O75 C81 1.250 . S
C76 O82 1.248 . S
C76 O83 1.264 . S
C77 O63 1.253 . S
C77 O65 1.260 . S
C78 O67 1.279 . S
C78 O68 1.250 . S
C79 O69 1.264 . S
C79 O73 1.248 . S
C80 O70 1.260 . S
C80 O74 1.253 . S
C81 O72 1.279 . S
C81 O75 1.250 . S
O82 Mg64 2.030 . S
O82 C76 1.248 . S
O83 Mg66 2.079 . S
O83 C76 1.264 . S
O84 Mg85 1.990 . S
O84 C98 1.253 . S
Mg85 O84 1.990 . S
Mg85 O88 2.180 . S
Mg85 O89 2.117 . S
Mg85 O103 2.030 . S
O86 Mg87 2.072 . S
O86 C98 1.260 . S
Mg87 O86 2.072 . S
Mg87 O88 2.099 . S
Mg87 O90 2.079 . S
Mg87 O91 2.072 . S
Mg87 O93 2.099 . S
Mg87 O104 2.079 . S
O88 Mg85 2.180 . S
O88 Mg87 2.099 . S
O88 C99 1.279 . S
O89 Mg85 2.117 . S
O89 C99 1.250 . S
O90 Mg87 2.079 . S
O90 C100 1.264 . S
O91 Mg87 2.072 . S
O91 C101 1.260 . S
Mg92 O93 2.180 . S
Mg92 O94 2.030 . S
Mg92 O95 1.990 . S
Mg92 O96 2.117 . S
O93 Mg87 2.099 . S
O93 Mg92 2.180 . S
O93 C102 1.279 . S
O94 Mg92 2.030 . S
O94 C100 1.248 . S
O95 Mg92 1.990 . S
O95 C101 1.253 . S
O96 Mg92 2.117 . S
O96 C102 1.250 . S
C97 O103 1.248 . S
C97 O104 1.264 . S
C98 O84 1.253 . S
C98 O86 1.260 . S
C99 O88 1.279 . S
C99 O89 1.250 . S
C100 O90 1.264 . S
C100 O94 1.248 . S
C101 O91 1.260 . S
C101 O95 1.253 . S
C102 O93 1.279 . S
C102 O96 1.250 . S
O103 Mg85 2.030 . S
O103 C97 1.248 . S
O104 Mg87 2.079 . S
O104 C97 1.264 . S
O105 Mg106 1.990 . S
O105 C119 1.253 . S
Mg106 O105 1.990 . S
Mg106 O109 2.180 . S
Mg106 O110 2.117 . S
Mg106 O124 2.030 . S
O107 Mg108 2.072 . S
O107 C119 1.260 . S
Mg108 O107 2.072 . S
Mg108 O109 2.099 . S
Mg108 O111 2.079 . S
Mg108 O112 2.072 . S
Mg108 O114 2.099 . S
Mg108 O125 2.079 . S
O109 Mg106 2.180 . S
O109 Mg108 2.099 . S
O109 C120 1.279 . S
O110 Mg106 2.117 . S
O110 C120 1.250 . S
O111 Mg108 2.079 . S
O111 C121 1.264 . S
O112 Mg108 2.072 . S
O112 C122 1.260 . S
Mg113 O114 2.180 . S
Mg113 O115 2.030 . S
Mg113 O116 1.990 . S
Mg113 O117 2.117 . S
O114 Mg108 2.099 . S
O114 Mg113 2.180 . S
O114 C123 1.279 . S
O115 Mg113 2.030 . S
O115 C121 1.248 . S
O116 Mg113 1.990 . S
O116 C122 1.253 . S
O117 Mg113 2.117 . S
O117 C123 1.250 . S
C118 O124 1.248 . S
C118 O125 1.264 . S
C119 O105 1.253 . S
C119 O107 1.260 . S
C120 O109 1.279 . S
C120 O110 1.250 . S
C121 O111 1.264 . S
C121 O115 1.248 . S
C122 O112 1.260 . S
C122 O116 1.253 . S
C123 O114 1.279 . S
C123 O117 1.250 . S
O124 Mg106 2.030 . S
O124 C118 1.248 . S
O125 Mg108 2.079 . S
O125 C118 1.264 . S
O126 Mg127 1.990 . S
O126 C140 1.253 . S
Mg127 O126 1.990 . S
Mg127 O130 2.180 1_556 S
Mg127 O131 2.117 . S
Mg127 O145 2.030 . S
O128 Mg129 2.072 1_556 S
O128 C140 1.260 . S
Mg129 O128 2.072 1_554 S
Mg129 O130 2.099 . S
Mg129 O132 2.079 . S
Mg129 O133 2.072 . S
Mg129 O135 2.099 . S
Mg129 O146 2.079 . S
O130 Mg127 2.180 1_554 S
O130 Mg129 2.099 . S
O130 C141 1.279 . S
O131 Mg127 2.117 . S
O131 C141 1.250 1_556 S
O132 Mg129 2.079 . S
O132 C142 1.264 . S
O133 Mg129 2.072 . S
O133 C143 1.260 . S
Mg134 O135 2.180 . S
Mg134 O136 2.030 . S
Mg134 O137 1.990 . S
Mg134 O138 2.117 . S
O135 Mg129 2.099 . S
O135 Mg134 2.180 . S
O135 C144 1.279 1_554 S
O136 Mg134 2.030 . S
O136 C142 1.248 . S
O137 Mg134 1.990 . S
O137 C143 1.253 . S
O138 Mg134 2.117 . S
O138 C144 1.250 1_554 S
C139 O145 1.248 . S
C139 O146 1.264 1_556 S
C140 O126 1.253 . S
C140 O128 1.260 . S
C141 O130 1.279 . S
C141 O131 1.250 1_554 S
C142 O132 1.264 . S
C142 O136 1.248 . S
C143 O133 1.260 . S
C143 O137 1.253 . S
C144 O135 1.279 1_556 S
C144 O138 1.250 1_556 S
O145 Mg127 2.030 . S
O145 C139 1.248 . S
O146 Mg129 2.079 . S
O146 C139 1.264 1_554 S
O147 Mg148 1.990 . S
O147 C161 1.253 . S
Mg148 O147 1.990 . S
Mg148 O151 2.180 . S
Mg148 O152 2.117 . S
Mg148 O166 2.030 . S
O149 Mg150 2.072 . S
O149 C161 1.260 1_455 S
Mg150 O149 2.072 . S
Mg150 O151 2.099 1_455 S
Mg150 O153 2.079 1_455 S
Mg150 O154 2.072 . S
Mg150 O156 2.099 . S
Mg150 O167 2.079 1_455 S
O151 Mg148 2.180 . S
O151 Mg150 2.099 1_655 S
O151 C162 1.279 . S
O152 Mg148 2.117 . S
O152 C162 1.250 . S
O153 Mg150 2.079 1_655 S
O153 C163 1.264 1_655 S
O154 Mg150 2.072 . S
O154 C164 1.260 . S
Mg155 O156 2.180 . S
Mg155 O157 2.030 . S
Mg155 O158 1.990 . S
Mg155 O159 2.117 . S
O156 Mg150 2.099 . S
O156 Mg155 2.180 . S
O156 C165 1.279 . S
O157 Mg155 2.030 . S
O157 C163 1.248 . S
O158 Mg155 1.990 . S
O158 C164 1.253 . S
O159 Mg155 2.117 . S
O159 C165 1.250 . S
C160 O166 1.248 . S
C160 O167 1.264 . S
C161 O147 1.253 . S
C161 O149 1.260 1_655 S
C162 O151 1.279 . S
C162 O152 1.250 . S
C163 O153 1.264 1_455 S
C163 O157 1.248 . S
C164 O154 1.260 . S
C164 O158 1.253 . S
C165 O156 1.279 . S
C165 O159 1.250 . S
O166 Mg148 2.030 . S
O166 C160 1.248 . S
O167 Mg150 2.079 1_655 S
O167 C160 1.264 . S
H168 C176 0.929 . S
H169 C178 0.930 . S
H170 C180 0.930 . S
H171 C183 0.929 . S
H172 C186 0.930 . S
H173 C188 0.960 . S
H174 C188 0.960 . S
H175 C188 0.960 . S
C176 H168 0.929 . S
C176 C177 1.377 . S
C176 C178 1.384 . S
C177 C176 1.377 . S
C177 C183 1.390 . S
C178 H169 0.930 . S
C178 C176 1.384 . S
C178 C179 1.372 . S
C179 C178 1.372 . S
C179 C180 1.400 . S
C179 C184 1.490 . S
C180 H170 0.930 . S
C180 C179 1.400 . S
C180 C183 1.386 . S
H181 C197 0.930 . S
H182 C198 0.931 . S
C183 H171 0.929 . S
C183 C177 1.390 . S
C183 C180 1.386 . S
C184 C179 1.490 . S
C184 C186 1.395 . S
C184 C187 1.403 . S
H185 C191 0.930 . S
C186 H172 0.930 . S
C186 C184 1.395 . S
C186 C189 1.403 . S
C187 C184 1.403 . S
C187 C188 1.524 . S
C187 C191 1.400 . S
C188 H173 0.960 . S
C188 H174 0.960 . S
C188 H175 0.960 . S
C188 C187 1.524 . S
C189 C186 1.403 . S
C189 C190 1.392 . S
C189 C193 1.495 . S
C190 C189 1.392 . S
C190 C191 1.385 . S
C190 C192 1.478 . S
C191 H185 0.930 . S
C191 C187 1.400 . S
C191 C190 1.385 . S
C192 C190 1.478 . S
C192 C194 1.381 . S
C192 C198 1.383 . S
C193 C189 1.495 . S
C193 H199 0.959 . S
C193 H200 0.961 . S
C193 H201 0.960 . S
C194 C192 1.381 . S
C194 C195 1.394 . S
C194 H202 0.930 . S
C195 C194 1.394 . S
C195 C196 1.383 . S
C195 H203 0.929 . S
C196 C195 1.383 . S
C196 C197 1.377 . S
C197 H181 0.930 . S
C197 C196 1.377 . S
C197 C198 1.379 . S
C198 H182 0.931 . S
C198 C192 1.383 . S
C198 C197 1.379 . S
H199 C193 0.959 . S
H200 C193 0.961 . S
H201 C193 0.960 . S
H202 C194 0.930 . S
H203 C195 0.929 . S
H204 C212 0.929 . S
H205 C214 0.930 . S
H206 C216 0.930 . S
H207 C219 0.929 . S
H208 C222 0.930 . S
H209 C224 0.960 . S
H210 C224 0.960 . S
H211 C224 0.960 . S
C212 H204 0.929 . S
C212 C213 1.377 . S
C212 C214 1.384 . S
C213 C212 1.377 . S
C213 C219 1.390 . S
C214 H205 0.930 . S
C214 C212 1.384 . S
C214 C215 1.372 . S
C215 C214 1.372 . S
C215 C216 1.400 . S
C215 C220 1.490 . S
C216 H206 0.930 . S
C216 C215 1.400 . S
C216 C219 1.386 . S
H217 C233 0.930 . S
H218 C234 0.931 . S
C219 H207 0.929 . S
C219 C213 1.390 . S
C219 C216 1.386 . S
C220 C215 1.490 . S
C220 C222 1.395 . S
C220 C223 1.403 . S
H221 C227 0.930 . S
C222 H208 0.930 . S
C222 C220 1.395 . S
C222 C225 1.403 . S
C223 C220 1.403 . S
C223 C224 1.524 . S
C223 C227 1.400 . S
C224 H209 0.960 . S
C224 H210 0.960 . S
C224 H211 0.960 . S
C224 C223 1.524 . S
C225 C222 1.403 . S
C225 C226 1.392 . S
C225 C229 1.495 . S
C226 C225 1.392 . S
C226 C227 1.385 . S
C226 C228 1.478 . S
C227 H221 0.930 . S
C227 C223 1.400 . S
C227 C226 1.385 . S
C228 C226 1.478 . S
C228 C230 1.381 . S
C228 C234 1.383 . S
C229 C225 1.495 . S
C229 H235 0.959 . S
C229 H236 0.961 . S
C229 H237 0.960 . S
C230 C228 1.381 . S
C230 C231 1.394 . S
C230 H238 0.930 . S
C231 C230 1.394 . S
C231 C232 1.383 . S
C231 H239 0.929 . S
C232 C231 1.383 . S
C232 C233 1.377 . S
C233 H217 0.930 . S
C233 C232 1.377 . S
C233 C234 1.379 . S
C234 H218 0.931 . S
C234 C228 1.383 . S
C234 C233 1.379 . S
H235 C229 0.959 . S
H236 C229 0.961 . S
H237 C229 0.960 . S
H238 C230 0.930 . S
H239 C231 0.929 . S
H240 C248 0.929 . S
H241 C250 0.930 . S
H242 C252 0.930 . S
H243 C255 0.929 . S
H244 C258 0.930 . S
H245 C260 0.960 . S
H246 C260 0.960 . S
H247 C260 0.960 . S
C248 H240 0.929 . S
C248 C249 1.377 . S
C248 C250 1.384 . S
C249 C248 1.377 . S
C249 C255 1.390 . S
C250 H241 0.930 . S
C250 C248 1.384 . S
C250 C251 1.372 . S
C251 C250 1.372 . S
C251 C252 1.400 . S
C251 C256 1.490 . S
C252 H242 0.930 . S
C252 C251 1.400 . S
C252 C255 1.386 . S
H253 C269 0.930 . S
H254 C270 0.931 . S
C255 H243 0.929 . S
C255 C249 1.390 . S
C255 C252 1.386 . S
C256 C251 1.490 . S
C256 C258 1.395 . S
C256 C259 1.403 . S
H257 C263 0.930 . S
C258 H244 0.930 . S
C258 C256 1.395 . S
C258 C261 1.403 . S
C259 C256 1.403 . S
C259 C260 1.524 . S
C259 C263 1.400 . S
C260 H245 0.960 . S
C260 H246 0.960 . S
C260 H247 0.960 . S
C260 C259 1.524 . S
C261 C258 1.403 . S
C261 C262 1.392 . S
C261 C265 1.495 1_556 S
C262 C261 1.392 . S
C262 C263 1.385 . S
C262 C264 1.478 . S
C263 H257 0.930 . S
C263 C259 1.400 . S
C263 C262 1.385 . S
C264 C262 1.478 . S
C264 C266 1.381 . S
C264 C270 1.383 . S
C265 C261 1.495 1_554 S
C265 H271 0.959 . S
C265 H272 0.961 . S
C265 H273 0.960 . S
C266 C264 1.381 . S
C266 C267 1.394 . S
C266 H274 0.930 . S
C267 C266 1.394 . S
C267 C268 1.383 . S
C267 H275 0.929 . S
C268 C267 1.383 . S
C268 C269 1.377 . S
C269 H253 0.930 . S
C269 C268 1.377 . S
C269 C270 1.379 . S
C270 H254 0.931 . S
C270 C264 1.383 . S
C270 C269 1.379 . S
H271 C265 0.959 . S
H272 C265 0.961 . S
H273 C265 0.960 . S
H274 C266 0.930 . S
H275 C267 0.929 . S
H276 C284 0.929 . S
H277 C286 0.930 . S
H278 C288 0.930 . S
H279 C291 0.929 1_556 S
H280 C294 0.930 . S
H281 C296 0.960 1_556 S
H282 C296 0.960 . S
H283 C296 0.960 1_556 S
C284 H276 0.929 . S
C284 C285 1.377 . S
C284 C286 1.384 . S
C285 C284 1.377 . S
C285 C291 1.390 . S
C286 H277 0.930 . S
C286 C284 1.384 . S
C286 C287 1.372 . S
C287 C286 1.372 . S
C287 C288 1.400 . S
C287 C292 1.490 . S
C288 H278 0.930 . S
C288 C287 1.400 . S
C288 C291 1.386 . S
H289 C305 0.930 . S
H290 C306 0.931 . S
C291 H279 0.929 1_554 S
C291 C285 1.390 . S
C291 C288 1.386 . S
C292 C287 1.490 . S
C292 C294 1.395 . S
C292 C295 1.403 . S
H293 C299 0.930 . S
C294 H280 0.930 . S
C294 C292 1.395 . S
C294 C297 1.403 . S
C295 C292 1.403 . S
C295 C296 1.524 . S
C295 C299 1.400 . S
C296 H281 0.960 1_554 S
C296 H282 0.960 . S
C296 H283 0.960 1_554 S
C296 C295 1.524 . S
C297 C294 1.403 . S
C297 C298 1.392 . S
C297 C301 1.495 . S
C298 C297 1.392 . S
C298 C299 1.385 . S
C298 C300 1.478 . S
C299 H293 0.930 . S
C299 C295 1.400 . S
C299 C298 1.385 . S
C300 C298 1.478 . S
C300 C302 1.381 . S
C300 C306 1.383 . S
C301 C297 1.495 . S
C301 H307 0.959 . S
C301 H308 0.961 . S
C301 H309 0.960 . S
C302 C300 1.381 . S
C302 C303 1.394 . S
C302 H310 0.930 . S
C303 C302 1.394 . S
C303 C304 1.383 . S
C303 H311 0.929 . S
C304 C303 1.383 . S
C304 C305 1.377 . S
C305 H289 0.930 . S
C305 C304 1.377 . S
C305 C306 1.379 . S
C306 H290 0.931 . S
C306 C300 1.383 . S
C306 C305 1.379 . S
H307 C301 0.959 . S
H308 C301 0.961 . S
H309 C301 0.960 . S
H310 C302 0.930 . S
H311 C303 0.929 . S
H312 C320 0.929 . S
H313 C322 0.930 . S
H314 C324 0.930 . S
H315 C327 0.929 . S
H316 C330 0.930 . S
H317 C332 0.960 . S
H318 C332 0.960 . S
H319 C332 0.960 . S
C320 H312 0.929 . S
C320 C321 1.377 . S
C320 C322 1.384 . S
C321 C320 1.377 . S
C321 C327 1.390 . S
C322 H313 0.930 . S
C322 C320 1.384 . S
C322 C323 1.372 . S
C323 C322 1.372 . S
C323 C324 1.400 . S
C323 C328 1.490 . S
C324 H314 0.930 . S
C324 C323 1.400 . S
C324 C327 1.386 . S
H325 C341 0.930 . S
H326 C342 0.931 . S
C327 H315 0.929 . S
C327 C321 1.390 . S
C327 C324 1.386 . S
C328 C323 1.490 . S
C328 C330 1.395 . S
C328 C331 1.403 . S
H329 C335 0.930 . S
C330 H316 0.930 . S
C330 C328 1.395 . S
C330 C333 1.403 . S
C331 C328 1.403 . S
C331 C332 1.524 . S
C331 C335 1.400 . S
C332 H317 0.960 . S
C332 H318 0.960 . S
C332 H319 0.960 . S
C332 C331 1.524 . S
C333 C330 1.403 . S
C333 C334 1.392 . S
C333 C337 1.495 . S
C334 C333 1.392 . S
C334 C335 1.385 . S
C334 C336 1.478 . S
C335 H329 0.930 . S
C335 C331 1.400 . S
C335 C334 1.385 . S
C336 C334 1.478 . S
C336 C338 1.381 . S
C336 C342 1.383 . S
C337 C333 1.495 . S
C337 H343 0.959 . S
C337 H344 0.961 . S
C337 H345 0.960 . S
C338 C336 1.381 . S
C338 C339 1.394 . S
C338 H346 0.930 . S
C339 C338 1.394 . S
C339 C340 1.383 . S
C339 H347 0.929 . S
C340 C339 1.383 . S
C340 C341 1.377 . S
C341 H325 0.930 . S
C341 C340 1.377 . S
C341 C342 1.379 . S
C342 H326 0.931 . S
C342 C336 1.383 . S
C342 C341 1.379 . S
H343 C337 0.959 . S
H344 C337 0.961 . S
H345 C337 0.960 . S
H346 C338 0.930 . S
H347 C339 0.929 . S
H348 C356 0.929 . S
H349 C358 0.930 . S
H350 C360 0.930 . S
H351 C363 0.929 . S
H352 C366 0.930 . S
H353 C368 0.960 . S
H354 C368 0.960 . S
H355 C368 0.960 . S
C356 H348 0.929 . S
C356 C357 1.377 . S
C356 C358 1.384 . S
C357 C356 1.377 . S
C357 C363 1.390 . S
C358 H349 0.930 . S
C358 C356 1.384 . S
C358 C359 1.372 . S
C359 C358 1.372 . S
C359 C360 1.400 . S
C359 C364 1.490 . S
C360 H350 0.930 . S
C360 C359 1.400 . S
C360 C363 1.386 . S
H361 C377 0.930 . S
H362 C378 0.931 . S
C363 H351 0.929 . S
C363 C357 1.390 . S
C363 C360 1.386 . S
C364 C359 1.490 . S
C364 C366 1.395 . S
C364 C367 1.403 . S
H365 C371 0.930 . S
C366 H352 0.930 . S
C366 C364 1.395 . S
C366 C369 1.403 . S
C367 C364 1.403 . S
C367 C368 1.524 . S
C367 C371 1.400 . S
C368 H353 0.960 . S
C368 H354 0.960 . S
C368 H355 0.960 . S
C368 C367 1.524 . S
C369 C366 1.403 . S
C369 C370 1.392 . S
C369 C373 1.495 . S
C370 C369 1.392 . S
C370 C371 1.385 . S
C370 C372 1.478 . S
C371 H365 0.930 . S
C371 C367 1.400 . S
C371 C370 1.385 . S
C372 C370 1.478 . S
C372 C374 1.381 . S
C372 C378 1.383 . S
C373 C369 1.495 . S
C373 H379 0.959 . S
C373 H380 0.961 . S
C373 H381 0.960 . S
C374 C372 1.381 . S
C374 C375 1.394 . S
C374 H382 0.930 . S
C375 C374 1.394 . S
C375 C376 1.383 . S
C375 H383 0.929 . S
C376 C375 1.383 . S
C376 C377 1.377 . S
C377 H361 0.930 . S
C377 C376 1.377 . S
C377 C378 1.379 . S
C378 H362 0.931 . S
C378 C372 1.383 . S
C378 C377 1.379 . S
H379 C373 0.959 . S
H380 C373 0.961 . S
H381 C373 0.960 . S
H382 C374 0.930 . S
H383 C375 0.929 . S
H384 C392 0.929 . S
H385 C394 0.930 . S
H386 C396 0.930 . S
H387 C399 0.929 . S
H388 C402 0.930 . S
H389 C404 0.960 . S
H390 C404 0.960 . S
H391 C404 0.960 . S
C392 H384 0.929 . S
C392 C393 1.377 . S
C392 C394 1.384 . S
C393 C392 1.377 . S
C393 C399 1.390 . S
C394 H385 0.930 . S
C394 C392 1.384 . S
C394 C395 1.372 . S
C395 C394 1.372 . S
C395 C396 1.400 . S
C395 C400 1.490 . S
C396 H386 0.930 . S
C396 C395 1.400 . S
C396 C399 1.386 . S
H397 C413 0.930 1_556 S
H398 C414 0.931 . S
C399 H387 0.929 . S
C399 C393 1.390 . S
C399 C396 1.386 . S
C400 C395 1.490 . S
C400 C402 1.395 . S
C400 C403 1.403 . S
H401 C407 0.930 . S
C402 H388 0.930 . S
C402 C400 1.395 . S
C402 C405 1.403 . S
C403 C400 1.403 . S
C403 C404 1.524 . S
C403 C407 1.400 . S
C404 H389 0.960 . S
C404 H390 0.960 . S
C404 H391 0.960 . S
C404 C403 1.524 . S
C405 C402 1.403 . S
C405 C406 1.392 . S
C405 C409 1.495 . S
C406 C405 1.392 . S
C406 C407 1.385 . S
C406 C408 1.478 . S
C407 H401 0.930 . S
C407 C403 1.400 . S
C407 C406 1.385 . S
C408 C406 1.478 . S
C408 C410 1.381 . S
C408 C414 1.383 . S
C409 C405 1.495 . S
C409 H415 0.959 . S
C409 H416 0.961 . S
C409 H417 0.960 . S
C410 C408 1.381 . S
C410 C411 1.394 . S
C410 H418 0.930 . S
C411 C410 1.394 . S
C411 C412 1.383 . S
C411 H419 0.929 . S
C412 C411 1.383 . S
C412 C413 1.377 . S
C413 H397 0.930 1_554 S
C413 C412 1.377 . S
C413 C414 1.379 . S
C414 H398 0.931 . S
C414 C408 1.383 . S
C414 C413 1.379 . S
H415 C409 0.959 . S
H416 C409 0.961 . S
H417 C409 0.960 . S
H418 C410 0.930 . S
H419 C411 0.929 . S
H420 C428 0.929 . S
H421 C430 0.930 . S
H422 C432 0.930 . S
H423 C435 0.929 . S
H424 C438 0.930 . S
H425 C440 0.960 . S
H426 C440 0.960 . S
H427 C440 0.960 . S
C428 H420 0.929 . S
C428 C429 1.377 . S
C428 C430 1.384 . S
C429 C428 1.377 . S
C429 C435 1.390 . S
C430 H421 0.930 . S
C430 C428 1.384 . S
C430 C431 1.372 . S
C431 C430 1.372 . S
C431 C432 1.400 . S
C431 C436 1.490 . S
C432 H422 0.930 . S
C432 C431 1.400 . S
C432 C435 1.386 . S
H433 C449 0.930 . S
H434 C450 0.931 . S
C435 H423 0.929 . S
C435 C429 1.390 . S
C435 C432 1.386 . S
C436 C431 1.490 . S
C436 C438 1.395 . S
C436 C439 1.403 . S
H437 C443 0.930 . S
C438 H424 0.930 . S
C438 C436 1.395 . S
C438 C441 1.403 . S
C439 C436 1.403 . S
C439 C440 1.524 . S
C439 C443 1.400 . S
C440 H425 0.960 . S
C440 H426 0.960 . S
C440 H427 0.960 . S
C440 C439 1.524 . S
C441 C438 1.403 . S
C441 C442 1.392 . S
C441 C445 1.495 1_556 S
C442 C441 1.392 . S
C442 C443 1.385 . S
C442 C444 1.478 . S
C443 H437 0.930 . S
C443 C439 1.400 . S
C443 C442 1.385 . S
C444 C442 1.478 . S
C444 C446 1.381 . S
C444 C450 1.383 . S
C445 C441 1.495 1_554 S
C445 H451 0.959 . S
C445 H452 0.961 1_554 S
C445 H453 0.960 . S
C446 C444 1.381 . S
C446 C447 1.394 . S
C446 H454 0.930 1_556 S
C447 C446 1.394 . S
C447 C448 1.383 . S
C447 H455 0.929 1_556 S
C448 C447 1.383 . S
C448 C449 1.377 . S
C449 H433 0.930 . S
C449 C448 1.377 . S
C449 C450 1.379 . S
C450 H434 0.931 . S
C450 C444 1.383 . S
C450 C449 1.379 . S
H451 C445 0.959 . S
H452 C445 0.961 1_556 S
H453 C445 0.960 . S
H454 C446 0.930 1_554 S
H455 C447 0.929 1_554 S
H456 C464 0.929 . S
H457 C466 0.930 1_554 S
H458 C468 0.930 . S
H459 C471 0.929 . S
H460 C474 0.930 . S
H461 C476 0.960 . S
H462 C476 0.960 . S
H463 C476 0.960 . S
C464 H456 0.929 . S
C464 C465 1.377 1_554 S
C464 C466 1.384 1_554 S
C465 C464 1.377 1_556 S
C465 C471 1.390 . S
C466 H457 0.930 1_556 S
C466 C464 1.384 1_556 S
C466 C467 1.372 . S
C467 C466 1.372 . S
C467 C468 1.400 . S
C467 C472 1.490 . S
C468 H458 0.930 . S
C468 C467 1.400 . S
C468 C471 1.386 . S
H469 C485 0.930 . S
H470 C486 0.931 . S
C471 H459 0.929 . S
C471 C465 1.390 . S
C471 C468 1.386 . S
C472 C467 1.490 . S
C472 C474 1.395 . S
C472 C475 1.403 . S
H473 C479 0.930 . S
C474 H460 0.930 . S
C474 C472 1.395 . S
C474 C477 1.403 . S
C475 C472 1.403 . S
C475 C476 1.524 . S
C475 C479 1.400 . S
C476 H461 0.960 . S
C476 H462 0.960 . S
C476 H463 0.960 . S
C476 C475 1.524 . S
C477 C474 1.403 . S
C477 C478 1.392 . S
C477 C481 1.495 . S
C478 C477 1.392 . S
C478 C479 1.385 . S
C478 C480 1.478 . S
C479 H473 0.930 . S
C479 C475 1.400 . S
C479 C478 1.385 . S
C480 C478 1.478 . S
C480 C482 1.381 . S
C480 C486 1.383 . S
C481 C477 1.495 . S
C481 H487 0.959 . S
C481 H488 0.961 . S
C481 H489 0.960 . S
C482 C480 1.381 . S
C482 C483 1.394 . S
C482 H490 0.930 . S
C483 C482 1.394 . S
C483 C484 1.383 . S
C483 H491 0.929 . S
C484 C483 1.383 . S
C484 C485 1.377 . S
C485 H469 0.930 . S
C485 C484 1.377 . S
C485 C486 1.379 . S
C486 H470 0.931 . S
C486 C480 1.383 . S
C486 C485 1.379 . S
H487 C481 0.959 . S
H488 C481 0.961 . S
H489 C481 0.960 . S
H490 C482 0.930 . S
H491 C483 0.929 . S
H492 C500 0.929 . S
H493 C502 0.930 . S
H494 C504 0.930 . S
H495 C507 0.929 . S
H496 C510 0.930 . S
H497 C512 0.960 . S
H498 C512 0.960 . S
H499 C512 0.960 . S
C500 H492 0.929 . S
C500 C501 1.377 . S
C500 C502 1.384 . S
C501 C500 1.377 . S
C501 C507 1.390 . S
C502 H493 0.930 . S
C502 C500 1.384 . S
C502 C503 1.372 . S
C503 C502 1.372 . S
C503 C504 1.400 . S
C503 C508 1.490 . S
C504 H494 0.930 . S
C504 C503 1.400 . S
C504 C507 1.386 . S
H505 C521 0.930 1_556 S
H506 C522 0.940 . S
C507 H495 0.929 . S
C507 C501 1.390 . S
C507 C504 1.386 . S
C508 C503 1.490 . S
C508 C510 1.395 . S
C508 C511 1.403 . S
H509 C515 0.930 . S
C510 H496 0.930 . S
C510 C508 1.395 . S
C510 C513 1.403 . S
C511 C508 1.403 . S
C511 C512 1.524 . S
C511 C515 1.400 . S
C512 H497 0.960 . S
C512 H498 0.960 . S
C512 H499 0.960 . S
C512 C511 1.524 . S
C513 C510 1.403 . S
C513 C514 1.392 . S
C513 C517 1.495 . S
C514 C513 1.392 . S
C514 C515 1.385 . S
C514 C516 1.478 . S
C515 H509 0.930 . S
C515 C511 1.400 . S
C515 C514 1.385 . S
C516 C514 1.478 . S
C516 C518 1.381 . S
C516 C522 1.383 . S
C517 C513 1.495 . S
C517 H523 0.959 . S
C517 H524 0.961 . S
C517 H525 0.960 . S
C518 C516 1.381 . S
C518 C519 1.394 . S
C518 H526 0.930 . S
C519 C518 1.394 . S
C519 C520 1.383 . S
C519 H527 0.929 . S
C520 C519 1.383 . S
C520 C521 1.377 . S
C521 H505 0.930 1_554 S
C521 C520 1.377 . S
C521 C522 1.379 . S
C522 H506 0.940 . S
C522 C516 1.383 . S
C522 C521 1.379 . S
H523 C517 0.959 . S
H524 C517 0.961 . S
H525 C517 0.960 . S
H526 C518 0.930 . S
H527 C519 0.929 . S
H528 C536 0.929 . S
H529 C538 0.930 . S
H530 C540 0.930 . S
H531 C543 0.929 . S
H532 C546 0.930 . S
H533 C548 0.960 . S
H534 C548 0.960 . S
H535 C548 0.960 . S
C536 H528 0.929 . S
C536 C537 1.377 . S
C536 C538 1.384 . S
C537 C536 1.377 . S
C537 C543 1.390 . S
C538 H529 0.930 . S
C538 C536 1.384 . S
C538 C539 1.372 . S
C539 C538 1.372 . S
C539 C540 1.400 . S
C539 C544 1.490 . S
C540 H530 0.930 . S
C540 C539 1.400 . S
C540 C543 1.386 . S
H541 C557 0.930 . S
H542 C558 0.931 . S
C543 H531 0.929 . S
C543 C537 1.390 . S
C543 C540 1.386 . S
C544 C539 1.490 . S
C544 C546 1.395 . S
C544 C547 1.403 . S
H545 C551 0.930 . S
C546 H532 0.930 . S
C546 C544 1.395 . S
C546 C549 1.403 . S
C547 C544 1.403 . S
C547 C548 1.524 . S
C547 C551 1.400 . S
C548 H533 0.960 . S
C548 H534 0.960 . S
C548 H535 0.960 . S
C548 C547 1.524 . S
C549 C546 1.403 . S
C549 C550 1.392 . S
C549 C553 1.495 . S
C550 C549 1.392 . S
C550 C551 1.385 . S
C550 C552 1.478 . S
C551 H545 0.930 . S
C551 C547 1.400 . S
C551 C550 1.385 . S
C552 C550 1.478 . S
C552 C554 1.381 . S
C552 C558 1.383 . S
C553 C549 1.495 . S
C553 H559 0.959 . S
C553 H560 0.961 . S
C553 H561 0.960 . S
C554 C552 1.381 . S
C554 C555 1.394 . S
C554 H562 0.930 . S
C555 C554 1.394 . S
C555 C556 1.383 . S
C555 H563 0.929 . S
C556 C555 1.383 . S
C556 C557 1.377 . S
C557 H541 0.930 . S
C557 C556 1.377 . S
C557 C558 1.379 . S
C558 H542 0.931 . S
C558 C552 1.383 . S
C558 C557 1.379 . S
H559 C553 0.959 . S
H560 C553 0.961 . S
H561 C553 0.960 . S
H562 C554 0.930 . S
H563 C555 0.929 . S
H564 C572 0.929 . S
H565 C574 0.930 . S
H566 C576 0.930 . S
H567 C579 0.929 . S
H568 C582 0.930 . S
H569 C584 0.960 . S
H570 C584 0.960 . S
H571 C584 0.960 . S
C572 H564 0.929 . S
C572 C573 1.377 . S
C572 C574 1.384 . S
C573 C572 1.377 . S
C573 C579 1.390 . S
C574 H565 0.930 . S
C574 C572 1.384 . S
C574 C575 1.372 . S
C575 C574 1.372 . S
C575 C576 1.400 . S
C575 C580 1.490 . S
C576 H566 0.930 . S
C576 C575 1.400 . S
C576 C579 1.386 . S
H577 C593 0.930 . S
H578 C594 0.931 . S
C579 H567 0.929 . S
C579 C573 1.390 . S
C579 C576 1.386 . S
C580 C575 1.490 . S
C580 C582 1.395 . S
C580 C583 1.403 . S
H581 C587 0.930 . S
C582 H568 0.930 . S
C582 C580 1.395 . S
C582 C585 1.403 . S
C583 C580 1.403 . S
C583 C584 1.524 . S
C583 C587 1.400 . S
C584 H569 0.960 . S
C584 H570 0.960 . S
C584 H571 0.960 . S
C584 C583 1.524 . S
C585 C582 1.403 . S
C585 C586 1.392 . S
C585 C589 1.495 . S
C586 C585 1.392 . S
C586 C587 1.385 . S
C586 C588 1.478 . S
C587 H581 0.930 . S
C587 C583 1.400 . S
C587 C586 1.385 . S
C588 C586 1.478 . S
C588 C590 1.381 . S
C588 C594 1.383 . S
C589 C585 1.495 . S
C589 H595 0.959 . S
C589 H596 0.961 . S
C589 H597 0.960 . S
C590 C588 1.381 . S
C590 C591 1.394 . S
C590 H598 0.930 . S
C591 C590 1.394 . S
C591 C592 1.383 . S
C591 H599 0.929 . S
C592 C591 1.383 . S
C592 C593 1.377 . S
C593 H577 0.930 . S
C593 C592 1.377 . S
C593 C594 1.379 . S
C594 H578 0.931 . S
C594 C588 1.383 . S
C594 C593 1.379 . S
H595 C589 0.959 . S
H596 C589 0.961 . S
H597 C589 0.960 . S
H598 C590 0.930 . S
H599 C591 0.929 . S
H600 C608 0.929 . S
H601 C610 0.930 . S
H602 C612 0.930 . S
H603 C615 0.929 . S
H604 C618 0.930 . S
H605 C620 0.960 . S
H606 C620 0.960 . S
H607 C620 0.960 . S
C608 H600 0.929 . S
C608 C609 1.377 . S
C608 C610 1.384 . S
C609 C608 1.377 . S
C609 C615 1.390 . S
C610 H601 0.930 . S
C610 C608 1.384 . S
C610 C611 1.372 . S
C611 C610 1.372 . S
C611 C612 1.400 . S
C611 C616 1.490 . S
C612 H602 0.930 . S
C612 C611 1.400 . S
C612 C615 1.386 . S
H613 C629 0.930 1_556 S
H614 C630 0.931 . S
C615 H603 0.929 . S
C615 C609 1.390 . S
C615 C612 1.386 . S
C616 C611 1.490 . S
C616 C618 1.395 . S
C616 C619 1.403 . S
H617 C623 0.930 . S
C618 H604 0.930 . S
C618 C616 1.395 . S
C618 C621 1.403 . S
C619 C616 1.403 . S
C619 C620 1.524 . S
C619 C623 1.400 . S
C620 H605 0.960 . S
C620 H606 0.960 . S
C620 H607 0.960 . S
C620 C619 1.524 . S
C621 C618 1.403 . S
C621 C622 1.392 . S
C621 C625 1.495 . S
C622 C621 1.392 . S
C622 C623 1.385 . S
C622 C624 1.478 . S
C623 H617 0.930 . S
C623 C619 1.400 . S
C623 C622 1.385 . S
C624 C622 1.478 . S
C624 C626 1.381 . S
C624 C630 1.383 . S
C625 C621 1.495 . S
C625 H631 0.959 . S
C625 H632 0.961 . S
C625 H633 0.960 . S
C626 C624 1.381 . S
C626 C627 1.394 . S
C626 H634 0.930 . S
C627 C626 1.394 . S
C627 C628 1.383 . S
C627 H635 0.929 . S
C628 C627 1.383 . S
C628 C629 1.377 . S
C629 H613 0.930 1_554 S
C629 C628 1.377 . S
C629 C630 1.379 . S
C630 H614 0.931 . S
C630 C624 1.383 . S
C630 C629 1.379 . S
H631 C625 0.959 . S
H632 C625 0.961 . S
H633 C625 0.960 . S
H634 C626 0.930 . S
H635 C627 0.929 . S
H636 C644 0.929 . S
H637 C646 0.930 1_554 S
H638 C648 0.930 . S
H639 C651 0.929 . S
H640 C654 0.930 . S
H641 C656 0.960 . S
H642 C656 0.960 . S
H643 C656 0.960 . S
C644 H636 0.929 . S
C644 C645 1.377 1_554 S
C644 C646 1.384 1_554 S
C645 C644 1.377 1_556 S
C645 C651 1.390 . S
C646 H637 0.930 1_556 S
C646 C644 1.384 1_556 S
C646 C647 1.372 . S
C647 C646 1.372 . S
C647 C648 1.400 . S
C647 C652 1.490 . S
C648 H638 0.930 . S
C648 C647 1.400 . S
C648 C651 1.386 . S
H649 C665 0.930 . S
H650 C666 0.931 . S
C651 H639 0.929 . S
C651 C645 1.390 . S
C651 C648 1.386 . S
C652 C647 1.490 . S
C652 C654 1.395 . S
C652 C655 1.403 . S
H653 C659 0.930 . S
C654 H640 0.930 . S
C654 C652 1.395 . S
C654 C657 1.403 . S
C655 C652 1.403 . S
C655 C656 1.524 . S
C655 C659 1.400 . S
C656 H641 0.960 . S
C656 H642 0.960 . S
C656 H643 0.960 . S
C656 C655 1.524 . S
C657 C654 1.403 . S
C657 C658 1.392 . S
C657 C661 1.495 . S
C658 C657 1.392 . S
C658 C659 1.385 . S
C658 C660 1.478 . S
C659 H653 0.930 . S
C659 C655 1.400 . S
C659 C658 1.385 . S
C660 C658 1.478 . S
C660 C662 1.381 . S
C660 C666 1.383 . S
C661 C657 1.495 . S
C661 H667 0.959 . S
C661 H668 0.961 . S
C661 H669 0.960 . S
C662 C660 1.381 . S
C662 C663 1.394 . S
C662 H670 0.930 . S
C663 C662 1.394 . S
C663 C664 1.383 . S
C663 H671 0.929 . S
C664 C663 1.383 . S
C664 C665 1.377 . S
C665 H649 0.930 . S
C665 C664 1.377 . S
C665 C666 1.379 . S
C666 H650 0.931 . S
C666 C660 1.383 . S
C666 C665 1.379 . S
H667 C661 0.959 . S
H668 C661 0.961 . S
H669 C661 0.960 . S
H670 C662 0.930 . S
H671 C663 0.929 . S
H672 C680 0.929 . S
H673 C682 0.930 . S
H674 C684 0.930 . S
H675 C687 0.929 . S
H676 C690 0.930 . S
H677 C692 0.960 . S
H678 C692 0.960 . S
H679 C692 0.960 . S
C680 H672 0.929 . S
C680 C681 1.377 . S
C680 C682 1.384 . S
C681 C680 1.377 . S
C681 C687 1.390 . S
C682 H673 0.930 . S
C682 C680 1.384 . S
C682 C683 1.372 . S
C683 C682 1.372 . S
C683 C684 1.400 . S
C683 C688 1.490 . S
C684 H674 0.930 . S
C684 C683 1.400 . S
C684 C687 1.386 . S
H685 C701 0.930 . S
H686 C702 0.931 . S
C687 H675 0.929 . S
C687 C681 1.390 . S
C687 C684 1.386 . S
C688 C683 1.490 . S
C688 C690 1.395 . S
C688 C691 1.403 . S
H689 C695 0.930 . S
C690 H676 0.930 . S
C690 C688 1.395 . S
C690 C693 1.403 . S
C691 C688 1.403 . S
C691 C692 1.524 . S
C691 C695 1.400 . S
C692 H677 0.960 . S
C692 H678 0.960 . S
C692 H679 0.960 . S
C692 C691 1.524 . S
C693 C690 1.403 . S
C693 C694 1.392 . S
C693 C697 1.495 . S
C694 C693 1.392 . S
C694 C695 1.385 . S
C694 C696 1.478 . S
C695 H689 0.930 . S
C695 C691 1.400 . S
C695 C694 1.385 . S
C696 C694 1.478 . S
C696 C698 1.381 . S
C696 C702 1.383 . S
C697 C693 1.495 . S
C697 H703 0.959 . S
C697 H704 0.961 . S
C697 H705 0.960 . S
C698 C696 1.381 . S
C698 C699 1.394 . S
C698 H706 0.930 . S
C699 C698 1.394 . S
C699 C700 1.383 . S
C699 H707 0.929 . S
C700 C699 1.383 . S
C700 C701 1.377 . S
C701 H685 0.930 . S
C701 C700 1.377 . S
C701 C702 1.379 . S
C702 H686 0.931 . S
C702 C696 1.383 . S
C702 C701 1.379 . S
H703 C697 0.959 . S
H704 C697 0.961 . S
H705 C697 0.960 . S
H706 C698 0.930 . S
H707 C699 0.929 . S
H708 C716 0.929 . S
H709 C718 0.930 . S
H710 C720 0.930 . S
H711 C723 0.929 . S
H712 C726 0.930 . S
H713 C728 0.960 . S
H714 C728 0.960 . S
H715 C728 0.960 . S
C716 H708 0.929 . S
C716 C717 1.377 . S
C716 C718 1.384 . S
C717 C716 1.377 . S
C717 C723 1.390 . S
C718 H709 0.930 . S
C718 C716 1.384 . S
C718 C719 1.372 . S
C719 C718 1.372 . S
C719 C720 1.400 . S
C719 C724 1.490 . S
C720 H710 0.930 . S
C720 C719 1.400 . S
C720 C723 1.386 . S
H721 C737 0.930 . S
H722 C738 0.931 . S
C723 H711 0.929 . S
C723 C717 1.390 . S
C723 C720 1.386 . S
C724 C719 1.490 . S
C724 C726 1.395 . S
C724 C727 1.403 . S
H725 C731 0.930 . S
C726 H712 0.930 . S
C726 C724 1.395 . S
C726 C729 1.403 . S
C727 C724 1.403 . S
C727 C728 1.524 . S
C727 C731 1.400 . S
C728 H713 0.960 . S
C728 H714 0.960 . S
C728 H715 0.960 . S
C728 C727 1.524 . S
C729 C726 1.403 . S
C729 C730 1.392 . S
C729 C733 1.495 . S
C730 C729 1.392 . S
C730 C731 1.385 . S
C730 C732 1.478 . S
C731 H725 0.930 . S
C731 C727 1.400 . S
C731 C730 1.385 . S
C732 C730 1.478 . S
C732 C734 1.381 . S
C732 C738 1.383 . S
C733 C729 1.495 . S
C733 H739 0.959 . S
C733 H740 0.961 . S
C733 H741 0.960 . S
C734 C732 1.381 . S
C734 C735 1.394 . S
C734 H742 0.930 . S
C735 C734 1.394 . S
C735 C736 1.383 . S
C735 H743 0.929 . S
C736 C735 1.383 . S
C736 C737 1.377 . S
C737 H721 0.930 . S
C737 C736 1.377 . S
C737 C738 1.379 . S
C738 H722 0.931 . S
C738 C732 1.383 . S
C738 C737 1.379 . S
H739 C733 0.959 . S
H740 C733 0.961 . S
H741 C733 0.960 . S
H742 C734 0.930 . S
H743 C735 0.929 . S
H744 C752 0.929 . S
H745 C754 0.930 . S
H746 C756 0.930 . S
H747 C759 0.929 . S
H748 C762 0.930 . S
H749 C764 0.960 1_554 S
H750 C764 0.960 . S
H751 C764 0.960 . S
C752 H744 0.929 . S
C752 C753 1.369 1_655 S
C752 C754 1.384 . S
C753 C752 1.369 1_455 S
C753 C759 1.398 . S
C754 H745 0.930 . S
C754 C752 1.384 . S
C754 C755 1.396 . S
C755 C754 1.396 . S
C755 C756 1.375 1_655 S
C755 C760 1.489 . S
C756 H746 0.930 . S
C756 C755 1.375 1_455 S
C756 C759 1.386 . S
H757 C773 0.930 . S
H758 C774 0.931 . S
C759 H747 0.929 . S
C759 C753 1.398 . S
C759 C756 1.386 . S
C760 C755 1.489 . S
C760 C762 1.419 1_545 S
C760 C763 1.382 1_655 S
H761 C767 0.930 . S
C762 H748 0.930 . S
C762 C760 1.419 1_565 S
C762 C765 1.403 1_556 S
C763 C760 1.382 1_455 S
C763 C764 1.524 . S
C763 C767 1.400 1_556 S
C764 H749 0.960 1_556 S
C764 H750 0.960 . S
C764 H751 0.960 . S
C764 C763 1.524 . S
C765 C762 1.403 1_554 S
C765 C766 1.387 1_565 S
C765 C769 1.495 . S
C766 C765 1.387 1_545 S
C766 C767 1.391 1_655 S
C766 C768 1.477 1_545 S
C767 H761 0.930 . S
C767 C763 1.400 1_554 S
C767 C766 1.391 1_455 S
C768 C766 1.477 1_565 S
C768 C770 1.381 1_565 S
C768 C774 1.383 1_655 S
C769 C765 1.495 . S
C769 H775 0.959 . S
C769 H776 0.961 . S
C769 H777 0.960 . S
C770 C768 1.381 1_545 S
C770 C771 1.394 . S
C770 H778 0.930 . S
C771 C770 1.394 . S
C771 C772 1.358 1_645 S
C771 H779 0.929 . S
C772 C771 1.358 1_465 S
C772 C773 1.401 . S
C773 H757 0.930 . S
C773 C772 1.401 . S
C773 C774 1.379 . S
C774 H758 0.931 . S
C774 C768 1.383 1_455 S
C774 C773 1.379 . S
H775 C769 0.959 . S
H776 C769 0.961 . S
H777 C769 0.960 . S
H778 C770 0.930 . S
H779 C771 0.929 . S
H780 C788 0.929 . S
H781 C790 0.930 . S
H782 C792 0.930 . S
H783 C795 0.929 . S
H784 C798 0.930 . S
H785 C800 0.960 . S
H786 C800 0.960 . S
H787 C800 0.960 . S
C788 H780 0.929 . S
C788 C789 1.377 . S
C788 C790 1.384 . S
C789 C788 1.377 . S
C789 C795 1.390 . S
C790 H781 0.930 . S
C790 C788 1.384 . S
C790 C791 1.372 . S
C791 C790 1.372 . S
C791 C792 1.400 . S
C791 C796 1.490 . S
C792 H782 0.930 . S
C792 C791 1.400 . S
C792 C795 1.386 . S
H793 C809 0.930 . S
H794 C810 0.931 . S
C795 H783 0.929 . S
C795 C789 1.390 . S
C795 C792 1.386 . S
C796 C791 1.490 . S
C796 C798 1.395 . S
C796 C799 1.403 . S
H797 C803 0.930 . S
C798 H784 0.930 . S
C798 C796 1.395 . S
C798 C801 1.403 . S
C799 C796 1.403 . S
C799 C800 1.524 . S
C799 C803 1.400 . S
C800 H785 0.960 . S
C800 H786 0.960 . S
C800 H787 0.960 . S
C800 C799 1.524 . S
C801 C798 1.403 . S
C801 C802 1.392 . S
C801 C805 1.495 . S
C802 C801 1.392 . S
C802 C803 1.385 . S
C802 C804 1.478 . S
C803 H797 0.930 . S
C803 C799 1.400 . S
C803 C802 1.385 . S
C804 C802 1.478 . S
C804 C806 1.381 . S
C804 C810 1.383 . S
C805 C801 1.495 . S
C805 H811 0.959 . S
C805 H812 0.961 . S
C805 H813 0.960 . S
C806 C804 1.381 . S
C806 C807 1.394 . S
C806 H814 0.930 . S
C807 C806 1.394 . S
C807 C808 1.383 1_554 S
C807 H815 0.929 1_554 S
C808 C807 1.383 1_556 S
C808 C809 1.377 1_556 S
C809 H793 0.930 . S
C809 C808 1.377 1_554 S
C809 C810 1.379 . S
C810 H794 0.931 . S
C810 C804 1.383 . S
C810 C809 1.379 . S
H811 C805 0.959 . S
H812 C805 0.961 . S
H813 C805 0.960 . S
H814 C806 0.930 . S
H815 C807 0.929 1_556 S
H816 C824 0.929 . S
H817 C826 0.930 . S
H818 C828 0.930 . S
H819 C831 0.929 . S
H820 C834 0.930 . S
H821 C836 0.960 . S
H822 C836 0.960 . S
H823 C836 0.960 . S
C824 H816 0.929 . S
C824 C825 1.377 1_565 S
C824 C826 1.384 . S
C825 C824 1.377 1_545 S
C825 C831 1.390 . S
C826 H817 0.930 . S
C826 C824 1.384 . S
C826 C827 1.372 1_565 S
C827 C826 1.372 1_545 S
C827 C828 1.400 . S
C827 C832 1.490 . S
C828 H818 0.930 . S
C828 C827 1.400 . S
C828 C831 1.386 . S
H829 C845 0.930 . S
H830 C846 0.931 . S
C831 H819 0.929 . S
C831 C825 1.390 . S
C831 C828 1.386 . S
C832 C827 1.490 . S
C832 C834 1.395 1_545 S
C832 C835 1.403 . S
H833 C839 0.930 . S
C834 H820 0.930 . S
C834 C832 1.395 1_565 S
C834 C837 1.403 . S
C835 C832 1.403 . S
C835 C836 1.524 . S
C835 C839 1.400 . S
C836 H821 0.960 . S
C836 H822 0.960 . S
C836 H823 0.960 . S
C836 C835 1.524 . S
C837 C834 1.403 . S
C837 C838 1.375 1_565 S
C837 C841 1.495 . S
C838 C837 1.375 1_545 S
C838 C839 1.404 . S
C838 C840 1.478 . S
C839 H833 0.930 . S
C839 C835 1.400 . S
C839 C838 1.404 . S
C840 C838 1.478 . S
C840 C842 1.361 1_545 S
C840 C846 1.403 . S
C841 C837 1.495 . S
C841 H847 0.959 . S
C841 H848 0.961 . S
C841 H849 0.960 . S
C842 C840 1.361 1_565 S
C842 C843 1.394 . S
C842 H850 0.930 . S
C843 C842 1.394 . S
C843 C844 1.383 1_565 S
C843 H851 0.929 . S
C844 C843 1.383 1_545 S
C844 C845 1.377 . S
C845 H829 0.930 . S
C845 C844 1.377 . S
C845 C846 1.379 . S
C846 H830 0.931 . S
C846 C840 1.403 . S
C846 C845 1.379 . S
H847 C841 0.959 . S
H848 C841 0.961 . S
H849 C841 0.960 . S
H850 C842 0.930 . S
H851 C843 0.929 . S
H852 C860 0.929 1_554 S
H853 C862 0.930 . S
H854 C864 0.930 . S
H855 C867 0.929 1_554 S
H856 C870 0.930 . S
H857 C872 0.960 . S
H858 C872 0.960 . S
H859 C872 0.960 . S
C860 H852 0.929 1_556 S
C860 C861 1.377 1_556 S
C860 C862 1.384 . S
C861 C860 1.377 1_554 S
C861 C867 1.390 1_554 S
C862 H853 0.930 . S
C862 C860 1.384 . S
C862 C863 1.372 . S
C863 C862 1.372 . S
C863 C864 1.400 . S
C863 C868 1.490 . S
C864 H854 0.930 . S
C864 C863 1.400 . S
C864 C867 1.386 . S
H865 C881 0.930 . S
H866 C882 0.931 . S
C867 H855 0.929 1_556 S
C867 C861 1.390 1_556 S
C867 C864 1.386 . S
C868 C863 1.490 . S
C868 C870 1.395 . S
C868 C871 1.403 . S
H869 C875 0.930 . S
C870 H856 0.930 . S
C870 C868 1.395 . S
C870 C873 1.403 . S
C871 C868 1.403 . S
C871 C872 1.524 . S
C871 C875 1.400 . S
C872 H857 0.960 . S
C872 H858 0.960 . S
C872 H859 0.960 . S
C872 C871 1.524 . S
C873 C870 1.403 . S
C873 C874 1.392 . S
C873 C877 1.495 . S
C874 C873 1.392 . S
C874 C875 1.385 . S
C874 C876 1.478 . S
C875 H869 0.930 . S
C875 C871 1.400 . S
C875 C874 1.385 . S
C876 C874 1.478 . S
C876 C878 1.381 . S
C876 C882 1.383 . S
C877 C873 1.495 . S
C877 H883 0.959 . S
C877 H884 0.961 . S
C877 H885 0.960 . S
C878 C876 1.381 . S
C878 C879 1.394 . S
C878 H886 0.930 . S
C879 C878 1.394 . S
C879 C880 1.383 . S
C879 H887 0.929 . S
C880 C879 1.383 . S
C880 C881 1.377 . S
C881 H865 0.930 . S
C881 C880 1.377 . S
C881 C882 1.379 . S
C882 H866 0.931 . S
C882 C876 1.383 . S
C882 C881 1.379 . S
H883 C877 0.959 . S
H884 C877 0.961 . S
H885 C877 0.960 . S
H886 C878 0.930 . S
H887 C879 0.929 . S
H888 C896 0.929 . S
H889 C898 0.930 . S
H890 C900 0.930 . S
H891 C903 0.929 . S
H892 C906 0.930 . S
H893 C908 0.960 . S
H894 C908 0.960 . S
H895 C908 0.960 . S
C896 H888 0.929 . S
C896 C897 1.377 . S
C896 C898 1.384 1_554 S
C897 C896 1.377 . S
C897 C903 1.390 . S
C898 H889 0.930 . S
C898 C896 1.384 1_556 S
C898 C899 1.372 . S
C899 C898 1.372 . S
C899 C900 1.400 . S
C899 C904 1.490 . S
C900 H890 0.930 . S
C900 C899 1.400 . S
C900 C903 1.386 1_556 S
H901 C917 0.930 . S
H902 C918 0.931 . S
C903 H891 0.929 . S
C903 C897 1.390 . S
C903 C900 1.386 1_554 S
C904 C899 1.490 . S
C904 C906 1.395 . S
C904 C907 1.403 . S
H905 C911 0.930 . S
C906 H892 0.930 . S
C906 C904 1.395 . S
C906 C909 1.403 . S
C907 C904 1.403 . S
C907 C908 1.524 . S
C907 C911 1.400 . S
C908 H893 0.960 . S
C908 H894 0.960 . S
C908 H895 0.960 . S
C908 C907 1.524 . S
C909 C906 1.403 . S
C909 C910 1.392 . S
C909 C913 1.495 . S
C910 C909 1.392 . S
C910 C911 1.385 . S
C910 C912 1.478 . S
C911 H905 0.930 . S
C911 C907 1.400 . S
C911 C910 1.385 . S
C912 C910 1.478 . S
C912 C914 1.381 . S
C912 C918 1.383 . S
C913 C909 1.495 . S
C913 H919 0.959 . S
C913 H920 0.961 . S
C913 H921 0.960 . S
C914 C912 1.381 . S
C914 C915 1.394 . S
C914 H922 0.930 . S
C915 C914 1.394 . S
C915 C916 1.383 . S
C915 H923 0.929 . S
C916 C915 1.383 . S
C916 C917 1.377 . S
C917 H901 0.930 . S
C917 C916 1.377 . S
C917 C918 1.379 . S
C918 H902 0.931 . S
C918 C912 1.383 . S
C918 C917 1.379 . S
H919 C913 0.959 . S
H920 C913 0.961 . S
H921 C913 0.960 . S
H922 C914 0.930 . S
H923 C915 0.929 . S
H924 C932 0.929 . S
H925 C934 0.930 . S
H926 C936 0.930 . S
H927 C939 0.929 . S
H928 C942 0.930 . S
H929 C944 0.960 . S
H930 C944 0.960 . S
H931 C944 0.960 . S
C932 H924 0.929 . S
C932 C933 1.377 . S
C932 C934 1.384 . S
C933 C932 1.377 . S
C933 C939 1.390 . S
C934 H925 0.930 . S
C934 C932 1.384 . S
C934 C935 1.372 . S
C935 C934 1.372 . S
C935 C936 1.400 . S
C935 C940 1.490 . S
C936 H926 0.930 . S
C936 C935 1.400 . S
C936 C939 1.386 . S
H937 C953 0.930 . S
H938 C954 0.931 . S
C939 H927 0.929 . S
C939 C933 1.390 . S
C939 C936 1.386 . S
C940 C935 1.490 . S
C940 C942 1.395 . S
C940 C943 1.403 . S
H941 C947 0.930 . S
C942 H928 0.930 . S
C942 C940 1.395 . S
C942 C945 1.403 . S
C943 C940 1.403 . S
C943 C944 1.524 . S
C943 C947 1.400 . S
C944 H929 0.960 . S
C944 H930 0.960 . S
C944 H931 0.960 . S
C944 C943 1.524 . S
C945 C942 1.403 . S
C945 C946 1.392 . S
C945 C949 1.495 . S
C946 C945 1.392 . S
C946 C947 1.385 . S
C946 C948 1.478 . S
C947 H941 0.930 . S
C947 C943 1.400 . S
C947 C946 1.385 . S
C948 C946 1.478 . S
C948 C950 1.381 . S
C948 C954 1.383 . S
C949 C945 1.495 . S
C949 H955 0.959 . S
C949 H956 0.961 . S
C949 H957 0.960 . S
C950 C948 1.381 . S
C950 C951 1.394 1_554 S
C950 H958 0.930 . S
C951 C950 1.394 1_556 S
C951 C952 1.383 . S
C951 H959 0.929 . S
C952 C951 1.383 . S
C952 C953 1.377 . S
C953 H937 0.930 . S
C953 C952 1.377 . S
C953 C954 1.379 1_556 S
C954 H938 0.931 . S
C954 C948 1.383 . S
C954 C953 1.379 1_554 S
H955 C949 0.959 . S
H956 C949 0.961 . S
H957 C949 0.960 . S
H958 C950 0.930 . S
H959 C951 0.929 . S
H960 C968 0.929 . S
H961 C970 0.930 . S
H962 C972 0.930 . S
H963 C975 0.929 . S
H964 C978 0.930 . S
H965 C980 0.960 . S
H966 C980 0.960 . S
H967 C980 0.960 . S
C968 H960 0.929 . S
C968 C969 1.377 . S
C968 C970 1.384 . S
C969 C968 1.377 . S
C969 C975 1.390 . S
C970 H961 0.930 . S
C970 C968 1.384 . S
C970 C971 1.372 . S
C971 C970 1.372 . S
C971 C972 1.400 . S
C971 C976 1.490 . S
C972 H962 0.930 . S
C972 C971 1.400 . S
C972 C975 1.386 . S
H973 C989 0.930 . S
H974 C990 0.931 . S
C975 H963 0.929 . S
C975 C969 1.390 . S
C975 C972 1.386 . S
C976 C971 1.490 . S
C976 C978 1.395 . S
C976 C979 1.403 . S
H977 C983 0.930 . S
C978 H964 0.930 . S
C978 C976 1.395 . S
C978 C981 1.403 . S
C979 C976 1.403 . S
C979 C980 1.524 . S
C979 C983 1.400 . S
C980 H965 0.960 . S
C980 H966 0.960 . S
C980 H967 0.960 . S
C980 C979 1.524 . S
C981 C978 1.403 . S
C981 C982 1.392 . S
C981 C985 1.495 . S
C982 C981 1.392 . S
C982 C983 1.385 . S
C982 C984 1.478 . S
C983 H977 0.930 . S
C983 C979 1.400 . S
C983 C982 1.385 . S
C984 C982 1.478 . S
C984 C986 1.381 . S
C984 C990 1.383 . S
C985 C981 1.495 . S
C985 H991 0.959 . S
C985 H992 0.961 . S
C985 H993 0.960 . S
C986 C984 1.381 . S
C986 C987 1.394 . S
C986 H994 0.930 . S
C987 C986 1.394 . S
C987 C988 1.383 . S
C987 H995 0.929 . S
C988 C987 1.383 . S
C988 C989 1.377 . S
C989 H973 0.930 . S
C989 C988 1.377 . S
C989 C990 1.379 . S
C990 H974 0.931 . S
C990 C984 1.383 . S
C990 C989 1.379 . S
H991 C985 0.959 . S
H992 C985 0.961 . S
H993 C985 0.960 . S
H994 C986 0.930 . S
H995 C987 0.929 . S
H996 C1004 0.929 . S
H997 C1006 0.930 . S
H998 C1008 0.930 . S
H999 C1011 0.929 . S
H1000 C1014 0.930 . S
H1001 C1016 0.960 . S
H1002 C1016 0.960 . S
H1003 C1016 0.960 . S
C1004 H996 0.929 . S
C1004 C1005 1.377 . S
C1004 C1006 1.384 . S
C1005 C1004 1.377 . S
C1005 C1011 1.390 1_455 S
C1006 H997 0.930 . S
C1006 C1004 1.384 . S
C1006 C1007 1.372 . S
C1007 C1006 1.372 . S
C1007 C1008 1.400 1_455 S
C1007 C1012 1.490 . S
C1008 H998 0.930 . S
C1008 C1007 1.400 1_655 S
C1008 C1011 1.386 . S
H1009 C1025 0.930 . S
H1010 C1026 0.931 . S
C1011 H999 0.929 . S
C1011 C1005 1.390 1_655 S
C1011 C1008 1.386 . S
C1012 C1007 1.490 . S
C1012 C1014 1.395 . S
C1012 C1015 1.403 1_455 S
H1013 C1019 0.930 . S
C1014 H1000 0.930 . S
C1014 C1012 1.395 . S
C1014 C1017 1.403 1_556 S
C1015 C1012 1.403 1_655 S
C1015 C1016 1.524 . S
C1015 C1019 1.400 1_556 S
C1016 H1001 0.960 . S
C1016 H1002 0.960 . S
C1016 H1003 0.960 . S
C1016 C1015 1.524 . S
C1017 C1014 1.403 1_554 S
C1017 C1018 1.392 . S
C1017 C1021 1.495 . S
C1018 C1017 1.392 . S
C1018 C1019 1.385 1_455 S
C1018 C1020 1.478 . S
C1019 H1013 0.930 . S
C1019 C1015 1.400 1_554 S
C1019 C1018 1.385 1_655 S
C1020 C1018 1.478 . S
C1020 C1022 1.381 . S
C1020 C1026 1.383 1_455 S
C1021 C1017 1.495 . S
C1021 H1027 0.959 . S
C1021 H1028 0.961 . S
C1021 H1029 0.960 . S
C1022 C1020 1.381 . S
C1022 C1023 1.394 . S
C1022 H1030 0.930 . S
C1023 C1022 1.394 . S
C1023 C1024 1.383 . S
C1023 H1031 0.929 . S
C1024 C1023 1.383 . S
C1024 C1025 1.377 1_455 S
C1025 H1009 0.930 . S
C1025 C1024 1.377 1_655 S
C1025 C1026 1.379 . S
C1026 H1010 0.931 . S
C1026 C1020 1.383 1_655 S
C1026 C1025 1.379 . S
H1027 C1021 0.959 . S
H1028 C1021 0.961 . S
H1029 C1021 0.960 . S
H1030 C1022 0.930 . S
H1031 C1023 0.929 . S
C177 C13 1.276 . S
C196 C76 1.292 . S
C213 C15 1.321 . S
C232 C34 1.420 . S
C249 C36 1.464 . S
C268 C57 1.436 . S
C285 C55 1.444 . S
C304 C78 1.305 . S
C321 C17 1.503 . S
C340 C122 1.504 . S
C357 C18 1.296 . S
C376 C101 1.419 . S
C393 C102 1.215 . S
C412 C60 1.273 . S
C429 C123 1.306 . S
C448 C59 1.407 . S
C465 C139 1.287 . S
C484 C118 1.246 . S
C501 C97 1.455 . S
C520 C141 1.286 . S
C537 C162 1.479 . S
C556 C99 1.510 . S
C573 C120 1.332 . S
C592 C160 1.442 . S
C609 C80 1.508 . S
C628 C143 1.532 . S
C645 C144 1.289 . S
C664 C38 1.451 . S
C681 C39 1.225 . S
C700 C165 1.255 . S
C717 C81 1.306 . S
C736 C164 1.407 . S
C753 C16 1.304 1_455 S
C772 C14 1.321 . S
C789 C35 1.309 . S
C808 C37 1.320 . S
C825 C58 1.298 . S
C844 C56 1.273 1_545 S
C861 C79 1.307 . S
C880 C77 1.317 . S
C897 C98 1.298 . S
C916 C100 1.285 . S
C933 C121 1.303 . S
C952 C119 1.284 . S
C969 C140 1.311 . S
C988 C142 1.290 . S
C1005 C161 1.302 1_455 S
C1024 C163 1.278 . S
