# Generated by pormake.
# Topology crb, (4)-cn, num edge types: 1
# Building blocks:
#     Node 0, Type 0, BuildingBlock: NAHDIM_clean_sbu_0, # of connection points: 4
#     Node 1, Type 0, BuildingBlock: NAHDIM_clean_sbu_0, # of connection points: 4
#     Node 2, Type 0, BuildingBlock: NAHDIM_clean_sbu_0, # of connection points: 4
#     Node 3, Type 0, BuildingBlock: NAHDIM_clean_sbu_0, # of connection points: 4
#     Node 4, Type 0, BuildingBlock: NAHDIM_clean_sbu_0, # of connection points: 4
#     Node 5, Type 0, BuildingBlock: NAHDIM_clean_sbu_0, # of connection points: 4
#     Node 6, Type 0, BuildingBlock: NAHDIM_clean_sbu_0, # of connection points: 4
#     Node 7, Type 0, BuildingBlock: NAHDIM_clean_sbu_0, # of connection points: 4
#     Edge 8, Type (0, 0), BuildingBlock: KIFKEQ_clean_linker_1, # of connection points: 2
#     Edge 9, Type (0, 0), BuildingBlock: KIFKEQ_clean_linker_1, # of connection points: 2
#     Edge 10, Type (0, 0), BuildingBlock: KIFKEQ_clean_linker_1, # of connection points: 2
#     Edge 11, Type (0, 0), BuildingBlock: KIFKEQ_clean_linker_1, # of connection points: 2
#     Edge 12, Type (0, 0), BuildingBlock: KIFKEQ_clean_linker_1, # of connection points: 2
#     Edge 13, Type (0, 0), BuildingBlock: KIFKEQ_clean_linker_1, # of connection points: 2
#     Edge 14, Type (0, 0), BuildingBlock: KIFKEQ_clean_linker_1, # of connection points: 2
#     Edge 15, Type (0, 0), BuildingBlock: KIFKEQ_clean_linker_1, # of connection points: 2
#     Edge 16, Type (0, 0), BuildingBlock: KIFKEQ_clean_linker_1, # of connection points: 2
#     Edge 17, Type (0, 0), BuildingBlock: KIFKEQ_clean_linker_1, # of connection points: 2
#     Edge 18, Type (0, 0), BuildingBlock: KIFKEQ_clean_linker_1, # of connection points: 2
#     Edge 19, Type (0, 0), BuildingBlock: KIFKEQ_clean_linker_1, # of connection points: 2
#     Edge 20, Type (0, 0), BuildingBlock: KIFKEQ_clean_linker_1, # of connection points: 2
#     Edge 21, Type (0, 0), BuildingBlock: KIFKEQ_clean_linker_1, # of connection points: 2
#     Edge 22, Type (0, 0), BuildingBlock: KIFKEQ_clean_linker_1, # of connection points: 2
#     Edge 23, Type (0, 0), BuildingBlock: KIFKEQ_clean_linker_1, # of connection points: 2
# Relax obj value: 0.033
# Max RMSD: 0.066
# Mean RMSD: 0.066
data_MOF--net-crb--node1-NAHDIM_clean_sbu_0--edge1-KIFKEQ_clean_linker_1
_symmetry_space_group_name_H-M    P1
_symmetry_Int_Tables_number       1
_symmetry_cell_setting            triclinic
loop_
_symmetry_equiv_pos_as_xyz
'x, y, z'
_cell_length_a     42.630134
_cell_length_b     44.635503
_cell_length_c     25.114147
_cell_angle_alpha  90.02112
_cell_angle_beta   90.022087
_cell_angle_gamma 90.007551
loop_
_atom_site_label
_atom_site_type_symbol
_atom_site_fract_x
_atom_site_fract_y
_atom_site_fract_z
_atom_type_partial_charge
C0 C 0.30644 0.28744 0.14279 0.0
O1 O 0.3231 0.27158 0.10897 0.0
O2 O 0.36705 0.31914 0.06499 0.0
Zn3 Zn 0.32116 0.33039 0.06541 0.0
O4 O 0.29881 0.30946 0.00533 0.0
C5 C 0.33968 0.39253 0.06854 0.0
O6 O 0.36617 0.38061 0.08479 0.0
O7 O 0.30213 0.31512 0.13341 0.0
C8 C 0.29412 0.32111 0.95987 0.0
O9 O 0.30442 0.34834 0.95037 0.0
C10 C 0.38239 0.31477 0.0223 0.0
O11 O 0.36794 0.31716 0.9763 0.0
O12 O 0.31649 0.37545 0.05872 0.0
C13 C 0.6874 0.29568 0.91818 0.0
O14 O 0.65833 0.28744 0.9274 0.0
O15 O 0.6331 0.32036 0.01397 0.0
Zn16 Zn 0.6797 0.32826 0.01683 0.0
O17 O 0.69994 0.30664 0.07776 0.0
C18 C 0.66588 0.3906 0.00682 0.0
O19 O 0.64179 0.37963 0.98064 0.0
O20 O 0.70079 0.3137 0.95011 0.0
C21 C 0.69536 0.31334 0.12627 0.0
O22 O 0.67582 0.33509 0.1382 0.0
C23 C 0.61784 0.30151 0.04164 0.0
O24 O 0.63282 0.28438 0.07571 0.0
O25 O 0.68629 0.37271 0.02555 0.0
C26 C 0.69386 0.71391 0.15373 0.0
O27 O 0.6695 0.72808 0.13392 0.0
O28 O 0.63458 0.68088 0.07111 0.0
Zn29 Zn 0.68129 0.6739 0.0666 0.0
O30 O 0.69963 0.69394 0.00219 0.0
C31 C 0.66941 0.61192 0.08486 0.0
O32 O 0.64722 0.62347 0.11478 0.0
O33 O 0.70301 0.68978 0.13183 0.0
C34 C 0.69255 0.68524 0.95554 0.0
O35 O 0.67241 0.6632 0.94967 0.0
C36 C 0.61894 0.70012 0.0449 0.0
O37 O 0.63362 0.71846 0.01249 0.0
O38 O 0.68814 0.62939 0.06066 0.0
C39 C 0.30998 0.71438 0.92746 0.0
O40 O 0.33682 0.72619 0.94227 0.0
O41 O 0.36689 0.68687 0.01686 0.0
Zn42 Zn 0.32063 0.67749 0.02 0.0
O43 O 0.30235 0.69776 0.08458 0.0
C44 C 0.33424 0.6155 0.00136 0.0
O45 O 0.35566 0.62751 0.97039 0.0
O46 O 0.29855 0.69286 0.95436 0.0
C47 C 0.27772 0.68798 0.10712 0.0
O48 O 0.26367 0.66421 0.0875 0.0
C49 C 0.383 0.68551 0.05937 0.0
O50 O 0.36894 0.67842 0.10418 0.0
O51 O 0.31557 0.63262 0.02649 0.0
C52 C 0.79544 0.77991 0.63494 0.0
O53 O 0.79988 0.76409 0.59147 0.0
O54 O 0.86824 0.82087 0.56791 0.0
Zn55 Zn 0.82136 0.82664 0.56975 0.0
O56 O 0.8002 0.80896 0.50507 0.0
C57 C 0.81417 0.88691 0.53074 0.0
O58 O 0.8191 0.87377 0.4847 0.0
O59 O 0.80325 0.8074 0.63533 0.0
C60 C 0.81402 0.80332 0.46138 0.0
O61 O 0.84401 0.80949 0.45647 0.0
C62 C 0.88244 0.79616 0.56068 0.0
O63 O 0.86607 0.77155 0.55352 0.0
O64 O 0.81342 0.87108 0.57277 0.0
C65 C 0.19983 0.78473 0.44571 0.0
O66 O 0.19511 0.76805 0.48804 0.0
O67 O 0.13214 0.82435 0.52199 0.0
Zn68 Zn 0.17888 0.83104 0.51696 0.0
O69 O 0.20172 0.81218 0.57917 0.0
C70 C 0.18955 0.89155 0.55683 0.0
O71 O 0.19039 0.87816 0.60336 0.0
O72 O 0.19467 0.81274 0.44853 0.0
C73 C 0.18925 0.80848 0.62469 0.0
O74 O 0.1604 0.81777 0.63273 0.0
C75 C 0.11883 0.79977 0.53397 0.0
O76 O 0.13607 0.77613 0.54468 0.0
O77 O 0.18583 0.87586 0.51501 0.0
C78 C 0.18662 0.20152 0.67143 0.0
O79 O 0.15873 0.18971 0.6789 0.0
O80 O 0.13261 0.18789 0.56443 0.0
Zn81 Zn 0.1792 0.1792 0.56324 0.0
O82 O 0.19907 0.19736 0.49783 0.0
C83 C 0.16781 0.11645 0.54279 0.0
O84 O 0.14362 0.12747 0.51699 0.0
O85 O 0.19962 0.19911 0.62612 0.0
C86 C 0.20446 0.18328 0.4548 0.0
O87 O 0.19659 0.15491 0.45107 0.0
C88 C 0.11723 0.19307 0.52202 0.0
O89 O 0.132 0.1931 0.47614 0.0
O90 O 0.18661 0.13434 0.566 0.0
C91 C 0.81392 0.20348 0.41383 0.0
O92 O 0.84472 0.20266 0.41348 0.0
O93 O 0.86632 0.17907 0.51489 0.0
Zn94 Zn 0.81941 0.17319 0.51661 0.0
O95 O 0.79954 0.1927 0.58033 0.0
C96 C 0.82651 0.11194 0.54733 0.0
O97 O 0.84831 0.12384 0.57767 0.0
O98 O 0.79909 0.19187 0.45254 0.0
C99 C 0.80975 0.19244 0.62784 0.0
O100 O 0.836 0.17832 0.63884 0.0
C101 C 0.8811 0.20095 0.53539 0.0
O102 O 0.86543 0.22226 0.55976 0.0
O103 O 0.81044 0.12892 0.51723 0.0
H104 H 0.28758 0.42573 0.04306 0.0
H105 H 0.38705 0.43346 0.07355 0.0
H106 H 0.285 0.47963 0.02569 0.0
H107 H 0.38436 0.48706 0.05642 0.0
H108 H 0.37496 0.57378 0.96229 0.0
H109 H 0.37499 0.51996 0.97823 0.0
H110 H 0.29148 0.5287 0.0742 0.0
H111 H 0.29127 0.58274 0.05809 0.0
C112 C 0.30884 0.4389 0.04624 0.0
C113 C 0.33753 0.42527 0.0596 0.0
C114 C 0.30732 0.46976 0.0365 0.0
C115 C 0.33451 0.48753 0.03939 0.0
C116 C 0.36309 0.4739 0.05316 0.0
C117 C 0.36457 0.44318 0.06331 0.0
C118 C 0.35648 0.56428 0.98658 0.0
C119 C 0.33318 0.5826 0.00909 0.0
C120 C 0.35662 0.53344 0.99595 0.0
C121 C 0.33337 0.52014 0.02777 0.0
C122 C 0.3096 0.5383 0.04927 0.0
C123 C 0.30958 0.56926 0.04022 0.0
H124 H 0.41956 0.30971 0.11065 0.0
H125 H 0.42251 0.30648 0.9387 0.0
H126 H 0.47634 0.30351 0.11382 0.0
H127 H 0.47923 0.29981 0.94202 0.0
H128 H 0.5808 0.33151 0.97096 0.0
H129 H 0.52386 0.33158 0.96563 0.0
H130 H 0.51939 0.26818 0.09533 0.0
H131 H 0.57662 0.26839 0.10127 0.0
C132 C 0.43227 0.30737 0.07354 0.0
C133 C 0.41653 0.30884 0.02439 0.0
C134 C 0.4648 0.30361 0.0754 0.0
C135 C 0.4823 0.30131 0.02817 0.0
C136 C 0.46645 0.30194 0.97908 0.0
C137 C 0.43392 0.30564 0.97721 0.0
C138 C 0.56774 0.31742 -0.00179 0.0
C139 C 0.58327 0.30003 0.03672 0.0
C140 C 0.53507 0.31731 0.99488 0.0
C141 C 0.5171 0.29987 0.03003 0.0
C142 C 0.5326 0.28208 0.06802 0.0
C143 C 0.56538 0.28209 0.07123 0.0
H144 H 0.71576 0.42206 0.04709 0.0
H145 H 0.62074 0.43273 0.99 0.0
H146 H 0.71803 0.4757 0.06721 0.0
H147 H 0.62308 0.48606 0.01034 0.0
H148 H 0.62631 0.57008 0.11464 0.0
H149 H 0.62681 0.51654 0.09568 0.0
H150 H 0.71614 0.52592 0.0165 0.0
H151 H 0.71569 0.57974 0.03522 0.0
C152 C 0.69544 0.43583 0.03869 0.0
C153 C 0.66805 0.42315 0.01706 0.0
C154 C 0.6968 0.4665 0.05003 0.0
C155 C 0.67066 0.48491 0.04064 0.0
C156 C 0.64343 0.47228 0.01856 0.0
C157 C 0.64219 0.44177 0.00662 0.0
C158 C 0.64619 0.56076 0.09349 0.0
C159 C 0.67091 0.57918 0.07624 0.0
C160 C 0.64636 0.53013 0.08239 0.0
C161 C 0.67141 0.51718 0.05433 0.0
C162 C 0.6966 0.53536 0.03838 0.0
C163 C 0.69627 0.56614 0.04894 0.0
H164 H 0.42009 0.69687 0.97266 0.0
H165 H 0.42358 0.68572 0.1435 0.0
H166 H 0.47699 0.7025 0.97059 0.0
H167 H 0.48031 0.69198 0.14151 0.0
H168 H 0.58198 0.66468 0.10733 0.0
H169 H 0.52505 0.66332 0.11129 0.0
H170 H 0.5202 0.73535 0.9967 0.0
H171 H 0.57743 0.73635 0.99187 0.0
C172 C 0.43295 0.69591 0.00983 0.0
C173 C 0.41731 0.69063 0.05821 0.0
C174 C 0.46555 0.69932 0.00867 0.0
C175 C 0.48322 0.69755 0.05586 0.0
C176 C 0.46746 0.69298 0.10434 0.0
C177 C 0.4349 0.68953 0.1055 0.0
C178 C 0.56885 0.68037 0.08313 0.0
C179 C 0.5843 0.70059 0.04918 0.0
C180 C 0.53615 0.6797 0.08567 0.0
C181 C 0.51805 0.69925 0.05436 0.0
C182 C 0.53347 0.71977 0.02088 0.0
C183 C 0.56626 0.72046 0.01836 0.0
H184 H 0.81016 0.92158 0.62034 0.0
H185 H 0.81316 0.927 0.44856 0.0
H186 H 0.81012 0.97615 0.62572 0.0
H187 H 0.81348 0.98153 0.4541 0.0
H188 H 0.78731 0.07939 0.48308 0.0
H189 H 0.78103 0.02502 0.48044 0.0
H190 H 0.84872 0.016 0.60745 0.0
H191 H 0.85477 0.07022 0.61058 0.0
C192 C 0.81061 0.93439 0.58372 0.0
C193 C 0.81185 0.91994 0.53401 0.0
C194 C 0.81075 0.96564 0.58684 0.0
C195 C 0.81197 0.98312 0.54035 0.0
C196 C 0.81225 0.96868 0.49062 0.0
C197 C 0.81225 0.93743 0.48748 0.0
C198 C 0.80071 0.06581 0.51066 0.0
C199 C 0.82162 0.07913 0.54693 0.0
C200 C 0.79721 0.03468 0.50895 0.0
C201 C 0.81439 0.01624 0.5437 0.0
C202 C 0.83486 0.02961 0.5806 0.0
C203 C 0.83847 0.06069 0.58213 0.0
H204 H 0.07667 0.84273 0.50494 0.0
H205 H 0.0826 0.75332 0.57011 0.0
H206 H 0.01982 0.84081 0.51119 0.0
H207 H 0.02554 0.75172 0.57781 0.0
H208 H 0.92065 0.74928 0.53304 0.0
H209 H 0.97777 0.74941 0.5259 0.0
H210 H 0.97965 0.84177 0.57753 0.0
H211 H 0.92276 0.84188 0.58318 0.0
C212 C 0.06585 0.82269 0.52085 0.0
C213 C 0.0842 0.79821 0.53717 0.0
C214 C 0.03321 0.82166 0.52475 0.0
C215 C 0.01807 0.7962 0.54541 0.0
C216 C 0.03641 0.77156 0.56123 0.0
C217 C 0.06913 0.77254 0.55707 0.0
C218 C 0.93329 0.76957 0.54296 0.0
C219 C 0.91713 0.79561 0.55839 0.0
C220 C 0.96605 0.76961 0.53912 0.0
C221 C 0.98332 0.79566 0.55081 0.0
C222 C 0.9671 0.82149 0.56717 0.0
C223 C 0.93443 0.8215 0.57074 0.0
H224 H 0.13465 0.07322 0.49057 0.0
H225 H 0.21304 0.08543 0.59757 0.0
H226 H 0.1426 0.01926 0.49304 0.0
H227 H 0.22119 0.03122 0.59953 0.0
H228 H 0.19741 0.93163 0.6382 0.0
H229 H 0.19421 0.98614 0.63381 0.0
H230 H 0.18027 0.98105 0.4637 0.0
H231 H 0.18308 0.92655 0.46805 0.0
C232 C 0.15368 0.06442 0.51448 0.0
C233 C 0.17317 0.08366 0.54396 0.0
C234 C 0.15837 0.03346 0.51556 0.0
C235 C 0.1826 0.02095 0.54632 0.0
C236 C 0.20217 0.04017 0.57577 0.0
C237 C 0.19757 0.07122 0.57447 0.0
C238 C 0.19391 0.94213 0.59978 0.0
C239 C 0.19028 0.92469 0.55353 0.0
C240 C 0.19224 0.97339 0.59725 0.0
C241 C 0.18678 0.98791 0.54847 0.0
C242 C 0.18403 0.97051 0.50202 0.0
C243 C 0.18583 0.93927 0.50449 0.0
H244 H 0.92125 0.23753 0.59048 0.0
H245 H 0.91931 0.16626 0.47397 0.0
H246 H 0.97862 0.23776 0.58701 0.0
H247 H 0.97641 0.16654 0.47067 0.0
H248 H 0.07671 0.19652 0.43807 0.0
H249 H 0.0197 0.2005 0.44086 0.0
H250 H 0.02263 0.20254 0.61268 0.0
H251 H 0.07979 0.19863 0.61008 0.0
C252 C 0.93303 0.22204 0.56399 0.0
C253 C 0.91575 0.20187 0.53252 0.0
C254 C 0.96585 0.22207 0.56224 0.0
C255 C 0.98195 0.20221 0.5285 0.0
C256 C 0.96463 0.18233 0.49661 0.0
C257 C 0.93192 0.18207 0.49877 0.0
C258 C 0.06526 0.198 0.47648 0.0
C259 C 0.08279 0.19711 0.52387 0.0
C260 C 0.03259 0.20015 0.47803 0.0
C261 C 0.01673 0.20169 0.52698 0.0
C262 C 0.03426 0.2016 0.57437 0.0
C263 C 0.06696 0.1992 0.57285 0.0
H264 H 0.22727 0.24051 0.45187 0.0
H265 H 0.2152 0.16135 0.35484 0.0
H266 H 0.2524 0.26594 0.37742 0.0
H267 H 0.23959 0.18705 0.27999 0.0
H268 H 0.31444 0.22983 0.17611 0.0
H269 H 0.29014 0.20513 0.25189 0.0
H270 H 0.24103 0.28694 0.29086 0.0
H271 H 0.26604 0.31195 0.21562 0.0
C272 C 0.22982 0.22858 0.41456 0.0
C273 C 0.21931 0.19886 0.40933 0.0
C274 C 0.24407 0.24323 0.37177 0.0
C275 C 0.24806 0.22854 0.32273 0.0
C276 C 0.23735 0.19887 0.31746 0.0
C277 C 0.22319 0.18418 0.36029 0.0
C278 C 0.29854 0.24261 0.2009 0.0
C279 C 0.29215 0.27286 0.18978 0.0
C280 C 0.28443 0.22837 0.24418 0.0
C281 C 0.26348 0.24398 0.2773 0.0
C282 C 0.25731 0.27434 0.26649 0.0
C283 C 0.27154 0.28864 0.22323 0.0
H284 H 0.74141 0.27144 0.11385 0.0
H285 H 0.68795 0.31821 0.23421 0.0
H286 H 0.76992 0.24467 0.1831 0.0
H287 H 0.71678 0.29149 0.30356 0.0
H288 H 0.75075 0.2131 0.40752 0.0
H289 H 0.72203 0.23955 0.33806 0.0
H290 H 0.80877 0.25571 0.25404 0.0
H291 H 0.83761 0.229 0.32331 0.0
C292 C 0.73573 0.27603 0.15509 0.0
C293 C 0.71239 0.29697 0.16854 0.0
C294 C 0.75223 0.26081 0.19473 0.0
C295 C 0.74563 0.26603 0.24871 0.0
C296 C 0.72217 0.28682 0.26224 0.0
C297 C 0.70577 0.30222 0.22254 0.0
C298 C 0.76374 0.2222 0.37418 0.0
C299 C 0.79649 0.21891 0.37091 0.0
C300 C 0.74727 0.23753 0.33459 0.0
C301 C 0.76316 0.24976 0.29072 0.0
C302 C 0.79587 0.24628 0.28718 0.0
C303 C 0.81238 0.23107 0.32695 0.0
H304 H 0.83704 0.78378 0.36584 0.0
H305 H 0.751 0.79262 0.45552 0.0
H306 H 0.80774 0.76185 0.29196 0.0
H307 H 0.72185 0.77049 0.38181 0.0
H308 H 0.67785 0.76229 0.21462 0.0
H309 H 0.70696 0.78373 0.28909 0.0
H310 H 0.77782 0.71528 0.27175 0.0
H311 H 0.74888 0.6939 0.197 0.0
C312 C 0.81191 0.78103 0.36984 0.0
C313 C 0.79636 0.78998 0.41653 0.0
C314 C 0.79517 0.7683 0.32764 0.0
C315 C 0.76251 0.76445 0.33113 0.0
C316 C 0.74696 0.77346 0.37776 0.0
C317 C 0.76371 0.786 0.42007 0.0
C318 C 0.6996 0.75176 0.22673 0.0
C319 C 0.71106 0.72641 0.19984 0.0
C320 C 0.71618 0.76397 0.26955 0.0
C321 C 0.74468 0.75121 0.28617 0.0
C322 C 0.7561 0.72579 0.25943 0.0
C323 C 0.73941 0.71345 0.21684 0.0
H324 H 0.21637 0.813 0.35309 0.0
H325 H 0.20801 0.72525 0.42441 0.0
H326 H 0.23432 0.79004 0.27027 0.0
H327 H 0.22622 0.70242 0.34187 0.0
H328 H 0.22788 0.67085 0.16853 0.0
H329 H 0.20839 0.69475 0.24937 0.0
H330 H 0.28049 0.76236 0.2366 0.0
H331 H 0.29982 0.7387 0.15545 0.0
C332 C 0.21839 0.78884 0.35115 0.0
C333 C 0.21078 0.77096 0.39539 0.0
C334 C 0.22881 0.77571 0.30379 0.0
C335 C 0.23166 0.74442 0.29953 0.0
C336 C 0.22391 0.72656 0.34369 0.0
C337 C 0.21367 0.73968 0.39111 0.0
C338 C 0.23954 0.69086 0.18284 0.0
C339 C 0.26545 0.70283 0.15557 0.0
C340 C 0.22846 0.70445 0.22933 0.0
C341 C 0.24295 0.73039 0.24944 0.0
C342 C 0.26862 0.74257 0.22181 0.0
C343 C 0.2798 0.7289 0.17546 0.0
H344 H 0.16829 0.79364 0.72408 0.0
H345 H 0.25051 0.79018 0.62361 0.0
H346 H 0.19771 0.76994 0.79591 0.0
H347 H 0.27979 0.76621 0.69539 0.0
H348 H 0.32968 0.75756 0.85804 0.0
H349 H 0.30057 0.77952 0.78417 0.0
H350 H 0.2222 0.72127 0.81818 0.0
H351 H 0.25118 0.69944 0.89249 0.0
C352 C 0.1926 0.78777 0.71725 0.0
C353 C 0.20706 0.79389 0.66815 0.0
C354 C 0.2094 0.77401 0.75832 0.0
C355 C 0.24107 0.76619 0.75131 0.0
C356 C 0.25552 0.77225 0.70218 0.0
C357 C 0.23868 0.78587 0.661 0.0
C358 C 0.30628 0.74935 0.8497 0.0
C359 C 0.29272 0.7268 0.88128 0.0
C360 C 0.28967 0.76183 0.80717 0.0
C361 C 0.25906 0.75218 0.79541 0.0
C362 C 0.24561 0.72942 0.82665 0.0
C363 C 0.26229 0.7168 0.86902 0.0
H364 H 0.28553 0.33653 0.85546 0.0
H365 H 0.2657 0.2665 0.96944 0.0
H366 H 0.2591 0.30757 0.78627 0.0
H367 H 0.23957 0.23751 0.90012 0.0
H368 H 0.16647 0.21009 0.77384 0.0
H369 H 0.19192 0.23939 0.84373 0.0
H370 H 0.26779 0.26057 0.73623 0.0
H371 H 0.24233 0.23163 0.66626 0.0
C372 C 0.27554 0.31499 0.86578 0.0
C373 C 0.27776 0.30382 0.91794 0.0
C374 C 0.26055 0.29833 0.82607 0.0
C375 C 0.24731 0.27024 0.83775 0.0
C376 C 0.24927 0.25921 0.89002 0.0
C377 C 0.26441 0.27576 0.92964 0.0
C378 C 0.18861 0.22095 0.76514 0.0
C379 C 0.20234 0.21853 0.71446 0.0
C380 C 0.20323 0.23763 0.80525 0.0
C381 C 0.2318 0.25236 0.79541 0.0
C382 C 0.24558 0.24982 0.7448 0.0
C383 C 0.23106 0.23305 0.70483 0.0
H384 H 0.75001 0.30135 0.8968 0.0
H385 H 0.66509 0.25953 0.83898 0.0
H386 H 0.7798 0.27701 0.82605 0.0
H387 H 0.69499 0.23504 0.7686 0.0
H388 H 0.75381 0.22164 0.6181 0.0
H389 H 0.72453 0.24782 0.68705 0.0
H390 H 0.79607 0.22521 0.80204 0.0
H391 H 0.8257 0.19919 0.73283 0.0
C392 C 0.73766 0.28709 0.86886 0.0
C393 C 0.70517 0.28234 0.87354 0.0
C394 C 0.75479 0.27299 0.82861 0.0
C395 C 0.73975 0.25403 0.79197 0.0
C396 C 0.70718 0.24973 0.79602 0.0
C397 C 0.69008 0.26367 0.83647 0.0
C398 C 0.76337 0.22223 0.65806 0.0
C399 C 0.7921 0.20828 0.67 0.0
C400 C 0.74648 0.23713 0.69759 0.0
C401 C 0.75798 0.23854 0.74992 0.0
C402 C 0.78679 0.22476 0.76188 0.0
C403 C 0.80366 0.20972 0.72233 0.0
H404 H 0.68033 0.67439 0.8504 0.0
H405 H 0.73816 0.72826 0.95448 0.0
H406 H 0.70498 0.69758 0.77315 0.0
H407 H 0.76335 0.75083 0.87733 0.0
H408 H 0.77834 0.80732 0.72792 0.0
H409 H 0.7529 0.78475 0.80491 0.0
H410 H 0.75448 0.69853 0.7266 0.0
H411 H 0.77918 0.72125 0.64905 0.0
C412 C 0.69837 0.6911 0.85681 0.0
C413 C 0.70726 0.69948 0.90858 0.0
C414 C 0.71264 0.70426 0.81252 0.0
C415 C 0.7362 0.72602 0.81902 0.0
C416 C 0.745 0.73445 0.87086 0.0
C417 C 0.73066 0.72137 0.91512 0.0
C418 C 0.7733 0.78354 0.72714 0.0
C419 C 0.78076 0.76609 0.68231 0.0
C420 C 0.75884 0.77057 0.77141 0.0
C421 C 0.75161 0.73983 0.77194 0.0
C422 C 0.75927 0.72236 0.72719 0.0
C423 C 0.77363 0.73535 0.68285 0.0
loop_
_geom_bond_atom_site_label_1
_geom_bond_atom_site_label_2
_geom_bond_distance
_geom_bond_site_symmetry_2
_ccdc_geom_bond_type
C0 O1 1.160 . S
C0 O7 1.185 . S
O1 C0 1.160 . S
O2 Zn3 1.899 . S
O2 C10 1.284 . S
Zn3 O2 1.899 . S
Zn3 O4 2.032 . S
Zn3 O7 2.086 . S
Zn3 O12 1.977 . S
O4 Zn3 2.032 . S
O4 C8 1.278 1_554 S
C5 O6 1.203 . S
C5 O12 1.267 . S
O6 C5 1.203 . S
O7 C0 1.185 . S
O7 Zn3 2.086 . S
C8 O4 1.278 1_556 S
C8 O9 1.211 . S
O9 C8 1.211 . S
C10 O2 1.284 . S
C10 O11 1.283 . S
O11 C10 1.283 . S
O12 Zn3 1.977 . S
O12 C5 1.267 . S
C13 O14 1.160 . S
C13 O20 1.185 . S
O14 C13 1.160 . S
O15 Zn16 1.899 1_556 S
O15 C23 1.284 1_556 S
Zn16 O15 1.899 1_554 S
Zn16 O17 2.032 . S
Zn16 O20 2.086 1_554 S
Zn16 O25 1.977 . S
O17 Zn16 2.032 . S
O17 C21 1.278 . S
C18 O19 1.203 . S
C18 O25 1.267 . S
O19 C18 1.203 . S
O20 C13 1.185 . S
O20 Zn16 2.086 1_556 S
C21 O17 1.278 . S
C21 O22 1.211 . S
O22 C21 1.211 . S
C23 O15 1.284 1_554 S
C23 O24 1.273 . S
O24 C23 1.273 . S
O25 Zn16 1.977 . S
O25 C18 1.267 . S
C26 O27 1.160 . S
C26 O33 1.185 . S
O27 C26 1.160 . S
O28 Zn29 1.899 . S
O28 C36 1.284 . S
Zn29 O28 1.899 . S
Zn29 O30 2.032 . S
Zn29 O33 2.086 . S
Zn29 O38 1.977 . S
O30 Zn29 2.032 . S
O30 C34 1.278 1_554 S
C31 O32 1.203 . S
C31 O38 1.267 . S
O32 C31 1.203 . S
O33 C26 1.185 . S
O33 Zn29 2.086 . S
C34 O30 1.278 1_556 S
C34 O35 1.211 . S
O35 C34 1.211 . S
C36 O28 1.284 . S
C36 O37 1.283 . S
O37 C36 1.283 . S
O38 Zn29 1.977 . S
O38 C31 1.267 . S
C39 O40 1.160 . S
C39 O46 1.185 . S
O40 C39 1.160 . S
O41 Zn42 1.899 1_556 S
O41 C49 1.284 1_556 S
Zn42 O41 1.899 1_554 S
Zn42 O43 2.032 . S
Zn42 O46 2.086 1_554 S
Zn42 O51 1.977 . S
O43 Zn42 2.032 . S
O43 C47 1.278 . S
C44 O45 1.203 . S
C44 O51 1.267 . S
O45 C44 1.203 . S
O46 C39 1.185 . S
O46 Zn42 2.086 1_556 S
C47 O43 1.278 . S
C47 O48 1.211 . S
O48 C47 1.211 . S
C49 O41 1.284 1_554 S
C49 O50 1.273 . S
O50 C49 1.273 . S
O51 Zn42 1.977 . S
O51 C44 1.267 . S
C52 O53 1.160 . S
C52 O59 1.185 . S
O53 C52 1.160 . S
O54 Zn55 1.899 . S
O54 C62 1.284 . S
Zn55 O54 1.899 . S
Zn55 O56 2.032 . S
Zn55 O59 2.086 . S
Zn55 O64 1.977 . S
O56 Zn55 2.032 . S
O56 C60 1.278 . S
C57 O58 1.203 . S
C57 O64 1.267 . S
O58 C57 1.203 . S
O59 C52 1.185 . S
O59 Zn55 2.086 . S
C60 O56 1.278 . S
C60 O61 1.211 . S
O61 C60 1.211 . S
C62 O54 1.284 . S
C62 O63 1.273 . S
O63 C62 1.273 . S
O64 Zn55 1.977 . S
O64 C57 1.267 . S
C65 O66 1.160 . S
C65 O72 1.185 . S
O66 C65 1.160 . S
O67 Zn68 1.899 . S
O67 C75 1.284 . S
Zn68 O67 1.899 . S
Zn68 O69 2.032 . S
Zn68 O72 2.086 . S
Zn68 O77 1.977 . S
O69 Zn68 2.032 . S
O69 C73 1.278 . S
C70 O71 1.203 . S
C70 O77 1.267 . S
O71 C70 1.203 . S
O72 C65 1.185 . S
O72 Zn68 2.086 . S
C73 O69 1.278 . S
C73 O74 1.211 . S
O74 C73 1.211 . S
C75 O67 1.284 . S
C75 O76 1.273 . S
O76 C75 1.273 . S
O77 Zn68 1.977 . S
O77 C70 1.267 . S
C78 O79 1.160 . S
C78 O85 1.185 . S
O79 C78 1.160 . S
O80 Zn81 1.899 . S
O80 C88 1.284 . S
Zn81 O80 1.899 . S
Zn81 O82 2.032 . S
Zn81 O85 2.086 . S
Zn81 O90 1.977 . S
O82 Zn81 2.032 . S
O82 C86 1.278 . S
C83 O84 1.203 . S
C83 O90 1.267 . S
O84 C83 1.203 . S
O85 C78 1.185 . S
O85 Zn81 2.086 . S
C86 O82 1.278 . S
C86 O87 1.211 . S
O87 C86 1.211 . S
C88 O80 1.284 . S
C88 O89 1.273 . S
O89 C88 1.273 . S
O90 Zn81 1.977 . S
O90 C83 1.267 . S
C91 O92 1.160 . S
C91 O98 1.185 . S
O92 C91 1.160 . S
O93 Zn94 1.899 . S
O93 C101 1.284 . S
Zn94 O93 1.899 . S
Zn94 O95 2.032 . S
Zn94 O98 2.086 . S
Zn94 O103 1.977 . S
O95 Zn94 2.032 . S
O95 C99 1.278 . S
C96 O97 1.203 . S
C96 O103 1.267 . S
O97 C96 1.203 . S
O98 C91 1.185 . S
O98 Zn94 2.086 . S
C99 O95 1.278 . S
C99 O100 1.211 . S
O100 C99 1.211 . S
C101 O93 1.284 . S
C101 O102 1.273 . S
O102 C101 1.273 . S
O103 Zn94 1.977 . S
O103 C96 1.267 . S
H104 C112 0.950 . S
H105 C117 0.950 . S
H106 C114 0.950 . S
H107 C116 0.950 . S
H108 C118 0.950 . S
H109 C120 0.950 . S
H110 C122 0.950 . S
H111 C123 0.950 . S
C112 H104 0.950 . S
C112 C113 1.386 . S
C112 C114 1.391 . S
C113 C112 1.386 . S
C113 C117 1.393 . S
C114 H106 0.950 . S
C114 C112 1.391 . S
C114 C115 1.400 . S
C115 C114 1.400 . S
C115 C116 1.398 . S
C115 C121 1.491 . S
C116 H107 0.950 . S
C116 C115 1.398 . S
C116 C117 1.391 . S
C117 H105 0.950 . S
C117 C113 1.393 . S
C117 C116 1.391 . S
C118 H108 0.950 . S
C118 C119 1.386 . S
C118 C120 1.391 . S
C119 C118 1.386 . S
C119 C123 1.393 . S
C120 H109 0.950 . S
C120 C118 1.391 . S
C120 C121 1.400 . S
C121 C115 1.491 . S
C121 C120 1.400 . S
C121 C122 1.398 . S
C122 H110 0.950 . S
C122 C121 1.398 . S
C122 C123 1.391 . S
C123 H111 0.950 . S
C123 C119 1.393 . S
C123 C122 1.391 . S
H124 C132 0.950 . S
H125 C137 0.950 1_556 S
H126 C134 0.950 . S
H127 C136 0.950 1_556 S
H128 C138 0.950 1_556 S
H129 C140 0.950 1_556 S
H130 C142 0.950 . S
H131 C143 0.950 . S
C132 H124 0.950 . S
C132 C133 1.386 . S
C132 C134 1.391 . S
C133 C132 1.386 . S
C133 C137 1.393 . S
C134 H126 0.950 . S
C134 C132 1.391 . S
C134 C135 1.400 . S
C135 C134 1.400 . S
C135 C136 1.398 . S
C135 C141 1.491 . S
C136 H127 0.950 1_554 S
C136 C135 1.398 . S
C136 C137 1.391 . S
C137 H125 0.950 1_554 S
C137 C133 1.393 . S
C137 C136 1.391 . S
C138 H128 0.950 1_554 S
C138 C139 1.386 . S
C138 C140 1.391 . S
C139 C138 1.386 . S
C139 C143 1.393 . S
C140 H129 0.950 1_554 S
C140 C138 1.391 . S
C140 C141 1.400 . S
C141 C135 1.491 . S
C141 C140 1.400 . S
C141 C142 1.398 . S
C142 H130 0.950 . S
C142 C141 1.398 . S
C142 C143 1.391 . S
C143 H131 0.950 . S
C143 C139 1.393 . S
C143 C142 1.391 . S
H144 C152 0.950 . S
H145 C157 0.950 . S
H146 C154 0.950 . S
H147 C156 0.950 . S
H148 C158 0.950 . S
H149 C160 0.950 . S
H150 C162 0.950 . S
H151 C163 0.950 . S
C152 H144 0.950 . S
C152 C153 1.386 . S
C152 C154 1.391 . S
C153 C152 1.386 . S
C153 C157 1.393 . S
C154 H146 0.950 . S
C154 C152 1.391 . S
C154 C155 1.400 . S
C155 C154 1.400 . S
C155 C156 1.398 . S
C155 C161 1.491 . S
C156 H147 0.950 . S
C156 C155 1.398 . S
C156 C157 1.391 . S
C157 H145 0.950 . S
C157 C153 1.393 . S
C157 C156 1.391 . S
C158 H148 0.950 . S
C158 C159 1.386 . S
C158 C160 1.391 . S
C159 C158 1.386 . S
C159 C163 1.393 . S
C160 H149 0.950 . S
C160 C158 1.391 . S
C160 C161 1.400 . S
C161 C155 1.491 . S
C161 C160 1.400 . S
C161 C162 1.398 . S
C162 H150 0.950 . S
C162 C161 1.398 . S
C162 C163 1.391 . S
C163 H151 0.950 . S
C163 C159 1.393 . S
C163 C162 1.391 . S
H164 C172 0.951 . S
H165 C177 0.950 . S
H166 C174 0.950 1_556 S
H167 C176 0.950 . S
H168 C178 0.950 . S
H169 C180 0.950 . S
H170 C182 0.950 1_556 S
H171 C183 0.950 1_556 S
C172 H164 0.951 . S
C172 C173 1.384 1_556 S
C172 C174 1.391 1_556 S
C173 C172 1.384 1_554 S
C173 C177 1.393 . S
C174 H166 0.950 1_554 S
C174 C172 1.391 1_554 S
C174 C175 1.400 . S
C175 C174 1.400 . S
C175 C176 1.398 . S
C175 C181 1.491 . S
C176 H167 0.950 . S
C176 C175 1.398 . S
C176 C177 1.391 . S
C177 H165 0.950 . S
C177 C173 1.393 . S
C177 C176 1.391 . S
C178 H168 0.950 . S
C178 C179 1.386 . S
C178 C180 1.391 . S
C179 C178 1.386 . S
C179 C183 1.393 . S
C180 H169 0.950 . S
C180 C178 1.391 . S
C180 C181 1.400 . S
C181 C175 1.491 . S
C181 C180 1.400 . S
C181 C182 1.398 . S
C182 H170 0.950 1_554 S
C182 C181 1.398 . S
C182 C183 1.391 . S
C183 H171 0.950 1_554 S
C183 C179 1.393 . S
C183 C182 1.391 . S
H184 C192 0.950 . S
H185 C197 0.950 . S
H186 C194 0.950 . S
H187 C196 0.950 . S
H188 C198 0.950 . S
H189 C200 0.950 . S
H190 C202 0.950 . S
H191 C203 0.950 . S
C192 H184 0.950 . S
C192 C193 1.386 . S
C192 C194 1.391 . S
C193 C192 1.386 . S
C193 C197 1.393 . S
C194 H186 0.950 . S
C194 C192 1.391 . S
C194 C195 1.400 . S
C195 C194 1.400 . S
C195 C196 1.398 . S
C195 C201 1.491 1_565 S
C196 H187 0.950 . S
C196 C195 1.398 . S
C196 C197 1.391 . S
C197 H185 0.950 . S
C197 C193 1.393 . S
C197 C196 1.391 . S
C198 H188 0.950 . S
C198 C199 1.386 . S
C198 C200 1.391 . S
C199 C198 1.386 . S
C199 C203 1.393 . S
C200 H189 0.950 . S
C200 C198 1.391 . S
C200 C201 1.400 . S
C201 C195 1.491 1_545 S
C201 C200 1.400 . S
C201 C202 1.398 . S
C202 H190 0.950 . S
C202 C201 1.398 . S
C202 C203 1.391 . S
C203 H191 0.950 . S
C203 C199 1.393 . S
C203 C202 1.391 . S
H204 C212 0.950 . S
H205 C217 0.950 . S
H206 C214 0.950 . S
H207 C216 0.950 . S
H208 C218 0.950 . S
H209 C220 0.950 . S
H210 C222 0.950 . S
H211 C223 0.950 . S
C212 H204 0.950 . S
C212 C213 1.386 . S
C212 C214 1.391 . S
C213 C212 1.386 . S
C213 C217 1.393 . S
C214 H206 0.950 . S
C214 C212 1.391 . S
C214 C215 1.400 . S
C215 C214 1.400 . S
C215 C216 1.398 . S
C215 C221 1.491 1_455 S
C216 H207 0.950 . S
C216 C215 1.398 . S
C216 C217 1.391 . S
C217 H205 0.950 . S
C217 C213 1.393 . S
C217 C216 1.391 . S
C218 H208 0.950 . S
C218 C219 1.386 . S
C218 C220 1.391 . S
C219 C218 1.386 . S
C219 C223 1.393 . S
C220 H209 0.950 . S
C220 C218 1.391 . S
C220 C221 1.400 . S
C221 C215 1.491 1_655 S
C221 C220 1.400 . S
C221 C222 1.398 . S
C222 H210 0.950 . S
C222 C221 1.398 . S
C222 C223 1.391 . S
C223 H211 0.950 . S
C223 C219 1.393 . S
C223 C222 1.391 . S
H224 C232 0.950 . S
H225 C237 0.950 . S
H226 C234 0.950 . S
H227 C236 0.950 . S
H228 C238 0.950 . S
H229 C240 0.950 . S
H230 C242 0.950 . S
H231 C243 0.950 . S
C232 H224 0.950 . S
C232 C233 1.386 . S
C232 C234 1.391 . S
C233 C232 1.386 . S
C233 C237 1.393 . S
C234 H226 0.950 . S
C234 C232 1.391 . S
C234 C235 1.400 . S
C235 C234 1.400 . S
C235 C236 1.398 . S
C235 C241 1.491 1_545 S
C236 H227 0.950 . S
C236 C235 1.398 . S
C236 C237 1.391 . S
C237 H225 0.950 . S
C237 C233 1.393 . S
C237 C236 1.391 . S
C238 H228 0.950 . S
C238 C239 1.386 . S
C238 C240 1.391 . S
C239 C238 1.386 . S
C239 C243 1.393 . S
C240 H229 0.950 . S
C240 C238 1.391 . S
C240 C241 1.400 . S
C241 C235 1.491 1_565 S
C241 C240 1.400 . S
C241 C242 1.398 . S
C242 H230 0.950 . S
C242 C241 1.398 . S
C242 C243 1.391 . S
C243 H231 0.950 . S
C243 C239 1.393 . S
C243 C242 1.391 . S
H244 C252 0.950 . S
H245 C257 0.950 . S
H246 C254 0.950 . S
H247 C256 0.950 . S
H248 C258 0.950 . S
H249 C260 0.950 . S
H250 C262 0.950 . S
H251 C263 0.950 . S
C252 H244 0.950 . S
C252 C253 1.386 . S
C252 C254 1.391 . S
C253 C252 1.386 . S
C253 C257 1.393 . S
C254 H246 0.950 . S
C254 C252 1.391 . S
C254 C255 1.400 . S
C255 C254 1.400 . S
C255 C256 1.398 . S
C255 C261 1.491 1_655 S
C256 H247 0.950 . S
C256 C255 1.398 . S
C256 C257 1.391 . S
C257 H245 0.950 . S
C257 C253 1.393 . S
C257 C256 1.391 . S
C258 H248 0.950 . S
C258 C259 1.386 . S
C258 C260 1.391 . S
C259 C258 1.386 . S
C259 C263 1.393 . S
C260 H249 0.950 . S
C260 C258 1.391 . S
C260 C261 1.400 . S
C261 C255 1.491 1_455 S
C261 C260 1.400 . S
C261 C262 1.398 . S
C262 H250 0.950 . S
C262 C261 1.398 . S
C262 C263 1.391 . S
C263 H251 0.950 . S
C263 C259 1.393 . S
C263 C262 1.391 . S
H264 C272 0.950 . S
H265 C277 0.950 . S
H266 C274 0.950 . S
H267 C276 0.950 . S
H268 C278 0.950 . S
H269 C280 0.950 . S
H270 C282 0.950 . S
H271 C283 0.950 . S
C272 H264 0.950 . S
C272 C273 1.386 . S
C272 C274 1.391 . S
C273 C272 1.386 . S
C273 C277 1.393 . S
C274 H266 0.950 . S
C274 C272 1.391 . S
C274 C275 1.400 . S
C275 C274 1.400 . S
C275 C276 1.398 . S
C275 C281 1.491 . S
C276 H267 0.950 . S
C276 C275 1.398 . S
C276 C277 1.391 . S
C277 H265 0.950 . S
C277 C273 1.393 . S
C277 C276 1.391 . S
C278 H268 0.950 . S
C278 C279 1.386 . S
C278 C280 1.391 . S
C279 C278 1.386 . S
C279 C283 1.393 . S
C280 H269 0.950 . S
C280 C278 1.391 . S
C280 C281 1.400 . S
C281 C275 1.491 . S
C281 C280 1.400 . S
C281 C282 1.398 . S
C282 H270 0.950 . S
C282 C281 1.398 . S
C282 C283 1.391 . S
C283 H271 0.950 . S
C283 C279 1.393 . S
C283 C282 1.391 . S
H284 C292 0.950 . S
H285 C297 0.950 . S
H286 C294 0.950 . S
H287 C296 0.950 . S
H288 C298 0.950 . S
H289 C300 0.950 . S
H290 C302 0.950 . S
H291 C303 0.950 . S
C292 H284 0.950 . S
C292 C293 1.386 . S
C292 C294 1.391 . S
C293 C292 1.386 . S
C293 C297 1.393 . S
C294 H286 0.950 . S
C294 C292 1.391 . S
C294 C295 1.400 . S
C295 C294 1.400 . S
C295 C296 1.398 . S
C295 C301 1.491 . S
C296 H287 0.950 . S
C296 C295 1.398 . S
C296 C297 1.391 . S
C297 H285 0.950 . S
C297 C293 1.393 . S
C297 C296 1.391 . S
C298 H288 0.950 . S
C298 C299 1.386 . S
C298 C300 1.391 . S
C299 C298 1.386 . S
C299 C303 1.393 . S
C300 H289 0.950 . S
C300 C298 1.391 . S
C300 C301 1.400 . S
C301 C295 1.491 . S
C301 C300 1.400 . S
C301 C302 1.398 . S
C302 H290 0.950 . S
C302 C301 1.398 . S
C302 C303 1.391 . S
C303 H291 0.950 . S
C303 C299 1.393 . S
C303 C302 1.391 . S
H304 C312 0.950 . S
H305 C317 0.950 . S
H306 C314 0.950 . S
H307 C316 0.950 . S
H308 C318 0.950 . S
H309 C320 0.950 . S
H310 C322 0.950 . S
H311 C323 0.950 . S
C312 H304 0.950 . S
C312 C313 1.386 . S
C312 C314 1.391 . S
C313 C312 1.386 . S
C313 C317 1.393 . S
C314 H306 0.950 . S
C314 C312 1.391 . S
C314 C315 1.400 . S
C315 C314 1.400 . S
C315 C316 1.398 . S
C315 C321 1.491 . S
C316 H307 0.950 . S
C316 C315 1.398 . S
C316 C317 1.391 . S
C317 H305 0.950 . S
C317 C313 1.393 . S
C317 C316 1.391 . S
C318 H308 0.950 . S
C318 C319 1.386 . S
C318 C320 1.391 . S
C319 C318 1.386 . S
C319 C323 1.393 . S
C320 H309 0.950 . S
C320 C318 1.391 . S
C320 C321 1.400 . S
C321 C315 1.491 . S
C321 C320 1.400 . S
C321 C322 1.398 . S
C322 H310 0.950 . S
C322 C321 1.398 . S
C322 C323 1.391 . S
C323 H311 0.950 . S
C323 C319 1.393 . S
C323 C322 1.391 . S
H324 C332 0.950 . S
H325 C337 0.950 . S
H326 C334 0.950 . S
H327 C336 0.950 . S
H328 C338 0.950 . S
H329 C340 0.950 . S
H330 C342 0.950 . S
H331 C343 0.950 . S
C332 H324 0.950 . S
C332 C333 1.386 . S
C332 C334 1.391 . S
C333 C332 1.386 . S
C333 C337 1.393 . S
C334 H326 0.950 . S
C334 C332 1.391 . S
C334 C335 1.400 . S
C335 C334 1.400 . S
C335 C336 1.398 . S
C335 C341 1.491 . S
C336 H327 0.950 . S
C336 C335 1.398 . S
C336 C337 1.391 . S
C337 H325 0.950 . S
C337 C333 1.393 . S
C337 C336 1.391 . S
C338 H328 0.950 . S
C338 C339 1.386 . S
C338 C340 1.391 . S
C339 C338 1.386 . S
C339 C343 1.393 . S
C340 H329 0.950 . S
C340 C338 1.391 . S
C340 C341 1.400 . S
C341 C335 1.491 . S
C341 C340 1.400 . S
C341 C342 1.398 . S
C342 H330 0.950 . S
C342 C341 1.398 . S
C342 C343 1.391 . S
C343 H331 0.950 . S
C343 C339 1.393 . S
C343 C342 1.391 . S
H344 C352 0.950 . S
H345 C357 0.950 . S
H346 C354 0.950 . S
H347 C356 0.950 . S
H348 C358 0.950 . S
H349 C360 0.950 . S
H350 C362 0.950 . S
H351 C363 0.950 . S
C352 H344 0.950 . S
C352 C353 1.386 . S
C352 C354 1.391 . S
C353 C352 1.386 . S
C353 C357 1.393 . S
C354 H346 0.950 . S
C354 C352 1.391 . S
C354 C355 1.400 . S
C355 C354 1.400 . S
C355 C356 1.398 . S
C355 C361 1.491 . S
C356 H347 0.950 . S
C356 C355 1.398 . S
C356 C357 1.391 . S
C357 H345 0.950 . S
C357 C353 1.393 . S
C357 C356 1.391 . S
C358 H348 0.950 . S
C358 C359 1.386 . S
C358 C360 1.391 . S
C359 C358 1.386 . S
C359 C363 1.393 . S
C360 H349 0.950 . S
C360 C358 1.391 . S
C360 C361 1.400 . S
C361 C355 1.491 . S
C361 C360 1.400 . S
C361 C362 1.398 . S
C362 H350 0.950 . S
C362 C361 1.398 . S
C362 C363 1.391 . S
C363 H351 0.950 . S
C363 C359 1.393 . S
C363 C362 1.391 . S
H364 C372 0.950 . S
H365 C377 0.950 . S
H366 C374 0.950 . S
H367 C376 0.950 . S
H368 C378 0.950 . S
H369 C380 0.950 . S
H370 C382 0.950 . S
H371 C383 0.950 . S
C372 H364 0.950 . S
C372 C373 1.386 . S
C372 C374 1.391 . S
C373 C372 1.386 . S
C373 C377 1.393 . S
C374 H366 0.950 . S
C374 C372 1.391 . S
C374 C375 1.400 . S
C375 C374 1.400 . S
C375 C376 1.398 . S
C375 C381 1.491 . S
C376 H367 0.950 . S
C376 C375 1.398 . S
C376 C377 1.391 . S
C377 H365 0.950 . S
C377 C373 1.393 . S
C377 C376 1.391 . S
C378 H368 0.950 . S
C378 C379 1.386 . S
C378 C380 1.391 . S
C379 C378 1.386 . S
C379 C383 1.393 . S
C380 H369 0.950 . S
C380 C378 1.391 . S
C380 C381 1.400 . S
C381 C375 1.491 . S
C381 C380 1.400 . S
C381 C382 1.398 . S
C382 H370 0.950 . S
C382 C381 1.398 . S
C382 C383 1.391 . S
C383 H371 0.950 . S
C383 C379 1.393 . S
C383 C382 1.391 . S
H384 C392 0.950 . S
H385 C397 0.950 . S
H386 C394 0.950 . S
H387 C396 0.950 . S
H388 C398 0.950 . S
H389 C400 0.950 . S
H390 C402 0.950 . S
H391 C403 0.950 . S
C392 H384 0.950 . S
C392 C393 1.386 . S
C392 C394 1.391 . S
C393 C392 1.386 . S
C393 C397 1.393 . S
C394 H386 0.950 . S
C394 C392 1.391 . S
C394 C395 1.400 . S
C395 C394 1.400 . S
C395 C396 1.398 . S
C395 C401 1.491 . S
C396 H387 0.950 . S
C396 C395 1.398 . S
C396 C397 1.391 . S
C397 H385 0.950 . S
C397 C393 1.393 . S
C397 C396 1.391 . S
C398 H388 0.950 . S
C398 C399 1.386 . S
C398 C400 1.391 . S
C399 C398 1.386 . S
C399 C403 1.393 . S
C400 H389 0.950 . S
C400 C398 1.391 . S
C400 C401 1.400 . S
C401 C395 1.491 . S
C401 C400 1.400 . S
C401 C402 1.398 . S
C402 H390 0.950 . S
C402 C401 1.398 . S
C402 C403 1.391 . S
C403 H391 0.950 . S
C403 C399 1.393 . S
C403 C402 1.391 . S
H404 C412 0.950 . S
H405 C417 0.950 . S
H406 C414 0.950 . S
H407 C416 0.950 . S
H408 C418 0.950 . S
H409 C420 0.950 . S
H410 C422 0.950 . S
H411 C423 0.950 . S
C412 H404 0.950 . S
C412 C413 1.386 . S
C412 C414 1.391 . S
C413 C412 1.386 . S
C413 C417 1.393 . S
C414 H406 0.950 . S
C414 C412 1.391 . S
C414 C415 1.400 . S
C415 C414 1.400 . S
C415 C416 1.398 . S
C415 C421 1.491 . S
C416 H407 0.950 . S
C416 C415 1.398 . S
C416 C417 1.391 . S
C417 H405 0.950 . S
C417 C413 1.393 . S
C417 C416 1.391 . S
C418 H408 0.950 . S
C418 C419 1.386 . S
C418 C420 1.391 . S
C419 C418 1.386 . S
C419 C423 1.393 . S
C420 H409 0.950 . S
C420 C418 1.391 . S
C420 C421 1.400 . S
C421 C415 1.491 . S
C421 C420 1.400 . S
C421 C422 1.398 . S
C422 H410 0.950 . S
C422 C421 1.398 . S
C422 C423 1.391 . S
C423 H411 0.950 . S
C423 C419 1.393 . S
C423 C422 1.391 . S
C113 C5 1.433 . S
C119 C44 1.440 . S
C133 C10 1.451 . S
C139 C23 1.451 . S
C153 C18 1.435 . S
C159 C31 1.438 . S
C173 C49 1.452 . S
C179 C36 1.452 . S
C193 C57 1.422 . S
C199 C96 1.444 . S
C213 C75 1.463 . S
C219 C62 1.463 . S
C233 C83 1.444 . S
C239 C70 1.422 . S
C253 C101 1.457 . S
C259 C88 1.457 . S
C273 C86 1.397 . S
C279 C0 1.410 . S
C293 C21 1.391 . S
C299 C91 1.403 . S
C313 C60 1.410 . S
C319 C26 1.402 . S
C333 C65 1.403 . S
C339 C47 1.410 . S
C353 C73 1.410 . S
C359 C39 1.401 . S
C373 C8 1.410 . S
C379 C78 1.402 . S
C393 C13 1.396 . S
C399 C99 1.409 . S
C413 C34 1.407 . S
C419 C52 1.393 . S
