# Generated by pormake.
# Topology zfc, (5)-cn, num edge types: 1
# Building blocks:
#     Node 0, Type 0, BuildingBlock: XOMCOT_clean_sbu_0, # of connection points: 5
#     Node 1, Type 0, BuildingBlock: XOMCOT_clean_sbu_0, # of connection points: 5
#     Node 2, Type 0, BuildingBlock: XOMCOT_clean_sbu_0, # of connection points: 5
#     Node 3, Type 0, BuildingBlock: XOMCOT_clean_sbu_0, # of connection points: 5
#     Node 4, Type 0, BuildingBlock: XOMCOT_clean_sbu_0, # of connection points: 5
#     Node 5, Type 0, BuildingBlock: XOMCOT_clean_sbu_0, # of connection points: 5
#     Node 6, Type 0, BuildingBlock: XOMCOT_clean_sbu_0, # of connection points: 5
#     Node 7, Type 0, BuildingBlock: XOMCOT_clean_sbu_0, # of connection points: 5
#     Node 8, Type 0, BuildingBlock: XOMCOT_clean_sbu_0, # of connection points: 5
#     Node 9, Type 0, BuildingBlock: XOMCOT_clean_sbu_0, # of connection points: 5
#     Node 10, Type 0, BuildingBlock: XOMCOT_clean_sbu_0, # of connection points: 5
#     Node 11, Type 0, BuildingBlock: XOMCOT_clean_sbu_0, # of connection points: 5
#     Node 12, Type 0, BuildingBlock: XOMCOT_clean_sbu_0, # of connection points: 5
#     Node 13, Type 0, BuildingBlock: XOMCOT_clean_sbu_0, # of connection points: 5
#     Node 14, Type 0, BuildingBlock: XOMCOT_clean_sbu_0, # of connection points: 5
#     Node 15, Type 0, BuildingBlock: XOMCOT_clean_sbu_0, # of connection points: 5
#     Edge 16, Type (0, 0), BuildingBlock: XIVTED_clean_linker_0, # of connection points: 2
#     Edge 17, Type (0, 0), BuildingBlock: XIVTED_clean_linker_0, # of connection points: 2
#     Edge 18, Type (0, 0), BuildingBlock: XIVTED_clean_linker_0, # of connection points: 2
#     Edge 19, Type (0, 0), BuildingBlock: XIVTED_clean_linker_0, # of connection points: 2
#     Edge 20, Type (0, 0), BuildingBlock: XIVTED_clean_linker_0, # of connection points: 2
#     Edge 21, Type (0, 0), BuildingBlock: XIVTED_clean_linker_0, # of connection points: 2
#     Edge 22, Type (0, 0), BuildingBlock: XIVTED_clean_linker_0, # of connection points: 2
#     Edge 23, Type (0, 0), BuildingBlock: XIVTED_clean_linker_0, # of connection points: 2
#     Edge 24, Type (0, 0), BuildingBlock: XIVTED_clean_linker_0, # of connection points: 2
#     Edge 25, Type (0, 0), BuildingBlock: XIVTED_clean_linker_0, # of connection points: 2
#     Edge 26, Type (0, 0), BuildingBlock: XIVTED_clean_linker_0, # of connection points: 2
#     Edge 27, Type (0, 0), BuildingBlock: XIVTED_clean_linker_0, # of connection points: 2
#     Edge 28, Type (0, 0), BuildingBlock: XIVTED_clean_linker_0, # of connection points: 2
#     Edge 29, Type (0, 0), BuildingBlock: XIVTED_clean_linker_0, # of connection points: 2
#     Edge 30, Type (0, 0), BuildingBlock: XIVTED_clean_linker_0, # of connection points: 2
#     Edge 31, Type (0, 0), BuildingBlock: XIVTED_clean_linker_0, # of connection points: 2
#     Edge 32, Type (0, 0), BuildingBlock: XIVTED_clean_linker_0, # of connection points: 2
#     Edge 33, Type (0, 0), BuildingBlock: XIVTED_clean_linker_0, # of connection points: 2
#     Edge 34, Type (0, 0), BuildingBlock: XIVTED_clean_linker_0, # of connection points: 2
#     Edge 35, Type (0, 0), BuildingBlock: XIVTED_clean_linker_0, # of connection points: 2
#     Edge 36, Type (0, 0), BuildingBlock: XIVTED_clean_linker_0, # of connection points: 2
#     Edge 37, Type (0, 0), BuildingBlock: XIVTED_clean_linker_0, # of connection points: 2
#     Edge 38, Type (0, 0), BuildingBlock: XIVTED_clean_linker_0, # of connection points: 2
#     Edge 39, Type (0, 0), BuildingBlock: XIVTED_clean_linker_0, # of connection points: 2
#     Edge 40, Type (0, 0), BuildingBlock: XIVTED_clean_linker_0, # of connection points: 2
#     Edge 41, Type (0, 0), BuildingBlock: XIVTED_clean_linker_0, # of connection points: 2
#     Edge 42, Type (0, 0), BuildingBlock: XIVTED_clean_linker_0, # of connection points: 2
#     Edge 43, Type (0, 0), BuildingBlock: XIVTED_clean_linker_0, # of connection points: 2
#     Edge 44, Type (0, 0), BuildingBlock: XIVTED_clean_linker_0, # of connection points: 2
#     Edge 45, Type (0, 0), BuildingBlock: XIVTED_clean_linker_0, # of connection points: 2
#     Edge 46, Type (0, 0), BuildingBlock: XIVTED_clean_linker_0, # of connection points: 2
#     Edge 47, Type (0, 0), BuildingBlock: XIVTED_clean_linker_0, # of connection points: 2
#     Edge 48, Type (0, 0), BuildingBlock: XIVTED_clean_linker_0, # of connection points: 2
#     Edge 49, Type (0, 0), BuildingBlock: XIVTED_clean_linker_0, # of connection points: 2
#     Edge 50, Type (0, 0), BuildingBlock: XIVTED_clean_linker_0, # of connection points: 2
#     Edge 51, Type (0, 0), BuildingBlock: XIVTED_clean_linker_0, # of connection points: 2
#     Edge 52, Type (0, 0), BuildingBlock: XIVTED_clean_linker_0, # of connection points: 2
#     Edge 53, Type (0, 0), BuildingBlock: XIVTED_clean_linker_0, # of connection points: 2
#     Edge 54, Type (0, 0), BuildingBlock: XIVTED_clean_linker_0, # of connection points: 2
#     Edge 55, Type (0, 0), BuildingBlock: XIVTED_clean_linker_0, # of connection points: 2
# Relax obj value: 0.131
# Max RMSD: 0.149
# Mean RMSD: 0.149
data_MOF--net-zfc--node1-XOMCOT_clean_sbu_0--edge1-XIVTED_clean_linker_0
_symmetry_space_group_name_H-M    P1
_symmetry_Int_Tables_number       1
_symmetry_cell_setting            triclinic
loop_
_symmetry_equiv_pos_as_xyz
'x, y, z'
_cell_length_a     75.794963
_cell_length_b     75.784095
_cell_length_c     17.722015
_cell_angle_alpha  89.980878
_cell_angle_beta   90.04216
_cell_angle_gamma 89.992368
loop_
_atom_site_label
_atom_site_type_symbol
_atom_site_fract_x
_atom_site_fract_y
_atom_site_fract_z
_atom_type_partial_charge
Co0 Co 0.26265 0.08829 0.08752 0.0
C1 C 0.26515 0.08989 0.92155 0.0
C2 C 0.28992 0.09614 0.97402 0.0
C3 C 0.29205 0.0967 0.89681 0.0
N4 N 0.27304 0.09196 0.98923 0.0
N5 N 0.27648 0.09271 0.8639 0.0
H6 H 0.25139 0.08639 0.91491 0.0
H7 H 0.30005 0.0983 0.01601 0.0
C8 C 0.27508 0.11896 0.17691 0.0
O9 O 0.25853 0.12119 0.19699 0.0
N10 N 0.2526 0.08389 0.18758 0.0
C11 C 0.23716 0.07598 0.20496 0.0
C12 C 0.23596 0.07406 0.282 0.0
C13 C 0.261 0.08552 0.25471 0.0
N14 N 0.25094 0.08021 0.31341 0.0
C15 C 0.22769 0.10263 0.0655 0.0
C16 C 0.23864 0.13593 0.02242 0.0
C17 C 0.22058 0.13268 0.03135 0.0
C18 C 0.21512 0.11567 0.05151 0.0
C19 C 0.25076 0.12254 0.03783 0.0
N20 N 0.24527 0.10643 0.06358 0.0
H21 H 0.22321 0.08944 0.07614 0.0
H22 H 0.26464 0.12526 0.03025 0.0
H23 H 0.22769 0.07091 0.16509 0.0
H24 H 0.2745 0.08992 0.2605 0.0
O25 O 0.2503 0.06805 0.04894 0.0
O26 O 0.27706 0.06753 0.10029 0.0
O27 O 0.27926 0.1064 0.13217 0.0
C28 C 0.26409 0.05895 0.06891 0.0
H29 H 0.30427 0.09932 0.8673 0.0
H30 H 0.22493 0.0684 0.31221 0.0
H31 H 0.2434 0.1488 1.00537 0.0
H32 H 0.20123 0.11242 0.05539 0.0
Co33 Co 0.89873 0.26388 0.06523 0.0
C34 C 0.89706 0.26623 0.89968 0.0
C35 C 0.89074 0.29107 0.95121 0.0
C36 C 0.89046 0.29313 0.87386 0.0
N37 N 0.89483 0.2742 0.96703 0.0
N38 N 0.89451 0.2775 0.84152 0.0
H39 H 0.90062 0.25248 0.8937 0.0
H40 H 0.88857 0.30127 0.99286 0.0
C41 C 0.86901 0.27633 0.16003 0.0
O42 O 0.86717 0.25981 0.18132 0.0
N43 N 0.90322 0.25382 0.16496 0.0
C44 C 0.90786 0.23722 0.18422 0.0
C45 C 0.90981 0.23629 0.26138 0.0
C46 C 0.90336 0.26288 0.23075 0.0
N47 N 0.90678 0.25241 0.29072 0.0
C48 C 0.8855 0.22917 0.03117 0.0
C49 C 0.85087 0.23913 0.00791 0.0
C50 C 0.85518 0.22114 1.00505 0.0
C51 C 0.87291 0.21631 0.01452 0.0
C52 C 0.86395 0.25154 0.0236 0.0
N53 N 0.88075 0.24637 0.0411 0.0
H54 H 0.89914 0.22528 0.0339 0.0
H55 H 0.86047 0.26534 0.02204 0.0
H56 H 0.91008 0.22644 0.14593 0.0
H57 H 0.90091 0.27691 0.23463 0.0
O58 O 0.91902 0.25167 0.02643 0.0
O59 O 0.91946 0.27842 0.07748 0.0
O60 O 0.88074 0.28045 0.11119 0.0
C61 C 0.92806 0.26552 0.04575 0.0
H62 H 0.88805 0.30535 0.84398 0.0
H63 H 0.9129 0.22452 0.29336 0.0
H64 H 0.83749 0.24367 0.99919 0.0
H65 H 0.87713 0.20274 0.00805 0.0
Co66 Co 0.72069 0.89931 0.07299 0.0
C67 C 0.71852 0.89636 0.90495 0.0
C68 C 0.6932 0.89499 0.95788 0.0
C69 C 0.6908 0.89472 0.88092 0.0
N70 N 0.71063 0.89559 0.97321 0.0
N71 N 0.70677 0.89559 0.84768 0.0
H72 H 0.73237 0.89867 0.89654 0.0
H73 H 0.68287 0.89525 0.99994 0.0
C74 C 0.69807 0.86733 0.09048 0.0
O75 O 0.70416 0.86157 0.02561 0.0
N76 N 0.73029 0.90346 0.17211 0.0
C77 C 0.7472 0.90716 0.18901 0.0
C78 C 0.74888 0.90802 0.2663 0.0
C79 C 0.72185 0.90227 0.2388 0.0
N80 N 0.73293 0.9049 0.29751 0.0
C81 C 0.75196 0.88374 0.00921 0.0
C82 C 0.75215 0.85391 0.09881 0.0
C83 C 0.76528 0.85588 0.04388 0.0
C84 C 0.76523 0.87117 0.99947 0.0
C85 C 0.73912 0.86678 0.10641 0.0
N86 N 0.73848 0.881 0.05892 0.0
H87 H 0.75299 0.89598 0.97873 0.0
H88 H 0.72984 0.86544 0.15215 0.0
H89 H 0.75764 0.90879 0.14801 0.0
H90 H 0.70801 0.89905 0.24423 0.0
O91 O 0.73362 0.91932 0.03507 0.0
O92 O 0.70645 0.9203 0.08169 0.0
O93 O 0.70341 0.88201 0.11754 0.0
C94 C 0.71971 0.92862 0.05148 0.0
H95 H 0.67824 0.89423 0.85195 0.0
H96 H 0.76093 0.9107 0.29701 0.0
H97 H 0.75193 0.84254 0.13582 0.0
H98 H 0.77565 0.87369 0.95909 0.0
Co99 Co 0.08841 0.71564 0.06297 0.0
C100 C 0.09042 0.7131 0.89428 0.0
C101 C 0.09148 0.68791 0.94864 0.0
C102 C 0.09153 0.68527 0.87187 0.0
N103 N 0.09122 0.70539 0.96298 0.0
N104 N 0.09086 0.70115 0.8377 0.0
H105 H 0.08842 0.72698 0.88507 0.0
H106 H 0.09124 0.67771 0.99132 0.0
C107 C 0.12027 0.69313 0.0754 0.0
O108 O 0.12535 0.70009 0.01104 0.0
N109 N 0.0851 0.7254 0.16237 0.0
C110 C 0.08164 0.74239 0.17882 0.0
C111 C 0.08113 0.74424 0.25602 0.0
C112 C 0.08652 0.71708 0.22933 0.0
N113 N 0.08424 0.72833 0.2877 0.0
C114 C 0.10452 0.7464 0.99644 0.0
C115 C 0.13416 0.74657 0.08723 0.0
C116 C 0.13238 0.75963 0.03187 0.0
C117 C 0.11721 0.75956 0.98664 0.0
C118 C 0.12118 0.73366 0.0949 0.0
N119 N 0.10704 0.73303 0.04697 0.0
H120 H 0.09232 0.74753 0.96581 0.0
H121 H 0.12236 0.72446 0.14111 0.0
H122 H 0.07988 0.75275 0.13751 0.0
H123 H 0.08961 0.7032 0.23514 0.0
O124 O 0.06859 0.72914 0.02723 0.0
O125 O 0.06705 0.70201 0.07411 0.0
O126 O 0.10567 0.6979 0.10519 0.0
C127 C 0.05896 0.71556 0.04499 0.0
H128 H 0.09182 0.67262 0.84365 0.0
H129 H 0.07863 0.75637 0.28638 0.0
H130 H 0.14543 0.74634 0.12481 0.0
H131 H 0.11484 0.76996 0.94592 0.0
Co132 Co 0.26714 0.89952 0.95346 0.0
C133 C 0.26947 0.89738 0.12144 0.0
C134 C 0.29485 0.89717 0.06858 0.0
C135 C 0.29725 0.8974 0.14555 0.0
N136 N 0.27741 0.89671 0.05329 0.0
N137 N 0.28126 0.89762 0.17862 0.0
H138 H 0.25547 0.89842 0.12978 0.0
H139 H 0.30514 0.89794 0.02647 0.0
C140 C 0.29168 0.86891 0.93701 0.0
O141 O 0.28614 0.86294 1.00245 0.0
N142 N 0.25735 0.90281 0.85421 0.0
C143 C 0.24025 0.90525 0.83655 0.0
C144 C 0.23877 0.90625 0.75921 0.0
C145 C 0.26606 0.90245 0.78805 0.0
N146 N 0.255 0.90443 0.7288 0.0
C147 C 0.23672 0.88247 0.01761 0.0
C148 C 0.23813 0.85248 0.92934 0.0
C149 C 0.22468 0.85404 0.98304 0.0
C150 C 0.22397 0.86938 0.027 0.0
C151 C 0.25064 0.86587 0.92202 0.0
N152 N 0.25044 0.88026 0.96863 0.0
H153 H 0.23503 0.89473 0.04744 0.0
H154 H 0.26008 0.86485 0.87676 0.0
H155 H 0.2296 0.90592 0.877 0.0
H156 H 0.28019 0.90081 0.78357 0.0
O157 O 0.25304 0.91887 0.99008 0.0
O158 O 0.28011 0.92128 0.94337 0.0
O159 O 0.28539 0.88317 0.90963 0.0
C160 C 0.26635 0.92892 0.97275 0.0
H161 H 0.30978 0.89823 0.17471 0.0
H162 H 0.22659 0.9077 0.72791 0.0
H163 H 0.23895 0.84107 0.89271 0.0
H164 H 0.21327 0.87156 0.06642 0.0
Co165 Co 0.08721 0.27287 0.93043 0.0
C166 C 0.08969 0.2756 0.0986 0.0
C167 C 0.08569 0.30062 0.04505 0.0
C168 C 0.08575 0.30314 0.12192 0.0
N169 N 0.08846 0.28338 0.03025 0.0
N170 N 0.08826 0.28737 0.15555 0.0
H171 H 0.09072 0.26161 0.10737 0.0
H172 H 0.08354 0.31065 1.0026 0.0
C173 C 0.11717 0.29847 0.92271 0.0
O174 O 0.12141 0.29435 0.99239 0.0
N175 N 0.08548 0.26278 0.83107 0.0
C176 C 0.08378 0.24557 0.81362 0.0
C177 C 0.08363 0.24393 0.73623 0.0
C178 C 0.08617 0.2714 0.76468 0.0
N179 N 0.08514 0.26018 0.70564 0.0
C180 C 0.1028 0.24204 0.99692 0.0
C181 C 0.13486 0.24423 0.92369 0.0
C182 C 0.13179 0.22996 0.97225 0.0
C183 C 0.11542 0.22893 0.00871 0.0
C184 C 0.1218 0.25695 0.91297 0.0
N185 N 0.10625 0.25627 0.95201 0.0
H186 H 0.08997 0.24033 0.02209 0.0
H187 H 0.12407 0.26684 0.87046 0.0
H188 H 0.08283 0.23498 0.85429 0.0
H189 H 0.08775 0.28554 0.75981 0.0
O190 O 0.06747 0.25878 0.96263 0.0
O191 O 0.0655 0.28566 0.91366 0.0
O192 O 0.10413 0.29105 0.88994 0.0
C193 C 0.05758 0.27195 0.94212 0.0
H194 H 0.08396 0.31561 0.15059 0.0
H195 H 0.08235 0.23173 0.705 0.0
H196 H 0.14716 0.24548 0.89308 0.0
H197 H 0.11208 0.21775 0.04402 0.0
Co198 Co 0.71445 0.08735 0.92188 0.0
C199 C 0.71188 0.08897 0.09079 0.0
C200 C 0.68678 0.09087 0.03611 0.0
C201 C 0.68409 0.09088 0.11283 0.0
N202 N 0.70427 0.09015 0.02201 0.0
N203 N 0.69991 0.08971 0.14716 0.0
H204 H 0.72566 0.08648 0.10028 0.0
H205 H 0.67661 0.09101 0.99328 0.0
C206 C 0.69289 0.11975 0.91146 0.0
O207 O 0.70039 0.12439 0.97535 0.0
N208 N 0.72408 0.084 0.82232 0.0
C209 C 0.74099 0.08023 0.80569 0.0
C210 C 0.74277 0.07968 0.72851 0.0
C211 C 0.71573 0.08555 0.75549 0.0
N212 N 0.7269 0.08307 0.69703 0.0
C213 C 0.74526 0.10317 0.98915 0.0
C214 C 0.74656 0.13214 0.89481 0.0
C215 C 0.75946 0.13037 0.95101 0.0
C216 C 0.75873 0.11554 0.99828 0.0
C217 C 0.73321 0.11957 0.88842 0.0
N218 N 0.7321 0.10573 0.93776 0.0
H219 H 0.74603 0.09113 0.02103 0.0
H220 H 0.72413 0.1207 0.84173 0.0
H221 H 0.75134 0.07828 0.84689 0.0
H222 H 0.70191 0.08887 0.74983 0.0
O223 O 0.72786 0.06747 0.95697 0.0
O224 O 0.70066 0.06603 0.91074 0.0
O225 O 0.69692 0.10502 0.88066 0.0
C226 C 0.71427 0.05788 0.93928 0.0
H227 H 0.67143 0.09154 0.14091 0.0
H228 H 0.75483 0.07695 0.69802 0.0
H229 H 0.74705 0.14281 0.85424 0.0
H230 H 0.7686 0.11329 0.0414 0.0
Co231 Co 0.89931 0.71641 0.93443 0.0
C232 C 0.89775 0.71385 0.10324 0.0
C233 C 0.89636 0.68869 0.04876 0.0
C234 C 0.89646 0.68601 0.12551 0.0
N235 N 0.89674 0.70618 0.03456 0.0
N236 N 0.89738 0.70186 0.15964 0.0
H237 H 0.89929 0.72777 0.11263 0.0
H238 H 0.89649 0.67851 1.00597 0.0
C239 C 0.86693 0.69463 0.9253 0.0
O240 O 0.86232 0.7018 0.9899 0.0
N241 N 0.9024 0.72608 0.83486 0.0
C242 C 0.90586 0.74304 0.81782 0.0
C243 C 0.90693 0.74462 0.74064 0.0
C244 C 0.90148 0.71754 0.76835 0.0
N245 N 0.90417 0.72859 0.70955 0.0
C246 C 0.88443 0.74764 1.00192 0.0
C247 C 0.85421 0.74847 0.91485 0.0
C248 C 0.85669 0.76153 0.9697 0.0
C249 C 0.87215 0.76113 0.01299 0.0
C250 C 0.8668 0.73522 0.90588 0.0
N251 N 0.88123 0.73427 0.95213 0.0
H252 H 0.89687 0.74847 0.03107 0.0
H253 H 0.86509 0.72602 0.86002 0.0
H254 H 0.90732 0.75353 0.8587 0.0
H255 H 0.89905 0.70352 0.76335 0.0
O256 O 0.91964 0.7294 0.96835 0.0
O257 O 0.92027 0.70224 0.92138 0.0
O258 O 0.88142 0.6991 0.89382 0.0
C259 C 0.92884 0.71559 0.94971 0.0
H260 H 0.89657 0.67335 0.15383 0.0
H261 H 0.90922 0.75675 0.70992 0.0
H262 H 0.84268 0.7485 0.8787 0.0
H263 H 0.87506 0.77149 0.05318 0.0
Co264 Co 0.76623 0.58708 0.57552 0.0
C265 C 0.76867 0.58863 0.41002 0.0
C266 C 0.79341 0.59528 0.46174 0.0
C267 C 0.79548 0.59556 0.38439 0.0
N268 N 0.77659 0.59098 0.47743 0.0
N269 N 0.77991 0.5913 0.35192 0.0
H270 H 0.75496 0.58493 0.40395 0.0
H271 H 0.80356 0.59762 0.50349 0.0
C272 C 0.77795 0.61706 0.67032 0.0
O273 O 0.76137 0.61849 0.69119 0.0
N274 N 0.75615 0.58257 0.67511 0.0
C275 C 0.73954 0.57798 0.69433 0.0
C276 C 0.73861 0.57604 0.77152 0.0
C277 C 0.76521 0.58245 0.74095 0.0
N278 N 0.75474 0.57906 0.80091 0.0
C279 C 0.73137 0.59981 0.53969 0.0
C280 C 0.74095 0.63459 0.51741 0.0
C281 C 0.72311 0.62999 0.51387 0.0
C282 C 0.71838 0.61226 0.52255 0.0
C283 C 0.7535 0.62165 0.53313 0.0
N284 N 0.7485 0.60478 0.55039 0.0
H285 H 0.72763 0.58612 0.54267 0.0
H286 H 0.76726 0.62528 0.53163 0.0
H287 H 0.72875 0.57581 0.65603 0.0
H288 H 0.77923 0.58493 0.74486 0.0
O289 O 0.75439 0.56654 0.53697 0.0
O290 O 0.78108 0.56656 0.58874 0.0
O291 O 0.78242 0.60542 0.6216 0.0
C292 C 0.76834 0.55772 0.55703 0.0
H293 H 0.80767 0.59814 0.3546 0.0
H294 H 0.72684 0.573 0.80349 0.0
H295 H 0.74518 0.64804 0.50727 0.0
H296 H 0.70477 0.6081 0.51719 0.0
Co297 Co 0.40072 0.76975 0.59554 0.0
C298 C 0.39878 0.77234 0.42708 0.0
C299 C 0.39545 0.79737 0.48081 0.0
C300 C 0.39551 0.79994 0.40392 0.0
N301 N 0.39693 0.77996 0.49567 0.0
N302 N 0.39758 0.78415 0.37013 0.0
H303 H 0.40236 0.75877 0.41837 0.0
H304 H 0.39497 0.80765 0.52307 0.0
C305 C 0.3693 0.79279 0.61722 0.0
O306 O 0.36289 0.78634 0.55407 0.0
N307 N 0.40505 0.76001 0.69456 0.0
C308 C 0.40858 0.74302 0.71064 0.0
C309 C 0.40955 0.74114 0.7878 0.0
C310 C 0.40407 0.7683 0.76177 0.0
N311 N 0.40664 0.75704 0.81997 0.0
C312 C 0.38263 0.74008 0.52948 0.0
C313 C 0.35492 0.73954 0.63072 0.0
C314 C 0.35516 0.72733 0.57162 0.0
C315 C 0.3693 0.72755 0.52099 0.0
C316 C 0.36835 0.75207 0.63618 0.0
N317 N 0.38156 0.75282 0.58365 0.0
H318 H 0.39414 0.73894 0.49457 0.0
H319 H 0.36829 0.7609 0.68396 0.0
H320 H 0.40996 0.73264 0.66915 0.0
H321 H 0.40099 0.78216 0.76795 0.0
O322 O 0.41982 0.75584 0.55593 0.0
O323 O 0.42238 0.783 0.60189 0.0
O324 O 0.38432 0.78769 0.64165 0.0
C325 C 0.42987 0.76928 0.5713 0.0
H326 H 0.39443 0.81252 0.3754 0.0
H327 H 0.41212 0.72897 0.81774 0.0
H328 H 0.34446 0.73943 0.67231 0.0
H329 H 0.37036 0.71772 0.47684 0.0
Co330 Co 0.22151 0.40085 0.57033 0.0
C331 C 0.21891 0.39929 0.40431 0.0
C332 C 0.19406 0.39358 0.45697 0.0
C333 C 0.19186 0.39307 0.37983 0.0
N334 N 0.21102 0.39741 0.47203 0.0
N335 N 0.20749 0.39671 0.34663 0.0
H336 H 0.23264 0.40287 0.39783 0.0
H337 H 0.18394 0.3915 0.49903 0.0
C338 C 0.20784 0.3694 0.65365 0.0
O339 O 0.22415 0.36515 0.67105 0.0
N340 N 0.23167 0.40494 0.67047 0.0
C341 C 0.24655 0.41393 0.68751 0.0
C342 C 0.24816 0.41525 0.7646 0.0
C343 C 0.22394 0.40198 0.73819 0.0
N344 N 0.23394 0.40766 0.79648 0.0
C345 C 0.25633 0.38607 0.55335 0.0
C346 C 0.24554 0.35333 0.50255 0.0
C347 C 0.26349 0.35624 0.5166 0.0
C348 C 0.26889 0.37299 0.54046 0.0
C349 C 0.23339 0.36677 0.51699 0.0
N350 N 0.23875 0.38258 0.54649 0.0
H351 H 0.26085 0.39905 0.56773 0.0
H352 H 0.21956 0.36429 0.50655 0.0
H353 H 0.25528 0.42011 0.64729 0.0
H354 H 0.21102 0.39624 0.74511 0.0
O355 O 0.23407 0.42097 0.53178 0.0
O356 O 0.20734 0.42175 0.58327 0.0
O357 O 0.20451 0.38316 0.61448 0.0
C358 C 0.22036 0.4302 0.55167 0.0
H359 H 0.17964 0.3902 0.35076 0.0
H360 H 0.25861 0.42198 0.79467 0.0
H361 H 0.24087 0.34065 0.48265 0.0
H362 H 0.28273 0.37601 0.54847 0.0
Co363 Co 0.58729 0.22332 0.56638 0.0
C364 C 0.58915 0.22096 0.40087 0.0
C365 C 0.59494 0.19599 0.45257 0.0
C366 C 0.59534 0.19396 0.37522 0.0
N367 N 0.59109 0.21292 0.46828 0.0
N368 N 0.59166 0.20968 0.34273 0.0
H369 H 0.58546 0.23468 0.39488 0.0
H370 H 0.59702 0.18579 0.49429 0.0
C371 C 0.61753 0.21113 0.65931 0.0
O372 O 0.61935 0.22766 0.68046 0.0
N373 N 0.58287 0.2335 0.666 0.0
C374 C 0.57714 0.24986 0.68355 0.0
C375 C 0.57538 0.25119 0.76061 0.0
C376 C 0.58345 0.22487 0.73289 0.0
N377 N 0.57953 0.23551 0.79181 0.0
C378 C 0.60047 0.25819 0.53352 0.0
C379 C 0.63497 0.24818 0.50753 0.0
C380 C 0.63078 0.26621 0.50689 0.0
C381 C 0.6131 0.27108 0.51759 0.0
C382 C 0.62186 0.23576 0.5226 0.0
N383 N 0.60515 0.24092 0.54155 0.0
H384 H 0.58687 0.26213 0.53723 0.0
H385 H 0.62526 0.22194 0.51981 0.0
H386 H 0.57374 0.26008 0.64399 0.0
H387 H 0.58697 0.21111 0.73841 0.0
O388 O 0.56683 0.23532 0.52769 0.0
O389 O 0.56669 0.20864 0.57955 0.0
O390 O 0.6055 0.20691 0.61192 0.0
C391 C 0.55793 0.22142 0.54769 0.0
H392 H 0.5981 0.18182 0.34544 0.0
H393 H 0.57102 0.26277 0.79105 0.0
H394 H 0.6483 0.2436 0.49787 0.0
H395 H 0.60895 0.28471 0.51281 0.0
Co396 Co 0.77371 0.39832 0.44261 0.0
C397 C 0.77617 0.39655 0.61144 0.0
C398 C 0.80122 0.39378 0.55719 0.0
C399 C 0.80388 0.39375 0.63395 0.0
N400 N 0.78377 0.39504 0.54279 0.0
N401 N 0.78809 0.39547 0.66802 0.0
H402 H 0.76249 0.39959 0.62061 0.0
H403 H 0.81141 0.39336 0.51457 0.0
C404 C 0.79483 0.36565 0.43028 0.0
O405 O 0.78719 0.36083 0.4936 0.0
N406 N 0.7642 0.40215 0.34305 0.0
C407 C 0.74737 0.40634 0.32647 0.0
C408 C 0.74559 0.40704 0.2493 0.0
C409 C 0.77249 0.40049 0.27618 0.0
N410 N 0.76136 0.40332 0.21775 0.0
C411 C 0.74271 0.3825 0.50864 0.0
C412 C 0.74096 0.35416 0.41105 0.0
C413 C 0.72805 0.35579 0.46723 0.0
C414 C 0.72903 0.37029 0.51623 0.0
C415 C 0.75451 0.36654 0.40622 0.0
N416 N 0.75582 0.38009 0.45694 0.0
H417 H 0.74214 0.39434 0.54192 0.0
H418 H 0.7636 0.36554 0.35955 0.0
H419 H 0.73707 0.40845 0.36769 0.0
H420 H 0.78621 0.39682 0.27045 0.0
O421 O 0.76054 0.41825 0.47865 0.0
O422 O 0.78779 0.41949 0.433 0.0
O423 O 0.79103 0.38057 0.40058 0.0
C424 C 0.77427 0.42772 0.46167 0.0
H425 H 0.81649 0.39274 0.66221 0.0
H426 H 0.73358 0.41008 0.21887 0.0
H427 H 0.74031 0.34377 0.36925 0.0
H428 H 0.71919 0.37243 0.55949 0.0
Co429 Co 0.58754 0.76779 0.42038 0.0
C430 C 0.58898 0.77023 0.58863 0.0
C431 C 0.59294 0.79522 0.53523 0.0
C432 C 0.59261 0.79779 0.61208 0.0
N433 N 0.59123 0.77784 0.52031 0.0
N434 N 0.59006 0.78203 0.64552 0.0
H435 H 0.58572 0.75658 0.59718 0.0
H436 H 0.59365 0.80549 0.49295 0.0
C437 C 0.61977 0.78988 0.40171 0.0
O438 O 0.62569 0.78333 0.46557 0.0
N439 N 0.58334 0.75834 0.32112 0.0
C440 C 0.57975 0.74146 0.30323 0.0
C441 C 0.57844 0.74016 0.2259 0.0
C442 C 0.58407 0.76711 0.25511 0.0
N443 N 0.58122 0.7563 0.19574 0.0
C444 C 0.60389 0.73719 0.48687 0.0
C445 C 0.63252 0.736 0.39062 0.0
C446 C 0.63129 0.72362 0.44888 0.0
C447 C 0.61667 0.72416 0.49689 0.0
C448 C 0.61961 0.74903 0.38362 0.0
N449 N 0.60597 0.75012 0.43397 0.0
H450 H 0.59199 0.73634 0.51956 0.0
H451 H 0.62041 0.75797 0.33633 0.0
H452 H 0.57854 0.7308 0.34352 0.0
H453 H 0.58663 0.78111 0.25079 0.0
O454 O 0.56772 0.7546 0.45808 0.0
O455 O 0.56642 0.78185 0.41216 0.0
O456 O 0.60478 0.78512 0.3758 0.0
C457 C 0.55827 0.76842 0.44191 0.0
H458 H 0.59332 0.81037 0.6408 0.0
H459 H 0.57613 0.72815 0.19438 0.0
H460 H 0.64338 0.73564 0.35091 0.0
H461 H 0.61483 0.71422 0.54015 0.0
Co462 Co 0.22125 0.59005 0.4482 0.0
C463 C 0.21837 0.59141 0.61408 0.0
C464 C 0.19355 0.59717 0.56111 0.0
C465 C 0.1913 0.59749 0.63837 0.0
N466 N 0.21054 0.59342 0.54617 0.0
N467 N 0.20691 0.5938 0.67171 0.0
H468 H 0.2322 0.58821 0.62086 0.0
H469 H 0.18343 0.59919 0.5189 0.0
C470 C 0.20897 0.61973 0.35352 0.0
O471 O 0.22564 0.62172 0.33484 0.0
N472 N 0.23169 0.58604 0.34864 0.0
C473 C 0.24846 0.58187 0.33016 0.0
C474 C 0.24963 0.57994 0.25303 0.0
C475 C 0.22281 0.5857 0.28227 0.0
N476 N 0.23352 0.58254 0.22277 0.0
C477 C 0.25556 0.60385 0.48564 0.0
C478 C 0.24477 0.63821 0.50978 0.0
C479 C 0.26275 0.63418 0.51369 0.0
C480 C 0.26808 0.61665 0.504 0.0
C481 C 0.23269 0.62492 0.49275 0.0
N482 N 0.23829 0.60829 0.47465 0.0
H483 H 0.25976 0.59031 0.48199 0.0
H484 H 0.21881 0.62809 0.49375 0.0
H485 H 0.25919 0.5799 0.36897 0.0
H486 H 0.20873 0.58778 0.27766 0.0
O487 O 0.23377 0.56993 0.48666 0.0
O488 O 0.20721 0.56901 0.43374 0.0
O489 O 0.20457 0.6079 0.40159 0.0
C490 C 0.22026 0.56061 0.46543 0.0
H491 H 0.17896 0.59975 0.66752 0.0
H492 H 0.26155 0.57712 0.22172 0.0
H493 H 0.24009 0.65148 0.52052 0.0
H494 H 0.28181 0.61291 0.50946 0.0
Co495 Co 0.39843 0.2167 0.43379 0.0
C496 C 0.39711 0.21445 0.60222 0.0
C497 C 0.39752 0.18911 0.54888 0.0
C498 C 0.39788 0.18663 0.62571 0.0
N499 N 0.39664 0.20655 0.53403 0.0
N500 N 0.39769 0.2026 0.65902 0.0
H501 H 0.39754 0.22848 0.61093 0.0
H502 H 0.39833 0.17888 0.50646 0.0
C503 C 0.36705 0.19352 0.42829 0.0
O504 O 0.36269 0.20053 0.4935 0.0
N505 N 0.40078 0.22636 0.33408 0.0
C506 C 0.40339 0.24342 0.31638 0.0
C507 C 0.40425 0.2449 0.23914 0.0
C508 C 0.40017 0.21763 0.26805 0.0
N509 N 0.40221 0.22867 0.20885 0.0
C510 C 0.38245 0.24761 0.49938 0.0
C511 C 0.35183 0.2466 0.41491 0.0
C512 C 0.3541 0.26031 0.467 0.0
C513 C 0.36979 0.26081 0.50893 0.0
C514 C 0.36491 0.23382 0.40661 0.0
N515 N 0.37957 0.23377 0.45168 0.0
H516 H 0.39494 0.24908 0.52775 0.0
H517 H 0.36338 0.2243 0.36186 0.0
H518 H 0.40444 0.25406 0.35683 0.0
H519 H 0.39844 0.2035 0.2637 0.0
O520 O 0.41819 0.2307 0.46629 0.0
O521 O 0.42006 0.20353 0.42024 0.0
O522 O 0.38115 0.19851 0.39489 0.0
C523 C 0.42802 0.21733 0.44785 0.0
H524 H 0.39895 0.17409 0.65466 0.0
H525 H 0.40591 0.25705 0.20783 0.0
H526 H 0.34014 0.24577 0.37996 0.0
H527 H 0.37261 0.27166 0.54683 0.0
H528 H 0.29338 0.10933 0.74887 0.0
H529 H 0.23683 0.06084 0.42807 0.0
H530 H 0.25158 0.0723 0.7959 0.0
H531 H 0.27451 0.10216 0.38166 0.0
H532 H 0.24302 0.06392 0.56247 0.0
H533 H 0.28767 0.1059 0.61391 0.0
C534 C 0.28304 0.10042 0.7309 0.0
C535 C 0.27296 0.09109 0.78407 0.0
C536 C 0.24996 0.07229 0.52288 0.0
C537 C 0.26627 0.08714 0.62925 0.0
C538 C 0.24639 0.07058 0.44589 0.0
C539 C 0.25512 0.08126 0.39292 0.0
C540 C 0.26239 0.08477 0.54755 0.0
C541 C 0.2676 0.09346 0.41994 0.0
C542 C 0.27973 0.09853 0.65375 0.0
C543 C 0.25955 0.07993 0.75724 0.0
N544 N 0.27082 0.09489 0.49523 0.0
N545 N 0.25665 0.07823 0.68183 0.0
H546 H 0.9144 0.25171 0.7766 0.0
H547 H 0.88783 0.279 0.35461 0.0
H548 H 0.87957 0.29505 0.72363 0.0
H549 H 0.9233 0.23624 0.40826 0.0
H550 H 0.88517 0.28555 0.48904 0.0
H551 H 0.91789 0.24598 0.64202 0.0
C552 C 0.90737 0.25997 0.73686 0.0
C553 C 0.89661 0.27388 0.76193 0.0
C554 C 0.89359 0.27477 0.47142 0.0
C555 C 0.90076 0.26748 0.60692 0.0
C556 C 0.89524 0.27111 0.39444 0.0
C557 C 0.90585 0.25704 0.36973 0.0
C558 C 0.9026 0.26431 0.5244 0.0
C559 C 0.91483 0.24707 0.4245 0.0
C560 C 0.90948 0.25675 0.65978 0.0
C561 C 0.88813 0.2843 0.70721 0.0
N562 N 0.91298 0.25088 0.49907 0.0
N563 N 0.89036 0.28088 0.63246 0.0
H564 H 0.70121 0.9106 0.36484 0.0
H565 H 0.73743 0.88699 0.77725 0.0
H566 H 0.75522 0.89628 0.41186 0.0
H567 H 0.6848 0.90645 0.73495 0.0
H568 H 0.74383 0.88938 0.64287 0.0
H569 H 0.69452 0.90802 0.49934 0.0
C570 C 0.71165 0.90686 0.4033 0.0
C571 C 0.72882 0.90369 0.37682 0.0
C572 C 0.73088 0.89314 0.66297 0.0
C573 C 0.72128 0.90079 0.53108 0.0
C574 C 0.72723 0.89186 0.73993 0.0
C575 C 0.71056 0.8966 0.76794 0.0
C576 C 0.71776 0.89915 0.61322 0.0
C577 C 0.69777 0.90247 0.71619 0.0
C578 C 0.70784 0.90547 0.4802 0.0
C579 C 0.74187 0.8991 0.42962 0.0
N580 N 0.70165 0.9036 0.64144 0.0
N581 N 0.73782 0.89775 0.50406 0.0
H582 H 0.0935 0.75074 0.40038 0.0
H583 H 0.07969 0.679 0.72636 0.0
H584 H 0.0779 0.69694 0.35701 0.0
H585 H 0.10017 0.73138 0.76526 0.0
H586 H 0.07842 0.68535 0.59146 0.0
H587 H 0.09518 0.74403 0.53472 0.0
C588 C 0.09032 0.73753 0.41908 0.0
C589 C 0.08546 0.72441 0.36717 0.0
C590 C 0.0832 0.69545 0.62956 0.0
C591 C 0.08754 0.71656 0.52137 0.0
C592 C 0.08402 0.6918 0.70673 0.0
C593 C 0.09003 0.70468 0.7577 0.0
C594 C 0.0884 0.7121 0.6029 0.0
C595 C 0.09519 0.72112 0.72856 0.0
C596 C 0.0914 0.73367 0.49589 0.0
C597 C 0.08183 0.70742 0.39481 0.0
N598 N 0.09424 0.72435 0.65326 0.0
N599 N 0.08289 0.704 0.47003 0.0
H600 H 0.25263 0.91279 0.24433 0.0
H601 H 0.28355 0.88882 0.66376 0.0
H602 H 0.30139 0.88588 0.29495 0.0
H603 H 0.23659 0.91875 0.61225 0.0
H604 H 0.2904 0.8876 0.52938 0.0
H605 H 0.24642 0.91475 0.37898 0.0
C606 C 0.26199 0.90717 0.28367 0.0
C607 C 0.27753 0.89905 0.25813 0.0
C608 C 0.27862 0.89447 0.54752 0.0
C609 C 0.27058 0.90145 0.41292 0.0
C610 C 0.27474 0.89528 0.62443 0.0
C611 C 0.25944 0.90391 0.64968 0.0
C612 C 0.26711 0.90234 0.49524 0.0
C613 C 0.24839 0.91175 0.59557 0.0
C614 C 0.25849 0.90842 0.36073 0.0
C615 C 0.28934 0.89237 0.3121 0.0
N616 N 0.25243 0.91075 0.52103 0.0
N617 N 0.2856 0.89366 0.38692 0.0
H618 H 0.07501 0.29087 0.63925 0.0
H619 H 0.10314 0.25913 0.22586 0.0
H620 H 0.09696 0.23956 0.59117 0.0
H621 H 0.07398 0.30704 0.26878 0.0
H622 H 0.10261 0.25259 0.36048 0.0
H623 H 0.07634 0.29797 0.5048 0.0
C624 C 0.08019 0.28113 0.60052 0.0
C625 C 0.08585 0.26457 0.62658 0.0
C626 C 0.09632 0.26454 0.34042 0.0
C627 C 0.08732 0.27258 0.4725 0.0
C628 C 0.09654 0.26825 0.26333 0.0
C629 C 0.08849 0.28362 0.23543 0.0
C630 C 0.08806 0.2763 0.39037 0.0
C631 C 0.08049 0.29512 0.28741 0.0
C632 C 0.08085 0.28515 0.52369 0.0
C633 C 0.09224 0.25238 0.57357 0.0
N634 N 0.08046 0.29121 0.36227 0.0
N635 N 0.09283 0.25664 0.49915 0.0
H636 H 0.74939 0.092 0.58433 0.0
H637 H 0.67749 0.07902 0.2583 0.0
H638 H 0.6954 0.07712 0.62796 0.0
H639 H 0.73025 0.09848 0.21966 0.0
H640 H 0.68377 0.07775 0.39336 0.0
H641 H 0.74269 0.09367 0.45004 0.0
C642 C 0.73614 0.08898 0.56567 0.0
C643 C 0.72296 0.08432 0.61762 0.0
C644 C 0.69396 0.08231 0.35526 0.0
C645 C 0.71512 0.08638 0.46348 0.0
C646 C 0.69036 0.08312 0.27804 0.0
C647 C 0.70337 0.08883 0.22716 0.0
C648 C 0.7107 0.08723 0.38197 0.0
C649 C 0.7199 0.09372 0.25633 0.0
C650 C 0.73228 0.09005 0.4889 0.0
C651 C 0.70593 0.0809 0.59008 0.0
N652 N 0.72308 0.09279 0.33165 0.0
N653 N 0.70251 0.08194 0.51485 0.0
H654 H 0.92017 0.74646 0.59565 0.0
H655 H 0.88432 0.68173 0.27332 0.0
H656 H 0.88752 0.70102 0.64127 0.0
H657 H 0.91329 0.72963 0.22895 0.0
H658 H 0.88645 0.6877 0.40862 0.0
H659 H 0.91872 0.73975 0.46142 0.0
C660 C 0.91262 0.73511 0.57758 0.0
C661 C 0.90387 0.72436 0.63017 0.0
C662 C 0.89233 0.69691 0.36924 0.0
C663 C 0.90232 0.71645 0.47592 0.0
C664 C 0.8912 0.69346 0.29199 0.0
C665 C 0.89858 0.70522 0.23956 0.0
C666 C 0.90099 0.7122 0.39437 0.0
C667 C 0.90716 0.72033 0.26705 0.0
C668 C 0.91187 0.73122 0.50076 0.0
C669 C 0.89461 0.7096 0.60311 0.0
N670 N 0.90814 0.72336 0.34247 0.0
N671 N 0.89404 0.70611 0.52788 0.0
H672 H 0.75427 0.57125 0.28677 0.0
H673 H 0.78128 0.5981 0.86489 0.0
H674 H 0.79734 0.60639 0.23409 0.0
H675 H 0.73863 0.56251 0.9184 0.0
H676 H 0.78785 0.60075 0.99936 0.0
H677 H 0.74851 0.56778 0.15217 0.0
C678 C 0.76246 0.57835 0.2471 0.0
C679 C 0.7763 0.5892 0.27228 0.0
C680 C 0.7771 0.5923 0.98169 0.0
C681 C 0.76988 0.58507 0.11721 0.0
C682 C 0.77341 0.59066 0.9047 0.0
C683 C 0.75937 0.58002 0.87994 0.0
C684 C 0.76668 0.58326 0.03465 0.0
C685 C 0.74944 0.57101 0.93468 0.0
C686 C 0.75923 0.57626 0.17 0.0
C687 C 0.78665 0.59777 0.21761 0.0
N688 N 0.75327 0.57285 0.00927 0.0
N689 N 0.78321 0.59555 0.14283 0.0
H690 H 0.40734 0.807 0.25866 0.0
H691 H 0.39853 0.73424 0.93322 0.0
H692 H 0.39114 0.75317 0.29797 0.0
H693 H 0.41192 0.78865 0.88964 0.0
H694 H 0.39656 0.7409 0.06737 0.0
H695 H 0.40952 0.80059 0.12394 0.0
C696 C 0.40416 0.79386 0.23918 0.0
C697 C 0.39907 0.7806 0.29024 0.0
C698 C 0.39994 0.7514 0.02855 0.0
C699 C 0.40173 0.77313 0.13557 0.0
C700 C 0.4012 0.74757 0.95174 0.0
C701 C 0.40549 0.76087 0.89967 0.0
C702 C 0.40301 0.76867 0.05403 0.0
C703 C 0.40843 0.778 0.9274 0.0
C704 C 0.4055 0.79018 0.1621 0.0
C705 C 0.39537 0.76375 0.26125 0.0
N706 N 0.40717 0.78139 1.00262 0.0
N707 N 0.39677 0.76052 0.18605 0.0
H708 H 0.18377 0.40182 0.23283 0.0
H709 H 0.25762 0.40629 0.91116 0.0
H710 H 0.23942 0.39486 0.2761 0.0
H711 H 0.20175 0.4054 0.86436 0.0
H712 H 0.25122 0.40358 0.04566 0.0
H713 H 0.1901 0.40423 0.0985 0.0
C714 C 0.19732 0.40067 0.21443 0.0
C715 C 0.21106 0.3981 0.26665 0.0
C716 C 0.24035 0.40397 1.006 0.0
C717 C 0.21843 0.40115 0.11196 0.0
C718 C 0.244 0.40565 0.92913 0.0
C719 C 0.23022 0.40613 0.87612 0.0
C720 C 0.22277 0.40286 0.03047 0.0
C721 C 0.21282 0.40491 0.90287 0.0
C722 C 0.20093 0.40215 0.13742 0.0
C723 C 0.22838 0.39706 0.23864 0.0
N724 N 0.20959 0.40339 0.97811 0.0
N725 N 0.23156 0.39861 0.16339 0.0
H726 H 0.59468 0.24163 0.27363 0.0
H727 H 0.57749 0.20312 0.85872 0.0
H728 H 0.5849 0.18652 0.22852 0.0
H729 H 0.58449 0.25847 0.90778 0.0
H730 H 0.5806 0.19661 0.99324 0.0
H731 H 0.59127 0.24789 0.13945 0.0
C732 C 0.59173 0.23083 0.23579 0.0
C733 C 0.59004 0.2135 0.26303 0.0
C734 C 0.5814 0.21018 0.97451 0.0
C735 C 0.58629 0.2206 0.10828 0.0
C736 C 0.57969 0.21392 0.89751 0.0
C737 C 0.58067 0.2314 0.87139 0.0
C738 C 0.58419 0.22401 0.026 0.0
C739 C 0.58336 0.24483 0.92494 0.0
C740 C 0.58987 0.23442 0.15887 0.0
C741 C 0.58653 0.20005 0.21046 0.0
N742 N 0.58506 0.24085 0.99939 0.0
N743 N 0.58475 0.20388 0.1358 0.0
H744 H 0.73858 0.39509 0.105 0.0
H745 H 0.81083 0.40555 0.77914 0.0
H746 H 0.79299 0.40837 0.14862 0.0
H747 H 0.75743 0.38789 0.74041 0.0
H748 H 0.80458 0.40718 0.91408 0.0
H749 H 0.74518 0.39321 0.97074 0.0
C750 C 0.75191 0.39773 0.08636 0.0
C751 C 0.76523 0.40199 0.13831 0.0
C752 C 0.79424 0.40295 0.876 0.0
C753 C 0.77296 0.39967 0.98417 0.0
C754 C 0.79782 0.40193 0.79883 0.0
C755 C 0.78463 0.3966 0.74795 0.0
C756 C 0.77735 0.39863 0.90268 0.0
C757 C 0.76794 0.39232 0.77708 0.0
C758 C 0.7557 0.39653 0.00959 0.0
C759 C 0.78235 0.40491 0.11075 0.0
N760 N 0.76479 0.39344 0.85236 0.0
N761 N 0.78571 0.40375 0.03553 0.0
H762 H 0.5988 0.78366 0.13067 0.0
H763 H 0.57135 0.75555 0.71148 0.0
H764 H 0.56525 0.73922 0.07944 0.0
H765 H 0.6039 0.80076 0.76189 0.0
H766 H 0.56872 0.74961 0.84616 0.0
H767 H 0.6003 0.79057 0.99637 0.0
C768 C 0.59161 0.77543 0.0914 0.0
C769 C 0.58188 0.76081 0.11669 0.0
C770 C 0.57643 0.76085 0.82785 0.0
C771 C 0.58374 0.76855 0.96231 0.0
C772 C 0.57804 0.76419 0.75075 0.0
C773 C 0.58798 0.77863 0.72509 0.0
C774 C 0.58483 0.772 0.87998 0.0
C775 C 0.596 0.78958 0.77905 0.0
C776 C 0.59257 0.77933 0.01453 0.0
C777 C 0.5731 0.75047 0.06268 0.0
N778 N 0.59431 0.786 0.85387 0.0
N779 N 0.57426 0.75453 0.98816 0.0
H780 H 0.25043 0.56609 0.10711 0.0
H781 H 0.18856 0.60858 0.78776 0.0
H782 H 0.20653 0.60048 0.15597 0.0
H783 H 0.23322 0.5751 0.7398 0.0
H784 H 0.19439 0.60518 0.92259 0.0
H785 H 0.24384 0.56868 0.97267 0.0
C786 C 0.2394 0.57419 0.08972 0.0
C787 C 0.22906 0.58309 0.14337 0.0
C788 C 0.20292 0.59858 0.88257 0.0
C789 C 0.22135 0.58607 0.98871 0.0
C790 C 0.19955 0.60045 0.80535 0.0
C791 C 0.2104 0.59213 0.75176 0.0
C792 C 0.21725 0.58827 0.90688 0.0
C793 C 0.22461 0.58196 0.77853 0.0
C794 C 0.2356 0.57562 0.01276 0.0
C795 C 0.21475 0.59319 0.11706 0.0
N796 N 0.22759 0.58032 0.85396 0.0
N797 N 0.21137 0.59445 0.04175 0.0
H798 H 0.38662 0.20026 0.1428 0.0
H799 H 0.41222 0.23135 0.72583 0.0
H800 H 0.41725 0.2469 0.09376 0.0
H801 H 0.38584 0.18217 0.77394 0.0
H802 H 0.41362 0.23749 0.86068 0.0
H803 H 0.38597 0.19339 0.00827 0.0
C804 C 0.39333 0.209 0.10397 0.0
C805 C 0.40198 0.22422 0.12984 0.0
C806 C 0.40753 0.22533 0.84184 0.0
C807 C 0.40107 0.21654 0.97554 0.0
C808 C 0.40661 0.22189 0.76473 0.0
C809 C 0.3988 0.20626 0.73854 0.0
C810 C 0.40054 0.21311 0.89331 0.0
C811 C 0.39209 0.1943 0.79176 0.0
C812 C 0.39286 0.20511 0.02704 0.0
C813 C 0.41019 0.23519 0.07651 0.0
N814 N 0.39306 0.198 0.86665 0.0
N815 N 0.40951 0.23114 1.00198 0.0
H816 H 0.27146 0.14135 0.29588 0.0
H817 H 0.37068 0.17659 0.29163 0.0
H818 H 0.3101 0.12168 0.13798 0.0
H819 H 0.33467 0.18328 0.47823 0.0
H820 H 0.34858 0.15809 0.22828 0.0
H821 H 0.29428 0.15893 0.35626 0.0
C822 C 0.28475 0.14079 0.27358 0.0
C823 C 0.28888 0.13004 0.21173 0.0
C824 C 0.34563 0.16356 0.28327 0.0
C825 C 0.31517 0.15016 0.28105 0.0
C826 C 0.3582 0.1741 0.31944 0.0
C827 C 0.3545 0.18152 0.39031 0.0
C828 C 0.32923 0.16062 0.31801 0.0
C829 C 0.33812 0.17789 0.42366 0.0
C830 C 0.29781 0.15077 0.30844 0.0
C831 C 0.30638 0.12978 0.18569 0.0
N832 N 0.32609 0.1678 0.38707 0.0
N833 N 0.31892 0.13976 0.2204 0.0
H834 H 0.804 0.33258 0.47576 0.0
H835 H 0.86603 0.31145 0.12233 0.0
H836 H 0.81244 0.37004 0.29564 0.0
H837 H 0.84756 0.27258 0.28198 0.0
H838 H 0.84847 0.33393 0.18802 0.0
H839 H 0.82228 0.31136 0.40928 0.0
C840 C 0.80975 0.33639 0.42223 0.0
C841 C 0.80662 0.35312 0.39113 0.0
C842 C 0.84826 0.32046 0.20832 0.0
C843 C 0.82762 0.32872 0.31426 0.0
C844 C 0.85827 0.30764 0.17096 0.0
C845 C 0.85821 0.2901 0.19657 0.0
C846 C 0.83831 0.31568 0.27199 0.0
C847 C 0.84794 0.28589 0.25986 0.0
C848 C 0.82017 0.32421 0.38411 0.0
C849 C 0.81449 0.35727 0.3216 0.0
N850 N 0.83848 0.29858 0.29541 0.0
N851 N 0.82464 0.34513 0.28534 0.0
H852 H 0.64753 0.80982 0.45086 0.0
H853 H 0.6772 0.84032 0.04075 0.0
H854 H 0.61754 0.7971 0.25097 0.0
H855 H 0.69158 0.86903 0.24192 0.0
H856 H 0.65762 0.82173 0.11682 0.0
H857 H 0.66634 0.82916 0.37477 0.0
C858 C 0.6449 0.81111 0.39101 0.0
C859 C 0.63095 0.8019 0.35713 0.0
C860 C 0.66502 0.83216 0.14409 0.0
C861 C 0.65246 0.82376 0.26997 0.0
C862 C 0.67623 0.8427 0.10087 0.0
C863 C 0.68597 0.85624 0.13511 0.0
C864 C 0.66383 0.83499 0.22221 0.0
C865 C 0.68421 0.85881 0.21318 0.0
C866 C 0.65558 0.82218 0.34778 0.0
C867 C 0.62809 0.80407 0.27941 0.0
N868 N 0.67344 0.84819 0.25425 0.0
N869 N 0.63885 0.81468 0.23827 0.0
H870 H 0.21375 0.64066 0.23078 0.0
H871 H 0.11481 0.67635 0.21112 0.0
H872 H 0.17354 0.62298 0.38586 0.0
H873 H 0.15331 0.68284 0.03373 0.0
H874 H 0.13596 0.65794 0.28039 0.0
H875 H 0.19172 0.65773 0.16331 0.0
C876 C 0.20027 0.64043 0.25099 0.0
C877 C 0.1955 0.63041 0.31431 0.0
C878 C 0.13968 0.66334 0.22611 0.0
C879 C 0.17006 0.64998 0.23659 0.0
C880 C 0.12764 0.67384 0.18655 0.0
C881 C 0.13232 0.6812 0.11658 0.0
C882 C 0.15651 0.66033 0.19564 0.0
C883 C 0.14911 0.67751 0.08747 0.0
C884 C 0.18765 0.65013 0.21203 0.0
C885 C 0.17777 0.63054 0.33728 0.0
N886 N 0.1606 0.66743 0.12728 0.0
N887 N 0.16565 0.64024 0.29851 0.0
H888 H 0.34142 0.81294 0.57122 0.0
H889 H 0.31379 0.84263 0.98477 0.0
H890 H 0.3726 0.8001 0.76763 0.0
H891 H 0.29749 0.87099 0.78523 0.0
H892 H 0.33348 0.82464 0.90662 0.0
H893 H 0.32305 0.83219 0.64949 0.0
C894 C 0.34441 0.81421 0.63075 0.0
C895 C 0.35855 0.80495 0.66301 0.0
C896 C 0.32565 0.83488 0.88018 0.0
C897 C 0.33753 0.82673 0.75275 0.0
C898 C 0.31438 0.84508 0.92461 0.0
C899 C 0.30403 0.85832 0.89141 0.0
C900 C 0.3263 0.83775 0.80194 0.0
C901 C 0.30533 0.86099 0.81321 0.0
C902 C 0.33398 0.82522 0.67526 0.0
C903 C 0.36189 0.80709 0.7404 0.0
N904 N 0.31616 0.8507 0.77101 0.0
N905 N 0.35136 0.81765 0.78284 0.0
H906 H 0.12672 0.29436 0.77576 0.0
H907 H 0.17834 0.38262 0.71997 0.0
H908 H 0.13478 0.32784 0.96962 0.0
H909 H 0.20451 0.33376 0.66493 0.0
H910 H 0.15503 0.36573 0.78437 0.0
H911 H 0.1484 0.31204 0.70548 0.0
C912 C 0.13288 0.30558 0.80305 0.0
C913 C 0.12909 0.30971 0.87845 0.0
C914 C 0.16583 0.3588 0.75747 0.0
C915 C 0.1533 0.32996 0.79838 0.0
C916 C 0.179 0.36833 0.72061 0.0
C917 C 0.19325 0.35946 0.68746 0.0
C918 C 0.16672 0.34035 0.75863 0.0
C919 C 0.1937 0.34099 0.69023 0.0
C920 C 0.14523 0.31552 0.76319 0.0
C921 C 0.13748 0.32425 0.91163 0.0
N922 N 0.18048 0.33196 0.72472 0.0
N923 N 0.14914 0.33402 0.87104 0.0
H924 H 0.67462 0.11537 0.77831 0.0
H925 H 0.64061 0.21519 0.77574 0.0
H926 H 0.68435 0.15301 0.95645 0.0
H927 H 0.62014 0.17593 0.62234 0.0
H928 H 0.65857 0.19263 0.83579 0.0
H929 H 0.65607 0.13735 0.71443 0.0
C930 C 0.67281 0.12819 0.80411 0.0
C931 C 0.68106 0.13236 0.87282 0.0
C932 C 0.65016 0.1889 0.78903 0.0
C933 C 0.66007 0.1575 0.79996 0.0
C934 C 0.63994 0.20182 0.75439 0.0
C935 C 0.62883 0.19745 0.6939 0.0
C936 C 0.64942 0.17143 0.76291 0.0
C937 C 0.6285 0.17986 0.66897 0.0
C938 C 0.66224 0.14071 0.76765 0.0
C939 C 0.67828 0.14918 0.90364 0.0
N940 N 0.63868 0.16745 0.70356 0.0
N941 N 0.6681 0.16111 0.86687 0.0
H942 H 0.77354 0.63829 0.79254 0.0
H943 H 0.87151 0.67719 0.79061 0.0
H944 H 0.8128 0.62162 0.63112 0.0
H945 H 0.83419 0.68452 0.97198 0.0
H946 H 0.85018 0.65793 0.72695 0.0
H947 H 0.79551 0.65668 0.85399 0.0
C948 C 0.78679 0.63855 0.76972 0.0
C949 C 0.79133 0.62843 0.70639 0.0
C950 C 0.84674 0.66372 0.78082 0.0
C951 C 0.81667 0.64952 0.77701 0.0
C952 C 0.85889 0.67471 0.81717 0.0
C953 C 0.85462 0.6825 0.88673 0.0
C954 C 0.83022 0.66064 0.81411 0.0
C955 C 0.83807 0.67884 0.91847 0.0
C956 C 0.79938 0.64902 0.80516 0.0
C957 C 0.80876 0.62922 0.67985 0.0
N958 N 0.82649 0.66824 0.8818 0.0
N959 N 0.82083 0.63965 0.71521 0.0
H960 H 0.29296 0.03731 0.07629 0.0
H961 H 0.23776 0.94916 0.0076 0.0
H962 H 0.23692 0.03702 0.03281 0.0
H963 H 0.29397 0.95211 0.97084 0.0
H964 H 0.23731 0.98089 0.03227 0.0
H965 H 0.29372 0.00542 0.05302 0.0
C966 C 0.28082 0.03052 0.06207 0.0
C967 C 0.26486 0.03977 0.05629 0.0
C968 C 0.24973 0.97459 0.01862 0.0
C969 C 0.26562 0.00346 0.03019 0.0
C970 C 0.25001 0.9565 1.00475 0.0
C971 C 0.26592 0.94805 0.98695 0.0
C972 C 0.26552 0.98425 0.01566 0.0
C973 C 0.28141 0.95817 0.98398 0.0
C974 C 0.28128 0.01238 0.04852 0.0
C975 C 0.24952 0.03039 0.03752 0.0
N976 N 0.28084 0.97576 0.99857 0.0
N977 N 0.25027 0.01272 0.02545 0.0
H978 H 0.03425 0.29953 0.93799 0.0
H979 H 0.94992 0.23864 1.00598 0.0
H980 H 0.03726 0.24324 0.97278 0.0
H981 H 0.94949 0.29464 0.05029 0.0
H982 H 0.9814 0.24038 0.97808 0.0
H983 H 0.00243 0.29829 0.96304 0.0
C984 C 0.02819 0.28691 0.95039 0.0
C985 C 0.03835 0.27146 0.95342 0.0
C986 C 0.97443 0.25229 0.9941 0.0
C987 C 0.00216 0.26996 0.98181 0.0
C988 C 0.95647 0.25131 0.00989 0.0
C989 C 0.94714 0.26652 0.03067 0.0
C990 C 0.98309 0.26862 0.99819 0.0
C991 C 0.95626 0.28259 0.03487 0.0
C992 C 0.0101 0.28624 0.96508 0.0
C993 C 0.02991 0.25547 0.97014 0.0
N994 N 0.97377 0.28325 0.01837 0.0
N995 N 0.01229 0.25513 0.98347 0.0
H996 H 0.74681 0.95019 0.01046 0.0
H997 H 0.6863 0.03488 0.93881 0.0
H998 H 0.69074 0.95018 0.05293 0.0
H999 H 0.74274 0.0373 0.96956 0.0
H1000 H 0.68731 0.00307 0.9653 0.0
H1001 H 0.74522 0.98158 0.98021 0.0
C1002 C 0.73416 0.95681 0.01347 0.0
C1003 C 0.71889 0.94763 0.03451 0.0
C1004 C 0.69945 0.01062 0.96617 0.0
C1005 C 0.71696 0.98348 0.99939 0.0
C1006 C 0.69889 0.0287 0.95074 0.0
C1007 C 0.71446 0.03868 0.95222 0.0
C1008 C 0.71571 0.00253 0.98209 0.0
C1009 C 0.73041 0.03009 0.96821 0.0
C1010 C 0.73327 0.97473 0.99632 0.0
C1011 C 0.70284 0.95684 0.0374 0.0
N1012 N 0.73064 0.01251 0.98231 0.0
N1013 N 0.70227 0.97429 0.01972 0.0
H1014 H 0.95082 0.68693 0.94459 0.0
H1015 H 0.03814 0.74368 0.01004 0.0
H1016 H 0.95052 0.74319 0.98219 0.0
H1017 H 0.03627 0.68746 0.04817 0.0
H1018 H 0.00645 0.74353 0.98531 0.0
H1019 H 0.98272 0.68662 0.96792 0.0
C1020 C 0.95748 0.69921 0.95744 0.0
C1021 C 0.94807 0.71511 0.96157 0.0
C1022 C 0.01296 0.73123 0.99929 0.0
C1023 C 0.98438 0.71486 0.9879 0.0
C1024 C 0.03104 0.7313 0.01323 0.0
C1025 C 0.03979 0.71556 0.03136 0.0
C1026 C 0.00359 0.71527 1.00258 0.0
C1027 C 0.02997 0.69989 0.03476 0.0
C1028 C 0.97563 0.69901 0.97107 0.0
C1029 C 0.95729 0.73063 0.9787 0.0
N1030 N 0.01236 0.70012 0.02012 0.0
N1031 N 0.97495 0.73013 0.99096 0.0
H1032 H 0.80237 0.45062 0.46054 0.0
H1033 H 0.74172 0.53559 0.51723 0.0
H1034 H 0.74596 0.44845 0.49229 0.0
H1035 H 0.79755 0.53638 0.56525 0.0
H1036 H 0.74359 0.504 0.49291 0.0
H1037 H 0.80145 0.48257 0.48434 0.0
C1038 C 0.78982 0.45687 0.47228 0.0
C1039 C 0.77422 0.44693 0.47454 0.0
C1040 C 0.75544 0.51105 0.50896 0.0
C1041 C 0.77307 0.48322 0.50118 0.0
C1042 C 0.75439 0.52909 0.52267 0.0
C1043 C 0.7695 0.53857 0.54349 0.0
C1044 C 0.77176 0.50242 0.51524 0.0
C1045 C 0.78558 0.52949 0.5497 0.0
C1046 C 0.78932 0.47503 0.48615 0.0
C1047 C 0.75831 0.45561 0.49026 0.0
N1048 N 0.78632 0.51187 0.53526 0.0
N1049 N 0.75814 0.47326 0.50263 0.0
H1050 H 0.44986 0.74091 0.53143 0.0
H1051 H 0.53636 0.79711 0.44244 0.0
H1052 H 0.45283 0.79712 0.56865 0.0
H1053 H 0.53701 0.74083 0.47971 0.0
H1054 H 0.5049 0.79753 0.47422 0.0
H1055 H 0.48114 0.74077 0.49832 0.0
C1056 C 0.45712 0.75323 0.5327 0.0
C1057 C 0.4488 0.76905 0.55298 0.0
C1058 C 0.51196 0.78511 0.47542 0.0
C1059 C 0.4845 0.769 0.51459 0.0
C1060 C 0.52986 0.78485 0.45697 0.0
C1061 C 0.53925 0.76891 0.45854 0.0
C1062 C 0.50342 0.76929 0.49459 0.0
C1063 C 0.53025 0.75341 0.47803 0.0
C1064 C 0.47496 0.75313 0.51396 0.0
C1065 C 0.4588 0.78462 0.5537 0.0
N1066 N 0.5128 0.75397 0.49505 0.0
N1067 N 0.47614 0.78423 0.53438 0.0
H1068 H 0.19161 0.45204 0.55835 0.0
H1069 H 0.24809 0.53951 0.49988 0.0
H1070 H 0.24766 0.4519 0.51547 0.0
H1071 H 0.19203 0.53801 0.45735 0.0
H1072 H 0.24783 0.50771 0.52046 0.0
H1073 H 0.19113 0.48399 0.53572 0.0
C1074 C 0.2038 0.45874 0.54434 0.0
C1075 C 0.21971 0.44937 0.53876 0.0
C1076 C 0.23558 0.51431 0.50641 0.0
C1077 C 0.21925 0.48572 0.51342 0.0
C1078 C 0.2357 0.53247 0.49492 0.0
C1079 C 0.22005 0.54137 0.47683 0.0
C1080 C 0.21965 0.50499 0.50077 0.0
C1081 C 0.20439 0.53159 0.47091 0.0
C1082 C 0.20349 0.47691 0.53112 0.0
C1083 C 0.23511 0.45863 0.52014 0.0
N1084 N 0.20455 0.51388 0.48333 0.0
N1085 N 0.23451 0.47631 0.50856 0.0
H1086 H 0.53667 0.19221 0.55579 0.0
H1087 H 0.44831 0.24617 0.47612 0.0
H1088 H 0.53574 0.24801 0.50715 0.0
H1089 H 0.45137 0.1897 0.44762 0.0
H1090 H 0.47998 0.24694 0.50036 0.0
H1091 H 0.50491 0.19083 0.52935 0.0
C1092 C 0.52977 0.20416 0.53981 0.0
C1093 C 0.5388 0.22025 0.53363 0.0
C1094 C 0.47376 0.23438 0.48851 0.0
C1095 C 0.50265 0.21878 0.50374 0.0
C1096 C 0.45568 0.23392 0.47483 0.0
C1097 C 0.44725 0.21784 0.45975 0.0
C1098 C 0.48347 0.21861 0.48811 0.0
C1099 C 0.45742 0.20238 0.45867 0.0
C1100 C 0.51171 0.20334 0.52439 0.0
C1101 C 0.52928 0.23533 0.51241 0.0
N1102 N 0.47503 0.20312 0.47318 0.0
N1103 N 0.51171 0.23424 0.49857 0.0
H1104 H 0.21879 0.15678 0.91631 0.0
H1105 H 0.1398 0.21136 0.10083 0.0
H1106 H 0.19282 0.14112 0.12228 0.0
H1107 H 0.15434 0.21611 0.866 0.0
H1108 H 0.16124 0.18754 0.11465 0.0
H1109 H 0.19736 0.18076 0.9019 0.0
C1110 C 0.20858 0.15842 0.9585 0.0
C1111 C 0.20752 0.14696 0.02049 0.0
C1112 C 0.15972 0.19382 0.06014 0.0
C1113 C 0.18309 0.17432 1.00463 0.0
C1114 C 0.14742 0.20738 0.05206 0.0
C1115 C 0.14519 0.2158 0.98208 0.0
C1116 C 0.17 0.18871 0.99805 0.0
C1117 C 0.15576 0.21027 0.92137 0.0
C1118 C 0.19633 0.17203 0.95009 0.0
C1119 C 0.19397 0.14957 0.07325 0.0
N1120 N 0.16771 0.1971 0.93081 0.0
N1121 N 0.18234 0.16303 0.06434 0.0
H1122 H 0.82529 0.22335 0.91664 0.0
H1123 H 0.79424 0.12456 0.98875 0.0
H1124 H 0.85334 0.18776 0.06489 0.0
H1125 H 0.75794 0.16622 0.92823 0.0
H1126 H 0.81769 0.14643 1.00027 0.0
H1127 H 0.80207 0.20128 0.90291 0.0
C1128 C 0.82659 0.21097 0.94662 0.0
C1129 C 0.84133 0.20753 0.9925 0.0
C1130 C 0.80457 0.15074 0.98458 0.0
C1131 C 0.81492 0.18206 0.9753 0.0
C1132 C 0.7911 0.13828 0.97849 0.0
C1133 C 0.77396 0.1435 0.95792 0.0
C1134 C 0.80098 0.16852 0.96896 0.0
C1135 C 0.77095 0.16149 0.94323 0.0
C1136 C 0.81334 0.19835 0.93835 0.0
C1137 C 0.84241 0.19098 0.02811 0.0
N1138 N 0.78433 0.17333 0.94881 0.0
N1139 N 0.8294 0.17887 0.01867 0.0
H1140 H 0.83882 0.77986 0.86028 0.0
H1141 H 0.78323 0.83772 0.15383 0.0
H1142 H 0.8447 0.77588 0.10197 0.0
H1143 H 0.77908 0.84315 0.912 0.0
H1144 H 0.80568 0.81497 0.13617 0.0
H1145 H 0.81682 0.803 0.87827 0.0
C1146 C 0.83541 0.78379 0.91719 0.0
C1147 C 0.84355 0.77585 0.97976 0.0
C1148 C 0.79988 0.82115 0.08695 0.0
C1149 C 0.81847 0.80249 1.00076 0.0
C1150 C 0.78698 0.83407 0.09698 0.0
C1151 C 0.7792 0.8423 0.03425 0.0
C1152 C 0.80503 0.81638 0.01364 0.0
C1153 C 0.78483 0.83726 0.96196 0.0
C1154 C 0.82292 0.79709 0.92741 0.0
C1155 C 0.83886 0.78173 0.05213 0.0
N1156 N 0.79735 0.82459 0.95364 0.0
N1157 N 0.82659 0.79465 0.06065 0.0
H1158 H 0.14561 0.77369 0.90121 0.0
H1159 H 0.21034 0.84096 0.11331 0.0
H1160 H 0.14984 0.7776 0.14353 0.0
H1161 H 0.20791 0.83548 0.8711 0.0
H1162 H 0.18772 0.81817 0.1254 0.0
H1163 H 0.16794 0.79679 0.8888 0.0
C1164 C 0.15119 0.77946 0.9518 0.0
C1165 C 0.14589 0.77366 0.0235 0.0
C1166 C 0.19214 0.82193 0.06959 0.0
C1167 C 0.17154 0.80001 0.00978 0.0
C1168 C 0.205 0.835 0.06265 0.0
C1169 C 0.21105 0.84011 0.9911 0.0
C1170 C 0.18522 0.81394 1.00448 0.0
C1171 C 0.20381 0.83179 0.92743 0.0
C1172 C 0.164 0.79257 0.9447 0.0
C1173 C 0.15371 0.78146 0.08712 0.0
N1174 N 0.19126 0.81914 0.93562 0.0
N1175 N 0.16612 0.79424 0.07875 0.0
H1176 H 0.64917 0.71514 0.57707 0.0
H1177 H 0.69665 0.63042 0.40867 0.0
H1178 H 0.64411 0.70089 0.34251 0.0
H1179 H 0.7188 0.6605 0.59224 0.0
H1180 H 0.67412 0.65341 0.39149 0.0
H1181 H 0.67173 0.69221 0.59232 0.0
C1182 C 0.65282 0.70712 0.52894 0.0
C1183 C 0.6449 0.70986 0.45844 0.0
C1184 C 0.68396 0.65496 0.43531 0.0
C1185 C 0.6704 0.68364 0.4755 0.0
C1186 C 0.69671 0.64186 0.44531 0.0
C1187 C 0.70955 0.64368 0.50176 0.0
C1188 C 0.68389 0.66971 0.4832 0.0
C1189 C 0.70918 0.65874 0.5477 0.0
C1190 C 0.6657 0.69415 0.53752 0.0
C1191 C 0.65007 0.69922 0.3976 0.0
N1192 N 0.69645 0.67113 0.53782 0.0
N1193 N 0.66243 0.68645 0.40762 0.0
H1194 H 0.33572 0.71972 0.44662 0.0
H1195 H 0.28936 0.63488 0.61809 0.0
H1196 H 0.34281 0.70474 0.67944 0.0
H1197 H 0.26599 0.6652 0.43791 0.0
H1198 H 0.31167 0.65807 0.63454 0.0
H1199 H 0.31258 0.69729 0.4345 0.0
C1200 C 0.33237 0.71166 0.49506 0.0
C1201 C 0.34107 0.71402 0.56411 0.0
C1202 C 0.30158 0.65966 0.59175 0.0
C1203 C 0.3149 0.68837 0.5506 0.0
C1204 C 0.28896 0.64644 0.58217 0.0
C1205 C 0.27588 0.64823 0.52669 0.0
C1206 C 0.3013 0.67451 0.54438 0.0
C1207 C 0.27581 0.66345 0.48169 0.0
C1208 C 0.31916 0.69897 0.48828 0.0
C1209 C 0.33626 0.70335 0.62543 0.0
N1210 N 0.28845 0.67595 0.49103 0.0
N1211 N 0.32357 0.69084 0.61711 0.0
H1212 H 0.34398 0.27764 0.59603 0.0
H1213 H 0.26694 0.3329 0.39929 0.0
H1214 H 0.33325 0.27522 0.35676 0.0
H1215 H 0.28965 0.34691 0.61436 0.0
H1216 H 0.28884 0.30924 0.38708 0.0
H1217 H 0.32191 0.30094 0.60795 0.0
C1218 C 0.33708 0.28203 0.5459 0.0
C1219 C 0.34054 0.27438 0.47526 0.0
C1220 C 0.28903 0.31753 0.43683 0.0
C1221 C 0.31499 0.30085 0.48896 0.0
C1222 C 0.2765 0.33094 0.44397 0.0
C1223 C 0.27657 0.34188 0.50776 0.0
C1224 C 0.30151 0.31492 0.49442 0.0
C1225 C 0.2893 0.33888 0.56385 0.0
C1226 C 0.32441 0.29528 0.55288 0.0
C1227 C 0.33086 0.28044 0.41264 0.0
N1228 N 0.30122 0.32564 0.55603 0.0
N1229 N 0.31851 0.29327 0.42101 0.0
H1230 H 0.69335 0.36196 0.50549 0.0
H1231 H 0.66058 0.26436 0.41793 0.0
H1232 H 0.72888 0.3201 0.43957 0.0
H1233 H 0.63296 0.29917 0.57071 0.0
H1234 H 0.68413 0.28619 0.4077 0.0
H1235 H 0.66945 0.34046 0.51317 0.0
C1236 C 0.69623 0.34826 0.49324 0.0
C1237 C 0.71328 0.34289 0.47223 0.0
C1238 C 0.67287 0.289 0.44334 0.0
C1239 C 0.68575 0.31833 0.47883 0.0
C1240 C 0.65943 0.27652 0.44959 0.0
C1241 C 0.64473 0.27979 0.49583 0.0
C1242 C 0.67154 0.305 0.48268 0.0
C1243 C 0.64386 0.29608 0.53363 0.0
C1244 C 0.68251 0.33603 0.49712 0.0
C1245 C 0.71595 0.32497 0.45497 0.0
N1246 N 0.65707 0.30807 0.52617 0.0
N1247 N 0.70233 0.31336 0.45841 0.0
loop_
_geom_bond_atom_site_label_1
_geom_bond_atom_site_label_2
_geom_bond_distance
_geom_bond_site_symmetry_2
_ccdc_geom_bond_type
Co0 N4 2.148 1_554 S
Co0 N10 2.128 . S
Co0 N20 2.194 . S
Co0 O25 2.351 . S
Co0 O26 2.155 . S
Co0 O27 2.096 . S
C1 N4 1.301 . S
C1 N5 1.328 . S
C1 H6 0.930 . S
C2 C3 1.333 . S
C2 N4 1.317 . S
C2 H7 0.930 . S
C3 C2 1.333 . S
C3 N5 1.350 . S
C3 H29 0.931 . S
N4 Co0 2.148 1_556 S
N4 C1 1.301 . S
N4 C2 1.317 . S
N5 C1 1.328 . S
N5 C3 1.350 . S
H6 C1 0.930 . S
H7 C2 0.930 . S
C8 O9 1.224 . S
C8 O27 1.247 . S
O9 C8 1.224 . S
N10 Co0 2.128 . S
N10 C11 1.355 . S
N10 C13 1.311 . S
C11 N10 1.355 . S
C11 C12 1.363 . S
C11 H23 0.929 . S
C12 C11 1.363 . S
C12 N14 1.375 . S
C12 H30 0.931 . S
C13 N10 1.311 . S
C13 N14 1.347 . S
C13 H24 0.929 . S
N14 C12 1.375 . S
N14 C13 1.347 . S
C15 C18 1.365 . S
C15 N20 1.328 . S
C15 H21 0.929 . S
C16 C17 1.362 . S
C16 C19 1.378 . S
C16 H31 0.929 . S
C17 C16 1.362 . S
C17 C18 1.366 . S
C18 C15 1.365 . S
C18 C17 1.366 . S
C18 H32 0.930 . S
C19 C16 1.378 . S
C19 N20 1.315 . S
C19 H22 0.930 . S
N20 Co0 2.194 . S
N20 C15 1.328 . S
N20 C19 1.315 . S
H21 C15 0.929 . S
H22 C19 0.930 . S
H23 C11 0.929 . S
H24 C13 0.929 . S
O25 Co0 2.351 . S
O25 C28 1.244 . S
O26 Co0 2.155 . S
O26 C28 1.240 . S
O27 Co0 2.096 . S
O27 C8 1.247 . S
C28 O25 1.244 . S
C28 O26 1.240 . S
H29 C3 0.931 . S
H30 C12 0.931 . S
H31 C16 0.929 . S
H32 C18 0.930 . S
Co33 N37 2.148 1_554 S
Co33 N43 2.128 . S
Co33 N53 2.194 . S
Co33 O58 2.351 . S
Co33 O59 2.155 . S
Co33 O60 2.096 . S
C34 N37 1.301 . S
C34 N38 1.328 . S
C34 H39 0.930 . S
C35 C36 1.333 . S
C35 N37 1.317 . S
C35 H40 0.930 . S
C36 C35 1.333 . S
C36 N38 1.350 . S
C36 H62 0.931 . S
N37 Co33 2.148 1_556 S
N37 C34 1.301 . S
N37 C35 1.317 . S
N38 C34 1.328 . S
N38 C36 1.350 . S
H39 C34 0.930 . S
H40 C35 0.930 . S
C41 O42 1.224 . S
C41 O60 1.247 . S
O42 C41 1.224 . S
N43 Co33 2.128 . S
N43 C44 1.355 . S
N43 C46 1.311 . S
C44 N43 1.355 . S
C44 C45 1.363 . S
C44 H56 0.929 . S
C45 C44 1.363 . S
C45 N47 1.375 . S
C45 H63 0.931 . S
C46 N43 1.311 . S
C46 N47 1.347 . S
C46 H57 0.929 . S
N47 C45 1.375 . S
N47 C46 1.347 . S
C48 C51 1.365 . S
C48 N53 1.328 . S
C48 H54 0.929 . S
C49 C50 1.362 . S
C49 C52 1.378 . S
C49 H64 0.929 . S
C50 C49 1.362 . S
C50 C51 1.366 . S
C51 C48 1.365 . S
C51 C50 1.366 . S
C51 H65 0.930 . S
C52 C49 1.378 . S
C52 N53 1.315 . S
C52 H55 0.930 . S
N53 Co33 2.194 . S
N53 C48 1.328 . S
N53 C52 1.315 . S
H54 C48 0.929 . S
H55 C52 0.930 . S
H56 C44 0.929 . S
H57 C46 0.929 . S
O58 Co33 2.351 . S
O58 C61 1.244 . S
O59 Co33 2.155 . S
O59 C61 1.240 . S
O60 Co33 2.096 . S
O60 C41 1.247 . S
C61 O58 1.244 . S
C61 O59 1.240 . S
H62 C36 0.931 . S
H63 C45 0.931 . S
H64 C49 0.929 . S
H65 C51 0.930 . S
Co66 N70 2.148 1_554 S
Co66 N76 2.128 . S
Co66 N86 2.194 . S
Co66 O91 2.351 . S
Co66 O92 2.155 . S
Co66 O93 2.096 . S
C67 N70 1.301 . S
C67 N71 1.328 . S
C67 H72 0.930 . S
C68 C69 1.333 . S
C68 N70 1.317 . S
C68 H73 0.930 . S
C69 C68 1.333 . S
C69 N71 1.350 . S
C69 H95 0.931 . S
N70 Co66 2.148 1_556 S
N70 C67 1.301 . S
N70 C68 1.317 . S
N71 C67 1.328 . S
N71 C69 1.350 . S
H72 C67 0.930 . S
H73 C68 0.930 . S
C74 O75 1.224 . S
C74 O93 1.247 . S
O75 C74 1.224 . S
N76 Co66 2.128 . S
N76 C77 1.355 . S
N76 C79 1.311 . S
C77 N76 1.355 . S
C77 C78 1.363 . S
C77 H89 0.929 . S
C78 C77 1.363 . S
C78 N80 1.375 . S
C78 H96 0.931 . S
C79 N76 1.311 . S
C79 N80 1.347 . S
C79 H90 0.929 . S
N80 C78 1.375 . S
N80 C79 1.347 . S
C81 C84 1.365 . S
C81 N86 1.328 . S
C81 H87 0.929 . S
C82 C83 1.362 . S
C82 C85 1.378 . S
C82 H97 0.929 . S
C83 C82 1.362 . S
C83 C84 1.366 . S
C84 C81 1.365 . S
C84 C83 1.366 . S
C84 H98 0.930 . S
C85 C82 1.378 . S
C85 N86 1.315 . S
C85 H88 0.930 . S
N86 Co66 2.194 . S
N86 C81 1.328 . S
N86 C85 1.315 . S
H87 C81 0.929 . S
H88 C85 0.930 . S
H89 C77 0.929 . S
H90 C79 0.929 . S
O91 Co66 2.351 . S
O91 C94 1.244 . S
O92 Co66 2.155 . S
O92 C94 1.240 . S
O93 Co66 2.096 . S
O93 C74 1.247 . S
C94 O91 1.244 . S
C94 O92 1.240 . S
H95 C69 0.931 . S
H96 C78 0.931 . S
H97 C82 0.929 . S
H98 C84 0.930 . S
Co99 N103 2.148 1_554 S
Co99 N109 2.128 . S
Co99 N119 2.194 . S
Co99 O124 2.351 . S
Co99 O125 2.155 . S
Co99 O126 2.096 . S
C100 N103 1.301 . S
C100 N104 1.328 . S
C100 H105 0.930 . S
C101 C102 1.333 . S
C101 N103 1.317 . S
C101 H106 0.930 . S
C102 C101 1.333 . S
C102 N104 1.350 . S
C102 H128 0.931 . S
N103 Co99 2.148 1_556 S
N103 C100 1.301 . S
N103 C101 1.317 . S
N104 C100 1.328 . S
N104 C102 1.350 . S
H105 C100 0.930 . S
H106 C101 0.930 . S
C107 O108 1.224 . S
C107 O126 1.247 . S
O108 C107 1.224 . S
N109 Co99 2.128 . S
N109 C110 1.355 . S
N109 C112 1.311 . S
C110 N109 1.355 . S
C110 C111 1.363 . S
C110 H122 0.929 . S
C111 C110 1.363 . S
C111 N113 1.375 . S
C111 H129 0.931 . S
C112 N109 1.311 . S
C112 N113 1.347 . S
C112 H123 0.929 . S
N113 C111 1.375 . S
N113 C112 1.347 . S
C114 C117 1.365 . S
C114 N119 1.328 . S
C114 H120 0.929 . S
C115 C116 1.362 . S
C115 C118 1.378 . S
C115 H130 0.929 . S
C116 C115 1.362 . S
C116 C117 1.366 . S
C117 C114 1.365 . S
C117 C116 1.366 . S
C117 H131 0.930 . S
C118 C115 1.378 . S
C118 N119 1.315 . S
C118 H121 0.930 . S
N119 Co99 2.194 . S
N119 C114 1.328 . S
N119 C118 1.315 . S
H120 C114 0.929 . S
H121 C118 0.930 . S
H122 C110 0.929 . S
H123 C112 0.929 . S
O124 Co99 2.351 . S
O124 C127 1.244 . S
O125 Co99 2.155 . S
O125 C127 1.240 . S
O126 Co99 2.096 . S
O126 C107 1.247 . S
C127 O124 1.244 . S
C127 O125 1.240 . S
H128 C102 0.931 . S
H129 C111 0.931 . S
H130 C115 0.929 . S
H131 C117 0.930 . S
Co132 N136 2.148 1_556 S
Co132 N142 2.128 . S
Co132 N152 2.194 . S
Co132 O157 2.351 . S
Co132 O158 2.155 . S
Co132 O159 2.096 . S
C133 N136 1.301 . S
C133 N137 1.328 . S
C133 H138 0.930 . S
C134 C135 1.333 . S
C134 N136 1.317 . S
C134 H139 0.930 . S
C135 C134 1.333 . S
C135 N137 1.350 . S
C135 H161 0.931 . S
N136 Co132 2.148 1_554 S
N136 C133 1.301 . S
N136 C134 1.317 . S
N137 C133 1.328 . S
N137 C135 1.350 . S
H138 C133 0.930 . S
H139 C134 0.930 . S
C140 O141 1.224 . S
C140 O159 1.247 . S
O141 C140 1.224 . S
N142 Co132 2.128 . S
N142 C143 1.355 . S
N142 C145 1.311 . S
C143 N142 1.355 . S
C143 C144 1.363 . S
C143 H155 0.929 . S
C144 C143 1.363 . S
C144 N146 1.375 . S
C144 H162 0.931 . S
C145 N142 1.311 . S
C145 N146 1.347 . S
C145 H156 0.929 . S
N146 C144 1.375 . S
N146 C145 1.347 . S
C147 C150 1.365 . S
C147 N152 1.328 . S
C147 H153 0.929 . S
C148 C149 1.362 . S
C148 C151 1.378 . S
C148 H163 0.929 . S
C149 C148 1.362 . S
C149 C150 1.366 . S
C150 C147 1.365 . S
C150 C149 1.366 . S
C150 H164 0.930 . S
C151 C148 1.378 . S
C151 N152 1.315 . S
C151 H154 0.930 . S
N152 Co132 2.194 . S
N152 C147 1.328 . S
N152 C151 1.315 . S
H153 C147 0.929 . S
H154 C151 0.930 . S
H155 C143 0.929 . S
H156 C145 0.929 . S
O157 Co132 2.351 . S
O157 C160 1.244 . S
O158 Co132 2.155 . S
O158 C160 1.240 . S
O159 Co132 2.096 . S
O159 C140 1.247 . S
C160 O157 1.244 . S
C160 O158 1.240 . S
H161 C135 0.931 . S
H162 C144 0.931 . S
H163 C148 0.929 . S
H164 C150 0.930 . S
Co165 N169 2.148 1_556 S
Co165 N175 2.128 . S
Co165 N185 2.194 . S
Co165 O190 2.351 . S
Co165 O191 2.155 . S
Co165 O192 2.096 . S
C166 N169 1.301 . S
C166 N170 1.328 . S
C166 H171 0.930 . S
C167 C168 1.333 . S
C167 N169 1.317 . S
C167 H172 0.930 . S
C168 C167 1.333 . S
C168 N170 1.350 . S
C168 H194 0.931 . S
N169 Co165 2.148 1_554 S
N169 C166 1.301 . S
N169 C167 1.317 . S
N170 C166 1.328 . S
N170 C168 1.350 . S
H171 C166 0.930 . S
H172 C167 0.930 . S
C173 O174 1.224 . S
C173 O192 1.247 . S
O174 C173 1.224 . S
N175 Co165 2.128 . S
N175 C176 1.355 . S
N175 C178 1.311 . S
C176 N175 1.355 . S
C176 C177 1.363 . S
C176 H188 0.929 . S
C177 C176 1.363 . S
C177 N179 1.375 . S
C177 H195 0.931 . S
C178 N175 1.311 . S
C178 N179 1.347 . S
C178 H189 0.929 . S
N179 C177 1.375 . S
N179 C178 1.347 . S
C180 C183 1.365 . S
C180 N185 1.328 . S
C180 H186 0.929 . S
C181 C182 1.362 . S
C181 C184 1.378 . S
C181 H196 0.929 . S
C182 C181 1.362 . S
C182 C183 1.366 . S
C183 C180 1.365 . S
C183 C182 1.366 . S
C183 H197 0.930 . S
C184 C181 1.378 . S
C184 N185 1.315 . S
C184 H187 0.930 . S
N185 Co165 2.194 . S
N185 C180 1.328 . S
N185 C184 1.315 . S
H186 C180 0.929 . S
H187 C184 0.930 . S
H188 C176 0.929 . S
H189 C178 0.929 . S
O190 Co165 2.351 . S
O190 C193 1.244 . S
O191 Co165 2.155 . S
O191 C193 1.240 . S
O192 Co165 2.096 . S
O192 C173 1.247 . S
C193 O190 1.244 . S
C193 O191 1.240 . S
H194 C168 0.931 . S
H195 C177 0.931 . S
H196 C181 0.929 . S
H197 C183 0.930 . S
Co198 N202 2.148 1_556 S
Co198 N208 2.128 . S
Co198 N218 2.194 . S
Co198 O223 2.351 . S
Co198 O224 2.155 . S
Co198 O225 2.096 . S
C199 N202 1.301 . S
C199 N203 1.328 . S
C199 H204 0.930 . S
C200 C201 1.333 . S
C200 N202 1.317 . S
C200 H205 0.930 . S
C201 C200 1.333 . S
C201 N203 1.350 . S
C201 H227 0.931 . S
N202 Co198 2.148 1_554 S
N202 C199 1.301 . S
N202 C200 1.317 . S
N203 C199 1.328 . S
N203 C201 1.350 . S
H204 C199 0.930 . S
H205 C200 0.930 . S
C206 O207 1.224 . S
C206 O225 1.247 . S
O207 C206 1.224 . S
N208 Co198 2.128 . S
N208 C209 1.355 . S
N208 C211 1.311 . S
C209 N208 1.355 . S
C209 C210 1.363 . S
C209 H221 0.929 . S
C210 C209 1.363 . S
C210 N212 1.375 . S
C210 H228 0.931 . S
C211 N208 1.311 . S
C211 N212 1.347 . S
C211 H222 0.929 . S
N212 C210 1.375 . S
N212 C211 1.347 . S
C213 C216 1.365 . S
C213 N218 1.328 . S
C213 H219 0.929 . S
C214 C215 1.362 . S
C214 C217 1.378 . S
C214 H229 0.929 . S
C215 C214 1.362 . S
C215 C216 1.366 . S
C216 C213 1.365 . S
C216 C215 1.366 . S
C216 H230 0.930 . S
C217 C214 1.378 . S
C217 N218 1.315 . S
C217 H220 0.930 . S
N218 Co198 2.194 . S
N218 C213 1.328 . S
N218 C217 1.315 . S
H219 C213 0.929 . S
H220 C217 0.930 . S
H221 C209 0.929 . S
H222 C211 0.929 . S
O223 Co198 2.351 . S
O223 C226 1.244 . S
O224 Co198 2.155 . S
O224 C226 1.240 . S
O225 Co198 2.096 . S
O225 C206 1.247 . S
C226 O223 1.244 . S
C226 O224 1.240 . S
H227 C201 0.931 . S
H228 C210 0.931 . S
H229 C214 0.929 . S
H230 C216 0.930 . S
Co231 N235 2.148 1_556 S
Co231 N241 2.128 . S
Co231 N251 2.194 . S
Co231 O256 2.351 . S
Co231 O257 2.155 . S
Co231 O258 2.096 . S
C232 N235 1.301 . S
C232 N236 1.328 . S
C232 H237 0.930 . S
C233 C234 1.333 . S
C233 N235 1.317 . S
C233 H238 0.930 . S
C234 C233 1.333 . S
C234 N236 1.350 . S
C234 H260 0.931 . S
N235 Co231 2.148 1_554 S
N235 C232 1.301 . S
N235 C233 1.317 . S
N236 C232 1.328 . S
N236 C234 1.350 . S
H237 C232 0.930 . S
H238 C233 0.930 . S
C239 O240 1.224 . S
C239 O258 1.247 . S
O240 C239 1.224 . S
N241 Co231 2.128 . S
N241 C242 1.355 . S
N241 C244 1.311 . S
C242 N241 1.355 . S
C242 C243 1.363 . S
C242 H254 0.929 . S
C243 C242 1.363 . S
C243 N245 1.375 . S
C243 H261 0.931 . S
C244 N241 1.311 . S
C244 N245 1.347 . S
C244 H255 0.929 . S
N245 C243 1.375 . S
N245 C244 1.347 . S
C246 C249 1.365 . S
C246 N251 1.328 . S
C246 H252 0.929 . S
C247 C248 1.362 . S
C247 C250 1.378 . S
C247 H262 0.929 . S
C248 C247 1.362 . S
C248 C249 1.366 . S
C249 C246 1.365 . S
C249 C248 1.366 . S
C249 H263 0.930 . S
C250 C247 1.378 . S
C250 N251 1.315 . S
C250 H253 0.930 . S
N251 Co231 2.194 . S
N251 C246 1.328 . S
N251 C250 1.315 . S
H252 C246 0.929 . S
H253 C250 0.930 . S
H254 C242 0.929 . S
H255 C244 0.929 . S
O256 Co231 2.351 . S
O256 C259 1.244 . S
O257 Co231 2.155 . S
O257 C259 1.240 . S
O258 Co231 2.096 . S
O258 C239 1.247 . S
C259 O256 1.244 . S
C259 O257 1.240 . S
H260 C234 0.931 . S
H261 C243 0.931 . S
H262 C247 0.929 . S
H263 C249 0.930 . S
Co264 N268 2.148 . S
Co264 N274 2.128 . S
Co264 N284 2.194 . S
Co264 O289 2.351 . S
Co264 O290 2.155 . S
Co264 O291 2.096 . S
C265 N268 1.301 . S
C265 N269 1.328 . S
C265 H270 0.930 . S
C266 C267 1.333 . S
C266 N268 1.317 . S
C266 H271 0.930 . S
C267 C266 1.333 . S
C267 N269 1.350 . S
C267 H293 0.931 . S
N268 Co264 2.148 . S
N268 C265 1.301 . S
N268 C266 1.317 . S
N269 C265 1.328 . S
N269 C267 1.350 . S
H270 C265 0.930 . S
H271 C266 0.930 . S
C272 O273 1.224 . S
C272 O291 1.247 . S
O273 C272 1.224 . S
N274 Co264 2.128 . S
N274 C275 1.355 . S
N274 C277 1.311 . S
C275 N274 1.355 . S
C275 C276 1.363 . S
C275 H287 0.929 . S
C276 C275 1.363 . S
C276 N278 1.375 . S
C276 H294 0.931 . S
C277 N274 1.311 . S
C277 N278 1.347 . S
C277 H288 0.929 . S
N278 C276 1.375 . S
N278 C277 1.347 . S
C279 C282 1.365 . S
C279 N284 1.328 . S
C279 H285 0.929 . S
C280 C281 1.362 . S
C280 C283 1.378 . S
C280 H295 0.929 . S
C281 C280 1.362 . S
C281 C282 1.366 . S
C282 C279 1.365 . S
C282 C281 1.366 . S
C282 H296 0.930 . S
C283 C280 1.378 . S
C283 N284 1.315 . S
C283 H286 0.930 . S
N284 Co264 2.194 . S
N284 C279 1.328 . S
N284 C283 1.315 . S
H285 C279 0.929 . S
H286 C283 0.930 . S
H287 C275 0.929 . S
H288 C277 0.929 . S
O289 Co264 2.351 . S
O289 C292 1.244 . S
O290 Co264 2.155 . S
O290 C292 1.240 . S
O291 Co264 2.096 . S
O291 C272 1.247 . S
C292 O289 1.244 . S
C292 O290 1.240 . S
H293 C267 0.931 . S
H294 C276 0.931 . S
H295 C280 0.929 . S
H296 C282 0.930 . S
Co297 N301 2.148 . S
Co297 N307 2.128 . S
Co297 N317 2.194 . S
Co297 O322 2.351 . S
Co297 O323 2.155 . S
Co297 O324 2.096 . S
C298 N301 1.301 . S
C298 N302 1.328 . S
C298 H303 0.930 . S
C299 C300 1.333 . S
C299 N301 1.317 . S
C299 H304 0.930 . S
C300 C299 1.333 . S
C300 N302 1.350 . S
C300 H326 0.931 . S
N301 Co297 2.148 . S
N301 C298 1.301 . S
N301 C299 1.317 . S
N302 C298 1.328 . S
N302 C300 1.350 . S
H303 C298 0.930 . S
H304 C299 0.930 . S
C305 O306 1.224 . S
C305 O324 1.247 . S
O306 C305 1.224 . S
N307 Co297 2.128 . S
N307 C308 1.355 . S
N307 C310 1.311 . S
C308 N307 1.355 . S
C308 C309 1.363 . S
C308 H320 0.929 . S
C309 C308 1.363 . S
C309 N311 1.375 . S
C309 H327 0.931 . S
C310 N307 1.311 . S
C310 N311 1.347 . S
C310 H321 0.929 . S
N311 C309 1.375 . S
N311 C310 1.347 . S
C312 C315 1.365 . S
C312 N317 1.328 . S
C312 H318 0.929 . S
C313 C314 1.362 . S
C313 C316 1.378 . S
C313 H328 0.929 . S
C314 C313 1.362 . S
C314 C315 1.366 . S
C315 C312 1.365 . S
C315 C314 1.366 . S
C315 H329 0.930 . S
C316 C313 1.378 . S
C316 N317 1.315 . S
C316 H319 0.930 . S
N317 Co297 2.194 . S
N317 C312 1.328 . S
N317 C316 1.315 . S
H318 C312 0.929 . S
H319 C316 0.930 . S
H320 C308 0.929 . S
H321 C310 0.929 . S
O322 Co297 2.351 . S
O322 C325 1.244 . S
O323 Co297 2.155 . S
O323 C325 1.240 . S
O324 Co297 2.096 . S
O324 C305 1.247 . S
C325 O322 1.244 . S
C325 O323 1.240 . S
H326 C300 0.931 . S
H327 C309 0.931 . S
H328 C313 0.929 . S
H329 C315 0.930 . S
Co330 N334 2.148 . S
Co330 N340 2.128 . S
Co330 N350 2.194 . S
Co330 O355 2.351 . S
Co330 O356 2.155 . S
Co330 O357 2.096 . S
C331 N334 1.301 . S
C331 N335 1.328 . S
C331 H336 0.930 . S
C332 C333 1.333 . S
C332 N334 1.317 . S
C332 H337 0.930 . S
C333 C332 1.333 . S
C333 N335 1.350 . S
C333 H359 0.931 . S
N334 Co330 2.148 . S
N334 C331 1.301 . S
N334 C332 1.317 . S
N335 C331 1.328 . S
N335 C333 1.350 . S
H336 C331 0.930 . S
H337 C332 0.930 . S
C338 O339 1.224 . S
C338 O357 1.247 . S
O339 C338 1.224 . S
N340 Co330 2.128 . S
N340 C341 1.355 . S
N340 C343 1.311 . S
C341 N340 1.355 . S
C341 C342 1.363 . S
C341 H353 0.929 . S
C342 C341 1.363 . S
C342 N344 1.375 . S
C342 H360 0.931 . S
C343 N340 1.311 . S
C343 N344 1.347 . S
C343 H354 0.929 . S
N344 C342 1.375 . S
N344 C343 1.347 . S
C345 C348 1.365 . S
C345 N350 1.328 . S
C345 H351 0.929 . S
C346 C347 1.362 . S
C346 C349 1.378 . S
C346 H361 0.929 . S
C347 C346 1.362 . S
C347 C348 1.366 . S
C348 C345 1.365 . S
C348 C347 1.366 . S
C348 H362 0.930 . S
C349 C346 1.378 . S
C349 N350 1.315 . S
C349 H352 0.930 . S
N350 Co330 2.194 . S
N350 C345 1.328 . S
N350 C349 1.315 . S
H351 C345 0.929 . S
H352 C349 0.930 . S
H353 C341 0.929 . S
H354 C343 0.929 . S
O355 Co330 2.351 . S
O355 C358 1.244 . S
O356 Co330 2.155 . S
O356 C358 1.240 . S
O357 Co330 2.096 . S
O357 C338 1.247 . S
C358 O355 1.244 . S
C358 O356 1.240 . S
H359 C333 0.931 . S
H360 C342 0.931 . S
H361 C346 0.929 . S
H362 C348 0.930 . S
Co363 N367 2.148 . S
Co363 N373 2.128 . S
Co363 N383 2.194 . S
Co363 O388 2.351 . S
Co363 O389 2.155 . S
Co363 O390 2.096 . S
C364 N367 1.301 . S
C364 N368 1.328 . S
C364 H369 0.930 . S
C365 C366 1.333 . S
C365 N367 1.317 . S
C365 H370 0.930 . S
C366 C365 1.333 . S
C366 N368 1.350 . S
C366 H392 0.931 . S
N367 Co363 2.148 . S
N367 C364 1.301 . S
N367 C365 1.317 . S
N368 C364 1.328 . S
N368 C366 1.350 . S
H369 C364 0.930 . S
H370 C365 0.930 . S
C371 O372 1.224 . S
C371 O390 1.247 . S
O372 C371 1.224 . S
N373 Co363 2.128 . S
N373 C374 1.355 . S
N373 C376 1.311 . S
C374 N373 1.355 . S
C374 C375 1.363 . S
C374 H386 0.929 . S
C375 C374 1.363 . S
C375 N377 1.375 . S
C375 H393 0.931 . S
C376 N373 1.311 . S
C376 N377 1.347 . S
C376 H387 0.929 . S
N377 C375 1.375 . S
N377 C376 1.347 . S
C378 C381 1.365 . S
C378 N383 1.328 . S
C378 H384 0.929 . S
C379 C380 1.362 . S
C379 C382 1.378 . S
C379 H394 0.929 . S
C380 C379 1.362 . S
C380 C381 1.366 . S
C381 C378 1.365 . S
C381 C380 1.366 . S
C381 H395 0.930 . S
C382 C379 1.378 . S
C382 N383 1.315 . S
C382 H385 0.930 . S
N383 Co363 2.194 . S
N383 C378 1.328 . S
N383 C382 1.315 . S
H384 C378 0.929 . S
H385 C382 0.930 . S
H386 C374 0.929 . S
H387 C376 0.929 . S
O388 Co363 2.351 . S
O388 C391 1.244 . S
O389 Co363 2.155 . S
O389 C391 1.240 . S
O390 Co363 2.096 . S
O390 C371 1.247 . S
C391 O388 1.244 . S
C391 O389 1.240 . S
H392 C366 0.931 . S
H393 C375 0.931 . S
H394 C379 0.929 . S
H395 C381 0.930 . S
Co396 N400 2.148 . S
Co396 N406 2.128 . S
Co396 N416 2.194 . S
Co396 O421 2.351 . S
Co396 O422 2.155 . S
Co396 O423 2.096 . S
C397 N400 1.301 . S
C397 N401 1.328 . S
C397 H402 0.930 . S
C398 C399 1.333 . S
C398 N400 1.317 . S
C398 H403 0.930 . S
C399 C398 1.333 . S
C399 N401 1.350 . S
C399 H425 0.931 . S
N400 Co396 2.148 . S
N400 C397 1.301 . S
N400 C398 1.317 . S
N401 C397 1.328 . S
N401 C399 1.350 . S
H402 C397 0.930 . S
H403 C398 0.930 . S
C404 O405 1.224 . S
C404 O423 1.247 . S
O405 C404 1.224 . S
N406 Co396 2.128 . S
N406 C407 1.355 . S
N406 C409 1.311 . S
C407 N406 1.355 . S
C407 C408 1.363 . S
C407 H419 0.929 . S
C408 C407 1.363 . S
C408 N410 1.375 . S
C408 H426 0.931 . S
C409 N406 1.311 . S
C409 N410 1.347 . S
C409 H420 0.929 . S
N410 C408 1.375 . S
N410 C409 1.347 . S
C411 C414 1.365 . S
C411 N416 1.328 . S
C411 H417 0.929 . S
C412 C413 1.362 . S
C412 C415 1.378 . S
C412 H427 0.929 . S
C413 C412 1.362 . S
C413 C414 1.366 . S
C414 C411 1.365 . S
C414 C413 1.366 . S
C414 H428 0.930 . S
C415 C412 1.378 . S
C415 N416 1.315 . S
C415 H418 0.930 . S
N416 Co396 2.194 . S
N416 C411 1.328 . S
N416 C415 1.315 . S
H417 C411 0.929 . S
H418 C415 0.930 . S
H419 C407 0.929 . S
H420 C409 0.929 . S
O421 Co396 2.351 . S
O421 C424 1.244 . S
O422 Co396 2.155 . S
O422 C424 1.240 . S
O423 Co396 2.096 . S
O423 C404 1.247 . S
C424 O421 1.244 . S
C424 O422 1.240 . S
H425 C399 0.931 . S
H426 C408 0.931 . S
H427 C412 0.929 . S
H428 C414 0.930 . S
Co429 N433 2.148 . S
Co429 N439 2.128 . S
Co429 N449 2.194 . S
Co429 O454 2.351 . S
Co429 O455 2.155 . S
Co429 O456 2.096 . S
C430 N433 1.301 . S
C430 N434 1.328 . S
C430 H435 0.930 . S
C431 C432 1.333 . S
C431 N433 1.317 . S
C431 H436 0.930 . S
C432 C431 1.333 . S
C432 N434 1.350 . S
C432 H458 0.931 . S
N433 Co429 2.148 . S
N433 C430 1.301 . S
N433 C431 1.317 . S
N434 C430 1.328 . S
N434 C432 1.350 . S
H435 C430 0.930 . S
H436 C431 0.930 . S
C437 O438 1.224 . S
C437 O456 1.247 . S
O438 C437 1.224 . S
N439 Co429 2.128 . S
N439 C440 1.355 . S
N439 C442 1.311 . S
C440 N439 1.355 . S
C440 C441 1.363 . S
C440 H452 0.929 . S
C441 C440 1.363 . S
C441 N443 1.375 . S
C441 H459 0.931 . S
C442 N439 1.311 . S
C442 N443 1.347 . S
C442 H453 0.929 . S
N443 C441 1.375 . S
N443 C442 1.347 . S
C444 C447 1.365 . S
C444 N449 1.328 . S
C444 H450 0.929 . S
C445 C446 1.362 . S
C445 C448 1.378 . S
C445 H460 0.929 . S
C446 C445 1.362 . S
C446 C447 1.366 . S
C447 C444 1.365 . S
C447 C446 1.366 . S
C447 H461 0.930 . S
C448 C445 1.378 . S
C448 N449 1.315 . S
C448 H451 0.930 . S
N449 Co429 2.194 . S
N449 C444 1.328 . S
N449 C448 1.315 . S
H450 C444 0.929 . S
H451 C448 0.930 . S
H452 C440 0.929 . S
H453 C442 0.929 . S
O454 Co429 2.351 . S
O454 C457 1.244 . S
O455 Co429 2.155 . S
O455 C457 1.240 . S
O456 Co429 2.096 . S
O456 C437 1.247 . S
C457 O454 1.244 . S
C457 O455 1.240 . S
H458 C432 0.931 . S
H459 C441 0.931 . S
H460 C445 0.929 . S
H461 C447 0.930 . S
Co462 N466 2.148 . S
Co462 N472 2.128 . S
Co462 N482 2.194 . S
Co462 O487 2.351 . S
Co462 O488 2.155 . S
Co462 O489 2.096 . S
C463 N466 1.301 . S
C463 N467 1.328 . S
C463 H468 0.930 . S
C464 C465 1.333 . S
C464 N466 1.317 . S
C464 H469 0.930 . S
C465 C464 1.333 . S
C465 N467 1.350 . S
C465 H491 0.931 . S
N466 Co462 2.148 . S
N466 C463 1.301 . S
N466 C464 1.317 . S
N467 C463 1.328 . S
N467 C465 1.350 . S
H468 C463 0.930 . S
H469 C464 0.930 . S
C470 O471 1.224 . S
C470 O489 1.247 . S
O471 C470 1.224 . S
N472 Co462 2.128 . S
N472 C473 1.355 . S
N472 C475 1.311 . S
C473 N472 1.355 . S
C473 C474 1.363 . S
C473 H485 0.929 . S
C474 C473 1.363 . S
C474 N476 1.375 . S
C474 H492 0.931 . S
C475 N472 1.311 . S
C475 N476 1.347 . S
C475 H486 0.929 . S
N476 C474 1.375 . S
N476 C475 1.347 . S
C477 C480 1.365 . S
C477 N482 1.328 . S
C477 H483 0.929 . S
C478 C479 1.362 . S
C478 C481 1.378 . S
C478 H493 0.929 . S
C479 C478 1.362 . S
C479 C480 1.366 . S
C480 C477 1.365 . S
C480 C479 1.366 . S
C480 H494 0.930 . S
C481 C478 1.378 . S
C481 N482 1.315 . S
C481 H484 0.930 . S
N482 Co462 2.194 . S
N482 C477 1.328 . S
N482 C481 1.315 . S
H483 C477 0.929 . S
H484 C481 0.930 . S
H485 C473 0.929 . S
H486 C475 0.929 . S
O487 Co462 2.351 . S
O487 C490 1.244 . S
O488 Co462 2.155 . S
O488 C490 1.240 . S
O489 Co462 2.096 . S
O489 C470 1.247 . S
C490 O487 1.244 . S
C490 O488 1.240 . S
H491 C465 0.931 . S
H492 C474 0.931 . S
H493 C478 0.929 . S
H494 C480 0.930 . S
Co495 N499 2.148 . S
Co495 N505 2.128 . S
Co495 N515 2.194 . S
Co495 O520 2.351 . S
Co495 O521 2.155 . S
Co495 O522 2.096 . S
C496 N499 1.301 . S
C496 N500 1.328 . S
C496 H501 0.930 . S
C497 C498 1.333 . S
C497 N499 1.317 . S
C497 H502 0.930 . S
C498 C497 1.333 . S
C498 N500 1.350 . S
C498 H524 0.931 . S
N499 Co495 2.148 . S
N499 C496 1.301 . S
N499 C497 1.317 . S
N500 C496 1.328 . S
N500 C498 1.350 . S
H501 C496 0.930 . S
H502 C497 0.930 . S
C503 O504 1.224 . S
C503 O522 1.247 . S
O504 C503 1.224 . S
N505 Co495 2.128 . S
N505 C506 1.355 . S
N505 C508 1.311 . S
C506 N505 1.355 . S
C506 C507 1.363 . S
C506 H518 0.929 . S
C507 C506 1.363 . S
C507 N509 1.375 . S
C507 H525 0.931 . S
C508 N505 1.311 . S
C508 N509 1.347 . S
C508 H519 0.929 . S
N509 C507 1.375 . S
N509 C508 1.347 . S
C510 C513 1.365 . S
C510 N515 1.328 . S
C510 H516 0.929 . S
C511 C512 1.362 . S
C511 C514 1.378 . S
C511 H526 0.929 . S
C512 C511 1.362 . S
C512 C513 1.366 . S
C513 C510 1.365 . S
C513 C512 1.366 . S
C513 H527 0.930 . S
C514 C511 1.378 . S
C514 N515 1.315 . S
C514 H517 0.930 . S
N515 Co495 2.194 . S
N515 C510 1.328 . S
N515 C514 1.315 . S
H516 C510 0.929 . S
H517 C514 0.930 . S
H518 C506 0.929 . S
H519 C508 0.929 . S
O520 Co495 2.351 . S
O520 C523 1.244 . S
O521 Co495 2.155 . S
O521 C523 1.240 . S
O522 Co495 2.096 . S
O522 C503 1.247 . S
C523 O520 1.244 . S
C523 O521 1.240 . S
H524 C498 0.931 . S
H525 C507 0.931 . S
H526 C511 0.929 . S
H527 C513 0.930 . S
H528 C534 0.930 . S
H529 C538 0.930 . S
H530 C543 0.929 . S
H531 C541 0.929 . S
H532 C536 0.929 . S
H533 C542 0.929 . S
C534 H528 0.930 . S
C534 C535 1.367 . S
C534 C542 1.378 . S
C535 C534 1.367 . S
C535 C543 1.433 . S
C536 H532 0.929 . S
C536 C538 1.378 . S
C536 C540 1.350 . S
C537 C540 1.463 . S
C537 C542 1.350 . S
C537 N545 1.427 . S
C538 H529 0.930 . S
C538 C536 1.378 . S
C538 C539 1.367 . S
C539 C538 1.367 . S
C539 C541 1.433 . S
C540 C536 1.350 . S
C540 C537 1.463 . S
C540 N544 1.427 . S
C541 H531 0.929 . S
C541 C539 1.433 . S
C541 N544 1.384 . S
C542 H533 0.929 . S
C542 C534 1.378 . S
C542 C537 1.350 . S
C543 H530 0.929 . S
C543 C535 1.433 . S
C543 N545 1.384 . S
N544 C540 1.427 . S
N544 C541 1.384 . S
N545 C537 1.427 . S
N545 C543 1.384 . S
H546 C552 0.930 . S
H547 C556 0.930 . S
H548 C561 0.929 . S
H549 C559 0.929 . S
H550 C554 0.929 . S
H551 C560 0.929 . S
C552 H546 0.930 . S
C552 C553 1.367 . S
C552 C560 1.378 . S
C553 C552 1.367 . S
C553 C561 1.433 . S
C554 H550 0.929 . S
C554 C556 1.378 . S
C554 C558 1.350 . S
C555 C558 1.463 . S
C555 C560 1.350 . S
C555 N563 1.427 . S
C556 H547 0.930 . S
C556 C554 1.378 . S
C556 C557 1.367 . S
C557 C556 1.367 . S
C557 C559 1.433 . S
C558 C554 1.350 . S
C558 C555 1.463 . S
C558 N562 1.427 . S
C559 H549 0.929 . S
C559 C557 1.433 . S
C559 N562 1.384 . S
C560 H551 0.929 . S
C560 C552 1.378 . S
C560 C555 1.350 . S
C561 H548 0.929 . S
C561 C553 1.433 . S
C561 N563 1.384 . S
N562 C558 1.427 . S
N562 C559 1.384 . S
N563 C555 1.427 . S
N563 C561 1.384 . S
H564 C570 0.930 . S
H565 C574 0.930 . S
H566 C579 0.929 . S
H567 C577 0.929 . S
H568 C572 0.929 . S
H569 C578 0.929 . S
C570 H564 0.930 . S
C570 C571 1.367 . S
C570 C578 1.378 . S
C571 C570 1.367 . S
C571 C579 1.433 . S
C572 H568 0.929 . S
C572 C574 1.378 . S
C572 C576 1.350 . S
C573 C576 1.463 . S
C573 C578 1.350 . S
C573 N581 1.427 . S
C574 H565 0.930 . S
C574 C572 1.378 . S
C574 C575 1.367 . S
C575 C574 1.367 . S
C575 C577 1.433 . S
C576 C572 1.350 . S
C576 C573 1.463 . S
C576 N580 1.427 . S
C577 H567 0.929 . S
C577 C575 1.433 . S
C577 N580 1.384 . S
C578 H569 0.929 . S
C578 C570 1.378 . S
C578 C573 1.350 . S
C579 H566 0.929 . S
C579 C571 1.433 . S
C579 N581 1.384 . S
N580 C576 1.427 . S
N580 C577 1.384 . S
N581 C573 1.427 . S
N581 C579 1.384 . S
H582 C588 0.930 . S
H583 C592 0.930 . S
H584 C597 0.929 . S
H585 C595 0.929 . S
H586 C590 0.929 . S
H587 C596 0.929 . S
C588 H582 0.930 . S
C588 C589 1.367 . S
C588 C596 1.378 . S
C589 C588 1.367 . S
C589 C597 1.433 . S
C590 H586 0.929 . S
C590 C592 1.378 . S
C590 C594 1.350 . S
C591 C594 1.463 . S
C591 C596 1.350 . S
C591 N599 1.427 . S
C592 H583 0.930 . S
C592 C590 1.378 . S
C592 C593 1.367 . S
C593 C592 1.367 . S
C593 C595 1.433 . S
C594 C590 1.350 . S
C594 C591 1.463 . S
C594 N598 1.427 . S
C595 H585 0.929 . S
C595 C593 1.433 . S
C595 N598 1.384 . S
C596 H587 0.929 . S
C596 C588 1.378 . S
C596 C591 1.350 . S
C597 H584 0.929 . S
C597 C589 1.433 . S
C597 N599 1.384 . S
N598 C594 1.427 . S
N598 C595 1.384 . S
N599 C591 1.427 . S
N599 C597 1.384 . S
H600 C606 0.930 . S
H601 C610 0.930 . S
H602 C615 0.929 . S
H603 C613 0.929 . S
H604 C608 0.929 . S
H605 C614 0.929 . S
C606 H600 0.930 . S
C606 C607 1.367 . S
C606 C614 1.378 . S
C607 C606 1.367 . S
C607 C615 1.433 . S
C608 H604 0.929 . S
C608 C610 1.378 . S
C608 C612 1.350 . S
C609 C612 1.463 . S
C609 C614 1.350 . S
C609 N617 1.427 . S
C610 H601 0.930 . S
C610 C608 1.378 . S
C610 C611 1.367 . S
C611 C610 1.367 . S
C611 C613 1.433 . S
C612 C608 1.350 . S
C612 C609 1.463 . S
C612 N616 1.427 . S
C613 H603 0.929 . S
C613 C611 1.433 . S
C613 N616 1.384 . S
C614 H605 0.929 . S
C614 C606 1.378 . S
C614 C609 1.350 . S
C615 H602 0.929 . S
C615 C607 1.433 . S
C615 N617 1.384 . S
N616 C612 1.427 . S
N616 C613 1.384 . S
N617 C609 1.427 . S
N617 C615 1.384 . S
H618 C624 0.930 . S
H619 C628 0.930 . S
H620 C633 0.929 . S
H621 C631 0.929 . S
H622 C626 0.929 . S
H623 C632 0.929 . S
C624 H618 0.930 . S
C624 C625 1.367 . S
C624 C632 1.378 . S
C625 C624 1.367 . S
C625 C633 1.433 . S
C626 H622 0.929 . S
C626 C628 1.378 . S
C626 C630 1.350 . S
C627 C630 1.463 . S
C627 C632 1.350 . S
C627 N635 1.427 . S
C628 H619 0.930 . S
C628 C626 1.378 . S
C628 C629 1.367 . S
C629 C628 1.367 . S
C629 C631 1.433 . S
C630 C626 1.350 . S
C630 C627 1.463 . S
C630 N634 1.427 . S
C631 H621 0.929 . S
C631 C629 1.433 . S
C631 N634 1.384 . S
C632 H623 0.929 . S
C632 C624 1.378 . S
C632 C627 1.350 . S
C633 H620 0.929 . S
C633 C625 1.433 . S
C633 N635 1.384 . S
N634 C630 1.427 . S
N634 C631 1.384 . S
N635 C627 1.427 . S
N635 C633 1.384 . S
H636 C642 0.930 . S
H637 C646 0.930 . S
H638 C651 0.929 . S
H639 C649 0.929 . S
H640 C644 0.929 . S
H641 C650 0.929 . S
C642 H636 0.930 . S
C642 C643 1.367 . S
C642 C650 1.378 . S
C643 C642 1.367 . S
C643 C651 1.433 . S
C644 H640 0.929 . S
C644 C646 1.378 . S
C644 C648 1.350 . S
C645 C648 1.463 . S
C645 C650 1.350 . S
C645 N653 1.427 . S
C646 H637 0.930 . S
C646 C644 1.378 . S
C646 C647 1.367 . S
C647 C646 1.367 . S
C647 C649 1.433 . S
C648 C644 1.350 . S
C648 C645 1.463 . S
C648 N652 1.427 . S
C649 H639 0.929 . S
C649 C647 1.433 . S
C649 N652 1.384 . S
C650 H641 0.929 . S
C650 C642 1.378 . S
C650 C645 1.350 . S
C651 H638 0.929 . S
C651 C643 1.433 . S
C651 N653 1.384 . S
N652 C648 1.427 . S
N652 C649 1.384 . S
N653 C645 1.427 . S
N653 C651 1.384 . S
H654 C660 0.930 . S
H655 C664 0.930 . S
H656 C669 0.929 . S
H657 C667 0.929 . S
H658 C662 0.929 . S
H659 C668 0.929 . S
C660 H654 0.930 . S
C660 C661 1.367 . S
C660 C668 1.378 . S
C661 C660 1.367 . S
C661 C669 1.433 . S
C662 H658 0.929 . S
C662 C664 1.378 . S
C662 C666 1.350 . S
C663 C666 1.463 . S
C663 C668 1.350 . S
C663 N671 1.427 . S
C664 H655 0.930 . S
C664 C662 1.378 . S
C664 C665 1.367 . S
C665 C664 1.367 . S
C665 C667 1.433 . S
C666 C662 1.350 . S
C666 C663 1.463 . S
C666 N670 1.427 . S
C667 H657 0.929 . S
C667 C665 1.433 . S
C667 N670 1.384 . S
C668 H659 0.929 . S
C668 C660 1.378 . S
C668 C663 1.350 . S
C669 H656 0.929 . S
C669 C661 1.433 . S
C669 N671 1.384 . S
N670 C666 1.427 . S
N670 C667 1.384 . S
N671 C663 1.427 . S
N671 C669 1.384 . S
H672 C678 0.930 . S
H673 C682 0.930 . S
H674 C687 0.929 . S
H675 C685 0.929 . S
H676 C680 0.929 . S
H677 C686 0.929 . S
C678 H672 0.930 . S
C678 C679 1.367 . S
C678 C686 1.378 . S
C679 C678 1.367 . S
C679 C687 1.433 . S
C680 H676 0.929 . S
C680 C682 1.378 1_554 S
C680 C684 1.350 . S
C681 C684 1.463 . S
C681 C686 1.350 . S
C681 N689 1.427 . S
C682 H673 0.930 . S
C682 C680 1.378 1_556 S
C682 C683 1.367 . S
C683 C682 1.367 . S
C683 C685 1.433 . S
C684 C680 1.350 . S
C684 C681 1.463 . S
C684 N688 1.427 . S
C685 H675 0.929 . S
C685 C683 1.433 . S
C685 N688 1.384 1_556 S
C686 H677 0.929 . S
C686 C678 1.378 . S
C686 C681 1.350 . S
C687 H674 0.929 . S
C687 C679 1.433 . S
C687 N689 1.384 . S
N688 C684 1.427 . S
N688 C685 1.384 1_554 S
N689 C681 1.427 . S
N689 C687 1.384 . S
H690 C696 0.930 . S
H691 C700 0.930 . S
H692 C705 0.929 . S
H693 C703 0.929 . S
H694 C698 0.929 . S
H695 C704 0.929 . S
C696 H690 0.930 . S
C696 C697 1.367 . S
C696 C704 1.378 . S
C697 C696 1.367 . S
C697 C705 1.433 . S
C698 H694 0.929 . S
C698 C700 1.378 1_554 S
C698 C702 1.350 . S
C699 C702 1.463 . S
C699 C704 1.350 . S
C699 N707 1.427 . S
C700 H691 0.930 . S
C700 C698 1.378 1_556 S
C700 C701 1.367 . S
C701 C700 1.367 . S
C701 C703 1.433 . S
C702 C698 1.350 . S
C702 C699 1.463 . S
C702 N706 1.427 . S
C703 H693 0.929 . S
C703 C701 1.433 . S
C703 N706 1.384 1_556 S
C704 H695 0.929 . S
C704 C696 1.378 . S
C704 C699 1.350 . S
C705 H692 0.929 . S
C705 C697 1.433 . S
C705 N707 1.384 . S
N706 C702 1.427 . S
N706 C703 1.384 1_554 S
N707 C699 1.427 . S
N707 C705 1.384 . S
H708 C714 0.930 . S
H709 C718 0.930 . S
H710 C723 0.929 . S
H711 C721 0.929 . S
H712 C716 0.929 . S
H713 C722 0.929 . S
C714 H708 0.930 . S
C714 C715 1.367 . S
C714 C722 1.378 . S
C715 C714 1.367 . S
C715 C723 1.433 . S
C716 H712 0.929 . S
C716 C718 1.378 1_554 S
C716 C720 1.350 . S
C717 C720 1.463 . S
C717 C722 1.350 . S
C717 N725 1.427 . S
C718 H709 0.930 . S
C718 C716 1.378 1_556 S
C718 C719 1.367 . S
C719 C718 1.367 . S
C719 C721 1.433 . S
C720 C716 1.350 . S
C720 C717 1.463 . S
C720 N724 1.427 . S
C721 H711 0.929 . S
C721 C719 1.433 . S
C721 N724 1.384 1_556 S
C722 H713 0.929 . S
C722 C714 1.378 . S
C722 C717 1.350 . S
C723 H710 0.929 . S
C723 C715 1.433 . S
C723 N725 1.384 . S
N724 C720 1.427 . S
N724 C721 1.384 1_554 S
N725 C717 1.427 . S
N725 C723 1.384 . S
H726 C732 0.930 . S
H727 C736 0.930 . S
H728 C741 0.929 . S
H729 C739 0.929 . S
H730 C734 0.929 . S
H731 C740 0.929 . S
C732 H726 0.930 . S
C732 C733 1.367 . S
C732 C740 1.378 . S
C733 C732 1.367 . S
C733 C741 1.433 . S
C734 H730 0.929 . S
C734 C736 1.378 1_554 S
C734 C738 1.350 . S
C735 C738 1.463 . S
C735 C740 1.350 . S
C735 N743 1.427 . S
C736 H727 0.930 . S
C736 C734 1.378 1_556 S
C736 C737 1.367 . S
C737 C736 1.367 . S
C737 C739 1.433 . S
C738 C734 1.350 . S
C738 C735 1.463 . S
C738 N742 1.427 . S
C739 H729 0.929 . S
C739 C737 1.433 . S
C739 N742 1.384 1_556 S
C740 H731 0.929 . S
C740 C732 1.378 . S
C740 C735 1.350 . S
C741 H728 0.929 . S
C741 C733 1.433 . S
C741 N743 1.384 . S
N742 C738 1.427 . S
N742 C739 1.384 1_554 S
N743 C735 1.427 . S
N743 C741 1.384 . S
H744 C750 0.930 . S
H745 C754 0.930 . S
H746 C759 0.929 . S
H747 C757 0.929 . S
H748 C752 0.929 . S
H749 C758 0.929 . S
C750 H744 0.930 . S
C750 C751 1.367 . S
C750 C758 1.378 1_554 S
C751 C750 1.367 . S
C751 C759 1.433 . S
C752 H748 0.929 . S
C752 C754 1.378 . S
C752 C756 1.350 . S
C753 C756 1.463 . S
C753 C758 1.350 . S
C753 N761 1.427 . S
C754 H745 0.930 . S
C754 C752 1.378 . S
C754 C755 1.367 . S
C755 C754 1.367 . S
C755 C757 1.433 . S
C756 C752 1.350 . S
C756 C753 1.463 . S
C756 N760 1.427 . S
C757 H747 0.929 . S
C757 C755 1.433 . S
C757 N760 1.384 . S
C758 H749 0.929 . S
C758 C750 1.378 1_556 S
C758 C753 1.350 . S
C759 H746 0.929 . S
C759 C751 1.433 . S
C759 N761 1.384 1_554 S
N760 C756 1.427 . S
N760 C757 1.384 . S
N761 C753 1.427 . S
N761 C759 1.384 1_556 S
H762 C768 0.930 . S
H763 C772 0.930 . S
H764 C777 0.929 . S
H765 C775 0.929 . S
H766 C770 0.929 . S
H767 C776 0.929 . S
C768 H762 0.930 . S
C768 C769 1.367 . S
C768 C776 1.378 1_554 S
C769 C768 1.367 . S
C769 C777 1.433 . S
C770 H766 0.929 . S
C770 C772 1.378 . S
C770 C774 1.350 . S
C771 C774 1.463 . S
C771 C776 1.350 . S
C771 N779 1.427 . S
C772 H763 0.930 . S
C772 C770 1.378 . S
C772 C773 1.367 . S
C773 C772 1.367 . S
C773 C775 1.433 . S
C774 C770 1.350 . S
C774 C771 1.463 . S
C774 N778 1.427 . S
C775 H765 0.929 . S
C775 C773 1.433 . S
C775 N778 1.384 . S
C776 H767 0.929 . S
C776 C768 1.378 1_556 S
C776 C771 1.350 . S
C777 H764 0.929 . S
C777 C769 1.433 . S
C777 N779 1.384 1_554 S
N778 C774 1.427 . S
N778 C775 1.384 . S
N779 C771 1.427 . S
N779 C777 1.384 1_556 S
H780 C786 0.930 . S
H781 C790 0.930 . S
H782 C795 0.929 . S
H783 C793 0.929 . S
H784 C788 0.929 . S
H785 C794 0.929 . S
C786 H780 0.930 . S
C786 C787 1.367 . S
C786 C794 1.378 1_554 S
C787 C786 1.367 . S
C787 C795 1.433 . S
C788 H784 0.929 . S
C788 C790 1.378 . S
C788 C792 1.350 . S
C789 C792 1.463 . S
C789 C794 1.350 . S
C789 N797 1.427 . S
C790 H781 0.930 . S
C790 C788 1.378 . S
C790 C791 1.367 . S
C791 C790 1.367 . S
C791 C793 1.433 . S
C792 C788 1.350 . S
C792 C789 1.463 . S
C792 N796 1.427 . S
C793 H783 0.929 . S
C793 C791 1.433 . S
C793 N796 1.384 . S
C794 H785 0.929 . S
C794 C786 1.378 1_556 S
C794 C789 1.350 . S
C795 H782 0.929 . S
C795 C787 1.433 . S
C795 N797 1.384 1_554 S
N796 C792 1.427 . S
N796 C793 1.384 . S
N797 C789 1.427 . S
N797 C795 1.384 1_556 S
H798 C804 0.930 . S
H799 C808 0.930 . S
H800 C813 0.929 . S
H801 C811 0.929 . S
H802 C806 0.929 . S
H803 C812 0.929 . S
C804 H798 0.930 . S
C804 C805 1.367 . S
C804 C812 1.378 1_554 S
C805 C804 1.367 . S
C805 C813 1.433 . S
C806 H802 0.929 . S
C806 C808 1.378 . S
C806 C810 1.350 . S
C807 C810 1.463 . S
C807 C812 1.350 . S
C807 N815 1.427 . S
C808 H799 0.930 . S
C808 C806 1.378 . S
C808 C809 1.367 . S
C809 C808 1.367 . S
C809 C811 1.433 . S
C810 C806 1.350 . S
C810 C807 1.463 . S
C810 N814 1.427 . S
C811 H801 0.929 . S
C811 C809 1.433 . S
C811 N814 1.384 . S
C812 H803 0.929 . S
C812 C804 1.378 1_556 S
C812 C807 1.350 . S
C813 H800 0.929 . S
C813 C805 1.433 . S
C813 N815 1.384 1_554 S
N814 C810 1.427 . S
N814 C811 1.384 . S
N815 C807 1.427 . S
N815 C813 1.384 1_556 S
H816 C822 0.930 . S
H817 C826 0.930 . S
H818 C831 0.929 . S
H819 C829 0.929 . S
H820 C824 0.929 . S
H821 C830 0.929 . S
C822 H816 0.930 . S
C822 C823 1.367 . S
C822 C830 1.378 . S
C823 C822 1.367 . S
C823 C831 1.433 . S
C824 H820 0.929 . S
C824 C826 1.378 . S
C824 C828 1.350 . S
C825 C828 1.463 . S
C825 C830 1.350 . S
C825 N833 1.427 . S
C826 H817 0.930 . S
C826 C824 1.378 . S
C826 C827 1.367 . S
C827 C826 1.367 . S
C827 C829 1.433 . S
C828 C824 1.350 . S
C828 C825 1.463 . S
C828 N832 1.427 . S
C829 H819 0.929 . S
C829 C827 1.433 . S
C829 N832 1.384 . S
C830 H821 0.929 . S
C830 C822 1.378 . S
C830 C825 1.350 . S
C831 H818 0.929 . S
C831 C823 1.433 . S
C831 N833 1.384 . S
N832 C828 1.427 . S
N832 C829 1.384 . S
N833 C825 1.427 . S
N833 C831 1.384 . S
H834 C840 0.930 . S
H835 C844 0.930 . S
H836 C849 0.929 . S
H837 C847 0.929 . S
H838 C842 0.929 . S
H839 C848 0.929 . S
C840 H834 0.930 . S
C840 C841 1.367 . S
C840 C848 1.378 . S
C841 C840 1.367 . S
C841 C849 1.433 . S
C842 H838 0.929 . S
C842 C844 1.378 . S
C842 C846 1.350 . S
C843 C846 1.463 . S
C843 C848 1.350 . S
C843 N851 1.427 . S
C844 H835 0.930 . S
C844 C842 1.378 . S
C844 C845 1.367 . S
C845 C844 1.367 . S
C845 C847 1.433 . S
C846 C842 1.350 . S
C846 C843 1.463 . S
C846 N850 1.427 . S
C847 H837 0.929 . S
C847 C845 1.433 . S
C847 N850 1.384 . S
C848 H839 0.929 . S
C848 C840 1.378 . S
C848 C843 1.350 . S
C849 H836 0.929 . S
C849 C841 1.433 . S
C849 N851 1.384 . S
N850 C846 1.427 . S
N850 C847 1.384 . S
N851 C843 1.427 . S
N851 C849 1.384 . S
H852 C858 0.930 . S
H853 C862 0.930 . S
H854 C867 0.929 . S
H855 C865 0.929 . S
H856 C860 0.929 . S
H857 C866 0.929 . S
C858 H852 0.930 . S
C858 C859 1.367 . S
C858 C866 1.378 . S
C859 C858 1.367 . S
C859 C867 1.433 . S
C860 H856 0.929 . S
C860 C862 1.378 . S
C860 C864 1.350 . S
C861 C864 1.463 . S
C861 C866 1.350 . S
C861 N869 1.427 . S
C862 H853 0.930 . S
C862 C860 1.378 . S
C862 C863 1.367 . S
C863 C862 1.367 . S
C863 C865 1.433 . S
C864 C860 1.350 . S
C864 C861 1.463 . S
C864 N868 1.427 . S
C865 H855 0.929 . S
C865 C863 1.433 . S
C865 N868 1.384 . S
C866 H857 0.929 . S
C866 C858 1.378 . S
C866 C861 1.350 . S
C867 H854 0.929 . S
C867 C859 1.433 . S
C867 N869 1.384 . S
N868 C864 1.427 . S
N868 C865 1.384 . S
N869 C861 1.427 . S
N869 C867 1.384 . S
H870 C876 0.930 . S
H871 C880 0.930 . S
H872 C885 0.929 . S
H873 C883 0.929 . S
H874 C878 0.929 . S
H875 C884 0.929 . S
C876 H870 0.930 . S
C876 C877 1.367 . S
C876 C884 1.378 . S
C877 C876 1.367 . S
C877 C885 1.433 . S
C878 H874 0.929 . S
C878 C880 1.378 . S
C878 C882 1.350 . S
C879 C882 1.463 . S
C879 C884 1.350 . S
C879 N887 1.427 . S
C880 H871 0.930 . S
C880 C878 1.378 . S
C880 C881 1.367 . S
C881 C880 1.367 . S
C881 C883 1.433 . S
C882 C878 1.350 . S
C882 C879 1.463 . S
C882 N886 1.427 . S
C883 H873 0.929 . S
C883 C881 1.433 . S
C883 N886 1.384 . S
C884 H875 0.929 . S
C884 C876 1.378 . S
C884 C879 1.350 . S
C885 H872 0.929 . S
C885 C877 1.433 . S
C885 N887 1.384 . S
N886 C882 1.427 . S
N886 C883 1.384 . S
N887 C879 1.427 . S
N887 C885 1.384 . S
H888 C894 0.930 . S
H889 C898 0.930 . S
H890 C903 0.929 . S
H891 C901 0.929 . S
H892 C896 0.929 . S
H893 C902 0.929 . S
C894 H888 0.930 . S
C894 C895 1.367 . S
C894 C902 1.378 . S
C895 C894 1.367 . S
C895 C903 1.433 . S
C896 H892 0.929 . S
C896 C898 1.378 . S
C896 C900 1.350 . S
C897 C900 1.463 . S
C897 C902 1.350 . S
C897 N905 1.427 . S
C898 H889 0.930 . S
C898 C896 1.378 . S
C898 C899 1.367 . S
C899 C898 1.367 . S
C899 C901 1.433 . S
C900 C896 1.350 . S
C900 C897 1.463 . S
C900 N904 1.427 . S
C901 H891 0.929 . S
C901 C899 1.433 . S
C901 N904 1.384 . S
C902 H893 0.929 . S
C902 C894 1.378 . S
C902 C897 1.350 . S
C903 H890 0.929 . S
C903 C895 1.433 . S
C903 N905 1.384 . S
N904 C900 1.427 . S
N904 C901 1.384 . S
N905 C897 1.427 . S
N905 C903 1.384 . S
H906 C912 0.930 . S
H907 C916 0.930 . S
H908 C921 0.929 . S
H909 C919 0.929 . S
H910 C914 0.929 . S
H911 C920 0.929 . S
C912 H906 0.930 . S
C912 C913 1.367 . S
C912 C920 1.378 . S
C913 C912 1.367 . S
C913 C921 1.433 . S
C914 H910 0.929 . S
C914 C916 1.378 . S
C914 C918 1.350 . S
C915 C918 1.463 . S
C915 C920 1.350 . S
C915 N923 1.427 . S
C916 H907 0.930 . S
C916 C914 1.378 . S
C916 C917 1.367 . S
C917 C916 1.367 . S
C917 C919 1.433 . S
C918 C914 1.350 . S
C918 C915 1.463 . S
C918 N922 1.427 . S
C919 H909 0.929 . S
C919 C917 1.433 . S
C919 N922 1.384 . S
C920 H911 0.929 . S
C920 C912 1.378 . S
C920 C915 1.350 . S
C921 H908 0.929 . S
C921 C913 1.433 . S
C921 N923 1.384 . S
N922 C918 1.427 . S
N922 C919 1.384 . S
N923 C915 1.427 . S
N923 C921 1.384 . S
H924 C930 0.930 . S
H925 C934 0.930 . S
H926 C939 0.929 . S
H927 C937 0.929 . S
H928 C932 0.929 . S
H929 C938 0.929 . S
C930 H924 0.930 . S
C930 C931 1.367 . S
C930 C938 1.378 . S
C931 C930 1.367 . S
C931 C939 1.433 . S
C932 H928 0.929 . S
C932 C934 1.378 . S
C932 C936 1.350 . S
C933 C936 1.463 . S
C933 C938 1.350 . S
C933 N941 1.427 . S
C934 H925 0.930 . S
C934 C932 1.378 . S
C934 C935 1.367 . S
C935 C934 1.367 . S
C935 C937 1.433 . S
C936 C932 1.350 . S
C936 C933 1.463 . S
C936 N940 1.427 . S
C937 H927 0.929 . S
C937 C935 1.433 . S
C937 N940 1.384 . S
C938 H929 0.929 . S
C938 C930 1.378 . S
C938 C933 1.350 . S
C939 H926 0.929 . S
C939 C931 1.433 . S
C939 N941 1.384 . S
N940 C936 1.427 . S
N940 C937 1.384 . S
N941 C933 1.427 . S
N941 C939 1.384 . S
H942 C948 0.930 . S
H943 C952 0.930 . S
H944 C957 0.929 . S
H945 C955 0.929 . S
H946 C950 0.929 . S
H947 C956 0.929 . S
C948 H942 0.930 . S
C948 C949 1.367 . S
C948 C956 1.378 . S
C949 C948 1.367 . S
C949 C957 1.433 . S
C950 H946 0.929 . S
C950 C952 1.378 . S
C950 C954 1.350 . S
C951 C954 1.463 . S
C951 C956 1.350 . S
C951 N959 1.427 . S
C952 H943 0.930 . S
C952 C950 1.378 . S
C952 C953 1.367 . S
C953 C952 1.367 . S
C953 C955 1.433 . S
C954 C950 1.350 . S
C954 C951 1.463 . S
C954 N958 1.427 . S
C955 H945 0.929 . S
C955 C953 1.433 . S
C955 N958 1.384 . S
C956 H947 0.929 . S
C956 C948 1.378 . S
C956 C951 1.350 . S
C957 H944 0.929 . S
C957 C949 1.433 . S
C957 N959 1.384 . S
N958 C954 1.427 . S
N958 C955 1.384 . S
N959 C951 1.427 . S
N959 C957 1.384 . S
H960 C966 0.930 . S
H961 C970 0.930 . S
H962 C975 0.929 . S
H963 C973 0.929 . S
H964 C968 0.929 . S
H965 C974 0.929 . S
C966 H960 0.930 . S
C966 C967 1.367 1_556 S
C966 C974 1.378 . S
C967 C966 1.367 1_554 S
C967 C975 1.433 . S
C968 H964 0.929 . S
C968 C970 1.378 . S
C968 C972 1.350 1_554 S
C969 C972 1.463 1_544 S
C969 C974 1.350 1_554 S
C969 N977 1.427 . S
C970 H961 0.930 . S
C970 C968 1.378 . S
C970 C971 1.367 1_554 S
C971 C970 1.367 1_556 S
C971 C973 1.433 . S
C972 C968 1.350 1_556 S
C972 C969 1.463 1_566 S
C972 N976 1.427 . S
C973 H963 0.929 . S
C973 C971 1.433 . S
C973 N976 1.384 . S
C974 H965 0.929 . S
C974 C966 1.378 . S
C974 C969 1.350 1_556 S
C975 H962 0.929 . S
C975 C967 1.433 . S
C975 N977 1.384 . S
N976 C972 1.427 . S
N976 C973 1.384 . S
N977 C969 1.427 . S
N977 C975 1.384 . S
H978 C984 0.930 . S
H979 C988 0.930 . S
H980 C993 0.929 . S
H981 C991 0.929 . S
H982 C986 0.929 . S
H983 C992 0.929 . S
C984 H978 0.930 . S
C984 C985 1.367 . S
C984 C992 1.378 . S
C985 C984 1.367 . S
C985 C993 1.433 . S
C986 H982 0.929 . S
C986 C988 1.378 . S
C986 C990 1.350 . S
C987 C990 1.463 1_456 S
C987 C992 1.350 . S
C987 N995 1.427 . S
C988 H979 0.930 . S
C988 C986 1.378 . S
C988 C989 1.367 . S
C989 C988 1.367 . S
C989 C991 1.433 . S
C990 C986 1.350 . S
C990 C987 1.463 1_654 S
C990 N994 1.427 . S
C991 H981 0.929 . S
C991 C989 1.433 . S
C991 N994 1.384 . S
C992 H983 0.929 . S
C992 C984 1.378 . S
C992 C987 1.350 . S
C993 H980 0.929 . S
C993 C985 1.433 . S
C993 N995 1.384 . S
N994 C990 1.427 . S
N994 C991 1.384 . S
N995 C987 1.427 . S
N995 C993 1.384 . S
H996 C1002 0.930 . S
H997 C1006 0.930 . S
H998 C1011 0.929 . S
H999 C1009 0.929 . S
H1000 C1004 0.929 . S
H1001 C1010 0.929 . S
C1002 H996 0.930 . S
C1002 C1003 1.367 . S
C1002 C1010 1.378 . S
C1003 C1002 1.367 . S
C1003 C1011 1.433 . S
C1004 H1000 0.929 . S
C1004 C1006 1.378 . S
C1004 C1008 1.350 . S
C1005 C1008 1.463 1_564 S
C1005 C1010 1.350 . S
C1005 N1013 1.427 . S
C1006 H997 0.930 . S
C1006 C1004 1.378 . S
C1006 C1007 1.367 . S
C1007 C1006 1.367 . S
C1007 C1009 1.433 . S
C1008 C1004 1.350 . S
C1008 C1005 1.463 1_546 S
C1008 N1012 1.427 . S
C1009 H999 0.929 . S
C1009 C1007 1.433 . S
C1009 N1012 1.384 . S
C1010 H1001 0.929 . S
C1010 C1002 1.378 . S
C1010 C1005 1.350 . S
C1011 H998 0.929 . S
C1011 C1003 1.433 . S
C1011 N1013 1.384 . S
N1012 C1008 1.427 . S
N1012 C1009 1.384 . S
N1013 C1005 1.427 . S
N1013 C1011 1.384 . S
H1014 C1020 0.930 . S
H1015 C1024 0.930 . S
H1016 C1029 0.929 . S
H1017 C1027 0.929 . S
H1018 C1022 0.929 . S
H1019 C1028 0.929 . S
C1020 H1014 0.930 . S
C1020 C1021 1.367 1_554 S
C1020 C1028 1.378 . S
C1021 C1020 1.367 1_556 S
C1021 C1029 1.433 . S
C1022 H1018 0.929 . S
C1022 C1024 1.378 . S
C1022 C1026 1.350 1_556 S
C1023 C1026 1.463 1_656 S
C1023 C1028 1.350 1_556 S
C1023 N1031 1.427 . S
C1024 H1015 0.930 . S
C1024 C1022 1.378 . S
C1024 C1025 1.367 1_556 S
C1025 C1024 1.367 1_554 S
C1025 C1027 1.433 . S
C1026 C1022 1.350 1_554 S
C1026 C1023 1.463 1_454 S
C1026 N1030 1.427 . S
C1027 H1017 0.929 . S
C1027 C1025 1.433 . S
C1027 N1030 1.384 . S
C1028 H1019 0.929 . S
C1028 C1020 1.378 . S
C1028 C1023 1.350 1_554 S
C1029 H1016 0.929 . S
C1029 C1021 1.433 . S
C1029 N1031 1.384 . S
N1030 C1026 1.427 . S
N1030 C1027 1.384 . S
N1031 C1023 1.427 . S
N1031 C1029 1.384 . S
H1032 C1038 0.930 . S
H1033 C1042 0.930 . S
H1034 C1047 0.929 . S
H1035 C1045 0.929 . S
H1036 C1040 0.929 . S
H1037 C1046 0.929 . S
C1038 H1032 0.930 . S
C1038 C1039 1.367 . S
C1038 C1046 1.378 . S
C1039 C1038 1.367 . S
C1039 C1047 1.433 . S
C1040 H1036 0.929 . S
C1040 C1042 1.378 . S
C1040 C1044 1.350 . S
C1041 C1044 1.463 . S
C1041 C1046 1.350 . S
C1041 N1049 1.427 . S
C1042 H1033 0.930 . S
C1042 C1040 1.378 . S
C1042 C1043 1.367 . S
C1043 C1042 1.367 . S
C1043 C1045 1.433 . S
C1044 C1040 1.350 . S
C1044 C1041 1.463 . S
C1044 N1048 1.427 . S
C1045 H1035 0.929 . S
C1045 C1043 1.433 . S
C1045 N1048 1.384 . S
C1046 H1037 0.929 . S
C1046 C1038 1.378 . S
C1046 C1041 1.350 . S
C1047 H1034 0.929 . S
C1047 C1039 1.433 . S
C1047 N1049 1.384 . S
N1048 C1044 1.427 . S
N1048 C1045 1.384 . S
N1049 C1041 1.427 . S
N1049 C1047 1.384 . S
H1050 C1056 0.930 . S
H1051 C1060 0.930 . S
H1052 C1065 0.929 . S
H1053 C1063 0.929 . S
H1054 C1058 0.929 . S
H1055 C1064 0.929 . S
C1056 H1050 0.930 . S
C1056 C1057 1.367 . S
C1056 C1064 1.378 . S
C1057 C1056 1.367 . S
C1057 C1065 1.433 . S
C1058 H1054 0.929 . S
C1058 C1060 1.378 . S
C1058 C1062 1.350 . S
C1059 C1062 1.463 . S
C1059 C1064 1.350 . S
C1059 N1067 1.427 . S
C1060 H1051 0.930 . S
C1060 C1058 1.378 . S
C1060 C1061 1.367 . S
C1061 C1060 1.367 . S
C1061 C1063 1.433 . S
C1062 C1058 1.350 . S
C1062 C1059 1.463 . S
C1062 N1066 1.427 . S
C1063 H1053 0.929 . S
C1063 C1061 1.433 . S
C1063 N1066 1.384 . S
C1064 H1055 0.929 . S
C1064 C1056 1.378 . S
C1064 C1059 1.350 . S
C1065 H1052 0.929 . S
C1065 C1057 1.433 . S
C1065 N1067 1.384 . S
N1066 C1062 1.427 . S
N1066 C1063 1.384 . S
N1067 C1059 1.427 . S
N1067 C1065 1.384 . S
H1068 C1074 0.930 . S
H1069 C1078 0.930 . S
H1070 C1083 0.929 . S
H1071 C1081 0.929 . S
H1072 C1076 0.929 . S
H1073 C1082 0.929 . S
C1074 H1068 0.930 . S
C1074 C1075 1.367 . S
C1074 C1082 1.378 . S
C1075 C1074 1.367 . S
C1075 C1083 1.433 . S
C1076 H1072 0.929 . S
C1076 C1078 1.378 . S
C1076 C1080 1.350 . S
C1077 C1080 1.463 . S
C1077 C1082 1.350 . S
C1077 N1085 1.427 . S
C1078 H1069 0.930 . S
C1078 C1076 1.378 . S
C1078 C1079 1.367 . S
C1079 C1078 1.367 . S
C1079 C1081 1.433 . S
C1080 C1076 1.350 . S
C1080 C1077 1.463 . S
C1080 N1084 1.427 . S
C1081 H1071 0.929 . S
C1081 C1079 1.433 . S
C1081 N1084 1.384 . S
C1082 H1073 0.929 . S
C1082 C1074 1.378 . S
C1082 C1077 1.350 . S
C1083 H1070 0.929 . S
C1083 C1075 1.433 . S
C1083 N1085 1.384 . S
N1084 C1080 1.427 . S
N1084 C1081 1.384 . S
N1085 C1077 1.427 . S
N1085 C1083 1.384 . S
H1086 C1092 0.930 . S
H1087 C1096 0.930 . S
H1088 C1101 0.929 . S
H1089 C1099 0.929 . S
H1090 C1094 0.929 . S
H1091 C1100 0.929 . S
C1092 H1086 0.930 . S
C1092 C1093 1.367 . S
C1092 C1100 1.378 . S
C1093 C1092 1.367 . S
C1093 C1101 1.433 . S
C1094 H1090 0.929 . S
C1094 C1096 1.378 . S
C1094 C1098 1.350 . S
C1095 C1098 1.463 . S
C1095 C1100 1.350 . S
C1095 N1103 1.427 . S
C1096 H1087 0.930 . S
C1096 C1094 1.378 . S
C1096 C1097 1.367 . S
C1097 C1096 1.367 . S
C1097 C1099 1.433 . S
C1098 C1094 1.350 . S
C1098 C1095 1.463 . S
C1098 N1102 1.427 . S
C1099 H1089 0.929 . S
C1099 C1097 1.433 . S
C1099 N1102 1.384 . S
C1100 H1091 0.929 . S
C1100 C1092 1.378 . S
C1100 C1095 1.350 . S
C1101 H1088 0.929 . S
C1101 C1093 1.433 . S
C1101 N1103 1.384 . S
N1102 C1098 1.427 . S
N1102 C1099 1.384 . S
N1103 C1095 1.427 . S
N1103 C1101 1.384 . S
H1104 C1110 0.930 . S
H1105 C1114 0.930 . S
H1106 C1119 0.929 . S
H1107 C1117 0.929 . S
H1108 C1112 0.929 . S
H1109 C1118 0.929 . S
C1110 H1104 0.930 . S
C1110 C1111 1.367 1_556 S
C1110 C1118 1.378 . S
C1111 C1110 1.367 1_554 S
C1111 C1119 1.433 . S
C1112 H1108 0.929 . S
C1112 C1114 1.378 . S
C1112 C1116 1.350 1_554 S
C1113 C1116 1.463 1_554 S
C1113 C1118 1.350 1_554 S
C1113 N1121 1.427 . S
C1114 H1105 0.930 . S
C1114 C1112 1.378 . S
C1114 C1115 1.367 1_554 S
C1115 C1114 1.367 1_556 S
C1115 C1117 1.433 . S
C1116 C1112 1.350 1_556 S
C1116 C1113 1.463 1_556 S
C1116 N1120 1.427 . S
C1117 H1107 0.929 . S
C1117 C1115 1.433 . S
C1117 N1120 1.384 . S
C1118 H1109 0.929 . S
C1118 C1110 1.378 . S
C1118 C1113 1.350 1_556 S
C1119 H1106 0.929 . S
C1119 C1111 1.433 . S
C1119 N1121 1.384 . S
N1120 C1116 1.427 . S
N1120 C1117 1.384 . S
N1121 C1113 1.427 . S
N1121 C1119 1.384 . S
H1122 C1128 0.930 . S
H1123 C1132 0.930 . S
H1124 C1137 0.929 . S
H1125 C1135 0.929 . S
H1126 C1130 0.929 . S
H1127 C1136 0.929 . S
C1128 H1122 0.930 . S
C1128 C1129 1.367 . S
C1128 C1136 1.378 1_554 S
C1129 C1128 1.367 . S
C1129 C1137 1.433 . S
C1130 H1126 0.929 . S
C1130 C1132 1.378 1_554 S
C1130 C1134 1.350 1_554 S
C1131 C1134 1.463 1_554 S
C1131 C1136 1.350 1_554 S
C1131 N1139 1.427 . S
C1132 H1123 0.930 . S
C1132 C1130 1.378 1_556 S
C1132 C1133 1.367 . S
C1133 C1132 1.367 . S
C1133 C1135 1.433 . S
C1134 C1130 1.350 1_556 S
C1134 C1131 1.463 1_556 S
C1134 N1138 1.427 . S
C1135 H1125 0.929 . S
C1135 C1133 1.433 . S
C1135 N1138 1.384 . S
C1136 H1127 0.929 . S
C1136 C1128 1.378 1_556 S
C1136 C1131 1.350 1_556 S
C1137 H1124 0.929 . S
C1137 C1129 1.433 . S
C1137 N1139 1.384 . S
N1138 C1134 1.427 . S
N1138 C1135 1.384 . S
N1139 C1131 1.427 . S
N1139 C1137 1.384 . S
H1140 C1146 0.930 . S
H1141 C1150 0.930 . S
H1142 C1155 0.929 . S
H1143 C1153 0.929 . S
H1144 C1148 0.929 . S
H1145 C1154 0.929 . S
C1146 H1140 0.930 . S
C1146 C1147 1.367 . S
C1146 C1154 1.378 . S
C1147 C1146 1.367 . S
C1147 C1155 1.433 1_556 S
C1148 H1144 0.929 . S
C1148 C1150 1.378 . S
C1148 C1152 1.350 . S
C1149 C1152 1.463 1_556 S
C1149 C1154 1.350 . S
C1149 N1157 1.427 1_556 S
C1150 H1141 0.930 . S
C1150 C1148 1.378 . S
C1150 C1151 1.367 . S
C1151 C1150 1.367 . S
C1151 C1153 1.433 1_554 S
C1152 C1148 1.350 . S
C1152 C1149 1.463 1_554 S
C1152 N1156 1.427 1_554 S
C1153 H1143 0.929 . S
C1153 C1151 1.433 1_556 S
C1153 N1156 1.384 . S
C1154 H1145 0.929 . S
C1154 C1146 1.378 . S
C1154 C1149 1.350 . S
C1155 H1142 0.929 . S
C1155 C1147 1.433 1_554 S
C1155 N1157 1.384 . S
N1156 C1152 1.427 1_556 S
N1156 C1153 1.384 . S
N1157 C1149 1.427 1_554 S
N1157 C1155 1.384 . S
H1158 C1164 0.930 . S
H1159 C1168 0.930 . S
H1160 C1173 0.929 . S
H1161 C1171 0.929 . S
H1162 C1166 0.929 . S
H1163 C1172 0.929 . S
C1164 H1158 0.930 . S
C1164 C1165 1.367 1_556 S
C1164 C1172 1.378 . S
C1165 C1164 1.367 1_554 S
C1165 C1173 1.433 . S
C1166 H1162 0.929 . S
C1166 C1168 1.378 . S
C1166 C1170 1.350 1_554 S
C1167 C1170 1.463 1_554 S
C1167 C1172 1.350 1_554 S
C1167 N1175 1.427 . S
C1168 H1159 0.930 . S
C1168 C1166 1.378 . S
C1168 C1169 1.367 1_554 S
C1169 C1168 1.367 1_556 S
C1169 C1171 1.433 . S
C1170 C1166 1.350 1_556 S
C1170 C1167 1.463 1_556 S
C1170 N1174 1.427 . S
C1171 H1161 0.929 . S
C1171 C1169 1.433 . S
C1171 N1174 1.384 . S
C1172 H1163 0.929 . S
C1172 C1164 1.378 . S
C1172 C1167 1.350 1_556 S
C1173 H1160 0.929 . S
C1173 C1165 1.433 . S
C1173 N1175 1.384 . S
N1174 C1170 1.427 . S
N1174 C1171 1.384 . S
N1175 C1167 1.427 . S
N1175 C1173 1.384 . S
H1176 C1182 0.930 . S
H1177 C1186 0.930 . S
H1178 C1191 0.929 . S
H1179 C1189 0.929 . S
H1180 C1184 0.929 . S
H1181 C1190 0.929 . S
C1182 H1176 0.930 . S
C1182 C1183 1.367 . S
C1182 C1190 1.378 . S
C1183 C1182 1.367 . S
C1183 C1191 1.433 . S
C1184 H1180 0.929 . S
C1184 C1186 1.378 . S
C1184 C1188 1.350 . S
C1185 C1188 1.463 . S
C1185 C1190 1.350 . S
C1185 N1193 1.427 . S
C1186 H1177 0.930 . S
C1186 C1184 1.378 . S
C1186 C1187 1.367 . S
C1187 C1186 1.367 . S
C1187 C1189 1.433 . S
C1188 C1184 1.350 . S
C1188 C1185 1.463 . S
C1188 N1192 1.427 . S
C1189 H1179 0.929 . S
C1189 C1187 1.433 . S
C1189 N1192 1.384 . S
C1190 H1181 0.929 . S
C1190 C1182 1.378 . S
C1190 C1185 1.350 . S
C1191 H1178 0.929 . S
C1191 C1183 1.433 . S
C1191 N1193 1.384 . S
N1192 C1188 1.427 . S
N1192 C1189 1.384 . S
N1193 C1185 1.427 . S
N1193 C1191 1.384 . S
H1194 C1200 0.930 . S
H1195 C1204 0.930 . S
H1196 C1209 0.929 . S
H1197 C1207 0.929 . S
H1198 C1202 0.929 . S
H1199 C1208 0.929 . S
C1200 H1194 0.930 . S
C1200 C1201 1.367 . S
C1200 C1208 1.378 . S
C1201 C1200 1.367 . S
C1201 C1209 1.433 . S
C1202 H1198 0.929 . S
C1202 C1204 1.378 . S
C1202 C1206 1.350 . S
C1203 C1206 1.463 . S
C1203 C1208 1.350 . S
C1203 N1211 1.427 . S
C1204 H1195 0.930 . S
C1204 C1202 1.378 . S
C1204 C1205 1.367 . S
C1205 C1204 1.367 . S
C1205 C1207 1.433 . S
C1206 C1202 1.350 . S
C1206 C1203 1.463 . S
C1206 N1210 1.427 . S
C1207 H1197 0.929 . S
C1207 C1205 1.433 . S
C1207 N1210 1.384 . S
C1208 H1199 0.929 . S
C1208 C1200 1.378 . S
C1208 C1203 1.350 . S
C1209 H1196 0.929 . S
C1209 C1201 1.433 . S
C1209 N1211 1.384 . S
N1210 C1206 1.427 . S
N1210 C1207 1.384 . S
N1211 C1203 1.427 . S
N1211 C1209 1.384 . S
H1212 C1218 0.930 . S
H1213 C1222 0.930 . S
H1214 C1227 0.929 . S
H1215 C1225 0.929 . S
H1216 C1220 0.929 . S
H1217 C1226 0.929 . S
C1218 H1212 0.930 . S
C1218 C1219 1.367 . S
C1218 C1226 1.378 . S
C1219 C1218 1.367 . S
C1219 C1227 1.433 . S
C1220 H1216 0.929 . S
C1220 C1222 1.378 . S
C1220 C1224 1.350 . S
C1221 C1224 1.463 . S
C1221 C1226 1.350 . S
C1221 N1229 1.427 . S
C1222 H1213 0.930 . S
C1222 C1220 1.378 . S
C1222 C1223 1.367 . S
C1223 C1222 1.367 . S
C1223 C1225 1.433 . S
C1224 C1220 1.350 . S
C1224 C1221 1.463 . S
C1224 N1228 1.427 . S
C1225 H1215 0.929 . S
C1225 C1223 1.433 . S
C1225 N1228 1.384 . S
C1226 H1217 0.929 . S
C1226 C1218 1.378 . S
C1226 C1221 1.350 . S
C1227 H1214 0.929 . S
C1227 C1219 1.433 . S
C1227 N1229 1.384 . S
N1228 C1224 1.427 . S
N1228 C1225 1.384 . S
N1229 C1221 1.427 . S
N1229 C1227 1.384 . S
H1230 C1236 0.930 . S
H1231 C1240 0.930 . S
H1232 C1245 0.929 . S
H1233 C1243 0.929 . S
H1234 C1238 0.929 . S
H1235 C1244 0.929 . S
C1236 H1230 0.930 . S
C1236 C1237 1.367 . S
C1236 C1244 1.378 . S
C1237 C1236 1.367 . S
C1237 C1245 1.433 . S
C1238 H1234 0.929 . S
C1238 C1240 1.378 . S
C1238 C1242 1.350 . S
C1239 C1242 1.463 . S
C1239 C1244 1.350 . S
C1239 N1247 1.427 . S
C1240 H1231 0.930 . S
C1240 C1238 1.378 . S
C1240 C1241 1.367 . S
C1241 C1240 1.367 . S
C1241 C1243 1.433 . S
C1242 C1238 1.350 . S
C1242 C1239 1.463 . S
C1242 N1246 1.427 . S
C1243 H1233 0.929 . S
C1243 C1241 1.433 . S
C1243 N1246 1.384 . S
C1244 H1235 0.929 . S
C1244 C1236 1.378 . S
C1244 C1239 1.350 . S
C1245 H1232 0.929 . S
C1245 C1237 1.433 . S
C1245 N1247 1.384 . S
N1246 C1242 1.427 . S
N1246 C1243 1.384 . S
N1247 C1239 1.427 . S
N1247 C1245 1.384 . S
C535 N5 1.360 . S
C539 N14 1.359 . S
C553 N38 1.367 . S
C557 N47 1.365 . S
C571 N80 1.361 . S
C575 N71 1.361 . S
C589 N113 1.360 . S
C593 N104 1.362 . S
C607 N137 1.367 . S
C611 N146 1.366 . S
C625 N179 1.364 . S
C629 N170 1.364 . S
C643 N212 1.365 . S
C647 N203 1.366 . S
C661 N245 1.359 . S
C665 N236 1.360 . S
C679 N269 1.367 . S
C683 N278 1.366 . S
C697 N302 1.364 . S
C701 N311 1.362 . S
C715 N335 1.362 . S
C719 N344 1.360 . S
C733 N368 1.364 . S
C737 N377 1.364 . S
C751 N410 1.364 . S
C755 N401 1.366 . S
C769 N443 1.366 . S
C773 N434 1.367 . S
C787 N476 1.359 . S
C791 N467 1.361 . S
C805 N509 1.366 . S
C809 N500 1.367 . S
C823 C8 1.353 . S
C827 C503 1.347 . S
C841 C404 1.356 . S
C845 C41 1.352 . S
C859 C437 1.355 . S
C863 C74 1.353 . S
C877 C470 1.347 . S
C881 C107 1.357 . S
C895 C305 1.355 . S
C899 C140 1.354 . S
C913 C173 1.346 . S
C917 C338 1.354 . S
C931 C206 1.346 . S
C935 C371 1.353 . S
C949 C272 1.352 . S
C953 C239 1.347 . S
C967 C28 1.083 . S
C971 C160 1.084 . S
C985 C193 1.082 . S
C989 C61 1.084 . S
C1003 C94 1.084 . S
C1007 C226 1.082 . S
C1021 C259 1.083 . S
C1025 C127 1.084 . S
C1039 C424 1.083 . S
C1043 C292 1.084 . S
C1057 C325 1.084 . S
C1061 C457 1.082 . S
C1075 C358 1.082 . S
C1079 C490 1.084 . S
C1093 C391 1.082 . S
C1097 C523 1.084 . S
C1111 C17 1.524 . S
C1115 C182 1.529 . S
C1129 C50 1.525 . S
C1133 C215 1.530 . S
C1147 C248 1.531 . S
C1151 C83 1.532 . S
C1165 C116 1.526 . S
C1169 C149 1.525 . S
C1183 C446 1.526 . S
C1187 C281 1.525 . S
C1201 C314 1.525 . S
C1205 C479 1.526 . S
C1219 C512 1.526 . S
C1223 C347 1.525 . S
C1237 C413 1.531 . S
C1241 C380 1.525 . S
