# Generated by pormake.
# Topology upa, (4)-cn, num edge types: 1
# Building blocks:
#     Node 0, Type 0, BuildingBlock: NAHDIM_clean_sbu_0, # of connection points: 4
#     Node 1, Type 0, BuildingBlock: NAHDIM_clean_sbu_0, # of connection points: 4
#     Node 2, Type 0, BuildingBlock: NAHDIM_clean_sbu_0, # of connection points: 4
#     Node 3, Type 0, BuildingBlock: NAHDIM_clean_sbu_0, # of connection points: 4
#     Node 4, Type 0, BuildingBlock: NAHDIM_clean_sbu_0, # of connection points: 4
#     Node 5, Type 0, BuildingBlock: NAHDIM_clean_sbu_0, # of connection points: 4
#     Node 6, Type 0, BuildingBlock: NAHDIM_clean_sbu_0, # of connection points: 4
#     Node 7, Type 0, BuildingBlock: NAHDIM_clean_sbu_0, # of connection points: 4
#     Edge 8, Type (0, 0), BuildingBlock: FUNLAD_clean_linker_0, # of connection points: 2
#     Edge 9, Type (0, 0), BuildingBlock: FUNLAD_clean_linker_0, # of connection points: 2
#     Edge 10, Type (0, 0), BuildingBlock: FUNLAD_clean_linker_0, # of connection points: 2
#     Edge 11, Type (0, 0), BuildingBlock: FUNLAD_clean_linker_0, # of connection points: 2
#     Edge 12, Type (0, 0), BuildingBlock: FUNLAD_clean_linker_0, # of connection points: 2
#     Edge 13, Type (0, 0), BuildingBlock: FUNLAD_clean_linker_0, # of connection points: 2
#     Edge 14, Type (0, 0), BuildingBlock: FUNLAD_clean_linker_0, # of connection points: 2
#     Edge 15, Type (0, 0), BuildingBlock: FUNLAD_clean_linker_0, # of connection points: 2
#     Edge 16, Type (0, 0), BuildingBlock: FUNLAD_clean_linker_0, # of connection points: 2
#     Edge 17, Type (0, 0), BuildingBlock: FUNLAD_clean_linker_0, # of connection points: 2
#     Edge 18, Type (0, 0), BuildingBlock: FUNLAD_clean_linker_0, # of connection points: 2
#     Edge 19, Type (0, 0), BuildingBlock: FUNLAD_clean_linker_0, # of connection points: 2
#     Edge 20, Type (0, 0), BuildingBlock: FUNLAD_clean_linker_0, # of connection points: 2
#     Edge 21, Type (0, 0), BuildingBlock: FUNLAD_clean_linker_0, # of connection points: 2
#     Edge 22, Type (0, 0), BuildingBlock: FUNLAD_clean_linker_0, # of connection points: 2
#     Edge 23, Type (0, 0), BuildingBlock: FUNLAD_clean_linker_0, # of connection points: 2
# Relax obj value: 0.272
# Max RMSD: 0.206
# Mean RMSD: 0.206
data_MOF--net-upa--node1-NAHDIM_clean_sbu_0--edge1-FUNLAD_clean_linker_0
_symmetry_space_group_name_H-M    P1
_symmetry_Int_Tables_number       1
_symmetry_cell_setting            triclinic
loop_
_symmetry_equiv_pos_as_xyz
'x, y, z'
_cell_length_a     30.886652
_cell_length_b     30.863308
_cell_length_c     48.418148
_cell_angle_alpha  89.971416
_cell_angle_beta   90.051571
_cell_angle_gamma 90.043014
loop_
_atom_site_label
_atom_site_type_symbol
_atom_site_fract_x
_atom_site_fract_y
_atom_site_fract_z
_atom_type_partial_charge
C0 C 0.27719 0.19278 0.304 0.0
O1 O 0.26902 0.16933 0.32604 0.0
O2 O 0.15068 0.26272 0.29166 0.0
Zn3 Zn 0.18859 0.21961 0.31151 0.0
O4 O 0.19108 0.23057 0.35261 0.0
C5 C 0.15388 0.13267 0.32263 0.0
O6 O 0.17278 0.13617 0.34683 0.0
O7 O 0.24783 0.21747 0.29446 0.0
C8 C 0.15593 0.22904 0.36624 0.0
O9 O 0.11941 0.22252 0.3529 0.0
C10 C 0.13108 0.29527 0.30176 0.0
O11 O 0.13878 0.30686 0.32739 0.0
O12 O 0.1584 0.16272 0.30492 0.0
C13 C 0.31933 0.77512 0.79068 0.0
O14 O 0.3587 0.7594 0.79281 0.0
O15 O 0.25049 0.65212 0.8079 0.0
Zn16 Zn 0.29705 0.6952 0.81835 0.0
O17 O 0.30059 0.70377 0.85978 0.0
C18 C 0.35455 0.6477 0.78273 0.0
O19 O 0.32094 0.64833 0.76608 0.0
O20 O 0.28763 0.75304 0.79982 0.0
C21 C 0.32677 0.68092 0.87392 0.0
O22 O 0.35011 0.65132 0.86138 0.0
C23 C 0.24018 0.62112 0.82393 0.0
O24 O 0.25623 0.62023 0.84904 0.0
O25 O 0.35257 0.66793 0.80554 0.0
C26 C 0.71794 0.77421 0.30685 0.0
O27 O 0.73507 0.73728 0.3148 0.0
O28 O 0.83937 0.76868 0.29963 0.0
Zn29 Zn 0.80053 0.80381 0.32447 0.0
O30 O 0.79864 0.77942 0.36303 0.0
C31 C 0.84729 0.87819 0.30592 0.0
O32 O 0.84265 0.85865 0.28199 0.0
O33 O 0.74039 0.80857 0.30878 0.0
C34 C 0.83282 0.7821 0.37758 0.0
O35 O 0.86795 0.79863 0.36646 0.0
C36 C 0.85971 0.73441 0.3062 0.0
O37 O 0.85247 0.71634 0.33032 0.0
O38 O 0.82907 0.86214 0.3271 0.0
C39 C 0.70083 0.24851 0.77241 0.0
O40 O 0.70725 0.28395 0.75794 0.0
O41 O 0.74231 0.34854 0.80299 0.0
Zn42 Zn 0.69521 0.30931 0.81746 0.0
O43 O 0.69932 0.30093 0.85869 0.0
C44 C 0.63564 0.36553 0.78897 0.0
O45 O 0.66775 0.36822 0.77129 0.0
O46 O 0.69538 0.25146 0.79835 0.0
C47 C 0.68531 0.33109 0.87415 0.0
O48 O 0.6708 0.36688 0.86272 0.0
C49 C 0.76761 0.37144 0.81769 0.0
O50 O 0.76777 0.36624 0.84461 0.0
O51 O 0.63917 0.34042 0.80969 0.0
C52 C 0.7763 0.27367 0.195 0.0
O53 O 0.76614 0.23816 0.1815 0.0
O54 O 0.65518 0.24663 0.20551 0.0
Zn55 Zn 0.68809 0.29091 0.18309 0.0
O56 O 0.69396 0.27438 0.14291 0.0
C57 C 0.63216 0.35567 0.2064 0.0
O58 O 0.63895 0.33347 0.22915 0.0
O59 O 0.74721 0.30204 0.199 0.0
C60 C 0.66271 0.28245 0.12659 0.0
O61 O 0.62671 0.29859 0.13672 0.0
C62 C 0.62986 0.21879 0.19485 0.0
O63 O 0.6291 0.21424 0.16789 0.0
O64 O 0.65196 0.34493 0.18447 0.0
C65 C 0.16795 0.2712 0.71334 0.0
O66 O 0.13244 0.24901 0.71815 0.0
O67 O 0.23719 0.15532 0.69268 0.0
Zn68 Zn 0.19242 0.19743 0.67838 0.0
O69 O 0.19948 0.20763 0.63734 0.0
C70 C 0.13033 0.14385 0.70605 0.0
O71 O 0.16154 0.14203 0.72447 0.0
O72 O 0.19703 0.2551 0.69785 0.0
C73 C 0.17739 0.18591 0.62002 0.0
O74 O 0.1508 0.15588 0.62908 0.0
C75 C 0.25215 0.12511 0.67761 0.0
O76 O 0.24244 0.12446 0.65121 0.0
O77 O 0.13486 0.16833 0.68512 0.0
C78 C 0.21344 0.72616 0.19104 0.0
O79 O 0.22544 0.75509 0.17265 0.0
O80 O 0.34085 0.73712 0.20515 0.0
Zn81 Zn 0.30102 0.69813 0.18343 0.0
O82 O 0.2992 0.7138 0.14296 0.0
C83 C 0.33034 0.61043 0.16894 0.0
O84 O 0.3117 0.61725 0.14494 0.0
O85 O 0.24079 0.69824 0.19926 0.0
C86 C 0.33304 0.71239 0.12807 0.0
O87 O 0.37019 0.70204 0.13956 0.0
C88 C 0.36138 0.77006 0.19635 0.0
O89 O 0.35376 0.78453 0.1713 0.0
O90 O 0.32764 0.63905 0.18771 0.0
C91 C 0.82065 0.72804 0.71233 0.0
O92 O 0.85925 0.74477 0.70831 0.0
O93 O 0.74712 0.84814 0.69623 0.0
Zn94 Zn 0.7914 0.805 0.68321 0.0
O95 O 0.78328 0.79377 0.64263 0.0
C96 C 0.855 0.85298 0.71233 0.0
O97 O 0.82628 0.84778 0.73207 0.0
O98 O 0.78742 0.74858 0.70401 0.0
C99 C 0.80786 0.76754 0.6299 0.0
O100 O 0.83836 0.74721 0.64369 0.0
C101 C 0.74323 0.88174 0.68124 0.0
O102 O 0.7642 0.88337 0.65766 0.0
O103 O 0.84851 0.83488 0.68911 0.0
C104 C 0.10489 0.07361 0.33933 0.0
C105 C 0.1223 0.09766 0.31733 0.0
C106 C 0.07111 0.04432 0.33471 0.0
C107 C 0.05433 0.03836 0.30795 0.0
C108 C 0.07328 0.06068 0.28581 0.0
C109 C 0.10663 0.09038 0.29046 0.0
C110 C 0.01733 0.00898 0.30243 0.0
C111 C 0.98473 0.00325 0.32055 0.0
C112 C 0.94733 0.97381 0.31572 0.0
C113 C 0.92328 0.95961 0.3386 0.0
C114 C 0.88952 0.92991 0.33533 0.0
C115 C 0.87891 0.91389 0.30901 0.0
H116 H 0.95154 0.97089 0.27085 0.0
C117 C 0.90146 0.92974 0.28593 0.0
C118 C 0.93519 0.95951 0.2892 0.0
H119 H 0.89375 0.91843 0.26533 0.0
H120 H 0.11637 0.07838 0.36025 0.0
H121 H 0.0582 0.02649 0.35212 0.0
H122 H 0.06133 0.05616 0.26496 0.0
H123 H 0.1196 0.10822 0.27306 0.0
H124 H 0.01674 0.99293 0.28252 0.0
H125 H 0.98581 0.02012 0.34024 0.0
H126 H 0.93144 0.97054 0.35922 0.0
H127 H 0.87268 0.91851 0.35355 0.0
C128 C 0.42353 0.61211 0.79734 0.0
C129 C 0.39149 0.61855 0.77712 0.0
C130 C 0.45537 0.58059 0.79373 0.0
C131 C 0.45587 0.55482 0.76979 0.0
C132 C 0.42549 0.56293 0.74887 0.0
C133 C 0.39332 0.59429 0.75258 0.0
C134 C 0.48759 0.51917 0.7664 0.0
C135 C 0.50102 0.49515 0.78801 0.0
C136 C 0.5332 0.45958 0.78605 0.0
C137 C 0.53511 0.42902 0.8075 0.0
C138 C 0.56726 0.39726 0.80786 0.0
C139 C 0.59854 0.39562 0.78685 0.0
H140 H 0.56402 0.48062 0.74794 0.0
C141 C 0.59598 0.42542 0.76494 0.0
C142 C 0.56371 0.45715 0.76454 0.0
H143 H 0.61972 0.42517 0.74849 0.0
H144 H 0.42335 0.63053 0.81638 0.0
H145 H 0.47934 0.57624 0.80982 0.0
H146 H 0.42566 0.54392 0.73007 0.0
H147 H 0.36928 0.59868 0.73652 0.0
H148 H 0.49783 0.5111 0.74559 0.0
H149 H 0.48694 0.50107 0.80823 0.0
H150 H 0.51211 0.43022 0.82438 0.0
H151 H 0.56835 0.37488 0.82509 0.0
C152 C 0.58338 0.40524 0.17985 0.0
C153 C 0.59787 0.38905 0.20538 0.0
C154 C 0.54843 0.43385 0.17862 0.0
C155 C 0.52729 0.44696 0.20292 0.0
C156 C 0.54281 0.43212 0.22848 0.0
C157 C 0.5775 0.40312 0.22971 0.0
C158 C 0.4899 0.47709 0.20233 0.0
C159 C 0.46109 0.47805 0.18138 0.0
C160 C 0.42463 0.50943 0.17949 0.0
C161 C 0.405 0.51629 0.15366 0.0
C162 C 0.3729 0.54779 0.15038 0.0
C163 C 0.35971 0.57311 0.17294 0.0
H164 H 0.42224 0.52781 0.22292 0.0
C165 C 0.37764 0.56472 0.19909 0.0
C166 C 0.40954 0.5331 0.20239 0.0
H167 H 0.36768 0.58324 0.21699 0.0
H168 H 0.59849 0.3952 0.16072 0.0
H169 H 0.53833 0.44586 0.15862 0.0
H170 H 0.52745 0.44226 0.24752 0.0
H171 H 0.58802 0.39138 0.24971 0.0
H172 H 0.48629 0.49849 0.21991 0.0
H173 H 0.46511 0.45574 0.16422 0.0
H174 H 0.41549 0.49816 0.13571 0.0
H175 H 0.35963 0.55334 0.12997 0.0
C176 C 0.09209 0.08158 0.72847 0.0
C177 C 0.09361 0.11311 0.70754 0.0
C178 C 0.06047 0.04918 0.72811 0.0
C179 C 0.0293 0.04785 0.70688 0.0
C180 C 0.03016 0.08013 0.68642 0.0
C181 C 0.06186 0.11245 0.68675 0.0
C182 C 0.99718 0.01212 0.70428 0.0
C183 C 0.98613 0.98526 0.72508 0.0
C184 C 0.95432 0.94954 0.72162 0.0
C185 C 0.92959 0.93637 0.74443 0.0
C186 C 0.89814 0.90409 0.74162 0.0
C187 C 0.8912 0.88387 0.71598 0.0
H188 H 0.9682 0.93625 0.67844 0.0
C189 C 0.91734 0.89565 0.69345 0.0
C190 C 0.9486 0.92812 0.69622 0.0
H191 H 0.91306 0.88047 0.67346 0.0
H192 H 0.11628 0.08094 0.74468 0.0
H193 H 0.06181 0.02452 0.74394 0.0
H194 H 0.00669 0.0799 0.66977 0.0
H195 H 0.06216 0.13619 0.67026 0.0
H196 H 0.98116 0.00863 0.68442 0.0
H197 H -0.00133 0.99078 0.74571 0.0
H198 H 0.93381 0.9519 0.76432 0.0
H199 H 0.87872 0.8956 0.75944 0.0
C200 C 0.19555 0.2295 0.41151 0.0
C201 C 0.15631 0.23005 0.39679 0.0
C202 C 0.19565 0.22635 0.44034 0.0
C203 C 0.15638 0.22408 0.45506 0.0
C204 C 0.11728 0.2258 0.44029 0.0
C205 C 0.1172 0.22882 0.41153 0.0
C206 C 0.15442 0.2168 0.48542 0.0
C207 C 0.18785 0.22294 0.5029 0.0
C208 C 0.18492 0.21288 0.53288 0.0
C209 C 0.21124 0.23554 0.55161 0.0
C210 C 0.20904 0.22678 0.57993 0.0
C211 C 0.18077 0.19476 0.59005 0.0
H212 H 0.13777 0.16081 0.52914 0.0
C213 C 0.15522 0.17138 0.57122 0.0
C214 C 0.15735 0.18018 0.54297 0.0
H215 H 0.13345 0.14617 0.57826 0.0
H216 H 0.22626 0.23013 0.40073 0.0
H217 H 0.22656 0.22417 0.45073 0.0
H218 H 0.08654 0.22399 0.45101 0.0
H219 H 0.08638 0.22925 0.40084 0.0
H220 H 0.12345 0.2064 0.49373 0.0
H221 H 0.21781 0.23713 0.49549 0.0
H222 H 0.23318 0.26047 0.54435 0.0
H223 H 0.22937 0.24522 0.59388 0.0
C224 C 0.30757 0.71964 0.91788 0.0
C225 C 0.33113 0.68726 0.9041 0.0
C226 C 0.31216 0.72546 0.94641 0.0
C227 C 0.34025 0.69872 0.96176 0.0
C228 C 0.36406 0.66678 0.94783 0.0
C229 C 0.35952 0.66102 0.9194 0.0
C230 C 0.34635 0.70304 0.99213 0.0
C231 C 0.31813 0.72298 0.00912 0.0
C232 C 0.32333 0.72332 0.03968 0.0
C233 C 0.28631 0.72708 0.05629 0.0
C234 C 0.28951 0.72465 0.08505 0.0
C235 C 0.32996 0.71866 0.09783 0.0
H236 H 0.39359 0.71818 0.04058 0.0
C237 C 0.36726 0.71686 0.08129 0.0
C238 C 0.36406 0.7194 0.05254 0.0
H239 H 0.39898 0.71293 0.09051 0.0
H240 H 0.28574 0.74069 0.90662 0.0
H241 H 0.29409 0.75129 0.9561 0.0
H242 H 0.38615 0.64588 0.95902 0.0
H243 H 0.37833 0.63588 0.90945 0.0
H244 H 0.37404 0.68637 0.00096 0.0
H245 H 0.28841 0.73645 0.00083 0.0
H246 H 0.2546 0.73069 0.04698 0.0
H247 H 0.26014 0.72647 0.0972 0.0
C248 C 0.83207 0.73446 0.58526 0.0
C249 C 0.80361 0.76179 0.59968 0.0
C250 C 0.82965 0.731 0.55651 0.0
C251 C 0.7988 0.75506 0.54156 0.0
C252 C 0.76929 0.78098 0.55611 0.0
C253 C 0.77175 0.7845 0.58483 0.0
C254 C 0.7968 0.75467 0.51089 0.0
C255 C 0.83152 0.74673 0.49484 0.0
C256 C 0.83116 0.75242 0.46437 0.0
C257 C 0.87009 0.76298 0.45103 0.0
C258 C 0.87077 0.77165 0.42273 0.0
C259 C 0.83252 0.76948 0.40706 0.0
H260 H 0.7628 0.73893 0.45784 0.0
C261 C 0.79386 0.75696 0.42012 0.0
C262 C 0.79315 0.74845 0.44849 0.0
H263 H 0.76393 0.75452 0.40855 0.0
H264 H 0.85663 0.71607 0.59611 0.0
H265 H 0.85199 0.70947 0.54616 0.0
H266 H 0.74492 0.79952 0.54517 0.0
H267 H 0.74908 0.80558 0.59532 0.0
H268 H 0.76679 0.76543 0.50142 0.0
H269 H 0.86259 0.74002 0.50442 0.0
H270 H 0.89992 0.76578 0.46269 0.0
H271 H 0.90119 0.78082 0.41328 0.0
C272 C 0.69636 0.28648 0.91699 0.0
C273 C 0.6833 0.32547 0.90447 0.0
C274 C 0.69211 0.28064 0.94553 0.0
C275 C 0.67487 0.31387 0.96212 0.0
C276 C 0.66229 0.35287 0.94956 0.0
C277 C 0.66658 0.35871 0.92113 0.0
C278 C 0.66742 0.30878 0.99226 0.0
C279 C 0.68757 0.27939 0.00835 0.0
C280 C 0.67966 0.27685 0.03857 0.0
C281 C 0.71337 0.26412 0.05624 0.0
C282 C 0.70765 0.26463 0.08491 0.0
C283 C 0.66786 0.27748 0.09638 0.0
H284 H 0.61193 0.29577 0.03701 0.0
C285 C 0.63345 0.28794 0.07861 0.0
C286 C 0.63921 0.2875 0.05003 0.0
H287 H 0.60218 0.29734 0.08673 0.0
H288 H 0.70914 0.26013 0.90468 0.0
H289 H 0.70126 0.2497 0.95424 0.0
H290 H 0.64875 0.37896 0.96179 0.0
H291 H 0.65615 0.38914 0.91219 0.0
H292 H 0.64555 0.33189 0.00182 0.0
H293 H 0.71262 0.25879 -0.00024 0.0
H294 H 0.74465 0.25515 0.04791 0.0
H295 H 0.73471 0.25604 0.09805 0.0
C296 C 0.56054 0.17735 0.19937 0.0
C297 C 0.59524 0.19926 0.21196 0.0
C298 C 0.52365 0.16661 0.21459 0.0
C299 C 0.52078 0.17753 0.24273 0.0
C300 C 0.5569 0.19592 0.25583 0.0
C301 C 0.59371 0.20697 0.24058 0.0
C302 C 0.47974 0.17286 0.2584 0.0
C303 C 0.44094 0.17979 0.24644 0.0
C304 C 0.39951 0.18226 0.26191 0.0
C305 C 0.36548 0.20654 0.25052 0.0
C306 C 0.32603 0.21032 0.26434 0.0
C307 C 0.31945 0.18938 0.28976 0.0
H308 H 0.41804 0.14114 0.2964 0.0
C309 C 0.35328 0.16456 0.30106 0.0
C310 C 0.39297 0.16102 0.2873 0.0
H311 H 0.34912 0.14774 0.32052 0.0
H312 H 0.56087 0.1704 0.17744 0.0
H313 H 0.49692 0.15095 0.20409 0.0
H314 H 0.55573 0.20405 0.27759 0.0
H315 H 0.62007 0.22341 0.25099 0.0
H316 H 0.48194 0.16895 0.28064 0.0
H317 H 0.43973 0.18799 0.22462 0.0
H318 H 0.36955 0.22305 0.23094 0.0
H319 H 0.30059 0.22947 0.25494 0.0
C320 C 0.3465 0.8415 0.76632 0.0
C321 C 0.31219 0.8187 0.7787 0.0
C322 C 0.34001 0.88309 0.75558 0.0
C323 C 0.29899 0.90275 0.75705 0.0
C324 C 0.26486 0.88006 0.7696 0.0
C325 C 0.27125 0.83839 0.78013 0.0
C326 C 0.29079 0.94722 0.74652 0.0
C327 C 0.31333 0.96548 0.72572 0.0
C328 C 0.30183 0.00857 0.71422 0.0
C329 C 0.30658 0.016 0.68579 0.0
C330 C 0.2921 0.05473 0.67397 0.0
C331 C 0.27334 0.08712 0.69048 0.0
H332 H 0.28241 0.03769 0.75309 0.0
C333 C 0.27121 0.08077 0.7192 0.0
C334 C 0.28521 0.04185 0.73095 0.0
H335 H 0.25716 0.10515 0.73254 0.0
H336 H 0.37852 0.82736 0.76503 0.0
H337 H 0.36739 0.89997 0.7467 0.0
H338 H 0.23301 0.89455 0.77117 0.0
H339 H 0.24417 0.82185 0.78966 0.0
H340 H 0.26311 0.96435 0.75502 0.0
H341 H 0.33817 0.94696 0.71515 0.0
H342 H 0.31984 0.99107 0.67251 0.0
H343 H 0.29447 0.05875 0.65179 0.0
C344 C 0.65389 0.81509 0.28824 0.0
C345 C 0.67298 0.77566 0.29623 0.0
C346 C 0.61122 0.81622 0.27848 0.0
C347 C 0.58683 0.77779 0.27638 0.0
C348 C 0.60593 0.73856 0.28459 0.0
C349 C 0.64848 0.73743 0.2943 0.0
C350 C 0.54133 0.77683 0.26629 0.0
C351 C 0.52288 0.80811 0.25078 0.0
C352 C 0.47871 0.80323 0.23891 0.0
C353 C 0.46926 0.82213 0.21322 0.0
C354 C 0.42991 0.81351 0.19994 0.0
C355 C 0.39917 0.786 0.21225 0.0
H356 H 0.45185 0.76503 0.27251 0.0
C357 C 0.4073 0.76989 0.23892 0.0
C358 C 0.44653 0.77855 0.25216 0.0
H359 H 0.38399 0.74923 0.24922 0.0
H360 H 0.67181 0.84519 0.28968 0.0
H361 H 0.59748 0.8473 0.27307 0.0
H362 H 0.58793 0.70847 0.28335 0.0
H363 H 0.66208 0.70651 0.30035 0.0
H364 H 0.52321 0.74732 0.27034 0.0
H365 H 0.54175 0.836 0.24434 0.0
H366 H 0.4932 0.84189 0.20277 0.0
H367 H 0.42455 0.8267 0.17949 0.0
C368 C 0.69239 0.16774 0.77404 0.0
C369 C 0.70013 0.20566 0.75871 0.0
C370 C 0.6926 0.12719 0.76119 0.0
C371 C 0.70038 0.12372 0.73262 0.0
C372 C 0.70794 0.16167 0.71736 0.0
C373 C 0.70764 0.20219 0.73019 0.0
C374 C 0.70395 0.08128 0.71829 0.0
C375 C 0.68732 0.04382 0.72799 0.0
C376 C 0.6959 0.00129 0.71468 0.0
C377 C 0.697 0.96385 0.73115 0.0
C378 C 0.71013 0.92418 0.72001 0.0
C379 C 0.72217 0.92123 0.69208 0.0
H380 H 0.70239 0.0252 0.67262 0.0
C381 C 0.718 0.958 0.67517 0.0
C382 C 0.7048 0.99756 0.68629 0.0
H383 H 0.72627 0.95662 0.65345 0.0
H384 H 0.68668 0.16928 0.79609 0.0
H385 H 0.68792 0.09883 0.77395 0.0
H386 H 0.71441 0.15998 0.69539 0.0
H387 H 0.71375 0.23074 0.71776 0.0
H388 H 0.72233 0.0811 0.69919 0.0
H389 H 0.66928 0.04354 0.7472 0.0
H390 H 0.68964 0.96567 0.753 0.0
H391 H 0.71275 0.89638 0.73357 0.0
C392 C 0.08696 0.30241 0.25877 0.0
C393 C 0.09311 0.31264 0.28677 0.0
C394 C 0.04717 0.31007 0.24599 0.0
C395 C 0.01245 0.32759 0.2611 0.0
C396 C 0.01988 0.34157 0.28829 0.0
C397 C 0.05986 0.33413 0.30107 0.0
C398 C 0.96767 0.32882 0.24979 0.0
C399 C 0.95319 0.29869 0.23181 0.0
C400 C 0.90743 0.2941 0.22258 0.0
C401 C 0.89524 0.2553 0.20956 0.0
C402 C 0.85272 0.24867 0.20077 0.0
C403 C 0.82121 0.28082 0.2047 0.0
H404 H 0.88396 0.3574 0.23561 0.0
C405 C 0.83327 0.31991 0.2175 0.0
C406 C 0.87597 0.32661 0.22628 0.0
H407 H 0.80981 0.34551 0.22059 0.0
H408 H 0.11228 0.28663 0.24702 0.0
H409 H 0.04335 0.30085 0.22456 0.0
H410 H 0.99393 0.3559 0.30023 0.0
H411 H 0.06366 0.34268 0.32262 0.0
H412 H 0.94537 0.35192 0.25882 0.0
H413 H 0.97538 0.27368 0.22488 0.0
H414 H 0.91869 0.2297 0.20631 0.0
H415 H 0.84463 0.21824 0.1909 0.0
C416 C 0.14281 0.3328 0.74319 0.0
C417 C 0.17351 0.3153 0.7249 0.0
C418 C 0.14782 0.37483 0.7536 0.0
C419 C 0.18373 0.40022 0.7459 0.0
C420 C 0.2141 0.38279 0.72744 0.0
C421 C 0.20924 0.34079 0.71719 0.0
C422 C 0.1905 0.44515 0.7561 0.0
C423 C 0.17445 0.46026 0.78012 0.0
C424 C 0.18615 0.50369 0.79108 0.0
C425 C 0.19013 0.50933 0.81973 0.0
C426 C 0.20579 0.54832 0.83055 0.0
C427 C 0.21716 0.58271 0.81293 0.0
H428 H 0.19077 0.53626 0.75141 0.0
C429 C 0.21028 0.57808 0.78437 0.0
C430 C 0.19496 0.53898 0.77354 0.0
H431 H 0.21836 0.60405 0.77022 0.0
H432 H 0.11474 0.31414 0.74939 0.0
H433 H 0.12312 0.38746 0.76722 0.0
H434 H 0.24193 0.40166 0.72103 0.0
H435 H 0.23339 0.32848 0.70302 0.0
H436 H 0.21247 0.46547 0.74428 0.0
H437 H 0.15596 0.43889 0.79346 0.0
H438 H 0.18299 0.48286 0.83371 0.0
H439 H 0.21035 0.55093 0.85267 0.0
C440 C 0.1553 0.6947 0.22119 0.0
C441 C 0.16862 0.72598 0.20186 0.0
C442 C 0.11302 0.69485 0.23154 0.0
C443 C 0.08304 0.72628 0.22264 0.0
C444 C 0.09651 0.75748 0.20333 0.0
C445 C 0.13869 0.75728 0.19299 0.0
C446 C 0.03833 0.72944 0.2339 0.0
C447 C 0.01767 0.69728 0.24743 0.0
C448 C 0.97438 0.70336 0.26026 0.0
C449 C 0.96391 0.67989 0.28419 0.0
C450 C 0.92547 0.68828 0.29848 0.0
C451 C 0.89658 0.72013 0.28893 0.0
H452 H 0.94998 0.75034 0.23061 0.0
C453 C 0.90565 0.74139 0.26391 0.0
C454 C 0.94402 0.73301 0.24967 0.0
H455 H 0.88377 0.76563 0.25572 0.0
H456 H 0.17764 0.67024 0.22855 0.0
H457 H 0.1046 0.67092 0.24692 0.0
H458 H 0.0743 0.78229 0.19625 0.0
H459 H 0.14786 0.78189 0.17814 0.0
H460 H 0.02216 0.7604 0.23124 0.0
H461 H 0.03355 0.66638 0.25072 0.0
H462 H 0.98641 0.65635 0.29254 0.0
H463 H 0.91933 0.67109 0.31759 0.0
C464 C 0.78331 0.4187 0.77694 0.0
C465 C 0.78957 0.40924 0.80508 0.0
C466 C 0.79718 0.45814 0.76595 0.0
C467 C 0.81762 0.48902 0.78287 0.0
C468 C 0.82698 0.47823 0.81039 0.0
C469 C 0.81283 0.4388 0.82148 0.0
C470 C 0.82755 0.53325 0.7726 0.0
C471 C 0.80094 0.55387 0.75487 0.0
C472 C 0.80712 0.59922 0.7454 0.0
C473 C 0.77091 0.62208 0.73568 0.0
C474 C 0.77517 0.66422 0.72557 0.0
C475 C 0.81594 0.68436 0.72463 0.0
H476 H 0.87678 0.60257 0.75149 0.0
C477 C 0.85227 0.66163 0.73448 0.0
C478 C 0.84795 0.61946 0.74477 0.0
H479 H 0.88419 0.67616 0.7339 0.0
H480 H 0.76605 0.39644 0.76359 0.0
H481 H 0.79094 0.46481 0.74436 0.0
H482 H 0.8433 0.50124 0.82372 0.0
H483 H 0.81852 0.43236 0.84318 0.0
H484 H 0.85473 0.55034 0.78177 0.0
H485 H 0.77151 0.53766 0.74814 0.0
H486 H 0.73911 0.60722 0.73581 0.0
H487 H 0.74652 0.68069 0.71807 0.0
loop_
_geom_bond_atom_site_label_1
_geom_bond_atom_site_label_2
_geom_bond_distance
_geom_bond_site_symmetry_2
_ccdc_geom_bond_type
C0 O1 1.160 . S
C0 O7 1.185 . S
O1 C0 1.160 . S
O2 Zn3 1.899 . S
O2 C10 1.284 . S
Zn3 O2 1.899 . S
Zn3 O4 2.032 . S
Zn3 O7 2.086 . S
Zn3 O12 1.977 . S
O4 Zn3 2.032 . S
O4 C8 1.278 . S
C5 O6 1.203 . S
C5 O12 1.267 . S
O6 C5 1.203 . S
O7 C0 1.185 . S
O7 Zn3 2.086 . S
C8 O4 1.278 . S
C8 O9 1.211 . S
O9 C8 1.211 . S
C10 O2 1.284 . S
C10 O11 1.273 . S
O11 C10 1.273 . S
O12 Zn3 1.977 . S
O12 C5 1.267 . S
C13 O14 1.160 . S
C13 O20 1.185 . S
O14 C13 1.160 . S
O15 Zn16 1.899 . S
O15 C23 1.284 . S
Zn16 O15 1.899 . S
Zn16 O17 2.032 . S
Zn16 O20 2.086 . S
Zn16 O25 1.977 . S
O17 Zn16 2.032 . S
O17 C21 1.278 . S
C18 O19 1.203 . S
C18 O25 1.267 . S
O19 C18 1.203 . S
O20 C13 1.185 . S
O20 Zn16 2.086 . S
C21 O17 1.278 . S
C21 O22 1.211 . S
O22 C21 1.211 . S
C23 O15 1.284 . S
C23 O24 1.273 . S
O24 C23 1.273 . S
O25 Zn16 1.977 . S
O25 C18 1.267 . S
C26 O27 1.160 . S
C26 O33 1.185 . S
O27 C26 1.160 . S
O28 Zn29 1.899 . S
O28 C36 1.284 . S
Zn29 O28 1.899 . S
Zn29 O30 2.032 . S
Zn29 O33 2.086 . S
Zn29 O38 1.977 . S
O30 Zn29 2.032 . S
O30 C34 1.278 . S
C31 O32 1.203 . S
C31 O38 1.267 . S
O32 C31 1.203 . S
O33 C26 1.185 . S
O33 Zn29 2.086 . S
C34 O30 1.278 . S
C34 O35 1.211 . S
O35 C34 1.211 . S
C36 O28 1.284 . S
C36 O37 1.273 . S
O37 C36 1.273 . S
O38 Zn29 1.977 . S
O38 C31 1.267 . S
C39 O40 1.160 . S
C39 O46 1.185 . S
O40 C39 1.160 . S
O41 Zn42 1.899 . S
O41 C49 1.284 . S
Zn42 O41 1.899 . S
Zn42 O43 2.032 . S
Zn42 O46 2.086 . S
Zn42 O51 1.977 . S
O43 Zn42 2.032 . S
O43 C47 1.278 . S
C44 O45 1.203 . S
C44 O51 1.267 . S
O45 C44 1.203 . S
O46 C39 1.185 . S
O46 Zn42 2.086 . S
C47 O43 1.278 . S
C47 O48 1.211 . S
O48 C47 1.211 . S
C49 O41 1.284 . S
C49 O50 1.273 . S
O50 C49 1.273 . S
O51 Zn42 1.977 . S
O51 C44 1.267 . S
C52 O53 1.160 . S
C52 O59 1.185 . S
O53 C52 1.160 . S
O54 Zn55 1.899 . S
O54 C62 1.284 . S
Zn55 O54 1.899 . S
Zn55 O56 2.032 . S
Zn55 O59 2.086 . S
Zn55 O64 1.977 . S
O56 Zn55 2.032 . S
O56 C60 1.278 . S
C57 O58 1.203 . S
C57 O64 1.267 . S
O58 C57 1.203 . S
O59 C52 1.185 . S
O59 Zn55 2.086 . S
C60 O56 1.278 . S
C60 O61 1.211 . S
O61 C60 1.211 . S
C62 O54 1.284 . S
C62 O63 1.273 . S
O63 C62 1.273 . S
O64 Zn55 1.977 . S
O64 C57 1.267 . S
C65 O66 1.160 . S
C65 O72 1.185 . S
O66 C65 1.160 . S
O67 Zn68 1.899 . S
O67 C75 1.284 . S
Zn68 O67 1.899 . S
Zn68 O69 2.032 . S
Zn68 O72 2.086 . S
Zn68 O77 1.977 . S
O69 Zn68 2.032 . S
O69 C73 1.278 . S
C70 O71 1.203 . S
C70 O77 1.267 . S
O71 C70 1.203 . S
O72 C65 1.185 . S
O72 Zn68 2.086 . S
C73 O69 1.278 . S
C73 O74 1.211 . S
O74 C73 1.211 . S
C75 O67 1.284 . S
C75 O76 1.273 . S
O76 C75 1.273 . S
O77 Zn68 1.977 . S
O77 C70 1.267 . S
C78 O79 1.160 . S
C78 O85 1.185 . S
O79 C78 1.160 . S
O80 Zn81 1.899 . S
O80 C88 1.284 . S
Zn81 O80 1.899 . S
Zn81 O82 2.032 . S
Zn81 O85 2.086 . S
Zn81 O90 1.977 . S
O82 Zn81 2.032 . S
O82 C86 1.278 . S
C83 O84 1.203 . S
C83 O90 1.267 . S
O84 C83 1.203 . S
O85 C78 1.185 . S
O85 Zn81 2.086 . S
C86 O82 1.278 . S
C86 O87 1.211 . S
O87 C86 1.211 . S
C88 O80 1.284 . S
C88 O89 1.273 . S
O89 C88 1.273 . S
O90 Zn81 1.977 . S
O90 C83 1.267 . S
C91 O92 1.160 . S
C91 O98 1.185 . S
O92 C91 1.160 . S
O93 Zn94 1.899 . S
O93 C101 1.284 . S
Zn94 O93 1.899 . S
Zn94 O95 2.032 . S
Zn94 O98 2.086 . S
Zn94 O103 1.977 . S
O95 Zn94 2.032 . S
O95 C99 1.278 . S
C96 O97 1.203 . S
C96 O103 1.267 . S
O97 C96 1.203 . S
O98 C91 1.185 . S
O98 Zn94 2.086 . S
C99 O95 1.278 . S
C99 O100 1.211 . S
O100 C99 1.211 . S
C101 O93 1.284 . S
C101 O102 1.273 . S
O102 C101 1.273 . S
O103 Zn94 1.977 . S
O103 C96 1.267 . S
C104 C105 1.386 . S
C104 C106 1.383 . S
C104 H120 0.951 . S
C105 C104 1.386 . S
C105 C109 1.383 . S
C106 C104 1.383 . S
C106 C107 1.402 . S
C106 H121 0.951 . S
C107 C106 1.402 . S
C107 C108 1.375 . S
C107 C110 1.481 1_455 S
C108 C107 1.375 . S
C108 C109 1.367 . S
C108 H122 0.951 . S
C109 C105 1.383 . S
C109 C108 1.367 . S
C109 H123 0.950 . S
C110 C107 1.481 1_655 S
C110 C111 1.297 1_545 S
C110 H124 0.950 . S
C111 C110 1.297 1_565 S
C111 C112 1.479 . S
C111 H125 0.950 1_565 S
C112 C111 1.479 . S
C112 C113 1.375 . S
C112 C118 1.404 . S
C113 C112 1.375 . S
C113 C114 1.369 . S
C113 H126 0.950 . S
C114 C113 1.369 . S
C114 C115 1.392 . S
C114 H127 0.951 . S
C115 C114 1.392 . S
C115 C117 1.384 . S
H116 C118 0.949 . S
C117 C115 1.384 . S
C117 C118 1.385 . S
C117 H119 0.950 . S
C118 C112 1.404 . S
C118 H116 0.949 . S
C118 C117 1.385 . S
H119 C117 0.950 . S
H120 C104 0.951 . S
H121 C106 0.951 . S
H122 C108 0.951 . S
H123 C109 0.950 . S
H124 C110 0.950 . S
H125 C111 0.950 1_545 S
H126 C113 0.950 . S
H127 C114 0.951 . S
C128 C129 1.386 . S
C128 C130 1.383 . S
C128 H144 0.951 . S
C129 C128 1.386 . S
C129 C133 1.383 . S
C130 C128 1.383 . S
C130 C131 1.402 . S
C130 H145 0.951 . S
C131 C130 1.402 . S
C131 C132 1.375 . S
C131 C134 1.481 . S
C132 C131 1.375 . S
C132 C133 1.367 . S
C132 H146 0.951 . S
C133 C129 1.383 . S
C133 C132 1.367 . S
C133 H147 0.950 . S
C134 C131 1.481 . S
C134 C135 1.297 . S
C134 H148 0.950 . S
C135 C134 1.297 . S
C135 C136 1.479 . S
C135 H149 0.950 . S
C136 C135 1.479 . S
C136 C137 1.375 . S
C136 C142 1.404 . S
C137 C136 1.375 . S
C137 C138 1.369 . S
C137 H150 0.950 . S
C138 C137 1.369 . S
C138 C139 1.392 . S
C138 H151 0.951 . S
C139 C138 1.392 . S
C139 C141 1.384 . S
H140 C142 0.949 . S
C141 C139 1.384 . S
C141 C142 1.385 . S
C141 H143 0.950 . S
C142 C136 1.404 . S
C142 H140 0.949 . S
C142 C141 1.385 . S
H143 C141 0.950 . S
H144 C128 0.951 . S
H145 C130 0.951 . S
H146 C132 0.951 . S
H147 C133 0.950 . S
H148 C134 0.950 . S
H149 C135 0.950 . S
H150 C137 0.950 . S
H151 C138 0.951 . S
C152 C153 1.386 . S
C152 C154 1.383 . S
C152 H168 0.951 . S
C153 C152 1.386 . S
C153 C157 1.383 . S
C154 C152 1.383 . S
C154 C155 1.402 . S
C154 H169 0.951 . S
C155 C154 1.402 . S
C155 C156 1.375 . S
C155 C158 1.481 . S
C156 C155 1.375 . S
C156 C157 1.367 . S
C156 H170 0.951 . S
C157 C153 1.383 . S
C157 C156 1.367 . S
C157 H171 0.950 . S
C158 C155 1.481 . S
C158 C159 1.297 . S
C158 H172 0.950 . S
C159 C158 1.297 . S
C159 C160 1.479 . S
C159 H173 0.950 . S
C160 C159 1.479 . S
C160 C161 1.375 . S
C160 C166 1.404 . S
C161 C160 1.375 . S
C161 C162 1.369 . S
C161 H174 0.950 . S
C162 C161 1.369 . S
C162 C163 1.392 . S
C162 H175 0.951 . S
C163 C162 1.392 . S
C163 C165 1.384 . S
H164 C166 0.949 . S
C165 C163 1.384 . S
C165 C166 1.385 . S
C165 H167 0.950 . S
C166 C160 1.404 . S
C166 H164 0.949 . S
C166 C165 1.385 . S
H167 C165 0.950 . S
H168 C152 0.951 . S
H169 C154 0.951 . S
H170 C156 0.951 . S
H171 C157 0.950 . S
H172 C158 0.950 . S
H173 C159 0.950 . S
H174 C161 0.950 . S
H175 C162 0.951 . S
C176 C177 1.386 . S
C176 C178 1.383 . S
C176 H192 0.951 . S
C177 C176 1.386 . S
C177 C181 1.383 . S
C178 C176 1.383 . S
C178 C179 1.402 . S
C178 H193 0.951 . S
C179 C178 1.402 . S
C179 C180 1.375 . S
C179 C182 1.481 1_455 S
C180 C179 1.375 . S
C180 C181 1.367 . S
C180 H194 0.951 . S
C181 C177 1.383 . S
C181 C180 1.367 . S
C181 H195 0.950 . S
C182 C179 1.481 1_655 S
C182 C183 1.297 . S
C182 H196 0.950 . S
C183 C182 1.297 . S
C183 C184 1.479 1_545 S
C183 H197 0.950 . S
C184 C183 1.479 1_565 S
C184 C185 1.375 . S
C184 C190 1.404 . S
C185 C184 1.375 . S
C185 C186 1.369 . S
C185 H198 0.950 . S
C186 C185 1.369 . S
C186 C187 1.392 . S
C186 H199 0.951 . S
C187 C186 1.392 . S
C187 C189 1.384 . S
H188 C190 0.949 . S
C189 C187 1.384 . S
C189 C190 1.385 . S
C189 H191 0.950 . S
C190 C184 1.404 . S
C190 H188 0.949 . S
C190 C189 1.385 . S
H191 C189 0.950 . S
H192 C176 0.951 . S
H193 C178 0.951 . S
H194 C180 0.951 . S
H195 C181 0.950 . S
H196 C182 0.950 . S
H197 C183 0.950 . S
H198 C185 0.950 . S
H199 C186 0.951 . S
C200 C201 1.386 . S
C200 C202 1.383 . S
C200 H216 0.951 . S
C201 C200 1.386 . S
C201 C205 1.383 . S
C202 C200 1.383 . S
C202 C203 1.402 . S
C202 H217 0.951 . S
C203 C202 1.402 . S
C203 C204 1.375 . S
C203 C206 1.481 . S
C204 C203 1.375 . S
C204 C205 1.367 . S
C204 H218 0.951 . S
C205 C201 1.383 . S
C205 C204 1.367 . S
C205 H219 0.950 . S
C206 C203 1.481 . S
C206 C207 1.297 . S
C206 H220 0.950 . S
C207 C206 1.297 . S
C207 C208 1.479 . S
C207 H221 0.950 . S
C208 C207 1.479 . S
C208 C209 1.375 . S
C208 C214 1.404 . S
C209 C208 1.375 . S
C209 C210 1.369 . S
C209 H222 0.950 . S
C210 C209 1.369 . S
C210 C211 1.392 . S
C210 H223 0.951 . S
C211 C210 1.392 . S
C211 C213 1.384 . S
H212 C214 0.949 . S
C213 C211 1.384 . S
C213 C214 1.385 . S
C213 H215 0.950 . S
C214 C208 1.404 . S
C214 H212 0.949 . S
C214 C213 1.385 . S
H215 C213 0.950 . S
H216 C200 0.951 . S
H217 C202 0.951 . S
H218 C204 0.951 . S
H219 C205 0.950 . S
H220 C206 0.950 . S
H221 C207 0.950 . S
H222 C209 0.950 . S
H223 C210 0.951 . S
C224 C225 1.386 . S
C224 C226 1.383 . S
C224 H240 0.951 . S
C225 C224 1.386 . S
C225 C229 1.383 . S
C226 C224 1.383 . S
C226 C227 1.402 . S
C226 H241 0.951 . S
C227 C226 1.402 . S
C227 C228 1.375 . S
C227 C230 1.481 . S
C228 C227 1.375 . S
C228 C229 1.367 . S
C228 H242 0.951 . S
C229 C225 1.383 . S
C229 C228 1.367 . S
C229 H243 0.950 . S
C230 C227 1.481 . S
C230 C231 1.297 1_556 S
C230 H244 0.950 . S
C231 C230 1.297 1_554 S
C231 C232 1.479 . S
C231 H245 0.950 . S
C232 C231 1.479 . S
C232 C233 1.375 . S
C232 C238 1.404 . S
C233 C232 1.375 . S
C233 C234 1.369 . S
C233 H246 0.950 . S
C234 C233 1.369 . S
C234 C235 1.392 . S
C234 H247 0.951 . S
C235 C234 1.392 . S
C235 C237 1.384 . S
H236 C238 0.949 . S
C237 C235 1.384 . S
C237 C238 1.385 . S
C237 H239 0.950 . S
C238 C232 1.404 . S
C238 H236 0.949 . S
C238 C237 1.385 . S
H239 C237 0.950 . S
H240 C224 0.951 . S
H241 C226 0.951 . S
H242 C228 0.951 . S
H243 C229 0.950 . S
H244 C230 0.950 . S
H245 C231 0.950 . S
H246 C233 0.950 . S
H247 C234 0.951 . S
C248 C249 1.386 . S
C248 C250 1.383 . S
C248 H264 0.951 . S
C249 C248 1.386 . S
C249 C253 1.383 . S
C250 C248 1.383 . S
C250 C251 1.402 . S
C250 H265 0.951 . S
C251 C250 1.402 . S
C251 C252 1.375 . S
C251 C254 1.481 . S
C252 C251 1.375 . S
C252 C253 1.367 . S
C252 H266 0.951 . S
C253 C249 1.383 . S
C253 C252 1.367 . S
C253 H267 0.950 . S
C254 C251 1.481 . S
C254 C255 1.297 . S
C254 H268 0.950 . S
C255 C254 1.297 . S
C255 C256 1.479 . S
C255 H269 0.950 . S
C256 C255 1.479 . S
C256 C257 1.375 . S
C256 C262 1.404 . S
C257 C256 1.375 . S
C257 C258 1.369 . S
C257 H270 0.950 . S
C258 C257 1.369 . S
C258 C259 1.392 . S
C258 H271 0.951 . S
C259 C258 1.392 . S
C259 C261 1.384 . S
H260 C262 0.949 . S
C261 C259 1.384 . S
C261 C262 1.385 . S
C261 H263 0.950 . S
C262 C256 1.404 . S
C262 H260 0.949 . S
C262 C261 1.385 . S
H263 C261 0.950 . S
H264 C248 0.951 . S
H265 C250 0.951 . S
H266 C252 0.951 . S
H267 C253 0.950 . S
H268 C254 0.950 . S
H269 C255 0.950 . S
H270 C257 0.950 . S
H271 C258 0.951 . S
C272 C273 1.386 . S
C272 C274 1.383 . S
C272 H288 0.951 . S
C273 C272 1.386 . S
C273 C277 1.383 . S
C274 C272 1.383 . S
C274 C275 1.402 . S
C274 H289 0.951 . S
C275 C274 1.402 . S
C275 C276 1.375 . S
C275 C278 1.481 . S
C276 C275 1.375 . S
C276 C277 1.367 . S
C276 H290 0.951 . S
C277 C273 1.383 . S
C277 C276 1.367 . S
C277 H291 0.950 . S
C278 C275 1.481 . S
C278 C279 1.297 1_556 S
C278 H292 0.950 . S
C279 C278 1.297 1_554 S
C279 C280 1.479 . S
C279 H293 0.950 . S
C280 C279 1.479 . S
C280 C281 1.375 . S
C280 C286 1.404 . S
C281 C280 1.375 . S
C281 C282 1.369 . S
C281 H294 0.950 . S
C282 C281 1.369 . S
C282 C283 1.392 . S
C282 H295 0.951 . S
C283 C282 1.392 . S
C283 C285 1.384 . S
H284 C286 0.949 . S
C285 C283 1.384 . S
C285 C286 1.385 . S
C285 H287 0.950 . S
C286 C280 1.404 . S
C286 H284 0.949 . S
C286 C285 1.385 . S
H287 C285 0.950 . S
H288 C272 0.951 . S
H289 C274 0.951 . S
H290 C276 0.951 . S
H291 C277 0.950 . S
H292 C278 0.950 . S
H293 C279 0.950 . S
H294 C281 0.950 . S
H295 C282 0.951 . S
C296 C297 1.386 . S
C296 C298 1.383 . S
C296 H312 0.951 . S
C297 C296 1.386 . S
C297 C301 1.383 . S
C298 C296 1.383 . S
C298 C299 1.402 . S
C298 H313 0.951 . S
C299 C298 1.402 . S
C299 C300 1.375 . S
C299 C302 1.481 . S
C300 C299 1.375 . S
C300 C301 1.367 . S
C300 H314 0.951 . S
C301 C297 1.383 . S
C301 C300 1.367 . S
C301 H315 0.950 . S
C302 C299 1.481 . S
C302 C303 1.297 . S
C302 H316 0.950 . S
C303 C302 1.297 . S
C303 C304 1.479 . S
C303 H317 0.950 . S
C304 C303 1.479 . S
C304 C305 1.375 . S
C304 C310 1.404 . S
C305 C304 1.375 . S
C305 C306 1.369 . S
C305 H318 0.950 . S
C306 C305 1.369 . S
C306 C307 1.392 . S
C306 H319 0.951 . S
C307 C306 1.392 . S
C307 C309 1.384 . S
H308 C310 0.949 . S
C309 C307 1.384 . S
C309 C310 1.385 . S
C309 H311 0.950 . S
C310 C304 1.404 . S
C310 H308 0.949 . S
C310 C309 1.385 . S
H311 C309 0.950 . S
H312 C296 0.951 . S
H313 C298 0.951 . S
H314 C300 0.951 . S
H315 C301 0.950 . S
H316 C302 0.950 . S
H317 C303 0.950 . S
H318 C305 0.950 . S
H319 C306 0.951 . S
C320 C321 1.386 . S
C320 C322 1.383 . S
C320 H336 0.951 . S
C321 C320 1.386 . S
C321 C325 1.383 . S
C322 C320 1.383 . S
C322 C323 1.402 . S
C322 H337 0.951 . S
C323 C322 1.402 . S
C323 C324 1.375 . S
C323 C326 1.481 . S
C324 C323 1.375 . S
C324 C325 1.367 . S
C324 H338 0.951 . S
C325 C321 1.383 . S
C325 C324 1.367 . S
C325 H339 0.950 . S
C326 C323 1.481 . S
C326 C327 1.297 . S
C326 H340 0.950 . S
C327 C326 1.297 . S
C327 C328 1.479 . S
C327 H341 0.950 . S
C328 C327 1.479 . S
C328 C329 1.375 . S
C328 C334 1.404 . S
C329 C328 1.375 . S
C329 C330 1.369 . S
C329 H342 0.950 . S
C330 C329 1.369 . S
C330 C331 1.392 1_565 S
C330 H343 0.951 . S
C331 C330 1.392 1_545 S
C331 C333 1.384 . S
H332 C334 0.949 . S
C333 C331 1.384 . S
C333 C334 1.385 1_545 S
C333 H335 0.950 . S
C334 C328 1.404 . S
C334 H332 0.949 . S
C334 C333 1.385 1_565 S
H335 C333 0.950 . S
H336 C320 0.951 . S
H337 C322 0.951 . S
H338 C324 0.951 . S
H339 C325 0.950 . S
H340 C326 0.950 . S
H341 C327 0.950 . S
H342 C329 0.950 . S
H343 C330 0.951 . S
C344 C345 1.386 . S
C344 C346 1.383 . S
C344 H360 0.951 . S
C345 C344 1.386 . S
C345 C349 1.383 . S
C346 C344 1.383 . S
C346 C347 1.402 . S
C346 H361 0.951 . S
C347 C346 1.402 . S
C347 C348 1.375 . S
C347 C350 1.481 . S
C348 C347 1.375 . S
C348 C349 1.367 . S
C348 H362 0.951 . S
C349 C345 1.383 . S
C349 C348 1.367 . S
C349 H363 0.950 . S
C350 C347 1.481 . S
C350 C351 1.297 . S
C350 H364 0.950 . S
C351 C350 1.297 . S
C351 C352 1.479 . S
C351 H365 0.950 . S
C352 C351 1.479 . S
C352 C353 1.375 . S
C352 C358 1.404 . S
C353 C352 1.375 . S
C353 C354 1.369 . S
C353 H366 0.950 . S
C354 C353 1.369 . S
C354 C355 1.392 . S
C354 H367 0.951 . S
C355 C354 1.392 . S
C355 C357 1.384 . S
H356 C358 0.949 . S
C357 C355 1.384 . S
C357 C358 1.385 . S
C357 H359 0.950 . S
C358 C352 1.404 . S
C358 H356 0.949 . S
C358 C357 1.385 . S
H359 C357 0.950 . S
H360 C344 0.951 . S
H361 C346 0.951 . S
H362 C348 0.951 . S
H363 C349 0.950 . S
H364 C350 0.950 . S
H365 C351 0.950 . S
H366 C353 0.950 . S
H367 C354 0.951 . S
C368 C369 1.386 . S
C368 C370 1.383 . S
C368 H384 0.951 . S
C369 C368 1.386 . S
C369 C373 1.383 . S
C370 C368 1.383 . S
C370 C371 1.402 . S
C370 H385 0.951 . S
C371 C370 1.402 . S
C371 C372 1.375 . S
C371 C374 1.481 . S
C372 C371 1.375 . S
C372 C373 1.367 . S
C372 H386 0.951 . S
C373 C369 1.383 . S
C373 C372 1.367 . S
C373 H387 0.950 . S
C374 C371 1.481 . S
C374 C375 1.297 . S
C374 H388 0.950 . S
C375 C374 1.297 . S
C375 C376 1.479 . S
C375 H389 0.950 . S
C376 C375 1.479 . S
C376 C377 1.375 . S
C376 C382 1.404 . S
C377 C376 1.375 . S
C377 C378 1.369 1_545 S
C377 H390 0.950 . S
C378 C377 1.369 1_565 S
C378 C379 1.392 . S
C378 H391 0.951 . S
C379 C378 1.392 . S
C379 C381 1.384 1_565 S
H380 C382 0.949 . S
C381 C379 1.384 1_545 S
C381 C382 1.385 . S
C381 H383 0.950 . S
C382 C376 1.404 . S
C382 H380 0.949 . S
C382 C381 1.385 . S
H383 C381 0.950 . S
H384 C368 0.951 . S
H385 C370 0.951 . S
H386 C372 0.951 . S
H387 C373 0.950 . S
H388 C374 0.950 . S
H389 C375 0.950 . S
H390 C377 0.950 . S
H391 C378 0.951 . S
C392 C393 1.386 1_655 S
C392 C394 1.383 . S
C392 H408 0.951 1_655 S
C393 C392 1.386 1_455 S
C393 C397 1.383 . S
C394 C392 1.383 . S
C394 C395 1.402 . S
C394 H409 0.951 . S
C395 C394 1.402 . S
C395 C396 1.375 . S
C395 C398 1.481 . S
C396 C395 1.375 . S
C396 C397 1.367 1_655 S
C396 H410 0.951 . S
C397 C393 1.383 . S
C397 C396 1.367 1_455 S
C397 H411 0.950 . S
C398 C395 1.481 . S
C398 C399 1.297 . S
C398 H412 0.950 . S
C399 C398 1.297 . S
C399 C400 1.479 . S
C399 H413 0.950 . S
C400 C399 1.479 . S
C400 C401 1.375 . S
C400 C406 1.404 . S
C401 C400 1.375 . S
C401 C402 1.369 . S
C401 H414 0.950 . S
C402 C401 1.369 . S
C402 C403 1.392 . S
C402 H415 0.951 . S
C403 C402 1.392 . S
C403 C405 1.384 . S
H404 C406 0.949 . S
C405 C403 1.384 . S
C405 C406 1.385 . S
C405 H407 0.950 . S
C406 C400 1.404 . S
C406 H404 0.949 . S
C406 C405 1.385 . S
H407 C405 0.950 . S
H408 C392 0.951 1_455 S
H409 C394 0.951 . S
H410 C396 0.951 . S
H411 C397 0.950 . S
H412 C398 0.950 . S
H413 C399 0.950 . S
H414 C401 0.950 . S
H415 C402 0.951 . S
C416 C417 1.386 . S
C416 C418 1.383 . S
C416 H432 0.951 . S
C417 C416 1.386 . S
C417 C421 1.383 . S
C418 C416 1.383 . S
C418 C419 1.402 . S
C418 H433 0.951 . S
C419 C418 1.402 . S
C419 C420 1.375 . S
C419 C422 1.481 . S
C420 C419 1.375 . S
C420 C421 1.367 . S
C420 H434 0.951 . S
C421 C417 1.383 . S
C421 C420 1.367 . S
C421 H435 0.950 . S
C422 C419 1.481 . S
C422 C423 1.297 . S
C422 H436 0.950 . S
C423 C422 1.297 . S
C423 C424 1.479 . S
C423 H437 0.950 . S
C424 C423 1.479 . S
C424 C425 1.375 . S
C424 C430 1.404 . S
C425 C424 1.375 . S
C425 C426 1.369 . S
C425 H438 0.950 . S
C426 C425 1.369 . S
C426 C427 1.392 . S
C426 H439 0.951 . S
C427 C426 1.392 . S
C427 C429 1.384 . S
H428 C430 0.949 . S
C429 C427 1.384 . S
C429 C430 1.385 . S
C429 H431 0.950 . S
C430 C424 1.404 . S
C430 H428 0.949 . S
C430 C429 1.385 . S
H431 C429 0.950 . S
H432 C416 0.951 . S
H433 C418 0.951 . S
H434 C420 0.951 . S
H435 C421 0.950 . S
H436 C422 0.950 . S
H437 C423 0.950 . S
H438 C425 0.950 . S
H439 C426 0.951 . S
C440 C441 1.386 . S
C440 C442 1.383 . S
C440 H456 0.951 . S
C441 C440 1.386 . S
C441 C445 1.383 . S
C442 C440 1.383 . S
C442 C443 1.402 . S
C442 H457 0.951 . S
C443 C442 1.402 . S
C443 C444 1.375 . S
C443 C446 1.481 . S
C444 C443 1.375 . S
C444 C445 1.367 . S
C444 H458 0.951 . S
C445 C441 1.383 . S
C445 C444 1.367 . S
C445 H459 0.950 . S
C446 C443 1.481 . S
C446 C447 1.297 . S
C446 H460 0.950 . S
C447 C446 1.297 . S
C447 C448 1.479 . S
C447 H461 0.950 . S
C448 C447 1.479 . S
C448 C449 1.375 . S
C448 C454 1.404 . S
C449 C448 1.375 . S
C449 C450 1.369 1_455 S
C449 H462 0.950 . S
C450 C449 1.369 1_655 S
C450 C451 1.392 . S
C450 H463 0.951 . S
C451 C450 1.392 . S
C451 C453 1.384 1_655 S
H452 C454 0.949 . S
C453 C451 1.384 1_455 S
C453 C454 1.385 . S
C453 H455 0.950 1_455 S
C454 C448 1.404 . S
C454 H452 0.949 . S
C454 C453 1.385 . S
H455 C453 0.950 1_655 S
H456 C440 0.951 . S
H457 C442 0.951 . S
H458 C444 0.951 . S
H459 C445 0.950 . S
H460 C446 0.950 . S
H461 C447 0.950 . S
H462 C449 0.950 . S
H463 C450 0.951 . S
C464 C465 1.386 . S
C464 C466 1.383 . S
C464 H480 0.951 . S
C465 C464 1.386 . S
C465 C469 1.383 . S
C466 C464 1.383 . S
C466 C467 1.402 . S
C466 H481 0.951 . S
C467 C466 1.402 . S
C467 C468 1.375 . S
C467 C470 1.481 . S
C468 C467 1.375 . S
C468 C469 1.367 . S
C468 H482 0.951 . S
C469 C465 1.383 . S
C469 C468 1.367 . S
C469 H483 0.950 . S
C470 C467 1.481 . S
C470 C471 1.297 . S
C470 H484 0.950 . S
C471 C470 1.297 . S
C471 C472 1.479 . S
C471 H485 0.950 . S
C472 C471 1.479 . S
C472 C473 1.375 . S
C472 C478 1.404 . S
C473 C472 1.375 . S
C473 C474 1.369 . S
C473 H486 0.950 . S
C474 C473 1.369 . S
C474 C475 1.392 . S
C474 H487 0.951 . S
C475 C474 1.392 . S
C475 C477 1.384 . S
H476 C478 0.949 . S
C477 C475 1.384 . S
C477 C478 1.385 . S
C477 H479 0.950 . S
C478 C472 1.404 . S
C478 H476 0.949 . S
C478 C477 1.385 . S
H479 C477 0.950 . S
H480 C464 0.951 . S
H481 C466 0.951 . S
H482 C468 0.951 . S
H483 C469 0.950 . S
H484 C470 0.950 . S
H485 C471 0.950 . S
H486 C473 0.950 . S
H487 C474 0.951 . S
C105 C5 0.468 . S
C115 C31 0.699 . S
C129 C18 0.535 . S
C139 C44 0.731 . S
C153 C57 0.445 . S
C163 C83 0.649 . S
C177 C70 0.630 . S
C187 C96 0.423 . S
C201 C8 1.315 . S
C211 C73 1.280 . S
C225 C21 1.303 . S
C235 C86 1.265 . S
C249 C99 1.360 . S
C259 C34 1.376 . S
C273 C47 1.304 . S
C283 C60 1.266 . S
C297 C62 1.484 . S
C307 C0 1.507 . S
C321 C13 1.513 . S
C331 C75 1.428 . S
C345 C26 1.495 . S
C355 C88 1.426 . S
C369 C39 1.487 . S
C379 C101 1.465 . S
C393 C10 1.481 . S
C403 C52 1.469 . S
C417 C65 1.515 . S
C427 C23 1.446 . S
C441 C78 1.489 . S
C451 C36 1.447 . S
C465 C49 1.444 . S
C475 C91 1.490 . S
