# Generated by pormake.
# Topology uos, (4)-cn, num edge types: 1
# Building blocks:
#     Node 0, Type 0, BuildingBlock: NAHDIM_clean_sbu_0, # of connection points: 4
#     Node 1, Type 0, BuildingBlock: NAHDIM_clean_sbu_0, # of connection points: 4
#     Node 2, Type 0, BuildingBlock: NAHDIM_clean_sbu_0, # of connection points: 4
#     Node 3, Type 0, BuildingBlock: NAHDIM_clean_sbu_0, # of connection points: 4
#     Node 4, Type 0, BuildingBlock: NAHDIM_clean_sbu_0, # of connection points: 4
#     Node 5, Type 0, BuildingBlock: NAHDIM_clean_sbu_0, # of connection points: 4
#     Node 6, Type 0, BuildingBlock: NAHDIM_clean_sbu_0, # of connection points: 4
#     Node 7, Type 0, BuildingBlock: NAHDIM_clean_sbu_0, # of connection points: 4
#     Node 8, Type 0, BuildingBlock: NAHDIM_clean_sbu_0, # of connection points: 4
#     Node 9, Type 0, BuildingBlock: NAHDIM_clean_sbu_0, # of connection points: 4
#     Node 10, Type 0, BuildingBlock: NAHDIM_clean_sbu_0, # of connection points: 4
#     Node 11, Type 0, BuildingBlock: NAHDIM_clean_sbu_0, # of connection points: 4
#     Node 12, Type 0, BuildingBlock: NAHDIM_clean_sbu_0, # of connection points: 4
#     Node 13, Type 0, BuildingBlock: NAHDIM_clean_sbu_0, # of connection points: 4
#     Node 14, Type 0, BuildingBlock: NAHDIM_clean_sbu_0, # of connection points: 4
#     Node 15, Type 0, BuildingBlock: NAHDIM_clean_sbu_0, # of connection points: 4
#     Node 16, Type 0, BuildingBlock: NAHDIM_clean_sbu_0, # of connection points: 4
#     Node 17, Type 0, BuildingBlock: NAHDIM_clean_sbu_0, # of connection points: 4
#     Node 18, Type 0, BuildingBlock: NAHDIM_clean_sbu_0, # of connection points: 4
#     Node 19, Type 0, BuildingBlock: NAHDIM_clean_sbu_0, # of connection points: 4
#     Node 20, Type 0, BuildingBlock: NAHDIM_clean_sbu_0, # of connection points: 4
#     Node 21, Type 0, BuildingBlock: NAHDIM_clean_sbu_0, # of connection points: 4
#     Node 22, Type 0, BuildingBlock: NAHDIM_clean_sbu_0, # of connection points: 4
#     Node 23, Type 0, BuildingBlock: NAHDIM_clean_sbu_0, # of connection points: 4
#     Node 24, Type 0, BuildingBlock: NAHDIM_clean_sbu_0, # of connection points: 4
#     Node 25, Type 0, BuildingBlock: NAHDIM_clean_sbu_0, # of connection points: 4
#     Node 26, Type 0, BuildingBlock: NAHDIM_clean_sbu_0, # of connection points: 4
#     Node 27, Type 0, BuildingBlock: NAHDIM_clean_sbu_0, # of connection points: 4
#     Node 28, Type 0, BuildingBlock: NAHDIM_clean_sbu_0, # of connection points: 4
#     Node 29, Type 0, BuildingBlock: NAHDIM_clean_sbu_0, # of connection points: 4
#     Node 30, Type 0, BuildingBlock: NAHDIM_clean_sbu_0, # of connection points: 4
#     Node 31, Type 0, BuildingBlock: NAHDIM_clean_sbu_0, # of connection points: 4
#     Edge 32, Type (0, 0), BuildingBlock: MIFKUJ_clean_linker_0, # of connection points: 2
#     Edge 33, Type (0, 0), BuildingBlock: MIFKUJ_clean_linker_0, # of connection points: 2
#     Edge 34, Type (0, 0), BuildingBlock: MIFKUJ_clean_linker_0, # of connection points: 2
#     Edge 35, Type (0, 0), BuildingBlock: MIFKUJ_clean_linker_0, # of connection points: 2
#     Edge 36, Type (0, 0), BuildingBlock: MIFKUJ_clean_linker_0, # of connection points: 2
#     Edge 37, Type (0, 0), BuildingBlock: MIFKUJ_clean_linker_0, # of connection points: 2
#     Edge 38, Type (0, 0), BuildingBlock: MIFKUJ_clean_linker_0, # of connection points: 2
#     Edge 39, Type (0, 0), BuildingBlock: MIFKUJ_clean_linker_0, # of connection points: 2
#     Edge 40, Type (0, 0), BuildingBlock: MIFKUJ_clean_linker_0, # of connection points: 2
#     Edge 41, Type (0, 0), BuildingBlock: MIFKUJ_clean_linker_0, # of connection points: 2
#     Edge 42, Type (0, 0), BuildingBlock: MIFKUJ_clean_linker_0, # of connection points: 2
#     Edge 43, Type (0, 0), BuildingBlock: MIFKUJ_clean_linker_0, # of connection points: 2
#     Edge 44, Type (0, 0), BuildingBlock: MIFKUJ_clean_linker_0, # of connection points: 2
#     Edge 45, Type (0, 0), BuildingBlock: MIFKUJ_clean_linker_0, # of connection points: 2
#     Edge 46, Type (0, 0), BuildingBlock: MIFKUJ_clean_linker_0, # of connection points: 2
#     Edge 47, Type (0, 0), BuildingBlock: MIFKUJ_clean_linker_0, # of connection points: 2
#     Edge 48, Type (0, 0), BuildingBlock: MIFKUJ_clean_linker_0, # of connection points: 2
#     Edge 49, Type (0, 0), BuildingBlock: MIFKUJ_clean_linker_0, # of connection points: 2
#     Edge 50, Type (0, 0), BuildingBlock: MIFKUJ_clean_linker_0, # of connection points: 2
#     Edge 51, Type (0, 0), BuildingBlock: MIFKUJ_clean_linker_0, # of connection points: 2
#     Edge 52, Type (0, 0), BuildingBlock: MIFKUJ_clean_linker_0, # of connection points: 2
#     Edge 53, Type (0, 0), BuildingBlock: MIFKUJ_clean_linker_0, # of connection points: 2
#     Edge 54, Type (0, 0), BuildingBlock: MIFKUJ_clean_linker_0, # of connection points: 2
#     Edge 55, Type (0, 0), BuildingBlock: MIFKUJ_clean_linker_0, # of connection points: 2
#     Edge 56, Type (0, 0), BuildingBlock: MIFKUJ_clean_linker_0, # of connection points: 2
#     Edge 57, Type (0, 0), BuildingBlock: MIFKUJ_clean_linker_0, # of connection points: 2
#     Edge 58, Type (0, 0), BuildingBlock: MIFKUJ_clean_linker_0, # of connection points: 2
#     Edge 59, Type (0, 0), BuildingBlock: MIFKUJ_clean_linker_0, # of connection points: 2
#     Edge 60, Type (0, 0), BuildingBlock: MIFKUJ_clean_linker_0, # of connection points: 2
#     Edge 61, Type (0, 0), BuildingBlock: MIFKUJ_clean_linker_0, # of connection points: 2
#     Edge 62, Type (0, 0), BuildingBlock: MIFKUJ_clean_linker_0, # of connection points: 2
#     Edge 63, Type (0, 0), BuildingBlock: MIFKUJ_clean_linker_0, # of connection points: 2
#     Edge 64, Type (0, 0), BuildingBlock: MIFKUJ_clean_linker_0, # of connection points: 2
#     Edge 65, Type (0, 0), BuildingBlock: MIFKUJ_clean_linker_0, # of connection points: 2
#     Edge 66, Type (0, 0), BuildingBlock: MIFKUJ_clean_linker_0, # of connection points: 2
#     Edge 67, Type (0, 0), BuildingBlock: MIFKUJ_clean_linker_0, # of connection points: 2
#     Edge 68, Type (0, 0), BuildingBlock: MIFKUJ_clean_linker_0, # of connection points: 2
#     Edge 69, Type (0, 0), BuildingBlock: MIFKUJ_clean_linker_0, # of connection points: 2
#     Edge 70, Type (0, 0), BuildingBlock: MIFKUJ_clean_linker_0, # of connection points: 2
#     Edge 71, Type (0, 0), BuildingBlock: MIFKUJ_clean_linker_0, # of connection points: 2
#     Edge 72, Type (0, 0), BuildingBlock: MIFKUJ_clean_linker_0, # of connection points: 2
#     Edge 73, Type (0, 0), BuildingBlock: MIFKUJ_clean_linker_0, # of connection points: 2
#     Edge 74, Type (0, 0), BuildingBlock: MIFKUJ_clean_linker_0, # of connection points: 2
#     Edge 75, Type (0, 0), BuildingBlock: MIFKUJ_clean_linker_0, # of connection points: 2
#     Edge 76, Type (0, 0), BuildingBlock: MIFKUJ_clean_linker_0, # of connection points: 2
#     Edge 77, Type (0, 0), BuildingBlock: MIFKUJ_clean_linker_0, # of connection points: 2
#     Edge 78, Type (0, 0), BuildingBlock: MIFKUJ_clean_linker_0, # of connection points: 2
#     Edge 79, Type (0, 0), BuildingBlock: MIFKUJ_clean_linker_0, # of connection points: 2
#     Edge 80, Type (0, 0), BuildingBlock: MIFKUJ_clean_linker_0, # of connection points: 2
#     Edge 81, Type (0, 0), BuildingBlock: MIFKUJ_clean_linker_0, # of connection points: 2
#     Edge 82, Type (0, 0), BuildingBlock: MIFKUJ_clean_linker_0, # of connection points: 2
#     Edge 83, Type (0, 0), BuildingBlock: MIFKUJ_clean_linker_0, # of connection points: 2
#     Edge 84, Type (0, 0), BuildingBlock: MIFKUJ_clean_linker_0, # of connection points: 2
#     Edge 85, Type (0, 0), BuildingBlock: MIFKUJ_clean_linker_0, # of connection points: 2
#     Edge 86, Type (0, 0), BuildingBlock: MIFKUJ_clean_linker_0, # of connection points: 2
#     Edge 87, Type (0, 0), BuildingBlock: MIFKUJ_clean_linker_0, # of connection points: 2
#     Edge 88, Type (0, 0), BuildingBlock: MIFKUJ_clean_linker_0, # of connection points: 2
#     Edge 89, Type (0, 0), BuildingBlock: MIFKUJ_clean_linker_0, # of connection points: 2
#     Edge 90, Type (0, 0), BuildingBlock: MIFKUJ_clean_linker_0, # of connection points: 2
#     Edge 91, Type (0, 0), BuildingBlock: MIFKUJ_clean_linker_0, # of connection points: 2
#     Edge 92, Type (0, 0), BuildingBlock: MIFKUJ_clean_linker_0, # of connection points: 2
#     Edge 93, Type (0, 0), BuildingBlock: MIFKUJ_clean_linker_0, # of connection points: 2
#     Edge 94, Type (0, 0), BuildingBlock: MIFKUJ_clean_linker_0, # of connection points: 2
#     Edge 95, Type (0, 0), BuildingBlock: MIFKUJ_clean_linker_0, # of connection points: 2
# Relax obj value: 0.056
# Max RMSD: 0.086
# Mean RMSD: 0.086
data_MOF--net-uos--node1-NAHDIM_clean_sbu_0--edge1-MIFKUJ_clean_linker_0
_symmetry_space_group_name_H-M    P1
_symmetry_Int_Tables_number       1
_symmetry_cell_setting            triclinic
loop_
_symmetry_equiv_pos_as_xyz
'x, y, z'
_cell_length_a     109.61144
_cell_length_b     109.60453
_cell_length_c     30.553099
_cell_angle_alpha  89.984892
_cell_angle_beta   89.980568
_cell_angle_gamma 89.993607
loop_
_atom_site_label
_atom_site_type_symbol
_atom_site_fract_x
_atom_site_fract_y
_atom_site_fract_z
_atom_type_partial_charge
C0 C 0.15272 0.15541 0.06847 0.0
O1 O 0.14564 0.16242 0.09239 0.0
O2 O 0.16526 0.18114 0.12771 0.0
Zn3 Zn 0.16898 0.16321 0.13352 0.0
O4 O 0.15965 0.15603 0.18355 0.0
C5 C 0.19484 0.16815 0.13031 0.0
O6 O 0.19149 0.17675 0.10286 0.0
O7 O 0.16387 0.1543 0.07903 0.0
C8 C 0.16127 0.15947 0.2228 0.0
O9 O 0.1692 0.16816 0.23108 0.0
C10 C 0.1558 0.18613 0.14385 0.0
O11 O 0.14788 0.17942 0.16534 0.0
O12 O 0.18681 0.16106 0.14617 0.0
C13 C 0.10685 0.91202 0.31273 0.0
O14 O 0.11119 0.90918 0.35149 0.0
O15 O 0.06868 0.91598 0.34967 0.0
Zn16 Zn 0.08618 0.91948 0.36389 0.0
O17 O 0.09215 0.90829 0.41147 0.0
C18 C 0.08052 0.93946 0.41778 0.0
O19 O 0.07277 0.93127 0.43239 0.0
O20 O 0.09639 0.91695 0.3099 0.0
C21 C 0.08564 0.90256 0.43911 0.0
O22 O 0.07371 0.90357 0.43768 0.0
C23 C 0.06496 0.9054 0.33911 0.0
O24 O 0.07281 0.89636 0.33709 0.0
O25 O 0.08756 0.93664 0.3863 0.0
C26 C 0.34301 0.84927 0.56031 0.0
O27 O 0.35129 0.84552 0.5883 0.0
O28 O 0.33165 0.81955 0.61155 0.0
Zn29 Zn 0.32845 0.83734 0.62265 0.0
O30 O 0.33969 0.84353 0.66965 0.0
C31 C 0.30606 0.83085 0.66385 0.0
O32 O 0.31213 0.82065 0.66971 0.0
O33 O 0.33186 0.84681 0.56761 0.0
C34 C 0.33964 0.83963 0.70878 0.0
O35 O 0.33183 0.83112 0.72022 0.0
C36 C 0.34181 0.81442 0.61942 0.0
O37 O 0.35094 0.82097 0.63439 0.0
O38 O 0.31109 0.83954 0.64298 0.0
C39 C 0.39114 0.08153 0.80572 0.0
O40 O 0.3847 0.08103 0.84197 0.0
O41 O 0.42893 0.08001 0.85634 0.0
Zn42 Zn 0.41109 0.07659 0.86429 0.0
O43 O 0.40378 0.08753 0.91021 0.0
C44 C 0.41607 0.0563 0.91694 0.0
O45 O 0.42368 0.06443 0.93283 0.0
O46 O 0.40254 0.0795 0.80733 0.0
C47 C 0.40974 0.09253 0.94105 0.0
O48 O 0.42158 0.0909 0.94363 0.0
C49 C 0.43346 0.09059 0.85145 0.0
O50 O 0.42622 0.10015 0.85102 0.0
O51 O 0.40927 0.05928 0.88497 0.0
C52 C 0.15395 0.85842 0.92094 0.0
O53 O 0.15234 0.86364 0.88266 0.0
O54 O 0.16009 0.82056 0.87652 0.0
Zn55 Zn 0.16219 0.83854 0.8674 0.0
O56 O 0.15106 0.84384 0.81843 0.0
C57 C 0.18818 0.83483 0.86481 0.0
O58 O 0.18554 0.82598 0.89221 0.0
O59 O 0.15813 0.84762 0.92258 0.0
C60 C 0.15502 0.85043 0.78728 0.0
O61 O 0.16649 0.85389 0.78743 0.0
C62 C 0.14981 0.81545 0.88223 0.0
O63 O 0.13989 0.82217 0.88325 0.0
O64 O 0.17966 0.84163 0.85066 0.0
C65 C 0.39128 0.90753 0.17845 0.0
O66 O 0.385 0.90953 0.14252 0.0
O67 O 0.42938 0.90994 0.12853 0.0
Zn68 Zn 0.41135 0.91209 0.12104 0.0
O69 O 0.40521 0.90067 0.07508 0.0
C70 C 0.41381 0.93804 0.11891 0.0
O71 O 0.42143 0.9358 0.1511 0.0
O72 O 0.40283 0.90843 0.17736 0.0
C73 C 0.40935 0.90125 0.03632 0.0
O74 O 0.41786 0.90928 0.02706 0.0
C75 C 0.43448 0.89953 0.12824 0.0
O76 O 0.42776 0.88971 0.1232 0.0
O77 O 0.40808 0.92923 0.1015 0.0
C78 C 0.34875 0.14454 0.42494 0.0
O79 O 0.35721 0.14783 0.39684 0.0
O80 O 0.33955 0.17657 0.38351 0.0
Zn81 Zn 0.33504 0.15936 0.36795 0.0
O82 O 0.34515 0.15353 0.31718 0.0
C83 C 0.31498 0.16663 0.31782 0.0
O84 O 0.32371 0.17345 0.30136 0.0
O85 O 0.33792 0.14841 0.41965 0.0
C86 C 0.34096 0.14563 0.2908 0.0
O87 O 0.32994 0.14126 0.29706 0.0
C88 C 0.34856 0.18217 0.3667 0.0
O89 O 0.3557 0.17642 0.33905 0.0
O90 O 0.3175 0.15944 0.34917 0.0
C91 C 0.0934 0.09478 0.7128 0.0
O92 O 0.08411 0.10088 0.6967 0.0
O93 O 0.07182 0.08483 0.63506 0.0
Zn94 Zn 0.08993 0.08177 0.63366 0.0
O95 O 0.09769 0.0927 0.58878 0.0
C96 C 0.08563 0.05599 0.63141 0.0
O97 O 0.07706 0.05893 0.65956 0.0
O98 O 0.09748 0.08565 0.6918 0.0
C99 C 0.09977 0.08913 0.54993 0.0
O100 O 0.09676 0.07797 0.53847 0.0
C101 C 0.06574 0.08333 0.60007 0.0
O102 O 0.07149 0.08002 0.56427 0.0
O103 O 0.09269 0.06427 0.61705 0.0
C104 C 0.83284 0.84515 0.97066 0.0
O105 O 0.82902 0.83383 0.97442 0.0
O106 O 0.83337 0.82309 0.88431 0.0
Zn107 Zn 0.82971 0.84094 0.87752 0.0
O108 O 0.83985 0.84832 0.82939 0.0
C109 C 0.80889 0.84089 0.82236 0.0
O110 O 0.81737 0.83837 0.79335 0.0
O111 O 0.83353 0.84996 0.93293 0.0
C112 C 0.84641 0.84229 0.80275 0.0
O113 O 0.84685 0.83034 0.80582 0.0
C114 C 0.84348 0.81879 0.89753 0.0
O115 O 0.85238 0.82628 0.90787 0.0
O116 O 0.81197 0.8426 0.86199 0.0
C117 C 0.90867 0.08806 0.71164 0.0
O118 O 0.92064 0.08757 0.71047 0.0
O119 O 0.92874 0.08564 0.62246 0.0
Zn120 Zn 0.91066 0.08259 0.61897 0.0
O121 O 0.90317 0.09417 0.57564 0.0
C122 C 0.90797 0.06235 0.55951 0.0
O123 O 0.90903 0.07106 0.53019 0.0
O124 O 0.90264 0.08583 0.67703 0.0
C125 C 0.89244 0.09226 0.56159 0.0
O126 O 0.88642 0.08263 0.5753 0.0
C127 C 0.93492 0.08704 0.58763 0.0
O128 O 0.92929 0.08689 0.5497 0.0
O129 O 0.90815 0.06511 0.59994 0.0
C130 C 0.65536 0.15656 0.45339 0.0
O131 O 0.6494 0.16601 0.43785 0.0
O132 O 0.66511 0.17849 0.37801 0.0
Zn133 Zn 0.66833 0.16038 0.37451 0.0
O134 O 0.65745 0.1525 0.32986 0.0
C135 C 0.69128 0.16529 0.33347 0.0
O136 O 0.68558 0.17542 0.32305 0.0
O137 O 0.66447 0.15248 0.43224 0.0
C138 C 0.65844 0.15455 0.2891 0.0
O139 O 0.66676 0.16226 0.2752 0.0
C140 C 0.65605 0.18367 0.35983 0.0
O141 O 0.64815 0.17708 0.33787 0.0
O142 O 0.68581 0.15741 0.35692 0.0
C143 C 0.60177 0.90228 0.18443 0.0
O144 O 0.59922 0.89402 0.15469 0.0
O145 O 0.56945 0.91225 0.14025 0.0
Zn146 Zn 0.58696 0.91624 0.12732 0.0
O147 O 0.59333 0.90636 0.07684 0.0
C148 C 0.58013 0.93713 0.08019 0.0
O149 O 0.57197 0.92922 0.06662 0.0
O150 O 0.59741 0.91297 0.18018 0.0
C151 C 0.58699 0.90164 0.04647 0.0
O152 O 0.57507 0.90286 0.04696 0.0
C153 C 0.56505 0.90158 0.1439 0.0
O154 O 0.57227 0.89208 0.14008 0.0
O155 O 0.58789 0.9338 0.10873 0.0
C156 C 0.84977 0.14867 0.07003 0.0
O157 O 0.85627 0.15153 0.10465 0.0
O158 O 0.83423 0.17925 0.11182 0.0
Zn159 Zn 0.83176 0.16121 0.11963 0.0
O160 O 0.8397 0.15523 0.17493 0.0
C161 C 0.80993 0.14916 0.14807 0.0
O162 O 0.81782 0.14112 0.16275 0.0
O163 O 0.83864 0.15191 0.06841 0.0
C164 C 0.84288 0.16174 0.20737 0.0
O165 O 0.84136 0.17362 0.206 0.0
C166 C 0.84453 0.18457 0.11143 0.0
O167 O 0.85453 0.17808 0.11583 0.0
O168 O 0.81377 0.15829 0.1264 0.0
C169 C 0.59496 0.09688 0.80955 0.0
O170 O 0.58801 0.10398 0.83359 0.0
O171 O 0.56954 0.08328 0.86952 0.0
Zn172 Zn 0.58764 0.08076 0.87574 0.0
O173 O 0.59408 0.09099 0.92471 0.0
C174 C 0.5839 0.05488 0.87502 0.0
O175 O 0.57528 0.05786 0.84711 0.0
O176 O 0.59626 0.08579 0.82066 0.0
C177 C 0.59124 0.0888 0.96422 0.0
O178 O 0.58379 0.07973 0.973 0.0
C179 C 0.56387 0.09262 0.8835 0.0
O180 O 0.56997 0.1014 0.90291 0.0
O181 O 0.59073 0.0632 0.89041 0.0
C182 C 0.66157 0.85532 0.56228 0.0
O183 O 0.66467 0.86166 0.59699 0.0
O184 O 0.6604 0.81738 0.61592 0.0
Zn185 Zn 0.66391 0.83531 0.62235 0.0
O186 O 0.65282 0.84265 0.66798 0.0
C187 C 0.68441 0.83343 0.67888 0.0
O188 O 0.676 0.82876 0.70456 0.0
O189 O 0.66094 0.84377 0.56505 0.0
C190 C 0.65633 0.85116 0.69325 0.0
O191 O 0.66744 0.8555 0.68929 0.0
C192 C 0.65438 0.81144 0.64441 0.0
O193 O 0.64998 0.81719 0.67866 0.0
O194 O 0.68143 0.83705 0.64084 0.0
C195 C 0.89845 0.89931 0.32518 0.0
O196 O 0.90159 0.892 0.35734 0.0
O197 O 0.93107 0.91244 0.35788 0.0
Zn198 Zn 0.91359 0.91554 0.37371 0.0
O199 O 0.90917 0.90613 0.4279 0.0
C200 C 0.91567 0.93735 0.42257 0.0
O201 O 0.92108 0.92966 0.44924 0.0
O202 O 0.90256 0.91015 0.32463 0.0
C203 C 0.89958 0.90913 0.44857 0.0
O204 O 0.89304 0.91837 0.43439 0.0
C205 C 0.93576 0.90183 0.35758 0.0
O206 O 0.92896 0.89238 0.36763 0.0
O207 O 0.91157 0.93345 0.38624 0.0
C208 C 0.66168 0.6548 0.52863 0.0
O209 O 0.6644 0.66646 0.52725 0.0
O210 O 0.66291 0.67551 0.61656 0.0
Zn211 Zn 0.66688 0.6576 0.62054 0.0
O212 O 0.65759 0.64977 0.66934 0.0
C213 C 0.6925 0.66336 0.62076 0.0
O214 O 0.689 0.67243 0.5956 0.0
O215 O 0.66243 0.64913 0.56478 0.0
C216 C 0.65967 0.6527 0.70885 0.0
O217 O 0.66777 0.66121 0.71735 0.0
C218 C 0.654 0.68063 0.63582 0.0
O219 O 0.64654 0.67405 0.65977 0.0
O220 O 0.68465 0.65568 0.63391 0.0
C221 C 0.59693 0.40143 0.81512 0.0
O222 O 0.59308 0.39288 0.84193 0.0
O223 O 0.56911 0.41108 0.87948 0.0
Zn224 Zn 0.58684 0.41561 0.88269 0.0
O225 O 0.59526 0.40534 0.92792 0.0
C226 C 0.58929 0.4362 0.94009 0.0
O227 O 0.58983 0.42751 0.96962 0.0
O228 O 0.59502 0.41253 0.82494 0.0
C229 C 0.60669 0.40665 0.93303 0.0
O230 O 0.61256 0.41447 0.90818 0.0
C231 C 0.5631 0.40991 0.9148 0.0
O232 O 0.56874 0.41135 0.95237 0.0
O233 O 0.58813 0.43334 0.89995 0.0
C234 C 0.84671 0.3483 0.06062 0.0
O235 O 0.85415 0.34305 0.08857 0.0
O236 O 0.83267 0.32097 0.11615 0.0
Zn237 Zn 0.83042 0.3391 0.1229 0.0
O238 O 0.8411 0.34523 0.17126 0.0
C239 C 0.80447 0.33573 0.12486 0.0
O240 O 0.80708 0.3271 0.09653 0.0
O241 O 0.8353 0.34779 0.06764 0.0
C242 C 0.83849 0.34362 0.21133 0.0
O243 O 0.8285 0.33766 0.22175 0.0
C244 C 0.84238 0.31545 0.12727 0.0
O245 O 0.85153 0.32172 0.14348 0.0
O246 O 0.81301 0.34245 0.1393 0.0
C247 C 0.88746 0.58938 0.31418 0.0
O248 O 0.88119 0.58869 0.35077 0.0
O249 O 0.92532 0.58784 0.36419 0.0
Zn250 Zn 0.90747 0.58411 0.37158 0.0
O251 O 0.90049 0.59523 0.41759 0.0
C252 C 0.91345 0.55868 0.37969 0.0
O253 O 0.92267 0.56191 0.35477 0.0
O254 O 0.89887 0.58737 0.31501 0.0
C255 C 0.89848 0.59155 0.45637 0.0
O256 O 0.90094 0.58019 0.46673 0.0
C257 C 0.93178 0.59103 0.39677 0.0
O258 O 0.92663 0.59204 0.43542 0.0
O259 O 0.90549 0.56661 0.38997 0.0
C260 C 0.66164 0.35772 0.43994 0.0
O261 O 0.66403 0.36428 0.40499 0.0
O262 O 0.66213 0.31961 0.38978 0.0
Zn263 Zn 0.66701 0.33719 0.38295 0.0
O264 O 0.65844 0.34471 0.33119 0.0
C265 C 0.68824 0.33046 0.33922 0.0
O266 O 0.67995 0.32355 0.32051 0.0
O267 O 0.66267 0.34618 0.43806 0.0
C268 C 0.66395 0.35262 0.30802 0.0
O269 O 0.675 0.35606 0.3192 0.0
C270 C 0.65403 0.31437 0.36671 0.0
O271 O 0.64796 0.32073 0.33749 0.0
O272 O 0.68501 0.33747 0.37029 0.0
C273 C 0.90695 0.41181 0.71335 0.0
O274 O 0.91893 0.41148 0.71381 0.0
O275 O 0.92839 0.41421 0.62971 0.0
Zn276 Zn 0.91061 0.41831 0.62262 0.0
O277 O 0.9032 0.40775 0.5761 0.0
C278 C 0.91772 0.44053 0.58163 0.0
O279 O 0.92737 0.43385 0.573 0.0
O280 O 0.90148 0.415 0.67852 0.0
C281 C 0.9079 0.40653 0.53835 0.0
O282 O 0.9181 0.41227 0.52907 0.0
C283 C 0.93302 0.40372 0.62362 0.0
O284 O 0.92593 0.39456 0.61264 0.0
O285 O 0.90908 0.4359 0.60392 0.0
C286 C 0.84527 0.65202 0.93211 0.0
O287 O 0.85343 0.65387 0.90132 0.0
O288 O 0.83456 0.6839 0.88216 0.0
Zn289 Zn 0.83119 0.6661 0.87274 0.0
O290 O 0.84159 0.65949 0.82413 0.0
C291 C 0.8098 0.67172 0.82573 0.0
O292 O 0.81704 0.68051 0.81244 0.0
O293 O 0.83467 0.65654 0.92766 0.0
C294 C 0.84542 0.66557 0.79153 0.0
O295 O 0.84271 0.67721 0.78832 0.0
C296 C 0.84503 0.68843 0.88955 0.0
O297 O 0.85454 0.68118 0.89239 0.0
O298 O 0.81373 0.66413 0.85386 0.0
C299 C 0.59448 0.59971 0.17856 0.0
O300 O 0.5905 0.60687 0.14717 0.0
O301 O 0.56485 0.587 0.13158 0.0
Zn302 Zn 0.58259 0.58298 0.12403 0.0
O303 O 0.58953 0.59177 0.0721 0.0
C304 C 0.58054 0.56128 0.07613 0.0
O305 O 0.57577 0.56921 0.04878 0.0
O306 O 0.59204 0.58839 0.1769 0.0
C307 C 0.59995 0.58846 0.05833 0.0
O308 O 0.60554 0.57933 0.07769 0.0
C309 C 0.5601 0.5969 0.11823 0.0
O310 O 0.56699 0.60505 0.09866 0.0
O311 O 0.58425 0.56498 0.11324 0.0
C312 C 0.34249 0.34717 0.44109 0.0
O313 O 0.35026 0.34373 0.41077 0.0
O314 O 0.33236 0.3168 0.39331 0.0
Zn315 Zn 0.32711 0.33421 0.38435 0.0
O316 O 0.33565 0.3417 0.3328 0.0
C317 C 0.30422 0.32576 0.35248 0.0
O318 O 0.31082 0.316 0.34472 0.0
O319 O 0.33137 0.34404 0.43754 0.0
C320 C 0.3355 0.3372 0.2945 0.0
O321 O 0.32974 0.32687 0.28746 0.0
C322 C 0.34228 0.31234 0.3789 0.0
O323 O 0.34998 0.31939 0.35779 0.0
O324 O 0.30913 0.33483 0.37149 0.0
C325 C 0.40532 0.58354 0.21135 0.0
O326 O 0.41724 0.58238 0.21259 0.0
O327 O 0.42656 0.58406 0.1272 0.0
Zn328 Zn 0.40895 0.57949 0.11907 0.0
O329 O 0.40143 0.59036 0.07372 0.0
C330 C 0.41655 0.55757 0.07666 0.0
O331 O 0.42628 0.56428 0.06946 0.0
O332 O 0.39978 0.58214 0.17519 0.0
C333 C 0.40592 0.59153 0.03563 0.0
O334 O 0.41586 0.58548 0.02529 0.0
C335 C 0.4305 0.59491 0.12369 0.0
O336 O 0.42283 0.60377 0.11452 0.0
O337 O 0.40776 0.56206 0.09857 0.0
C338 C 0.16229 0.64281 0.93446 0.0
O339 O 0.16367 0.63632 0.89866 0.0
O340 O 0.16491 0.68021 0.87956 0.0
Zn341 Zn 0.16771 0.6622 0.8753 0.0
O342 O 0.15661 0.65515 0.82984 0.0
C343 C 0.18846 0.65066 0.83327 0.0
O344 O 0.1803 0.64269 0.82007 0.0
O345 O 0.16393 0.65428 0.93279 0.0
C346 C 0.15651 0.65915 0.79084 0.0
O347 O 0.16369 0.66828 0.78025 0.0
C348 C 0.15436 0.68475 0.88523 0.0
O349 O 0.14492 0.67743 0.8889 0.0
O350 O 0.18516 0.65942 0.8578 0.0
C351 C 0.09968 0.40397 0.6773 0.0
O352 O 0.09712 0.39594 0.64673 0.0
O353 O 0.06811 0.41432 0.63052 0.0
Zn354 Zn 0.08567 0.41852 0.62006 0.0
O355 O 0.09217 0.40871 0.5699 0.0
C356 C 0.09515 0.44052 0.58108 0.0
O357 O 0.10408 0.43328 0.56885 0.0
O358 O 0.0956 0.41477 0.67361 0.0
C359 C 0.08759 0.40897 0.53176 0.0
O360 O 0.07809 0.41595 0.52405 0.0
C361 C 0.06352 0.40391 0.62265 0.0
O362 O 0.07055 0.39512 0.60781 0.0
O363 O 0.08655 0.43625 0.60439 0.0
C364 C 0.3482 0.65017 0.55798 0.0
O365 O 0.35555 0.65567 0.58559 0.0
O366 O 0.33417 0.67814 0.6081 0.0
Zn367 Zn 0.33147 0.66017 0.61745 0.0
O368 O 0.34164 0.65421 0.66781 0.0
C369 C 0.30766 0.66527 0.65079 0.0
O370 O 0.31285 0.67582 0.65905 0.0
O371 O 0.33675 0.65088 0.5641 0.0
C372 C 0.33968 0.65721 0.70734 0.0
O373 O 0.33069 0.6647 0.71652 0.0
C374 C 0.34368 0.6837 0.62104 0.0
O375 O 0.35239 0.67753 0.64059 0.0
O376 O 0.31379 0.65702 0.63149 0.0
C377 C 0.09823 0.59939 0.31102 0.0
O378 O 0.09505 0.60773 0.33974 0.0
O379 O 0.06804 0.58869 0.36393 0.0
Zn380 Zn 0.08582 0.58453 0.37237 0.0
O381 O 0.09323 0.59436 0.42136 0.0
C382 C 0.07906 0.56098 0.40607 0.0
O383 O 0.06896 0.56682 0.41598 0.0
O384 O 0.09507 0.58838 0.31746 0.0
C385 C 0.09261 0.5912 0.46132 0.0
O386 O 0.08674 0.58119 0.47192 0.0
C387 C 0.06205 0.59507 0.39124 0.0
O388 O 0.06764 0.59951 0.42574 0.0
O389 O 0.08757 0.56666 0.38646 0.0
C390 C 0.16041 0.35886 0.05842 0.0
O391 O 0.16137 0.36531 0.0945 0.0
O392 O 0.16113 0.32128 0.11256 0.0
Zn393 Zn 0.16451 0.33922 0.11794 0.0
O394 O 0.15323 0.34661 0.16215 0.0
C395 C 0.18988 0.33384 0.12726 0.0
O396 O 0.187 0.32494 0.10037 0.0
O397 O 0.16177 0.34736 0.06026 0.0
C398 C 0.15504 0.34492 0.20273 0.0
O399 O 0.16433 0.3382 0.21529 0.0
C400 C 0.15114 0.31634 0.124 0.0
O401 O 0.14229 0.32318 0.13946 0.0
O402 O 0.18174 0.34148 0.13835 0.0
C403 C 0.38961 0.40833 0.81917 0.0
O404 O 0.3828 0.41051 0.85369 0.0
O405 O 0.42639 0.40862 0.88 0.0
Zn406 Zn 0.40852 0.41259 0.8811 0.0
O407 O 0.40014 0.40219 0.9262 0.0
C408 C 0.41409 0.43824 0.88439 0.0
O409 O 0.42344 0.43487 0.86034 0.0
O410 O 0.40114 0.40897 0.8227 0.0
C411 C 0.39747 0.40635 0.9638 0.0
O412 O 0.40043 0.41763 0.97369 0.0
C413 C 0.43258 0.40941 0.91503 0.0
O414 O 0.42706 0.4126 0.95145 0.0
O415 O 0.40632 0.43029 0.8961 0.0
H416 H 0.30698 0.18088 0.25046 0.0
H417 H 0.28677 0.18101 0.21697 0.0
H418 H 0.27475 0.15343 0.30806 0.0
H419 H 0.29504 0.1531 0.34142 0.0
H420 H 0.26786 0.1482 0.22507 0.0
H421 H 0.26639 0.18307 0.32059 0.0
H422 H 0.27367 0.20262 0.35081 0.0
H423 H 0.26997 0.21941 0.22454 0.0
H424 H 0.26286 0.19991 0.19338 0.0
H425 H 0.20415 0.15292 0.19268 0.0
H426 H 0.22486 0.15259 0.22173 0.0
H427 H 0.23522 0.18116 0.13195 0.0
H428 H 0.2144 0.18173 0.10321 0.0
H429 H 0.24326 0.18603 0.21217 0.0
H430 H 0.24457 0.15156 0.11638 0.0
H431 H 0.23768 0.13204 0.0848 0.0
H432 H 0.24199 0.11457 0.20965 0.0
H433 H 0.24875 0.13403 0.24214 0.0
C434 C 0.30003 0.17486 0.26352 0.0
C435 C 0.30261 0.16699 0.29866 0.0
C436 C 0.28847 0.17498 0.2444 0.0
C437 C 0.27923 0.16731 0.26029 0.0
C438 C 0.28176 0.15943 0.29534 0.0
C439 C 0.29334 0.15929 0.31446 0.0
C440 C 0.26698 0.16738 0.23989 0.0
C441 C 0.2624 0.15643 0.22276 0.0
C442 C 0.26004 0.17821 0.23574 0.0
C443 C 0.2642 0.18999 0.25456 0.0
C444 C 0.26721 0.19091 0.29919 0.0
C445 C 0.2713 0.20199 0.3165 0.0
C446 C 0.2723 0.21225 0.2896 0.0
C447 C 0.2692 0.21146 0.24533 0.0
C448 C 0.26513 0.20039 0.22784 0.0
C449 C 0.21085 0.15907 0.17878 0.0
C450 C 0.20762 0.16735 0.14558 0.0
C451 C 0.22271 0.15884 0.19535 0.0
C452 C 0.23163 0.16677 0.17873 0.0
C453 C 0.22848 0.17496 0.14523 0.0
C454 C 0.21659 0.17524 0.12874 0.0
C455 C 0.2441 0.16681 0.19752 0.0
C456 C 0.24872 0.17779 0.21436 0.0
C457 C 0.25111 0.15601 0.20124 0.0
C458 C 0.24707 0.14428 0.18178 0.0
C459 C 0.24396 0.14358 0.13719 0.0
C460 C 0.2401 0.13252 0.11911 0.0
C461 C 0.23937 0.12208 0.14522 0.0
C462 C 0.24255 0.12267 0.18946 0.0
C463 C 0.24641 0.13371 0.20772 0.0
H464 H 0.23638 0.11352 0.13116 0.0
H465 H 0.27545 0.22082 0.30306 0.0
H466 H 0.06664 0.94807 0.48511 0.0
H467 H 0.0681 0.96785 0.52126 0.0
H468 H 0.09741 0.97814 0.43455 0.0
H469 H 0.09612 0.95824 0.39836 0.0
H470 H 0.10249 0.98385 0.51914 0.0
H471 H 0.06927 0.98971 0.41967 0.0
H472 H 0.04962 0.98498 0.38426 0.0
H473 H 0.03127 0.98827 0.50787 0.0
H474 H 0.05084 0.99286 0.54416 0.0
H475 H 0.10124 0.0474 0.56877 0.0
H476 H 0.10098 0.02737 0.53383 0.0
H477 H 0.07116 0.01637 0.61717 0.0
H478 H 0.07123 0.03645 0.65191 0.0
H479 H 0.06659 0.01114 0.53308 0.0
H480 H 0.09992 0.00515 0.63265 0.0
H481 H 0.11958 0.00998 0.66776 0.0
H482 H 0.13776 0.00707 0.54368 0.0
H483 H 0.11816 0.00239 0.50771 0.0
C484 C 0.07338 0.95454 0.47356 0.0
C485 C 0.08124 0.9516 0.43876 0.0
C486 C 0.07417 0.96586 0.4942 0.0
C487 C 0.08278 0.9745 0.48029 0.0
C488 C 0.09069 0.97159 0.44571 0.0
C489 C 0.08991 0.96025 0.42499 0.0
C490 C 0.0836 0.98651 0.50235 0.0
C491 C 0.0947 0.98991 0.52167 0.0
C492 C 0.07334 0.99426 0.50644 0.0
C493 C 0.06155 0.99151 0.4847 0.0
C494 C 0.06106 0.98932 0.43937 0.0
C495 C 0.04993 0.98669 0.41913 0.0
C496 C 0.03921 0.98629 0.44382 0.0
C497 C 0.03959 0.98856 0.4888 0.0
C498 C 0.05069 0.99119 0.50921 0.0
C499 C 0.09471 0.04068 0.58004 0.0
C500 C 0.08625 0.04352 0.61311 0.0
C501 C 0.09461 0.02921 0.56011 0.0
C502 C 0.0861 0.02035 0.57309 0.0
C503 C 0.07779 0.02309 0.60665 0.0
C504 C 0.07788 0.03455 0.62658 0.0
C505 C 0.08546 0.00845 0.55021 0.0
C506 C 0.07439 0.00508 0.53061 0.0
C507 C 0.09575 0.00074 0.54585 0.0
C508 C 0.10755 0.00354 0.56742 0.0
C509 C 0.10809 0.00564 0.61279 0.0
C510 C 0.11923 0.00833 0.63286 0.0
C511 C 0.12991 0.00887 0.60795 0.0
C512 C 0.12948 0.00667 0.56293 0.0
C513 C 0.11836 0.00399 0.54269 0.0
H514 H 0.13852 0.01095 0.62355 0.0
H515 H 0.0306 0.98425 0.42808 0.0
H516 H 0.20775 0.81997 0.87932 0.0
H517 H 0.22801 0.82145 0.84676 0.0
H518 H 0.21737 0.85443 0.77969 0.0
H519 H 0.19693 0.85284 0.81133 0.0
H520 H 0.2285 0.83964 0.7252 0.0
H521 H 0.23731 0.85506 0.86737 0.0
H522 H 0.23744 0.85548 0.94805 0.0
H523 H 0.25804 0.82217 0.9506 0.0
H524 H 0.25789 0.82145 0.86991 0.0
H525 H 0.2902 0.85004 0.65435 0.0
H526 H 0.27028 0.85261 0.68961 0.0
H527 H 0.27453 0.81779 0.75363 0.0
H528 H 0.29437 0.81513 0.71871 0.0
H529 H 0.26691 0.83601 0.81004 0.0
H530 H 0.25635 0.82009 0.66724 0.0
H531 H 0.25622 0.82005 0.58652 0.0
H532 H 0.239 0.85524 0.5859 0.0
H533 H 0.23918 0.85556 0.66668 0.0
C534 C 0.20974 0.82761 0.85801 0.0
C535 C 0.20073 0.83628 0.84789 0.0
C536 C 0.22136 0.82848 0.83956 0.0
C537 C 0.22426 0.83814 0.81115 0.0
C538 C 0.21533 0.84692 0.80155 0.0
C539 C 0.20368 0.84601 0.81976 0.0
C540 C 0.23639 0.83865 0.78975 0.0
C541 C 0.23691 0.83909 0.74384 0.0
C542 C 0.24736 0.83776 0.81398 0.0
C543 C 0.2475 0.83816 0.86256 0.0
C544 C 0.24179 0.84778 0.88513 0.0
C545 C 0.24188 0.84807 0.93087 0.0
C546 C 0.24772 0.83884 0.95444 0.0
C547 C 0.25351 0.82931 0.9323 0.0
C548 C 0.25344 0.82896 0.88656 0.0
C549 C 0.28687 0.84291 0.67582 0.0
C550 C 0.29385 0.83237 0.68368 0.0
C551 C 0.27549 0.84439 0.69587 0.0
C552 C 0.27095 0.83537 0.72412 0.0
C553 C 0.2779 0.82487 0.73202 0.0
C554 C 0.28921 0.82335 0.71184 0.0
C555 C 0.25895 0.83679 0.7457 0.0
C556 C 0.25849 0.83672 0.79158 0.0
C557 C 0.24804 0.83811 0.72149 0.0
C558 C 0.24791 0.83791 0.67296 0.0
C559 C 0.25264 0.82787 0.64988 0.0
C560 C 0.25254 0.82778 0.60413 0.0
C561 C 0.24764 0.83765 0.5811 0.0
C562 C 0.24281 0.84761 0.60378 0.0
C563 C 0.2429 0.84774 0.64954 0.0
H564 H 0.24757 0.83756 0.54567 0.0
H565 H 0.24779 0.83909 0.98985 0.0
H566 H 0.40134 0.0372 0.89302 0.0
H567 H 0.40018 0.01702 0.9272 0.0
H568 H 0.42781 0.02762 0.02026 0.0
H569 H 0.42918 0.04766 0.98602 0.0
H570 H 0.4323 0.00544 0.98845 0.0
H571 H 0.39769 0.02653 0.04889 0.0
H572 H 0.37851 0.03827 0.04615 0.0
H573 H 0.36119 0.00907 0.97605 0.0
H574 H 0.38033 0.99722 0.97786 0.0
H575 H 0.42597 0.95859 0.14459 0.0
H576 H 0.42542 0.97871 0.11017 0.0
H577 H 0.39887 0.96574 0.01698 0.0
H578 H 0.39926 0.94561 0.05143 0.0
H579 H 0.39347 0.98872 0.04664 0.0
H580 H 0.42809 0.96753 0.98751 0.0
H581 H 0.44727 0.95582 0.99088 0.0
H582 H 0.46462 0.98536 0.05899 0.0
H583 H 0.44547 0.99719 0.05659 0.0
C584 C 0.40717 0.03522 0.92073 0.0
C585 C 0.41533 0.04403 0.93685 0.0
C586 C 0.40646 0.02371 0.94034 0.0
C587 C 0.41382 0.02087 0.97656 0.0
C588 C 0.42204 0.02962 0.99237 0.0
C589 C 0.42279 0.04109 0.97278 0.0
C590 C 0.41311 0.00875 0.99789 0.0
C591 C 0.42384 0.00185 0.00163 0.0
C592 C 0.402 0.00395 0.01413 0.0
C593 C 0.39048 0.01105 0.0131 0.0
C594 C 0.38982 0.02265 0.03258 0.0
C595 C 0.37895 0.02932 0.03126 0.0
C596 C 0.36865 0.02443 0.01083 0.0
C597 C 0.36919 0.01285 0.9918 0.0
C598 C 0.38004 0.00615 0.99299 0.0
C599 C 0.41993 0.96004 0.11702 0.0
C600 C 0.41273 0.95047 0.10052 0.0
C601 C 0.41966 0.97152 0.09731 0.0
C602 C 0.41224 0.97364 0.06065 0.0
C603 C 0.40469 0.96427 0.04515 0.0
C604 C 0.40495 0.95276 0.06483 0.0
C605 C 0.41269 0.98551 0.03758 0.0
C606 C 0.40192 0.99233 0.03339 0.0
C607 C 0.42377 0.99026 0.02096 0.0
C608 C 0.43531 0.9832 0.02224 0.0
C609 C 0.43597 0.97149 0.00351 0.0
C610 C 0.44684 0.96484 0.00519 0.0
C611 C 0.45715 0.96983 0.02523 0.0
C612 C 0.45662 0.9815 0.04353 0.0
C613 C 0.44576 0.98819 0.04199 0.0
H614 H 0.46556 0.96466 0.0265 0.0
H615 H 0.36024 0.0296 0.00985 0.0
H616 H 0.79971 0.8406 0.73942 0.0
H617 H 0.77829 0.84039 0.71738 0.0
H618 H 0.76731 0.84168 0.85287 0.0
H619 H 0.78877 0.84192 0.87533 0.0
H620 H 0.75537 0.82366 0.8042 0.0
H621 H 0.76429 0.86649 0.79326 0.0
H622 H 0.77598 0.88448 0.76891 0.0
H623 H 0.76897 0.87519 0.63472 0.0
H624 H 0.75738 0.85705 0.65826 0.0
H625 H 0.69251 0.83238 0.76314 0.0
H626 H 0.71344 0.8346 0.78925 0.0
H627 H 0.72589 0.83933 0.65627 0.0
H628 H 0.70488 0.8376 0.63013 0.0
H629 H 0.73707 0.8548 0.70627 0.0
H630 H 0.7293 0.81179 0.71427 0.0
H631 H 0.71819 0.79317 0.73579 0.0
H632 H 0.72366 0.80182 0.87143 0.0
H633 H 0.73468 0.82058 0.85071 0.0
C634 C 0.79275 0.84091 0.76457 0.0
C635 C 0.79593 0.84128 0.80913 0.0
C636 C 0.78052 0.84083 0.75189 0.0
C637 C 0.77125 0.8411 0.78351 0.0
C638 C 0.77437 0.84149 0.82802 0.0
C639 C 0.78661 0.84167 0.84075 0.0
C640 C 0.7583 0.84057 0.76999 0.0
C641 C 0.75128 0.83056 0.78338 0.0
C642 C 0.75315 0.8494 0.74176 0.0
C643 C 0.76006 0.86035 0.72754 0.0
C644 C 0.76532 0.86823 0.75855 0.0
C645 C 0.77192 0.87847 0.74489 0.0
C646 C 0.77324 0.88096 0.7003 0.0
C647 C 0.76795 0.87324 0.66926 0.0
C648 C 0.76135 0.86299 0.68274 0.0
C649 C 0.69971 0.83388 0.73946 0.0
C650 C 0.69708 0.83474 0.69456 0.0
C651 C 0.71168 0.8351 0.75441 0.0
C652 C 0.72129 0.83692 0.72467 0.0
C653 C 0.71864 0.83792 0.67984 0.0
C654 C 0.70664 0.83689 0.66492 0.0
C655 C 0.73408 0.83782 0.74026 0.0
C656 C 0.7411 0.8479 0.72725 0.0
C657 C 0.73929 0.82896 0.76838 0.0
C658 C 0.73271 0.81766 0.78093 0.0
C659 C 0.72806 0.80977 0.74869 0.0
C660 C 0.72179 0.79918 0.76074 0.0
C661 C 0.72019 0.79633 0.80495 0.0
C662 C 0.72489 0.80405 0.8372 0.0
C663 C 0.73116 0.81465 0.82532 0.0
H664 H 0.71534 0.78813 0.81422 0.0
H665 H 0.77835 0.88889 0.68979 0.0
H666 H 0.91877 0.94725 0.50361 0.0
H667 H 0.91612 0.96854 0.52527 0.0
H668 H 0.90648 0.97796 0.39268 0.0
H669 H 0.90899 0.9566 0.37068 0.0
H670 H 0.92413 0.99357 0.43173 0.0
H671 H 0.88464 0.97672 0.46335 0.0
H672 H 0.87034 0.96192 0.49588 0.0
H673 H 0.88303 0.97128 0.6245 0.0
H674 H 0.89756 0.98602 0.59268 0.0
H675 H 0.90507 0.05371 0.47645 0.0
H676 H 0.90518 0.03248 0.45239 0.0
H677 H 0.9097 0.02062 0.58608 0.0
H678 H 0.90931 0.04186 0.61058 0.0
H679 H 0.89407 0.00617 0.54454 0.0
H680 H 0.93398 0.02196 0.51557 0.0
H681 H 0.94914 0.03632 0.48548 0.0
H682 H 0.93676 0.02849 0.35515 0.0
H683 H 0.9214 0.01421 0.38453 0.0
C684 C 0.91608 0.95384 0.47901 0.0
C685 C 0.91409 0.95025 0.43542 0.0
C686 C 0.91452 0.96598 0.49151 0.0
C687 C 0.91103 0.97477 0.46061 0.0
C688 C 0.90915 0.97127 0.41697 0.0
C689 C 0.91056 0.95908 0.40452 0.0
C690 C 0.90956 0.98766 0.47392 0.0
C691 C 0.91742 0.99639 0.45583 0.0
C692 C 0.90105 0.9912 0.50634 0.0
C693 C 0.89227 0.98239 0.52559 0.0
C694 C 0.88446 0.97555 0.49855 0.0
C695 C 0.8763 0.96718 0.51687 0.0
C696 C 0.8758 0.96564 0.56222 0.0
C697 C 0.88344 0.97248 0.58937 0.0
C698 C 0.89163 0.98085 0.57121 0.0
C699 C 0.90602 0.04659 0.5008 0.0
C700 C 0.90728 0.04947 0.5454 0.0
C701 C 0.90612 0.03445 0.48696 0.0
C702 C 0.90767 0.02497 0.51734 0.0
C703 C 0.90854 0.0278 0.56205 0.0
C704 C 0.90834 0.03994 0.57599 0.0
C705 C 0.90865 0.01214 0.50236 0.0
C706 C 0.90073 0.0034 0.52022 0.0
C707 C 0.91722 0.00855 0.47008 0.0
C708 C 0.92645 0.01712 0.45229 0.0
C709 C 0.93442 0.02338 0.48052 0.0
C710 C 0.94306 0.03149 0.46359 0.0
C711 C 0.94389 0.03334 0.41844 0.0
C712 C 0.9361 0.02706 0.39012 0.0
C713 C 0.92743 0.01896 0.40689 0.0
H714 H 0.95059 0.03962 0.40539 0.0
H715 H 0.86947 0.95915 0.57634 0.0
H716 H 0.70639 0.14607 0.35231 0.0
H717 H 0.72628 0.14156 0.31951 0.0
H718 H 0.72362 0.17408 0.24059 0.0
H719 H 0.70379 0.17868 0.2731 0.0
H720 H 0.73062 0.15381 0.19281 0.0
H721 H 0.74166 0.17408 0.32708 0.0
H722 H 0.74169 0.17726 0.40697 0.0
H723 H 0.7571 0.14163 0.42591 0.0
H724 H 0.757 0.13817 0.34609 0.0
H725 H 0.79138 0.1645 0.12477 0.0
H726 H 0.7707 0.16497 0.15433 0.0
H727 H 0.77848 0.13304 0.23207 0.0
H728 H 0.79927 0.13257 0.20298 0.0
H729 H 0.76854 0.15085 0.28079 0.0
H730 H 0.75912 0.13118 0.14599 0.0
H731 H 0.75921 0.12805 0.06609 0.0
H732 H 0.74081 0.16226 0.04778 0.0
H733 H 0.74076 0.16569 0.12757 0.0
C734 C 0.71006 0.15229 0.32812 0.0
C735 C 0.70352 0.16274 0.31535 0.0
C736 C 0.72142 0.1497 0.30947 0.0
C737 C 0.7264 0.15751 0.2777 0.0
C738 C 0.7199 0.16794 0.26496 0.0
C739 C 0.7086 0.17057 0.28377 0.0
C740 C 0.73837 0.15482 0.25746 0.0
C741 C 0.73894 0.15326 0.21193 0.0
C742 C 0.74913 0.15375 0.28268 0.0
C743 C 0.74918 0.15581 0.33066 0.0
C744 C 0.74494 0.16688 0.34831 0.0
C745 C 0.745 0.16874 0.39357 0.0
C746 C 0.74935 0.15964 0.42151 0.0
C747 C 0.7537 0.14866 0.40423 0.0
C748 C 0.75365 0.14675 0.35898 0.0
C749 C 0.78865 0.15746 0.14766 0.0
C750 C 0.79699 0.14853 0.16164 0.0
C751 C 0.77681 0.15772 0.16442 0.0
C752 C 0.77304 0.149 0.19525 0.0
C753 C 0.78122 0.13985 0.2083 0.0
C754 C 0.79307 0.13957 0.1915 0.0
C755 C 0.76085 0.14998 0.21594 0.0
C756 C 0.76022 0.15124 0.26162 0.0
C757 C 0.75003 0.15076 0.19083 0.0
C758 C 0.75003 0.14873 0.14278 0.0
C759 C 0.75518 0.13809 0.12492 0.0
C760 C 0.75521 0.13625 0.07964 0.0
C761 C 0.75004 0.14496 0.05187 0.0
C762 C 0.74482 0.15552 0.06933 0.0
C763 C 0.74477 0.15741 0.11459 0.0
H764 H 0.75007 0.14352 0.01683 0.0
H765 H 0.74939 0.1611 0.45654 0.0
H766 H 0.56945 0.03539 0.85449 0.0
H767 H 0.56955 0.01521 0.88845 0.0
H768 H 0.60016 0.02573 0.96869 0.0
H769 H 0.60021 0.04592 0.93465 0.0
H770 H 0.60242 0.00234 0.93741 0.0
H771 H 0.57216 0.02663 0.01082 0.0
H772 H 0.55411 0.03999 0.01525 0.0
H773 H 0.53203 0.012 0.95702 0.0
H774 H 0.55 0.99853 0.95166 0.0
H775 H 0.59653 0.95542 0.09705 0.0
H776 H 0.59772 0.97542 0.06159 0.0
H777 H 0.56626 0.96654 0.98299 0.0
H778 H 0.56489 0.94666 0.01857 0.0
H779 H 0.56473 0.98929 0.01435 0.0
H780 H 0.59481 0.96502 0.94024 0.0
H781 H 0.61281 0.9516 0.93489 0.0
H782 H 0.63511 0.97935 0.99351 0.0
H783 H 0.6172 0.99288 -0.00023 0.0
C784 C 0.57629 0.03338 0.879 0.0
C785 C 0.58475 0.0423 0.89214 0.0
C786 C 0.57631 0.02186 0.89848 0.0
C787 C 0.58475 0.01906 0.93154 0.0
C788 C 0.59355 0.02774 0.94334 0.0
C789 C 0.59354 0.03927 0.92391 0.0
C790 C 0.58405 0.00728 0.95509 0.0
C791 C 0.59424 -0.00047 0.95471 0.0
C792 C 0.5733 0.00356 0.97697 0.0
C793 C 0.56245 0.01162 0.98045 0.0
C794 C 0.56348 0.02336 0.99865 0.0
C795 C 0.55325 0.03095 0.00138 0.0
C796 C 0.54193 0.02686 0.98632 0.0
C797 C 0.54081 0.01516 0.96862 0.0
C798 C 0.55101 0.00754 0.96576 0.0
C799 C 0.58983 0.95775 0.07237 0.0
C800 C 0.58064 0.94944 0.0605 0.0
C801 C 0.59056 0.96915 0.05199 0.0
C802 C 0.58217 0.97239 0.01927 0.0
C803 C 0.57284 0.96421 0.00809 0.0
C804 C 0.5721 0.95283 0.02843 0.0
C805 C 0.58307 0.98429 0.99649 0.0
C806 C 0.57292 0.99208 0.99709 0.0
C807 C 0.59385 0.98802 0.97475 0.0
C808 C 0.60464 0.97991 0.97089 0.0
C809 C 0.60353 0.96823 0.95231 0.0
C810 C 0.61372 0.9606 0.94906 0.0
C811 C 0.62509 0.9646 0.96396 0.0
C812 C 0.6263 0.97625 0.98204 0.0
C813 C 0.61613 0.98391 0.98542 0.0
H814 H 0.63296 0.95869 0.96141 0.0
H815 H 0.53403 0.03275 0.98846 0.0
H816 H 0.70229 0.64634 0.67588 0.0
H817 H 0.72254 0.64651 0.70915 0.0
H818 H 0.73147 0.6793 0.63789 0.0
H819 H 0.71126 0.67915 0.60402 0.0
H820 H 0.75049 0.66298 0.63963 0.0
H821 H 0.72245 0.68119 0.74238 0.0
H822 H 0.70385 0.68177 0.78773 0.0
H823 H 0.71584 0.64994 0.85754 0.0
H824 H 0.73445 0.64909 0.81216 0.0
H825 H 0.79923 0.68616 0.76384 0.0
H826 H 0.7795 0.68337 0.7284 0.0
H827 H 0.77296 0.65128 0.80671 0.0
H828 H 0.79271 0.65407 0.84285 0.0
H829 H 0.75284 0.66579 0.80158 0.0
H830 H 0.78142 0.64815 0.70199 0.0
H831 H 0.79996 0.64735 0.65635 0.0
H832 H 0.78701 0.67766 0.58041 0.0
H833 H 0.76846 0.67877 0.62603 0.0
C834 C 0.7086 0.65353 0.66689 0.0
C835 C 0.70513 0.6628 0.63755 0.0
C836 C 0.72015 0.65363 0.68607 0.0
C837 C 0.72841 0.66302 0.67646 0.0
C838 C 0.72519 0.67199 0.64581 0.0
C839 C 0.71363 0.6719 0.62657 0.0
C840 C 0.74024 0.66377 0.69967 0.0
C841 C 0.75102 0.66372 0.67499 0.0
C842 C 0.74089 0.66441 0.74589 0.0
C843 C 0.72978 0.66501 0.77359 0.0
C844 C 0.72108 0.67427 0.7672 0.0
C845 C 0.71054 0.67465 0.79294 0.0
C846 C 0.70865 0.66588 0.82542 0.0
C847 C 0.71731 0.65672 0.83233 0.0
C848 C 0.72786 0.65629 0.80664 0.0
C849 C 0.7936 0.67853 0.77372 0.0
C850 C 0.79757 0.6703 0.80602 0.0
C851 C 0.78234 0.67691 0.75325 0.0
C852 C 0.77487 0.66701 0.76445 0.0
C853 C 0.77864 0.65895 0.79748 0.0
C854 C 0.78992 0.66055 0.81803 0.0
C855 C 0.76312 0.66513 0.74152 0.0
C856 C 0.75234 0.66497 0.76624 0.0
C857 C 0.76247 0.66427 0.69534 0.0
C858 C 0.7736 0.66361 0.6677 0.0
C859 C 0.78257 0.65471 0.67578 0.0
C860 C 0.79307 0.65419 0.64988 0.0
C861 C 0.79467 0.66247 0.61557 0.0
C862 C 0.78576 0.67127 0.60703 0.0
C863 C 0.77524 0.67184 0.63288 0.0
H864 H 0.80281 0.66205 0.59554 0.0
H865 H 0.70047 0.66618 0.84529 0.0
H866 H 0.58533 0.45648 0.88969 0.0
H867 H 0.58482 0.47773 0.91383 0.0
H868 H 0.59351 0.4664 0.04545 0.0
H869 H 0.59377 0.44513 0.02182 0.0
H870 H 0.57545 0.4822 0.04653 0.0
H871 H 0.61481 0.48043 0.97933 0.0
H872 H 0.62971 0.47617 0.9208 0.0
H873 H 0.61148 0.50161 0.83625 0.0
H874 H 0.59637 0.5059 0.89409 0.0
H875 H 0.58809 0.54206 0.12665 0.0
H876 H 0.59037 0.52073 0.10422 0.0
H877 H 0.57838 0.53002 0.97396 0.0
H878 H 0.5761 0.55132 0.99596 0.0
H879 H 0.59882 0.51528 0.974 0.0
H880 H 0.55911 0.5164 0.04176 0.0
H881 H 0.5445 0.52063 0.10125 0.0
H882 H 0.56403 0.49629 0.18624 0.0
H883 H 0.57886 0.49204 0.12739 0.0
C884 C 0.58721 0.45852 0.92371 0.0
C885 C 0.58958 0.44912 0.95385 0.0
C886 C 0.58697 0.47067 0.93743 0.0
C887 C 0.58924 0.47366 0.98139 0.0
C888 C 0.59172 0.4643 0.01141 0.0
C889 C 0.59188 0.45215 0.99779 0.0
C890 C 0.58861 0.48651 0.99643 0.0
C891 C 0.58071 0.48939 0.0311 0.0
C892 C 0.5953 0.49594 0.97578 0.0
C893 C 0.60439 0.4934 0.94092 0.0
C894 C 0.61392 0.48504 0.94814 0.0
C895 C 0.62241 0.48264 0.91511 0.0
C896 C 0.62152 0.48859 0.8748 0.0
C897 C 0.61215 0.49699 0.86748 0.0
C898 C 0.60363 0.49942 0.90039 0.0
C899 C 0.58593 0.53955 0.09325 0.0
C900 C 0.58187 0.54836 0.06312 0.0
C901 C 0.58722 0.52737 0.08053 0.0
C902 C 0.58448 0.52381 0.03751 0.0
C903 C 0.58055 0.5326 0.00729 0.0
C904 C 0.5792 0.54475 0.02002 0.0
C905 C 0.58564 0.51091 0.02388 0.0
C906 C 0.59362 0.50804 0.98949 0.0
C907 C 0.57909 0.50148 0.04495 0.0
C908 C 0.57017 0.504 0.08032 0.0
C909 C 0.56035 0.51203 0.07325 0.0
C910 C 0.55202 0.51442 0.10683 0.0
C911 C 0.55336 0.50876 0.14754 0.0
C912 C 0.56302 0.50068 0.15472 0.0
C913 C 0.57138 0.49827 0.12125 0.0
H914 H 0.5469 0.51062 0.1735 0.0
H915 H 0.62811 0.48672 0.84927 0.0
H916 H 0.70671 0.34627 0.36034 0.0
H917 H 0.72681 0.34775 0.32566 0.0
H918 H 0.71798 0.3172 0.24251 0.0
H919 H 0.698 0.31557 0.27712 0.0
H920 H 0.74104 0.31565 0.27375 0.0
H921 H 0.7156 0.34579 0.20454 0.0
H922 H 0.70177 0.36353 0.20318 0.0
H923 H 0.72963 0.38585 0.26102 0.0
H924 H 0.74357 0.36818 0.26341 0.0
H925 H 0.78465 0.3215 0.10664 0.0
H926 H 0.76497 0.32147 0.14417 0.0
H927 H 0.77662 0.35172 0.22416 0.0
H928 H 0.79632 0.3519 0.18656 0.0
H929 H 0.75265 0.35395 0.19767 0.0
H930 H 0.77827 0.32376 0.26485 0.0
H931 H 0.79197 0.30591 0.26599 0.0
H932 H 0.76359 0.28361 0.21145 0.0
H933 H 0.74977 0.30137 0.20938 0.0
C934 C 0.7091 0.33979 0.33499 0.0
C935 C 0.70074 0.33085 0.32129 0.0
C936 C 0.72056 0.34069 0.31507 0.0
C937 C 0.7238 0.33268 0.28116 0.0
C938 C 0.71564 0.32349 0.26855 0.0
C939 C 0.7042 0.3226 0.28831 0.0
C940 C 0.73557 0.33399 0.25784 0.0
C941 C 0.74353 0.32398 0.25678 0.0
C942 C 0.7389 0.34496 0.23646 0.0
C943 C 0.73058 0.35563 0.23459 0.0
C944 C 0.71875 0.35446 0.21728 0.0
C945 C 0.71089 0.36451 0.21628 0.0
C946 C 0.71481 0.3758 0.23211 0.0
C947 C 0.7266 0.37709 0.24885 0.0
C948 C 0.73448 0.36706 0.25002 0.0
C949 C 0.78299 0.32825 0.13183 0.0
C950 C 0.7921 0.33662 0.1439 0.0
C951 C 0.77176 0.32819 0.15335 0.0
C952 C 0.76944 0.33646 0.18741 0.0
C953 C 0.77827 0.34523 0.19808 0.0
C954 C 0.78952 0.34529 0.1766 0.0
C955 C 0.75804 0.33556 0.21323 0.0
C956 C 0.75017 0.34565 0.21481 0.0
C957 C 0.75477 0.32465 0.23505 0.0
C958 C 0.76303 0.31392 0.23659 0.0
C959 C 0.77498 0.31507 0.2528 0.0
C960 C 0.78276 0.30497 0.25365 0.0
C961 C 0.77866 0.29364 0.2387 0.0
C962 C 0.76676 0.29239 0.22297 0.0
C963 C 0.75894 0.30247 0.22198 0.0
H964 H 0.7847 0.28583 0.23938 0.0
H965 H 0.70871 0.38357 0.23131 0.0
H966 H 0.93413 0.45222 0.52946 0.0
H967 H 0.93249 0.47253 0.49775 0.0
H968 H 0.89774 0.47762 0.56159 0.0
H969 H 0.89921 0.45709 0.59299 0.0
H970 H 0.89687 0.48497 0.47779 0.0
H971 H 0.92318 0.49198 0.59968 0.0
H972 H 0.94081 0.48843 0.64815 0.0
H973 H 0.96531 0.49557 0.54149 0.0
H974 H 0.94782 0.499 0.49219 0.0
H975 H 0.89571 0.5491 0.43254 0.0
H976 H 0.89561 0.5291 0.46797 0.0
H977 H 0.92981 0.52028 0.40563 0.0
H978 H 0.93004 0.54027 0.37031 0.0
H979 H 0.93013 0.51538 0.49289 0.0
H980 H 0.90358 0.50749 0.37056 0.0
H981 H 0.88584 0.5111 0.32264 0.0
H982 H 0.86164 0.50584 0.43157 0.0
H983 H 0.87926 0.50236 0.48029 0.0
C984 C 0.92616 0.45765 0.53701 0.0
C985 C 0.91681 0.45305 0.56388 0.0
C986 C 0.92526 0.4693 0.51896 0.0
C987 C 0.91507 0.47665 0.52777 0.0
C988 C 0.9057 0.4721 0.5545 0.0
C989 C 0.90657 0.46039 0.57251 0.0
C990 C 0.91416 0.48898 0.50808 0.0
C991 C 0.90404 0.49171 0.4817 0.0
C992 C 0.92363 0.49767 0.51255 0.0
C993 C 0.93418 0.49565 0.54215 0.0
C994 C 0.93233 0.49271 0.58647 0.0
C995 C 0.94229 0.49073 0.61411 0.0
C996 C 0.95417 0.49174 0.59789 0.0
C997 C 0.9561 0.49477 0.554 0.0
C998 C 0.94617 0.49675 0.52621 0.0
C999 C 0.90316 0.54286 0.42604 0.0
C1000 C 0.91289 0.54628 0.39861 0.0
C1001 C 0.90307 0.53143 0.44624 0.0
C1002 C 0.91268 0.5232 0.43926 0.0
C1003 C 0.92232 0.52651 0.41147 0.0
C1004 C 0.92241 0.53793 0.39118 0.0
C1005 C 0.91294 0.51128 0.46213 0.0
C1006 C 0.92294 0.50866 0.4892 0.0
C1007 C 0.90334 0.50272 0.45842 0.0
C1008 C 0.89274 0.5048 0.42916 0.0
C1009 C 0.89448 0.50721 0.38438 0.0
C1010 C 0.88445 0.50921 0.35706 0.0
C1011 C 0.87263 0.50874 0.37408 0.0
C1012 C 0.87081 0.50623 0.41845 0.0
C1013 C 0.88081 0.50423 0.44592 0.0
H1014 H 0.86487 0.51029 0.35287 0.0
H1015 H 0.96187 0.49021 0.61934 0.0
H1016 H 0.29225 0.30903 0.30236 0.0
H1017 H 0.27264 0.31147 0.26566 0.0
H1018 H 0.26835 0.34701 0.32418 0.0
H1019 H 0.28804 0.34467 0.36122 0.0
H1020 H 0.24678 0.33293 0.32395 0.0
H1021 H 0.27793 0.34593 0.22385 0.0
H1022 H 0.29717 0.3439 0.18269 0.0
H1023 H 0.28317 0.3122 0.11717 0.0
H1024 H 0.2639 0.31393 0.15849 0.0
H1025 H 0.19895 0.35124 0.18253 0.0
H1026 H 0.21845 0.35093 0.22126 0.0
H1027 H 0.22768 0.3169 0.15848 0.0
H1028 H 0.20834 0.31727 0.11891 0.0
H1029 H 0.24699 0.33158 0.16153 0.0
H1030 H 0.21643 0.31774 0.26325 0.0
H1031 H 0.19724 0.31915 0.30513 0.0
H1032 H 0.21008 0.35175 0.36802 0.0
H1033 H 0.22928 0.35062 0.32602 0.0
C1034 C 0.2871 0.31732 0.30789 0.0
C1035 C 0.29175 0.32671 0.3344 0.0
C1036 C 0.27592 0.31871 0.28676 0.0
C1037 C 0.26918 0.32949 0.29175 0.0
C1038 C 0.27348 0.33865 0.31982 0.0
C1039 C 0.28472 0.3373 0.34086 0.0
C1040 C 0.25789 0.33135 0.26613 0.0
C1041 C 0.24682 0.33283 0.28844 0.0
C1042 C 0.25798 0.33098 0.21984 0.0
C1043 C 0.26951 0.33 0.19456 0.0
C1044 C 0.27898 0.33847 0.20091 0.0
C1045 C 0.28989 0.33738 0.17752 0.0
C1046 C 0.2914 0.32791 0.14741 0.0
C1047 C 0.28199 0.31953 0.14054 0.0
C1048 C 0.27107 0.32056 0.16391 0.0
C1049 C 0.20518 0.34375 0.17665 0.0
C1050 C 0.20207 0.33423 0.14787 0.0
C1051 C 0.21629 0.34356 0.19898 0.0
C1052 C 0.22442 0.33378 0.19332 0.0
C1053 C 0.22152 0.32451 0.16343 0.0
C1054 C 0.21045 0.32473 0.14089 0.0
C1055 C 0.2358 0.33302 0.2193 0.0
C1056 C 0.24692 0.33176 0.19704 0.0
C1057 C 0.23573 0.33352 0.26564 0.0
C1058 C 0.22423 0.33417 0.29115 0.0
C1059 C 0.21512 0.32526 0.28577 0.0
C1060 C 0.20425 0.326 0.30956 0.0
C1061 C 0.20243 0.33556 0.33912 0.0
C1062 C 0.21149 0.34436 0.34505 0.0
C1063 C 0.22237 0.34367 0.32128 0.0
H1064 H 0.194 0.33612 0.3575 0.0
H1065 H 0.29986 0.32708 0.12933 0.0
H1066 H 0.39795 0.54105 0.0856 0.0
H1067 H 0.3964 0.52086 0.05175 0.0
H1068 H 0.43153 0.52602 0.99082 0.0
H1069 H 0.43313 0.54618 0.02416 0.0
H1070 H 0.41465 0.51728 0.9334 0.0
H1071 H 0.42877 0.50794 0.07909 0.0
H1072 H 0.42799 0.50831 0.15974 0.0
H1073 H 0.39308 0.49056 0.15726 0.0
H1074 H 0.39358 0.49023 0.07652 0.0
H1075 H 0.43016 0.45698 0.87181 0.0
H1076 H 0.42918 0.47748 0.90284 0.0
H1077 H 0.39484 0.46872 0.96439 0.0
H1078 H 0.39585 0.44811 0.93411 0.0
H1079 H 0.40981 0.47945 0.02092 0.0
H1080 H 0.39604 0.48771 0.87562 0.0
H1081 H 0.39667 0.4873 0.79496 0.0
H1082 H 0.43048 0.50709 0.79625 0.0
H1083 H 0.43014 0.50747 0.87697 0.0
C1084 C 0.40536 0.53786 0.06513 0.0
C1085 C 0.41567 0.54521 0.05763 0.0
C1086 C 0.40447 0.52633 0.04589 0.0
C1087 C 0.41388 0.52194 0.01897 0.0
C1088 C 0.42416 0.52926 0.01143 0.0
C1089 C 0.42508 0.54076 0.03069 0.0
C1090 C 0.41303 0.50976 0.99828 0.0
C1091 C 0.41371 0.50898 0.95251 0.0
C1092 C 0.41145 0.499 0.02323 0.0
C1093 C 0.41115 0.49918 0.07176 0.0
C1094 C 0.42088 0.50421 0.09573 0.0
C1095 C 0.4205 0.5044 0.14146 0.0
C1096 C 0.41048 0.4995 0.16361 0.0
C1097 C 0.40083 0.49437 0.14006 0.0
C1098 C 0.40116 0.49417 0.09432 0.0
C1099 C 0.42234 0.45944 0.8916 0.0
C1100 C 0.41309 0.45091 0.90049 0.0
C1101 C 0.42177 0.47118 0.90919 0.0
C1102 C 0.41188 0.47466 0.93562 0.0
C1103 C 0.40255 0.46622 0.94407 0.0
C1104 C 0.40313 0.45446 0.92662 0.0
C1105 C 0.41156 0.48693 0.95596 0.0
C1106 C 0.41065 0.48774 0.00171 0.0
C1107 C 0.41289 0.49772 0.93095 0.0
C1108 C 0.41312 0.49752 0.88238 0.0
C1109 C 0.40366 0.49189 0.85872 0.0
C1110 C 0.40396 0.49168 0.81298 0.0
C1111 C 0.41362 0.49714 0.7905 0.0
C1112 C 0.423 0.50285 0.81371 0.0
C1113 C 0.42276 0.50308 0.85946 0.0
H1114 H 0.41383 0.49697 0.75509 0.0
H1115 H 0.4102 0.49965 0.19902 0.0
H1116 H 0.29311 0.64559 0.63239 0.0
H1117 H 0.27291 0.64108 0.66291 0.0
H1118 H 0.27412 0.6745 0.73724 0.0
H1119 H 0.29419 0.67913 0.70683 0.0
H1120 H 0.26741 0.65395 0.78684 0.0
H1121 H 0.2571 0.67355 0.64978 0.0
H1122 H 0.25762 0.67605 0.56959 0.0
H1123 H 0.24245 0.64022 0.55329 0.0
H1124 H 0.242 0.63744 0.63345 0.0
H1125 H 0.20728 0.666 0.85301 0.0
H1126 H 0.22777 0.66599 0.82213 0.0
H1127 H 0.219 0.63405 0.74585 0.0
H1128 H 0.19832 0.6341 0.77617 0.0
H1129 H 0.22993 0.65095 0.69644 0.0
H1130 H 0.23823 0.63187 0.83279 0.0
H1131 H 0.23769 0.629 0.9128 0.0
H1132 H 0.25677 0.66284 0.9308 0.0
H1133 H 0.25727 0.66602 0.85089 0.0
C1134 C 0.28903 0.65201 0.65504 0.0
C1135 C 0.29523 0.66272 0.66718 0.0
C1136 C 0.27751 0.64942 0.67238 0.0
C1137 C 0.27206 0.65747 0.70229 0.0
C1138 C 0.27821 0.66817 0.71429 0.0
C1139 C 0.28964 0.67082 0.69668 0.0
C1140 C 0.26 0.65474 0.72165 0.0
C1141 C 0.25918 0.65338 0.7672 0.0
C1142 C 0.24939 0.65357 0.69572 0.0
C1143 C 0.24966 0.65523 0.64757 0.0
C1144 C 0.25399 0.66616 0.62908 0.0
C1145 C 0.25424 0.66764 0.58364 0.0
C1146 C 0.25011 0.65828 0.55635 0.0
C1147 C 0.24567 0.64745 0.57446 0.0
C1148 C 0.24541 0.64592 0.61989 0.0
C1149 C 0.20971 0.65889 0.82998 0.0
C1150 C 0.20116 0.65005 0.81703 0.0
C1151 C 0.22147 0.65887 0.8125 0.0
C1152 C 0.22496 0.64994 0.78202 0.0
C1153 C 0.2165 0.641 0.76941 0.0
C1154 C 0.2047 0.64102 0.78688 0.0
C1155 C 0.23725 0.65041 0.7619 0.0
C1156 C 0.23815 0.65134 0.71617 0.0
C1157 C 0.24796 0.65109 0.78767 0.0
C1158 C 0.2477 0.64923 0.83581 0.0
C1159 C 0.24223 0.63875 0.85381 0.0
C1160 C 0.24195 0.63706 0.89915 0.0
C1161 C 0.24717 0.64575 0.92687 0.0
C1162 C 0.25272 0.65613 0.90929 0.0
C1163 C 0.25302 0.65787 0.86396 0.0
H1164 H 0.24695 0.64442 0.96196 0.0
H1165 H 0.25031 0.65945 0.52118 0.0
H1166 H 0.11124 0.45228 0.52699 0.0
H1167 H 0.10918 0.47274 0.4958 0.0
H1168 H 0.07552 0.47783 0.56663 0.0
H1169 H 0.07742 0.4574 0.59764 0.0
H1170 H 0.07326 0.48398 0.48113 0.0
H1171 H 0.10134 0.49209 0.59894 0.0
H1172 H 0.12016 0.4892 0.64187 0.0
H1173 H 0.14177 0.49812 0.52905 0.0
H1174 H 0.12306 0.50091 0.48527 0.0
H1175 H 0.06391 0.5473 0.45721 0.0
H1176 H 0.06734 0.52666 0.48438 0.0
H1177 H 0.10157 0.5251 0.41483 0.0
H1178 H 0.09834 0.54591 0.38825 0.0
H1179 H 0.10422 0.51674 0.49574 0.0
H1180 H 0.07636 0.50941 0.37836 0.0
H1181 H 0.05765 0.51224 0.33472 0.0
H1182 H 0.0358 0.50162 0.44502 0.0
H1183 H 0.05438 0.49889 0.48953 0.0
C1184 C 0.10345 0.4578 0.53626 0.0
C1185 C 0.09448 0.45321 0.56476 0.0
C1186 C 0.10231 0.46949 0.51846 0.0
C1187 C 0.09222 0.4768 0.52903 0.0
C1188 C 0.08336 0.47231 0.55798 0.0
C1189 C 0.08449 0.46065 0.57579 0.0
C1190 C 0.09062 0.48898 0.50885 0.0
C1191 C 0.07996 0.4912 0.48473 0.0
C1192 C 0.09955 0.49824 0.51242 0.0
C1193 C 0.1108 0.49658 0.53871 0.0
C1194 C 0.1101 0.49333 0.58319 0.0
C1195 C 0.12075 0.49174 0.60769 0.0
C1196 C 0.13216 0.49344 0.58816 0.0
C1197 C 0.13293 0.49678 0.54411 0.0
C1198 C 0.12231 0.49838 0.51945 0.0
C1199 C 0.07214 0.54255 0.4474 0.0
C1200 C 0.08085 0.54823 0.4205 0.0
C1201 C 0.07406 0.53072 0.46285 0.0
C1202 C 0.08464 0.52428 0.45121 0.0
C1203 C 0.09333 0.5299 0.42416 0.0
C1204 C 0.09145 0.54177 0.4089 0.0
C1205 C 0.08677 0.51181 0.46842 0.0
C1206 C 0.09754 0.50951 0.49191 0.0
C1207 C 0.07796 0.50246 0.46412 0.0
C1208 C 0.06676 0.50405 0.43739 0.0
C1209 C 0.06756 0.50777 0.39341 0.0
C1210 C 0.05698 0.50934 0.3685 0.0
C1211 C 0.04554 0.50714 0.38711 0.0
C1212 C 0.04467 0.50333 0.43066 0.0
C1213 C 0.05522 0.50176 0.45573 0.0
H1214 H 0.03736 0.50836 0.36777 0.0
H1215 H 0.14039 0.4922 0.60719 0.0
H1216 H 0.16353 0.13731 0.02014 0.0
H1217 H 0.15426 0.12526 0.96143 0.0
H1218 H 0.12098 0.14599 0.9742 0.0
H1219 H 0.13004 0.15784 0.03332 0.0
H1220 H 0.11603 0.12248 0.96958 0.0
H1221 H 0.14137 0.15068 0.88922 0.0
H1222 H 0.16063 0.1609 0.86922 0.0
H1223 H 0.17635 0.12637 0.83416 0.0
H1224 H 0.15723 0.11593 0.85449 0.0
H1225 H 0.08581 0.11262 0.76869 0.0
H1226 H 0.09673 0.12086 0.83169 0.0
H1227 H 0.12597 0.09519 0.81034 0.0
H1228 H 0.11509 0.08687 0.74701 0.0
H1229 H 0.13414 0.11882 0.82134 0.0
H1230 H 0.10765 0.09102 0.89527 0.0
H1231 H 0.08804 0.08128 0.91371 0.0
H1232 H 0.07411 0.11558 0.9597 0.0
H1233 H 0.09359 0.12557 0.94095 0.0
C1234 C 0.15426 0.13933 0.01023 0.0
C1235 C 0.14751 0.14852 0.03137 0.0
C1236 C 0.14899 0.13246 0.97664 0.0
C1237 C 0.13694 0.13477 0.96329 0.0
C1238 C 0.13026 0.14401 0.9841 0.0
C1239 C 0.13548 0.15081 0.0178 0.0
C1240 C 0.13113 0.12749 0.92812 0.0
C1241 C 0.11994 0.12177 0.93705 0.0
C1242 C 0.13642 0.12625 0.88608 0.0
C1243 C 0.14792 0.13251 0.87387 0.0
C1244 C 0.14897 0.14526 0.87759 0.0
C1245 C 0.15986 0.15109 0.86613 0.0
C1246 C 0.16972 0.14428 0.85056 0.0
C1247 C 0.16871 0.13163 0.84631 0.0
C1248 C 0.15785 0.12575 0.85777 0.0
C1249 C 0.09451 0.10864 0.77758 0.0
C1250 C 0.09959 0.0991 0.75284 0.0
C1251 C 0.10071 0.11333 0.81369 0.0
C1252 C 0.11211 0.10858 0.82578 0.0
C1253 C 0.11717 0.09896 0.80152 0.0
C1254 C 0.11092 0.0942 0.76549 0.0
C1255 C 0.11893 0.11408 0.86261 0.0
C1256 C 0.13031 0.11943 0.85402 0.0
C1257 C 0.11378 0.11505 0.90489 0.0
C1258 C 0.10206 0.10906 0.91639 0.0
C1259 C 0.10038 0.09651 0.909 0.0
C1260 C 0.08929 0.09094 0.91957 0.0
C1261 C 0.07983 0.09781 0.93779 0.0
C1262 C 0.08145 0.11027 0.94557 0.0
C1263 C 0.09252 0.11589 0.93503 0.0
H1264 H 0.07125 0.09348 0.94594 0.0
H1265 H 0.17814 0.14881 0.84169 0.0
H1266 H 0.14136 0.87982 0.92865 0.0
H1267 H 0.13499 0.89001 0.99593 0.0
H1268 H 0.15277 0.86206 0.07234 0.0
H1269 H 0.15886 0.85163 0.00515 0.0
H1270 H 0.13112 0.86612 0.1036 0.0
H1271 H 0.16462 0.89147 0.06238 0.0
H1272 H 0.17703 0.90443 0.01369 0.0
H1273 H 0.14737 0.92981 0.00205 0.0
H1274 H 0.13471 0.91691 0.05021 0.0
H1275 H 0.12632 0.8966 0.30684 0.0
H1276 H 0.13584 0.88873 0.24024 0.0
H1277 H 0.11198 0.91108 0.16176 0.0
H1278 H 0.10227 0.91893 0.22827 0.0
H1279 H 0.13741 0.9102 0.13316 0.0
H1280 H 0.10387 0.88374 0.17281 0.0
H1281 H 0.0921 0.87074 0.22337 0.0
H1282 H 0.12313 0.84726 0.23975 0.0
H1283 H 0.13515 0.86025 0.18977 0.0
C1284 C 0.14398 0.87588 0.95977 0.0
C1285 C 0.15059 0.86491 0.96159 0.0
C1286 C 0.1404 0.88176 0.99823 0.0
C1287 C 0.14353 0.87688 0.03922 0.0
C1288 C 0.15026 0.866 0.04108 0.0
C1289 C 0.15374 0.86005 0.00265 0.0
C1290 C 0.13927 0.88279 0.08014 0.0
C1291 C 0.1327 0.87571 0.1103 0.0
C1292 C 0.14109 0.89538 0.08858 0.0
C1293 C 0.14868 0.90316 0.05959 0.0
C1294 C 0.16071 0.89976 0.04916 0.0
C1295 C 0.16779 0.90711 0.0217 0.0
C1296 C 0.16298 0.91792 0.0047 0.0
C1297 C 0.15108 0.92142 0.0152 0.0
C1298 C 0.14395 0.91411 0.04262 0.0
C1299 C 0.12319 0.89998 0.27547 0.0
C1300 C 0.11347 0.90832 0.27276 0.0
C1301 C 0.12864 0.89546 0.2375 0.0
C1302 C 0.12453 0.89928 0.19626 0.0
C1303 C 0.11525 0.90804 0.1934 0.0
C1304 C 0.10969 0.91247 0.23137 0.0
C1305 C 0.12935 0.89349 0.15618 0.0
C1306 C 0.13596 0.90059 0.1263 0.0
C1307 C 0.12768 0.8809 0.14811 0.0
C1308 C 0.12045 0.87305 0.17795 0.0
C1309 C 0.10822 0.87587 0.18751 0.0
C1310 C 0.1015 0.86849 0.216 0.0
C1311 C 0.10688 0.8582 0.23487 0.0
C1312 C 0.11898 0.85525 0.22518 0.0
C1313 C 0.12575 0.86261 0.19675 0.0
H1314 H 0.10166 0.8525 0.25691 0.0
H1315 H 0.16848 0.92359 0.98345 0.0
H1316 H 0.36695 0.90297 0.19068 0.0
H1317 H 0.35725 0.894 0.25529 0.0
H1318 H 0.39202 0.89332 0.32137 0.0
H1319 H 0.40179 0.90216 0.25703 0.0
H1320 H 0.3806 0.87143 0.32436 0.0
H1321 H 0.37015 0.91361 0.35033 0.0
H1322 H 0.36121 0.93359 0.33164 0.0
H1323 H 0.32595 0.91699 0.31735 0.0
H1324 H 0.33472 0.89688 0.33539 0.0
H1325 H 0.36574 0.85755 0.54046 0.0
H1326 H 0.37228 0.86817 0.47452 0.0
H1327 H 0.33551 0.86699 0.42437 0.0
H1328 H 0.32878 0.85648 0.49103 0.0
H1329 H 0.34627 0.88906 0.4093 0.0
H1330 H 0.35625 0.84717 0.38624 0.0
H1331 H 0.36495 0.82705 0.40445 0.0
H1332 H 0.40076 0.8428 0.4114 0.0
H1333 H 0.39225 0.86306 0.39385 0.0
C1334 C 0.3725 0.90104 0.21915 0.0
C1335 C 0.38515 0.90321 0.21865 0.0
C1336 C 0.36694 0.89595 0.25607 0.0
C1337 C 0.37393 0.89301 0.29308 0.0
C1338 C 0.38648 0.89548 0.29305 0.0
C1339 C 0.39204 0.90056 0.25627 0.0
C1340 C 0.36838 0.88671 0.33101 0.0
C1341 C 0.37318 0.87535 0.34324 0.0
C1342 C 0.3584 0.89163 0.35451 0.0
C1343 C 0.35312 0.90372 0.34373 0.0
C1344 C 0.36051 0.9142 0.34282 0.0
C1345 C 0.35547 0.92556 0.33243 0.0
C1346 C 0.34303 0.92655 0.32318 0.0
C1347 C 0.33559 0.9162 0.32444 0.0
C1348 C 0.34059 0.90483 0.33478 0.0
C1349 C 0.35901 0.85955 0.51552 0.0
C1350 C 0.34676 0.85608 0.52079 0.0
C1351 C 0.36278 0.86561 0.47779 0.0
C1352 C 0.35442 0.86818 0.44427 0.0
C1353 C 0.34211 0.86504 0.44983 0.0
C1354 C 0.33829 0.85901 0.48782 0.0
C1355 C 0.35872 0.87394 0.40324 0.0
C1356 C 0.35364 0.88513 0.39026 0.0
C1357 C 0.36842 0.86884 0.37876 0.0
C1358 C 0.37359 0.85665 0.38905 0.0
C1359 C 0.36597 0.84636 0.39195 0.0
C1360 C 0.37087 0.83493 0.40211 0.0
C1361 C 0.3834 0.83365 0.40916 0.0
C1362 C 0.39106 0.8438 0.40596 0.0
C1363 C 0.3862 0.85526 0.39585 0.0
H1364 H 0.38717 0.8248 0.41703 0.0
H1365 H 0.33914 0.93535 0.31515 0.0
H1366 H 0.36743 0.08842 0.79175 0.0
H1367 H 0.35891 0.09768 0.72557 0.0
H1368 H 0.39361 0.09364 0.66055 0.0
H1369 H 0.40222 0.08448 0.72643 0.0
H1370 H 0.3849 0.11676 0.65553 0.0
H1371 H 0.36958 0.07608 0.63192 0.0
H1372 H 0.35838 0.05735 0.65148 0.0
H1373 H 0.32525 0.07795 0.66434 0.0
H1374 H 0.33629 0.09685 0.64542 0.0
H1375 H 0.3705 0.13339 0.44092 0.0
H1376 H 0.37628 0.12146 0.50497 0.0
H1377 H 0.34025 0.12629 0.55913 0.0
H1378 H 0.33428 0.13811 0.49449 0.0
H1379 H 0.34856 0.10317 0.57194 0.0
H1380 H 0.36333 0.14363 0.59563 0.0
H1381 H 0.37418 0.16268 0.57754 0.0
H1382 H 0.40791 0.14296 0.56728 0.0
H1383 H 0.39723 0.12375 0.58471 0.0
C1384 C 0.3732 0.08934 0.76317 0.0
C1385 C 0.38552 0.08579 0.76445 0.0
C1386 C 0.3683 0.0946 0.72535 0.0
C1387 C 0.37564 0.09634 0.68821 0.0
C1388 C 0.38781 0.09241 0.68895 0.0
C1389 C 0.3927 0.08715 0.72663 0.0
C1390 C 0.37095 0.10302 0.64961 0.0
C1391 C 0.37706 0.11369 0.63688 0.0
C1392 C 0.36044 0.09925 0.62639 0.0
C1393 C 0.35379 0.0879 0.6377 0.0
C1394 C 0.35993 0.07664 0.63929 0.0
C1395 C 0.3536 0.06598 0.65018 0.0
C1396 C 0.34112 0.06646 0.65927 0.0
C1397 C 0.33492 0.0776 0.65736 0.0
C1398 C 0.34121 0.08828 0.64651 0.0
C1399 C 0.36377 0.13189 0.46632 0.0
C1400 C 0.35197 0.1368 0.46284 0.0
C1401 C 0.3671 0.12508 0.50296 0.0
C1402 C 0.35876 0.12317 0.53711 0.0
C1403 C 0.34683 0.12771 0.53317 0.0
C1404 C 0.34346 0.13449 0.49631 0.0
C1405 C 0.36268 0.11676 0.5774 0.0
C1406 C 0.3564 0.10622 0.59062 0.0
C1407 C 0.37299 0.12069 0.60143 0.0
C1408 C 0.37946 0.13223 0.59109 0.0
C1409 C 0.37305 0.14334 0.58919 0.0
C1410 C 0.37917 0.15417 0.57911 0.0
C1411 C 0.39172 0.15403 0.57116 0.0
C1412 C 0.39819 0.14306 0.57339 0.0
C1413 C 0.3921 0.1322 0.58341 0.0
H1414 H 0.39645 0.16243 0.56337 0.0
H1415 H 0.33624 0.05821 0.66768 0.0
H1416 H 0.83649 0.83645 0.05355 0.0
H1417 H 0.8458 0.84719 0.11513 0.0
H1418 H 0.84859 0.87985 0.03685 0.0
H1419 H 0.83954 0.86911 0.97485 0.0
H1420 H 0.86953 0.87517 0.07526 0.0
H1421 H 0.82799 0.87752 0.12221 0.0
H1422 H 0.80748 0.86974 0.14003 0.0
H1423 H 0.82268 0.84684 0.24019 0.0
H1424 H 0.84332 0.85436 0.22257 0.0
H1425 H 0.89074 0.91159 0.2521 0.0
H1426 H 0.87782 0.90378 0.19309 0.0
H1427 H 0.87507 0.86914 0.25948 0.0
H1428 H 0.88782 0.87689 0.31874 0.0
H1429 H 0.85321 0.87631 0.22667 0.0
H1430 H 0.89474 0.87283 0.1755 0.0
H1431 H 0.91529 0.88048 0.15746 0.0
H1432 H 0.89986 0.90556 0.06474 0.0
H1433 H 0.87919 0.89816 0.08268 0.0
C1434 C 0.83894 0.84596 0.04961 0.0
C1435 C 0.83733 0.85191 0.00927 0.0
C1436 C 0.84422 0.85211 0.08491 0.0
C1437 C 0.84781 0.86435 0.0807 0.0
C1438 C 0.8459 0.8704 0.04081 0.0
C1439 C 0.84071 0.86425 0.00544 0.0
C1440 C 0.85431 0.8706 0.11687 0.0
C1441 C 0.86584 0.87562 0.10818 0.0
C1442 C 0.84963 0.87096 0.16003 0.0
C1443 C 0.83722 0.86643 0.17081 0.0
C1444 C 0.82698 0.87075 0.14781 0.0
C1445 C 0.81532 0.8664 0.15792 0.0
C1446 C 0.81378 0.85778 0.19115 0.0
C1447 C 0.82389 0.85351 0.21443 0.0
C1448 C 0.83557 0.85783 0.20443 0.0
C1449 C 0.88734 0.90232 0.25421 0.0
C1450 C 0.89037 0.89483 0.28994 0.0
C1451 C 0.87998 0.89787 0.22045 0.0
C1452 C 0.87559 0.88584 0.22176 0.0
C1453 C 0.87837 0.87845 0.25787 0.0
C1454 C 0.88571 0.88288 0.29159 0.0
C1455 C 0.86841 0.88078 0.18497 0.0
C1456 C 0.85679 0.87597 0.19359 0.0
C1457 C 0.87299 0.88061 0.1417 0.0
C1458 C 0.88542 0.88504 0.13079 0.0
C1459 C 0.89572 0.88004 0.15152 0.0
C1460 C 0.9074 0.88432 0.14127 0.0
C1461 C 0.90888 0.89353 0.11007 0.0
C1462 C 0.8987 0.89845 0.08896 0.0
C1463 C 0.887 0.89421 0.09914 0.0
H1464 H 0.91792 0.89683 0.10217 0.0
H1465 H 0.80475 0.85442 0.19893 0.0
H1466 H 0.87363 0.14206 0.06154 0.0
H1467 H 0.8831 0.13091 0.00135 0.0
H1468 H 0.84832 0.12858 0.93588 0.0
H1469 H 0.8387 0.13972 0.99626 0.0
H1470 H 0.86097 0.10671 0.93474 0.0
H1471 H 0.86851 0.14869 0.90073 0.0
H1472 H 0.87541 0.16973 0.91493 0.0
H1473 H 0.91184 0.15679 0.93769 0.0
H1474 H 0.90511 0.13564 0.92424 0.0
H1475 H 0.88411 0.09092 0.72381 0.0
H1476 H 0.87381 0.10006 0.78664 0.0
H1477 H 0.90843 0.1043 0.85205 0.0
H1478 H 0.91884 0.09529 0.7891 0.0
H1479 H 0.89549 0.12513 0.85297 0.0
H1480 H 0.88791 0.08306 0.8863 0.0
H1481 H 0.88091 0.06207 0.87181 0.0
H1482 H 0.84451 0.07518 0.84968 0.0
H1483 H 0.85133 0.09628 0.86345 0.0
C1484 C 0.86797 0.13918 0.0344 0.0
C1485 C 0.85542 0.14182 0.03358 0.0
C1486 C 0.87341 0.13283 -2e-05 0.0
C1487 C 0.86643 0.12903 0.96403 0.0
C1488 C 0.85386 0.13146 0.96336 0.0
C1489 C 0.8484 0.13786 0.99777 0.0
C1490 C 0.87233 0.1226 0.92704 0.0
C1491 C 0.86841 0.11078 0.91641 0.0
C1492 C 0.88219 0.12785 0.90385 0.0
C1493 C 0.88628 0.14056 0.9119 0.0
C1494 C 0.87797 0.15031 0.90913 0.0
C1495 C 0.88185 0.16226 0.91698 0.0
C1496 C 0.89405 0.16459 0.92732 0.0
C1497 C 0.90239 0.15497 0.92974 0.0
C1498 C 0.89855 0.143 0.92197 0.0
C1499 C 0.88953 0.09366 0.75176 0.0
C1500 C 0.90231 0.09242 0.75138 0.0
C1501 C 0.88362 0.09884 0.78772 0.0
C1502 C 0.89035 0.10281 0.82409 0.0
C1503 C 0.90307 0.10131 0.82426 0.0
C1504 C 0.90899 0.09612 0.78832 0.0
C1505 C 0.88422 0.10917 0.8608 0.0
C1506 C 0.88807 0.12102 0.87131 0.0
C1507 C 0.87429 0.10395 0.88376 0.0
C1508 C 0.87016 0.09127 0.87549 0.0
C1509 C 0.87843 0.08148 0.87797 0.0
C1510 C 0.87449 0.06956 0.86997 0.0
C1511 C 0.86228 0.06729 0.85972 0.0
C1512 C 0.85397 0.07695 0.85757 0.0
C1513 C 0.85787 0.08889 0.86551 0.0
H1514 H 0.85925 0.05806 0.85354 0.0
H1515 H 0.89704 0.17385 0.93337 0.0
H1516 H 0.61254 0.08585 0.75943 0.0
H1517 H 0.62374 0.09477 0.69777 0.0
H1518 H 0.60332 0.12818 0.71202 0.0
H1519 H 0.5921 0.11938 0.77333 0.0
H1520 H 0.60494 0.12063 0.62655 0.0
H1521 H 0.63173 0.12635 0.7508 0.0
H1522 H 0.64395 0.11946 0.81389 0.0
H1523 H 0.66543 0.09671 0.72929 0.0
H1524 H 0.65321 0.10335 0.66574 0.0
H1525 H 0.63769 0.16424 0.50959 0.0
H1526 H 0.62849 0.15283 0.56961 0.0
H1527 H 0.65298 0.12278 0.54509 0.0
H1528 H 0.66245 0.13428 0.48527 0.0
H1529 H 0.64982 0.12647 0.63199 0.0
H1530 H 0.62416 0.12162 0.50702 0.0
H1531 H 0.61204 0.12831 0.44342 0.0
H1532 H 0.5884 0.14876 0.52812 0.0
H1533 H 0.60048 0.14234 0.59221 0.0
C1534 C 0.61041 0.09508 0.74928 0.0
C1535 C 0.60146 0.10193 0.7713 0.0
C1536 C 0.61685 0.10016 0.71421 0.0
C1537 C 0.61441 0.11215 0.70065 0.0
C1538 C 0.60533 0.11891 0.72205 0.0
C1539 C 0.59895 0.11387 0.75716 0.0
C1540 C 0.62128 0.11779 0.66424 0.0
C1541 C 0.61474 0.122 0.62784 0.0
C1542 C 0.63411 0.1192 0.66547 0.0
C1543 C 0.64147 0.11524 0.70362 0.0
C1544 C 0.63899 0.1198 0.74571 0.0
C1545 C 0.64592 0.11595 0.78154 0.0
C1546 C 0.65543 0.10762 0.77562 0.0
C1547 C 0.65804 0.10314 0.73383 0.0
C1548 C 0.65112 0.10695 0.6979 0.0
C1549 C 0.64121 0.15525 0.51714 0.0
C1550 C 0.65071 0.15011 0.4924 0.0
C1551 C 0.6359 0.14872 0.55136 0.0
C1552 C 0.63988 0.13686 0.56112 0.0
C1553 C 0.64973 0.13189 0.53784 0.0
C1554 C 0.65512 0.13847 0.50369 0.0
C1555 C 0.63342 0.12957 0.59473 0.0
C1556 C 0.64004 0.12501 0.63047 0.0
C1557 C 0.62065 0.12775 0.59283 0.0
C1558 C 0.61329 0.13157 0.55439 0.0
C1559 C 0.61643 0.12761 0.51206 0.0
C1560 C 0.60956 0.13135 0.47592 0.0
C1561 C 0.59947 0.13897 0.48171 0.0
C1562 C 0.59622 0.14286 0.52368 0.0
C1563 C 0.60307 0.13916 0.55993 0.0
H1564 H 0.59416 0.14186 0.45369 0.0
H1565 H 0.6608 0.10466 0.8034 0.0
H1566 H 0.65855 0.87982 0.54923 0.0
H1567 H 0.6506 0.88994 0.48381 0.0
H1568 H 0.64812 0.85518 0.41823 0.0
H1569 H 0.65608 0.84499 0.48335 0.0
H1570 H 0.65696 0.87355 0.36431 0.0
H1571 H 0.62346 0.86687 0.46502 0.0
H1572 H 0.61287 0.8687 0.53594 0.0
H1573 H 0.61388 0.90776 0.52569 0.0
H1574 H 0.62464 0.90615 0.45493 0.0
H1575 H 0.61221 0.88027 0.20208 0.0
H1576 H 0.62458 0.87468 0.26517 0.0
H1577 H 0.62142 0.91131 0.31559 0.0
H1578 H 0.60882 0.91698 0.25256 0.0
H1579 H 0.61713 0.89474 0.37811 0.0
H1580 H 0.6483 0.90146 0.27265 0.0
H1581 H 0.65878 0.89965 0.20153 0.0
H1582 H 0.66235 0.86098 0.22008 0.0
H1583 H 0.65173 0.86252 0.29104 0.0
C1584 C 0.65644 0.87434 0.52073 0.0
C1585 C 0.65784 0.86158 0.52158 0.0
C1586 C 0.65188 0.88014 0.48345 0.0
C1587 C 0.64866 0.87328 0.44644 0.0
C1588 C 0.65054 0.86062 0.44652 0.0
C1589 C 0.65505 0.85481 0.48382 0.0
C1590 C 0.6427 0.87914 0.40841 0.0
C1591 C 0.64823 0.87814 0.36717 0.0
C1592 C 0.63149 0.88542 0.41256 0.0
C1593 C 0.62499 0.88639 0.45498 0.0
C1594 C 0.62152 0.87585 0.47808 0.0
C1595 C 0.61547 0.87684 0.5182 0.0
C1596 C 0.61274 0.88834 0.53538 0.0
C1597 C 0.61603 0.89886 0.51239 0.0
C1598 C 0.6221 0.89792 0.47228 0.0
C1599 C 0.61418 0.88718 0.22642 0.0
C1600 C 0.60953 0.89908 0.22229 0.0
C1601 C 0.62133 0.88398 0.26236 0.0
C1602 C 0.62407 0.89262 0.29475 0.0
C1603 C 0.61945 0.90452 0.29081 0.0
C1604 C 0.61227 0.90774 0.25479 0.0
C1605 C 0.63126 0.88897 0.33365 0.0
C1606 C 0.62597 0.89036 0.37516 0.0
C1607 C 0.64271 0.88308 0.32972 0.0
C1608 C 0.64914 0.8821 0.28707 0.0
C1609 C 0.65124 0.89255 0.26143 0.0
C1610 C 0.65722 0.89158 0.22116 0.0
C1611 C 0.66121 0.88021 0.20626 0.0
C1612 C 0.65925 0.86979 0.23165 0.0
C1613 C 0.65326 0.8707 0.27194 0.0
H1614 H 0.66584 0.87947 0.17507 0.0
H1615 H 0.60805 0.88909 0.56645 0.0
H1616 H 0.65603 0.63064 0.51997 0.0
H1617 H 0.6458 0.62078 0.45847 0.0
H1618 H 0.64552 0.65491 0.38816 0.0
H1619 H 0.65571 0.6649 0.44968 0.0
H1620 H 0.62307 0.64413 0.39112 0.0
H1621 H 0.66413 0.63225 0.35616 0.0
H1622 H 0.68436 0.62329 0.37073 0.0
H1623 H 0.66774 0.58859 0.39718 0.0
H1624 H 0.64739 0.59738 0.38336 0.0
H1625 H 0.60244 0.62311 0.18705 0.0
H1626 H 0.6147 0.63174 0.24584 0.0
H1627 H 0.61555 0.59674 0.31041 0.0
H1628 H 0.6034 0.58792 0.25099 0.0
H1629 H 0.63773 0.60752 0.31132 0.0
H1630 H 0.59688 0.61902 0.34742 0.0
H1631 H 0.57644 0.62768 0.33445 0.0
H1632 H 0.59235 0.66274 0.30834 0.0
H1633 H 0.61291 0.65424 0.32056 0.0
C1634 C 0.65393 0.63603 0.49123 0.0
C1635 C 0.65663 0.64857 0.48977 0.0
C1636 C 0.64812 0.63036 0.45606 0.0
C1637 C 0.64495 0.63711 0.41877 0.0
C1638 C 0.64791 0.64956 0.41672 0.0
C1639 C 0.65376 0.65523 0.45183 0.0
C1640 C 0.63786 0.63137 0.38312 0.0
C1641 C 0.62636 0.63624 0.37316 0.0
C1642 C 0.64198 0.62083 0.36091 0.0
C1643 C 0.65422 0.61551 0.36914 0.0
C1644 C 0.66478 0.62274 0.36545 0.0
C1645 C 0.67627 0.61768 0.3735 0.0
C1646 C 0.67733 0.60539 0.38498 0.0
C1647 C 0.66691 0.59811 0.38833 0.0
C1648 C 0.65539 0.60313 0.38035 0.0
C1649 C 0.6052 0.61723 0.21374 0.0
C1650 C 0.60188 0.60484 0.21451 0.0
C1651 C 0.61219 0.62219 0.24739 0.0
C1652 C 0.61589 0.61492 0.28276 0.0
C1653 C 0.61275 0.6025 0.28341 0.0
C1654 C 0.60578 0.5975 0.24956 0.0
C1655 C 0.623 0.62036 0.31901 0.0
C1656 C 0.63446 0.61542 0.32923 0.0
C1657 C 0.61881 0.6308 0.34175 0.0
C1658 C 0.60645 0.63596 0.33451 0.0
C1659 C 0.59603 0.62855 0.33858 0.0
C1660 C 0.58442 0.63344 0.33142 0.0
C1661 C 0.5831 0.64574 0.32047 0.0
C1662 C 0.59339 0.6532 0.31677 0.0
C1663 C 0.60502 0.64836 0.32385 0.0
H1664 H 0.5741 0.64951 0.31494 0.0
H1665 H 0.68624 0.60149 0.3912 0.0
H1666 H 0.60429 0.37874 0.78995 0.0
H1667 H 0.61659 0.37329 0.72637 0.0
H1668 H 0.61792 0.41107 0.68718 0.0
H1669 H 0.60553 0.41666 0.75091 0.0
H1670 H 0.61305 0.39537 0.61811 0.0
H1671 H 0.64233 0.39904 0.73322 0.0
H1672 H 0.65085 0.39537 0.80672 0.0
H1673 H 0.65284 0.35697 0.77991 0.0
H1674 H 0.64416 0.36039 0.70644 0.0
H1675 H 0.65726 0.382 0.45427 0.0
H1676 H 0.64769 0.39128 0.51853 0.0
H1677 H 0.64517 0.35589 0.57969 0.0
H1678 H 0.65489 0.34659 0.51613 0.0
H1679 H 0.65193 0.37281 0.63778 0.0
H1680 H 0.62075 0.36866 0.52713 0.0
H1681 H 0.61159 0.37183 0.45428 0.0
H1682 H 0.61274 0.41063 0.47325 0.0
H1683 H 0.62206 0.40769 0.54603 0.0
C1684 C 0.60715 0.38591 0.76781 0.0
C1685 C 0.60397 0.39815 0.77557 0.0
C1686 C 0.61423 0.38278 0.73159 0.0
C1687 C 0.61829 0.3918 0.70247 0.0
C1688 C 0.61491 0.40399 0.70946 0.0
C1689 C 0.60785 0.40716 0.74587 0.0
C1690 C 0.62603 0.38839 0.6647 0.0
C1691 C 0.62168 0.39065 0.62233 0.0
C1692 C 0.63717 0.38205 0.67039 0.0
C1693 C 0.64251 0.37997 0.71441 0.0
C1694 C 0.64451 0.3898 0.74309 0.0
C1695 C 0.64938 0.38777 0.78474 0.0
C1696 C 0.65236 0.37594 0.79801 0.0
C1697 C 0.65052 0.36613 0.7696 0.0
C1698 C 0.64564 0.36811 0.72792 0.0
C1699 C 0.65477 0.37621 0.48157 0.0
C1700 C 0.65676 0.36354 0.47995 0.0
C1701 C 0.64926 0.38153 0.51818 0.0
C1702 C 0.64557 0.37425 0.55361 0.0
C1703 C 0.64793 0.36167 0.55269 0.0
C1704 C 0.65346 0.35637 0.51623 0.0
C1705 C 0.63884 0.37957 0.59112 0.0
C1706 C 0.6434 0.37768 0.6335 0.0
C1707 C 0.62786 0.38619 0.58544 0.0
C1708 C 0.62223 0.38796 0.54177 0.0
C1709 C 0.61914 0.37787 0.51561 0.0
C1710 C 0.6139 0.37962 0.47436 0.0
C1711 C 0.61162 0.39142 0.45909 0.0
C1712 C 0.61454 0.40149 0.48509 0.0
C1713 C 0.61979 0.39979 0.52634 0.0
H1714 H 0.60756 0.39276 0.42715 0.0
H1715 H 0.65613 0.37438 0.83028 0.0
H1716 H 0.8822 0.4123 0.72542 0.0
H1717 H 0.87057 0.40234 0.7838 0.0
H1718 H 0.9041 0.39034 0.84374 0.0
H1719 H 0.9158 0.40027 0.7858 0.0
H1720 H 0.88728 0.37164 0.83014 0.0
H1721 H 0.88837 0.41233 0.89053 0.0
H1722 H 0.88502 0.43458 0.88965 0.0
H1723 H 0.84663 0.42894 0.87034 0.0
H1724 H 0.84979 0.40665 0.87049 0.0
H1725 H 0.87056 0.35042 0.03717 0.0
H1726 H 0.87906 0.36175 0.97582 0.0
H1727 H 0.84289 0.37268 0.93639 0.0
H1728 H 0.83423 0.3614 0.99844 0.0
H1729 H 0.85898 0.39174 0.93441 0.0
H1730 H 0.85732 0.35129 0.87867 0.0
H1731 H 0.86029 0.329 0.87876 0.0
H1732 H 0.89908 0.33395 0.88682 0.0
H1733 H 0.89634 0.35629 0.88744 0.0
C1734 C 0.8871 0.40767 0.75134 0.0
C1735 C 0.89992 0.40703 0.7509 0.0
C1736 C 0.88044 0.40202 0.78467 0.0
C1737 C 0.88649 0.3956 0.81793 0.0
C1738 C 0.89928 0.39523 0.81822 0.0
C1739 C 0.90595 0.40095 0.78517 0.0
C1740 C 0.87954 0.38871 0.85123 0.0
C1741 C 0.88118 0.37603 0.85326 0.0
C1742 C 0.87124 0.39443 0.8801 0.0
C1743 C 0.86934 0.40783 0.88 0.0
C1744 C 0.87923 0.41584 0.88567 0.0
C1745 C 0.87737 0.42845 0.8854 0.0
C1746 C 0.86563 0.43317 0.8798 0.0
C1747 C 0.85572 0.42527 0.87459 0.0
C1748 C 0.85754 0.41265 0.87479 0.0
C1749 C 0.86437 0.35519 0.01545 0.0
C1750 C 0.8517 0.35497 0.02259 0.0
C1751 C 0.86925 0.36163 0.98028 0.0
C1752 C 0.86159 0.36793 0.95128 0.0
C1753 C 0.84894 0.36783 0.95837 0.0
C1754 C 0.84402 0.36136 0.99369 0.0
C1755 C 0.86696 0.37469 0.91403 0.0
C1756 C 0.86499 0.38732 0.91106 0.0
C1757 C 0.8749 0.36892 0.88397 0.0
C1758 C 0.87661 0.35548 0.88344 0.0
C1759 C 0.86648 0.34763 0.8808 0.0
C1760 C 0.86813 0.33499 0.88067 0.0
C1761 C 0.87987 0.33006 0.88288 0.0
C1762 C 0.88999 0.33778 0.88513 0.0
C1763 C 0.8884 0.35044 0.88532 0.0
H1764 H 0.88112 0.32027 0.88278 0.0
H1765 H 0.8642 0.44294 0.87962 0.0
H1766 H 0.89785 0.59154 0.23338 0.0
H1767 H 0.88909 0.60113 0.16855 0.0
H1768 H 0.85532 0.60706 0.23788 0.0
H1769 H 0.86397 0.59733 0.30302 0.0
H1770 H 0.85168 0.60022 0.15115 0.0
H1771 H 0.87482 0.6298 0.23149 0.0
H1772 H 0.89291 0.63778 0.26997 0.0
H1773 H 0.91393 0.635 0.15178 0.0
H1774 H 0.89601 0.62683 0.11274 0.0
H1775 H 0.83102 0.64694 0.00368 0.0
H1776 H 0.8368 0.6353 0.0689 0.0
H1777 H 0.87251 0.62903 0.0138 0.0
H1778 H 0.86689 0.64074 0.94907 0.0
H1779 H 0.87403 0.63656 0.09666 0.0
H1780 H 0.85095 0.60651 0.01664 0.0
H1781 H 0.83287 0.5984 0.97841 0.0
H1782 H 0.81163 0.60218 0.09573 0.0
H1783 H 0.82955 0.61047 0.13452 0.0
C1784 C 0.8885 0.59474 0.23477 0.0
C1785 C 0.88165 0.59382 0.27354 0.0
C1786 C 0.88352 0.60024 0.1977 0.0
C1787 C 0.87164 0.60499 0.19876 0.0
C1788 C 0.86453 0.60349 0.23655 0.0
C1789 C 0.8695 0.59796 0.27373 0.0
C1790 C 0.867 0.61217 0.16132 0.0
C1791 C 0.85645 0.60826 0.1395 0.0
C1792 C 0.87333 0.62258 0.146 0.0
C1793 C 0.8841 0.6276 0.16929 0.0
C1794 C 0.88333 0.6308 0.21378 0.0
C1795 C 0.89354 0.63538 0.23568 0.0
C1796 C 0.90457 0.63687 0.21336 0.0
C1797 C 0.90539 0.63383 0.16905 0.0
C1798 C 0.8952 0.62924 0.147 0.0
C1799 C 0.84008 0.64305 0.00544 0.0
C1800 C 0.84851 0.64479 0.97126 0.0
C1801 C 0.84335 0.63635 0.04261 0.0
C1802 C 0.85506 0.63124 0.04602 0.0
C1803 C 0.86343 0.63292 0.01184 0.0
C1804 C 0.86019 0.63961 0.97482 0.0
C1805 C 0.85883 0.62447 0.08573 0.0
C1806 C 0.86921 0.62853 0.10824 0.0
C1807 C 0.85232 0.61423 0.1016 0.0
C1808 C 0.84155 0.60923 0.07834 0.0
C1809 C 0.84239 0.60571 0.03418 0.0
C1810 C 0.83218 0.60106 0.01243 0.0
C1811 C 0.8211 0.59981 0.03459 0.0
C1812 C 0.82022 0.60317 0.07859 0.0
C1813 C 0.8304 0.60784 0.10048 0.0
H1814 H 0.81321 0.5962 0.0177 0.0
H1815 H 0.91247 0.64041 0.23038 0.0
H1816 H 0.3292 0.35493 0.51183 0.0
H1817 H 0.33655 0.36666 0.57466 0.0
H1818 H 0.37256 0.36789 0.51771 0.0
H1819 H 0.36537 0.35603 0.45532 0.0
H1820 H 0.37352 0.36143 0.60159 0.0
H1821 H 0.35393 0.39297 0.51775 0.0
H1822 H 0.33693 0.40271 0.47808 0.0
H1823 H 0.31534 0.40263 0.59536 0.0
H1824 H 0.33215 0.39273 0.63561 0.0
H1825 H 0.401 0.40402 0.74121 0.0
H1826 H 0.39218 0.39505 0.67532 0.0
H1827 H 0.35692 0.39372 0.73793 0.0
H1828 H 0.36563 0.40291 0.80385 0.0
H1829 H 0.35509 0.40032 0.6521 0.0
H1830 H 0.37449 0.36863 0.73554 0.0
H1831 H 0.39142 0.35886 0.77549 0.0
H1832 H 0.41323 0.35908 0.65871 0.0
H1833 H 0.39648 0.36901 0.6182 0.0
C1834 C 0.33867 0.35774 0.51263 0.0
C1835 C 0.34671 0.35453 0.47866 0.0
C1836 C 0.34284 0.3645 0.54843 0.0
C1837 C 0.35508 0.36823 0.55063 0.0
C1838 C 0.36308 0.36509 0.51664 0.0
C1839 C 0.35894 0.35832 0.48098 0.0
C1840 C 0.35972 0.37499 0.58912 0.0
C1841 C 0.36959 0.37002 0.61224 0.0
C1842 C 0.35437 0.38602 0.60371 0.0
C1843 C 0.34425 0.39199 0.57958 0.0
C1844 C 0.34552 0.39493 0.535 0.0
C1845 C 0.33592 0.4005 0.51242 0.0
C1846 C 0.32505 0.40326 0.53415 0.0
C1847 C 0.32376 0.40047 0.57855 0.0
C1848 C 0.33332 0.39489 0.60127 0.0
C1849 C 0.39135 0.40194 0.74086 0.0
C1850 C 0.38404 0.40404 0.77793 0.0
C1851 C 0.38633 0.39679 0.70322 0.0
C1852 C 0.37395 0.39352 0.7021 0.0
C1853 C 0.36651 0.39614 0.73824 0.0
C1854 C 0.37151 0.40135 0.7759 0.0
C1855 C 0.36896 0.38681 0.6641 0.0
C1856 C 0.35901 0.39174 0.64129 0.0
C1857 C 0.37421 0.37572 0.64973 0.0
C1858 C 0.38427 0.36967 0.67395 0.0
C1859 C 0.38293 0.36667 0.71846 0.0
C1860 C 0.39249 0.3611 0.7412 0.0
C1861 C 0.40341 0.35838 0.71968 0.0
C1862 C 0.40478 0.36121 0.67535 0.0
C1863 C 0.39525 0.3668 0.65248 0.0
H1864 H 0.4108 0.35406 0.73734 0.0
H1865 H 0.31763 0.40757 0.51662 0.0
H1866 H 0.33578 0.63687 0.49639 0.0
H1867 H 0.34448 0.62458 0.43715 0.0
H1868 H 0.38073 0.6347 0.47842 0.0
H1869 H 0.37216 0.64709 0.53711 0.0
H1870 H 0.37842 0.63645 0.39163 0.0
H1871 H 0.36898 0.6068 0.50278 0.0
H1872 H 0.35573 0.59592 0.55507 0.0
H1873 H 0.33269 0.58417 0.44955 0.0
H1874 H 0.34572 0.59513 0.39667 0.0
H1875 H 0.41493 0.59285 0.28661 0.0
H1876 H 0.40398 0.6031 0.3457 0.0
H1877 H 0.36971 0.59514 0.2826 0.0
H1878 H 0.3806 0.58492 0.22293 0.0
H1879 H 0.36981 0.59217 0.37709 0.0
H1880 H 0.37988 0.62148 0.2659 0.0
H1881 H 0.39355 0.63209 0.21433 0.0
H1882 H 0.41576 0.64433 0.32141 0.0
H1883 H 0.40232 0.63361 0.37361 0.0
C1884 C 0.3456 0.6365 0.49275 0.0
C1885 C 0.35328 0.64293 0.52148 0.0
C1886 C 0.35055 0.62943 0.45905 0.0
C1887 C 0.36325 0.62864 0.45371 0.0
C1888 C 0.37091 0.63518 0.482 0.0
C1889 C 0.36598 0.64224 0.51559 0.0
C1890 C 0.36866 0.6211 0.41849 0.0
C1891 C 0.37662 0.62674 0.38876 0.0
C1892 C 0.36608 0.6085 0.41412 0.0
C1893 C 0.35824 0.6019 0.44584 0.0
C1894 C 0.36102 0.60199 0.49077 0.0
C1895 C 0.35357 0.59579 0.52051 0.0
C1896 C 0.34335 0.58939 0.50566 0.0
C1897 C 0.34059 0.58915 0.46102 0.0
C1898 C 0.34801 0.59535 0.43115 0.0
C1899 C 0.40506 0.59309 0.28557 0.0
C1900 C 0.39863 0.58817 0.2499 0.0
C1901 C 0.39883 0.59898 0.31931 0.0
C1902 C 0.38608 0.59997 0.31811 0.0
C1903 C 0.37957 0.59447 0.28393 0.0
C1904 C 0.38581 0.58868 0.24987 0.0
C1905 C 0.37968 0.6075 0.35095 0.0
C1906 C 0.37153 0.60188 0.38 0.0
C1907 C 0.3821 0.62012 0.35489 0.0
C1908 C 0.39017 0.62664 0.32362 0.0
C1909 C 0.38774 0.62634 0.27843 0.0
C1910 C 0.39544 0.63239 0.24908 0.0
C1911 C 0.40554 0.63885 0.26457 0.0
C1912 C 0.40795 0.6393 0.30946 0.0
C1913 C 0.40029 0.63325 0.33894 0.0
H1914 H 0.41148 0.64353 0.2418 0.0
H1915 H 0.3376 0.58459 0.52873 0.0
H1916 H 0.1566 0.6188 0.9478 0.0
H1917 H 0.14733 0.60973 0.01294 0.0
H1918 H 0.14825 0.64471 0.07761 0.0
H1919 H 0.15765 0.65382 0.01294 0.0
H1920 H 0.15445 0.62639 0.13295 0.0
H1921 H 0.12246 0.63483 0.02868 0.0
H1922 H 0.11219 0.63354 0.95702 0.0
H1923 H 0.11003 0.59457 0.96931 0.0
H1924 H 0.12044 0.59562 0.04083 0.0
H1925 H 0.1081 0.62162 0.29217 0.0
H1926 H 0.12056 0.62717 0.22901 0.0
H1927 H 0.11772 0.59041 0.17963 0.0
H1928 H 0.10516 0.58476 0.24276 0.0
H1929 H 0.11354 0.60756 0.11627 0.0
H1930 H 0.14386 0.59946 0.22455 0.0
H1931 H 0.15383 0.60105 0.29665 0.0
H1932 H 0.15893 0.63952 0.27748 0.0
H1933 H 0.14883 0.6382 0.2055 0.0
C1934 C 0.15495 0.62454 0.97604 0.0
C1935 C 0.15776 0.63706 0.97507 0.0
C1936 C 0.14962 0.61935 0.01317 0.0
C1937 C 0.14695 0.62659 0.04981 0.0
C1938 C 0.15022 0.63897 0.04961 0.0
C1939 C 0.15555 0.64416 0.01256 0.0
C1940 C 0.14024 0.62147 0.08764 0.0
C1941 C 0.14547 0.62234 0.1294 0.0
C1942 C 0.12865 0.61594 0.08275 0.0
C1943 C 0.12236 0.61529 0.03984 0.0
C1944 C 0.11988 0.62598 0.01593 0.0
C1945 C 0.11402 0.62529 0.97537 0.0
C1946 C 0.1105 0.61397 0.95856 0.0
C1947 C 0.11279 0.60332 0.98233 0.0
C1948 C 0.11867 0.60396 0.02288 0.0
C1949 C 0.11012 0.6147 0.26792 0.0
C1950 C 0.10566 0.60274 0.2725 0.0
C1951 C 0.1173 0.61787 0.23198 0.0
C1952 C 0.12018 0.60915 0.19998 0.0
C1953 C 0.11563 0.59725 0.20412 0.0
C1954 C 0.10848 0.59404 0.2402 0.0
C1955 C 0.12768 0.61262 0.16168 0.0
C1956 C 0.12258 0.61146 0.11981 0.0
C1957 C 0.13938 0.61792 0.16652 0.0
C1958 C 0.1455 0.61875 0.20975 0.0
C1959 C 0.14702 0.60828 0.23584 0.0
C1960 C 0.15271 0.60913 0.27667 0.0
C1961 C 0.15699 0.62038 0.29168 0.0
C1962 C 0.15561 0.63081 0.26583 0.0
C1963 C 0.14991 0.63002 0.22499 0.0
H1964 H 0.16139 0.62102 0.3233 0.0
H1965 H 0.10596 0.61346 0.92716 0.0
H1966 H 0.1112 0.38227 0.69053 0.0
H1967 H 0.12283 0.37589 0.75453 0.0
H1968 H 0.11651 0.4109 0.81489 0.0
H1969 H 0.10498 0.41748 0.75035 0.0
H1970 H 0.13988 0.40309 0.82745 0.0
H1971 H 0.09966 0.38679 0.84533 0.0
H1972 H 0.08114 0.37557 0.82347 0.0
H1973 H 0.1021 0.34271 0.80922 0.0
H1974 H 0.12079 0.35378 0.8304 0.0
H1975 H 0.15358 0.3826 0.04536 0.0
H1976 H 0.14481 0.39143 0.97895 0.0
H1977 H 0.14958 0.35712 0.9119 0.0
H1978 H 0.15818 0.34817 0.97819 0.0
H1979 H 0.12674 0.36542 0.90424 0.0
H1980 H 0.1671 0.38198 0.88696 0.0
H1981 H 0.18543 0.39339 0.90963 0.0
H1982 H 0.16399 0.42592 0.92453 0.0
H1983 H 0.1455 0.41466 0.90251 0.0
C1984 C 0.11229 0.38864 0.71731 0.0
C1985 C 0.10707 0.40034 0.71557 0.0
C1986 C 0.11893 0.38497 0.7539 0.0
C1987 C 0.12036 0.39286 0.78968 0.0
C1988 C 0.11547 0.40467 0.78761 0.0
C1989 C 0.10885 0.40839 0.75083 0.0
C1990 C 0.12665 0.38856 0.82965 0.0
C1991 C 0.13693 0.39494 0.84466 0.0
C1992 C 0.12288 0.37784 0.85161 0.0
C1993 C 0.11164 0.37114 0.83908 0.0
C1994 C 0.10034 0.37719 0.83722 0.0
C1995 C 0.08981 0.37085 0.825 0.0
C1996 C 0.09045 0.35844 0.81486 0.0
C1997 C 0.10162 0.35233 0.81703 0.0
C1998 C 0.11218 0.35863 0.82918 0.0
C1999 C 0.15293 0.37698 0.01629 0.0
C2000 C 0.15648 0.36466 0.01711 0.0
C2001 C 0.14795 0.38206 0.97833 0.0
C2002 C 0.14656 0.37493 0.94051 0.0
C2003 C 0.15053 0.36276 0.94081 0.0
C2004 C 0.15547 0.35767 0.97871 0.0
C2005 C 0.14012 0.3798 0.90169 0.0
C2006 C 0.12973 0.37355 0.88705 0.0
C2007 C 0.14378 0.39066 0.88034 0.0
C2008 C 0.15489 0.39745 0.8935 0.0
C2009 C 0.16627 0.39154 0.89542 0.0
C2010 C 0.1767 0.39799 0.90809 0.0
C2011 C 0.17587 0.41037 0.91863 0.0
C2012 C 0.16462 0.41633 0.91641 0.0
C2013 C 0.15416 0.40993 0.9038 0.0
H2014 H 0.18395 0.41534 0.92842 0.0
H2015 H 0.08229 0.35355 0.80541 0.0
H2016 H 0.16722 0.29992 0.08972 0.0
H2017 H 0.16557 0.27774 0.0894 0.0
H2018 H 0.13049 0.28013 0.15285 0.0
H2019 H 0.1321 0.30242 0.15363 0.0
H2020 H 0.14547 0.26367 0.19242 0.0
H2021 H 0.13197 0.27204 0.04705 0.0
H2022 H 0.13278 0.28129 0.97355 0.0
H2023 H 0.16648 0.2627 0.94738 0.0
H2024 H 0.16597 0.25347 0.02099 0.0
H2025 H 0.13634 0.19961 0.17224 0.0
H2026 H 0.13341 0.22165 0.16538 0.0
H2027 H 0.16788 0.22468 0.09806 0.0
H2028 H 0.17081 0.20267 0.10412 0.0
H2029 H 0.15066 0.23837 0.05905 0.0
H2030 H 0.1653 0.23183 0.20613 0.0
H2031 H 0.16498 0.22279 0.28004 0.0
H2032 H 0.12951 0.23815 0.30304 0.0
H2033 H 0.12956 0.24715 0.22899 0.0
C2034 C 0.1591 0.29576 0.10333 0.0
C2035 C 0.14979 0.30294 0.12173 0.0
C2036 C 0.15815 0.28308 0.10291 0.0
C2037 C 0.14785 0.27731 0.1207 0.0
C2038 C 0.13849 0.28443 0.13882 0.0
C2039 C 0.13941 0.29715 0.13913 0.0
C2040 C 0.14723 0.26382 0.1222 0.0
C2041 C 0.14635 0.25812 0.16318 0.0
C2042 C 0.14864 0.25663 0.0841 0.0
C2043 C 0.14897 0.26213 0.0397 0.0
C2044 C 0.1396 0.26999 0.02576 0.0
C2045 C 0.14 0.27522 0.98404 0.0
C2046 C 0.14969 0.2726 0.95584 0.0
C2047 C 0.15899 0.26472 0.96927 0.0
C2048 C 0.15864 0.25948 0.01097 0.0
C2049 C 0.14329 0.20496 0.15586 0.0
C2050 C 0.15384 0.1994 0.13892 0.0
C2051 C 0.1416 0.21755 0.15206 0.0
C2052 C 0.15049 0.22481 0.13161 0.0
C2053 C 0.16091 0.21924 0.11394 0.0
C2054 C 0.16259 0.20666 0.1176 0.0
C2055 C 0.1491 0.23823 0.12933 0.0
C2056 C 0.14962 0.24392 0.08821 0.0
C2057 C 0.1474 0.24542 0.16731 0.0
C2058 C 0.14738 0.24004 0.21186 0.0
C2059 C 0.15739 0.2332 0.22682 0.0
C2060 C 0.15727 0.22809 0.26876 0.0
C2061 C 0.14721 0.22986 0.29617 0.0
C2062 C 0.13728 0.23676 0.28174 0.0
C2063 C 0.13736 0.24188 0.23981 0.0
H2064 H 0.14714 0.2259 0.32863 0.0
H2065 H 0.14998 0.27666 0.92356 0.0
H2066 H 0.95226 0.91963 0.3378 0.0
H2067 H 0.97405 0.91732 0.32475 0.0
H2068 H 0.97087 0.87835 0.34122 0.0
H2069 H 0.94897 0.8806 0.35513 0.0
H2070 H 0.98964 0.88708 0.38694 0.0
H2071 H 0.97615 0.89044 0.23998 0.0
H2072 H 0.96479 0.89895 0.17739 0.0
H2073 H 0.98439 0.93269 0.1896 0.0
H2074 H 0.99575 0.92446 0.2527 0.0
H2075 H 0.05309 0.88349 0.33214 0.0
H2076 H 0.03105 0.88016 0.32547 0.0
H2077 H 0.02517 0.91907 0.32333 0.0
H2078 H 0.04709 0.92249 0.33 0.0
H2079 H 0.01102 0.90666 0.26214 0.0
H2080 H 0.02181 0.90395 0.41625 0.0
H2081 H 0.0331 0.89539 0.47896 0.0
H2082 H 0.01838 0.85989 0.45162 0.0
H2083 H 0.00714 0.86823 0.38831 0.0
C2084 C 0.95615 0.91054 0.33835 0.0
C2085 C 0.94887 0.90029 0.34754 0.0
C2086 C 0.96861 0.90923 0.33058 0.0
C2087 C 0.97406 0.89765 0.33138 0.0
C2088 C 0.96683 0.88737 0.34024 0.0
C2089 C 0.95433 0.88867 0.34812 0.0
C2090 C 0.98744 0.89648 0.32546 0.0
C2091 C 0.99429 0.8911 0.3591 0.0
C2092 C 0.99353 0.90184 0.28938 0.0
C2093 C 0.98675 0.90684 0.25128 0.0
C2094 C 0.97798 0.89971 0.22953 0.0
C2095 C 0.97155 0.90448 0.19392 0.0
C2096 C 0.97386 0.91636 0.17957 0.0
C2097 C 0.98262 0.92349 0.20075 0.0
C2098 C 0.98907 0.91877 0.23641 0.0
C2099 C 0.04711 0.89133 0.32981 0.0
C2100 C 0.05181 0.90325 0.33191 0.0
C2101 C 0.03454 0.88941 0.32607 0.0
C2102 C 0.02651 0.89937 0.32418 0.0
C2103 C 0.03123 0.91126 0.32467 0.0
C2104 C 0.04375 0.91319 0.32872 0.0
C2105 C 0.01314 0.89757 0.32412 0.0
C2106 C 0.00631 0.9024 0.2894 0.0
C2107 C 0.00707 0.89166 0.35908 0.0
C2108 C 0.01377 0.88668 0.39726 0.0
C2109 C 0.02107 0.8943 0.4234 0.0
C2110 C 0.02744 0.88949 0.45908 0.0
C2111 C 0.02649 0.8771 0.46918 0.0
C2112 C 0.01913 0.86949 0.4437 0.0
C2113 C 0.01276 0.87425 0.40792 0.0
H2114 H 0.03143 0.87339 0.49683 0.0
H2115 H 0.96887 0.92004 0.15199 0.0
H2116 H 0.36164 0.80018 0.63846 0.0
H2117 H 0.363 0.77792 0.63489 0.0
H2118 H 0.32616 0.77624 0.58561 0.0
H2119 H 0.32465 0.79841 0.58963 0.0
H2120 H 0.32944 0.76064 0.65176 0.0
H2121 H 0.35057 0.77093 0.51898 0.0
H2122 H 0.36615 0.78126 0.47406 0.0
H2123 H 0.39455 0.76378 0.54781 0.0
H2124 H 0.37913 0.75347 0.5936 0.0
H2125 H 0.32659 0.69921 0.58754 0.0
H2126 H 0.32749 0.72143 0.58407 0.0
H2127 H 0.36352 0.7208 0.6407 0.0
H2128 H 0.36275 0.69849 0.64407 0.0
H2129 H 0.36142 0.73746 0.57233 0.0
H2130 H 0.34028 0.72713 0.70466 0.0
H2131 H 0.32471 0.71669 0.74926 0.0
H2132 H 0.2963 0.73437 0.67616 0.0
H2133 H 0.31172 0.74479 0.63066 0.0
C2134 C 0.35387 0.79508 0.62651 0.0
C2135 C 0.34303 0.80106 0.61445 0.0
C2136 C 0.35468 0.78236 0.62433 0.0
C2137 C 0.3447 0.77544 0.60977 0.0
C2138 C 0.33396 0.78141 0.59701 0.0
C2139 C 0.33313 0.7941 0.59923 0.0
C2140 C 0.34519 0.76194 0.60979 0.0
C2141 C 0.33633 0.75558 0.63388 0.0
C2142 C 0.35441 0.75535 0.58754 0.0
C2143 C 0.3637 0.76153 0.56002 0.0
C2144 C 0.36014 0.76937 0.52587 0.0
C2145 C 0.36894 0.7752 0.5002 0.0
C2146 C 0.38134 0.7732 0.50815 0.0
C2147 C 0.38495 0.76534 0.54173 0.0
C2148 C 0.37618 0.75949 0.56753 0.0
C2149 C 0.33475 0.70377 0.59898 0.0
C2150 C 0.34457 0.69709 0.6164 0.0
C2151 C 0.33523 0.71647 0.59705 0.0
C2152 C 0.34551 0.72274 0.61263 0.0
C2153 C 0.3555 0.71611 0.62861 0.0
C2154 C 0.35502 0.70338 0.63065 0.0
C2155 C 0.34556 0.73623 0.61374 0.0
C2156 C 0.35453 0.74256 0.59013 0.0
C2157 C 0.33645 0.74283 0.63644 0.0
C2158 C 0.32716 0.73665 0.66398 0.0
C2159 C 0.33071 0.72872 0.69787 0.0
C2160 C 0.32191 0.72282 0.72334 0.0
C2161 C 0.30952 0.72484 0.71547 0.0
C2162 C 0.3059 0.7328 0.68218 0.0
C2163 C 0.31467 0.73872 0.65656 0.0
H2164 H 0.30272 0.72026 0.73523 0.0
H2165 H 0.38814 0.77773 0.48824 0.0
H2166 H 0.45038 0.07305 0.83485 0.0
H2167 H 0.47251 0.07489 0.83871 0.0
H2168 H 0.46902 0.1131 0.87034 0.0
H2169 H 0.44676 0.1114 0.8652 0.0
H2170 H 0.48784 0.1095 0.81629 0.0
H2171 H 0.47414 0.09204 0.95059 0.0
H2172 H 0.4628 0.07766 0.99746 0.0
H2173 H 0.48339 0.04775 0.94467 0.0
H2174 H 0.49472 0.06194 0.89695 0.0
H2175 H 0.54908 0.11215 0.90104 0.0
H2176 H 0.52684 0.11315 0.89424 0.0
H2177 H 0.5262 0.07593 0.84856 0.0
H2178 H 0.54837 0.07483 0.8552 0.0
H2179 H 0.5094 0.0805 0.91421 0.0
H2180 H 0.52247 0.09855 0.77755 0.0
H2181 H 0.5337 0.11338 0.73213 0.0
H2182 H 0.51433 0.14288 0.79318 0.0
H2183 H 0.5031 0.12822 0.83942 0.0
C2184 C 0.45431 0.08187 0.8423 0.0
C2185 C 0.44684 0.09205 0.85018 0.0
C2186 C 0.46696 0.0829 0.84466 0.0
C2187 C 0.4724 0.09407 0.85584 0.0
C2188 C 0.465 0.10438 0.86194 0.0
C2189 C 0.4523 0.10339 0.85903 0.0
C2190 C 0.48577 0.09478 0.86246 0.0
C2191 C 0.49254 0.10329 0.83821 0.0
C2192 C 0.49191 0.08661 0.89086 0.0
C2193 C 0.48521 0.07805 0.91993 0.0
C2194 C 0.4762 0.08239 0.94877 0.0
C2195 C 0.46977 0.07427 0.97551 0.0
C2196 C 0.47235 0.06179 0.97398 0.0
C2197 C 0.48139 0.05742 0.94579 0.0
C2198 C 0.48783 0.0655 0.91892 0.0
C2199 C 0.54421 0.10419 0.88944 0.0
C2200 C 0.55048 0.09341 0.87866 0.0
C2201 C 0.53151 0.1048 0.88543 0.0
C2202 C 0.52491 0.09463 0.87071 0.0
C2203 C 0.53115 0.08387 0.85998 0.0
C2204 C 0.54382 0.08328 0.86368 0.0
C2205 C 0.51146 0.09503 0.86737 0.0
C2206 C 0.50468 0.08675 0.89248 0.0
C2207 C 0.50534 0.10349 0.84018 0.0
C2208 C 0.51205 0.1123 0.81228 0.0
C2209 C 0.52069 0.1082 0.78156 0.0
C2210 C 0.52703 0.11658 0.75561 0.0
C2211 C 0.52476 0.12907 0.75986 0.0
C2212 C 0.5161 0.1332 0.78998 0.0
C2213 C 0.50974 0.12487 0.81604 0.0
H2214 H 0.52968 0.13553 0.73973 0.0
H2215 H 0.46737 0.05552 0.99468 0.0
H2216 H 0.16864 0.79922 0.8791 0.0
H2217 H 0.16752 0.77702 0.88043 0.0
H2218 H 0.12838 0.77888 0.89352 0.0
H2219 H 0.12941 0.80123 0.89253 0.0
H2220 H 0.13886 0.76146 0.948 0.0
H2221 H 0.13984 0.77232 0.7966 0.0
H2222 H 0.14748 0.78289 0.73084 0.0
H2223 H 0.18206 0.76486 0.74432 0.0
H2224 H 0.17469 0.75431 0.81057 0.0
H2225 H 0.13317 0.69769 0.89626 0.0
H2226 H 0.13073 0.7199 0.89679 0.0
H2227 H 0.16951 0.72423 0.87832 0.0
H2228 H 0.17202 0.70213 0.87726 0.0
H2229 H 0.15678 0.73857 0.82348 0.0
H2230 H 0.15633 0.72895 0.97769 0.0
H2231 H 0.14889 0.71856 0.04413 0.0
H2232 H 0.11337 0.73424 0.0254 0.0
H2233 H 0.12056 0.7446 0.95847 0.0
C2234 C 0.15978 0.79495 0.88245 0.0
C2235 C 0.14909 0.802 0.88537 0.0
C2236 C 0.15916 0.78225 0.88307 0.0
C2237 C 0.14785 0.77633 0.88641 0.0
C2238 C 0.13719 0.7833 0.89072 0.0
C2239 C 0.13779 0.79606 0.89004 0.0
C2240 C 0.14729 0.76284 0.88451 0.0
C2241 C 0.14257 0.75643 0.92047 0.0
C2242 C 0.15229 0.75632 0.8488 0.0
C2243 C 0.15674 0.76259 0.80877 0.0
C2244 C 0.14911 0.77067 0.78574 0.0
C2245 C 0.15338 0.77665 0.74834 0.0
C2246 C 0.16526 0.77457 0.73346 0.0
C2247 C 0.17287 0.76647 0.7559 0.0
C2248 C 0.16864 0.76048 0.79335 0.0
C2249 C 0.14118 0.70338 0.89244 0.0
C2250 C 0.15279 0.69814 0.8867 0.0
C2251 C 0.13977 0.71606 0.8929 0.0
C2252 C 0.14995 0.7237 0.88783 0.0
C2253 C 0.16153 0.71849 0.8822 0.0
C2254 C 0.16294 0.70585 0.88173 0.0
C2255 C 0.14862 0.73716 0.88744 0.0
C2256 C 0.15295 0.74357 0.85087 0.0
C2257 C 0.14327 0.74365 0.92259 0.0
C2258 C 0.13894 0.73743 0.9628 0.0
C2259 C 0.1469 0.73009 0.98752 0.0
C2260 C 0.14274 0.72423 0.02531 0.0
C2261 C 0.13065 0.72571 0.0389 0.0
C2262 C 0.12272 0.73308 0.01479 0.0
C2263 C 0.12684 0.73896 0.97694 0.0
H2264 H 0.12745 0.72116 0.06818 0.0
H2265 H 0.16855 0.77921 0.7045 0.0
H2266 H 0.44866 0.87895 0.12445 0.0
H2267 H 0.47093 0.87774 0.12914 0.0
H2268 H 0.4728 0.91675 0.14667 0.0
H2269 H 0.45065 0.91808 0.14139 0.0
H2270 H 0.4888 0.90919 0.08658 0.0
H2271 H 0.47693 0.89698 0.23239 0.0
H2272 H 0.46609 0.8844 0.28684 0.0
H2273 H 0.48445 0.85238 0.23974 0.0
H2274 H 0.4953 0.86476 0.1846 0.0
H2275 H 0.5481 0.91925 0.15909 0.0
H2276 H 0.52597 0.91713 0.15889 0.0
H2277 H 0.52952 0.87841 0.13717 0.0
H2278 H 0.5518 0.88041 0.13798 0.0
H2279 H 0.511 0.88394 0.19539 0.0
H2280 H 0.52371 0.89636 0.05234 0.0
H2281 H 0.53482 0.90902 -0.00115 0.0
H2282 H 0.51479 0.94062 0.04051 0.0
H2283 H 0.50369 0.92818 0.09476 0.0
C2284 C 0.45381 0.88726 0.12949 0.0
C2285 C 0.44789 0.89861 0.13249 0.0
C2286 C 0.46653 0.88654 0.13233 0.0
C2287 C 0.4735 0.89715 0.13853 0.0
C2288 C 0.46759 0.90846 0.1418 0.0
C2289 C 0.45492 0.90919 0.13887 0.0
C2290 C 0.487 0.89662 0.14039 0.0
C2291 C 0.49364 0.90376 0.11066 0.0
C2292 C 0.49332 0.88922 0.17088 0.0
C2293 C 0.48682 0.88177 0.20406 0.0
C2294 C 0.47858 0.88724 0.2334 0.0
C2295 C 0.47245 0.88015 0.26444 0.0
C2296 C 0.47455 0.86759 0.26666 0.0
C2297 C 0.48282 0.8621 0.23793 0.0
C2298 C 0.48897 0.86915 0.20681 0.0
C2299 C 0.54421 0.91025 0.15466 0.0
C2300 C 0.55171 0.90001 0.14805 0.0
C2301 C 0.53155 0.90907 0.15447 0.0
C2302 C 0.52613 0.89766 0.14718 0.0
C2303 C 0.53355 0.88731 0.14262 0.0
C2304 C 0.54627 0.88847 0.14301 0.0
C2305 C 0.51273 0.89676 0.1423 0.0
C2306 C 0.50613 0.8893 0.17118 0.0
C2307 C 0.50641 0.90386 0.11097 0.0
C2308 C 0.51293 0.91134 0.07786 0.0
C2309 C 0.52173 0.90602 0.05029 0.0
C2310 C 0.52802 0.91316 0.01981 0.0
C2311 C 0.52553 0.92562 0.01634 0.0
C2312 C 0.51671 0.93097 0.04325 0.0
C2313 C 0.51041 0.92387 0.07384 0.0
H2314 H 0.53042 0.93114 0.99275 0.0
H2315 H 0.4698 0.86211 0.29071 0.0
H2316 H 0.33581 0.19647 0.42374 0.0
H2317 H 0.33659 0.21864 0.43046 0.0
H2318 H 0.36524 0.22005 0.3338 0.0
H2319 H 0.36465 0.1978 0.32723 0.0
H2320 H 0.36889 0.23652 0.40099 0.0
H2321 H 0.33674 0.22497 0.30267 0.0
H2322 H 0.31838 0.21354 0.28047 0.0
H2323 H 0.29808 0.22988 0.38538 0.0
H2324 H 0.31638 0.24127 0.40868 0.0
H2325 H 0.36019 0.29888 0.33925 0.0
H2326 H 0.36286 0.27674 0.34174 0.0
H2327 H 0.33244 0.2738 0.43082 0.0
H2328 H 0.32953 0.29585 0.42768 0.0
H2329 H 0.33019 0.25798 0.3666 0.0
H2330 H 0.36246 0.26978 0.46459 0.0
H2331 H 0.38097 0.28094 0.4869 0.0
H2332 H 0.4011 0.26427 0.38221 0.0
H2333 H 0.38266 0.25311 0.35892 0.0
C2334 C 0.34239 0.20146 0.40427 0.0
C2335 C 0.35006 0.19539 0.37452 0.0
C2336 C 0.34281 0.21413 0.40813 0.0
C2337 C 0.35082 0.22097 0.38205 0.0
C2338 C 0.35896 0.21491 0.35407 0.0
C2339 C 0.35858 0.20221 0.35029 0.0
C2340 C 0.3501 0.23445 0.38195 0.0
C2341 C 0.36048 0.24125 0.39304 0.0
C2342 C 0.33906 0.24056 0.37209 0.0
C2343 C 0.32797 0.23389 0.35767 0.0
C2344 C 0.32838 0.22607 0.32119 0.0
C2345 C 0.31799 0.2196 0.30839 0.0
C2346 C 0.30708 0.22095 0.33158 0.0
C2347 C 0.30654 0.22883 0.3675 0.0
C2348 C 0.31692 0.2353 0.3805 0.0
C2349 C 0.35415 0.29353 0.35974 0.0
C2350 C 0.34462 0.29911 0.38316 0.0
C2351 C 0.35572 0.28088 0.36126 0.0
C2352 C 0.34789 0.27362 0.38671 0.0
C2353 C 0.33856 0.27922 0.41089 0.0
C2354 C 0.33693 0.29183 0.40912 0.0
C2355 C 0.34895 0.26014 0.38634 0.0
C2356 C 0.33861 0.2533 0.3748 0.0
C2357 C 0.36004 0.25403 0.3957 0.0
C2358 C 0.37114 0.2607 0.40976 0.0
C2359 C 0.3708 0.26856 0.44612 0.0
C2360 C 0.38129 0.27487 0.45898 0.0
C2361 C 0.39219 0.27334 0.43592 0.0
C2362 C 0.39264 0.26546 0.40002 0.0
C2363 C 0.38218 0.25913 0.387 0.0
H2364 H 0.4003 0.27824 0.44592 0.0
H2365 H 0.29906 0.21591 0.32168 0.0
H2366 H 0.94927 0.08959 0.66034 0.0
H2367 H 0.97157 0.09005 0.66342 0.0
H2368 H 0.97323 0.08703 0.52279 0.0
H2369 H 0.95096 0.08657 0.51934 0.0
H2370 H 0.98821 0.07055 0.56526 0.0
H2371 H 0.97948 0.11358 0.56962 0.0
H2372 H 0.96969 0.13222 0.59804 0.0
H2373 H 0.98657 0.12651 0.72319 0.0
H2374 H 0.99633 0.10773 0.69568 0.0
H2375 H 0.05047 0.08205 0.52978 0.0
H2376 H 0.02828 0.08361 0.5295 0.0
H2377 H 0.02839 0.08925 0.66924 0.0
H2378 H 0.05069 0.08793 0.66973 0.0
H2379 H 0.01244 0.10429 0.62976 0.0
H2380 H 0.02123 0.06161 0.62709 0.0
H2381 H 0.03096 0.04271 0.60069 0.0
H2382 H 0.01377 0.04722 0.47546 0.0
H2383 H 0.00408 0.06626 0.50091 0.0
C2384 C 0.95438 0.08911 0.63004 0.0
C2385 C 0.94835 0.08803 0.58959 0.0
C2386 C 0.96711 0.08942 0.63186 0.0
C2387 C 0.97402 0.08862 0.59331 0.0
C2388 C 0.96804 0.08765 0.5529 0.0
C2389 C 0.95532 0.08743 0.551 0.0
C2390 C 0.98751 0.08833 0.59514 0.0
C2391 C 0.99353 0.078 0.5788 0.0
C2392 C 0.99438 0.09788 0.61415 0.0
C2393 C 0.98854 0.10918 0.63072 0.0
C2394 C 0.98102 0.11624 0.60332 0.0
C2395 C 0.97549 0.12684 0.61924 0.0
C2396 C 0.97748 0.13053 0.66243 0.0
C2397 C 0.98502 0.12363 0.68976 0.0
C2398 C 0.99056 0.11301 0.67401 0.0
C2399 C 0.0458 0.08366 0.56048 0.0
C2400 C 0.05234 0.08478 0.59984 0.0
C2401 C 0.0331 0.08451 0.56027 0.0
C2402 C 0.02668 0.08635 0.59945 0.0
C2403 C 0.03318 0.08779 0.63867 0.0
C2404 C 0.04591 0.087 0.63889 0.0
C2405 C 0.01316 0.08657 0.59941 0.0
C2406 C 0.00713 0.09685 0.61622 0.0
C2407 C 0.00625 0.07691 0.58117 0.0
C2408 C 0.01202 0.06543 0.56579 0.0
C2409 C 0.0196 0.05863 0.59381 0.0
C2410 C 0.0251 0.04788 0.57903 0.0
C2411 C 0.02301 0.04378 0.53639 0.0
C2412 C 0.01539 0.05041 0.50847 0.0
C2413 C 0.00989 0.06118 0.52306 0.0
H2414 H 0.02727 0.03546 0.52501 0.0
H2415 H 0.97319 0.13874 0.67469 0.0
H2416 H 0.86587 0.70149 0.90652 0.0
H2417 H 0.86806 0.72375 0.90875 0.0
H2418 H 0.82965 0.72777 0.88168 0.0
H2419 H 0.82738 0.70568 0.87916 0.0
H2420 H 0.84372 0.74219 0.82929 0.0
H2421 H 0.84065 0.73206 0.98361 0.0
H2422 H 0.84706 0.72163 0.05133 0.0
H2423 H 0.88235 0.73846 0.04255 0.0
H2424 H 0.8762 0.74888 0.97442 0.0
H2425 H 0.8264 0.80119 0.88347 0.0
H2426 H 0.8293 0.77918 0.88284 0.0
H2427 H 0.86738 0.78393 0.91404 0.0
H2428 H 0.86452 0.80613 0.91543 0.0
H2429 H 0.85714 0.76521 0.96057 0.0
H2430 H 0.85955 0.77718 0.81115 0.0
H2431 H 0.85326 0.78778 0.74367 0.0
H2432 H 0.81976 0.76748 0.74198 0.0
H2433 H 0.82577 0.75688 0.80985 0.0
C2434 C 0.85789 0.70712 0.90123 0.0
C2435 C 0.84645 0.70182 0.89264 0.0
C2436 C 0.85915 0.71983 0.90262 0.0
C2437 C 0.84901 0.72738 0.89546 0.0
C2438 C 0.8376 0.72209 0.88715 0.0
C2439 C 0.83631 0.70945 0.88588 0.0
C2440 C 0.85015 0.74084 0.8957 0.0
C2441 C 0.84659 0.74724 0.85806 0.0
C2442 C 0.85434 0.74737 0.9327 0.0
C2443 C 0.85802 0.74113 0.97366 0.0
C2444 C 0.84982 0.73345 0.99592 0.0
C2445 C 0.85339 0.72756 0.03442 0.0
C2446 C 0.86512 0.72935 0.05116 0.0
C2447 C 0.87328 0.73706 0.0295 0.0
C2448 C 0.86975 0.74297 0.99096 0.0
C2449 C 0.8354 0.7976 0.89031 0.0
C2450 C 0.84526 0.80542 0.89914 0.0
C2451 C 0.83705 0.785 0.88979 0.0
C2452 C 0.84861 0.77994 0.89758 0.0
C2453 C 0.85841 0.78767 0.90768 0.0
C2454 C 0.85676 0.80034 0.90838 0.0
C2455 C 0.8503 0.76656 0.89464 0.0
C2456 C 0.85444 0.76018 0.93158 0.0
C2457 C 0.84671 0.76001 0.85688 0.0
C2458 C 0.84309 0.76629 0.81578 0.0
C2459 C 0.85081 0.77503 0.79656 0.0
C2460 C 0.84729 0.78104 0.75821 0.0
C2461 C 0.83611 0.77832 0.73859 0.0
C2462 C 0.82842 0.76958 0.75722 0.0
C2463 C 0.83189 0.76355 0.79561 0.0
H2464 H 0.8334 0.78298 0.7089 0.0
H2465 H 0.86787 0.72478 0.08097 0.0
H2466 H 0.64031 0.19815 0.31376 0.0
H2467 H 0.63875 0.22041 0.31605 0.0
H2468 H 0.66661 0.22158 0.41571 0.0
H2469 H 0.66846 0.19941 0.41275 0.0
H2470 H 0.63291 0.2366 0.37758 0.0
H2471 H 0.68453 0.24605 0.4019 0.0
H2472 H 0.70431 0.23658 0.38369 0.0
H2473 H 0.68803 0.21852 0.27354 0.0
H2474 H 0.6682 0.22802 0.2907 0.0
H2475 H 0.66557 0.29869 0.42236 0.0
H2476 H 0.66427 0.27648 0.4235 0.0
H2477 H 0.63777 0.2775 0.31923 0.0
H2478 H 0.63891 0.2998 0.31809 0.0
H2479 H 0.67033 0.26142 0.357 0.0
H2480 H 0.61911 0.25211 0.32986 0.0
H2481 H 0.59918 0.26159 0.34589 0.0
H2482 H 0.6145 0.27955 0.45802 0.0
H2483 H 0.63447 0.27006 0.443 0.0
C2484 C 0.64608 0.20315 0.33623 0.0
C2485 C 0.6546 0.19704 0.36274 0.0
C2486 C 0.64515 0.21586 0.33758 0.0
C2487 C 0.65269 0.22266 0.36552 0.0
C2488 C 0.66088 0.21653 0.3932 0.0
C2489 C 0.66191 0.20386 0.39155 0.0
C2490 C 0.65225 0.23618 0.3651 0.0
C2491 C 0.64105 0.24204 0.37252 0.0
C2492 C 0.66291 0.24326 0.35898 0.0
C2493 C 0.67486 0.23766 0.34789 0.0
C2494 C 0.68519 0.24011 0.37368 0.0
C2495 C 0.69641 0.23472 0.36356 0.0
C2496 C 0.69742 0.22692 0.32757 0.0
C2497 C 0.68722 0.22453 0.3015 0.0
C2498 C 0.67599 0.2299 0.31144 0.0
C2499 C 0.65935 0.29423 0.39997 0.0
C2500 C 0.65238 0.30102 0.36998 0.0
C2501 C 0.65865 0.28152 0.40063 0.0
C2502 C 0.65092 0.27535 0.37153 0.0
C2503 C 0.64369 0.2821 0.34231 0.0
C2504 C 0.64439 0.29483 0.34161 0.0
C2505 C 0.65102 0.26185 0.37017 0.0
C2506 C 0.66217 0.25598 0.36212 0.0
C2507 C 0.6403 0.25481 0.3753 0.0
C2508 C 0.62831 0.26048 0.38498 0.0
C2509 C 0.61821 0.25806 0.358 0.0
C2510 C 0.60691 0.26343 0.36691 0.0
C2511 C 0.60559 0.2712 0.40286 0.0
C2512 C 0.61555 0.27357 0.43007 0.0
C2513 C 0.62687 0.26821 0.42133 0.0
H2514 H 0.59684 0.27536 0.40968 0.0
H2515 H 0.70611 0.22275 0.31983 0.0
H2516 H 0.8625 0.30102 0.1387 0.0
H2517 H 0.86363 0.27877 0.13354 0.0
H2518 H 0.82533 0.27732 0.10168 0.0
H2519 H 0.82409 0.29953 0.10671 0.0
H2520 H 0.83192 0.26101 0.16656 0.0
H2521 H 0.84571 0.27302 0.02324 0.0
H2522 H 0.8587 0.28415 0.97082 0.0
H2523 H 0.89049 0.26636 0.02252 0.0
H2524 H 0.8777 0.25525 0.07572 0.0
H2525 H 0.82569 0.20037 0.09769 0.0
H2526 H 0.8263 0.2226 0.09844 0.0
H2527 H 0.86511 0.2216 0.12162 0.0
H2528 H 0.86462 0.19926 0.12017 0.0
H2529 H 0.85918 0.23918 0.06311 0.0
H2530 H 0.84576 0.22692 0.20526 0.0
H2531 H 0.8331 0.21587 0.25892 0.0
H2532 H 0.80112 0.23429 0.21176 0.0
H2533 H 0.81357 0.24532 0.15733 0.0
C2534 C 0.85432 0.29597 0.13044 0.0
C2535 C 0.84321 0.30204 0.1231 0.0
C2536 C 0.85501 0.28327 0.12736 0.0
C2537 C 0.84458 0.27643 0.117 0.0
C2538 C 0.83348 0.28245 0.10969 0.0
C2539 C 0.8328 0.29514 0.11244 0.0
C2540 C 0.84514 0.26295 0.11488 0.0
C2541 C 0.83776 0.25623 0.14358 0.0
C2542 C 0.85306 0.25676 0.08583 0.0
C2543 C 0.86076 0.2634 0.05378 0.0
C2544 C 0.85548 0.27156 0.0237 0.0
C2545 C 0.86281 0.27785 0.99379 0.0
C2546 C 0.87542 0.27599 0.99342 0.0
C2547 C 0.88073 0.26781 0.02289 0.0
C2548 C 0.87344 0.26151 0.0529 0.0
C2549 C 0.83438 0.20485 0.10273 0.0
C2550 C 0.8451 0.19804 0.10924 0.0
C2551 C 0.8347 0.21757 0.10329 0.0
C2552 C 0.84571 0.22374 0.11086 0.0
C2553 C 0.85651 0.217 0.11592 0.0
C2554 C 0.8562 0.20425 0.11517 0.0
C2555 C 0.84583 0.23723 0.11442 0.0
C2556 C 0.85336 0.24396 0.08616 0.0
C2557 C 0.8381 0.24345 0.14411 0.0
C2558 C 0.83059 0.23686 0.17693 0.0
C2559 C 0.83601 0.22854 0.20609 0.0
C2560 C 0.82888 0.22229 0.23668 0.0
C2561 C 0.81631 0.22435 0.23868 0.0
C2562 C 0.81086 0.23269 0.21014 0.0
C2563 C 0.81795 0.23895 0.17943 0.0
H2564 H 0.8108 0.2195 0.26239 0.0
H2565 H 0.88108 0.28087 0.97023 0.0
H2566 H 0.66473 0.69616 0.57769 0.0
H2567 H 0.66342 0.71839 0.57616 0.0
H2568 H 0.63908 0.71763 0.68719 0.0
H2569 H 0.64003 0.69532 0.68799 0.0
H2570 H 0.63186 0.73441 0.63076 0.0
H2571 H 0.66981 0.72388 0.69889 0.0
H2572 H 0.68973 0.71355 0.70497 0.0
H2573 H 0.70228 0.73202 0.58947 0.0
H2574 H 0.68237 0.74233 0.58234 0.0
H2575 H 0.6418 0.79604 0.69854 0.0
H2576 H 0.64048 0.77381 0.69386 0.0
H2577 H 0.66243 0.77435 0.57667 0.0
H2578 H 0.66387 0.79656 0.58119 0.0
H2579 H 0.67061 0.75777 0.63629 0.0
H2580 H 0.63224 0.76874 0.57053 0.0
H2581 H 0.61228 0.77907 0.56707 0.0
H2582 H 0.60058 0.75992 0.68228 0.0
H2583 H 0.62054 0.74959 0.68678 0.0
C2584 C 0.65903 0.70072 0.60162 0.0
C2585 C 0.65257 0.69401 0.63323 0.0
C2586 C 0.65833 0.71342 0.60081 0.0
C2587 C 0.65136 0.71968 0.63215 0.0
C2588 C 0.64456 0.71299 0.66281 0.0
C2589 C 0.64513 0.70025 0.66328 0.0
C2590 C 0.65147 0.73321 0.63371 0.0
C2591 C 0.64033 0.73952 0.63249 0.0
C2592 C 0.66253 0.73988 0.63537 0.0
C2593 C 0.67456 0.73379 0.63986 0.0
C2594 C 0.67679 0.72568 0.67463 0.0
C2595 C 0.68808 0.71983 0.67828 0.0
C2596 C 0.69725 0.7221 0.64757 0.0
C2597 C 0.69517 0.73025 0.61321 0.0
C2598 C 0.68388 0.73611 0.60937 0.0
C2599 C 0.64627 0.79145 0.67157 0.0
C2600 C 0.65296 0.79807 0.64027 0.0
C2601 C 0.64547 0.77875 0.66887 0.0
C2602 C 0.6513 0.77246 0.63477 0.0
C2603 C 0.65786 0.77905 0.60323 0.0
C2604 C 0.65865 0.79174 0.60583 0.0
C2605 C 0.65102 0.75896 0.63301 0.0
C2606 C 0.66215 0.75266 0.6344 0.0
C2607 C 0.63996 0.75232 0.63199 0.0
C2608 C 0.62793 0.75848 0.62922 0.0
C2609 C 0.62545 0.76681 0.59533 0.0
C2610 C 0.61413 0.77265 0.59315 0.0
C2611 C 0.60518 0.77018 0.6245 0.0
C2612 C 0.60752 0.76183 0.65805 0.0
C2613 C 0.61883 0.75597 0.6604 0.0
H2614 H 0.59642 0.77471 0.62275 0.0
H2615 H 0.70598 0.71756 0.65043 0.0
H2616 H 0.5473 0.40948 0.98386 0.0
H2617 H 0.52517 0.40723 0.9816 0.0
H2618 H 0.52663 0.403 0.84128 0.0
H2619 H 0.54879 0.40551 0.84315 0.0
H2620 H 0.50958 0.41888 0.8634 0.0
H2621 H 0.52041 0.37862 0.90952 0.0
H2622 H 0.53063 0.36309 0.95497 0.0
H2623 H 0.5115 0.37602 0.06852 0.0
H2624 H 0.50129 0.39175 0.02386 0.0
H2625 H 0.44694 0.40393 0.84447 0.0
H2626 H 0.46914 0.40191 0.84282 0.0
H2627 H 0.47063 0.40859 0.98185 0.0
H2628 H 0.44842 0.4105 0.98394 0.0
H2629 H 0.48611 0.39023 0.95687 0.0
H2630 H 0.47649 0.43126 0.91163 0.0
H2631 H 0.46624 0.44683 0.86643 0.0
H2632 H 0.48326 0.4323 0.75106 0.0
H2633 H 0.49347 0.41651 0.79554 0.0
C2634 C 0.54294 0.40796 0.95253 0.0
C2635 C 0.5498 0.40769 0.91367 0.0
C2636 C 0.53028 0.40661 0.95132 0.0
C2637 C 0.52425 0.40481 0.91132 0.0
C2638 C 0.5311 0.40436 0.87252 0.0
C2639 C 0.54376 0.40577 0.87366 0.0
C2640 C 0.51075 0.4041 0.9098 0.0
C2641 C 0.50446 0.41245 0.88321 0.0
C2642 C 0.50406 0.39591 0.93643 0.0
C2643 C 0.51016 0.38643 0.96338 0.0
C2644 C 0.51845 0.37822 0.94424 0.0
C2645 C 0.52423 0.36937 0.96985 0.0
C2646 C 0.52174 0.36859 0.01462 0.0
C2647 C 0.51343 0.37664 0.03384 0.0
C2648 C 0.50763 0.38551 0.00839 0.0
C2649 C 0.45197 0.40488 0.87477 0.0
C2650 C 0.44592 0.40747 0.9143 0.0
C2651 C 0.46466 0.40375 0.87373 0.0
C2652 C 0.47152 0.40525 0.91213 0.0
C2653 C 0.46549 0.40742 0.95186 0.0
C2654 C 0.4528 0.40856 0.95294 0.0
C2655 C 0.48502 0.40502 0.91066 0.0
C2656 C 0.49127 0.39655 0.93674 0.0
C2657 C 0.4917 0.41309 0.88357 0.0
C2658 C 0.48563 0.42262 0.85684 0.0
C2659 C 0.47797 0.43132 0.87657 0.0
C2660 C 0.47218 0.4402 0.8511 0.0
C2661 C 0.47407 0.44053 0.80588 0.0
C2662 C 0.48179 0.43201 0.78608 0.0
C2663 C 0.48758 0.42311 0.8114 0.0
H2664 H 0.46958 0.44741 0.78621 0.0
H2665 H 0.52622 0.36173 0.03439 0.0
H2666 H 0.94573 0.58729 0.32371 0.0
H2667 H 0.96783 0.58968 0.31673 0.0
H2668 H 0.96989 0.60168 0.45096 0.0
H2669 H 0.94781 0.59938 0.45824 0.0
H2670 H 0.98434 0.61551 0.39523 0.0
H2671 H 0.9766 0.573 0.42686 0.0
H2672 H 0.96702 0.55295 0.41418 0.0
H2673 H 0.98336 0.55121 0.28657 0.0
H2674 H 0.99289 0.57135 0.29827 0.0
H2675 H 0.04604 0.6048 0.45009 0.0
H2676 H 0.02387 0.60579 0.44427 0.0
H2677 H 0.02571 0.58997 0.31511 0.0
H2678 H 0.04791 0.58864 0.32119 0.0
H2679 H 0.00911 0.57879 0.36162 0.0
H2680 H 0.01827 0.62051 0.33153 0.0
H2681 H 0.02775 0.64064 0.34334 0.0
H2682 H 0.00884 0.64418 0.46579 0.0
H2683 H -0.00062 0.62399 0.45501 0.0
C2684 C 0.95087 0.59052 0.35167 0.0
C2685 C 0.94503 0.59307 0.39164 0.0
C2686 C 0.96349 0.59186 0.34763 0.0
C2687 C 0.97048 0.59576 0.38346 0.0
C2688 C 0.96464 0.59867 0.42295 0.0
C2689 C 0.95203 0.59729 0.42708 0.0
C2690 C 0.98394 0.59632 0.38048 0.0
C2691 C 0.98979 0.60749 0.38821 0.0
C2692 C 0.99098 0.58589 0.37015 0.0
C2693 C 0.98534 0.57374 0.36325 0.0
C2694 C 0.97807 0.56838 0.39596 0.0
C2695 C 0.97266 0.557 0.38898 0.0
C2696 C 0.97455 0.55083 0.34954 0.0
C2697 C 0.98189 0.55601 0.31707 0.0
C2698 C 0.98729 0.56741 0.32387 0.0
C2699 C 0.04175 0.60165 0.42023 0.0
C2700 C 0.04873 0.59662 0.38613 0.0
C2701 C 0.02907 0.60229 0.41685 0.0
C2702 C 0.02313 0.59808 0.37904 0.0
C2703 C 0.0301 0.59328 0.34457 0.0
C2704 C 0.04279 0.59254 0.34807 0.0
C2705 C 0.00961 0.59801 0.37671 0.0
C2706 C 0.00371 0.58689 0.3681 0.0
C2707 C 0.00254 0.60851 0.38604 0.0
C2708 C 0.00819 0.62068 0.3926 0.0
C2709 C 0.0162 0.62554 0.36113 0.0
C2710 C 0.02156 0.63697 0.36761 0.0
C2711 C 0.01892 0.64367 0.40533 0.0
C2712 C 0.01089 0.63897 0.4366 0.0
C2713 C 0.00551 0.62754 0.43029 0.0
H2714 H 0.02307 0.65252 0.41029 0.0
H2715 H 0.97036 0.54201 0.34419 0.0
H2716 H 0.94659 0.38352 0.60259 0.0
H2717 H 0.96886 0.38161 0.60382 0.0
H2718 H 0.97179 0.41832 0.6537 0.0
H2719 H 0.94967 0.42037 0.6519 0.0
H2720 H 0.98668 0.41492 0.58608 0.0
H2721 H 0.97665 0.39318 0.71894 0.0
H2722 H 0.96641 0.37726 0.76259 0.0
H2723 H 0.98377 0.34944 0.68573 0.0
H2724 H 0.994 0.36521 0.64122 0.0
H2725 H 0.04687 0.41988 0.65587 0.0
H2726 H 0.02475 0.41774 0.65727 0.0
H2727 H 0.02778 0.38185 0.60039 0.0
H2728 H 0.05005 0.38385 0.59929 0.0
H2729 H 0.01004 0.38309 0.66561 0.0
H2730 H 0.02091 0.40479 0.53545 0.0
H2731 H 0.03131 0.42069 0.49223 0.0
H2732 H 0.01225 0.44853 0.56364 0.0
H2733 H 0.00186 0.43279 0.60776 0.0
C2734 C 0.95199 0.39114 0.61415 0.0
C2735 C 0.94638 0.40211 0.62696 0.0
C2736 C 0.9647 0.39002 0.61496 0.0
C2737 C 0.97198 0.39982 0.62899 0.0
C2738 C 0.96636 0.41067 0.6426 0.0
C2739 C 0.9537 0.41181 0.64161 0.0
C2740 C 0.98547 0.3991 0.62775 0.0
C2741 C 0.99178 0.40802 0.60386 0.0
C2742 C 0.9921 0.38985 0.64966 0.0
C2743 C 0.98598 0.38037 0.67644 0.0
C2744 C 0.9782 0.38367 0.71111 0.0
C2745 C 0.97242 0.37468 0.73605 0.0
C2746 C 0.97441 0.36235 0.72686 0.0
C2747 C 0.98222 0.35899 0.69277 0.0
C2748 C 0.98802 0.36795 0.66769 0.0
C2749 C 0.04287 0.41148 0.64396 0.0
C2750 C 0.05022 0.40209 0.62699 0.0
C2751 C 0.03022 0.41028 0.64474 0.0
C2752 C 0.02464 0.39972 0.62824 0.0
C2753 C 0.03193 0.39009 0.61309 0.0
C2754 C 0.04464 0.39127 0.61239 0.0
C2755 C 0.01119 0.39911 0.62502 0.0
C2756 C 0.00491 0.38992 0.64769 0.0
C2757 C 0.00453 0.40811 0.60193 0.0
C2758 C 0.01068 0.41761 0.57514 0.0
C2759 C 0.01899 0.4143 0.54214 0.0
C2760 C 0.02488 0.42328 0.51746 0.0
C2761 C 0.02246 0.43561 0.52524 0.0
C2762 C 0.01412 0.43898 0.55766 0.0
C2763 C 0.00822 0.43003 0.58249 0.0
H2764 H 0.02703 0.44255 0.5061 0.0
H2765 H 0.96993 0.3554 0.74621 0.0
H2766 H 0.44275 0.61614 0.10598 0.0
H2767 H 0.46479 0.61967 0.11058 0.0
H2768 H 0.46998 0.58285 0.15684 0.0
H2769 H 0.44805 0.57925 0.15246 0.0
H2770 H 0.48377 0.59968 0.20278 0.0
H2771 H 0.47449 0.58932 0.05173 0.0
H2772 H 0.464 0.59219 0.98108 0.0
H2773 H 0.47901 0.62826 0.97039 0.0
H2774 H 0.48946 0.62566 0.04134 0.0
H2775 H 0.54333 0.58137 0.1535 0.0
H2776 H 0.5214 0.58439 0.15991 0.0
H2777 H 0.52485 0.62017 0.10228 0.0
H2778 H 0.5469 0.61712 0.09495 0.0
H2779 H 0.50662 0.60785 0.06563 0.0
H2780 H 0.51851 0.61704 0.21134 0.0
H2781 H 0.52912 0.61417 0.28171 0.0
H2782 H 0.5094 0.58086 0.30344 0.0
H2783 H 0.49879 0.58344 0.23287 0.0
C2784 C 0.44858 0.60884 0.11745 0.0
C2785 C 0.44368 0.59739 0.12857 0.0
C2786 C 0.46116 0.61086 0.11998 0.0
C2787 C 0.46899 0.60149 0.1338 0.0
C2788 C 0.46407 0.5902 0.14618 0.0
C2789 C 0.45154 0.58815 0.14342 0.0
C2790 C 0.48238 0.60313 0.13361 0.0
C2791 C 0.4888 0.60143 0.17284 0.0
C2792 C 0.48887 0.60581 0.09474 0.0
C2793 C 0.48262 0.60736 0.05206 0.0
C2794 C 0.47547 0.5979 0.03449 0.0
C2795 C 0.46954 0.59948 0.99436 0.0
C2796 C 0.4708 0.61042 0.97133 0.0
C2797 C 0.47802 0.6198 0.98832 0.0
C2798 C 0.48394 0.61828 0.02847 0.0
C2799 C 0.53947 0.58992 0.14243 0.0
C2800 C 0.54687 0.59901 0.1237 0.0
C2801 C 0.52692 0.59167 0.14639 0.0
C2802 C 0.52151 0.60258 0.13218 0.0
C2803 C 0.52886 0.6117 0.11365 0.0
C2804 C 0.54145 0.60995 0.10953 0.0
C2805 C 0.50809 0.60407 0.13468 0.0
C2806 C 0.50164 0.60636 0.09585 0.0
C2807 C 0.50158 0.60197 0.174 0.0
C2808 C 0.5079 0.6004 0.21663 0.0
C2809 C 0.51649 0.60906 0.23096 0.0
C2810 C 0.5225 0.60749 0.27092 0.0
C2811 C 0.51995 0.59733 0.297 0.0
C2812 C 0.51136 0.58873 0.2832 0.0
C2813 C 0.50534 0.59025 0.24325 0.0
H2814 H 0.52461 0.59613 0.32793 0.0
H2815 H 0.46621 0.61162 0.94027 0.0
H2816 H 0.14564 0.14022 0.21652 0.0
H2817 H 0.13457 0.13014 0.27539 0.0
H2818 H 0.14992 0.15534 0.36883 0.0
H2819 H 0.16131 0.16537 0.30995 0.0
H2820 H 0.1511 0.13266 0.39887 0.0
H2821 H 0.12 0.1576 0.33762 0.0
H2822 H 0.10729 0.16663 0.27946 0.0
H2823 H 0.09353 0.13114 0.2463 0.0
H2824 H 0.10629 0.12187 0.30386 0.0
H2825 H 0.11067 0.1111 0.56603 0.0
H2826 H 0.12057 0.12463 0.51308 0.0
H2827 H 0.11177 0.09954 0.40904 0.0
H2828 H 0.10191 0.08593 0.4617 0.0
H2829 H 0.1067 0.1242 0.38915 0.0
H2830 H 0.13948 0.09946 0.44741 0.0
H2831 H 0.15217 0.09083 0.50644 0.0
H2832 H 0.16244 0.12691 0.54686 0.0
H2833 H 0.14967 0.13577 0.4884 0.0
C2834 C 0.14664 0.14368 0.24953 0.0
C2835 C 0.15434 0.15361 0.25857 0.0
C2836 C 0.14024 0.13794 0.28314 0.0
C2837 C 0.14127 0.1421 0.3264 0.0
C2838 C 0.14896 0.15201 0.33562 0.0
C2839 C 0.15544 0.15774 0.30195 0.0
C2840 C 0.13462 0.13577 0.36198 0.0
C2841 C 0.14134 0.13103 0.39718 0.0
C2842 C 0.12193 0.13349 0.35946 0.0
C2843 C 0.11418 0.13903 0.32488 0.0
C2844 C 0.11433 0.15171 0.31772 0.0
C2845 C 0.10711 0.15687 0.28489 0.0
C2846 C 0.09962 0.14946 0.25915 0.0
C2847 C 0.09933 0.13687 0.26625 0.0
C2848 C 0.10655 0.13166 0.29902 0.0
C2849 C 0.11081 0.10848 0.53186 0.0
C2850 C 0.10555 0.09743 0.51802 0.0
C2851 C 0.11649 0.1162 0.50173 0.0
C2852 C 0.11693 0.11303 0.4573 0.0
C2853 C 0.1115 0.10213 0.44325 0.0
C2854 C 0.10593 0.09434 0.47339 0.0
C2855 C 0.12322 0.12096 0.42537 0.0
C2856 C 0.11642 0.12599 0.39097 0.0
C2857 C 0.13581 0.12359 0.42882 0.0
C2858 C 0.14351 0.11828 0.46388 0.0
C2859 C 0.14436 0.10556 0.46914 0.0
C2860 C 0.15158 0.10062 0.50244 0.0
C2861 C 0.15807 0.10832 0.53047 0.0
C2862 C 0.15739 0.12096 0.52518 0.0
C2863 C 0.15016 0.12594 0.49196 0.0
H2864 H 0.16366 0.10448 0.55623 0.0
H2865 H 0.09404 0.15348 0.23374 0.0
H2866 H 0.07486 0.8883 0.50201 0.0
H2867 H 0.08502 0.87695 0.56069 0.0
H2868 H 0.12002 0.88929 0.51345 0.0
H2869 H 0.11002 0.90036 0.45444 0.0
H2870 H 0.12114 0.86598 0.53495 0.0
H2871 H 0.10538 0.9029 0.60148 0.0
H2872 H 0.08924 0.91751 0.62206 0.0
H2873 H 0.07061 0.8894 0.69364 0.0
H2874 H 0.08657 0.87459 0.673 0.0
H2875 H 0.161 0.86346 0.71436 0.0
H2876 H 0.14754 0.86984 0.65507 0.0
H2877 H 0.11711 0.85238 0.71905 0.0
H2878 H 0.13052 0.84601 0.77895 0.0
H2879 H 0.11152 0.8754 0.69001 0.0
H2880 H 0.12929 0.83922 0.63078 0.0
H2881 H 0.14598 0.82517 0.61116 0.0
H2882 H 0.16137 0.85233 0.52625 0.0
H2883 H 0.14486 0.86662 0.54584 0.0
C2884 C 0.08472 0.88854 0.50403 0.0
C2885 C 0.09163 0.89529 0.47372 0.0
C2886 C 0.09051 0.88208 0.53764 0.0
C2887 C 0.10327 0.88239 0.54172 0.0
C2888 C 0.11017 0.88891 0.51091 0.0
C2889 C 0.10442 0.89528 0.47725 0.0
C2890 C 0.10957 0.87623 0.57852 0.0
C2891 C 0.11908 0.86808 0.56885 0.0
C2892 C 0.10664 0.8787 0.62278 0.0
C2893 C 0.09708 0.88761 0.63527 0.0
C2894 C 0.09779 0.89982 0.62132 0.0
C2895 C 0.08869 0.90814 0.63304 0.0
C2896 C 0.07889 0.90438 0.65902 0.0
C2897 C 0.07819 0.89229 0.67344 0.0
C2898 C 0.08726 0.88394 0.66176 0.0
C2899 C 0.15145 0.86094 0.71587 0.0
C2900 C 0.14683 0.8542 0.75132 0.0
C2901 C 0.14378 0.86455 0.68182 0.0
C2902 C 0.13137 0.86144 0.68243 0.0
C2903 C 0.12668 0.85481 0.71793 0.0
C2904 C 0.13436 0.85117 0.75203 0.0
C2905 C 0.1233 0.86543 0.64633 0.0
C2906 C 0.11346 0.87314 0.65613 0.0
C2907 C 0.12596 0.86262 0.60217 0.0
C2908 C 0.13587 0.85402 0.59001 0.0
C2909 C 0.13627 0.84223 0.60815 0.0
C2910 C 0.1457 0.83422 0.59699 0.0
C2911 C 0.15474 0.83786 0.56753 0.0
C2912 C 0.15436 0.84952 0.54907 0.0
C2913 C 0.14496 0.85757 0.56015 0.0
H2914 H 0.16204 0.83165 0.55895 0.0
H2915 H 0.07185 0.91083 0.66806 0.0
H2916 H 0.41464 0.90145 0.94881 0.0
H2917 H 0.40467 0.88967 0.89102 0.0
H2918 H 0.38206 0.87189 0.98745 0.0
H2919 H 0.39204 0.88352 0.04543 0.0
H2920 H 0.3902 0.85594 0.92451 0.0
H2921 H 0.37112 0.89568 0.93145 0.0
H2922 H 0.37092 0.91818 0.9304 0.0
H2923 H 0.38622 0.91805 0.80099 0.0
H2924 H 0.38666 0.89554 0.80153 0.0
H2925 H 0.33994 0.83597 0.7973 0.0
H2926 H 0.35366 0.84527 0.85077 0.0
H2927 H 0.3726 0.864 0.74672 0.0
H2928 H 0.35874 0.85499 0.69321 0.0
H2929 H 0.36777 0.87917 0.81067 0.0
H2930 H 0.38545 0.83942 0.80085 0.0
H2931 H 0.38572 0.81692 0.80155 0.0
H2932 H 0.37338 0.81688 0.93495 0.0
H2933 H 0.37288 0.83938 0.93487 0.0
C2934 C 0.40763 0.89495 0.95777 0.0
C2935 C 0.40405 0.8935 0.00165 0.0
C2936 C 0.40193 0.88825 0.92471 0.0
C2937 C 0.39254 0.88003 0.93499 0.0
C2938 C 0.38929 0.87821 0.97888 0.0
C2939 C 0.39496 0.8849 0.01193 0.0
C2940 C 0.38563 0.87378 0.89996 0.0
C2941 C 0.38521 0.86099 0.89975 0.0
C2942 C 0.37938 0.88041 0.86717 0.0
C2943 C 0.37905 0.89394 0.86673 0.0
C2944 C 0.37453 0.90045 0.90291 0.0
C2945 C 0.37436 0.91321 0.90238 0.0
C2946 C 0.37859 0.91954 0.8657 0.0
C2947 C 0.38297 0.91314 0.82941 0.0
C2948 C 0.38317 0.90038 0.8298 0.0
C2949 C 0.34707 0.84201 0.78579 0.0
C2950 C 0.34823 0.84478 0.74107 0.0
C2951 C 0.35496 0.84726 0.81635 0.0
C2952 C 0.36425 0.85523 0.80268 0.0
C2953 C 0.3655 0.85788 0.75799 0.0
C2954 C 0.35757 0.85272 0.72746 0.0
C2955 C 0.37225 0.86127 0.83516 0.0
C2956 C 0.37286 0.87406 0.83503 0.0
C2957 C 0.37869 0.85463 0.86749 0.0
C2958 C 0.37903 0.84109 0.86772 0.0
C2959 C 0.38271 0.83461 0.83024 0.0
C2960 C 0.38292 0.82186 0.83054 0.0
C2961 C 0.37955 0.81548 0.86824 0.0
C2962 C 0.37598 0.82184 0.90576 0.0
C2963 C 0.37575 0.83459 0.90562 0.0
H2964 H 0.37972 0.8056 0.86841 0.0
H2965 H 0.37844 0.92942 0.86536 0.0
H2966 H 0.38514 0.09456 0.95244 0.0
H2967 H 0.37437 0.10533 0.01053 0.0
H2968 H 0.40872 0.11746 0.06408 0.0
H2969 H 0.41961 0.10638 0.00658 0.0
H2970 H 0.39467 0.10932 0.12689 0.0
H2971 H 0.38931 0.13724 0.00898 0.0
H2972 H 0.38399 0.14391 0.93431 0.0
H2973 H 0.34696 0.13242 0.95429 0.0
H2974 H 0.35209 0.12552 0.0289 0.0
H2975 H 0.36515 0.15001 0.27578 0.0
H2976 H 0.37757 0.14251 0.2149 0.0
H2977 H 0.34616 0.12417 0.16111 0.0
H2978 H 0.33367 0.13159 0.22187 0.0
H2979 H 0.35985 0.13718 0.09867 0.0
H2980 H 0.36614 0.10801 0.21538 0.0
H2981 H 0.37176 0.10181 0.2903 0.0
H2982 H 0.40768 0.11662 0.27213 0.0
H2983 H 0.40221 0.12307 0.19726 0.0
C2984 C 0.39042 0.09959 0.97635 0.0
C2985 C 0.40323 0.09962 0.97491 0.0
C2986 C 0.38424 0.10581 0.00944 0.0
C2987 C 0.39073 0.11235 0.04132 0.0
C2988 C 0.40353 0.11249 0.03975 0.0
C2989 C 0.40973 0.10617 0.00684 0.0
C2990 C 0.38412 0.11856 0.07735 0.0
C2991 C 0.38721 0.1156 0.12066 0.0
C2992 C 0.37426 0.1266 0.06928 0.0
C2993 C 0.37111 0.13078 0.02445 0.0
C2994 C 0.38005 0.13605 0.99735 0.0
C2995 C 0.37706 0.13989 0.95505 0.0
C2996 C 0.36515 0.13856 0.93953 0.0
C2997 C 0.35619 0.13343 0.96634 0.0
C2998 C 0.35912 0.12957 0.00866 0.0
C2999 C 0.36088 0.14441 0.25093 0.0
C3000 C 0.34844 0.14133 0.25369 0.0
C3001 C 0.36799 0.14012 0.21627 0.0
C3002 C 0.36278 0.13275 0.18376 0.0
C3003 C 0.35033 0.12987 0.18595 0.0
C3004 C 0.34323 0.13406 0.22077 0.0
C3005 C 0.37033 0.12781 0.14784 0.0
C3006 C 0.3674 0.131 0.10467 0.0
C3007 C 0.38041 0.12008 0.15602 0.0
C3008 C 0.38372 0.11615 0.20092 0.0
C3009 C 0.3752 0.11004 0.2275 0.0
C3010 C 0.37837 0.10646 0.26993 0.0
C3011 C 0.39006 0.10885 0.28602 0.0
C3012 C 0.39862 0.1148 0.25965 0.0
C3013 C 0.39549 0.11841 0.21722 0.0
H3014 H 0.39249 0.10608 0.31887 0.0
H3015 H 0.36286 0.14154 0.90677 0.0
H3016 H 0.9077 0.88677 0.47543 0.0
H3017 H 0.90035 0.87479 0.53777 0.0
H3018 H 0.87522 0.90361 0.5712 0.0
H3019 H 0.88244 0.91561 0.50886 0.0
H3020 H 0.88822 0.89382 0.64361 0.0
H3021 H 0.86462 0.8803 0.51865 0.0
H3022 H 0.86214 0.87206 0.4441 0.0
H3023 H 0.88136 0.83954 0.48137 0.0
H3024 H 0.88412 0.84768 0.55603 0.0
H3025 H 0.8448 0.86631 0.7803 0.0
H3026 H 0.85569 0.8769 0.72209 0.0
H3027 H 0.87445 0.84357 0.68855 0.0
H3028 H 0.8633 0.83278 0.74624 0.0
H3029 H 0.86682 0.8546 0.61714 0.0
H3030 H 0.88916 0.86688 0.74311 0.0
H3031 H 0.89229 0.87488 0.81768 0.0
H3032 H 0.87664 0.90919 0.7796 0.0
H3033 H 0.87326 0.90135 0.70493 0.0
C3034 C 0.90066 0.89059 0.49623 0.0
C3035 C 0.8956 0.9021 0.4872 0.0
C3036 C 0.89647 0.88373 0.5317 0.0
C3037 C 0.88721 0.88832 0.5588 0.0
C3038 C 0.88238 0.89994 0.55058 0.0
C3039 C 0.88647 0.90674 0.51487 0.0
C3040 C 0.88228 0.8809 0.59508 0.0
C3041 C 0.88346 0.88528 0.63795 0.0
C3042 C 0.87644 0.8696 0.58752 0.0
C3043 C 0.8747 0.86466 0.54276 0.0
C3044 C 0.86841 0.87144 0.51084 0.0
C3045 C 0.86694 0.86678 0.46859 0.0
C3046 C 0.87163 0.8553 0.45796 0.0
C3047 C 0.87776 0.84844 0.48962 0.0
C3048 C 0.87928 0.85307 0.53191 0.0
C3049 C 0.85128 0.86122 0.76071 0.0
C3050 C 0.85322 0.84871 0.76797 0.0
C3051 C 0.85755 0.86732 0.72756 0.0
C3052 C 0.86604 0.86108 0.70144 0.0
C3053 C 0.86797 0.84857 0.70846 0.0
C3054 C 0.86161 0.84243 0.74145 0.0
C3055 C 0.87257 0.8676 0.66595 0.0
C3056 C 0.87171 0.86305 0.62311 0.0
C3057 C 0.87881 0.8787 0.67361 0.0
C3058 C 0.88087 0.88349 0.71848 0.0
C3059 C 0.8863 0.87611 0.75071 0.0
C3060 C 0.88814 0.88062 0.79299 0.0
C3061 C 0.88464 0.89253 0.80339 0.0
C3062 C 0.87934 0.89996 0.7715 0.0
C3063 C 0.87747 0.8955 0.72917 0.0
H3064 H 0.88607 0.896 0.83615 0.0
H3065 H 0.87047 0.8517 0.42523 0.0
H3066 H 0.85546 0.17229 0.27496 0.0
H3067 H 0.86378 0.16209 0.34001 0.0
H3068 H 0.84964 0.12769 0.29405 0.0
H3069 H 0.84148 0.1377 0.22899 0.0
H3070 H 0.84465 0.13312 0.38449 0.0
H3071 H 0.87813 0.13269 0.27971 0.0
H3072 H 0.89286 0.1425 0.22985 0.0
H3073 H 0.90717 0.1636 0.33655 0.0
H3074 H 0.89239 0.15402 0.38694 0.0
H3075 H 0.87407 0.08722 0.50448 0.0
H3076 H 0.8655 0.10066 0.44875 0.0
H3077 H 0.88958 0.12959 0.49044 0.0
H3078 H 0.89862 0.11592 0.54481 0.0
H3079 H 0.8893 0.12937 0.40736 0.0
H3080 H 0.85776 0.12915 0.51428 0.0
H3081 H 0.84292 0.12037 0.56614 0.0
H3082 H 0.82461 0.10224 0.46034 0.0
H3083 H 0.83943 0.11078 0.40788 0.0
C3084 C 0.85412 0.16256 0.27881 0.0
C3085 C 0.84787 0.15579 0.24684 0.0
C3086 C 0.85888 0.15676 0.31586 0.0
C3087 C 0.8573 0.14416 0.32162 0.0
C3088 C 0.85091 0.13743 0.29012 0.0
C3089 C 0.84632 0.14316 0.25289 0.0
C3090 C 0.86245 0.13782 0.36007 0.0
C3091 C 0.8544 0.13222 0.38954 0.0
C3092 C 0.87515 0.13706 0.36721 0.0
C3093 C 0.88406 0.14275 0.33695 0.0
C3094 C 0.88434 0.1395 0.29245 0.0
C3095 C 0.89272 0.145 0.26411 0.0
C3096 C 0.90092 0.1537 0.27999 0.0
C3097 C 0.90079 0.15688 0.32427 0.0
C3098 C 0.89243 0.15142 0.35273 0.0
C3099 C 0.87748 0.09647 0.5019 0.0
C3100 C 0.88697 0.10055 0.52902 0.0
C3101 C 0.87252 0.10418 0.47022 0.0
C3102 C 0.8767 0.11625 0.46592 0.0
C3103 C 0.88617 0.12034 0.49316 0.0
C3104 C 0.89132 0.11254 0.52425 0.0
C3105 C 0.87151 0.12439 0.43183 0.0
C3106 C 0.87953 0.13037 0.40303 0.0
C3107 C 0.85875 0.12567 0.42576 0.0
C3108 C 0.84977 0.12055 0.45718 0.0
C3109 C 0.85062 0.12323 0.5021 0.0
C3110 C 0.8422 0.1183 0.5316 0.0
C3111 C 0.83284 0.11073 0.51655 0.0
C3112 C 0.83186 0.1081 0.47195 0.0
C3113 C 0.84026 0.113 0.44231 0.0
H3114 H 0.82634 0.10693 0.53945 0.0
H3115 H 0.9074 0.15794 0.258 0.0
H3116 H 0.65761 0.15736 0.20029 0.0
H3117 H 0.64443 0.14665 0.14852 0.0
H3118 H 0.6277 0.12697 0.25507 0.0
H3119 H 0.6409 0.13756 0.30711 0.0
H3120 H 0.63395 0.11198 0.18821 0.0
H3121 H 0.6123 0.14952 0.20549 0.0
H3122 H 0.60976 0.17187 0.20751 0.0
H3123 H 0.62032 0.17423 0.07242 0.0
H3124 H 0.6231 0.1519 0.06976 0.0
H3125 H 0.58805 0.08604 0.05256 0.0
H3126 H 0.59781 0.09775 0.11108 0.0
H3127 H 0.61644 0.11972 0.01484 0.0
H3128 H 0.60663 0.10823 0.95627 0.0
H3129 H 0.60769 0.13355 0.08089 0.0
H3130 H 0.63097 0.09642 0.06539 0.0
H3131 H 0.6339 0.07412 0.06308 0.0
H3132 H 0.62054 0.07109 0.19476 0.0
H3133 H 0.61737 0.09337 0.19764 0.0
C3134 C 0.6511 0.15079 0.21276 0.0
C3135 C 0.6503 0.14831 0.25779 0.0
C3136 C 0.64354 0.14472 0.18315 0.0
C3137 C 0.63502 0.13611 0.19807 0.0
C3138 C 0.6342 0.1336 0.24297 0.0
C3139 C 0.64174 0.13968 0.27262 0.0
C3140 C 0.62724 0.12944 0.16655 0.0
C3141 C 0.62804 0.11668 0.16525 0.0
C3142 C 0.61972 0.13561 0.13614 0.0
C3143 C 0.618 0.14904 0.13754 0.0
C3144 C 0.61417 0.15481 0.1763 0.0
C3145 C 0.61268 0.16747 0.17755 0.0
C3146 C 0.61491 0.17447 0.14014 0.0
C3147 C 0.61861 0.1688 0.10138 0.0
C3148 C 0.62013 0.15614 0.09997 0.0
C3149 C 0.59417 0.09341 0.04386 0.0
C3150 C 0.59664 0.09615 -0.00021 0.0
C3151 C 0.59976 0.10006 0.07732 0.0
C3152 C 0.60794 0.1095 0.06723 0.0
C3153 C 0.61015 0.11247 0.0233 0.0
C3154 C 0.60458 0.10584 0.98988 0.0
C3155 C 0.61452 0.11611 0.10224 0.0
C3156 C 0.61351 0.12886 0.10417 0.0
C3157 C 0.62187 0.10993 0.1332 0.0
C3158 C 0.6238 0.09654 0.13154 0.0
C3159 C 0.62856 0.09099 0.09372 0.0
C3160 C 0.63028 0.07836 0.09233 0.0
C3161 C 0.62737 0.07119 0.1287 0.0
C3162 C 0.62277 0.07665 0.16659 0.0
C3163 C 0.62101 0.08928 0.16812 0.0
H3164 H 0.62872 0.06141 0.12757 0.0
H3165 H 0.61374 0.18427 0.14117 0.0
H3166 H 0.66236 0.86586 0.76183 0.0
H3167 H 0.64907 0.87295 0.82075 0.0
H3168 H 0.61861 0.85412 0.76231 0.0
H3169 H 0.63188 0.84688 0.70316 0.0
H3170 H 0.61352 0.87858 0.79015 0.0
H3171 H 0.63059 0.84142 0.84596 0.0
H3172 H 0.6472 0.82706 0.86347 0.0
H3173 H 0.66338 0.85356 0.9491 0.0
H3174 H 0.64695 0.86816 0.93158 0.0
H3175 H 0.5765 0.88892 0.979 0.0
H3176 H 0.58691 0.87883 0.91801 0.0
H3177 H 0.6217 0.89011 0.97033 0.0
H3178 H 0.61143 0.89989 0.03166 0.0
H3179 H 0.62297 0.8674 0.94386 0.0
H3180 H 0.60776 0.90516 0.88391 0.0
H3181 H 0.592 0.92037 0.86545 0.0
H3182 H 0.57319 0.89381 0.7873 0.0
H3183 H 0.58876 0.87838 0.80579 0.0
C3184 C 0.65283 0.86326 0.76135 0.0
C3185 C 0.64817 0.85578 0.72795 0.0
C3186 C 0.64526 0.86728 0.7951 0.0
C3187 C 0.63291 0.86395 0.79594 0.0
C3188 C 0.62814 0.85674 0.76216 0.0
C3189 C 0.63574 0.85259 0.72856 0.0
C3190 C 0.62507 0.86797 0.83253 0.0
C3191 C 0.61541 0.87598 0.82374 0.0
C3192 C 0.62775 0.86472 0.87625 0.0
C3193 C 0.63759 0.85592 0.88718 0.0
C3194 C 0.63774 0.84422 0.86827 0.0
C3195 C 0.64711 0.83603 0.87823 0.0
C3196 C 0.65635 0.83941 0.90731 0.0
C3197 C 0.65622 0.85097 0.92656 0.0
C3198 C 0.64687 0.8592 0.91666 0.0
C3199 C 0.58636 0.88921 0.97754 0.0
C3200 C 0.59314 0.89524 0.01006 0.0
C3201 C 0.5923 0.88348 0.94261 0.0
C3202 C 0.60508 0.88384 0.93937 0.0
C3203 C 0.61183 0.8897 0.97218 0.0
C3204 C 0.60594 0.89532 0.00719 0.0
C3205 C 0.61152 0.87826 0.90173 0.0
C3206 C 0.62094 0.86991 0.91029 0.0
C3207 C 0.6087 0.88131 0.85785 0.0
C3208 C 0.59934 0.89058 0.84666 0.0
C3209 C 0.60021 0.90253 0.86308 0.0
C3210 C 0.59132 0.9112 0.85256 0.0
C3211 C 0.58158 0.90805 0.82533 0.0
C3212 C 0.58073 0.89623 0.80846 0.0
C3213 C 0.58958 0.88752 0.81893 0.0
H3214 H 0.57471 0.91477 0.81721 0.0
H3215 H 0.6636 0.83305 0.91498 0.0
H3216 H 0.59344 0.6104 0.02306 0.0
H3217 H 0.60356 0.62139 0.96371 0.0
H3218 H 0.62974 0.59217 0.95124 0.0
H3219 H 0.61989 0.58132 0.01151 0.0
H3220 H 0.64102 0.61299 0.94672 0.0
H3221 H 0.60574 0.59577 0.87811 0.0
H3222 H 0.58382 0.59138 0.86886 0.0
H3223 H 0.57637 0.62967 0.85573 0.0
H3224 H 0.59823 0.6343 0.86548 0.0
H3225 H 0.6448 0.63283 0.70257 0.0
H3226 H 0.63466 0.62193 0.76191 0.0
H3227 H 0.64938 0.64755 0.85524 0.0
H3228 H 0.65985 0.65834 0.79606 0.0
H3229 H 0.61778 0.62792 0.81805 0.0
H3230 H 0.65508 0.63307 0.95109 0.0
H3231 H 0.67743 0.63544 0.956 0.0
H3232 H 0.68167 0.61736 0.83227 0.0
H3233 H 0.65937 0.61474 0.82691 0.0
C3234 C 0.60133 0.60631 0.00757 0.0
C3235 C 0.60586 0.59498 0.02179 0.0
C3236 C 0.60709 0.61258 0.97359 0.0
C3237 C 0.61732 0.60753 0.95267 0.0
C3238 C 0.62186 0.59624 0.96695 0.0
C3239 C 0.61621 0.59003 0.00128 0.0
C3240 C 0.62334 0.61405 0.91605 0.0
C3241 C 0.63593 0.61626 0.91859 0.0
C3242 C 0.61675 0.61814 0.87902 0.0
C3243 C 0.6036 0.61538 0.87293 0.0
C3244 C 0.59941 0.60326 0.87355 0.0
C3245 C 0.587 0.60073 0.86818 0.0
C3246 C 0.57871 0.61024 0.86182 0.0
C3247 C 0.58281 0.62231 0.86071 0.0
C3248 C 0.59521 0.62489 0.86612 0.0
C3249 C 0.64588 0.63617 0.73571 0.0
C3250 C 0.65318 0.6464 0.74469 0.0
C3251 C 0.64005 0.62994 0.76958 0.0
C3252 C 0.64137 0.63385 0.81303 0.0
C3253 C 0.64841 0.64425 0.82201 0.0
C3254 C 0.65435 0.65043 0.78815 0.0
C3255 C 0.63544 0.62693 0.84885 0.0
C3256 C 0.62286 0.62467 0.84622 0.0
C3257 C 0.64211 0.62249 0.88518 0.0
C3258 C 0.65555 0.62384 0.88842 0.0
C3259 C 0.66079 0.62956 0.92503 0.0
C3260 C 0.67344 0.63095 0.92787 0.0
C3261 C 0.68096 0.62659 0.89439 0.0
C3262 C 0.67584 0.62078 0.85809 0.0
C3263 C 0.66319 0.61935 0.85512 0.0
H3264 H 0.69075 0.6277 0.89662 0.0
H3265 H 0.5691 0.60826 0.85767 0.0
H3266 H 0.67365 0.36905 0.25066 0.0
H3267 H 0.66411 0.37758 0.18533 0.0
H3268 H 0.6316 0.35652 0.21056 0.0
H3269 H 0.64115 0.34779 0.27586 0.0
H3270 H 0.63811 0.35572 0.12467 0.0
H3271 H 0.63219 0.38646 0.23436 0.0
H3272 H 0.63847 0.4007 0.29263 0.0
H3273 H 0.66198 0.41937 0.20231 0.0
H3274 H 0.65597 0.40513 0.14362 0.0
H3275 H 0.5975 0.38906 0.9872 0.0
H3276 H 0.60779 0.37915 0.04862 0.0
H3277 H 0.64053 0.39957 0.02083 0.0
H3278 H 0.63031 0.40956 0.95938 0.0
H3279 H 0.63405 0.40056 0.10738 0.0
H3280 H 0.63956 0.36999 0.99714 0.0
H3281 H 0.63311 0.35579 0.93902 0.0
H3282 H 0.61013 0.33685 0.03037 0.0
H3283 H 0.61631 0.35106 0.08894 0.0
C3284 C 0.66446 0.36624 0.24243 0.0
C3285 C 0.65812 0.3578 0.26861 0.0
C3286 C 0.65902 0.37114 0.2051 0.0
C3287 C 0.64711 0.36778 0.19342 0.0
C3288 C 0.6408 0.35924 0.2191 0.0
C3289 C 0.64625 0.35431 0.25646 0.0
C3290 C 0.64122 0.37325 0.1545 0.0
C3291 C 0.63707 0.36551 0.12109 0.0
C3292 C 0.64013 0.38604 0.14952 0.0
C3293 C 0.64372 0.39466 0.18471 0.0
C3294 C 0.63877 0.39355 0.22701 0.0
C3295 C 0.64227 0.40163 0.2601 0.0
C3296 C 0.65064 0.41092 0.25121 0.0
C3297 C 0.65551 0.41216 0.20917 0.0
C3298 C 0.65205 0.4041 0.17596 0.0
C3299 C 0.60692 0.39138 0.99393 0.0
C3300 C 0.61309 0.40011 0.96849 0.0
C3301 C 0.61279 0.38567 0.02893 0.0
C3302 C 0.62493 0.38859 0.03906 0.0
C3303 C 0.63116 0.3972 0.01347 0.0
C3304 C 0.62531 0.40287 0.97832 0.0
C3305 C 0.63096 0.38303 0.07751 0.0
C3306 C 0.63512 0.39076 0.11089 0.0
C3307 C 0.63202 0.37025 0.08246 0.0
C3308 C 0.6283 0.36167 0.04733 0.0
C3309 C 0.63305 0.36286 0.00476 0.0
C3310 C 0.62946 0.3548 0.97174 0.0
C3311 C 0.62119 0.34544 0.98097 0.0
C3312 C 0.61652 0.34411 0.02326 0.0
C3313 C 0.62007 0.35216 0.05639 0.0
H3314 H 0.61843 0.3392 0.95537 0.0
H3315 H 0.65333 0.41717 0.27687 0.0
H3316 H 0.88728 0.39284 0.54833 0.0
H3317 H 0.87664 0.38099 0.49255 0.0
H3318 H 0.90387 0.39116 0.39732 0.0
H3319 H 0.91455 0.40316 0.4529 0.0
H3320 H 0.88086 0.39434 0.36665 0.0
H3321 H 0.90334 0.36259 0.4381 0.0
H3322 H 0.91065 0.35049 0.50088 0.0
H3323 H 0.87383 0.34016 0.53146 0.0
H3324 H 0.86628 0.35235 0.4692 0.0
H3325 H 0.86056 0.35471 0.20038 0.0
H3326 H 0.87324 0.36426 0.25631 0.0
H3327 H 0.8471 0.35412 0.35545 0.0
H3328 H 0.83442 0.34431 0.29969 0.0
H3329 H 0.87021 0.35058 0.38338 0.0
H3330 H 0.84762 0.38291 0.31483 0.0
H3331 H 0.84003 0.3952 0.25296 0.0
H3332 H 0.87678 0.40466 0.21808 0.0
H3333 H 0.8846 0.39228 0.27943 0.0
C3334 C 0.89105 0.39252 0.5156 0.0
C3335 C 0.90175 0.39896 0.50501 0.0
C3336 C 0.88499 0.38568 0.48382 0.0
C3337 C 0.88953 0.38512 0.44095 0.0
C3338 C 0.90024 0.39147 0.43029 0.0
C3339 C 0.90634 0.3983 0.4621 0.0
C3340 C 0.88279 0.37831 0.40684 0.0
C3341 C 0.87871 0.38472 0.36992 0.0
C3342 C 0.87972 0.36585 0.41182 0.0
C3343 C 0.88424 0.35847 0.4492 0.0
C3344 C 0.89679 0.35782 0.45842 0.0
C3345 C 0.90098 0.35093 0.49387 0.0
C3346 C 0.89271 0.34459 0.5202 0.0
C3347 C 0.88023 0.34509 0.51106 0.0
C3348 C 0.87599 0.35198 0.47566 0.0
C3349 C 0.85751 0.35445 0.2341 0.0
C3350 C 0.84643 0.34884 0.24558 0.0
C3351 C 0.86476 0.35995 0.26599 0.0
C3352 C 0.86101 0.36006 0.30989 0.0
C3353 C 0.85013 0.35415 0.3217 0.0
C3354 C 0.84289 0.34859 0.2898 0.0
C3355 C 0.86828 0.36662 0.34323 0.0
C3356 C 0.87243 0.36018 0.38002 0.0
C3357 C 0.87138 0.37908 0.33827 0.0
C3358 C 0.8667 0.38657 0.30145 0.0
C3359 C 0.85409 0.38754 0.29376 0.0
C3360 C 0.84974 0.39453 0.25882 0.0
C3361 C 0.85792 0.40068 0.23153 0.0
C3362 C 0.87046 0.39988 0.23921 0.0
C3363 C 0.87485 0.39288 0.27408 0.0
H3364 H 0.85453 0.4061 0.2045 0.0
H3365 H 0.89597 0.33926 0.54764 0.0
H3366 H 0.85384 0.64218 0.7919 0.0
H3367 H 0.86437 0.63145 0.7332 0.0
H3368 H 0.86338 0.66395 0.65361 0.0
H3369 H 0.85267 0.6748 0.71231 0.0
H3370 H 0.85586 0.64378 0.60885 0.0
H3371 H 0.88995 0.65487 0.69729 0.0
H3372 H 0.90182 0.65693 0.76541 0.0
H3373 H 0.9022 0.61799 0.78071 0.0
H3374 H 0.89017 0.61569 0.713 0.0
H3375 H 0.89331 0.61582 0.4465 0.0
H3376 H 0.88559 0.6299 0.50199 0.0
H3377 H 0.88509 0.60071 0.59676 0.0
H3378 H 0.89298 0.58661 0.54172 0.0
H3379 H 0.89464 0.62124 0.63094 0.0
H3380 H 0.85899 0.6103 0.54714 0.0
H3381 H 0.84678 0.60803 0.47985 0.0
H3382 H 0.84916 0.6466 0.45661 0.0
H3383 H 0.86154 0.64907 0.5235 0.0
C3384 C 0.85592 0.6471 0.76206 0.0
C3385 C 0.85241 0.65935 0.75673 0.0
C3386 C 0.862 0.64096 0.72862 0.0
C3387 C 0.86476 0.64694 0.68926 0.0
C3388 C 0.86136 0.65919 0.68385 0.0
C3389 C 0.85528 0.66538 0.71743 0.0
C3390 C 0.87069 0.64014 0.65325 0.0
C3391 C 0.86447 0.63905 0.61332 0.0
C3392 C 0.88178 0.63378 0.65953 0.0
C3393 C 0.88908 0.63512 0.70019 0.0
C3394 C 0.89249 0.64674 0.71534 0.0
C3395 C 0.89926 0.64796 0.75386 0.0
C3396 C 0.90274 0.6376 0.77742 0.0
C3397 C 0.89949 0.62601 0.76244 0.0
C3398 C 0.89271 0.62474 0.72396 0.0
C3399 C 0.89155 0.61238 0.47915 0.0
C3400 C 0.89372 0.60008 0.4897 0.0
C3401 C 0.88712 0.62044 0.51077 0.0
C3402 C 0.88467 0.61632 0.55336 0.0
C3403 C 0.88693 0.60407 0.56407 0.0
C3404 C 0.89139 0.59602 0.53252 0.0
C3405 C 0.87971 0.62471 0.58687 0.0
C3406 C 0.88611 0.62609 0.6263 0.0
C3407 C 0.86877 0.63132 0.58017 0.0
C3408 C 0.86131 0.62985 0.54003 0.0
C3409 C 0.857 0.61828 0.52748 0.0
C3410 C 0.85003 0.61696 0.48945 0.0
C3411 C 0.84723 0.62716 0.4639 0.0
C3412 C 0.85136 0.6387 0.47639 0.0
C3413 C 0.85834 0.64007 0.51437 0.0
H3414 H 0.84184 0.62611 0.43447 0.0
H3415 H 0.90799 0.63856 0.80723 0.0
H3416 H 0.33889 0.32937 0.21021 0.0
H3417 H 0.34897 0.34039 0.15051 0.0
H3418 H 0.35595 0.37064 0.23725 0.0
H3419 H 0.34594 0.35975 0.29693 0.0
H3420 H 0.34649 0.37781 0.15728 0.0
H3421 H 0.37837 0.3516 0.21315 0.0
H3422 H 0.38743 0.33183 0.23382 0.0
H3423 H 0.38341 0.31903 0.1018 0.0
H3424 H 0.37415 0.33868 0.08048 0.0
H3425 H 0.39115 0.41219 0.04764 0.0
H3426 H 0.38003 0.39961 0.1001 0.0
H3427 H 0.37765 0.37064 0.00493 0.0
H3428 H 0.38897 0.3831 0.95234 0.0
H3429 H 0.38364 0.36188 0.08406 0.0
H3430 H 0.35301 0.38823 0.02635 0.0
H3431 H 0.3437 0.4078 0.0047 0.0
H3432 H 0.34482 0.42004 0.13813 0.0
H3433 H 0.3543 0.4006 0.16051 0.0
C3434 C 0.34258 0.33836 0.21656 0.0
C3435 C 0.34164 0.34368 0.2583 0.0
C3436 C 0.34835 0.34462 0.18247 0.0
C3437 C 0.35323 0.35629 0.18962 0.0
C3438 C 0.35222 0.36165 0.23112 0.0
C3439 C 0.34654 0.35538 0.26521 0.0
C3440 C 0.3594 0.36302 0.15399 0.0
C3441 C 0.35468 0.37439 0.14149 0.0
C3442 C 0.36984 0.35835 0.1326 0.0
C3443 C 0.37544 0.34655 0.14535 0.0
C3444 C 0.37932 0.34453 0.18862 0.0
C3445 C 0.38451 0.33336 0.20044 0.0
C3446 C 0.38596 0.32417 0.16918 0.0
C3447 C 0.38226 0.32615 0.12599 0.0
C3448 C 0.37704 0.3373 0.11402 0.0
C3449 C 0.38827 0.40314 0.03781 0.0
C3450 C 0.3909 0.39866 0.99577 0.0
C3451 C 0.38187 0.39599 0.06778 0.0
C3452 C 0.37786 0.38426 0.05616 0.0
C3453 C 0.38063 0.37968 0.01447 0.0
C3454 C 0.38707 0.38682 0.98447 0.0
C3455 C 0.37087 0.37679 0.08781 0.0
C3456 C 0.3754 0.36527 0.09953 0.0
C3457 C 0.3602 0.38129 0.10832 0.0
C3458 C 0.35446 0.39299 0.09504 0.0
C3459 C 0.35136 0.39513 0.05103 0.0
C3460 C 0.34603 0.40619 0.03864 0.0
C3461 C 0.34369 0.41517 0.07 0.0
C3462 C 0.34665 0.41308 0.11386 0.0
C3463 C 0.35199 0.40204 0.12643 0.0
H3464 H 0.33957 0.42373 0.06034 0.0
H3465 H 0.38999 0.31552 0.17838 0.0
H3466 H 0.38673 0.60695 0.04915 0.0
H3467 H 0.37617 0.61945 0.995 0.0
H3468 H 0.40058 0.60643 0.89452 0.0
H3469 H 0.41139 0.59407 0.94877 0.0
H3470 H 0.39655 0.6304 0.88572 0.0
H3471 H 0.37198 0.59458 0.90548 0.0
H3472 H 0.36036 0.57924 0.9473 0.0
H3473 H 0.33618 0.60717 0.99414 0.0
H3474 H 0.34777 0.62272 0.95304 0.0
H3475 H 0.36021 0.64332 0.69873 0.0
H3476 H 0.3721 0.63374 0.7569 0.0
H3477 H 0.34819 0.64949 0.85376 0.0
H3478 H 0.33617 0.65911 0.79569 0.0
H3479 H 0.35194 0.62495 0.86611 0.0
H3480 H 0.37627 0.66065 0.84169 0.0
H3481 H 0.38788 0.6755 0.79765 0.0
H3482 H 0.41249 0.64722 0.75688 0.0
H3483 H 0.40092 0.63215 0.80019 0.0
C3484 C 0.38989 0.60676 0.01557 0.0
C3485 C 0.39983 0.59944 0.00315 0.0
C3486 C 0.38382 0.61389 0.98464 0.0
C3487 C 0.38748 0.61371 0.94063 0.0
C3488 C 0.3976 0.60667 0.92833 0.0
C3489 C 0.40374 0.59958 0.95932 0.0
C3490 C 0.38056 0.62067 0.90729 0.0
C3491 C 0.38682 0.62912 0.88108 0.0
C3492 C 0.36782 0.61916 0.9019 0.0
C3493 C 0.36082 0.60983 0.92655 0.0
C3494 C 0.36424 0.59747 0.92497 0.0
C3495 C 0.35765 0.58873 0.9485 0.0
C3496 C 0.34756 0.59224 0.97346 0.0
C3497 C 0.34402 0.60448 0.97485 0.0
C3498 C 0.35059 0.61325 0.95142 0.0
C3499 C 0.35751 0.64482 0.73241 0.0
C3500 C 0.34723 0.65195 0.74264 0.0
C3501 C 0.36436 0.63939 0.7656 0.0
C3502 C 0.36106 0.64099 0.80958 0.0
C3503 C 0.35088 0.64818 0.81996 0.0
C3504 C 0.34405 0.65368 0.78677 0.0
C3505 C 0.36792 0.63467 0.84453 0.0
C3506 C 0.36165 0.6263 0.87097 0.0
C3507 C 0.38065 0.63619 0.84984 0.0
C3508 C 0.38766 0.64524 0.8239 0.0
C3509 C 0.3841 0.65757 0.82306 0.0
C3510 C 0.39068 0.66604 0.79828 0.0
C3511 C 0.40089 0.6623 0.7744 0.0
C3512 C 0.40457 0.6501 0.77536 0.0
C3513 C 0.39801 0.64159 0.80006 0.0
H3514 H 0.40598 0.66887 0.75524 0.0
H3515 H 0.34247 0.58546 0.99165 0.0
H3516 H 0.15504 0.66438 0.70339 0.0
H3517 H 0.14329 0.65347 0.64775 0.0
H3518 H 0.12905 0.62934 0.74696 0.0
H3519 H 0.14087 0.64006 0.80264 0.0
H3520 H 0.13731 0.61685 0.67767 0.0
H3521 H 0.11123 0.65141 0.70163 0.0
H3522 H 0.10615 0.67328 0.70716 0.0
H3523 H 0.11654 0.67855 0.57297 0.0
H3524 H 0.12184 0.65674 0.5668 0.0
H3525 H 0.09227 0.58761 0.54982 0.0
H3526 H 0.10238 0.59983 0.60595 0.0
H3527 H 0.11645 0.62393 0.50631 0.0
H3528 H 0.1062 0.61188 0.44998 0.0
H3529 H 0.10814 0.63659 0.57568 0.0
H3530 H 0.13456 0.60228 0.55188 0.0
H3531 H 0.13981 0.58046 0.54595 0.0
H3532 H 0.12904 0.57483 0.67957 0.0
H3533 H 0.12356 0.59659 0.68612 0.0
C3534 C 0.14934 0.65681 0.71341 0.0
C3535 C 0.1489 0.65307 0.75741 0.0
C3536 C 0.14259 0.65062 0.68161 0.0
C3537 C 0.13524 0.64065 0.69331 0.0
C3538 C 0.13468 0.637 0.73726 0.0
C3539 C 0.14142 0.64317 0.76903 0.0
C3540 C 0.1285 0.63368 0.65956 0.0
C3541 C 0.13079 0.62113 0.65579 0.0
C3542 C 0.12025 0.63935 0.63029 0.0
C3543 C 0.11705 0.65246 0.63389 0.0
C3544 C 0.11253 0.65725 0.6734 0.0
C3545 C 0.10959 0.66963 0.67663 0.0
C3546 C 0.11105 0.6773 0.64047 0.0
C3547 C 0.11543 0.6726 0.60097 0.0
C3548 C 0.11839 0.66023 0.59757 0.0
C3549 C 0.09749 0.59552 0.53982 0.0
C3550 C 0.09849 0.59873 0.49543 0.0
C3551 C 0.10329 0.60248 0.57193 0.0
C3552 C 0.11029 0.61269 0.56021 0.0
C3553 C 0.1111 0.61606 0.51602 0.0
C3554 C 0.10527 0.60914 0.48389 0.0
C3555 C 0.11691 0.61976 0.59399 0.0
C3556 C 0.11463 0.63232 0.59766 0.0
C3557 C 0.1252 0.61411 0.62315 0.0
C3558 C 0.12854 0.60103 0.61935 0.0
C3559 C 0.13322 0.59637 0.5799 0.0
C3560 C 0.13625 0.58401 0.57644 0.0
C3561 C 0.13473 0.57626 0.61232 0.0
C3562 C 0.1302 0.58084 0.65178 0.0
C3563 C 0.12714 0.59319 0.6554 0.0
H3564 H 0.13708 0.5667 0.60958 0.0
H3565 H 0.10877 0.68688 0.64304 0.0
H3566 H 0.15738 0.34477 0.29177 0.0
H3567 H 0.14424 0.35484 0.3453 0.0
H3568 H 0.12111 0.36795 0.24114 0.0
H3569 H 0.13433 0.3581 0.1873 0.0
H3570 H 0.12609 0.38571 0.29755 0.0
H3571 H 0.11194 0.34454 0.30776 0.0
H3572 H 0.11385 0.32225 0.31655 0.0
H3573 H 0.12919 0.32727 0.44457 0.0
H3574 H 0.12754 0.3496 0.43631 0.0
H3575 H 0.08089 0.40785 0.44544 0.0
H3576 H 0.09071 0.39607 0.38713 0.0
H3577 H 0.1167 0.38186 0.48009 0.0
H3578 H 0.1069 0.39342 0.53846 0.0
H3579 H 0.10854 0.36421 0.42588 0.0
H3580 H 0.12422 0.40524 0.413 0.0
H3581 H 0.12254 0.42755 0.40436 0.0
H3582 H 0.10436 0.42268 0.28111 0.0
H3583 H 0.10579 0.40033 0.28934 0.0
C3584 C 0.14946 0.34974 0.28025 0.0
C3585 C 0.14689 0.35064 0.23531 0.0
C3586 C 0.14193 0.35544 0.3109 0.0
C3587 C 0.13162 0.36202 0.29721 0.0
C3588 C 0.12901 0.3629 0.25239 0.0
C3589 C 0.13657 0.35725 0.22169 0.0
C3590 C 0.12381 0.36835 0.32962 0.0
C3591 C 0.12206 0.38097 0.32518 0.0
C3592 C 0.11875 0.36219 0.36607 0.0
C3593 C 0.1197 0.34875 0.37126 0.0
C3594 C 0.1158 0.34089 0.33766 0.0
C3595 C 0.11682 0.32825 0.34257 0.0
C3596 C 0.12166 0.32335 0.38106 0.0
C3597 C 0.12546 0.33108 0.41476 0.0
C3598 C 0.12446 0.34373 0.41001 0.0
C3599 C 0.08866 0.40217 0.45347 0.0
C3600 C 0.09316 0.40162 0.4965 0.0
C3601 C 0.09427 0.39548 0.42013 0.0
C3602 C 0.1045 0.38819 0.42929 0.0
C3603 C 0.10882 0.38742 0.47237 0.0
C3604 C 0.10323 0.39409 0.50564 0.0
C3605 C 0.11095 0.38157 0.394 0.0
C3606 C 0.11246 0.3689 0.39794 0.0
C3607 C 0.11579 0.38768 0.35709 0.0
C3608 C 0.11499 0.40112 0.35202 0.0
C3609 C 0.11978 0.40893 0.38423 0.0
C3610 C 0.11889 0.42158 0.37938 0.0
C3611 C 0.11331 0.42653 0.34227 0.0
C3612 C 0.10866 0.41884 0.30987 0.0
C3613 C 0.10951 0.40618 0.3146 0.0
H3614 H 0.11263 0.43633 0.33857 0.0
H3615 H 0.12245 0.31356 0.38479 0.0
loop_
_geom_bond_atom_site_label_1
_geom_bond_atom_site_label_2
_geom_bond_distance
_geom_bond_site_symmetry_2
_ccdc_geom_bond_type
C0 O1 1.160 . S
C0 O7 1.185 . S
O1 C0 1.160 . S
O2 Zn3 1.899 . S
O2 C10 1.284 . S
Zn3 O2 1.899 . S
Zn3 O4 2.032 . S
Zn3 O7 2.086 . S
Zn3 O12 1.977 . S
O4 Zn3 2.032 . S
O4 C8 1.278 . S
C5 O6 1.203 . S
C5 O12 1.267 . S
O6 C5 1.203 . S
O7 C0 1.185 . S
O7 Zn3 2.086 . S
C8 O4 1.278 . S
C8 O9 1.211 . S
O9 C8 1.211 . S
C10 O2 1.284 . S
C10 O11 1.273 . S
O11 C10 1.273 . S
O12 Zn3 1.977 . S
O12 C5 1.267 . S
C13 O14 1.160 . S
C13 O20 1.185 . S
O14 C13 1.160 . S
O15 Zn16 1.899 . S
O15 C23 1.284 . S
Zn16 O15 1.899 . S
Zn16 O17 2.032 . S
Zn16 O20 2.086 . S
Zn16 O25 1.977 . S
O17 Zn16 2.032 . S
O17 C21 1.278 . S
C18 O19 1.203 . S
C18 O25 1.267 . S
O19 C18 1.203 . S
O20 C13 1.185 . S
O20 Zn16 2.086 . S
C21 O17 1.278 . S
C21 O22 1.211 . S
O22 C21 1.211 . S
C23 O15 1.284 . S
C23 O24 1.273 . S
O24 C23 1.273 . S
O25 Zn16 1.977 . S
O25 C18 1.267 . S
C26 O27 1.160 . S
C26 O33 1.185 . S
O27 C26 1.160 . S
O28 Zn29 1.899 . S
O28 C36 1.284 . S
Zn29 O28 1.899 . S
Zn29 O30 2.032 . S
Zn29 O33 2.086 . S
Zn29 O38 1.977 . S
O30 Zn29 2.032 . S
O30 C34 1.278 . S
C31 O32 1.203 . S
C31 O38 1.267 . S
O32 C31 1.203 . S
O33 C26 1.185 . S
O33 Zn29 2.086 . S
C34 O30 1.278 . S
C34 O35 1.211 . S
O35 C34 1.211 . S
C36 O28 1.284 . S
C36 O37 1.273 . S
O37 C36 1.273 . S
O38 Zn29 1.977 . S
O38 C31 1.267 . S
C39 O40 1.160 . S
C39 O46 1.185 . S
O40 C39 1.160 . S
O41 Zn42 1.899 . S
O41 C49 1.284 . S
Zn42 O41 1.899 . S
Zn42 O43 2.032 . S
Zn42 O46 2.086 . S
Zn42 O51 1.977 . S
O43 Zn42 2.032 . S
O43 C47 1.278 . S
C44 O45 1.203 . S
C44 O51 1.267 . S
O45 C44 1.203 . S
O46 C39 1.185 . S
O46 Zn42 2.086 . S
C47 O43 1.278 . S
C47 O48 1.211 . S
O48 C47 1.211 . S
C49 O41 1.284 . S
C49 O50 1.273 . S
O50 C49 1.273 . S
O51 Zn42 1.977 . S
O51 C44 1.267 . S
C52 O53 1.160 . S
C52 O59 1.185 . S
O53 C52 1.160 . S
O54 Zn55 1.899 . S
O54 C62 1.284 . S
Zn55 O54 1.899 . S
Zn55 O56 2.032 . S
Zn55 O59 2.086 . S
Zn55 O64 1.977 . S
O56 Zn55 2.032 . S
O56 C60 1.278 . S
C57 O58 1.203 . S
C57 O64 1.267 . S
O58 C57 1.203 . S
O59 C52 1.185 . S
O59 Zn55 2.086 . S
C60 O56 1.278 . S
C60 O61 1.211 . S
O61 C60 1.211 . S
C62 O54 1.284 . S
C62 O63 1.273 . S
O63 C62 1.273 . S
O64 Zn55 1.977 . S
O64 C57 1.267 . S
C65 O66 1.160 . S
C65 O72 1.185 . S
O66 C65 1.160 . S
O67 Zn68 1.899 . S
O67 C75 1.284 . S
Zn68 O67 1.899 . S
Zn68 O69 2.032 . S
Zn68 O72 2.086 . S
Zn68 O77 1.977 . S
O69 Zn68 2.032 . S
O69 C73 1.278 . S
C70 O71 1.203 . S
C70 O77 1.267 . S
O71 C70 1.203 . S
O72 C65 1.185 . S
O72 Zn68 2.086 . S
C73 O69 1.278 . S
C73 O74 1.211 . S
O74 C73 1.211 . S
C75 O67 1.284 . S
C75 O76 1.273 . S
O76 C75 1.273 . S
O77 Zn68 1.977 . S
O77 C70 1.267 . S
C78 O79 1.160 . S
C78 O85 1.185 . S
O79 C78 1.160 . S
O80 Zn81 1.899 . S
O80 C88 1.284 . S
Zn81 O80 1.899 . S
Zn81 O82 2.032 . S
Zn81 O85 2.086 . S
Zn81 O90 1.977 . S
O82 Zn81 2.032 . S
O82 C86 1.278 . S
C83 O84 1.203 . S
C83 O90 1.267 . S
O84 C83 1.203 . S
O85 C78 1.185 . S
O85 Zn81 2.086 . S
C86 O82 1.278 . S
C86 O87 1.211 . S
O87 C86 1.211 . S
C88 O80 1.284 . S
C88 O89 1.273 . S
O89 C88 1.273 . S
O90 Zn81 1.977 . S
O90 C83 1.267 . S
C91 O92 1.160 . S
C91 O98 1.185 . S
O92 C91 1.160 . S
O93 Zn94 1.899 . S
O93 C101 1.284 . S
Zn94 O93 1.899 . S
Zn94 O95 2.032 . S
Zn94 O98 2.086 . S
Zn94 O103 1.977 . S
O95 Zn94 2.032 . S
O95 C99 1.278 . S
C96 O97 1.203 . S
C96 O103 1.267 . S
O97 C96 1.203 . S
O98 C91 1.185 . S
O98 Zn94 2.086 . S
C99 O95 1.278 . S
C99 O100 1.211 . S
O100 C99 1.211 . S
C101 O93 1.284 . S
C101 O102 1.273 . S
O102 C101 1.273 . S
O103 Zn94 1.977 . S
O103 C96 1.267 . S
C104 O105 1.160 . S
C104 O111 1.185 . S
O105 C104 1.160 . S
O106 Zn107 1.899 . S
O106 C114 1.284 . S
Zn107 O106 1.899 . S
Zn107 O108 2.032 . S
Zn107 O111 2.086 . S
Zn107 O116 1.977 . S
O108 Zn107 2.032 . S
O108 C112 1.278 . S
C109 O110 1.203 . S
C109 O116 1.267 . S
O110 C109 1.203 . S
O111 C104 1.185 . S
O111 Zn107 2.086 . S
C112 O108 1.278 . S
C112 O113 1.211 . S
O113 C112 1.211 . S
C114 O106 1.284 . S
C114 O115 1.273 . S
O115 C114 1.273 . S
O116 Zn107 1.977 . S
O116 C109 1.267 . S
C117 O118 1.160 . S
C117 O124 1.185 . S
O118 C117 1.160 . S
O119 Zn120 1.899 . S
O119 C127 1.284 . S
Zn120 O119 1.899 . S
Zn120 O121 2.032 . S
Zn120 O124 2.086 . S
Zn120 O129 1.977 . S
O121 Zn120 2.032 . S
O121 C125 1.278 . S
C122 O123 1.203 . S
C122 O129 1.267 . S
O123 C122 1.203 . S
O124 C117 1.185 . S
O124 Zn120 2.086 . S
C125 O121 1.278 . S
C125 O126 1.211 . S
O126 C125 1.211 . S
C127 O119 1.284 . S
C127 O128 1.273 . S
O128 C127 1.273 . S
O129 Zn120 1.977 . S
O129 C122 1.267 . S
C130 O131 1.160 . S
C130 O137 1.185 . S
O131 C130 1.160 . S
O132 Zn133 1.899 . S
O132 C140 1.284 . S
Zn133 O132 1.899 . S
Zn133 O134 2.032 . S
Zn133 O137 2.086 . S
Zn133 O142 1.977 . S
O134 Zn133 2.032 . S
O134 C138 1.278 . S
C135 O136 1.203 . S
C135 O142 1.267 . S
O136 C135 1.203 . S
O137 C130 1.185 . S
O137 Zn133 2.086 . S
C138 O134 1.278 . S
C138 O139 1.211 . S
O139 C138 1.211 . S
C140 O132 1.284 . S
C140 O141 1.273 . S
O141 C140 1.273 . S
O142 Zn133 1.977 . S
O142 C135 1.267 . S
C143 O144 1.160 . S
C143 O150 1.185 . S
O144 C143 1.160 . S
O145 Zn146 1.899 . S
O145 C153 1.284 . S
Zn146 O145 1.899 . S
Zn146 O147 2.032 . S
Zn146 O150 2.086 . S
Zn146 O155 1.977 . S
O147 Zn146 2.032 . S
O147 C151 1.278 . S
C148 O149 1.203 . S
C148 O155 1.267 . S
O149 C148 1.203 . S
O150 C143 1.185 . S
O150 Zn146 2.086 . S
C151 O147 1.278 . S
C151 O152 1.211 . S
O152 C151 1.211 . S
C153 O145 1.284 . S
C153 O154 1.273 . S
O154 C153 1.273 . S
O155 Zn146 1.977 . S
O155 C148 1.267 . S
C156 O157 1.160 . S
C156 O163 1.185 . S
O157 C156 1.160 . S
O158 Zn159 1.899 . S
O158 C166 1.284 . S
Zn159 O158 1.899 . S
Zn159 O160 2.032 . S
Zn159 O163 2.086 . S
Zn159 O168 1.977 . S
O160 Zn159 2.032 . S
O160 C164 1.278 . S
C161 O162 1.203 . S
C161 O168 1.267 . S
O162 C161 1.203 . S
O163 C156 1.185 . S
O163 Zn159 2.086 . S
C164 O160 1.278 . S
C164 O165 1.211 . S
O165 C164 1.211 . S
C166 O158 1.284 . S
C166 O167 1.273 . S
O167 C166 1.273 . S
O168 Zn159 1.977 . S
O168 C161 1.267 . S
C169 O170 1.160 . S
C169 O176 1.185 . S
O170 C169 1.160 . S
O171 Zn172 1.899 . S
O171 C179 1.284 . S
Zn172 O171 1.899 . S
Zn172 O173 2.032 . S
Zn172 O176 2.086 . S
Zn172 O181 1.977 . S
O173 Zn172 2.032 . S
O173 C177 1.278 . S
C174 O175 1.203 . S
C174 O181 1.267 . S
O175 C174 1.203 . S
O176 C169 1.185 . S
O176 Zn172 2.086 . S
C177 O173 1.278 . S
C177 O178 1.211 . S
O178 C177 1.211 . S
C179 O171 1.284 . S
C179 O180 1.273 . S
O180 C179 1.273 . S
O181 Zn172 1.977 . S
O181 C174 1.267 . S
C182 O183 1.160 . S
C182 O189 1.185 . S
O183 C182 1.160 . S
O184 Zn185 1.899 . S
O184 C192 1.284 . S
Zn185 O184 1.899 . S
Zn185 O186 2.032 . S
Zn185 O189 2.086 . S
Zn185 O194 1.977 . S
O186 Zn185 2.032 . S
O186 C190 1.278 . S
C187 O188 1.203 . S
C187 O194 1.267 . S
O188 C187 1.203 . S
O189 C182 1.185 . S
O189 Zn185 2.086 . S
C190 O186 1.278 . S
C190 O191 1.211 . S
O191 C190 1.211 . S
C192 O184 1.284 . S
C192 O193 1.273 . S
O193 C192 1.273 . S
O194 Zn185 1.977 . S
O194 C187 1.267 . S
C195 O196 1.160 . S
C195 O202 1.185 . S
O196 C195 1.160 . S
O197 Zn198 1.899 . S
O197 C205 1.284 . S
Zn198 O197 1.899 . S
Zn198 O199 2.032 . S
Zn198 O202 2.086 . S
Zn198 O207 1.977 . S
O199 Zn198 2.032 . S
O199 C203 1.278 . S
C200 O201 1.203 . S
C200 O207 1.267 . S
O201 C200 1.203 . S
O202 C195 1.185 . S
O202 Zn198 2.086 . S
C203 O199 1.278 . S
C203 O204 1.211 . S
O204 C203 1.211 . S
C205 O197 1.284 . S
C205 O206 1.273 . S
O206 C205 1.273 . S
O207 Zn198 1.977 . S
O207 C200 1.267 . S
C208 O209 1.160 . S
C208 O215 1.185 . S
O209 C208 1.160 . S
O210 Zn211 1.899 . S
O210 C218 1.284 . S
Zn211 O210 1.899 . S
Zn211 O212 2.032 . S
Zn211 O215 2.086 . S
Zn211 O220 1.977 . S
O212 Zn211 2.032 . S
O212 C216 1.278 . S
C213 O214 1.203 . S
C213 O220 1.267 . S
O214 C213 1.203 . S
O215 C208 1.185 . S
O215 Zn211 2.086 . S
C216 O212 1.278 . S
C216 O217 1.211 . S
O217 C216 1.211 . S
C218 O210 1.284 . S
C218 O219 1.273 . S
O219 C218 1.273 . S
O220 Zn211 1.977 . S
O220 C213 1.267 . S
C221 O222 1.160 . S
C221 O228 1.185 . S
O222 C221 1.160 . S
O223 Zn224 1.899 . S
O223 C231 1.284 . S
Zn224 O223 1.899 . S
Zn224 O225 2.032 . S
Zn224 O228 2.086 . S
Zn224 O233 1.977 . S
O225 Zn224 2.032 . S
O225 C229 1.278 . S
C226 O227 1.203 . S
C226 O233 1.267 . S
O227 C226 1.203 . S
O228 C221 1.185 . S
O228 Zn224 2.086 . S
C229 O225 1.278 . S
C229 O230 1.211 . S
O230 C229 1.211 . S
C231 O223 1.284 . S
C231 O232 1.273 . S
O232 C231 1.273 . S
O233 Zn224 1.977 . S
O233 C226 1.267 . S
C234 O235 1.160 . S
C234 O241 1.185 . S
O235 C234 1.160 . S
O236 Zn237 1.899 . S
O236 C244 1.284 . S
Zn237 O236 1.899 . S
Zn237 O238 2.032 . S
Zn237 O241 2.086 . S
Zn237 O246 1.977 . S
O238 Zn237 2.032 . S
O238 C242 1.278 . S
C239 O240 1.203 . S
C239 O246 1.267 . S
O240 C239 1.203 . S
O241 C234 1.185 . S
O241 Zn237 2.086 . S
C242 O238 1.278 . S
C242 O243 1.211 . S
O243 C242 1.211 . S
C244 O236 1.284 . S
C244 O245 1.273 . S
O245 C244 1.273 . S
O246 Zn237 1.977 . S
O246 C239 1.267 . S
C247 O248 1.160 . S
C247 O254 1.185 . S
O248 C247 1.160 . S
O249 Zn250 1.899 . S
O249 C257 1.284 . S
Zn250 O249 1.899 . S
Zn250 O251 2.032 . S
Zn250 O254 2.086 . S
Zn250 O259 1.977 . S
O251 Zn250 2.032 . S
O251 C255 1.278 . S
C252 O253 1.203 . S
C252 O259 1.267 . S
O253 C252 1.203 . S
O254 C247 1.185 . S
O254 Zn250 2.086 . S
C255 O251 1.278 . S
C255 O256 1.211 . S
O256 C255 1.211 . S
C257 O249 1.284 . S
C257 O258 1.273 . S
O258 C257 1.273 . S
O259 Zn250 1.977 . S
O259 C252 1.267 . S
C260 O261 1.160 . S
C260 O267 1.185 . S
O261 C260 1.160 . S
O262 Zn263 1.899 . S
O262 C270 1.284 . S
Zn263 O262 1.899 . S
Zn263 O264 2.032 . S
Zn263 O267 2.086 . S
Zn263 O272 1.977 . S
O264 Zn263 2.032 . S
O264 C268 1.278 . S
C265 O266 1.203 . S
C265 O272 1.267 . S
O266 C265 1.203 . S
O267 C260 1.185 . S
O267 Zn263 2.086 . S
C268 O264 1.278 . S
C268 O269 1.211 . S
O269 C268 1.211 . S
C270 O262 1.284 . S
C270 O271 1.273 . S
O271 C270 1.273 . S
O272 Zn263 1.977 . S
O272 C265 1.267 . S
C273 O274 1.160 . S
C273 O280 1.185 . S
O274 C273 1.160 . S
O275 Zn276 1.899 . S
O275 C283 1.284 . S
Zn276 O275 1.899 . S
Zn276 O277 2.032 . S
Zn276 O280 2.086 . S
Zn276 O285 1.977 . S
O277 Zn276 2.032 . S
O277 C281 1.278 . S
C278 O279 1.203 . S
C278 O285 1.267 . S
O279 C278 1.203 . S
O280 C273 1.185 . S
O280 Zn276 2.086 . S
C281 O277 1.278 . S
C281 O282 1.211 . S
O282 C281 1.211 . S
C283 O275 1.284 . S
C283 O284 1.273 . S
O284 C283 1.273 . S
O285 Zn276 1.977 . S
O285 C278 1.267 . S
C286 O287 1.160 . S
C286 O293 1.185 . S
O287 C286 1.160 . S
O288 Zn289 1.899 . S
O288 C296 1.284 . S
Zn289 O288 1.899 . S
Zn289 O290 2.032 . S
Zn289 O293 2.086 . S
Zn289 O298 1.977 . S
O290 Zn289 2.032 . S
O290 C294 1.278 . S
C291 O292 1.203 . S
C291 O298 1.267 . S
O292 C291 1.203 . S
O293 C286 1.185 . S
O293 Zn289 2.086 . S
C294 O290 1.278 . S
C294 O295 1.211 . S
O295 C294 1.211 . S
C296 O288 1.284 . S
C296 O297 1.273 . S
O297 C296 1.273 . S
O298 Zn289 1.977 . S
O298 C291 1.267 . S
C299 O300 1.160 . S
C299 O306 1.185 . S
O300 C299 1.160 . S
O301 Zn302 1.899 . S
O301 C309 1.284 . S
Zn302 O301 1.899 . S
Zn302 O303 2.032 . S
Zn302 O306 2.086 . S
Zn302 O311 1.977 . S
O303 Zn302 2.032 . S
O303 C307 1.278 . S
C304 O305 1.203 . S
C304 O311 1.267 . S
O305 C304 1.203 . S
O306 C299 1.185 . S
O306 Zn302 2.086 . S
C307 O303 1.278 . S
C307 O308 1.211 . S
O308 C307 1.211 . S
C309 O301 1.284 . S
C309 O310 1.273 . S
O310 C309 1.273 . S
O311 Zn302 1.977 . S
O311 C304 1.267 . S
C312 O313 1.160 . S
C312 O319 1.185 . S
O313 C312 1.160 . S
O314 Zn315 1.899 . S
O314 C322 1.284 . S
Zn315 O314 1.899 . S
Zn315 O316 2.032 . S
Zn315 O319 2.086 . S
Zn315 O324 1.977 . S
O316 Zn315 2.032 . S
O316 C320 1.278 . S
C317 O318 1.203 . S
C317 O324 1.267 . S
O318 C317 1.203 . S
O319 C312 1.185 . S
O319 Zn315 2.086 . S
C320 O316 1.278 . S
C320 O321 1.211 . S
O321 C320 1.211 . S
C322 O314 1.284 . S
C322 O323 1.273 . S
O323 C322 1.273 . S
O324 Zn315 1.977 . S
O324 C317 1.267 . S
C325 O326 1.160 . S
C325 O332 1.185 . S
O326 C325 1.160 . S
O327 Zn328 1.899 . S
O327 C335 1.284 . S
Zn328 O327 1.899 . S
Zn328 O329 2.032 . S
Zn328 O332 2.086 . S
Zn328 O337 1.977 . S
O329 Zn328 2.032 . S
O329 C333 1.278 . S
C330 O331 1.203 . S
C330 O337 1.267 . S
O331 C330 1.203 . S
O332 C325 1.185 . S
O332 Zn328 2.086 . S
C333 O329 1.278 . S
C333 O334 1.211 . S
O334 C333 1.211 . S
C335 O327 1.284 . S
C335 O336 1.273 . S
O336 C335 1.273 . S
O337 Zn328 1.977 . S
O337 C330 1.267 . S
C338 O339 1.160 . S
C338 O345 1.185 . S
O339 C338 1.160 . S
O340 Zn341 1.899 . S
O340 C348 1.284 . S
Zn341 O340 1.899 . S
Zn341 O342 2.032 . S
Zn341 O345 2.086 . S
Zn341 O350 1.977 . S
O342 Zn341 2.032 . S
O342 C346 1.278 . S
C343 O344 1.203 . S
C343 O350 1.267 . S
O344 C343 1.203 . S
O345 C338 1.185 . S
O345 Zn341 2.086 . S
C346 O342 1.278 . S
C346 O347 1.211 . S
O347 C346 1.211 . S
C348 O340 1.284 . S
C348 O349 1.273 . S
O349 C348 1.273 . S
O350 Zn341 1.977 . S
O350 C343 1.267 . S
C351 O352 1.160 . S
C351 O358 1.185 . S
O352 C351 1.160 . S
O353 Zn354 1.899 . S
O353 C361 1.284 . S
Zn354 O353 1.899 . S
Zn354 O355 2.032 . S
Zn354 O358 2.086 . S
Zn354 O363 1.977 . S
O355 Zn354 2.032 . S
O355 C359 1.278 . S
C356 O357 1.203 . S
C356 O363 1.267 . S
O357 C356 1.203 . S
O358 C351 1.185 . S
O358 Zn354 2.086 . S
C359 O355 1.278 . S
C359 O360 1.211 . S
O360 C359 1.211 . S
C361 O353 1.284 . S
C361 O362 1.273 . S
O362 C361 1.273 . S
O363 Zn354 1.977 . S
O363 C356 1.267 . S
C364 O365 1.160 . S
C364 O371 1.185 . S
O365 C364 1.160 . S
O366 Zn367 1.899 . S
O366 C374 1.284 . S
Zn367 O366 1.899 . S
Zn367 O368 2.032 . S
Zn367 O371 2.086 . S
Zn367 O376 1.977 . S
O368 Zn367 2.032 . S
O368 C372 1.278 . S
C369 O370 1.203 . S
C369 O376 1.267 . S
O370 C369 1.203 . S
O371 C364 1.185 . S
O371 Zn367 2.086 . S
C372 O368 1.278 . S
C372 O373 1.211 . S
O373 C372 1.211 . S
C374 O366 1.284 . S
C374 O375 1.273 . S
O375 C374 1.273 . S
O376 Zn367 1.977 . S
O376 C369 1.267 . S
C377 O378 1.160 . S
C377 O384 1.185 . S
O378 C377 1.160 . S
O379 Zn380 1.899 . S
O379 C387 1.284 . S
Zn380 O379 1.899 . S
Zn380 O381 2.032 . S
Zn380 O384 2.086 . S
Zn380 O389 1.977 . S
O381 Zn380 2.032 . S
O381 C385 1.278 . S
C382 O383 1.203 . S
C382 O389 1.267 . S
O383 C382 1.203 . S
O384 C377 1.185 . S
O384 Zn380 2.086 . S
C385 O381 1.278 . S
C385 O386 1.211 . S
O386 C385 1.211 . S
C387 O379 1.284 . S
C387 O388 1.273 . S
O388 C387 1.273 . S
O389 Zn380 1.977 . S
O389 C382 1.267 . S
C390 O391 1.160 . S
C390 O397 1.185 . S
O391 C390 1.160 . S
O392 Zn393 1.899 . S
O392 C400 1.284 . S
Zn393 O392 1.899 . S
Zn393 O394 2.032 . S
Zn393 O397 2.086 . S
Zn393 O402 1.977 . S
O394 Zn393 2.032 . S
O394 C398 1.278 . S
C395 O396 1.203 . S
C395 O402 1.267 . S
O396 C395 1.203 . S
O397 C390 1.185 . S
O397 Zn393 2.086 . S
C398 O394 1.278 . S
C398 O399 1.211 . S
O399 C398 1.211 . S
C400 O392 1.284 . S
C400 O401 1.273 . S
O401 C400 1.273 . S
O402 Zn393 1.977 . S
O402 C395 1.267 . S
C403 O404 1.160 . S
C403 O410 1.185 . S
O404 C403 1.160 . S
O405 Zn406 1.899 . S
O405 C413 1.284 . S
Zn406 O405 1.899 . S
Zn406 O407 2.032 . S
Zn406 O410 2.086 . S
Zn406 O415 1.977 . S
O407 Zn406 2.032 . S
O407 C411 1.278 . S
C408 O409 1.203 . S
C408 O415 1.267 . S
O409 C408 1.203 . S
O410 C403 1.185 . S
O410 Zn406 2.086 . S
C411 O407 1.278 . S
C411 O412 1.211 . S
O412 C411 1.211 . S
C413 O405 1.284 . S
C413 O414 1.273 . S
O414 C413 1.273 . S
O415 Zn406 1.977 . S
O415 C408 1.267 . S
H416 C434 0.951 . S
H417 C436 0.951 . S
H418 C438 0.950 . S
H419 C439 0.950 . S
H420 C441 0.950 . S
H421 C444 0.950 . S
H422 C445 0.950 . S
H423 C447 0.950 . S
H424 C448 0.950 . S
H425 C449 0.951 . S
H426 C451 0.951 . S
H427 C453 0.950 . S
H428 C454 0.950 . S
H429 C456 0.950 . S
H430 C459 0.950 . S
H431 C460 0.950 . S
H432 C462 0.950 . S
H433 C463 0.950 . S
C434 H416 0.951 . S
C434 C435 1.366 . S
C434 C436 1.388 . S
C435 C434 1.366 . S
C435 C439 1.385 . S
C436 H417 0.951 . S
C436 C434 1.388 . S
C436 C437 1.366 . S
C437 C436 1.366 . S
C437 C438 1.414 . S
C437 C440 1.499 . S
C438 H418 0.950 . S
C438 C437 1.414 . S
C438 C439 1.374 . S
C439 H419 0.950 . S
C439 C435 1.385 . S
C439 C438 1.374 . S
C440 C437 1.499 . S
C440 C441 1.373 . S
C440 C442 1.389 . S
C441 H420 0.950 . S
C441 C440 1.373 . S
C441 C457 1.377 . S
C442 C440 1.389 . S
C442 C443 1.524 . S
C442 C456 1.377 . S
C443 C442 1.524 . S
C443 C444 1.397 . S
C443 C448 1.363 . S
C444 H421 0.950 . S
C444 C443 1.397 . S
C444 C445 1.334 . S
C445 H422 0.950 . S
C445 C444 1.334 . S
C445 C446 1.287 . S
C446 C445 1.287 . S
C446 C447 1.524 . S
C446 H465 0.913 . S
C447 H423 0.950 . S
C447 C446 1.524 . S
C447 C448 1.415 . S
C448 H424 0.950 . S
C448 C443 1.363 . S
C448 C447 1.415 . S
C449 H425 0.951 . S
C449 C450 1.366 . S
C449 C451 1.388 . S
C450 C449 1.366 . S
C450 C454 1.385 . S
C451 H426 0.951 . S
C451 C449 1.388 . S
C451 C452 1.366 . S
C452 C451 1.366 . S
C452 C453 1.414 . S
C452 C455 1.499 . S
C453 H427 0.950 . S
C453 C452 1.414 . S
C453 C454 1.374 . S
C454 H428 0.950 . S
C454 C450 1.385 . S
C454 C453 1.374 . S
C455 C452 1.499 . S
C455 C456 1.373 . S
C455 C457 1.389 . S
C456 H429 0.950 . S
C456 C442 1.377 . S
C456 C455 1.373 . S
C457 C441 1.377 . S
C457 C455 1.389 . S
C457 C458 1.524 . S
C458 C457 1.524 . S
C458 C459 1.397 . S
C458 C463 1.363 . S
C459 H430 0.950 . S
C459 C458 1.397 . S
C459 C460 1.334 . S
C460 H431 0.950 . S
C460 C459 1.334 . S
C460 C461 1.287 . S
C461 C460 1.287 . S
C461 C462 1.524 . S
C461 H464 0.999 . S
C462 H432 0.950 . S
C462 C461 1.524 . S
C462 C463 1.415 . S
C463 H433 0.950 . S
C463 C458 1.363 . S
C463 C462 1.415 . S
H464 C461 0.999 . S
H465 C446 0.913 . S
H466 C484 0.951 . S
H467 C486 0.951 . S
H468 C488 0.950 . S
H469 C489 0.950 . S
H470 C491 0.950 . S
H471 C494 0.950 . S
H472 C495 0.950 . S
H473 C497 0.950 . S
H474 C498 0.950 . S
H475 C499 0.951 . S
H476 C501 0.951 . S
H477 C503 0.950 . S
H478 C504 0.950 . S
H479 C506 0.950 . S
H480 C509 0.950 . S
H481 C510 0.950 . S
H482 C512 0.950 . S
H483 C513 0.950 . S
C484 H466 0.951 . S
C484 C485 1.366 . S
C484 C486 1.388 . S
C485 C484 1.366 . S
C485 C489 1.385 . S
C486 H467 0.951 . S
C486 C484 1.388 . S
C486 C487 1.366 . S
C487 C486 1.366 . S
C487 C488 1.414 . S
C487 C490 1.499 . S
C488 H468 0.950 . S
C488 C487 1.414 . S
C488 C489 1.374 . S
C489 H469 0.950 . S
C489 C485 1.385 . S
C489 C488 1.374 . S
C490 C487 1.499 . S
C490 C491 1.373 . S
C490 C492 1.389 . S
C491 H470 0.950 . S
C491 C490 1.373 . S
C491 C507 1.377 1_565 S
C492 C490 1.389 . S
C492 C493 1.524 . S
C492 C506 1.377 1_565 S
C493 C492 1.524 . S
C493 C494 1.397 . S
C493 C498 1.363 . S
C494 H471 0.950 . S
C494 C493 1.397 . S
C494 C495 1.334 . S
C495 H472 0.950 . S
C495 C494 1.334 . S
C495 C496 1.287 . S
C496 C495 1.287 . S
C496 C497 1.524 . S
C496 H515 0.913 . S
C497 H473 0.950 . S
C497 C496 1.524 . S
C497 C498 1.415 . S
C498 H474 0.950 . S
C498 C493 1.363 . S
C498 C497 1.415 . S
C499 H475 0.951 . S
C499 C500 1.366 . S
C499 C501 1.388 . S
C500 C499 1.366 . S
C500 C504 1.385 . S
C501 H476 0.951 . S
C501 C499 1.388 . S
C501 C502 1.366 . S
C502 C501 1.366 . S
C502 C503 1.414 . S
C502 C505 1.499 . S
C503 H477 0.950 . S
C503 C502 1.414 . S
C503 C504 1.374 . S
C504 H478 0.950 . S
C504 C500 1.385 . S
C504 C503 1.374 . S
C505 C502 1.499 . S
C505 C506 1.373 . S
C505 C507 1.389 . S
C506 H479 0.950 . S
C506 C492 1.377 1_545 S
C506 C505 1.373 . S
C507 C491 1.377 1_545 S
C507 C505 1.389 . S
C507 C508 1.524 . S
C508 C507 1.524 . S
C508 C509 1.397 . S
C508 C513 1.363 . S
C509 H480 0.950 . S
C509 C508 1.397 . S
C509 C510 1.334 . S
C510 H481 0.950 . S
C510 C509 1.334 . S
C510 C511 1.287 . S
C511 C510 1.287 . S
C511 C512 1.524 . S
C511 H514 0.999 . S
C512 H482 0.950 . S
C512 C511 1.524 . S
C512 C513 1.415 . S
C513 H483 0.950 . S
C513 C508 1.363 . S
C513 C512 1.415 . S
H514 C511 0.999 . S
H515 C496 0.913 . S
H516 C534 0.951 . S
H517 C536 0.951 . S
H518 C538 0.950 . S
H519 C539 0.950 . S
H520 C541 0.950 . S
H521 C544 0.950 . S
H522 C545 0.950 . S
H523 C547 0.950 . S
H524 C548 0.950 . S
H525 C549 0.951 . S
H526 C551 0.951 . S
H527 C553 0.950 . S
H528 C554 0.950 . S
H529 C556 0.950 . S
H530 C559 0.950 . S
H531 C560 0.950 . S
H532 C562 0.950 . S
H533 C563 0.950 . S
C534 H516 0.951 . S
C534 C535 1.366 . S
C534 C536 1.388 . S
C535 C534 1.366 . S
C535 C539 1.385 . S
C536 H517 0.951 . S
C536 C534 1.388 . S
C536 C537 1.366 . S
C537 C536 1.366 . S
C537 C538 1.414 . S
C537 C540 1.499 . S
C538 H518 0.950 . S
C538 C537 1.414 . S
C538 C539 1.374 . S
C539 H519 0.950 . S
C539 C535 1.385 . S
C539 C538 1.374 . S
C540 C537 1.499 . S
C540 C541 1.373 . S
C540 C542 1.389 . S
C541 H520 0.950 . S
C541 C540 1.373 . S
C541 C557 1.377 . S
C542 C540 1.389 . S
C542 C543 1.524 . S
C542 C556 1.377 . S
C543 C542 1.524 . S
C543 C544 1.397 . S
C543 C548 1.363 . S
C544 H521 0.950 . S
C544 C543 1.397 . S
C544 C545 1.334 . S
C545 H522 0.950 . S
C545 C544 1.334 . S
C545 C546 1.287 . S
C546 C545 1.287 . S
C546 C547 1.524 . S
C546 H565 0.913 . S
C547 H523 0.950 . S
C547 C546 1.524 . S
C547 C548 1.415 . S
C548 H524 0.950 . S
C548 C543 1.363 . S
C548 C547 1.415 . S
C549 H525 0.951 . S
C549 C550 1.366 . S
C549 C551 1.388 . S
C550 C549 1.366 . S
C550 C554 1.385 . S
C551 H526 0.951 . S
C551 C549 1.388 . S
C551 C552 1.366 . S
C552 C551 1.366 . S
C552 C553 1.414 . S
C552 C555 1.499 . S
C553 H527 0.950 . S
C553 C552 1.414 . S
C553 C554 1.374 . S
C554 H528 0.950 . S
C554 C550 1.385 . S
C554 C553 1.374 . S
C555 C552 1.499 . S
C555 C556 1.373 . S
C555 C557 1.389 . S
C556 H529 0.950 . S
C556 C542 1.377 . S
C556 C555 1.373 . S
C557 C541 1.377 . S
C557 C555 1.389 . S
C557 C558 1.524 . S
C558 C557 1.524 . S
C558 C559 1.397 . S
C558 C563 1.363 . S
C559 H530 0.950 . S
C559 C558 1.397 . S
C559 C560 1.334 . S
C560 H531 0.950 . S
C560 C559 1.334 . S
C560 C561 1.287 . S
C561 C560 1.287 . S
C561 C562 1.524 . S
C561 H564 0.999 . S
C562 H532 0.950 . S
C562 C561 1.524 . S
C562 C563 1.415 . S
C563 H533 0.950 . S
C563 C558 1.363 . S
C563 C562 1.415 . S
H564 C561 0.999 . S
H565 C546 0.913 . S
H566 C584 0.951 . S
H567 C586 0.951 . S
H568 C588 0.950 1_554 S
H569 C589 0.950 . S
H570 C591 0.950 . S
H571 C594 0.950 . S
H572 C595 0.950 . S
H573 C597 0.950 . S
H574 C598 0.950 1_565 S
H575 C599 0.951 . S
H576 C601 0.951 . S
H577 C603 0.950 1_556 S
H578 C604 0.950 . S
H579 C606 0.950 . S
H580 C609 0.950 . S
H581 C610 0.950 . S
H582 C612 0.950 . S
H583 C613 0.950 1_545 S
C584 H566 0.951 . S
C584 C585 1.366 . S
C584 C586 1.388 . S
C585 C584 1.366 . S
C585 C589 1.385 . S
C586 H567 0.951 . S
C586 C584 1.388 . S
C586 C587 1.366 . S
C587 C586 1.366 . S
C587 C588 1.414 . S
C587 C590 1.499 . S
C588 H568 0.950 1_556 S
C588 C587 1.414 . S
C588 C589 1.374 . S
C589 H569 0.950 . S
C589 C585 1.385 . S
C589 C588 1.374 . S
C590 C587 1.499 . S
C590 C591 1.373 . S
C590 C592 1.389 . S
C591 H570 0.950 . S
C591 C590 1.373 . S
C591 C607 1.377 1_546 S
C592 C590 1.389 . S
C592 C593 1.524 . S
C592 C606 1.377 1_546 S
C593 C592 1.524 . S
C593 C594 1.397 1_556 S
C593 C598 1.363 . S
C594 H571 0.950 . S
C594 C593 1.397 1_554 S
C594 C595 1.334 . S
C595 H572 0.950 . S
C595 C594 1.334 . S
C595 C596 1.287 1_554 S
C596 C595 1.287 1_556 S
C596 C597 1.524 . S
C596 H615 0.913 . S
C597 H573 0.950 . S
C597 C596 1.524 . S
C597 C598 1.415 . S
C598 H574 0.950 1_545 S
C598 C593 1.363 . S
C598 C597 1.415 . S
C599 H575 0.951 . S
C599 C600 1.366 . S
C599 C601 1.388 . S
C600 C599 1.366 . S
C600 C604 1.385 . S
C601 H576 0.951 . S
C601 C599 1.388 . S
C601 C602 1.366 . S
C602 C601 1.366 . S
C602 C603 1.414 . S
C602 C605 1.499 . S
C603 H577 0.950 1_554 S
C603 C602 1.414 . S
C603 C604 1.374 . S
C604 H578 0.950 . S
C604 C600 1.385 . S
C604 C603 1.374 . S
C605 C602 1.499 . S
C605 C606 1.373 . S
C605 C607 1.389 . S
C606 H579 0.950 . S
C606 C592 1.377 1_564 S
C606 C605 1.373 . S
C607 C591 1.377 1_564 S
C607 C605 1.389 . S
C607 C608 1.524 . S
C608 C607 1.524 . S
C608 C609 1.397 1_554 S
C608 C613 1.363 . S
C609 H580 0.950 . S
C609 C608 1.397 1_556 S
C609 C610 1.334 . S
C610 H581 0.950 . S
C610 C609 1.334 . S
C610 C611 1.287 1_556 S
C611 C610 1.287 1_554 S
C611 C612 1.524 . S
C611 H614 0.999 . S
C612 H582 0.950 . S
C612 C611 1.524 . S
C612 C613 1.415 . S
C613 H583 0.950 1_565 S
C613 C608 1.363 . S
C613 C612 1.415 . S
H614 C611 0.999 . S
H615 C596 0.913 . S
H616 C634 0.951 . S
H617 C636 0.951 . S
H618 C638 0.950 . S
H619 C639 0.950 . S
H620 C641 0.950 . S
H621 C644 0.950 . S
H622 C645 0.950 . S
H623 C647 0.950 . S
H624 C648 0.950 . S
H625 C649 0.951 . S
H626 C651 0.951 . S
H627 C653 0.950 . S
H628 C654 0.950 . S
H629 C656 0.950 . S
H630 C659 0.950 . S
H631 C660 0.950 . S
H632 C662 0.950 . S
H633 C663 0.950 . S
C634 H616 0.951 . S
C634 C635 1.366 . S
C634 C636 1.388 . S
C635 C634 1.366 . S
C635 C639 1.385 . S
C636 H617 0.951 . S
C636 C634 1.388 . S
C636 C637 1.366 . S
C637 C636 1.366 . S
C637 C638 1.414 . S
C637 C640 1.499 . S
C638 H618 0.950 . S
C638 C637 1.414 . S
C638 C639 1.374 . S
C639 H619 0.950 . S
C639 C635 1.385 . S
C639 C638 1.374 . S
C640 C637 1.499 . S
C640 C641 1.373 . S
C640 C642 1.389 . S
C641 H620 0.950 . S
C641 C640 1.373 . S
C641 C657 1.377 . S
C642 C640 1.389 . S
C642 C643 1.524 . S
C642 C656 1.377 . S
C643 C642 1.524 . S
C643 C644 1.397 . S
C643 C648 1.363 . S
C644 H621 0.950 . S
C644 C643 1.397 . S
C644 C645 1.334 . S
C645 H622 0.950 . S
C645 C644 1.334 . S
C645 C646 1.287 . S
C646 C645 1.287 . S
C646 C647 1.524 . S
C646 H665 0.913 . S
C647 H623 0.950 . S
C647 C646 1.524 . S
C647 C648 1.415 . S
C648 H624 0.950 . S
C648 C643 1.363 . S
C648 C647 1.415 . S
C649 H625 0.951 . S
C649 C650 1.366 . S
C649 C651 1.388 . S
C650 C649 1.366 . S
C650 C654 1.385 . S
C651 H626 0.951 . S
C651 C649 1.388 . S
C651 C652 1.366 . S
C652 C651 1.366 . S
C652 C653 1.414 . S
C652 C655 1.499 . S
C653 H627 0.950 . S
C653 C652 1.414 . S
C653 C654 1.374 . S
C654 H628 0.950 . S
C654 C650 1.385 . S
C654 C653 1.374 . S
C655 C652 1.499 . S
C655 C656 1.373 . S
C655 C657 1.389 . S
C656 H629 0.950 . S
C656 C642 1.377 . S
C656 C655 1.373 . S
C657 C641 1.377 . S
C657 C655 1.389 . S
C657 C658 1.524 . S
C658 C657 1.524 . S
C658 C659 1.397 . S
C658 C663 1.363 . S
C659 H630 0.950 . S
C659 C658 1.397 . S
C659 C660 1.334 . S
C660 H631 0.950 . S
C660 C659 1.334 . S
C660 C661 1.287 . S
C661 C660 1.287 . S
C661 C662 1.524 . S
C661 H664 0.999 . S
C662 H632 0.950 . S
C662 C661 1.524 . S
C662 C663 1.415 . S
C663 H633 0.950 . S
C663 C658 1.363 . S
C663 C662 1.415 . S
H664 C661 0.999 . S
H665 C646 0.913 . S
H666 C684 0.951 . S
H667 C686 0.951 . S
H668 C688 0.950 . S
H669 C689 0.950 . S
H670 C691 0.950 . S
H671 C694 0.950 . S
H672 C695 0.950 . S
H673 C697 0.950 . S
H674 C698 0.950 . S
H675 C699 0.951 . S
H676 C701 0.951 . S
H677 C703 0.950 . S
H678 C704 0.950 . S
H679 C706 0.950 . S
H680 C709 0.950 . S
H681 C710 0.950 . S
H682 C712 0.950 . S
H683 C713 0.950 . S
C684 H666 0.951 . S
C684 C685 1.366 . S
C684 C686 1.388 . S
C685 C684 1.366 . S
C685 C689 1.385 . S
C686 H667 0.951 . S
C686 C684 1.388 . S
C686 C687 1.366 . S
C687 C686 1.366 . S
C687 C688 1.414 . S
C687 C690 1.499 . S
C688 H668 0.950 . S
C688 C687 1.414 . S
C688 C689 1.374 . S
C689 H669 0.950 . S
C689 C685 1.385 . S
C689 C688 1.374 . S
C690 C687 1.499 . S
C690 C691 1.373 . S
C690 C692 1.389 . S
C691 H670 0.950 . S
C691 C690 1.373 . S
C691 C707 1.377 1_565 S
C692 C690 1.389 . S
C692 C693 1.524 . S
C692 C706 1.377 1_565 S
C693 C692 1.524 . S
C693 C694 1.397 . S
C693 C698 1.363 . S
C694 H671 0.950 . S
C694 C693 1.397 . S
C694 C695 1.334 . S
C695 H672 0.950 . S
C695 C694 1.334 . S
C695 C696 1.287 . S
C696 C695 1.287 . S
C696 C697 1.524 . S
C696 H715 0.913 . S
C697 H673 0.950 . S
C697 C696 1.524 . S
C697 C698 1.415 . S
C698 H674 0.950 . S
C698 C693 1.363 . S
C698 C697 1.415 . S
C699 H675 0.951 . S
C699 C700 1.366 . S
C699 C701 1.388 . S
C700 C699 1.366 . S
C700 C704 1.385 . S
C701 H676 0.951 . S
C701 C699 1.388 . S
C701 C702 1.366 . S
C702 C701 1.366 . S
C702 C703 1.414 . S
C702 C705 1.499 . S
C703 H677 0.950 . S
C703 C702 1.414 . S
C703 C704 1.374 . S
C704 H678 0.950 . S
C704 C700 1.385 . S
C704 C703 1.374 . S
C705 C702 1.499 . S
C705 C706 1.373 . S
C705 C707 1.389 . S
C706 H679 0.950 . S
C706 C692 1.377 1_545 S
C706 C705 1.373 . S
C707 C691 1.377 1_545 S
C707 C705 1.389 . S
C707 C708 1.524 . S
C708 C707 1.524 . S
C708 C709 1.397 . S
C708 C713 1.363 . S
C709 H680 0.950 . S
C709 C708 1.397 . S
C709 C710 1.334 . S
C710 H681 0.950 . S
C710 C709 1.334 . S
C710 C711 1.287 . S
C711 C710 1.287 . S
C711 C712 1.524 . S
C711 H714 0.999 . S
C712 H682 0.950 . S
C712 C711 1.524 . S
C712 C713 1.415 . S
C713 H683 0.950 . S
C713 C708 1.363 . S
C713 C712 1.415 . S
H714 C711 0.999 . S
H715 C696 0.913 . S
H716 C734 0.951 . S
H717 C736 0.951 . S
H718 C738 0.950 . S
H719 C739 0.950 . S
H720 C741 0.950 . S
H721 C744 0.950 . S
H722 C745 0.950 . S
H723 C747 0.950 . S
H724 C748 0.950 . S
H725 C749 0.951 . S
H726 C751 0.951 . S
H727 C753 0.950 . S
H728 C754 0.950 . S
H729 C756 0.950 . S
H730 C759 0.950 . S
H731 C760 0.950 . S
H732 C762 0.950 . S
H733 C763 0.950 . S
C734 H716 0.951 . S
C734 C735 1.366 . S
C734 C736 1.388 . S
C735 C734 1.366 . S
C735 C739 1.385 . S
C736 H717 0.951 . S
C736 C734 1.388 . S
C736 C737 1.366 . S
C737 C736 1.366 . S
C737 C738 1.414 . S
C737 C740 1.499 . S
C738 H718 0.950 . S
C738 C737 1.414 . S
C738 C739 1.374 . S
C739 H719 0.950 . S
C739 C735 1.385 . S
C739 C738 1.374 . S
C740 C737 1.499 . S
C740 C741 1.373 . S
C740 C742 1.389 . S
C741 H720 0.950 . S
C741 C740 1.373 . S
C741 C757 1.377 . S
C742 C740 1.389 . S
C742 C743 1.524 . S
C742 C756 1.377 . S
C743 C742 1.524 . S
C743 C744 1.397 . S
C743 C748 1.363 . S
C744 H721 0.950 . S
C744 C743 1.397 . S
C744 C745 1.334 . S
C745 H722 0.950 . S
C745 C744 1.334 . S
C745 C746 1.287 . S
C746 C745 1.287 . S
C746 C747 1.524 . S
C746 H765 0.913 . S
C747 H723 0.950 . S
C747 C746 1.524 . S
C747 C748 1.415 . S
C748 H724 0.950 . S
C748 C743 1.363 . S
C748 C747 1.415 . S
C749 H725 0.951 . S
C749 C750 1.366 . S
C749 C751 1.388 . S
C750 C749 1.366 . S
C750 C754 1.385 . S
C751 H726 0.951 . S
C751 C749 1.388 . S
C751 C752 1.366 . S
C752 C751 1.366 . S
C752 C753 1.414 . S
C752 C755 1.499 . S
C753 H727 0.950 . S
C753 C752 1.414 . S
C753 C754 1.374 . S
C754 H728 0.950 . S
C754 C750 1.385 . S
C754 C753 1.374 . S
C755 C752 1.499 . S
C755 C756 1.373 . S
C755 C757 1.389 . S
C756 H729 0.950 . S
C756 C742 1.377 . S
C756 C755 1.373 . S
C757 C741 1.377 . S
C757 C755 1.389 . S
C757 C758 1.524 . S
C758 C757 1.524 . S
C758 C759 1.397 . S
C758 C763 1.363 . S
C759 H730 0.950 . S
C759 C758 1.397 . S
C759 C760 1.334 . S
C760 H731 0.950 . S
C760 C759 1.334 . S
C760 C761 1.287 . S
C761 C760 1.287 . S
C761 C762 1.524 . S
C761 H764 0.999 . S
C762 H732 0.950 . S
C762 C761 1.524 . S
C762 C763 1.415 . S
C763 H733 0.950 . S
C763 C758 1.363 . S
C763 C762 1.415 . S
H764 C761 0.999 . S
H765 C746 0.913 . S
H766 C784 0.951 . S
H767 C786 0.951 . S
H768 C788 0.950 1_554 S
H769 C789 0.950 . S
H770 C791 0.950 . S
H771 C794 0.950 . S
H772 C795 0.950 . S
H773 C797 0.950 . S
H774 C798 0.950 1_565 S
H775 C799 0.951 . S
H776 C801 0.951 . S
H777 C803 0.950 1_556 S
H778 C804 0.950 . S
H779 C806 0.950 . S
H780 C809 0.950 . S
H781 C810 0.950 . S
H782 C812 0.950 . S
H783 C813 0.950 1_545 S
C784 H766 0.951 . S
C784 C785 1.366 . S
C784 C786 1.388 . S
C785 C784 1.366 . S
C785 C789 1.385 . S
C786 H767 0.951 . S
C786 C784 1.388 . S
C786 C787 1.366 . S
C787 C786 1.366 . S
C787 C788 1.414 . S
C787 C790 1.499 . S
C788 H768 0.950 1_556 S
C788 C787 1.414 . S
C788 C789 1.374 . S
C789 H769 0.950 . S
C789 C785 1.385 . S
C789 C788 1.374 . S
C790 C787 1.499 . S
C790 C791 1.373 . S
C790 C792 1.389 . S
C791 H770 0.950 . S
C791 C790 1.373 . S
C791 C807 1.377 1_546 S
C792 C790 1.389 . S
C792 C793 1.524 . S
C792 C806 1.377 1_546 S
C793 C792 1.524 . S
C793 C794 1.397 1_556 S
C793 C798 1.363 . S
C794 H771 0.950 . S
C794 C793 1.397 1_554 S
C794 C795 1.334 . S
C795 H772 0.950 . S
C795 C794 1.334 . S
C795 C796 1.287 1_554 S
C796 C795 1.287 1_556 S
C796 C797 1.524 . S
C796 H815 0.913 . S
C797 H773 0.950 . S
C797 C796 1.524 . S
C797 C798 1.415 . S
C798 H774 0.950 1_545 S
C798 C793 1.363 . S
C798 C797 1.415 . S
C799 H775 0.951 . S
C799 C800 1.366 . S
C799 C801 1.388 . S
C800 C799 1.366 . S
C800 C804 1.385 . S
C801 H776 0.951 . S
C801 C799 1.388 . S
C801 C802 1.366 . S
C802 C801 1.366 . S
C802 C803 1.414 . S
C802 C805 1.499 . S
C803 H777 0.950 1_554 S
C803 C802 1.414 . S
C803 C804 1.374 . S
C804 H778 0.950 . S
C804 C800 1.385 . S
C804 C803 1.374 . S
C805 C802 1.499 . S
C805 C806 1.373 . S
C805 C807 1.389 . S
C806 H779 0.950 . S
C806 C792 1.377 1_564 S
C806 C805 1.373 . S
C807 C791 1.377 1_564 S
C807 C805 1.389 . S
C807 C808 1.524 . S
C808 C807 1.524 . S
C808 C809 1.397 1_554 S
C808 C813 1.363 . S
C809 H780 0.950 . S
C809 C808 1.397 1_556 S
C809 C810 1.334 . S
C810 H781 0.950 . S
C810 C809 1.334 . S
C810 C811 1.287 1_556 S
C811 C810 1.287 1_554 S
C811 C812 1.524 . S
C811 H814 0.999 . S
C812 H782 0.950 . S
C812 C811 1.524 . S
C812 C813 1.415 . S
C813 H783 0.950 1_565 S
C813 C808 1.363 . S
C813 C812 1.415 . S
H814 C811 0.999 . S
H815 C796 0.913 . S
H816 C834 0.951 . S
H817 C836 0.951 . S
H818 C838 0.950 . S
H819 C839 0.950 . S
H820 C841 0.950 . S
H821 C844 0.950 . S
H822 C845 0.950 . S
H823 C847 0.950 . S
H824 C848 0.950 . S
H825 C849 0.951 . S
H826 C851 0.951 . S
H827 C853 0.950 . S
H828 C854 0.950 . S
H829 C856 0.950 . S
H830 C859 0.950 . S
H831 C860 0.950 . S
H832 C862 0.950 . S
H833 C863 0.950 . S
C834 H816 0.951 . S
C834 C835 1.366 . S
C834 C836 1.388 . S
C835 C834 1.366 . S
C835 C839 1.385 . S
C836 H817 0.951 . S
C836 C834 1.388 . S
C836 C837 1.366 . S
C837 C836 1.366 . S
C837 C838 1.414 . S
C837 C840 1.499 . S
C838 H818 0.950 . S
C838 C837 1.414 . S
C838 C839 1.374 . S
C839 H819 0.950 . S
C839 C835 1.385 . S
C839 C838 1.374 . S
C840 C837 1.499 . S
C840 C841 1.373 . S
C840 C842 1.389 . S
C841 H820 0.950 . S
C841 C840 1.373 . S
C841 C857 1.377 . S
C842 C840 1.389 . S
C842 C843 1.524 . S
C842 C856 1.377 . S
C843 C842 1.524 . S
C843 C844 1.397 . S
C843 C848 1.363 . S
C844 H821 0.950 . S
C844 C843 1.397 . S
C844 C845 1.334 . S
C845 H822 0.950 . S
C845 C844 1.334 . S
C845 C846 1.287 . S
C846 C845 1.287 . S
C846 C847 1.524 . S
C846 H865 0.913 . S
C847 H823 0.950 . S
C847 C846 1.524 . S
C847 C848 1.415 . S
C848 H824 0.950 . S
C848 C843 1.363 . S
C848 C847 1.415 . S
C849 H825 0.951 . S
C849 C850 1.366 . S
C849 C851 1.388 . S
C850 C849 1.366 . S
C850 C854 1.385 . S
C851 H826 0.951 . S
C851 C849 1.388 . S
C851 C852 1.366 . S
C852 C851 1.366 . S
C852 C853 1.414 . S
C852 C855 1.499 . S
C853 H827 0.950 . S
C853 C852 1.414 . S
C853 C854 1.374 . S
C854 H828 0.950 . S
C854 C850 1.385 . S
C854 C853 1.374 . S
C855 C852 1.499 . S
C855 C856 1.373 . S
C855 C857 1.389 . S
C856 H829 0.950 . S
C856 C842 1.377 . S
C856 C855 1.373 . S
C857 C841 1.377 . S
C857 C855 1.389 . S
C857 C858 1.524 . S
C858 C857 1.524 . S
C858 C859 1.397 . S
C858 C863 1.363 . S
C859 H830 0.950 . S
C859 C858 1.397 . S
C859 C860 1.334 . S
C860 H831 0.950 . S
C860 C859 1.334 . S
C860 C861 1.287 . S
C861 C860 1.287 . S
C861 C862 1.524 . S
C861 H864 0.999 . S
C862 H832 0.950 . S
C862 C861 1.524 . S
C862 C863 1.415 . S
C863 H833 0.950 . S
C863 C858 1.363 . S
C863 C862 1.415 . S
H864 C861 0.999 . S
H865 C846 0.913 . S
H866 C884 0.951 . S
H867 C886 0.951 . S
H868 C888 0.950 1_554 S
H869 C889 0.950 . S
H870 C891 0.950 . S
H871 C894 0.950 . S
H872 C895 0.950 . S
H873 C897 0.950 . S
H874 C898 0.950 . S
H875 C899 0.951 . S
H876 C901 0.951 . S
H877 C903 0.950 1_556 S
H878 C904 0.950 . S
H879 C906 0.950 . S
H880 C909 0.950 . S
H881 C910 0.950 . S
H882 C912 0.950 . S
H883 C913 0.950 . S
C884 H866 0.951 . S
C884 C885 1.366 . S
C884 C886 1.388 . S
C885 C884 1.366 . S
C885 C889 1.385 . S
C886 H867 0.951 . S
C886 C884 1.388 . S
C886 C887 1.366 . S
C887 C886 1.366 . S
C887 C888 1.414 . S
C887 C890 1.499 . S
C888 H868 0.950 1_556 S
C888 C887 1.414 . S
C888 C889 1.374 . S
C889 H869 0.950 . S
C889 C885 1.385 . S
C889 C888 1.374 . S
C890 C887 1.499 . S
C890 C891 1.373 1_556 S
C890 C892 1.389 . S
C891 H870 0.950 . S
C891 C890 1.373 1_554 S
C891 C907 1.377 . S
C892 C890 1.389 . S
C892 C893 1.524 . S
C892 C906 1.377 . S
C893 C892 1.524 . S
C893 C894 1.397 . S
C893 C898 1.363 . S
C894 H871 0.950 . S
C894 C893 1.397 . S
C894 C895 1.334 . S
C895 H872 0.950 . S
C895 C894 1.334 . S
C895 C896 1.287 . S
C896 C895 1.287 . S
C896 C897 1.524 . S
C896 H915 0.913 . S
C897 H873 0.950 . S
C897 C896 1.524 . S
C897 C898 1.415 . S
C898 H874 0.950 . S
C898 C893 1.363 . S
C898 C897 1.415 . S
C899 H875 0.951 . S
C899 C900 1.366 . S
C899 C901 1.388 . S
C900 C899 1.366 . S
C900 C904 1.385 . S
C901 H876 0.951 . S
C901 C899 1.388 . S
C901 C902 1.366 . S
C902 C901 1.366 . S
C902 C903 1.414 . S
C902 C905 1.499 . S
C903 H877 0.950 1_554 S
C903 C902 1.414 . S
C903 C904 1.374 . S
C904 H878 0.950 . S
C904 C900 1.385 . S
C904 C903 1.374 . S
C905 C902 1.499 . S
C905 C906 1.373 1_554 S
C905 C907 1.389 . S
C906 H879 0.950 . S
C906 C892 1.377 . S
C906 C905 1.373 1_556 S
C907 C891 1.377 . S
C907 C905 1.389 . S
C907 C908 1.524 . S
C908 C907 1.524 . S
C908 C909 1.397 . S
C908 C913 1.363 . S
C909 H880 0.950 . S
C909 C908 1.397 . S
C909 C910 1.334 . S
C910 H881 0.950 . S
C910 C909 1.334 . S
C910 C911 1.287 . S
C911 C910 1.287 . S
C911 C912 1.524 . S
C911 H914 0.999 . S
C912 H882 0.950 . S
C912 C911 1.524 . S
C912 C913 1.415 . S
C913 H883 0.950 . S
C913 C908 1.363 . S
C913 C912 1.415 . S
H914 C911 0.999 . S
H915 C896 0.913 . S
H916 C934 0.951 . S
H917 C936 0.951 . S
H918 C938 0.950 . S
H919 C939 0.950 . S
H920 C941 0.950 . S
H921 C944 0.950 . S
H922 C945 0.950 . S
H923 C947 0.950 . S
H924 C948 0.950 . S
H925 C949 0.951 . S
H926 C951 0.951 . S
H927 C953 0.950 . S
H928 C954 0.950 . S
H929 C956 0.950 . S
H930 C959 0.950 . S
H931 C960 0.950 . S
H932 C962 0.950 . S
H933 C963 0.950 . S
C934 H916 0.951 . S
C934 C935 1.366 . S
C934 C936 1.388 . S
C935 C934 1.366 . S
C935 C939 1.385 . S
C936 H917 0.951 . S
C936 C934 1.388 . S
C936 C937 1.366 . S
C937 C936 1.366 . S
C937 C938 1.414 . S
C937 C940 1.499 . S
C938 H918 0.950 . S
C938 C937 1.414 . S
C938 C939 1.374 . S
C939 H919 0.950 . S
C939 C935 1.385 . S
C939 C938 1.374 . S
C940 C937 1.499 . S
C940 C941 1.373 . S
C940 C942 1.389 . S
C941 H920 0.950 . S
C941 C940 1.373 . S
C941 C957 1.377 . S
C942 C940 1.389 . S
C942 C943 1.524 . S
C942 C956 1.377 . S
C943 C942 1.524 . S
C943 C944 1.397 . S
C943 C948 1.363 . S
C944 H921 0.950 . S
C944 C943 1.397 . S
C944 C945 1.334 . S
C945 H922 0.950 . S
C945 C944 1.334 . S
C945 C946 1.287 . S
C946 C945 1.287 . S
C946 C947 1.524 . S
C946 H965 0.913 . S
C947 H923 0.950 . S
C947 C946 1.524 . S
C947 C948 1.415 . S
C948 H924 0.950 . S
C948 C943 1.363 . S
C948 C947 1.415 . S
C949 H925 0.951 . S
C949 C950 1.366 . S
C949 C951 1.388 . S
C950 C949 1.366 . S
C950 C954 1.385 . S
C951 H926 0.951 . S
C951 C949 1.388 . S
C951 C952 1.366 . S
C952 C951 1.366 . S
C952 C953 1.414 . S
C952 C955 1.499 . S
C953 H927 0.950 . S
C953 C952 1.414 . S
C953 C954 1.374 . S
C954 H928 0.950 . S
C954 C950 1.385 . S
C954 C953 1.374 . S
C955 C952 1.499 . S
C955 C956 1.373 . S
C955 C957 1.389 . S
C956 H929 0.950 . S
C956 C942 1.377 . S
C956 C955 1.373 . S
C957 C941 1.377 . S
C957 C955 1.389 . S
C957 C958 1.524 . S
C958 C957 1.524 . S
C958 C959 1.397 . S
C958 C963 1.363 . S
C959 H930 0.950 . S
C959 C958 1.397 . S
C959 C960 1.334 . S
C960 H931 0.950 . S
C960 C959 1.334 . S
C960 C961 1.287 . S
C961 C960 1.287 . S
C961 C962 1.524 . S
C961 H964 0.999 . S
C962 H932 0.950 . S
C962 C961 1.524 . S
C962 C963 1.415 . S
C963 H933 0.950 . S
C963 C958 1.363 . S
C963 C962 1.415 . S
H964 C961 0.999 . S
H965 C946 0.913 . S
H966 C984 0.951 . S
H967 C986 0.951 . S
H968 C988 0.950 . S
H969 C989 0.950 . S
H970 C991 0.950 . S
H971 C994 0.950 . S
H972 C995 0.950 . S
H973 C997 0.950 . S
H974 C998 0.950 . S
H975 C999 0.951 . S
H976 C1001 0.951 . S
H977 C1003 0.950 . S
H978 C1004 0.950 . S
H979 C1006 0.950 . S
H980 C1009 0.950 . S
H981 C1010 0.950 . S
H982 C1012 0.950 . S
H983 C1013 0.950 . S
C984 H966 0.951 . S
C984 C985 1.366 . S
C984 C986 1.388 . S
C985 C984 1.366 . S
C985 C989 1.385 . S
C986 H967 0.951 . S
C986 C984 1.388 . S
C986 C987 1.366 . S
C987 C986 1.366 . S
C987 C988 1.414 . S
C987 C990 1.499 . S
C988 H968 0.950 . S
C988 C987 1.414 . S
C988 C989 1.374 . S
C989 H969 0.950 . S
C989 C985 1.385 . S
C989 C988 1.374 . S
C990 C987 1.499 . S
C990 C991 1.373 . S
C990 C992 1.389 . S
C991 H970 0.950 . S
C991 C990 1.373 . S
C991 C1007 1.377 . S
C992 C990 1.389 . S
C992 C993 1.524 . S
C992 C1006 1.377 . S
C993 C992 1.524 . S
C993 C994 1.397 . S
C993 C998 1.363 . S
C994 H971 0.950 . S
C994 C993 1.397 . S
C994 C995 1.334 . S
C995 H972 0.950 . S
C995 C994 1.334 . S
C995 C996 1.287 . S
C996 C995 1.287 . S
C996 C997 1.524 . S
C996 H1015 0.913 . S
C997 H973 0.950 . S
C997 C996 1.524 . S
C997 C998 1.415 . S
C998 H974 0.950 . S
C998 C993 1.363 . S
C998 C997 1.415 . S
C999 H975 0.951 . S
C999 C1000 1.366 . S
C999 C1001 1.388 . S
C1000 C999 1.366 . S
C1000 C1004 1.385 . S
C1001 H976 0.951 . S
C1001 C999 1.388 . S
C1001 C1002 1.366 . S
C1002 C1001 1.366 . S
C1002 C1003 1.414 . S
C1002 C1005 1.499 . S
C1003 H977 0.950 . S
C1003 C1002 1.414 . S
C1003 C1004 1.374 . S
C1004 H978 0.950 . S
C1004 C1000 1.385 . S
C1004 C1003 1.374 . S
C1005 C1002 1.499 . S
C1005 C1006 1.373 . S
C1005 C1007 1.389 . S
C1006 H979 0.950 . S
C1006 C992 1.377 . S
C1006 C1005 1.373 . S
C1007 C991 1.377 . S
C1007 C1005 1.389 . S
C1007 C1008 1.524 . S
C1008 C1007 1.524 . S
C1008 C1009 1.397 . S
C1008 C1013 1.363 . S
C1009 H980 0.950 . S
C1009 C1008 1.397 . S
C1009 C1010 1.334 . S
C1010 H981 0.950 . S
C1010 C1009 1.334 . S
C1010 C1011 1.287 . S
C1011 C1010 1.287 . S
C1011 C1012 1.524 . S
C1011 H1014 0.999 . S
C1012 H982 0.950 . S
C1012 C1011 1.524 . S
C1012 C1013 1.415 . S
C1013 H983 0.950 . S
C1013 C1008 1.363 . S
C1013 C1012 1.415 . S
H1014 C1011 0.999 . S
H1015 C996 0.913 . S
H1016 C1034 0.951 . S
H1017 C1036 0.951 . S
H1018 C1038 0.950 . S
H1019 C1039 0.950 . S
H1020 C1041 0.950 . S
H1021 C1044 0.950 . S
H1022 C1045 0.950 . S
H1023 C1047 0.950 . S
H1024 C1048 0.950 . S
H1025 C1049 0.951 . S
H1026 C1051 0.951 . S
H1027 C1053 0.950 . S
H1028 C1054 0.950 . S
H1029 C1056 0.950 . S
H1030 C1059 0.950 . S
H1031 C1060 0.950 . S
H1032 C1062 0.950 . S
H1033 C1063 0.950 . S
C1034 H1016 0.951 . S
C1034 C1035 1.366 . S
C1034 C1036 1.388 . S
C1035 C1034 1.366 . S
C1035 C1039 1.385 . S
C1036 H1017 0.951 . S
C1036 C1034 1.388 . S
C1036 C1037 1.366 . S
C1037 C1036 1.366 . S
C1037 C1038 1.414 . S
C1037 C1040 1.499 . S
C1038 H1018 0.950 . S
C1038 C1037 1.414 . S
C1038 C1039 1.374 . S
C1039 H1019 0.950 . S
C1039 C1035 1.385 . S
C1039 C1038 1.374 . S
C1040 C1037 1.499 . S
C1040 C1041 1.373 . S
C1040 C1042 1.389 . S
C1041 H1020 0.950 . S
C1041 C1040 1.373 . S
C1041 C1057 1.377 . S
C1042 C1040 1.389 . S
C1042 C1043 1.524 . S
C1042 C1056 1.377 . S
C1043 C1042 1.524 . S
C1043 C1044 1.397 . S
C1043 C1048 1.363 . S
C1044 H1021 0.950 . S
C1044 C1043 1.397 . S
C1044 C1045 1.334 . S
C1045 H1022 0.950 . S
C1045 C1044 1.334 . S
C1045 C1046 1.287 . S
C1046 C1045 1.287 . S
C1046 C1047 1.524 . S
C1046 H1065 0.913 . S
C1047 H1023 0.950 . S
C1047 C1046 1.524 . S
C1047 C1048 1.415 . S
C1048 H1024 0.950 . S
C1048 C1043 1.363 . S
C1048 C1047 1.415 . S
C1049 H1025 0.951 . S
C1049 C1050 1.366 . S
C1049 C1051 1.388 . S
C1050 C1049 1.366 . S
C1050 C1054 1.385 . S
C1051 H1026 0.951 . S
C1051 C1049 1.388 . S
C1051 C1052 1.366 . S
C1052 C1051 1.366 . S
C1052 C1053 1.414 . S
C1052 C1055 1.499 . S
C1053 H1027 0.950 . S
C1053 C1052 1.414 . S
C1053 C1054 1.374 . S
C1054 H1028 0.950 . S
C1054 C1050 1.385 . S
C1054 C1053 1.374 . S
C1055 C1052 1.499 . S
C1055 C1056 1.373 . S
C1055 C1057 1.389 . S
C1056 H1029 0.950 . S
C1056 C1042 1.377 . S
C1056 C1055 1.373 . S
C1057 C1041 1.377 . S
C1057 C1055 1.389 . S
C1057 C1058 1.524 . S
C1058 C1057 1.524 . S
C1058 C1059 1.397 . S
C1058 C1063 1.363 . S
C1059 H1030 0.950 . S
C1059 C1058 1.397 . S
C1059 C1060 1.334 . S
C1060 H1031 0.950 . S
C1060 C1059 1.334 . S
C1060 C1061 1.287 . S
C1061 C1060 1.287 . S
C1061 C1062 1.524 . S
C1061 H1064 0.999 . S
C1062 H1032 0.950 . S
C1062 C1061 1.524 . S
C1062 C1063 1.415 . S
C1063 H1033 0.950 . S
C1063 C1058 1.363 . S
C1063 C1062 1.415 . S
H1064 C1061 0.999 . S
H1065 C1046 0.913 . S
H1066 C1084 0.951 . S
H1067 C1086 0.951 . S
H1068 C1088 0.950 1_556 S
H1069 C1089 0.950 . S
H1070 C1091 0.950 . S
H1071 C1094 0.950 . S
H1072 C1095 0.950 . S
H1073 C1097 0.950 . S
H1074 C1098 0.950 . S
H1075 C1099 0.951 . S
H1076 C1101 0.951 . S
H1077 C1103 0.950 1_554 S
H1078 C1104 0.950 . S
H1079 C1106 0.950 . S
H1080 C1109 0.950 . S
H1081 C1110 0.950 . S
H1082 C1112 0.950 . S
H1083 C1113 0.950 . S
C1084 H1066 0.951 . S
C1084 C1085 1.366 . S
C1084 C1086 1.388 . S
C1085 C1084 1.366 . S
C1085 C1089 1.385 . S
C1086 H1067 0.951 . S
C1086 C1084 1.388 . S
C1086 C1087 1.366 . S
C1087 C1086 1.366 . S
C1087 C1088 1.414 . S
C1087 C1090 1.499 . S
C1088 H1068 0.950 1_554 S
C1088 C1087 1.414 . S
C1088 C1089 1.374 . S
C1089 H1069 0.950 . S
C1089 C1085 1.385 . S
C1089 C1088 1.374 . S
C1090 C1087 1.499 . S
C1090 C1091 1.373 1_554 S
C1090 C1092 1.389 . S
C1091 H1070 0.950 . S
C1091 C1090 1.373 1_556 S
C1091 C1107 1.377 . S
C1092 C1090 1.389 . S
C1092 C1093 1.524 . S
C1092 C1106 1.377 . S
C1093 C1092 1.524 . S
C1093 C1094 1.397 . S
C1093 C1098 1.363 . S
C1094 H1071 0.950 . S
C1094 C1093 1.397 . S
C1094 C1095 1.334 . S
C1095 H1072 0.950 . S
C1095 C1094 1.334 . S
C1095 C1096 1.287 . S
C1096 C1095 1.287 . S
C1096 C1097 1.524 . S
C1096 H1115 0.913 . S
C1097 H1073 0.950 . S
C1097 C1096 1.524 . S
C1097 C1098 1.415 . S
C1098 H1074 0.950 . S
C1098 C1093 1.363 . S
C1098 C1097 1.415 . S
C1099 H1075 0.951 . S
C1099 C1100 1.366 . S
C1099 C1101 1.388 . S
C1100 C1099 1.366 . S
C1100 C1104 1.385 . S
C1101 H1076 0.951 . S
C1101 C1099 1.388 . S
C1101 C1102 1.366 . S
C1102 C1101 1.366 . S
C1102 C1103 1.414 . S
C1102 C1105 1.499 . S
C1103 H1077 0.950 1_556 S
C1103 C1102 1.414 . S
C1103 C1104 1.374 . S
C1104 H1078 0.950 . S
C1104 C1100 1.385 . S
C1104 C1103 1.374 . S
C1105 C1102 1.499 . S
C1105 C1106 1.373 1_556 S
C1105 C1107 1.389 . S
C1106 H1079 0.950 . S
C1106 C1092 1.377 . S
C1106 C1105 1.373 1_554 S
C1107 C1091 1.377 . S
C1107 C1105 1.389 . S
C1107 C1108 1.524 . S
C1108 C1107 1.524 . S
C1108 C1109 1.397 . S
C1108 C1113 1.363 . S
C1109 H1080 0.950 . S
C1109 C1108 1.397 . S
C1109 C1110 1.334 . S
C1110 H1081 0.950 . S
C1110 C1109 1.334 . S
C1110 C1111 1.287 . S
C1111 C1110 1.287 . S
C1111 C1112 1.524 . S
C1111 H1114 0.999 . S
C1112 H1082 0.950 . S
C1112 C1111 1.524 . S
C1112 C1113 1.415 . S
C1113 H1083 0.950 . S
C1113 C1108 1.363 . S
C1113 C1112 1.415 . S
H1114 C1111 0.999 . S
H1115 C1096 0.913 . S
H1116 C1134 0.951 . S
H1117 C1136 0.951 . S
H1118 C1138 0.950 . S
H1119 C1139 0.950 . S
H1120 C1141 0.950 . S
H1121 C1144 0.950 . S
H1122 C1145 0.950 . S
H1123 C1147 0.950 . S
H1124 C1148 0.950 . S
H1125 C1149 0.951 . S
H1126 C1151 0.951 . S
H1127 C1153 0.950 . S
H1128 C1154 0.950 . S
H1129 C1156 0.950 . S
H1130 C1159 0.950 . S
H1131 C1160 0.950 . S
H1132 C1162 0.950 . S
H1133 C1163 0.950 . S
C1134 H1116 0.951 . S
C1134 C1135 1.366 . S
C1134 C1136 1.388 . S
C1135 C1134 1.366 . S
C1135 C1139 1.385 . S
C1136 H1117 0.951 . S
C1136 C1134 1.388 . S
C1136 C1137 1.366 . S
C1137 C1136 1.366 . S
C1137 C1138 1.414 . S
C1137 C1140 1.499 . S
C1138 H1118 0.950 . S
C1138 C1137 1.414 . S
C1138 C1139 1.374 . S
C1139 H1119 0.950 . S
C1139 C1135 1.385 . S
C1139 C1138 1.374 . S
C1140 C1137 1.499 . S
C1140 C1141 1.373 . S
C1140 C1142 1.389 . S
C1141 H1120 0.950 . S
C1141 C1140 1.373 . S
C1141 C1157 1.377 . S
C1142 C1140 1.389 . S
C1142 C1143 1.524 . S
C1142 C1156 1.377 . S
C1143 C1142 1.524 . S
C1143 C1144 1.397 . S
C1143 C1148 1.363 . S
C1144 H1121 0.950 . S
C1144 C1143 1.397 . S
C1144 C1145 1.334 . S
C1145 H1122 0.950 . S
C1145 C1144 1.334 . S
C1145 C1146 1.287 . S
C1146 C1145 1.287 . S
C1146 C1147 1.524 . S
C1146 H1165 0.913 . S
C1147 H1123 0.950 . S
C1147 C1146 1.524 . S
C1147 C1148 1.415 . S
C1148 H1124 0.950 . S
C1148 C1143 1.363 . S
C1148 C1147 1.415 . S
C1149 H1125 0.951 . S
C1149 C1150 1.366 . S
C1149 C1151 1.388 . S
C1150 C1149 1.366 . S
C1150 C1154 1.385 . S
C1151 H1126 0.951 . S
C1151 C1149 1.388 . S
C1151 C1152 1.366 . S
C1152 C1151 1.366 . S
C1152 C1153 1.414 . S
C1152 C1155 1.499 . S
C1153 H1127 0.950 . S
C1153 C1152 1.414 . S
C1153 C1154 1.374 . S
C1154 H1128 0.950 . S
C1154 C1150 1.385 . S
C1154 C1153 1.374 . S
C1155 C1152 1.499 . S
C1155 C1156 1.373 . S
C1155 C1157 1.389 . S
C1156 H1129 0.950 . S
C1156 C1142 1.377 . S
C1156 C1155 1.373 . S
C1157 C1141 1.377 . S
C1157 C1155 1.389 . S
C1157 C1158 1.524 . S
C1158 C1157 1.524 . S
C1158 C1159 1.397 . S
C1158 C1163 1.363 . S
C1159 H1130 0.950 . S
C1159 C1158 1.397 . S
C1159 C1160 1.334 . S
C1160 H1131 0.950 . S
C1160 C1159 1.334 . S
C1160 C1161 1.287 . S
C1161 C1160 1.287 . S
C1161 C1162 1.524 . S
C1161 H1164 0.999 . S
C1162 H1132 0.950 . S
C1162 C1161 1.524 . S
C1162 C1163 1.415 . S
C1163 H1133 0.950 . S
C1163 C1158 1.363 . S
C1163 C1162 1.415 . S
H1164 C1161 0.999 . S
H1165 C1146 0.913 . S
H1166 C1184 0.951 . S
H1167 C1186 0.951 . S
H1168 C1188 0.950 . S
H1169 C1189 0.950 . S
H1170 C1191 0.950 . S
H1171 C1194 0.950 . S
H1172 C1195 0.950 . S
H1173 C1197 0.950 . S
H1174 C1198 0.950 . S
H1175 C1199 0.951 . S
H1176 C1201 0.951 . S
H1177 C1203 0.950 . S
H1178 C1204 0.950 . S
H1179 C1206 0.950 . S
H1180 C1209 0.950 . S
H1181 C1210 0.950 . S
H1182 C1212 0.950 . S
H1183 C1213 0.950 . S
C1184 H1166 0.951 . S
C1184 C1185 1.366 . S
C1184 C1186 1.388 . S
C1185 C1184 1.366 . S
C1185 C1189 1.385 . S
C1186 H1167 0.951 . S
C1186 C1184 1.388 . S
C1186 C1187 1.366 . S
C1187 C1186 1.366 . S
C1187 C1188 1.414 . S
C1187 C1190 1.499 . S
C1188 H1168 0.950 . S
C1188 C1187 1.414 . S
C1188 C1189 1.374 . S
C1189 H1169 0.950 . S
C1189 C1185 1.385 . S
C1189 C1188 1.374 . S
C1190 C1187 1.499 . S
C1190 C1191 1.373 . S
C1190 C1192 1.389 . S
C1191 H1170 0.950 . S
C1191 C1190 1.373 . S
C1191 C1207 1.377 . S
C1192 C1190 1.389 . S
C1192 C1193 1.524 . S
C1192 C1206 1.377 . S
C1193 C1192 1.524 . S
C1193 C1194 1.397 . S
C1193 C1198 1.363 . S
C1194 H1171 0.950 . S
C1194 C1193 1.397 . S
C1194 C1195 1.334 . S
C1195 H1172 0.950 . S
C1195 C1194 1.334 . S
C1195 C1196 1.287 . S
C1196 C1195 1.287 . S
C1196 C1197 1.524 . S
C1196 H1215 0.913 . S
C1197 H1173 0.950 . S
C1197 C1196 1.524 . S
C1197 C1198 1.415 . S
C1198 H1174 0.950 . S
C1198 C1193 1.363 . S
C1198 C1197 1.415 . S
C1199 H1175 0.951 . S
C1199 C1200 1.366 . S
C1199 C1201 1.388 . S
C1200 C1199 1.366 . S
C1200 C1204 1.385 . S
C1201 H1176 0.951 . S
C1201 C1199 1.388 . S
C1201 C1202 1.366 . S
C1202 C1201 1.366 . S
C1202 C1203 1.414 . S
C1202 C1205 1.499 . S
C1203 H1177 0.950 . S
C1203 C1202 1.414 . S
C1203 C1204 1.374 . S
C1204 H1178 0.950 . S
C1204 C1200 1.385 . S
C1204 C1203 1.374 . S
C1205 C1202 1.499 . S
C1205 C1206 1.373 . S
C1205 C1207 1.389 . S
C1206 H1179 0.950 . S
C1206 C1192 1.377 . S
C1206 C1205 1.373 . S
C1207 C1191 1.377 . S
C1207 C1205 1.389 . S
C1207 C1208 1.524 . S
C1208 C1207 1.524 . S
C1208 C1209 1.397 . S
C1208 C1213 1.363 . S
C1209 H1180 0.950 . S
C1209 C1208 1.397 . S
C1209 C1210 1.334 . S
C1210 H1181 0.950 . S
C1210 C1209 1.334 . S
C1210 C1211 1.287 . S
C1211 C1210 1.287 . S
C1211 C1212 1.524 . S
C1211 H1214 0.999 . S
C1212 H1182 0.950 . S
C1212 C1211 1.524 . S
C1212 C1213 1.415 . S
C1213 H1183 0.950 . S
C1213 C1208 1.363 . S
C1213 C1212 1.415 . S
H1214 C1211 0.999 . S
H1215 C1196 0.913 . S
H1216 C1234 0.951 . S
H1217 C1236 0.951 . S
H1218 C1238 0.950 . S
H1219 C1239 0.950 . S
H1220 C1241 0.950 . S
H1221 C1244 0.950 . S
H1222 C1245 0.950 . S
H1223 C1247 0.950 . S
H1224 C1248 0.950 . S
H1225 C1249 0.951 . S
H1226 C1251 0.951 . S
H1227 C1253 0.950 . S
H1228 C1254 0.950 . S
H1229 C1256 0.950 . S
H1230 C1259 0.950 . S
H1231 C1260 0.950 . S
H1232 C1262 0.950 . S
H1233 C1263 0.950 . S
C1234 H1216 0.951 . S
C1234 C1235 1.366 . S
C1234 C1236 1.387 1_554 S
C1235 C1234 1.366 . S
C1235 C1239 1.385 . S
C1236 H1217 0.951 . S
C1236 C1234 1.387 1_556 S
C1236 C1237 1.366 . S
C1237 C1236 1.366 . S
C1237 C1238 1.414 . S
C1237 C1240 1.499 . S
C1238 H1218 0.950 . S
C1238 C1237 1.414 . S
C1238 C1239 1.374 1_556 S
C1239 H1219 0.950 . S
C1239 C1235 1.385 . S
C1239 C1238 1.374 1_554 S
C1240 C1237 1.499 . S
C1240 C1241 1.373 . S
C1240 C1242 1.389 . S
C1241 H1220 0.950 . S
C1241 C1240 1.373 . S
C1241 C1257 1.377 . S
C1242 C1240 1.389 . S
C1242 C1243 1.524 . S
C1242 C1256 1.377 . S
C1243 C1242 1.524 . S
C1243 C1244 1.397 . S
C1243 C1248 1.363 . S
C1244 H1221 0.950 . S
C1244 C1243 1.397 . S
C1244 C1245 1.334 . S
C1245 H1222 0.950 . S
C1245 C1244 1.334 . S
C1245 C1246 1.287 . S
C1246 C1245 1.287 . S
C1246 C1247 1.524 . S
C1246 H1265 0.913 . S
C1247 H1223 0.950 . S
C1247 C1246 1.524 . S
C1247 C1248 1.415 . S
C1248 H1224 0.950 . S
C1248 C1243 1.363 . S
C1248 C1247 1.415 . S
C1249 H1225 0.951 . S
C1249 C1250 1.366 . S
C1249 C1251 1.388 . S
C1250 C1249 1.366 . S
C1250 C1254 1.385 . S
C1251 H1226 0.951 . S
C1251 C1249 1.388 . S
C1251 C1252 1.366 . S
C1252 C1251 1.366 . S
C1252 C1253 1.414 . S
C1252 C1255 1.499 . S
C1253 H1227 0.950 . S
C1253 C1252 1.414 . S
C1253 C1254 1.374 . S
C1254 H1228 0.950 . S
C1254 C1250 1.385 . S
C1254 C1253 1.374 . S
C1255 C1252 1.499 . S
C1255 C1256 1.373 . S
C1255 C1257 1.389 . S
C1256 H1229 0.950 . S
C1256 C1242 1.377 . S
C1256 C1255 1.373 . S
C1257 C1241 1.377 . S
C1257 C1255 1.389 . S
C1257 C1258 1.524 . S
C1258 C1257 1.524 . S
C1258 C1259 1.397 . S
C1258 C1263 1.363 . S
C1259 H1230 0.950 . S
C1259 C1258 1.397 . S
C1259 C1260 1.334 . S
C1260 H1231 0.950 . S
C1260 C1259 1.334 . S
C1260 C1261 1.287 . S
C1261 C1260 1.287 . S
C1261 C1262 1.524 . S
C1261 H1264 0.999 . S
C1262 H1232 0.950 . S
C1262 C1261 1.524 . S
C1262 C1263 1.415 . S
C1263 H1233 0.950 . S
C1263 C1258 1.363 . S
C1263 C1262 1.415 . S
H1264 C1261 0.999 . S
H1265 C1246 0.913 . S
H1266 C1284 0.951 . S
H1267 C1286 0.951 . S
H1268 C1288 0.950 . S
H1269 C1289 0.950 . S
H1270 C1291 0.950 . S
H1271 C1294 0.950 . S
H1272 C1295 0.950 . S
H1273 C1297 0.950 . S
H1274 C1298 0.950 . S
H1275 C1299 0.951 . S
H1276 C1301 0.951 . S
H1277 C1303 0.950 . S
H1278 C1304 0.950 . S
H1279 C1306 0.950 . S
H1280 C1309 0.950 . S
H1281 C1310 0.950 . S
H1282 C1312 0.950 . S
H1283 C1313 0.950 . S
C1284 H1266 0.951 . S
C1284 C1285 1.366 . S
C1284 C1286 1.388 1_556 S
C1285 C1284 1.366 . S
C1285 C1289 1.385 1_556 S
C1286 H1267 0.951 . S
C1286 C1284 1.388 1_554 S
C1286 C1287 1.366 . S
C1287 C1286 1.366 . S
C1287 C1288 1.414 . S
C1287 C1290 1.499 . S
C1288 H1268 0.950 . S
C1288 C1287 1.414 . S
C1288 C1289 1.374 . S
C1289 H1269 0.950 . S
C1289 C1285 1.385 1_554 S
C1289 C1288 1.374 . S
C1290 C1287 1.499 . S
C1290 C1291 1.373 . S
C1290 C1292 1.389 . S
C1291 H1270 0.950 . S
C1291 C1290 1.373 . S
C1291 C1307 1.377 . S
C1292 C1290 1.389 . S
C1292 C1293 1.524 . S
C1292 C1306 1.377 . S
C1293 C1292 1.524 . S
C1293 C1294 1.397 . S
C1293 C1298 1.363 . S
C1294 H1271 0.950 . S
C1294 C1293 1.397 . S
C1294 C1295 1.334 . S
C1295 H1272 0.950 . S
C1295 C1294 1.334 . S
C1295 C1296 1.287 . S
C1296 C1295 1.287 . S
C1296 C1297 1.524 . S
C1296 H1315 0.913 1_554 S
C1297 H1273 0.950 . S
C1297 C1296 1.524 . S
C1297 C1298 1.415 . S
C1298 H1274 0.950 . S
C1298 C1293 1.363 . S
C1298 C1297 1.415 . S
C1299 H1275 0.951 . S
C1299 C1300 1.366 . S
C1299 C1301 1.388 . S
C1300 C1299 1.366 . S
C1300 C1304 1.385 . S
C1301 H1276 0.951 . S
C1301 C1299 1.388 . S
C1301 C1302 1.366 . S
C1302 C1301 1.366 . S
C1302 C1303 1.414 . S
C1302 C1305 1.499 . S
C1303 H1277 0.950 . S
C1303 C1302 1.414 . S
C1303 C1304 1.374 . S
C1304 H1278 0.950 . S
C1304 C1300 1.385 . S
C1304 C1303 1.374 . S
C1305 C1302 1.499 . S
C1305 C1306 1.373 . S
C1305 C1307 1.389 . S
C1306 H1279 0.950 . S
C1306 C1292 1.377 . S
C1306 C1305 1.373 . S
C1307 C1291 1.377 . S
C1307 C1305 1.389 . S
C1307 C1308 1.524 . S
C1308 C1307 1.524 . S
C1308 C1309 1.397 . S
C1308 C1313 1.363 . S
C1309 H1280 0.950 . S
C1309 C1308 1.397 . S
C1309 C1310 1.334 . S
C1310 H1281 0.950 . S
C1310 C1309 1.334 . S
C1310 C1311 1.287 . S
C1311 C1310 1.287 . S
C1311 C1312 1.524 . S
C1311 H1314 0.999 . S
C1312 H1282 0.950 . S
C1312 C1311 1.524 . S
C1312 C1313 1.415 . S
C1313 H1283 0.950 . S
C1313 C1308 1.363 . S
C1313 C1312 1.415 . S
H1314 C1311 0.999 . S
H1315 C1296 0.913 1_556 S
H1316 C1334 0.951 . S
H1317 C1336 0.951 . S
H1318 C1338 0.950 . S
H1319 C1339 0.950 . S
H1320 C1341 0.950 . S
H1321 C1344 0.950 . S
H1322 C1345 0.950 . S
H1323 C1347 0.950 . S
H1324 C1348 0.950 . S
H1325 C1349 0.951 . S
H1326 C1351 0.951 . S
H1327 C1353 0.950 . S
H1328 C1354 0.950 . S
H1329 C1356 0.950 . S
H1330 C1359 0.950 . S
H1331 C1360 0.950 . S
H1332 C1362 0.950 . S
H1333 C1363 0.950 . S
C1334 H1316 0.951 . S
C1334 C1335 1.366 . S
C1334 C1336 1.388 . S
C1335 C1334 1.366 . S
C1335 C1339 1.385 . S
C1336 H1317 0.951 . S
C1336 C1334 1.388 . S
C1336 C1337 1.366 . S
C1337 C1336 1.366 . S
C1337 C1338 1.414 . S
C1337 C1340 1.499 . S
C1338 H1318 0.950 . S
C1338 C1337 1.414 . S
C1338 C1339 1.374 . S
C1339 H1319 0.950 . S
C1339 C1335 1.385 . S
C1339 C1338 1.374 . S
C1340 C1337 1.499 . S
C1340 C1341 1.373 . S
C1340 C1342 1.389 . S
C1341 H1320 0.950 . S
C1341 C1340 1.373 . S
C1341 C1357 1.377 . S
C1342 C1340 1.389 . S
C1342 C1343 1.524 . S
C1342 C1356 1.377 . S
C1343 C1342 1.524 . S
C1343 C1344 1.397 . S
C1343 C1348 1.363 . S
C1344 H1321 0.950 . S
C1344 C1343 1.397 . S
C1344 C1345 1.334 . S
C1345 H1322 0.950 . S
C1345 C1344 1.334 . S
C1345 C1346 1.287 . S
C1346 C1345 1.287 . S
C1346 C1347 1.524 . S
C1346 H1365 0.913 . S
C1347 H1323 0.950 . S
C1347 C1346 1.524 . S
C1347 C1348 1.415 . S
C1348 H1324 0.950 . S
C1348 C1343 1.363 . S
C1348 C1347 1.415 . S
C1349 H1325 0.951 . S
C1349 C1350 1.366 . S
C1349 C1351 1.388 . S
C1350 C1349 1.366 . S
C1350 C1354 1.385 . S
C1351 H1326 0.951 . S
C1351 C1349 1.388 . S
C1351 C1352 1.366 . S
C1352 C1351 1.366 . S
C1352 C1353 1.414 . S
C1352 C1355 1.499 . S
C1353 H1327 0.950 . S
C1353 C1352 1.414 . S
C1353 C1354 1.374 . S
C1354 H1328 0.950 . S
C1354 C1350 1.385 . S
C1354 C1353 1.374 . S
C1355 C1352 1.499 . S
C1355 C1356 1.373 . S
C1355 C1357 1.389 . S
C1356 H1329 0.950 . S
C1356 C1342 1.377 . S
C1356 C1355 1.373 . S
C1357 C1341 1.377 . S
C1357 C1355 1.389 . S
C1357 C1358 1.524 . S
C1358 C1357 1.524 . S
C1358 C1359 1.397 . S
C1358 C1363 1.363 . S
C1359 H1330 0.950 . S
C1359 C1358 1.397 . S
C1359 C1360 1.334 . S
C1360 H1331 0.950 . S
C1360 C1359 1.334 . S
C1360 C1361 1.287 . S
C1361 C1360 1.287 . S
C1361 C1362 1.524 . S
C1361 H1364 0.999 . S
C1362 H1332 0.950 . S
C1362 C1361 1.524 . S
C1362 C1363 1.415 . S
C1363 H1333 0.950 . S
C1363 C1358 1.363 . S
C1363 C1362 1.415 . S
H1364 C1361 0.999 . S
H1365 C1346 0.913 . S
H1366 C1384 0.951 . S
H1367 C1386 0.951 . S
H1368 C1388 0.950 . S
H1369 C1389 0.950 . S
H1370 C1391 0.950 . S
H1371 C1394 0.950 . S
H1372 C1395 0.950 . S
H1373 C1397 0.950 . S
H1374 C1398 0.950 . S
H1375 C1399 0.951 . S
H1376 C1401 0.951 . S
H1377 C1403 0.950 . S
H1378 C1404 0.950 . S
H1379 C1406 0.950 . S
H1380 C1409 0.950 . S
H1381 C1410 0.950 . S
H1382 C1412 0.950 . S
H1383 C1413 0.950 . S
C1384 H1366 0.951 . S
C1384 C1385 1.366 . S
C1384 C1386 1.388 . S
C1385 C1384 1.366 . S
C1385 C1389 1.385 . S
C1386 H1367 0.951 . S
C1386 C1384 1.388 . S
C1386 C1387 1.366 . S
C1387 C1386 1.366 . S
C1387 C1388 1.414 . S
C1387 C1390 1.499 . S
C1388 H1368 0.950 . S
C1388 C1387 1.414 . S
C1388 C1389 1.374 . S
C1389 H1369 0.950 . S
C1389 C1385 1.385 . S
C1389 C1388 1.374 . S
C1390 C1387 1.499 . S
C1390 C1391 1.373 . S
C1390 C1392 1.389 . S
C1391 H1370 0.950 . S
C1391 C1390 1.373 . S
C1391 C1407 1.377 . S
C1392 C1390 1.389 . S
C1392 C1393 1.524 . S
C1392 C1406 1.377 . S
C1393 C1392 1.524 . S
C1393 C1394 1.397 . S
C1393 C1398 1.363 . S
C1394 H1371 0.950 . S
C1394 C1393 1.397 . S
C1394 C1395 1.334 . S
C1395 H1372 0.950 . S
C1395 C1394 1.334 . S
C1395 C1396 1.287 . S
C1396 C1395 1.287 . S
C1396 C1397 1.524 . S
C1396 H1415 0.913 . S
C1397 H1373 0.950 . S
C1397 C1396 1.524 . S
C1397 C1398 1.415 . S
C1398 H1374 0.950 . S
C1398 C1393 1.363 . S
C1398 C1397 1.415 . S
C1399 H1375 0.951 . S
C1399 C1400 1.366 . S
C1399 C1401 1.388 . S
C1400 C1399 1.366 . S
C1400 C1404 1.385 . S
C1401 H1376 0.951 . S
C1401 C1399 1.388 . S
C1401 C1402 1.366 . S
C1402 C1401 1.366 . S
C1402 C1403 1.414 . S
C1402 C1405 1.499 . S
C1403 H1377 0.950 . S
C1403 C1402 1.414 . S
C1403 C1404 1.374 . S
C1404 H1378 0.950 . S
C1404 C1400 1.385 . S
C1404 C1403 1.374 . S
C1405 C1402 1.499 . S
C1405 C1406 1.373 . S
C1405 C1407 1.389 . S
C1406 H1379 0.950 . S
C1406 C1392 1.377 . S
C1406 C1405 1.373 . S
C1407 C1391 1.377 . S
C1407 C1405 1.389 . S
C1407 C1408 1.524 . S
C1408 C1407 1.524 . S
C1408 C1409 1.397 . S
C1408 C1413 1.363 . S
C1409 H1380 0.950 . S
C1409 C1408 1.397 . S
C1409 C1410 1.334 . S
C1410 H1381 0.950 . S
C1410 C1409 1.334 . S
C1410 C1411 1.287 . S
C1411 C1410 1.287 . S
C1411 C1412 1.524 . S
C1411 H1414 0.999 . S
C1412 H1382 0.950 . S
C1412 C1411 1.524 . S
C1412 C1413 1.415 . S
C1413 H1383 0.950 . S
C1413 C1408 1.363 . S
C1413 C1412 1.415 . S
H1414 C1411 0.999 . S
H1415 C1396 0.913 . S
H1416 C1434 0.951 . S
H1417 C1436 0.951 . S
H1418 C1438 0.950 . S
H1419 C1439 0.950 . S
H1420 C1441 0.950 . S
H1421 C1444 0.950 . S
H1422 C1445 0.950 . S
H1423 C1447 0.950 . S
H1424 C1448 0.950 . S
H1425 C1449 0.951 . S
H1426 C1451 0.951 . S
H1427 C1453 0.950 . S
H1428 C1454 0.950 . S
H1429 C1456 0.950 . S
H1430 C1459 0.950 . S
H1431 C1460 0.950 . S
H1432 C1462 0.950 . S
H1433 C1463 0.950 . S
C1434 H1416 0.951 . S
C1434 C1435 1.366 1_554 S
C1434 C1436 1.388 . S
C1435 C1434 1.366 1_556 S
C1435 C1439 1.385 . S
C1436 H1417 0.951 . S
C1436 C1434 1.388 . S
C1436 C1437 1.366 . S
C1437 C1436 1.366 . S
C1437 C1438 1.414 . S
C1437 C1440 1.499 . S
C1438 H1418 0.950 . S
C1438 C1437 1.414 . S
C1438 C1439 1.374 1_554 S
C1439 H1419 0.950 . S
C1439 C1435 1.385 . S
C1439 C1438 1.374 1_556 S
C1440 C1437 1.499 . S
C1440 C1441 1.373 . S
C1440 C1442 1.389 . S
C1441 H1420 0.950 . S
C1441 C1440 1.373 . S
C1441 C1457 1.377 . S
C1442 C1440 1.389 . S
C1442 C1443 1.524 . S
C1442 C1456 1.377 . S
C1443 C1442 1.524 . S
C1443 C1444 1.397 . S
C1443 C1448 1.363 . S
C1444 H1421 0.950 . S
C1444 C1443 1.397 . S
C1444 C1445 1.334 . S
C1445 H1422 0.950 . S
C1445 C1444 1.334 . S
C1445 C1446 1.287 . S
C1446 C1445 1.287 . S
C1446 C1447 1.524 . S
C1446 H1465 0.913 . S
C1447 H1423 0.950 . S
C1447 C1446 1.524 . S
C1447 C1448 1.415 . S
C1448 H1424 0.950 . S
C1448 C1443 1.363 . S
C1448 C1447 1.415 . S
C1449 H1425 0.951 . S
C1449 C1450 1.366 . S
C1449 C1451 1.388 . S
C1450 C1449 1.366 . S
C1450 C1454 1.385 . S
C1451 H1426 0.951 . S
C1451 C1449 1.388 . S
C1451 C1452 1.366 . S
C1452 C1451 1.366 . S
C1452 C1453 1.414 . S
C1452 C1455 1.499 . S
C1453 H1427 0.950 . S
C1453 C1452 1.414 . S
C1453 C1454 1.374 . S
C1454 H1428 0.950 . S
C1454 C1450 1.385 . S
C1454 C1453 1.374 . S
C1455 C1452 1.499 . S
C1455 C1456 1.373 . S
C1455 C1457 1.389 . S
C1456 H1429 0.950 . S
C1456 C1442 1.377 . S
C1456 C1455 1.373 . S
C1457 C1441 1.377 . S
C1457 C1455 1.389 . S
C1457 C1458 1.524 . S
C1458 C1457 1.524 . S
C1458 C1459 1.397 . S
C1458 C1463 1.363 . S
C1459 H1430 0.950 . S
C1459 C1458 1.397 . S
C1459 C1460 1.334 . S
C1460 H1431 0.950 . S
C1460 C1459 1.334 . S
C1460 C1461 1.287 . S
C1461 C1460 1.287 . S
C1461 C1462 1.524 . S
C1461 H1464 0.999 . S
C1462 H1432 0.950 . S
C1462 C1461 1.524 . S
C1462 C1463 1.415 . S
C1463 H1433 0.950 . S
C1463 C1458 1.363 . S
C1463 C1462 1.415 . S
H1464 C1461 0.999 . S
H1465 C1446 0.913 . S
H1466 C1484 0.951 . S
H1467 C1486 0.951 . S
H1468 C1488 0.950 . S
H1469 C1489 0.950 . S
H1470 C1491 0.950 . S
H1471 C1494 0.950 . S
H1472 C1495 0.950 . S
H1473 C1497 0.950 . S
H1474 C1498 0.950 . S
H1475 C1499 0.951 . S
H1476 C1501 0.951 . S
H1477 C1503 0.950 . S
H1478 C1504 0.950 . S
H1479 C1506 0.950 . S
H1480 C1509 0.950 . S
H1481 C1510 0.950 . S
H1482 C1512 0.950 . S
H1483 C1513 0.950 . S
C1484 H1466 0.951 . S
C1484 C1485 1.366 . S
C1484 C1486 1.388 1_554 S
C1485 C1484 1.366 . S
C1485 C1489 1.385 1_554 S
C1486 H1467 0.951 . S
C1486 C1484 1.388 1_556 S
C1486 C1487 1.366 . S
C1487 C1486 1.366 . S
C1487 C1488 1.414 . S
C1487 C1490 1.499 . S
C1488 H1468 0.950 . S
C1488 C1487 1.414 . S
C1488 C1489 1.374 . S
C1489 H1469 0.950 . S
C1489 C1485 1.385 1_556 S
C1489 C1488 1.374 . S
C1490 C1487 1.499 . S
C1490 C1491 1.373 . S
C1490 C1492 1.389 . S
C1491 H1470 0.950 . S
C1491 C1490 1.373 . S
C1491 C1507 1.377 . S
C1492 C1490 1.389 . S
C1492 C1493 1.524 . S
C1492 C1506 1.377 . S
C1493 C1492 1.524 . S
C1493 C1494 1.397 . S
C1493 C1498 1.363 . S
C1494 H1471 0.950 . S
C1494 C1493 1.397 . S
C1494 C1495 1.334 . S
C1495 H1472 0.950 . S
C1495 C1494 1.334 . S
C1495 C1496 1.287 . S
C1496 C1495 1.287 . S
C1496 C1497 1.524 . S
C1496 H1515 0.913 . S
C1497 H1473 0.950 . S
C1497 C1496 1.524 . S
C1497 C1498 1.415 . S
C1498 H1474 0.950 . S
C1498 C1493 1.363 . S
C1498 C1497 1.415 . S
C1499 H1475 0.951 . S
C1499 C1500 1.366 . S
C1499 C1501 1.388 . S
C1500 C1499 1.366 . S
C1500 C1504 1.385 . S
C1501 H1476 0.951 . S
C1501 C1499 1.388 . S
C1501 C1502 1.366 . S
C1502 C1501 1.366 . S
C1502 C1503 1.414 . S
C1502 C1505 1.499 . S
C1503 H1477 0.950 . S
C1503 C1502 1.414 . S
C1503 C1504 1.374 . S
C1504 H1478 0.950 . S
C1504 C1500 1.385 . S
C1504 C1503 1.374 . S
C1505 C1502 1.499 . S
C1505 C1506 1.373 . S
C1505 C1507 1.389 . S
C1506 H1479 0.950 . S
C1506 C1492 1.377 . S
C1506 C1505 1.373 . S
C1507 C1491 1.377 . S
C1507 C1505 1.389 . S
C1507 C1508 1.524 . S
C1508 C1507 1.524 . S
C1508 C1509 1.397 . S
C1508 C1513 1.363 . S
C1509 H1480 0.950 . S
C1509 C1508 1.397 . S
C1509 C1510 1.334 . S
C1510 H1481 0.950 . S
C1510 C1509 1.334 . S
C1510 C1511 1.287 . S
C1511 C1510 1.287 . S
C1511 C1512 1.524 . S
C1511 H1514 0.999 . S
C1512 H1482 0.950 . S
C1512 C1511 1.524 . S
C1512 C1513 1.415 . S
C1513 H1483 0.950 . S
C1513 C1508 1.363 . S
C1513 C1512 1.415 . S
H1514 C1511 0.999 . S
H1515 C1496 0.913 . S
H1516 C1534 0.951 . S
H1517 C1536 0.951 . S
H1518 C1538 0.950 . S
H1519 C1539 0.950 . S
H1520 C1541 0.950 . S
H1521 C1544 0.950 . S
H1522 C1545 0.950 . S
H1523 C1547 0.950 . S
H1524 C1548 0.950 . S
H1525 C1549 0.951 . S
H1526 C1551 0.951 . S
H1527 C1553 0.950 . S
H1528 C1554 0.950 . S
H1529 C1556 0.950 . S
H1530 C1559 0.950 . S
H1531 C1560 0.950 . S
H1532 C1562 0.950 . S
H1533 C1563 0.950 . S
C1534 H1516 0.951 . S
C1534 C1535 1.366 . S
C1534 C1536 1.388 . S
C1535 C1534 1.366 . S
C1535 C1539 1.385 . S
C1536 H1517 0.951 . S
C1536 C1534 1.388 . S
C1536 C1537 1.366 . S
C1537 C1536 1.366 . S
C1537 C1538 1.414 . S
C1537 C1540 1.499 . S
C1538 H1518 0.950 . S
C1538 C1537 1.414 . S
C1538 C1539 1.374 . S
C1539 H1519 0.950 . S
C1539 C1535 1.385 . S
C1539 C1538 1.374 . S
C1540 C1537 1.499 . S
C1540 C1541 1.373 . S
C1540 C1542 1.389 . S
C1541 H1520 0.950 . S
C1541 C1540 1.373 . S
C1541 C1557 1.377 . S
C1542 C1540 1.389 . S
C1542 C1543 1.524 . S
C1542 C1556 1.377 . S
C1543 C1542 1.524 . S
C1543 C1544 1.397 . S
C1543 C1548 1.363 . S
C1544 H1521 0.950 . S
C1544 C1543 1.397 . S
C1544 C1545 1.334 . S
C1545 H1522 0.950 . S
C1545 C1544 1.334 . S
C1545 C1546 1.287 . S
C1546 C1545 1.287 . S
C1546 C1547 1.524 . S
C1546 H1565 0.913 . S
C1547 H1523 0.950 . S
C1547 C1546 1.524 . S
C1547 C1548 1.415 . S
C1548 H1524 0.950 . S
C1548 C1543 1.363 . S
C1548 C1547 1.415 . S
C1549 H1525 0.951 . S
C1549 C1550 1.366 . S
C1549 C1551 1.388 . S
C1550 C1549 1.366 . S
C1550 C1554 1.385 . S
C1551 H1526 0.951 . S
C1551 C1549 1.388 . S
C1551 C1552 1.366 . S
C1552 C1551 1.366 . S
C1552 C1553 1.414 . S
C1552 C1555 1.499 . S
C1553 H1527 0.950 . S
C1553 C1552 1.414 . S
C1553 C1554 1.374 . S
C1554 H1528 0.950 . S
C1554 C1550 1.385 . S
C1554 C1553 1.374 . S
C1555 C1552 1.499 . S
C1555 C1556 1.373 . S
C1555 C1557 1.389 . S
C1556 H1529 0.950 . S
C1556 C1542 1.377 . S
C1556 C1555 1.373 . S
C1557 C1541 1.377 . S
C1557 C1555 1.389 . S
C1557 C1558 1.524 . S
C1558 C1557 1.524 . S
C1558 C1559 1.397 . S
C1558 C1563 1.363 . S
C1559 H1530 0.950 . S
C1559 C1558 1.397 . S
C1559 C1560 1.334 . S
C1560 H1531 0.950 . S
C1560 C1559 1.334 . S
C1560 C1561 1.287 . S
C1561 C1560 1.287 . S
C1561 C1562 1.524 . S
C1561 H1564 0.999 . S
C1562 H1532 0.950 . S
C1562 C1561 1.524 . S
C1562 C1563 1.415 . S
C1563 H1533 0.950 . S
C1563 C1558 1.363 . S
C1563 C1562 1.415 . S
H1564 C1561 0.999 . S
H1565 C1546 0.913 . S
H1566 C1584 0.951 . S
H1567 C1586 0.951 . S
H1568 C1588 0.950 . S
H1569 C1589 0.950 . S
H1570 C1591 0.950 . S
H1571 C1594 0.950 . S
H1572 C1595 0.950 . S
H1573 C1597 0.950 . S
H1574 C1598 0.950 . S
H1575 C1599 0.951 . S
H1576 C1601 0.951 . S
H1577 C1603 0.950 . S
H1578 C1604 0.950 . S
H1579 C1606 0.950 . S
H1580 C1609 0.950 . S
H1581 C1610 0.950 . S
H1582 C1612 0.950 . S
H1583 C1613 0.950 . S
C1584 H1566 0.951 . S
C1584 C1585 1.366 . S
C1584 C1586 1.388 . S
C1585 C1584 1.366 . S
C1585 C1589 1.385 . S
C1586 H1567 0.951 . S
C1586 C1584 1.388 . S
C1586 C1587 1.366 . S
C1587 C1586 1.366 . S
C1587 C1588 1.414 . S
C1587 C1590 1.499 . S
C1588 H1568 0.950 . S
C1588 C1587 1.414 . S
C1588 C1589 1.374 . S
C1589 H1569 0.950 . S
C1589 C1585 1.385 . S
C1589 C1588 1.374 . S
C1590 C1587 1.499 . S
C1590 C1591 1.373 . S
C1590 C1592 1.389 . S
C1591 H1570 0.950 . S
C1591 C1590 1.373 . S
C1591 C1607 1.377 . S
C1592 C1590 1.389 . S
C1592 C1593 1.524 . S
C1592 C1606 1.377 . S
C1593 C1592 1.524 . S
C1593 C1594 1.397 . S
C1593 C1598 1.363 . S
C1594 H1571 0.950 . S
C1594 C1593 1.397 . S
C1594 C1595 1.334 . S
C1595 H1572 0.950 . S
C1595 C1594 1.334 . S
C1595 C1596 1.287 . S
C1596 C1595 1.287 . S
C1596 C1597 1.524 . S
C1596 H1615 0.913 . S
C1597 H1573 0.950 . S
C1597 C1596 1.524 . S
C1597 C1598 1.415 . S
C1598 H1574 0.950 . S
C1598 C1593 1.363 . S
C1598 C1597 1.415 . S
C1599 H1575 0.951 . S
C1599 C1600 1.366 . S
C1599 C1601 1.388 . S
C1600 C1599 1.366 . S
C1600 C1604 1.385 . S
C1601 H1576 0.951 . S
C1601 C1599 1.388 . S
C1601 C1602 1.366 . S
C1602 C1601 1.366 . S
C1602 C1603 1.414 . S
C1602 C1605 1.499 . S
C1603 H1577 0.950 . S
C1603 C1602 1.414 . S
C1603 C1604 1.374 . S
C1604 H1578 0.950 . S
C1604 C1600 1.385 . S
C1604 C1603 1.374 . S
C1605 C1602 1.499 . S
C1605 C1606 1.373 . S
C1605 C1607 1.389 . S
C1606 H1579 0.950 . S
C1606 C1592 1.377 . S
C1606 C1605 1.373 . S
C1607 C1591 1.377 . S
C1607 C1605 1.389 . S
C1607 C1608 1.524 . S
C1608 C1607 1.524 . S
C1608 C1609 1.397 . S
C1608 C1613 1.363 . S
C1609 H1580 0.950 . S
C1609 C1608 1.397 . S
C1609 C1610 1.334 . S
C1610 H1581 0.950 . S
C1610 C1609 1.334 . S
C1610 C1611 1.287 . S
C1611 C1610 1.287 . S
C1611 C1612 1.524 . S
C1611 H1614 0.999 . S
C1612 H1582 0.950 . S
C1612 C1611 1.524 . S
C1612 C1613 1.415 . S
C1613 H1583 0.950 . S
C1613 C1608 1.363 . S
C1613 C1612 1.415 . S
H1614 C1611 0.999 . S
H1615 C1596 0.913 . S
H1616 C1634 0.951 . S
H1617 C1636 0.951 . S
H1618 C1638 0.950 . S
H1619 C1639 0.950 . S
H1620 C1641 0.950 . S
H1621 C1644 0.950 . S
H1622 C1645 0.950 . S
H1623 C1647 0.950 . S
H1624 C1648 0.950 . S
H1625 C1649 0.951 . S
H1626 C1651 0.951 . S
H1627 C1653 0.950 . S
H1628 C1654 0.950 . S
H1629 C1656 0.950 . S
H1630 C1659 0.950 . S
H1631 C1660 0.950 . S
H1632 C1662 0.950 . S
H1633 C1663 0.950 . S
C1634 H1616 0.951 . S
C1634 C1635 1.366 . S
C1634 C1636 1.388 . S
C1635 C1634 1.366 . S
C1635 C1639 1.385 . S
C1636 H1617 0.951 . S
C1636 C1634 1.388 . S
C1636 C1637 1.366 . S
C1637 C1636 1.366 . S
C1637 C1638 1.414 . S
C1637 C1640 1.499 . S
C1638 H1618 0.950 . S
C1638 C1637 1.414 . S
C1638 C1639 1.374 . S
C1639 H1619 0.950 . S
C1639 C1635 1.385 . S
C1639 C1638 1.374 . S
C1640 C1637 1.499 . S
C1640 C1641 1.373 . S
C1640 C1642 1.389 . S
C1641 H1620 0.950 . S
C1641 C1640 1.373 . S
C1641 C1657 1.377 . S
C1642 C1640 1.389 . S
C1642 C1643 1.524 . S
C1642 C1656 1.377 . S
C1643 C1642 1.524 . S
C1643 C1644 1.397 . S
C1643 C1648 1.363 . S
C1644 H1621 0.950 . S
C1644 C1643 1.397 . S
C1644 C1645 1.334 . S
C1645 H1622 0.950 . S
C1645 C1644 1.334 . S
C1645 C1646 1.287 . S
C1646 C1645 1.287 . S
C1646 C1647 1.524 . S
C1646 H1665 0.913 . S
C1647 H1623 0.950 . S
C1647 C1646 1.524 . S
C1647 C1648 1.415 . S
C1648 H1624 0.950 . S
C1648 C1643 1.363 . S
C1648 C1647 1.415 . S
C1649 H1625 0.951 . S
C1649 C1650 1.366 . S
C1649 C1651 1.388 . S
C1650 C1649 1.366 . S
C1650 C1654 1.385 . S
C1651 H1626 0.951 . S
C1651 C1649 1.388 . S
C1651 C1652 1.366 . S
C1652 C1651 1.366 . S
C1652 C1653 1.414 . S
C1652 C1655 1.499 . S
C1653 H1627 0.950 . S
C1653 C1652 1.414 . S
C1653 C1654 1.374 . S
C1654 H1628 0.950 . S
C1654 C1650 1.385 . S
C1654 C1653 1.374 . S
C1655 C1652 1.499 . S
C1655 C1656 1.373 . S
C1655 C1657 1.389 . S
C1656 H1629 0.950 . S
C1656 C1642 1.377 . S
C1656 C1655 1.373 . S
C1657 C1641 1.377 . S
C1657 C1655 1.389 . S
C1657 C1658 1.524 . S
C1658 C1657 1.524 . S
C1658 C1659 1.397 . S
C1658 C1663 1.363 . S
C1659 H1630 0.950 . S
C1659 C1658 1.397 . S
C1659 C1660 1.334 . S
C1660 H1631 0.950 . S
C1660 C1659 1.334 . S
C1660 C1661 1.287 . S
C1661 C1660 1.287 . S
C1661 C1662 1.524 . S
C1661 H1664 0.999 . S
C1662 H1632 0.950 . S
C1662 C1661 1.524 . S
C1662 C1663 1.415 . S
C1663 H1633 0.950 . S
C1663 C1658 1.363 . S
C1663 C1662 1.415 . S
H1664 C1661 0.999 . S
H1665 C1646 0.913 . S
H1666 C1684 0.951 . S
H1667 C1686 0.951 . S
H1668 C1688 0.950 . S
H1669 C1689 0.950 . S
H1670 C1691 0.950 . S
H1671 C1694 0.950 . S
H1672 C1695 0.950 . S
H1673 C1697 0.950 . S
H1674 C1698 0.950 . S
H1675 C1699 0.951 . S
H1676 C1701 0.951 . S
H1677 C1703 0.950 . S
H1678 C1704 0.950 . S
H1679 C1706 0.950 . S
H1680 C1709 0.950 . S
H1681 C1710 0.950 . S
H1682 C1712 0.950 . S
H1683 C1713 0.950 . S
C1684 H1666 0.951 . S
C1684 C1685 1.366 . S
C1684 C1686 1.388 . S
C1685 C1684 1.366 . S
C1685 C1689 1.385 . S
C1686 H1667 0.951 . S
C1686 C1684 1.388 . S
C1686 C1687 1.366 . S
C1687 C1686 1.366 . S
C1687 C1688 1.414 . S
C1687 C1690 1.499 . S
C1688 H1668 0.950 . S
C1688 C1687 1.414 . S
C1688 C1689 1.374 . S
C1689 H1669 0.950 . S
C1689 C1685 1.385 . S
C1689 C1688 1.374 . S
C1690 C1687 1.499 . S
C1690 C1691 1.373 . S
C1690 C1692 1.389 . S
C1691 H1670 0.950 . S
C1691 C1690 1.373 . S
C1691 C1707 1.377 . S
C1692 C1690 1.389 . S
C1692 C1693 1.524 . S
C1692 C1706 1.377 . S
C1693 C1692 1.524 . S
C1693 C1694 1.397 . S
C1693 C1698 1.363 . S
C1694 H1671 0.950 . S
C1694 C1693 1.397 . S
C1694 C1695 1.334 . S
C1695 H1672 0.950 . S
C1695 C1694 1.334 . S
C1695 C1696 1.287 . S
C1696 C1695 1.287 . S
C1696 C1697 1.524 . S
C1696 H1715 0.913 . S
C1697 H1673 0.950 . S
C1697 C1696 1.524 . S
C1697 C1698 1.415 . S
C1698 H1674 0.950 . S
C1698 C1693 1.363 . S
C1698 C1697 1.415 . S
C1699 H1675 0.951 . S
C1699 C1700 1.366 . S
C1699 C1701 1.388 . S
C1700 C1699 1.366 . S
C1700 C1704 1.385 . S
C1701 H1676 0.951 . S
C1701 C1699 1.388 . S
C1701 C1702 1.366 . S
C1702 C1701 1.366 . S
C1702 C1703 1.414 . S
C1702 C1705 1.499 . S
C1703 H1677 0.950 . S
C1703 C1702 1.414 . S
C1703 C1704 1.374 . S
C1704 H1678 0.950 . S
C1704 C1700 1.385 . S
C1704 C1703 1.374 . S
C1705 C1702 1.499 . S
C1705 C1706 1.373 . S
C1705 C1707 1.389 . S
C1706 H1679 0.950 . S
C1706 C1692 1.377 . S
C1706 C1705 1.373 . S
C1707 C1691 1.377 . S
C1707 C1705 1.389 . S
C1707 C1708 1.524 . S
C1708 C1707 1.524 . S
C1708 C1709 1.397 . S
C1708 C1713 1.363 . S
C1709 H1680 0.950 . S
C1709 C1708 1.397 . S
C1709 C1710 1.334 . S
C1710 H1681 0.950 . S
C1710 C1709 1.334 . S
C1710 C1711 1.287 . S
C1711 C1710 1.287 . S
C1711 C1712 1.524 . S
C1711 H1714 0.999 . S
C1712 H1682 0.950 . S
C1712 C1711 1.524 . S
C1712 C1713 1.415 . S
C1713 H1683 0.950 . S
C1713 C1708 1.363 . S
C1713 C1712 1.415 . S
H1714 C1711 0.999 . S
H1715 C1696 0.913 . S
H1716 C1734 0.951 . S
H1717 C1736 0.951 . S
H1718 C1738 0.950 . S
H1719 C1739 0.950 . S
H1720 C1741 0.950 . S
H1721 C1744 0.950 . S
H1722 C1745 0.950 . S
H1723 C1747 0.950 . S
H1724 C1748 0.950 . S
H1725 C1749 0.951 . S
H1726 C1751 0.951 . S
H1727 C1753 0.950 . S
H1728 C1754 0.950 . S
H1729 C1756 0.950 . S
H1730 C1759 0.950 . S
H1731 C1760 0.950 . S
H1732 C1762 0.950 . S
H1733 C1763 0.950 . S
C1734 H1716 0.951 . S
C1734 C1735 1.366 . S
C1734 C1736 1.388 . S
C1735 C1734 1.366 . S
C1735 C1739 1.385 . S
C1736 H1717 0.951 . S
C1736 C1734 1.388 . S
C1736 C1737 1.366 . S
C1737 C1736 1.366 . S
C1737 C1738 1.414 . S
C1737 C1740 1.499 . S
C1738 H1718 0.950 . S
C1738 C1737 1.414 . S
C1738 C1739 1.374 . S
C1739 H1719 0.950 . S
C1739 C1735 1.385 . S
C1739 C1738 1.374 . S
C1740 C1737 1.499 . S
C1740 C1741 1.373 . S
C1740 C1742 1.389 . S
C1741 H1720 0.950 . S
C1741 C1740 1.373 . S
C1741 C1757 1.377 . S
C1742 C1740 1.389 . S
C1742 C1743 1.524 . S
C1742 C1756 1.377 . S
C1743 C1742 1.524 . S
C1743 C1744 1.397 . S
C1743 C1748 1.363 . S
C1744 H1721 0.950 . S
C1744 C1743 1.397 . S
C1744 C1745 1.334 . S
C1745 H1722 0.950 . S
C1745 C1744 1.334 . S
C1745 C1746 1.287 . S
C1746 C1745 1.287 . S
C1746 C1747 1.524 . S
C1746 H1765 0.913 . S
C1747 H1723 0.950 . S
C1747 C1746 1.524 . S
C1747 C1748 1.415 . S
C1748 H1724 0.950 . S
C1748 C1743 1.363 . S
C1748 C1747 1.415 . S
C1749 H1725 0.951 . S
C1749 C1750 1.366 . S
C1749 C1751 1.388 1_554 S
C1750 C1749 1.366 . S
C1750 C1754 1.385 . S
C1751 H1726 0.951 . S
C1751 C1749 1.388 1_556 S
C1751 C1752 1.366 . S
C1752 C1751 1.366 . S
C1752 C1753 1.414 . S
C1752 C1755 1.499 . S
C1753 H1727 0.950 . S
C1753 C1752 1.414 . S
C1753 C1754 1.374 1_556 S
C1754 H1728 0.950 . S
C1754 C1750 1.385 . S
C1754 C1753 1.374 1_554 S
C1755 C1752 1.499 . S
C1755 C1756 1.373 . S
C1755 C1757 1.389 . S
C1756 H1729 0.950 . S
C1756 C1742 1.377 . S
C1756 C1755 1.373 . S
C1757 C1741 1.377 . S
C1757 C1755 1.389 . S
C1757 C1758 1.524 . S
C1758 C1757 1.524 . S
C1758 C1759 1.397 . S
C1758 C1763 1.363 . S
C1759 H1730 0.950 . S
C1759 C1758 1.397 . S
C1759 C1760 1.334 . S
C1760 H1731 0.950 . S
C1760 C1759 1.334 . S
C1760 C1761 1.287 . S
C1761 C1760 1.287 . S
C1761 C1762 1.524 . S
C1761 H1764 0.999 . S
C1762 H1732 0.950 . S
C1762 C1761 1.524 . S
C1762 C1763 1.415 . S
C1763 H1733 0.950 . S
C1763 C1758 1.363 . S
C1763 C1762 1.415 . S
H1764 C1761 0.999 . S
H1765 C1746 0.913 . S
H1766 C1784 0.951 . S
H1767 C1786 0.951 . S
H1768 C1788 0.950 . S
H1769 C1789 0.950 . S
H1770 C1791 0.950 . S
H1771 C1794 0.950 . S
H1772 C1795 0.950 . S
H1773 C1797 0.950 . S
H1774 C1798 0.950 . S
H1775 C1799 0.951 . S
H1776 C1801 0.951 . S
H1777 C1803 0.950 . S
H1778 C1804 0.950 . S
H1779 C1806 0.950 . S
H1780 C1809 0.950 . S
H1781 C1810 0.950 . S
H1782 C1812 0.950 . S
H1783 C1813 0.950 . S
C1784 H1766 0.951 . S
C1784 C1785 1.366 . S
C1784 C1786 1.388 . S
C1785 C1784 1.366 . S
C1785 C1789 1.385 . S
C1786 H1767 0.951 . S
C1786 C1784 1.388 . S
C1786 C1787 1.366 . S
C1787 C1786 1.366 . S
C1787 C1788 1.414 . S
C1787 C1790 1.499 . S
C1788 H1768 0.950 . S
C1788 C1787 1.414 . S
C1788 C1789 1.374 . S
C1789 H1769 0.950 . S
C1789 C1785 1.385 . S
C1789 C1788 1.374 . S
C1790 C1787 1.499 . S
C1790 C1791 1.373 . S
C1790 C1792 1.389 . S
C1791 H1770 0.950 . S
C1791 C1790 1.373 . S
C1791 C1807 1.377 . S
C1792 C1790 1.389 . S
C1792 C1793 1.524 . S
C1792 C1806 1.377 . S
C1793 C1792 1.524 . S
C1793 C1794 1.397 . S
C1793 C1798 1.363 . S
C1794 H1771 0.950 . S
C1794 C1793 1.397 . S
C1794 C1795 1.334 . S
C1795 H1772 0.950 . S
C1795 C1794 1.334 . S
C1795 C1796 1.287 . S
C1796 C1795 1.287 . S
C1796 C1797 1.524 . S
C1796 H1815 0.913 . S
C1797 H1773 0.950 . S
C1797 C1796 1.524 . S
C1797 C1798 1.415 . S
C1798 H1774 0.950 . S
C1798 C1793 1.363 . S
C1798 C1797 1.415 . S
C1799 H1775 0.951 . S
C1799 C1800 1.366 1_554 S
C1799 C1801 1.388 . S
C1800 C1799 1.366 1_556 S
C1800 C1804 1.385 . S
C1801 H1776 0.951 . S
C1801 C1799 1.388 . S
C1801 C1802 1.366 . S
C1802 C1801 1.366 . S
C1802 C1803 1.414 . S
C1802 C1805 1.499 . S
C1803 H1777 0.950 . S
C1803 C1802 1.414 . S
C1803 C1804 1.374 1_554 S
C1804 H1778 0.950 . S
C1804 C1800 1.385 . S
C1804 C1803 1.374 1_556 S
C1805 C1802 1.499 . S
C1805 C1806 1.373 . S
C1805 C1807 1.389 . S
C1806 H1779 0.950 . S
C1806 C1792 1.377 . S
C1806 C1805 1.373 . S
C1807 C1791 1.377 . S
C1807 C1805 1.389 . S
C1807 C1808 1.524 . S
C1808 C1807 1.524 . S
C1808 C1809 1.397 . S
C1808 C1813 1.363 . S
C1809 H1780 0.950 . S
C1809 C1808 1.397 . S
C1809 C1810 1.334 . S
C1810 H1781 0.950 . S
C1810 C1809 1.334 . S
C1810 C1811 1.287 . S
C1811 C1810 1.287 . S
C1811 C1812 1.524 . S
C1811 H1814 0.999 . S
C1812 H1782 0.950 . S
C1812 C1811 1.524 . S
C1812 C1813 1.415 . S
C1813 H1783 0.950 . S
C1813 C1808 1.363 . S
C1813 C1812 1.415 . S
H1814 C1811 0.999 . S
H1815 C1796 0.913 . S
H1816 C1834 0.951 . S
H1817 C1836 0.951 . S
H1818 C1838 0.950 . S
H1819 C1839 0.950 . S
H1820 C1841 0.950 . S
H1821 C1844 0.950 . S
H1822 C1845 0.950 . S
H1823 C1847 0.950 . S
H1824 C1848 0.950 . S
H1825 C1849 0.951 . S
H1826 C1851 0.951 . S
H1827 C1853 0.950 . S
H1828 C1854 0.950 . S
H1829 C1856 0.950 . S
H1830 C1859 0.950 . S
H1831 C1860 0.950 . S
H1832 C1862 0.950 . S
H1833 C1863 0.950 . S
C1834 H1816 0.951 . S
C1834 C1835 1.366 . S
C1834 C1836 1.388 . S
C1835 C1834 1.366 . S
C1835 C1839 1.385 . S
C1836 H1817 0.951 . S
C1836 C1834 1.388 . S
C1836 C1837 1.366 . S
C1837 C1836 1.366 . S
C1837 C1838 1.414 . S
C1837 C1840 1.499 . S
C1838 H1818 0.950 . S
C1838 C1837 1.414 . S
C1838 C1839 1.374 . S
C1839 H1819 0.950 . S
C1839 C1835 1.385 . S
C1839 C1838 1.374 . S
C1840 C1837 1.499 . S
C1840 C1841 1.373 . S
C1840 C1842 1.389 . S
C1841 H1820 0.950 . S
C1841 C1840 1.373 . S
C1841 C1857 1.377 . S
C1842 C1840 1.389 . S
C1842 C1843 1.524 . S
C1842 C1856 1.377 . S
C1843 C1842 1.524 . S
C1843 C1844 1.397 . S
C1843 C1848 1.363 . S
C1844 H1821 0.950 . S
C1844 C1843 1.397 . S
C1844 C1845 1.334 . S
C1845 H1822 0.950 . S
C1845 C1844 1.334 . S
C1845 C1846 1.287 . S
C1846 C1845 1.287 . S
C1846 C1847 1.524 . S
C1846 H1865 0.913 . S
C1847 H1823 0.950 . S
C1847 C1846 1.524 . S
C1847 C1848 1.415 . S
C1848 H1824 0.950 . S
C1848 C1843 1.363 . S
C1848 C1847 1.415 . S
C1849 H1825 0.951 . S
C1849 C1850 1.366 . S
C1849 C1851 1.388 . S
C1850 C1849 1.366 . S
C1850 C1854 1.385 . S
C1851 H1826 0.951 . S
C1851 C1849 1.388 . S
C1851 C1852 1.366 . S
C1852 C1851 1.366 . S
C1852 C1853 1.414 . S
C1852 C1855 1.499 . S
C1853 H1827 0.950 . S
C1853 C1852 1.414 . S
C1853 C1854 1.374 . S
C1854 H1828 0.950 . S
C1854 C1850 1.385 . S
C1854 C1853 1.374 . S
C1855 C1852 1.499 . S
C1855 C1856 1.373 . S
C1855 C1857 1.389 . S
C1856 H1829 0.950 . S
C1856 C1842 1.377 . S
C1856 C1855 1.373 . S
C1857 C1841 1.377 . S
C1857 C1855 1.389 . S
C1857 C1858 1.524 . S
C1858 C1857 1.524 . S
C1858 C1859 1.397 . S
C1858 C1863 1.363 . S
C1859 H1830 0.950 . S
C1859 C1858 1.397 . S
C1859 C1860 1.334 . S
C1860 H1831 0.950 . S
C1860 C1859 1.334 . S
C1860 C1861 1.287 . S
C1861 C1860 1.287 . S
C1861 C1862 1.524 . S
C1861 H1864 0.999 . S
C1862 H1832 0.950 . S
C1862 C1861 1.524 . S
C1862 C1863 1.415 . S
C1863 H1833 0.950 . S
C1863 C1858 1.363 . S
C1863 C1862 1.415 . S
H1864 C1861 0.999 . S
H1865 C1846 0.913 . S
H1866 C1884 0.951 . S
H1867 C1886 0.951 . S
H1868 C1888 0.950 . S
H1869 C1889 0.950 . S
H1870 C1891 0.950 . S
H1871 C1894 0.950 . S
H1872 C1895 0.950 . S
H1873 C1897 0.950 . S
H1874 C1898 0.950 . S
H1875 C1899 0.951 . S
H1876 C1901 0.951 . S
H1877 C1903 0.950 . S
H1878 C1904 0.950 . S
H1879 C1906 0.950 . S
H1880 C1909 0.950 . S
H1881 C1910 0.950 . S
H1882 C1912 0.950 . S
H1883 C1913 0.950 . S
C1884 H1866 0.951 . S
C1884 C1885 1.366 . S
C1884 C1886 1.388 . S
C1885 C1884 1.366 . S
C1885 C1889 1.385 . S
C1886 H1867 0.951 . S
C1886 C1884 1.388 . S
C1886 C1887 1.366 . S
C1887 C1886 1.366 . S
C1887 C1888 1.414 . S
C1887 C1890 1.499 . S
C1888 H1868 0.950 . S
C1888 C1887 1.414 . S
C1888 C1889 1.374 . S
C1889 H1869 0.950 . S
C1889 C1885 1.385 . S
C1889 C1888 1.374 . S
C1890 C1887 1.499 . S
C1890 C1891 1.373 . S
C1890 C1892 1.389 . S
C1891 H1870 0.950 . S
C1891 C1890 1.373 . S
C1891 C1907 1.377 . S
C1892 C1890 1.389 . S
C1892 C1893 1.524 . S
C1892 C1906 1.377 . S
C1893 C1892 1.524 . S
C1893 C1894 1.397 . S
C1893 C1898 1.363 . S
C1894 H1871 0.950 . S
C1894 C1893 1.397 . S
C1894 C1895 1.334 . S
C1895 H1872 0.950 . S
C1895 C1894 1.334 . S
C1895 C1896 1.287 . S
C1896 C1895 1.287 . S
C1896 C1897 1.524 . S
C1896 H1915 0.913 . S
C1897 H1873 0.950 . S
C1897 C1896 1.524 . S
C1897 C1898 1.415 . S
C1898 H1874 0.950 . S
C1898 C1893 1.363 . S
C1898 C1897 1.415 . S
C1899 H1875 0.951 . S
C1899 C1900 1.366 . S
C1899 C1901 1.388 . S
C1900 C1899 1.366 . S
C1900 C1904 1.385 . S
C1901 H1876 0.951 . S
C1901 C1899 1.388 . S
C1901 C1902 1.366 . S
C1902 C1901 1.366 . S
C1902 C1903 1.414 . S
C1902 C1905 1.499 . S
C1903 H1877 0.950 . S
C1903 C1902 1.414 . S
C1903 C1904 1.374 . S
C1904 H1878 0.950 . S
C1904 C1900 1.385 . S
C1904 C1903 1.374 . S
C1905 C1902 1.499 . S
C1905 C1906 1.373 . S
C1905 C1907 1.389 . S
C1906 H1879 0.950 . S
C1906 C1892 1.377 . S
C1906 C1905 1.373 . S
C1907 C1891 1.377 . S
C1907 C1905 1.389 . S
C1907 C1908 1.524 . S
C1908 C1907 1.524 . S
C1908 C1909 1.397 . S
C1908 C1913 1.363 . S
C1909 H1880 0.950 . S
C1909 C1908 1.397 . S
C1909 C1910 1.334 . S
C1910 H1881 0.950 . S
C1910 C1909 1.334 . S
C1910 C1911 1.287 . S
C1911 C1910 1.287 . S
C1911 C1912 1.524 . S
C1911 H1914 0.999 . S
C1912 H1882 0.950 . S
C1912 C1911 1.524 . S
C1912 C1913 1.415 . S
C1913 H1883 0.950 . S
C1913 C1908 1.363 . S
C1913 C1912 1.415 . S
H1914 C1911 0.999 . S
H1915 C1896 0.913 . S
H1916 C1934 0.951 . S
H1917 C1936 0.951 . S
H1918 C1938 0.950 . S
H1919 C1939 0.950 . S
H1920 C1941 0.950 . S
H1921 C1944 0.950 . S
H1922 C1945 0.954 . S
H1923 C1947 0.950 1_556 S
H1924 C1948 0.950 . S
H1925 C1949 0.951 . S
H1926 C1951 0.951 . S
H1927 C1953 0.950 . S
H1928 C1954 0.950 . S
H1929 C1956 0.950 . S
H1930 C1959 0.950 . S
H1931 C1960 0.950 . S
H1932 C1962 0.950 . S
H1933 C1963 0.950 . S
C1934 H1916 0.951 . S
C1934 C1935 1.366 . S
C1934 C1936 1.388 1_556 S
C1935 C1934 1.366 . S
C1935 C1939 1.385 1_556 S
C1936 H1917 0.951 . S
C1936 C1934 1.388 1_554 S
C1936 C1937 1.366 . S
C1937 C1936 1.366 . S
C1937 C1938 1.414 . S
C1937 C1940 1.499 . S
C1938 H1918 0.950 . S
C1938 C1937 1.414 . S
C1938 C1939 1.374 . S
C1939 H1919 0.950 . S
C1939 C1935 1.385 1_554 S
C1939 C1938 1.374 . S
C1940 C1937 1.499 . S
C1940 C1941 1.373 . S
C1940 C1942 1.389 . S
C1941 H1920 0.950 . S
C1941 C1940 1.373 . S
C1941 C1957 1.377 . S
C1942 C1940 1.389 . S
C1942 C1943 1.524 . S
C1942 C1956 1.377 . S
C1943 C1942 1.524 . S
C1943 C1944 1.397 . S
C1943 C1948 1.363 . S
C1944 H1921 0.950 . S
C1944 C1943 1.397 . S
C1944 C1945 1.334 . S
C1945 H1922 0.954 . S
C1945 C1944 1.334 . S
C1945 C1946 1.287 1_554 S
C1946 C1945 1.287 1_556 S
C1946 C1947 1.524 1_556 S
C1946 H1965 0.913 . S
C1947 H1923 0.950 1_554 S
C1947 C1946 1.524 1_554 S
C1947 C1948 1.415 . S
C1948 H1924 0.950 . S
C1948 C1943 1.363 . S
C1948 C1947 1.415 . S
C1949 H1925 0.951 . S
C1949 C1950 1.366 . S
C1949 C1951 1.388 . S
C1950 C1949 1.366 . S
C1950 C1954 1.385 . S
C1951 H1926 0.951 . S
C1951 C1949 1.388 . S
C1951 C1952 1.366 . S
C1952 C1951 1.366 . S
C1952 C1953 1.414 . S
C1952 C1955 1.499 . S
C1953 H1927 0.950 . S
C1953 C1952 1.414 . S
C1953 C1954 1.374 . S
C1954 H1928 0.950 . S
C1954 C1950 1.385 . S
C1954 C1953 1.374 . S
C1955 C1952 1.499 . S
C1955 C1956 1.373 . S
C1955 C1957 1.389 . S
C1956 H1929 0.950 . S
C1956 C1942 1.377 . S
C1956 C1955 1.373 . S
C1957 C1941 1.377 . S
C1957 C1955 1.389 . S
C1957 C1958 1.524 . S
C1958 C1957 1.524 . S
C1958 C1959 1.397 . S
C1958 C1963 1.363 . S
C1959 H1930 0.950 . S
C1959 C1958 1.397 . S
C1959 C1960 1.334 . S
C1960 H1931 0.950 . S
C1960 C1959 1.334 . S
C1960 C1961 1.287 . S
C1961 C1960 1.287 . S
C1961 C1962 1.524 . S
C1961 H1964 0.999 . S
C1962 H1932 0.950 . S
C1962 C1961 1.524 . S
C1962 C1963 1.415 . S
C1963 H1933 0.950 . S
C1963 C1958 1.363 . S
C1963 C1962 1.415 . S
H1964 C1961 0.999 . S
H1965 C1946 0.913 . S
H1966 C1984 0.951 . S
H1967 C1986 0.951 . S
H1968 C1988 0.950 . S
H1969 C1989 0.950 . S
H1970 C1991 0.950 . S
H1971 C1994 0.950 . S
H1972 C1995 0.950 . S
H1973 C1997 0.950 . S
H1974 C1998 0.950 . S
H1975 C1999 0.951 . S
H1976 C2001 0.951 . S
H1977 C2003 0.950 . S
H1978 C2004 0.950 . S
H1979 C2006 0.950 . S
H1980 C2009 0.950 . S
H1981 C2010 0.950 . S
H1982 C2012 0.950 . S
H1983 C2013 0.950 . S
C1984 H1966 0.951 . S
C1984 C1985 1.366 . S
C1984 C1986 1.388 . S
C1985 C1984 1.366 . S
C1985 C1989 1.385 . S
C1986 H1967 0.951 . S
C1986 C1984 1.388 . S
C1986 C1987 1.366 . S
C1987 C1986 1.366 . S
C1987 C1988 1.414 . S
C1987 C1990 1.499 . S
C1988 H1968 0.950 . S
C1988 C1987 1.414 . S
C1988 C1989 1.374 . S
C1989 H1969 0.950 . S
C1989 C1985 1.385 . S
C1989 C1988 1.374 . S
C1990 C1987 1.499 . S
C1990 C1991 1.373 . S
C1990 C1992 1.389 . S
C1991 H1970 0.950 . S
C1991 C1990 1.373 . S
C1991 C2007 1.377 . S
C1992 C1990 1.389 . S
C1992 C1993 1.524 . S
C1992 C2006 1.377 . S
C1993 C1992 1.524 . S
C1993 C1994 1.397 . S
C1993 C1998 1.363 . S
C1994 H1971 0.950 . S
C1994 C1993 1.397 . S
C1994 C1995 1.334 . S
C1995 H1972 0.950 . S
C1995 C1994 1.334 . S
C1995 C1996 1.287 . S
C1996 C1995 1.287 . S
C1996 C1997 1.524 . S
C1996 H2015 0.913 . S
C1997 H1973 0.950 . S
C1997 C1996 1.524 . S
C1997 C1998 1.415 . S
C1998 H1974 0.950 . S
C1998 C1993 1.363 . S
C1998 C1997 1.415 . S
C1999 H1975 0.951 . S
C1999 C2000 1.366 . S
C1999 C2001 1.388 1_554 S
C2000 C1999 1.366 . S
C2000 C2004 1.385 1_554 S
C2001 H1976 0.951 . S
C2001 C1999 1.388 1_556 S
C2001 C2002 1.366 . S
C2002 C2001 1.366 . S
C2002 C2003 1.414 . S
C2002 C2005 1.499 . S
C2003 H1977 0.950 . S
C2003 C2002 1.414 . S
C2003 C2004 1.374 . S
C2004 H1978 0.950 . S
C2004 C2000 1.385 1_556 S
C2004 C2003 1.374 . S
C2005 C2002 1.499 . S
C2005 C2006 1.373 . S
C2005 C2007 1.389 . S
C2006 H1979 0.950 . S
C2006 C1992 1.377 . S
C2006 C2005 1.373 . S
C2007 C1991 1.377 . S
C2007 C2005 1.389 . S
C2007 C2008 1.524 . S
C2008 C2007 1.524 . S
C2008 C2009 1.397 . S
C2008 C2013 1.363 . S
C2009 H1980 0.950 . S
C2009 C2008 1.397 . S
C2009 C2010 1.334 . S
C2010 H1981 0.950 . S
C2010 C2009 1.334 . S
C2010 C2011 1.287 . S
C2011 C2010 1.287 . S
C2011 C2012 1.524 . S
C2011 H2014 0.999 . S
C2012 H1982 0.950 . S
C2012 C2011 1.524 . S
C2012 C2013 1.415 . S
C2013 H1983 0.950 . S
C2013 C2008 1.363 . S
C2013 C2012 1.415 . S
H2014 C2011 0.999 . S
H2015 C1996 0.913 . S
H2016 C2034 0.951 . S
H2017 C2036 0.951 . S
H2018 C2038 0.950 . S
H2019 C2039 0.950 . S
H2020 C2041 0.950 . S
H2021 C2044 0.950 . S
H2022 C2045 0.950 . S
H2023 C2047 0.950 . S
H2024 C2048 0.950 . S
H2025 C2049 0.951 . S
H2026 C2051 0.951 . S
H2027 C2053 0.950 . S
H2028 C2054 0.950 . S
H2029 C2056 0.950 . S
H2030 C2059 0.950 . S
H2031 C2060 0.950 . S
H2032 C2062 0.950 . S
H2033 C2063 0.950 . S
C2034 H2016 0.951 . S
C2034 C2035 1.366 . S
C2034 C2036 1.388 . S
C2035 C2034 1.366 . S
C2035 C2039 1.385 . S
C2036 H2017 0.951 . S
C2036 C2034 1.388 . S
C2036 C2037 1.366 . S
C2037 C2036 1.366 . S
C2037 C2038 1.414 . S
C2037 C2040 1.499 . S
C2038 H2018 0.950 . S
C2038 C2037 1.414 . S
C2038 C2039 1.374 . S
C2039 H2019 0.950 . S
C2039 C2035 1.385 . S
C2039 C2038 1.374 . S
C2040 C2037 1.499 . S
C2040 C2041 1.373 . S
C2040 C2042 1.389 . S
C2041 H2020 0.950 . S
C2041 C2040 1.373 . S
C2041 C2057 1.377 . S
C2042 C2040 1.389 . S
C2042 C2043 1.524 . S
C2042 C2056 1.377 . S
C2043 C2042 1.524 . S
C2043 C2044 1.397 . S
C2043 C2048 1.363 . S
C2044 H2021 0.950 . S
C2044 C2043 1.397 . S
C2044 C2045 1.334 . S
C2045 H2022 0.950 . S
C2045 C2044 1.334 . S
C2045 C2046 1.287 1_554 S
C2046 C2045 1.287 1_556 S
C2046 C2047 1.524 . S
C2046 H2065 0.913 . S
C2047 H2023 0.950 . S
C2047 C2046 1.524 . S
C2047 C2048 1.415 1_556 S
C2048 H2024 0.950 . S
C2048 C2043 1.363 . S
C2048 C2047 1.415 1_554 S
C2049 H2025 0.951 . S
C2049 C2050 1.366 . S
C2049 C2051 1.388 . S
C2050 C2049 1.366 . S
C2050 C2054 1.385 . S
C2051 H2026 0.951 . S
C2051 C2049 1.388 . S
C2051 C2052 1.366 . S
C2052 C2051 1.366 . S
C2052 C2053 1.414 . S
C2052 C2055 1.499 . S
C2053 H2027 0.950 . S
C2053 C2052 1.414 . S
C2053 C2054 1.374 . S
C2054 H2028 0.950 . S
C2054 C2050 1.385 . S
C2054 C2053 1.374 . S
C2055 C2052 1.499 . S
C2055 C2056 1.373 . S
C2055 C2057 1.389 . S
C2056 H2029 0.950 . S
C2056 C2042 1.377 . S
C2056 C2055 1.373 . S
C2057 C2041 1.377 . S
C2057 C2055 1.389 . S
C2057 C2058 1.524 . S
C2058 C2057 1.524 . S
C2058 C2059 1.397 . S
C2058 C2063 1.363 . S
C2059 H2030 0.950 . S
C2059 C2058 1.397 . S
C2059 C2060 1.334 . S
C2060 H2031 0.950 . S
C2060 C2059 1.334 . S
C2060 C2061 1.287 . S
C2061 C2060 1.287 . S
C2061 C2062 1.524 . S
C2061 H2064 0.999 . S
C2062 H2032 0.950 . S
C2062 C2061 1.524 . S
C2062 C2063 1.415 . S
C2063 H2033 0.950 . S
C2063 C2058 1.363 . S
C2063 C2062 1.415 . S
H2064 C2061 0.999 . S
H2065 C2046 0.913 . S
H2066 C2084 0.951 . S
H2067 C2086 0.951 . S
H2068 C2088 0.950 . S
H2069 C2089 0.950 . S
H2070 C2091 0.950 . S
H2071 C2094 0.950 . S
H2072 C2095 0.950 . S
H2073 C2097 0.950 . S
H2074 C2098 0.950 . S
H2075 C2099 0.951 . S
H2076 C2101 0.951 . S
H2077 C2103 0.950 . S
H2078 C2104 0.950 . S
H2079 C2106 0.950 . S
H2080 C2109 0.950 . S
H2081 C2110 0.950 . S
H2082 C2112 0.950 . S
H2083 C2113 0.950 . S
C2084 H2066 0.951 . S
C2084 C2085 1.366 . S
C2084 C2086 1.388 . S
C2085 C2084 1.366 . S
C2085 C2089 1.385 . S
C2086 H2067 0.951 . S
C2086 C2084 1.388 . S
C2086 C2087 1.366 . S
C2087 C2086 1.366 . S
C2087 C2088 1.414 . S
C2087 C2090 1.499 . S
C2088 H2068 0.950 . S
C2088 C2087 1.414 . S
C2088 C2089 1.374 . S
C2089 H2069 0.950 . S
C2089 C2085 1.385 . S
C2089 C2088 1.374 . S
C2090 C2087 1.499 . S
C2090 C2091 1.373 . S
C2090 C2092 1.389 . S
C2091 H2070 0.950 . S
C2091 C2090 1.373 . S
C2091 C2107 1.377 1_655 S
C2092 C2090 1.389 . S
C2092 C2093 1.524 . S
C2092 C2106 1.377 1_655 S
C2093 C2092 1.524 . S
C2093 C2094 1.397 . S
C2093 C2098 1.363 . S
C2094 H2071 0.950 . S
C2094 C2093 1.397 . S
C2094 C2095 1.334 . S
C2095 H2072 0.950 . S
C2095 C2094 1.334 . S
C2095 C2096 1.287 . S
C2096 C2095 1.287 . S
C2096 C2097 1.524 . S
C2096 H2115 0.913 . S
C2097 H2073 0.950 . S
C2097 C2096 1.524 . S
C2097 C2098 1.415 . S
C2098 H2074 0.950 . S
C2098 C2093 1.363 . S
C2098 C2097 1.415 . S
C2099 H2075 0.951 . S
C2099 C2100 1.366 . S
C2099 C2101 1.388 . S
C2100 C2099 1.366 . S
C2100 C2104 1.385 . S
C2101 H2076 0.951 . S
C2101 C2099 1.388 . S
C2101 C2102 1.366 . S
C2102 C2101 1.366 . S
C2102 C2103 1.414 . S
C2102 C2105 1.499 . S
C2103 H2077 0.950 . S
C2103 C2102 1.414 . S
C2103 C2104 1.374 . S
C2104 H2078 0.950 . S
C2104 C2100 1.385 . S
C2104 C2103 1.374 . S
C2105 C2102 1.499 . S
C2105 C2106 1.373 . S
C2105 C2107 1.389 . S
C2106 H2079 0.950 . S
C2106 C2092 1.377 1_455 S
C2106 C2105 1.373 . S
C2107 C2091 1.377 1_455 S
C2107 C2105 1.389 . S
C2107 C2108 1.524 . S
C2108 C2107 1.524 . S
C2108 C2109 1.397 . S
C2108 C2113 1.363 . S
C2109 H2080 0.950 . S
C2109 C2108 1.397 . S
C2109 C2110 1.334 . S
C2110 H2081 0.950 . S
C2110 C2109 1.334 . S
C2110 C2111 1.287 . S
C2111 C2110 1.287 . S
C2111 C2112 1.524 . S
C2111 H2114 0.999 . S
C2112 H2082 0.950 . S
C2112 C2111 1.524 . S
C2112 C2113 1.415 . S
C2113 H2083 0.950 . S
C2113 C2108 1.363 . S
C2113 C2112 1.415 . S
H2114 C2111 0.999 . S
H2115 C2096 0.913 . S
H2116 C2134 0.951 . S
H2117 C2136 0.951 . S
H2118 C2138 0.950 . S
H2119 C2139 0.950 . S
H2120 C2141 0.950 . S
H2121 C2144 0.950 . S
H2122 C2145 0.950 . S
H2123 C2147 0.950 . S
H2124 C2148 0.950 . S
H2125 C2149 0.951 . S
H2126 C2151 0.951 . S
H2127 C2153 0.950 . S
H2128 C2154 0.950 . S
H2129 C2156 0.950 . S
H2130 C2159 0.950 . S
H2131 C2160 0.950 . S
H2132 C2162 0.950 . S
H2133 C2163 0.950 . S
C2134 H2116 0.951 . S
C2134 C2135 1.366 . S
C2134 C2136 1.388 . S
C2135 C2134 1.366 . S
C2135 C2139 1.385 . S
C2136 H2117 0.951 . S
C2136 C2134 1.388 . S
C2136 C2137 1.366 . S
C2137 C2136 1.366 . S
C2137 C2138 1.414 . S
C2137 C2140 1.499 . S
C2138 H2118 0.950 . S
C2138 C2137 1.414 . S
C2138 C2139 1.374 . S
C2139 H2119 0.950 . S
C2139 C2135 1.385 . S
C2139 C2138 1.374 . S
C2140 C2137 1.499 . S
C2140 C2141 1.373 . S
C2140 C2142 1.389 . S
C2141 H2120 0.950 . S
C2141 C2140 1.373 . S
C2141 C2157 1.377 . S
C2142 C2140 1.389 . S
C2142 C2143 1.524 . S
C2142 C2156 1.377 . S
C2143 C2142 1.524 . S
C2143 C2144 1.397 . S
C2143 C2148 1.363 . S
C2144 H2121 0.950 . S
C2144 C2143 1.397 . S
C2144 C2145 1.334 . S
C2145 H2122 0.950 . S
C2145 C2144 1.334 . S
C2145 C2146 1.287 . S
C2146 C2145 1.287 . S
C2146 C2147 1.524 . S
C2146 H2165 0.913 . S
C2147 H2123 0.950 . S
C2147 C2146 1.524 . S
C2147 C2148 1.415 . S
C2148 H2124 0.950 . S
C2148 C2143 1.363 . S
C2148 C2147 1.415 . S
C2149 H2125 0.951 . S
C2149 C2150 1.366 . S
C2149 C2151 1.388 . S
C2150 C2149 1.366 . S
C2150 C2154 1.385 . S
C2151 H2126 0.951 . S
C2151 C2149 1.388 . S
C2151 C2152 1.366 . S
C2152 C2151 1.366 . S
C2152 C2153 1.414 . S
C2152 C2155 1.499 . S
C2153 H2127 0.950 . S
C2153 C2152 1.414 . S
C2153 C2154 1.374 . S
C2154 H2128 0.950 . S
C2154 C2150 1.385 . S
C2154 C2153 1.374 . S
C2155 C2152 1.499 . S
C2155 C2156 1.373 . S
C2155 C2157 1.389 . S
C2156 H2129 0.950 . S
C2156 C2142 1.377 . S
C2156 C2155 1.373 . S
C2157 C2141 1.377 . S
C2157 C2155 1.389 . S
C2157 C2158 1.524 . S
C2158 C2157 1.524 . S
C2158 C2159 1.397 . S
C2158 C2163 1.363 . S
C2159 H2130 0.950 . S
C2159 C2158 1.397 . S
C2159 C2160 1.334 . S
C2160 H2131 0.950 . S
C2160 C2159 1.334 . S
C2160 C2161 1.287 . S
C2161 C2160 1.287 . S
C2161 C2162 1.524 . S
C2161 H2164 0.999 . S
C2162 H2132 0.950 . S
C2162 C2161 1.524 . S
C2162 C2163 1.415 . S
C2163 H2133 0.950 . S
C2163 C2158 1.363 . S
C2163 C2162 1.415 . S
H2164 C2161 0.999 . S
H2165 C2146 0.913 . S
H2166 C2184 0.951 . S
H2167 C2186 0.951 . S
H2168 C2188 0.950 . S
H2169 C2189 0.950 . S
H2170 C2191 0.950 . S
H2171 C2194 0.950 . S
H2172 C2195 0.950 1_554 S
H2173 C2197 0.950 . S
H2174 C2198 0.950 . S
H2175 C2199 0.951 . S
H2176 C2201 0.951 . S
H2177 C2203 0.950 . S
H2178 C2204 0.950 . S
H2179 C2206 0.950 . S
H2180 C2209 0.950 . S
H2181 C2210 0.950 . S
H2182 C2212 0.950 . S
H2183 C2213 0.950 . S
C2184 H2166 0.951 . S
C2184 C2185 1.366 . S
C2184 C2186 1.388 . S
C2185 C2184 1.366 . S
C2185 C2189 1.385 . S
C2186 H2167 0.951 . S
C2186 C2184 1.388 . S
C2186 C2187 1.366 . S
C2187 C2186 1.366 . S
C2187 C2188 1.414 . S
C2187 C2190 1.499 . S
C2188 H2168 0.950 . S
C2188 C2187 1.414 . S
C2188 C2189 1.374 . S
C2189 H2169 0.950 . S
C2189 C2185 1.385 . S
C2189 C2188 1.374 . S
C2190 C2187 1.499 . S
C2190 C2191 1.373 . S
C2190 C2192 1.389 . S
C2191 H2170 0.950 . S
C2191 C2190 1.373 . S
C2191 C2207 1.377 . S
C2192 C2190 1.389 . S
C2192 C2193 1.524 . S
C2192 C2206 1.377 . S
C2193 C2192 1.524 . S
C2193 C2194 1.397 . S
C2193 C2198 1.363 . S
C2194 H2171 0.950 . S
C2194 C2193 1.397 . S
C2194 C2195 1.334 . S
C2195 H2172 0.950 1_556 S
C2195 C2194 1.334 . S
C2195 C2196 1.287 . S
C2196 C2195 1.287 . S
C2196 C2197 1.524 . S
C2196 H2215 0.913 . S
C2197 H2173 0.950 . S
C2197 C2196 1.524 . S
C2197 C2198 1.415 . S
C2198 H2174 0.950 . S
C2198 C2193 1.363 . S
C2198 C2197 1.415 . S
C2199 H2175 0.951 . S
C2199 C2200 1.366 . S
C2199 C2201 1.388 . S
C2200 C2199 1.366 . S
C2200 C2204 1.385 . S
C2201 H2176 0.951 . S
C2201 C2199 1.388 . S
C2201 C2202 1.366 . S
C2202 C2201 1.366 . S
C2202 C2203 1.414 . S
C2202 C2205 1.499 . S
C2203 H2177 0.950 . S
C2203 C2202 1.414 . S
C2203 C2204 1.374 . S
C2204 H2178 0.950 . S
C2204 C2200 1.385 . S
C2204 C2203 1.374 . S
C2205 C2202 1.499 . S
C2205 C2206 1.373 . S
C2205 C2207 1.389 . S
C2206 H2179 0.950 . S
C2206 C2192 1.377 . S
C2206 C2205 1.373 . S
C2207 C2191 1.377 . S
C2207 C2205 1.389 . S
C2207 C2208 1.524 . S
C2208 C2207 1.524 . S
C2208 C2209 1.397 . S
C2208 C2213 1.363 . S
C2209 H2180 0.950 . S
C2209 C2208 1.397 . S
C2209 C2210 1.334 . S
C2210 H2181 0.950 . S
C2210 C2209 1.334 . S
C2210 C2211 1.287 . S
C2211 C2210 1.287 . S
C2211 C2212 1.524 . S
C2211 H2214 0.999 . S
C2212 H2182 0.950 . S
C2212 C2211 1.524 . S
C2212 C2213 1.415 . S
C2213 H2183 0.950 . S
C2213 C2208 1.363 . S
C2213 C2212 1.415 . S
H2214 C2211 0.999 . S
H2215 C2196 0.913 . S
H2216 C2234 0.951 . S
H2217 C2236 0.951 . S
H2218 C2238 0.950 . S
H2219 C2239 0.950 . S
H2220 C2241 0.950 . S
H2221 C2244 0.950 . S
H2222 C2245 0.950 . S
H2223 C2247 0.950 . S
H2224 C2248 0.950 . S
H2225 C2249 0.951 . S
H2226 C2251 0.951 . S
H2227 C2253 0.950 . S
H2228 C2254 0.950 . S
H2229 C2256 0.950 . S
H2230 C2259 0.950 . S
H2231 C2260 0.950 1_554 S
H2232 C2262 0.950 1_554 S
H2233 C2263 0.950 . S
C2234 H2216 0.951 . S
C2234 C2235 1.366 . S
C2234 C2236 1.388 . S
C2235 C2234 1.366 . S
C2235 C2239 1.385 . S
C2236 H2217 0.951 . S
C2236 C2234 1.388 . S
C2236 C2237 1.366 . S
C2237 C2236 1.366 . S
C2237 C2238 1.414 . S
C2237 C2240 1.499 . S
C2238 H2218 0.950 . S
C2238 C2237 1.414 . S
C2238 C2239 1.374 . S
C2239 H2219 0.950 . S
C2239 C2235 1.385 . S
C2239 C2238 1.374 . S
C2240 C2237 1.499 . S
C2240 C2241 1.373 . S
C2240 C2242 1.389 . S
C2241 H2220 0.950 . S
C2241 C2240 1.373 . S
C2241 C2257 1.377 . S
C2242 C2240 1.389 . S
C2242 C2243 1.524 . S
C2242 C2256 1.377 . S
C2243 C2242 1.524 . S
C2243 C2244 1.397 . S
C2243 C2248 1.363 . S
C2244 H2221 0.950 . S
C2244 C2243 1.397 . S
C2244 C2245 1.334 . S
C2245 H2222 0.950 . S
C2245 C2244 1.334 . S
C2245 C2246 1.287 . S
C2246 C2245 1.287 . S
C2246 C2247 1.524 . S
C2246 H2265 0.913 . S
C2247 H2223 0.950 . S
C2247 C2246 1.524 . S
C2247 C2248 1.415 . S
C2248 H2224 0.950 . S
C2248 C2243 1.363 . S
C2248 C2247 1.415 . S
C2249 H2225 0.951 . S
C2249 C2250 1.366 . S
C2249 C2251 1.388 . S
C2250 C2249 1.366 . S
C2250 C2254 1.385 . S
C2251 H2226 0.951 . S
C2251 C2249 1.388 . S
C2251 C2252 1.366 . S
C2252 C2251 1.366 . S
C2252 C2253 1.414 . S
C2252 C2255 1.499 . S
C2253 H2227 0.950 . S
C2253 C2252 1.414 . S
C2253 C2254 1.374 . S
C2254 H2228 0.950 . S
C2254 C2250 1.385 . S
C2254 C2253 1.374 . S
C2255 C2252 1.499 . S
C2255 C2256 1.373 . S
C2255 C2257 1.389 . S
C2256 H2229 0.950 . S
C2256 C2242 1.377 . S
C2256 C2255 1.373 . S
C2257 C2241 1.377 . S
C2257 C2255 1.389 . S
C2257 C2258 1.524 . S
C2258 C2257 1.524 . S
C2258 C2259 1.397 . S
C2258 C2263 1.363 . S
C2259 H2230 0.950 . S
C2259 C2258 1.397 . S
C2259 C2260 1.334 . S
C2260 H2231 0.950 1_556 S
C2260 C2259 1.334 . S
C2260 C2261 1.287 1_556 S
C2261 C2260 1.287 1_554 S
C2261 C2262 1.524 1_554 S
C2261 H2264 0.999 . S
C2262 H2232 0.950 1_556 S
C2262 C2261 1.524 1_556 S
C2262 C2263 1.415 . S
C2263 H2233 0.950 . S
C2263 C2258 1.363 . S
C2263 C2262 1.415 . S
H2264 C2261 0.999 . S
H2265 C2246 0.913 . S
H2266 C2284 0.951 . S
H2267 C2286 0.951 . S
H2268 C2288 0.950 . S
H2269 C2289 0.950 . S
H2270 C2291 0.950 . S
H2271 C2294 0.950 . S
H2272 C2295 0.950 . S
H2273 C2297 0.950 . S
H2274 C2298 0.950 . S
H2275 C2299 0.951 . S
H2276 C2301 0.951 . S
H2277 C2303 0.950 . S
H2278 C2304 0.950 . S
H2279 C2306 0.950 . S
H2280 C2309 0.950 . S
H2281 C2310 0.950 1_556 S
H2282 C2312 0.950 . S
H2283 C2313 0.950 . S
C2284 H2266 0.951 . S
C2284 C2285 1.366 . S
C2284 C2286 1.388 . S
C2285 C2284 1.366 . S
C2285 C2289 1.385 . S
C2286 H2267 0.951 . S
C2286 C2284 1.388 . S
C2286 C2287 1.366 . S
C2287 C2286 1.366 . S
C2287 C2288 1.414 . S
C2287 C2290 1.499 . S
C2288 H2268 0.950 . S
C2288 C2287 1.414 . S
C2288 C2289 1.374 . S
C2289 H2269 0.950 . S
C2289 C2285 1.385 . S
C2289 C2288 1.374 . S
C2290 C2287 1.499 . S
C2290 C2291 1.373 . S
C2290 C2292 1.389 . S
C2291 H2270 0.950 . S
C2291 C2290 1.373 . S
C2291 C2307 1.377 . S
C2292 C2290 1.389 . S
C2292 C2293 1.524 . S
C2292 C2306 1.377 . S
C2293 C2292 1.524 . S
C2293 C2294 1.397 . S
C2293 C2298 1.363 . S
C2294 H2271 0.950 . S
C2294 C2293 1.397 . S
C2294 C2295 1.334 . S
C2295 H2272 0.950 . S
C2295 C2294 1.334 . S
C2295 C2296 1.287 . S
C2296 C2295 1.287 . S
C2296 C2297 1.524 . S
C2296 H2315 0.913 . S
C2297 H2273 0.950 . S
C2297 C2296 1.524 . S
C2297 C2298 1.415 . S
C2298 H2274 0.950 . S
C2298 C2293 1.363 . S
C2298 C2297 1.415 . S
C2299 H2275 0.951 . S
C2299 C2300 1.366 . S
C2299 C2301 1.388 . S
C2300 C2299 1.366 . S
C2300 C2304 1.385 . S
C2301 H2276 0.951 . S
C2301 C2299 1.388 . S
C2301 C2302 1.366 . S
C2302 C2301 1.366 . S
C2302 C2303 1.414 . S
C2302 C2305 1.499 . S
C2303 H2277 0.950 . S
C2303 C2302 1.414 . S
C2303 C2304 1.374 . S
C2304 H2278 0.950 . S
C2304 C2300 1.385 . S
C2304 C2303 1.374 . S
C2305 C2302 1.499 . S
C2305 C2306 1.373 . S
C2305 C2307 1.389 . S
C2306 H2279 0.950 . S
C2306 C2292 1.377 . S
C2306 C2305 1.373 . S
C2307 C2291 1.377 . S
C2307 C2305 1.389 . S
C2307 C2308 1.524 . S
C2308 C2307 1.524 . S
C2308 C2309 1.397 . S
C2308 C2313 1.363 . S
C2309 H2280 0.950 . S
C2309 C2308 1.397 . S
C2309 C2310 1.334 . S
C2310 H2281 0.950 1_554 S
C2310 C2309 1.334 . S
C2310 C2311 1.287 . S
C2311 C2310 1.287 . S
C2311 C2312 1.524 . S
C2311 H2314 0.999 . S
C2312 H2282 0.950 . S
C2312 C2311 1.524 . S
C2312 C2313 1.415 . S
C2313 H2283 0.950 . S
C2313 C2308 1.363 . S
C2313 C2312 1.415 . S
H2314 C2311 0.999 . S
H2315 C2296 0.913 . S
H2316 C2334 0.951 . S
H2317 C2336 0.951 . S
H2318 C2338 0.950 . S
H2319 C2339 0.950 . S
H2320 C2341 0.950 . S
H2321 C2344 0.950 . S
H2322 C2345 0.950 . S
H2323 C2347 0.950 . S
H2324 C2348 0.950 . S
H2325 C2349 0.951 . S
H2326 C2351 0.951 . S
H2327 C2353 0.950 . S
H2328 C2354 0.950 . S
H2329 C2356 0.950 . S
H2330 C2359 0.950 . S
H2331 C2360 0.950 . S
H2332 C2362 0.950 . S
H2333 C2363 0.950 . S
C2334 H2316 0.951 . S
C2334 C2335 1.366 . S
C2334 C2336 1.388 . S
C2335 C2334 1.366 . S
C2335 C2339 1.385 . S
C2336 H2317 0.951 . S
C2336 C2334 1.388 . S
C2336 C2337 1.366 . S
C2337 C2336 1.366 . S
C2337 C2338 1.414 . S
C2337 C2340 1.499 . S
C2338 H2318 0.950 . S
C2338 C2337 1.414 . S
C2338 C2339 1.374 . S
C2339 H2319 0.950 . S
C2339 C2335 1.385 . S
C2339 C2338 1.374 . S
C2340 C2337 1.499 . S
C2340 C2341 1.373 . S
C2340 C2342 1.389 . S
C2341 H2320 0.950 . S
C2341 C2340 1.373 . S
C2341 C2357 1.377 . S
C2342 C2340 1.389 . S
C2342 C2343 1.524 . S
C2342 C2356 1.377 . S
C2343 C2342 1.524 . S
C2343 C2344 1.397 . S
C2343 C2348 1.363 . S
C2344 H2321 0.950 . S
C2344 C2343 1.397 . S
C2344 C2345 1.334 . S
C2345 H2322 0.950 . S
C2345 C2344 1.334 . S
C2345 C2346 1.287 . S
C2346 C2345 1.287 . S
C2346 C2347 1.524 . S
C2346 H2365 0.913 . S
C2347 H2323 0.950 . S
C2347 C2346 1.524 . S
C2347 C2348 1.415 . S
C2348 H2324 0.950 . S
C2348 C2343 1.363 . S
C2348 C2347 1.415 . S
C2349 H2325 0.951 . S
C2349 C2350 1.366 . S
C2349 C2351 1.388 . S
C2350 C2349 1.366 . S
C2350 C2354 1.385 . S
C2351 H2326 0.951 . S
C2351 C2349 1.388 . S
C2351 C2352 1.366 . S
C2352 C2351 1.366 . S
C2352 C2353 1.414 . S
C2352 C2355 1.499 . S
C2353 H2327 0.950 . S
C2353 C2352 1.414 . S
C2353 C2354 1.374 . S
C2354 H2328 0.950 . S
C2354 C2350 1.385 . S
C2354 C2353 1.374 . S
C2355 C2352 1.499 . S
C2355 C2356 1.373 . S
C2355 C2357 1.389 . S
C2356 H2329 0.950 . S
C2356 C2342 1.377 . S
C2356 C2355 1.373 . S
C2357 C2341 1.377 . S
C2357 C2355 1.389 . S
C2357 C2358 1.524 . S
C2358 C2357 1.524 . S
C2358 C2359 1.397 . S
C2358 C2363 1.363 . S
C2359 H2330 0.950 . S
C2359 C2358 1.397 . S
C2359 C2360 1.334 . S
C2360 H2331 0.950 . S
C2360 C2359 1.334 . S
C2360 C2361 1.287 . S
C2361 C2360 1.287 . S
C2361 C2362 1.524 . S
C2361 H2364 0.999 . S
C2362 H2332 0.950 . S
C2362 C2361 1.524 . S
C2362 C2363 1.415 . S
C2363 H2333 0.950 . S
C2363 C2358 1.363 . S
C2363 C2362 1.415 . S
H2364 C2361 0.999 . S
H2365 C2346 0.913 . S
H2366 C2384 0.951 . S
H2367 C2386 0.951 . S
H2368 C2388 0.950 . S
H2369 C2389 0.950 . S
H2370 C2391 0.950 . S
H2371 C2394 0.950 . S
H2372 C2395 0.950 . S
H2373 C2397 0.950 . S
H2374 C2398 0.950 . S
H2375 C2399 0.951 . S
H2376 C2401 0.951 . S
H2377 C2403 0.950 . S
H2378 C2404 0.950 . S
H2379 C2406 0.950 . S
H2380 C2409 0.950 . S
H2381 C2410 0.950 . S
H2382 C2412 0.950 . S
H2383 C2413 0.950 . S
C2384 H2366 0.951 . S
C2384 C2385 1.366 . S
C2384 C2386 1.388 . S
C2385 C2384 1.366 . S
C2385 C2389 1.385 . S
C2386 H2367 0.951 . S
C2386 C2384 1.388 . S
C2386 C2387 1.366 . S
C2387 C2386 1.366 . S
C2387 C2388 1.414 . S
C2387 C2390 1.499 . S
C2388 H2368 0.950 . S
C2388 C2387 1.414 . S
C2388 C2389 1.374 . S
C2389 H2369 0.950 . S
C2389 C2385 1.385 . S
C2389 C2388 1.374 . S
C2390 C2387 1.499 . S
C2390 C2391 1.373 . S
C2390 C2392 1.389 . S
C2391 H2370 0.950 . S
C2391 C2390 1.373 . S
C2391 C2407 1.377 1_655 S
C2392 C2390 1.389 . S
C2392 C2393 1.524 . S
C2392 C2406 1.377 1_655 S
C2393 C2392 1.524 . S
C2393 C2394 1.397 . S
C2393 C2398 1.363 . S
C2394 H2371 0.950 . S
C2394 C2393 1.397 . S
C2394 C2395 1.334 . S
C2395 H2372 0.950 . S
C2395 C2394 1.334 . S
C2395 C2396 1.287 . S
C2396 C2395 1.287 . S
C2396 C2397 1.524 . S
C2396 H2415 0.913 . S
C2397 H2373 0.950 . S
C2397 C2396 1.524 . S
C2397 C2398 1.415 . S
C2398 H2374 0.950 . S
C2398 C2393 1.363 . S
C2398 C2397 1.415 . S
C2399 H2375 0.951 . S
C2399 C2400 1.366 . S
C2399 C2401 1.388 . S
C2400 C2399 1.366 . S
C2400 C2404 1.385 . S
C2401 H2376 0.951 . S
C2401 C2399 1.388 . S
C2401 C2402 1.366 . S
C2402 C2401 1.366 . S
C2402 C2403 1.414 . S
C2402 C2405 1.499 . S
C2403 H2377 0.950 . S
C2403 C2402 1.414 . S
C2403 C2404 1.374 . S
C2404 H2378 0.950 . S
C2404 C2400 1.385 . S
C2404 C2403 1.374 . S
C2405 C2402 1.499 . S
C2405 C2406 1.373 . S
C2405 C2407 1.389 . S
C2406 H2379 0.950 . S
C2406 C2392 1.377 1_455 S
C2406 C2405 1.373 . S
C2407 C2391 1.377 1_455 S
C2407 C2405 1.389 . S
C2407 C2408 1.524 . S
C2408 C2407 1.524 . S
C2408 C2409 1.397 . S
C2408 C2413 1.363 . S
C2409 H2380 0.950 . S
C2409 C2408 1.397 . S
C2409 C2410 1.334 . S
C2410 H2381 0.950 . S
C2410 C2409 1.334 . S
C2410 C2411 1.287 . S
C2411 C2410 1.287 . S
C2411 C2412 1.524 . S
C2411 H2414 0.999 . S
C2412 H2382 0.950 . S
C2412 C2411 1.524 . S
C2412 C2413 1.415 . S
C2413 H2383 0.950 . S
C2413 C2408 1.363 . S
C2413 C2412 1.415 . S
H2414 C2411 0.999 . S
H2415 C2396 0.913 . S
H2416 C2434 0.951 . S
H2417 C2436 0.951 . S
H2418 C2438 0.950 . S
H2419 C2439 0.950 . S
H2420 C2441 0.950 . S
H2421 C2444 0.950 . S
H2422 C2445 0.950 1_554 S
H2423 C2447 0.950 . S
H2424 C2448 0.950 . S
H2425 C2449 0.951 . S
H2426 C2451 0.951 . S
H2427 C2453 0.950 . S
H2428 C2454 0.950 . S
H2429 C2456 0.950 . S
H2430 C2459 0.950 . S
H2431 C2460 0.950 . S
H2432 C2462 0.950 . S
H2433 C2463 0.950 . S
C2434 H2416 0.951 . S
C2434 C2435 1.366 . S
C2434 C2436 1.388 . S
C2435 C2434 1.366 . S
C2435 C2439 1.385 . S
C2436 H2417 0.951 . S
C2436 C2434 1.388 . S
C2436 C2437 1.366 . S
C2437 C2436 1.366 . S
C2437 C2438 1.414 . S
C2437 C2440 1.499 . S
C2438 H2418 0.950 . S
C2438 C2437 1.414 . S
C2438 C2439 1.374 . S
C2439 H2419 0.950 . S
C2439 C2435 1.385 . S
C2439 C2438 1.374 . S
C2440 C2437 1.499 . S
C2440 C2441 1.373 . S
C2440 C2442 1.389 . S
C2441 H2420 0.950 . S
C2441 C2440 1.373 . S
C2441 C2457 1.377 . S
C2442 C2440 1.389 . S
C2442 C2443 1.524 . S
C2442 C2456 1.377 . S
C2443 C2442 1.524 . S
C2443 C2444 1.397 . S
C2443 C2448 1.363 . S
C2444 H2421 0.950 . S
C2444 C2443 1.397 . S
C2444 C2445 1.334 . S
C2445 H2422 0.950 1_556 S
C2445 C2444 1.334 . S
C2445 C2446 1.287 . S
C2446 C2445 1.287 . S
C2446 C2447 1.524 . S
C2446 H2465 0.913 1_556 S
C2447 H2423 0.950 . S
C2447 C2446 1.524 . S
C2447 C2448 1.415 . S
C2448 H2424 0.950 . S
C2448 C2443 1.363 . S
C2448 C2447 1.415 . S
C2449 H2425 0.951 . S
C2449 C2450 1.366 . S
C2449 C2451 1.388 . S
C2450 C2449 1.366 . S
C2450 C2454 1.385 . S
C2451 H2426 0.951 . S
C2451 C2449 1.388 . S
C2451 C2452 1.366 . S
C2452 C2451 1.366 . S
C2452 C2453 1.414 . S
C2452 C2455 1.499 . S
C2453 H2427 0.950 . S
C2453 C2452 1.414 . S
C2453 C2454 1.374 . S
C2454 H2428 0.950 . S
C2454 C2450 1.385 . S
C2454 C2453 1.374 . S
C2455 C2452 1.499 . S
C2455 C2456 1.373 . S
C2455 C2457 1.389 . S
C2456 H2429 0.950 . S
C2456 C2442 1.377 . S
C2456 C2455 1.373 . S
C2457 C2441 1.377 . S
C2457 C2455 1.389 . S
C2457 C2458 1.524 . S
C2458 C2457 1.524 . S
C2458 C2459 1.397 . S
C2458 C2463 1.363 . S
C2459 H2430 0.950 . S
C2459 C2458 1.397 . S
C2459 C2460 1.334 . S
C2460 H2431 0.950 . S
C2460 C2459 1.334 . S
C2460 C2461 1.287 . S
C2461 C2460 1.287 . S
C2461 C2462 1.524 . S
C2461 H2464 0.999 . S
C2462 H2432 0.950 . S
C2462 C2461 1.524 . S
C2462 C2463 1.415 . S
C2463 H2433 0.950 . S
C2463 C2458 1.363 . S
C2463 C2462 1.415 . S
H2464 C2461 0.999 . S
H2465 C2446 0.913 1_554 S
H2466 C2484 0.951 . S
H2467 C2486 0.951 . S
H2468 C2488 0.950 . S
H2469 C2489 0.950 . S
H2470 C2491 0.950 . S
H2471 C2494 0.950 . S
H2472 C2495 0.950 . S
H2473 C2497 0.950 . S
H2474 C2498 0.950 . S
H2475 C2499 0.951 . S
H2476 C2501 0.951 . S
H2477 C2503 0.950 . S
H2478 C2504 0.950 . S
H2479 C2506 0.950 . S
H2480 C2509 0.950 . S
H2481 C2510 0.950 . S
H2482 C2512 0.950 . S
H2483 C2513 0.950 . S
C2484 H2466 0.951 . S
C2484 C2485 1.366 . S
C2484 C2486 1.388 . S
C2485 C2484 1.366 . S
C2485 C2489 1.385 . S
C2486 H2467 0.951 . S
C2486 C2484 1.388 . S
C2486 C2487 1.366 . S
C2487 C2486 1.366 . S
C2487 C2488 1.414 . S
C2487 C2490 1.499 . S
C2488 H2468 0.950 . S
C2488 C2487 1.414 . S
C2488 C2489 1.374 . S
C2489 H2469 0.950 . S
C2489 C2485 1.385 . S
C2489 C2488 1.374 . S
C2490 C2487 1.499 . S
C2490 C2491 1.373 . S
C2490 C2492 1.389 . S
C2491 H2470 0.950 . S
C2491 C2490 1.373 . S
C2491 C2507 1.377 . S
C2492 C2490 1.389 . S
C2492 C2493 1.524 . S
C2492 C2506 1.377 . S
C2493 C2492 1.524 . S
C2493 C2494 1.397 . S
C2493 C2498 1.363 . S
C2494 H2471 0.950 . S
C2494 C2493 1.397 . S
C2494 C2495 1.334 . S
C2495 H2472 0.950 . S
C2495 C2494 1.334 . S
C2495 C2496 1.287 . S
C2496 C2495 1.287 . S
C2496 C2497 1.524 . S
C2496 H2515 0.913 . S
C2497 H2473 0.950 . S
C2497 C2496 1.524 . S
C2497 C2498 1.415 . S
C2498 H2474 0.950 . S
C2498 C2493 1.363 . S
C2498 C2497 1.415 . S
C2499 H2475 0.951 . S
C2499 C2500 1.366 . S
C2499 C2501 1.388 . S
C2500 C2499 1.366 . S
C2500 C2504 1.385 . S
C2501 H2476 0.951 . S
C2501 C2499 1.388 . S
C2501 C2502 1.366 . S
C2502 C2501 1.366 . S
C2502 C2503 1.414 . S
C2502 C2505 1.499 . S
C2503 H2477 0.950 . S
C2503 C2502 1.414 . S
C2503 C2504 1.374 . S
C2504 H2478 0.950 . S
C2504 C2500 1.385 . S
C2504 C2503 1.374 . S
C2505 C2502 1.499 . S
C2505 C2506 1.373 . S
C2505 C2507 1.389 . S
C2506 H2479 0.950 . S
C2506 C2492 1.377 . S
C2506 C2505 1.373 . S
C2507 C2491 1.377 . S
C2507 C2505 1.389 . S
C2507 C2508 1.524 . S
C2508 C2507 1.524 . S
C2508 C2509 1.397 . S
C2508 C2513 1.363 . S
C2509 H2480 0.950 . S
C2509 C2508 1.397 . S
C2509 C2510 1.334 . S
C2510 H2481 0.950 . S
C2510 C2509 1.334 . S
C2510 C2511 1.287 . S
C2511 C2510 1.287 . S
C2511 C2512 1.524 . S
C2511 H2514 0.999 . S
C2512 H2482 0.950 . S
C2512 C2511 1.524 . S
C2512 C2513 1.415 . S
C2513 H2483 0.950 . S
C2513 C2508 1.363 . S
C2513 C2512 1.415 . S
H2514 C2511 0.999 . S
H2515 C2496 0.913 . S
H2516 C2534 0.951 . S
H2517 C2536 0.951 . S
H2518 C2538 0.950 . S
H2519 C2539 0.950 . S
H2520 C2541 0.950 . S
H2521 C2544 0.950 . S
H2522 C2545 0.950 . S
H2523 C2547 0.950 . S
H2524 C2548 0.950 . S
H2525 C2549 0.951 . S
H2526 C2551 0.951 . S
H2527 C2553 0.950 . S
H2528 C2554 0.950 . S
H2529 C2556 0.950 . S
H2530 C2559 0.950 . S
H2531 C2560 0.950 . S
H2532 C2562 0.950 . S
H2533 C2563 0.950 . S
C2534 H2516 0.951 . S
C2534 C2535 1.366 . S
C2534 C2536 1.388 . S
C2535 C2534 1.366 . S
C2535 C2539 1.385 . S
C2536 H2517 0.951 . S
C2536 C2534 1.388 . S
C2536 C2537 1.366 . S
C2537 C2536 1.366 . S
C2537 C2538 1.414 . S
C2537 C2540 1.499 . S
C2538 H2518 0.950 . S
C2538 C2537 1.414 . S
C2538 C2539 1.374 . S
C2539 H2519 0.950 . S
C2539 C2535 1.385 . S
C2539 C2538 1.374 . S
C2540 C2537 1.499 . S
C2540 C2541 1.373 . S
C2540 C2542 1.389 . S
C2541 H2520 0.950 . S
C2541 C2540 1.373 . S
C2541 C2557 1.377 . S
C2542 C2540 1.389 . S
C2542 C2543 1.524 . S
C2542 C2556 1.377 . S
C2543 C2542 1.524 . S
C2543 C2544 1.397 . S
C2543 C2548 1.363 . S
C2544 H2521 0.950 . S
C2544 C2543 1.397 . S
C2544 C2545 1.334 . S
C2545 H2522 0.950 . S
C2545 C2544 1.334 . S
C2545 C2546 1.287 1_554 S
C2546 C2545 1.287 1_556 S
C2546 C2547 1.524 . S
C2546 H2565 0.913 . S
C2547 H2523 0.950 . S
C2547 C2546 1.524 . S
C2547 C2548 1.415 1_556 S
C2548 H2524 0.950 . S
C2548 C2543 1.363 . S
C2548 C2547 1.415 1_554 S
C2549 H2525 0.951 . S
C2549 C2550 1.366 . S
C2549 C2551 1.388 . S
C2550 C2549 1.366 . S
C2550 C2554 1.385 . S
C2551 H2526 0.951 . S
C2551 C2549 1.388 . S
C2551 C2552 1.366 . S
C2552 C2551 1.366 . S
C2552 C2553 1.414 . S
C2552 C2555 1.499 . S
C2553 H2527 0.950 . S
C2553 C2552 1.414 . S
C2553 C2554 1.374 . S
C2554 H2528 0.950 . S
C2554 C2550 1.385 . S
C2554 C2553 1.374 . S
C2555 C2552 1.499 . S
C2555 C2556 1.373 . S
C2555 C2557 1.389 . S
C2556 H2529 0.950 . S
C2556 C2542 1.377 . S
C2556 C2555 1.373 . S
C2557 C2541 1.377 . S
C2557 C2555 1.389 . S
C2557 C2558 1.524 . S
C2558 C2557 1.524 . S
C2558 C2559 1.397 . S
C2558 C2563 1.363 . S
C2559 H2530 0.950 . S
C2559 C2558 1.397 . S
C2559 C2560 1.334 . S
C2560 H2531 0.950 . S
C2560 C2559 1.334 . S
C2560 C2561 1.287 . S
C2561 C2560 1.287 . S
C2561 C2562 1.524 . S
C2561 H2564 0.999 . S
C2562 H2532 0.950 . S
C2562 C2561 1.524 . S
C2562 C2563 1.415 . S
C2563 H2533 0.950 . S
C2563 C2558 1.363 . S
C2563 C2562 1.415 . S
H2564 C2561 0.999 . S
H2565 C2546 0.913 . S
H2566 C2584 0.951 . S
H2567 C2586 0.951 . S
H2568 C2588 0.950 . S
H2569 C2589 0.950 . S
H2570 C2591 0.950 . S
H2571 C2594 0.950 . S
H2572 C2595 0.950 . S
H2573 C2597 0.950 . S
H2574 C2598 0.950 . S
H2575 C2599 0.951 . S
H2576 C2601 0.951 . S
H2577 C2603 0.950 . S
H2578 C2604 0.950 . S
H2579 C2606 0.950 . S
H2580 C2609 0.950 . S
H2581 C2610 0.950 . S
H2582 C2612 0.950 . S
H2583 C2613 0.950 . S
C2584 H2566 0.951 . S
C2584 C2585 1.366 . S
C2584 C2586 1.388 . S
C2585 C2584 1.366 . S
C2585 C2589 1.385 . S
C2586 H2567 0.951 . S
C2586 C2584 1.388 . S
C2586 C2587 1.366 . S
C2587 C2586 1.366 . S
C2587 C2588 1.414 . S
C2587 C2590 1.499 . S
C2588 H2568 0.950 . S
C2588 C2587 1.414 . S
C2588 C2589 1.374 . S
C2589 H2569 0.950 . S
C2589 C2585 1.385 . S
C2589 C2588 1.374 . S
C2590 C2587 1.499 . S
C2590 C2591 1.373 . S
C2590 C2592 1.389 . S
C2591 H2570 0.950 . S
C2591 C2590 1.373 . S
C2591 C2607 1.377 . S
C2592 C2590 1.389 . S
C2592 C2593 1.524 . S
C2592 C2606 1.377 . S
C2593 C2592 1.524 . S
C2593 C2594 1.397 . S
C2593 C2598 1.363 . S
C2594 H2571 0.950 . S
C2594 C2593 1.397 . S
C2594 C2595 1.334 . S
C2595 H2572 0.950 . S
C2595 C2594 1.334 . S
C2595 C2596 1.287 . S
C2596 C2595 1.287 . S
C2596 C2597 1.524 . S
C2596 H2615 0.913 . S
C2597 H2573 0.950 . S
C2597 C2596 1.524 . S
C2597 C2598 1.415 . S
C2598 H2574 0.950 . S
C2598 C2593 1.363 . S
C2598 C2597 1.415 . S
C2599 H2575 0.951 . S
C2599 C2600 1.366 . S
C2599 C2601 1.388 . S
C2600 C2599 1.366 . S
C2600 C2604 1.385 . S
C2601 H2576 0.951 . S
C2601 C2599 1.388 . S
C2601 C2602 1.366 . S
C2602 C2601 1.366 . S
C2602 C2603 1.414 . S
C2602 C2605 1.499 . S
C2603 H2577 0.950 . S
C2603 C2602 1.414 . S
C2603 C2604 1.374 . S
C2604 H2578 0.950 . S
C2604 C2600 1.385 . S
C2604 C2603 1.374 . S
C2605 C2602 1.499 . S
C2605 C2606 1.373 . S
C2605 C2607 1.389 . S
C2606 H2579 0.950 . S
C2606 C2592 1.377 . S
C2606 C2605 1.373 . S
C2607 C2591 1.377 . S
C2607 C2605 1.389 . S
C2607 C2608 1.524 . S
C2608 C2607 1.524 . S
C2608 C2609 1.397 . S
C2608 C2613 1.363 . S
C2609 H2580 0.950 . S
C2609 C2608 1.397 . S
C2609 C2610 1.334 . S
C2610 H2581 0.950 . S
C2610 C2609 1.334 . S
C2610 C2611 1.287 . S
C2611 C2610 1.287 . S
C2611 C2612 1.524 . S
C2611 H2614 0.999 . S
C2612 H2582 0.950 . S
C2612 C2611 1.524 . S
C2612 C2613 1.415 . S
C2613 H2583 0.950 . S
C2613 C2608 1.363 . S
C2613 C2612 1.415 . S
H2614 C2611 0.999 . S
H2615 C2596 0.913 . S
H2616 C2634 0.951 . S
H2617 C2636 0.951 . S
H2618 C2638 0.950 . S
H2619 C2639 0.950 . S
H2620 C2641 0.950 . S
H2621 C2644 0.950 . S
H2622 C2645 0.950 . S
H2623 C2647 0.950 . S
H2624 C2648 0.950 . S
H2625 C2649 0.951 . S
H2626 C2651 0.951 . S
H2627 C2653 0.950 . S
H2628 C2654 0.950 . S
H2629 C2656 0.950 . S
H2630 C2659 0.950 . S
H2631 C2660 0.950 . S
H2632 C2662 0.950 . S
H2633 C2663 0.950 . S
C2634 H2616 0.951 . S
C2634 C2635 1.366 . S
C2634 C2636 1.388 . S
C2635 C2634 1.366 . S
C2635 C2639 1.385 . S
C2636 H2617 0.951 . S
C2636 C2634 1.388 . S
C2636 C2637 1.366 . S
C2637 C2636 1.366 . S
C2637 C2638 1.414 . S
C2637 C2640 1.499 . S
C2638 H2618 0.950 . S
C2638 C2637 1.414 . S
C2638 C2639 1.374 . S
C2639 H2619 0.950 . S
C2639 C2635 1.385 . S
C2639 C2638 1.374 . S
C2640 C2637 1.499 . S
C2640 C2641 1.373 . S
C2640 C2642 1.389 . S
C2641 H2620 0.950 . S
C2641 C2640 1.373 . S
C2641 C2657 1.377 . S
C2642 C2640 1.389 . S
C2642 C2643 1.524 . S
C2642 C2656 1.377 . S
C2643 C2642 1.524 . S
C2643 C2644 1.397 . S
C2643 C2648 1.363 1_556 S
C2644 H2621 0.950 . S
C2644 C2643 1.397 . S
C2644 C2645 1.334 1_556 S
C2645 H2622 0.950 . S
C2645 C2644 1.334 1_554 S
C2645 C2646 1.287 . S
C2646 C2645 1.287 . S
C2646 C2647 1.524 . S
C2646 H2665 0.913 . S
C2647 H2623 0.950 . S
C2647 C2646 1.524 . S
C2647 C2648 1.415 . S
C2648 H2624 0.950 . S
C2648 C2643 1.363 1_554 S
C2648 C2647 1.415 . S
C2649 H2625 0.951 . S
C2649 C2650 1.366 . S
C2649 C2651 1.388 . S
C2650 C2649 1.366 . S
C2650 C2654 1.385 . S
C2651 H2626 0.951 . S
C2651 C2649 1.388 . S
C2651 C2652 1.366 . S
C2652 C2651 1.366 . S
C2652 C2653 1.414 . S
C2652 C2655 1.499 . S
C2653 H2627 0.950 . S
C2653 C2652 1.414 . S
C2653 C2654 1.374 . S
C2654 H2628 0.950 . S
C2654 C2650 1.385 . S
C2654 C2653 1.374 . S
C2655 C2652 1.499 . S
C2655 C2656 1.373 . S
C2655 C2657 1.389 . S
C2656 H2629 0.950 . S
C2656 C2642 1.377 . S
C2656 C2655 1.373 . S
C2657 C2641 1.377 . S
C2657 C2655 1.389 . S
C2657 C2658 1.524 . S
C2658 C2657 1.524 . S
C2658 C2659 1.397 . S
C2658 C2663 1.363 . S
C2659 H2630 0.950 . S
C2659 C2658 1.397 . S
C2659 C2660 1.334 . S
C2660 H2631 0.950 . S
C2660 C2659 1.334 . S
C2660 C2661 1.287 . S
C2661 C2660 1.287 . S
C2661 C2662 1.524 . S
C2661 H2664 0.999 . S
C2662 H2632 0.950 . S
C2662 C2661 1.524 . S
C2662 C2663 1.415 . S
C2663 H2633 0.950 . S
C2663 C2658 1.363 . S
C2663 C2662 1.415 . S
H2664 C2661 0.999 . S
H2665 C2646 0.913 . S
H2666 C2684 0.951 . S
H2667 C2686 0.951 . S
H2668 C2688 0.950 . S
H2669 C2689 0.950 . S
H2670 C2691 0.950 . S
H2671 C2694 0.950 . S
H2672 C2695 0.950 . S
H2673 C2697 0.950 . S
H2674 C2698 0.950 . S
H2675 C2699 0.951 . S
H2676 C2701 0.951 . S
H2677 C2703 0.950 . S
H2678 C2704 0.950 . S
H2679 C2706 0.950 . S
H2680 C2709 0.950 . S
H2681 C2710 0.950 . S
H2682 C2712 0.950 . S
H2683 C2713 0.950 . S
C2684 H2666 0.951 . S
C2684 C2685 1.366 . S
C2684 C2686 1.388 . S
C2685 C2684 1.366 . S
C2685 C2689 1.385 . S
C2686 H2667 0.951 . S
C2686 C2684 1.388 . S
C2686 C2687 1.366 . S
C2687 C2686 1.366 . S
C2687 C2688 1.414 . S
C2687 C2690 1.499 . S
C2688 H2668 0.950 . S
C2688 C2687 1.414 . S
C2688 C2689 1.374 . S
C2689 H2669 0.950 . S
C2689 C2685 1.385 . S
C2689 C2688 1.374 . S
C2690 C2687 1.499 . S
C2690 C2691 1.373 . S
C2690 C2692 1.389 . S
C2691 H2670 0.950 . S
C2691 C2690 1.373 . S
C2691 C2707 1.377 1_655 S
C2692 C2690 1.389 . S
C2692 C2693 1.524 . S
C2692 C2706 1.377 1_655 S
C2693 C2692 1.524 . S
C2693 C2694 1.397 . S
C2693 C2698 1.363 . S
C2694 H2671 0.950 . S
C2694 C2693 1.397 . S
C2694 C2695 1.334 . S
C2695 H2672 0.950 . S
C2695 C2694 1.334 . S
C2695 C2696 1.287 . S
C2696 C2695 1.287 . S
C2696 C2697 1.524 . S
C2696 H2715 0.913 . S
C2697 H2673 0.950 . S
C2697 C2696 1.524 . S
C2697 C2698 1.415 . S
C2698 H2674 0.950 . S
C2698 C2693 1.363 . S
C2698 C2697 1.415 . S
C2699 H2675 0.951 . S
C2699 C2700 1.366 . S
C2699 C2701 1.388 . S
C2700 C2699 1.366 . S
C2700 C2704 1.385 . S
C2701 H2676 0.951 . S
C2701 C2699 1.388 . S
C2701 C2702 1.366 . S
C2702 C2701 1.366 . S
C2702 C2703 1.414 . S
C2702 C2705 1.499 . S
C2703 H2677 0.950 . S
C2703 C2702 1.414 . S
C2703 C2704 1.374 . S
C2704 H2678 0.950 . S
C2704 C2700 1.385 . S
C2704 C2703 1.374 . S
C2705 C2702 1.499 . S
C2705 C2706 1.373 . S
C2705 C2707 1.389 . S
C2706 H2679 0.950 . S
C2706 C2692 1.377 1_455 S
C2706 C2705 1.373 . S
C2707 C2691 1.377 1_455 S
C2707 C2705 1.389 . S
C2707 C2708 1.524 . S
C2708 C2707 1.524 . S
C2708 C2709 1.397 . S
C2708 C2713 1.363 . S
C2709 H2680 0.950 . S
C2709 C2708 1.397 . S
C2709 C2710 1.334 . S
C2710 H2681 0.950 . S
C2710 C2709 1.334 . S
C2710 C2711 1.287 . S
C2711 C2710 1.287 . S
C2711 C2712 1.524 . S
C2711 H2714 0.999 . S
C2712 H2682 0.950 . S
C2712 C2711 1.524 . S
C2712 C2713 1.415 . S
C2713 H2683 0.950 . S
C2713 C2708 1.363 . S
C2713 C2712 1.415 . S
H2714 C2711 0.999 . S
H2715 C2696 0.913 . S
H2716 C2734 0.951 . S
H2717 C2736 0.951 . S
H2718 C2738 0.950 . S
H2719 C2739 0.950 . S
H2720 C2741 0.950 . S
H2721 C2744 0.950 . S
H2722 C2745 0.950 . S
H2723 C2747 0.950 . S
H2724 C2748 0.950 . S
H2725 C2749 0.951 . S
H2726 C2751 0.951 . S
H2727 C2753 0.950 . S
H2728 C2754 0.950 . S
H2729 C2756 0.950 . S
H2730 C2759 0.950 . S
H2731 C2760 0.950 . S
H2732 C2762 0.950 . S
H2733 C2763 0.950 . S
C2734 H2716 0.951 . S
C2734 C2735 1.366 . S
C2734 C2736 1.388 . S
C2735 C2734 1.366 . S
C2735 C2739 1.385 . S
C2736 H2717 0.951 . S
C2736 C2734 1.388 . S
C2736 C2737 1.366 . S
C2737 C2736 1.366 . S
C2737 C2738 1.414 . S
C2737 C2740 1.499 . S
C2738 H2718 0.950 . S
C2738 C2737 1.414 . S
C2738 C2739 1.374 . S
C2739 H2719 0.950 . S
C2739 C2735 1.385 . S
C2739 C2738 1.374 . S
C2740 C2737 1.499 . S
C2740 C2741 1.373 . S
C2740 C2742 1.389 . S
C2741 H2720 0.950 . S
C2741 C2740 1.373 . S
C2741 C2757 1.377 1_655 S
C2742 C2740 1.389 . S
C2742 C2743 1.524 . S
C2742 C2756 1.377 1_655 S
C2743 C2742 1.524 . S
C2743 C2744 1.397 . S
C2743 C2748 1.363 . S
C2744 H2721 0.950 . S
C2744 C2743 1.397 . S
C2744 C2745 1.334 . S
C2745 H2722 0.950 . S
C2745 C2744 1.334 . S
C2745 C2746 1.287 . S
C2746 C2745 1.287 . S
C2746 C2747 1.524 . S
C2746 H2765 0.913 . S
C2747 H2723 0.950 . S
C2747 C2746 1.524 . S
C2747 C2748 1.415 . S
C2748 H2724 0.950 . S
C2748 C2743 1.363 . S
C2748 C2747 1.415 . S
C2749 H2725 0.951 . S
C2749 C2750 1.366 . S
C2749 C2751 1.388 . S
C2750 C2749 1.366 . S
C2750 C2754 1.385 . S
C2751 H2726 0.951 . S
C2751 C2749 1.388 . S
C2751 C2752 1.366 . S
C2752 C2751 1.366 . S
C2752 C2753 1.414 . S
C2752 C2755 1.499 . S
C2753 H2727 0.950 . S
C2753 C2752 1.414 . S
C2753 C2754 1.374 . S
C2754 H2728 0.950 . S
C2754 C2750 1.385 . S
C2754 C2753 1.374 . S
C2755 C2752 1.499 . S
C2755 C2756 1.373 . S
C2755 C2757 1.389 . S
C2756 H2729 0.950 . S
C2756 C2742 1.377 1_455 S
C2756 C2755 1.373 . S
C2757 C2741 1.377 1_455 S
C2757 C2755 1.389 . S
C2757 C2758 1.524 . S
C2758 C2757 1.524 . S
C2758 C2759 1.397 . S
C2758 C2763 1.363 . S
C2759 H2730 0.950 . S
C2759 C2758 1.397 . S
C2759 C2760 1.334 . S
C2760 H2731 0.950 . S
C2760 C2759 1.334 . S
C2760 C2761 1.287 . S
C2761 C2760 1.287 . S
C2761 C2762 1.524 . S
C2761 H2764 0.999 . S
C2762 H2732 0.950 . S
C2762 C2761 1.524 . S
C2762 C2763 1.415 . S
C2763 H2733 0.950 . S
C2763 C2758 1.363 . S
C2763 C2762 1.415 . S
H2764 C2761 0.999 . S
H2765 C2746 0.913 . S
H2766 C2784 0.951 . S
H2767 C2786 0.951 . S
H2768 C2788 0.950 . S
H2769 C2789 0.950 . S
H2770 C2791 0.950 . S
H2771 C2794 0.950 . S
H2772 C2795 0.950 . S
H2773 C2797 0.950 . S
H2774 C2798 0.950 . S
H2775 C2799 0.951 . S
H2776 C2801 0.951 . S
H2777 C2803 0.950 . S
H2778 C2804 0.950 . S
H2779 C2806 0.950 . S
H2780 C2809 0.950 . S
H2781 C2810 0.950 . S
H2782 C2812 0.950 . S
H2783 C2813 0.950 . S
C2784 H2766 0.951 . S
C2784 C2785 1.366 . S
C2784 C2786 1.388 . S
C2785 C2784 1.366 . S
C2785 C2789 1.385 . S
C2786 H2767 0.951 . S
C2786 C2784 1.388 . S
C2786 C2787 1.366 . S
C2787 C2786 1.366 . S
C2787 C2788 1.414 . S
C2787 C2790 1.499 . S
C2788 H2768 0.950 . S
C2788 C2787 1.414 . S
C2788 C2789 1.374 . S
C2789 H2769 0.950 . S
C2789 C2785 1.385 . S
C2789 C2788 1.374 . S
C2790 C2787 1.499 . S
C2790 C2791 1.373 . S
C2790 C2792 1.389 . S
C2791 H2770 0.950 . S
C2791 C2790 1.373 . S
C2791 C2807 1.377 . S
C2792 C2790 1.389 . S
C2792 C2793 1.524 . S
C2792 C2806 1.377 . S
C2793 C2792 1.524 . S
C2793 C2794 1.397 . S
C2793 C2798 1.363 . S
C2794 H2771 0.950 . S
C2794 C2793 1.397 . S
C2794 C2795 1.334 1_554 S
C2795 H2772 0.950 . S
C2795 C2794 1.334 1_556 S
C2795 C2796 1.287 . S
C2796 C2795 1.287 . S
C2796 C2797 1.524 1_556 S
C2796 H2815 0.913 . S
C2797 H2773 0.950 . S
C2797 C2796 1.524 1_554 S
C2797 C2798 1.415 . S
C2798 H2774 0.950 . S
C2798 C2793 1.363 . S
C2798 C2797 1.415 . S
C2799 H2775 0.951 . S
C2799 C2800 1.366 . S
C2799 C2801 1.388 . S
C2800 C2799 1.366 . S
C2800 C2804 1.385 . S
C2801 H2776 0.951 . S
C2801 C2799 1.388 . S
C2801 C2802 1.366 . S
C2802 C2801 1.366 . S
C2802 C2803 1.414 . S
C2802 C2805 1.499 . S
C2803 H2777 0.950 . S
C2803 C2802 1.414 . S
C2803 C2804 1.374 . S
C2804 H2778 0.950 . S
C2804 C2800 1.385 . S
C2804 C2803 1.374 . S
C2805 C2802 1.499 . S
C2805 C2806 1.373 . S
C2805 C2807 1.389 . S
C2806 H2779 0.950 . S
C2806 C2792 1.377 . S
C2806 C2805 1.373 . S
C2807 C2791 1.377 . S
C2807 C2805 1.389 . S
C2807 C2808 1.524 . S
C2808 C2807 1.524 . S
C2808 C2809 1.397 . S
C2808 C2813 1.363 . S
C2809 H2780 0.950 . S
C2809 C2808 1.397 . S
C2809 C2810 1.334 . S
C2810 H2781 0.950 . S
C2810 C2809 1.334 . S
C2810 C2811 1.287 . S
C2811 C2810 1.287 . S
C2811 C2812 1.524 . S
C2811 H2814 0.999 . S
C2812 H2782 0.950 . S
C2812 C2811 1.524 . S
C2812 C2813 1.415 . S
C2813 H2783 0.950 . S
C2813 C2808 1.363 . S
C2813 C2812 1.415 . S
H2814 C2811 0.999 . S
H2815 C2796 0.913 . S
H2816 C2834 0.951 . S
H2817 C2836 0.951 . S
H2818 C2838 0.950 . S
H2819 C2839 0.950 . S
H2820 C2841 0.950 . S
H2821 C2844 0.950 . S
H2822 C2845 0.950 . S
H2823 C2847 0.950 . S
H2824 C2848 0.950 . S
H2825 C2849 0.951 . S
H2826 C2851 0.951 . S
H2827 C2853 0.950 . S
H2828 C2854 0.950 . S
H2829 C2856 0.950 . S
H2830 C2859 0.950 . S
H2831 C2860 0.950 . S
H2832 C2862 0.950 . S
H2833 C2863 0.950 . S
C2834 H2816 0.951 . S
C2834 C2835 1.366 . S
C2834 C2836 1.388 . S
C2835 C2834 1.366 . S
C2835 C2839 1.385 . S
C2836 H2817 0.951 . S
C2836 C2834 1.388 . S
C2836 C2837 1.366 . S
C2837 C2836 1.366 . S
C2837 C2838 1.414 . S
C2837 C2840 1.499 . S
C2838 H2818 0.950 . S
C2838 C2837 1.414 . S
C2838 C2839 1.374 . S
C2839 H2819 0.950 . S
C2839 C2835 1.385 . S
C2839 C2838 1.374 . S
C2840 C2837 1.499 . S
C2840 C2841 1.373 . S
C2840 C2842 1.389 . S
C2841 H2820 0.950 . S
C2841 C2840 1.373 . S
C2841 C2857 1.377 . S
C2842 C2840 1.389 . S
C2842 C2843 1.524 . S
C2842 C2856 1.377 . S
C2843 C2842 1.524 . S
C2843 C2844 1.397 . S
C2843 C2848 1.363 . S
C2844 H2821 0.950 . S
C2844 C2843 1.397 . S
C2844 C2845 1.334 . S
C2845 H2822 0.950 . S
C2845 C2844 1.334 . S
C2845 C2846 1.287 . S
C2846 C2845 1.287 . S
C2846 C2847 1.524 . S
C2846 H2865 0.913 . S
C2847 H2823 0.950 . S
C2847 C2846 1.524 . S
C2847 C2848 1.415 . S
C2848 H2824 0.950 . S
C2848 C2843 1.363 . S
C2848 C2847 1.415 . S
C2849 H2825 0.951 . S
C2849 C2850 1.366 . S
C2849 C2851 1.388 . S
C2850 C2849 1.366 . S
C2850 C2854 1.385 . S
C2851 H2826 0.951 . S
C2851 C2849 1.388 . S
C2851 C2852 1.366 . S
C2852 C2851 1.366 . S
C2852 C2853 1.414 . S
C2852 C2855 1.499 . S
C2853 H2827 0.950 . S
C2853 C2852 1.414 . S
C2853 C2854 1.374 . S
C2854 H2828 0.950 . S
C2854 C2850 1.385 . S
C2854 C2853 1.374 . S
C2855 C2852 1.499 . S
C2855 C2856 1.373 . S
C2855 C2857 1.389 . S
C2856 H2829 0.950 . S
C2856 C2842 1.377 . S
C2856 C2855 1.373 . S
C2857 C2841 1.377 . S
C2857 C2855 1.389 . S
C2857 C2858 1.524 . S
C2858 C2857 1.524 . S
C2858 C2859 1.397 . S
C2858 C2863 1.363 . S
C2859 H2830 0.950 . S
C2859 C2858 1.397 . S
C2859 C2860 1.334 . S
C2860 H2831 0.950 . S
C2860 C2859 1.334 . S
C2860 C2861 1.287 . S
C2861 C2860 1.287 . S
C2861 C2862 1.524 . S
C2861 H2864 0.999 . S
C2862 H2832 0.950 . S
C2862 C2861 1.524 . S
C2862 C2863 1.415 . S
C2863 H2833 0.950 . S
C2863 C2858 1.363 . S
C2863 C2862 1.415 . S
H2864 C2861 0.999 . S
H2865 C2846 0.913 . S
H2866 C2884 0.951 . S
H2867 C2886 0.951 . S
H2868 C2888 0.950 . S
H2869 C2889 0.950 . S
H2870 C2891 0.950 . S
H2871 C2894 0.950 . S
H2872 C2895 0.950 . S
H2873 C2897 0.950 . S
H2874 C2898 0.950 . S
H2875 C2899 0.951 . S
H2876 C2901 0.951 . S
H2877 C2903 0.950 . S
H2878 C2904 0.950 . S
H2879 C2906 0.950 . S
H2880 C2909 0.950 . S
H2881 C2910 0.950 . S
H2882 C2912 0.950 . S
H2883 C2913 0.950 . S
C2884 H2866 0.951 . S
C2884 C2885 1.366 . S
C2884 C2886 1.388 . S
C2885 C2884 1.366 . S
C2885 C2889 1.385 . S
C2886 H2867 0.951 . S
C2886 C2884 1.388 . S
C2886 C2887 1.366 . S
C2887 C2886 1.366 . S
C2887 C2888 1.414 . S
C2887 C2890 1.499 . S
C2888 H2868 0.950 . S
C2888 C2887 1.414 . S
C2888 C2889 1.374 . S
C2889 H2869 0.950 . S
C2889 C2885 1.385 . S
C2889 C2888 1.374 . S
C2890 C2887 1.499 . S
C2890 C2891 1.373 . S
C2890 C2892 1.389 . S
C2891 H2870 0.950 . S
C2891 C2890 1.373 . S
C2891 C2907 1.377 . S
C2892 C2890 1.389 . S
C2892 C2893 1.524 . S
C2892 C2906 1.377 . S
C2893 C2892 1.524 . S
C2893 C2894 1.397 . S
C2893 C2898 1.363 . S
C2894 H2871 0.950 . S
C2894 C2893 1.397 . S
C2894 C2895 1.334 . S
C2895 H2872 0.950 . S
C2895 C2894 1.334 . S
C2895 C2896 1.287 . S
C2896 C2895 1.287 . S
C2896 C2897 1.524 . S
C2896 H2915 0.913 . S
C2897 H2873 0.950 . S
C2897 C2896 1.524 . S
C2897 C2898 1.415 . S
C2898 H2874 0.950 . S
C2898 C2893 1.363 . S
C2898 C2897 1.415 . S
C2899 H2875 0.951 . S
C2899 C2900 1.366 . S
C2899 C2901 1.388 . S
C2900 C2899 1.366 . S
C2900 C2904 1.385 . S
C2901 H2876 0.951 . S
C2901 C2899 1.388 . S
C2901 C2902 1.366 . S
C2902 C2901 1.366 . S
C2902 C2903 1.414 . S
C2902 C2905 1.499 . S
C2903 H2877 0.950 . S
C2903 C2902 1.414 . S
C2903 C2904 1.374 . S
C2904 H2878 0.950 . S
C2904 C2900 1.385 . S
C2904 C2903 1.374 . S
C2905 C2902 1.499 . S
C2905 C2906 1.373 . S
C2905 C2907 1.389 . S
C2906 H2879 0.950 . S
C2906 C2892 1.377 . S
C2906 C2905 1.373 . S
C2907 C2891 1.377 . S
C2907 C2905 1.389 . S
C2907 C2908 1.524 . S
C2908 C2907 1.524 . S
C2908 C2909 1.397 . S
C2908 C2913 1.363 . S
C2909 H2880 0.950 . S
C2909 C2908 1.397 . S
C2909 C2910 1.334 . S
C2910 H2881 0.950 . S
C2910 C2909 1.334 . S
C2910 C2911 1.287 . S
C2911 C2910 1.287 . S
C2911 C2912 1.524 . S
C2911 H2914 0.999 . S
C2912 H2882 0.950 . S
C2912 C2911 1.524 . S
C2912 C2913 1.415 . S
C2913 H2883 0.950 . S
C2913 C2908 1.363 . S
C2913 C2912 1.415 . S
H2914 C2911 0.999 . S
H2915 C2896 0.913 . S
H2916 C2934 0.951 . S
H2917 C2936 0.951 . S
H2918 C2938 0.950 . S
H2919 C2939 0.950 . S
H2920 C2941 0.950 . S
H2921 C2944 0.950 . S
H2922 C2945 0.950 . S
H2923 C2947 0.950 . S
H2924 C2948 0.950 . S
H2925 C2949 0.951 . S
H2926 C2951 0.951 . S
H2927 C2953 0.950 . S
H2928 C2954 0.950 . S
H2929 C2956 0.950 . S
H2930 C2959 0.950 . S
H2931 C2960 0.950 . S
H2932 C2962 0.950 . S
H2933 C2963 0.950 . S
C2934 H2916 0.951 . S
C2934 C2935 1.366 1_556 S
C2934 C2936 1.388 . S
C2935 C2934 1.366 1_554 S
C2935 C2939 1.385 . S
C2936 H2917 0.951 . S
C2936 C2934 1.388 . S
C2936 C2937 1.366 . S
C2937 C2936 1.366 . S
C2937 C2938 1.414 . S
C2937 C2940 1.499 . S
C2938 H2918 0.950 . S
C2938 C2937 1.414 . S
C2938 C2939 1.374 1_556 S
C2939 H2919 0.950 . S
C2939 C2935 1.385 . S
C2939 C2938 1.374 1_554 S
C2940 C2937 1.499 . S
C2940 C2941 1.373 . S
C2940 C2942 1.389 . S
C2941 H2920 0.950 . S
C2941 C2940 1.373 . S
C2941 C2957 1.377 . S
C2942 C2940 1.389 . S
C2942 C2943 1.524 . S
C2942 C2956 1.377 . S
C2943 C2942 1.524 . S
C2943 C2944 1.397 . S
C2943 C2948 1.363 . S
C2944 H2921 0.950 . S
C2944 C2943 1.397 . S
C2944 C2945 1.334 . S
C2945 H2922 0.950 . S
C2945 C2944 1.334 . S
C2945 C2946 1.287 . S
C2946 C2945 1.287 . S
C2946 C2947 1.524 . S
C2946 H2965 0.913 . S
C2947 H2923 0.950 . S
C2947 C2946 1.524 . S
C2947 C2948 1.415 . S
C2948 H2924 0.950 . S
C2948 C2943 1.363 . S
C2948 C2947 1.415 . S
C2949 H2925 0.951 . S
C2949 C2950 1.366 . S
C2949 C2951 1.388 . S
C2950 C2949 1.366 . S
C2950 C2954 1.385 . S
C2951 H2926 0.951 . S
C2951 C2949 1.388 . S
C2951 C2952 1.366 . S
C2952 C2951 1.366 . S
C2952 C2953 1.414 . S
C2952 C2955 1.499 . S
C2953 H2927 0.950 . S
C2953 C2952 1.414 . S
C2953 C2954 1.374 . S
C2954 H2928 0.950 . S
C2954 C2950 1.385 . S
C2954 C2953 1.374 . S
C2955 C2952 1.499 . S
C2955 C2956 1.373 . S
C2955 C2957 1.389 . S
C2956 H2929 0.950 . S
C2956 C2942 1.377 . S
C2956 C2955 1.373 . S
C2957 C2941 1.377 . S
C2957 C2955 1.389 . S
C2957 C2958 1.524 . S
C2958 C2957 1.524 . S
C2958 C2959 1.397 . S
C2958 C2963 1.363 . S
C2959 H2930 0.950 . S
C2959 C2958 1.397 . S
C2959 C2960 1.334 . S
C2960 H2931 0.950 . S
C2960 C2959 1.334 . S
C2960 C2961 1.287 . S
C2961 C2960 1.287 . S
C2961 C2962 1.524 . S
C2961 H2964 0.999 . S
C2962 H2932 0.950 . S
C2962 C2961 1.524 . S
C2962 C2963 1.415 . S
C2963 H2933 0.950 . S
C2963 C2958 1.363 . S
C2963 C2962 1.415 . S
H2964 C2961 0.999 . S
H2965 C2946 0.913 . S
H2966 C2984 0.951 . S
H2967 C2986 0.951 . S
H2968 C2988 0.950 . S
H2969 C2989 0.950 . S
H2970 C2991 0.950 . S
H2971 C2994 0.950 . S
H2972 C2995 0.950 . S
H2973 C2997 0.950 . S
H2974 C2998 0.950 . S
H2975 C2999 0.951 . S
H2976 C3001 0.951 . S
H2977 C3003 0.950 . S
H2978 C3004 0.950 . S
H2979 C3006 0.950 . S
H2980 C3009 0.950 . S
H2981 C3010 0.950 . S
H2982 C3012 0.950 . S
H2983 C3013 0.950 . S
C2984 H2966 0.951 . S
C2984 C2985 1.366 . S
C2984 C2986 1.388 1_556 S
C2985 C2984 1.366 . S
C2985 C2989 1.385 1_556 S
C2986 H2967 0.951 . S
C2986 C2984 1.388 1_554 S
C2986 C2987 1.366 . S
C2987 C2986 1.366 . S
C2987 C2988 1.414 . S
C2987 C2990 1.499 . S
C2988 H2968 0.950 . S
C2988 C2987 1.414 . S
C2988 C2989 1.374 . S
C2989 H2969 0.950 . S
C2989 C2985 1.385 1_554 S
C2989 C2988 1.374 . S
C2990 C2987 1.499 . S
C2990 C2991 1.373 . S
C2990 C2992 1.389 . S
C2991 H2970 0.950 . S
C2991 C2990 1.373 . S
C2991 C3007 1.377 . S
C2992 C2990 1.389 . S
C2992 C2993 1.524 . S
C2992 C3006 1.377 . S
C2993 C2992 1.524 . S
C2993 C2994 1.397 . S
C2993 C2998 1.363 . S
C2994 H2971 0.950 . S
C2994 C2993 1.397 . S
C2994 C2995 1.334 1_554 S
C2995 H2972 0.950 . S
C2995 C2994 1.334 1_556 S
C2995 C2996 1.287 . S
C2996 C2995 1.287 . S
C2996 C2997 1.524 . S
C2996 H3015 0.913 . S
C2997 H2973 0.950 . S
C2997 C2996 1.524 . S
C2997 C2998 1.415 1_556 S
C2998 H2974 0.950 . S
C2998 C2993 1.363 . S
C2998 C2997 1.415 1_554 S
C2999 H2975 0.951 . S
C2999 C3000 1.366 . S
C2999 C3001 1.388 . S
C3000 C2999 1.366 . S
C3000 C3004 1.385 . S
C3001 H2976 0.951 . S
C3001 C2999 1.388 . S
C3001 C3002 1.366 . S
C3002 C3001 1.366 . S
C3002 C3003 1.414 . S
C3002 C3005 1.499 . S
C3003 H2977 0.950 . S
C3003 C3002 1.414 . S
C3003 C3004 1.374 . S
C3004 H2978 0.950 . S
C3004 C3000 1.385 . S
C3004 C3003 1.374 . S
C3005 C3002 1.499 . S
C3005 C3006 1.373 . S
C3005 C3007 1.389 . S
C3006 H2979 0.950 . S
C3006 C2992 1.377 . S
C3006 C3005 1.373 . S
C3007 C2991 1.377 . S
C3007 C3005 1.389 . S
C3007 C3008 1.524 . S
C3008 C3007 1.524 . S
C3008 C3009 1.397 . S
C3008 C3013 1.363 . S
C3009 H2980 0.950 . S
C3009 C3008 1.397 . S
C3009 C3010 1.334 . S
C3010 H2981 0.950 . S
C3010 C3009 1.334 . S
C3010 C3011 1.287 . S
C3011 C3010 1.287 . S
C3011 C3012 1.524 . S
C3011 H3014 0.999 . S
C3012 H2982 0.950 . S
C3012 C3011 1.524 . S
C3012 C3013 1.415 . S
C3013 H2983 0.950 . S
C3013 C3008 1.363 . S
C3013 C3012 1.415 . S
H3014 C3011 0.999 . S
H3015 C2996 0.913 . S
H3016 C3034 0.951 . S
H3017 C3036 0.951 . S
H3018 C3038 0.950 . S
H3019 C3039 0.950 . S
H3020 C3041 0.950 . S
H3021 C3044 0.950 . S
H3022 C3045 0.950 . S
H3023 C3047 0.950 . S
H3024 C3048 0.950 . S
H3025 C3049 0.951 . S
H3026 C3051 0.951 . S
H3027 C3053 0.950 . S
H3028 C3054 0.950 . S
H3029 C3056 0.950 . S
H3030 C3059 0.950 . S
H3031 C3060 0.950 . S
H3032 C3062 0.950 . S
H3033 C3063 0.950 . S
C3034 H3016 0.951 . S
C3034 C3035 1.366 . S
C3034 C3036 1.388 . S
C3035 C3034 1.366 . S
C3035 C3039 1.385 . S
C3036 H3017 0.951 . S
C3036 C3034 1.388 . S
C3036 C3037 1.366 . S
C3037 C3036 1.366 . S
C3037 C3038 1.414 . S
C3037 C3040 1.499 . S
C3038 H3018 0.950 . S
C3038 C3037 1.414 . S
C3038 C3039 1.374 . S
C3039 H3019 0.950 . S
C3039 C3035 1.385 . S
C3039 C3038 1.374 . S
C3040 C3037 1.499 . S
C3040 C3041 1.373 . S
C3040 C3042 1.389 . S
C3041 H3020 0.950 . S
C3041 C3040 1.373 . S
C3041 C3057 1.377 . S
C3042 C3040 1.389 . S
C3042 C3043 1.524 . S
C3042 C3056 1.377 . S
C3043 C3042 1.524 . S
C3043 C3044 1.397 . S
C3043 C3048 1.363 . S
C3044 H3021 0.950 . S
C3044 C3043 1.397 . S
C3044 C3045 1.334 . S
C3045 H3022 0.950 . S
C3045 C3044 1.334 . S
C3045 C3046 1.287 . S
C3046 C3045 1.287 . S
C3046 C3047 1.524 . S
C3046 H3065 0.913 . S
C3047 H3023 0.950 . S
C3047 C3046 1.524 . S
C3047 C3048 1.415 . S
C3048 H3024 0.950 . S
C3048 C3043 1.363 . S
C3048 C3047 1.415 . S
C3049 H3025 0.951 . S
C3049 C3050 1.366 . S
C3049 C3051 1.388 . S
C3050 C3049 1.366 . S
C3050 C3054 1.385 . S
C3051 H3026 0.951 . S
C3051 C3049 1.388 . S
C3051 C3052 1.366 . S
C3052 C3051 1.366 . S
C3052 C3053 1.414 . S
C3052 C3055 1.499 . S
C3053 H3027 0.950 . S
C3053 C3052 1.414 . S
C3053 C3054 1.374 . S
C3054 H3028 0.950 . S
C3054 C3050 1.385 . S
C3054 C3053 1.374 . S
C3055 C3052 1.499 . S
C3055 C3056 1.373 . S
C3055 C3057 1.389 . S
C3056 H3029 0.950 . S
C3056 C3042 1.377 . S
C3056 C3055 1.373 . S
C3057 C3041 1.377 . S
C3057 C3055 1.389 . S
C3057 C3058 1.524 . S
C3058 C3057 1.524 . S
C3058 C3059 1.397 . S
C3058 C3063 1.363 . S
C3059 H3030 0.950 . S
C3059 C3058 1.397 . S
C3059 C3060 1.334 . S
C3060 H3031 0.950 . S
C3060 C3059 1.334 . S
C3060 C3061 1.287 . S
C3061 C3060 1.287 . S
C3061 C3062 1.524 . S
C3061 H3064 0.999 . S
C3062 H3032 0.950 . S
C3062 C3061 1.524 . S
C3062 C3063 1.415 . S
C3063 H3033 0.950 . S
C3063 C3058 1.363 . S
C3063 C3062 1.415 . S
H3064 C3061 0.999 . S
H3065 C3046 0.913 . S
H3066 C3084 0.951 . S
H3067 C3086 0.951 . S
H3068 C3088 0.950 . S
H3069 C3089 0.950 . S
H3070 C3091 0.950 . S
H3071 C3094 0.950 . S
H3072 C3095 0.950 . S
H3073 C3097 0.950 . S
H3074 C3098 0.950 . S
H3075 C3099 0.951 . S
H3076 C3101 0.951 . S
H3077 C3103 0.950 . S
H3078 C3104 0.950 . S
H3079 C3106 0.950 . S
H3080 C3109 0.950 . S
H3081 C3110 0.950 . S
H3082 C3112 0.950 . S
H3083 C3113 0.950 . S
C3084 H3066 0.951 . S
C3084 C3085 1.366 . S
C3084 C3086 1.388 . S
C3085 C3084 1.366 . S
C3085 C3089 1.385 . S
C3086 H3067 0.951 . S
C3086 C3084 1.388 . S
C3086 C3087 1.366 . S
C3087 C3086 1.366 . S
C3087 C3088 1.414 . S
C3087 C3090 1.499 . S
C3088 H3068 0.950 . S
C3088 C3087 1.414 . S
C3088 C3089 1.374 . S
C3089 H3069 0.950 . S
C3089 C3085 1.385 . S
C3089 C3088 1.374 . S
C3090 C3087 1.499 . S
C3090 C3091 1.373 . S
C3090 C3092 1.389 . S
C3091 H3070 0.950 . S
C3091 C3090 1.373 . S
C3091 C3107 1.377 . S
C3092 C3090 1.389 . S
C3092 C3093 1.524 . S
C3092 C3106 1.377 . S
C3093 C3092 1.524 . S
C3093 C3094 1.397 . S
C3093 C3098 1.363 . S
C3094 H3071 0.950 . S
C3094 C3093 1.397 . S
C3094 C3095 1.334 . S
C3095 H3072 0.950 . S
C3095 C3094 1.334 . S
C3095 C3096 1.287 . S
C3096 C3095 1.287 . S
C3096 C3097 1.524 . S
C3096 H3115 0.913 . S
C3097 H3073 0.950 . S
C3097 C3096 1.524 . S
C3097 C3098 1.415 . S
C3098 H3074 0.950 . S
C3098 C3093 1.363 . S
C3098 C3097 1.415 . S
C3099 H3075 0.951 . S
C3099 C3100 1.366 . S
C3099 C3101 1.388 . S
C3100 C3099 1.366 . S
C3100 C3104 1.385 . S
C3101 H3076 0.951 . S
C3101 C3099 1.388 . S
C3101 C3102 1.366 . S
C3102 C3101 1.366 . S
C3102 C3103 1.414 . S
C3102 C3105 1.499 . S
C3103 H3077 0.950 . S
C3103 C3102 1.414 . S
C3103 C3104 1.374 . S
C3104 H3078 0.950 . S
C3104 C3100 1.385 . S
C3104 C3103 1.374 . S
C3105 C3102 1.499 . S
C3105 C3106 1.373 . S
C3105 C3107 1.389 . S
C3106 H3079 0.950 . S
C3106 C3092 1.377 . S
C3106 C3105 1.373 . S
C3107 C3091 1.377 . S
C3107 C3105 1.389 . S
C3107 C3108 1.524 . S
C3108 C3107 1.524 . S
C3108 C3109 1.397 . S
C3108 C3113 1.363 . S
C3109 H3080 0.950 . S
C3109 C3108 1.397 . S
C3109 C3110 1.334 . S
C3110 H3081 0.950 . S
C3110 C3109 1.334 . S
C3110 C3111 1.287 . S
C3111 C3110 1.287 . S
C3111 C3112 1.524 . S
C3111 H3114 0.999 . S
C3112 H3082 0.950 . S
C3112 C3111 1.524 . S
C3112 C3113 1.415 . S
C3113 H3083 0.950 . S
C3113 C3108 1.363 . S
C3113 C3112 1.415 . S
H3114 C3111 0.999 . S
H3115 C3096 0.913 . S
H3116 C3134 0.951 . S
H3117 C3136 0.951 . S
H3118 C3138 0.950 . S
H3119 C3139 0.950 . S
H3120 C3141 0.950 . S
H3121 C3144 0.950 . S
H3122 C3145 0.950 . S
H3123 C3147 0.950 . S
H3124 C3148 0.950 . S
H3125 C3149 0.951 . S
H3126 C3151 0.951 . S
H3127 C3153 0.950 . S
H3128 C3154 0.950 . S
H3129 C3156 0.950 . S
H3130 C3159 0.950 . S
H3131 C3160 0.950 . S
H3132 C3162 0.950 . S
H3133 C3163 0.950 . S
C3134 H3116 0.951 . S
C3134 C3135 1.366 . S
C3134 C3136 1.388 . S
C3135 C3134 1.366 . S
C3135 C3139 1.385 . S
C3136 H3117 0.951 . S
C3136 C3134 1.388 . S
C3136 C3137 1.366 . S
C3137 C3136 1.366 . S
C3137 C3138 1.414 . S
C3137 C3140 1.499 . S
C3138 H3118 0.950 . S
C3138 C3137 1.414 . S
C3138 C3139 1.374 . S
C3139 H3119 0.950 . S
C3139 C3135 1.385 . S
C3139 C3138 1.374 . S
C3140 C3137 1.499 . S
C3140 C3141 1.373 . S
C3140 C3142 1.389 . S
C3141 H3120 0.950 . S
C3141 C3140 1.373 . S
C3141 C3157 1.377 . S
C3142 C3140 1.389 . S
C3142 C3143 1.524 . S
C3142 C3156 1.377 . S
C3143 C3142 1.524 . S
C3143 C3144 1.397 . S
C3143 C3148 1.363 . S
C3144 H3121 0.950 . S
C3144 C3143 1.397 . S
C3144 C3145 1.334 . S
C3145 H3122 0.950 . S
C3145 C3144 1.334 . S
C3145 C3146 1.287 . S
C3146 C3145 1.287 . S
C3146 C3147 1.524 . S
C3146 H3165 0.913 . S
C3147 H3123 0.950 . S
C3147 C3146 1.524 . S
C3147 C3148 1.415 . S
C3148 H3124 0.950 . S
C3148 C3143 1.363 . S
C3148 C3147 1.415 . S
C3149 H3125 0.951 . S
C3149 C3150 1.366 1_554 S
C3149 C3151 1.388 . S
C3150 C3149 1.366 1_556 S
C3150 C3154 1.385 . S
C3151 H3126 0.951 . S
C3151 C3149 1.388 . S
C3151 C3152 1.366 . S
C3152 C3151 1.366 . S
C3152 C3153 1.414 . S
C3152 C3155 1.499 . S
C3153 H3127 0.950 . S
C3153 C3152 1.414 . S
C3153 C3154 1.374 1_554 S
C3154 H3128 0.950 . S
C3154 C3150 1.385 . S
C3154 C3153 1.374 1_556 S
C3155 C3152 1.499 . S
C3155 C3156 1.373 . S
C3155 C3157 1.389 . S
C3156 H3129 0.950 . S
C3156 C3142 1.377 . S
C3156 C3155 1.373 . S
C3157 C3141 1.377 . S
C3157 C3155 1.389 . S
C3157 C3158 1.524 . S
C3158 C3157 1.524 . S
C3158 C3159 1.397 . S
C3158 C3163 1.363 . S
C3159 H3130 0.950 . S
C3159 C3158 1.397 . S
C3159 C3160 1.334 . S
C3160 H3131 0.950 . S
C3160 C3159 1.334 . S
C3160 C3161 1.287 . S
C3161 C3160 1.287 . S
C3161 C3162 1.524 . S
C3161 H3164 0.999 . S
C3162 H3132 0.950 . S
C3162 C3161 1.524 . S
C3162 C3163 1.415 . S
C3163 H3133 0.950 . S
C3163 C3158 1.363 . S
C3163 C3162 1.415 . S
H3164 C3161 0.999 . S
H3165 C3146 0.913 . S
H3166 C3184 0.951 . S
H3167 C3186 0.951 . S
H3168 C3188 0.950 . S
H3169 C3189 0.950 . S
H3170 C3191 0.950 . S
H3171 C3194 0.950 . S
H3172 C3195 0.950 . S
H3173 C3197 0.950 . S
H3174 C3198 0.950 . S
H3175 C3199 0.951 . S
H3176 C3201 0.951 . S
H3177 C3203 0.950 . S
H3178 C3204 0.950 . S
H3179 C3206 0.950 . S
H3180 C3209 0.950 . S
H3181 C3210 0.950 . S
H3182 C3212 0.950 . S
H3183 C3213 0.950 . S
C3184 H3166 0.951 . S
C3184 C3185 1.366 . S
C3184 C3186 1.388 . S
C3185 C3184 1.366 . S
C3185 C3189 1.385 . S
C3186 H3167 0.951 . S
C3186 C3184 1.388 . S
C3186 C3187 1.366 . S
C3187 C3186 1.366 . S
C3187 C3188 1.414 . S
C3187 C3190 1.499 . S
C3188 H3168 0.950 . S
C3188 C3187 1.414 . S
C3188 C3189 1.374 . S
C3189 H3169 0.950 . S
C3189 C3185 1.385 . S
C3189 C3188 1.374 . S
C3190 C3187 1.499 . S
C3190 C3191 1.373 . S
C3190 C3192 1.389 . S
C3191 H3170 0.950 . S
C3191 C3190 1.373 . S
C3191 C3207 1.377 . S
C3192 C3190 1.389 . S
C3192 C3193 1.524 . S
C3192 C3206 1.377 . S
C3193 C3192 1.524 . S
C3193 C3194 1.397 . S
C3193 C3198 1.363 . S
C3194 H3171 0.950 . S
C3194 C3193 1.397 . S
C3194 C3195 1.334 . S
C3195 H3172 0.950 . S
C3195 C3194 1.334 . S
C3195 C3196 1.287 . S
C3196 C3195 1.287 . S
C3196 C3197 1.524 . S
C3196 H3215 0.913 . S
C3197 H3173 0.950 . S
C3197 C3196 1.524 . S
C3197 C3198 1.415 . S
C3198 H3174 0.950 . S
C3198 C3193 1.363 . S
C3198 C3197 1.415 . S
C3199 H3175 0.951 . S
C3199 C3200 1.366 1_556 S
C3199 C3201 1.388 . S
C3200 C3199 1.366 1_554 S
C3200 C3204 1.385 . S
C3201 H3176 0.951 . S
C3201 C3199 1.388 . S
C3201 C3202 1.366 . S
C3202 C3201 1.366 . S
C3202 C3203 1.414 . S
C3202 C3205 1.499 . S
C3203 H3177 0.950 . S
C3203 C3202 1.414 . S
C3203 C3204 1.374 1_556 S
C3204 H3178 0.950 . S
C3204 C3200 1.385 . S
C3204 C3203 1.374 1_554 S
C3205 C3202 1.499 . S
C3205 C3206 1.373 . S
C3205 C3207 1.389 . S
C3206 H3179 0.950 . S
C3206 C3192 1.377 . S
C3206 C3205 1.373 . S
C3207 C3191 1.377 . S
C3207 C3205 1.389 . S
C3207 C3208 1.524 . S
C3208 C3207 1.524 . S
C3208 C3209 1.397 . S
C3208 C3213 1.363 . S
C3209 H3180 0.950 . S
C3209 C3208 1.397 . S
C3209 C3210 1.334 . S
C3210 H3181 0.950 . S
C3210 C3209 1.334 . S
C3210 C3211 1.287 . S
C3211 C3210 1.287 . S
C3211 C3212 1.524 . S
C3211 H3214 0.999 . S
C3212 H3182 0.950 . S
C3212 C3211 1.524 . S
C3212 C3213 1.415 . S
C3213 H3183 0.950 . S
C3213 C3208 1.363 . S
C3213 C3212 1.415 . S
H3214 C3211 0.999 . S
H3215 C3196 0.913 . S
H3216 C3234 0.951 . S
H3217 C3236 0.951 . S
H3218 C3238 0.950 . S
H3219 C3239 0.950 . S
H3220 C3241 0.950 . S
H3221 C3244 0.950 . S
H3222 C3245 0.950 . S
H3223 C3247 0.950 . S
H3224 C3248 0.950 . S
H3225 C3249 0.951 . S
H3226 C3251 0.951 . S
H3227 C3253 0.950 . S
H3228 C3254 0.950 . S
H3229 C3256 0.950 . S
H3230 C3259 0.950 . S
H3231 C3260 0.950 . S
H3232 C3262 0.950 . S
H3233 C3263 0.950 . S
C3234 H3216 0.951 . S
C3234 C3235 1.366 . S
C3234 C3236 1.388 1_554 S
C3235 C3234 1.366 . S
C3235 C3239 1.385 1_554 S
C3236 H3217 0.951 . S
C3236 C3234 1.388 1_556 S
C3236 C3237 1.366 . S
C3237 C3236 1.366 . S
C3237 C3238 1.414 . S
C3237 C3240 1.499 . S
C3238 H3218 0.950 . S
C3238 C3237 1.414 . S
C3238 C3239 1.374 . S
C3239 H3219 0.950 . S
C3239 C3235 1.385 1_556 S
C3239 C3238 1.374 . S
C3240 C3237 1.499 . S
C3240 C3241 1.373 . S
C3240 C3242 1.389 . S
C3241 H3220 0.950 . S
C3241 C3240 1.373 . S
C3241 C3257 1.377 . S
C3242 C3240 1.389 . S
C3242 C3243 1.524 . S
C3242 C3256 1.377 . S
C3243 C3242 1.524 . S
C3243 C3244 1.397 . S
C3243 C3248 1.363 . S
C3244 H3221 0.950 . S
C3244 C3243 1.397 . S
C3244 C3245 1.334 . S
C3245 H3222 0.950 . S
C3245 C3244 1.334 . S
C3245 C3246 1.287 . S
C3246 C3245 1.287 . S
C3246 C3247 1.524 . S
C3246 H3265 0.913 . S
C3247 H3223 0.950 . S
C3247 C3246 1.524 . S
C3247 C3248 1.415 . S
C3248 H3224 0.950 . S
C3248 C3243 1.363 . S
C3248 C3247 1.415 . S
C3249 H3225 0.951 . S
C3249 C3250 1.366 . S
C3249 C3251 1.388 . S
C3250 C3249 1.366 . S
C3250 C3254 1.385 . S
C3251 H3226 0.951 . S
C3251 C3249 1.388 . S
C3251 C3252 1.366 . S
C3252 C3251 1.366 . S
C3252 C3253 1.414 . S
C3252 C3255 1.499 . S
C3253 H3227 0.950 . S
C3253 C3252 1.414 . S
C3253 C3254 1.374 . S
C3254 H3228 0.950 . S
C3254 C3250 1.385 . S
C3254 C3253 1.374 . S
C3255 C3252 1.499 . S
C3255 C3256 1.373 . S
C3255 C3257 1.389 . S
C3256 H3229 0.950 . S
C3256 C3242 1.377 . S
C3256 C3255 1.373 . S
C3257 C3241 1.377 . S
C3257 C3255 1.389 . S
C3257 C3258 1.524 . S
C3258 C3257 1.524 . S
C3258 C3259 1.397 . S
C3258 C3263 1.363 . S
C3259 H3230 0.950 . S
C3259 C3258 1.397 . S
C3259 C3260 1.334 . S
C3260 H3231 0.950 . S
C3260 C3259 1.334 . S
C3260 C3261 1.287 . S
C3261 C3260 1.287 . S
C3261 C3262 1.524 . S
C3261 H3264 0.999 . S
C3262 H3232 0.950 . S
C3262 C3261 1.524 . S
C3262 C3263 1.415 . S
C3263 H3233 0.950 . S
C3263 C3258 1.363 . S
C3263 C3262 1.415 . S
H3264 C3261 0.999 . S
H3265 C3246 0.913 . S
H3266 C3284 0.951 . S
H3267 C3286 0.951 . S
H3268 C3288 0.950 . S
H3269 C3289 0.950 . S
H3270 C3291 0.950 . S
H3271 C3294 0.950 . S
H3272 C3295 0.950 . S
H3273 C3297 0.950 . S
H3274 C3298 0.950 . S
H3275 C3299 0.951 . S
H3276 C3301 0.951 . S
H3277 C3303 0.950 . S
H3278 C3304 0.950 . S
H3279 C3306 0.950 . S
H3280 C3309 0.950 . S
H3281 C3310 0.950 . S
H3282 C3312 0.950 . S
H3283 C3313 0.950 . S
C3284 H3266 0.951 . S
C3284 C3285 1.366 . S
C3284 C3286 1.388 . S
C3285 C3284 1.366 . S
C3285 C3289 1.385 . S
C3286 H3267 0.951 . S
C3286 C3284 1.388 . S
C3286 C3287 1.366 . S
C3287 C3286 1.366 . S
C3287 C3288 1.414 . S
C3287 C3290 1.499 . S
C3288 H3268 0.950 . S
C3288 C3287 1.414 . S
C3288 C3289 1.374 . S
C3289 H3269 0.950 . S
C3289 C3285 1.385 . S
C3289 C3288 1.374 . S
C3290 C3287 1.499 . S
C3290 C3291 1.373 . S
C3290 C3292 1.389 . S
C3291 H3270 0.950 . S
C3291 C3290 1.373 . S
C3291 C3307 1.377 . S
C3292 C3290 1.389 . S
C3292 C3293 1.524 . S
C3292 C3306 1.377 . S
C3293 C3292 1.524 . S
C3293 C3294 1.397 . S
C3293 C3298 1.363 . S
C3294 H3271 0.950 . S
C3294 C3293 1.397 . S
C3294 C3295 1.334 . S
C3295 H3272 0.950 . S
C3295 C3294 1.334 . S
C3295 C3296 1.287 . S
C3296 C3295 1.287 . S
C3296 C3297 1.524 . S
C3296 H3315 0.913 . S
C3297 H3273 0.950 . S
C3297 C3296 1.524 . S
C3297 C3298 1.415 . S
C3298 H3274 0.950 . S
C3298 C3293 1.363 . S
C3298 C3297 1.415 . S
C3299 H3275 0.951 . S
C3299 C3300 1.366 . S
C3299 C3301 1.388 1_556 S
C3300 C3299 1.366 . S
C3300 C3304 1.385 1_556 S
C3301 H3276 0.951 . S
C3301 C3299 1.388 1_554 S
C3301 C3302 1.366 . S
C3302 C3301 1.366 . S
C3302 C3303 1.414 . S
C3302 C3305 1.499 . S
C3303 H3277 0.950 . S
C3303 C3302 1.414 . S
C3303 C3304 1.374 . S
C3304 H3278 0.950 . S
C3304 C3300 1.385 1_554 S
C3304 C3303 1.374 . S
C3305 C3302 1.499 . S
C3305 C3306 1.373 . S
C3305 C3307 1.389 . S
C3306 H3279 0.950 . S
C3306 C3292 1.377 . S
C3306 C3305 1.373 . S
C3307 C3291 1.377 . S
C3307 C3305 1.389 . S
C3307 C3308 1.524 . S
C3308 C3307 1.524 . S
C3308 C3309 1.397 . S
C3308 C3313 1.363 . S
C3309 H3280 0.950 . S
C3309 C3308 1.397 . S
C3309 C3310 1.334 1_554 S
C3310 H3281 0.950 . S
C3310 C3309 1.334 1_556 S
C3310 C3311 1.287 . S
C3311 C3310 1.287 . S
C3311 C3312 1.524 . S
C3311 H3314 0.999 . S
C3312 H3282 0.950 . S
C3312 C3311 1.524 . S
C3312 C3313 1.415 1_556 S
C3313 H3283 0.950 . S
C3313 C3308 1.363 . S
C3313 C3312 1.415 1_554 S
H3314 C3311 0.999 . S
H3315 C3296 0.913 . S
H3316 C3334 0.951 . S
H3317 C3336 0.951 . S
H3318 C3338 0.950 . S
H3319 C3339 0.950 . S
H3320 C3341 0.950 . S
H3321 C3344 0.950 . S
H3322 C3345 0.950 . S
H3323 C3347 0.950 . S
H3324 C3348 0.950 . S
H3325 C3349 0.951 . S
H3326 C3351 0.951 . S
H3327 C3353 0.950 . S
H3328 C3354 0.950 . S
H3329 C3356 0.950 . S
H3330 C3359 0.950 . S
H3331 C3360 0.950 . S
H3332 C3362 0.950 . S
H3333 C3363 0.950 . S
C3334 H3316 0.951 . S
C3334 C3335 1.366 . S
C3334 C3336 1.388 . S
C3335 C3334 1.366 . S
C3335 C3339 1.385 . S
C3336 H3317 0.951 . S
C3336 C3334 1.388 . S
C3336 C3337 1.366 . S
C3337 C3336 1.366 . S
C3337 C3338 1.414 . S
C3337 C3340 1.499 . S
C3338 H3318 0.950 . S
C3338 C3337 1.414 . S
C3338 C3339 1.374 . S
C3339 H3319 0.950 . S
C3339 C3335 1.385 . S
C3339 C3338 1.374 . S
C3340 C3337 1.499 . S
C3340 C3341 1.373 . S
C3340 C3342 1.389 . S
C3341 H3320 0.950 . S
C3341 C3340 1.373 . S
C3341 C3357 1.377 . S
C3342 C3340 1.389 . S
C3342 C3343 1.524 . S
C3342 C3356 1.377 . S
C3343 C3342 1.524 . S
C3343 C3344 1.397 . S
C3343 C3348 1.363 . S
C3344 H3321 0.950 . S
C3344 C3343 1.397 . S
C3344 C3345 1.334 . S
C3345 H3322 0.950 . S
C3345 C3344 1.334 . S
C3345 C3346 1.287 . S
C3346 C3345 1.287 . S
C3346 C3347 1.524 . S
C3346 H3365 0.913 . S
C3347 H3323 0.950 . S
C3347 C3346 1.524 . S
C3347 C3348 1.415 . S
C3348 H3324 0.950 . S
C3348 C3343 1.363 . S
C3348 C3347 1.415 . S
C3349 H3325 0.951 . S
C3349 C3350 1.366 . S
C3349 C3351 1.388 . S
C3350 C3349 1.366 . S
C3350 C3354 1.385 . S
C3351 H3326 0.951 . S
C3351 C3349 1.388 . S
C3351 C3352 1.366 . S
C3352 C3351 1.366 . S
C3352 C3353 1.414 . S
C3352 C3355 1.499 . S
C3353 H3327 0.950 . S
C3353 C3352 1.414 . S
C3353 C3354 1.374 . S
C3354 H3328 0.950 . S
C3354 C3350 1.385 . S
C3354 C3353 1.374 . S
C3355 C3352 1.499 . S
C3355 C3356 1.373 . S
C3355 C3357 1.389 . S
C3356 H3329 0.950 . S
C3356 C3342 1.377 . S
C3356 C3355 1.373 . S
C3357 C3341 1.377 . S
C3357 C3355 1.389 . S
C3357 C3358 1.524 . S
C3358 C3357 1.524 . S
C3358 C3359 1.397 . S
C3358 C3363 1.363 . S
C3359 H3330 0.950 . S
C3359 C3358 1.397 . S
C3359 C3360 1.334 . S
C3360 H3331 0.950 . S
C3360 C3359 1.334 . S
C3360 C3361 1.287 . S
C3361 C3360 1.287 . S
C3361 C3362 1.524 . S
C3361 H3364 0.999 . S
C3362 H3332 0.950 . S
C3362 C3361 1.524 . S
C3362 C3363 1.415 . S
C3363 H3333 0.950 . S
C3363 C3358 1.363 . S
C3363 C3362 1.415 . S
H3364 C3361 0.999 . S
H3365 C3346 0.913 . S
H3366 C3384 0.951 . S
H3367 C3386 0.951 . S
H3368 C3388 0.950 . S
H3369 C3389 0.950 . S
H3370 C3391 0.950 . S
H3371 C3394 0.950 . S
H3372 C3395 0.950 . S
H3373 C3397 0.950 . S
H3374 C3398 0.950 . S
H3375 C3399 0.951 . S
H3376 C3401 0.951 . S
H3377 C3403 0.950 . S
H3378 C3404 0.950 . S
H3379 C3406 0.950 . S
H3380 C3409 0.950 . S
H3381 C3410 0.950 . S
H3382 C3412 0.950 . S
H3383 C3413 0.950 . S
C3384 H3366 0.951 . S
C3384 C3385 1.366 . S
C3384 C3386 1.388 . S
C3385 C3384 1.366 . S
C3385 C3389 1.385 . S
C3386 H3367 0.951 . S
C3386 C3384 1.388 . S
C3386 C3387 1.366 . S
C3387 C3386 1.366 . S
C3387 C3388 1.414 . S
C3387 C3390 1.499 . S
C3388 H3368 0.950 . S
C3388 C3387 1.414 . S
C3388 C3389 1.374 . S
C3389 H3369 0.950 . S
C3389 C3385 1.385 . S
C3389 C3388 1.374 . S
C3390 C3387 1.499 . S
C3390 C3391 1.373 . S
C3390 C3392 1.389 . S
C3391 H3370 0.950 . S
C3391 C3390 1.373 . S
C3391 C3407 1.377 . S
C3392 C3390 1.389 . S
C3392 C3393 1.524 . S
C3392 C3406 1.377 . S
C3393 C3392 1.524 . S
C3393 C3394 1.397 . S
C3393 C3398 1.363 . S
C3394 H3371 0.950 . S
C3394 C3393 1.397 . S
C3394 C3395 1.334 . S
C3395 H3372 0.950 . S
C3395 C3394 1.334 . S
C3395 C3396 1.287 . S
C3396 C3395 1.287 . S
C3396 C3397 1.524 . S
C3396 H3415 0.913 . S
C3397 H3373 0.950 . S
C3397 C3396 1.524 . S
C3397 C3398 1.415 . S
C3398 H3374 0.950 . S
C3398 C3393 1.363 . S
C3398 C3397 1.415 . S
C3399 H3375 0.951 . S
C3399 C3400 1.366 . S
C3399 C3401 1.388 . S
C3400 C3399 1.366 . S
C3400 C3404 1.385 . S
C3401 H3376 0.951 . S
C3401 C3399 1.388 . S
C3401 C3402 1.366 . S
C3402 C3401 1.366 . S
C3402 C3403 1.414 . S
C3402 C3405 1.499 . S
C3403 H3377 0.950 . S
C3403 C3402 1.414 . S
C3403 C3404 1.374 . S
C3404 H3378 0.950 . S
C3404 C3400 1.385 . S
C3404 C3403 1.374 . S
C3405 C3402 1.499 . S
C3405 C3406 1.373 . S
C3405 C3407 1.389 . S
C3406 H3379 0.950 . S
C3406 C3392 1.377 . S
C3406 C3405 1.373 . S
C3407 C3391 1.377 . S
C3407 C3405 1.389 . S
C3407 C3408 1.524 . S
C3408 C3407 1.524 . S
C3408 C3409 1.397 . S
C3408 C3413 1.363 . S
C3409 H3380 0.950 . S
C3409 C3408 1.397 . S
C3409 C3410 1.334 . S
C3410 H3381 0.950 . S
C3410 C3409 1.334 . S
C3410 C3411 1.287 . S
C3411 C3410 1.287 . S
C3411 C3412 1.524 . S
C3411 H3414 0.999 . S
C3412 H3382 0.950 . S
C3412 C3411 1.524 . S
C3412 C3413 1.415 . S
C3413 H3383 0.950 . S
C3413 C3408 1.363 . S
C3413 C3412 1.415 . S
H3414 C3411 0.999 . S
H3415 C3396 0.913 . S
H3416 C3434 0.951 . S
H3417 C3436 0.951 . S
H3418 C3438 0.950 . S
H3419 C3439 0.950 . S
H3420 C3441 0.950 . S
H3421 C3444 0.950 . S
H3422 C3445 0.950 . S
H3423 C3447 0.950 . S
H3424 C3448 0.950 . S
H3425 C3449 0.951 . S
H3426 C3451 0.951 . S
H3427 C3453 0.950 . S
H3428 C3454 0.950 . S
H3429 C3456 0.950 . S
H3430 C3459 0.950 . S
H3431 C3460 0.950 . S
H3432 C3462 0.950 . S
H3433 C3463 0.950 . S
C3434 H3416 0.951 . S
C3434 C3435 1.366 . S
C3434 C3436 1.388 . S
C3435 C3434 1.366 . S
C3435 C3439 1.385 . S
C3436 H3417 0.951 . S
C3436 C3434 1.388 . S
C3436 C3437 1.366 . S
C3437 C3436 1.366 . S
C3437 C3438 1.414 . S
C3437 C3440 1.499 . S
C3438 H3418 0.950 . S
C3438 C3437 1.414 . S
C3438 C3439 1.374 . S
C3439 H3419 0.950 . S
C3439 C3435 1.385 . S
C3439 C3438 1.374 . S
C3440 C3437 1.499 . S
C3440 C3441 1.373 . S
C3440 C3442 1.389 . S
C3441 H3420 0.950 . S
C3441 C3440 1.373 . S
C3441 C3457 1.377 . S
C3442 C3440 1.389 . S
C3442 C3443 1.524 . S
C3442 C3456 1.377 . S
C3443 C3442 1.524 . S
C3443 C3444 1.397 . S
C3443 C3448 1.363 . S
C3444 H3421 0.950 . S
C3444 C3443 1.397 . S
C3444 C3445 1.334 . S
C3445 H3422 0.950 . S
C3445 C3444 1.334 . S
C3445 C3446 1.287 . S
C3446 C3445 1.287 . S
C3446 C3447 1.524 . S
C3446 H3465 0.913 . S
C3447 H3423 0.950 . S
C3447 C3446 1.524 . S
C3447 C3448 1.415 . S
C3448 H3424 0.950 . S
C3448 C3443 1.363 . S
C3448 C3447 1.415 . S
C3449 H3425 0.951 . S
C3449 C3450 1.366 1_554 S
C3449 C3451 1.388 . S
C3450 C3449 1.366 1_556 S
C3450 C3454 1.385 . S
C3451 H3426 0.951 . S
C3451 C3449 1.388 . S
C3451 C3452 1.366 . S
C3452 C3451 1.366 . S
C3452 C3453 1.414 . S
C3452 C3455 1.499 . S
C3453 H3427 0.950 . S
C3453 C3452 1.414 . S
C3453 C3454 1.374 1_554 S
C3454 H3428 0.950 . S
C3454 C3450 1.385 . S
C3454 C3453 1.374 1_556 S
C3455 C3452 1.499 . S
C3455 C3456 1.373 . S
C3455 C3457 1.389 . S
C3456 H3429 0.950 . S
C3456 C3442 1.377 . S
C3456 C3455 1.373 . S
C3457 C3441 1.377 . S
C3457 C3455 1.389 . S
C3457 C3458 1.524 . S
C3458 C3457 1.524 . S
C3458 C3459 1.397 . S
C3458 C3463 1.363 . S
C3459 H3430 0.950 . S
C3459 C3458 1.397 . S
C3459 C3460 1.334 1_554 S
C3460 H3431 0.950 . S
C3460 C3459 1.334 1_556 S
C3460 C3461 1.287 1_556 S
C3461 C3460 1.287 1_554 S
C3461 C3462 1.524 . S
C3461 H3464 0.999 1_554 S
C3462 H3432 0.950 . S
C3462 C3461 1.524 . S
C3462 C3463 1.415 . S
C3463 H3433 0.950 . S
C3463 C3458 1.363 . S
C3463 C3462 1.415 . S
H3464 C3461 0.999 1_556 S
H3465 C3446 0.913 . S
H3466 C3484 0.951 . S
H3467 C3486 0.951 . S
H3468 C3488 0.950 . S
H3469 C3489 0.950 . S
H3470 C3491 0.950 . S
H3471 C3494 0.950 . S
H3472 C3495 0.950 . S
H3473 C3497 0.950 . S
H3474 C3498 0.950 . S
H3475 C3499 0.951 . S
H3476 C3501 0.951 . S
H3477 C3503 0.950 . S
H3478 C3504 0.950 . S
H3479 C3506 0.950 . S
H3480 C3509 0.950 . S
H3481 C3510 0.950 . S
H3482 C3512 0.950 . S
H3483 C3513 0.950 . S
C3484 H3466 0.951 . S
C3484 C3485 1.366 . S
C3484 C3486 1.388 1_554 S
C3485 C3484 1.366 . S
C3485 C3489 1.385 1_554 S
C3486 H3467 0.951 . S
C3486 C3484 1.388 1_556 S
C3486 C3487 1.366 . S
C3487 C3486 1.366 . S
C3487 C3488 1.414 . S
C3487 C3490 1.499 . S
C3488 H3468 0.950 . S
C3488 C3487 1.414 . S
C3488 C3489 1.374 . S
C3489 H3469 0.950 . S
C3489 C3485 1.385 1_556 S
C3489 C3488 1.374 . S
C3490 C3487 1.499 . S
C3490 C3491 1.373 . S
C3490 C3492 1.389 . S
C3491 H3470 0.950 . S
C3491 C3490 1.373 . S
C3491 C3507 1.377 . S
C3492 C3490 1.389 . S
C3492 C3493 1.524 . S
C3492 C3506 1.377 . S
C3493 C3492 1.524 . S
C3493 C3494 1.397 . S
C3493 C3498 1.363 . S
C3494 H3471 0.950 . S
C3494 C3493 1.397 . S
C3494 C3495 1.334 . S
C3495 H3472 0.950 . S
C3495 C3494 1.334 . S
C3495 C3496 1.287 . S
C3496 C3495 1.287 . S
C3496 C3497 1.524 . S
C3496 H3515 0.913 . S
C3497 H3473 0.950 . S
C3497 C3496 1.524 . S
C3497 C3498 1.415 . S
C3498 H3474 0.950 . S
C3498 C3493 1.363 . S
C3498 C3497 1.415 . S
C3499 H3475 0.951 . S
C3499 C3500 1.366 . S
C3499 C3501 1.388 . S
C3500 C3499 1.366 . S
C3500 C3504 1.385 . S
C3501 H3476 0.951 . S
C3501 C3499 1.388 . S
C3501 C3502 1.366 . S
C3502 C3501 1.366 . S
C3502 C3503 1.414 . S
C3502 C3505 1.499 . S
C3503 H3477 0.950 . S
C3503 C3502 1.414 . S
C3503 C3504 1.374 . S
C3504 H3478 0.950 . S
C3504 C3500 1.385 . S
C3504 C3503 1.374 . S
C3505 C3502 1.499 . S
C3505 C3506 1.373 . S
C3505 C3507 1.389 . S
C3506 H3479 0.950 . S
C3506 C3492 1.377 . S
C3506 C3505 1.373 . S
C3507 C3491 1.377 . S
C3507 C3505 1.389 . S
C3507 C3508 1.524 . S
C3508 C3507 1.524 . S
C3508 C3509 1.397 . S
C3508 C3513 1.363 . S
C3509 H3480 0.950 . S
C3509 C3508 1.397 . S
C3509 C3510 1.334 . S
C3510 H3481 0.950 . S
C3510 C3509 1.334 . S
C3510 C3511 1.287 . S
C3511 C3510 1.287 . S
C3511 C3512 1.524 . S
C3511 H3514 0.999 . S
C3512 H3482 0.950 . S
C3512 C3511 1.524 . S
C3512 C3513 1.415 . S
C3513 H3483 0.950 . S
C3513 C3508 1.363 . S
C3513 C3512 1.415 . S
H3514 C3511 0.999 . S
H3515 C3496 0.913 . S
H3516 C3534 0.951 . S
H3517 C3536 0.951 . S
H3518 C3538 0.950 . S
H3519 C3539 0.950 . S
H3520 C3541 0.950 . S
H3521 C3544 0.950 . S
H3522 C3545 0.950 . S
H3523 C3547 0.950 . S
H3524 C3548 0.950 . S
H3525 C3549 0.951 . S
H3526 C3551 0.951 . S
H3527 C3553 0.950 . S
H3528 C3554 0.950 . S
H3529 C3556 0.950 . S
H3530 C3559 0.950 . S
H3531 C3560 0.950 . S
H3532 C3562 0.950 . S
H3533 C3563 0.950 . S
C3534 H3516 0.951 . S
C3534 C3535 1.366 . S
C3534 C3536 1.388 . S
C3535 C3534 1.366 . S
C3535 C3539 1.385 . S
C3536 H3517 0.951 . S
C3536 C3534 1.388 . S
C3536 C3537 1.366 . S
C3537 C3536 1.366 . S
C3537 C3538 1.414 . S
C3537 C3540 1.499 . S
C3538 H3518 0.950 . S
C3538 C3537 1.414 . S
C3538 C3539 1.374 . S
C3539 H3519 0.950 . S
C3539 C3535 1.385 . S
C3539 C3538 1.374 . S
C3540 C3537 1.499 . S
C3540 C3541 1.373 . S
C3540 C3542 1.389 . S
C3541 H3520 0.950 . S
C3541 C3540 1.373 . S
C3541 C3557 1.377 . S
C3542 C3540 1.389 . S
C3542 C3543 1.524 . S
C3542 C3556 1.377 . S
C3543 C3542 1.524 . S
C3543 C3544 1.397 . S
C3543 C3548 1.363 . S
C3544 H3521 0.950 . S
C3544 C3543 1.397 . S
C3544 C3545 1.334 . S
C3545 H3522 0.950 . S
C3545 C3544 1.334 . S
C3545 C3546 1.287 . S
C3546 C3545 1.287 . S
C3546 C3547 1.524 . S
C3546 H3565 0.913 . S
C3547 H3523 0.950 . S
C3547 C3546 1.524 . S
C3547 C3548 1.415 . S
C3548 H3524 0.950 . S
C3548 C3543 1.363 . S
C3548 C3547 1.415 . S
C3549 H3525 0.951 . S
C3549 C3550 1.366 . S
C3549 C3551 1.388 . S
C3550 C3549 1.366 . S
C3550 C3554 1.385 . S
C3551 H3526 0.951 . S
C3551 C3549 1.388 . S
C3551 C3552 1.366 . S
C3552 C3551 1.366 . S
C3552 C3553 1.414 . S
C3552 C3555 1.499 . S
C3553 H3527 0.950 . S
C3553 C3552 1.414 . S
C3553 C3554 1.374 . S
C3554 H3528 0.950 . S
C3554 C3550 1.385 . S
C3554 C3553 1.374 . S
C3555 C3552 1.499 . S
C3555 C3556 1.373 . S
C3555 C3557 1.389 . S
C3556 H3529 0.950 . S
C3556 C3542 1.377 . S
C3556 C3555 1.373 . S
C3557 C3541 1.377 . S
C3557 C3555 1.389 . S
C3557 C3558 1.524 . S
C3558 C3557 1.524 . S
C3558 C3559 1.397 . S
C3558 C3563 1.363 . S
C3559 H3530 0.950 . S
C3559 C3558 1.397 . S
C3559 C3560 1.334 . S
C3560 H3531 0.950 . S
C3560 C3559 1.334 . S
C3560 C3561 1.287 . S
C3561 C3560 1.287 . S
C3561 C3562 1.524 . S
C3561 H3564 0.999 . S
C3562 H3532 0.950 . S
C3562 C3561 1.524 . S
C3562 C3563 1.415 . S
C3563 H3533 0.950 . S
C3563 C3558 1.363 . S
C3563 C3562 1.415 . S
H3564 C3561 0.999 . S
H3565 C3546 0.913 . S
H3566 C3584 0.951 . S
H3567 C3586 0.951 . S
H3568 C3588 0.950 . S
H3569 C3589 0.950 . S
H3570 C3591 0.950 . S
H3571 C3594 0.950 . S
H3572 C3595 0.950 . S
H3573 C3597 0.950 . S
H3574 C3598 0.950 . S
H3575 C3599 0.951 . S
H3576 C3601 0.951 . S
H3577 C3603 0.950 . S
H3578 C3604 0.950 . S
H3579 C3606 0.950 . S
H3580 C3609 0.950 . S
H3581 C3610 0.950 . S
H3582 C3612 0.950 . S
H3583 C3613 0.950 . S
C3584 H3566 0.951 . S
C3584 C3585 1.366 . S
C3584 C3586 1.388 . S
C3585 C3584 1.366 . S
C3585 C3589 1.385 . S
C3586 H3567 0.951 . S
C3586 C3584 1.388 . S
C3586 C3587 1.366 . S
C3587 C3586 1.366 . S
C3587 C3588 1.414 . S
C3587 C3590 1.499 . S
C3588 H3568 0.950 . S
C3588 C3587 1.414 . S
C3588 C3589 1.374 . S
C3589 H3569 0.950 . S
C3589 C3585 1.385 . S
C3589 C3588 1.374 . S
C3590 C3587 1.499 . S
C3590 C3591 1.373 . S
C3590 C3592 1.389 . S
C3591 H3570 0.950 . S
C3591 C3590 1.373 . S
C3591 C3607 1.377 . S
C3592 C3590 1.389 . S
C3592 C3593 1.524 . S
C3592 C3606 1.377 . S
C3593 C3592 1.524 . S
C3593 C3594 1.397 . S
C3593 C3598 1.363 . S
C3594 H3571 0.950 . S
C3594 C3593 1.397 . S
C3594 C3595 1.334 . S
C3595 H3572 0.950 . S
C3595 C3594 1.334 . S
C3595 C3596 1.287 . S
C3596 C3595 1.287 . S
C3596 C3597 1.524 . S
C3596 H3615 0.913 . S
C3597 H3573 0.950 . S
C3597 C3596 1.524 . S
C3597 C3598 1.415 . S
C3598 H3574 0.950 . S
C3598 C3593 1.363 . S
C3598 C3597 1.415 . S
C3599 H3575 0.951 . S
C3599 C3600 1.366 . S
C3599 C3601 1.388 . S
C3600 C3599 1.366 . S
C3600 C3604 1.385 . S
C3601 H3576 0.951 . S
C3601 C3599 1.388 . S
C3601 C3602 1.366 . S
C3602 C3601 1.366 . S
C3602 C3603 1.414 . S
C3602 C3605 1.499 . S
C3603 H3577 0.950 . S
C3603 C3602 1.414 . S
C3603 C3604 1.374 . S
C3604 H3578 0.950 . S
C3604 C3600 1.385 . S
C3604 C3603 1.374 . S
C3605 C3602 1.499 . S
C3605 C3606 1.373 . S
C3605 C3607 1.389 . S
C3606 H3579 0.950 . S
C3606 C3592 1.377 . S
C3606 C3605 1.373 . S
C3607 C3591 1.377 . S
C3607 C3605 1.389 . S
C3607 C3608 1.524 . S
C3608 C3607 1.524 . S
C3608 C3609 1.397 . S
C3608 C3613 1.363 . S
C3609 H3580 0.950 . S
C3609 C3608 1.397 . S
C3609 C3610 1.334 . S
C3610 H3581 0.950 . S
C3610 C3609 1.334 . S
C3610 C3611 1.287 . S
C3611 C3610 1.287 . S
C3611 C3612 1.524 . S
C3611 H3614 0.999 . S
C3612 H3582 0.950 . S
C3612 C3611 1.524 . S
C3612 C3613 1.415 . S
C3613 H3583 0.950 . S
C3613 C3608 1.363 . S
C3613 C3612 1.415 . S
H3614 C3611 0.999 . S
H3615 C3596 0.913 . S
C435 C83 1.439 . S
C450 C5 1.438 . S
C485 C18 1.439 . S
C500 C96 1.438 . S
C535 C57 1.438 . S
C550 C31 1.439 . S
C585 C44 1.439 . S
C600 C70 1.440 . S
C635 C109 1.439 . S
C650 C187 1.440 . S
C685 C200 1.439 . S
C700 C122 1.440 . S
C735 C135 1.439 . S
C750 C161 1.438 . S
C785 C174 1.440 . S
C800 C148 1.439 . S
C835 C213 1.440 . S
C850 C291 1.439 . S
C885 C226 1.438 . S
C900 C304 1.439 . S
C935 C265 1.439 . S
C950 C239 1.440 . S
C985 C278 1.439 . S
C1000 C252 1.438 . S
C1035 C317 1.439 . S
C1050 C395 1.439 . S
C1085 C330 1.439 . S
C1100 C408 1.438 . S
C1135 C369 1.439 . S
C1150 C343 1.438 . S
C1185 C356 1.438 . S
C1200 C382 1.439 . S
C1235 C0 1.534 . S
C1250 C91 1.534 . S
C1285 C52 1.534 . S
C1300 C13 1.534 . S
C1335 C65 1.534 . S
C1350 C26 1.534 . S
C1385 C39 1.534 . S
C1400 C78 1.534 . S
C1435 C104 1.534 . S
C1450 C195 1.534 . S
C1485 C156 1.534 . S
C1500 C117 1.534 . S
C1535 C169 1.534 . S
C1550 C130 1.534 . S
C1585 C182 1.534 . S
C1600 C143 1.534 . S
C1635 C208 1.534 . S
C1650 C299 1.534 . S
C1685 C221 1.534 . S
C1700 C260 1.534 . S
C1735 C273 1.534 . S
C1750 C234 1.534 . S
C1785 C247 1.534 . S
C1800 C286 1.534 . S
C1835 C312 1.534 . S
C1850 C403 1.534 . S
C1885 C364 1.534 . S
C1900 C325 1.534 . S
C1935 C338 1.534 . S
C1950 C377 1.534 . S
C1985 C351 1.534 . S
C2000 C390 1.534 . S
C2035 C400 1.402 . S
C2050 C10 1.402 . S
C2085 C205 1.402 . S
C2100 C23 1.402 . S
C2135 C36 1.402 . S
C2150 C374 1.403 . S
C2185 C49 1.402 . S
C2200 C179 1.402 . S
C2235 C62 1.403 . S
C2250 C348 1.402 . S
C2285 C75 1.402 . S
C2300 C153 1.402 . S
C2335 C88 1.402 . S
C2350 C322 1.402 . S
C2385 C127 1.402 . S
C2400 C101 1.402 . S
C2435 C296 1.402 . S
C2450 C114 1.402 . S
C2485 C140 1.402 . S
C2500 C270 1.402 . S
C2535 C244 1.402 . S
C2550 C166 1.402 . S
C2585 C218 1.402 . S
C2600 C192 1.402 . S
C2635 C231 1.402 . S
C2650 C413 1.402 . S
C2685 C257 1.402 . S
C2700 C387 1.402 . S
C2735 C283 1.402 . S
C2750 C361 1.402 . S
C2785 C335 1.403 . S
C2800 C309 1.402 . S
C2835 C8 0.849 . S
C2850 C99 0.850 . S
C2885 C21 0.850 . S
C2900 C60 0.850 . S
C2935 C73 0.850 . S
C2950 C34 0.849 . S
C2985 C47 0.849 . S
C3000 C86 0.849 . S
C3035 C203 0.849 . S
C3050 C112 0.848 . S
C3085 C164 0.849 . S
C3100 C125 0.850 . S
C3135 C138 0.849 . S
C3150 C177 0.850 . S
C3185 C190 0.850 . S
C3200 C151 0.850 . S
C3235 C307 0.849 . S
C3250 C216 0.850 . S
C3285 C268 0.849 . S
C3300 C229 0.849 . S
C3335 C281 0.848 . S
C3350 C242 0.849 . S
C3385 C294 0.848 . S
C3400 C255 0.850 . S
C3435 C320 0.848 . S
C3450 C411 0.849 . S
C3485 C333 0.850 . S
C3500 C372 0.849 . S
C3535 C346 0.849 . S
C3550 C385 0.850 . S
C3585 C398 0.849 . S
C3600 C359 0.850 . S
