# Generated by pormake.
# Topology umy, (4)-cn, num edge types: 1
# Building blocks:
#     Node 0, Type 0, BuildingBlock: QUQFOY_clean_sbu_1, # of connection points: 4
#     Node 1, Type 0, BuildingBlock: QUQFOY_clean_sbu_1, # of connection points: 4
#     Node 2, Type 0, BuildingBlock: QUQFOY_clean_sbu_1, # of connection points: 4
#     Node 3, Type 0, BuildingBlock: QUQFOY_clean_sbu_1, # of connection points: 4
#     Node 4, Type 0, BuildingBlock: QUQFOY_clean_sbu_1, # of connection points: 4
#     Node 5, Type 0, BuildingBlock: QUQFOY_clean_sbu_1, # of connection points: 4
#     Node 6, Type 0, BuildingBlock: QUQFOY_clean_sbu_1, # of connection points: 4
#     Node 7, Type 0, BuildingBlock: QUQFOY_clean_sbu_1, # of connection points: 4
#     Node 8, Type 0, BuildingBlock: QUQFOY_clean_sbu_1, # of connection points: 4
#     Node 9, Type 0, BuildingBlock: QUQFOY_clean_sbu_1, # of connection points: 4
#     Node 10, Type 0, BuildingBlock: QUQFOY_clean_sbu_1, # of connection points: 4
#     Node 11, Type 0, BuildingBlock: QUQFOY_clean_sbu_1, # of connection points: 4
#     Edge 12, Type (0, 0), BuildingBlock: AJUNOK_clean_linker_0, # of connection points: 2
#     Edge 13, Type (0, 0), BuildingBlock: AJUNOK_clean_linker_0, # of connection points: 2
#     Edge 14, Type (0, 0), BuildingBlock: AJUNOK_clean_linker_0, # of connection points: 2
#     Edge 15, Type (0, 0), BuildingBlock: AJUNOK_clean_linker_0, # of connection points: 2
#     Edge 16, Type (0, 0), BuildingBlock: AJUNOK_clean_linker_0, # of connection points: 2
#     Edge 17, Type (0, 0), BuildingBlock: AJUNOK_clean_linker_0, # of connection points: 2
#     Edge 18, Type (0, 0), BuildingBlock: AJUNOK_clean_linker_0, # of connection points: 2
#     Edge 19, Type (0, 0), BuildingBlock: AJUNOK_clean_linker_0, # of connection points: 2
#     Edge 20, Type (0, 0), BuildingBlock: AJUNOK_clean_linker_0, # of connection points: 2
#     Edge 21, Type (0, 0), BuildingBlock: AJUNOK_clean_linker_0, # of connection points: 2
#     Edge 22, Type (0, 0), BuildingBlock: AJUNOK_clean_linker_0, # of connection points: 2
#     Edge 23, Type (0, 0), BuildingBlock: AJUNOK_clean_linker_0, # of connection points: 2
#     Edge 24, Type (0, 0), BuildingBlock: AJUNOK_clean_linker_0, # of connection points: 2
#     Edge 25, Type (0, 0), BuildingBlock: AJUNOK_clean_linker_0, # of connection points: 2
#     Edge 26, Type (0, 0), BuildingBlock: AJUNOK_clean_linker_0, # of connection points: 2
#     Edge 27, Type (0, 0), BuildingBlock: AJUNOK_clean_linker_0, # of connection points: 2
#     Edge 28, Type (0, 0), BuildingBlock: AJUNOK_clean_linker_0, # of connection points: 2
#     Edge 29, Type (0, 0), BuildingBlock: AJUNOK_clean_linker_0, # of connection points: 2
#     Edge 30, Type (0, 0), BuildingBlock: AJUNOK_clean_linker_0, # of connection points: 2
#     Edge 31, Type (0, 0), BuildingBlock: AJUNOK_clean_linker_0, # of connection points: 2
#     Edge 32, Type (0, 0), BuildingBlock: AJUNOK_clean_linker_0, # of connection points: 2
#     Edge 33, Type (0, 0), BuildingBlock: AJUNOK_clean_linker_0, # of connection points: 2
#     Edge 34, Type (0, 0), BuildingBlock: AJUNOK_clean_linker_0, # of connection points: 2
#     Edge 35, Type (0, 0), BuildingBlock: AJUNOK_clean_linker_0, # of connection points: 2
# Relax obj value: 0.086
# Max RMSD: 0.117
# Mean RMSD: 0.117
data_MOF--net-umy--node1-QUQFOY_clean_sbu_1--edge1-AJUNOK_clean_linker_0
_symmetry_space_group_name_H-M    P1
_symmetry_Int_Tables_number       1
_symmetry_cell_setting            triclinic
loop_
_symmetry_equiv_pos_as_xyz
'x, y, z'
_cell_length_a     30.675493
_cell_length_b     30.690873
_cell_length_c     38.228776
_cell_angle_alpha  90.077067
_cell_angle_beta   90.016328
_cell_angle_gamma 120.11343
loop_
_atom_site_label
_atom_site_type_symbol
_atom_site_fract_x
_atom_site_fract_y
_atom_site_fract_z
_atom_type_partial_charge
O0 O 1.00218 0.32275 0.15799 0.0
Cd1 Cd 0.06905 0.38928 0.14961 0.0
Cd2 Cd 0.10125 0.32552 0.12365 0.0
O3 O 0.02764 0.27201 0.13731 0.0
O4 O 0.05517 0.44643 0.15002 0.0
O5 O 0.08474 0.42641 0.10375 0.0
C6 C 0.07056 0.4555 0.11803 0.0
C7 C 0.14043 0.3165 0.07324 0.0
C8 C 0.99397 0.27844 0.152 0.0
C9 C 0.15339 0.38793 0.18806 0.0
O10 O 0.15054 0.35656 0.16515 0.0
O11 O 0.12407 0.40593 0.18689 0.0
O12 O 0.12728 0.28544 0.09898 0.0
O13 O 0.12887 0.35151 0.07505 0.0
O14 O 0.69644 0.99748 0.32956 0.0
Cd15 Cd 0.70013 0.06591 0.3198 0.0
Cd16 Cd 0.79011 0.08743 0.29037 0.0
O17 O 0.76385 1.0118 0.29952 0.0
O18 O 0.63038 0.05519 0.32398 0.0
O19 O 0.67407 0.07862 0.27481 0.0
C20 C 0.63307 0.06743 0.29146 0.0
C21 C 0.83707 0.12854 0.2399 0.0
C22 C 0.72654 0.98312 0.31884 0.0
C23 C 0.79186 0.14091 0.35752 0.0
O24 O 0.81566 0.13006 0.33523 0.0
O25 O 0.74458 0.12285 0.35473 0.0
O26 O 0.85347 0.10966 0.2629 0.0
O27 O 0.79269 0.12249 0.24463 0.0
O28 O 0.71527 0.68729 0.49309 0.0
Cd29 Cd 0.64954 0.68935 0.48618 0.0
Cd30 Cd 0.7133 0.78435 0.46056 0.0
O31 O 0.76676 0.76373 0.47296 0.0
O32 O 0.59192 0.61863 0.48855 0.0
O33 O 0.60979 0.6661 0.44133 0.0
C34 C 0.58114 0.62362 0.45674 0.0
C35 C 0.71915 0.82935 0.40925 0.0
C36 C 0.75972 0.72291 0.48677 0.0
C37 C 0.65487 0.77626 0.52602 0.0
O38 O 0.68574 0.80473 0.50289 0.0
O39 O 0.63544 0.72873 0.52413 0.0
O40 O 0.75227 0.8486 0.43379 0.0
O41 O 0.68324 0.78334 0.41294 0.0
O42 O 0.04811 0.71191 0.65961 0.0
Cd43 Cd 0.98101 0.64515 0.65209 0.0
Cd44 Cd 0.94892 0.70824 0.6247 0.0
O45 O 1.02269 0.76208 0.63788 0.0
O46 O 0.99474 0.58803 0.65488 0.0
O47 O 0.96508 0.60505 0.60734 0.0
C48 C 0.97887 0.57666 0.62309 0.0
C49 C 0.90948 0.71557 0.57389 0.0
C50 C 0.05642 0.75606 0.65287 0.0
C51 C 0.89693 0.64822 0.68972 0.0
O52 O 0.89978 0.67887 0.6663 0.0
O53 O 0.9262 0.63014 0.68915 0.0
O54 O 0.92307 0.74765 0.59909 0.0
O55 O 0.92076 0.68042 0.57645 0.0
O56 O 0.35489 0.03455 0.82988 0.0
Cd57 Cd 0.3465 0.96449 0.8186 0.0
Cd58 Cd 0.25997 0.9503 0.78983 0.0
O59 O 0.29132 0.02703 0.79831 0.0
O60 O 0.41477 0.97107 0.82054 0.0
O61 O 0.3691 0.9517 0.77223 0.0
C62 C 0.41038 0.96068 0.78755 0.0
C63 C 0.21409 0.90908 0.73904 0.0
C64 C 0.32856 0.05303 0.81853 0.0
C65 C 0.25353 0.89352 0.85615 0.0
O66 O 0.23198 0.90828 0.83472 0.0
O67 O 0.29989 0.90736 0.85258 0.0
O68 O 0.19829 0.93014 0.7608 0.0
O69 O 0.25753 0.91342 0.74507 0.0
O70 O 0.33467 0.34429 0.99387 0.0
Cd71 Cd 0.40082 0.34319 0.98689 0.0
Cd72 Cd 0.33907 0.24946 0.96008 0.0
O73 O 0.28416 0.26826 0.9725 0.0
O74 O 0.45829 0.41411 0.9868 0.0
O75 O 0.4375 0.36339 0.94098 0.0
C76 C 0.46668 0.40709 0.95479 0.0
C77 C 0.33803 0.2084 0.90789 0.0
C78 C 0.29051 0.30857 0.98686 0.0
C79 C 0.39745 0.25683 0.02552 0.0
O80 O 0.36668 0.22872 1.00214 0.0
O81 O 0.41605 0.3043 0.02456 0.0
O82 O 0.30326 0.18673 0.93109 0.0
O83 O 0.37259 0.25458 0.91327 0.0
O84 O 0.71582 0.03886 0.67923 0.0
Cd85 Cd 0.65021 0.97055 0.68596 0.0
Cd86 Cd 0.7155 0.94071 0.71268 0.0
O87 O 0.7679 1.01506 0.6999 0.0
O88 O 0.59203 0.98266 0.68306 0.0
O89 O 0.60957 0.95319 0.73045 0.0
C90 C 0.58069 0.96641 0.71474 0.0
C91 C 0.72446 0.90224 0.76335 0.0
C92 C 0.76044 0.04841 0.68583 0.0
C93 C 0.6559 0.88829 0.64756 0.0
O94 O 0.68697 0.89171 0.67089 0.0
O95 O 0.63677 0.91664 0.64842 0.0
O96 O 0.75647 0.91658 0.73812 0.0
O97 O 0.68807 0.91173 0.76078 0.0
O98 O 0.69547 0.70768 0.84244 0.0
Cd99 Cd 0.69651 0.6415 0.84957 0.0
Cd100 Cd 0.79046 0.70306 0.87666 0.0
O101 O 0.77125 0.75746 0.86432 0.0
O102 O 0.62571 0.58403 0.84753 0.0
O103 O 0.67378 0.60252 0.89461 0.0
C104 C 0.63111 0.57367 0.87937 0.0
C105 C 0.83417 0.70824 0.92857 0.0
C106 C 0.73149 0.75169 0.84947 0.0
C107 C 0.78344 0.64578 0.81073 0.0
O108 O 0.81158 0.6759 0.8344 0.0
O109 O 0.73594 0.62698 0.81198 0.0
O110 O 0.8542 0.74141 0.90421 0.0
O111 O 0.78818 0.67252 0.92429 0.0
O112 O 1.0021 0.68701 0.00876 0.0
Cd113 Cd 0.07104 0.69152 0.01785 0.0
Cd114 Cd 0.09142 0.78044 0.04827 0.0
O115 O 1.01545 0.75347 0.03967 0.0
O116 O 0.06113 0.6221 0.01335 0.0
O117 O 0.08456 0.66568 0.06264 0.0
C118 C 0.07354 0.62479 0.04586 0.0
C119 C 0.13437 0.82681 0.09856 0.0
C120 C 0.98707 0.71632 0.02004 0.0
C121 C 0.14455 0.78412 0.98049 0.0
O122 O 0.13346 0.80702 1.00337 0.0
O123 O 0.1273 0.73694 0.98283 0.0
O124 O 0.11443 0.84337 0.0765 0.0
O125 O 0.12752 0.78223 0.09329 0.0
O126 O 0.33149 0.99446 0.17892 0.0
Cd127 Cd 0.39731 0.06213 0.18716 0.0
Cd128 Cd 0.33194 0.09315 0.2113 0.0
O129 O 0.27931 0.01894 0.19827 0.0
O130 O 0.45486 0.04885 0.18683 0.0
O131 O 0.43464 0.07836 0.23303 0.0
C132 C 0.46387 0.06431 0.21882 0.0
C133 C 0.32205 0.13202 0.2615 0.0
C134 C 0.28681 0.98536 0.18457 0.0
C135 C 0.39433 0.1446 0.14712 0.0
O136 O 0.36218 0.14156 0.1694 0.0
O137 O 0.41363 0.11651 0.14952 0.0
O138 O 0.29093 0.11817 0.2357 0.0
O139 O 0.35814 0.122 0.25971 0.0
O140 O 0.35025 0.32578 0.34201 0.0
Cd141 Cd 0.34983 0.39216 0.34987 0.0
Cd142 Cd 0.25504 0.33069 0.37556 0.0
O143 O 0.27379 0.27604 0.36273 0.0
O144 O 0.42099 0.44922 0.35003 0.0
O145 O 0.37051 0.42888 0.39588 0.0
C146 C 0.41418 0.45788 0.38203 0.0
C147 C 0.21039 0.32457 0.4272 0.0
C148 C 0.31376 0.28177 0.34827 0.0
C149 C 0.26449 0.39002 0.31026 0.0
O150 O 0.23559 0.35949 0.3334 0.0
O151 O 0.3119 0.40833 0.31209 0.0
O152 O 0.19055 0.29222 0.40225 0.0
O153 O 0.25663 0.36002 0.42362 0.0
O154 O 0.04317 0.34515 0.50934 0.0
Cd155 Cd 0.97461 0.34075 0.51967 0.0
Cd156 Cd 0.95475 0.25247 0.5498 0.0
O157 O 0.03034 0.27871 0.5399 0.0
O158 O 0.98439 0.4103 0.51774 0.0
O159 O 0.962 0.36408 0.5658 0.0
C160 C 0.97302 0.40597 0.55055 0.0
C161 C 0.91294 0.20687 0.6005 0.0
C162 C 0.05828 0.31571 0.52011 0.0
C163 C 0.89967 0.24839 0.48283 0.0
O164 O 0.91112 0.22562 0.50554 0.0
O165 O 0.91739 0.29567 0.48504 0.0
O166 O 0.9321 0.18982 0.57815 0.0
O167 O 0.92008 0.25156 0.59533 0.0
C168 C 0.07125 0.57791 0.10018 0.0
C169 C 0.07411 0.58187 0.06349 0.0
C170 C 0.06992 0.53689 0.11742 0.0
C171 C 0.07225 0.49846 0.09878 0.0
H172 H 0.06919 0.60633 0.11576 0.0
H173 H 0.06731 0.53552 0.1457 0.0
S174 S 0.08174 0.49174 1.00233 0.0
N175 N 0.08008 0.54404 0.00903 0.0
N176 N 0.07845 0.46757 0.04146 0.0
C177 C 0.07594 0.50233 0.0621 0.0
C178 C 0.07659 0.54379 0.04448 0.0
C179 C 0.58639 0.06527 0.23701 0.0
C180 C 0.5901 0.06785 0.27371 0.0
C181 C 0.54543 0.06399 0.21964 0.0
C182 C 0.50683 0.06609 0.23819 0.0
H183 H 0.61498 0.06343 0.22149 0.0
H184 H 0.54424 0.0616 0.19135 0.0
S185 S 0.49938 0.0747 0.33465 0.0
N186 N 0.55184 0.07326 0.3281 0.0
N187 N 0.47545 0.07169 0.29544 0.0
C188 C 0.51044 0.06947 0.27489 0.0
C189 C 0.55183 0.07008 0.29263 0.0
C190 C 0.53615 0.57959 0.40166 0.0
C191 C 0.53754 0.58161 0.43842 0.0
C192 C 0.49621 0.53942 0.38376 0.0
C193 C 0.45551 0.50009 0.40187 0.0
H194 H 0.56661 0.60883 0.38652 0.0
H195 H 0.49719 0.5394 0.35544 0.0
S196 S 0.44002 0.48848 0.4983 0.0
N197 N 0.49411 0.54112 0.49239 0.0
N198 N 0.41873 0.46627 0.45876 0.0
C199 C 0.45595 0.5021 0.43864 0.0
C200 C 0.49703 0.54262 0.45689 0.0
C201 C 0.9744 0.52879 0.56862 0.0
C202 C 0.97652 0.53233 0.60534 0.0
C203 C 0.97323 0.48785 0.55124 0.0
C204 C 0.97325 0.44825 0.56986 0.0
H205 H 0.97438 0.55826 0.55306 0.0
H206 H 0.97212 0.48724 0.52292 0.0
S207 S 0.97665 0.43839 0.6665 0.0
N208 N 0.97762 0.49201 0.65985 0.0
N209 N 0.97462 0.41491 0.62726 0.0
C210 C 0.97451 0.45088 0.60663 0.0
C211 C 0.9764 0.49293 0.62432 0.0
C212 C 0.53207 0.95997 0.76917 0.0
C213 C 0.53607 0.9634 0.73247 0.0
C214 C 0.49119 0.95877 0.7866 0.0
C215 C 0.45216 0.96015 0.76811 0.0
H216 H 0.56115 0.95908 0.78463 0.0
H217 H 0.4903 0.95678 0.81493 0.0
S218 S 0.4434 0.96683 0.67159 0.0
N219 N 0.49658 0.9668 0.67811 0.0
N220 N 0.41964 0.96383 0.71084 0.0
C221 C 0.45511 0.96248 0.73135 0.0
C222 C 0.49709 0.96434 0.71361 0.0
C223 C 0.54797 0.48933 0.95272 0.0
C224 C 0.50861 0.4483 0.93478 0.0
C225 C 0.58779 0.52922 0.93464 0.0
C226 C 0.5894 0.53021 0.89787 0.0
H227 H 0.54824 0.49062 0.98104 0.0
H228 H 0.61709 0.55994 0.94965 0.0
S229 S 0.496 0.43174 0.83841 0.0
N230 N 0.47431 0.4108 0.87804 0.0
N231 N 0.54851 0.48608 0.84409 0.0
C232 C 0.55037 0.48938 0.87957 0.0
C233 C 0.51021 0.44836 0.89801 0.0
C234 C 0.16969 0.2683 0.03683 0.0
C235 C 0.17226 0.31436 0.04474 0.0
C236 C 0.20572 0.26629 0.0153 0.0
C237 C 0.24656 0.31045 1.00151 0.0
H238 H 0.1408 0.23368 0.04862 0.0
H239 H 0.20351 0.23023 0.01157 0.0
S240 S 0.26754 0.43992 0.01104 0.0
N241 N 0.21608 0.40459 0.03408 0.0
N242 N 0.28471 0.40102 0.99456 0.0
C243 C 0.24784 0.35636 0.00742 0.0
C244 C 0.21045 0.35826 0.02875 0.0
C245 C 0.86946 0.20362 0.2004 0.0
C246 C 0.87074 0.16054 0.21136 0.0
C247 C 0.90778 0.24019 0.17917 0.0
C248 C 0.94837 0.23465 0.1675 0.0
H249 H 0.84054 0.21085 0.21018 0.0
H250 H 0.90677 0.27417 0.17321 0.0
S251 S 0.96452 0.12435 0.18464 0.0
N252 N 0.91273 0.11163 0.20604 0.0
N253 N 0.9839 0.17929 0.16558 0.0
C254 C 0.94759 0.18954 0.17596 0.0
C255 C 0.90908 0.15284 0.19807 0.0
C256 C 0.67579 0.86054 0.3695 0.0
C257 C 0.72022 0.86138 0.37989 0.0
C258 C 0.67757 0.89832 0.34768 0.0
C259 C 0.72369 0.93746 0.33471 0.0
H260 H 0.63981 0.83266 0.38027 0.0
H261 H 0.64283 0.89817 0.34224 0.0
S262 S 0.85001 0.95254 0.35096 0.0
N263 N 0.81096 0.90191 0.37346 0.0
N264 N 0.81444 0.97167 0.33162 0.0
C265 C 0.76789 0.93618 0.34278 0.0
C266 C 0.76613 0.89851 0.36563 0.0
C267 C 0.8453 0.76479 0.51419 0.0
C268 C 0.80326 0.7204 0.50165 0.0
C269 C 0.88131 0.763 0.53587 0.0
C270 C 0.87751 0.71687 0.54518 0.0
H271 H 0.84863 0.80111 0.50936 0.0
H272 H 0.9112 0.79797 0.54667 0.0
S273 S 0.77871 0.59028 0.51524 0.0
N274 N 0.76263 0.62921 0.49743 0.0
N275 N 0.83116 0.62601 0.5373 0.0
C276 C 0.83806 0.6725 0.53048 0.0
C277 C 0.80072 0.67421 0.50897 0.0
C278 C 0.14251 0.79483 0.68036 0.0
C279 C 0.1023 0.80035 0.6678 0.0
C280 C 0.18104 0.83217 0.70115 0.0
C281 C 0.18039 0.87612 0.71073 0.0
H282 H 0.14305 0.76031 0.6755 0.0
H283 H 0.20956 0.82492 0.71169 0.0
S284 S 0.08803 0.91261 0.681 0.0
N285 N 0.06798 0.85657 0.66337 0.0
N286 N 0.13954 0.92574 0.70299 0.0
C287 C 0.14253 0.88377 0.69645 0.0
C288 C 0.10378 0.84623 0.6748 0.0
C289 C 0.37839 0.13041 0.85551 0.0
C290 C 0.33606 0.10104 0.83407 0.0
C291 C 0.38083 0.16862 0.87719 0.0
C292 C 0.34083 0.17848 0.87858 0.0
H293 H 0.40868 0.12203 0.8571 0.0
H294 H 0.41257 0.188 0.89484 0.0
S295 S 0.22533 0.11874 0.82423 0.0
N296 N 0.25623 0.08984 0.81253 0.0
N297 N 0.26052 0.16034 0.85427 0.0
C298 C 0.30013 0.15222 0.85565 0.0
C299 C 0.29794 0.11399 0.83303 0.0
C300 C 0.68399 0.79177 0.82481 0.0
C301 C 0.73025 0.79606 0.83481 0.0
C302 C 0.68227 0.82872 0.80407 0.0
C303 C 0.72675 0.87078 0.79192 0.0
H304 H 0.64878 0.75843 0.83164 0.0
H305 H 0.64589 0.82241 0.79547 0.0
S306 S 0.8574 0.90335 0.81394 0.0
N307 N 0.82166 0.84911 0.83387 0.0
N308 N 0.81814 0.91735 0.79417 0.0
C309 C 0.77309 0.87724 0.80354 0.0
C310 C 0.77492 0.84026 0.82522 0.0
C311 C 0.86505 0.66487 0.96849 0.0
C312 C 0.86538 0.70911 0.95845 0.0
C313 C 0.90265 0.66684 0.99066 0.0
C314 C 0.94105 0.71294 0.00432 0.0
H315 H 0.8379 0.629 0.9571 0.0
H316 H 0.90308 0.63234 0.99572 0.0
S317 S 0.95404 0.83856 0.98949 0.0
N318 N 0.90425 0.7995 0.96614 0.0
N319 N 0.97363 0.80329 0.00867 0.0
C320 C 0.939 0.75682 0.99674 0.0
C321 C 0.90154 0.75489 0.97352 0.0
C322 C 0.19997 0.93989 0.15894 0.0
C323 C 0.24352 0.93899 0.16948 0.0
C324 C 0.16333 0.90178 0.13767 0.0
C325 C 0.16806 0.86058 0.12662 0.0
H326 H 0.19561 0.97194 0.16517 0.0
H327 H 0.13204 0.90577 0.12862 0.0
S328 S 0.27113 0.83645 0.15114 0.0
N329 N 0.28666 0.89072 0.17011 0.0
N330 N 0.2172 0.81856 0.13083 0.0
C331 C 0.20929 0.85706 0.13927 0.0
C332 C 0.24715 0.89639 0.16047 0.0
C333 C 0.36331 0.20466 0.30323 0.0
C334 C 0.31906 0.16329 0.29 0.0
C335 C 0.3613 0.24138 0.32413 0.0
C336 C 0.31493 0.23751 0.33324 0.0
H337 H 0.39984 0.21062 0.29541 0.0
H338 H 0.39643 0.27422 0.33185 0.0
S339 S 0.18806 0.13204 0.30929 0.0
N340 N 0.22761 0.1178 0.29022 0.0
N341 N 0.22351 0.18559 0.3302 0.0
C342 C 0.27036 0.19397 0.32251 0.0
C343 C 0.27251 0.15724 0.30067 0.0
C344 C 0.17999 0.36727 0.46827 0.0
C345 C 0.17889 0.32304 0.45709 0.0
C346 C 0.14265 0.36514 0.49077 0.0
C347 C 0.10376 0.31884 0.50368 0.0
H348 H 0.20767 0.40341 0.45759 0.0
H349 H 0.14288 0.39976 0.49679 0.0
S350 S 0.08826 0.19287 0.48549 0.0
N351 N 0.13844 0.23223 0.4627 0.0
N352 N 0.06956 0.22812 0.50585 0.0
C353 C 0.10486 0.2748 0.49482 0.0
C354 C 0.14204 0.27692 0.47126 0.0
C355 C 0.88427 0.13225 0.63974 0.0
C356 C 0.87951 0.1734 0.62868 0.0
C357 C 0.84757 0.09413 0.66087 0.0
C358 C 0.80391 0.09495 0.67122 0.0
H359 H 0.91558 0.12827 0.63073 0.0
H360 H 0.8519 0.06207 0.66704 0.0
S361 S 0.77633 0.19748 0.65298 0.0
N362 N 0.83037 0.21542 0.63286 0.0
N363 N 0.76073 0.14317 0.67182 0.0
C364 C 0.80031 0.13756 0.66229 0.0
C365 C 0.83827 0.17693 0.64127 0.0
C366 C 0.19597 0.39911 0.28206 0.0
C367 C 0.24178 0.3993 0.27905 0.0
C368 C 0.16935 0.39938 0.25229 0.0
C369 C 0.18693 0.39838 0.2185 0.0
H370 H 0.17974 0.39706 0.30761 0.0
H371 H 0.13322 0.39711 0.25581 0.0
S372 S 0.30655 0.40244 0.19632 0.0
N373 N 0.30543 0.40244 0.23952 0.0
N374 N 0.25444 0.40114 0.18363 0.0
C375 C 0.23372 0.40087 0.21511 0.0
C376 C 0.26144 0.40185 0.24539 0.0
C377 C 0.83873 0.23349 0.43378 0.0
C378 C 0.87057 0.22016 0.45158 0.0
C379 C 0.81237 0.20733 0.40349 0.0
C380 C 0.81852 0.16833 0.38951 0.0
H381 H 0.8339 0.26398 0.44346 0.0
H382 H 0.78789 0.21827 0.39058 0.0
S383 S 0.89732 0.11902 0.42605 0.0
N384 N 0.90604 0.16478 0.45297 0.0
N385 N 0.85783 0.11702 0.39593 0.0
C386 C 0.85025 0.15485 0.40701 0.0
C387 C 0.87596 0.18042 0.43808 0.0
C388 C 0.64547 0.87195 0.58333 0.0
C389 C 0.64656 0.85482 0.61725 0.0
C390 C 0.64594 0.8451 0.55375 0.0
C391 C 0.64602 0.79949 0.55709 0.0
H392 H 0.64729 0.90781 0.57959 0.0
H393 H 0.64775 0.86089 0.5281 0.0
S394 S 0.64372 0.7361 0.6402 0.0
N395 N 0.64456 0.7881 0.65256 0.0
N396 N 0.64363 0.73667 0.597 0.0
C397 C 0.64382 0.78038 0.59086 0.0
C398 C 0.64462 0.80834 0.62095 0.0
C399 C 0.88019 0.63753 0.75387 0.0
C400 C 0.86312 0.63836 0.71987 0.0
C401 C 0.85299 0.63768 0.78332 0.0
C402 C 0.80711 0.63722 0.77977 0.0
H403 H 0.91628 0.63984 0.7578 0.0
H404 H 0.86875 0.6397 0.80904 0.0
S405 S 0.74368 0.63386 0.6963 0.0
N406 N 0.7961 0.63536 0.68422 0.0
N407 N 0.74406 0.63389 0.73951 0.0
C408 C 0.78805 0.63469 0.74589 0.0
C409 C 0.81634 0.63578 0.71594 0.0
C410 C 0.23301 0.82705 0.90194 0.0
C411 C 0.22555 0.865 0.88751 0.0
C412 C 0.20643 0.80039 0.93195 0.0
C413 C 0.17295 0.81211 0.94907 0.0
H414 H 0.25896 0.81748 0.88971 0.0
H415 H 0.21263 0.77099 0.94208 0.0
S416 S 0.14112 0.90903 0.92201 0.0
N417 N 0.18236 0.91294 0.89267 0.0
N418 N 0.13372 0.86409 0.94917 0.0
C419 C 0.16573 0.85036 0.935 0.0
C420 C 0.19171 0.87649 0.9042 0.0
C421 C 0.40342 0.22248 0.11954 0.0
C422 C 0.4049 0.17756 0.11632 0.0
C423 C 0.40496 0.2502 0.08995 0.0
C424 C 0.40659 0.23313 0.05609 0.0
H425 H 0.39936 0.23544 0.14506 0.0
H426 H 0.40163 0.28343 0.09354 0.0
S427 S 0.41511 0.12017 0.03349 0.0
N428 N 0.41225 0.11954 0.07664 0.0
N429 N 0.41327 0.17072 0.02101 0.0
C430 C 0.4104 0.18961 0.05255 0.0
C431 C 0.41012 0.16207 0.08269 0.0
loop_
_geom_bond_atom_site_label_1
_geom_bond_atom_site_label_2
_geom_bond_distance
_geom_bond_site_symmetry_2
_ccdc_geom_bond_type
O0 Cd1 2.223 . S
O0 C8 1.315 . S
Cd1 O0 2.223 . S
Cd1 O4 2.297 . S
Cd1 O5 2.439 . S
Cd1 O11 2.240 . S
Cd2 O3 2.240 . S
Cd2 O10 2.223 . S
Cd2 O12 2.297 . S
Cd2 O13 2.439 . S
O3 Cd2 2.240 . S
O3 C8 1.279 . S
O4 Cd1 2.297 . S
O4 C6 1.247 . S
O5 Cd1 2.439 . S
O5 C6 1.208 . S
C6 O4 1.247 . S
C6 O5 1.208 . S
C7 O12 1.247 . S
C7 O13 1.208 . S
C8 O0 1.315 . S
C8 O3 1.279 . S
C9 O10 1.315 . S
C9 O11 1.279 . S
O10 Cd2 2.223 . S
O10 C9 1.315 . S
O11 Cd1 2.240 . S
O11 C9 1.279 . S
O12 Cd2 2.297 . S
O12 C7 1.247 . S
O13 Cd2 2.439 . S
O13 C7 1.208 . S
O14 Cd15 2.223 . S
O14 C22 1.315 . S
Cd15 O14 2.223 . S
Cd15 O18 2.297 . S
Cd15 O19 2.439 . S
Cd15 O25 2.240 . S
Cd16 O17 2.240 . S
Cd16 O24 2.223 . S
Cd16 O26 2.297 . S
Cd16 O27 2.439 . S
O17 Cd16 2.240 . S
O17 C22 1.279 . S
O18 Cd15 2.297 . S
O18 C20 1.247 . S
O19 Cd15 2.439 . S
O19 C20 1.208 . S
C20 O18 1.247 . S
C20 O19 1.208 . S
C21 O26 1.247 . S
C21 O27 1.208 . S
C22 O14 1.315 . S
C22 O17 1.279 . S
C23 O24 1.315 . S
C23 O25 1.279 . S
O24 Cd16 2.223 . S
O24 C23 1.315 . S
O25 Cd15 2.240 . S
O25 C23 1.279 . S
O26 Cd16 2.297 . S
O26 C21 1.247 . S
O27 Cd16 2.439 . S
O27 C21 1.208 . S
O28 Cd29 2.223 . S
O28 C36 1.315 . S
Cd29 O28 2.223 . S
Cd29 O32 2.297 . S
Cd29 O33 2.439 . S
Cd29 O39 2.240 . S
Cd30 O31 2.240 . S
Cd30 O38 2.223 . S
Cd30 O40 2.297 . S
Cd30 O41 2.439 . S
O31 Cd30 2.240 . S
O31 C36 1.279 . S
O32 Cd29 2.297 . S
O32 C34 1.247 . S
O33 Cd29 2.439 . S
O33 C34 1.208 . S
C34 O32 1.247 . S
C34 O33 1.208 . S
C35 O40 1.247 . S
C35 O41 1.208 . S
C36 O28 1.315 . S
C36 O31 1.279 . S
C37 O38 1.315 . S
C37 O39 1.279 . S
O38 Cd30 2.223 . S
O38 C37 1.315 . S
O39 Cd29 2.240 . S
O39 C37 1.279 . S
O40 Cd30 2.297 . S
O40 C35 1.247 . S
O41 Cd30 2.439 . S
O41 C35 1.208 . S
O42 Cd43 2.223 . S
O42 C50 1.315 . S
Cd43 O42 2.223 . S
Cd43 O46 2.297 . S
Cd43 O47 2.439 . S
Cd43 O53 2.240 . S
Cd44 O45 2.240 . S
Cd44 O52 2.223 . S
Cd44 O54 2.297 . S
Cd44 O55 2.439 . S
O45 Cd44 2.240 . S
O45 C50 1.279 . S
O46 Cd43 2.297 . S
O46 C48 1.247 . S
O47 Cd43 2.439 . S
O47 C48 1.208 . S
C48 O46 1.247 . S
C48 O47 1.208 . S
C49 O54 1.247 . S
C49 O55 1.208 . S
C50 O42 1.315 . S
C50 O45 1.279 . S
C51 O52 1.315 . S
C51 O53 1.279 . S
O52 Cd44 2.223 . S
O52 C51 1.315 . S
O53 Cd43 2.240 . S
O53 C51 1.279 . S
O54 Cd44 2.297 . S
O54 C49 1.247 . S
O55 Cd44 2.439 . S
O55 C49 1.208 . S
O56 Cd57 2.223 . S
O56 C64 1.315 . S
Cd57 O56 2.223 . S
Cd57 O60 2.297 . S
Cd57 O61 2.439 . S
Cd57 O67 2.240 . S
Cd58 O59 2.240 . S
Cd58 O66 2.223 . S
Cd58 O68 2.297 . S
Cd58 O69 2.439 . S
O59 Cd58 2.240 . S
O59 C64 1.279 . S
O60 Cd57 2.297 . S
O60 C62 1.247 . S
O61 Cd57 2.439 . S
O61 C62 1.208 . S
C62 O60 1.247 . S
C62 O61 1.208 . S
C63 O68 1.247 . S
C63 O69 1.208 . S
C64 O56 1.315 . S
C64 O59 1.279 . S
C65 O66 1.315 . S
C65 O67 1.279 . S
O66 Cd58 2.223 . S
O66 C65 1.315 . S
O67 Cd57 2.240 . S
O67 C65 1.279 . S
O68 Cd58 2.297 . S
O68 C63 1.247 . S
O69 Cd58 2.439 . S
O69 C63 1.208 . S
O70 Cd71 2.223 1_554 S
O70 C78 1.315 1_554 S
Cd71 O70 2.223 1_556 S
Cd71 O74 2.297 . S
Cd71 O75 2.439 . S
Cd71 O81 2.240 . S
Cd72 O73 2.240 . S
Cd72 O80 2.223 1_556 S
Cd72 O82 2.297 . S
Cd72 O83 2.439 . S
O73 Cd72 2.240 . S
O73 C78 1.279 . S
O74 Cd71 2.297 . S
O74 C76 1.247 . S
O75 Cd71 2.439 . S
O75 C76 1.208 . S
C76 O74 1.247 . S
C76 O75 1.208 . S
C77 O82 1.247 . S
C77 O83 1.208 . S
C78 O70 1.315 1_556 S
C78 O73 1.279 . S
C79 O80 1.315 . S
C79 O81 1.279 1_554 S
O80 Cd72 2.223 1_554 S
O80 C79 1.315 . S
O81 Cd71 2.240 . S
O81 C79 1.279 1_556 S
O82 Cd72 2.297 . S
O82 C77 1.247 . S
O83 Cd72 2.439 . S
O83 C77 1.208 . S
O84 Cd85 2.223 . S
O84 C92 1.315 . S
Cd85 O84 2.223 . S
Cd85 O88 2.297 . S
Cd85 O89 2.439 . S
Cd85 O95 2.240 . S
Cd86 O87 2.240 . S
Cd86 O94 2.223 . S
Cd86 O96 2.297 . S
Cd86 O97 2.439 . S
O87 Cd86 2.240 . S
O87 C92 1.279 . S
O88 Cd85 2.297 . S
O88 C90 1.247 . S
O89 Cd85 2.439 . S
O89 C90 1.208 . S
C90 O88 1.247 . S
C90 O89 1.208 . S
C91 O96 1.247 . S
C91 O97 1.208 . S
C92 O84 1.315 . S
C92 O87 1.279 . S
C93 O94 1.315 . S
C93 O95 1.279 . S
O94 Cd86 2.223 . S
O94 C93 1.315 . S
O95 Cd85 2.240 . S
O95 C93 1.279 . S
O96 Cd86 2.297 . S
O96 C91 1.247 . S
O97 Cd86 2.439 . S
O97 C91 1.208 . S
O98 Cd99 2.223 . S
O98 C106 1.315 . S
Cd99 O98 2.223 . S
Cd99 O102 2.297 . S
Cd99 O103 2.439 . S
Cd99 O109 2.240 . S
Cd100 O101 2.240 . S
Cd100 O108 2.223 . S
Cd100 O110 2.297 . S
Cd100 O111 2.439 . S
O101 Cd100 2.240 . S
O101 C106 1.279 . S
O102 Cd99 2.297 . S
O102 C104 1.247 . S
O103 Cd99 2.439 . S
O103 C104 1.208 . S
C104 O102 1.247 . S
C104 O103 1.208 . S
C105 O110 1.247 . S
C105 O111 1.208 . S
C106 O98 1.315 . S
C106 O101 1.279 . S
C107 O108 1.315 . S
C107 O109 1.279 . S
O108 Cd100 2.223 . S
O108 C107 1.315 . S
O109 Cd99 2.240 . S
O109 C107 1.279 . S
O110 Cd100 2.297 . S
O110 C105 1.247 . S
O111 Cd100 2.439 . S
O111 C105 1.208 . S
O112 Cd113 2.223 1_556 S
O112 C120 1.315 1_556 S
Cd113 O112 2.223 1_554 S
Cd113 O116 2.297 . S
Cd113 O117 2.439 . S
Cd113 O123 2.240 . S
Cd114 O115 2.240 . S
Cd114 O122 2.223 1_554 S
Cd114 O124 2.297 . S
Cd114 O125 2.439 . S
O115 Cd114 2.240 . S
O115 C120 1.279 . S
O116 Cd113 2.297 . S
O116 C118 1.247 . S
O117 Cd113 2.439 . S
O117 C118 1.208 . S
C118 O116 1.247 . S
C118 O117 1.208 . S
C119 O124 1.247 . S
C119 O125 1.208 . S
C120 O112 1.315 1_554 S
C120 O115 1.279 . S
C121 O122 1.315 . S
C121 O123 1.279 1_556 S
O122 Cd114 2.223 1_556 S
O122 C121 1.315 . S
O123 Cd113 2.240 . S
O123 C121 1.279 1_554 S
O124 Cd114 2.297 . S
O124 C119 1.247 . S
O125 Cd114 2.439 . S
O125 C119 1.208 . S
O126 Cd127 2.223 . S
O126 C134 1.315 . S
Cd127 O126 2.223 . S
Cd127 O130 2.297 . S
Cd127 O131 2.439 . S
Cd127 O137 2.240 . S
Cd128 O129 2.240 . S
Cd128 O136 2.223 . S
Cd128 O138 2.297 . S
Cd128 O139 2.439 . S
O129 Cd128 2.240 . S
O129 C134 1.279 . S
O130 Cd127 2.297 . S
O130 C132 1.247 . S
O131 Cd127 2.439 . S
O131 C132 1.208 . S
C132 O130 1.247 . S
C132 O131 1.208 . S
C133 O138 1.247 . S
C133 O139 1.208 . S
C134 O126 1.315 . S
C134 O129 1.279 . S
C135 O136 1.315 . S
C135 O137 1.279 . S
O136 Cd128 2.223 . S
O136 C135 1.315 . S
O137 Cd127 2.240 . S
O137 C135 1.279 . S
O138 Cd128 2.297 . S
O138 C133 1.247 . S
O139 Cd128 2.439 . S
O139 C133 1.208 . S
O140 Cd141 2.223 . S
O140 C148 1.315 . S
Cd141 O140 2.223 . S
Cd141 O144 2.297 . S
Cd141 O145 2.439 . S
Cd141 O151 2.240 . S
Cd142 O143 2.240 . S
Cd142 O150 2.223 . S
Cd142 O152 2.297 . S
Cd142 O153 2.439 . S
O143 Cd142 2.240 . S
O143 C148 1.279 . S
O144 Cd141 2.297 . S
O144 C146 1.247 . S
O145 Cd141 2.439 . S
O145 C146 1.208 . S
C146 O144 1.247 . S
C146 O145 1.208 . S
C147 O152 1.247 . S
C147 O153 1.208 . S
C148 O140 1.315 . S
C148 O143 1.279 . S
C149 O150 1.315 . S
C149 O151 1.279 . S
O150 Cd142 2.223 . S
O150 C149 1.315 . S
O151 Cd141 2.240 . S
O151 C149 1.279 . S
O152 Cd142 2.297 . S
O152 C147 1.247 . S
O153 Cd142 2.439 . S
O153 C147 1.208 . S
O154 Cd155 2.223 . S
O154 C162 1.315 . S
Cd155 O154 2.223 . S
Cd155 O158 2.297 . S
Cd155 O159 2.439 . S
Cd155 O165 2.240 . S
Cd156 O157 2.240 . S
Cd156 O164 2.223 . S
Cd156 O166 2.297 . S
Cd156 O167 2.439 . S
O157 Cd156 2.240 . S
O157 C162 1.279 . S
O158 Cd155 2.297 . S
O158 C160 1.247 . S
O159 Cd155 2.439 . S
O159 C160 1.208 . S
C160 O158 1.247 . S
C160 O159 1.208 . S
C161 O166 1.247 . S
C161 O167 1.208 . S
C162 O154 1.315 . S
C162 O157 1.279 . S
C163 O164 1.315 . S
C163 O165 1.279 . S
O164 Cd156 2.223 . S
O164 C163 1.315 . S
O165 Cd155 2.240 . S
O165 C163 1.279 . S
O166 Cd156 2.297 . S
O166 C161 1.247 . S
O167 Cd156 2.439 . S
O167 C161 1.208 . S
C168 C169 1.369 . S
C168 C170 1.419 . S
C168 H172 0.930 . S
C169 C168 1.369 . S
C169 C178 1.429 . S
C170 C168 1.419 . S
C170 C171 1.363 . S
C170 H173 0.929 . S
C171 C170 1.363 . S
C171 C177 1.428 . S
H172 C168 0.930 . S
H173 C170 0.929 . S
S174 N175 1.613 . S
S174 N176 1.610 . S
N175 S174 1.613 . S
N175 C178 1.350 1_655 S
N176 S174 1.610 . S
N176 C177 1.351 1_655 S
C177 C171 1.428 . S
C177 N176 1.351 1_455 S
C177 C178 1.434 . S
C178 C169 1.429 . S
C178 N175 1.350 1_455 S
C178 C177 1.434 . S
C179 C180 1.369 . S
C179 C181 1.419 . S
C179 H183 0.930 . S
C180 C179 1.369 . S
C180 C189 1.429 . S
C181 C179 1.419 . S
C181 C182 1.363 . S
C181 H184 0.929 . S
C182 C181 1.363 . S
C182 C188 1.428 . S
H183 C179 0.930 . S
H184 C181 0.929 . S
S185 N186 1.613 . S
S185 N187 1.610 . S
N186 S185 1.613 . S
N186 C189 1.350 . S
N187 S185 1.610 . S
N187 C188 1.351 . S
C188 C182 1.428 . S
C188 N187 1.351 . S
C188 C189 1.434 . S
C189 C180 1.429 . S
C189 N186 1.350 . S
C189 C188 1.434 . S
C190 C191 1.369 . S
C190 C192 1.419 . S
C190 H194 0.930 . S
C191 C190 1.369 . S
C191 C200 1.429 . S
C192 C190 1.419 . S
C192 C193 1.363 . S
C192 H195 0.929 . S
C193 C192 1.363 . S
C193 C199 1.428 . S
H194 C190 0.930 . S
H195 C192 0.929 . S
S196 N197 1.613 . S
S196 N198 1.610 . S
N197 S196 1.613 . S
N197 C200 1.350 . S
N198 S196 1.610 . S
N198 C199 1.351 . S
C199 C193 1.428 . S
C199 N198 1.351 . S
C199 C200 1.434 . S
C200 C191 1.429 . S
C200 N197 1.350 . S
C200 C199 1.434 . S
C201 C202 1.369 . S
C201 C203 1.419 . S
C201 H205 0.930 . S
C202 C201 1.369 . S
C202 C211 1.429 . S
C203 C201 1.419 . S
C203 C204 1.363 . S
C203 H206 0.929 . S
C204 C203 1.363 . S
C204 C210 1.428 . S
H205 C201 0.930 . S
H206 C203 0.929 . S
S207 N208 1.613 . S
S207 N209 1.610 . S
N208 S207 1.613 . S
N208 C211 1.350 1_455 S
N209 S207 1.610 . S
N209 C210 1.351 1_455 S
C210 C204 1.428 . S
C210 N209 1.351 1_655 S
C210 C211 1.434 . S
C211 C202 1.429 . S
C211 N208 1.350 1_655 S
C211 C210 1.434 . S
C212 C213 1.369 . S
C212 C214 1.419 . S
C212 H216 0.930 . S
C213 C212 1.369 . S
C213 C222 1.429 . S
C214 C212 1.419 . S
C214 C215 1.363 . S
C214 H217 0.929 . S
C215 C214 1.363 . S
C215 C221 1.428 . S
H216 C212 0.930 . S
H217 C214 0.929 . S
S218 N219 1.613 . S
S218 N220 1.610 . S
N219 S218 1.613 . S
N219 C222 1.350 1_545 S
N220 S218 1.610 . S
N220 C221 1.351 1_545 S
C221 C215 1.428 . S
C221 N220 1.351 1_565 S
C221 C222 1.434 . S
C222 C213 1.429 . S
C222 N219 1.350 1_565 S
C222 C221 1.434 . S
C223 C224 1.369 . S
C223 C225 1.419 . S
C223 H227 0.930 . S
C224 C223 1.369 . S
C224 C233 1.429 . S
C225 C223 1.419 . S
C225 C226 1.363 . S
C225 H228 0.929 . S
C226 C225 1.363 . S
C226 C232 1.428 . S
H227 C223 0.930 . S
H228 C225 0.929 . S
S229 N230 1.613 . S
S229 N231 1.610 . S
N230 S229 1.613 . S
N230 C233 1.350 . S
N231 S229 1.610 . S
N231 C232 1.351 . S
C232 C226 1.428 . S
C232 N231 1.351 . S
C232 C233 1.434 . S
C233 C224 1.429 . S
C233 N230 1.350 . S
C233 C232 1.434 . S
C234 C235 1.369 . S
C234 C236 1.419 . S
C234 H238 0.930 . S
C235 C234 1.369 . S
C235 C244 1.429 . S
C236 C234 1.419 . S
C236 C237 1.363 . S
C236 H239 0.929 . S
C237 C236 1.363 . S
C237 C243 1.428 1_554 S
H238 C234 0.930 . S
H239 C236 0.929 . S
S240 N241 1.613 . S
S240 N242 1.610 . S
N241 S240 1.613 . S
N241 C244 1.350 1_556 S
N242 S240 1.610 . S
N242 C243 1.351 . S
C243 C237 1.428 1_556 S
C243 N242 1.351 . S
C243 C244 1.434 1_556 S
C244 C235 1.429 . S
C244 N241 1.350 1_554 S
C244 C243 1.434 1_554 S
C245 C246 1.369 . S
C245 C247 1.419 . S
C245 H249 0.930 . S
C246 C245 1.369 . S
C246 C255 1.429 . S
C247 C245 1.419 . S
C247 C248 1.363 . S
C247 H250 0.929 . S
C248 C247 1.363 . S
C248 C254 1.428 . S
H249 C245 0.930 . S
H250 C247 0.929 . S
S251 N252 1.613 . S
S251 N253 1.610 . S
N252 S251 1.613 . S
N252 C255 1.350 . S
N253 S251 1.610 . S
N253 C254 1.351 . S
C254 C248 1.428 . S
C254 N253 1.351 . S
C254 C255 1.434 . S
C255 C246 1.429 . S
C255 N252 1.350 . S
C255 C254 1.434 . S
C256 C257 1.369 . S
C256 C258 1.419 . S
C256 H260 0.930 . S
C257 C256 1.369 . S
C257 C266 1.429 . S
C258 C256 1.419 . S
C258 C259 1.363 . S
C258 H261 0.929 . S
C259 C258 1.363 . S
C259 C265 1.428 . S
H260 C256 0.930 . S
H261 C258 0.929 . S
S262 N263 1.613 . S
S262 N264 1.610 . S
N263 S262 1.613 . S
N263 C266 1.350 . S
N264 S262 1.610 . S
N264 C265 1.351 . S
C265 C259 1.428 . S
C265 N264 1.351 . S
C265 C266 1.434 . S
C266 C257 1.429 . S
C266 N263 1.350 . S
C266 C265 1.434 . S
C267 C268 1.369 . S
C267 C269 1.419 . S
C267 H271 0.930 . S
C268 C267 1.369 . S
C268 C277 1.429 . S
C269 C267 1.419 . S
C269 C270 1.363 . S
C269 H272 0.929 . S
C270 C269 1.363 . S
C270 C276 1.428 . S
H271 C267 0.930 . S
H272 C269 0.929 . S
S273 N274 1.613 . S
S273 N275 1.610 . S
N274 S273 1.613 . S
N274 C277 1.350 . S
N275 S273 1.610 . S
N275 C276 1.351 . S
C276 C270 1.428 . S
C276 N275 1.351 . S
C276 C277 1.434 . S
C277 C268 1.429 . S
C277 N274 1.350 . S
C277 C276 1.434 . S
C278 C279 1.369 . S
C278 C280 1.419 . S
C278 H282 0.930 . S
C279 C278 1.369 . S
C279 C288 1.429 . S
C280 C278 1.419 . S
C280 C281 1.363 . S
C280 H283 0.929 . S
C281 C280 1.363 . S
C281 C287 1.428 . S
H282 C278 0.930 . S
H283 C280 0.929 . S
S284 N285 1.613 . S
S284 N286 1.610 . S
N285 S284 1.613 . S
N285 C288 1.350 . S
N286 S284 1.610 . S
N286 C287 1.351 . S
C287 C281 1.428 . S
C287 N286 1.351 . S
C287 C288 1.434 . S
C288 C279 1.429 . S
C288 N285 1.350 . S
C288 C287 1.434 . S
C289 C290 1.369 . S
C289 C291 1.419 . S
C289 H293 0.930 . S
C290 C289 1.369 . S
C290 C299 1.429 . S
C291 C289 1.419 . S
C291 C292 1.363 . S
C291 H294 0.929 . S
C292 C291 1.363 . S
C292 C298 1.428 . S
H293 C289 0.930 . S
H294 C291 0.929 . S
S295 N296 1.613 . S
S295 N297 1.610 . S
N296 S295 1.613 . S
N296 C299 1.350 . S
N297 S295 1.610 . S
N297 C298 1.351 . S
C298 C292 1.428 . S
C298 N297 1.351 . S
C298 C299 1.434 . S
C299 C290 1.429 . S
C299 N296 1.350 . S
C299 C298 1.434 . S
C300 C301 1.369 . S
C300 C302 1.419 . S
C300 H304 0.930 . S
C301 C300 1.369 . S
C301 C310 1.429 . S
C302 C300 1.419 . S
C302 C303 1.363 . S
C302 H305 0.929 . S
C303 C302 1.363 . S
C303 C309 1.428 . S
H304 C300 0.930 . S
H305 C302 0.929 . S
S306 N307 1.613 . S
S306 N308 1.610 . S
N307 S306 1.613 . S
N307 C310 1.350 . S
N308 S306 1.610 . S
N308 C309 1.351 . S
C309 C303 1.428 . S
C309 N308 1.351 . S
C309 C310 1.434 . S
C310 C301 1.429 . S
C310 N307 1.350 . S
C310 C309 1.434 . S
C311 C312 1.369 . S
C311 C313 1.419 . S
C311 H315 0.930 . S
C312 C311 1.369 . S
C312 C321 1.429 . S
C313 C311 1.419 . S
C313 C314 1.363 . S
C313 H316 0.929 . S
C314 C313 1.363 . S
C314 C320 1.428 . S
H315 C311 0.930 . S
H316 C313 0.929 . S
S317 N318 1.613 1_554 S
S317 N319 1.610 . S
N318 S317 1.613 1_556 S
N318 C321 1.350 . S
N319 S317 1.610 . S
N319 C320 1.351 1_554 S
C320 C314 1.428 . S
C320 N319 1.351 1_556 S
C320 C321 1.434 . S
C321 C312 1.429 . S
C321 N318 1.350 . S
C321 C320 1.434 . S
C322 C323 1.369 . S
C322 C324 1.419 . S
C322 H326 0.930 . S
C323 C322 1.369 . S
C323 C332 1.429 . S
C324 C322 1.419 . S
C324 C325 1.363 . S
C324 H327 0.929 . S
C325 C324 1.363 . S
C325 C331 1.428 . S
H326 C322 0.930 . S
H327 C324 0.929 . S
S328 N329 1.613 . S
S328 N330 1.610 . S
N329 S328 1.613 . S
N329 C332 1.350 . S
N330 S328 1.610 . S
N330 C331 1.351 . S
C331 C325 1.428 . S
C331 N330 1.351 . S
C331 C332 1.434 . S
C332 C323 1.429 . S
C332 N329 1.350 . S
C332 C331 1.434 . S
C333 C334 1.369 . S
C333 C335 1.419 . S
C333 H337 0.930 . S
C334 C333 1.369 . S
C334 C343 1.429 . S
C335 C333 1.419 . S
C335 C336 1.363 . S
C335 H338 0.929 . S
C336 C335 1.363 . S
C336 C342 1.428 . S
H337 C333 0.930 . S
H338 C335 0.929 . S
S339 N340 1.613 . S
S339 N341 1.610 . S
N340 S339 1.613 . S
N340 C343 1.350 . S
N341 S339 1.610 . S
N341 C342 1.351 . S
C342 C336 1.428 . S
C342 N341 1.351 . S
C342 C343 1.434 . S
C343 C334 1.429 . S
C343 N340 1.350 . S
C343 C342 1.434 . S
C344 C345 1.369 . S
C344 C346 1.419 . S
C344 H348 0.930 . S
C345 C344 1.369 . S
C345 C354 1.429 . S
C346 C344 1.419 . S
C346 C347 1.363 . S
C346 H349 0.929 . S
C347 C346 1.363 . S
C347 C353 1.428 . S
H348 C344 0.930 . S
H349 C346 0.929 . S
S350 N351 1.613 . S
S350 N352 1.610 1_455 S
N351 S350 1.613 . S
N351 C354 1.350 . S
N352 S350 1.610 1_655 S
N352 C353 1.351 1_655 S
C353 C347 1.428 . S
C353 N352 1.351 1_455 S
C353 C354 1.434 . S
C354 C345 1.429 . S
C354 N351 1.350 . S
C354 C353 1.434 . S
C355 C356 1.369 . S
C355 C357 1.419 . S
C355 H359 0.930 . S
C356 C355 1.369 . S
C356 C365 1.429 . S
C357 C355 1.419 . S
C357 C358 1.363 . S
C357 H360 0.929 . S
C358 C357 1.363 . S
C358 C364 1.428 . S
H359 C355 0.930 . S
H360 C357 0.929 . S
S361 N362 1.613 . S
S361 N363 1.610 . S
N362 S361 1.613 . S
N362 C365 1.350 . S
N363 S361 1.610 . S
N363 C364 1.351 . S
C364 C358 1.428 . S
C364 N363 1.351 . S
C364 C365 1.434 . S
C365 C356 1.429 . S
C365 N362 1.350 . S
C365 C364 1.434 . S
C366 C367 1.369 . S
C366 C368 1.419 . S
C366 H370 0.930 . S
C367 C366 1.369 . S
C367 C376 1.429 . S
C368 C366 1.419 . S
C368 C369 1.363 . S
C368 H371 0.929 . S
C369 C368 1.363 . S
C369 C375 1.428 . S
H370 C366 0.930 . S
H371 C368 0.929 . S
S372 N373 1.613 . S
S372 N374 1.610 . S
N373 S372 1.613 . S
N373 C376 1.350 . S
N374 S372 1.610 . S
N374 C375 1.351 . S
C375 C369 1.428 . S
C375 N374 1.351 . S
C375 C376 1.434 . S
C376 C367 1.429 . S
C376 N373 1.350 . S
C376 C375 1.434 . S
C377 C378 1.369 . S
C377 C379 1.419 . S
C377 H381 0.930 . S
C378 C377 1.369 . S
C378 C387 1.429 . S
C379 C377 1.419 . S
C379 C380 1.363 . S
C379 H382 0.929 . S
C380 C379 1.363 . S
C380 C386 1.428 . S
H381 C377 0.930 . S
H382 C379 0.929 . S
S383 N384 1.613 . S
S383 N385 1.610 . S
N384 S383 1.613 . S
N384 C387 1.350 . S
N385 S383 1.610 . S
N385 C386 1.351 . S
C386 C380 1.428 . S
C386 N385 1.351 . S
C386 C387 1.434 . S
C387 C378 1.429 . S
C387 N384 1.350 . S
C387 C386 1.434 . S
C388 C389 1.369 . S
C388 C390 1.419 . S
C388 H392 0.930 . S
C389 C388 1.369 . S
C389 C398 1.429 . S
C390 C388 1.419 . S
C390 C391 1.363 . S
C390 H393 0.929 . S
C391 C390 1.363 . S
C391 C397 1.428 . S
H392 C388 0.930 . S
H393 C390 0.929 . S
S394 N395 1.613 . S
S394 N396 1.610 . S
N395 S394 1.613 . S
N395 C398 1.350 . S
N396 S394 1.610 . S
N396 C397 1.351 . S
C397 C391 1.428 . S
C397 N396 1.351 . S
C397 C398 1.434 . S
C398 C389 1.429 . S
C398 N395 1.350 . S
C398 C397 1.434 . S
C399 C400 1.369 . S
C399 C401 1.419 . S
C399 H403 0.930 . S
C400 C399 1.369 . S
C400 C409 1.429 . S
C401 C399 1.419 . S
C401 C402 1.363 . S
C401 H404 0.929 . S
C402 C401 1.363 . S
C402 C408 1.428 . S
H403 C399 0.930 . S
H404 C401 0.929 . S
S405 N406 1.613 . S
S405 N407 1.610 . S
N406 S405 1.613 . S
N406 C409 1.350 . S
N407 S405 1.610 . S
N407 C408 1.351 . S
C408 C402 1.428 . S
C408 N407 1.351 . S
C408 C409 1.434 . S
C409 C400 1.429 . S
C409 N406 1.350 . S
C409 C408 1.434 . S
C410 C411 1.369 . S
C410 C412 1.419 . S
C410 H414 0.930 . S
C411 C410 1.369 . S
C411 C420 1.429 . S
C412 C410 1.419 . S
C412 C413 1.363 . S
C412 H415 0.929 . S
C413 C412 1.363 . S
C413 C419 1.428 . S
H414 C410 0.930 . S
H415 C412 0.929 . S
S416 N417 1.613 . S
S416 N418 1.610 . S
N417 S416 1.613 . S
N417 C420 1.350 . S
N418 S416 1.610 . S
N418 C419 1.351 . S
C419 C413 1.428 . S
C419 N418 1.351 . S
C419 C420 1.434 . S
C420 C411 1.429 . S
C420 N417 1.350 . S
C420 C419 1.434 . S
C421 C422 1.369 . S
C421 C423 1.419 . S
C421 H425 0.930 . S
C422 C421 1.369 . S
C422 C431 1.429 . S
C423 C421 1.419 . S
C423 C424 1.363 . S
C423 H426 0.929 . S
C424 C423 1.363 . S
C424 C430 1.428 . S
H425 C421 0.930 . S
H426 C423 0.929 . S
S427 N428 1.613 . S
S427 N429 1.610 . S
N428 S427 1.613 . S
N428 C431 1.350 . S
N429 S427 1.610 . S
N429 C430 1.351 . S
C430 C424 1.428 . S
C430 N429 1.351 . S
C430 C431 1.434 . S
C431 C422 1.429 . S
C431 N428 1.350 . S
C431 C430 1.434 . S
C169 C118 1.504 . S
C171 C6 1.502 . S
C180 C20 1.499 . S
C182 C132 1.505 . S
C191 C34 1.498 . S
C193 C146 1.506 . S
C202 C48 1.504 . S
C204 C160 1.502 . S
C213 C90 1.500 . S
C215 C62 1.505 . S
C224 C76 1.500 . S
C226 C104 1.499 . S
C235 C7 1.575 . S
C237 C78 1.586 1_554 S
C246 C21 1.573 . S
C248 C8 1.586 1_655 S
C257 C35 1.572 . S
C259 C22 1.586 1_565 S
C268 C36 1.586 . S
C270 C49 1.576 . S
C279 C50 1.586 1_455 S
C281 C63 1.573 . S
C290 C64 1.587 1_545 S
C292 C77 1.575 . S
C301 C106 1.583 . S
C303 C91 1.572 . S
C312 C105 1.572 . S
C314 C120 1.586 1_656 S
C323 C134 1.583 1_565 S
C325 C119 1.574 . S
C334 C133 1.572 . S
C336 C148 1.583 . S
C345 C147 1.573 . S
C347 C162 1.583 1_455 S
C356 C161 1.574 . S
C358 C92 1.584 1_545 S
C367 C149 1.496 . S
C369 C9 1.494 . S
C378 C163 1.492 . S
C380 C23 1.493 . S
C389 C93 1.492 . S
C391 C37 1.493 . S
C400 C51 1.492 . S
C402 C107 1.494 . S
C411 C65 1.493 . S
C413 C121 1.492 . S
C422 C135 1.495 . S
C424 C79 1.493 . S
