# Generated by pormake.
# Topology umn, (4)-cn, num edge types: 1
# Building blocks:
#     Node 0, Type 0, BuildingBlock: CEKHIL_clean_sbu_0, # of connection points: 4
#     Node 1, Type 0, BuildingBlock: CEKHIL_clean_sbu_0, # of connection points: 4
#     Node 2, Type 0, BuildingBlock: CEKHIL_clean_sbu_0, # of connection points: 4
#     Node 3, Type 0, BuildingBlock: CEKHIL_clean_sbu_0, # of connection points: 4
#     Node 4, Type 0, BuildingBlock: CEKHIL_clean_sbu_0, # of connection points: 4
#     Node 5, Type 0, BuildingBlock: CEKHIL_clean_sbu_0, # of connection points: 4
#     Node 6, Type 0, BuildingBlock: CEKHIL_clean_sbu_0, # of connection points: 4
#     Node 7, Type 0, BuildingBlock: CEKHIL_clean_sbu_0, # of connection points: 4
#     Node 8, Type 0, BuildingBlock: CEKHIL_clean_sbu_0, # of connection points: 4
#     Node 9, Type 0, BuildingBlock: CEKHIL_clean_sbu_0, # of connection points: 4
#     Node 10, Type 0, BuildingBlock: CEKHIL_clean_sbu_0, # of connection points: 4
#     Node 11, Type 0, BuildingBlock: CEKHIL_clean_sbu_0, # of connection points: 4
#     Node 12, Type 0, BuildingBlock: CEKHIL_clean_sbu_0, # of connection points: 4
#     Node 13, Type 0, BuildingBlock: CEKHIL_clean_sbu_0, # of connection points: 4
#     Node 14, Type 0, BuildingBlock: CEKHIL_clean_sbu_0, # of connection points: 4
#     Node 15, Type 0, BuildingBlock: CEKHIL_clean_sbu_0, # of connection points: 4
#     Node 16, Type 0, BuildingBlock: CEKHIL_clean_sbu_0, # of connection points: 4
#     Node 17, Type 0, BuildingBlock: CEKHIL_clean_sbu_0, # of connection points: 4
#     Node 18, Type 0, BuildingBlock: CEKHIL_clean_sbu_0, # of connection points: 4
#     Node 19, Type 0, BuildingBlock: CEKHIL_clean_sbu_0, # of connection points: 4
#     Node 20, Type 0, BuildingBlock: CEKHIL_clean_sbu_0, # of connection points: 4
#     Node 21, Type 0, BuildingBlock: CEKHIL_clean_sbu_0, # of connection points: 4
#     Node 22, Type 0, BuildingBlock: CEKHIL_clean_sbu_0, # of connection points: 4
#     Node 23, Type 0, BuildingBlock: CEKHIL_clean_sbu_0, # of connection points: 4
#     Node 24, Type 0, BuildingBlock: CEKHIL_clean_sbu_0, # of connection points: 4
#     Node 25, Type 0, BuildingBlock: CEKHIL_clean_sbu_0, # of connection points: 4
#     Node 26, Type 0, BuildingBlock: CEKHIL_clean_sbu_0, # of connection points: 4
#     Node 27, Type 0, BuildingBlock: CEKHIL_clean_sbu_0, # of connection points: 4
#     Node 28, Type 0, BuildingBlock: CEKHIL_clean_sbu_0, # of connection points: 4
#     Node 29, Type 0, BuildingBlock: CEKHIL_clean_sbu_0, # of connection points: 4
#     Node 30, Type 0, BuildingBlock: CEKHIL_clean_sbu_0, # of connection points: 4
#     Node 31, Type 0, BuildingBlock: CEKHIL_clean_sbu_0, # of connection points: 4
#     Node 32, Type 0, BuildingBlock: CEKHIL_clean_sbu_0, # of connection points: 4
#     Node 33, Type 0, BuildingBlock: CEKHIL_clean_sbu_0, # of connection points: 4
#     Node 34, Type 0, BuildingBlock: CEKHIL_clean_sbu_0, # of connection points: 4
#     Node 35, Type 0, BuildingBlock: CEKHIL_clean_sbu_0, # of connection points: 4
#     Edge 36, Type (0, 0), BuildingBlock: ZUJKAS_clean_linker_0, # of connection points: 2
#     Edge 37, Type (0, 0), BuildingBlock: ZUJKAS_clean_linker_0, # of connection points: 2
#     Edge 38, Type (0, 0), BuildingBlock: ZUJKAS_clean_linker_0, # of connection points: 2
#     Edge 39, Type (0, 0), BuildingBlock: ZUJKAS_clean_linker_0, # of connection points: 2
#     Edge 40, Type (0, 0), BuildingBlock: ZUJKAS_clean_linker_0, # of connection points: 2
#     Edge 41, Type (0, 0), BuildingBlock: ZUJKAS_clean_linker_0, # of connection points: 2
#     Edge 42, Type (0, 0), BuildingBlock: ZUJKAS_clean_linker_0, # of connection points: 2
#     Edge 43, Type (0, 0), BuildingBlock: ZUJKAS_clean_linker_0, # of connection points: 2
#     Edge 44, Type (0, 0), BuildingBlock: ZUJKAS_clean_linker_0, # of connection points: 2
#     Edge 45, Type (0, 0), BuildingBlock: ZUJKAS_clean_linker_0, # of connection points: 2
#     Edge 46, Type (0, 0), BuildingBlock: ZUJKAS_clean_linker_0, # of connection points: 2
#     Edge 47, Type (0, 0), BuildingBlock: ZUJKAS_clean_linker_0, # of connection points: 2
#     Edge 48, Type (0, 0), BuildingBlock: ZUJKAS_clean_linker_0, # of connection points: 2
#     Edge 49, Type (0, 0), BuildingBlock: ZUJKAS_clean_linker_0, # of connection points: 2
#     Edge 50, Type (0, 0), BuildingBlock: ZUJKAS_clean_linker_0, # of connection points: 2
#     Edge 51, Type (0, 0), BuildingBlock: ZUJKAS_clean_linker_0, # of connection points: 2
#     Edge 52, Type (0, 0), BuildingBlock: ZUJKAS_clean_linker_0, # of connection points: 2
#     Edge 53, Type (0, 0), BuildingBlock: ZUJKAS_clean_linker_0, # of connection points: 2
#     Edge 54, Type (0, 0), BuildingBlock: ZUJKAS_clean_linker_0, # of connection points: 2
#     Edge 55, Type (0, 0), BuildingBlock: ZUJKAS_clean_linker_0, # of connection points: 2
#     Edge 56, Type (0, 0), BuildingBlock: ZUJKAS_clean_linker_0, # of connection points: 2
#     Edge 57, Type (0, 0), BuildingBlock: ZUJKAS_clean_linker_0, # of connection points: 2
#     Edge 58, Type (0, 0), BuildingBlock: ZUJKAS_clean_linker_0, # of connection points: 2
#     Edge 59, Type (0, 0), BuildingBlock: ZUJKAS_clean_linker_0, # of connection points: 2
#     Edge 60, Type (0, 0), BuildingBlock: ZUJKAS_clean_linker_0, # of connection points: 2
#     Edge 61, Type (0, 0), BuildingBlock: ZUJKAS_clean_linker_0, # of connection points: 2
#     Edge 62, Type (0, 0), BuildingBlock: ZUJKAS_clean_linker_0, # of connection points: 2
#     Edge 63, Type (0, 0), BuildingBlock: ZUJKAS_clean_linker_0, # of connection points: 2
#     Edge 64, Type (0, 0), BuildingBlock: ZUJKAS_clean_linker_0, # of connection points: 2
#     Edge 65, Type (0, 0), BuildingBlock: ZUJKAS_clean_linker_0, # of connection points: 2
#     Edge 66, Type (0, 0), BuildingBlock: ZUJKAS_clean_linker_0, # of connection points: 2
#     Edge 67, Type (0, 0), BuildingBlock: ZUJKAS_clean_linker_0, # of connection points: 2
#     Edge 68, Type (0, 0), BuildingBlock: ZUJKAS_clean_linker_0, # of connection points: 2
#     Edge 69, Type (0, 0), BuildingBlock: ZUJKAS_clean_linker_0, # of connection points: 2
#     Edge 70, Type (0, 0), BuildingBlock: ZUJKAS_clean_linker_0, # of connection points: 2
#     Edge 71, Type (0, 0), BuildingBlock: ZUJKAS_clean_linker_0, # of connection points: 2
#     Edge 72, Type (0, 0), BuildingBlock: ZUJKAS_clean_linker_0, # of connection points: 2
#     Edge 73, Type (0, 0), BuildingBlock: ZUJKAS_clean_linker_0, # of connection points: 2
#     Edge 74, Type (0, 0), BuildingBlock: ZUJKAS_clean_linker_0, # of connection points: 2
#     Edge 75, Type (0, 0), BuildingBlock: ZUJKAS_clean_linker_0, # of connection points: 2
#     Edge 76, Type (0, 0), BuildingBlock: ZUJKAS_clean_linker_0, # of connection points: 2
#     Edge 77, Type (0, 0), BuildingBlock: ZUJKAS_clean_linker_0, # of connection points: 2
#     Edge 78, Type (0, 0), BuildingBlock: ZUJKAS_clean_linker_0, # of connection points: 2
#     Edge 79, Type (0, 0), BuildingBlock: ZUJKAS_clean_linker_0, # of connection points: 2
#     Edge 80, Type (0, 0), BuildingBlock: ZUJKAS_clean_linker_0, # of connection points: 2
#     Edge 81, Type (0, 0), BuildingBlock: ZUJKAS_clean_linker_0, # of connection points: 2
#     Edge 82, Type (0, 0), BuildingBlock: ZUJKAS_clean_linker_0, # of connection points: 2
#     Edge 83, Type (0, 0), BuildingBlock: ZUJKAS_clean_linker_0, # of connection points: 2
#     Edge 84, Type (0, 0), BuildingBlock: ZUJKAS_clean_linker_0, # of connection points: 2
#     Edge 85, Type (0, 0), BuildingBlock: ZUJKAS_clean_linker_0, # of connection points: 2
#     Edge 86, Type (0, 0), BuildingBlock: ZUJKAS_clean_linker_0, # of connection points: 2
#     Edge 87, Type (0, 0), BuildingBlock: ZUJKAS_clean_linker_0, # of connection points: 2
#     Edge 88, Type (0, 0), BuildingBlock: ZUJKAS_clean_linker_0, # of connection points: 2
#     Edge 89, Type (0, 0), BuildingBlock: ZUJKAS_clean_linker_0, # of connection points: 2
#     Edge 90, Type (0, 0), BuildingBlock: ZUJKAS_clean_linker_0, # of connection points: 2
#     Edge 91, Type (0, 0), BuildingBlock: ZUJKAS_clean_linker_0, # of connection points: 2
#     Edge 92, Type (0, 0), BuildingBlock: ZUJKAS_clean_linker_0, # of connection points: 2
#     Edge 93, Type (0, 0), BuildingBlock: ZUJKAS_clean_linker_0, # of connection points: 2
#     Edge 94, Type (0, 0), BuildingBlock: ZUJKAS_clean_linker_0, # of connection points: 2
#     Edge 95, Type (0, 0), BuildingBlock: ZUJKAS_clean_linker_0, # of connection points: 2
#     Edge 96, Type (0, 0), BuildingBlock: ZUJKAS_clean_linker_0, # of connection points: 2
#     Edge 97, Type (0, 0), BuildingBlock: ZUJKAS_clean_linker_0, # of connection points: 2
#     Edge 98, Type (0, 0), BuildingBlock: ZUJKAS_clean_linker_0, # of connection points: 2
#     Edge 99, Type (0, 0), BuildingBlock: ZUJKAS_clean_linker_0, # of connection points: 2
#     Edge 100, Type (0, 0), BuildingBlock: ZUJKAS_clean_linker_0, # of connection points: 2
#     Edge 101, Type (0, 0), BuildingBlock: ZUJKAS_clean_linker_0, # of connection points: 2
#     Edge 102, Type (0, 0), BuildingBlock: ZUJKAS_clean_linker_0, # of connection points: 2
#     Edge 103, Type (0, 0), BuildingBlock: ZUJKAS_clean_linker_0, # of connection points: 2
#     Edge 104, Type (0, 0), BuildingBlock: ZUJKAS_clean_linker_0, # of connection points: 2
#     Edge 105, Type (0, 0), BuildingBlock: ZUJKAS_clean_linker_0, # of connection points: 2
#     Edge 106, Type (0, 0), BuildingBlock: ZUJKAS_clean_linker_0, # of connection points: 2
#     Edge 107, Type (0, 0), BuildingBlock: ZUJKAS_clean_linker_0, # of connection points: 2
# Relax obj value: 0.180
# Max RMSD: 0.211
# Mean RMSD: 0.211
data_MOF--net-umn--node1-CEKHIL_clean_sbu_0--edge1-ZUJKAS_clean_linker_0
_symmetry_space_group_name_H-M    P1
_symmetry_Int_Tables_number       1
_symmetry_cell_setting            triclinic
loop_
_symmetry_equiv_pos_as_xyz
'x, y, z'
_cell_length_a     105.49311
_cell_length_b     105.51501
_cell_length_c     47.379148
_cell_angle_alpha  89.984668
_cell_angle_beta   89.969346
_cell_angle_gamma 120.00153
loop_
_atom_site_label
_atom_site_type_symbol
_atom_site_fract_x
_atom_site_fract_y
_atom_site_fract_z
_atom_type_partial_charge
Co0 Co 0.36743 0.10467 0.23088 0.0
O1 O 0.37261 0.12492 0.22948 0.0
O2 O 0.34998 0.10602 0.22829 0.0
C3 C 0.38352 0.10579 0.19801 0.0
O4 O 0.35772 0.08256 0.23047 0.0
Co5 Co 0.38892 0.09532 0.25247 0.0
O6 O 0.37496 0.07622 0.23541 0.0
C7 C 0.37146 0.10088 0.29404 0.0
C8 C 0.35865 0.1201 0.2273 0.0
C9 C 0.36183 0.07298 0.23029 0.0
O10 O 0.36593 0.10442 0.27341 0.0
O11 O 0.3813 0.0973 0.29042 0.0
O12 O 0.37128 0.10498 0.19092 0.0
O13 O 0.38662 0.10769 0.22481 0.0
Co14 Co 0.88901 0.26001 0.23194 0.0
O15 O 0.86892 0.24504 0.22705 0.0
O16 O 0.88777 0.24124 0.22849 0.0
C17 C 0.88934 0.27589 0.19956 0.0
O18 O 0.91107 0.27247 0.23543 0.0
Co19 Co 0.89706 0.29016 0.25556 0.0
O20 O 0.91701 0.29582 0.24237 0.0
C21 C 0.8903 0.26615 0.2955 0.0
C22 C 0.87376 0.23591 0.22538 0.0
C23 C 0.92057 0.28614 0.23752 0.0
O24 O 0.88734 0.25754 0.27426 0.0
O25 O 0.89401 0.27965 0.29274 0.0
O26 O 0.89065 0.26476 0.19225 0.0
O27 O 0.88603 0.2762 0.2259 0.0
Co28 Co 0.73309 0.62782 0.23234 0.0
O29 O 0.74847 0.62314 0.2293 0.0
O30 O 0.75149 0.64549 0.22704 0.0
C31 C 0.71732 0.61077 0.20195 0.0
O32 O 0.72021 0.63699 0.23328 0.0
Co33 Co 0.70337 0.60627 0.25852 0.0
O34 O 0.69711 0.61971 0.24296 0.0
C35 C 0.72782 0.62482 0.29646 0.0
C36 C 0.75722 0.6371 0.22576 0.0
C37 C 0.70654 0.63271 0.23582 0.0
O38 O 0.73585 0.63034 0.27445 0.0
O39 O 0.71449 0.61444 0.29499 0.0
O40 O 0.72824 0.62297 0.19305 0.0
O41 O 0.71713 0.60834 0.22892 0.0
Co42 Co 0.10307 0.36802 0.28385 0.0
O43 O 0.12351 0.37389 0.28478 0.0
O44 O 0.10514 0.35099 0.28699 0.0
C45 C 0.10387 0.38422 0.31599 0.0
O46 O 0.0809 0.35769 0.2847 0.0
Co47 Co 0.0926 0.38863 0.2618 0.0
O48 O 0.07384 0.3744 0.27977 0.0
C49 C 0.09861 0.37124 0.22076 0.0
C50 C 0.11917 0.36004 0.28737 0.0
C51 C 0.07101 0.3614 0.28499 0.0
O52 O 0.10258 0.36614 0.24143 0.0
O53 O 0.09461 0.38079 0.22415 0.0
O54 O 0.10354 0.37227 0.32369 0.0
O55 O 0.10548 0.38695 0.28905 0.0
Co56 Co 0.62469 0.7328 0.28461 0.0
O57 O 0.61875 0.74731 0.28595 0.0
O58 O 0.64169 0.75194 0.28764 0.0
C59 C 0.60865 0.71739 0.31698 0.0
O60 O 0.6351 0.72103 0.28496 0.0
Co61 Co 0.60409 0.70176 0.26263 0.0
O62 O 0.61845 0.69725 0.28001 0.0
C63 C 0.62138 0.72517 0.22151 0.0
C64 C 0.63259 0.75686 0.28838 0.0
C65 C 0.63146 0.70745 0.28501 0.0
O66 O 0.62642 0.73425 0.24218 0.0
O67 O 0.6119 0.71161 0.22493 0.0
O68 O 0.62064 0.729 0.32449 0.0
O69 O 0.60577 0.71622 0.29011 0.0
Co70 Co 0.26077 0.89139 0.28544 0.0
O71 O 0.24541 0.87165 0.29198 0.0
O72 O 0.24242 0.89099 0.28919 0.0
C73 C 0.2768 0.8918 0.31757 0.0
O74 O 0.27376 0.91325 0.28013 0.0
Co75 Co 0.29003 0.89773 0.26024 0.0
O76 O 0.29663 0.91826 0.27074 0.0
C77 C 0.26565 0.891 0.22156 0.0
C78 C 0.23669 0.87699 0.29328 0.0
C79 C 0.2874 0.92235 0.27611 0.0
O80 O 0.25761 0.88895 0.24338 0.0
O81 O 0.27901 0.89413 0.22347 0.0
O82 O 0.26601 0.89369 0.32483 0.0
O83 O 0.27663 0.88783 0.29148 0.0
Co84 Co 0.62768 0.89161 0.78481 0.0
O85 O 0.62287 0.87165 0.7903 0.0
O86 O 0.64538 0.89072 0.78824 0.0
C87 C 0.61219 0.89206 0.8174 0.0
O88 O 0.63697 0.91357 0.78075 0.0
Co89 Co 0.60523 0.89875 0.76013 0.0
O90 O 0.61941 0.91904 0.77153 0.0
C91 C 0.62269 0.89207 0.72085 0.0
C92 C 0.63689 0.87672 0.79178 0.0
C93 C 0.63264 0.92287 0.77721 0.0
O94 O 0.62854 0.88971 0.74253 0.0
O95 O 0.61255 0.89533 0.72304 0.0
O96 O 0.62469 0.89344 0.8244 0.0
O97 O 0.6084 0.88848 0.79115 0.0
Co98 Co 0.10311 0.73453 0.78535 0.0
O99 O 0.12329 0.74943 0.78913 0.0
O100 O 0.10449 0.75332 0.78952 0.0
C101 C 0.10312 0.71853 0.81695 0.0
O102 O 0.08101 0.72208 0.78328 0.0
Co103 Co 0.09481 0.70456 0.76049 0.0
O104 O 0.07514 0.69879 0.77562 0.0
C105 C 0.10121 0.72873 0.72143 0.0
C106 C 0.11854 0.7586 0.79156 0.0
C107 C 0.07157 0.70838 0.78149 0.0
O108 O 0.10403 0.73706 0.74306 0.0
O109 O 0.09784 0.7153 0.72356 0.0
O110 O 0.10211 0.72974 0.82491 0.0
O111 O 0.1061 0.71828 0.79037 0.0
Co112 Co 0.25944 0.36749 0.78752 0.0
O113 O 0.24399 0.37213 0.78917 0.0
O114 O 0.24096 0.34978 0.79148 0.0
C115 C 0.27461 0.3843 0.81902 0.0
O116 O 0.27233 0.35834 0.78796 0.0
Co117 Co 0.28977 0.38928 0.76378 0.0
O118 O 0.29564 0.3758 0.78068 0.0
C119 C 0.26617 0.37111 0.72387 0.0
C120 C 0.23519 0.35815 0.79222 0.0
C121 C 0.28608 0.36272 0.78704 0.0
O122 O 0.25764 0.36532 0.74518 0.0
O123 O 0.27944 0.38149 0.72648 0.0
O124 O 0.26348 0.37206 0.82717 0.0
O125 O 0.27532 0.38691 0.79205 0.0
Co126 Co 0.88892 0.6262 0.73322 0.0
O127 O 0.86867 0.62069 0.72926 0.0
O128 O 0.88725 0.6435 0.73029 0.0
C129 C 0.88919 0.61078 0.70042 0.0
O130 O 0.91105 0.63617 0.73578 0.0
Co131 Co 0.8978 0.60459 0.75597 0.0
O132 O 0.91742 0.619 0.7415 0.0
C133 C 0.89104 0.62154 0.79661 0.0
C134 C 0.87325 0.63462 0.72769 0.0
C135 C 0.92073 0.6322 0.73697 0.0
O136 O 0.88768 0.62701 0.77562 0.0
O137 O 0.89502 0.61197 0.7935 0.0
O138 O 0.89016 0.6231 0.69339 0.0
O139 O 0.88626 0.60718 0.72688 0.0
Co140 Co 0.36558 0.26088 0.73167 0.0
O141 O 0.37014 0.24547 0.72764 0.0
O142 O 0.34776 0.24245 0.72752 0.0
C143 C 0.382 0.27651 0.70001 0.0
O144 O 0.35658 0.27389 0.73414 0.0
Co145 Co 0.38808 0.29073 0.75634 0.0
O146 O 0.37431 0.29696 0.74259 0.0
C147 C 0.36993 0.26665 0.79553 0.0
C148 C 0.35612 0.23671 0.72519 0.0
C149 C 0.36107 0.2876 0.73682 0.0
O150 O 0.364 0.25836 0.77398 0.0
O151 O 0.38034 0.27993 0.79324 0.0
O152 O 0.36956 0.26561 0.69202 0.0
O153 O 0.38499 0.27671 0.72669 0.0
Co154 Co 0.73204 0.10535 0.73297 0.0
O155 O 0.74726 0.12527 0.72715 0.0
O156 O 0.75058 0.10613 0.72988 0.0
C157 C 0.71617 0.10482 0.7002 0.0
O158 O 0.71942 0.08341 0.73739 0.0
Co159 Co 0.70223 0.09796 0.75683 0.0
O160 O 0.69627 0.07757 0.74653 0.0
C161 C 0.72619 0.10456 0.79665 0.0
C162 C 0.75616 0.12012 0.72605 0.0
C163 C 0.70585 0.07395 0.74111 0.0
O164 O 0.73472 0.10748 0.77527 0.0
O165 O 0.71269 0.10085 0.79405 0.0
O166 O 0.72721 0.10327 0.69334 0.0
O167 O 0.71594 0.10852 0.72634 0.0
Co168 Co 0.03314 0.43743 0.56512 0.0
O169 O 0.03854 0.45772 0.56321 0.0
O170 O 0.01583 0.43895 0.56129 0.0
C171 C 0.04957 0.4383 0.53349 0.0
O172 O 0.0233 0.41532 0.56521 0.0
Co173 Co 0.05427 0.42811 0.58904 0.0
O174 O 0.04027 0.40881 0.57264 0.0
C175 C 0.03652 0.43421 0.62879 0.0
C176 C 0.02463 0.45302 0.56046 0.0
C177 C 0.02726 0.40564 0.56648 0.0
O178 O 0.03109 0.43732 0.60741 0.0
O179 O 0.04656 0.43083 0.62632 0.0
O180 O 0.03748 0.43759 0.52547 0.0
O181 O 0.05231 0.44028 0.56041 0.0
Co182 Co 0.55621 0.59413 0.56605 0.0
O183 O 0.53627 0.57842 0.56443 0.0
O184 O 0.55585 0.57581 0.56223 0.0
C185 C 0.55419 0.60901 0.53432 0.0
O186 O 0.57823 0.60755 0.56567 0.0
Co187 Co 0.56385 0.62433 0.58936 0.0
O188 O 0.58293 0.63064 0.57084 0.0
C189 C 0.55941 0.60111 0.62956 0.0
C190 C 0.54168 0.56982 0.5614 0.0
C191 C 0.58705 0.62145 0.5653 0.0
O192 O 0.55655 0.59243 0.60847 0.0
O193 O 0.56218 0.61433 0.62669 0.0
O194 O 0.55561 0.59804 0.52632 0.0
O195 O 0.55217 0.60965 0.56125 0.0
Co196 Co 0.39984 0.95986 0.56693 0.0
O197 O 0.41477 0.95488 0.56039 0.0
O198 O 0.41848 0.97748 0.56275 0.0
C199 C 0.38345 0.94439 0.53522 0.0
O200 O 0.38729 0.96925 0.57218 0.0
Co201 Co 0.37045 0.93752 0.59269 0.0
O202 O 0.36424 0.95161 0.58107 0.0
C203 C 0.39509 0.95504 0.63093 0.0
C204 C 0.42382 0.96886 0.55882 0.0
C205 C 0.37365 0.96489 0.57575 0.0
O206 O 0.40313 0.96071 0.60897 0.0
O207 O 0.38162 0.94503 0.62926 0.0
O208 O 0.39441 0.95687 0.52761 0.0
O209 O 0.38365 0.94061 0.5613 0.0
Co210 Co 0.76991 0.70177 0.61852 0.0
O211 O 0.78918 0.70512 0.6264 0.0
O212 O 0.76926 0.68328 0.62259 0.0
C213 C 0.76969 0.71757 0.65029 0.0
O214 O 0.7483 0.69406 0.61181 0.0
Co215 Co 0.76589 0.72613 0.59252 0.0
O216 O 0.74502 0.71305 0.60213 0.0
C217 C 0.77196 0.70771 0.55465 0.0
C218 C 0.78323 0.69099 0.62756 0.0
C219 C 0.73999 0.69953 0.60738 0.0
O220 O 0.77299 0.70116 0.57664 0.0
O221 O 0.76971 0.71855 0.55625 0.0
O222 O 0.76707 0.70466 0.6577 0.0
O223 O 0.77438 0.72145 0.62458 0.0
Co224 Co 0.29355 0.06696 0.61882 0.0
O225 O 0.28846 0.08211 0.61998 0.0
O226 O 0.31102 0.08569 0.62234 0.0
C227 C 0.27694 0.0518 0.6508 0.0
O228 O 0.30314 0.05446 0.61977 0.0
Co229 Co 0.27225 0.03631 0.59612 0.0
O230 O 0.28586 0.03095 0.61411 0.0
C231 C 0.2902 0.05964 0.55544 0.0
C232 C 0.3024 0.09117 0.62289 0.0
C233 C 0.29894 0.04075 0.61989 0.0
O234 O 0.29562 0.06852 0.57637 0.0
O235 O 0.28023 0.04623 0.55856 0.0
O236 O 0.2891 0.06314 0.65859 0.0
O237 O 0.27427 0.05084 0.62383 0.0
Co238 Co 0.92616 0.22353 0.61637 0.0
O239 O 0.91109 0.20347 0.62135 0.0
O240 O 0.90747 0.22243 0.61922 0.0
C241 C 0.9419 0.22393 0.64909 0.0
O242 O 0.93857 0.24555 0.61281 0.0
Co243 Co 0.95646 0.23182 0.59339 0.0
O244 O 0.96204 0.25171 0.60684 0.0
C245 C 0.93262 0.22492 0.55297 0.0
C246 C 0.90203 0.20842 0.62253 0.0
C247 C 0.95223 0.25514 0.61128 0.0
O248 O 0.92387 0.2218 0.57404 0.0
O249 O 0.94616 0.22884 0.55598 0.0
O250 O 0.93073 0.22524 0.65612 0.0
O251 O 0.94235 0.2206 0.62282 0.0
Co252 Co 0.29247 0.22445 0.12079 0.0
O253 O 0.28862 0.20471 0.12452 0.0
O254 O 0.31064 0.22457 0.12541 0.0
C255 C 0.27552 0.22281 0.15199 0.0
O256 O 0.30074 0.24637 0.11875 0.0
Co257 Co 0.26946 0.23081 0.09532 0.0
O258 O 0.28257 0.25093 0.1092 0.0
C259 C 0.28854 0.22596 0.05675 0.0
C260 C 0.30268 0.21042 0.12738 0.0
C261 C 0.29583 0.25524 0.11566 0.0
O262 O 0.2945 0.22386 0.07855 0.0
O263 O 0.27776 0.22829 0.05861 0.0
O264 O 0.28807 0.22475 0.16029 0.0
O265 O 0.27276 0.22012 0.12521 0.0
Co266 Co 0.77034 0.06556 0.11526 0.0
O267 O 0.78992 0.08162 0.1198 0.0
O268 O 0.76986 0.0834 0.12099 0.0
C269 C 0.77204 0.04997 0.14574 0.0
O270 O 0.74847 0.05143 0.1126 0.0
Co271 Co 0.76555 0.03719 0.08752 0.0
O272 O 0.74496 0.02953 0.09869 0.0
C273 C 0.76967 0.06139 0.05069 0.0
C274 C 0.78402 0.08977 0.12319 0.0
C275 C 0.7401 0.03779 0.10696 0.0
O276 O 0.77126 0.06892 0.07308 0.0
O277 O 0.76779 0.04843 0.05159 0.0
O278 O 0.7698 0.06031 0.15452 0.0
O279 O 0.77514 0.05044 0.11903 0.0
Co280 Co 0.92704 0.70182 0.11625 0.0
O281 O 0.91174 0.70653 0.12044 0.0
O282 O 0.90855 0.68408 0.1199 0.0
C283 C 0.94272 0.71775 0.14827 0.0
O284 O 0.93983 0.69258 0.11387 0.0
Co285 Co 0.95706 0.72393 0.09225 0.0
O286 O 0.96311 0.71028 0.10751 0.0
C287 C 0.9332 0.70615 0.05256 0.0
C288 C 0.90289 0.6925 0.12246 0.0
C289 C 0.95358 0.69703 0.11278 0.0
O290 O 0.92465 0.70057 0.07391 0.0
O291 O 0.94665 0.7161 0.05511 0.0
O292 O 0.93167 0.70533 0.1559 0.0
O293 O 0.94302 0.72116 0.12178 0.0
Co294 Co 0.55579 0.95814 0.06692 0.0
O295 O 0.53654 0.95464 0.05836 0.0
O296 O 0.5566 0.97649 0.0592 0.0
C297 C 0.55536 0.94076 0.0384 0.0
O298 O 0.57739 0.96587 0.07415 0.0
Co299 Co 0.5587 0.93426 0.09859 0.0
O300 O 0.57992 0.94823 0.09577 0.0
C301 C 0.55353 0.95479 0.13174 0.0
C302 C 0.54256 0.96869 0.05496 0.0
C303 C 0.58521 0.96107 0.08563 0.0
O304 O 0.55305 0.96073 0.10836 0.0
O305 O 0.55497 0.94345 0.13262 0.0
O306 O 0.55815 0.95334 0.02852 0.0
O307 O 0.55098 0.9382 0.0645 0.0
Co308 Co 0.0344 0.59494 0.06676 0.0
O309 O 0.03876 0.5796 0.05993 0.0
O310 O 0.01644 0.5766 0.06277 0.0
C311 C 0.05 0.61113 0.03485 0.0
O312 O 0.02561 0.60799 0.07234 0.0
Co313 Co 0.05749 0.62402 0.09245 0.0
O314 O 0.04366 0.63075 0.08198 0.0
C315 C 0.0395 0.59953 0.13072 0.0
C316 C 0.0247 0.57088 0.05854 0.0
C317 C 0.0303 0.62165 0.07652 0.0
O318 O 0.0336 0.5916 0.10877 0.0
O319 O 0.04982 0.61287 0.12904 0.0
O320 O 0.03737 0.60035 0.02744 0.0
O321 O 0.05382 0.61079 0.06085 0.0
Co322 Co 0.39926 0.43758 0.065 0.0
O323 O 0.41496 0.45753 0.06262 0.0
O324 O 0.41754 0.43793 0.06088 0.0
C325 C 0.38409 0.43929 0.03352 0.0
O326 O 0.38598 0.41558 0.0654 0.0
Co327 Co 0.36916 0.42987 0.08899 0.0
O328 O 0.36284 0.41038 0.07243 0.0
C329 C 0.39269 0.43463 0.12865 0.0
C330 C 0.42354 0.45208 0.05968 0.0
C331 C 0.37216 0.40648 0.06645 0.0
O332 O 0.40129 0.43755 0.10737 0.0
O333 O 0.37941 0.43172 0.12608 0.0
O334 O 0.39503 0.43784 0.02534 0.0
O335 O 0.38363 0.44149 0.06042 0.0
Co336 Co 0.70082 0.7711 0.9005 0.0
O337 O 0.70595 0.79128 0.89717 0.0
O338 O 0.68331 0.77237 0.89795 0.0
C339 C 0.71645 0.77141 0.86748 0.0
O340 O 0.69112 0.74902 0.90239 0.0
Co341 Co 0.72264 0.76229 0.92237 0.0
O342 O 0.7083 0.74265 0.90787 0.0
C343 C 0.70539 0.76837 0.96364 0.0
C344 C 0.69196 0.78642 0.89568 0.0
C345 C 0.69511 0.73935 0.90338 0.0
O346 O 0.69992 0.77192 0.94295 0.0
O347 O 0.71506 0.76455 0.96013 0.0
O348 O 0.70404 0.77028 0.86056 0.0
O349 O 0.71996 0.7741 0.894 0.0
Co350 Co 0.22356 0.92879 0.90037 0.0
O351 O 0.2041 0.91288 0.894 0.0
O352 O 0.22407 0.91092 0.89498 0.0
C353 C 0.22273 0.94473 0.86958 0.0
O354 O 0.24532 0.94277 0.90548 0.0
Co355 Co 0.22737 0.95674 0.92843 0.0
O356 O 0.24845 0.96407 0.92251 0.0
C357 C 0.2224 0.93214 0.96485 0.0
C358 C 0.20997 0.90467 0.89154 0.0
C359 C 0.25348 0.95601 0.91398 0.0
O360 O 0.22154 0.92498 0.94233 0.0
O361 O 0.22403 0.94501 0.96414 0.0
O362 O 0.22523 0.9345 0.86119 0.0
O363 O 0.21888 0.94394 0.89591 0.0
Co364 Co 0.0649 0.29282 0.89893 0.0
O365 O 0.0802 0.28805 0.89545 0.0
O366 O 0.08349 0.31052 0.89616 0.0
C367 C 0.04958 0.27711 0.86614 0.0
O368 O 0.05221 0.30218 0.90071 0.0
Co369 Co 0.03445 0.27069 0.92131 0.0
O370 O 0.02878 0.2846 0.90586 0.0
C371 C 0.05784 0.28808 0.96224 0.0
C372 C 0.08912 0.30207 0.89377 0.0
C373 C 0.03848 0.29785 0.90115 0.0
O374 O 0.06672 0.29378 0.94137 0.0
O375 O 0.0444 0.27822 0.95896 0.0
O376 O 0.0608 0.28954 0.85907 0.0
O377 O 0.04891 0.27358 0.89264 0.0
Co378 Co 0.43914 0.03684 0.9503 0.0
O379 O 0.45884 0.04097 0.95601 0.0
O380 O 0.43925 0.01877 0.95571 0.0
C381 C 0.43966 0.05353 0.98092 0.0
O382 O 0.41725 0.02853 0.9458 0.0
Co383 Co 0.43452 0.06054 0.92213 0.0
O384 O 0.4136 0.04637 0.92862 0.0
C385 C 0.4396 0.04097 0.88575 0.0
C386 C 0.45336 0.02694 0.95854 0.0
C387 C 0.40886 0.03335 0.93735 0.0
O388 O 0.44085 0.03491 0.90828 0.0
O389 O 0.43773 0.05206 0.88641 0.0
O390 O 0.43766 0.04101 0.98955 0.0
O391 O 0.44329 0.05648 0.95448 0.0
Co392 Co 0.95873 0.40019 0.9523 0.0
O393 O 0.9541 0.41547 0.95745 0.0
O394 O 0.97654 0.41868 0.95594 0.0
C395 C 0.94297 0.38433 0.9844 0.0
O396 O 0.96779 0.38729 0.94853 0.0
Co397 Co 0.93607 0.37054 0.9277 0.0
O398 O 0.94993 0.36424 0.94046 0.0
C399 C 0.95399 0.39461 0.88848 0.0
C400 C 0.96814 0.42432 0.95911 0.0
C401 C 0.96324 0.37357 0.94578 0.0
O402 O 0.95979 0.40289 0.91007 0.0
O403 O 0.94374 0.38126 0.8907 0.0
O404 O 0.95548 0.3953 0.99187 0.0
O405 O 0.93938 0.38428 0.95811 0.0
Co406 Co 0.59368 0.55797 0.95355 0.0
O407 O 0.57858 0.53774 0.95553 0.0
O408 O 0.57495 0.5567 0.95675 0.0
C409 C 0.60891 0.55693 0.98582 0.0
O410 O 0.6061 0.58007 0.95344 0.0
Co411 Co 0.62444 0.56731 0.9312 0.0
O412 O 0.62968 0.58652 0.94794 0.0
C413 C 0.60104 0.56134 0.89026 0.0
C414 C 0.56949 0.54262 0.95799 0.0
C415 C 0.61978 0.58971 0.95321 0.0
O416 O 0.5921 0.55798 0.91109 0.0
O417 O 0.61449 0.56496 0.89356 0.0
O418 O 0.59758 0.55784 0.9934 0.0
O419 O 0.60985 0.55495 0.95897 0.0
Co420 Co 0.95986 0.55819 0.45145 0.0
O421 O 0.95569 0.53857 0.45852 0.0
O422 O 0.97792 0.55807 0.45595 0.0
C423 C 0.94398 0.55861 0.48279 0.0
O424 O 0.96843 0.57997 0.44571 0.0
Co425 Co 0.9367 0.56386 0.425 0.0
O426 O 0.95018 0.58441 0.43616 0.0
C427 C 0.95496 0.55742 0.38736 0.0
C428 C 0.96977 0.54407 0.46017 0.0
C429 C 0.96356 0.58881 0.44173 0.0
O430 O 0.96089 0.5556 0.40951 0.0
O431 O 0.94452 0.56028 0.38871 0.0
O432 O 0.95664 0.56066 0.49062 0.0
O433 O 0.94033 0.55437 0.45679 0.0
Co434 Co 0.43683 0.40045 0.45096 0.0
O435 O 0.45685 0.41588 0.4539 0.0
O436 O 0.43755 0.41899 0.45369 0.0
C437 C 0.43783 0.38548 0.48389 0.0
O438 O 0.41476 0.38743 0.4495 0.0
Co439 Co 0.42902 0.37005 0.42882 0.0
O440 O 0.40944 0.36415 0.44445 0.0
C441 C 0.43437 0.39323 0.38771 0.0
C442 C 0.45166 0.42472 0.45575 0.0
C443 C 0.40557 0.37363 0.44895 0.0
O444 O 0.43744 0.40212 0.40849 0.0
O445 O 0.43107 0.37987 0.3911 0.0
O446 O 0.43642 0.39657 0.49092 0.0
O447 O 0.44038 0.38467 0.45727 0.0
Co448 Co 0.59419 0.03679 0.44824 0.0
O449 O 0.57846 0.04046 0.45592 0.0
O450 O 0.5762 0.01845 0.45246 0.0
C451 C 0.61042 0.05251 0.47999 0.0
O452 O 0.60788 0.0288 0.44186 0.0
Co453 Co 0.62232 0.06087 0.42135 0.0
O454 O 0.62982 0.04735 0.42856 0.0
C455 C 0.59776 0.04236 0.38403 0.0
C456 C 0.5701 0.02634 0.45713 0.0
C457 C 0.62143 0.03403 0.43542 0.0
O458 O 0.59038 0.03597 0.40632 0.0
O459 O 0.61085 0.05321 0.38518 0.0
O460 O 0.59991 0.03971 0.48737 0.0
O461 O 0.60964 0.05645 0.45426 0.0
Co462 Co 0.22368 0.29517 0.39675 0.0
O463 O 0.20401 0.29165 0.39392 0.0
O464 O 0.22411 0.31346 0.3919 0.0
C465 C 0.22141 0.27785 0.36587 0.0
O466 O 0.24556 0.30314 0.39754 0.0
Co467 Co 0.23002 0.2721 0.4221 0.0
O468 O 0.24994 0.28481 0.40669 0.0
C469 C 0.22559 0.29141 0.46076 0.0
C470 C 0.20992 0.30571 0.39055 0.0
C471 C 0.25431 0.29803 0.39983 0.0
O472 O 0.22365 0.29753 0.43902 0.0
O473 O 0.22762 0.28044 0.45881 0.0
O474 O 0.22339 0.29038 0.35727 0.0
O475 O 0.21904 0.27538 0.39279 0.0
Co476 Co 0.6991 0.92723 0.3958 0.0
O477 O 0.70224 0.91113 0.38849 0.0
O478 O 0.6805 0.90953 0.39121 0.0
C479 C 0.71553 0.94307 0.36417 0.0
O480 O 0.69163 0.94136 0.40207 0.0
Co481 Co 0.72383 0.95506 0.42285 0.0
O482 O 0.70993 0.96237 0.41984 0.0
C483 C 0.70445 0.9307 0.46009 0.0
C484 C 0.6881 0.90309 0.38688 0.0
C485 C 0.69679 0.95444 0.41147 0.0
O486 O 0.69788 0.92341 0.43782 0.0
O487 O 0.71572 0.94353 0.45887 0.0
O488 O 0.70258 0.93296 0.35654 0.0
O489 O 0.71898 0.94223 0.39021 0.0
Co490 Co 0.06593 0.77184 0.39812 0.0
O491 O 0.08117 0.79191 0.39462 0.0
O492 O 0.0845 0.77274 0.39437 0.0
C493 C 0.05026 0.77223 0.36622 0.0
O494 O 0.05318 0.74981 0.39978 0.0
Co495 Co 0.03598 0.76387 0.42257 0.0
O496 O 0.02993 0.74429 0.40665 0.0
C497 C 0.05988 0.76992 0.46198 0.0
C498 C 0.09009 0.78682 0.39235 0.0
C499 C 0.03941 0.74056 0.40089 0.0
O500 O 0.06822 0.77256 0.44042 0.0
O501 O 0.04652 0.76679 0.45972 0.0
O502 O 0.06146 0.77113 0.35852 0.0
O503 O 0.04989 0.77513 0.39283 0.0
H504 H 0.27059 0.93544 0.27936 0.0
H505 H 0.27829 0.96099 0.26844 0.0
H506 H 0.32268 0.97029 0.25712 0.0
H507 H 0.31524 0.94494 0.26799 0.0
H508 H 0.30334 0.98901 0.29385 0.0
H509 H 0.30862 0.98034 0.17992 0.0
H510 H 0.29739 0.96554 0.20382 0.0
H511 H 0.31689 0.97307 0.2032 0.0
C512 C 0.28204 0.94297 0.27499 0.0
C513 C 0.29228 0.9381 0.27418 0.0
C514 C 0.28637 0.95751 0.26869 0.0
C515 C 0.30094 0.9673 0.26144 0.0
C516 C 0.31132 0.96273 0.26222 0.0
H517 H 0.36634 0.04991 0.22298 0.0
H518 H 0.34818 0.02401 0.22674 0.0
C519 C 0.30704 0.94825 0.26854 0.0
C520 C 0.30549 0.98227 0.25216 0.0
H521 H 0.32133 0.00517 0.19623 0.0
C522 C 0.30694 0.99257 0.27239 0.0
C523 C 0.31002 0.98669 0.22406 0.0
C524 C 0.30804 0.97582 0.20138 0.0
C525 C 0.31401 0.00751 0.26573 0.0
C526 C 0.31951 0.01205 0.23808 0.0
C527 C 0.31708 0.0016 0.21738 0.0
C528 C 0.32978 0.02753 0.23162 0.0
C529 C 0.31651 0.01841 0.28875 0.0
C530 C 0.32529 0.03798 0.23203 0.0
C531 C 0.33566 0.05284 0.22989 0.0
C532 C 0.35064 0.05739 0.22744 0.0
C533 C 0.35492 0.04678 0.22518 0.0
C534 C 0.34456 0.03198 0.22723 0.0
H535 H 0.31288 0.01311 0.30976 0.0
H536 H 0.3283 0.02681 0.29 0.0
H537 H 0.31035 0.02411 0.28379 0.0
H538 H 0.31386 0.03467 0.23504 0.0
H539 H 0.332 0.06074 0.23156 0.0
H540 H 0.05935 0.33194 0.27753 0.0
H541 H 0.03346 0.31391 0.27035 0.0
H542 H 0.02182 0.34674 0.28937 0.0
H543 H 0.04759 0.36486 0.29647 0.0
H544 H 0.00326 0.31019 0.31056 0.0
H545 H 0.01363 0.328 0.19798 0.0
H546 H 0.02724 0.32683 0.21917 0.0
H547 H 0.02328 0.34125 0.22535 0.0
C548 C 0.05126 0.33522 0.28102 0.0
C549 C 0.05551 0.34987 0.28716 0.0
C550 C 0.0365 0.32491 0.27687 0.0
C551 C 0.0259 0.32912 0.27917 0.0
C552 C 0.02996 0.34338 0.28753 0.0
H553 H 0.9438 0.31395 0.23501 0.0
H554 H 0.96953 0.32166 0.24239 0.0
C555 C 0.04467 0.35371 0.29148 0.0
C556 C 0.01086 0.31942 0.26935 0.0
H557 H 0.989 0.314 0.21242 0.0
C558 C 9e-05 0.31067 0.28899 0.0
C559 C 0.00696 0.32023 0.24119 0.0
C560 C 0.01833 0.32953 0.21952 0.0
C561 C 0.98524 0.30328 0.28144 0.0
C562 C 0.98127 0.30473 0.25361 0.0
C563 C 0.99215 0.31289 0.23366 0.0
C564 C 0.96594 0.29967 0.24602 0.0
C565 C 0.97386 0.29474 0.30365 0.0
C566 C 0.95554 0.28473 0.24468 0.0
C567 C 0.94079 0.28025 0.24039 0.0
C568 C 0.93627 0.29069 0.23751 0.0
C569 C 0.94689 0.30563 0.23738 0.0
C570 C 0.96159 0.31007 0.24155 0.0
H571 H 0.97874 0.29597 0.32495 0.0
H572 H 0.96565 0.29839 0.30456 0.0
H573 H 0.968 0.28295 0.29803 0.0
H574 H 0.95879 0.27657 0.24775 0.0
H575 H 0.93289 0.26865 0.24053 0.0
H576 H 0.67863 0.62769 0.23096 0.0
H577 H 0.67057 0.64559 0.23603 0.0
H578 H 0.71547 0.68033 0.24213 0.0
H579 H 0.72371 0.66251 0.23706 0.0
H580 H 0.69675 0.67812 0.2883 0.0
H581 H 0.67264 0.67827 0.18448 0.0
H582 H 0.66687 0.66021 0.19752 0.0
H583 H 0.68582 0.67224 0.18893 0.0
C584 C 0.68682 0.63917 0.23276 0.0
C585 C 0.7018 0.64367 0.2338 0.0
C586 C 0.6822 0.64938 0.23549 0.0
C587 C 0.69246 0.66424 0.23928 0.0
C588 C 0.70743 0.66889 0.23906 0.0
H589 H 0.66077 0.7253 0.27574 0.0
H590 H 0.67872 0.71748 0.26706 0.0
C591 C 0.71209 0.65869 0.23608 0.0
C592 C 0.68732 0.67448 0.24666 0.0
H593 H 0.66409 0.68605 0.22447 0.0
C594 C 0.68991 0.6802 0.27416 0.0
C595 C 0.67846 0.67715 0.22808 0.0
C596 C 0.67588 0.67176 0.198 0.0
C597 C 0.68295 0.68768 0.28419 0.0
C598 C 0.67332 0.68943 0.26619 0.0
C599 C 0.67148 0.68456 0.23817 0.0
C600 C 0.66373 0.69475 0.27672 0.0
C601 C 0.68522 0.69296 0.31431 0.0
C602 C 0.64962 0.68456 0.28588 0.0
C603 C 0.63933 0.68892 0.2907 0.0
C604 C 0.64305 0.70355 0.28639 0.0
C605 C 0.65758 0.71395 0.2793 0.0
C606 C 0.66784 0.70953 0.27425 0.0
H607 H 0.69405 0.6919 0.32489 0.0
H608 H 0.68801 0.70459 0.31497 0.0
H609 H 0.67489 0.68648 0.32631 0.0
H610 H 0.64634 0.67308 0.28781 0.0
H611 H 0.62827 0.68068 0.29635 0.0
H612 H 0.62801 0.94563 0.76659 0.0
H613 H 0.64642 0.97128 0.7604 0.0
H614 H 0.68057 0.96167 0.78051 0.0
H615 H 0.6622 0.93575 0.78664 0.0
H616 H 0.6786 0.98881 0.80846 0.0
H617 H 0.67908 0.98467 0.69153 0.0
H618 H 0.66139 0.97481 0.70816 0.0
H619 H 0.67478 0.9694 0.71469 0.0
C620 C 0.6394 0.94891 0.77 0.0
C621 C 0.64364 0.9386 0.77691 0.0
C622 C 0.64989 0.96356 0.76635 0.0
C623 C 0.66475 0.96817 0.76965 0.0
C624 C 0.66909 0.95815 0.77769 0.0
H625 H 0.72244 0.06144 0.7276 0.0
H626 H 0.71579 0.03579 0.7342 0.0
C627 C 0.65858 0.94341 0.78124 0.0
C628 C 0.67554 0.98356 0.76419 0.0
H629 H 0.68732 0.00854 0.7108 0.0
C630 C 0.68094 0.99316 0.78715 0.0
C631 C 0.67857 0.98905 0.73634 0.0
C632 C 0.67326 0.97897 0.71117 0.0
C633 C 0.68826 0.00832 0.78289 0.0
C634 C 0.69005 0.01379 0.75508 0.0
C635 C 0.68582 0.00421 0.73208 0.0
C636 C 0.69408 0.02906 0.74985 0.0
C637 C 0.69321 0.01838 0.8081 0.0
C638 C 0.68384 0.03345 0.75568 0.0
C639 C 0.68748 0.04795 0.75171 0.0
C640 C 0.70148 0.05831 0.74197 0.0
C641 C 0.71158 0.05373 0.73525 0.0
C642 C 0.70786 0.03914 0.73905 0.0
H643 H 0.69426 0.01289 0.82723 0.0
H644 H 0.70389 0.02838 0.8038 0.0
H645 H 0.68504 0.02183 0.81253 0.0
H646 H 0.67308 0.02567 0.76369 0.0
H647 H 0.67944 0.05108 0.75709 0.0
H648 H 0.05881 0.72547 0.77978 0.0
H649 H 0.03262 0.7171 0.77628 0.0
H650 H 0.02278 0.67232 0.78325 0.0
H651 H 0.04877 0.6805 0.78698 0.0
H652 H 0.01492 0.69862 0.73255 0.0
H653 H 0.99327 0.67393 0.83713 0.0
H654 H 0.01242 0.68687 0.83117 0.0
H655 H 0.005 0.66785 0.82245 0.0
C656 C 0.05104 0.71386 0.78122 0.0
C657 C 0.05586 0.70363 0.78352 0.0
C658 C 0.03612 0.70912 0.77914 0.0
C659 C 0.02582 0.69413 0.7798 0.0
C660 C 0.03056 0.68396 0.78325 0.0
H661 H 0.94418 0.6281 0.732 0.0
H662 H 0.96979 0.64609 0.74092 0.0
C663 C 0.04543 0.68866 0.78516 0.0
C664 C 0.01023 0.68882 0.77395 0.0
H665 H 0.97612 0.66453 0.79814 0.0
C666 C 0.00638 0.69149 0.74713 0.0
C667 C -0.00082 0.67959 0.79309 0.0
C668 C 0.00267 0.67701 0.82268 0.0
C669 C 0.99175 0.68419 0.73819 0.0
C670 C 0.98088 0.67411 0.7566 0.0
C671 C 0.9846 0.67222 0.78405 0.0
C672 C 0.96587 0.66415 0.74693 0.0
C673 C 0.98803 0.68653 0.70865 0.0
C674 C 0.95539 0.66859 0.74655 0.0
C675 C 0.94071 0.65834 0.7414 0.0
C676 C 0.93638 0.64352 0.73688 0.0
C677 C 0.94713 0.63938 0.73566 0.0
C678 C 0.96175 0.64962 0.74072 0.0
H679 H -0.00227 0.69508 0.69713 0.0
H680 H 0.98341 0.67611 0.69667 0.0
H681 H 0.97952 0.68979 0.70941 0.0
H682 H 0.95847 0.6798 0.75142 0.0
H683 H 0.93269 0.66187 0.74251 0.0
H684 H 0.33121 0.27056 0.73915 0.0
H685 H 0.31379 0.2788 0.75003 0.0
H686 H 0.34878 0.32368 0.74742 0.0
H687 H 0.36629 0.31566 0.73661 0.0
H688 H 0.33038 0.31138 0.80149 0.0
H689 H 0.29913 0.30376 0.7019 0.0
H690 H 0.30321 0.2899 0.71348 0.0
H691 H 0.31769 0.30714 0.70109 0.0
C692 C 0.33516 0.28221 0.74016 0.0
C693 C 0.35017 0.29247 0.73735 0.0
C694 C 0.32519 0.28686 0.74643 0.0
C695 C 0.33011 0.30179 0.74967 0.0
C696 C 0.34487 0.31208 0.74509 0.0
H697 H 0.31397 0.3679 0.79345 0.0
H698 H 0.32216 0.35009 0.79001 0.0
C699 C 0.35484 0.30748 0.73888 0.0
C700 C 0.32031 0.30684 0.7604 0.0
H701 H 0.2953 0.31623 0.73911 0.0
C702 C 0.3225 0.31223 0.78808 0.0
C703 C 0.30994 0.30764 0.74291 0.0
C704 C 0.30726 0.30184 0.71313 0.0
C705 C 0.31516 0.31926 0.79824 0.0
C706 C 0.30563 0.32112 0.78 0.0
C707 C 0.30266 0.31479 0.75298 0.0
C708 C 0.30035 0.3313 0.78683 0.0
C709 C 0.31803 0.32507 0.82802 0.0
C710 C 0.28535 0.32658 0.78648 0.0
C711 C 0.28061 0.33676 0.78839 0.0
C712 C 0.29085 0.35182 0.79019 0.0
C713 C 0.30582 0.3564 0.79196 0.0
C714 C 0.31052 0.34622 0.79022 0.0
H715 H 0.32128 0.31865 0.84179 0.0
H716 H 0.32717 0.33657 0.8279 0.0
H717 H 0.30824 0.32486 0.83724 0.0
H718 H 0.27737 0.3151 0.78369 0.0
H719 H 0.26899 0.33288 0.78694 0.0
H720 H -0.00245 0.39368 0.56983 0.0
H721 H 0.97944 0.36777 0.57649 0.0
H722 H 0.01323 0.35654 0.56625 0.0
H723 H 0.03144 0.38232 0.55969 0.0
H724 H 0.9787 0.33788 0.53823 0.0
H725 H 0.98902 0.34769 0.65381 0.0
H726 H 0.9885 0.3611 0.63086 0.0
H727 H 0.00373 0.35805 0.62928 0.0
C728 C 0.00108 0.38567 0.56825 0.0
C729 C 0.01596 0.39005 0.5646 0.0
C730 C 0.99072 0.37092 0.5721 0.0
C731 C 0.99513 0.36042 0.57202 0.0
C732 C 0.00973 0.3646 0.56637 0.0
H733 H 0.97979 0.27859 0.61642 0.0
H734 H 0.98729 0.30433 0.6095 0.0
C735 C 0.0201 0.37932 0.56271 0.0
C736 C 0.98504 0.34531 0.58088 0.0
H737 H 0.97664 0.32314 0.63843 0.0
C738 C 0.97787 0.33461 0.56017 0.0
C739 C 0.98414 0.34126 0.60953 0.0
C740 C 0.9917 0.35257 0.63233 0.0
C741 C 0.97042 0.31972 0.56732 0.0
C742 C 0.97026 0.31564 0.5958 0.0
C743 C 0.97678 0.3264 0.61667 0.0
C744 C 0.96528 0.30036 0.60354 0.0
C745 C 0.96358 0.30841 0.54427 0.0
C746 C 0.95039 0.2898 0.60335 0.0
C747 C 0.94604 0.27508 0.60742 0.0
C748 C 0.95657 0.27077 0.61148 0.0
C749 C 0.97144 0.28154 0.6131 0.0
C750 C 0.97574 0.29623 0.60923 0.0
H751 H 0.96546 0.31344 0.52296 0.0
H752 H 0.96812 0.30092 0.54475 0.0
H753 H 0.95161 0.30172 0.54787 0.0
H754 H 0.9422 0.2929 0.59916 0.0
H755 H 0.9345 0.26704 0.6061 0.0
H756 H 0.60829 0.64941 0.5537 0.0
H757 H 0.63464 0.65966 0.55883 0.0
H758 H 0.62808 0.61664 0.57583 0.0
H759 H 0.60162 0.60619 0.5706 0.0
H760 H 0.64444 0.65455 0.61399 0.0
H761 H 0.6649 0.63723 0.52161 0.0
H762 H 0.64856 0.63867 0.51965 0.0
H763 H 0.64827 0.62385 0.53869 0.0
C764 C 0.61245 0.64206 0.55787 0.0
C765 C 0.60288 0.62703 0.56219 0.0
C766 C 0.62749 0.64793 0.56072 0.0
C767 C 0.6332 0.63888 0.56778 0.0
C768 C 0.62382 0.62374 0.5701 0.0
H769 H 0.72484 0.66959 0.61126 0.0
H770 H 0.69851 0.65327 0.6047 0.0
C771 C 0.60873 0.61782 0.56714 0.0
C772 C 0.6486 0.64563 0.57655 0.0
H773 H 0.68222 0.65195 0.55593 0.0
C774 C 0.65271 0.65391 0.60143 0.0
C775 C 0.65919 0.64449 0.5603 0.0
C776 C 0.65513 0.63564 0.53347 0.0
C777 C 0.66732 0.66158 0.61007 0.0
C778 C 0.67808 0.66113 0.59305 0.0
C779 C 0.67389 0.65228 0.56883 0.0
C780 C 0.69379 0.67081 0.59865 0.0
C781 C 0.67115 0.67028 0.63712 0.0
C782 C 0.69973 0.68601 0.59748 0.0
C783 C 0.71468 0.69534 0.60128 0.0
C784 C 0.724 0.68962 0.60609 0.0
C785 C 0.71796 0.67435 0.6077 0.0
C786 C 0.70295 0.66501 0.60386 0.0
H787 H 0.66164 0.66594 0.65172 0.0
H788 H 0.68042 0.67021 0.64809 0.0
H789 H 0.67442 0.6818 0.63215 0.0
H790 H 0.69283 0.69067 0.59297 0.0
H791 H 0.71894 0.70703 0.5998 0.0
H792 H 0.29409 0.01318 0.62923 0.0
H793 H 0.31205 0.00513 0.62715 0.0
H794 H 0.3467 0.0498 0.61644 0.0
H795 H 0.32875 0.05803 0.61828 0.0
H796 H 0.34544 0.03075 0.57413 0.0
H797 H 0.34397 0.0077 0.67965 0.0
H798 H 0.32591 0.00128 0.66596 0.0
H799 H 0.33756 0.02046 0.67338 0.0
C800 C 0.30556 0.02135 0.62704 0.0
C801 C 0.30999 0.03622 0.62367 0.0
C802 C 0.31582 0.01674 0.62609 0.0
C803 C 0.33069 0.0269 0.62192 0.0
C804 C 0.33527 0.04183 0.61989 0.0
H805 H 0.39089 0.99477 0.57698 0.0
H806 H 0.38299 0.01251 0.5874 0.0
C807 C 0.325 0.04649 0.62099 0.0
C808 C 0.34092 0.02156 0.61604 0.0
H809 H 0.35095 -0.00248 0.64065 0.0
C810 C 0.34704 0.02381 0.58889 0.0
C811 C 0.34298 0.01258 0.63542 0.0
C812 C 0.33737 0.01048 0.66533 0.0
C813 C 0.35414 0.01631 0.57987 0.0
C814 C 0.35514 0.00645 0.59857 0.0
C815 C 0.34998 0.00501 0.62633 0.0
C816 C 0.35998 0.99631 0.589 0.0
C817 C 0.35965 0.01814 0.54992 0.0
C818 C 0.34956 0.98147 0.58584 0.0
C819 C 0.35397 0.97134 0.5799 0.0
C820 C 0.36892 0.97588 0.57718 0.0
C821 C 0.3793 0.99091 0.57893 0.0
C822 C 0.37484 0.00106 0.58492 0.0
H823 H 0.35756 0.02591 0.5377 0.0
H824 H 0.3716 0.02224 0.55001 0.0
H825 H 0.35426 0.00738 0.53903 0.0
H826 H 0.33802 0.97768 0.58883 0.0
H827 H 0.34569 0.95988 0.57848 0.0
H828 H 0.34396 0.38413 0.06208 0.0
H829 H 0.33522 0.35807 0.06742 0.0
H830 H 0.37973 0.36685 0.07133 0.0
H831 H 0.38867 0.39306 0.06627 0.0
H832 H 0.3411 0.33778 0.03701 0.0
H833 H 0.36089 0.3473 0.14842 0.0
H834 H 0.35932 0.361 0.12836 0.0
H835 H 0.37392 0.35742 0.12108 0.0
C836 C 0.35192 0.38054 0.06363 0.0
C837 C 0.367 0.39069 0.06424 0.0
C838 C 0.34691 0.36565 0.06661 0.0
C839 C 0.35686 0.36066 0.07029 0.0
C840 C 0.37192 0.37059 0.06895 0.0
H841 H 0.32579 0.26905 0.11711 0.0
H842 H 0.34283 0.29489 0.10689 0.0
C843 C 0.37698 0.38553 0.06589 0.0
C844 C 0.35123 0.34521 0.07768 0.0
H845 H 0.34598 0.32293 0.13405 0.0
C846 C 0.34238 0.3345 0.05804 0.0
C847 C 0.35297 0.34105 0.10517 0.0
C848 C 0.36222 0.35224 0.12714 0.0
C849 C 0.33465 0.3197 0.06558 0.0
C850 C 0.3357 0.31565 0.09353 0.0
C851 C 0.34521 0.32621 0.11271 0.0
C852 C 0.32591 0.30068 0.10365 0.0
C853 C 0.32498 0.30854 0.04397 0.0
C854 C 0.31093 0.29572 0.10648 0.0
C855 C 0.30119 0.28105 0.11238 0.0
C856 C 0.30631 0.27112 0.1155 0.0
C857 C 0.32149 0.2764 0.11471 0.0
C858 C 0.33124 0.29113 0.10879 0.0
H859 H 0.32799 0.31284 0.02211 0.0
H860 H 0.32566 0.2984 0.0458 0.0
H861 H 0.31344 0.3056 0.04771 0.0
H862 H 0.30672 0.30308 0.10297 0.0
H863 H 0.2896 0.2774 0.11317 0.0
H864 H 0.60015 0.96396 0.13335 0.0
H865 H 0.62615 0.98021 0.14211 0.0
H866 H 0.63157 0.99684 0.05698 0.0
H867 H 0.60518 0.98112 0.04881 0.0
H868 H 0.64688 0.97862 0.11874 0.0
H869 H 0.65613 0.03417 0.09801 0.0
H870 H 0.63801 0.01847 0.10146 0.0
H871 H 0.64767 0.02238 0.06834 0.0
C872 C 0.6069 0.97121 0.11662 0.0
C873 C 0.60082 0.97125 0.09031 0.0
C874 C 0.62171 0.98053 0.12167 0.0
C875 C 0.63082 0.98985 0.10032 0.0
C876 C 0.62471 0.99004 0.07404 0.0
H877 H 0.7197 0.01386 0.07897 0.0
H878 H 0.6933 0.00332 0.0798 0.0
C879 C 0.60971 0.98096 0.06923 0.0
C880 C 0.64684 -0.00192 0.10482 0.0
H881 H 0.67759 0.03149 0.09706 0.0
C882 C 0.65352 0.99024 0.1144 0.0
C883 C 0.65554 0.01329 0.09967 0.0
C884 C 0.64893 0.02258 0.09162 0.0
C885 C 0.66866 0.99703 0.11804 0.0
C886 C 0.67745 0.01194 0.11069 0.0
C887 C 0.6708 0.01999 0.10225 0.0
C888 C 0.69355 0.01895 0.10971 0.0
C889 C 0.67506 0.9881 0.12962 0.0
C890 C 0.70248 0.03165 0.12534 0.0
C891 C 0.71771 0.03791 0.12454 0.0
C892 C 0.72411 0.03145 0.10824 0.0
C893 C 0.71509 0.01891 0.09225 0.0
C894 C 0.69998 0.01284 0.09272 0.0
H895 H 0.66704 0.97903 0.1432 0.0
H896 H 0.6779 0.98313 0.11184 0.0
H897 H 0.68511 0.99495 0.14215 0.0
H898 H 0.69768 0.03659 0.13837 0.0
H899 H 0.72444 0.04764 0.1369 0.0
H900 H 0.98157 0.70232 0.11779 0.0
H901 H 0.98978 0.68446 0.11542 0.0
H902 H 0.94499 0.64937 0.11065 0.0
H903 H 0.93657 0.66716 0.11286 0.0
H904 H 0.98175 0.65817 0.15009 0.0
H905 H 0.96585 0.64695 0.03658 0.0
H906 H 0.96781 0.66301 0.05417 0.0
H907 H 0.95237 0.64538 0.06183 0.0
C908 C 0.97343 0.6908 0.11654 0.0
C909 C 0.95843 0.68617 0.11513 0.0
C910 C 0.97814 0.68063 0.11529 0.0
C911 C 0.96797 0.66569 0.11251 0.0
C912 C 0.95297 0.66091 0.1125 0.0
H913 H 0.0004 0.60531 0.07223 0.0
H914 H 0.98278 0.6135 0.08168 0.0
C915 C 0.94821 0.67109 0.11387 0.0
C916 C 0.97335 0.65542 0.10778 0.0
H917 H 0.98038 0.63784 0.05492 0.0
C918 C 0.98121 0.65345 0.12948 0.0
C919 C 0.9725 0.64926 0.08086 0.0
C920 C 0.96424 0.65124 0.05687 0.0
C921 C 0.98896 0.64612 0.12451 0.0
C922 C 0.989 0.64091 0.09706 0.0
C923 C 0.98033 0.64197 0.07586 0.0
C924 C -0.00065 0.636 0.08932 0.0
C925 C -0.00244 0.64451 0.14831 0.0
C926 C 0.01437 0.64612 0.08941 0.0
C927 C 0.02443 0.64157 0.0839 0.0
C928 C 0.01961 0.62677 0.07818 0.0
C929 C 0.00447 0.61677 0.07668 0.0
C930 C 0.99439 0.62138 0.08216 0.0
H931 H 0.99325 0.64532 0.16924 0.0
H932 H -0.0027 0.63388 0.14698 0.0
H933 H 0.00914 0.65341 0.14686 0.0
H934 H 0.01833 0.65752 0.09436 0.0
H935 H 0.03599 0.64959 0.08499 0.0
H936 H 0.64713 0.61287 0.96242 0.0
H937 H 0.65487 0.63875 0.95785 0.0
H938 H 0.61012 0.62782 0.94408 0.0
H939 H 0.60221 0.6018 0.94859 0.0
H940 H 0.63009 0.64486 0.90084 0.0
H941 H 0.65056 0.66876 1.00649 0.0
H942 H 0.6572 0.65686 0.99533 0.0
H943 H 0.63791 0.64947 1.00119 0.0
C944 C 0.63888 0.61596 0.95905 0.0
C945 C 0.62408 0.60529 0.95563 0.0
C946 C 0.64331 0.63076 0.95665 0.0
C947 C 0.63303 0.63513 0.95084 0.0
C948 C 0.61816 0.62459 0.94876 0.0
H949 H 0.6655 0.72764 0.90902 0.0
H950 H 0.64746 0.70199 0.91845 0.0
C951 C 0.61369 0.60976 0.9514 0.0
C952 C 0.63821 0.65051 0.94342 0.0
H953 H 0.66081 0.68524 0.96671 0.0
C954 C 0.63648 0.65374 0.9154 0.0
C955 C 0.64647 0.66199 0.96253 0.0
C956 C 0.64803 0.65912 0.99315 0.0
C957 C 0.64379 0.66819 0.90547 0.0
C958 C 0.65292 0.6795 0.92408 0.0
C959 C 0.65383 0.67641 0.95253 0.0
C960 C 0.66294 0.69438 0.91391 0.0
C961 C 0.64249 0.67127 0.87486 0.0
C962 C 0.6774 0.69832 0.90749 0.0
C963 C 0.68774 0.7129 0.9022 0.0
C964 C 0.68373 0.72374 0.90334 0.0
C965 C 0.66895 0.71955 0.90798 0.0
C966 C 0.65862 0.70494 0.91343 0.0
H967 H 0.63409 0.66139 0.86357 0.0
H968 H 0.63964 0.68004 0.87318 0.0
H969 H 0.65322 0.67526 0.86425 0.0
H970 H 0.68083 0.6902 0.90781 0.0
H971 H 0.69899 0.71574 0.89848 0.0
H972 H 0.39089 0.01099 0.973 0.0
H973 H 0.3642 0.99519 0.96865 0.0
H974 H 0.36522 0.0165 0.89016 0.0
H975 H 0.39147 0.03263 0.89521 0.0
H976 H 0.34575 0.01623 0.92368 0.0
H977 H 0.3383 0.96036 0.92036 0.0
H978 H 0.34801 0.97057 0.95103 0.0
H979 H 0.356 0.97662 0.91661 0.0
C980 C 0.38533 0.01216 0.95482 0.0
C981 C 0.39309 0.02312 0.93469 0.0
C982 C 0.37016 0.00306 0.95218 0.0
C983 C 0.36275 0.00459 0.92893 0.0
C984 C 0.37069 0.01517 0.90832 0.0
H985 H 0.27113 0.95016 0.88039 0.0
H986 H 0.29787 0.96126 0.88402 0.0
C987 C 0.38567 0.02442 0.9113 0.0
C988 C 0.3466 0.99629 0.927 0.0
H989 H 0.31662 0.96201 0.9254 0.0
C990 C 0.33941 0.00436 0.92387 0.0
C991 C 0.33837 0.98082 0.92695 0.0
C992 C 0.34556 0.97157 0.92863 0.0
C993 C 0.32425 0.99745 0.92062 0.0
C994 C 0.31593 0.98201 0.92186 0.0
C995 C 0.32306 0.97386 0.92475 0.0
C996 C 0.29979 0.9743 0.92079 0.0
C997 C 0.31736 0.00681 0.91534 0.0
C998 C 0.2921 0.97769 0.94066 0.0
C999 C 0.27706 0.97173 0.93818 0.0
C1000 C 0.26935 0.96193 0.91625 0.0
C1001 C 0.27689 0.95783 0.89727 0.0
C1002 C 0.29209 0.96409 0.89942 0.0
H1003 H 0.32535 0.01758 0.90607 0.0
H1004 H 0.30784 0.00131 0.90089 0.0
H1005 H 0.31356 0.00894 0.93569 0.0
H1006 H 0.2978 0.98519 0.95781 0.0
H1007 H 0.27143 0.97475 0.95357 0.0
H1008 H 0.01077 0.29301 0.89365 0.0
H1009 H 0.0027 0.31093 0.897 0.0
H1010 H 0.04741 0.34551 0.90762 0.0
H1011 H 0.05566 0.32762 0.90442 0.0
H1012 H 0.02802 0.34389 0.95042 0.0
H1013 H 0.00585 0.34331 0.84436 0.0
H1014 H -0.00054 0.3252 0.85776 0.0
H1015 H 0.01866 0.33699 0.85075 0.0
C1016 C 0.01894 0.30445 0.89617 0.0
C1017 C 0.03384 0.30888 0.89897 0.0
C1018 C 0.01431 0.31469 0.89786 0.0
C1019 C 0.0245 0.32952 0.90227 0.0
C1020 C 0.03943 0.3341 0.904 0.0
H1021 H 0.99315 0.39049 0.94519 0.0
H1022 H 0.0107 0.38221 0.93589 0.0
C1023 C 0.0441 0.32386 0.90212 0.0
C1024 C 0.0192 0.33977 0.90825 0.0
H1025 H 0.99575 0.35043 0.88311 0.0
C1026 C 0.02128 0.3457 0.93552 0.0
C1027 C 0.01049 0.34211 0.88866 0.0
C1028 C 0.0086 0.33669 0.85865 0.0
C1029 C 0.01389 0.35293 0.9444 0.0
C1030 C 0.0043 0.35422 0.92544 0.0
C1031 C 0.00303 0.34923 0.89761 0.0
C1032 C 0.99428 0.35927 0.93474 0.0
C1033 C 0.01555 0.35828 0.97441 0.0
C1034 C 0.9794 0.349 0.93782 0.0
C1035 C 0.96936 0.35362 0.94312 0.0
C1036 C 0.97408 0.36862 0.94524 0.0
C1037 C 0.98916 0.37885 0.94367 0.0
C1038 C -0.00079 0.37418 0.93833 0.0
H1039 H 0.02323 0.35614 0.98674 0.0
H1040 H 0.01964 0.37024 0.97449 0.0
H1041 H 0.00471 0.35284 0.98507 0.0
H1042 H 0.97549 0.33742 0.93518 0.0
H1043 H 0.95786 0.34546 0.94442 0.0
H1044 H 0.05613 0.72742 0.4024 0.0
H1045 H 0.0474 0.70115 0.40432 0.0
H1046 H 0.00292 0.69203 0.39559 0.0
H1047 H 0.01147 0.71815 0.39352 0.0
H1048 H 0.02803 0.6832 0.44707 0.0
H1049 H 0.00509 0.66298 0.34081 0.0
H1050 H 0.01824 0.68197 0.34777 0.0
H1051 H -0.00087 0.67484 0.35536 0.0
C1052 C 0.04452 0.71982 0.40025 0.0
C1053 C 0.03446 0.72485 0.39801 0.0
C1054 C 0.03957 0.70484 0.40139 0.0
C1055 C 0.02456 0.69473 0.39982 0.0
C1056 C 0.01458 0.6997 0.39632 0.0
H1057 H 0.95744 0.61098 0.43722 0.0
H1058 H 0.97471 0.63672 0.42788 0.0
C1059 C 0.01948 0.71463 0.39538 0.0
C1060 C 0.01901 0.67907 0.40507 0.0
H1061 H 0.99511 0.64536 0.37884 0.0
C1062 C 0.02112 0.67486 0.43197 0.0
C1063 C 0.01008 0.66832 0.38522 0.0
C1064 C 0.00811 0.67225 0.35557 0.0
C1065 C 0.01358 0.66014 0.44029 0.0
C1066 C 0.00385 0.64953 0.42106 0.0
C1067 C 0.0025 0.65363 0.39357 0.0
C1068 C 0.99389 0.63432 0.42971 0.0
C1069 C 0.0153 0.6561 0.47001 0.0
C1070 C -0.0009 0.62464 0.43451 0.0
C1071 C 0.98926 0.60989 0.43995 0.0
C1072 C 0.97409 0.60466 0.44041 0.0
C1073 C 0.96903 0.61461 0.43682 0.0
C1074 C 0.97886 0.6293 0.43144 0.0
H1075 H 0.02236 0.66587 0.4831 0.0
H1076 H 0.00441 0.64982 0.4803 0.0
H1077 H 0.02025 0.64898 0.46946 0.0
H1078 H 0.01069 0.62838 0.43308 0.0
H1079 H 0.99351 0.6025 0.44259 0.0
H1080 H 0.26848 0.32793 0.39654 0.0
H1081 H 0.29481 0.3448 0.40068 0.0
H1082 H 0.30232 0.30822 0.40331 0.0
H1083 H 0.27614 0.29129 0.39892 0.0
H1084 H 0.31089 0.34468 0.44758 0.0
H1085 H 0.33384 0.33647 0.34877 0.0
H1086 H 0.31477 0.3312 0.35235 0.0
H1087 H 0.32128 0.31946 0.36543 0.0
C1088 C 0.27575 0.32347 0.39731 0.0
C1089 C 0.27021 0.30825 0.3976 0.0
C1090 C 0.29078 0.33314 0.39974 0.0
C1091 C 0.30045 0.32773 0.40208 0.0
C1092 C 0.29502 0.3126 0.40102 0.0
H1093 H 0.38305 0.34564 0.45503 0.0
H1094 H 0.35725 0.33672 0.44534 0.0
C1095 C 0.28004 0.30294 0.3987 0.0
C1096 C 0.31602 0.33763 0.40866 0.0
H1097 H 0.35026 0.34568 0.38866 0.0
C1098 C 0.31957 0.34521 0.43444 0.0
C1099 C 0.32724 0.33829 0.39137 0.0
C1100 C 0.32411 0.33104 0.3628 0.0
C1101 C 0.33404 0.35264 0.44427 0.0
C1102 C 0.34506 0.35244 0.4278 0.0
C1103 C 0.34165 0.34561 0.40132 0.0
C1104 C 0.36005 0.35823 0.43838 0.0
C1105 C 0.33739 0.35996 0.47278 0.0
C1106 C 0.36996 0.37331 0.43864 0.0
C1107 C 0.38475 0.37848 0.44423 0.0
C1108 C 0.38977 0.36858 0.44932 0.0
C1109 C 0.37957 0.35354 0.45091 0.0
C1110 C 0.36483 0.34841 0.44538 0.0
H1111 H 0.32739 0.35844 0.48366 0.0
H1112 H 0.3428 0.35547 0.48636 0.0
H1113 H 0.34511 0.37186 0.47025 0.0
H1114 H 0.36639 0.381 0.43311 0.0
H1115 H 0.39233 0.39014 0.44283 0.0
H1116 H 0.69454 0.96751 0.45826 0.0
H1117 H 0.67851 0.97762 0.46629 0.0
H1118 H 0.66105 0.96481 0.38206 0.0
H1119 H 0.67649 0.95377 0.37475 0.0
H1120 H 0.68014 -0.00047 0.44113 0.0
H1121 H 0.62417 0.95318 0.42392 0.0
H1122 H 0.6398 0.95066 0.42748 0.0
H1123 H 0.63568 0.95589 0.39402 0.0
C1124 C 0.68714 0.96673 0.44161 0.0
C1125 C 0.68677 0.96006 0.4158 0.0
C1126 C 0.67795 0.97243 0.44623 0.0
C1127 C 0.66848 0.97188 0.42489 0.0
C1128 C 0.66796 0.96502 0.39912 0.0
H1129 H 0.64439 0.03725 0.40421 0.0
H1130 H 0.65476 0.02119 0.40289 0.0
C1131 C 0.67689 0.95889 0.39479 0.0
C1132 C 0.66042 0.97988 0.42876 0.0
H1133 H 0.62702 0.97732 0.42189 0.0
C1134 C 0.66847 0.99457 0.43729 0.0
C1135 C 0.64517 0.97338 0.4242 0.0
C1136 C 0.63569 0.95736 0.41721 0.0
C1137 C 0.66181 0.00305 0.44067 0.0
C1138 C 0.64681 0.99688 0.43407 0.0
C1139 C 0.63859 0.98207 0.42647 0.0
C1140 C 0.63975 0.00591 0.43375 0.0
C1141 C 0.67095 0.01852 0.45142 0.0
C1142 C 0.62743 0.00222 0.45055 0.0
C1143 C 0.62128 0.01128 0.45096 0.0
C1144 C 0.62748 0.02415 0.43474 0.0
C1145 C 0.63958 0.02756 0.41741 0.0
C1146 C 0.64553 0.01842 0.41666 0.0
H1147 H 0.6803 0.01978 0.46433 0.0
H1148 H 0.67553 0.02611 0.43321 0.0
H1149 H 0.66434 0.02184 0.46442 0.0
H1150 H 0.62276 0.99252 0.4637 0.0
H1151 H 0.61189 0.00837 0.46437 0.0
H1152 H 0.30923 0.08787 0.53889 0.0
H1153 H 0.32264 0.09622 0.49442 0.0
H1154 H 0.30069 0.05184 0.46356 0.0
H1155 H 0.28696 0.04343 0.50772 0.0
H1156 H 0.34195 0.08961 0.47282 0.0
H1157 H 0.29667 0.07277 0.39639 0.0
H1158 H 0.29399 0.07298 0.43396 0.0
H1159 H 0.29457 0.05783 0.41784 0.0
C1160 C 0.30702 0.07988 0.52248 0.0
C1161 C 0.29691 0.06494 0.527 0.0
C1162 C 0.31478 0.08469 0.49703 0.0
C1163 C 0.31265 0.07472 0.47537 0.0
C1164 C 0.30234 0.05984 0.47957 0.0
H1165 H 0.37459 0.08741 0.3411 0.0
H1166 H 0.36099 0.08195 0.38544 0.0
C1167 C 0.29449 0.05502 0.50497 0.0
C1168 C 0.32181 0.07979 0.4492 0.0
H1169 H 0.32009 0.07938 0.3771 0.0
C1170 C 0.33714 0.08745 0.4519 0.0
C1171 C 0.31563 0.07718 0.42181 0.0
C1172 C 0.29932 0.06988 0.41726 0.0
C1173 C 0.34641 0.09229 0.42813 0.0
C1174 C 0.34023 0.08912 0.40072 0.0
C1175 C 0.32489 0.08172 0.39803 0.0
C1176 C 0.34937 0.09334 0.37452 0.0
C1177 C 0.36274 0.10099 0.43271 0.0
C1178 C 0.3474 0.10151 0.35331 0.0
C1179 C 0.35508 0.10454 0.32776 0.0
C1180 C 0.36496 0.09948 0.32269 0.0
C1181 C 0.36725 0.09167 0.3443 0.0
C1182 C 0.35947 0.08855 0.3698 0.0
H1183 H 0.36547 0.10631 0.4538 0.0
H1184 H 0.36728 0.09353 0.43164 0.0
H1185 H 0.36819 0.10958 0.41631 0.0
H1186 H 0.3397 0.10535 0.35633 0.0
H1187 H 0.35298 0.11056 0.31168 0.0
H1188 H 0.94855 0.23858 0.50543 0.0
H1189 H 0.93964 0.24397 0.46199 0.0
H1190 H 0.89527 0.21885 0.49235 0.0
H1191 H 0.9041 0.21373 0.53616 0.0
H1192 H 0.92137 0.22829 0.42001 0.0
H1193 H 0.89807 0.25775 0.47732 0.0
H1194 H 0.90968 0.25202 0.49425 0.0
H1195 H 0.89059 0.23913 0.48859 0.0
C1196 C 0.93687 0.23399 0.50274 0.0
C1197 C 0.92708 0.22582 0.52452 0.0
C1198 C 0.93179 0.23715 0.47787 0.0
C1199 C 0.9168 0.23219 0.47415 0.0
C1200 C 0.90692 0.22322 0.49504 0.0
H1201 H 0.88023 0.23767 0.31152 0.0
H1202 H 0.88558 0.22898 0.35526 0.0
C1203 C 0.91199 0.22016 0.52001 0.0
C1204 C 0.91162 0.23673 0.44882 0.0
H1205 H 0.89301 0.25403 0.42831 0.0
C1206 C 0.91515 0.2339 0.42184 0.0
C1207 C 0.90373 0.24432 0.45112 0.0
C1208 C 0.90041 0.24863 0.47936 0.0
C1209 C 0.91094 0.23831 0.39722 0.0
C1210 C 0.90261 0.24544 0.39951 0.0
C1211 C 0.89919 0.24839 0.42648 0.0
C1212 C 0.89789 0.25045 0.37419 0.0
C1213 C 0.91588 0.23568 0.36901 0.0
C1214 C 0.90218 0.26531 0.37087 0.0
C1215 C 0.8989 0.27031 0.34602 0.0
C1216 C 0.89127 0.26055 0.32386 0.0
C1217 C 0.88624 0.24555 0.32796 0.0
C1218 C 0.88943 0.24056 0.3529 0.0
H1219 H 0.92538 0.23392 0.37122 0.0
H1220 H 0.90679 0.22572 0.35925 0.0
H1221 H 0.91899 0.24504 0.35447 0.0
H1222 H 0.9086 0.27316 0.38707 0.0
H1223 H 0.903 0.28193 0.34368 0.0
H1224 H 0.77389 0.68326 0.54334 0.0
H1225 H 0.76836 0.66973 0.49923 0.0
H1226 H 0.7629 0.70305 0.45773 0.0
H1227 H 0.76799 0.71653 0.50221 0.0
H1228 H 0.7403 0.67669 0.44704 0.0
H1229 H 0.7909 0.67449 0.42839 0.0
H1230 H 0.78335 0.66766 0.46266 0.0
H1231 H 0.78994 0.68658 0.45413 0.0
C1232 C 0.77183 0.68794 0.52477 0.0
C1233 C 0.7714 0.70106 0.52653 0.0
C1234 C 0.76872 0.68016 0.49939 0.0
C1235 C 0.76534 0.68538 0.47492 0.0
C1236 C 0.76549 0.69877 0.47627 0.0
H1237 H 0.75485 0.64854 0.30685 0.0
H1238 H 0.76369 0.66258 0.3503 0.0
C1239 C 0.7685 0.70654 0.50174 0.0
C1240 C 0.7605 0.6763 0.44871 0.0
H1241 H 0.76979 0.65753 0.40209 0.0
C1242 C 0.74681 0.67259 0.43711 0.0
C1243 C 0.769 0.671 0.4355 0.0
C1244 C 0.78417 0.67526 0.44564 0.0
C1245 C 0.74133 0.66365 0.41305 0.0
C1246 C 0.74955 0.65785 0.40055 0.0
C1247 C 0.76334 0.66173 0.41188 0.0
C1248 C 0.7444 0.64841 0.37481 0.0
C1249 C 0.72693 0.66085 0.40089 0.0
C1250 C 0.73077 0.6354 0.37416 0.0
C1251 C 0.72556 0.62732 0.34909 0.0
C1252 C 0.73398 0.63198 0.3242 0.0
C1253 C 0.74798 0.64457 0.32545 0.0
C1254 C 0.7531 0.65267 0.35038 0.0
H1255 H 0.72413 0.66919 0.40795 0.0
H1256 H 0.72717 0.66083 0.37746 0.0
H1257 H 0.71808 0.64999 0.40813 0.0
H1258 H 0.72401 0.63161 0.39292 0.0
H1259 H 0.71479 0.61765 0.34907 0.0
H1260 H 0.08395 0.37299 0.17427 0.0
H1261 H 0.07817 0.35864 0.1308 0.0
H1262 H 0.10389 0.33973 0.15933 0.0
H1263 H 0.10945 0.35375 0.20309 0.0
H1264 H 0.09395 0.35649 0.08807 0.0
H1265 H 0.06498 0.30343 0.14453 0.0
H1266 H 0.0706 0.32066 0.16182 0.0
H1267 H 0.08361 0.31466 0.15571 0.0
C1268 C 0.08856 0.36594 0.17119 0.0
C1269 C 0.09708 0.36447 0.19242 0.0
C1270 C 0.08518 0.35767 0.14631 0.0
C1271 C 0.09025 0.34777 0.14204 0.0
C1272 C 0.09946 0.34693 0.16244 0.0
H1273 H 0.08607 0.30675 0.9792 0.0
H1274 H 0.0942 0.32061 0.02318 0.0
C1275 C 0.10275 0.35509 0.1874 0.0
C1276 C 0.08568 0.33817 0.11655 0.0
H1277 H 0.06879 0.30237 0.0954 0.0
C1278 C 0.08845 0.34466 0.08969 0.0
C1279 C 0.07825 0.32268 0.11857 0.0
C1280 C 0.07404 0.31492 0.14669 0.0
C1281 C 0.08419 0.33616 0.06492 0.0
C1282 C 0.07724 0.3207 0.06693 0.0
C1283 C 0.0743 0.3142 0.09378 0.0
C1284 C 0.07253 0.31111 0.04141 0.0
C1285 C 0.08682 0.34385 0.03684 0.0
C1286 C 0.05775 0.30045 0.03761 0.0
C1287 C 0.05306 0.29229 0.01258 0.0
C1288 C 0.06307 0.29462 0.99075 0.0
C1289 C 0.078 0.30472 0.99536 0.0
C1290 C 0.08267 0.31279 0.02044 0.0
H1291 H 0.0884 0.35503 0.03924 0.0
H1292 H 0.09689 0.34492 0.02713 0.0
H1293 H 0.07754 0.33756 0.02217 0.0
H1294 H 0.04972 0.29883 0.05357 0.0
H1295 H 0.04149 0.28466 0.00985 0.0
H1296 H 0.61938 0.70885 0.17468 0.0
H1297 H 0.63383 0.71743 0.13125 0.0
H1298 H 0.65334 0.76198 0.1605 0.0
H1299 H 0.63921 0.75351 0.20416 0.0
H1300 H 0.63644 0.73589 0.08877 0.0
H1301 H 0.68924 0.75848 0.14566 0.0
H1302 H 0.67187 0.74696 0.16264 0.0
H1303 H 0.67826 0.7661 0.15722 0.0
C1304 C 0.62658 0.7205 0.17176 0.0
C1305 C 0.62818 0.73045 0.19316 0.0
C1306 C 0.6349 0.72539 0.1469 0.0
C1307 C 0.645 0.74033 0.14286 0.0
C1308 C 0.64597 0.75036 0.16343 0.0
H1309 H 0.68702 0.77821 0.98115 0.0
H1310 H 0.67296 0.77221 0.02497 0.0
C1311 C 0.63775 0.74549 0.18834 0.0
C1312 C 0.65469 0.74536 0.11745 0.0
H1313 H 0.69058 0.76383 0.0967 0.0
C1314 C 0.64828 0.742 0.09052 0.0
C1315 C 0.67017 0.75311 0.11964 0.0
C1316 C 0.67782 0.75626 0.14782 0.0
C1317 C 0.65686 0.74632 0.06583 0.0
C1318 C 0.67234 0.75455 0.06801 0.0
C1319 C 0.67875 0.75772 0.09495 0.0
C1320 C 0.68203 0.75953 0.0426 0.0
C1321 C 0.64925 0.74166 0.03763 0.0
C1322 C 0.69252 0.7552 0.03854 0.0
C1323 C 0.7008 0.75884 0.01362 0.0
C1324 C 0.69876 0.76689 0.99215 0.0
C1325 C 0.68883 0.7719 0.99703 0.0
C1326 C 0.68064 0.76834 0.02201 0.0
H1327 H 0.63797 0.73219 0.03975 0.0
H1328 H 0.64841 0.75087 0.02833 0.0
H1329 H 0.65545 0.73866 0.02276 0.0
H1330 H 0.69391 0.74852 0.0542 0.0
H1331 H 0.70828 0.75473 0.01066 0.0
H1332 H 0.23834 0.88672 0.20989 0.0
H1333 H 0.22973 0.89179 0.16605 0.0
H1334 H 0.27026 0.9019 0.12524 0.0
H1335 H 0.27923 0.89726 0.16952 0.0
H1336 H 0.26373 0.92275 0.11515 0.0
H1337 H 0.21415 0.86946 0.09429 0.0
H1338 H 0.21377 0.8762 0.12882 0.0
H1339 H 0.2276 0.87158 0.12018 0.0
C1340 C 0.24538 0.88973 0.19152 0.0
C1341 C 0.25953 0.89154 0.19343 0.0
C1342 C 0.24036 0.89257 0.16628 0.0
C1343 C 0.24923 0.89707 0.14207 0.0
C1344 C 0.26317 0.8984 0.14357 0.0
H1345 H 0.22139 0.90601 0.97415 0.0
H1346 H 0.22742 0.89765 0.01733 0.0
C1347 C 0.26826 0.89565 0.16892 0.0
C1348 C 0.24438 0.90143 0.11598 0.0
H1349 H 0.21618 0.89002 0.06888 0.0
C1350 C 0.25337 0.91553 0.10494 0.0
C1351 C 0.23092 0.89202 0.10237 0.0
C1352 C 0.22113 0.87643 0.11185 0.0
C1353 C 0.24923 0.92055 0.08107 0.0
C1354 C 0.23547 0.91138 0.06821 0.0
C1355 C 0.22659 0.89718 0.07896 0.0
C1356 C 0.23049 0.91602 0.04269 0.0
C1357 C 0.25983 0.93552 0.06951 0.0
C1358 C 0.22959 0.92888 0.04263 0.0
C1359 C 0.2262 0.9338 0.01774 0.0
C1360 C 0.22346 0.92586 0.99242 0.0
C1361 C 0.22348 0.9125 0.99309 0.0
C1362 C 0.22696 0.90768 0.01786 0.0
H1363 H 0.27121 0.93934 0.07669 0.0
H1364 H 0.25971 0.93554 0.04607 0.0
H1365 H 0.25666 0.9435 0.07712 0.0
H1366 H 0.23182 0.93531 0.06169 0.0
H1367 H 0.22623 0.94407 0.01818 0.0
H1368 H 0.64574 0.88785 0.70862 0.0
H1369 H 0.65932 0.89299 0.66451 0.0
H1370 H 0.62867 0.90297 0.62441 0.0
H1371 H 0.61519 0.89827 0.66889 0.0
H1372 H 0.65371 0.88232 0.61224 0.0
H1373 H 0.66658 0.94006 0.60907 0.0
H1374 H 0.6583 0.92849 0.63941 0.0
H1375 H 0.6473 0.92721 0.60935 0.0
C1376 C 0.64172 0.89099 0.69042 0.0
C1377 C 0.62937 0.89277 0.6926 0.0
C1378 C 0.64957 0.89395 0.6651 0.0
C1379 C 0.64531 0.89876 0.64118 0.0
C1380 C 0.63248 0.89971 0.64274 0.0
H1381 H 0.67924 0.90478 0.47079 0.0
H1382 H 0.66558 0.89675 0.51485 0.0
C1383 C 0.62466 0.89685 0.66818 0.0
C1384 C 0.65453 0.90308 0.61505 0.0
H1385 H 0.67349 0.93144 0.56903 0.0
C1386 C 0.65804 0.89307 0.60283 0.0
C1387 C 0.66051 0.91723 0.60298 0.0
C1388 C 0.65813 0.92893 0.61601 0.0
C1389 C 0.66709 0.8967 0.5788 0.0
C1390 C 0.67258 0.91064 0.56607 0.0
C1391 C 0.66925 0.92072 0.57854 0.0
C1392 C 0.68158 0.91497 0.53964 0.0
C1393 C 0.67094 0.88564 0.56773 0.0
C1394 C 0.69519 0.928 0.53851 0.0
C1395 C 0.70305 0.93275 0.51308 0.0
C1396 C 0.69746 0.92461 0.48807 0.0
C1397 C 0.68404 0.91133 0.48953 0.0
C1398 C 0.67618 0.90664 0.51489 0.0
H1399 H 0.67001 0.87784 0.58448 0.0
H1400 H 0.66321 0.8792 0.5506 0.0
H1401 H 0.68224 0.89105 0.55908 0.0
H1402 H 0.69963 0.93467 0.55724 0.0
H1403 H 0.71326 0.94307 0.51287 0.0
H1404 H 0.04653 0.76489 0.51418 0.0
H1405 H 0.05508 0.76007 0.55883 0.0
H1406 H 0.09433 0.76652 0.51762 0.0
H1407 H 0.08622 0.77186 0.4735 0.0
H1408 H 0.0597 0.73843 0.57139 0.0
H1409 H 0.11199 0.78988 0.58704 0.0
H1410 H 0.09873 0.78822 0.56111 0.0
H1411 H 0.11144 0.78198 0.55328 0.0
C1412 C 0.05714 0.76563 0.51476 0.0
C1413 C 0.06568 0.76888 0.49011 0.0
C1414 C 0.06199 0.76278 0.54032 0.0
C1415 C 0.07548 0.7631 0.54185 0.0
C1416 C 0.0841 0.76659 0.51739 0.0
H1417 H 0.09489 0.71503 0.66952 0.0
H1418 H 0.08946 0.72353 0.62551 0.0
C1419 C 0.07936 0.76958 0.49198 0.0
C1420 C 0.08007 0.7588 0.56834 0.0
H1421 H 0.10873 0.76922 0.61397 0.0
C1422 C 0.07039 0.74524 0.5808 0.0
C1423 C 0.09396 0.76769 0.58095 0.0
C1424 C 0.10455 0.78281 0.57007 0.0
C1425 C 0.07425 0.74024 0.60507 0.0
C1426 C 0.0884 0.74881 0.61687 0.0
C1427 C 0.09799 0.76249 0.60472 0.0
C1428 C 0.09318 0.74414 0.64263 0.0
C1429 C 0.06294 0.72598 0.6182 0.0
C1430 C 0.09799 0.75322 0.66651 0.0
C1431 C 0.10141 0.74853 0.69153 0.0
C1432 C 0.10006 0.73457 0.69342 0.0
C1433 C 0.09598 0.72579 0.66901 0.0
C1434 C 0.09268 0.73057 0.64386 0.0
H1435 H 0.05166 0.72299 0.6117 0.0
H1436 H 0.06493 0.71709 0.61115 0.0
H1437 H 0.06354 0.72654 0.6416 0.0
H1438 H 0.09861 0.76379 0.66614 0.0
H1439 H 0.10454 0.75567 0.70974 0.0
H1440 H 0.22504 0.31658 0.47235 0.0
H1441 H 0.23094 0.33006 0.51666 0.0
H1442 H 0.2353 0.29594 0.5576 0.0
H1443 H 0.22983 0.28251 0.51297 0.0
H1444 H 0.21912 0.32497 0.56792 0.0
H1445 H 0.27432 0.33109 0.57576 0.0
H1446 H 0.26318 0.3241 0.54452 0.0
H1447 H 0.25992 0.31234 0.57446 0.0
C1448 C 0.22713 0.31182 0.49076 0.0
C1449 C 0.22708 0.29846 0.48884 0.0
C1450 C 0.23053 0.3196 0.51618 0.0
C1451 C 0.23395 0.31425 0.54042 0.0
C1452 C 0.23314 0.30055 0.53903 0.0
H1453 H 0.23955 0.34734 0.71092 0.0
H1454 H 0.23168 0.33429 0.66626 0.0
C1455 C 0.22985 0.29278 0.5135 0.0
C1456 C 0.23858 0.3232 0.56682 0.0
H1457 H 0.26626 0.33903 0.61521 0.0
C1458 C 0.22944 0.32805 0.57821 0.0
C1459 C 0.2522 0.32755 0.58004 0.0
C1460 C 0.26305 0.32364 0.56794 0.0
C1461 C 0.23341 0.33688 0.60255 0.0
C1462 C 0.24675 0.34071 0.61643 0.0
C1463 C 0.25599 0.33604 0.60479 0.0
C1464 C 0.25125 0.34929 0.64326 0.0
C1465 C 0.22337 0.34226 0.61274 0.0
C1466 C 0.26501 0.36206 0.64561 0.0
C1467 C 0.26967 0.36954 0.67141 0.0
C1468 C 0.26068 0.36439 0.69553 0.0
C1469 C 0.24677 0.35178 0.69287 0.0
C1470 C 0.24218 0.34429 0.66717 0.0
H1471 H 0.21643 0.3425 0.59535 0.0
H1472 H 0.21598 0.33471 0.62923 0.0
H1473 H 0.22966 0.3534 0.62194 0.0
H1474 H 0.27226 0.36615 0.62754 0.0
H1475 H 0.28047 0.37913 0.67259 0.0
H1476 H 0.94883 0.70915 1.00412 0.0
H1477 H 0.93994 0.69483 0.96075 0.0
H1478 H 0.89592 0.67322 0.99363 0.0
H1479 H 0.90475 0.68724 0.03731 0.0
H1480 H 0.90269 0.65369 0.97352 0.0
H1481 H 0.91794 0.69724 0.89362 0.0
H1482 H 0.93322 0.70001 0.91476 0.0
H1483 H 0.91812 0.70066 0.93098 0.0
C1484 C 0.93721 0.70161 1.00193 0.0
C1485 C 0.92754 0.69942 0.02433 0.0
C1486 C 0.93211 0.69341 0.977 0.0
C1487 C 0.91721 0.68299 0.97368 0.0
C1488 C 0.90747 0.68117 0.9956 0.0
H1489 H 0.88029 0.63926 0.81326 0.0
H1490 H 0.88535 0.6531 0.85715 0.0
C1491 C 0.91255 0.68927 0.02058 0.0
C1492 C 0.91191 0.6733 0.9483 0.0
H1493 H 0.91145 0.67353 0.87616 0.0
C1494 C 0.90452 0.65804 0.95224 0.0
C1495 C 0.9141 0.6789 0.92046 0.0
C1496 C 0.92114 0.69509 0.91465 0.0
C1497 C 0.89954 0.6483 0.92924 0.0
C1498 C 0.90229 0.65391 0.90137 0.0
C1499 C 0.90942 0.66916 0.89745 0.0
C1500 C 0.89798 0.64426 0.87594 0.0
C1501 C 0.89118 0.63207 0.93511 0.0
C1502 C 0.90312 0.6344 0.87192 0.0
C1503 C 0.90008 0.62629 0.84688 0.0
C1504 C 0.89201 0.62802 0.82506 0.0
C1505 C 0.88651 0.63759 0.82954 0.0
C1506 C 0.88946 0.64559 0.85463 0.0
H1507 H 0.88609 0.62968 0.95641 0.0
H1508 H 0.88245 0.62614 0.91918 0.0
H1509 H 0.89884 0.62774 0.93434 0.0
H1510 H 0.90999 0.63337 0.88767 0.0
H1511 H 0.90469 0.61922 0.84412 0.0
H1512 H 0.31328 0.22452 0.0455 0.0
H1513 H 0.32708 0.23042 1.00158 0.0
H1514 H 0.29403 0.23634 0.96013 0.0
H1515 H 0.28029 0.2309 1.00443 0.0
H1516 H 0.32226 0.21907 0.95027 0.0
H1517 H 0.32993 0.27489 0.94305 0.0
H1518 H 0.3224 0.26358 0.97397 0.0
H1519 H 0.31103 0.26085 0.94364 0.0
C1520 C 0.3088 0.22694 0.02706 0.0
C1521 C 0.29566 0.22734 0.02876 0.0
C1522 C 0.31677 0.23035 1.00185 0.0
C1523 C 0.31184 0.23421 0.97759 0.0
C1524 C 0.29833 0.23384 0.97873 0.0
H1525 H 0.34604 0.24 0.80798 0.0
H1526 H 0.33273 0.23205 0.8524 0.0
C1527 C 0.29038 0.23055 1.00406 0.0
C1528 C 0.32102 0.23882 0.95144 0.0
H1529 H 0.33784 0.26673 0.9037 0.0
C1530 C 0.32568 0.22951 0.94013 0.0
C1531 C 0.32582 0.25259 0.93846 0.0
C1532 C 0.32218 0.26363 0.95054 0.0
C1533 C 0.33473 0.23344 0.91609 0.0
C1534 C 0.33898 0.24693 0.9024 0.0
C1535 C 0.33452 0.25634 0.91397 0.0
C1536 C 0.3478 0.25141 0.87579 0.0
C1537 C 0.33989 0.22321 0.90605 0.0
C1538 C 0.36072 0.26506 0.87377 0.0
C1539 C 0.36835 0.26977 0.84811 0.0
C1540 C 0.36321 0.26094 0.82381 0.0
C1541 C 0.35048 0.2471 0.82618 0.0
C1542 C 0.34283 0.24246 0.85174 0.0
H1543 H 0.33984 0.21612 0.92346 0.0
H1544 H 0.33238 0.21596 0.88939 0.0
H1545 H 0.35112 0.22933 0.89712 0.0
H1546 H 0.36479 0.27221 0.89196 0.0
H1547 H 0.37803 0.28052 0.84716 0.0
H1548 H 0.71056 0.09088 0.84443 0.0
H1549 H 0.71969 0.08567 0.8877 0.0
H1550 H 0.76391 0.11069 0.85647 0.0
H1551 H 0.75481 0.11554 0.81272 0.0
H1552 H 0.75935 0.08547 0.87572 0.0
H1553 H 0.73924 0.1089 0.95657 0.0
H1554 H 0.72463 0.09589 0.93478 0.0
H1555 H 0.73902 0.11253 0.91943 0.0
C1556 C 0.72226 0.09559 0.84699 0.0
C1557 C 0.73192 0.1037 0.82499 0.0
C1558 C 0.7275 0.09261 0.87189 0.0
C1559 C 0.74255 0.0979 0.87571 0.0
C1560 C 0.75225 0.10646 0.85418 0.0
H1561 H 0.77735 0.08977 0.03837 0.0
H1562 H 0.77219 0.09911 0.99528 0.0
C1563 C 0.74702 0.1093 0.82916 0.0
C1564 C 0.74807 0.09367 0.9011 0.0
H1565 H 0.74674 0.09222 0.97323 0.0
C1566 C 0.75669 0.08708 0.89705 0.0
C1567 C 0.74483 0.09591 0.92907 0.0
C1568 C 0.73656 0.10384 0.93526 0.0
C1569 C 0.76184 0.0824 0.91995 0.0
C1570 C 0.75795 0.08394 0.94785 0.0
C1571 C 0.74962 0.09085 0.95193 0.0
C1572 C 0.76227 0.07842 0.97311 0.0
C1573 C 0.77162 0.07609 0.91391 0.0
C1574 C 0.75865 0.06368 0.97511 0.0
C1575 C 0.7618 0.05833 0.99966 0.0
C1576 C 0.76841 0.06752 0.02308 0.0
C1577 C 0.77229 0.08234 0.02081 0.0
C1578 C 0.76927 0.08771 0.99616 0.0
H1579 H 0.77738 0.08007 0.89339 0.0
H1580 H 0.77992 0.07893 0.93076 0.0
H1581 H 0.76484 0.06399 0.91264 0.0
H1582 H 0.75291 0.05614 0.95806 0.0
H1583 H 0.75844 0.04682 1.00072 0.0
H1584 H 0.01287 0.43739 0.64077 0.0
H1585 H -0.00065 0.43216 0.68482 0.0
H1586 H 0.03055 0.423 0.7251 0.0
H1587 H 0.04398 0.42774 0.68051 0.0
H1588 H 0.00361 0.40221 0.73705 0.0
H1589 H 0.00645 0.45527 0.75529 0.0
H1590 H -0.00106 0.44799 0.72126 0.0
H1591 H 0.01758 0.45301 0.72913 0.0
C1592 C 0.01708 0.43451 0.65904 0.0
C1593 C 0.02963 0.43306 0.65692 0.0
C1594 C 0.00931 0.43159 0.6844 0.0
C1595 C 0.01399 0.4274 0.70858 0.0
C1596 C 0.02671 0.42627 0.70681 0.0
H1597 H 0.97837 0.42098 0.87683 0.0
H1598 H 0.99233 0.42866 0.8331 0.0
C1599 C 0.03445 0.42907 0.68129 0.0
C1600 C 0.00506 0.42328 0.73504 0.0
H1601 H 0.98823 0.43489 0.78163 0.0
C1602 C 0.00035 0.40942 0.7469 0.0
C1603 C 0.00088 0.43269 0.74821 0.0
C1604 C 0.00636 0.44812 0.73798 0.0
C1605 C 0.99145 0.40463 0.77116 0.0
C1606 C 0.98668 0.41377 0.78354 0.0
C1607 C 0.9916 0.42774 0.77194 0.0
C1608 C 0.97731 0.4094 0.80942 0.0
C1609 C 0.9876 0.38998 0.78366 0.0
C1610 C 0.96382 0.39624 0.81061 0.0
C1611 C 0.95579 0.39169 0.83587 0.0
C1612 C 0.96094 0.40034 0.86039 0.0
C1613 C 0.97399 0.41396 0.85852 0.0
C1614 C 0.98206 0.41839 0.83343 0.0
H1615 H 0.99539 0.38639 0.7768 0.0
H1616 H 0.98758 0.39032 0.80708 0.0
H1617 H 0.97652 0.38163 0.77644 0.0
H1618 H 0.95963 0.3893 0.79216 0.0
H1619 H 0.94577 0.3812 0.83636 0.0
H1620 H 0.57275 0.5513 0.87315 0.0
H1621 H 0.56437 0.55617 0.82855 0.0
H1622 H 0.60892 0.57978 0.79857 0.0
H1623 H 0.61737 0.57465 0.84284 0.0
H1624 H 0.57042 0.58197 0.80762 0.0
H1625 H 0.58887 0.55511 0.7307 0.0
H1626 H 0.58855 0.552 0.76821 0.0
H1627 H 0.60353 0.56806 0.75252 0.0
C1628 C 0.58077 0.55729 0.85689 0.0
C1629 C 0.59576 0.56252 0.86168 0.0
C1630 C 0.57595 0.56012 0.83137 0.0
C1631 C 0.58596 0.56825 0.80995 0.0
C1632 C 0.6009 0.5732 0.81439 0.0
H1633 H 0.57228 0.61742 0.67715 0.0
H1634 H 0.57788 0.60919 0.72121 0.0
C1635 C 0.60573 0.57027 0.83985 0.0
C1636 C 0.58085 0.57231 0.78384 0.0
H1637 H 0.58182 0.57166 0.71175 0.0
C1638 C 0.57283 0.57961 0.78666 0.0
C1639 C 0.5838 0.56911 0.7564 0.0
C1640 C 0.59153 0.56051 0.75172 0.0
C1641 C 0.56793 0.584 0.76296 0.0
C1642 C 0.57144 0.58137 0.73552 0.0
C1643 C 0.57922 0.57383 0.7327 0.0
C1644 C 0.56719 0.58632 0.70943 0.0
C1645 C 0.55882 0.59118 0.76766 0.0
C1646 C 0.55942 0.57629 0.68782 0.0
C1647 C 0.55634 0.581 0.66242 0.0
C1648 C 0.56094 0.59588 0.65794 0.0
C1649 C 0.56837 0.60586 0.67992 0.0
C1650 C 0.57156 0.60114 0.70525 0.0
H1651 H 0.55332 0.58824 0.78858 0.0
H1652 H 0.56604 0.60324 0.76711 0.0
H1653 H 0.55034 0.58802 0.75105 0.0
H1654 H 0.55592 0.5648 0.69043 0.0
H1655 H 0.55062 0.57298 0.64602 0.0
H1656 H 0.43527 0.04868 0.83241 0.0
H1657 H 0.42945 0.03408 0.7892 0.0
H1658 H 0.43444 0.00124 0.83387 0.0
H1659 H 0.44073 0.01589 0.87672 0.0
H1660 H 0.44529 0.00452 0.78222 0.0
H1661 H 0.39014 -0.00142 0.77516 0.0
H1662 H 0.40461 0.01729 0.77416 0.0
H1663 H 0.4018 0.00652 0.80547 0.0
C1664 C 0.43538 0.03847 0.83297 0.0
C1665 C 0.43838 0.03348 0.85828 0.0
C1666 C 0.43186 0.03003 0.80826 0.0
C1667 C 0.43106 0.01631 0.80838 0.0
C1668 C 0.43483 0.01169 0.83319 0.0
H1669 H 0.38173 0.94808 0.6832 0.0
H1670 H 0.39091 0.96195 0.72713 0.0
C1671 C 0.43846 0.02015 0.85777 0.0
C1672 C 0.42596 0.00653 0.78307 0.0
H1673 H 0.39747 0.98932 0.73671 0.0
C1674 C 0.43482 0.00119 0.77232 0.0
C1675 C 0.41213 0.00184 0.77043 0.0
C1676 C 0.40155 0.00622 0.78204 0.0
C1677 C 0.43038 0.99156 0.74913 0.0
C1678 C 0.41685 0.98739 0.73572 0.0
C1679 C 0.40789 0.99254 0.74676 0.0
C1680 C 0.41188 0.97802 0.70985 0.0
C1681 C 0.44015 0.98571 0.73969 0.0
C1682 C 0.42065 0.98221 0.6855 0.0
C1683 C 0.41551 0.97418 0.66046 0.0
C1684 C 0.40134 0.96185 0.65889 0.0
C1685 C 0.39272 0.95742 0.68354 0.0
C1686 C 0.39793 0.96542 0.70869 0.0
H1687 H 0.44721 0.98583 0.75721 0.0
H1688 H 0.43366 0.97435 0.7316 0.0
H1689 H 0.44744 0.99276 0.72255 0.0
H1690 H 0.43128 0.99205 0.68546 0.0
H1691 H 0.42248 0.97808 0.64198 0.0
H1692 H 0.55331 0.98054 0.13814 0.0
H1693 H 0.55927 0.99568 0.18038 0.0
H1694 H 0.56185 0.96242 0.22866 0.0
H1695 H 0.55625 0.94729 0.18627 0.0
H1696 H 0.54751 0.99299 0.23231 0.0
H1697 H 0.60196 0.99747 0.24216 0.0
H1698 H 0.59052 0.98967 0.2115 0.0
H1699 H 0.58708 0.97893 0.24306 0.0
C1700 C 0.55495 0.97629 0.15777 0.0
C1701 C 0.55443 0.96268 0.15855 0.0
C1702 C 0.55839 0.98503 0.18198 0.0
C1703 C 0.56141 0.98042 0.20764 0.0
C1704 C 0.55999 0.96644 0.20897 0.0
H1705 H 0.57026 0.01937 0.37331 0.0
H1706 H 0.56125 0.00538 0.3298 0.0
C1707 C 0.55662 0.95771 0.1847 0.0
C1708 C 0.56653 0.99045 0.23257 0.0
H1709 H 0.59476 0.00744 0.27955 0.0
C1710 C 0.55785 0.99615 0.24261 0.0
C1711 C 0.5802 0.99492 0.24571 0.0
C1712 C 0.59056 0.99006 0.23492 0.0
C1713 C 0.56228 0.00587 0.26568 0.0
C1714 C 0.57566 0.00984 0.27955 0.0
C1715 C 0.58446 0.00437 0.26914 0.0
C1716 C 0.58062 0.01932 0.30527 0.0
C1717 C 0.55269 0.012 0.27463 0.0
C1718 C 0.59458 0.03193 0.30627 0.0
C1719 C 0.59986 0.03998 0.33135 0.0
C1720 C 0.59134 0.03555 0.35614 0.0
C1721 C 0.57715 0.02323 0.35472 0.0
C1722 C 0.57191 0.0152 0.3297 0.0
H1723 H 0.54562 0.01176 0.25701 0.0
H1724 H 0.54542 0.00523 0.29206 0.0
H1725 H 0.55933 0.02344 0.28222 0.0
H1726 H 0.60155 0.03534 0.28777 0.0
H1727 H 0.61085 0.04931 0.33156 0.0
H1728 H 0.9471 0.56218 0.33455 0.0
H1729 H 0.96098 0.56703 0.29055 0.0
H1730 H 0.99312 0.56025 0.3335 0.0
H1731 H 0.97917 0.55491 0.37705 0.0
H1732 H 0.98756 0.58885 0.27972 0.0
H1733 H 0.98833 0.53739 0.26353 0.0
H1734 H 0.97635 0.53888 0.28881 0.0
H1735 H 0.99514 0.545 0.29772 0.0
C1736 C 0.95691 0.56134 0.33449 0.0
C1737 C 0.9619 0.55807 0.3595 0.0
C1738 C 0.96491 0.56422 0.3093 0.0
C1739 C 0.97808 0.56388 0.30846 0.0
C1740 C 0.98285 0.56023 0.33322 0.0
H1741 H 0.04692 0.61272 0.18312 0.0
H1742 H 0.0328 0.60392 0.22692 0.0
C1743 C 0.97483 0.55724 0.35829 0.0
C1744 C 0.98736 0.56839 0.28246 0.0
H1745 H 0.006 0.55819 0.23733 0.0
C1746 C 0.99149 0.58208 0.27035 0.0
C1747 C 0.99245 0.55955 0.26993 0.0
C1748 C 0.98771 0.54433 0.2805 0.0
C1749 C 0.00065 0.58724 0.24648 0.0
C1750 C 0.00627 0.57869 0.23472 0.0
C1751 C 0.00196 0.5649 0.24656 0.0
C1752 C 0.01591 0.58348 0.2092 0.0
C1753 C 0.00386 0.60165 0.23368 0.0
C1754 C 0.01172 0.57457 0.18508 0.0
C1755 C 0.01993 0.57943 0.16019 0.0
C1756 C 0.03257 0.59339 0.15867 0.0
C1757 C 0.03723 0.60196 0.18335 0.0
C1758 C 0.02904 0.59701 0.20838 0.0
H1759 H 0.99561 0.60472 0.24009 0.0
H1760 H 0.01472 0.6104 0.24109 0.0
H1761 H 0.00408 0.60126 0.21028 0.0
H1762 H 0.00173 0.56404 0.18513 0.0
H1763 H 0.01595 0.57245 0.14176 0.0
H1764 H 0.42092 0.44342 0.14447 0.0
H1765 H 0.42925 0.43769 0.18823 0.0
H1766 H 0.38504 0.41588 0.22012 0.0
H1767 H 0.37665 0.42188 0.17666 0.0
H1768 H 0.40419 0.43131 0.2611 0.0
H1769 H 0.42348 0.3978 0.2059 0.0
H1770 H 0.4321 0.4163 0.19328 0.0
H1771 H 0.41271 0.40443 0.18855 0.0
C1772 C 0.41296 0.43755 0.16089 0.0
C1773 C 0.39806 0.43304 0.15682 0.0
C1774 C 0.41774 0.43415 0.18586 0.0
C1775 C 0.40773 0.42596 0.20724 0.0
C1776 C 0.39298 0.42208 0.20386 0.0
H1777 H 0.42024 0.37663 0.34114 0.0
H1778 H 0.41434 0.38488 0.29738 0.0
C1779 C 0.38819 0.42558 0.17897 0.0
C1780 C 0.41256 0.42126 0.23287 0.0
H1781 H 0.42949 0.40247 0.25452 0.0
C1782 C 0.40971 0.425 0.25964 0.0
C1783 C 0.41953 0.41276 0.2311 0.0
C1784 C 0.42201 0.40745 0.20319 0.0
C1785 C 0.41378 0.42067 0.28455 0.0
C1786 C 0.42129 0.41268 0.28276 0.0
C1787 C 0.42396 0.40877 0.25599 0.0
C1788 C 0.426 0.40786 0.30841 0.0
C1789 C 0.4096 0.42436 0.31255 0.0
C1790 C 0.43504 0.41803 0.32881 0.0
C1791 C 0.43837 0.41334 0.35397 0.0
C1792 C 0.43295 0.39835 0.35916 0.0
C1793 C 0.42466 0.38825 0.33791 0.0
C1794 C 0.42121 0.39296 0.31286 0.0
H1795 H 0.40041 0.4266 0.3103 0.0
H1796 H 0.40634 0.41533 0.328 0.0
H1797 H 0.41911 0.43436 0.32123 0.0
H1798 H 0.43929 0.42963 0.32557 0.0
H1799 H 0.44488 0.42146 0.36969 0.0
H1800 H 0.28843 0.18091 0.13556 0.0
H1801 H 0.29879 0.16622 0.15296 0.0
H1802 H 0.34183 0.20453 0.15343 0.0
H1803 H 0.33153 0.21939 0.13637 0.0
H1804 H 0.32088 0.16162 0.13054 0.0
H1805 H 0.33634 0.18922 0.23504 0.0
H1806 H 0.3241 0.19118 0.21116 0.0
H1807 H 0.34351 0.2012 0.20507 0.0
C1808 C 0.30012 0.1862 0.13915 0.0
C1809 C 0.30916 0.20132 0.13484 0.0
C1810 C 0.306 0.17779 0.14911 0.0
C1811 C 0.321 0.18438 0.15498 0.0
C1812 C 0.33017 0.19934 0.14959 0.0
H1813 H 0.37435 0.14972 0.21995 0.0
H1814 H 0.36516 0.16558 0.20327 0.0
C1815 C 0.32429 0.20778 0.13966 0.0
C1816 C 0.32695 0.17555 0.16711 0.0
H1817 H 0.34336 0.17154 0.22584 0.0
C1818 C 0.32578 0.16376 0.15137 0.0
C1819 C 0.33332 0.17841 0.19432 0.0
C1820 C 0.33431 0.19061 0.21255 0.0
C1821 C 0.33095 0.1548 0.16203 0.0
C1822 C 0.33721 0.1576 0.18931 0.0
C1823 C 0.33851 0.16946 0.20497 0.0
C1824 C 0.34252 0.1483 0.20182 0.0
C1825 C 0.32987 0.14254 0.14388 0.0
C1826 C 0.33272 0.1335 0.20745 0.0
C1827 C 0.33792 0.12442 0.21698 0.0
C1828 C 0.35299 0.13005 0.22112 0.0
C1829 C 0.36269 0.14506 0.21686 0.0
C1830 C 0.35747 0.15413 0.20732 0.0
H1831 H 0.32804 0.14402 0.12132 0.0
H1832 H 0.33995 0.14176 0.14559 0.0
H1833 H 0.3205 0.13201 0.15117 0.0
H1834 H 0.3211 0.1289 0.20384 0.0
H1835 H 0.33017 0.11291 0.22026 0.0
H1836 H 0.8136 0.10533 0.12998 0.0
H1837 H 0.82826 0.13025 0.14789 0.0
H1838 H 0.78956 0.13418 0.15319 0.0
H1839 H 0.77474 0.1092 0.13506 0.0
H1840 H 0.81515 0.15906 0.1292 0.0
H1841 H 0.82656 0.14101 0.23155 0.0
H1842 H 0.83076 0.13384 0.20079 0.0
H1843 H 0.81209 0.12871 0.20818 0.0
C1844 C 0.8082 0.11151 0.13474 0.0
C1845 C 0.793 0.10528 0.13132 0.0
C1846 C 0.81659 0.12571 0.14512 0.0
C1847 C 0.80992 0.13389 0.15234 0.0
C1848 C 0.79485 0.12795 0.14791 0.0
H1849 H 0.84416 0.22198 0.21836 0.0
H1850 H 0.82819 0.19698 0.20173 0.0
C1851 C 0.78642 0.11371 0.13754 0.0
C1852 C 0.8187 0.14858 0.16485 0.0
H1853 H 0.83961 0.16651 0.22213 0.0
C1854 C 0.82043 0.16073 0.14959 0.0
C1855 C 0.82554 0.15062 0.19143 0.0
C1856 C 0.82358 0.13786 0.20912 0.0
C1857 C 0.82919 0.17498 0.15992 0.0
C1858 C 0.83611 0.17703 0.18645 0.0
C1859 C 0.83427 0.16486 0.20181 0.0
C1860 C 0.84554 0.19177 0.19838 0.0
C1861 C 0.83131 0.18773 0.14201 0.0
C1862 C 0.86044 0.19686 0.20315 0.0
C1863 C 0.86958 0.21109 0.2129 0.0
C1864 C 0.86391 0.22042 0.21808 0.0
C1865 C 0.84886 0.21508 0.21435 0.0
C1866 C 0.83974 0.20084 0.20468 0.0
H1867 H 0.82825 0.1845 0.11964 0.0
H1868 H 0.82428 0.19195 0.15026 0.0
H1869 H 0.84286 0.19677 0.14275 0.0
H1870 H 0.86508 0.18995 0.1986 0.0
H1871 H 0.88112 0.2149 0.21563 0.0
H1872 H 0.77782 0.66566 0.21672 0.0
H1873 H 0.80277 0.67513 0.19921 0.0
H1874 H 0.79648 0.63147 0.19967 0.0
H1875 H 0.77157 0.6219 0.21752 0.0
H1876 H 0.82382 0.65331 0.22137 0.0
H1877 H 0.8113 0.66864 0.11713 0.0
H1878 H 0.80689 0.67618 0.14705 0.0
H1879 H 0.79719 0.65673 0.14155 0.0
C1880 C 0.78179 0.65809 0.21335 0.0
C1881 C 0.77272 0.64302 0.21825 0.0
C1882 C 0.79599 0.6635 0.20319 0.0
C1883 C 0.80128 0.65393 0.19762 0.0
C1884 C 0.7925 0.63899 0.20365 0.0
H1885 H 0.88223 0.66383 0.13022 0.0
H1886 H 0.85719 0.65417 0.14743 0.0
C1887 C 0.7783 0.63356 0.21386 0.0
C1888 C 0.8159 0.65945 0.185 0.0
H1889 H 0.83611 0.67585 0.12604 0.0
C1890 C 0.82652 0.65819 0.2005 0.0
C1891 C 0.81929 0.66577 0.15774 0.0
C1892 C 0.80805 0.66682 0.13974 0.0
C1893 C 0.84062 0.66336 0.18964 0.0
C1894 C 0.84402 0.66971 0.16241 0.0
C1895 C 0.83339 0.67095 0.14689 0.0
C1896 C 0.85867 0.67534 0.14991 0.0
C1897 C 0.85187 0.66228 0.20759 0.0
C1898 C 0.8675 0.69035 0.14456 0.0
C1899 C 0.88175 0.6959 0.13458 0.0
C1900 C 0.88735 0.68648 0.12973 0.0
C1901 C 0.87824 0.67136 0.13393 0.0
C1902 C 0.86399 0.66583 0.14391 0.0
H1903 H 0.84853 0.66023 0.23013 0.0
H1904 H 0.8532 0.65308 0.19992 0.0
H1905 H 0.86266 0.67247 0.20609 0.0
H1906 H 0.8635 0.69782 0.1489 0.0
H1907 H 0.88851 0.70759 0.13145 0.0
H1908 H 0.14883 0.37665 0.29302 0.0
H1909 H 0.16568 0.36836 0.30805 0.0
H1910 H 0.12992 0.32381 0.31054 0.0
H1911 H 0.11304 0.33195 0.29522 0.0
H1912 H 0.16315 0.3541 0.35912 0.0
H1913 H 0.16184 0.3202 0.26853 0.0
H1914 H 0.15563 0.3333 0.2659 0.0
H1915 H 0.14399 0.31557 0.28118 0.0
C1916 C 0.14461 0.36505 0.29625 0.0
C1917 C 0.12962 0.35494 0.29298 0.0
C1918 C 0.15424 0.36036 0.30489 0.0
C1919 C 0.14905 0.34548 0.31015 0.0
C1920 C 0.13418 0.33531 0.30607 0.0
H1921 H 0.18036 0.29189 0.38318 0.0
H1922 H 0.16601 0.30247 0.36498 0.0
C1923 C 0.12454 0.33999 0.29745 0.0
C1924 C 0.15888 0.34069 0.32212 0.0
H1925 H 0.17174 0.31715 0.31166 0.0
C1926 C 0.16519 0.34614 0.34864 0.0
C1927 C 0.16145 0.3303 0.30836 0.0
C1928 C 0.15549 0.32459 0.27929 0.0
C1929 C 0.17363 0.3411 0.36224 0.0
C1930 C 0.17591 0.33047 0.34873 0.0
C1931 C 0.16984 0.32523 0.32199 0.0
C1932 C 0.18444 0.32449 0.36204 0.0
C1933 C 0.17966 0.34681 0.39126 0.0
C1934 C 0.1995 0.33345 0.36673 0.0
C1935 C 0.20773 0.32745 0.37718 0.0
C1936 C 0.20101 0.31238 0.38293 0.0
C1937 C 0.18584 0.30353 0.37899 0.0
C1938 C 0.17763 0.30954 0.36853 0.0
H1939 H 0.17435 0.35253 0.40112 0.0
H1940 H 0.17817 0.33775 0.40535 0.0
H1941 H 0.19157 0.3547 0.3896 0.0
H1942 H 0.20496 0.34498 0.36147 0.0
H1943 H 0.21942 0.33452 0.37989 0.0
H1944 H 0.65898 0.88377 0.37836 0.0
H1945 H 0.64792 0.85832 0.36227 0.0
H1946 H 0.69056 0.8621 0.36081 0.0
H1947 H 0.70164 0.88733 0.37711 0.0
H1948 H 0.65457 0.84877 0.31159 0.0
H1949 H 0.66567 0.82425 0.40514 0.0
H1950 H 0.66657 0.84179 0.40631 0.0
H1951 H 0.6816 0.8403 0.39219 0.0
C1952 C 0.66595 0.8791 0.37494 0.0
C1953 C 0.68116 0.88751 0.37906 0.0
C1954 C 0.65964 0.86461 0.36571 0.0
C1955 C 0.66842 0.85833 0.36072 0.0
C1956 C 0.68357 0.86667 0.36508 0.0
H1957 H 0.66068 0.77895 0.29585 0.0
H1958 H 0.66875 0.80392 0.31151 0.0
C1959 C 0.68988 0.88111 0.37427 0.0
C1960 C 0.66198 0.84329 0.34958 0.0
H1961 H 0.65909 0.81017 0.36272 0.0
C1962 C 0.65538 0.84025 0.32285 0.0
C1963 C 0.66311 0.83227 0.36439 0.0
C1964 C 0.66949 0.83474 0.39372 0.0
C1965 C 0.65033 0.82657 0.31004 0.0
C1966 C 0.65181 0.81568 0.32457 0.0
C1967 C 0.65811 0.81863 0.35156 0.0
C1968 C 0.64698 0.80112 0.31224 0.0
C1969 C 0.64392 0.82401 0.28074 0.0
C1970 C 0.63211 0.79141 0.3071 0.0
C1971 C 0.62746 0.77714 0.29809 0.0
C1972 C 0.63764 0.77238 0.2943 0.0
C1973 C 0.65259 0.7823 0.29859 0.0
C1974 C 0.65721 0.79655 0.30758 0.0
H1975 H 0.64656 0.83443 0.27008 0.0
H1976 H 0.64799 0.81811 0.26751 0.0
H1977 H 0.63183 0.81714 0.28215 0.0
H1978 H 0.62403 0.79468 0.31102 0.0
H1979 H 0.61586 0.76972 0.29507 0.0
H1980 H 0.10419 0.81628 0.38319 0.0
H1981 H 0.12928 0.83177 0.36639 0.0
H1982 H 0.13622 0.79482 0.36913 0.0
H1983 H 0.11109 0.77918 0.3856 0.0
H1984 H 0.15645 0.8379 0.38991 0.0
H1985 H 0.14563 0.80922 0.28678 0.0
H1986 H 0.13114 0.80698 0.31019 0.0
H1987 H 0.14103 0.79754 0.31716 0.0
C1988 C 0.1111 0.81147 0.38046 0.0
C1989 C 0.10565 0.7965 0.38544 0.0
C1990 C 0.1254 0.82033 0.37086 0.0
C1991 C 0.13443 0.81433 0.36602 0.0
C1992 C 0.12926 0.79955 0.37219 0.0
H1993 H 0.22221 0.84772 0.30415 0.0
H1994 H 0.19711 0.83275 0.32118 0.0
C1995 C 0.11495 0.79067 0.38175 0.0
C1996 C 0.14917 0.8235 0.35397 0.0
H1997 H 0.17023 0.82712 0.2965 0.0
C1998 C 0.15948 0.83561 0.36945 0.0
C1999 C 0.15298 0.82044 0.32723 0.0
C2000 C 0.14209 0.80792 0.3092 0.0
C2001 C 0.17369 0.84461 0.35913 0.0
C2002 C 0.17752 0.8415 0.33246 0.0
C2003 C 0.16719 0.82944 0.31693 0.0
C2004 C 0.19235 0.85045 0.32066 0.0
C2005 C 0.18459 0.85715 0.37711 0.0
C2006 C 0.19777 0.86524 0.31403 0.0
C2007 C 0.2121 0.87382 0.30429 0.0
C2008 C 0.22116 0.8677 0.30095 0.0
C2009 C 0.2155 0.85275 0.30661 0.0
C2010 C 0.20118 0.84419 0.31634 0.0
H2011 H 0.18094 0.85604 0.39942 0.0
H2012 H 0.19546 0.85787 0.37656 0.0
H2013 H 0.18591 0.86756 0.36871 0.0
H2014 H 0.19097 0.87016 0.31673 0.0
H2015 H 0.21615 0.8853 0.29994 0.0
H2016 H 0.66558 0.88446 0.79838 0.0
H2017 H 0.67517 0.86902 0.81559 0.0
H2018 H 0.63126 0.83222 0.82052 0.0
H2019 H 0.62159 0.84748 0.80302 0.0
H2020 H 0.66804 0.85454 0.86794 0.0
H2021 H 0.65367 0.8154 0.7791 0.0
H2022 H 0.65397 0.83259 0.77558 0.0
H2023 H 0.63865 0.8172 0.79205 0.0
C2024 C 0.65799 0.87302 0.8027 0.0
C2025 C 0.64284 0.86716 0.79934 0.0
C2026 C 0.66348 0.86425 0.81259 0.0
C2027 C 0.65392 0.84948 0.81906 0.0
C2028 C 0.63882 0.84353 0.81515 0.0
H2029 H 0.66339 0.7792 0.89001 0.0
H2030 H 0.6541 0.79503 0.87374 0.0
C2031 C 0.63332 0.85228 0.80525 0.0
C2032 C 0.65963 0.84052 0.83155 0.0
H2033 H 0.66155 0.80952 0.8216 0.0
C2034 C 0.66672 0.84474 0.85777 0.0
C2035 C 0.65779 0.82773 0.81822 0.0
C2036 C 0.65073 0.823 0.78956 0.0
C2037 C 0.67182 0.83634 0.87132 0.0
C2038 C 0.66994 0.82353 0.85803 0.0
C2039 C 0.66288 0.81933 0.83177 0.0
C2040 C 0.67548 0.81443 0.8706 0.0
C2041 C 0.6789 0.84107 0.89996 0.0
C2042 C 0.69055 0.82019 0.87453 0.0
C2043 C 0.69588 0.8112 0.88389 0.0
C2044 C 0.68622 0.79628 0.88923 0.0
C2045 C 0.67109 0.79065 0.88608 0.0
C2046 C 0.66577 0.79966 0.87674 0.0
H2047 H 0.67607 0.84877 0.91035 0.0
H2048 H 0.67556 0.83148 0.91401 0.0
H2049 H 0.69097 0.84674 0.89748 0.0
H2050 H 0.69823 0.8315 0.86941 0.0
H2051 H 0.7076 0.81583 0.886 0.0
H2052 H 0.11156 0.77986 0.80168 0.0
H2053 H 0.12802 0.80491 0.81771 0.0
H2054 H 0.1645 0.79726 0.81381 0.0
H2055 H 0.14818 0.77228 0.79755 0.0
H2056 H 0.145 0.81186 0.86778 0.0
H2057 H 0.1797 0.83672 0.77281 0.0
H2058 H 0.16219 0.82005 0.7713 0.0
H2059 H 0.17803 0.81969 0.78413 0.0
C2060 C 0.12312 0.78358 0.80381 0.0
C2061 C 0.12859 0.77412 0.79838 0.0
C2062 C 0.13248 0.79787 0.81301 0.0
C2063 C 0.14746 0.80292 0.8167 0.0
C2064 C 0.15301 0.79362 0.81063 0.0
H2065 H 0.21919 0.88507 0.88065 0.0
H2066 H 0.20419 0.85974 0.86436 0.0
C2067 C 0.14366 0.77934 0.80146 0.0
C2068 C 0.15708 0.81758 0.82873 0.0
H2069 H 0.18702 0.85082 0.81476 0.0
C2070 C 0.15417 0.82041 0.85619 0.0
C2071 C 0.16909 0.8286 0.81359 0.0
C2072 C 0.17242 0.82621 0.78373 0.0
C2073 C 0.163 0.83402 0.86902 0.0
C2074 C 0.17489 0.84512 0.85375 0.0
C2075 C 0.17792 0.84223 0.82641 0.0
C2076 C 0.18384 0.86005 0.86516 0.0
C2077 C 0.15963 0.83635 0.8989 0.0
C2078 C 0.17731 0.86852 0.87096 0.0
C2079 C 0.1858 0.88291 0.88026 0.0
C2080 C 0.20099 0.88911 0.88375 0.0
C2081 C 0.2075 0.88055 0.87826 0.0
C2082 C 0.19897 0.86612 0.86891 0.0
H2083 H 0.15305 0.8258 0.91021 0.0
H2084 H 0.16984 0.84322 0.91099 0.0
H2085 H 0.1532 0.84206 0.89845 0.0
H2086 H 0.16569 0.86411 0.86767 0.0
H2087 H 0.18047 0.88924 0.88419 0.0
H2088 H 0.10996 0.33078 0.88734 0.0
H2089 H 0.13501 0.3405 0.87021 0.0
H2090 H 0.12845 0.29677 0.86667 0.0
H2091 H 0.10341 0.28694 0.88406 0.0
H2092 H 0.15585 0.31829 0.88987 0.0
H2093 H 0.14374 0.33542 0.78711 0.0
H2094 H 0.13917 0.34231 0.81782 0.0
H2095 H 0.12954 0.32299 0.81082 0.0
C2096 C 0.1139 0.32324 0.88321 0.0
C2097 C 0.1047 0.30809 0.8868 0.0
C2098 C 0.12816 0.32881 0.87327 0.0
C2099 C 0.1334 0.3193 0.86666 0.0
C2100 C 0.1245 0.30424 0.87146 0.0
H2101 H 0.21439 0.32948 0.79929 0.0
H2102 H 0.18931 0.31985 0.81616 0.0
C2103 C 0.11023 0.29866 0.88142 0.0
C2104 C 0.14806 0.325 0.85411 0.0
H2105 H 0.16842 0.34213 0.7957 0.0
C2106 C 0.15862 0.32347 0.86927 0.0
C2107 C 0.15155 0.33172 0.82721 0.0
C2108 C 0.14039 0.33313 0.80961 0.0
C2109 C 0.17274 0.32873 0.8584 0.0
C2110 C 0.17622 0.33541 0.83146 0.0
C2111 C 0.16566 0.33696 0.81632 0.0
C2112 C 0.19086 0.34104 0.81885 0.0
C2113 C 0.1839 0.32736 0.87608 0.0
C2114 C 0.19972 0.35606 0.81354 0.0
C2115 C 0.214 0.36159 0.80366 0.0
C2116 C 0.21958 0.35215 0.79892 0.0
C2117 C 0.21042 0.33703 0.80296 0.0
C2118 C 0.19614 0.33151 0.81277 0.0
H2119 H 0.18061 0.32528 0.89864 0.0
H2120 H 0.18498 0.31804 0.86821 0.0
H2121 H 0.19479 0.33743 0.87459 0.0
H2122 H 0.19575 0.36355 0.81791 0.0
H2123 H 0.22079 0.37329 0.80067 0.0
H2124 H 0.8438 0.61841 0.71887 0.0
H2125 H 0.8276 0.62714 0.702 0.0
H2126 H 0.86354 0.67159 0.70415 0.0
H2127 H 0.87988 0.66296 0.72075 0.0
H2128 H 0.82058 0.64794 0.72495 0.0
H2129 H 0.84899 0.66534 0.6215 0.0
H2130 H 0.85154 0.65346 0.64537 0.0
H2131 H 0.86077 0.67285 0.65163 0.0
C2132 C 0.84823 0.63006 0.71602 0.0
C2133 C 0.86314 0.64 0.72085 0.0
C2134 C 0.83896 0.63501 0.70638 0.0
C2135 C 0.84448 0.64995 0.70134 0.0
C2136 C 0.85918 0.65997 0.70741 0.0
H2137 H 0.81238 0.70471 0.63906 0.0
H2138 H 0.82648 0.69372 0.65634 0.0
C2139 C 0.86846 0.65504 0.71704 0.0
C2140 C 0.83496 0.65503 0.68895 0.0
H2141 H 0.83115 0.67217 0.63124 0.0
C2142 C 0.8228 0.65315 0.7044 0.0
C2143 C 0.83789 0.66172 0.66205 0.0
C2144 C 0.85042 0.66337 0.644 0.0
C2145 C 0.81373 0.65828 0.69402 0.0
C2146 C 0.81683 0.66522 0.66734 0.0
C2147 C 0.82884 0.66685 0.6517 0.0
C2148 C 0.8082 0.67155 0.65587 0.0
C2149 C 0.80121 0.65668 0.71204 0.0
C2150 C 0.79333 0.66265 0.6493 0.0
C2151 C 0.78521 0.6689 0.63939 0.0
C2152 C 0.7919 0.68414 0.63583 0.0
C2153 C 0.80691 0.69295 0.64165 0.0
C2154 C 0.81498 0.6867 0.65153 0.0
H2155 H 0.80217 0.65389 0.73425 0.0
H2156 H 0.80067 0.66692 0.71186 0.0
H2157 H 0.79075 0.64778 0.70338 0.0
H2158 H 0.78799 0.6509 0.65202 0.0
H2159 H 0.77368 0.66184 0.63497 0.0
H2160 H 0.37122 0.22236 0.71617 0.0
H2161 H 0.36155 0.19745 0.69843 0.0
H2162 H 0.31787 0.19109 0.69946 0.0
H2163 H 0.32745 0.21608 0.71689 0.0
H2164 H 0.34005 0.17022 0.72075 0.0
H2165 H 0.32361 0.18224 0.61715 0.0
H2166 H 0.33569 0.19646 0.64116 0.0
H2167 H 0.31629 0.18661 0.64749 0.0
C2168 C 0.35954 0.21562 0.71286 0.0
C2169 C 0.3501 0.2212 0.71767 0.0
C2170 C 0.35405 0.20142 0.70271 0.0
C2171 C 0.33906 0.1926 0.69714 0.0
C2172 C 0.32952 0.19789 0.70308 0.0
H2173 H 0.28668 0.10504 0.63051 0.0
H2174 H 0.29581 0.12999 0.64767 0.0
C2175 C 0.335 0.21211 0.71321 0.0
C2176 C 0.3335 0.17795 0.68464 0.0
H2177 H 0.31713 0.15763 0.62583 0.0
C2178 C 0.33506 0.16745 0.69999 0.0
C2179 C 0.32704 0.17445 0.65753 0.0
C2180 C 0.32564 0.18555 0.6397 0.0
C2181 C 0.33011 0.1534 0.68908 0.0
C2182 C 0.3237 0.14992 0.66192 0.0
C2183 C 0.32209 0.1604 0.64661 0.0
C2184 C 0.31845 0.13536 0.64924 0.0
C2185 C 0.33154 0.14232 0.70691 0.0
C2186 C 0.32827 0.13039 0.64351 0.0
C2187 C 0.32311 0.11616 0.63374 0.0
C2188 C 0.30805 0.10675 0.62939 0.0
C2189 C 0.29833 0.11203 0.63374 0.0
C2190 C 0.30352 0.12626 0.64357 0.0
H2191 H 0.33337 0.14554 0.72952 0.0
H2192 H 0.3216 0.13135 0.70516 0.0
H2193 H 0.34104 0.14145 0.6994 0.0
H2194 H 0.33989 0.1374 0.6472 0.0
H2195 H 0.33086 0.11242 0.63039 0.0
H2196 H 0.8882 0.17922 0.63432 0.0
H2197 H 0.86312 0.1639 0.65123 0.0
H2198 H 0.85571 0.20043 0.64387 0.0
H2199 H 0.88084 0.2159 0.62727 0.0
H2200 H 0.84841 0.18657 0.69678 0.0
H2201 H 0.82389 0.14638 0.6094 0.0
H2202 H 0.84074 0.14849 0.62297 0.0
H2203 H 0.84073 0.16359 0.60541 0.0
C2204 C 0.88116 0.18393 0.63587 0.0
C2205 C 0.88647 0.19876 0.62952 0.0
C2206 C 0.86683 0.17515 0.64542 0.0
C2207 C 0.85757 0.18103 0.64854 0.0
C2208 C 0.86271 0.19572 0.6415 0.0
H2209 H 0.77031 0.14927 0.71371 0.0
H2210 H 0.79539 0.16426 0.6966 0.0
C2211 C 0.87705 0.20451 0.63198 0.0
C2212 C 0.84287 0.17215 0.66101 0.0
H2213 H 0.80985 0.14123 0.65138 0.0
C2214 C 0.83993 0.17669 0.68682 0.0
C2215 C 0.83194 0.15925 0.64798 0.0
C2216 C 0.83439 0.15417 0.61979 0.0
C2217 C 0.82634 0.16854 0.70019 0.0
C2218 C 0.81538 0.15567 0.68712 0.0
C2219 C 0.81833 0.1511 0.66135 0.0
C2220 C 0.80063 0.14692 0.69944 0.0
C2221 C 0.8239 0.17362 0.7284 0.0
C2222 C 0.7953 0.13221 0.70656 0.0
C2223 C 0.78096 0.12359 0.7162 0.0
C2224 C 0.77172 0.12956 0.71869 0.0
C2225 C 0.7772 0.14439 0.71215 0.0
C2226 C 0.79154 0.15299 0.70248 0.0
H2227 H 0.83441 0.18128 0.73889 0.0
H2228 H 0.8177 0.17945 0.72522 0.0
H2229 H 0.81744 0.16419 0.74269 0.0
H2230 H 0.80218 0.12734 0.70423 0.0
H2231 H 0.77703 0.11219 0.72104 0.0
H2232 H 0.0407 0.4826 0.55321 0.0
H2233 H 0.03186 0.49884 0.53722 0.0
H2234 H 0.98754 0.46259 0.53742 0.0
H2235 H 0.99629 0.44622 0.55307 0.0
H2236 H 0.9963 0.47827 0.48642 0.0
H2237 H 0.00901 0.51539 0.57837 0.0
H2238 H 0.02404 0.51343 0.56599 0.0
H2239 H 0.00822 0.49793 0.58093 0.0
C2240 C 0.02904 0.47813 0.55031 0.0
C2241 C 0.01918 0.46314 0.5543 0.0
C2242 C 0.02402 0.48744 0.54129 0.0
C2243 C 0.00906 0.4819 0.53638 0.0
C2244 C -0.00087 0.46704 0.54119 0.0
H2245 H 0.95514 0.51477 0.47049 0.0
H2246 H 0.96532 0.49987 0.48737 0.0
C2247 C 0.00414 0.45772 0.55017 0.0
C2248 C 0.00386 0.49135 0.52415 0.0
H2249 H 0.00137 0.52187 0.5364 0.0
C2250 C -0.00265 0.48778 0.49735 0.0
C2251 C 0.0054 0.50379 0.53845 0.0
C2252 C 0.01194 0.50784 0.56763 0.0
C2253 C 0.99236 0.49638 0.48434 0.0
C2254 C 0.99374 0.50873 0.49875 0.0
C2255 C 0.00039 0.5124 0.52542 0.0
C2256 C 0.98778 0.51763 0.48706 0.0
C2257 C 0.98581 0.49229 0.45516 0.0
C2258 C -0.00295 0.53256 0.48157 0.0
C2259 C 0.99126 0.54114 0.47201 0.0
C2260 C 0.97609 0.53489 0.46805 0.0
C2261 C 0.96688 0.51988 0.47322 0.0
C2262 C 0.97267 0.51133 0.48274 0.0
H2263 H 0.98918 0.48517 0.4441 0.0
H2264 H 0.97369 0.48618 0.4569 0.0
H2265 H 0.98905 0.50219 0.4421 0.0
H2266 H 0.00874 0.5376 0.48493 0.0
H2267 H -0.00139 0.55269 0.46828 0.0
H2268 H 0.54997 0.54943 0.55229 0.0
H2269 H 0.53467 0.52447 0.53467 0.0
H2270 H 0.49693 0.53016 0.53631 0.0
H2271 H 0.51207 0.55503 0.5543 0.0
H2272 H 0.49153 0.50281 0.55658 0.0
H2273 H 0.51984 0.51651 0.45269 0.0
H2274 H 0.53165 0.52053 0.48269 0.0
H2275 H 0.52196 0.53033 0.47772 0.0
C2276 C 0.53838 0.5453 0.54923 0.0
C2277 C 0.53223 0.55422 0.55442 0.0
C2278 C 0.52969 0.5311 0.53898 0.0
C2279 C 0.51478 0.52566 0.53361 0.0
C2280 C 0.50847 0.53425 0.54011 0.0
H2281 H 0.44368 0.4454 0.46397 0.0
H2282 H 0.45911 0.47033 0.48162 0.0
C2283 C 0.51713 0.54844 0.55042 0.0
C2284 C 0.50579 0.51114 0.52049 0.0
H2285 H 0.50209 0.49166 0.46054 0.0
C2286 C 0.49379 0.50036 0.53557 0.0
C2287 C 0.50879 0.50807 0.49303 0.0
C2288 C 0.52117 0.51949 0.47542 0.0
C2289 C 0.48483 0.48642 0.52407 0.0
C2290 C 0.48784 0.48334 0.49663 0.0
C2291 C 0.49983 0.49412 0.48155 0.0
C2292 C 0.47882 0.46884 0.4835 0.0
C2293 C 0.4724 0.475 0.5416 0.0
C2294 C 0.485 0.46008 0.47753 0.0
C2295 C 0.47626 0.44589 0.46727 0.0
C2296 C 0.46122 0.4403 0.46275 0.0
C2297 C 0.45522 0.44939 0.46741 0.0
C2298 C 0.46398 0.46358 0.47766 0.0
H2299 H 0.47363 0.47803 0.5643 0.0
H2300 H 0.46193 0.47389 0.53407 0.0
H2301 H 0.47168 0.46418 0.53949 0.0
H2302 H 0.49647 0.46403 0.48171 0.0
H2303 H 0.4812 0.43917 0.46379 0.0
H2304 H 0.55017 0.99731 0.46448 0.0
H2305 H 0.52478 0.9867 0.48068 0.0
H2306 H 0.52977 0.0298 0.4843 0.0
H2307 H 0.55498 0.04047 0.46788 0.0
H2308 H 0.5159 0.99329 0.53211 0.0
H2309 H 0.49152 0.00607 0.4404 0.0
H2310 H 0.50884 0.00652 0.43841 0.0
H2311 H 0.50783 0.02158 0.45373 0.0
C2312 C 0.54578 0.00449 0.46838 0.0
C2313 C 0.55453 0.01971 0.46488 0.0
C2314 C 0.53132 -0.00158 0.47767 0.0
C2315 C 0.5254 0.00747 0.48333 0.0
C2316 C 0.53406 0.02263 0.4795 0.0
H2317 H 0.44498 0.99741 0.55124 0.0
H2318 H 0.47006 0.00661 0.53454 0.0
C2319 C 0.54849 0.0287 0.47025 0.0
C2320 C 0.51045 0.00123 0.4948 0.0
H2321 H 0.47736 -0.00142 0.48262 0.0
C2322 C 0.5074 0.99431 0.52123 0.0
C2323 C 0.49948 0.00268 0.48052 0.0
C2324 C 0.50201 0.0095 0.45157 0.0
C2325 C 0.49372 0.98909 0.53414 0.0
C2326 C 0.48282 0.9907 0.52 0.0
C2327 C 0.48582 0.99748 0.49345 0.0
C2328 C 0.4681 0.98522 0.53212 0.0
C2329 C 0.49116 0.98225 0.56307 0.0
C2330 C 0.4588 0.97019 0.53639 0.0
C2331 C 0.44452 0.96491 0.54595 0.0
C2332 C 0.43929 0.9746 0.55119 0.0
C2333 C 0.44872 0.9897 0.54742 0.0
C2334 C 0.46301 0.99496 0.53785 0.0
H2335 H 0.50161 0.98511 0.57384 0.0
H2336 H 0.48487 0.98576 0.57657 0.0
H2337 H 0.48471 0.97016 0.56098 0.0
H2338 H 0.46246 0.96249 0.5316 0.0
H2339 H 0.43749 0.95322 0.54855 0.0
H2340 H 0.48297 0.04172 0.96452 0.0
H2341 H 0.49857 0.03189 0.97897 0.0
H2342 H 0.46081 0.98856 0.98343 0.0
H2343 H 0.44508 -0.00171 0.96864 0.0
H2344 H 0.49604 0.01728 0.02983 0.0
H2345 H 0.49044 0.98263 0.93712 0.0
H2346 H 0.48545 0.99669 0.93601 0.0
H2347 H 0.4734 0.97931 0.95212 0.0
C2348 C 0.47798 0.03007 0.96827 0.0
C2349 C 0.4628 0.02076 0.96545 0.0
C2350 C 0.48692 0.02449 0.97654 0.0
C2351 C 0.48085 0.00951 0.98199 0.0
C2352 C 0.46572 0.00013 0.97883 0.0
H2353 H 0.51318 0.95473 0.04598 0.0
H2354 H 0.49864 0.96528 0.02883 0.0
C2355 C 0.45675 0.0057 0.97051 0.0
C2356 C 0.49028 0.00389 0.9925 0.0
H2357 H 0.50233 0.98008 0.97747 0.0
C2358 C 0.49751 0.00921 0.01834 0.0
C2359 C 0.49212 0.99338 0.97738 0.0
C2360 C 0.48506 0.98774 0.94899 0.0
C2361 C 0.50631 0.00404 0.02986 0.0
C2362 C 0.50807 0.99345 0.01485 0.0
C2363 C 0.50092 0.9882 0.98889 0.0
C2364 C 0.51697 0.98736 0.02602 0.0
C2365 C 0.51332 0.00964 0.0583 0.0
C2366 C 0.5321 0.99632 0.03009 0.0
C2367 C 0.54046 0.99034 0.04001 0.0
C2368 C 0.53379 0.97528 0.04578 0.0
C2369 C 0.51863 0.96638 0.04176 0.0
C2370 C 0.51031 0.97236 0.03191 0.0
H2371 H 0.5082 0.01509 0.06986 0.0
H2372 H 0.51253 0.00058 0.07154 0.0
H2373 H 0.52509 0.01775 0.0553 0.0
H2374 H 0.53747 0.00789 0.0252 0.0
H2375 H 0.55214 0.99744 0.04274 0.0
H2376 H 0.03957 0.55652 0.04737 0.0
H2377 H 0.02952 0.53148 0.03017 0.0
H2378 H 0.9859 0.52518 0.03474 0.0
H2379 H 0.99587 0.55031 0.05168 0.0
H2380 H 0.00855 0.50464 0.05476 0.0
H2381 H 0.98978 0.51505 0.9522 0.0
H2382 H 0.00242 0.52964 0.97496 0.0
H2383 H 0.98319 0.51991 0.98298 0.0
C2384 C 0.02783 0.54979 0.04488 0.0
C2385 C 0.0185 0.5554 0.05065 0.0
C2386 C 0.02212 0.5355 0.03505 0.0
C2387 C 0.00703 0.52664 0.03074 0.0
C2388 C -0.00238 0.532 0.03743 0.0
H2389 H 0.95296 0.4385 0.96913 0.0
H2390 H 0.96271 0.46358 0.98591 0.0
C2391 C 0.00332 0.54631 0.04726 0.0
C2392 C 0.0012 0.51181 0.01898 0.0
H2393 H 0.98357 0.4906 0.96184 0.0
C2394 C 0.00311 0.50155 0.03443 0.0
C2395 C 0.99416 0.5079 0.99243 0.0
C2396 C 0.99235 0.51872 0.9745 0.0
C2397 C -0.00207 0.48734 0.02421 0.0
C2398 C 0.99093 0.48345 0.99762 0.0
C2399 C 0.98899 0.49369 0.98219 0.0
C2400 C 0.98528 0.46867 0.98574 0.0
C2401 C -0.00026 0.47653 0.04218 0.0
C2402 C 0.99483 0.46344 0.97934 0.0
C2403 C 0.9893 0.44911 0.96978 0.0
C2404 C 0.97415 0.43986 0.96635 0.0
C2405 C 0.96468 0.44535 0.97167 0.0
C2406 C 0.97022 0.45966 0.98125 0.0
H2407 H 0.00213 0.48013 0.06454 0.0
H2408 H 0.98973 0.46557 0.04148 0.0
H2409 H 0.00901 0.47547 0.03394 0.0
H2410 H 0.00653 0.47037 0.98214 0.0
H2411 H -0.00314 0.4452 0.96568 0.0
H2412 H 0.43846 0.48165 0.0518 0.0
H2413 H 0.46352 0.49664 0.03448 0.0
H2414 H 0.46896 0.45876 0.03442 0.0
H2415 H 0.44384 0.44362 0.0514 0.0
H2416 H 0.49057 0.50169 0.05656 0.0
H2417 H 0.47808 0.47373 0.95242 0.0
H2418 H 0.46397 0.47176 0.97658 0.0
H2419 H 0.47348 0.46185 0.98248 0.0
C2420 C 0.44503 0.47654 0.04837 0.0
C2421 C 0.43916 0.46144 0.05269 0.0
C2422 C 0.45932 0.48511 0.03845 0.0
C2423 C 0.46792 0.47871 0.03265 0.0
C2424 C 0.46234 0.4638 0.03821 0.0
H2425 H 0.55554 0.51305 0.96603 0.0
H2426 H 0.53057 0.49735 0.98341 0.0
C2427 C 0.44804 0.45521 0.04808 0.0
C2428 C 0.48262 0.48762 0.0202 0.0
H2429 H 0.50283 0.49142 0.96123 0.0
C2430 C 0.49327 0.49949 0.03571 0.0
C2431 C 0.48602 0.48467 0.99298 0.0
C2432 C 0.47477 0.47239 0.97498 0.0
C2433 C 0.50737 0.50842 0.02483 0.0
C2434 C 0.51075 0.5055 0.99756 0.0
C2435 C 0.50013 0.49359 0.98211 0.0
C2436 C 0.52532 0.51471 0.98483 0.0
C2437 C 0.51861 0.52074 0.04276 0.0
C2438 C 0.53036 0.5295 0.97899 0.0
C2439 C 0.54458 0.53848 0.96905 0.0
C2440 C 0.55393 0.53276 0.96471 0.0
C2441 C 0.54859 0.51776 0.96925 0.0
C2442 C 0.53436 0.5088 0.9792 0.0
H2443 H 0.51537 0.51936 0.06536 0.0
H2444 H 0.52946 0.5215 0.04097 0.0
H2445 H 0.51976 0.53125 0.03533 0.0
H2446 H 0.5234 0.53416 0.98269 0.0
H2447 H 0.54836 0.54997 0.96557 0.0
H2448 H 0.44388 0.05497 0.0372 0.0
H2449 H 0.43711 0.06748 0.0722 0.0
H2450 H 0.42354 0.086 1.00572 0.0
H2451 H 0.43049 0.07345 0.97018 0.0
H2452 H 0.4453 0.09854 0.07963 0.0
H2453 H 0.38632 0.06054 0.05688 0.0
H2454 H 0.40044 0.05666 0.04607 0.0
H2455 H 0.39801 0.07008 0.0274 0.0
C2456 C 0.43969 0.0619 0.02992 0.0
C2457 C 0.43766 0.06319 1.00092 0.0
C2458 C 0.43586 0.06908 0.05 0.0
C2459 C 0.4297 0.07756 0.04165 0.0
C2460 C 0.42822 0.07943 0.01262 0.0
H2461 H 0.38227 0.10892 0.14165 0.0
H2462 H 0.39475 0.10354 0.10439 0.0
C2463 C 0.43226 0.07235 0.99234 0.0
C2464 C 0.42388 0.08337 0.06363 0.0
H2465 H 0.39189 0.07755 0.09332 0.0
C2466 C 0.43363 0.09408 0.08253 0.0
C2467 C 0.40865 0.07738 0.06759 0.0
C2468 C 0.39767 0.06546 0.04861 0.0
C2469 C 0.42856 0.09908 0.10506 0.0
C2470 C 0.4133 0.09294 0.10925 0.0
C2471 C 0.40359 0.08228 0.09021 0.0
C2472 C 0.40701 0.09757 0.13265 0.0
C2473 C 0.43958 0.11106 0.12385 0.0
C2474 C 0.40987 0.09627 0.16125 0.0
C2475 C 0.40278 0.09952 0.18287 0.0
C2476 C 0.39256 0.1039 0.17618 0.0
C2477 C 0.39002 0.1055 0.1476 0.0
C2478 C 0.39716 0.10241 0.12618 0.0
H2479 H 0.45045 0.11727 0.11345 0.0
H2480 H 0.43583 0.11883 0.12984 0.0
H2481 H 0.44098 0.10612 0.14344 0.0
H2482 H 0.4172 0.09227 0.16687 0.0
H2483 H 0.40486 0.09806 0.20468 0.0
H2484 H 0.88108 0.29699 0.20097 0.0
H2485 H 0.88513 0.31499 0.16377 0.0
H2486 H 0.90899 0.29929 0.11486 0.0
H2487 H 0.90453 0.28118 0.15092 0.0
H2488 H 0.90857 0.33722 0.1422 0.0
H2489 H 0.88198 0.29815 0.05543 0.0
H2490 H 0.88006 0.2923 0.09174 0.0
H2491 H 0.89556 0.29493 0.07103 0.0
C2492 C 0.88712 0.29739 0.18217 0.0
C2493 C 0.89229 0.28753 0.17869 0.0
C2494 C 0.88939 0.30763 0.16089 0.0
C2495 C 0.89693 0.30819 0.13593 0.0
C2496 C 0.90258 0.29871 0.13319 0.0
H2497 H 0.95299 0.37862 0.03233 0.0
H2498 H 0.93943 0.36038 0.06819 0.0
C2499 C 0.90015 0.28843 0.15408 0.0
C2500 C 0.89973 0.31908 0.11318 0.0
H2501 H 0.90103 0.32265 0.04132 0.0
C2502 C 0.90663 0.33399 0.12019 0.0
C2503 C 0.89683 0.31499 0.08435 0.0
C2504 C 0.88803 0.2992 0.07528 0.0
C2505 C 0.91174 0.34487 0.09919 0.0
C2506 C 0.9104 0.34078 0.07035 0.0
C2507 C 0.90243 0.32587 0.06334 0.0
C2508 C 0.9184 0.35169 0.04759 0.0
C2509 C 0.91873 0.36065 0.10828 0.0
C2510 C 0.91132 0.35241 0.02291 0.0
C2511 C 0.91923 0.36275 1.00172 0.0
C2512 C 0.93429 0.37254 1.00502 0.0
C2513 C 0.94134 0.37145 0.02931 0.0
C2514 C 0.93355 0.36108 0.05009 0.0
H2515 H 0.91383 0.36167 0.12831 0.0
H2516 H 0.93056 0.36498 0.1122 0.0
H2517 H 0.91751 0.36752 0.09197 0.0
H2518 H 0.89968 0.34511 0.02022 0.0
H2519 H 0.91353 0.3633 0.98317 0.0
H2520 H 0.63761 0.56399 0.97728 0.0
H2521 H 0.65634 0.5698 0.01386 0.0
H2522 H 0.62411 0.56057 0.07858 0.0
H2523 H 0.60555 0.55483 0.04256 0.0
H2524 H 0.66417 0.59236 0.0552 0.0
H2525 H 0.64471 0.53854 0.1067 0.0
H2526 H 0.63896 0.54034 0.07173 0.0
H2527 H 0.63083 0.5435 0.10233 0.0
C2528 C 0.6345 0.56295 0.99932 0.0
C2529 C 0.62011 0.55896 1.00702 0.0
C2530 C 0.64519 0.56629 0.02019 0.0
C2531 C 0.64157 0.56541 0.049 0.0
C2532 C 0.62712 0.56104 0.05658 0.0
H2533 H 0.68754 0.5932 0.21015 0.0
H2534 H 0.66898 0.5811 0.17291 0.0
C2535 C 0.61653 0.55787 0.03588 0.0
C2536 C 0.65301 0.57035 0.07127 0.0
H2537 H 0.66252 0.55953 0.13192 0.0
C2538 C 0.66393 0.58514 0.07176 0.0
C2539 C 0.65252 0.56098 0.09319 0.0
C2540 C 0.6412 0.54492 0.09344 0.0
C2541 C 0.67416 0.59092 0.09385 0.0
C2542 C 0.67375 0.58155 0.11575 0.0
C2543 C 0.66286 0.56671 0.1152 0.0
C2544 C 0.68473 0.58705 0.13899 0.0
C2545 C 0.68499 0.60714 0.09396 0.0
C2546 C 0.69969 0.59376 0.13255 0.0
C2547 C 0.71018 0.60077 0.15356 0.0
C2548 C 0.706 0.60092 0.18168 0.0
C2549 C 0.69106 0.59321 0.18867 0.0
C2550 C 0.68047 0.58636 0.16739 0.0
H2551 H 0.68113 0.61329 0.08089 0.0
H2552 H 0.68701 0.61163 0.11574 0.0
H2553 H 0.69553 0.6091 0.08498 0.0
H2554 H 0.70327 0.59406 0.11101 0.0
H2555 H 0.72163 0.60648 0.14761 0.0
H2556 H 0.1064 0.38344 0.37273 0.0
H2557 H 0.09993 0.39577 0.40866 0.0
H2558 H 0.08912 0.41738 0.34368 0.0
H2559 H 0.09565 0.40498 0.30724 0.0
H2560 H 0.11006 0.42655 0.41919 0.0
H2561 H 0.05096 0.3938 0.39171 0.0
H2562 H 0.06415 0.38877 0.38012 0.0
H2563 H 0.06332 0.40356 0.36323 0.0
C2564 C 0.10279 0.39093 0.36597 0.0
C2565 C 0.10143 0.39315 0.3371 0.0
C2566 C 0.09914 0.39801 0.3866 0.0
C2567 C 0.0939 0.40737 0.3789 0.0
C2568 C 0.09302 0.41008 0.35007 0.0
H2569 H 0.05075 0.44362 0.47761 0.0
H2570 H 0.06305 0.43759 0.44101 0.0
C2571 C 0.09681 0.40306 0.32929 0.0
C2572 C 0.0886 0.4135 0.40122 0.0
H2573 H 0.05739 0.41069 0.42876 0.0
C2574 C 0.09856 0.42318 0.42123 0.0
C2575 C 0.07358 0.40895 0.40402 0.0
C2576 C 0.06231 0.39812 0.38382 0.0
C2577 C 0.09392 0.42862 0.44372 0.0
C2578 C 0.07886 0.42398 0.44665 0.0
C2579 C 0.06894 0.41429 0.42656 0.0
C2580 C 0.07302 0.42921 0.46979 0.0
C2581 C 0.10522 0.43949 0.46379 0.0
C2582 C 0.07477 0.42685 0.49846 0.0
C2583 C 0.06783 0.43051 0.5197 0.0
C2584 C 0.05885 0.43634 0.51247 0.0
C2585 C 0.05753 0.43907 0.48388 0.0
C2586 C 0.06455 0.43561 0.46287 0.0
H2587 H 0.11637 0.44489 0.45439 0.0
H2588 H 0.10257 0.44805 0.46996 0.0
H2589 H 0.10542 0.43369 0.48317 0.0
H2590 H 0.081 0.42165 0.50438 0.0
H2591 H 0.06891 0.42814 0.54152 0.0
H2592 H 0.55169 0.60604 0.4776 0.0
H2593 H 0.55813 0.62506 0.44215 0.0
H2594 H 0.5681 0.6569 0.50793 0.0
H2595 H 0.56156 0.63773 0.54389 0.0
H2596 H 0.54788 0.6457 0.43179 0.0
H2597 H 0.60678 0.67199 0.46105 0.0
H2598 H 0.59356 0.65364 0.47196 0.0
H2599 H 0.59408 0.66906 0.48908 0.0
C2600 C 0.55508 0.61705 0.48462 0.0
C2601 C 0.55623 0.62041 0.51359 0.0
C2602 C 0.55871 0.6279 0.46427 0.0
C2603 C 0.56374 0.64242 0.47234 0.0
C2604 C 0.56435 0.64577 0.50125 0.0
H2605 H 0.60806 0.72182 0.37298 0.0
H2606 H 0.59571 0.70372 0.40998 0.0
C2607 C 0.56055 0.63481 0.52177 0.0
C2608 C 0.56921 0.65401 0.45031 0.0
H2609 H 0.60066 0.68235 0.42339 0.0
C2610 C 0.5594 0.65381 0.43003 0.0
C2611 C 0.58426 0.66446 0.44789 0.0
C2612 C 0.59536 0.66483 0.46846 0.0
C2613 C 0.56422 0.66392 0.40756 0.0
C2614 C 0.57933 0.67426 0.40491 0.0
C2615 C 0.58909 0.67446 0.42535 0.0
C2616 C 0.58538 0.68523 0.38158 0.0
C2617 C 0.55306 0.66357 0.38722 0.0
C2618 C 0.58351 0.68098 0.35298 0.0
C2619 C 0.59046 0.69145 0.33153 0.0
C2620 C 0.5996 0.70627 0.33843 0.0
C2621 C 0.60114 0.71047 0.36695 0.0
C2622 C 0.59409 0.70011 0.38819 0.0
H2623 H 0.54191 0.65808 0.3966 0.0
H2624 H 0.55592 0.67478 0.3806 0.0
H2625 H 0.55273 0.65732 0.36813 0.0
H2626 H 0.57712 0.66954 0.34728 0.0
H2627 H 0.5892 0.68788 0.30977 0.0
H2628 H 0.3644 0.91446 0.53307 0.0
H2629 H 0.34676 0.90088 0.49505 0.0
H2630 H 0.35792 0.94171 0.45421 0.0
H2631 H 0.37566 0.95506 0.49105 0.0
H2632 H 0.32282 0.90013 0.47542 0.0
H2633 H 0.36329 0.92082 0.38939 0.0
H2634 H 0.36866 0.92333 0.42604 0.0
H2635 H 0.36442 0.93596 0.40858 0.0
C2636 C 0.363 0.92046 0.51595 0.0
C2637 C 0.37155 0.93579 0.51479 0.0
C2638 C 0.353 0.91272 0.49418 0.0
C2639 C 0.35139 0.92023 0.4711 0.0
C2640 C 0.35939 0.93558 0.47098 0.0
H2641 H 0.28057 0.90446 0.36875 0.0
H2642 H 0.29854 0.90851 0.40466 0.0
C2643 C 0.36944 0.94322 0.4923 0.0
C2644 C 0.34106 0.91237 0.44744 0.0
H2645 H 0.33819 0.91316 0.37563 0.0
C2646 C 0.32625 0.90275 0.45359 0.0
C2647 C 0.34548 0.91533 0.41877 0.0
C2648 C 0.36137 0.92429 0.41034 0.0
C2649 C 0.31565 0.89704 0.43208 0.0
C2650 C 0.31989 0.90143 0.40371 0.0
C2651 C 0.33483 0.91003 0.39735 0.0
C2652 C 0.30893 0.89861 0.38111 0.0
C2653 C 0.29997 0.88658 0.44015 0.0
C2654 C 0.30915 0.89233 0.35498 0.0
C2655 C 0.29888 0.89019 0.33384 0.0
C2656 C 0.28829 0.89433 0.33855 0.0
C2657 C 0.2884 0.9009 0.36446 0.0
C2658 C 0.29862 0.90311 0.38527 0.0
H2659 H 0.29939 0.88002 0.45896 0.0
H2660 H 0.2945 0.8929 0.44572 0.0
H2661 H 0.29384 0.87899 0.42261 0.0
H2662 H 0.31717 0.88899 0.35105 0.0
H2663 H 0.29912 0.88517 0.31406 0.0
H2664 H 0.586 0.8922 0.81129 0.0
H2665 H 0.57315 0.89812 0.84815 0.0
H2666 H 0.60624 0.90408 0.90849 0.0
H2667 H 0.61893 0.89831 0.87255 0.0
H2668 H 0.56275 0.88477 0.90599 0.0
H2669 H 0.6057 0.94333 0.90919 0.0
H2670 H 0.6035 0.9316 0.87963 0.0
H2671 H 0.61275 0.93099 0.91102 0.0
C2672 C 0.59044 0.89471 0.83246 0.0
C2673 C 0.60355 0.89487 0.83883 0.0
C2674 C 0.58311 0.89807 0.85349 0.0
C2675 C 0.58886 0.90173 0.88102 0.0
C2676 C 0.6017 0.90151 0.88738 0.0
H2677 H 0.57422 0.9302 0.04312 0.0
H2678 H 0.58099 0.91884 1.00497 0.0
C2679 C 0.60894 0.89816 0.86665 0.0
C2680 C 0.58193 0.90615 0.90343 0.0
H2681 H 0.58932 0.93439 0.94834 0.0
C2682 C 0.56843 0.89567 0.91501 0.0
C2683 C 0.58939 0.92036 0.91532 0.0
C2684 C 0.60358 0.93228 0.90302 0.0
C2685 C 0.56248 0.89893 0.93873 0.0
C2686 C 0.57021 0.91299 0.95112 0.0
C2687 C 0.58352 0.92354 0.93913 0.0
C2688 C 0.56449 0.91732 0.97584 0.0
C2689 C 0.54817 0.88725 0.95096 0.0
C2690 C 0.5528 0.91994 0.97234 0.0
C2691 C 0.54904 0.9265 0.99395 0.0
C2692 C 0.5567 0.93032 0.01966 0.0
C2693 C 0.56786 0.92695 0.02382 0.0
C2694 C 0.57181 0.9206 1.00196 0.0
H2695 H 0.54464 0.87631 0.94169 0.0
H2696 H 0.5491 0.88664 0.9742 0.0
H2697 H 0.53955 0.89012 0.94675 0.0
H2698 H 0.54715 0.91772 0.95229 0.0
H2699 H 0.54062 0.9293 0.99002 0.0
H2700 H 0.07951 0.63215 0.0359 0.0
H2701 H 0.09325 0.65046 0.99899 0.0
H2702 H 0.05342 0.63515 0.95121 0.0
H2703 H 0.03997 0.61685 0.987 0.0
H2704 H 0.07505 0.63837 0.91762 0.0
H2705 H 0.09406 0.6884 0.98314 0.0
H2706 H 0.09963 0.67573 0.99487 0.0
H2707 H 0.08059 0.67051 0.99565 0.0
C2708 C 0.07375 0.63281 0.01756 0.0
C2709 C 0.05867 0.62302 0.01436 0.0
C2710 C 0.08158 0.64329 0.9965 0.0
C2711 C 0.07438 0.64426 0.97224 0.0
C2712 C 0.0593 0.63459 0.96948 0.0
H2713 H 0.08589 0.71167 0.86291 0.0
H2714 H 0.08122 0.69351 0.89905 0.0
C2715 C 0.05159 0.62413 0.99013 0.0
C2716 C 0.08212 0.65517 0.94933 0.0
H2717 H 0.09934 0.69177 0.93479 0.0
C2718 C 0.08052 0.65007 0.92138 0.0
C2719 C 0.08926 0.67044 0.95419 0.0
C2720 C 0.09093 0.67667 0.98351 0.0
C2721 C 0.085 0.65969 0.89818 0.0
C2722 C 0.09172 0.67494 0.90302 0.0
C2723 C 0.09416 0.68008 0.93103 0.0
C2724 C 0.09459 0.68563 0.87979 0.0
C2725 C 0.0816 0.65334 0.86879 0.0
C2726 C 0.10351 0.6872 0.85635 0.0
C2727 C 0.10596 0.6975 0.83506 0.0
C2728 C 0.09982 0.7066 0.8373 0.0
C2729 C 0.09088 0.70491 0.86064 0.0
C2730 C 0.08824 0.69454 0.88146 0.0
H2731 H 0.07361 0.6414 0.86895 0.0
H2732 H 0.0771 0.65885 0.85557 0.0
H2733 H 0.09181 0.65498 0.85875 0.0
H2734 H 0.10877 0.68067 0.85473 0.0
H2735 H 0.11301 0.69867 0.81743 0.0
H2736 H 0.27042 0.38584 0.87479 0.0
H2737 H 0.28874 0.39852 0.91125 0.0
H2738 H 0.3226 0.41622 0.84775 0.0
H2739 H 0.30404 0.40382 0.81079 0.0
H2740 H 0.30986 0.39316 0.92441 0.0
H2741 H 0.33495 0.45184 0.89635 0.0
H2742 H 0.31804 0.43795 0.88082 0.0
H2743 H 0.33532 0.44073 0.86804 0.0
C2744 C 0.28174 0.39267 0.86847 0.0
C2745 C 0.2858 0.39383 0.8399 0.0
C2746 C 0.29222 0.3999 0.8894 0.0
C2747 C 0.30709 0.40841 0.88241 0.0
C2748 C 0.31118 0.40998 0.85373 0.0
H2749 H 0.38675 0.44147 0.9767 0.0
H2750 H 0.36759 0.43515 0.94165 0.0
C2751 C 0.30058 0.40286 0.83259 0.0
C2752 C 0.3182 0.41444 0.90549 0.0
H2753 H 0.34728 0.44574 0.93144 0.0
C2754 C 0.31793 0.40469 0.92607 0.0
C2755 C 0.32877 0.42949 0.90775 0.0
C2756 C 0.32924 0.44064 0.88723 0.0
C2757 C 0.32805 0.40948 0.94837 0.0
C2758 C 0.33872 0.42447 0.95041 0.0
C2759 C 0.339 0.43427 0.92998 0.0
C2760 C 0.35043 0.42986 0.9722 0.0
C2761 C 0.32758 0.39837 0.96906 0.0
C2762 C 0.34725 0.42939 1.00117 0.0
C2763 C 0.35828 0.4331 0.02146 0.0
C2764 C 0.3726 0.43722 0.01299 0.0
C2765 C 0.3758 0.43824 0.98396 0.0
C2766 C 0.36487 0.43468 0.96382 0.0
H2767 H 0.32026 0.38695 0.96186 0.0
H2768 H 0.33872 0.4 0.97241 0.0
H2769 H 0.32348 0.3998 0.98971 0.0
H2770 H 0.33618 0.42581 1.00809 0.0
H2771 H 0.35549 0.4322 0.04365 0.0
H2772 H 0.89963 0.61934 0.64751 0.0
H2773 H 0.90433 0.60591 0.61147 0.0
H2774 H 0.88952 0.56903 0.66773 0.0
H2775 H 0.88515 0.5828 0.7048 0.0
H2776 H 0.91361 0.57389 0.64164 0.0
H2777 H 0.87685 0.57435 0.55994 0.0
H2778 H 0.88887 0.59272 0.57146 0.0
H2779 H 0.87608 0.57937 0.59605 0.0
C2780 C 0.89723 0.60832 0.65233 0.0
C2781 C 0.89188 0.6021 0.67904 0.0
C2782 C 0.8998 0.60057 0.63145 0.0
C2783 C 0.89684 0.58624 0.63638 0.0
C2784 C 0.89168 0.57999 0.66321 0.0
H2785 H 0.91387 0.54598 0.48669 0.0
H2786 H 0.90019 0.54998 0.52464 0.0
C2787 C 0.88921 0.58786 0.6844 0.0
C2788 C 0.9002 0.57844 0.61391 0.0
H2789 H 0.89781 0.57271 0.54256 0.0
C2790 C 0.9099 0.57335 0.6201 0.0
C2791 C 0.89509 0.57729 0.5858 0.0
C2792 C 0.88351 0.58107 0.57804 0.0
C2793 C 0.91548 0.56827 0.59872 0.0
C2794 C 0.91167 0.56874 0.57017 0.0
C2795 C 0.90107 0.57268 0.56426 0.0
C2796 C 0.91954 0.56645 0.54629 0.0
C2797 C 0.92561 0.56268 0.60702 0.0
C2798 C 0.93486 0.57479 0.54507 0.0
C2799 C 0.94258 0.57242 0.52382 0.0
C2800 C 0.9352 0.56191 0.50272 0.0
C2801 C 0.91982 0.55414 0.50273 0.0
C2802 C 0.91203 0.55637 0.52446 0.0
H2803 H 0.92298 0.5578 0.62851 0.0
H2804 H 0.92496 0.55431 0.59195 0.0
H2805 H 0.93704 0.57195 0.60745 0.0
H2806 H 0.94093 0.58308 0.56083 0.0
H2807 H 0.95443 0.57878 0.5241 0.0
H2808 H 0.40336 0.30517 0.70996 0.0
H2809 H 0.41626 0.32444 0.6742 0.0
H2810 H 0.39444 0.29287 0.60802 0.0
H2811 H 0.38151 0.27378 0.64324 0.0
H2812 H 0.42758 0.315 0.60159 0.0
H2813 H 0.39094 0.3378 0.62306 0.0
H2814 H 0.39925 0.33396 0.6526 0.0
H2815 H 0.38573 0.31917 0.63186 0.0
C2816 C 0.40153 0.30234 0.68779 0.0
C2817 C 0.39137 0.28799 0.67942 0.0
C2818 C 0.40886 0.31333 0.66741 0.0
C2819 C 0.40625 0.31006 0.63847 0.0
C2820 C 0.39663 0.29562 0.63019 0.0
H2821 H 0.43002 0.35646 0.47661 0.0
H2822 H 0.42349 0.338 0.51403 0.0
C2823 C 0.38921 0.28474 0.6504 0.0
C2824 C 0.41259 0.32171 0.61662 0.0
H2825 H 0.40809 0.3486 0.58659 0.0
C2826 C 0.42344 0.32246 0.59839 0.0
C2827 C 0.40703 0.33128 0.61234 0.0
C2828 C 0.39504 0.33058 0.63082 0.0
C2829 C 0.42904 0.3327 0.57616 0.0
C2830 C 0.42334 0.34216 0.57162 0.0
C2831 C 0.41249 0.34137 0.58999 0.0
C2832 C 0.42861 0.35329 0.54855 0.0
C2833 C 0.44118 0.33347 0.5581 0.0
C2834 C 0.43364 0.36798 0.55535 0.0
C2835 C 0.43714 0.37838 0.53414 0.0
C2836 C 0.43578 0.37443 0.50549 0.0
C2837 C 0.4313 0.35984 0.49849 0.0
C2838 C 0.42762 0.34931 0.51989 0.0
H2839 H 0.44699 0.32848 0.56887 0.0
H2840 H 0.43646 0.32735 0.53823 0.0
H2841 H 0.44927 0.34497 0.55259 0.0
H2842 H 0.43454 0.37136 0.57719 0.0
H2843 H 0.44063 0.38955 0.54028 0.0
H2844 H 0.61755 0.04215 0.52557 0.0
H2845 H 0.63531 0.05557 0.56218 0.0
H2846 H 0.64811 0.09612 0.51865 0.0
H2847 H 0.63025 0.08245 0.48091 0.0
H2848 H 0.67172 0.09535 0.53964 0.0
H2849 H 0.63084 0.07876 0.62462 0.0
H2850 H 0.62862 0.06288 0.60647 0.0
H2851 H 0.62576 0.07615 0.58781 0.0
C2852 C 0.62409 0.05394 0.52363 0.0
C2853 C 0.62232 0.06125 0.50044 0.0
C2854 C 0.63419 0.06164 0.54483 0.0
C2855 C 0.64271 0.07693 0.54387 0.0
C2856 C 0.64146 0.08432 0.52016 0.0
H2857 H 0.69465 0.11265 0.7011 0.0
H2858 H 0.67711 0.10886 0.66309 0.0
C2859 C 0.63132 0.07653 0.49855 0.0
C2860 C 0.65313 0.08478 0.56743 0.0
H2861 H 0.65542 0.08509 0.63949 0.0
C2862 C 0.66812 0.09335 0.56146 0.0
C2863 C 0.64851 0.08261 0.59603 0.0
C2864 C 0.63253 0.07474 0.60407 0.0
C2865 C 0.67862 0.09876 0.58319 0.0
C2866 C 0.67406 0.09515 0.6117 0.0
C2867 C 0.65902 0.08762 0.61773 0.0
C2868 C 0.68466 0.0978 0.63501 0.0
C2869 C 0.69454 0.1081 0.57524 0.0
C2870 C 0.6944 0.09246 0.63242 0.0
C2871 C 0.70437 0.09468 0.65382 0.0
C2872 C 0.70476 0.10207 0.67881 0.0
C2873 C 0.69466 0.10697 0.68207 0.0
C2874 C 0.68468 0.10485 0.66031 0.0
H2875 H 0.69576 0.11444 0.55569 0.0
H2876 H 0.70096 0.11587 0.59235 0.0
H2877 H 0.69922 0.10093 0.57095 0.0
H2878 H 0.69425 0.08644 0.61379 0.0
H2879 H 0.7118 0.09052 0.65071 0.0
H2880 H 0.78236 0.74771 0.65416 0.0
H2881 H 0.77823 0.76139 0.6919 0.0
H2882 H 0.74514 0.72066 0.72823 0.0
H2883 H 0.74953 0.70716 0.6917 0.0
H2884 H 0.75514 0.76352 0.7095 0.0
H2885 H 0.77045 0.7389 0.79587 0.0
H2886 H 0.77406 0.73697 0.75936 0.0
H2887 H 0.75645 0.72473 0.77481 0.0
C2888 C 0.77419 0.74176 0.6702 0.0
C2889 C 0.76644 0.72638 0.67027 0.0
C2890 C 0.77187 0.74955 0.6918 0.0
C2891 C 0.76174 0.74204 0.71359 0.0
C2892 C 0.75345 0.72672 0.71249 0.0
H2893 H 0.70808 0.76121 0.81437 0.0
H2894 H 0.72172 0.7568 0.77827 0.0
C2895 C 0.75589 0.71901 0.69136 0.0
C2896 C 0.75934 0.7499 0.73733 0.0
H2897 H 0.75409 0.74798 0.80876 0.0
C2898 C 0.7552 0.76033 0.73125 0.0
C2899 C 0.75984 0.74617 0.76591 0.0
C2900 C 0.76562 0.73621 0.77436 0.0
C2901 C 0.75042 0.76621 0.75268 0.0
C2902 C 0.7493 0.76116 0.78084 0.0
C2903 C 0.75459 0.75165 0.78719 0.0
C2904 C 0.74138 0.76441 0.80326 0.0
C2905 C 0.74642 0.77762 0.74474 0.0
C2906 C 0.74755 0.76954 0.83013 0.0
C2907 C 0.73956 0.77182 0.85134 0.0
C2908 C 0.72527 0.76899 0.84597 0.0
C2909 C 0.71913 0.76371 0.8192 0.0
C2910 C 0.72701 0.76132 0.79829 0.0
H2911 H 0.75314 0.78432 0.72665 0.0
H2912 H 0.73479 0.7721 0.73806 0.0
H2913 H 0.74796 0.78502 0.76268 0.0
H2914 H 0.75855 0.7718 0.83468 0.0
H2915 H 0.74456 0.77583 0.87178 0.0
H2916 H 0.25619 0.02271 0.64267 0.0
H2917 H 0.24331 0.00417 0.67965 0.0
H2918 H 0.26415 0.03733 0.74362 0.0
H2919 H 0.27695 0.05569 0.70721 0.0
H2920 H 0.25827 -0.00221 0.72324 0.0
H2921 H 0.22106 0.01516 0.76944 0.0
H2922 H 0.22898 0.02078 0.73467 0.0
H2923 H 0.23968 0.02966 0.76551 0.0
C2924 C 0.25776 0.02605 0.6646 0.0
C2925 C 0.26758 0.04066 0.672 0.0
C2926 C 0.25045 0.01547 0.6857 0.0
C2927 C 0.25262 0.0194 0.71445 0.0
C2928 C 0.26206 0.03406 0.72167 0.0
H2929 H 0.2338 0.97438 0.87744 0.0
H2930 H 0.24018 0.99279 0.83978 0.0
C2931 C 0.26946 0.04454 0.70075 0.0
C2932 C 0.24623 0.00813 0.73713 0.0
H2933 H 0.22484 -0.00176 0.79648 0.0
C2934 C 0.25081 -0.00223 0.73903 0.0
C2935 C 0.23672 0.00829 0.75808 0.0
C2936 C 0.2312 0.01898 0.7568 0.0
C2937 C 0.24642 0.98777 0.76155 0.0
C2938 C 0.23682 0.98783 0.78246 0.0
C2939 C 0.23218 -0.00183 0.78053 0.0
C2940 C 0.23127 0.97692 0.8059 0.0
C2941 C 0.25251 0.97753 0.76317 0.0
C2942 C 0.22354 0.96194 0.79959 0.0
C2943 C 0.22005 0.95155 0.82085 0.0
C2944 C 0.22389 0.95585 0.84908 0.0
C2945 C 0.23062 0.97079 0.85589 0.0
C2946 C 0.23432 0.98128 0.83436 0.0
H2947 H 0.26279 0.98171 0.75078 0.0
H2948 H 0.25477 0.97588 0.78534 0.0
H2949 H 0.24441 0.96675 0.75427 0.0
H2950 H 0.22068 0.95826 0.77798 0.0
H2951 H 0.21476 0.9401 0.81501 0.0
H2952 H 0.9621 0.21451 0.64992 0.0
H2953 H 0.97986 0.21871 0.68768 0.0
H2954 H 0.96597 0.24533 0.73226 0.0
H2955 H 0.94802 0.24069 0.69571 0.0
H2956 H 0.00273 0.24178 0.7079 0.0
H2957 H 0.96307 0.21924 0.79503 0.0
H2958 H 0.95735 0.21677 0.7586 0.0
H2959 H 0.96097 0.23311 0.77749 0.0
C2960 C 0.96286 0.22121 0.66788 0.0
C2961 C 0.95352 0.22708 0.67007 0.0
C2962 C 0.97296 0.22357 0.68949 0.0
C2963 C 0.97392 0.23192 0.71346 0.0
C2964 C 0.96504 0.23831 0.71478 0.0
H2965 H 0.04575 0.28685 0.81592 0.0
H2966 H 0.02753 0.27355 0.77994 0.0
C2967 C 0.95486 0.23576 0.69362 0.0
C2968 C 0.98459 0.23468 0.73664 0.0
H2969 H 0.98798 0.2374 0.80849 0.0
C2970 C -0.00056 0.24055 0.72988 0.0
C2971 C 0.98039 0.23266 0.76549 0.0
C2972 C 0.96454 0.22493 0.77452 0.0
C2973 C 0.01023 0.24547 0.751 0.0
C2974 C 0.00616 0.24504 0.77969 0.0
C2975 C 0.99122 0.23811 0.78656 0.0
C2976 C 0.0172 0.25289 0.80232 0.0
C2977 C 0.02592 0.25123 0.7422 0.0
C2978 C 0.01706 0.246 0.82792 0.0
C2979 C 0.0274 0.25379 0.84914 0.0
C2980 C 0.03805 0.26855 0.845 0.0
C2981 C 0.03789 0.27542 0.81966 0.0
C2982 C 0.02753 0.26776 0.79881 0.0
H2983 H 0.02653 0.2456 0.72287 0.0
H2984 H 0.03103 0.26306 0.73715 0.0
H2985 H 0.03238 0.2498 0.75912 0.0
H2986 H 0.00905 0.23459 0.83138 0.0
H2987 H 0.02721 0.24824 0.86851 0.0
H2988 H 0.25635 0.23315 0.14379 0.0
H2989 H 0.24403 0.23936 0.18107 0.0
H2990 H 0.26027 0.22141 0.24379 0.0
H2991 H 0.27286 0.21572 0.20712 0.0
H2992 H 0.22358 0.22412 0.22401 0.0
H2993 H 0.27749 0.26329 0.27022 0.0
H2994 H 0.2757 0.25511 0.23598 0.0
H2995 H 0.27459 0.24508 0.26753 0.0
C2996 C 0.25704 0.23033 0.16549 0.0
C2997 C 0.2657 0.22412 0.17262 0.0
C2998 C 0.25006 0.23391 0.18678 0.0
C2999 C 0.25158 0.23123 0.21536 0.0
C3000 C 0.2593 0.22401 0.22207 0.0
H3001 H 0.22907 0.25678 0.37614 0.0
H3002 H 0.23478 0.24336 0.34045 0.0
C3003 C 0.26641 0.22067 0.20102 0.0
C3004 C 0.24586 0.23659 0.23846 0.0
H3005 H 0.25659 0.25841 0.29712 0.0
C3006 C 0.2308 0.23164 0.23995 0.0
C3007 C 0.25527 0.24644 0.25932 0.0
C3008 C 0.27167 0.25291 0.2581 0.0
C3009 C 0.2249 0.23613 0.26189 0.0
C3010 C 0.23432 0.24588 0.28278 0.0
C3011 C 0.24934 0.25075 0.28137 0.0
C3012 C 0.22913 0.25234 0.30469 0.0
C3013 C 0.20863 0.23035 0.26266 0.0
C3014 C 0.224 0.26173 0.29646 0.0
C3015 C 0.22092 0.26944 0.31664 0.0
C3016 C 0.22281 0.26792 0.3456 0.0
C3017 C 0.22739 0.25807 0.35402 0.0
C3018 C 0.23068 0.25045 0.33366 0.0
H3019 H 0.20253 0.22013 0.25017 0.0
H3020 H 0.20447 0.22818 0.28469 0.0
H3021 H 0.20631 0.23866 0.25349 0.0
H3022 H 0.22298 0.26359 0.2743 0.0
H3023 H 0.21741 0.27696 0.30946 0.0
H3024 H 0.75926 0.02006 0.13875 0.0
H3025 H 0.75288 0.00189 0.17684 0.0
H3026 H 0.77603 0.03682 0.23667 0.0
H3027 H 0.78188 0.05479 0.19922 0.0
H3028 H 0.76775 0.99504 0.2174 0.0
H3029 H 0.73526 0.01649 0.26955 0.0
H3030 H 0.74239 0.02175 0.23426 0.0
H3031 H 0.75404 0.03023 0.26432 0.0
C3032 C 0.76324 0.02378 0.15992 0.0
C3033 C 0.77098 0.03882 0.16609 0.0
C3034 C 0.75953 0.01343 0.18172 0.0
C3035 C 0.7636 0.01799 0.20986 0.0
C3036 C 0.77235 0.033 0.2154 0.0
H3037 H 0.73873 0.97111 0.3731 0.0
H3038 H 0.75244 0.98976 0.3366 0.0
C3039 C 0.77582 0.04327 0.19388 0.0
C3040 C 0.75809 0.0073 0.23375 0.0
H3041 H 0.73848 -0.00093 0.29529 0.0
C3042 C 0.76135 0.99592 0.2344 0.0
C3043 C 0.7497 0.0084 0.25606 0.0
C3044 C 0.74501 0.01978 0.25596 0.0
C3045 C 0.75656 0.98574 0.25676 0.0
C3046 C 0.7482 0.98688 0.279 0.0
C3047 C 0.74508 -0.00167 0.27851 0.0
C3048 C 0.74123 0.97545 0.30132 0.0
C3049 C 0.7605 0.97383 0.25645 0.0
C3050 C 0.73044 0.96127 0.29368 0.0
C3051 C 0.7226 0.95078 0.31431 0.0
C3052 C 0.72534 0.95412 0.34322 0.0
C3053 C 0.73647 0.96818 0.35102 0.0
C3054 C 0.74425 0.97883 0.3302 0.0
H3055 H 0.77019 0.97681 0.2429 0.0
H3056 H 0.76279 0.97147 0.2781 0.0
H3057 H 0.75115 0.96366 0.24784 0.0
H3058 H 0.72768 0.95845 0.27168 0.0
H3059 H 0.7141 0.94005 0.30752 0.0
H3060 H 0.02726 0.77784 0.37 0.0
H3061 H 0.00867 0.77293 0.33357 0.0
H3062 H 0.02807 0.75414 0.28001 0.0
H3063 H 0.04666 0.75941 0.31531 0.0
H3064 H 0.02212 0.77162 0.25011 0.0
H3065 H 0.9733 0.73436 0.31422 0.0
H3066 H 0.98432 0.75251 0.32807 0.0
H3067 H 0.99169 0.74043 0.32609 0.0
C3068 C 0.02748 0.77265 0.35044 0.0
C3069 C 0.03846 0.76906 0.34556 0.0
C3070 C 0.01683 0.76978 0.32967 0.0
C3071 C 0.01687 0.76305 0.30398 0.0
C3072 C 0.0278 0.75943 0.29943 0.0
H3073 H 0.95104 0.70686 0.19123 0.0
H3074 H 0.96905 0.72005 0.2278 0.0
C3075 C 0.03845 0.76243 0.3198 0.0
C3076 C 0.00567 0.7595 0.28149 0.0
H3077 H 0.96932 0.73762 0.26681 0.0
C3078 C 0.01054 0.76429 0.25379 0.0
C3079 C 0.99055 0.74992 0.28623 0.0
C3080 C 0.9846 0.74388 0.31517 0.0
C3081 C 0.00093 0.75911 0.2306 0.0
C3082 C 0.98586 0.74924 0.23526 0.0
C3083 C 0.98086 0.74515 0.26316 0.0
C3084 C 0.97536 0.74162 0.21167 0.0
C3085 C 0.00721 0.76358 0.20127 0.0
C3086 C 0.973 0.74926 0.18978 0.0
C3087 C 0.96284 0.74162 0.16819 0.0
C3088 C 0.95464 0.72626 0.16865 0.0
C3089 C 0.95712 0.71871 0.1904 0.0
C3090 C 0.96739 0.72626 0.21146 0.0
H3091 H 0.01929 0.7684 0.20107 0.0
H3092 H 0.00233 0.75408 0.18669 0.0
H3093 H 0.00473 0.77195 0.19307 0.0
H3094 H 0.97876 0.7611 0.18967 0.0
H3095 H 0.96101 0.7477 0.15184 0.0
loop_
_geom_bond_atom_site_label_1
_geom_bond_atom_site_label_2
_geom_bond_distance
_geom_bond_site_symmetry_2
_ccdc_geom_bond_type
Co0 O1 2.216 . S
Co0 O2 2.091 . S
Co0 O4 2.004 . S
Co0 O10 2.021 . S
Co0 O12 2.137 . S
Co0 O13 2.244 . S
O1 Co0 2.216 . S
O1 C8 1.247 . S
O2 Co0 2.091 . S
O2 C8 1.261 . S
C3 O12 1.247 . S
C3 O13 1.272 . S
O4 Co0 2.004 . S
O4 C9 1.259 . S
Co5 O6 2.061 . S
Co5 O11 2.052 . S
Co5 O13 2.135 . S
O6 Co5 2.061 . S
O6 C9 1.235 . S
C7 O10 1.238 . S
C7 O11 1.241 . S
C8 O1 1.247 . S
C8 O2 1.261 . S
C9 O4 1.259 . S
C9 O6 1.235 . S
O10 Co0 2.021 . S
O10 C7 1.238 . S
O11 Co5 2.052 . S
O11 C7 1.241 . S
O12 Co0 2.137 . S
O12 C3 1.247 . S
O13 Co0 2.244 . S
O13 C3 1.272 . S
O13 Co5 2.135 . S
Co14 O15 2.216 . S
Co14 O16 2.091 . S
Co14 O18 2.004 . S
Co14 O24 2.021 . S
Co14 O26 2.137 . S
Co14 O27 2.244 . S
O15 Co14 2.216 . S
O15 C22 1.247 . S
O16 Co14 2.091 . S
O16 C22 1.261 . S
C17 O26 1.247 . S
C17 O27 1.272 . S
O18 Co14 2.004 . S
O18 C23 1.259 . S
Co19 O20 2.061 . S
Co19 O25 2.052 . S
Co19 O27 2.135 . S
O20 Co19 2.061 . S
O20 C23 1.235 . S
C21 O24 1.238 . S
C21 O25 1.241 . S
C22 O15 1.247 . S
C22 O16 1.261 . S
C23 O18 1.259 . S
C23 O20 1.235 . S
O24 Co14 2.021 . S
O24 C21 1.238 . S
O25 Co19 2.052 . S
O25 C21 1.241 . S
O26 Co14 2.137 . S
O26 C17 1.247 . S
O27 Co14 2.244 . S
O27 C17 1.272 . S
O27 Co19 2.135 . S
Co28 O29 2.216 . S
Co28 O30 2.091 . S
Co28 O32 2.004 . S
Co28 O38 2.021 . S
Co28 O40 2.137 . S
Co28 O41 2.244 . S
O29 Co28 2.216 . S
O29 C36 1.247 . S
O30 Co28 2.091 . S
O30 C36 1.261 . S
C31 O40 1.247 . S
C31 O41 1.272 . S
O32 Co28 2.004 . S
O32 C37 1.259 . S
Co33 O34 2.061 . S
Co33 O39 2.052 . S
Co33 O41 2.135 . S
O34 Co33 2.061 . S
O34 C37 1.235 . S
C35 O38 1.238 . S
C35 O39 1.241 . S
C36 O29 1.247 . S
C36 O30 1.261 . S
C37 O32 1.259 . S
C37 O34 1.235 . S
O38 Co28 2.021 . S
O38 C35 1.238 . S
O39 Co33 2.052 . S
O39 C35 1.241 . S
O40 Co28 2.137 . S
O40 C31 1.247 . S
O41 Co28 2.244 . S
O41 C31 1.272 . S
O41 Co33 2.135 . S
Co42 O43 2.216 . S
Co42 O44 2.091 . S
Co42 O46 2.004 . S
Co42 O52 2.021 . S
Co42 O54 2.137 . S
Co42 O55 2.244 . S
O43 Co42 2.216 . S
O43 C50 1.247 . S
O44 Co42 2.091 . S
O44 C50 1.261 . S
C45 O54 1.247 . S
C45 O55 1.272 . S
O46 Co42 2.004 . S
O46 C51 1.259 . S
Co47 O48 2.061 . S
Co47 O53 2.052 . S
Co47 O55 2.135 . S
O48 Co47 2.061 . S
O48 C51 1.235 . S
C49 O52 1.238 . S
C49 O53 1.241 . S
C50 O43 1.247 . S
C50 O44 1.261 . S
C51 O46 1.259 . S
C51 O48 1.235 . S
O52 Co42 2.021 . S
O52 C49 1.238 . S
O53 Co47 2.052 . S
O53 C49 1.241 . S
O54 Co42 2.137 . S
O54 C45 1.247 . S
O55 Co42 2.244 . S
O55 C45 1.272 . S
O55 Co47 2.135 . S
Co56 O57 2.216 . S
Co56 O58 2.091 . S
Co56 O60 2.004 . S
Co56 O66 2.021 . S
Co56 O68 2.137 . S
Co56 O69 2.244 . S
O57 Co56 2.216 . S
O57 C64 1.247 . S
O58 Co56 2.091 . S
O58 C64 1.261 . S
C59 O68 1.247 . S
C59 O69 1.272 . S
O60 Co56 2.004 . S
O60 C65 1.259 . S
Co61 O62 2.061 . S
Co61 O67 2.052 . S
Co61 O69 2.135 . S
O62 Co61 2.061 . S
O62 C65 1.235 . S
C63 O66 1.238 . S
C63 O67 1.241 . S
C64 O57 1.247 . S
C64 O58 1.261 . S
C65 O60 1.259 . S
C65 O62 1.235 . S
O66 Co56 2.021 . S
O66 C63 1.238 . S
O67 Co61 2.052 . S
O67 C63 1.241 . S
O68 Co56 2.137 . S
O68 C59 1.247 . S
O69 Co56 2.244 . S
O69 C59 1.272 . S
O69 Co61 2.135 . S
Co70 O71 2.216 . S
Co70 O72 2.091 . S
Co70 O74 2.004 . S
Co70 O80 2.021 . S
Co70 O82 2.137 . S
Co70 O83 2.244 . S
O71 Co70 2.216 . S
O71 C78 1.247 . S
O72 Co70 2.091 . S
O72 C78 1.261 . S
C73 O82 1.247 . S
C73 O83 1.272 . S
O74 Co70 2.004 . S
O74 C79 1.259 . S
Co75 O76 2.061 . S
Co75 O81 2.052 . S
Co75 O83 2.135 . S
O76 Co75 2.061 . S
O76 C79 1.235 . S
C77 O80 1.238 . S
C77 O81 1.241 . S
C78 O71 1.247 . S
C78 O72 1.261 . S
C79 O74 1.259 . S
C79 O76 1.235 . S
O80 Co70 2.021 . S
O80 C77 1.238 . S
O81 Co75 2.052 . S
O81 C77 1.241 . S
O82 Co70 2.137 . S
O82 C73 1.247 . S
O83 Co70 2.244 . S
O83 C73 1.272 . S
O83 Co75 2.135 . S
Co84 O85 2.216 . S
Co84 O86 2.091 . S
Co84 O88 2.004 . S
Co84 O94 2.021 . S
Co84 O96 2.137 . S
Co84 O97 2.244 . S
O85 Co84 2.216 . S
O85 C92 1.247 . S
O86 Co84 2.091 . S
O86 C92 1.261 . S
C87 O96 1.247 . S
C87 O97 1.272 . S
O88 Co84 2.004 . S
O88 C93 1.259 . S
Co89 O90 2.061 . S
Co89 O95 2.052 . S
Co89 O97 2.135 . S
O90 Co89 2.061 . S
O90 C93 1.235 . S
C91 O94 1.238 . S
C91 O95 1.241 . S
C92 O85 1.247 . S
C92 O86 1.261 . S
C93 O88 1.259 . S
C93 O90 1.235 . S
O94 Co84 2.021 . S
O94 C91 1.238 . S
O95 Co89 2.052 . S
O95 C91 1.241 . S
O96 Co84 2.137 . S
O96 C87 1.247 . S
O97 Co84 2.244 . S
O97 C87 1.272 . S
O97 Co89 2.135 . S
Co98 O99 2.216 . S
Co98 O100 2.091 . S
Co98 O102 2.004 . S
Co98 O108 2.021 . S
Co98 O110 2.137 . S
Co98 O111 2.244 . S
O99 Co98 2.216 . S
O99 C106 1.247 . S
O100 Co98 2.091 . S
O100 C106 1.261 . S
C101 O110 1.247 . S
C101 O111 1.272 . S
O102 Co98 2.004 . S
O102 C107 1.259 . S
Co103 O104 2.061 . S
Co103 O109 2.052 . S
Co103 O111 2.135 . S
O104 Co103 2.061 . S
O104 C107 1.235 . S
C105 O108 1.238 . S
C105 O109 1.241 . S
C106 O99 1.247 . S
C106 O100 1.261 . S
C107 O102 1.259 . S
C107 O104 1.235 . S
O108 Co98 2.021 . S
O108 C105 1.238 . S
O109 Co103 2.052 . S
O109 C105 1.241 . S
O110 Co98 2.137 . S
O110 C101 1.247 . S
O111 Co98 2.244 . S
O111 C101 1.272 . S
O111 Co103 2.135 . S
Co112 O113 2.216 . S
Co112 O114 2.091 . S
Co112 O116 2.004 . S
Co112 O122 2.021 . S
Co112 O124 2.137 . S
Co112 O125 2.244 . S
O113 Co112 2.216 . S
O113 C120 1.247 . S
O114 Co112 2.091 . S
O114 C120 1.261 . S
C115 O124 1.247 . S
C115 O125 1.272 . S
O116 Co112 2.004 . S
O116 C121 1.259 . S
Co117 O118 2.061 . S
Co117 O123 2.052 . S
Co117 O125 2.135 . S
O118 Co117 2.061 . S
O118 C121 1.235 . S
C119 O122 1.238 . S
C119 O123 1.241 . S
C120 O113 1.247 . S
C120 O114 1.261 . S
C121 O116 1.259 . S
C121 O118 1.235 . S
O122 Co112 2.021 . S
O122 C119 1.238 . S
O123 Co117 2.052 . S
O123 C119 1.241 . S
O124 Co112 2.137 . S
O124 C115 1.247 . S
O125 Co112 2.244 . S
O125 C115 1.272 . S
O125 Co117 2.135 . S
Co126 O127 2.216 . S
Co126 O128 2.091 . S
Co126 O130 2.004 . S
Co126 O136 2.021 . S
Co126 O138 2.137 . S
Co126 O139 2.244 . S
O127 Co126 2.216 . S
O127 C134 1.247 . S
O128 Co126 2.091 . S
O128 C134 1.261 . S
C129 O138 1.247 . S
C129 O139 1.272 . S
O130 Co126 2.004 . S
O130 C135 1.259 . S
Co131 O132 2.061 . S
Co131 O137 2.052 . S
Co131 O139 2.135 . S
O132 Co131 2.061 . S
O132 C135 1.235 . S
C133 O136 1.238 . S
C133 O137 1.241 . S
C134 O127 1.247 . S
C134 O128 1.261 . S
C135 O130 1.259 . S
C135 O132 1.235 . S
O136 Co126 2.021 . S
O136 C133 1.238 . S
O137 Co131 2.052 . S
O137 C133 1.241 . S
O138 Co126 2.137 . S
O138 C129 1.247 . S
O139 Co126 2.244 . S
O139 C129 1.272 . S
O139 Co131 2.135 . S
Co140 O141 2.216 . S
Co140 O142 2.091 . S
Co140 O144 2.004 . S
Co140 O150 2.021 . S
Co140 O152 2.137 . S
Co140 O153 2.244 . S
O141 Co140 2.216 . S
O141 C148 1.247 . S
O142 Co140 2.091 . S
O142 C148 1.261 . S
C143 O152 1.247 . S
C143 O153 1.272 . S
O144 Co140 2.004 . S
O144 C149 1.259 . S
Co145 O146 2.061 . S
Co145 O151 2.052 . S
Co145 O153 2.135 . S
O146 Co145 2.061 . S
O146 C149 1.235 . S
C147 O150 1.238 . S
C147 O151 1.241 . S
C148 O141 1.247 . S
C148 O142 1.261 . S
C149 O144 1.259 . S
C149 O146 1.235 . S
O150 Co140 2.021 . S
O150 C147 1.238 . S
O151 Co145 2.052 . S
O151 C147 1.241 . S
O152 Co140 2.137 . S
O152 C143 1.247 . S
O153 Co140 2.244 . S
O153 C143 1.272 . S
O153 Co145 2.135 . S
Co154 O155 2.216 . S
Co154 O156 2.091 . S
Co154 O158 2.004 . S
Co154 O164 2.021 . S
Co154 O166 2.137 . S
Co154 O167 2.244 . S
O155 Co154 2.216 . S
O155 C162 1.247 . S
O156 Co154 2.091 . S
O156 C162 1.261 . S
C157 O166 1.247 . S
C157 O167 1.272 . S
O158 Co154 2.004 . S
O158 C163 1.259 . S
Co159 O160 2.061 . S
Co159 O165 2.052 . S
Co159 O167 2.135 . S
O160 Co159 2.061 . S
O160 C163 1.235 . S
C161 O164 1.238 . S
C161 O165 1.241 . S
C162 O155 1.247 . S
C162 O156 1.261 . S
C163 O158 1.259 . S
C163 O160 1.235 . S
O164 Co154 2.021 . S
O164 C161 1.238 . S
O165 Co159 2.052 . S
O165 C161 1.241 . S
O166 Co154 2.137 . S
O166 C157 1.247 . S
O167 Co154 2.244 . S
O167 C157 1.272 . S
O167 Co159 2.135 . S
Co168 O169 2.216 . S
Co168 O170 2.091 . S
Co168 O172 2.004 . S
Co168 O178 2.021 . S
Co168 O180 2.137 . S
Co168 O181 2.244 . S
O169 Co168 2.216 . S
O169 C176 1.247 . S
O170 Co168 2.091 . S
O170 C176 1.261 . S
C171 O180 1.247 . S
C171 O181 1.272 . S
O172 Co168 2.004 . S
O172 C177 1.259 . S
Co173 O174 2.061 . S
Co173 O179 2.052 . S
Co173 O181 2.135 . S
O174 Co173 2.061 . S
O174 C177 1.235 . S
C175 O178 1.238 . S
C175 O179 1.241 . S
C176 O169 1.247 . S
C176 O170 1.261 . S
C177 O172 1.259 . S
C177 O174 1.235 . S
O178 Co168 2.021 . S
O178 C175 1.238 . S
O179 Co173 2.052 . S
O179 C175 1.241 . S
O180 Co168 2.137 . S
O180 C171 1.247 . S
O181 Co168 2.244 . S
O181 C171 1.272 . S
O181 Co173 2.135 . S
Co182 O183 2.216 . S
Co182 O184 2.091 . S
Co182 O186 2.004 . S
Co182 O192 2.021 . S
Co182 O194 2.137 . S
Co182 O195 2.244 . S
O183 Co182 2.216 . S
O183 C190 1.247 . S
O184 Co182 2.091 . S
O184 C190 1.261 . S
C185 O194 1.247 . S
C185 O195 1.272 . S
O186 Co182 2.004 . S
O186 C191 1.259 . S
Co187 O188 2.061 . S
Co187 O193 2.052 . S
Co187 O195 2.135 . S
O188 Co187 2.061 . S
O188 C191 1.235 . S
C189 O192 1.238 . S
C189 O193 1.241 . S
C190 O183 1.247 . S
C190 O184 1.261 . S
C191 O186 1.259 . S
C191 O188 1.235 . S
O192 Co182 2.021 . S
O192 C189 1.238 . S
O193 Co187 2.052 . S
O193 C189 1.241 . S
O194 Co182 2.137 . S
O194 C185 1.247 . S
O195 Co182 2.244 . S
O195 C185 1.272 . S
O195 Co187 2.135 . S
Co196 O197 2.216 . S
Co196 O198 2.091 . S
Co196 O200 2.004 . S
Co196 O206 2.021 . S
Co196 O208 2.137 . S
Co196 O209 2.244 . S
O197 Co196 2.216 . S
O197 C204 1.247 . S
O198 Co196 2.091 . S
O198 C204 1.261 . S
C199 O208 1.247 . S
C199 O209 1.272 . S
O200 Co196 2.004 . S
O200 C205 1.259 . S
Co201 O202 2.061 . S
Co201 O207 2.052 . S
Co201 O209 2.135 . S
O202 Co201 2.061 . S
O202 C205 1.235 . S
C203 O206 1.238 . S
C203 O207 1.241 . S
C204 O197 1.247 . S
C204 O198 1.261 . S
C205 O200 1.259 . S
C205 O202 1.235 . S
O206 Co196 2.021 . S
O206 C203 1.238 . S
O207 Co201 2.052 . S
O207 C203 1.241 . S
O208 Co196 2.137 . S
O208 C199 1.247 . S
O209 Co196 2.244 . S
O209 C199 1.272 . S
O209 Co201 2.135 . S
Co210 O211 2.216 . S
Co210 O212 2.091 . S
Co210 O214 2.004 . S
Co210 O220 2.021 . S
Co210 O222 2.137 . S
Co210 O223 2.244 . S
O211 Co210 2.216 . S
O211 C218 1.247 . S
O212 Co210 2.091 . S
O212 C218 1.261 . S
C213 O222 1.247 . S
C213 O223 1.272 . S
O214 Co210 2.004 . S
O214 C219 1.259 . S
Co215 O216 2.061 . S
Co215 O221 2.052 . S
Co215 O223 2.135 . S
O216 Co215 2.061 . S
O216 C219 1.235 . S
C217 O220 1.238 . S
C217 O221 1.241 . S
C218 O211 1.247 . S
C218 O212 1.261 . S
C219 O214 1.259 . S
C219 O216 1.235 . S
O220 Co210 2.021 . S
O220 C217 1.238 . S
O221 Co215 2.052 . S
O221 C217 1.241 . S
O222 Co210 2.137 . S
O222 C213 1.247 . S
O223 Co210 2.244 . S
O223 C213 1.272 . S
O223 Co215 2.135 . S
Co224 O225 2.216 . S
Co224 O226 2.091 . S
Co224 O228 2.004 . S
Co224 O234 2.021 . S
Co224 O236 2.137 . S
Co224 O237 2.244 . S
O225 Co224 2.216 . S
O225 C232 1.247 . S
O226 Co224 2.091 . S
O226 C232 1.261 . S
C227 O236 1.247 . S
C227 O237 1.272 . S
O228 Co224 2.004 . S
O228 C233 1.259 . S
Co229 O230 2.061 . S
Co229 O235 2.052 . S
Co229 O237 2.135 . S
O230 Co229 2.061 . S
O230 C233 1.235 . S
C231 O234 1.238 . S
C231 O235 1.241 . S
C232 O225 1.247 . S
C232 O226 1.261 . S
C233 O228 1.259 . S
C233 O230 1.235 . S
O234 Co224 2.021 . S
O234 C231 1.238 . S
O235 Co229 2.052 . S
O235 C231 1.241 . S
O236 Co224 2.137 . S
O236 C227 1.247 . S
O237 Co224 2.244 . S
O237 C227 1.272 . S
O237 Co229 2.135 . S
Co238 O239 2.216 . S
Co238 O240 2.091 . S
Co238 O242 2.004 . S
Co238 O248 2.021 . S
Co238 O250 2.137 . S
Co238 O251 2.244 . S
O239 Co238 2.216 . S
O239 C246 1.247 . S
O240 Co238 2.091 . S
O240 C246 1.261 . S
C241 O250 1.247 . S
C241 O251 1.272 . S
O242 Co238 2.004 . S
O242 C247 1.259 . S
Co243 O244 2.061 . S
Co243 O249 2.052 . S
Co243 O251 2.135 . S
O244 Co243 2.061 . S
O244 C247 1.235 . S
C245 O248 1.238 . S
C245 O249 1.241 . S
C246 O239 1.247 . S
C246 O240 1.261 . S
C247 O242 1.259 . S
C247 O244 1.235 . S
O248 Co238 2.021 . S
O248 C245 1.238 . S
O249 Co243 2.052 . S
O249 C245 1.241 . S
O250 Co238 2.137 . S
O250 C241 1.247 . S
O251 Co238 2.244 . S
O251 C241 1.272 . S
O251 Co243 2.135 . S
Co252 O253 2.216 . S
Co252 O254 2.091 . S
Co252 O256 2.004 . S
Co252 O262 2.021 . S
Co252 O264 2.137 . S
Co252 O265 2.244 . S
O253 Co252 2.216 . S
O253 C260 1.247 . S
O254 Co252 2.091 . S
O254 C260 1.261 . S
C255 O264 1.247 . S
C255 O265 1.272 . S
O256 Co252 2.004 . S
O256 C261 1.259 . S
Co257 O258 2.061 . S
Co257 O263 2.052 . S
Co257 O265 2.135 . S
O258 Co257 2.061 . S
O258 C261 1.235 . S
C259 O262 1.238 . S
C259 O263 1.241 . S
C260 O253 1.247 . S
C260 O254 1.261 . S
C261 O256 1.259 . S
C261 O258 1.235 . S
O262 Co252 2.021 . S
O262 C259 1.238 . S
O263 Co257 2.052 . S
O263 C259 1.241 . S
O264 Co252 2.137 . S
O264 C255 1.247 . S
O265 Co252 2.244 . S
O265 C255 1.272 . S
O265 Co257 2.135 . S
Co266 O267 2.216 . S
Co266 O268 2.091 . S
Co266 O270 2.004 . S
Co266 O276 2.021 . S
Co266 O278 2.137 . S
Co266 O279 2.244 . S
O267 Co266 2.216 . S
O267 C274 1.247 . S
O268 Co266 2.091 . S
O268 C274 1.261 . S
C269 O278 1.247 . S
C269 O279 1.272 . S
O270 Co266 2.004 . S
O270 C275 1.259 . S
Co271 O272 2.061 . S
Co271 O277 2.052 . S
Co271 O279 2.135 . S
O272 Co271 2.061 . S
O272 C275 1.235 . S
C273 O276 1.238 . S
C273 O277 1.241 . S
C274 O267 1.247 . S
C274 O268 1.261 . S
C275 O270 1.259 . S
C275 O272 1.235 . S
O276 Co266 2.021 . S
O276 C273 1.238 . S
O277 Co271 2.052 . S
O277 C273 1.241 . S
O278 Co266 2.137 . S
O278 C269 1.247 . S
O279 Co266 2.244 . S
O279 C269 1.272 . S
O279 Co271 2.135 . S
Co280 O281 2.216 . S
Co280 O282 2.091 . S
Co280 O284 2.004 . S
Co280 O290 2.021 . S
Co280 O292 2.137 . S
Co280 O293 2.244 . S
O281 Co280 2.216 . S
O281 C288 1.247 . S
O282 Co280 2.091 . S
O282 C288 1.261 . S
C283 O292 1.247 . S
C283 O293 1.272 . S
O284 Co280 2.004 . S
O284 C289 1.259 . S
Co285 O286 2.061 . S
Co285 O291 2.052 . S
Co285 O293 2.135 . S
O286 Co285 2.061 . S
O286 C289 1.235 . S
C287 O290 1.238 . S
C287 O291 1.241 . S
C288 O281 1.247 . S
C288 O282 1.261 . S
C289 O284 1.259 . S
C289 O286 1.235 . S
O290 Co280 2.021 . S
O290 C287 1.238 . S
O291 Co285 2.052 . S
O291 C287 1.241 . S
O292 Co280 2.137 . S
O292 C283 1.247 . S
O293 Co280 2.244 . S
O293 C283 1.272 . S
O293 Co285 2.135 . S
Co294 O295 2.216 . S
Co294 O296 2.091 . S
Co294 O298 2.004 . S
Co294 O304 2.021 . S
Co294 O306 2.137 . S
Co294 O307 2.244 . S
O295 Co294 2.216 . S
O295 C302 1.247 . S
O296 Co294 2.091 . S
O296 C302 1.261 . S
C297 O306 1.247 . S
C297 O307 1.272 . S
O298 Co294 2.004 . S
O298 C303 1.259 . S
Co299 O300 2.061 . S
Co299 O305 2.052 . S
Co299 O307 2.135 . S
O300 Co299 2.061 . S
O300 C303 1.235 . S
C301 O304 1.238 . S
C301 O305 1.241 . S
C302 O295 1.247 . S
C302 O296 1.261 . S
C303 O298 1.259 . S
C303 O300 1.235 . S
O304 Co294 2.021 . S
O304 C301 1.238 . S
O305 Co299 2.052 . S
O305 C301 1.241 . S
O306 Co294 2.137 . S
O306 C297 1.247 . S
O307 Co294 2.244 . S
O307 C297 1.272 . S
O307 Co299 2.135 . S
Co308 O309 2.216 . S
Co308 O310 2.091 . S
Co308 O312 2.004 . S
Co308 O318 2.021 . S
Co308 O320 2.137 . S
Co308 O321 2.244 . S
O309 Co308 2.216 . S
O309 C316 1.247 . S
O310 Co308 2.091 . S
O310 C316 1.261 . S
C311 O320 1.247 . S
C311 O321 1.272 . S
O312 Co308 2.004 . S
O312 C317 1.259 . S
Co313 O314 2.061 . S
Co313 O319 2.052 . S
Co313 O321 2.135 . S
O314 Co313 2.061 . S
O314 C317 1.235 . S
C315 O318 1.238 . S
C315 O319 1.241 . S
C316 O309 1.247 . S
C316 O310 1.261 . S
C317 O312 1.259 . S
C317 O314 1.235 . S
O318 Co308 2.021 . S
O318 C315 1.238 . S
O319 Co313 2.052 . S
O319 C315 1.241 . S
O320 Co308 2.137 . S
O320 C311 1.247 . S
O321 Co308 2.244 . S
O321 C311 1.272 . S
O321 Co313 2.135 . S
Co322 O323 2.216 . S
Co322 O324 2.091 . S
Co322 O326 2.004 . S
Co322 O332 2.021 . S
Co322 O334 2.137 . S
Co322 O335 2.244 . S
O323 Co322 2.216 . S
O323 C330 1.247 . S
O324 Co322 2.091 . S
O324 C330 1.261 . S
C325 O334 1.247 . S
C325 O335 1.272 . S
O326 Co322 2.004 . S
O326 C331 1.259 . S
Co327 O328 2.061 . S
Co327 O333 2.052 . S
Co327 O335 2.135 . S
O328 Co327 2.061 . S
O328 C331 1.235 . S
C329 O332 1.238 . S
C329 O333 1.241 . S
C330 O323 1.247 . S
C330 O324 1.261 . S
C331 O326 1.259 . S
C331 O328 1.235 . S
O332 Co322 2.021 . S
O332 C329 1.238 . S
O333 Co327 2.052 . S
O333 C329 1.241 . S
O334 Co322 2.137 . S
O334 C325 1.247 . S
O335 Co322 2.244 . S
O335 C325 1.272 . S
O335 Co327 2.135 . S
Co336 O337 2.216 . S
Co336 O338 2.091 . S
Co336 O340 2.004 . S
Co336 O346 2.021 . S
Co336 O348 2.137 . S
Co336 O349 2.244 . S
O337 Co336 2.216 . S
O337 C344 1.247 . S
O338 Co336 2.091 . S
O338 C344 1.261 . S
C339 O348 1.247 . S
C339 O349 1.272 . S
O340 Co336 2.004 . S
O340 C345 1.259 . S
Co341 O342 2.061 . S
Co341 O347 2.052 . S
Co341 O349 2.135 . S
O342 Co341 2.061 . S
O342 C345 1.235 . S
C343 O346 1.238 . S
C343 O347 1.241 . S
C344 O337 1.247 . S
C344 O338 1.261 . S
C345 O340 1.259 . S
C345 O342 1.235 . S
O346 Co336 2.021 . S
O346 C343 1.238 . S
O347 Co341 2.052 . S
O347 C343 1.241 . S
O348 Co336 2.137 . S
O348 C339 1.247 . S
O349 Co336 2.244 . S
O349 C339 1.272 . S
O349 Co341 2.135 . S
Co350 O351 2.216 . S
Co350 O352 2.091 . S
Co350 O354 2.004 . S
Co350 O360 2.021 . S
Co350 O362 2.137 . S
Co350 O363 2.244 . S
O351 Co350 2.216 . S
O351 C358 1.247 . S
O352 Co350 2.091 . S
O352 C358 1.261 . S
C353 O362 1.247 . S
C353 O363 1.272 . S
O354 Co350 2.004 . S
O354 C359 1.259 . S
Co355 O356 2.061 . S
Co355 O361 2.052 . S
Co355 O363 2.135 . S
O356 Co355 2.061 . S
O356 C359 1.235 . S
C357 O360 1.238 . S
C357 O361 1.241 . S
C358 O351 1.247 . S
C358 O352 1.261 . S
C359 O354 1.259 . S
C359 O356 1.235 . S
O360 Co350 2.021 . S
O360 C357 1.238 . S
O361 Co355 2.052 . S
O361 C357 1.241 . S
O362 Co350 2.137 . S
O362 C353 1.247 . S
O363 Co350 2.244 . S
O363 C353 1.272 . S
O363 Co355 2.135 . S
Co364 O365 2.216 . S
Co364 O366 2.091 . S
Co364 O368 2.004 . S
Co364 O374 2.021 . S
Co364 O376 2.137 . S
Co364 O377 2.244 . S
O365 Co364 2.216 . S
O365 C372 1.247 . S
O366 Co364 2.091 . S
O366 C372 1.261 . S
C367 O376 1.247 . S
C367 O377 1.272 . S
O368 Co364 2.004 . S
O368 C373 1.259 . S
Co369 O370 2.061 . S
Co369 O375 2.052 . S
Co369 O377 2.135 . S
O370 Co369 2.061 . S
O370 C373 1.235 . S
C371 O374 1.238 . S
C371 O375 1.241 . S
C372 O365 1.247 . S
C372 O366 1.261 . S
C373 O368 1.259 . S
C373 O370 1.235 . S
O374 Co364 2.021 . S
O374 C371 1.238 . S
O375 Co369 2.052 . S
O375 C371 1.241 . S
O376 Co364 2.137 . S
O376 C367 1.247 . S
O377 Co364 2.244 . S
O377 C367 1.272 . S
O377 Co369 2.135 . S
Co378 O379 2.216 . S
Co378 O380 2.091 . S
Co378 O382 2.004 . S
Co378 O388 2.021 . S
Co378 O390 2.137 . S
Co378 O391 2.244 . S
O379 Co378 2.216 . S
O379 C386 1.247 . S
O380 Co378 2.091 . S
O380 C386 1.261 . S
C381 O390 1.247 . S
C381 O391 1.272 . S
O382 Co378 2.004 . S
O382 C387 1.259 . S
Co383 O384 2.061 . S
Co383 O389 2.052 . S
Co383 O391 2.135 . S
O384 Co383 2.061 . S
O384 C387 1.235 . S
C385 O388 1.238 . S
C385 O389 1.241 . S
C386 O379 1.247 . S
C386 O380 1.261 . S
C387 O382 1.259 . S
C387 O384 1.235 . S
O388 Co378 2.021 . S
O388 C385 1.238 . S
O389 Co383 2.052 . S
O389 C385 1.241 . S
O390 Co378 2.137 . S
O390 C381 1.247 . S
O391 Co378 2.244 . S
O391 C381 1.272 . S
O391 Co383 2.135 . S
Co392 O393 2.216 . S
Co392 O394 2.091 . S
Co392 O396 2.004 . S
Co392 O402 2.021 . S
Co392 O404 2.137 . S
Co392 O405 2.244 . S
O393 Co392 2.216 . S
O393 C400 1.247 . S
O394 Co392 2.091 . S
O394 C400 1.261 . S
C395 O404 1.247 . S
C395 O405 1.272 . S
O396 Co392 2.004 . S
O396 C401 1.259 . S
Co397 O398 2.061 . S
Co397 O403 2.052 . S
Co397 O405 2.135 . S
O398 Co397 2.061 . S
O398 C401 1.235 . S
C399 O402 1.238 . S
C399 O403 1.241 . S
C400 O393 1.247 . S
C400 O394 1.261 . S
C401 O396 1.259 . S
C401 O398 1.235 . S
O402 Co392 2.021 . S
O402 C399 1.238 . S
O403 Co397 2.052 . S
O403 C399 1.241 . S
O404 Co392 2.137 . S
O404 C395 1.247 . S
O405 Co392 2.244 . S
O405 C395 1.272 . S
O405 Co397 2.135 . S
Co406 O407 2.216 . S
Co406 O408 2.091 . S
Co406 O410 2.004 . S
Co406 O416 2.021 . S
Co406 O418 2.137 . S
Co406 O419 2.244 . S
O407 Co406 2.216 . S
O407 C414 1.247 . S
O408 Co406 2.091 . S
O408 C414 1.261 . S
C409 O418 1.247 . S
C409 O419 1.272 . S
O410 Co406 2.004 . S
O410 C415 1.259 . S
Co411 O412 2.061 . S
Co411 O417 2.052 . S
Co411 O419 2.135 . S
O412 Co411 2.061 . S
O412 C415 1.235 . S
C413 O416 1.238 . S
C413 O417 1.241 . S
C414 O407 1.247 . S
C414 O408 1.261 . S
C415 O410 1.259 . S
C415 O412 1.235 . S
O416 Co406 2.021 . S
O416 C413 1.238 . S
O417 Co411 2.052 . S
O417 C413 1.241 . S
O418 Co406 2.137 . S
O418 C409 1.247 . S
O419 Co406 2.244 . S
O419 C409 1.272 . S
O419 Co411 2.135 . S
Co420 O421 2.216 . S
Co420 O422 2.091 . S
Co420 O424 2.004 . S
Co420 O430 2.021 . S
Co420 O432 2.137 . S
Co420 O433 2.244 . S
O421 Co420 2.216 . S
O421 C428 1.247 . S
O422 Co420 2.091 . S
O422 C428 1.261 . S
C423 O432 1.247 . S
C423 O433 1.272 . S
O424 Co420 2.004 . S
O424 C429 1.259 . S
Co425 O426 2.061 . S
Co425 O431 2.052 . S
Co425 O433 2.135 . S
O426 Co425 2.061 . S
O426 C429 1.235 . S
C427 O430 1.238 . S
C427 O431 1.241 . S
C428 O421 1.247 . S
C428 O422 1.261 . S
C429 O424 1.259 . S
C429 O426 1.235 . S
O430 Co420 2.021 . S
O430 C427 1.238 . S
O431 Co425 2.052 . S
O431 C427 1.241 . S
O432 Co420 2.137 . S
O432 C423 1.247 . S
O433 Co420 2.244 . S
O433 C423 1.272 . S
O433 Co425 2.135 . S
Co434 O435 2.216 . S
Co434 O436 2.091 . S
Co434 O438 2.004 . S
Co434 O444 2.021 . S
Co434 O446 2.137 . S
Co434 O447 2.244 . S
O435 Co434 2.216 . S
O435 C442 1.247 . S
O436 Co434 2.091 . S
O436 C442 1.261 . S
C437 O446 1.247 . S
C437 O447 1.272 . S
O438 Co434 2.004 . S
O438 C443 1.259 . S
Co439 O440 2.061 . S
Co439 O445 2.052 . S
Co439 O447 2.135 . S
O440 Co439 2.061 . S
O440 C443 1.235 . S
C441 O444 1.238 . S
C441 O445 1.241 . S
C442 O435 1.247 . S
C442 O436 1.261 . S
C443 O438 1.259 . S
C443 O440 1.235 . S
O444 Co434 2.021 . S
O444 C441 1.238 . S
O445 Co439 2.052 . S
O445 C441 1.241 . S
O446 Co434 2.137 . S
O446 C437 1.247 . S
O447 Co434 2.244 . S
O447 C437 1.272 . S
O447 Co439 2.135 . S
Co448 O449 2.216 . S
Co448 O450 2.091 . S
Co448 O452 2.004 . S
Co448 O458 2.021 . S
Co448 O460 2.137 . S
Co448 O461 2.244 . S
O449 Co448 2.216 . S
O449 C456 1.247 . S
O450 Co448 2.091 . S
O450 C456 1.261 . S
C451 O460 1.247 . S
C451 O461 1.272 . S
O452 Co448 2.004 . S
O452 C457 1.259 . S
Co453 O454 2.061 . S
Co453 O459 2.052 . S
Co453 O461 2.135 . S
O454 Co453 2.061 . S
O454 C457 1.235 . S
C455 O458 1.238 . S
C455 O459 1.241 . S
C456 O449 1.247 . S
C456 O450 1.261 . S
C457 O452 1.259 . S
C457 O454 1.235 . S
O458 Co448 2.021 . S
O458 C455 1.238 . S
O459 Co453 2.052 . S
O459 C455 1.241 . S
O460 Co448 2.137 . S
O460 C451 1.247 . S
O461 Co448 2.244 . S
O461 C451 1.272 . S
O461 Co453 2.135 . S
Co462 O463 2.216 . S
Co462 O464 2.091 . S
Co462 O466 2.004 . S
Co462 O472 2.021 . S
Co462 O474 2.137 . S
Co462 O475 2.244 . S
O463 Co462 2.216 . S
O463 C470 1.247 . S
O464 Co462 2.091 . S
O464 C470 1.261 . S
C465 O474 1.247 . S
C465 O475 1.272 . S
O466 Co462 2.004 . S
O466 C471 1.259 . S
Co467 O468 2.061 . S
Co467 O473 2.052 . S
Co467 O475 2.135 . S
O468 Co467 2.061 . S
O468 C471 1.235 . S
C469 O472 1.238 . S
C469 O473 1.241 . S
C470 O463 1.247 . S
C470 O464 1.261 . S
C471 O466 1.259 . S
C471 O468 1.235 . S
O472 Co462 2.021 . S
O472 C469 1.238 . S
O473 Co467 2.052 . S
O473 C469 1.241 . S
O474 Co462 2.137 . S
O474 C465 1.247 . S
O475 Co462 2.244 . S
O475 C465 1.272 . S
O475 Co467 2.135 . S
Co476 O477 2.216 . S
Co476 O478 2.091 . S
Co476 O480 2.004 . S
Co476 O486 2.021 . S
Co476 O488 2.137 . S
Co476 O489 2.244 . S
O477 Co476 2.216 . S
O477 C484 1.247 . S
O478 Co476 2.091 . S
O478 C484 1.261 . S
C479 O488 1.247 . S
C479 O489 1.272 . S
O480 Co476 2.004 . S
O480 C485 1.259 . S
Co481 O482 2.061 . S
Co481 O487 2.052 . S
Co481 O489 2.135 . S
O482 Co481 2.061 . S
O482 C485 1.235 . S
C483 O486 1.238 . S
C483 O487 1.241 . S
C484 O477 1.247 . S
C484 O478 1.261 . S
C485 O480 1.259 . S
C485 O482 1.235 . S
O486 Co476 2.021 . S
O486 C483 1.238 . S
O487 Co481 2.052 . S
O487 C483 1.241 . S
O488 Co476 2.137 . S
O488 C479 1.247 . S
O489 Co476 2.244 . S
O489 C479 1.272 . S
O489 Co481 2.135 . S
Co490 O491 2.216 . S
Co490 O492 2.091 . S
Co490 O494 2.004 . S
Co490 O500 2.021 . S
Co490 O502 2.137 . S
Co490 O503 2.244 . S
O491 Co490 2.216 . S
O491 C498 1.247 . S
O492 Co490 2.091 . S
O492 C498 1.261 . S
C493 O502 1.247 . S
C493 O503 1.272 . S
O494 Co490 2.004 . S
O494 C499 1.259 . S
Co495 O496 2.061 . S
Co495 O501 2.052 . S
Co495 O503 2.135 . S
O496 Co495 2.061 . S
O496 C499 1.235 . S
C497 O500 1.238 . S
C497 O501 1.241 . S
C498 O491 1.247 . S
C498 O492 1.261 . S
C499 O494 1.259 . S
C499 O496 1.235 . S
O500 Co490 2.021 . S
O500 C497 1.238 . S
O501 Co495 2.052 . S
O501 C497 1.241 . S
O502 Co490 2.137 . S
O502 C493 1.247 . S
O503 Co490 2.244 . S
O503 C493 1.272 . S
O503 Co495 2.135 . S
H504 C512 0.929 . S
H505 C514 0.930 . S
H506 C516 0.930 . S
H507 C519 0.929 . S
H508 C522 0.930 . S
H509 C524 0.960 . S
H510 C524 0.960 . S
H511 C524 0.960 . S
C512 H504 0.929 . S
C512 C513 1.377 . S
C512 C514 1.384 . S
C513 C512 1.377 . S
C513 C519 1.390 . S
C514 H505 0.930 . S
C514 C512 1.384 . S
C514 C515 1.372 . S
C515 C514 1.372 . S
C515 C516 1.400 . S
C515 C520 1.490 . S
C516 H506 0.930 . S
C516 C515 1.400 . S
C516 C519 1.386 . S
H517 C533 0.930 . S
H518 C534 0.931 . S
C519 H507 0.929 . S
C519 C513 1.390 . S
C519 C516 1.386 . S
C520 C515 1.490 . S
C520 C522 1.395 . S
C520 C523 1.403 . S
H521 C527 0.930 . S
C522 H508 0.930 . S
C522 C520 1.395 . S
C522 C525 1.403 1_565 S
C523 C520 1.403 . S
C523 C524 1.524 . S
C523 C527 1.400 1_565 S
C524 H509 0.960 . S
C524 H510 0.960 . S
C524 H511 0.960 . S
C524 C523 1.524 . S
C525 C522 1.403 1_545 S
C525 C526 1.392 . S
C525 C529 1.495 . S
C526 C525 1.392 . S
C526 C527 1.385 . S
C526 C528 1.478 . S
C527 H521 0.930 . S
C527 C523 1.400 1_545 S
C527 C526 1.385 . S
C528 C526 1.478 . S
C528 C530 1.381 . S
C528 C534 1.383 . S
C529 C525 1.495 . S
C529 H535 0.959 . S
C529 H536 0.961 . S
C529 H537 0.960 . S
C530 C528 1.381 . S
C530 C531 1.394 . S
C530 H538 0.930 . S
C531 C530 1.394 . S
C531 C532 1.383 . S
C531 H539 0.929 . S
C532 C531 1.383 . S
C532 C533 1.377 . S
C533 H517 0.930 . S
C533 C532 1.377 . S
C533 C534 1.379 . S
C534 H518 0.931 . S
C534 C528 1.383 . S
C534 C533 1.379 . S
H535 C529 0.959 . S
H536 C529 0.961 . S
H537 C529 0.960 . S
H538 C530 0.930 . S
H539 C531 0.929 . S
H540 C548 0.929 . S
H541 C550 0.930 . S
H542 C552 0.930 . S
H543 C555 0.929 . S
H544 C558 0.930 . S
H545 C560 0.960 . S
H546 C560 0.960 . S
H547 C560 0.960 . S
C548 H540 0.929 . S
C548 C549 1.377 . S
C548 C550 1.384 . S
C549 C548 1.377 . S
C549 C555 1.390 . S
C550 H541 0.930 . S
C550 C548 1.384 . S
C550 C551 1.372 . S
C551 C550 1.372 . S
C551 C552 1.400 . S
C551 C556 1.490 . S
C552 H542 0.930 . S
C552 C551 1.400 . S
C552 C555 1.386 . S
H553 C569 0.930 . S
H554 C570 0.931 . S
C555 H543 0.929 . S
C555 C549 1.390 . S
C555 C552 1.386 . S
C556 C551 1.490 . S
C556 C558 1.395 . S
C556 C559 1.403 . S
H557 C563 0.930 . S
C558 H544 0.930 . S
C558 C556 1.395 . S
C558 C561 1.403 1_455 S
C559 C556 1.403 . S
C559 C560 1.524 . S
C559 C563 1.400 1_455 S
C560 H545 0.960 . S
C560 H546 0.960 . S
C560 H547 0.960 . S
C560 C559 1.524 . S
C561 C558 1.403 1_655 S
C561 C562 1.392 . S
C561 C565 1.495 . S
C562 C561 1.392 . S
C562 C563 1.385 . S
C562 C564 1.478 . S
C563 H557 0.930 . S
C563 C559 1.400 1_655 S
C563 C562 1.385 . S
C564 C562 1.478 . S
C564 C566 1.381 . S
C564 C570 1.383 . S
C565 C561 1.495 . S
C565 H571 0.959 . S
C565 H572 0.961 . S
C565 H573 0.960 . S
C566 C564 1.381 . S
C566 C567 1.394 . S
C566 H574 0.930 . S
C567 C566 1.394 . S
C567 C568 1.383 . S
C567 H575 0.929 . S
C568 C567 1.383 . S
C568 C569 1.377 . S
C569 H553 0.930 . S
C569 C568 1.377 . S
C569 C570 1.379 . S
C570 H554 0.931 . S
C570 C564 1.383 . S
C570 C569 1.379 . S
H571 C565 0.959 . S
H572 C565 0.961 . S
H573 C565 0.960 . S
H574 C566 0.930 . S
H575 C567 0.929 . S
H576 C584 0.929 . S
H577 C586 0.930 . S
H578 C588 0.930 . S
H579 C591 0.929 . S
H580 C594 0.930 . S
H581 C596 0.960 . S
H582 C596 0.960 . S
H583 C596 0.960 . S
C584 H576 0.929 . S
C584 C585 1.377 . S
C584 C586 1.384 . S
C585 C584 1.377 . S
C585 C591 1.390 . S
C586 H577 0.930 . S
C586 C584 1.384 . S
C586 C587 1.372 . S
C587 C586 1.372 . S
C587 C588 1.400 . S
C587 C592 1.490 . S
C588 H578 0.930 . S
C588 C587 1.400 . S
C588 C591 1.386 . S
H589 C605 0.930 . S
H590 C606 0.931 . S
C591 H579 0.929 . S
C591 C585 1.390 . S
C591 C588 1.386 . S
C592 C587 1.490 . S
C592 C594 1.395 . S
C592 C595 1.403 . S
H593 C599 0.930 . S
C594 H580 0.930 . S
C594 C592 1.395 . S
C594 C597 1.403 . S
C595 C592 1.403 . S
C595 C596 1.524 . S
C595 C599 1.400 . S
C596 H581 0.960 . S
C596 H582 0.960 . S
C596 H583 0.960 . S
C596 C595 1.524 . S
C597 C594 1.403 . S
C597 C598 1.392 . S
C597 C601 1.495 . S
C598 C597 1.392 . S
C598 C599 1.385 . S
C598 C600 1.478 . S
C599 H593 0.930 . S
C599 C595 1.400 . S
C599 C598 1.385 . S
C600 C598 1.478 . S
C600 C602 1.381 . S
C600 C606 1.383 . S
C601 C597 1.495 . S
C601 H607 0.959 . S
C601 H608 0.961 . S
C601 H609 0.960 . S
C602 C600 1.381 . S
C602 C603 1.394 . S
C602 H610 0.930 . S
C603 C602 1.394 . S
C603 C604 1.383 . S
C603 H611 0.929 . S
C604 C603 1.383 . S
C604 C605 1.377 . S
C605 H589 0.930 . S
C605 C604 1.377 . S
C605 C606 1.379 . S
C606 H590 0.931 . S
C606 C600 1.383 . S
C606 C605 1.379 . S
H607 C601 0.959 . S
H608 C601 0.961 . S
H609 C601 0.960 . S
H610 C602 0.930 . S
H611 C603 0.929 . S
H612 C620 0.929 . S
H613 C622 0.930 . S
H614 C624 0.930 . S
H615 C627 0.929 . S
H616 C630 0.930 . S
H617 C632 0.960 . S
H618 C632 0.960 . S
H619 C632 0.960 . S
C620 H612 0.929 . S
C620 C621 1.377 . S
C620 C622 1.384 . S
C621 C620 1.377 . S
C621 C627 1.390 . S
C622 H613 0.930 . S
C622 C620 1.384 . S
C622 C623 1.372 . S
C623 C622 1.372 . S
C623 C624 1.400 . S
C623 C628 1.490 . S
C624 H614 0.930 . S
C624 C623 1.400 . S
C624 C627 1.386 . S
H625 C641 0.930 . S
H626 C642 0.931 . S
C627 H615 0.929 . S
C627 C621 1.390 . S
C627 C624 1.386 . S
C628 C623 1.490 . S
C628 C630 1.395 . S
C628 C631 1.403 . S
H629 C635 0.930 . S
C630 H616 0.930 . S
C630 C628 1.395 . S
C630 C633 1.403 1_565 S
C631 C628 1.403 . S
C631 C632 1.524 . S
C631 C635 1.400 1_565 S
C632 H617 0.960 . S
C632 H618 0.960 . S
C632 H619 0.960 . S
C632 C631 1.524 . S
C633 C630 1.403 1_545 S
C633 C634 1.392 . S
C633 C637 1.495 . S
C634 C633 1.392 . S
C634 C635 1.385 . S
C634 C636 1.478 . S
C635 H629 0.930 . S
C635 C631 1.400 1_545 S
C635 C634 1.385 . S
C636 C634 1.478 . S
C636 C638 1.381 . S
C636 C642 1.383 . S
C637 C633 1.495 . S
C637 H643 0.959 . S
C637 H644 0.961 . S
C637 H645 0.960 . S
C638 C636 1.381 . S
C638 C639 1.394 . S
C638 H646 0.930 . S
C639 C638 1.394 . S
C639 C640 1.383 . S
C639 H647 0.929 . S
C640 C639 1.383 . S
C640 C641 1.377 . S
C641 H625 0.930 . S
C641 C640 1.377 . S
C641 C642 1.379 . S
C642 H626 0.931 . S
C642 C636 1.383 . S
C642 C641 1.379 . S
H643 C637 0.959 . S
H644 C637 0.961 . S
H645 C637 0.960 . S
H646 C638 0.930 . S
H647 C639 0.929 . S
H648 C656 0.929 . S
H649 C658 0.930 . S
H650 C660 0.930 . S
H651 C663 0.929 . S
H652 C666 0.930 . S
H653 C668 0.960 . S
H654 C668 0.960 . S
H655 C668 0.960 . S
C656 H648 0.929 . S
C656 C657 1.377 . S
C656 C658 1.384 . S
C657 C656 1.377 . S
C657 C663 1.390 . S
C658 H649 0.930 . S
C658 C656 1.384 . S
C658 C659 1.372 . S
C659 C658 1.372 . S
C659 C660 1.400 . S
C659 C664 1.490 . S
C660 H650 0.930 . S
C660 C659 1.400 . S
C660 C663 1.386 . S
H661 C677 0.930 . S
H662 C678 0.931 . S
C663 H651 0.929 . S
C663 C657 1.390 . S
C663 C660 1.386 . S
C664 C659 1.490 . S
C664 C666 1.395 . S
C664 C667 1.403 . S
H665 C671 0.930 . S
C666 H652 0.930 . S
C666 C664 1.395 . S
C666 C669 1.403 1_455 S
C667 C664 1.403 . S
C667 C668 1.524 . S
C667 C671 1.400 1_455 S
C668 H653 0.960 . S
C668 H654 0.960 . S
C668 H655 0.960 . S
C668 C667 1.524 . S
C669 C666 1.403 1_655 S
C669 C670 1.392 . S
C669 C673 1.495 . S
C670 C669 1.392 . S
C670 C671 1.385 . S
C670 C672 1.478 . S
C671 H665 0.930 . S
C671 C667 1.400 1_655 S
C671 C670 1.385 . S
C672 C670 1.478 . S
C672 C674 1.381 . S
C672 C678 1.383 . S
C673 C669 1.495 . S
C673 H679 0.959 . S
C673 H680 0.961 . S
C673 H681 0.960 . S
C674 C672 1.381 . S
C674 C675 1.394 . S
C674 H682 0.930 . S
C675 C674 1.394 . S
C675 C676 1.383 . S
C675 H683 0.929 . S
C676 C675 1.383 . S
C676 C677 1.377 . S
C677 H661 0.930 . S
C677 C676 1.377 . S
C677 C678 1.379 . S
C678 H662 0.931 . S
C678 C672 1.383 . S
C678 C677 1.379 . S
H679 C673 0.959 . S
H680 C673 0.961 . S
H681 C673 0.960 . S
H682 C674 0.930 . S
H683 C675 0.929 . S
H684 C692 0.929 . S
H685 C694 0.930 . S
H686 C696 0.930 . S
H687 C699 0.929 . S
H688 C702 0.930 . S
H689 C704 0.960 . S
H690 C704 0.960 . S
H691 C704 0.960 . S
C692 H684 0.929 . S
C692 C693 1.377 . S
C692 C694 1.384 . S
C693 C692 1.377 . S
C693 C699 1.390 . S
C694 H685 0.930 . S
C694 C692 1.384 . S
C694 C695 1.372 . S
C695 C694 1.372 . S
C695 C696 1.400 . S
C695 C700 1.490 . S
C696 H686 0.930 . S
C696 C695 1.400 . S
C696 C699 1.386 . S
H697 C713 0.930 . S
H698 C714 0.931 . S
C699 H687 0.929 . S
C699 C693 1.390 . S
C699 C696 1.386 . S
C700 C695 1.490 . S
C700 C702 1.395 . S
C700 C703 1.403 . S
H701 C707 0.930 . S
C702 H688 0.930 . S
C702 C700 1.395 . S
C702 C705 1.403 . S
C703 C700 1.403 . S
C703 C704 1.524 . S
C703 C707 1.400 . S
C704 H689 0.960 . S
C704 H690 0.960 . S
C704 H691 0.960 . S
C704 C703 1.524 . S
C705 C702 1.403 . S
C705 C706 1.392 . S
C705 C709 1.495 . S
C706 C705 1.392 . S
C706 C707 1.385 . S
C706 C708 1.478 . S
C707 H701 0.930 . S
C707 C703 1.400 . S
C707 C706 1.385 . S
C708 C706 1.478 . S
C708 C710 1.381 . S
C708 C714 1.383 . S
C709 C705 1.495 . S
C709 H715 0.959 . S
C709 H716 0.961 . S
C709 H717 0.960 . S
C710 C708 1.381 . S
C710 C711 1.394 . S
C710 H718 0.930 . S
C711 C710 1.394 . S
C711 C712 1.383 . S
C711 H719 0.929 . S
C712 C711 1.383 . S
C712 C713 1.377 . S
C713 H697 0.930 . S
C713 C712 1.377 . S
C713 C714 1.379 . S
C714 H698 0.931 . S
C714 C708 1.383 . S
C714 C713 1.379 . S
H715 C709 0.959 . S
H716 C709 0.961 . S
H717 C709 0.960 . S
H718 C710 0.930 . S
H719 C711 0.929 . S
H720 C728 0.915 1_655 S
H721 C730 0.930 . S
H722 C732 0.930 . S
H723 C735 0.929 . S
H724 C738 0.930 . S
H725 C740 0.960 . S
H726 C740 0.960 . S
H727 C740 0.960 1_455 S
C728 H720 0.915 1_455 S
C728 C729 1.392 . S
C728 C730 1.384 1_455 S
C729 C728 1.392 . S
C729 C735 1.390 . S
C730 H721 0.930 . S
C730 C728 1.384 1_655 S
C730 C731 1.425 . S
C731 C730 1.425 . S
C731 C732 1.347 1_655 S
C731 C736 1.492 . S
C732 H722 0.930 . S
C732 C731 1.347 1_455 S
C732 C735 1.386 . S
H733 C749 0.930 . S
H734 C750 0.931 . S
C735 H723 0.929 . S
C735 C729 1.390 . S
C735 C732 1.386 . S
C736 C731 1.492 . S
C736 C738 1.395 . S
C736 C739 1.403 . S
H737 C743 0.930 . S
C738 H724 0.930 . S
C738 C736 1.395 . S
C738 C741 1.403 . S
C739 C736 1.403 . S
C739 C740 1.524 . S
C739 C743 1.400 . S
C740 H725 0.960 . S
C740 H726 0.960 . S
C740 H727 0.960 1_655 S
C740 C739 1.524 . S
C741 C738 1.403 . S
C741 C742 1.392 . S
C741 C745 1.495 . S
C742 C741 1.392 . S
C742 C743 1.385 . S
C742 C744 1.478 . S
C743 H737 0.930 . S
C743 C739 1.400 . S
C743 C742 1.385 . S
C744 C742 1.478 . S
C744 C746 1.381 . S
C744 C750 1.383 . S
C745 C741 1.495 . S
C745 H751 0.959 . S
C745 H752 0.961 . S
C745 H753 0.960 . S
C746 C744 1.381 . S
C746 C747 1.394 . S
C746 H754 0.930 . S
C747 C746 1.394 . S
C747 C748 1.383 . S
C747 H755 0.929 . S
C748 C747 1.383 . S
C748 C749 1.377 . S
C749 H733 0.930 . S
C749 C748 1.377 . S
C749 C750 1.379 . S
C750 H734 0.931 . S
C750 C744 1.383 . S
C750 C749 1.379 . S
H751 C745 0.959 . S
H752 C745 0.961 . S
H753 C745 0.960 . S
H754 C746 0.930 . S
H755 C747 0.929 . S
H756 C764 0.929 . S
H757 C766 0.930 . S
H758 C768 0.930 . S
H759 C771 0.929 . S
H760 C774 0.930 . S
H761 C776 0.960 . S
H762 C776 0.960 . S
H763 C776 0.960 . S
C764 H756 0.929 . S
C764 C765 1.377 . S
C764 C766 1.384 . S
C765 C764 1.377 . S
C765 C771 1.390 . S
C766 H757 0.930 . S
C766 C764 1.384 . S
C766 C767 1.372 . S
C767 C766 1.372 . S
C767 C768 1.400 . S
C767 C772 1.490 . S
C768 H758 0.930 . S
C768 C767 1.400 . S
C768 C771 1.386 . S
H769 C785 0.930 . S
H770 C786 0.931 . S
C771 H759 0.929 . S
C771 C765 1.390 . S
C771 C768 1.386 . S
C772 C767 1.490 . S
C772 C774 1.395 . S
C772 C775 1.403 . S
H773 C779 0.930 . S
C774 H760 0.930 . S
C774 C772 1.395 . S
C774 C777 1.403 . S
C775 C772 1.403 . S
C775 C776 1.524 . S
C775 C779 1.400 . S
C776 H761 0.960 . S
C776 H762 0.960 . S
C776 H763 0.960 . S
C776 C775 1.524 . S
C777 C774 1.403 . S
C777 C778 1.392 . S
C777 C781 1.495 . S
C778 C777 1.392 . S
C778 C779 1.385 . S
C778 C780 1.478 . S
C779 H773 0.930 . S
C779 C775 1.400 . S
C779 C778 1.385 . S
C780 C778 1.478 . S
C780 C782 1.381 . S
C780 C786 1.383 . S
C781 C777 1.495 . S
C781 H787 0.959 . S
C781 H788 0.961 . S
C781 H789 0.960 . S
C782 C780 1.381 . S
C782 C783 1.394 . S
C782 H790 0.930 . S
C783 C782 1.394 . S
C783 C784 1.383 . S
C783 H791 0.929 . S
C784 C783 1.383 . S
C784 C785 1.377 . S
C785 H769 0.930 . S
C785 C784 1.377 . S
C785 C786 1.379 . S
C786 H770 0.931 . S
C786 C780 1.383 . S
C786 C785 1.379 . S
H787 C781 0.959 . S
H788 C781 0.961 . S
H789 C781 0.960 . S
H790 C782 0.930 . S
H791 C783 0.929 . S
H792 C800 0.929 . S
H793 C802 0.930 . S
H794 C804 0.930 . S
H795 C807 0.929 . S
H796 C810 0.930 . S
H797 C812 0.960 1_565 S
H798 C812 0.971 1_565 S
H799 C812 0.960 . S
C800 H792 0.929 . S
C800 C801 1.377 . S
C800 C802 1.384 . S
C801 C800 1.377 . S
C801 C807 1.390 . S
C802 H793 0.930 . S
C802 C800 1.384 . S
C802 C803 1.372 . S
C803 C802 1.372 . S
C803 C804 1.400 . S
C803 C808 1.490 . S
C804 H794 0.930 . S
C804 C803 1.400 . S
C804 C807 1.386 . S
H805 C821 0.930 . S
H806 C822 0.931 1_545 S
C807 H795 0.929 . S
C807 C801 1.390 . S
C807 C804 1.386 . S
C808 C803 1.490 . S
C808 C810 1.395 . S
C808 C811 1.403 . S
H809 C815 0.930 1_565 S
C810 H796 0.930 . S
C810 C808 1.395 . S
C810 C813 1.403 . S
C811 C808 1.403 . S
C811 C812 1.524 . S
C811 C815 1.400 . S
C812 H797 0.960 1_545 S
C812 H798 0.971 1_545 S
C812 H799 0.960 . S
C812 C811 1.524 . S
C813 C810 1.403 . S
C813 C814 1.392 . S
C813 C817 1.495 . S
C814 C813 1.392 . S
C814 C815 1.385 . S
C814 C816 1.478 . S
C815 H809 0.930 1_545 S
C815 C811 1.400 . S
C815 C814 1.385 . S
C816 C814 1.478 . S
C816 C818 1.381 1_545 S
C816 C822 1.383 1_545 S
C817 C813 1.495 . S
C817 H823 0.959 . S
C817 H824 0.961 . S
C817 H825 0.960 . S
C818 C816 1.381 1_565 S
C818 C819 1.394 . S
C818 H826 0.930 . S
C819 C818 1.394 . S
C819 C820 1.383 . S
C819 H827 0.929 . S
C820 C819 1.383 . S
C820 C821 1.377 . S
C821 H805 0.930 . S
C821 C820 1.377 . S
C821 C822 1.379 . S
C822 H806 0.931 1_565 S
C822 C816 1.383 1_565 S
C822 C821 1.379 . S
H823 C817 0.959 . S
H824 C817 0.961 . S
H825 C817 0.960 . S
H826 C818 0.930 . S
H827 C819 0.929 . S
H828 C836 0.929 . S
H829 C838 0.930 . S
H830 C840 0.930 . S
H831 C843 0.929 . S
H832 C846 0.930 . S
H833 C848 0.960 . S
H834 C848 0.960 . S
H835 C848 0.960 . S
C836 H828 0.929 . S
C836 C837 1.377 . S
C836 C838 1.384 . S
C837 C836 1.377 . S
C837 C843 1.390 . S
C838 H829 0.930 . S
C838 C836 1.384 . S
C838 C839 1.372 . S
C839 C838 1.372 . S
C839 C840 1.400 . S
C839 C844 1.490 . S
C840 H830 0.930 . S
C840 C839 1.400 . S
C840 C843 1.386 . S
H841 C857 0.930 . S
H842 C858 0.931 . S
C843 H831 0.929 . S
C843 C837 1.390 . S
C843 C840 1.386 . S
C844 C839 1.490 . S
C844 C846 1.395 . S
C844 C847 1.403 . S
H845 C851 0.930 . S
C846 H832 0.930 . S
C846 C844 1.395 . S
C846 C849 1.403 . S
C847 C844 1.403 . S
C847 C848 1.524 . S
C847 C851 1.400 . S
C848 H833 0.960 . S
C848 H834 0.960 . S
C848 H835 0.960 . S
C848 C847 1.524 . S
C849 C846 1.403 . S
C849 C850 1.392 . S
C849 C853 1.495 . S
C850 C849 1.392 . S
C850 C851 1.385 . S
C850 C852 1.478 . S
C851 H845 0.930 . S
C851 C847 1.400 . S
C851 C850 1.385 . S
C852 C850 1.478 . S
C852 C854 1.381 . S
C852 C858 1.383 . S
C853 C849 1.495 . S
C853 H859 0.959 . S
C853 H860 0.961 . S
C853 H861 0.960 . S
C854 C852 1.381 . S
C854 C855 1.394 . S
C854 H862 0.930 . S
C855 C854 1.394 . S
C855 C856 1.383 . S
C855 H863 0.929 . S
C856 C855 1.383 . S
C856 C857 1.377 . S
C857 H841 0.930 . S
C857 C856 1.377 . S
C857 C858 1.379 . S
C858 H842 0.931 . S
C858 C852 1.383 . S
C858 C857 1.379 . S
H859 C853 0.959 . S
H860 C853 0.961 . S
H861 C853 0.960 . S
H862 C854 0.930 . S
H863 C855 0.929 . S
H864 C872 0.929 . S
H865 C874 0.930 . S
H866 C876 0.930 . S
H867 C879 0.929 . S
H868 C882 0.974 . S
H869 C884 0.960 . S
H870 C884 0.960 . S
H871 C884 0.960 . S
C872 H864 0.929 . S
C872 C873 1.377 . S
C872 C874 1.384 . S
C873 C872 1.377 . S
C873 C879 1.390 . S
C874 H865 0.930 . S
C874 C872 1.384 . S
C874 C875 1.372 . S
C875 C874 1.372 . S
C875 C876 1.399 1_565 S
C875 C880 1.490 1_565 S
C876 H866 0.930 . S
C876 C875 1.399 1_545 S
C876 C879 1.386 1_545 S
H877 C893 0.930 . S
H878 C894 0.931 . S
C879 H867 0.929 . S
C879 C873 1.390 . S
C879 C876 1.386 1_565 S
C880 C875 1.490 1_545 S
C880 C882 1.348 1_545 S
C880 C883 1.403 . S
H881 C887 0.930 . S
C882 H868 0.974 . S
C882 C880 1.348 1_565 S
C882 C885 1.409 1_565 S
C883 C880 1.403 . S
C883 C884 1.524 . S
C883 C887 1.400 . S
C884 H869 0.960 . S
C884 H870 0.960 . S
C884 H871 0.960 . S
C884 C883 1.524 . S
C885 C882 1.409 1_545 S
C885 C886 1.392 . S
C885 C889 1.495 1_545 S
C886 C885 1.392 . S
C886 C887 1.385 . S
C886 C888 1.478 . S
C887 H881 0.930 . S
C887 C883 1.400 . S
C887 C886 1.385 . S
C888 C886 1.478 . S
C888 C890 1.381 . S
C888 C894 1.383 . S
C889 C885 1.495 1_565 S
C889 H895 0.959 . S
C889 H896 0.961 . S
C889 H897 0.960 . S
C890 C888 1.381 . S
C890 C891 1.394 . S
C890 H898 0.930 . S
C891 C890 1.394 . S
C891 C892 1.383 . S
C891 H899 0.929 . S
C892 C891 1.383 . S
C892 C893 1.377 . S
C893 H877 0.930 . S
C893 C892 1.377 . S
C893 C894 1.379 . S
C894 H878 0.931 . S
C894 C888 1.383 . S
C894 C893 1.379 . S
H895 C889 0.959 . S
H896 C889 0.961 . S
H897 C889 0.960 . S
H898 C890 0.930 . S
H899 C891 0.929 . S
H900 C908 0.929 . S
H901 C910 0.930 . S
H902 C912 0.930 . S
H903 C915 0.929 . S
H904 C918 0.930 . S
H905 C920 0.960 . S
H906 C920 0.960 . S
H907 C920 0.960 . S
C908 H900 0.929 . S
C908 C909 1.377 . S
C908 C910 1.384 . S
C909 C908 1.377 . S
C909 C915 1.390 . S
C910 H901 0.930 . S
C910 C908 1.384 . S
C910 C911 1.372 . S
C911 C910 1.372 . S
C911 C912 1.400 . S
C911 C916 1.490 . S
C912 H902 0.930 . S
C912 C911 1.400 . S
C912 C915 1.386 . S
H913 C929 0.930 1_655 S
H914 C930 0.931 . S
C915 H903 0.929 . S
C915 C909 1.390 . S
C915 C912 1.386 . S
C916 C911 1.490 . S
C916 C918 1.395 . S
C916 C919 1.403 . S
H917 C923 0.930 . S
C918 H904 0.930 . S
C918 C916 1.395 . S
C918 C921 1.403 . S
C919 C916 1.403 . S
C919 C920 1.524 . S
C919 C923 1.400 . S
C920 H905 0.960 . S
C920 H906 0.960 . S
C920 H907 0.960 . S
C920 C919 1.524 . S
C921 C918 1.403 . S
C921 C922 1.392 . S
C921 C925 1.495 . S
C922 C921 1.392 . S
C922 C923 1.385 . S
C922 C924 1.456 1_655 S
C923 H917 0.930 . S
C923 C919 1.400 . S
C923 C922 1.385 . S
C924 C922 1.456 1_455 S
C924 C926 1.404 . S
C924 C930 1.383 1_455 S
C925 C921 1.495 . S
C925 H931 0.959 . S
C925 H932 0.961 . S
C925 H933 0.960 1_655 S
C926 C924 1.404 . S
C926 C927 1.394 . S
C926 H934 0.930 . S
C927 C926 1.394 . S
C927 C928 1.383 . S
C927 H935 0.929 . S
C928 C927 1.383 . S
C928 C929 1.436 . S
C929 H913 0.930 1_455 S
C929 C928 1.436 . S
C929 C930 1.323 1_455 S
C930 H914 0.931 . S
C930 C924 1.383 1_655 S
C930 C929 1.323 1_655 S
H931 C925 0.959 . S
H932 C925 0.961 . S
H933 C925 0.960 1_455 S
H934 C926 0.930 . S
H935 C927 0.929 . S
H936 C944 0.929 . S
H937 C946 0.930 . S
H938 C948 0.930 . S
H939 C951 0.929 . S
H940 C954 0.930 . S
H941 C956 0.960 . S
H942 C956 0.960 . S
H943 C956 0.960 . S
C944 H936 0.929 . S
C944 C945 1.377 . S
C944 C946 1.384 . S
C945 C944 1.377 . S
C945 C951 1.390 . S
C946 H937 0.930 . S
C946 C944 1.384 . S
C946 C947 1.372 . S
C947 C946 1.372 . S
C947 C948 1.400 . S
C947 C952 1.490 . S
C948 H938 0.930 . S
C948 C947 1.400 . S
C948 C951 1.386 . S
H949 C965 0.930 . S
H950 C966 0.931 . S
C951 H939 0.929 . S
C951 C945 1.390 . S
C951 C948 1.386 . S
C952 C947 1.490 . S
C952 C954 1.395 . S
C952 C955 1.403 . S
H953 C959 0.930 . S
C954 H940 0.930 . S
C954 C952 1.395 . S
C954 C957 1.403 . S
C955 C952 1.403 . S
C955 C956 1.524 . S
C955 C959 1.400 . S
C956 H941 0.960 . S
C956 H942 0.960 . S
C956 H943 0.960 . S
C956 C955 1.524 . S
C957 C954 1.403 . S
C957 C958 1.392 . S
C957 C961 1.495 . S
C958 C957 1.392 . S
C958 C959 1.385 . S
C958 C960 1.478 . S
C959 H953 0.930 . S
C959 C955 1.400 . S
C959 C958 1.385 . S
C960 C958 1.478 . S
C960 C962 1.381 . S
C960 C966 1.383 . S
C961 C957 1.495 . S
C961 H967 0.959 . S
C961 H968 0.961 . S
C961 H969 0.960 . S
C962 C960 1.381 . S
C962 C963 1.394 . S
C962 H970 0.930 . S
C963 C962 1.394 . S
C963 C964 1.383 . S
C963 H971 0.929 . S
C964 C963 1.383 . S
C964 C965 1.377 . S
C965 H949 0.930 . S
C965 C964 1.377 . S
C965 C966 1.379 . S
C966 H950 0.931 . S
C966 C960 1.383 . S
C966 C965 1.379 . S
H967 C961 0.959 . S
H968 C961 0.961 . S
H969 C961 0.960 . S
H970 C962 0.930 . S
H971 C963 0.929 . S
H972 C980 0.929 . S
H973 C982 0.930 . S
H974 C984 0.914 1_565 S
H975 C987 0.929 . S
H976 C990 0.951 . S
H977 C992 0.960 . S
H978 C992 0.960 . S
H979 C992 0.960 . S
C980 H972 0.929 . S
C980 C981 1.377 . S
C980 C982 1.384 . S
C981 C980 1.377 . S
C981 C987 1.390 . S
C982 H973 0.930 . S
C982 C980 1.384 . S
C982 C983 1.371 . S
C983 C982 1.371 . S
C983 C984 1.420 . S
C983 C988 1.490 1_545 S
C984 H974 0.914 1_545 S
C984 C983 1.420 . S
C984 C987 1.387 . S
H985 C1001 0.930 . S
H986 C1002 0.931 . S
C987 H975 0.929 . S
C987 C981 1.390 . S
C987 C984 1.387 . S
C988 C983 1.490 1_565 S
C988 C990 1.372 1_565 S
C988 C991 1.403 . S
H989 C995 0.930 . S
C990 H976 0.951 . S
C990 C988 1.372 1_545 S
C990 C993 1.406 1_545 S
C991 C988 1.403 . S
C991 C992 1.524 . S
C991 C995 1.400 . S
C992 H977 0.960 . S
C992 H978 0.960 . S
C992 H979 0.960 . S
C992 C991 1.524 . S
C993 C990 1.406 1_565 S
C993 C994 1.392 . S
C993 C997 1.495 1_565 S
C994 C993 1.392 . S
C994 C995 1.385 . S
C994 C996 1.478 . S
C995 H989 0.930 . S
C995 C991 1.400 . S
C995 C994 1.385 . S
C996 C994 1.478 . S
C996 C998 1.381 . S
C996 C1002 1.383 . S
C997 C993 1.495 1_545 S
C997 H1003 0.959 . S
C997 H1004 0.961 . S
C997 H1005 0.959 1_545 S
C998 C996 1.381 . S
C998 C999 1.394 . S
C998 H1006 0.930 . S
C999 C998 1.394 . S
C999 C1000 1.383 . S
C999 H1007 0.929 . S
C1000 C999 1.383 . S
C1000 C1001 1.377 . S
C1001 H985 0.930 . S
C1001 C1000 1.377 . S
C1001 C1002 1.379 . S
C1002 H986 0.931 . S
C1002 C996 1.383 . S
C1002 C1001 1.379 . S
H1003 C997 0.959 . S
H1004 C997 0.961 . S
H1005 C997 0.959 1_565 S
H1006 C998 0.930 . S
H1007 C999 0.929 . S
H1008 C1016 0.929 . S
H1009 C1018 0.930 . S
H1010 C1020 0.930 . S
H1011 C1023 0.929 . S
H1012 C1026 0.930 . S
H1013 C1028 0.960 1_655 S
H1014 C1028 0.960 . S
H1015 C1028 0.960 . S
C1016 H1008 0.929 . S
C1016 C1017 1.377 . S
C1016 C1018 1.384 . S
C1017 C1016 1.377 . S
C1017 C1023 1.390 . S
C1018 H1009 0.930 . S
C1018 C1016 1.384 . S
C1018 C1019 1.372 . S
C1019 C1018 1.372 . S
C1019 C1020 1.400 . S
C1019 C1024 1.490 . S
C1020 H1010 0.930 . S
C1020 C1019 1.400 . S
C1020 C1023 1.386 . S
H1021 C1037 0.930 . S
H1022 C1038 0.931 . S
C1023 H1011 0.929 . S
C1023 C1017 1.390 . S
C1023 C1020 1.386 . S
C1024 C1019 1.490 . S
C1024 C1026 1.395 . S
C1024 C1027 1.403 . S
H1025 C1031 0.930 1_655 S
C1026 H1012 0.930 . S
C1026 C1024 1.395 . S
C1026 C1029 1.403 . S
C1027 C1024 1.403 . S
C1027 C1028 1.524 . S
C1027 C1031 1.400 . S
C1028 H1013 0.960 1_455 S
C1028 H1014 0.960 . S
C1028 H1015 0.960 . S
C1028 C1027 1.524 . S
C1029 C1026 1.403 . S
C1029 C1030 1.392 . S
C1029 C1033 1.495 . S
C1030 C1029 1.392 . S
C1030 C1031 1.385 . S
C1030 C1032 1.478 . S
C1031 H1025 0.930 1_455 S
C1031 C1027 1.400 . S
C1031 C1030 1.385 . S
C1032 C1030 1.478 . S
C1032 C1034 1.381 1_455 S
C1032 C1038 1.383 . S
C1033 C1029 1.495 . S
C1033 H1039 0.959 . S
C1033 H1040 0.961 . S
C1033 H1041 0.960 . S
C1034 C1032 1.381 1_655 S
C1034 C1035 1.394 . S
C1034 H1042 0.930 . S
C1035 C1034 1.394 . S
C1035 C1036 1.383 . S
C1035 H1043 0.929 . S
C1036 C1035 1.383 . S
C1036 C1037 1.377 . S
C1037 H1021 0.930 . S
C1037 C1036 1.377 . S
C1037 C1038 1.379 1_655 S
C1038 H1022 0.931 . S
C1038 C1032 1.383 . S
C1038 C1037 1.379 1_455 S
H1039 C1033 0.959 . S
H1040 C1033 0.961 . S
H1041 C1033 0.960 . S
H1042 C1034 0.930 . S
H1043 C1035 0.929 . S
H1044 C1052 0.929 . S
H1045 C1054 0.930 . S
H1046 C1056 0.930 . S
H1047 C1059 0.929 . S
H1048 C1062 0.930 . S
H1049 C1064 0.960 . S
H1050 C1064 0.960 . S
H1051 C1064 0.960 . S
C1052 H1044 0.929 . S
C1052 C1053 1.377 . S
C1052 C1054 1.384 . S
C1053 C1052 1.377 . S
C1053 C1059 1.390 . S
C1054 H1045 0.930 . S
C1054 C1052 1.384 . S
C1054 C1055 1.372 . S
C1055 C1054 1.372 . S
C1055 C1056 1.400 . S
C1055 C1060 1.490 . S
C1056 H1046 0.930 . S
C1056 C1055 1.400 . S
C1056 C1059 1.386 . S
H1057 C1073 0.930 . S
H1058 C1074 0.931 . S
C1059 H1047 0.929 . S
C1059 C1053 1.390 . S
C1059 C1056 1.386 . S
C1060 C1055 1.490 . S
C1060 C1062 1.395 . S
C1060 C1063 1.403 . S
H1061 C1067 0.930 1_655 S
C1062 H1048 0.930 . S
C1062 C1060 1.395 . S
C1062 C1065 1.403 . S
C1063 C1060 1.403 . S
C1063 C1064 1.524 . S
C1063 C1067 1.400 . S
C1064 H1049 0.960 . S
C1064 H1050 0.960 . S
C1064 H1051 0.960 . S
C1064 C1063 1.524 . S
C1065 C1062 1.403 . S
C1065 C1066 1.392 . S
C1065 C1069 1.495 . S
C1066 C1065 1.392 . S
C1066 C1067 1.385 . S
C1066 C1068 1.478 . S
C1067 H1061 0.930 1_455 S
C1067 C1063 1.400 . S
C1067 C1066 1.385 . S
C1068 C1066 1.478 . S
C1068 C1070 1.381 . S
C1068 C1074 1.383 1_455 S
C1069 C1065 1.495 . S
C1069 H1075 0.959 . S
C1069 H1076 0.961 . S
C1069 H1077 0.960 . S
C1070 C1068 1.381 . S
C1070 C1071 1.394 . S
C1070 H1078 0.930 . S
C1071 C1070 1.394 . S
C1071 C1072 1.389 1_455 S
C1071 H1079 0.924 . S
C1072 C1071 1.389 1_655 S
C1072 C1073 1.377 . S
C1073 H1057 0.930 . S
C1073 C1072 1.377 . S
C1073 C1074 1.379 . S
C1074 H1058 0.931 . S
C1074 C1068 1.383 1_655 S
C1074 C1073 1.379 . S
H1075 C1069 0.959 . S
H1076 C1069 0.961 . S
H1077 C1069 0.960 . S
H1078 C1070 0.930 . S
H1079 C1071 0.924 . S
H1080 C1088 0.929 . S
H1081 C1090 0.930 . S
H1082 C1092 0.930 . S
H1083 C1095 0.929 . S
H1084 C1098 0.930 . S
H1085 C1100 0.960 . S
H1086 C1100 0.960 . S
H1087 C1100 0.960 . S
C1088 H1080 0.929 . S
C1088 C1089 1.377 . S
C1088 C1090 1.384 . S
C1089 C1088 1.377 . S
C1089 C1095 1.390 . S
C1090 H1081 0.930 . S
C1090 C1088 1.384 . S
C1090 C1091 1.372 . S
C1091 C1090 1.372 . S
C1091 C1092 1.400 . S
C1091 C1096 1.490 . S
C1092 H1082 0.930 . S
C1092 C1091 1.400 . S
C1092 C1095 1.386 . S
H1093 C1109 0.930 . S
H1094 C1110 0.931 . S
C1095 H1083 0.929 . S
C1095 C1089 1.390 . S
C1095 C1092 1.386 . S
C1096 C1091 1.490 . S
C1096 C1098 1.395 . S
C1096 C1099 1.403 . S
H1097 C1103 0.930 . S
C1098 H1084 0.930 . S
C1098 C1096 1.395 . S
C1098 C1101 1.403 . S
C1099 C1096 1.403 . S
C1099 C1100 1.524 . S
C1099 C1103 1.400 . S
C1100 H1085 0.960 . S
C1100 H1086 0.960 . S
C1100 H1087 0.960 . S
C1100 C1099 1.524 . S
C1101 C1098 1.403 . S
C1101 C1102 1.392 . S
C1101 C1105 1.495 . S
C1102 C1101 1.392 . S
C1102 C1103 1.385 . S
C1102 C1104 1.478 . S
C1103 H1097 0.930 . S
C1103 C1099 1.400 . S
C1103 C1102 1.385 . S
C1104 C1102 1.478 . S
C1104 C1106 1.381 . S
C1104 C1110 1.383 . S
C1105 C1101 1.495 . S
C1105 H1111 0.959 . S
C1105 H1112 0.961 . S
C1105 H1113 0.960 . S
C1106 C1104 1.381 . S
C1106 C1107 1.394 . S
C1106 H1114 0.930 . S
C1107 C1106 1.394 . S
C1107 C1108 1.383 . S
C1107 H1115 0.929 . S
C1108 C1107 1.383 . S
C1108 C1109 1.377 . S
C1109 H1093 0.930 . S
C1109 C1108 1.377 . S
C1109 C1110 1.379 . S
C1110 H1094 0.931 . S
C1110 C1104 1.383 . S
C1110 C1109 1.379 . S
H1111 C1105 0.959 . S
H1112 C1105 0.961 . S
H1113 C1105 0.960 . S
H1114 C1106 0.930 . S
H1115 C1107 0.929 . S
H1116 C1124 0.929 . S
H1117 C1126 0.930 . S
H1118 C1128 0.930 . S
H1119 C1131 0.929 . S
H1120 C1134 0.930 . S
H1121 C1136 0.960 . S
H1122 C1136 0.960 . S
H1123 C1136 0.960 . S
C1124 H1116 0.929 . S
C1124 C1125 1.377 . S
C1124 C1126 1.384 . S
C1125 C1124 1.377 . S
C1125 C1131 1.390 . S
C1126 H1117 0.930 . S
C1126 C1124 1.384 . S
C1126 C1127 1.372 . S
C1127 C1126 1.372 . S
C1127 C1128 1.400 . S
C1127 C1132 1.490 . S
C1128 H1118 0.930 . S
C1128 C1127 1.400 . S
C1128 C1131 1.386 . S
H1129 C1145 0.930 . S
H1130 C1146 0.966 . S
C1131 H1119 0.929 . S
C1131 C1125 1.390 . S
C1131 C1128 1.386 . S
C1132 C1127 1.490 . S
C1132 C1134 1.395 . S
C1132 C1135 1.403 . S
H1133 C1139 0.930 . S
C1134 H1120 0.930 . S
C1134 C1132 1.395 . S
C1134 C1137 1.321 1_565 S
C1135 C1132 1.403 . S
C1135 C1136 1.524 . S
C1135 C1139 1.400 . S
C1136 H1121 0.960 . S
C1136 H1122 0.960 . S
C1136 H1123 0.960 . S
C1136 C1135 1.524 . S
C1137 C1134 1.321 1_545 S
C1137 C1138 1.402 1_545 S
C1137 C1141 1.570 . S
C1138 C1137 1.402 1_565 S
C1138 C1139 1.385 . S
C1138 C1140 1.478 1_565 S
C1139 H1133 0.930 . S
C1139 C1135 1.400 . S
C1139 C1138 1.385 . S
C1140 C1138 1.478 1_545 S
C1140 C1142 1.381 . S
C1140 C1146 1.383 . S
C1141 C1137 1.570 . S
C1141 H1147 0.959 . S
C1141 H1148 0.961 . S
C1141 H1149 0.960 . S
C1142 C1140 1.381 . S
C1142 C1143 1.394 . S
C1142 H1150 0.930 . S
C1143 C1142 1.394 . S
C1143 C1144 1.383 . S
C1143 H1151 0.929 . S
C1144 C1143 1.383 . S
C1144 C1145 1.377 . S
C1145 H1129 0.930 . S
C1145 C1144 1.377 . S
C1145 C1146 1.379 . S
C1146 H1130 0.966 . S
C1146 C1140 1.383 . S
C1146 C1145 1.379 . S
H1147 C1141 0.959 . S
H1148 C1141 0.961 . S
H1149 C1141 0.960 . S
H1150 C1142 0.930 . S
H1151 C1143 0.929 . S
H1152 C1160 0.929 . S
H1153 C1162 0.930 . S
H1154 C1164 0.930 . S
H1155 C1167 0.929 . S
H1156 C1170 0.930 . S
H1157 C1172 0.960 . S
H1158 C1172 0.960 . S
H1159 C1172 0.960 . S
C1160 H1152 0.929 . S
C1160 C1161 1.377 . S
C1160 C1162 1.384 . S
C1161 C1160 1.377 . S
C1161 C1167 1.390 . S
C1162 H1153 0.930 . S
C1162 C1160 1.384 . S
C1162 C1163 1.372 . S
C1163 C1162 1.372 . S
C1163 C1164 1.400 . S
C1163 C1168 1.490 . S
C1164 H1154 0.930 . S
C1164 C1163 1.400 . S
C1164 C1167 1.386 . S
H1165 C1181 0.930 . S
H1166 C1182 0.931 . S
C1167 H1155 0.929 . S
C1167 C1161 1.390 . S
C1167 C1164 1.386 . S
C1168 C1163 1.490 . S
C1168 C1170 1.395 . S
C1168 C1171 1.403 . S
H1169 C1175 0.930 . S
C1170 H1156 0.930 . S
C1170 C1168 1.395 . S
C1170 C1173 1.403 . S
C1171 C1168 1.403 . S
C1171 C1172 1.524 . S
C1171 C1175 1.400 . S
C1172 H1157 0.960 . S
C1172 H1158 0.960 . S
C1172 H1159 0.960 . S
C1172 C1171 1.524 . S
C1173 C1170 1.403 . S
C1173 C1174 1.392 . S
C1173 C1177 1.495 . S
C1174 C1173 1.392 . S
C1174 C1175 1.385 . S
C1174 C1176 1.478 . S
C1175 H1169 0.930 . S
C1175 C1171 1.400 . S
C1175 C1174 1.385 . S
C1176 C1174 1.478 . S
C1176 C1178 1.381 . S
C1176 C1182 1.383 . S
C1177 C1173 1.495 . S
C1177 H1183 0.959 . S
C1177 H1184 0.961 . S
C1177 H1185 0.960 . S
C1178 C1176 1.381 . S
C1178 C1179 1.394 . S
C1178 H1186 0.930 . S
C1179 C1178 1.394 . S
C1179 C1180 1.383 . S
C1179 H1187 0.929 . S
C1180 C1179 1.383 . S
C1180 C1181 1.377 . S
C1181 H1165 0.930 . S
C1181 C1180 1.377 . S
C1181 C1182 1.379 . S
C1182 H1166 0.931 . S
C1182 C1176 1.383 . S
C1182 C1181 1.379 . S
H1183 C1177 0.959 . S
H1184 C1177 0.961 . S
H1185 C1177 0.960 . S
H1186 C1178 0.930 . S
H1187 C1179 0.929 . S
H1188 C1196 0.929 . S
H1189 C1198 0.930 . S
H1190 C1200 0.930 . S
H1191 C1203 0.929 . S
H1192 C1206 0.930 . S
H1193 C1208 0.960 . S
H1194 C1208 0.960 . S
H1195 C1208 0.960 . S
C1196 H1188 0.929 . S
C1196 C1197 1.377 . S
C1196 C1198 1.384 . S
C1197 C1196 1.377 . S
C1197 C1203 1.390 . S
C1198 H1189 0.930 . S
C1198 C1196 1.384 . S
C1198 C1199 1.372 . S
C1199 C1198 1.372 . S
C1199 C1200 1.400 . S
C1199 C1204 1.490 . S
C1200 H1190 0.930 . S
C1200 C1199 1.400 . S
C1200 C1203 1.386 . S
H1201 C1217 0.930 . S
H1202 C1218 0.931 . S
C1203 H1191 0.929 . S
C1203 C1197 1.390 . S
C1203 C1200 1.386 . S
C1204 C1199 1.490 . S
C1204 C1206 1.395 . S
C1204 C1207 1.403 . S
H1205 C1211 0.930 . S
C1206 H1192 0.930 . S
C1206 C1204 1.395 . S
C1206 C1209 1.403 . S
C1207 C1204 1.403 . S
C1207 C1208 1.524 . S
C1207 C1211 1.400 . S
C1208 H1193 0.960 . S
C1208 H1194 0.960 . S
C1208 H1195 0.960 . S
C1208 C1207 1.524 . S
C1209 C1206 1.403 . S
C1209 C1210 1.392 . S
C1209 C1213 1.495 . S
C1210 C1209 1.392 . S
C1210 C1211 1.385 . S
C1210 C1212 1.478 . S
C1211 H1205 0.930 . S
C1211 C1207 1.400 . S
C1211 C1210 1.385 . S
C1212 C1210 1.478 . S
C1212 C1214 1.381 . S
C1212 C1218 1.383 . S
C1213 C1209 1.495 . S
C1213 H1219 0.959 . S
C1213 H1220 0.961 . S
C1213 H1221 0.960 . S
C1214 C1212 1.381 . S
C1214 C1215 1.394 . S
C1214 H1222 0.930 . S
C1215 C1214 1.394 . S
C1215 C1216 1.383 . S
C1215 H1223 0.929 . S
C1216 C1215 1.383 . S
C1216 C1217 1.377 . S
C1217 H1201 0.930 . S
C1217 C1216 1.377 . S
C1217 C1218 1.379 . S
C1218 H1202 0.931 . S
C1218 C1212 1.383 . S
C1218 C1217 1.379 . S
H1219 C1213 0.959 . S
H1220 C1213 0.961 . S
H1221 C1213 0.960 . S
H1222 C1214 0.930 . S
H1223 C1215 0.929 . S
H1224 C1232 0.929 . S
H1225 C1234 0.930 . S
H1226 C1236 0.930 . S
H1227 C1239 0.929 . S
H1228 C1242 0.930 . S
H1229 C1244 0.960 . S
H1230 C1244 0.960 . S
H1231 C1244 0.960 . S
C1232 H1224 0.929 . S
C1232 C1233 1.377 . S
C1232 C1234 1.384 . S
C1233 C1232 1.377 . S
C1233 C1239 1.390 . S
C1234 H1225 0.930 . S
C1234 C1232 1.384 . S
C1234 C1235 1.372 . S
C1235 C1234 1.372 . S
C1235 C1236 1.400 . S
C1235 C1240 1.490 . S
C1236 H1226 0.930 . S
C1236 C1235 1.400 . S
C1236 C1239 1.386 . S
H1237 C1253 0.930 . S
H1238 C1254 0.931 . S
C1239 H1227 0.929 . S
C1239 C1233 1.390 . S
C1239 C1236 1.386 . S
C1240 C1235 1.490 . S
C1240 C1242 1.395 . S
C1240 C1243 1.403 . S
H1241 C1247 0.930 . S
C1242 H1228 0.930 . S
C1242 C1240 1.395 . S
C1242 C1245 1.403 . S
C1243 C1240 1.403 . S
C1243 C1244 1.524 . S
C1243 C1247 1.400 . S
C1244 H1229 0.960 . S
C1244 H1230 0.960 . S
C1244 H1231 0.960 . S
C1244 C1243 1.524 . S
C1245 C1242 1.403 . S
C1245 C1246 1.392 . S
C1245 C1249 1.495 . S
C1246 C1245 1.392 . S
C1246 C1247 1.385 . S
C1246 C1248 1.478 . S
C1247 H1241 0.930 . S
C1247 C1243 1.400 . S
C1247 C1246 1.385 . S
C1248 C1246 1.478 . S
C1248 C1250 1.381 . S
C1248 C1254 1.383 . S
C1249 C1245 1.495 . S
C1249 H1255 0.959 . S
C1249 H1256 0.961 . S
C1249 H1257 0.960 . S
C1250 C1248 1.381 . S
C1250 C1251 1.394 . S
C1250 H1258 0.930 . S
C1251 C1250 1.394 . S
C1251 C1252 1.383 . S
C1251 H1259 0.929 . S
C1252 C1251 1.383 . S
C1252 C1253 1.377 . S
C1253 H1237 0.930 . S
C1253 C1252 1.377 . S
C1253 C1254 1.379 . S
C1254 H1238 0.931 . S
C1254 C1248 1.383 . S
C1254 C1253 1.379 . S
H1255 C1249 0.959 . S
H1256 C1249 0.961 . S
H1257 C1249 0.960 . S
H1258 C1250 0.930 . S
H1259 C1251 0.929 . S
H1260 C1268 0.929 . S
H1261 C1270 0.930 . S
H1262 C1272 0.930 . S
H1263 C1275 0.929 . S
H1264 C1278 0.930 . S
H1265 C1280 0.960 . S
H1266 C1280 0.960 . S
H1267 C1280 0.960 . S
C1268 H1260 0.929 . S
C1268 C1269 1.377 . S
C1268 C1270 1.384 . S
C1269 C1268 1.377 . S
C1269 C1275 1.390 . S
C1270 H1261 0.930 . S
C1270 C1268 1.384 . S
C1270 C1271 1.372 . S
C1271 C1270 1.372 . S
C1271 C1272 1.400 . S
C1271 C1276 1.490 . S
C1272 H1262 0.930 . S
C1272 C1271 1.400 . S
C1272 C1275 1.386 . S
H1273 C1289 0.930 . S
H1274 C1290 0.931 . S
C1275 H1263 0.929 . S
C1275 C1269 1.390 . S
C1275 C1272 1.386 . S
C1276 C1271 1.490 . S
C1276 C1278 1.395 . S
C1276 C1279 1.403 . S
H1277 C1283 0.930 . S
C1278 H1264 0.930 . S
C1278 C1276 1.395 . S
C1278 C1281 1.403 . S
C1279 C1276 1.403 . S
C1279 C1280 1.524 . S
C1279 C1283 1.400 . S
C1280 H1265 0.960 . S
C1280 H1266 0.960 . S
C1280 H1267 0.960 . S
C1280 C1279 1.524 . S
C1281 C1278 1.403 . S
C1281 C1282 1.392 . S
C1281 C1285 1.495 . S
C1282 C1281 1.392 . S
C1282 C1283 1.385 . S
C1282 C1284 1.478 . S
C1283 H1277 0.930 . S
C1283 C1279 1.400 . S
C1283 C1282 1.385 . S
C1284 C1282 1.478 . S
C1284 C1286 1.381 . S
C1284 C1290 1.383 . S
C1285 C1281 1.495 . S
C1285 H1291 0.959 . S
C1285 H1292 0.961 . S
C1285 H1293 0.960 . S
C1286 C1284 1.381 . S
C1286 C1287 1.394 . S
C1286 H1294 0.930 . S
C1287 C1286 1.394 . S
C1287 C1288 1.383 1_554 S
C1287 H1295 0.928 1_554 S
C1288 C1287 1.383 1_556 S
C1288 C1289 1.377 . S
C1289 H1273 0.930 . S
C1289 C1288 1.377 . S
C1289 C1290 1.379 1_556 S
C1290 H1274 0.931 . S
C1290 C1284 1.383 . S
C1290 C1289 1.379 1_554 S
H1291 C1285 0.959 . S
H1292 C1285 0.961 . S
H1293 C1285 0.960 . S
H1294 C1286 0.930 . S
H1295 C1287 0.928 1_556 S
H1296 C1304 0.929 . S
H1297 C1306 0.930 . S
H1298 C1308 0.930 . S
H1299 C1311 0.929 . S
H1300 C1314 0.930 . S
H1301 C1316 0.960 . S
H1302 C1316 0.960 . S
H1303 C1316 0.960 . S
C1304 H1296 0.929 . S
C1304 C1305 1.377 . S
C1304 C1306 1.384 . S
C1305 C1304 1.377 . S
C1305 C1311 1.390 . S
C1306 H1297 0.930 . S
C1306 C1304 1.384 . S
C1306 C1307 1.372 . S
C1307 C1306 1.372 . S
C1307 C1308 1.400 . S
C1307 C1312 1.490 . S
C1308 H1298 0.930 . S
C1308 C1307 1.400 . S
C1308 C1311 1.386 . S
H1309 C1325 0.930 . S
H1310 C1326 0.931 . S
C1311 H1299 0.929 . S
C1311 C1305 1.390 . S
C1311 C1308 1.386 . S
C1312 C1307 1.490 . S
C1312 C1314 1.395 . S
C1312 C1315 1.403 . S
H1313 C1319 0.930 . S
C1314 H1300 0.930 . S
C1314 C1312 1.395 . S
C1314 C1317 1.403 . S
C1315 C1312 1.403 . S
C1315 C1316 1.524 . S
C1315 C1319 1.400 . S
C1316 H1301 0.960 . S
C1316 H1302 0.960 . S
C1316 H1303 0.960 . S
C1316 C1315 1.524 . S
C1317 C1314 1.403 . S
C1317 C1318 1.392 . S
C1317 C1321 1.495 . S
C1318 C1317 1.392 . S
C1318 C1319 1.385 . S
C1318 C1320 1.478 . S
C1319 H1313 0.930 . S
C1319 C1315 1.400 . S
C1319 C1318 1.385 . S
C1320 C1318 1.478 . S
C1320 C1322 1.381 . S
C1320 C1326 1.383 . S
C1321 C1317 1.495 . S
C1321 H1327 0.959 . S
C1321 H1328 0.961 . S
C1321 H1329 0.960 . S
C1322 C1320 1.381 . S
C1322 C1323 1.394 1_554 S
C1322 H1330 0.930 . S
C1323 C1322 1.394 1_556 S
C1323 C1324 1.383 . S
C1323 H1331 0.929 . S
C1324 C1323 1.383 . S
C1324 C1325 1.377 . S
C1325 H1309 0.930 . S
C1325 C1324 1.377 . S
C1325 C1326 1.379 1_556 S
C1326 H1310 0.931 . S
C1326 C1320 1.383 . S
C1326 C1325 1.379 1_554 S
H1327 C1321 0.959 . S
H1328 C1321 0.961 . S
H1329 C1321 0.960 . S
H1330 C1322 0.930 . S
H1331 C1323 0.929 . S
H1332 C1340 0.929 . S
H1333 C1342 0.930 . S
H1334 C1344 0.930 . S
H1335 C1347 0.929 . S
H1336 C1350 0.930 . S
H1337 C1352 0.960 . S
H1338 C1352 0.960 . S
H1339 C1352 0.960 . S
C1340 H1332 0.929 . S
C1340 C1341 1.377 . S
C1340 C1342 1.384 . S
C1341 C1340 1.377 . S
C1341 C1347 1.390 . S
C1342 H1333 0.930 . S
C1342 C1340 1.384 . S
C1342 C1343 1.372 . S
C1343 C1342 1.372 . S
C1343 C1344 1.400 . S
C1343 C1348 1.490 . S
C1344 H1334 0.930 . S
C1344 C1343 1.400 . S
C1344 C1347 1.386 . S
H1345 C1361 0.930 . S
H1346 C1362 0.931 . S
C1347 H1335 0.929 . S
C1347 C1341 1.390 . S
C1347 C1344 1.386 . S
C1348 C1343 1.490 . S
C1348 C1350 1.395 . S
C1348 C1351 1.403 . S
H1349 C1355 0.930 . S
C1350 H1336 0.930 . S
C1350 C1348 1.395 . S
C1350 C1353 1.403 . S
C1351 C1348 1.403 . S
C1351 C1352 1.524 . S
C1351 C1355 1.400 . S
C1352 H1337 0.960 . S
C1352 H1338 0.960 . S
C1352 H1339 0.960 . S
C1352 C1351 1.524 . S
C1353 C1350 1.403 . S
C1353 C1354 1.392 . S
C1353 C1357 1.495 . S
C1354 C1353 1.392 . S
C1354 C1355 1.385 . S
C1354 C1356 1.478 . S
C1355 H1349 0.930 . S
C1355 C1351 1.400 . S
C1355 C1354 1.385 . S
C1356 C1354 1.478 . S
C1356 C1358 1.381 . S
C1356 C1362 1.383 . S
C1357 C1353 1.495 . S
C1357 H1363 0.959 . S
C1357 H1364 0.961 . S
C1357 H1365 0.960 . S
C1358 C1356 1.381 . S
C1358 C1359 1.394 . S
C1358 H1366 0.930 . S
C1359 C1358 1.394 . S
C1359 C1360 1.383 1_554 S
C1359 H1367 0.929 . S
C1360 C1359 1.383 1_556 S
C1360 C1361 1.377 . S
C1361 H1345 0.930 . S
C1361 C1360 1.377 . S
C1361 C1362 1.379 1_556 S
C1362 H1346 0.931 . S
C1362 C1356 1.383 . S
C1362 C1361 1.379 1_554 S
H1363 C1357 0.959 . S
H1364 C1357 0.961 . S
H1365 C1357 0.960 . S
H1366 C1358 0.930 . S
H1367 C1359 0.929 . S
H1368 C1376 0.929 . S
H1369 C1378 0.930 . S
H1370 C1380 0.930 . S
H1371 C1383 0.929 . S
H1372 C1386 0.930 . S
H1373 C1388 0.960 . S
H1374 C1388 0.960 . S
H1375 C1388 0.960 . S
C1376 H1368 0.929 . S
C1376 C1377 1.377 . S
C1376 C1378 1.384 . S
C1377 C1376 1.377 . S
C1377 C1383 1.390 . S
C1378 H1369 0.930 . S
C1378 C1376 1.384 . S
C1378 C1379 1.372 . S
C1379 C1378 1.372 . S
C1379 C1380 1.400 . S
C1379 C1384 1.490 . S
C1380 H1370 0.930 . S
C1380 C1379 1.400 . S
C1380 C1383 1.386 . S
H1381 C1397 0.930 . S
H1382 C1398 0.931 . S
C1383 H1371 0.929 . S
C1383 C1377 1.390 . S
C1383 C1380 1.386 . S
C1384 C1379 1.490 . S
C1384 C1386 1.395 . S
C1384 C1387 1.403 . S
H1385 C1391 0.930 . S
C1386 H1372 0.930 . S
C1386 C1384 1.395 . S
C1386 C1389 1.403 . S
C1387 C1384 1.403 . S
C1387 C1388 1.524 . S
C1387 C1391 1.400 . S
C1388 H1373 0.960 . S
C1388 H1374 0.960 . S
C1388 H1375 0.960 . S
C1388 C1387 1.524 . S
C1389 C1386 1.403 . S
C1389 C1390 1.392 . S
C1389 C1393 1.495 . S
C1390 C1389 1.392 . S
C1390 C1391 1.385 . S
C1390 C1392 1.478 . S
C1391 H1385 0.930 . S
C1391 C1387 1.400 . S
C1391 C1390 1.385 . S
C1392 C1390 1.478 . S
C1392 C1394 1.381 . S
C1392 C1398 1.383 . S
C1393 C1389 1.495 . S
C1393 H1399 0.959 . S
C1393 H1400 0.961 . S
C1393 H1401 0.960 . S
C1394 C1392 1.381 . S
C1394 C1395 1.394 . S
C1394 H1402 0.930 . S
C1395 C1394 1.394 . S
C1395 C1396 1.383 . S
C1395 H1403 0.929 . S
C1396 C1395 1.383 . S
C1396 C1397 1.377 . S
C1397 H1381 0.930 . S
C1397 C1396 1.377 . S
C1397 C1398 1.379 . S
C1398 H1382 0.931 . S
C1398 C1392 1.383 . S
C1398 C1397 1.379 . S
H1399 C1393 0.959 . S
H1400 C1393 0.961 . S
H1401 C1393 0.960 . S
H1402 C1394 0.930 . S
H1403 C1395 0.929 . S
H1404 C1412 0.929 . S
H1405 C1414 0.930 . S
H1406 C1416 0.930 . S
H1407 C1419 0.929 . S
H1408 C1422 0.930 . S
H1409 C1424 0.960 . S
H1410 C1424 0.960 . S
H1411 C1424 0.960 . S
C1412 H1404 0.929 . S
C1412 C1413 1.377 . S
C1412 C1414 1.384 . S
C1413 C1412 1.377 . S
C1413 C1419 1.390 . S
C1414 H1405 0.930 . S
C1414 C1412 1.384 . S
C1414 C1415 1.372 . S
C1415 C1414 1.372 . S
C1415 C1416 1.400 . S
C1415 C1420 1.490 . S
C1416 H1406 0.930 . S
C1416 C1415 1.400 . S
C1416 C1419 1.386 . S
H1417 C1433 0.930 . S
H1418 C1434 0.931 . S
C1419 H1407 0.929 . S
C1419 C1413 1.390 . S
C1419 C1416 1.386 . S
C1420 C1415 1.490 . S
C1420 C1422 1.395 . S
C1420 C1423 1.403 . S
H1421 C1427 0.930 . S
C1422 H1408 0.930 . S
C1422 C1420 1.395 . S
C1422 C1425 1.403 . S
C1423 C1420 1.403 . S
C1423 C1424 1.524 . S
C1423 C1427 1.400 . S
C1424 H1409 0.960 . S
C1424 H1410 0.960 . S
C1424 H1411 0.960 . S
C1424 C1423 1.524 . S
C1425 C1422 1.403 . S
C1425 C1426 1.392 . S
C1425 C1429 1.495 . S
C1426 C1425 1.392 . S
C1426 C1427 1.385 . S
C1426 C1428 1.478 . S
C1427 H1421 0.930 . S
C1427 C1423 1.400 . S
C1427 C1426 1.385 . S
C1428 C1426 1.478 . S
C1428 C1430 1.381 . S
C1428 C1434 1.383 . S
C1429 C1425 1.495 . S
C1429 H1435 0.959 . S
C1429 H1436 0.961 . S
C1429 H1437 0.960 . S
C1430 C1428 1.381 . S
C1430 C1431 1.394 . S
C1430 H1438 0.930 . S
C1431 C1430 1.394 . S
C1431 C1432 1.383 . S
C1431 H1439 0.929 . S
C1432 C1431 1.383 . S
C1432 C1433 1.377 . S
C1433 H1417 0.930 . S
C1433 C1432 1.377 . S
C1433 C1434 1.379 . S
C1434 H1418 0.931 . S
C1434 C1428 1.383 . S
C1434 C1433 1.379 . S
H1435 C1429 0.959 . S
H1436 C1429 0.961 . S
H1437 C1429 0.960 . S
H1438 C1430 0.930 . S
H1439 C1431 0.929 . S
H1440 C1448 0.929 . S
H1441 C1450 0.930 . S
H1442 C1452 0.930 . S
H1443 C1455 0.929 . S
H1444 C1458 0.930 . S
H1445 C1460 0.960 . S
H1446 C1460 0.960 . S
H1447 C1460 0.960 . S
C1448 H1440 0.929 . S
C1448 C1449 1.377 . S
C1448 C1450 1.384 . S
C1449 C1448 1.377 . S
C1449 C1455 1.390 . S
C1450 H1441 0.930 . S
C1450 C1448 1.384 . S
C1450 C1451 1.372 . S
C1451 C1450 1.372 . S
C1451 C1452 1.400 . S
C1451 C1456 1.490 . S
C1452 H1442 0.930 . S
C1452 C1451 1.400 . S
C1452 C1455 1.386 . S
H1453 C1469 0.930 . S
H1454 C1470 0.931 . S
C1455 H1443 0.929 . S
C1455 C1449 1.390 . S
C1455 C1452 1.386 . S
C1456 C1451 1.490 . S
C1456 C1458 1.395 . S
C1456 C1459 1.403 . S
H1457 C1463 0.930 . S
C1458 H1444 0.930 . S
C1458 C1456 1.395 . S
C1458 C1461 1.403 . S
C1459 C1456 1.403 . S
C1459 C1460 1.524 . S
C1459 C1463 1.400 . S
C1460 H1445 0.960 . S
C1460 H1446 0.960 . S
C1460 H1447 0.960 . S
C1460 C1459 1.524 . S
C1461 C1458 1.403 . S
C1461 C1462 1.392 . S
C1461 C1465 1.495 . S
C1462 C1461 1.392 . S
C1462 C1463 1.385 . S
C1462 C1464 1.478 . S
C1463 H1457 0.930 . S
C1463 C1459 1.400 . S
C1463 C1462 1.385 . S
C1464 C1462 1.478 . S
C1464 C1466 1.381 . S
C1464 C1470 1.383 . S
C1465 C1461 1.495 . S
C1465 H1471 0.959 . S
C1465 H1472 0.961 . S
C1465 H1473 0.960 . S
C1466 C1464 1.381 . S
C1466 C1467 1.394 . S
C1466 H1474 0.930 . S
C1467 C1466 1.394 . S
C1467 C1468 1.383 . S
C1467 H1475 0.929 . S
C1468 C1467 1.383 . S
C1468 C1469 1.377 . S
C1469 H1453 0.930 . S
C1469 C1468 1.377 . S
C1469 C1470 1.379 . S
C1470 H1454 0.931 . S
C1470 C1464 1.383 . S
C1470 C1469 1.379 . S
H1471 C1465 0.959 . S
H1472 C1465 0.961 . S
H1473 C1465 0.960 . S
H1474 C1466 0.930 . S
H1475 C1467 0.929 . S
H1476 C1484 0.929 . S
H1477 C1486 0.930 . S
H1478 C1488 0.930 . S
H1479 C1491 0.929 . S
H1480 C1494 0.930 . S
H1481 C1496 0.960 . S
H1482 C1496 0.960 . S
H1483 C1496 0.960 . S
C1484 H1476 0.929 . S
C1484 C1485 1.377 . S
C1484 C1486 1.384 1_554 S
C1485 C1484 1.377 . S
C1485 C1491 1.390 . S
C1486 H1477 0.930 . S
C1486 C1484 1.384 1_556 S
C1486 C1487 1.372 . S
C1487 C1486 1.372 . S
C1487 C1488 1.400 . S
C1487 C1492 1.490 . S
C1488 H1478 0.930 . S
C1488 C1487 1.400 . S
C1488 C1491 1.386 1_556 S
H1489 C1505 0.930 . S
H1490 C1506 0.931 . S
C1491 H1479 0.929 . S
C1491 C1485 1.390 . S
C1491 C1488 1.386 1_554 S
C1492 C1487 1.490 . S
C1492 C1494 1.395 . S
C1492 C1495 1.403 . S
H1493 C1499 0.930 . S
C1494 H1480 0.930 . S
C1494 C1492 1.395 . S
C1494 C1497 1.403 . S
C1495 C1492 1.403 . S
C1495 C1496 1.524 . S
C1495 C1499 1.400 . S
C1496 H1481 0.960 . S
C1496 H1482 0.960 . S
C1496 H1483 0.960 . S
C1496 C1495 1.524 . S
C1497 C1494 1.403 . S
C1497 C1498 1.392 . S
C1497 C1501 1.495 . S
C1498 C1497 1.392 . S
C1498 C1499 1.385 . S
C1498 C1500 1.478 . S
C1499 H1493 0.930 . S
C1499 C1495 1.400 . S
C1499 C1498 1.385 . S
C1500 C1498 1.478 . S
C1500 C1502 1.381 . S
C1500 C1506 1.383 . S
C1501 C1497 1.495 . S
C1501 H1507 0.959 . S
C1501 H1508 0.961 . S
C1501 H1509 0.960 . S
C1502 C1500 1.381 . S
C1502 C1503 1.394 . S
C1502 H1510 0.930 . S
C1503 C1502 1.394 . S
C1503 C1504 1.383 . S
C1503 H1511 0.929 . S
C1504 C1503 1.383 . S
C1504 C1505 1.377 . S
C1505 H1489 0.930 . S
C1505 C1504 1.377 . S
C1505 C1506 1.379 . S
C1506 H1490 0.931 . S
C1506 C1500 1.383 . S
C1506 C1505 1.379 . S
H1507 C1501 0.959 . S
H1508 C1501 0.961 . S
H1509 C1501 0.960 . S
H1510 C1502 0.930 . S
H1511 C1503 0.929 . S
H1512 C1520 0.929 . S
H1513 C1522 0.930 . S
H1514 C1524 0.930 . S
H1515 C1527 0.929 . S
H1516 C1530 0.930 . S
H1517 C1532 0.960 . S
H1518 C1532 0.960 . S
H1519 C1532 0.960 . S
C1520 H1512 0.929 . S
C1520 C1521 1.377 . S
C1520 C1522 1.384 1_554 S
C1521 C1520 1.377 . S
C1521 C1527 1.390 1_554 S
C1522 H1513 0.930 . S
C1522 C1520 1.384 1_556 S
C1522 C1523 1.372 . S
C1523 C1522 1.372 . S
C1523 C1524 1.400 . S
C1523 C1528 1.490 . S
C1524 H1514 0.930 . S
C1524 C1523 1.400 . S
C1524 C1527 1.386 . S
H1525 C1541 0.930 . S
H1526 C1542 0.931 . S
C1527 H1515 0.929 . S
C1527 C1521 1.390 1_556 S
C1527 C1524 1.386 . S
C1528 C1523 1.490 . S
C1528 C1530 1.395 . S
C1528 C1531 1.403 . S
H1529 C1535 0.930 . S
C1530 H1516 0.930 . S
C1530 C1528 1.395 . S
C1530 C1533 1.403 . S
C1531 C1528 1.403 . S
C1531 C1532 1.524 . S
C1531 C1535 1.400 . S
C1532 H1517 0.960 . S
C1532 H1518 0.960 . S
C1532 H1519 0.960 . S
C1532 C1531 1.524 . S
C1533 C1530 1.403 . S
C1533 C1534 1.392 . S
C1533 C1537 1.495 . S
C1534 C1533 1.392 . S
C1534 C1535 1.385 . S
C1534 C1536 1.478 . S
C1535 H1529 0.930 . S
C1535 C1531 1.400 . S
C1535 C1534 1.385 . S
C1536 C1534 1.478 . S
C1536 C1538 1.381 . S
C1536 C1542 1.383 . S
C1537 C1533 1.495 . S
C1537 H1543 0.959 . S
C1537 H1544 0.961 . S
C1537 H1545 0.960 . S
C1538 C1536 1.381 . S
C1538 C1539 1.394 . S
C1538 H1546 0.930 . S
C1539 C1538 1.394 . S
C1539 C1540 1.383 . S
C1539 H1547 0.929 . S
C1540 C1539 1.383 . S
C1540 C1541 1.377 . S
C1541 H1525 0.930 . S
C1541 C1540 1.377 . S
C1541 C1542 1.379 . S
C1542 H1526 0.931 . S
C1542 C1536 1.383 . S
C1542 C1541 1.379 . S
H1543 C1537 0.959 . S
H1544 C1537 0.961 . S
H1545 C1537 0.960 . S
H1546 C1538 0.930 . S
H1547 C1539 0.929 . S
H1548 C1556 0.929 . S
H1549 C1558 0.930 . S
H1550 C1560 0.930 . S
H1551 C1563 0.929 . S
H1552 C1566 0.930 . S
H1553 C1568 0.960 . S
H1554 C1568 0.960 . S
H1555 C1568 0.960 . S
C1556 H1548 0.929 . S
C1556 C1557 1.377 . S
C1556 C1558 1.384 . S
C1557 C1556 1.377 . S
C1557 C1563 1.390 . S
C1558 H1549 0.930 . S
C1558 C1556 1.384 . S
C1558 C1559 1.372 . S
C1559 C1558 1.372 . S
C1559 C1560 1.400 . S
C1559 C1564 1.490 . S
C1560 H1550 0.930 . S
C1560 C1559 1.400 . S
C1560 C1563 1.386 . S
H1561 C1577 0.930 . S
H1562 C1578 0.931 . S
C1563 H1551 0.929 . S
C1563 C1557 1.390 . S
C1563 C1560 1.386 . S
C1564 C1559 1.490 . S
C1564 C1566 1.395 . S
C1564 C1567 1.403 . S
H1565 C1571 0.930 . S
C1566 H1552 0.930 . S
C1566 C1564 1.395 . S
C1566 C1569 1.403 . S
C1567 C1564 1.403 . S
C1567 C1568 1.524 . S
C1567 C1571 1.400 . S
C1568 H1553 0.960 . S
C1568 H1554 0.960 . S
C1568 H1555 0.960 . S
C1568 C1567 1.524 . S
C1569 C1566 1.403 . S
C1569 C1570 1.392 . S
C1569 C1573 1.495 . S
C1570 C1569 1.392 . S
C1570 C1571 1.385 . S
C1570 C1572 1.478 . S
C1571 H1565 0.930 . S
C1571 C1567 1.400 . S
C1571 C1570 1.385 . S
C1572 C1570 1.478 . S
C1572 C1574 1.381 . S
C1572 C1578 1.383 . S
C1573 C1569 1.495 . S
C1573 H1579 0.959 . S
C1573 H1580 0.961 . S
C1573 H1581 0.960 . S
C1574 C1572 1.381 . S
C1574 C1575 1.394 . S
C1574 H1582 0.930 . S
C1575 C1574 1.394 . S
C1575 C1576 1.383 1_556 S
C1575 H1583 0.929 . S
C1576 C1575 1.383 1_554 S
C1576 C1577 1.377 . S
C1577 H1561 0.930 . S
C1577 C1576 1.377 . S
C1577 C1578 1.379 1_554 S
C1578 H1562 0.931 . S
C1578 C1572 1.383 . S
C1578 C1577 1.379 1_556 S
H1579 C1573 0.959 . S
H1580 C1573 0.961 . S
H1581 C1573 0.960 . S
H1582 C1574 0.930 . S
H1583 C1575 0.929 . S
H1584 C1592 0.929 . S
H1585 C1594 0.930 . S
H1586 C1596 0.930 . S
H1587 C1599 0.929 . S
H1588 C1602 0.930 . S
H1589 C1604 0.960 . S
H1590 C1604 0.960 . S
H1591 C1604 0.960 . S
C1592 H1584 0.929 . S
C1592 C1593 1.377 . S
C1592 C1594 1.384 . S
C1593 C1592 1.377 . S
C1593 C1599 1.390 . S
C1594 H1585 0.930 . S
C1594 C1592 1.384 . S
C1594 C1595 1.372 . S
C1595 C1594 1.372 . S
C1595 C1596 1.400 . S
C1595 C1600 1.490 . S
C1596 H1586 0.930 . S
C1596 C1595 1.400 . S
C1596 C1599 1.386 . S
H1597 C1613 0.930 . S
H1598 C1614 0.931 . S
C1599 H1587 0.929 . S
C1599 C1593 1.390 . S
C1599 C1596 1.386 . S
C1600 C1595 1.490 . S
C1600 C1602 1.395 1_455 S
C1600 C1603 1.403 . S
H1601 C1607 0.930 . S
C1602 H1588 0.930 . S
C1602 C1600 1.395 1_655 S
C1602 C1605 1.403 . S
C1603 C1600 1.403 . S
C1603 C1604 1.524 . S
C1603 C1607 1.400 . S
C1604 H1589 0.960 . S
C1604 H1590 0.960 . S
C1604 H1591 0.960 . S
C1604 C1603 1.524 . S
C1605 C1602 1.403 . S
C1605 C1606 1.392 . S
C1605 C1609 1.495 . S
C1606 C1605 1.392 . S
C1606 C1607 1.385 1_655 S
C1606 C1608 1.478 . S
C1607 H1601 0.930 . S
C1607 C1603 1.400 . S
C1607 C1606 1.385 1_455 S
C1608 C1606 1.478 . S
C1608 C1610 1.381 . S
C1608 C1614 1.383 . S
C1609 C1605 1.495 . S
C1609 H1615 0.959 . S
C1609 H1616 0.961 . S
C1609 H1617 0.960 . S
C1610 C1608 1.381 . S
C1610 C1611 1.394 . S
C1610 H1618 0.930 . S
C1611 C1610 1.394 . S
C1611 C1612 1.383 . S
C1611 H1619 0.929 . S
C1612 C1611 1.383 . S
C1612 C1613 1.377 . S
C1613 H1597 0.930 . S
C1613 C1612 1.377 . S
C1613 C1614 1.379 . S
C1614 H1598 0.931 . S
C1614 C1608 1.383 . S
C1614 C1613 1.379 . S
H1615 C1609 0.959 . S
H1616 C1609 0.961 . S
H1617 C1609 0.960 . S
H1618 C1610 0.930 . S
H1619 C1611 0.929 . S
H1620 C1628 0.929 . S
H1621 C1630 0.930 . S
H1622 C1632 0.930 . S
H1623 C1635 0.929 . S
H1624 C1638 0.930 . S
H1625 C1640 0.960 . S
H1626 C1640 0.960 . S
H1627 C1640 0.960 . S
C1628 H1620 0.929 . S
C1628 C1629 1.377 . S
C1628 C1630 1.384 . S
C1629 C1628 1.377 . S
C1629 C1635 1.390 . S
C1630 H1621 0.930 . S
C1630 C1628 1.384 . S
C1630 C1631 1.372 . S
C1631 C1630 1.372 . S
C1631 C1632 1.400 . S
C1631 C1636 1.490 . S
C1632 H1622 0.930 . S
C1632 C1631 1.400 . S
C1632 C1635 1.386 . S
H1633 C1649 0.930 . S
H1634 C1650 0.931 . S
C1635 H1623 0.929 . S
C1635 C1629 1.390 . S
C1635 C1632 1.386 . S
C1636 C1631 1.490 . S
C1636 C1638 1.395 . S
C1636 C1639 1.403 . S
H1637 C1643 0.930 . S
C1638 H1624 0.930 . S
C1638 C1636 1.395 . S
C1638 C1641 1.403 . S
C1639 C1636 1.403 . S
C1639 C1640 1.524 . S
C1639 C1643 1.400 . S
C1640 H1625 0.960 . S
C1640 H1626 0.960 . S
C1640 H1627 0.960 . S
C1640 C1639 1.524 . S
C1641 C1638 1.403 . S
C1641 C1642 1.392 . S
C1641 C1645 1.495 . S
C1642 C1641 1.392 . S
C1642 C1643 1.385 . S
C1642 C1644 1.478 . S
C1643 H1637 0.930 . S
C1643 C1639 1.400 . S
C1643 C1642 1.385 . S
C1644 C1642 1.478 . S
C1644 C1646 1.381 . S
C1644 C1650 1.383 . S
C1645 C1641 1.495 . S
C1645 H1651 0.959 . S
C1645 H1652 0.961 . S
C1645 H1653 0.960 . S
C1646 C1644 1.381 . S
C1646 C1647 1.394 . S
C1646 H1654 0.930 . S
C1647 C1646 1.394 . S
C1647 C1648 1.383 . S
C1647 H1655 0.929 . S
C1648 C1647 1.383 . S
C1648 C1649 1.377 . S
C1649 H1633 0.930 . S
C1649 C1648 1.377 . S
C1649 C1650 1.379 . S
C1650 H1634 0.931 . S
C1650 C1644 1.383 . S
C1650 C1649 1.379 . S
H1651 C1645 0.959 . S
H1652 C1645 0.961 . S
H1653 C1645 0.960 . S
H1654 C1646 0.930 . S
H1655 C1647 0.929 . S
H1656 C1664 0.929 . S
H1657 C1666 0.930 . S
H1658 C1668 0.930 . S
H1659 C1671 0.929 . S
H1660 C1674 0.930 . S
H1661 C1676 0.960 . S
H1662 C1676 0.960 . S
H1663 C1676 0.960 . S
C1664 H1656 0.929 . S
C1664 C1665 1.377 . S
C1664 C1666 1.384 . S
C1665 C1664 1.377 . S
C1665 C1671 1.390 . S
C1666 H1657 0.930 . S
C1666 C1664 1.384 . S
C1666 C1667 1.372 . S
C1667 C1666 1.372 . S
C1667 C1668 1.400 . S
C1667 C1672 1.490 . S
C1668 H1658 0.930 . S
C1668 C1667 1.400 . S
C1668 C1671 1.386 . S
H1669 C1685 0.930 . S
H1670 C1686 0.931 . S
C1671 H1659 0.929 . S
C1671 C1665 1.390 . S
C1671 C1668 1.386 . S
C1672 C1667 1.490 . S
C1672 C1674 1.395 . S
C1672 C1675 1.403 . S
H1673 C1679 0.930 . S
C1674 H1660 0.930 . S
C1674 C1672 1.395 . S
C1674 C1677 1.403 1_545 S
C1675 C1672 1.403 . S
C1675 C1676 1.524 . S
C1675 C1679 1.400 1_545 S
C1676 H1661 0.960 . S
C1676 H1662 0.960 . S
C1676 H1663 0.960 . S
C1676 C1675 1.524 . S
C1677 C1674 1.403 1_565 S
C1677 C1678 1.392 . S
C1677 C1681 1.495 . S
C1678 C1677 1.392 . S
C1678 C1679 1.385 . S
C1678 C1680 1.478 . S
C1679 H1673 0.930 . S
C1679 C1675 1.400 1_565 S
C1679 C1678 1.385 . S
C1680 C1678 1.478 . S
C1680 C1682 1.381 . S
C1680 C1686 1.383 . S
C1681 C1677 1.495 . S
C1681 H1687 0.959 . S
C1681 H1688 0.961 . S
C1681 H1689 0.960 . S
C1682 C1680 1.381 . S
C1682 C1683 1.394 . S
C1682 H1690 0.930 . S
C1683 C1682 1.394 . S
C1683 C1684 1.383 . S
C1683 H1691 0.929 . S
C1684 C1683 1.383 . S
C1684 C1685 1.377 . S
C1685 H1669 0.930 . S
C1685 C1684 1.377 . S
C1685 C1686 1.379 . S
C1686 H1670 0.931 . S
C1686 C1680 1.383 . S
C1686 C1685 1.379 . S
H1687 C1681 0.959 . S
H1688 C1681 0.961 . S
H1689 C1681 0.960 . S
H1690 C1682 0.930 . S
H1691 C1683 0.929 . S
H1692 C1700 0.929 . S
H1693 C1702 0.930 . S
H1694 C1704 0.930 . S
H1695 C1707 0.929 . S
H1696 C1710 0.930 . S
H1697 C1712 0.960 . S
H1698 C1712 0.960 . S
H1699 C1712 0.960 . S
C1700 H1692 0.929 . S
C1700 C1701 1.377 . S
C1700 C1702 1.384 . S
C1701 C1700 1.377 . S
C1701 C1707 1.390 . S
C1702 H1693 0.930 . S
C1702 C1700 1.384 . S
C1702 C1703 1.372 . S
C1703 C1702 1.372 . S
C1703 C1704 1.400 . S
C1703 C1708 1.490 . S
C1704 H1694 0.930 . S
C1704 C1703 1.400 . S
C1704 C1707 1.386 . S
H1705 C1721 0.930 . S
H1706 C1722 0.931 . S
C1707 H1695 0.929 . S
C1707 C1701 1.390 . S
C1707 C1704 1.386 . S
C1708 C1703 1.490 . S
C1708 C1710 1.395 1_565 S
C1708 C1711 1.403 . S
H1709 C1715 0.930 . S
C1710 H1696 0.930 . S
C1710 C1708 1.395 1_545 S
C1710 C1713 1.403 . S
C1711 C1708 1.403 . S
C1711 C1712 1.524 . S
C1711 C1715 1.400 . S
C1712 H1697 0.960 . S
C1712 H1698 0.960 . S
C1712 H1699 0.960 . S
C1712 C1711 1.524 . S
C1713 C1710 1.403 . S
C1713 C1714 1.392 . S
C1713 C1717 1.495 . S
C1714 C1713 1.392 . S
C1714 C1715 1.385 1_545 S
C1714 C1716 1.478 . S
C1715 H1709 0.930 . S
C1715 C1711 1.400 . S
C1715 C1714 1.385 1_565 S
C1716 C1714 1.478 . S
C1716 C1718 1.381 . S
C1716 C1722 1.383 . S
C1717 C1713 1.495 . S
C1717 H1723 0.959 . S
C1717 H1724 0.961 . S
C1717 H1725 0.960 . S
C1718 C1716 1.381 . S
C1718 C1719 1.394 . S
C1718 H1726 0.930 . S
C1719 C1718 1.394 . S
C1719 C1720 1.383 . S
C1719 H1727 0.929 . S
C1720 C1719 1.383 . S
C1720 C1721 1.377 . S
C1721 H1705 0.930 . S
C1721 C1720 1.377 . S
C1721 C1722 1.379 . S
C1722 H1706 0.931 . S
C1722 C1716 1.383 . S
C1722 C1721 1.379 . S
H1723 C1717 0.959 . S
H1724 C1717 0.961 . S
H1725 C1717 0.960 . S
H1726 C1718 0.930 . S
H1727 C1719 0.929 . S
H1728 C1736 0.929 . S
H1729 C1738 0.930 . S
H1730 C1740 1.016 . S
H1731 C1743 0.929 . S
H1732 C1746 0.930 . S
H1733 C1748 0.960 1_455 S
H1734 C1748 0.960 . S
H1735 C1748 0.949 1_455 S
C1736 H1728 0.929 . S
C1736 C1737 1.377 . S
C1736 C1738 1.384 . S
C1737 C1736 1.377 . S
C1737 C1743 1.390 . S
C1738 H1729 0.930 . S
C1738 C1736 1.384 . S
C1738 C1739 1.372 . S
C1739 C1738 1.372 . S
C1739 C1740 1.400 . S
C1739 C1744 1.490 . S
C1740 H1730 1.016 . S
C1740 C1739 1.400 . S
C1740 C1743 1.386 . S
H1741 C1757 0.930 . S
H1742 C1758 0.931 . S
C1743 H1731 0.929 . S
C1743 C1737 1.390 . S
C1743 C1740 1.386 . S
C1744 C1739 1.490 . S
C1744 C1746 1.395 . S
C1744 C1747 1.403 . S
H1745 C1751 0.930 . S
C1746 H1732 0.930 . S
C1746 C1744 1.395 . S
C1746 C1749 1.399 1_655 S
C1747 C1744 1.403 . S
C1747 C1748 1.524 . S
C1747 C1751 1.400 1_655 S
C1748 H1733 0.960 1_655 S
C1748 H1734 0.960 . S
C1748 H1735 0.949 1_655 S
C1748 C1747 1.524 . S
C1749 C1746 1.399 1_455 S
C1749 C1750 1.401 . S
C1749 C1753 1.491 . S
C1750 C1749 1.401 . S
C1750 C1751 1.385 . S
C1750 C1752 1.478 . S
C1751 H1745 0.930 . S
C1751 C1747 1.400 1_455 S
C1751 C1750 1.385 . S
C1752 C1750 1.478 . S
C1752 C1754 1.381 . S
C1752 C1758 1.383 . S
C1753 C1749 1.491 . S
C1753 H1759 0.959 1_455 S
C1753 H1760 0.961 . S
C1753 H1761 0.960 1_455 S
C1754 C1752 1.381 . S
C1754 C1755 1.394 . S
C1754 H1762 0.932 1_455 S
C1755 C1754 1.394 . S
C1755 C1756 1.383 . S
C1755 H1763 0.929 . S
C1756 C1755 1.383 . S
C1756 C1757 1.377 . S
C1757 H1741 0.930 . S
C1757 C1756 1.377 . S
C1757 C1758 1.379 . S
C1758 H1742 0.931 . S
C1758 C1752 1.383 . S
C1758 C1757 1.379 . S
H1759 C1753 0.959 1_655 S
H1760 C1753 0.961 . S
H1761 C1753 0.960 1_655 S
H1762 C1754 0.932 1_655 S
H1763 C1755 0.929 . S
H1764 C1772 0.929 . S
H1765 C1774 0.930 . S
H1766 C1776 0.930 . S
H1767 C1779 0.929 . S
H1768 C1782 0.930 . S
H1769 C1784 0.960 . S
H1770 C1784 0.960 . S
H1771 C1784 0.960 . S
C1772 H1764 0.929 . S
C1772 C1773 1.377 . S
C1772 C1774 1.384 . S
C1773 C1772 1.377 . S
C1773 C1779 1.390 . S
C1774 H1765 0.930 . S
C1774 C1772 1.384 . S
C1774 C1775 1.372 . S
C1775 C1774 1.372 . S
C1775 C1776 1.400 . S
C1775 C1780 1.490 . S
C1776 H1766 0.930 . S
C1776 C1775 1.400 . S
C1776 C1779 1.386 . S
H1777 C1793 0.930 . S
H1778 C1794 0.931 . S
C1779 H1767 0.929 . S
C1779 C1773 1.390 . S
C1779 C1776 1.386 . S
C1780 C1775 1.490 . S
C1780 C1782 1.395 . S
C1780 C1783 1.403 . S
H1781 C1787 0.930 . S
C1782 H1768 0.930 . S
C1782 C1780 1.395 . S
C1782 C1785 1.403 . S
C1783 C1780 1.403 . S
C1783 C1784 1.524 . S
C1783 C1787 1.400 . S
C1784 H1769 0.960 . S
C1784 H1770 0.960 . S
C1784 H1771 0.960 . S
C1784 C1783 1.524 . S
C1785 C1782 1.403 . S
C1785 C1786 1.392 . S
C1785 C1789 1.495 . S
C1786 C1785 1.392 . S
C1786 C1787 1.385 . S
C1786 C1788 1.478 . S
C1787 H1781 0.930 . S
C1787 C1783 1.400 . S
C1787 C1786 1.385 . S
C1788 C1786 1.478 . S
C1788 C1790 1.381 . S
C1788 C1794 1.383 . S
C1789 C1785 1.495 . S
C1789 H1795 0.959 . S
C1789 H1796 0.961 . S
C1789 H1797 0.960 . S
C1790 C1788 1.381 . S
C1790 C1791 1.394 . S
C1790 H1798 0.930 . S
C1791 C1790 1.394 . S
C1791 C1792 1.383 . S
C1791 H1799 0.929 . S
C1792 C1791 1.383 . S
C1792 C1793 1.377 . S
C1793 H1777 0.930 . S
C1793 C1792 1.377 . S
C1793 C1794 1.379 . S
C1794 H1778 0.931 . S
C1794 C1788 1.383 . S
C1794 C1793 1.379 . S
H1795 C1789 0.959 . S
H1796 C1789 0.961 . S
H1797 C1789 0.960 . S
H1798 C1790 0.930 . S
H1799 C1791 0.929 . S
H1800 C1808 0.929 . S
H1801 C1810 0.930 . S
H1802 C1812 0.930 . S
H1803 C1815 0.929 . S
H1804 C1818 0.930 . S
H1805 C1820 0.960 . S
H1806 C1820 0.960 . S
H1807 C1820 0.960 . S
C1808 H1800 0.929 . S
C1808 C1809 1.377 . S
C1808 C1810 1.384 . S
C1809 C1808 1.377 . S
C1809 C1815 1.390 . S
C1810 H1801 0.930 . S
C1810 C1808 1.384 . S
C1810 C1811 1.372 . S
C1811 C1810 1.372 . S
C1811 C1812 1.400 . S
C1811 C1816 1.490 . S
C1812 H1802 0.930 . S
C1812 C1811 1.400 . S
C1812 C1815 1.386 . S
H1813 C1829 0.930 . S
H1814 C1830 0.931 . S
C1815 H1803 0.929 . S
C1815 C1809 1.390 . S
C1815 C1812 1.386 . S
C1816 C1811 1.490 . S
C1816 C1818 1.395 . S
C1816 C1819 1.403 . S
H1817 C1823 0.930 . S
C1818 H1804 0.930 . S
C1818 C1816 1.395 . S
C1818 C1821 1.403 . S
C1819 C1816 1.403 . S
C1819 C1820 1.524 . S
C1819 C1823 1.400 . S
C1820 H1805 0.960 . S
C1820 H1806 0.960 . S
C1820 H1807 0.960 . S
C1820 C1819 1.524 . S
C1821 C1818 1.403 . S
C1821 C1822 1.392 . S
C1821 C1825 1.495 . S
C1822 C1821 1.392 . S
C1822 C1823 1.385 . S
C1822 C1824 1.478 . S
C1823 H1817 0.930 . S
C1823 C1819 1.400 . S
C1823 C1822 1.385 . S
C1824 C1822 1.478 . S
C1824 C1826 1.381 . S
C1824 C1830 1.383 . S
C1825 C1821 1.495 . S
C1825 H1831 0.959 . S
C1825 H1832 0.961 . S
C1825 H1833 0.960 . S
C1826 C1824 1.381 . S
C1826 C1827 1.394 . S
C1826 H1834 0.930 . S
C1827 C1826 1.394 . S
C1827 C1828 1.383 . S
C1827 H1835 0.929 . S
C1828 C1827 1.383 . S
C1828 C1829 1.377 . S
C1829 H1813 0.930 . S
C1829 C1828 1.377 . S
C1829 C1830 1.379 . S
C1830 H1814 0.931 . S
C1830 C1824 1.383 . S
C1830 C1829 1.379 . S
H1831 C1825 0.959 . S
H1832 C1825 0.961 . S
H1833 C1825 0.960 . S
H1834 C1826 0.930 . S
H1835 C1827 0.929 . S
H1836 C1844 0.929 . S
H1837 C1846 0.930 . S
H1838 C1848 0.930 . S
H1839 C1851 0.929 . S
H1840 C1854 0.930 . S
H1841 C1856 0.960 . S
H1842 C1856 0.960 . S
H1843 C1856 0.960 . S
C1844 H1836 0.929 . S
C1844 C1845 1.377 . S
C1844 C1846 1.384 . S
C1845 C1844 1.377 . S
C1845 C1851 1.390 . S
C1846 H1837 0.930 . S
C1846 C1844 1.384 . S
C1846 C1847 1.372 . S
C1847 C1846 1.372 . S
C1847 C1848 1.400 . S
C1847 C1852 1.490 . S
C1848 H1838 0.930 . S
C1848 C1847 1.400 . S
C1848 C1851 1.386 . S
H1849 C1865 0.930 . S
H1850 C1866 0.931 . S
C1851 H1839 0.929 . S
C1851 C1845 1.390 . S
C1851 C1848 1.386 . S
C1852 C1847 1.490 . S
C1852 C1854 1.395 . S
C1852 C1855 1.403 . S
H1853 C1859 0.930 . S
C1854 H1840 0.930 . S
C1854 C1852 1.395 . S
C1854 C1857 1.403 . S
C1855 C1852 1.403 . S
C1855 C1856 1.524 . S
C1855 C1859 1.400 . S
C1856 H1841 0.960 . S
C1856 H1842 0.960 . S
C1856 H1843 0.960 . S
C1856 C1855 1.524 . S
C1857 C1854 1.403 . S
C1857 C1858 1.392 . S
C1857 C1861 1.495 . S
C1858 C1857 1.392 . S
C1858 C1859 1.385 . S
C1858 C1860 1.478 . S
C1859 H1853 0.930 . S
C1859 C1855 1.400 . S
C1859 C1858 1.385 . S
C1860 C1858 1.478 . S
C1860 C1862 1.381 . S
C1860 C1866 1.383 . S
C1861 C1857 1.495 . S
C1861 H1867 0.959 . S
C1861 H1868 0.961 . S
C1861 H1869 0.960 . S
C1862 C1860 1.381 . S
C1862 C1863 1.394 . S
C1862 H1870 0.930 . S
C1863 C1862 1.394 . S
C1863 C1864 1.383 . S
C1863 H1871 0.929 . S
C1864 C1863 1.383 . S
C1864 C1865 1.377 . S
C1865 H1849 0.930 . S
C1865 C1864 1.377 . S
C1865 C1866 1.379 . S
C1866 H1850 0.931 . S
C1866 C1860 1.383 . S
C1866 C1865 1.379 . S
H1867 C1861 0.959 . S
H1868 C1861 0.961 . S
H1869 C1861 0.960 . S
H1870 C1862 0.930 . S
H1871 C1863 0.929 . S
H1872 C1880 0.929 . S
H1873 C1882 0.930 . S
H1874 C1884 0.930 . S
H1875 C1887 0.929 . S
H1876 C1890 0.930 . S
H1877 C1892 0.960 . S
H1878 C1892 0.960 . S
H1879 C1892 0.960 . S
C1880 H1872 0.929 . S
C1880 C1881 1.377 . S
C1880 C1882 1.384 . S
C1881 C1880 1.377 . S
C1881 C1887 1.390 . S
C1882 H1873 0.930 . S
C1882 C1880 1.384 . S
C1882 C1883 1.372 . S
C1883 C1882 1.372 . S
C1883 C1884 1.400 . S
C1883 C1888 1.490 . S
C1884 H1874 0.930 . S
C1884 C1883 1.400 . S
C1884 C1887 1.386 . S
H1885 C1901 0.930 . S
H1886 C1902 0.931 . S
C1887 H1875 0.929 . S
C1887 C1881 1.390 . S
C1887 C1884 1.386 . S
C1888 C1883 1.490 . S
C1888 C1890 1.395 . S
C1888 C1891 1.403 . S
H1889 C1895 0.930 . S
C1890 H1876 0.930 . S
C1890 C1888 1.395 . S
C1890 C1893 1.403 . S
C1891 C1888 1.403 . S
C1891 C1892 1.524 . S
C1891 C1895 1.400 . S
C1892 H1877 0.960 . S
C1892 H1878 0.960 . S
C1892 H1879 0.960 . S
C1892 C1891 1.524 . S
C1893 C1890 1.403 . S
C1893 C1894 1.392 . S
C1893 C1897 1.495 . S
C1894 C1893 1.392 . S
C1894 C1895 1.385 . S
C1894 C1896 1.478 . S
C1895 H1889 0.930 . S
C1895 C1891 1.400 . S
C1895 C1894 1.385 . S
C1896 C1894 1.478 . S
C1896 C1898 1.381 . S
C1896 C1902 1.383 . S
C1897 C1893 1.495 . S
C1897 H1903 0.959 . S
C1897 H1904 0.961 . S
C1897 H1905 0.960 . S
C1898 C1896 1.381 . S
C1898 C1899 1.394 . S
C1898 H1906 0.930 . S
C1899 C1898 1.394 . S
C1899 C1900 1.383 . S
C1899 H1907 0.929 . S
C1900 C1899 1.383 . S
C1900 C1901 1.377 . S
C1901 H1885 0.930 . S
C1901 C1900 1.377 . S
C1901 C1902 1.379 . S
C1902 H1886 0.931 . S
C1902 C1896 1.383 . S
C1902 C1901 1.379 . S
H1903 C1897 0.959 . S
H1904 C1897 0.961 . S
H1905 C1897 0.960 . S
H1906 C1898 0.930 . S
H1907 C1899 0.929 . S
H1908 C1916 0.929 . S
H1909 C1918 0.930 . S
H1910 C1920 0.930 . S
H1911 C1923 0.929 . S
H1912 C1926 0.930 . S
H1913 C1928 0.960 . S
H1914 C1928 0.960 . S
H1915 C1928 0.960 . S
C1916 H1908 0.929 . S
C1916 C1917 1.377 . S
C1916 C1918 1.384 . S
C1917 C1916 1.377 . S
C1917 C1923 1.390 . S
C1918 H1909 0.930 . S
C1918 C1916 1.384 . S
C1918 C1919 1.372 . S
C1919 C1918 1.372 . S
C1919 C1920 1.400 . S
C1919 C1924 1.490 . S
C1920 H1910 0.930 . S
C1920 C1919 1.400 . S
C1920 C1923 1.386 . S
H1921 C1937 0.930 . S
H1922 C1938 0.931 . S
C1923 H1911 0.929 . S
C1923 C1917 1.390 . S
C1923 C1920 1.386 . S
C1924 C1919 1.490 . S
C1924 C1926 1.395 . S
C1924 C1927 1.403 . S
H1925 C1931 0.930 . S
C1926 H1912 0.930 . S
C1926 C1924 1.395 . S
C1926 C1929 1.403 . S
C1927 C1924 1.403 . S
C1927 C1928 1.524 . S
C1927 C1931 1.400 . S
C1928 H1913 0.960 . S
C1928 H1914 0.960 . S
C1928 H1915 0.960 . S
C1928 C1927 1.524 . S
C1929 C1926 1.403 . S
C1929 C1930 1.392 . S
C1929 C1933 1.495 . S
C1930 C1929 1.392 . S
C1930 C1931 1.385 . S
C1930 C1932 1.478 . S
C1931 H1925 0.930 . S
C1931 C1927 1.400 . S
C1931 C1930 1.385 . S
C1932 C1930 1.478 . S
C1932 C1934 1.381 . S
C1932 C1938 1.383 . S
C1933 C1929 1.495 . S
C1933 H1939 0.959 . S
C1933 H1940 0.961 . S
C1933 H1941 0.960 . S
C1934 C1932 1.381 . S
C1934 C1935 1.394 . S
C1934 H1942 0.930 . S
C1935 C1934 1.394 . S
C1935 C1936 1.383 . S
C1935 H1943 0.929 . S
C1936 C1935 1.383 . S
C1936 C1937 1.377 . S
C1937 H1921 0.930 . S
C1937 C1936 1.377 . S
C1937 C1938 1.379 . S
C1938 H1922 0.931 . S
C1938 C1932 1.383 . S
C1938 C1937 1.379 . S
H1939 C1933 0.959 . S
H1940 C1933 0.961 . S
H1941 C1933 0.960 . S
H1942 C1934 0.930 . S
H1943 C1935 0.929 . S
H1944 C1952 0.929 . S
H1945 C1954 0.930 . S
H1946 C1956 0.930 . S
H1947 C1959 0.929 . S
H1948 C1962 0.930 . S
H1949 C1964 0.960 . S
H1950 C1964 0.960 . S
H1951 C1964 0.960 . S
C1952 H1944 0.929 . S
C1952 C1953 1.377 . S
C1952 C1954 1.384 . S
C1953 C1952 1.377 . S
C1953 C1959 1.390 . S
C1954 H1945 0.930 . S
C1954 C1952 1.384 . S
C1954 C1955 1.372 . S
C1955 C1954 1.372 . S
C1955 C1956 1.400 . S
C1955 C1960 1.490 . S
C1956 H1946 0.930 . S
C1956 C1955 1.400 . S
C1956 C1959 1.386 . S
H1957 C1973 0.930 . S
H1958 C1974 0.931 . S
C1959 H1947 0.929 . S
C1959 C1953 1.390 . S
C1959 C1956 1.386 . S
C1960 C1955 1.490 . S
C1960 C1962 1.395 . S
C1960 C1963 1.403 . S
H1961 C1967 0.930 . S
C1962 H1948 0.930 . S
C1962 C1960 1.395 . S
C1962 C1965 1.403 . S
C1963 C1960 1.403 . S
C1963 C1964 1.524 . S
C1963 C1967 1.400 . S
C1964 H1949 0.960 . S
C1964 H1950 0.960 . S
C1964 H1951 0.960 . S
C1964 C1963 1.524 . S
C1965 C1962 1.403 . S
C1965 C1966 1.392 . S
C1965 C1969 1.495 . S
C1966 C1965 1.392 . S
C1966 C1967 1.385 . S
C1966 C1968 1.478 . S
C1967 H1961 0.930 . S
C1967 C1963 1.400 . S
C1967 C1966 1.385 . S
C1968 C1966 1.478 . S
C1968 C1970 1.381 . S
C1968 C1974 1.383 . S
C1969 C1965 1.495 . S
C1969 H1975 0.959 . S
C1969 H1976 0.961 . S
C1969 H1977 0.960 . S
C1970 C1968 1.381 . S
C1970 C1971 1.394 . S
C1970 H1978 0.930 . S
C1971 C1970 1.394 . S
C1971 C1972 1.383 . S
C1971 H1979 0.929 . S
C1972 C1971 1.383 . S
C1972 C1973 1.377 . S
C1973 H1957 0.930 . S
C1973 C1972 1.377 . S
C1973 C1974 1.379 . S
C1974 H1958 0.931 . S
C1974 C1968 1.383 . S
C1974 C1973 1.379 . S
H1975 C1969 0.959 . S
H1976 C1969 0.961 . S
H1977 C1969 0.960 . S
H1978 C1970 0.930 . S
H1979 C1971 0.929 . S
H1980 C1988 0.929 . S
H1981 C1990 0.930 . S
H1982 C1992 0.930 . S
H1983 C1995 0.929 . S
H1984 C1998 0.930 . S
H1985 C2000 0.960 . S
H1986 C2000 0.960 . S
H1987 C2000 0.960 . S
C1988 H1980 0.929 . S
C1988 C1989 1.377 . S
C1988 C1990 1.384 . S
C1989 C1988 1.377 . S
C1989 C1995 1.390 . S
C1990 H1981 0.930 . S
C1990 C1988 1.384 . S
C1990 C1991 1.372 . S
C1991 C1990 1.372 . S
C1991 C1992 1.400 . S
C1991 C1996 1.490 . S
C1992 H1982 0.930 . S
C1992 C1991 1.400 . S
C1992 C1995 1.386 . S
H1993 C2009 0.930 . S
H1994 C2010 0.931 . S
C1995 H1983 0.929 . S
C1995 C1989 1.390 . S
C1995 C1992 1.386 . S
C1996 C1991 1.490 . S
C1996 C1998 1.395 . S
C1996 C1999 1.403 . S
H1997 C2003 0.930 . S
C1998 H1984 0.930 . S
C1998 C1996 1.395 . S
C1998 C2001 1.403 . S
C1999 C1996 1.403 . S
C1999 C2000 1.524 . S
C1999 C2003 1.400 . S
C2000 H1985 0.960 . S
C2000 H1986 0.960 . S
C2000 H1987 0.960 . S
C2000 C1999 1.524 . S
C2001 C1998 1.403 . S
C2001 C2002 1.392 . S
C2001 C2005 1.495 . S
C2002 C2001 1.392 . S
C2002 C2003 1.385 . S
C2002 C2004 1.478 . S
C2003 H1997 0.930 . S
C2003 C1999 1.400 . S
C2003 C2002 1.385 . S
C2004 C2002 1.478 . S
C2004 C2006 1.381 . S
C2004 C2010 1.383 . S
C2005 C2001 1.495 . S
C2005 H2011 0.959 . S
C2005 H2012 0.961 . S
C2005 H2013 0.960 . S
C2006 C2004 1.381 . S
C2006 C2007 1.394 . S
C2006 H2014 0.930 . S
C2007 C2006 1.394 . S
C2007 C2008 1.383 . S
C2007 H2015 0.929 . S
C2008 C2007 1.383 . S
C2008 C2009 1.377 . S
C2009 H1993 0.930 . S
C2009 C2008 1.377 . S
C2009 C2010 1.379 . S
C2010 H1994 0.931 . S
C2010 C2004 1.383 . S
C2010 C2009 1.379 . S
H2011 C2005 0.959 . S
H2012 C2005 0.961 . S
H2013 C2005 0.960 . S
H2014 C2006 0.930 . S
H2015 C2007 0.929 . S
H2016 C2024 0.929 . S
H2017 C2026 0.930 . S
H2018 C2028 0.930 . S
H2019 C2031 0.929 . S
H2020 C2034 0.930 . S
H2021 C2036 0.960 . S
H2022 C2036 0.960 . S
H2023 C2036 0.960 . S
C2024 H2016 0.929 . S
C2024 C2025 1.377 . S
C2024 C2026 1.384 . S
C2025 C2024 1.377 . S
C2025 C2031 1.390 . S
C2026 H2017 0.930 . S
C2026 C2024 1.384 . S
C2026 C2027 1.372 . S
C2027 C2026 1.372 . S
C2027 C2028 1.400 . S
C2027 C2032 1.490 . S
C2028 H2018 0.930 . S
C2028 C2027 1.400 . S
C2028 C2031 1.386 . S
H2029 C2045 0.930 . S
H2030 C2046 0.931 . S
C2031 H2019 0.929 . S
C2031 C2025 1.390 . S
C2031 C2028 1.386 . S
C2032 C2027 1.490 . S
C2032 C2034 1.395 . S
C2032 C2035 1.403 . S
H2033 C2039 0.930 . S
C2034 H2020 0.930 . S
C2034 C2032 1.395 . S
C2034 C2037 1.403 . S
C2035 C2032 1.403 . S
C2035 C2036 1.524 . S
C2035 C2039 1.400 . S
C2036 H2021 0.960 . S
C2036 H2022 0.960 . S
C2036 H2023 0.960 . S
C2036 C2035 1.524 . S
C2037 C2034 1.403 . S
C2037 C2038 1.392 . S
C2037 C2041 1.495 . S
C2038 C2037 1.392 . S
C2038 C2039 1.385 . S
C2038 C2040 1.478 . S
C2039 H2033 0.930 . S
C2039 C2035 1.400 . S
C2039 C2038 1.385 . S
C2040 C2038 1.478 . S
C2040 C2042 1.381 . S
C2040 C2046 1.383 . S
C2041 C2037 1.495 . S
C2041 H2047 0.959 . S
C2041 H2048 0.961 . S
C2041 H2049 0.960 . S
C2042 C2040 1.381 . S
C2042 C2043 1.394 . S
C2042 H2050 0.930 . S
C2043 C2042 1.394 . S
C2043 C2044 1.383 . S
C2043 H2051 0.929 . S
C2044 C2043 1.383 . S
C2044 C2045 1.377 . S
C2045 H2029 0.930 . S
C2045 C2044 1.377 . S
C2045 C2046 1.379 . S
C2046 H2030 0.931 . S
C2046 C2040 1.383 . S
C2046 C2045 1.379 . S
H2047 C2041 0.959 . S
H2048 C2041 0.961 . S
H2049 C2041 0.960 . S
H2050 C2042 0.930 . S
H2051 C2043 0.929 . S
H2052 C2060 0.929 . S
H2053 C2062 0.930 . S
H2054 C2064 0.930 . S
H2055 C2067 0.929 . S
H2056 C2070 0.930 . S
H2057 C2072 0.960 . S
H2058 C2072 0.960 . S
H2059 C2072 0.960 . S
C2060 H2052 0.929 . S
C2060 C2061 1.377 . S
C2060 C2062 1.384 . S
C2061 C2060 1.377 . S
C2061 C2067 1.390 . S
C2062 H2053 0.930 . S
C2062 C2060 1.384 . S
C2062 C2063 1.372 . S
C2063 C2062 1.372 . S
C2063 C2064 1.400 . S
C2063 C2068 1.490 . S
C2064 H2054 0.930 . S
C2064 C2063 1.400 . S
C2064 C2067 1.386 . S
H2065 C2081 0.930 . S
H2066 C2082 0.931 . S
C2067 H2055 0.929 . S
C2067 C2061 1.390 . S
C2067 C2064 1.386 . S
C2068 C2063 1.490 . S
C2068 C2070 1.395 . S
C2068 C2071 1.403 . S
H2069 C2075 0.930 . S
C2070 H2056 0.930 . S
C2070 C2068 1.395 . S
C2070 C2073 1.403 . S
C2071 C2068 1.403 . S
C2071 C2072 1.524 . S
C2071 C2075 1.400 . S
C2072 H2057 0.960 . S
C2072 H2058 0.960 . S
C2072 H2059 0.960 . S
C2072 C2071 1.524 . S
C2073 C2070 1.403 . S
C2073 C2074 1.392 . S
C2073 C2077 1.495 . S
C2074 C2073 1.392 . S
C2074 C2075 1.385 . S
C2074 C2076 1.478 . S
C2075 H2069 0.930 . S
C2075 C2071 1.400 . S
C2075 C2074 1.385 . S
C2076 C2074 1.478 . S
C2076 C2078 1.381 . S
C2076 C2082 1.383 . S
C2077 C2073 1.495 . S
C2077 H2083 0.959 . S
C2077 H2084 0.961 . S
C2077 H2085 0.960 . S
C2078 C2076 1.381 . S
C2078 C2079 1.394 . S
C2078 H2086 0.930 . S
C2079 C2078 1.394 . S
C2079 C2080 1.383 . S
C2079 H2087 0.929 . S
C2080 C2079 1.383 . S
C2080 C2081 1.377 . S
C2081 H2065 0.930 . S
C2081 C2080 1.377 . S
C2081 C2082 1.379 . S
C2082 H2066 0.931 . S
C2082 C2076 1.383 . S
C2082 C2081 1.379 . S
H2083 C2077 0.959 . S
H2084 C2077 0.961 . S
H2085 C2077 0.960 . S
H2086 C2078 0.930 . S
H2087 C2079 0.929 . S
H2088 C2096 0.929 . S
H2089 C2098 0.930 . S
H2090 C2100 0.930 . S
H2091 C2103 0.929 . S
H2092 C2106 0.930 . S
H2093 C2108 0.960 . S
H2094 C2108 0.960 . S
H2095 C2108 0.960 . S
C2096 H2088 0.929 . S
C2096 C2097 1.377 . S
C2096 C2098 1.384 . S
C2097 C2096 1.377 . S
C2097 C2103 1.390 . S
C2098 H2089 0.930 . S
C2098 C2096 1.384 . S
C2098 C2099 1.372 . S
C2099 C2098 1.372 . S
C2099 C2100 1.400 . S
C2099 C2104 1.490 . S
C2100 H2090 0.930 . S
C2100 C2099 1.400 . S
C2100 C2103 1.386 . S
H2101 C2117 0.930 . S
H2102 C2118 0.931 . S
C2103 H2091 0.929 . S
C2103 C2097 1.390 . S
C2103 C2100 1.386 . S
C2104 C2099 1.490 . S
C2104 C2106 1.395 . S
C2104 C2107 1.403 . S
H2105 C2111 0.930 . S
C2106 H2092 0.930 . S
C2106 C2104 1.395 . S
C2106 C2109 1.403 . S
C2107 C2104 1.403 . S
C2107 C2108 1.524 . S
C2107 C2111 1.400 . S
C2108 H2093 0.960 . S
C2108 H2094 0.960 . S
C2108 H2095 0.960 . S
C2108 C2107 1.524 . S
C2109 C2106 1.403 . S
C2109 C2110 1.392 . S
C2109 C2113 1.495 . S
C2110 C2109 1.392 . S
C2110 C2111 1.385 . S
C2110 C2112 1.478 . S
C2111 H2105 0.930 . S
C2111 C2107 1.400 . S
C2111 C2110 1.385 . S
C2112 C2110 1.478 . S
C2112 C2114 1.381 . S
C2112 C2118 1.383 . S
C2113 C2109 1.495 . S
C2113 H2119 0.959 . S
C2113 H2120 0.961 . S
C2113 H2121 0.960 . S
C2114 C2112 1.381 . S
C2114 C2115 1.394 . S
C2114 H2122 0.930 . S
C2115 C2114 1.394 . S
C2115 C2116 1.383 . S
C2115 H2123 0.929 . S
C2116 C2115 1.383 . S
C2116 C2117 1.377 . S
C2117 H2101 0.930 . S
C2117 C2116 1.377 . S
C2117 C2118 1.379 . S
C2118 H2102 0.931 . S
C2118 C2112 1.383 . S
C2118 C2117 1.379 . S
H2119 C2113 0.959 . S
H2120 C2113 0.961 . S
H2121 C2113 0.960 . S
H2122 C2114 0.930 . S
H2123 C2115 0.929 . S
H2124 C2132 0.929 . S
H2125 C2134 0.930 . S
H2126 C2136 0.930 . S
H2127 C2139 0.929 . S
H2128 C2142 0.930 . S
H2129 C2144 0.960 . S
H2130 C2144 0.960 . S
H2131 C2144 0.960 . S
C2132 H2124 0.929 . S
C2132 C2133 1.377 . S
C2132 C2134 1.384 . S
C2133 C2132 1.377 . S
C2133 C2139 1.390 . S
C2134 H2125 0.930 . S
C2134 C2132 1.384 . S
C2134 C2135 1.372 . S
C2135 C2134 1.372 . S
C2135 C2136 1.400 . S
C2135 C2140 1.490 . S
C2136 H2126 0.930 . S
C2136 C2135 1.400 . S
C2136 C2139 1.386 . S
H2137 C2153 0.930 . S
H2138 C2154 0.931 . S
C2139 H2127 0.929 . S
C2139 C2133 1.390 . S
C2139 C2136 1.386 . S
C2140 C2135 1.490 . S
C2140 C2142 1.395 . S
C2140 C2143 1.403 . S
H2141 C2147 0.930 . S
C2142 H2128 0.930 . S
C2142 C2140 1.395 . S
C2142 C2145 1.403 . S
C2143 C2140 1.403 . S
C2143 C2144 1.524 . S
C2143 C2147 1.400 . S
C2144 H2129 0.960 . S
C2144 H2130 0.960 . S
C2144 H2131 0.960 . S
C2144 C2143 1.524 . S
C2145 C2142 1.403 . S
C2145 C2146 1.392 . S
C2145 C2149 1.495 . S
C2146 C2145 1.392 . S
C2146 C2147 1.385 . S
C2146 C2148 1.478 . S
C2147 H2141 0.930 . S
C2147 C2143 1.400 . S
C2147 C2146 1.385 . S
C2148 C2146 1.478 . S
C2148 C2150 1.381 . S
C2148 C2154 1.383 . S
C2149 C2145 1.495 . S
C2149 H2155 0.959 . S
C2149 H2156 0.961 . S
C2149 H2157 0.960 . S
C2150 C2148 1.381 . S
C2150 C2151 1.394 . S
C2150 H2158 0.930 . S
C2151 C2150 1.394 . S
C2151 C2152 1.383 . S
C2151 H2159 0.929 . S
C2152 C2151 1.383 . S
C2152 C2153 1.377 . S
C2153 H2137 0.930 . S
C2153 C2152 1.377 . S
C2153 C2154 1.379 . S
C2154 H2138 0.931 . S
C2154 C2148 1.383 . S
C2154 C2153 1.379 . S
H2155 C2149 0.959 . S
H2156 C2149 0.961 . S
H2157 C2149 0.960 . S
H2158 C2150 0.930 . S
H2159 C2151 0.929 . S
H2160 C2168 0.929 . S
H2161 C2170 0.930 . S
H2162 C2172 0.930 . S
H2163 C2175 0.929 . S
H2164 C2178 0.930 . S
H2165 C2180 0.960 . S
H2166 C2180 0.960 . S
H2167 C2180 0.960 . S
C2168 H2160 0.929 . S
C2168 C2169 1.377 . S
C2168 C2170 1.384 . S
C2169 C2168 1.377 . S
C2169 C2175 1.390 . S
C2170 H2161 0.930 . S
C2170 C2168 1.384 . S
C2170 C2171 1.372 . S
C2171 C2170 1.372 . S
C2171 C2172 1.400 . S
C2171 C2176 1.490 . S
C2172 H2162 0.930 . S
C2172 C2171 1.400 . S
C2172 C2175 1.386 . S
H2173 C2189 0.930 . S
H2174 C2190 0.931 . S
C2175 H2163 0.929 . S
C2175 C2169 1.390 . S
C2175 C2172 1.386 . S
C2176 C2171 1.490 . S
C2176 C2178 1.395 . S
C2176 C2179 1.403 . S
H2177 C2183 0.930 . S
C2178 H2164 0.930 . S
C2178 C2176 1.395 . S
C2178 C2181 1.403 . S
C2179 C2176 1.403 . S
C2179 C2180 1.524 . S
C2179 C2183 1.400 . S
C2180 H2165 0.960 . S
C2180 H2166 0.960 . S
C2180 H2167 0.960 . S
C2180 C2179 1.524 . S
C2181 C2178 1.403 . S
C2181 C2182 1.392 . S
C2181 C2185 1.495 . S
C2182 C2181 1.392 . S
C2182 C2183 1.385 . S
C2182 C2184 1.478 . S
C2183 H2177 0.930 . S
C2183 C2179 1.400 . S
C2183 C2182 1.385 . S
C2184 C2182 1.478 . S
C2184 C2186 1.381 . S
C2184 C2190 1.383 . S
C2185 C2181 1.495 . S
C2185 H2191 0.959 . S
C2185 H2192 0.961 . S
C2185 H2193 0.960 . S
C2186 C2184 1.381 . S
C2186 C2187 1.394 . S
C2186 H2194 0.930 . S
C2187 C2186 1.394 . S
C2187 C2188 1.383 . S
C2187 H2195 0.929 . S
C2188 C2187 1.383 . S
C2188 C2189 1.377 . S
C2189 H2173 0.930 . S
C2189 C2188 1.377 . S
C2189 C2190 1.379 . S
C2190 H2174 0.931 . S
C2190 C2184 1.383 . S
C2190 C2189 1.379 . S
H2191 C2185 0.959 . S
H2192 C2185 0.961 . S
H2193 C2185 0.960 . S
H2194 C2186 0.930 . S
H2195 C2187 0.929 . S
H2196 C2204 0.929 . S
H2197 C2206 0.930 . S
H2198 C2208 0.930 . S
H2199 C2211 0.929 . S
H2200 C2214 0.930 . S
H2201 C2216 0.960 . S
H2202 C2216 0.960 . S
H2203 C2216 0.960 . S
C2204 H2196 0.929 . S
C2204 C2205 1.377 . S
C2204 C2206 1.384 . S
C2205 C2204 1.377 . S
C2205 C2211 1.390 . S
C2206 H2197 0.930 . S
C2206 C2204 1.384 . S
C2206 C2207 1.372 . S
C2207 C2206 1.372 . S
C2207 C2208 1.400 . S
C2207 C2212 1.490 . S
C2208 H2198 0.930 . S
C2208 C2207 1.400 . S
C2208 C2211 1.386 . S
H2209 C2225 0.930 . S
H2210 C2226 0.931 . S
C2211 H2199 0.929 . S
C2211 C2205 1.390 . S
C2211 C2208 1.386 . S
C2212 C2207 1.490 . S
C2212 C2214 1.395 . S
C2212 C2215 1.403 . S
H2213 C2219 0.930 . S
C2214 H2200 0.930 . S
C2214 C2212 1.395 . S
C2214 C2217 1.403 . S
C2215 C2212 1.403 . S
C2215 C2216 1.524 . S
C2215 C2219 1.400 . S
C2216 H2201 0.960 . S
C2216 H2202 0.960 . S
C2216 H2203 0.960 . S
C2216 C2215 1.524 . S
C2217 C2214 1.403 . S
C2217 C2218 1.392 . S
C2217 C2221 1.495 . S
C2218 C2217 1.392 . S
C2218 C2219 1.385 . S
C2218 C2220 1.478 . S
C2219 H2213 0.930 . S
C2219 C2215 1.400 . S
C2219 C2218 1.385 . S
C2220 C2218 1.478 . S
C2220 C2222 1.381 . S
C2220 C2226 1.383 . S
C2221 C2217 1.495 . S
C2221 H2227 0.959 . S
C2221 H2228 0.961 . S
C2221 H2229 0.960 . S
C2222 C2220 1.381 . S
C2222 C2223 1.394 . S
C2222 H2230 0.930 . S
C2223 C2222 1.394 . S
C2223 C2224 1.383 . S
C2223 H2231 0.929 . S
C2224 C2223 1.383 . S
C2224 C2225 1.377 . S
C2225 H2209 0.930 . S
C2225 C2224 1.377 . S
C2225 C2226 1.379 . S
C2226 H2210 0.931 . S
C2226 C2220 1.383 . S
C2226 C2225 1.379 . S
H2227 C2221 0.959 . S
H2228 C2221 0.961 . S
H2229 C2221 0.960 . S
H2230 C2222 0.930 . S
H2231 C2223 0.929 . S
H2232 C2240 0.929 . S
H2233 C2242 0.930 . S
H2234 C2244 0.930 . S
H2235 C2247 0.929 . S
H2236 C2250 0.930 . S
H2237 C2252 0.960 . S
H2238 C2252 0.960 . S
H2239 C2252 0.960 . S
C2240 H2232 0.929 . S
C2240 C2241 1.377 . S
C2240 C2242 1.384 . S
C2241 C2240 1.377 . S
C2241 C2247 1.390 . S
C2242 H2233 0.930 . S
C2242 C2240 1.384 . S
C2242 C2243 1.372 . S
C2243 C2242 1.372 . S
C2243 C2244 1.400 . S
C2243 C2248 1.490 . S
C2244 H2234 0.930 . S
C2244 C2243 1.400 . S
C2244 C2247 1.386 . S
H2245 C2261 0.930 . S
H2246 C2262 0.931 . S
C2247 H2235 0.929 . S
C2247 C2241 1.390 . S
C2247 C2244 1.386 . S
C2248 C2243 1.490 . S
C2248 C2250 1.395 1_455 S
C2248 C2251 1.403 . S
H2249 C2255 0.930 . S
C2250 H2236 0.930 . S
C2250 C2248 1.395 1_655 S
C2250 C2253 1.403 . S
C2251 C2248 1.403 . S
C2251 C2252 1.524 . S
C2251 C2255 1.400 . S
C2252 H2237 0.960 . S
C2252 H2238 0.960 . S
C2252 H2239 0.960 . S
C2252 C2251 1.524 . S
C2253 C2250 1.403 . S
C2253 C2254 1.392 . S
C2253 C2257 1.495 . S
C2254 C2253 1.392 . S
C2254 C2255 1.385 1_655 S
C2254 C2256 1.478 . S
C2255 H2249 0.930 . S
C2255 C2251 1.400 . S
C2255 C2254 1.385 1_455 S
C2256 C2254 1.478 . S
C2256 C2258 1.381 . S
C2256 C2262 1.383 . S
C2257 C2253 1.495 . S
C2257 H2263 0.959 . S
C2257 H2264 0.961 . S
C2257 H2265 0.960 . S
C2258 C2256 1.381 . S
C2258 C2259 1.394 . S
C2258 H2266 0.930 . S
C2259 C2258 1.394 . S
C2259 C2260 1.383 . S
C2259 H2267 0.929 . S
C2260 C2259 1.383 . S
C2260 C2261 1.377 . S
C2261 H2245 0.930 . S
C2261 C2260 1.377 . S
C2261 C2262 1.379 . S
C2262 H2246 0.931 . S
C2262 C2256 1.383 . S
C2262 C2261 1.379 . S
H2263 C2257 0.959 . S
H2264 C2257 0.961 . S
H2265 C2257 0.960 . S
H2266 C2258 0.930 . S
H2267 C2259 0.929 . S
H2268 C2276 0.929 . S
H2269 C2278 0.930 . S
H2270 C2280 0.930 . S
H2271 C2283 0.929 . S
H2272 C2286 0.930 . S
H2273 C2288 0.960 . S
H2274 C2288 0.960 . S
H2275 C2288 0.960 . S
C2276 H2268 0.929 . S
C2276 C2277 1.377 . S
C2276 C2278 1.384 . S
C2277 C2276 1.377 . S
C2277 C2283 1.390 . S
C2278 H2269 0.930 . S
C2278 C2276 1.384 . S
C2278 C2279 1.372 . S
C2279 C2278 1.372 . S
C2279 C2280 1.400 . S
C2279 C2284 1.490 . S
C2280 H2270 0.930 . S
C2280 C2279 1.400 . S
C2280 C2283 1.386 . S
H2281 C2297 0.930 . S
H2282 C2298 0.931 . S
C2283 H2271 0.929 . S
C2283 C2277 1.390 . S
C2283 C2280 1.386 . S
C2284 C2279 1.490 . S
C2284 C2286 1.395 . S
C2284 C2287 1.403 . S
H2285 C2291 0.930 . S
C2286 H2272 0.930 . S
C2286 C2284 1.395 . S
C2286 C2289 1.403 . S
C2287 C2284 1.403 . S
C2287 C2288 1.524 . S
C2287 C2291 1.400 . S
C2288 H2273 0.960 . S
C2288 H2274 0.960 . S
C2288 H2275 0.960 . S
C2288 C2287 1.524 . S
C2289 C2286 1.403 . S
C2289 C2290 1.392 . S
C2289 C2293 1.495 . S
C2290 C2289 1.392 . S
C2290 C2291 1.385 . S
C2290 C2292 1.478 . S
C2291 H2285 0.930 . S
C2291 C2287 1.400 . S
C2291 C2290 1.385 . S
C2292 C2290 1.478 . S
C2292 C2294 1.381 . S
C2292 C2298 1.383 . S
C2293 C2289 1.495 . S
C2293 H2299 0.959 . S
C2293 H2300 0.961 . S
C2293 H2301 0.960 . S
C2294 C2292 1.381 . S
C2294 C2295 1.394 . S
C2294 H2302 0.930 . S
C2295 C2294 1.394 . S
C2295 C2296 1.383 . S
C2295 H2303 0.929 . S
C2296 C2295 1.383 . S
C2296 C2297 1.377 . S
C2297 H2281 0.930 . S
C2297 C2296 1.377 . S
C2297 C2298 1.379 . S
C2298 H2282 0.931 . S
C2298 C2292 1.383 . S
C2298 C2297 1.379 . S
H2299 C2293 0.959 . S
H2300 C2293 0.961 . S
H2301 C2293 0.960 . S
H2302 C2294 0.930 . S
H2303 C2295 0.929 . S
H2304 C2312 0.929 . S
H2305 C2314 0.930 1_565 S
H2306 C2316 0.930 . S
H2307 C2319 0.929 . S
H2308 C2322 0.930 . S
H2309 C2324 0.960 . S
H2310 C2324 0.960 . S
H2311 C2324 0.960 . S
C2312 H2304 0.929 . S
C2312 C2313 1.377 . S
C2312 C2314 1.384 . S
C2313 C2312 1.377 . S
C2313 C2319 1.390 . S
C2314 H2305 0.930 1_545 S
C2314 C2312 1.384 . S
C2314 C2315 1.372 . S
C2315 C2314 1.372 . S
C2315 C2316 1.400 . S
C2315 C2320 1.490 . S
C2316 H2306 0.930 . S
C2316 C2315 1.400 . S
C2316 C2319 1.386 . S
H2317 C2333 0.930 . S
H2318 C2334 0.931 1_545 S
C2319 H2307 0.929 . S
C2319 C2313 1.390 . S
C2319 C2316 1.386 . S
C2320 C2315 1.490 . S
C2320 C2322 1.395 1_545 S
C2320 C2323 1.403 . S
H2321 C2327 0.930 . S
C2322 H2308 0.930 . S
C2322 C2320 1.395 1_565 S
C2322 C2325 1.403 . S
C2323 C2320 1.403 . S
C2323 C2324 1.524 . S
C2323 C2327 1.400 . S
C2324 H2309 0.960 . S
C2324 H2310 0.960 . S
C2324 H2311 0.960 . S
C2324 C2323 1.524 . S
C2325 C2322 1.403 . S
C2325 C2326 1.392 . S
C2325 C2329 1.495 . S
C2326 C2325 1.392 . S
C2326 C2327 1.385 1_565 S
C2326 C2328 1.478 . S
C2327 H2321 0.930 . S
C2327 C2323 1.400 . S
C2327 C2326 1.385 1_545 S
C2328 C2326 1.478 . S
C2328 C2330 1.381 . S
C2328 C2334 1.383 . S
C2329 C2325 1.495 . S
C2329 H2335 0.959 . S
C2329 H2336 0.961 . S
C2329 H2337 0.960 . S
C2330 C2328 1.381 . S
C2330 C2331 1.394 . S
C2330 H2338 0.930 . S
C2331 C2330 1.394 . S
C2331 C2332 1.383 . S
C2331 H2339 0.929 . S
C2332 C2331 1.383 . S
C2332 C2333 1.377 . S
C2333 H2317 0.930 . S
C2333 C2332 1.377 . S
C2333 C2334 1.379 . S
C2334 H2318 0.931 1_565 S
C2334 C2328 1.383 . S
C2334 C2333 1.379 . S
H2335 C2329 0.959 . S
H2336 C2329 0.961 . S
H2337 C2329 0.960 . S
H2338 C2330 0.930 . S
H2339 C2331 0.929 . S
H2340 C2348 0.929 . S
H2341 C2350 0.930 . S
H2342 C2352 0.930 1_565 S
H2343 C2355 0.929 . S
H2344 C2358 0.930 . S
H2345 C2360 0.960 . S
H2346 C2360 0.960 . S
H2347 C2360 0.960 . S
C2348 H2340 0.929 . S
C2348 C2349 1.377 . S
C2348 C2350 1.384 . S
C2349 C2348 1.377 . S
C2349 C2355 1.390 . S
C2350 H2341 0.930 . S
C2350 C2348 1.384 . S
C2350 C2351 1.372 . S
C2351 C2350 1.372 . S
C2351 C2352 1.400 . S
C2351 C2356 1.490 . S
C2352 H2342 0.930 1_545 S
C2352 C2351 1.400 . S
C2352 C2355 1.386 . S
H2353 C2369 0.930 . S
H2354 C2370 0.931 . S
C2355 H2343 0.929 . S
C2355 C2349 1.390 . S
C2355 C2352 1.386 . S
C2356 C2351 1.490 . S
C2356 C2358 1.395 1_556 S
C2356 C2359 1.403 1_545 S
H2357 C2363 0.930 . S
C2358 H2344 0.930 . S
C2358 C2356 1.395 1_554 S
C2358 C2361 1.403 . S
C2359 C2356 1.403 1_565 S
C2359 C2360 1.524 . S
C2359 C2363 1.400 . S
C2360 H2345 0.960 . S
C2360 H2346 0.960 . S
C2360 H2347 0.960 . S
C2360 C2359 1.524 . S
C2361 C2358 1.403 . S
C2361 C2362 1.392 1_545 S
C2361 C2365 1.495 . S
C2362 C2361 1.392 1_565 S
C2362 C2363 1.385 1_554 S
C2362 C2364 1.478 . S
C2363 H2357 0.930 . S
C2363 C2359 1.400 . S
C2363 C2362 1.385 1_556 S
C2364 C2362 1.478 . S
C2364 C2366 1.381 . S
C2364 C2370 1.383 . S
C2365 C2361 1.495 . S
C2365 H2371 0.959 . S
C2365 H2372 0.961 . S
C2365 H2373 0.960 . S
C2366 C2364 1.381 . S
C2366 C2367 1.394 . S
C2366 H2374 0.930 1_565 S
C2367 C2366 1.394 . S
C2367 C2368 1.383 . S
C2367 H2375 0.929 . S
C2368 C2367 1.383 . S
C2368 C2369 1.377 . S
C2369 H2353 0.930 . S
C2369 C2368 1.377 . S
C2369 C2370 1.379 . S
C2370 H2354 0.931 . S
C2370 C2364 1.383 . S
C2370 C2369 1.379 . S
H2371 C2365 0.959 . S
H2372 C2365 0.961 . S
H2373 C2365 0.960 . S
H2374 C2366 0.930 1_545 S
H2375 C2367 0.929 . S
H2376 C2384 0.929 . S
H2377 C2386 0.930 1_556 S
H2378 C2388 0.930 . S
H2379 C2391 0.929 . S
H2380 C2394 0.930 . S
H2381 C2396 0.960 . S
H2382 C2396 0.960 . S
H2383 C2396 0.960 . S
C2384 H2376 0.929 . S
C2384 C2385 1.377 . S
C2384 C2386 1.384 . S
C2385 C2384 1.377 . S
C2385 C2391 1.390 . S
C2386 H2377 0.930 1_554 S
C2386 C2384 1.384 . S
C2386 C2387 1.372 . S
C2387 C2386 1.372 . S
C2387 C2388 1.400 . S
C2387 C2392 1.490 . S
C2388 H2378 0.930 . S
C2388 C2387 1.400 . S
C2388 C2391 1.386 . S
H2389 C2405 0.942 . S
H2390 C2406 0.931 1_554 S
C2391 H2379 0.929 . S
C2391 C2385 1.390 . S
C2391 C2388 1.386 . S
C2392 C2387 1.490 . S
C2392 C2394 1.395 1_554 S
C2392 C2395 1.403 1_455 S
H2393 C2399 0.930 . S
C2394 H2380 0.930 . S
C2394 C2392 1.395 1_556 S
C2394 C2397 1.403 . S
C2395 C2392 1.403 1_655 S
C2395 C2396 1.524 . S
C2395 C2399 1.400 1_554 S
C2396 H2381 0.960 . S
C2396 H2382 0.960 . S
C2396 H2383 0.960 . S
C2396 C2395 1.524 . S
C2397 C2394 1.403 . S
C2397 C2398 1.392 1_455 S
C2397 C2401 1.495 . S
C2398 C2397 1.392 1_655 S
C2398 C2399 1.385 . S
C2398 C2400 1.478 . S
C2399 H2393 0.930 . S
C2399 C2395 1.400 1_556 S
C2399 C2398 1.385 . S
C2400 C2398 1.478 . S
C2400 C2402 1.381 . S
C2400 C2406 1.383 . S
C2401 C2397 1.495 . S
C2401 H2407 0.959 . S
C2401 H2408 0.961 . S
C2401 H2409 0.960 . S
C2402 C2400 1.381 . S
C2402 C2403 1.394 . S
C2402 H2410 0.930 . S
C2403 C2402 1.394 . S
C2403 C2404 1.383 . S
C2403 H2411 0.929 . S
C2404 C2403 1.383 . S
C2404 C2405 1.377 . S
C2405 H2389 0.942 . S
C2405 C2404 1.377 . S
C2405 C2406 1.379 . S
C2406 H2390 0.931 1_556 S
C2406 C2400 1.383 . S
C2406 C2405 1.379 . S
H2407 C2401 0.959 . S
H2408 C2401 0.961 . S
H2409 C2401 0.960 . S
H2410 C2402 0.930 . S
H2411 C2403 0.929 . S
H2412 C2420 0.929 . S
H2413 C2422 0.930 . S
H2414 C2424 0.930 . S
H2415 C2427 0.929 . S
H2416 C2430 0.930 . S
H2417 C2432 0.960 . S
H2418 C2432 0.960 . S
H2419 C2432 0.960 . S
C2420 H2412 0.929 . S
C2420 C2421 1.377 . S
C2420 C2422 1.384 . S
C2421 C2420 1.377 . S
C2421 C2427 1.390 . S
C2422 H2413 0.930 . S
C2422 C2420 1.384 . S
C2422 C2423 1.372 . S
C2423 C2422 1.372 . S
C2423 C2424 1.400 . S
C2423 C2428 1.490 . S
C2424 H2414 0.930 . S
C2424 C2423 1.400 . S
C2424 C2427 1.386 . S
H2425 C2441 0.930 . S
H2426 C2442 0.931 . S
C2427 H2415 0.929 . S
C2427 C2421 1.390 . S
C2427 C2424 1.386 . S
C2428 C2423 1.490 . S
C2428 C2430 1.395 . S
C2428 C2431 1.403 1_554 S
H2429 C2435 0.930 . S
C2430 H2416 0.930 . S
C2430 C2428 1.395 . S
C2430 C2433 1.403 . S
C2431 C2428 1.403 1_556 S
C2431 C2432 1.524 . S
C2431 C2435 1.400 . S
C2432 H2417 0.960 . S
C2432 H2418 0.960 . S
C2432 H2419 0.960 . S
C2432 C2431 1.524 . S
C2433 C2430 1.403 . S
C2433 C2434 1.392 1_554 S
C2433 C2437 1.495 . S
C2434 C2433 1.392 1_556 S
C2434 C2435 1.385 . S
C2434 C2436 1.478 . S
C2435 H2429 0.930 . S
C2435 C2431 1.400 . S
C2435 C2434 1.385 . S
C2436 C2434 1.478 . S
C2436 C2438 1.381 . S
C2436 C2442 1.383 . S
C2437 C2433 1.495 . S
C2437 H2443 0.959 . S
C2437 H2444 0.961 . S
C2437 H2445 0.960 . S
C2438 C2436 1.381 . S
C2438 C2439 1.394 . S
C2438 H2446 0.930 . S
C2439 C2438 1.394 . S
C2439 C2440 1.383 . S
C2439 H2447 0.929 . S
C2440 C2439 1.383 . S
C2440 C2441 1.377 . S
C2441 H2425 0.930 . S
C2441 C2440 1.377 . S
C2441 C2442 1.379 . S
C2442 H2426 0.931 . S
C2442 C2436 1.383 . S
C2442 C2441 1.379 . S
H2443 C2437 0.959 . S
H2444 C2437 0.961 . S
H2445 C2437 0.960 . S
H2446 C2438 0.930 . S
H2447 C2439 0.929 . S
H2448 C2456 0.929 . S
H2449 C2458 0.930 . S
H2450 C2460 0.930 . S
H2451 C2463 0.929 . S
H2452 C2466 0.930 . S
H2453 C2468 0.960 . S
H2454 C2468 0.960 . S
H2455 C2468 0.960 . S
C2456 H2448 0.929 . S
C2456 C2457 1.377 1_554 S
C2456 C2458 1.384 . S
C2457 C2456 1.377 1_556 S
C2457 C2463 1.390 . S
C2458 H2449 0.930 . S
C2458 C2456 1.384 . S
C2458 C2459 1.372 . S
C2459 C2458 1.372 . S
C2459 C2460 1.400 . S
C2459 C2464 1.490 . S
C2460 H2450 0.930 . S
C2460 C2459 1.400 . S
C2460 C2463 1.386 1_554 S
H2461 C2477 0.930 . S
H2462 C2478 0.931 . S
C2463 H2451 0.929 . S
C2463 C2457 1.390 . S
C2463 C2460 1.386 1_556 S
C2464 C2459 1.490 . S
C2464 C2466 1.395 . S
C2464 C2467 1.403 . S
H2465 C2471 0.930 . S
C2466 H2452 0.930 . S
C2466 C2464 1.395 . S
C2466 C2469 1.403 . S
C2467 C2464 1.403 . S
C2467 C2468 1.524 . S
C2467 C2471 1.400 . S
C2468 H2453 0.960 . S
C2468 H2454 0.960 . S
C2468 H2455 0.960 . S
C2468 C2467 1.524 . S
C2469 C2466 1.403 . S
C2469 C2470 1.392 . S
C2469 C2473 1.495 . S
C2470 C2469 1.392 . S
C2470 C2471 1.385 . S
C2470 C2472 1.478 . S
C2471 H2465 0.930 . S
C2471 C2467 1.400 . S
C2471 C2470 1.385 . S
C2472 C2470 1.478 . S
C2472 C2474 1.381 . S
C2472 C2478 1.383 . S
C2473 C2469 1.495 . S
C2473 H2479 0.959 . S
C2473 H2480 0.961 . S
C2473 H2481 0.960 . S
C2474 C2472 1.381 . S
C2474 C2475 1.394 . S
C2474 H2482 0.930 . S
C2475 C2474 1.394 . S
C2475 C2476 1.383 . S
C2475 H2483 0.929 . S
C2476 C2475 1.383 . S
C2476 C2477 1.377 . S
C2477 H2461 0.930 . S
C2477 C2476 1.377 . S
C2477 C2478 1.379 . S
C2478 H2462 0.931 . S
C2478 C2472 1.383 . S
C2478 C2477 1.379 . S
H2479 C2473 0.959 . S
H2480 C2473 0.961 . S
H2481 C2473 0.960 . S
H2482 C2474 0.930 . S
H2483 C2475 0.929 . S
H2484 C2492 0.929 . S
H2485 C2494 0.930 . S
H2486 C2496 0.930 . S
H2487 C2499 0.929 . S
H2488 C2502 0.930 . S
H2489 C2504 0.960 . S
H2490 C2504 0.960 . S
H2491 C2504 0.960 . S
C2492 H2484 0.929 . S
C2492 C2493 1.377 . S
C2492 C2494 1.384 . S
C2493 C2492 1.377 . S
C2493 C2499 1.390 . S
C2494 H2485 0.930 . S
C2494 C2492 1.384 . S
C2494 C2495 1.372 . S
C2495 C2494 1.372 . S
C2495 C2496 1.400 . S
C2495 C2500 1.490 . S
C2496 H2486 0.930 . S
C2496 C2495 1.400 . S
C2496 C2499 1.386 . S
H2497 C2513 0.930 . S
H2498 C2514 0.931 . S
C2499 H2487 0.929 . S
C2499 C2493 1.390 . S
C2499 C2496 1.386 . S
C2500 C2495 1.490 . S
C2500 C2502 1.395 . S
C2500 C2503 1.403 . S
H2501 C2507 0.930 . S
C2502 H2488 0.930 . S
C2502 C2500 1.395 . S
C2502 C2505 1.403 . S
C2503 C2500 1.403 . S
C2503 C2504 1.524 . S
C2503 C2507 1.400 . S
C2504 H2489 0.960 . S
C2504 H2490 0.960 . S
C2504 H2491 0.960 . S
C2504 C2503 1.524 . S
C2505 C2502 1.403 . S
C2505 C2506 1.392 . S
C2505 C2509 1.495 . S
C2506 C2505 1.392 . S
C2506 C2507 1.385 . S
C2506 C2508 1.478 . S
C2507 H2501 0.930 . S
C2507 C2503 1.400 . S
C2507 C2506 1.385 . S
C2508 C2506 1.478 . S
C2508 C2510 1.381 . S
C2508 C2514 1.383 . S
C2509 C2505 1.495 . S
C2509 H2515 0.959 . S
C2509 H2516 0.961 . S
C2509 H2517 0.960 . S
C2510 C2508 1.381 . S
C2510 C2511 1.394 . S
C2510 H2518 0.930 . S
C2511 C2510 1.394 . S
C2511 C2512 1.383 1_554 S
C2511 H2519 0.932 . S
C2512 C2511 1.383 1_556 S
C2512 C2513 1.377 . S
C2513 H2497 0.930 . S
C2513 C2512 1.377 . S
C2513 C2514 1.379 1_556 S
C2514 H2498 0.931 . S
C2514 C2508 1.383 . S
C2514 C2513 1.379 1_554 S
H2515 C2509 0.959 . S
H2516 C2509 0.961 . S
H2517 C2509 0.960 . S
H2518 C2510 0.930 . S
H2519 C2511 0.932 . S
H2520 C2528 0.929 . S
H2521 C2530 0.930 . S
H2522 C2532 0.930 . S
H2523 C2535 0.929 . S
H2524 C2538 0.930 . S
H2525 C2540 0.960 . S
H2526 C2540 0.960 . S
H2527 C2540 0.960 . S
C2528 H2520 0.929 . S
C2528 C2529 1.377 . S
C2528 C2530 1.384 1_556 S
C2529 C2528 1.377 . S
C2529 C2535 1.390 1_556 S
C2530 H2521 0.930 . S
C2530 C2528 1.384 1_554 S
C2530 C2531 1.372 . S
C2531 C2530 1.372 . S
C2531 C2532 1.400 . S
C2531 C2536 1.490 . S
C2532 H2522 0.930 . S
C2532 C2531 1.400 . S
C2532 C2535 1.386 . S
H2533 C2549 0.930 . S
H2534 C2550 0.931 . S
C2535 H2523 0.929 . S
C2535 C2529 1.390 1_554 S
C2535 C2532 1.386 . S
C2536 C2531 1.490 . S
C2536 C2538 1.395 . S
C2536 C2539 1.403 . S
H2537 C2543 0.930 . S
C2538 H2524 0.930 . S
C2538 C2536 1.395 . S
C2538 C2541 1.403 . S
C2539 C2536 1.403 . S
C2539 C2540 1.524 . S
C2539 C2543 1.400 . S
C2540 H2525 0.960 . S
C2540 H2526 0.960 . S
C2540 H2527 0.960 . S
C2540 C2539 1.524 . S
C2541 C2538 1.403 . S
C2541 C2542 1.392 . S
C2541 C2545 1.495 . S
C2542 C2541 1.392 . S
C2542 C2543 1.385 . S
C2542 C2544 1.478 . S
C2543 H2537 0.930 . S
C2543 C2539 1.400 . S
C2543 C2542 1.385 . S
C2544 C2542 1.478 . S
C2544 C2546 1.381 . S
C2544 C2550 1.383 . S
C2545 C2541 1.495 . S
C2545 H2551 0.959 . S
C2545 H2552 0.961 . S
C2545 H2553 0.960 . S
C2546 C2544 1.381 . S
C2546 C2547 1.394 . S
C2546 H2554 0.930 . S
C2547 C2546 1.394 . S
C2547 C2548 1.383 . S
C2547 H2555 0.929 . S
C2548 C2547 1.383 . S
C2548 C2549 1.377 . S
C2549 H2533 0.930 . S
C2549 C2548 1.377 . S
C2549 C2550 1.379 . S
C2550 H2534 0.931 . S
C2550 C2544 1.383 . S
C2550 C2549 1.379 . S
H2551 C2545 0.959 . S
H2552 C2545 0.961 . S
H2553 C2545 0.960 . S
H2554 C2546 0.930 . S
H2555 C2547 0.929 . S
H2556 C2564 0.929 . S
H2557 C2566 0.930 . S
H2558 C2568 0.930 . S
H2559 C2571 0.929 . S
H2560 C2574 0.930 . S
H2561 C2576 0.960 . S
H2562 C2576 0.960 . S
H2563 C2576 0.960 . S
C2564 H2556 0.929 . S
C2564 C2565 1.377 . S
C2564 C2566 1.384 . S
C2565 C2564 1.377 . S
C2565 C2571 1.390 . S
C2566 H2557 0.930 . S
C2566 C2564 1.384 . S
C2566 C2567 1.372 . S
C2567 C2566 1.372 . S
C2567 C2568 1.400 . S
C2567 C2572 1.490 . S
C2568 H2558 0.930 . S
C2568 C2567 1.400 . S
C2568 C2571 1.386 . S
H2569 C2585 0.930 . S
H2570 C2586 0.931 . S
C2571 H2559 0.929 . S
C2571 C2565 1.390 . S
C2571 C2568 1.386 . S
C2572 C2567 1.490 . S
C2572 C2574 1.395 . S
C2572 C2575 1.403 . S
H2573 C2579 0.930 . S
C2574 H2560 0.930 . S
C2574 C2572 1.395 . S
C2574 C2577 1.403 . S
C2575 C2572 1.403 . S
C2575 C2576 1.524 . S
C2575 C2579 1.400 . S
C2576 H2561 0.960 . S
C2576 H2562 0.960 . S
C2576 H2563 0.960 . S
C2576 C2575 1.524 . S
C2577 C2574 1.403 . S
C2577 C2578 1.392 . S
C2577 C2581 1.495 . S
C2578 C2577 1.392 . S
C2578 C2579 1.385 . S
C2578 C2580 1.478 . S
C2579 H2573 0.930 . S
C2579 C2575 1.400 . S
C2579 C2578 1.385 . S
C2580 C2578 1.478 . S
C2580 C2582 1.381 . S
C2580 C2586 1.383 . S
C2581 C2577 1.495 . S
C2581 H2587 0.959 . S
C2581 H2588 0.961 . S
C2581 H2589 0.960 . S
C2582 C2580 1.381 . S
C2582 C2583 1.394 . S
C2582 H2590 0.930 . S
C2583 C2582 1.394 . S
C2583 C2584 1.383 . S
C2583 H2591 0.929 . S
C2584 C2583 1.383 . S
C2584 C2585 1.377 . S
C2585 H2569 0.930 . S
C2585 C2584 1.377 . S
C2585 C2586 1.379 . S
C2586 H2570 0.931 . S
C2586 C2580 1.383 . S
C2586 C2585 1.379 . S
H2587 C2581 0.959 . S
H2588 C2581 0.961 . S
H2589 C2581 0.960 . S
H2590 C2582 0.930 . S
H2591 C2583 0.929 . S
H2592 C2600 0.929 . S
H2593 C2602 0.930 . S
H2594 C2604 0.930 . S
H2595 C2607 0.929 . S
H2596 C2610 0.930 . S
H2597 C2612 0.960 . S
H2598 C2612 0.960 . S
H2599 C2612 0.960 . S
C2600 H2592 0.929 . S
C2600 C2601 1.377 . S
C2600 C2602 1.384 . S
C2601 C2600 1.377 . S
C2601 C2607 1.390 . S
C2602 H2593 0.930 . S
C2602 C2600 1.384 . S
C2602 C2603 1.372 . S
C2603 C2602 1.372 . S
C2603 C2604 1.400 . S
C2603 C2608 1.490 . S
C2604 H2594 0.930 . S
C2604 C2603 1.400 . S
C2604 C2607 1.386 . S
H2605 C2621 0.930 . S
H2606 C2622 0.931 . S
C2607 H2595 0.929 . S
C2607 C2601 1.390 . S
C2607 C2604 1.386 . S
C2608 C2603 1.490 . S
C2608 C2610 1.395 . S
C2608 C2611 1.403 . S
H2609 C2615 0.930 . S
C2610 H2596 0.930 . S
C2610 C2608 1.395 . S
C2610 C2613 1.403 . S
C2611 C2608 1.403 . S
C2611 C2612 1.524 . S
C2611 C2615 1.400 . S
C2612 H2597 0.960 . S
C2612 H2598 0.960 . S
C2612 H2599 0.960 . S
C2612 C2611 1.524 . S
C2613 C2610 1.403 . S
C2613 C2614 1.392 . S
C2613 C2617 1.495 . S
C2614 C2613 1.392 . S
C2614 C2615 1.385 . S
C2614 C2616 1.478 . S
C2615 H2609 0.930 . S
C2615 C2611 1.400 . S
C2615 C2614 1.385 . S
C2616 C2614 1.478 . S
C2616 C2618 1.381 . S
C2616 C2622 1.383 . S
C2617 C2613 1.495 . S
C2617 H2623 0.959 . S
C2617 H2624 0.961 . S
C2617 H2625 0.960 . S
C2618 C2616 1.381 . S
C2618 C2619 1.394 . S
C2618 H2626 0.930 . S
C2619 C2618 1.394 . S
C2619 C2620 1.383 . S
C2619 H2627 0.929 . S
C2620 C2619 1.383 . S
C2620 C2621 1.377 . S
C2621 H2605 0.930 . S
C2621 C2620 1.377 . S
C2621 C2622 1.379 . S
C2622 H2606 0.931 . S
C2622 C2616 1.383 . S
C2622 C2621 1.379 . S
H2623 C2617 0.959 . S
H2624 C2617 0.961 . S
H2625 C2617 0.960 . S
H2626 C2618 0.930 . S
H2627 C2619 0.929 . S
H2628 C2636 0.929 . S
H2629 C2638 0.930 . S
H2630 C2640 0.930 . S
H2631 C2643 0.929 . S
H2632 C2646 0.930 . S
H2633 C2648 0.960 . S
H2634 C2648 0.960 . S
H2635 C2648 0.960 . S
C2636 H2628 0.929 . S
C2636 C2637 1.377 . S
C2636 C2638 1.384 . S
C2637 C2636 1.377 . S
C2637 C2643 1.390 . S
C2638 H2629 0.930 . S
C2638 C2636 1.384 . S
C2638 C2639 1.372 . S
C2639 C2638 1.372 . S
C2639 C2640 1.400 . S
C2639 C2644 1.490 . S
C2640 H2630 0.930 . S
C2640 C2639 1.400 . S
C2640 C2643 1.386 . S
H2641 C2657 0.930 . S
H2642 C2658 0.931 . S
C2643 H2631 0.929 . S
C2643 C2637 1.390 . S
C2643 C2640 1.386 . S
C2644 C2639 1.490 . S
C2644 C2646 1.395 . S
C2644 C2647 1.403 . S
H2645 C2651 0.930 . S
C2646 H2632 0.930 . S
C2646 C2644 1.395 . S
C2646 C2649 1.403 . S
C2647 C2644 1.403 . S
C2647 C2648 1.524 . S
C2647 C2651 1.400 . S
C2648 H2633 0.960 . S
C2648 H2634 0.960 . S
C2648 H2635 0.960 . S
C2648 C2647 1.524 . S
C2649 C2646 1.403 . S
C2649 C2650 1.392 . S
C2649 C2653 1.495 . S
C2650 C2649 1.392 . S
C2650 C2651 1.385 . S
C2650 C2652 1.478 . S
C2651 H2645 0.930 . S
C2651 C2647 1.400 . S
C2651 C2650 1.385 . S
C2652 C2650 1.478 . S
C2652 C2654 1.381 . S
C2652 C2658 1.383 . S
C2653 C2649 1.495 . S
C2653 H2659 0.959 . S
C2653 H2660 0.961 . S
C2653 H2661 0.960 . S
C2654 C2652 1.381 . S
C2654 C2655 1.394 . S
C2654 H2662 0.930 . S
C2655 C2654 1.394 . S
C2655 C2656 1.383 . S
C2655 H2663 0.929 . S
C2656 C2655 1.383 . S
C2656 C2657 1.377 . S
C2657 H2641 0.930 . S
C2657 C2656 1.377 . S
C2657 C2658 1.379 . S
C2658 H2642 0.931 . S
C2658 C2652 1.383 . S
C2658 C2657 1.379 . S
H2659 C2653 0.959 . S
H2660 C2653 0.961 . S
H2661 C2653 0.960 . S
H2662 C2654 0.930 . S
H2663 C2655 0.929 . S
H2664 C2672 0.929 . S
H2665 C2674 0.930 . S
H2666 C2676 0.930 . S
H2667 C2679 0.929 . S
H2668 C2682 0.930 . S
H2669 C2684 0.960 . S
H2670 C2684 0.960 . S
H2671 C2684 0.960 . S
C2672 H2664 0.929 . S
C2672 C2673 1.377 . S
C2672 C2674 1.384 . S
C2673 C2672 1.377 . S
C2673 C2679 1.390 . S
C2674 H2665 0.930 . S
C2674 C2672 1.384 . S
C2674 C2675 1.372 . S
C2675 C2674 1.372 . S
C2675 C2676 1.400 . S
C2675 C2680 1.490 . S
C2676 H2666 0.930 . S
C2676 C2675 1.400 . S
C2676 C2679 1.386 . S
H2677 C2693 0.930 . S
H2678 C2694 0.931 . S
C2679 H2667 0.929 . S
C2679 C2673 1.390 . S
C2679 C2676 1.386 . S
C2680 C2675 1.490 . S
C2680 C2682 1.395 . S
C2680 C2683 1.403 . S
H2681 C2687 0.930 . S
C2682 H2668 0.930 . S
C2682 C2680 1.395 . S
C2682 C2685 1.403 . S
C2683 C2680 1.403 . S
C2683 C2684 1.524 . S
C2683 C2687 1.400 . S
C2684 H2669 0.960 . S
C2684 H2670 0.960 . S
C2684 H2671 0.960 . S
C2684 C2683 1.524 . S
C2685 C2682 1.403 . S
C2685 C2686 1.392 . S
C2685 C2689 1.495 . S
C2686 C2685 1.392 . S
C2686 C2687 1.385 . S
C2686 C2688 1.478 . S
C2687 H2681 0.930 . S
C2687 C2683 1.400 . S
C2687 C2686 1.385 . S
C2688 C2686 1.478 . S
C2688 C2690 1.381 . S
C2688 C2694 1.383 . S
C2689 C2685 1.495 . S
C2689 H2695 0.959 . S
C2689 H2696 0.961 . S
C2689 H2697 0.960 . S
C2690 C2688 1.381 . S
C2690 C2691 1.394 . S
C2690 H2698 0.930 . S
C2691 C2690 1.394 . S
C2691 C2692 1.383 1_556 S
C2691 H2699 0.929 . S
C2692 C2691 1.383 1_554 S
C2692 C2693 1.377 . S
C2693 H2677 0.930 . S
C2693 C2692 1.377 . S
C2693 C2694 1.379 1_554 S
C2694 H2678 0.931 . S
C2694 C2688 1.383 . S
C2694 C2693 1.379 1_556 S
H2695 C2689 0.959 . S
H2696 C2689 0.961 . S
H2697 C2689 0.960 . S
H2698 C2690 0.930 . S
H2699 C2691 0.929 . S
H2700 C2708 0.923 1_554 S
H2701 C2710 0.930 . S
H2702 C2712 0.930 . S
H2703 C2715 0.929 . S
H2704 C2718 0.930 . S
H2705 C2720 0.960 . S
H2706 C2720 0.960 . S
H2707 C2720 0.960 . S
C2708 H2700 0.923 1_556 S
C2708 C2709 1.369 1_556 S
C2708 C2710 1.399 . S
C2709 C2708 1.369 1_554 S
C2709 C2715 1.390 . S
C2710 H2701 0.930 . S
C2710 C2708 1.399 . S
C2710 C2711 1.372 . S
C2711 C2710 1.372 . S
C2711 C2712 1.400 . S
C2711 C2716 1.490 . S
C2712 H2702 0.930 . S
C2712 C2711 1.400 . S
C2712 C2715 1.386 1_556 S
H2713 C2729 0.930 . S
H2714 C2730 0.931 . S
C2715 H2703 0.929 . S
C2715 C2709 1.390 . S
C2715 C2712 1.386 1_554 S
C2716 C2711 1.490 . S
C2716 C2718 1.395 . S
C2716 C2719 1.403 . S
H2717 C2723 0.930 . S
C2718 H2704 0.930 . S
C2718 C2716 1.395 . S
C2718 C2721 1.403 . S
C2719 C2716 1.403 . S
C2719 C2720 1.524 . S
C2719 C2723 1.400 . S
C2720 H2705 0.960 . S
C2720 H2706 0.960 . S
C2720 H2707 0.960 . S
C2720 C2719 1.524 . S
C2721 C2718 1.403 . S
C2721 C2722 1.392 . S
C2721 C2725 1.495 . S
C2722 C2721 1.392 . S
C2722 C2723 1.385 . S
C2722 C2724 1.478 . S
C2723 H2717 0.930 . S
C2723 C2719 1.400 . S
C2723 C2722 1.385 . S
C2724 C2722 1.478 . S
C2724 C2726 1.381 . S
C2724 C2730 1.383 . S
C2725 C2721 1.495 . S
C2725 H2731 0.959 . S
C2725 H2732 0.961 . S
C2725 H2733 0.960 . S
C2726 C2724 1.381 . S
C2726 C2727 1.394 . S
C2726 H2734 0.930 . S
C2727 C2726 1.394 . S
C2727 C2728 1.383 . S
C2727 H2735 0.929 . S
C2728 C2727 1.383 . S
C2728 C2729 1.377 . S
C2729 H2713 0.930 . S
C2729 C2728 1.377 . S
C2729 C2730 1.379 . S
C2730 H2714 0.931 . S
C2730 C2724 1.383 . S
C2730 C2729 1.379 . S
H2731 C2725 0.959 . S
H2732 C2725 0.961 . S
H2733 C2725 0.960 . S
H2734 C2726 0.930 . S
H2735 C2727 0.929 . S
H2736 C2744 0.929 . S
H2737 C2746 0.930 . S
H2738 C2748 0.930 . S
H2739 C2751 0.929 . S
H2740 C2754 0.930 . S
H2741 C2756 0.960 . S
H2742 C2756 0.960 . S
H2743 C2756 0.960 . S
C2744 H2736 0.929 . S
C2744 C2745 1.377 . S
C2744 C2746 1.384 . S
C2745 C2744 1.377 . S
C2745 C2751 1.390 . S
C2746 H2737 0.930 . S
C2746 C2744 1.384 . S
C2746 C2747 1.372 . S
C2747 C2746 1.372 . S
C2747 C2748 1.400 . S
C2747 C2752 1.490 . S
C2748 H2738 0.930 . S
C2748 C2747 1.400 . S
C2748 C2751 1.386 . S
H2749 C2765 0.930 . S
H2750 C2766 0.931 . S
C2751 H2739 0.929 . S
C2751 C2745 1.390 . S
C2751 C2748 1.386 . S
C2752 C2747 1.490 . S
C2752 C2754 1.395 . S
C2752 C2755 1.403 . S
H2753 C2759 0.930 . S
C2754 H2740 0.930 . S
C2754 C2752 1.395 . S
C2754 C2757 1.403 . S
C2755 C2752 1.403 . S
C2755 C2756 1.524 . S
C2755 C2759 1.400 . S
C2756 H2741 0.960 . S
C2756 H2742 0.960 . S
C2756 H2743 0.960 . S
C2756 C2755 1.524 . S
C2757 C2754 1.403 . S
C2757 C2758 1.392 . S
C2757 C2761 1.495 . S
C2758 C2757 1.392 . S
C2758 C2759 1.385 . S
C2758 C2760 1.478 . S
C2759 H2753 0.930 . S
C2759 C2755 1.400 . S
C2759 C2758 1.385 . S
C2760 C2758 1.478 . S
C2760 C2762 1.381 . S
C2760 C2766 1.383 . S
C2761 C2757 1.495 . S
C2761 H2767 0.959 . S
C2761 H2768 0.961 . S
C2761 H2769 0.960 . S
C2762 C2760 1.381 . S
C2762 C2763 1.394 1_556 S
C2762 H2770 0.930 . S
C2763 C2762 1.394 1_554 S
C2763 C2764 1.383 . S
C2763 H2771 0.929 . S
C2764 C2763 1.383 . S
C2764 C2765 1.377 1_554 S
C2765 H2749 0.930 . S
C2765 C2764 1.377 1_556 S
C2765 C2766 1.379 . S
C2766 H2750 0.931 . S
C2766 C2760 1.383 . S
C2766 C2765 1.379 . S
H2767 C2761 0.959 . S
H2768 C2761 0.961 . S
H2769 C2761 0.960 . S
H2770 C2762 0.930 . S
H2771 C2763 0.929 . S
H2772 C2780 0.929 . S
H2773 C2782 0.930 . S
H2774 C2784 0.930 . S
H2775 C2787 0.929 . S
H2776 C2790 0.930 . S
H2777 C2792 0.960 . S
H2778 C2792 0.960 . S
H2779 C2792 0.960 . S
C2780 H2772 0.929 . S
C2780 C2781 1.377 . S
C2780 C2782 1.384 . S
C2781 C2780 1.377 . S
C2781 C2787 1.390 . S
C2782 H2773 0.930 . S
C2782 C2780 1.384 . S
C2782 C2783 1.372 . S
C2783 C2782 1.372 . S
C2783 C2784 1.400 . S
C2783 C2788 1.490 . S
C2784 H2774 0.930 . S
C2784 C2783 1.400 . S
C2784 C2787 1.386 . S
H2785 C2801 0.930 . S
H2786 C2802 0.931 . S
C2787 H2775 0.929 . S
C2787 C2781 1.390 . S
C2787 C2784 1.386 . S
C2788 C2783 1.490 . S
C2788 C2790 1.395 . S
C2788 C2791 1.403 . S
H2789 C2795 0.930 . S
C2790 H2776 0.930 . S
C2790 C2788 1.395 . S
C2790 C2793 1.403 . S
C2791 C2788 1.403 . S
C2791 C2792 1.524 . S
C2791 C2795 1.400 . S
C2792 H2777 0.960 . S
C2792 H2778 0.960 . S
C2792 H2779 0.960 . S
C2792 C2791 1.524 . S
C2793 C2790 1.403 . S
C2793 C2794 1.392 . S
C2793 C2797 1.495 . S
C2794 C2793 1.392 . S
C2794 C2795 1.385 . S
C2794 C2796 1.478 . S
C2795 H2789 0.930 . S
C2795 C2791 1.400 . S
C2795 C2794 1.385 . S
C2796 C2794 1.478 . S
C2796 C2798 1.381 . S
C2796 C2802 1.383 . S
C2797 C2793 1.495 . S
C2797 H2803 0.959 . S
C2797 H2804 0.961 . S
C2797 H2805 0.960 . S
C2798 C2796 1.381 . S
C2798 C2799 1.394 . S
C2798 H2806 0.930 . S
C2799 C2798 1.394 . S
C2799 C2800 1.383 . S
C2799 H2807 0.929 . S
C2800 C2799 1.383 . S
C2800 C2801 1.377 . S
C2801 H2785 0.930 . S
C2801 C2800 1.377 . S
C2801 C2802 1.379 . S
C2802 H2786 0.931 . S
C2802 C2796 1.383 . S
C2802 C2801 1.379 . S
H2803 C2797 0.959 . S
H2804 C2797 0.961 . S
H2805 C2797 0.960 . S
H2806 C2798 0.930 . S
H2807 C2799 0.929 . S
H2808 C2816 0.929 . S
H2809 C2818 0.930 . S
H2810 C2820 0.930 . S
H2811 C2823 0.929 . S
H2812 C2826 0.930 . S
H2813 C2828 0.960 . S
H2814 C2828 0.960 . S
H2815 C2828 0.960 . S
C2816 H2808 0.929 . S
C2816 C2817 1.377 . S
C2816 C2818 1.384 . S
C2817 C2816 1.377 . S
C2817 C2823 1.390 . S
C2818 H2809 0.930 . S
C2818 C2816 1.384 . S
C2818 C2819 1.372 . S
C2819 C2818 1.372 . S
C2819 C2820 1.400 . S
C2819 C2824 1.490 . S
C2820 H2810 0.930 . S
C2820 C2819 1.400 . S
C2820 C2823 1.386 . S
H2821 C2837 0.930 . S
H2822 C2838 0.931 . S
C2823 H2811 0.929 . S
C2823 C2817 1.390 . S
C2823 C2820 1.386 . S
C2824 C2819 1.490 . S
C2824 C2826 1.395 . S
C2824 C2827 1.403 . S
H2825 C2831 0.930 . S
C2826 H2812 0.930 . S
C2826 C2824 1.395 . S
C2826 C2829 1.403 . S
C2827 C2824 1.403 . S
C2827 C2828 1.524 . S
C2827 C2831 1.400 . S
C2828 H2813 0.960 . S
C2828 H2814 0.960 . S
C2828 H2815 0.960 . S
C2828 C2827 1.524 . S
C2829 C2826 1.403 . S
C2829 C2830 1.392 . S
C2829 C2833 1.495 . S
C2830 C2829 1.392 . S
C2830 C2831 1.385 . S
C2830 C2832 1.478 . S
C2831 H2825 0.930 . S
C2831 C2827 1.400 . S
C2831 C2830 1.385 . S
C2832 C2830 1.478 . S
C2832 C2834 1.381 . S
C2832 C2838 1.383 . S
C2833 C2829 1.495 . S
C2833 H2839 0.959 . S
C2833 H2840 0.961 . S
C2833 H2841 0.960 . S
C2834 C2832 1.381 . S
C2834 C2835 1.394 . S
C2834 H2842 0.930 . S
C2835 C2834 1.394 . S
C2835 C2836 1.383 . S
C2835 H2843 0.929 . S
C2836 C2835 1.383 . S
C2836 C2837 1.377 . S
C2837 H2821 0.930 . S
C2837 C2836 1.377 . S
C2837 C2838 1.379 . S
C2838 H2822 0.931 . S
C2838 C2832 1.383 . S
C2838 C2837 1.379 . S
H2839 C2833 0.959 . S
H2840 C2833 0.961 . S
H2841 C2833 0.960 . S
H2842 C2834 0.930 . S
H2843 C2835 0.929 . S
H2844 C2852 0.929 . S
H2845 C2854 0.930 . S
H2846 C2856 0.930 . S
H2847 C2859 0.929 . S
H2848 C2862 0.930 . S
H2849 C2864 0.960 . S
H2850 C2864 0.960 . S
H2851 C2864 0.960 . S
C2852 H2844 0.929 . S
C2852 C2853 1.377 . S
C2852 C2854 1.384 . S
C2853 C2852 1.377 . S
C2853 C2859 1.390 . S
C2854 H2845 0.930 . S
C2854 C2852 1.384 . S
C2854 C2855 1.372 . S
C2855 C2854 1.372 . S
C2855 C2856 1.400 . S
C2855 C2860 1.490 . S
C2856 H2846 0.930 . S
C2856 C2855 1.400 . S
C2856 C2859 1.386 . S
H2857 C2873 0.930 . S
H2858 C2874 0.931 . S
C2859 H2847 0.929 . S
C2859 C2853 1.390 . S
C2859 C2856 1.386 . S
C2860 C2855 1.490 . S
C2860 C2862 1.395 . S
C2860 C2863 1.403 . S
H2861 C2867 0.930 . S
C2862 H2848 0.930 . S
C2862 C2860 1.395 . S
C2862 C2865 1.403 . S
C2863 C2860 1.403 . S
C2863 C2864 1.524 . S
C2863 C2867 1.400 . S
C2864 H2849 0.960 . S
C2864 H2850 0.960 . S
C2864 H2851 0.960 . S
C2864 C2863 1.524 . S
C2865 C2862 1.403 . S
C2865 C2866 1.392 . S
C2865 C2869 1.495 . S
C2866 C2865 1.392 . S
C2866 C2867 1.385 . S
C2866 C2868 1.478 . S
C2867 H2861 0.930 . S
C2867 C2863 1.400 . S
C2867 C2866 1.385 . S
C2868 C2866 1.478 . S
C2868 C2870 1.381 . S
C2868 C2874 1.383 . S
C2869 C2865 1.495 . S
C2869 H2875 0.959 . S
C2869 H2876 0.961 . S
C2869 H2877 0.960 . S
C2870 C2868 1.381 . S
C2870 C2871 1.394 . S
C2870 H2878 0.930 . S
C2871 C2870 1.394 . S
C2871 C2872 1.383 . S
C2871 H2879 0.929 . S
C2872 C2871 1.383 . S
C2872 C2873 1.377 . S
C2873 H2857 0.930 . S
C2873 C2872 1.377 . S
C2873 C2874 1.379 . S
C2874 H2858 0.931 . S
C2874 C2868 1.383 . S
C2874 C2873 1.379 . S
H2875 C2869 0.959 . S
H2876 C2869 0.961 . S
H2877 C2869 0.960 . S
H2878 C2870 0.930 . S
H2879 C2871 0.929 . S
H2880 C2888 0.929 . S
H2881 C2890 0.930 . S
H2882 C2892 0.930 . S
H2883 C2895 0.929 . S
H2884 C2898 0.930 . S
H2885 C2900 0.960 . S
H2886 C2900 0.960 . S
H2887 C2900 0.960 . S
C2888 H2880 0.929 . S
C2888 C2889 1.377 . S
C2888 C2890 1.384 . S
C2889 C2888 1.377 . S
C2889 C2895 1.390 . S
C2890 H2881 0.930 . S
C2890 C2888 1.384 . S
C2890 C2891 1.372 . S
C2891 C2890 1.372 . S
C2891 C2892 1.400 . S
C2891 C2896 1.490 . S
C2892 H2882 0.930 . S
C2892 C2891 1.400 . S
C2892 C2895 1.386 . S
H2893 C2909 0.930 . S
H2894 C2910 0.931 . S
C2895 H2883 0.929 . S
C2895 C2889 1.390 . S
C2895 C2892 1.386 . S
C2896 C2891 1.490 . S
C2896 C2898 1.395 . S
C2896 C2899 1.403 . S
H2897 C2903 0.930 . S
C2898 H2884 0.930 . S
C2898 C2896 1.395 . S
C2898 C2901 1.403 . S
C2899 C2896 1.403 . S
C2899 C2900 1.524 . S
C2899 C2903 1.400 . S
C2900 H2885 0.960 . S
C2900 H2886 0.960 . S
C2900 H2887 0.960 . S
C2900 C2899 1.524 . S
C2901 C2898 1.403 . S
C2901 C2902 1.392 . S
C2901 C2905 1.495 . S
C2902 C2901 1.392 . S
C2902 C2903 1.385 . S
C2902 C2904 1.478 . S
C2903 H2897 0.930 . S
C2903 C2899 1.400 . S
C2903 C2902 1.385 . S
C2904 C2902 1.478 . S
C2904 C2906 1.381 . S
C2904 C2910 1.383 . S
C2905 C2901 1.495 . S
C2905 H2911 0.959 . S
C2905 H2912 0.961 . S
C2905 H2913 0.960 . S
C2906 C2904 1.381 . S
C2906 C2907 1.394 . S
C2906 H2914 0.930 . S
C2907 C2906 1.394 . S
C2907 C2908 1.383 . S
C2907 H2915 0.929 . S
C2908 C2907 1.383 . S
C2908 C2909 1.377 . S
C2909 H2893 0.930 . S
C2909 C2908 1.377 . S
C2909 C2910 1.379 . S
C2910 H2894 0.931 . S
C2910 C2904 1.383 . S
C2910 C2909 1.379 . S
H2911 C2905 0.959 . S
H2912 C2905 0.961 . S
H2913 C2905 0.960 . S
H2914 C2906 0.930 . S
H2915 C2907 0.929 . S
H2916 C2924 0.929 . S
H2917 C2926 0.930 . S
H2918 C2928 0.930 . S
H2919 C2931 0.929 . S
H2920 C2934 0.930 . S
H2921 C2936 0.960 . S
H2922 C2936 0.960 . S
H2923 C2936 0.960 . S
C2924 H2916 0.929 . S
C2924 C2925 1.377 . S
C2924 C2926 1.384 . S
C2925 C2924 1.377 . S
C2925 C2931 1.390 . S
C2926 H2917 0.930 . S
C2926 C2924 1.384 . S
C2926 C2927 1.372 . S
C2927 C2926 1.372 . S
C2927 C2928 1.400 . S
C2927 C2932 1.490 . S
C2928 H2918 0.930 . S
C2928 C2927 1.400 . S
C2928 C2931 1.386 . S
H2929 C2945 0.930 . S
H2930 C2946 0.931 . S
C2931 H2919 0.929 . S
C2931 C2925 1.390 . S
C2931 C2928 1.386 . S
C2932 C2927 1.490 . S
C2932 C2934 1.395 1_545 S
C2932 C2935 1.403 . S
H2933 C2939 0.930 . S
C2934 H2920 0.930 . S
C2934 C2932 1.395 1_565 S
C2934 C2937 1.403 . S
C2935 C2932 1.403 . S
C2935 C2936 1.524 . S
C2935 C2939 1.400 . S
C2936 H2921 0.960 . S
C2936 H2922 0.960 . S
C2936 H2923 0.960 . S
C2936 C2935 1.524 . S
C2937 C2934 1.403 . S
C2937 C2938 1.392 . S
C2937 C2941 1.495 . S
C2938 C2937 1.392 . S
C2938 C2939 1.385 1_565 S
C2938 C2940 1.478 . S
C2939 H2933 0.930 . S
C2939 C2935 1.400 . S
C2939 C2938 1.385 1_545 S
C2940 C2938 1.478 . S
C2940 C2942 1.381 . S
C2940 C2946 1.383 . S
C2941 C2937 1.495 . S
C2941 H2947 0.959 . S
C2941 H2948 0.961 . S
C2941 H2949 0.960 . S
C2942 C2940 1.381 . S
C2942 C2943 1.394 . S
C2942 H2950 0.930 . S
C2943 C2942 1.394 . S
C2943 C2944 1.383 . S
C2943 H2951 0.929 . S
C2944 C2943 1.383 . S
C2944 C2945 1.377 . S
C2945 H2929 0.930 . S
C2945 C2944 1.377 . S
C2945 C2946 1.379 . S
C2946 H2930 0.931 . S
C2946 C2940 1.383 . S
C2946 C2945 1.379 . S
H2947 C2941 0.959 . S
H2948 C2941 0.961 . S
H2949 C2941 0.960 . S
H2950 C2942 0.930 . S
H2951 C2943 0.929 . S
H2952 C2960 0.929 . S
H2953 C2962 0.930 . S
H2954 C2964 0.930 . S
H2955 C2967 0.929 . S
H2956 C2970 0.930 . S
H2957 C2972 0.960 . S
H2958 C2972 0.960 . S
H2959 C2972 0.960 . S
C2960 H2952 0.929 . S
C2960 C2961 1.377 . S
C2960 C2962 1.384 . S
C2961 C2960 1.377 . S
C2961 C2967 1.390 . S
C2962 H2953 0.930 . S
C2962 C2960 1.384 . S
C2962 C2963 1.372 . S
C2963 C2962 1.372 . S
C2963 C2964 1.400 . S
C2963 C2968 1.490 . S
C2964 H2954 0.930 . S
C2964 C2963 1.400 . S
C2964 C2967 1.386 . S
H2965 C2981 0.930 . S
H2966 C2982 0.931 . S
C2967 H2955 0.929 . S
C2967 C2961 1.390 . S
C2967 C2964 1.386 . S
C2968 C2963 1.490 . S
C2968 C2970 1.395 1_655 S
C2968 C2971 1.403 . S
H2969 C2975 0.930 . S
C2970 H2956 0.930 . S
C2970 C2968 1.395 1_455 S
C2970 C2973 1.403 . S
C2971 C2968 1.403 . S
C2971 C2972 1.524 . S
C2971 C2975 1.400 . S
C2972 H2957 0.960 . S
C2972 H2958 0.960 . S
C2972 H2959 0.960 . S
C2972 C2971 1.524 . S
C2973 C2970 1.403 . S
C2973 C2974 1.392 . S
C2973 C2977 1.495 . S
C2974 C2973 1.392 . S
C2974 C2975 1.385 1_455 S
C2974 C2976 1.478 . S
C2975 H2969 0.930 . S
C2975 C2971 1.400 . S
C2975 C2974 1.385 1_655 S
C2976 C2974 1.478 . S
C2976 C2978 1.381 . S
C2976 C2982 1.383 . S
C2977 C2973 1.495 . S
C2977 H2983 0.959 . S
C2977 H2984 0.961 . S
C2977 H2985 0.960 . S
C2978 C2976 1.381 . S
C2978 C2979 1.394 . S
C2978 H2986 0.930 . S
C2979 C2978 1.394 . S
C2979 C2980 1.383 . S
C2979 H2987 0.929 . S
C2980 C2979 1.383 . S
C2980 C2981 1.377 . S
C2981 H2965 0.930 . S
C2981 C2980 1.377 . S
C2981 C2982 1.379 . S
C2982 H2966 0.931 . S
C2982 C2976 1.383 . S
C2982 C2981 1.379 . S
H2983 C2977 0.959 . S
H2984 C2977 0.961 . S
H2985 C2977 0.960 . S
H2986 C2978 0.930 . S
H2987 C2979 0.929 . S
H2988 C2996 0.929 . S
H2989 C2998 0.930 . S
H2990 C3000 0.930 . S
H2991 C3003 0.929 . S
H2992 C3006 0.930 . S
H2993 C3008 0.960 . S
H2994 C3008 0.960 . S
H2995 C3008 0.960 . S
C2996 H2988 0.929 . S
C2996 C2997 1.377 . S
C2996 C2998 1.384 . S
C2997 C2996 1.377 . S
C2997 C3003 1.390 . S
C2998 H2989 0.930 . S
C2998 C2996 1.384 . S
C2998 C2999 1.372 . S
C2999 C2998 1.372 . S
C2999 C3000 1.400 . S
C2999 C3004 1.490 . S
C3000 H2990 0.930 . S
C3000 C2999 1.400 . S
C3000 C3003 1.386 . S
H3001 C3017 0.930 . S
H3002 C3018 0.931 . S
C3003 H2991 0.929 . S
C3003 C2997 1.390 . S
C3003 C3000 1.386 . S
C3004 C2999 1.490 . S
C3004 C3006 1.395 . S
C3004 C3007 1.403 . S
H3005 C3011 0.930 . S
C3006 H2992 0.930 . S
C3006 C3004 1.395 . S
C3006 C3009 1.403 . S
C3007 C3004 1.403 . S
C3007 C3008 1.524 . S
C3007 C3011 1.400 . S
C3008 H2993 0.960 . S
C3008 H2994 0.960 . S
C3008 H2995 0.960 . S
C3008 C3007 1.524 . S
C3009 C3006 1.403 . S
C3009 C3010 1.392 . S
C3009 C3013 1.495 . S
C3010 C3009 1.392 . S
C3010 C3011 1.385 . S
C3010 C3012 1.478 . S
C3011 H3005 0.930 . S
C3011 C3007 1.400 . S
C3011 C3010 1.385 . S
C3012 C3010 1.478 . S
C3012 C3014 1.381 . S
C3012 C3018 1.383 . S
C3013 C3009 1.495 . S
C3013 H3019 0.959 . S
C3013 H3020 0.961 . S
C3013 H3021 0.960 . S
C3014 C3012 1.381 . S
C3014 C3015 1.394 . S
C3014 H3022 0.930 . S
C3015 C3014 1.394 . S
C3015 C3016 1.383 . S
C3015 H3023 0.929 . S
C3016 C3015 1.383 . S
C3016 C3017 1.377 . S
C3017 H3001 0.930 . S
C3017 C3016 1.377 . S
C3017 C3018 1.379 . S
C3018 H3002 0.931 . S
C3018 C3012 1.383 . S
C3018 C3017 1.379 . S
H3019 C3013 0.959 . S
H3020 C3013 0.961 . S
H3021 C3013 0.960 . S
H3022 C3014 0.930 . S
H3023 C3015 0.929 . S
H3024 C3032 0.929 . S
H3025 C3034 0.930 . S
H3026 C3036 0.930 . S
H3027 C3039 0.929 . S
H3028 C3042 0.930 . S
H3029 C3044 0.960 . S
H3030 C3044 0.960 . S
H3031 C3044 0.960 . S
C3032 H3024 0.929 . S
C3032 C3033 1.377 . S
C3032 C3034 1.384 . S
C3033 C3032 1.377 . S
C3033 C3039 1.390 . S
C3034 H3025 0.930 . S
C3034 C3032 1.384 . S
C3034 C3035 1.372 . S
C3035 C3034 1.372 . S
C3035 C3036 1.400 . S
C3035 C3040 1.490 . S
C3036 H3026 0.930 . S
C3036 C3035 1.400 . S
C3036 C3039 1.386 . S
H3037 C3053 0.930 . S
H3038 C3054 0.931 . S
C3039 H3027 0.929 . S
C3039 C3033 1.390 . S
C3039 C3036 1.386 . S
C3040 C3035 1.490 . S
C3040 C3042 1.395 1_545 S
C3040 C3043 1.403 . S
H3041 C3047 0.930 . S
C3042 H3028 0.930 . S
C3042 C3040 1.395 1_565 S
C3042 C3045 1.403 . S
C3043 C3040 1.403 . S
C3043 C3044 1.524 . S
C3043 C3047 1.400 . S
C3044 H3029 0.960 . S
C3044 H3030 0.960 . S
C3044 H3031 0.960 . S
C3044 C3043 1.524 . S
C3045 C3042 1.403 . S
C3045 C3046 1.392 . S
C3045 C3049 1.495 . S
C3046 C3045 1.392 . S
C3046 C3047 1.385 1_565 S
C3046 C3048 1.478 . S
C3047 H3041 0.930 . S
C3047 C3043 1.400 . S
C3047 C3046 1.385 1_545 S
C3048 C3046 1.478 . S
C3048 C3050 1.381 . S
C3048 C3054 1.383 . S
C3049 C3045 1.495 . S
C3049 H3055 0.959 . S
C3049 H3056 0.961 . S
C3049 H3057 0.960 . S
C3050 C3048 1.381 . S
C3050 C3051 1.394 . S
C3050 H3058 0.930 . S
C3051 C3050 1.394 . S
C3051 C3052 1.383 . S
C3051 H3059 0.929 . S
C3052 C3051 1.383 . S
C3052 C3053 1.377 . S
C3053 H3037 0.930 . S
C3053 C3052 1.377 . S
C3053 C3054 1.379 . S
C3054 H3038 0.931 . S
C3054 C3048 1.383 . S
C3054 C3053 1.379 . S
H3055 C3049 0.959 . S
H3056 C3049 0.961 . S
H3057 C3049 0.960 . S
H3058 C3050 0.930 . S
H3059 C3051 0.929 . S
H3060 C3068 0.929 . S
H3061 C3070 0.930 . S
H3062 C3072 0.930 . S
H3063 C3075 0.929 . S
H3064 C3078 0.930 . S
H3065 C3080 0.960 . S
H3066 C3080 0.960 . S
H3067 C3080 0.960 . S
C3068 H3060 0.929 . S
C3068 C3069 1.377 . S
C3068 C3070 1.384 . S
C3069 C3068 1.377 . S
C3069 C3075 1.390 . S
C3070 H3061 0.930 . S
C3070 C3068 1.384 . S
C3070 C3071 1.372 . S
C3071 C3070 1.372 . S
C3071 C3072 1.400 . S
C3071 C3076 1.490 . S
C3072 H3062 0.930 . S
C3072 C3071 1.400 . S
C3072 C3075 1.386 . S
H3073 C3089 0.930 . S
H3074 C3090 0.931 . S
C3075 H3063 0.929 . S
C3075 C3069 1.390 . S
C3075 C3072 1.386 . S
C3076 C3071 1.490 . S
C3076 C3078 1.395 . S
C3076 C3079 1.403 1_455 S
H3077 C3083 0.930 . S
C3078 H3064 0.930 . S
C3078 C3076 1.395 . S
C3078 C3081 1.403 . S
C3079 C3076 1.403 1_655 S
C3079 C3080 1.524 . S
C3079 C3083 1.400 . S
C3080 H3065 0.960 . S
C3080 H3066 0.960 . S
C3080 H3067 0.960 . S
C3080 C3079 1.524 . S
C3081 C3078 1.403 . S
C3081 C3082 1.392 1_455 S
C3081 C3085 1.495 . S
C3082 C3081 1.392 1_655 S
C3082 C3083 1.385 . S
C3082 C3084 1.478 . S
C3083 H3077 0.930 . S
C3083 C3079 1.400 . S
C3083 C3082 1.385 . S
C3084 C3082 1.478 . S
C3084 C3086 1.381 . S
C3084 C3090 1.383 . S
C3085 C3081 1.495 . S
C3085 H3091 0.959 . S
C3085 H3092 0.961 . S
C3085 H3093 0.960 . S
C3086 C3084 1.381 . S
C3086 C3087 1.394 . S
C3086 H3094 0.930 . S
C3087 C3086 1.394 . S
C3087 C3088 1.383 . S
C3087 H3095 0.929 . S
C3088 C3087 1.383 . S
C3088 C3089 1.377 . S
C3089 H3073 0.930 . S
C3089 C3088 1.377 . S
C3089 C3090 1.379 . S
C3090 H3074 0.931 . S
C3090 C3084 1.383 . S
C3090 C3089 1.379 . S
H3091 C3085 0.959 . S
H3092 C3085 0.961 . S
H3093 C3085 0.960 . S
H3094 C3086 0.930 . S
H3095 C3087 0.929 . S
C513 C79 0.616 . S
C532 C9 0.645 . S
C549 C51 0.612 . S
C568 C23 0.658 . S
C585 C37 0.610 . S
C604 C65 0.657 . S
C621 C93 0.612 . S
C640 C163 0.634 . S
C657 C107 0.619 . S
C676 C135 0.658 . S
C693 C149 0.624 . S
C712 C121 0.595 . S
C729 C177 0.623 . S
C748 C247 0.613 . S
C765 C191 0.626 . S
C784 C219 0.580 . S
C801 C233 0.611 . S
C820 C205 0.659 . S
C837 C331 0.618 . S
C856 C261 0.580 . S
C873 C303 0.621 . S
C892 C275 0.585 . S
C909 C289 0.611 . S
C928 C317 0.609 . S
C945 C415 0.611 . S
C964 C345 0.659 . S
C981 C387 0.626 . S
C1000 C359 0.581 . S
C1017 C373 0.611 . S
C1036 C401 0.657 . S
C1053 C499 0.625 . S
C1072 C429 0.650 . S
C1089 C471 0.619 . S
C1108 C443 0.658 . S
C1125 C485 0.621 . S
C1144 C457 0.584 . S
C1161 C231 1.469 . S
C1180 C7 1.479 . S
C1197 C245 1.456 . S
C1216 C21 1.430 . S
C1233 C217 1.466 . S
C1252 C35 1.452 . S
C1269 C49 1.458 . S
C1288 C371 1.426 . S
C1305 C63 1.456 . S
C1324 C343 1.438 . S
C1341 C77 1.461 . S
C1360 C357 1.432 . S
C1377 C91 1.456 . S
C1396 C483 1.492 . S
C1413 C497 1.468 . S
C1432 C105 1.430 . S
C1449 C469 1.456 . S
C1468 C119 1.492 . S
C1485 C287 1.462 . S
C1504 C133 1.467 . S
C1521 C259 1.456 . S
C1540 C147 1.493 . S
C1557 C161 1.458 . S
C1576 C273 1.487 . S
C1593 C175 1.467 . S
C1612 C399 1.461 . S
C1629 C413 1.469 . S
C1648 C189 1.478 . S
C1665 C385 1.466 . S
C1684 C203 1.491 . S
C1701 C301 1.457 . S
C1720 C455 1.488 . S
C1737 C427 1.469 . S
C1756 C315 1.430 . S
C1773 C329 1.459 . S
C1792 C441 1.470 . S
C1809 C260 1.626 . S
C1828 C8 1.614 . S
C1845 C274 1.629 . S
C1864 C22 1.629 . S
C1881 C36 1.624 . S
C1900 C288 1.613 . S
C1917 C50 1.628 . S
C1936 C470 1.623 . S
C1953 C484 1.627 . S
C1972 C64 1.633 . S
C1989 C498 1.625 . S
C2008 C78 1.613 . S
C2025 C92 1.628 . S
C2044 C344 1.633 . S
C2061 C106 1.625 . S
C2080 C358 1.626 . S
C2097 C372 1.625 . S
C2116 C120 1.612 . S
C2133 C134 1.626 . S
C2152 C218 1.613 . S
C2169 C148 1.625 . S
C2188 C232 1.612 . S
C2205 C246 1.628 . S
C2224 C162 1.633 . S
C2241 C176 1.628 . S
C2260 C428 1.633 . S
C2277 C190 1.625 . S
C2296 C442 1.613 . S
C2313 C456 1.627 . S
C2332 C204 1.633 . S
C2349 C386 1.628 . S
C2368 C302 1.621 . S
C2385 C316 1.624 . S
C2404 C400 1.613 . S
C2421 C330 1.627 . S
C2440 C414 1.615 . S
C2457 C381 1.575 . S
C2476 C3 1.590 . S
C2493 C17 1.581 . S
C2512 C395 1.562 . S
C2529 C409 1.581 . S
C2548 C31 1.558 . S
C2565 C45 1.573 . S
C2584 C171 1.598 . S
C2601 C185 1.572 . S
C2620 C59 1.598 . S
C2637 C199 1.577 . S
C2656 C73 1.580 . S
C2673 C87 1.580 . S
C2692 C297 1.599 . S
C2709 C311 1.582 . S
C2728 C101 1.591 . S
C2745 C115 1.579 . S
C2764 C325 1.555 . S
C2781 C129 1.573 . S
C2800 C423 1.551 . S
C2817 C143 1.578 . S
C2836 C437 1.600 . S
C2853 C451 1.572 . S
C2872 C157 1.558 . S
C2889 C213 1.579 . S
C2908 C339 1.573 . S
C2925 C227 1.582 . S
C2944 C353 1.549 . S
C2961 C241 1.578 . S
C2980 C367 1.576 . S
C2997 C255 1.572 . S
C3016 C465 1.575 . S
C3033 C269 1.572 . S
C3052 C479 1.575 . S
C3069 C493 1.581 . S
C3088 C283 1.597 . S
