# Generated by pormake.
# Topology sra, (4)-cn, num edge types: 1
# Building blocks:
#     Node 0, Type 0, BuildingBlock: ICAMEG_clean_sbu_1, # of connection points: 4
#     Node 1, Type 0, BuildingBlock: ICAMEG_clean_sbu_1, # of connection points: 4
#     Node 2, Type 0, BuildingBlock: ICAMEG_clean_sbu_1, # of connection points: 4
#     Node 3, Type 0, BuildingBlock: ICAMEG_clean_sbu_1, # of connection points: 4
#     Node 4, Type 0, BuildingBlock: ICAMEG_clean_sbu_1, # of connection points: 4
#     Node 5, Type 0, BuildingBlock: ICAMEG_clean_sbu_1, # of connection points: 4
#     Node 6, Type 0, BuildingBlock: ICAMEG_clean_sbu_1, # of connection points: 4
#     Node 7, Type 0, BuildingBlock: ICAMEG_clean_sbu_1, # of connection points: 4
#     Edge 8, Type (0, 0), BuildingBlock: XIVTED_clean_linker_0, # of connection points: 2
#     Edge 9, Type (0, 0), BuildingBlock: XIVTED_clean_linker_0, # of connection points: 2
#     Edge 10, Type (0, 0), BuildingBlock: XIVTED_clean_linker_0, # of connection points: 2
#     Edge 11, Type (0, 0), BuildingBlock: XIVTED_clean_linker_0, # of connection points: 2
#     Edge 12, Type (0, 0), BuildingBlock: XIVTED_clean_linker_0, # of connection points: 2
#     Edge 13, Type (0, 0), BuildingBlock: XIVTED_clean_linker_0, # of connection points: 2
#     Edge 14, Type (0, 0), BuildingBlock: XIVTED_clean_linker_0, # of connection points: 2
#     Edge 15, Type (0, 0), BuildingBlock: XIVTED_clean_linker_0, # of connection points: 2
#     Edge 16, Type (0, 0), BuildingBlock: XIVTED_clean_linker_0, # of connection points: 2
#     Edge 17, Type (0, 0), BuildingBlock: XIVTED_clean_linker_0, # of connection points: 2
#     Edge 18, Type (0, 0), BuildingBlock: XIVTED_clean_linker_0, # of connection points: 2
#     Edge 19, Type (0, 0), BuildingBlock: XIVTED_clean_linker_0, # of connection points: 2
#     Edge 20, Type (0, 0), BuildingBlock: XIVTED_clean_linker_0, # of connection points: 2
#     Edge 21, Type (0, 0), BuildingBlock: XIVTED_clean_linker_0, # of connection points: 2
#     Edge 22, Type (0, 0), BuildingBlock: XIVTED_clean_linker_0, # of connection points: 2
#     Edge 23, Type (0, 0), BuildingBlock: XIVTED_clean_linker_0, # of connection points: 2
# Relax obj value: 0.021
# Max RMSD: 0.061
# Mean RMSD: 0.061
data_MOF--net-sra--node1-ICAMEG_clean_sbu_1--edge1-XIVTED_clean_linker_0
_symmetry_space_group_name_H-M    P1
_symmetry_Int_Tables_number       1
_symmetry_cell_setting            triclinic
loop_
_symmetry_equiv_pos_as_xyz
'x, y, z'
_cell_length_a     30.50031
_cell_length_b     56.439132
_cell_length_c     31.007576
_cell_angle_alpha  89.975956
_cell_angle_beta   89.974765
_cell_angle_gamma 90.039607
loop_
_atom_site_label
_atom_site_type_symbol
_atom_site_fract_x
_atom_site_fract_y
_atom_site_fract_z
_atom_type_partial_charge
Co0 Co 0.0008 0.1193 0.22492 0.0
Co1 Co 0.96299 0.12738 0.12127 0.0
O2 O 0.00274 0.11257 0.16304 0.0
C3 C 0.09401 0.12787 0.20412 0.0
O4 O 0.08135 0.13948 0.1696 0.0
C5 C 0.9533 0.07591 0.10381 0.0
O6 O 0.94833 0.07292 0.14552 0.0
O7 O 0.91081 0.11819 0.15621 0.0
O8 O 0.9356 0.12103 0.22408 0.0
H9 H 0.83594 0.17797 0.07496 0.0
H10 H 0.04992 0.07753 0.19359 0.0
O11 O 0.066 0.11782 0.22838 0.0
H12 H 0.93715 0.04546 0.29159 0.0
H13 H 0.04701 0.10918 0.37975 0.0
H14 H 0.9513 0.15306 0.27954 0.0
H15 H 0.94331 0.08851 0.2794 0.0
H16 H 0.04791 0.10031 0.30187 0.0
O17 O 0.95928 0.09665 0.08861 0.0
H18 H 0.8868 0.15981 0.12723 0.0
H19 H 0.95449 0.12515 0.02552 0.0
H20 H 0.94905 0.16236 0.35724 0.0
H21 H 0.04518 0.03434 0.20513 0.0
H22 H -0.00282 0.14034 0.40792 0.0
H23 H 0.98837 0.01805 0.25434 0.0
O24 O 0.00491 0.15387 0.2134 0.0
H25 H 0.10773 0.11328 0.04823 0.0
H26 H 0.99299 0.17231 0.07978 0.0
H27 H 0.05818 0.18424 0.03799 0.0
H28 H 0.11607 0.1546 0.02187 0.0
H29 H 0.04219 0.10216 0.09029 0.0
H30 H 0.90417 0.14278 0.97217 0.0
H31 H 0.84447 0.16947 0.9968 0.0
O32 O 0.9661 0.15861 0.15234 0.0
C33 C 0.90465 0.11864 0.1969 0.0
C34 C 0.86191 0.16643 0.06381 0.0
C35 C 0.90016 0.14666 0.00613 0.0
N36 N 0.92376 0.14159 0.07941 0.0
C37 C 0.89088 0.15615 0.09325 0.0
C38 C 0.9285 0.13669 0.03649 0.0
C39 C 0.86669 0.16163 0.01997 0.0
C40 C 0.02538 0.07057 0.21534 0.0
N41 N -0.00298 0.08552 0.23587 0.0
C42 C 0.02274 0.0461 0.22163 0.0
C43 C 0.99082 0.03698 0.24919 0.0
C44 C 0.96204 0.05234 0.27007 0.0
C45 C 0.9656 0.0767 0.26294 0.0
C46 C 0.02583 0.11886 0.35801 0.0
C47 C 0.97215 0.14331 0.30144 0.0
C48 C 0.02626 0.11395 0.31386 0.0
N49 N -0.00054 0.12605 0.28624 0.0
C50 C 0.97081 0.14869 0.34538 0.0
C51 C -0.00215 0.13635 0.37379 0.0
C52 C 0.98643 0.16684 0.18509 0.0
C53 C 0.08267 0.12633 0.05494 0.0
C54 C 0.01811 0.15933 0.07305 0.0
C55 C 0.0549 0.16617 0.04927 0.0
C56 C 0.08736 0.14953 0.04022 0.0
N57 N 0.01371 0.13653 0.08731 0.0
C58 C 0.04541 0.12012 0.07859 0.0
Co59 Co -0.00257 0.39104 0.22842 0.0
Co60 Co 0.03538 0.3827 0.12517 0.0
O61 O 0.9955 0.3978 0.16649 0.0
C62 C 0.90386 0.38338 0.20768 0.0
O63 O 0.91645 0.37164 0.1733 0.0
C64 C 0.04407 0.43403 0.10324 0.0
O65 O 0.05028 0.4385 0.14435 0.0
O66 O 0.08718 0.393 0.15947 0.0
O67 O 0.06286 0.38869 0.22731 0.0
H68 H 0.16449 0.33308 0.08098 0.0
H69 H 0.9498 0.43333 0.1972 0.0
O70 O 0.93209 0.39314 0.23211 0.0
H71 H 0.06338 0.46411 0.29553 0.0
H72 H 0.95179 0.40133 0.38341 0.0
H73 H 0.04614 0.35684 0.28284 0.0
H74 H 0.05596 0.42116 0.28293 0.0
H75 H 0.95096 0.4103 0.30554 0.0
O76 O 0.03773 0.41282 0.09063 0.0
H77 H 0.11303 0.35139 0.13248 0.0
H78 H 0.04318 0.38332 0.02923 0.0
H79 H 0.0483 0.34744 0.36051 0.0
H80 H 0.9558 0.47644 0.20915 0.0
H81 H 0.00085 0.36976 0.41137 0.0
H82 H 0.013 0.49207 0.25856 0.0
O83 O 0.99206 0.35652 0.21683 0.0
H84 H 0.88977 0.39412 0.05239 0.0
H85 H 0.00682 0.33682 0.0862 0.0
H86 H 0.94181 0.32356 0.0456 0.0
H87 H 0.88274 0.35232 0.02835 0.0
H88 H 0.95515 0.40658 0.09336 0.0
H89 H 0.09407 0.36548 0.97663 0.0
H90 H 0.15517 0.34009 1.00242 0.0
O91 O 0.03372 0.35189 0.1577 0.0
C92 C 0.09366 0.39185 0.20007 0.0
C93 C 0.13792 0.34404 0.06933 0.0
C94 C 0.09843 0.36226 0.01077 0.0
N95 N 0.07496 0.36826 0.08387 0.0
C96 C 0.10861 0.35441 0.09833 0.0
C97 C 0.06977 0.37235 0.04072 0.0
C98 C 0.13269 0.34801 0.02527 0.0
C99 C 0.97454 0.44001 0.21899 0.0
N100 N 0.00239 0.42476 0.23943 0.0
C101 C 0.97788 0.46443 0.22552 0.0
C102 C 0.01002 0.47319 0.2532 0.0
C103 C 0.03832 0.45751 0.27393 0.0
C104 C 0.03405 0.43321 0.26657 0.0
C105 C 0.97267 0.39152 0.36158 0.0
C106 C 0.02561 0.36673 0.30481 0.0
C107 C 0.97228 0.39648 0.31745 0.0
N108 N -0.00128 0.38422 0.28973 0.0
C109 C 0.02688 0.36128 0.34874 0.0
C110 C 0.00022 0.3738 0.37725 0.0
C111 C 0.01193 0.34358 0.18944 0.0
C112 C 0.91535 0.38144 0.05961 0.0
C113 C 0.98119 0.34943 0.079 0.0
C114 C 0.9445 0.34183 0.05588 0.0
C115 C 0.91139 0.35798 0.04619 0.0
N116 N 0.98485 0.37249 0.09202 0.0
C117 C 0.95252 0.38842 0.08263 0.0
Co118 Co -0.00099 0.88949 0.78221 0.0
Co119 Co 0.96531 0.88417 0.88835 0.0
O120 O 0.0033 0.89762 0.84354 0.0
C121 C 0.09183 0.87924 0.802 0.0
O122 O 0.07897 0.86909 0.83796 0.0
C123 C 0.95508 0.93631 0.90113 0.0
O124 O 0.95035 0.93867 0.85926 0.0
O125 O 0.91144 0.89146 0.85399 0.0
O126 O 0.93413 0.88981 0.78519 0.0
H127 H 0.84218 0.83365 0.94444 0.0
H128 H 0.05339 0.93028 0.80949 0.0
O129 O 0.06412 0.88892 0.77698 0.0
H130 H 0.94149 0.96385 0.71238 0.0
H131 H 0.04184 0.89515 0.62566 0.0
H132 H 0.94416 0.85644 0.73113 0.0
H133 H 0.94342 0.92094 0.72728 0.0
H134 H 0.04604 0.90539 0.70287 0.0
O135 O 0.96115 0.91587 0.91749 0.0
H136 H 0.89062 0.85059 0.88862 0.0
H137 H 0.95937 0.88983 0.98394 0.0
H138 H 0.93859 0.84581 0.65417 0.0
H139 H 0.05291 0.97329 0.7952 0.0
H140 H 0.98768 0.86522 0.60085 0.0
H141 H -0.00343 0.99033 0.74643 0.0
O142 O -0.0005 0.85491 0.79548 0.0
H143 H 0.11219 0.90288 0.9533 0.0
H144 H -0.00198 0.84175 0.9362 0.0
H145 H 0.06516 0.83235 0.97698 0.0
H146 H 0.12282 0.86307 0.98581 0.0
H147 H 0.0447 0.91141 0.91235 0.0
H148 H 0.91144 0.87348 0.04072 0.0
H149 H 0.85246 0.84509 0.02112 0.0
O150 O 0.96919 0.85203 0.86132 0.0
C151 C 0.90408 0.89166 0.81344 0.0
C152 C 0.86784 0.84595 0.9534 0.0
C153 C 0.90667 0.86834 0.00743 0.0
N154 N 0.92794 0.87106 0.93303 0.0
C155 C 0.89543 0.85555 0.92196 0.0
C156 C 0.93362 0.87759 0.97512 0.0
C157 C 0.8736 0.8524 0.99641 0.0
C158 C 0.02902 0.93755 0.78794 0.0
N159 N -0.00144 0.92311 0.76915 0.0
C160 C 0.0288 0.96192 0.78009 0.0
C161 C -0.00286 0.97148 0.75278 0.0
C162 C 0.96621 0.95663 0.73369 0.0
C163 C 0.96739 0.93235 0.74234 0.0
C164 C 0.02022 0.8866 0.64857 0.0
C165 C 0.96546 0.86506 0.70808 0.0
C166 C 0.02251 0.89229 0.69235 0.0
N167 N 0.99516 0.88163 0.72143 0.0
C168 C 0.96223 0.85893 0.66457 0.0
C169 C 0.98982 0.86981 0.63467 0.0
C170 C 0.9847 0.84276 0.82699 0.0
C171 C 0.08729 0.88935 0.94971 0.0
C172 C 0.02307 0.85513 0.9396 0.0
C173 C 0.06095 0.84975 0.9629 0.0
C174 C 0.09326 0.867 0.96789 0.0
N175 N 0.01746 0.87708 0.92182 0.0
C176 C 0.04895 0.8941 0.92667 0.0
Co177 Co -0.00129 0.61863 0.77776 0.0
Co178 Co 0.03259 0.62367 0.88387 0.0
O179 O 0.9947 0.61028 0.83901 0.0
C180 C 0.90619 0.6288 0.79856 0.0
O181 O 0.9197 0.63881 0.83439 0.0
C182 C 0.04409 0.5716 0.89589 0.0
O183 O 0.05009 0.56966 0.8541 0.0
O184 O 0.08645 0.61673 0.84923 0.0
O185 O 0.06366 0.61838 0.78045 0.0
H186 H 0.15556 0.67415 0.94022 0.0
H187 H 0.94464 0.57766 0.80491 0.0
O188 O 0.93349 0.61919 0.77299 0.0
H189 H 0.05619 0.54464 0.70674 0.0
H190 H 0.955 0.61354 0.62143 0.0
H191 H 0.05329 0.65187 0.72667 0.0
H192 H 0.05419 0.58748 0.72222 0.0
H193 H 0.95124 0.60302 0.69857 0.0
O194 O 0.03696 0.59184 0.9126 0.0
H195 H 0.10698 0.65744 0.88436 0.0
H196 H 0.03884 0.61757 0.97935 0.0
H197 H 0.05841 0.66277 0.64979 0.0
H198 H 0.94522 0.53471 0.79007 0.0
H199 H 0.00901 0.64355 0.59658 0.0
H200 H 0.00138 0.51794 0.74075 0.0
O201 O -0.00179 0.65315 0.79134 0.0
H202 H 0.88592 0.60435 0.94884 0.0
H203 H -0.00035 0.66579 0.93236 0.0
H204 H 0.93245 0.67488 0.97334 0.0
H205 H 0.87501 0.644 0.98185 0.0
H206 H 0.95346 0.59613 0.9077 0.0
H207 H 0.0869 0.63369 0.03617 0.0
H208 H 0.14566 0.66227 0.01676 0.0
O209 O 0.02838 0.65593 0.85723 0.0
C210 C 0.09378 0.61663 0.80865 0.0
C211 C 0.13 0.66177 0.94911 0.0
C212 C 0.0915 0.63903 1.00295 0.0
N213 N 0.06995 0.63667 0.92862 0.0
C214 C 0.10232 0.6523 0.91764 0.0
C215 C 0.06447 0.62991 0.97061 0.0
C216 C 0.12445 0.65507 0.99203 0.0
C217 C 0.96894 0.57051 0.78314 0.0
N218 N -0.00077 0.58506 0.76434 0.0
C219 C 0.96921 0.54617 0.77498 0.0
C220 C 0.00077 0.53677 0.74735 0.0
C221 C 0.03155 0.55174 0.72828 0.0
C222 C 0.03032 0.57597 0.73725 0.0
C223 C 0.97676 0.62201 0.64429 0.0
C224 C 0.03186 0.64333 0.70367 0.0
C225 C 0.97471 0.61616 0.68802 0.0
N226 N 0.00223 0.62671 0.71704 0.0
C227 C 0.03483 0.64962 0.6602 0.0
C228 C 0.00708 0.63884 0.63037 0.0
C229 C 0.01289 0.66525 0.82294 0.0
C230 C 0.91072 0.61794 0.94539 0.0
C231 C 0.9747 0.65234 0.93564 0.0
C232 C 0.93678 0.65754 0.95905 0.0
C233 C 0.9046 0.64021 0.96385 0.0
N234 N 0.98046 0.63048 0.91756 0.0
C235 C 0.9491 0.61337 0.92225 0.0
Co236 Co 0.49852 0.61945 0.72908 0.0
Co237 Co 0.46433 0.62655 0.6234 0.0
O238 O 0.50223 0.61227 0.66732 0.0
C239 C 0.59104 0.62995 0.7084 0.0
O240 O 0.57751 0.6405 0.67309 0.0
C241 C 0.45261 0.57473 0.6089 0.0
O242 O 0.44819 0.57205 0.65074 0.0
O243 O 0.41052 0.61927 0.6579 0.0
O244 O 0.43356 0.61918 0.72666 0.0
H245 H 0.34215 0.6786 0.57036 0.0
H246 H 0.55259 0.5791 0.69925 0.0
O247 O 0.56375 0.61999 0.73359 0.0
H248 H 0.44136 0.54406 0.79557 0.0
H249 H 0.54305 0.61149 0.88477 0.0
H250 H 0.44416 0.65165 0.78241 0.0
H251 H 0.44328 0.58718 0.78281 0.0
H252 H 0.54637 0.60239 0.80704 0.0
O253 O 0.45906 0.59526 0.59307 0.0
H254 H 0.39061 0.66069 0.62508 0.0
H255 H 0.45747 0.62206 0.52768 0.0
H256 H 0.43949 0.66114 0.85992 0.0
H257 H 0.5521 0.53589 0.71136 0.0
H258 H 0.4892 0.64099 0.91168 0.0
H259 H 0.49609 0.51811 0.75974 0.0
O260 O 0.49893 0.65421 0.71766 0.0
H261 H 0.61021 0.60754 0.55657 0.0
H262 H 0.4978 0.66925 0.57682 0.0
H263 H 0.56489 0.67864 0.53585 0.0
H264 H 0.62166 0.64762 0.52543 0.0
H265 H 0.5428 0.59903 0.59775 0.0
H266 H 0.40951 0.63939 0.47196 0.0
H267 H 0.35146 0.66795 0.49318 0.0
O268 O 0.4693 0.65829 0.65174 0.0
C269 C 0.40333 0.61819 0.69845 0.0
C270 C 0.3674 0.66623 0.5607 0.0
C271 C 0.40516 0.64419 0.50548 0.0
N272 N 0.42699 0.64047 0.57956 0.0
C273 C 0.39501 0.65608 0.59152 0.0
C274 C 0.43214 0.63439 0.53719 0.0
C275 C 0.37261 0.66022 0.51741 0.0
C276 C 0.52837 0.5715 0.72064 0.0
N277 N 0.49811 0.58565 0.74042 0.0
C278 C 0.52815 0.54702 0.72725 0.0
C279 C 0.49668 0.53705 0.75434 0.0
C280 C 0.46594 0.5516 0.77443 0.0
C281 C 0.46711 0.576 0.767 0.0
C282 C 0.52116 0.62035 0.86255 0.0
C283 C 0.46572 0.6427 0.80477 0.0
C284 C 0.52295 0.61531 0.81849 0.0
N285 N 0.49527 0.62636 0.79026 0.0
C286 C 0.463 0.6482 0.84861 0.0
C287 C 0.49093 0.6369 0.87763 0.0
C288 C 0.48459 0.66692 0.6867 0.0
C289 C 0.5857 0.6212 0.56086 0.0
C290 C 0.52248 0.65574 0.57274 0.0
C291 C 0.56033 0.66112 0.54933 0.0
C292 C 0.59214 0.6437 0.54345 0.0
N293 N 0.51641 0.63365 0.58978 0.0
C294 C 0.54741 0.61646 0.58403 0.0
Co295 Co 0.49997 0.89106 0.73279 0.0
Co296 Co 0.53473 0.88496 0.62714 0.0
O297 O 0.49625 0.89889 0.67113 0.0
C298 C 0.40729 0.88068 0.71285 0.0
O299 O 0.42041 0.87017 0.67736 0.0
C300 C 0.542 0.93719 0.60924 0.0
O301 O 0.54279 0.94167 0.65078 0.0
O302 O 0.58806 0.89323 0.66149 0.0
O303 O 0.56496 0.89112 0.73017 0.0
H304 H 0.65993 0.83476 0.57504 0.0
H305 H 0.44609 0.93186 0.70476 0.0
O306 O 0.43481 0.89071 0.73763 0.0
H307 H 0.55768 0.96549 0.80219 0.0
H308 H 0.45599 0.89758 0.88893 0.0
H309 H 0.5541 0.85815 0.78489 0.0
H310 H 0.55577 0.92259 0.78735 0.0
H311 H 0.45256 0.9075 0.81152 0.0
O312 O 0.53875 0.91597 0.59575 0.0
H313 H 0.61058 0.85224 0.62945 0.0
H314 H 0.54065 0.88854 0.53116 0.0
H315 H 0.55891 0.84786 0.86206 0.0
H316 H 0.44652 0.97487 0.71903 0.0
H317 H 0.50958 0.86762 0.91466 0.0
H318 H 0.50269 0.99195 0.76799 0.0
O319 O 0.49897 0.85638 0.72037 0.0
H320 H 0.38784 0.90171 0.56064 0.0
H321 H 0.50294 0.84153 0.58154 0.0
H322 H 0.43611 0.83109 0.5411 0.0
H323 H 0.37799 0.86132 0.53035 0.0
H324 H 0.45503 0.91129 0.60132 0.0
H325 H 0.58948 0.87164 0.47576 0.0
H326 H 0.64954 0.84446 0.49758 0.0
O327 O 0.53147 0.8533 0.65574 0.0
C328 C 0.59517 0.89327 0.7021 0.0
C329 C 0.63382 0.84654 0.56513 0.0
C330 C 0.59432 0.86726 0.50941 0.0
N331 N 0.57266 0.8713 0.5835 0.0
C332 C 0.60572 0.85644 0.59577 0.0
C333 C 0.56686 0.87684 0.54095 0.0
C334 C 0.628 0.852 0.52167 0.0
C335 C 0.47042 0.93916 0.72634 0.0
N336 N 0.5008 0.92473 0.74525 0.0
C337 C 0.4706 0.96352 0.73419 0.0
C338 C 0.50217 0.9731 0.76162 0.0
C339 C 0.53306 0.95827 0.78078 0.0
C340 C 0.53191 0.93399 0.77214 0.0
C341 C 0.47771 0.88887 0.86633 0.0
C342 C 0.53272 0.86693 0.80762 0.0
C343 C 0.47586 0.89438 0.82245 0.0
N344 N 0.50331 0.88352 0.79376 0.0
C345 C 0.53551 0.86099 0.85126 0.0
C346 C 0.50779 0.87207 0.88075 0.0
C347 C 0.515 0.84412 0.68966 0.0
C348 C 0.41295 0.88839 0.56506 0.0
C349 C 0.4777 0.85471 0.5773 0.0
C350 C 0.43999 0.84874 0.5542 0.0
C351 C 0.40741 0.86572 0.54813 0.0
N352 N 0.4829 0.87698 0.59385 0.0
C353 C 0.45113 0.89373 0.58794 0.0
Co354 Co 0.49611 0.39054 0.28436 0.0
Co355 Co 0.46361 0.38403 0.39066 0.0
O356 O 0.50055 0.39831 0.34584 0.0
C357 C 0.58982 0.38181 0.30344 0.0
O358 O 0.57768 0.3714 0.33939 0.0
C359 C 0.45138 0.43585 0.40491 0.0
O360 O 0.44599 0.43844 0.36316 0.0
O361 O 0.40909 0.39094 0.35704 0.0
O362 O 0.43106 0.3899 0.28796 0.0
H363 H 0.34316 0.33159 0.44656 0.0
H364 H 0.54866 0.43192 0.31213 0.0
O365 O 0.56137 0.39096 0.27851 0.0
H366 H 0.43423 0.46449 0.21676 0.0
H367 H 0.53725 0.39782 0.1276 0.0
H368 H 0.44236 0.35709 0.23302 0.0
H369 H 0.43847 0.42152 0.23063 0.0
H370 H 0.54165 0.40761 0.20499 0.0
O371 O 0.45849 0.41539 0.42072 0.0
H372 H 0.39029 0.34957 0.39074 0.0
H373 H 0.45849 0.3888 0.48645 0.0
H374 H 0.43663 0.34688 0.15588 0.0
H375 H 0.54586 0.475 0.29887 0.0
H376 H 0.48432 0.36731 0.10258 0.0
H377 H 0.48824 0.49154 0.25098 0.0
O378 O 0.49843 0.35589 0.29682 0.0
H379 H 0.61033 0.40398 0.45473 0.0
H380 H 0.49858 0.34162 0.43696 0.0
H381 H 0.56652 0.3327 0.47681 0.0
H382 H 0.62296 0.36404 0.48599 0.0
H383 H 0.54209 0.41203 0.41467 0.0
H384 H 0.41186 0.37141 0.54325 0.0
H385 H 0.35382 0.3425 0.52345 0.0
O386 O 0.46846 0.35221 0.36267 0.0
C387 C 0.40121 0.39123 0.31659 0.0
C388 C 0.36842 0.34411 0.45561 0.0
C389 C 0.40693 0.36649 0.50987 0.0
N390 N 0.42726 0.3701 0.43534 0.0
C391 C 0.39527 0.35431 0.42416 0.0
C392 C 0.43315 0.37633 0.47754 0.0
C393 C 0.37438 0.35026 0.49874 0.0
C394 C 0.52374 0.43898 0.29095 0.0
N395 N 0.49386 0.42422 0.27207 0.0
C396 C 0.52221 0.46339 0.28369 0.0
C397 C 0.48983 0.47266 0.25687 0.0
C398 C 0.4595 0.45749 0.23769 0.0
C399 C 0.46199 0.43318 0.24575 0.0
C400 C 0.51624 0.38882 0.1505 0.0
C401 C 0.46304 0.36615 0.20998 0.0
C402 C 0.51865 0.39426 0.19437 0.0
N403 N 0.49207 0.38304 0.22344 0.0
C404 C 0.45973 0.36025 0.16636 0.0
C405 C 0.48653 0.37171 0.13648 0.0
C406 C 0.48417 0.34336 0.32808 0.0
C407 C 0.58597 0.39018 0.45099 0.0
C408 C 0.5231 0.35527 0.44049 0.0
C409 C 0.56144 0.35016 0.46328 0.0
C410 C 0.59307 0.36776 0.46846 0.0
N411 N 0.51639 0.37729 0.42339 0.0
C412 C 0.5472 0.39466 0.42845 0.0
Co413 Co 0.5016 0.11926 0.27842 0.0
Co414 Co 0.53459 0.12511 0.38468 0.0
O415 O 0.49692 0.11137 0.33988 0.0
C416 C 0.40832 0.12908 0.29713 0.0
O417 O 0.42048 0.13938 0.33316 0.0
C418 C 0.54454 0.07317 0.3984 0.0
O419 O 0.54935 0.07078 0.35654 0.0
O420 O 0.58877 0.11766 0.35083 0.0
O421 O 0.56646 0.11928 0.28193 0.0
H422 H 0.65748 0.17588 0.44037 0.0
H423 H 0.44768 0.07831 0.30589 0.0
O424 O 0.43654 0.11948 0.27257 0.0
H425 H 0.56078 0.04494 0.20986 0.0
H426 H 0.46035 0.11282 0.12159 0.0
H427 H 0.55635 0.1524 0.22734 0.0
H428 H 0.55811 0.08787 0.22426 0.0
H429 H 0.45562 0.10282 0.1989 0.0
O430 O 0.53855 0.09363 0.4146 0.0
H431 H 0.60931 0.15868 0.38466 0.0
H432 H 0.53979 0.12008 0.48042 0.0
H433 H 0.56244 0.16279 0.15029 0.0
H434 H 0.44889 0.03527 0.29208 0.0
H435 H 0.51419 0.14294 0.09682 0.0
H436 H 0.50583 0.01832 0.24385 0.0
O437 O 0.5004 0.15387 0.29122 0.0
H438 H 0.38714 0.10683 0.44891 0.0
H439 H 0.50149 0.16784 0.43131 0.0
H440 H 0.43398 0.17751 0.47131 0.0
H441 H 0.37622 0.14686 0.48039 0.0
H442 H 0.45501 0.09803 0.40872 0.0
H443 H 0.58743 0.13671 0.53712 0.0
H444 H 0.64668 0.16489 0.51722 0.0
O445 O 0.53093 0.15705 0.35688 0.0
C446 C 0.59637 0.1175 0.31031 0.0
C447 C 0.6317 0.16367 0.44945 0.0
C448 C 0.59243 0.14166 0.50375 0.0
N449 N 0.57162 0.13852 0.4293 0.0
C450 C 0.60426 0.15392 0.41807 0.0
C451 C 0.56563 0.13225 0.47149 0.0
C452 C 0.62565 0.15748 0.49256 0.0
C453 C 0.47233 0.07108 0.28459 0.0
N454 N 0.50272 0.08559 0.26583 0.0
C455 C 0.47295 0.04669 0.27701 0.0
C456 C 0.50495 0.03719 0.25 0.0
C457 C 0.53581 0.05211 0.23094 0.0
C458 C 0.53422 0.07641 0.23932 0.0
C459 C 0.4816 0.12156 0.14456 0.0
C460 C 0.53542 0.14359 0.20423 0.0
C461 C 0.47901 0.11601 0.18839 0.0
N462 N 0.50589 0.12691 0.21756 0.0
C463 C 0.53894 0.14959 0.16066 0.0
C464 C 0.51183 0.13846 0.13069 0.0
C465 C 0.51528 0.16616 0.32249 0.0
C466 C 0.41208 0.12033 0.44521 0.0
C467 C 0.47641 0.15448 0.43483 0.0
C468 C 0.43831 0.16002 0.45769 0.0
C469 C 0.40595 0.1428 0.46281 0.0
N470 N 0.48218 0.13241 0.41762 0.0
C471 C 0.45064 0.11543 0.42261 0.0
H472 H 0.94074 0.31778 0.21485 0.0
H473 H 0.05589 0.19232 0.21548 0.0
H474 H 0.07457 0.31037 0.17195 0.0
H475 H 0.9253 0.20036 0.16419 0.0
H476 H 0.06263 0.2357 0.21904 0.0
H477 H 0.93377 0.27435 0.21587 0.0
C478 C 0.96879 0.307 0.20627 0.0
C479 C 0.00831 0.31758 0.19335 0.0
C480 C 0.03248 0.22787 0.20729 0.0
C481 C 0.00072 0.26824 0.19514 0.0
C482 C 0.02849 0.20322 0.20547 0.0
C483 C 0.98998 0.19283 0.18951 0.0
C484 C -0.00277 0.24212 0.19429 0.0
C485 C 0.95558 0.20773 0.17654 0.0
C486 C 0.96468 0.28233 0.20658 0.0
C487 C 0.04353 0.30285 0.18201 0.0
N488 N 0.95984 0.23167 0.17958 0.0
N489 N 0.03906 0.27888 0.18353 0.0
H490 H 0.97011 0.81082 0.89198 0.0
H491 H 0.99378 0.69355 0.75283 0.0
H492 H 0.0042 0.81449 0.75691 0.0
H493 H 0.02634 0.69714 0.88823 0.0
H494 H 0.98658 0.73693 0.75191 0.0
H495 H 0.97809 0.76795 0.88937 0.0
C496 C 0.9793 0.8027 0.86171 0.0
C497 C 0.98712 0.81648 0.82475 0.0
C498 C 0.99536 0.72809 0.78169 0.0
C499 C 0.99553 0.76705 0.82152 0.0
C500 C -0.00062 0.70336 0.78233 0.0
C501 C 0.01027 0.69153 0.8208 0.0
C502 C 0.00143 0.74099 0.81993 0.0
C503 C 0.01745 0.70529 0.85791 0.0
C504 C 0.9839 0.77815 0.86032 0.0
C505 C -0.00173 0.80465 0.78632 0.0
N506 N 0.01246 0.72918 0.85662 0.0
N507 N 0.00199 0.78058 0.78564 0.0
H508 H 0.50191 0.69396 0.75892 0.0
H509 H 0.53574 0.81234 0.6263 0.0
H510 H 0.47337 0.69988 0.6229 0.0
H511 H 0.48981 0.81566 0.75801 0.0
H512 H 0.5271 0.76956 0.62773 0.0
H513 H 0.50967 0.73733 0.76229 0.0
C514 C 0.49731 0.70428 0.7298 0.0
C515 C 0.48743 0.69312 0.69041 0.0
C516 C 0.51887 0.77966 0.65631 0.0
C517 C 0.49697 0.74247 0.69412 0.0
C518 C 0.52378 0.80416 0.65561 0.0
C519 C 0.51272 0.81784 0.69187 0.0
C520 C 0.50368 0.76846 0.69378 0.0
C521 C 0.49828 0.8059 0.72914 0.0
C522 C 0.50162 0.72898 0.73186 0.0
C523 C 0.48149 0.70749 0.65387 0.0
N524 N 0.49428 0.78183 0.72921 0.0
N525 N 0.48684 0.73131 0.65653 0.0
H526 H 0.47074 0.31097 0.39245 0.0
H527 H 0.49377 0.19425 0.25264 0.0
H528 H 0.50409 0.31565 0.25729 0.0
H529 H 0.53123 0.19823 0.38679 0.0
H530 H 0.48616 0.23764 0.25172 0.0
H531 H 0.47972 0.26822 0.38902 0.0
C532 C 0.48001 0.3031 0.36198 0.0
C533 C 0.48734 0.31714 0.32525 0.0
C534 C 0.49613 0.22887 0.28119 0.0
C535 C 0.49683 0.26782 0.32107 0.0
C536 C 0.50038 0.20415 0.28184 0.0
C537 C 0.51266 0.19242 0.32003 0.0
C538 C 0.50335 0.24183 0.31916 0.0
C539 C 0.52113 0.20628 0.35675 0.0
C540 C 0.48516 0.27862 0.36012 0.0
C541 C 0.49855 0.30561 0.28654 0.0
N542 N 0.51585 0.23013 0.3555 0.0
N543 N 0.5028 0.28157 0.28538 0.0
H544 H 0.37681 0.1233 0.21567 0.0
H545 H 0.12659 0.11874 0.28418 0.0
H546 H 0.33473 0.13571 0.34668 0.0
H547 H 0.16693 0.13754 0.15513 0.0
H548 H 0.20305 0.11982 0.30712 0.0
H549 H 0.30033 0.12357 0.19249 0.0
C550 C 0.35144 0.12602 0.23962 0.0
C551 C 0.36207 0.12941 0.28325 0.0
C552 C 0.19515 0.12374 0.27383 0.0
C553 C 0.27458 0.12959 0.25682 0.0
C554 C 0.15157 0.12296 0.26056 0.0
C555 C 0.14042 0.12798 0.21757 0.0
C556 C 0.22797 0.12918 0.24379 0.0
C557 C 0.17414 0.13358 0.18855 0.0
C558 C 0.30786 0.12631 0.22626 0.0
C559 C 0.32791 0.13307 0.31275 0.0
N560 N 0.21655 0.13386 0.20213 0.0
N561 N 0.28555 0.13286 0.29904 0.0
H562 H 0.66272 0.37562 0.35407 0.0
H563 H 0.83153 0.37439 0.15767 0.0
H564 H 0.62278 0.38856 0.22261 0.0
H565 H 0.8701 0.3928 0.28735 0.0
H566 H 0.75466 0.37399 0.18117 0.0
H567 H 0.73958 0.37622 0.33047 0.0
C568 C 0.67011 0.37854 0.3203 0.0
C569 C 0.63639 0.38214 0.2903 0.0
C570 C 0.78005 0.37819 0.20435 0.0
C571 C 0.72382 0.38256 0.26311 0.0
C572 C 0.82383 0.37838 0.191 0.0
C573 C 0.8572 0.38375 0.22053 0.0
C574 C 0.76975 0.38295 0.24767 0.0
C575 C 0.8454 0.38876 0.26339 0.0
C576 C 0.71388 0.37897 0.3069 0.0
C577 C 0.64777 0.38589 0.2469 0.0
N578 N 0.8027 0.38807 0.27575 0.0
N579 N 0.6905 0.38584 0.23456 0.0
H580 H 0.1248 0.88551 0.72119 0.0
H581 H 0.37405 0.88751 0.79342 0.0
H582 H 0.16445 0.87158 0.85242 0.0
H583 H 0.33496 0.87184 0.66269 0.0
H584 H 0.2973 0.8861 0.81554 0.0
H585 H 0.20158 0.88488 0.69914 0.0
C586 C 0.1497 0.88238 0.74543 0.0
C587 C 0.13828 0.87868 0.7888 0.0
C588 C 0.30554 0.8829 0.78206 0.0
C589 C 0.22618 0.87805 0.76364 0.0
C590 C 0.34928 0.88386 0.76929 0.0
C591 C 0.36084 0.87988 0.72605 0.0
C592 C 0.273 0.87833 0.75128 0.0
C593 C 0.32743 0.87499 0.69633 0.0
C594 C 0.19347 0.88188 0.73271 0.0
C595 C 0.17187 0.87448 0.81868 0.0
N596 N 0.28487 0.87454 0.70944 0.0
N597 N 0.21444 0.87448 0.80559 0.0
H598 H 0.66243 0.63842 0.65675 0.0
H599 H 0.83486 0.63687 0.85039 0.0
H600 H 0.62581 0.62278 0.78824 0.0
H601 H 0.87145 0.62269 0.71837 0.0
H602 H 0.75766 0.63793 0.82817 0.0
H603 H 0.7397 0.63888 0.67889 0.0
C604 C 0.67064 0.63514 0.69021 0.0
C605 C 0.63777 0.63042 0.72064 0.0
C606 C 0.7827 0.63457 0.80417 0.0
C607 C 0.72557 0.6312 0.74617 0.0
C608 C 0.82665 0.63403 0.81679 0.0
C609 C 0.8595 0.62955 0.78624 0.0
C610 C 0.77175 0.63102 0.76063 0.0
C611 C 0.84712 0.62599 0.74308 0.0
C612 C 0.71463 0.63534 0.70278 0.0
C613 C 0.65015 0.62628 0.76363 0.0
N614 N 0.80424 0.62691 0.73151 0.0
N615 N 0.69305 0.62688 0.77515 0.0
H616 H 0.62197 0.89551 0.78621 0.0
H617 H 0.87702 0.89405 0.72949 0.0
H618 H 0.67243 0.89522 0.65594 0.0
H619 H 0.82695 0.894 0.85991 0.0
H620 H 0.80255 0.89625 0.70239 0.0
H621 H 0.69651 0.89679 0.81353 0.0
C622 C 0.64866 0.89585 0.76318 0.0
C623 C 0.64068 0.89523 0.71849 0.0
C624 C 0.80775 0.89585 0.73693 0.0
C625 C 0.72665 0.89657 0.75005 0.0
C626 C 0.85043 0.89461 0.75261 0.0
C627 C 0.85851 0.89383 0.79726 0.0
C628 C 0.77254 0.89624 0.76593 0.0
C629 C 0.82241 0.89458 0.8253 0.0
C630 C 0.69136 0.89656 0.77898 0.0
C631 C 0.67687 0.89569 0.69056 0.0
N632 N 0.78097 0.89567 0.80914 0.0
N633 N 0.71829 0.89625 0.70683 0.0
H634 H 0.37608 0.61475 0.78231 0.0
H635 H 0.12113 0.61481 0.72468 0.0
H636 H 0.32629 0.61707 0.6519 0.0
H637 H 0.17079 0.61475 0.8552 0.0
H638 H 0.19583 0.61364 0.69772 0.0
H639 H 0.3014 0.61278 0.80922 0.0
C640 C 0.34951 0.61474 0.75916 0.0
C641 C 0.35772 0.61611 0.71457 0.0
C642 C 0.19048 0.6138 0.73225 0.0
C643 C 0.27158 0.61393 0.74565 0.0
C644 C 0.14768 0.61444 0.74784 0.0
C645 C 0.13942 0.61491 0.79248 0.0
C646 C 0.2256 0.61367 0.76135 0.0
C647 C 0.17546 0.6144 0.82059 0.0
C648 C 0.30673 0.61364 0.77473 0.0
C649 C 0.32166 0.61604 0.68647 0.0
N650 N 0.21699 0.61388 0.80453 0.0
N651 N 0.28016 0.61504 0.70251 0.0
H652 H 0.62357 0.11434 0.22656 0.0
H653 H 0.87895 0.11818 0.28158 0.0
H654 H 0.67362 0.11672 0.35687 0.0
H655 H 0.82709 0.11491 0.15204 0.0
H656 H 0.8046 0.11625 0.30988 0.0
H657 H 0.698 0.11302 0.19944 0.0
C658 C 0.65017 0.11445 0.24967 0.0
C659 C 0.64205 0.11564 0.29429 0.0
C660 C 0.80947 0.11586 0.27529 0.0
C661 C 0.72811 0.1143 0.26289 0.0
C662 C 0.852 0.11695 0.25896 0.0
C663 C 0.85948 0.11673 0.21418 0.0
C664 C 0.77392 0.11459 0.24675 0.0
C665 C 0.82305 0.11514 0.18673 0.0
C666 C 0.69285 0.11373 0.23397 0.0
C667 C 0.6782 0.11579 0.32229 0.0
N668 N 0.78188 0.1142 0.20347 0.0
N669 N 0.7197 0.11522 0.30609 0.0
H670 H 0.17059 0.39626 0.15441 0.0
H671 H 0.32462 0.39189 0.36417 0.0
H672 H 0.12059 0.39097 0.28447 0.0
H673 H 0.37274 0.39412 0.23313 0.0
H674 H 0.24947 0.39341 0.33624 0.0
H675 H 0.24502 0.39745 0.18337 0.0
C676 C 0.17515 0.39547 0.18903 0.0
C677 C 0.1391 0.3935 0.21693 0.0
C678 C 0.27659 0.39365 0.3137 0.0
C679 C 0.22445 0.39477 0.2504 0.0
C680 C 0.31951 0.39282 0.32964 0.0
C681 C 0.35525 0.39288 0.30109 0.0
C682 C 0.26938 0.39458 0.26891 0.0
C683 C 0.34646 0.39404 0.25658 0.0
C684 C 0.21773 0.39611 0.20558 0.0
C685 C 0.14725 0.39249 0.26158 0.0
N686 N 0.30457 0.39481 0.24198 0.0
N687 N 0.18898 0.39309 0.27687 0.0
H688 H 0.94882 0.02869 0.12466 0.0
H689 H 0.95049 0.98354 0.87903 0.0
H690 H 0.95635 0.07588 0.01529 0.0
H691 H 0.95699 0.93702 0.98939 0.0
H692 H 0.94934 0.01763 0.92801 0.0
H693 H 0.94846 0.99494 0.07525 0.0
C694 C 0.95029 0.03199 0.09027 0.0
C695 C 0.9526 0.05521 0.0742 0.0
C696 C 0.951 0.99995 0.94146 0.0
C697 C 0.95222 0.01653 0.01725 0.0
C698 C 0.95157 0.98046 0.91349 0.0
C699 C 0.95384 0.95732 0.93001 0.0
C700 C 0.95251 0.9963 0.98633 0.0
C701 C 0.95529 0.95449 0.97505 0.0
C702 C 0.95017 0.01267 0.06202 0.0
C703 C 0.95459 0.05831 0.02923 0.0
N704 N 0.95455 0.97368 1.00151 0.0
N705 N 0.9543 0.03923 1.00239 0.0
H706 H 0.05732 0.52507 0.87294 0.0
H707 H 0.0324 0.43062 0.0159 0.0
H708 H 0.0335 0.56957 0.98365 0.0
H709 H 0.05572 0.48191 0.11652 0.0
H710 H 0.03225 0.46239 0.96305 0.0
H711 H 0.0589 0.49059 0.9203 0.0
C712 C 0.05206 0.52758 0.90719 0.0
C713 C 0.04504 0.55031 0.92416 0.0
C714 C 0.03831 0.46682 0.99643 0.0
C715 C 0.04561 0.51062 0.97899 0.0
C716 C 0.03796 0.44858 0.0269 0.0
C717 C 0.04439 0.45349 0.07088 0.0
C718 C 0.04538 0.49032 0.0098 0.0
C719 C 0.05088 0.47721 0.08302 0.0
C720 C 0.05252 0.50776 0.93436 0.0
C721 C 0.03885 0.55242 0.96895 0.0
N722 N 0.05109 0.4947 0.0527 0.0
N723 N 0.03934 0.53289 0.99469 0.0
H724 H 0.44538 0.48312 0.38381 0.0
H725 H 0.44777 0.52744 0.62999 0.0
H726 H 0.45428 0.43601 0.49318 0.0
H727 H 0.45362 0.57466 0.52055 0.0
H728 H 0.44619 0.49369 0.58038 0.0
H729 H 0.44441 0.5169 0.4334 0.0
C730 C 0.44699 0.47985 0.41819 0.0
C731 C 0.44994 0.45665 0.43425 0.0
C732 C 0.44777 0.51145 0.56724 0.0
C733 C 0.44885 0.49527 0.49129 0.0
C734 C 0.44859 0.53074 0.59558 0.0
C735 C 0.45086 0.55396 0.57952 0.0
C736 C 0.44905 0.51536 0.52244 0.0
C737 C 0.45196 0.5571 0.53452 0.0
C738 C 0.44653 0.49916 0.44652 0.0
C739 C 0.45207 0.45355 0.47921 0.0
N740 N 0.45102 0.53807 0.50765 0.0
N741 N 0.45145 0.47259 0.50606 0.0
H742 H 0.55731 0.93321 0.52289 0.0
H743 H 0.54564 0.02615 0.37597 0.0
H744 H 0.53272 0.98542 0.62153 0.0
H745 H 0.54465 0.07229 0.48686 0.0
H746 H 0.54542 0.99211 0.42376 0.0
H747 H 0.55993 0.96427 0.46941 0.0
C748 C 0.55202 0.9513 0.53329 0.0
C749 C 0.54443 0.9566 0.57692 0.0
C750 C 0.54604 0.00952 0.43814 0.0
C751 C 0.54622 0.9929 0.51478 0.0
C752 C 0.54589 0.0291 0.41049 0.0
C753 C 0.5454 0.05216 0.42726 0.0
C754 C 0.54618 0.01292 0.48321 0.0
C755 C 0.54512 0.05485 0.47236 0.0
C756 C 0.55322 0.96924 0.50237 0.0
C757 C 0.5386 0.98046 0.58831 0.0
N758 N 0.54554 0.03552 0.49862 0.0
N759 N 0.53947 0.99768 0.55744 0.0
loop_
_geom_bond_atom_site_label_1
_geom_bond_atom_site_label_2
_geom_bond_distance
_geom_bond_site_symmetry_2
_ccdc_geom_bond_type
Co0 O2 2.143 . S
Co0 O8 2.074 1_455 S
Co0 O11 2.093 . S
Co0 O24 2.097 . S
Co0 N41 2.151 . S
Co0 N49 2.214 . S
Co1 O2 2.160 1_655 S
Co1 O7 2.058 . S
Co1 O17 2.057 . S
Co1 O32 2.037 . S
Co1 N36 2.145 . S
Co1 N57 2.257 1_655 S
O2 Co0 2.143 . S
O2 Co1 2.160 1_455 S
C3 O4 1.278 . S
C3 O11 1.224 . S
O4 C3 1.278 . S
C5 O6 1.245 1_655 S
C5 O17 1.232 . S
O6 C5 1.245 1_455 S
O7 Co1 2.058 . S
O7 C33 1.269 . S
O8 Co0 2.074 1_655 S
O8 C33 1.257 . S
H9 C34 0.930 . S
H10 C40 0.930 . S
O11 Co0 2.093 . S
O11 C3 1.224 . S
H12 C44 0.929 . S
H13 C46 0.930 . S
H14 C47 0.930 . S
H15 C45 0.929 . S
H16 C48 0.928 . S
O17 Co1 2.057 . S
O17 C5 1.232 . S
H18 C37 0.929 . S
H19 C38 0.929 . S
H20 C50 0.931 . S
H21 C42 0.929 . S
H22 C51 0.930 . S
H23 C43 0.931 . S
O24 Co0 2.097 . S
O24 C52 1.214 1_455 S
H25 C53 0.929 . S
H26 C54 0.929 . S
H27 C55 0.930 . S
H28 C56 0.929 . S
H29 C58 0.930 . S
H30 C35 0.930 . S
H31 C39 0.930 . S
O32 Co1 2.037 . S
O32 C52 1.234 . S
C33 O7 1.269 . S
C33 O8 1.257 . S
C34 H9 0.930 . S
C34 C37 1.388 . S
C34 C39 1.418 1_554 S
C35 H30 0.930 . S
C35 C38 1.404 1_556 S
C35 C39 1.353 . S
N36 Co1 2.145 . S
N36 C37 1.397 . S
N36 C38 1.334 . S
C37 H18 0.929 . S
C37 C34 1.388 . S
C37 N36 1.397 . S
C38 H19 0.929 . S
C38 C35 1.404 1_554 S
C38 N36 1.334 . S
C39 H31 0.930 . S
C39 C34 1.418 1_556 S
C39 C35 1.353 . S
C40 H10 0.930 . S
C40 N41 1.330 . S
C40 C42 1.446 . S
N41 Co0 2.151 . S
N41 C40 1.330 . S
N41 C45 1.418 1_455 S
C42 H21 0.929 . S
C42 C40 1.446 . S
C42 C43 1.332 . S
C43 H23 0.931 . S
C43 C42 1.332 . S
C43 C44 1.267 1_455 S
C44 H12 0.929 . S
C44 C43 1.267 1_655 S
C44 C45 1.251 . S
C45 H15 0.929 . S
C45 N41 1.418 1_655 S
C45 C44 1.251 . S
C46 H13 0.930 . S
C46 C48 1.406 . S
C46 C51 1.261 1_455 S
C47 H14 0.930 . S
C47 N49 1.325 1_655 S
C47 C50 1.357 . S
C48 H16 0.928 . S
C48 C46 1.406 . S
C48 N49 1.261 . S
N49 Co0 2.214 . S
N49 C47 1.325 1_455 S
N49 C48 1.261 . S
C50 H20 0.931 . S
C50 C47 1.357 . S
C50 C51 1.312 . S
C51 H22 0.930 . S
C51 C46 1.261 1_655 S
C51 C50 1.312 . S
C52 O24 1.214 1_655 S
C52 O32 1.234 . S
C53 H25 0.929 . S
C53 C56 1.391 . S
C53 C58 1.391 . S
C54 H26 0.929 . S
C54 C55 1.390 . S
C54 N57 1.391 . S
C55 H27 0.930 . S
C55 C54 1.390 . S
C55 C56 1.392 . S
C56 H28 0.929 . S
C56 C53 1.391 . S
C56 C55 1.392 . S
N57 Co1 2.257 1_455 S
N57 C54 1.391 . S
N57 C58 1.388 . S
C58 H29 0.930 . S
C58 C53 1.391 . S
C58 N57 1.388 . S
Co59 O61 2.143 . S
Co59 O67 2.074 1_655 S
Co59 O70 2.093 . S
Co59 O83 2.097 . S
Co59 N100 2.151 . S
Co59 N108 2.214 1_655 S
Co60 O61 2.160 1_455 S
Co60 O66 2.058 . S
Co60 O76 2.057 . S
Co60 O91 2.037 . S
Co60 N95 2.145 . S
Co60 N116 2.257 1_455 S
O61 Co59 2.143 . S
O61 Co60 2.160 1_655 S
C62 O63 1.278 . S
C62 O70 1.224 . S
O63 C62 1.278 . S
C64 O65 1.245 . S
C64 O76 1.232 . S
O65 C64 1.245 . S
O66 Co60 2.058 . S
O66 C92 1.269 . S
O67 Co59 2.074 1_455 S
O67 C92 1.257 . S
H68 C93 0.930 . S
H69 C99 0.930 . S
O70 Co59 2.093 . S
O70 C62 1.224 . S
H71 C103 0.929 . S
H72 C105 0.930 . S
H73 C106 0.930 . S
H74 C104 0.929 . S
H75 C107 0.928 . S
O76 Co60 2.057 . S
O76 C64 1.232 . S
H77 C96 0.929 . S
H78 C97 0.929 . S
H79 C109 0.931 . S
H80 C101 0.929 . S
H81 C110 0.930 . S
H82 C102 0.931 1_455 S
O83 Co59 2.097 . S
O83 C111 1.214 1_655 S
H84 C112 0.929 . S
H85 C113 0.929 . S
H86 C114 0.930 . S
H87 C115 0.929 . S
H88 C117 0.930 . S
H89 C94 0.930 . S
H90 C98 0.930 . S
O91 Co60 2.037 . S
O91 C111 1.234 . S
C92 O66 1.269 . S
C92 O67 1.257 . S
C93 H68 0.930 . S
C93 C96 1.388 . S
C93 C98 1.418 1_554 S
C94 H89 0.930 . S
C94 C97 1.404 1_556 S
C94 C98 1.353 . S
N95 Co60 2.145 . S
N95 C96 1.397 . S
N95 C97 1.334 . S
C96 H77 0.929 . S
C96 C93 1.388 . S
C96 N95 1.397 . S
C97 H78 0.929 . S
C97 C94 1.404 1_554 S
C97 N95 1.334 . S
C98 H90 0.930 . S
C98 C93 1.418 1_556 S
C98 C94 1.353 . S
C99 H69 0.930 . S
C99 N100 1.330 . S
C99 C101 1.446 . S
N100 Co59 2.151 . S
N100 C99 1.330 . S
N100 C104 1.418 1_655 S
C101 H80 0.929 . S
C101 C99 1.446 . S
C101 C102 1.332 . S
C102 H82 0.931 1_655 S
C102 C101 1.332 . S
C102 C103 1.266 1_655 S
C103 H71 0.929 . S
C103 C102 1.266 1_455 S
C103 C104 1.251 . S
C104 H74 0.929 . S
C104 N100 1.418 1_455 S
C104 C103 1.251 . S
C105 H72 0.930 . S
C105 C107 1.406 . S
C105 C110 1.261 1_655 S
C106 H73 0.930 . S
C106 N108 1.325 . S
C106 C109 1.357 . S
C107 H75 0.928 . S
C107 C105 1.406 . S
C107 N108 1.261 1_655 S
N108 Co59 2.214 1_455 S
N108 C106 1.325 . S
N108 C107 1.261 1_455 S
C109 H79 0.931 . S
C109 C106 1.357 . S
C109 C110 1.312 . S
C110 H81 0.930 . S
C110 C105 1.261 1_455 S
C110 C109 1.312 . S
C111 O83 1.214 1_455 S
C111 O91 1.234 . S
C112 H84 0.929 . S
C112 C115 1.391 . S
C112 C117 1.391 . S
C113 H85 0.929 . S
C113 C114 1.390 . S
C113 N116 1.391 . S
C114 H86 0.930 . S
C114 C113 1.390 . S
C114 C115 1.392 . S
C115 H87 0.929 . S
C115 C112 1.391 . S
C115 C114 1.392 . S
N116 Co60 2.257 1_655 S
N116 C113 1.391 . S
N116 C117 1.388 . S
C117 H88 0.930 . S
C117 C112 1.391 . S
C117 N116 1.388 . S
Co118 O120 2.143 . S
Co118 O126 2.074 1_455 S
Co118 O129 2.093 . S
Co118 O142 2.097 . S
Co118 N159 2.151 . S
Co118 N167 2.214 . S
Co119 O120 2.160 1_655 S
Co119 O125 2.058 . S
Co119 O135 2.057 . S
Co119 O150 2.037 . S
Co119 N154 2.145 . S
Co119 N175 2.257 1_655 S
O120 Co118 2.143 . S
O120 Co119 2.160 1_455 S
C121 O122 1.278 . S
C121 O129 1.224 . S
O122 C121 1.278 . S
C123 O124 1.245 1_655 S
C123 O135 1.232 . S
O124 C123 1.245 1_455 S
O125 Co119 2.058 . S
O125 C151 1.269 . S
O126 Co118 2.074 1_655 S
O126 C151 1.257 . S
H127 C152 0.930 . S
H128 C158 0.930 . S
O129 Co118 2.093 . S
O129 C121 1.224 . S
H130 C162 0.929 . S
H131 C164 0.930 . S
H132 C165 0.930 . S
H133 C163 0.929 . S
H134 C166 0.928 . S
O135 Co119 2.057 . S
O135 C123 1.232 . S
H136 C155 0.929 . S
H137 C156 0.929 . S
H138 C168 0.931 . S
H139 C160 0.929 . S
H140 C169 0.930 . S
H141 C161 0.931 . S
O142 Co118 2.097 . S
O142 C170 1.214 1_455 S
H143 C171 0.929 . S
H144 C172 0.929 . S
H145 C173 0.930 . S
H146 C174 0.929 . S
H147 C176 0.930 . S
H148 C153 0.930 . S
H149 C157 0.930 . S
O150 Co119 2.037 . S
O150 C170 1.234 . S
C151 O125 1.269 . S
C151 O126 1.257 . S
C152 H127 0.930 . S
C152 C155 1.388 . S
C152 C157 1.418 1_556 S
C153 H148 0.930 . S
C153 C156 1.404 1_554 S
C153 C157 1.353 . S
N154 Co119 2.145 . S
N154 C155 1.397 . S
N154 C156 1.334 . S
C155 H136 0.929 . S
C155 C152 1.388 . S
C155 N154 1.397 . S
C156 H137 0.929 . S
C156 C153 1.404 1_556 S
C156 N154 1.334 . S
C157 H149 0.930 . S
C157 C152 1.418 1_554 S
C157 C153 1.353 . S
C158 H128 0.930 . S
C158 N159 1.330 . S
C158 C160 1.446 . S
N159 Co118 2.151 . S
N159 C158 1.330 . S
N159 C163 1.418 1_455 S
C160 H139 0.929 . S
C160 C158 1.446 . S
C160 C161 1.332 . S
C161 H141 0.931 . S
C161 C160 1.332 . S
C161 C162 1.267 1_455 S
C162 H130 0.929 . S
C162 C161 1.267 1_655 S
C162 C163 1.251 . S
C163 H133 0.929 . S
C163 N159 1.418 1_655 S
C163 C162 1.251 . S
C164 H131 0.930 . S
C164 C166 1.406 . S
C164 C169 1.261 1_455 S
C165 H132 0.930 . S
C165 N167 1.325 1_655 S
C165 C168 1.357 . S
C166 H134 0.928 . S
C166 C164 1.406 . S
C166 N167 1.261 . S
N167 Co118 2.214 . S
N167 C165 1.325 1_455 S
N167 C166 1.261 . S
C168 H138 0.931 . S
C168 C165 1.357 . S
C168 C169 1.312 . S
C169 H140 0.930 . S
C169 C164 1.261 1_655 S
C169 C168 1.312 . S
C170 O142 1.214 1_655 S
C170 O150 1.234 . S
C171 H143 0.929 . S
C171 C174 1.391 . S
C171 C176 1.391 . S
C172 H144 0.929 . S
C172 C173 1.390 . S
C172 N175 1.391 . S
C173 H145 0.930 . S
C173 C172 1.390 . S
C173 C174 1.392 . S
C174 H146 0.929 . S
C174 C171 1.391 . S
C174 C173 1.392 . S
N175 Co119 2.257 1_455 S
N175 C172 1.391 . S
N175 C176 1.388 . S
C176 H147 0.930 . S
C176 C171 1.391 . S
C176 N175 1.388 . S
Co177 O179 2.143 . S
Co177 O185 2.074 1_655 S
Co177 O188 2.093 . S
Co177 O201 2.097 . S
Co177 N218 2.151 . S
Co177 N226 2.214 1_655 S
Co178 O179 2.160 1_455 S
Co178 O184 2.058 . S
Co178 O194 2.057 . S
Co178 O209 2.037 . S
Co178 N213 2.145 . S
Co178 N234 2.257 1_455 S
O179 Co177 2.143 . S
O179 Co178 2.160 1_655 S
C180 O181 1.278 . S
C180 O188 1.224 . S
O181 C180 1.278 . S
C182 O183 1.245 . S
C182 O194 1.232 . S
O183 C182 1.245 . S
O184 Co178 2.058 . S
O184 C210 1.269 . S
O185 Co177 2.074 1_455 S
O185 C210 1.257 . S
H186 C211 0.930 . S
H187 C217 0.930 . S
O188 Co177 2.093 . S
O188 C180 1.224 . S
H189 C221 0.929 . S
H190 C223 0.930 . S
H191 C224 0.930 . S
H192 C222 0.929 . S
H193 C225 0.928 . S
O194 Co178 2.057 . S
O194 C182 1.232 . S
H195 C214 0.929 . S
H196 C215 0.929 . S
H197 C227 0.931 . S
H198 C219 0.929 . S
H199 C228 0.930 . S
H200 C220 0.931 1_455 S
O201 Co177 2.097 . S
O201 C229 1.214 1_655 S
H202 C230 0.929 . S
H203 C231 0.929 . S
H204 C232 0.930 . S
H205 C233 0.929 . S
H206 C235 0.930 . S
H207 C212 0.930 . S
H208 C216 0.930 . S
O209 Co178 2.037 . S
O209 C229 1.234 . S
C210 O184 1.269 . S
C210 O185 1.257 . S
C211 H186 0.930 . S
C211 C214 1.388 . S
C211 C216 1.418 1_556 S
C212 H207 0.930 . S
C212 C215 1.404 1_554 S
C212 C216 1.353 . S
N213 Co178 2.145 . S
N213 C214 1.397 . S
N213 C215 1.334 . S
C214 H195 0.929 . S
C214 C211 1.388 . S
C214 N213 1.397 . S
C215 H196 0.929 . S
C215 C212 1.404 1_556 S
C215 N213 1.334 . S
C216 H208 0.930 . S
C216 C211 1.418 1_554 S
C216 C212 1.353 . S
C217 H187 0.930 . S
C217 N218 1.330 . S
C217 C219 1.446 . S
N218 Co177 2.151 . S
N218 C217 1.330 . S
N218 C222 1.418 1_655 S
C219 H198 0.929 . S
C219 C217 1.446 . S
C219 C220 1.332 . S
C220 H200 0.931 1_655 S
C220 C219 1.332 . S
C220 C221 1.266 1_655 S
C221 H189 0.929 . S
C221 C220 1.266 1_455 S
C221 C222 1.251 . S
C222 H192 0.929 . S
C222 N218 1.418 1_455 S
C222 C221 1.251 . S
C223 H190 0.930 . S
C223 C225 1.406 . S
C223 C228 1.261 1_655 S
C224 H191 0.930 . S
C224 N226 1.325 . S
C224 C227 1.357 . S
C225 H193 0.928 . S
C225 C223 1.406 . S
C225 N226 1.261 1_655 S
N226 Co177 2.214 1_455 S
N226 C224 1.325 . S
N226 C225 1.261 1_455 S
C227 H197 0.931 . S
C227 C224 1.357 . S
C227 C228 1.312 . S
C228 H199 0.930 . S
C228 C223 1.261 1_455 S
C228 C227 1.312 . S
C229 O201 1.214 1_455 S
C229 O209 1.234 . S
C230 H202 0.929 . S
C230 C233 1.391 . S
C230 C235 1.391 . S
C231 H203 0.929 . S
C231 C232 1.390 . S
C231 N234 1.391 . S
C232 H204 0.930 . S
C232 C231 1.390 . S
C232 C233 1.392 . S
C233 H205 0.929 . S
C233 C230 1.391 . S
C233 C232 1.392 . S
N234 Co178 2.257 1_655 S
N234 C231 1.391 . S
N234 C235 1.388 . S
C235 H206 0.930 . S
C235 C230 1.391 . S
C235 N234 1.388 . S
Co236 O238 2.143 . S
Co236 O244 2.074 . S
Co236 O247 2.093 . S
Co236 O260 2.097 . S
Co236 N277 2.151 . S
Co236 N285 2.214 . S
Co237 O238 2.160 . S
Co237 O243 2.058 . S
Co237 O253 2.057 . S
Co237 O268 2.037 . S
Co237 N272 2.145 . S
Co237 N293 2.257 . S
O238 Co236 2.143 . S
O238 Co237 2.160 . S
C239 O240 1.278 . S
C239 O247 1.224 . S
O240 C239 1.278 . S
C241 O242 1.245 . S
C241 O253 1.232 . S
O242 C241 1.245 . S
O243 Co237 2.058 . S
O243 C269 1.269 . S
O244 Co236 2.074 . S
O244 C269 1.257 . S
H245 C270 0.930 . S
H246 C276 0.930 . S
O247 Co236 2.093 . S
O247 C239 1.224 . S
H248 C280 0.929 . S
H249 C282 0.930 . S
H250 C283 0.930 . S
H251 C281 0.929 . S
H252 C284 0.928 . S
O253 Co237 2.057 . S
O253 C241 1.232 . S
H254 C273 0.929 . S
H255 C274 0.929 . S
H256 C286 0.931 . S
H257 C278 0.929 . S
H258 C287 0.930 . S
H259 C279 0.931 . S
O260 Co236 2.097 . S
O260 C288 1.214 . S
H261 C289 0.929 . S
H262 C290 0.929 . S
H263 C291 0.930 . S
H264 C292 0.929 . S
H265 C294 0.930 . S
H266 C271 0.930 . S
H267 C275 0.930 . S
O268 Co237 2.037 . S
O268 C288 1.234 . S
C269 O243 1.269 . S
C269 O244 1.257 . S
C270 H245 0.930 . S
C270 C273 1.388 . S
C270 C275 1.418 . S
C271 H266 0.930 . S
C271 C274 1.404 . S
C271 C275 1.353 . S
N272 Co237 2.145 . S
N272 C273 1.397 . S
N272 C274 1.334 . S
C273 H254 0.929 . S
C273 C270 1.388 . S
C273 N272 1.397 . S
C274 H255 0.929 . S
C274 C271 1.404 . S
C274 N272 1.334 . S
C275 H267 0.930 . S
C275 C270 1.418 . S
C275 C271 1.353 . S
C276 H246 0.930 . S
C276 N277 1.330 . S
C276 C278 1.446 . S
N277 Co236 2.151 . S
N277 C276 1.330 . S
N277 C281 1.418 . S
C278 H257 0.929 . S
C278 C276 1.446 . S
C278 C279 1.332 . S
C279 H259 0.931 . S
C279 C278 1.332 . S
C279 C280 1.267 . S
C280 H248 0.929 . S
C280 C279 1.267 . S
C280 C281 1.251 . S
C281 H251 0.929 . S
C281 N277 1.418 . S
C281 C280 1.251 . S
C282 H249 0.930 . S
C282 C284 1.406 . S
C282 C287 1.261 . S
C283 H250 0.930 . S
C283 N285 1.325 . S
C283 C286 1.357 . S
C284 H252 0.928 . S
C284 C282 1.406 . S
C284 N285 1.261 . S
N285 Co236 2.214 . S
N285 C283 1.325 . S
N285 C284 1.261 . S
C286 H256 0.931 . S
C286 C283 1.357 . S
C286 C287 1.312 . S
C287 H258 0.930 . S
C287 C282 1.261 . S
C287 C286 1.312 . S
C288 O260 1.214 . S
C288 O268 1.234 . S
C289 H261 0.929 . S
C289 C292 1.391 . S
C289 C294 1.391 . S
C290 H262 0.929 . S
C290 C291 1.390 . S
C290 N293 1.391 . S
C291 H263 0.930 . S
C291 C290 1.390 . S
C291 C292 1.392 . S
C292 H264 0.929 . S
C292 C289 1.391 . S
C292 C291 1.392 . S
N293 Co237 2.257 . S
N293 C290 1.391 . S
N293 C294 1.388 . S
C294 H265 0.930 . S
C294 C289 1.391 . S
C294 N293 1.388 . S
Co295 O297 2.143 . S
Co295 O303 2.074 . S
Co295 O306 2.093 . S
Co295 O319 2.097 . S
Co295 N336 2.151 . S
Co295 N344 2.214 . S
Co296 O297 2.160 . S
Co296 O302 2.058 . S
Co296 O312 2.057 . S
Co296 O327 2.037 . S
Co296 N331 2.145 . S
Co296 N352 2.257 . S
O297 Co295 2.143 . S
O297 Co296 2.160 . S
C298 O299 1.278 . S
C298 O306 1.224 . S
O299 C298 1.278 . S
C300 O301 1.245 . S
C300 O312 1.232 . S
O301 C300 1.245 . S
O302 Co296 2.058 . S
O302 C328 1.269 . S
O303 Co295 2.074 . S
O303 C328 1.257 . S
H304 C329 0.930 . S
H305 C335 0.930 . S
O306 Co295 2.093 . S
O306 C298 1.224 . S
H307 C339 0.929 . S
H308 C341 0.930 . S
H309 C342 0.930 . S
H310 C340 0.929 . S
H311 C343 0.928 . S
O312 Co296 2.057 . S
O312 C300 1.232 . S
H313 C332 0.929 . S
H314 C333 0.929 . S
H315 C345 0.931 . S
H316 C337 0.929 . S
H317 C346 0.930 . S
H318 C338 0.931 . S
O319 Co295 2.097 . S
O319 C347 1.214 . S
H320 C348 0.929 . S
H321 C349 0.929 . S
H322 C350 0.930 . S
H323 C351 0.929 . S
H324 C353 0.930 . S
H325 C330 0.930 . S
H326 C334 0.930 . S
O327 Co296 2.037 . S
O327 C347 1.234 . S
C328 O302 1.269 . S
C328 O303 1.257 . S
C329 H304 0.930 . S
C329 C332 1.388 . S
C329 C334 1.418 . S
C330 H325 0.930 . S
C330 C333 1.404 . S
C330 C334 1.353 . S
N331 Co296 2.145 . S
N331 C332 1.397 . S
N331 C333 1.334 . S
C332 H313 0.929 . S
C332 C329 1.388 . S
C332 N331 1.397 . S
C333 H314 0.929 . S
C333 C330 1.404 . S
C333 N331 1.334 . S
C334 H326 0.930 . S
C334 C329 1.418 . S
C334 C330 1.353 . S
C335 H305 0.930 . S
C335 N336 1.330 . S
C335 C337 1.446 . S
N336 Co295 2.151 . S
N336 C335 1.330 . S
N336 C340 1.418 . S
C337 H316 0.929 . S
C337 C335 1.446 . S
C337 C338 1.332 . S
C338 H318 0.931 . S
C338 C337 1.332 . S
C338 C339 1.267 . S
C339 H307 0.929 . S
C339 C338 1.267 . S
C339 C340 1.251 . S
C340 H310 0.929 . S
C340 N336 1.418 . S
C340 C339 1.251 . S
C341 H308 0.930 . S
C341 C343 1.406 . S
C341 C346 1.261 . S
C342 H309 0.930 . S
C342 N344 1.325 . S
C342 C345 1.357 . S
C343 H311 0.928 . S
C343 C341 1.406 . S
C343 N344 1.261 . S
N344 Co295 2.214 . S
N344 C342 1.325 . S
N344 C343 1.261 . S
C345 H315 0.931 . S
C345 C342 1.357 . S
C345 C346 1.312 . S
C346 H317 0.930 . S
C346 C341 1.261 . S
C346 C345 1.312 . S
C347 O319 1.214 . S
C347 O327 1.234 . S
C348 H320 0.929 . S
C348 C351 1.391 . S
C348 C353 1.391 . S
C349 H321 0.929 . S
C349 C350 1.390 . S
C349 N352 1.391 . S
C350 H322 0.930 . S
C350 C349 1.390 . S
C350 C351 1.392 . S
C351 H323 0.929 . S
C351 C348 1.391 . S
C351 C350 1.392 . S
N352 Co296 2.257 . S
N352 C349 1.391 . S
N352 C353 1.388 . S
C353 H324 0.930 . S
C353 C348 1.391 . S
C353 N352 1.388 . S
Co354 O356 2.143 . S
Co354 O362 2.074 . S
Co354 O365 2.093 . S
Co354 O378 2.097 . S
Co354 N395 2.151 . S
Co354 N403 2.214 . S
Co355 O356 2.160 . S
Co355 O361 2.058 . S
Co355 O371 2.057 . S
Co355 O386 2.037 . S
Co355 N390 2.145 . S
Co355 N411 2.257 . S
O356 Co354 2.143 . S
O356 Co355 2.160 . S
C357 O358 1.278 . S
C357 O365 1.224 . S
O358 C357 1.278 . S
C359 O360 1.245 . S
C359 O371 1.232 . S
O360 C359 1.245 . S
O361 Co355 2.058 . S
O361 C387 1.269 . S
O362 Co354 2.074 . S
O362 C387 1.257 . S
H363 C388 0.930 . S
H364 C394 0.930 . S
O365 Co354 2.093 . S
O365 C357 1.224 . S
H366 C398 0.929 . S
H367 C400 0.930 . S
H368 C401 0.930 . S
H369 C399 0.929 . S
H370 C402 0.928 . S
O371 Co355 2.057 . S
O371 C359 1.232 . S
H372 C391 0.929 . S
H373 C392 0.929 . S
H374 C404 0.931 . S
H375 C396 0.929 . S
H376 C405 0.930 . S
H377 C397 0.931 . S
O378 Co354 2.097 . S
O378 C406 1.214 . S
H379 C407 0.929 . S
H380 C408 0.929 . S
H381 C409 0.930 . S
H382 C410 0.929 . S
H383 C412 0.930 . S
H384 C389 0.930 . S
H385 C393 0.930 . S
O386 Co355 2.037 . S
O386 C406 1.234 . S
C387 O361 1.269 . S
C387 O362 1.257 . S
C388 H363 0.930 . S
C388 C391 1.388 . S
C388 C393 1.418 . S
C389 H384 0.930 . S
C389 C392 1.404 . S
C389 C393 1.353 . S
N390 Co355 2.145 . S
N390 C391 1.397 . S
N390 C392 1.334 . S
C391 H372 0.929 . S
C391 C388 1.388 . S
C391 N390 1.397 . S
C392 H373 0.929 . S
C392 C389 1.404 . S
C392 N390 1.334 . S
C393 H385 0.930 . S
C393 C388 1.418 . S
C393 C389 1.353 . S
C394 H364 0.930 . S
C394 N395 1.330 . S
C394 C396 1.446 . S
N395 Co354 2.151 . S
N395 C394 1.330 . S
N395 C399 1.418 . S
C396 H375 0.929 . S
C396 C394 1.446 . S
C396 C397 1.332 . S
C397 H377 0.931 . S
C397 C396 1.332 . S
C397 C398 1.267 . S
C398 H366 0.929 . S
C398 C397 1.267 . S
C398 C399 1.251 . S
C399 H369 0.929 . S
C399 N395 1.418 . S
C399 C398 1.251 . S
C400 H367 0.930 . S
C400 C402 1.406 . S
C400 C405 1.261 . S
C401 H368 0.930 . S
C401 N403 1.325 . S
C401 C404 1.357 . S
C402 H370 0.928 . S
C402 C400 1.406 . S
C402 N403 1.261 . S
N403 Co354 2.214 . S
N403 C401 1.325 . S
N403 C402 1.261 . S
C404 H374 0.931 . S
C404 C401 1.357 . S
C404 C405 1.312 . S
C405 H376 0.930 . S
C405 C400 1.261 . S
C405 C404 1.312 . S
C406 O378 1.214 . S
C406 O386 1.234 . S
C407 H379 0.929 . S
C407 C410 1.391 . S
C407 C412 1.391 . S
C408 H380 0.929 . S
C408 C409 1.390 . S
C408 N411 1.391 . S
C409 H381 0.930 . S
C409 C408 1.390 . S
C409 C410 1.392 . S
C410 H382 0.929 . S
C410 C407 1.391 . S
C410 C409 1.392 . S
N411 Co355 2.257 . S
N411 C408 1.391 . S
N411 C412 1.388 . S
C412 H383 0.930 . S
C412 C407 1.391 . S
C412 N411 1.388 . S
Co413 O415 2.143 . S
Co413 O421 2.074 . S
Co413 O424 2.093 . S
Co413 O437 2.097 . S
Co413 N454 2.151 . S
Co413 N462 2.214 . S
Co414 O415 2.160 . S
Co414 O420 2.058 . S
Co414 O430 2.057 . S
Co414 O445 2.037 . S
Co414 N449 2.145 . S
Co414 N470 2.257 . S
O415 Co413 2.143 . S
O415 Co414 2.160 . S
C416 O417 1.278 . S
C416 O424 1.224 . S
O417 C416 1.278 . S
C418 O419 1.245 . S
C418 O430 1.232 . S
O419 C418 1.245 . S
O420 Co414 2.058 . S
O420 C446 1.269 . S
O421 Co413 2.074 . S
O421 C446 1.257 . S
H422 C447 0.930 . S
H423 C453 0.930 . S
O424 Co413 2.093 . S
O424 C416 1.224 . S
H425 C457 0.929 . S
H426 C459 0.930 . S
H427 C460 0.930 . S
H428 C458 0.929 . S
H429 C461 0.928 . S
O430 Co414 2.057 . S
O430 C418 1.232 . S
H431 C450 0.929 . S
H432 C451 0.929 . S
H433 C463 0.931 . S
H434 C455 0.929 . S
H435 C464 0.930 . S
H436 C456 0.931 . S
O437 Co413 2.097 . S
O437 C465 1.214 . S
H438 C466 0.929 . S
H439 C467 0.929 . S
H440 C468 0.930 . S
H441 C469 0.929 . S
H442 C471 0.930 . S
H443 C448 0.930 . S
H444 C452 0.930 . S
O445 Co414 2.037 . S
O445 C465 1.234 . S
C446 O420 1.269 . S
C446 O421 1.257 . S
C447 H422 0.930 . S
C447 C450 1.388 . S
C447 C452 1.418 . S
C448 H443 0.930 . S
C448 C451 1.404 . S
C448 C452 1.353 . S
N449 Co414 2.145 . S
N449 C450 1.397 . S
N449 C451 1.334 . S
C450 H431 0.929 . S
C450 C447 1.388 . S
C450 N449 1.397 . S
C451 H432 0.929 . S
C451 C448 1.404 . S
C451 N449 1.334 . S
C452 H444 0.930 . S
C452 C447 1.418 . S
C452 C448 1.353 . S
C453 H423 0.930 . S
C453 N454 1.330 . S
C453 C455 1.446 . S
N454 Co413 2.151 . S
N454 C453 1.330 . S
N454 C458 1.418 . S
C455 H434 0.929 . S
C455 C453 1.446 . S
C455 C456 1.332 . S
C456 H436 0.931 . S
C456 C455 1.332 . S
C456 C457 1.267 . S
C457 H425 0.929 . S
C457 C456 1.267 . S
C457 C458 1.251 . S
C458 H428 0.929 . S
C458 N454 1.418 . S
C458 C457 1.251 . S
C459 H426 0.930 . S
C459 C461 1.406 . S
C459 C464 1.261 . S
C460 H427 0.930 . S
C460 N462 1.325 . S
C460 C463 1.357 . S
C461 H429 0.928 . S
C461 C459 1.406 . S
C461 N462 1.261 . S
N462 Co413 2.214 . S
N462 C460 1.325 . S
N462 C461 1.261 . S
C463 H433 0.931 . S
C463 C460 1.357 . S
C463 C464 1.312 . S
C464 H435 0.930 . S
C464 C459 1.261 . S
C464 C463 1.312 . S
C465 O437 1.214 . S
C465 O445 1.234 . S
C466 H438 0.929 . S
C466 C469 1.391 . S
C466 C471 1.391 . S
C467 H439 0.929 . S
C467 C468 1.390 . S
C467 N470 1.391 . S
C468 H440 0.930 . S
C468 C467 1.390 . S
C468 C469 1.392 . S
C469 H441 0.929 . S
C469 C466 1.391 . S
C469 C468 1.392 . S
N470 Co414 2.257 . S
N470 C467 1.391 . S
N470 C471 1.388 . S
C471 H442 0.930 . S
C471 C466 1.391 . S
C471 N470 1.388 . S
H472 C478 0.930 . S
H473 C482 0.930 . S
H474 C487 0.929 . S
H475 C485 0.929 . S
H476 C480 0.929 . S
H477 C486 0.929 . S
C478 H472 0.930 . S
C478 C479 1.367 1_655 S
C478 C486 1.378 . S
C479 C478 1.367 1_455 S
C479 C487 1.433 . S
C480 H476 0.929 . S
C480 C482 1.378 . S
C480 C484 1.350 . S
C481 C484 1.463 . S
C481 C486 1.350 1_455 S
C481 N489 1.427 . S
C482 H473 0.930 . S
C482 C480 1.378 . S
C482 C483 1.367 1_455 S
C483 C482 1.367 1_655 S
C483 C485 1.433 . S
C484 C480 1.350 . S
C484 C481 1.463 . S
C484 N488 1.427 1_455 S
C485 H475 0.929 . S
C485 C483 1.433 . S
C485 N488 1.384 . S
C486 H477 0.929 . S
C486 C478 1.378 . S
C486 C481 1.350 1_655 S
C487 H474 0.929 . S
C487 C479 1.433 . S
C487 N489 1.384 . S
N488 C484 1.427 1_655 S
N488 C485 1.384 . S
N489 C481 1.427 . S
N489 C487 1.384 . S
H490 C496 0.930 . S
H491 C500 0.930 . S
H492 C505 0.929 . S
H493 C503 0.929 . S
H494 C498 0.929 . S
H495 C504 0.929 . S
C496 H490 0.930 . S
C496 C497 1.367 . S
C496 C504 1.378 . S
C497 C496 1.367 . S
C497 C505 1.433 1_655 S
C498 H494 0.929 . S
C498 C500 1.378 . S
C498 C502 1.350 . S
C499 C502 1.462 . S
C499 C504 1.352 1_455 S
C499 N507 1.426 . S
C500 H491 0.930 . S
C500 C498 1.378 . S
C500 C501 1.367 . S
C501 C500 1.367 . S
C501 C503 1.433 1_455 S
C502 C498 1.350 . S
C502 C499 1.462 . S
C502 N506 1.427 1_455 S
C503 H493 0.929 . S
C503 C501 1.433 1_655 S
C503 N506 1.384 . S
C504 H495 0.929 . S
C504 C496 1.378 . S
C504 C499 1.352 1_655 S
C505 H492 0.929 . S
C505 C497 1.433 1_455 S
C505 N507 1.384 . S
N506 C502 1.427 1_655 S
N506 C503 1.384 . S
N507 C499 1.426 . S
N507 C505 1.384 . S
H508 C514 0.930 . S
H509 C518 0.930 . S
H510 C523 0.929 . S
H511 C521 0.929 . S
H512 C516 0.929 . S
H513 C522 0.929 . S
C514 H508 0.930 . S
C514 C515 1.367 . S
C514 C522 1.378 . S
C515 C514 1.367 . S
C515 C523 1.433 . S
C516 H512 0.929 . S
C516 C518 1.378 . S
C516 C520 1.350 . S
C517 C520 1.463 . S
C517 C522 1.350 . S
C517 N525 1.427 . S
C518 H509 0.930 . S
C518 C516 1.378 . S
C518 C519 1.367 . S
C519 C518 1.367 . S
C519 C521 1.433 . S
C520 C516 1.350 . S
C520 C517 1.463 . S
C520 N524 1.427 . S
C521 H511 0.929 . S
C521 C519 1.433 . S
C521 N524 1.384 . S
C522 H513 0.929 . S
C522 C514 1.378 . S
C522 C517 1.350 . S
C523 H510 0.929 . S
C523 C515 1.433 . S
C523 N525 1.384 . S
N524 C520 1.427 . S
N524 C521 1.384 . S
N525 C517 1.427 . S
N525 C523 1.384 . S
H526 C532 0.930 . S
H527 C536 0.930 . S
H528 C541 0.929 . S
H529 C539 0.929 . S
H530 C534 0.929 . S
H531 C540 0.929 . S
C532 H526 0.930 . S
C532 C533 1.367 . S
C532 C540 1.378 . S
C533 C532 1.367 . S
C533 C541 1.433 . S
C534 H530 0.929 . S
C534 C536 1.378 . S
C534 C538 1.350 . S
C535 C538 1.463 . S
C535 C540 1.350 . S
C535 N543 1.427 . S
C536 H527 0.930 . S
C536 C534 1.378 . S
C536 C537 1.367 . S
C537 C536 1.367 . S
C537 C539 1.433 . S
C538 C534 1.350 . S
C538 C535 1.463 . S
C538 N542 1.427 . S
C539 H529 0.929 . S
C539 C537 1.433 . S
C539 N542 1.384 . S
C540 H531 0.929 . S
C540 C532 1.378 . S
C540 C535 1.350 . S
C541 H528 0.929 . S
C541 C533 1.433 . S
C541 N543 1.384 . S
N542 C538 1.427 . S
N542 C539 1.384 . S
N543 C535 1.427 . S
N543 C541 1.384 . S
H544 C550 0.930 . S
H545 C554 0.930 . S
H546 C559 0.929 . S
H547 C557 0.929 . S
H548 C552 0.929 . S
H549 C558 0.929 . S
C550 H544 0.930 . S
C550 C551 1.367 . S
C550 C558 1.378 . S
C551 C550 1.367 . S
C551 C559 1.433 . S
C552 H548 0.929 . S
C552 C554 1.378 . S
C552 C556 1.350 . S
C553 C556 1.463 . S
C553 C558 1.350 . S
C553 N561 1.427 . S
C554 H545 0.930 . S
C554 C552 1.378 . S
C554 C555 1.367 . S
C555 C554 1.367 . S
C555 C557 1.433 . S
C556 C552 1.350 . S
C556 C553 1.463 . S
C556 N560 1.427 . S
C557 H547 0.929 . S
C557 C555 1.433 . S
C557 N560 1.384 . S
C558 H549 0.929 . S
C558 C550 1.378 . S
C558 C553 1.350 . S
C559 H546 0.929 . S
C559 C551 1.433 . S
C559 N561 1.384 . S
N560 C556 1.427 . S
N560 C557 1.384 . S
N561 C553 1.427 . S
N561 C559 1.384 . S
H562 C568 0.930 . S
H563 C572 0.930 . S
H564 C577 0.929 . S
H565 C575 0.929 . S
H566 C570 0.929 . S
H567 C576 0.929 . S
C568 H562 0.930 . S
C568 C569 1.367 . S
C568 C576 1.378 . S
C569 C568 1.367 . S
C569 C577 1.433 . S
C570 H566 0.929 . S
C570 C572 1.378 . S
C570 C574 1.350 . S
C571 C574 1.463 . S
C571 C576 1.350 . S
C571 N579 1.427 . S
C572 H563 0.930 . S
C572 C570 1.378 . S
C572 C573 1.367 . S
C573 C572 1.367 . S
C573 C575 1.433 . S
C574 C570 1.350 . S
C574 C571 1.463 . S
C574 N578 1.427 . S
C575 H565 0.929 . S
C575 C573 1.433 . S
C575 N578 1.384 . S
C576 H567 0.929 . S
C576 C568 1.378 . S
C576 C571 1.350 . S
C577 H564 0.929 . S
C577 C569 1.433 . S
C577 N579 1.384 . S
N578 C574 1.427 . S
N578 C575 1.384 . S
N579 C571 1.427 . S
N579 C577 1.384 . S
H580 C586 0.930 . S
H581 C590 0.930 . S
H582 C595 0.929 . S
H583 C593 0.929 . S
H584 C588 0.929 . S
H585 C594 0.929 . S
C586 H580 0.930 . S
C586 C587 1.367 . S
C586 C594 1.378 . S
C587 C586 1.367 . S
C587 C595 1.433 . S
C588 H584 0.929 . S
C588 C590 1.378 . S
C588 C592 1.350 . S
C589 C592 1.463 . S
C589 C594 1.350 . S
C589 N597 1.427 . S
C590 H581 0.930 . S
C590 C588 1.378 . S
C590 C591 1.367 . S
C591 C590 1.367 . S
C591 C593 1.433 . S
C592 C588 1.350 . S
C592 C589 1.463 . S
C592 N596 1.427 . S
C593 H583 0.929 . S
C593 C591 1.433 . S
C593 N596 1.384 . S
C594 H585 0.929 . S
C594 C586 1.378 . S
C594 C589 1.350 . S
C595 H582 0.929 . S
C595 C587 1.433 . S
C595 N597 1.384 . S
N596 C592 1.427 . S
N596 C593 1.384 . S
N597 C589 1.427 . S
N597 C595 1.384 . S
H598 C604 0.930 . S
H599 C608 0.930 . S
H600 C613 0.929 . S
H601 C611 0.929 . S
H602 C606 0.929 . S
H603 C612 0.929 . S
C604 H598 0.930 . S
C604 C605 1.367 . S
C604 C612 1.378 . S
C605 C604 1.367 . S
C605 C613 1.433 . S
C606 H602 0.929 . S
C606 C608 1.378 . S
C606 C610 1.350 . S
C607 C610 1.463 . S
C607 C612 1.350 . S
C607 N615 1.427 . S
C608 H599 0.930 . S
C608 C606 1.378 . S
C608 C609 1.367 . S
C609 C608 1.367 . S
C609 C611 1.433 . S
C610 C606 1.350 . S
C610 C607 1.463 . S
C610 N614 1.427 . S
C611 H601 0.929 . S
C611 C609 1.433 . S
C611 N614 1.384 . S
C612 H603 0.929 . S
C612 C604 1.378 . S
C612 C607 1.350 . S
C613 H600 0.929 . S
C613 C605 1.433 . S
C613 N615 1.384 . S
N614 C610 1.427 . S
N614 C611 1.384 . S
N615 C607 1.427 . S
N615 C613 1.384 . S
H616 C622 0.930 . S
H617 C626 0.930 . S
H618 C631 0.929 . S
H619 C629 0.929 . S
H620 C624 0.929 . S
H621 C630 0.929 . S
C622 H616 0.930 . S
C622 C623 1.367 . S
C622 C630 1.378 . S
C623 C622 1.367 . S
C623 C631 1.433 . S
C624 H620 0.929 . S
C624 C626 1.378 . S
C624 C628 1.350 . S
C625 C628 1.463 . S
C625 C630 1.350 . S
C625 N633 1.427 . S
C626 H617 0.930 . S
C626 C624 1.378 . S
C626 C627 1.367 . S
C627 C626 1.367 . S
C627 C629 1.433 . S
C628 C624 1.350 . S
C628 C625 1.463 . S
C628 N632 1.427 . S
C629 H619 0.929 . S
C629 C627 1.433 . S
C629 N632 1.384 . S
C630 H621 0.929 . S
C630 C622 1.378 . S
C630 C625 1.350 . S
C631 H618 0.929 . S
C631 C623 1.433 . S
C631 N633 1.384 . S
N632 C628 1.427 . S
N632 C629 1.384 . S
N633 C625 1.427 . S
N633 C631 1.384 . S
H634 C640 0.930 . S
H635 C644 0.930 . S
H636 C649 0.929 . S
H637 C647 0.929 . S
H638 C642 0.929 . S
H639 C648 0.929 . S
C640 H634 0.930 . S
C640 C641 1.367 . S
C640 C648 1.378 . S
C641 C640 1.367 . S
C641 C649 1.433 . S
C642 H638 0.929 . S
C642 C644 1.378 . S
C642 C646 1.350 . S
C643 C646 1.463 . S
C643 C648 1.350 . S
C643 N651 1.427 . S
C644 H635 0.930 . S
C644 C642 1.378 . S
C644 C645 1.367 . S
C645 C644 1.367 . S
C645 C647 1.433 . S
C646 C642 1.350 . S
C646 C643 1.463 . S
C646 N650 1.427 . S
C647 H637 0.929 . S
C647 C645 1.433 . S
C647 N650 1.384 . S
C648 H639 0.929 . S
C648 C640 1.378 . S
C648 C643 1.350 . S
C649 H636 0.929 . S
C649 C641 1.433 . S
C649 N651 1.384 . S
N650 C646 1.427 . S
N650 C647 1.384 . S
N651 C643 1.427 . S
N651 C649 1.384 . S
H652 C658 0.930 . S
H653 C662 0.930 . S
H654 C667 0.929 . S
H655 C665 0.929 . S
H656 C660 0.929 . S
H657 C666 0.929 . S
C658 H652 0.930 . S
C658 C659 1.367 . S
C658 C666 1.378 . S
C659 C658 1.367 . S
C659 C667 1.433 . S
C660 H656 0.929 . S
C660 C662 1.378 . S
C660 C664 1.350 . S
C661 C664 1.463 . S
C661 C666 1.350 . S
C661 N669 1.427 . S
C662 H653 0.930 . S
C662 C660 1.378 . S
C662 C663 1.367 . S
C663 C662 1.367 . S
C663 C665 1.433 . S
C664 C660 1.350 . S
C664 C661 1.463 . S
C664 N668 1.427 . S
C665 H655 0.929 . S
C665 C663 1.433 . S
C665 N668 1.384 . S
C666 H657 0.929 . S
C666 C658 1.378 . S
C666 C661 1.350 . S
C667 H654 0.929 . S
C667 C659 1.433 . S
C667 N669 1.384 . S
N668 C664 1.427 . S
N668 C665 1.384 . S
N669 C661 1.427 . S
N669 C667 1.384 . S
H670 C676 0.930 . S
H671 C680 0.930 . S
H672 C685 0.929 . S
H673 C683 0.929 . S
H674 C678 0.929 . S
H675 C684 0.929 . S
C676 H670 0.930 . S
C676 C677 1.367 . S
C676 C684 1.378 . S
C677 C676 1.367 . S
C677 C685 1.433 . S
C678 H674 0.929 . S
C678 C680 1.378 . S
C678 C682 1.350 . S
C679 C682 1.463 . S
C679 C684 1.350 . S
C679 N687 1.427 . S
C680 H671 0.930 . S
C680 C678 1.378 . S
C680 C681 1.367 . S
C681 C680 1.367 . S
C681 C683 1.433 . S
C682 C678 1.350 . S
C682 C679 1.463 . S
C682 N686 1.427 . S
C683 H673 0.929 . S
C683 C681 1.433 . S
C683 N686 1.384 . S
C684 H675 0.929 . S
C684 C676 1.378 . S
C684 C679 1.350 . S
C685 H672 0.929 . S
C685 C677 1.433 . S
C685 N687 1.384 . S
N686 C682 1.427 . S
N686 C683 1.384 . S
N687 C679 1.427 . S
N687 C685 1.384 . S
H688 C694 0.930 . S
H689 C698 0.930 . S
H690 C703 0.929 . S
H691 C701 0.929 . S
H692 C696 0.929 1_545 S
H693 C702 0.929 1_565 S
C694 H688 0.930 . S
C694 C695 1.367 . S
C694 C702 1.378 . S
C695 C694 1.367 . S
C695 C703 1.433 1_655 S
C696 H692 0.929 1_565 S
C696 C698 1.378 . S
C696 C700 1.350 1_455 S
C697 C700 1.463 1_544 S
C697 C702 1.350 . S
C697 N705 1.419 1_654 S
C698 H689 0.930 . S
C698 C696 1.378 . S
C698 C699 1.367 1_455 S
C699 C698 1.367 1_655 S
C699 C701 1.433 . S
C700 C696 1.350 1_655 S
C700 C697 1.463 1_566 S
C700 N704 1.419 1_556 S
C701 H691 0.929 . S
C701 C699 1.433 . S
C701 N704 1.369 1_556 S
C702 H693 0.929 1_545 S
C702 C694 1.378 . S
C702 C697 1.350 . S
C703 H690 0.929 . S
C703 C695 1.433 1_455 S
C703 N705 1.369 1_554 S
N704 C700 1.419 1_554 S
N704 C701 1.369 1_554 S
N705 C697 1.419 1_456 S
N705 C703 1.369 1_556 S
H706 C712 0.930 . S
H707 C716 0.930 . S
H708 C721 0.929 . S
H709 C719 0.929 . S
H710 C714 0.929 . S
H711 C720 0.929 . S
C712 H706 0.930 . S
C712 C713 1.367 1_655 S
C712 C720 1.378 . S
C713 C712 1.367 1_455 S
C713 C721 1.433 . S
C714 H710 0.929 . S
C714 C716 1.378 . S
C714 C718 1.350 . S
C715 C718 1.463 1_556 S
C715 C720 1.350 1_455 S
C715 N723 1.427 . S
C716 H707 0.930 . S
C716 C714 1.378 . S
C716 C717 1.367 . S
C717 C716 1.367 . S
C717 C719 1.433 1_455 S
C718 C714 1.350 . S
C718 C715 1.463 1_554 S
C718 N722 1.427 1_455 S
C719 H709 0.929 . S
C719 C717 1.433 1_655 S
C719 N722 1.384 . S
C720 H711 0.929 . S
C720 C712 1.378 . S
C720 C715 1.350 1_655 S
C721 H708 0.929 . S
C721 C713 1.433 . S
C721 N723 1.384 . S
N722 C718 1.427 1_655 S
N722 C719 1.384 . S
N723 C715 1.427 . S
N723 C721 1.384 . S
H724 C730 0.930 . S
H725 C734 0.930 . S
H726 C739 0.929 . S
H727 C737 0.929 . S
H728 C732 0.929 . S
H729 C738 0.929 . S
C730 H724 0.930 . S
C730 C731 1.367 . S
C730 C738 1.378 . S
C731 C730 1.367 . S
C731 C739 1.433 . S
C732 H728 0.929 . S
C732 C734 1.378 . S
C732 C736 1.350 . S
C733 C736 1.463 . S
C733 C738 1.350 . S
C733 N741 1.427 . S
C734 H725 0.930 . S
C734 C732 1.378 . S
C734 C735 1.367 . S
C735 C734 1.367 . S
C735 C737 1.433 . S
C736 C732 1.350 . S
C736 C733 1.463 . S
C736 N740 1.427 . S
C737 H727 0.929 . S
C737 C735 1.433 . S
C737 N740 1.384 . S
C738 H729 0.929 . S
C738 C730 1.378 . S
C738 C733 1.350 . S
C739 H726 0.929 . S
C739 C731 1.433 . S
C739 N741 1.384 . S
N740 C736 1.427 . S
N740 C737 1.384 . S
N741 C733 1.427 . S
N741 C739 1.384 . S
H742 C748 0.930 . S
H743 C752 0.930 . S
H744 C757 0.929 . S
H745 C755 0.929 . S
H746 C750 0.929 . S
H747 C756 0.929 . S
C748 H742 0.930 . S
C748 C749 1.367 . S
C748 C756 1.378 . S
C749 C748 1.367 . S
C749 C757 1.433 . S
C750 H746 0.929 . S
C750 C752 1.378 . S
C750 C754 1.350 . S
C751 C754 1.463 1_565 S
C751 C756 1.350 . S
C751 N759 1.427 . S
C752 H743 0.930 . S
C752 C750 1.378 . S
C752 C753 1.367 . S
C753 C752 1.367 . S
C753 C755 1.433 . S
C754 C750 1.350 . S
C754 C751 1.463 1_545 S
C754 N758 1.427 . S
C755 H745 0.929 . S
C755 C753 1.433 . S
C755 N758 1.384 . S
C756 H747 0.929 . S
C756 C748 1.378 . S
C756 C751 1.350 . S
C757 H744 0.929 . S
C757 C749 1.433 . S
C757 N759 1.384 . S
N758 C754 1.427 . S
N758 C755 1.384 . S
N759 C751 1.427 . S
N759 C757 1.384 . S
C479 C111 1.502 . S
C483 C52 1.502 . S
C497 C170 1.507 . S
C501 C229 1.507 . S
C515 C288 1.504 . S
C519 C347 1.504 . S
C533 C406 1.508 . S
C537 C465 1.507 . S
C551 C416 1.235 . S
C555 C3 1.231 . S
C569 C357 1.237 . S
C573 C62 1.230 . S
C587 C121 1.234 . S
C591 C298 1.232 . S
C605 C239 1.229 . S
C609 C180 1.238 . S
C623 C328 1.728 . S
C627 C151 1.729 . S
C641 C269 1.728 . S
C645 C210 1.727 . S
C659 C446 1.727 . S
C663 C33 1.730 . S
C677 C92 1.727 . S
C681 C387 1.727 . S
C695 C5 1.483 . S
C699 C123 1.483 . S
C713 C182 1.484 . S
C717 C64 1.483 . S
C731 C359 1.483 . S
C735 C241 1.484 . S
C749 C300 1.483 . S
C753 C418 1.484 . S
