# Generated by pormake.
# Topology unh, (4)-cn, num edge types: 1
# Building blocks:
#     Node 0, Type 0, BuildingBlock: KOZSID_clean_sbu_0, # of connection points: 4
#     Node 1, Type 0, BuildingBlock: KOZSID_clean_sbu_0, # of connection points: 4
#     Node 2, Type 0, BuildingBlock: KOZSID_clean_sbu_0, # of connection points: 4
#     Node 3, Type 0, BuildingBlock: KOZSID_clean_sbu_0, # of connection points: 4
#     Node 4, Type 0, BuildingBlock: KOZSID_clean_sbu_0, # of connection points: 4
#     Node 5, Type 0, BuildingBlock: KOZSID_clean_sbu_0, # of connection points: 4
#     Edge 6, Type (0, 0), BuildingBlock: FUNLAD_clean_linker_1, # of connection points: 2
#     Edge 7, Type (0, 0), BuildingBlock: FUNLAD_clean_linker_1, # of connection points: 2
#     Edge 8, Type (0, 0), BuildingBlock: FUNLAD_clean_linker_1, # of connection points: 2
#     Edge 9, Type (0, 0), BuildingBlock: FUNLAD_clean_linker_1, # of connection points: 2
#     Edge 10, Type (0, 0), BuildingBlock: FUNLAD_clean_linker_1, # of connection points: 2
#     Edge 11, Type (0, 0), BuildingBlock: FUNLAD_clean_linker_1, # of connection points: 2
#     Edge 12, Type (0, 0), BuildingBlock: FUNLAD_clean_linker_1, # of connection points: 2
#     Edge 13, Type (0, 0), BuildingBlock: FUNLAD_clean_linker_1, # of connection points: 2
#     Edge 14, Type (0, 0), BuildingBlock: FUNLAD_clean_linker_1, # of connection points: 2
#     Edge 15, Type (0, 0), BuildingBlock: FUNLAD_clean_linker_1, # of connection points: 2
#     Edge 16, Type (0, 0), BuildingBlock: FUNLAD_clean_linker_1, # of connection points: 2
#     Edge 17, Type (0, 0), BuildingBlock: FUNLAD_clean_linker_1, # of connection points: 2
# Relax obj value: 0.012
# Max RMSD: 0.275
# Mean RMSD: 0.251
data_MOF--net-unh--node1-KOZSID_clean_sbu_0--edge1-FUNLAD_clean_linker_1
_symmetry_space_group_name_H-M    P1
_symmetry_Int_Tables_number       1
_symmetry_cell_setting            triclinic
loop_
_symmetry_equiv_pos_as_xyz
'x, y, z'
_cell_length_a     55.526459
_cell_length_b     60.80042
_cell_length_c     23.670478
_cell_angle_alpha  90.108566
_cell_angle_beta   90.060012
_cell_angle_gamma 120.25949
loop_
_atom_site_label
_atom_site_type_symbol
_atom_site_fract_x
_atom_site_fract_y
_atom_site_fract_z
_atom_type_partial_charge
C0 C 0.22487 0.62114 0.19353 0.0
C1 C 0.23448 0.64259 0.22771 0.0
C2 C 0.22224 0.65586 0.20865 0.0
C3 C 0.2056 0.64177 0.16449 0.0
N4 N 0.20592 0.62005 0.15507 0.0
Co5 Co 0.18608 0.59587 0.09135 0.0
N6 N 0.1629 0.61171 0.07254 0.0
C7 C 0.16836 0.63475 0.09093 0.0
C8 C 0.15098 0.64231 0.0685 0.0
C9 C 0.13339 0.62292 0.03336 0.0
C10 C 0.14054 0.60406 0.03698 0.0
N11 N 0.16695 0.57211 0.02653 0.0
C12 C 0.14438 0.56754 0.99487 0.0
C13 C 0.13819 0.54828 0.95538 0.0
C14 C 0.15802 0.5416 0.96057 0.0
C15 C 0.17485 0.55649 1.00333 0.0
N16 N 0.20876 0.57947 0.10996 0.0
C17 C 0.21182 0.56337 0.07547 0.0
C18 C 0.23113 0.55735 0.09315 0.0
C19 C 0.24143 0.57067 0.14181 0.0
C20 C 0.22713 0.58359 0.15273 0.0
N21 N 0.15649 0.57253 0.14397 0.0
C22 C 0.11398 0.54057 0.22107 0.0
C23 C 0.12543 0.53068 0.18243 0.0
C24 C 0.14655 0.54686 0.14443 0.0
C25 C 0.12455 0.56697 0.21968 0.0
C26 C 0.14554 0.58236 0.18135 0.0
N27 N 0.2159 0.62028 0.04014 0.0
C28 C 0.26414 0.65359 0.03056 0.0
C29 C 0.25757 0.66457 0.98544 0.0
C30 C 0.22995 0.6515 0.96547 0.0
C31 C 0.20961 0.62929 0.99272 0.0
C32 C 0.24325 0.63158 0.05666 0.0
H33 H 0.18851 0.62027 0.97707 0.0
H34 H 0.24937 0.62489 0.09259 0.0
H35 H 0.1548 0.53859 0.11547 0.0
H36 H 0.15282 0.60241 0.18219 0.0
C37 C 0.18855 0.64774 0.13245 0.0
C38 C 0.2359 0.60349 0.19693 0.0
C39 C 0.12882 0.58135 0.9993 0.0
C40 C 0.19607 0.55395 0.02689 0.0
H41 H 0.24937 0.64845 0.26203 0.0
H42 H 0.22522 0.67371 0.22495 0.0
H43 H 0.1512 0.65995 0.07633 0.0
H44 H 0.1182 0.62361 1.00609 0.0
H45 H 0.1211 0.5394 0.92572 0.0
H46 H 0.1594 0.52693 0.93727 0.0
H47 H 0.23791 0.54567 0.07173 0.0
H48 H 0.2595 0.57249 0.16265 0.0
H49 H 0.11809 0.51046 0.18149 0.0
H50 H 0.11698 0.57617 0.24764 0.0
H51 H 0.28487 0.66242 0.04841 0.0
H52 H 0.22382 0.65891 0.93015 0.0
C53 C 0.63109 0.19703 0.35627 0.0
C54 C 0.61687 0.20617 0.38777 0.0
C55 C 0.59156 0.19751 0.36211 0.0
C56 C 0.59142 0.18315 0.31723 0.0
N57 N 0.61469 0.18151 0.31376 0.0
Co58 Co 0.62294 0.1638 0.25204 0.0
N59 N 0.58385 0.14652 0.22209 0.0
C60 C 0.56498 0.1535 0.23412 0.0
C61 C 0.54083 0.14035 0.20354 0.0
C62 C 0.54459 0.12388 0.17021 0.0
C63 C 0.57064 0.12724 0.18354 0.0
N64 N 0.63158 0.14708 0.189 0.0
C65 C 0.6146 0.12881 0.1515 0.0
C66 C 0.63027 0.12571 0.10952 0.0
C67 C 0.65765 0.14183 0.12217 0.0
C68 C 0.65739 0.15421 0.17023 0.0
N69 N 0.66189 0.18019 0.2822 0.0
C70 C 0.6837 0.18073 0.25598 0.0
C71 C 0.70759 0.19155 0.28756 0.0
C72 C 0.70081 0.19903 0.33644 0.0
C73 C 0.67297 0.19266 0.33173 0.0
N74 N 0.61232 0.13422 0.30193 0.0
C75 C 0.59764 0.09343 0.37814 0.0
C76 C 0.6214 0.1028 0.34363 0.0
C77 C 0.62834 0.12304 0.30601 0.0
C78 C 0.58109 0.10476 0.37226 0.0
C79 C 0.58877 0.12494 0.33432 0.0
N80 N 0.63301 0.19367 0.2031 0.0
C81 C 0.65259 0.23927 0.19555 0.0
C82 C 0.63795 0.23645 0.14513 0.0
C83 C 0.62255 0.21178 0.12239 0.0
C84 C 0.62058 0.1908 0.15149 0.0
C85 C 0.64996 0.21784 0.22331 0.0
H86 H 0.60802 0.17216 0.13312 0.0
H87 H 0.6609 0.22107 0.26251 0.0
H88 H 0.64679 0.12973 0.2805 0.0
H89 H 0.5755 0.13304 0.33147 0.0
C90 C 0.56975 0.1706 0.2781 0.0
C91 C 0.66064 0.20477 0.36615 0.0
C92 C 0.5838 0.11448 0.15373 0.0
C93 C 0.68065 0.16967 0.20309 0.0
H94 H 0.62433 0.21844 0.42454 0.0
H95 H 0.57532 0.20142 0.37443 0.0
H96 H 0.52265 0.14252 0.20507 0.0
H97 H 0.53021 0.11193 0.13783 0.0
H98 H 0.62308 0.11339 0.07289 0.0
H99 H 0.67561 0.14379 0.09978 0.0
H100 H 0.72766 0.19396 0.2762 0.0
H101 H 0.71547 0.20936 0.36992 0.0
H102 H 0.63474 0.09459 0.3459 0.0
H103 H 0.56214 0.09824 0.39618 0.0
H104 H 0.66531 0.25762 0.21529 0.0
H105 H 0.6113 0.20856 0.08298 0.0
C106 C 0.4348 0.61209 0.34791 0.0
C107 C 0.44667 0.63455 0.31709 0.0
C108 C 0.47496 0.64483 0.32009 0.0
C109 C 0.47893 0.6285 0.35336 0.0
N110 N 0.45494 0.608 0.3704 0.0
Co111 Co 0.45169 0.58318 0.43029 0.0
N112 N 0.49302 0.60109 0.44461 0.0
C113 C 0.51241 0.62026 0.4128 0.0
C114 C 0.5392 0.62696 0.42655 0.0
C115 C 0.53682 0.61091 0.46929 0.0
C116 C 0.50853 0.59555 0.48063 0.0
N117 N 0.44744 0.55939 0.49297 0.0
C118 C 0.46657 0.55876 0.52774 0.0
C119 C 0.45357 0.54016 0.56917 0.0
C120 C 0.42573 0.52787 0.55828 0.0
C121 C 0.42305 0.5399 0.51204 0.0
N122 N 0.4108 0.56411 0.41417 0.0
C123 C 0.39195 0.54108 0.43472 0.0
C124 C 0.36541 0.53226 0.41507 0.0
C125 C 0.36732 0.55119 0.38124 0.0
C126 C 0.39499 0.57072 0.38307 0.0
N127 N 0.457 0.56128 0.37345 0.0
C128 C 0.46982 0.53216 0.29751 0.0
C129 C 0.45306 0.52107 0.3451 0.0
C130 C 0.44705 0.53579 0.3823 0.0
C131 C 0.47891 0.55783 0.28742 0.0
C132 C 0.47221 0.57175 0.32512 0.0
N133 N 0.44701 0.60565 0.48525 0.0
C134 C 0.41652 0.61626 0.537 0.0
C135 C 0.43711 0.64213 0.53853 0.0
C136 C 0.46349 0.64877 0.51776 0.0
C137 C 0.46793 0.63048 0.49176 0.0
C138 C 0.42191 0.59837 0.5107 0.0
H139 H 0.48835 0.63723 0.47529 0.0
H140 H 0.40525 0.57889 0.50946 0.0
H141 H 0.43449 0.52611 0.41815 0.0
H142 H 0.47982 0.59106 0.31386 0.0
C143 C 0.50468 0.63256 0.37284 0.0
C144 C 0.40463 0.59596 0.35918 0.0
C145 C 0.49706 0.57461 0.52252 0.0
C146 C 0.39844 0.53147 0.4818 0.0
H147 H 0.43637 0.64342 0.29661 0.0
H148 H 0.49076 0.66281 0.3026 0.0
H149 H 0.55825 0.6416 0.40734 0.0
H150 H 0.55417 0.61028 0.48811 0.0
H151 H 0.46312 0.53545 0.60334 0.0
H152 H 0.40945 0.51161 0.58045 0.0
H153 H 0.34655 0.51513 0.42758 0.0
H154 H 0.35 0.5513 0.3605 0.0
H155 H 0.44496 0.5011 0.35424 0.0
H156 H 0.49087 0.56728 0.25007 0.0
H157 H 0.39603 0.60996 0.5544 0.0
H158 H 0.48081 0.66809 0.52069 0.0
C159 C 0.85536 0.43694 0.70055 0.0
C160 C 0.84647 0.41637 0.73689 0.0
C161 C 0.85643 0.40148 0.71582 0.0
C162 C 0.87082 0.41363 0.66789 0.0
N163 N 0.87122 0.43564 0.65803 0.0
Co164 Co 0.88779 0.45731 0.58951 0.0
N165 N 0.90856 0.43968 0.56712 0.0
C166 C 0.90277 0.41667 0.58596 0.0
C167 C 0.91835 0.40786 0.56004 0.0
C168 C 0.93511 0.42652 0.52254 0.0
C169 C 0.92946 0.44622 0.52861 0.0
N170 N 0.90346 0.47846 0.52033 0.0
C171 C 0.92314 0.4803 0.48347 0.0
C172 C 0.92435 0.49454 0.4363 0.0
C173 C 0.90581 0.50265 0.44509 0.0
C174 C 0.89388 0.49263 0.49615 0.0
N175 N 0.86787 0.47575 0.61143 0.0
C176 C 0.8659 0.49329 0.58027 0.0
C177 C 0.85367 0.50489 0.60819 0.0
C178 C 0.84668 0.49343 0.65983 0.0
C179 C 0.85415 0.4748 0.65955 0.0
N180 N 0.92041 0.48153 0.63523 0.0
C181 C 0.96342 0.51397 0.71119 0.0
C182 C 0.95171 0.52363 0.67267 0.0
C183 C 0.93045 0.50722 0.63496 0.0
C184 C 0.95337 0.48767 0.70933 0.0
C185 C 0.93224 0.47205 0.67132 0.0
N186 N 0.85476 0.43205 0.54552 0.0
C187 C 0.80494 0.40293 0.54247 0.0
C188 C 0.80759 0.38946 0.49738 0.0
C189 C 0.83431 0.3988 0.47424 0.0
C190 C 0.85748 0.42034 0.49832 0.0
C191 C 0.8285 0.42378 0.56597 0.0
H192 H 0.87766 0.42695 0.47959 0.0
H193 H 0.82515 0.4324 0.6022 0.0
H194 H 0.92183 0.51528 0.60642 0.0
H195 H 0.92503 0.45201 0.67245 0.0
C196 C 0.88486 0.40547 0.63199 0.0
C197 C 0.84391 0.45424 0.70148 0.0
C198 C 0.94109 0.4691 0.49192 0.0
C199 C 0.87692 0.49922 0.52611 0.0
H200 H 0.83294 0.41185 0.77315 0.0
H201 H 0.85306 0.38363 0.73281 0.0
H202 H 0.91765 0.38998 0.56743 0.0
H203 H 0.94868 0.42489 0.4923 0.0
H204 H 0.93711 0.49879 0.39897 0.0
H205 H 0.90211 0.51504 0.41819 0.0
H206 H 0.85019 0.51982 0.59283 0.0
H207 H 0.83597 0.49739 0.69296 0.0
H208 H 0.95872 0.54379 0.67211 0.0
H209 H 0.96091 0.47864 0.73789 0.0
H210 H 0.78473 0.39675 0.56125 0.0
H211 H 0.83741 0.38965 0.43797 0.0
C212 C 0.45202 0.85746 0.85988 0.0
C213 C 0.46768 0.8501 0.89227 0.0
C214 C 0.49288 0.85937 0.8661 0.0
C215 C 0.49153 0.87219 0.81981 0.0
N216 N 0.46738 0.87235 0.81592 0.0
Co217 Co 0.45731 0.88809 0.7532 0.0
N218 N 0.49621 0.90652 0.72252 0.0
C219 C 0.51604 0.90073 0.73459 0.0
C220 C 0.53983 0.91434 0.70344 0.0
C221 C 0.53482 0.92987 0.66966 0.0
C222 C 0.50842 0.92553 0.68335 0.0
N223 N 0.44715 0.90324 0.68931 0.0
C224 C 0.46332 0.92166 0.65155 0.0
C225 C 0.44687 0.9237 0.60966 0.0
C226 C 0.41979 0.9067 0.62261 0.0
C227 C 0.42105 0.89494 0.67076 0.0
N228 N 0.41834 0.87023 0.78392 0.0
C229 C 0.39597 0.86832 0.75699 0.0
C230 C 0.37191 0.85607 0.7873 0.0
C231 C 0.37908 0.84894 0.83601 0.0
C232 C 0.40745 0.85695 0.8328 0.0
N233 N 0.46666 0.91788 0.80179 0.0
C234 C 0.47961 0.95865 0.87736 0.0
C235 C 0.45537 0.94789 0.84379 0.0
C236 C 0.44928 0.92764 0.80647 0.0
C237 C 0.49757 0.94886 0.8706 0.0
C238 C 0.49073 0.92867 0.83304 0.0
N239 N 0.44851 0.85797 0.70565 0.0
C240 C 0.43022 0.81248 0.69976 0.0
C241 C 0.44405 0.81508 0.64853 0.0
C242 C 0.45882 0.83958 0.62501 0.0
C243 C 0.46051 0.86063 0.65369 0.0
C244 C 0.43258 0.83391 0.72702 0.0
H245 H 0.4724 0.87915 0.63459 0.0
H246 H 0.42226 0.83074 0.76673 0.0
H247 H 0.43041 0.91978 0.78175 0.0
H248 H 0.5051 0.92177 0.82963 0.0
C249 C 0.51261 0.88466 0.77973 0.0
C250 C 0.42167 0.84666 0.86821 0.0
C251 C 0.49407 0.93714 0.65347 0.0
C252 C 0.39835 0.87895 0.70396 0.0
H253 H 0.461 0.83816 0.92947 0.0
H254 H 0.50995 0.85666 0.87876 0.0
H255 H 0.55864 0.91318 0.7051 0.0
H256 H 0.54867 0.94195 0.63693 0.0
H257 H 0.45334 0.9359 0.57299 0.0
H258 H 0.40135 0.9038 0.60039 0.0
H259 H 0.35141 0.85243 0.77516 0.0
H260 H 0.36404 0.83816 0.86795 0.0
H261 H 0.44099 0.95496 0.84665 0.0
H262 H 0.51704 0.95668 0.89348 0.0
H263 H 0.41857 0.79433 0.72075 0.0
H264 H 0.46962 0.84261 0.58517 0.0
C265 C 0.63066 0.43777 0.82866 0.0
C266 C 0.61667 0.4174 0.79147 0.0
C267 C 0.58887 0.40656 0.80285 0.0
C268 C 0.58725 0.42072 0.84613 0.0
N269 N 0.61222 0.44052 0.86185 0.0
Co270 Co 0.61904 0.4641 0.9273 0.0
N271 N 0.57855 0.44646 0.94898 0.0
C272 C 0.55757 0.42656 0.92123 0.0
C273 C 0.53213 0.41745 0.94642 0.0
C274 C 0.53698 0.43287 0.99212 0.0
C275 C 0.56515 0.45127 0.99149 0.0
N276 N 0.62661 0.48668 0.99484 0.0
C277 C 0.60943 0.48631 0.03634 0.0
C278 C 0.6248 0.50417 0.07825 0.0
C279 C 0.65191 0.51663 0.06156 0.0
C280 C 0.65198 0.50569 1.01124 0.0
N281 N 0.65919 0.48272 0.90437 0.0
C282 C 0.6791 0.50533 0.92506 0.0
C283 C 0.70413 0.51507 0.8979 0.0
C284 C 0.70016 0.49722 0.8584 0.0
C285 C 0.67307 0.477 0.86522 0.0
N286 N 0.6122 0.48744 0.87827 0.0
C287 C 0.60073 0.51941 0.80872 0.0
C288 C 0.6197 0.52932 0.8538 0.0
C289 C 0.62501 0.51322 0.88784 0.0
C290 C 0.58797 0.49319 0.79896 0.0
C291 C 0.59377 0.47785 0.83384 0.0
N292 N 0.62558 0.44049 0.9748 0.0
C293 C 0.65715 0.43102 0.02605 0.0
C294 C 0.63752 0.4049 0.02612 0.0
C295 C 0.61123 0.39727 1.00314 0.0
C296 C 0.60577 0.41516 0.9782 0.0
C297 C 0.65084 0.44839 1.0004 0.0
H298 H 0.58544 0.40785 0.96092 0.0
H299 H 0.66685 0.46808 1.00044 0.0
H300 H 0.63943 0.52207 0.92184 0.0
H301 H 0.58282 0.45816 0.82365 0.0
C302 C 0.56287 0.41546 0.8746 0.0
C303 C 0.66135 0.45254 0.83492 0.0
C304 C 0.57859 0.4722 0.03349 0.0
C305 C 0.67506 0.51438 0.97602 0.0
H306 H 0.62539 0.41039 0.76034 0.0
H307 H 0.57194 0.38977 0.78322 0.0
H308 H 0.51252 0.40098 0.93416 0.0
H309 H 0.52149 0.43008 0.02327 0.0
H310 H 0.61764 0.50877 0.11643 0.0
H311 H 0.66939 0.53238 0.08281 0.0
H312 H 0.72338 0.53247 0.9075 0.0
H313 H 0.71593 0.49885 0.82932 0.0
H314 H 0.63033 0.54952 0.86316 0.0
H315 H 0.57366 0.48418 0.76415 0.0
H316 H 0.67758 0.43799 0.04461 0.0
H317 H 0.59468 0.37758 1.00428 0.0
H318 H 0.10671 0.56558 0.92047 0.0
C319 C 0.1069 0.57518 0.9591 0.0
H320 H 0.07932 0.58418 1.00524 0.0
H321 H 0.03896 0.56288 0.72938 0.0
H322 H 0.08336 0.60055 0.70893 0.0
H323 H 0.11715 0.62386 0.78509 0.0
H324 H 0.10698 0.60937 0.88223 0.0
C325 C 0.0833 0.5779 0.96521 0.0
C326 C 0.06056 0.56695 0.92076 0.0
C327 C 0.06603 0.57623 0.86435 0.0
C328 C 0.04594 0.56329 0.82049 0.0
C329 C 0.05296 0.57227 0.76441 0.0
C330 C 0.07844 0.59386 0.75206 0.0
C331 C 0.09751 0.60696 0.79492 0.0
C332 C 0.09149 0.59834 0.85044 0.0
H333 H 0.98796 0.55048 0.75876 0.0
C334 C 0.98487 0.53145 0.75385 0.0
H335 H 0.99781 0.50611 0.78332 0.0
H336 H 0.04178 0.54488 0.02418 0.0
H337 H 0.99636 0.50876 0.04549 0.0
H338 H 0.96105 0.48759 0.97064 0.0
H339 H 0.97102 0.50233 0.87371 0.0
C340 C 1.00028 0.52489 0.78686 0.0
C341 C 1.01978 0.54147 0.83309 0.0
C342 C 1.01361 0.53329 0.89015 0.0
C343 C 1.03391 0.54587 0.93376 0.0
C344 C 1.02717 0.53642 0.98962 0.0
C345 C 1.00114 0.51563 1.00247 0.0
C346 C 0.98128 0.50368 0.96031 0.0
C347 C 0.98732 0.51229 0.9048 0.0
H348 H 0.47328 0.98937 0.913 0.0
C349 C 0.48574 0.98026 0.91729 0.0
H350 H 0.51695 0.97915 0.96657 0.0
H351 H 0.54775 0.09748 0.02473 0.0
H352 H 0.55488 0.10562 0.92422 0.0
H353 H 0.54324 0.07066 0.85686 0.0
H354 H 0.52382 0.02728 0.88932 0.0
C355 C 0.50544 0.98888 0.95854 0.0
C356 C 0.51121 1.01042 0.99848 0.0
C357 C 0.52345 0.03595 0.97908 0.0
C358 C 0.5316 0.05644 0.01843 0.0
C359 C 0.54242 0.08143 0.99723 0.0
C360 C 0.54642 0.08636 0.93955 0.0
C361 C 0.53976 0.06665 0.9016 0.0
C362 C 0.52845 0.04175 0.92086 0.0
H363 H 0.5813 0.08548 0.09645 0.0
C364 C 0.56919 0.09123 0.12179 0.0
H365 H 0.52631 0.07419 0.15035 0.0
H366 H 0.48665 0.96415 0.05066 0.0
H367 H 0.48081 0.95622 0.15149 0.0
H368 H 0.49701 0.99173 0.2194 0.0
H369 H 0.51897 0.03542 0.18705 0.0
C370 C 0.54032 0.07363 0.11937 0.0
C371 C 0.52886 0.05176 0.07763 0.0
C372 C 0.516 0.02622 0.09689 0.0
C373 C 0.50711 1.00566 0.05751 0.0
C374 C 0.49425 0.98046 0.0785 0.0
C375 C 0.49066 0.97562 0.13629 0.0
C376 C 0.49974 0.99562 0.17453 0.0
C377 C 0.51228 1.02063 0.15535 0.0
H378 H 0.46235 0.49605 0.25724 0.0
C379 C 0.47657 0.51651 0.25831 0.0
H380 H 0.51436 0.5468 0.22701 0.0
H381 H 0.52863 0.44821 0.1515 0.0
H382 H 0.52334 0.43665 0.25054 0.0
H383 H 0.51163 0.45988 0.32054 0.0
H384 H 0.50441 0.4943 0.29189 0.0
C385 C 0.49977 0.52645 0.22573 0.0
C386 C 0.50617 0.5113 0.18393 0.0
C387 C 0.51158 0.49186 0.20171 0.0
C388 C 0.52005 0.47941 0.16164 0.0
C389 C 0.52357 0.4591 0.18033 0.0
C390 C 0.52039 0.45214 0.23703 0.0
C391 C 0.51367 0.46514 0.2764 0.0
C392 C 0.50936 0.4848 0.25924 0.0
H393 H 0.57394 0.49073 0.10805 0.0
C394 C 0.56349 0.47954 0.07102 0.0
H395 H 0.52595 0.46896 0.02301 0.0
H396 H 0.49564 0.54604 0.13376 0.0
H397 H 0.50283 0.55875 0.03546 0.0
H398 H 0.52061 0.53944 0.96786 0.0
H399 H 0.53104 0.50713 0.99783 0.0
C400 C 0.53665 0.47619 0.06295 0.0
C401 C 0.52482 0.48731 0.10419 0.0
C402 C 0.51906 0.50649 0.08633 0.0
C403 C 0.5095 0.51821 0.12587 0.0
C404 C 0.50354 0.53695 0.1061 0.0
C405 C 0.50746 0.54437 0.04967 0.0
C406 C 0.51741 0.53345 1.01159 0.0
C407 C 0.52322 0.5148 0.02942 0.0
H408 H 0.97107 0.4948 0.4308 0.0
C409 C 0.96648 0.47946 0.45988 0.0
H410 H 0.98861 0.46168 0.49542 0.0
H411 H 0.03813 0.50108 0.23103 0.0
H412 H 0.99188 0.46962 0.19932 0.0
H413 H 0.95466 0.44423 0.26776 0.0
H414 H 0.96333 0.45053 0.36855 0.0
C415 C 0.98775 0.47325 0.46163 0.0
C416 C 1.01174 0.4854 0.42019 0.0
C417 C 1.00698 0.48072 0.36114 0.0
C418 C 1.02895 0.49463 0.32143 0.0
C419 C 1.02272 0.49055 0.26303 0.0
C420 C 0.99616 0.47259 0.24418 0.0
C421 C 0.97517 0.45835 0.28272 0.0
C422 C 0.98039 0.46228 0.34048 0.0
H423 H 0.08447 0.50276 0.25904 0.0
C424 C 0.09126 0.52291 0.26134 0.0
H425 H 0.08535 0.55032 0.30505 0.0
H426 H 1.02909 0.49803 0.52947 0.0
H427 H 0.07599 0.52781 0.56162 0.0
H428 H 0.1143 0.55044 0.49354 0.0
H429 H 0.10598 0.54358 0.3927 0.0
C430 C 0.07861 0.53035 0.29988 0.0
C431 C 0.05623 0.51263 0.34053 0.0
C432 C 0.06131 0.51614 0.39971 0.0
C433 C 0.03919 0.50268 0.43931 0.0
C434 C 0.04506 0.50741 0.49771 0.0
C435 C 0.0719 0.52449 0.51677 0.0
C436 C 0.09347 0.53727 0.47842 0.0
C437 C 0.08837 0.53324 0.42062 0.0
H438 H 0.60319 0.0626 0.41538 0.0
C439 C 0.59075 0.07178 0.41834 0.0
H440 H 0.55863 0.07263 0.46474 0.0
H441 H 0.53016 0.955 0.52485 0.0
H442 H 0.52439 0.94673 0.42415 0.0
H443 H 0.53563 0.98139 0.35657 0.0
H444 H 0.55332 1.02462 0.38905 0.0
C445 C 0.57045 0.0631 0.45817 0.0
C446 C 0.56438 0.04167 0.49849 0.0
C447 C 0.55306 1.01618 0.47905 0.0
C448 C 0.5451 0.99582 0.51845 0.0
C449 C 0.53529 0.97092 0.49727 0.0
C450 C 0.53207 0.96593 0.43947 0.0
C451 C 0.53851 0.98547 0.40141 0.0
C452 C 0.54884 1.01029 0.42069 0.0
H453 H 0.49494 0.9651 0.59529 0.0
C454 C 0.50767 0.96027 0.62118 0.0
H455 H 0.55053 0.97896 0.65086 0.0
H456 H 0.58676 0.0879 0.55104 0.0
H457 H 0.59099 0.09588 0.65198 0.0
H458 H 0.57501 0.06052 0.7198 0.0
H459 H 0.55489 1.01693 0.68724 0.0
C460 C 0.53627 0.97878 0.61934 0.0
C461 C 0.54706 1.00054 0.57768 0.0
C462 C 0.55878 0.02603 0.59704 0.0
C463 C 0.56752 0.04649 0.55766 0.0
C464 C 0.57931 0.07164 0.5788 0.0
C465 C 0.58196 0.07652 0.63668 0.0
C466 C 0.57301 0.05661 0.67487 0.0
C467 C 0.56154 0.03165 0.65557 0.0
H468 H 0.60954 0.55716 0.77591 0.0
C469 C 0.59524 0.53677 0.77242 0.0
H470 H 0.55747 0.50855 0.73511 0.0
H471 H 0.50472 0.57402 0.66631 0.0
H472 H 0.47965 0.55545 0.75326 0.0
H473 H 0.49444 0.53259 0.81765 0.0
H474 H 0.53451 0.52824 0.79559 0.0
C475 C 0.57324 0.52856 0.73671 0.0
C476 C 0.56732 0.54598 0.70181 0.0
C477 C 0.54384 0.54845 0.71492 0.0
C478 C 0.5351 0.56146 0.67736 0.0
C479 C 0.51187 0.56387 0.6925 0.0
C480 C 0.49738 0.55344 0.74249 0.0
C481 C 0.50572 0.54057 0.77875 0.0
C482 C 0.52868 0.53811 0.76544 0.0
H483 H 0.50429 0.54678 0.56359 0.0
C484 C 0.51358 0.56688 0.55381 0.0
H485 H 0.54786 0.60344 0.58177 0.0
H486 H 0.61369 0.54583 0.6637 0.0
H487 H 0.63928 0.56525 0.57767 0.0
H488 H 0.62436 0.58803 0.51339 0.0
H489 H 0.58355 0.59145 0.53455 0.0
C490 C 0.53841 0.5829 0.58342 0.0
C491 C 0.54951 0.57175 0.62586 0.0
C492 C 0.57381 0.57045 0.61409 0.0
C493 C 0.58263 0.55748 0.65176 0.0
C494 C 0.6063 0.5557 0.63728 0.0
C495 C 0.62115 0.56672 0.58792 0.0
C496 C 0.61273 0.57954 0.55168 0.0
C497 C 0.5893 0.58137 0.56429 0.0
H498 H 0.27621 0.63043 0.23188 0.0
C499 C 0.26035 0.61043 0.22994 0.0
H500 H 0.2475 0.57368 0.26362 0.0
H501 H 0.35912 0.57117 0.25156 0.0
H502 H 0.32458 0.53067 0.21214 0.0
H503 H 0.2754 0.51933 0.20435 0.0
H504 H 0.26058 0.54831 0.23471 0.0
C505 C 0.26526 0.5927 0.25899 0.0
C506 C 0.29396 0.59746 0.27529 0.0
C507 C 0.30204 0.57931 0.26011 0.0
C508 C 0.33029 0.58528 0.26695 0.0
C509 C 0.33795 0.56745 0.24843 0.0
C510 C 0.31834 0.54408 0.22567 0.0
C511 C 0.29069 0.53775 0.22114 0.0
C512 C 0.28253 0.55494 0.23824 0.0
H513 H 0.36726 0.59567 0.38334 0.0
C514 C 0.38445 0.60372 0.3534 0.0
H515 H 0.39272 0.61731 0.26741 0.0
H516 H 0.28414 0.63212 0.32875 0.0
H517 H 0.31818 0.67089 0.37605 0.0
H518 H 0.36715 0.68163 0.3851 0.0
H519 H 0.38242 0.65349 0.34719 0.0
C520 C 0.37925 0.61329 0.30371 0.0
C521 C 0.35024 0.60844 0.29287 0.0
C522 C 0.34175 0.62551 0.31262 0.0
C523 C 0.31362 0.61988 0.30475 0.0
C524 C 0.30553 0.63638 0.32942 0.0
C525 C 0.32477 0.65846 0.3577 0.0
C526 C 0.35235 0.66446 0.36302 0.0
C527 C 0.36083 0.64818 0.3411 0.0
H528 H 0.6975 0.22838 0.41666 0.0
C529 C 0.67917 0.22716 0.39732 0.0
H530 H 0.66428 0.25165 0.36649 0.0
H531 H 0.76078 0.32903 0.55279 0.0
H532 H 0.72766 0.3027 0.62432 0.0
H533 H 0.6839 0.26379 0.59815 0.0
H534 H 0.67316 0.25076 0.49999 0.0
C535 C 0.67967 0.25048 0.39263 0.0
C536 C 0.7054 0.27505 0.4086 0.0
C537 C 0.71123 0.28291 0.46585 0.0
C538 C 0.73617 0.30595 0.48073 0.0
C539 C 0.74181 0.31242 0.53865 0.0
C540 C 0.72304 0.29733 0.5803 0.0
C541 C 0.69843 0.27537 0.56558 0.0
C542 C 0.69253 0.2681 0.50913 0.0
H543 H 0.76194 0.36449 0.48564 0.0
C544 C 0.78194 0.36604 0.47662 0.0
H545 H 0.80131 0.34642 0.44402 0.0
H546 H 0.70126 0.26555 0.29512 0.0
H547 H 0.73379 0.29214 0.22291 0.0
H548 H 0.77619 0.3325 0.24803 0.0
H549 H 0.78635 0.34652 0.3456 0.0
C550 C 0.78177 0.34572 0.45305 0.0
C551 C 0.75508 0.32164 0.43807 0.0
C552 C 0.74914 0.31371 0.38075 0.0
C553 C 0.72441 0.2905 0.36609 0.0
C554 C 0.71944 0.28308 0.30856 0.0
C555 C 0.73799 0.29814 0.26666 0.0
C556 C 0.76188 0.32085 0.28082 0.0
C557 C 0.76749 0.32864 0.33706 0.0
H558 H 0.46117 0.79795 0.58927 0.0
C559 C 0.44518 0.79329 0.621 0.0
H560 H 0.412 0.76297 0.6656 0.0
H561 H 0.42932 0.69784 0.45922 0.0
H562 H 0.41588 0.72084 0.39508 0.0
H563 H 0.40883 0.75546 0.4297 0.0
H564 H 0.41572 0.76768 0.52849 0.0
C565 C 0.42831 0.76845 0.63445 0.0
C566 C 0.43263 0.74749 0.61223 0.0
C567 C 0.42814 0.74025 0.5544 0.0
C568 C 0.43177 0.71989 0.53454 0.0
C569 C 0.42714 0.71323 0.47655 0.0
C570 C 0.41922 0.72616 0.43929 0.0
C571 C 0.4153 0.74568 0.45877 0.0
C572 C 0.41952 0.75263 0.5156 0.0
H573 H 0.4128 0.65506 0.58974 0.0
C574 C 0.43083 0.66162 0.56234 0.0
H575 H 0.46257 0.69347 0.51904 0.0
H576 H 0.4423 0.75572 0.72577 0.0
H577 H 0.45598 0.73291 0.78978 0.0
H578 H 0.46303 0.69829 0.75523 0.0
H579 H 0.45619 0.68608 0.65662 0.0
C580 C 0.44588 0.68676 0.5498 0.0
C581 C 0.43948 0.70637 0.57247 0.0
C582 C 0.44367 0.71344 0.63045 0.0
C583 C 0.44001 0.73377 0.6503 0.0
C584 C 0.44457 0.7404 0.70834 0.0
C585 C 0.45257 0.72754 0.7456 0.0
C586 C 0.45652 0.70803 0.72615 0.0
C587 C 0.45232 0.70109 0.66934 0.0
H588 H 0.67059 0.43048 0.77493 0.0
C589 C 0.67871 0.44413 0.80927 0.0
H590 H 0.71372 0.46121 0.86725 0.0
H591 H 0.77623 0.40564 0.77354 0.0
H592 H 0.75308 0.37882 0.85429 0.0
H593 H 0.71812 0.38374 0.90832 0.0
H594 H 0.7054 0.41499 0.88058 0.0
C595 C 0.70621 0.45187 0.82666 0.0
C596 C 0.72626 0.44774 0.7919 0.0
C597 C 0.73483 0.43053 0.81026 0.0
C598 C 0.75638 0.42877 0.78104 0.0
C599 C 0.76195 0.40935 0.79692 0.0
C600 C 0.74837 0.39345 0.84259 0.0
C601 C 0.72857 0.39614 0.87286 0.0
C602 C 0.72162 0.41426 0.85677 0.0
H603 H 0.81842 0.44286 0.77709 0.0
C604 C 0.81929 0.44781 0.73287 0.0
H605 H 0.79538 0.44628 0.66059 0.0
H606 H 0.71302 0.48063 0.7407 0.0
H607 H 0.73566 0.50736 0.66025 0.0
H608 H 0.77464 0.50646 0.61291 0.0
H609 H 0.79095 0.47891 0.6454 0.0
C610 C 0.79533 0.44587 0.70642 0.0
C611 C 0.77098 0.44564 0.73572 0.0
C612 C 0.76137 0.46207 0.71571 0.0
C613 C 0.73893 0.46286 0.74337 0.0
C614 C 0.73005 0.47941 0.72221 0.0
C615 C 0.74282 0.49487 0.6757 0.0
C616 C 0.76472 0.49435 0.64906 0.0
C617 C 0.77393 0.47826 0.66852 0.0
H618 H 0.41564 0.80953 0.88964 0.0
C619 C 0.40651 0.82166 0.89215 0.0
H620 H 0.37452 0.82379 0.93865 0.0
H621 H 0.30752 0.70065 0.86359 0.0
H622 H 0.31869 0.71474 0.76645 0.0
H623 H 0.34905 0.76022 0.74397 0.0
H624 H 0.36879 0.79184 0.8182 0.0
C625 C 0.38057 0.81108 0.91959 0.0
C626 C 0.36282 0.78315 0.9325 0.0
C627 C 0.35046 0.76487 0.88828 0.0
C628 C 0.33187 0.73861 0.90114 0.0
C629 C 0.32097 0.72081 0.85622 0.0
C630 C 0.3273 0.72863 0.80025 0.0
C631 C 0.34446 0.75424 0.7876 0.0
C632 C 0.35585 0.77222 0.83082 0.0
H633 H 0.26966 0.69989 0.93659 0.0
C634 C 0.27802 0.69037 0.96195 0.0
H635 H 0.31497 0.69428 0.99785 0.0
H636 H 0.38381 0.81233 0.02765 0.0
H637 H 0.37169 0.79834 0.12454 0.0
H638 H 0.33779 0.7535 0.14645 0.0
H639 H 0.31592 0.72231 0.07169 0.0
C640 C 0.30576 0.70308 0.97289 0.0
C641 C 0.32474 0.73064 0.95806 0.0
C642 C 0.33714 0.74891 1.00214 0.0
C643 C 0.35624 0.775 0.98943 0.0
C644 C 0.36866 0.79248 0.03466 0.0
C645 C 0.36201 0.78468 0.09057 0.0
C646 C 0.34298 0.75942 0.10291 0.0
C647 C 0.33064 0.74168 0.05948 0.0
H648 H 0.66168 0.39339 0.08179 0.0
C649 C 0.64459 0.38625 0.05161 0.0
H650 H 0.61562 0.35393 1.00479 0.0
H651 H 0.67156 0.28695 0.03309 0.0
H652 H 0.6845 0.30147 0.93669 0.0
H653 H 0.67642 0.33475 0.89741 0.0
H654 H 0.65558 0.35394 0.9545 0.0
C655 C 0.63125 0.36119 0.038 0.0
C656 C 0.63821 0.34251 0.06389 0.0
C657 C 0.65003 0.33107 0.02996 0.0
C658 C 0.65435 0.31152 0.05246 0.0
C659 C 0.66711 0.30129 0.01788 0.0
C660 C 0.67482 0.30958 0.96251 0.0
C661 C 0.67028 0.32833 0.9404 0.0
C662 C 0.65816 0.33909 0.97356 0.0
H663 H 0.62278 0.25339 0.08103 0.0
C664 C 0.6369 0.2581 0.11674 0.0
H665 H 0.6651 0.28838 0.16984 0.0
H666 H 0.61407 0.35929 0.14046 0.0
H667 H 0.60159 0.34512 0.23704 0.0
H668 H 0.60942 0.31168 0.27622 0.0
H669 H 0.62961 0.29206 0.21893 0.0
C670 C 0.65117 0.28273 0.13384 0.0
C671 C 0.64644 0.303 0.10887 0.0
C672 C 0.63505 0.31476 0.14311 0.0
C673 C 0.63077 0.33432 0.12061 0.0
C674 C 0.61837 0.34484 0.15547 0.0
C675 C 0.61095 0.33677 0.21102 0.0
C676 C 0.61535 0.31794 0.23308 0.0
C677 C 0.6271 0.30692 0.1997 0.0
loop_
_geom_bond_atom_site_label_1
_geom_bond_atom_site_label_2
_geom_bond_distance
_geom_bond_site_symmetry_2
_ccdc_geom_bond_type
C0 C1 1.443 . S
C0 N4 1.376 . S
C0 C38 1.389 . S
C1 C0 1.443 . S
C1 C2 1.340 . S
C1 H41 0.951 . S
C2 C1 1.340 . S
C2 C3 1.439 . S
C2 H42 0.950 . S
C3 C2 1.439 . S
C3 N4 1.374 . S
C3 C37 1.395 . S
N4 C0 1.376 . S
N4 C3 1.374 . S
N4 Co5 2.008 . S
Co5 N4 2.008 . S
Co5 N6 1.995 . S
Co5 N11 2.008 . S
Co5 N16 1.995 . S
Co5 N21 2.282 . S
Co5 N27 2.282 . S
N6 Co5 1.995 . S
N6 C7 1.376 . S
N6 C10 1.383 . S
C7 N6 1.376 . S
C7 C8 1.446 . S
C7 C37 1.391 . S
C8 C7 1.446 . S
C8 C9 1.339 . S
C8 H43 0.949 . S
C9 C8 1.339 . S
C9 C10 1.439 . S
C9 H44 0.950 . S
C10 N6 1.383 . S
C10 C9 1.439 . S
C10 C39 1.392 . S
N11 Co5 2.008 . S
N11 C12 1.376 . S
N11 C15 1.374 . S
C12 N11 1.376 . S
C12 C13 1.443 1_554 S
C12 C39 1.389 . S
C13 C12 1.443 1_556 S
C13 C14 1.340 . S
C13 H45 0.951 . S
C14 C13 1.340 . S
C14 C15 1.439 1_556 S
C14 H46 0.950 . S
C15 N11 1.374 . S
C15 C14 1.439 1_554 S
C15 C40 1.395 . S
N16 Co5 1.995 . S
N16 C17 1.376 . S
N16 C20 1.383 . S
C17 N16 1.376 . S
C17 C18 1.446 . S
C17 C40 1.391 . S
C18 C17 1.446 . S
C18 C19 1.339 . S
C18 H47 0.949 . S
C19 C18 1.339 . S
C19 C20 1.439 . S
C19 H48 0.950 . S
C20 N16 1.383 . S
C20 C19 1.439 . S
C20 C38 1.392 . S
N21 Co5 2.282 . S
N21 C24 1.332 . S
N21 C26 1.332 . S
C22 C23 1.386 . S
C22 C25 1.388 . S
C23 C22 1.386 . S
C23 C24 1.382 . S
C23 H49 0.950 . S
C24 N21 1.332 . S
C24 C23 1.382 . S
C24 H35 0.952 . S
C25 C22 1.388 . S
C25 C26 1.382 . S
C25 H50 0.950 . S
C26 N21 1.332 . S
C26 C25 1.382 . S
C26 H36 0.948 . S
N27 Co5 2.282 . S
N27 C31 1.332 . S
N27 C32 1.332 . S
C28 C29 1.388 . S
C28 C32 1.382 1_556 S
C28 H51 0.950 . S
C29 C28 1.388 . S
C29 C30 1.386 1_556 S
C30 C29 1.386 1_554 S
C30 C31 1.382 . S
C30 H52 0.950 . S
C31 N27 1.332 . S
C31 C30 1.382 . S
C31 H33 0.952 . S
C32 N27 1.332 . S
C32 C28 1.382 1_554 S
C32 H34 0.948 . S
H33 C31 0.952 . S
H34 C32 0.948 . S
H35 C24 0.952 . S
H36 C26 0.948 . S
C37 C3 1.395 . S
C37 C7 1.391 . S
C38 C0 1.389 . S
C38 C20 1.392 . S
C39 C10 1.392 . S
C39 C12 1.389 . S
C40 C15 1.395 . S
C40 C17 1.391 . S
H41 C1 0.951 . S
H42 C2 0.950 . S
H43 C8 0.949 . S
H44 C9 0.950 . S
H45 C13 0.951 . S
H46 C14 0.950 . S
H47 C18 0.949 . S
H48 C19 0.950 . S
H49 C23 0.950 . S
H50 C25 0.950 . S
H51 C28 0.950 . S
H52 C30 0.950 . S
C53 C54 1.443 . S
C53 N57 1.376 . S
C53 C91 1.389 . S
C54 C53 1.443 . S
C54 C55 1.340 . S
C54 H94 0.951 . S
C55 C54 1.340 . S
C55 C56 1.439 . S
C55 H95 0.950 . S
C56 C55 1.439 . S
C56 N57 1.374 . S
C56 C90 1.395 . S
N57 C53 1.376 . S
N57 C56 1.374 . S
N57 Co58 2.008 . S
Co58 N57 2.008 . S
Co58 N59 1.995 . S
Co58 N64 2.008 . S
Co58 N69 1.995 . S
Co58 N74 2.282 . S
Co58 N80 2.282 . S
N59 Co58 1.995 . S
N59 C60 1.376 . S
N59 C63 1.383 . S
C60 N59 1.376 . S
C60 C61 1.446 . S
C60 C90 1.391 . S
C61 C60 1.446 . S
C61 C62 1.339 . S
C61 H96 0.949 . S
C62 C61 1.339 . S
C62 C63 1.439 . S
C62 H97 0.950 . S
C63 N59 1.383 . S
C63 C62 1.439 . S
C63 C92 1.392 . S
N64 Co58 2.008 . S
N64 C65 1.376 . S
N64 C68 1.374 . S
C65 N64 1.376 . S
C65 C66 1.443 . S
C65 C92 1.389 . S
C66 C65 1.443 . S
C66 C67 1.340 . S
C66 H98 0.951 . S
C67 C66 1.340 . S
C67 C68 1.439 . S
C67 H99 0.950 . S
C68 N64 1.374 . S
C68 C67 1.439 . S
C68 C93 1.395 . S
N69 Co58 1.995 . S
N69 C70 1.376 . S
N69 C73 1.383 . S
C70 N69 1.376 . S
C70 C71 1.446 . S
C70 C93 1.391 . S
C71 C70 1.446 . S
C71 C72 1.339 . S
C71 H100 0.949 . S
C72 C71 1.339 . S
C72 C73 1.439 . S
C72 H101 0.950 . S
C73 N69 1.383 . S
C73 C72 1.439 . S
C73 C91 1.392 . S
N74 Co58 2.282 . S
N74 C77 1.332 . S
N74 C79 1.332 . S
C75 C76 1.386 . S
C75 C78 1.388 . S
C76 C75 1.386 . S
C76 C77 1.382 . S
C76 H102 0.950 . S
C77 N74 1.332 . S
C77 C76 1.382 . S
C77 H88 0.952 . S
C78 C75 1.388 . S
C78 C79 1.382 . S
C78 H103 0.950 . S
C79 N74 1.332 . S
C79 C78 1.382 . S
C79 H89 0.948 . S
N80 Co58 2.282 . S
N80 C84 1.332 . S
N80 C85 1.332 . S
C81 C82 1.388 . S
C81 C85 1.382 . S
C81 H104 0.950 . S
C82 C81 1.388 . S
C82 C83 1.386 . S
C83 C82 1.386 . S
C83 C84 1.382 . S
C83 H105 0.950 . S
C84 N80 1.332 . S
C84 C83 1.382 . S
C84 H86 0.952 . S
C85 N80 1.332 . S
C85 C81 1.382 . S
C85 H87 0.948 . S
H86 C84 0.952 . S
H87 C85 0.948 . S
H88 C77 0.952 . S
H89 C79 0.948 . S
C90 C56 1.395 . S
C90 C60 1.391 . S
C91 C53 1.389 . S
C91 C73 1.392 . S
C92 C63 1.392 . S
C92 C65 1.389 . S
C93 C68 1.395 . S
C93 C70 1.391 . S
H94 C54 0.951 . S
H95 C55 0.950 . S
H96 C61 0.949 . S
H97 C62 0.950 . S
H98 C66 0.951 . S
H99 C67 0.950 . S
H100 C71 0.949 . S
H101 C72 0.950 . S
H102 C76 0.950 . S
H103 C78 0.950 . S
H104 C81 0.950 . S
H105 C83 0.950 . S
C106 C107 1.443 . S
C106 N110 1.376 . S
C106 C144 1.389 . S
C107 C106 1.443 . S
C107 C108 1.340 . S
C107 H147 0.951 . S
C108 C107 1.340 . S
C108 C109 1.439 . S
C108 H148 0.950 . S
C109 C108 1.439 . S
C109 N110 1.374 . S
C109 C143 1.395 . S
N110 C106 1.376 . S
N110 C109 1.374 . S
N110 Co111 2.008 . S
Co111 N110 2.008 . S
Co111 N112 1.995 . S
Co111 N117 2.008 . S
Co111 N122 1.995 . S
Co111 N127 2.282 . S
Co111 N133 2.282 . S
N112 Co111 1.995 . S
N112 C113 1.376 . S
N112 C116 1.383 . S
C113 N112 1.376 . S
C113 C114 1.446 . S
C113 C143 1.391 . S
C114 C113 1.446 . S
C114 C115 1.339 . S
C114 H149 0.949 . S
C115 C114 1.339 . S
C115 C116 1.439 . S
C115 H150 0.950 . S
C116 N112 1.383 . S
C116 C115 1.439 . S
C116 C145 1.392 . S
N117 Co111 2.008 . S
N117 C118 1.376 . S
N117 C121 1.374 . S
C118 N117 1.376 . S
C118 C119 1.443 . S
C118 C145 1.389 . S
C119 C118 1.443 . S
C119 C120 1.340 . S
C119 H151 0.951 . S
C120 C119 1.340 . S
C120 C121 1.439 . S
C120 H152 0.950 . S
C121 N117 1.374 . S
C121 C120 1.439 . S
C121 C146 1.395 . S
N122 Co111 1.995 . S
N122 C123 1.376 . S
N122 C126 1.383 . S
C123 N122 1.376 . S
C123 C124 1.446 . S
C123 C146 1.391 . S
C124 C123 1.446 . S
C124 C125 1.339 . S
C124 H153 0.949 . S
C125 C124 1.339 . S
C125 C126 1.439 . S
C125 H154 0.950 . S
C126 N122 1.383 . S
C126 C125 1.439 . S
C126 C144 1.392 . S
N127 Co111 2.282 . S
N127 C130 1.332 . S
N127 C132 1.332 . S
C128 C129 1.386 . S
C128 C131 1.388 . S
C129 C128 1.386 . S
C129 C130 1.382 . S
C129 H155 0.950 . S
C130 N127 1.332 . S
C130 C129 1.382 . S
C130 H141 0.952 . S
C131 C128 1.388 . S
C131 C132 1.382 . S
C131 H156 0.950 . S
C132 N127 1.332 . S
C132 C131 1.382 . S
C132 H142 0.948 . S
N133 Co111 2.282 . S
N133 C137 1.332 . S
N133 C138 1.332 . S
C134 C135 1.388 . S
C134 C138 1.382 . S
C134 H157 0.950 . S
C135 C134 1.388 . S
C135 C136 1.386 . S
C136 C135 1.386 . S
C136 C137 1.382 . S
C136 H158 0.950 . S
C137 N133 1.332 . S
C137 C136 1.382 . S
C137 H139 0.952 . S
C138 N133 1.332 . S
C138 C134 1.382 . S
C138 H140 0.948 . S
H139 C137 0.952 . S
H140 C138 0.948 . S
H141 C130 0.952 . S
H142 C132 0.948 . S
C143 C109 1.395 . S
C143 C113 1.391 . S
C144 C106 1.389 . S
C144 C126 1.392 . S
C145 C116 1.392 . S
C145 C118 1.389 . S
C146 C121 1.395 . S
C146 C123 1.391 . S
H147 C107 0.951 . S
H148 C108 0.950 . S
H149 C114 0.949 . S
H150 C115 0.950 . S
H151 C119 0.951 . S
H152 C120 0.950 . S
H153 C124 0.949 . S
H154 C125 0.950 . S
H155 C129 0.950 . S
H156 C131 0.950 . S
H157 C134 0.950 . S
H158 C136 0.950 . S
C159 C160 1.443 . S
C159 N163 1.376 . S
C159 C197 1.389 . S
C160 C159 1.443 . S
C160 C161 1.340 . S
C160 H200 0.951 . S
C161 C160 1.340 . S
C161 C162 1.439 . S
C161 H201 0.950 . S
C162 C161 1.439 . S
C162 N163 1.374 . S
C162 C196 1.395 . S
N163 C159 1.376 . S
N163 C162 1.374 . S
N163 Co164 2.008 . S
Co164 N163 2.008 . S
Co164 N165 1.995 . S
Co164 N170 2.008 . S
Co164 N175 1.995 . S
Co164 N180 2.282 . S
Co164 N186 2.282 . S
N165 Co164 1.995 . S
N165 C166 1.376 . S
N165 C169 1.383 . S
C166 N165 1.376 . S
C166 C167 1.446 . S
C166 C196 1.391 . S
C167 C166 1.446 . S
C167 C168 1.339 . S
C167 H202 0.949 . S
C168 C167 1.339 . S
C168 C169 1.439 . S
C168 H203 0.950 . S
C169 N165 1.383 . S
C169 C168 1.439 . S
C169 C198 1.392 . S
N170 Co164 2.008 . S
N170 C171 1.376 . S
N170 C174 1.374 . S
C171 N170 1.376 . S
C171 C172 1.443 . S
C171 C198 1.389 . S
C172 C171 1.443 . S
C172 C173 1.340 . S
C172 H204 0.951 . S
C173 C172 1.340 . S
C173 C174 1.439 . S
C173 H205 0.950 . S
C174 N170 1.374 . S
C174 C173 1.439 . S
C174 C199 1.395 . S
N175 Co164 1.995 . S
N175 C176 1.376 . S
N175 C179 1.383 . S
C176 N175 1.376 . S
C176 C177 1.446 . S
C176 C199 1.391 . S
C177 C176 1.446 . S
C177 C178 1.339 . S
C177 H206 0.949 . S
C178 C177 1.339 . S
C178 C179 1.439 . S
C178 H207 0.950 . S
C179 N175 1.383 . S
C179 C178 1.439 . S
C179 C197 1.392 . S
N180 Co164 2.282 . S
N180 C183 1.332 . S
N180 C185 1.332 . S
C181 C182 1.386 . S
C181 C184 1.388 . S
C182 C181 1.386 . S
C182 C183 1.382 . S
C182 H208 0.950 . S
C183 N180 1.332 . S
C183 C182 1.382 . S
C183 H194 0.952 . S
C184 C181 1.388 . S
C184 C185 1.382 . S
C184 H209 0.950 . S
C185 N180 1.332 . S
C185 C184 1.382 . S
C185 H195 0.948 . S
N186 Co164 2.282 . S
N186 C190 1.332 . S
N186 C191 1.332 . S
C187 C188 1.388 . S
C187 C191 1.382 . S
C187 H210 0.950 . S
C188 C187 1.388 . S
C188 C189 1.386 . S
C189 C188 1.386 . S
C189 C190 1.382 . S
C189 H211 0.950 . S
C190 N186 1.332 . S
C190 C189 1.382 . S
C190 H192 0.952 . S
C191 N186 1.332 . S
C191 C187 1.382 . S
C191 H193 0.948 . S
H192 C190 0.952 . S
H193 C191 0.948 . S
H194 C183 0.952 . S
H195 C185 0.948 . S
C196 C162 1.395 . S
C196 C166 1.391 . S
C197 C159 1.389 . S
C197 C179 1.392 . S
C198 C169 1.392 . S
C198 C171 1.389 . S
C199 C174 1.395 . S
C199 C176 1.391 . S
H200 C160 0.951 . S
H201 C161 0.950 . S
H202 C167 0.949 . S
H203 C168 0.950 . S
H204 C172 0.951 . S
H205 C173 0.950 . S
H206 C177 0.949 . S
H207 C178 0.950 . S
H208 C182 0.950 . S
H209 C184 0.950 . S
H210 C187 0.950 . S
H211 C189 0.950 . S
C212 C213 1.443 . S
C212 N216 1.376 . S
C212 C250 1.389 . S
C213 C212 1.443 . S
C213 C214 1.340 . S
C213 H253 0.951 . S
C214 C213 1.340 . S
C214 C215 1.439 . S
C214 H254 0.950 . S
C215 C214 1.439 . S
C215 N216 1.374 . S
C215 C249 1.395 . S
N216 C212 1.376 . S
N216 C215 1.374 . S
N216 Co217 2.008 . S
Co217 N216 2.008 . S
Co217 N218 1.995 . S
Co217 N223 2.008 . S
Co217 N228 1.995 . S
Co217 N233 2.282 . S
Co217 N239 2.282 . S
N218 Co217 1.995 . S
N218 C219 1.376 . S
N218 C222 1.383 . S
C219 N218 1.376 . S
C219 C220 1.446 . S
C219 C249 1.391 . S
C220 C219 1.446 . S
C220 C221 1.339 . S
C220 H255 0.949 . S
C221 C220 1.339 . S
C221 C222 1.439 . S
C221 H256 0.950 . S
C222 N218 1.383 . S
C222 C221 1.439 . S
C222 C251 1.392 . S
N223 Co217 2.008 . S
N223 C224 1.376 . S
N223 C227 1.374 . S
C224 N223 1.376 . S
C224 C225 1.443 . S
C224 C251 1.389 . S
C225 C224 1.443 . S
C225 C226 1.340 . S
C225 H257 0.951 . S
C226 C225 1.340 . S
C226 C227 1.439 . S
C226 H258 0.950 . S
C227 N223 1.374 . S
C227 C226 1.439 . S
C227 C252 1.395 . S
N228 Co217 1.995 . S
N228 C229 1.376 . S
N228 C232 1.383 . S
C229 N228 1.376 . S
C229 C230 1.446 . S
C229 C252 1.391 . S
C230 C229 1.446 . S
C230 C231 1.339 . S
C230 H259 0.949 . S
C231 C230 1.339 . S
C231 C232 1.439 . S
C231 H260 0.950 . S
C232 N228 1.383 . S
C232 C231 1.439 . S
C232 C250 1.392 . S
N233 Co217 2.282 . S
N233 C236 1.332 . S
N233 C238 1.332 . S
C234 C235 1.386 . S
C234 C237 1.388 . S
C235 C234 1.386 . S
C235 C236 1.382 . S
C235 H261 0.950 . S
C236 N233 1.332 . S
C236 C235 1.382 . S
C236 H247 0.952 . S
C237 C234 1.388 . S
C237 C238 1.382 . S
C237 H262 0.950 . S
C238 N233 1.332 . S
C238 C237 1.382 . S
C238 H248 0.948 . S
N239 Co217 2.282 . S
N239 C243 1.332 . S
N239 C244 1.332 . S
C240 C241 1.388 . S
C240 C244 1.382 . S
C240 H263 0.950 . S
C241 C240 1.388 . S
C241 C242 1.386 . S
C242 C241 1.386 . S
C242 C243 1.382 . S
C242 H264 0.950 . S
C243 N239 1.332 . S
C243 C242 1.382 . S
C243 H245 0.952 . S
C244 N239 1.332 . S
C244 C240 1.382 . S
C244 H246 0.948 . S
H245 C243 0.952 . S
H246 C244 0.948 . S
H247 C236 0.952 . S
H248 C238 0.948 . S
C249 C215 1.395 . S
C249 C219 1.391 . S
C250 C212 1.389 . S
C250 C232 1.392 . S
C251 C222 1.392 . S
C251 C224 1.389 . S
C252 C227 1.395 . S
C252 C229 1.391 . S
H253 C213 0.951 . S
H254 C214 0.950 . S
H255 C220 0.949 . S
H256 C221 0.950 . S
H257 C225 0.951 . S
H258 C226 0.950 . S
H259 C230 0.949 . S
H260 C231 0.950 . S
H261 C235 0.950 . S
H262 C237 0.950 . S
H263 C240 0.950 . S
H264 C242 0.950 . S
C265 C266 1.443 . S
C265 N269 1.376 . S
C265 C303 1.389 . S
C266 C265 1.443 . S
C266 C267 1.340 . S
C266 H306 0.951 . S
C267 C266 1.340 . S
C267 C268 1.439 . S
C267 H307 0.950 . S
C268 C267 1.439 . S
C268 N269 1.374 . S
C268 C302 1.395 . S
N269 C265 1.376 . S
N269 C268 1.374 . S
N269 Co270 2.008 . S
Co270 N269 2.008 . S
Co270 N271 1.995 . S
Co270 N276 2.008 . S
Co270 N281 1.995 . S
Co270 N286 2.282 . S
Co270 N292 2.282 . S
N271 Co270 1.995 . S
N271 C272 1.376 . S
N271 C275 1.383 . S
C272 N271 1.376 . S
C272 C273 1.446 . S
C272 C302 1.391 . S
C273 C272 1.446 . S
C273 C274 1.339 . S
C273 H308 0.949 . S
C274 C273 1.339 . S
C274 C275 1.439 . S
C274 H309 0.950 . S
C275 N271 1.383 . S
C275 C274 1.439 . S
C275 C304 1.392 . S
N276 Co270 2.008 . S
N276 C277 1.376 . S
N276 C280 1.374 . S
C277 N276 1.376 . S
C277 C278 1.443 . S
C277 C304 1.389 . S
C278 C277 1.443 . S
C278 C279 1.340 . S
C278 H310 0.951 1_556 S
C279 C278 1.340 . S
C279 C280 1.439 . S
C279 H311 0.950 . S
C280 N276 1.374 . S
C280 C279 1.439 . S
C280 C305 1.395 . S
N281 Co270 1.995 . S
N281 C282 1.376 . S
N281 C285 1.383 . S
C282 N281 1.376 . S
C282 C283 1.446 . S
C282 C305 1.391 . S
C283 C282 1.446 . S
C283 C284 1.339 . S
C283 H312 0.949 . S
C284 C283 1.339 . S
C284 C285 1.439 . S
C284 H313 0.950 . S
C285 N281 1.383 . S
C285 C284 1.439 . S
C285 C303 1.392 . S
N286 Co270 2.282 . S
N286 C289 1.332 . S
N286 C291 1.332 . S
C287 C288 1.386 . S
C287 C290 1.388 . S
C288 C287 1.386 . S
C288 C289 1.382 . S
C288 H314 0.950 . S
C289 N286 1.332 . S
C289 C288 1.382 . S
C289 H300 0.952 . S
C290 C287 1.388 . S
C290 C291 1.382 . S
C290 H315 0.950 . S
C291 N286 1.332 . S
C291 C290 1.382 . S
C291 H301 0.948 . S
N292 Co270 2.282 . S
N292 C296 1.332 . S
N292 C297 1.332 . S
C293 C294 1.388 . S
C293 C297 1.382 . S
C293 H316 0.950 1_556 S
C294 C293 1.388 . S
C294 C295 1.386 . S
C295 C294 1.386 . S
C295 C296 1.382 . S
C295 H317 0.950 . S
C296 N292 1.332 . S
C296 C295 1.382 . S
C296 H298 0.952 . S
C297 N292 1.332 . S
C297 C293 1.382 . S
C297 H299 0.948 . S
H298 C296 0.952 . S
H299 C297 0.948 . S
H300 C289 0.952 . S
H301 C291 0.948 . S
C302 C268 1.395 . S
C302 C272 1.391 . S
C303 C265 1.389 . S
C303 C285 1.392 . S
C304 C275 1.392 . S
C304 C277 1.389 . S
C305 C280 1.395 . S
C305 C282 1.391 . S
H306 C266 0.951 . S
H307 C267 0.950 . S
H308 C273 0.949 . S
H309 C274 0.950 . S
H310 C278 0.951 1_554 S
H311 C279 0.950 . S
H312 C283 0.949 . S
H313 C284 0.950 . S
H314 C288 0.950 . S
H315 C290 0.950 . S
H316 C293 0.950 1_554 S
H317 C295 0.950 . S
H318 C319 0.951 . S
C319 H318 0.951 . S
C319 C325 1.265 . S
H320 C325 0.950 . S
H321 C329 0.942 1_655 S
H322 C330 0.950 . S
H323 C331 0.951 . S
H324 C332 0.951 . S
C325 C319 1.265 . S
C325 H320 0.950 . S
C325 C326 1.478 . S
C326 C325 1.478 . S
C326 C327 1.397 . S
C326 C343 1.394 . S
C327 C326 1.397 . S
C327 C328 1.438 . S
C327 C332 1.429 . S
C328 C327 1.438 . S
C328 C329 1.428 . S
C328 C341 1.394 1_455 S
C329 H321 0.942 1_455 S
C329 C328 1.428 . S
C329 C330 1.345 . S
C330 H322 0.950 . S
C330 C329 1.345 . S
C330 C331 1.424 . S
C331 H323 0.951 . S
C331 C330 1.424 . S
C331 C332 1.347 . S
C332 H324 0.951 . S
C332 C327 1.429 . S
C332 C331 1.347 . S
H333 C334 0.951 . S
C334 H333 0.951 . S
C334 C340 1.265 . S
H335 C340 0.950 . S
H336 C344 0.949 . S
H337 C345 0.950 1_554 S
H338 C346 0.951 . S
H339 C347 0.951 . S
C340 C334 1.265 . S
C340 H335 0.950 . S
C340 C341 1.478 . S
C341 C328 1.394 1_655 S
C341 C340 1.478 . S
C341 C342 1.397 . S
C342 C341 1.397 . S
C342 C343 1.438 1_655 S
C342 C347 1.429 . S
C343 C326 1.394 . S
C343 C342 1.438 1_455 S
C343 C344 1.428 . S
C344 H336 0.949 . S
C344 C343 1.428 . S
C344 C345 1.345 1_455 S
C345 H337 0.950 1_556 S
C345 C344 1.345 1_655 S
C345 C346 1.424 . S
C346 H338 0.951 . S
C346 C345 1.424 . S
C346 C347 1.347 . S
C347 H339 0.951 . S
C347 C342 1.429 . S
C347 C346 1.347 . S
H348 C349 0.951 . S
C349 H348 0.951 . S
C349 C355 1.265 . S
H350 C355 0.950 . S
H351 C359 0.949 . S
H352 C360 0.950 . S
H353 C361 0.951 . S
H354 C362 0.951 . S
C355 C349 1.265 . S
C355 H350 0.950 . S
C355 C356 1.484 . S
C356 C355 1.484 . S
C356 C357 1.398 1_565 S
C356 C373 1.387 1_556 S
C357 C356 1.398 1_545 S
C357 C358 1.438 1_556 S
C357 C362 1.429 . S
C358 C357 1.438 1_554 S
C358 C359 1.428 . S
C358 C371 1.394 . S
C359 H351 0.949 . S
C359 C358 1.428 . S
C359 C360 1.345 1_554 S
C360 H352 0.950 . S
C360 C359 1.345 1_556 S
C360 C361 1.424 . S
C361 H353 0.951 . S
C361 C360 1.424 . S
C361 C362 1.347 . S
C362 H354 0.951 . S
C362 C357 1.429 . S
C362 C361 1.347 . S
H363 C364 0.951 . S
C364 H363 0.951 . S
C364 C370 1.265 . S
H365 C370 0.950 . S
H366 C374 0.949 . S
H367 C375 0.950 . S
H368 C376 0.951 . S
H369 C377 0.951 1_545 S
C370 C364 1.265 . S
C370 H365 0.950 . S
C370 C371 1.478 . S
C371 C358 1.394 . S
C371 C370 1.478 . S
C371 C372 1.397 . S
C372 C371 1.397 . S
C372 C373 1.438 1_545 S
C372 C377 1.429 1_545 S
C373 C356 1.387 1_554 S
C373 C372 1.438 1_565 S
C373 C374 1.428 . S
C374 H366 0.949 . S
C374 C373 1.428 . S
C374 C375 1.345 . S
C375 H367 0.950 . S
C375 C374 1.345 . S
C375 C376 1.424 . S
C376 H368 0.951 . S
C376 C375 1.424 . S
C376 C377 1.347 . S
C377 H369 0.951 1_565 S
C377 C372 1.429 1_565 S
C377 C376 1.347 . S
H378 C379 0.951 . S
C379 H378 0.951 . S
C379 C385 1.265 . S
H380 C385 0.950 . S
H381 C389 0.949 . S
H382 C390 0.950 . S
H383 C391 0.951 . S
H384 C392 0.951 . S
C385 C379 1.265 . S
C385 H380 0.950 . S
C385 C386 1.478 . S
C386 C385 1.478 . S
C386 C387 1.397 . S
C386 C403 1.394 . S
C387 C386 1.397 . S
C387 C388 1.438 . S
C387 C392 1.429 . S
C388 C387 1.438 . S
C388 C389 1.428 . S
C388 C401 1.394 . S
C389 H381 0.949 . S
C389 C388 1.428 . S
C389 C390 1.345 . S
C390 H382 0.950 . S
C390 C389 1.345 . S
C390 C391 1.424 . S
C391 H383 0.951 . S
C391 C390 1.424 . S
C391 C392 1.347 . S
C392 H384 0.951 . S
C392 C387 1.429 . S
C392 C391 1.347 . S
H393 C394 0.951 . S
C394 H393 0.951 . S
C394 C400 1.265 . S
H395 C400 0.950 1_556 S
H396 C404 0.949 . S
H397 C405 0.950 . S
H398 C406 0.951 1_556 S
H399 C407 0.951 1_556 S
C400 C394 1.265 . S
C400 H395 0.950 1_554 S
C400 C401 1.478 . S
C401 C388 1.394 . S
C401 C400 1.478 . S
C401 C402 1.397 . S
C402 C401 1.397 . S
C402 C403 1.438 . S
C402 C407 1.429 . S
C403 C386 1.394 . S
C403 C402 1.438 . S
C403 C404 1.428 . S
C404 H396 0.949 . S
C404 C403 1.428 . S
C404 C405 1.345 . S
C405 H397 0.950 . S
C405 C404 1.345 . S
C405 C406 1.424 . S
C406 H398 0.951 1_554 S
C406 C405 1.424 . S
C406 C407 1.347 . S
C407 H399 0.951 1_554 S
C407 C402 1.429 . S
C407 C406 1.347 . S
H408 C409 0.951 . S
C409 H408 0.951 . S
C409 C415 1.265 . S
H410 C415 0.950 . S
H411 C419 0.949 1_455 S
H412 C420 0.950 . S
H413 C421 0.951 . S
H414 C422 0.951 . S
C415 C409 1.265 . S
C415 H410 0.950 . S
C415 C416 1.478 . S
C416 C415 1.478 . S
C416 C417 1.397 . S
C416 C433 1.394 . S
C417 C416 1.397 . S
C417 C418 1.438 . S
C417 C422 1.429 . S
C418 C417 1.438 . S
C418 C419 1.428 . S
C418 C431 1.394 1_655 S
C419 H411 0.949 1_655 S
C419 C418 1.428 . S
C419 C420 1.345 . S
C420 H412 0.950 . S
C420 C419 1.345 . S
C420 C421 1.424 . S
C421 H413 0.951 . S
C421 C420 1.424 . S
C421 C422 1.347 . S
C422 H414 0.951 . S
C422 C417 1.429 . S
C422 C421 1.347 . S
H423 C424 0.951 . S
C424 H423 0.951 . S
C424 C430 1.265 . S
H425 C430 0.950 . S
H426 C434 0.949 . S
H427 C435 0.950 . S
H428 C436 0.951 . S
H429 C437 0.951 . S
C430 C424 1.265 . S
C430 H425 0.950 . S
C430 C431 1.478 . S
C431 C418 1.394 1_455 S
C431 C430 1.478 . S
C431 C432 1.397 . S
C432 C431 1.397 . S
C432 C433 1.438 1_455 S
C432 C437 1.429 . S
C433 C416 1.394 . S
C433 C432 1.438 1_655 S
C433 C434 1.428 . S
C434 H426 0.949 . S
C434 C433 1.428 . S
C434 C435 1.345 . S
C435 H427 0.950 . S
C435 C434 1.345 . S
C435 C436 1.424 1_655 S
C436 H428 0.951 . S
C436 C435 1.424 1_455 S
C436 C437 1.347 . S
C437 H429 0.951 . S
C437 C432 1.429 . S
C437 C436 1.347 . S
H438 C439 0.951 . S
C439 H438 0.951 . S
C439 C445 1.265 . S
H440 C445 0.950 . S
H441 C449 0.949 . S
H442 C450 0.950 . S
H443 C451 0.951 . S
H444 C452 0.951 . S
C445 C439 1.265 . S
C445 H440 0.950 . S
C445 C446 1.478 . S
C446 C445 1.478 . S
C446 C447 1.397 1_545 S
C446 C463 1.394 . S
C447 C446 1.397 1_565 S
C447 C448 1.438 . S
C447 C452 1.429 . S
C448 C447 1.438 . S
C448 C449 1.428 . S
C448 C461 1.394 . S
C449 H441 0.949 . S
C449 C448 1.428 . S
C449 C450 1.345 . S
C450 H442 0.950 . S
C450 C449 1.345 . S
C450 C451 1.424 . S
C451 H443 0.951 . S
C451 C450 1.424 . S
C451 C452 1.347 . S
C452 H444 0.951 . S
C452 C447 1.429 . S
C452 C451 1.347 . S
H453 C454 0.951 . S
C454 H453 0.951 . S
C454 C460 1.265 . S
H455 C460 0.950 . S
H456 C464 0.949 . S
H457 C465 0.950 . S
H458 C466 0.951 . S
H459 C467 0.951 1_565 S
C460 C454 1.265 . S
C460 H455 0.950 . S
C460 C461 1.478 . S
C461 C448 1.394 . S
C461 C460 1.478 . S
C461 C462 1.397 . S
C462 C461 1.397 . S
C462 C463 1.438 1_565 S
C462 C467 1.429 1_565 S
C463 C446 1.394 . S
C463 C462 1.438 1_545 S
C463 C464 1.428 . S
C464 H456 0.949 . S
C464 C463 1.428 . S
C464 C465 1.345 . S
C465 H457 0.950 . S
C465 C464 1.345 . S
C465 C466 1.424 . S
C466 H458 0.951 . S
C466 C465 1.424 . S
C466 C467 1.347 . S
C467 H459 0.951 1_545 S
C467 C462 1.429 1_545 S
C467 C466 1.347 . S
H468 C469 0.951 . S
C469 H468 0.951 . S
C469 C475 1.265 . S
H470 C475 0.950 . S
H471 C479 0.949 . S
H472 C480 0.950 . S
H473 C481 0.951 . S
H474 C482 0.951 . S
C475 C469 1.265 . S
C475 H470 0.950 . S
C475 C476 1.478 . S
C476 C475 1.478 . S
C476 C477 1.397 . S
C476 C493 1.394 . S
C477 C476 1.397 . S
C477 C478 1.438 . S
C477 C482 1.429 . S
C478 C477 1.438 . S
C478 C479 1.428 . S
C478 C491 1.394 . S
C479 H471 0.949 . S
C479 C478 1.428 . S
C479 C480 1.345 . S
C480 H472 0.950 . S
C480 C479 1.345 . S
C480 C481 1.424 . S
C481 H473 0.951 . S
C481 C480 1.424 . S
C481 C482 1.347 . S
C482 H474 0.951 . S
C482 C477 1.429 . S
C482 C481 1.347 . S
H483 C484 0.951 . S
C484 H483 0.951 . S
C484 C490 1.265 . S
H485 C490 0.950 . S
H486 C494 0.949 . S
H487 C495 0.950 . S
H488 C496 0.951 . S
H489 C497 0.951 . S
C490 C484 1.265 . S
C490 H485 0.950 . S
C490 C491 1.478 . S
C491 C478 1.394 . S
C491 C490 1.478 . S
C491 C492 1.397 . S
C492 C491 1.397 . S
C492 C493 1.438 . S
C492 C497 1.429 . S
C493 C476 1.394 . S
C493 C492 1.438 . S
C493 C494 1.428 . S
C494 H486 0.949 . S
C494 C493 1.428 . S
C494 C495 1.345 . S
C495 H487 0.950 . S
C495 C494 1.345 . S
C495 C496 1.424 . S
C496 H488 0.951 . S
C496 C495 1.424 . S
C496 C497 1.347 . S
C497 H489 0.951 . S
C497 C492 1.429 . S
C497 C496 1.347 . S
H498 C499 0.951 . S
C499 H498 0.951 . S
C499 C505 1.265 . S
H500 C505 0.950 . S
H501 C509 0.949 . S
H502 C510 0.950 . S
H503 C511 0.951 . S
H504 C512 0.951 . S
C505 C499 1.265 . S
C505 H500 0.950 . S
C505 C506 1.478 . S
C506 C505 1.478 . S
C506 C507 1.397 . S
C506 C523 1.394 . S
C507 C506 1.397 . S
C507 C508 1.438 . S
C507 C512 1.429 . S
C508 C507 1.438 . S
C508 C509 1.428 . S
C508 C521 1.394 . S
C509 H501 0.949 . S
C509 C508 1.428 . S
C509 C510 1.345 . S
C510 H502 0.950 . S
C510 C509 1.345 . S
C510 C511 1.424 . S
C511 H503 0.951 . S
C511 C510 1.424 . S
C511 C512 1.347 . S
C512 H504 0.951 . S
C512 C507 1.429 . S
C512 C511 1.347 . S
H513 C514 0.951 . S
C514 H513 0.951 . S
C514 C520 1.265 . S
H515 C520 0.950 . S
H516 C524 0.949 . S
H517 C525 0.950 . S
H518 C526 0.951 . S
H519 C527 0.951 . S
C520 C514 1.265 . S
C520 H515 0.950 . S
C520 C521 1.478 . S
C521 C508 1.394 . S
C521 C520 1.478 . S
C521 C522 1.397 . S
C522 C521 1.397 . S
C522 C523 1.438 . S
C522 C527 1.429 . S
C523 C506 1.394 . S
C523 C522 1.438 . S
C523 C524 1.428 . S
C524 H516 0.949 . S
C524 C523 1.428 . S
C524 C525 1.345 . S
C525 H517 0.950 . S
C525 C524 1.345 . S
C525 C526 1.424 . S
C526 H518 0.951 . S
C526 C525 1.424 . S
C526 C527 1.347 . S
C527 H519 0.951 . S
C527 C522 1.429 . S
C527 C526 1.347 . S
H528 C529 0.951 . S
C529 H528 0.951 . S
C529 C535 1.265 . S
H530 C535 0.950 . S
H531 C539 0.949 . S
H532 C540 0.950 . S
H533 C541 0.951 . S
H534 C542 0.951 . S
C535 C529 1.265 . S
C535 H530 0.950 . S
C535 C536 1.478 . S
C536 C535 1.478 . S
C536 C537 1.397 . S
C536 C553 1.394 . S
C537 C536 1.397 . S
C537 C538 1.438 . S
C537 C542 1.429 . S
C538 C537 1.438 . S
C538 C539 1.428 . S
C538 C551 1.394 . S
C539 H531 0.949 . S
C539 C538 1.428 . S
C539 C540 1.345 . S
C540 H532 0.950 . S
C540 C539 1.345 . S
C540 C541 1.424 . S
C541 H533 0.951 . S
C541 C540 1.424 . S
C541 C542 1.347 . S
C542 H534 0.951 . S
C542 C537 1.429 . S
C542 C541 1.347 . S
H543 C544 0.951 . S
C544 H543 0.951 . S
C544 C550 1.265 . S
H545 C550 0.950 . S
H546 C554 0.949 . S
H547 C555 0.950 . S
H548 C556 0.951 . S
H549 C557 0.951 . S
C550 C544 1.265 . S
C550 H545 0.950 . S
C550 C551 1.478 . S
C551 C538 1.394 . S
C551 C550 1.478 . S
C551 C552 1.397 . S
C552 C551 1.397 . S
C552 C553 1.438 . S
C552 C557 1.429 . S
C553 C536 1.394 . S
C553 C552 1.438 . S
C553 C554 1.428 . S
C554 H546 0.949 . S
C554 C553 1.428 . S
C554 C555 1.345 . S
C555 H547 0.950 . S
C555 C554 1.345 . S
C555 C556 1.424 . S
C556 H548 0.951 . S
C556 C555 1.424 . S
C556 C557 1.347 . S
C557 H549 0.951 . S
C557 C552 1.429 . S
C557 C556 1.347 . S
H558 C559 0.951 . S
C559 H558 0.951 . S
C559 C565 1.265 . S
H560 C565 0.950 . S
H561 C569 0.949 . S
H562 C570 0.950 . S
H563 C571 0.951 . S
H564 C572 0.951 . S
C565 C559 1.265 . S
C565 H560 0.950 . S
C565 C566 1.478 . S
C566 C565 1.478 . S
C566 C567 1.397 . S
C566 C583 1.394 . S
C567 C566 1.397 . S
C567 C568 1.438 . S
C567 C572 1.429 . S
C568 C567 1.438 . S
C568 C569 1.428 . S
C568 C581 1.394 . S
C569 H561 0.949 . S
C569 C568 1.428 . S
C569 C570 1.345 . S
C570 H562 0.950 . S
C570 C569 1.345 . S
C570 C571 1.424 . S
C571 H563 0.951 . S
C571 C570 1.424 . S
C571 C572 1.347 . S
C572 H564 0.951 . S
C572 C567 1.429 . S
C572 C571 1.347 . S
H573 C574 0.951 . S
C574 H573 0.951 . S
C574 C580 1.265 . S
H575 C580 0.950 . S
H576 C584 0.949 . S
H577 C585 0.950 . S
H578 C586 0.951 . S
H579 C587 0.951 . S
C580 C574 1.265 . S
C580 H575 0.950 . S
C580 C581 1.478 . S
C581 C568 1.394 . S
C581 C580 1.478 . S
C581 C582 1.397 . S
C582 C581 1.397 . S
C582 C583 1.438 . S
C582 C587 1.429 . S
C583 C566 1.394 . S
C583 C582 1.438 . S
C583 C584 1.428 . S
C584 H576 0.949 . S
C584 C583 1.428 . S
C584 C585 1.345 . S
C585 H577 0.950 . S
C585 C584 1.345 . S
C585 C586 1.424 . S
C586 H578 0.951 . S
C586 C585 1.424 . S
C586 C587 1.347 . S
C587 H579 0.951 . S
C587 C582 1.429 . S
C587 C586 1.347 . S
H588 C589 0.951 . S
C589 H588 0.951 . S
C589 C595 1.265 . S
H590 C595 0.950 . S
H591 C599 0.949 . S
H592 C600 0.950 . S
H593 C601 0.951 . S
H594 C602 0.951 . S
C595 C589 1.265 . S
C595 H590 0.950 . S
C595 C596 1.478 . S
C596 C595 1.478 . S
C596 C597 1.397 . S
C596 C613 1.394 . S
C597 C596 1.397 . S
C597 C598 1.438 . S
C597 C602 1.429 . S
C598 C597 1.438 . S
C598 C599 1.428 . S
C598 C611 1.394 . S
C599 H591 0.949 . S
C599 C598 1.428 . S
C599 C600 1.345 . S
C600 H592 0.950 . S
C600 C599 1.345 . S
C600 C601 1.424 . S
C601 H593 0.951 . S
C601 C600 1.424 . S
C601 C602 1.347 . S
C602 H594 0.951 . S
C602 C597 1.429 . S
C602 C601 1.347 . S
H603 C604 0.951 . S
C604 H603 0.951 . S
C604 C610 1.265 . S
H605 C610 0.950 . S
H606 C614 0.949 . S
H607 C615 0.950 . S
H608 C616 0.951 . S
H609 C617 0.951 . S
C610 C604 1.265 . S
C610 H605 0.950 . S
C610 C611 1.478 . S
C611 C598 1.394 . S
C611 C610 1.478 . S
C611 C612 1.397 . S
C612 C611 1.397 . S
C612 C613 1.438 . S
C612 C617 1.429 . S
C613 C596 1.394 . S
C613 C612 1.438 . S
C613 C614 1.428 . S
C614 H606 0.949 . S
C614 C613 1.428 . S
C614 C615 1.345 . S
C615 H607 0.950 . S
C615 C614 1.345 . S
C615 C616 1.424 . S
C616 H608 0.951 . S
C616 C615 1.424 . S
C616 C617 1.347 . S
C617 H609 0.951 . S
C617 C612 1.429 . S
C617 C616 1.347 . S
H618 C619 0.951 . S
C619 H618 0.951 . S
C619 C625 1.265 . S
H620 C625 0.950 . S
H621 C629 0.949 . S
H622 C630 0.950 . S
H623 C631 0.951 . S
H624 C632 0.951 . S
C625 C619 1.265 . S
C625 H620 0.950 . S
C625 C626 1.478 . S
C626 C625 1.478 . S
C626 C627 1.397 . S
C626 C643 1.394 . S
C627 C626 1.397 . S
C627 C628 1.438 . S
C627 C632 1.429 . S
C628 C627 1.438 . S
C628 C629 1.428 . S
C628 C641 1.394 . S
C629 H621 0.949 . S
C629 C628 1.428 . S
C629 C630 1.345 . S
C630 H622 0.950 . S
C630 C629 1.345 . S
C630 C631 1.424 . S
C631 H623 0.951 . S
C631 C630 1.424 . S
C631 C632 1.347 . S
C632 H624 0.951 . S
C632 C627 1.429 . S
C632 C631 1.347 . S
H633 C634 0.951 . S
C634 H633 0.951 . S
C634 C640 1.265 . S
H635 C640 0.950 . S
H636 C644 0.949 . S
H637 C645 0.950 . S
H638 C646 0.951 . S
H639 C647 0.947 1_554 S
C640 C634 1.265 . S
C640 H635 0.950 . S
C640 C641 1.478 . S
C641 C628 1.394 . S
C641 C640 1.478 . S
C641 C642 1.397 . S
C642 C641 1.397 . S
C642 C643 1.438 . S
C642 C647 1.439 . S
C643 C626 1.394 . S
C643 C642 1.438 . S
C643 C644 1.428 . S
C644 H636 0.949 . S
C644 C643 1.428 . S
C644 C645 1.345 1_556 S
C645 H637 0.950 . S
C645 C644 1.345 1_554 S
C645 C646 1.424 . S
C646 H638 0.951 . S
C646 C645 1.424 . S
C646 C647 1.340 1_554 S
C647 H639 0.947 1_556 S
C647 C642 1.439 . S
C647 C646 1.340 1_556 S
H648 C649 0.951 . S
C649 H648 0.951 . S
C649 C655 1.265 . S
H650 C655 0.950 . S
H651 C659 0.949 . S
H652 C660 0.945 1_556 S
H653 C661 0.951 . S
H654 C662 0.951 1_556 S
C655 C649 1.265 . S
C655 H650 0.950 . S
C655 C656 1.478 . S
C656 C655 1.478 . S
C656 C657 1.397 . S
C656 C673 1.394 . S
C657 C656 1.397 . S
C657 C658 1.438 . S
C657 C662 1.429 . S
C658 C657 1.438 . S
C658 C659 1.428 . S
C658 C671 1.394 . S
C659 H651 0.949 . S
C659 C658 1.428 . S
C659 C660 1.353 . S
C660 H652 0.945 1_554 S
C660 C659 1.353 . S
C660 C661 1.421 1_554 S
C661 H653 0.951 . S
C661 C660 1.421 1_556 S
C661 C662 1.347 1_556 S
C662 H654 0.951 1_554 S
C662 C657 1.429 . S
C662 C661 1.347 1_554 S
H663 C664 0.951 . S
C664 H663 0.951 . S
C664 C670 1.265 . S
H665 C670 0.950 . S
H666 C674 0.949 . S
H667 C675 0.950 . S
H668 C676 0.951 . S
H669 C677 0.951 . S
C670 C664 1.265 . S
C670 H665 0.950 . S
C670 C671 1.478 . S
C671 C658 1.394 . S
C671 C670 1.478 . S
C671 C672 1.397 . S
C672 C671 1.397 . S
C672 C673 1.438 . S
C672 C677 1.429 . S
C673 C656 1.394 . S
C673 C672 1.438 . S
C673 C674 1.428 . S
C674 H666 0.949 . S
C674 C673 1.428 . S
C674 C675 1.345 . S
C675 H667 0.950 . S
C675 C674 1.345 . S
C675 C676 1.424 . S
C676 H668 0.951 . S
C676 C675 1.424 . S
C676 C677 1.347 . S
C677 H669 0.951 . S
C677 C672 1.429 . S
C677 C676 1.347 . S
C319 C39 1.873 1_556 S
C334 C181 1.905 . S
C349 C234 1.839 . S
C364 C92 1.805 . S
C379 C128 1.854 . S
C394 C304 1.830 1_554 S
C409 C198 1.872 . S
C424 C22 1.900 . S
C439 C75 1.827 . S
C454 C251 1.801 . S
C469 C287 1.879 . S
C484 C145 1.841 . S
C499 C38 1.904 . S
C514 C144 1.897 . S
C529 C91 1.802 . S
C544 C188 1.821 . S
C559 C241 1.648 . S
C574 C135 1.673 . S
C589 C303 1.936 . S
C604 C197 1.937 . S
C619 C250 1.819 . S
C634 C29 1.777 . S
C649 C294 1.670 1_554 S
C664 C82 1.647 . S
