# Generated by pormake.
# Topology ung, (4)-cn, num edge types: 1
# Building blocks:
#     Node 0, Type 0, BuildingBlock: ICAMEG_clean_sbu_1, # of connection points: 4
#     Node 1, Type 0, BuildingBlock: ICAMEG_clean_sbu_1, # of connection points: 4
#     Node 2, Type 0, BuildingBlock: ICAMEG_clean_sbu_1, # of connection points: 4
#     Node 3, Type 0, BuildingBlock: ICAMEG_clean_sbu_1, # of connection points: 4
#     Node 4, Type 0, BuildingBlock: ICAMEG_clean_sbu_1, # of connection points: 4
#     Node 5, Type 0, BuildingBlock: ICAMEG_clean_sbu_1, # of connection points: 4
#     Node 6, Type 0, BuildingBlock: ICAMEG_clean_sbu_1, # of connection points: 4
#     Node 7, Type 0, BuildingBlock: ICAMEG_clean_sbu_1, # of connection points: 4
#     Node 8, Type 0, BuildingBlock: ICAMEG_clean_sbu_1, # of connection points: 4
#     Node 9, Type 0, BuildingBlock: ICAMEG_clean_sbu_1, # of connection points: 4
#     Node 10, Type 0, BuildingBlock: ICAMEG_clean_sbu_1, # of connection points: 4
#     Node 11, Type 0, BuildingBlock: ICAMEG_clean_sbu_1, # of connection points: 4
#     Node 12, Type 0, BuildingBlock: ICAMEG_clean_sbu_1, # of connection points: 4
#     Node 13, Type 0, BuildingBlock: ICAMEG_clean_sbu_1, # of connection points: 4
#     Node 14, Type 0, BuildingBlock: ICAMEG_clean_sbu_1, # of connection points: 4
#     Node 15, Type 0, BuildingBlock: ICAMEG_clean_sbu_1, # of connection points: 4
#     Node 16, Type 0, BuildingBlock: ICAMEG_clean_sbu_1, # of connection points: 4
#     Node 17, Type 0, BuildingBlock: ICAMEG_clean_sbu_1, # of connection points: 4
#     Edge 18, Type (0, 0), BuildingBlock: UVAHIK_clean_linker_0, # of connection points: 2
#     Edge 19, Type (0, 0), BuildingBlock: UVAHIK_clean_linker_0, # of connection points: 2
#     Edge 20, Type (0, 0), BuildingBlock: UVAHIK_clean_linker_0, # of connection points: 2
#     Edge 21, Type (0, 0), BuildingBlock: UVAHIK_clean_linker_0, # of connection points: 2
#     Edge 22, Type (0, 0), BuildingBlock: UVAHIK_clean_linker_0, # of connection points: 2
#     Edge 23, Type (0, 0), BuildingBlock: UVAHIK_clean_linker_0, # of connection points: 2
#     Edge 24, Type (0, 0), BuildingBlock: UVAHIK_clean_linker_0, # of connection points: 2
#     Edge 25, Type (0, 0), BuildingBlock: UVAHIK_clean_linker_0, # of connection points: 2
#     Edge 26, Type (0, 0), BuildingBlock: UVAHIK_clean_linker_0, # of connection points: 2
#     Edge 27, Type (0, 0), BuildingBlock: UVAHIK_clean_linker_0, # of connection points: 2
#     Edge 28, Type (0, 0), BuildingBlock: UVAHIK_clean_linker_0, # of connection points: 2
#     Edge 29, Type (0, 0), BuildingBlock: UVAHIK_clean_linker_0, # of connection points: 2
#     Edge 30, Type (0, 0), BuildingBlock: UVAHIK_clean_linker_0, # of connection points: 2
#     Edge 31, Type (0, 0), BuildingBlock: UVAHIK_clean_linker_0, # of connection points: 2
#     Edge 32, Type (0, 0), BuildingBlock: UVAHIK_clean_linker_0, # of connection points: 2
#     Edge 33, Type (0, 0), BuildingBlock: UVAHIK_clean_linker_0, # of connection points: 2
#     Edge 34, Type (0, 0), BuildingBlock: UVAHIK_clean_linker_0, # of connection points: 2
#     Edge 35, Type (0, 0), BuildingBlock: UVAHIK_clean_linker_0, # of connection points: 2
#     Edge 36, Type (0, 0), BuildingBlock: UVAHIK_clean_linker_0, # of connection points: 2
#     Edge 37, Type (0, 0), BuildingBlock: UVAHIK_clean_linker_0, # of connection points: 2
#     Edge 38, Type (0, 0), BuildingBlock: UVAHIK_clean_linker_0, # of connection points: 2
#     Edge 39, Type (0, 0), BuildingBlock: UVAHIK_clean_linker_0, # of connection points: 2
#     Edge 40, Type (0, 0), BuildingBlock: UVAHIK_clean_linker_0, # of connection points: 2
#     Edge 41, Type (0, 0), BuildingBlock: UVAHIK_clean_linker_0, # of connection points: 2
#     Edge 42, Type (0, 0), BuildingBlock: UVAHIK_clean_linker_0, # of connection points: 2
#     Edge 43, Type (0, 0), BuildingBlock: UVAHIK_clean_linker_0, # of connection points: 2
#     Edge 44, Type (0, 0), BuildingBlock: UVAHIK_clean_linker_0, # of connection points: 2
#     Edge 45, Type (0, 0), BuildingBlock: UVAHIK_clean_linker_0, # of connection points: 2
#     Edge 46, Type (0, 0), BuildingBlock: UVAHIK_clean_linker_0, # of connection points: 2
#     Edge 47, Type (0, 0), BuildingBlock: UVAHIK_clean_linker_0, # of connection points: 2
#     Edge 48, Type (0, 0), BuildingBlock: UVAHIK_clean_linker_0, # of connection points: 2
#     Edge 49, Type (0, 0), BuildingBlock: UVAHIK_clean_linker_0, # of connection points: 2
#     Edge 50, Type (0, 0), BuildingBlock: UVAHIK_clean_linker_0, # of connection points: 2
#     Edge 51, Type (0, 0), BuildingBlock: UVAHIK_clean_linker_0, # of connection points: 2
#     Edge 52, Type (0, 0), BuildingBlock: UVAHIK_clean_linker_0, # of connection points: 2
#     Edge 53, Type (0, 0), BuildingBlock: UVAHIK_clean_linker_0, # of connection points: 2
# Relax obj value: 0.018
# Max RMSD: 0.106
# Mean RMSD: 0.106
data_MOF--net-ung--node1-ICAMEG_clean_sbu_1--edge1-UVAHIK_clean_linker_0
_symmetry_space_group_name_H-M    P1
_symmetry_Int_Tables_number       1
_symmetry_cell_setting            triclinic
loop_
_symmetry_equiv_pos_as_xyz
'x, y, z'
_cell_length_a     98.23136
_cell_length_b     98.337765
_cell_length_c     31.612522
_cell_angle_alpha  90.033726
_cell_angle_beta   90.062598
_cell_angle_gamma 119.99738
loop_
_atom_site_label
_atom_site_type_symbol
_atom_site_fract_x
_atom_site_fract_y
_atom_site_fract_z
_atom_type_partial_charge
Co0 Co 0.08231 0.64701 0.21005 0.0
Co1 Co 0.051 0.63133 0.27884 0.0
O2 O 0.06684 0.62995 0.24497 0.0
C3 C 0.06687 0.62019 0.15183 0.0
O4 O 0.05345 0.61826 0.16596 0.0
C5 C 0.06721 0.62156 0.33918 0.0
O6 O 0.08042 0.63318 0.3245 0.0
O7 O 0.06728 0.65122 0.30519 0.0
O8 O 0.08508 0.663 0.25344 0.0
H9 H 0.02397 0.65834 0.3428 0.0
H10 H 0.08645 0.61979 0.22926 0.0
O11 O 0.0798 0.63136 0.16595 0.0
H12 H 0.13361 0.66593 0.28687 0.0
H13 H 0.12846 0.67198 0.11081 0.0
H14 H 0.08837 0.67875 0.1865 0.0
H15 H 0.11316 0.66901 0.2501 0.0
H16 H 0.10899 0.65092 0.15656 0.0
O17 O 0.0541 0.61912 0.32454 0.0
H18 H 0.04379 0.65651 0.29909 0.0
H19 H 0.02471 0.60864 0.33343 0.0
H20 H 0.10769 0.70017 0.14137 0.0
H21 H 0.10668 0.61619 0.26552 0.0
H22 H 0.12793 0.69685 0.10315 0.0
H23 H 0.13044 0.63936 0.29475 0.0
O24 O 0.06559 0.6496 0.18239 0.0
H25 H 0.02835 0.57565 0.22866 0.0
H26 H 0.01991 0.62096 0.23809 0.0
H27 H -1e-05 0.59665 0.20308 0.0
H28 H 0.00415 0.57378 0.19823 0.0
H29 H 0.04803 0.60022 0.2631 0.0
H30 H 0.00476 0.60998 0.37783 0.0
H31 H 0.00427 0.63495 0.38255 0.0
O32 O 0.04767 0.64363 0.23381 0.0
C33 C 0.07935 0.66305 0.2896 0.0
C34 C 0.02402 0.64737 0.34086 0.0
C35 C 0.01325 0.62024 0.36056 0.0
N36 N 0.03528 0.63244 0.31334 0.0
C37 C 0.03518 0.64625 0.31604 0.0
C38 C 0.02458 0.61956 0.33543 0.0
C39 C 0.01298 0.63425 0.36319 0.0
C40 C 0.09684 0.62995 0.24149 0.0
N41 N 0.09866 0.6446 0.23737 0.0
C42 C 0.10822 0.62783 0.26216 0.0
C43 C 0.12154 0.64083 0.27861 0.0
C44 C 0.12332 0.65574 0.27423 0.0
C45 C 0.11169 0.65741 0.25345 0.0
C46 C 0.11973 0.67359 0.1274 0.0
C47 C 0.09722 0.67728 0.17022 0.0
C48 C 0.10867 0.6617 0.15329 0.0
N49 N 0.09767 0.66369 0.17452 0.0
C50 C 0.10809 0.68942 0.14459 0.0
C51 C 0.11943 0.68754 0.12312 0.0
C52 C 0.05329 0.6491 0.19735 0.0
C53 C 0.02638 0.58552 0.2307 0.0
C54 C 0.02182 0.61107 0.23604 0.0
C55 C 0.01048 0.59732 0.21625 0.0
C56 C 0.01282 0.58449 0.21357 0.0
N57 N 0.03509 0.61198 0.25281 0.0
C58 C 0.03745 0.59944 0.25033 0.0
Co59 Co 0.50351 0.48801 0.27821 0.0
Co60 Co 0.48786 0.50345 0.20858 0.0
O61 O 0.50495 0.50511 0.24373 0.0
C62 C 0.5135 0.51427 0.33773 0.0
O63 O 0.50189 0.51587 0.32285 0.0
C64 C 0.51462 0.51443 0.15039 0.0
O65 O 0.51648 0.50296 0.16496 0.0
O66 O 0.48512 0.48399 0.18165 0.0
O67 O 0.49112 0.47222 0.23352 0.0
H68 H 0.43454 0.47558 0.1401 0.0
H69 H 0.5347 0.51598 0.26194 0.0
O70 O 0.51584 0.50349 0.32355 0.0
H71 H 0.53797 0.47115 0.20387 0.0
H72 H 0.52476 0.46343 0.3787 0.0
H73 H 0.47823 0.45576 0.29911 0.0
H74 H 0.51371 0.46703 0.23854 0.0
H75 H 0.52618 0.48454 0.33346 0.0
O76 O 0.50351 0.51632 0.16424 0.0
H77 H 0.45598 0.47779 0.1856 0.0
H78 H 0.48405 0.52603 0.15401 0.0
H79 H 0.47631 0.43428 0.34367 0.0
H80 H 0.55922 0.52062 0.22782 0.0
H81 H 0.4997 0.43806 0.38385 0.0
H82 H 0.56095 0.49811 0.19837 0.0
O83 O 0.48367 0.4846 0.30433 0.0
H84 H 0.51906 0.55886 0.2623 0.0
H85 H 0.46603 0.51265 0.2478 0.0
H86 H 0.46931 0.53641 0.28357 0.0
H87 H 0.49598 0.55973 0.29098 0.0
H88 H 0.51527 0.53482 0.22704 0.0
H89 H 0.46297 0.52432 0.10788 0.0
H90 H 0.43797 0.49897 0.10085 0.0
O91 O 0.47189 0.49052 0.25225 0.0
C92 C 0.48562 0.47226 0.19695 0.0
C93 C 0.44535 0.48671 0.14304 0.0
C94 C 0.46131 0.51406 0.12491 0.0
N95 N 0.47117 0.50206 0.1728 0.0
C96 C 0.45751 0.48804 0.16886 0.0
C97 C 0.47321 0.51495 0.15102 0.0
C98 C 0.44729 0.49983 0.12099 0.0
C99 C 0.53541 0.50611 0.2496 0.0
N100 N 0.52282 0.49125 0.25243 0.0
C101 C 0.54931 0.50882 0.23014 0.0
C102 C 0.55026 0.49618 0.21356 0.0
C103 C 0.53736 0.48106 0.21661 0.0
C104 C 0.52365 0.4788 0.23621 0.0
C105 C 0.5145 0.46163 0.36125 0.0
C106 C 0.48848 0.45744 0.31625 0.0
C107 C 0.51523 0.47354 0.33564 0.0
N108 N 0.50234 0.47131 0.31333 0.0
C109 C 0.48731 0.44526 0.34155 0.0
C110 C 0.50044 0.44739 0.36412 0.0
C111 C 0.47185 0.48489 0.28863 0.0
C112 C 0.50738 0.54879 0.25914 0.0
C113 C 0.47768 0.52275 0.25095 0.0
C114 C 0.47946 0.53618 0.27117 0.0
C115 C 0.49443 0.54926 0.27529 0.0
N116 N 0.49044 0.52238 0.23516 0.0
C117 C 0.50515 0.53517 0.23904 0.0
Co118 Co 0.63081 0.05214 0.21014 0.0
Co119 Co 0.6463 0.08364 0.27853 0.0
O120 O 0.62916 0.06771 0.24454 0.0
C121 C 0.61987 0.06769 0.15118 0.0
O122 O 0.63138 0.08104 0.16559 0.0
C123 C 0.62022 0.06743 0.33849 0.0
O124 O 0.6187 0.05424 0.32388 0.0
O125 O 0.65001 0.0675 0.30526 0.0
O126 O 0.64374 0.04932 0.25434 0.0
H127 H 0.70028 0.11102 0.34325 0.0
H128 H 0.59942 0.04827 0.22782 0.0
O129 O 0.61794 0.05473 0.16533 0.0
H130 H 0.59777 0.00103 0.28659 0.0
H131 H 0.60982 0.00589 0.11106 0.0
H132 H 0.65645 0.04577 0.18829 0.0
H133 H 0.62157 0.02131 0.25058 0.0
H134 H 0.60817 0.02552 0.15612 0.0
O135 O 0.63089 0.08054 0.32394 0.0
H136 H 0.67875 0.09107 0.29936 0.0
H137 H 0.64965 0.10994 0.33275 0.0
H138 H 0.65861 0.02629 0.14388 0.0
H139 H 0.57534 0.02822 0.26328 0.0
H140 H 0.63517 0.00617 0.10489 0.0
H141 H 0.57444 0.00442 0.29309 0.0
O142 O 0.65031 0.0687 0.18297 0.0
H143 H 0.61301 0.10585 0.22699 0.0
H144 H 0.66692 0.11465 0.23773 0.0
H145 H 0.66241 0.13436 0.20211 0.0
H146 H 0.63529 0.13002 0.19658 0.0
H147 H 0.61804 0.08638 0.26205 0.0
H148 H 0.67081 0.13001 0.3773 0.0
H149 H 0.69637 0.13068 0.38259 0.0
O150 O 0.66202 0.08698 0.23379 0.0
C151 C 0.64959 0.05525 0.29035 0.0
C152 C 0.68922 0.11089 0.34105 0.0
C153 C 0.67267 0.12154 0.36021 0.0
N154 N 0.66304 0.09946 0.31313 0.0
C155 C 0.67701 0.09966 0.31614 0.0
C156 C 0.66073 0.11014 0.335 0.0
C157 C 0.68701 0.12191 0.36316 0.0
C158 C 0.59906 0.03787 0.24031 0.0
N159 N 0.61185 0.03593 0.23692 0.0
C160 C 0.58542 0.02659 0.26052 0.0
C161 C 0.58493 0.01325 0.2773 0.0
C162 C 0.59802 0.01135 0.27369 0.0
C163 C 0.61147 0.02289 0.25334 0.0
C164 C 0.62011 0.01458 0.12799 0.0
C165 C 0.64618 0.03697 0.17166 0.0
C166 C 0.61925 0.02573 0.15349 0.0
N167 N 0.63217 0.03666 0.17514 0.0
C168 C 0.64748 0.02601 0.14645 0.0
C169 C 0.63433 0.01473 0.12455 0.0
C170 C 0.66199 0.08115 0.19769 0.0
C171 C 0.62488 0.1079 0.22932 0.0
C172 C 0.65509 0.11267 0.2354 0.0
C173 C 0.6526 0.12389 0.21527 0.0
C174 C 0.63739 0.12144 0.21221 0.0
N175 N 0.64276 0.09941 0.25214 0.0
C176 C 0.62781 0.09695 0.24931 0.0
Co177 Co 0.05306 0.48898 0.77849 0.0
Co178 Co 0.08406 0.50479 0.70871 0.0
O179 O 0.06852 0.50619 0.74393 0.0
C180 C 0.06907 0.51529 0.8381 0.0
O181 O 0.08236 0.51716 0.8231 0.0
C182 C 0.06787 0.51535 0.65062 0.0
O183 O 0.05464 0.50375 0.66526 0.0
O184 O 0.0675 0.48518 0.68185 0.0
O185 O 0.04985 0.47325 0.73383 0.0
H186 H 0.1102 0.47766 0.64026 0.0
H187 H 0.04931 0.51662 0.76224 0.0
O188 O 0.05601 0.50438 0.82386 0.0
H189 H 0.00149 0.47131 0.7043 0.0
H190 H 0.00736 0.46379 0.87916 0.0
H191 H 0.04665 0.45693 0.79951 0.0
H192 H 0.02191 0.46761 0.73893 0.0
H193 H 0.02678 0.48505 0.83379 0.0
O194 O 0.08097 0.51746 0.66438 0.0
H195 H 0.09079 0.47949 0.68577 0.0
H196 H 0.11023 0.52763 0.65403 0.0
H197 H 0.02737 0.43531 0.84421 0.0
H198 H 0.02912 0.52084 0.72816 0.0
H199 H 0.00754 0.43868 0.88442 0.0
H200 H 0.00502 0.49809 0.69878 0.0
O201 O 0.06973 0.48591 0.80452 0.0
H202 H 0.1076 0.56017 0.76217 0.0
H203 H 0.11528 0.51451 0.74783 0.0
H204 H 0.13557 0.53845 0.78345 0.0
H205 H 0.13179 0.5615 0.79077 0.0
H206 H 0.08754 0.53596 0.72708 0.0
H207 H 0.12977 0.5263 0.60789 0.0
H208 H 0.12987 0.50118 0.60094 0.0
O209 O 0.08742 0.49207 0.75238 0.0
C210 C 0.05538 0.47335 0.69726 0.0
C211 C 0.11031 0.48868 0.64317 0.0
C212 C 0.12129 0.51598 0.62495 0.0
N213 N 0.09949 0.50369 0.6729 0.0
C214 C 0.09939 0.4898 0.669 0.0
C215 C 0.11018 0.51666 0.65107 0.0
C216 C 0.12134 0.50188 0.62108 0.0
C217 C 0.03878 0.50664 0.74993 0.0
N218 N 0.03675 0.49188 0.75277 0.0
C219 C 0.02742 0.50911 0.7305 0.0
C220 C 0.01392 0.49634 0.71395 0.0
C221 C 0.01193 0.48132 0.71701 0.0
C222 C 0.02355 0.4793 0.73659 0.0
C223 C 0.01591 0.46217 0.86169 0.0
C224 C 0.03798 0.45843 0.81666 0.0
C225 C 0.02695 0.47417 0.83601 0.0
N226 N 0.03772 0.47215 0.81368 0.0
C227 C 0.02713 0.44617 0.84203 0.0
C228 C 0.01602 0.44808 0.86463 0.0
C229 C 0.08191 0.4864 0.78878 0.0
C230 C 0.1094 0.55023 0.75905 0.0
C231 C 0.11353 0.52449 0.75095 0.0
C232 C 0.12508 0.53802 0.77108 0.0
C233 C 0.12296 0.55095 0.77516 0.0
N234 N 0.10027 0.52387 0.73521 0.0
C235 C 0.09812 0.53651 0.73904 0.0
Co236 Co 0.6306 0.64715 0.70971 0.0
Co237 Co 0.64644 0.6315 0.77812 0.0
O238 O 0.62918 0.63005 0.74419 0.0
C239 C 0.61986 0.62065 0.65076 0.0
O240 O 0.63145 0.61893 0.66516 0.0
C241 C 0.62035 0.62136 0.83824 0.0
O242 O 0.61862 0.63291 0.82367 0.0
O243 O 0.64991 0.65127 0.80479 0.0
O244 O 0.64349 0.663 0.75376 0.0
H245 H 0.70047 0.65871 0.84256 0.0
H246 H 0.59937 0.61948 0.72769 0.0
O247 O 0.61778 0.63159 0.665 0.0
H248 H 0.59727 0.66487 0.7864 0.0
H249 H 0.60907 0.67191 0.61076 0.0
H250 H 0.656 0.6792 0.68754 0.0
H251 H 0.62111 0.66856 0.75018 0.0
H252 H 0.60772 0.65081 0.65588 0.0
O253 O 0.63113 0.6191 0.82363 0.0
H254 H 0.67877 0.65679 0.79874 0.0
H255 H 0.65021 0.60882 0.8324 0.0
H256 H 0.65785 0.70067 0.64306 0.0
H257 H 0.57525 0.61528 0.76338 0.0
H258 H 0.63427 0.69709 0.6043 0.0
H259 H 0.57412 0.63807 0.79316 0.0
O260 O 0.65014 0.65022 0.68239 0.0
H261 H 0.6137 0.57591 0.72687 0.0
H262 H 0.66735 0.62142 0.73728 0.0
H263 H 0.66313 0.59727 0.70179 0.0
H264 H 0.63615 0.5743 0.69644 0.0
H265 H 0.61842 0.60033 0.7618 0.0
H266 H 0.67154 0.61025 0.87688 0.0
H267 H 0.69691 0.63532 0.88201 0.0
O268 O 0.66207 0.64395 0.73328 0.0
C269 C 0.64938 0.66303 0.78977 0.0
C270 C 0.68949 0.6477 0.84044 0.0
C271 C 0.67325 0.62051 0.85975 0.0
N272 N 0.66332 0.63267 0.81265 0.0
C273 C 0.67719 0.64653 0.81556 0.0
C274 C 0.6612 0.61978 0.83457 0.0
C275 C 0.68748 0.63458 0.8626 0.0
C276 C 0.59891 0.62948 0.74017 0.0
N277 N 0.6116 0.64425 0.73665 0.0
C278 C 0.58524 0.62702 0.76051 0.0
C279 C 0.58463 0.63981 0.77727 0.0
C280 C 0.59762 0.65485 0.77352 0.0
C281 C 0.61109 0.65686 0.75304 0.0
C282 C 0.61942 0.67363 0.62759 0.0
C283 C 0.64566 0.67761 0.67101 0.0
C284 C 0.61873 0.66172 0.65313 0.0
N285 N 0.63173 0.66385 0.67466 0.0
C286 C 0.64679 0.68978 0.64576 0.0
C287 C 0.63356 0.68776 0.62399 0.0
C288 C 0.66193 0.64964 0.69711 0.0
C289 C 0.62552 0.58583 0.72913 0.0
C290 C 0.65557 0.61148 0.73503 0.0
C291 C 0.65326 0.59783 0.71497 0.0
C292 C 0.63812 0.58494 0.712 0.0
N293 N 0.64315 0.61226 0.75179 0.0
C294 C 0.62827 0.59966 0.74904 0.0
Co295 Co 0.50273 0.08259 0.77905 0.0
Co296 Co 0.48738 0.05116 0.71044 0.0
O297 O 0.50429 0.06675 0.74571 0.0
C298 C 0.51229 0.06649 0.84034 0.0
O299 O 0.50077 0.05325 0.82544 0.0
C300 C 0.5143 0.06693 0.65301 0.0
O301 O 0.51596 0.08021 0.66735 0.0
O302 O 0.48456 0.06768 0.68247 0.0
O303 O 0.49069 0.08589 0.73321 0.0
H304 H 0.43426 0.02509 0.64071 0.0
H305 H 0.53395 0.08555 0.76504 0.0
O306 O 0.51473 0.07955 0.82553 0.0
H307 H 0.53784 0.1335 0.704 0.0
H308 H 0.52354 0.12886 0.87803 0.0
H309 H 0.47742 0.0898 0.79751 0.0
H310 H 0.51333 0.11363 0.73811 0.0
H311 H 0.52514 0.10891 0.8343 0.0
O312 O 0.50323 0.0539 0.66674 0.0
H313 H 0.45548 0.04461 0.68621 0.0
H314 H 0.48398 0.02466 0.65703 0.0
H315 H 0.47533 0.10962 0.84053 0.0
H316 H 0.55873 0.10519 0.73154 0.0
H317 H 0.49852 0.12933 0.88117 0.0
H318 H 0.56076 0.12935 0.70059 0.0
O319 O 0.48271 0.06636 0.80467 0.0
H320 H 0.51872 0.02751 0.76709 0.0
H321 H 0.46558 0.02026 0.75018 0.0
H322 H 0.46892 7e-05 0.7873 0.0
H323 H 0.49565 0.00363 0.79594 0.0
H324 H 0.51486 0.04747 0.73046 0.0
H325 H 0.46312 0.005 0.61093 0.0
H326 H 0.43802 0.0051 0.6027 0.0
O327 O 0.47122 0.0482 0.75346 0.0
C328 C 0.4852 0.0801 0.69684 0.0
C329 C 0.44512 0.02489 0.64418 0.0
C330 C 0.46133 0.01362 0.62742 0.0
N331 N 0.47087 0.03566 0.67462 0.0
C332 C 0.45715 0.03587 0.67001 0.0
C333 C 0.4731 0.02479 0.65351 0.0
C334 C 0.44724 0.01368 0.62282 0.0
C335 C 0.5348 0.09611 0.75205 0.0
N336 N 0.52224 0.09848 0.75374 0.0
C337 C 0.54884 0.10716 0.73295 0.0
C338 C 0.54996 0.1207 0.71553 0.0
C339 C 0.5371 0.12303 0.71741 0.0
C340 C 0.52324 0.11172 0.73669 0.0
C341 C 0.51337 0.12036 0.86037 0.0
C342 C 0.48759 0.09842 0.81486 0.0
C343 C 0.5142 0.10902 0.83561 0.0
N344 N 0.50143 0.09832 0.81303 0.0
C345 C 0.48632 0.10957 0.83928 0.0
C346 C 0.49933 0.12062 0.86211 0.0
C347 C 0.47101 0.0541 0.78925 0.0
C348 C 0.50701 0.0258 0.7634 0.0
C349 C 0.47725 0.02191 0.75385 0.0
C350 C 0.47906 0.01042 0.77483 0.0
C351 C 0.49406 0.01242 0.77964 0.0
N352 N 0.49001 0.035 0.73798 0.0
C353 C 0.50475 0.03703 0.74252 0.0
Co354 Co 0.71724 0.96459 0.61347 0.0
Co355 Co 0.74848 0.97955 0.54444 0.0
O356 O 0.73259 0.96263 0.57891 0.0
C357 C 0.73273 0.95364 0.67271 0.0
O358 O 0.74612 0.96498 0.65805 0.0
C359 C 0.73201 0.95325 0.48502 0.0
O360 O 0.71884 0.95177 0.49972 0.0
O361 O 0.73231 0.98323 0.51772 0.0
O362 O 0.71445 0.97749 0.56918 0.0
H363 H 0.77585 0.03317 0.47835 0.0
H364 H 0.71292 0.93303 0.59619 0.0
O365 O 0.71978 0.95177 0.65844 0.0
H366 H 0.66574 0.9318 0.53785 0.0
H367 H 0.67129 0.94441 0.71324 0.0
H368 H 0.71132 0.99053 0.6352 0.0
H369 H 0.68633 0.95557 0.57343 0.0
H370 H 0.69062 0.94235 0.66795 0.0
O371 O 0.74517 0.96395 0.49936 0.0
H372 H 0.75599 0.01191 0.52286 0.0
H373 H 0.77458 0.98253 0.48996 0.0
H374 H 0.69214 0.99309 0.67984 0.0
H375 H 0.69256 0.90897 0.56115 0.0
H376 H 0.67194 0.96991 0.71924 0.0
H377 H 0.66879 0.90828 0.53156 0.0
O378 O 0.73405 0.98407 0.64024 0.0
H379 H 0.77068 0.94632 0.59633 0.0
H380 H 0.77971 0.00022 0.58455 0.0
H381 H 0.79952 0.99575 0.61994 0.0
H382 H 0.79507 0.96864 0.62597 0.0
H383 H 0.75112 0.9513 0.56149 0.0
H384 H 0.79456 0.00342 0.44479 0.0
H385 H 0.79532 0.02898 0.43893 0.0
O386 O 0.75206 0.99548 0.58881 0.0
C387 C 0.72022 0.98308 0.53292 0.0
C388 C 0.77568 0.02211 0.48079 0.0
C389 C 0.78617 0.0054 0.46191 0.0
N390 N 0.76425 0.99608 0.50937 0.0
C391 C 0.7645 0.01005 0.50605 0.0
C392 C 0.77482 0.99361 0.48747 0.0
C393 C 0.78659 0.01974 0.45864 0.0
C394 C 0.70253 0.93276 0.58379 0.0
N395 N 0.70078 0.94565 0.58705 0.0
C396 C 0.69108 0.91913 0.56382 0.0
C397 C 0.67775 0.91876 0.54716 0.0
C398 C 0.67604 0.93195 0.55065 0.0
C399 C 0.68775 0.94539 0.57076 0.0
C400 C 0.68001 0.95458 0.69613 0.0
C401 C 0.70249 0.98037 0.652 0.0
C402 C 0.691 0.95349 0.67049 0.0
N403 N 0.70197 0.96627 0.64861 0.0
C404 C 0.6917 0.9819 0.67734 0.0
C405 C 0.68038 0.9689 0.69948 0.0
C406 C 0.74646 0.99564 0.62506 0.0
C407 C 0.77278 0.95819 0.59377 0.0
C408 C 0.77767 0.98838 0.58711 0.0
C409 C 0.78895 0.98593 0.60711 0.0
C410 C 0.78645 0.97072 0.61046 0.0
N411 N 0.76431 0.97604 0.57078 0.0
C412 C 0.76178 0.96109 0.57392 0.0
Co413 Co 0.17101 0.82103 0.61209 0.0
Co414 Co 0.15559 0.83781 0.54579 0.0
O415 O 0.17266 0.83851 0.57896 0.0
C416 C 0.18123 0.84684 0.67303 0.0
O417 O 0.16978 0.84871 0.65825 0.0
C418 C 0.18137 0.84715 0.48503 0.0
O419 O 0.18277 0.8354 0.49953 0.0
O420 O 0.15111 0.81772 0.51863 0.0
O421 O 0.1585 0.80577 0.56666 0.0
H422 H 0.1011 0.81258 0.48455 0.0
H423 H 0.20232 0.84899 0.59682 0.0
O424 O 0.18345 0.83606 0.65825 0.0
H425 H 0.20502 0.80449 0.53399 0.0
H426 H 0.19203 0.79521 0.70902 0.0
H427 H 0.14554 0.78869 0.63146 0.0
H428 H 0.18092 0.80024 0.56985 0.0
H429 H 0.1936 0.81682 0.6657 0.0
O430 O 0.17085 0.84978 0.49982 0.0
H431 H 0.12264 0.81353 0.52706 0.0
H432 H 0.15271 0.86109 0.49183 0.0
H433 H 0.14347 0.76674 0.67411 0.0
H434 H 0.2267 0.85375 0.56152 0.0
H435 H 0.16684 0.76993 0.71326 0.0
H436 H 0.22813 0.8314 0.52966 0.0
O437 O 0.15119 0.81744 0.63893 0.0
H438 H 0.19045 0.89305 0.5971 0.0
H439 H 0.13588 0.84917 0.58754 0.0
H440 H 0.14132 0.87365 0.62348 0.0
H441 H 0.16877 0.89581 0.62841 0.0
H442 H 0.18449 0.86831 0.56174 0.0
H443 H 0.13154 0.86062 0.44864 0.0
H444 H 0.10549 0.83625 0.44496 0.0
O445 O 0.14008 0.82584 0.59115 0.0
C446 C 0.15203 0.80595 0.53182 0.0
C447 C 0.11238 0.82328 0.486 0.0
C448 C 0.12947 0.85024 0.4658 0.0
N449 N 0.13886 0.83738 0.51218 0.0
C450 C 0.1246 0.8239 0.51011 0.0
C451 C 0.14142 0.85042 0.49023 0.0
C452 C 0.11486 0.83656 0.46377 0.0
C453 C 0.20292 0.83919 0.58344 0.0
N454 N 0.19025 0.82435 0.58562 0.0
C455 C 0.21672 0.84196 0.56333 0.0
C456 C 0.21751 0.82942 0.5454 0.0
C457 C 0.20455 0.81432 0.54779 0.0
C458 C 0.19092 0.81199 0.56808 0.0
C459 C 0.18178 0.79366 0.692 0.0
C460 C 0.15579 0.79012 0.64814 0.0
C461 C 0.18259 0.80586 0.66748 0.0
N462 N 0.16972 0.80394 0.6457 0.0
C463 C 0.15453 0.77767 0.67236 0.0
C464 C 0.16764 0.77948 0.69436 0.0
C465 C 0.13982 0.81909 0.62583 0.0
C466 C 0.17843 0.8835 0.59505 0.0
C467 C 0.14785 0.85874 0.58963 0.0
C468 C 0.15086 0.87259 0.60994 0.0
C469 C 0.16627 0.88503 0.61267 0.0
N470 N 0.15985 0.85733 0.57241 0.0
C471 C 0.17498 0.86948 0.57491 0.0
Co472 Co 0.31429 0.41862 0.61339 0.0
Co473 Co 0.29789 0.3869 0.54573 0.0
O474 O 0.29684 0.40286 0.5799 0.0
C475 C 0.2884 0.40304 0.67408 0.0
O476 O 0.28654 0.38971 0.65951 0.0
C477 C 0.2873 0.40272 0.48649 0.0
O478 O 0.29897 0.41603 0.50057 0.0
O479 O 0.31748 0.40305 0.51795 0.0
O480 O 0.3297 0.42145 0.56821 0.0
H481 H 0.32429 0.35965 0.47945 0.0
H482 H 0.28644 0.42213 0.5976 0.0
O483 O 0.29919 0.41602 0.65923 0.0
H484 H 0.33126 0.46938 0.53619 0.0
H485 H 0.34013 0.46522 0.71117 0.0
H486 H 0.34659 0.42535 0.63328 0.0
H487 H 0.33531 0.44937 0.57182 0.0
H488 H 0.31853 0.44532 0.66736 0.0
O489 O 0.28514 0.38972 0.50104 0.0
H490 H 0.3229 0.37965 0.52347 0.0
H491 H 0.27461 0.36034 0.49266 0.0
H492 H 0.36855 0.44511 0.67642 0.0
H493 H 0.28187 0.4419 0.56254 0.0
H494 H 0.36538 0.46524 0.71573 0.0
H495 H 0.30438 0.46571 0.5314 0.0
O496 O 0.31764 0.40226 0.64021 0.0
H497 H 0.24275 0.36448 0.60021 0.0
H498 H 0.28801 0.35605 0.58691 0.0
H499 H 0.26412 0.33633 0.62373 0.0
H500 H 0.24127 0.34048 0.63054 0.0
H501 H 0.26692 0.38397 0.56394 0.0
H502 H 0.2755 0.34021 0.44801 0.0
H503 H 0.30046 0.33974 0.44135 0.0
O504 O 0.31069 0.38382 0.58972 0.0
C505 C 0.32939 0.41541 0.53223 0.0
C506 C 0.31333 0.35969 0.48223 0.0
C507 C 0.28595 0.34879 0.46454 0.0
N508 N 0.29865 0.37104 0.51099 0.0
C509 C 0.31246 0.37095 0.50723 0.0
C510 C 0.28552 0.36023 0.48982 0.0
C511 C 0.29996 0.34854 0.46083 0.0
C512 C 0.29631 0.43254 0.58453 0.0
N513 N 0.31113 0.43463 0.58696 0.0
C514 C 0.29365 0.44366 0.56455 0.0
C515 C 0.30628 0.457 0.54702 0.0
C516 C 0.32136 0.45906 0.54967 0.0
C517 C 0.32358 0.44768 0.56982 0.0
C518 C 0.34167 0.45654 0.69409 0.0
C519 C 0.34517 0.43415 0.65006 0.0
C520 C 0.32947 0.44524 0.6693 0.0
N521 N 0.33137 0.4343 0.64745 0.0
C522 C 0.35762 0.44527 0.67454 0.0
C523 C 0.35583 0.45655 0.69663 0.0
C524 C 0.31679 0.38978 0.62548 0.0
C525 C 0.25261 0.36251 0.59732 0.0
C526 C 0.27813 0.35795 0.58979 0.0
C527 C 0.26462 0.34673 0.61061 0.0
C528 C 0.2518 0.34906 0.61439 0.0
N529 N 0.27883 0.37111 0.5731 0.0
C530 C 0.2663 0.37347 0.57665 0.0
Co531 Co 0.7179 0.82078 0.11435 0.0
Co532 Co 0.74894 0.83756 0.04488 0.0
O533 O 0.73306 0.83831 0.08014 0.0
C534 C 0.73323 0.84705 0.17415 0.0
O535 O 0.74666 0.84922 0.15935 0.0
C536 C 0.73236 0.84778 0.98702 0.0
O537 O 0.71922 0.83593 0.00123 0.0
O538 O 0.73275 0.81789 0.01742 0.0
O539 O 0.71524 0.80535 0.06935 0.0
H540 H 0.77634 0.81191 0.97528 0.0
H541 H 0.71312 0.84784 0.0986 0.0
O542 O 0.72032 0.8359 0.15994 0.0
H543 H 0.66614 0.8018 0.03992 0.0
H544 H 0.6722 0.79418 0.2146 0.0
H545 H 0.71244 0.78899 0.13461 0.0
H546 H 0.68702 0.7988 0.07441 0.0
H547 H 0.69127 0.81587 0.16967 0.0
O548 O 0.74554 0.85016 0.00099 0.0
H549 H 0.75651 0.81293 0.02088 0.0
H550 H 0.77495 0.86109 0.99106 0.0
H551 H 0.69352 0.76697 0.17886 0.0
H552 H 0.69246 0.85134 0.06469 0.0
H553 H 0.67321 0.76949 0.21924 0.0
H554 H 0.66878 0.82822 0.03494 0.0
O555 O 0.73491 0.81825 0.14033 0.0
H556 H 0.77105 0.89252 0.10036 0.0
H557 H 0.78023 0.84786 0.08431 0.0
H558 H 0.80001 0.87185 0.12086 0.0
H559 H 0.79548 0.8944 0.12905 0.0
H560 H 0.75152 0.86827 0.06432 0.0
H561 H 0.79491 0.86057 0.94484 0.0
H562 H 0.79573 0.83586 0.93688 0.0
O563 O 0.75263 0.8249 0.08805 0.0
C564 C 0.72085 0.80579 0.03265 0.0
C565 C 0.77615 0.82276 0.97863 0.0
C566 C 0.78656 0.85007 0.9615 0.0
N567 N 0.76469 0.83709 0.00899 0.0
C568 C 0.76498 0.82342 0.00452 0.0
C569 C 0.77522 0.85029 0.98766 0.0
C570 C 0.78701 0.8362 0.95706 0.0
C571 C 0.70278 0.8377 0.08613 0.0
N572 N 0.70124 0.82312 0.08869 0.0
C573 C 0.69115 0.83976 0.06679 0.0
C574 C 0.67788 0.82679 0.05004 0.0
C575 C 0.67639 0.81196 0.0528 0.0
C576 C 0.68827 0.81034 0.07229 0.0
C577 C 0.68096 0.79293 0.19706 0.0
C578 C 0.70356 0.79013 0.15184 0.0
C579 C 0.6918 0.80517 0.17163 0.0
N580 N 0.70284 0.80362 0.14921 0.0
C581 C 0.69291 0.77764 0.17695 0.0
C582 C 0.68153 0.77907 0.19964 0.0
C583 C 0.74722 0.81907 0.12438 0.0
C584 C 0.77318 0.8828 0.09686 0.0
C585 C 0.77816 0.85761 0.0878 0.0
C586 C 0.78942 0.87118 0.10845 0.0
C587 C 0.78688 0.88383 0.11301 0.0
N588 N 0.76477 0.8567 0.07202 0.0
C589 C 0.7622 0.86906 0.07631 0.0
Co590 Co 0.31418 0.96479 0.1151 0.0
Co591 Co 0.29697 0.97914 0.04712 0.0
O592 O 0.29642 0.96256 0.08208 0.0
C593 C 0.28854 0.9546 0.17649 0.0
O594 O 0.28652 0.96595 0.16174 0.0
C595 C 0.28637 0.95229 0.98944 0.0
O596 O 0.29828 0.95101 0.00335 0.0
O597 O 0.31647 0.9826 0.01868 0.0
O598 O 0.32922 0.97714 0.06906 0.0
H599 H 0.32221 0.03211 0.97737 0.0
H600 H 0.28655 0.93311 0.1013 0.0
O601 O 0.2994 0.9525 0.16171 0.0
H602 H 0.33148 0.93094 0.03938 0.0
H603 H 0.34116 0.94545 0.21345 0.0
H604 H 0.34641 0.99081 0.13319 0.0
H605 H 0.33532 0.95516 0.07362 0.0
H606 H 0.31916 0.94304 0.17008 0.0
O607 O 0.28406 0.9631 0.00354 0.0
H608 H 0.32149 0.0113 0.02253 0.0
H609 H 0.27307 0.98156 -0.0054 0.0
H610 H 0.36876 0.99371 0.17585 0.0
H611 H 0.28221 0.90862 0.06769 0.0
H612 H 0.36621 0.97091 0.21635 0.0
H613 H 0.30477 0.90744 0.0363 0.0
O614 O 0.31738 0.98459 0.14088 0.0
H615 H 0.24236 0.94638 0.10499 0.0
H616 H 0.28698 0.00017 0.08756 0.0
H617 H 0.26326 0.99602 0.12545 0.0
H618 H 0.24074 0.96896 0.13436 0.0
H619 H 0.26635 0.95106 0.06758 0.0
H620 H 0.27329 0.00199 0.94884 0.0
H621 H 0.29798 0.02751 0.94015 0.0
O622 O 0.30996 0.99551 0.08997 0.0
C623 C 0.32858 0.98249 0.03278 0.0
C624 C 0.31137 0.02107 0.98104 0.0
C625 C 0.28391 0.00415 0.96498 0.0
N626 N 0.29721 0.99532 0.01156 0.0
C627 C 0.31087 0.00927 0.00669 0.0
C628 C 0.28386 0.99263 0.99088 0.0
C629 C 0.29777 0.01847 0.96013 0.0
C630 C 0.29645 0.93264 0.08812 0.0
N631 N 0.31118 0.94552 0.08963 0.0
C632 C 0.29391 0.91876 0.06895 0.0
C633 C 0.30657 0.91812 0.05129 0.0
C634 C 0.32156 0.9313 0.05298 0.0
C635 C 0.32366 0.94499 0.07233 0.0
C636 C 0.34243 0.95545 0.19584 0.0
C637 C 0.34526 0.98081 0.15047 0.0
C638 C 0.33001 0.95416 0.17129 0.0
N639 N 0.33157 0.96673 0.14877 0.0
C640 C 0.35793 0.98253 0.17469 0.0
C641 C 0.35648 0.96974 0.19745 0.0
C642 C 0.31633 0.99602 0.12556 0.0
C643 C 0.25208 0.95823 0.10118 0.0
C644 C 0.27723 0.98836 0.09133 0.0
C645 C 0.26382 0.98608 0.11276 0.0
C646 C 0.25119 0.9709 0.11772 0.0
N647 N 0.27801 0.97587 0.07519 0.0
C648 C 0.26566 0.96095 0.07986 0.0
Co649 Co 0.16921 0.41631 0.11454 0.0
Co650 Co 0.15492 0.38534 0.0446 0.0
O651 O 0.17149 0.40105 0.08045 0.0
C652 C 0.17952 0.40058 0.1749 0.0
O653 O 0.16827 0.38725 0.15956 0.0
C654 C 0.18196 0.40198 0.98776 0.0
O655 O 0.18321 0.41506 0.00235 0.0
O656 O 0.15162 0.40164 0.01724 0.0
O657 O 0.15686 0.41931 0.06899 0.0
H658 H 0.10202 0.35834 0.97369 0.0
H659 H 0.20095 0.42057 0.10022 0.0
O660 O 0.18152 0.41357 0.16069 0.0
H661 H 0.20301 0.46801 0.04148 0.0
H662 H 0.1884 0.46186 0.21553 0.0
H663 H 0.14309 0.42225 0.1336 0.0
H664 H 0.17879 0.44735 0.07497 0.0
H665 H 0.19091 0.44266 0.17079 0.0
O666 O 0.17107 0.38877 0.00109 0.0
H667 H 0.1228 0.37798 0.01999 0.0
H668 H 0.1525 0.35945 0.99023 0.0
H669 H 0.14009 0.4413 0.17764 0.0
H670 H 0.22545 0.44099 0.06731 0.0
H671 H 0.16286 0.46129 0.21899 0.0
H672 H 0.22657 0.4649 0.03752 0.0
O673 O 0.14943 0.39946 0.13967 0.0
H674 H 0.18741 0.36283 0.10042 0.0
H675 H 0.13368 0.35402 0.0831 0.0
H676 H 0.13765 0.33408 0.11941 0.0
H677 H 0.16467 0.33842 0.12825 0.0
H678 H 0.18292 0.38253 0.06459 0.0
H679 H 0.1321 0.33969 0.94332 0.0
H680 H 0.10662 0.33901 0.93497 0.0
O681 O 0.13847 0.38165 0.08744 0.0
C682 C 0.15168 0.41371 0.03227 0.0
C683 C 0.11305 0.35847 0.97721 0.0
C684 C 0.12994 0.34802 0.96011 0.0
N685 N 0.13877 0.36974 0.00815 0.0
C686 C 0.12483 0.36953 0.00349 0.0
C687 C 0.14145 0.35925 0.98666 0.0
C688 C 0.11564 0.34764 0.95545 0.0
C689 C 0.2014 0.43101 0.08773 0.0
N690 N 0.18848 0.4328 0.08972 0.0
C691 C 0.21528 0.44251 0.06896 0.0
C692 C 0.21589 0.4559 0.0522 0.0
C693 C 0.20267 0.45765 0.05438 0.0
C694 C 0.18898 0.4459 0.07331 0.0
C695 C 0.17841 0.45324 0.19756 0.0
C696 C 0.15308 0.43099 0.15126 0.0
C697 C 0.17975 0.44233 0.17223 0.0
N698 N 0.1672 0.43146 0.14927 0.0
C699 C 0.15129 0.44171 0.17625 0.0
C700 C 0.16407 0.45291 0.19948 0.0
C701 C 0.13798 0.38714 0.12364 0.0
C702 C 0.17557 0.36078 0.09664 0.0
C703 C 0.14548 0.35601 0.08687 0.0
C704 C 0.14765 0.34466 0.10739 0.0
C705 C 0.16282 0.3471 0.11231 0.0
N706 N 0.15805 0.36939 0.07156 0.0
C707 C 0.17295 0.37186 0.07621 0.0
Co708 Co 0.41543 0.31333 0.87487 0.0
Co709 Co 0.38442 0.29783 0.9446 0.0
O710 O 0.39992 0.29626 0.90968 0.0
C711 C 0.39935 0.2868 0.81605 0.0
O712 O 0.38608 0.28508 0.83073 0.0
C713 C 0.40041 0.28729 0.00343 0.0
O714 O 0.4137 0.29879 0.98878 0.0
O715 O 0.40106 0.31743 0.97127 0.0
O716 O 0.41869 0.3292 0.91914 0.0
H717 H 0.35859 0.32541 0.01221 0.0
H718 H 0.41905 0.28566 0.89206 0.0
O719 O 0.41242 0.29777 0.82999 0.0
H720 H 0.46698 0.33106 0.94922 0.0
H721 H 0.46114 0.33807 0.77415 0.0
H722 H 0.422 0.34539 0.85312 0.0
H723 H 0.4466 0.33474 0.91424 0.0
H724 H 0.44165 0.31698 0.8198 0.0
O725 O 0.38736 0.28518 0.98927 0.0
H726 H 0.37795 0.32334 0.96706 0.0
H727 H 0.3581 0.27519 -0.00078 0.0
H728 H 0.44135 0.36684 0.80813 0.0
H729 H 0.4392 0.28146 0.92648 0.0
H730 H 0.46111 0.36324 0.76826 0.0
H731 H 0.46335 0.30426 0.95546 0.0
O732 O 0.39882 0.31641 0.84844 0.0
H733 H 0.36061 0.24234 0.89185 0.0
H734 H 0.35329 0.28825 0.90511 0.0
H735 H 0.33295 0.26433 0.86955 0.0
H736 H 0.33654 0.24115 0.86276 0.0
H737 H 0.38072 0.26654 0.92688 0.0
H738 H 0.33861 0.27676 0.045 0.0
H739 H 0.33874 0.302 0.05156 0.0
O740 O 0.38122 0.31056 0.90065 0.0
C741 C 0.41321 0.3292 0.95571 0.0
C742 C 0.35837 0.31433 0.00947 0.0
C743 C 0.34717 0.28703 0.02792 0.0
N744 N 0.36903 0.29912 0.98014 0.0
C745 C 0.36927 0.31308 0.98384 0.0
C746 C 0.35825 0.28622 0.002 0.0
C747 C 0.34725 0.3012 0.03157 0.0
C748 C 0.4296 0.29566 0.9042 0.0
N749 N 0.43168 0.31043 0.90094 0.0
C750 C 0.44094 0.2932 0.92383 0.0
C751 C 0.45447 0.30599 0.94014 0.0
C752 C 0.45652 0.32103 0.93668 0.0
C753 C 0.44492 0.32304 0.91692 0.0
C754 C 0.45262 0.33979 0.79146 0.0
C755 C 0.43064 0.34379 0.83612 0.0
C756 C 0.44155 0.32789 0.8173 0.0
N757 N 0.43082 0.33003 0.83944 0.0
C758 C 0.44153 0.35595 0.81058 0.0
C759 C 0.4526 0.35392 0.78818 0.0
C760 C 0.38672 0.31611 0.86416 0.0
C761 C 0.35889 0.25234 0.89474 0.0
C762 C 0.35496 0.27822 0.90223 0.0
C763 C 0.34338 0.2647 0.88213 0.0
C764 C 0.3454 0.25169 0.87836 0.0
N765 N 0.36815 0.27876 0.91824 0.0
C766 C 0.3702 0.26605 0.91471 0.0
Co767 Co 0.83651 0.15496 0.94581 0.0
Co768 Co 0.82091 0.17037 0.87592 0.0
O769 O 0.83801 0.17201 0.91098 0.0
C770 C 0.84674 0.18139 0.00487 0.0
O771 O 0.83519 0.18307 0.98989 0.0
C772 C 0.84752 0.18095 0.81738 0.0
O773 O 0.84931 0.16947 0.8322 0.0
O774 O 0.81795 0.15076 0.84941 0.0
O775 O 0.82398 0.13907 0.90145 0.0
H776 H 0.76742 0.14265 0.80837 0.0
H777 H 0.86775 0.18276 0.92893 0.0
O778 O 0.84897 0.17052 0.99085 0.0
H779 H 0.87059 0.1376 0.87159 0.0
H780 H 0.85768 0.13041 0.04668 0.0
H781 H 0.81112 0.12283 0.96741 0.0
H782 H 0.84646 0.13372 0.90651 0.0
H783 H 0.85917 0.15146 0.00104 0.0
O784 O 0.83651 0.183 0.83123 0.0
H785 H 0.78889 0.14482 0.85364 0.0
H786 H 0.81721 0.19291 0.82087 0.0
H787 H 0.80913 0.10142 0.01238 0.0
H788 H 0.89215 0.18715 0.89456 0.0
H789 H 0.83254 0.10515 0.0524 0.0
H790 H 0.89365 0.16447 0.86547 0.0
O791 O 0.81675 0.15175 0.97204 0.0
H792 H 0.8526 0.22594 0.92815 0.0
H793 H 0.79935 0.17996 0.91505 0.0
H794 H 0.80292 0.20392 0.95022 0.0
H795 H 0.8297 0.22714 0.95691 0.0
H796 H 0.84852 0.2017 0.89351 0.0
H797 H 0.7961 0.19124 0.77495 0.0
H798 H 0.77096 0.16599 0.76864 0.0
O799 O 0.805 0.15768 0.91993 0.0
C800 C 0.81842 0.13903 0.86492 0.0
C801 C 0.77829 0.15374 0.811 0.0
C802 C 0.7944 0.18101 0.7922 0.0
N803 N 0.80421 0.16901 0.84025 0.0
C804 C 0.79047 0.15505 0.83669 0.0
C805 C 0.80631 0.18187 0.81819 0.0
C806 C 0.78029 0.16683 0.78868 0.0
C807 C 0.86837 0.17282 0.91675 0.0
N808 N 0.85573 0.158 0.91992 0.0
C809 C 0.8822 0.17538 0.89715 0.0
C810 C 0.88302 0.16265 0.88078 0.0
C811 C 0.87008 0.14757 0.88418 0.0
C812 C 0.85644 0.14545 0.90391 0.0
C813 C 0.84741 0.12863 0.0293 0.0
C814 C 0.82138 0.12449 0.98448 0.0
C815 C 0.84818 0.14051 0.00347 0.0
N816 N 0.83528 0.1383 0.98125 0.0
C817 C 0.82017 0.11235 0.01001 0.0
C818 C 0.8333 0.11446 0.03249 0.0
C819 C 0.80497 0.15211 0.95639 0.0
C820 C 0.84087 0.21592 0.9253 0.0
C821 C 0.81105 0.19 0.9179 0.0
C822 C 0.81299 0.20355 0.93778 0.0
C823 C 0.82802 0.21658 0.9415 0.0
N824 N 0.82371 0.18946 0.90206 0.0
C825 C 0.83848 0.20219 0.90555 0.0
Co826 Co 0.96429 0.71876 0.87589 0.0
Co827 Co 0.98001 0.75052 0.94364 0.0
O828 O 0.96281 0.73449 0.91005 0.0
C829 C 0.95376 0.73455 0.81638 0.0
O830 O 0.96527 0.74786 0.83102 0.0
C831 C 0.95419 0.73418 0.00433 0.0
O832 O 0.95264 0.72101 0.98945 0.0
O833 O 0.9841 0.73455 0.96999 0.0
O834 O 0.97695 0.71576 0.92037 0.0
H835 H 0.03445 0.77859 0.00544 0.0
H836 H 0.93307 0.71543 0.89284 0.0
O837 O 0.95168 0.72155 0.83066 0.0
H838 H 0.93049 0.66788 0.95255 0.0
H839 H 0.9429 0.67241 0.77709 0.0
H840 H 0.98966 0.71193 0.85458 0.0
H841 H 0.95449 0.68787 0.91667 0.0
H842 H 0.94149 0.69222 0.8219 0.0
O843 O 0.96479 0.7473 0.98972 0.0
H844 H 0.01278 0.75849 0.96224 0.0
H845 H 0.98334 0.77662 -0.00125 0.0
H846 H 0.99157 0.69226 0.8104 0.0
H847 H 0.9088 0.69568 0.92819 0.0
H848 H 0.96807 0.67231 0.77128 0.0
H849 H 0.90742 0.67173 0.95847 0.0
O850 O 0.984 0.73507 0.84894 0.0
H851 H 0.94599 0.77214 0.89399 0.0
H852 H 0.00019 0.78167 0.90296 0.0
H853 H 0.99524 0.80122 0.86811 0.0
H854 H 0.96797 0.79651 0.86348 0.0
H855 H 0.95145 0.75284 0.92828 0.0
H856 H 0.00465 0.79684 0.04264 0.0
H857 H 0.03045 0.79794 0.04603 0.0
O858 O 0.99549 0.754 0.89817 0.0
C859 C 0.98326 0.72201 0.95571 0.0
C860 C 0.02328 0.77826 0.00411 0.0
C861 C 0.00655 0.78849 0.02504 0.0
N862 N 0.99686 0.76647 0.97772 0.0
C863 C 0.01098 0.76693 0.97962 0.0
C864 C 0.99451 0.777 0.00021 0.0
C865 C 0.02102 0.7891 0.02691 0.0
C866 C 0.9325 0.70496 0.90554 0.0
N867 N 0.94515 0.70277 0.90247 0.0
C868 C 0.91875 0.69385 0.92569 0.0
C869 C 0.918 0.68042 0.94273 0.0
C870 C 0.93094 0.67826 0.93944 0.0
C871 C 0.94451 0.68964 0.91915 0.0
C872 C 0.95321 0.68101 0.79409 0.0
C873 C 0.97936 0.7032 0.83792 0.0
C874 C 0.95249 0.69226 0.81946 0.0
N875 N 0.96544 0.7031 0.8412 0.0
C876 C 0.98052 0.69214 0.81283 0.0
C877 C 0.96733 0.68096 0.79085 0.0
C878 C 0.99557 0.7478 0.86278 0.0
C879 C 0.95792 0.77435 0.89592 0.0
C880 C 0.98829 0.77952 0.901 0.0
C881 C 0.98556 0.79065 0.8813 0.0
C882 C 0.97026 0.788 0.87874 0.0
N883 N 0.97613 0.76616 0.91779 0.0
C884 C 0.9611 0.76349 0.91545 0.0
Co885 Co 0.38581 0.15468 0.44557 0.0
Co886 Co 0.41692 0.17149 0.3763 0.0
O887 O 0.4011 0.17227 0.41178 0.0
C888 C 0.40129 0.18065 0.50628 0.0
O889 O 0.41469 0.1828 0.49134 0.0
C890 C 0.40053 0.18207 0.31896 0.0
O891 O 0.38735 0.17025 0.33305 0.0
O892 O 0.40065 0.15196 0.3484 0.0
O893 O 0.38304 0.1394 0.40008 0.0
H894 H 0.44402 0.14572 0.30563 0.0
H895 H 0.38137 0.18201 0.43094 0.0
O896 O 0.38834 0.16966 0.4917 0.0
H897 H 0.33418 0.1365 0.37116 0.0
H898 H 0.33995 0.12801 0.54531 0.0
H899 H 0.38004 0.12272 0.46484 0.0
H900 H 0.35489 0.1331 0.40519 0.0
H901 H 0.35921 0.1498 0.50099 0.0
O902 O 0.41367 0.18432 0.33283 0.0
H903 H 0.42426 0.14677 0.35149 0.0
H904 H 0.44305 0.19508 0.3229 0.0
H905 H 0.36093 0.10059 0.50845 0.0
H906 H 0.36088 0.18591 0.39752 0.0
H907 H 0.3407 0.10316 0.54906 0.0
H908 H 0.3371 0.16305 0.36721 0.0
O909 O 0.40269 0.15187 0.47123 0.0
H910 H 0.43938 0.2263 0.43329 0.0
H911 H 0.44814 0.18142 0.41569 0.0
H912 H 0.46801 0.20519 0.45281 0.0
H913 H 0.46369 0.22785 0.4618 0.0
H914 H 0.41975 0.20225 0.39666 0.0
H915 H 0.46294 0.19454 0.27644 0.0
H916 H 0.46355 0.16974 0.26772 0.0
O917 O 0.42045 0.1586 0.41905 0.0
C918 C 0.38866 0.13988 0.36338 0.0
C919 C 0.44392 0.15661 0.30931 0.0
C920 C 0.45452 0.18401 0.29288 0.0
N921 N 0.43262 0.171 0.34022 0.0
C922 C 0.43279 0.15729 0.33535 0.0
C923 C 0.44322 0.18424 0.31917 0.0
C924 C 0.45486 0.17009 0.28801 0.0
C925 C 0.37098 0.17198 0.41822 0.0
N926 N 0.36929 0.15733 0.42022 0.0
C927 C 0.35945 0.17427 0.39916 0.0
C928 C 0.34612 0.16145 0.38211 0.0
C929 C 0.34448 0.14654 0.38428 0.0
C930 C 0.35626 0.1447 0.40351 0.0
C931 C 0.34868 0.12673 0.52765 0.0
C932 C 0.37119 0.12388 0.48217 0.0
C933 C 0.35962 0.13903 0.50257 0.0
N934 N 0.37062 0.13746 0.48 0.0
C935 C 0.36044 0.11133 0.50692 0.0
C936 C 0.3491 0.11279 0.52974 0.0
C937 C 0.41497 0.15266 0.45523 0.0
C938 C 0.44142 0.21652 0.42945 0.0
C939 C 0.44616 0.19122 0.41951 0.0
C940 C 0.45747 0.20466 0.4405 0.0
C941 C 0.45505 0.21738 0.4455 0.0
N942 N 0.43283 0.19048 0.40384 0.0
C943 C 0.43038 0.2029 0.40856 0.0
Co944 Co 0.96381 0.3137 0.37805 0.0
Co945 Co 0.97986 0.29824 0.44637 0.0
O946 O 0.9625 0.29669 0.41269 0.0
C947 C 0.95289 0.28707 0.31942 0.0
O948 O 0.9645 0.28536 0.33366 0.0
C949 C 0.95388 0.28815 0.50681 0.0
O950 O 0.95211 0.29968 0.49225 0.0
O951 O 0.98335 0.31806 0.47286 0.0
O952 O 0.97682 0.32967 0.42174 0.0
H953 H 0.03406 0.32568 0.50974 0.0
H954 H 0.93264 0.28607 0.3968 0.0
O955 O 0.95086 0.29804 0.33368 0.0
H956 H 0.9307 0.33157 0.45527 0.0
H957 H 0.94196 0.33822 0.27933 0.0
H958 H 0.98913 0.3457 0.35512 0.0
H959 H 0.95442 0.33519 0.41852 0.0
H960 H 0.94075 0.31722 0.32463 0.0
O961 O 0.96467 0.28591 0.49216 0.0
H962 H 0.01223 0.32362 0.46628 0.0
H963 H 0.98381 0.27572 0.50082 0.0
H964 H 0.99084 0.36706 0.31045 0.0
H965 H 0.90864 0.28193 0.43303 0.0
H966 H 0.96713 0.36338 0.27218 0.0
H967 H 0.90759 0.30478 0.46269 0.0
O968 O 0.98326 0.3167 0.35035 0.0
H969 H 0.9471 0.24253 0.39605 0.0
H970 H 0.00072 0.28815 0.40536 0.0
H971 H 0.99648 0.26394 0.37016 0.0
H972 H 0.96951 0.24091 0.36537 0.0
H973 H 0.95184 0.26701 0.43067 0.0
H974 H 0.00529 0.27729 0.54496 0.0
H975 H 0.03065 0.30239 0.54946 0.0
O976 O 0.99535 0.31062 0.4012 0.0
C977 C 0.98279 0.32978 0.4577 0.0
C978 C 0.02308 0.31466 0.5079 0.0
C979 C 0.00693 0.28751 0.52771 0.0
N980 N 0.99684 0.29953 0.48066 0.0
C981 C 0.01071 0.31341 0.48323 0.0
C982 C 0.99481 0.2867 0.50273 0.0
C983 C 0.02116 0.30159 0.53021 0.0
C984 C 0.93221 0.29609 0.40922 0.0
N985 N 0.94488 0.31086 0.40535 0.0
C986 C 0.91861 0.29367 0.42987 0.0
C987 C 0.91804 0.30649 0.44657 0.0
C988 C 0.93101 0.32152 0.44244 0.0
C989 C 0.94442 0.3235 0.42167 0.0
C990 C 0.95236 0.33998 0.29594 0.0
C991 C 0.97874 0.34406 0.33881 0.0
C992 C 0.95175 0.32813 0.32158 0.0
N993 N 0.96482 0.33031 0.34284 0.0
C994 C 0.97979 0.35617 0.31345 0.0
C995 C 0.96648 0.3541 0.29195 0.0
C996 C 0.99509 0.31616 0.36491 0.0
C997 C 0.95891 0.25247 0.39806 0.0
C998 C 0.98894 0.27819 0.40334 0.0
C999 C 0.98662 0.2645 0.38345 0.0
C1000 C 0.97149 0.25158 0.38079 0.0
N1001 N 0.97655 0.27897 0.42024 0.0
C1002 C 0.96168 0.26634 0.4178 0.0
Co1003 Co 0.8362 0.74883 0.44379 0.0
Co1004 Co 0.82074 0.71754 0.37478 0.0
O1005 O 0.83777 0.73316 0.40967 0.0
C1006 C 0.8465 0.73296 0.50374 0.0
O1007 O 0.83499 0.71966 0.4891 0.0
C1008 C 0.84738 0.73344 0.31645 0.0
O1009 O 0.84903 0.7467 0.33091 0.0
O1010 O 0.81769 0.73403 0.34751 0.0
O1011 O 0.82368 0.75196 0.39898 0.0
H1012 H 0.76728 0.6913 0.30698 0.0
H1013 H 0.8675 0.75226 0.42761 0.0
O1014 O 0.84867 0.74597 0.48927 0.0
H1015 H 0.87022 0.79992 0.36825 0.0
H1016 H 0.85718 0.79499 0.54316 0.0
H1017 H 0.81072 0.75557 0.46444 0.0
H1018 H 0.8461 0.77981 0.40341 0.0
H1019 H 0.85877 0.77525 0.49848 0.0
O1020 O 0.83641 0.72039 0.33038 0.0
H1021 H 0.78867 0.71085 0.35197 0.0
H1022 H 0.81721 0.69114 0.32069 0.0
H1023 H 0.80863 0.77518 0.50845 0.0
H1024 H 0.8919 0.77213 0.39301 0.0
H1025 H 0.83199 0.79507 0.54819 0.0
H1026 H 0.89334 0.79614 0.3629 0.0
O1027 O 0.81645 0.73238 0.47018 0.0
H1028 H 0.85258 0.69407 0.42889 0.0
H1029 H 0.79925 0.68657 0.41463 0.0
H1030 H 0.8029 0.6664 0.45081 0.0
H1031 H 0.82973 0.67009 0.4581 0.0
H1032 H 0.84842 0.71401 0.39323 0.0
H1033 H 0.79618 0.67145 0.27508 0.0
H1034 H 0.77097 0.67141 0.26816 0.0
O1035 O 0.80476 0.71445 0.41853 0.0
C1036 C 0.81814 0.74628 0.36256 0.0
C1037 C 0.77818 0.69115 0.30988 0.0
C1038 C 0.79441 0.68003 0.29192 0.0
N1039 N 0.8041 0.70202 0.3393 0.0
C1040 C 0.79032 0.70216 0.33541 0.0
C1041 C 0.80629 0.69122 0.31774 0.0
C1042 C 0.78027 0.68001 0.28807 0.0
C1043 C 0.8681 0.76276 0.415 0.0
N1044 N 0.85542 0.76491 0.41774 0.0
C1045 C 0.88192 0.77393 0.39527 0.0
C1046 C 0.88271 0.78739 0.37832 0.0
C1047 C 0.86974 0.78951 0.38128 0.0
C1048 C 0.8561 0.77807 0.40116 0.0
C1049 C 0.84694 0.78641 0.52591 0.0
C1050 C 0.82096 0.76427 0.4814 0.0
C1051 C 0.84776 0.77519 0.50062 0.0
N1052 N 0.83489 0.76439 0.47854 0.0
C1053 C 0.81969 0.7753 0.50638 0.0
C1054 C 0.8328 0.78645 0.52871 0.0
C1055 C 0.8047 0.72016 0.45475 0.0
C1056 C 0.84083 0.69231 0.42578 0.0
C1057 C 0.81096 0.68827 0.41773 0.0
C1058 C 0.81295 0.67679 0.43818 0.0
C1059 C 0.82801 0.67887 0.44223 0.0
N1060 N 0.8236 0.70142 0.40165 0.0
C1061 C 0.83839 0.70352 0.40546 0.0
C1062 C 0.05489 0.52361 0.88801 0.0
C1063 C 0.06913 0.52595 0.87112 0.0
C1064 C 0.05483 0.53372 0.91891 0.0
C1065 C 0.07886 0.57351 0.96244 0.0
H1066 H 0.05025 0.55658 0.05751 0.0
C1067 C 0.08148 0.61172 0.10392 0.0
C1068 C 0.0671 0.60934 0.1199 0.0
C1069 C 0.0818 0.60149 0.07386 0.0
C1070 C 0.05818 0.56149 0.03091 0.0
H1071 H 0.09451 0.54073 0.87345 0.0
H1072 H 0.0944 0.55833 0.92779 0.0
H1073 H 0.05088 0.53879 0.00479 0.0
H1074 H 0.04177 0.59431 0.11699 0.0
H1075 H 0.04233 0.5765 0.06413 0.0
H1076 H 0.08615 0.59622 0.9885 0.0
C1077 C 0.08327 0.54874 0.91677 0.0
C1078 C 0.05855 0.55131 0.00074 0.0
C1079 C 0.08333 0.53861 0.88585 0.0
C1080 C 0.05304 0.59648 0.10526 0.0
C1081 C 0.05336 0.58622 0.0752 0.0
C1082 C 0.07849 0.58369 0.99261 0.0
C1083 C 0.06901 0.5464 0.93361 0.0
C1084 C 0.06887 0.55721 0.96612 0.0
C1085 C 0.06775 0.58863 0.05914 0.0
C1086 C 0.06813 0.5778 0.02713 0.0
H1087 H 0.04372 0.514 0.87727 0.0
H1088 H 0.04365 0.53173 0.93082 0.0
H1089 H 0.08677 0.57842 0.93578 0.0
H1090 H 0.09255 0.62149 0.11465 0.0
H1091 H 0.09307 0.60354 0.06253 0.0
C1092 C 0.59702 0.61232 0.88584 0.0
C1093 C 0.60964 0.61072 0.87106 0.0
C1094 C 0.5868 0.60206 0.91645 0.0
C1095 C 0.58389 0.57442 -0.00032 0.0
H1096 H 0.539 0.5575 0.98684 0.0
C1097 C 0.5383 0.52399 0.10388 0.0
C1098 C 0.52552 0.52537 0.11836 0.0
C1099 C 0.54863 0.53447 0.0738 0.0
C1100 C 0.55152 0.56225 0.99111 0.0
H1101 H 0.62142 0.5971 0.87681 0.0
H1102 H 0.60355 0.57919 0.92987 0.0
H1103 H 0.55697 0.57592 0.93452 0.0
H1104 H 0.5136 0.53886 0.11277 0.0
H1105 H 0.53167 0.55716 0.06067 0.0
H1106 H 0.57844 0.56074 0.05626 0.0
C1107 C 0.60166 0.58847 0.91822 0.0
C1108 C 0.56181 0.57281 0.96117 0.0
C1109 C 0.61185 0.59869 0.8876 0.0
C1110 C 0.52329 0.53743 0.10217 0.0
C1111 C 0.5336 0.54787 0.07211 0.0
C1112 C 0.57361 0.56386 0.02963 0.0
C1113 C 0.58901 0.59002 0.93294 0.0
C1114 C 0.5781 0.579 0.9651 0.0
C1115 C 0.54637 0.54651 0.05758 0.0
C1116 C 0.55731 0.55766 0.02566 0.0
H1117 H 0.595 0.62146 0.8737 0.0
H1118 H 0.57726 0.60364 0.92751 0.0
H1119 H 0.59641 0.57916 0.0039 0.0
H1120 H 0.54034 0.51483 0.11577 0.0
H1121 H 0.55827 0.53302 0.06288 0.0
C1122 C 0.61018 0.08173 0.1049 0.0
C1123 C 0.60885 0.0676 0.11923 0.0
C1124 C 0.5996 0.08156 0.07503 0.0
C1125 C 0.56013 0.056 0.03019 0.0
H1126 H 0.57552 0.0859 0.93781 0.0
C1127 C 0.52128 0.05216 0.888 0.0
C1128 C 0.52286 0.06637 0.87342 0.0
C1129 C 0.53161 0.05219 0.9185 0.0
C1130 C 0.57102 0.07758 0.96368 0.0
H1131 H 0.59542 0.0422 0.11343 0.0
H1132 H 0.57711 0.04195 0.06108 0.0
H1133 H 0.59396 0.08631 0.99016 0.0
H1134 H 0.53636 0.09175 0.87979 0.0
H1135 H 0.5542 0.09176 0.93317 0.0
H1136 H 0.53718 0.04727 0.00365 0.0
C1137 C 0.58618 0.05314 0.07329 0.0
C1138 C 0.58158 0.07782 -0.00634 0.0
C1139 C 0.59675 0.05331 0.1031 0.0
C1140 C 0.53486 0.08059 0.8902 0.0
C1141 C 0.54516 0.08061 0.92063 0.0
C1142 C 0.54956 0.05575 0.00019 0.0
C1143 C 0.58748 0.06726 0.05895 0.0
C1144 C 0.57625 0.06704 0.02724 0.0
C1145 C 0.54371 0.06643 0.93494 0.0
C1146 C 0.5549 0.06656 0.96666 0.0
H1147 H 0.61931 0.09294 0.1169 0.0
H1148 H 0.60078 0.09263 0.06495 0.0
H1149 H 0.55564 0.04767 0.05605 0.0
H1150 H 0.51219 0.04102 0.87554 0.0
H1151 H 0.5303 0.04108 0.92862 0.0
C1152 C 0.59703 0.0529 0.38634 0.0
C1153 C 0.60943 0.06719 0.37135 0.0
C1154 C 0.58677 0.05278 0.4171 0.0
C1155 C 0.5723 0.07763 0.46328 0.0
H1156 H 0.55913 0.04801 0.5562 0.0
C1157 C 0.53789 0.08124 0.60644 0.0
C1158 C 0.52532 0.06701 0.62113 0.0
C1159 C 0.54826 0.08125 0.5762 0.0
C1160 C 0.56258 0.05624 0.53021 0.0
H1161 H 0.62085 0.09256 0.37702 0.0
H1162 H 0.60305 0.09231 0.43085 0.0
H1163 H 0.57695 0.04791 0.50266 0.0
H1164 H 0.51377 0.04162 0.61576 0.0
H1165 H 0.53176 0.04167 0.56279 0.0
H1166 H 0.55794 0.08597 0.49079 0.0
C1167 C 0.60113 0.08121 0.41848 0.0
C1168 C 0.57277 0.05617 0.49954 0.0
C1169 C 0.61138 0.08134 0.38779 0.0
C1170 C 0.52336 0.0528 0.60514 0.0
C1171 C 0.53372 0.05281 0.57496 0.0
C1172 C 0.56212 0.0777 0.49394 0.0
C1173 C 0.58869 0.06694 0.4334 0.0
C1174 C 0.57775 0.06688 0.46578 0.0
C1175 C 0.54626 0.06703 0.56011 0.0
C1176 C 0.55716 0.06701 0.52773 0.0
H1177 H 0.59518 0.0418 0.37415 0.0
H1178 H 0.57718 0.04159 0.42765 0.0
H1179 H 0.57573 0.08586 0.43728 0.0
H1180 H 0.53978 0.09238 0.61833 0.0
H1181 H 0.55794 0.09239 0.56576 0.0
C1182 C 0.08176 0.61279 0.38674 0.0
C1183 C 0.06745 0.61103 0.37207 0.0
C1184 C 0.08188 0.60261 0.41734 0.0
C1185 C 0.05748 0.57485 0.50067 0.0
H1186 H 0.0857 0.55829 0.4871 0.0
C1187 C 0.05342 0.52463 0.60441 0.0
C1188 C 0.06769 0.5262 0.61866 0.0
C1189 C 0.05336 0.53504 0.57443 0.0
C1190 C 0.07787 0.56295 0.49157 0.0
H1191 H 0.04206 0.59722 0.37806 0.0
H1192 H 0.0423 0.57943 0.4311 0.0
H1193 H 0.08585 0.57663 0.43498 0.0
H1194 H 0.09309 0.53995 0.61278 0.0
H1195 H 0.09296 0.55812 0.56085 0.0
H1196 H 0.04948 0.56115 0.55725 0.0
C1197 C 0.05342 0.58879 0.41936 0.0
C1198 C 0.07797 0.57346 0.46174 0.0
C1199 C 0.05329 0.59893 0.38876 0.0
C1200 C 0.08188 0.53837 0.60235 0.0
C1201 C 0.08181 0.54875 0.57239 0.0
C1202 C 0.05738 0.56434 0.53051 0.0
C1203 C 0.0677 0.59048 0.43392 0.0
C1204 C 0.06777 0.57951 0.46595 0.0
C1205 C 0.06756 0.5472 0.55808 0.0
C1206 C 0.06757 0.55827 0.52627 0.0
H1207 H 0.09287 0.62199 0.37449 0.0
H1208 H 0.09308 0.60431 0.42828 0.0
H1209 H 0.04963 0.57949 0.50508 0.0
H1210 H 0.04229 0.51539 0.61641 0.0
H1211 H 0.04218 0.53346 0.56368 0.0
C1212 C 0.59684 0.61187 0.60225 0.0
C1213 C 0.60899 0.60977 0.61847 0.0
C1214 C 0.58647 0.60156 0.57197 0.0
C1215 C 0.58253 0.57276 0.49139 0.0
H1216 H 0.53799 0.55843 0.50046 0.0
C1217 C 0.53633 0.52317 0.38694 0.0
C1218 C 0.52416 0.52517 0.37034 0.0
C1219 C 0.54659 0.53355 0.41727 0.0
C1220 C 0.55041 0.56247 0.49724 0.0
H1221 H 0.61975 0.59515 0.6158 0.0
H1222 H 0.60154 0.57707 0.56305 0.0
H1223 H 0.55614 0.57638 0.55351 0.0
H1224 H 0.51323 0.53963 0.37251 0.0
H1225 H 0.53126 0.55784 0.4254 0.0
H1226 H 0.57681 0.55886 0.43515 0.0
C1227 C 0.60017 0.58682 0.57342 0.0
C1228 C 0.5608 0.57274 0.52762 0.0
C1229 C 0.61056 0.59714 0.60376 0.0
C1230 C 0.52244 0.53773 0.38483 0.0
C1231 C 0.53272 0.54812 0.41524 0.0
C1232 C 0.57214 0.5625 0.46103 0.0
C1233 C 0.58801 0.58892 0.55723 0.0
C1234 C 0.57697 0.57798 0.52504 0.0
C1235 C 0.54494 0.54616 0.43167 0.0
C1236 C 0.55597 0.55722 0.46367 0.0
H1237 H 0.59533 0.62151 0.61285 0.0
H1238 H 0.57735 0.6036 0.55971 0.0
H1239 H 0.59495 0.5768 0.48817 0.0
H1240 H 0.53795 0.51358 0.37655 0.0
H1241 H 0.55574 0.53159 0.42977 0.0
C1242 C 0.74704 0.87076 0.2207 0.0
C1243 C 0.73299 0.85779 0.20641 0.0
C1244 C 0.74672 0.88106 0.25058 0.0
C1245 C 0.7217 0.8839 0.33302 0.0
H1246 H 0.74916 0.92874 0.31866 0.0
C1247 C 0.71739 0.92975 0.43806 0.0
C1248 C 0.73171 0.94239 0.45227 0.0
C1249 C 0.71725 0.91941 0.40745 0.0
C1250 C 0.74152 0.91625 0.3233 0.0
H1251 H 0.70756 0.84545 0.21229 0.0
H1252 H 0.70702 0.86349 0.26411 0.0
H1253 H 0.74964 0.91064 0.26676 0.0
H1254 H 0.75708 0.95412 0.44551 0.0
H1255 H 0.7568 0.93606 0.39249 0.0
H1256 H 0.7136 0.88952 0.38962 0.0
C1257 C 0.71829 0.86559 0.25262 0.0
C1258 C 0.74182 0.90589 0.29361 0.0
C1259 C 0.71861 0.85531 0.22274 0.0
C1260 C 0.74584 0.94452 0.43517 0.0
C1261 C 0.74569 0.93423 0.40457 0.0
C1262 C 0.7214 0.89427 0.3627 0.0
C1263 C 0.73233 0.8786 0.2668 0.0
C1264 C 0.73195 0.8896 0.29823 0.0
C1265 C 0.7314 0.92155 0.3904 0.0
C1266 C 0.73136 0.91055 0.35825 0.0
H1267 H 0.75831 0.873 0.20871 0.0
H1268 H 0.75774 0.89088 0.26128 0.0
H1269 H 0.7141 0.87141 0.33773 0.0
H1270 H 0.7063 0.92779 0.45065 0.0
H1271 H 0.70605 0.90982 0.39684 0.0
C1272 C 0.20484 0.85597 0.43812 0.0
C1273 C 0.19226 0.85772 0.4524 0.0
C1274 C 0.2153 0.86625 0.40793 0.0
C1275 C 0.21899 0.89427 0.32498 0.0
H1276 H 0.26377 0.91109 0.34021 0.0
C1277 C 0.26506 0.94517 0.22358 0.0
C1278 C 0.27784 0.94381 0.20907 0.0
C1279 C 0.2547 0.93464 0.25348 0.0
C1280 C 0.25129 0.90637 0.3353 0.0
H1281 H 0.18075 0.87158 0.44616 0.0
H1282 H 0.19903 0.88951 0.39385 0.0
H1283 H 0.24539 0.89237 0.39138 0.0
H1284 H 0.28983 0.93039 0.2147 0.0
H1285 H 0.2717 0.91199 0.26657 0.0
H1286 H 0.22488 0.90826 0.26895 0.0
C1287 C 0.20072 0.88011 0.40556 0.0
C1288 C 0.24077 0.89564 0.36456 0.0
C1289 C 0.1903 0.86988 0.43574 0.0
C1290 C 0.28012 0.93179 0.22532 0.0
C1291 C 0.26978 0.92129 0.25522 0.0
C1292 C 0.22951 0.90499 0.29573 0.0
C1293 C 0.21335 0.87844 0.39139 0.0
C1294 C 0.22451 0.88952 0.35978 0.0
C1295 C 0.25692 0.92255 0.26949 0.0
C1296 C 0.24577 0.91119 0.30063 0.0
H1297 H 0.20668 0.84673 0.45039 0.0
H1298 H 0.22484 0.86459 0.39728 0.0
H1299 H 0.20651 0.88957 0.32011 0.0
H1300 H 0.26298 0.9543 0.21167 0.0
H1301 H 0.24501 0.93603 0.26427 0.0
C1302 C 0.27779 0.41682 0.43976 0.0
C1303 C 0.2764 0.40268 0.45424 0.0
C1304 C 0.2673 0.41666 0.40959 0.0
C1305 C 0.23954 0.39182 0.32668 0.0
H1306 H 0.22204 0.41922 0.34057 0.0
C1307 C 0.1889 0.38654 0.22226 0.0
C1308 C 0.19022 0.40065 0.20781 0.0
C1309 C 0.1993 0.38673 0.25276 0.0
C1310 C 0.22694 0.41161 0.33604 0.0
H1311 H 0.26292 0.37728 0.4485 0.0
H1312 H 0.24463 0.37703 0.3962 0.0
H1313 H 0.24073 0.41989 0.39256 0.0
H1314 H 0.20346 0.42605 0.21407 0.0
H1315 H 0.22163 0.42635 0.26689 0.0
H1316 H 0.22578 0.38355 0.27014 0.0
C1317 C 0.25391 0.38824 0.40775 0.0
C1318 C 0.23766 0.41201 0.36577 0.0
C1319 C 0.26435 0.3884 0.43792 0.0
C1320 C 0.20209 0.41495 0.22462 0.0
C1321 C 0.21246 0.41513 0.25509 0.0
C1322 C 0.22883 0.39143 0.29694 0.0
C1323 C 0.25526 0.40236 0.39328 0.0
C1324 C 0.24405 0.40211 0.36142 0.0
C1325 C 0.21121 0.40104 0.26941 0.0
C1326 C 0.22242 0.40131 0.3013 0.0
H1327 H 0.28693 0.42802 0.45177 0.0
H1328 H 0.26871 0.42774 0.39871 0.0
H1329 H 0.24444 0.38421 0.32216 0.0
H1330 H 0.17989 0.37533 0.20991 0.0
H1331 H 0.19794 0.37567 0.26353 0.0
C1332 C 0.19168 0.38843 0.93997 0.0
C1333 C 0.19327 0.40246 0.95624 0.0
C1334 C 0.20235 0.38878 0.91031 0.0
C1335 C 0.23117 0.41423 0.83086 0.0
H1336 H 0.24602 0.38446 0.83967 0.0
C1337 C 0.28007 0.41735 0.72359 0.0
C1338 C 0.27786 0.40308 0.70728 0.0
C1339 C 0.27004 0.41745 0.75464 0.0
C1340 C 0.24186 0.39274 0.83656 0.0
H1341 H 0.2074 0.42787 0.95437 0.0
H1342 H 0.22612 0.42847 0.90263 0.0
H1343 H 0.2281 0.38447 0.89297 0.0
H1344 H 0.26335 0.37772 0.71067 0.0
H1345 H 0.24575 0.37792 0.76473 0.0
H1346 H 0.24488 0.42246 0.77436 0.0
C1347 C 0.21648 0.41721 0.91252 0.0
C1348 C 0.23161 0.39275 0.86708 0.0
C1349 C 0.2058 0.41686 0.94226 0.0
C1350 C 0.26542 0.38891 0.72275 0.0
C1351 C 0.25538 0.38902 0.75385 0.0
C1352 C 0.24142 0.41421 0.80034 0.0
C1353 C 0.21487 0.40316 0.89625 0.0
C1354 C 0.2261 0.40345 0.86446 0.0
C1355 C 0.25757 0.40329 0.77006 0.0
C1356 C 0.24683 0.40343 0.80277 0.0
H1357 H 0.18214 0.37712 0.95001 0.0
H1358 H 0.20066 0.37776 0.89794 0.0
H1359 H 0.22695 0.42246 0.82765 0.0
H1360 H 0.28957 0.42848 0.71243 0.0
H1361 H 0.27214 0.42863 0.76689 0.0
C1362 C 0.74614 0.87095 0.93914 0.0
C1363 C 0.73201 0.85857 0.95512 0.0
C1364 C 0.74593 0.88124 0.90916 0.0
C1365 C 0.72081 0.88473 0.82859 0.0
H1366 H 0.7508 0.92928 0.83784 0.0
C1367 C 0.71823 0.93083 0.72144 0.0
C1368 C 0.73258 0.94287 0.70547 0.0
C1369 C 0.71801 0.92057 0.75226 0.0
C1370 C 0.74247 0.91685 0.83459 0.0
H1371 H 0.70658 0.84733 0.95235 0.0
H1372 H 0.70625 0.86542 0.90006 0.0
H1373 H 0.7505 0.9113 0.8914 0.0
H1374 H 0.75795 0.95354 0.70915 0.0
H1375 H 0.75754 0.93553 0.76286 0.0
H1376 H 0.71279 0.89029 0.77172 0.0
C1377 C 0.71747 0.86702 0.91043 0.0
C1378 C 0.74228 0.90656 0.86526 0.0
C1379 C 0.71767 0.8567 0.94049 0.0
C1380 C 0.7467 0.94443 0.72097 0.0
C1381 C 0.74647 0.93417 0.75186 0.0
C1382 C 0.72098 0.89503 0.79792 0.0
C1383 C 0.73161 0.87941 0.8945 0.0
C1384 C 0.7315 0.89038 0.8625 0.0
C1385 C 0.73212 0.92212 0.7678 0.0
C1386 C 0.73185 0.9112 0.80052 0.0
H1387 H 0.7574 0.8727 0.94966 0.0
H1388 H 0.75702 0.89052 0.89705 0.0
H1389 H 0.71251 0.8723 0.82526 0.0
H1390 H 0.70713 0.92931 0.71023 0.0
H1391 H 0.70678 0.91152 0.76429 0.0
C1392 C 0.2775 0.92886 0.9423 0.0
C1393 C 0.27554 0.9412 0.95745 0.0
C1394 C 0.26724 0.91846 0.91186 0.0
C1395 C 0.23928 0.91515 0.82913 0.0
H1396 H 0.22358 0.87043 0.83907 0.0
C1397 C 0.18994 0.86978 0.72184 0.0
C1398 C 0.19181 0.85743 0.70623 0.0
C1399 C 0.20009 0.87989 0.75287 0.0
C1400 C 0.22799 0.8829 0.83564 0.0
H1401 H 0.26117 0.95223 0.95292 0.0
H1402 H 0.24326 0.93405 0.90018 0.0
H1403 H 0.24159 0.8883 0.8925 0.0
H1404 H 0.2058 0.84601 0.71089 0.0
H1405 H 0.22357 0.86374 0.76468 0.0
H1406 H 0.22572 0.90978 0.77227 0.0
C1407 C 0.25285 0.93252 0.91135 0.0
C1408 C 0.23831 0.89313 0.86621 0.0
C1409 C 0.26307 0.94289 0.94176 0.0
C1410 C 0.204 0.85538 0.72235 0.0
C1411 C 0.21414 0.86548 0.75337 0.0
C1412 C 0.22898 0.90493 0.79857 0.0
C1413 C 0.25485 0.92023 0.89596 0.0
C1414 C 0.24404 0.90936 0.86331 0.0
C1415 C 0.21231 0.87786 0.76892 0.0
C1416 C 0.22321 0.88869 0.80151 0.0
H1417 H 0.28698 0.92723 0.95382 0.0
H1418 H 0.26916 0.90918 0.90031 0.0
H1419 H 0.24369 0.92762 0.82568 0.0
H1420 H 0.18066 0.87167 0.71007 0.0
H1421 H 0.19827 0.88921 0.76459 0.0
C1422 C 0.38504 0.26288 0.7704 0.0
C1423 C 0.39925 0.27578 0.78413 0.0
C1424 C 0.38509 0.25235 0.74075 0.0
C1425 C 0.41069 0.2385 0.69597 0.0
H1426 H 0.38042 0.22331 0.60413 0.0
C1427 C 0.41516 0.20406 0.55381 0.0
C1428 C 0.40109 0.19119 0.53923 0.0
C1429 C 0.41486 0.21419 0.58433 0.0
C1430 C 0.38884 0.22731 0.62987 0.0
H1431 H 0.42464 0.28784 0.77734 0.0
H1432 H 0.42467 0.2696 0.72541 0.0
H1433 H 0.37988 0.24132 0.65629 0.0
H1434 H 0.37567 0.17876 0.54549 0.0
H1435 H 0.37519 0.19633 0.59893 0.0
H1436 H 0.41967 0.22453 0.66948 0.0
C1437 C 0.41352 0.26748 0.73795 0.0
C1438 C 0.38852 0.23761 0.65974 0.0
C1439 C 0.41348 0.27798 0.76753 0.0
C1440 C 0.38673 0.1886 0.55594 0.0
C1441 C 0.38644 0.19872 0.5864 0.0
C1442 C 0.41101 0.2282 0.6661 0.0
C1443 C 0.39934 0.25452 0.72433 0.0
C1444 C 0.39947 0.24335 0.69303 0.0
C1445 C 0.40048 0.21166 0.60081 0.0
C1446 C 0.40011 0.22252 0.63269 0.0
H1447 H 0.37389 0.26082 0.78277 0.0
H1448 H 0.37398 0.24238 0.73118 0.0
H1449 H 0.41913 0.24253 0.72165 0.0
H1450 H 0.42641 0.20642 0.5414 0.0
H1451 H 0.42587 0.22417 0.59448 0.0
C1452 C 0.85622 0.2038 0.76858 0.0
C1453 C 0.85842 0.19177 0.78514 0.0
C1454 C 0.86656 0.21417 0.73846 0.0
C1455 C 0.90666 0.23013 0.69686 0.0
H1456 H 0.89029 0.24224 0.60125 0.0
C1457 C 0.94537 0.26543 0.55597 0.0
C1458 C 0.94313 0.27744 0.53946 0.0
C1459 C 0.9351 0.25509 0.58626 0.0
C1460 C 0.89505 0.23911 0.62803 0.0
H1461 H 0.8732 0.18118 0.78309 0.0
H1462 H 0.89121 0.19925 0.73011 0.0
H1463 H 0.87217 0.2237 0.65311 0.0
H1464 H 0.92837 0.28805 0.54184 0.0
H1465 H 0.91049 0.27004 0.5951 0.0
H1466 H 0.92954 0.24553 0.67175 0.0
C1467 C 0.88155 0.20073 0.74078 0.0
C1468 C 0.88467 0.22849 0.6577 0.0
C1469 C 0.87118 0.19032 0.77092 0.0
C1470 C 0.93042 0.27892 0.55397 0.0
C1471 C 0.92012 0.26855 0.58426 0.0
C1472 C 0.91703 0.24075 0.66717 0.0
C1473 C 0.87935 0.21276 0.72425 0.0
C1474 C 0.89037 0.22389 0.69245 0.0
C1475 C 0.92235 0.25651 0.60067 0.0
C1476 C 0.91134 0.24536 0.63245 0.0
H1477 H 0.84653 0.20528 0.77897 0.0
H1478 H 0.86467 0.22344 0.72677 0.0
H1479 H 0.91141 0.227 0.72364 0.0
H1480 H 0.95502 0.26393 0.54537 0.0
H1481 H 0.93701 0.24582 0.59788 0.0
C1482 C 0.94443 0.74869 0.76919 0.0
C1483 C 0.94294 0.73453 0.7839 0.0
C1484 C 0.93401 0.74856 0.73884 0.0
C1485 C 0.90613 0.72365 0.65609 0.0
H1486 H 0.88922 0.7516 0.66875 0.0
C1487 C 0.85572 0.7188 0.55129 0.0
C1488 C 0.85726 0.73297 0.53644 0.0
C1489 C 0.86609 0.71893 0.58178 0.0
C1490 C 0.89396 0.74384 0.66456 0.0
H1491 H 0.92933 0.70913 0.77842 0.0
H1492 H 0.91114 0.70894 0.72586 0.0
H1493 H 0.90775 0.75214 0.72106 0.0
H1494 H 0.87088 0.75837 0.54188 0.0
H1495 H 0.889 0.75855 0.59469 0.0
H1496 H 0.89234 0.71535 0.5996 0.0
C1497 C 0.92046 0.72014 0.73732 0.0
C1498 C 0.90458 0.74416 0.69448 0.0
C1499 C 0.93085 0.72026 0.76764 0.0
C1500 C 0.86933 0.74724 0.55275 0.0
C1501 C 0.87967 0.74736 0.58322 0.0
C1502 C 0.8955 0.72333 0.62618 0.0
C1503 C 0.92192 0.73428 0.7226 0.0
C1504 C 0.91078 0.73407 0.69058 0.0
C1505 C 0.87818 0.73321 0.59803 0.0
C1506 C 0.88931 0.73342 0.63008 0.0
H1507 H 0.95361 0.75988 0.78113 0.0
H1508 H 0.93552 0.75966 0.72777 0.0
H1509 H 0.91087 0.71589 0.65189 0.0
H1510 H 0.84654 0.70762 0.53932 0.0
H1511 H 0.86455 0.70784 0.59292 0.0
C1512 C 0.87105 0.7478 0.27011 0.0
C1513 C 0.8584 0.73356 0.2845 0.0
C1514 C 0.88149 0.74782 0.24008 0.0
C1515 C 0.89585 0.72276 0.1946 0.0
H1516 H 0.90973 0.75269 0.10233 0.0
C1517 C 0.9309 0.7196 0.05187 0.0
C1518 C 0.9434 0.7339 0.03727 0.0
C1519 C 0.92056 0.71945 0.08242 0.0
C1520 C 0.90609 0.74437 0.12817 0.0
H1521 H 0.84677 0.70818 0.27867 0.0
H1522 H 0.86489 0.70827 0.22606 0.0
H1523 H 0.89169 0.75276 0.15509 0.0
H1524 H 0.95495 0.75926 0.04353 0.0
H1525 H 0.93702 0.75897 0.097 0.0
H1526 H 0.91026 0.71437 0.16762 0.0
C1527 C 0.86685 0.7194 0.23833 0.0
C1528 C 0.89577 0.74442 0.15838 0.0
C1529 C 0.85642 0.71936 0.2683 0.0
C1530 C 0.9454 0.74803 0.05398 0.0
C1531 C 0.93507 0.74788 0.08446 0.0
C1532 C 0.90618 0.72271 0.16436 0.0
C1533 C 0.8795 0.73362 0.22389 0.0
C1534 C 0.89054 0.73362 0.19194 0.0
C1535 C 0.9225 0.7336 0.09889 0.0
C1536 C 0.91143 0.73353 0.13085 0.0
H1537 H 0.87295 0.75893 0.28215 0.0
H1538 H 0.89124 0.75897 0.22995 0.0
H1539 H 0.8922 0.71444 0.22042 0.0
H1540 H 0.929 0.70851 0.03946 0.0
H1541 H 0.91087 0.70827 0.0926 0.0
C1542 C 0.38595 0.19102 0.27209 0.0
C1543 C 0.40027 0.19291 0.28712 0.0
C1544 C 0.38582 0.20132 0.24186 0.0
C1545 C 0.41062 0.2408 0.19647 0.0
H1546 H 0.38141 0.22419 0.10239 0.0
C1547 C 0.41469 0.27843 0.05175 0.0
C1548 C 0.40047 0.27661 0.03618 0.0
C1549 C 0.41463 0.26826 0.08268 0.0
C1550 C 0.38953 0.22903 0.12871 0.0
H1551 H 0.42567 0.20712 0.28232 0.0
H1552 H 0.42541 0.22493 0.22942 0.0
H1553 H 0.38117 0.20636 0.15633 0.0
H1554 H 0.37504 0.26271 0.04085 0.0
H1555 H 0.37498 0.2451 0.09495 0.0
H1556 H 0.419 0.26346 0.16878 0.0
C1557 C 0.41429 0.21562 0.24132 0.0
C1558 C 0.38937 0.21882 0.15962 0.0
C1559 C 0.41443 0.20534 0.27147 0.0
C1560 C 0.38621 0.26442 0.0521 0.0
C1561 C 0.38616 0.25426 0.08294 0.0
C1562 C 0.41078 0.25101 0.16555 0.0
C1563 C 0.4 0.21372 0.22615 0.0
C1564 C 0.39994 0.22459 0.19378 0.0
C1565 C 0.40036 0.25606 0.09856 0.0
C1566 C 0.40024 0.24523 0.13133 0.0
H1567 H 0.37484 0.18161 0.28371 0.0
H1568 H 0.37462 0.19967 0.23112 0.0
H1569 H 0.41875 0.24563 0.22276 0.0
H1570 H 0.42587 0.28767 0.03997 0.0
H1571 H 0.42576 0.26982 0.09376 0.0
C1572 C 0.92982 0.27831 0.27113 0.0
C1573 C 0.94198 0.2762 0.28717 0.0
C1574 C 0.91944 0.26804 0.24077 0.0
C1575 C 0.90386 0.22827 0.19716 0.0
H1576 H 0.8917 0.24489 0.10228 0.0
C1577 C 0.86951 0.19016 0.05425 0.0
C1578 C 0.85737 0.19221 0.03764 0.0
C1579 C 0.87966 0.20039 0.085 0.0
C1580 C 0.89484 0.24006 0.12886 0.0
H1581 H 0.95279 0.26163 0.28404 0.0
H1582 H 0.93472 0.24377 0.23067 0.0
H1583 H 0.90993 0.26281 0.15523 0.0
H1584 H 0.84639 0.20663 0.04021 0.0
H1585 H 0.86408 0.22443 0.09431 0.0
H1586 H 0.88879 0.20552 0.17078 0.0
C1587 C 0.93314 0.25329 0.24192 0.0
C1588 C 0.90529 0.25032 0.15915 0.0
C1589 C 0.94354 0.26358 0.27228 0.0
C1590 C 0.85562 0.20473 0.05241 0.0
C1591 C 0.8658 0.21498 0.0832 0.0
C1592 C 0.89342 0.21801 0.16688 0.0
C1593 C 0.92099 0.25543 0.22582 0.0
C1594 C 0.90992 0.24453 0.1936 0.0
C1595 C 0.87793 0.21291 0.09983 0.0
C1596 C 0.88882 0.2238 0.13235 0.0
H1597 H 0.92825 0.28788 0.28205 0.0
H1598 H 0.91007 0.26987 0.22942 0.0
H1599 H 0.90702 0.22344 0.22371 0.0
H1600 H 0.87123 0.18068 0.04344 0.0
H1601 H 0.88902 0.19862 0.09674 0.0
C1602 C 0.09601 0.69223 0.29365 0.0
C1603 C 0.08705 0.67775 0.31428 0.0
C1604 C 0.10307 0.70621 0.31669 0.0
C1605 C 0.11943 0.72268 0.41849 0.0
H1606 H 0.11062 0.75591 0.39039 0.0
C1607 C 0.14071 0.777 0.52468 0.0
C1608 C 0.14499 0.79153 0.50586 0.0
C1609 C 0.13375 0.76326 0.50073 0.0
C1610 C 0.11346 0.7469 0.39823 0.0
H1611 H 0.07863 0.66652 0.37521 0.0
H1612 H 0.09144 0.69106 0.41568 0.0
H1613 H 0.0984 0.73162 0.3494 0.0
H1614 H 0.14561 0.8031 0.44696 0.0
H1615 H 0.13408 0.77918 0.40458 0.0
H1616 H 0.13491 0.73798 0.46618 0.0
C1617 C 0.09278 0.69149 0.38161 0.0
C1618 C 0.10636 0.73296 0.37492 0.0
C1619 C 0.08543 0.67751 0.35848 0.0
C1620 C 0.14233 0.79205 0.4624 0.0
C1621 C 0.13562 0.7783 0.43819 0.0
C1622 C 0.12677 0.73672 0.44129 0.0
C1623 C 0.10156 0.70594 0.36082 0.0
C1624 C 0.1092 0.72072 0.38512 0.0
C1625 C 0.13118 0.76371 0.45711 0.0
C1626 C 0.12378 0.74897 0.43175 0.0
H1627 H 0.0974 0.6928 0.25961 0.0
H1628 H 0.10987 0.71724 0.30011 0.0
H1629 H 0.12192 0.71344 0.42651 0.0
H1630 H 0.14245 0.77618 0.55821 0.0
H1631 H 0.13018 0.75225 0.51671 0.0
C1632 C 0.45754 0.47678 0.35768 0.0
C1633 C 0.45721 0.47815 0.3135 0.0
C1634 C 0.44362 0.47037 0.381 0.0
C1635 C 0.40191 0.44305 0.37422 0.0
H1636 H 0.39772 0.46633 0.46743 0.0
C1637 C 0.34313 0.42031 0.46248 0.0
C1638 C 0.34378 0.42305 0.50623 0.0
C1639 C 0.35685 0.42742 0.43822 0.0
C1640 C 0.39874 0.45953 0.44197 0.0
H1641 H 0.44206 0.47375 0.25906 0.0
H1642 H 0.41772 0.46219 0.29987 0.0
H1643 H 0.42218 0.47773 0.42739 0.0
H1644 H 0.35931 0.43523 0.55897 0.0
H1645 H 0.3832 0.44705 0.51725 0.0
H1646 H 0.37881 0.42458 0.38943 0.0
C1647 C 0.42877 0.46623 0.31631 0.0
C1648 C 0.41273 0.46613 0.41897 0.0
C1649 C 0.4427 0.47291 0.29308 0.0
C1650 C 0.35839 0.433 0.52524 0.0
C1651 C 0.37211 0.43987 0.50118 0.0
C1652 C 0.38802 0.43631 0.39769 0.0
C1653 C 0.42914 0.46496 0.36043 0.0
C1654 C 0.4144 0.45795 0.3849 0.0
C1655 C 0.37154 0.43721 0.45732 0.0
C1656 C 0.38624 0.44447 0.43187 0.0
H1657 H 0.46856 0.48077 0.37427 0.0
H1658 H 0.44413 0.46944 0.41505 0.0
H1659 H 0.40302 0.43649 0.3482 0.0
H1660 H 0.33201 0.41279 0.44688 0.0
H1661 H 0.35588 0.42532 0.40444 0.0
C1662 C 0.7147 0.99172 0.46365 0.0
C1663 C 0.71259 0.99004 0.50769 0.0
C1664 C 0.70755 -0.00155 0.44006 0.0
C1665 C 0.69366 0.02615 0.44708 0.0
H1666 H 0.66685 0.00395 0.35164 0.0
C1667 C 0.65832 0.04988 0.35965 0.0
C1668 C 0.65642 0.04754 0.31574 0.0
C1669 C 0.66485 0.04257 0.38343 0.0
C1670 C 0.67451 0.01046 0.37773 0.0
H1671 H 0.70147 0.99421 0.56158 0.0
H1672 H 0.68933 0.00631 0.52034 0.0
H1673 H 0.67937 0.99196 0.39161 0.0
H1674 H 0.66007 0.03594 0.26217 0.0
H1675 H 0.67203 0.02379 0.30315 0.0
H1676 H 0.68937 0.0449 0.43268 0.0
C1677 C 0.69638 0.00227 0.50421 0.0
C1678 C 0.68159 0.00352 0.40068 0.0
C1679 C 0.70327 0.99528 0.52768 0.0
C1680 C 0.66125 0.03785 0.29604 0.0
C1681 C 0.66802 0.03079 0.31966 0.0
C1682 C 0.68682 0.03323 0.42369 0.0
C1683 C 0.69845 0.00388 0.46025 0.0
C1684 C 0.69116 0.0113 0.4356 0.0
C1685 C 0.66987 0.033 0.3637 0.0
C1686 C 0.67711 0.02545 0.38877 0.0
H1687 H 0.72179 0.98775 0.44739 0.0
H1688 H 0.70933 -0.00035 0.40615 0.0
H1689 H 0.70113 0.03241 0.47375 0.0
H1690 H 0.65459 0.05718 0.37575 0.0
H1691 H 0.66579 0.04433 0.41736 0.0
C1692 C 0.69098 0.09906 0.19166 0.0
C1693 C 0.67646 0.08913 0.17212 0.0
C1694 C 0.70479 0.10618 0.16798 0.0
C1695 C 0.72112 0.10328 0.06449 0.0
H1696 H 0.75511 0.14457 0.09588 0.0
C1697 C 0.77585 0.1404 0.96096 0.0
C1698 C 0.79035 0.14547 0.98133 0.0
C1699 C 0.76193 0.13371 0.98417 0.0
C1700 C 0.74571 0.13301 0.08699 0.0
H1701 H 0.66497 0.0792 0.11227 0.0
H1702 H 0.68898 0.09217 0.07053 0.0
H1703 H 0.73054 0.13288 0.13548 0.0
H1704 H 0.80165 0.14779 0.04202 0.0
H1705 H 0.7772 0.13641 0.08277 0.0
H1706 H 0.73626 0.10379 0.01501 0.0
C1707 C 0.6898 0.09406 0.10441 0.0
C1708 C 0.73166 0.12624 0.10973 0.0
C1709 C 0.67601 0.08669 0.12826 0.0
C1710 C 0.79065 0.14394 0.02547 0.0
C1711 C 0.77672 0.13751 0.04878 0.0
C1712 C 0.73506 0.11019 0.0413 0.0
C1713 C 0.70441 0.10379 0.12402 0.0
C1714 C 0.7192 0.11123 0.09898 0.0
C1715 C 0.76226 0.13223 0.02821 0.0
C1716 C 0.74749 0.12504 0.05255 0.0
H1717 H 0.69174 0.10106 0.22549 0.0
H1718 H 0.7158 0.11332 0.18442 0.0
H1719 H 0.71196 0.09159 0.05575 0.0
H1720 H 0.77522 0.14137 0.92698 0.0
H1721 H 0.75089 0.12978 0.96774 0.0
C1722 C 0.99479 0.70451 0.96111 0.0
C1723 C 0.99012 0.71432 0.98098 0.0
C1724 C 0.00153 0.69738 0.98456 0.0
C1725 C 0.00252 0.6825 0.08769 0.0
H1726 H 0.04342 0.68894 0.0555 0.0
C1727 C 0.03579 0.66064 0.19159 0.0
C1728 C 0.04537 0.65569 0.17185 0.0
C1729 C 0.02884 0.66755 0.16807 0.0
C1730 C 0.03187 0.68676 0.06452 0.0
H1731 H 0.98861 0.72415 0.04106 0.0
H1732 H 5e-05 0.71123 0.08236 0.0
H1733 H 0.03157 0.70145 0.01489 0.0
H1734 H 0.05484 0.65366 0.11179 0.0
H1735 H 0.04215 0.66508 0.0703 0.0
H1736 H 0.00239 0.66736 0.13624 0.0
C1737 C -0.00138 0.70929 0.04851 0.0
C1738 C 0.02518 0.69404 0.04143 0.0
C1739 C 0.99215 0.7167 0.02491 0.0
C1740 C 0.04761 0.65749 0.12792 0.0
C1741 C 0.04042 0.66415 0.10422 0.0
C1742 C 0.00906 0.67496 0.11033 0.0
C1743 C 0.00344 0.69967 0.02841 0.0
C1744 C 0.0105 0.69202 0.053 0.0
C1745 C 0.03107 0.66942 0.12406 0.0
C1746 C 0.02387 0.67707 0.0992 0.0
H1747 H 0.99343 0.70249 0.9273 0.0
H1748 H 0.0051 0.68993 0.96851 0.0
H1749 H 0.99109 0.68065 0.09679 0.0
H1750 H 0.03394 0.65954 0.22548 0.0
H1751 H 0.02201 0.67173 0.18467 0.0
C1752 C 0.41935 0.34348 0.02495 0.0
C1753 C 0.42125 0.34379 0.98084 0.0
C1754 C 0.42689 0.35739 0.0484 0.0
C1755 C 0.44154 0.39908 0.04085 0.0
H1756 H 0.46838 0.40342 0.13597 0.0
C1757 C 0.47738 0.45813 0.12756 0.0
C1758 C 0.47914 0.45774 0.17154 0.0
C1759 C 0.47091 0.44429 0.10385 0.0
C1760 C 0.46073 0.40235 0.10994 0.0
H1761 H 0.43247 0.35888 0.9267 0.0
H1762 H 0.44528 0.38316 0.96769 0.0
H1763 H 0.45541 0.37882 0.09637 0.0
H1764 H 0.47542 0.44254 0.22525 0.0
H1765 H 0.46357 0.41841 0.18437 0.0
H1766 H 0.44625 0.42226 0.05497 0.0
C1767 C 0.43808 0.37214 0.98399 0.0
C1768 C 0.45339 0.38828 0.08721 0.0
C1769 C 0.4308 0.35824 0.96066 0.0
C1770 C 0.47434 0.44325 0.19133 0.0
C1771 C 0.46763 0.4294 0.16778 0.0
C1772 C 0.44863 0.41304 0.064 0.0
C1773 C 0.43619 0.37182 0.028 0.0
C1774 C 0.44379 0.38658 0.05243 0.0
C1775 C 0.46581 0.42972 0.12372 0.0
C1776 C 0.45837 0.41489 0.0988 0.0
H1777 H 0.41211 0.33251 0.04136 0.0
H1778 H 0.42525 0.35691 0.08236 0.0
H1779 H 0.43405 0.39793 0.01431 0.0
H1780 H 0.48111 0.46915 0.11138 0.0
H1781 H 0.47001 0.44506 0.0699 0.0
C1782 C 0.99434 0.35884 0.46255 0.0
C1783 C 0.98967 0.34444 0.48264 0.0
C1784 C 0.00128 0.3728 0.48569 0.0
C1785 C 0.0209 0.38962 0.58866 0.0
H1786 H 0.01351 0.42348 0.55669 0.0
C1787 C 0.03809 0.44426 0.69215 0.0
C1788 C 0.04747 0.45877 0.67203 0.0
C1789 C 0.031 0.43037 0.66876 0.0
C1790 C 0.01571 0.41412 0.56571 0.0
H1791 H 0.98826 0.33329 0.54289 0.0
H1792 H -0.00026 0.35755 0.58367 0.0
H1793 H 0.00063 0.39882 0.51737 0.0
H1794 H 0.0565 0.47014 0.61155 0.0
H1795 H 0.04366 0.44574 0.57044 0.0
H1796 H 0.03555 0.40488 0.63805 0.0
C1797 C -0.00145 0.35818 0.54978 0.0
C1798 C 0.00842 0.40002 0.54314 0.0
C1799 C 0.99186 0.34424 0.52648 0.0
C1800 C 0.04939 0.45912 0.62791 0.0
C1801 C 0.04202 0.44522 0.6044 0.0
C1802 C 0.02794 0.40362 0.61168 0.0
C1803 C 0.00346 0.37267 0.52964 0.0
C1804 C 0.01098 0.3876 0.55418 0.0
C1805 C 0.0329 0.43074 0.62475 0.0
C1806 C 0.02545 0.41598 0.60027 0.0
H1807 H 0.99294 0.35941 0.42873 0.0
H1808 H 0.00518 0.38372 0.46885 0.0
H1809 H 0.02344 0.38049 0.59761 0.0
H1810 H 0.03643 0.44358 0.72611 0.0
H1811 H 0.02393 0.41932 0.68503 0.0
C1812 C 0.69094 0.6609 0.69085 0.0
C1813 C 0.67637 0.65614 0.67139 0.0
C1814 C 0.7047 0.66746 0.66698 0.0
C1815 C 0.72083 0.68587 0.56257 0.0
H1816 H 0.75484 0.67871 0.59507 0.0
C1817 C 0.77557 0.70277 0.45938 0.0
C1818 C 0.79006 0.71229 0.47967 0.0
C1819 C 0.76163 0.69569 0.48257 0.0
C1820 C 0.74543 0.68083 0.58585 0.0
H1821 H 0.66473 0.65417 0.61152 0.0
H1822 H 0.68867 0.66499 0.56948 0.0
H1823 H 0.73032 0.66618 0.63494 0.0
H1824 H 0.80134 0.7216 0.54021 0.0
H1825 H 0.77688 0.7088 0.58093 0.0
H1826 H 0.73592 0.70011 0.5125 0.0
C1827 C 0.68957 0.66416 0.60341 0.0
C1828 C 0.73141 0.67374 0.60875 0.0
C1829 C 0.67582 0.65786 0.62744 0.0
C1830 C 0.79034 0.71437 0.52372 0.0
C1831 C 0.77641 0.70703 0.54701 0.0
C1832 C 0.73475 0.6927 0.53922 0.0
C1833 C 0.70422 0.66915 0.62292 0.0
C1834 C 0.71896 0.67627 0.59764 0.0
C1835 C 0.76195 0.69775 0.52652 0.0
C1836 C 0.74718 0.69032 0.55088 0.0
H1837 H 0.69178 0.65987 0.72474 0.0
H1838 H 0.71575 0.67146 0.68334 0.0
H1839 H 0.71167 0.68836 0.5535 0.0
H1840 H 0.77495 0.70099 0.42547 0.0
H1841 H 0.7506 0.68851 0.4662 0.0
C1842 C 0.42144 0.14427 0.52346 0.0
C1843 C 0.42317 0.14606 0.47936 0.0
C1844 C 0.42908 0.13782 0.54603 0.0
C1845 C 0.44339 0.11063 0.5368 0.0
H1846 H 0.47045 0.13279 0.63187 0.0
C1847 C 0.47742 0.08584 0.6265 0.0
C1848 C 0.47903 0.08819 0.67046 0.0
C1849 C 0.47147 0.09349 0.60187 0.0
C1850 C 0.46275 0.12631 0.60583 0.0
H1851 H 0.43414 0.14239 0.42429 0.0
H1852 H 0.44712 0.13072 0.4638 0.0
H1853 H 0.45796 0.14487 0.59216 0.0
H1854 H 0.47546 0.1002 0.72317 0.0
H1855 H 0.46449 0.11292 0.68077 0.0
H1856 H 0.44751 0.09178 0.5512 0.0
C1857 C 0.44 0.13449 0.48074 0.0
C1858 C 0.4557 0.1333 0.58302 0.0
C1859 C 0.43264 0.14123 0.45827 0.0
C1860 C 0.47451 0.09826 0.68931 0.0
C1861 C 0.46831 0.10567 0.66486 0.0
C1862 C 0.4502 0.1035 0.56008 0.0
C1863 C 0.43829 0.13276 0.52476 0.0
C1864 C 0.44595 0.1255 0.54842 0.0
C1865 C 0.46674 0.10343 0.6208 0.0
C1866 C 0.45993 0.11122 0.59502 0.0
H1867 H 0.41426 0.14794 0.54055 0.0
H1868 H 0.42756 0.13651 0.58001 0.0
H1869 H 0.4358 0.10437 0.51033 0.0
H1870 H 0.48093 0.07824 0.61105 0.0
H1871 H 0.4707 0.09168 0.56797 0.0
C1872 C 0.34192 0.99083 0.96237 0.0
C1873 C 0.34285 0.98929 0.00633 0.0
C1874 C 0.35555 0.99756 0.93774 0.0
C1875 C 0.3971 0.0256 0.94235 0.0
H1876 H 0.4017 0.00316 0.84765 0.0
C1877 C 0.45639 0.04878 0.85756 0.0
C1878 C 0.45626 0.04639 0.81375 0.0
C1879 C 0.4424 0.04161 0.88054 0.0
C1880 C 0.40054 0.00973 0.8735 0.0
H1881 H 0.35875 0.99365 0.05895 0.0
H1882 H 0.38253 0.00573 0.01597 0.0
H1883 H 0.37721 0.99121 0.88775 0.0
H1884 H 0.44136 0.03478 0.75951 0.0
H1885 H 0.41693 0.02282 0.79913 0.0
H1886 H 0.4201 0.04434 0.92773 0.0
C1887 C 0.37125 0.0016 0.00068 0.0
C1888 C 0.38654 0.00283 0.89651 0.0
C1889 C 0.35764 0.99462 0.02516 0.0
C1890 C 0.44186 0.03673 0.79334 0.0
C1891 C 0.42784 0.02979 0.81616 0.0
C1892 C 0.41099 0.03264 0.91893 0.0
C1893 C 0.37031 0.00313 0.95684 0.0
C1894 C 0.3848 0.01065 0.93132 0.0
C1895 C 0.42791 0.03212 0.86009 0.0
C1896 C 0.41296 0.02474 0.88443 0.0
H1897 H 0.33068 0.98679 0.94699 0.0
H1898 H 0.35461 -0.00133 0.90392 0.0
H1899 H 0.39591 0.0319 0.9689 0.0
H1900 H 0.46734 0.05605 0.87422 0.0
H1901 H 0.44298 0.04341 0.91443 0.0
C1902 C 0.09954 0.47494 0.79305 0.0
C1903 C 0.08993 0.47973 0.8135 0.0
C1904 C 0.10671 0.46812 0.81604 0.0
C1905 C 0.12137 0.46643 0.91966 0.0
H1906 H 0.11413 0.4254 0.88598 0.0
C1907 C 0.14016 0.43118 0.02537 0.0
C1908 C 0.14524 0.42162 0.00616 0.0
C1909 C 0.13383 0.43851 0.00108 0.0
C1910 C 0.11654 0.43698 0.89542 0.0
H1911 H 0.08057 0.48147 0.87413 0.0
H1912 H 0.0935 0.46987 0.91449 0.0
H1913 H 0.1026 0.43808 0.84477 0.0
H1914 H 0.14797 0.41245 0.94634 0.0
H1915 H 0.13749 0.42575 0.90361 0.0
H1916 H 0.13568 0.46569 0.96946 0.0
C1917 C 0.09529 0.47128 0.8806 0.0
C1918 C 0.10984 0.44417 0.87194 0.0
C1919 C 0.08787 0.47783 0.85751 0.0
C1920 C 0.14402 0.41966 0.96205 0.0
C1921 C 0.13793 0.42722 0.93762 0.0
C1922 C 0.12831 0.45938 0.94272 0.0
C1923 C 0.10465 0.46625 0.85996 0.0
C1924 C 0.11209 0.45887 0.88413 0.0
C1925 C 0.13268 0.43668 0.95687 0.0
C1926 C 0.12584 0.44448 0.93119 0.0
H1927 H 0.10132 0.4762 0.75916 0.0
H1928 H 0.11395 0.46439 0.79956 0.0
H1929 H 0.1234 0.47787 0.92929 0.0
H1930 H 0.1408 0.43281 0.05935 0.0
H1931 H 0.1296 0.44539 0.0172 0.0
C1932 C 0.65853 0.67736 0.85869 0.0
C1933 C 0.65624 0.67763 0.81492 0.0
C1934 C 0.66523 0.69126 0.88218 0.0
C1935 C 0.6748 0.73299 0.87662 0.0
H1936 H 0.70227 0.73784 0.97066 0.0
C1937 C 0.71513 0.79192 0.96282 0.0
C1938 C 0.71327 0.79131 0.00698 0.0
C1939 C 0.708 0.77812 0.93886 0.0
C1940 C 0.69458 0.73658 0.94453 0.0
H1941 H 0.65933 0.69269 0.76134 0.0
H1942 H 0.67157 0.71692 0.80182 0.0
H1943 H 0.69027 0.71358 0.92965 0.0
H1944 H 0.70259 0.77579 0.06067 0.0
H1945 H 0.69049 0.75172 0.01878 0.0
H1946 H 0.67966 0.75631 0.89102 0.0
C1947 C 0.66775 0.70598 0.81844 0.0
C1948 C 0.6876 0.72266 0.92119 0.0
C1949 C 0.66081 0.69207 0.79511 0.0
C1950 C 0.70421 0.77665 0.02669 0.0
C1951 C 0.69735 0.76287 0.00284 0.0
C1952 C 0.68202 0.74702 0.89953 0.0
C1953 C 0.67004 0.70577 0.8623 0.0
C1954 C 0.67754 0.72064 0.88706 0.0
C1955 C 0.69916 0.7635 0.95878 0.0
C1956 C 0.69188 0.74887 0.93379 0.0
H1957 H 0.65501 0.66639 0.87489 0.0
H1958 H 0.66651 0.69057 0.91601 0.0
H1959 H 0.66691 0.73178 0.85111 0.0
H1960 H 0.72201 0.80305 0.94677 0.0
H1961 H 0.70958 0.77883 0.90486 0.0
C1962 C 0.76454 0.02461 0.63009 0.0
C1963 C 0.75462 0.01023 0.65018 0.0
C1964 C 0.77182 0.03854 0.65331 0.0
C1965 C 0.78636 0.05483 0.75685 0.0
H1966 H 0.77965 0.08887 0.72236 0.0
C1967 C 0.80688 0.10999 0.85986 0.0
C1968 C 0.81189 0.12446 0.83976 0.0
C1969 C 0.80022 0.09609 0.83648 0.0
C1970 C 0.78191 0.07963 0.73204 0.0
H1971 H 0.74485 -0.00089 0.71049 0.0
H1972 H 0.75799 0.02355 0.75131 0.0
H1973 H 0.76768 0.06449 0.68192 0.0
H1974 H 0.81424 0.1358 0.77928 0.0
H1975 H 0.80325 0.11164 0.73812 0.0
H1976 H 0.80101 0.06999 0.80603 0.0
C1977 C 0.75992 0.02395 0.71749 0.0
C1978 C 0.77495 0.06564 0.70901 0.0
C1979 C 0.75238 0.01002 0.69413 0.0
C1980 C 0.81035 0.12479 0.79568 0.0
C1981 C 0.80395 0.11091 0.77215 0.0
C1982 C 0.79358 0.06892 0.77946 0.0
C1983 C 0.76955 0.03831 0.69714 0.0
C1984 C 0.77705 0.05312 0.72139 0.0
C1985 C 0.79867 0.09635 0.7923 0.0
C1986 C 0.79137 0.08149 0.76752 0.0
H1987 H 0.76648 0.02517 0.59626 0.0
H1988 H 0.77928 0.0495 0.63706 0.0
H1989 H 0.78825 0.04534 0.76664 0.0
H1990 H 0.80778 0.10933 0.89387 0.0
H1991 H 0.79602 0.08513 0.8533 0.0
C1992 C 0.11287 0.81485 0.6394 0.0
C1993 C 0.12534 0.81254 0.65161 0.0
C1994 C 0.09893 0.80815 0.66251 0.0
C1995 C 0.08203 0.79113 0.76644 0.0
H1996 H 0.04255 0.77259 0.70496 0.0
C1997 C 0.02289 0.77004 0.85045 0.0
C1998 C 0.01009 0.75565 0.83712 0.0
C1999 C 0.03687 0.77712 0.82747 0.0
C2000 C 0.05347 0.77761 0.72257 0.0
H2001 H 0.13291 0.80142 0.69803 0.0
H2002 H 0.10847 0.78958 0.73807 0.0
H2003 H 0.06725 0.78446 0.66608 0.0
H2004 H 0.00196 0.73751 0.78886 0.0
H2005 H 0.02644 0.74984 0.74903 0.0
H2006 H 0.06823 0.78395 0.82292 0.0
C2007 C 0.1096 0.79677 0.71089 0.0
C2008 C 0.06762 0.78458 0.70033 0.0
C2009 C 0.12359 0.80351 0.68782 0.0
C2010 C 0.01154 0.74863 0.79994 0.0
C2011 C 0.02556 0.75572 0.777 0.0
C2012 C 0.06787 0.78415 0.78869 0.0
C2013 C 0.09708 0.79893 0.69829 0.0
C2014 C 0.08206 0.79145 0.72202 0.0
C2015 C 0.03841 0.76998 0.7907 0.0
C2016 C 0.05343 0.77734 0.767 0.0
H2017 H 0.11379 0.82177 0.61177 0.0
H2018 H 0.0896 0.81025 0.6524 0.0
H2019 H 0.09295 0.79643 0.78407 0.0
H2020 H 0.0222 0.77582 0.87885 0.0
H2021 H 0.04646 0.78824 0.83846 0.0
C2022 C 0.32551 0.38424 0.69459 0.0
C2023 C 0.32338 0.38182 0.65075 0.0
C2024 C 0.33178 0.37666 0.71823 0.0
C2025 C 0.34031 0.34375 0.71224 0.0
H2026 H 0.36775 0.36552 0.80706 0.0
C2027 C 0.38066 0.32455 0.79534 0.0
C2028 C 0.37884 0.32292 0.83946 0.0
C2029 C 0.37338 0.33128 0.77233 0.0
C2030 C 0.36004 0.35932 0.78073 0.0
H2031 H 0.32636 0.36977 0.59715 0.0
H2032 H 0.33789 0.35714 0.63783 0.0
H2033 H 0.35618 0.37836 0.76673 0.0
H2034 H 0.36807 0.32714 0.89407 0.0
H2035 H 0.35572 0.33926 0.85383 0.0
H2036 H 0.34478 0.32496 0.72564 0.0
C2037 C 0.33424 0.36442 0.65443 0.0
C2038 C 0.35332 0.36659 0.75778 0.0
C2039 C 0.32772 0.37176 0.63097 0.0
C2040 C 0.36964 0.32817 0.8601 0.0
C2041 C 0.36264 0.33517 0.83719 0.0
C2042 C 0.34728 0.33661 0.73474 0.0
C2043 C 0.33631 0.36672 0.6984 0.0
C2044 C 0.34333 0.3589 0.72324 0.0
C2045 C 0.36445 0.33677 0.79318 0.0
C2046 C 0.35716 0.34433 0.76918 0.0
H2047 H 0.32215 0.39183 0.71075 0.0
H2048 H 0.33291 0.3785 0.75212 0.0
H2049 H 0.33243 0.33731 0.68646 0.0
H2050 H 0.38764 0.32056 0.7786 0.0
H2051 H 0.37495 0.33246 0.73835 0.0
C2052 C 0.00871 0.32397 0.2948 0.0
C2053 C 0.00943 0.3225 0.33881 0.0
C2054 C 0.02236 0.33006 0.27039 0.0
C2055 C 0.06416 0.33944 0.2751 0.0
H2056 H 0.06866 0.36569 0.17858 0.0
C2057 C 0.12318 0.38075 0.19192 0.0
C2058 C 0.1232 0.37888 0.14785 0.0
C2059 C 0.10913 0.37308 0.21459 0.0
C2060 C 0.06748 0.3583 0.20533 0.0
H2061 H 0.02502 0.32643 0.39184 0.0
H2062 H 0.04881 0.33764 0.34978 0.0
H2063 H 0.04439 0.35394 0.21949 0.0
H2064 H 0.10852 0.36759 0.09295 0.0
H2065 H 0.08392 0.35455 0.13264 0.0
H2066 H 0.08761 0.34446 0.26164 0.0
C2067 C 0.03771 0.33361 0.33368 0.0
C2068 C 0.05355 0.35147 0.22864 0.0
C2069 C 0.02405 0.32728 0.35793 0.0
C2070 C 0.10889 0.36922 0.1269 0.0
C2071 C 0.09482 0.36181 0.14948 0.0
C2072 C 0.07818 0.34652 0.25224 0.0
C2073 C 0.03706 0.33505 0.28956 0.0
C2074 C 0.05172 0.34197 0.26393 0.0
C2075 C 0.09484 0.36368 0.19347 0.0
C2076 C 0.07994 0.356 0.21724 0.0
H2077 H -0.00243 0.32026 0.27915 0.0
H2078 H 0.02134 0.33071 0.23644 0.0
H2079 H 0.06308 0.33193 0.30142 0.0
H2080 H 0.13403 0.38807 0.20892 0.0
H2081 H 0.10937 0.37471 0.24854 0.0
C2082 C 0.81015 0.75227 0.29288 0.0
C2083 C 0.81169 0.7543 0.33693 0.0
C2084 C 0.804 0.7599 0.26894 0.0
C2085 C 0.79463 0.79225 0.27529 0.0
H2086 H 0.76829 0.77095 0.17831 0.0
C2087 C 0.75355 0.81055 0.19266 0.0
C2088 C 0.75547 0.81254 0.14863 0.0
C2089 C 0.76114 0.80404 0.21525 0.0
C2090 C 0.7757 0.77703 0.20521 0.0
H2091 H 0.80778 0.7657 0.39056 0.0
H2092 H 0.79647 0.77838 0.34933 0.0
H2093 H 0.78 0.75822 0.21854 0.0
H2094 H 0.76678 0.80922 0.09374 0.0
H2095 H 0.77968 0.79748 0.13325 0.0
H2096 H 0.78968 0.81077 0.26261 0.0
C2097 C 0.80049 0.7714 0.33283 0.0
C2098 C 0.78251 0.76982 0.22813 0.0
C2099 C 0.80689 0.76401 0.35659 0.0
C2100 C 0.76511 0.8079 0.12766 0.0
C2101 C 0.77243 0.80112 0.15014 0.0
C2102 C 0.78757 0.79931 0.25282 0.0
C2103 C 0.799 0.76949 0.28866 0.0
C2104 C 0.79205 0.77733 0.26354 0.0
C2105 C 0.77051 0.79914 0.19406 0.0
C2106 C 0.77807 0.79175 0.21764 0.0
H2107 H 0.81387 0.74495 0.27682 0.0
H2108 H 0.8033 0.75836 0.23494 0.0
H2109 H 0.80218 0.79857 0.30174 0.0
H2110 H 0.74624 0.81406 0.20967 0.0
H2111 H 0.75946 0.80255 0.24915 0.0
C2112 C 0.32738 0.02505 0.12913 0.0
C2113 C 0.32323 0.01084 0.14974 0.0
C2114 C 0.3345 0.03919 0.15147 0.0
C2115 C 0.35564 0.05687 0.25216 0.0
H2116 H 0.347 0.09009 0.22234 0.0
C2117 C 0.37198 0.11078 0.35719 0.0
C2118 C 0.38103 0.12545 0.33755 0.0
C2119 C 0.36514 0.09702 0.33329 0.0
C2120 C 0.34957 0.08092 0.23069 0.0
H2121 H 0.32287 0.00024 0.21013 0.0
H2122 H 0.33465 0.02479 0.24957 0.0
H2123 H 0.33404 0.06531 0.18346 0.0
H2124 H 0.38974 0.13723 0.27738 0.0
H2125 H 0.3773 0.11302 0.23533 0.0
H2126 H 0.37068 0.07238 0.30056 0.0
C2127 C 0.33294 0.02514 0.21583 0.0
C2128 C 0.34222 0.06675 0.20839 0.0
C2129 C 0.32606 0.01102 0.19332 0.0
C2130 C 0.38287 0.12609 0.29337 0.0
C2131 C 0.37574 0.1123 0.26934 0.0
C2132 C 0.36273 0.07091 0.27491 0.0
C2133 C 0.3374 0.03943 0.19512 0.0
C2134 C 0.34516 0.05453 0.21885 0.0
C2135 C 0.36696 0.09767 0.28924 0.0
C2136 C 0.35975 0.08302 0.26434 0.0
H2137 H 0.32546 0.02532 0.09547 0.0
H2138 H 0.33801 0.04995 0.13423 0.0
H2139 H 0.3585 0.04791 0.26053 0.0
H2140 H 0.37039 0.10988 0.39117 0.0
H2141 H 0.35832 0.08585 0.3492 0.0
loop_
_geom_bond_atom_site_label_1
_geom_bond_atom_site_label_2
_geom_bond_distance
_geom_bond_site_symmetry_2
_ccdc_geom_bond_type
Co0 O2 2.143 . S
Co0 O8 2.074 . S
Co0 O11 2.093 . S
Co0 O24 2.097 . S
Co0 N41 2.151 . S
Co0 N49 2.214 . S
Co1 O2 2.160 . S
Co1 O7 2.058 . S
Co1 O17 2.057 . S
Co1 O32 2.037 . S
Co1 N36 2.145 . S
Co1 N57 2.257 . S
O2 Co0 2.143 . S
O2 Co1 2.160 . S
C3 O4 1.278 . S
C3 O11 1.224 . S
O4 C3 1.278 . S
C5 O6 1.245 . S
C5 O17 1.232 . S
O6 C5 1.245 . S
O7 Co1 2.058 . S
O7 C33 1.269 . S
O8 Co0 2.074 . S
O8 C33 1.257 . S
H9 C34 0.930 . S
H10 C40 0.930 . S
O11 Co0 2.093 . S
O11 C3 1.224 . S
H12 C44 0.929 . S
H13 C46 0.930 . S
H14 C47 0.930 . S
H15 C45 0.929 . S
H16 C48 0.928 . S
O17 Co1 2.057 . S
O17 C5 1.232 . S
H18 C37 0.929 . S
H19 C38 0.929 . S
H20 C50 0.931 . S
H21 C42 0.929 . S
H22 C51 0.930 . S
H23 C43 0.931 . S
O24 Co0 2.097 . S
O24 C52 1.214 . S
H25 C53 0.929 . S
H26 C54 0.929 . S
H27 C55 0.987 . S
H28 C56 0.929 . S
H29 C58 0.930 . S
H30 C35 0.930 . S
H31 C39 0.930 . S
O32 Co1 2.037 . S
O32 C52 1.234 . S
C33 O7 1.269 . S
C33 O8 1.257 . S
C34 H9 0.930 . S
C34 C37 1.388 . S
C34 C39 1.418 . S
C35 H30 0.930 . S
C35 C38 1.404 . S
C35 C39 1.353 . S
N36 Co1 2.145 . S
N36 C37 1.397 . S
N36 C38 1.334 . S
C37 H18 0.929 . S
C37 C34 1.388 . S
C37 N36 1.397 . S
C38 H19 0.929 . S
C38 C35 1.404 . S
C38 N36 1.334 . S
C39 H31 0.930 . S
C39 C34 1.418 . S
C39 C35 1.353 . S
C40 H10 0.930 . S
C40 N41 1.330 . S
C40 C42 1.446 . S
N41 Co0 2.151 . S
N41 C40 1.330 . S
N41 C45 1.418 . S
C42 H21 0.929 . S
C42 C40 1.446 . S
C42 C43 1.332 . S
C43 H23 0.931 . S
C43 C42 1.332 . S
C43 C44 1.267 . S
C44 H12 0.929 . S
C44 C43 1.267 . S
C44 C45 1.251 . S
C45 H15 0.929 . S
C45 N41 1.418 . S
C45 C44 1.251 . S
C46 H13 0.930 . S
C46 C48 1.406 . S
C46 C51 1.261 . S
C47 H14 0.930 . S
C47 N49 1.325 . S
C47 C50 1.357 . S
C48 H16 0.928 . S
C48 C46 1.406 . S
C48 N49 1.261 . S
N49 Co0 2.214 . S
N49 C47 1.325 . S
N49 C48 1.261 . S
C50 H20 0.931 . S
C50 C47 1.357 . S
C50 C51 1.312 . S
C51 H22 0.930 . S
C51 C46 1.261 . S
C51 C50 1.312 . S
C52 O24 1.214 . S
C52 O32 1.234 . S
C53 H25 0.929 . S
C53 C56 1.391 . S
C53 C58 1.391 . S
C54 H26 0.929 . S
C54 C55 1.390 . S
C54 N57 1.391 . S
C55 H27 0.987 . S
C55 C54 1.390 . S
C55 C56 1.392 . S
C56 H28 0.929 . S
C56 C53 1.391 . S
C56 C55 1.392 . S
N57 Co1 2.257 . S
N57 C54 1.391 . S
N57 C58 1.388 . S
C58 H29 0.930 . S
C58 C53 1.391 . S
C58 N57 1.388 . S
Co59 O61 2.143 . S
Co59 O67 2.074 . S
Co59 O70 2.093 . S
Co59 O83 2.097 . S
Co59 N100 2.151 . S
Co59 N108 2.214 . S
Co60 O61 2.160 . S
Co60 O66 2.058 . S
Co60 O76 2.057 . S
Co60 O91 2.037 . S
Co60 N95 2.145 . S
Co60 N116 2.257 . S
O61 Co59 2.143 . S
O61 Co60 2.160 . S
C62 O63 1.278 . S
C62 O70 1.224 . S
O63 C62 1.278 . S
C64 O65 1.245 . S
C64 O76 1.232 . S
O65 C64 1.245 . S
O66 Co60 2.058 . S
O66 C92 1.269 . S
O67 Co59 2.074 . S
O67 C92 1.257 . S
H68 C93 0.930 . S
H69 C99 0.930 . S
O70 Co59 2.093 . S
O70 C62 1.224 . S
H71 C103 0.929 . S
H72 C105 0.930 . S
H73 C106 0.930 . S
H74 C104 0.929 . S
H75 C107 0.928 . S
O76 Co60 2.057 . S
O76 C64 1.232 . S
H77 C96 0.929 . S
H78 C97 0.929 . S
H79 C109 0.931 . S
H80 C101 0.929 . S
H81 C110 0.930 . S
H82 C102 0.931 . S
O83 Co59 2.097 . S
O83 C111 1.214 . S
H84 C112 0.929 . S
H85 C113 0.929 . S
H86 C114 0.930 . S
H87 C115 0.929 . S
H88 C117 0.930 . S
H89 C94 0.930 . S
H90 C98 0.930 . S
O91 Co60 2.037 . S
O91 C111 1.234 . S
C92 O66 1.269 . S
C92 O67 1.257 . S
C93 H68 0.930 . S
C93 C96 1.388 . S
C93 C98 1.418 . S
C94 H89 0.930 . S
C94 C97 1.404 . S
C94 C98 1.353 . S
N95 Co60 2.145 . S
N95 C96 1.397 . S
N95 C97 1.334 . S
C96 H77 0.929 . S
C96 C93 1.388 . S
C96 N95 1.397 . S
C97 H78 0.929 . S
C97 C94 1.404 . S
C97 N95 1.334 . S
C98 H90 0.930 . S
C98 C93 1.418 . S
C98 C94 1.353 . S
C99 H69 0.930 . S
C99 N100 1.330 . S
C99 C101 1.446 . S
N100 Co59 2.151 . S
N100 C99 1.330 . S
N100 C104 1.418 . S
C101 H80 0.929 . S
C101 C99 1.446 . S
C101 C102 1.332 . S
C102 H82 0.931 . S
C102 C101 1.332 . S
C102 C103 1.267 . S
C103 H71 0.929 . S
C103 C102 1.267 . S
C103 C104 1.251 . S
C104 H74 0.929 . S
C104 N100 1.418 . S
C104 C103 1.251 . S
C105 H72 0.930 . S
C105 C107 1.406 . S
C105 C110 1.261 . S
C106 H73 0.930 . S
C106 N108 1.325 . S
C106 C109 1.357 . S
C107 H75 0.928 . S
C107 C105 1.406 . S
C107 N108 1.261 . S
N108 Co59 2.214 . S
N108 C106 1.325 . S
N108 C107 1.261 . S
C109 H79 0.931 . S
C109 C106 1.357 . S
C109 C110 1.312 . S
C110 H81 0.930 . S
C110 C105 1.261 . S
C110 C109 1.312 . S
C111 O83 1.214 . S
C111 O91 1.234 . S
C112 H84 0.929 . S
C112 C115 1.391 . S
C112 C117 1.391 . S
C113 H85 0.929 . S
C113 C114 1.390 . S
C113 N116 1.391 . S
C114 H86 0.930 . S
C114 C113 1.390 . S
C114 C115 1.392 . S
C115 H87 0.929 . S
C115 C112 1.391 . S
C115 C114 1.392 . S
N116 Co60 2.257 . S
N116 C113 1.391 . S
N116 C117 1.388 . S
C117 H88 0.930 . S
C117 C112 1.391 . S
C117 N116 1.388 . S
Co118 O120 2.143 . S
Co118 O126 2.074 . S
Co118 O129 2.093 . S
Co118 O142 2.097 . S
Co118 N159 2.151 . S
Co118 N167 2.214 . S
Co119 O120 2.160 . S
Co119 O125 2.058 . S
Co119 O135 2.057 . S
Co119 O150 2.037 . S
Co119 N154 2.145 . S
Co119 N175 2.257 . S
O120 Co118 2.143 . S
O120 Co119 2.160 . S
C121 O122 1.278 . S
C121 O129 1.224 . S
O122 C121 1.278 . S
C123 O124 1.245 . S
C123 O135 1.232 . S
O124 C123 1.245 . S
O125 Co119 2.058 . S
O125 C151 1.269 . S
O126 Co118 2.074 . S
O126 C151 1.257 . S
H127 C152 0.930 . S
H128 C158 0.930 . S
O129 Co118 2.093 . S
O129 C121 1.224 . S
H130 C162 0.929 1_565 S
H131 C164 0.930 . S
H132 C165 0.930 . S
H133 C163 0.929 . S
H134 C166 0.928 . S
O135 Co119 2.057 . S
O135 C123 1.232 . S
H136 C155 0.929 . S
H137 C156 0.929 . S
H138 C168 0.931 . S
H139 C160 0.929 . S
H140 C169 0.930 . S
H141 C161 0.931 1_565 S
O142 Co118 2.097 . S
O142 C170 1.214 . S
H143 C171 0.929 . S
H144 C172 0.929 . S
H145 C173 0.930 . S
H146 C174 0.929 . S
H147 C176 0.930 . S
H148 C153 0.930 . S
H149 C157 0.930 . S
O150 Co119 2.037 . S
O150 C170 1.234 . S
C151 O125 1.269 . S
C151 O126 1.257 . S
C152 H127 0.930 . S
C152 C155 1.388 . S
C152 C157 1.418 . S
C153 H148 0.930 . S
C153 C156 1.404 . S
C153 C157 1.353 . S
N154 Co119 2.145 . S
N154 C155 1.397 . S
N154 C156 1.334 . S
C155 H136 0.929 . S
C155 C152 1.388 . S
C155 N154 1.397 . S
C156 H137 0.929 . S
C156 C153 1.404 . S
C156 N154 1.334 . S
C157 H149 0.930 . S
C157 C152 1.418 . S
C157 C153 1.353 . S
C158 H128 0.930 . S
C158 N159 1.330 . S
C158 C160 1.446 . S
N159 Co118 2.151 . S
N159 C158 1.330 . S
N159 C163 1.418 . S
C160 H139 0.929 . S
C160 C158 1.446 . S
C160 C161 1.332 . S
C161 H141 0.931 1_545 S
C161 C160 1.332 . S
C161 C162 1.267 . S
C162 H130 0.929 1_545 S
C162 C161 1.267 . S
C162 C163 1.251 . S
C163 H133 0.929 . S
C163 N159 1.418 . S
C163 C162 1.251 . S
C164 H131 0.930 . S
C164 C166 1.406 . S
C164 C169 1.261 . S
C165 H132 0.930 . S
C165 N167 1.325 . S
C165 C168 1.357 . S
C166 H134 0.928 . S
C166 C164 1.406 . S
C166 N167 1.261 . S
N167 Co118 2.214 . S
N167 C165 1.325 . S
N167 C166 1.261 . S
C168 H138 0.931 . S
C168 C165 1.357 . S
C168 C169 1.312 . S
C169 H140 0.930 . S
C169 C164 1.261 . S
C169 C168 1.312 . S
C170 O142 1.214 . S
C170 O150 1.234 . S
C171 H143 0.929 . S
C171 C174 1.391 . S
C171 C176 1.391 . S
C172 H144 0.929 . S
C172 C173 1.390 . S
C172 N175 1.391 . S
C173 H145 0.930 . S
C173 C172 1.390 . S
C173 C174 1.392 . S
C174 H146 0.929 . S
C174 C171 1.391 . S
C174 C173 1.392 . S
N175 Co119 2.257 . S
N175 C172 1.391 . S
N175 C176 1.388 . S
C176 H147 0.930 . S
C176 C171 1.391 . S
C176 N175 1.388 . S
Co177 O179 2.143 . S
Co177 O185 2.074 . S
Co177 O188 2.093 . S
Co177 O201 2.097 . S
Co177 N218 2.151 . S
Co177 N226 2.214 . S
Co178 O179 2.160 . S
Co178 O184 2.058 . S
Co178 O194 2.057 . S
Co178 O209 2.037 . S
Co178 N213 2.145 . S
Co178 N234 2.257 . S
O179 Co177 2.143 . S
O179 Co178 2.160 . S
C180 O181 1.278 . S
C180 O188 1.224 . S
O181 C180 1.278 . S
C182 O183 1.245 . S
C182 O194 1.232 . S
O183 C182 1.245 . S
O184 Co178 2.058 . S
O184 C210 1.269 . S
O185 Co177 2.074 . S
O185 C210 1.257 . S
H186 C211 0.930 . S
H187 C217 0.930 . S
O188 Co177 2.093 . S
O188 C180 1.224 . S
H189 C221 0.929 1_655 S
H190 C223 0.930 . S
H191 C224 0.930 . S
H192 C222 0.929 . S
H193 C225 0.928 . S
O194 Co178 2.057 . S
O194 C182 1.232 . S
H195 C214 0.929 . S
H196 C215 0.929 . S
H197 C227 0.931 . S
H198 C219 0.929 . S
H199 C228 0.930 . S
H200 C220 0.931 1_655 S
O201 Co177 2.097 . S
O201 C229 1.214 . S
H202 C230 0.929 . S
H203 C231 0.929 . S
H204 C232 0.930 . S
H205 C233 0.929 . S
H206 C235 0.930 . S
H207 C212 0.930 . S
H208 C216 0.930 . S
O209 Co178 2.037 . S
O209 C229 1.234 . S
C210 O184 1.269 . S
C210 O185 1.257 . S
C211 H186 0.930 . S
C211 C214 1.388 . S
C211 C216 1.418 . S
C212 H207 0.930 . S
C212 C215 1.404 . S
C212 C216 1.353 . S
N213 Co178 2.145 . S
N213 C214 1.397 . S
N213 C215 1.334 . S
C214 H195 0.929 . S
C214 C211 1.388 . S
C214 N213 1.397 . S
C215 H196 0.929 . S
C215 C212 1.404 . S
C215 N213 1.334 . S
C216 H208 0.930 . S
C216 C211 1.418 . S
C216 C212 1.353 . S
C217 H187 0.930 . S
C217 N218 1.330 . S
C217 C219 1.446 . S
N218 Co177 2.151 . S
N218 C217 1.330 . S
N218 C222 1.418 . S
C219 H198 0.929 . S
C219 C217 1.446 . S
C219 C220 1.332 . S
C220 H200 0.931 1_455 S
C220 C219 1.332 . S
C220 C221 1.267 . S
C221 H189 0.929 1_455 S
C221 C220 1.267 . S
C221 C222 1.251 . S
C222 H192 0.929 . S
C222 N218 1.418 . S
C222 C221 1.251 . S
C223 H190 0.930 . S
C223 C225 1.406 . S
C223 C228 1.261 . S
C224 H191 0.930 . S
C224 N226 1.325 . S
C224 C227 1.357 . S
C225 H193 0.928 . S
C225 C223 1.406 . S
C225 N226 1.261 . S
N226 Co177 2.214 . S
N226 C224 1.325 . S
N226 C225 1.261 . S
C227 H197 0.931 . S
C227 C224 1.357 . S
C227 C228 1.312 . S
C228 H199 0.930 . S
C228 C223 1.261 . S
C228 C227 1.312 . S
C229 O201 1.214 . S
C229 O209 1.234 . S
C230 H202 0.929 . S
C230 C233 1.391 . S
C230 C235 1.391 . S
C231 H203 0.929 . S
C231 C232 1.390 . S
C231 N234 1.391 . S
C232 H204 0.930 . S
C232 C231 1.390 . S
C232 C233 1.392 . S
C233 H205 0.929 . S
C233 C230 1.391 . S
C233 C232 1.392 . S
N234 Co178 2.257 . S
N234 C231 1.391 . S
N234 C235 1.388 . S
C235 H206 0.930 . S
C235 C230 1.391 . S
C235 N234 1.388 . S
Co236 O238 2.143 . S
Co236 O244 2.074 . S
Co236 O247 2.093 . S
Co236 O260 2.097 . S
Co236 N277 2.151 . S
Co236 N285 2.214 . S
Co237 O238 2.160 . S
Co237 O243 2.058 . S
Co237 O253 2.057 . S
Co237 O268 2.037 . S
Co237 N272 2.145 . S
Co237 N293 2.257 . S
O238 Co236 2.143 . S
O238 Co237 2.160 . S
C239 O240 1.278 . S
C239 O247 1.224 . S
O240 C239 1.278 . S
C241 O242 1.245 . S
C241 O253 1.232 . S
O242 C241 1.245 . S
O243 Co237 2.058 . S
O243 C269 1.269 . S
O244 Co236 2.074 . S
O244 C269 1.257 . S
H245 C270 0.930 . S
H246 C276 0.930 . S
O247 Co236 2.093 . S
O247 C239 1.224 . S
H248 C280 0.929 . S
H249 C282 0.930 . S
H250 C283 0.930 . S
H251 C281 0.929 . S
H252 C284 0.928 . S
O253 Co237 2.057 . S
O253 C241 1.232 . S
H254 C273 0.929 . S
H255 C274 0.929 . S
H256 C286 0.931 . S
H257 C278 0.929 . S
H258 C287 0.930 . S
H259 C279 0.931 . S
O260 Co236 2.097 . S
O260 C288 1.214 . S
H261 C289 0.929 . S
H262 C290 0.929 . S
H263 C291 0.930 . S
H264 C292 0.929 . S
H265 C294 0.930 . S
H266 C271 0.930 . S
H267 C275 0.930 . S
O268 Co237 2.037 . S
O268 C288 1.234 . S
C269 O243 1.269 . S
C269 O244 1.257 . S
C270 H245 0.930 . S
C270 C273 1.388 . S
C270 C275 1.418 . S
C271 H266 0.930 . S
C271 C274 1.404 . S
C271 C275 1.353 . S
N272 Co237 2.145 . S
N272 C273 1.397 . S
N272 C274 1.334 . S
C273 H254 0.929 . S
C273 C270 1.388 . S
C273 N272 1.397 . S
C274 H255 0.929 . S
C274 C271 1.404 . S
C274 N272 1.334 . S
C275 H267 0.930 . S
C275 C270 1.418 . S
C275 C271 1.353 . S
C276 H246 0.930 . S
C276 N277 1.330 . S
C276 C278 1.446 . S
N277 Co236 2.151 . S
N277 C276 1.330 . S
N277 C281 1.418 . S
C278 H257 0.929 . S
C278 C276 1.446 . S
C278 C279 1.332 . S
C279 H259 0.931 . S
C279 C278 1.332 . S
C279 C280 1.267 . S
C280 H248 0.929 . S
C280 C279 1.267 . S
C280 C281 1.251 . S
C281 H251 0.929 . S
C281 N277 1.418 . S
C281 C280 1.251 . S
C282 H249 0.930 . S
C282 C284 1.406 . S
C282 C287 1.261 . S
C283 H250 0.930 . S
C283 N285 1.325 . S
C283 C286 1.357 . S
C284 H252 0.928 . S
C284 C282 1.406 . S
C284 N285 1.261 . S
N285 Co236 2.214 . S
N285 C283 1.325 . S
N285 C284 1.261 . S
C286 H256 0.931 . S
C286 C283 1.357 . S
C286 C287 1.312 . S
C287 H258 0.930 . S
C287 C282 1.261 . S
C287 C286 1.312 . S
C288 O260 1.214 . S
C288 O268 1.234 . S
C289 H261 0.929 . S
C289 C292 1.391 . S
C289 C294 1.391 . S
C290 H262 0.929 . S
C290 C291 1.390 . S
C290 N293 1.391 . S
C291 H263 0.930 . S
C291 C290 1.390 . S
C291 C292 1.392 . S
C292 H264 0.929 . S
C292 C289 1.391 . S
C292 C291 1.392 . S
N293 Co237 2.257 . S
N293 C290 1.391 . S
N293 C294 1.388 . S
C294 H265 0.930 . S
C294 C289 1.391 . S
C294 N293 1.388 . S
Co295 O297 2.143 . S
Co295 O303 2.074 . S
Co295 O306 2.093 . S
Co295 O319 2.097 . S
Co295 N336 2.151 . S
Co295 N344 2.214 . S
Co296 O297 2.160 . S
Co296 O302 2.058 . S
Co296 O312 2.057 . S
Co296 O327 2.037 . S
Co296 N331 2.145 . S
Co296 N352 2.257 . S
O297 Co295 2.143 . S
O297 Co296 2.160 . S
C298 O299 1.278 . S
C298 O306 1.224 . S
O299 C298 1.278 . S
C300 O301 1.245 . S
C300 O312 1.232 . S
O301 C300 1.245 . S
O302 Co296 2.058 . S
O302 C328 1.269 . S
O303 Co295 2.074 . S
O303 C328 1.257 . S
H304 C329 0.930 . S
H305 C335 0.930 . S
O306 Co295 2.093 . S
O306 C298 1.224 . S
H307 C339 0.929 . S
H308 C341 0.930 . S
H309 C342 0.930 . S
H310 C340 0.929 . S
H311 C343 0.928 . S
O312 Co296 2.057 . S
O312 C300 1.232 . S
H313 C332 0.929 . S
H314 C333 0.929 . S
H315 C345 0.931 . S
H316 C337 0.929 . S
H317 C346 0.930 . S
H318 C338 0.931 . S
O319 Co295 2.097 . S
O319 C347 1.214 . S
H320 C348 0.929 . S
H321 C349 0.929 . S
H322 C350 0.941 . S
H323 C351 0.929 . S
H324 C353 0.930 . S
H325 C330 0.930 . S
H326 C334 0.930 . S
O327 Co296 2.037 . S
O327 C347 1.234 . S
C328 O302 1.269 . S
C328 O303 1.257 . S
C329 H304 0.930 . S
C329 C332 1.388 . S
C329 C334 1.418 . S
C330 H325 0.930 . S
C330 C333 1.404 . S
C330 C334 1.353 . S
N331 Co296 2.145 . S
N331 C332 1.397 . S
N331 C333 1.334 . S
C332 H313 0.929 . S
C332 C329 1.388 . S
C332 N331 1.397 . S
C333 H314 0.929 . S
C333 C330 1.404 . S
C333 N331 1.334 . S
C334 H326 0.930 . S
C334 C329 1.418 . S
C334 C330 1.353 . S
C335 H305 0.930 . S
C335 N336 1.330 . S
C335 C337 1.446 . S
N336 Co295 2.151 . S
N336 C335 1.330 . S
N336 C340 1.418 . S
C337 H316 0.929 . S
C337 C335 1.446 . S
C337 C338 1.332 . S
C338 H318 0.931 . S
C338 C337 1.332 . S
C338 C339 1.267 . S
C339 H307 0.929 . S
C339 C338 1.267 . S
C339 C340 1.251 . S
C340 H310 0.929 . S
C340 N336 1.418 . S
C340 C339 1.251 . S
C341 H308 0.930 . S
C341 C343 1.406 . S
C341 C346 1.261 . S
C342 H309 0.930 . S
C342 N344 1.325 . S
C342 C345 1.357 . S
C343 H311 0.928 . S
C343 C341 1.406 . S
C343 N344 1.261 . S
N344 Co295 2.214 . S
N344 C342 1.325 . S
N344 C343 1.261 . S
C345 H315 0.931 . S
C345 C342 1.357 . S
C345 C346 1.312 . S
C346 H317 0.930 . S
C346 C341 1.261 . S
C346 C345 1.312 . S
C347 O319 1.214 . S
C347 O327 1.234 . S
C348 H320 0.929 . S
C348 C351 1.391 . S
C348 C353 1.391 . S
C349 H321 0.929 . S
C349 C350 1.390 . S
C349 N352 1.391 . S
C350 H322 0.941 . S
C350 C349 1.390 . S
C350 C351 1.392 . S
C351 H323 0.929 . S
C351 C348 1.391 . S
C351 C350 1.392 . S
N352 Co296 2.257 . S
N352 C349 1.391 . S
N352 C353 1.388 . S
C353 H324 0.930 . S
C353 C348 1.391 . S
C353 N352 1.388 . S
Co354 O356 2.143 . S
Co354 O362 2.074 . S
Co354 O365 2.093 . S
Co354 O378 2.097 . S
Co354 N395 2.151 . S
Co354 N403 2.214 . S
Co355 O356 2.160 . S
Co355 O361 2.058 . S
Co355 O371 2.057 . S
Co355 O386 2.037 . S
Co355 N390 2.160 . S
Co355 N411 2.257 . S
O356 Co354 2.143 . S
O356 Co355 2.160 . S
C357 O358 1.278 . S
C357 O365 1.224 . S
O358 C357 1.278 . S
C359 O360 1.245 . S
C359 O371 1.232 . S
O360 C359 1.245 . S
O361 Co355 2.058 . S
O361 C387 1.269 . S
O362 Co354 2.074 . S
O362 C387 1.257 . S
H363 C388 0.930 . S
H364 C394 0.930 . S
O365 Co354 2.093 . S
O365 C357 1.224 . S
H366 C398 0.929 . S
H367 C400 0.930 . S
H368 C401 0.930 . S
H369 C399 0.929 . S
H370 C402 0.928 . S
O371 Co355 2.057 . S
O371 C359 1.232 . S
H372 C391 0.929 . S
H373 C392 0.929 . S
H374 C404 0.931 1_545 S
H375 C396 0.929 . S
H376 C405 0.930 . S
H377 C397 0.931 . S
O378 Co354 2.097 . S
O378 C406 1.235 . S
H379 C407 0.929 . S
H380 C408 0.929 1_545 S
H381 C409 0.930 1_545 S
H382 C410 0.929 . S
H383 C412 0.930 . S
H384 C389 0.930 . S
H385 C393 0.930 . S
O386 Co355 2.037 . S
O386 C406 1.243 . S
C387 O361 1.269 . S
C387 O362 1.257 . S
C388 H363 0.930 . S
C388 C391 1.388 . S
C388 C393 1.418 . S
C389 H384 0.930 . S
C389 C392 1.404 1_545 S
C389 C393 1.353 . S
N390 Co355 2.160 . S
N390 C391 1.364 1_565 S
N390 C392 1.351 . S
C391 H372 0.929 . S
C391 C388 1.388 . S
C391 N390 1.364 1_545 S
C392 H373 0.929 . S
C392 C389 1.404 1_565 S
C392 N390 1.351 . S
C393 H385 0.930 . S
C393 C388 1.418 . S
C393 C389 1.353 . S
C394 H364 0.930 . S
C394 N395 1.330 . S
C394 C396 1.446 . S
N395 Co354 2.151 . S
N395 C394 1.330 . S
N395 C399 1.418 . S
C396 H375 0.929 . S
C396 C394 1.446 . S
C396 C397 1.332 . S
C397 H377 0.931 . S
C397 C396 1.332 . S
C397 C398 1.267 . S
C398 H366 0.929 . S
C398 C397 1.267 . S
C398 C399 1.251 . S
C399 H369 0.929 . S
C399 N395 1.418 . S
C399 C398 1.251 . S
C400 H367 0.930 . S
C400 C402 1.406 . S
C400 C405 1.261 . S
C401 H368 0.930 . S
C401 N403 1.325 . S
C401 C404 1.357 . S
C402 H370 0.928 . S
C402 C400 1.406 . S
C402 N403 1.261 . S
N403 Co354 2.214 . S
N403 C401 1.325 . S
N403 C402 1.261 . S
C404 H374 0.931 1_565 S
C404 C401 1.357 . S
C404 C405 1.312 . S
C405 H376 0.930 . S
C405 C400 1.261 . S
C405 C404 1.312 . S
C406 O378 1.235 . S
C406 O386 1.243 . S
C407 H379 0.929 . S
C407 C410 1.391 . S
C407 C412 1.391 . S
C408 H380 0.929 1_565 S
C408 C409 1.390 . S
C408 N411 1.391 . S
C409 H381 0.930 1_565 S
C409 C408 1.390 . S
C409 C410 1.392 . S
C410 H382 0.929 . S
C410 C407 1.391 . S
C410 C409 1.392 . S
N411 Co355 2.257 . S
N411 C408 1.391 . S
N411 C412 1.388 . S
C412 H383 0.930 . S
C412 C407 1.391 . S
C412 N411 1.388 . S
Co413 O415 2.143 . S
Co413 O421 2.074 . S
Co413 O424 2.093 . S
Co413 O437 2.097 . S
Co413 N454 2.151 . S
Co413 N462 2.214 . S
Co414 O415 2.160 . S
Co414 O420 2.058 . S
Co414 O430 2.057 . S
Co414 O445 2.037 . S
Co414 N449 2.145 . S
Co414 N470 2.257 . S
O415 Co413 2.143 . S
O415 Co414 2.160 . S
C416 O417 1.278 . S
C416 O424 1.224 . S
O417 C416 1.278 . S
C418 O419 1.245 . S
C418 O430 1.232 . S
O419 C418 1.245 . S
O420 Co414 2.058 . S
O420 C446 1.269 . S
O421 Co413 2.074 . S
O421 C446 1.257 . S
H422 C447 0.930 . S
H423 C453 0.930 . S
O424 Co413 2.093 . S
O424 C416 1.224 . S
H425 C457 0.929 . S
H426 C459 0.930 . S
H427 C460 0.930 . S
H428 C458 0.929 . S
H429 C461 0.928 . S
O430 Co414 2.057 . S
O430 C418 1.232 . S
H431 C450 0.929 . S
H432 C451 0.929 . S
H433 C463 0.931 . S
H434 C455 0.929 . S
H435 C464 0.930 . S
H436 C456 0.931 . S
O437 Co413 2.097 . S
O437 C465 1.214 . S
H438 C466 0.929 . S
H439 C467 0.929 . S
H440 C468 0.930 . S
H441 C469 0.929 . S
H442 C471 0.930 . S
H443 C448 0.930 . S
H444 C452 0.930 . S
O445 Co414 2.037 . S
O445 C465 1.234 . S
C446 O420 1.269 . S
C446 O421 1.257 . S
C447 H422 0.930 . S
C447 C450 1.388 . S
C447 C452 1.418 . S
C448 H443 0.930 . S
C448 C451 1.404 . S
C448 C452 1.353 . S
N449 Co414 2.145 . S
N449 C450 1.397 . S
N449 C451 1.334 . S
C450 H431 0.929 . S
C450 C447 1.388 . S
C450 N449 1.397 . S
C451 H432 0.929 . S
C451 C448 1.404 . S
C451 N449 1.334 . S
C452 H444 0.930 . S
C452 C447 1.418 . S
C452 C448 1.353 . S
C453 H423 0.930 . S
C453 N454 1.330 . S
C453 C455 1.446 . S
N454 Co413 2.151 . S
N454 C453 1.330 . S
N454 C458 1.418 . S
C455 H434 0.929 . S
C455 C453 1.446 . S
C455 C456 1.332 . S
C456 H436 0.931 . S
C456 C455 1.332 . S
C456 C457 1.267 . S
C457 H425 0.929 . S
C457 C456 1.267 . S
C457 C458 1.251 . S
C458 H428 0.929 . S
C458 N454 1.418 . S
C458 C457 1.251 . S
C459 H426 0.930 . S
C459 C461 1.406 . S
C459 C464 1.261 . S
C460 H427 0.930 . S
C460 N462 1.325 . S
C460 C463 1.357 . S
C461 H429 0.928 . S
C461 C459 1.406 . S
C461 N462 1.261 . S
N462 Co413 2.214 . S
N462 C460 1.325 . S
N462 C461 1.261 . S
C463 H433 0.931 . S
C463 C460 1.357 . S
C463 C464 1.312 . S
C464 H435 0.930 . S
C464 C459 1.261 . S
C464 C463 1.312 . S
C465 O437 1.214 . S
C465 O445 1.234 . S
C466 H438 0.929 . S
C466 C469 1.391 . S
C466 C471 1.391 . S
C467 H439 0.929 . S
C467 C468 1.390 . S
C467 N470 1.391 . S
C468 H440 0.930 . S
C468 C467 1.390 . S
C468 C469 1.392 . S
C469 H441 0.929 . S
C469 C466 1.391 . S
C469 C468 1.392 . S
N470 Co414 2.257 . S
N470 C467 1.391 . S
N470 C471 1.388 . S
C471 H442 0.930 . S
C471 C466 1.391 . S
C471 N470 1.388 . S
Co472 O474 2.143 . S
Co472 O480 2.074 . S
Co472 O483 2.093 . S
Co472 O496 2.097 . S
Co472 N513 2.151 . S
Co472 N521 2.214 . S
Co473 O474 2.160 . S
Co473 O479 2.058 . S
Co473 O489 2.057 . S
Co473 O504 2.037 . S
Co473 N508 2.145 . S
Co473 N529 2.257 . S
O474 Co472 2.143 . S
O474 Co473 2.160 . S
C475 O476 1.278 . S
C475 O483 1.224 . S
O476 C475 1.278 . S
C477 O478 1.245 . S
C477 O489 1.232 . S
O478 C477 1.245 . S
O479 Co473 2.058 . S
O479 C505 1.269 . S
O480 Co472 2.074 . S
O480 C505 1.257 . S
H481 C506 0.930 . S
H482 C512 0.930 . S
O483 Co472 2.093 . S
O483 C475 1.224 . S
H484 C516 0.929 . S
H485 C518 0.930 . S
H486 C519 0.930 . S
H487 C517 0.929 . S
H488 C520 0.928 . S
O489 Co473 2.057 . S
O489 C477 1.232 . S
H490 C509 0.929 . S
H491 C510 0.929 . S
H492 C522 0.931 . S
H493 C514 0.929 . S
H494 C523 0.930 . S
H495 C515 0.931 . S
O496 Co472 2.097 . S
O496 C524 1.214 . S
H497 C525 0.929 . S
H498 C526 0.929 . S
H499 C527 0.930 . S
H500 C528 0.929 . S
H501 C530 0.930 . S
H502 C507 0.930 . S
H503 C511 0.930 . S
O504 Co473 2.037 . S
O504 C524 1.234 . S
C505 O479 1.269 . S
C505 O480 1.257 . S
C506 H481 0.930 . S
C506 C509 1.388 . S
C506 C511 1.418 . S
C507 H502 0.930 . S
C507 C510 1.404 . S
C507 C511 1.353 . S
N508 Co473 2.145 . S
N508 C509 1.397 . S
N508 C510 1.334 . S
C509 H490 0.929 . S
C509 C506 1.388 . S
C509 N508 1.397 . S
C510 H491 0.929 . S
C510 C507 1.404 . S
C510 N508 1.334 . S
C511 H503 0.930 . S
C511 C506 1.418 . S
C511 C507 1.353 . S
C512 H482 0.930 . S
C512 N513 1.330 . S
C512 C514 1.446 . S
N513 Co472 2.151 . S
N513 C512 1.330 . S
N513 C517 1.418 . S
C514 H493 0.929 . S
C514 C512 1.446 . S
C514 C515 1.332 . S
C515 H495 0.931 . S
C515 C514 1.332 . S
C515 C516 1.267 . S
C516 H484 0.929 . S
C516 C515 1.267 . S
C516 C517 1.251 . S
C517 H487 0.929 . S
C517 N513 1.418 . S
C517 C516 1.251 . S
C518 H485 0.930 . S
C518 C520 1.406 . S
C518 C523 1.261 . S
C519 H486 0.930 . S
C519 N521 1.325 . S
C519 C522 1.357 . S
C520 H488 0.928 . S
C520 C518 1.406 . S
C520 N521 1.261 . S
N521 Co472 2.214 . S
N521 C519 1.325 . S
N521 C520 1.261 . S
C522 H492 0.931 . S
C522 C519 1.357 . S
C522 C523 1.312 . S
C523 H494 0.930 . S
C523 C518 1.261 . S
C523 C522 1.312 . S
C524 O496 1.214 . S
C524 O504 1.234 . S
C525 H497 0.929 . S
C525 C528 1.391 . S
C525 C530 1.391 . S
C526 H498 0.929 . S
C526 C527 1.390 . S
C526 N529 1.391 . S
C527 H499 0.930 . S
C527 C526 1.390 . S
C527 C528 1.392 . S
C528 H500 0.929 . S
C528 C525 1.391 . S
C528 C527 1.392 . S
N529 Co473 2.257 . S
N529 C526 1.391 . S
N529 C530 1.388 . S
C530 H501 0.930 . S
C530 C525 1.391 . S
C530 N529 1.388 . S
Co531 O533 2.143 . S
Co531 O539 2.074 . S
Co531 O542 2.093 . S
Co531 O555 2.097 . S
Co531 N572 2.151 . S
Co531 N580 2.214 . S
Co532 O533 2.160 . S
Co532 O538 2.058 . S
Co532 O548 2.057 1_554 S
Co532 O563 2.037 . S
Co532 N567 2.145 1_554 S
Co532 N588 2.257 . S
O533 Co531 2.143 . S
O533 Co532 2.160 . S
C534 O535 1.278 . S
C534 O542 1.224 . S
O535 C534 1.278 . S
C536 O537 1.245 1_556 S
C536 O548 1.232 . S
O537 C536 1.245 1_554 S
O538 Co532 2.058 . S
O538 C564 1.269 . S
O539 Co531 2.074 . S
O539 C564 1.257 . S
H540 C565 0.930 . S
H541 C571 0.930 . S
O542 Co531 2.093 . S
O542 C534 1.224 . S
H543 C575 0.929 . S
H544 C577 0.930 . S
H545 C578 0.930 . S
H546 C576 0.929 . S
H547 C579 0.928 . S
O548 Co532 2.057 1_556 S
O548 C536 1.232 . S
H549 C568 0.929 . S
H550 C569 0.929 . S
H551 C581 0.931 . S
H552 C573 0.929 . S
H553 C582 0.930 . S
H554 C574 0.931 . S
O555 Co531 2.097 . S
O555 C583 1.214 . S
H556 C584 0.929 . S
H557 C585 0.929 . S
H558 C586 0.930 . S
H559 C587 0.929 . S
H560 C589 0.930 . S
H561 C566 0.930 . S
H562 C570 0.930 . S
O563 Co532 2.037 . S
O563 C583 1.234 . S
C564 O538 1.269 . S
C564 O539 1.257 . S
C565 H540 0.930 . S
C565 C568 1.388 1_556 S
C565 C570 1.418 . S
C566 H561 0.930 . S
C566 C569 1.404 . S
C566 C570 1.353 . S
N567 Co532 2.145 1_556 S
N567 C568 1.397 1_556 S
N567 C569 1.334 . S
C568 H549 0.929 . S
C568 C565 1.388 1_554 S
C568 N567 1.397 1_554 S
C569 H550 0.929 . S
C569 C566 1.404 . S
C569 N567 1.334 . S
C570 H562 0.930 . S
C570 C565 1.418 . S
C570 C566 1.353 . S
C571 H541 0.930 . S
C571 N572 1.330 . S
C571 C573 1.446 . S
N572 Co531 2.151 . S
N572 C571 1.330 . S
N572 C576 1.418 . S
C573 H552 0.929 . S
C573 C571 1.446 . S
C573 C574 1.332 . S
C574 H554 0.931 . S
C574 C573 1.332 . S
C574 C575 1.267 . S
C575 H543 0.929 . S
C575 C574 1.267 . S
C575 C576 1.251 . S
C576 H546 0.929 . S
C576 N572 1.418 . S
C576 C575 1.251 . S
C577 H544 0.930 . S
C577 C579 1.406 . S
C577 C582 1.261 . S
C578 H545 0.930 . S
C578 N580 1.325 . S
C578 C581 1.357 . S
C579 H547 0.928 . S
C579 C577 1.406 . S
C579 N580 1.261 . S
N580 Co531 2.214 . S
N580 C578 1.325 . S
N580 C579 1.261 . S
C581 H551 0.931 . S
C581 C578 1.357 . S
C581 C582 1.312 . S
C582 H553 0.930 . S
C582 C577 1.261 . S
C582 C581 1.312 . S
C583 O555 1.214 . S
C583 O563 1.234 . S
C584 H556 0.929 . S
C584 C587 1.391 . S
C584 C589 1.391 . S
C585 H557 0.929 . S
C585 C586 1.390 . S
C585 N588 1.391 . S
C586 H558 0.930 . S
C586 C585 1.390 . S
C586 C587 1.392 . S
C587 H559 0.929 . S
C587 C584 1.391 . S
C587 C586 1.392 . S
N588 Co532 2.257 . S
N588 C585 1.391 . S
N588 C589 1.388 . S
C589 H560 0.930 . S
C589 C584 1.391 . S
C589 N588 1.388 . S
Co590 O592 2.143 . S
Co590 O598 2.074 . S
Co590 O601 2.093 . S
Co590 O614 2.097 . S
Co590 N631 2.151 . S
Co590 N639 2.214 . S
Co591 O592 2.160 . S
Co591 O597 2.058 . S
Co591 O607 2.057 1_554 S
Co591 O622 2.037 . S
Co591 N626 2.170 1_554 S
Co591 N647 2.257 . S
O592 Co590 2.143 . S
O592 Co591 2.160 . S
C593 O594 1.278 . S
C593 O601 1.224 . S
O594 C593 1.278 . S
C595 O596 1.245 1_556 S
C595 O607 1.232 . S
O596 C595 1.245 1_554 S
O597 Co591 2.058 . S
O597 C623 1.269 . S
O598 Co590 2.074 . S
O598 C623 1.257 . S
H599 C624 0.930 . S
H600 C630 0.930 . S
O601 Co590 2.093 . S
O601 C593 1.224 . S
H602 C634 0.929 . S
H603 C636 0.930 . S
H604 C637 0.930 . S
H605 C635 0.929 . S
H606 C638 0.928 . S
O607 Co591 2.057 1_556 S
O607 C595 1.232 . S
H608 C627 0.929 . S
H609 C628 0.929 . S
H610 C640 0.931 1_545 S
H611 C632 0.929 . S
H612 C641 0.930 . S
H613 C633 0.931 . S
O614 Co590 2.097 . S
O614 C642 1.249 . S
H615 C643 0.929 . S
H616 C644 0.929 1_545 S
H617 C645 0.930 1_545 S
H618 C646 0.929 . S
H619 C648 0.930 . S
H620 C625 0.930 . S
H621 C629 0.930 . S
O622 Co591 2.037 . S
O622 C642 1.229 . S
C623 O597 1.269 . S
C623 O598 1.257 . S
C624 H599 0.930 . S
C624 C627 1.388 1_556 S
C624 C629 1.418 . S
C625 H620 0.930 . S
C625 C628 1.404 1_545 S
C625 C629 1.353 . S
N626 Co591 2.170 1_556 S
N626 C627 1.376 1_566 S
N626 C628 1.331 . S
C627 H608 0.929 . S
C627 C624 1.388 1_554 S
C627 N626 1.376 1_544 S
C628 H609 0.929 . S
C628 C625 1.404 1_565 S
C628 N626 1.331 . S
C629 H621 0.930 . S
C629 C624 1.418 . S
C629 C625 1.353 . S
C630 H600 0.930 . S
C630 N631 1.330 . S
C630 C632 1.446 . S
N631 Co590 2.151 . S
N631 C630 1.330 . S
N631 C635 1.418 . S
C632 H611 0.929 . S
C632 C630 1.446 . S
C632 C633 1.332 . S
C633 H613 0.931 . S
C633 C632 1.332 . S
C633 C634 1.267 . S
C634 H602 0.929 . S
C634 C633 1.267 . S
C634 C635 1.251 . S
C635 H605 0.929 . S
C635 N631 1.418 . S
C635 C634 1.251 . S
C636 H603 0.930 . S
C636 C638 1.406 . S
C636 C641 1.261 . S
C637 H604 0.930 . S
C637 N639 1.325 . S
C637 C640 1.357 . S
C638 H606 0.928 . S
C638 C636 1.406 . S
C638 N639 1.261 . S
N639 Co590 2.214 . S
N639 C637 1.325 . S
N639 C638 1.261 . S
C640 H610 0.931 1_565 S
C640 C637 1.357 . S
C640 C641 1.312 . S
C641 H612 0.930 . S
C641 C636 1.261 . S
C641 C640 1.312 . S
C642 O614 1.249 . S
C642 O622 1.229 . S
C643 H615 0.929 . S
C643 C646 1.391 . S
C643 C648 1.391 . S
C644 H616 0.929 1_565 S
C644 C645 1.390 . S
C644 N647 1.391 . S
C645 H617 0.930 1_565 S
C645 C644 1.390 . S
C645 C646 1.392 . S
C646 H618 0.929 . S
C646 C643 1.391 . S
C646 C645 1.392 . S
N647 Co591 2.257 . S
N647 C644 1.391 . S
N647 C648 1.388 . S
C648 H619 0.930 . S
C648 C643 1.391 . S
C648 N647 1.388 . S
Co649 O651 2.143 . S
Co649 O657 2.074 . S
Co649 O660 2.093 . S
Co649 O673 2.097 . S
Co649 N690 2.151 . S
Co649 N698 2.214 . S
Co650 O651 2.160 . S
Co650 O656 2.058 . S
Co650 O666 2.057 1_554 S
Co650 O681 2.037 . S
Co650 N685 2.145 1_554 S
Co650 N706 2.257 . S
O651 Co649 2.143 . S
O651 Co650 2.160 . S
C652 O653 1.278 . S
C652 O660 1.224 . S
O653 C652 1.278 . S
C654 O655 1.245 1_556 S
C654 O666 1.232 . S
O655 C654 1.245 1_554 S
O656 Co650 2.058 . S
O656 C682 1.269 . S
O657 Co649 2.074 . S
O657 C682 1.257 . S
H658 C683 0.930 . S
H659 C689 0.930 . S
O660 Co649 2.093 . S
O660 C652 1.224 . S
H661 C693 0.929 . S
H662 C695 0.930 . S
H663 C696 0.930 . S
H664 C694 0.929 . S
H665 C697 0.928 . S
O666 Co650 2.057 1_556 S
O666 C654 1.232 . S
H667 C686 0.929 . S
H668 C687 0.929 . S
H669 C699 0.931 . S
H670 C691 0.929 . S
H671 C700 0.930 . S
H672 C692 0.931 . S
O673 Co649 2.097 . S
O673 C701 1.214 . S
H674 C702 0.929 . S
H675 C703 0.929 . S
H676 C704 0.930 . S
H677 C705 0.929 . S
H678 C707 0.930 . S
H679 C684 0.930 . S
H680 C688 0.930 . S
O681 Co650 2.037 . S
O681 C701 1.234 . S
C682 O656 1.269 . S
C682 O657 1.257 . S
C683 H658 0.930 . S
C683 C686 1.388 1_556 S
C683 C688 1.418 . S
C684 H679 0.930 . S
C684 C687 1.404 . S
C684 C688 1.353 . S
N685 Co650 2.145 1_556 S
N685 C686 1.397 1_556 S
N685 C687 1.334 . S
C686 H667 0.929 . S
C686 C683 1.388 1_554 S
C686 N685 1.397 1_554 S
C687 H668 0.929 . S
C687 C684 1.404 . S
C687 N685 1.334 . S
C688 H680 0.930 . S
C688 C683 1.418 . S
C688 C684 1.353 . S
C689 H659 0.930 . S
C689 N690 1.330 . S
C689 C691 1.446 . S
N690 Co649 2.151 . S
N690 C689 1.330 . S
N690 C694 1.418 . S
C691 H670 0.929 . S
C691 C689 1.446 . S
C691 C692 1.332 . S
C692 H672 0.931 . S
C692 C691 1.332 . S
C692 C693 1.267 . S
C693 H661 0.929 . S
C693 C692 1.267 . S
C693 C694 1.251 . S
C694 H664 0.929 . S
C694 N690 1.418 . S
C694 C693 1.251 . S
C695 H662 0.930 . S
C695 C697 1.406 . S
C695 C700 1.261 . S
C696 H663 0.930 . S
C696 N698 1.325 . S
C696 C699 1.357 . S
C697 H665 0.928 . S
C697 C695 1.406 . S
C697 N698 1.261 . S
N698 Co649 2.214 . S
N698 C696 1.325 . S
N698 C697 1.261 . S
C699 H669 0.931 . S
C699 C696 1.357 . S
C699 C700 1.312 . S
C700 H671 0.930 . S
C700 C695 1.261 . S
C700 C699 1.312 . S
C701 O673 1.214 . S
C701 O681 1.234 . S
C702 H674 0.929 . S
C702 C705 1.391 . S
C702 C707 1.391 . S
C703 H675 0.929 . S
C703 C704 1.390 . S
C703 N706 1.391 . S
C704 H676 0.930 . S
C704 C703 1.390 . S
C704 C705 1.392 . S
C705 H677 0.929 . S
C705 C702 1.391 . S
C705 C704 1.392 . S
N706 Co650 2.257 . S
N706 C703 1.391 . S
N706 C707 1.388 . S
C707 H678 0.930 . S
C707 C702 1.391 . S
C707 N706 1.388 . S
Co708 O710 2.143 . S
Co708 O716 2.074 . S
Co708 O719 2.093 . S
Co708 O732 2.097 . S
Co708 N749 2.151 . S
Co708 N757 2.214 . S
Co709 O710 2.160 . S
Co709 O715 2.058 . S
Co709 O725 2.057 1_556 S
Co709 O740 2.037 . S
Co709 N744 2.145 1_556 S
Co709 N765 2.257 . S
O710 Co708 2.143 . S
O710 Co709 2.160 . S
C711 O712 1.278 . S
C711 O719 1.224 . S
O712 C711 1.278 . S
C713 O714 1.245 1_554 S
C713 O725 1.232 . S
O714 C713 1.245 1_556 S
O715 Co709 2.058 . S
O715 C741 1.269 . S
O716 Co708 2.074 . S
O716 C741 1.257 . S
H717 C742 0.930 . S
H718 C748 0.930 . S
O719 Co708 2.093 . S
O719 C711 1.224 . S
H720 C752 0.929 . S
H721 C754 0.930 . S
H722 C755 0.930 . S
H723 C753 0.929 . S
H724 C756 0.928 . S
O725 Co709 2.057 1_554 S
O725 C713 1.232 . S
H726 C745 0.929 . S
H727 C746 0.929 . S
H728 C758 0.931 . S
H729 C750 0.929 . S
H730 C759 0.930 . S
H731 C751 0.931 . S
O732 Co708 2.097 . S
O732 C760 1.214 . S
H733 C761 0.929 . S
H734 C762 0.929 . S
H735 C763 0.930 . S
H736 C764 0.929 . S
H737 C766 0.930 . S
H738 C743 0.930 . S
H739 C747 0.930 . S
O740 Co709 2.037 . S
O740 C760 1.234 . S
C741 O715 1.269 . S
C741 O716 1.257 . S
C742 H717 0.930 . S
C742 C745 1.388 1_554 S
C742 C747 1.418 . S
C743 H738 0.930 . S
C743 C746 1.404 . S
C743 C747 1.353 . S
N744 Co709 2.145 1_554 S
N744 C745 1.397 1_554 S
N744 C746 1.334 . S
C745 H726 0.929 . S
C745 C742 1.388 1_556 S
C745 N744 1.397 1_556 S
C746 H727 0.929 . S
C746 C743 1.404 . S
C746 N744 1.334 . S
C747 H739 0.930 . S
C747 C742 1.418 . S
C747 C743 1.353 . S
C748 H718 0.930 . S
C748 N749 1.330 . S
C748 C750 1.446 . S
N749 Co708 2.151 . S
N749 C748 1.330 . S
N749 C753 1.418 . S
C750 H729 0.929 . S
C750 C748 1.446 . S
C750 C751 1.332 . S
C751 H731 0.931 . S
C751 C750 1.332 . S
C751 C752 1.267 . S
C752 H720 0.929 . S
C752 C751 1.267 . S
C752 C753 1.251 . S
C753 H723 0.929 . S
C753 N749 1.418 . S
C753 C752 1.251 . S
C754 H721 0.930 . S
C754 C756 1.406 . S
C754 C759 1.261 . S
C755 H722 0.930 . S
C755 N757 1.325 . S
C755 C758 1.357 . S
C756 H724 0.928 . S
C756 C754 1.406 . S
C756 N757 1.261 . S
N757 Co708 2.214 . S
N757 C755 1.325 . S
N757 C756 1.261 . S
C758 H728 0.931 . S
C758 C755 1.357 . S
C758 C759 1.312 . S
C759 H730 0.930 . S
C759 C754 1.261 . S
C759 C758 1.312 . S
C760 O732 1.214 . S
C760 O740 1.234 . S
C761 H733 0.929 . S
C761 C764 1.391 . S
C761 C766 1.391 . S
C762 H734 0.929 . S
C762 C763 1.390 . S
C762 N765 1.391 . S
C763 H735 0.930 . S
C763 C762 1.390 . S
C763 C764 1.392 . S
C764 H736 0.929 . S
C764 C761 1.391 . S
C764 C763 1.392 . S
N765 Co709 2.257 . S
N765 C762 1.391 . S
N765 C766 1.388 . S
C766 H737 0.930 . S
C766 C761 1.391 . S
C766 N765 1.388 . S
Co767 O769 2.143 . S
Co767 O775 2.074 . S
Co767 O778 2.093 1_556 S
Co767 O791 2.097 . S
Co767 N808 2.151 . S
Co767 N816 2.214 1_556 S
Co768 O769 2.160 . S
Co768 O774 2.058 . S
Co768 O784 2.057 . S
Co768 O799 2.037 . S
Co768 N803 2.145 . S
Co768 N824 2.257 . S
O769 Co767 2.143 . S
O769 Co768 2.160 . S
C770 O771 1.278 1_554 S
C770 O778 1.224 . S
O771 C770 1.278 1_556 S
C772 O773 1.245 . S
C772 O784 1.232 . S
O773 C772 1.245 . S
O774 Co768 2.058 . S
O774 C800 1.269 . S
O775 Co767 2.074 . S
O775 C800 1.257 . S
H776 C801 0.930 . S
H777 C807 0.930 . S
O778 Co767 2.093 1_554 S
O778 C770 1.224 . S
H779 C811 0.929 . S
H780 C813 0.930 . S
H781 C814 0.930 1_556 S
H782 C812 0.929 . S
H783 C815 0.928 . S
O784 Co768 2.057 . S
O784 C772 1.232 . S
H785 C804 0.929 . S
H786 C805 0.929 . S
H787 C817 0.931 . S
H788 C809 0.929 . S
H789 C818 0.930 . S
H790 C810 0.931 . S
O791 Co767 2.097 . S
O791 C819 1.214 . S
H792 C820 0.929 . S
H793 C821 0.929 . S
H794 C822 0.930 . S
H795 C823 0.929 . S
H796 C825 0.930 . S
H797 C802 0.930 . S
H798 C806 0.930 . S
O799 Co768 2.037 . S
O799 C819 1.234 . S
C800 O774 1.269 . S
C800 O775 1.257 . S
C801 H776 0.930 . S
C801 C804 1.388 . S
C801 C806 1.418 . S
C802 H797 0.930 . S
C802 C805 1.404 . S
C802 C806 1.353 . S
N803 Co768 2.145 . S
N803 C804 1.397 . S
N803 C805 1.334 . S
C804 H785 0.929 . S
C804 C801 1.388 . S
C804 N803 1.397 . S
C805 H786 0.929 . S
C805 C802 1.404 . S
C805 N803 1.334 . S
C806 H798 0.930 . S
C806 C801 1.418 . S
C806 C802 1.353 . S
C807 H777 0.930 . S
C807 N808 1.330 . S
C807 C809 1.446 . S
N808 Co767 2.151 . S
N808 C807 1.330 . S
N808 C812 1.418 . S
C809 H788 0.929 . S
C809 C807 1.446 . S
C809 C810 1.332 . S
C810 H790 0.931 . S
C810 C809 1.332 . S
C810 C811 1.267 . S
C811 H779 0.929 . S
C811 C810 1.267 . S
C811 C812 1.251 . S
C812 H782 0.929 . S
C812 N808 1.418 . S
C812 C811 1.251 . S
C813 H780 0.930 . S
C813 C815 1.406 . S
C813 C818 1.261 . S
C814 H781 0.930 1_554 S
C814 N816 1.325 . S
C814 C817 1.357 . S
C815 H783 0.928 . S
C815 C813 1.406 . S
C815 N816 1.261 . S
N816 Co767 2.214 1_554 S
N816 C814 1.325 . S
N816 C815 1.261 . S
C817 H787 0.931 . S
C817 C814 1.357 . S
C817 C818 1.312 . S
C818 H789 0.930 . S
C818 C813 1.261 . S
C818 C817 1.312 . S
C819 O791 1.214 . S
C819 O799 1.234 . S
C820 H792 0.929 . S
C820 C823 1.391 . S
C820 C825 1.391 . S
C821 H793 0.929 . S
C821 C822 1.390 . S
C821 N824 1.391 . S
C822 H794 0.930 . S
C822 C821 1.390 . S
C822 C823 1.392 . S
C823 H795 0.929 . S
C823 C820 1.391 . S
C823 C822 1.392 . S
N824 Co768 2.257 . S
N824 C821 1.391 . S
N824 C825 1.388 . S
C825 H796 0.930 . S
C825 C820 1.391 . S
C825 N824 1.388 . S
Co826 O828 2.143 . S
Co826 O834 2.074 . S
Co826 O837 2.093 . S
Co826 O850 2.097 . S
Co826 N867 2.151 . S
Co826 N875 2.214 . S
Co827 O828 2.160 . S
Co827 O833 2.058 . S
Co827 O843 2.041 1_556 S
Co827 O858 2.076 . S
Co827 N862 2.143 1_656 S
Co827 N883 2.257 . S
O828 Co826 2.143 . S
O828 Co827 2.160 . S
C829 O830 1.278 . S
C829 O837 1.224 . S
O830 C829 1.278 . S
C831 O832 1.245 1_554 S
C831 O843 1.234 . S
O832 C831 1.245 1_556 S
O833 Co827 2.058 . S
O833 C859 1.269 . S
O834 Co826 2.074 . S
O834 C859 1.257 . S
H835 C860 0.930 . S
H836 C866 0.930 . S
O837 Co826 2.093 . S
O837 C829 1.224 . S
H838 C870 0.929 . S
H839 C872 0.930 . S
H840 C873 0.930 . S
H841 C871 0.929 . S
H842 C874 0.928 . S
O843 Co827 2.041 1_554 S
O843 C831 1.234 . S
H844 C863 0.929 . S
H845 C864 0.929 . S
H846 C876 0.931 1_455 S
H847 C868 0.929 . S
H848 C877 0.930 . S
H849 C869 0.931 . S
O850 Co826 2.097 . S
O850 C878 1.211 . S
H851 C879 0.929 . S
H852 C880 0.929 1_455 S
H853 C881 0.930 1_455 S
H854 C882 0.929 . S
H855 C884 0.930 . S
H856 C861 0.930 . S
H857 C865 0.930 . S
O858 Co827 2.076 . S
O858 C878 1.222 . S
C859 O833 1.269 . S
C859 O834 1.257 . S
C860 H835 0.930 . S
C860 C863 1.388 1_554 S
C860 C865 1.418 . S
C861 H856 0.930 . S
C861 C864 1.404 1_455 S
C861 C865 1.353 . S
N862 Co827 2.143 1_454 S
N862 C863 1.400 1_554 S
N862 C864 1.333 1_455 S
C863 H844 0.929 . S
C863 C860 1.388 1_556 S
C863 N862 1.400 1_556 S
C864 H845 0.929 . S
C864 C861 1.404 1_655 S
C864 N862 1.333 1_655 S
C865 H857 0.930 . S
C865 C860 1.418 . S
C865 C861 1.353 . S
C866 H836 0.930 . S
C866 N867 1.330 . S
C866 C868 1.446 . S
N867 Co826 2.151 . S
N867 C866 1.330 . S
N867 C871 1.418 . S
C868 H847 0.929 . S
C868 C866 1.446 . S
C868 C869 1.332 . S
C869 H849 0.931 . S
C869 C868 1.332 . S
C869 C870 1.267 . S
C870 H838 0.929 . S
C870 C869 1.267 . S
C870 C871 1.251 . S
C871 H841 0.929 . S
C871 N867 1.418 . S
C871 C870 1.251 . S
C872 H839 0.930 . S
C872 C874 1.406 . S
C872 C877 1.261 . S
C873 H840 0.930 . S
C873 N875 1.325 . S
C873 C876 1.357 . S
C874 H842 0.928 . S
C874 C872 1.406 . S
C874 N875 1.261 . S
N875 Co826 2.214 . S
N875 C873 1.325 . S
N875 C874 1.261 . S
C876 H846 0.931 1_655 S
C876 C873 1.357 . S
C876 C877 1.312 . S
C877 H848 0.930 . S
C877 C872 1.261 . S
C877 C876 1.312 . S
C878 O850 1.211 . S
C878 O858 1.222 . S
C879 H851 0.929 . S
C879 C882 1.391 . S
C879 C884 1.391 . S
C880 H852 0.929 1_655 S
C880 C881 1.390 . S
C880 N883 1.391 . S
C881 H853 0.930 1_655 S
C881 C880 1.390 . S
C881 C882 1.392 . S
C882 H854 0.929 . S
C882 C879 1.391 . S
C882 C881 1.392 . S
N883 Co827 2.257 . S
N883 C880 1.391 . S
N883 C884 1.388 . S
C884 H855 0.930 . S
C884 C879 1.391 . S
C884 N883 1.388 . S
Co885 O887 2.143 . S
Co885 O893 2.074 . S
Co885 O896 2.093 . S
Co885 O909 2.097 . S
Co885 N926 2.151 . S
Co885 N934 2.214 . S
Co886 O887 2.160 . S
Co886 O892 2.058 . S
Co886 O902 2.057 . S
Co886 O917 2.037 . S
Co886 N921 2.145 . S
Co886 N942 2.257 . S
O887 Co885 2.143 . S
O887 Co886 2.160 . S
C888 O889 1.278 . S
C888 O896 1.224 . S
O889 C888 1.278 . S
C890 O891 1.245 . S
C890 O902 1.232 . S
O891 C890 1.245 . S
O892 Co886 2.058 . S
O892 C918 1.269 . S
O893 Co885 2.074 . S
O893 C918 1.257 . S
H894 C919 0.930 . S
H895 C925 0.930 . S
O896 Co885 2.093 . S
O896 C888 1.224 . S
H897 C929 0.929 . S
H898 C931 0.930 . S
H899 C932 0.930 . S
H900 C930 0.929 . S
H901 C933 0.928 . S
O902 Co886 2.057 . S
O902 C890 1.232 . S
H903 C922 0.929 . S
H904 C923 0.929 . S
H905 C935 0.931 . S
H906 C927 0.929 . S
H907 C936 0.930 . S
H908 C928 0.931 . S
O909 Co885 2.097 . S
O909 C937 1.214 . S
H910 C938 0.929 . S
H911 C939 0.929 . S
H912 C940 0.930 . S
H913 C941 0.929 . S
H914 C943 0.930 . S
H915 C920 0.930 . S
H916 C924 0.930 . S
O917 Co886 2.037 . S
O917 C937 1.234 . S
C918 O892 1.269 . S
C918 O893 1.257 . S
C919 H894 0.930 . S
C919 C922 1.388 . S
C919 C924 1.418 . S
C920 H915 0.930 . S
C920 C923 1.404 . S
C920 C924 1.353 . S
N921 Co886 2.145 . S
N921 C922 1.397 . S
N921 C923 1.334 . S
C922 H903 0.929 . S
C922 C919 1.388 . S
C922 N921 1.397 . S
C923 H904 0.929 . S
C923 C920 1.404 . S
C923 N921 1.334 . S
C924 H916 0.930 . S
C924 C919 1.418 . S
C924 C920 1.353 . S
C925 H895 0.930 . S
C925 N926 1.330 . S
C925 C927 1.446 . S
N926 Co885 2.151 . S
N926 C925 1.330 . S
N926 C930 1.418 . S
C927 H906 0.929 . S
C927 C925 1.446 . S
C927 C928 1.332 . S
C928 H908 0.931 . S
C928 C927 1.332 . S
C928 C929 1.267 . S
C929 H897 0.929 . S
C929 C928 1.267 . S
C929 C930 1.251 . S
C930 H900 0.929 . S
C930 N926 1.418 . S
C930 C929 1.251 . S
C931 H898 0.930 . S
C931 C933 1.406 . S
C931 C936 1.261 . S
C932 H899 0.930 . S
C932 N934 1.325 . S
C932 C935 1.357 . S
C933 H901 0.928 . S
C933 C931 1.406 . S
C933 N934 1.261 . S
N934 Co885 2.214 . S
N934 C932 1.325 . S
N934 C933 1.261 . S
C935 H905 0.931 . S
C935 C932 1.357 . S
C935 C936 1.312 . S
C936 H907 0.930 . S
C936 C931 1.261 . S
C936 C935 1.312 . S
C937 O909 1.214 . S
C937 O917 1.234 . S
C938 H910 0.929 . S
C938 C941 1.391 . S
C938 C943 1.391 . S
C939 H911 0.929 . S
C939 C940 1.390 . S
C939 N942 1.391 . S
C940 H912 0.930 . S
C940 C939 1.390 . S
C940 C941 1.392 . S
C941 H913 0.929 . S
C941 C938 1.391 . S
C941 C940 1.392 . S
N942 Co886 2.257 . S
N942 C939 1.391 . S
N942 C943 1.388 . S
C943 H914 0.930 . S
C943 C938 1.391 . S
C943 N942 1.388 . S
Co944 O946 2.143 . S
Co944 O952 2.074 . S
Co944 O955 2.093 . S
Co944 O968 2.097 . S
Co944 N985 2.151 . S
Co944 N993 2.214 . S
Co945 O946 2.160 . S
Co945 O951 2.058 . S
Co945 O961 2.057 . S
Co945 O976 2.070 . S
Co945 N980 2.140 1_655 S
Co945 N1001 2.257 . S
O946 Co944 2.143 . S
O946 Co945 2.160 . S
C947 O948 1.278 . S
C947 O955 1.224 . S
O948 C947 1.278 . S
C949 O950 1.245 . S
C949 O961 1.232 . S
O950 C949 1.245 . S
O951 Co945 2.058 . S
O951 C977 1.269 . S
O952 Co944 2.074 . S
O952 C977 1.257 . S
H953 C978 0.930 . S
H954 C984 0.930 . S
O955 Co944 2.093 . S
O955 C947 1.224 . S
H956 C988 0.929 . S
H957 C990 0.930 . S
H958 C991 0.930 . S
H959 C989 0.929 . S
H960 C992 0.928 . S
O961 Co945 2.057 . S
O961 C949 1.232 . S
H962 C981 0.929 . S
H963 C982 0.929 . S
H964 C994 0.931 1_455 S
H965 C986 0.929 . S
H966 C995 0.930 . S
H967 C987 0.931 . S
O968 Co944 2.097 . S
O968 C996 1.210 . S
H969 C997 0.929 . S
H970 C998 0.929 1_455 S
H971 C999 0.930 1_455 S
H972 C1000 0.929 . S
H973 C1002 0.930 . S
H974 C979 0.930 . S
H975 C983 0.930 . S
O976 Co945 2.070 . S
O976 C996 1.243 . S
C977 O951 1.269 . S
C977 O952 1.257 . S
C978 H953 0.930 . S
C978 C981 1.388 . S
C978 C983 1.418 . S
C979 H974 0.930 . S
C979 C982 1.404 1_455 S
C979 C983 1.353 . S
N980 Co945 2.140 1_455 S
N980 C981 1.401 . S
N980 C982 1.335 1_455 S
C981 H962 0.929 . S
C981 C978 1.388 . S
C981 N980 1.401 . S
C982 H963 0.929 . S
C982 C979 1.404 1_655 S
C982 N980 1.335 1_655 S
C983 H975 0.930 . S
C983 C978 1.418 . S
C983 C979 1.353 . S
C984 H954 0.930 . S
C984 N985 1.330 . S
C984 C986 1.446 . S
N985 Co944 2.151 . S
N985 C984 1.330 . S
N985 C989 1.418 . S
C986 H965 0.929 . S
C986 C984 1.446 . S
C986 C987 1.332 . S
C987 H967 0.931 . S
C987 C986 1.332 . S
C987 C988 1.267 . S
C988 H956 0.929 . S
C988 C987 1.267 . S
C988 C989 1.251 . S
C989 H959 0.929 . S
C989 N985 1.418 . S
C989 C988 1.251 . S
C990 H957 0.930 . S
C990 C992 1.406 . S
C990 C995 1.261 . S
C991 H958 0.930 . S
C991 N993 1.325 . S
C991 C994 1.357 . S
C992 H960 0.928 . S
C992 C990 1.406 . S
C992 N993 1.261 . S
N993 Co944 2.214 . S
N993 C991 1.325 . S
N993 C992 1.261 . S
C994 H964 0.931 1_655 S
C994 C991 1.357 . S
C994 C995 1.312 . S
C995 H966 0.930 . S
C995 C990 1.261 . S
C995 C994 1.312 . S
C996 O968 1.210 . S
C996 O976 1.243 . S
C997 H969 0.929 . S
C997 C1000 1.391 . S
C997 C1002 1.391 . S
C998 H970 0.929 1_655 S
C998 C999 1.390 . S
C998 N1001 1.391 . S
C999 H971 0.930 1_655 S
C999 C998 1.390 . S
C999 C1000 1.392 . S
C1000 H972 0.929 . S
C1000 C997 1.391 . S
C1000 C999 1.392 . S
N1001 Co945 2.257 . S
N1001 C998 1.391 . S
N1001 C1002 1.388 . S
C1002 H973 0.930 . S
C1002 C997 1.391 . S
C1002 N1001 1.388 . S
Co1003 O1005 2.143 . S
Co1003 O1011 2.074 . S
Co1003 O1014 2.093 . S
Co1003 O1027 2.097 . S
Co1003 N1044 2.151 . S
Co1003 N1052 2.214 . S
Co1004 O1005 2.160 . S
Co1004 O1010 2.058 . S
Co1004 O1020 2.057 . S
Co1004 O1035 2.037 . S
Co1004 N1039 2.145 . S
Co1004 N1060 2.257 . S
O1005 Co1003 2.143 . S
O1005 Co1004 2.160 . S
C1006 O1007 1.278 . S
C1006 O1014 1.224 . S
O1007 C1006 1.278 . S
C1008 O1009 1.245 . S
C1008 O1020 1.232 . S
O1009 C1008 1.245 . S
O1010 Co1004 2.058 . S
O1010 C1036 1.269 . S
O1011 Co1003 2.074 . S
O1011 C1036 1.257 . S
H1012 C1037 0.930 . S
H1013 C1043 0.930 . S
O1014 Co1003 2.093 . S
O1014 C1006 1.224 . S
H1015 C1047 0.929 . S
H1016 C1049 0.930 . S
H1017 C1050 0.930 . S
H1018 C1048 0.929 . S
H1019 C1051 0.928 . S
O1020 Co1004 2.057 . S
O1020 C1008 1.232 . S
H1021 C1040 0.929 . S
H1022 C1041 0.929 . S
H1023 C1053 0.931 . S
H1024 C1045 0.929 . S
H1025 C1054 0.930 . S
H1026 C1046 0.931 . S
O1027 Co1003 2.097 . S
O1027 C1055 1.214 . S
H1028 C1056 0.929 . S
H1029 C1057 0.929 . S
H1030 C1058 0.930 . S
H1031 C1059 0.929 . S
H1032 C1061 0.930 . S
H1033 C1038 0.930 . S
H1034 C1042 0.930 . S
O1035 Co1004 2.037 . S
O1035 C1055 1.234 . S
C1036 O1010 1.269 . S
C1036 O1011 1.257 . S
C1037 H1012 0.930 . S
C1037 C1040 1.388 . S
C1037 C1042 1.418 . S
C1038 H1033 0.930 . S
C1038 C1041 1.404 . S
C1038 C1042 1.353 . S
N1039 Co1004 2.145 . S
N1039 C1040 1.397 . S
N1039 C1041 1.334 . S
C1040 H1021 0.929 . S
C1040 C1037 1.388 . S
C1040 N1039 1.397 . S
C1041 H1022 0.929 . S
C1041 C1038 1.404 . S
C1041 N1039 1.334 . S
C1042 H1034 0.930 . S
C1042 C1037 1.418 . S
C1042 C1038 1.353 . S
C1043 H1013 0.930 . S
C1043 N1044 1.330 . S
C1043 C1045 1.446 . S
N1044 Co1003 2.151 . S
N1044 C1043 1.330 . S
N1044 C1048 1.418 . S
C1045 H1024 0.929 . S
C1045 C1043 1.446 . S
C1045 C1046 1.332 . S
C1046 H1026 0.931 . S
C1046 C1045 1.332 . S
C1046 C1047 1.267 . S
C1047 H1015 0.929 . S
C1047 C1046 1.267 . S
C1047 C1048 1.251 . S
C1048 H1018 0.929 . S
C1048 N1044 1.418 . S
C1048 C1047 1.251 . S
C1049 H1016 0.930 . S
C1049 C1051 1.406 . S
C1049 C1054 1.261 . S
C1050 H1017 0.930 . S
C1050 N1052 1.325 . S
C1050 C1053 1.357 . S
C1051 H1019 0.928 . S
C1051 C1049 1.406 . S
C1051 N1052 1.261 . S
N1052 Co1003 2.214 . S
N1052 C1050 1.325 . S
N1052 C1051 1.261 . S
C1053 H1023 0.931 . S
C1053 C1050 1.357 . S
C1053 C1054 1.312 . S
C1054 H1025 0.930 . S
C1054 C1049 1.261 . S
C1054 C1053 1.312 . S
C1055 O1027 1.214 . S
C1055 O1035 1.234 . S
C1056 H1028 0.929 . S
C1056 C1059 1.391 . S
C1056 C1061 1.391 . S
C1057 H1029 0.929 . S
C1057 C1058 1.390 . S
C1057 N1060 1.391 . S
C1058 H1030 0.930 . S
C1058 C1057 1.390 . S
C1058 C1059 1.392 . S
C1059 H1031 0.929 . S
C1059 C1056 1.391 . S
C1059 C1058 1.392 . S
N1060 Co1004 2.257 . S
N1060 C1057 1.391 . S
N1060 C1061 1.388 . S
C1061 H1032 0.930 . S
C1061 C1056 1.391 . S
C1061 N1060 1.388 . S
C1062 C1063 1.349 . S
C1062 C1064 1.327 . S
C1062 H1087 0.950 . S
C1063 C1062 1.349 . S
C1063 C1079 1.349 . S
C1064 C1062 1.327 . S
C1064 C1083 1.429 . S
C1064 H1088 0.950 . S
C1065 C1082 1.574 . S
C1065 C1084 1.368 . S
C1065 H1089 0.949 . S
H1066 C1070 0.949 . S
C1067 C1068 1.349 . S
C1067 C1069 1.327 . S
C1067 H1090 0.950 . S
C1068 C1067 1.349 . S
C1068 C1080 1.349 . S
C1069 C1067 1.327 . S
C1069 C1085 1.429 . S
C1069 H1091 0.950 . S
C1070 H1066 0.949 . S
C1070 C1078 1.574 . S
C1070 C1086 1.368 . S
H1071 C1079 0.950 . S
H1072 C1077 0.950 . S
H1073 C1078 0.949 . S
H1074 C1080 0.950 . S
H1075 C1081 0.950 . S
H1076 C1082 0.949 . S
C1077 H1072 0.950 . S
C1077 C1079 1.327 . S
C1077 C1083 1.429 . S
C1078 C1070 1.574 . S
C1078 H1073 0.949 . S
C1078 C1084 1.368 1_554 S
C1079 C1063 1.349 . S
C1079 H1071 0.950 . S
C1079 C1077 1.327 . S
C1080 C1068 1.349 . S
C1080 H1074 0.950 . S
C1080 C1081 1.327 . S
C1081 H1075 0.950 . S
C1081 C1080 1.327 . S
C1081 C1085 1.429 . S
C1082 C1065 1.574 . S
C1082 H1076 0.949 . S
C1082 C1086 1.368 1_556 S
C1083 C1064 1.429 . S
C1083 C1077 1.429 . S
C1083 C1084 1.523 . S
C1084 C1065 1.368 . S
C1084 C1078 1.368 1_556 S
C1084 C1083 1.523 . S
C1085 C1069 1.429 . S
C1085 C1081 1.429 . S
C1085 C1086 1.523 . S
C1086 C1070 1.368 . S
C1086 C1082 1.368 1_554 S
C1086 C1085 1.523 . S
H1087 C1062 0.950 . S
H1088 C1064 0.950 . S
H1089 C1065 0.949 . S
H1090 C1067 0.950 . S
H1091 C1069 0.950 . S
C1092 C1093 1.349 . S
C1092 C1094 1.327 . S
C1092 H1117 0.950 . S
C1093 C1092 1.349 . S
C1093 C1109 1.349 . S
C1094 C1092 1.327 . S
C1094 C1113 1.429 . S
C1094 H1118 0.950 . S
C1095 C1112 1.574 . S
C1095 C1114 1.368 1_554 S
C1095 H1119 0.949 . S
H1096 C1100 0.949 . S
C1097 C1098 1.349 . S
C1097 C1099 1.327 . S
C1097 H1120 0.950 . S
C1098 C1097 1.349 . S
C1098 C1110 1.349 . S
C1099 C1097 1.327 . S
C1099 C1115 1.429 . S
C1099 H1121 0.950 . S
C1100 H1096 0.949 . S
C1100 C1108 1.574 . S
C1100 C1116 1.368 1_556 S
H1101 C1109 0.950 . S
H1102 C1107 0.950 . S
H1103 C1108 0.949 . S
H1104 C1110 0.950 . S
H1105 C1111 0.950 . S
H1106 C1112 0.949 . S
C1107 H1102 0.950 . S
C1107 C1109 1.327 . S
C1107 C1113 1.429 . S
C1108 C1100 1.574 . S
C1108 H1103 0.949 . S
C1108 C1114 1.368 . S
C1109 C1093 1.349 . S
C1109 H1101 0.950 . S
C1109 C1107 1.327 . S
C1110 C1098 1.349 . S
C1110 H1104 0.950 . S
C1110 C1111 1.327 . S
C1111 H1105 0.950 . S
C1111 C1110 1.327 . S
C1111 C1115 1.429 . S
C1112 C1095 1.574 . S
C1112 H1106 0.949 . S
C1112 C1116 1.368 . S
C1113 C1094 1.429 . S
C1113 C1107 1.429 . S
C1113 C1114 1.523 . S
C1114 C1095 1.368 1_556 S
C1114 C1108 1.368 . S
C1114 C1113 1.523 . S
C1115 C1099 1.429 . S
C1115 C1111 1.429 . S
C1115 C1116 1.523 . S
C1116 C1100 1.368 1_554 S
C1116 C1112 1.368 . S
C1116 C1115 1.523 . S
H1117 C1092 0.950 . S
H1118 C1094 0.950 . S
H1119 C1095 0.949 . S
H1120 C1097 0.950 . S
H1121 C1099 0.950 . S
C1122 C1123 1.349 . S
C1122 C1124 1.327 . S
C1122 H1147 0.950 . S
C1123 C1122 1.349 . S
C1123 C1139 1.349 . S
C1124 C1122 1.327 . S
C1124 C1143 1.429 . S
C1124 H1148 0.950 . S
C1125 C1142 1.574 1_554 S
C1125 C1144 1.368 . S
C1125 H1149 0.949 . S
H1126 C1130 0.949 . S
C1127 C1128 1.349 . S
C1127 C1129 1.327 . S
C1127 H1150 0.950 . S
C1128 C1127 1.349 . S
C1128 C1140 1.349 . S
C1129 C1127 1.327 . S
C1129 C1145 1.429 . S
C1129 H1151 0.950 . S
C1130 H1126 0.949 . S
C1130 C1138 1.574 1_556 S
C1130 C1146 1.368 . S
H1131 C1139 0.950 . S
H1132 C1137 0.950 . S
H1133 C1138 0.949 . S
H1134 C1140 0.950 . S
H1135 C1141 0.950 . S
H1136 C1142 0.949 . S
C1137 H1132 0.950 . S
C1137 C1139 1.327 . S
C1137 C1143 1.429 . S
C1138 C1130 1.574 1_554 S
C1138 H1133 0.949 . S
C1138 C1144 1.368 . S
C1139 C1123 1.349 . S
C1139 H1131 0.950 . S
C1139 C1137 1.327 . S
C1140 C1128 1.349 . S
C1140 H1134 0.950 . S
C1140 C1141 1.327 . S
C1141 H1135 0.950 . S
C1141 C1140 1.327 . S
C1141 C1145 1.429 . S
C1142 C1125 1.574 1_556 S
C1142 H1136 0.949 . S
C1142 C1146 1.368 . S
C1143 C1124 1.429 . S
C1143 C1137 1.429 . S
C1143 C1144 1.523 . S
C1144 C1125 1.368 . S
C1144 C1138 1.368 . S
C1144 C1143 1.523 . S
C1145 C1129 1.429 . S
C1145 C1141 1.429 . S
C1145 C1146 1.523 . S
C1146 C1130 1.368 . S
C1146 C1142 1.368 . S
C1146 C1145 1.523 . S
H1147 C1122 0.950 . S
H1148 C1124 0.950 . S
H1149 C1125 0.949 . S
H1150 C1127 0.950 . S
H1151 C1129 0.950 . S
C1152 C1153 1.349 . S
C1152 C1154 1.327 . S
C1152 H1177 0.950 . S
C1153 C1152 1.349 . S
C1153 C1169 1.349 . S
C1154 C1152 1.327 . S
C1154 C1173 1.429 . S
C1154 H1178 0.950 . S
C1155 C1172 1.574 . S
C1155 C1174 1.368 . S
C1155 H1179 0.949 . S
H1156 C1160 0.949 . S
C1157 C1158 1.349 . S
C1157 C1159 1.327 . S
C1157 H1180 0.950 . S
C1158 C1157 1.349 . S
C1158 C1170 1.349 . S
C1159 C1157 1.327 . S
C1159 C1175 1.429 . S
C1159 H1181 0.950 . S
C1160 H1156 0.949 . S
C1160 C1168 1.574 . S
C1160 C1176 1.368 . S
H1161 C1169 0.950 . S
H1162 C1167 0.950 . S
H1163 C1168 0.949 . S
H1164 C1170 0.950 . S
H1165 C1171 0.950 . S
H1166 C1172 0.949 . S
C1167 H1162 0.950 . S
C1167 C1169 1.327 . S
C1167 C1173 1.429 . S
C1168 C1160 1.574 . S
C1168 H1163 0.949 . S
C1168 C1174 1.368 . S
C1169 C1153 1.349 . S
C1169 H1161 0.950 . S
C1169 C1167 1.327 . S
C1170 C1158 1.349 . S
C1170 H1164 0.950 . S
C1170 C1171 1.327 . S
C1171 H1165 0.950 . S
C1171 C1170 1.327 . S
C1171 C1175 1.429 . S
C1172 C1155 1.574 . S
C1172 H1166 0.949 . S
C1172 C1176 1.368 . S
C1173 C1154 1.429 . S
C1173 C1167 1.429 . S
C1173 C1174 1.523 . S
C1174 C1155 1.368 . S
C1174 C1168 1.368 . S
C1174 C1173 1.523 . S
C1175 C1159 1.429 . S
C1175 C1171 1.429 . S
C1175 C1176 1.523 . S
C1176 C1160 1.368 . S
C1176 C1172 1.368 . S
C1176 C1175 1.523 . S
H1177 C1152 0.950 . S
H1178 C1154 0.950 . S
H1179 C1155 0.949 . S
H1180 C1157 0.950 . S
H1181 C1159 0.950 . S
C1182 C1183 1.349 . S
C1182 C1184 1.327 . S
C1182 H1207 0.950 . S
C1183 C1182 1.349 . S
C1183 C1199 1.349 . S
C1184 C1182 1.327 . S
C1184 C1203 1.429 . S
C1184 H1208 0.950 . S
C1185 C1202 1.574 . S
C1185 C1204 1.368 . S
C1185 H1209 0.949 . S
H1186 C1190 0.949 . S
C1187 C1188 1.349 . S
C1187 C1189 1.327 . S
C1187 H1210 0.950 . S
C1188 C1187 1.349 . S
C1188 C1200 1.349 . S
C1189 C1187 1.327 . S
C1189 C1205 1.429 . S
C1189 H1211 0.950 . S
C1190 H1186 0.949 . S
C1190 C1198 1.574 . S
C1190 C1206 1.368 . S
H1191 C1199 0.950 . S
H1192 C1197 0.950 . S
H1193 C1198 0.949 . S
H1194 C1200 0.950 . S
H1195 C1201 0.950 . S
H1196 C1202 0.949 . S
C1197 H1192 0.950 . S
C1197 C1199 1.327 . S
C1197 C1203 1.429 . S
C1198 C1190 1.574 . S
C1198 H1193 0.949 . S
C1198 C1204 1.368 . S
C1199 C1183 1.349 . S
C1199 H1191 0.950 . S
C1199 C1197 1.327 . S
C1200 C1188 1.349 . S
C1200 H1194 0.950 . S
C1200 C1201 1.327 . S
C1201 H1195 0.950 . S
C1201 C1200 1.327 . S
C1201 C1205 1.429 . S
C1202 C1185 1.574 . S
C1202 H1196 0.949 . S
C1202 C1206 1.368 . S
C1203 C1184 1.429 . S
C1203 C1197 1.429 . S
C1203 C1204 1.523 . S
C1204 C1185 1.368 . S
C1204 C1198 1.368 . S
C1204 C1203 1.523 . S
C1205 C1189 1.429 . S
C1205 C1201 1.429 . S
C1205 C1206 1.523 . S
C1206 C1190 1.368 . S
C1206 C1202 1.368 . S
C1206 C1205 1.523 . S
H1207 C1182 0.950 . S
H1208 C1184 0.950 . S
H1209 C1185 0.949 . S
H1210 C1187 0.950 . S
H1211 C1189 0.950 . S
C1212 C1213 1.349 . S
C1212 C1214 1.327 . S
C1212 H1237 0.950 . S
C1213 C1212 1.349 . S
C1213 C1229 1.349 . S
C1214 C1212 1.327 . S
C1214 C1233 1.429 . S
C1214 H1238 0.950 . S
C1215 C1232 1.574 . S
C1215 C1234 1.368 . S
C1215 H1239 0.949 . S
H1216 C1220 0.949 . S
C1217 C1218 1.349 . S
C1217 C1219 1.327 . S
C1217 H1240 0.950 . S
C1218 C1217 1.349 . S
C1218 C1230 1.349 . S
C1219 C1217 1.327 . S
C1219 C1235 1.429 . S
C1219 H1241 0.950 . S
C1220 H1216 0.949 . S
C1220 C1228 1.574 . S
C1220 C1236 1.368 . S
H1221 C1229 0.950 . S
H1222 C1227 0.950 . S
H1223 C1228 0.949 . S
H1224 C1230 0.950 . S
H1225 C1231 0.950 . S
H1226 C1232 0.949 . S
C1227 H1222 0.950 . S
C1227 C1229 1.327 . S
C1227 C1233 1.429 . S
C1228 C1220 1.574 . S
C1228 H1223 0.949 . S
C1228 C1234 1.368 . S
C1229 C1213 1.349 . S
C1229 H1221 0.950 . S
C1229 C1227 1.327 . S
C1230 C1218 1.349 . S
C1230 H1224 0.950 . S
C1230 C1231 1.327 . S
C1231 H1225 0.950 . S
C1231 C1230 1.327 . S
C1231 C1235 1.429 . S
C1232 C1215 1.574 . S
C1232 H1226 0.949 . S
C1232 C1236 1.368 . S
C1233 C1214 1.429 . S
C1233 C1227 1.429 . S
C1233 C1234 1.523 . S
C1234 C1215 1.368 . S
C1234 C1228 1.368 . S
C1234 C1233 1.523 . S
C1235 C1219 1.429 . S
C1235 C1231 1.429 . S
C1235 C1236 1.523 . S
C1236 C1220 1.368 . S
C1236 C1232 1.368 . S
C1236 C1235 1.523 . S
H1237 C1212 0.950 . S
H1238 C1214 0.950 . S
H1239 C1215 0.949 . S
H1240 C1217 0.950 . S
H1241 C1219 0.950 . S
C1242 C1243 1.349 . S
C1242 C1244 1.327 . S
C1242 H1267 0.950 . S
C1243 C1242 1.349 . S
C1243 C1259 1.349 . S
C1244 C1242 1.327 . S
C1244 C1263 1.429 . S
C1244 H1268 0.950 . S
C1245 C1262 1.574 . S
C1245 C1264 1.368 . S
C1245 H1269 0.949 . S
H1246 C1250 0.949 . S
C1247 C1248 1.349 . S
C1247 C1249 1.327 . S
C1247 H1270 0.950 . S
C1248 C1247 1.349 . S
C1248 C1260 1.349 . S
C1249 C1247 1.327 . S
C1249 C1265 1.429 . S
C1249 H1271 0.950 . S
C1250 H1246 0.949 . S
C1250 C1258 1.574 . S
C1250 C1266 1.368 . S
H1251 C1259 0.950 . S
H1252 C1257 0.950 . S
H1253 C1258 0.949 . S
H1254 C1260 0.950 . S
H1255 C1261 0.950 . S
H1256 C1262 0.949 . S
C1257 H1252 0.950 . S
C1257 C1259 1.327 . S
C1257 C1263 1.429 . S
C1258 C1250 1.574 . S
C1258 H1253 0.949 . S
C1258 C1264 1.368 . S
C1259 C1243 1.349 . S
C1259 H1251 0.950 . S
C1259 C1257 1.327 . S
C1260 C1248 1.349 . S
C1260 H1254 0.950 . S
C1260 C1261 1.327 . S
C1261 H1255 0.950 . S
C1261 C1260 1.327 . S
C1261 C1265 1.429 . S
C1262 C1245 1.574 . S
C1262 H1256 0.949 . S
C1262 C1266 1.368 . S
C1263 C1244 1.429 . S
C1263 C1257 1.429 . S
C1263 C1264 1.523 . S
C1264 C1245 1.368 . S
C1264 C1258 1.368 . S
C1264 C1263 1.523 . S
C1265 C1249 1.429 . S
C1265 C1261 1.429 . S
C1265 C1266 1.523 . S
C1266 C1250 1.368 . S
C1266 C1262 1.368 . S
C1266 C1265 1.523 . S
H1267 C1242 0.950 . S
H1268 C1244 0.950 . S
H1269 C1245 0.949 . S
H1270 C1247 0.950 . S
H1271 C1249 0.950 . S
C1272 C1273 1.349 . S
C1272 C1274 1.327 . S
C1272 H1297 0.950 . S
C1273 C1272 1.349 . S
C1273 C1289 1.349 . S
C1274 C1272 1.327 . S
C1274 C1293 1.429 . S
C1274 H1298 0.950 . S
C1275 C1292 1.574 . S
C1275 C1294 1.368 . S
C1275 H1299 0.949 . S
H1276 C1280 0.949 . S
C1277 C1278 1.349 . S
C1277 C1279 1.327 . S
C1277 H1300 0.950 . S
C1278 C1277 1.349 . S
C1278 C1290 1.349 . S
C1279 C1277 1.327 . S
C1279 C1295 1.429 . S
C1279 H1301 0.950 . S
C1280 H1276 0.949 . S
C1280 C1288 1.574 . S
C1280 C1296 1.368 . S
H1281 C1289 0.950 . S
H1282 C1287 0.950 . S
H1283 C1288 0.949 . S
H1284 C1290 0.950 . S
H1285 C1291 0.950 . S
H1286 C1292 0.949 . S
C1287 H1282 0.950 . S
C1287 C1289 1.327 . S
C1287 C1293 1.429 . S
C1288 C1280 1.574 . S
C1288 H1283 0.949 . S
C1288 C1294 1.368 . S
C1289 C1273 1.349 . S
C1289 H1281 0.950 . S
C1289 C1287 1.327 . S
C1290 C1278 1.349 . S
C1290 H1284 0.950 . S
C1290 C1291 1.327 . S
C1291 H1285 0.950 . S
C1291 C1290 1.327 . S
C1291 C1295 1.429 . S
C1292 C1275 1.574 . S
C1292 H1286 0.949 . S
C1292 C1296 1.368 . S
C1293 C1274 1.429 . S
C1293 C1287 1.429 . S
C1293 C1294 1.523 . S
C1294 C1275 1.368 . S
C1294 C1288 1.368 . S
C1294 C1293 1.523 . S
C1295 C1279 1.429 . S
C1295 C1291 1.429 . S
C1295 C1296 1.523 . S
C1296 C1280 1.368 . S
C1296 C1292 1.368 . S
C1296 C1295 1.523 . S
H1297 C1272 0.950 . S
H1298 C1274 0.950 . S
H1299 C1275 0.949 . S
H1300 C1277 0.950 . S
H1301 C1279 0.950 . S
C1302 C1303 1.349 . S
C1302 C1304 1.327 . S
C1302 H1327 0.950 . S
C1303 C1302 1.349 . S
C1303 C1319 1.349 . S
C1304 C1302 1.327 . S
C1304 C1323 1.429 . S
C1304 H1328 0.950 . S
C1305 C1322 1.574 . S
C1305 C1324 1.368 . S
C1305 H1329 0.949 . S
H1306 C1310 0.949 . S
C1307 C1308 1.349 . S
C1307 C1309 1.327 . S
C1307 H1330 0.950 . S
C1308 C1307 1.349 . S
C1308 C1320 1.349 . S
C1309 C1307 1.327 . S
C1309 C1325 1.429 . S
C1309 H1331 0.950 . S
C1310 H1306 0.949 . S
C1310 C1318 1.574 . S
C1310 C1326 1.368 . S
H1311 C1319 0.950 . S
H1312 C1317 0.950 . S
H1313 C1318 0.949 . S
H1314 C1320 0.950 . S
H1315 C1321 0.950 . S
H1316 C1322 0.949 . S
C1317 H1312 0.950 . S
C1317 C1319 1.327 . S
C1317 C1323 1.429 . S
C1318 C1310 1.574 . S
C1318 H1313 0.949 . S
C1318 C1324 1.368 . S
C1319 C1303 1.349 . S
C1319 H1311 0.950 . S
C1319 C1317 1.327 . S
C1320 C1308 1.349 . S
C1320 H1314 0.950 . S
C1320 C1321 1.327 . S
C1321 H1315 0.950 . S
C1321 C1320 1.327 . S
C1321 C1325 1.429 . S
C1322 C1305 1.574 . S
C1322 H1316 0.949 . S
C1322 C1326 1.368 . S
C1323 C1304 1.429 . S
C1323 C1317 1.429 . S
C1323 C1324 1.523 . S
C1324 C1305 1.368 . S
C1324 C1318 1.368 . S
C1324 C1323 1.523 . S
C1325 C1309 1.429 . S
C1325 C1321 1.429 . S
C1325 C1326 1.523 . S
C1326 C1310 1.368 . S
C1326 C1322 1.368 . S
C1326 C1325 1.523 . S
H1327 C1302 0.950 . S
H1328 C1304 0.950 . S
H1329 C1305 0.949 . S
H1330 C1307 0.950 . S
H1331 C1309 0.950 . S
C1332 C1333 1.349 . S
C1332 C1334 1.327 . S
C1332 H1357 0.950 . S
C1333 C1332 1.349 . S
C1333 C1349 1.349 . S
C1334 C1332 1.327 . S
C1334 C1353 1.429 . S
C1334 H1358 0.950 . S
C1335 C1352 1.574 . S
C1335 C1354 1.368 . S
C1335 H1359 0.949 . S
H1336 C1340 0.949 . S
C1337 C1338 1.349 . S
C1337 C1339 1.327 . S
C1337 H1360 0.950 . S
C1338 C1337 1.349 . S
C1338 C1350 1.349 . S
C1339 C1337 1.327 . S
C1339 C1355 1.429 . S
C1339 H1361 0.950 . S
C1340 H1336 0.949 . S
C1340 C1348 1.574 . S
C1340 C1356 1.368 . S
H1341 C1349 0.950 . S
H1342 C1347 0.950 . S
H1343 C1348 0.949 . S
H1344 C1350 0.950 . S
H1345 C1351 0.950 . S
H1346 C1352 0.949 . S
C1347 H1342 0.950 . S
C1347 C1349 1.327 . S
C1347 C1353 1.429 . S
C1348 C1340 1.574 . S
C1348 H1343 0.949 . S
C1348 C1354 1.368 . S
C1349 C1333 1.349 . S
C1349 H1341 0.950 . S
C1349 C1347 1.327 . S
C1350 C1338 1.349 . S
C1350 H1344 0.950 . S
C1350 C1351 1.327 . S
C1351 H1345 0.950 . S
C1351 C1350 1.327 . S
C1351 C1355 1.429 . S
C1352 C1335 1.574 . S
C1352 H1346 0.949 . S
C1352 C1356 1.368 . S
C1353 C1334 1.429 . S
C1353 C1347 1.429 . S
C1353 C1354 1.523 . S
C1354 C1335 1.368 . S
C1354 C1348 1.368 . S
C1354 C1353 1.523 . S
C1355 C1339 1.429 . S
C1355 C1351 1.429 . S
C1355 C1356 1.523 . S
C1356 C1340 1.368 . S
C1356 C1352 1.368 . S
C1356 C1355 1.523 . S
H1357 C1332 0.950 . S
H1358 C1334 0.950 . S
H1359 C1335 0.949 . S
H1360 C1337 0.950 . S
H1361 C1339 0.950 . S
C1362 C1363 1.349 . S
C1362 C1364 1.327 . S
C1362 H1387 0.950 . S
C1363 C1362 1.349 . S
C1363 C1379 1.349 . S
C1364 C1362 1.327 . S
C1364 C1383 1.429 . S
C1364 H1388 0.950 . S
C1365 C1382 1.574 . S
C1365 C1384 1.368 . S
C1365 H1389 0.949 . S
H1366 C1370 0.949 . S
C1367 C1368 1.349 . S
C1367 C1369 1.327 . S
C1367 H1390 0.950 . S
C1368 C1367 1.349 . S
C1368 C1380 1.349 . S
C1369 C1367 1.327 . S
C1369 C1385 1.429 . S
C1369 H1391 0.950 . S
C1370 H1366 0.949 . S
C1370 C1378 1.574 . S
C1370 C1386 1.368 . S
H1371 C1379 0.950 . S
H1372 C1377 0.950 . S
H1373 C1378 0.949 . S
H1374 C1380 0.950 . S
H1375 C1381 0.950 . S
H1376 C1382 0.949 . S
C1377 H1372 0.950 . S
C1377 C1379 1.327 . S
C1377 C1383 1.429 . S
C1378 C1370 1.574 . S
C1378 H1373 0.949 . S
C1378 C1384 1.368 . S
C1379 C1363 1.349 . S
C1379 H1371 0.950 . S
C1379 C1377 1.327 . S
C1380 C1368 1.349 . S
C1380 H1374 0.950 . S
C1380 C1381 1.327 . S
C1381 H1375 0.950 . S
C1381 C1380 1.327 . S
C1381 C1385 1.429 . S
C1382 C1365 1.574 . S
C1382 H1376 0.949 . S
C1382 C1386 1.368 . S
C1383 C1364 1.429 . S
C1383 C1377 1.429 . S
C1383 C1384 1.523 . S
C1384 C1365 1.368 . S
C1384 C1378 1.368 . S
C1384 C1383 1.523 . S
C1385 C1369 1.429 . S
C1385 C1381 1.429 . S
C1385 C1386 1.523 . S
C1386 C1370 1.368 . S
C1386 C1382 1.368 . S
C1386 C1385 1.523 . S
H1387 C1362 0.950 . S
H1388 C1364 0.950 . S
H1389 C1365 0.949 . S
H1390 C1367 0.950 . S
H1391 C1369 0.950 . S
C1392 C1393 1.349 . S
C1392 C1394 1.327 . S
C1392 H1417 0.950 . S
C1393 C1392 1.349 . S
C1393 C1409 1.349 . S
C1394 C1392 1.327 . S
C1394 C1413 1.429 . S
C1394 H1418 0.950 . S
C1395 C1412 1.574 . S
C1395 C1414 1.368 . S
C1395 H1419 0.949 . S
H1396 C1400 0.949 . S
C1397 C1398 1.349 . S
C1397 C1399 1.327 . S
C1397 H1420 0.950 . S
C1398 C1397 1.349 . S
C1398 C1410 1.349 . S
C1399 C1397 1.327 . S
C1399 C1415 1.429 . S
C1399 H1421 0.950 . S
C1400 H1396 0.949 . S
C1400 C1408 1.574 . S
C1400 C1416 1.368 . S
H1401 C1409 0.960 . S
H1402 C1407 0.950 . S
H1403 C1408 0.949 . S
H1404 C1410 0.950 . S
H1405 C1411 0.950 . S
H1406 C1412 0.949 . S
C1407 H1402 0.950 . S
C1407 C1409 1.327 . S
C1407 C1413 1.429 . S
C1408 C1400 1.574 . S
C1408 H1403 0.949 . S
C1408 C1414 1.368 . S
C1409 C1393 1.349 . S
C1409 H1401 0.960 . S
C1409 C1407 1.327 . S
C1410 C1398 1.349 . S
C1410 H1404 0.950 . S
C1410 C1411 1.327 . S
C1411 H1405 0.950 . S
C1411 C1410 1.327 . S
C1411 C1415 1.429 . S
C1412 C1395 1.574 . S
C1412 H1406 0.949 . S
C1412 C1416 1.368 . S
C1413 C1394 1.429 . S
C1413 C1407 1.429 . S
C1413 C1414 1.523 . S
C1414 C1395 1.368 . S
C1414 C1408 1.368 . S
C1414 C1413 1.523 . S
C1415 C1399 1.429 . S
C1415 C1411 1.429 . S
C1415 C1416 1.523 . S
C1416 C1400 1.368 . S
C1416 C1412 1.368 . S
C1416 C1415 1.523 . S
H1417 C1392 0.950 . S
H1418 C1394 0.950 . S
H1419 C1395 0.949 . S
H1420 C1397 0.950 . S
H1421 C1399 0.950 . S
C1422 C1423 1.349 . S
C1422 C1424 1.327 . S
C1422 H1447 0.950 . S
C1423 C1422 1.349 . S
C1423 C1439 1.349 . S
C1424 C1422 1.327 . S
C1424 C1443 1.429 . S
C1424 H1448 0.950 . S
C1425 C1442 1.574 . S
C1425 C1444 1.368 . S
C1425 H1449 0.949 . S
H1426 C1430 0.949 . S
C1427 C1428 1.349 . S
C1427 C1429 1.327 . S
C1427 H1450 0.950 . S
C1428 C1427 1.349 . S
C1428 C1440 1.349 . S
C1429 C1427 1.327 . S
C1429 C1445 1.429 . S
C1429 H1451 0.950 . S
C1430 H1426 0.949 . S
C1430 C1438 1.574 . S
C1430 C1446 1.368 . S
H1431 C1439 0.950 . S
H1432 C1437 0.950 . S
H1433 C1438 0.949 . S
H1434 C1440 0.950 . S
H1435 C1441 0.950 . S
H1436 C1442 0.949 . S
C1437 H1432 0.950 . S
C1437 C1439 1.327 . S
C1437 C1443 1.429 . S
C1438 C1430 1.574 . S
C1438 H1433 0.949 . S
C1438 C1444 1.368 . S
C1439 C1423 1.349 . S
C1439 H1431 0.950 . S
C1439 C1437 1.327 . S
C1440 C1428 1.349 . S
C1440 H1434 0.950 . S
C1440 C1441 1.327 . S
C1441 H1435 0.950 . S
C1441 C1440 1.327 . S
C1441 C1445 1.429 . S
C1442 C1425 1.574 . S
C1442 H1436 0.949 . S
C1442 C1446 1.368 . S
C1443 C1424 1.429 . S
C1443 C1437 1.429 . S
C1443 C1444 1.523 . S
C1444 C1425 1.368 . S
C1444 C1438 1.368 . S
C1444 C1443 1.523 . S
C1445 C1429 1.429 . S
C1445 C1441 1.429 . S
C1445 C1446 1.523 . S
C1446 C1430 1.368 . S
C1446 C1442 1.368 . S
C1446 C1445 1.523 . S
H1447 C1422 0.950 . S
H1448 C1424 0.950 . S
H1449 C1425 0.949 . S
H1450 C1427 0.950 . S
H1451 C1429 0.950 . S
C1452 C1453 1.349 . S
C1452 C1454 1.327 . S
C1452 H1477 0.950 . S
C1453 C1452 1.349 . S
C1453 C1469 1.349 . S
C1454 C1452 1.327 . S
C1454 C1473 1.429 . S
C1454 H1478 0.950 . S
C1455 C1472 1.574 . S
C1455 C1474 1.368 . S
C1455 H1479 0.949 . S
H1456 C1460 0.949 . S
C1457 C1458 1.349 . S
C1457 C1459 1.327 . S
C1457 H1480 0.950 . S
C1458 C1457 1.349 . S
C1458 C1470 1.349 . S
C1459 C1457 1.327 . S
C1459 C1475 1.429 . S
C1459 H1481 0.950 . S
C1460 H1456 0.949 . S
C1460 C1468 1.574 . S
C1460 C1476 1.368 . S
H1461 C1469 0.950 . S
H1462 C1467 0.950 . S
H1463 C1468 0.949 . S
H1464 C1470 0.950 . S
H1465 C1471 0.950 . S
H1466 C1472 0.949 . S
C1467 H1462 0.950 . S
C1467 C1469 1.327 . S
C1467 C1473 1.429 . S
C1468 C1460 1.574 . S
C1468 H1463 0.949 . S
C1468 C1474 1.368 . S
C1469 C1453 1.349 . S
C1469 H1461 0.950 . S
C1469 C1467 1.327 . S
C1470 C1458 1.349 . S
C1470 H1464 0.950 . S
C1470 C1471 1.327 . S
C1471 H1465 0.950 . S
C1471 C1470 1.327 . S
C1471 C1475 1.429 . S
C1472 C1455 1.574 . S
C1472 H1466 0.949 . S
C1472 C1476 1.368 . S
C1473 C1454 1.429 . S
C1473 C1467 1.429 . S
C1473 C1474 1.523 . S
C1474 C1455 1.368 . S
C1474 C1468 1.368 . S
C1474 C1473 1.523 . S
C1475 C1459 1.429 . S
C1475 C1471 1.429 . S
C1475 C1476 1.523 . S
C1476 C1460 1.368 . S
C1476 C1472 1.368 . S
C1476 C1475 1.523 . S
H1477 C1452 0.950 . S
H1478 C1454 0.950 . S
H1479 C1455 0.949 . S
H1480 C1457 0.950 . S
H1481 C1459 0.950 . S
C1482 C1483 1.349 . S
C1482 C1484 1.327 . S
C1482 H1507 0.950 . S
C1483 C1482 1.349 . S
C1483 C1499 1.349 . S
C1484 C1482 1.327 . S
C1484 C1503 1.429 . S
C1484 H1508 0.950 . S
C1485 C1502 1.574 . S
C1485 C1504 1.368 . S
C1485 H1509 0.949 . S
H1486 C1490 0.949 . S
C1487 C1488 1.349 . S
C1487 C1489 1.327 . S
C1487 H1510 0.950 . S
C1488 C1487 1.349 . S
C1488 C1500 1.349 . S
C1489 C1487 1.327 . S
C1489 C1505 1.429 . S
C1489 H1511 0.950 . S
C1490 H1486 0.949 . S
C1490 C1498 1.574 . S
C1490 C1506 1.368 . S
H1491 C1499 0.950 . S
H1492 C1497 0.950 . S
H1493 C1498 0.949 . S
H1494 C1500 0.950 . S
H1495 C1501 0.950 . S
H1496 C1502 0.949 . S
C1497 H1492 0.950 . S
C1497 C1499 1.327 . S
C1497 C1503 1.429 . S
C1498 C1490 1.574 . S
C1498 H1493 0.949 . S
C1498 C1504 1.368 . S
C1499 C1483 1.349 . S
C1499 H1491 0.950 . S
C1499 C1497 1.327 . S
C1500 C1488 1.349 . S
C1500 H1494 0.950 . S
C1500 C1501 1.327 . S
C1501 H1495 0.950 . S
C1501 C1500 1.327 . S
C1501 C1505 1.429 . S
C1502 C1485 1.574 . S
C1502 H1496 0.949 . S
C1502 C1506 1.368 . S
C1503 C1484 1.429 . S
C1503 C1497 1.429 . S
C1503 C1504 1.523 . S
C1504 C1485 1.368 . S
C1504 C1498 1.368 . S
C1504 C1503 1.523 . S
C1505 C1489 1.429 . S
C1505 C1501 1.429 . S
C1505 C1506 1.523 . S
C1506 C1490 1.368 . S
C1506 C1502 1.368 . S
C1506 C1505 1.523 . S
H1507 C1482 0.950 . S
H1508 C1484 0.950 . S
H1509 C1485 0.949 . S
H1510 C1487 0.950 . S
H1511 C1489 0.950 . S
C1512 C1513 1.349 . S
C1512 C1514 1.327 . S
C1512 H1537 0.950 . S
C1513 C1512 1.349 . S
C1513 C1529 1.349 . S
C1514 C1512 1.327 . S
C1514 C1533 1.429 . S
C1514 H1538 0.950 . S
C1515 C1532 1.574 . S
C1515 C1534 1.368 . S
C1515 H1539 0.949 . S
H1516 C1520 0.949 . S
C1517 C1518 1.349 . S
C1517 C1519 1.327 . S
C1517 H1540 0.950 . S
C1518 C1517 1.349 . S
C1518 C1530 1.349 . S
C1519 C1517 1.327 . S
C1519 C1535 1.429 . S
C1519 H1541 0.950 . S
C1520 H1516 0.949 . S
C1520 C1528 1.574 . S
C1520 C1536 1.368 . S
H1521 C1529 0.950 . S
H1522 C1527 0.950 . S
H1523 C1528 0.949 . S
H1524 C1530 0.950 . S
H1525 C1531 0.950 . S
H1526 C1532 0.949 . S
C1527 H1522 0.950 . S
C1527 C1529 1.327 . S
C1527 C1533 1.429 . S
C1528 C1520 1.574 . S
C1528 H1523 0.949 . S
C1528 C1534 1.368 . S
C1529 C1513 1.349 . S
C1529 H1521 0.950 . S
C1529 C1527 1.327 . S
C1530 C1518 1.349 . S
C1530 H1524 0.950 . S
C1530 C1531 1.327 . S
C1531 H1525 0.950 . S
C1531 C1530 1.327 . S
C1531 C1535 1.429 . S
C1532 C1515 1.574 . S
C1532 H1526 0.949 . S
C1532 C1536 1.368 . S
C1533 C1514 1.429 . S
C1533 C1527 1.429 . S
C1533 C1534 1.523 . S
C1534 C1515 1.368 . S
C1534 C1528 1.368 . S
C1534 C1533 1.523 . S
C1535 C1519 1.429 . S
C1535 C1531 1.429 . S
C1535 C1536 1.523 . S
C1536 C1520 1.368 . S
C1536 C1532 1.368 . S
C1536 C1535 1.523 . S
H1537 C1512 0.950 . S
H1538 C1514 0.950 . S
H1539 C1515 0.949 . S
H1540 C1517 0.950 . S
H1541 C1519 0.950 . S
C1542 C1543 1.349 . S
C1542 C1544 1.327 . S
C1542 H1567 0.950 . S
C1543 C1542 1.349 . S
C1543 C1559 1.349 . S
C1544 C1542 1.327 . S
C1544 C1563 1.429 . S
C1544 H1568 0.950 . S
C1545 C1562 1.574 . S
C1545 C1564 1.368 . S
C1545 H1569 0.949 . S
H1546 C1550 0.949 . S
C1547 C1548 1.349 . S
C1547 C1549 1.327 . S
C1547 H1570 0.950 . S
C1548 C1547 1.349 . S
C1548 C1560 1.349 . S
C1549 C1547 1.327 . S
C1549 C1565 1.429 . S
C1549 H1571 0.950 . S
C1550 H1546 0.949 . S
C1550 C1558 1.574 . S
C1550 C1566 1.368 . S
H1551 C1559 0.950 . S
H1552 C1557 0.950 . S
H1553 C1558 0.949 . S
H1554 C1560 0.950 . S
H1555 C1561 0.950 . S
H1556 C1562 0.949 . S
C1557 H1552 0.950 . S
C1557 C1559 1.327 . S
C1557 C1563 1.429 . S
C1558 C1550 1.574 . S
C1558 H1553 0.949 . S
C1558 C1564 1.368 . S
C1559 C1543 1.349 . S
C1559 H1551 0.950 . S
C1559 C1557 1.327 . S
C1560 C1548 1.349 . S
C1560 H1554 0.950 . S
C1560 C1561 1.327 . S
C1561 H1555 0.950 . S
C1561 C1560 1.327 . S
C1561 C1565 1.429 . S
C1562 C1545 1.574 . S
C1562 H1556 0.949 . S
C1562 C1566 1.368 . S
C1563 C1544 1.429 . S
C1563 C1557 1.429 . S
C1563 C1564 1.523 . S
C1564 C1545 1.368 . S
C1564 C1558 1.368 . S
C1564 C1563 1.523 . S
C1565 C1549 1.429 . S
C1565 C1561 1.429 . S
C1565 C1566 1.523 . S
C1566 C1550 1.368 . S
C1566 C1562 1.368 . S
C1566 C1565 1.523 . S
H1567 C1542 0.950 . S
H1568 C1544 0.950 . S
H1569 C1545 0.949 . S
H1570 C1547 0.950 . S
H1571 C1549 0.950 . S
C1572 C1573 1.349 . S
C1572 C1574 1.327 . S
C1572 H1597 0.950 . S
C1573 C1572 1.349 . S
C1573 C1589 1.349 . S
C1574 C1572 1.327 . S
C1574 C1593 1.429 . S
C1574 H1598 0.950 . S
C1575 C1592 1.574 . S
C1575 C1594 1.368 . S
C1575 H1599 0.949 . S
H1576 C1580 0.949 . S
C1577 C1578 1.349 . S
C1577 C1579 1.327 . S
C1577 H1600 0.950 . S
C1578 C1577 1.349 . S
C1578 C1590 1.349 . S
C1579 C1577 1.327 . S
C1579 C1595 1.429 . S
C1579 H1601 0.950 . S
C1580 H1576 0.949 . S
C1580 C1588 1.574 . S
C1580 C1596 1.368 . S
H1581 C1589 0.950 . S
H1582 C1587 0.950 . S
H1583 C1588 0.949 . S
H1584 C1590 0.950 . S
H1585 C1591 0.950 . S
H1586 C1592 0.949 . S
C1587 H1582 0.950 . S
C1587 C1589 1.327 . S
C1587 C1593 1.429 . S
C1588 C1580 1.574 . S
C1588 H1583 0.949 . S
C1588 C1594 1.368 . S
C1589 C1573 1.349 . S
C1589 H1581 0.950 . S
C1589 C1587 1.327 . S
C1590 C1578 1.349 . S
C1590 H1584 0.950 . S
C1590 C1591 1.327 . S
C1591 H1585 0.950 . S
C1591 C1590 1.327 . S
C1591 C1595 1.429 . S
C1592 C1575 1.574 . S
C1592 H1586 0.949 . S
C1592 C1596 1.368 . S
C1593 C1574 1.429 . S
C1593 C1587 1.429 . S
C1593 C1594 1.523 . S
C1594 C1575 1.368 . S
C1594 C1588 1.368 . S
C1594 C1593 1.523 . S
C1595 C1579 1.429 . S
C1595 C1591 1.429 . S
C1595 C1596 1.523 . S
C1596 C1580 1.368 . S
C1596 C1592 1.368 . S
C1596 C1595 1.523 . S
H1597 C1572 0.950 . S
H1598 C1574 0.950 . S
H1599 C1575 0.949 . S
H1600 C1577 0.950 . S
H1601 C1579 0.950 . S
C1602 C1603 1.349 . S
C1602 C1604 1.327 . S
C1602 H1627 0.950 . S
C1603 C1602 1.349 . S
C1603 C1619 1.349 . S
C1604 C1602 1.327 . S
C1604 C1623 1.429 . S
C1604 H1628 0.950 . S
C1605 C1622 1.574 . S
C1605 C1624 1.368 . S
C1605 H1629 0.949 . S
H1606 C1610 0.949 . S
C1607 C1608 1.349 . S
C1607 C1609 1.327 . S
C1607 H1630 0.950 . S
C1608 C1607 1.349 . S
C1608 C1620 1.349 . S
C1609 C1607 1.327 . S
C1609 C1625 1.429 . S
C1609 H1631 0.950 . S
C1610 H1606 0.949 . S
C1610 C1618 1.574 . S
C1610 C1626 1.368 . S
H1611 C1619 0.950 . S
H1612 C1617 0.950 . S
H1613 C1618 0.949 . S
H1614 C1620 0.950 . S
H1615 C1621 0.950 . S
H1616 C1622 0.949 . S
C1617 H1612 0.950 . S
C1617 C1619 1.327 . S
C1617 C1623 1.429 . S
C1618 C1610 1.574 . S
C1618 H1613 0.949 . S
C1618 C1624 1.368 . S
C1619 C1603 1.349 . S
C1619 H1611 0.950 . S
C1619 C1617 1.327 . S
C1620 C1608 1.349 . S
C1620 H1614 0.950 . S
C1620 C1621 1.327 . S
C1621 H1615 0.950 . S
C1621 C1620 1.327 . S
C1621 C1625 1.429 . S
C1622 C1605 1.574 . S
C1622 H1616 0.949 . S
C1622 C1626 1.368 . S
C1623 C1604 1.429 . S
C1623 C1617 1.429 . S
C1623 C1624 1.523 . S
C1624 C1605 1.368 . S
C1624 C1618 1.368 . S
C1624 C1623 1.523 . S
C1625 C1609 1.429 . S
C1625 C1621 1.429 . S
C1625 C1626 1.523 . S
C1626 C1610 1.368 . S
C1626 C1622 1.368 . S
C1626 C1625 1.523 . S
H1627 C1602 0.950 . S
H1628 C1604 0.950 . S
H1629 C1605 0.949 . S
H1630 C1607 0.950 . S
H1631 C1609 0.950 . S
C1632 C1633 1.349 . S
C1632 C1634 1.327 . S
C1632 H1657 0.950 . S
C1633 C1632 1.349 . S
C1633 C1649 1.349 . S
C1634 C1632 1.327 . S
C1634 C1653 1.429 . S
C1634 H1658 0.950 . S
C1635 C1652 1.574 . S
C1635 C1654 1.368 . S
C1635 H1659 0.949 . S
H1636 C1640 0.949 . S
C1637 C1638 1.349 . S
C1637 C1639 1.327 . S
C1637 H1660 0.950 . S
C1638 C1637 1.349 . S
C1638 C1650 1.349 . S
C1639 C1637 1.327 . S
C1639 C1655 1.429 . S
C1639 H1661 0.950 . S
C1640 H1636 0.949 . S
C1640 C1648 1.574 . S
C1640 C1656 1.368 . S
H1641 C1649 0.950 . S
H1642 C1647 0.950 . S
H1643 C1648 0.949 . S
H1644 C1650 0.950 . S
H1645 C1651 0.950 . S
H1646 C1652 0.949 . S
C1647 H1642 0.950 . S
C1647 C1649 1.327 . S
C1647 C1653 1.429 . S
C1648 C1640 1.574 . S
C1648 H1643 0.949 . S
C1648 C1654 1.368 . S
C1649 C1633 1.349 . S
C1649 H1641 0.950 . S
C1649 C1647 1.327 . S
C1650 C1638 1.349 . S
C1650 H1644 0.950 . S
C1650 C1651 1.327 . S
C1651 H1645 0.950 . S
C1651 C1650 1.327 . S
C1651 C1655 1.429 . S
C1652 C1635 1.574 . S
C1652 H1646 0.949 . S
C1652 C1656 1.368 . S
C1653 C1634 1.429 . S
C1653 C1647 1.429 . S
C1653 C1654 1.523 . S
C1654 C1635 1.368 . S
C1654 C1648 1.368 . S
C1654 C1653 1.523 . S
C1655 C1639 1.429 . S
C1655 C1651 1.429 . S
C1655 C1656 1.523 . S
C1656 C1640 1.368 . S
C1656 C1652 1.368 . S
C1656 C1655 1.523 . S
H1657 C1632 0.950 . S
H1658 C1634 0.950 . S
H1659 C1635 0.949 . S
H1660 C1637 0.950 . S
H1661 C1639 0.950 . S
C1662 C1663 1.349 . S
C1662 C1664 1.327 . S
C1662 H1687 0.950 . S
C1663 C1662 1.349 . S
C1663 C1679 1.349 1_565 S
C1664 C1662 1.327 . S
C1664 C1683 1.429 1_565 S
C1664 H1688 0.950 . S
C1665 C1682 1.574 . S
C1665 C1684 1.368 . S
C1665 H1689 0.949 . S
H1666 C1670 0.949 . S
C1667 C1668 1.349 . S
C1667 C1669 1.327 . S
C1667 H1690 0.950 . S
C1668 C1667 1.349 . S
C1668 C1680 1.349 . S
C1669 C1667 1.327 . S
C1669 C1685 1.429 . S
C1669 H1691 0.950 . S
C1670 H1666 0.949 . S
C1670 C1678 1.574 . S
C1670 C1686 1.368 . S
H1671 C1679 0.950 . S
H1672 C1677 0.950 . S
H1673 C1678 0.949 1_565 S
H1674 C1680 0.950 . S
H1675 C1681 0.950 . S
H1676 C1682 0.949 . S
C1677 H1672 0.950 . S
C1677 C1679 1.327 . S
C1677 C1683 1.429 . S
C1678 C1670 1.574 . S
C1678 H1673 0.949 1_545 S
C1678 C1684 1.368 . S
C1679 C1663 1.349 1_545 S
C1679 H1671 0.950 . S
C1679 C1677 1.327 . S
C1680 C1668 1.349 . S
C1680 H1674 0.950 . S
C1680 C1681 1.327 . S
C1681 H1675 0.950 . S
C1681 C1680 1.327 . S
C1681 C1685 1.429 . S
C1682 C1665 1.574 . S
C1682 H1676 0.949 . S
C1682 C1686 1.368 . S
C1683 C1664 1.429 1_545 S
C1683 C1677 1.429 . S
C1683 C1684 1.523 . S
C1684 C1665 1.368 . S
C1684 C1678 1.368 . S
C1684 C1683 1.523 . S
C1685 C1669 1.429 . S
C1685 C1681 1.429 . S
C1685 C1686 1.523 . S
C1686 C1670 1.368 . S
C1686 C1682 1.368 . S
C1686 C1685 1.523 . S
H1687 C1662 0.950 . S
H1688 C1664 0.950 . S
H1689 C1665 0.949 . S
H1690 C1667 0.950 . S
H1691 C1669 0.950 . S
C1692 C1693 1.349 . S
C1692 C1694 1.327 . S
C1692 H1717 0.950 . S
C1693 C1692 1.349 . S
C1693 C1709 1.349 . S
C1694 C1692 1.327 . S
C1694 C1713 1.429 . S
C1694 H1718 0.950 . S
C1695 C1712 1.574 . S
C1695 C1714 1.368 . S
C1695 H1719 0.949 . S
H1696 C1700 0.949 . S
C1697 C1698 1.349 . S
C1697 C1699 1.327 . S
C1697 H1720 0.950 . S
C1698 C1697 1.349 . S
C1698 C1710 1.349 1_556 S
C1699 C1697 1.327 . S
C1699 C1715 1.429 1_556 S
C1699 H1721 0.950 . S
C1700 H1696 0.949 . S
C1700 C1708 1.574 . S
C1700 C1716 1.368 . S
H1701 C1709 0.950 . S
H1702 C1707 0.950 . S
H1703 C1708 0.949 . S
H1704 C1710 0.950 . S
H1705 C1711 0.950 . S
H1706 C1712 0.949 . S
C1707 H1702 0.950 . S
C1707 C1709 1.327 . S
C1707 C1713 1.429 . S
C1708 C1700 1.574 . S
C1708 H1703 0.949 . S
C1708 C1714 1.368 . S
C1709 C1693 1.349 . S
C1709 H1701 0.950 . S
C1709 C1707 1.327 . S
C1710 C1698 1.349 1_554 S
C1710 H1704 0.950 . S
C1710 C1711 1.327 . S
C1711 H1705 0.950 . S
C1711 C1710 1.327 . S
C1711 C1715 1.429 . S
C1712 C1695 1.574 . S
C1712 H1706 0.949 . S
C1712 C1716 1.368 . S
C1713 C1694 1.429 . S
C1713 C1707 1.429 . S
C1713 C1714 1.523 . S
C1714 C1695 1.368 . S
C1714 C1708 1.368 . S
C1714 C1713 1.523 . S
C1715 C1699 1.429 1_554 S
C1715 C1711 1.429 . S
C1715 C1716 1.523 . S
C1716 C1700 1.368 . S
C1716 C1712 1.368 . S
C1716 C1715 1.523 . S
H1717 C1692 0.950 . S
H1718 C1694 0.950 . S
H1719 C1695 0.949 . S
H1720 C1697 0.950 . S
H1721 C1699 0.950 . S
C1722 C1723 1.349 . S
C1722 C1724 1.327 1_655 S
C1722 H1747 0.950 . S
C1723 C1722 1.349 . S
C1723 C1739 1.349 1_556 S
C1724 C1722 1.327 1_455 S
C1724 C1743 1.429 1_556 S
C1724 H1748 0.950 . S
C1725 C1742 1.574 . S
C1725 C1744 1.368 . S
C1725 H1749 0.949 . S
H1726 C1730 0.949 . S
C1727 C1728 1.349 . S
C1727 C1729 1.327 . S
C1727 H1750 0.950 . S
C1728 C1727 1.349 . S
C1728 C1740 1.349 . S
C1729 C1727 1.327 . S
C1729 C1745 1.429 . S
C1729 H1751 0.950 . S
C1730 H1726 0.949 . S
C1730 C1738 1.574 . S
C1730 C1746 1.368 . S
H1731 C1739 0.950 . S
H1732 C1737 0.950 . S
H1733 C1738 0.949 . S
H1734 C1740 0.950 . S
H1735 C1741 0.950 . S
H1736 C1742 0.949 . S
C1737 H1732 0.950 . S
C1737 C1739 1.327 . S
C1737 C1743 1.429 1_655 S
C1738 C1730 1.574 . S
C1738 H1733 0.949 . S
C1738 C1744 1.368 . S
C1739 C1723 1.349 1_554 S
C1739 H1731 0.950 . S
C1739 C1737 1.327 . S
C1740 C1728 1.349 . S
C1740 H1734 0.950 . S
C1740 C1741 1.327 . S
C1741 H1735 0.950 . S
C1741 C1740 1.327 . S
C1741 C1745 1.429 . S
C1742 C1725 1.574 . S
C1742 H1736 0.949 . S
C1742 C1746 1.368 . S
C1743 C1724 1.429 1_554 S
C1743 C1737 1.429 1_455 S
C1743 C1744 1.523 . S
C1744 C1725 1.368 . S
C1744 C1738 1.368 . S
C1744 C1743 1.523 . S
C1745 C1729 1.429 . S
C1745 C1741 1.429 . S
C1745 C1746 1.523 . S
C1746 C1730 1.368 . S
C1746 C1742 1.368 . S
C1746 C1745 1.523 . S
H1747 C1722 0.950 . S
H1748 C1724 0.950 . S
H1749 C1725 0.949 . S
H1750 C1727 0.950 . S
H1751 C1729 0.950 . S
C1752 C1753 1.349 1_554 S
C1752 C1754 1.327 . S
C1752 H1777 0.950 . S
C1753 C1752 1.349 1_556 S
C1753 C1769 1.349 . S
C1754 C1752 1.327 . S
C1754 C1773 1.429 . S
C1754 H1778 0.950 . S
C1755 C1772 1.574 . S
C1755 C1774 1.368 . S
C1755 H1779 0.949 . S
H1756 C1760 0.949 . S
C1757 C1758 1.349 . S
C1757 C1759 1.327 . S
C1757 H1780 0.950 . S
C1758 C1757 1.349 . S
C1758 C1770 1.349 . S
C1759 C1757 1.327 . S
C1759 C1775 1.429 . S
C1759 H1781 0.950 . S
C1760 H1756 0.949 . S
C1760 C1768 1.574 . S
C1760 C1776 1.368 . S
H1761 C1769 0.950 . S
H1762 C1767 0.950 . S
H1763 C1768 0.949 . S
H1764 C1770 0.950 . S
H1765 C1771 0.950 . S
H1766 C1772 0.949 . S
C1767 H1762 0.950 . S
C1767 C1769 1.327 . S
C1767 C1773 1.429 1_556 S
C1768 C1760 1.574 . S
C1768 H1763 0.949 . S
C1768 C1774 1.368 . S
C1769 C1753 1.349 . S
C1769 H1761 0.950 . S
C1769 C1767 1.327 . S
C1770 C1758 1.349 . S
C1770 H1764 0.950 . S
C1770 C1771 1.327 . S
C1771 H1765 0.950 . S
C1771 C1770 1.327 . S
C1771 C1775 1.429 . S
C1772 C1755 1.574 . S
C1772 H1766 0.949 . S
C1772 C1776 1.368 . S
C1773 C1754 1.429 . S
C1773 C1767 1.429 1_554 S
C1773 C1774 1.523 . S
C1774 C1755 1.368 . S
C1774 C1768 1.368 . S
C1774 C1773 1.523 . S
C1775 C1759 1.429 . S
C1775 C1771 1.429 . S
C1775 C1776 1.523 . S
C1776 C1760 1.368 . S
C1776 C1772 1.368 . S
C1776 C1775 1.523 . S
H1777 C1752 0.950 . S
H1778 C1754 0.950 . S
H1779 C1755 0.949 . S
H1780 C1757 0.950 . S
H1781 C1759 0.950 . S
C1782 C1783 1.349 . S
C1782 C1784 1.327 . S
C1782 H1807 0.950 . S
C1783 C1782 1.349 . S
C1783 C1799 1.336 1_655 S
C1784 C1782 1.327 . S
C1784 C1803 1.429 1_655 S
C1784 H1808 0.950 . S
C1785 C1802 1.574 . S
C1785 C1804 1.368 . S
C1785 H1809 0.949 . S
H1786 C1790 0.949 . S
C1787 C1788 1.349 . S
C1787 C1789 1.327 . S
C1787 H1810 0.950 . S
C1788 C1787 1.349 . S
C1788 C1800 1.349 . S
C1789 C1787 1.327 . S
C1789 C1805 1.429 . S
C1789 H1811 0.950 . S
C1790 H1786 0.949 . S
C1790 C1798 1.574 . S
C1790 C1806 1.368 . S
H1791 C1799 0.963 . S
H1792 C1797 0.950 . S
H1793 C1798 0.949 . S
H1794 C1800 0.950 . S
H1795 C1801 0.950 . S
H1796 C1802 0.949 . S
C1797 H1792 0.950 . S
C1797 C1799 1.328 . S
C1797 C1803 1.429 . S
C1798 C1790 1.574 . S
C1798 H1793 0.949 . S
C1798 C1804 1.368 . S
C1799 C1783 1.336 1_455 S
C1799 H1791 0.963 . S
C1799 C1797 1.328 . S
C1800 C1788 1.349 . S
C1800 H1794 0.950 . S
C1800 C1801 1.327 . S
C1801 H1795 0.950 . S
C1801 C1800 1.327 . S
C1801 C1805 1.429 . S
C1802 C1785 1.574 . S
C1802 H1796 0.949 . S
C1802 C1806 1.368 . S
C1803 C1784 1.429 1_455 S
C1803 C1797 1.429 . S
C1803 C1804 1.523 . S
C1804 C1785 1.368 . S
C1804 C1798 1.368 . S
C1804 C1803 1.523 . S
C1805 C1789 1.429 . S
C1805 C1801 1.429 . S
C1805 C1806 1.523 . S
C1806 C1790 1.368 . S
C1806 C1802 1.368 . S
C1806 C1805 1.523 . S
H1807 C1782 0.950 . S
H1808 C1784 0.950 . S
H1809 C1785 0.949 . S
H1810 C1787 0.950 . S
H1811 C1789 0.950 . S
C1812 C1813 1.349 . S
C1812 C1814 1.327 . S
C1812 H1837 0.950 . S
C1813 C1812 1.349 . S
C1813 C1829 1.349 . S
C1814 C1812 1.327 . S
C1814 C1833 1.429 . S
C1814 H1838 0.950 . S
C1815 C1832 1.574 . S
C1815 C1834 1.368 . S
C1815 H1839 0.949 . S
H1816 C1820 0.949 . S
C1817 C1818 1.349 . S
C1817 C1819 1.327 . S
C1817 H1840 0.950 . S
C1818 C1817 1.349 . S
C1818 C1830 1.349 . S
C1819 C1817 1.327 . S
C1819 C1835 1.429 . S
C1819 H1841 0.950 . S
C1820 H1816 0.949 . S
C1820 C1828 1.574 . S
C1820 C1836 1.368 . S
H1821 C1829 0.950 . S
H1822 C1827 0.950 . S
H1823 C1828 0.949 . S
H1824 C1830 0.950 . S
H1825 C1831 0.950 . S
H1826 C1832 0.949 . S
C1827 H1822 0.950 . S
C1827 C1829 1.327 . S
C1827 C1833 1.429 . S
C1828 C1820 1.574 . S
C1828 H1823 0.949 . S
C1828 C1834 1.368 . S
C1829 C1813 1.349 . S
C1829 H1821 0.950 . S
C1829 C1827 1.327 . S
C1830 C1818 1.349 . S
C1830 H1824 0.950 . S
C1830 C1831 1.327 . S
C1831 H1825 0.950 . S
C1831 C1830 1.327 . S
C1831 C1835 1.429 . S
C1832 C1815 1.574 . S
C1832 H1826 0.949 . S
C1832 C1836 1.368 . S
C1833 C1814 1.429 . S
C1833 C1827 1.429 . S
C1833 C1834 1.523 . S
C1834 C1815 1.368 . S
C1834 C1828 1.368 . S
C1834 C1833 1.523 . S
C1835 C1819 1.429 . S
C1835 C1831 1.429 . S
C1835 C1836 1.523 . S
C1836 C1820 1.368 . S
C1836 C1832 1.368 . S
C1836 C1835 1.523 . S
H1837 C1812 0.950 . S
H1838 C1814 0.950 . S
H1839 C1815 0.949 . S
H1840 C1817 0.950 . S
H1841 C1819 0.950 . S
C1842 C1843 1.349 . S
C1842 C1844 1.327 . S
C1842 H1867 0.950 . S
C1843 C1842 1.349 . S
C1843 C1859 1.349 . S
C1844 C1842 1.327 . S
C1844 C1863 1.429 . S
C1844 H1868 0.950 . S
C1845 C1862 1.574 . S
C1845 C1864 1.368 . S
C1845 H1869 0.949 . S
H1846 C1850 0.949 . S
C1847 C1848 1.349 . S
C1847 C1849 1.327 . S
C1847 H1870 0.950 . S
C1848 C1847 1.349 . S
C1848 C1860 1.349 . S
C1849 C1847 1.327 . S
C1849 C1865 1.429 . S
C1849 H1871 0.950 . S
C1850 H1846 0.949 . S
C1850 C1858 1.574 . S
C1850 C1866 1.368 . S
H1851 C1859 0.950 . S
H1852 C1857 0.950 . S
H1853 C1858 0.949 . S
H1854 C1860 0.950 . S
H1855 C1861 0.950 . S
H1856 C1862 0.949 . S
C1857 H1852 0.950 . S
C1857 C1859 1.327 . S
C1857 C1863 1.429 . S
C1858 C1850 1.574 . S
C1858 H1853 0.949 . S
C1858 C1864 1.368 . S
C1859 C1843 1.349 . S
C1859 H1851 0.950 . S
C1859 C1857 1.327 . S
C1860 C1848 1.349 . S
C1860 H1854 0.950 . S
C1860 C1861 1.327 . S
C1861 H1855 0.950 . S
C1861 C1860 1.327 . S
C1861 C1865 1.429 . S
C1862 C1845 1.574 . S
C1862 H1856 0.949 . S
C1862 C1866 1.368 . S
C1863 C1844 1.429 . S
C1863 C1857 1.429 . S
C1863 C1864 1.523 . S
C1864 C1845 1.368 . S
C1864 C1858 1.368 . S
C1864 C1863 1.523 . S
C1865 C1849 1.429 . S
C1865 C1861 1.429 . S
C1865 C1866 1.523 . S
C1866 C1850 1.368 . S
C1866 C1862 1.368 . S
C1866 C1865 1.523 . S
H1867 C1842 0.950 . S
H1868 C1844 0.950 . S
H1869 C1845 0.949 . S
H1870 C1847 0.950 . S
H1871 C1849 0.950 . S
C1872 C1873 1.349 1_556 S
C1872 C1874 1.327 . S
C1872 H1897 0.950 . S
C1873 C1872 1.349 1_554 S
C1873 C1889 1.349 . S
C1874 C1872 1.327 . S
C1874 C1893 1.429 1_565 S
C1874 H1898 0.950 . S
C1875 C1892 1.574 . S
C1875 C1894 1.368 . S
C1875 H1899 0.949 . S
H1876 C1880 0.949 . S
C1877 C1878 1.349 . S
C1877 C1879 1.327 . S
C1877 H1900 0.950 . S
C1878 C1877 1.349 . S
C1878 C1890 1.349 . S
C1879 C1877 1.327 . S
C1879 C1895 1.429 . S
C1879 H1901 0.950 . S
C1880 H1876 0.949 . S
C1880 C1888 1.574 . S
C1880 C1896 1.368 . S
H1881 C1889 0.950 . S
H1882 C1887 0.950 . S
H1883 C1888 0.949 . S
H1884 C1890 0.950 . S
H1885 C1891 0.950 . S
H1886 C1892 0.949 . S
C1887 H1882 0.950 . S
C1887 C1889 1.327 1_545 S
C1887 C1893 1.429 1_554 S
C1888 C1880 1.574 . S
C1888 H1883 0.949 . S
C1888 C1894 1.368 . S
C1889 C1873 1.349 . S
C1889 H1881 0.950 . S
C1889 C1887 1.327 1_565 S
C1890 C1878 1.349 . S
C1890 H1884 0.950 . S
C1890 C1891 1.327 . S
C1891 H1885 0.950 . S
C1891 C1890 1.327 . S
C1891 C1895 1.429 . S
C1892 C1875 1.574 . S
C1892 H1886 0.949 . S
C1892 C1896 1.368 . S
C1893 C1874 1.429 1_545 S
C1893 C1887 1.429 1_556 S
C1893 C1894 1.523 . S
C1894 C1875 1.368 . S
C1894 C1888 1.368 . S
C1894 C1893 1.523 . S
C1895 C1879 1.429 . S
C1895 C1891 1.429 . S
C1895 C1896 1.523 . S
C1896 C1880 1.368 . S
C1896 C1892 1.368 . S
C1896 C1895 1.523 . S
H1897 C1872 0.950 . S
H1898 C1874 0.950 . S
H1899 C1875 0.949 . S
H1900 C1877 0.950 . S
H1901 C1879 0.950 . S
C1902 C1903 1.349 . S
C1902 C1904 1.327 . S
C1902 H1927 0.950 . S
C1903 C1902 1.349 . S
C1903 C1919 1.349 . S
C1904 C1902 1.327 . S
C1904 C1923 1.429 . S
C1904 H1928 0.950 . S
C1905 C1922 1.574 . S
C1905 C1924 1.368 . S
C1905 H1929 0.949 . S
H1906 C1910 0.949 . S
C1907 C1908 1.349 . S
C1907 C1909 1.327 . S
C1907 H1930 0.950 . S
C1908 C1907 1.349 . S
C1908 C1920 1.349 1_554 S
C1909 C1907 1.327 . S
C1909 C1925 1.429 1_554 S
C1909 H1931 0.950 . S
C1910 H1906 0.949 . S
C1910 C1918 1.574 . S
C1910 C1926 1.368 . S
H1911 C1919 0.950 . S
H1912 C1917 0.950 . S
H1913 C1918 0.949 . S
H1914 C1920 0.950 . S
H1915 C1921 0.950 . S
H1916 C1922 0.949 . S
C1917 H1912 0.950 . S
C1917 C1919 1.327 . S
C1917 C1923 1.429 . S
C1918 C1910 1.574 . S
C1918 H1913 0.949 . S
C1918 C1924 1.368 . S
C1919 C1903 1.349 . S
C1919 H1911 0.950 . S
C1919 C1917 1.327 . S
C1920 C1908 1.349 1_556 S
C1920 H1914 0.950 . S
C1920 C1921 1.327 . S
C1921 H1915 0.950 . S
C1921 C1920 1.327 . S
C1921 C1925 1.429 . S
C1922 C1905 1.574 . S
C1922 H1916 0.949 . S
C1922 C1926 1.368 . S
C1923 C1904 1.429 . S
C1923 C1917 1.429 . S
C1923 C1924 1.523 . S
C1924 C1905 1.368 . S
C1924 C1918 1.368 . S
C1924 C1923 1.523 . S
C1925 C1909 1.429 1_556 S
C1925 C1921 1.429 . S
C1925 C1926 1.523 . S
C1926 C1910 1.368 . S
C1926 C1922 1.368 . S
C1926 C1925 1.523 . S
H1927 C1902 0.950 . S
H1928 C1904 0.950 . S
H1929 C1905 0.949 . S
H1930 C1907 0.950 . S
H1931 C1909 0.950 . S
C1932 C1933 1.349 . S
C1932 C1934 1.327 . S
C1932 H1957 0.950 . S
C1933 C1932 1.349 . S
C1933 C1949 1.349 . S
C1934 C1932 1.327 . S
C1934 C1953 1.429 . S
C1934 H1958 0.950 . S
C1935 C1952 1.574 . S
C1935 C1954 1.368 . S
C1935 H1959 0.949 . S
H1936 C1940 0.949 . S
C1937 C1938 1.349 1_556 S
C1937 C1939 1.327 . S
C1937 H1960 0.950 . S
C1938 C1937 1.349 1_554 S
C1938 C1950 1.349 . S
C1939 C1937 1.327 . S
C1939 C1955 1.429 . S
C1939 H1961 0.950 . S
C1940 H1936 0.949 . S
C1940 C1948 1.574 . S
C1940 C1956 1.368 . S
H1941 C1949 0.950 . S
H1942 C1947 0.950 . S
H1943 C1948 0.949 . S
H1944 C1950 0.950 . S
H1945 C1951 0.950 . S
H1946 C1952 0.949 . S
C1947 H1942 0.950 . S
C1947 C1949 1.327 . S
C1947 C1953 1.429 . S
C1948 C1940 1.574 . S
C1948 H1943 0.949 . S
C1948 C1954 1.368 . S
C1949 C1933 1.349 . S
C1949 H1941 0.950 . S
C1949 C1947 1.327 . S
C1950 C1938 1.349 . S
C1950 H1944 0.950 . S
C1950 C1951 1.327 . S
C1951 H1945 0.950 . S
C1951 C1950 1.327 . S
C1951 C1955 1.429 1_554 S
C1952 C1935 1.574 . S
C1952 H1946 0.949 . S
C1952 C1956 1.368 . S
C1953 C1934 1.429 . S
C1953 C1947 1.429 . S
C1953 C1954 1.523 . S
C1954 C1935 1.368 . S
C1954 C1948 1.368 . S
C1954 C1953 1.523 . S
C1955 C1939 1.429 . S
C1955 C1951 1.429 1_556 S
C1955 C1956 1.523 . S
C1956 C1940 1.368 . S
C1956 C1952 1.368 . S
C1956 C1955 1.523 . S
H1957 C1932 0.950 . S
H1958 C1934 0.950 . S
H1959 C1935 0.949 . S
H1960 C1937 0.950 . S
H1961 C1939 0.950 . S
C1962 C1963 1.349 . S
C1962 C1964 1.327 . S
C1962 H1987 0.950 . S
C1963 C1962 1.349 . S
C1963 C1979 1.349 . S
C1964 C1962 1.327 . S
C1964 C1983 1.429 . S
C1964 H1988 0.950 . S
C1965 C1982 1.574 . S
C1965 C1984 1.368 . S
C1965 H1989 0.949 . S
H1966 C1970 0.949 . S
C1967 C1968 1.349 . S
C1967 C1969 1.327 . S
C1967 H1990 0.950 . S
C1968 C1967 1.349 . S
C1968 C1980 1.349 . S
C1969 C1967 1.327 . S
C1969 C1985 1.429 . S
C1969 H1991 0.950 . S
C1970 H1966 0.949 . S
C1970 C1978 1.574 . S
C1970 C1986 1.368 . S
H1971 C1979 0.950 . S
H1972 C1977 0.950 . S
H1973 C1978 0.949 . S
H1974 C1980 0.950 . S
H1975 C1981 0.950 . S
H1976 C1982 0.949 . S
C1977 H1972 0.950 . S
C1977 C1979 1.327 . S
C1977 C1983 1.429 . S
C1978 C1970 1.574 . S
C1978 H1973 0.949 . S
C1978 C1984 1.368 . S
C1979 C1963 1.349 . S
C1979 H1971 0.950 . S
C1979 C1977 1.327 . S
C1980 C1968 1.349 . S
C1980 H1974 0.950 . S
C1980 C1981 1.327 . S
C1981 H1975 0.950 . S
C1981 C1980 1.327 . S
C1981 C1985 1.429 . S
C1982 C1965 1.574 . S
C1982 H1976 0.949 . S
C1982 C1986 1.368 . S
C1983 C1964 1.429 . S
C1983 C1977 1.429 . S
C1983 C1984 1.523 . S
C1984 C1965 1.368 . S
C1984 C1978 1.368 . S
C1984 C1983 1.523 . S
C1985 C1969 1.429 . S
C1985 C1981 1.429 . S
C1985 C1986 1.523 . S
C1986 C1970 1.368 . S
C1986 C1982 1.368 . S
C1986 C1985 1.523 . S
H1987 C1962 0.950 . S
H1988 C1964 0.950 . S
H1989 C1965 0.949 . S
H1990 C1967 0.950 . S
H1991 C1969 0.950 . S
C1992 C1993 1.349 . S
C1992 C1994 1.327 . S
C1992 H2017 0.950 . S
C1993 C1992 1.349 . S
C1993 C2009 1.349 . S
C1994 C1992 1.327 . S
C1994 C2013 1.429 . S
C1994 H2018 0.950 . S
C1995 C2012 1.574 . S
C1995 C2014 1.368 . S
C1995 H2019 0.949 . S
H1996 C2000 0.949 . S
C1997 C1998 1.349 . S
C1997 C1999 1.327 . S
C1997 H2020 0.950 . S
C1998 C1997 1.349 . S
C1998 C2010 1.349 . S
C1999 C1997 1.327 . S
C1999 C2015 1.429 . S
C1999 H2021 0.950 . S
C2000 H1996 0.949 . S
C2000 C2008 1.574 . S
C2000 C2016 1.368 . S
H2001 C2009 0.950 . S
H2002 C2007 0.950 . S
H2003 C2008 0.949 . S
H2004 C2010 0.950 . S
H2005 C2011 0.950 . S
H2006 C2012 0.949 . S
C2007 H2002 0.950 . S
C2007 C2009 1.327 . S
C2007 C2013 1.429 . S
C2008 C2000 1.574 . S
C2008 H2003 0.949 . S
C2008 C2014 1.368 . S
C2009 C1993 1.349 . S
C2009 H2001 0.950 . S
C2009 C2007 1.327 . S
C2010 C1998 1.349 . S
C2010 H2004 0.950 . S
C2010 C2011 1.327 . S
C2011 H2005 0.950 . S
C2011 C2010 1.327 . S
C2011 C2015 1.429 . S
C2012 C1995 1.574 . S
C2012 H2006 0.949 . S
C2012 C2016 1.368 . S
C2013 C1994 1.429 . S
C2013 C2007 1.429 . S
C2013 C2014 1.523 . S
C2014 C1995 1.368 . S
C2014 C2008 1.368 . S
C2014 C2013 1.523 . S
C2015 C1999 1.429 . S
C2015 C2011 1.429 . S
C2015 C2016 1.523 . S
C2016 C2000 1.368 . S
C2016 C2012 1.368 . S
C2016 C2015 1.523 . S
H2017 C1992 0.950 . S
H2018 C1994 0.950 . S
H2019 C1995 0.949 . S
H2020 C1997 0.950 . S
H2021 C1999 0.950 . S
C2022 C2023 1.349 . S
C2022 C2024 1.327 . S
C2022 H2047 0.950 . S
C2023 C2022 1.349 . S
C2023 C2039 1.349 . S
C2024 C2022 1.327 . S
C2024 C2043 1.429 . S
C2024 H2048 0.950 . S
C2025 C2042 1.574 . S
C2025 C2044 1.368 . S
C2025 H2049 0.949 . S
H2026 C2030 0.949 . S
C2027 C2028 1.349 . S
C2027 C2029 1.327 . S
C2027 H2050 0.950 . S
C2028 C2027 1.349 . S
C2028 C2040 1.349 . S
C2029 C2027 1.327 . S
C2029 C2045 1.429 . S
C2029 H2051 0.950 . S
C2030 H2026 0.949 . S
C2030 C2038 1.574 . S
C2030 C2046 1.368 . S
H2031 C2039 0.950 . S
H2032 C2037 0.950 . S
H2033 C2038 0.949 . S
H2034 C2040 0.950 . S
H2035 C2041 0.950 . S
H2036 C2042 0.949 . S
C2037 H2032 0.950 . S
C2037 C2039 1.327 . S
C2037 C2043 1.429 . S
C2038 C2030 1.574 . S
C2038 H2033 0.949 . S
C2038 C2044 1.368 . S
C2039 C2023 1.349 . S
C2039 H2031 0.950 . S
C2039 C2037 1.327 . S
C2040 C2028 1.349 . S
C2040 H2034 0.950 . S
C2040 C2041 1.327 . S
C2041 H2035 0.950 . S
C2041 C2040 1.327 . S
C2041 C2045 1.429 . S
C2042 C2025 1.574 . S
C2042 H2036 0.949 . S
C2042 C2046 1.368 . S
C2043 C2024 1.429 . S
C2043 C2037 1.429 . S
C2043 C2044 1.523 . S
C2044 C2025 1.368 . S
C2044 C2038 1.368 . S
C2044 C2043 1.523 . S
C2045 C2029 1.429 . S
C2045 C2041 1.429 . S
C2045 C2046 1.523 . S
C2046 C2030 1.368 . S
C2046 C2042 1.368 . S
C2046 C2045 1.523 . S
H2047 C2022 0.950 . S
H2048 C2024 0.950 . S
H2049 C2025 0.949 . S
H2050 C2027 0.950 . S
H2051 C2029 0.950 . S
C2052 C2053 1.349 . S
C2052 C2054 1.327 . S
C2052 H2077 0.950 . S
C2053 C2052 1.349 . S
C2053 C2069 1.349 . S
C2054 C2052 1.327 . S
C2054 C2073 1.429 . S
C2054 H2078 0.950 . S
C2055 C2072 1.574 . S
C2055 C2074 1.368 . S
C2055 H2079 0.949 . S
H2056 C2060 0.949 . S
C2057 C2058 1.349 . S
C2057 C2059 1.327 . S
C2057 H2080 0.950 . S
C2058 C2057 1.349 . S
C2058 C2070 1.349 . S
C2059 C2057 1.327 . S
C2059 C2075 1.429 . S
C2059 H2081 0.950 . S
C2060 H2056 0.949 . S
C2060 C2068 1.574 . S
C2060 C2076 1.368 . S
H2061 C2069 0.950 . S
H2062 C2067 0.950 . S
H2063 C2068 0.949 . S
H2064 C2070 0.950 . S
H2065 C2071 0.950 . S
H2066 C2072 0.949 . S
C2067 H2062 0.950 . S
C2067 C2069 1.327 . S
C2067 C2073 1.429 . S
C2068 C2060 1.574 . S
C2068 H2063 0.949 . S
C2068 C2074 1.368 . S
C2069 C2053 1.349 . S
C2069 H2061 0.950 . S
C2069 C2067 1.327 . S
C2070 C2058 1.349 . S
C2070 H2064 0.950 . S
C2070 C2071 1.327 . S
C2071 H2065 0.950 . S
C2071 C2070 1.327 . S
C2071 C2075 1.429 . S
C2072 C2055 1.574 . S
C2072 H2066 0.949 . S
C2072 C2076 1.368 . S
C2073 C2054 1.429 . S
C2073 C2067 1.429 . S
C2073 C2074 1.523 . S
C2074 C2055 1.368 . S
C2074 C2068 1.368 . S
C2074 C2073 1.523 . S
C2075 C2059 1.429 . S
C2075 C2071 1.429 . S
C2075 C2076 1.523 . S
C2076 C2060 1.368 . S
C2076 C2072 1.368 . S
C2076 C2075 1.523 . S
H2077 C2052 0.950 . S
H2078 C2054 0.950 . S
H2079 C2055 0.949 . S
H2080 C2057 0.950 . S
H2081 C2059 0.950 . S
C2082 C2083 1.349 . S
C2082 C2084 1.327 . S
C2082 H2107 0.950 . S
C2083 C2082 1.349 . S
C2083 C2099 1.349 . S
C2084 C2082 1.327 . S
C2084 C2103 1.429 . S
C2084 H2108 0.950 . S
C2085 C2102 1.574 . S
C2085 C2104 1.368 . S
C2085 H2109 0.949 . S
H2086 C2090 0.949 . S
C2087 C2088 1.349 . S
C2087 C2089 1.327 . S
C2087 H2110 0.950 . S
C2088 C2087 1.349 . S
C2088 C2100 1.349 . S
C2089 C2087 1.327 . S
C2089 C2105 1.429 . S
C2089 H2111 0.950 . S
C2090 H2086 0.949 . S
C2090 C2098 1.574 . S
C2090 C2106 1.368 . S
H2091 C2099 0.950 . S
H2092 C2097 0.950 . S
H2093 C2098 0.949 . S
H2094 C2100 0.950 . S
H2095 C2101 0.950 . S
H2096 C2102 0.949 . S
C2097 H2092 0.950 . S
C2097 C2099 1.327 . S
C2097 C2103 1.429 . S
C2098 C2090 1.574 . S
C2098 H2093 0.949 . S
C2098 C2104 1.368 . S
C2099 C2083 1.349 . S
C2099 H2091 0.950 . S
C2099 C2097 1.327 . S
C2100 C2088 1.349 . S
C2100 H2094 0.950 . S
C2100 C2101 1.327 . S
C2101 H2095 0.950 . S
C2101 C2100 1.327 . S
C2101 C2105 1.429 . S
C2102 C2085 1.574 . S
C2102 H2096 0.949 . S
C2102 C2106 1.368 . S
C2103 C2084 1.429 . S
C2103 C2097 1.429 . S
C2103 C2104 1.523 . S
C2104 C2085 1.368 . S
C2104 C2098 1.368 . S
C2104 C2103 1.523 . S
C2105 C2089 1.429 . S
C2105 C2101 1.429 . S
C2105 C2106 1.523 . S
C2106 C2090 1.368 . S
C2106 C2102 1.368 . S
C2106 C2105 1.523 . S
H2107 C2082 0.950 . S
H2108 C2084 0.950 . S
H2109 C2085 0.949 . S
H2110 C2087 0.950 . S
H2111 C2089 0.950 . S
C2112 C2113 1.349 . S
C2112 C2114 1.327 . S
C2112 H2137 0.950 . S
C2113 C2112 1.349 . S
C2113 C2129 1.349 . S
C2114 C2112 1.327 . S
C2114 C2133 1.429 . S
C2114 H2138 0.950 . S
C2115 C2132 1.574 . S
C2115 C2134 1.368 . S
C2115 H2139 0.949 . S
H2116 C2120 0.949 . S
C2117 C2118 1.349 . S
C2117 C2119 1.327 . S
C2117 H2140 0.950 . S
C2118 C2117 1.349 . S
C2118 C2130 1.349 . S
C2119 C2117 1.327 . S
C2119 C2135 1.429 . S
C2119 H2141 0.950 . S
C2120 H2116 0.949 . S
C2120 C2128 1.574 . S
C2120 C2136 1.368 . S
H2121 C2129 0.950 . S
H2122 C2127 0.950 . S
H2123 C2128 0.949 . S
H2124 C2130 0.950 . S
H2125 C2131 0.950 . S
H2126 C2132 0.949 . S
C2127 H2122 0.950 . S
C2127 C2129 1.327 . S
C2127 C2133 1.429 . S
C2128 C2120 1.574 . S
C2128 H2123 0.949 . S
C2128 C2134 1.368 . S
C2129 C2113 1.349 . S
C2129 H2121 0.950 . S
C2129 C2127 1.327 . S
C2130 C2118 1.349 . S
C2130 H2124 0.950 . S
C2130 C2131 1.327 . S
C2131 H2125 0.950 . S
C2131 C2130 1.327 . S
C2131 C2135 1.429 . S
C2132 C2115 1.574 . S
C2132 H2126 0.949 . S
C2132 C2136 1.368 . S
C2133 C2114 1.429 . S
C2133 C2127 1.429 . S
C2133 C2134 1.523 . S
C2134 C2115 1.368 . S
C2134 C2128 1.368 . S
C2134 C2133 1.523 . S
C2135 C2119 1.429 . S
C2135 C2131 1.429 . S
C2135 C2136 1.523 . S
C2136 C2120 1.368 . S
C2136 C2132 1.368 . S
C2136 C2135 1.523 . S
H2137 C2112 0.950 . S
H2138 C2114 0.950 . S
H2139 C2115 0.949 . S
H2140 C2117 0.950 . S
H2141 C2119 0.950 . S
C1063 C180 1.244 . S
C1068 C3 1.244 . S
C1093 C241 1.250 . S
C1098 C64 1.250 . S
C1123 C121 1.245 . S
C1128 C298 1.245 . S
C1153 C123 1.247 . S
C1158 C300 1.247 . S
C1183 C5 1.248 . S
C1188 C182 1.248 . S
C1213 C239 1.242 . S
C1218 C62 1.242 . S
C1243 C534 1.241 . S
C1248 C359 1.246 . S
C1273 C418 1.248 . S
C1278 C593 1.242 . S
C1303 C477 1.248 . S
C1308 C652 1.242 . S
C1333 C654 1.251 . S
C1338 C475 1.246 . S
C1363 C536 1.251 . S
C1368 C357 1.245 . S
C1393 C595 1.250 . S
C1398 C416 1.245 . S
C1423 C711 1.244 . S
C1428 C888 1.244 . S
C1453 C772 1.250 . S
C1458 C949 1.250 . S
C1483 C829 1.245 . S
C1488 C1006 1.245 . S
C1513 C1008 1.248 . S
C1518 C831 1.248 . S
C1543 C890 1.248 . S
C1548 C713 1.248 . S
C1573 C947 1.243 . S
C1578 C770 1.243 . S
C1603 C33 1.494 . S
C1608 C446 1.494 . S
C1633 C111 1.497 . S
C1638 C505 1.496 . S
C1663 C387 1.493 . S
C1668 C151 1.493 . S
C1693 C170 1.499 . S
C1698 C819 1.499 . S
C1723 C859 1.495 . S
C1728 C52 1.496 . S
C1753 C741 1.492 . S
C1758 C92 1.492 . S
C1783 C977 1.492 . S
C1788 C210 1.492 . S
C1813 C288 1.499 . S
C1818 C1055 1.499 . S
C1843 C937 1.496 . S
C1848 C328 1.495 . S
C1873 C623 1.495 . S
C1878 C347 1.495 . S
C1903 C229 1.496 . S
C1908 C682 1.495 . S
C1933 C269 1.492 . S
C1938 C564 1.492 . S
C1963 C406 1.463 1_545 S
C1968 C800 1.494 . S
C1993 C465 1.498 . S
C1998 C878 1.503 1_455 S
C2023 C524 1.498 . S
C2028 C760 1.498 . S
C2053 C996 1.504 1_455 S
C2058 C701 1.499 . S
C2083 C1036 1.495 . S
C2088 C583 1.496 . S
C2113 C642 1.464 1_545 S
C2118 C918 1.496 . S
