# Generated by pormake.
# Topology uoy, (4)-cn, num edge types: 1
# Building blocks:
#     Node 0, Type 0, BuildingBlock: UXUYUI_clean_sbu_0, # of connection points: 4
#     Node 1, Type 0, BuildingBlock: UXUYUI_clean_sbu_0, # of connection points: 4
#     Node 2, Type 0, BuildingBlock: UXUYUI_clean_sbu_0, # of connection points: 4
#     Node 3, Type 0, BuildingBlock: UXUYUI_clean_sbu_0, # of connection points: 4
#     Node 4, Type 0, BuildingBlock: UXUYUI_clean_sbu_0, # of connection points: 4
#     Node 5, Type 0, BuildingBlock: UXUYUI_clean_sbu_0, # of connection points: 4
#     Node 6, Type 0, BuildingBlock: UXUYUI_clean_sbu_0, # of connection points: 4
#     Node 7, Type 0, BuildingBlock: UXUYUI_clean_sbu_0, # of connection points: 4
#     Node 8, Type 0, BuildingBlock: UXUYUI_clean_sbu_0, # of connection points: 4
#     Node 9, Type 0, BuildingBlock: UXUYUI_clean_sbu_0, # of connection points: 4
#     Node 10, Type 0, BuildingBlock: UXUYUI_clean_sbu_0, # of connection points: 4
#     Node 11, Type 0, BuildingBlock: UXUYUI_clean_sbu_0, # of connection points: 4
#     Node 12, Type 0, BuildingBlock: UXUYUI_clean_sbu_0, # of connection points: 4
#     Node 13, Type 0, BuildingBlock: UXUYUI_clean_sbu_0, # of connection points: 4
#     Node 14, Type 0, BuildingBlock: UXUYUI_clean_sbu_0, # of connection points: 4
#     Node 15, Type 0, BuildingBlock: UXUYUI_clean_sbu_0, # of connection points: 4
#     Edge 16, Type (0, 0), BuildingBlock: CIFDUS_clean_linker_0, # of connection points: 2
#     Edge 17, Type (0, 0), BuildingBlock: CIFDUS_clean_linker_0, # of connection points: 2
#     Edge 18, Type (0, 0), BuildingBlock: CIFDUS_clean_linker_0, # of connection points: 2
#     Edge 19, Type (0, 0), BuildingBlock: CIFDUS_clean_linker_0, # of connection points: 2
#     Edge 20, Type (0, 0), BuildingBlock: CIFDUS_clean_linker_0, # of connection points: 2
#     Edge 21, Type (0, 0), BuildingBlock: CIFDUS_clean_linker_0, # of connection points: 2
#     Edge 22, Type (0, 0), BuildingBlock: CIFDUS_clean_linker_0, # of connection points: 2
#     Edge 23, Type (0, 0), BuildingBlock: CIFDUS_clean_linker_0, # of connection points: 2
#     Edge 24, Type (0, 0), BuildingBlock: CIFDUS_clean_linker_0, # of connection points: 2
#     Edge 25, Type (0, 0), BuildingBlock: CIFDUS_clean_linker_0, # of connection points: 2
#     Edge 26, Type (0, 0), BuildingBlock: CIFDUS_clean_linker_0, # of connection points: 2
#     Edge 27, Type (0, 0), BuildingBlock: CIFDUS_clean_linker_0, # of connection points: 2
#     Edge 28, Type (0, 0), BuildingBlock: CIFDUS_clean_linker_0, # of connection points: 2
#     Edge 29, Type (0, 0), BuildingBlock: CIFDUS_clean_linker_0, # of connection points: 2
#     Edge 30, Type (0, 0), BuildingBlock: CIFDUS_clean_linker_0, # of connection points: 2
#     Edge 31, Type (0, 0), BuildingBlock: CIFDUS_clean_linker_0, # of connection points: 2
#     Edge 32, Type (0, 0), BuildingBlock: CIFDUS_clean_linker_0, # of connection points: 2
#     Edge 33, Type (0, 0), BuildingBlock: CIFDUS_clean_linker_0, # of connection points: 2
#     Edge 34, Type (0, 0), BuildingBlock: CIFDUS_clean_linker_0, # of connection points: 2
#     Edge 35, Type (0, 0), BuildingBlock: CIFDUS_clean_linker_0, # of connection points: 2
#     Edge 36, Type (0, 0), BuildingBlock: CIFDUS_clean_linker_0, # of connection points: 2
#     Edge 37, Type (0, 0), BuildingBlock: CIFDUS_clean_linker_0, # of connection points: 2
#     Edge 38, Type (0, 0), BuildingBlock: CIFDUS_clean_linker_0, # of connection points: 2
#     Edge 39, Type (0, 0), BuildingBlock: CIFDUS_clean_linker_0, # of connection points: 2
#     Edge 40, Type (0, 0), BuildingBlock: CIFDUS_clean_linker_0, # of connection points: 2
#     Edge 41, Type (0, 0), BuildingBlock: CIFDUS_clean_linker_0, # of connection points: 2
#     Edge 42, Type (0, 0), BuildingBlock: CIFDUS_clean_linker_0, # of connection points: 2
#     Edge 43, Type (0, 0), BuildingBlock: CIFDUS_clean_linker_0, # of connection points: 2
#     Edge 44, Type (0, 0), BuildingBlock: CIFDUS_clean_linker_0, # of connection points: 2
#     Edge 45, Type (0, 0), BuildingBlock: CIFDUS_clean_linker_0, # of connection points: 2
#     Edge 46, Type (0, 0), BuildingBlock: CIFDUS_clean_linker_0, # of connection points: 2
#     Edge 47, Type (0, 0), BuildingBlock: CIFDUS_clean_linker_0, # of connection points: 2
# Relax obj value: 0.195
# Max RMSD: 0.201
# Mean RMSD: 0.200
data_MOF--net-uoy--node1-UXUYUI_clean_sbu_0--edge1-CIFDUS_clean_linker_0
_symmetry_space_group_name_H-M    P1
_symmetry_Int_Tables_number       1
_symmetry_cell_setting            triclinic
loop_
_symmetry_equiv_pos_as_xyz
'x, y, z'
_cell_length_a     36.596269
_cell_length_b     36.603725
_cell_length_c     142.99592
_cell_angle_alpha  90.00513
_cell_angle_beta   90.027597
_cell_angle_gamma 90.022605
loop_
_atom_site_label
_atom_site_type_symbol
_atom_site_fract_x
_atom_site_fract_y
_atom_site_fract_z
_atom_type_partial_charge
Li0 Li 0.28624 0.08927 0.18524 0.0
Li1 Li 0.25548 0.13779 0.19392 0.0
Li2 Li 0.22049 0.08767 0.18587 0.0
Li3 Li 0.24921 0.13587 0.17672 0.0
C4 C 0.27525 0.06173 0.20205 0.0
N5 N 0.31804 0.01626 0.2129 0.0
C6 C 0.29734 0.07634 0.20909 0.0
C7 C 0.2746 0.024 0.20058 0.0
C8 C 0.31885 0.05289 0.21449 0.0
C9 C 0.29654 0.00147 0.20612 0.0
C10 C 0.31314 0.17515 0.18386 0.0
C11 C 0.31453 0.24024 0.18119 0.0
N12 N 0.35112 0.24036 0.18284 0.0
C13 C 0.35085 0.17589 0.18543 0.0
C14 C 0.2949 0.20756 0.18164 0.0
C15 C 0.36952 0.20913 0.18493 0.0
C16 C 0.336 0.03472 0.1788 0.0
N17 N 0.33067 0.06241 0.18498 0.0
C18 C 0.39183 0.05674 0.19064 0.0
C19 C 0.3576 0.07342 0.19089 0.0
C20 C 0.39844 0.02844 0.18423 0.0
C21 C 0.36985 0.01712 0.17833 0.0
H22 H 0.31425 0.02681 0.1741 0.0
H23 H 0.3526 0.09559 0.19571 0.0
C24 C 0.22974 0.16042 0.2112 0.0
N25 N 0.25714 0.16635 0.20497 0.0
C26 C 0.23095 0.1765 0.22004 0.0
C27 C 0.28769 0.20586 0.21572 0.0
C28 C 0.28557 0.18892 0.207 0.0
C29 C 0.2606 0.19898 0.22244 0.0
H30 H 0.20765 0.14207 0.2094 0.0
H31 H 0.30742 0.19268 0.20205 0.0
C32 C 0.23453 0.05666 0.16938 0.0
N33 N 0.19747 0.0049 0.15899 0.0
C34 C 0.21679 0.0667 0.16111 0.0
C35 C 0.2338 0.02024 0.1723 0.0
C36 C 0.19811 0.04014 0.15597 0.0
C37 C 0.21479 0.9945 0.16697 0.0
C38 C 0.18678 0.1699 0.18608 0.0
C39 C 0.15098 0.1652 0.18286 0.0
C40 C 0.19774 0.20412 0.1894 0.0
C41 C 0.12714 0.195 0.18278 0.0
C42 C 0.17309 0.23324 0.18922 0.0
N43 N 0.13861 0.22814 0.18592 0.0
C44 C 0.16946 0.03859 0.19416 0.0
C45 C 0.15247 0.06343 0.17948 0.0
C46 C 0.13551 0.02132 0.19498 0.0
N47 N 0.17703 0.0594 0.18653 0.0
C48 C 0.11834 0.0467 0.18 0.0
C49 C 0.10924 0.02569 0.18788 0.0
H50 H 0.18939 0.03623 0.19971 0.0
H51 H 0.15891 0.08076 0.17359 0.0
C52 C 0.27676 0.17133 0.16085 0.0
N53 N 0.24554 0.16362 0.16559 0.0
C54 C 0.27539 0.19145 0.15257 0.0
C55 C 0.20965 0.1945 0.15411 0.0
C56 C 0.21232 0.17432 0.16236 0.0
C57 C 0.24148 0.20339 0.14913 0.0
H58 H 0.30275 0.16188 0.16351 0.0
H59 H 0.18785 0.16672 0.16608 0.0
O60 O 0.25446 0.08428 0.19659 0.0
O61 O 0.2945 0.14275 0.18433 0.0
O62 O 0.25263 0.08235 0.17455 0.0
O63 O 0.21033 0.14079 0.18632 0.0
H64 H 0.2982 0.10548 0.21032 0.0
H65 H 0.25744 0.01225 0.19521 0.0
H66 H 0.33626 0.06382 0.21993 0.0
H67 H 0.29646 0.97222 0.20503 0.0
H68 H 0.30069 0.26548 0.17948 0.0
H69 H 0.3656 0.15109 0.18703 0.0
H70 H 0.26603 0.20746 0.18013 0.0
H71 H 0.39867 0.21008 0.18617 0.0
H72 H 0.41292 0.06596 0.1954 0.0
H73 H 0.37392 0.99563 0.17323 0.0
H74 H 0.20954 0.1706 0.22505 0.0
H75 H 0.31132 0.2225 0.21736 0.0
H76 H 0.21727 0.09472 0.15872 0.0
H77 H 0.24753 0.012 0.17866 0.0
H78 H 0.1841 0.04754 0.14958 0.0
H79 H 0.21379 0.96626 0.16919 0.0
H80 H 0.14169 0.13893 0.18039 0.0
H81 H 0.22483 0.20824 0.1922 0.0
H82 H 0.09949 0.19175 0.18023 0.0
H83 H 0.18133 0.25987 0.19174 0.0
H84 H 0.12972 0.00515 0.20114 0.0
H85 H 0.09878 0.05143 0.17445 0.0
H86 H 0.3006 0.1979 0.14897 0.0
H87 H 0.18292 0.20251 0.15159 0.0
Li88 Li 0.91109 0.77341 0.4351 0.0
Li89 Li 0.86617 0.74322 0.44458 0.0
Li90 Li 0.90827 0.70746 0.43545 0.0
Li91 Li 0.86076 0.74116 0.42785 0.0
C92 C 0.95641 0.73817 0.44793 0.0
N93 N 0.03006 0.73272 0.45195 0.0
C94 C 0.96813 0.7348 0.45719 0.0
C95 C 0.98215 0.73871 0.44071 0.0
C96 C 0.00549 0.73211 0.45908 0.0
C97 C 0.01925 0.73593 0.44289 0.0
C98 C 0.85359 0.81702 0.44066 0.0
C99 C 0.82728 0.87724 0.4418 0.0
N100 N 0.84565 0.88273 0.44995 0.0
C101 C 0.87221 0.82325 0.44905 0.0
C102 C 0.83097 0.84421 0.43699 0.0
C103 C 0.86783 0.85664 0.45364 0.0
C104 C 0.93345 0.83884 0.42671 0.0
N105 N 0.93888 0.81745 0.43436 0.0
C106 C 0.97189 0.8653 0.44197 0.0
C107 C 0.95814 0.82975 0.44186 0.0
C108 C 0.96533 0.88866 0.43435 0.0
C109 C 0.9466 0.87471 0.42655 0.0
H110 H 0.91718 0.82866 0.42096 0.0
H111 H 0.96114 0.8128 0.44799 0.0
C112 C 0.85697 0.72219 0.46294 0.0
N113 N 0.84194 0.74382 0.45626 0.0
C114 C 0.8441 0.72355 0.4721 0.0
C115 C 0.79955 0.76852 0.46725 0.0
C116 C 0.81304 0.76595 0.45814 0.0
C117 C 0.81572 0.74776 0.47443 0.0
H118 H 0.87971 0.70461 0.46118 0.0
H119 H 0.80138 0.78264 0.45267 0.0
C120 C 0.91733 0.71982 0.41622 0.0
N121 N 0.92456 0.68036 0.39985 0.0
C122 C 0.90081 0.68554 0.41535 0.0
C123 C 0.93747 0.73404 0.40876 0.0
C124 C 0.90481 0.66601 0.40702 0.0
C125 C 0.94083 0.71367 0.40054 0.0
C126 C 0.81892 0.69109 0.43785 0.0
C127 C 0.80892 0.65469 0.43929 0.0
C128 C 0.79196 0.71813 0.43754 0.0
C129 C 0.77202 0.64589 0.44041 0.0
C130 C 0.75537 0.70822 0.43869 0.0
N131 N 0.74624 0.67262 0.44009 0.0
C132 C 0.92078 0.63857 0.44234 0.0
C133 C 0.96178 0.65324 0.43006 0.0
C134 C 0.9352 0.60344 0.44301 0.0
N135 N 0.93384 0.66239 0.43587 0.0
C136 C 0.97677 0.61813 0.43041 0.0
C137 C 0.9632 0.59267 0.4369 0.0
H138 H 0.89858 0.64675 0.44687 0.0
H139 H 0.97194 0.67288 0.42505 0.0
C140 C 0.82534 0.77307 0.41253 0.0
N141 N 0.82928 0.7413 0.41732 0.0
C142 C 0.80583 0.77369 0.40413 0.0
C143 C 0.79429 0.709 0.40591 0.0
C144 C 0.81392 0.70967 0.41426 0.0
C145 C 0.79048 0.7412 0.40065 0.0
H146 H 0.83818 0.79772 0.41511 0.0
H147 H 0.81798 0.68463 0.41813 0.0
O148 O 0.91986 0.74055 0.44602 0.0
O149 O 0.85799 0.78489 0.4359 0.0
O150 O 0.91349 0.7398 0.42424 0.0
O151 O 0.85502 0.69992 0.43678 0.0
H152 H 0.94853 0.73429 0.46286 0.0
H153 H 0.9737 0.74132 0.4335 0.0
H154 H 0.01495 0.72952 0.46622 0.0
H155 H 0.03946 0.73633 0.43737 0.0
H156 H 0.80988 0.89855 0.43904 0.0
H157 H 0.88996 0.80262 0.45199 0.0
H158 H 0.81652 0.83986 0.43048 0.0
H159 H 0.88212 0.86184 0.46013 0.0
H160 H 0.98655 0.87473 0.44809 0.0
H161 H 0.94048 0.89184 0.42058 0.0
H162 H 0.85685 0.70645 0.47735 0.0
H163 H 0.77784 0.78777 0.46871 0.0
H164 H 0.88509 0.67407 0.42103 0.0
H165 H 0.9503 0.76062 0.40932 0.0
H166 H 0.89217 0.63945 0.40625 0.0
H167 H 0.95633 0.72436 0.39471 0.0
H168 H 0.82948 0.63346 0.43954 0.0
H169 H 0.79907 0.74643 0.43641 0.0
H170 H 0.76389 0.61782 0.44153 0.0
H171 H 0.73423 0.72886 0.43847 0.0
H172 H 0.92381 0.58455 0.44805 0.0
H173 H 0.99864 0.61092 0.42565 0.0
H174 H 0.8032 0.7992 0.40036 0.0
H175 H 0.78344 0.68324 0.40342 0.0
Li176 Li 0.2063 0.40364 0.68627 0.0
Li177 Li 0.23869 0.35524 0.69413 0.0
Li178 Li 0.27398 0.40117 0.6859 0.0
Li179 Li 0.2376 0.35787 0.67763 0.0
C180 C 0.24421 0.44354 0.70009 0.0
N181 N 0.25012 0.51476 0.70633 0.0
C182 C 0.24741 0.45086 0.70964 0.0
C183 C 0.24397 0.4725 0.6937 0.0
C184 C 0.25036 0.48704 0.71266 0.0
C185 C 0.24701 0.50829 0.697 0.0
C186 C 0.16493 0.34429 0.69123 0.0
C187 C 0.10714 0.31389 0.69353 0.0
N188 N 0.1033 0.33124 0.70188 0.0
C189 C 0.16039 0.36183 0.69984 0.0
C190 C 0.1381 0.32014 0.68804 0.0
C191 C 0.12905 0.35486 0.70512 0.0
C192 C 0.13901 0.42422 0.67927 0.0
N193 N 0.16243 0.43177 0.68639 0.0
C194 C 0.11858 0.47158 0.69344 0.0
C195 C 0.15281 0.4547 0.69346 0.0
C196 C 0.09381 0.46416 0.68617 0.0
C197 C 0.10445 0.44023 0.679 0.0
H198 H 0.14686 0.40485 0.67393 0.0
H199 H 0.17105 0.4591 0.69928 0.0
C200 C 0.2554 0.33936 0.71266 0.0
N201 N 0.23844 0.32556 0.70499 0.0
C202 C 0.2525 0.32161 0.72125 0.0
C203 C 0.21629 0.27467 0.71378 0.0
C204 C 0.21973 0.29349 0.70533 0.0
C205 C 0.23207 0.28918 0.72194 0.0
H206 H 0.27008 0.36492 0.71216 0.0
H207 H 0.2064 0.28314 0.69912 0.0
C208 C 0.24637 0.41341 0.66621 0.0
N209 N 0.25962 0.41416 0.64719 0.0
C210 C 0.28179 0.40808 0.66282 0.0
C211 C 0.21773 0.41937 0.65993 0.0
C212 C 0.28793 0.40854 0.65318 0.0
C213 C 0.22497 0.41955 0.65033 0.0
C214 C 0.28968 0.31129 0.6855 0.0
C215 C 0.32603 0.30065 0.68672 0.0
C216 C 0.26272 0.28469 0.68419 0.0
C217 C 0.33482 0.26351 0.68664 0.0
C218 C 0.27261 0.24784 0.68416 0.0
N219 N 0.30815 0.2381 0.68538 0.0
C220 C 0.34615 0.41264 0.69123 0.0
C221 C 0.32313 0.45873 0.68117 0.0
C222 C 0.38048 0.4292 0.69134 0.0
N223 N 0.31852 0.4274 0.68613 0.0
C224 C 0.35702 0.47628 0.6811 0.0
C225 C 0.38634 0.4613 0.68617 0.0
H226 H 0.34154 0.38773 0.69512 0.0
H227 H 0.30068 0.4697 0.67713 0.0
C228 C 0.20081 0.32567 0.66261 0.0
N229 N 0.23452 0.33106 0.66634 0.0
C230 C 0.1971 0.30909 0.65388 0.0
C231 C 0.26289 0.30352 0.65308 0.0
C232 C 0.26531 0.32005 0.66184 0.0
C233 C 0.22844 0.29817 0.64894 0.0
H234 H 0.17688 0.33503 0.66635 0.0
H235 H 0.29178 0.32518 0.66494 0.0
O236 O 0.24163 0.40814 0.69706 0.0
O237 O 0.19524 0.35064 0.68586 0.0
O238 O 0.23969 0.4121 0.67562 0.0
O239 O 0.28087 0.34763 0.68556 0.0
H240 H 0.24754 0.42881 0.71468 0.0
H241 H 0.24116 0.46755 0.6863 0.0
H242 H 0.25284 0.49308 0.72004 0.0
H243 H 0.24683 0.53093 0.69214 0.0
H244 H 0.08616 0.29526 0.69114 0.0
H245 H 0.18075 0.38062 0.70245 0.0
H246 H 0.14119 0.30637 0.68139 0.0
H247 H 0.12521 0.36823 0.7118 0.0
H248 H 0.11112 0.48931 0.69919 0.0
H249 H 0.0862 0.43382 0.67327 0.0
H250 H 0.26468 0.33416 0.72736 0.0
H251 H 0.20068 0.24954 0.71395 0.0
H252 H 0.3042 0.40286 0.66757 0.0
H253 H 0.19018 0.42363 0.66241 0.0
H254 H 0.31516 0.40416 0.65047 0.0
H255 H 0.20303 0.42392 0.64539 0.0
H256 H 0.34724 0.32091 0.68771 0.0
H257 H 0.23446 0.2923 0.6832 0.0
H258 H 0.36286 0.2549 0.68759 0.0
H259 H 0.25202 0.22699 0.68317 0.0
H260 H 0.40219 0.41705 0.69545 0.0
H261 H 0.36046 0.50077 0.67695 0.0
H262 H 0.17 0.30506 0.65102 0.0
H263 H 0.28779 0.29606 0.64946 0.0
Li264 Li 0.64295 0.74596 0.93874 0.0
Li265 Li 0.59855 0.71258 0.92953 0.0
Li266 Li 0.64491 0.75063 0.92145 0.0
Li267 Li 0.59313 0.77834 0.92974 0.0
C268 C 0.68773 0.69366 0.92952 0.0
N269 N 0.75865 0.66776 0.92957 0.0
C270 C 0.69452 0.65634 0.93065 0.0
C271 C 0.71698 0.71771 0.92831 0.0
C272 C 0.73058 0.6438 0.93069 0.0
C273 C 0.75264 0.70413 0.92838 0.0
C274 C 0.56541 0.7234 0.9455 0.0
C275 C 0.50436 0.70174 0.94856 0.0
N276 N 0.51782 0.67873 0.95519 0.0
C277 C 0.57864 0.69977 0.95239 0.0
C278 C 0.52798 0.72465 0.94361 0.0
C279 C 0.55413 0.67732 0.9572 0.0
C280 C 0.66333 0.77565 0.9559 0.0
N281 N 0.66875 0.74636 0.95023 0.0
C282 C 0.70342 0.71613 0.96207 0.0
C283 C 0.68857 0.71702 0.95309 0.0
C284 C 0.69726 0.74546 0.9682 0.0
C285 C 0.67744 0.77579 0.96498 0.0
H286 H 0.64698 0.79836 0.95347 0.0
H287 H 0.69153 0.69357 0.94858 0.0
C288 C 0.54481 0.66062 0.92356 0.0
N289 N 0.57403 0.66683 0.92921 0.0
C290 C 0.52855 0.62607 0.9233 0.0
C291 C 0.5728 0.60515 0.93466 0.0
C292 C 0.58811 0.64003 0.93471 0.0
C293 C 0.54272 0.59772 0.92886 0.0
H294 H 0.53443 0.68227 0.91918 0.0
H295 H 0.61138 0.64583 0.93914 0.0
C296 C 0.66978 0.81892 0.93109 0.0
N297 N 0.71764 0.87736 0.93184 0.0
C298 C 0.66051 0.85225 0.92695 0.0
C299 C 0.70328 0.81553 0.93572 0.0
C300 C 0.68511 0.88139 0.92737 0.0
C301 C 0.72713 0.84532 0.936 0.0
C302 C 0.56698 0.75907 0.91258 0.0
C303 C 0.57821 0.77327 0.90397 0.0
C304 C 0.52993 0.75937 0.91494 0.0
C305 C 0.55213 0.7879 0.8979 0.0
C306 C 0.50471 0.77429 0.90868 0.0
N307 N 0.51623 0.78814 0.90036 0.0
C308 C 0.68061 0.72361 0.90564 0.0
C309 C 0.68695 0.78757 0.90769 0.0
C310 C 0.70011 0.72511 0.89727 0.0
N311 N 0.67442 0.75458 0.91063 0.0
C312 C 0.70673 0.79033 0.89938 0.0
C313 C 0.71326 0.75886 0.89403 0.0
H314 H 0.66994 0.69781 0.90812 0.0
H315 H 0.68094 0.81187 0.91165 0.0
C316 C 0.54614 0.83064 0.93795 0.0
N317 N 0.56283 0.82059 0.92985 0.0
C318 C 0.52754 0.86394 0.9385 0.0
C319 C 0.5427 0.8752 0.9223 0.0
C320 C 0.56129 0.84201 0.9221 0.0
C321 C 0.52603 0.88682 0.93062 0.0
H322 H 0.54828 0.81332 0.94405 0.0
H323 H 0.57588 0.83415 0.91585 0.0
O324 O 0.65254 0.70629 0.92947 0.0
O325 O 0.58905 0.74496 0.94058 0.0
O326 O 0.64571 0.79023 0.93087 0.0
O327 O 0.59218 0.74484 0.91863 0.0
H328 H 0.67219 0.63726 0.93151 0.0
H329 H 0.71222 0.74646 0.9272 0.0
H330 H 0.73623 0.61502 0.93161 0.0
H331 H 0.77553 0.72248 0.92745 0.0
H332 H 0.47533 0.70226 0.94714 0.0
H333 H 0.60755 0.69848 0.95393 0.0
H334 H 0.51731 0.74303 0.93835 0.0
H335 H 0.564 0.6587 0.9625 0.0
H336 H 0.7179 0.69192 0.96435 0.0
H337 H 0.67215 0.79893 0.9695 0.0
H338 H 0.50563 0.62141 0.91866 0.0
H339 H 0.58425 0.58429 0.93916 0.0
H340 H 0.63481 0.85552 0.92334 0.0
H341 H 0.71083 0.7903 0.93913 0.0
H342 H 0.67833 0.90723 0.92413 0.0
H343 H 0.75314 0.843 0.93955 0.0
H344 H 0.60677 0.77313 0.90202 0.0
H345 H 0.52081 0.74853 0.92157 0.0
H346 H 0.56043 0.79911 0.89123 0.0
H347 H 0.47597 0.7749 0.91044 0.0
H348 H 0.70482 0.70018 0.89337 0.0
H349 H 0.71591 0.81694 0.89705 0.0
H350 H 0.51496 0.87195 0.94504 0.0
H351 H 0.5428 0.89236 0.91613 0.0
Li352 Li 0.24203 0.37004 0.07193 0.0
Li353 Li 0.20744 0.41318 0.06363 0.0
Li354 Li 0.24694 0.36838 0.0549 0.0
Li355 Li 0.27253 0.42026 0.06415 0.0
C356 C 0.18947 0.32572 0.06549 0.0
N357 N 0.1624 0.25876 0.07116 0.0
C358 C 0.16911 0.32289 0.07373 0.0
C359 C 0.19588 0.29447 0.06011 0.0
C360 C 0.15573 0.2888 0.07649 0.0
C361 C 0.182 0.26088 0.0631 0.0
C362 C 0.21606 0.4472 0.07915 0.0
C363 C 0.19432 0.50883 0.08131 0.0
N364 N 0.16874 0.49636 0.08742 0.0
C365 C 0.18964 0.43502 0.08549 0.0
C366 C 0.21854 0.48442 0.07707 0.0
C367 C 0.16595 0.46029 0.08959 0.0
C368 C 0.24814 0.35705 0.0912 0.0
N369 N 0.24582 0.33988 0.0828 0.0
C370 C 0.25107 0.28153 0.09018 0.0
C371 C 0.24807 0.30287 0.08213 0.0
C372 C 0.25224 0.29854 0.09897 0.0
C373 C 0.25114 0.33683 0.09942 0.0
H374 H 0.24805 0.38652 0.09153 0.0
H375 H 0.2475 0.28987 0.07535 0.0
C376 C 0.15496 0.46693 0.05761 0.0
N377 N 0.16101 0.43714 0.06309 0.0
C378 C 0.12044 0.48341 0.05744 0.0
C379 C 0.09929 0.43823 0.0685 0.0
C380 C 0.13388 0.42245 0.06837 0.0
C381 C 0.09222 0.46914 0.063 0.0
H382 H 0.17681 0.47783 0.05337 0.0
H383 H 0.1392 0.39861 0.07256 0.0
C384 C 0.31166 0.35145 0.06968 0.0
N385 N 0.36035 0.31719 0.08157 0.0
C386 C 0.32793 0.37091 0.077 0.0
C387 C 0.32004 0.3145 0.06845 0.0
C388 C 0.3525 0.35312 0.08292 0.0
C389 C 0.34476 0.2977 0.07452 0.0
C390 C 0.25821 0.44737 0.04744 0.0
C391 C 0.27837 0.43619 0.03965 0.0
C392 C 0.25689 0.48442 0.04979 0.0
C393 C 0.29726 0.46226 0.0344 0.0
C394 C 0.27618 0.50964 0.04436 0.0
N395 N 0.29581 0.49813 0.03685 0.0
C396 C 0.23042 0.34133 0.0368 0.0
C397 C 0.28952 0.32779 0.04266 0.0
C398 C 0.23992 0.3276 0.02801 0.0
N399 N 0.25549 0.34179 0.04382 0.0
C400 C 0.30005 0.31357 0.03404 0.0
C401 C 0.27554 0.3145 0.02649 0.0
H402 H 0.20379 0.3534 0.0379 0.0
H403 H 0.30919 0.32949 0.04827 0.0
C404 C 0.32253 0.47577 0.07072 0.0
N405 N 0.31541 0.44969 0.0642 0.0
C406 C 0.35682 0.49271 0.07099 0.0
C407 C 0.37527 0.45597 0.05777 0.0
C408 C 0.34089 0.43968 0.05779 0.0
C409 C 0.38393 0.48238 0.06454 0.0
H410 H 0.30221 0.48236 0.07594 0.0
H411 H 0.33479 0.41815 0.05285 0.0
O412 O 0.20259 0.35888 0.0626 0.0
O413 O 0.239 0.42277 0.0749 0.0
O414 O 0.28673 0.36818 0.06398 0.0
O415 O 0.24005 0.42219 0.05278 0.0
H416 H 0.16449 0.34649 0.07811 0.0
H417 H 0.21145 0.29606 0.0537 0.0
H418 H 0.14026 0.28618 0.0829 0.0
H419 H 0.18684 0.23649 0.05901 0.0
H420 H 0.19584 0.53769 0.07973 0.0
H421 H 0.18691 0.40626 0.08709 0.0
H422 H 0.23878 0.49437 0.0722 0.0
H423 H 0.1452 0.45119 0.09444 0.0
H424 H 0.25192 0.25207 0.08952 0.0
H425 H 0.253 0.35105 0.10604 0.0
H426 H 0.11598 0.50725 0.0531 0.0
H427 H 0.07812 0.42607 0.07279 0.0
H428 H 0.32119 0.39929 0.0782 0.0
H429 H 0.3071 0.29876 0.06296 0.0
H430 H 0.36518 0.36783 0.08863 0.0
H431 H 0.35137 0.26909 0.07367 0.0
H432 H 0.27976 0.40771 0.03771 0.0
H433 H 0.24138 0.4936 0.05577 0.0
H434 H 0.31313 0.45394 0.02838 0.0
H435 H 0.27556 0.53836 0.04614 0.0
H436 H 0.22034 0.32925 0.02234 0.0
H437 H 0.32763 0.30337 0.03321 0.0
H438 H 0.36247 0.51257 0.07641 0.0
H439 H 0.39506 0.44749 0.05257 0.0
Li440 Li 0.65808 0.74475 0.31944 0.0
Li441 Li 0.60843 0.71422 0.31146 0.0
Li442 Li 0.65802 0.74356 0.30213 0.0
Li443 Li 0.61139 0.78013 0.31024 0.0
C444 C 0.69338 0.68254 0.31208 0.0
N445 N 0.75777 0.64381 0.3141 0.0
C446 C 0.69328 0.64825 0.31639 0.0
C447 C 0.72618 0.69673 0.30863 0.0
C448 C 0.72612 0.62921 0.3174 0.0
C449 C 0.75845 0.67686 0.30977 0.0
C450 C 0.5778 0.73605 0.32718 0.0
C451 C 0.51391 0.72683 0.33056 0.0
N452 N 0.52317 0.70521 0.33793 0.0
C453 C 0.5867 0.71409 0.33484 0.0
C454 C 0.54114 0.74279 0.32507 0.0
C455 C 0.55869 0.69861 0.34017 0.0
C456 C 0.69627 0.77912 0.33398 0.0
N457 N 0.68615 0.74595 0.33057 0.0
C458 C 0.71067 0.71603 0.34402 0.0
C459 C 0.69292 0.71467 0.33539 0.0
C460 C 0.72148 0.74992 0.3477 0.0
C461 C 0.71445 0.78173 0.34253 0.0
H462 H 0.68949 0.80366 0.33014 0.0
H463 H 0.68349 0.68879 0.33268 0.0
C464 C 0.55247 0.66515 0.30553 0.0
N465 N 0.57863 0.67178 0.31207 0.0
C466 C 0.53418 0.63162 0.30541 0.0
C467 C 0.56977 0.61275 0.31881 0.0
C468 C 0.58714 0.64666 0.31871 0.0
C469 C 0.54337 0.60465 0.31199 0.0
H470 H 0.54672 0.68533 0.30022 0.0
H471 H 0.6082 0.65261 0.32379 0.0
C472 C 0.69538 0.80767 0.30947 0.0
N473 N 0.75602 0.85208 0.30742 0.0
C474 C 0.69184 0.84257 0.3056 0.0
C475 C 0.72974 0.79568 0.31245 0.0
C476 C 0.72282 0.86452 0.30458 0.0
C477 C 0.76006 0.81844 0.31132 0.0
C478 C 0.58026 0.75991 0.2939 0.0
C479 C 0.59223 0.77244 0.28519 0.0
C480 C 0.54351 0.76369 0.29637 0.0
C481 C 0.56729 0.78912 0.27915 0.0
C482 C 0.51943 0.78056 0.29014 0.0
N483 N 0.53172 0.79284 0.28173 0.0
C484 C 0.6853 0.70778 0.28628 0.0
C485 C 0.69806 0.77125 0.28671 0.0
C486 C 0.69882 0.70534 0.27717 0.0
N487 N 0.68459 0.74052 0.29076 0.0
C488 C 0.71196 0.77005 0.27765 0.0
C489 C 0.71158 0.73697 0.27266 0.0
H490 H 0.67385 0.6839 0.28964 0.0
H491 H 0.69607 0.79713 0.29026 0.0
C492 C 0.5701 0.83924 0.31741 0.0
N493 N 0.58687 0.82587 0.30965 0.0
C494 C 0.55671 0.875 0.3175 0.0
C495 C 0.57732 0.88213 0.30154 0.0
C496 C 0.59032 0.84634 0.30177 0.0
C497 C 0.56093 0.89719 0.30954 0.0
H498 H 0.56844 0.82264 0.32365 0.0
H499 H 0.60467 0.83546 0.29579 0.0
O500 O 0.66134 0.70144 0.31099 0.0
O501 O 0.60484 0.75099 0.3218 0.0
O502 O 0.66518 0.78595 0.31058 0.0
O503 O 0.60433 0.74372 0.29994 0.0
H504 H 0.66816 0.63647 0.31897 0.0
H505 H 0.72677 0.72264 0.30504 0.0
H506 H 0.72643 0.60278 0.32078 0.0
H507 H 0.78401 0.68765 0.30716 0.0
H508 H 0.48541 0.73168 0.32898 0.0
H509 H 0.61493 0.70873 0.33661 0.0
H510 H 0.53379 0.76024 0.31927 0.0
H511 H 0.56519 0.68131 0.34607 0.0
H512 H 0.71561 0.6909 0.34782 0.0
H513 H 0.72182 0.80841 0.34521 0.0
H514 H 0.51422 0.62628 0.29998 0.0
H515 H 0.57732 0.59287 0.32408 0.0
H516 H 0.66552 0.85258 0.30335 0.0
H517 H 0.73298 0.76935 0.31576 0.0
H518 H 0.72045 0.89146 0.30153 0.0
H519 H 0.78678 0.80943 0.31359 0.0
H520 H 0.62047 0.76949 0.28312 0.0
H521 H 0.53369 0.75376 0.30302 0.0
H522 H 0.57623 0.79911 0.27241 0.0
H523 H 0.49095 0.78383 0.29198 0.0
H524 H 0.69815 0.67929 0.27358 0.0
H525 H 0.72074 0.79526 0.27438 0.0
H526 H 0.54468 0.88564 0.32386 0.0
H527 H 0.58082 0.89809 0.29523 0.0
Li528 Li 0.23027 0.14165 0.57025 0.0
Li529 Li 0.25908 0.09682 0.56033 0.0
Li530 Li 0.22527 0.1488 0.55309 0.0
Li531 Li 0.19275 0.09784 0.56053 0.0
C532 C 0.28762 0.18296 0.56219 0.0
N533 N 0.32298 0.2492 0.56441 0.0
C534 C 0.32445 0.18398 0.56479 0.0
C535 C 0.26907 0.21568 0.56053 0.0
C536 C 0.34177 0.21772 0.56594 0.0
C537 C 0.28732 0.24887 0.56174 0.0
C538 C 0.24309 0.05911 0.57555 0.0
C539 C 0.25405 0.99451 0.5773 0.0
N540 N 0.27884 0.00174 0.58415 0.0
C541 C 0.26832 0.06588 0.58268 0.0
C542 C 0.23557 0.02315 0.5729 0.0
C543 C 0.28625 0.03651 0.58691 0.0
C544 C 0.20242 0.17167 0.58688 0.0
N545 N 0.23361 0.16484 0.58204 0.0
C546 C 0.27008 0.18706 0.59466 0.0
C547 C 0.26706 0.17197 0.58574 0.0
C548 C 0.23834 0.1947 0.59981 0.0
C549 C 0.20414 0.18699 0.59581 0.0
H550 H 0.17623 0.16478 0.58385 0.0
H551 H 0.29143 0.16513 0.58187 0.0
C552 C 0.30895 0.04325 0.55292 0.0
N553 N 0.30279 0.06898 0.55959 0.0
C554 C 0.34327 0.02662 0.55222 0.0
C555 C 0.36387 0.06316 0.56528 0.0
C556 C 0.32922 0.07876 0.56577 0.0
C557 C 0.37151 0.03694 0.55837 0.0
H558 H 0.28759 0.03626 0.54802 0.0
H559 H 0.32356 0.09946 0.57096 0.0
C560 C 0.16237 0.18015 0.56285 0.0
N561 N 0.11419 0.23832 0.5636 0.0
C562 C 0.12706 0.17671 0.55921 0.0
C563 C 0.17282 0.21305 0.56705 0.0
C564 C 0.10322 0.20646 0.5596 0.0
C565 C 0.14818 0.24216 0.56732 0.0
C566 C 0.21015 0.07326 0.54312 0.0
C567 C 0.19566 0.0869 0.53478 0.0
C568 C 0.20848 0.03581 0.54496 0.0
C569 C 0.17917 0.06285 0.52847 0.0
C570 C 0.19176 0.01264 0.53847 0.0
N571 N 0.17754 0.02653 0.53044 0.0
C572 C 0.2543 0.18858 0.53793 0.0
C573 C 0.18975 0.19044 0.53923 0.0
C574 C 0.25284 0.20701 0.52939 0.0
N575 N 0.22296 0.18031 0.54258 0.0
C576 C 0.18701 0.20896 0.53074 0.0
C577 C 0.21876 0.21671 0.5256 0.0
H578 H 0.28031 0.17957 0.54069 0.0
H579 H 0.16524 0.18232 0.54285 0.0
C580 C 0.13541 0.05236 0.56735 0.0
N581 N 0.14737 0.07236 0.55995 0.0
C582 C 0.09982 0.03834 0.56742 0.0
C583 C 0.09008 0.06495 0.55216 0.0
C584 C 0.12571 0.07838 0.55238 0.0
C585 C 0.07638 0.04533 0.55983 0.0
H586 H 0.15297 0.04857 0.57336 0.0
H587 H 0.13549 0.09516 0.5467 0.0
O588 O 0.27028 0.15006 0.56103 0.0
O589 O 0.22573 0.08754 0.57122 0.0
O590 O 0.18591 0.151 0.56263 0.0
O591 O 0.22611 0.09646 0.54941 0.0
H592 H 0.33957 0.15904 0.56595 0.0
H593 H 0.24105 0.21553 0.55821 0.0
H594 H 0.37017 0.21886 0.56802 0.0
H595 H 0.27318 0.27436 0.5605 0.0
H596 H 0.24863 0.96655 0.57528 0.0
H597 H 0.2743 0.09353 0.58486 0.0
H598 H 0.2156 0.0174 0.56752 0.0
H599 H 0.30609 0.04137 0.59238 0.0
H600 H 0.29695 0.19267 0.5975 0.0
H601 H 0.17905 0.19191 0.59962 0.0
H602 H 0.34772 0.00624 0.54685 0.0
H603 H 0.38474 0.07257 0.57007 0.0
H604 H 0.11818 0.15147 0.55603 0.0
H605 H 0.19948 0.21606 0.5702 0.0
H606 H 0.07595 0.20419 0.55673 0.0
H607 H 0.15601 0.26775 0.57053 0.0
H608 H 0.19699 0.11575 0.5332 0.0
H609 H 0.21991 0.02476 0.55132 0.0
H610 H 0.16768 0.07306 0.522 0.0
H611 H 0.19011 0.98361 0.53983 0.0
H612 H 0.27796 0.21254 0.52565 0.0
H613 H 0.16015 0.21512 0.52798 0.0
H614 H 0.09026 0.02365 0.57352 0.0
H615 H 0.07312 0.07066 0.54612 0.0
Li616 Li 0.92239 0.79414 0.80935 0.0
Li617 Li 0.87086 0.76069 0.81615 0.0
Li618 Li 0.92489 0.72628 0.80964 0.0
Li619 Li 0.88126 0.75679 0.79964 0.0
C620 C 0.9433 0.76636 0.82813 0.0
N621 N 0.98437 0.776 0.84419 0.0
C622 C 0.9301 0.78802 0.83544 0.0
C623 C 0.97725 0.74919 0.82907 0.0
C624 C 0.95131 0.79271 0.84347 0.0
C625 C 0.99764 0.75451 0.83722 0.0
C626 C 0.84158 0.82337 0.80955 0.0
C627 C 0.77736 0.83362 0.81226 0.0
N628 N 0.785 0.86804 0.81527 0.0
C629 C 0.84879 0.85891 0.81261 0.0
C630 C 0.80557 0.81067 0.80931 0.0
C631 C 0.81981 0.88105 0.81549 0.0
C632 C 0.96147 0.85254 0.80159 0.0
N633 N 0.94868 0.83887 0.8098 0.0
C634 C 0.96737 0.89271 0.81795 0.0
C635 C 0.95143 0.85807 0.81791 0.0
C636 C 0.98048 0.90769 0.80955 0.0
C637 C 0.97783 0.88695 0.80132 0.0
H638 H 0.95803 0.83713 0.7952 0.0
H639 H 0.94009 0.84714 0.82428 0.0
C640 C 0.82213 0.72755 0.82865 0.0
N641 N 0.83704 0.76019 0.82621 0.0
C642 C 0.80044 0.72473 0.83665 0.0
C643 C 0.80914 0.78938 0.83932 0.0
C644 C 0.83067 0.79091 0.83129 0.0
C645 C 0.7943 0.75582 0.84219 0.0
H646 H 0.82813 0.70344 0.82456 0.0
H647 H 0.84327 0.81643 0.8293 0.0
C648 C 0.97233 0.75995 0.79694 0.0
N649 N 0.04616 0.76083 0.79287 0.0
C650 C 0.98439 0.75302 0.78784 0.0
C651 C 0.99782 0.7677 0.80394 0.0
C652 C 0.02183 0.75347 0.78593 0.0
C653 C 0.03501 0.76794 0.80176 0.0
C654 C 0.8512 0.69359 0.80291 0.0
C655 C 0.86802 0.66708 0.79735 0.0
C656 C 0.81326 0.6977 0.80261 0.0
C657 C 0.84656 0.64541 0.79147 0.0
C658 C 0.79276 0.67549 0.79664 0.0
N659 N 0.8097 0.65006 0.79123 0.0
C660 C 0.94769 0.66453 0.81939 0.0
C661 C 0.97352 0.66928 0.80424 0.0
C662 C 0.96368 0.63029 0.82066 0.0
N663 N 0.95271 0.68311 0.81127 0.0
C664 C 0.9901 0.63516 0.80522 0.0
C665 C 0.9848 0.61492 0.81346 0.0
H666 H 0.93031 0.67592 0.82477 0.0
H667 H 0.97625 0.68406 0.79775 0.0
C668 C 0.82793 0.7689 0.78521 0.0
N669 N 0.86002 0.75269 0.78761 0.0
C670 C 0.81428 0.76528 0.77613 0.0
C671 C 0.86705 0.72855 0.77223 0.0
C672 C 0.87947 0.73266 0.78136 0.0
C673 C 0.83419 0.74518 0.76949 0.0
H674 H 0.8131 0.78482 0.79031 0.0
H675 H 0.90465 0.71973 0.78352 0.0
O676 O 0.92253 0.76079 0.82028 0.0
O677 O 0.86965 0.80128 0.80674 0.0
O678 O 0.93572 0.75944 0.79892 0.0
O679 O 0.87185 0.71574 0.80851 0.0
H680 H 0.90399 0.80151 0.83487 0.0
H681 H 0.98781 0.7318 0.82359 0.0
H682 H 0.94147 0.80964 0.84914 0.0
H683 H 0.02398 0.74146 0.83802 0.0
H684 H 0.74939 0.82405 0.81218 0.0
H685 H 0.87643 0.86932 0.81276 0.0
H686 H 0.79952 0.78323 0.80699 0.0
H687 H 0.825 0.90858 0.81791 0.0
H688 H 0.969 0.9078 0.82445 0.0
H689 H 0.98706 0.89776 0.79468 0.0
H690 H 0.78989 0.69825 0.83868 0.0
H691 H 0.80472 0.8141 0.84333 0.0
H692 H 0.96507 0.7473 0.7823 0.0
H693 H 0.98897 0.77401 0.81094 0.0
H694 H 0.03154 0.74801 0.77892 0.0
H695 H 0.05499 0.77392 0.80712 0.0
H696 H 0.89737 0.66362 0.79748 0.0
H697 H 0.79981 0.71787 0.80693 0.0
H698 H 0.85923 0.62497 0.78707 0.0
H699 H 0.76339 0.6785 0.7963 0.0
H700 H 0.95838 0.61544 0.82707 0.0
H701 H 0.0064 0.62451 0.79952 0.0
H702 H 0.78888 0.7786 0.77426 0.0
H703 H 0.88285 0.71226 0.76737 0.0
Li704 Li 0.7388 0.63143 0.69188 0.0
Li705 Li 0.77237 0.58478 0.68358 0.0
Li706 Li 0.7383 0.63496 0.67491 0.0
Li707 Li 0.70626 0.58696 0.6836 0.0
C708 C 0.80212 0.66897 0.68443 0.0
N709 N 0.84569 0.73033 0.68619 0.0
C710 C 0.83655 0.66641 0.68863 0.0
C711 C 0.7901 0.70271 0.68103 0.0
C712 C 0.85808 0.69776 0.68949 0.0
C713 C 0.81246 0.73341 0.68201 0.0
C714 C 0.75948 0.56853 0.70195 0.0
C715 C 0.77064 0.5307 0.71546 0.0
N716 N 0.8014 0.55025 0.71734 0.0
C717 C 0.79119 0.58822 0.70401 0.0
C718 C 0.74908 0.53952 0.70772 0.0
C719 C 0.81201 0.57859 0.71182 0.0
C720 C 0.72287 0.64246 0.7109 0.0
N721 N 0.73796 0.65918 0.70333 0.0
C722 C 0.75646 0.70977 0.71277 0.0
C723 C 0.75314 0.69296 0.70406 0.0
C724 C 0.74379 0.69174 0.7208 0.0
C725 C 0.72565 0.65821 0.71975 0.0
H726 H 0.7098 0.61615 0.71012 0.0
H727 H 0.76347 0.70666 0.69797 0.0
C728 C 0.84485 0.57381 0.67883 0.0
N729 N 0.81617 0.55733 0.68314 0.0
C730 C 0.87917 0.55733 0.67883 0.0
C731 C 0.85352 0.50644 0.68739 0.0
C732 C 0.81962 0.52405 0.68727 0.0
C733 C 0.88395 0.52342 0.68325 0.0
H734 H 0.84115 0.60013 0.67553 0.0
H735 H 0.79627 0.51156 0.69062 0.0
C736 C 0.67668 0.6634 0.68869 0.0
N737 N 0.63838 0.7114 0.6999 0.0
C738 C 0.65289 0.6501 0.69553 0.0
C739 C 0.68078 0.70105 0.68748 0.0
C740 C 0.63382 0.67483 0.70115 0.0
C741 C 0.66123 0.72489 0.69324 0.0
C742 C 0.72115 0.55458 0.66792 0.0
C743 C 0.69649 0.56393 0.66085 0.0
C744 C 0.72561 0.51799 0.67045 0.0
C745 C 0.67639 0.53637 0.65646 0.0
C746 C 0.70499 0.49124 0.66589 0.0
N747 N 0.681 0.50091 0.65906 0.0
C748 C 0.77121 0.66891 0.65953 0.0
C749 C 0.7069 0.67644 0.66044 0.0
C750 C 0.77245 0.68891 0.65124 0.0
N751 N 0.7388 0.66329 0.66393 0.0
C752 C 0.7068 0.69622 0.65209 0.0
C753 C 0.73991 0.70261 0.6474 0.0
H754 H 0.79605 0.65766 0.66246 0.0
H755 H 0.68155 0.67122 0.66409 0.0
C756 C 0.65892 0.52773 0.68816 0.0
N757 N 0.66247 0.55951 0.68333 0.0
C758 C 0.62537 0.5095 0.68831 0.0
C759 C 0.60023 0.55679 0.6784 0.0
C760 C 0.63416 0.57407 0.67845 0.0
C761 C 0.59533 0.52431 0.68349 0.0
H762 H 0.68197 0.51693 0.692 0.0
H763 H 0.63791 0.59941 0.67468 0.0
O764 O 0.78102 0.63835 0.68332 0.0
O765 O 0.73859 0.57727 0.69432 0.0
O766 O 0.69626 0.63963 0.6833 0.0
O767 O 0.74019 0.58122 0.67251 0.0
H768 H 0.84671 0.64048 0.69116 0.0
H769 H 0.76354 0.70536 0.6778 0.0
H770 H 0.88471 0.69616 0.69275 0.0
H771 H 0.80334 0.7597 0.67947 0.0
H772 H 0.76291 0.50831 0.71999 0.0
H773 H 0.79951 0.61082 0.69968 0.0
H774 H 0.7246 0.52398 0.70623 0.0
H775 H 0.83658 0.59368 0.71349 0.0
H776 H 0.76979 0.73614 0.71325 0.0
H777 H 0.71543 0.64333 0.72575 0.0
H778 H 0.90175 0.57104 0.67541 0.0
H779 H 0.85612 0.48035 0.6909 0.0
H780 H 0.64955 0.621 0.69657 0.0
H781 H 0.69901 0.71173 0.68219 0.0
H782 H 0.61549 0.66496 0.70652 0.0
H783 H 0.66426 0.75411 0.69242 0.0
H784 H 0.69265 0.5922 0.65886 0.0
H785 H 0.74447 0.51042 0.67595 0.0
H786 H 0.65705 0.54318 0.65101 0.0
H787 H 0.70796 0.46281 0.66781 0.0
H788 H 0.79842 0.69294 0.64776 0.0
H789 H 0.68121 0.70653 0.64936 0.0
H790 H 0.6227 0.48469 0.69238 0.0
H791 H 0.57803 0.56883 0.67446 0.0
Li792 Li 0.37194 0.2531 0.944 0.0
Li793 Li 0.41901 0.27993 0.93447 0.0
Li794 Li 0.36892 0.24274 0.92778 0.0
Li795 Li 0.41574 0.21154 0.93673 0.0
C796 C 0.34242 0.31576 0.93759 0.0
N797 N 0.29449 0.36669 0.94489 0.0
C798 C 0.35476 0.35074 0.93995 0.0
C799 C 0.30564 0.30679 0.93891 0.0
C800 C 0.33012 0.37608 0.94363 0.0
C801 C 0.28187 0.33288 0.94262 0.0
C802 C 0.42939 0.26288 0.95513 0.0
C803 C 0.42775 0.25067 0.97172 0.0
N804 N 0.43289 0.28682 0.97346 0.0
C805 C 0.43448 0.29996 0.95711 0.0
C806 C 0.42596 0.23804 0.96251 0.0
C807 C 0.4363 0.3115 0.96641 0.0
C808 C 0.32783 0.23061 0.95927 0.0
N809 N 0.34478 0.25986 0.95531 0.0
C810 C 0.33045 0.29701 0.96852 0.0
C811 C 0.34582 0.29277 0.9597 0.0
C812 C 0.31409 0.267 0.97295 0.0
C813 C 0.31202 0.23362 0.96814 0.0
H814 H 0.32788 0.20456 0.9557 0.0
H815 H 0.36004 0.31545 0.95657 0.0
C816 C 0.43608 0.34531 0.92567 0.0
N817 N 0.44932 0.32093 0.93197 0.0
C818 C 0.45378 0.37859 0.92426 0.0
C819 C 0.49988 0.36001 0.9354 0.0
C820 C 0.48126 0.32698 0.93658 0.0
C821 C 0.48555 0.38677 0.92937 0.0
H822 H 0.41088 0.33944 0.92201 0.0
H823 H 0.49143 0.30683 0.94146 0.0
C824 C 0.33639 0.18447 0.93392 0.0
N825 N 0.28367 0.14193 0.92538 0.0
C826 C 0.34657 0.15421 0.92856 0.0
C827 C 0.2994 0.19285 0.93503 0.0
C828 C 0.31951 0.1331 0.92428 0.0
C829 C 0.27315 0.17108 0.93063 0.0
C830 C 0.45638 0.2391 0.92133 0.0
C831 C 0.46181 0.24069 0.91167 0.0
C832 C 0.48651 0.23717 0.92732 0.0
C833 C 0.49741 0.24019 0.90815 0.0
C834 C 0.52167 0.23676 0.92353 0.0
N835 N 0.52635 0.23826 0.9141 0.0
C836 C 0.31066 0.259 0.91535 0.0
C837 C 0.35133 0.21239 0.91044 0.0
C838 C 0.29124 0.25638 0.90699 0.0
N839 N 0.34013 0.23726 0.91688 0.0
C840 C 0.33264 0.20874 0.90199 0.0
C841 C 0.30245 0.23127 0.90014 0.0
H842 H 0.30268 0.27892 0.92052 0.0
H843 H 0.37524 0.19586 0.91181 0.0
C844 C 0.44135 0.14772 0.94576 0.0
N845 N 0.44074 0.16589 0.93747 0.0
C846 C 0.45521 0.11223 0.94626 0.0
C847 C 0.46767 0.11475 0.92968 0.0
C848 C 0.45355 0.15015 0.9295 0.0
C849 C 0.46816 0.09511 0.93812 0.0
H850 H 0.42972 0.16017 0.9519 0.0
H851 H 0.45158 0.16448 0.92292 0.0
O852 O 0.36615 0.29061 0.93395 0.0
O853 O 0.42705 0.25113 0.94605 0.0
O854 O 0.3625 0.20599 0.93798 0.0
O855 O 0.42168 0.23991 0.92486 0.0
H856 H 0.38315 0.35814 0.9391 0.0
H857 H 0.29563 0.27986 0.93718 0.0
H858 H 0.33935 0.40316 0.94553 0.0
H859 H 0.2534 0.32621 0.94372 0.0
H860 H 0.42489 0.23173 0.97748 0.0
H861 H 0.43593 0.31986 0.95155 0.0
H862 H 0.42131 0.20942 0.96117 0.0
H863 H 0.44 0.34014 0.96802 0.0
H864 H 0.33229 0.32332 0.97196 0.0
H865 H 0.29987 0.20977 0.97137 0.0
H866 H 0.44225 0.39805 0.91938 0.0
H867 H 0.52427 0.36516 0.93949 0.0
H868 H 0.37506 0.14734 0.92762 0.0
H869 H 0.29104 0.21591 0.93924 0.0
H870 H 0.32701 0.10976 0.92005 0.0
H871 H 0.24443 0.17734 0.93139 0.0
H872 H 0.43873 0.24229 0.90695 0.0
H873 H 0.48284 0.23597 0.93482 0.0
H874 H 0.50204 0.24138 0.90068 0.0
H875 H 0.54525 0.23526 0.92808 0.0
H876 H 0.26792 0.27405 0.90585 0.0
H877 H 0.34246 0.18939 0.89684 0.0
H878 H 0.45445 0.09787 0.95288 0.0
H879 H 0.47757 0.1027 0.92325 0.0
Li880 Li 0.74976 0.85589 0.19191 0.0
Li881 Li 0.71799 0.90312 0.18353 0.0
Li882 Li 0.75328 0.85505 0.17526 0.0
Li883 Li 0.78686 0.90192 0.18391 0.0
C884 C 0.68503 0.82477 0.18633 0.0
N885 N 0.63686 0.77336 0.19327 0.0
C886 C 0.65154 0.83574 0.1901 0.0
C887 C 0.69381 0.78765 0.18598 0.0
C888 C 0.62761 0.80933 0.1936 0.0
C889 C 0.66916 0.76209 0.18956 0.0
C890 C 0.74338 0.91132 0.20367 0.0
C891 C 0.76303 0.91269 0.21977 0.0
N892 N 0.72755 0.91102 0.22256 0.0
C893 C 0.70711 0.90965 0.2067 0.0
C894 C 0.77158 0.91297 0.21025 0.0
C895 C 0.69967 0.90958 0.21628 0.0
C896 C 0.78311 0.81621 0.20636 0.0
N897 N 0.74999 0.82714 0.20308 0.0
C898 C 0.72049 0.80443 0.21679 0.0
C899 C 0.71894 0.82135 0.20808 0.0
C900 C 0.7544 0.79375 0.22048 0.0
C901 C 0.78599 0.79939 0.2151 0.0
H902 H 0.80751 0.82182 0.20235 0.0
H903 H 0.69314 0.83156 0.20558 0.0
C904 C 0.64909 0.92046 0.17664 0.0
N905 N 0.67523 0.93217 0.18268 0.0
C906 C 0.61528 0.93798 0.17625 0.0
C907 C 0.63654 0.98036 0.18804 0.0
C908 C 0.67001 0.96199 0.18818 0.0
C909 C 0.60837 0.96793 0.18214 0.0
H910 H 0.6542 0.89677 0.1723 0.0
H911 H 0.69142 0.97081 0.19288 0.0
C912 C 0.81608 0.82252 0.18094 0.0
N913 N 0.86146 0.76899 0.17385 0.0
C914 C 0.84826 0.83218 0.17629 0.0
C915 C 0.80725 0.78568 0.18211 0.0
C916 C 0.87077 0.8047 0.17272 0.0
C917 C 0.83047 0.75901 0.17844 0.0
C918 C 0.7522 0.94364 0.16963 0.0
C919 C 0.7483 0.95035 0.16006 0.0
C920 C 0.75403 0.97295 0.17588 0.0
C921 C 0.74649 0.98641 0.15689 0.0
C922 C 0.75209 0.0086 0.17243 0.0
N923 N 0.7484 0.01454 0.16309 0.0
C924 C 0.72625 0.80573 0.16168 0.0
C925 C 0.7849 0.83048 0.15856 0.0
C926 C 0.72678 0.78658 0.15324 0.0
N927 N 0.75512 0.82699 0.16417 0.0
C928 C 0.78688 0.81133 0.15015 0.0
C929 C 0.75744 0.78928 0.14739 0.0
H930 H 0.70254 0.80419 0.16616 0.0
H931 H 0.80682 0.84868 0.16055 0.0
C932 C 0.85521 0.91946 0.1913 0.0
N933 N 0.83258 0.92668 0.18399 0.0
C934 C 0.89124 0.93202 0.19124 0.0
C935 C 0.88 0.95943 0.17614 0.0
C936 C 0.84425 0.94622 0.17648 0.0
C937 C 0.90423 0.95188 0.18352 0.0
H938 H 0.84577 0.90242 0.19698 0.0
H939 H 0.82641 0.95041 0.17057 0.0
O940 O 0.70872 0.85022 0.18282 0.0
O941 O 0.75122 0.91061 0.19431 0.0
O942 O 0.7936 0.84902 0.18444 0.0
O943 O 0.75358 0.90846 0.17283 0.0
H944 H 0.64429 0.86434 0.19045 0.0
H945 H 0.71934 0.77868 0.18295 0.0
H946 H 0.60172 0.81743 0.1966 0.0
H947 H 0.67568 0.73327 0.18937 0.0
H948 H 0.7846 0.91376 0.22493 0.0
H949 H 0.68496 0.90759 0.20173 0.0
H950 H 0.79978 0.91423 0.20804 0.0
H951 H 0.67174 0.90803 0.21872 0.0
H952 H 0.69558 0.80149 0.22081 0.0
H953 H 0.81266 0.79162 0.21771 0.0
H954 H 0.59464 0.92791 0.17147 0.0
H955 H 0.63236 0.00319 0.19273 0.0
H956 H 0.8556 0.86058 0.17537 0.0
H957 H 0.78282 0.77777 0.18584 0.0
H958 H 0.89562 0.81177 0.16905 0.0
H959 H 0.8239 0.73037 0.17926 0.0
H960 H 0.7467 0.92791 0.15514 0.0
H961 H 0.75702 0.96829 0.18331 0.0
H962 H 0.74352 0.99203 0.1495 0.0
H963 H 0.75352 0.03156 0.17718 0.0
H964 H 0.70353 0.7699 0.15129 0.0
H965 H 0.81065 0.81457 0.14572 0.0
H966 H 0.90913 0.92488 0.19699 0.0
H967 H 0.88877 0.97479 0.17007 0.0
Li968 Li 0.09272 0.20907 0.43187 0.0
Li969 Li 0.13739 0.241 0.4416 0.0
Li970 Li 0.09183 0.2751 0.43179 0.0
Li971 Li 0.14355 0.245 0.42441 0.0
C972 C 0.05645 0.22497 0.4476 0.0
N973 N 0.00278 0.18839 0.45744 0.0
C974 C 0.06522 0.20634 0.45583 0.0
C975 C 0.02031 0.22548 0.44445 0.0
C976 C 0.03772 0.18789 0.46069 0.0
C977 C 0.99359 0.20668 0.4495 0.0
C978 C 0.17673 0.17957 0.43361 0.0
C979 C 0.24197 0.17083 0.43256 0.0
N980 N 0.23791 0.13593 0.43565 0.0
C981 C 0.1732 0.1434 0.43663 0.0
C982 C 0.21138 0.19322 0.43144 0.0
C983 C 0.20445 0.12188 0.43768 0.0
C984 C 0.04689 0.15543 0.42336 0.0
N985 N 0.06617 0.16442 0.43115 0.0
C986 C 0.05474 0.10571 0.43784 0.0
C987 C 0.07006 0.14052 0.43835 0.0
C988 C 0.03531 0.0952 0.4298 0.0
C989 C 0.03107 0.12077 0.42253 0.0
H990 H 0.04466 0.17477 0.41767 0.0
H991 H 0.08627 0.14804 0.44437 0.0
C992 C 0.16778 0.27126 0.45802 0.0
N993 N 0.1621 0.23962 0.45326 0.0
C994 C 0.18393 0.27059 0.46687 0.0
C995 C 0.18807 0.20482 0.4657 0.0
C996 C 0.1718 0.20677 0.45691 0.0
C997 C 0.19407 0.23697 0.47084 0.0
H998 H 0.15924 0.29697 0.455 0.0
H999 H 0.16575 0.18196 0.45315 0.0
C1000 C 0.06798 0.25809 0.41464 0.0
N1001 N 0.02105 0.29269 0.40237 0.0
C1002 C 0.08185 0.27697 0.40693 0.0
C1003 C 0.03023 0.25632 0.41604 0.0
C1004 C 0.05768 0.29441 0.40082 0.0
C1005 C 0.00696 0.27414 0.40978 0.0
C1006 C 0.17532 0.30652 0.43411 0.0
C1007 C 0.17375 0.34318 0.43139 0.0
C1008 C 0.20819 0.29221 0.43748 0.0
C1009 C 0.20531 0.3646 0.43185 0.0
C1010 C 0.23914 0.3145 0.43785 0.0
N1011 N 0.23709 0.34993 0.43504 0.0
C1012 C 0.03804 0.32784 0.43718 0.0
C1013 C 0.07456 0.34243 0.42401 0.0
C1014 C 0.02124 0.36213 0.43678 0.0
N1015 N 0.06436 0.31891 0.43088 0.0
C1016 C 0.05845 0.37679 0.42333 0.0
C1017 C 0.03175 0.38726 0.42984 0.0
H1018 H 0.03081 0.30876 0.44265 0.0
H1019 H 0.09618 0.33491 0.41924 0.0
C1020 C 0.18348 0.21601 0.40944 0.0
N1021 N 0.17553 0.24745 0.41406 0.0
C1022 C 0.20481 0.21692 0.40136 0.0
C1023 C 0.20939 0.28254 0.40299 0.0
C1024 C 0.18785 0.28036 0.411 0.0
C1025 C 0.21783 0.25057 0.39802 0.0
H1026 H 0.17274 0.1903 0.41196 0.0
H1027 H 0.18 0.30505 0.41459 0.0
O1028 O 0.08308 0.24287 0.4427 0.0
O1029 O 0.14627 0.20092 0.43249 0.0
O1030 O 0.09124 0.24124 0.42076 0.0
O1031 O 0.14453 0.28523 0.43373 0.0
H1032 H 0.093 0.20589 0.45841 0.0
H1033 H 0.01298 0.24022 0.43818 0.0
H1034 H 0.04416 0.17314 0.46703 0.0
H1035 H 0.96553 0.20668 0.44712 0.0
H1036 H 0.26892 0.18114 0.43092 0.0
H1037 H 0.14666 0.13207 0.43821 0.0
H1038 H 0.2147 0.22059 0.42877 0.0
H1039 H 0.20208 0.09396 0.44009 0.0
H1040 H 0.05934 0.08676 0.44353 0.0
H1041 H 0.01609 0.11392 0.41624 0.0
H1042 H 0.18808 0.29599 0.47061 0.0
H1043 H 0.19457 0.17826 0.4686 0.0
H1044 H 0.11097 0.27841 0.4057 0.0
H1045 H 0.01904 0.24139 0.42189 0.0
H1046 H 0.06805 0.30935 0.39486 0.0
H1047 H 0.97769 0.27317 0.4108 0.0
H1048 H 0.14851 0.355 0.4289 0.0
H1049 H 0.20974 0.2644 0.43994 0.0
H1050 H 0.2045 0.39292 0.4297 0.0
H1051 H 0.26473 0.3037 0.44043 0.0
H1052 H 0.00058 0.36905 0.44191 0.0
H1053 H 0.06788 0.39547 0.41798 0.0
H1054 H 0.21087 0.19165 0.39774 0.0
H1055 H 0.21828 0.30908 0.40052 0.0
Li1056 Li 0.69125 0.90797 0.56146 0.0
Li1057 Li 0.72342 0.86045 0.56935 0.0
Li1058 Li 0.75901 0.90718 0.56216 0.0
Li1059 Li 0.72631 0.86299 0.55284 0.0
C1060 C 0.71435 0.91256 0.58176 0.0
N1061 N 0.6961 0.90778 0.60047 0.0
C1062 C 0.67798 0.90725 0.58443 0.0
C1063 C 0.74139 0.91566 0.58862 0.0
C1064 C 0.66931 0.9049 0.59392 0.0
C1065 C 0.73163 0.91308 0.59804 0.0
C1066 C 0.67134 0.81928 0.55972 0.0
C1067 C 0.68487 0.75479 0.55981 0.0
N1068 N 0.64915 0.74743 0.55797 0.0
C1069 C 0.63477 0.81108 0.55785 0.0
C1070 C 0.69662 0.79092 0.56073 0.0
C1071 C 0.62409 0.77459 0.55698 0.0
C1072 C 0.621 0.92251 0.5553 0.0
N1073 N 0.64736 0.93532 0.56113 0.0
C1074 C 0.60646 0.97994 0.56735 0.0
C1075 C 0.6411 0.96394 0.56696 0.0
C1076 C 0.57821 0.96635 0.56165 0.0
C1077 C 0.58607 0.93773 0.55543 0.0
H1078 H 0.62684 0.89957 0.55077 0.0
H1079 H 0.66261 0.97348 0.57155 0.0
C1080 C 0.75375 0.82059 0.58419 0.0
N1081 N 0.72173 0.82969 0.58 0.0
C1082 C 0.75367 0.80027 0.59244 0.0
C1083 C 0.68762 0.79882 0.59182 0.0
C1084 C 0.68901 0.81898 0.58356 0.0
C1085 C 0.72025 0.78947 0.59643 0.0
H1086 H 0.77931 0.82973 0.5812 0.0
H1087 H 0.66396 0.82701 0.58012 0.0
C1088 C 0.72633 0.95292 0.54867 0.0
N1089 N 0.72576 0.026 0.54383 0.0
C1090 C 0.72581 0.96322 0.53926 0.0
C1091 C 0.72656 0.9798 0.55562 0.0
C1092 C 0.72555 0.00031 0.53695 0.0
C1093 C 0.72626 0.01659 0.55303 0.0
C1094 C 0.79882 0.84747 0.55672 0.0
C1095 C 0.80587 0.86631 0.5484 0.0
C1096 C 0.82433 0.82228 0.56007 0.0
C1097 C 0.83836 0.85959 0.54358 0.0
C1098 C 0.85651 0.81633 0.55505 0.0
N1099 N 0.8628 0.83495 0.54698 0.0
C1100 C 0.82577 0.92377 0.57048 0.0
C1101 C 0.81759 0.954 0.55598 0.0
C1102 C 0.86172 0.93632 0.57107 0.0
N1103 N 0.80453 0.93269 0.56303 0.0
C1104 C 0.85345 0.96708 0.55628 0.0
C1105 C 0.87624 0.95787 0.56384 0.0
H1106 H 0.81525 0.90552 0.57577 0.0
H1107 H 0.80094 0.95943 0.54991 0.0
C1108 C 0.71067 0.85219 0.53395 0.0
N1109 N 0.72721 0.83654 0.54146 0.0
C1110 C 0.71372 0.83629 0.52512 0.0
C1111 C 0.74955 0.7877 0.532 0.0
C1112 C 0.74568 0.80446 0.5407 0.0
C1113 C 0.73413 0.80409 0.52404 0.0
H1114 H 0.69614 0.8777 0.5348 0.0
H1115 H 0.75845 0.79249 0.54679 0.0
O1116 O 0.72345 0.91403 0.57249 0.0
O1117 O 0.68201 0.85497 0.56057 0.0
O1118 O 0.72652 0.91664 0.55098 0.0
O1119 O 0.76741 0.8537 0.56167 0.0
H1120 H 0.65676 0.90413 0.57922 0.0
H1121 H 0.76963 0.9199 0.5867 0.0
H1122 H 0.64132 0.9005 0.59607 0.0
H1123 H 0.75231 0.91526 0.60342 0.0
H1124 H 0.70415 0.73259 0.56057 0.0
H1125 H 0.61483 0.83271 0.55707 0.0
H1126 H 0.725 0.79663 0.56222 0.0
H1127 H 0.59587 0.76785 0.55553 0.0
H1128 H 0.60166 0.00226 0.57217 0.0
H1129 H 0.56506 0.92616 0.55098 0.0
H1130 H 0.77948 0.79322 0.59567 0.0
H1131 H 0.66125 0.79158 0.59471 0.0
H1132 H 0.72569 0.94275 0.5338 0.0
H1133 H 0.72716 0.97249 0.56294 0.0
H1134 H 0.72517 0.00866 0.5297 0.0
H1135 H 0.72646 0.03766 0.55833 0.0
H1136 H 0.78656 0.88593 0.54568 0.0
H1137 H 0.81932 0.80752 0.5665 0.0
H1138 H 0.84415 0.87398 0.53714 0.0
H1139 H 0.8765 0.79691 0.55757 0.0
H1140 H 0.87814 0.92865 0.57706 0.0
H1141 H 0.86367 0.9829 0.55044 0.0
H1142 H 0.70173 0.84998 0.51915 0.0
H1143 H 0.76519 0.76267 0.53146 0.0
Li1144 Li 0.14613 0.25554 0.82183 0.0
Li1145 Li 0.09983 0.22722 0.81269 0.0
Li1146 Li 0.15065 0.25296 0.80462 0.0
Li1147 Li 0.10589 0.29163 0.81203 0.0
C1148 C 0.14933 0.1764 0.81607 0.0
N1149 N 0.14029 0.10364 0.82068 0.0
C1150 C 0.14057 0.16643 0.82524 0.0
C1151 C 0.1538 0.14934 0.80927 0.0
C1152 C 0.13609 0.1295 0.82743 0.0
C1153 C 0.14899 0.11272 0.81173 0.0
C1154 C 0.05654 0.26711 0.82511 0.0
C1155 C 0.99353 0.26972 0.8202 0.0
N1156 N 0.9835 0.27816 0.8291 0.0
C1157 C 0.04562 0.27579 0.8342 0.0
C1158 C 0.0303 0.26402 0.81804 0.0
C1159 C 0.00856 0.28127 0.83608 0.0
C1160 C 0.16017 0.28037 0.83978 0.0
N1161 N 0.1716 0.25592 0.83327 0.0
C1162 C 0.21765 0.23336 0.84358 0.0
C1163 C 0.19982 0.23271 0.83495 0.0
C1164 C 0.2063 0.2582 0.85049 0.0
C1165 C 0.17722 0.282 0.84849 0.0
H1166 H 0.13762 0.29845 0.8382 0.0
H1167 H 0.20837 0.21366 0.8296 0.0
C1168 C 0.06471 0.16773 0.8043 0.0
N1169 N 0.06811 0.18623 0.81249 0.0
C1170 C 0.04711 0.13393 0.80411 0.0
C1171 C 0.0354 0.13979 0.82069 0.0
C1172 C 0.05335 0.17341 0.82057 0.0
C1173 C 0.0329 0.11921 0.81242 0.0
H1174 H 0.07721 0.17849 0.79803 0.0
H1175 H 0.05721 0.18835 0.82702 0.0
C1176 C 0.19607 0.30342 0.81407 0.0
N1177 N 0.26952 0.31901 0.81619 0.0
C1178 C 0.20779 0.33961 0.81491 0.0
C1179 C 0.22176 0.27514 0.81429 0.0
C1180 C 0.24503 0.34694 0.81597 0.0
C1181 C 0.25874 0.28359 0.81537 0.0
C1182 C 0.09537 0.27714 0.79321 0.0
C1183 C 0.11625 0.30871 0.79185 0.0
C1184 C 0.07199 0.26509 0.78613 0.0
C1185 C 0.11334 0.3277 0.78341 0.0
C1186 C 0.06985 0.28485 0.77779 0.0
N1187 N 0.0904 0.31547 0.77661 0.0
C1188 C 0.17163 0.22027 0.7879 0.0
C1189 C 0.20397 0.27501 0.79107 0.0
C1190 C 0.18697 0.21832 0.77898 0.0
N1191 N 0.18003 0.24849 0.79369 0.0
C1192 C 0.22015 0.27398 0.78225 0.0
C1193 C 0.21101 0.24585 0.776 0.0
H1194 H 0.15143 0.20037 0.79002 0.0
H1195 H 0.20895 0.29817 0.79556 0.0
C1196 C 0.09895 0.3656 0.816 0.0
N1197 N 0.08233 0.33772 0.8114 0.0
C1198 C 0.08472 0.40088 0.81552 0.0
C1199 C 0.03582 0.37789 0.80578 0.0
C1200 C 0.05118 0.34305 0.8064 0.0
C1201 C 0.05282 0.40749 0.81031 0.0
H1202 H 0.1236 0.36044 0.81995 0.0
H1203 H 0.03846 0.32034 0.80282 0.0
O1204 O 0.15264 0.2125 0.81373 0.0
O1205 O 0.09282 0.26188 0.82321 0.0
O1206 O 0.1596 0.29595 0.81312 0.0
O1207 O 0.09806 0.25753 0.80134 0.0
H1208 H 0.13645 0.18702 0.83056 0.0
H1209 H 0.16062 0.15652 0.80215 0.0
H1210 H 0.12899 0.12143 0.83447 0.0
H1211 H 0.1521 0.09151 0.80652 0.0
H1212 H 0.97295 0.26743 0.8148 0.0
H1213 H 0.06561 0.27829 0.83975 0.0
H1214 H 0.03812 0.25728 0.81096 0.0
H1215 H 0.99973 0.28802 0.84309 0.0
H1216 H 0.24025 0.21487 0.8448 0.0
H1217 H 0.16736 0.30127 0.85365 0.0
H1218 H 0.04542 0.11908 0.79757 0.0
H1219 H 0.02526 0.1292 0.82726 0.0
H1220 H 0.18833 0.36185 0.81473 0.0
H1221 H 0.21338 0.24698 0.81359 0.0
H1222 H 0.25447 0.37483 0.81663 0.0
H1223 H 0.27888 0.26198 0.81556 0.0
H1224 H 0.1346 0.31848 0.79722 0.0
H1225 H 0.05576 0.24063 0.78706 0.0
H1226 H 0.12936 0.35212 0.78227 0.0
H1227 H 0.05188 0.2758 0.77224 0.0
H1228 H 0.17908 0.19628 0.77434 0.0
H1229 H 0.2378 0.29626 0.78014 0.0
H1230 H 0.09908 0.42284 0.81902 0.0
H1231 H 0.01091 0.38156 0.8018 0.0
Li1232 Li 0.74208 0.64592 0.06729 0.0
Li1233 Li 0.77583 0.60198 0.05835 0.0
Li1234 Li 0.73337 0.6457 0.05068 0.0
Li1235 Li 0.7075 0.59592 0.06014 0.0
C1236 C 0.80206 0.6832 0.06001 0.0
N1237 N 0.84861 0.73924 0.06508 0.0
C1238 C 0.83711 0.67536 0.06335 0.0
C1239 C 0.79087 0.71954 0.05913 0.0
C1240 C 0.86019 0.70409 0.06591 0.0
C1241 C 0.81474 0.74748 0.06178 0.0
C1242 C 0.75625 0.59251 0.07901 0.0
C1243 C 0.73961 0.58883 0.0953 0.0
N1244 N 0.77468 0.59677 0.09772 0.0
C1245 C 0.79216 0.60048 0.08165 0.0
C1246 C 0.72977 0.58646 0.08587 0.0
C1247 C 0.80093 0.60253 0.09115 0.0
C1248 C 0.70847 0.6778 0.0827 0.0
N1249 N 0.74152 0.67479 0.07844 0.0
C1250 C 0.77049 0.70628 0.09106 0.0
C1251 C 0.77227 0.68857 0.08244 0.0
C1252 C 0.73683 0.70922 0.09572 0.0
C1253 C 0.70547 0.69492 0.09139 0.0
H1254 H 0.68457 0.66575 0.07949 0.0
H1255 H 0.79845 0.68476 0.07916 0.0
C1256 C 0.84436 0.59028 0.05027 0.0
N1257 N 0.82099 0.5774 0.05688 0.0
C1258 C 0.87944 0.57568 0.04946 0.0
C1259 C 0.86517 0.53386 0.06203 0.0
C1260 C 0.83037 0.54932 0.06261 0.0
C1261 C 0.89047 0.54747 0.0555 0.0
H1262 H 0.83607 0.61276 0.04584 0.0
H1263 H 0.81109 0.5395 0.06776 0.0
C1264 C 0.67098 0.67437 0.05847 0.0
N1265 N 0.62063 0.72793 0.05414 0.0
C1266 C 0.63687 0.66479 0.05482 0.0
C1267 C 0.67932 0.7111 0.06005 0.0
C1268 C 0.61184 0.6923 0.05263 0.0
C1269 C 0.65353 0.7378 0.05778 0.0
C1270 C 0.74155 0.55726 0.04518 0.0
C1271 C 0.74152 0.55045 0.03557 0.0
C1272 C 0.74623 0.52832 0.05145 0.0
C1273 C 0.74597 0.51465 0.03238 0.0
C1274 C 0.75063 0.49293 0.04798 0.0
N1275 N 0.7504 0.48688 0.0386 0.0
C1276 C 0.75087 0.69495 0.03602 0.0
C1277 C 0.69258 0.66684 0.03512 0.0
C1278 C 0.74514 0.71237 0.02744 0.0
N1279 N 0.72471 0.6727 0.03964 0.0
C1280 C 0.68551 0.68402 0.02662 0.0
C1281 C 0.71215 0.70679 0.02263 0.0
H1282 H 0.77655 0.69841 0.03965 0.0
H1283 H 0.67286 0.64797 0.03801 0.0
C1284 C 0.64258 0.57605 0.06875 0.0
N1285 N 0.66446 0.56711 0.06141 0.0
C1286 C 0.60813 0.56009 0.06969 0.0
C1287 C 0.61946 0.52559 0.05558 0.0
C1288 C 0.65357 0.54248 0.05486 0.0
C1289 C 0.59606 0.53471 0.06301 0.0
H1290 H 0.65142 0.59663 0.07368 0.0
H1291 H 0.6706 0.53683 0.04887 0.0
O1292 O 0.77924 0.65545 0.05738 0.0
O1293 O 0.74694 0.59151 0.06975 0.0
O1294 O 0.69584 0.64781 0.06063 0.0
O1295 O 0.73776 0.59224 0.04839 0.0
H1296 H 0.84626 0.64741 0.06407 0.0
H1297 H 0.76411 0.7261 0.0564 0.0
H1298 H 0.88728 0.69842 0.06856 0.0
H1299 H 0.80639 0.77573 0.06117 0.0
H1300 H 0.71935 0.58442 0.10069 0.0
H1301 H 0.81289 0.6057 0.07643 0.0
H1302 H 0.70188 0.58025 0.08395 0.0
H1303 H 0.82854 0.60895 0.0933 0.0
H1304 H 0.79536 0.71717 0.09407 0.0
H1305 H 0.67905 0.69587 0.09478 0.0
H1306 H 0.89812 0.58724 0.04439 0.0
H1307 H 0.8723 0.51172 0.06672 0.0
H1308 H 0.62995 0.63642 0.05361 0.0
H1309 H 0.70531 0.71887 0.06304 0.0
H1310 H 0.58542 0.68532 0.04974 0.0
H1311 H 0.65964 0.76637 0.05894 0.0
H1312 H 0.7381 0.57262 0.03064 0.0
H1313 H 0.74631 0.53306 0.05892 0.0
H1314 H 0.74596 0.50896 0.02495 0.0
H1315 H 0.75422 0.47026 0.05275 0.0
H1316 H 0.76638 0.72962 0.02456 0.0
H1317 H 0.66008 0.67836 0.02302 0.0
H1318 H 0.59094 0.56785 0.07553 0.0
H1319 H 0.6109 0.50669 0.05018 0.0
Li1320 Li 0.37591 0.2512 0.31983 0.0
Li1321 Li 0.42387 0.28289 0.31183 0.0
Li1322 Li 0.37915 0.24438 0.30341 0.0
Li1323 Li 0.42501 0.21433 0.31309 0.0
C1324 C 0.34464 0.31356 0.31357 0.0
N1325 N 0.29181 0.36064 0.3203 0.0
C1326 C 0.35464 0.34746 0.31729 0.0
C1327 C 0.30775 0.30381 0.31318 0.0
C1328 C 0.32753 0.37084 0.32068 0.0
C1329 C 0.28146 0.32791 0.31665 0.0
C1330 C 0.42788 0.2632 0.33233 0.0
C1331 C 0.4251 0.24904 0.3488 0.0
N1332 N 0.42252 0.28529 0.35077 0.0
C1333 C 0.42513 0.30031 0.33454 0.0
C1334 C 0.4279 0.23735 0.33953 0.0
C1335 C 0.42253 0.31093 0.3439 0.0
C1336 C 0.33143 0.21819 0.3332 0.0
N1337 N 0.34414 0.25137 0.33043 0.0
C1338 C 0.31639 0.28005 0.34365 0.0
C1339 C 0.33695 0.28208 0.33546 0.0
C1340 C 0.3033 0.24606 0.34672 0.0
C1341 C 0.31071 0.2149 0.34133 0.0
H1342 H 0.33827 0.19403 0.32923 0.0
H1343 H 0.34804 0.30802 0.33332 0.0
C1344 C 0.44087 0.35161 0.30461 0.0
N1345 N 0.45219 0.32615 0.31088 0.0
C1346 C 0.45782 0.38571 0.30423 0.0
C1347 C 0.49891 0.36611 0.31649 0.0
C1348 C 0.4812 0.3323 0.31661 0.0
C1349 C 0.48677 0.39364 0.31037 0.0
H1350 H 0.41786 0.34574 0.3001 0.0
H1351 H 0.48974 0.3114 0.32149 0.0
C1352 C 0.34816 0.18189 0.30889 0.0
N1353 N 0.29918 0.13458 0.30054 0.0
C1354 C 0.36055 0.14961 0.30474 0.0
C1355 C 0.31082 0.18982 0.30892 0.0
C1356 C 0.33536 0.12611 0.30052 0.0
C1357 C 0.2865 0.16564 0.30462 0.0
C1358 C 0.46904 0.24713 0.29921 0.0
C1359 C 0.47852 0.25054 0.28978 0.0
C1360 C 0.49647 0.24586 0.30601 0.0
C1361 C 0.51539 0.25255 0.28731 0.0
C1362 C 0.53302 0.24798 0.30325 0.0
N1363 N 0.54165 0.25125 0.29404 0.0
C1364 C 0.32659 0.2606 0.2892 0.0
C1365 C 0.364 0.20848 0.28685 0.0
C1366 C 0.3082 0.25393 0.2808 0.0
N1367 N 0.35367 0.23773 0.29205 0.0
C1368 C 0.34595 0.2004 0.27853 0.0
C1369 C 0.31767 0.22325 0.27544 0.0
H1370 H 0.31937 0.284 0.29342 0.0
H1371 H 0.38623 0.19133 0.2892 0.0
C1372 C 0.44674 0.14969 0.32195 0.0
N1373 N 0.45133 0.16964 0.31403 0.0
C1374 C 0.45996 0.11399 0.32248 0.0
C1375 C 0.48254 0.11997 0.30668 0.0
C1376 C 0.46895 0.15562 0.30646 0.0
C1377 C 0.47756 0.09841 0.31471 0.0
H1378 H 0.43124 0.16085 0.32769 0.0
H1379 H 0.47083 0.17132 0.30009 0.0
O1380 O 0.37078 0.29042 0.31016 0.0
O1381 O 0.42978 0.25226 0.32318 0.0
O1382 O 0.37244 0.20554 0.31293 0.0
O1383 O 0.43302 0.24544 0.30171 0.0
H1384 H 0.38301 0.35553 0.31766 0.0
H1385 H 0.29949 0.27791 0.31024 0.0
H1386 H 0.33489 0.39705 0.32362 0.0
H1387 H 0.25283 0.32062 0.31644 0.0
H1388 H 0.42492 0.22929 0.35442 0.0
H1389 H 0.42414 0.32071 0.32909 0.0
H1390 H 0.4298 0.20855 0.33799 0.0
H1391 H 0.42017 0.33955 0.34568 0.0
H1392 H 0.31112 0.30479 0.34758 0.0
H1393 H 0.30165 0.18808 0.34354 0.0
H1394 H 0.44805 0.4058 0.29927 0.0
H1395 H 0.52096 0.37104 0.32139 0.0
H1396 H 0.38932 0.14293 0.30468 0.0
H1397 H 0.30073 0.21436 0.31223 0.0
H1398 H 0.3446 0.10118 0.29722 0.0
H1399 H 0.25754 0.17155 0.30455 0.0
H1400 H 0.45756 0.25162 0.28444 0.0
H1401 H 0.48968 0.24321 0.31334 0.0
H1402 H 0.52313 0.25518 0.28004 0.0
H1403 H 0.55453 0.24702 0.30844 0.0
H1404 H 0.28665 0.27223 0.27857 0.0
H1405 H 0.35442 0.1769 0.27447 0.0
H1406 H 0.45564 0.09848 0.32883 0.0
H1407 H 0.4952 0.10888 0.30045 0.0
H1408 H 0.21451 0.30932 0.11504 0.0
H1409 H 0.29456 0.2384 0.10236 0.0
H1410 H 0.298 0.20244 0.11674 0.0
H1411 H 0.27842 0.19145 0.13292 0.0
H1412 H 0.19943 0.26342 0.14567 0.0
H1413 H 0.19545 0.29877 0.13123 0.0
C1414 C 0.23297 0.2862 0.11545 0.0
C1415 C 0.25432 0.2766 0.10766 0.0
C1416 C 0.23494 0.26584 0.12374 0.0
C1417 C 0.27758 0.24613 0.10824 0.0
C1418 C 0.27971 0.2257 0.11647 0.0
C1419 C 0.2606 0.21508 0.13256 0.0
C1420 C 0.23928 0.22482 0.14036 0.0
C1421 C 0.25857 0.23536 0.12426 0.0
C1422 C 0.21582 0.25512 0.13974 0.0
C1423 C 0.21367 0.27545 0.1315 0.0
H1424 H 0.81168 0.77579 0.38472 0.0
H1425 H 0.72833 0.7043 0.39574 0.0
H1426 H 0.70022 0.70007 0.38029 0.0
H1427 H 0.69942 0.71652 0.36364 0.0
H1428 H 0.7818 0.78913 0.3527 0.0
H1429 H 0.80987 0.79364 0.36819 0.0
C1430 C 0.78704 0.75973 0.38378 0.0
C1431 C 0.77217 0.74037 0.39138 0.0
C1432 C 0.7709 0.75758 0.3749 0.0
C1433 C 0.7406 0.71913 0.38999 0.0
C1434 C 0.72443 0.71679 0.38117 0.0
C1435 C 0.72369 0.73308 0.36465 0.0
C1436 C 0.7387 0.75228 0.35705 0.0
C1437 C 0.73949 0.7357 0.37356 0.0
C1438 C 0.76972 0.77422 0.35847 0.0
C1439 C 0.78579 0.77673 0.3673 0.0
H1440 H 0.19816 0.24985 0.60724 0.0
H1441 H 0.28431 0.17365 0.61384 0.0
H1442 H 0.28864 0.19869 0.62964 0.0
H1443 H 0.26752 0.24177 0.6416 0.0
H1444 H 0.18237 0.31903 0.63487 0.0
H1445 H 0.17742 0.29334 0.61918 0.0
C1446 C 0.21768 0.23857 0.61217 0.0
C1447 C 0.24089 0.20999 0.60938 0.0
C1448 C 0.22002 0.25308 0.62123 0.0
C1449 C 0.26643 0.19596 0.61579 0.0
C1450 C 0.26878 0.21011 0.62483 0.0
C1451 C 0.2481 0.25322 0.63668 0.0
C1452 C 0.22529 0.2822 0.63943 0.0
C1453 C 0.24575 0.2387 0.62762 0.0
C1454 C 0.19986 0.29632 0.633 0.0
C1455 C 0.19719 0.28184 0.62399 0.0
H1456 H 0.81233 0.78741 0.85871 0.0
H1457 H 0.73188 0.71718 0.8459 0.0
H1458 H 0.70022 0.71119 0.86087 0.0
H1459 H 0.69509 0.72659 0.87756 0.0
H1460 H 0.77535 0.79734 0.89026 0.0
H1461 H 0.80707 0.80303 0.8753 0.0
C1462 C 0.78758 0.77118 0.85916 0.0
C1463 C 0.77437 0.75292 0.85119 0.0
C1464 C 0.76951 0.76799 0.86776 0.0
C1465 C 0.74275 0.7313 0.85194 0.0
C1466 C 0.72458 0.72797 0.86049 0.0
C1467 C 0.71973 0.74295 0.87706 0.0
C1468 C 0.73291 0.76148 0.885 0.0
C1469 C 0.73776 0.74615 0.86845 0.0
C1470 C 0.76451 0.78308 0.88423 0.0
C1471 C 0.78271 0.78624 0.87569 0.0
H1472 H 0.76303 0.80096 0.61171 0.0
H1473 H 0.67521 0.73306 0.60146 0.0
H1474 H 0.6727 0.7012 0.61644 0.0
H1475 H 0.69609 0.69196 0.63237 0.0
H1476 H 0.78542 0.75817 0.64238 0.0
H1477 H 0.78722 0.79091 0.62748 0.0
C1478 C 0.74366 0.77886 0.61269 0.0
C1479 C 0.71936 0.76945 0.60545 0.0
C1480 C 0.74269 0.76032 0.62127 0.0
C1481 C 0.69393 0.74122 0.60694 0.0
C1482 C 0.69259 0.72283 0.61549 0.0
C1483 C 0.71573 0.71377 0.6313 0.0
C1484 C 0.7405 0.72279 0.63844 0.0
C1485 C 0.71681 0.73219 0.6227 0.0
C1486 C 0.76623 0.75066 0.63694 0.0
C1487 C 0.7672 0.76941 0.62845 0.0
H1488 H 0.28124 0.28856 0.88945 0.0
H1489 H 0.28251 0.17074 0.89015 0.0
H1490 H 0.25329 0.16865 0.87477 0.0
H1491 H 0.22695 0.20044 0.86121 0.0
H1492 H 0.22623 0.31833 0.86055 0.0
H1493 H 0.25505 0.32026 0.87594 0.0
C1494 C 0.27472 0.26243 0.88628 0.0
C1495 C 0.28386 0.22986 0.89094 0.0
C1496 C 0.25798 0.26146 0.87747 0.0
C1497 C 0.27595 0.19619 0.88667 0.0
C1498 C 0.25915 0.19498 0.8779 0.0
C1499 C 0.23343 0.22654 0.8644 0.0
C1500 C 0.22444 0.25918 0.85975 0.0
C1501 C 0.25014 0.22746 0.87323 0.0
C1502 C 0.23248 0.29281 0.86404 0.0
C1503 C 0.24911 0.29395 0.87281 0.0
H1504 H 0.78606 0.70346 0.10994 0.0
H1505 H 0.68254 0.75278 0.1028 0.0
H1506 H 0.67883 0.77997 0.11835 0.0
H1507 H 0.70593 0.7914 0.13382 0.0
H1508 H 0.81115 0.74546 0.14054 0.0
H1509 H 0.81365 0.71581 0.12521 0.0
C1510 C 0.7629 0.72057 0.11171 0.0
C1511 C 0.73469 0.72608 0.10517 0.0
C1512 C 0.7613 0.73679 0.12058 0.0
C1513 C 0.70446 0.74764 0.10771 0.0
C1514 C 0.7024 0.76341 0.11659 0.0
C1515 C 0.7292 0.77461 0.13193 0.0
C1516 C 0.75824 0.77038 0.13826 0.0
C1517 C 0.73071 0.75826 0.12307 0.0
C1518 C 0.78857 0.7491 0.13573 0.0
C1519 C 0.78997 0.73216 0.12699 0.0
H1520 H 0.20263 0.21608 0.3817 0.0
H1521 H 0.27951 0.29018 0.39451 0.0
H1522 H 0.31258 0.29552 0.37972 0.0
H1523 H 0.31956 0.27906 0.36319 0.0
H1524 H 0.24222 0.20554 0.35033 0.0
H1525 H 0.20973 0.19947 0.36518 0.0
C1526 C 0.22688 0.23304 0.38127 0.0
C1527 C 0.2387 0.25263 0.38917 0.0
C1528 C 0.24562 0.23607 0.37276 0.0
C1529 C 0.26976 0.27505 0.38849 0.0
C1530 C 0.28871 0.27803 0.38005 0.0
C1531 C 0.29535 0.26204 0.36361 0.0
C1532 C 0.28321 0.2429 0.35567 0.0
C1533 C 0.27675 0.25882 0.37214 0.0
C1534 C 0.25226 0.22033 0.35637 0.0
C1535 C 0.2336 0.21695 0.36484 0.0
H1536 H 0.25408 0.15887 0.23817 0.0
H1537 H 0.27969 0.26736 0.22842 0.0
H1538 H 0.29607 0.28578 0.24435 0.0
H1539 H 0.30863 0.26904 0.26074 0.0
H1540 H 0.28634 0.15936 0.27012 0.0
H1541 H 0.26257 0.14339 0.25467 0.0
C1542 C 0.26242 0.18679 0.23958 0.0
C1543 C 0.26565 0.21177 0.23217 0.0
C1544 C 0.27263 0.19681 0.24867 0.0
C1545 C 0.2772 0.24765 0.23403 0.0
C1546 C 0.28657 0.25815 0.24312 0.0
C1547 C 0.29789 0.2419 0.25941 0.0
C1548 C 0.29923 0.21532 0.26649 0.0
C1549 C 0.28522 0.23269 0.25045 0.0
C1550 C 0.28573 0.18009 0.26472 0.0
C1551 C 0.27219 0.17099 0.2559 0.0
H1552 H 0.74729 0.75943 0.48154 0.0
H1553 H 0.86057 0.74953 0.48967 0.0
H1554 H 0.84456 0.76277 0.50582 0.0
H1555 H 0.79953 0.78182 0.51742 0.0
H1556 H 0.68669 0.79503 0.50939 0.0
H1557 H 0.70153 0.77655 0.49338 0.0
C1558 C 0.76848 0.76022 0.48684 0.0
C1559 C 0.80508 0.75338 0.48436 0.0
C1560 C 0.75925 0.76878 0.49612 0.0
C1561 C 0.83209 0.75401 0.49136 0.0
C1562 C 0.82304 0.76193 0.50061 0.0
C1563 C 0.77804 0.77996 0.51221 0.0
C1564 C 0.74208 0.78966 0.51458 0.0
C1565 C 0.78684 0.76985 0.50304 0.0
C1566 C 0.71465 0.78789 0.50771 0.0
C1567 C 0.72311 0.7773 0.49857 0.0
H1568 H 0.27906 0.28199 0.73666 0.0
H1569 H 0.16794 0.25987 0.7282 0.0
H1570 H 0.15307 0.24008 0.744 0.0
H1571 H 0.16946 0.23602 0.76055 0.0
H1572 H 0.27933 0.26143 0.76934 0.0
H1573 H 0.2967 0.27353 0.75311 0.0
C1574 C 0.25162 0.27272 0.73827 0.0
C1575 C 0.22465 0.27268 0.73124 0.0
C1576 C 0.2429 0.26237 0.74745 0.0
C1577 C 0.18941 0.25985 0.73341 0.0
C1578 C 0.18074 0.24884 0.74248 0.0
C1579 C 0.19744 0.24332 0.75889 0.0
C1580 C 0.22307 0.24789 0.76612 0.0
C1581 C 0.20699 0.25087 0.7496 0.0
C1582 C 0.25906 0.25804 0.76388 0.0
C1583 C 0.26898 0.26494 0.75462 0.0
H1584 H 0.75916 0.70558 0.00799 0.0
H1585 H 0.6516 0.7418 0.01608 0.0
H1586 H 0.63887 0.76039 -2e-05 0.0
H1587 H 0.65624 0.76094 0.98343 0.0
H1588 H 0.76288 0.72252 0.9752 0.0
H1589 H 0.77826 0.71042 0.99156 0.0
C1590 C 0.73325 0.71825 0.00626 0.0
C1591 C 0.70629 0.72225 0.01318 0.0
C1592 C 0.72588 0.72816 0.99696 0.0
C1593 C 0.67261 0.73819 0.01083 0.0
C1594 C 0.66535 0.74882 0.00164 0.0
C1595 C 0.68314 0.75069 0.98524 0.0
C1596 C 0.70839 0.74259 0.97813 0.0
C1597 C 0.69147 0.74316 0.99462 0.0
C1598 C 0.74291 0.72869 0.98056 0.0
C1599 C 0.7517 0.7218 0.9899 0.0
H1600 H 0.23956 0.27653 0.01277 0.0
H1601 H 0.34043 0.33343 0.01864 0.0
H1602 H 0.3616 0.32195 0.00281 0.0
H1603 H 0.35099 0.298 0.98717 0.0
H1604 H 0.24999 0.24272 0.98075 0.0
H1605 H 0.2294 0.25112 0.99694 0.0
C1606 C 0.26614 0.2864 0.01057 0.0
C1607 C 0.28844 0.30557 0.01692 0.0
C1608 C 0.27809 0.28011 0.00136 0.0
C1609 C 0.32297 0.31795 0.01398 0.0
C1610 C 0.33503 0.3117 0.00489 0.0
C1611 C 0.32432 0.28802 0.9893 0.0
C1612 C 0.30178 0.27029 0.98277 0.0
C1613 C 0.31271 0.29315 -0.00148 0.0
C1614 C 0.26778 0.25653 0.98567 0.0
C1615 C 0.25597 0.26146 0.9949 0.0
H1616 H 0.76804 0.77126 0.26389 0.0
H1617 H 0.67413 0.70287 0.25868 0.0
H1618 H 0.68197 0.71083 0.24187 0.0
H1619 H 0.71083 0.74322 0.22878 0.0
H1620 H 0.80277 0.81412 0.23402 0.0
H1621 H 0.80063 0.79894 0.25064 0.0
C1622 C 0.74955 0.75781 0.25906 0.0
C1623 C 0.72038 0.73678 0.26254 0.0
C1624 C 0.75369 0.76318 0.24941 0.0
C1625 C 0.69699 0.71897 0.2562 0.0
C1626 C 0.70123 0.7238 0.24658 0.0
C1627 C 0.7306 0.75503 0.23356 0.0
C1628 C 0.75667 0.77999 0.2302 0.0
C1629 C 0.72876 0.74675 0.24313 0.0
C1630 C 0.78256 0.79465 0.23643 0.0
C1631 C 0.78116 0.78622 0.24595 0.0
H1632 H 0.16951 0.27367 0.48611 0.0
H1633 H 0.25023 0.1949 0.47734 0.0
H1634 H 0.26779 0.18463 0.49361 0.0
H1635 H 0.2555 0.1931 0.51029 0.0
H1636 H 0.17431 0.27126 0.51913 0.0
H1637 H 0.16196 0.2871 0.50282 0.0
C1638 C 0.19154 0.25491 0.48774 0.0
C1639 C 0.20829 0.23481 0.48054 0.0
C1640 C 0.2012 0.24883 0.49711 0.0
C1641 C 0.23651 0.21027 0.48278 0.0
C1642 C 0.24662 0.20445 0.49207 0.0
C1643 C 0.2358 0.21432 0.50867 0.0
C1644 C 0.21568 0.23082 0.51591 0.0
C1645 C 0.22847 0.22285 0.4993 0.0
C1646 C 0.18982 0.25784 0.51367 0.0
C1647 C 0.18277 0.26691 0.50436 0.0
H1648 H 0.80825 0.71995 0.72654 0.0
H1649 H 0.69982 0.69405 0.73634 0.0
H1650 H 0.71761 0.71064 0.7523 0.0
H1651 H 0.76548 0.72833 0.76358 0.0
H1652 H 0.87386 0.75324 0.75357 0.0
H1653 H 0.85442 0.74161 0.73752 0.0
C1654 C 0.78821 0.71873 0.73211 0.0
C1655 C 0.75277 0.70582 0.73026 0.0
C1656 C 0.79872 0.72785 0.74124 0.0
C1657 C 0.72739 0.70363 0.73761 0.0
C1658 C 0.73752 0.71315 0.74672 0.0
C1659 C 0.78461 0.73175 0.75786 0.0
C1660 C 0.82111 0.7413 0.75975 0.0
C1661 C 0.77334 0.72465 0.74864 0.0
C1662 C 0.84576 0.74536 0.75229 0.0
C1663 C 0.83466 0.73884 0.74312 0.0
H1664 H 0.06791 0.99338 0.17439 0.0
H1665 H 0.06631 0.02393 0.20354 0.0
H1666 H 0.00312 0.00307 0.20483 0.0
H1667 H 0.94727 0.97913 0.19747 0.0
H1668 H 0.94905 0.94917 0.16827 0.0
H1669 H 0.01283 0.9679 0.16716 0.0
C1670 C 0.05372 0.99558 0.18103 0.0
C1671 C 0.07184 0.0103 0.18884 0.0
C1672 C 0.01721 0.98414 0.18168 0.0
C1673 C 0.05322 0.01231 0.19743 0.0
C1674 C 0.01694 0.0007 0.19816 0.0
C1675 C 0.9617 0.97639 0.19089 0.0
C1676 C 0.94321 0.96309 0.18295 0.0
C1677 C 0.99854 0.98695 0.1903 0.0
C1678 C 0.9623 0.96004 0.17445 0.0
C1679 C 0.99891 0.97044 0.17382 0.0
H1680 H 0.01984 0.43257 0.4446 0.0
H1681 H 0.01026 0.42665 0.41456 0.0
H1682 H 0.98947 0.49002 0.41407 0.0
H1683 H 0.97418 0.54724 0.42218 0.0
H1684 H 0.98279 0.55284 0.45222 0.0
H1685 H 0.00346 0.48935 0.45273 0.0
C1686 C 0.01269 0.44496 0.43796 0.0
C1687 C 0.01661 0.42489 0.42963 0.0
C1688 C 0.00076 0.48141 0.43773 0.0
C1689 C 0.00783 0.44161 0.42107 0.0
C1690 C 0.99588 0.47782 0.42078 0.0
C1691 C 0.98094 0.53462 0.42882 0.0
C1692 C 0.97715 0.55468 0.43714 0.0
C1693 C 0.9925 0.49806 0.42906 0.0
C1694 C 0.98536 0.53784 0.44572 0.0
C1695 C 0.99719 0.50159 0.44601 0.0
H1696 H 0.45224 0.42765 0.68443 0.0
H1697 H 0.40266 0.53401 0.68733 0.0
H1698 H 0.46288 0.56273 0.68672 0.0
H1699 H 0.52948 0.5576 0.68553 0.0
H1700 H 0.5792 0.45136 0.68251 0.0
H1701 H 0.51902 0.42252 0.68325 0.0
C1702 C 0.45464 0.45709 0.68503 0.0
C1703 C 0.423 0.47865 0.68593 0.0
C1704 C 0.48933 0.47341 0.6847 0.0
C1705 C 0.42654 0.51682 0.68653 0.0
C1706 C 0.46096 0.53325 0.68623 0.0
C1707 C 0.52715 0.52815 0.68493 0.0
C1708 C 0.55881 0.50669 0.68393 0.0
C1709 C 0.49251 0.51181 0.68529 0.0
C1710 C 0.55532 0.4685 0.68337 0.0
C1711 C 0.52091 0.45201 0.68375 0.0
H1712 H 0.45343 0.0417 0.92547 0.0
H1713 H 0.51064 0.0617 0.95136 0.0
H1714 H 0.53142 0.99825 0.95167 0.0
H1715 H 0.53559 0.93784 0.94419 0.0
H1716 H 0.47968 0.91855 0.91809 0.0
H1717 H 0.45643 0.98115 0.91819 0.0
C1718 C 0.47074 0.03229 0.93114 0.0
C1719 C 0.48069 0.05651 0.93834 0.0
C1720 C 0.48281 0.99592 0.93122 0.0
C1721 C 0.50241 0.0436 0.94575 0.0
C1722 C 0.51441 0.00736 0.94591 0.0
C1723 C 0.51784 0.94721 0.93861 0.0
C1724 C 0.50933 0.92365 0.93115 0.0
C1725 C 0.50495 0.98334 0.93866 0.0
C1726 C 0.4868 0.9363 0.92388 0.0
C1727 C 0.4735 0.97204 0.92393 0.0
H1728 H 0.05076 0.48924 0.04806 0.0
H1729 H 0.05102 0.48607 0.07821 0.0
H1730 H 0.98873 0.50999 0.07854 0.0
H1731 H 0.93404 0.53101 0.07029 0.0
H1732 H 0.93267 0.5328 0.04012 0.0
H1733 H 0.99569 0.51073 0.03977 0.0
C1734 C 0.03724 0.4942 0.05469 0.0
C1735 C 0.05535 0.48587 0.0631 0.0
C1736 C 0.00125 0.50759 0.05483 0.0
C1737 C 0.03745 0.49198 0.07165 0.0
C1738 C 0.0019 0.50569 0.07184 0.0
C1739 C 0.94734 0.52617 0.06363 0.0
C1740 C 0.92855 0.53338 0.05525 0.0
C1741 C 0.98342 0.51325 0.06348 0.0
C1742 C 0.94657 0.52774 0.04668 0.0
C1743 C 0.98257 0.51499 0.04647 0.0
H1744 H 0.5785 0.53962 0.31322 0.0
H1745 H 0.47149 0.58679 0.30949 0.0
H1746 H 0.44464 0.52565 0.30853 0.0
H1747 H 0.45157 0.45898 0.30905 0.0
H1748 H 0.55894 0.4119 0.31239 0.0
H1749 H 0.58559 0.47294 0.3134 0.0
C1750 C 0.54925 0.53649 0.31228 0.0
C1751 C 0.52695 0.56764 0.31149 0.0
C1752 C 0.53409 0.50134 0.3117 0.0
C1753 C 0.48921 0.56321 0.31008 0.0
C1754 C 0.47387 0.52829 0.30956 0.0
C1755 C 0.48087 0.46201 0.30987 0.0
C1756 C 0.50319 0.43081 0.31064 0.0
C1757 C 0.49606 0.49718 0.31036 0.0
C1758 C 0.54103 0.43537 0.31189 0.0
C1759 C 0.55633 0.47028 0.31242 0.0
H1760 H 0.52984 0.98145 0.54766 0.0
H1761 H 0.54121 0.98216 0.5777 0.0
H1762 H 0.47813 0.00279 0.57934 0.0
H1763 H 0.41954 0.01957 0.57228 0.0
H1764 H 0.40853 0.02083 0.54221 0.0
H1765 H 0.47117 0.99904 0.54058 0.0
C1766 C 0.51845 0.98599 0.55457 0.0
C1767 C 0.54029 0.9804 0.56254 0.0
C1768 C 0.48206 0.99767 0.55546 0.0
C1769 C 0.52523 0.98681 0.57144 0.0
C1770 C 0.48904 0.99829 0.57239 0.0
C1771 C 0.43086 0.01544 0.56536 0.0
C1772 C 0.40914 0.02189 0.55739 0.0
C1773 C 0.46721 0.00376 0.56445 0.0
C1774 C 0.42424 0.01556 0.54849 0.0
C1775 C 0.46026 0.00345 0.54753 0.0
H1776 H 0.06072 0.05882 0.80406 0.0
H1777 H 0.97135 0.09533 0.82136 0.0
H1778 H 0.94778 0.0329 0.82218 0.0
H1779 H 0.95239 0.96811 0.81788 0.0
H1780 H 0.04159 0.93175 0.8005 0.0
H1781 H 0.06512 0.99418 0.79967 0.0
C1782 C 0.03579 0.0532 0.8079 0.0
C1783 C 0.01769 0.08168 0.8126 0.0
C1784 C 0.02243 0.01733 0.80833 0.0
C1785 C 0.98589 0.07383 0.81773 0.0
C1786 C 0.97237 0.03818 0.81818 0.0
C1787 C 0.9772 0.97381 0.81399 0.0
C1788 C 0.99532 0.94536 0.80928 0.0
C1789 C 0.99049 0.00972 0.81354 0.0
C1790 C 0.02704 0.95325 0.80413 0.0
C1791 C 0.04054 0.98889 0.80368 0.0
H1792 H 0.54235 0.93378 0.18164 0.0
H1793 H 0.59166 0.04073 0.18329 0.0
H1794 H 0.53115 0.06872 0.18416 0.0
H1795 H 0.46429 0.06282 0.18438 0.0
H1796 H 0.41505 0.95592 0.18258 0.0
H1797 H 0.47557 0.92795 0.1816 0.0
C1798 C 0.53991 0.96326 0.18206 0.0
C1799 C 0.57156 0.98511 0.18239 0.0
C1800 C 0.50506 0.97917 0.1825 0.0
C1801 C 0.56781 0.02322 0.18313 0.0
C1802 C 0.53321 0.03927 0.18358 0.0
C1803 C 0.46682 0.03337 0.18385 0.0
C1804 C 0.43521 0.01147 0.18359 0.0
C1805 C 0.50167 0.01749 0.18331 0.0
C1806 C 0.43893 0.9734 0.18272 0.0
C1807 C 0.47352 0.95739 0.1822 0.0
H1808 H 0.99392 0.93136 0.42046 0.0
H1809 H 0.95968 0.93446 0.44934 0.0
H1810 H 0.97714 0.99856 0.45037 0.0
H1811 H 0.00249 0.05371 0.44317 0.0
H1812 H 0.03708 0.05106 0.41434 0.0
H1813 H 0.0179 0.98731 0.41311 0.0
C1814 C 0.99002 0.94613 0.42696 0.0
C1815 C 0.97592 0.92788 0.43484 0.0
C1816 C -0.00018 0.98323 0.4275 0.0
C1817 C 0.97127 0.94748 0.44322 0.0
C1818 C 0.98094 0.98429 0.4438 0.0
C1819 C 0.00598 0.03917 0.43663 0.0
C1820 C 0.0213 0.0572 0.42887 0.0
C1821 C 0.99543 0.00237 0.43601 0.0
C1822 C 0.02496 0.03807 0.42039 0.0
C1823 C 0.0143 0.00147 0.4197 0.0
H1824 H 0.02923 0.43019 0.68262 0.0
H1825 H 0.07539 0.53498 0.68981 0.0
H1826 H 0.01447 0.56234 0.68968 0.0
H1827 H 0.94828 0.55661 0.68736 0.0
H1828 H 0.90196 0.45195 0.68012 0.0
H1829 H 0.9628 0.42431 0.68047 0.0
C1830 C 0.02594 0.45908 0.68409 0.0
C1831 C 0.05677 0.48059 0.68617 0.0
C1832 C 0.99087 0.47458 0.68401 0.0
C1833 C 0.05205 0.51781 0.68824 0.0
C1834 C 0.01727 0.53349 0.68813 0.0
C1835 C 0.95155 0.5278 0.68579 0.0
C1836 C 0.92071 0.5064 0.68365 0.0
C1837 C 0.98653 0.51216 0.68599 0.0
C1838 C 0.92526 0.46895 0.68183 0.0
C1839 C 0.96003 0.45319 0.68198 0.0
H1840 H 0.45034 0.45203 0.92889 0.0
H1841 H 0.55829 0.40461 0.92877 0.0
H1842 H 0.58543 0.46566 0.92856 0.0
H1843 H 0.5784 0.53247 0.9285 0.0
H1844 H 0.4703 0.57958 0.92864 0.0
H1845 H 0.4433 0.51855 0.9285 0.0
C1846 C 0.47982 0.45498 0.92867 0.0
C1847 C 0.50224 0.42374 0.92882 0.0
C1848 C 0.49519 0.49009 0.92853 0.0
C1849 C 0.5404 0.42817 0.92875 0.0
C1850 C 0.55593 0.46306 0.92859 0.0
C1851 C 0.54893 0.52938 0.92856 0.0
C1852 C 0.52641 0.56056 0.9286 0.0
C1853 C 0.53358 0.49421 0.92854 0.0
C1854 C 0.48826 0.55607 0.92851 0.0
C1855 C 0.4728 0.52118 0.92849 0.0
H1856 H 0.5325 0.57054 0.06664 0.0
H1857 H 0.57587 0.46368 0.06041 0.0
H1858 H 0.51419 0.43808 0.06056 0.0
H1859 H 0.44815 0.44617 0.06225 0.0
H1860 H 0.40424 0.55324 0.06803 0.0
H1861 H 0.46608 0.57849 0.06851 0.0
C1862 C 0.52846 0.54157 0.06543 0.0
C1863 C 0.55871 0.51902 0.06352 0.0
C1864 C 0.4929 0.52709 0.06546 0.0
C1865 C 0.553 0.48165 0.06182 0.0
C1866 C 0.51778 0.46699 0.06192 0.0
C1867 C 0.45201 0.47513 0.06352 0.0
C1868 C 0.4215 0.49781 0.06503 0.0
C1869 C 0.48753 0.48951 0.06366 0.0
C1870 C 0.42718 0.53509 0.06691 0.0
C1871 C 0.46254 0.54959 0.06713 0.0
H1872 H 0.53948 0.06832 0.30744 0.0
H1873 H 0.44011 0.04041 0.32204 0.0
H1874 H 0.45719 0.97603 0.32184 0.0
H1875 H 0.4996 0.92729 0.31717 0.0
H1876 H 0.59868 0.95526 0.30245 0.0
H1877 H 0.58189 0.0197 0.30281 0.0
C1878 C 0.52144 0.04814 0.31053 0.0
C1879 C 0.48865 0.05932 0.31478 0.0
C1880 C 0.53116 0.01105 0.31028 0.0
C1881 C 0.46585 0.03276 0.31886 0.0
C1882 C 0.47542 0.99584 0.31868 0.0
C1883 C 0.51763 0.94751 0.31409 0.0
C1884 C 0.55022 0.93636 0.30974 0.0
C1885 C 0.50797 0.98464 0.31438 0.0
C1886 C 0.57309 0.96294 0.3057 0.0
C1887 C 0.56367 -0.00012 0.30596 0.0
H1888 H 0.9052 0.0232 0.55844 0.0
H1889 H 0.93543 0.91761 0.56942 0.0
H1890 H 0.99967 0.93544 0.56936 0.0
H1891 H 0.04766 0.98052 0.5658 0.0
H1892 H 0.0172 0.08562 0.55457 0.0
H1893 H 0.95293 0.0681 0.5549 0.0
C1894 C 0.92583 0.00396 0.56076 0.0
C1895 C 0.91534 0.96917 0.56396 0.0
C1896 C 0.96282 0.01418 0.56058 0.0
C1897 C 0.94253 0.94482 0.56707 0.0
C1898 C 0.97938 0.95487 0.56696 0.0
C1899 C 0.02692 -0.00035 0.56348 0.0
C1900 C 0.03731 0.03421 0.5601 0.0
C1901 C 0.98987 0.98945 0.56371 0.0
C1902 C 0.01007 0.05858 0.55705 0.0
C1903 C 0.97325 0.0487 0.55729 0.0
H1904 H 0.98663 0.56188 0.80015 0.0
H1905 H 0.01593 0.58326 0.82888 0.0
H1906 H 0.03837 0.52075 0.83052 0.0
H1907 H 0.04946 0.46008 0.82381 0.0
H1908 H 0.02287 0.4398 0.79484 0.0
H1909 H 0.99934 0.50183 0.79332 0.0
C1910 C 0.9984 0.55308 0.80674 0.0
C1911 C 0.99968 0.57732 0.81437 0.0
C1912 C 0.01148 0.51721 0.80761 0.0
C1913 C 0.01428 0.5651 0.82291 0.0
C1914 C 0.02725 0.5294 0.82385 0.0
C1915 C 0.03889 0.46929 0.81712 0.0
C1916 C 0.03793 0.44516 0.80946 0.0
C1917 C 0.02594 0.50522 0.81624 0.0
C1918 C 0.02344 0.45748 0.80091 0.0
C1919 C 0.01024 0.49309 0.8 0.0
loop_
_geom_bond_atom_site_label_1
_geom_bond_atom_site_label_2
_geom_bond_distance
_geom_bond_site_symmetry_2
_ccdc_geom_bond_type
Li0 N17 1.990 . S
Li0 O60 1.956 . S
Li0 O61 1.970 . S
Li0 O62 1.961 . S
Li1 N25 1.990 . S
Li1 O60 1.970 . S
Li1 O61 1.956 . S
Li1 O63 1.961 . S
Li2 N47 1.990 . S
Li2 O60 1.961 . S
Li2 O62 1.956 . S
Li2 O63 1.970 . S
Li3 N53 1.990 . S
Li3 O61 1.961 . S
Li3 O62 1.970 . S
Li3 O63 1.956 . S
C4 C6 1.348 . S
C4 C7 1.356 . S
C4 O60 1.325 . S
N5 C8 1.314 . S
N5 C9 1.279 . S
C6 C4 1.348 . S
C6 C8 1.353 . S
C6 H64 0.929 . S
C7 C4 1.356 . S
C7 C9 1.358 . S
C7 H65 0.930 . S
C8 N5 1.314 . S
C8 C6 1.353 . S
C8 H66 0.930 . S
C9 N5 1.279 . S
C9 C7 1.358 . S
C9 H67 0.930 1_545 S
C10 C13 1.348 . S
C10 C14 1.356 . S
C10 O61 1.325 . S
C11 N12 1.279 . S
C11 C14 1.358 . S
C11 H68 0.930 . S
N12 C11 1.279 . S
N12 C15 1.314 . S
C13 C10 1.348 . S
C13 C15 1.353 . S
C13 H69 0.929 . S
C14 C10 1.356 . S
C14 C11 1.358 . S
C14 H70 0.930 . S
C15 N12 1.314 . S
C15 C13 1.353 . S
C15 H71 0.930 . S
C16 N17 1.314 . S
C16 C21 1.353 . S
C16 H22 0.930 . S
N17 Li0 1.990 . S
N17 C16 1.314 . S
N17 C19 1.279 . S
C18 C19 1.358 . S
C18 C20 1.356 . S
C18 H72 0.930 . S
C19 N17 1.279 . S
C19 C18 1.358 . S
C19 H23 0.930 . S
C20 C18 1.356 . S
C20 C21 1.348 . S
C21 C16 1.353 . S
C21 C20 1.348 . S
C21 H73 0.929 . S
H22 C16 0.930 . S
H23 C19 0.930 . S
C24 N25 1.314 . S
C24 C26 1.353 . S
C24 H30 0.930 . S
N25 Li1 1.990 . S
N25 C24 1.314 . S
N25 C28 1.279 . S
C26 C24 1.353 . S
C26 C29 1.348 . S
C26 H74 0.929 . S
C27 C28 1.358 . S
C27 C29 1.356 . S
C27 H75 0.930 . S
C28 N25 1.279 . S
C28 C27 1.358 . S
C28 H31 0.930 . S
C29 C26 1.348 . S
C29 C27 1.356 . S
H30 C24 0.930 . S
H31 C28 0.930 . S
C32 C34 1.348 . S
C32 C35 1.356 . S
C32 O62 1.325 . S
N33 C36 1.314 . S
N33 C37 1.279 . S
C34 C32 1.348 . S
C34 C36 1.353 . S
C34 H76 0.929 . S
C35 C32 1.356 . S
C35 C37 1.358 . S
C35 H77 0.930 . S
C36 N33 1.314 . S
C36 C34 1.353 . S
C36 H78 0.930 . S
C37 N33 1.279 . S
C37 C35 1.358 . S
C37 H79 0.930 . S
C38 C39 1.348 . S
C38 C40 1.356 . S
C38 O63 1.325 . S
C39 C38 1.348 . S
C39 C41 1.353 . S
C39 H80 0.929 . S
C40 C38 1.356 . S
C40 C42 1.358 . S
C40 H81 0.930 . S
C41 C39 1.353 . S
C41 N43 1.314 . S
C41 H82 0.930 . S
C42 C40 1.358 . S
C42 N43 1.279 . S
C42 H83 0.930 . S
N43 C41 1.314 . S
N43 C42 1.279 . S
C44 C46 1.353 . S
C44 N47 1.314 . S
C44 H50 0.930 . S
C45 N47 1.279 . S
C45 C48 1.358 . S
C45 H51 0.930 . S
C46 C44 1.353 . S
C46 C49 1.348 . S
C46 H84 0.929 . S
N47 Li2 1.990 . S
N47 C44 1.314 . S
N47 C45 1.279 . S
C48 C45 1.358 . S
C48 C49 1.356 . S
C48 H85 0.930 . S
C49 C46 1.348 . S
C49 C48 1.356 . S
H50 C44 0.930 . S
H51 C45 0.930 . S
C52 N53 1.314 . S
C52 C54 1.353 . S
C52 H58 0.930 . S
N53 Li3 1.990 . S
N53 C52 1.314 . S
N53 C56 1.279 . S
C54 C52 1.353 . S
C54 C57 1.348 . S
C54 H86 0.929 . S
C55 C56 1.358 . S
C55 C57 1.356 . S
C55 H87 0.930 . S
C56 N53 1.279 . S
C56 C55 1.358 . S
C56 H59 0.930 . S
C57 C54 1.348 . S
C57 C55 1.356 . S
H58 C52 0.930 . S
H59 C56 0.930 . S
O60 Li0 1.956 . S
O60 Li1 1.970 . S
O60 Li2 1.961 . S
O60 C4 1.325 . S
O61 Li0 1.970 . S
O61 Li1 1.956 . S
O61 Li3 1.961 . S
O61 C10 1.325 . S
O62 Li0 1.961 . S
O62 Li2 1.956 . S
O62 Li3 1.970 . S
O62 C32 1.325 . S
O63 Li1 1.961 . S
O63 Li2 1.970 . S
O63 Li3 1.956 . S
O63 C38 1.325 . S
H64 C6 0.929 . S
H65 C7 0.930 . S
H66 C8 0.930 . S
H67 C9 0.930 1_565 S
H68 C11 0.930 . S
H69 C13 0.929 . S
H70 C14 0.930 . S
H71 C15 0.930 . S
H72 C18 0.930 . S
H73 C21 0.929 . S
H74 C26 0.929 . S
H75 C27 0.930 . S
H76 C34 0.929 . S
H77 C35 0.930 . S
H78 C36 0.930 . S
H79 C37 0.930 . S
H80 C39 0.929 . S
H81 C40 0.930 . S
H82 C41 0.930 . S
H83 C42 0.930 . S
H84 C46 0.929 . S
H85 C48 0.930 . S
H86 C54 0.929 . S
H87 C55 0.930 . S
Li88 N105 1.990 . S
Li88 O148 1.956 . S
Li88 O149 1.970 . S
Li88 O150 1.961 . S
Li89 N113 1.990 . S
Li89 O148 1.970 . S
Li89 O149 1.956 . S
Li89 O151 1.961 . S
Li90 N135 1.990 . S
Li90 O148 1.961 . S
Li90 O150 1.956 . S
Li90 O151 1.970 . S
Li91 N141 1.990 . S
Li91 O149 1.961 . S
Li91 O150 1.970 . S
Li91 O151 1.956 . S
C92 C94 1.348 . S
C92 C95 1.356 . S
C92 O148 1.325 . S
N93 C96 1.314 . S
N93 C97 1.279 . S
C94 C92 1.348 . S
C94 C96 1.353 . S
C94 H152 0.929 . S
C95 C92 1.356 . S
C95 C97 1.358 . S
C95 H153 0.930 . S
C96 N93 1.314 . S
C96 C94 1.353 . S
C96 H154 0.930 . S
C97 N93 1.279 . S
C97 C95 1.358 . S
C97 H155 0.930 1_655 S
C98 C101 1.348 . S
C98 C102 1.356 . S
C98 O149 1.325 . S
C99 N100 1.279 . S
C99 C102 1.358 . S
C99 H156 0.930 . S
N100 C99 1.279 . S
N100 C103 1.314 . S
C101 C98 1.348 . S
C101 C103 1.353 . S
C101 H157 0.929 . S
C102 C98 1.356 . S
C102 C99 1.358 . S
C102 H158 0.930 . S
C103 N100 1.314 . S
C103 C101 1.353 . S
C103 H159 0.930 . S
C104 N105 1.314 . S
C104 C109 1.353 . S
C104 H110 0.930 . S
N105 Li88 1.990 . S
N105 C104 1.314 . S
N105 C107 1.279 . S
C106 C107 1.358 . S
C106 C108 1.356 . S
C106 H160 0.930 . S
C107 N105 1.279 . S
C107 C106 1.358 . S
C107 H111 0.930 . S
C108 C106 1.356 . S
C108 C109 1.348 . S
C109 C104 1.353 . S
C109 C108 1.348 . S
C109 H161 0.929 . S
H110 C104 0.930 . S
H111 C107 0.930 . S
C112 N113 1.314 . S
C112 C114 1.353 . S
C112 H118 0.930 . S
N113 Li89 1.990 . S
N113 C112 1.314 . S
N113 C116 1.279 . S
C114 C112 1.353 . S
C114 C117 1.348 . S
C114 H162 0.929 . S
C115 C116 1.358 . S
C115 C117 1.356 . S
C115 H163 0.930 . S
C116 N113 1.279 . S
C116 C115 1.358 . S
C116 H119 0.930 . S
C117 C114 1.348 . S
C117 C115 1.356 . S
H118 C112 0.930 . S
H119 C116 0.930 . S
C120 C122 1.348 . S
C120 C123 1.356 . S
C120 O150 1.325 . S
N121 C124 1.314 . S
N121 C125 1.279 . S
C122 C120 1.348 . S
C122 C124 1.353 . S
C122 H164 0.929 . S
C123 C120 1.356 . S
C123 C125 1.358 . S
C123 H165 0.930 . S
C124 N121 1.314 . S
C124 C122 1.353 . S
C124 H166 0.930 . S
C125 N121 1.279 . S
C125 C123 1.358 . S
C125 H167 0.930 . S
C126 C127 1.348 . S
C126 C128 1.356 . S
C126 O151 1.325 . S
C127 C126 1.348 . S
C127 C129 1.353 . S
C127 H168 0.929 . S
C128 C126 1.356 . S
C128 C130 1.358 . S
C128 H169 0.930 . S
C129 C127 1.353 . S
C129 N131 1.314 . S
C129 H170 0.930 . S
C130 C128 1.358 . S
C130 N131 1.279 . S
C130 H171 0.930 . S
N131 C129 1.314 . S
N131 C130 1.279 . S
C132 C134 1.353 . S
C132 N135 1.314 . S
C132 H138 0.930 . S
C133 N135 1.279 . S
C133 C136 1.358 . S
C133 H139 0.930 . S
C134 C132 1.353 . S
C134 C137 1.348 . S
C134 H172 0.929 . S
N135 Li90 1.990 . S
N135 C132 1.314 . S
N135 C133 1.279 . S
C136 C133 1.358 . S
C136 C137 1.356 . S
C136 H173 0.930 . S
C137 C134 1.348 . S
C137 C136 1.356 . S
H138 C132 0.930 . S
H139 C133 0.930 . S
C140 N141 1.314 . S
C140 C142 1.353 . S
C140 H146 0.930 . S
N141 Li91 1.990 . S
N141 C140 1.314 . S
N141 C144 1.279 . S
C142 C140 1.353 . S
C142 C145 1.348 . S
C142 H174 0.929 . S
C143 C144 1.358 . S
C143 C145 1.356 . S
C143 H175 0.930 . S
C144 N141 1.279 . S
C144 C143 1.358 . S
C144 H147 0.930 . S
C145 C142 1.348 . S
C145 C143 1.356 . S
H146 C140 0.930 . S
H147 C144 0.930 . S
O148 Li88 1.956 . S
O148 Li89 1.970 . S
O148 Li90 1.961 . S
O148 C92 1.325 . S
O149 Li88 1.970 . S
O149 Li89 1.956 . S
O149 Li91 1.961 . S
O149 C98 1.325 . S
O150 Li88 1.961 . S
O150 Li90 1.956 . S
O150 Li91 1.970 . S
O150 C120 1.325 . S
O151 Li89 1.961 . S
O151 Li90 1.970 . S
O151 Li91 1.956 . S
O151 C126 1.325 . S
H152 C94 0.929 . S
H153 C95 0.930 . S
H154 C96 0.930 . S
H155 C97 0.930 1_455 S
H156 C99 0.930 . S
H157 C101 0.929 . S
H158 C102 0.930 . S
H159 C103 0.930 . S
H160 C106 0.930 . S
H161 C109 0.929 . S
H162 C114 0.929 . S
H163 C115 0.930 . S
H164 C122 0.929 . S
H165 C123 0.930 . S
H166 C124 0.930 . S
H167 C125 0.930 . S
H168 C127 0.929 . S
H169 C128 0.930 . S
H170 C129 0.930 . S
H171 C130 0.930 . S
H172 C134 0.929 . S
H173 C136 0.930 . S
H174 C142 0.929 . S
H175 C143 0.930 . S
Li176 N193 1.990 . S
Li176 O236 1.956 . S
Li176 O237 1.970 . S
Li176 O238 1.961 . S
Li177 N201 1.990 . S
Li177 O236 1.970 . S
Li177 O237 1.956 . S
Li177 O239 1.961 . S
Li178 N223 1.990 . S
Li178 O236 1.961 . S
Li178 O238 1.956 . S
Li178 O239 1.970 . S
Li179 N229 1.990 . S
Li179 O237 1.961 . S
Li179 O238 1.970 . S
Li179 O239 1.956 . S
C180 C182 1.348 . S
C180 C183 1.356 . S
C180 O236 1.325 . S
N181 C184 1.314 . S
N181 C185 1.279 . S
C182 C180 1.348 . S
C182 C184 1.353 . S
C182 H240 0.929 . S
C183 C180 1.356 . S
C183 C185 1.358 . S
C183 H241 0.930 . S
C184 N181 1.314 . S
C184 C182 1.353 . S
C184 H242 0.930 . S
C185 N181 1.279 . S
C185 C183 1.358 . S
C185 H243 0.930 . S
C186 C189 1.348 . S
C186 C190 1.356 . S
C186 O237 1.325 . S
C187 N188 1.279 . S
C187 C190 1.358 . S
C187 H244 0.930 . S
N188 C187 1.279 . S
N188 C191 1.314 . S
C189 C186 1.348 . S
C189 C191 1.353 . S
C189 H245 0.929 . S
C190 C186 1.356 . S
C190 C187 1.358 . S
C190 H246 0.930 . S
C191 N188 1.314 . S
C191 C189 1.353 . S
C191 H247 0.930 . S
C192 N193 1.314 . S
C192 C197 1.353 . S
C192 H198 0.930 . S
N193 Li176 1.990 . S
N193 C192 1.314 . S
N193 C195 1.279 . S
C194 C195 1.358 . S
C194 C196 1.356 . S
C194 H248 0.930 . S
C195 N193 1.279 . S
C195 C194 1.358 . S
C195 H199 0.930 . S
C196 C194 1.356 . S
C196 C197 1.348 . S
C197 C192 1.353 . S
C197 C196 1.348 . S
C197 H249 0.929 . S
H198 C192 0.930 . S
H199 C195 0.930 . S
C200 N201 1.314 . S
C200 C202 1.353 . S
C200 H206 0.930 . S
N201 Li177 1.990 . S
N201 C200 1.314 . S
N201 C204 1.279 . S
C202 C200 1.353 . S
C202 C205 1.348 . S
C202 H250 0.929 . S
C203 C204 1.358 . S
C203 C205 1.356 . S
C203 H251 0.930 . S
C204 N201 1.279 . S
C204 C203 1.358 . S
C204 H207 0.930 . S
C205 C202 1.348 . S
C205 C203 1.356 . S
H206 C200 0.930 . S
H207 C204 0.930 . S
C208 C210 1.348 . S
C208 C211 1.356 . S
C208 O238 1.325 . S
N209 C212 1.314 . S
N209 C213 1.279 . S
C210 C208 1.348 . S
C210 C212 1.353 . S
C210 H252 0.929 . S
C211 C208 1.356 . S
C211 C213 1.358 . S
C211 H253 0.930 . S
C212 N209 1.314 . S
C212 C210 1.353 . S
C212 H254 0.930 . S
C213 N209 1.279 . S
C213 C211 1.358 . S
C213 H255 0.930 . S
C214 C215 1.348 . S
C214 C216 1.356 . S
C214 O239 1.325 . S
C215 C214 1.348 . S
C215 C217 1.353 . S
C215 H256 0.929 . S
C216 C214 1.356 . S
C216 C218 1.358 . S
C216 H257 0.930 . S
C217 C215 1.353 . S
C217 N219 1.314 . S
C217 H258 0.930 . S
C218 C216 1.358 . S
C218 N219 1.279 . S
C218 H259 0.930 . S
N219 C217 1.314 . S
N219 C218 1.279 . S
C220 C222 1.353 . S
C220 N223 1.314 . S
C220 H226 0.930 . S
C221 N223 1.279 . S
C221 C224 1.358 . S
C221 H227 0.930 . S
C222 C220 1.353 . S
C222 C225 1.348 . S
C222 H260 0.929 . S
N223 Li178 1.990 . S
N223 C220 1.314 . S
N223 C221 1.279 . S
C224 C221 1.358 . S
C224 C225 1.356 . S
C224 H261 0.930 . S
C225 C222 1.348 . S
C225 C224 1.356 . S
H226 C220 0.930 . S
H227 C221 0.930 . S
C228 N229 1.314 . S
C228 C230 1.353 . S
C228 H234 0.930 . S
N229 Li179 1.990 . S
N229 C228 1.314 . S
N229 C232 1.279 . S
C230 C228 1.353 . S
C230 C233 1.348 . S
C230 H262 0.929 . S
C231 C232 1.358 . S
C231 C233 1.356 . S
C231 H263 0.930 . S
C232 N229 1.279 . S
C232 C231 1.358 . S
C232 H235 0.930 . S
C233 C230 1.348 . S
C233 C231 1.356 . S
H234 C228 0.930 . S
H235 C232 0.930 . S
O236 Li176 1.956 . S
O236 Li177 1.970 . S
O236 Li178 1.961 . S
O236 C180 1.325 . S
O237 Li176 1.970 . S
O237 Li177 1.956 . S
O237 Li179 1.961 . S
O237 C186 1.325 . S
O238 Li176 1.961 . S
O238 Li178 1.956 . S
O238 Li179 1.970 . S
O238 C208 1.325 . S
O239 Li177 1.961 . S
O239 Li178 1.970 . S
O239 Li179 1.956 . S
O239 C214 1.325 . S
H240 C182 0.929 . S
H241 C183 0.930 . S
H242 C184 0.930 . S
H243 C185 0.930 . S
H244 C187 0.930 . S
H245 C189 0.929 . S
H246 C190 0.930 . S
H247 C191 0.930 . S
H248 C194 0.930 . S
H249 C197 0.929 . S
H250 C202 0.929 . S
H251 C203 0.930 . S
H252 C210 0.929 . S
H253 C211 0.930 . S
H254 C212 0.930 . S
H255 C213 0.930 . S
H256 C215 0.929 . S
H257 C216 0.930 . S
H258 C217 0.930 . S
H259 C218 0.930 . S
H260 C222 0.929 . S
H261 C224 0.930 . S
H262 C230 0.929 . S
H263 C231 0.930 . S
Li264 N281 1.990 . S
Li264 O324 1.956 . S
Li264 O325 1.970 . S
Li264 O326 1.961 . S
Li265 N289 1.990 . S
Li265 O324 1.970 . S
Li265 O325 1.956 . S
Li265 O327 1.961 . S
Li266 N311 1.990 . S
Li266 O324 1.961 . S
Li266 O326 1.956 . S
Li266 O327 1.970 . S
Li267 N317 1.990 . S
Li267 O325 1.961 . S
Li267 O326 1.970 . S
Li267 O327 1.956 . S
C268 C270 1.348 . S
C268 C271 1.356 . S
C268 O324 1.325 . S
N269 C272 1.314 . S
N269 C273 1.279 . S
C270 C268 1.348 . S
C270 C272 1.353 . S
C270 H328 0.929 . S
C271 C268 1.356 . S
C271 C273 1.358 . S
C271 H329 0.930 . S
C272 N269 1.314 . S
C272 C270 1.353 . S
C272 H330 0.930 . S
C273 N269 1.279 . S
C273 C271 1.358 . S
C273 H331 0.930 . S
C274 C277 1.348 . S
C274 C278 1.356 . S
C274 O325 1.325 . S
C275 N276 1.279 . S
C275 C278 1.358 . S
C275 H332 0.930 . S
N276 C275 1.279 . S
N276 C279 1.314 . S
C277 C274 1.348 . S
C277 C279 1.353 . S
C277 H333 0.929 . S
C278 C274 1.356 . S
C278 C275 1.358 . S
C278 H334 0.930 . S
C279 N276 1.314 . S
C279 C277 1.353 . S
C279 H335 0.930 . S
C280 N281 1.314 . S
C280 C285 1.353 . S
C280 H286 0.930 . S
N281 Li264 1.990 . S
N281 C280 1.314 . S
N281 C283 1.279 . S
C282 C283 1.358 . S
C282 C284 1.356 . S
C282 H336 0.930 . S
C283 N281 1.279 . S
C283 C282 1.358 . S
C283 H287 0.930 . S
C284 C282 1.356 . S
C284 C285 1.348 . S
C285 C280 1.353 . S
C285 C284 1.348 . S
C285 H337 0.929 . S
H286 C280 0.930 . S
H287 C283 0.930 . S
C288 N289 1.314 . S
C288 C290 1.353 . S
C288 H294 0.930 . S
N289 Li265 1.990 . S
N289 C288 1.314 . S
N289 C292 1.279 . S
C290 C288 1.353 . S
C290 C293 1.348 . S
C290 H338 0.929 . S
C291 C292 1.358 . S
C291 C293 1.356 . S
C291 H339 0.930 . S
C292 N289 1.279 . S
C292 C291 1.358 . S
C292 H295 0.930 . S
C293 C290 1.348 . S
C293 C291 1.356 . S
H294 C288 0.930 . S
H295 C292 0.930 . S
C296 C298 1.348 . S
C296 C299 1.356 . S
C296 O326 1.325 . S
N297 C300 1.314 . S
N297 C301 1.279 . S
C298 C296 1.348 . S
C298 C300 1.353 . S
C298 H340 0.929 . S
C299 C296 1.356 . S
C299 C301 1.358 . S
C299 H341 0.930 . S
C300 N297 1.314 . S
C300 C298 1.353 . S
C300 H342 0.930 . S
C301 N297 1.279 . S
C301 C299 1.358 . S
C301 H343 0.930 . S
C302 C303 1.348 . S
C302 C304 1.356 . S
C302 O327 1.325 . S
C303 C302 1.348 . S
C303 C305 1.353 . S
C303 H344 0.929 . S
C304 C302 1.356 . S
C304 C306 1.358 . S
C304 H345 0.930 . S
C305 C303 1.353 . S
C305 N307 1.314 . S
C305 H346 0.930 . S
C306 C304 1.358 . S
C306 N307 1.279 . S
C306 H347 0.930 . S
N307 C305 1.314 . S
N307 C306 1.279 . S
C308 C310 1.353 . S
C308 N311 1.314 . S
C308 H314 0.930 . S
C309 N311 1.279 . S
C309 C312 1.358 . S
C309 H315 0.930 . S
C310 C308 1.353 . S
C310 C313 1.348 . S
C310 H348 0.929 . S
N311 Li266 1.990 . S
N311 C308 1.314 . S
N311 C309 1.279 . S
C312 C309 1.358 . S
C312 C313 1.356 . S
C312 H349 0.930 . S
C313 C310 1.348 . S
C313 C312 1.356 . S
H314 C308 0.930 . S
H315 C309 0.930 . S
C316 N317 1.314 . S
C316 C318 1.353 . S
C316 H322 0.930 . S
N317 Li267 1.990 . S
N317 C316 1.314 . S
N317 C320 1.279 . S
C318 C316 1.353 . S
C318 C321 1.348 . S
C318 H350 0.929 . S
C319 C320 1.358 . S
C319 C321 1.356 . S
C319 H351 0.930 . S
C320 N317 1.279 . S
C320 C319 1.358 . S
C320 H323 0.930 . S
C321 C318 1.348 . S
C321 C319 1.356 . S
H322 C316 0.930 . S
H323 C320 0.930 . S
O324 Li264 1.956 . S
O324 Li265 1.970 . S
O324 Li266 1.961 . S
O324 C268 1.325 . S
O325 Li264 1.970 . S
O325 Li265 1.956 . S
O325 Li267 1.961 . S
O325 C274 1.325 . S
O326 Li264 1.961 . S
O326 Li266 1.956 . S
O326 Li267 1.970 . S
O326 C296 1.325 . S
O327 Li265 1.961 . S
O327 Li266 1.970 . S
O327 Li267 1.956 . S
O327 C302 1.325 . S
H328 C270 0.929 . S
H329 C271 0.930 . S
H330 C272 0.930 . S
H331 C273 0.930 . S
H332 C275 0.930 . S
H333 C277 0.929 . S
H334 C278 0.930 . S
H335 C279 0.930 . S
H336 C282 0.930 . S
H337 C285 0.929 . S
H338 C290 0.929 . S
H339 C291 0.930 . S
H340 C298 0.929 . S
H341 C299 0.930 . S
H342 C300 0.930 . S
H343 C301 0.930 . S
H344 C303 0.929 . S
H345 C304 0.930 . S
H346 C305 0.930 . S
H347 C306 0.930 . S
H348 C310 0.929 . S
H349 C312 0.930 . S
H350 C318 0.929 . S
H351 C319 0.930 . S
Li352 N369 1.990 . S
Li352 O412 1.956 . S
Li352 O413 1.970 . S
Li352 O414 1.961 . S
Li353 N377 1.990 . S
Li353 O412 1.970 . S
Li353 O413 1.956 . S
Li353 O415 1.961 . S
Li354 N399 1.990 . S
Li354 O412 1.961 . S
Li354 O414 1.956 . S
Li354 O415 1.970 . S
Li355 N405 1.990 . S
Li355 O413 1.961 . S
Li355 O414 1.970 . S
Li355 O415 1.956 . S
C356 C358 1.348 . S
C356 C359 1.356 . S
C356 O412 1.325 . S
N357 C360 1.314 . S
N357 C361 1.279 . S
C358 C356 1.348 . S
C358 C360 1.353 . S
C358 H416 0.929 . S
C359 C356 1.356 . S
C359 C361 1.358 . S
C359 H417 0.930 . S
C360 N357 1.314 . S
C360 C358 1.353 . S
C360 H418 0.930 . S
C361 N357 1.279 . S
C361 C359 1.358 . S
C361 H419 0.930 . S
C362 C365 1.348 . S
C362 C366 1.356 . S
C362 O413 1.325 . S
C363 N364 1.279 . S
C363 C366 1.358 . S
C363 H420 0.930 . S
N364 C363 1.279 . S
N364 C367 1.314 . S
C365 C362 1.348 . S
C365 C367 1.353 . S
C365 H421 0.929 . S
C366 C362 1.356 . S
C366 C363 1.358 . S
C366 H422 0.930 . S
C367 N364 1.314 . S
C367 C365 1.353 . S
C367 H423 0.930 . S
C368 N369 1.314 . S
C368 C373 1.353 . S
C368 H374 0.930 . S
N369 Li352 1.990 . S
N369 C368 1.314 . S
N369 C371 1.279 . S
C370 C371 1.358 . S
C370 C372 1.356 . S
C370 H424 0.930 . S
C371 N369 1.279 . S
C371 C370 1.358 . S
C371 H375 0.930 . S
C372 C370 1.356 . S
C372 C373 1.348 . S
C373 C368 1.353 . S
C373 C372 1.348 . S
C373 H425 0.929 . S
H374 C368 0.930 . S
H375 C371 0.930 . S
C376 N377 1.314 . S
C376 C378 1.353 . S
C376 H382 0.930 . S
N377 Li353 1.990 . S
N377 C376 1.314 . S
N377 C380 1.279 . S
C378 C376 1.353 . S
C378 C381 1.348 . S
C378 H426 0.929 . S
C379 C380 1.358 . S
C379 C381 1.356 . S
C379 H427 0.930 . S
C380 N377 1.279 . S
C380 C379 1.358 . S
C380 H383 0.930 . S
C381 C378 1.348 . S
C381 C379 1.356 . S
H382 C376 0.930 . S
H383 C380 0.930 . S
C384 C386 1.348 . S
C384 C387 1.356 . S
C384 O414 1.325 . S
N385 C388 1.314 . S
N385 C389 1.279 . S
C386 C384 1.348 . S
C386 C388 1.353 . S
C386 H428 0.929 . S
C387 C384 1.356 . S
C387 C389 1.358 . S
C387 H429 0.930 . S
C388 N385 1.314 . S
C388 C386 1.353 . S
C388 H430 0.930 . S
C389 N385 1.279 . S
C389 C387 1.358 . S
C389 H431 0.930 . S
C390 C391 1.348 . S
C390 C392 1.356 . S
C390 O415 1.325 . S
C391 C390 1.348 . S
C391 C393 1.353 . S
C391 H432 0.929 . S
C392 C390 1.356 . S
C392 C394 1.358 . S
C392 H433 0.930 . S
C393 C391 1.353 . S
C393 N395 1.314 . S
C393 H434 0.930 . S
C394 C392 1.358 . S
C394 N395 1.279 . S
C394 H435 0.930 . S
N395 C393 1.314 . S
N395 C394 1.279 . S
C396 C398 1.353 . S
C396 N399 1.314 . S
C396 H402 0.930 . S
C397 N399 1.279 . S
C397 C400 1.358 . S
C397 H403 0.930 . S
C398 C396 1.353 . S
C398 C401 1.348 . S
C398 H436 0.929 . S
N399 Li354 1.990 . S
N399 C396 1.314 . S
N399 C397 1.279 . S
C400 C397 1.358 . S
C400 C401 1.356 . S
C400 H437 0.930 . S
C401 C398 1.348 . S
C401 C400 1.356 . S
H402 C396 0.930 . S
H403 C397 0.930 . S
C404 N405 1.314 . S
C404 C406 1.353 . S
C404 H410 0.930 . S
N405 Li355 1.990 . S
N405 C404 1.314 . S
N405 C408 1.279 . S
C406 C404 1.353 . S
C406 C409 1.348 . S
C406 H438 0.929 . S
C407 C408 1.358 . S
C407 C409 1.356 . S
C407 H439 0.930 . S
C408 N405 1.279 . S
C408 C407 1.358 . S
C408 H411 0.930 . S
C409 C406 1.348 . S
C409 C407 1.356 . S
H410 C404 0.930 . S
H411 C408 0.930 . S
O412 Li352 1.956 . S
O412 Li353 1.970 . S
O412 Li354 1.961 . S
O412 C356 1.325 . S
O413 Li352 1.970 . S
O413 Li353 1.956 . S
O413 Li355 1.961 . S
O413 C362 1.325 . S
O414 Li352 1.961 . S
O414 Li354 1.956 . S
O414 Li355 1.970 . S
O414 C384 1.325 . S
O415 Li353 1.961 . S
O415 Li354 1.970 . S
O415 Li355 1.956 . S
O415 C390 1.325 . S
H416 C358 0.929 . S
H417 C359 0.930 . S
H418 C360 0.930 . S
H419 C361 0.930 . S
H420 C363 0.930 . S
H421 C365 0.929 . S
H422 C366 0.930 . S
H423 C367 0.930 . S
H424 C370 0.930 . S
H425 C373 0.929 . S
H426 C378 0.929 . S
H427 C379 0.930 . S
H428 C386 0.929 . S
H429 C387 0.930 . S
H430 C388 0.930 . S
H431 C389 0.930 . S
H432 C391 0.929 . S
H433 C392 0.930 . S
H434 C393 0.930 . S
H435 C394 0.930 . S
H436 C398 0.929 . S
H437 C400 0.930 . S
H438 C406 0.929 . S
H439 C407 0.930 . S
Li440 N457 1.990 . S
Li440 O500 1.956 . S
Li440 O501 1.970 . S
Li440 O502 1.961 . S
Li441 N465 1.990 . S
Li441 O500 1.970 . S
Li441 O501 1.956 . S
Li441 O503 1.961 . S
Li442 N487 1.990 . S
Li442 O500 1.961 . S
Li442 O502 1.956 . S
Li442 O503 1.970 . S
Li443 N493 1.990 . S
Li443 O501 1.961 . S
Li443 O502 1.970 . S
Li443 O503 1.956 . S
C444 C446 1.348 . S
C444 C447 1.356 . S
C444 O500 1.325 . S
N445 C448 1.314 . S
N445 C449 1.279 . S
C446 C444 1.348 . S
C446 C448 1.353 . S
C446 H504 0.929 . S
C447 C444 1.356 . S
C447 C449 1.358 . S
C447 H505 0.930 . S
C448 N445 1.314 . S
C448 C446 1.353 . S
C448 H506 0.930 . S
C449 N445 1.279 . S
C449 C447 1.358 . S
C449 H507 0.930 . S
C450 C453 1.348 . S
C450 C454 1.356 . S
C450 O501 1.325 . S
C451 N452 1.279 . S
C451 C454 1.358 . S
C451 H508 0.930 . S
N452 C451 1.279 . S
N452 C455 1.314 . S
C453 C450 1.348 . S
C453 C455 1.353 . S
C453 H509 0.929 . S
C454 C450 1.356 . S
C454 C451 1.358 . S
C454 H510 0.930 . S
C455 N452 1.314 . S
C455 C453 1.353 . S
C455 H511 0.930 . S
C456 N457 1.314 . S
C456 C461 1.353 . S
C456 H462 0.930 . S
N457 Li440 1.990 . S
N457 C456 1.314 . S
N457 C459 1.279 . S
C458 C459 1.358 . S
C458 C460 1.356 . S
C458 H512 0.930 . S
C459 N457 1.279 . S
C459 C458 1.358 . S
C459 H463 0.930 . S
C460 C458 1.356 . S
C460 C461 1.348 . S
C461 C456 1.353 . S
C461 C460 1.348 . S
C461 H513 0.929 . S
H462 C456 0.930 . S
H463 C459 0.930 . S
C464 N465 1.314 . S
C464 C466 1.353 . S
C464 H470 0.930 . S
N465 Li441 1.990 . S
N465 C464 1.314 . S
N465 C468 1.279 . S
C466 C464 1.353 . S
C466 C469 1.348 . S
C466 H514 0.929 . S
C467 C468 1.358 . S
C467 C469 1.356 . S
C467 H515 0.930 . S
C468 N465 1.279 . S
C468 C467 1.358 . S
C468 H471 0.930 . S
C469 C466 1.348 . S
C469 C467 1.356 . S
H470 C464 0.930 . S
H471 C468 0.930 . S
C472 C474 1.348 . S
C472 C475 1.356 . S
C472 O502 1.325 . S
N473 C476 1.314 . S
N473 C477 1.279 . S
C474 C472 1.348 . S
C474 C476 1.353 . S
C474 H516 0.929 . S
C475 C472 1.356 . S
C475 C477 1.358 . S
C475 H517 0.930 . S
C476 N473 1.314 . S
C476 C474 1.353 . S
C476 H518 0.930 . S
C477 N473 1.279 . S
C477 C475 1.358 . S
C477 H519 0.930 . S
C478 C479 1.348 . S
C478 C480 1.356 . S
C478 O503 1.325 . S
C479 C478 1.348 . S
C479 C481 1.353 . S
C479 H520 0.929 . S
C480 C478 1.356 . S
C480 C482 1.358 . S
C480 H521 0.930 . S
C481 C479 1.353 . S
C481 N483 1.314 . S
C481 H522 0.930 . S
C482 C480 1.358 . S
C482 N483 1.279 . S
C482 H523 0.930 . S
N483 C481 1.314 . S
N483 C482 1.279 . S
C484 C486 1.353 . S
C484 N487 1.314 . S
C484 H490 0.930 . S
C485 N487 1.279 . S
C485 C488 1.358 . S
C485 H491 0.930 . S
C486 C484 1.353 . S
C486 C489 1.348 . S
C486 H524 0.929 . S
N487 Li442 1.990 . S
N487 C484 1.314 . S
N487 C485 1.279 . S
C488 C485 1.358 . S
C488 C489 1.356 . S
C488 H525 0.930 . S
C489 C486 1.348 . S
C489 C488 1.356 . S
H490 C484 0.930 . S
H491 C485 0.930 . S
C492 N493 1.314 . S
C492 C494 1.353 . S
C492 H498 0.930 . S
N493 Li443 1.990 . S
N493 C492 1.314 . S
N493 C496 1.279 . S
C494 C492 1.353 . S
C494 C497 1.348 . S
C494 H526 0.929 . S
C495 C496 1.358 . S
C495 C497 1.356 . S
C495 H527 0.930 . S
C496 N493 1.279 . S
C496 C495 1.358 . S
C496 H499 0.930 . S
C497 C494 1.348 . S
C497 C495 1.356 . S
H498 C492 0.930 . S
H499 C496 0.930 . S
O500 Li440 1.956 . S
O500 Li441 1.970 . S
O500 Li442 1.961 . S
O500 C444 1.325 . S
O501 Li440 1.970 . S
O501 Li441 1.956 . S
O501 Li443 1.961 . S
O501 C450 1.325 . S
O502 Li440 1.961 . S
O502 Li442 1.956 . S
O502 Li443 1.970 . S
O502 C472 1.325 . S
O503 Li441 1.961 . S
O503 Li442 1.970 . S
O503 Li443 1.956 . S
O503 C478 1.325 . S
H504 C446 0.929 . S
H505 C447 0.930 . S
H506 C448 0.930 . S
H507 C449 0.930 . S
H508 C451 0.930 . S
H509 C453 0.929 . S
H510 C454 0.930 . S
H511 C455 0.930 . S
H512 C458 0.930 . S
H513 C461 0.929 . S
H514 C466 0.929 . S
H515 C467 0.930 . S
H516 C474 0.929 . S
H517 C475 0.930 . S
H518 C476 0.930 . S
H519 C477 0.930 . S
H520 C479 0.929 . S
H521 C480 0.930 . S
H522 C481 0.930 . S
H523 C482 0.930 . S
H524 C486 0.929 . S
H525 C488 0.930 . S
H526 C494 0.929 . S
H527 C495 0.930 . S
Li528 N545 1.990 . S
Li528 O588 1.956 . S
Li528 O589 1.970 . S
Li528 O590 1.961 . S
Li529 N553 1.990 . S
Li529 O588 1.970 . S
Li529 O589 1.956 . S
Li529 O591 1.961 . S
Li530 N575 1.990 . S
Li530 O588 1.961 . S
Li530 O590 1.956 . S
Li530 O591 1.970 . S
Li531 N581 1.990 . S
Li531 O589 1.961 . S
Li531 O590 1.970 . S
Li531 O591 1.956 . S
C532 C534 1.348 . S
C532 C535 1.356 . S
C532 O588 1.325 . S
N533 C536 1.314 . S
N533 C537 1.279 . S
C534 C532 1.348 . S
C534 C536 1.353 . S
C534 H592 0.929 . S
C535 C532 1.356 . S
C535 C537 1.358 . S
C535 H593 0.930 . S
C536 N533 1.314 . S
C536 C534 1.353 . S
C536 H594 0.930 . S
C537 N533 1.279 . S
C537 C535 1.358 . S
C537 H595 0.930 . S
C538 C541 1.348 . S
C538 C542 1.356 . S
C538 O589 1.325 . S
C539 N540 1.279 . S
C539 C542 1.358 . S
C539 H596 0.930 . S
N540 C539 1.279 . S
N540 C543 1.314 . S
C541 C538 1.348 . S
C541 C543 1.353 . S
C541 H597 0.929 . S
C542 C538 1.356 . S
C542 C539 1.358 . S
C542 H598 0.930 . S
C543 N540 1.314 . S
C543 C541 1.353 . S
C543 H599 0.930 . S
C544 N545 1.314 . S
C544 C549 1.353 . S
C544 H550 0.930 . S
N545 Li528 1.990 . S
N545 C544 1.314 . S
N545 C547 1.279 . S
C546 C547 1.358 . S
C546 C548 1.356 . S
C546 H600 0.930 . S
C547 N545 1.279 . S
C547 C546 1.358 . S
C547 H551 0.930 . S
C548 C546 1.356 . S
C548 C549 1.348 . S
C549 C544 1.353 . S
C549 C548 1.348 . S
C549 H601 0.929 . S
H550 C544 0.930 . S
H551 C547 0.930 . S
C552 N553 1.314 . S
C552 C554 1.353 . S
C552 H558 0.930 . S
N553 Li529 1.990 . S
N553 C552 1.314 . S
N553 C556 1.279 . S
C554 C552 1.353 . S
C554 C557 1.348 . S
C554 H602 0.929 . S
C555 C556 1.358 . S
C555 C557 1.356 . S
C555 H603 0.930 . S
C556 N553 1.279 . S
C556 C555 1.358 . S
C556 H559 0.930 . S
C557 C554 1.348 . S
C557 C555 1.356 . S
H558 C552 0.930 . S
H559 C556 0.930 . S
C560 C562 1.348 . S
C560 C563 1.356 . S
C560 O590 1.325 . S
N561 C564 1.314 . S
N561 C565 1.279 . S
C562 C560 1.348 . S
C562 C564 1.353 . S
C562 H604 0.929 . S
C563 C560 1.356 . S
C563 C565 1.358 . S
C563 H605 0.930 . S
C564 N561 1.314 . S
C564 C562 1.353 . S
C564 H606 0.930 . S
C565 N561 1.279 . S
C565 C563 1.358 . S
C565 H607 0.930 . S
C566 C567 1.348 . S
C566 C568 1.356 . S
C566 O591 1.325 . S
C567 C566 1.348 . S
C567 C569 1.353 . S
C567 H608 0.929 . S
C568 C566 1.356 . S
C568 C570 1.358 . S
C568 H609 0.930 . S
C569 C567 1.353 . S
C569 N571 1.314 . S
C569 H610 0.930 . S
C570 C568 1.358 . S
C570 N571 1.279 . S
C570 H611 0.930 1_545 S
N571 C569 1.314 . S
N571 C570 1.279 . S
C572 C574 1.353 . S
C572 N575 1.314 . S
C572 H578 0.930 . S
C573 N575 1.279 . S
C573 C576 1.358 . S
C573 H579 0.930 . S
C574 C572 1.353 . S
C574 C577 1.348 . S
C574 H612 0.929 . S
N575 Li530 1.990 . S
N575 C572 1.314 . S
N575 C573 1.279 . S
C576 C573 1.358 . S
C576 C577 1.356 . S
C576 H613 0.930 . S
C577 C574 1.348 . S
C577 C576 1.356 . S
H578 C572 0.930 . S
H579 C573 0.930 . S
C580 N581 1.314 . S
C580 C582 1.353 . S
C580 H586 0.930 . S
N581 Li531 1.990 . S
N581 C580 1.314 . S
N581 C584 1.279 . S
C582 C580 1.353 . S
C582 C585 1.348 . S
C582 H614 0.929 . S
C583 C584 1.358 . S
C583 C585 1.356 . S
C583 H615 0.930 . S
C584 N581 1.279 . S
C584 C583 1.358 . S
C584 H587 0.930 . S
C585 C582 1.348 . S
C585 C583 1.356 . S
H586 C580 0.930 . S
H587 C584 0.930 . S
O588 Li528 1.956 . S
O588 Li529 1.970 . S
O588 Li530 1.961 . S
O588 C532 1.325 . S
O589 Li528 1.970 . S
O589 Li529 1.956 . S
O589 Li531 1.961 . S
O589 C538 1.325 . S
O590 Li528 1.961 . S
O590 Li530 1.956 . S
O590 Li531 1.970 . S
O590 C560 1.325 . S
O591 Li529 1.961 . S
O591 Li530 1.970 . S
O591 Li531 1.956 . S
O591 C566 1.325 . S
H592 C534 0.929 . S
H593 C535 0.930 . S
H594 C536 0.930 . S
H595 C537 0.930 . S
H596 C539 0.930 . S
H597 C541 0.929 . S
H598 C542 0.930 . S
H599 C543 0.930 . S
H600 C546 0.930 . S
H601 C549 0.929 . S
H602 C554 0.929 . S
H603 C555 0.930 . S
H604 C562 0.929 . S
H605 C563 0.930 . S
H606 C564 0.930 . S
H607 C565 0.930 . S
H608 C567 0.929 . S
H609 C568 0.930 . S
H610 C569 0.930 . S
H611 C570 0.930 1_565 S
H612 C574 0.929 . S
H613 C576 0.930 . S
H614 C582 0.929 . S
H615 C583 0.930 . S
Li616 N633 1.990 . S
Li616 O676 1.956 . S
Li616 O677 1.970 . S
Li616 O678 1.961 . S
Li617 N641 1.990 . S
Li617 O676 1.970 . S
Li617 O677 1.956 . S
Li617 O679 1.961 . S
Li618 N663 1.990 . S
Li618 O676 1.961 . S
Li618 O678 1.956 . S
Li618 O679 1.970 . S
Li619 N669 1.990 . S
Li619 O677 1.961 . S
Li619 O678 1.970 . S
Li619 O679 1.956 . S
C620 C622 1.348 . S
C620 C623 1.356 . S
C620 O676 1.325 . S
N621 C624 1.314 . S
N621 C625 1.279 . S
C622 C620 1.348 . S
C622 C624 1.353 . S
C622 H680 0.929 . S
C623 C620 1.356 . S
C623 C625 1.358 . S
C623 H681 0.930 . S
C624 N621 1.314 . S
C624 C622 1.353 . S
C624 H682 0.930 . S
C625 N621 1.279 . S
C625 C623 1.358 . S
C625 H683 0.930 . S
C626 C629 1.348 . S
C626 C630 1.356 . S
C626 O677 1.325 . S
C627 N628 1.279 . S
C627 C630 1.358 . S
C627 H684 0.930 . S
N628 C627 1.279 . S
N628 C631 1.314 . S
C629 C626 1.348 . S
C629 C631 1.353 . S
C629 H685 0.929 . S
C630 C626 1.356 . S
C630 C627 1.358 . S
C630 H686 0.930 . S
C631 N628 1.314 . S
C631 C629 1.353 . S
C631 H687 0.930 . S
C632 N633 1.314 . S
C632 C637 1.353 . S
C632 H638 0.930 . S
N633 Li616 1.990 . S
N633 C632 1.314 . S
N633 C635 1.279 . S
C634 C635 1.358 . S
C634 C636 1.356 . S
C634 H688 0.930 . S
C635 N633 1.279 . S
C635 C634 1.358 . S
C635 H639 0.930 . S
C636 C634 1.356 . S
C636 C637 1.348 . S
C637 C632 1.353 . S
C637 C636 1.348 . S
C637 H689 0.929 . S
H638 C632 0.930 . S
H639 C635 0.930 . S
C640 N641 1.314 . S
C640 C642 1.353 . S
C640 H646 0.930 . S
N641 Li617 1.990 . S
N641 C640 1.314 . S
N641 C644 1.279 . S
C642 C640 1.353 . S
C642 C645 1.348 . S
C642 H690 0.929 . S
C643 C644 1.358 . S
C643 C645 1.356 . S
C643 H691 0.930 . S
C644 N641 1.279 . S
C644 C643 1.358 . S
C644 H647 0.930 . S
C645 C642 1.348 . S
C645 C643 1.356 . S
H646 C640 0.930 . S
H647 C644 0.930 . S
C648 C650 1.348 . S
C648 C651 1.356 . S
C648 O678 1.325 . S
N649 C652 1.314 . S
N649 C653 1.279 . S
C650 C648 1.348 . S
C650 C652 1.353 . S
C650 H692 0.929 . S
C651 C648 1.356 . S
C651 C653 1.358 . S
C651 H693 0.930 . S
C652 N649 1.314 . S
C652 C650 1.353 . S
C652 H694 0.930 . S
C653 N649 1.279 . S
C653 C651 1.358 . S
C653 H695 0.930 1_655 S
C654 C655 1.348 . S
C654 C656 1.356 . S
C654 O679 1.325 . S
C655 C654 1.348 . S
C655 C657 1.353 . S
C655 H696 0.929 . S
C656 C654 1.356 . S
C656 C658 1.358 . S
C656 H697 0.930 . S
C657 C655 1.353 . S
C657 N659 1.314 . S
C657 H698 0.930 . S
C658 C656 1.358 . S
C658 N659 1.279 . S
C658 H699 0.930 . S
N659 C657 1.314 . S
N659 C658 1.279 . S
C660 C662 1.353 . S
C660 N663 1.314 . S
C660 H666 0.930 . S
C661 N663 1.279 . S
C661 C664 1.358 . S
C661 H667 0.930 . S
C662 C660 1.353 . S
C662 C665 1.348 . S
C662 H700 0.929 . S
N663 Li618 1.990 . S
N663 C660 1.314 . S
N663 C661 1.279 . S
C664 C661 1.358 . S
C664 C665 1.356 . S
C664 H701 0.930 . S
C665 C662 1.348 . S
C665 C664 1.356 . S
H666 C660 0.930 . S
H667 C661 0.930 . S
C668 N669 1.314 . S
C668 C670 1.353 . S
C668 H674 0.930 . S
N669 Li619 1.990 . S
N669 C668 1.314 . S
N669 C672 1.279 . S
C670 C668 1.353 . S
C670 C673 1.348 . S
C670 H702 0.929 . S
C671 C672 1.358 . S
C671 C673 1.356 . S
C671 H703 0.930 . S
C672 N669 1.279 . S
C672 C671 1.358 . S
C672 H675 0.930 . S
C673 C670 1.348 . S
C673 C671 1.356 . S
H674 C668 0.930 . S
H675 C672 0.930 . S
O676 Li616 1.956 . S
O676 Li617 1.970 . S
O676 Li618 1.961 . S
O676 C620 1.325 . S
O677 Li616 1.970 . S
O677 Li617 1.956 . S
O677 Li619 1.961 . S
O677 C626 1.325 . S
O678 Li616 1.961 . S
O678 Li618 1.956 . S
O678 Li619 1.970 . S
O678 C648 1.325 . S
O679 Li617 1.961 . S
O679 Li618 1.970 . S
O679 Li619 1.956 . S
O679 C654 1.325 . S
H680 C622 0.929 . S
H681 C623 0.930 . S
H682 C624 0.930 . S
H683 C625 0.930 . S
H684 C627 0.930 . S
H685 C629 0.929 . S
H686 C630 0.930 . S
H687 C631 0.930 . S
H688 C634 0.930 . S
H689 C637 0.929 . S
H690 C642 0.929 . S
H691 C643 0.930 . S
H692 C650 0.929 . S
H693 C651 0.930 . S
H694 C652 0.930 . S
H695 C653 0.930 1_455 S
H696 C655 0.929 . S
H697 C656 0.930 . S
H698 C657 0.930 . S
H699 C658 0.930 . S
H700 C662 0.929 . S
H701 C664 0.930 . S
H702 C670 0.929 . S
H703 C671 0.930 . S
Li704 N721 1.990 . S
Li704 O764 1.956 . S
Li704 O765 1.970 . S
Li704 O766 1.961 . S
Li705 N729 1.990 . S
Li705 O764 1.970 . S
Li705 O765 1.956 . S
Li705 O767 1.961 . S
Li706 N751 1.990 . S
Li706 O764 1.961 . S
Li706 O766 1.956 . S
Li706 O767 1.970 . S
Li707 N757 1.990 . S
Li707 O765 1.961 . S
Li707 O766 1.970 . S
Li707 O767 1.956 . S
C708 C710 1.348 . S
C708 C711 1.356 . S
C708 O764 1.325 . S
N709 C712 1.314 . S
N709 C713 1.279 . S
C710 C708 1.348 . S
C710 C712 1.353 . S
C710 H768 0.929 . S
C711 C708 1.356 . S
C711 C713 1.358 . S
C711 H769 0.930 . S
C712 N709 1.314 . S
C712 C710 1.353 . S
C712 H770 0.930 . S
C713 N709 1.279 . S
C713 C711 1.358 . S
C713 H771 0.930 . S
C714 C717 1.348 . S
C714 C718 1.356 . S
C714 O765 1.325 . S
C715 N716 1.279 . S
C715 C718 1.358 . S
C715 H772 0.930 . S
N716 C715 1.279 . S
N716 C719 1.314 . S
C717 C714 1.348 . S
C717 C719 1.353 . S
C717 H773 0.929 . S
C718 C714 1.356 . S
C718 C715 1.358 . S
C718 H774 0.930 . S
C719 N716 1.314 . S
C719 C717 1.353 . S
C719 H775 0.930 . S
C720 N721 1.314 . S
C720 C725 1.353 . S
C720 H726 0.930 . S
N721 Li704 1.990 . S
N721 C720 1.314 . S
N721 C723 1.279 . S
C722 C723 1.358 . S
C722 C724 1.356 . S
C722 H776 0.930 . S
C723 N721 1.279 . S
C723 C722 1.358 . S
C723 H727 0.930 . S
C724 C722 1.356 . S
C724 C725 1.348 . S
C725 C720 1.353 . S
C725 C724 1.348 . S
C725 H777 0.929 . S
H726 C720 0.930 . S
H727 C723 0.930 . S
C728 N729 1.314 . S
C728 C730 1.353 . S
C728 H734 0.930 . S
N729 Li705 1.990 . S
N729 C728 1.314 . S
N729 C732 1.279 . S
C730 C728 1.353 . S
C730 C733 1.348 . S
C730 H778 0.929 . S
C731 C732 1.358 . S
C731 C733 1.356 . S
C731 H779 0.930 . S
C732 N729 1.279 . S
C732 C731 1.358 . S
C732 H735 0.930 . S
C733 C730 1.348 . S
C733 C731 1.356 . S
H734 C728 0.930 . S
H735 C732 0.930 . S
C736 C738 1.348 . S
C736 C739 1.356 . S
C736 O766 1.325 . S
N737 C740 1.314 . S
N737 C741 1.279 . S
C738 C736 1.348 . S
C738 C740 1.353 . S
C738 H780 0.929 . S
C739 C736 1.356 . S
C739 C741 1.358 . S
C739 H781 0.930 . S
C740 N737 1.314 . S
C740 C738 1.353 . S
C740 H782 0.930 . S
C741 N737 1.279 . S
C741 C739 1.358 . S
C741 H783 0.930 . S
C742 C743 1.348 . S
C742 C744 1.356 . S
C742 O767 1.325 . S
C743 C742 1.348 . S
C743 C745 1.353 . S
C743 H784 0.929 . S
C744 C742 1.356 . S
C744 C746 1.358 . S
C744 H785 0.930 . S
C745 C743 1.353 . S
C745 N747 1.314 . S
C745 H786 0.930 . S
C746 C744 1.358 . S
C746 N747 1.279 . S
C746 H787 0.930 . S
N747 C745 1.314 . S
N747 C746 1.279 . S
C748 C750 1.353 . S
C748 N751 1.314 . S
C748 H754 0.930 . S
C749 N751 1.279 . S
C749 C752 1.358 . S
C749 H755 0.930 . S
C750 C748 1.353 . S
C750 C753 1.348 . S
C750 H788 0.929 . S
N751 Li706 1.990 . S
N751 C748 1.314 . S
N751 C749 1.279 . S
C752 C749 1.358 . S
C752 C753 1.356 . S
C752 H789 0.930 . S
C753 C750 1.348 . S
C753 C752 1.356 . S
H754 C748 0.930 . S
H755 C749 0.930 . S
C756 N757 1.314 . S
C756 C758 1.353 . S
C756 H762 0.930 . S
N757 Li707 1.990 . S
N757 C756 1.314 . S
N757 C760 1.279 . S
C758 C756 1.353 . S
C758 C761 1.348 . S
C758 H790 0.929 . S
C759 C760 1.358 . S
C759 C761 1.356 . S
C759 H791 0.930 . S
C760 N757 1.279 . S
C760 C759 1.358 . S
C760 H763 0.930 . S
C761 C758 1.348 . S
C761 C759 1.356 . S
H762 C756 0.930 . S
H763 C760 0.930 . S
O764 Li704 1.956 . S
O764 Li705 1.970 . S
O764 Li706 1.961 . S
O764 C708 1.325 . S
O765 Li704 1.970 . S
O765 Li705 1.956 . S
O765 Li707 1.961 . S
O765 C714 1.325 . S
O766 Li704 1.961 . S
O766 Li706 1.956 . S
O766 Li707 1.970 . S
O766 C736 1.325 . S
O767 Li705 1.961 . S
O767 Li706 1.970 . S
O767 Li707 1.956 . S
O767 C742 1.325 . S
H768 C710 0.929 . S
H769 C711 0.930 . S
H770 C712 0.930 . S
H771 C713 0.930 . S
H772 C715 0.930 . S
H773 C717 0.929 . S
H774 C718 0.930 . S
H775 C719 0.930 . S
H776 C722 0.930 . S
H777 C725 0.929 . S
H778 C730 0.929 . S
H779 C731 0.930 . S
H780 C738 0.929 . S
H781 C739 0.930 . S
H782 C740 0.930 . S
H783 C741 0.930 . S
H784 C743 0.929 . S
H785 C744 0.930 . S
H786 C745 0.930 . S
H787 C746 0.930 . S
H788 C750 0.929 . S
H789 C752 0.930 . S
H790 C758 0.929 . S
H791 C759 0.930 . S
Li792 N809 1.990 . S
Li792 O852 1.956 . S
Li792 O853 1.970 . S
Li792 O854 1.961 . S
Li793 N817 1.990 . S
Li793 O852 1.970 . S
Li793 O853 1.956 . S
Li793 O855 1.961 . S
Li794 N839 1.990 . S
Li794 O852 1.961 . S
Li794 O854 1.956 . S
Li794 O855 1.970 . S
Li795 N845 1.990 . S
Li795 O853 1.961 . S
Li795 O854 1.970 . S
Li795 O855 1.956 . S
C796 C798 1.348 . S
C796 C799 1.356 . S
C796 O852 1.325 . S
N797 C800 1.314 . S
N797 C801 1.279 . S
C798 C796 1.348 . S
C798 C800 1.353 . S
C798 H856 0.929 . S
C799 C796 1.356 . S
C799 C801 1.358 . S
C799 H857 0.930 . S
C800 N797 1.314 . S
C800 C798 1.353 . S
C800 H858 0.930 . S
C801 N797 1.279 . S
C801 C799 1.358 . S
C801 H859 0.930 . S
C802 C805 1.348 . S
C802 C806 1.356 . S
C802 O853 1.325 . S
C803 N804 1.279 . S
C803 C806 1.358 . S
C803 H860 0.930 . S
N804 C803 1.279 . S
N804 C807 1.314 . S
C805 C802 1.348 . S
C805 C807 1.353 . S
C805 H861 0.929 . S
C806 C802 1.356 . S
C806 C803 1.358 . S
C806 H862 0.930 . S
C807 N804 1.314 . S
C807 C805 1.353 . S
C807 H863 0.930 . S
C808 N809 1.314 . S
C808 C813 1.353 . S
C808 H814 0.930 . S
N809 Li792 1.990 . S
N809 C808 1.314 . S
N809 C811 1.279 . S
C810 C811 1.358 . S
C810 C812 1.356 . S
C810 H864 0.930 . S
C811 N809 1.279 . S
C811 C810 1.358 . S
C811 H815 0.930 . S
C812 C810 1.356 . S
C812 C813 1.348 . S
C813 C808 1.353 . S
C813 C812 1.348 . S
C813 H865 0.929 . S
H814 C808 0.930 . S
H815 C811 0.930 . S
C816 N817 1.314 . S
C816 C818 1.353 . S
C816 H822 0.930 . S
N817 Li793 1.990 . S
N817 C816 1.314 . S
N817 C820 1.279 . S
C818 C816 1.353 . S
C818 C821 1.348 . S
C818 H866 0.929 . S
C819 C820 1.358 . S
C819 C821 1.356 . S
C819 H867 0.930 . S
C820 N817 1.279 . S
C820 C819 1.358 . S
C820 H823 0.930 . S
C821 C818 1.348 . S
C821 C819 1.356 . S
H822 C816 0.930 . S
H823 C820 0.930 . S
C824 C826 1.348 . S
C824 C827 1.356 . S
C824 O854 1.325 . S
N825 C828 1.314 . S
N825 C829 1.279 . S
C826 C824 1.348 . S
C826 C828 1.353 . S
C826 H868 0.929 . S
C827 C824 1.356 . S
C827 C829 1.358 . S
C827 H869 0.930 . S
C828 N825 1.314 . S
C828 C826 1.353 . S
C828 H870 0.930 . S
C829 N825 1.279 . S
C829 C827 1.358 . S
C829 H871 0.930 . S
C830 C831 1.348 . S
C830 C832 1.356 . S
C830 O855 1.325 . S
C831 C830 1.348 . S
C831 C833 1.353 . S
C831 H872 0.929 . S
C832 C830 1.356 . S
C832 C834 1.358 . S
C832 H873 0.930 . S
C833 C831 1.353 . S
C833 N835 1.314 . S
C833 H874 0.930 . S
C834 C832 1.358 . S
C834 N835 1.279 . S
C834 H875 0.930 . S
N835 C833 1.314 . S
N835 C834 1.279 . S
C836 C838 1.353 . S
C836 N839 1.314 . S
C836 H842 0.930 . S
C837 N839 1.279 . S
C837 C840 1.358 . S
C837 H843 0.930 . S
C838 C836 1.353 . S
C838 C841 1.348 . S
C838 H876 0.929 . S
N839 Li794 1.990 . S
N839 C836 1.314 . S
N839 C837 1.279 . S
C840 C837 1.358 . S
C840 C841 1.356 . S
C840 H877 0.930 . S
C841 C838 1.348 . S
C841 C840 1.356 . S
H842 C836 0.930 . S
H843 C837 0.930 . S
C844 N845 1.314 . S
C844 C846 1.353 . S
C844 H850 0.930 . S
N845 Li795 1.990 . S
N845 C844 1.314 . S
N845 C848 1.279 . S
C846 C844 1.353 . S
C846 C849 1.348 . S
C846 H878 0.929 . S
C847 C848 1.358 . S
C847 C849 1.356 . S
C847 H879 0.930 . S
C848 N845 1.279 . S
C848 C847 1.358 . S
C848 H851 0.930 . S
C849 C846 1.348 . S
C849 C847 1.356 . S
H850 C844 0.930 . S
H851 C848 0.930 . S
O852 Li792 1.956 . S
O852 Li793 1.970 . S
O852 Li794 1.961 . S
O852 C796 1.325 . S
O853 Li792 1.970 . S
O853 Li793 1.956 . S
O853 Li795 1.961 . S
O853 C802 1.325 . S
O854 Li792 1.961 . S
O854 Li794 1.956 . S
O854 Li795 1.970 . S
O854 C824 1.325 . S
O855 Li793 1.961 . S
O855 Li794 1.970 . S
O855 Li795 1.956 . S
O855 C830 1.325 . S
H856 C798 0.929 . S
H857 C799 0.930 . S
H858 C800 0.930 . S
H859 C801 0.930 . S
H860 C803 0.930 . S
H861 C805 0.929 . S
H862 C806 0.930 . S
H863 C807 0.930 . S
H864 C810 0.930 . S
H865 C813 0.929 . S
H866 C818 0.929 . S
H867 C819 0.930 . S
H868 C826 0.929 . S
H869 C827 0.930 . S
H870 C828 0.930 . S
H871 C829 0.930 . S
H872 C831 0.929 . S
H873 C832 0.930 . S
H874 C833 0.930 . S
H875 C834 0.930 . S
H876 C838 0.929 . S
H877 C840 0.930 . S
H878 C846 0.929 . S
H879 C847 0.930 . S
Li880 N897 1.990 . S
Li880 O940 1.956 . S
Li880 O941 1.970 . S
Li880 O942 1.961 . S
Li881 N905 1.990 . S
Li881 O940 1.970 . S
Li881 O941 1.956 . S
Li881 O943 1.961 . S
Li882 N927 1.990 . S
Li882 O940 1.961 . S
Li882 O942 1.956 . S
Li882 O943 1.970 . S
Li883 N933 1.990 . S
Li883 O941 1.961 . S
Li883 O942 1.970 . S
Li883 O943 1.956 . S
C884 C886 1.348 . S
C884 C887 1.356 . S
C884 O940 1.325 . S
N885 C888 1.314 . S
N885 C889 1.279 . S
C886 C884 1.348 . S
C886 C888 1.353 . S
C886 H944 0.929 . S
C887 C884 1.356 . S
C887 C889 1.358 . S
C887 H945 0.930 . S
C888 N885 1.314 . S
C888 C886 1.353 . S
C888 H946 0.930 . S
C889 N885 1.279 . S
C889 C887 1.358 . S
C889 H947 0.930 . S
C890 C893 1.348 . S
C890 C894 1.356 . S
C890 O941 1.325 . S
C891 N892 1.279 . S
C891 C894 1.358 . S
C891 H948 0.930 1_565 S
N892 C891 1.279 . S
N892 C895 1.314 . S
C893 C890 1.348 . S
C893 C895 1.353 . S
C893 H949 0.929 . S
C894 C890 1.356 . S
C894 C891 1.358 . S
C894 H950 0.930 . S
C895 N892 1.314 . S
C895 C893 1.353 . S
C895 H951 0.930 . S
C896 N897 1.314 . S
C896 C901 1.353 . S
C896 H902 0.930 . S
N897 Li880 1.990 . S
N897 C896 1.314 . S
N897 C899 1.279 . S
C898 C899 1.358 . S
C898 C900 1.356 . S
C898 H952 0.930 . S
C899 N897 1.279 . S
C899 C898 1.358 . S
C899 H903 0.930 . S
C900 C898 1.356 . S
C900 C901 1.348 . S
C901 C896 1.353 . S
C901 C900 1.348 . S
C901 H953 0.929 . S
H902 C896 0.930 . S
H903 C899 0.930 . S
C904 N905 1.314 . S
C904 C906 1.353 . S
C904 H910 0.930 . S
N905 Li881 1.990 . S
N905 C904 1.314 . S
N905 C908 1.279 . S
C906 C904 1.353 . S
C906 C909 1.348 . S
C906 H954 0.929 . S
C907 C908 1.358 . S
C907 C909 1.356 . S
C907 H955 0.930 . S
C908 N905 1.279 . S
C908 C907 1.358 . S
C908 H911 0.930 . S
C909 C906 1.348 . S
C909 C907 1.356 . S
H910 C904 0.930 . S
H911 C908 0.930 . S
C912 C914 1.348 . S
C912 C915 1.356 . S
C912 O942 1.325 . S
N913 C916 1.314 . S
N913 C917 1.279 . S
C914 C912 1.348 . S
C914 C916 1.353 . S
C914 H956 0.929 . S
C915 C912 1.356 . S
C915 C917 1.358 . S
C915 H957 0.930 . S
C916 N913 1.314 . S
C916 C914 1.353 . S
C916 H958 0.930 . S
C917 N913 1.279 . S
C917 C915 1.358 . S
C917 H959 0.930 . S
C918 C919 1.348 . S
C918 C920 1.356 . S
C918 O943 1.325 . S
C919 C918 1.348 . S
C919 C921 1.353 . S
C919 H960 0.929 . S
C920 C918 1.356 . S
C920 C922 1.358 . S
C920 H961 0.930 . S
C921 C919 1.353 . S
C921 N923 1.314 . S
C921 H962 0.930 . S
C922 C920 1.358 . S
C922 N923 1.279 . S
C922 H963 0.930 . S
N923 C921 1.314 . S
N923 C922 1.279 . S
C924 C926 1.353 . S
C924 N927 1.314 . S
C924 H930 0.930 . S
C925 N927 1.279 . S
C925 C928 1.358 . S
C925 H931 0.930 . S
C926 C924 1.353 . S
C926 C929 1.348 . S
C926 H964 0.929 . S
N927 Li882 1.990 . S
N927 C924 1.314 . S
N927 C925 1.279 . S
C928 C925 1.358 . S
C928 C929 1.356 . S
C928 H965 0.930 . S
C929 C926 1.348 . S
C929 C928 1.356 . S
H930 C924 0.930 . S
H931 C925 0.930 . S
C932 N933 1.314 . S
C932 C934 1.353 . S
C932 H938 0.930 . S
N933 Li883 1.990 . S
N933 C932 1.314 . S
N933 C936 1.279 . S
C934 C932 1.353 . S
C934 C937 1.348 . S
C934 H966 0.929 . S
C935 C936 1.358 . S
C935 C937 1.356 . S
C935 H967 0.930 . S
C936 N933 1.279 . S
C936 C935 1.358 . S
C936 H939 0.930 . S
C937 C934 1.348 . S
C937 C935 1.356 . S
H938 C932 0.930 . S
H939 C936 0.930 . S
O940 Li880 1.956 . S
O940 Li881 1.970 . S
O940 Li882 1.961 . S
O940 C884 1.325 . S
O941 Li880 1.970 . S
O941 Li881 1.956 . S
O941 Li883 1.961 . S
O941 C890 1.325 . S
O942 Li880 1.961 . S
O942 Li882 1.956 . S
O942 Li883 1.970 . S
O942 C912 1.325 . S
O943 Li881 1.961 . S
O943 Li882 1.970 . S
O943 Li883 1.956 . S
O943 C918 1.325 . S
H944 C886 0.929 . S
H945 C887 0.930 . S
H946 C888 0.930 . S
H947 C889 0.930 . S
H948 C891 0.930 1_545 S
H949 C893 0.929 . S
H950 C894 0.930 . S
H951 C895 0.930 . S
H952 C898 0.930 . S
H953 C901 0.929 . S
H954 C906 0.929 . S
H955 C907 0.930 . S
H956 C914 0.929 . S
H957 C915 0.930 . S
H958 C916 0.930 . S
H959 C917 0.930 . S
H960 C919 0.929 . S
H961 C920 0.930 . S
H962 C921 0.930 . S
H963 C922 0.930 . S
H964 C926 0.929 . S
H965 C928 0.930 . S
H966 C934 0.929 . S
H967 C935 0.930 . S
Li968 N985 1.990 . S
Li968 O1028 1.956 . S
Li968 O1029 1.970 . S
Li968 O1030 1.961 . S
Li969 N993 1.990 . S
Li969 O1028 1.970 . S
Li969 O1029 1.956 . S
Li969 O1031 1.961 . S
Li970 N1015 1.990 . S
Li970 O1028 1.961 . S
Li970 O1030 1.956 . S
Li970 O1031 1.970 . S
Li971 N1021 1.990 . S
Li971 O1029 1.961 . S
Li971 O1030 1.970 . S
Li971 O1031 1.956 . S
C972 C974 1.348 . S
C972 C975 1.356 . S
C972 O1028 1.325 . S
N973 C976 1.314 . S
N973 C977 1.279 . S
C974 C972 1.348 . S
C974 C976 1.353 . S
C974 H1032 0.929 . S
C975 C972 1.356 . S
C975 C977 1.358 . S
C975 H1033 0.930 . S
C976 N973 1.314 . S
C976 C974 1.353 . S
C976 H1034 0.930 . S
C977 N973 1.279 . S
C977 C975 1.358 . S
C977 H1035 0.930 1_455 S
C978 C981 1.348 . S
C978 C982 1.356 . S
C978 O1029 1.325 . S
C979 N980 1.279 . S
C979 C982 1.358 . S
C979 H1036 0.930 . S
N980 C979 1.279 . S
N980 C983 1.314 . S
C981 C978 1.348 . S
C981 C983 1.353 . S
C981 H1037 0.929 . S
C982 C978 1.356 . S
C982 C979 1.358 . S
C982 H1038 0.930 . S
C983 N980 1.314 . S
C983 C981 1.353 . S
C983 H1039 0.930 . S
C984 N985 1.314 . S
C984 C989 1.353 . S
C984 H990 0.930 . S
N985 Li968 1.990 . S
N985 C984 1.314 . S
N985 C987 1.279 . S
C986 C987 1.358 . S
C986 C988 1.356 . S
C986 H1040 0.930 . S
C987 N985 1.279 . S
C987 C986 1.358 . S
C987 H991 0.930 . S
C988 C986 1.356 . S
C988 C989 1.348 . S
C989 C984 1.353 . S
C989 C988 1.348 . S
C989 H1041 0.929 . S
H990 C984 0.930 . S
H991 C987 0.930 . S
C992 N993 1.314 . S
C992 C994 1.353 . S
C992 H998 0.930 . S
N993 Li969 1.990 . S
N993 C992 1.314 . S
N993 C996 1.279 . S
C994 C992 1.353 . S
C994 C997 1.348 . S
C994 H1042 0.929 . S
C995 C996 1.358 . S
C995 C997 1.356 . S
C995 H1043 0.930 . S
C996 N993 1.279 . S
C996 C995 1.358 . S
C996 H999 0.930 . S
C997 C994 1.348 . S
C997 C995 1.356 . S
H998 C992 0.930 . S
H999 C996 0.930 . S
C1000 C1002 1.348 . S
C1000 C1003 1.356 . S
C1000 O1030 1.325 . S
N1001 C1004 1.314 . S
N1001 C1005 1.279 . S
C1002 C1000 1.348 . S
C1002 C1004 1.353 . S
C1002 H1044 0.929 . S
C1003 C1000 1.356 . S
C1003 C1005 1.358 . S
C1003 H1045 0.930 . S
C1004 N1001 1.314 . S
C1004 C1002 1.353 . S
C1004 H1046 0.930 . S
C1005 N1001 1.279 . S
C1005 C1003 1.358 . S
C1005 H1047 0.930 . S
C1006 C1007 1.348 . S
C1006 C1008 1.356 . S
C1006 O1031 1.325 . S
C1007 C1006 1.348 . S
C1007 C1009 1.353 . S
C1007 H1048 0.929 . S
C1008 C1006 1.356 . S
C1008 C1010 1.358 . S
C1008 H1049 0.930 . S
C1009 C1007 1.353 . S
C1009 N1011 1.314 . S
C1009 H1050 0.930 . S
C1010 C1008 1.358 . S
C1010 N1011 1.279 . S
C1010 H1051 0.930 . S
N1011 C1009 1.314 . S
N1011 C1010 1.279 . S
C1012 C1014 1.353 . S
C1012 N1015 1.314 . S
C1012 H1018 0.930 . S
C1013 N1015 1.279 . S
C1013 C1016 1.358 . S
C1013 H1019 0.930 . S
C1014 C1012 1.353 . S
C1014 C1017 1.348 . S
C1014 H1052 0.929 . S
N1015 Li970 1.990 . S
N1015 C1012 1.314 . S
N1015 C1013 1.279 . S
C1016 C1013 1.358 . S
C1016 C1017 1.356 . S
C1016 H1053 0.930 . S
C1017 C1014 1.348 . S
C1017 C1016 1.356 . S
H1018 C1012 0.930 . S
H1019 C1013 0.930 . S
C1020 N1021 1.314 . S
C1020 C1022 1.353 . S
C1020 H1026 0.930 . S
N1021 Li971 1.990 . S
N1021 C1020 1.314 . S
N1021 C1024 1.279 . S
C1022 C1020 1.353 . S
C1022 C1025 1.348 . S
C1022 H1054 0.929 . S
C1023 C1024 1.358 . S
C1023 C1025 1.356 . S
C1023 H1055 0.930 . S
C1024 N1021 1.279 . S
C1024 C1023 1.358 . S
C1024 H1027 0.930 . S
C1025 C1022 1.348 . S
C1025 C1023 1.356 . S
H1026 C1020 0.930 . S
H1027 C1024 0.930 . S
O1028 Li968 1.956 . S
O1028 Li969 1.970 . S
O1028 Li970 1.961 . S
O1028 C972 1.325 . S
O1029 Li968 1.970 . S
O1029 Li969 1.956 . S
O1029 Li971 1.961 . S
O1029 C978 1.325 . S
O1030 Li968 1.961 . S
O1030 Li970 1.956 . S
O1030 Li971 1.970 . S
O1030 C1000 1.325 . S
O1031 Li969 1.961 . S
O1031 Li970 1.970 . S
O1031 Li971 1.956 . S
O1031 C1006 1.325 . S
H1032 C974 0.929 . S
H1033 C975 0.930 . S
H1034 C976 0.930 . S
H1035 C977 0.930 1_655 S
H1036 C979 0.930 . S
H1037 C981 0.929 . S
H1038 C982 0.930 . S
H1039 C983 0.930 . S
H1040 C986 0.930 . S
H1041 C989 0.929 . S
H1042 C994 0.929 . S
H1043 C995 0.930 . S
H1044 C1002 0.929 . S
H1045 C1003 0.930 . S
H1046 C1004 0.930 . S
H1047 C1005 0.930 . S
H1048 C1007 0.929 . S
H1049 C1008 0.930 . S
H1050 C1009 0.930 . S
H1051 C1010 0.930 . S
H1052 C1014 0.929 . S
H1053 C1016 0.930 . S
H1054 C1022 0.929 . S
H1055 C1023 0.930 . S
Li1056 N1073 1.990 . S
Li1056 O1116 1.956 . S
Li1056 O1117 1.970 . S
Li1056 O1118 1.961 . S
Li1057 N1081 1.990 . S
Li1057 O1116 1.970 . S
Li1057 O1117 1.956 . S
Li1057 O1119 1.961 . S
Li1058 N1103 1.990 . S
Li1058 O1116 1.961 . S
Li1058 O1118 1.956 . S
Li1058 O1119 1.970 . S
Li1059 N1109 1.990 . S
Li1059 O1117 1.961 . S
Li1059 O1118 1.970 . S
Li1059 O1119 1.956 . S
C1060 C1062 1.348 . S
C1060 C1063 1.356 . S
C1060 O1116 1.325 . S
N1061 C1064 1.314 . S
N1061 C1065 1.279 . S
C1062 C1060 1.348 . S
C1062 C1064 1.353 . S
C1062 H1120 0.929 . S
C1063 C1060 1.356 . S
C1063 C1065 1.358 . S
C1063 H1121 0.930 . S
C1064 N1061 1.314 . S
C1064 C1062 1.353 . S
C1064 H1122 0.930 . S
C1065 N1061 1.279 . S
C1065 C1063 1.358 . S
C1065 H1123 0.930 . S
C1066 C1069 1.348 . S
C1066 C1070 1.356 . S
C1066 O1117 1.325 . S
C1067 N1068 1.279 . S
C1067 C1070 1.358 . S
C1067 H1124 0.930 . S
N1068 C1067 1.279 . S
N1068 C1071 1.314 . S
C1069 C1066 1.348 . S
C1069 C1071 1.353 . S
C1069 H1125 0.929 . S
C1070 C1066 1.356 . S
C1070 C1067 1.358 . S
C1070 H1126 0.930 . S
C1071 N1068 1.314 . S
C1071 C1069 1.353 . S
C1071 H1127 0.930 . S
C1072 N1073 1.314 . S
C1072 C1077 1.353 . S
C1072 H1078 0.930 . S
N1073 Li1056 1.990 . S
N1073 C1072 1.314 . S
N1073 C1075 1.279 . S
C1074 C1075 1.358 . S
C1074 C1076 1.356 . S
C1074 H1128 0.930 . S
C1075 N1073 1.279 . S
C1075 C1074 1.358 . S
C1075 H1079 0.930 . S
C1076 C1074 1.356 . S
C1076 C1077 1.348 . S
C1077 C1072 1.353 . S
C1077 C1076 1.348 . S
C1077 H1129 0.929 . S
H1078 C1072 0.930 . S
H1079 C1075 0.930 . S
C1080 N1081 1.314 . S
C1080 C1082 1.353 . S
C1080 H1086 0.930 . S
N1081 Li1057 1.990 . S
N1081 C1080 1.314 . S
N1081 C1084 1.279 . S
C1082 C1080 1.353 . S
C1082 C1085 1.348 . S
C1082 H1130 0.929 . S
C1083 C1084 1.358 . S
C1083 C1085 1.356 . S
C1083 H1131 0.930 . S
C1084 N1081 1.279 . S
C1084 C1083 1.358 . S
C1084 H1087 0.930 . S
C1085 C1082 1.348 . S
C1085 C1083 1.356 . S
H1086 C1080 0.930 . S
H1087 C1084 0.930 . S
C1088 C1090 1.348 . S
C1088 C1091 1.356 . S
C1088 O1118 1.325 . S
N1089 C1092 1.314 . S
N1089 C1093 1.279 . S
C1090 C1088 1.348 . S
C1090 C1092 1.353 . S
C1090 H1132 0.929 . S
C1091 C1088 1.356 . S
C1091 C1093 1.358 . S
C1091 H1133 0.930 . S
C1092 N1089 1.314 . S
C1092 C1090 1.353 . S
C1092 H1134 0.930 . S
C1093 N1089 1.279 . S
C1093 C1091 1.358 . S
C1093 H1135 0.930 1_565 S
C1094 C1095 1.348 . S
C1094 C1096 1.356 . S
C1094 O1119 1.325 . S
C1095 C1094 1.348 . S
C1095 C1097 1.353 . S
C1095 H1136 0.929 . S
C1096 C1094 1.356 . S
C1096 C1098 1.358 . S
C1096 H1137 0.930 . S
C1097 C1095 1.353 . S
C1097 N1099 1.314 . S
C1097 H1138 0.930 . S
C1098 C1096 1.358 . S
C1098 N1099 1.279 . S
C1098 H1139 0.930 . S
N1099 C1097 1.314 . S
N1099 C1098 1.279 . S
C1100 C1102 1.353 . S
C1100 N1103 1.314 . S
C1100 H1106 0.930 . S
C1101 N1103 1.279 . S
C1101 C1104 1.358 . S
C1101 H1107 0.930 . S
C1102 C1100 1.353 . S
C1102 C1105 1.348 . S
C1102 H1140 0.929 . S
N1103 Li1058 1.990 . S
N1103 C1100 1.314 . S
N1103 C1101 1.279 . S
C1104 C1101 1.358 . S
C1104 C1105 1.356 . S
C1104 H1141 0.930 . S
C1105 C1102 1.348 . S
C1105 C1104 1.356 . S
H1106 C1100 0.930 . S
H1107 C1101 0.930 . S
C1108 N1109 1.314 . S
C1108 C1110 1.353 . S
C1108 H1114 0.930 . S
N1109 Li1059 1.990 . S
N1109 C1108 1.314 . S
N1109 C1112 1.279 . S
C1110 C1108 1.353 . S
C1110 C1113 1.348 . S
C1110 H1142 0.929 . S
C1111 C1112 1.358 . S
C1111 C1113 1.356 . S
C1111 H1143 0.930 . S
C1112 N1109 1.279 . S
C1112 C1111 1.358 . S
C1112 H1115 0.930 . S
C1113 C1110 1.348 . S
C1113 C1111 1.356 . S
H1114 C1108 0.930 . S
H1115 C1112 0.930 . S
O1116 Li1056 1.956 . S
O1116 Li1057 1.970 . S
O1116 Li1058 1.961 . S
O1116 C1060 1.325 . S
O1117 Li1056 1.970 . S
O1117 Li1057 1.956 . S
O1117 Li1059 1.961 . S
O1117 C1066 1.325 . S
O1118 Li1056 1.961 . S
O1118 Li1058 1.956 . S
O1118 Li1059 1.970 . S
O1118 C1088 1.325 . S
O1119 Li1057 1.961 . S
O1119 Li1058 1.970 . S
O1119 Li1059 1.956 . S
O1119 C1094 1.325 . S
H1120 C1062 0.929 . S
H1121 C1063 0.930 . S
H1122 C1064 0.930 . S
H1123 C1065 0.930 . S
H1124 C1067 0.930 . S
H1125 C1069 0.929 . S
H1126 C1070 0.930 . S
H1127 C1071 0.930 . S
H1128 C1074 0.930 . S
H1129 C1077 0.929 . S
H1130 C1082 0.929 . S
H1131 C1083 0.930 . S
H1132 C1090 0.929 . S
H1133 C1091 0.930 . S
H1134 C1092 0.930 . S
H1135 C1093 0.930 1_545 S
H1136 C1095 0.929 . S
H1137 C1096 0.930 . S
H1138 C1097 0.930 . S
H1139 C1098 0.930 . S
H1140 C1102 0.929 . S
H1141 C1104 0.930 . S
H1142 C1110 0.929 . S
H1143 C1111 0.930 . S
Li1144 N1161 1.990 . S
Li1144 O1204 1.956 . S
Li1144 O1205 1.970 . S
Li1144 O1206 1.961 . S
Li1145 N1169 1.990 . S
Li1145 O1204 1.970 . S
Li1145 O1205 1.956 . S
Li1145 O1207 1.961 . S
Li1146 N1191 1.990 . S
Li1146 O1204 1.961 . S
Li1146 O1206 1.956 . S
Li1146 O1207 1.970 . S
Li1147 N1197 1.990 . S
Li1147 O1205 1.961 . S
Li1147 O1206 1.970 . S
Li1147 O1207 1.956 . S
C1148 C1150 1.348 . S
C1148 C1151 1.356 . S
C1148 O1204 1.325 . S
N1149 C1152 1.314 . S
N1149 C1153 1.279 . S
C1150 C1148 1.348 . S
C1150 C1152 1.353 . S
C1150 H1208 0.929 . S
C1151 C1148 1.356 . S
C1151 C1153 1.358 . S
C1151 H1209 0.930 . S
C1152 N1149 1.314 . S
C1152 C1150 1.353 . S
C1152 H1210 0.930 . S
C1153 N1149 1.279 . S
C1153 C1151 1.358 . S
C1153 H1211 0.930 . S
C1154 C1157 1.348 . S
C1154 C1158 1.356 . S
C1154 O1205 1.325 . S
C1155 N1156 1.279 . S
C1155 C1158 1.358 . S
C1155 H1212 0.930 . S
N1156 C1155 1.279 . S
N1156 C1159 1.314 . S
C1157 C1154 1.348 . S
C1157 C1159 1.353 . S
C1157 H1213 0.929 . S
C1158 C1154 1.356 . S
C1158 C1155 1.358 . S
C1158 H1214 0.930 . S
C1159 N1156 1.314 . S
C1159 C1157 1.353 . S
C1159 H1215 0.930 . S
C1160 N1161 1.314 . S
C1160 C1165 1.353 . S
C1160 H1166 0.930 . S
N1161 Li1144 1.990 . S
N1161 C1160 1.314 . S
N1161 C1163 1.279 . S
C1162 C1163 1.358 . S
C1162 C1164 1.356 . S
C1162 H1216 0.930 . S
C1163 N1161 1.279 . S
C1163 C1162 1.358 . S
C1163 H1167 0.930 . S
C1164 C1162 1.356 . S
C1164 C1165 1.348 . S
C1165 C1160 1.353 . S
C1165 C1164 1.348 . S
C1165 H1217 0.929 . S
H1166 C1160 0.930 . S
H1167 C1163 0.930 . S
C1168 N1169 1.314 . S
C1168 C1170 1.353 . S
C1168 H1174 0.930 . S
N1169 Li1145 1.990 . S
N1169 C1168 1.314 . S
N1169 C1172 1.279 . S
C1170 C1168 1.353 . S
C1170 C1173 1.348 . S
C1170 H1218 0.929 . S
C1171 C1172 1.358 . S
C1171 C1173 1.356 . S
C1171 H1219 0.930 . S
C1172 N1169 1.279 . S
C1172 C1171 1.358 . S
C1172 H1175 0.930 . S
C1173 C1170 1.348 . S
C1173 C1171 1.356 . S
H1174 C1168 0.930 . S
H1175 C1172 0.930 . S
C1176 C1178 1.348 . S
C1176 C1179 1.356 . S
C1176 O1206 1.325 . S
N1177 C1180 1.314 . S
N1177 C1181 1.279 . S
C1178 C1176 1.348 . S
C1178 C1180 1.353 . S
C1178 H1220 0.929 . S
C1179 C1176 1.356 . S
C1179 C1181 1.358 . S
C1179 H1221 0.930 . S
C1180 N1177 1.314 . S
C1180 C1178 1.353 . S
C1180 H1222 0.930 . S
C1181 N1177 1.279 . S
C1181 C1179 1.358 . S
C1181 H1223 0.930 . S
C1182 C1183 1.348 . S
C1182 C1184 1.356 . S
C1182 O1207 1.325 . S
C1183 C1182 1.348 . S
C1183 C1185 1.353 . S
C1183 H1224 0.929 . S
C1184 C1182 1.356 . S
C1184 C1186 1.358 . S
C1184 H1225 0.930 . S
C1185 C1183 1.353 . S
C1185 N1187 1.314 . S
C1185 H1226 0.930 . S
C1186 C1184 1.358 . S
C1186 N1187 1.279 . S
C1186 H1227 0.930 1_455 S
N1187 C1185 1.314 . S
N1187 C1186 1.279 . S
C1188 C1190 1.353 . S
C1188 N1191 1.314 . S
C1188 H1194 0.930 . S
C1189 N1191 1.279 . S
C1189 C1192 1.358 . S
C1189 H1195 0.930 . S
C1190 C1188 1.353 . S
C1190 C1193 1.348 . S
C1190 H1228 0.929 . S
N1191 Li1146 1.990 . S
N1191 C1188 1.314 . S
N1191 C1189 1.279 . S
C1192 C1189 1.358 . S
C1192 C1193 1.356 . S
C1192 H1229 0.930 . S
C1193 C1190 1.348 . S
C1193 C1192 1.356 . S
H1194 C1188 0.930 . S
H1195 C1189 0.930 . S
C1196 N1197 1.314 . S
C1196 C1198 1.353 . S
C1196 H1202 0.930 . S
N1197 Li1147 1.990 . S
N1197 C1196 1.314 . S
N1197 C1200 1.279 . S
C1198 C1196 1.353 . S
C1198 C1201 1.348 . S
C1198 H1230 0.929 . S
C1199 C1200 1.358 . S
C1199 C1201 1.356 . S
C1199 H1231 0.930 . S
C1200 N1197 1.279 . S
C1200 C1199 1.358 . S
C1200 H1203 0.930 . S
C1201 C1198 1.348 . S
C1201 C1199 1.356 . S
H1202 C1196 0.930 . S
H1203 C1200 0.930 . S
O1204 Li1144 1.956 . S
O1204 Li1145 1.970 . S
O1204 Li1146 1.961 . S
O1204 C1148 1.325 . S
O1205 Li1144 1.970 . S
O1205 Li1145 1.956 . S
O1205 Li1147 1.961 . S
O1205 C1154 1.325 . S
O1206 Li1144 1.961 . S
O1206 Li1146 1.956 . S
O1206 Li1147 1.970 . S
O1206 C1176 1.325 . S
O1207 Li1145 1.961 . S
O1207 Li1146 1.970 . S
O1207 Li1147 1.956 . S
O1207 C1182 1.325 . S
H1208 C1150 0.929 . S
H1209 C1151 0.930 . S
H1210 C1152 0.930 . S
H1211 C1153 0.930 . S
H1212 C1155 0.930 . S
H1213 C1157 0.929 . S
H1214 C1158 0.930 . S
H1215 C1159 0.930 . S
H1216 C1162 0.930 . S
H1217 C1165 0.929 . S
H1218 C1170 0.929 . S
H1219 C1171 0.930 . S
H1220 C1178 0.929 . S
H1221 C1179 0.930 . S
H1222 C1180 0.930 . S
H1223 C1181 0.930 . S
H1224 C1183 0.929 . S
H1225 C1184 0.930 . S
H1226 C1185 0.930 . S
H1227 C1186 0.930 1_655 S
H1228 C1190 0.929 . S
H1229 C1192 0.930 . S
H1230 C1198 0.929 . S
H1231 C1199 0.930 . S
Li1232 N1249 1.990 . S
Li1232 O1292 1.956 . S
Li1232 O1293 1.970 . S
Li1232 O1294 1.961 . S
Li1233 N1257 1.990 . S
Li1233 O1292 1.970 . S
Li1233 O1293 1.956 . S
Li1233 O1295 1.961 . S
Li1234 N1279 1.990 . S
Li1234 O1292 1.961 . S
Li1234 O1294 1.956 . S
Li1234 O1295 1.970 . S
Li1235 N1285 1.990 . S
Li1235 O1293 1.961 . S
Li1235 O1294 1.970 . S
Li1235 O1295 1.956 . S
C1236 C1238 1.348 . S
C1236 C1239 1.356 . S
C1236 O1292 1.325 . S
N1237 C1240 1.314 . S
N1237 C1241 1.279 . S
C1238 C1236 1.348 . S
C1238 C1240 1.353 . S
C1238 H1296 0.929 . S
C1239 C1236 1.356 . S
C1239 C1241 1.358 . S
C1239 H1297 0.930 . S
C1240 N1237 1.314 . S
C1240 C1238 1.353 . S
C1240 H1298 0.930 . S
C1241 N1237 1.279 . S
C1241 C1239 1.358 . S
C1241 H1299 0.930 . S
C1242 C1245 1.348 . S
C1242 C1246 1.356 . S
C1242 O1293 1.325 . S
C1243 N1244 1.279 . S
C1243 C1246 1.358 . S
C1243 H1300 0.930 . S
N1244 C1243 1.279 . S
N1244 C1247 1.314 . S
C1245 C1242 1.348 . S
C1245 C1247 1.353 . S
C1245 H1301 0.929 . S
C1246 C1242 1.356 . S
C1246 C1243 1.358 . S
C1246 H1302 0.930 . S
C1247 N1244 1.314 . S
C1247 C1245 1.353 . S
C1247 H1303 0.930 . S
C1248 N1249 1.314 . S
C1248 C1253 1.353 . S
C1248 H1254 0.930 . S
N1249 Li1232 1.990 . S
N1249 C1248 1.314 . S
N1249 C1251 1.279 . S
C1250 C1251 1.358 . S
C1250 C1252 1.356 . S
C1250 H1304 0.930 . S
C1251 N1249 1.279 . S
C1251 C1250 1.358 . S
C1251 H1255 0.930 . S
C1252 C1250 1.356 . S
C1252 C1253 1.348 . S
C1253 C1248 1.353 . S
C1253 C1252 1.348 . S
C1253 H1305 0.929 . S
H1254 C1248 0.930 . S
H1255 C1251 0.930 . S
C1256 N1257 1.314 . S
C1256 C1258 1.353 . S
C1256 H1262 0.930 . S
N1257 Li1233 1.990 . S
N1257 C1256 1.314 . S
N1257 C1260 1.279 . S
C1258 C1256 1.353 . S
C1258 C1261 1.348 . S
C1258 H1306 0.929 . S
C1259 C1260 1.358 . S
C1259 C1261 1.356 . S
C1259 H1307 0.930 . S
C1260 N1257 1.279 . S
C1260 C1259 1.358 . S
C1260 H1263 0.930 . S
C1261 C1258 1.348 . S
C1261 C1259 1.356 . S
H1262 C1256 0.930 . S
H1263 C1260 0.930 . S
C1264 C1266 1.348 . S
C1264 C1267 1.356 . S
C1264 O1294 1.325 . S
N1265 C1268 1.314 . S
N1265 C1269 1.279 . S
C1266 C1264 1.348 . S
C1266 C1268 1.353 . S
C1266 H1308 0.929 . S
C1267 C1264 1.356 . S
C1267 C1269 1.358 . S
C1267 H1309 0.930 . S
C1268 N1265 1.314 . S
C1268 C1266 1.353 . S
C1268 H1310 0.930 . S
C1269 N1265 1.279 . S
C1269 C1267 1.358 . S
C1269 H1311 0.930 . S
C1270 C1271 1.348 . S
C1270 C1272 1.356 . S
C1270 O1295 1.325 . S
C1271 C1270 1.348 . S
C1271 C1273 1.353 . S
C1271 H1312 0.929 . S
C1272 C1270 1.356 . S
C1272 C1274 1.358 . S
C1272 H1313 0.930 . S
C1273 C1271 1.353 . S
C1273 N1275 1.314 . S
C1273 H1314 0.930 . S
C1274 C1272 1.358 . S
C1274 N1275 1.279 . S
C1274 H1315 0.930 . S
N1275 C1273 1.314 . S
N1275 C1274 1.279 . S
C1276 C1278 1.353 . S
C1276 N1279 1.314 . S
C1276 H1282 0.930 . S
C1277 N1279 1.279 . S
C1277 C1280 1.358 . S
C1277 H1283 0.930 . S
C1278 C1276 1.353 . S
C1278 C1281 1.348 . S
C1278 H1316 0.929 . S
N1279 Li1234 1.990 . S
N1279 C1276 1.314 . S
N1279 C1277 1.279 . S
C1280 C1277 1.358 . S
C1280 C1281 1.356 . S
C1280 H1317 0.930 . S
C1281 C1278 1.348 . S
C1281 C1280 1.356 . S
H1282 C1276 0.930 . S
H1283 C1277 0.930 . S
C1284 N1285 1.314 . S
C1284 C1286 1.353 . S
C1284 H1290 0.930 . S
N1285 Li1235 1.990 . S
N1285 C1284 1.314 . S
N1285 C1288 1.279 . S
C1286 C1284 1.353 . S
C1286 C1289 1.348 . S
C1286 H1318 0.929 . S
C1287 C1288 1.358 . S
C1287 C1289 1.356 . S
C1287 H1319 0.930 . S
C1288 N1285 1.279 . S
C1288 C1287 1.358 . S
C1288 H1291 0.930 . S
C1289 C1286 1.348 . S
C1289 C1287 1.356 . S
H1290 C1284 0.930 . S
H1291 C1288 0.930 . S
O1292 Li1232 1.956 . S
O1292 Li1233 1.970 . S
O1292 Li1234 1.961 . S
O1292 C1236 1.325 . S
O1293 Li1232 1.970 . S
O1293 Li1233 1.956 . S
O1293 Li1235 1.961 . S
O1293 C1242 1.325 . S
O1294 Li1232 1.961 . S
O1294 Li1234 1.956 . S
O1294 Li1235 1.970 . S
O1294 C1264 1.325 . S
O1295 Li1233 1.961 . S
O1295 Li1234 1.970 . S
O1295 Li1235 1.956 . S
O1295 C1270 1.325 . S
H1296 C1238 0.929 . S
H1297 C1239 0.930 . S
H1298 C1240 0.930 . S
H1299 C1241 0.930 . S
H1300 C1243 0.930 . S
H1301 C1245 0.929 . S
H1302 C1246 0.930 . S
H1303 C1247 0.930 . S
H1304 C1250 0.930 . S
H1305 C1253 0.929 . S
H1306 C1258 0.929 . S
H1307 C1259 0.930 . S
H1308 C1266 0.929 . S
H1309 C1267 0.930 . S
H1310 C1268 0.930 . S
H1311 C1269 0.930 . S
H1312 C1271 0.929 . S
H1313 C1272 0.930 . S
H1314 C1273 0.930 . S
H1315 C1274 0.930 . S
H1316 C1278 0.929 . S
H1317 C1280 0.930 . S
H1318 C1286 0.929 . S
H1319 C1287 0.930 . S
Li1320 N1337 1.990 . S
Li1320 O1380 1.956 . S
Li1320 O1381 1.970 . S
Li1320 O1382 1.961 . S
Li1321 N1345 1.990 . S
Li1321 O1380 1.970 . S
Li1321 O1381 1.956 . S
Li1321 O1383 1.961 . S
Li1322 N1367 1.990 . S
Li1322 O1380 1.961 . S
Li1322 O1382 1.956 . S
Li1322 O1383 1.970 . S
Li1323 N1373 1.990 . S
Li1323 O1381 1.961 . S
Li1323 O1382 1.970 . S
Li1323 O1383 1.956 . S
C1324 C1326 1.348 . S
C1324 C1327 1.356 . S
C1324 O1380 1.325 . S
N1325 C1328 1.314 . S
N1325 C1329 1.279 . S
C1326 C1324 1.348 . S
C1326 C1328 1.353 . S
C1326 H1384 0.929 . S
C1327 C1324 1.356 . S
C1327 C1329 1.358 . S
C1327 H1385 0.930 . S
C1328 N1325 1.314 . S
C1328 C1326 1.353 . S
C1328 H1386 0.930 . S
C1329 N1325 1.279 . S
C1329 C1327 1.358 . S
C1329 H1387 0.930 . S
C1330 C1333 1.348 . S
C1330 C1334 1.356 . S
C1330 O1381 1.325 . S
C1331 N1332 1.279 . S
C1331 C1334 1.358 . S
C1331 H1388 0.930 . S
N1332 C1331 1.279 . S
N1332 C1335 1.314 . S
C1333 C1330 1.348 . S
C1333 C1335 1.353 . S
C1333 H1389 0.929 . S
C1334 C1330 1.356 . S
C1334 C1331 1.358 . S
C1334 H1390 0.930 . S
C1335 N1332 1.314 . S
C1335 C1333 1.353 . S
C1335 H1391 0.930 . S
C1336 N1337 1.314 . S
C1336 C1341 1.353 . S
C1336 H1342 0.930 . S
N1337 Li1320 1.990 . S
N1337 C1336 1.314 . S
N1337 C1339 1.279 . S
C1338 C1339 1.358 . S
C1338 C1340 1.356 . S
C1338 H1392 0.930 . S
C1339 N1337 1.279 . S
C1339 C1338 1.358 . S
C1339 H1343 0.930 . S
C1340 C1338 1.356 . S
C1340 C1341 1.348 . S
C1341 C1336 1.353 . S
C1341 C1340 1.348 . S
C1341 H1393 0.929 . S
H1342 C1336 0.930 . S
H1343 C1339 0.930 . S
C1344 N1345 1.314 . S
C1344 C1346 1.353 . S
C1344 H1350 0.930 . S
N1345 Li1321 1.990 . S
N1345 C1344 1.314 . S
N1345 C1348 1.279 . S
C1346 C1344 1.353 . S
C1346 C1349 1.348 . S
C1346 H1394 0.929 . S
C1347 C1348 1.358 . S
C1347 C1349 1.356 . S
C1347 H1395 0.930 . S
C1348 N1345 1.279 . S
C1348 C1347 1.358 . S
C1348 H1351 0.930 . S
C1349 C1346 1.348 . S
C1349 C1347 1.356 . S
H1350 C1344 0.930 . S
H1351 C1348 0.930 . S
C1352 C1354 1.348 . S
C1352 C1355 1.356 . S
C1352 O1382 1.325 . S
N1353 C1356 1.314 . S
N1353 C1357 1.279 . S
C1354 C1352 1.348 . S
C1354 C1356 1.353 . S
C1354 H1396 0.929 . S
C1355 C1352 1.356 . S
C1355 C1357 1.358 . S
C1355 H1397 0.930 . S
C1356 N1353 1.314 . S
C1356 C1354 1.353 . S
C1356 H1398 0.930 . S
C1357 N1353 1.279 . S
C1357 C1355 1.358 . S
C1357 H1399 0.930 . S
C1358 C1359 1.348 . S
C1358 C1360 1.356 . S
C1358 O1383 1.325 . S
C1359 C1358 1.348 . S
C1359 C1361 1.353 . S
C1359 H1400 0.929 . S
C1360 C1358 1.356 . S
C1360 C1362 1.358 . S
C1360 H1401 0.930 . S
C1361 C1359 1.353 . S
C1361 N1363 1.314 . S
C1361 H1402 0.930 . S
C1362 C1360 1.358 . S
C1362 N1363 1.279 . S
C1362 H1403 0.930 . S
N1363 C1361 1.314 . S
N1363 C1362 1.279 . S
C1364 C1366 1.353 . S
C1364 N1367 1.314 . S
C1364 H1370 0.930 . S
C1365 N1367 1.279 . S
C1365 C1368 1.358 . S
C1365 H1371 0.930 . S
C1366 C1364 1.353 . S
C1366 C1369 1.348 . S
C1366 H1404 0.929 . S
N1367 Li1322 1.990 . S
N1367 C1364 1.314 . S
N1367 C1365 1.279 . S
C1368 C1365 1.358 . S
C1368 C1369 1.356 . S
C1368 H1405 0.930 . S
C1369 C1366 1.348 . S
C1369 C1368 1.356 . S
H1370 C1364 0.930 . S
H1371 C1365 0.930 . S
C1372 N1373 1.314 . S
C1372 C1374 1.353 . S
C1372 H1378 0.930 . S
N1373 Li1323 1.990 . S
N1373 C1372 1.314 . S
N1373 C1376 1.279 . S
C1374 C1372 1.353 . S
C1374 C1377 1.348 . S
C1374 H1406 0.929 . S
C1375 C1376 1.358 . S
C1375 C1377 1.356 . S
C1375 H1407 0.930 . S
C1376 N1373 1.279 . S
C1376 C1375 1.358 . S
C1376 H1379 0.930 . S
C1377 C1374 1.348 . S
C1377 C1375 1.356 . S
H1378 C1372 0.930 . S
H1379 C1376 0.930 . S
O1380 Li1320 1.956 . S
O1380 Li1321 1.970 . S
O1380 Li1322 1.961 . S
O1380 C1324 1.325 . S
O1381 Li1320 1.970 . S
O1381 Li1321 1.956 . S
O1381 Li1323 1.961 . S
O1381 C1330 1.325 . S
O1382 Li1320 1.961 . S
O1382 Li1322 1.956 . S
O1382 Li1323 1.970 . S
O1382 C1352 1.325 . S
O1383 Li1321 1.961 . S
O1383 Li1322 1.970 . S
O1383 Li1323 1.956 . S
O1383 C1358 1.325 . S
H1384 C1326 0.929 . S
H1385 C1327 0.930 . S
H1386 C1328 0.930 . S
H1387 C1329 0.930 . S
H1388 C1331 0.930 . S
H1389 C1333 0.929 . S
H1390 C1334 0.930 . S
H1391 C1335 0.930 . S
H1392 C1338 0.930 . S
H1393 C1341 0.929 . S
H1394 C1346 0.929 . S
H1395 C1347 0.930 . S
H1396 C1354 0.929 . S
H1397 C1355 0.930 . S
H1398 C1356 0.930 . S
H1399 C1357 0.930 . S
H1400 C1359 0.929 . S
H1401 C1360 0.930 . S
H1402 C1361 0.930 . S
H1403 C1362 0.930 . S
H1404 C1366 0.929 . S
H1405 C1368 0.930 . S
H1406 C1374 0.929 . S
H1407 C1375 0.930 . S
H1408 C1414 0.930 . S
H1409 C1417 0.930 . S
H1410 C1418 0.930 . S
H1411 C1419 0.930 . S
H1412 C1422 0.930 . S
H1413 C1423 0.930 . S
C1414 H1408 0.930 . S
C1414 C1415 1.355 . S
C1414 C1416 1.415 . S
C1415 C1414 1.355 . S
C1415 C1417 1.419 . S
C1416 C1414 1.415 . S
C1416 C1421 1.425 . S
C1416 C1423 1.409 . S
C1417 H1409 0.930 . S
C1417 C1415 1.419 . S
C1417 C1418 1.362 . S
C1418 H1410 0.930 . S
C1418 C1417 1.362 . S
C1418 C1421 1.409 . S
C1419 H1411 0.930 . S
C1419 C1420 1.355 . S
C1419 C1421 1.415 . S
C1420 C1419 1.355 . S
C1420 C1422 1.419 . S
C1421 C1416 1.425 . S
C1421 C1418 1.409 . S
C1421 C1419 1.415 . S
C1422 H1412 0.930 . S
C1422 C1420 1.419 . S
C1422 C1423 1.362 . S
C1423 H1413 0.930 . S
C1423 C1416 1.409 . S
C1423 C1422 1.362 . S
H1424 C1430 0.930 . S
H1425 C1433 0.930 . S
H1426 C1434 0.930 . S
H1427 C1435 0.930 . S
H1428 C1438 0.930 . S
H1429 C1439 0.930 . S
C1430 H1424 0.930 . S
C1430 C1431 1.355 . S
C1430 C1432 1.415 . S
C1431 C1430 1.355 . S
C1431 C1433 1.419 . S
C1432 C1430 1.415 . S
C1432 C1437 1.425 . S
C1432 C1439 1.409 . S
C1433 H1425 0.930 . S
C1433 C1431 1.419 . S
C1433 C1434 1.362 . S
C1434 H1426 0.930 . S
C1434 C1433 1.362 . S
C1434 C1437 1.409 . S
C1435 H1427 0.930 . S
C1435 C1436 1.355 . S
C1435 C1437 1.415 . S
C1436 C1435 1.355 . S
C1436 C1438 1.419 . S
C1437 C1432 1.425 . S
C1437 C1434 1.409 . S
C1437 C1435 1.415 . S
C1438 H1428 0.930 . S
C1438 C1436 1.419 . S
C1438 C1439 1.362 . S
C1439 H1429 0.930 . S
C1439 C1432 1.409 . S
C1439 C1438 1.362 . S
H1440 C1446 0.930 . S
H1441 C1449 0.930 . S
H1442 C1450 0.930 . S
H1443 C1451 0.930 . S
H1444 C1454 0.930 . S
H1445 C1455 0.930 . S
C1446 H1440 0.930 . S
C1446 C1447 1.355 . S
C1446 C1448 1.415 . S
C1447 C1446 1.355 . S
C1447 C1449 1.419 . S
C1448 C1446 1.415 . S
C1448 C1453 1.425 . S
C1448 C1455 1.409 . S
C1449 H1441 0.930 . S
C1449 C1447 1.419 . S
C1449 C1450 1.362 . S
C1450 H1442 0.930 . S
C1450 C1449 1.362 . S
C1450 C1453 1.409 . S
C1451 H1443 0.930 . S
C1451 C1452 1.355 . S
C1451 C1453 1.415 . S
C1452 C1451 1.355 . S
C1452 C1454 1.419 . S
C1453 C1448 1.425 . S
C1453 C1450 1.409 . S
C1453 C1451 1.415 . S
C1454 H1444 0.930 . S
C1454 C1452 1.419 . S
C1454 C1455 1.362 . S
C1455 H1445 0.930 . S
C1455 C1448 1.409 . S
C1455 C1454 1.362 . S
H1456 C1462 0.930 . S
H1457 C1465 0.930 . S
H1458 C1466 0.930 . S
H1459 C1467 0.930 . S
H1460 C1470 0.930 . S
H1461 C1471 0.930 . S
C1462 H1456 0.930 . S
C1462 C1463 1.355 . S
C1462 C1464 1.415 . S
C1463 C1462 1.355 . S
C1463 C1465 1.419 . S
C1464 C1462 1.415 . S
C1464 C1469 1.425 . S
C1464 C1471 1.409 . S
C1465 H1457 0.930 . S
C1465 C1463 1.419 . S
C1465 C1466 1.362 . S
C1466 H1458 0.930 . S
C1466 C1465 1.362 . S
C1466 C1469 1.409 . S
C1467 H1459 0.930 . S
C1467 C1468 1.355 . S
C1467 C1469 1.415 . S
C1468 C1467 1.355 . S
C1468 C1470 1.419 . S
C1469 C1464 1.425 . S
C1469 C1466 1.409 . S
C1469 C1467 1.415 . S
C1470 H1460 0.930 . S
C1470 C1468 1.419 . S
C1470 C1471 1.362 . S
C1471 H1461 0.930 . S
C1471 C1464 1.409 . S
C1471 C1470 1.362 . S
H1472 C1478 0.930 . S
H1473 C1481 0.930 . S
H1474 C1482 0.930 . S
H1475 C1483 0.930 . S
H1476 C1486 0.930 . S
H1477 C1487 0.930 . S
C1478 H1472 0.930 . S
C1478 C1479 1.355 . S
C1478 C1480 1.415 . S
C1479 C1478 1.355 . S
C1479 C1481 1.419 . S
C1480 C1478 1.415 . S
C1480 C1485 1.425 . S
C1480 C1487 1.409 . S
C1481 H1473 0.930 . S
C1481 C1479 1.419 . S
C1481 C1482 1.362 . S
C1482 H1474 0.930 . S
C1482 C1481 1.362 . S
C1482 C1485 1.409 . S
C1483 H1475 0.930 . S
C1483 C1484 1.355 . S
C1483 C1485 1.415 . S
C1484 C1483 1.355 . S
C1484 C1486 1.419 . S
C1485 C1480 1.425 . S
C1485 C1482 1.409 . S
C1485 C1483 1.415 . S
C1486 H1476 0.930 . S
C1486 C1484 1.419 . S
C1486 C1487 1.362 . S
C1487 H1477 0.930 . S
C1487 C1480 1.409 . S
C1487 C1486 1.362 . S
H1488 C1494 0.930 . S
H1489 C1497 0.930 . S
H1490 C1498 0.930 . S
H1491 C1499 0.930 . S
H1492 C1502 0.930 . S
H1493 C1503 0.930 . S
C1494 H1488 0.930 . S
C1494 C1495 1.355 . S
C1494 C1496 1.415 . S
C1495 C1494 1.355 . S
C1495 C1497 1.419 . S
C1496 C1494 1.415 . S
C1496 C1501 1.425 . S
C1496 C1503 1.409 . S
C1497 H1489 0.930 . S
C1497 C1495 1.419 . S
C1497 C1498 1.362 . S
C1498 H1490 0.930 . S
C1498 C1497 1.362 . S
C1498 C1501 1.409 . S
C1499 H1491 0.930 . S
C1499 C1500 1.355 . S
C1499 C1501 1.415 . S
C1500 C1499 1.355 . S
C1500 C1502 1.419 . S
C1501 C1496 1.425 . S
C1501 C1498 1.409 . S
C1501 C1499 1.415 . S
C1502 H1492 0.930 . S
C1502 C1500 1.419 . S
C1502 C1503 1.362 . S
C1503 H1493 0.930 . S
C1503 C1496 1.409 . S
C1503 C1502 1.362 . S
H1504 C1510 0.930 . S
H1505 C1513 0.930 . S
H1506 C1514 0.930 . S
H1507 C1515 0.930 . S
H1508 C1518 0.930 . S
H1509 C1519 0.930 . S
C1510 H1504 0.930 . S
C1510 C1511 1.355 . S
C1510 C1512 1.415 . S
C1511 C1510 1.355 . S
C1511 C1513 1.419 . S
C1512 C1510 1.415 . S
C1512 C1517 1.425 . S
C1512 C1519 1.409 . S
C1513 H1505 0.930 . S
C1513 C1511 1.419 . S
C1513 C1514 1.362 . S
C1514 H1506 0.930 . S
C1514 C1513 1.362 . S
C1514 C1517 1.409 . S
C1515 H1507 0.930 . S
C1515 C1516 1.355 . S
C1515 C1517 1.415 . S
C1516 C1515 1.355 . S
C1516 C1518 1.419 . S
C1517 C1512 1.425 . S
C1517 C1514 1.409 . S
C1517 C1515 1.415 . S
C1518 H1508 0.930 . S
C1518 C1516 1.419 . S
C1518 C1519 1.362 . S
C1519 H1509 0.930 . S
C1519 C1512 1.409 . S
C1519 C1518 1.362 . S
H1520 C1526 0.930 . S
H1521 C1529 0.930 . S
H1522 C1530 0.930 . S
H1523 C1531 0.930 . S
H1524 C1534 0.930 . S
H1525 C1535 0.930 . S
C1526 H1520 0.930 . S
C1526 C1527 1.355 . S
C1526 C1528 1.415 . S
C1527 C1526 1.355 . S
C1527 C1529 1.419 . S
C1528 C1526 1.415 . S
C1528 C1533 1.425 . S
C1528 C1535 1.409 . S
C1529 H1521 0.930 . S
C1529 C1527 1.419 . S
C1529 C1530 1.362 . S
C1530 H1522 0.930 . S
C1530 C1529 1.362 . S
C1530 C1533 1.409 . S
C1531 H1523 0.930 . S
C1531 C1532 1.355 . S
C1531 C1533 1.415 . S
C1532 C1531 1.355 . S
C1532 C1534 1.419 . S
C1533 C1528 1.425 . S
C1533 C1530 1.409 . S
C1533 C1531 1.415 . S
C1534 H1524 0.930 . S
C1534 C1532 1.419 . S
C1534 C1535 1.362 . S
C1535 H1525 0.930 . S
C1535 C1528 1.409 . S
C1535 C1534 1.362 . S
H1536 C1542 0.930 . S
H1537 C1545 0.930 . S
H1538 C1546 0.930 . S
H1539 C1547 0.930 . S
H1540 C1550 0.930 . S
H1541 C1551 0.930 . S
C1542 H1536 0.930 . S
C1542 C1543 1.355 . S
C1542 C1544 1.415 . S
C1543 C1542 1.355 . S
C1543 C1545 1.419 . S
C1544 C1542 1.415 . S
C1544 C1549 1.425 . S
C1544 C1551 1.409 . S
C1545 H1537 0.930 . S
C1545 C1543 1.419 . S
C1545 C1546 1.362 . S
C1546 H1538 0.930 . S
C1546 C1545 1.362 . S
C1546 C1549 1.409 . S
C1547 H1539 0.930 . S
C1547 C1548 1.355 . S
C1547 C1549 1.415 . S
C1548 C1547 1.355 . S
C1548 C1550 1.419 . S
C1549 C1544 1.425 . S
C1549 C1546 1.409 . S
C1549 C1547 1.415 . S
C1550 H1540 0.930 . S
C1550 C1548 1.419 . S
C1550 C1551 1.362 . S
C1551 H1541 0.930 . S
C1551 C1544 1.409 . S
C1551 C1550 1.362 . S
H1552 C1558 0.930 . S
H1553 C1561 0.930 . S
H1554 C1562 0.930 . S
H1555 C1563 0.930 . S
H1556 C1566 0.930 . S
H1557 C1567 0.930 . S
C1558 H1552 0.930 . S
C1558 C1559 1.355 . S
C1558 C1560 1.415 . S
C1559 C1558 1.355 . S
C1559 C1561 1.419 . S
C1560 C1558 1.415 . S
C1560 C1565 1.425 . S
C1560 C1567 1.409 . S
C1561 H1553 0.930 . S
C1561 C1559 1.419 . S
C1561 C1562 1.362 . S
C1562 H1554 0.930 . S
C1562 C1561 1.362 . S
C1562 C1565 1.409 . S
C1563 H1555 0.930 . S
C1563 C1564 1.355 . S
C1563 C1565 1.415 . S
C1564 C1563 1.355 . S
C1564 C1566 1.419 . S
C1565 C1560 1.425 . S
C1565 C1562 1.409 . S
C1565 C1563 1.415 . S
C1566 H1556 0.930 . S
C1566 C1564 1.419 . S
C1566 C1567 1.362 . S
C1567 H1557 0.930 . S
C1567 C1560 1.409 . S
C1567 C1566 1.362 . S
H1568 C1574 0.930 . S
H1569 C1577 0.930 . S
H1570 C1578 0.930 . S
H1571 C1579 0.930 . S
H1572 C1582 0.930 . S
H1573 C1583 0.930 . S
C1574 H1568 0.930 . S
C1574 C1575 1.355 . S
C1574 C1576 1.415 . S
C1575 C1574 1.355 . S
C1575 C1577 1.419 . S
C1576 C1574 1.415 . S
C1576 C1581 1.425 . S
C1576 C1583 1.409 . S
C1577 H1569 0.930 . S
C1577 C1575 1.419 . S
C1577 C1578 1.362 . S
C1578 H1570 0.930 . S
C1578 C1577 1.362 . S
C1578 C1581 1.409 . S
C1579 H1571 0.930 . S
C1579 C1580 1.355 . S
C1579 C1581 1.415 . S
C1580 C1579 1.355 . S
C1580 C1582 1.419 . S
C1581 C1576 1.425 . S
C1581 C1578 1.409 . S
C1581 C1579 1.415 . S
C1582 H1572 0.930 . S
C1582 C1580 1.419 . S
C1582 C1583 1.362 . S
C1583 H1573 0.930 . S
C1583 C1576 1.409 . S
C1583 C1582 1.362 . S
H1584 C1590 0.930 . S
H1585 C1593 0.930 . S
H1586 C1594 0.930 . S
H1587 C1595 0.930 . S
H1588 C1598 0.930 . S
H1589 C1599 0.930 . S
C1590 H1584 0.930 . S
C1590 C1591 1.355 . S
C1590 C1592 1.415 . S
C1591 C1590 1.355 . S
C1591 C1593 1.419 . S
C1592 C1590 1.415 . S
C1592 C1597 1.425 1_554 S
C1592 C1599 1.409 1_554 S
C1593 H1585 0.930 . S
C1593 C1591 1.419 . S
C1593 C1594 1.362 . S
C1594 H1586 0.930 . S
C1594 C1593 1.362 . S
C1594 C1597 1.409 1_554 S
C1595 H1587 0.930 . S
C1595 C1596 1.355 . S
C1595 C1597 1.415 . S
C1596 C1595 1.355 . S
C1596 C1598 1.419 . S
C1597 C1592 1.425 1_556 S
C1597 C1594 1.409 1_556 S
C1597 C1595 1.415 . S
C1598 H1588 0.930 . S
C1598 C1596 1.419 . S
C1598 C1599 1.362 . S
C1599 H1589 0.930 . S
C1599 C1592 1.409 1_556 S
C1599 C1598 1.362 . S
H1600 C1606 0.930 . S
H1601 C1609 0.930 . S
H1602 C1610 0.930 . S
H1603 C1611 0.930 . S
H1604 C1614 0.930 . S
H1605 C1615 0.930 . S
C1606 H1600 0.930 . S
C1606 C1607 1.355 . S
C1606 C1608 1.415 . S
C1607 C1606 1.355 . S
C1607 C1609 1.419 . S
C1608 C1606 1.415 . S
C1608 C1613 1.425 1_554 S
C1608 C1615 1.409 1_554 S
C1609 H1601 0.930 . S
C1609 C1607 1.419 . S
C1609 C1610 1.362 . S
C1610 H1602 0.930 . S
C1610 C1609 1.362 . S
C1610 C1613 1.409 1_554 S
C1611 H1603 0.930 . S
C1611 C1612 1.355 . S
C1611 C1613 1.415 . S
C1612 C1611 1.355 . S
C1612 C1614 1.419 . S
C1613 C1608 1.425 1_556 S
C1613 C1610 1.409 1_556 S
C1613 C1611 1.415 . S
C1614 H1604 0.930 . S
C1614 C1612 1.419 . S
C1614 C1615 1.362 . S
C1615 H1605 0.930 . S
C1615 C1608 1.409 1_556 S
C1615 C1614 1.362 . S
H1616 C1622 0.930 . S
H1617 C1625 0.930 . S
H1618 C1626 0.930 . S
H1619 C1627 0.930 . S
H1620 C1630 0.930 . S
H1621 C1631 0.930 . S
C1622 H1616 0.930 . S
C1622 C1623 1.355 . S
C1622 C1624 1.415 . S
C1623 C1622 1.355 . S
C1623 C1625 1.419 . S
C1624 C1622 1.415 . S
C1624 C1629 1.425 . S
C1624 C1631 1.409 . S
C1625 H1617 0.930 . S
C1625 C1623 1.419 . S
C1625 C1626 1.362 . S
C1626 H1618 0.930 . S
C1626 C1625 1.362 . S
C1626 C1629 1.409 . S
C1627 H1619 0.930 . S
C1627 C1628 1.355 . S
C1627 C1629 1.415 . S
C1628 C1627 1.355 . S
C1628 C1630 1.419 . S
C1629 C1624 1.425 . S
C1629 C1626 1.409 . S
C1629 C1627 1.415 . S
C1630 H1620 0.930 . S
C1630 C1628 1.419 . S
C1630 C1631 1.362 . S
C1631 H1621 0.930 . S
C1631 C1624 1.409 . S
C1631 C1630 1.362 . S
H1632 C1638 0.930 . S
H1633 C1641 0.930 . S
H1634 C1642 0.930 . S
H1635 C1643 0.930 . S
H1636 C1646 0.930 . S
H1637 C1647 0.930 . S
C1638 H1632 0.930 . S
C1638 C1639 1.355 . S
C1638 C1640 1.415 . S
C1639 C1638 1.355 . S
C1639 C1641 1.419 . S
C1640 C1638 1.415 . S
C1640 C1645 1.425 . S
C1640 C1647 1.409 . S
C1641 H1633 0.930 . S
C1641 C1639 1.419 . S
C1641 C1642 1.362 . S
C1642 H1634 0.930 . S
C1642 C1641 1.362 . S
C1642 C1645 1.409 . S
C1643 H1635 0.930 . S
C1643 C1644 1.355 . S
C1643 C1645 1.415 . S
C1644 C1643 1.355 . S
C1644 C1646 1.419 . S
C1645 C1640 1.425 . S
C1645 C1642 1.409 . S
C1645 C1643 1.415 . S
C1646 H1636 0.930 . S
C1646 C1644 1.419 . S
C1646 C1647 1.362 . S
C1647 H1637 0.930 . S
C1647 C1640 1.409 . S
C1647 C1646 1.362 . S
H1648 C1654 0.930 . S
H1649 C1657 0.930 . S
H1650 C1658 0.930 . S
H1651 C1659 0.930 . S
H1652 C1662 0.930 . S
H1653 C1663 0.930 . S
C1654 H1648 0.930 . S
C1654 C1655 1.355 . S
C1654 C1656 1.415 . S
C1655 C1654 1.355 . S
C1655 C1657 1.419 . S
C1656 C1654 1.415 . S
C1656 C1661 1.425 . S
C1656 C1663 1.409 . S
C1657 H1649 0.930 . S
C1657 C1655 1.419 . S
C1657 C1658 1.362 . S
C1658 H1650 0.930 . S
C1658 C1657 1.362 . S
C1658 C1661 1.409 . S
C1659 H1651 0.930 . S
C1659 C1660 1.355 . S
C1659 C1661 1.415 . S
C1660 C1659 1.355 . S
C1660 C1662 1.419 . S
C1661 C1656 1.425 . S
C1661 C1658 1.409 . S
C1661 C1659 1.415 . S
C1662 H1652 0.930 . S
C1662 C1660 1.419 . S
C1662 C1663 1.362 . S
C1663 H1653 0.930 . S
C1663 C1656 1.409 . S
C1663 C1662 1.362 . S
H1664 C1670 0.930 . S
H1665 C1673 0.930 . S
H1666 C1674 0.930 1_655 S
H1667 C1675 0.930 . S
H1668 C1678 0.930 . S
H1669 C1679 0.930 1_455 S
C1670 H1664 0.930 . S
C1670 C1671 1.355 1_565 S
C1670 C1672 1.415 . S
C1671 C1670 1.355 1_545 S
C1671 C1673 1.419 . S
C1672 C1670 1.415 . S
C1672 C1677 1.425 1_465 S
C1672 C1679 1.409 1_455 S
C1673 H1665 0.930 . S
C1673 C1671 1.419 . S
C1673 C1674 1.362 . S
C1674 H1666 0.930 1_455 S
C1674 C1673 1.362 . S
C1674 C1677 1.409 1_455 S
C1675 H1667 0.930 . S
C1675 C1676 1.355 1_545 S
C1675 C1677 1.415 . S
C1676 C1675 1.355 1_565 S
C1676 C1678 1.419 . S
C1677 C1672 1.425 1_645 S
C1677 C1674 1.409 1_655 S
C1677 C1675 1.415 . S
C1678 H1668 0.930 . S
C1678 C1676 1.419 . S
C1678 C1679 1.362 . S
C1679 H1669 0.930 1_655 S
C1679 C1672 1.409 1_655 S
C1679 C1678 1.362 . S
H1680 C1686 0.930 . S
H1681 C1689 0.930 . S
H1682 C1690 0.930 . S
H1683 C1691 0.930 . S
H1684 C1694 0.930 . S
H1685 C1695 0.930 . S
C1686 H1680 0.930 . S
C1686 C1687 1.355 . S
C1686 C1688 1.415 . S
C1687 C1686 1.355 . S
C1687 C1689 1.419 . S
C1688 C1686 1.415 . S
C1688 C1693 1.425 1_455 S
C1688 C1695 1.409 . S
C1689 H1681 0.930 . S
C1689 C1687 1.419 . S
C1689 C1690 1.362 1_455 S
C1690 H1682 0.930 . S
C1690 C1689 1.362 1_655 S
C1690 C1693 1.409 . S
C1691 H1683 0.930 . S
C1691 C1692 1.355 . S
C1691 C1693 1.415 . S
C1692 C1691 1.355 . S
C1692 C1694 1.419 . S
C1693 C1688 1.425 1_655 S
C1693 C1690 1.409 . S
C1693 C1691 1.415 . S
C1694 H1684 0.930 . S
C1694 C1692 1.419 . S
C1694 C1695 1.362 1_655 S
C1695 H1685 0.930 . S
C1695 C1688 1.409 . S
C1695 C1694 1.362 1_455 S
H1696 C1702 0.930 . S
H1697 C1705 0.930 . S
H1698 C1706 0.930 . S
H1699 C1707 0.930 . S
H1700 C1710 0.930 . S
H1701 C1711 0.930 . S
C1702 H1696 0.930 . S
C1702 C1703 1.355 . S
C1702 C1704 1.415 . S
C1703 C1702 1.355 . S
C1703 C1705 1.419 . S
C1704 C1702 1.415 . S
C1704 C1709 1.425 . S
C1704 C1711 1.409 . S
C1705 H1697 0.930 . S
C1705 C1703 1.419 . S
C1705 C1706 1.362 . S
C1706 H1698 0.930 . S
C1706 C1705 1.362 . S
C1706 C1709 1.409 . S
C1707 H1699 0.930 . S
C1707 C1708 1.355 . S
C1707 C1709 1.415 . S
C1708 C1707 1.355 . S
C1708 C1710 1.419 . S
C1709 C1704 1.425 . S
C1709 C1706 1.409 . S
C1709 C1707 1.415 . S
C1710 H1700 0.930 . S
C1710 C1708 1.419 . S
C1710 C1711 1.362 . S
C1711 H1701 0.930 . S
C1711 C1704 1.409 . S
C1711 C1710 1.362 . S
H1712 C1718 0.930 . S
H1713 C1721 0.930 . S
H1714 C1722 0.930 . S
H1715 C1723 0.930 . S
H1716 C1726 0.930 . S
H1717 C1727 0.930 . S
C1718 H1712 0.930 . S
C1718 C1719 1.355 . S
C1718 C1720 1.415 . S
C1719 C1718 1.355 . S
C1719 C1721 1.419 . S
C1720 C1718 1.415 . S
C1720 C1725 1.425 1_545 S
C1720 C1727 1.409 1_545 S
C1721 H1713 0.930 . S
C1721 C1719 1.419 . S
C1721 C1722 1.362 . S
C1722 H1714 0.930 . S
C1722 C1721 1.362 . S
C1722 C1725 1.409 1_545 S
C1723 H1715 0.930 . S
C1723 C1724 1.355 . S
C1723 C1725 1.415 . S
C1724 C1723 1.355 . S
C1724 C1726 1.419 . S
C1725 C1720 1.425 1_565 S
C1725 C1722 1.409 1_565 S
C1725 C1723 1.415 . S
C1726 H1716 0.930 . S
C1726 C1724 1.419 . S
C1726 C1727 1.362 . S
C1727 H1717 0.930 . S
C1727 C1720 1.409 1_565 S
C1727 C1726 1.362 . S
H1728 C1734 0.930 . S
H1729 C1737 0.930 . S
H1730 C1738 0.930 . S
H1731 C1739 0.930 . S
H1732 C1742 0.930 . S
H1733 C1743 0.930 . S
C1734 H1728 0.930 . S
C1734 C1735 1.355 . S
C1734 C1736 1.415 . S
C1735 C1734 1.355 . S
C1735 C1737 1.419 . S
C1736 C1734 1.415 . S
C1736 C1741 1.425 1_455 S
C1736 C1743 1.409 1_455 S
C1737 H1729 0.930 . S
C1737 C1735 1.419 . S
C1737 C1738 1.362 . S
C1738 H1730 0.930 . S
C1738 C1737 1.362 . S
C1738 C1741 1.409 1_455 S
C1739 H1731 0.930 . S
C1739 C1740 1.355 . S
C1739 C1741 1.415 . S
C1740 C1739 1.355 . S
C1740 C1742 1.419 . S
C1741 C1736 1.425 1_655 S
C1741 C1738 1.409 1_655 S
C1741 C1739 1.415 . S
C1742 H1732 0.930 . S
C1742 C1740 1.419 . S
C1742 C1743 1.362 . S
C1743 H1733 0.930 . S
C1743 C1736 1.409 1_655 S
C1743 C1742 1.362 . S
H1744 C1750 0.930 . S
H1745 C1753 0.930 . S
H1746 C1754 0.930 . S
H1747 C1755 0.930 . S
H1748 C1758 0.930 . S
H1749 C1759 0.930 . S
C1750 H1744 0.930 . S
C1750 C1751 1.355 . S
C1750 C1752 1.415 . S
C1751 C1750 1.355 . S
C1751 C1753 1.419 . S
C1752 C1750 1.415 . S
C1752 C1757 1.425 . S
C1752 C1759 1.409 . S
C1753 H1745 0.930 . S
C1753 C1751 1.419 . S
C1753 C1754 1.362 . S
C1754 H1746 0.930 . S
C1754 C1753 1.362 . S
C1754 C1757 1.409 . S
C1755 H1747 0.930 . S
C1755 C1756 1.355 . S
C1755 C1757 1.415 . S
C1756 C1755 1.355 . S
C1756 C1758 1.419 . S
C1757 C1752 1.425 . S
C1757 C1754 1.409 . S
C1757 C1755 1.415 . S
C1758 H1748 0.930 . S
C1758 C1756 1.419 . S
C1758 C1759 1.362 . S
C1759 H1749 0.930 . S
C1759 C1752 1.409 . S
C1759 C1758 1.362 . S
H1760 C1766 0.930 . S
H1761 C1769 0.930 . S
H1762 C1770 0.930 . S
H1763 C1771 0.930 . S
H1764 C1774 0.930 . S
H1765 C1775 0.930 . S
C1766 H1760 0.930 . S
C1766 C1767 1.355 1_545 S
C1766 C1768 1.415 . S
C1767 C1766 1.355 1_565 S
C1767 C1769 1.419 . S
C1768 C1766 1.415 . S
C1768 C1773 1.425 1_545 S
C1768 C1775 1.409 . S
C1769 H1761 0.930 . S
C1769 C1767 1.419 . S
C1769 C1770 1.362 . S
C1770 H1762 0.930 . S
C1770 C1769 1.362 . S
C1770 C1773 1.409 . S
C1771 H1763 0.930 . S
C1771 C1772 1.355 1_565 S
C1771 C1773 1.415 . S
C1772 C1771 1.355 1_545 S
C1772 C1774 1.419 . S
C1773 C1768 1.425 1_565 S
C1773 C1770 1.409 . S
C1773 C1771 1.415 . S
C1774 H1764 0.930 . S
C1774 C1772 1.419 . S
C1774 C1775 1.362 . S
C1775 H1765 0.930 . S
C1775 C1768 1.409 . S
C1775 C1774 1.362 . S
H1776 C1782 0.930 . S
H1777 C1785 0.930 . S
H1778 C1786 0.930 . S
H1779 C1787 0.930 . S
H1780 C1790 0.930 . S
H1781 C1791 0.930 . S
C1782 H1776 0.930 . S
C1782 C1783 1.355 . S
C1782 C1784 1.415 . S
C1783 C1782 1.355 . S
C1783 C1785 1.419 1_455 S
C1784 C1782 1.415 . S
C1784 C1789 1.425 1_445 S
C1784 C1791 1.409 1_545 S
C1785 H1777 0.930 . S
C1785 C1783 1.419 1_655 S
C1785 C1786 1.362 . S
C1786 H1778 0.930 . S
C1786 C1785 1.362 . S
C1786 C1789 1.409 1_545 S
C1787 H1779 0.930 . S
C1787 C1788 1.355 . S
C1787 C1789 1.415 . S
C1788 C1787 1.355 . S
C1788 C1790 1.419 1_655 S
C1789 C1784 1.425 1_665 S
C1789 C1786 1.409 1_565 S
C1789 C1787 1.415 . S
C1790 H1780 0.930 . S
C1790 C1788 1.419 1_455 S
C1790 C1791 1.362 . S
C1791 H1781 0.930 . S
C1791 C1784 1.409 1_565 S
C1791 C1790 1.362 . S
H1792 C1798 0.930 . S
H1793 C1801 0.930 . S
H1794 C1802 0.930 . S
H1795 C1803 0.930 . S
H1796 C1806 0.930 . S
H1797 C1807 0.930 . S
C1798 H1792 0.930 . S
C1798 C1799 1.355 . S
C1798 C1800 1.415 . S
C1799 C1798 1.355 . S
C1799 C1801 1.419 1_565 S
C1800 C1798 1.415 . S
C1800 C1805 1.425 1_565 S
C1800 C1807 1.409 . S
C1801 H1793 0.930 . S
C1801 C1799 1.419 1_545 S
C1801 C1802 1.362 . S
C1802 H1794 0.930 . S
C1802 C1801 1.362 . S
C1802 C1805 1.409 . S
C1803 H1795 0.930 . S
C1803 C1804 1.355 . S
C1803 C1805 1.415 . S
C1804 C1803 1.355 . S
C1804 C1806 1.419 1_545 S
C1805 C1800 1.425 1_545 S
C1805 C1802 1.409 . S
C1805 C1803 1.415 . S
C1806 H1796 0.930 . S
C1806 C1804 1.419 1_565 S
C1806 C1807 1.362 . S
C1807 H1797 0.930 . S
C1807 C1800 1.409 . S
C1807 C1806 1.362 . S
H1808 C1814 0.930 . S
H1809 C1817 0.930 . S
H1810 C1818 0.937 . S
H1811 C1819 0.930 . S
H1812 C1822 0.930 . S
H1813 C1823 0.937 . S
C1814 H1808 0.930 . S
C1814 C1815 1.355 1_455 S
C1814 C1816 1.415 . S
C1815 C1814 1.355 1_655 S
C1815 C1817 1.419 . S
C1816 C1814 1.415 . S
C1816 C1821 1.425 1_465 S
C1816 C1823 1.409 1_565 S
C1817 H1809 0.930 . S
C1817 C1815 1.419 . S
C1817 C1818 1.362 . S
C1818 H1810 0.937 . S
C1818 C1817 1.362 . S
C1818 C1821 1.409 1_565 S
C1819 H1811 0.930 . S
C1819 C1820 1.355 1_655 S
C1819 C1821 1.415 . S
C1820 C1819 1.355 1_455 S
C1820 C1822 1.419 . S
C1821 C1816 1.425 1_645 S
C1821 C1818 1.409 1_545 S
C1821 C1819 1.415 . S
C1822 H1812 0.930 . S
C1822 C1820 1.419 . S
C1822 C1823 1.362 . S
C1823 H1813 0.937 . S
C1823 C1816 1.409 1_545 S
C1823 C1822 1.362 . S
H1824 C1830 0.930 . S
H1825 C1833 0.930 . S
H1826 C1834 0.930 . S
H1827 C1835 0.930 . S
H1828 C1838 0.930 . S
H1829 C1839 0.930 . S
C1830 H1824 0.930 . S
C1830 C1831 1.355 . S
C1830 C1832 1.415 . S
C1831 C1830 1.355 . S
C1831 C1833 1.419 . S
C1832 C1830 1.415 . S
C1832 C1837 1.425 1_455 S
C1832 C1839 1.409 1_455 S
C1833 H1825 0.930 . S
C1833 C1831 1.419 . S
C1833 C1834 1.362 . S
C1834 H1826 0.930 . S
C1834 C1833 1.362 . S
C1834 C1837 1.409 1_455 S
C1835 H1827 0.930 . S
C1835 C1836 1.355 . S
C1835 C1837 1.415 . S
C1836 C1835 1.355 . S
C1836 C1838 1.419 . S
C1837 C1832 1.425 1_655 S
C1837 C1834 1.409 1_655 S
C1837 C1835 1.415 . S
C1838 H1828 0.930 . S
C1838 C1836 1.419 . S
C1838 C1839 1.362 . S
C1839 H1829 0.930 . S
C1839 C1832 1.409 1_655 S
C1839 C1838 1.362 . S
H1840 C1846 0.930 . S
H1841 C1849 0.930 . S
H1842 C1850 0.930 . S
H1843 C1851 0.930 . S
H1844 C1854 0.930 . S
H1845 C1855 0.930 . S
C1846 H1840 0.930 . S
C1846 C1847 1.355 . S
C1846 C1848 1.415 . S
C1847 C1846 1.355 . S
C1847 C1849 1.419 . S
C1848 C1846 1.415 . S
C1848 C1853 1.425 . S
C1848 C1855 1.409 . S
C1849 H1841 0.930 . S
C1849 C1847 1.419 . S
C1849 C1850 1.362 . S
C1850 H1842 0.930 . S
C1850 C1849 1.362 . S
C1850 C1853 1.409 . S
C1851 H1843 0.930 . S
C1851 C1852 1.355 . S
C1851 C1853 1.415 . S
C1852 C1851 1.355 . S
C1852 C1854 1.419 . S
C1853 C1848 1.425 . S
C1853 C1850 1.409 . S
C1853 C1851 1.415 . S
C1854 H1844 0.930 . S
C1854 C1852 1.419 . S
C1854 C1855 1.362 . S
C1855 H1845 0.930 . S
C1855 C1848 1.409 . S
C1855 C1854 1.362 . S
H1856 C1862 0.930 . S
H1857 C1865 0.930 . S
H1858 C1866 0.930 . S
H1859 C1867 0.930 . S
H1860 C1870 0.930 . S
H1861 C1871 0.930 . S
C1862 H1856 0.930 . S
C1862 C1863 1.355 . S
C1862 C1864 1.415 . S
C1863 C1862 1.355 . S
C1863 C1865 1.419 . S
C1864 C1862 1.415 . S
C1864 C1869 1.425 . S
C1864 C1871 1.409 . S
C1865 H1857 0.930 . S
C1865 C1863 1.419 . S
C1865 C1866 1.362 . S
C1866 H1858 0.930 . S
C1866 C1865 1.362 . S
C1866 C1869 1.409 . S
C1867 H1859 0.930 . S
C1867 C1868 1.355 . S
C1867 C1869 1.415 . S
C1868 C1867 1.355 . S
C1868 C1870 1.419 . S
C1869 C1864 1.425 . S
C1869 C1866 1.409 . S
C1869 C1867 1.415 . S
C1870 H1860 0.930 . S
C1870 C1868 1.419 . S
C1870 C1871 1.362 . S
C1871 H1861 0.930 . S
C1871 C1864 1.409 . S
C1871 C1870 1.362 . S
H1872 C1878 0.930 . S
H1873 C1881 0.930 . S
H1874 C1882 0.930 . S
H1875 C1883 0.930 . S
H1876 C1886 0.930 . S
H1877 C1887 0.930 . S
C1878 H1872 0.930 . S
C1878 C1879 1.355 . S
C1878 C1880 1.415 . S
C1879 C1878 1.355 . S
C1879 C1881 1.419 . S
C1880 C1878 1.415 . S
C1880 C1885 1.425 1_545 S
C1880 C1887 1.409 1_545 S
C1881 H1873 0.930 . S
C1881 C1879 1.419 . S
C1881 C1882 1.362 . S
C1882 H1874 0.930 . S
C1882 C1881 1.362 . S
C1882 C1885 1.409 1_545 S
C1883 H1875 0.930 . S
C1883 C1884 1.355 . S
C1883 C1885 1.415 . S
C1884 C1883 1.355 . S
C1884 C1886 1.419 . S
C1885 C1880 1.425 1_565 S
C1885 C1882 1.409 1_565 S
C1885 C1883 1.415 . S
C1886 H1876 0.930 . S
C1886 C1884 1.419 . S
C1886 C1887 1.362 . S
C1887 H1877 0.930 . S
C1887 C1880 1.409 1_565 S
C1887 C1886 1.362 . S
H1888 C1894 0.930 . S
H1889 C1897 0.930 . S
H1890 C1898 0.930 1_455 S
H1891 C1899 0.930 . S
H1892 C1902 0.930 . S
H1893 C1903 0.930 1_655 S
C1894 H1888 0.930 . S
C1894 C1895 1.355 1_545 S
C1894 C1896 1.415 . S
C1895 C1894 1.355 1_565 S
C1895 C1897 1.419 . S
C1896 C1894 1.415 . S
C1896 C1901 1.425 1_645 S
C1896 C1903 1.409 1_655 S
C1897 H1889 0.930 . S
C1897 C1895 1.419 . S
C1897 C1898 1.362 . S
C1898 H1890 0.930 1_655 S
C1898 C1897 1.362 . S
C1898 C1901 1.409 1_655 S
C1899 H1891 0.930 . S
C1899 C1900 1.355 1_565 S
C1899 C1901 1.415 . S
C1900 C1899 1.355 1_545 S
C1900 C1902 1.419 . S
C1901 C1896 1.425 1_465 S
C1901 C1898 1.409 1_455 S
C1901 C1899 1.415 . S
C1902 H1892 0.930 . S
C1902 C1900 1.419 . S
C1902 C1903 1.362 . S
C1903 H1893 0.930 1_455 S
C1903 C1896 1.409 1_455 S
C1903 C1902 1.362 . S
H1904 C1910 0.930 . S
H1905 C1913 0.930 . S
H1906 C1914 0.935 . S
H1907 C1915 0.930 . S
H1908 C1918 0.930 . S
H1909 C1919 0.935 . S
C1910 H1904 0.930 . S
C1910 C1911 1.355 . S
C1910 C1912 1.415 . S
C1911 C1910 1.355 . S
C1911 C1913 1.419 . S
C1912 C1910 1.415 . S
C1912 C1917 1.425 1_655 S
C1912 C1919 1.411 . S
C1913 H1905 0.930 . S
C1913 C1911 1.419 . S
C1913 C1914 1.356 1_655 S
C1914 H1906 0.935 . S
C1914 C1913 1.356 1_455 S
C1914 C1917 1.411 . S
C1915 H1907 0.930 . S
C1915 C1916 1.355 . S
C1915 C1917 1.415 . S
C1916 C1915 1.355 . S
C1916 C1918 1.419 . S
C1917 C1912 1.425 1_455 S
C1917 C1914 1.411 . S
C1917 C1915 1.415 . S
C1918 H1908 0.930 . S
C1918 C1916 1.419 . S
C1918 C1919 1.356 1_455 S
C1919 H1909 0.935 . S
C1919 C1912 1.411 . S
C1919 C1918 1.356 1_655 S
C1415 C372 1.321 . S
C1420 C57 1.321 . S
C1431 C145 1.321 . S
C1436 C460 1.320 . S
C1447 C548 1.220 . S
C1452 C233 1.219 . S
C1463 C645 1.290 . S
C1468 C313 1.292 . S
C1479 C1085 1.320 . S
C1484 C753 1.319 . S
C1495 C841 1.310 . S
C1500 C1164 1.309 . S
C1511 C1252 1.294 . S
C1516 C929 1.296 . S
C1527 C1025 1.322 . S
C1532 C1340 1.321 . S
C1543 C29 1.241 . S
C1548 C1369 1.237 . S
C1559 C117 1.173 . S
C1564 C1113 1.216 . S
C1575 C205 1.214 . S
C1580 C1193 1.247 . S
C1591 C1281 1.231 . S
C1596 C284 1.245 . S
C1607 C401 1.204 . S
C1612 C812 1.245 . S
C1623 C489 1.169 . S
C1628 C900 1.203 . S
C1639 C997 1.241 . S
C1644 C577 1.238 . S
C1655 C724 1.205 . S
C1660 C673 1.170 . S
C1671 C49 1.536 . S
C1676 C937 1.535 . S
C1687 C1017 1.553 . S
C1692 C137 1.555 . S
C1703 C225 1.560 . S
C1708 C761 1.560 . S
C1719 C849 1.555 . S
C1724 C321 1.553 . S
C1735 C381 1.559 . S
C1740 C1261 1.560 . S
C1751 C469 1.556 . S
C1756 C1349 1.554 . S
C1767 C1076 1.540 . S
C1772 C557 1.542 . S
C1783 C1173 1.558 . S
C1788 C636 1.560 . S
C1799 C909 1.706 . S
C1804 C20 1.714 . S
C1815 C108 1.671 . S
C1820 C988 1.682 . S
C1831 C196 1.716 . S
C1836 C733 1.712 . S
C1847 C821 1.707 . S
C1852 C293 1.715 . S
C1863 C1289 1.714 . S
C1868 C409 1.715 . S
C1879 C1377 1.671 . S
C1884 C497 1.665 . S
C1895 C1105 1.664 . S
C1900 C585 1.666 . S
C1911 C665 1.691 . S
C1916 C1201 1.678 . S
