# Generated by pormake.
# Topology wip, (6)-cn, num edge types: 1
# Building blocks:
#     Node 0, Type 0, BuildingBlock: HISSIN_clean_sbu_0, # of connection points: 6
#     Node 1, Type 0, BuildingBlock: HISSIN_clean_sbu_0, # of connection points: 6
#     Node 2, Type 0, BuildingBlock: HISSIN_clean_sbu_0, # of connection points: 6
#     Node 3, Type 0, BuildingBlock: HISSIN_clean_sbu_0, # of connection points: 6
#     Node 4, Type 0, BuildingBlock: HISSIN_clean_sbu_0, # of connection points: 6
#     Node 5, Type 0, BuildingBlock: HISSIN_clean_sbu_0, # of connection points: 6
#     Node 6, Type 0, BuildingBlock: HISSIN_clean_sbu_0, # of connection points: 6
#     Node 7, Type 0, BuildingBlock: HISSIN_clean_sbu_0, # of connection points: 6
#     Node 8, Type 0, BuildingBlock: HISSIN_clean_sbu_0, # of connection points: 6
#     Node 9, Type 0, BuildingBlock: HISSIN_clean_sbu_0, # of connection points: 6
#     Node 10, Type 0, BuildingBlock: HISSIN_clean_sbu_0, # of connection points: 6
#     Node 11, Type 0, BuildingBlock: HISSIN_clean_sbu_0, # of connection points: 6
#     Node 12, Type 0, BuildingBlock: HISSIN_clean_sbu_0, # of connection points: 6
#     Node 13, Type 0, BuildingBlock: HISSIN_clean_sbu_0, # of connection points: 6
#     Node 14, Type 0, BuildingBlock: HISSIN_clean_sbu_0, # of connection points: 6
#     Node 15, Type 0, BuildingBlock: HISSIN_clean_sbu_0, # of connection points: 6
#     Node 16, Type 0, BuildingBlock: HISSIN_clean_sbu_0, # of connection points: 6
#     Node 17, Type 0, BuildingBlock: HISSIN_clean_sbu_0, # of connection points: 6
#     Node 18, Type 0, BuildingBlock: HISSIN_clean_sbu_0, # of connection points: 6
#     Node 19, Type 0, BuildingBlock: HISSIN_clean_sbu_0, # of connection points: 6
#     Node 20, Type 0, BuildingBlock: HISSIN_clean_sbu_0, # of connection points: 6
#     Node 21, Type 0, BuildingBlock: HISSIN_clean_sbu_0, # of connection points: 6
#     Node 22, Type 0, BuildingBlock: HISSIN_clean_sbu_0, # of connection points: 6
#     Node 23, Type 0, BuildingBlock: HISSIN_clean_sbu_0, # of connection points: 6
#     Node 24, Type 0, BuildingBlock: HISSIN_clean_sbu_0, # of connection points: 6
#     Node 25, Type 0, BuildingBlock: HISSIN_clean_sbu_0, # of connection points: 6
#     Node 26, Type 0, BuildingBlock: HISSIN_clean_sbu_0, # of connection points: 6
#     Node 27, Type 0, BuildingBlock: HISSIN_clean_sbu_0, # of connection points: 6
#     Node 28, Type 0, BuildingBlock: HISSIN_clean_sbu_0, # of connection points: 6
#     Node 29, Type 0, BuildingBlock: HISSIN_clean_sbu_0, # of connection points: 6
#     Node 30, Type 0, BuildingBlock: HISSIN_clean_sbu_0, # of connection points: 6
#     Node 31, Type 0, BuildingBlock: HISSIN_clean_sbu_0, # of connection points: 6
#     Edge 32, Type (0, 0), BuildingBlock: CIFDUS_clean_linker_0, # of connection points: 2
#     Edge 33, Type (0, 0), BuildingBlock: CIFDUS_clean_linker_0, # of connection points: 2
#     Edge 34, Type (0, 0), BuildingBlock: CIFDUS_clean_linker_0, # of connection points: 2
#     Edge 35, Type (0, 0), BuildingBlock: CIFDUS_clean_linker_0, # of connection points: 2
#     Edge 36, Type (0, 0), BuildingBlock: CIFDUS_clean_linker_0, # of connection points: 2
#     Edge 37, Type (0, 0), BuildingBlock: CIFDUS_clean_linker_0, # of connection points: 2
#     Edge 38, Type (0, 0), BuildingBlock: CIFDUS_clean_linker_0, # of connection points: 2
#     Edge 39, Type (0, 0), BuildingBlock: CIFDUS_clean_linker_0, # of connection points: 2
#     Edge 40, Type (0, 0), BuildingBlock: CIFDUS_clean_linker_0, # of connection points: 2
#     Edge 41, Type (0, 0), BuildingBlock: CIFDUS_clean_linker_0, # of connection points: 2
#     Edge 42, Type (0, 0), BuildingBlock: CIFDUS_clean_linker_0, # of connection points: 2
#     Edge 43, Type (0, 0), BuildingBlock: CIFDUS_clean_linker_0, # of connection points: 2
#     Edge 44, Type (0, 0), BuildingBlock: CIFDUS_clean_linker_0, # of connection points: 2
#     Edge 45, Type (0, 0), BuildingBlock: CIFDUS_clean_linker_0, # of connection points: 2
#     Edge 46, Type (0, 0), BuildingBlock: CIFDUS_clean_linker_0, # of connection points: 2
#     Edge 47, Type (0, 0), BuildingBlock: CIFDUS_clean_linker_0, # of connection points: 2
#     Edge 48, Type (0, 0), BuildingBlock: CIFDUS_clean_linker_0, # of connection points: 2
#     Edge 49, Type (0, 0), BuildingBlock: CIFDUS_clean_linker_0, # of connection points: 2
#     Edge 50, Type (0, 0), BuildingBlock: CIFDUS_clean_linker_0, # of connection points: 2
#     Edge 51, Type (0, 0), BuildingBlock: CIFDUS_clean_linker_0, # of connection points: 2
#     Edge 52, Type (0, 0), BuildingBlock: CIFDUS_clean_linker_0, # of connection points: 2
#     Edge 53, Type (0, 0), BuildingBlock: CIFDUS_clean_linker_0, # of connection points: 2
#     Edge 54, Type (0, 0), BuildingBlock: CIFDUS_clean_linker_0, # of connection points: 2
#     Edge 55, Type (0, 0), BuildingBlock: CIFDUS_clean_linker_0, # of connection points: 2
#     Edge 56, Type (0, 0), BuildingBlock: CIFDUS_clean_linker_0, # of connection points: 2
#     Edge 57, Type (0, 0), BuildingBlock: CIFDUS_clean_linker_0, # of connection points: 2
#     Edge 58, Type (0, 0), BuildingBlock: CIFDUS_clean_linker_0, # of connection points: 2
#     Edge 59, Type (0, 0), BuildingBlock: CIFDUS_clean_linker_0, # of connection points: 2
#     Edge 60, Type (0, 0), BuildingBlock: CIFDUS_clean_linker_0, # of connection points: 2
#     Edge 61, Type (0, 0), BuildingBlock: CIFDUS_clean_linker_0, # of connection points: 2
#     Edge 62, Type (0, 0), BuildingBlock: CIFDUS_clean_linker_0, # of connection points: 2
#     Edge 63, Type (0, 0), BuildingBlock: CIFDUS_clean_linker_0, # of connection points: 2
#     Edge 64, Type (0, 0), BuildingBlock: CIFDUS_clean_linker_0, # of connection points: 2
#     Edge 65, Type (0, 0), BuildingBlock: CIFDUS_clean_linker_0, # of connection points: 2
#     Edge 66, Type (0, 0), BuildingBlock: CIFDUS_clean_linker_0, # of connection points: 2
#     Edge 67, Type (0, 0), BuildingBlock: CIFDUS_clean_linker_0, # of connection points: 2
#     Edge 68, Type (0, 0), BuildingBlock: CIFDUS_clean_linker_0, # of connection points: 2
#     Edge 69, Type (0, 0), BuildingBlock: CIFDUS_clean_linker_0, # of connection points: 2
#     Edge 70, Type (0, 0), BuildingBlock: CIFDUS_clean_linker_0, # of connection points: 2
#     Edge 71, Type (0, 0), BuildingBlock: CIFDUS_clean_linker_0, # of connection points: 2
#     Edge 72, Type (0, 0), BuildingBlock: CIFDUS_clean_linker_0, # of connection points: 2
#     Edge 73, Type (0, 0), BuildingBlock: CIFDUS_clean_linker_0, # of connection points: 2
#     Edge 74, Type (0, 0), BuildingBlock: CIFDUS_clean_linker_0, # of connection points: 2
#     Edge 75, Type (0, 0), BuildingBlock: CIFDUS_clean_linker_0, # of connection points: 2
#     Edge 76, Type (0, 0), BuildingBlock: CIFDUS_clean_linker_0, # of connection points: 2
#     Edge 77, Type (0, 0), BuildingBlock: CIFDUS_clean_linker_0, # of connection points: 2
#     Edge 78, Type (0, 0), BuildingBlock: CIFDUS_clean_linker_0, # of connection points: 2
#     Edge 79, Type (0, 0), BuildingBlock: CIFDUS_clean_linker_0, # of connection points: 2
#     Edge 80, Type (0, 0), BuildingBlock: CIFDUS_clean_linker_0, # of connection points: 2
#     Edge 81, Type (0, 0), BuildingBlock: CIFDUS_clean_linker_0, # of connection points: 2
#     Edge 82, Type (0, 0), BuildingBlock: CIFDUS_clean_linker_0, # of connection points: 2
#     Edge 83, Type (0, 0), BuildingBlock: CIFDUS_clean_linker_0, # of connection points: 2
#     Edge 84, Type (0, 0), BuildingBlock: CIFDUS_clean_linker_0, # of connection points: 2
#     Edge 85, Type (0, 0), BuildingBlock: CIFDUS_clean_linker_0, # of connection points: 2
#     Edge 86, Type (0, 0), BuildingBlock: CIFDUS_clean_linker_0, # of connection points: 2
#     Edge 87, Type (0, 0), BuildingBlock: CIFDUS_clean_linker_0, # of connection points: 2
#     Edge 88, Type (0, 0), BuildingBlock: CIFDUS_clean_linker_0, # of connection points: 2
#     Edge 89, Type (0, 0), BuildingBlock: CIFDUS_clean_linker_0, # of connection points: 2
#     Edge 90, Type (0, 0), BuildingBlock: CIFDUS_clean_linker_0, # of connection points: 2
#     Edge 91, Type (0, 0), BuildingBlock: CIFDUS_clean_linker_0, # of connection points: 2
#     Edge 92, Type (0, 0), BuildingBlock: CIFDUS_clean_linker_0, # of connection points: 2
#     Edge 93, Type (0, 0), BuildingBlock: CIFDUS_clean_linker_0, # of connection points: 2
#     Edge 94, Type (0, 0), BuildingBlock: CIFDUS_clean_linker_0, # of connection points: 2
#     Edge 95, Type (0, 0), BuildingBlock: CIFDUS_clean_linker_0, # of connection points: 2
#     Edge 96, Type (0, 0), BuildingBlock: CIFDUS_clean_linker_0, # of connection points: 2
#     Edge 97, Type (0, 0), BuildingBlock: CIFDUS_clean_linker_0, # of connection points: 2
#     Edge 98, Type (0, 0), BuildingBlock: CIFDUS_clean_linker_0, # of connection points: 2
#     Edge 99, Type (0, 0), BuildingBlock: CIFDUS_clean_linker_0, # of connection points: 2
#     Edge 100, Type (0, 0), BuildingBlock: CIFDUS_clean_linker_0, # of connection points: 2
#     Edge 101, Type (0, 0), BuildingBlock: CIFDUS_clean_linker_0, # of connection points: 2
#     Edge 102, Type (0, 0), BuildingBlock: CIFDUS_clean_linker_0, # of connection points: 2
#     Edge 103, Type (0, 0), BuildingBlock: CIFDUS_clean_linker_0, # of connection points: 2
#     Edge 104, Type (0, 0), BuildingBlock: CIFDUS_clean_linker_0, # of connection points: 2
#     Edge 105, Type (0, 0), BuildingBlock: CIFDUS_clean_linker_0, # of connection points: 2
#     Edge 106, Type (0, 0), BuildingBlock: CIFDUS_clean_linker_0, # of connection points: 2
#     Edge 107, Type (0, 0), BuildingBlock: CIFDUS_clean_linker_0, # of connection points: 2
#     Edge 108, Type (0, 0), BuildingBlock: CIFDUS_clean_linker_0, # of connection points: 2
#     Edge 109, Type (0, 0), BuildingBlock: CIFDUS_clean_linker_0, # of connection points: 2
#     Edge 110, Type (0, 0), BuildingBlock: CIFDUS_clean_linker_0, # of connection points: 2
#     Edge 111, Type (0, 0), BuildingBlock: CIFDUS_clean_linker_0, # of connection points: 2
#     Edge 112, Type (0, 0), BuildingBlock: CIFDUS_clean_linker_0, # of connection points: 2
#     Edge 113, Type (0, 0), BuildingBlock: CIFDUS_clean_linker_0, # of connection points: 2
#     Edge 114, Type (0, 0), BuildingBlock: CIFDUS_clean_linker_0, # of connection points: 2
#     Edge 115, Type (0, 0), BuildingBlock: CIFDUS_clean_linker_0, # of connection points: 2
#     Edge 116, Type (0, 0), BuildingBlock: CIFDUS_clean_linker_0, # of connection points: 2
#     Edge 117, Type (0, 0), BuildingBlock: CIFDUS_clean_linker_0, # of connection points: 2
#     Edge 118, Type (0, 0), BuildingBlock: CIFDUS_clean_linker_0, # of connection points: 2
#     Edge 119, Type (0, 0), BuildingBlock: CIFDUS_clean_linker_0, # of connection points: 2
#     Edge 120, Type (0, 0), BuildingBlock: CIFDUS_clean_linker_0, # of connection points: 2
#     Edge 121, Type (0, 0), BuildingBlock: CIFDUS_clean_linker_0, # of connection points: 2
#     Edge 122, Type (0, 0), BuildingBlock: CIFDUS_clean_linker_0, # of connection points: 2
#     Edge 123, Type (0, 0), BuildingBlock: CIFDUS_clean_linker_0, # of connection points: 2
#     Edge 124, Type (0, 0), BuildingBlock: CIFDUS_clean_linker_0, # of connection points: 2
#     Edge 125, Type (0, 0), BuildingBlock: CIFDUS_clean_linker_0, # of connection points: 2
#     Edge 126, Type (0, 0), BuildingBlock: CIFDUS_clean_linker_0, # of connection points: 2
#     Edge 127, Type (0, 0), BuildingBlock: CIFDUS_clean_linker_0, # of connection points: 2
# Relax obj value: 0.532
# Max RMSD: 0.217
# Mean RMSD: 0.217
data_MOF--net-wip--node1-HISSIN_clean_sbu_0--edge1-CIFDUS_clean_linker_0
_symmetry_space_group_name_H-M    P1
_symmetry_Int_Tables_number       1
_symmetry_cell_setting            triclinic
loop_
_symmetry_equiv_pos_as_xyz
'x, y, z'
_cell_length_a     57.068961
_cell_length_b     57.107843
_cell_length_c     29.68794
_cell_angle_alpha  89.984386
_cell_angle_beta   89.983993
_cell_angle_gamma 90.166426
loop_
_atom_site_label
_atom_site_type_symbol
_atom_site_fract_x
_atom_site_fract_y
_atom_site_fract_z
_atom_type_partial_charge
Eu0 Eu 0.07129 0.43432 0.14939 0.0
Eu1 Eu 0.10717 0.47148 0.19876 0.0
C2 C 0.05732 0.48765 0.16621 0.0
C3 C 0.03038 0.41419 0.05527 0.0
C4 C 0.0085 0.40404 1.04564 0.0
C5 C 0.0289 0.43407 0.98239 0.0
C6 C 0.99689 0.40885 1.00492 0.0
C7 C 0.04044 0.42934 1.02325 0.0
C8 C 0.00686 0.42398 0.97259 0.0
C9 C 0.04147 0.41039 0.10009 0.0
O10 O 0.08333 0.46032 0.2574 0.0
O11 O 0.05423 0.4411 0.21709 0.0
C12 C 0.06252 0.44994 0.25504 0.0
O13 O 0.08878 0.412 0.205 0.0
O14 O 0.11905 0.50075 0.23997 0.0
O15 O 0.14362 0.4828 0.19616 0.0
O16 O 0.12002 0.43601 0.22169 0.0
C17 C 0.10767 0.41693 0.22936 0.0
O18 O 0.09915 0.44421 0.09774 0.0
O19 O 0.10549 0.48085 0.12365 0.0
O20 O 0.07348 0.49062 0.1969 0.0
O21 O 0.06398 0.40602 0.10127 0.0
O22 O 0.03533 0.42519 0.13128 0.0
O23 O 0.05912 0.4712 0.13557 0.0
C24 C 0.15799 0.49731 0.26462 0.0
C25 C 0.17514 0.51474 0.26912 0.0
C26 C 0.17165 0.4791 0.33337 0.0
C27 C 0.19017 0.51469 0.30633 0.0
C28 C 0.15677 0.47914 0.29616 0.0
C29 C 0.18812 0.49724 0.33962 0.0
C30 C 0.14094 0.49841 0.22787 0.0
C31 C 0.1046 0.4662 0.08961 0.0
H32 H 0.00022 0.39252 0.06993 0.0
H33 H 0.03708 0.44605 0.95883 0.0
H34 H 0.98015 0.4005 0.9986 0.0
H35 H 0.05708 0.43779 1.03011 0.0
H36 H 0.17645 0.52874 0.2446 0.0
H37 H 0.1692 0.46558 0.35853 0.0
H38 H 0.20281 0.52875 0.30986 0.0
H39 H 0.14372 0.46547 0.29282 0.0
Eu40 Eu 0.80615 0.82226 0.40182 0.0
Eu41 Eu 0.76793 0.85827 0.44796 0.0
C42 C 0.75331 0.80771 0.41836 0.0
C43 C 0.82424 0.77775 0.31278 0.0
C44 C 0.80101 0.77286 0.29981 0.0
C45 C 0.83774 0.75464 0.24855 0.0
C46 C 0.7962 0.7587 0.26223 0.0
C47 C 0.84254 0.76866 0.28648 0.0
C48 C 0.81448 0.74917 0.23616 0.0
C49 C 0.82932 0.79091 0.35512 0.0
O50 O 0.77911 0.83619 0.50829 0.0
O51 O 0.80048 0.80731 0.47191 0.0
C52 C 0.79085 0.81617 0.50865 0.0
O53 O 0.82838 0.84157 0.45533 0.0
O54 O 0.73756 0.87006 0.48624 0.0
O55 O 0.75647 0.8945 0.4434 0.0
O56 O 0.80307 0.87169 0.47262 0.0
C57 C 0.82272 0.8602 0.4798 0.0
O58 O 0.79726 0.84981 0.34896 0.0
O59 O 0.76013 0.85597 0.37263 0.0
O60 O 0.74982 0.82374 0.44901 0.0
O61 O 0.83342 0.81343 0.35207 0.0
O62 O 0.81568 0.78599 0.3891 0.0
O63 O 0.76911 0.81089 0.38701 0.0
C64 C 0.73999 0.90925 0.50975 0.0
C65 C 0.75896 0.91068 0.53949 0.0
C66 C 0.71967 0.93907 0.55264 0.0
C67 C 0.75801 0.92566 0.57648 0.0
C68 C 0.72064 0.92396 0.51565 0.0
C69 C 0.73802 0.93951 0.58432 0.0
C70 C 0.74003 0.89185 0.47361 0.0
C71 C 0.77541 0.85528 0.33965 0.0
H72 H 0.78651 0.7797 0.31923 0.0
H73 H 0.85231 0.74755 0.22964 0.0
H74 H 0.77809 0.75526 0.25353 0.0
H75 H 0.86059 0.77203 0.29575 0.0
H76 H 0.7741 0.89954 0.53504 0.0
H77 H 0.70418 0.94969 0.55743 0.0
H78 H 0.77233 0.9252 0.60039 0.0
H79 H 0.70598 0.92321 0.49251 0.0
Eu80 Eu 0.42462 0.5695 0.64052 0.0
Eu81 Eu 0.3886 0.53129 0.68782 0.0
C82 C 0.4406 0.51758 0.66322 0.0
C83 C 0.46585 0.59135 0.54739 0.0
C84 C 0.49003 0.59573 0.54316 0.0
C85 C 0.46537 0.57953 0.4681 0.0
C86 C 0.50176 0.59208 0.50203 0.0
C87 C 0.45369 0.58305 0.50934 0.0
C88 C 0.48963 0.58399 0.46368 0.0
C89 C 0.45411 0.59436 0.59213 0.0
O90 O 0.41054 0.54377 0.74796 0.0
O91 O 0.43935 0.56556 0.71165 0.0
C92 C 0.43046 0.55591 0.74855 0.0
O93 O 0.40519 0.59087 0.69527 0.0
O94 O 0.37836 0.50077 0.72717 0.0
O95 O 0.35237 0.51901 0.68694 0.0
O96 O 0.37342 0.56673 0.70426 0.0
C97 C 0.38544 0.58536 0.71645 0.0
O98 O 0.39906 0.55688 0.58621 0.0
O99 O 0.39271 0.52058 0.6142 0.0
O100 O 0.42322 0.51432 0.69115 0.0
O101 O 0.43147 0.59822 0.59301 0.0
O102 O 0.4605 0.57971 0.62347 0.0
O103 O 0.43972 0.53347 0.63145 0.0
C104 C 0.33961 0.50028 0.75427 0.0
C105 C 0.32412 0.51833 0.76622 0.0
C106 C 0.32679 0.47796 0.81915 0.0
C107 C 0.31036 0.51633 0.80506 0.0
C108 C 0.34019 0.47982 0.78015 0.0
C109 C 0.31217 0.49645 0.83297 0.0
C110 C 0.35624 0.50258 0.71667 0.0
C111 C 0.39436 0.53456 0.57931 0.0
H112 H 0.49995 0.60195 0.5719 0.0
H113 H 0.45539 0.57296 0.43975 0.0
H114 H 0.52031 0.59598 0.50015 0.0
H115 H 0.43515 0.57911 0.5115 0.0
H116 H 0.32319 0.53426 0.74651 0.0
H117 H 0.32918 0.46253 0.83982 0.0
H118 H 0.29904 0.53076 0.81412 0.0
H119 H 0.35192 0.46565 0.77133 0.0
Eu120 Eu 0.68611 0.16976 0.89717 0.0
Eu121 Eu 0.72532 0.13697 0.94702 0.0
C122 C 0.73769 0.18812 0.91754 0.0
C123 C 0.66893 0.21409 0.80741 0.0
C124 C 0.68275 0.23446 0.81229 0.0
C125 C 0.66752 0.22181 0.72631 0.0
C126 C 0.68891 0.24817 0.77493 0.0
C127 C 0.66134 0.20801 0.76385 0.0
C128 C 0.68146 0.24211 0.73127 0.0
C129 C 0.6626 0.19954 0.84771 0.0
O130 O 0.71235 0.15925 1.00619 0.0
O131 O 0.68824 0.18496 0.96741 0.0
C132 C 0.69841 0.17778 1.00486 0.0
O133 O 0.66402 0.15012 0.95052 0.0
O134 O 0.75594 0.12753 0.98679 0.0
O135 O 0.73806 0.10102 0.94714 0.0
O136 O 0.69042 0.12117 0.9675 0.0
C137 C 0.67037 0.13181 0.97521 0.0
O138 O 0.69744 0.14196 0.84661 0.0
O139 O 0.7346 0.13897 0.87201 0.0
O140 O 0.74145 0.17227 0.94836 0.0
O141 O 0.66067 0.17681 0.84287 0.0
O142 O 0.67325 0.20498 0.8851 0.0
O143 O 0.72225 0.18461 0.88561 0.0
C144 C 0.75187 0.0899 1.01796 0.0
C145 C 0.7625 0.06777 1.01817 0.0
C146 C 0.73611 0.08245 0.0922 0.0
C147 C 0.76001 0.05302 0.0556 0.0
C148 C 0.73849 0.09703 1.05502 0.0
C149 C 0.74664 0.06026 0.09278 0.0
C150 C 0.75357 0.10518 0.97847 0.0
C151 C 0.71974 0.13805 0.8383 0.0
H152 H 0.68888 0.23996 0.84515 0.0
H153 H 0.6616 0.21636 0.69329 0.0
H154 H 0.69928 0.26381 0.78052 0.0
H155 H 0.65068 0.19252 0.75873 0.0
H156 H 0.77272 0.06196 0.98954 0.0
H157 H 0.72671 0.0889 0.12132 0.0
H158 H 0.76859 0.03613 0.05572 0.0
H159 H 0.73005 0.114 0.05542 0.0
Eu160 Eu 0.06933 0.56256 0.78244 0.0
Eu161 Eu 0.10961 0.52832 0.73816 0.0
C162 C 0.06012 0.5086 0.76593 0.0
C163 C 0.02394 0.57903 0.87126 0.0
C164 C 0.02494 0.55668 0.89113 0.0
C165 C 0.9959 0.59062 0.92938 0.0
C166 C 0.01136 0.55127 0.92932 0.0
C167 C 0.00942 0.59597 0.89104 0.0
C168 C 0.9964 0.56808 0.94889 0.0
C169 C 0.03636 0.58403 0.82806 0.0
O170 O 0.08821 0.54035 0.67699 0.0
O171 O 0.055 0.5542 0.71288 0.0
C172 C 0.06624 0.54792 0.67589 0.0
O173 O 0.08693 0.58493 0.72639 0.0
O174 O 0.12473 0.50153 0.69487 0.0
O175 O 0.14709 0.52098 0.74054 0.0
O176 O 0.12119 0.56609 0.73488 0.0
C177 C 0.10886 0.58192 0.71348 0.0
O178 O 0.09634 0.55376 0.83713 0.0
O179 O 0.10692 0.51771 0.81218 0.0
O180 O 0.07681 0.50702 0.73587 0.0
O181 O 0.05851 0.5901 0.82996 0.0
O182 O 0.0324 0.56904 0.7958 0.0
O183 O 0.06076 0.52484 0.79698 0.0
C184 C 0.1617 0.51305 0.6686 0.0
C185 C 0.15461 0.53028 0.63797 0.0
C186 C 0.19675 0.50649 0.62421 0.0
C187 C 0.16798 0.53495 0.59981 0.0
C188 C 0.18319 0.50171 0.66245 0.0
C189 C 0.18885 0.52258 0.59162 0.0
C190 C 0.14622 0.50683 0.70612 0.0
C191 C 0.10355 0.53225 0.84589 0.0
H192 H 0.03593 0.54322 0.87659 0.0
H193 H 0.98451 0.60401 0.94293 0.0
H194 H 0.0126 0.53385 0.9435 0.0
H195 H 0.00812 0.61326 0.87621 0.0
H196 H 0.13816 0.53942 0.6426 0.0
H197 H 0.21292 0.49696 0.6193 0.0
H198 H 0.16108 0.54723 0.57541 0.0
H199 H 0.1891 0.48869 0.6864 0.0
Eu200 Eu 0.68165 0.81941 1.03151 0.0
Eu201 Eu 0.71571 0.86008 0.988 0.0
C202 C 0.73546 0.81056 1.01431 0.0
C203 C 0.66506 0.77501 0.12239 0.0
C204 C 0.68642 0.76343 0.13094 0.0
C205 C 0.65204 0.76369 0.19784 0.0
C206 C 0.69045 0.75205 0.1722 0.0
C207 C 0.64795 0.77494 0.15643 0.0
C208 C 0.67335 0.75201 0.2064 0.0
C209 C 0.6604 0.7867 0.07811 0.0
O210 O 0.70375 0.8391 0.92658 0.0
O211 O 0.68971 0.80555 0.96133 0.0
C212 C 0.69619 0.81714 0.92477 0.0
O213 O 0.65904 0.83679 0.97616 0.0
O214 O 0.74311 0.87534 0.94604 0.0
O215 O 0.72246 0.8977 0.98953 0.0
O216 O 0.67783 0.8713 0.98433 0.0
C217 C 0.66183 0.85878 0.96354 0.0
O218 O 0.68986 0.84682 0.0857 0.0
O219 O 0.72616 0.85734 0.06178 0.0
O220 O 0.73688 0.82733 0.9844 0.0
O221 O 0.65375 0.80866 0.07855 0.0
O222 O 0.67536 0.78254 1.04584 0.0
O223 O 0.7194 0.81109 1.04574 0.0
C224 C 0.73007 0.91094 0.9167 0.0
C225 C 0.74018 0.93289 0.90843 0.0
C226 C 0.7072 0.91433 0.84845 0.0
C227 C 0.73415 0.94536 0.86951 0.0
C228 C 0.71302 0.90214 0.88731 0.0
C229 C 0.71804 0.93588 0.83838 0.0
C230 C 0.73691 0.89678 0.95555 0.0
C231 C 0.71133 0.85406 0.09502 0.0
H232 H 0.70014 0.76314 0.10573 0.0
H233 H 0.63831 0.76387 0.22301 0.0
H234 H 0.70717 0.74357 0.17755 0.0
H235 H 0.63129 0.78354 0.15095 0.0
H236 H 0.753 0.94012 0.93148 0.0
H237 H 0.69505 0.9061 0.82533 0.0
H238 H 0.74245 0.96212 0.86336 0.0
H239 H 0.70473 0.88536 0.89366 0.0
Eu240 Eu 0.42502 0.4207 0.28777 0.0
Eu241 Eu 0.39711 0.46336 0.23523 0.0
C242 C 0.44761 0.47215 0.27939 0.0
C243 C 0.45943 0.39468 0.38444 0.0
C244 C 0.46135 0.41704 0.40413 0.0
C245 C 0.48304 0.37912 0.44618 0.0
C246 C 0.47412 0.42044 0.44424 0.0
C247 C 0.4704 0.37578 0.40598 0.0
C248 C 0.48522 0.40152 0.46598 0.0
C249 C 0.44768 0.39138 0.33995 0.0
O250 O 0.41913 0.44676 0.17901 0.0
O251 O 0.44545 0.42606 0.22289 0.0
C252 C 0.43881 0.43469 0.18358 0.0
O253 O 0.40516 0.40307 0.22841 0.0
O254 O 0.39243 0.4921 0.1879 0.0
O255 O 0.36383 0.48193 0.23233 0.0
O256 O 0.37632 0.42991 0.23008 0.0
C257 C 0.3853 0.4111 0.21163 0.0
O258 O 0.39994 0.43794 0.33828 0.0
O259 O 0.39863 0.47458 0.3088 0.0
O260 O 0.43242 0.47819 0.24852 0.0
O261 O 0.42478 0.39267 0.3387 0.0
O262 O 0.45724 0.40271 0.30656 0.0
O263 O 0.44598 0.45292 0.30318 0.0
C264 C 0.35404 0.49964 0.1622 0.0
C265 C 0.3342 0.48549 0.15489 0.0
C266 C 0.34389 0.52283 0.09685 0.0
C267 C 0.31936 0.48994 0.11829 0.0
C268 C 0.35843 0.51854 0.13346 0.0
C269 C 0.32428 0.50847 0.08832 0.0
C270 C 0.37058 0.49544 0.19922 0.0
C271 C 0.39743 0.46073 0.34397 0.0
H272 H 0.45316 0.43199 0.38819 0.0
H273 H 0.49151 0.36412 0.46131 0.0
H274 H 0.47507 0.43787 0.45846 0.0
H275 H 0.4695 0.35843 0.39135 0.0
H276 H 0.33034 0.47084 0.17689 0.0
H277 H 0.34879 0.53683 0.07413 0.0
H278 H 0.30436 0.47861 0.11305 0.0
H279 H 0.37358 0.52972 0.13868 0.0
Eu280 Eu 0.81285 0.17366 0.53263 0.0
Eu281 Eu 0.77947 0.13351 0.48526 0.0
C282 C 0.75804 0.18119 0.5181 0.0
C283 C 0.82927 0.21817 0.62417 0.0
C284 C 0.80788 0.22961 0.6332 0.0
C285 C 0.84311 0.23045 0.69841 0.0
C286 C 0.80426 0.24142 0.67412 0.0
C287 C 0.8468 0.21877 0.65734 0.0
C288 C 0.82181 0.24202 0.70742 0.0
C289 C 0.83369 0.2064 0.57998 0.0
O290 O 0.7882 0.15779 0.42555 0.0
O291 O 0.8035 0.18936 0.46496 0.0
C292 C 0.79599 0.17973 0.42716 0.0
O293 O 0.83636 0.15837 0.47656 0.0
O294 O 0.75187 0.11805 0.44407 0.0
O295 O 0.77198 0.09615 0.48951 0.0
O296 O 0.81644 0.12394 0.46525 0.0
C297 C 0.83355 0.13838 0.45452 0.0
O298 O 0.80636 0.1453 0.58521 0.0
O299 O 0.77043 0.13461 0.56053 0.0
O300 O 0.75667 0.16489 0.48729 0.0
O301 O 0.84042 0.18449 0.58034 0.0
O302 O 0.81857 0.21048 0.54802 0.0
O303 O 0.77489 0.1811 0.54816 0.0
C304 C 0.76079 0.07997 0.42043 0.0
C305 C 0.77996 0.08326 0.39181 0.0
C306 C 0.74801 0.0472 0.37461 0.0
C307 C 0.7826 0.06942 0.35362 0.0
C308 C 0.74523 0.06141 0.41264 0.0
C309 C 0.76621 0.05167 0.34365 0.0
C310 C 0.75666 0.09669 0.45688 0.0
C311 C 0.78513 0.13753 0.59412 0.0
H312 H 0.79388 0.22952 0.60858 0.0
H313 H 0.85717 0.2307 0.72291 0.0
H314 H 0.78753 0.24982 0.67992 0.0
H315 H 0.86349 0.21033 0.65138 0.0
H316 H 0.79231 0.09724 0.39807 0.0
H317 H 0.73535 0.03342 0.36844 0.0
H318 H 0.79669 0.07372 0.33061 0.0
H319 H 0.73053 0.05842 0.43503 0.0
Eu320 Eu 0.88164 0.52807 0.23902 0.0
Eu321 Eu 0.91491 0.56772 0.28813 0.0
C322 C 0.87619 0.58296 0.21114 0.0
C323 C 0.8334 0.49477 0.17629 0.0
C324 C 0.83184 0.51177 0.14256 0.0
C325 C 0.80684 0.46974 0.13438 0.0
C326 C 0.81846 0.50749 0.10421 0.0
C327 C 0.82029 0.47407 0.17285 0.0
C328 C 0.80642 0.48613 0.09909 0.0
C329 C 0.85009 0.49769 0.21315 0.0
O330 O 0.88713 0.55643 0.33864 0.0
O331 O 0.88485 0.51923 0.31368 0.0
C332 C 0.88362 0.53412 0.34713 0.0
O333 O 0.91716 0.51275 0.23571 0.0
O334 O 0.92188 0.59434 0.34033 0.0
O335 O 0.95055 0.5791 0.30286 0.0
O336 O 0.92976 0.53162 0.29862 0.0
C337 C 0.93329 0.51667 0.26591 0.0
O338 O 0.90354 0.54096 0.17911 0.0
O339 O 0.9292 0.56582 0.21691 0.0
O340 O 0.8947 0.58949 0.23527 0.0
O341 O 0.87219 0.49654 0.20195 0.0
O342 O 0.84581 0.5148 0.24109 0.0
O343 O 0.86572 0.5627 0.21842 0.0
C344 C 0.95756 0.58583 0.38112 0.0
C345 C 0.97543 0.56877 0.38234 0.0
C346 C 0.9646 0.59287 0.46136 0.0
C347 C 0.98764 0.56385 0.42239 0.0
C348 C 0.95244 0.59787 0.42123 0.0
C349 C 0.98239 0.57573 0.46269 0.0
C350 C 0.9446 0.59122 0.33828 0.0
C351 C 0.92192 0.55528 0.17973 0.0
H352 H 0.8419 0.5278 0.14489 0.0
H353 H 0.79779 0.45312 0.13117 0.0
H354 H 0.81906 0.52015 0.07712 0.0
H355 H 0.8213 0.46082 0.1989 0.0
H356 H 0.98001 0.55905 0.35231 0.0
H357 H 0.96018 0.60269 0.49136 0.0
H358 H 0.00093 0.55036 0.42187 0.0
H359 H 0.939 0.61122 0.4216 0.0
Eu360 Eu 0.20661 0.14389 0.99835 0.0
Eu361 Eu 0.16268 0.17116 1.04424 0.0
C362 C 0.15379 0.13239 0.96159 0.0
C363 C 0.24127 0.10201 0.92645 0.0
C364 C 0.22332 0.08571 0.91774 0.0
C365 C 0.26013 0.091 0.85651 0.0
C366 C 0.22357 0.07254 0.87829 0.0
C367 C 0.26001 0.10405 0.89625 0.0
C368 C 0.24152 0.07561 0.84654 0.0
C369 C 0.23982 0.11786 0.96532 0.0
O370 O 0.19092 0.16603 0.09745 0.0
O371 O 0.20771 0.13295 0.07262 0.0
C372 C 0.20484 0.14832 0.10489 0.0
O373 O 0.22306 0.17631 1.02629 0.0
O374 O 0.13965 0.16917 0.10351 0.0
O375 O 0.13905 0.1999 0.06071 0.0
O376 O 0.18987 0.19887 1.03285 0.0
C377 C 0.2127 0.19666 1.03021 0.0
O378 O 0.19455 0.17039 0.94359 0.0
O379 O 0.16228 0.18821 0.97658 0.0
O380 O 0.14431 0.14547 0.99403 0.0
O381 O 0.23792 0.14019 0.95634 0.0
O382 O 0.22576 0.11117 0.99755 0.0
O383 O 0.17629 0.1279 0.96137 0.0
C384 C 0.14028 0.20656 0.13972 0.0
C385 C 0.1601 0.22128 0.13775 0.0
C386 C 0.134 0.21976 0.21725 0.0
C387 C 0.16669 0.23511 0.17472 0.0
C388 C 0.12731 0.20596 0.17996 0.0
C389 C 0.15388 0.23456 0.21535 0.0
C390 C 0.13404 0.19136 0.10042 0.0
C391 C 0.17686 0.18559 0.94252 0.0
H392 H 0.20861 0.0837 0.94051 0.0
H393 H 0.27406 0.09407 0.83242 0.0
H394 H 0.20917 0.06072 0.87162 0.0
H395 H 0.27402 0.11649 0.90245 0.0
H396 H 0.17066 0.2221 0.10748 0.0
H397 H 0.12378 0.21845 0.24788 0.0
H398 H 0.18182 0.24643 0.17113 0.0
H399 H 0.11213 0.19463 0.18275 0.0
Eu400 Eu 0.60611 0.46194 0.74506 0.0
Eu401 Eu 0.57549 0.41695 0.78555 0.0
C402 C 0.61709 0.40888 0.70833 0.0
C403 C 0.64787 0.49884 0.67409 0.0
C404 C 0.66959 0.48745 0.66987 0.0
C405 C 0.65272 0.51455 0.59874 0.0
C406 C 0.68233 0.4889 0.62983 0.0
C407 C 0.63995 0.51302 0.6387 0.0
C408 C 0.67372 0.50201 0.59349 0.0
C409 C 0.63304 0.49531 0.7143 0.0
O410 O 0.58275 0.4425 0.84226 0.0
O411 O 0.61546 0.46158 0.81964 0.0
C412 C 0.60006 0.45683 0.85104 0.0
O413 O 0.57372 0.47885 0.77126 0.0
O414 O 0.57508 0.39087 0.83977 0.0
O415 O 0.54403 0.39599 0.7989 0.0
O416 O 0.55003 0.44614 0.77792 0.0
C417 C 0.55326 0.46885 0.7768 0.0
O418 O 0.58069 0.45127 0.68808 0.0
O419 O 0.56121 0.41827 0.71492 0.0
O420 O 0.60235 0.39915 0.73776 0.0
O421 O 0.61039 0.49469 0.70786 0.0
O422 O 0.63997 0.47936 0.74283 0.0
O423 O 0.62202 0.43131 0.70955 0.0
C424 C 0.5378 0.39217 0.87787 0.0
C425 C 0.51501 0.38289 0.88125 0.0
C426 C 0.53099 0.41283 0.94919 0.0
C427 C 0.50036 0.3886 0.91781 0.0
C428 C 0.54561 0.40717 0.91252 0.0
C429 C 0.508 0.40381 0.95234 0.0
C430 C 0.55235 0.38767 0.83663 0.0
C431 C 0.5654 0.43381 0.68294 0.0
H432 H 0.67643 0.47688 0.69703 0.0
H433 H 0.64547 0.5246 0.57114 0.0
H434 H 0.69859 0.4793 0.62685 0.0
H435 H 0.62345 0.52227 0.64127 0.0
H436 H 0.50835 0.37143 0.85511 0.0
H437 H 0.53755 0.42482 0.97449 0.0
H438 H 0.48297 0.38098 0.91901 0.0
H439 H 0.56291 0.41495 0.91095 0.0
Eu440 Eu 0.28645 0.85023 0.49833 0.0
Eu441 Eu 0.32755 0.81649 0.53799 0.0
C442 C 0.33976 0.85601 0.45833 0.0
C443 C 0.25223 0.89558 0.43142 0.0
C444 C 0.27002 0.89768 0.39917 0.0
C445 C 0.2273 0.92069 0.38634 0.0
C446 C 0.26632 0.91086 0.36035 0.0
C447 C 0.23102 0.90745 0.42529 0.0
C448 C 0.24482 0.92224 0.35319 0.0
C449 C 0.25563 0.88078 0.4711 0.0
O450 O 0.3004 0.82246 0.59325 0.0
O451 O 0.2865 0.85787 0.57424 0.0
C452 C 0.28805 0.84093 0.60388 0.0
O453 O 0.26689 0.81801 0.51933 0.0
O454 O 0.3535 0.81567 0.59252 0.0
O455 O 0.34654 0.78431 0.55358 0.0
O456 O 0.29787 0.79222 0.52317 0.0
C457 C 0.27539 0.7967 0.51984 0.0
O458 O 0.29565 0.82527 0.43926 0.0
O459 O 0.32652 0.80293 0.46673 0.0
O460 O 0.3481 0.84179 0.49015 0.0
O461 O 0.25337 0.85822 0.46487 0.0
O462 O 0.2738 0.88606 0.49588 0.0
O463 O 0.31771 0.86241 0.45847 0.0
C464 C 0.35223 0.7793 0.63252 0.0
C465 C 0.32953 0.77299 0.6468 0.0
C466 C 0.36783 0.7598 0.69942 0.0
C467 C 0.32601 0.76027 0.68697 0.0
C468 C 0.3713 0.77248 0.65927 0.0
C469 C 0.34511 0.75353 0.71422 0.0
C470 C 0.35608 0.7929 0.59004 0.0
C471 C 0.31195 0.80877 0.434 0.0
H472 H 0.28652 0.88863 0.40348 0.0
H473 H 0.21055 0.92923 0.38158 0.0
H474 H 0.27986 0.91114 0.33486 0.0
H475 H 0.21718 0.90607 0.45016 0.0
H476 H 0.31444 0.77799 0.62692 0.0
H477 H 0.38308 0.75472 0.71872 0.0
H478 H 0.30825 0.75615 0.69711 0.0
H479 H 0.38899 0.77696 0.64911 0.0
Eu480 Eu 0.88328 0.47303 0.69629 0.0
Eu481 Eu 0.91882 0.43418 0.65027 0.0
C482 C 0.87642 0.41885 0.71786 0.0
C483 C 0.83423 0.49964 0.76442 0.0
C484 C 0.82546 0.47773 0.77749 0.0
C485 C 0.81364 0.51765 0.82667 0.0
C486 C 0.81099 0.47572 0.81515 0.0
C487 C 0.82778 0.51965 0.78848 0.0
C488 C 0.80555 0.49555 0.84127 0.0
C489 C 0.8517 0.50144 0.72842 0.0
O490 O 0.89217 0.44553 0.59706 0.0
O491 O 0.88633 0.48262 0.62218 0.0
C492 C 0.88702 0.46762 0.5887 0.0
O493 O 0.91879 0.48941 0.69771 0.0
O494 O 0.92665 0.40655 0.60095 0.0
O495 O 0.95483 0.42318 0.63782 0.0
O496 O 0.93162 0.47056 0.6352 0.0
C497 C 0.93481 0.4861 0.6669 0.0
O498 O 0.90242 0.45735 0.75661 0.0
O499 O 0.93401 0.4405 0.72015 0.0
O500 O 0.89775 0.4134 0.70383 0.0
O501 O 0.87348 0.50138 0.7417 0.0
O502 O 0.84828 0.48805 0.69338 0.0
O503 O 0.86608 0.4374 0.70081 0.0
C504 C 0.96309 0.41356 0.56213 0.0
C505 C 0.98398 0.40118 0.55499 0.0
C506 C 0.97149 0.43629 0.49396 0.0
C507 C -0.00143 0.40637 0.51813 0.0
C508 C 0.95693 0.43114 0.53109 0.0
C509 C 0.99275 0.42418 0.48718 0.0
C510 C 0.94936 0.40953 0.60425 0.0
C511 C 0.92346 0.44761 0.75734 0.0
H512 H 0.8304 0.46205 0.75938 0.0
H513 H 0.81037 0.53332 0.84617 0.0
H514 H 0.80495 0.45845 0.82476 0.0
H515 H 0.83459 0.53668 0.77898 0.0
H516 H 0.98929 0.38771 0.57853 0.0
H517 H 0.96641 0.45026 0.47134 0.0
H518 H 0.0145 0.39636 0.51395 0.0
H519 H 0.94111 0.44127 0.53611 0.0
Eu520 Eu 0.28511 0.14273 0.4366 0.0
Eu521 Eu 0.32764 0.16999 0.38613 0.0
C522 C 0.33836 0.13241 0.46957 0.0
C523 C 0.25389 0.10167 0.51361 0.0
C524 C 0.27181 0.10544 0.54502 0.0
C525 C 0.23917 0.06952 0.55886 0.0
C526 C 0.27334 0.09149 0.58328 0.0
C527 C 0.23778 0.08345 0.52023 0.0
C528 C 0.25689 0.07355 0.59089 0.0
C529 C 0.25365 0.1153 0.47202 0.0
O530 O 0.29885 0.16283 0.33456 0.0
O531 O 0.28628 0.12903 0.36426 0.0
C532 C 0.28688 0.14347 0.33 0.0
O533 O 0.26753 0.17466 0.40957 0.0
O534 O 0.35152 0.16794 0.32838 0.0
O535 O 0.3493 0.20006 0.36699 0.0
O536 O 0.30048 0.19734 0.39864 0.0
C537 C 0.27777 0.19505 0.40387 0.0
O538 O 0.29813 0.16927 0.48995 0.0
O539 O 0.33072 0.18565 0.45523 0.0
O540 O 0.34662 0.14249 0.43211 0.0
O541 O 0.25324 0.13809 0.47644 0.0
O542 O 0.26912 0.10838 0.4426 0.0
O543 O 0.31587 0.13101 0.47711 0.0
C544 C 0.35129 0.20431 0.2869 0.0
C545 C 0.35105 0.22901 0.28758 0.0
C546 C 0.34148 0.20606 0.20666 0.0
C547 C 0.34608 0.24204 0.24842 0.0
C548 C 0.34636 0.19307 0.24575 0.0
C549 C 0.34137 0.23078 0.20718 0.0
C550 C 0.35593 0.1905 0.32911 0.0
C551 C 0.3166 0.18357 0.49023 0.0
H552 H 0.28456 0.1193 0.54011 0.0
H553 H 0.22623 0.05588 0.56412 0.0
H554 H 0.28683 0.09542 0.60783 0.0
H555 H 0.22414 0.08007 0.49567 0.0
H556 H 0.35475 0.23836 0.31853 0.0
H557 H 0.33764 0.19663 0.17588 0.0
H558 H 0.34644 0.26097 0.25029 0.0
H559 H 0.34618 0.17414 0.24363 0.0
Eu560 Eu 0.61147 0.53261 0.18199 0.0
Eu561 Eu 0.57781 0.57337 0.1392 0.0
C562 C 0.6204 0.58622 0.21329 0.0
C563 C 0.65651 0.50176 0.25149 0.0
C564 C 0.67117 0.52115 0.25939 0.0
C565 C 0.66699 0.48618 0.32458 0.0
C566 C 0.6831 0.52334 0.30009 0.0
C567 C 0.65517 0.48393 0.28369 0.0
C568 C 0.68054 0.5063 0.33391 0.0
C569 C 0.64054 0.5014 0.21266 0.0
O570 O 0.58561 0.54527 0.0867 0.0
O571 O 0.62213 0.53683 0.10878 0.0
C572 C 0.60609 0.53632 0.07748 0.0
O573 O 0.57902 0.51346 0.16035 0.0
O574 O 0.57655 0.59811 0.08249 0.0
O575 O 0.54542 0.59174 0.12246 0.0
O576 O 0.55359 0.54454 0.15776 0.0
C577 C 0.55786 0.52221 0.16326 0.0
O578 O 0.58859 0.54522 0.24123 0.0
O579 O 0.56441 0.57387 0.2108 0.0
O580 O 0.60405 0.59401 0.18489 0.0
O581 O 0.61821 0.50129 0.22227 0.0
O582 O 0.6456 0.51585 0.18004 0.0
O583 O 0.62684 0.56428 0.21426 0.0
C584 C 0.53989 0.59592 1.04311 0.0
C585 C 0.52945 0.57393 1.03478 0.0
C586 C 0.52408 0.6095 0.97109 0.0
C587 C 0.51642 0.56982 0.99514 0.0
C588 C 0.53697 0.61362 1.01077 0.0
C589 C 0.51362 0.5875 0.96239 0.0
C590 C 0.55375 0.60053 0.0851 0.0
C591 C 0.57149 0.56089 0.24506 0.0
H592 H 0.67256 0.53526 0.23511 0.0
H593 H 0.66408 0.47285 0.3499 0.0
H594 H 0.69344 0.53894 0.30568 0.0
H595 H 0.64388 0.46889 0.2783 0.0
H596 H 0.53146 0.55983 0.05888 0.0
H597 H 0.52218 0.62373 0.94727 0.0
H598 H 0.50897 0.55259 0.98974 0.0
H599 H 0.5447 0.63074 1.01617 0.0
Eu600 Eu 0.20585 0.85343 0.93698 0.0
Eu601 Eu 0.16669 0.82011 0.8897 0.0
C602 C 0.1516 0.85829 0.96917 0.0
C603 C 0.23046 0.89955 1.01256 0.0
C604 C 0.20848 0.90875 1.02457 0.0
C605 C 0.24635 0.91343 0.08337 0.0
C606 C 0.20535 0.91973 0.06606 0.0
C607 C 0.24949 0.90253 1.04171 0.0
C608 C 0.22407 0.92157 0.09653 0.0
C609 C 0.23304 0.88524 0.97168 0.0
O610 O 0.19556 0.82771 0.83799 0.0
O611 O 0.20532 0.86358 0.86237 0.0
C612 C 0.20617 0.84767 0.83059 0.0
O613 O 0.22698 0.82221 0.91677 0.0
O614 O 0.14397 0.81884 0.82998 0.0
O615 O 0.14729 0.7883 0.87283 0.0
O616 O 0.19634 0.79639 0.90577 0.0
C617 C 0.21858 0.80086 0.9131 0.0
O618 O 0.19516 0.82724 0.99262 0.0
O619 O 0.16541 0.80513 0.96015 0.0
O620 O 0.14457 0.84586 0.93358 0.0
O621 O 0.23635 0.86282 0.97797 0.0
O622 O 0.21787 0.88949 0.93981 0.0
O623 O 0.17369 0.86312 0.97566 0.0
C624 C 0.14716 0.78161 0.79355 0.0
C625 C 0.16797 0.76842 0.79317 0.0
C626 C 0.13915 0.76757 0.71716 0.0
C627 C 0.1742 0.75487 0.75551 0.0
C628 C 0.13288 0.78106 0.75502 0.0
C629 C 0.15994 0.75418 0.7167 0.0
C630 C 0.14068 0.79619 0.83352 0.0
C631 C 0.17892 0.81047 0.99486 0.0
H632 H 0.19344 0.90672 1.00266 0.0
H633 H 0.26108 0.91414 0.1063 0.0
H634 H 0.18805 0.92593 0.07499 0.0
H635 H 0.26653 0.8955 1.03312 0.0
H636 H 0.17951 0.76853 0.82214 0.0
H637 H 0.12783 0.76798 0.68794 0.0
H638 H 0.19014 0.74469 0.75717 0.0
H639 H 0.11687 0.7912 0.75407 0.0
Eu640 Eu 0.57612 0.91308 0.63664 0.0
Eu641 Eu 0.6088 0.95579 0.67708 0.0
C642 C 0.55616 0.96556 0.64573 0.0
C643 C 0.53625 0.88977 0.54559 0.0
C644 C 0.54139 0.90827 0.51576 0.0
C645 C 0.50016 0.88263 0.50299 0.0
C646 C 0.52612 0.9139 0.48009 0.0
C647 C 0.51547 0.87701 0.53862 0.0
C648 C 0.50512 0.90128 0.47316 0.0
C649 C 0.55137 0.88488 0.58577 0.0
O650 O 0.58395 0.94604 0.7351 0.0
O651 O 0.5615 0.91529 0.70718 0.0
C652 C 0.56732 0.92989 0.73987 0.0
O653 O 0.60198 0.89372 0.68513 0.0
O654 O 0.61446 0.98996 0.70809 0.0
O655 O 0.64408 0.9699 0.68382 0.0
O656 O 0.62053 0.92524 0.71823 0.0
C657 C 0.61546 0.90285 0.71755 0.0
O658 O 0.58564 0.93903 0.58082 0.0
O659 O 0.6212 0.94994 0.60541 0.0
O660 O 0.5773 0.97437 0.64983 0.0
O661 O 0.57407 0.88774 0.58123 0.0
O662 O 0.54384 0.89334 0.62394 0.0
O663 O 0.55183 0.94306 0.64494 0.0
C664 C 0.64862 0.98947 0.75194 0.0
C665 C 0.66889 0.00305 0.75781 0.0
C666 C 0.65108 0.97655 0.82935 0.0
C667 C 0.68014 0.00355 0.79971 0.0
C668 C 0.6399 0.97612 0.78782 0.0
C669 C 0.67132 0.99021 0.83575 0.0
C670 C 0.63724 0.98768 0.70797 0.0
C671 C 0.60589 0.94898 0.57277 0.0
H672 H 0.55706 0.9187 0.52037 0.0
H673 H 0.48445 0.87221 0.49875 0.0
H674 H 0.53058 0.92856 0.45858 0.0
H675 H 0.51088 0.86279 0.56115 0.0
H676 H 0.67601 0.01314 0.73007 0.0
H677 H 0.64358 0.96652 0.85679 0.0
H678 H 0.6957 0.01423 0.80396 0.0
H679 H 0.62441 0.96531 0.78369 0.0
Eu680 Eu 0.32678 0.32221 0.89151 0.0
Eu681 Eu 0.28631 0.35679 0.93145 0.0
C682 C 0.27471 0.30306 0.91294 0.0
C683 C 0.34802 0.28285 0.79953 0.0
C684 C 0.32452 0.27695 0.79065 0.0
C685 C 0.35941 0.26031 0.73305 0.0
C686 C 0.31852 0.26287 0.75359 0.0
C687 C 0.3654 0.27443 0.77025 0.0
C688 C 0.33584 0.2542 0.72417 0.0
C689 C 0.35413 0.29746 0.8395 0.0
O690 O 0.29677 0.33288 0.99142 0.0
O691 O 0.32602 0.30897 0.96247 0.0
C692 C 0.31242 0.31573 0.99594 0.0
O693 O 0.34775 0.34723 0.93858 0.0
O694 O 0.25459 0.36491 0.96961 0.0
O695 O 0.27206 0.39203 0.93069 0.0
O696 O 0.31858 0.3716 0.9639 0.0
C697 C 0.34008 0.36374 0.96657 0.0
O698 O 0.29916 0.32787 0.83741 0.0
O699 O 0.28544 0.36355 0.85546 0.0
O700 O 0.26639 0.32444 0.91252 0.0
O701 O 0.35153 0.32016 0.83507 0.0
O702 O 0.34597 0.28996 0.87802 0.0
O703 O 0.29708 0.29834 0.90852 0.0
C704 C 0.2545 0.40319 0.9992 0.0
C705 C 0.27435 0.4155 1.01425 0.0
C706 C 0.23268 0.41753 0.0635 0.0
C707 C 0.2735 0.42832 1.05421 0.0
C708 C 0.23349 0.40493 1.02326 0.0
C709 C 0.25292 0.42869 0.08025 0.0
C710 C 0.25589 0.38726 0.96047 0.0
C711 C 0.28694 0.34634 0.82645 0.0
H712 H 0.31071 0.28317 0.81258 0.0
H713 H 0.37334 0.25385 0.71169 0.0
H714 H 0.30018 0.259 0.74777 0.0
H715 H 0.38364 0.27864 0.77631 0.0
H716 H 0.29079 0.41451 0.99612 0.0
H717 H 0.21662 0.4171 0.08291 0.0
H718 H 0.28931 0.43689 0.0659 0.0
H719 H 0.21799 0.39558 1.01208 0.0
Eu720 Eu 0.92119 0.08288 0.13836 0.0
Eu721 Eu 0.88785 0.04028 0.17622 0.0
C722 C 0.94218 0.0318 0.15664 0.0
C723 C 0.96088 0.10598 1.04766 0.0
C724 C 0.98226 0.11778 1.04122 0.0
C725 C 0.96997 0.0818 0.98182 0.0
C726 C -0.00266 0.11167 1.00558 0.0
C727 C 0.9549 0.08798 1.01732 0.0
C728 C 0.99155 0.09344 0.97537 0.0
C729 C 0.94593 0.11112 0.08783 0.0
O730 O 0.91118 0.05053 0.23644 0.0
O731 O 0.93299 0.0823 0.21079 0.0
C732 C 0.927 0.06738 0.24287 0.0
O733 O 0.89427 0.10242 0.18309 0.0
O734 O 0.88251 0.00597 0.2066 0.0
O735 O 0.85271 0.02554 0.18153 0.0
O736 O 0.87297 0.07145 0.21219 0.0
C737 C 0.87867 0.0937 0.21192 0.0
O738 O 0.91517 0.05559 0.08352 0.0
O739 O 0.87932 0.04216 0.10139 0.0
O740 O 0.92108 0.02269 0.15436 0.0
O741 O 0.92321 0.10835 0.08329 0.0
O742 O 0.95346 0.10268 0.12604 0.0
O743 O 0.94605 0.05438 0.15496 0.0
C744 C 0.84736 0.00343 0.24686 0.0
C745 C 0.85233 0.01778 0.28388 0.0
C746 C 0.81931 0.98163 0.29184 0.0
C747 C 0.84109 0.01393 0.32479 0.0
C748 C 0.83065 0.9855 0.25072 0.0
C749 C 0.8245 0.99583 0.32918 0.0
C750 C 0.8597 0.00735 0.20444 0.0
C751 C 0.89633 0.0439 0.07208 0.0
H752 H 0.98745 0.1316 0.06416 0.0
H753 H 0.96487 0.06746 0.96006 0.0
H754 H 0.01354 0.12137 1.00166 0.0
H755 H 0.93869 0.07835 1.02137 0.0
H756 H 0.86515 0.03176 0.28127 0.0
H757 H 0.80669 0.9675 0.29462 0.0
H758 H 0.84575 0.02483 0.3533 0.0
H759 H 0.8266 0.9744 0.22216 0.0
Eu760 Eu 0.16141 0.66711 0.38524 0.0
Eu761 Eu 0.20551 0.63852 0.42889 0.0
C762 C 0.21137 0.69177 0.40127 0.0
C763 C 0.1364 0.70205 0.28899 0.0
C764 C 0.15911 0.70965 0.27725 0.0
C765 C 0.12177 0.72074 0.22047 0.0
C766 C 0.1631 0.72263 0.23759 0.0
C767 C 0.1178 0.7078 0.26016 0.0
C768 C 0.14451 0.72835 0.20832 0.0
C769 C 0.13216 0.68843 0.33128 0.0
O770 O 0.19356 0.66393 0.48527 0.0
O771 O 0.1591 0.67972 0.45669 0.0
C772 C 0.17443 0.67707 0.48958 0.0
O773 O 0.14287 0.64032 0.43306 0.0
O774 O 0.23866 0.63547 0.46481 0.0
O775 O 0.22229 0.60456 0.43583 0.0
O776 O 0.17495 0.62296 0.46586 0.0
C777 C 0.15236 0.62698 0.46514 0.0
O778 O 0.1892 0.66142 0.33121 0.0
O779 O 0.20625 0.62808 0.35459 0.0
O780 O 0.22152 0.67122 0.40108 0.0
O781 O 0.1361 0.66583 0.32959 0.0
O782 O 0.14038 0.69775 0.36826 0.0
O783 O 0.18854 0.69423 0.40074 0.0
C784 C 0.24063 0.60016 0.50529 0.0
C785 C 0.25604 0.58124 0.50987 0.0
C786 C 0.22719 0.59425 0.58173 0.0
C787 C 0.25722 0.56899 0.55063 0.0
C788 C 0.22603 0.6064 0.54121 0.0
C789 C 0.24282 0.57546 0.58694 0.0
C790 C 0.23864 0.6126 0.46243 0.0
C791 C 0.20314 0.64376 0.32297 0.0
H792 H 0.17384 0.70551 0.29879 0.0
H793 H 0.10687 0.72498 0.19948 0.0
H794 H 0.18088 0.72779 0.22948 0.0
H795 H 0.10012 0.70233 0.26837 0.0
H796 H 0.26714 0.57601 0.48205 0.0
H797 H 0.21629 0.60001 0.60942 0.0
H798 H 0.26942 0.5546 0.55387 0.0
H799 H 0.21383 0.62081 0.538 0.0
Eu800 Eu 0.57789 0.07149 0.28557 0.0
Eu801 Eu 0.60595 0.02703 0.24117 0.0
C802 C 0.55214 0.02278 0.26338 0.0
C803 C 0.541 0.09332 0.38026 0.0
C804 C 0.53392 0.06996 0.3871 0.0
C805 C 0.5191 0.10408 0.44805 0.0
C806 C 0.51964 0.06372 0.42379 0.0
C807 C 0.53349 0.1103 0.41125 0.0
C808 C 0.51181 0.08066 0.45489 0.0
C809 C 0.55583 0.09962 0.34048 0.0
O810 O 0.58197 0.041 0.18407 0.0
O811 O 0.56702 0.07564 0.21354 0.0
C812 C 0.56956 0.06063 0.18014 0.0
O813 O 0.60668 0.08963 0.2418 0.0
O814 O 0.60801 0.99467 0.202 0.0
O815 O 0.63838 0.0073 0.23891 0.0
O816 O 0.62443 0.0574 0.20951 0.0
C817 C 0.62129 0.08009 0.21192 0.0
O818 O 0.58226 0.04276 0.33785 0.0
O819 O 0.61605 0.02634 0.31557 0.0
O820 O 0.57233 0.01215 0.26718 0.0
O821 O 0.57831 0.0952 0.3438 0.0
O822 O 0.54751 0.09319 0.30137 0.0
O823 O 0.55039 0.04563 0.26532 0.0
C824 C 0.64545 0.9867 0.1712 0.0
C825 C 0.66515 0.00053 0.16075 0.0
C826 C 0.65281 0.96311 0.10491 0.0
C827 C 0.67831 0.9959 0.12211 0.0
C828 C 0.63982 0.96759 0.1437 0.0
C829 C 0.67186 0.97757 0.09303 0.0
C830 C 0.63036 0.99202 0.21005 0.0
C831 C 0.6001 0.02922 0.3467 0.0
H832 H 0.53935 0.05644 0.36381 0.0
H833 H 0.51334 0.11776 0.47068 0.0
H834 H 0.51492 0.04547 0.4279 0.0
H835 H 0.53857 0.12845 0.40682 0.0
H836 H 0.67008 0.01528 0.18166 0.0
H837 H 0.64702 0.94909 0.08299 0.0
H838 H 0.69304 0.00716 0.11418 0.0
H839 H 0.62484 0.95659 0.15139 0.0
Eu840 Eu 0.1649 0.32564 0.54426 0.0
Eu841 Eu 0.20838 0.35141 0.4932 0.0
C842 C 0.21275 0.29842 0.52389 0.0
C843 C 0.1434 0.28966 0.64051 0.0
C844 C 0.16575 0.27932 0.64241 0.0
C845 C 0.13376 0.27002 0.71136 0.0
C846 C 0.17195 0.26434 0.67799 0.0
C847 C 0.12751 0.28492 0.67548 0.0
C848 C 0.15606 0.25937 0.71308 0.0
C849 C 0.13699 0.30516 0.60195 0.0
O850 O 0.19377 0.32586 0.43979 0.0
O851 O 0.15952 0.31247 0.47351 0.0
C852 C 0.17394 0.31357 0.43875 0.0
O853 O 0.14711 0.35527 0.50232 0.0
O854 O 0.24117 0.35295 0.45536 0.0
O855 O 0.22678 0.38449 0.48523 0.0
O856 O 0.17774 0.36621 0.45596 0.0
C857 C 0.15538 0.36603 0.4656 0.0
O858 O 0.19463 0.33169 0.59446 0.0
O859 O 0.20737 0.36549 0.56514 0.0
O860 O 0.22389 0.31848 0.52103 0.0
O861 O 0.14315 0.32722 0.60522 0.0
O862 O 0.1415 0.29676 0.56199 0.0
O863 O 0.18997 0.29706 0.52784 0.0
C864 C 0.2477 0.38885 0.4183 0.0
C865 C 0.26907 0.40066 0.41326 0.0
C866 C 0.23538 0.40263 0.34499 0.0
C867 C 0.27378 0.41313 0.3738 0.0
C868 C 0.23071 0.3902 0.38441 0.0
C869 C 0.25712 0.41391 0.33895 0.0
C870 C 0.24302 0.37566 0.45947 0.0
C871 C 0.20662 0.35103 0.59932 0.0
H872 H 0.17849 0.28278 0.61617 0.0
H873 H 0.12094 0.26653 0.73741 0.0
H874 H 0.18937 0.25687 0.67825 0.0
H875 H 0.1102 0.29263 0.67497 0.0
H876 H 0.2822 0.4 0.43958 0.0
H877 H 0.22235 0.40251 0.31849 0.0
H878 H 0.29061 0.42174 0.37016 0.0
H879 H 0.21403 0.38129 0.38813 0.0
Eu880 Eu 0.91311 0.91839 0.79641 0.0
Eu881 Eu 0.88711 0.96163 0.74331 0.0
C882 C 0.94011 0.96673 0.77582 0.0
C883 C 0.94646 0.89436 0.89652 0.0
C884 C 0.95523 0.91685 0.90668 0.0
C885 C 0.96502 0.87992 0.96527 0.0
C886 C 0.9687 0.92083 0.9458 0.0
C887 C 0.95162 0.87597 0.9262 0.0
C888 C 0.97371 0.90244 0.97603 0.0
C889 C 0.93235 0.88995 0.8549 0.0
O890 O 0.9122 0.94601 0.69028 0.0
O891 O 0.92787 0.91364 0.72677 0.0
C892 C 0.92578 0.92711 0.6908 0.0
O893 O 0.88493 0.89993 0.75154 0.0
O894 O 0.88514 0.99251 0.69975 0.0
O895 O 0.85485 0.98146 0.7386 0.0
O896 O 0.87082 0.93083 0.70923 0.0
C897 C 0.87268 0.90836 0.71683 0.0
O898 O 0.90694 0.94835 0.84563 0.0
O899 O 0.87352 0.96174 0.81557 0.0
O900 O 0.92027 0.97772 0.76909 0.0
O901 O 0.91018 0.89584 0.8561 0.0
O902 O 0.94219 0.89598 0.81689 0.0
O903 O 0.94151 0.9441 0.78223 0.0
C904 C 0.84775 -0.00232 0.66729 0.0
C905 C 0.83322 0.97917 0.65328 0.0
C906 C 0.83537 0.02036 0.60268 0.0
C907 C 0.82008 0.98115 0.61389 0.0
C908 C 0.84836 0.01843 0.6423 0.0
C909 C 0.8214 0.00156 0.58749 0.0
C910 C 0.86276 0.99531 0.70712 0.0
C911 C 0.888 0.96092 0.84968 0.0
H912 H 0.95159 0.93141 0.88438 0.0
H913 H 0.96871 0.86514 0.98698 0.0
H914 H 0.97477 0.93843 0.95279 0.0
H915 H 0.9453 0.85845 0.91915 0.0
H916 H 0.83244 0.96294 0.67215 0.0
H917 H 0.83731 0.03616 0.58285 0.0
H918 H 0.8095 0.96637 0.60337 0.0
H919 H 0.85947 0.03287 0.65267 0.0
Eu920 Eu 0.32508 0.66599 1.0385 0.0
Eu921 Eu 0.28223 0.63518 0.99489 0.0
C922 C 0.27483 0.68873 1.02177 0.0
C923 C 0.34959 0.70193 0.13508 0.0
C924 C 0.32694 0.7093 0.14758 0.0
C925 C 0.36474 0.72085 0.20304 0.0
C926 C 0.32325 0.72228 0.1874 0.0
C927 C 0.36841 0.70796 0.16324 0.0
C928 C 0.34208 0.72817 0.21608 0.0
C929 C 0.3537 0.68834 0.09268 0.0
O930 O 0.2945 0.65924 0.93717 0.0
O931 O 0.32602 0.6799 0.96705 0.0
C932 C 0.31174 0.67486 0.93325 0.0
O933 O 0.34423 0.63989 0.99051 0.0
O934 O 0.24886 0.63143 0.95936 0.0
O935 O 0.26481 0.60135 0.99169 0.0
O936 O 0.31302 0.61988 0.95888 0.0
C937 C 0.3354 0.62503 0.96017 0.0
O938 O 0.29722 0.65819 0.09233 0.0
O939 O 0.28599 0.6229 0.06731 0.0
O940 O 0.26529 0.66779 1.02185 0.0
O941 O 0.35028 0.66564 0.09446 0.0
O942 O 0.34512 0.69738 0.05582 0.0
O943 O 0.29748 0.69195 1.0237 0.0
C944 C 0.24278 0.59436 0.92545 0.0
C945 C 0.25745 0.57585 0.91224 0.0
C946 C 0.2185 0.58728 0.85982 0.0
C947 C 0.25291 0.56346 0.87265 0.0
C948 C 0.22291 0.59948 0.89964 0.0
C949 C 0.2338 0.56954 0.84522 0.0
C950 C 0.24811 0.60877 0.96532 0.0
C951 C 0.28654 0.63826 0.0999 0.0
H952 H 0.31204 0.70494 0.12657 0.0
H953 H 0.37982 0.72524 0.22351 0.0
H954 H 0.30553 0.72726 0.19617 0.0
H955 H 0.38605 0.70271 0.15445 0.0
H956 H 0.27278 0.57134 0.93173 0.0
H957 H 0.20381 0.59273 0.83928 0.0
H958 H 0.26485 0.5497 0.86268 0.0
H959 H 0.21123 0.61352 0.90943 0.0
Eu960 Eu 0.39847 0.02653 0.73893 0.0
Eu961 Eu 0.42366 0.06964 0.79001 0.0
C962 C 0.38679 0.07923 0.70515 0.0
C963 C 0.35924 0.98623 0.66754 0.0
C964 C 0.3506 0.9634 0.66232 0.0
C965 C 0.33875 -0.00195 0.59989 0.0
C966 C 0.33624 0.95783 0.62575 0.0
C967 C 0.35316 0.00357 0.63633 0.0
C968 C 0.33022 0.97509 0.59408 0.0
C969 C 0.37324 0.99207 0.70725 0.0
O970 O 0.41799 0.03986 0.84046 0.0
O971 O 0.38393 0.0284 0.81097 0.0
C972 C 0.39831 0.02853 0.84536 0.0
O973 O 0.4314 0.0106 0.76608 0.0
O974 O 0.42068 0.09108 0.85117 0.0
O975 O 0.45145 0.09411 0.80891 0.0
O976 O 0.45254 0.04445 0.77743 0.0
C977 C 0.4513 0.02177 0.77184 0.0
O978 O 0.42461 0.04048 0.68553 0.0
O979 O 0.44052 0.07287 0.72172 0.0
O980 O 0.39561 0.08747 0.74379 0.0
O981 O 0.39596 0.99337 0.70217 0.0
O982 O 0.36493 0.00905 0.73189 0.0
O983 O 0.38646 0.05674 0.69672 0.0
C984 C 0.45791 0.0915 0.88762 0.0
C985 C 0.47006 0.07009 0.88738 0.0
C986 C 0.47464 0.09956 0.96188 0.0
C987 C 0.48439 0.06355 0.92362 0.0
C988 C 0.46032 0.10615 0.92532 0.0
C989 C 0.48693 0.07809 0.96169 0.0
C990 C 0.44258 0.09793 0.8488 0.0
C991 C 0.43885 0.05901 0.6862 0.0
H992 H 0.35493 0.94992 0.68659 0.0
H993 H 0.33485 0.01162 0.57554 0.0
H994 H 0.32993 0.94002 0.62209 0.0
H995 H 0.35959 0.02134 0.64014 0.0
H996 H 0.46851 0.05832 0.85896 0.0
H997 H 0.47574 0.11116 0.99063 0.0
H998 H 0.49371 0.0471 0.92141 0.0
H999 H 0.45104 0.12266 0.92665 0.0
Eu1000 Eu 0.72377 0.63056 0.48772 0.0
Eu1001 Eu 0.68569 0.66788 0.53183 0.0
C1002 C 0.66901 0.6299 0.45403 0.0
C1003 C 0.75464 0.58075 0.4256 0.0
C1004 C 0.73583 0.57678 0.39629 0.0
C1005 C 0.77923 0.55571 0.37959 0.0
C1006 C 0.73883 0.56272 0.35838 0.0
C1007 C 0.77619 0.56979 0.41766 0.0
C1008 C 0.76067 0.55238 0.34914 0.0
C1009 C 0.75228 0.59722 0.46309 0.0
O1010 O 0.69279 0.64033 0.58558 0.0
O1011 O 0.72989 0.6321 0.56368 0.0
C1012 C 0.71423 0.63379 0.59589 0.0
O1013 O 0.74205 0.66507 0.48632 0.0
O1014 O 0.6573 0.67799 0.57806 0.0
O1015 O 0.67847 0.70462 0.54554 0.0
O1016 O 0.72298 0.6772 0.5486 0.0
C1017 C 0.73858 0.68094 0.51724 0.0
O1018 O 0.71327 0.65224 0.42657 0.0
O1019 O 0.69197 0.68188 0.46092 0.0
O1020 O 0.66351 0.6486 0.47846 0.0
O1021 O 0.75557 0.61928 0.4533 0.0
O1022 O 0.73423 0.59395 0.4895 0.0
O1023 O 0.6886 0.61818 0.46093 0.0
C1024 C 0.66733 0.71236 0.62163 0.0
C1025 C 0.68298 0.73147 0.62495 0.0
C1026 C 0.65919 0.7168 0.70215 0.0
C1027 C 0.68676 0.74295 0.6662 0.0
C1028 C 0.65537 0.70533 0.66084 0.0
C1029 C 0.675 0.73578 0.70559 0.0
C1030 C 0.66338 0.70015 0.57749 0.0
C1031 C 0.70177 0.67237 0.42487 0.0
H1032 H 0.71909 0.58523 0.40183 0.0
H1033 H 0.79626 0.54808 0.37311 0.0
H1034 H 0.72445 0.56114 0.33487 0.0
H1035 H 0.79087 0.57271 0.44013 0.0
H1036 H 0.6925 0.73757 0.59563 0.0
H1037 H 0.64948 0.71091 0.73139 0.0
H1038 H 0.69926 0.75724 0.66729 0.0
H1039 H 0.64302 0.69091 0.65965 0.0
Eu1040 Eu 0.10101 0.95768 0.24982 0.0
Eu1041 Eu 0.06749 0.91757 0.29192 0.0
C1042 C 0.10514 0.90498 0.20963 0.0
C1043 C 0.14785 0.99129 0.18481 0.0
C1044 C 0.1513 0.97314 0.15374 0.0
C1045 C 0.17266 0.01673 0.14007 0.0
C1046 C 0.16497 0.97694 0.11551 0.0
C1047 C 0.15901 0.01289 0.17841 0.0
C1048 C 0.1753 -0.00104 0.10772 0.0
C1049 C 0.13274 0.98776 0.224 0.0
O1050 O 0.07542 0.94512 0.34598 0.0
O1051 O 0.11194 0.95231 0.32314 0.0
C1052 C 0.0961 0.95368 0.35485 0.0
O1053 O 0.06996 0.97805 0.27403 0.0
O1054 O 0.06576 0.89316 0.34892 0.0
O1055 O 0.03534 0.89809 0.30648 0.0
O1056 O 0.0437 0.94748 0.27859 0.0
C1057 C 0.04846 0.96987 0.2751 0.0
O1058 O 0.07509 0.94908 0.19206 0.0
O1059 O 0.05268 0.91866 0.2215 0.0
O1060 O 0.0933 0.89686 0.24526 0.0
O1061 O 0.11028 0.99097 0.21798 0.0
O1062 O 0.13727 0.96904 0.24764 0.0
O1063 O 0.10988 0.9273 0.20556 0.0
C1064 C 0.02851 0.89606 0.38509 0.0
C1065 C 0.02536 0.91956 0.39783 0.0
C1066 C 0.00278 0.88451 0.44723 0.0
C1067 C 0.01117 0.92548 0.43475 0.0
C1068 C 0.01711 0.87859 0.41027 0.0
C1069 C -0.00054 0.9081 0.46005 0.0
C1070 C 0.04307 0.89013 0.34492 0.0
C1071 C 0.05813 0.93306 0.18821 0.0
H1072 H 0.14291 0.95627 0.15842 0.0
H1073 H 0.18048 0.03383 0.1349 0.0
H1074 H 0.16627 0.96307 0.09079 0.0
H1075 H 0.15671 0.02695 0.20252 0.0
H1076 H 0.03378 0.93345 0.37896 0.0
H1077 H 0.99395 0.87055 0.4652 0.0
H1078 H 0.00955 0.9438 0.4436 0.0
H1079 H 0.01908 0.86035 0.40107 0.0
Eu1080 Eu 0.77379 0.3649 0.98776 0.0
Eu1081 Eu 0.8119 0.32691 1.03107 0.0
C1082 C 0.8287 0.36687 0.95677 0.0
C1083 C 0.73889 0.41033 0.91989 0.0
C1084 C 0.74907 0.43238 0.91177 0.0
C1085 C 0.71966 0.41232 0.84716 0.0
C1086 C 0.74522 0.44392 0.87092 0.0
C1087 C 0.72348 0.40086 0.88786 0.0
C1088 C 0.73098 0.43366 0.83767 0.0
C1089 C 0.74441 0.39711 0.96126 0.0
O1090 O 0.80543 0.35446 0.08491 0.0
O1091 O 0.76841 0.36382 0.06358 0.0
C1092 C 0.7842 0.36159 0.09537 0.0
O1093 O 0.75639 0.33007 0.98394 0.0
O1094 O 0.83815 0.31493 0.08058 0.0
O1095 O 0.81926 0.28979 1.03987 0.0
O1096 O 0.7744 0.31843 1.04737 0.0
C1097 C 0.75932 0.31437 1.0153 0.0
O1098 O 0.78484 0.34399 0.92589 0.0
O1099 O 0.80545 0.31375 0.95985 0.0
O1100 O 0.83415 0.34727 0.97872 0.0
O1101 O 0.73984 0.37471 0.96073 0.0
O1102 O 0.76432 0.40177 0.98112 0.0
O1103 O 0.80932 0.37849 0.96589 0.0
C1104 C 0.8269 0.278 0.11564 0.0
C1105 C 0.81407 0.257 0.11068 0.0
C1106 C 0.82952 0.26953 0.19659 0.0
C1107 C 0.80911 0.24254 0.14781 0.0
C1108 C 0.83452 0.28406 0.15928 0.0
C1109 C 0.81689 0.24838 0.19146 0.0
C1110 C 0.83262 0.29281 0.07504 0.0
C1111 C 0.79601 0.32367 0.92393 0.0
H1112 H 0.76048 0.44039 0.93647 0.0
H1113 H 0.70884 0.4037 0.82217 0.0
H1114 H 0.75393 0.46049 0.86481 0.0
H1115 H 0.71494 0.38414 0.89346 0.0
H1116 H 0.80786 0.25157 0.07783 0.0
H1117 H 0.83608 0.27465 0.22937 0.0
H1118 H 0.79902 0.22673 0.14218 0.0
H1119 H 0.84455 0.29994 0.16461 0.0
Eu1120 Eu 0.3895 0.95176 0.18664 0.0
Eu1121 Eu 0.42677 0.91573 0.13901 0.0
C1122 C 0.38717 0.89844 0.21109 0.0
C1123 C 0.33899 0.96949 0.25896 0.0
C1124 C 0.33303 0.94603 0.26742 0.0
C1125 C 0.32193 0.98053 0.33039 0.0
C1126 C 0.32246 0.93974 0.30803 0.0
C1127 C 0.33251 0.98679 0.28977 0.0
C1128 C 0.31774 0.9568 0.34087 0.0
C1129 C 0.35533 0.97537 0.22257 0.0
O1130 O 0.40312 0.9298 0.08296 0.0
O1131 O 0.39162 0.96445 0.11345 0.0
C1132 C 0.39632 0.9517 0.07772 0.0
O1133 O 0.42157 0.97361 0.18027 0.0
O1134 O 0.43255 0.8865 0.09227 0.0
O1135 O 0.46224 0.9045 0.12187 0.0
O1136 O 0.44203 0.95161 0.12829 0.0
C1137 C 0.4393 0.97052 0.15292 0.0
O1138 O 0.41312 0.93958 0.24543 0.0
O1139 O 0.44425 0.92435 0.20508 0.0
O1140 O 0.40887 0.89494 0.19723 0.0
O1141 O 0.37713 0.97747 0.23522 0.0
O1142 O 0.35314 0.96333 0.18538 0.0
O1143 O 0.37517 0.91497 0.19113 0.0
C1144 C 0.46652 0.89331 1.04538 0.0
C1145 C 0.4911 0.89297 1.04158 0.0
C1146 C 0.46441 0.90198 0.96473 0.0
C1147 C 0.50222 0.89714 1.00004 0.0
C1148 C 0.45331 0.89792 1.00634 0.0
C1149 C 0.48907 0.90167 0.96085 0.0
C1150 C 0.45524 0.8901 0.09053 0.0
C1151 C 0.43491 0.93147 0.24332 0.0
H1152 H 0.33787 0.93242 0.24391 0.0
H1153 H 0.31893 0.9942 0.35496 0.0
H1154 H 0.31922 0.92141 0.31474 0.0
H1155 H 0.33714 0.00495 0.28387 0.0
H1156 H 0.5018 0.88959 0.071 0.0
H1157 H 0.45363 0.90571 0.93561 0.0
H1158 H 0.52116 0.89646 0.99852 0.0
H1159 H 0.43437 0.89866 1.00796 0.0
Eu1160 Eu 0.77513 0.63471 0.94788 0.0
Eu1161 Eu 0.81375 0.66791 0.8961 0.0
C1162 C 0.82921 0.62805 0.96756 0.0
C1163 C 0.75392 0.58455 1.01753 0.0
C1164 C 0.77675 0.57563 1.02097 0.0
C1165 C 0.74375 0.5652 0.08746 0.0
C1166 C 0.78329 0.56237 0.05832 0.0
C1167 C 0.73724 0.57856 1.05011 0.0
C1168 C 0.76712 0.55777 0.09287 0.0
C1169 C 0.74854 0.60261 0.98394 0.0
O1170 O 0.80079 0.63963 0.84786 0.0
O1171 O 0.7637 0.63723 0.87432 0.0
C1172 C 0.77832 0.63605 0.84024 0.0
O1173 O 0.7585 0.66985 0.94684 0.0
O1174 O 0.84041 0.67277 0.84313 0.0
O1175 O 0.82654 0.70271 0.87885 0.0
O1176 O 0.77781 0.68287 0.88428 0.0
C1177 C 0.76219 0.68586 0.91608 0.0
O1178 O 0.79028 0.65678 1.00569 0.0
O1179 O 0.81012 0.68496 0.96437 0.0
O1180 O 0.83484 0.64891 0.95157 0.0
O1181 O 0.74958 0.6241 0.99874 0.0
O1182 O 0.75873 0.60023 0.94486 0.0
O1183 O 0.81065 0.61745 0.95122 0.0
C1184 C 0.83296 0.70778 0.80052 0.0
C1185 C 0.81088 0.71811 0.79301 0.0
C1186 C 0.84529 0.72196 0.72656 0.0
C1187 C 0.80617 0.7304 0.75302 0.0
C1188 C 0.85006 0.70982 0.76675 0.0
C1189 C 0.8233 0.73253 0.71911 0.0
C1190 C 0.83834 0.6956 0.84384 0.0
C1191 C 0.80199 0.67685 1.003 0.0
H1192 H 0.78989 0.57999 0.99604 0.0
H1193 H 0.73089 0.56234 0.11372 0.0
H1194 H 0.80131 0.55681 0.06129 0.0
H1195 H 0.71958 0.5854 1.0481 0.0
H1196 H 0.7972 0.71679 0.81818 0.0
H1197 H 0.85902 0.72336 0.70151 0.0
H1198 H 0.78896 0.73796 0.74841 0.0
H1199 H 0.86722 0.70216 0.77158 0.0
Eu1200 Eu 0.10344 0.03495 0.6907 0.0
Eu1201 Eu 0.06889 0.07302 0.64103 0.0
C1202 C 0.10923 0.08828 0.7135 0.0
C1203 C 0.15058 0.01215 0.7665 0.0
C1204 C 0.15619 0.03499 0.78011 0.0
C1205 C 0.16756 -0.00292 0.83526 0.0
C1206 C 0.16676 0.03891 0.82175 0.0
C1207 C 0.15696 0.99319 0.79357 0.0
C1208 C 0.17188 0.02007 0.85056 0.0
C1209 C 0.13496 0.00839 0.7281 0.0
O1210 O 0.09172 0.05665 0.58594 0.0
O1211 O 0.10063 0.02165 0.61827 0.0
C1212 C 0.09718 0.03429 0.5819 0.0
O1213 O 0.06897 0.01703 0.68821 0.0
O1214 O 0.0652 0.1019 0.5924 0.0
O1215 O 0.03447 0.08679 0.62393 0.0
O1216 O 0.05112 0.03815 0.63205 0.0
C1217 C 0.05137 0.02071 0.66084 0.0
O1218 O 0.08113 0.0496 0.74894 0.0
O1219 O 0.05115 0.06662 0.70791 0.0
O1220 O 0.08803 0.09319 0.69841 0.0
O1221 O 0.11276 0.00759 0.73843 0.0
O1222 O 0.13903 0.02118 0.69245 0.0
O1223 O 0.1203 0.07065 0.69506 0.0
C1224 C 0.03051 0.09774 0.54736 0.0
C1225 C 0.02454 0.0755 0.53026 0.0
C1226 C 0.01195 0.11533 0.48147 0.0
C1227 C 0.0123 0.07322 0.48934 0.0
C1228 C 0.0241 0.11759 0.52244 0.0
C1229 C 0.00577 0.09311 0.46423 0.0
C1230 C 0.04229 0.10037 0.59193 0.0
C1231 C 0.06 0.05919 0.74639 0.0
H1232 H 0.15123 0.04985 0.75967 0.0
H1233 H 0.17071 0.98208 0.8567 0.0
H1234 H 0.16976 0.0568 0.83225 0.0
H1235 H 0.15247 0.97547 0.78371 0.0
H1236 H 0.02923 0.05983 0.54874 0.0
H1237 H 0.00705 0.13111 0.46362 0.0
H1238 H 0.00822 0.05582 0.4771 0.0
H1239 H 0.02828 0.13493 0.53492 0.0
Eu1240 Eu 0.72675 0.35665 0.4458 0.0
Eu1241 Eu 0.68529 0.32599 0.39531 0.0
C1242 C 0.67269 0.3662 0.46957 0.0
C1243 C 0.76045 0.40381 0.51035 0.0
C1244 C 0.74321 0.42117 0.51474 0.0
C1245 C 0.77901 0.41775 0.57864 0.0
C1246 C 0.74356 0.43629 0.55163 0.0
C1247 C 0.77883 0.40284 0.54149 0.0
C1248 C 0.76082 0.43399 0.58506 0.0
C1249 C 0.75867 0.3855 0.47585 0.0
O1250 O 0.69817 0.35436 0.34742 0.0
O1251 O 0.73571 0.35378 0.37142 0.0
C1252 C 0.72063 0.3569 0.33872 0.0
O1253 O 0.74015 0.32031 0.44603 0.0
O1254 O 0.65856 0.32134 0.34269 0.0
O1255 O 0.67168 0.29131 0.37906 0.0
O1256 O 0.7205 0.30969 0.38285 0.0
C1257 C 0.73503 0.30471 0.41546 0.0
O1258 O 0.71126 0.33572 0.5046 0.0
O1259 O 0.68698 0.31025 0.46511 0.0
O1260 O 0.66545 0.34651 0.45041 0.0
O1261 O 0.75607 0.36415 0.49073 0.0
O1262 O 0.74529 0.38991 0.44123 0.0
O1263 O 0.69262 0.37588 0.45694 0.0
C1264 C 0.66559 0.28586 0.30145 0.0
C1265 C 0.68683 0.29006 0.27876 0.0
C1266 C 0.65774 0.25375 0.24909 0.0
C1267 C 0.69353 0.27616 0.24184 0.0
C1268 C 0.65108 0.26765 0.28604 0.0
C1269 C 0.67923 0.25756 0.22661 0.0
C1270 C 0.65994 0.29844 0.34405 0.0
C1271 C 0.69695 0.31737 0.50288 0.0
H1272 H 0.72889 0.4224 0.49091 0.0
H1273 H 0.79244 0.41527 0.60394 0.0
H1274 H 0.72959 0.44887 0.5554 0.0
H1275 H 0.79236 0.38966 0.53843 0.0
H1276 H 0.69852 0.3038 0.29023 0.0
H1277 H 0.64633 0.2395 0.23908 0.0
H1278 H 0.71002 0.27999 0.2253 0.0
H1279 H 0.63482 0.26375 0.30337 0.0
H1280 H 0.19568 0.53728 0.38705 0.0
H1281 H 0.20724 0.46263 0.39212 0.0
H1282 H 0.21407 0.46501 0.47311 0.0
H1283 H 0.20686 0.48666 0.54276 0.0
H1284 H 0.19483 0.56122 0.53762 0.0
H1285 H 0.19894 0.56058 0.45595 0.0
C1286 C 0.20066 0.52163 0.40535 0.0
C1287 C 0.20008 0.49967 0.38382 0.0
C1288 C 0.20414 0.52306 0.45201 0.0
C1289 C 0.20674 0.47964 0.40823 0.0
C1290 C 0.21066 0.48099 0.45455 0.0
C1291 C 0.20614 0.50298 0.52417 0.0
C1292 C 0.19975 0.52383 0.54622 0.0
C1293 C 0.20788 0.50238 0.47709 0.0
C1294 C 0.19904 0.54479 0.52135 0.0
C1295 C 0.20133 0.54444 0.47457 0.0
H1296 H 0.75046 0.95864 0.7868 0.0
H1297 H 0.67796 0.93664 0.78714 0.0
H1298 H 0.67668 0.93998 0.70564 0.0
H1299 H 0.69847 0.94093 0.63501 0.0
H1300 H 0.77072 0.96335 0.63436 0.0
H1301 H 0.76931 0.96934 0.71567 0.0
C1302 C 0.73399 0.95566 0.76953 0.0
C1303 C 0.71465 0.94638 0.79303 0.0
C1304 C 0.73331 0.95769 0.72249 0.0
C1305 C 0.69346 0.94285 0.76973 0.0
C1306 C 0.69261 0.94496 0.72303 0.0
C1307 C 0.71366 0.94808 0.65216 0.0
C1308 C 0.73495 0.95089 0.62887 0.0
C1309 C 0.71283 0.95103 0.69896 0.0
C1310 C 0.75437 0.96028 0.65183 0.0
C1311 C 0.75356 0.96371 0.69833 0.0
H1312 H 0.30677 0.53359 0.89004 0.0
H1313 H 0.29516 0.4589 0.88148 0.0
H1314 H 0.29368 0.45646 0.96331 0.0
H1315 H 0.30548 0.47418 1.03507 0.0
H1316 H 0.31356 0.54927 1.04384 0.0
H1317 H 0.30619 0.55276 0.96352 0.0
C1318 C 0.30286 0.51685 0.90558 0.0
C1319 C 0.30231 0.49627 0.87946 0.0
C1320 C 0.30188 0.51552 0.95268 0.0
C1321 C 0.29686 0.4749 0.90079 0.0
C1322 C 0.29591 0.47346 0.94767 0.0
C1323 C 0.30457 0.49146 1.02013 0.0
C1324 C 0.31131 0.5113 1.04517 0.0
C1325 C 0.29997 0.49345 0.97388 0.0
C1326 C 0.30964 0.53353 1.02492 0.0
C1327 C 0.30524 0.53561 0.97894 0.0
H1328 H 0.72834 0.04114 0.29193 0.0
H1329 H 0.80387 0.03907 0.29174 0.0
H1330 H 0.80404 0.03488 0.21021 0.0
H1331 H 0.7831 0.04275 0.13961 0.0
H1332 H 0.70779 0.048 0.14052 0.0
H1333 H 0.707 0.03919 0.22095 0.0
C1334 C 0.74484 0.03872 0.27449 0.0
C1335 C 0.76613 0.04098 0.298 0.0
C1336 C 0.74479 0.0373 0.22738 0.0
C1337 C 0.78728 0.03781 0.27445 0.0
C1338 C 0.78738 0.03555 0.22769 0.0
C1339 C 0.7665 0.0409 0.1571 0.0
C1340 C 0.74559 0.04649 0.13477 0.0
C1341 C 0.7663 0.03693 0.2037 0.0
C1342 C 0.72412 0.04409 0.15751 0.0
C1343 C 0.72369 0.03923 0.2035 0.0
H1344 H 0.77952 0.51208 1.04227 0.0
H1345 H 0.81459 0.44557 1.05423 0.0
H1346 H 0.81295 0.44036 0.97296 0.0
H1347 H 0.81088 0.45923 0.8999 0.0
H1348 H 0.77612 0.526 0.88599 0.0
H1349 H 0.76877 0.52677 0.96694 0.0
C1350 C 0.78619 0.4962 1.02702 0.0
C1351 C 0.79772 0.47957 1.05392 0.0
C1352 C 0.78603 0.49373 0.98004 0.0
C1353 C 0.80574 0.45871 1.03421 0.0
C1354 C 0.80513 0.45587 0.98763 0.0
C1355 C 0.80086 0.47361 0.9138 0.0
C1356 C 0.79488 0.49296 0.8868 0.0
C1357 C 0.79671 0.47397 0.96023 0.0
C1358 C 0.78183 0.51128 0.90615 0.0
C1359 C 0.77747 0.51169 0.95245 0.0
H1360 H 0.27544 0.05671 0.79297 0.0
H1361 H 0.20195 0.07399 0.79618 0.0
H1362 H 0.19891 0.06764 0.71574 0.0
H1363 H 0.2191 0.0674 0.64364 0.0
H1364 H 0.29352 0.05485 0.63834 0.0
H1365 H 0.29437 0.04909 0.71996 0.0
C1366 C 0.2587 0.05859 0.77607 0.0
C1367 C 0.23898 0.06599 0.80051 0.0
C1368 C 0.25741 0.05626 0.72913 0.0
C1369 C 0.21729 0.06794 0.77843 0.0
C1370 C 0.21562 0.06466 0.73214 0.0
C1371 C 0.23533 0.06242 0.66006 0.0
C1372 C 0.25629 0.06207 0.63542 0.0
C1373 C 0.23583 0.06021 0.70694 0.0
C1374 C 0.27723 0.05566 0.65704 0.0
C1375 C 0.27774 0.0525 0.70364 0.0
H1376 H 0.69681 0.4748 0.39568 0.0
H1377 H 0.68234 0.5485 0.37812 0.0
H1378 H 0.6849 0.55449 0.45879 0.0
H1379 H 0.68181 0.53743 0.53432 0.0
H1380 H 0.68966 0.46287 0.55146 0.0
H1381 H 0.699 0.45857 0.4718 0.0
C1382 C 0.69439 0.49222 0.40943 0.0
C1383 C 0.68865 0.51094 0.38069 0.0
C1384 C 0.69422 0.49532 0.45623 0.0
C1385 C 0.68666 0.5336 0.39904 0.0
C1386 C 0.68779 0.53706 0.44548 0.0
C1387 C 0.686 0.52033 0.52066 0.0
C1388 C 0.68479 0.50048 0.54852 0.0
C1389 C 0.69007 0.51782 0.47439 0.0
C1390 C 0.69067 0.47846 0.53076 0.0
C1391 C 0.69575 0.47595 0.48506 0.0
H1392 H 0.20609 0.91603 0.30205 0.0
H1393 H 0.2727 0.95169 0.30412 0.0
H1394 H 0.26997 0.95891 0.22316 0.0
H1395 H 0.25214 0.94814 0.15069 0.0
H1396 H 0.18651 0.91031 0.14942 0.0
H1397 H 0.18463 0.91214 0.23109 0.0
C1398 C 0.21959 0.92614 0.28512 0.0
C1399 C 0.23993 0.93274 0.30859 0.0
C1400 C 0.21806 0.92975 0.23852 0.0
C1401 C 0.25726 0.94584 0.28626 0.0
C1402 C 0.25565 0.94999 0.24006 0.0
C1403 C 0.23725 0.94064 0.1683 0.0
C1404 C 0.21989 0.92854 0.144 0.0
C1405 C 0.23675 0.94085 0.21551 0.0
C1406 C 0.20025 0.91963 0.16712 0.0
C1407 C 0.19926 0.92042 0.21402 0.0
H1408 H 0.68447 0.01311 1.03715 0.0
H1409 H 0.68241 0.93762 1.04579 0.0
H1410 H 0.68672 0.93486 0.96419 0.0
H1411 H 0.68141 0.95412 0.89119 0.0
H1412 H 0.68346 0.02944 0.88248 0.0
H1413 H 0.68935 0.03205 0.96386 0.0
C1414 C 0.6859 0.99599 1.0216 0.0
C1415 C 0.68225 0.97561 1.04737 0.0
C1416 C 0.68795 0.99453 0.97468 0.0
C1417 C 0.68432 0.9536 1.02647 0.0
C1418 C 0.68677 0.952 0.97985 0.0
C1419 C 0.68408 0.97105 0.90691 0.0
C1420 C 0.68169 0.99155 0.88121 0.0
C1421 C 0.68706 0.97238 0.95358 0.0
C1422 C 0.68517 0.01343 0.90174 0.0
C1423 C 0.68834 0.01492 0.94828 0.0
H1424 H 0.28805 0.42247 0.14005 0.0
H1425 H 0.21891 0.4522 0.12787 0.0
H1426 H 0.21582 0.45437 0.20992 0.0
H1427 H 0.22987 0.44058 0.28376 0.0
H1428 H 0.29816 0.40861 0.29353 0.0
H1429 H 0.30484 0.41551 0.21382 0.0
C1430 C 0.27266 0.43033 0.15501 0.0
C1431 C 0.25354 0.43668 0.12781 0.0
C1432 C 0.27078 0.43093 0.20194 0.0
C1433 C 0.23366 0.44664 0.14813 0.0
C1434 C 0.23187 0.44787 0.19502 0.0
C1435 C 0.24639 0.43557 0.2685 0.0
C1436 C 0.26327 0.42367 0.29428 0.0
C1437 C 0.24983 0.43883 0.22215 0.0
C1438 C 0.28485 0.4178 0.27451 0.0
C1439 C 0.28864 0.42156 0.22875 0.0
H1440 H 0.80482 0.02663 0.38693 0.0
H1441 H 0.82284 0.95381 0.37207 0.0
H1442 H 0.8182 0.94788 0.45304 0.0
H1443 H 0.81862 0.96565 0.52761 0.0
H1444 H 0.80139 0.03882 0.54329 0.0
H1445 H 0.796 0.04238 0.46203 0.0
C1446 C 0.80694 0.00933 0.40137 0.0
C1447 C 0.81461 0.9908 0.37406 0.0
C1448 C 0.80497 0.00627 0.44798 0.0
C1449 C 0.81705 0.96835 0.39265 0.0
C1450 C 0.81464 0.96502 0.43897 0.0
C1451 C 0.81277 0.9822 0.51377 0.0
C1452 C 0.81124 0.00215 0.54145 0.0
C1453 C 0.81002 0.98419 0.4671 0.0
C1454 C 0.80356 0.02339 0.52254 0.0
C1455 C 0.8004 0.02543 0.4761 0.0
H1456 H 0.20816 0.56126 0.64315 0.0
H1457 H 0.28336 0.56596 0.63159 0.0
H1458 H 0.28739 0.55902 0.7123 0.0
H1459 H 0.26916 0.56117 0.78647 0.0
H1460 H 0.19384 0.55761 0.79884 0.0
H1461 H 0.19021 0.55435 0.7171 0.0
C1462 C 0.22543 0.56001 0.65815 0.0
C1463 C 0.2454 0.56454 0.63179 0.0
C1464 C 0.22756 0.55672 0.70468 0.0
C1465 C 0.26773 0.56261 0.65129 0.0
C1466 C 0.27003 0.55887 0.69751 0.0
C1467 C 0.25197 0.55869 0.77167 0.0
C1468 C 0.23177 0.56031 0.79866 0.0
C1469 C 0.25001 0.55728 0.72476 0.0
C1470 C 0.20964 0.55714 0.77864 0.0
C1471 C 0.20755 0.55525 0.73194 0.0
H1472 H 0.33712 0.9373 0.54074 0.0
H1473 H 0.29458 -0.00075 0.55382 0.0
H1474 H 0.2813 0.99486 0.47603 0.0
H1475 H 0.289 0.97865 0.40105 0.0
H1476 H 0.33547 0.91953 0.38758 0.0
H1477 H 0.33846 0.91644 0.46885 0.0
C1478 C 0.32429 0.94935 0.52713 0.0
C1479 C 0.31731 0.96892 0.55246 0.0
C1480 C 0.3174 0.94719 0.48203 0.0
C1481 C 0.30066 0.98439 0.53442 0.0
C1482 C 0.29305 0.98187 0.49002 0.0
C1483 C 0.29945 0.96485 0.41598 0.0
C1484 C 0.31267 0.94998 0.38816 0.0
C1485 C 0.30247 0.96418 0.4628 0.0
C1486 C 0.32526 0.93146 0.40793 0.0
C1487 C 0.3273 0.92987 0.45462 0.0
H1488 H 0.74526 0.52691 0.14927 0.0
H1489 H 0.80705 0.57027 0.13735 0.0
H1490 H 0.81402 0.56693 0.21778 0.0
H1491 H 0.7967 0.56083 0.29225 0.0
H1492 H 0.73342 0.52009 0.30563 0.0
H1493 H 0.7327 0.5134 0.22422 0.0
C1494 C 0.76053 0.53518 0.16422 0.0
C1495 C 0.77517 0.54937 0.13755 0.0
C1496 C 0.7638 0.53419 0.21101 0.0
C1497 C 0.79533 0.55938 0.15702 0.0
C1498 C 0.79922 0.55771 0.20326 0.0
C1499 C 0.78329 0.54968 0.27761 0.0
C1500 C 0.76466 0.54161 0.30444 0.0
C1501 C 0.78271 0.5465 0.23082 0.0
C1502 C 0.74746 0.52712 0.28513 0.0
C1503 C 0.74709 0.52329 0.23869 0.0
H1504 H 0.16625 0.03687 0.05686 0.0
H1505 H 0.20565 0.97255 0.05742 0.0
H1506 H 0.21238 0.97624 0.9763 0.0
H1507 H 0.20073 0.99399 0.90436 0.0
H1508 H 0.15704 0.05575 0.90526 0.0
H1509 H 0.15968 0.05765 0.98652 0.0
C1510 C 0.17707 0.02411 1.0396 0.0
C1511 C 0.18514 0.00428 0.06279 0.0
C1512 C 0.18003 0.02588 0.99297 0.0
C1513 C 0.19893 0.98776 1.03993 0.0
C1514 C 0.20273 0.98986 0.99362 0.0
C1515 C 0.1919 0.00795 0.92229 0.0
C1516 C 0.1782 0.02426 0.89847 0.0
C1517 C 0.19225 0.00819 0.9695 0.0
C1518 C 0.1677 0.04282 0.92224 0.0
C1519 C 0.16895 0.04382 0.96903 0.0
H1520 H 0.72015 0.43835 0.63091 0.0
H1521 H 0.79422 0.45306 0.64073 0.0
H1522 H 0.79025 0.45886 0.72176 0.0
H1523 H 0.76745 0.45134 0.7901 0.0
H1524 H 0.69356 0.43607 0.78001 0.0
H1525 H 0.69583 0.43894 0.69819 0.0
C1526 C 0.7353 0.44383 0.65031 0.0
C1527 C 0.75754 0.44481 0.62995 0.0
C1528 C 0.73301 0.44663 0.6969 0.0
C1529 C 0.77699 0.45173 0.65582 0.0
C1530 C 0.77474 0.45504 0.70217 0.0
C1531 C 0.75161 0.44977 0.77029 0.0
C1532 C 0.73052 0.44294 0.79105 0.0
C1533 C 0.75307 0.4513 0.72329 0.0
C1534 C 0.71016 0.44075 0.7647 0.0
C1535 C 0.71142 0.44247 0.71794 0.0
H1536 H 0.13623 0.3468 0.38921 0.0
H1537 H 0.14327 0.41212 0.46022 0.0
H1538 H 0.12936 0.43331 0.39359 0.0
H1539 H 0.11814 0.43373 0.31294 0.0
H1540 H 0.10984 0.36866 0.24145 0.0
H1541 H 0.12111 0.34699 0.30984 0.0
C1542 C 0.13381 0.36558 0.39074 0.0
C1543 C 0.14003 0.37766 0.43088 0.0
C1544 C 0.12611 0.37778 0.3515 0.0
C1545 C 0.13781 0.40218 0.43095 0.0
C1546 C 0.13019 0.41437 0.39237 0.0
C1547 C 0.11889 0.41479 0.3121 0.0
C1548 C 0.11366 0.40297 0.27122 0.0
C1549 C 0.12485 0.40244 0.35207 0.0
C1550 C 0.11398 0.37834 0.27178 0.0
C1551 C 0.12041 0.36594 0.31114 0.0
H1552 H 0.89225 0.88676 0.64278 0.0
H1553 H 0.82618 0.89926 0.70846 0.0
H1554 H 0.80528 0.88607 0.64105 0.0
H1555 H 0.80545 0.87369 0.56137 0.0
H1556 H 0.87097 0.86005 0.49452 0.0
H1557 H 0.89227 0.87084 0.56371 0.0
C1558 C 0.87328 0.88564 0.64302 0.0
C1559 C 0.86089 0.89316 0.68199 0.0
C1560 C 0.86123 0.87841 0.60316 0.0
C1561 C 0.83626 0.89273 0.68022 0.0
C1562 C 0.82427 0.88554 0.64116 0.0
C1563 C 0.82443 0.87324 0.56159 0.0
C1564 C 0.83649 0.86663 0.52176 0.0
C1565 C 0.83651 0.87889 0.60203 0.0
C1566 C 0.8611 0.86535 0.52393 0.0
C1567 C 0.8733 0.87147 0.56379 0.0
H1568 H 0.36228 0.64668 0.89335 0.0
H1569 H 0.33801 0.57917 0.93875 0.0
H1570 H 0.35006 0.56156 0.86759 0.0
H1571 H 0.3651 0.5653 0.79022 0.0
H1572 H 0.39161 0.63173 0.74372 0.0
H1573 H 0.38113 0.64962 0.81649 0.0
C1574 C 0.36051 0.62795 0.8884 0.0
C1575 C 0.34968 0.61422 0.92264 0.0
C1576 C 0.36733 0.61778 0.84629 0.0
C1577 C 0.3467 0.59014 0.91407 0.0
C1578 C 0.35335 0.58006 0.87287 0.0
C1579 C 0.3685 0.58378 0.79564 0.0
C1580 C 0.37866 0.59719 0.76039 0.0
C1581 C 0.36316 0.59375 0.83827 0.0
C1582 C 0.38351 0.62094 0.76939 0.0
C1583 C 0.3776 0.63116 0.81136 0.0
H1584 H 0.68577 0.10516 1.04585 0.0
H1585 H 0.62493 0.14349 1.00233 0.0
H1586 H 0.60511 0.13377 0.07367 0.0
H1587 H 0.60469 0.11278 0.14891 0.0
H1588 H 0.66691 0.07596 0.19021 0.0
H1589 H 0.68624 0.08694 0.12039 0.0
C1590 C 0.66808 0.11136 1.05141 0.0
C1591 C 0.65687 0.12472 1.01739 0.0
C1592 C 0.65706 0.10632 0.09322 0.0
C1593 C 0.63407 0.13286 1.02685 0.0
C1594 C 0.62275 0.12744 0.06813 0.0
C1595 C 0.62277 0.10792 0.1434 0.0
C1596 C 0.63434 0.09384 0.17614 0.0
C1597 C 0.63406 0.11416 0.10189 0.0
C1598 C 0.6576 0.0872 0.1669 0.0
C1599 C 0.6687 0.09328 0.12641 0.0
H1600 H 0.08659 0.60139 0.63666 0.0
H1601 H 0.15475 0.58467 0.6909 0.0
H1602 H 0.17292 0.59492 0.61974 0.0
H1603 H 0.17049 0.60808 0.54216 0.0
H1604 H 0.10395 0.62769 0.48491 0.0
H1605 H 0.08447 0.6167 0.55615 0.0
C1606 C 0.10547 0.6005 0.63328 0.0
C1607 C 0.11912 0.59234 0.67042 0.0
C1608 C 0.11625 0.60662 0.59108 0.0
C1609 C 0.14356 0.59095 0.66405 0.0
C1610 C 0.1541 0.59675 0.62287 0.0
C1611 C 0.15164 0.60995 0.54446 0.0
C1612 C 0.13891 0.61857 0.50677 0.0
C1613 C 0.14071 0.60439 0.58605 0.0
C1614 C 0.11446 0.62092 0.51229 0.0
C1615 C 0.10329 0.61476 0.55352 0.0
H1616 H 0.63157 0.921 0.79651 0.0
H1617 H 0.61649 0.85419 0.73515 0.0
H1618 H 0.62817 0.83446 0.80571 0.0
H1619 H 0.64334 0.83648 0.88625 0.0
H1620 H 0.65624 0.90468 0.94405 0.0
H1621 H 0.64462 0.92322 0.87401 0.0
C1622 C 0.63086 0.90204 0.79775 0.0
C1623 C 0.62332 0.8893 0.75921 0.0
C1624 C 0.63702 0.89094 0.83869 0.0
C1625 C 0.62233 0.86471 0.76335 0.0
C1626 C 0.62895 0.8534 0.80409 0.0
C1627 C 0.64308 0.85541 0.88386 0.0
C1628 C 0.65058 0.86903 0.92153 0.0
C1629 C 0.63627 0.86633 0.84235 0.0
C1630 C 0.65055 0.89356 0.91658 0.0
C1631 C 0.64395 0.90429 0.87613 0.0
H1632 H 0.40345 0.38095 0.14424 0.0
H1633 H 0.34273 0.42242 0.17785 0.0
H1634 H 0.32534 0.4134 0.10545 0.0
H1635 H 0.32618 0.39397 1.03281 0.0
H1636 H 0.38504 0.35088 0.99595 0.0
H1637 H 0.40407 0.36052 0.06816 0.0
C1638 C 0.38621 0.38764 0.13614 0.0
C1639 C 0.37442 0.40216 0.16798 0.0
C1640 C 0.37592 0.38237 0.09315 0.0
C1641 C 0.3523 0.41098 0.15541 0.0
C1642 C 0.34225 0.40593 0.11346 0.0
C1643 C 0.34333 0.38673 1.03978 0.0
C1644 C 0.35407 0.3718 1.00759 0.0
C1645 C 0.35383 0.39176 0.08199 0.0
C1646 C 0.37625 0.36265 1.01895 0.0
C1647 C 0.38708 0.36802 0.0608 0.0
H1648 H 0.81488 0.1277 0.37308 0.0
H1649 H 0.88159 0.13919 0.43684 0.0
H1650 H 0.90162 0.12926 0.36572 0.0
H1651 H 0.89999 0.1142 0.2859 0.0
H1652 H 0.83252 0.10253 0.22471 0.0
H1653 H 0.81308 0.11572 0.29353 0.0
C1654 C 0.83382 0.12779 0.37175 0.0
C1655 C 0.84661 0.13357 0.41112 0.0
C1656 C 0.84512 0.1223 0.33053 0.0
C1657 C 0.87119 0.13459 0.40764 0.0
C1658 C 0.88264 0.1289 0.36675 0.0
C1659 C 0.88105 0.11542 0.28706 0.0
C1660 C 0.8678 0.10807 0.249 0.0
C1661 C 0.86982 0.12247 0.32789 0.0
C1662 C 0.84322 0.10873 0.25242 0.0
C1663 C 0.83206 0.11598 0.29221 0.0
H1664 H 0.85921 0.56468 0.13339 0.0
H1665 H 0.87819 0.63097 0.19202 0.0
H1666 H 0.86706 0.6509 0.12146 0.0
H1667 H 0.85046 0.64935 1.0424 0.0
H1668 H 0.8337 0.58178 0.98573 0.0
H1669 H 0.84569 0.56272 0.05535 0.0
C1670 C 0.86067 0.58355 0.13127 0.0
C1671 C 0.86897 0.59622 0.16909 0.0
C1672 C 0.85487 0.59473 0.09016 0.0
C1673 C 0.87154 0.62064 0.16423 0.0
C1674 C 0.86524 0.63204 0.12357 0.0
C1675 C 0.84995 0.63042 1.0449 0.0
C1676 C 0.84116 0.61712 1.00798 0.0
C1677 C 0.85681 0.61929 0.08605 0.0
C1678 C 0.84029 0.59261 1.0129 0.0
C1679 C 0.84705 0.58162 1.05306 0.0
H1680 H 0.08732 0.10634 0.79143 0.0
H1681 H 0.15534 0.09413 0.7326 0.0
H1682 H 0.17409 0.10546 0.80297 0.0
H1683 H 0.17206 0.11689 0.88188 0.0
H1684 H 0.10521 0.13089 0.94386 0.0
H1685 H 0.08545 0.12021 0.87278 0.0
C1686 C 0.10626 0.10649 0.79376 0.0
C1687 C 0.11976 0.09936 0.75565 0.0
C1688 C 0.11728 0.11271 0.83564 0.0
C1689 C 0.14431 0.0995 0.76042 0.0
C1690 C 0.15515 0.10579 0.80112 0.0
C1691 C 0.15309 0.11752 0.8806 0.0
C1692 C 0.14035 0.12447 0.9196 0.0
C1693 C 0.1419 0.11199 0.8392 0.0
C1694 C 0.11574 0.12543 0.91542 0.0
C1695 C 0.10439 0.11941 0.87434 0.0
H1696 H 0.64609 0.34493 0.53788 0.0
H1697 H 0.67289 0.41193 0.49394 0.0
H1698 H 0.6597 0.42984 0.56374 0.0
H1699 H 0.64187 0.42706 0.63776 0.0
H1700 H 0.61335 0.36138 0.6846 0.0
H1701 H 0.62627 0.34254 0.61415 0.0
C1702 C 0.64854 0.36356 0.54312 0.0
C1703 C 0.66031 0.37702 0.50958 0.0
C1704 C 0.64108 0.37399 0.58457 0.0
C1705 C 0.66379 0.40103 0.51821 0.0
C1706 C 0.65638 0.41134 0.55857 0.0
C1707 C 0.63847 0.40851 0.63332 0.0
C1708 C 0.62675 0.39577 0.66776 0.0
C1709 C 0.64533 0.398 0.59223 0.0
C1710 C 0.62252 0.37179 0.6597 0.0
C1711 C 0.62978 0.36102 0.61895 0.0
H1712 H 0.32262 0.86601 0.37485 0.0
H1713 H 0.38853 0.8606 0.44475 0.0
H1714 H 0.40928 0.87144 0.37472 0.0
H1715 H 0.40847 0.88382 0.29235 0.0
H1716 H 0.34146 0.8879 0.22567 0.0
H1717 H 0.32181 0.87582 0.29472 0.0
C1718 C 0.34157 0.86733 0.37539 0.0
C1719 C 0.35374 0.86284 0.4163 0.0
C1720 C 0.35338 0.87311 0.3347 0.0
C1721 C 0.37842 0.86411 0.41467 0.0
C1722 C 0.39034 0.8703 0.37425 0.0
C1723 C 0.38961 0.88167 0.29268 0.0
C1724 C 0.37663 0.88682 0.25276 0.0
C1725 C 0.37803 0.87494 0.33376 0.0
C1726 C 0.35212 0.88411 0.25496 0.0
C1727 C 0.34075 0.87727 0.29485 0.0
H1728 H 0.89589 0.39238 0.7886 0.0
H1729 H 0.83017 0.41946 0.73922 0.0
H1730 H 0.81079 0.40749 0.80839 0.0
H1731 H 0.81188 0.3903 0.88384 0.0
H1732 H 0.87587 0.36019 0.93414 0.0
H1733 H 0.89623 0.37222 0.86456 0.0
C1734 C 0.87723 0.39516 0.79247 0.0
C1735 C 0.86469 0.40696 0.75777 0.0
C1736 C 0.86579 0.38794 0.83319 0.0
C1737 C 0.84052 0.41061 0.7646 0.0
C1738 C 0.82931 0.40379 0.80455 0.0
C1739 C 0.83038 0.38647 0.88012 0.0
C1740 C 0.8423 0.37471 0.91538 0.0
C1741 C 0.84175 0.39275 0.83935 0.0
C1742 C 0.86614 0.36944 0.90841 0.0
C1743 C 0.87779 0.37627 0.86826 0.0
H1744 H 0.33318 0.14178 0.55909 0.0
H1745 H 0.377 0.10263 0.4682 0.0
H1746 H 0.39616 0.08378 0.53307 0.0
H1747 H 0.39823 0.07603 0.61588 0.0
H1748 H 0.356 0.11691 0.70675 0.0
H1749 H 0.33861 0.13748 0.64204 0.0
C1750 C 0.34725 0.12942 0.5533 0.0
C1751 C 0.35357 0.12378 0.50811 0.0
C1752 C 0.35833 0.11878 0.59108 0.0
C1753 C 0.37184 0.10765 0.50193 0.0
C1754 C 0.38266 0.09669 0.53929 0.0
C1755 C 0.38546 0.08971 0.62172 0.0
C1756 C 0.37849 0.09477 0.66682 0.0
C1757 C 0.37576 0.10175 0.58403 0.0
C1758 C 0.36195 0.11266 0.67311 0.0
C1759 C 0.35187 0.12433 0.63582 0.0
H1760 H 0.60003 0.60673 0.28832 0.0
H1761 H 0.66651 0.59562 0.22312 0.0
H1762 H 0.68703 0.60716 0.29183 0.0
H1763 H 0.68652 0.61731 0.37238 0.0
H1764 H 0.62079 0.63042 0.43889 0.0
H1765 H 0.59971 0.62108 0.36866 0.0
C1766 C 0.619 0.60787 0.28851 0.0
C1767 C 0.63162 0.60106 0.24935 0.0
C1768 C 0.63089 0.61416 0.32917 0.0
C1769 C 0.65625 0.60152 0.25164 0.0
C1770 C 0.66805 0.60774 0.29142 0.0
C1771 C 0.66754 0.61806 0.37178 0.0
C1772 C 0.65534 0.62404 0.41175 0.0
C1773 C 0.65561 0.61348 0.33076 0.0
C1774 C 0.63075 0.62557 0.40929 0.0
C1775 C 0.61868 0.62032 0.36884 0.0
H1776 H 0.14778 0.83981 1.05407 0.0
H1777 H 0.12169 0.89594 0.97145 0.0
H1778 H 0.10448 0.91445 1.03836 0.0
H1779 H 0.09999 0.91669 0.12133 0.0
H1780 H 0.12489 0.86024 0.20474 0.0
H1781 H 0.13922 0.83982 0.13697 0.0
C1782 C 0.13761 0.85567 1.05037 0.0
C1783 C 0.13552 0.866 1.00685 0.0
C1784 C 0.12789 0.86638 0.08955 0.0
C1785 C 0.12298 0.88707 1.0036 0.0
C1786 C 0.11341 0.89785 1.04223 0.0
C1787 C 0.10828 0.89973 0.12489 0.0
C1788 C 0.11138 0.89019 0.16882 0.0
C1789 C 0.11621 0.88798 0.08552 0.0
C1790 C 0.12206 0.8681 0.172 0.0
C1791 C 0.13039 0.85646 0.133 0.0
H1792 H 0.95027 0.50555 0.18435 0.0
H1793 H 0.97026 0.51403 0.32378 0.0
H1794 H 0.01147 0.50917 0.30323 0.0
H1795 H 0.04117 0.50256 0.24606 0.0
H1796 H 0.02116 0.49288 0.10694 0.0
H1797 H 0.98011 0.49965 0.12686 0.0
C1798 C 0.96358 0.50592 0.21045 0.0
C1799 C 0.95734 0.50978 0.25562 0.0
C1800 C 0.98705 0.50384 0.19824 0.0
C1801 C 0.97476 0.51079 0.28888 0.0
C1802 C -0.00176 0.50833 0.27708 0.0
C1803 C 0.02795 0.50247 0.21979 0.0
C1804 C 0.03409 0.49738 0.17502 0.0
C1805 C 0.00452 0.50513 0.23182 0.0
C1806 C 0.01674 0.49694 0.14156 0.0
C1807 C 0.99334 0.50045 0.15304 0.0
H1808 H 0.74492 0.78961 0.50032 0.0
H1809 H 0.74769 0.77177 0.35909 0.0
H1810 H 0.746 0.7301 0.37817 0.0
H1811 H 0.74594 0.69929 0.43497 0.0
H1812 H 0.74273 0.71714 0.57617 0.0
H1813 H 0.74405 0.75881 0.55707 0.0
C1814 C 0.74465 0.77665 0.47361 0.0
C1815 C 0.74633 0.7836 0.42836 0.0
C1816 C 0.74473 0.75295 0.4849 0.0
C1817 C 0.7463 0.76667 0.39415 0.0
C1818 C 0.74568 0.74294 0.40506 0.0
C1819 C 0.74593 0.71226 0.46165 0.0
C1820 C 0.74451 0.70529 0.50693 0.0
C1821 C 0.74554 0.73596 0.45035 0.0
C1822 C 0.74412 0.72224 0.54111 0.0
C1823 C 0.7445 0.74597 0.53019 0.0
H1824 H 0.54541 0.49349 0.70316 0.0
H1825 H 0.5148 0.47216 0.82945 0.0
H1826 H 0.47608 0.48456 0.80321 0.0
H1827 H 0.45126 0.49779 0.74249 0.0
H1828 H 0.48122 0.51759 0.61417 0.0
H1829 H 0.52034 0.50807 0.64244 0.0
C1830 C 0.53031 0.49244 0.72535 0.0
C1831 C 0.53259 0.48264 0.76834 0.0
C1832 C 0.50818 0.49812 0.70897 0.0
C1833 C 0.51312 0.48029 0.79662 0.0
C1834 C 0.49111 0.48691 0.78131 0.0
C1835 C 0.46623 0.49977 0.72027 0.0
C1836 C 0.4634 0.50809 0.6761 0.0
C1837 C 0.48842 0.49503 0.73704 0.0
C1838 C 0.48304 0.51089 0.64814 0.0
C1839 C 0.50535 0.50581 0.66445 0.0
H1840 H 0.75031 0.20581 0.9977 0.0
H1841 H 0.74052 0.22438 0.85791 0.0
H1842 H 0.74463 0.26586 0.87701 0.0
H1843 H 0.74878 0.29638 0.93383 0.0
H1844 H 0.75805 0.27771 0.07374 0.0
H1845 H 0.75511 0.23623 1.05427 0.0
C1846 C 0.74958 0.21886 0.97118 0.0
C1847 C 0.74533 0.21215 0.92641 0.0
C1848 C 0.7509 0.24248 0.98266 0.0
C1849 C 0.74401 0.22924 0.89255 0.0
C1850 C 0.74602 0.25288 0.90354 0.0
C1851 C 0.74977 0.28329 0.96023 0.0
C1852 C 0.75333 0.29 1.00524 0.0
C1853 C 0.74885 0.25965 0.94862 0.0
C1854 C 0.75502 0.27285 1.03894 0.0
C1855 C 0.75365 0.24921 1.02777 0.0
H1856 H 0.95314 0.49159 0.74929 0.0
H1857 H 0.9706 0.49357 0.60784 0.0
H1858 H 0.01226 0.49713 0.62674 0.0
H1859 H 0.04314 0.49943 0.68348 0.0
H1860 H 0.02539 0.4975 0.82482 0.0
H1861 H 0.98401 0.49242 0.80577 0.0
C1862 C 0.966 0.49321 0.72255 0.0
C1863 C 0.95896 0.49277 0.67727 0.0
C1864 C 0.98971 0.49415 0.73362 0.0
C1865 C 0.97578 0.49427 0.64294 0.0
C1866 C -0.0005 0.49592 0.65371 0.0
C1867 C 0.03031 0.49723 0.71012 0.0
C1868 C 0.03715 0.49865 0.75546 0.0
C1869 C 0.00662 0.49552 0.69893 0.0
C1870 C 0.02038 0.49622 0.7897 0.0
C1871 C 0.99678 0.49373 0.77883 0.0
H1872 H 0.75573 0.70417 0.99794 0.0
H1873 H 0.75399 0.72132 0.85636 0.0
H1874 H 0.74866 0.7628 0.875 0.0
H1875 H 0.74483 0.79366 0.93172 0.0
H1876 H 0.74676 0.77603 0.07312 0.0
H1877 H 0.75327 0.7349 1.05422 0.0
C1878 C 0.75375 0.7169 0.97107 0.0
C1879 C 0.75475 0.70981 0.92585 0.0
C1880 C 0.75177 0.74052 0.98203 0.0
C1881 C 0.75286 0.7265 0.8914 0.0
C1882 C 0.75017 0.75014 0.90205 0.0
C1883 C 0.7473 0.78092 0.9584 0.0
C1884 C 0.74557 0.78774 1.00375 0.0
C1885 C 0.74995 0.75732 0.94727 0.0
C1886 C 0.74831 0.77106 1.03802 0.0
C1887 C 0.75164 0.74759 1.02723 0.0
H1888 H 0.48773 0.4526 0.25605 0.0
H1889 H 0.45608 0.51809 0.29411 0.0
H1890 H 0.48907 0.53959 0.26125 0.0
H1891 H 0.52255 0.53947 0.21176 0.0
H1892 H 0.55332 0.47436 0.16759 0.0
H1893 H 0.52397 0.45253 0.21126 0.0
C1894 C 0.48866 0.47154 0.25855 0.0
C1895 C 0.46999 0.48399 0.27755 0.0
C1896 C 0.50658 0.48362 0.23651 0.0
C1897 C 0.47068 0.50843 0.28009 0.0
C1898 C 0.48919 0.52061 0.26056 0.0
C1899 C 0.52282 0.52048 0.21114 0.0
C1900 C 0.53956 0.50843 0.18543 0.0
C1901 C 0.50643 0.50835 0.23664 0.0
C1902 C 0.54016 0.4839 0.18636 0.0
C1903 C 0.52363 0.47151 0.21167 0.0
H1904 H 0.74173 0.19614 0.43818 0.0
H1905 H 0.74997 0.21665 0.57738 0.0
H1906 H 0.74407 0.2576 0.55658 0.0
H1907 H 0.74188 0.28724 0.49818 0.0
H1908 H 0.73486 0.26717 0.35852 0.0
H1909 H 0.73629 0.2258 0.38019 0.0
C1910 C 0.74153 0.20945 0.46425 0.0
C1911 C 0.74649 0.20353 0.5092 0.0
C1912 C 0.73953 0.23287 0.45172 0.0
C1913 C 0.74624 0.22093 0.54255 0.0
C1914 C 0.74327 0.24429 0.53058 0.0
C1915 C 0.74095 0.27387 0.47228 0.0
C1916 C 0.73888 0.2801 0.4267 0.0
C1917 C 0.74107 0.25043 0.48506 0.0
C1918 C 0.73695 0.26263 0.39373 0.0
C1919 C 0.73742 0.23909 0.40616 0.0
H1920 H 0.28813 0.26709 0.96391 0.0
H1921 H 0.22737 0.29848 0.90214 0.0
H1922 H 0.20203 0.26956 0.93926 0.0
H1923 H 0.19779 0.23517 0.9876 0.0
H1924 H 0.25887 0.20376 1.04819 0.0
H1925 H 0.28375 0.23404 1.01465 0.0
C1926 C 0.26938 0.26739 0.95791 0.0
C1927 C 0.25953 0.2844 0.92963 0.0
C1928 C 0.25511 0.25136 0.98022 0.0
C1929 C 0.2352 0.28517 0.92329 0.0
C1930 C 0.2208 0.26889 0.94482 0.0
C1931 C 0.21647 0.23531 0.99438 0.0
C1932 C 0.22663 0.21746 1.02027 0.0
C1933 C 0.23061 0.25202 0.9735 0.0
C1934 C 0.25083 0.21749 1.02837 0.0
C1935 C 0.265 0.23455 1.00882 0.0
H1936 H 0.19755 0.72871 0.45001 0.0
H1937 H 0.25738 0.69893 0.38202 0.0
H1938 H 0.2829 0.72844 0.41626 0.0
H1939 H 0.28814 0.76098 0.46785 0.0
H1940 H 0.22855 0.79126 0.53562 0.0
H1941 H 0.20269 0.76227 0.50009 0.0
C1942 C 0.21609 0.72903 0.44183 0.0
C1943 C 0.22571 0.71195 0.4134 0.0
C1944 C 0.2306 0.74541 0.46271 0.0
C1945 C 0.24975 0.71213 0.40371 0.0
C1946 C 0.26429 0.72874 0.4236 0.0
C1947 C 0.26955 0.76097 0.47556 0.0
C1948 C 0.26016 0.77774 0.50489 0.0
C1949 C 0.25494 0.74503 0.45394 0.0
C1950 C 0.23602 0.77814 0.51355 0.0
C1951 C 0.22131 0.76183 0.49294 0.0
H1952 H 0.24307 0.19836 0.46417 0.0
H1953 H 0.28486 0.23896 0.37134 0.0
H1954 H 0.26988 0.27522 0.40428 0.0
H1955 H 0.24629 0.29498 0.46141 0.0
H1956 H 0.20465 0.25437 0.5544 0.0
H1957 H 0.21904 0.21809 0.52049 0.0
C1958 C 0.24838 0.21515 0.45034 0.0
C1959 C 0.26472 0.21618 0.41511 0.0
C1960 C 0.24052 0.23571 0.47059 0.0
C1961 C 0.27202 0.23794 0.39818 0.0
C1962 C 0.26376 0.25857 0.41737 0.0
C1963 C 0.24088 0.27816 0.47496 0.0
C1964 C 0.22494 0.2771 0.51082 0.0
C1965 C 0.24848 0.2576 0.45429 0.0
C1966 C 0.2173 0.25536 0.52724 0.0
C1967 C 0.22523 0.23474 0.50751 0.0
H1968 H 0.2907 0.73079 0.99453 0.0
H1969 H 0.22703 0.69162 1.01946 0.0
H1970 H 0.20417 0.72278 0.9843 0.0
H1971 H 0.20279 0.75963 0.944 0.0
H1972 H 0.26638 0.79881 0.91856 0.0
H1973 H 0.28924 0.76805 0.95534 0.0
C1974 C 0.27178 0.72912 0.99303 0.0
C1975 C 0.2605 0.70893 1.0095 0.0
C1976 C 0.25899 0.74655 0.97153 0.0
C1977 C 0.23603 0.70705 1.00704 0.0
C1978 C 0.22304 0.72468 0.98656 0.0
C1979 C 0.22171 0.76136 0.94565 0.0
C1980 C 0.23302 0.78126 0.92807 0.0
C1981 C 0.23446 0.74416 0.96782 0.0
C1982 C 0.25742 0.78346 0.93149 0.0
C1983 C 0.27039 0.76607 0.95286 0.0
H1984 H 0.45637 0.99601 0.69826 0.0
H1985 H 0.49416 0.02501 0.81099 0.0
H1986 H 0.53146 0.01383 0.77614 0.0
H1987 H 0.55275 0.99537 0.71402 0.0
H1988 H 0.51467 0.96618 0.60182 0.0
H1989 H 0.47765 0.97935 0.6347 0.0
C1990 C 0.47278 -0.00076 0.71569 0.0
C1991 C 0.4728 0.01044 0.75762 0.0
C1992 C 0.49388 0.99386 0.69456 0.0
C1993 C 0.49401 0.01567 0.77922 0.0
C1994 C 0.5152 0.00972 0.75897 0.0
C1995 C 0.53638 0.99276 0.69604 0.0
C1996 C 0.53616 0.98033 0.6554 0.0
C1997 C 0.5153 -0.00091 0.7164 0.0
C1998 C 0.51499 0.97622 0.63279 0.0
C1999 C 0.49392 0.98326 0.65201 0.0
H2000 H 0.00909 0.95594 0.23422 0.0
H2001 H 0.04598 0.01763 0.28029 0.0
H2002 H 0.01676 0.04248 0.24344 0.0
H2003 H 0.98167 0.04614 0.19744 0.0
H2004 H 0.9453 0.98423 0.15071 0.0
H2005 H 0.9745 0.95956 0.1876 0.0
C2006 C 0.01057 0.97483 0.23709 0.0
C2007 C 0.0294 0.98507 0.26044 0.0
C2008 C 0.99441 0.98875 0.21466 0.0
C2009 C 0.03142 0.0095 0.26284 0.0
C2010 C 0.01493 0.02361 0.24144 0.0
C2011 C 0.98031 0.02725 0.19452 0.0
C2012 C 0.96151 0.01691 0.17119 0.0
C2013 C 0.99662 0.01334 0.21673 0.0
C2014 C 0.95975 0.99247 0.16836 0.0
C2015 C 0.97624 0.97843 0.18976 0.0
H2016 H 0.48223 0.95495 0.16715 0.0
H2017 H 0.44103 0.018 0.16085 0.0
H2018 H 0.47284 0.04004 0.19698 0.0
H2019 H 0.51048 0.0401 0.23604 0.0
H2020 H 0.54957 0.97568 0.24903 0.0
H2021 H 0.51958 0.95493 0.20642 0.0
C2022 C 0.48056 0.97368 0.17246 0.0
C2023 C 0.45976 0.98512 0.16084 0.0
C2024 C 0.49793 0.98559 0.19618 0.0
C2025 C 0.45726 0.00914 0.16896 0.0
C2026 C 0.47518 0.02154 0.19025 0.0
C2027 C 0.51234 0.02146 0.23012 0.0
C2028 C 0.53219 0.00943 0.24574 0.0
C2029 C 0.49519 0.0097 0.20538 0.0
C2030 C 0.53437 0.98531 0.23759 0.0
C2031 C 0.51741 0.97349 0.21275 0.0
H2032 H 0.9475 0.99414 0.70455 0.0
H2033 H 0.98125 0.96362 0.82039 0.0
H2034 H 0.01961 0.97538 0.79116 0.0
H2035 H 0.04298 0.99276 0.73199 0.0
H2036 H 0.00966 0.02344 0.61535 0.0
H2037 H 0.97129 0.01182 0.64459 0.0
C2038 C 0.96326 0.99077 0.72392 0.0
C2039 C 0.96185 0.97866 0.7649 0.0
C2040 C 0.98511 -0.0034 0.70595 0.0
C2041 C 0.98221 0.97343 0.78918 0.0
C2042 C 0.00401 0.97978 0.77216 0.0
C2043 C 0.02743 -0.00333 0.7124 0.0
C2044 C 0.02916 0.00897 0.67155 0.0
C2045 C 0.00562 0.9909 0.73018 0.0
C2046 C 0.00877 0.01385 0.6468 0.0
C2047 C 0.98686 0.00756 0.6638 0.0
H2048 H 0.95975 0.43119 0.9575 0.0
H2049 H 0.02616 0.42808 0.88821 0.0
H2050 H 0.00654 0.43548 0.81657 0.0
H2051 H 0.9704 0.44175 0.77266 0.0
H2052 H 0.90399 0.44548 0.84167 0.0
H2053 H 0.92363 0.43862 0.91371 0.0
C2054 C 0.96996 0.43193 0.92674 0.0
C2055 C 0.99454 0.42894 0.92873 0.0
C2056 C 0.9585 0.4362 0.88528 0.0
C2057 C 0.00735 0.4305 0.88824 0.0
C2058 C 0.99609 0.43458 0.84701 0.0
C2059 C 0.96018 0.44104 0.80344 0.0
C2060 C 0.93564 0.44408 0.80146 0.0
C2061 C 0.97166 0.43731 0.845 0.0
C2062 C 0.92284 0.44335 0.84195 0.0
C2063 C 0.93409 0.43934 0.88328 0.0
H2064 H 0.78062 0.67566 0.0871 0.0
H2065 H 0.83511 0.71078 1.01183 0.0
H2066 H 0.84373 0.73565 0.07602 0.0
H2067 H 0.83585 0.74833 0.15345 0.0
H2068 H 0.78122 0.71431 0.22975 0.0
H2069 H 0.77265 0.68864 0.16583 0.0
C2070 C 0.79446 0.68865 0.08486 0.0
C2071 C 0.80712 0.69114 1.04424 0.0
C2072 C 0.79931 0.70337 0.12228 0.0
C2073 C 0.82488 0.70834 1.04221 0.0
C2074 C 0.82992 0.72268 0.07911 0.0
C2075 C 0.82219 0.73518 0.15636 0.0
C2076 C 0.80928 0.73341 0.19672 0.0
C2077 C 0.81725 0.72046 0.1193 0.0
C2078 C 0.79135 0.7164 0.19916 0.0
C2079 C 0.78649 0.70155 0.16256 0.0
H2080 H 0.52773 0.57868 0.26185 0.0
H2081 H 0.58784 0.54934 0.32911 0.0
H2082 H 0.56825 0.5539 0.40195 0.0
H2083 H 0.53382 0.56613 0.44711 0.0
H2084 H 0.4735 0.59469 0.37908 0.0
H2085 H 0.49318 0.59017 0.30663 0.0
C2086 C 0.53664 0.57335 0.29242 0.0
C2087 C 0.5594 0.56375 0.28965 0.0
C2088 C 0.52508 0.57572 0.33437 0.0
C2089 C 0.57037 0.5567 0.32987 0.0
C2090 C 0.55915 0.55935 0.3717 0.0
C2091 C 0.52499 0.57153 0.41652 0.0
C2092 C 0.50203 0.58078 0.41913 0.0
C2093 C 0.53648 0.56885 0.37448 0.0
C2094 C 0.49094 0.58726 0.37861 0.0
C2095 C 0.50229 0.58483 0.33694 0.0
H2096 H 0.65477 0.25352 0.65759 0.0
H2097 H 0.72338 0.26463 0.71486 0.0
H2098 H 0.73395 0.28985 0.65154 0.0
H2099 H 0.72395 0.30862 0.57832 0.0
H2100 H 0.65574 0.29578 0.5207 0.0
H2101 H 0.645 0.27162 0.58509 0.0
C2102 C 0.67214 0.26123 0.65616 0.0
C2103 C 0.68812 0.25707 0.69146 0.0
C2104 C 0.67824 0.27566 0.61932 0.0
C2105 C 0.71045 0.26766 0.68883 0.0
C2106 C 0.71661 0.28208 0.65236 0.0
C2107 C 0.70667 0.30072 0.58018 0.0
C2108 C 0.69069 0.30413 0.54457 0.0
C2109 C 0.70063 0.28631 0.61734 0.0
C2110 C 0.66848 0.29343 0.54736 0.0
C2111 C 0.66227 0.27955 0.58428 0.0
H2112 H 0.92982 0.52761 0.10439 0.0
H2113 H 0.94406 0.59597 0.15998 0.0
H2114 H 0.96779 0.60596 0.0946 0.0
H2115 H 0.98571 0.59533 1.02234 0.0
H2116 H 0.97248 0.52698 0.96589 0.0
H2117 H 0.94778 0.51701 1.03048 0.0
C2118 C 0.93793 0.54475 0.10191 0.0
C2119 C 0.93502 0.56098 0.13736 0.0
C2120 C 0.9521 0.55039 0.06404 0.0
C2121 C 0.946 0.58301 0.1336 0.0
C2122 C 0.95964 0.58881 0.09605 0.0
C2123 C 0.97727 0.57831 1.02376 0.0
C2124 C 0.98116 0.56202 0.98883 0.0
C2125 C 0.963 0.57263 0.06117 0.0
C2126 C 0.97023 0.53989 0.99224 0.0
C2127 C 0.95589 0.53418 1.02919 0.0
H2128 H 0.68251 0.7155 0.40822 0.0
H2129 H 0.71504 0.65702 0.34091 0.0
H2130 H 0.70974 0.67644 0.26827 0.0
H2131 H 0.69486 0.70968 0.22305 0.0
H2132 H 0.66199 0.76781 0.29077 0.0
H2133 H 0.66829 0.74883 0.36342 0.0
C2134 C 0.68849 0.70692 0.37775 0.0
C2135 C 0.69918 0.68468 0.3805 0.0
C2136 C 0.68521 0.71814 0.33578 0.0
C2137 C 0.70684 0.67409 0.34028 0.0
C2138 C 0.70375 0.6852 0.29851 0.0
C2139 C 0.68922 0.71832 0.25368 0.0
C2140 C 0.67777 0.74021 0.25096 0.0
C2141 C 0.69284 0.7072 0.29574 0.0
C2142 C 0.67045 0.75087 0.29135 0.0
C2143 C 0.67418 0.74005 0.33312 0.0
H2144 H 0.53543 0.3986 0.65744 0.0
H2145 H 0.56476 0.46383 0.61003 0.0
H2146 H 0.54256 0.46002 0.53981 0.0
H2147 H 0.51487 0.43784 0.49094 0.0
H2148 H 0.48584 0.37272 0.53974 0.0
H2149 H 0.50785 0.37685 0.6096 0.0
C2150 C 0.53706 0.41207 0.63189 0.0
C2151 C 0.55197 0.4315 0.63952 0.0
C2152 C 0.52423 0.40975 0.59138 0.0
C2153 C 0.55362 0.44862 0.60549 0.0
C2154 C 0.54084 0.44647 0.56516 0.0
C2155 C 0.51319 0.42461 0.51695 0.0
C2156 C 0.49865 0.40485 0.50938 0.0
C2157 C 0.52606 0.42708 0.5576 0.0
C2158 C 0.49707 0.38789 0.54375 0.0
C2159 C 0.50961 0.39031 0.58406 0.0
H2160 H 0.81524 0.28064 0.90771 0.0
H2161 H 0.78173 0.33844 0.84 0.0
H2162 H 0.7861 0.31827 0.76778 0.0
H2163 H 0.8004 0.28449 0.72316 0.0
H2164 H 0.8342 0.22714 0.79172 0.0
H2165 H 0.82888 0.24693 0.86378 0.0
C2166 C 0.80886 0.28894 0.87726 0.0
C2167 C 0.79821 0.3112 0.8797 0.0
C2168 C 0.81159 0.2773 0.83566 0.0
C2169 C 0.79 0.3214 0.83953 0.0
C2170 C 0.79253 0.30984 0.79805 0.0
C2171 C 0.80646 0.27622 0.75388 0.0
C2172 C 0.81788 0.2543 0.75159 0.0
C2173 C 0.8034 0.28781 0.7956 0.0
C2174 C 0.82574 0.24409 0.792 0.0
C2175 C 0.82258 0.25537 0.83343 0.0
H2176 H 0.01948 0.55528 0.66116 0.0
H2177 H 0.08512 0.54785 0.59052 0.0
H2178 H 0.06525 0.55537 0.51887 0.0
H2179 H 0.02925 0.56539 0.47608 0.0
H2180 H 0.96384 0.57266 0.54771 0.0
H2181 H 0.98361 0.56408 0.61859 0.0
C2182 C 0.02952 0.55523 0.63014 0.0
C2183 C 0.0539 0.55098 0.63164 0.0
C2184 C 0.01798 0.55972 0.58893 0.0
C2185 C 0.06639 0.55087 0.59073 0.0
C2186 C 0.05501 0.5553 0.5496 0.0
C2187 C 0.01923 0.56494 0.50709 0.0
C2188 C 0.99494 0.56997 0.50605 0.0
C2189 C 0.0308 0.55991 0.54823 0.0
C2190 C 0.98252 0.5694 0.54706 0.0
C2191 C 0.99382 0.56431 0.58781 0.0
H2192 H 0.20214 0.29422 0.37277 0.0
H2193 H 0.1298 0.30247 0.41172 0.0
H2194 H 0.11727 0.27944 0.34698 0.0
H2195 H 0.12647 0.25642 0.27932 0.0
H2196 H 0.19882 0.24576 0.24239 0.0
H2197 H 0.21141 0.27013 0.30532 0.0
C2198 C 0.18363 0.29115 0.36683 0.0
C2199 C 0.16699 0.30031 0.39726 0.0
C2200 C 0.17641 0.27728 0.32964 0.0
C2201 C 0.14309 0.29571 0.38918 0.0
C2202 C 0.13584 0.28248 0.352 0.0
C2203 C 0.14502 0.25915 0.28509 0.0
C2204 C 0.16151 0.24917 0.25525 0.0
C2205 C 0.15231 0.27298 0.32211 0.0
C2206 C 0.1855 0.25343 0.26368 0.0
C2207 C 0.19282 0.26734 0.3001 0.0
H2208 H 0.4274 0.43133 0.09295 0.0
H2209 H 0.48586 0.42755 0.18468 0.0
H2210 H 0.51215 0.41844 0.12251 0.0
H2211 H 0.51883 0.41011 1.04212 0.0
H2212 H 0.46059 0.41284 0.94973 0.0
H2213 H 0.43429 0.42326 1.0115 0.0
C2214 C 0.44592 0.42873 0.09924 0.0
C2215 C 0.4545 0.43028 0.14383 0.0
C2216 C 0.46113 0.42293 0.063 0.0
C2217 C 0.47859 0.42647 0.15106 0.0
C2218 C 0.49375 0.42121 0.11535 0.0
C2219 C 0.50044 0.41319 1.03522 0.0
C2220 C 0.49193 0.41053 0.99079 0.0
C2221 C 0.48525 0.41918 0.07117 0.0
C2222 C 0.46782 0.41433 0.98332 0.0
C2223 C 0.45269 0.42049 1.01877 0.0
H2224 H 0.31273 0.71888 0.73534 0.0
H2225 H 0.36924 0.75912 0.79358 0.0
H2226 H 0.36433 0.73846 0.86478 0.0
H2227 H 0.34396 0.70911 0.91166 0.0
H2228 H 0.28709 0.66906 0.85434 0.0
H2229 H 0.2921 0.68952 0.78266 0.0
C2230 C 0.3239 0.72331 0.76361 0.0
C2231 C 0.34151 0.74064 0.75827 0.0
C2232 C 0.32091 0.71132 0.80514 0.0
C2233 C 0.35584 0.7457 0.79574 0.0
C2234 C 0.35294 0.73394 0.83688 0.0
C2235 C 0.33262 0.70476 0.88358 0.0
C2236 C 0.31511 0.68739 0.88902 0.0
C2237 C 0.33557 0.71668 0.84208 0.0
C2238 C 0.3007 0.68224 0.85174 0.0
C2239 C 0.30356 0.694 0.81047 0.0
H2240 H 0.07466 0.44359 0.34455 0.0
H2241 H 0.01509 0.45177 0.25666 0.0
H2242 H 0.98848 0.44575 0.31987 0.0
H2243 H 0.98168 0.43584 0.39961 0.0
H2244 H 0.04094 0.42636 0.48782 0.0
H2245 H 0.0677 0.43469 0.42558 0.0
C2246 C 0.05587 0.44431 0.3394 0.0
C2247 C 0.047 0.44817 0.29564 0.0
C2248 C 0.04042 0.44017 0.3761 0.0
C2249 C 0.02252 0.44873 0.28973 0.0
C2250 C 0.0072 0.44525 0.32598 0.0
C2251 C 0.00043 0.43584 0.4055 0.0
C2252 C 0.00906 0.43025 0.44876 0.0
C2253 C 0.01588 0.44058 0.36926 0.0
C2254 C 0.03357 0.43014 0.45502 0.0
C2255 C 0.049 0.43509 0.41935 0.0
H2256 H 0.33622 0.27518 1.01124 0.0
H2257 H 0.29412 0.3267 0.07978 0.0
H2258 H 0.29925 0.30533 0.1509 0.0
H2259 H 0.31612 0.27177 0.19402 0.0
H2260 H 0.35816 0.22094 0.12317 0.0
H2261 H 0.35246 0.2422 1.05304 0.0
C2262 C 0.32815 0.28193 1.04163 0.0
C2263 C 0.31488 0.30278 1.03977 0.0
C2264 C 0.33111 0.26952 0.08232 0.0
C2265 C 0.30443 0.3108 0.07983 0.0
C2266 C 0.30741 0.29856 0.12065 0.0
C2267 C 0.32414 0.2654 0.16331 0.0
C2268 C 0.33749 0.24449 0.16437 0.0
C2269 C 0.32082 0.27788 0.12242 0.0
C2270 C 0.34748 0.23658 0.12377 0.0
C2271 C 0.34436 0.24887 0.08345 0.0
H2272 H 0.47273 0.56208 0.94784 0.0
H2273 H 0.52519 0.60261 0.87759 0.0
H2274 H 0.50454 0.59651 0.80672 0.0
H2275 H 0.47154 0.57994 0.76377 0.0
H2276 H 0.41865 0.53952 0.833 0.0
H2277 H 0.43949 0.54514 0.90424 0.0
C2278 C 0.47977 0.56947 0.91703 0.0
C2279 C 0.50061 0.58302 0.91877 0.0
C2280 C 0.46765 0.5659 0.87576 0.0
C2281 C 0.50911 0.59251 0.87806 0.0
C2282 C 0.49733 0.58889 0.83718 0.0
C2283 C 0.46447 0.57229 0.79433 0.0
C2284 C 0.44337 0.55925 0.79241 0.0
C2285 C 0.47653 0.57571 0.83552 0.0
C2286 C 0.43476 0.5496 0.83288 0.0
C2287 C 0.44672 0.55283 0.87388 0.0
H2288 H 0.13139 0.72982 0.65819 0.0
H2289 H 0.20424 0.74572 0.68279 0.0
H2290 H 0.21548 0.72226 0.6176 0.0
H2291 H 0.20464 0.69784 0.55102 0.0
H2292 H 0.13151 0.68392 0.52563 0.0
H2293 H 0.12062 0.70589 0.59274 0.0
C2294 C 0.14975 0.72842 0.64927 0.0
C2295 C 0.16681 0.73972 0.6761 0.0
C2296 C 0.15618 0.71506 0.61111 0.0
C2297 C 0.19055 0.73709 0.66373 0.0
C2298 C 0.19707 0.7237 0.62603 0.0
C2299 C 0.18637 0.69941 0.56055 0.0
C2300 C 0.16895 0.68913 0.53307 0.0
C2301 C 0.18005 0.71259 0.59927 0.0
C2302 C 0.14532 0.69169 0.54578 0.0
C2303 C 0.13903 0.7043 0.58431 0.0
H2304 H 0.42249 0.9216 0.33209 0.0
H2305 H 0.48199 0.93622 0.24694 0.0
H2306 H 0.50855 0.92913 0.30949 0.0
H2307 H 0.51556 0.91639 0.38729 0.0
H2308 H 0.45669 0.90054 0.47332 0.0
H2309 H 0.42968 0.90985 0.41201 0.0
C2310 C 0.44123 0.9235 0.32744 0.0
C2311 C 0.45008 0.92953 0.28446 0.0
C2312 C 0.45675 0.91869 0.36378 0.0
C2313 C 0.47454 0.93163 0.2793 0.0
C2314 C 0.48986 0.92746 0.31519 0.0
C2315 C 0.49683 0.91521 0.39305 0.0
C2316 C 0.48845 0.90758 0.43539 0.0
C2317 C 0.48126 0.9206 0.35744 0.0
C2318 C 0.46395 0.90592 0.44124 0.0
C2319 C 0.44836 0.91144 0.40609 0.0
H2320 H 0.29633 0.18314 0.57554 0.0
H2321 H 0.34999 0.21757 0.4968 0.0
H2322 H 0.36054 0.24173 0.56078 0.0
H2323 H 0.35486 0.25386 0.63914 0.0
H2324 H 0.3019 0.21976 0.71967 0.0
H2325 H 0.29084 0.19531 0.65549 0.0
C2326 C 0.31029 0.19595 0.57233 0.0
C2327 C 0.32225 0.19826 0.53084 0.0
C2328 C 0.3165 0.2101 0.60985 0.0
C2329 C 0.34037 0.21506 0.52788 0.0
C2330 C 0.34651 0.22905 0.56467 0.0
C2331 C 0.34105 0.24094 0.643 0.0
C2332 C 0.32931 0.23889 0.68466 0.0
C2333 C 0.33477 0.22676 0.60587 0.0
C2334 C 0.31115 0.22216 0.68815 0.0
C2335 C 0.30485 0.20799 0.65136 0.0
H2336 H 0.98038 0.07875 0.88978 0.0
H2337 H 0.03998 0.09231 0.97538 0.0
H2338 H 0.06646 0.08166 0.91406 0.0
H2339 H 0.07297 0.0692 0.83445 0.0
H2340 H 0.01281 0.05614 0.75007 0.0
H2341 H 0.98665 0.06504 0.81255 0.0
C2342 C -0.00087 0.07912 0.89549 0.0
C2343 C 0.00791 0.08651 0.93765 0.0
C2344 C 0.01438 0.07284 0.85999 0.0
C2345 C 0.03246 0.08715 0.94341 0.0
C2346 C 0.04773 0.08085 0.90828 0.0
C2347 C 0.05415 0.06807 0.82996 0.0
C2348 C 0.04496 0.06213 0.78728 0.0
C2349 C 0.03894 0.07376 0.8662 0.0
C2350 C 0.02046 0.06089 0.78223 0.0
C2351 C 0.0054 0.06601 0.81804 0.0
H2352 H 0.14901 0.77368 1.01201 0.0
H2353 H 0.2012 0.81712 0.07618 0.0
H2354 H 0.19549 0.79586 0.14688 0.0
H2355 H 0.1753 0.76501 0.19142 0.0
H2356 H 0.1234 0.72156 0.12624 0.0
H2357 H 0.12928 0.74279 0.05593 0.0
C2358 C 0.15921 0.77858 1.04135 0.0
C2359 C 0.17559 0.79714 1.0382 0.0
C2360 C 0.1558 0.76624 0.08223 0.0
C2361 C 0.18853 0.80298 0.07705 0.0
C2362 C 0.18523 0.79079 0.11774 0.0
C2363 C 0.16536 0.76001 0.16183 0.0
C2364 C 0.14872 0.74161 0.1649 0.0
C2365 C 0.1689 0.77235 0.12086 0.0
C2366 C 0.13598 0.73579 0.12577 0.0
C2367 C 0.13945 0.74788 0.08517 0.0
H2368 H 0.51139 0.09806 0.54149 0.0
H2369 H 0.47631 0.04768 0.45659 0.0
H2370 H 0.45126 0.03602 0.51947 0.0
H2371 H 0.4387 0.04025 0.59952 0.0
H2372 H 0.47382 0.09153 0.68263 0.0
H2373 H 0.49879 0.10259 0.62 0.0
C2374 C 0.49813 0.08469 0.53636 0.0
C2375 C 0.49606 0.07384 0.4938 0.0
C2376 C 0.48352 0.07809 0.57279 0.0
C2377 C 0.47883 0.05623 0.48877 0.0
C2378 C 0.46428 0.04959 0.52485 0.0
C2379 C 0.45183 0.0538 0.60398 0.0
C2380 C 0.45407 0.06496 0.64631 0.0
C2381 C 0.46642 0.06035 0.56721 0.0
C2382 C 0.47132 0.08256 0.65086 0.0
C2383 C 0.48579 0.08898 0.61484 0.0
H2384 H 0.14649 0.26404 0.80309 0.0
H2385 H 0.181 0.2181 0.70911 0.0
H2386 H 0.19165 0.1917 0.77074 0.0
H2387 H 0.19016 0.1808 0.8524 0.0
H2388 H 0.15517 0.22763 0.94451 0.0
H2389 H 0.14592 0.25403 0.88321 0.0
C2390 C 0.1562 0.24818 0.79587 0.0
C2391 C 0.16275 0.24321 0.75112 0.0
C2392 C 0.16229 0.233 0.83155 0.0
C2393 C 0.17578 0.22266 0.74305 0.0
C2394 C 0.18183 0.20742 0.77841 0.0
C2395 C 0.18068 0.19685 0.85903 0.0
C2396 C 0.17323 0.20186 0.9034 0.0
C2397 C 0.17512 0.2123 0.82299 0.0
C2398 C 0.1609 0.22288 0.91095 0.0
C2399 C 0.15557 0.23818 0.87576 0.0
H2400 H 0.01937 0.906 0.17171 0.0
H2401 H 0.06611 0.95484 0.1064 0.0
H2402 H 0.04431 0.95019 1.03581 0.0
H2403 H 0.01209 0.9315 0.9917 0.0
H2404 H 0.96559 0.88302 0.05894 0.0
H2405 H 0.98721 0.88821 0.12887 0.0
C2406 C 0.02492 0.9157 0.14216 0.0
C2407 C 0.04458 0.93077 0.14488 0.0
C2408 C 0.01228 0.91291 0.10153 0.0
C2409 C 0.05113 0.94317 0.10581 0.0
C2410 C 0.03863 0.94046 0.06522 0.0
C2411 C 0.00654 0.92217 1.02167 0.0
C2412 C 0.98717 0.9066 1.01924 0.0
C2413 C 0.01916 0.92531 0.06252 0.0
C2414 C 0.98058 0.89469 0.05888 0.0
C2415 C 0.9929 0.89777 0.09927 0.0
H2416 H 0.34072 0.77189 0.41358 0.0
H2417 H 0.28825 0.81646 0.35408 0.0
H2418 H 0.29241 0.7956 0.28235 0.0
H2419 H 0.31157 0.76478 0.23556 0.0
H2420 H 0.36381 0.72054 0.29698 0.0
H2421 H 0.35916 0.74123 0.36804 0.0
C2422 C 0.33012 0.77718 0.38506 0.0
C2423 C 0.31416 0.79594 0.3898 0.0
C2424 C 0.33265 0.76511 0.34373 0.0
C2425 C 0.30066 0.80219 0.35196 0.0
C2426 C 0.30306 0.79022 0.31071 0.0
C2427 C 0.32185 0.75953 0.26451 0.0
C2428 C 0.33829 0.74107 0.26007 0.0
C2429 C 0.31905 0.77162 0.30604 0.0
C2430 C 0.35142 0.73484 0.29843 0.0
C2431 C 0.34866 0.74662 0.33948 0.0
H2432 H 0.51461 0.10564 1.01633 0.0
H2433 H 0.49384 0.03369 0.996 0.0
H2434 H 0.51892 0.02151 0.05823 0.0
H2435 H 0.54612 0.03133 0.12115 0.0
H2436 H 0.56393 0.10375 0.14417 0.0
H2437 H 0.54099 0.11545 0.07884 0.0
C2438 C 0.51532 0.0873 1.02556 0.0
C2439 C 0.50221 0.07074 1.00075 0.0
C2440 C 0.52959 0.08034 0.06211 0.0
C2441 C 0.5039 0.04697 1.01346 0.0
C2442 C 0.51823 0.03992 1.04945 0.0
C2443 C 0.54529 0.0496 0.1113 0.0
C2444 C 0.55722 0.06657 0.13723 0.0
C2445 C 0.5312 0.05643 0.07417 0.0
C2446 C 0.55532 0.09025 0.12461 0.0
C2447 C 0.542 0.09702 0.0873 0.0
H2448 H 0.68201 0.7828 0.7227 0.0
H2449 H 0.67831 0.71572 0.7894 0.0
H2450 H 0.68482 0.73465 0.86199 0.0
H2451 H 0.69106 0.77028 0.90735 0.0
H2452 H 0.69539 0.83738 0.84096 0.0
H2453 H 0.68946 0.81843 0.76798 0.0
C2454 C 0.68281 0.77224 0.75299 0.0
C2455 C 0.67941 0.74773 0.75008 0.0
C2456 C 0.68671 0.78329 0.79502 0.0
C2457 C 0.68034 0.73457 0.7902 0.0
C2458 C 0.68424 0.7454 0.83192 0.0
C2459 C 0.69073 0.78081 0.87695 0.0
C2460 C 0.69366 0.80533 0.87999 0.0
C2461 C 0.6873 0.76976 0.83485 0.0
C2462 C 0.69336 0.81852 0.83993 0.0
C2463 C 0.68986 0.80767 0.79804 0.0
H2464 H 0.99272 0.88473 0.54032 0.0
H2465 H 0.97052 0.9465 0.46849 0.0
H2466 H 0.94608 0.95793 0.53221 0.0
H2467 H 0.93084 0.95065 0.60945 0.0
H2468 H 0.95273 0.88813 0.67948 0.0
H2469 H 0.97676 0.87686 0.61563 0.0
C2470 C 0.98236 0.90057 0.53814 0.0
C2471 C 0.98383 0.91468 0.49915 0.0
C2472 C 0.96804 0.90704 0.57498 0.0
C2473 C 0.97033 0.93535 0.49798 0.0
C2474 C 0.95611 0.94189 0.53449 0.0
C2475 C 0.94077 0.93452 0.61074 0.0
C2476 C 0.93979 0.92042 0.64987 0.0
C2477 C 0.95483 0.92793 0.57339 0.0
C2478 C 0.95297 0.89956 0.65037 0.0
C2479 C 0.96684 0.89299 0.61363 0.0
H2480 H 0.80603 0.2597 0.27943 0.0
H2481 H 0.81732 0.20012 0.1929 0.0
H2482 H 0.81015 0.17364 0.25604 0.0
H2483 H 0.80197 0.16704 0.3375 0.0
H2484 H 0.79232 0.22703 0.42373 0.0
H2485 H 0.79724 0.25321 0.35971 0.0
C2486 C 0.80707 0.24094 0.27425 0.0
C2487 C 0.81225 0.23218 0.23087 0.0
C2488 C 0.80306 0.22563 0.31105 0.0
C2489 C 0.81309 0.20764 0.22536 0.0
C2490 C 0.80908 0.19235 0.26171 0.0
C2491 C 0.80071 0.18581 0.34218 0.0
C2492 C 0.79679 0.19488 0.38581 0.0
C2493 C 0.80413 0.20108 0.3049 0.0
C2494 C 0.79544 0.21938 0.39089 0.0
C2495 C 0.79831 0.23449 0.35414 0.0
H2496 H 0.52678 0.90593 0.75904 0.0
H2497 H 0.58029 0.94839 0.8216 0.0
H2498 H 0.56115 0.94353 0.89475 0.0
H2499 H 0.52923 0.92689 0.94168 0.0
H2500 H 0.47568 0.88477 0.87838 0.0
H2501 H 0.49464 0.89003 0.80539 0.0
C2502 C 0.53431 0.91417 0.7886 0.0
C2503 C 0.55508 0.92753 0.78439 0.0
C2504 C 0.5231 0.9114 0.83077 0.0
C2505 C 0.56433 0.93813 0.82338 0.0
C2506 C 0.55339 0.93529 0.86544 0.0
C2507 C 0.52174 0.91874 0.912 0.0
C2508 C 0.5009 0.90541 0.91601 0.0
C2509 C 0.53279 0.92188 0.86967 0.0
C2510 C 0.49144 0.89534 0.87668 0.0
C2511 C 0.50239 0.89823 0.83476 0.0
H2512 H 0.81203 0.77375 0.52147 0.0
H2513 H 0.77679 0.82887 0.59403 0.0
H2514 H 0.78305 0.80783 0.66484 0.0
H2515 H 0.7996 0.77411 0.70685 0.0
H2516 H 0.83529 0.71962 0.63342 0.0
H2517 H 0.82793 0.74015 0.56278 0.0
C2518 C 0.80565 0.78127 0.55267 0.0
C2519 C 0.79394 0.80304 0.552 0.0
C2520 C 0.80952 0.76917 0.59345 0.0
C2521 C 0.78581 0.81221 0.59312 0.0
C2522 C 0.78944 0.80017 0.6338 0.0
C2523 C 0.80564 0.76663 0.67538 0.0
C2524 C 0.81819 0.74529 0.67588 0.0
C2525 C 0.80141 0.77867 0.63449 0.0
C2526 C 0.82598 0.7361 0.63452 0.0
C2527 C 0.82164 0.74781 0.59391 0.0
H2528 H 0.97015 0.06251 0.44087 0.0
H2529 H 0.01263 0.11859 0.38712 0.0
H2530 H 0.99199 0.1159 0.31545 0.0
H2531 H 0.9621 0.09769 0.26724 0.0
H2532 H 0.91955 0.04137 0.31977 0.0
H2533 H 0.94 0.04406 0.39201 0.0
C2534 C 0.97504 0.07405 0.41342 0.0
C2535 C 0.993 0.09086 0.41999 0.0
C2536 C 0.96301 0.0724 0.37177 0.0
C2537 C -0.00126 0.10575 0.38378 0.0
C2538 C 0.98698 0.10415 0.34247 0.0
C2539 C 0.95717 0.08598 0.2944 0.0
C2540 C 0.93915 0.06932 0.28758 0.0
C2541 C 0.96906 0.08759 0.33603 0.0
C2542 C 0.93326 0.05437 0.3236 0.0
C2543 C 0.94501 0.05589 0.36511 0.0
H2544 H 0.72664 0.19368 0.07455 0.0
H2545 H 0.65499 0.19112 1.02881 0.0
H2546 H 0.6427 0.21499 0.0926 0.0
H2547 H 0.65214 0.2381 0.15976 0.0
H2548 H 0.72367 0.24169 0.20627 0.0
H2549 H 0.73606 0.21666 0.14392 0.0
C2550 C 0.70833 0.19811 0.07902 0.0
C2551 C 0.69175 0.19048 1.0469 0.0
C2552 C 0.70132 0.21246 0.1157 0.0
C2553 C 0.66813 0.19676 1.05285 0.0
C2554 C 0.66105 0.21048 0.08938 0.0
C2555 C 0.67042 0.23324 0.15679 0.0
C2556 C 0.68682 0.24201 0.18816 0.0
C2557 C 0.67748 0.21867 0.12079 0.0
C2558 C 0.71054 0.23566 0.18262 0.0
C2559 C 0.71767 0.2211 0.147 0.0
H2560 H 0.10788 0.48678 0.87734 0.0
H2561 H 0.10321 0.55807 0.92428 0.0
H2562 H 0.10428 0.54436 1.00237 0.0
H2563 H 0.10526 0.51197 0.05843 0.0
H2564 H 0.10803 0.44061 1.01132 0.0
H2565 H 0.10902 0.45443 0.93334 0.0
C2566 C 0.10734 0.49943 0.90454 0.0
C2567 C 0.10569 0.52365 0.89412 0.0
C2568 C 0.10755 0.49132 0.94994 0.0
C2569 C 0.10463 0.53945 0.93052 0.0
C2570 C 0.1052 0.53155 0.97552 0.0
C2571 C 0.10635 0.49937 1.03122 0.0
C2572 C 0.10682 0.47509 1.04157 0.0
C2573 C 0.10651 0.50751 0.98582 0.0
C2574 C 0.10783 0.4593 1.00515 0.0
C2575 C 0.10834 0.46725 0.96021 0.0
H2576 H 0.75655 0.85866 0.12721 0.0
H2577 H 0.68488 0.85382 0.17254 0.0
H2578 H 0.6981 0.85497 0.25091 0.0
H2579 H 0.73008 0.85594 0.3074 0.0
H2580 H 0.80186 0.8589 0.26224 0.0
H2581 H 0.78857 0.85998 0.18384 0.0
C2582 C 0.74373 0.85811 0.15413 0.0
C2583 C 0.71956 0.85634 0.14328 0.0
C2584 C 0.75155 0.85836 0.19963 0.0
C2585 C 0.70348 0.8553 0.17923 0.0
C2586 C 0.71108 0.85591 0.22433 0.0
C2587 C 0.7429 0.85707 0.28054 0.0
C2588 C 0.76711 0.85753 0.29143 0.0
C2589 C 0.73508 0.85727 0.23507 0.0
C2590 C 0.78321 0.85864 0.25552 0.0
C2591 C 0.77557 0.85921 0.21041 0.0
H2592 H 0.39083 0.48816 0.55302 0.0
H2593 H 0.39562 0.55789 0.49788 0.0
H2594 H 0.39622 0.54164 0.42159 0.0
H2595 H 0.39655 0.50745 0.36958 0.0
H2596 H 0.39268 0.43772 0.42507 0.0
H2597 H 0.39047 0.45408 0.50108 0.0
C2598 C 0.39178 0.49993 0.52441 0.0
C2599 C 0.39306 0.52447 0.53201 0.0
C2600 C 0.39233 0.49035 0.48011 0.0
C2601 C 0.39453 0.53908 0.49383 0.0
C2602 C 0.39491 0.52972 0.44988 0.0
C2603 C 0.395 0.49574 0.39817 0.0
C2604 C 0.39462 0.47115 0.39075 0.0
C2605 C 0.39397 0.50536 0.44244 0.0
C2606 C 0.39287 0.45658 0.42894 0.0
C2607 C 0.39166 0.46599 0.47276 0.0
H2608 H 0.73982 0.13202 0.62613 0.0
H2609 H 0.81117 0.13904 0.67213 0.0
H2610 H 0.79767 0.13873 0.75035 0.0
H2611 H 0.76544 0.13803 0.80669 0.0
H2612 H 0.69398 0.13253 0.76057 0.0
H2613 H 0.70763 0.13063 0.68253 0.0
C2614 C 0.75253 0.1332 0.65317 0.0
C2615 C 0.7767 0.13536 0.64244 0.0
C2616 C 0.74454 0.1334 0.69864 0.0
C2617 C 0.79258 0.13722 0.67862 0.0
C2618 C 0.78481 0.13711 0.72369 0.0
C2619 C 0.75278 0.13617 0.77971 0.0
C2620 C 0.72852 0.13528 0.79033 0.0
C2621 C 0.76081 0.13542 0.73428 0.0
C2622 C 0.71265 0.13316 0.75418 0.0
C2623 C 0.7205 0.13211 0.70921 0.0
H2624 H 0.88174 0.51301 0.55846 0.0
H2625 H 0.8868 0.44193 0.51029 0.0
H2626 H 0.88505 0.45594 0.43251 0.0
H2627 H 0.8836 0.48848 0.37738 0.0
H2628 H 0.8798 0.55965 0.42545 0.0
H2629 H 0.87943 0.54552 0.50327 0.0
C2630 C 0.88224 0.50048 0.53106 0.0
C2631 C 0.88428 0.47626 0.5409 0.0
C2632 C 0.88152 0.50874 0.48595 0.0
C2633 C 0.88511 0.46056 0.50437 0.0
C2634 C 0.88417 0.46861 0.45961 0.0
C2635 C 0.88245 0.50097 0.40476 0.0
C2636 C 0.88161 0.52525 0.39491 0.0
C2637 C 0.88256 0.49268 0.44986 0.0
C2638 C 0.88037 0.54095 0.43142 0.0
C2639 C 0.88022 0.53283 0.47618 0.0
H2640 H 0.22286 0.11258 0.1609 0.0
H2641 H 0.22349 0.18744 0.14109 0.0
H2642 H 0.24915 0.19233 0.20575 0.0
H2643 H 0.27123 0.17612 0.26952 0.0
H2644 H 0.26874 0.10198 0.29571 0.0
H2645 H 0.24443 0.09619 0.2282 0.0
C2646 C 0.22867 0.12993 0.17068 0.0
C2647 C 0.22099 0.14961 0.14541 0.0
C2648 C 0.24326 0.13285 0.20958 0.0
C2649 C 0.22874 0.17192 0.15946 0.0
C2650 C 0.24359 0.1748 0.19667 0.0
C2651 C 0.26554 0.1586 0.26049 0.0
C2652 C 0.27224 0.1395 0.288 0.0
C2653 C 0.25093 0.15549 0.2222 0.0
C2654 C 0.26412 0.11707 0.27554 0.0
C2655 C 0.25012 0.11376 0.23669 0.0
H2656 H 0.63535 0.48124 0.89769 0.0
H2657 H 0.56165 0.46392 0.90271 0.0
H2658 H 0.55702 0.48722 0.97028 0.0
H2659 H 0.57312 0.51297 1.02864 0.0
H2660 H 0.64704 0.52825 1.03027 0.0
H2661 H 0.65223 0.50569 0.96042 0.0
C2662 C 0.61833 0.48248 0.9137 0.0
C2663 C 0.59893 0.47057 0.89444 0.0
C2664 C 0.61569 0.4958 0.95406 0.0
C2665 C 0.57706 0.4725 0.91629 0.0
C2666 C 0.57427 0.48604 0.95516 0.0
C2667 C 0.5904 0.5115 1.01369 0.0
C2668 C 0.60959 0.52266 1.03467 0.0
C2669 C 0.59336 0.49785 0.97434 0.0
C2670 C 0.63189 0.52002 1.01498 0.0
C2671 C 0.63486 0.50706 0.97489 0.0
H2672 H 0.22547 0.81408 0.77563 0.0
H2673 H 0.22055 0.88896 0.78941 0.0
H2674 H 0.24441 0.8941 0.72111 0.0
H2675 H 0.26737 0.87706 0.65607 0.0
H2676 H 0.27406 0.80188 0.64847 0.0
H2677 H 0.24933 0.79741 0.71442 0.0
C2678 C 0.22946 0.8316 0.76374 0.0
C2679 C 0.22074 0.85108 0.78807 0.0
C2680 C 0.24386 0.83445 0.72491 0.0
C2681 C 0.22672 0.87354 0.77185 0.0
C2682 C 0.24048 0.8765 0.73251 0.0
C2683 C 0.26348 0.85971 0.66884 0.0
C2684 C 0.27296 0.83986 0.64632 0.0
C2685 C 0.24928 0.85707 0.7085 0.0
C2686 C 0.2675 0.81762 0.66438 0.0
C2687 C 0.25312 0.81494 0.70243 0.0
H2688 H 0.57255 0.96676 0.51649 0.0
H2689 H 0.64746 0.96251 0.53209 0.0
H2690 H 0.65286 0.98586 0.46324 0.0
H2691 H 0.63594 0.00859 0.39817 0.0
H2692 H 0.56071 0.01477 0.38905 0.0
H2693 H 0.556 0.98994 0.4548 0.0
C2694 C 0.59012 0.97072 0.50477 0.0
C2695 C 0.60955 0.96249 0.5296 0.0
C2696 C 0.59309 0.98483 0.4659 0.0
C2697 C 0.63212 0.96839 0.51388 0.0
C2698 C 0.63521 0.98184 0.47435 0.0
C2699 C 0.61855 0.00448 0.41057 0.0
C2700 C 0.59874 0.01381 0.38804 0.0
C2701 C 0.6158 0.99035 0.44998 0.0
C2702 C 0.57637 0.00823 0.40531 0.0
C2703 C 0.57358 0.99384 0.44312 0.0
H2704 H 0.22257 0.31824 0.65911 0.0
H2705 H 0.22417 0.39253 0.6343 0.0
H2706 H 0.2481 0.39833 0.70228 0.0
H2707 H 0.26932 0.38195 0.76985 0.0
H2708 H 0.26956 0.30697 0.78841 0.0
H2709 H 0.2446 0.30202 0.72291 0.0
C2710 C 0.22801 0.33578 0.66853 0.0
C2711 C 0.22117 0.35492 0.64133 0.0
C2712 C 0.2424 0.33891 0.70708 0.0
C2713 C 0.22894 0.3774 0.65426 0.0
C2714 C 0.2427 0.38073 0.69336 0.0
C2715 C 0.26391 0.36455 0.75957 0.0
C2716 C 0.27161 0.34489 0.78481 0.0
C2717 C 0.24967 0.36159 0.72025 0.0
C2718 C 0.26433 0.32252 0.77012 0.0
C2719 C 0.24985 0.31959 0.73242 0.0
H2720 H 0.85989 0.02474 1.01973 0.0
H2721 H 0.93531 0.02862 1.02929 0.0
H2722 H 0.93919 0.00317 0.9643 0.0
H2723 H 0.92186 0.97933 0.90408 0.0
H2724 H 0.84691 0.97748 0.88771 0.0
H2725 H 0.84227 0.00221 0.95497 0.0
C2726 C 0.87716 0.02008 1.0075 0.0
C2727 C 0.89726 0.02884 1.03015 0.0
C2728 C 0.87944 0.00556 0.96853 0.0
C2729 C 0.91943 0.02252 1.01306 0.0
C2730 C 0.92174 0.00776 0.97567 0.0
C2731 C 0.90444 0.98422 0.91521 0.0
C2732 C 0.88475 0.97614 0.89079 0.0
C2733 C 0.90196 -0.00091 0.95312 0.0
C2734 C 0.86242 0.98322 0.90564 0.0
C2735 C 0.85977 -0.00257 0.94428 0.0
H2736 H 0.22501 0.60809 0.27248 0.0
H2737 H 0.21699 0.68313 0.2797 0.0
H2738 H 0.24247 0.68804 0.21486 0.0
H2739 H 0.26705 0.67168 0.15453 0.0
H2740 H 0.27297 0.59687 0.14083 0.0
H2741 H 0.2488 0.59137 0.20857 0.0
C2742 C 0.22882 0.62549 0.25985 0.0
C2743 C 0.21876 0.64518 0.28168 0.0
C2744 C 0.24336 0.62834 0.2209 0.0
C2745 C 0.22404 0.66753 0.26403 0.0
C2746 C 0.23882 0.67045 0.22672 0.0
C2747 C 0.26324 0.65412 0.16642 0.0
C2748 C 0.27226 0.63474 0.14241 0.0
C2749 C 0.2486 0.65107 0.20471 0.0
C2750 C 0.26653 0.61218 0.15836 0.0
C2751 C 0.2526 0.60903 0.1973 0.0
H2752 H 0.36692 0.98453 1.03581 0.0
H2753 H 0.43043 0.9453 1.01523 0.0
H2754 H 0.43699 0.96539 0.94368 0.0
H2755 H 0.42563 0.99527 0.88678 0.0
H2756 H 0.35998 0.03135 0.90161 0.0
H2757 H 0.35336 0.01166 0.97424 0.0
C2758 C 0.38206 0.98018 1.01546 0.0
C2759 C 0.39811 0.96311 1.03154 0.0
C2760 C 0.38545 0.99149 0.97286 0.0
C2761 C 0.41755 0.95793 1.00406 0.0
C2762 C 0.42145 0.96963 0.96297 0.0
C2763 C 0.40977 -0.00127 0.90574 0.0
C2764 C 0.39341 0.01506 0.88841 0.0
C2765 C 0.40565 0.98659 0.94699 0.0
C2766 C 0.37288 0.01897 0.91363 0.0
C2767 C 0.36913 0.00768 0.95546 0.0
H2768 H 0.73259 0.63669 0.80865 0.0
H2769 H 0.80398 0.62864 0.7635 0.0
H2770 H 0.79054 0.62592 0.6856 0.0
H2771 H 0.75881 0.62741 0.62912 0.0
H2772 H 0.68743 0.63682 0.67314 0.0
H2773 H 0.70051 0.63726 0.75172 0.0
C2774 C 0.74524 0.63409 0.78188 0.0
C2775 C 0.76943 0.63278 0.79266 0.0
C2776 C 0.73735 0.63283 0.73646 0.0
C2777 C 0.78535 0.62967 0.7569 0.0
C2778 C 0.77764 0.62814 0.71203 0.0
C2779 C 0.74597 0.62929 0.65578 0.0
C2780 C 0.72198 0.63191 0.6445 0.0
C2781 C 0.75371 0.6299 0.70123 0.0
C2782 C 0.70591 0.63459 0.68017 0.0
C2783 C 0.71344 0.63493 0.72538 0.0
H2784 H 0.07307 0.99243 0.38697 0.0
H2785 H 0.12885 0.94503 0.4208 0.0
H2786 H 0.13426 0.96508 0.49338 0.0
H2787 H 0.12227 0.99586 0.54918 0.0
H2788 H 0.06946 0.0458 0.51048 0.0
H2789 H 0.06393 0.02539 0.43893 0.0
C2790 C 0.08651 0.98655 0.41014 0.0
C2791 C 0.1004 0.96697 0.39821 0.0
C2792 C 0.09009 -0.00121 0.45142 0.0
C2793 C 0.11788 0.95992 0.42872 0.0
C2794 C 0.12094 0.97143 0.47046 0.0
C2795 C 0.10974 0.00246 0.52491 0.0
C2796 C 0.09631 0.02259 0.53595 0.0
C2797 C 0.10707 0.99087 0.4825 0.0
C2798 C 0.08024 0.03065 0.50343 0.0
C2799 C 0.07694 0.01883 0.46229 0.0
H2800 H 0.76603 0.35677 0.30714 0.0
H2801 H 0.69455 0.36505 0.26263 0.0
H2802 H 0.708 0.36878 0.18477 0.0
H2803 H 0.73976 0.36797 0.12846 0.0
H2804 H 0.81117 0.35817 0.17215 0.0
H2805 H 0.79806 0.35698 0.25066 0.0
C2806 C 0.75335 0.35961 0.28054 0.0
C2807 C 0.72918 0.36069 0.2913 0.0
C2808 C 0.76123 0.36146 0.23536 0.0
C2809 C 0.71318 0.36419 0.25587 0.0
C2810 C 0.72089 0.3663 0.21111 0.0
C2811 C 0.7526 0.36587 0.15506 0.0
C2812 C 0.77659 0.36332 0.14384 0.0
C2813 C 0.74484 0.36475 0.20033 0.0
C2814 C 0.79269 0.36034 0.17928 0.0
C2815 C 0.78515 0.35955 0.22438 0.0
loop_
_geom_bond_atom_site_label_1
_geom_bond_atom_site_label_2
_geom_bond_distance
_geom_bond_site_symmetry_2
_ccdc_geom_bond_type
Eu0 C9 2.828 . S
Eu0 O11 2.392 . S
Eu0 O13 2.418 . S
Eu0 O18 2.373 . S
Eu0 O21 2.488 . S
Eu0 O22 2.471 . S
Eu0 O23 2.349 . S
Eu1 O10 2.373 . S
Eu1 O14 2.488 . S
Eu1 O15 2.471 . S
Eu1 O16 2.349 . S
Eu1 O19 2.392 . S
Eu1 O20 2.418 . S
Eu1 C30 2.828 . S
C2 O20 1.244 . S
C2 O23 1.265 . S
C3 C4 1.379 . S
C3 C7 1.373 . S
C3 C9 1.505 1_556 S
C4 C3 1.379 . S
C4 C6 1.369 . S
C4 H32 0.930 . S
C5 C7 1.383 . S
C5 C8 1.382 . S
C5 H33 0.930 . S
C6 C4 1.369 . S
C6 C8 1.392 . S
C6 H34 0.930 . S
C7 C3 1.373 . S
C7 C5 1.383 . S
C7 H35 0.931 . S
C8 C5 1.382 . S
C8 C6 1.392 . S
C9 Eu0 2.828 . S
C9 C3 1.505 1_554 S
C9 O21 1.249 . S
C9 O22 1.244 . S
O10 Eu1 2.373 . S
O10 C12 1.258 . S
O11 Eu0 2.392 . S
O11 C12 1.242 . S
C12 O10 1.258 . S
C12 O11 1.242 . S
O13 Eu0 2.418 . S
O13 C17 1.244 . S
O14 Eu1 2.488 . S
O14 C30 1.249 . S
O15 Eu1 2.471 . S
O15 C30 1.244 . S
O16 Eu1 2.349 . S
O16 C17 1.265 . S
C17 O13 1.244 . S
C17 O16 1.265 . S
O18 Eu0 2.373 . S
O18 C31 1.258 . S
O19 Eu1 2.392 . S
O19 C31 1.242 . S
O20 Eu1 2.418 . S
O20 C2 1.244 . S
O21 Eu0 2.488 . S
O21 C9 1.249 . S
O22 Eu0 2.471 . S
O22 C9 1.244 . S
O23 Eu0 2.349 . S
O23 C2 1.265 . S
C24 C25 1.379 . S
C24 C28 1.373 . S
C24 C30 1.505 . S
C25 C24 1.379 . S
C25 C27 1.369 . S
C25 H36 0.930 . S
C26 C28 1.383 . S
C26 C29 1.382 . S
C26 H37 0.930 . S
C27 C25 1.369 . S
C27 C29 1.392 . S
C27 H38 0.930 . S
C28 C24 1.373 . S
C28 C26 1.383 . S
C28 H39 0.931 . S
C29 C26 1.382 . S
C29 C27 1.392 . S
C30 Eu1 2.828 . S
C30 O14 1.249 . S
C30 O15 1.244 . S
C30 C24 1.505 . S
C31 O18 1.258 . S
C31 O19 1.242 . S
H32 C4 0.930 . S
H33 C5 0.930 . S
H34 C6 0.930 . S
H35 C7 0.931 . S
H36 C25 0.930 . S
H37 C26 0.930 . S
H38 C27 0.930 . S
H39 C28 0.931 . S
Eu40 C49 2.828 . S
Eu40 O51 2.392 . S
Eu40 O53 2.418 . S
Eu40 O58 2.373 . S
Eu40 O61 2.488 . S
Eu40 O62 2.471 . S
Eu40 O63 2.349 . S
Eu41 O50 2.373 . S
Eu41 O54 2.488 . S
Eu41 O55 2.471 . S
Eu41 O56 2.349 . S
Eu41 O59 2.392 . S
Eu41 O60 2.418 . S
Eu41 C70 2.828 . S
C42 O60 1.244 . S
C42 O63 1.265 . S
C43 C44 1.379 . S
C43 C47 1.373 . S
C43 C49 1.505 . S
C44 C43 1.379 . S
C44 C46 1.369 . S
C44 H72 0.930 . S
C45 C47 1.383 . S
C45 C48 1.382 . S
C45 H73 0.930 . S
C46 C44 1.369 . S
C46 C48 1.392 . S
C46 H74 0.930 . S
C47 C43 1.373 . S
C47 C45 1.383 . S
C47 H75 0.931 . S
C48 C45 1.382 . S
C48 C46 1.392 . S
C49 Eu40 2.828 . S
C49 C43 1.505 . S
C49 O61 1.249 . S
C49 O62 1.244 . S
O50 Eu41 2.373 . S
O50 C52 1.258 . S
O51 Eu40 2.392 . S
O51 C52 1.242 . S
C52 O50 1.258 . S
C52 O51 1.242 . S
O53 Eu40 2.418 . S
O53 C57 1.244 . S
O54 Eu41 2.488 . S
O54 C70 1.249 . S
O55 Eu41 2.471 . S
O55 C70 1.244 . S
O56 Eu41 2.349 . S
O56 C57 1.265 . S
C57 O53 1.244 . S
C57 O56 1.265 . S
O58 Eu40 2.373 . S
O58 C71 1.258 . S
O59 Eu41 2.392 . S
O59 C71 1.242 . S
O60 Eu41 2.418 . S
O60 C42 1.244 . S
O61 Eu40 2.488 . S
O61 C49 1.249 . S
O62 Eu40 2.471 . S
O62 C49 1.244 . S
O63 Eu40 2.349 . S
O63 C42 1.265 . S
C64 C65 1.379 . S
C64 C68 1.373 . S
C64 C70 1.505 . S
C65 C64 1.379 . S
C65 C67 1.369 . S
C65 H76 0.930 . S
C66 C68 1.383 . S
C66 C69 1.382 . S
C66 H77 0.930 . S
C67 C65 1.369 . S
C67 C69 1.392 . S
C67 H78 0.930 . S
C68 C64 1.373 . S
C68 C66 1.383 . S
C68 H79 0.931 . S
C69 C66 1.382 . S
C69 C67 1.392 . S
C70 Eu41 2.828 . S
C70 O54 1.249 . S
C70 O55 1.244 . S
C70 C64 1.505 . S
C71 O58 1.258 . S
C71 O59 1.242 . S
H72 C44 0.930 . S
H73 C45 0.930 . S
H74 C46 0.930 . S
H75 C47 0.931 . S
H76 C65 0.930 . S
H77 C66 0.930 . S
H78 C67 0.930 . S
H79 C68 0.931 . S
Eu80 C89 2.828 . S
Eu80 O91 2.392 . S
Eu80 O93 2.418 . S
Eu80 O98 2.373 . S
Eu80 O101 2.488 . S
Eu80 O102 2.471 . S
Eu80 O103 2.349 . S
Eu81 O90 2.373 . S
Eu81 O94 2.488 . S
Eu81 O95 2.471 . S
Eu81 O96 2.349 . S
Eu81 O99 2.392 . S
Eu81 O100 2.418 . S
Eu81 C110 2.828 . S
C82 O100 1.244 . S
C82 O103 1.265 . S
C83 C84 1.379 . S
C83 C87 1.373 . S
C83 C89 1.505 . S
C84 C83 1.379 . S
C84 C86 1.369 . S
C84 H112 0.930 . S
C85 C87 1.383 . S
C85 C88 1.382 . S
C85 H113 0.930 . S
C86 C84 1.369 . S
C86 C88 1.392 . S
C86 H114 0.930 . S
C87 C83 1.373 . S
C87 C85 1.383 . S
C87 H115 0.931 . S
C88 C85 1.382 . S
C88 C86 1.392 . S
C89 Eu80 2.828 . S
C89 C83 1.505 . S
C89 O101 1.249 . S
C89 O102 1.244 . S
O90 Eu81 2.373 . S
O90 C92 1.258 . S
O91 Eu80 2.392 . S
O91 C92 1.242 . S
C92 O90 1.258 . S
C92 O91 1.242 . S
O93 Eu80 2.418 . S
O93 C97 1.244 . S
O94 Eu81 2.488 . S
O94 C110 1.249 . S
O95 Eu81 2.471 . S
O95 C110 1.244 . S
O96 Eu81 2.349 . S
O96 C97 1.265 . S
C97 O93 1.244 . S
C97 O96 1.265 . S
O98 Eu80 2.373 . S
O98 C111 1.258 . S
O99 Eu81 2.392 . S
O99 C111 1.242 . S
O100 Eu81 2.418 . S
O100 C82 1.244 . S
O101 Eu80 2.488 . S
O101 C89 1.249 . S
O102 Eu80 2.471 . S
O102 C89 1.244 . S
O103 Eu80 2.349 . S
O103 C82 1.265 . S
C104 C105 1.379 . S
C104 C108 1.373 . S
C104 C110 1.505 . S
C105 C104 1.379 . S
C105 C107 1.369 . S
C105 H116 0.930 . S
C106 C108 1.383 . S
C106 C109 1.382 . S
C106 H117 0.930 . S
C107 C105 1.369 . S
C107 C109 1.392 . S
C107 H118 0.930 . S
C108 C104 1.373 . S
C108 C106 1.383 . S
C108 H119 0.931 . S
C109 C106 1.382 . S
C109 C107 1.392 . S
C110 Eu81 2.828 . S
C110 O94 1.249 . S
C110 O95 1.244 . S
C110 C104 1.505 . S
C111 O98 1.258 . S
C111 O99 1.242 . S
H112 C84 0.930 . S
H113 C85 0.930 . S
H114 C86 0.930 . S
H115 C87 0.931 . S
H116 C105 0.930 . S
H117 C106 0.930 . S
H118 C107 0.930 . S
H119 C108 0.931 . S
Eu120 C129 2.828 . S
Eu120 O131 2.392 . S
Eu120 O133 2.418 . S
Eu120 O138 2.373 . S
Eu120 O141 2.488 . S
Eu120 O142 2.471 . S
Eu120 O143 2.349 . S
Eu121 O130 2.373 . S
Eu121 O134 2.488 . S
Eu121 O135 2.471 . S
Eu121 O136 2.349 . S
Eu121 O139 2.392 . S
Eu121 O140 2.418 . S
Eu121 C150 2.828 . S
C122 O140 1.244 . S
C122 O143 1.265 . S
C123 C124 1.379 . S
C123 C127 1.373 . S
C123 C129 1.505 . S
C124 C123 1.379 . S
C124 C126 1.369 . S
C124 H152 0.930 . S
C125 C127 1.383 . S
C125 C128 1.382 . S
C125 H153 0.930 . S
C126 C124 1.369 . S
C126 C128 1.392 . S
C126 H154 0.930 . S
C127 C123 1.373 . S
C127 C125 1.383 . S
C127 H155 0.931 . S
C128 C125 1.382 . S
C128 C126 1.392 . S
C129 Eu120 2.828 . S
C129 C123 1.505 . S
C129 O141 1.249 . S
C129 O142 1.244 . S
O130 Eu121 2.373 . S
O130 C132 1.258 . S
O131 Eu120 2.392 . S
O131 C132 1.242 . S
C132 O130 1.258 . S
C132 O131 1.242 . S
O133 Eu120 2.418 . S
O133 C137 1.244 . S
O134 Eu121 2.488 . S
O134 C150 1.249 . S
O135 Eu121 2.471 . S
O135 C150 1.244 . S
O136 Eu121 2.349 . S
O136 C137 1.265 . S
C137 O133 1.244 . S
C137 O136 1.265 . S
O138 Eu120 2.373 . S
O138 C151 1.258 . S
O139 Eu121 2.392 . S
O139 C151 1.242 . S
O140 Eu121 2.418 . S
O140 C122 1.244 . S
O141 Eu120 2.488 . S
O141 C129 1.249 . S
O142 Eu120 2.471 . S
O142 C129 1.244 . S
O143 Eu120 2.349 . S
O143 C122 1.265 . S
C144 C145 1.379 . S
C144 C148 1.373 . S
C144 C150 1.505 1_554 S
C145 C144 1.379 . S
C145 C147 1.369 . S
C145 H156 0.930 . S
C146 C148 1.383 . S
C146 C149 1.382 . S
C146 H157 0.930 . S
C147 C145 1.369 . S
C147 C149 1.392 . S
C147 H158 0.930 . S
C148 C144 1.373 . S
C148 C146 1.383 . S
C148 H159 0.931 . S
C149 C146 1.382 . S
C149 C147 1.392 . S
C150 Eu121 2.828 . S
C150 O134 1.249 . S
C150 O135 1.244 . S
C150 C144 1.505 1_556 S
C151 O138 1.258 . S
C151 O139 1.242 . S
H152 C124 0.930 . S
H153 C125 0.930 . S
H154 C126 0.930 . S
H155 C127 0.931 . S
H156 C145 0.930 . S
H157 C146 0.930 . S
H158 C147 0.930 . S
H159 C148 0.931 . S
Eu160 C169 2.828 . S
Eu160 O171 2.392 . S
Eu160 O173 2.418 . S
Eu160 O178 2.373 . S
Eu160 O181 2.488 . S
Eu160 O182 2.471 . S
Eu160 O183 2.349 . S
Eu161 O170 2.373 . S
Eu161 O174 2.488 . S
Eu161 O175 2.471 . S
Eu161 O176 2.349 . S
Eu161 O179 2.392 . S
Eu161 O180 2.418 . S
Eu161 C190 2.828 . S
C162 O180 1.244 . S
C162 O183 1.265 . S
C163 C164 1.379 . S
C163 C167 1.373 . S
C163 C169 1.505 . S
C164 C163 1.379 . S
C164 C166 1.369 . S
C164 H192 0.930 . S
C165 C167 1.383 . S
C165 C168 1.382 . S
C165 H193 0.930 . S
C166 C164 1.369 . S
C166 C168 1.392 . S
C166 H194 0.930 . S
C167 C163 1.373 . S
C167 C165 1.383 . S
C167 H195 0.931 . S
C168 C165 1.382 . S
C168 C166 1.392 . S
C169 Eu160 2.828 . S
C169 C163 1.505 . S
C169 O181 1.249 . S
C169 O182 1.244 . S
O170 Eu161 2.373 . S
O170 C172 1.258 . S
O171 Eu160 2.392 . S
O171 C172 1.242 . S
C172 O170 1.258 . S
C172 O171 1.242 . S
O173 Eu160 2.418 . S
O173 C177 1.244 . S
O174 Eu161 2.488 . S
O174 C190 1.249 . S
O175 Eu161 2.471 . S
O175 C190 1.244 . S
O176 Eu161 2.349 . S
O176 C177 1.265 . S
C177 O173 1.244 . S
C177 O176 1.265 . S
O178 Eu160 2.373 . S
O178 C191 1.258 . S
O179 Eu161 2.392 . S
O179 C191 1.242 . S
O180 Eu161 2.418 . S
O180 C162 1.244 . S
O181 Eu160 2.488 . S
O181 C169 1.249 . S
O182 Eu160 2.471 . S
O182 C169 1.244 . S
O183 Eu160 2.349 . S
O183 C162 1.265 . S
C184 C185 1.379 . S
C184 C188 1.373 . S
C184 C190 1.505 . S
C185 C184 1.379 . S
C185 C187 1.369 . S
C185 H196 0.930 . S
C186 C188 1.383 . S
C186 C189 1.382 . S
C186 H197 0.930 . S
C187 C185 1.369 . S
C187 C189 1.392 . S
C187 H198 0.930 . S
C188 C184 1.373 . S
C188 C186 1.383 . S
C188 H199 0.931 . S
C189 C186 1.382 . S
C189 C187 1.392 . S
C190 Eu161 2.828 . S
C190 O174 1.249 . S
C190 O175 1.244 . S
C190 C184 1.505 . S
C191 O178 1.258 . S
C191 O179 1.242 . S
H192 C164 0.930 . S
H193 C165 0.930 . S
H194 C166 0.930 . S
H195 C167 0.931 . S
H196 C185 0.930 . S
H197 C186 0.930 . S
H198 C187 0.930 . S
H199 C188 0.931 . S
Eu200 C209 2.828 1_556 S
Eu200 O211 2.392 . S
Eu200 O213 2.418 . S
Eu200 O218 2.373 1_556 S
Eu200 O221 2.488 1_556 S
Eu200 O222 2.471 1_556 S
Eu200 O223 2.349 . S
Eu201 O210 2.373 . S
Eu201 O214 2.488 . S
Eu201 O215 2.471 . S
Eu201 O216 2.349 . S
Eu201 O219 2.392 . S
Eu201 O220 2.418 . S
Eu201 C230 2.828 . S
C202 O220 1.244 . S
C202 O223 1.265 . S
C203 C204 1.379 . S
C203 C207 1.373 . S
C203 C209 1.505 . S
C204 C203 1.379 . S
C204 C206 1.369 . S
C204 H232 0.930 . S
C205 C207 1.383 . S
C205 C208 1.382 . S
C205 H233 0.930 . S
C206 C204 1.369 . S
C206 C208 1.392 . S
C206 H234 0.930 . S
C207 C203 1.373 . S
C207 C205 1.383 . S
C207 H235 0.931 . S
C208 C205 1.382 . S
C208 C206 1.392 . S
C209 Eu200 2.828 1_554 S
C209 C203 1.505 . S
C209 O221 1.249 . S
C209 O222 1.244 . S
O210 Eu201 2.373 . S
O210 C212 1.258 . S
O211 Eu200 2.392 . S
O211 C212 1.242 . S
C212 O210 1.258 . S
C212 O211 1.242 . S
O213 Eu200 2.418 . S
O213 C217 1.244 . S
O214 Eu201 2.488 . S
O214 C230 1.249 . S
O215 Eu201 2.471 . S
O215 C230 1.244 . S
O216 Eu201 2.349 . S
O216 C217 1.265 . S
C217 O213 1.244 . S
C217 O216 1.265 . S
O218 Eu200 2.373 1_554 S
O218 C231 1.258 . S
O219 Eu201 2.392 . S
O219 C231 1.242 1_556 S
O220 Eu201 2.418 . S
O220 C202 1.244 . S
O221 Eu200 2.488 1_554 S
O221 C209 1.249 . S
O222 Eu200 2.471 1_554 S
O222 C209 1.244 . S
O223 Eu200 2.349 . S
O223 C202 1.265 . S
C224 C225 1.379 . S
C224 C228 1.373 . S
C224 C230 1.505 . S
C225 C224 1.379 . S
C225 C227 1.369 . S
C225 H236 0.930 . S
C226 C228 1.383 . S
C226 C229 1.382 . S
C226 H237 0.930 . S
C227 C225 1.369 . S
C227 C229 1.392 . S
C227 H238 0.930 . S
C228 C224 1.373 . S
C228 C226 1.383 . S
C228 H239 0.931 . S
C229 C226 1.382 . S
C229 C227 1.392 . S
C230 Eu201 2.828 . S
C230 O214 1.249 . S
C230 O215 1.244 . S
C230 C224 1.505 . S
C231 O218 1.258 . S
C231 O219 1.242 1_554 S
H232 C204 0.930 . S
H233 C205 0.930 . S
H234 C206 0.930 . S
H235 C207 0.931 . S
H236 C225 0.930 . S
H237 C226 0.930 . S
H238 C227 0.930 . S
H239 C228 0.931 . S
Eu240 C249 2.828 . S
Eu240 O251 2.392 . S
Eu240 O253 2.418 . S
Eu240 O258 2.373 . S
Eu240 O261 2.488 . S
Eu240 O262 2.471 . S
Eu240 O263 2.349 . S
Eu241 O250 2.373 . S
Eu241 O254 2.488 . S
Eu241 O255 2.471 . S
Eu241 O256 2.349 . S
Eu241 O259 2.392 . S
Eu241 O260 2.418 . S
Eu241 C270 2.828 . S
C242 O260 1.244 . S
C242 O263 1.265 . S
C243 C244 1.379 . S
C243 C247 1.373 . S
C243 C249 1.505 . S
C244 C243 1.379 . S
C244 C246 1.369 . S
C244 H272 0.930 . S
C245 C247 1.383 . S
C245 C248 1.382 . S
C245 H273 0.930 . S
C246 C244 1.369 . S
C246 C248 1.392 . S
C246 H274 0.930 . S
C247 C243 1.373 . S
C247 C245 1.383 . S
C247 H275 0.931 . S
C248 C245 1.382 . S
C248 C246 1.392 . S
C249 Eu240 2.828 . S
C249 C243 1.505 . S
C249 O261 1.249 . S
C249 O262 1.244 . S
O250 Eu241 2.373 . S
O250 C252 1.258 . S
O251 Eu240 2.392 . S
O251 C252 1.242 . S
C252 O250 1.258 . S
C252 O251 1.242 . S
O253 Eu240 2.418 . S
O253 C257 1.244 . S
O254 Eu241 2.488 . S
O254 C270 1.249 . S
O255 Eu241 2.471 . S
O255 C270 1.244 . S
O256 Eu241 2.349 . S
O256 C257 1.265 . S
C257 O253 1.244 . S
C257 O256 1.265 . S
O258 Eu240 2.373 . S
O258 C271 1.258 . S
O259 Eu241 2.392 . S
O259 C271 1.242 . S
O260 Eu241 2.418 . S
O260 C242 1.244 . S
O261 Eu240 2.488 . S
O261 C249 1.249 . S
O262 Eu240 2.471 . S
O262 C249 1.244 . S
O263 Eu240 2.349 . S
O263 C242 1.265 . S
C264 C265 1.379 . S
C264 C268 1.373 . S
C264 C270 1.505 . S
C265 C264 1.379 . S
C265 C267 1.369 1_554 S
C265 H276 0.930 . S
C266 C268 1.383 1_556 S
C266 C269 1.382 . S
C266 H277 0.930 . S
C267 C265 1.369 1_556 S
C267 C269 1.392 . S
C267 H278 0.930 . S
C268 C264 1.373 . S
C268 C266 1.383 1_554 S
C268 H279 0.931 . S
C269 C266 1.382 . S
C269 C267 1.392 . S
C270 Eu241 2.828 . S
C270 O254 1.249 . S
C270 O255 1.244 . S
C270 C264 1.505 . S
C271 O258 1.258 . S
C271 O259 1.242 . S
H272 C244 0.930 . S
H273 C245 0.930 . S
H274 C246 0.930 . S
H275 C247 0.931 . S
H276 C265 0.930 . S
H277 C266 0.930 . S
H278 C267 0.930 . S
H279 C268 0.931 . S
Eu280 C289 2.828 . S
Eu280 O291 2.392 . S
Eu280 O293 2.418 . S
Eu280 O298 2.373 . S
Eu280 O301 2.488 . S
Eu280 O302 2.471 . S
Eu280 O303 2.349 . S
Eu281 O290 2.373 . S
Eu281 O294 2.488 . S
Eu281 O295 2.471 . S
Eu281 O296 2.349 . S
Eu281 O299 2.392 . S
Eu281 O300 2.418 . S
Eu281 C310 2.828 . S
C282 O300 1.244 . S
C282 O303 1.265 . S
C283 C284 1.379 . S
C283 C287 1.373 . S
C283 C289 1.505 . S
C284 C283 1.379 . S
C284 C286 1.369 . S
C284 H312 0.930 . S
C285 C287 1.383 . S
C285 C288 1.382 . S
C285 H313 0.930 . S
C286 C284 1.369 . S
C286 C288 1.392 . S
C286 H314 0.930 . S
C287 C283 1.373 . S
C287 C285 1.383 . S
C287 H315 0.931 . S
C288 C285 1.382 . S
C288 C286 1.392 . S
C289 Eu280 2.828 . S
C289 C283 1.505 . S
C289 O301 1.249 . S
C289 O302 1.244 . S
O290 Eu281 2.373 . S
O290 C292 1.258 . S
O291 Eu280 2.392 . S
O291 C292 1.242 . S
C292 O290 1.258 . S
C292 O291 1.242 . S
O293 Eu280 2.418 . S
O293 C297 1.244 . S
O294 Eu281 2.488 . S
O294 C310 1.249 . S
O295 Eu281 2.471 . S
O295 C310 1.244 . S
O296 Eu281 2.349 . S
O296 C297 1.265 . S
C297 O293 1.244 . S
C297 O296 1.265 . S
O298 Eu280 2.373 . S
O298 C311 1.258 . S
O299 Eu281 2.392 . S
O299 C311 1.242 . S
O300 Eu281 2.418 . S
O300 C282 1.244 . S
O301 Eu280 2.488 . S
O301 C289 1.249 . S
O302 Eu280 2.471 . S
O302 C289 1.244 . S
O303 Eu280 2.349 . S
O303 C282 1.265 . S
C304 C305 1.379 . S
C304 C308 1.373 . S
C304 C310 1.505 . S
C305 C304 1.379 . S
C305 C307 1.369 . S
C305 H316 0.930 . S
C306 C308 1.383 . S
C306 C309 1.382 . S
C306 H317 0.930 . S
C307 C305 1.369 . S
C307 C309 1.392 . S
C307 H318 0.930 . S
C308 C304 1.373 . S
C308 C306 1.383 . S
C308 H319 0.931 . S
C309 C306 1.382 . S
C309 C307 1.392 . S
C310 Eu281 2.828 . S
C310 O294 1.249 . S
C310 O295 1.244 . S
C310 C304 1.505 . S
C311 O298 1.258 . S
C311 O299 1.242 . S
H312 C284 0.930 . S
H313 C285 0.930 . S
H314 C286 0.930 . S
H315 C287 0.931 . S
H316 C305 0.930 . S
H317 C306 0.930 . S
H318 C307 0.930 . S
H319 C308 0.931 . S
Eu320 C329 2.828 . S
Eu320 O331 2.392 . S
Eu320 O333 2.418 . S
Eu320 O338 2.373 . S
Eu320 O341 2.488 . S
Eu320 O342 2.471 . S
Eu320 O343 2.349 . S
Eu321 O330 2.373 . S
Eu321 O334 2.488 . S
Eu321 O335 2.471 . S
Eu321 O336 2.349 . S
Eu321 O339 2.392 . S
Eu321 O340 2.418 . S
Eu321 C350 2.828 . S
C322 O340 1.244 . S
C322 O343 1.265 . S
C323 C324 1.379 . S
C323 C327 1.373 . S
C323 C329 1.505 . S
C324 C323 1.379 . S
C324 C326 1.369 1_554 S
C324 H352 0.930 . S
C325 C327 1.383 1_556 S
C325 C328 1.382 . S
C325 H353 0.930 . S
C326 C324 1.369 1_556 S
C326 C328 1.392 . S
C326 H354 0.930 . S
C327 C323 1.373 . S
C327 C325 1.383 1_554 S
C327 H355 0.931 . S
C328 C325 1.382 . S
C328 C326 1.392 . S
C329 Eu320 2.828 . S
C329 C323 1.505 . S
C329 O341 1.249 . S
C329 O342 1.244 . S
O330 Eu321 2.373 . S
O330 C332 1.258 . S
O331 Eu320 2.392 . S
O331 C332 1.242 . S
C332 O330 1.258 . S
C332 O331 1.242 . S
O333 Eu320 2.418 . S
O333 C337 1.244 . S
O334 Eu321 2.488 . S
O334 C350 1.249 . S
O335 Eu321 2.471 . S
O335 C350 1.244 . S
O336 Eu321 2.349 . S
O336 C337 1.265 . S
C337 O333 1.244 . S
C337 O336 1.265 . S
O338 Eu320 2.373 . S
O338 C351 1.258 . S
O339 Eu321 2.392 . S
O339 C351 1.242 . S
O340 Eu321 2.418 . S
O340 C322 1.244 . S
O341 Eu320 2.488 . S
O341 C329 1.249 . S
O342 Eu320 2.471 . S
O342 C329 1.244 . S
O343 Eu320 2.349 . S
O343 C322 1.265 . S
C344 C345 1.379 . S
C344 C348 1.373 . S
C344 C350 1.505 . S
C345 C344 1.379 . S
C345 C347 1.369 . S
C345 H356 0.930 . S
C346 C348 1.383 . S
C346 C349 1.382 . S
C346 H357 0.930 . S
C347 C345 1.369 . S
C347 C349 1.392 . S
C347 H358 0.930 . S
C348 C344 1.373 . S
C348 C346 1.383 . S
C348 H359 0.931 . S
C349 C346 1.382 . S
C349 C347 1.392 . S
C350 Eu321 2.828 . S
C350 O334 1.249 . S
C350 O335 1.244 . S
C350 C344 1.505 . S
C351 O338 1.258 . S
C351 O339 1.242 . S
H352 C324 0.930 . S
H353 C325 0.930 . S
H354 C326 0.930 . S
H355 C327 0.931 . S
H356 C345 0.930 . S
H357 C346 0.930 . S
H358 C347 0.930 . S
H359 C348 0.931 . S
Eu360 C369 2.828 . S
Eu360 O371 2.392 . S
Eu360 O373 2.418 . S
Eu360 O378 2.373 . S
Eu360 O381 2.488 . S
Eu360 O382 2.471 . S
Eu360 O383 2.349 . S
Eu361 O370 2.373 1_556 S
Eu361 O374 2.488 1_556 S
Eu361 O375 2.471 1_556 S
Eu361 O376 2.349 . S
Eu361 O379 2.392 . S
Eu361 O380 2.418 . S
Eu361 C390 2.828 1_556 S
C362 O380 1.244 . S
C362 O383 1.265 . S
C363 C364 1.379 . S
C363 C367 1.373 . S
C363 C369 1.505 . S
C364 C363 1.379 . S
C364 C366 1.369 . S
C364 H392 0.930 . S
C365 C367 1.383 . S
C365 C368 1.382 . S
C365 H393 0.930 . S
C366 C364 1.369 . S
C366 C368 1.392 . S
C366 H394 0.930 . S
C367 C363 1.373 . S
C367 C365 1.383 . S
C367 H395 0.931 . S
C368 C365 1.382 . S
C368 C366 1.392 . S
C369 Eu360 2.828 . S
C369 C363 1.505 . S
C369 O381 1.249 . S
C369 O382 1.244 . S
O370 Eu361 2.373 1_554 S
O370 C372 1.258 . S
O371 Eu360 2.392 . S
O371 C372 1.242 1_556 S
C372 O370 1.258 . S
C372 O371 1.242 1_554 S
O373 Eu360 2.418 . S
O373 C377 1.244 . S
O374 Eu361 2.488 1_554 S
O374 C390 1.249 . S
O375 Eu361 2.471 1_554 S
O375 C390 1.244 . S
O376 Eu361 2.349 . S
O376 C377 1.265 . S
C377 O373 1.244 . S
C377 O376 1.265 . S
O378 Eu360 2.373 . S
O378 C391 1.258 . S
O379 Eu361 2.392 . S
O379 C391 1.242 . S
O380 Eu361 2.418 . S
O380 C362 1.244 . S
O381 Eu360 2.488 . S
O381 C369 1.249 . S
O382 Eu360 2.471 . S
O382 C369 1.244 . S
O383 Eu360 2.349 . S
O383 C362 1.265 . S
C384 C385 1.379 . S
C384 C388 1.373 . S
C384 C390 1.505 . S
C385 C384 1.379 . S
C385 C387 1.369 . S
C385 H396 0.930 . S
C386 C388 1.383 . S
C386 C389 1.382 . S
C386 H397 0.930 . S
C387 C385 1.369 . S
C387 C389 1.392 . S
C387 H398 0.930 . S
C388 C384 1.373 . S
C388 C386 1.383 . S
C388 H399 0.931 . S
C389 C386 1.382 . S
C389 C387 1.392 . S
C390 Eu361 2.828 1_554 S
C390 O374 1.249 . S
C390 O375 1.244 . S
C390 C384 1.505 . S
C391 O378 1.258 . S
C391 O379 1.242 . S
H392 C364 0.930 . S
H393 C365 0.930 . S
H394 C366 0.930 . S
H395 C367 0.931 . S
H396 C385 0.930 . S
H397 C386 0.930 . S
H398 C387 0.930 . S
H399 C388 0.931 . S
Eu400 C409 2.828 . S
Eu400 O411 2.392 . S
Eu400 O413 2.418 . S
Eu400 O418 2.373 . S
Eu400 O421 2.488 . S
Eu400 O422 2.471 . S
Eu400 O423 2.349 . S
Eu401 O410 2.373 . S
Eu401 O414 2.488 . S
Eu401 O415 2.471 . S
Eu401 O416 2.349 . S
Eu401 O419 2.392 . S
Eu401 O420 2.418 . S
Eu401 C430 2.828 . S
C402 O420 1.244 . S
C402 O423 1.265 . S
C403 C404 1.379 . S
C403 C407 1.373 . S
C403 C409 1.505 . S
C404 C403 1.379 . S
C404 C406 1.369 . S
C404 H432 0.930 . S
C405 C407 1.383 . S
C405 C408 1.382 . S
C405 H433 0.930 . S
C406 C404 1.369 . S
C406 C408 1.392 . S
C406 H434 0.930 . S
C407 C403 1.373 . S
C407 C405 1.383 . S
C407 H435 0.931 . S
C408 C405 1.382 . S
C408 C406 1.392 . S
C409 Eu400 2.828 . S
C409 C403 1.505 . S
C409 O421 1.249 . S
C409 O422 1.244 . S
O410 Eu401 2.373 . S
O410 C412 1.258 . S
O411 Eu400 2.392 . S
O411 C412 1.242 . S
C412 O410 1.258 . S
C412 O411 1.242 . S
O413 Eu400 2.418 . S
O413 C417 1.244 . S
O414 Eu401 2.488 . S
O414 C430 1.249 . S
O415 Eu401 2.471 . S
O415 C430 1.244 . S
O416 Eu401 2.349 . S
O416 C417 1.265 . S
C417 O413 1.244 . S
C417 O416 1.265 . S
O418 Eu400 2.373 . S
O418 C431 1.258 . S
O419 Eu401 2.392 . S
O419 C431 1.242 . S
O420 Eu401 2.418 . S
O420 C402 1.244 . S
O421 Eu400 2.488 . S
O421 C409 1.249 . S
O422 Eu400 2.471 . S
O422 C409 1.244 . S
O423 Eu400 2.349 . S
O423 C402 1.265 . S
C424 C425 1.379 . S
C424 C428 1.373 . S
C424 C430 1.505 . S
C425 C424 1.379 . S
C425 C427 1.369 . S
C425 H436 0.930 . S
C426 C428 1.383 . S
C426 C429 1.382 . S
C426 H437 0.930 . S
C427 C425 1.369 . S
C427 C429 1.392 . S
C427 H438 0.930 . S
C428 C424 1.373 . S
C428 C426 1.383 . S
C428 H439 0.931 . S
C429 C426 1.382 . S
C429 C427 1.392 . S
C430 Eu401 2.828 . S
C430 O414 1.249 . S
C430 O415 1.244 . S
C430 C424 1.505 . S
C431 O418 1.258 . S
C431 O419 1.242 . S
H432 C404 0.930 . S
H433 C405 0.930 . S
H434 C406 0.930 . S
H435 C407 0.931 . S
H436 C425 0.930 . S
H437 C426 0.930 . S
H438 C427 0.930 . S
H439 C428 0.931 . S
Eu440 C449 2.828 . S
Eu440 O451 2.392 . S
Eu440 O453 2.418 . S
Eu440 O458 2.373 . S
Eu440 O461 2.488 . S
Eu440 O462 2.471 . S
Eu440 O463 2.349 . S
Eu441 O450 2.373 . S
Eu441 O454 2.488 . S
Eu441 O455 2.471 . S
Eu441 O456 2.349 . S
Eu441 O459 2.392 . S
Eu441 O460 2.418 . S
Eu441 C470 2.828 . S
C442 O460 1.244 . S
C442 O463 1.265 . S
C443 C444 1.379 . S
C443 C447 1.373 . S
C443 C449 1.505 . S
C444 C443 1.379 . S
C444 C446 1.369 . S
C444 H472 0.930 . S
C445 C447 1.383 . S
C445 C448 1.382 . S
C445 H473 0.930 . S
C446 C444 1.369 . S
C446 C448 1.392 . S
C446 H474 0.930 . S
C447 C443 1.373 . S
C447 C445 1.383 . S
C447 H475 0.931 . S
C448 C445 1.382 . S
C448 C446 1.392 . S
C449 Eu440 2.828 . S
C449 C443 1.505 . S
C449 O461 1.249 . S
C449 O462 1.244 . S
O450 Eu441 2.373 . S
O450 C452 1.258 . S
O451 Eu440 2.392 . S
O451 C452 1.242 . S
C452 O450 1.258 . S
C452 O451 1.242 . S
O453 Eu440 2.418 . S
O453 C457 1.244 . S
O454 Eu441 2.488 . S
O454 C470 1.249 . S
O455 Eu441 2.471 . S
O455 C470 1.244 . S
O456 Eu441 2.349 . S
O456 C457 1.265 . S
C457 O453 1.244 . S
C457 O456 1.265 . S
O458 Eu440 2.373 . S
O458 C471 1.258 . S
O459 Eu441 2.392 . S
O459 C471 1.242 . S
O460 Eu441 2.418 . S
O460 C442 1.244 . S
O461 Eu440 2.488 . S
O461 C449 1.249 . S
O462 Eu440 2.471 . S
O462 C449 1.244 . S
O463 Eu440 2.349 . S
O463 C442 1.265 . S
C464 C465 1.379 . S
C464 C468 1.373 . S
C464 C470 1.505 . S
C465 C464 1.379 . S
C465 C467 1.369 . S
C465 H476 0.930 . S
C466 C468 1.383 . S
C466 C469 1.382 . S
C466 H477 0.930 . S
C467 C465 1.369 . S
C467 C469 1.392 . S
C467 H478 0.930 . S
C468 C464 1.373 . S
C468 C466 1.383 . S
C468 H479 0.931 . S
C469 C466 1.382 . S
C469 C467 1.392 . S
C470 Eu441 2.828 . S
C470 O454 1.249 . S
C470 O455 1.244 . S
C470 C464 1.505 . S
C471 O458 1.258 . S
C471 O459 1.242 . S
H472 C444 0.930 . S
H473 C445 0.930 . S
H474 C446 0.930 . S
H475 C447 0.931 . S
H476 C465 0.930 . S
H477 C466 0.930 . S
H478 C467 0.930 . S
H479 C468 0.931 . S
Eu480 C489 2.828 . S
Eu480 O491 2.392 . S
Eu480 O493 2.418 . S
Eu480 O498 2.373 . S
Eu480 O501 2.488 . S
Eu480 O502 2.471 . S
Eu480 O503 2.349 . S
Eu481 O490 2.373 . S
Eu481 O494 2.488 . S
Eu481 O495 2.471 . S
Eu481 O496 2.349 . S
Eu481 O499 2.392 . S
Eu481 O500 2.418 . S
Eu481 C510 2.828 . S
C482 O500 1.244 . S
C482 O503 1.265 . S
C483 C484 1.379 . S
C483 C487 1.373 . S
C483 C489 1.505 . S
C484 C483 1.379 . S
C484 C486 1.369 . S
C484 H512 0.930 . S
C485 C487 1.383 . S
C485 C488 1.382 . S
C485 H513 0.930 . S
C486 C484 1.369 . S
C486 C488 1.392 . S
C486 H514 0.930 . S
C487 C483 1.373 . S
C487 C485 1.383 . S
C487 H515 0.931 . S
C488 C485 1.382 . S
C488 C486 1.392 . S
C489 Eu480 2.828 . S
C489 C483 1.505 . S
C489 O501 1.249 . S
C489 O502 1.244 . S
O490 Eu481 2.373 . S
O490 C492 1.258 . S
O491 Eu480 2.392 . S
O491 C492 1.242 . S
C492 O490 1.258 . S
C492 O491 1.242 . S
O493 Eu480 2.418 . S
O493 C497 1.244 . S
O494 Eu481 2.488 . S
O494 C510 1.249 . S
O495 Eu481 2.471 . S
O495 C510 1.244 . S
O496 Eu481 2.349 . S
O496 C497 1.265 . S
C497 O493 1.244 . S
C497 O496 1.265 . S
O498 Eu480 2.373 . S
O498 C511 1.258 . S
O499 Eu481 2.392 . S
O499 C511 1.242 . S
O500 Eu481 2.418 . S
O500 C482 1.244 . S
O501 Eu480 2.488 . S
O501 C489 1.249 . S
O502 Eu480 2.471 . S
O502 C489 1.244 . S
O503 Eu480 2.349 . S
O503 C482 1.265 . S
C504 C505 1.379 . S
C504 C508 1.373 . S
C504 C510 1.505 . S
C505 C504 1.379 . S
C505 C507 1.369 . S
C505 H516 0.930 . S
C506 C508 1.383 . S
C506 C509 1.382 . S
C506 H517 0.930 . S
C507 C505 1.369 . S
C507 C509 1.392 . S
C507 H518 0.930 . S
C508 C504 1.373 . S
C508 C506 1.383 . S
C508 H519 0.931 . S
C509 C506 1.382 . S
C509 C507 1.392 . S
C510 Eu481 2.828 . S
C510 O494 1.249 . S
C510 O495 1.244 . S
C510 C504 1.505 . S
C511 O498 1.258 . S
C511 O499 1.242 . S
H512 C484 0.930 . S
H513 C485 0.930 . S
H514 C486 0.930 . S
H515 C487 0.931 . S
H516 C505 0.930 . S
H517 C506 0.930 . S
H518 C507 0.930 . S
H519 C508 0.931 . S
Eu520 C529 2.828 . S
Eu520 O531 2.392 . S
Eu520 O533 2.418 . S
Eu520 O538 2.373 . S
Eu520 O541 2.488 . S
Eu520 O542 2.471 . S
Eu520 O543 2.349 . S
Eu521 O530 2.373 . S
Eu521 O534 2.488 . S
Eu521 O535 2.471 . S
Eu521 O536 2.349 . S
Eu521 O539 2.392 . S
Eu521 O540 2.418 . S
Eu521 C550 2.828 . S
C522 O540 1.244 . S
C522 O543 1.265 . S
C523 C524 1.379 . S
C523 C527 1.373 . S
C523 C529 1.505 . S
C524 C523 1.379 . S
C524 C526 1.369 . S
C524 H552 0.930 . S
C525 C527 1.383 . S
C525 C528 1.382 . S
C525 H553 0.930 . S
C526 C524 1.369 . S
C526 C528 1.392 . S
C526 H554 0.930 . S
C527 C523 1.373 . S
C527 C525 1.383 . S
C527 H555 0.931 . S
C528 C525 1.382 . S
C528 C526 1.392 . S
C529 Eu520 2.828 . S
C529 C523 1.505 . S
C529 O541 1.249 . S
C529 O542 1.244 . S
O530 Eu521 2.373 . S
O530 C532 1.258 . S
O531 Eu520 2.392 . S
O531 C532 1.242 . S
C532 O530 1.258 . S
C532 O531 1.242 . S
O533 Eu520 2.418 . S
O533 C537 1.244 . S
O534 Eu521 2.488 . S
O534 C550 1.249 . S
O535 Eu521 2.471 . S
O535 C550 1.244 . S
O536 Eu521 2.349 . S
O536 C537 1.265 . S
C537 O533 1.244 . S
C537 O536 1.265 . S
O538 Eu520 2.373 . S
O538 C551 1.258 . S
O539 Eu521 2.392 . S
O539 C551 1.242 . S
O540 Eu521 2.418 . S
O540 C522 1.244 . S
O541 Eu520 2.488 . S
O541 C529 1.249 . S
O542 Eu520 2.471 . S
O542 C529 1.244 . S
O543 Eu520 2.349 . S
O543 C522 1.265 . S
C544 C545 1.379 . S
C544 C548 1.373 . S
C544 C550 1.505 . S
C545 C544 1.379 . S
C545 C547 1.369 . S
C545 H556 0.930 . S
C546 C548 1.383 . S
C546 C549 1.382 . S
C546 H557 0.930 . S
C547 C545 1.369 . S
C547 C549 1.392 . S
C547 H558 0.930 . S
C548 C544 1.373 . S
C548 C546 1.383 . S
C548 H559 0.931 . S
C549 C546 1.382 . S
C549 C547 1.392 . S
C550 Eu521 2.828 . S
C550 O534 1.249 . S
C550 O535 1.244 . S
C550 C544 1.505 . S
C551 O538 1.258 . S
C551 O539 1.242 . S
H552 C524 0.930 . S
H553 C525 0.930 . S
H554 C526 0.930 . S
H555 C527 0.931 . S
H556 C545 0.930 . S
H557 C546 0.930 . S
H558 C547 0.930 . S
H559 C548 0.931 . S
Eu560 C569 2.828 . S
Eu560 O571 2.392 . S
Eu560 O573 2.418 . S
Eu560 O578 2.373 . S
Eu560 O581 2.488 . S
Eu560 O582 2.471 . S
Eu560 O583 2.349 . S
Eu561 O570 2.373 . S
Eu561 O574 2.488 . S
Eu561 O575 2.471 . S
Eu561 O576 2.349 . S
Eu561 O579 2.392 . S
Eu561 O580 2.418 . S
Eu561 C590 2.828 . S
C562 O580 1.244 . S
C562 O583 1.265 . S
C563 C564 1.379 . S
C563 C567 1.373 . S
C563 C569 1.505 . S
C564 C563 1.379 . S
C564 C566 1.369 . S
C564 H592 0.930 . S
C565 C567 1.383 . S
C565 C568 1.382 . S
C565 H593 0.930 . S
C566 C564 1.369 . S
C566 C568 1.392 . S
C566 H594 0.930 . S
C567 C563 1.373 . S
C567 C565 1.383 . S
C567 H595 0.931 . S
C568 C565 1.382 . S
C568 C566 1.392 . S
C569 Eu560 2.828 . S
C569 C563 1.505 . S
C569 O581 1.249 . S
C569 O582 1.244 . S
O570 Eu561 2.373 . S
O570 C572 1.258 . S
O571 Eu560 2.392 . S
O571 C572 1.242 . S
C572 O570 1.258 . S
C572 O571 1.242 . S
O573 Eu560 2.418 . S
O573 C577 1.244 . S
O574 Eu561 2.488 . S
O574 C590 1.249 . S
O575 Eu561 2.471 . S
O575 C590 1.244 . S
O576 Eu561 2.349 . S
O576 C577 1.265 . S
C577 O573 1.244 . S
C577 O576 1.265 . S
O578 Eu560 2.373 . S
O578 C591 1.258 . S
O579 Eu561 2.392 . S
O579 C591 1.242 . S
O580 Eu561 2.418 . S
O580 C562 1.244 . S
O581 Eu560 2.488 . S
O581 C569 1.249 . S
O582 Eu560 2.471 . S
O582 C569 1.244 . S
O583 Eu560 2.349 . S
O583 C562 1.265 . S
C584 C585 1.379 . S
C584 C588 1.373 . S
C584 C590 1.505 1_556 S
C585 C584 1.379 . S
C585 C587 1.369 . S
C585 H596 0.930 . S
C586 C588 1.383 . S
C586 C589 1.382 . S
C586 H597 0.930 . S
C587 C585 1.369 . S
C587 C589 1.392 . S
C587 H598 0.930 . S
C588 C584 1.373 . S
C588 C586 1.383 . S
C588 H599 0.931 . S
C589 C586 1.382 . S
C589 C587 1.392 . S
C590 Eu561 2.828 . S
C590 O574 1.249 . S
C590 O575 1.244 . S
C590 C584 1.505 1_554 S
C591 O578 1.258 . S
C591 O579 1.242 . S
H592 C564 0.930 . S
H593 C565 0.930 . S
H594 C566 0.930 . S
H595 C567 0.931 . S
H596 C585 0.930 . S
H597 C586 0.930 . S
H598 C587 0.930 . S
H599 C588 0.931 . S
Eu600 C609 2.828 . S
Eu600 O611 2.392 . S
Eu600 O613 2.418 . S
Eu600 O618 2.373 . S
Eu600 O621 2.488 . S
Eu600 O622 2.471 . S
Eu600 O623 2.349 . S
Eu601 O610 2.373 . S
Eu601 O614 2.488 . S
Eu601 O615 2.471 . S
Eu601 O616 2.349 . S
Eu601 O619 2.392 . S
Eu601 O620 2.418 . S
Eu601 C630 2.828 . S
C602 O620 1.244 . S
C602 O623 1.265 . S
C603 C604 1.379 . S
C603 C607 1.373 . S
C603 C609 1.505 1_554 S
C604 C603 1.379 . S
C604 C606 1.369 . S
C604 H632 0.930 . S
C605 C607 1.383 . S
C605 C608 1.382 . S
C605 H633 0.930 . S
C606 C604 1.369 . S
C606 C608 1.392 . S
C606 H634 0.930 . S
C607 C603 1.373 . S
C607 C605 1.383 . S
C607 H635 0.931 . S
C608 C605 1.382 . S
C608 C606 1.392 . S
C609 Eu600 2.828 . S
C609 C603 1.505 1_556 S
C609 O621 1.249 . S
C609 O622 1.244 . S
O610 Eu601 2.373 . S
O610 C612 1.258 . S
O611 Eu600 2.392 . S
O611 C612 1.242 . S
C612 O610 1.258 . S
C612 O611 1.242 . S
O613 Eu600 2.418 . S
O613 C617 1.244 . S
O614 Eu601 2.488 . S
O614 C630 1.249 . S
O615 Eu601 2.471 . S
O615 C630 1.244 . S
O616 Eu601 2.349 . S
O616 C617 1.265 . S
C617 O613 1.244 . S
C617 O616 1.265 . S
O618 Eu600 2.373 . S
O618 C631 1.258 . S
O619 Eu601 2.392 . S
O619 C631 1.242 . S
O620 Eu601 2.418 . S
O620 C602 1.244 . S
O621 Eu600 2.488 . S
O621 C609 1.249 . S
O622 Eu600 2.471 . S
O622 C609 1.244 . S
O623 Eu600 2.349 . S
O623 C602 1.265 . S
C624 C625 1.379 . S
C624 C628 1.373 . S
C624 C630 1.505 . S
C625 C624 1.379 . S
C625 C627 1.369 . S
C625 H636 0.930 . S
C626 C628 1.383 . S
C626 C629 1.382 . S
C626 H637 0.930 . S
C627 C625 1.369 . S
C627 C629 1.392 . S
C627 H638 0.930 . S
C628 C624 1.373 . S
C628 C626 1.383 . S
C628 H639 0.931 . S
C629 C626 1.382 . S
C629 C627 1.392 . S
C630 Eu601 2.828 . S
C630 O614 1.249 . S
C630 O615 1.244 . S
C630 C624 1.505 . S
C631 O618 1.258 . S
C631 O619 1.242 . S
H632 C604 0.930 . S
H633 C605 0.930 . S
H634 C606 0.930 . S
H635 C607 0.931 . S
H636 C625 0.930 . S
H637 C626 0.930 . S
H638 C627 0.930 . S
H639 C628 0.931 . S
Eu640 C649 2.828 . S
Eu640 O651 2.392 . S
Eu640 O653 2.418 . S
Eu640 O658 2.373 . S
Eu640 O661 2.488 . S
Eu640 O662 2.471 . S
Eu640 O663 2.349 . S
Eu641 O650 2.373 . S
Eu641 O654 2.488 . S
Eu641 O655 2.471 . S
Eu641 O656 2.349 . S
Eu641 O659 2.392 . S
Eu641 O660 2.418 . S
Eu641 C670 2.828 . S
C642 O660 1.244 . S
C642 O663 1.265 . S
C643 C644 1.379 . S
C643 C647 1.373 . S
C643 C649 1.505 . S
C644 C643 1.379 . S
C644 C646 1.369 . S
C644 H672 0.930 . S
C645 C647 1.383 . S
C645 C648 1.382 . S
C645 H673 0.930 . S
C646 C644 1.369 . S
C646 C648 1.392 . S
C646 H674 0.930 . S
C647 C643 1.373 . S
C647 C645 1.383 . S
C647 H675 0.931 . S
C648 C645 1.382 . S
C648 C646 1.392 . S
C649 Eu640 2.828 . S
C649 C643 1.505 . S
C649 O661 1.249 . S
C649 O662 1.244 . S
O650 Eu641 2.373 . S
O650 C652 1.258 . S
O651 Eu640 2.392 . S
O651 C652 1.242 . S
C652 O650 1.258 . S
C652 O651 1.242 . S
O653 Eu640 2.418 . S
O653 C657 1.244 . S
O654 Eu641 2.488 . S
O654 C670 1.249 . S
O655 Eu641 2.471 . S
O655 C670 1.244 . S
O656 Eu641 2.349 . S
O656 C657 1.265 . S
C657 O653 1.244 . S
C657 O656 1.265 . S
O658 Eu640 2.373 . S
O658 C671 1.258 . S
O659 Eu641 2.392 . S
O659 C671 1.242 . S
O660 Eu641 2.418 . S
O660 C642 1.244 . S
O661 Eu640 2.488 . S
O661 C649 1.249 . S
O662 Eu640 2.471 . S
O662 C649 1.244 . S
O663 Eu640 2.349 . S
O663 C642 1.265 . S
C664 C665 1.379 . S
C664 C668 1.373 . S
C664 C670 1.505 . S
C665 C664 1.379 . S
C665 C667 1.369 . S
C665 H676 0.930 . S
C666 C668 1.383 . S
C666 C669 1.380 . S
C666 H677 0.933 1_565 S
C667 C665 1.369 . S
C667 C669 1.392 . S
C667 H678 0.930 . S
C668 C664 1.373 . S
C668 C666 1.383 . S
C668 H679 0.931 1_565 S
C669 C666 1.380 . S
C669 C667 1.392 . S
C670 Eu641 2.828 . S
C670 O654 1.249 . S
C670 O655 1.244 . S
C670 C664 1.505 . S
C671 O658 1.258 . S
C671 O659 1.242 . S
H672 C644 0.930 . S
H673 C645 0.930 . S
H674 C646 0.930 . S
H675 C647 0.931 . S
H676 C665 0.930 . S
H677 C666 0.933 1_545 S
H678 C667 0.930 . S
H679 C668 0.931 1_545 S
Eu680 C689 2.828 . S
Eu680 O691 2.392 . S
Eu680 O693 2.418 . S
Eu680 O698 2.373 . S
Eu680 O701 2.488 . S
Eu680 O702 2.471 . S
Eu680 O703 2.349 . S
Eu681 O690 2.373 . S
Eu681 O694 2.488 . S
Eu681 O695 2.471 . S
Eu681 O696 2.349 . S
Eu681 O699 2.392 . S
Eu681 O700 2.418 . S
Eu681 C710 2.828 . S
C682 O700 1.244 . S
C682 O703 1.265 . S
C683 C684 1.379 . S
C683 C687 1.373 . S
C683 C689 1.505 . S
C684 C683 1.379 . S
C684 C686 1.369 . S
C684 H712 0.930 . S
C685 C687 1.383 . S
C685 C688 1.382 . S
C685 H713 0.930 . S
C686 C684 1.369 . S
C686 C688 1.392 . S
C686 H714 0.930 . S
C687 C683 1.373 . S
C687 C685 1.383 . S
C687 H715 0.931 . S
C688 C685 1.382 . S
C688 C686 1.392 . S
C689 Eu680 2.828 . S
C689 C683 1.505 . S
C689 O701 1.249 . S
C689 O702 1.244 . S
O690 Eu681 2.373 . S
O690 C692 1.258 . S
O691 Eu680 2.392 . S
O691 C692 1.242 . S
C692 O690 1.258 . S
C692 O691 1.242 . S
O693 Eu680 2.418 . S
O693 C697 1.244 . S
O694 Eu681 2.488 . S
O694 C710 1.249 . S
O695 Eu681 2.471 . S
O695 C710 1.244 . S
O696 Eu681 2.349 . S
O696 C697 1.265 . S
C697 O693 1.244 . S
C697 O696 1.265 . S
O698 Eu680 2.373 . S
O698 C711 1.258 . S
O699 Eu681 2.392 . S
O699 C711 1.242 . S
O700 Eu681 2.418 . S
O700 C682 1.244 . S
O701 Eu680 2.488 . S
O701 C689 1.249 . S
O702 Eu680 2.471 . S
O702 C689 1.244 . S
O703 Eu680 2.349 . S
O703 C682 1.265 . S
C704 C705 1.379 . S
C704 C708 1.373 . S
C704 C710 1.505 1_554 S
C705 C704 1.379 . S
C705 C707 1.369 . S
C705 H716 0.930 . S
C706 C708 1.383 . S
C706 C709 1.382 . S
C706 H717 0.930 . S
C707 C705 1.369 . S
C707 C709 1.392 . S
C707 H718 0.930 . S
C708 C704 1.373 . S
C708 C706 1.383 . S
C708 H719 0.931 . S
C709 C706 1.382 . S
C709 C707 1.392 . S
C710 Eu681 2.828 . S
C710 O694 1.249 . S
C710 O695 1.244 . S
C710 C704 1.505 1_556 S
C711 O698 1.258 . S
C711 O699 1.242 . S
H712 C684 0.930 . S
H713 C685 0.930 . S
H714 C686 0.930 . S
H715 C687 0.931 . S
H716 C705 0.930 . S
H717 C706 0.930 . S
H718 C707 0.930 . S
H719 C708 0.931 . S
Eu720 C729 2.828 . S
Eu720 O731 2.392 . S
Eu720 O733 2.418 . S
Eu720 O738 2.373 . S
Eu720 O741 2.488 . S
Eu720 O742 2.471 . S
Eu720 O743 2.349 . S
Eu721 O730 2.373 . S
Eu721 O734 2.488 . S
Eu721 O735 2.471 . S
Eu721 O736 2.349 . S
Eu721 O739 2.392 . S
Eu721 O740 2.418 . S
Eu721 C750 2.828 . S
C722 O740 1.244 . S
C722 O743 1.265 . S
C723 C724 1.379 . S
C723 C727 1.373 . S
C723 C729 1.505 1_556 S
C724 C723 1.379 . S
C724 C726 1.369 . S
C724 H752 0.930 . S
C725 C727 1.383 . S
C725 C728 1.382 . S
C725 H753 0.930 . S
C726 C724 1.369 . S
C726 C728 1.392 . S
C726 H754 0.930 . S
C727 C723 1.373 . S
C727 C725 1.383 . S
C727 H755 0.931 . S
C728 C725 1.382 . S
C728 C726 1.392 . S
C729 Eu720 2.828 . S
C729 C723 1.505 1_554 S
C729 O741 1.249 . S
C729 O742 1.244 . S
O730 Eu721 2.373 . S
O730 C732 1.258 . S
O731 Eu720 2.392 . S
O731 C732 1.242 . S
C732 O730 1.258 . S
C732 O731 1.242 . S
O733 Eu720 2.418 . S
O733 C737 1.244 . S
O734 Eu721 2.488 . S
O734 C750 1.249 . S
O735 Eu721 2.471 . S
O735 C750 1.244 . S
O736 Eu721 2.349 . S
O736 C737 1.265 . S
C737 O733 1.244 . S
C737 O736 1.265 . S
O738 Eu720 2.373 . S
O738 C751 1.258 . S
O739 Eu721 2.392 . S
O739 C751 1.242 . S
O740 Eu721 2.418 . S
O740 C722 1.244 . S
O741 Eu720 2.488 . S
O741 C729 1.249 . S
O742 Eu720 2.471 . S
O742 C729 1.244 . S
O743 Eu720 2.349 . S
O743 C722 1.265 . S
C744 C745 1.379 . S
C744 C748 1.373 . S
C744 C750 1.505 . S
C745 C744 1.379 . S
C745 C747 1.369 . S
C745 H756 0.930 . S
C746 C748 1.382 . S
C746 C749 1.379 . S
C746 H757 0.934 1_545 S
C747 C745 1.369 . S
C747 C749 1.392 . S
C747 H758 0.930 . S
C748 C744 1.373 . S
C748 C746 1.382 . S
C748 H759 0.931 1_545 S
C749 C746 1.379 . S
C749 C747 1.392 . S
C750 Eu721 2.828 . S
C750 O734 1.249 . S
C750 O735 1.244 . S
C750 C744 1.505 . S
C751 O738 1.258 . S
C751 O739 1.242 . S
H752 C724 0.930 . S
H753 C725 0.930 . S
H754 C726 0.930 . S
H755 C727 0.931 . S
H756 C745 0.930 . S
H757 C746 0.934 1_565 S
H758 C747 0.930 . S
H759 C748 0.931 1_565 S
Eu760 C769 2.828 . S
Eu760 O771 2.392 . S
Eu760 O773 2.418 . S
Eu760 O778 2.373 . S
Eu760 O781 2.488 . S
Eu760 O782 2.471 . S
Eu760 O783 2.349 . S
Eu761 O770 2.373 . S
Eu761 O774 2.488 . S
Eu761 O775 2.471 . S
Eu761 O776 2.349 . S
Eu761 O779 2.392 . S
Eu761 O780 2.418 . S
Eu761 C790 2.828 . S
C762 O780 1.244 . S
C762 O783 1.265 . S
C763 C764 1.379 . S
C763 C767 1.373 . S
C763 C769 1.505 . S
C764 C763 1.379 . S
C764 C766 1.369 . S
C764 H792 0.930 . S
C765 C767 1.383 . S
C765 C768 1.382 . S
C765 H793 0.930 . S
C766 C764 1.369 . S
C766 C768 1.392 . S
C766 H794 0.930 . S
C767 C763 1.373 . S
C767 C765 1.383 . S
C767 H795 0.931 . S
C768 C765 1.382 . S
C768 C766 1.392 . S
C769 Eu760 2.828 . S
C769 C763 1.505 . S
C769 O781 1.249 . S
C769 O782 1.244 . S
O770 Eu761 2.373 . S
O770 C772 1.258 . S
O771 Eu760 2.392 . S
O771 C772 1.242 . S
C772 O770 1.258 . S
C772 O771 1.242 . S
O773 Eu760 2.418 . S
O773 C777 1.244 . S
O774 Eu761 2.488 . S
O774 C790 1.249 . S
O775 Eu761 2.471 . S
O775 C790 1.244 . S
O776 Eu761 2.349 . S
O776 C777 1.265 . S
C777 O773 1.244 . S
C777 O776 1.265 . S
O778 Eu760 2.373 . S
O778 C791 1.258 . S
O779 Eu761 2.392 . S
O779 C791 1.242 . S
O780 Eu761 2.418 . S
O780 C762 1.244 . S
O781 Eu760 2.488 . S
O781 C769 1.249 . S
O782 Eu760 2.471 . S
O782 C769 1.244 . S
O783 Eu760 2.349 . S
O783 C762 1.265 . S
C784 C785 1.379 . S
C784 C788 1.373 . S
C784 C790 1.505 . S
C785 C784 1.379 . S
C785 C787 1.369 . S
C785 H796 0.930 . S
C786 C788 1.383 . S
C786 C789 1.382 . S
C786 H797 0.930 . S
C787 C785 1.369 . S
C787 C789 1.392 . S
C787 H798 0.930 . S
C788 C784 1.373 . S
C788 C786 1.383 . S
C788 H799 0.931 . S
C789 C786 1.382 . S
C789 C787 1.392 . S
C790 Eu761 2.828 . S
C790 O774 1.249 . S
C790 O775 1.244 . S
C790 C784 1.505 . S
C791 O778 1.258 . S
C791 O779 1.242 . S
H792 C764 0.930 . S
H793 C765 0.930 . S
H794 C766 0.930 . S
H795 C767 0.931 . S
H796 C785 0.930 . S
H797 C786 0.930 . S
H798 C787 0.930 . S
H799 C788 0.931 . S
Eu800 C809 2.828 . S
Eu800 O811 2.392 . S
Eu800 O813 2.418 . S
Eu800 O818 2.373 . S
Eu800 O821 2.488 . S
Eu800 O822 2.471 . S
Eu800 O823 2.349 . S
Eu801 O810 2.373 . S
Eu801 O814 2.488 . S
Eu801 O815 2.471 . S
Eu801 O816 2.349 . S
Eu801 O819 2.392 . S
Eu801 O820 2.418 . S
Eu801 C830 2.828 . S
C802 O820 1.244 . S
C802 O823 1.265 . S
C803 C804 1.379 . S
C803 C807 1.373 . S
C803 C809 1.505 . S
C804 C803 1.379 . S
C804 C806 1.369 . S
C804 H832 0.930 . S
C805 C807 1.383 . S
C805 C808 1.382 . S
C805 H833 0.930 . S
C806 C804 1.369 . S
C806 C808 1.392 . S
C806 H834 0.930 . S
C807 C803 1.373 . S
C807 C805 1.383 . S
C807 H835 0.931 . S
C808 C805 1.382 . S
C808 C806 1.392 . S
C809 Eu800 2.828 . S
C809 C803 1.505 . S
C809 O821 1.249 . S
C809 O822 1.244 . S
O810 Eu801 2.373 . S
O810 C812 1.258 . S
O811 Eu800 2.392 . S
O811 C812 1.242 . S
C812 O810 1.258 . S
C812 O811 1.242 . S
O813 Eu800 2.418 . S
O813 C817 1.244 . S
O814 Eu801 2.488 . S
O814 C830 1.249 . S
O815 Eu801 2.471 . S
O815 C830 1.244 . S
O816 Eu801 2.349 . S
O816 C817 1.265 . S
C817 O813 1.244 . S
C817 O816 1.265 . S
O818 Eu800 2.373 . S
O818 C831 1.258 . S
O819 Eu801 2.392 . S
O819 C831 1.242 . S
O820 Eu801 2.418 . S
O820 C802 1.244 . S
O821 Eu800 2.488 . S
O821 C809 1.249 . S
O822 Eu800 2.471 . S
O822 C809 1.244 . S
O823 Eu800 2.349 . S
O823 C802 1.265 . S
C824 C825 1.379 . S
C824 C828 1.373 . S
C824 C830 1.505 . S
C825 C824 1.379 . S
C825 C827 1.369 1_554 S
C825 H836 0.930 . S
C826 C828 1.383 1_556 S
C826 C829 1.380 . S
C826 H837 0.933 1_545 S
C827 C825 1.369 1_556 S
C827 C829 1.392 . S
C827 H838 0.930 . S
C828 C824 1.373 . S
C828 C826 1.383 1_554 S
C828 H839 0.931 1_545 S
C829 C826 1.380 . S
C829 C827 1.392 . S
C830 Eu801 2.828 . S
C830 O814 1.249 . S
C830 O815 1.244 . S
C830 C824 1.505 . S
C831 O818 1.258 . S
C831 O819 1.242 . S
H832 C804 0.930 . S
H833 C805 0.930 . S
H834 C806 0.930 . S
H835 C807 0.931 . S
H836 C825 0.930 . S
H837 C826 0.933 1_565 S
H838 C827 0.930 . S
H839 C828 0.931 1_565 S
Eu840 C849 2.828 . S
Eu840 O851 2.392 . S
Eu840 O853 2.418 . S
Eu840 O858 2.373 . S
Eu840 O861 2.488 . S
Eu840 O862 2.471 . S
Eu840 O863 2.349 . S
Eu841 O850 2.373 . S
Eu841 O854 2.488 . S
Eu841 O855 2.471 . S
Eu841 O856 2.349 . S
Eu841 O859 2.392 . S
Eu841 O860 2.418 . S
Eu841 C870 2.828 . S
C842 O860 1.244 . S
C842 O863 1.265 . S
C843 C844 1.379 . S
C843 C847 1.373 . S
C843 C849 1.505 . S
C844 C843 1.379 . S
C844 C846 1.369 . S
C844 H872 0.930 . S
C845 C847 1.383 . S
C845 C848 1.382 . S
C845 H873 0.930 . S
C846 C844 1.369 . S
C846 C848 1.392 . S
C846 H874 0.930 . S
C847 C843 1.373 . S
C847 C845 1.383 . S
C847 H875 0.931 . S
C848 C845 1.382 . S
C848 C846 1.392 . S
C849 Eu840 2.828 . S
C849 C843 1.505 . S
C849 O861 1.249 . S
C849 O862 1.244 . S
O850 Eu841 2.373 . S
O850 C852 1.258 . S
O851 Eu840 2.392 . S
O851 C852 1.242 . S
C852 O850 1.258 . S
C852 O851 1.242 . S
O853 Eu840 2.418 . S
O853 C857 1.244 . S
O854 Eu841 2.488 . S
O854 C870 1.249 . S
O855 Eu841 2.471 . S
O855 C870 1.244 . S
O856 Eu841 2.349 . S
O856 C857 1.265 . S
C857 O853 1.244 . S
C857 O856 1.265 . S
O858 Eu840 2.373 . S
O858 C871 1.258 . S
O859 Eu841 2.392 . S
O859 C871 1.242 . S
O860 Eu841 2.418 . S
O860 C842 1.244 . S
O861 Eu840 2.488 . S
O861 C849 1.249 . S
O862 Eu840 2.471 . S
O862 C849 1.244 . S
O863 Eu840 2.349 . S
O863 C842 1.265 . S
C864 C865 1.379 . S
C864 C868 1.373 . S
C864 C870 1.505 . S
C865 C864 1.379 . S
C865 C867 1.369 . S
C865 H876 0.930 . S
C866 C868 1.383 . S
C866 C869 1.382 . S
C866 H877 0.930 . S
C867 C865 1.369 . S
C867 C869 1.392 . S
C867 H878 0.930 . S
C868 C864 1.373 . S
C868 C866 1.383 . S
C868 H879 0.931 . S
C869 C866 1.382 . S
C869 C867 1.392 . S
C870 Eu841 2.828 . S
C870 O854 1.249 . S
C870 O855 1.244 . S
C870 C864 1.505 . S
C871 O858 1.258 . S
C871 O859 1.242 . S
H872 C844 0.930 . S
H873 C845 0.930 . S
H874 C846 0.930 . S
H875 C847 0.931 . S
H876 C865 0.930 . S
H877 C866 0.930 . S
H878 C867 0.930 . S
H879 C868 0.931 . S
Eu880 C889 2.828 . S
Eu880 O891 2.392 . S
Eu880 O893 2.418 . S
Eu880 O898 2.373 . S
Eu880 O901 2.488 . S
Eu880 O902 2.471 . S
Eu880 O903 2.349 . S
Eu881 O890 2.373 . S
Eu881 O894 2.488 . S
Eu881 O895 2.471 . S
Eu881 O896 2.349 . S
Eu881 O899 2.392 . S
Eu881 O900 2.418 . S
Eu881 C910 2.828 . S
C882 O900 1.244 . S
C882 O903 1.265 . S
C883 C884 1.379 . S
C883 C887 1.373 . S
C883 C889 1.505 . S
C884 C883 1.379 . S
C884 C886 1.369 . S
C884 H912 0.930 . S
C885 C887 1.383 . S
C885 C888 1.382 . S
C885 H913 0.930 . S
C886 C884 1.369 . S
C886 C888 1.392 . S
C886 H914 0.930 . S
C887 C883 1.373 . S
C887 C885 1.383 . S
C887 H915 0.931 . S
C888 C885 1.382 . S
C888 C886 1.392 . S
C889 Eu880 2.828 . S
C889 C883 1.505 . S
C889 O901 1.249 . S
C889 O902 1.244 . S
O890 Eu881 2.373 . S
O890 C892 1.258 . S
O891 Eu880 2.392 . S
O891 C892 1.242 . S
C892 O890 1.258 . S
C892 O891 1.242 . S
O893 Eu880 2.418 . S
O893 C897 1.244 . S
O894 Eu881 2.488 . S
O894 C910 1.249 . S
O895 Eu881 2.471 . S
O895 C910 1.244 . S
O896 Eu881 2.349 . S
O896 C897 1.265 . S
C897 O893 1.244 . S
C897 O896 1.265 . S
O898 Eu880 2.373 . S
O898 C911 1.258 . S
O899 Eu881 2.392 . S
O899 C911 1.242 . S
O900 Eu881 2.418 . S
O900 C882 1.244 . S
O901 Eu880 2.488 . S
O901 C889 1.249 . S
O902 Eu880 2.471 . S
O902 C889 1.244 . S
O903 Eu880 2.349 . S
O903 C882 1.265 . S
C904 C905 1.379 . S
C904 C908 1.373 . S
C904 C910 1.505 . S
C905 C904 1.379 . S
C905 C907 1.369 . S
C905 H916 0.930 . S
C906 C908 1.383 . S
C906 C909 1.381 . S
C906 H917 0.932 1_565 S
C907 C905 1.369 . S
C907 C909 1.392 . S
C907 H918 0.930 . S
C908 C904 1.373 . S
C908 C906 1.383 . S
C908 H919 0.931 1_565 S
C909 C906 1.381 . S
C909 C907 1.392 . S
C910 Eu881 2.828 . S
C910 O894 1.249 . S
C910 O895 1.244 . S
C910 C904 1.505 . S
C911 O898 1.258 . S
C911 O899 1.242 . S
H912 C884 0.930 . S
H913 C885 0.930 . S
H914 C886 0.930 . S
H915 C887 0.931 . S
H916 C905 0.930 . S
H917 C906 0.932 1_545 S
H918 C907 0.930 . S
H919 C908 0.931 1_545 S
Eu920 C929 2.828 1_556 S
Eu920 O931 2.392 . S
Eu920 O933 2.418 . S
Eu920 O938 2.373 1_556 S
Eu920 O941 2.488 1_556 S
Eu920 O942 2.471 1_556 S
Eu920 O943 2.349 . S
Eu921 O930 2.373 . S
Eu921 O934 2.488 . S
Eu921 O935 2.471 . S
Eu921 O936 2.349 . S
Eu921 O939 2.392 . S
Eu921 O940 2.418 . S
Eu921 C950 2.828 . S
C922 O940 1.244 . S
C922 O943 1.265 . S
C923 C924 1.379 . S
C923 C927 1.373 . S
C923 C929 1.505 . S
C924 C923 1.379 . S
C924 C926 1.369 . S
C924 H952 0.930 . S
C925 C927 1.383 . S
C925 C928 1.382 . S
C925 H953 0.930 . S
C926 C924 1.369 . S
C926 C928 1.392 . S
C926 H954 0.930 . S
C927 C923 1.373 . S
C927 C925 1.383 . S
C927 H955 0.931 . S
C928 C925 1.382 . S
C928 C926 1.392 . S
C929 Eu920 2.828 1_554 S
C929 C923 1.505 . S
C929 O941 1.249 . S
C929 O942 1.244 . S
O930 Eu921 2.373 . S
O930 C932 1.258 . S
O931 Eu920 2.392 . S
O931 C932 1.242 . S
C932 O930 1.258 . S
C932 O931 1.242 . S
O933 Eu920 2.418 . S
O933 C937 1.244 . S
O934 Eu921 2.488 . S
O934 C950 1.249 . S
O935 Eu921 2.471 . S
O935 C950 1.244 . S
O936 Eu921 2.349 . S
O936 C937 1.265 . S
C937 O933 1.244 . S
C937 O936 1.265 . S
O938 Eu920 2.373 1_554 S
O938 C951 1.258 . S
O939 Eu921 2.392 . S
O939 C951 1.242 1_556 S
O940 Eu921 2.418 . S
O940 C922 1.244 . S
O941 Eu920 2.488 1_554 S
O941 C929 1.249 . S
O942 Eu920 2.471 1_554 S
O942 C929 1.244 . S
O943 Eu920 2.349 . S
O943 C922 1.265 . S
C944 C945 1.379 . S
C944 C948 1.373 . S
C944 C950 1.505 . S
C945 C944 1.379 . S
C945 C947 1.369 . S
C945 H956 0.930 . S
C946 C948 1.383 . S
C946 C949 1.382 . S
C946 H957 0.930 . S
C947 C945 1.369 . S
C947 C949 1.392 . S
C947 H958 0.930 . S
C948 C944 1.373 . S
C948 C946 1.383 . S
C948 H959 0.931 . S
C949 C946 1.382 . S
C949 C947 1.392 . S
C950 Eu921 2.828 . S
C950 O934 1.249 . S
C950 O935 1.244 . S
C950 C944 1.505 . S
C951 O938 1.258 . S
C951 O939 1.242 1_554 S
H952 C924 0.930 . S
H953 C925 0.930 . S
H954 C926 0.930 . S
H955 C927 0.931 . S
H956 C945 0.930 . S
H957 C946 0.930 . S
H958 C947 0.930 . S
H959 C948 0.931 . S
Eu960 C969 2.828 . S
Eu960 O971 2.392 . S
Eu960 O973 2.418 . S
Eu960 O978 2.373 . S
Eu960 O981 2.488 . S
Eu960 O982 2.471 . S
Eu960 O983 2.349 . S
Eu961 O970 2.373 . S
Eu961 O974 2.488 . S
Eu961 O975 2.471 . S
Eu961 O976 2.349 . S
Eu961 O979 2.392 . S
Eu961 O980 2.418 . S
Eu961 C990 2.828 . S
C962 O980 1.244 . S
C962 O983 1.265 . S
C963 C964 1.379 . S
C963 C967 1.373 . S
C963 C969 1.505 . S
C964 C963 1.379 . S
C964 C966 1.369 . S
C964 H992 0.930 . S
C965 C967 1.383 . S
C965 C968 1.381 . S
C965 H993 0.932 1_545 S
C966 C964 1.369 . S
C966 C968 1.392 . S
C966 H994 0.930 . S
C967 C963 1.373 . S
C967 C965 1.383 . S
C967 H995 0.931 1_545 S
C968 C965 1.381 . S
C968 C966 1.392 . S
C969 Eu960 2.828 . S
C969 C963 1.505 . S
C969 O981 1.249 . S
C969 O982 1.244 . S
O970 Eu961 2.373 . S
O970 C972 1.258 . S
O971 Eu960 2.392 . S
O971 C972 1.242 . S
C972 O970 1.258 . S
C972 O971 1.242 . S
O973 Eu960 2.418 . S
O973 C977 1.244 . S
O974 Eu961 2.488 . S
O974 C990 1.249 . S
O975 Eu961 2.471 . S
O975 C990 1.244 . S
O976 Eu961 2.349 . S
O976 C977 1.265 . S
C977 O973 1.244 . S
C977 O976 1.265 . S
O978 Eu960 2.373 . S
O978 C991 1.258 . S
O979 Eu961 2.392 . S
O979 C991 1.242 . S
O980 Eu961 2.418 . S
O980 C962 1.244 . S
O981 Eu960 2.488 . S
O981 C969 1.249 . S
O982 Eu960 2.471 . S
O982 C969 1.244 . S
O983 Eu960 2.349 . S
O983 C962 1.265 . S
C984 C985 1.379 . S
C984 C988 1.373 . S
C984 C990 1.505 . S
C985 C984 1.379 . S
C985 C987 1.369 . S
C985 H996 0.930 . S
C986 C988 1.383 . S
C986 C989 1.382 . S
C986 H997 0.930 . S
C987 C985 1.369 . S
C987 C989 1.392 . S
C987 H998 0.930 . S
C988 C984 1.373 . S
C988 C986 1.383 . S
C988 H999 0.931 . S
C989 C986 1.382 . S
C989 C987 1.392 . S
C990 Eu961 2.828 . S
C990 O974 1.249 . S
C990 O975 1.244 . S
C990 C984 1.505 . S
C991 O978 1.258 . S
C991 O979 1.242 . S
H992 C964 0.930 . S
H993 C965 0.932 1_565 S
H994 C966 0.930 . S
H995 C967 0.931 1_565 S
H996 C985 0.930 . S
H997 C986 0.930 . S
H998 C987 0.930 . S
H999 C988 0.931 . S
Eu1000 C1009 2.828 . S
Eu1000 O1011 2.392 . S
Eu1000 O1013 2.418 . S
Eu1000 O1018 2.373 . S
Eu1000 O1021 2.488 . S
Eu1000 O1022 2.471 . S
Eu1000 O1023 2.349 . S
Eu1001 O1010 2.373 . S
Eu1001 O1014 2.488 . S
Eu1001 O1015 2.471 . S
Eu1001 O1016 2.349 . S
Eu1001 O1019 2.392 . S
Eu1001 O1020 2.418 . S
Eu1001 C1030 2.828 . S
C1002 O1020 1.244 . S
C1002 O1023 1.265 . S
C1003 C1004 1.379 . S
C1003 C1007 1.373 . S
C1003 C1009 1.505 . S
C1004 C1003 1.379 . S
C1004 C1006 1.369 . S
C1004 H1032 0.930 . S
C1005 C1007 1.383 . S
C1005 C1008 1.382 . S
C1005 H1033 0.930 . S
C1006 C1004 1.369 . S
C1006 C1008 1.392 . S
C1006 H1034 0.930 . S
C1007 C1003 1.373 . S
C1007 C1005 1.383 . S
C1007 H1035 0.931 . S
C1008 C1005 1.382 . S
C1008 C1006 1.392 . S
C1009 Eu1000 2.828 . S
C1009 C1003 1.505 . S
C1009 O1021 1.249 . S
C1009 O1022 1.244 . S
O1010 Eu1001 2.373 . S
O1010 C1012 1.258 . S
O1011 Eu1000 2.392 . S
O1011 C1012 1.242 . S
C1012 O1010 1.258 . S
C1012 O1011 1.242 . S
O1013 Eu1000 2.418 . S
O1013 C1017 1.244 . S
O1014 Eu1001 2.488 . S
O1014 C1030 1.249 . S
O1015 Eu1001 2.471 . S
O1015 C1030 1.244 . S
O1016 Eu1001 2.349 . S
O1016 C1017 1.265 . S
C1017 O1013 1.244 . S
C1017 O1016 1.265 . S
O1018 Eu1000 2.373 . S
O1018 C1031 1.258 . S
O1019 Eu1001 2.392 . S
O1019 C1031 1.242 . S
O1020 Eu1001 2.418 . S
O1020 C1002 1.244 . S
O1021 Eu1000 2.488 . S
O1021 C1009 1.249 . S
O1022 Eu1000 2.471 . S
O1022 C1009 1.244 . S
O1023 Eu1000 2.349 . S
O1023 C1002 1.265 . S
C1024 C1025 1.379 . S
C1024 C1028 1.373 . S
C1024 C1030 1.505 . S
C1025 C1024 1.379 . S
C1025 C1027 1.369 . S
C1025 H1036 0.930 . S
C1026 C1028 1.383 . S
C1026 C1029 1.382 . S
C1026 H1037 0.930 . S
C1027 C1025 1.369 . S
C1027 C1029 1.392 . S
C1027 H1038 0.930 . S
C1028 C1024 1.373 . S
C1028 C1026 1.383 . S
C1028 H1039 0.931 . S
C1029 C1026 1.382 . S
C1029 C1027 1.392 . S
C1030 Eu1001 2.828 . S
C1030 O1014 1.249 . S
C1030 O1015 1.244 . S
C1030 C1024 1.505 . S
C1031 O1018 1.258 . S
C1031 O1019 1.242 . S
H1032 C1004 0.930 . S
H1033 C1005 0.930 . S
H1034 C1006 0.930 . S
H1035 C1007 0.931 . S
H1036 C1025 0.930 . S
H1037 C1026 0.930 . S
H1038 C1027 0.930 . S
H1039 C1028 0.931 . S
Eu1040 C1049 2.828 . S
Eu1040 O1051 2.392 . S
Eu1040 O1053 2.418 . S
Eu1040 O1058 2.373 . S
Eu1040 O1061 2.488 . S
Eu1040 O1062 2.471 . S
Eu1040 O1063 2.349 . S
Eu1041 O1050 2.373 . S
Eu1041 O1054 2.488 . S
Eu1041 O1055 2.471 . S
Eu1041 O1056 2.349 . S
Eu1041 O1059 2.392 . S
Eu1041 O1060 2.418 . S
Eu1041 C1070 2.828 . S
C1042 O1060 1.244 . S
C1042 O1063 1.265 . S
C1043 C1044 1.379 . S
C1043 C1047 1.373 . S
C1043 C1049 1.505 . S
C1044 C1043 1.379 . S
C1044 C1046 1.369 1_554 S
C1044 H1072 0.930 . S
C1045 C1047 1.383 1_556 S
C1045 C1048 1.380 . S
C1045 H1073 0.933 1_565 S
C1046 C1044 1.369 1_556 S
C1046 C1048 1.392 . S
C1046 H1074 0.930 . S
C1047 C1043 1.373 . S
C1047 C1045 1.383 1_554 S
C1047 H1075 0.931 1_565 S
C1048 C1045 1.380 . S
C1048 C1046 1.392 . S
C1049 Eu1040 2.828 . S
C1049 C1043 1.505 . S
C1049 O1061 1.249 . S
C1049 O1062 1.244 . S
O1050 Eu1041 2.373 . S
O1050 C1052 1.258 . S
O1051 Eu1040 2.392 . S
O1051 C1052 1.242 . S
C1052 O1050 1.258 . S
C1052 O1051 1.242 . S
O1053 Eu1040 2.418 . S
O1053 C1057 1.244 . S
O1054 Eu1041 2.488 . S
O1054 C1070 1.249 . S
O1055 Eu1041 2.471 . S
O1055 C1070 1.244 . S
O1056 Eu1041 2.349 . S
O1056 C1057 1.265 . S
C1057 O1053 1.244 . S
C1057 O1056 1.265 . S
O1058 Eu1040 2.373 . S
O1058 C1071 1.258 . S
O1059 Eu1041 2.392 . S
O1059 C1071 1.242 . S
O1060 Eu1041 2.418 . S
O1060 C1042 1.244 . S
O1061 Eu1040 2.488 . S
O1061 C1049 1.249 . S
O1062 Eu1040 2.471 . S
O1062 C1049 1.244 . S
O1063 Eu1040 2.349 . S
O1063 C1042 1.265 . S
C1064 C1065 1.379 . S
C1064 C1068 1.373 . S
C1064 C1070 1.505 . S
C1065 C1064 1.379 . S
C1065 C1067 1.369 . S
C1065 H1076 0.930 . S
C1066 C1068 1.383 . S
C1066 C1069 1.382 . S
C1066 H1077 0.930 . S
C1067 C1065 1.369 . S
C1067 C1069 1.392 . S
C1067 H1078 0.930 . S
C1068 C1064 1.373 . S
C1068 C1066 1.383 . S
C1068 H1079 0.931 . S
C1069 C1066 1.382 . S
C1069 C1067 1.392 . S
C1070 Eu1041 2.828 . S
C1070 O1054 1.249 . S
C1070 O1055 1.244 . S
C1070 C1064 1.505 . S
C1071 O1058 1.258 . S
C1071 O1059 1.242 . S
H1072 C1044 0.930 . S
H1073 C1045 0.933 1_545 S
H1074 C1046 0.930 . S
H1075 C1047 0.931 1_545 S
H1076 C1065 0.930 . S
H1077 C1066 0.930 . S
H1078 C1067 0.930 . S
H1079 C1068 0.931 . S
Eu1080 C1089 2.828 . S
Eu1080 O1091 2.392 . S
Eu1080 O1093 2.418 . S
Eu1080 O1098 2.373 . S
Eu1080 O1101 2.488 . S
Eu1080 O1102 2.471 . S
Eu1080 O1103 2.349 . S
Eu1081 O1090 2.373 1_556 S
Eu1081 O1094 2.488 1_556 S
Eu1081 O1095 2.471 1_556 S
Eu1081 O1096 2.349 . S
Eu1081 O1099 2.392 . S
Eu1081 O1100 2.418 . S
Eu1081 C1110 2.828 1_556 S
C1082 O1100 1.244 . S
C1082 O1103 1.265 . S
C1083 C1084 1.379 . S
C1083 C1087 1.373 . S
C1083 C1089 1.505 . S
C1084 C1083 1.379 . S
C1084 C1086 1.369 . S
C1084 H1112 0.930 . S
C1085 C1087 1.383 . S
C1085 C1088 1.382 . S
C1085 H1113 0.930 . S
C1086 C1084 1.369 . S
C1086 C1088 1.392 . S
C1086 H1114 0.930 . S
C1087 C1083 1.373 . S
C1087 C1085 1.383 . S
C1087 H1115 0.931 . S
C1088 C1085 1.382 . S
C1088 C1086 1.392 . S
C1089 Eu1080 2.828 . S
C1089 C1083 1.505 . S
C1089 O1101 1.249 . S
C1089 O1102 1.244 . S
O1090 Eu1081 2.373 1_554 S
O1090 C1092 1.258 . S
O1091 Eu1080 2.392 . S
O1091 C1092 1.242 1_556 S
C1092 O1090 1.258 . S
C1092 O1091 1.242 1_554 S
O1093 Eu1080 2.418 . S
O1093 C1097 1.244 . S
O1094 Eu1081 2.488 1_554 S
O1094 C1110 1.249 . S
O1095 Eu1081 2.471 1_554 S
O1095 C1110 1.244 . S
O1096 Eu1081 2.349 . S
O1096 C1097 1.265 . S
C1097 O1093 1.244 . S
C1097 O1096 1.265 . S
O1098 Eu1080 2.373 . S
O1098 C1111 1.258 . S
O1099 Eu1081 2.392 . S
O1099 C1111 1.242 . S
O1100 Eu1081 2.418 . S
O1100 C1082 1.244 . S
O1101 Eu1080 2.488 . S
O1101 C1089 1.249 . S
O1102 Eu1080 2.471 . S
O1102 C1089 1.244 . S
O1103 Eu1080 2.349 . S
O1103 C1082 1.265 . S
C1104 C1105 1.379 . S
C1104 C1108 1.373 . S
C1104 C1110 1.505 . S
C1105 C1104 1.379 . S
C1105 C1107 1.369 . S
C1105 H1116 0.930 . S
C1106 C1108 1.383 . S
C1106 C1109 1.382 . S
C1106 H1117 0.930 . S
C1107 C1105 1.369 . S
C1107 C1109 1.392 . S
C1107 H1118 0.930 . S
C1108 C1104 1.373 . S
C1108 C1106 1.383 . S
C1108 H1119 0.931 . S
C1109 C1106 1.382 . S
C1109 C1107 1.392 . S
C1110 Eu1081 2.828 1_554 S
C1110 O1094 1.249 . S
C1110 O1095 1.244 . S
C1110 C1104 1.505 . S
C1111 O1098 1.258 . S
C1111 O1099 1.242 . S
H1112 C1084 0.930 . S
H1113 C1085 0.930 . S
H1114 C1086 0.930 . S
H1115 C1087 0.931 . S
H1116 C1105 0.930 . S
H1117 C1106 0.930 . S
H1118 C1107 0.930 . S
H1119 C1108 0.931 . S
Eu1120 C1129 2.828 . S
Eu1120 O1131 2.392 . S
Eu1120 O1133 2.418 . S
Eu1120 O1138 2.373 . S
Eu1120 O1141 2.488 . S
Eu1120 O1142 2.471 . S
Eu1120 O1143 2.349 . S
Eu1121 O1130 2.373 . S
Eu1121 O1134 2.488 . S
Eu1121 O1135 2.471 . S
Eu1121 O1136 2.349 . S
Eu1121 O1139 2.392 . S
Eu1121 O1140 2.418 . S
Eu1121 C1150 2.828 . S
C1122 O1140 1.244 . S
C1122 O1143 1.265 . S
C1123 C1124 1.379 . S
C1123 C1127 1.373 . S
C1123 C1129 1.505 . S
C1124 C1123 1.379 . S
C1124 C1126 1.369 . S
C1124 H1152 0.930 . S
C1125 C1127 1.382 . S
C1125 C1128 1.379 . S
C1125 H1153 0.934 1_565 S
C1126 C1124 1.369 . S
C1126 C1128 1.392 . S
C1126 H1154 0.930 . S
C1127 C1123 1.373 . S
C1127 C1125 1.382 . S
C1127 H1155 0.931 1_565 S
C1128 C1125 1.379 . S
C1128 C1126 1.392 . S
C1129 Eu1120 2.828 . S
C1129 C1123 1.505 . S
C1129 O1141 1.249 . S
C1129 O1142 1.244 . S
O1130 Eu1121 2.373 . S
O1130 C1132 1.258 . S
O1131 Eu1120 2.392 . S
O1131 C1132 1.242 . S
C1132 O1130 1.258 . S
C1132 O1131 1.242 . S
O1133 Eu1120 2.418 . S
O1133 C1137 1.244 . S
O1134 Eu1121 2.488 . S
O1134 C1150 1.249 . S
O1135 Eu1121 2.471 . S
O1135 C1150 1.244 . S
O1136 Eu1121 2.349 . S
O1136 C1137 1.265 . S
C1137 O1133 1.244 . S
C1137 O1136 1.265 . S
O1138 Eu1120 2.373 . S
O1138 C1151 1.258 . S
O1139 Eu1121 2.392 . S
O1139 C1151 1.242 . S
O1140 Eu1121 2.418 . S
O1140 C1122 1.244 . S
O1141 Eu1120 2.488 . S
O1141 C1129 1.249 . S
O1142 Eu1120 2.471 . S
O1142 C1129 1.244 . S
O1143 Eu1120 2.349 . S
O1143 C1122 1.265 . S
C1144 C1145 1.379 . S
C1144 C1148 1.373 . S
C1144 C1150 1.505 1_556 S
C1145 C1144 1.379 . S
C1145 C1147 1.369 . S
C1145 H1156 0.930 . S
C1146 C1148 1.383 . S
C1146 C1149 1.382 . S
C1146 H1157 0.930 . S
C1147 C1145 1.369 . S
C1147 C1149 1.392 . S
C1147 H1158 0.930 . S
C1148 C1144 1.373 . S
C1148 C1146 1.383 . S
C1148 H1159 0.931 . S
C1149 C1146 1.382 . S
C1149 C1147 1.392 . S
C1150 Eu1121 2.828 . S
C1150 O1134 1.249 . S
C1150 O1135 1.244 . S
C1150 C1144 1.505 1_554 S
C1151 O1138 1.258 . S
C1151 O1139 1.242 . S
H1152 C1124 0.930 . S
H1153 C1125 0.934 1_545 S
H1154 C1126 0.930 . S
H1155 C1127 0.931 1_545 S
H1156 C1145 0.930 . S
H1157 C1146 0.930 . S
H1158 C1147 0.930 . S
H1159 C1148 0.931 . S
Eu1160 C1169 2.828 . S
Eu1160 O1171 2.392 . S
Eu1160 O1173 2.418 . S
Eu1160 O1178 2.373 . S
Eu1160 O1181 2.488 . S
Eu1160 O1182 2.471 . S
Eu1160 O1183 2.349 . S
Eu1161 O1170 2.373 . S
Eu1161 O1174 2.488 . S
Eu1161 O1175 2.471 . S
Eu1161 O1176 2.349 . S
Eu1161 O1179 2.392 . S
Eu1161 O1180 2.418 . S
Eu1161 C1190 2.828 . S
C1162 O1180 1.244 . S
C1162 O1183 1.265 . S
C1163 C1164 1.379 . S
C1163 C1167 1.373 . S
C1163 C1169 1.505 1_554 S
C1164 C1163 1.379 . S
C1164 C1166 1.369 . S
C1164 H1192 0.930 . S
C1165 C1167 1.383 . S
C1165 C1168 1.382 . S
C1165 H1193 0.930 . S
C1166 C1164 1.369 . S
C1166 C1168 1.392 . S
C1166 H1194 0.930 . S
C1167 C1163 1.373 . S
C1167 C1165 1.383 . S
C1167 H1195 0.931 . S
C1168 C1165 1.382 . S
C1168 C1166 1.392 . S
C1169 Eu1160 2.828 . S
C1169 C1163 1.505 1_556 S
C1169 O1181 1.249 . S
C1169 O1182 1.244 . S
O1170 Eu1161 2.373 . S
O1170 C1172 1.258 . S
O1171 Eu1160 2.392 . S
O1171 C1172 1.242 . S
C1172 O1170 1.258 . S
C1172 O1171 1.242 . S
O1173 Eu1160 2.418 . S
O1173 C1177 1.244 . S
O1174 Eu1161 2.488 . S
O1174 C1190 1.249 . S
O1175 Eu1161 2.471 . S
O1175 C1190 1.244 . S
O1176 Eu1161 2.349 . S
O1176 C1177 1.265 . S
C1177 O1173 1.244 . S
C1177 O1176 1.265 . S
O1178 Eu1160 2.373 . S
O1178 C1191 1.258 . S
O1179 Eu1161 2.392 . S
O1179 C1191 1.242 . S
O1180 Eu1161 2.418 . S
O1180 C1162 1.244 . S
O1181 Eu1160 2.488 . S
O1181 C1169 1.249 . S
O1182 Eu1160 2.471 . S
O1182 C1169 1.244 . S
O1183 Eu1160 2.349 . S
O1183 C1162 1.265 . S
C1184 C1185 1.379 . S
C1184 C1188 1.373 . S
C1184 C1190 1.505 . S
C1185 C1184 1.379 . S
C1185 C1187 1.369 . S
C1185 H1196 0.930 . S
C1186 C1188 1.383 . S
C1186 C1189 1.382 . S
C1186 H1197 0.930 . S
C1187 C1185 1.369 . S
C1187 C1189 1.392 . S
C1187 H1198 0.930 . S
C1188 C1184 1.373 . S
C1188 C1186 1.383 . S
C1188 H1199 0.931 . S
C1189 C1186 1.382 . S
C1189 C1187 1.392 . S
C1190 Eu1161 2.828 . S
C1190 O1174 1.249 . S
C1190 O1175 1.244 . S
C1190 C1184 1.505 . S
C1191 O1178 1.258 . S
C1191 O1179 1.242 . S
H1192 C1164 0.930 . S
H1193 C1165 0.930 . S
H1194 C1166 0.930 . S
H1195 C1167 0.931 . S
H1196 C1185 0.930 . S
H1197 C1186 0.930 . S
H1198 C1187 0.930 . S
H1199 C1188 0.931 . S
Eu1200 C1209 2.828 . S
Eu1200 O1211 2.392 . S
Eu1200 O1213 2.418 . S
Eu1200 O1218 2.373 . S
Eu1200 O1221 2.488 . S
Eu1200 O1222 2.471 . S
Eu1200 O1223 2.349 . S
Eu1201 O1210 2.373 . S
Eu1201 O1214 2.488 . S
Eu1201 O1215 2.471 . S
Eu1201 O1216 2.349 . S
Eu1201 O1219 2.392 . S
Eu1201 O1220 2.418 . S
Eu1201 C1230 2.828 . S
C1202 O1220 1.244 . S
C1202 O1223 1.265 . S
C1203 C1204 1.379 . S
C1203 C1207 1.373 . S
C1203 C1209 1.505 . S
C1204 C1203 1.379 . S
C1204 C1206 1.369 . S
C1204 H1232 0.930 . S
C1205 C1207 1.383 . S
C1205 C1208 1.380 . S
C1205 H1233 0.933 1_545 S
C1206 C1204 1.369 . S
C1206 C1208 1.392 . S
C1206 H1234 0.930 . S
C1207 C1203 1.373 . S
C1207 C1205 1.383 . S
C1207 H1235 0.931 1_545 S
C1208 C1205 1.380 . S
C1208 C1206 1.392 . S
C1209 Eu1200 2.828 . S
C1209 C1203 1.505 . S
C1209 O1221 1.249 . S
C1209 O1222 1.244 . S
O1210 Eu1201 2.373 . S
O1210 C1212 1.258 . S
O1211 Eu1200 2.392 . S
O1211 C1212 1.242 . S
C1212 O1210 1.258 . S
C1212 O1211 1.242 . S
O1213 Eu1200 2.418 . S
O1213 C1217 1.244 . S
O1214 Eu1201 2.488 . S
O1214 C1230 1.249 . S
O1215 Eu1201 2.471 . S
O1215 C1230 1.244 . S
O1216 Eu1201 2.349 . S
O1216 C1217 1.265 . S
C1217 O1213 1.244 . S
C1217 O1216 1.265 . S
O1218 Eu1200 2.373 . S
O1218 C1231 1.258 . S
O1219 Eu1201 2.392 . S
O1219 C1231 1.242 . S
O1220 Eu1201 2.418 . S
O1220 C1202 1.244 . S
O1221 Eu1200 2.488 . S
O1221 C1209 1.249 . S
O1222 Eu1200 2.471 . S
O1222 C1209 1.244 . S
O1223 Eu1200 2.349 . S
O1223 C1202 1.265 . S
C1224 C1225 1.379 . S
C1224 C1228 1.373 . S
C1224 C1230 1.505 . S
C1225 C1224 1.379 . S
C1225 C1227 1.369 . S
C1225 H1236 0.930 . S
C1226 C1228 1.383 . S
C1226 C1229 1.382 . S
C1226 H1237 0.930 . S
C1227 C1225 1.369 . S
C1227 C1229 1.392 . S
C1227 H1238 0.930 . S
C1228 C1224 1.373 . S
C1228 C1226 1.383 . S
C1228 H1239 0.931 . S
C1229 C1226 1.382 . S
C1229 C1227 1.392 . S
C1230 Eu1201 2.828 . S
C1230 O1214 1.249 . S
C1230 O1215 1.244 . S
C1230 C1224 1.505 . S
C1231 O1218 1.258 . S
C1231 O1219 1.242 . S
H1232 C1204 0.930 . S
H1233 C1205 0.933 1_565 S
H1234 C1206 0.930 . S
H1235 C1207 0.931 1_565 S
H1236 C1225 0.930 . S
H1237 C1226 0.930 . S
H1238 C1227 0.930 . S
H1239 C1228 0.931 . S
Eu1240 C1249 2.828 . S
Eu1240 O1251 2.392 . S
Eu1240 O1253 2.418 . S
Eu1240 O1258 2.373 . S
Eu1240 O1261 2.488 . S
Eu1240 O1262 2.471 . S
Eu1240 O1263 2.349 . S
Eu1241 O1250 2.373 . S
Eu1241 O1254 2.488 . S
Eu1241 O1255 2.471 . S
Eu1241 O1256 2.349 . S
Eu1241 O1259 2.392 . S
Eu1241 O1260 2.418 . S
Eu1241 C1270 2.828 . S
C1242 O1260 1.244 . S
C1242 O1263 1.265 . S
C1243 C1244 1.379 . S
C1243 C1247 1.373 . S
C1243 C1249 1.505 . S
C1244 C1243 1.379 . S
C1244 C1246 1.369 . S
C1244 H1272 0.930 . S
C1245 C1247 1.383 . S
C1245 C1248 1.382 . S
C1245 H1273 0.930 . S
C1246 C1244 1.369 . S
C1246 C1248 1.392 . S
C1246 H1274 0.930 . S
C1247 C1243 1.373 . S
C1247 C1245 1.383 . S
C1247 H1275 0.931 . S
C1248 C1245 1.382 . S
C1248 C1246 1.392 . S
C1249 Eu1240 2.828 . S
C1249 C1243 1.505 . S
C1249 O1261 1.249 . S
C1249 O1262 1.244 . S
O1250 Eu1241 2.373 . S
O1250 C1252 1.258 . S
O1251 Eu1240 2.392 . S
O1251 C1252 1.242 . S
C1252 O1250 1.258 . S
C1252 O1251 1.242 . S
O1253 Eu1240 2.418 . S
O1253 C1257 1.244 . S
O1254 Eu1241 2.488 . S
O1254 C1270 1.249 . S
O1255 Eu1241 2.471 . S
O1255 C1270 1.244 . S
O1256 Eu1241 2.349 . S
O1256 C1257 1.265 . S
C1257 O1253 1.244 . S
C1257 O1256 1.265 . S
O1258 Eu1240 2.373 . S
O1258 C1271 1.258 . S
O1259 Eu1241 2.392 . S
O1259 C1271 1.242 . S
O1260 Eu1241 2.418 . S
O1260 C1242 1.244 . S
O1261 Eu1240 2.488 . S
O1261 C1249 1.249 . S
O1262 Eu1240 2.471 . S
O1262 C1249 1.244 . S
O1263 Eu1240 2.349 . S
O1263 C1242 1.265 . S
C1264 C1265 1.379 . S
C1264 C1268 1.373 . S
C1264 C1270 1.505 . S
C1265 C1264 1.379 . S
C1265 C1267 1.369 . S
C1265 H1276 0.930 . S
C1266 C1268 1.383 . S
C1266 C1269 1.382 . S
C1266 H1277 0.930 . S
C1267 C1265 1.369 . S
C1267 C1269 1.392 . S
C1267 H1278 0.930 . S
C1268 C1264 1.373 . S
C1268 C1266 1.383 . S
C1268 H1279 0.931 . S
C1269 C1266 1.382 . S
C1269 C1267 1.392 . S
C1270 Eu1241 2.828 . S
C1270 O1254 1.249 . S
C1270 O1255 1.244 . S
C1270 C1264 1.505 . S
C1271 O1258 1.258 . S
C1271 O1259 1.242 . S
H1272 C1244 0.930 . S
H1273 C1245 0.930 . S
H1274 C1246 0.930 . S
H1275 C1247 0.931 . S
H1276 C1265 0.930 . S
H1277 C1266 0.930 . S
H1278 C1267 0.930 . S
H1279 C1268 0.931 . S
H1280 C1286 0.930 . S
H1281 C1289 0.930 . S
H1282 C1290 0.930 . S
H1283 C1291 0.930 . S
H1284 C1294 0.930 . S
H1285 C1295 0.930 . S
C1286 H1280 0.930 . S
C1286 C1287 1.355 . S
C1286 C1288 1.415 . S
C1287 C1286 1.355 . S
C1287 C1289 1.419 . S
C1288 C1286 1.415 . S
C1288 C1293 1.425 . S
C1288 C1295 1.409 . S
C1289 H1281 0.930 . S
C1289 C1287 1.419 . S
C1289 C1290 1.362 . S
C1290 H1282 0.930 . S
C1290 C1289 1.362 . S
C1290 C1293 1.409 . S
C1291 H1283 0.930 . S
C1291 C1292 1.355 . S
C1291 C1293 1.415 . S
C1292 C1291 1.355 . S
C1292 C1294 1.419 . S
C1293 C1288 1.425 . S
C1293 C1290 1.409 . S
C1293 C1291 1.415 . S
C1294 H1284 0.930 . S
C1294 C1292 1.419 . S
C1294 C1295 1.362 . S
C1295 H1285 0.930 . S
C1295 C1288 1.409 . S
C1295 C1294 1.362 . S
H1296 C1302 0.930 . S
H1297 C1305 0.930 . S
H1298 C1306 0.930 . S
H1299 C1307 0.930 . S
H1300 C1310 0.930 . S
H1301 C1311 0.930 . S
C1302 H1296 0.930 . S
C1302 C1303 1.355 . S
C1302 C1304 1.415 . S
C1303 C1302 1.355 . S
C1303 C1305 1.419 . S
C1304 C1302 1.415 . S
C1304 C1309 1.425 . S
C1304 C1311 1.409 . S
C1305 H1297 0.930 . S
C1305 C1303 1.419 . S
C1305 C1306 1.362 . S
C1306 H1298 0.930 . S
C1306 C1305 1.362 . S
C1306 C1309 1.409 . S
C1307 H1299 0.930 . S
C1307 C1308 1.355 . S
C1307 C1309 1.415 . S
C1308 C1307 1.355 . S
C1308 C1310 1.419 . S
C1309 C1304 1.425 . S
C1309 C1306 1.409 . S
C1309 C1307 1.415 . S
C1310 H1300 0.930 . S
C1310 C1308 1.419 . S
C1310 C1311 1.362 . S
C1311 H1301 0.930 . S
C1311 C1304 1.409 . S
C1311 C1310 1.362 . S
H1312 C1318 0.930 . S
H1313 C1321 0.930 . S
H1314 C1322 0.930 . S
H1315 C1323 0.930 . S
H1316 C1326 0.930 1_554 S
H1317 C1327 0.930 . S
C1318 H1312 0.930 . S
C1318 C1319 1.355 . S
C1318 C1320 1.415 . S
C1319 C1318 1.355 . S
C1319 C1321 1.419 . S
C1320 C1318 1.415 . S
C1320 C1325 1.425 . S
C1320 C1327 1.409 . S
C1321 H1313 0.930 . S
C1321 C1319 1.419 . S
C1321 C1322 1.362 . S
C1322 H1314 0.930 . S
C1322 C1321 1.362 . S
C1322 C1325 1.409 . S
C1323 H1315 0.930 . S
C1323 C1324 1.355 . S
C1323 C1325 1.415 . S
C1324 C1323 1.355 . S
C1324 C1326 1.419 . S
C1325 C1320 1.425 . S
C1325 C1322 1.409 . S
C1325 C1323 1.415 . S
C1326 H1316 0.930 1_556 S
C1326 C1324 1.419 . S
C1326 C1327 1.362 . S
C1327 H1317 0.930 . S
C1327 C1320 1.409 . S
C1327 C1326 1.362 . S
H1328 C1334 0.930 . S
H1329 C1337 0.930 . S
H1330 C1338 0.930 . S
H1331 C1339 0.930 . S
H1332 C1342 0.930 . S
H1333 C1343 0.930 . S
C1334 H1328 0.930 . S
C1334 C1335 1.355 . S
C1334 C1336 1.415 . S
C1335 C1334 1.355 . S
C1335 C1337 1.419 . S
C1336 C1334 1.415 . S
C1336 C1341 1.425 . S
C1336 C1343 1.409 . S
C1337 H1329 0.930 . S
C1337 C1335 1.419 . S
C1337 C1338 1.362 . S
C1338 H1330 0.930 . S
C1338 C1337 1.362 . S
C1338 C1341 1.409 . S
C1339 H1331 0.930 . S
C1339 C1340 1.355 . S
C1339 C1341 1.415 . S
C1340 C1339 1.355 . S
C1340 C1342 1.419 . S
C1341 C1336 1.425 . S
C1341 C1338 1.409 . S
C1341 C1339 1.415 . S
C1342 H1332 0.930 . S
C1342 C1340 1.419 . S
C1342 C1343 1.362 . S
C1343 H1333 0.930 . S
C1343 C1336 1.409 . S
C1343 C1342 1.362 . S
H1344 C1350 0.930 . S
H1345 C1353 0.930 . S
H1346 C1354 0.930 . S
H1347 C1355 0.930 . S
H1348 C1358 0.930 . S
H1349 C1359 0.930 . S
C1350 H1344 0.930 . S
C1350 C1351 1.355 . S
C1350 C1352 1.415 . S
C1351 C1350 1.355 . S
C1351 C1353 1.419 . S
C1352 C1350 1.415 . S
C1352 C1357 1.425 . S
C1352 C1359 1.409 . S
C1353 H1345 0.930 . S
C1353 C1351 1.419 . S
C1353 C1354 1.362 . S
C1354 H1346 0.930 . S
C1354 C1353 1.362 . S
C1354 C1357 1.409 . S
C1355 H1347 0.930 . S
C1355 C1356 1.355 . S
C1355 C1357 1.415 . S
C1356 C1355 1.355 . S
C1356 C1358 1.419 . S
C1357 C1352 1.425 . S
C1357 C1354 1.409 . S
C1357 C1355 1.415 . S
C1358 H1348 0.930 . S
C1358 C1356 1.419 . S
C1358 C1359 1.362 . S
C1359 H1349 0.930 . S
C1359 C1352 1.409 . S
C1359 C1358 1.362 . S
H1360 C1366 0.930 . S
H1361 C1369 0.930 . S
H1362 C1370 0.930 . S
H1363 C1371 0.930 . S
H1364 C1374 0.930 . S
H1365 C1375 0.930 . S
C1366 H1360 0.930 . S
C1366 C1367 1.355 . S
C1366 C1368 1.415 . S
C1367 C1366 1.355 . S
C1367 C1369 1.419 . S
C1368 C1366 1.415 . S
C1368 C1373 1.425 . S
C1368 C1375 1.409 . S
C1369 H1361 0.930 . S
C1369 C1367 1.419 . S
C1369 C1370 1.362 . S
C1370 H1362 0.930 . S
C1370 C1369 1.362 . S
C1370 C1373 1.409 . S
C1371 H1363 0.930 . S
C1371 C1372 1.355 . S
C1371 C1373 1.415 . S
C1372 C1371 1.355 . S
C1372 C1374 1.419 . S
C1373 C1368 1.425 . S
C1373 C1370 1.409 . S
C1373 C1371 1.415 . S
C1374 H1364 0.930 . S
C1374 C1372 1.419 . S
C1374 C1375 1.362 . S
C1375 H1365 0.930 . S
C1375 C1368 1.409 . S
C1375 C1374 1.362 . S
H1376 C1382 0.930 . S
H1377 C1385 0.930 . S
H1378 C1386 0.930 . S
H1379 C1387 0.930 . S
H1380 C1390 0.930 . S
H1381 C1391 0.930 . S
C1382 H1376 0.930 . S
C1382 C1383 1.355 . S
C1382 C1384 1.415 . S
C1383 C1382 1.355 . S
C1383 C1385 1.419 . S
C1384 C1382 1.415 . S
C1384 C1389 1.425 . S
C1384 C1391 1.409 . S
C1385 H1377 0.930 . S
C1385 C1383 1.419 . S
C1385 C1386 1.362 . S
C1386 H1378 0.930 . S
C1386 C1385 1.362 . S
C1386 C1389 1.409 . S
C1387 H1379 0.930 . S
C1387 C1388 1.355 . S
C1387 C1389 1.415 . S
C1388 C1387 1.355 . S
C1388 C1390 1.419 . S
C1389 C1384 1.425 . S
C1389 C1386 1.409 . S
C1389 C1387 1.415 . S
C1390 H1380 0.930 . S
C1390 C1388 1.419 . S
C1390 C1391 1.362 . S
C1391 H1381 0.930 . S
C1391 C1384 1.409 . S
C1391 C1390 1.362 . S
H1392 C1398 0.930 . S
H1393 C1401 0.930 . S
H1394 C1402 0.930 . S
H1395 C1403 0.930 . S
H1396 C1406 0.930 . S
H1397 C1407 0.930 . S
C1398 H1392 0.930 . S
C1398 C1399 1.355 . S
C1398 C1400 1.415 . S
C1399 C1398 1.355 . S
C1399 C1401 1.419 . S
C1400 C1398 1.415 . S
C1400 C1405 1.425 . S
C1400 C1407 1.409 . S
C1401 H1393 0.930 . S
C1401 C1399 1.419 . S
C1401 C1402 1.362 . S
C1402 H1394 0.930 . S
C1402 C1401 1.362 . S
C1402 C1405 1.409 . S
C1403 H1395 0.930 . S
C1403 C1404 1.355 . S
C1403 C1405 1.415 . S
C1404 C1403 1.355 . S
C1404 C1406 1.419 . S
C1405 C1400 1.425 . S
C1405 C1402 1.409 . S
C1405 C1403 1.415 . S
C1406 H1396 0.930 . S
C1406 C1404 1.419 . S
C1406 C1407 1.362 . S
C1407 H1397 0.930 . S
C1407 C1400 1.409 . S
C1407 C1406 1.362 . S
H1408 C1414 0.930 . S
H1409 C1417 0.930 1_554 S
H1410 C1418 0.930 . S
H1411 C1419 0.930 . S
H1412 C1422 0.930 . S
H1413 C1423 0.930 . S
C1414 H1408 0.930 . S
C1414 C1415 1.355 . S
C1414 C1416 1.415 . S
C1415 C1414 1.355 . S
C1415 C1417 1.419 . S
C1416 C1414 1.415 . S
C1416 C1421 1.425 1_545 S
C1416 C1423 1.409 . S
C1417 H1409 0.930 1_556 S
C1417 C1415 1.419 . S
C1417 C1418 1.362 1_545 S
C1418 H1410 0.930 . S
C1418 C1417 1.362 1_565 S
C1418 C1421 1.409 . S
C1419 H1411 0.930 . S
C1419 C1420 1.355 . S
C1419 C1421 1.415 . S
C1420 C1419 1.355 . S
C1420 C1422 1.419 . S
C1421 C1416 1.425 1_565 S
C1421 C1418 1.409 . S
C1421 C1419 1.415 . S
C1422 H1412 0.930 . S
C1422 C1420 1.419 . S
C1422 C1423 1.362 1_565 S
C1423 H1413 0.930 . S
C1423 C1416 1.409 . S
C1423 C1422 1.362 1_545 S
H1424 C1430 0.930 . S
H1425 C1433 0.930 . S
H1426 C1434 0.930 . S
H1427 C1435 0.930 . S
H1428 C1438 0.930 . S
H1429 C1439 0.930 . S
C1430 H1424 0.930 . S
C1430 C1431 1.355 . S
C1430 C1432 1.415 . S
C1431 C1430 1.355 . S
C1431 C1433 1.419 . S
C1432 C1430 1.415 . S
C1432 C1437 1.425 . S
C1432 C1439 1.409 . S
C1433 H1425 0.930 . S
C1433 C1431 1.419 . S
C1433 C1434 1.362 . S
C1434 H1426 0.930 . S
C1434 C1433 1.362 . S
C1434 C1437 1.409 . S
C1435 H1427 0.930 . S
C1435 C1436 1.355 . S
C1435 C1437 1.415 . S
C1436 C1435 1.355 . S
C1436 C1438 1.419 . S
C1437 C1432 1.425 . S
C1437 C1434 1.409 . S
C1437 C1435 1.415 . S
C1438 H1428 0.930 . S
C1438 C1436 1.419 . S
C1438 C1439 1.362 . S
C1439 H1429 0.930 . S
C1439 C1432 1.409 . S
C1439 C1438 1.362 . S
H1440 C1446 0.930 . S
H1441 C1449 0.930 . S
H1442 C1450 0.930 . S
H1443 C1451 0.930 . S
H1444 C1454 0.930 . S
H1445 C1455 0.930 . S
C1446 H1440 0.930 . S
C1446 C1447 1.355 . S
C1446 C1448 1.415 1_545 S
C1447 C1446 1.355 . S
C1447 C1449 1.419 . S
C1448 C1446 1.415 1_565 S
C1448 C1453 1.425 1_565 S
C1448 C1455 1.409 . S
C1449 H1441 0.930 . S
C1449 C1447 1.419 . S
C1449 C1450 1.362 . S
C1450 H1442 0.930 . S
C1450 C1449 1.362 . S
C1450 C1453 1.409 . S
C1451 H1443 0.930 . S
C1451 C1452 1.355 . S
C1451 C1453 1.415 1_565 S
C1452 C1451 1.355 . S
C1452 C1454 1.419 . S
C1453 C1448 1.425 1_545 S
C1453 C1450 1.409 . S
C1453 C1451 1.415 1_545 S
C1454 H1444 0.930 . S
C1454 C1452 1.419 . S
C1454 C1455 1.362 . S
C1455 H1445 0.930 . S
C1455 C1448 1.409 . S
C1455 C1454 1.362 . S
H1456 C1462 0.930 . S
H1457 C1465 0.930 . S
H1458 C1466 0.930 . S
H1459 C1467 0.930 . S
H1460 C1470 0.930 . S
H1461 C1471 0.930 . S
C1462 H1456 0.930 . S
C1462 C1463 1.355 . S
C1462 C1464 1.415 . S
C1463 C1462 1.355 . S
C1463 C1465 1.419 . S
C1464 C1462 1.415 . S
C1464 C1469 1.425 . S
C1464 C1471 1.409 . S
C1465 H1457 0.930 . S
C1465 C1463 1.419 . S
C1465 C1466 1.362 . S
C1466 H1458 0.930 . S
C1466 C1465 1.362 . S
C1466 C1469 1.409 . S
C1467 H1459 0.930 . S
C1467 C1468 1.355 . S
C1467 C1469 1.415 . S
C1468 C1467 1.355 . S
C1468 C1470 1.419 . S
C1469 C1464 1.425 . S
C1469 C1466 1.409 . S
C1469 C1467 1.415 . S
C1470 H1460 0.930 . S
C1470 C1468 1.419 . S
C1470 C1471 1.362 . S
C1471 H1461 0.930 . S
C1471 C1464 1.409 . S
C1471 C1470 1.362 . S
H1472 C1478 0.930 . S
H1473 C1481 0.930 . S
H1474 C1482 0.930 . S
H1475 C1483 0.930 . S
H1476 C1486 0.930 . S
H1477 C1487 0.930 . S
C1478 H1472 0.930 . S
C1478 C1479 1.355 . S
C1478 C1480 1.415 1_545 S
C1479 C1478 1.355 . S
C1479 C1481 1.419 . S
C1480 C1478 1.415 1_565 S
C1480 C1485 1.425 1_565 S
C1480 C1487 1.409 . S
C1481 H1473 0.930 . S
C1481 C1479 1.419 . S
C1481 C1482 1.362 . S
C1482 H1474 0.930 . S
C1482 C1481 1.362 . S
C1482 C1485 1.409 . S
C1483 H1475 0.930 . S
C1483 C1484 1.355 . S
C1483 C1485 1.415 1_565 S
C1484 C1483 1.355 . S
C1484 C1486 1.419 . S
C1485 C1480 1.425 1_545 S
C1485 C1482 1.409 . S
C1485 C1483 1.415 1_545 S
C1486 H1476 0.930 . S
C1486 C1484 1.419 . S
C1486 C1487 1.362 . S
C1487 H1477 0.930 . S
C1487 C1480 1.409 . S
C1487 C1486 1.362 . S
H1488 C1494 0.930 . S
H1489 C1497 0.930 . S
H1490 C1498 0.930 . S
H1491 C1499 0.930 . S
H1492 C1502 0.930 . S
H1493 C1503 0.930 . S
C1494 H1488 0.930 . S
C1494 C1495 1.355 . S
C1494 C1496 1.415 . S
C1495 C1494 1.355 . S
C1495 C1497 1.419 . S
C1496 C1494 1.415 . S
C1496 C1501 1.425 . S
C1496 C1503 1.409 . S
C1497 H1489 0.930 . S
C1497 C1495 1.419 . S
C1497 C1498 1.362 . S
C1498 H1490 0.930 . S
C1498 C1497 1.362 . S
C1498 C1501 1.409 . S
C1499 H1491 0.930 . S
C1499 C1500 1.355 . S
C1499 C1501 1.415 . S
C1500 C1499 1.355 . S
C1500 C1502 1.419 . S
C1501 C1496 1.425 . S
C1501 C1498 1.409 . S
C1501 C1499 1.415 . S
C1502 H1492 0.930 . S
C1502 C1500 1.419 . S
C1502 C1503 1.362 . S
C1503 H1493 0.930 . S
C1503 C1496 1.409 . S
C1503 C1502 1.362 . S
H1504 C1510 0.930 . S
H1505 C1513 0.930 . S
H1506 C1514 0.930 . S
H1507 C1515 0.930 . S
H1508 C1518 0.930 . S
H1509 C1519 0.930 . S
C1510 H1504 0.930 . S
C1510 C1511 1.355 . S
C1510 C1512 1.388 1_565 S
C1511 C1510 1.355 . S
C1511 C1513 1.419 . S
C1512 C1510 1.388 1_545 S
C1512 C1517 1.422 1_545 S
C1512 C1519 1.439 . S
C1513 H1505 0.930 . S
C1513 C1511 1.419 . S
C1513 C1514 1.362 . S
C1514 H1506 0.930 . S
C1514 C1513 1.362 . S
C1514 C1517 1.440 . S
C1515 H1507 0.930 . S
C1515 C1516 1.355 . S
C1515 C1517 1.387 1_545 S
C1516 C1515 1.355 . S
C1516 C1518 1.419 . S
C1517 C1512 1.422 1_565 S
C1517 C1514 1.440 . S
C1517 C1515 1.387 1_565 S
C1518 H1508 0.930 . S
C1518 C1516 1.419 . S
C1518 C1519 1.362 . S
C1519 H1509 0.930 . S
C1519 C1512 1.439 . S
C1519 C1518 1.362 . S
H1520 C1526 0.930 . S
H1521 C1529 0.930 . S
H1522 C1530 0.930 . S
H1523 C1531 0.930 . S
H1524 C1534 0.930 . S
H1525 C1535 0.930 . S
C1526 H1520 0.930 . S
C1526 C1527 1.355 . S
C1526 C1528 1.415 . S
C1527 C1526 1.355 . S
C1527 C1529 1.419 . S
C1528 C1526 1.415 . S
C1528 C1533 1.425 . S
C1528 C1535 1.409 . S
C1529 H1521 0.930 . S
C1529 C1527 1.419 . S
C1529 C1530 1.362 . S
C1530 H1522 0.930 . S
C1530 C1529 1.362 . S
C1530 C1533 1.409 . S
C1531 H1523 0.930 . S
C1531 C1532 1.355 . S
C1531 C1533 1.415 . S
C1532 C1531 1.355 . S
C1532 C1534 1.419 . S
C1533 C1528 1.425 . S
C1533 C1530 1.409 . S
C1533 C1531 1.415 . S
C1534 H1524 0.930 . S
C1534 C1532 1.419 . S
C1534 C1535 1.362 . S
C1535 H1525 0.930 . S
C1535 C1528 1.409 . S
C1535 C1534 1.362 . S
H1536 C1542 0.930 . S
H1537 C1545 0.930 . S
H1538 C1546 0.930 . S
H1539 C1547 0.930 . S
H1540 C1550 0.930 . S
H1541 C1551 0.930 . S
C1542 H1536 0.930 . S
C1542 C1543 1.355 . S
C1542 C1544 1.415 . S
C1543 C1542 1.355 . S
C1543 C1545 1.419 . S
C1544 C1542 1.415 . S
C1544 C1549 1.425 . S
C1544 C1551 1.409 . S
C1545 H1537 0.930 . S
C1545 C1543 1.419 . S
C1545 C1546 1.362 . S
C1546 H1538 0.930 . S
C1546 C1545 1.362 . S
C1546 C1549 1.409 . S
C1547 H1539 0.930 . S
C1547 C1548 1.355 . S
C1547 C1549 1.415 . S
C1548 C1547 1.355 . S
C1548 C1550 1.419 . S
C1549 C1544 1.425 . S
C1549 C1546 1.409 . S
C1549 C1547 1.415 . S
C1550 H1540 0.930 . S
C1550 C1548 1.419 . S
C1550 C1551 1.362 . S
C1551 H1541 0.930 . S
C1551 C1544 1.409 . S
C1551 C1550 1.362 . S
H1552 C1558 0.930 . S
H1553 C1561 0.930 . S
H1554 C1562 0.930 . S
H1555 C1563 0.930 . S
H1556 C1566 0.930 . S
H1557 C1567 0.930 . S
C1558 H1552 0.930 . S
C1558 C1559 1.355 . S
C1558 C1560 1.415 . S
C1559 C1558 1.355 . S
C1559 C1561 1.419 . S
C1560 C1558 1.415 . S
C1560 C1565 1.425 . S
C1560 C1567 1.409 . S
C1561 H1553 0.930 . S
C1561 C1559 1.419 . S
C1561 C1562 1.362 . S
C1562 H1554 0.930 . S
C1562 C1561 1.362 . S
C1562 C1565 1.409 . S
C1563 H1555 0.930 . S
C1563 C1564 1.355 . S
C1563 C1565 1.415 . S
C1564 C1563 1.355 . S
C1564 C1566 1.419 . S
C1565 C1560 1.425 . S
C1565 C1562 1.409 . S
C1565 C1563 1.415 . S
C1566 H1556 0.930 . S
C1566 C1564 1.419 . S
C1566 C1567 1.362 . S
C1567 H1557 0.930 . S
C1567 C1560 1.409 . S
C1567 C1566 1.362 . S
H1568 C1574 0.930 . S
H1569 C1577 0.930 . S
H1570 C1578 0.930 . S
H1571 C1579 0.930 . S
H1572 C1582 0.930 . S
H1573 C1583 0.930 . S
C1574 H1568 0.930 . S
C1574 C1575 1.355 . S
C1574 C1576 1.415 . S
C1575 C1574 1.355 . S
C1575 C1577 1.419 . S
C1576 C1574 1.415 . S
C1576 C1581 1.425 . S
C1576 C1583 1.409 . S
C1577 H1569 0.930 . S
C1577 C1575 1.419 . S
C1577 C1578 1.362 . S
C1578 H1570 0.930 . S
C1578 C1577 1.362 . S
C1578 C1581 1.409 . S
C1579 H1571 0.930 . S
C1579 C1580 1.355 . S
C1579 C1581 1.415 . S
C1580 C1579 1.355 . S
C1580 C1582 1.419 . S
C1581 C1576 1.425 . S
C1581 C1578 1.409 . S
C1581 C1579 1.415 . S
C1582 H1572 0.930 . S
C1582 C1580 1.419 . S
C1582 C1583 1.362 . S
C1583 H1573 0.930 . S
C1583 C1576 1.409 . S
C1583 C1582 1.362 . S
H1584 C1590 0.930 . S
H1585 C1593 0.930 . S
H1586 C1594 0.930 . S
H1587 C1595 0.930 . S
H1588 C1598 0.930 . S
H1589 C1599 0.930 . S
C1590 H1584 0.930 . S
C1590 C1591 1.355 . S
C1590 C1592 1.415 1_556 S
C1591 C1590 1.355 . S
C1591 C1593 1.419 . S
C1592 C1590 1.415 1_554 S
C1592 C1597 1.425 . S
C1592 C1599 1.409 . S
C1593 H1585 0.930 . S
C1593 C1591 1.419 . S
C1593 C1594 1.362 1_556 S
C1594 H1586 0.930 . S
C1594 C1593 1.362 1_554 S
C1594 C1597 1.409 . S
C1595 H1587 0.930 . S
C1595 C1596 1.355 . S
C1595 C1597 1.415 . S
C1596 C1595 1.355 . S
C1596 C1598 1.419 . S
C1597 C1592 1.425 . S
C1597 C1594 1.409 . S
C1597 C1595 1.415 . S
C1598 H1588 0.930 . S
C1598 C1596 1.419 . S
C1598 C1599 1.362 . S
C1599 H1589 0.930 . S
C1599 C1592 1.409 . S
C1599 C1598 1.362 . S
H1600 C1606 0.930 . S
H1601 C1609 0.930 . S
H1602 C1610 0.930 . S
H1603 C1611 0.930 . S
H1604 C1614 0.930 . S
H1605 C1615 0.930 . S
C1606 H1600 0.930 . S
C1606 C1607 1.355 . S
C1606 C1608 1.415 . S
C1607 C1606 1.355 . S
C1607 C1609 1.419 . S
C1608 C1606 1.415 . S
C1608 C1613 1.425 . S
C1608 C1615 1.409 . S
C1609 H1601 0.930 . S
C1609 C1607 1.419 . S
C1609 C1610 1.362 . S
C1610 H1602 0.930 . S
C1610 C1609 1.362 . S
C1610 C1613 1.409 . S
C1611 H1603 0.930 . S
C1611 C1612 1.355 . S
C1611 C1613 1.415 . S
C1612 C1611 1.355 . S
C1612 C1614 1.419 . S
C1613 C1608 1.425 . S
C1613 C1610 1.409 . S
C1613 C1611 1.415 . S
C1614 H1604 0.930 . S
C1614 C1612 1.419 . S
C1614 C1615 1.362 . S
C1615 H1605 0.930 . S
C1615 C1608 1.409 . S
C1615 C1614 1.362 . S
H1616 C1622 0.930 . S
H1617 C1625 0.930 . S
H1618 C1626 0.930 . S
H1619 C1627 0.930 . S
H1620 C1630 0.930 . S
H1621 C1631 0.930 . S
C1622 H1616 0.930 . S
C1622 C1623 1.355 . S
C1622 C1624 1.415 . S
C1623 C1622 1.355 . S
C1623 C1625 1.419 . S
C1624 C1622 1.415 . S
C1624 C1629 1.425 . S
C1624 C1631 1.409 . S
C1625 H1617 0.930 . S
C1625 C1623 1.419 . S
C1625 C1626 1.362 . S
C1626 H1618 0.930 . S
C1626 C1625 1.362 . S
C1626 C1629 1.409 . S
C1627 H1619 0.930 . S
C1627 C1628 1.355 . S
C1627 C1629 1.415 . S
C1628 C1627 1.355 . S
C1628 C1630 1.419 . S
C1629 C1624 1.425 . S
C1629 C1626 1.409 . S
C1629 C1627 1.415 . S
C1630 H1620 0.930 . S
C1630 C1628 1.419 . S
C1630 C1631 1.362 . S
C1631 H1621 0.930 . S
C1631 C1624 1.409 . S
C1631 C1630 1.362 . S
H1632 C1638 0.930 . S
H1633 C1641 0.930 . S
H1634 C1642 0.930 . S
H1635 C1643 0.930 . S
H1636 C1646 0.930 . S
H1637 C1647 0.930 . S
C1638 H1632 0.930 . S
C1638 C1639 1.355 . S
C1638 C1640 1.415 . S
C1639 C1638 1.355 . S
C1639 C1641 1.419 . S
C1640 C1638 1.415 . S
C1640 C1645 1.425 . S
C1640 C1647 1.409 . S
C1641 H1633 0.930 . S
C1641 C1639 1.419 . S
C1641 C1642 1.362 . S
C1642 H1634 0.930 . S
C1642 C1641 1.362 . S
C1642 C1645 1.409 . S
C1643 H1635 0.930 . S
C1643 C1644 1.355 . S
C1643 C1645 1.415 1_556 S
C1644 C1643 1.355 . S
C1644 C1646 1.419 . S
C1645 C1640 1.425 . S
C1645 C1642 1.409 . S
C1645 C1643 1.415 1_554 S
C1646 H1636 0.930 . S
C1646 C1644 1.419 . S
C1646 C1647 1.362 1_556 S
C1647 H1637 0.930 . S
C1647 C1640 1.409 . S
C1647 C1646 1.362 1_554 S
H1648 C1654 0.930 . S
H1649 C1657 0.930 . S
H1650 C1658 0.930 . S
H1651 C1659 0.930 . S
H1652 C1662 0.930 . S
H1653 C1663 0.930 . S
C1654 H1648 0.930 . S
C1654 C1655 1.355 . S
C1654 C1656 1.415 . S
C1655 C1654 1.355 . S
C1655 C1657 1.419 . S
C1656 C1654 1.415 . S
C1656 C1661 1.425 . S
C1656 C1663 1.409 . S
C1657 H1649 0.930 . S
C1657 C1655 1.419 . S
C1657 C1658 1.362 . S
C1658 H1650 0.930 . S
C1658 C1657 1.362 . S
C1658 C1661 1.409 . S
C1659 H1651 0.930 . S
C1659 C1660 1.355 . S
C1659 C1661 1.415 . S
C1660 C1659 1.355 . S
C1660 C1662 1.419 . S
C1661 C1656 1.425 . S
C1661 C1658 1.409 . S
C1661 C1659 1.415 . S
C1662 H1652 0.930 . S
C1662 C1660 1.419 . S
C1662 C1663 1.362 . S
C1663 H1653 0.930 . S
C1663 C1656 1.409 . S
C1663 C1662 1.362 . S
H1664 C1670 0.930 . S
H1665 C1673 0.930 . S
H1666 C1674 0.930 . S
H1667 C1675 0.930 . S
H1668 C1678 0.930 . S
H1669 C1679 0.930 . S
C1670 H1664 0.930 . S
C1670 C1671 1.355 . S
C1670 C1672 1.415 . S
C1671 C1670 1.355 . S
C1671 C1673 1.419 . S
C1672 C1670 1.415 . S
C1672 C1677 1.425 . S
C1672 C1679 1.409 . S
C1673 H1665 0.930 . S
C1673 C1671 1.419 . S
C1673 C1674 1.362 . S
C1674 H1666 0.930 . S
C1674 C1673 1.362 . S
C1674 C1677 1.409 . S
C1675 H1667 0.930 . S
C1675 C1676 1.355 . S
C1675 C1677 1.415 1_556 S
C1676 C1675 1.355 . S
C1676 C1678 1.419 . S
C1677 C1672 1.425 . S
C1677 C1674 1.409 . S
C1677 C1675 1.415 1_554 S
C1678 H1668 0.930 . S
C1678 C1676 1.419 . S
C1678 C1679 1.362 1_556 S
C1679 H1669 0.930 . S
C1679 C1672 1.409 . S
C1679 C1678 1.362 1_554 S
H1680 C1686 0.930 . S
H1681 C1689 0.930 . S
H1682 C1690 0.930 . S
H1683 C1691 0.930 . S
H1684 C1694 0.930 . S
H1685 C1695 0.930 . S
C1686 H1680 0.930 . S
C1686 C1687 1.355 . S
C1686 C1688 1.415 . S
C1687 C1686 1.355 . S
C1687 C1689 1.419 . S
C1688 C1686 1.415 . S
C1688 C1693 1.425 . S
C1688 C1695 1.409 . S
C1689 H1681 0.930 . S
C1689 C1687 1.419 . S
C1689 C1690 1.362 . S
C1690 H1682 0.930 . S
C1690 C1689 1.362 . S
C1690 C1693 1.409 . S
C1691 H1683 0.930 . S
C1691 C1692 1.355 . S
C1691 C1693 1.415 . S
C1692 C1691 1.355 . S
C1692 C1694 1.419 . S
C1693 C1688 1.425 . S
C1693 C1690 1.409 . S
C1693 C1691 1.415 . S
C1694 H1684 0.930 . S
C1694 C1692 1.419 . S
C1694 C1695 1.362 . S
C1695 H1685 0.930 . S
C1695 C1688 1.409 . S
C1695 C1694 1.362 . S
H1696 C1702 0.930 . S
H1697 C1705 0.930 . S
H1698 C1706 0.930 . S
H1699 C1707 0.930 . S
H1700 C1710 0.930 . S
H1701 C1711 0.930 . S
C1702 H1696 0.930 . S
C1702 C1703 1.355 . S
C1702 C1704 1.415 . S
C1703 C1702 1.355 . S
C1703 C1705 1.419 . S
C1704 C1702 1.415 . S
C1704 C1709 1.425 . S
C1704 C1711 1.409 . S
C1705 H1697 0.930 . S
C1705 C1703 1.419 . S
C1705 C1706 1.362 . S
C1706 H1698 0.930 . S
C1706 C1705 1.362 . S
C1706 C1709 1.409 . S
C1707 H1699 0.930 . S
C1707 C1708 1.355 . S
C1707 C1709 1.415 . S
C1708 C1707 1.355 . S
C1708 C1710 1.419 . S
C1709 C1704 1.425 . S
C1709 C1706 1.409 . S
C1709 C1707 1.415 . S
C1710 H1700 0.930 . S
C1710 C1708 1.419 . S
C1710 C1711 1.362 . S
C1711 H1701 0.930 . S
C1711 C1704 1.409 . S
C1711 C1710 1.362 . S
H1712 C1718 0.930 . S
H1713 C1721 0.930 . S
H1714 C1722 0.930 . S
H1715 C1723 0.930 . S
H1716 C1726 0.930 . S
H1717 C1727 0.930 . S
C1718 H1712 0.930 . S
C1718 C1719 1.355 . S
C1718 C1720 1.415 . S
C1719 C1718 1.355 . S
C1719 C1721 1.419 . S
C1720 C1718 1.415 . S
C1720 C1725 1.425 . S
C1720 C1727 1.409 . S
C1721 H1713 0.930 . S
C1721 C1719 1.419 . S
C1721 C1722 1.362 . S
C1722 H1714 0.930 . S
C1722 C1721 1.362 . S
C1722 C1725 1.409 . S
C1723 H1715 0.930 . S
C1723 C1724 1.355 . S
C1723 C1725 1.415 . S
C1724 C1723 1.355 . S
C1724 C1726 1.419 . S
C1725 C1720 1.425 . S
C1725 C1722 1.409 . S
C1725 C1723 1.415 . S
C1726 H1716 0.930 . S
C1726 C1724 1.419 . S
C1726 C1727 1.362 . S
C1727 H1717 0.930 . S
C1727 C1720 1.409 . S
C1727 C1726 1.362 . S
H1728 C1734 0.930 . S
H1729 C1737 0.930 . S
H1730 C1738 0.930 . S
H1731 C1739 0.930 . S
H1732 C1742 0.930 . S
H1733 C1743 0.930 . S
C1734 H1728 0.930 . S
C1734 C1735 1.355 . S
C1734 C1736 1.415 . S
C1735 C1734 1.355 . S
C1735 C1737 1.419 . S
C1736 C1734 1.415 . S
C1736 C1741 1.425 . S
C1736 C1743 1.409 . S
C1737 H1729 0.930 . S
C1737 C1735 1.419 . S
C1737 C1738 1.362 . S
C1738 H1730 0.930 . S
C1738 C1737 1.362 . S
C1738 C1741 1.409 . S
C1739 H1731 0.930 . S
C1739 C1740 1.355 . S
C1739 C1741 1.415 . S
C1740 C1739 1.355 . S
C1740 C1742 1.419 . S
C1741 C1736 1.425 . S
C1741 C1738 1.409 . S
C1741 C1739 1.415 . S
C1742 H1732 0.930 . S
C1742 C1740 1.419 . S
C1742 C1743 1.362 . S
C1743 H1733 0.930 . S
C1743 C1736 1.409 . S
C1743 C1742 1.362 . S
H1744 C1750 0.930 . S
H1745 C1753 0.930 . S
H1746 C1754 0.930 . S
H1747 C1755 0.930 . S
H1748 C1758 0.930 . S
H1749 C1759 0.930 . S
C1750 H1744 0.930 . S
C1750 C1751 1.355 . S
C1750 C1752 1.415 . S
C1751 C1750 1.355 . S
C1751 C1753 1.419 . S
C1752 C1750 1.415 . S
C1752 C1757 1.425 . S
C1752 C1759 1.409 . S
C1753 H1745 0.930 . S
C1753 C1751 1.419 . S
C1753 C1754 1.362 . S
C1754 H1746 0.930 . S
C1754 C1753 1.362 . S
C1754 C1757 1.409 . S
C1755 H1747 0.930 . S
C1755 C1756 1.355 . S
C1755 C1757 1.415 . S
C1756 C1755 1.355 . S
C1756 C1758 1.419 . S
C1757 C1752 1.425 . S
C1757 C1754 1.409 . S
C1757 C1755 1.415 . S
C1758 H1748 0.930 . S
C1758 C1756 1.419 . S
C1758 C1759 1.362 . S
C1759 H1749 0.930 . S
C1759 C1752 1.409 . S
C1759 C1758 1.362 . S
H1760 C1766 0.930 . S
H1761 C1769 0.930 . S
H1762 C1770 0.930 . S
H1763 C1771 0.930 . S
H1764 C1774 0.930 . S
H1765 C1775 0.930 . S
C1766 H1760 0.930 . S
C1766 C1767 1.355 . S
C1766 C1768 1.415 . S
C1767 C1766 1.355 . S
C1767 C1769 1.419 . S
C1768 C1766 1.415 . S
C1768 C1773 1.425 . S
C1768 C1775 1.409 . S
C1769 H1761 0.930 . S
C1769 C1767 1.419 . S
C1769 C1770 1.362 . S
C1770 H1762 0.930 . S
C1770 C1769 1.362 . S
C1770 C1773 1.409 . S
C1771 H1763 0.930 . S
C1771 C1772 1.355 . S
C1771 C1773 1.415 . S
C1772 C1771 1.355 . S
C1772 C1774 1.419 . S
C1773 C1768 1.425 . S
C1773 C1770 1.409 . S
C1773 C1771 1.415 . S
C1774 H1764 0.930 . S
C1774 C1772 1.419 . S
C1774 C1775 1.362 . S
C1775 H1765 0.930 . S
C1775 C1768 1.409 . S
C1775 C1774 1.362 . S
H1776 C1782 0.930 . S
H1777 C1785 0.930 . S
H1778 C1786 0.930 . S
H1779 C1787 0.930 . S
H1780 C1790 0.930 . S
H1781 C1791 0.930 . S
C1782 H1776 0.930 . S
C1782 C1783 1.355 . S
C1782 C1784 1.415 1_556 S
C1783 C1782 1.355 . S
C1783 C1785 1.419 . S
C1784 C1782 1.415 1_554 S
C1784 C1789 1.425 . S
C1784 C1791 1.409 . S
C1785 H1777 0.930 . S
C1785 C1783 1.419 . S
C1785 C1786 1.362 1_556 S
C1786 H1778 0.930 . S
C1786 C1785 1.362 1_554 S
C1786 C1789 1.409 . S
C1787 H1779 0.930 . S
C1787 C1788 1.355 . S
C1787 C1789 1.415 . S
C1788 C1787 1.355 . S
C1788 C1790 1.419 . S
C1789 C1784 1.425 . S
C1789 C1786 1.409 . S
C1789 C1787 1.415 . S
C1790 H1780 0.930 . S
C1790 C1788 1.419 . S
C1790 C1791 1.362 . S
C1791 H1781 0.930 . S
C1791 C1784 1.409 . S
C1791 C1790 1.362 . S
H1792 C1798 0.930 . S
H1793 C1801 0.923 1_455 S
H1794 C1802 0.930 . S
H1795 C1803 0.930 . S
H1796 C1806 0.923 1_655 S
H1797 C1807 0.930 . S
C1798 H1792 0.930 . S
C1798 C1799 1.355 . S
C1798 C1800 1.415 . S
C1799 C1798 1.355 . S
C1799 C1801 1.451 . S
C1800 C1798 1.415 . S
C1800 C1805 1.425 1_655 S
C1800 C1807 1.409 . S
C1801 H1793 0.923 1_655 S
C1801 C1799 1.451 . S
C1801 C1802 1.338 1_655 S
C1802 H1794 0.930 . S
C1802 C1801 1.338 1_455 S
C1802 C1805 1.409 . S
C1803 H1795 0.930 . S
C1803 C1804 1.355 . S
C1803 C1805 1.415 . S
C1804 C1803 1.355 . S
C1804 C1806 1.450 . S
C1805 C1800 1.425 1_455 S
C1805 C1802 1.409 . S
C1805 C1803 1.415 . S
C1806 H1796 0.923 1_455 S
C1806 C1804 1.450 . S
C1806 C1807 1.339 1_455 S
C1807 H1797 0.930 . S
C1807 C1800 1.409 . S
C1807 C1806 1.339 1_655 S
H1808 C1814 0.930 . S
H1809 C1817 0.930 . S
H1810 C1818 0.930 . S
H1811 C1819 0.930 . S
H1812 C1822 0.930 . S
H1813 C1823 0.930 . S
C1814 H1808 0.930 . S
C1814 C1815 1.355 . S
C1814 C1816 1.415 . S
C1815 C1814 1.355 . S
C1815 C1817 1.419 . S
C1816 C1814 1.415 . S
C1816 C1821 1.425 . S
C1816 C1823 1.409 . S
C1817 H1809 0.930 . S
C1817 C1815 1.419 . S
C1817 C1818 1.362 . S
C1818 H1810 0.930 . S
C1818 C1817 1.362 . S
C1818 C1821 1.409 . S
C1819 H1811 0.930 . S
C1819 C1820 1.355 . S
C1819 C1821 1.415 . S
C1820 C1819 1.355 . S
C1820 C1822 1.419 . S
C1821 C1816 1.425 . S
C1821 C1818 1.409 . S
C1821 C1819 1.415 . S
C1822 H1812 0.930 . S
C1822 C1820 1.419 . S
C1822 C1823 1.362 . S
C1823 H1813 0.930 . S
C1823 C1816 1.409 . S
C1823 C1822 1.362 . S
H1824 C1830 0.930 . S
H1825 C1833 0.930 . S
H1826 C1834 0.930 . S
H1827 C1835 0.930 . S
H1828 C1838 0.930 . S
H1829 C1839 0.930 . S
C1830 H1824 0.930 . S
C1830 C1831 1.355 . S
C1830 C1832 1.415 . S
C1831 C1830 1.355 . S
C1831 C1833 1.419 . S
C1832 C1830 1.415 . S
C1832 C1837 1.425 . S
C1832 C1839 1.409 . S
C1833 H1825 0.930 . S
C1833 C1831 1.419 . S
C1833 C1834 1.362 . S
C1834 H1826 0.930 . S
C1834 C1833 1.362 . S
C1834 C1837 1.409 . S
C1835 H1827 0.930 . S
C1835 C1836 1.355 . S
C1835 C1837 1.415 . S
C1836 C1835 1.355 . S
C1836 C1838 1.419 . S
C1837 C1832 1.425 . S
C1837 C1834 1.409 . S
C1837 C1835 1.415 . S
C1838 H1828 0.930 . S
C1838 C1836 1.419 . S
C1838 C1839 1.362 . S
C1839 H1829 0.930 . S
C1839 C1832 1.409 . S
C1839 C1838 1.362 . S
H1840 C1846 0.930 . S
H1841 C1849 0.930 . S
H1842 C1850 0.930 . S
H1843 C1851 0.930 . S
H1844 C1854 0.930 . S
H1845 C1855 0.930 . S
C1846 H1840 0.930 . S
C1846 C1847 1.355 . S
C1846 C1848 1.415 . S
C1847 C1846 1.355 . S
C1847 C1849 1.419 . S
C1848 C1846 1.415 . S
C1848 C1853 1.425 . S
C1848 C1855 1.409 . S
C1849 H1841 0.930 . S
C1849 C1847 1.419 . S
C1849 C1850 1.362 . S
C1850 H1842 0.930 . S
C1850 C1849 1.362 . S
C1850 C1853 1.409 . S
C1851 H1843 0.930 . S
C1851 C1852 1.355 . S
C1851 C1853 1.415 . S
C1852 C1851 1.355 . S
C1852 C1854 1.419 . S
C1853 C1848 1.425 . S
C1853 C1850 1.409 . S
C1853 C1851 1.415 . S
C1854 H1844 0.930 . S
C1854 C1852 1.419 . S
C1854 C1855 1.362 . S
C1855 H1845 0.930 . S
C1855 C1848 1.409 . S
C1855 C1854 1.362 . S
H1856 C1862 0.930 . S
H1857 C1865 0.930 . S
H1858 C1866 0.930 . S
H1859 C1867 0.930 . S
H1860 C1870 0.930 . S
H1861 C1871 0.930 . S
C1862 H1856 0.930 . S
C1862 C1863 1.355 . S
C1862 C1864 1.415 1_655 S
C1863 C1862 1.355 . S
C1863 C1865 1.419 . S
C1864 C1862 1.415 1_455 S
C1864 C1869 1.425 1_455 S
C1864 C1871 1.409 . S
C1865 H1857 0.930 . S
C1865 C1863 1.419 . S
C1865 C1866 1.362 . S
C1866 H1858 0.930 . S
C1866 C1865 1.362 . S
C1866 C1869 1.409 . S
C1867 H1859 0.930 . S
C1867 C1868 1.355 . S
C1867 C1869 1.415 1_455 S
C1868 C1867 1.355 . S
C1868 C1870 1.419 . S
C1869 C1864 1.425 1_655 S
C1869 C1866 1.409 . S
C1869 C1867 1.415 1_655 S
C1870 H1860 0.930 . S
C1870 C1868 1.419 . S
C1870 C1871 1.362 . S
C1871 H1861 0.930 . S
C1871 C1864 1.409 . S
C1871 C1870 1.362 . S
H1872 C1878 0.930 . S
H1873 C1881 0.930 . S
H1874 C1882 0.930 . S
H1875 C1883 0.930 . S
H1876 C1886 0.930 . S
H1877 C1887 0.930 . S
C1878 H1872 0.930 . S
C1878 C1879 1.355 . S
C1878 C1880 1.415 . S
C1879 C1878 1.355 . S
C1879 C1881 1.419 . S
C1880 C1878 1.415 . S
C1880 C1885 1.425 . S
C1880 C1887 1.409 . S
C1881 H1873 0.930 . S
C1881 C1879 1.419 . S
C1881 C1882 1.362 . S
C1882 H1874 0.930 . S
C1882 C1881 1.362 . S
C1882 C1885 1.409 . S
C1883 H1875 0.930 . S
C1883 C1884 1.355 . S
C1883 C1885 1.415 . S
C1884 C1883 1.355 . S
C1884 C1886 1.419 . S
C1885 C1880 1.425 . S
C1885 C1882 1.409 . S
C1885 C1883 1.415 . S
C1886 H1876 0.930 . S
C1886 C1884 1.419 . S
C1886 C1887 1.362 . S
C1887 H1877 0.930 . S
C1887 C1880 1.409 . S
C1887 C1886 1.362 . S
H1888 C1894 0.930 . S
H1889 C1897 0.930 . S
H1890 C1898 0.930 . S
H1891 C1899 0.930 . S
H1892 C1902 0.930 . S
H1893 C1903 0.930 . S
C1894 H1888 0.930 . S
C1894 C1895 1.355 . S
C1894 C1896 1.415 . S
C1895 C1894 1.355 . S
C1895 C1897 1.419 . S
C1896 C1894 1.415 . S
C1896 C1901 1.425 . S
C1896 C1903 1.409 . S
C1897 H1889 0.930 . S
C1897 C1895 1.419 . S
C1897 C1898 1.362 . S
C1898 H1890 0.930 . S
C1898 C1897 1.362 . S
C1898 C1901 1.409 . S
C1899 H1891 0.930 . S
C1899 C1900 1.355 . S
C1899 C1901 1.415 . S
C1900 C1899 1.355 . S
C1900 C1902 1.419 . S
C1901 C1896 1.425 . S
C1901 C1898 1.409 . S
C1901 C1899 1.415 . S
C1902 H1892 0.930 . S
C1902 C1900 1.419 . S
C1902 C1903 1.362 . S
C1903 H1893 0.930 . S
C1903 C1896 1.409 . S
C1903 C1902 1.362 . S
H1904 C1910 0.930 . S
H1905 C1913 0.930 . S
H1906 C1914 0.930 . S
H1907 C1915 0.930 . S
H1908 C1918 0.930 . S
H1909 C1919 0.930 . S
C1910 H1904 0.930 . S
C1910 C1911 1.355 . S
C1910 C1912 1.415 . S
C1911 C1910 1.355 . S
C1911 C1913 1.419 . S
C1912 C1910 1.415 . S
C1912 C1917 1.425 . S
C1912 C1919 1.409 . S
C1913 H1905 0.930 . S
C1913 C1911 1.419 . S
C1913 C1914 1.362 . S
C1914 H1906 0.930 . S
C1914 C1913 1.362 . S
C1914 C1917 1.409 . S
C1915 H1907 0.930 . S
C1915 C1916 1.355 . S
C1915 C1917 1.415 . S
C1916 C1915 1.355 . S
C1916 C1918 1.419 . S
C1917 C1912 1.425 . S
C1917 C1914 1.409 . S
C1917 C1915 1.415 . S
C1918 H1908 0.930 . S
C1918 C1916 1.419 . S
C1918 C1919 1.362 . S
C1919 H1909 0.930 . S
C1919 C1912 1.409 . S
C1919 C1918 1.362 . S
H1920 C1926 0.930 . S
H1921 C1929 0.930 . S
H1922 C1930 0.930 . S
H1923 C1931 0.930 . S
H1924 C1934 0.930 1_554 S
H1925 C1935 0.930 . S
C1926 H1920 0.930 . S
C1926 C1927 1.355 . S
C1926 C1928 1.415 . S
C1927 C1926 1.355 . S
C1927 C1929 1.419 . S
C1928 C1926 1.415 . S
C1928 C1933 1.425 . S
C1928 C1935 1.409 . S
C1929 H1921 0.930 . S
C1929 C1927 1.419 . S
C1929 C1930 1.362 . S
C1930 H1922 0.930 . S
C1930 C1929 1.362 . S
C1930 C1933 1.409 . S
C1931 H1923 0.930 . S
C1931 C1932 1.355 . S
C1931 C1933 1.415 . S
C1932 C1931 1.355 . S
C1932 C1934 1.419 . S
C1933 C1928 1.425 . S
C1933 C1930 1.409 . S
C1933 C1931 1.415 . S
C1934 H1924 0.930 1_556 S
C1934 C1932 1.419 . S
C1934 C1935 1.362 . S
C1935 H1925 0.930 . S
C1935 C1928 1.409 . S
C1935 C1934 1.362 . S
H1936 C1942 0.930 . S
H1937 C1945 0.930 . S
H1938 C1946 0.930 . S
H1939 C1947 0.930 . S
H1940 C1950 0.930 . S
H1941 C1951 0.930 . S
C1942 H1936 0.930 . S
C1942 C1943 1.355 . S
C1942 C1944 1.415 . S
C1943 C1942 1.355 . S
C1943 C1945 1.419 . S
C1944 C1942 1.415 . S
C1944 C1949 1.425 . S
C1944 C1951 1.409 . S
C1945 H1937 0.930 . S
C1945 C1943 1.419 . S
C1945 C1946 1.362 . S
C1946 H1938 0.930 . S
C1946 C1945 1.362 . S
C1946 C1949 1.409 . S
C1947 H1939 0.930 . S
C1947 C1948 1.355 . S
C1947 C1949 1.415 . S
C1948 C1947 1.355 . S
C1948 C1950 1.419 . S
C1949 C1944 1.425 . S
C1949 C1946 1.409 . S
C1949 C1947 1.415 . S
C1950 H1940 0.930 . S
C1950 C1948 1.419 . S
C1950 C1951 1.362 . S
C1951 H1941 0.930 . S
C1951 C1944 1.409 . S
C1951 C1950 1.362 . S
H1952 C1958 0.930 . S
H1953 C1961 0.930 . S
H1954 C1962 0.930 . S
H1955 C1963 0.930 . S
H1956 C1966 0.930 . S
H1957 C1967 0.930 . S
C1958 H1952 0.930 . S
C1958 C1959 1.355 . S
C1958 C1960 1.415 . S
C1959 C1958 1.355 . S
C1959 C1961 1.419 . S
C1960 C1958 1.415 . S
C1960 C1965 1.425 . S
C1960 C1967 1.409 . S
C1961 H1953 0.930 . S
C1961 C1959 1.419 . S
C1961 C1962 1.362 . S
C1962 H1954 0.930 . S
C1962 C1961 1.362 . S
C1962 C1965 1.409 . S
C1963 H1955 0.930 . S
C1963 C1964 1.355 . S
C1963 C1965 1.415 . S
C1964 C1963 1.355 . S
C1964 C1966 1.419 . S
C1965 C1960 1.425 . S
C1965 C1962 1.409 . S
C1965 C1963 1.415 . S
C1966 H1956 0.930 . S
C1966 C1964 1.419 . S
C1966 C1967 1.362 . S
C1967 H1957 0.930 . S
C1967 C1960 1.409 . S
C1967 C1966 1.362 . S
H1968 C1974 0.930 . S
H1969 C1977 0.930 . S
H1970 C1978 0.930 . S
H1971 C1979 0.930 . S
H1972 C1982 0.930 . S
H1973 C1983 0.930 . S
C1974 H1968 0.930 . S
C1974 C1975 1.355 . S
C1974 C1976 1.415 . S
C1975 C1974 1.355 . S
C1975 C1977 1.419 . S
C1976 C1974 1.415 . S
C1976 C1981 1.425 . S
C1976 C1983 1.409 . S
C1977 H1969 0.930 . S
C1977 C1975 1.419 . S
C1977 C1978 1.362 . S
C1978 H1970 0.930 . S
C1978 C1977 1.362 . S
C1978 C1981 1.409 . S
C1979 H1971 0.930 . S
C1979 C1980 1.355 . S
C1979 C1981 1.415 . S
C1980 C1979 1.355 . S
C1980 C1982 1.419 . S
C1981 C1976 1.425 . S
C1981 C1978 1.409 . S
C1981 C1979 1.415 . S
C1982 H1972 0.930 . S
C1982 C1980 1.419 . S
C1982 C1983 1.362 . S
C1983 H1973 0.930 . S
C1983 C1976 1.409 . S
C1983 C1982 1.362 . S
H1984 C1990 0.930 1_565 S
H1985 C1993 0.930 . S
H1986 C1994 0.930 . S
H1987 C1995 0.930 1_545 S
H1988 C1998 0.930 . S
H1989 C1999 0.930 . S
C1990 H1984 0.930 1_545 S
C1990 C1991 1.355 . S
C1990 C1992 1.415 1_545 S
C1991 C1990 1.355 . S
C1991 C1993 1.419 . S
C1992 C1990 1.415 1_565 S
C1992 C1997 1.425 1_565 S
C1992 C1999 1.409 . S
C1993 H1985 0.930 . S
C1993 C1991 1.419 . S
C1993 C1994 1.362 . S
C1994 H1986 0.930 . S
C1994 C1993 1.362 . S
C1994 C1997 1.409 . S
C1995 H1987 0.930 1_565 S
C1995 C1996 1.355 . S
C1995 C1997 1.415 1_565 S
C1996 C1995 1.355 . S
C1996 C1998 1.419 . S
C1997 C1992 1.425 1_545 S
C1997 C1994 1.409 . S
C1997 C1995 1.415 1_545 S
C1998 H1988 0.930 . S
C1998 C1996 1.419 . S
C1998 C1999 1.362 . S
C1999 H1989 0.930 . S
C1999 C1992 1.409 . S
C1999 C1998 1.362 . S
H2000 C2006 0.930 1_655 S
H2001 C2009 0.930 . S
H2002 C2010 0.930 . S
H2003 C2011 0.930 1_455 S
H2004 C2014 0.930 . S
H2005 C2015 0.930 . S
C2006 H2000 0.930 1_455 S
C2006 C2007 1.355 . S
C2006 C2008 1.415 1_455 S
C2007 C2006 1.355 . S
C2007 C2009 1.419 . S
C2008 C2006 1.415 1_655 S
C2008 C2013 1.425 1_665 S
C2008 C2015 1.409 . S
C2009 H2001 0.930 . S
C2009 C2007 1.419 . S
C2009 C2010 1.362 1_565 S
C2010 H2002 0.930 . S
C2010 C2009 1.362 1_545 S
C2010 C2013 1.409 . S
C2011 H2003 0.930 1_655 S
C2011 C2012 1.355 . S
C2011 C2013 1.415 1_655 S
C2012 C2011 1.355 . S
C2012 C2014 1.419 . S
C2013 C2008 1.425 1_445 S
C2013 C2010 1.409 . S
C2013 C2011 1.415 1_455 S
C2014 H2004 0.930 . S
C2014 C2012 1.419 . S
C2014 C2015 1.362 1_545 S
C2015 H2005 0.930 . S
C2015 C2008 1.409 . S
C2015 C2014 1.362 1_565 S
H2016 C2022 0.930 . S
H2017 C2025 0.930 . S
H2018 C2026 0.942 . S
H2019 C2027 0.930 . S
H2020 C2030 0.930 . S
H2021 C2031 0.942 . S
C2022 H2016 0.930 . S
C2022 C2023 1.355 . S
C2022 C2024 1.415 . S
C2023 C2022 1.355 . S
C2023 C2025 1.419 . S
C2024 C2022 1.415 . S
C2024 C2029 1.425 1_565 S
C2024 C2031 1.409 1_565 S
C2025 H2017 0.930 . S
C2025 C2023 1.419 . S
C2025 C2026 1.362 . S
C2026 H2018 0.942 . S
C2026 C2025 1.362 . S
C2026 C2029 1.409 1_565 S
C2027 H2019 0.930 . S
C2027 C2028 1.355 . S
C2027 C2029 1.415 . S
C2028 C2027 1.355 . S
C2028 C2030 1.419 . S
C2029 C2024 1.425 1_545 S
C2029 C2026 1.409 1_545 S
C2029 C2027 1.415 . S
C2030 H2020 0.930 . S
C2030 C2028 1.419 . S
C2030 C2031 1.362 . S
C2031 H2021 0.942 . S
C2031 C2024 1.409 1_545 S
C2031 C2030 1.362 . S
H2032 C2038 0.930 . S
H2033 C2041 0.930 1_455 S
H2034 C2042 0.930 . S
H2035 C2043 0.930 . S
H2036 C2046 0.930 1_655 S
H2037 C2047 0.930 . S
C2038 H2032 0.930 . S
C2038 C2039 1.355 . S
C2038 C2040 1.390 1_565 S
C2039 C2038 1.355 . S
C2039 C2041 1.419 . S
C2040 C2038 1.390 1_545 S
C2040 C2045 1.422 1_645 S
C2040 C2047 1.438 . S
C2041 H2033 0.930 1_655 S
C2041 C2039 1.419 . S
C2041 C2042 1.362 1_655 S
C2042 H2034 0.930 . S
C2042 C2041 1.362 1_455 S
C2042 C2045 1.440 . S
C2043 H2035 0.930 . S
C2043 C2044 1.355 . S
C2043 C2045 1.389 1_545 S
C2044 C2043 1.355 . S
C2044 C2046 1.419 . S
C2045 C2040 1.422 1_465 S
C2045 C2042 1.440 . S
C2045 C2043 1.389 1_565 S
C2046 H2036 0.930 1_455 S
C2046 C2044 1.419 . S
C2046 C2047 1.362 1_455 S
C2047 H2037 0.930 . S
C2047 C2040 1.438 . S
C2047 C2046 1.362 1_655 S
H2048 C2054 0.930 . S
H2049 C2057 0.930 . S
H2050 C2058 0.930 . S
H2051 C2059 0.930 . S
H2052 C2062 0.930 . S
H2053 C2063 0.931 . S
C2054 H2048 0.930 . S
C2054 C2055 1.355 . S
C2054 C2056 1.415 1_455 S
C2055 C2054 1.355 . S
C2055 C2057 1.419 . S
C2056 C2054 1.415 1_655 S
C2056 C2061 1.425 . S
C2056 C2063 1.409 . S
C2057 H2049 0.930 . S
C2057 C2055 1.419 . S
C2057 C2058 1.362 1_455 S
C2058 H2050 0.930 . S
C2058 C2057 1.362 1_655 S
C2058 C2061 1.409 . S
C2059 H2051 0.930 . S
C2059 C2060 1.355 . S
C2059 C2061 1.415 . S
C2060 C2059 1.355 . S
C2060 C2062 1.419 . S
C2061 C2056 1.425 . S
C2061 C2058 1.409 . S
C2061 C2059 1.415 . S
C2062 H2052 0.930 . S
C2062 C2060 1.419 . S
C2062 C2063 1.362 . S
C2063 H2053 0.931 . S
C2063 C2056 1.409 . S
C2063 C2062 1.362 . S
H2064 C2070 0.930 . S
H2065 C2073 0.930 . S
H2066 C2074 0.930 . S
H2067 C2075 0.930 . S
H2068 C2078 0.930 . S
H2069 C2079 0.930 . S
C2070 H2064 0.930 . S
C2070 C2071 1.355 1_554 S
C2070 C2072 1.415 . S
C2071 C2070 1.355 1_556 S
C2071 C2073 1.419 . S
C2072 C2070 1.415 . S
C2072 C2077 1.425 . S
C2072 C2079 1.409 . S
C2073 H2065 0.930 . S
C2073 C2071 1.419 . S
C2073 C2074 1.362 . S
C2074 H2066 0.930 . S
C2074 C2073 1.362 . S
C2074 C2077 1.409 1_556 S
C2075 H2067 0.930 . S
C2075 C2076 1.355 . S
C2075 C2077 1.415 . S
C2076 C2075 1.355 . S
C2076 C2078 1.419 . S
C2077 C2072 1.425 . S
C2077 C2074 1.409 1_554 S
C2077 C2075 1.415 . S
C2078 H2068 0.930 . S
C2078 C2076 1.419 . S
C2078 C2079 1.362 . S
C2079 H2069 0.930 . S
C2079 C2072 1.409 . S
C2079 C2078 1.362 . S
H2080 C2086 0.930 . S
H2081 C2089 0.930 . S
H2082 C2090 0.930 . S
H2083 C2091 0.930 . S
H2084 C2094 0.930 . S
H2085 C2095 0.930 . S
C2086 H2080 0.930 . S
C2086 C2087 1.355 . S
C2086 C2088 1.415 . S
C2087 C2086 1.355 . S
C2087 C2089 1.419 . S
C2088 C2086 1.415 . S
C2088 C2093 1.425 . S
C2088 C2095 1.409 . S
C2089 H2081 0.930 . S
C2089 C2087 1.419 . S
C2089 C2090 1.362 . S
C2090 H2082 0.930 . S
C2090 C2089 1.362 . S
C2090 C2093 1.409 . S
C2091 H2083 0.930 . S
C2091 C2092 1.355 . S
C2091 C2093 1.415 . S
C2092 C2091 1.355 . S
C2092 C2094 1.419 . S
C2093 C2088 1.425 . S
C2093 C2090 1.409 . S
C2093 C2091 1.415 . S
C2094 H2084 0.930 . S
C2094 C2092 1.419 . S
C2094 C2095 1.362 . S
C2095 H2085 0.930 . S
C2095 C2088 1.409 . S
C2095 C2094 1.362 . S
H2096 C2102 0.930 . S
H2097 C2105 0.930 . S
H2098 C2106 0.930 . S
H2099 C2107 0.930 . S
H2100 C2110 0.930 . S
H2101 C2111 0.930 . S
C2102 H2096 0.930 . S
C2102 C2103 1.355 . S
C2102 C2104 1.415 . S
C2103 C2102 1.355 . S
C2103 C2105 1.419 . S
C2104 C2102 1.415 . S
C2104 C2109 1.425 . S
C2104 C2111 1.409 . S
C2105 H2097 0.930 . S
C2105 C2103 1.419 . S
C2105 C2106 1.362 . S
C2106 H2098 0.930 . S
C2106 C2105 1.362 . S
C2106 C2109 1.409 . S
C2107 H2099 0.930 . S
C2107 C2108 1.355 . S
C2107 C2109 1.415 . S
C2108 C2107 1.355 . S
C2108 C2110 1.419 . S
C2109 C2104 1.425 . S
C2109 C2106 1.409 . S
C2109 C2107 1.415 . S
C2110 H2100 0.930 . S
C2110 C2108 1.419 . S
C2110 C2111 1.362 . S
C2111 H2101 0.930 . S
C2111 C2104 1.409 . S
C2111 C2110 1.362 . S
H2112 C2118 0.930 . S
H2113 C2121 0.930 . S
H2114 C2122 0.930 . S
H2115 C2123 0.930 . S
H2116 C2126 0.930 . S
H2117 C2127 0.930 . S
C2118 H2112 0.930 . S
C2118 C2119 1.355 . S
C2118 C2120 1.415 . S
C2119 C2118 1.355 . S
C2119 C2121 1.419 . S
C2120 C2118 1.415 . S
C2120 C2125 1.425 1_655 S
C2120 C2127 1.409 1_554 S
C2121 H2113 0.930 . S
C2121 C2119 1.419 . S
C2121 C2122 1.362 1_655 S
C2122 H2114 0.930 . S
C2122 C2121 1.362 1_455 S
C2122 C2125 1.409 . S
C2123 H2115 0.930 . S
C2123 C2124 1.355 1_554 S
C2123 C2125 1.415 . S
C2124 C2123 1.355 1_556 S
C2124 C2126 1.419 1_455 S
C2125 C2120 1.425 1_455 S
C2125 C2122 1.409 . S
C2125 C2123 1.415 . S
C2126 H2116 0.930 . S
C2126 C2124 1.419 1_655 S
C2126 C2127 1.362 . S
C2127 H2117 0.930 . S
C2127 C2120 1.409 1_556 S
C2127 C2126 1.362 . S
H2128 C2134 0.930 . S
H2129 C2137 0.930 . S
H2130 C2138 0.930 . S
H2131 C2139 0.930 . S
H2132 C2142 0.930 . S
H2133 C2143 0.930 . S
C2134 H2128 0.930 . S
C2134 C2135 1.355 . S
C2134 C2136 1.415 . S
C2135 C2134 1.355 . S
C2135 C2137 1.419 . S
C2136 C2134 1.415 . S
C2136 C2141 1.425 . S
C2136 C2143 1.409 . S
C2137 H2129 0.930 . S
C2137 C2135 1.419 . S
C2137 C2138 1.362 . S
C2138 H2130 0.930 . S
C2138 C2137 1.362 . S
C2138 C2141 1.409 . S
C2139 H2131 0.930 . S
C2139 C2140 1.355 . S
C2139 C2141 1.415 . S
C2140 C2139 1.355 . S
C2140 C2142 1.419 . S
C2141 C2136 1.425 . S
C2141 C2138 1.409 . S
C2141 C2139 1.415 . S
C2142 H2132 0.930 . S
C2142 C2140 1.419 . S
C2142 C2143 1.362 . S
C2143 H2133 0.930 . S
C2143 C2136 1.409 . S
C2143 C2142 1.362 . S
H2144 C2150 0.930 . S
H2145 C2153 0.930 . S
H2146 C2154 0.930 . S
H2147 C2155 0.930 . S
H2148 C2158 0.930 . S
H2149 C2159 0.930 . S
C2150 H2144 0.930 . S
C2150 C2151 1.355 . S
C2150 C2152 1.415 . S
C2151 C2150 1.355 . S
C2151 C2153 1.419 . S
C2152 C2150 1.415 . S
C2152 C2157 1.425 . S
C2152 C2159 1.409 . S
C2153 H2145 0.930 . S
C2153 C2151 1.419 . S
C2153 C2154 1.362 . S
C2154 H2146 0.930 . S
C2154 C2153 1.362 . S
C2154 C2157 1.409 . S
C2155 H2147 0.930 . S
C2155 C2156 1.355 . S
C2155 C2157 1.415 . S
C2156 C2155 1.355 . S
C2156 C2158 1.419 . S
C2157 C2152 1.425 . S
C2157 C2154 1.409 . S
C2157 C2155 1.415 . S
C2158 H2148 0.930 . S
C2158 C2156 1.419 . S
C2158 C2159 1.362 . S
C2159 H2149 0.930 . S
C2159 C2152 1.409 . S
C2159 C2158 1.362 . S
H2160 C2166 0.930 . S
H2161 C2169 0.930 . S
H2162 C2170 0.930 . S
H2163 C2171 0.930 . S
H2164 C2174 0.930 . S
H2165 C2175 0.930 . S
C2166 H2160 0.930 . S
C2166 C2167 1.355 . S
C2166 C2168 1.415 . S
C2167 C2166 1.355 . S
C2167 C2169 1.419 . S
C2168 C2166 1.415 . S
C2168 C2173 1.425 . S
C2168 C2175 1.409 . S
C2169 H2161 0.930 . S
C2169 C2167 1.419 . S
C2169 C2170 1.362 . S
C2170 H2162 0.930 . S
C2170 C2169 1.362 . S
C2170 C2173 1.409 . S
C2171 H2163 0.930 . S
C2171 C2172 1.355 . S
C2171 C2173 1.415 . S
C2172 C2171 1.355 . S
C2172 C2174 1.419 . S
C2173 C2168 1.425 . S
C2173 C2170 1.409 . S
C2173 C2171 1.415 . S
C2174 H2164 0.930 . S
C2174 C2172 1.419 . S
C2174 C2175 1.362 . S
C2175 H2165 0.930 . S
C2175 C2168 1.409 . S
C2175 C2174 1.362 . S
H2176 C2182 0.930 . S
H2177 C2185 0.930 . S
H2178 C2186 0.930 . S
H2179 C2187 0.930 . S
H2180 C2190 0.930 . S
H2181 C2191 0.930 . S
C2182 H2176 0.930 . S
C2182 C2183 1.355 . S
C2182 C2184 1.415 . S
C2183 C2182 1.355 . S
C2183 C2185 1.419 . S
C2184 C2182 1.415 . S
C2184 C2189 1.425 . S
C2184 C2191 1.409 1_455 S
C2185 H2177 0.930 . S
C2185 C2183 1.419 . S
C2185 C2186 1.362 . S
C2186 H2178 0.930 . S
C2186 C2185 1.362 . S
C2186 C2189 1.409 . S
C2187 H2179 0.930 . S
C2187 C2188 1.355 1_455 S
C2187 C2189 1.415 . S
C2188 C2187 1.355 1_655 S
C2188 C2190 1.419 . S
C2189 C2184 1.425 . S
C2189 C2186 1.409 . S
C2189 C2187 1.415 . S
C2190 H2180 0.930 . S
C2190 C2188 1.419 . S
C2190 C2191 1.362 . S
C2191 H2181 0.930 . S
C2191 C2184 1.409 1_655 S
C2191 C2190 1.362 . S
H2192 C2198 0.930 . S
H2193 C2201 0.930 . S
H2194 C2202 0.930 . S
H2195 C2203 0.930 . S
H2196 C2206 0.930 . S
H2197 C2207 0.930 . S
C2198 H2192 0.930 . S
C2198 C2199 1.355 . S
C2198 C2200 1.415 . S
C2199 C2198 1.355 . S
C2199 C2201 1.419 . S
C2200 C2198 1.415 . S
C2200 C2205 1.425 . S
C2200 C2207 1.409 . S
C2201 H2193 0.930 . S
C2201 C2199 1.419 . S
C2201 C2202 1.362 . S
C2202 H2194 0.930 . S
C2202 C2201 1.362 . S
C2202 C2205 1.409 . S
C2203 H2195 0.930 . S
C2203 C2204 1.355 . S
C2203 C2205 1.415 . S
C2204 C2203 1.355 . S
C2204 C2206 1.419 . S
C2205 C2200 1.425 . S
C2205 C2202 1.409 . S
C2205 C2203 1.415 . S
C2206 H2196 0.930 . S
C2206 C2204 1.419 . S
C2206 C2207 1.362 . S
C2207 H2197 0.930 . S
C2207 C2200 1.409 . S
C2207 C2206 1.362 . S
H2208 C2214 0.930 . S
H2209 C2217 0.930 . S
H2210 C2218 0.930 . S
H2211 C2219 0.931 . S
H2212 C2222 0.930 . S
H2213 C2223 0.930 . S
C2214 H2208 0.930 . S
C2214 C2215 1.355 . S
C2214 C2216 1.415 . S
C2215 C2214 1.355 . S
C2215 C2217 1.419 . S
C2216 C2214 1.415 . S
C2216 C2221 1.425 . S
C2216 C2223 1.409 1_554 S
C2217 H2209 0.930 . S
C2217 C2215 1.419 . S
C2217 C2218 1.362 . S
C2218 H2210 0.930 . S
C2218 C2217 1.362 . S
C2218 C2221 1.409 . S
C2219 H2211 0.931 . S
C2219 C2220 1.348 1_554 S
C2219 C2221 1.420 . S
C2220 C2219 1.348 1_556 S
C2220 C2222 1.419 . S
C2221 C2216 1.425 . S
C2221 C2218 1.409 . S
C2221 C2219 1.420 . S
C2222 H2212 0.930 . S
C2222 C2220 1.419 . S
C2222 C2223 1.362 . S
C2223 H2213 0.930 . S
C2223 C2216 1.409 1_556 S
C2223 C2222 1.362 . S
H2224 C2230 0.930 . S
H2225 C2233 0.930 . S
H2226 C2234 0.930 . S
H2227 C2235 0.930 . S
H2228 C2238 0.930 . S
H2229 C2239 0.930 . S
C2230 H2224 0.930 . S
C2230 C2231 1.355 . S
C2230 C2232 1.415 . S
C2231 C2230 1.355 . S
C2231 C2233 1.419 . S
C2232 C2230 1.415 . S
C2232 C2237 1.425 . S
C2232 C2239 1.409 . S
C2233 H2225 0.930 . S
C2233 C2231 1.419 . S
C2233 C2234 1.362 . S
C2234 H2226 0.930 . S
C2234 C2233 1.362 . S
C2234 C2237 1.409 . S
C2235 H2227 0.930 . S
C2235 C2236 1.355 . S
C2235 C2237 1.415 . S
C2236 C2235 1.355 . S
C2236 C2238 1.419 . S
C2237 C2232 1.425 . S
C2237 C2234 1.409 . S
C2237 C2235 1.415 . S
C2238 H2228 0.930 . S
C2238 C2236 1.419 . S
C2238 C2239 1.362 . S
C2239 H2229 0.930 . S
C2239 C2232 1.409 . S
C2239 C2238 1.362 . S
H2240 C2246 0.930 . S
H2241 C2249 0.930 . S
H2242 C2250 0.930 . S
H2243 C2251 0.930 . S
H2244 C2254 0.930 . S
H2245 C2255 0.930 . S
C2246 H2240 0.930 . S
C2246 C2247 1.355 . S
C2246 C2248 1.415 . S
C2247 C2246 1.355 . S
C2247 C2249 1.419 . S
C2248 C2246 1.415 . S
C2248 C2253 1.425 . S
C2248 C2255 1.409 1_455 S
C2249 H2241 0.930 . S
C2249 C2247 1.419 . S
C2249 C2250 1.362 . S
C2250 H2242 0.930 . S
C2250 C2249 1.362 . S
C2250 C2253 1.409 . S
C2251 H2243 0.930 . S
C2251 C2252 1.355 1_455 S
C2251 C2253 1.415 . S
C2252 C2251 1.355 1_655 S
C2252 C2254 1.419 . S
C2253 C2248 1.425 . S
C2253 C2250 1.409 . S
C2253 C2251 1.415 . S
C2254 H2244 0.930 . S
C2254 C2252 1.419 . S
C2254 C2255 1.362 . S
C2255 H2245 0.930 . S
C2255 C2248 1.409 1_655 S
C2255 C2254 1.362 . S
H2256 C2262 0.930 1_556 S
H2257 C2265 0.921 1_556 S
H2258 C2266 0.930 . S
H2259 C2267 0.930 . S
H2260 C2270 0.930 . S
H2261 C2271 0.930 . S
C2262 H2256 0.930 1_554 S
C2262 C2263 1.355 1_554 S
C2262 C2264 1.415 . S
C2263 C2262 1.355 1_556 S
C2263 C2265 1.419 1_556 S
C2264 C2262 1.415 . S
C2264 C2269 1.425 . S
C2264 C2271 1.409 . S
C2265 H2257 0.921 1_554 S
C2265 C2263 1.419 1_554 S
C2265 C2266 1.362 . S
C2266 H2258 0.930 . S
C2266 C2265 1.362 . S
C2266 C2269 1.409 . S
C2267 H2259 0.930 . S
C2267 C2268 1.355 . S
C2267 C2269 1.415 . S
C2268 C2267 1.355 . S
C2268 C2270 1.419 . S
C2269 C2264 1.425 . S
C2269 C2266 1.409 . S
C2269 C2267 1.415 . S
C2270 H2260 0.930 . S
C2270 C2268 1.419 . S
C2270 C2271 1.362 . S
C2271 H2261 0.930 . S
C2271 C2264 1.409 . S
C2271 C2270 1.362 . S
H2272 C2278 0.930 . S
H2273 C2281 0.930 . S
H2274 C2282 0.930 . S
H2275 C2283 0.930 . S
H2276 C2286 0.930 . S
H2277 C2287 0.930 . S
C2278 H2272 0.930 . S
C2278 C2279 1.355 . S
C2278 C2280 1.415 . S
C2279 C2278 1.355 . S
C2279 C2281 1.419 . S
C2280 C2278 1.415 . S
C2280 C2285 1.425 . S
C2280 C2287 1.409 . S
C2281 H2273 0.930 . S
C2281 C2279 1.419 . S
C2281 C2282 1.362 . S
C2282 H2274 0.930 . S
C2282 C2281 1.362 . S
C2282 C2285 1.409 . S
C2283 H2275 0.930 . S
C2283 C2284 1.355 . S
C2283 C2285 1.415 . S
C2284 C2283 1.355 . S
C2284 C2286 1.419 . S
C2285 C2280 1.425 . S
C2285 C2282 1.409 . S
C2285 C2283 1.415 . S
C2286 H2276 0.930 . S
C2286 C2284 1.419 . S
C2286 C2287 1.362 . S
C2287 H2277 0.930 . S
C2287 C2280 1.409 . S
C2287 C2286 1.362 . S
H2288 C2294 0.930 . S
H2289 C2297 0.930 . S
H2290 C2298 0.930 . S
H2291 C2299 0.930 . S
H2292 C2302 0.930 . S
H2293 C2303 0.930 . S
C2294 H2288 0.930 . S
C2294 C2295 1.355 . S
C2294 C2296 1.415 . S
C2295 C2294 1.355 . S
C2295 C2297 1.419 . S
C2296 C2294 1.415 . S
C2296 C2301 1.425 . S
C2296 C2303 1.409 . S
C2297 H2289 0.930 . S
C2297 C2295 1.419 . S
C2297 C2298 1.362 . S
C2298 H2290 0.930 . S
C2298 C2297 1.362 . S
C2298 C2301 1.409 . S
C2299 H2291 0.930 . S
C2299 C2300 1.355 . S
C2299 C2301 1.415 . S
C2300 C2299 1.355 . S
C2300 C2302 1.419 . S
C2301 C2296 1.425 . S
C2301 C2298 1.409 . S
C2301 C2299 1.415 . S
C2302 H2292 0.930 . S
C2302 C2300 1.419 . S
C2302 C2303 1.362 . S
C2303 H2293 0.930 . S
C2303 C2296 1.409 . S
C2303 C2302 1.362 . S
H2304 C2310 0.930 . S
H2305 C2313 0.930 . S
H2306 C2314 0.930 . S
H2307 C2315 0.930 . S
H2308 C2318 0.930 . S
H2309 C2319 0.930 . S
C2310 H2304 0.930 . S
C2310 C2311 1.355 . S
C2310 C2312 1.415 . S
C2311 C2310 1.355 . S
C2311 C2313 1.419 . S
C2312 C2310 1.415 . S
C2312 C2317 1.425 . S
C2312 C2319 1.409 . S
C2313 H2305 0.930 . S
C2313 C2311 1.419 . S
C2313 C2314 1.362 . S
C2314 H2306 0.930 . S
C2314 C2313 1.362 . S
C2314 C2317 1.409 . S
C2315 H2307 0.930 . S
C2315 C2316 1.355 . S
C2315 C2317 1.415 . S
C2316 C2315 1.355 . S
C2316 C2318 1.419 . S
C2317 C2312 1.425 . S
C2317 C2314 1.409 . S
C2317 C2315 1.415 . S
C2318 H2308 0.930 . S
C2318 C2316 1.419 . S
C2318 C2319 1.362 . S
C2319 H2309 0.930 . S
C2319 C2312 1.409 . S
C2319 C2318 1.362 . S
H2320 C2326 0.930 . S
H2321 C2329 0.930 . S
H2322 C2330 0.930 . S
H2323 C2331 0.930 . S
H2324 C2334 0.930 . S
H2325 C2335 0.930 . S
C2326 H2320 0.930 . S
C2326 C2327 1.355 . S
C2326 C2328 1.415 . S
C2327 C2326 1.355 . S
C2327 C2329 1.419 . S
C2328 C2326 1.415 . S
C2328 C2333 1.425 . S
C2328 C2335 1.409 . S
C2329 H2321 0.930 . S
C2329 C2327 1.419 . S
C2329 C2330 1.362 . S
C2330 H2322 0.930 . S
C2330 C2329 1.362 . S
C2330 C2333 1.409 . S
C2331 H2323 0.930 . S
C2331 C2332 1.355 . S
C2331 C2333 1.415 . S
C2332 C2331 1.355 . S
C2332 C2334 1.419 . S
C2333 C2328 1.425 . S
C2333 C2330 1.409 . S
C2333 C2331 1.415 . S
C2334 H2324 0.930 . S
C2334 C2332 1.419 . S
C2334 C2335 1.362 . S
C2335 H2325 0.930 . S
C2335 C2328 1.409 . S
C2335 C2334 1.362 . S
H2336 C2342 0.930 . S
H2337 C2345 0.930 . S
H2338 C2346 0.930 . S
H2339 C2347 0.930 . S
H2340 C2350 0.930 . S
H2341 C2351 0.930 . S
C2342 H2336 0.930 . S
C2342 C2343 1.355 . S
C2342 C2344 1.415 1_655 S
C2343 C2342 1.355 . S
C2343 C2345 1.419 . S
C2344 C2342 1.415 1_455 S
C2344 C2349 1.425 . S
C2344 C2351 1.409 . S
C2345 H2337 0.930 . S
C2345 C2343 1.419 . S
C2345 C2346 1.362 . S
C2346 H2338 0.930 . S
C2346 C2345 1.362 . S
C2346 C2349 1.409 1_655 S
C2347 H2339 0.930 . S
C2347 C2348 1.355 . S
C2347 C2349 1.415 . S
C2348 C2347 1.355 . S
C2348 C2350 1.419 . S
C2349 C2344 1.425 . S
C2349 C2346 1.409 1_455 S
C2349 C2347 1.415 . S
C2350 H2340 0.930 . S
C2350 C2348 1.419 . S
C2350 C2351 1.362 . S
C2351 H2341 0.930 . S
C2351 C2344 1.409 . S
C2351 C2350 1.362 . S
H2352 C2358 0.930 . S
H2353 C2361 0.930 . S
H2354 C2362 0.930 . S
H2355 C2363 0.930 . S
H2356 C2366 0.930 . S
H2357 C2367 0.930 . S
C2358 H2352 0.930 . S
C2358 C2359 1.355 . S
C2358 C2360 1.415 1_556 S
C2359 C2358 1.355 . S
C2359 C2361 1.419 1_556 S
C2360 C2358 1.415 1_554 S
C2360 C2365 1.425 . S
C2360 C2367 1.409 . S
C2361 H2353 0.930 . S
C2361 C2359 1.419 1_554 S
C2361 C2362 1.362 . S
C2362 H2354 0.930 . S
C2362 C2361 1.362 . S
C2362 C2365 1.409 . S
C2363 H2355 0.930 . S
C2363 C2364 1.355 . S
C2363 C2365 1.415 . S
C2364 C2363 1.355 . S
C2364 C2366 1.419 . S
C2365 C2360 1.425 . S
C2365 C2362 1.409 . S
C2365 C2363 1.415 . S
C2366 H2356 0.930 . S
C2366 C2364 1.419 . S
C2366 C2367 1.362 . S
C2367 H2357 0.930 . S
C2367 C2360 1.409 . S
C2367 C2366 1.362 . S
H2368 C2374 0.930 . S
H2369 C2377 0.930 . S
H2370 C2378 0.930 . S
H2371 C2379 0.930 . S
H2372 C2382 0.930 . S
H2373 C2383 0.930 . S
C2374 H2368 0.930 . S
C2374 C2375 1.355 . S
C2374 C2376 1.415 . S
C2375 C2374 1.355 . S
C2375 C2377 1.419 . S
C2376 C2374 1.415 . S
C2376 C2381 1.425 . S
C2376 C2383 1.409 . S
C2377 H2369 0.930 . S
C2377 C2375 1.419 . S
C2377 C2378 1.362 . S
C2378 H2370 0.930 . S
C2378 C2377 1.362 . S
C2378 C2381 1.409 . S
C2379 H2371 0.930 . S
C2379 C2380 1.355 . S
C2379 C2381 1.415 . S
C2380 C2379 1.355 . S
C2380 C2382 1.419 . S
C2381 C2376 1.425 . S
C2381 C2378 1.409 . S
C2381 C2379 1.415 . S
C2382 H2372 0.930 . S
C2382 C2380 1.419 . S
C2382 C2383 1.362 . S
C2383 H2373 0.930 . S
C2383 C2376 1.409 . S
C2383 C2382 1.362 . S
H2384 C2390 0.930 . S
H2385 C2393 0.930 . S
H2386 C2394 0.930 . S
H2387 C2395 0.930 . S
H2388 C2398 0.930 . S
H2389 C2399 0.930 . S
C2390 H2384 0.930 . S
C2390 C2391 1.355 . S
C2390 C2392 1.415 . S
C2391 C2390 1.355 . S
C2391 C2393 1.419 . S
C2392 C2390 1.415 . S
C2392 C2397 1.425 . S
C2392 C2399 1.409 . S
C2393 H2385 0.930 . S
C2393 C2391 1.419 . S
C2393 C2394 1.362 . S
C2394 H2386 0.930 . S
C2394 C2393 1.362 . S
C2394 C2397 1.409 . S
C2395 H2387 0.930 . S
C2395 C2396 1.355 . S
C2395 C2397 1.415 . S
C2396 C2395 1.355 . S
C2396 C2398 1.419 . S
C2397 C2392 1.425 . S
C2397 C2394 1.409 . S
C2397 C2395 1.415 . S
C2398 H2388 0.930 . S
C2398 C2396 1.419 . S
C2398 C2399 1.362 . S
C2399 H2389 0.930 . S
C2399 C2392 1.409 . S
C2399 C2398 1.362 . S
H2400 C2406 0.930 . S
H2401 C2409 0.930 . S
H2402 C2410 0.930 1_556 S
H2403 C2411 0.930 . S
H2404 C2414 0.930 . S
H2405 C2415 0.930 . S
C2406 H2400 0.930 . S
C2406 C2407 1.355 . S
C2406 C2408 1.415 . S
C2407 C2406 1.355 . S
C2407 C2409 1.419 . S
C2408 C2406 1.415 . S
C2408 C2413 1.425 . S
C2408 C2415 1.409 1_455 S
C2409 H2401 0.930 . S
C2409 C2407 1.419 . S
C2409 C2410 1.362 . S
C2410 H2402 0.930 1_554 S
C2410 C2409 1.362 . S
C2410 C2413 1.409 . S
C2411 H2403 0.930 . S
C2411 C2412 1.355 1_455 S
C2411 C2413 1.415 1_556 S
C2412 C2411 1.355 1_655 S
C2412 C2414 1.419 1_556 S
C2413 C2408 1.425 . S
C2413 C2410 1.409 . S
C2413 C2411 1.415 1_554 S
C2414 H2404 0.930 . S
C2414 C2412 1.419 1_554 S
C2414 C2415 1.362 . S
C2415 H2405 0.930 . S
C2415 C2408 1.409 1_655 S
C2415 C2414 1.362 . S
H2416 C2422 0.930 . S
H2417 C2425 0.930 . S
H2418 C2426 0.930 . S
H2419 C2427 0.930 . S
H2420 C2430 0.930 . S
H2421 C2431 0.930 . S
C2422 H2416 0.930 . S
C2422 C2423 1.355 . S
C2422 C2424 1.415 . S
C2423 C2422 1.355 . S
C2423 C2425 1.419 . S
C2424 C2422 1.415 . S
C2424 C2429 1.425 . S
C2424 C2431 1.409 . S
C2425 H2417 0.930 . S
C2425 C2423 1.419 . S
C2425 C2426 1.362 . S
C2426 H2418 0.930 . S
C2426 C2425 1.362 . S
C2426 C2429 1.409 . S
C2427 H2419 0.930 . S
C2427 C2428 1.355 . S
C2427 C2429 1.415 . S
C2428 C2427 1.355 . S
C2428 C2430 1.419 . S
C2429 C2424 1.425 . S
C2429 C2426 1.409 . S
C2429 C2427 1.415 . S
C2430 H2420 0.930 . S
C2430 C2428 1.419 . S
C2430 C2431 1.362 . S
C2431 H2421 0.930 . S
C2431 C2424 1.409 . S
C2431 C2430 1.362 . S
H2432 C2438 0.930 . S
H2433 C2441 0.930 . S
H2434 C2442 0.931 . S
H2435 C2443 0.930 . S
H2436 C2446 0.930 . S
H2437 C2447 0.930 . S
C2438 H2432 0.930 . S
C2438 C2439 1.355 . S
C2438 C2440 1.415 1_556 S
C2439 C2438 1.355 . S
C2439 C2441 1.419 . S
C2440 C2438 1.415 1_554 S
C2440 C2445 1.425 . S
C2440 C2447 1.409 . S
C2441 H2433 0.930 . S
C2441 C2439 1.419 . S
C2441 C2442 1.355 1_556 S
C2442 H2434 0.931 . S
C2442 C2441 1.355 1_554 S
C2442 C2445 1.416 . S
C2443 H2435 0.930 . S
C2443 C2444 1.355 . S
C2443 C2445 1.415 . S
C2444 C2443 1.355 . S
C2444 C2446 1.419 . S
C2445 C2440 1.425 . S
C2445 C2442 1.416 . S
C2445 C2443 1.415 . S
C2446 H2436 0.930 . S
C2446 C2444 1.419 . S
C2446 C2447 1.362 . S
C2447 H2437 0.930 . S
C2447 C2440 1.409 . S
C2447 C2446 1.362 . S
H2448 C2454 0.930 . S
H2449 C2457 0.930 . S
H2450 C2458 0.930 . S
H2451 C2459 0.930 . S
H2452 C2462 0.930 . S
H2453 C2463 0.930 . S
C2454 H2448 0.930 . S
C2454 C2455 1.355 . S
C2454 C2456 1.415 . S
C2455 C2454 1.355 . S
C2455 C2457 1.419 . S
C2456 C2454 1.415 . S
C2456 C2461 1.425 . S
C2456 C2463 1.409 . S
C2457 H2449 0.930 . S
C2457 C2455 1.419 . S
C2457 C2458 1.362 . S
C2458 H2450 0.930 . S
C2458 C2457 1.362 . S
C2458 C2461 1.409 . S
C2459 H2451 0.930 . S
C2459 C2460 1.355 . S
C2459 C2461 1.415 . S
C2460 C2459 1.355 . S
C2460 C2462 1.419 . S
C2461 C2456 1.425 . S
C2461 C2458 1.409 . S
C2461 C2459 1.415 . S
C2462 H2452 0.930 . S
C2462 C2460 1.419 . S
C2462 C2463 1.362 . S
C2463 H2453 0.930 . S
C2463 C2456 1.409 . S
C2463 C2462 1.362 . S
H2464 C2470 0.930 . S
H2465 C2473 0.930 . S
H2466 C2474 0.930 . S
H2467 C2475 0.930 . S
H2468 C2478 0.930 . S
H2469 C2479 0.911 1_455 S
C2470 H2464 0.930 . S
C2470 C2471 1.355 . S
C2470 C2472 1.415 1_455 S
C2471 C2470 1.355 . S
C2471 C2473 1.419 . S
C2472 C2470 1.415 1_655 S
C2472 C2477 1.425 . S
C2472 C2479 1.409 . S
C2473 H2465 0.930 . S
C2473 C2471 1.419 . S
C2473 C2474 1.362 1_455 S
C2474 H2466 0.930 . S
C2474 C2473 1.362 1_655 S
C2474 C2477 1.409 . S
C2475 H2467 0.930 . S
C2475 C2476 1.355 . S
C2475 C2477 1.415 . S
C2476 C2475 1.355 . S
C2476 C2478 1.419 . S
C2477 C2472 1.425 . S
C2477 C2474 1.409 . S
C2477 C2475 1.415 . S
C2478 H2468 0.930 . S
C2478 C2476 1.419 . S
C2478 C2479 1.362 . S
C2479 H2469 0.911 1_655 S
C2479 C2472 1.409 . S
C2479 C2478 1.362 . S
H2480 C2486 0.930 . S
H2481 C2489 0.930 . S
H2482 C2490 0.930 . S
H2483 C2491 0.930 . S
H2484 C2494 0.930 . S
H2485 C2495 0.930 . S
C2486 H2480 0.930 . S
C2486 C2487 1.355 . S
C2486 C2488 1.415 . S
C2487 C2486 1.355 . S
C2487 C2489 1.419 . S
C2488 C2486 1.415 . S
C2488 C2493 1.425 . S
C2488 C2495 1.409 . S
C2489 H2481 0.930 . S
C2489 C2487 1.419 . S
C2489 C2490 1.362 . S
C2490 H2482 0.930 . S
C2490 C2489 1.362 . S
C2490 C2493 1.409 . S
C2491 H2483 0.930 . S
C2491 C2492 1.355 . S
C2491 C2493 1.415 . S
C2492 C2491 1.355 . S
C2492 C2494 1.419 . S
C2493 C2488 1.425 . S
C2493 C2490 1.409 . S
C2493 C2491 1.415 . S
C2494 H2484 0.930 . S
C2494 C2492 1.419 . S
C2494 C2495 1.362 . S
C2495 H2485 0.930 . S
C2495 C2488 1.409 . S
C2495 C2494 1.362 . S
H2496 C2502 0.930 . S
H2497 C2505 0.930 . S
H2498 C2506 0.930 . S
H2499 C2507 0.930 . S
H2500 C2510 0.930 . S
H2501 C2511 0.930 . S
C2502 H2496 0.930 . S
C2502 C2503 1.355 . S
C2502 C2504 1.415 . S
C2503 C2502 1.355 . S
C2503 C2505 1.419 . S
C2504 C2502 1.415 . S
C2504 C2509 1.425 . S
C2504 C2511 1.409 . S
C2505 H2497 0.930 . S
C2505 C2503 1.419 . S
C2505 C2506 1.362 . S
C2506 H2498 0.930 . S
C2506 C2505 1.362 . S
C2506 C2509 1.409 . S
C2507 H2499 0.930 . S
C2507 C2508 1.355 . S
C2507 C2509 1.415 . S
C2508 C2507 1.355 . S
C2508 C2510 1.419 . S
C2509 C2504 1.425 . S
C2509 C2506 1.409 . S
C2509 C2507 1.415 . S
C2510 H2500 0.930 . S
C2510 C2508 1.419 . S
C2510 C2511 1.362 . S
C2511 H2501 0.930 . S
C2511 C2504 1.409 . S
C2511 C2510 1.362 . S
H2512 C2518 0.930 . S
H2513 C2521 0.930 . S
H2514 C2522 0.930 . S
H2515 C2523 0.930 . S
H2516 C2526 0.930 . S
H2517 C2527 0.930 . S
C2518 H2512 0.930 . S
C2518 C2519 1.355 . S
C2518 C2520 1.415 . S
C2519 C2518 1.355 . S
C2519 C2521 1.419 . S
C2520 C2518 1.415 . S
C2520 C2525 1.425 . S
C2520 C2527 1.409 . S
C2521 H2513 0.930 . S
C2521 C2519 1.419 . S
C2521 C2522 1.362 . S
C2522 H2514 0.930 . S
C2522 C2521 1.362 . S
C2522 C2525 1.409 . S
C2523 H2515 0.930 . S
C2523 C2524 1.355 . S
C2523 C2525 1.415 . S
C2524 C2523 1.355 . S
C2524 C2526 1.419 . S
C2525 C2520 1.425 . S
C2525 C2522 1.409 . S
C2525 C2523 1.415 . S
C2526 H2516 0.930 . S
C2526 C2524 1.419 . S
C2526 C2527 1.362 . S
C2527 H2517 0.930 . S
C2527 C2520 1.409 . S
C2527 C2526 1.362 . S
H2528 C2534 0.930 . S
H2529 C2537 0.930 . S
H2530 C2538 0.930 . S
H2531 C2539 0.930 . S
H2532 C2542 0.930 . S
H2533 C2543 0.930 . S
C2534 H2528 0.930 . S
C2534 C2535 1.355 . S
C2534 C2536 1.415 1_455 S
C2535 C2534 1.355 . S
C2535 C2537 1.419 . S
C2536 C2534 1.415 1_655 S
C2536 C2541 1.425 . S
C2536 C2543 1.409 . S
C2537 H2529 0.930 . S
C2537 C2535 1.419 . S
C2537 C2538 1.362 . S
C2538 H2530 0.930 . S
C2538 C2537 1.362 . S
C2538 C2541 1.409 1_455 S
C2539 H2531 0.930 . S
C2539 C2540 1.355 . S
C2539 C2541 1.415 . S
C2540 C2539 1.355 . S
C2540 C2542 1.419 . S
C2541 C2536 1.425 . S
C2541 C2538 1.409 1_655 S
C2541 C2539 1.415 . S
C2542 H2532 0.930 . S
C2542 C2540 1.419 . S
C2542 C2543 1.362 . S
C2543 H2533 0.930 . S
C2543 C2536 1.409 . S
C2543 C2542 1.362 . S
H2544 C2550 0.930 . S
H2545 C2553 0.930 . S
H2546 C2554 0.930 . S
H2547 C2555 0.930 . S
H2548 C2558 0.930 . S
H2549 C2559 0.930 . S
C2550 H2544 0.930 . S
C2550 C2551 1.355 1_554 S
C2550 C2552 1.415 . S
C2551 C2550 1.355 1_556 S
C2551 C2553 1.419 . S
C2552 C2550 1.415 . S
C2552 C2557 1.425 . S
C2552 C2559 1.409 . S
C2553 H2545 0.930 . S
C2553 C2551 1.419 . S
C2553 C2554 1.362 . S
C2554 H2546 0.930 . S
C2554 C2553 1.362 . S
C2554 C2557 1.409 1_556 S
C2555 H2547 0.930 . S
C2555 C2556 1.355 . S
C2555 C2557 1.415 . S
C2556 C2555 1.355 . S
C2556 C2558 1.419 . S
C2557 C2552 1.425 . S
C2557 C2554 1.409 1_554 S
C2557 C2555 1.415 . S
C2558 H2548 0.930 . S
C2558 C2556 1.419 . S
C2558 C2559 1.362 . S
C2559 H2549 0.930 . S
C2559 C2552 1.409 . S
C2559 C2558 1.362 . S
H2560 C2566 0.930 . S
H2561 C2569 0.930 . S
H2562 C2570 0.930 . S
H2563 C2571 0.930 . S
H2564 C2574 0.930 . S
H2565 C2575 0.930 . S
C2566 H2560 0.930 . S
C2566 C2567 1.355 . S
C2566 C2568 1.415 . S
C2567 C2566 1.355 . S
C2567 C2569 1.419 . S
C2568 C2566 1.415 . S
C2568 C2573 1.425 . S
C2568 C2575 1.409 . S
C2569 H2561 0.930 . S
C2569 C2567 1.419 . S
C2569 C2570 1.362 . S
C2570 H2562 0.930 . S
C2570 C2569 1.362 . S
C2570 C2573 1.409 . S
C2571 H2563 0.930 . S
C2571 C2572 1.355 . S
C2571 C2573 1.415 . S
C2572 C2571 1.355 . S
C2572 C2574 1.419 . S
C2573 C2568 1.425 . S
C2573 C2570 1.409 . S
C2573 C2571 1.415 . S
C2574 H2564 0.930 . S
C2574 C2572 1.419 . S
C2574 C2575 1.362 . S
C2575 H2565 0.930 . S
C2575 C2568 1.409 . S
C2575 C2574 1.362 . S
H2576 C2582 0.930 . S
H2577 C2585 0.930 . S
H2578 C2586 0.930 . S
H2579 C2587 0.930 . S
H2580 C2590 0.930 . S
H2581 C2591 0.930 . S
C2582 H2576 0.930 . S
C2582 C2583 1.355 . S
C2582 C2584 1.415 . S
C2583 C2582 1.355 . S
C2583 C2585 1.419 . S
C2584 C2582 1.415 . S
C2584 C2589 1.425 . S
C2584 C2591 1.409 . S
C2585 H2577 0.930 . S
C2585 C2583 1.419 . S
C2585 C2586 1.362 . S
C2586 H2578 0.930 . S
C2586 C2585 1.362 . S
C2586 C2589 1.409 . S
C2587 H2579 0.930 . S
C2587 C2588 1.355 . S
C2587 C2589 1.415 . S
C2588 C2587 1.355 . S
C2588 C2590 1.419 . S
C2589 C2584 1.425 . S
C2589 C2586 1.409 . S
C2589 C2587 1.415 . S
C2590 H2580 0.930 . S
C2590 C2588 1.419 . S
C2590 C2591 1.362 . S
C2591 H2581 0.930 . S
C2591 C2584 1.409 . S
C2591 C2590 1.362 . S
H2592 C2598 0.930 . S
H2593 C2601 0.930 . S
H2594 C2602 0.930 . S
H2595 C2603 0.930 . S
H2596 C2606 0.930 . S
H2597 C2607 0.930 . S
C2598 H2592 0.930 . S
C2598 C2599 1.355 . S
C2598 C2600 1.415 . S
C2599 C2598 1.355 . S
C2599 C2601 1.419 . S
C2600 C2598 1.415 . S
C2600 C2605 1.425 . S
C2600 C2607 1.409 . S
C2601 H2593 0.930 . S
C2601 C2599 1.419 . S
C2601 C2602 1.362 . S
C2602 H2594 0.930 . S
C2602 C2601 1.362 . S
C2602 C2605 1.409 . S
C2603 H2595 0.930 . S
C2603 C2604 1.355 . S
C2603 C2605 1.415 . S
C2604 C2603 1.355 . S
C2604 C2606 1.419 . S
C2605 C2600 1.425 . S
C2605 C2602 1.409 . S
C2605 C2603 1.415 . S
C2606 H2596 0.930 . S
C2606 C2604 1.419 . S
C2606 C2607 1.362 . S
C2607 H2597 0.930 . S
C2607 C2600 1.409 . S
C2607 C2606 1.362 . S
H2608 C2614 0.930 . S
H2609 C2617 0.930 . S
H2610 C2618 0.930 . S
H2611 C2619 0.930 . S
H2612 C2622 0.930 . S
H2613 C2623 0.930 . S
C2614 H2608 0.930 . S
C2614 C2615 1.355 . S
C2614 C2616 1.415 . S
C2615 C2614 1.355 . S
C2615 C2617 1.419 . S
C2616 C2614 1.415 . S
C2616 C2621 1.425 . S
C2616 C2623 1.409 . S
C2617 H2609 0.930 . S
C2617 C2615 1.419 . S
C2617 C2618 1.362 . S
C2618 H2610 0.930 . S
C2618 C2617 1.362 . S
C2618 C2621 1.409 . S
C2619 H2611 0.930 . S
C2619 C2620 1.355 . S
C2619 C2621 1.415 . S
C2620 C2619 1.355 . S
C2620 C2622 1.419 . S
C2621 C2616 1.425 . S
C2621 C2618 1.409 . S
C2621 C2619 1.415 . S
C2622 H2612 0.930 . S
C2622 C2620 1.419 . S
C2622 C2623 1.362 . S
C2623 H2613 0.930 . S
C2623 C2616 1.409 . S
C2623 C2622 1.362 . S
H2624 C2630 0.930 . S
H2625 C2633 0.930 . S
H2626 C2634 0.930 . S
H2627 C2635 0.930 . S
H2628 C2638 0.930 . S
H2629 C2639 0.930 . S
C2630 H2624 0.930 . S
C2630 C2631 1.355 . S
C2630 C2632 1.415 . S
C2631 C2630 1.355 . S
C2631 C2633 1.419 . S
C2632 C2630 1.415 . S
C2632 C2637 1.425 . S
C2632 C2639 1.409 . S
C2633 H2625 0.930 . S
C2633 C2631 1.419 . S
C2633 C2634 1.362 . S
C2634 H2626 0.930 . S
C2634 C2633 1.362 . S
C2634 C2637 1.409 . S
C2635 H2627 0.930 . S
C2635 C2636 1.355 . S
C2635 C2637 1.415 . S
C2636 C2635 1.355 . S
C2636 C2638 1.419 . S
C2637 C2632 1.425 . S
C2637 C2634 1.409 . S
C2637 C2635 1.415 . S
C2638 H2628 0.930 . S
C2638 C2636 1.419 . S
C2638 C2639 1.362 . S
C2639 H2629 0.930 . S
C2639 C2632 1.409 . S
C2639 C2638 1.362 . S
H2640 C2646 0.930 . S
H2641 C2649 0.930 . S
H2642 C2650 0.930 . S
H2643 C2651 0.930 . S
H2644 C2654 0.930 . S
H2645 C2655 0.930 . S
C2646 H2640 0.930 . S
C2646 C2647 1.355 . S
C2646 C2648 1.415 . S
C2647 C2646 1.355 . S
C2647 C2649 1.419 . S
C2648 C2646 1.415 . S
C2648 C2653 1.425 . S
C2648 C2655 1.409 . S
C2649 H2641 0.930 . S
C2649 C2647 1.419 . S
C2649 C2650 1.362 . S
C2650 H2642 0.930 . S
C2650 C2649 1.362 . S
C2650 C2653 1.409 . S
C2651 H2643 0.930 . S
C2651 C2652 1.355 . S
C2651 C2653 1.415 . S
C2652 C2651 1.355 . S
C2652 C2654 1.419 . S
C2653 C2648 1.425 . S
C2653 C2650 1.409 . S
C2653 C2651 1.415 . S
C2654 H2644 0.930 . S
C2654 C2652 1.419 . S
C2654 C2655 1.362 . S
C2655 H2645 0.930 . S
C2655 C2648 1.409 . S
C2655 C2654 1.362 . S
H2656 C2662 0.930 . S
H2657 C2665 0.930 . S
H2658 C2666 0.930 . S
H2659 C2667 0.930 . S
H2660 C2670 0.930 1_554 S
H2661 C2671 0.930 . S
C2662 H2656 0.930 . S
C2662 C2663 1.355 . S
C2662 C2664 1.415 . S
C2663 C2662 1.355 . S
C2663 C2665 1.419 . S
C2664 C2662 1.415 . S
C2664 C2669 1.425 . S
C2664 C2671 1.409 . S
C2665 H2657 0.930 . S
C2665 C2663 1.419 . S
C2665 C2666 1.362 . S
C2666 H2658 0.930 . S
C2666 C2665 1.362 . S
C2666 C2669 1.409 . S
C2667 H2659 0.930 . S
C2667 C2668 1.355 . S
C2667 C2669 1.415 . S
C2668 C2667 1.355 . S
C2668 C2670 1.419 . S
C2669 C2664 1.425 . S
C2669 C2666 1.409 . S
C2669 C2667 1.415 . S
C2670 H2660 0.930 1_556 S
C2670 C2668 1.419 . S
C2670 C2671 1.362 . S
C2671 H2661 0.930 . S
C2671 C2664 1.409 . S
C2671 C2670 1.362 . S
H2672 C2678 0.930 . S
H2673 C2681 0.930 . S
H2674 C2682 0.930 . S
H2675 C2683 0.930 . S
H2676 C2686 0.930 . S
H2677 C2687 0.930 . S
C2678 H2672 0.930 . S
C2678 C2679 1.355 . S
C2678 C2680 1.415 . S
C2679 C2678 1.355 . S
C2679 C2681 1.419 . S
C2680 C2678 1.415 . S
C2680 C2685 1.425 . S
C2680 C2687 1.409 . S
C2681 H2673 0.930 . S
C2681 C2679 1.419 . S
C2681 C2682 1.362 . S
C2682 H2674 0.930 . S
C2682 C2681 1.362 . S
C2682 C2685 1.409 . S
C2683 H2675 0.930 . S
C2683 C2684 1.355 . S
C2683 C2685 1.415 . S
C2684 C2683 1.355 . S
C2684 C2686 1.419 . S
C2685 C2680 1.425 . S
C2685 C2682 1.409 . S
C2685 C2683 1.415 . S
C2686 H2676 0.930 . S
C2686 C2684 1.419 . S
C2686 C2687 1.362 . S
C2687 H2677 0.930 . S
C2687 C2680 1.409 . S
C2687 C2686 1.362 . S
H2688 C2694 0.930 . S
H2689 C2697 0.930 . S
H2690 C2698 0.930 . S
H2691 C2699 0.930 . S
H2692 C2702 0.930 . S
H2693 C2703 0.930 . S
C2694 H2688 0.930 . S
C2694 C2695 1.355 . S
C2694 C2696 1.415 . S
C2695 C2694 1.355 . S
C2695 C2697 1.419 . S
C2696 C2694 1.415 . S
C2696 C2701 1.425 1_565 S
C2696 C2703 1.409 1_565 S
C2697 H2689 0.930 . S
C2697 C2695 1.419 . S
C2697 C2698 1.362 . S
C2698 H2690 0.930 . S
C2698 C2697 1.362 . S
C2698 C2701 1.408 1_565 S
C2699 H2691 0.930 . S
C2699 C2700 1.355 . S
C2699 C2701 1.415 . S
C2700 C2699 1.355 . S
C2700 C2702 1.419 . S
C2701 C2696 1.425 1_545 S
C2701 C2698 1.408 1_545 S
C2701 C2699 1.415 . S
C2702 H2692 0.930 . S
C2702 C2700 1.419 . S
C2702 C2703 1.362 . S
C2703 H2693 0.930 . S
C2703 C2696 1.409 1_545 S
C2703 C2702 1.362 . S
H2704 C2710 0.930 . S
H2705 C2713 0.930 . S
H2706 C2714 0.930 . S
H2707 C2715 0.930 . S
H2708 C2718 0.930 . S
H2709 C2719 0.930 . S
C2710 H2704 0.930 . S
C2710 C2711 1.355 . S
C2710 C2712 1.415 . S
C2711 C2710 1.355 . S
C2711 C2713 1.419 . S
C2712 C2710 1.415 . S
C2712 C2717 1.425 . S
C2712 C2719 1.409 . S
C2713 H2705 0.930 . S
C2713 C2711 1.419 . S
C2713 C2714 1.362 . S
C2714 H2706 0.930 . S
C2714 C2713 1.362 . S
C2714 C2717 1.409 . S
C2715 H2707 0.930 . S
C2715 C2716 1.355 . S
C2715 C2717 1.415 . S
C2716 C2715 1.355 . S
C2716 C2718 1.419 . S
C2717 C2712 1.425 . S
C2717 C2714 1.409 . S
C2717 C2715 1.415 . S
C2718 H2708 0.930 . S
C2718 C2716 1.419 . S
C2718 C2719 1.362 . S
C2719 H2709 0.930 . S
C2719 C2712 1.409 . S
C2719 C2718 1.362 . S
H2720 C2726 0.930 . S
H2721 C2729 0.930 1_564 S
H2722 C2730 0.930 . S
H2723 C2731 0.930 . S
H2724 C2734 0.930 1_545 S
H2725 C2735 0.930 . S
C2726 H2720 0.930 . S
C2726 C2727 1.355 . S
C2726 C2728 1.415 . S
C2727 C2726 1.355 . S
C2727 C2729 1.419 . S
C2728 C2726 1.415 . S
C2728 C2733 1.425 1_545 S
C2728 C2735 1.409 . S
C2729 H2721 0.930 1_546 S
C2729 C2727 1.419 . S
C2729 C2730 1.362 1_545 S
C2730 H2722 0.930 . S
C2730 C2729 1.362 1_565 S
C2730 C2733 1.409 . S
C2731 H2723 0.930 . S
C2731 C2732 1.355 . S
C2731 C2733 1.415 . S
C2732 C2731 1.355 . S
C2732 C2734 1.419 . S
C2733 C2728 1.425 1_565 S
C2733 C2730 1.409 . S
C2733 C2731 1.415 . S
C2734 H2724 0.930 1_565 S
C2734 C2732 1.419 . S
C2734 C2735 1.362 1_565 S
C2735 H2725 0.930 . S
C2735 C2728 1.409 . S
C2735 C2734 1.362 1_545 S
H2736 C2742 0.930 . S
H2737 C2745 0.930 . S
H2738 C2746 0.930 . S
H2739 C2747 0.930 . S
H2740 C2750 0.930 . S
H2741 C2751 0.930 . S
C2742 H2736 0.930 . S
C2742 C2743 1.355 . S
C2742 C2744 1.415 . S
C2743 C2742 1.355 . S
C2743 C2745 1.419 . S
C2744 C2742 1.415 . S
C2744 C2749 1.425 . S
C2744 C2751 1.409 . S
C2745 H2737 0.930 . S
C2745 C2743 1.419 . S
C2745 C2746 1.362 . S
C2746 H2738 0.930 . S
C2746 C2745 1.362 . S
C2746 C2749 1.409 . S
C2747 H2739 0.930 . S
C2747 C2748 1.355 . S
C2747 C2749 1.415 . S
C2748 C2747 1.355 . S
C2748 C2750 1.419 . S
C2749 C2744 1.425 . S
C2749 C2746 1.409 . S
C2749 C2747 1.415 . S
C2750 H2740 0.930 . S
C2750 C2748 1.419 . S
C2750 C2751 1.362 . S
C2751 H2741 0.930 . S
C2751 C2744 1.409 . S
C2751 C2750 1.362 . S
H2752 C2758 0.930 . S
H2753 C2761 0.930 1_554 S
H2754 C2762 0.930 . S
H2755 C2763 0.930 . S
H2756 C2766 0.930 . S
H2757 C2767 0.930 . S
C2758 H2752 0.930 . S
C2758 C2759 1.355 . S
C2758 C2760 1.415 . S
C2759 C2758 1.355 . S
C2759 C2761 1.419 . S
C2760 C2758 1.415 . S
C2760 C2765 1.425 1_565 S
C2760 C2767 1.409 . S
C2761 H2753 0.930 1_556 S
C2761 C2759 1.419 . S
C2761 C2762 1.362 1_565 S
C2762 H2754 0.930 . S
C2762 C2761 1.362 1_545 S
C2762 C2765 1.409 . S
C2763 H2755 0.930 . S
C2763 C2764 1.355 . S
C2763 C2765 1.415 . S
C2764 C2763 1.355 . S
C2764 C2766 1.419 . S
C2765 C2760 1.425 1_545 S
C2765 C2762 1.409 . S
C2765 C2763 1.415 . S
C2766 H2756 0.930 . S
C2766 C2764 1.419 . S
C2766 C2767 1.362 1_545 S
C2767 H2757 0.930 . S
C2767 C2760 1.409 . S
C2767 C2766 1.362 1_565 S
H2768 C2774 0.930 . S
H2769 C2777 0.930 . S
H2770 C2778 0.930 . S
H2771 C2779 0.930 . S
H2772 C2782 0.930 . S
H2773 C2783 0.930 . S
C2774 H2768 0.930 . S
C2774 C2775 1.355 . S
C2774 C2776 1.415 . S
C2775 C2774 1.355 . S
C2775 C2777 1.419 . S
C2776 C2774 1.415 . S
C2776 C2781 1.425 . S
C2776 C2783 1.409 . S
C2777 H2769 0.930 . S
C2777 C2775 1.419 . S
C2777 C2778 1.362 . S
C2778 H2770 0.930 . S
C2778 C2777 1.362 . S
C2778 C2781 1.409 . S
C2779 H2771 0.930 . S
C2779 C2780 1.355 . S
C2779 C2781 1.415 . S
C2780 C2779 1.355 . S
C2780 C2782 1.419 . S
C2781 C2776 1.425 . S
C2781 C2778 1.409 . S
C2781 C2779 1.415 . S
C2782 H2772 0.930 . S
C2782 C2780 1.419 . S
C2782 C2783 1.362 . S
C2783 H2773 0.930 . S
C2783 C2776 1.409 . S
C2783 C2782 1.362 . S
H2784 C2790 0.930 . S
H2785 C2793 0.930 . S
H2786 C2794 0.930 . S
H2787 C2795 0.930 . S
H2788 C2798 0.930 . S
H2789 C2799 0.930 . S
C2790 H2784 0.930 . S
C2790 C2791 1.355 . S
C2790 C2792 1.415 . S
C2791 C2790 1.355 . S
C2791 C2793 1.419 . S
C2792 C2790 1.415 . S
C2792 C2797 1.425 1_565 S
C2792 C2799 1.409 . S
C2793 H2785 0.930 . S
C2793 C2791 1.419 . S
C2793 C2794 1.362 1_565 S
C2794 H2786 0.930 . S
C2794 C2793 1.362 1_545 S
C2794 C2797 1.409 . S
C2795 H2787 0.930 . S
C2795 C2796 1.355 . S
C2795 C2797 1.415 . S
C2796 C2795 1.355 . S
C2796 C2798 1.419 . S
C2797 C2792 1.425 1_545 S
C2797 C2794 1.409 . S
C2797 C2795 1.415 . S
C2798 H2788 0.930 . S
C2798 C2796 1.419 . S
C2798 C2799 1.362 1_545 S
C2799 H2789 0.930 . S
C2799 C2792 1.409 . S
C2799 C2798 1.362 1_565 S
H2800 C2806 0.930 . S
H2801 C2809 0.930 . S
H2802 C2810 0.930 . S
H2803 C2811 0.930 . S
H2804 C2814 0.930 . S
H2805 C2815 0.930 . S
C2806 H2800 0.930 . S
C2806 C2807 1.355 . S
C2806 C2808 1.415 . S
C2807 C2806 1.355 . S
C2807 C2809 1.419 . S
C2808 C2806 1.415 . S
C2808 C2813 1.425 . S
C2808 C2815 1.409 . S
C2809 H2801 0.930 . S
C2809 C2807 1.419 . S
C2809 C2810 1.362 . S
C2810 H2802 0.930 . S
C2810 C2809 1.362 . S
C2810 C2813 1.409 . S
C2811 H2803 0.930 . S
C2811 C2812 1.355 . S
C2811 C2813 1.415 . S
C2812 C2811 1.355 . S
C2812 C2814 1.419 . S
C2813 C2808 1.425 . S
C2813 C2810 1.409 . S
C2813 C2811 1.415 . S
C2814 H2804 0.930 . S
C2814 C2812 1.419 . S
C2814 C2815 1.362 . S
C2815 H2805 0.930 . S
C2815 C2808 1.409 . S
C2815 C2814 1.362 . S
C1287 C29 0.846 . S
C1292 C189 0.871 . S
C1303 C229 0.863 . S
C1308 C69 0.871 . S
C1319 C109 0.725 . S
C1324 C269 0.742 . S
C1335 C309 0.859 . S
C1340 C149 0.818 . S
C1351 C328 0.732 . S
C1356 C488 0.771 . S
C1367 C368 0.769 . S
C1372 C528 0.820 . S
C1383 C568 0.835 . S
C1388 C408 0.867 . S
C1399 C448 0.859 . S
C1404 C608 0.819 . S
C1415 C829 0.726 . S
C1420 C669 0.752 . S
C1431 C709 0.726 . S
C1436 C869 0.756 . S
C1447 C749 0.867 . S
C1452 C909 0.869 . S
C1463 C789 0.725 . S
C1468 C949 0.738 . S
C1479 C968 0.865 . S
C1484 C1128 0.870 . S
C1495 C1168 0.725 . S
C1500 C1008 0.749 . S
C1511 C1048 0.866 . S
C1516 C1208 0.833 . S
C1527 C1248 0.763 . S
C1532 C1088 0.729 . S
C1543 C857 2.781 . S
C1548 C17 2.772 . S
C1559 C897 2.741 . S
C1564 C57 2.721 . S
C1575 C937 2.758 . S
C1580 C97 2.730 . S
C1591 C137 2.779 . S
C1596 C817 2.777 . S
C1607 C177 2.721 . S
C1612 C777 2.726 . S
C1623 C657 2.723 . S
C1628 C217 2.723 . S
C1639 C257 2.743 . S
C1644 C697 2.721 . S
C1655 C297 2.745 . S
C1660 C737 2.773 . S
C1671 C322 2.728 . S
C1676 C1162 2.754 . S
C1687 C1202 2.756 . S
C1692 C362 2.728 . S
C1703 C1242 2.744 . S
C1708 C402 2.722 . S
C1719 C442 2.734 . S
C1724 C1122 2.763 . S
C1735 C482 2.782 . S
C1740 C1082 2.768 . S
C1751 C522 2.761 . S
C1756 C962 2.781 . S
C1767 C562 2.773 . S
C1772 C1002 2.745 . S
C1783 C602 2.759 . S
C1788 C1042 2.731 . S
C1799 C337 1.160 . S
C1804 C2 1.160 . S
C1815 C42 1.036 . S
C1820 C1017 1.036 . S
C1831 C417 1.161 . S
C1836 C82 1.161 . S
C1847 C122 1.012 . S
C1852 C1097 1.012 . S
C1863 C497 1.031 . S
C1868 C162 1.031 . S
C1879 C1177 1.040 . S
C1884 C202 1.040 . S
C1895 C242 1.143 . S
C1900 C577 1.143 . S
C1911 C282 1.057 . S
C1916 C1257 1.057 . S
C1927 C682 1.161 . S
C1932 C377 1.161 . S
C1943 C762 1.066 . S
C1948 C457 1.066 . S
C1959 C537 1.143 . S
C1964 C842 1.142 . S
C1975 C922 1.128 . S
C1980 C617 1.128 . S
C1991 C977 1.144 . S
C1996 C642 1.144 . S
C2007 C1057 1.020 . S
C2012 C722 1.020 . S
C2023 C1137 1.002 . S
C2028 C802 1.002 . S
C2039 C882 1.143 . S
C2044 C1217 1.143 . S
C2055 C8 1.598 . S
C2060 C511 1.668 . S
C2071 C1191 1.653 . S
C2076 C48 1.555 . S
C2087 C591 1.678 . S
C2092 C88 1.618 . S
C2103 C128 1.567 . S
C2108 C1271 1.667 . S
C2119 C351 1.656 . S
C2124 C168 1.563 . S
C2135 C1031 1.675 . S
C2140 C208 1.587 . S
C2151 C431 1.678 . S
C2156 C248 1.591 . S
C2167 C1111 1.679 . S
C2172 C288 1.598 . S
C2183 C172 1.685 . S
C2188 C349 1.626 . S
C2199 C852 1.665 . S
C2204 C389 1.560 . S
C2215 C252 1.665 . S
C2220 C429 1.559 . S
C2231 C469 1.609 . S
C2236 C932 1.682 . S
C2247 C12 1.684 . S
C2252 C509 1.613 . S
C2263 C692 1.667 . S
C2268 C549 1.598 . S
C2279 C589 1.597 . S
C2284 C92 1.679 . S
C2295 C629 1.557 . S
C2300 C772 1.663 . S
C2311 C1151 1.664 . S
C2316 C648 1.587 . S
C2327 C551 1.656 . S
C2332 C688 1.566 . S
C2343 C728 1.574 . S
C2348 C1231 1.671 . S
C2359 C631 1.684 . S
C2364 C768 1.620 . S
C2375 C808 1.545 . S
C2380 C991 1.656 . S
C2391 C848 1.543 . S
C2396 C391 1.654 . S
C2407 C1071 1.680 . S
C2412 C888 1.598 . S
C2423 C471 1.682 . S
C2428 C928 1.624 . S
C2439 C989 1.551 . S
C2444 C812 1.661 . S
C2455 C1029 1.624 . S
C2460 C212 1.683 . S
C2471 C1069 1.544 . S
C2476 C892 1.653 . S
C2487 C1109 1.561 . S
C2492 C292 1.655 . S
C2503 C652 1.659 . S
C2508 C1149 1.575 . S
C2519 C52 1.678 . S
C2524 C1189 1.620 . S
C2535 C1229 1.626 . S
C2540 C732 1.684 . S
C2551 C132 1.652 . S
C2556 C1269 1.546 . S
C2567 C191 3.302 . S
C2572 C31 3.318 1_556 S
C2583 C231 3.306 . S
C2588 C71 3.318 . S
C2599 C111 3.318 . S
C2604 C271 3.304 . S
C2615 C311 3.304 . S
C2620 C151 3.318 . S
C2631 C492 3.318 . S
C2636 C332 3.299 . S
C2647 C372 3.286 . S
C2652 C532 3.307 . S
C2663 C412 3.285 . S
C2668 C572 3.303 1_556 S
C2679 C612 3.292 . S
C2684 C452 3.291 . S
C2695 C671 3.318 . S
C2700 C831 3.297 . S
C2711 C871 3.300 . S
C2716 C711 3.286 . S
C2727 C751 3.292 1_556 S
C2732 C911 3.289 . S
C2743 C791 3.289 . S
C2748 C951 3.315 . S
C2759 C1132 3.285 1_556 S
C2764 C972 3.303 . S
C2775 C1172 3.317 . S
C2780 C1012 3.308 . S
C2791 C1052 3.298 . S
C2796 C1212 3.286 . S
C2807 C1252 3.318 . S
C2812 C1092 3.295 . S
