# Generated by pormake.
# Topology ske, (6)-cn, num edge types: 1
# Building blocks:
#     Node 0, Type 0, BuildingBlock: BETGAK_clean_sbu_0, # of connection points: 6
#     Node 1, Type 0, BuildingBlock: BETGAK_clean_sbu_0, # of connection points: 6
#     Node 2, Type 0, BuildingBlock: BETGAK_clean_sbu_0, # of connection points: 6
#     Node 3, Type 0, BuildingBlock: BETGAK_clean_sbu_0, # of connection points: 6
#     Node 4, Type 0, BuildingBlock: BETGAK_clean_sbu_0, # of connection points: 6
#     Node 5, Type 0, BuildingBlock: BETGAK_clean_sbu_0, # of connection points: 6
#     Node 6, Type 0, BuildingBlock: BETGAK_clean_sbu_0, # of connection points: 6
#     Node 7, Type 0, BuildingBlock: BETGAK_clean_sbu_0, # of connection points: 6
#     Edge 8, Type (0, 0), BuildingBlock: AJUNOK_clean_linker_0, # of connection points: 2
#     Edge 9, Type (0, 0), BuildingBlock: AJUNOK_clean_linker_0, # of connection points: 2
#     Edge 10, Type (0, 0), BuildingBlock: AJUNOK_clean_linker_0, # of connection points: 2
#     Edge 11, Type (0, 0), BuildingBlock: AJUNOK_clean_linker_0, # of connection points: 2
#     Edge 12, Type (0, 0), BuildingBlock: AJUNOK_clean_linker_0, # of connection points: 2
#     Edge 13, Type (0, 0), BuildingBlock: AJUNOK_clean_linker_0, # of connection points: 2
#     Edge 14, Type (0, 0), BuildingBlock: AJUNOK_clean_linker_0, # of connection points: 2
#     Edge 15, Type (0, 0), BuildingBlock: AJUNOK_clean_linker_0, # of connection points: 2
#     Edge 16, Type (0, 0), BuildingBlock: AJUNOK_clean_linker_0, # of connection points: 2
#     Edge 17, Type (0, 0), BuildingBlock: AJUNOK_clean_linker_0, # of connection points: 2
#     Edge 18, Type (0, 0), BuildingBlock: AJUNOK_clean_linker_0, # of connection points: 2
#     Edge 19, Type (0, 0), BuildingBlock: AJUNOK_clean_linker_0, # of connection points: 2
#     Edge 20, Type (0, 0), BuildingBlock: AJUNOK_clean_linker_0, # of connection points: 2
#     Edge 21, Type (0, 0), BuildingBlock: AJUNOK_clean_linker_0, # of connection points: 2
#     Edge 22, Type (0, 0), BuildingBlock: AJUNOK_clean_linker_0, # of connection points: 2
#     Edge 23, Type (0, 0), BuildingBlock: AJUNOK_clean_linker_0, # of connection points: 2
#     Edge 24, Type (0, 0), BuildingBlock: AJUNOK_clean_linker_0, # of connection points: 2
#     Edge 25, Type (0, 0), BuildingBlock: AJUNOK_clean_linker_0, # of connection points: 2
#     Edge 26, Type (0, 0), BuildingBlock: AJUNOK_clean_linker_0, # of connection points: 2
#     Edge 27, Type (0, 0), BuildingBlock: AJUNOK_clean_linker_0, # of connection points: 2
#     Edge 28, Type (0, 0), BuildingBlock: AJUNOK_clean_linker_0, # of connection points: 2
#     Edge 29, Type (0, 0), BuildingBlock: AJUNOK_clean_linker_0, # of connection points: 2
#     Edge 30, Type (0, 0), BuildingBlock: AJUNOK_clean_linker_0, # of connection points: 2
#     Edge 31, Type (0, 0), BuildingBlock: AJUNOK_clean_linker_0, # of connection points: 2
# Relax obj value: 0.197
# Max RMSD: 0.208
# Mean RMSD: 0.201
data_MOF--net-ske--node1-BETGAK_clean_sbu_0--edge1-AJUNOK_clean_linker_0
_symmetry_space_group_name_H-M    P1
_symmetry_Int_Tables_number       1
_symmetry_cell_setting            triclinic
loop_
_symmetry_equiv_pos_as_xyz
'x, y, z'
_cell_length_a     87.855311
_cell_length_b     21.270441
_cell_length_c     11.465299
_cell_angle_alpha  89.892045
_cell_angle_beta   90.408231
_cell_angle_gamma 84.464011
loop_
_atom_site_label
_atom_site_type_symbol
_atom_site_fract_x
_atom_site_fract_y
_atom_site_fract_z
_atom_type_partial_charge
La0 La 0.17103 0.27089 0.5422 0.0
La1 La 0.13772 0.27383 0.54779 0.0
C2 C 0.19873 0.2952 0.55991 0.0
C3 C 0.21364 0.2836 0.62345 0.0
C4 C 0.22361 0.22895 0.60236 0.0
C5 C 0.23867 0.22347 0.64565 0.0
C6 C 0.24422 0.27244 0.71121 0.0
C7 C 0.23412 0.32632 0.73484 0.0
C8 C 0.21905 0.33184 0.69144 0.0
C9 C 0.16152 0.15611 0.51711 0.0
C10 C 0.1541 0.26631 0.79016 0.0
C11 C 0.10938 0.26374 0.52953 0.0
C12 C 0.09254 0.26038 0.51826 0.0
C13 C 0.0827 0.31578 0.50002 0.0
C14 C 0.06678 0.31407 0.4971 0.0
C15 C 0.06018 0.2569 0.51229 0.0
C16 C 0.07005 0.20117 0.52816 0.0
C17 C 0.08602 0.20296 0.53168 0.0
C18 C 0.14838 0.3873 0.56999 0.0
C19 C 0.15426 0.27165 0.30412 0.0
O20 O 0.19407 0.24944 0.49731 0.0
O21 O 0.18731 0.32864 0.60996 0.0
O22 O 0.17356 0.17567 0.47073 0.0
O23 O 0.15569 0.19935 0.58422 0.0
O24 O 0.16688 0.27399 0.73282 0.0
O25 O 0.14124 0.25948 0.73354 0.0
O26 O 0.11579 0.31415 0.49928 0.0
O27 O 0.11911 0.21733 0.56636 0.0
O28 O 0.13722 0.36773 0.62857 0.0
O29 O 0.15319 0.34348 0.50125 0.0
O30 O 0.14293 0.25128 0.36438 0.0
O31 O 0.16577 0.29433 0.35973 0.0
H32 H 0.22 0.19129 0.54839 0.0
H33 H 0.24617 0.18187 0.62343 0.0
H34 H 0.23795 0.36486 0.78534 0.0
H35 H 0.21181 0.37505 0.7076 0.0
H36 H 0.08729 0.36096 0.49029 0.0
H37 H 0.0596 0.35799 0.48548 0.0
H38 H 0.06545 0.15603 0.53749 0.0
H39 H 0.09326 0.15939 0.54567 0.0
La40 La 0.88196 0.2632 0.55781 0.0
La41 La 0.91736 0.26484 0.56107 0.0
C42 C 0.85471 0.23337 0.57204 0.0
C43 C 0.8397 0.2448 0.6324 0.0
C44 C 0.82942 0.29809 0.6065 0.0
C45 C 0.81442 0.30317 0.6495 0.0
C46 C 0.80925 0.25518 0.71949 0.0
C47 C 0.81964 0.20258 0.74722 0.0
C48 C 0.83462 0.19747 0.70421 0.0
C49 C 0.8916 0.37856 0.53965 0.0
C50 C 0.89923 0.26632 0.80415 0.0
C51 C 0.94405 0.30038 0.57057 0.0
C52 C 0.96051 0.28756 0.54095 0.0
C53 C 0.96833 0.22676 0.54844 0.0
C54 C 0.98434 0.21807 0.53706 0.0
C55 C 0.9929 0.27001 0.51897 0.0
C56 C 0.98491 0.33038 0.50755 0.0
C57 C 0.96896 0.33897 0.51858 0.0
C58 C 0.90964 0.14538 0.53361 0.0
C59 C 0.89976 0.26228 0.32016 0.0
O60 O 0.85898 0.27757 0.5035 0.0
O61 O 0.86632 0.2043 0.62891 0.0
O62 O 0.87876 0.36174 0.50024 0.0
O63 O 0.89794 0.33244 0.59875 0.0
O64 O 0.88609 0.26236 0.74768 0.0
O65 O 0.91222 0.27141 0.74794 0.0
O66 O 0.93846 0.26356 0.64774 0.0
O67 O 0.93414 0.31787 0.48772 0.0
O68 O 0.9235 0.16136 0.53572 0.0
O69 O 0.90131 0.19664 0.54427 0.0
O70 O 0.91126 0.28407 0.3781 0.0
O71 O 0.88821 0.23995 0.3763 0.0
H72 H 0.8328 0.33512 0.5501 0.0
H73 H 0.80676 0.34442 0.62665 0.0
H74 H 0.81601 0.16402 0.79861 0.0
H75 H 0.84209 0.15514 0.72369 0.0
H76 H 0.96213 0.18619 0.56596 0.0
H77 H 0.99002 0.17071 0.54361 0.0
H78 H 0.99106 0.37153 0.49419 0.0
H79 H 0.96326 0.38641 0.51381 0.0
La80 La 0.13783 0.77812 0.52517 0.0
La81 La 0.17151 0.76646 0.53342 0.0
C82 C 0.10939 0.77267 0.54184 0.0
C83 C 0.09253 0.77177 0.55193 0.0
C84 C 0.08316 0.82837 0.56926 0.0
C85 C 0.06721 0.82875 0.57283 0.0
C86 C 0.06017 0.77244 0.56029 0.0
C87 C 0.06957 0.71573 0.54323 0.0
C88 C 0.08555 0.7154 0.53908 0.0
C89 C 0.15012 0.88741 0.50303 0.0
C90 C 0.15471 0.77088 0.77041 0.0
C91 C 0.19959 0.78485 0.51814 0.0
C92 C 0.21428 0.77443 0.45315 0.0
C93 C 0.22415 0.71878 0.46897 0.0
C94 C 0.23912 0.71395 0.42548 0.0
C95 C 0.24468 0.76466 0.36522 0.0
C96 C 0.23468 0.81961 0.34668 0.0
C97 C 0.2197 0.82444 0.3901 0.0
C98 C 0.15973 0.6558 0.55577 0.0
C99 C 0.15424 0.76782 0.28423 0.0
O100 O 0.11626 0.82221 0.57067 0.0
O101 O 0.11869 0.7247 0.50673 0.0
O102 O 0.13823 0.87204 0.44685 0.0
O103 O 0.15452 0.84275 0.57226 0.0
O104 O 0.14286 0.75488 0.70928 0.0
O105 O 0.16677 0.78911 0.71617 0.0
O106 O 0.19453 0.73711 0.57262 0.0
O107 O 0.18841 0.82303 0.47436 0.0
O108 O 0.17246 0.66975 0.60152 0.0
O109 O 0.15487 0.70106 0.48904 0.0
O110 O 0.16724 0.77164 0.34268 0.0
O111 O 0.14121 0.7643 0.3395 0.0
H112 H 0.08813 0.8728 0.57783 0.0
H113 H 0.06037 0.87353 0.58293 0.0
H114 H 0.06455 0.67147 0.53344 0.0
H115 H 0.09244 0.67106 0.5251 0.0
H116 H 0.22054 0.67974 0.51917 0.0
H117 H 0.24656 0.67139 0.44359 0.0
H118 H 0.23853 0.8595 0.30031 0.0
H119 H 0.21255 0.86842 0.37809 0.0
La120 La 0.9158 0.7579 0.52114 0.0
La121 La 0.88233 0.76878 0.52565 0.0
C122 C 0.94417 0.7667 0.53805 0.0
C123 C 0.961 0.76918 0.54726 0.0
C124 C 0.97093 0.7137 0.53465 0.0
C125 C 0.98682 0.71551 0.53922 0.0
C126 C 0.99325 0.77286 0.5563 0.0
C127 C 0.9833 0.82849 0.56879 0.0
C128 C 0.96735 0.82662 0.5648 0.0
C129 C 0.90395 0.6463 0.51131 0.0
C130 C 0.89915 0.76326 0.76661 0.0
C131 C 0.85422 0.75065 0.50902 0.0
C132 C 0.83936 0.75988 0.44467 0.0
C133 C 0.83046 0.81859 0.4434 0.0
C134 C 0.81526 0.82356 0.4027 0.0
C135 C 0.80852 0.76992 0.3633 0.0
C136 C 0.81767 0.7119 0.35955 0.0
C137 C 0.83285 0.70692 0.40018 0.0
C138 C 0.89374 0.88105 0.53764 0.0
C139 C 0.89938 0.7677 0.27967 0.0
O140 O 0.93829 0.71688 0.49849 0.0
O141 O 0.93398 0.8122 0.57011 0.0
O142 O 0.91609 0.66039 0.45851 0.0
O143 O 0.89925 0.69336 0.57335 0.0
O144 O 0.91149 0.7742 0.70752 0.0
O145 O 0.8867 0.74918 0.71089 0.0
O146 O 0.85934 0.79899 0.56127 0.0
O147 O 0.86533 0.71214 0.46686 0.0
O148 O 0.88137 0.86652 0.58697 0.0
O149 O 0.8988 0.83424 0.47571 0.0
O150 O 0.88674 0.75766 0.33656 0.0
O151 O 0.91184 0.77937 0.33757 0.0
H152 H 0.96642 0.66862 0.5211 0.0
H153 H 0.9941 0.67173 0.53003 0.0
H154 H 0.98783 0.87372 0.57947 0.0
H155 H 0.96001 0.87026 0.5735 0.0
H156 H 0.83502 0.86038 0.47765 0.0
H157 H 0.80869 0.86931 0.40418 0.0
H158 H 0.81289 0.66961 0.32993 0.0
H159 H 0.83929 0.66084 0.40163 0.0
La160 La 0.67056 0.77297 0.05667 0.0
La161 La 0.63749 0.77662 0.06369 0.0
C162 C 0.69833 0.79639 0.07379 0.0
C163 C 0.7131 0.78831 0.13957 0.0
C164 C 0.72228 0.73024 0.1416 0.0
C165 C 0.73733 0.72637 0.18527 0.0
C166 C 0.7436 0.78037 0.22801 0.0
C167 C 0.73426 0.83798 0.22876 0.0
C168 C 0.71923 0.84185 0.18513 0.0
C169 C 0.6609 0.6579 0.04002 0.0
C170 C 0.65401 0.76583 0.303 0.0
C171 C 0.60903 0.7682 0.0499 0.0
C172 C 0.59212 0.76616 0.04679 0.0
C173 C 0.58275 0.80739 0.11764 0.0
C174 C 0.5668 0.80819 0.11306 0.0
C175 C 0.55969 0.76821 1.03665 0.0
C176 C 0.56907 0.72584 0.96749 0.0
C177 C 0.58511 0.7249 0.97236 0.0
C178 C 0.64798 0.891 0.07541 0.0
C179 C 0.6537 0.77515 0.81653 0.0
O180 O 0.69372 0.7476 1.01975 0.0
O181 O 0.68687 0.83281 0.11649 0.0
O182 O 0.67296 0.67617 0.99173 0.0
O183 O 0.65515 0.70234 0.10455 0.0
O184 O 0.6661 0.78244 0.24614 0.0
O185 O 0.64216 0.74854 0.24398 0.0
O186 O 0.61524 0.811 0.11012 0.0
O187 O 0.61897 0.72885 0.99598 0.0
O188 O 0.63676 0.87254 0.13365 0.0
O189 O 0.65289 0.84579 1.01017 0.0
O190 O 0.64165 0.76135 0.87642 0.0
O191 O 0.66587 0.79246 0.87183 0.0
H192 H 0.71805 0.68811 0.10582 0.0
H193 H 0.74417 0.6812 0.18376 0.0
H194 H 0.73876 0.88084 0.2585 0.0
H195 H 0.71261 0.88753 0.1824 0.0
H196 H 0.58773 0.83943 0.17696 0.0
H197 H 0.56003 0.83999 0.17035 0.0
H198 H 0.564 0.69416 0.90806 0.0
H199 H 0.592 0.69247 0.91687 0.0
La200 La 0.38205 0.76371 0.05241 0.0
La201 La 0.4151 0.75728 0.06454 0.0
C202 C 0.35386 0.74648 0.06659 0.0
C203 C 0.33936 0.75387 0.13445 0.0
C204 C 0.32895 0.80803 0.12008 0.0
C205 C 0.31406 0.81007 0.16451 0.0
C206 C 0.30908 0.75779 0.22349 0.0
C207 C 0.31971 0.70479 0.24269 0.0
C208 C 0.33461 0.70272 0.19826 0.0
C209 C 0.39277 0.87612 1.03059 0.0
C210 C 0.39841 0.76699 0.30167 0.0
C211 C 0.44347 0.76675 0.05004 0.0
C212 C 0.46032 0.77005 0.04602 0.0
C213 C 0.47006 0.73175 0.12058 0.0
C214 C 0.48597 0.73293 0.11577 0.0
C215 C 0.49264 0.77223 1.0359 0.0
C216 C 0.48286 0.81039 0.96077 0.0
C217 C 0.4669 0.80961 0.96633 0.0
C218 C 0.40416 0.64385 0.0765 0.0
C219 C 0.39863 0.75669 0.81493 0.0
O220 O 0.35902 0.79687 1.02247 0.0
O221 O 0.36501 0.70509 0.10062 0.0
O222 O 0.38122 0.85778 0.97446 0.0
O223 O 0.39772 0.83301 0.10167 0.0
O224 O 0.3863 0.75312 0.24123 0.0
O225 O 0.41075 0.78186 0.24684 0.0
O226 O 0.43762 0.71998 0.10109 0.0
O227 O 0.43324 0.80934 1.00634 0.0
O228 O 0.41549 0.66143 0.13612 0.0
O229 O 0.39943 0.68931 1.01028 0.0
O230 O 0.41088 0.77028 0.87455 0.0
O231 O 0.38652 0.74067 0.87086 0.0
H232 H 0.33206 0.84799 0.06993 0.0
H233 H 0.30621 0.85165 0.14801 0.0
H234 H 0.31641 0.66423 0.29011 0.0
H235 H 0.34222 0.65997 0.21005 0.0
H236 H 0.46539 0.70076 0.1832 0.0
H237 H 0.49307 0.70327 0.17554 0.0
H238 H 0.48754 0.84011 0.89607 0.0
H239 H 0.45972 0.83916 0.90689 0.0
La240 La 0.63776 0.27826 1.01745 0.0
La241 La 0.67147 0.26921 1.02586 0.0
C242 C 0.60945 0.26772 1.03145 0.0
C243 C 0.59265 0.26326 1.03543 0.0
C244 C 0.58291 0.29657 0.9539 0.0
C245 C 0.56703 0.29445 0.95858 0.0
C246 C 0.56039 0.25923 0.04535 0.0
C247 C 0.57018 0.22604 0.12737 0.0
C248 C 0.58612 0.22766 0.12191 0.0
C249 C 0.64922 0.3907 1.01005 0.0
C250 C 0.6547 0.27527 0.26489 0.0
C251 C 0.69952 0.28819 1.00979 0.0
C252 C 0.71428 0.27588 0.94625 0.0
C253 C 0.72434 0.2218 0.9709 0.0
C254 C 0.73939 0.2163 0.92922 0.0
C255 C 0.74488 0.26496 0.86276 0.0
C256 C 0.7346 0.31758 0.83331 0.0
C257 C 0.71953 0.32312 0.87504 0.0
C258 C 0.66025 0.15742 0.04162 0.0
C259 C 0.65463 0.26851 0.77844 0.0
O260 O 0.61524 0.3117 0.97152 0.0
O261 O 0.61971 0.22867 0.08417 0.0
O262 O 0.63685 0.37683 0.95942 0.0
O263 O 0.6542 0.34333 0.07074 0.0
O264 O 0.64223 0.26356 0.2062 0.0
O265 O 0.66688 0.29078 0.2086 0.0
O266 O 0.69447 0.24216 0.0694 0.0
O267 O 0.68833 0.32448 0.96158 0.0
O268 O 0.67295 0.17132 0.08755 0.0
O269 O 0.65508 0.20314 0.97713 0.0
O270 O 0.66697 0.28064 0.83788 0.0
O271 O 0.64216 0.25519 0.8339 0.0
H272 H 0.58755 0.3244 0.88596 0.0
H273 H 0.55993 0.32022 0.89345 0.0
H274 H 0.56552 0.19972 0.19735 0.0
H275 H 0.5933 0.20199 0.18669 0.0
H276 H 0.72079 0.18462 1.0262 0.0
H277 H 0.74686 0.17438 0.9512 0.0
H278 H 0.73841 0.35593 0.78228 0.0
H279 H 0.71221 0.36584 0.8557 0.0
La280 La 0.41553 0.25512 1.01864 0.0
La281 La 0.38218 0.26386 1.02613 0.0
C282 C 0.44399 0.26209 1.03495 0.0
C283 C 0.46092 0.26254 1.03919 0.0
C284 C 0.47027 0.2153 0.98129 0.0
C285 C 0.48623 0.21453 0.98473 0.0
C286 C 0.49335 0.2604 0.0479 0.0
C287 C 0.48395 0.30824 0.10473 0.0
C288 C 0.46792 0.30939 0.10015 0.0
C289 C 0.40384 0.14415 1.00002 0.0
C290 C 0.39885 0.25679 0.26516 0.0
C291 C 0.35411 0.24529 1.00782 0.0
C292 C 0.33941 0.2557 0.94127 0.0
C293 C 0.32898 0.30877 0.96358 0.0
C294 C 0.31396 0.31243 0.91947 0.0
C295 C 0.30891 0.26282 0.85301 0.0
C296 C 0.31955 0.21121 0.82596 0.0
C297 C 0.33457 0.20757 0.86992 0.0
C298 C 0.39336 0.3757 0.0464 0.0
C299 C 0.39884 0.26544 0.77829 0.0
O300 O 0.43777 0.20993 1.01503 0.0
O301 O 0.43408 0.31155 0.04842 0.0
O302 O 0.41501 0.16176 0.93938 0.0
O303 O 0.39943 0.18851 0.06908 0.0
O304 O 0.41113 0.27025 0.20703 0.0
O305 O 0.38677 0.24041 0.20809 0.0
O306 O 0.35915 0.29301 0.06265 0.0
O307 O 0.36531 0.20719 0.96559 0.0
O308 O 0.38099 0.36028 0.09436 0.0
O309 O 0.39829 0.33109 0.97939 0.0
O310 O 0.38637 0.25556 0.83728 0.0
O311 O 0.4116 0.27577 0.83385 0.0
H312 H 0.46524 0.17904 0.932 0.0
H313 H 0.49298 0.1783 0.93631 0.0
H314 H 0.489 0.34444 0.15399 0.0
H315 H 0.46101 0.34648 0.14541 0.0
H316 H 0.33218 0.34638 1.01951 0.0
H317 H 0.3061 0.35288 0.94198 0.0
H318 H 0.31616 0.17283 0.77278 0.0
H319 H 0.3422 0.1657 0.85183 0.0
C320 C 0.26922 0.321 0.73297 0.0
C321 C 0.26066 0.26893 0.74953 0.0
C322 C 0.28475 0.31861 0.76586 0.0
C323 C 0.29245 0.26395 0.81642 0.0
H324 H 0.26394 0.36382 0.6926 0.0
H325 H 0.29082 0.35976 0.75032 0.0
S326 S 0.27499 0.11659 0.88847 0.0
N327 N 0.26094 0.16231 0.82662 0.0
N328 N 0.28999 0.15776 0.88786 0.0
C329 C 0.28398 0.21186 0.83498 0.0
C330 C 0.26816 0.21434 0.80173 0.0
C331 C 0.76544 0.27684 0.71317 0.0
C332 C 0.76137 0.26214 0.82803 0.0
C333 C 0.78086 0.27502 0.67929 0.0
C334 C 0.79293 0.25858 0.75879 0.0
H335 H 0.75662 0.28908 0.64833 0.0
H336 H 0.78334 0.28561 0.58936 0.0
S337 S 0.78853 0.22231 0.07294 0.0
N338 N 0.77081 0.23474 1.02325 0.0
N339 N 0.79964 0.23139 0.95981 0.0
C340 C 0.78902 0.245 0.87444 0.0
C341 C 0.77332 0.24677 0.9089 0.0
C342 C 0.28527 0.8108 0.31754 0.0
C343 C 0.29272 0.75796 0.26048 0.0
C344 C 0.26981 0.81261 0.35032 0.0
C345 C 0.26106 0.76174 0.32734 0.0
H346 H 0.29149 0.85098 0.33811 0.0
H347 H 0.26473 0.85402 0.39556 0.0
S348 S 0.27468 0.61452 0.17089 0.0
N349 N 0.2898 0.6549 0.1765 0.0
N350 N 0.26088 0.65833 0.23795 0.0
C351 C 0.26831 0.70896 0.26901 0.0
C352 C 0.28406 0.70708 0.2357 0.0
C353 C 0.77161 0.7463 0.19607 0.0
C354 C 0.76005 0.77735 0.26574 0.0
C355 C 0.78717 0.74441 0.22762 0.0
C356 C 0.7919 0.77362 0.33017 0.0
H357 H 0.76863 0.72406 0.11524 0.0
H358 H 0.79559 0.72046 0.17035 0.0
S359 S 0.76616 0.85601 0.54873 0.0
N360 N 0.75446 0.83463 0.44597 0.0
N361 N 0.78357 0.83112 0.5051 0.0
C362 C 0.78045 0.80393 0.40159 0.0
C363 C 0.76461 0.80579 0.36951 0.0
C364 C 0.14636 0.99655 0.59422 0.0
C365 C 0.15383 0.95445 0.51309 0.0
C366 C 0.14866 0.06173 0.59547 0.0
C367 C 0.15853 0.08741 0.51545 0.0
H368 H 0.13848 0.97915 0.65605 0.0
H369 H 0.14268 0.09208 0.65949 0.0
S370 S 0.18033 0.99702 0.28267 0.0
N371 N 0.17107 0.94352 0.34934 0.0
N372 N 0.17556 0.06424 0.35107 0.0
C373 C 0.16597 0.04532 0.43381 0.0
C374 C 0.16357 0.97949 0.43265 0.0
C375 C 0.88384 0.49432 0.50116 0.0
C376 C 0.89503 0.44685 0.54219 0.0
C377 C 0.88652 0.55876 0.49676 0.0
C378 C 0.90062 0.57908 0.53119 0.0
H379 H 0.87285 0.48161 0.47074 0.0
H380 H 0.87763 0.59253 0.46202 0.0
S381 S 0.93367 0.47575 0.64961 0.0
N382 N 0.92059 0.42654 0.62383 0.0
N383 N 0.92589 0.54654 0.61022 0.0
C384 C 0.91188 0.53255 0.57357 0.0
C385 C 0.90902 0.46696 0.58065 0.0
C386 C 0.88798 0.99819 0.5766 0.0
C387 C 0.89785 0.94831 0.52906 0.0
C388 C 0.8915 0.06175 0.57405 0.0
C389 C 0.90521 0.07868 0.52581 0.0
H390 H 0.87739 0.9881 0.61724 0.0
H391 H 0.88362 0.0975 0.61378 0.0
S392 S 0.93487 0.96748 0.38606 0.0
N393 N 0.92172 0.92177 0.4274 0.0
N394 N 0.92861 0.03985 0.42657 0.0
C395 C 0.91513 0.02948 0.47697 0.0
C396 C 0.91139 0.96491 0.47745 0.0
C397 C 0.14566 0.56598 0.62866 0.0
C398 C 0.15578 0.58895 0.5479 0.0
C399 C 0.14339 0.50113 0.63456 0.0
C400 C 0.15122 0.45595 0.56061 0.0
H401 H 0.13969 0.59824 0.68975 0.0
H402 H 0.13551 0.4862 0.69895 0.0
S403 S 0.1791 0.49187 0.33373 0.0
N404 N 0.17376 0.56136 0.39243 0.0
N405 N 0.16952 0.44017 0.40291 0.0
C406 C 0.16132 0.47859 0.47888 0.0
C407 C 0.1636 0.54471 0.47286 0.0
C408 C 0.6694 0.54221 1.0111 0.0
C409 C 0.65785 0.58953 0.04483 0.0
C410 C 0.6668 0.47776 1.00608 0.0
C411 C 0.65243 0.45767 1.03184 0.0
H412 H 0.68058 0.55508 0.98681 0.0
H413 H 0.67596 0.44384 0.97713 0.0
S414 S 0.61841 0.56121 0.12892 0.0
N415 N 0.63166 0.61034 0.11037 0.0
N416 N 0.62655 0.49025 0.09569 0.0
C417 C 0.64084 0.50415 0.06749 0.0
C418 C 0.64361 0.56963 0.07553 0.0
C419 C 0.39615 0.98202 0.12603 0.0
C420 C 0.39674 0.94303 1.02634 0.0
C421 C 0.39791 0.04755 0.11754 0.0
C422 C 0.40068 0.07618 1.00942 0.0
H423 H 0.39388 0.96219 0.2105 0.0
H424 H 0.39735 0.07569 0.19629 0.0
S425 S 0.4034 0.99459 0.72333 0.0
N426 N 0.40006 0.93842 0.81674 0.0
N427 N 0.40404 0.05948 0.80144 0.0
C428 C 0.4015 0.03723 0.91006 0.0
C429 C 0.39934 0.97137 0.91833 0.0
C430 C 0.40783 0.46402 0.11965 0.0
C431 C 0.39715 0.44271 0.04078 0.0
C432 C 0.40996 0.52876 0.12965 0.0
C433 C 0.40146 0.57546 0.06156 0.0
H434 H 0.41433 0.4305 0.17654 0.0
H435 H 0.41826 0.54234 0.19279 0.0
S436 S 0.372 0.54418 0.84104 0.0
N437 N 0.37792 0.47341 0.89311 0.0
N438 N 0.38199 0.59456 0.91073 0.0
C439 C 0.39083 0.55454 0.98125 0.0
C440 C 0.38865 0.48848 0.97136 0.0
C441 C 0.66412 0.04397 0.97291 0.0
C442 C 0.65578 0.09137 1.03889 0.0
C443 C 0.66153 0.97944 0.98357 0.0
C444 C 0.65067 0.95955 0.06224 0.0
H445 H 0.67293 0.05674 0.91422 0.0
H446 H 0.66825 0.94486 0.9312 0.0
S447 S 0.6264 0.06523 0.2592 0.0
N448 N 0.63662 0.11359 0.18755 0.0
N449 N 0.63171 0.99388 0.20865 0.0
C450 C 0.64232 1.0069 0.12871 0.0
C451 C 0.6449 0.07224 0.11698 0.0
C452 C 0.16678 0.28436 0.10841 0.0
C453 C 0.15402 0.26932 0.17328 0.0
C454 C 0.16682 0.2824 0.98542 0.0
C455 C 0.15407 0.26565 0.92124 0.0
H456 H 0.17689 0.2978 0.15285 0.0
H457 H 0.17691 0.29482 0.94045 0.0
S458 S 0.11774 0.2212 0.04856 0.0
N459 N 0.12828 0.23643 0.16276 0.0
N460 N 0.12832 0.23281 0.93368 0.0
C461 C 0.14126 0.25015 0.98521 0.0
C462 C 0.14124 0.25195 0.11028 0.0
C463 C 0.88694 0.24905 0.12342 0.0
C464 C 0.89985 0.26338 0.18867 0.0
C465 C 0.88675 0.25076 1.00014 0.0
C466 C 0.89949 0.26649 0.93571 0.0
H467 H 0.87681 0.2366 0.16778 0.0
H468 H 0.87652 0.23907 0.95512 0.0
S469 S 0.93624 0.3085 0.06344 0.0
N470 N 0.92577 0.29423 0.17762 0.0
N471 N 0.92542 0.29741 0.94854 0.0
C472 C 0.91247 0.28104 0.99999 0.0
C473 C 0.91265 0.27951 0.12527 0.0
C474 C 0.16734 0.77944 0.09049 0.0
C475 C 0.15421 0.76699 0.15324 0.0
C476 C 0.16741 0.78062 0.9675 0.0
C477 C 0.15437 0.76912 0.90122 0.0
H478 H 0.17767 0.78899 0.13656 0.0
H479 H 0.17782 0.79066 0.92421 0.0
S480 S 0.11701 0.73301 1.02199 0.0
N481 N 0.12778 0.74208 0.13804 0.0
N482 N 0.12794 0.74425 0.90892 0.0
C483 C 0.14119 0.75612 0.96282 0.0
C484 C 0.1411 0.7551 0.0879 0.0
C485 C 0.88634 0.7546 0.96183 0.0
C486 C 0.89949 0.76477 0.89728 0.0
C487 C 0.88635 0.75602 0.08468 0.0
C488 C 0.89953 0.76772 0.14893 0.0
H489 H 0.87587 0.74542 0.9173 0.0
H490 H 0.87592 0.74766 0.12945 0.0
S491 S 0.93708 0.79756 1.02262 0.0
N492 N 0.92612 0.78716 0.90822 0.0
N493 N 0.92617 0.78983 0.13726 0.0
C494 C 0.91277 0.77815 0.0854 0.0
C495 C 0.91274 0.77668 0.96043 0.0
C496 C 0.66654 0.78267 0.49829 0.0
C497 C 0.65378 0.76623 0.43392 0.0
C498 C 0.6664 0.78555 0.62109 0.0
C499 C 0.65347 0.77229 0.68571 0.0
H500 H 0.67677 0.79372 0.45361 0.0
H501 H 0.67656 0.79838 0.66554 0.0
S502 S 0.61696 0.72687 0.56015 0.0
N503 N 0.62776 0.73642 0.44556 0.0
N504 N 0.6275 0.74183 0.67459 0.0
C505 C 0.64063 0.7556 0.62248 0.0
C506 C 0.64078 0.75258 0.49745 0.0
C507 C 0.41103 0.77691 0.6216 0.0
C508 C 0.39841 0.75868 0.68413 0.0
C509 C 0.4109 0.78009 0.49871 0.0
C510 C 0.39811 0.76539 0.43248 0.0
H511 H 0.42114 0.78896 0.66775 0.0
H512 H 0.42097 0.79403 0.45545 0.0
S513 S 0.36194 0.71563 0.55315 0.0
N514 N 0.37263 0.72606 0.66902 0.0
N515 N 0.37238 0.73225 0.44024 0.0
C516 C 0.38537 0.74745 0.49404 0.0
C517 C 0.38552 0.74404 0.61892 0.0
C518 C 0.64161 0.26368 0.45871 0.0
C519 C 0.65493 0.27321 0.39572 0.0
C520 C 0.64162 0.26162 0.58169 0.0
C521 C 0.65497 0.2688 0.64758 0.0
H522 H 0.63101 0.25806 0.41286 0.0
H523 H 0.63101 0.25479 0.62529 0.0
S524 S 0.69317 0.29187 0.5256 0.0
N525 N 0.68204 0.28782 0.40996 0.0
N526 N 0.68206 0.28394 0.63895 0.0
C527 C 0.66843 0.27749 0.58555 0.0
C528 C 0.66841 0.27968 0.46056 0.0
C529 C 0.41194 0.26837 0.46016 0.0
C530 C 0.39861 0.25914 0.39585 0.0
C531 C 0.41188 0.27092 0.58302 0.0
C532 C 0.39848 0.26464 0.64747 0.0
H533 H 0.42257 0.27333 0.41546 0.0
H534 H 0.42252 0.27751 0.62767 0.0
S535 S 0.36026 0.24228 0.52148 0.0
N536 N 0.37144 0.24549 0.40709 0.0
N537 N 0.37136 0.25033 0.63603 0.0
C538 C 0.38502 0.25613 0.5841 0.0
C539 C 0.38508 0.25338 0.45918 0.0
C540 C 0.03399 0.2915 0.42855 0.0
C541 C 0.04307 0.25625 0.51223 0.0
C542 C 1.01791 0.29451 0.42993 0.0
C543 C 1.01009 0.26238 0.51499 0.0
H544 H 0.03937 0.31719 0.36109 0.0
H545 H 1.01154 0.32248 0.36362 0.0
S546 S 0.02833 0.16581 0.75757 0.0
N547 N 0.04287 0.18985 0.68494 0.0
N548 N 1.01278 0.19543 0.68743 0.0
C549 C 1.01901 0.22657 0.59881 0.0
C550 C 0.03541 0.22353 0.59746 0.0
C551 C 1.01946 0.74034 0.47532 0.0
C552 C 1.01029 0.77413 0.55902 0.0
C553 C 0.03548 0.73981 0.47675 0.0
C554 C 0.04309 0.77308 0.5619 0.0
H555 H 1.01419 0.71453 0.40706 0.0
H556 H 0.04195 0.71378 0.40939 0.0
S557 S 1.02456 0.86518 0.80606 0.0
N558 N 1.01016 0.83928 0.73299 0.0
N559 N 0.04018 0.83831 0.73574 0.0
C560 C 0.03408 0.80656 0.64684 0.0
C561 C 1.01775 0.80711 0.64536 0.0
C562 C 0.53531 0.71419 1.03491 0.0
C563 C 0.54258 0.77035 1.03082 0.0
C564 C 0.51926 0.71527 1.03556 0.0
C565 C 0.50972 0.77255 1.03131 0.0
H566 H 0.54209 0.66893 0.04013 0.0
H567 H 0.51429 0.67067 1.03925 0.0
S568 S 0.52296 0.93292 1.01543 0.0
N569 N 0.5389 0.88494 1.01762 0.0
N570 N 0.50888 0.88703 1.02208 0.0
C571 C 0.51684 0.82902 1.02543 0.0
C572 C 0.53319 0.82791 1.02465 0.0
C573 C 0.5176 0.31493 1.03543 0.0
C574 C 0.51048 0.25905 0.05213 0.0
C575 C 0.53363 0.31453 1.03428 0.0
C576 C 0.54333 0.25827 0.05017 0.0
H577 H 0.51074 0.35937 1.02089 0.0
H578 H 0.53847 0.35893 1.02108 0.0
S579 S 0.53054 0.09912 0.10074 0.0
N580 N 0.51449 0.14602 0.08962 0.0
N581 N 0.54448 0.14498 0.08324 0.0
C582 C 0.53636 0.20213 0.06819 0.0
C583 C 0.52003 0.20257 0.0699 0.0
loop_
_geom_bond_atom_site_label_1
_geom_bond_atom_site_label_2
_geom_bond_distance
_geom_bond_site_symmetry_2
_ccdc_geom_bond_type
La0 C2 2.928 . S
La0 O20 2.521 . S
La0 O21 2.628 . S
La0 O22 2.554 . S
La0 O23 2.757 . S
La0 O24 2.470 . S
La0 O29 2.482 . S
La0 O31 2.503 . S
La1 C11 2.928 . S
La1 O23 2.482 . S
La1 O25 2.503 . S
La1 O26 2.521 . S
La1 O27 2.628 . S
La1 O28 2.554 . S
La1 O29 2.757 . S
La1 O30 2.470 . S
C2 La0 2.928 . S
C2 C3 1.503 . S
C2 O20 1.261 . S
C2 O21 1.243 . S
C3 C2 1.503 . S
C3 C4 1.394 . S
C3 C8 1.373 . S
C4 C3 1.394 . S
C4 C5 1.380 . S
C4 H32 0.930 . S
C5 C4 1.380 . S
C5 C6 1.376 . S
C5 H33 0.930 . S
C6 C5 1.376 . S
C6 C7 1.370 . S
C7 C6 1.370 . S
C7 C8 1.396 . S
C7 H34 0.929 . S
C8 C3 1.373 . S
C8 C7 1.396 . S
C8 H35 0.929 . S
C9 O22 1.240 . S
C9 O23 1.289 . S
C10 O24 1.258 . S
C10 O25 1.256 . S
C11 La1 2.928 . S
C11 C12 1.503 . S
C11 O26 1.261 . S
C11 O27 1.243 . S
C12 C11 1.503 . S
C12 C13 1.394 . S
C12 C17 1.373 . S
C13 C12 1.394 . S
C13 C14 1.380 . S
C13 H36 0.930 . S
C14 C13 1.380 . S
C14 C15 1.376 . S
C14 H37 0.930 . S
C15 C14 1.376 . S
C15 C16 1.370 . S
C16 C15 1.370 . S
C16 C17 1.396 . S
C16 H38 0.929 . S
C17 C12 1.373 . S
C17 C16 1.396 . S
C17 H39 0.929 . S
C18 O28 1.240 . S
C18 O29 1.289 . S
C19 O30 1.258 . S
C19 O31 1.256 . S
O20 La0 2.521 . S
O20 C2 1.261 . S
O21 La0 2.628 . S
O21 C2 1.243 . S
O22 La0 2.554 . S
O22 C9 1.240 . S
O23 La0 2.757 . S
O23 La1 2.482 . S
O23 C9 1.289 . S
O24 La0 2.470 . S
O24 C10 1.258 . S
O25 La1 2.503 . S
O25 C10 1.256 . S
O26 La1 2.521 . S
O26 C11 1.261 . S
O27 La1 2.628 . S
O27 C11 1.243 . S
O28 La1 2.554 . S
O28 C18 1.240 . S
O29 La0 2.482 . S
O29 La1 2.757 . S
O29 C18 1.289 . S
O30 La1 2.470 . S
O30 C19 1.258 . S
O31 La0 2.503 . S
O31 C19 1.256 . S
H32 C4 0.930 . S
H33 C5 0.930 . S
H34 C7 0.929 . S
H35 C8 0.929 . S
H36 C13 0.930 . S
H37 C14 0.930 . S
H38 C16 0.929 . S
H39 C17 0.929 . S
La40 C42 2.928 . S
La40 O60 2.521 . S
La40 O61 2.628 . S
La40 O62 2.554 . S
La40 O63 2.757 . S
La40 O64 2.470 . S
La40 O69 2.482 . S
La40 O71 2.503 . S
La41 C51 2.928 . S
La41 O63 2.482 . S
La41 O65 2.503 . S
La41 O66 2.521 . S
La41 O67 2.628 . S
La41 O68 2.554 . S
La41 O69 2.757 . S
La41 O70 2.470 . S
C42 La40 2.928 . S
C42 C43 1.503 . S
C42 O60 1.261 . S
C42 O61 1.243 . S
C43 C42 1.503 . S
C43 C44 1.394 . S
C43 C48 1.373 . S
C44 C43 1.394 . S
C44 C45 1.380 . S
C44 H72 0.930 . S
C45 C44 1.380 . S
C45 C46 1.376 . S
C45 H73 0.930 . S
C46 C45 1.376 . S
C46 C47 1.370 . S
C47 C46 1.370 . S
C47 C48 1.396 . S
C47 H74 0.929 . S
C48 C43 1.373 . S
C48 C47 1.396 . S
C48 H75 0.929 . S
C49 O62 1.240 . S
C49 O63 1.289 . S
C50 O64 1.258 . S
C50 O65 1.256 . S
C51 La41 2.928 . S
C51 C52 1.503 . S
C51 O66 1.261 . S
C51 O67 1.243 . S
C52 C51 1.503 . S
C52 C53 1.394 . S
C52 C57 1.373 . S
C53 C52 1.394 . S
C53 C54 1.380 . S
C53 H76 0.930 . S
C54 C53 1.380 . S
C54 C55 1.376 . S
C54 H77 0.930 . S
C55 C54 1.376 . S
C55 C56 1.370 . S
C56 C55 1.370 . S
C56 C57 1.396 . S
C56 H78 0.929 . S
C57 C52 1.373 . S
C57 C56 1.396 . S
C57 H79 0.929 . S
C58 O68 1.240 . S
C58 O69 1.289 . S
C59 O70 1.258 . S
C59 O71 1.256 . S
O60 La40 2.521 . S
O60 C42 1.261 . S
O61 La40 2.628 . S
O61 C42 1.243 . S
O62 La40 2.554 . S
O62 C49 1.240 . S
O63 La40 2.757 . S
O63 La41 2.482 . S
O63 C49 1.289 . S
O64 La40 2.470 . S
O64 C50 1.258 . S
O65 La41 2.503 . S
O65 C50 1.256 . S
O66 La41 2.521 . S
O66 C51 1.261 . S
O67 La41 2.628 . S
O67 C51 1.243 . S
O68 La41 2.554 . S
O68 C58 1.240 . S
O69 La40 2.482 . S
O69 La41 2.757 . S
O69 C58 1.289 . S
O70 La41 2.470 . S
O70 C59 1.258 . S
O71 La40 2.503 . S
O71 C59 1.256 . S
H72 C44 0.930 . S
H73 C45 0.930 . S
H74 C47 0.929 . S
H75 C48 0.929 . S
H76 C53 0.930 . S
H77 C54 0.930 . S
H78 C56 0.929 . S
H79 C57 0.929 . S
La80 C82 2.928 . S
La80 O100 2.521 . S
La80 O101 2.628 . S
La80 O102 2.554 . S
La80 O103 2.757 . S
La80 O104 2.470 . S
La80 O109 2.482 . S
La80 O111 2.503 . S
La81 C91 2.928 . S
La81 O103 2.482 . S
La81 O105 2.503 . S
La81 O106 2.521 . S
La81 O107 2.628 . S
La81 O108 2.554 . S
La81 O109 2.757 . S
La81 O110 2.470 . S
C82 La80 2.928 . S
C82 C83 1.503 . S
C82 O100 1.261 . S
C82 O101 1.243 . S
C83 C82 1.503 . S
C83 C84 1.394 . S
C83 C88 1.373 . S
C84 C83 1.394 . S
C84 C85 1.380 . S
C84 H112 0.930 . S
C85 C84 1.380 . S
C85 C86 1.376 . S
C85 H113 0.930 . S
C86 C85 1.376 . S
C86 C87 1.370 . S
C87 C86 1.370 . S
C87 C88 1.396 . S
C87 H114 0.929 . S
C88 C83 1.373 . S
C88 C87 1.396 . S
C88 H115 0.929 . S
C89 O102 1.240 . S
C89 O103 1.289 . S
C90 O104 1.258 . S
C90 O105 1.256 . S
C91 La81 2.928 . S
C91 C92 1.503 . S
C91 O106 1.261 . S
C91 O107 1.243 . S
C92 C91 1.503 . S
C92 C93 1.394 . S
C92 C97 1.373 . S
C93 C92 1.394 . S
C93 C94 1.380 . S
C93 H116 0.930 . S
C94 C93 1.380 . S
C94 C95 1.376 . S
C94 H117 0.930 . S
C95 C94 1.376 . S
C95 C96 1.370 . S
C96 C95 1.370 . S
C96 C97 1.396 . S
C96 H118 0.929 . S
C97 C92 1.373 . S
C97 C96 1.396 . S
C97 H119 0.929 . S
C98 O108 1.240 . S
C98 O109 1.289 . S
C99 O110 1.258 . S
C99 O111 1.256 . S
O100 La80 2.521 . S
O100 C82 1.261 . S
O101 La80 2.628 . S
O101 C82 1.243 . S
O102 La80 2.554 . S
O102 C89 1.240 . S
O103 La80 2.757 . S
O103 La81 2.482 . S
O103 C89 1.289 . S
O104 La80 2.470 . S
O104 C90 1.258 . S
O105 La81 2.503 . S
O105 C90 1.256 . S
O106 La81 2.521 . S
O106 C91 1.261 . S
O107 La81 2.628 . S
O107 C91 1.243 . S
O108 La81 2.554 . S
O108 C98 1.240 . S
O109 La80 2.482 . S
O109 La81 2.757 . S
O109 C98 1.289 . S
O110 La81 2.470 . S
O110 C99 1.258 . S
O111 La80 2.503 . S
O111 C99 1.256 . S
H112 C84 0.930 . S
H113 C85 0.930 . S
H114 C87 0.929 . S
H115 C88 0.929 . S
H116 C93 0.930 . S
H117 C94 0.930 . S
H118 C96 0.929 . S
H119 C97 0.929 . S
La120 C122 2.928 . S
La120 O140 2.521 . S
La120 O141 2.628 . S
La120 O142 2.554 . S
La120 O143 2.757 . S
La120 O144 2.470 . S
La120 O149 2.482 . S
La120 O151 2.503 . S
La121 C131 2.928 . S
La121 O143 2.482 . S
La121 O145 2.503 . S
La121 O146 2.521 . S
La121 O147 2.628 . S
La121 O148 2.554 . S
La121 O149 2.757 . S
La121 O150 2.470 . S
C122 La120 2.928 . S
C122 C123 1.503 . S
C122 O140 1.261 . S
C122 O141 1.243 . S
C123 C122 1.503 . S
C123 C124 1.394 . S
C123 C128 1.373 . S
C124 C123 1.394 . S
C124 C125 1.380 . S
C124 H152 0.930 . S
C125 C124 1.380 . S
C125 C126 1.376 . S
C125 H153 0.930 . S
C126 C125 1.376 . S
C126 C127 1.370 . S
C127 C126 1.370 . S
C127 C128 1.396 . S
C127 H154 0.929 . S
C128 C123 1.373 . S
C128 C127 1.396 . S
C128 H155 0.929 . S
C129 O142 1.240 . S
C129 O143 1.289 . S
C130 O144 1.258 . S
C130 O145 1.256 . S
C131 La121 2.928 . S
C131 C132 1.503 . S
C131 O146 1.261 . S
C131 O147 1.243 . S
C132 C131 1.503 . S
C132 C133 1.394 . S
C132 C137 1.373 . S
C133 C132 1.394 . S
C133 C134 1.380 . S
C133 H156 0.930 . S
C134 C133 1.380 . S
C134 C135 1.376 . S
C134 H157 0.930 . S
C135 C134 1.376 . S
C135 C136 1.370 . S
C136 C135 1.370 . S
C136 C137 1.396 . S
C136 H158 0.929 . S
C137 C132 1.373 . S
C137 C136 1.396 . S
C137 H159 0.929 . S
C138 O148 1.240 . S
C138 O149 1.289 . S
C139 O150 1.258 . S
C139 O151 1.256 . S
O140 La120 2.521 . S
O140 C122 1.261 . S
O141 La120 2.628 . S
O141 C122 1.243 . S
O142 La120 2.554 . S
O142 C129 1.240 . S
O143 La120 2.757 . S
O143 La121 2.482 . S
O143 C129 1.289 . S
O144 La120 2.470 . S
O144 C130 1.258 . S
O145 La121 2.503 . S
O145 C130 1.256 . S
O146 La121 2.521 . S
O146 C131 1.261 . S
O147 La121 2.628 . S
O147 C131 1.243 . S
O148 La121 2.554 . S
O148 C138 1.240 . S
O149 La120 2.482 . S
O149 La121 2.757 . S
O149 C138 1.289 . S
O150 La121 2.470 . S
O150 C139 1.258 . S
O151 La120 2.503 . S
O151 C139 1.256 . S
H152 C124 0.930 . S
H153 C125 0.930 . S
H154 C127 0.929 . S
H155 C128 0.929 . S
H156 C133 0.930 . S
H157 C134 0.930 . S
H158 C136 0.929 . S
H159 C137 0.929 . S
La160 C162 2.928 1_556 S
La160 O180 2.521 1_556 S
La160 O181 2.628 1_556 S
La160 O182 2.554 . S
La160 O183 2.757 . S
La160 O184 2.470 1_556 S
La160 O189 2.482 1_556 S
La160 O191 2.503 . S
La161 C171 2.928 1_554 S
La161 O183 2.482 1_554 S
La161 O185 2.503 . S
La161 O186 2.521 1_554 S
La161 O187 2.628 1_554 S
La161 O188 2.554 . S
La161 O189 2.757 . S
La161 O190 2.470 1_554 S
C162 La160 2.928 1_554 S
C162 C163 1.503 . S
C162 O180 1.261 . S
C162 O181 1.243 . S
C163 C162 1.503 . S
C163 C164 1.394 . S
C163 C168 1.373 . S
C164 C163 1.394 . S
C164 C165 1.380 . S
C164 H192 0.930 . S
C165 C164 1.380 . S
C165 C166 1.376 . S
C165 H193 0.930 . S
C166 C165 1.376 . S
C166 C167 1.370 . S
C167 C166 1.370 . S
C167 C168 1.396 . S
C167 H194 0.929 . S
C168 C163 1.373 . S
C168 C167 1.396 . S
C168 H195 0.929 . S
C169 O182 1.240 . S
C169 O183 1.289 . S
C170 O184 1.258 . S
C170 O185 1.256 . S
C171 La161 2.928 1_556 S
C171 C172 1.503 . S
C171 O186 1.261 . S
C171 O187 1.243 . S
C172 C171 1.503 . S
C172 C173 1.394 . S
C172 C177 1.373 . S
C173 C172 1.394 . S
C173 C174 1.380 . S
C173 H196 0.930 . S
C174 C173 1.380 . S
C174 C175 1.376 . S
C174 H197 0.930 . S
C175 C174 1.376 . S
C175 C176 1.370 . S
C176 C175 1.370 . S
C176 C177 1.396 . S
C176 H198 0.929 . S
C177 C172 1.373 . S
C177 C176 1.396 . S
C177 H199 0.929 . S
C178 O188 1.240 . S
C178 O189 1.289 . S
C179 O190 1.258 . S
C179 O191 1.256 . S
O180 La160 2.521 1_554 S
O180 C162 1.261 . S
O181 La160 2.628 1_554 S
O181 C162 1.243 . S
O182 La160 2.554 . S
O182 C169 1.240 . S
O183 La160 2.757 . S
O183 La161 2.482 1_556 S
O183 C169 1.289 . S
O184 La160 2.470 1_554 S
O184 C170 1.258 . S
O185 La161 2.503 . S
O185 C170 1.256 . S
O186 La161 2.521 1_556 S
O186 C171 1.261 . S
O187 La161 2.628 1_556 S
O187 C171 1.243 . S
O188 La161 2.554 . S
O188 C178 1.240 . S
O189 La160 2.482 1_554 S
O189 La161 2.757 . S
O189 C178 1.289 . S
O190 La161 2.470 1_556 S
O190 C179 1.258 . S
O191 La160 2.503 . S
O191 C179 1.256 . S
H192 C164 0.930 . S
H193 C165 0.930 . S
H194 C167 0.929 . S
H195 C168 0.929 . S
H196 C173 0.930 . S
H197 C174 0.930 . S
H198 C176 0.929 . S
H199 C177 0.929 . S
La200 C202 2.928 1_556 S
La200 O220 2.521 1_556 S
La200 O221 2.628 1_556 S
La200 O222 2.554 . S
La200 O223 2.757 . S
La200 O224 2.470 1_556 S
La200 O229 2.482 1_556 S
La200 O231 2.503 . S
La201 C211 2.928 1_554 S
La201 O223 2.482 1_554 S
La201 O225 2.503 . S
La201 O226 2.521 1_554 S
La201 O227 2.628 1_554 S
La201 O228 2.554 . S
La201 O229 2.757 . S
La201 O230 2.470 1_554 S
C202 La200 2.928 1_554 S
C202 C203 1.503 . S
C202 O220 1.261 . S
C202 O221 1.243 . S
C203 C202 1.503 . S
C203 C204 1.394 . S
C203 C208 1.373 . S
C204 C203 1.394 . S
C204 C205 1.380 . S
C204 H232 0.930 . S
C205 C204 1.380 . S
C205 C206 1.376 . S
C205 H233 0.930 . S
C206 C205 1.376 . S
C206 C207 1.370 . S
C207 C206 1.370 . S
C207 C208 1.396 . S
C207 H234 0.929 . S
C208 C203 1.373 . S
C208 C207 1.396 . S
C208 H235 0.929 . S
C209 O222 1.240 . S
C209 O223 1.289 . S
C210 O224 1.258 . S
C210 O225 1.256 . S
C211 La201 2.928 1_556 S
C211 C212 1.503 . S
C211 O226 1.261 . S
C211 O227 1.243 . S
C212 C211 1.503 . S
C212 C213 1.394 . S
C212 C217 1.373 . S
C213 C212 1.394 . S
C213 C214 1.380 . S
C213 H236 0.930 . S
C214 C213 1.380 . S
C214 C215 1.376 . S
C214 H237 0.930 . S
C215 C214 1.376 . S
C215 C216 1.370 . S
C216 C215 1.370 . S
C216 C217 1.396 . S
C216 H238 0.929 . S
C217 C212 1.373 . S
C217 C216 1.396 . S
C217 H239 0.929 . S
C218 O228 1.240 . S
C218 O229 1.289 . S
C219 O230 1.258 . S
C219 O231 1.256 . S
O220 La200 2.521 1_554 S
O220 C202 1.261 . S
O221 La200 2.628 1_554 S
O221 C202 1.243 . S
O222 La200 2.554 . S
O222 C209 1.240 . S
O223 La200 2.757 . S
O223 La201 2.482 1_556 S
O223 C209 1.289 . S
O224 La200 2.470 1_554 S
O224 C210 1.258 . S
O225 La201 2.503 . S
O225 C210 1.256 . S
O226 La201 2.521 1_556 S
O226 C211 1.261 . S
O227 La201 2.628 1_556 S
O227 C211 1.243 . S
O228 La201 2.554 . S
O228 C218 1.240 . S
O229 La200 2.482 1_554 S
O229 La201 2.757 . S
O229 C218 1.289 . S
O230 La201 2.470 1_556 S
O230 C219 1.258 . S
O231 La200 2.503 . S
O231 C219 1.256 . S
H232 C204 0.930 . S
H233 C205 0.930 . S
H234 C207 0.929 . S
H235 C208 0.929 . S
H236 C213 0.930 . S
H237 C214 0.930 . S
H238 C216 0.929 . S
H239 C217 0.929 . S
La240 C242 2.928 1_556 S
La240 O260 2.521 1_556 S
La240 O261 2.628 1_556 S
La240 O262 2.554 . S
La240 O263 2.757 . S
La240 O264 2.470 1_556 S
La240 O269 2.482 1_556 S
La240 O271 2.503 . S
La241 C251 2.928 1_554 S
La241 O263 2.482 1_554 S
La241 O265 2.503 . S
La241 O266 2.521 1_554 S
La241 O267 2.628 1_554 S
La241 O268 2.554 . S
La241 O269 2.757 . S
La241 O270 2.470 1_554 S
C242 La240 2.928 1_554 S
C242 C243 1.503 . S
C242 O260 1.261 . S
C242 O261 1.243 . S
C243 C242 1.503 . S
C243 C244 1.394 . S
C243 C248 1.373 . S
C244 C243 1.394 . S
C244 C245 1.380 . S
C244 H272 0.930 . S
C245 C244 1.380 . S
C245 C246 1.376 . S
C245 H273 0.930 . S
C246 C245 1.376 . S
C246 C247 1.370 . S
C247 C246 1.370 . S
C247 C248 1.396 . S
C247 H274 0.929 . S
C248 C243 1.373 . S
C248 C247 1.396 . S
C248 H275 0.929 . S
C249 O262 1.240 . S
C249 O263 1.289 . S
C250 O264 1.258 . S
C250 O265 1.256 . S
C251 La241 2.928 1_556 S
C251 C252 1.503 . S
C251 O266 1.261 . S
C251 O267 1.243 . S
C252 C251 1.503 . S
C252 C253 1.394 . S
C252 C257 1.373 . S
C253 C252 1.394 . S
C253 C254 1.380 . S
C253 H276 0.930 . S
C254 C253 1.380 . S
C254 C255 1.376 . S
C254 H277 0.930 . S
C255 C254 1.376 . S
C255 C256 1.370 . S
C256 C255 1.370 . S
C256 C257 1.396 . S
C256 H278 0.929 . S
C257 C252 1.373 . S
C257 C256 1.396 . S
C257 H279 0.929 . S
C258 O268 1.240 . S
C258 O269 1.289 . S
C259 O270 1.258 . S
C259 O271 1.256 . S
O260 La240 2.521 1_554 S
O260 C242 1.261 . S
O261 La240 2.628 1_554 S
O261 C242 1.243 . S
O262 La240 2.554 . S
O262 C249 1.240 . S
O263 La240 2.757 . S
O263 La241 2.482 1_556 S
O263 C249 1.289 . S
O264 La240 2.470 1_554 S
O264 C250 1.258 . S
O265 La241 2.503 . S
O265 C250 1.256 . S
O266 La241 2.521 1_556 S
O266 C251 1.261 . S
O267 La241 2.628 1_556 S
O267 C251 1.243 . S
O268 La241 2.554 . S
O268 C258 1.240 . S
O269 La240 2.482 1_554 S
O269 La241 2.757 . S
O269 C258 1.289 . S
O270 La241 2.470 1_556 S
O270 C259 1.258 . S
O271 La240 2.503 . S
O271 C259 1.256 . S
H272 C244 0.930 . S
H273 C245 0.930 . S
H274 C247 0.929 . S
H275 C248 0.929 . S
H276 C253 0.930 . S
H277 C254 0.930 . S
H278 C256 0.929 . S
H279 C257 0.929 . S
La280 C282 2.928 1_556 S
La280 O300 2.521 1_556 S
La280 O301 2.628 1_556 S
La280 O302 2.554 . S
La280 O303 2.757 . S
La280 O304 2.470 1_556 S
La280 O309 2.482 1_556 S
La280 O311 2.503 . S
La281 C291 2.928 1_554 S
La281 O303 2.482 1_554 S
La281 O305 2.503 . S
La281 O306 2.521 1_554 S
La281 O307 2.628 1_554 S
La281 O308 2.554 . S
La281 O309 2.757 . S
La281 O310 2.470 1_554 S
C282 La280 2.928 1_554 S
C282 C283 1.503 . S
C282 O300 1.261 . S
C282 O301 1.243 . S
C283 C282 1.503 . S
C283 C284 1.394 . S
C283 C288 1.373 . S
C284 C283 1.394 . S
C284 C285 1.380 . S
C284 H312 0.930 . S
C285 C284 1.380 . S
C285 C286 1.376 . S
C285 H313 0.930 . S
C286 C285 1.376 . S
C286 C287 1.370 . S
C287 C286 1.370 . S
C287 C288 1.396 . S
C287 H314 0.929 . S
C288 C283 1.373 . S
C288 C287 1.396 . S
C288 H315 0.929 . S
C289 O302 1.240 . S
C289 O303 1.289 . S
C290 O304 1.258 . S
C290 O305 1.256 . S
C291 La281 2.928 1_556 S
C291 C292 1.503 . S
C291 O306 1.261 . S
C291 O307 1.243 . S
C292 C291 1.503 . S
C292 C293 1.394 . S
C292 C297 1.373 . S
C293 C292 1.394 . S
C293 C294 1.380 . S
C293 H316 0.930 . S
C294 C293 1.380 . S
C294 C295 1.376 . S
C294 H317 0.930 . S
C295 C294 1.376 . S
C295 C296 1.370 . S
C296 C295 1.370 . S
C296 C297 1.396 . S
C296 H318 0.929 . S
C297 C292 1.373 . S
C297 C296 1.396 . S
C297 H319 0.929 . S
C298 O308 1.240 . S
C298 O309 1.289 . S
C299 O310 1.258 . S
C299 O311 1.256 . S
O300 La280 2.521 1_554 S
O300 C282 1.261 . S
O301 La280 2.628 1_554 S
O301 C282 1.243 . S
O302 La280 2.554 . S
O302 C289 1.240 . S
O303 La280 2.757 . S
O303 La281 2.482 1_556 S
O303 C289 1.289 . S
O304 La280 2.470 1_554 S
O304 C290 1.258 . S
O305 La281 2.503 . S
O305 C290 1.256 . S
O306 La281 2.521 1_556 S
O306 C291 1.261 . S
O307 La281 2.628 1_556 S
O307 C291 1.243 . S
O308 La281 2.554 . S
O308 C298 1.240 . S
O309 La280 2.482 1_554 S
O309 La281 2.757 . S
O309 C298 1.289 . S
O310 La281 2.470 1_556 S
O310 C299 1.258 . S
O311 La280 2.503 . S
O311 C299 1.256 . S
H312 C284 0.930 . S
H313 C285 0.930 . S
H314 C287 0.929 . S
H315 C288 0.929 . S
H316 C293 0.930 . S
H317 C294 0.930 . S
H318 C296 0.929 . S
H319 C297 0.929 . S
C320 C321 1.369 . S
C320 C322 1.419 . S
C320 H324 0.930 . S
C321 C320 1.369 . S
C321 C330 1.429 . S
C322 C320 1.419 . S
C322 C323 1.363 . S
C322 H325 0.929 . S
C323 C322 1.363 . S
C323 C329 1.428 . S
H324 C320 0.930 . S
H325 C322 0.929 . S
S326 N327 1.613 . S
S326 N328 1.610 . S
N327 S326 1.613 . S
N327 C330 1.350 . S
N328 S326 1.610 . S
N328 C329 1.351 . S
C329 C323 1.428 . S
C329 N328 1.351 . S
C329 C330 1.434 . S
C330 C321 1.429 . S
C330 N327 1.350 . S
C330 C329 1.434 . S
C331 C332 1.369 . S
C331 C333 1.419 . S
C331 H335 0.930 . S
C332 C331 1.369 . S
C332 C341 1.429 . S
C333 C331 1.419 . S
C333 C334 1.363 . S
C333 H336 0.929 . S
C334 C333 1.363 . S
C334 C340 1.428 . S
H335 C331 0.930 . S
H336 C333 0.929 . S
S337 N338 1.613 . S
S337 N339 1.610 . S
N338 S337 1.613 . S
N338 C341 1.350 . S
N339 S337 1.610 . S
N339 C340 1.351 . S
C340 C334 1.428 . S
C340 N339 1.351 . S
C340 C341 1.434 . S
C341 C332 1.429 . S
C341 N338 1.350 . S
C341 C340 1.434 . S
C342 C343 1.369 . S
C342 C344 1.419 . S
C342 H346 0.930 . S
C343 C342 1.369 . S
C343 C352 1.429 . S
C344 C342 1.419 . S
C344 C345 1.363 . S
C344 H347 0.929 . S
C345 C344 1.363 . S
C345 C351 1.428 . S
H346 C342 0.930 . S
H347 C344 0.929 . S
S348 N349 1.613 . S
S348 N350 1.610 . S
N349 S348 1.613 . S
N349 C352 1.350 . S
N350 S348 1.610 . S
N350 C351 1.351 . S
C351 C345 1.428 . S
C351 N350 1.351 . S
C351 C352 1.434 . S
C352 C343 1.429 . S
C352 N349 1.350 . S
C352 C351 1.434 . S
C353 C354 1.369 . S
C353 C355 1.419 . S
C353 H357 0.930 . S
C354 C353 1.369 . S
C354 C363 1.429 . S
C355 C353 1.419 . S
C355 C356 1.363 . S
C355 H358 0.929 . S
C356 C355 1.363 . S
C356 C362 1.428 . S
H357 C353 0.930 . S
H358 C355 0.929 . S
S359 N360 1.613 . S
S359 N361 1.610 . S
N360 S359 1.613 . S
N360 C363 1.350 . S
N361 S359 1.610 . S
N361 C362 1.351 . S
C362 C356 1.428 . S
C362 N361 1.351 . S
C362 C363 1.434 . S
C363 C354 1.429 . S
C363 N360 1.350 . S
C363 C362 1.434 . S
C364 C365 1.369 . S
C364 C366 1.419 1_565 S
C364 H368 0.930 . S
C365 C364 1.369 . S
C365 C374 1.429 . S
C366 C364 1.419 1_545 S
C366 C367 1.363 . S
C366 H369 0.929 . S
C367 C366 1.363 . S
C367 C373 1.428 . S
H368 C364 0.930 . S
H369 C366 0.929 . S
S370 N371 1.613 . S
S370 N372 1.610 1_565 S
N371 S370 1.613 . S
N371 C374 1.350 . S
N372 S370 1.610 1_545 S
N372 C373 1.351 . S
C373 C367 1.428 . S
C373 N372 1.351 . S
C373 C374 1.434 1_545 S
C374 C365 1.429 . S
C374 N371 1.350 . S
C374 C373 1.434 1_565 S
C375 C376 1.369 . S
C375 C377 1.419 . S
C375 H379 0.930 . S
C376 C375 1.369 . S
C376 C385 1.429 . S
C377 C375 1.419 . S
C377 C378 1.363 . S
C377 H380 0.929 . S
C378 C377 1.363 . S
C378 C384 1.428 . S
H379 C375 0.930 . S
H380 C377 0.929 . S
S381 N382 1.613 . S
S381 N383 1.610 . S
N382 S381 1.613 . S
N382 C385 1.350 . S
N383 S381 1.610 . S
N383 C384 1.351 . S
C384 C378 1.428 . S
C384 N383 1.351 . S
C384 C385 1.434 . S
C385 C376 1.429 . S
C385 N382 1.350 . S
C385 C384 1.434 . S
C386 C387 1.369 . S
C386 C388 1.419 1_565 S
C386 H390 0.930 . S
C387 C386 1.369 . S
C387 C396 1.429 . S
C388 C386 1.419 1_545 S
C388 C389 1.363 . S
C388 H391 0.929 . S
C389 C388 1.363 . S
C389 C395 1.428 . S
H390 C386 0.930 . S
H391 C388 0.929 . S
S392 N393 1.613 . S
S392 N394 1.610 1_565 S
N393 S392 1.613 . S
N393 C396 1.350 . S
N394 S392 1.610 1_545 S
N394 C395 1.351 . S
C395 C389 1.428 . S
C395 N394 1.351 . S
C395 C396 1.434 1_545 S
C396 C387 1.429 . S
C396 N393 1.350 . S
C396 C395 1.434 1_565 S
C397 C398 1.369 . S
C397 C399 1.419 . S
C397 H401 0.930 . S
C398 C397 1.369 . S
C398 C407 1.429 . S
C399 C397 1.419 . S
C399 C400 1.363 . S
C399 H402 0.929 . S
C400 C399 1.363 . S
C400 C406 1.428 . S
H401 C397 0.930 . S
H402 C399 0.929 . S
S403 N404 1.613 . S
S403 N405 1.610 . S
N404 S403 1.613 . S
N404 C407 1.350 . S
N405 S403 1.610 . S
N405 C406 1.351 . S
C406 C400 1.428 . S
C406 N405 1.351 . S
C406 C407 1.434 . S
C407 C398 1.429 . S
C407 N404 1.350 . S
C407 C406 1.434 . S
C408 C409 1.369 . S
C408 C410 1.419 . S
C408 H412 0.930 . S
C409 C408 1.369 . S
C409 C418 1.429 1_556 S
C410 C408 1.419 . S
C410 C411 1.363 . S
C410 H413 0.929 . S
C411 C410 1.363 . S
C411 C417 1.428 1_556 S
H412 C408 0.930 . S
H413 C410 0.929 . S
S414 N415 1.613 . S
S414 N416 1.610 . S
N415 S414 1.613 . S
N415 C418 1.350 . S
N416 S414 1.610 . S
N416 C417 1.351 . S
C417 C411 1.428 1_554 S
C417 N416 1.351 . S
C417 C418 1.434 . S
C418 C409 1.429 1_554 S
C418 N415 1.350 . S
C418 C417 1.434 . S
C419 C420 1.369 1_554 S
C419 C421 1.419 1_565 S
C419 H423 0.930 . S
C420 C419 1.369 1_556 S
C420 C429 1.429 . S
C421 C419 1.419 1_545 S
C421 C422 1.363 1_554 S
C421 H424 0.929 . S
C422 C421 1.363 1_556 S
C422 C428 1.428 . S
H423 C419 0.930 . S
H424 C421 0.929 . S
S425 N426 1.624 . S
S425 N427 1.599 1_565 S
N426 S425 1.624 . S
N426 C429 1.350 . S
N427 S425 1.599 1_545 S
N427 C428 1.351 . S
C428 C422 1.428 . S
C428 N427 1.351 . S
C428 C429 1.434 1_545 S
C429 C420 1.429 . S
C429 N426 1.350 . S
C429 C428 1.434 1_565 S
C430 C431 1.369 . S
C430 C432 1.419 . S
C430 H434 0.930 . S
C431 C430 1.369 . S
C431 C440 1.429 1_554 S
C432 C430 1.419 . S
C432 C433 1.363 . S
C432 H435 0.929 . S
C433 C432 1.363 . S
C433 C439 1.428 1_554 S
H434 C430 0.930 . S
H435 C432 0.929 . S
S436 N437 1.613 . S
S436 N438 1.610 . S
N437 S436 1.613 . S
N437 C440 1.350 . S
N438 S436 1.610 . S
N438 C439 1.351 . S
C439 C433 1.428 1_556 S
C439 N438 1.351 . S
C439 C440 1.434 . S
C440 C431 1.429 1_556 S
C440 N437 1.350 . S
C440 C439 1.434 . S
C441 C442 1.369 1_556 S
C441 C443 1.419 1_545 S
C441 H445 0.930 . S
C442 C441 1.369 1_554 S
C442 C451 1.429 . S
C443 C441 1.419 1_565 S
C443 C444 1.363 1_556 S
C443 H446 0.929 . S
C444 C443 1.363 1_554 S
C444 C450 1.428 . S
H445 C441 0.930 . S
H446 C443 0.929 . S
S447 N448 1.613 . S
S447 N449 1.610 1_545 S
N448 S447 1.613 . S
N448 C451 1.350 . S
N449 S447 1.610 1_565 S
N449 C450 1.351 . S
C450 C444 1.428 . S
C450 N449 1.351 . S
C450 C451 1.434 1_565 S
C451 C442 1.429 . S
C451 N448 1.350 . S
C451 C450 1.434 1_545 S
C452 C453 1.369 1_556 S
C452 C454 1.419 . S
C452 H456 0.930 1_556 S
C453 C452 1.369 1_554 S
C453 C462 1.429 1_554 S
C454 C452 1.419 . S
C454 C455 1.363 . S
C454 H457 0.929 . S
C455 C454 1.363 . S
C455 C461 1.428 . S
H456 C452 0.930 1_554 S
H457 C454 0.929 . S
S458 N459 1.613 . S
S458 N460 1.610 . S
N459 S458 1.613 . S
N459 C462 1.350 . S
N460 S458 1.610 . S
N460 C461 1.351 . S
C461 C455 1.428 . S
C461 N460 1.351 . S
C461 C462 1.434 . S
C462 C453 1.429 1_556 S
C462 N459 1.350 . S
C462 C461 1.434 . S
C463 C464 1.369 1_556 S
C463 C465 1.419 . S
C463 H467 0.930 1_556 S
C464 C463 1.369 1_554 S
C464 C473 1.429 1_554 S
C465 C463 1.419 . S
C465 C466 1.363 . S
C465 H468 0.929 . S
C466 C465 1.363 . S
C466 C472 1.428 . S
H467 C463 0.930 1_554 S
H468 C465 0.929 . S
S469 N470 1.613 1_556 S
S469 N471 1.610 . S
N470 S469 1.613 1_554 S
N470 C473 1.350 1_554 S
N471 S469 1.610 . S
N471 C472 1.351 . S
C472 C466 1.428 . S
C472 N471 1.351 . S
C472 C473 1.434 . S
C473 C464 1.429 1_556 S
C473 N470 1.350 1_556 S
C473 C472 1.434 . S
C474 C475 1.369 . S
C474 C476 1.419 . S
C474 H478 0.930 . S
C475 C474 1.369 . S
C475 C484 1.429 . S
C476 C474 1.419 . S
C476 C477 1.363 1_554 S
C476 H479 0.929 1_554 S
C477 C476 1.363 1_556 S
C477 C483 1.428 1_556 S
H478 C474 0.930 . S
H479 C476 0.929 1_556 S
S480 N481 1.613 . S
S480 N482 1.610 . S
N481 S480 1.613 . S
N481 C484 1.350 . S
N482 S480 1.610 . S
N482 C483 1.351 . S
C483 C477 1.428 1_554 S
C483 N482 1.351 . S
C483 C484 1.434 . S
C484 C475 1.429 . S
C484 N481 1.350 . S
C484 C483 1.434 . S
C485 C486 1.366 1_554 S
C485 C487 1.428 . S
C485 H489 0.923 1_554 S
C486 C485 1.366 1_556 S
C486 C495 1.429 1_556 S
C487 C485 1.428 . S
C487 C488 1.363 . S
C487 H490 0.929 . S
C488 C487 1.363 . S
C488 C494 1.428 . S
H489 C485 0.923 1_556 S
H490 C487 0.929 . S
S491 N492 1.613 . S
S491 N493 1.610 . S
N492 S491 1.613 . S
N492 C495 1.350 . S
N493 S491 1.610 . S
N493 C494 1.351 . S
C494 C488 1.428 . S
C494 N493 1.351 . S
C494 C495 1.434 . S
C495 C486 1.429 1_554 S
C495 N492 1.350 . S
C495 C494 1.434 . S
C496 C497 1.369 . S
C496 C498 1.419 . S
C496 H500 0.930 . S
C497 C496 1.369 . S
C497 C506 1.429 . S
C498 C496 1.419 . S
C498 C499 1.363 . S
C498 H501 0.929 . S
C499 C498 1.363 . S
C499 C505 1.428 . S
H500 C496 0.930 . S
H501 C498 0.929 . S
S502 N503 1.613 . S
S502 N504 1.610 . S
N503 S502 1.613 . S
N503 C506 1.350 . S
N504 S502 1.610 . S
N504 C505 1.351 . S
C505 C499 1.428 . S
C505 N504 1.351 . S
C505 C506 1.434 . S
C506 C497 1.429 . S
C506 N503 1.350 . S
C506 C505 1.434 . S
C507 C508 1.369 . S
C507 C509 1.419 . S
C507 H511 0.930 . S
C508 C507 1.369 . S
C508 C517 1.429 . S
C509 C507 1.419 . S
C509 C510 1.363 . S
C509 H512 0.929 . S
C510 C509 1.363 . S
C510 C516 1.428 . S
H511 C507 0.930 . S
H512 C509 0.929 . S
S513 N514 1.613 . S
S513 N515 1.610 . S
N514 S513 1.613 . S
N514 C517 1.350 . S
N515 S513 1.610 . S
N515 C516 1.351 . S
C516 C510 1.428 . S
C516 N515 1.351 . S
C516 C517 1.434 . S
C517 C508 1.429 . S
C517 N514 1.350 . S
C517 C516 1.434 . S
C518 C519 1.369 . S
C518 C520 1.419 . S
C518 H522 0.930 . S
C519 C518 1.369 . S
C519 C528 1.429 . S
C520 C518 1.419 . S
C520 C521 1.363 . S
C520 H523 0.929 . S
C521 C520 1.363 . S
C521 C527 1.428 . S
H522 C518 0.930 . S
H523 C520 0.929 . S
S524 N525 1.613 . S
S524 N526 1.610 . S
N525 S524 1.613 . S
N525 C528 1.350 . S
N526 S524 1.610 . S
N526 C527 1.351 . S
C527 C521 1.428 . S
C527 N526 1.351 . S
C527 C528 1.434 . S
C528 C519 1.429 . S
C528 N525 1.350 . S
C528 C527 1.434 . S
C529 C530 1.369 . S
C529 C531 1.419 . S
C529 H533 0.930 . S
C530 C529 1.369 . S
C530 C539 1.429 . S
C531 C529 1.419 . S
C531 C532 1.363 . S
C531 H534 0.929 . S
C532 C531 1.363 . S
C532 C538 1.428 . S
H533 C529 0.930 . S
H534 C531 0.929 . S
S535 N536 1.613 . S
S535 N537 1.610 . S
N536 S535 1.613 . S
N536 C539 1.350 . S
N537 S535 1.610 . S
N537 C538 1.351 . S
C538 C532 1.428 . S
C538 N537 1.351 . S
C538 C539 1.434 . S
C539 C530 1.429 . S
C539 N536 1.350 . S
C539 C538 1.434 . S
C540 C541 1.369 . S
C540 C542 1.419 1_455 S
C540 H544 0.930 . S
C541 C540 1.369 . S
C541 C550 1.429 . S
C542 C540 1.419 1_655 S
C542 C543 1.363 . S
C542 H545 0.929 . S
C543 C542 1.363 . S
C543 C549 1.428 . S
H544 C540 0.930 . S
H545 C542 0.929 . S
S546 N547 1.613 . S
S546 N548 1.610 1_455 S
N547 S546 1.613 . S
N547 C550 1.350 . S
N548 S546 1.610 1_655 S
N548 C549 1.351 . S
C549 C543 1.428 . S
C549 N548 1.351 . S
C549 C550 1.434 1_655 S
C550 C541 1.429 . S
C550 N547 1.350 . S
C550 C549 1.434 1_455 S
C551 C552 1.369 . S
C551 C553 1.419 1_655 S
C551 H555 0.930 . S
C552 C551 1.369 . S
C552 C561 1.429 . S
C553 C551 1.419 1_455 S
C553 C554 1.363 . S
C553 H556 0.929 . S
C554 C553 1.363 . S
C554 C560 1.428 . S
H555 C551 0.930 . S
H556 C553 0.929 . S
S557 N558 1.614 . S
S557 N559 1.611 1_655 S
N558 S557 1.614 . S
N558 C561 1.350 . S
N559 S557 1.611 1_455 S
N559 C560 1.351 . S
C560 C554 1.428 . S
C560 N559 1.351 . S
C560 C561 1.434 1_455 S
C561 C552 1.429 . S
C561 N558 1.350 . S
C561 C560 1.434 1_655 S
C562 C563 1.369 . S
C562 C564 1.419 . S
C562 H566 0.930 . S
C563 C562 1.369 . S
C563 C572 1.429 . S
C564 C562 1.419 . S
C564 C565 1.363 . S
C564 H567 0.929 . S
C565 C564 1.363 . S
C565 C571 1.428 . S
H566 C562 0.930 . S
H567 C564 0.929 . S
S568 N569 1.613 . S
S568 N570 1.610 . S
N569 S568 1.613 . S
N569 C572 1.350 . S
N570 S568 1.610 . S
N570 C571 1.351 . S
C571 C565 1.428 . S
C571 N570 1.351 . S
C571 C572 1.434 . S
C572 C563 1.429 . S
C572 N569 1.350 . S
C572 C571 1.434 . S
C573 C574 1.369 . S
C573 C575 1.419 . S
C573 H577 0.930 . S
C574 C573 1.369 . S
C574 C583 1.429 . S
C575 C573 1.419 . S
C575 C576 1.363 . S
C575 H578 0.929 . S
C576 C575 1.363 . S
C576 C582 1.428 . S
H577 C573 0.930 . S
H578 C575 0.929 . S
S579 N580 1.613 . S
S579 N581 1.610 . S
N580 S579 1.613 . S
N580 C583 1.350 . S
N581 S579 1.610 . S
N581 C582 1.351 . S
C582 C576 1.428 . S
C582 N581 1.351 . S
C582 C583 1.434 . S
C583 C574 1.429 . S
C583 N580 1.350 . S
C583 C582 1.434 . S
C321 C6 1.699 . S
C323 C295 1.695 . S
C332 C255 1.694 . S
C334 C46 1.698 . S
C343 C206 1.694 . S
C345 C95 1.698 . S
C354 C166 1.698 . S
C356 C135 1.695 . S
C365 C89 1.599 . S
C367 C9 1.634 . S
C376 C49 1.632 . S
C378 C129 1.602 . S
C387 C138 1.638 . S
C389 C58 1.598 . S
C398 C98 1.632 . S
C400 C18 1.603 . S
C409 C169 1.440 . S
C411 C249 1.436 . S
C420 C209 1.439 . S
C422 C289 1.436 . S
C431 C298 1.438 . S
C433 C218 1.438 . S
C442 C258 1.436 . S
C444 C178 1.436 . S
C453 C19 2.046 . S
C455 C10 2.042 . S
C464 C59 2.045 . S
C466 C50 2.043 . S
C475 C99 2.042 . S
C477 C90 2.046 . S
C486 C130 2.047 . S
C488 C139 2.042 . S
C497 C170 2.040 . S
C499 C179 2.046 . S
C508 C219 2.041 . S
C510 C210 2.045 . S
C519 C250 2.045 . S
C521 C259 2.043 . S
C530 C290 2.045 . S
C532 C299 2.042 . S
C541 C15 2.236 . S
C543 C55 2.236 . S
C552 C126 2.237 . S
C554 C86 2.237 . S
C563 C175 2.237 . S
C565 C215 2.238 . S
C574 C286 2.239 . S
C576 C246 2.239 . S
