# Generated by pormake.
# Topology fcu, (12)-cn, num edge types: 1
# Building blocks:
#     Node 0, Type 0, BuildingBlock: ZALLEG_clean_sbu_0, # of connection points: 12
#     Node 1, Type 0, BuildingBlock: ZALLEG_clean_sbu_0, # of connection points: 12
#     Node 2, Type 0, BuildingBlock: ZALLEG_clean_sbu_0, # of connection points: 12
#     Node 3, Type 0, BuildingBlock: ZALLEG_clean_sbu_0, # of connection points: 12
#     Edge 4, Type (0, 0), BuildingBlock: OJICUG_clean_linker_0, # of connection points: 2
#     Edge 5, Type (0, 0), BuildingBlock: OJICUG_clean_linker_0, # of connection points: 2
#     Edge 6, Type (0, 0), BuildingBlock: OJICUG_clean_linker_0, # of connection points: 2
#     Edge 7, Type (0, 0), BuildingBlock: OJICUG_clean_linker_0, # of connection points: 2
#     Edge 8, Type (0, 0), BuildingBlock: OJICUG_clean_linker_0, # of connection points: 2
#     Edge 9, Type (0, 0), BuildingBlock: OJICUG_clean_linker_0, # of connection points: 2
#     Edge 10, Type (0, 0), BuildingBlock: OJICUG_clean_linker_0, # of connection points: 2
#     Edge 11, Type (0, 0), BuildingBlock: OJICUG_clean_linker_0, # of connection points: 2
#     Edge 12, Type (0, 0), BuildingBlock: OJICUG_clean_linker_0, # of connection points: 2
#     Edge 13, Type (0, 0), BuildingBlock: OJICUG_clean_linker_0, # of connection points: 2
#     Edge 14, Type (0, 0), BuildingBlock: OJICUG_clean_linker_0, # of connection points: 2
#     Edge 15, Type (0, 0), BuildingBlock: OJICUG_clean_linker_0, # of connection points: 2
#     Edge 16, Type (0, 0), BuildingBlock: OJICUG_clean_linker_0, # of connection points: 2
#     Edge 17, Type (0, 0), BuildingBlock: OJICUG_clean_linker_0, # of connection points: 2
#     Edge 18, Type (0, 0), BuildingBlock: OJICUG_clean_linker_0, # of connection points: 2
#     Edge 19, Type (0, 0), BuildingBlock: OJICUG_clean_linker_0, # of connection points: 2
#     Edge 20, Type (0, 0), BuildingBlock: OJICUG_clean_linker_0, # of connection points: 2
#     Edge 21, Type (0, 0), BuildingBlock: OJICUG_clean_linker_0, # of connection points: 2
#     Edge 22, Type (0, 0), BuildingBlock: OJICUG_clean_linker_0, # of connection points: 2
#     Edge 23, Type (0, 0), BuildingBlock: OJICUG_clean_linker_0, # of connection points: 2
#     Edge 24, Type (0, 0), BuildingBlock: OJICUG_clean_linker_0, # of connection points: 2
#     Edge 25, Type (0, 0), BuildingBlock: OJICUG_clean_linker_0, # of connection points: 2
#     Edge 26, Type (0, 0), BuildingBlock: OJICUG_clean_linker_0, # of connection points: 2
#     Edge 27, Type (0, 0), BuildingBlock: OJICUG_clean_linker_0, # of connection points: 2
# Relax obj value: 0.000
# Max RMSD: 0.000
# Mean RMSD: 0.000
data_MOF--net-fcu--node1-ZALLEG_clean_sbu_0--edge1-OJICUG_clean_linker_0
_symmetry_space_group_name_H-M    P1
_symmetry_Int_Tables_number       1
_symmetry_cell_setting            triclinic
loop_
_symmetry_equiv_pos_as_xyz
'x, y, z'
_cell_length_a     20.683455
_cell_length_b     20.683691
_cell_length_c     20.683601
_cell_angle_alpha  90.000001
_cell_angle_beta   90.0
_cell_angle_gamma 90.000004
loop_
_atom_site_label
_atom_site_type_symbol
_atom_site_fract_x
_atom_site_fract_y
_atom_site_fract_z
_atom_type_partial_charge
H0 H 0.93122 0.93123 0.93124 0.0
O1 O 0.95879 0.9588 0.95881 0.0
Tb2 Tb 0.90171 0.01824 0.01825 0.0
Tb3 Tb 0.01824 0.90171 0.01825 0.0
Tb4 Tb 0.01824 0.01824 0.90171 0.0
O5 O 0.9588 0.95881 0.0777 0.0
O6 O 0.95879 0.07769 0.9588 0.0
O7 O 0.9588 0.07769 0.07769 0.0
O8 O 0.07769 0.95881 0.07769 0.0
O9 O 0.07768 0.07768 0.9588 0.0
O10 O 0.07768 0.9588 0.9588 0.0
H11 H 0.93124 0.93124 0.10527 0.0
H12 H 0.93123 0.10526 0.93124 0.0
Tb13 Tb 0.01825 0.01825 0.13478 0.0
Tb14 Tb 0.01824 0.13478 0.01824 0.0
H15 H 0.93124 0.10526 0.10526 0.0
H16 H 0.10526 0.93124 0.10526 0.0
Tb17 Tb 0.13477 0.01824 0.01824 0.0
H18 H 0.10525 0.10525 0.93123 0.0
H19 H 0.10525 0.93123 0.93123 0.0
O20 O 0.07769 0.07769 0.07768 0.0
H21 H 0.10526 0.10526 0.10524 0.0
O22 O 0.84605 0.92768 0.01827 0.0
O23 O 0.19042 0.10881 0.01824 0.0
O24 O 0.19043 0.92768 0.01824 0.0
O25 O 0.84605 0.1088 0.01826 0.0
O26 O 0.01824 0.84606 0.92769 0.0
O27 O 0.01825 0.19043 0.1088 0.0
O28 O 0.01824 0.19043 0.92767 0.0
O29 O 0.01825 0.84607 0.10882 0.0
O30 O 0.92767 0.01825 0.84607 0.0
O31 O 0.10882 0.01827 0.19042 0.0
O32 O 0.92769 0.01826 0.19044 0.0
O33 O 0.1088 0.01825 0.84606 0.0
O34 O 0.92767 0.84606 0.01826 0.0
O35 O 0.1088 0.19043 0.01824 0.0
O36 O 0.92768 0.19043 0.01825 0.0
O37 O 0.1088 0.84606 0.01825 0.0
O38 O 0.84606 0.01826 0.10882 0.0
O39 O 0.19042 0.01825 0.92768 0.0
O40 O 0.19043 0.01826 0.1088 0.0
O41 O 0.84605 0.01825 0.92769 0.0
O42 O 0.01826 0.9277 0.19044 0.0
O43 O 0.01824 0.1088 0.84606 0.0
O44 O 0.01824 0.92767 0.84606 0.0
O45 O 0.01826 0.10882 0.19042 0.0
C46 C 0.8661 0.86611 0.01827 0.0
C47 C 0.17037 0.17038 0.01824 0.0
C48 C 0.17037 0.86611 0.01825 0.0
C49 C 0.8661 0.17038 0.01826 0.0
C50 C 0.01825 0.8661 0.86612 0.0
C51 C 0.01826 0.17039 0.17037 0.0
C52 C 0.01824 0.17037 0.8661 0.0
C53 C 0.01826 0.86612 0.17039 0.0
C54 C 0.8661 0.01826 0.86612 0.0
C55 C 0.17039 0.01827 0.17037 0.0
C56 C 0.86612 0.01827 0.17039 0.0
C57 C 0.17037 0.01826 0.8661 0.0
H58 H 0.93123 0.43124 0.43122 0.0
O59 O 0.9588 0.45881 0.45879 0.0
Tb60 Tb 0.90172 0.51825 0.51823 0.0
Tb61 Tb 0.01824 0.40171 0.51823 0.0
Tb62 Tb 0.01825 0.51824 0.4017 0.0
O63 O 0.9588 0.4588 0.57767 0.0
O64 O 0.95881 0.57769 0.45879 0.0
O65 O 0.95881 0.57769 0.57768 0.0
O66 O 0.07768 0.45879 0.57767 0.0
O67 O 0.0777 0.57767 0.4588 0.0
O68 O 0.07768 0.45879 0.45879 0.0
H69 H 0.93123 0.43123 0.60524 0.0
H70 H 0.93125 0.60526 0.43122 0.0
Tb71 Tb 0.01825 0.51823 0.63477 0.0
Tb72 Tb 0.01826 0.63477 0.51824 0.0
H73 H 0.93125 0.60526 0.60525 0.0
H74 H 0.10525 0.43121 0.60524 0.0
Tb75 Tb 0.13478 0.51822 0.51824 0.0
H76 H 0.10527 0.60524 0.43123 0.0
H77 H 0.10525 0.43122 0.43123 0.0
O78 O 0.0777 0.57767 0.57768 0.0
H79 H 0.10527 0.60523 0.60525 0.0
O80 O 0.84605 0.4277 0.51822 0.0
O81 O 0.19045 0.60878 0.51823 0.0
O82 O 0.19042 0.42766 0.51823 0.0
O83 O 0.84608 0.60882 0.51823 0.0
O84 O 0.01824 0.34606 0.42767 0.0
O85 O 0.01828 0.69042 0.60881 0.0
O86 O 0.01828 0.69043 0.42768 0.0
O87 O 0.01823 0.34605 0.60879 0.0
O88 O 0.92769 0.51824 0.34605 0.0
O89 O 0.10881 0.51821 0.69042 0.0
O90 O 0.92769 0.51823 0.69042 0.0
O91 O 0.10881 0.51823 0.34606 0.0
O92 O 0.92766 0.34607 0.51822 0.0
O93 O 0.10883 0.69041 0.51824 0.0
O94 O 0.92771 0.69043 0.51823 0.0
O95 O 0.10879 0.34604 0.51822 0.0
O96 O 0.84606 0.51825 0.6088 0.0
O97 O 0.19044 0.51821 0.42768 0.0
O98 O 0.19043 0.51821 0.6088 0.0
O99 O 0.84607 0.51825 0.42767 0.0
O100 O 0.01825 0.42766 0.69041 0.0
O101 O 0.01827 0.60881 0.34606 0.0
O102 O 0.01826 0.42768 0.34605 0.0
O103 O 0.01826 0.60879 0.69043 0.0
C104 C 0.86609 0.36613 0.51822 0.0
C105 C 0.1704 0.67036 0.51823 0.0
C106 C 0.17037 0.36609 0.51822 0.0
C107 C 0.86613 0.67039 0.51822 0.0
C108 C 0.01825 0.36611 0.3661 0.0
C109 C 0.01828 0.67037 0.67038 0.0
C110 C 0.01829 0.67038 0.36611 0.0
C111 C 0.01824 0.36609 0.67036 0.0
C112 C 0.86611 0.51824 0.3661 0.0
C113 C 0.17038 0.5182 0.67037 0.0
C114 C 0.86611 0.51824 0.67037 0.0
C115 C 0.17039 0.51821 0.36611 0.0
H116 H 0.43121 0.93125 0.43123 0.0
O117 O 0.45879 0.95881 0.4588 0.0
Tb118 Tb 0.40171 0.01826 0.51825 0.0
Tb119 Tb 0.51823 0.90171 0.51823 0.0
Tb120 Tb 0.51823 0.01825 0.40171 0.0
O121 O 0.45879 0.9588 0.57768 0.0
O122 O 0.4588 0.07769 0.4588 0.0
O123 O 0.45881 0.07769 0.57769 0.0
O124 O 0.57768 0.95879 0.57767 0.0
O125 O 0.57768 0.07768 0.4588 0.0
O126 O 0.57767 0.9588 0.45879 0.0
H127 H 0.43122 0.93124 0.60525 0.0
H128 H 0.43124 0.10527 0.43124 0.0
Tb129 Tb 0.51825 0.01823 0.63477 0.0
Tb130 Tb 0.51825 0.13477 0.51825 0.0
H131 H 0.43124 0.10526 0.60526 0.0
H132 H 0.60525 0.93121 0.60524 0.0
Tb133 Tb 0.63477 0.01823 0.51823 0.0
H134 H 0.60525 0.10525 0.43123 0.0
H135 H 0.60523 0.93123 0.43121 0.0
O136 O 0.57769 0.07768 0.57768 0.0
H137 H 0.60527 0.10524 0.60525 0.0
O138 O 0.34604 0.92771 0.51824 0.0
O139 O 0.69043 0.10879 0.51822 0.0
O140 O 0.69041 0.92766 0.51822 0.0
O141 O 0.34607 0.10883 0.51825 0.0
O142 O 0.5182 0.84606 0.42767 0.0
O143 O 0.51826 0.19042 0.60881 0.0
O144 O 0.51825 0.19043 0.42769 0.0
O145 O 0.51821 0.84605 0.60879 0.0
O146 O 0.42767 0.01827 0.34606 0.0
O147 O 0.60882 0.01823 0.69042 0.0
O148 O 0.42769 0.01825 0.69043 0.0
O149 O 0.6088 0.01825 0.34605 0.0
O150 O 0.42765 0.84608 0.51822 0.0
O151 O 0.60882 0.19042 0.51824 0.0
O152 O 0.4277 0.19044 0.51825 0.0
O153 O 0.60878 0.84605 0.51822 0.0
O154 O 0.34606 0.01827 0.60882 0.0
O155 O 0.69042 0.01824 0.42767 0.0
O156 O 0.69043 0.01823 0.60879 0.0
O157 O 0.34605 0.01828 0.42769 0.0
O158 O 0.51824 0.92767 0.69042 0.0
O159 O 0.51823 0.10881 0.34606 0.0
O160 O 0.51821 0.92769 0.34605 0.0
O161 O 0.51825 0.10879 0.69043 0.0
C162 C 0.36608 0.86613 0.51823 0.0
C163 C 0.67039 0.17037 0.51823 0.0
C164 C 0.67036 0.86609 0.51821 0.0
C165 C 0.36612 0.1704 0.51824 0.0
C166 C 0.5182 0.86611 0.36609 0.0
C167 C 0.51825 0.17036 0.67038 0.0
C168 C 0.51824 0.17038 0.36611 0.0
C169 C 0.51822 0.8661 0.67037 0.0
C170 C 0.3661 0.01828 0.36611 0.0
C171 C 0.67039 0.01823 0.67036 0.0
C172 C 0.36612 0.01827 0.67039 0.0
C173 C 0.67037 0.01825 0.3661 0.0
H174 H 0.43123 0.43121 0.93122 0.0
O175 O 0.45879 0.45878 0.95879 0.0
Tb176 Tb 0.4017 0.51822 0.01823 0.0
Tb177 Tb 0.51823 0.40169 0.01823 0.0
Tb178 Tb 0.51824 0.51823 0.90171 0.0
O179 O 0.45878 0.45878 0.07767 0.0
O180 O 0.45879 0.57767 0.95879 0.0
O181 O 0.45878 0.57766 0.07768 0.0
O182 O 0.57767 0.45877 0.07768 0.0
O183 O 0.57768 0.57767 0.95881 0.0
O184 O 0.57768 0.45878 0.9588 0.0
H185 H 0.43121 0.4312 0.10523 0.0
H186 H 0.43122 0.60523 0.93123 0.0
Tb187 Tb 0.51822 0.51821 0.13477 0.0
Tb188 Tb 0.51823 0.63475 0.01825 0.0
H189 H 0.43121 0.60522 0.10525 0.0
H190 H 0.60523 0.4312 0.10525 0.0
Tb191 Tb 0.63476 0.51822 0.01825 0.0
H192 H 0.60525 0.60524 0.93124 0.0
H193 H 0.60525 0.43121 0.93123 0.0
O194 O 0.57767 0.57766 0.07769 0.0
H195 H 0.60523 0.60522 0.10527 0.0
O196 O 0.34605 0.42766 0.01822 0.0
O197 O 0.69042 0.60878 0.01827 0.0
O198 O 0.69041 0.42765 0.01826 0.0
O199 O 0.34604 0.60878 0.01823 0.0
O200 O 0.51823 0.34604 0.92767 0.0
O201 O 0.51821 0.6904 0.10882 0.0
O202 O 0.51823 0.69041 0.92769 0.0
O203 O 0.51821 0.34603 0.10879 0.0
O204 O 0.42769 0.51822 0.84604 0.0
O205 O 0.60877 0.5182 0.19044 0.0
O206 O 0.42765 0.5182 0.19041 0.0
O207 O 0.60881 0.51822 0.84606 0.0
O208 O 0.42767 0.34604 0.01823 0.0
O209 O 0.6088 0.6904 0.01826 0.0
O210 O 0.42766 0.6904 0.01825 0.0
O211 O 0.60879 0.34603 0.01824 0.0
O212 O 0.34603 0.51821 0.10878 0.0
O213 O 0.69043 0.51821 0.92769 0.0
O214 O 0.6904 0.51821 0.10882 0.0
O215 O 0.34606 0.51821 0.92766 0.0
O216 O 0.5182 0.42765 0.19042 0.0
O217 O 0.51824 0.60879 0.84606 0.0
O218 O 0.51824 0.42767 0.84605 0.0
O219 O 0.5182 0.60877 0.19043 0.0
C220 C 0.3661 0.36609 0.01823 0.0
C221 C 0.67037 0.67036 0.01827 0.0
C222 C 0.67036 0.36608 0.01825 0.0
C223 C 0.36609 0.67035 0.01824 0.0
C224 C 0.51823 0.36609 0.8661 0.0
C225 C 0.5182 0.67034 0.17039 0.0
C226 C 0.51823 0.67037 0.86611 0.0
C227 C 0.5182 0.36608 0.17036 0.0
C228 C 0.36612 0.51821 0.86609 0.0
C229 C 0.67035 0.5182 0.17039 0.0
C230 C 0.36608 0.51819 0.17035 0.0
C231 C 0.67038 0.51821 0.86612 0.0
C232 C 0.95959 0.24435 0.24434 0.0
C233 C 0.01826 0.22036 0.22034 0.0
H234 H 0.91395 0.31036 0.31036 0.0
C235 C 0.07694 0.24436 0.24434 0.0
H236 H 0.91396 0.22612 0.22611 0.0
C237 C 0.07694 0.29215 0.29213 0.0
C238 C 0.01826 0.31614 0.31613 0.0
H239 H 0.12257 0.22613 0.22611 0.0
H240 H 0.12256 0.31038 0.31036 0.0
C241 C 0.95958 0.29214 0.29213 0.0
C242 C 0.79216 0.95959 0.24436 0.0
C243 C 0.81615 0.01827 0.22036 0.0
H244 H 0.72613 0.91395 0.31037 0.0
C245 C 0.79215 0.07694 0.24436 0.0
H246 H 0.81039 0.91396 0.22614 0.0
C247 C 0.74434 0.07694 0.29214 0.0
C248 C 0.72034 0.01826 0.31613 0.0
H249 H 0.81037 0.12257 0.22614 0.0
H250 H 0.72611 0.12256 0.31037 0.0
C251 C 0.74435 0.95958 0.29214 0.0
C252 C 0.07695 0.79216 0.24436 0.0
C253 C 0.01827 0.81615 0.22036 0.0
H254 H 0.12259 0.72614 0.31037 0.0
C255 C 0.9596 0.79215 0.24436 0.0
H256 H 0.12258 0.81039 0.22613 0.0
C257 C 0.95961 0.74435 0.29215 0.0
C258 C 0.01829 0.72036 0.31614 0.0
H259 H 0.91397 0.81038 0.22614 0.0
H260 H 0.91398 0.72612 0.31038 0.0
C261 C 0.07696 0.74436 0.29215 0.0
C262 C 0.29213 0.07696 0.29214 0.0
C263 C 0.31613 0.01829 0.31614 0.0
H264 H 0.22612 0.12258 0.22611 0.0
C265 C 0.29214 0.95961 0.29214 0.0
H266 H 0.31035 0.12259 0.31037 0.0
C267 C 0.24435 0.9596 0.24434 0.0
C268 C 0.22036 0.01828 0.22034 0.0
H269 H 0.31036 0.91398 0.31037 0.0
H270 H 0.22613 0.91397 0.22612 0.0
C271 C 0.24435 0.07696 0.24434 0.0
C272 C 0.95959 0.79213 0.79214 0.0
C273 C 0.01826 0.81613 0.81614 0.0
H274 H 0.91397 0.7261 0.72612 0.0
C275 C 0.07694 0.79214 0.79215 0.0
H276 H 0.91395 0.81035 0.81036 0.0
C277 C 0.07695 0.74434 0.74436 0.0
C278 C 0.01827 0.72034 0.72035 0.0
H279 H 0.12256 0.81037 0.81038 0.0
H280 H 0.12258 0.72612 0.72613 0.0
C281 C 0.95959 0.74433 0.74435 0.0
C282 C 0.24434 0.07694 0.79214 0.0
C283 C 0.22034 0.01826 0.81613 0.0
H284 H 0.31037 0.12257 0.72613 0.0
C285 C 0.24435 0.95959 0.79214 0.0
H286 H 0.22611 0.12257 0.81037 0.0
C287 C 0.29215 0.95959 0.74436 0.0
C288 C 0.31615 0.01827 0.72036 0.0
H289 H 0.22613 0.91396 0.81037 0.0
H290 H 0.31038 0.91397 0.72614 0.0
C291 C 0.29215 0.07694 0.74436 0.0
C292 C 0.07692 0.29212 0.74433 0.0
C293 C 0.01825 0.31612 0.72033 0.0
H294 H 0.12255 0.22611 0.81035 0.0
C295 C 0.95957 0.29212 0.74432 0.0
H296 H 0.12255 0.31035 0.7261 0.0
C297 C 0.95957 0.24433 0.79212 0.0
C298 C 0.01825 0.22034 0.81613 0.0
H299 H 0.91394 0.31034 0.72609 0.0
H300 H 0.91394 0.2261 0.81035 0.0
C301 C 0.07692 0.24433 0.79213 0.0
C302 C 0.74435 0.07692 0.74433 0.0
C303 C 0.72036 0.01824 0.72033 0.0
H304 H 0.81035 0.12256 0.81037 0.0
C305 C 0.74436 0.95957 0.74434 0.0
H306 H 0.72612 0.12255 0.7261 0.0
C307 C 0.79214 0.95958 0.79215 0.0
C308 C 0.81613 0.01825 0.81615 0.0
H309 H 0.72614 0.91394 0.72611 0.0
H310 H 0.81037 0.91395 0.81038 0.0
C311 C 0.79213 0.07693 0.79214 0.0
C312 C 0.29213 0.29213 0.07691 0.0
C313 C 0.31613 0.31612 0.01823 0.0
H314 H 0.22611 0.22612 0.12254 0.0
C315 C 0.29213 0.29212 0.95956 0.0
H316 H 0.31036 0.31036 0.12254 0.0
C317 C 0.24433 0.24433 0.95956 0.0
C318 C 0.22034 0.22034 0.01824 0.0
H319 H 0.31036 0.31035 0.91393 0.0
H320 H 0.2261 0.22611 0.91394 0.0
C321 C 0.24434 0.24434 0.07691 0.0
C322 C 0.29212 0.74432 0.07693 0.0
C323 C 0.31611 0.72032 0.01825 0.0
H324 H 0.22611 0.81035 0.12256 0.0
C325 C 0.29212 0.74432 0.95957 0.0
H326 H 0.31034 0.72609 0.12255 0.0
C327 C 0.24433 0.79213 0.95958 0.0
C328 C 0.22034 0.81613 0.01825 0.0
H329 H 0.31034 0.72609 0.91395 0.0
H330 H 0.22611 0.81036 0.91395 0.0
C331 C 0.24434 0.79213 0.07693 0.0
C332 C 0.74432 0.29212 0.95958 0.0
C333 C 0.72033 0.31611 0.01826 0.0
H334 H 0.81036 0.22611 0.91396 0.0
C335 C 0.74433 0.29212 0.07694 0.0
H336 H 0.7261 0.31033 0.91396 0.0
C337 C 0.79213 0.24433 0.07694 0.0
C338 C 0.81613 0.22034 0.01826 0.0
H339 H 0.7261 0.31034 0.12256 0.0
H340 H 0.81036 0.22611 0.12257 0.0
C341 C 0.79213 0.24433 0.95959 0.0
C342 C 0.79213 0.79213 0.9596 0.0
C343 C 0.81612 0.81613 0.01827 0.0
H344 H 0.72612 0.7261 0.91397 0.0
C345 C 0.79213 0.79213 0.07695 0.0
H346 H 0.81035 0.81036 0.91397 0.0
C347 C 0.74434 0.74433 0.07695 0.0
C348 C 0.72034 0.72033 0.01828 0.0
H349 H 0.81035 0.81036 0.12258 0.0
H350 H 0.72612 0.7261 0.12258 0.0
C351 C 0.74434 0.74433 0.9596 0.0
C352 C 0.74435 0.57689 0.79215 0.0
C353 C 0.72036 0.51822 0.81615 0.0
H354 H 0.81036 0.62253 0.72612 0.0
C355 C 0.74436 0.45954 0.79215 0.0
H356 H 0.72612 0.62252 0.81037 0.0
C357 C 0.79215 0.45955 0.74435 0.0
C358 C 0.81614 0.51823 0.72035 0.0
H359 H 0.72614 0.41391 0.81037 0.0
H360 H 0.81038 0.41392 0.72612 0.0
C361 C 0.79214 0.5769 0.74435 0.0
C362 C 0.24436 0.45952 0.74433 0.0
C363 C 0.22036 0.5182 0.72033 0.0
H364 H 0.31039 0.4139 0.81034 0.0
C365 C 0.24436 0.57688 0.74432 0.0
H366 H 0.22613 0.41389 0.7261 0.0
C367 C 0.29215 0.57688 0.79211 0.0
C368 C 0.31615 0.51821 0.81611 0.0
H369 H 0.22613 0.6225 0.7261 0.0
H370 H 0.31038 0.62251 0.81034 0.0
C371 C 0.29216 0.45953 0.79212 0.0
C372 C 0.24434 0.45952 0.29214 0.0
C373 C 0.22035 0.5182 0.31614 0.0
H374 H 0.31034 0.41389 0.2261 0.0
C375 C 0.24434 0.57687 0.29213 0.0
H376 H 0.22612 0.4139 0.31037 0.0
C377 C 0.29212 0.57687 0.24432 0.0
C378 C 0.31611 0.51819 0.22032 0.0
H379 H 0.22612 0.6225 0.31036 0.0
H380 H 0.31034 0.6225 0.22609 0.0
C381 C 0.29212 0.45952 0.24433 0.0
C382 C 0.74433 0.45953 0.24437 0.0
C383 C 0.72032 0.5182 0.22037 0.0
H384 H 0.81038 0.41392 0.31038 0.0
C385 C 0.74431 0.57688 0.24435 0.0
H386 H 0.72611 0.4139 0.22615 0.0
C387 C 0.79212 0.5769 0.29213 0.0
C388 C 0.81614 0.51823 0.31613 0.0
H389 H 0.72608 0.62251 0.22613 0.0
H390 H 0.81034 0.62253 0.31035 0.0
C391 C 0.79214 0.45955 0.29215 0.0
C392 C 0.29212 0.79216 0.45955 0.0
C393 C 0.31611 0.81616 0.51823 0.0
H394 H 0.22613 0.7261 0.41392 0.0
C395 C 0.29212 0.79216 0.5769 0.0
H396 H 0.31034 0.81039 0.41392 0.0
C397 C 0.24435 0.74434 0.5769 0.0
C398 C 0.22037 0.72033 0.51823 0.0
H399 H 0.31034 0.81039 0.62253 0.0
H400 H 0.22613 0.72611 0.62253 0.0
C401 C 0.24435 0.74434 0.45955 0.0
C402 C 0.24434 0.29213 0.45955 0.0
C403 C 0.22033 0.31612 0.51823 0.0
H404 H 0.31039 0.22612 0.41393 0.0
C405 C 0.24434 0.29213 0.5769 0.0
H406 H 0.22611 0.31034 0.41392 0.0
C407 C 0.29215 0.24436 0.57691 0.0
C408 C 0.31616 0.22037 0.51824 0.0
H409 H 0.2261 0.31036 0.62253 0.0
H410 H 0.31038 0.22614 0.62254 0.0
C411 C 0.29215 0.24435 0.45956 0.0
C412 C 0.79215 0.74435 0.45954 0.0
C413 C 0.81616 0.72036 0.51822 0.0
H414 H 0.72611 0.81034 0.4139 0.0
C415 C 0.79215 0.74435 0.57689 0.0
H416 H 0.81038 0.72612 0.41391 0.0
C417 C 0.74433 0.79213 0.57688 0.0
C418 C 0.72033 0.81612 0.51821 0.0
H419 H 0.81038 0.72614 0.62252 0.0
H420 H 0.7261 0.81035 0.62251 0.0
C421 C 0.74434 0.79212 0.45953 0.0
C422 C 0.74435 0.24434 0.45954 0.0
C423 C 0.72036 0.22034 0.51822 0.0
H424 H 0.81035 0.31038 0.41391 0.0
C425 C 0.74435 0.24435 0.57689 0.0
H426 H 0.72612 0.22611 0.41391 0.0
C427 C 0.79213 0.29216 0.57689 0.0
C428 C 0.81612 0.31616 0.51821 0.0
H429 H 0.72612 0.22612 0.62252 0.0
H430 H 0.81035 0.31039 0.62252 0.0
C431 C 0.79213 0.29215 0.45954 0.0
C432 C 0.57691 0.29213 0.79214 0.0
C433 C 0.51823 0.31612 0.81613 0.0
H434 H 0.62255 0.22611 0.72613 0.0
C435 C 0.45956 0.29212 0.79214 0.0
H436 H 0.62254 0.31036 0.81037 0.0
C437 C 0.45957 0.24432 0.74435 0.0
C438 C 0.51825 0.22033 0.72036 0.0
H439 H 0.41393 0.31034 0.81036 0.0
H440 H 0.41394 0.22609 0.72612 0.0
C441 C 0.57692 0.24433 0.74435 0.0
C442 C 0.45954 0.79212 0.74434 0.0
C443 C 0.51822 0.81612 0.72034 0.0
H444 H 0.41392 0.7261 0.81037 0.0
C445 C 0.57689 0.79213 0.74434 0.0
H446 H 0.41391 0.81034 0.72611 0.0
C447 C 0.5769 0.74434 0.79214 0.0
C448 C 0.51822 0.72034 0.81614 0.0
H449 H 0.62252 0.81036 0.72612 0.0
H450 H 0.62253 0.72612 0.81036 0.0
C451 C 0.45955 0.74433 0.79214 0.0
C452 C 0.57687 0.74432 0.24435 0.0
C453 C 0.5182 0.72031 0.22036 0.0
H454 H 0.6225 0.81036 0.31035 0.0
C455 C 0.45952 0.74432 0.24436 0.0
H456 H 0.6225 0.72609 0.22613 0.0
C457 C 0.45952 0.79213 0.29214 0.0
C458 C 0.5182 0.81614 0.31612 0.0
H459 H 0.41389 0.72608 0.22614 0.0
H460 H 0.41389 0.81035 0.31036 0.0
C461 C 0.57687 0.79213 0.29213 0.0
C462 C 0.5769 0.24435 0.29214 0.0
C463 C 0.51822 0.22035 0.31615 0.0
H464 H 0.62251 0.31035 0.2261 0.0
C465 C 0.45954 0.24433 0.29215 0.0
H466 H 0.62253 0.22613 0.31036 0.0
C467 C 0.45953 0.29211 0.24434 0.0
C468 C 0.51821 0.31611 0.22033 0.0
H469 H 0.41392 0.22611 0.31038 0.0
H470 H 0.4139 0.31033 0.22611 0.0
C471 C 0.57689 0.29213 0.24433 0.0
loop_
_geom_bond_atom_site_label_1
_geom_bond_atom_site_label_2
_geom_bond_distance
_geom_bond_site_symmetry_2
_ccdc_geom_bond_type
H0 O1 0.850 . S
O1 H0 0.850 . S
O1 Tb2 2.341 1_566 S
O1 Tb3 2.341 1_656 S
O1 Tb4 2.341 1_665 S
Tb2 O1 2.341 1_544 S
Tb2 O5 2.341 1_545 S
Tb2 O6 2.341 1_554 S
Tb2 O7 2.341 . S
Tb2 O22 2.344 1_545 S
Tb2 O25 2.344 . S
Tb2 O38 2.344 . S
Tb2 O41 2.344 1_554 S
Tb3 O1 2.341 1_454 S
Tb3 O5 2.341 1_455 S
Tb3 O8 2.341 . S
Tb3 O10 2.341 1_554 S
Tb3 O26 2.344 1_554 S
Tb3 O29 2.344 . S
Tb3 O34 2.344 1_455 S
Tb3 O37 2.344 . S
Tb4 O1 2.341 1_445 S
Tb4 O6 2.341 1_455 S
Tb4 O9 2.341 . S
Tb4 O10 2.341 1_545 S
Tb4 O30 2.344 1_455 S
Tb4 O33 2.344 . S
Tb4 O43 2.344 . S
Tb4 O44 2.344 1_545 S
O5 Tb2 2.341 1_565 S
O5 Tb3 2.341 1_655 S
O5 H11 0.850 . S
O5 Tb13 2.341 1_665 S
O6 Tb2 2.341 1_556 S
O6 Tb4 2.341 1_655 S
O6 H12 0.850 . S
O6 Tb14 2.341 1_656 S
O7 Tb2 2.341 . S
O7 Tb13 2.341 1_655 S
O7 Tb14 2.341 1_655 S
O7 H15 0.850 . S
O8 Tb3 2.341 . S
O8 Tb13 2.341 1_565 S
O8 H16 0.850 . S
O8 Tb17 2.341 1_565 S
O9 Tb4 2.341 . S
O9 Tb14 2.341 1_556 S
O9 Tb17 2.341 1_556 S
O9 H18 0.850 . S
O10 Tb3 2.341 1_556 S
O10 Tb4 2.341 1_565 S
O10 Tb17 2.341 1_566 S
O10 H19 0.850 . S
H11 O5 0.850 . S
H12 O6 0.850 . S
Tb13 O5 2.341 1_445 S
Tb13 O7 2.341 1_455 S
Tb13 O8 2.341 1_545 S
Tb13 O20 2.341 . S
Tb13 O31 2.344 . S
Tb13 O32 2.344 1_455 S
Tb13 O42 2.344 1_545 S
Tb13 O45 2.344 . S
Tb14 O6 2.341 1_454 S
Tb14 O7 2.341 1_455 S
Tb14 O9 2.341 1_554 S
Tb14 O20 2.341 . S
Tb14 O27 2.344 . S
Tb14 O28 2.344 1_554 S
Tb14 O35 2.344 . S
Tb14 O36 2.344 1_455 S
H15 O7 0.850 . S
H16 O8 0.850 . S
Tb17 O8 2.341 1_545 S
Tb17 O9 2.341 1_554 S
Tb17 O10 2.341 1_544 S
Tb17 O20 2.341 . S
Tb17 O23 2.344 . S
Tb17 O24 2.344 1_545 S
Tb17 O39 2.344 1_554 S
Tb17 O40 2.344 . S
H18 O9 0.850 . S
H19 O10 0.850 . S
O20 Tb13 2.341 . S
O20 Tb14 2.341 . S
O20 Tb17 2.341 . S
O20 H21 0.850 . S
H21 O20 0.850 . S
O22 Tb2 2.344 1_565 S
O22 C46 1.272 . S
O23 Tb17 2.344 . S
O23 C47 1.272 . S
O24 Tb17 2.344 1_565 S
O24 C48 1.272 . S
O25 Tb2 2.344 . S
O25 C49 1.272 . S
O26 Tb3 2.344 1_556 S
O26 C50 1.272 . S
O27 Tb14 2.344 . S
O27 C51 1.272 . S
O28 Tb14 2.344 1_556 S
O28 C52 1.272 . S
O29 Tb3 2.344 . S
O29 C53 1.272 . S
O30 Tb4 2.344 1_655 S
O30 C54 1.272 . S
O31 Tb13 2.344 . S
O31 C55 1.272 . S
O32 Tb13 2.344 1_655 S
O32 C56 1.272 . S
O33 Tb4 2.344 . S
O33 C57 1.272 . S
O34 Tb3 2.344 1_655 S
O34 C46 1.272 . S
O35 Tb14 2.344 . S
O35 C47 1.272 . S
O36 Tb14 2.344 1_655 S
O36 C49 1.272 . S
O37 Tb3 2.344 . S
O37 C48 1.272 . S
O38 Tb2 2.344 . S
O38 C56 1.272 . S
O39 Tb17 2.344 1_556 S
O39 C57 1.272 . S
O40 Tb17 2.344 . S
O40 C55 1.272 . S
O41 Tb2 2.344 1_556 S
O41 C54 1.272 . S
O42 Tb13 2.344 1_565 S
O42 C53 1.272 . S
O43 Tb4 2.344 . S
O43 C52 1.272 . S
O44 Tb4 2.344 1_565 S
O44 C50 1.272 . S
O45 Tb13 2.344 . S
O45 C51 1.272 . S
C46 O22 1.272 . S
C46 O34 1.272 . S
C47 O23 1.272 . S
C47 O35 1.272 . S
C48 O24 1.272 . S
C48 O37 1.272 . S
C49 O25 1.272 . S
C49 O36 1.272 . S
C50 O26 1.272 . S
C50 O44 1.272 . S
C51 O27 1.272 . S
C51 O45 1.272 . S
C52 O28 1.272 . S
C52 O43 1.272 . S
C53 O29 1.272 . S
C53 O42 1.272 . S
C54 O30 1.272 . S
C54 O41 1.272 . S
C55 O31 1.272 . S
C55 O40 1.272 . S
C56 O32 1.272 . S
C56 O38 1.272 . S
C57 O33 1.272 . S
C57 O39 1.272 . S
H58 O59 0.850 . S
O59 H58 0.850 . S
O59 Tb60 2.341 . S
O59 Tb61 2.341 1_655 S
O59 Tb62 2.341 1_655 S
Tb60 O59 2.341 . S
Tb60 O63 2.341 . S
Tb60 O64 2.341 . S
Tb60 O65 2.341 . S
Tb60 O80 2.344 . S
Tb60 O83 2.344 . S
Tb60 O96 2.344 . S
Tb60 O99 2.344 . S
Tb61 O59 2.341 1_455 S
Tb61 O63 2.341 1_455 S
Tb61 O66 2.341 . S
Tb61 O68 2.341 . S
Tb61 O84 2.344 . S
Tb61 O87 2.344 . S
Tb61 O92 2.344 1_455 S
Tb61 O95 2.344 . S
Tb62 O59 2.341 1_455 S
Tb62 O64 2.341 1_455 S
Tb62 O67 2.341 . S
Tb62 O68 2.341 . S
Tb62 O88 2.344 1_455 S
Tb62 O91 2.344 . S
Tb62 O101 2.344 . S
Tb62 O102 2.344 . S
O63 Tb60 2.341 . S
O63 Tb61 2.341 1_655 S
O63 H69 0.850 . S
O63 Tb71 2.341 1_655 S
O64 Tb60 2.341 . S
O64 Tb62 2.341 1_655 S
O64 H70 0.850 . S
O64 Tb72 2.341 1_655 S
O65 Tb60 2.341 . S
O65 Tb71 2.341 1_655 S
O65 Tb72 2.341 1_655 S
O65 H73 0.850 . S
O66 Tb61 2.341 . S
O66 Tb71 2.341 . S
O66 H74 0.850 . S
O66 Tb75 2.341 . S
O67 Tb62 2.341 . S
O67 Tb72 2.341 . S
O67 Tb75 2.341 . S
O67 H76 0.850 . S
O68 Tb61 2.341 . S
O68 Tb62 2.341 . S
O68 Tb75 2.341 . S
O68 H77 0.850 . S
H69 O63 0.850 . S
H70 O64 0.850 . S
Tb71 O63 2.341 1_455 S
Tb71 O65 2.341 1_455 S
Tb71 O66 2.341 . S
Tb71 O78 2.341 . S
Tb71 O89 2.344 . S
Tb71 O90 2.344 1_455 S
Tb71 O100 2.344 . S
Tb71 O103 2.344 . S
Tb72 O64 2.341 1_455 S
Tb72 O65 2.341 1_455 S
Tb72 O67 2.341 . S
Tb72 O78 2.341 . S
Tb72 O85 2.344 . S
Tb72 O86 2.344 . S
Tb72 O93 2.344 . S
Tb72 O94 2.344 1_455 S
H73 O65 0.850 . S
H74 O66 0.850 . S
Tb75 O66 2.341 . S
Tb75 O67 2.341 . S
Tb75 O68 2.341 . S
Tb75 O78 2.341 . S
Tb75 O81 2.344 . S
Tb75 O82 2.344 . S
Tb75 O97 2.344 . S
Tb75 O98 2.344 . S
H76 O67 0.850 . S
H77 O68 0.850 . S
O78 Tb71 2.341 . S
O78 Tb72 2.341 . S
O78 Tb75 2.341 . S
O78 H79 0.850 . S
H79 O78 0.850 . S
O80 Tb60 2.344 . S
O80 C104 1.272 . S
O81 Tb75 2.344 . S
O81 C105 1.272 . S
O82 Tb75 2.344 . S
O82 C106 1.272 . S
O83 Tb60 2.344 . S
O83 C107 1.272 . S
O84 Tb61 2.344 . S
O84 C108 1.272 . S
O85 Tb72 2.344 . S
O85 C109 1.272 . S
O86 Tb72 2.344 . S
O86 C110 1.272 . S
O87 Tb61 2.344 . S
O87 C111 1.272 . S
O88 Tb62 2.344 1_655 S
O88 C112 1.272 . S
O89 Tb71 2.344 . S
O89 C113 1.272 . S
O90 Tb71 2.344 1_655 S
O90 C114 1.272 . S
O91 Tb62 2.344 . S
O91 C115 1.272 . S
O92 Tb61 2.344 1_655 S
O92 C104 1.272 . S
O93 Tb72 2.344 . S
O93 C105 1.272 . S
O94 Tb72 2.344 1_655 S
O94 C107 1.272 . S
O95 Tb61 2.344 . S
O95 C106 1.272 . S
O96 Tb60 2.344 . S
O96 C114 1.272 . S
O97 Tb75 2.344 . S
O97 C115 1.272 . S
O98 Tb75 2.344 . S
O98 C113 1.272 . S
O99 Tb60 2.344 . S
O99 C112 1.272 . S
O100 Tb71 2.344 . S
O100 C111 1.272 . S
O101 Tb62 2.344 . S
O101 C110 1.272 . S
O102 Tb62 2.344 . S
O102 C108 1.272 . S
O103 Tb71 2.344 . S
O103 C109 1.272 . S
C104 O80 1.272 . S
C104 O92 1.272 . S
C105 O81 1.272 . S
C105 O93 1.272 . S
C106 O82 1.272 . S
C106 O95 1.272 . S
C107 O83 1.272 . S
C107 O94 1.272 . S
C108 O84 1.272 . S
C108 O102 1.272 . S
C109 O85 1.272 . S
C109 O103 1.272 . S
C110 O86 1.272 . S
C110 O101 1.272 . S
C111 O87 1.272 . S
C111 O100 1.272 . S
C112 O88 1.272 . S
C112 O99 1.272 . S
C113 O89 1.272 . S
C113 O98 1.272 . S
C114 O90 1.272 . S
C114 O96 1.272 . S
C115 O91 1.272 . S
C115 O97 1.272 . S
H116 O117 0.850 . S
O117 H116 0.850 . S
O117 Tb118 2.341 1_565 S
O117 Tb119 2.341 . S
O117 Tb120 2.341 1_565 S
Tb118 O117 2.341 1_545 S
Tb118 O121 2.341 1_545 S
Tb118 O122 2.341 . S
Tb118 O123 2.341 . S
Tb118 O138 2.344 1_545 S
Tb118 O141 2.344 . S
Tb118 O154 2.344 . S
Tb118 O157 2.344 . S
Tb119 O117 2.341 . S
Tb119 O121 2.341 . S
Tb119 O124 2.341 . S
Tb119 O126 2.341 . S
Tb119 O142 2.344 . S
Tb119 O145 2.344 . S
Tb119 O150 2.344 . S
Tb119 O153 2.344 . S
Tb120 O117 2.341 1_545 S
Tb120 O122 2.341 . S
Tb120 O125 2.341 . S
Tb120 O126 2.341 1_545 S
Tb120 O146 2.344 . S
Tb120 O149 2.344 . S
Tb120 O159 2.344 . S
Tb120 O160 2.344 1_545 S
O121 Tb118 2.341 1_565 S
O121 Tb119 2.341 . S
O121 H127 0.850 . S
O121 Tb129 2.341 1_565 S
O122 Tb118 2.341 . S
O122 Tb120 2.341 . S
O122 H128 0.850 . S
O122 Tb130 2.341 . S
O123 Tb118 2.341 . S
O123 Tb129 2.341 . S
O123 Tb130 2.341 . S
O123 H131 0.850 . S
O124 Tb119 2.341 . S
O124 Tb129 2.341 1_565 S
O124 H132 0.850 . S
O124 Tb133 2.341 1_565 S
O125 Tb120 2.341 . S
O125 Tb130 2.341 . S
O125 Tb133 2.341 . S
O125 H134 0.850 . S
O126 Tb119 2.341 . S
O126 Tb120 2.341 1_565 S
O126 Tb133 2.341 1_565 S
O126 H135 0.850 . S
H127 O121 0.850 . S
H128 O122 0.850 . S
Tb129 O121 2.341 1_545 S
Tb129 O123 2.341 . S
Tb129 O124 2.341 1_545 S
Tb129 O136 2.341 . S
Tb129 O147 2.344 . S
Tb129 O148 2.344 . S
Tb129 O158 2.344 1_545 S
Tb129 O161 2.344 . S
Tb130 O122 2.341 . S
Tb130 O123 2.341 . S
Tb130 O125 2.341 . S
Tb130 O136 2.341 . S
Tb130 O143 2.344 . S
Tb130 O144 2.344 . S
Tb130 O151 2.344 . S
Tb130 O152 2.344 . S
H131 O123 0.850 . S
H132 O124 0.850 . S
Tb133 O124 2.341 1_545 S
Tb133 O125 2.341 . S
Tb133 O126 2.341 1_545 S
Tb133 O136 2.341 . S
Tb133 O139 2.344 . S
Tb133 O140 2.344 1_545 S
Tb133 O155 2.344 . S
Tb133 O156 2.344 . S
H134 O125 0.850 . S
H135 O126 0.850 . S
O136 Tb129 2.341 . S
O136 Tb130 2.341 . S
O136 Tb133 2.341 . S
O136 H137 0.850 . S
H137 O136 0.850 . S
O138 Tb118 2.344 1_565 S
O138 C162 1.272 . S
O139 Tb133 2.344 . S
O139 C163 1.272 . S
O140 Tb133 2.344 1_565 S
O140 C164 1.272 . S
O141 Tb118 2.344 . S
O141 C165 1.272 . S
O142 Tb119 2.344 . S
O142 C166 1.272 . S
O143 Tb130 2.344 . S
O143 C167 1.272 . S
O144 Tb130 2.344 . S
O144 C168 1.272 . S
O145 Tb119 2.344 . S
O145 C169 1.272 . S
O146 Tb120 2.344 . S
O146 C170 1.272 . S
O147 Tb129 2.344 . S
O147 C171 1.272 . S
O148 Tb129 2.344 . S
O148 C172 1.272 . S
O149 Tb120 2.344 . S
O149 C173 1.272 . S
O150 Tb119 2.344 . S
O150 C162 1.272 . S
O151 Tb130 2.344 . S
O151 C163 1.272 . S
O152 Tb130 2.344 . S
O152 C165 1.272 . S
O153 Tb119 2.344 . S
O153 C164 1.272 . S
O154 Tb118 2.344 . S
O154 C172 1.272 . S
O155 Tb133 2.344 . S
O155 C173 1.272 . S
O156 Tb133 2.344 . S
O156 C171 1.272 . S
O157 Tb118 2.344 . S
O157 C170 1.272 . S
O158 Tb129 2.344 1_565 S
O158 C169 1.272 . S
O159 Tb120 2.344 . S
O159 C168 1.272 . S
O160 Tb120 2.344 1_565 S
O160 C166 1.272 . S
O161 Tb129 2.344 . S
O161 C167 1.272 . S
C162 O138 1.272 . S
C162 O150 1.272 . S
C163 O139 1.272 . S
C163 O151 1.272 . S
C164 O140 1.272 . S
C164 O153 1.272 . S
C165 O141 1.272 . S
C165 O152 1.272 . S
C166 O142 1.272 . S
C166 O160 1.272 . S
C167 O143 1.272 . S
C167 O161 1.272 . S
C168 O144 1.272 . S
C168 O159 1.272 . S
C169 O145 1.272 . S
C169 O158 1.272 . S
C170 O146 1.272 . S
C170 O157 1.272 . S
C171 O147 1.272 . S
C171 O156 1.272 . S
C172 O148 1.272 . S
C172 O154 1.272 . S
C173 O149 1.272 . S
C173 O155 1.272 . S
H174 O175 0.850 . S
O175 H174 0.850 . S
O175 Tb176 2.341 1_556 S
O175 Tb177 2.341 1_556 S
O175 Tb178 2.341 . S
Tb176 O175 2.341 1_554 S
Tb176 O179 2.341 . S
Tb176 O180 2.341 1_554 S
Tb176 O181 2.341 . S
Tb176 O196 2.344 . S
Tb176 O199 2.344 . S
Tb176 O212 2.344 . S
Tb176 O215 2.344 1_554 S
Tb177 O175 2.341 1_554 S
Tb177 O179 2.341 . S
Tb177 O182 2.341 . S
Tb177 O184 2.341 1_554 S
Tb177 O200 2.344 1_554 S
Tb177 O203 2.344 . S
Tb177 O208 2.344 . S
Tb177 O211 2.344 . S
Tb178 O175 2.341 . S
Tb178 O180 2.341 . S
Tb178 O183 2.341 . S
Tb178 O184 2.341 . S
Tb178 O204 2.344 . S
Tb178 O207 2.344 . S
Tb178 O217 2.344 . S
Tb178 O218 2.344 . S
O179 Tb176 2.341 . S
O179 Tb177 2.341 . S
O179 H185 0.850 . S
O179 Tb187 2.341 . S
O180 Tb176 2.341 1_556 S
O180 Tb178 2.341 . S
O180 H186 0.850 . S
O180 Tb188 2.341 1_556 S
O181 Tb176 2.341 . S
O181 Tb187 2.341 . S
O181 Tb188 2.341 . S
O181 H189 0.850 . S
O182 Tb177 2.341 . S
O182 Tb187 2.341 . S
O182 H190 0.850 . S
O182 Tb191 2.341 . S
O183 Tb178 2.341 . S
O183 Tb188 2.341 1_556 S
O183 Tb191 2.341 1_556 S
O183 H192 0.850 . S
O184 Tb177 2.341 1_556 S
O184 Tb178 2.341 . S
O184 Tb191 2.341 1_556 S
O184 H193 0.850 . S
H185 O179 0.850 . S
H186 O180 0.850 . S
Tb187 O179 2.341 . S
Tb187 O181 2.341 . S
Tb187 O182 2.341 . S
Tb187 O194 2.341 . S
Tb187 O205 2.344 . S
Tb187 O206 2.344 . S
Tb187 O216 2.344 . S
Tb187 O219 2.344 . S
Tb188 O180 2.341 1_554 S
Tb188 O181 2.341 . S
Tb188 O183 2.341 1_554 S
Tb188 O194 2.341 . S
Tb188 O201 2.344 . S
Tb188 O202 2.344 1_554 S
Tb188 O209 2.344 . S
Tb188 O210 2.344 . S
H189 O181 0.850 . S
H190 O182 0.850 . S
Tb191 O182 2.341 . S
Tb191 O183 2.341 1_554 S
Tb191 O184 2.341 1_554 S
Tb191 O194 2.341 . S
Tb191 O197 2.344 . S
Tb191 O198 2.344 . S
Tb191 O213 2.344 1_554 S
Tb191 O214 2.344 . S
H192 O183 0.850 . S
H193 O184 0.850 . S
O194 Tb187 2.341 . S
O194 Tb188 2.341 . S
O194 Tb191 2.341 . S
O194 H195 0.850 . S
H195 O194 0.850 . S
O196 Tb176 2.344 . S
O196 C220 1.272 . S
O197 Tb191 2.344 . S
O197 C221 1.272 . S
O198 Tb191 2.344 . S
O198 C222 1.272 . S
O199 Tb176 2.344 . S
O199 C223 1.272 . S
O200 Tb177 2.344 1_556 S
O200 C224 1.272 . S
O201 Tb188 2.344 . S
O201 C225 1.272 . S
O202 Tb188 2.344 1_556 S
O202 C226 1.272 . S
O203 Tb177 2.344 . S
O203 C227 1.272 . S
O204 Tb178 2.344 . S
O204 C228 1.272 . S
O205 Tb187 2.344 . S
O205 C229 1.272 . S
O206 Tb187 2.344 . S
O206 C230 1.272 . S
O207 Tb178 2.344 . S
O207 C231 1.272 . S
O208 Tb177 2.344 . S
O208 C220 1.272 . S
O209 Tb188 2.344 . S
O209 C221 1.272 . S
O210 Tb188 2.344 . S
O210 C223 1.272 . S
O211 Tb177 2.344 . S
O211 C222 1.272 . S
O212 Tb176 2.344 . S
O212 C230 1.272 . S
O213 Tb191 2.344 1_556 S
O213 C231 1.272 . S
O214 Tb191 2.344 . S
O214 C229 1.272 . S
O215 Tb176 2.344 1_556 S
O215 C228 1.272 . S
O216 Tb187 2.344 . S
O216 C227 1.272 . S
O217 Tb178 2.344 . S
O217 C226 1.272 . S
O218 Tb178 2.344 . S
O218 C224 1.272 . S
O219 Tb187 2.344 . S
O219 C225 1.272 . S
C220 O196 1.272 . S
C220 O208 1.272 . S
C221 O197 1.272 . S
C221 O209 1.272 . S
C222 O198 1.272 . S
C222 O211 1.272 . S
C223 O199 1.272 . S
C223 O210 1.272 . S
C224 O200 1.272 . S
C224 O218 1.272 . S
C225 O201 1.272 . S
C225 O219 1.272 . S
C226 O202 1.272 . S
C226 O217 1.272 . S
C227 O203 1.272 . S
C227 O216 1.272 . S
C228 O204 1.272 . S
C228 O215 1.272 . S
C229 O205 1.272 . S
C229 O214 1.272 . S
C230 O206 1.272 . S
C230 O212 1.272 . S
C231 O207 1.272 . S
C231 O213 1.272 . S
C232 C233 1.387 1_655 S
C232 H236 0.950 . S
C232 C241 1.390 . S
C233 C232 1.387 1_455 S
C233 C235 1.387 . S
H234 C241 0.950 . S
C235 C233 1.387 . S
C235 C237 1.390 . S
C235 H239 0.950 . S
H236 C232 0.950 . S
C237 C235 1.390 . S
C237 C238 1.387 . S
C237 H240 0.950 . S
C238 C237 1.387 . S
C238 C241 1.387 1_455 S
H239 C235 0.950 . S
H240 C237 0.950 . S
C241 C232 1.390 . S
C241 H234 0.950 . S
C241 C238 1.387 1_655 S
C242 C243 1.387 1_565 S
C242 H246 0.950 . S
C242 C251 1.390 . S
C243 C242 1.387 1_545 S
C243 C245 1.387 . S
H244 C251 0.950 . S
C245 C243 1.387 . S
C245 C247 1.390 . S
C245 H249 0.950 . S
H246 C242 0.950 . S
C247 C245 1.390 . S
C247 C248 1.387 . S
C247 H250 0.950 . S
C248 C247 1.387 . S
C248 C251 1.387 1_545 S
H249 C245 0.950 . S
H250 C247 0.950 . S
C251 C242 1.390 . S
C251 H244 0.950 . S
C251 C248 1.387 1_565 S
C252 C253 1.387 . S
C252 H256 0.950 . S
C252 C261 1.390 . S
C253 C252 1.387 . S
C253 C255 1.387 1_455 S
H254 C261 0.950 . S
C255 C253 1.387 1_655 S
C255 C257 1.390 . S
C255 H259 0.950 . S
H256 C252 0.950 . S
C257 C255 1.390 . S
C257 C258 1.387 1_655 S
C257 H260 0.950 . S
C258 C257 1.387 1_455 S
C258 C261 1.387 . S
H259 C255 0.950 . S
H260 C257 0.950 . S
C261 C252 1.390 . S
C261 H254 0.950 . S
C261 C258 1.387 . S
C262 C263 1.387 . S
C262 H266 0.950 . S
C262 C271 1.390 . S
C263 C262 1.387 . S
C263 C265 1.387 1_545 S
H264 C271 0.950 . S
C265 C263 1.387 1_565 S
C265 C267 1.390 . S
C265 H269 0.950 . S
H266 C262 0.950 . S
C267 C265 1.390 . S
C267 C268 1.387 1_565 S
C267 H270 0.950 . S
C268 C267 1.387 1_545 S
C268 C271 1.387 . S
H269 C265 0.950 . S
H270 C267 0.950 . S
C271 C262 1.390 . S
C271 H264 0.950 . S
C271 C268 1.387 . S
C272 C273 1.387 1_655 S
C272 H276 0.950 . S
C272 C281 1.390 . S
C273 C272 1.387 1_455 S
C273 C275 1.387 . S
H274 C281 0.950 . S
C275 C273 1.387 . S
C275 C277 1.390 . S
C275 H279 0.950 . S
H276 C272 0.950 . S
C277 C275 1.390 . S
C277 C278 1.387 . S
C277 H280 0.950 . S
C278 C277 1.387 . S
C278 C281 1.387 1_455 S
H279 C275 0.950 . S
H280 C277 0.950 . S
C281 C272 1.390 . S
C281 H274 0.950 . S
C281 C278 1.387 1_655 S
C282 C283 1.387 . S
C282 H286 0.950 . S
C282 C291 1.390 . S
C283 C282 1.387 . S
C283 C285 1.387 1_545 S
H284 C291 0.950 . S
C285 C283 1.387 1_565 S
C285 C287 1.390 . S
C285 H289 0.950 . S
H286 C282 0.950 . S
C287 C285 1.390 . S
C287 C288 1.387 1_565 S
C287 H290 0.950 . S
C288 C287 1.387 1_545 S
C288 C291 1.387 . S
H289 C285 0.950 . S
H290 C287 0.950 . S
C291 C282 1.390 . S
C291 H284 0.950 . S
C291 C288 1.387 . S
C292 C293 1.387 . S
C292 H296 0.950 . S
C292 C301 1.390 . S
C293 C292 1.387 . S
C293 C295 1.387 1_455 S
H294 C301 0.950 . S
C295 C293 1.387 1_655 S
C295 C297 1.390 . S
C295 H299 0.950 . S
H296 C292 0.950 . S
C297 C295 1.390 . S
C297 C298 1.387 1_655 S
C297 H300 0.950 . S
C298 C297 1.387 1_455 S
C298 C301 1.387 . S
H299 C295 0.950 . S
H300 C297 0.950 . S
C301 C292 1.390 . S
C301 H294 0.950 . S
C301 C298 1.387 . S
C302 C303 1.387 . S
C302 H306 0.950 . S
C302 C311 1.390 . S
C303 C302 1.387 . S
C303 C305 1.387 1_545 S
H304 C311 0.950 . S
C305 C303 1.387 1_565 S
C305 C307 1.390 . S
C305 H309 0.950 . S
H306 C302 0.950 . S
C307 C305 1.390 . S
C307 C308 1.387 1_565 S
C307 H310 0.950 . S
C308 C307 1.387 1_545 S
C308 C311 1.387 . S
H309 C305 0.950 . S
H310 C307 0.950 . S
C311 C302 1.390 . S
C311 H304 0.950 . S
C311 C308 1.387 . S
C312 C313 1.387 . S
C312 H316 0.950 . S
C312 C321 1.390 . S
C313 C312 1.387 . S
C313 C315 1.387 1_554 S
H314 C321 0.950 . S
C315 C313 1.387 1_556 S
C315 C317 1.390 . S
C315 H319 0.950 . S
H316 C312 0.950 . S
C317 C315 1.390 . S
C317 C318 1.387 1_556 S
C317 H320 0.950 . S
C318 C317 1.387 1_554 S
C318 C321 1.387 . S
H319 C315 0.950 . S
H320 C317 0.950 . S
C321 C312 1.390 . S
C321 H314 0.950 . S
C321 C318 1.387 . S
C322 C323 1.387 . S
C322 H326 0.950 . S
C322 C331 1.390 . S
C323 C322 1.387 . S
C323 C325 1.387 1_554 S
H324 C331 0.950 . S
C325 C323 1.387 1_556 S
C325 C327 1.390 . S
C325 H329 0.950 . S
H326 C322 0.950 . S
C327 C325 1.390 . S
C327 C328 1.387 1_556 S
C327 H330 0.950 . S
C328 C327 1.387 1_554 S
C328 C331 1.387 . S
H329 C325 0.950 . S
H330 C327 0.950 . S
C331 C322 1.390 . S
C331 H324 0.950 . S
C331 C328 1.387 . S
C332 C333 1.387 1_556 S
C332 H336 0.950 . S
C332 C341 1.390 . S
C333 C332 1.387 1_554 S
C333 C335 1.387 . S
H334 C341 0.950 . S
C335 C333 1.387 . S
C335 C337 1.390 . S
C335 H339 0.950 . S
H336 C332 0.950 . S
C337 C335 1.390 . S
C337 C338 1.387 . S
C337 H340 0.950 . S
C338 C337 1.387 . S
C338 C341 1.387 1_554 S
H339 C335 0.950 . S
H340 C337 0.950 . S
C341 C332 1.390 . S
C341 H334 0.950 . S
C341 C338 1.387 1_556 S
C342 C343 1.387 1_556 S
C342 H346 0.950 . S
C342 C351 1.390 . S
C343 C342 1.387 1_554 S
C343 C345 1.387 . S
H344 C351 0.950 . S
C345 C343 1.387 . S
C345 C347 1.390 . S
C345 H349 0.950 . S
H346 C342 0.950 . S
C347 C345 1.390 . S
C347 C348 1.387 . S
C347 H350 0.950 . S
C348 C347 1.387 . S
C348 C351 1.387 1_554 S
H349 C345 0.950 . S
H350 C347 0.950 . S
C351 C342 1.390 . S
C351 H344 0.950 . S
C351 C348 1.387 1_556 S
C352 C353 1.387 . S
C352 H356 0.950 . S
C352 C361 1.390 . S
C353 C352 1.387 . S
C353 C355 1.387 . S
H354 C361 0.950 . S
C355 C353 1.387 . S
C355 C357 1.390 . S
C355 H359 0.950 . S
H356 C352 0.950 . S
C357 C355 1.390 . S
C357 C358 1.387 . S
C357 H360 0.950 . S
C358 C357 1.387 . S
C358 C361 1.387 . S
H359 C355 0.950 . S
H360 C357 0.950 . S
C361 C352 1.390 . S
C361 H354 0.950 . S
C361 C358 1.387 . S
C362 C363 1.387 . S
C362 H366 0.950 . S
C362 C371 1.390 . S
C363 C362 1.387 . S
C363 C365 1.387 . S
H364 C371 0.950 . S
C365 C363 1.387 . S
C365 C367 1.390 . S
C365 H369 0.950 . S
H366 C362 0.950 . S
C367 C365 1.390 . S
C367 C368 1.387 . S
C367 H370 0.950 . S
C368 C367 1.387 . S
C368 C371 1.387 . S
H369 C365 0.950 . S
H370 C367 0.950 . S
C371 C362 1.390 . S
C371 H364 0.950 . S
C371 C368 1.387 . S
C372 C373 1.387 . S
C372 H376 0.950 . S
C372 C381 1.390 . S
C373 C372 1.387 . S
C373 C375 1.387 . S
H374 C381 0.950 . S
C375 C373 1.387 . S
C375 C377 1.390 . S
C375 H379 0.950 . S
H376 C372 0.950 . S
C377 C375 1.390 . S
C377 C378 1.387 . S
C377 H380 0.950 . S
C378 C377 1.387 . S
C378 C381 1.387 . S
H379 C375 0.950 . S
H380 C377 0.950 . S
C381 C372 1.390 . S
C381 H374 0.950 . S
C381 C378 1.387 . S
C382 C383 1.387 . S
C382 H386 0.950 . S
C382 C391 1.390 . S
C383 C382 1.387 . S
C383 C385 1.387 . S
H384 C391 0.950 . S
C385 C383 1.387 . S
C385 C387 1.390 . S
C385 H389 0.950 . S
H386 C382 0.950 . S
C387 C385 1.390 . S
C387 C388 1.387 . S
C387 H390 0.950 . S
C388 C387 1.387 . S
C388 C391 1.387 . S
H389 C385 0.950 . S
H390 C387 0.950 . S
C391 C382 1.390 . S
C391 H384 0.950 . S
C391 C388 1.387 . S
C392 C393 1.387 . S
C392 H396 0.950 . S
C392 C401 1.390 . S
C393 C392 1.387 . S
C393 C395 1.387 . S
H394 C401 0.950 . S
C395 C393 1.387 . S
C395 C397 1.390 . S
C395 H399 0.950 . S
H396 C392 0.950 . S
C397 C395 1.390 . S
C397 C398 1.387 . S
C397 H400 0.950 . S
C398 C397 1.387 . S
C398 C401 1.387 . S
H399 C395 0.950 . S
H400 C397 0.950 . S
C401 C392 1.390 . S
C401 H394 0.950 . S
C401 C398 1.387 . S
C402 C403 1.387 . S
C402 H406 0.950 . S
C402 C411 1.390 . S
C403 C402 1.387 . S
C403 C405 1.387 . S
H404 C411 0.950 . S
C405 C403 1.387 . S
C405 C407 1.390 . S
C405 H409 0.950 . S
H406 C402 0.950 . S
C407 C405 1.390 . S
C407 C408 1.387 . S
C407 H410 0.950 . S
C408 C407 1.387 . S
C408 C411 1.387 . S
H409 C405 0.950 . S
H410 C407 0.950 . S
C411 C402 1.390 . S
C411 H404 0.950 . S
C411 C408 1.387 . S
C412 C413 1.387 . S
C412 H416 0.950 . S
C412 C421 1.390 . S
C413 C412 1.387 . S
C413 C415 1.387 . S
H414 C421 0.950 . S
C415 C413 1.387 . S
C415 C417 1.390 . S
C415 H419 0.950 . S
H416 C412 0.950 . S
C417 C415 1.390 . S
C417 C418 1.387 . S
C417 H420 0.950 . S
C418 C417 1.387 . S
C418 C421 1.387 . S
H419 C415 0.950 . S
H420 C417 0.950 . S
C421 C412 1.390 . S
C421 H414 0.950 . S
C421 C418 1.387 . S
C422 C423 1.387 . S
C422 H426 0.950 . S
C422 C431 1.390 . S
C423 C422 1.387 . S
C423 C425 1.387 . S
H424 C431 0.950 . S
C425 C423 1.387 . S
C425 C427 1.390 . S
C425 H429 0.950 . S
H426 C422 0.950 . S
C427 C425 1.390 . S
C427 C428 1.387 . S
C427 H430 0.950 . S
C428 C427 1.387 . S
C428 C431 1.387 . S
H429 C425 0.950 . S
H430 C427 0.950 . S
C431 C422 1.390 . S
C431 H424 0.950 . S
C431 C428 1.387 . S
C432 C433 1.387 . S
C432 H436 0.950 . S
C432 C441 1.390 . S
C433 C432 1.387 . S
C433 C435 1.387 . S
H434 C441 0.950 . S
C435 C433 1.387 . S
C435 C437 1.390 . S
C435 H439 0.950 . S
H436 C432 0.950 . S
C437 C435 1.390 . S
C437 C438 1.387 . S
C437 H440 0.950 . S
C438 C437 1.387 . S
C438 C441 1.387 . S
H439 C435 0.950 . S
H440 C437 0.950 . S
C441 C432 1.390 . S
C441 H434 0.950 . S
C441 C438 1.387 . S
C442 C443 1.387 . S
C442 H446 0.950 . S
C442 C451 1.390 . S
C443 C442 1.387 . S
C443 C445 1.387 . S
H444 C451 0.950 . S
C445 C443 1.387 . S
C445 C447 1.390 . S
C445 H449 0.950 . S
H446 C442 0.950 . S
C447 C445 1.390 . S
C447 C448 1.387 . S
C447 H450 0.950 . S
C448 C447 1.387 . S
C448 C451 1.387 . S
H449 C445 0.950 . S
H450 C447 0.950 . S
C451 C442 1.390 . S
C451 H444 0.950 . S
C451 C448 1.387 . S
C452 C453 1.387 . S
C452 H456 0.950 . S
C452 C461 1.390 . S
C453 C452 1.387 . S
C453 C455 1.387 . S
H454 C461 0.950 . S
C455 C453 1.387 . S
C455 C457 1.390 . S
C455 H459 0.950 . S
H456 C452 0.950 . S
C457 C455 1.390 . S
C457 C458 1.387 . S
C457 H460 0.950 . S
C458 C457 1.387 . S
C458 C461 1.387 . S
H459 C455 0.950 . S
H460 C457 0.950 . S
C461 C452 1.390 . S
C461 H454 0.950 . S
C461 C458 1.387 . S
C462 C463 1.387 . S
C462 H466 0.950 . S
C462 C471 1.390 . S
C463 C462 1.387 . S
C463 C465 1.387 . S
H464 C471 0.950 . S
C465 C463 1.387 . S
C465 C467 1.390 . S
C465 H469 0.950 . S
H466 C462 0.950 . S
C467 C465 1.390 . S
C467 C468 1.387 . S
C467 H470 0.950 . S
C468 C467 1.387 . S
C468 C471 1.387 . S
H469 C465 0.950 . S
H470 C467 0.950 . S
C471 C462 1.390 . S
C471 H464 0.950 . S
C471 C468 1.387 . S
C233 C51 1.500 . S
C238 C108 1.497 . S
C243 C56 1.500 . S
C248 C173 1.500 . S
C253 C53 1.500 . S
C258 C110 1.500 . S
C263 C170 1.500 . S
C268 C55 1.497 . S
C273 C50 1.500 . S
C278 C109 1.503 . S
C283 C57 1.500 . S
C288 C172 1.500 . S
C293 C111 1.500 . S
C298 C52 1.500 . S
C303 C171 1.500 . S
C308 C54 1.503 . S
C313 C220 1.500 . S
C318 C47 1.497 . S
C323 C223 1.500 . S
C328 C48 1.500 . S
C333 C222 1.500 . S
C338 C49 1.500 . S
C343 C46 1.500 . S
C348 C221 1.503 . S
C353 C231 1.500 . S
C358 C114 1.503 . S
C363 C113 1.500 . S
C368 C228 1.500 . S
C373 C115 1.500 . S
C378 C230 1.497 . S
C383 C229 1.500 . S
C388 C112 1.500 . S
C393 C162 1.500 . S
C398 C105 1.500 . S
C403 C106 1.500 . S
C408 C165 1.497 . S
C413 C107 1.500 . S
C418 C164 1.503 . S
C423 C163 1.500 . S
C428 C104 1.500 . S
C433 C224 1.500 . S
C438 C167 1.500 . S
C443 C169 1.500 . S
C448 C226 1.503 . S
C453 C225 1.500 . S
C458 C166 1.500 . S
C463 C168 1.500 . S
C468 C227 1.497 . S
