# Generated by pormake.
# Topology uow, (4)-cn, num edge types: 1
# Building blocks:
#     Node 0, Type 0, BuildingBlock: GALJAG_clean_sbu_0, # of connection points: 4
#     Node 1, Type 0, BuildingBlock: GALJAG_clean_sbu_0, # of connection points: 4
#     Node 2, Type 0, BuildingBlock: GALJAG_clean_sbu_0, # of connection points: 4
#     Node 3, Type 0, BuildingBlock: GALJAG_clean_sbu_0, # of connection points: 4
#     Node 4, Type 0, BuildingBlock: GALJAG_clean_sbu_0, # of connection points: 4
#     Node 5, Type 0, BuildingBlock: GALJAG_clean_sbu_0, # of connection points: 4
#     Node 6, Type 0, BuildingBlock: GALJAG_clean_sbu_0, # of connection points: 4
#     Node 7, Type 0, BuildingBlock: GALJAG_clean_sbu_0, # of connection points: 4
#     Node 8, Type 0, BuildingBlock: GALJAG_clean_sbu_0, # of connection points: 4
#     Node 9, Type 0, BuildingBlock: GALJAG_clean_sbu_0, # of connection points: 4
#     Node 10, Type 0, BuildingBlock: GALJAG_clean_sbu_0, # of connection points: 4
#     Node 11, Type 0, BuildingBlock: GALJAG_clean_sbu_0, # of connection points: 4
#     Node 12, Type 0, BuildingBlock: GALJAG_clean_sbu_0, # of connection points: 4
#     Node 13, Type 0, BuildingBlock: GALJAG_clean_sbu_0, # of connection points: 4
#     Node 14, Type 0, BuildingBlock: GALJAG_clean_sbu_0, # of connection points: 4
#     Node 15, Type 0, BuildingBlock: GALJAG_clean_sbu_0, # of connection points: 4
#     Node 16, Type 0, BuildingBlock: GALJAG_clean_sbu_0, # of connection points: 4
#     Node 17, Type 0, BuildingBlock: GALJAG_clean_sbu_0, # of connection points: 4
#     Node 18, Type 0, BuildingBlock: GALJAG_clean_sbu_0, # of connection points: 4
#     Node 19, Type 0, BuildingBlock: GALJAG_clean_sbu_0, # of connection points: 4
#     Node 20, Type 0, BuildingBlock: GALJAG_clean_sbu_0, # of connection points: 4
#     Node 21, Type 0, BuildingBlock: GALJAG_clean_sbu_0, # of connection points: 4
#     Node 22, Type 0, BuildingBlock: GALJAG_clean_sbu_0, # of connection points: 4
#     Node 23, Type 0, BuildingBlock: GALJAG_clean_sbu_0, # of connection points: 4
#     Node 24, Type 0, BuildingBlock: GALJAG_clean_sbu_0, # of connection points: 4
#     Node 25, Type 0, BuildingBlock: GALJAG_clean_sbu_0, # of connection points: 4
#     Node 26, Type 0, BuildingBlock: GALJAG_clean_sbu_0, # of connection points: 4
#     Node 27, Type 0, BuildingBlock: GALJAG_clean_sbu_0, # of connection points: 4
#     Node 28, Type 0, BuildingBlock: GALJAG_clean_sbu_0, # of connection points: 4
#     Node 29, Type 0, BuildingBlock: GALJAG_clean_sbu_0, # of connection points: 4
#     Node 30, Type 0, BuildingBlock: GALJAG_clean_sbu_0, # of connection points: 4
#     Node 31, Type 0, BuildingBlock: GALJAG_clean_sbu_0, # of connection points: 4
#     Edge 32, Type (0, 0), BuildingBlock: XIVTED_clean_linker_0, # of connection points: 2
#     Edge 33, Type (0, 0), BuildingBlock: XIVTED_clean_linker_0, # of connection points: 2
#     Edge 34, Type (0, 0), BuildingBlock: XIVTED_clean_linker_0, # of connection points: 2
#     Edge 35, Type (0, 0), BuildingBlock: XIVTED_clean_linker_0, # of connection points: 2
#     Edge 36, Type (0, 0), BuildingBlock: XIVTED_clean_linker_0, # of connection points: 2
#     Edge 37, Type (0, 0), BuildingBlock: XIVTED_clean_linker_0, # of connection points: 2
#     Edge 38, Type (0, 0), BuildingBlock: XIVTED_clean_linker_0, # of connection points: 2
#     Edge 39, Type (0, 0), BuildingBlock: XIVTED_clean_linker_0, # of connection points: 2
#     Edge 40, Type (0, 0), BuildingBlock: XIVTED_clean_linker_0, # of connection points: 2
#     Edge 41, Type (0, 0), BuildingBlock: XIVTED_clean_linker_0, # of connection points: 2
#     Edge 42, Type (0, 0), BuildingBlock: XIVTED_clean_linker_0, # of connection points: 2
#     Edge 43, Type (0, 0), BuildingBlock: XIVTED_clean_linker_0, # of connection points: 2
#     Edge 44, Type (0, 0), BuildingBlock: XIVTED_clean_linker_0, # of connection points: 2
#     Edge 45, Type (0, 0), BuildingBlock: XIVTED_clean_linker_0, # of connection points: 2
#     Edge 46, Type (0, 0), BuildingBlock: XIVTED_clean_linker_0, # of connection points: 2
#     Edge 47, Type (0, 0), BuildingBlock: XIVTED_clean_linker_0, # of connection points: 2
#     Edge 48, Type (0, 0), BuildingBlock: XIVTED_clean_linker_0, # of connection points: 2
#     Edge 49, Type (0, 0), BuildingBlock: XIVTED_clean_linker_0, # of connection points: 2
#     Edge 50, Type (0, 0), BuildingBlock: XIVTED_clean_linker_0, # of connection points: 2
#     Edge 51, Type (0, 0), BuildingBlock: XIVTED_clean_linker_0, # of connection points: 2
#     Edge 52, Type (0, 0), BuildingBlock: XIVTED_clean_linker_0, # of connection points: 2
#     Edge 53, Type (0, 0), BuildingBlock: XIVTED_clean_linker_0, # of connection points: 2
#     Edge 54, Type (0, 0), BuildingBlock: XIVTED_clean_linker_0, # of connection points: 2
#     Edge 55, Type (0, 0), BuildingBlock: XIVTED_clean_linker_0, # of connection points: 2
#     Edge 56, Type (0, 0), BuildingBlock: XIVTED_clean_linker_0, # of connection points: 2
#     Edge 57, Type (0, 0), BuildingBlock: XIVTED_clean_linker_0, # of connection points: 2
#     Edge 58, Type (0, 0), BuildingBlock: XIVTED_clean_linker_0, # of connection points: 2
#     Edge 59, Type (0, 0), BuildingBlock: XIVTED_clean_linker_0, # of connection points: 2
#     Edge 60, Type (0, 0), BuildingBlock: XIVTED_clean_linker_0, # of connection points: 2
#     Edge 61, Type (0, 0), BuildingBlock: XIVTED_clean_linker_0, # of connection points: 2
#     Edge 62, Type (0, 0), BuildingBlock: XIVTED_clean_linker_0, # of connection points: 2
#     Edge 63, Type (0, 0), BuildingBlock: XIVTED_clean_linker_0, # of connection points: 2
#     Edge 64, Type (0, 0), BuildingBlock: XIVTED_clean_linker_0, # of connection points: 2
#     Edge 65, Type (0, 0), BuildingBlock: XIVTED_clean_linker_0, # of connection points: 2
#     Edge 66, Type (0, 0), BuildingBlock: XIVTED_clean_linker_0, # of connection points: 2
#     Edge 67, Type (0, 0), BuildingBlock: XIVTED_clean_linker_0, # of connection points: 2
#     Edge 68, Type (0, 0), BuildingBlock: XIVTED_clean_linker_0, # of connection points: 2
#     Edge 69, Type (0, 0), BuildingBlock: XIVTED_clean_linker_0, # of connection points: 2
#     Edge 70, Type (0, 0), BuildingBlock: XIVTED_clean_linker_0, # of connection points: 2
#     Edge 71, Type (0, 0), BuildingBlock: XIVTED_clean_linker_0, # of connection points: 2
#     Edge 72, Type (0, 0), BuildingBlock: XIVTED_clean_linker_0, # of connection points: 2
#     Edge 73, Type (0, 0), BuildingBlock: XIVTED_clean_linker_0, # of connection points: 2
#     Edge 74, Type (0, 0), BuildingBlock: XIVTED_clean_linker_0, # of connection points: 2
#     Edge 75, Type (0, 0), BuildingBlock: XIVTED_clean_linker_0, # of connection points: 2
#     Edge 76, Type (0, 0), BuildingBlock: XIVTED_clean_linker_0, # of connection points: 2
#     Edge 77, Type (0, 0), BuildingBlock: XIVTED_clean_linker_0, # of connection points: 2
#     Edge 78, Type (0, 0), BuildingBlock: XIVTED_clean_linker_0, # of connection points: 2
#     Edge 79, Type (0, 0), BuildingBlock: XIVTED_clean_linker_0, # of connection points: 2
#     Edge 80, Type (0, 0), BuildingBlock: XIVTED_clean_linker_0, # of connection points: 2
#     Edge 81, Type (0, 0), BuildingBlock: XIVTED_clean_linker_0, # of connection points: 2
#     Edge 82, Type (0, 0), BuildingBlock: XIVTED_clean_linker_0, # of connection points: 2
#     Edge 83, Type (0, 0), BuildingBlock: XIVTED_clean_linker_0, # of connection points: 2
#     Edge 84, Type (0, 0), BuildingBlock: XIVTED_clean_linker_0, # of connection points: 2
#     Edge 85, Type (0, 0), BuildingBlock: XIVTED_clean_linker_0, # of connection points: 2
#     Edge 86, Type (0, 0), BuildingBlock: XIVTED_clean_linker_0, # of connection points: 2
#     Edge 87, Type (0, 0), BuildingBlock: XIVTED_clean_linker_0, # of connection points: 2
#     Edge 88, Type (0, 0), BuildingBlock: XIVTED_clean_linker_0, # of connection points: 2
#     Edge 89, Type (0, 0), BuildingBlock: XIVTED_clean_linker_0, # of connection points: 2
#     Edge 90, Type (0, 0), BuildingBlock: XIVTED_clean_linker_0, # of connection points: 2
#     Edge 91, Type (0, 0), BuildingBlock: XIVTED_clean_linker_0, # of connection points: 2
#     Edge 92, Type (0, 0), BuildingBlock: XIVTED_clean_linker_0, # of connection points: 2
#     Edge 93, Type (0, 0), BuildingBlock: XIVTED_clean_linker_0, # of connection points: 2
#     Edge 94, Type (0, 0), BuildingBlock: XIVTED_clean_linker_0, # of connection points: 2
#     Edge 95, Type (0, 0), BuildingBlock: XIVTED_clean_linker_0, # of connection points: 2
# Relax obj value: 0.043
# Max RMSD: 0.080
# Mean RMSD: 0.080
data_MOF--net-uow--node1-GALJAG_clean_sbu_0--edge1-XIVTED_clean_linker_0
_symmetry_space_group_name_H-M    P1
_symmetry_Int_Tables_number       1
_symmetry_cell_setting            triclinic
loop_
_symmetry_equiv_pos_as_xyz
'x, y, z'
_cell_length_a     59.871926
_cell_length_b     59.846675
_cell_length_c     45.032128
_cell_angle_alpha  90.006818
_cell_angle_beta   90.0357
_cell_angle_gamma 90.060808
loop_
_atom_site_label
_atom_site_type_symbol
_atom_site_fract_x
_atom_site_fract_y
_atom_site_fract_z
_atom_type_partial_charge
In0 In 0.07357 0.37667 0.27287 0.0
O1 O 0.09571 0.40813 0.27349 0.0
O2 O 0.06207 0.41071 0.25854 0.0
C3 C 0.09836 0.34687 0.30346 0.0
C4 C 0.07782 0.36395 0.21611 0.0
C5 C 0.03508 0.37572 0.3038 0.0
O6 O 0.09717 0.36714 0.31111 0.0
O7 O 0.08779 0.34205 0.28014 0.0
O8 O 0.03617 0.3694 0.27708 0.0
O9 O 0.05329 0.38248 0.31465 0.0
C10 C 0.08051 0.42039 0.26278 0.0
O11 O 0.06127 0.35808 0.23173 0.0
O12 O 0.09229 0.37563 0.22938 0.0
In13 In 0.86561 0.80825 0.52093 0.0
O14 O 0.88531 0.79779 0.47979 0.0
O15 O 0.88034 0.83249 0.48759 0.0
C16 C 0.8544 0.76708 0.53989 0.0
C17 C 0.82511 0.82411 0.50561 0.0
C18 C 0.8941 0.82241 0.56364 0.0
O19 O 0.86727 0.77031 0.5181 0.0
O20 O 0.84685 0.78464 0.55174 0.0
O21 O 0.87832 0.83451 0.55431 0.0
O22 O 0.89542 0.80354 0.55142 0.0
C23 C 0.88812 0.81756 0.47076 0.0
O24 O 0.83433 0.82939 0.5299 0.0
O25 O 0.83611 0.81068 0.48979 0.0
In26 In 0.42527 0.60974 0.78693 0.0
O27 O 0.40559 0.57711 0.79397 0.0
O28 O 0.43342 0.57704 0.76461 0.0
C29 C 0.40025 0.63407 0.82527 0.0
C30 C 0.41895 0.62548 0.73166 0.0
C31 C 0.46715 0.61543 0.8078 0.0
O32 O 0.41348 0.61906 0.83388 0.0
O33 O 0.39878 0.63587 0.79752 0.0
O34 O 0.45779 0.6292 0.79063 0.0
O35 O 0.45557 0.59842 0.81397 0.0
C36 C 0.41741 0.56624 0.77576 0.0
O37 O 0.43602 0.63047 0.74678 0.0
O38 O 0.40506 0.61295 0.74462 0.0
In39 In 0.63123 0.17689 0.03418 0.0
O40 O 0.66407 0.18022 0.01006 0.0
O41 O 0.66366 0.15907 0.04803 0.0
C42 C 0.60551 0.15453 0.07397 0.0
C43 C 0.61572 0.16788 0.97952 0.0
C44 C 0.62785 0.22054 0.04853 0.0
O45 O 0.60602 0.14982 0.04677 0.0
O46 O 0.61886 0.16975 0.08153 0.0
O47 O 0.61339 0.21045 0.03317 0.0
O48 O 0.64428 0.20872 0.05624 0.0
C49 C 0.67475 0.16708 0.02665 0.0
O50 O 0.61009 0.18531 0.99348 0.0
O51 O 0.62871 0.15496 0.99339 0.0
In52 In 0.07628 0.62341 0.20368 0.0
O53 O 0.10111 0.59417 0.20769 0.0
O54 O 0.06729 0.58719 0.19673 0.0
C55 C 0.10167 0.6551 0.17705 0.0
C56 C 0.0756 0.63144 0.2624 0.0
C57 C 0.03613 0.62565 0.17675 0.0
O58 O 0.09916 0.63587 0.16615 0.0
O59 O 0.09213 0.65796 0.20162 0.0
O60 O 0.03819 0.62634 0.20464 0.0
O61 O 0.05427 0.62423 0.16264 0.0
C62 C 0.08646 0.57956 0.20208 0.0
O63 O 0.06243 0.64106 0.2446 0.0
O64 O 0.08904 0.61788 0.25055 0.0
In65 In 0.62743 0.81798 0.45244 0.0
O66 O 0.63007 0.8073 0.50066 0.0
O67 O 0.60389 0.82974 0.48898 0.0
C68 C 0.63528 0.77533 0.436 0.0
C69 C 0.66725 0.83952 0.45294 0.0
C70 C 0.59426 0.83298 0.41675 0.0
O71 O 0.6241 0.7803 0.45878 0.0
O72 O 0.64282 0.79186 0.4218 0.0
O73 O 0.60893 0.84601 0.42713 0.0
O74 O 0.59649 0.81289 0.42436 0.0
C75 C 0.61365 0.81885 0.50922 0.0
O76 O 0.65357 0.8405 0.47408 0.0
O77 O 0.6603 0.8288 0.43068 0.0
In78 In 0.42763 0.3674 0.71464 0.0
O79 O 0.40236 0.3919 0.73525 0.0
O80 O 0.42093 0.40259 0.69795 0.0
C81 C 0.40849 0.33317 0.68498 0.0
C82 C 0.43096 0.35539 0.7719 0.0
C83 C 0.46761 0.37255 0.68772 0.0
O84 O 0.40075 0.35277 0.68355 0.0
O85 O 0.42547 0.33105 0.70123 0.0
O86 O 0.46599 0.36761 0.71486 0.0
O87 O 0.44923 0.37463 0.67441 0.0
C88 C 0.40701 0.40763 0.71773 0.0
O89 O 0.44258 0.37106 0.76107 0.0
O90 O 0.41787 0.34593 0.75384 0.0
In91 In 0.87648 0.18517 0.97098 0.0
O92 O 0.89342 0.19316 0.01502 0.0
O93 O 0.89384 0.15944 -0.00015 0.0
C94 C 0.86494 0.22675 0.95418 0.0
C95 C 0.83586 0.16808 0.98301 0.0
C96 C 0.90649 0.17486 0.92854 0.0
O97 O 0.87724 0.22307 0.97646 0.0
O98 O 0.85813 0.20945 0.94095 0.0
O99 O 0.8906 0.16181 0.93504 0.0
O100 O 0.90706 0.19269 0.94339 0.0
C101 C 0.89921 0.17319 0.01989 0.0
O102 O 0.84529 0.1651 0.95821 0.0
O103 O 0.84699 0.17939 0.00142 0.0
In104 In 0.90693 0.62005 0.70737 0.0
O105 O 0.91432 0.6413 0.74845 0.0
O106 O 0.88313 0.62426 0.74595 0.0
C107 C 0.9485 0.62929 0.68744 0.0
C108 C 0.90345 0.57659 0.72195 0.0
C109 C 0.88049 0.63855 0.66528 0.0
O110 O 0.93634 0.6437 0.69995 0.0
O111 O 0.93983 0.61015 0.68533 0.0
O112 O 0.89403 0.62304 0.65944 0.0
O113 O 0.87984 0.64402 0.69222 0.0
C114 C 0.89589 0.63681 0.76077 0.0
O115 O 0.89103 0.58534 0.70245 0.0
O116 O 0.9178 0.58957 0.73305 0.0
In117 In 0.1251 0.17694 0.46321 0.0
O118 O 0.11591 0.19039 0.50917 0.0
O119 O 0.1169 0.15515 0.50279 0.0
C120 C 0.12539 0.21527 0.43205 0.0
C121 C 0.16874 0.16658 0.46646 0.0
C122 C 0.09154 0.15704 0.43366 0.0
O123 O 0.11992 0.21467 0.45917 0.0
O124 O 0.13052 0.19661 0.4209 0.0
O125 O 0.11176 0.15267 0.42797 0.0
O126 O 0.08855 0.17112 0.4541 0.0
C127 C 0.11335 0.17118 0.52034 0.0
O128 O 0.15421 0.15186 0.46077 0.0
O129 O 0.16117 0.18597 0.47032 0.0
In130 In 0.57111 0.37788 0.21151 0.0
O131 O 0.58738 0.41205 0.20267 0.0
O132 O 0.57051 0.40679 0.24362 0.0
C133 C 0.58765 0.35275 0.16684 0.0
C134 C 0.58279 0.35444 0.26015 0.0
C135 C 0.52847 0.38339 0.19439 0.0
O136 O 0.59946 0.36726 0.17984 0.0
O137 O 0.56798 0.35112 0.17635 0.0
O138 O 0.53409 0.37047 0.21528 0.0
O139 O 0.54439 0.39402 0.18254 0.0
C140 C 0.58154 0.41998 0.22751 0.0
O141 O 0.56275 0.3565 0.25193 0.0
O142 O 0.59692 0.36359 0.24331 0.0
In143 In 0.37829 0.81501 0.96182 0.0
O144 O 0.37067 0.80466 0.0096 0.0
O145 O 0.39897 0.8254 0.00173 0.0
C146 C 0.37762 0.7733 0.93861 0.0
C147 C 0.33742 0.83403 0.96152 0.0
C148 C 0.41025 0.83625 0.93027 0.0
O149 O 0.3838 0.77705 0.96492 0.0
O150 O 0.37214 0.79046 0.92421 0.0
O151 O 0.38976 0.8402 0.9264 0.0
O152 O 0.41445 0.82192 0.94994 0.0
C153 C 0.38699 0.81528 0.02046 0.0
O154 O 0.35373 0.84289 0.9748 0.0
O155 O 0.34203 0.81633 0.94773 0.0
In156 In 0.91823 0.37486 0.78881 0.0
O157 O 0.89495 0.40224 0.7716 0.0
O158 O 0.92005 0.41129 0.80269 0.0
C159 C 0.89161 0.35604 0.83041 0.0
C160 C 0.91899 0.36071 0.73202 0.0
C161 C 0.96066 0.36478 0.80417 0.0
O162 O 0.90859 0.3675 0.8368 0.0
O163 O 0.88752 0.35473 0.80301 0.0
O164 O 0.94609 0.35007 0.79894 0.0
O165 O 0.95394 0.38461 0.80124 0.0
C166 C 0.90434 0.41765 0.78609 0.0
O167 O 0.92777 0.37886 0.74021 0.0
O168 O 0.91001 0.34952 0.75255 0.0
In169 In 0.37309 0.15925 0.53335 0.0
O170 O 0.39293 0.17202 0.4938 0.0
O171 O 0.38184 0.13811 0.49317 0.0
C172 C 0.37564 0.19724 0.56554 0.0
C173 C 0.33004 0.1559 0.5164 0.0
C174 C 0.39772 0.13202 0.5678 0.0
O175 O 0.383 0.19592 0.53934 0.0
O176 O 0.36718 0.17945 0.57545 0.0
O177 O 0.37714 0.13502 0.5725 0.0
O178 O 0.40553 0.14241 0.5458 0.0
C179 C 0.39201 0.15369 0.47987 0.0
O180 O 0.33967 0.14012 0.52991 0.0
O181 O 0.34192 0.17298 0.51241 0.0
In182 In 0.56657 0.62243 0.2893 0.0
O183 O 0.55322 0.62021 0.24193 0.0
O184 O 0.57229 0.64885 0.2539 0.0
C185 C 0.5254 0.63203 0.31025 0.0
C186 C 0.58108 0.57993 0.284 0.0
C187 C 0.59658 0.64157 0.32634 0.0
O188 O 0.5397 0.64674 0.30397 0.0
O189 O 0.53169 0.61222 0.30563 0.0
O190 O 0.5797 0.63106 0.33549 0.0
O191 O 0.59883 0.64166 0.29852 0.0
C192 C 0.56164 0.63859 0.23391 0.0
O193 O 0.58718 0.59528 0.26666 0.0
O194 O 0.56811 0.58612 0.30445 0.0
In195 In 0.13534 0.83319 0.03451 0.0
O196 O 0.11361 0.8229 0.99522 0.0
O197 O 0.13188 0.85351 0.99247 0.0
C198 C 0.13362 0.7935 0.06303 0.0
C199 C 0.17862 0.83872 0.02011 0.0
C200 C 0.10875 0.85972 0.06763 0.0
O201 O 0.12656 0.79603 0.03684 0.0
O202 O 0.14137 0.81096 0.07481 0.0
O203 O 0.12877 0.85594 0.07483 0.0
O204 O 0.10252 0.85048 0.04395 0.0
C205 C 0.11877 0.83988 0.97994 0.0
O206 O 0.16835 0.85303 0.03559 0.0
O207 O 0.1673 0.82175 0.01319 0.0
In208 In 0.58099 0.87206 0.77647 0.0
O209 O 0.60285 0.90333 0.78244 0.0
O210 O 0.57626 0.90445 0.75124 0.0
C211 C 0.60362 0.84257 0.81018 0.0
C212 C 0.58654 0.85458 0.72217 0.0
C213 C 0.54195 0.87389 0.80664 0.0
O214 O 0.60568 0.8634 0.81361 0.0
O215 O 0.59047 0.83676 0.78972 0.0
O216 O 0.54352 0.86502 0.78135 0.0
O217 O 0.55988 0.88205 0.81641 0.0
C218 C 0.59238 0.91452 0.76322 0.0
O219 O 0.56745 0.85823 0.73311 0.0
O220 O 0.60283 0.85956 0.73879 0.0
In221 In 0.37131 0.32648 0.03215 0.0
O222 O 0.38791 0.31131 0.9915 0.0
O223 O 0.39383 0.34572 0.00029 0.0
C224 C 0.36296 0.28568 0.05503 0.0
C225 C 0.33069 0.34172 0.01536 0.0
C226 C 0.39716 0.3455 0.07427 0.0
O227 O 0.37577 0.28867 0.03313 0.0
O228 O 0.35389 0.30322 0.0649 0.0
O229 O 0.38578 0.3571 0.05641 0.0
O230 O 0.39553 0.32471 0.07066 0.0
C231 C 0.39716 0.32925 0.98337 0.0
O232 O 0.33841 0.34507 0.04104 0.0
O233 O 0.34341 0.33091 -0.00154 0.0
In234 In 0.91829 0.11461 0.28373 0.0
O235 O 0.89342 0.08674 0.27217 0.0
O236 O 0.92307 0.07822 0.29561 0.0
C237 C 0.88931 0.14393 0.30832 0.0
C238 C 0.92561 0.12557 0.22657 0.0
C239 C 0.9563 0.1178 0.3157 0.0
O240 O 0.89283 0.12484 0.31912 0.0
O241 O 0.89921 0.14758 0.28416 0.0
O242 O 0.95652 0.11355 0.28825 0.0
O243 O 0.93713 0.12036 0.32663 0.0
C244 C 0.90524 0.07155 0.28365 0.0
O245 O 0.93217 0.13771 0.2478 0.0
O246 O 0.91564 0.10793 0.23423 0.0
In247 In 0.11348 0.68382 0.52858 0.0
O248 O 0.09741 0.6906 0.48359 0.0
O249 O 0.10645 0.65713 0.49398 0.0
C250 C 0.11699 0.72488 0.55181 0.0
C251 C 0.15756 0.67767 0.52128 0.0
C252 C 0.08226 0.66874 0.5667 0.0
O253 O 0.10794 0.72142 0.52681 0.0
O254 O 0.12419 0.70763 0.56487 0.0
O255 O 0.10114 0.65935 0.56466 0.0
O256 O 0.07933 0.68495 0.54931 0.0
C257 C 0.09823 0.67048 0.47527 0.0
O258 O 0.146 0.66401 0.53631 0.0
O259 O 0.14681 0.69367 0.51005 0.0
In260 In 0.56491 0.11593 0.71672 0.0
O261 O 0.5541 0.13027 0.76146 0.0
O262 O 0.58875 0.13032 0.75068 0.0
C263 C 0.52442 0.10388 0.69615 0.0
C264 C 0.58327 0.07532 0.72427 0.0
C265 C 0.57723 0.14853 0.67868 0.0
O266 O 0.52676 0.11542 0.71945 0.0
O267 O 0.54244 0.09813 0.68386 0.0
O268 O 0.59027 0.13287 0.68586 0.0
O269 O 0.55828 0.14772 0.69076 0.0
C270 C 0.57381 0.13478 0.76953 0.0
O271 O 0.58558 0.08619 0.70041 0.0
O272 O 0.57178 0.0849 0.74394 0.0
In273 In 0.13111 0.31687 0.95472 0.0
O274 O 0.11396 0.30746 -0.00192 0.0
O275 O 0.11526 0.34187 0.98612 0.0
C276 C 0.14305 0.27496 0.93982 0.0
C277 C 0.17149 0.33507 0.96523 0.0
C278 C 0.10023 0.32796 0.91355 0.0
O279 O 0.13117 0.27924 0.96226 0.0
O280 O 0.14926 0.29188 0.92526 0.0
O281 O 0.1157 0.34122 0.92087 0.0
O282 O 0.10058 0.30944 0.92677 0.0
C283 C 0.10936 0.3274 0.00495 0.0
O284 O 0.16017 0.32516 0.98476 0.0
O285 O 0.16252 0.33588 0.93984 0.0
In286 In 0.93602 0.87344 0.20982 0.0
O287 O 0.91388 0.9044 0.20281 0.0
O288 O 0.93598 0.9034 0.23988 0.0
C289 C 0.92173 0.84378 0.16892 0.0
C290 C 0.9267 0.85202 0.26076 0.0
C291 C 0.9763 0.88481 0.18808 0.0
O292 O 0.91026 0.86073 0.1758 0.0
O293 O 0.93992 0.84193 0.18275 0.0
O294 O 0.97404 0.87349 0.21155 0.0
O295 O 0.95823 0.89068 0.1759 0.0
C296 C 0.92115 0.91402 0.22592 0.0
O297 O 0.9464 0.85361 0.25094 0.0
O298 O 0.91185 0.86036 0.24428 0.0
In299 In 0.3651 0.69024 0.47482 0.0
O300 O 0.38311 0.69628 0.51886 0.0
O301 O 0.37522 0.66281 0.50669 0.0
C302 C 0.35943 0.73159 0.4529 0.0
C303 C 0.3221 0.68136 0.48714 0.0
C304 C 0.39491 0.67601 0.43434 0.0
O305 O 0.37005 0.72799 0.47673 0.0
O306 O 0.35151 0.71437 0.44052 0.0
O307 O 0.37644 0.66605 0.43793 0.0
O308 O 0.3981 0.69249 0.45123 0.0
C309 C 0.38363 0.67581 0.52571 0.0
O310 O 0.33259 0.67044 0.46751 0.0
O311 O 0.33334 0.69634 0.50001 0.0
In312 In 0.42268 0.12372 0.2068 0.0
O313 O 0.43406 0.11515 0.25381 0.0
O314 O 0.4141 0.14422 0.24765 0.0
C315 C 0.46393 0.1267 0.18231 0.0
C316 C 0.40577 0.08188 0.20792 0.0
C317 C 0.39783 0.15382 0.17644 0.0
O318 O 0.45991 0.13317 0.20839 0.0
O319 O 0.44721 0.11916 0.16865 0.0
O320 O 0.39772 0.13331 0.17 0.0
O321 O 0.41011 0.15892 0.19809 0.0
C322 C 0.42437 0.13167 0.26555 0.0
O323 O 0.39597 0.09801 0.22039 0.0
O324 O 0.42332 0.08711 0.1942 0.0
In325 In 0.62069 0.68112 0.97709 0.0
O326 O 0.6025 0.69495 0.01758 0.0
O327 O 0.6002 0.66006 0.00894 0.0
C328 C 0.63165 0.71922 0.94894 0.0
C329 C 0.66064 0.6675 -0.00208 0.0
C330 C 0.59342 0.6641 0.93534 0.0
O331 O 0.61953 0.71898 0.97191 0.0
O332 O 0.63872 0.70032 0.94079 0.0
O333 O 0.60884 0.65252 0.94685 0.0
O334 O 0.59184 0.68377 0.94513 0.0
C335 C 0.5951 0.67615 0.0257 0.0
O336 O 0.65185 0.6587 0.97521 0.0
O337 O 0.64936 0.68292 0.00957 0.0
In338 In 0.06176 0.87905 0.71399 0.0
O339 O 0.05369 0.86336 0.75917 0.0
O340 O 0.0867 0.87528 0.75114 0.0
C341 C 0.02039 0.87 0.69326 0.0
C342 C 0.06782 0.92288 0.72418 0.0
C343 C 0.08714 0.85629 0.67481 0.0
O344 O 0.03124 0.8564 0.70911 0.0
O345 O 0.03016 0.88834 0.68857 0.0
O346 O 0.07623 0.87341 0.66733 0.0
O347 O 0.08561 0.85118 0.70182 0.0
C348 C 0.07322 0.86641 0.76915 0.0
O349 O 0.08005 0.91217 0.70629 0.0
O350 O 0.05212 0.91172 0.73551 0.0
In351 In 0.87517 0.31654 0.46456 0.0
O352 O 0.8905 0.305 0.50829 0.0
O353 O 0.88391 0.33978 0.50239 0.0
C354 C 0.87266 0.27846 0.43296 0.0
C355 C 0.83203 0.3232 0.47809 0.0
C356 C 0.90573 0.33825 0.43194 0.0
O357 O 0.88118 0.27912 0.45865 0.0
O358 O 0.86577 0.29699 0.42325 0.0
O359 O 0.88502 0.34144 0.42809 0.0
O360 O 0.91067 0.3244 0.45198 0.0
C361 C 0.89109 0.32449 0.51919 0.0
O362 O 0.84298 0.33765 0.46359 0.0
O363 O 0.84282 0.3059 0.48497 0.0
In364 In 0.41371 0.87991 0.28351 0.0
O365 O 0.42787 0.8623 0.24295 0.0
O366 O 0.39251 0.86435 0.24682 0.0
C367 C 0.45472 0.87234 0.30635 0.0
C368 C 0.40586 0.92254 0.26631 0.0
C369 C 0.38777 0.86095 0.32569 0.0
O370 O 0.44311 0.85736 0.29407 0.0
O371 O 0.44572 0.89141 0.30704 0.0
O372 O 0.38481 0.85778 0.29831 0.0
O373 O 0.40317 0.87457 0.33185 0.0
C374 C 0.40905 0.8579 0.23171 0.0
O375 O 0.39542 0.91377 0.28767 0.0
O376 O 0.42028 0.91011 0.2546 0.0
In377 In 0.86401 0.67004 0.03468 0.0
O378 O 0.86915 0.68538 0.98836 0.0
O379 O 0.86376 0.65043 0.9916 0.0
C380 C 0.87427 0.71248 0.04922 0.0
C381 C 0.82107 0.65789 0.04377 0.0
C382 C 0.89341 0.6466 0.06802 0.0
O383 O 0.88882 0.69811 0.04241 0.0
O384 O 0.85432 0.70566 0.04774 0.0
O385 O 0.87611 0.65526 0.07903 0.0
O386 O 0.89518 0.64895 0.04037 0.0
C387 C 0.86726 0.66696 0.975 0.0
O388 O 0.83464 0.64604 0.02937 0.0
O389 O 0.8294 0.6754 0.05475 0.0
In390 In 0.08145 0.12425 0.78994 0.0
O391 O 0.07117 0.1217 0.74141 0.0
O392 O 0.09063 0.14978 0.75431 0.0
C393 C 0.0398 0.13584 0.80728 0.0
C394 C 0.09182 0.08048 0.78688 0.0
C395 C 0.11084 0.1414 0.8295 0.0
O396 O 0.05519 0.14996 0.80359 0.0
O397 O 0.04527 0.11598 0.8016 0.0
O398 O 0.09325 0.13139 0.83719 0.0
O399 O 0.11411 0.14191 0.80188 0.0
C400 C 0.08099 0.13939 0.73357 0.0
O401 O 0.10106 0.09489 0.77056 0.0
O402 O 0.07835 0.08834 0.80564 0.0
In403 In 0.6251 0.32195 0.53093 0.0
O404 O 0.65749 0.34241 0.53307 0.0
O405 O 0.6594 0.30737 0.5249 0.0
C406 C 0.60079 0.35023 0.56487 0.0
C407 C 0.61693 0.32447 0.47218 0.0
C408 C 0.61535 0.28233 0.55623 0.0
O409 O 0.61768 0.34009 0.57464 0.0
O410 O 0.59687 0.34694 0.53777 0.0
O411 O 0.60247 0.29159 0.53774 0.0
O412 O 0.63306 0.29297 0.56172 0.0
C413 C 0.66971 0.32562 0.52797 0.0
O414 O 0.60915 0.30892 0.48805 0.0
O415 O 0.62838 0.33877 0.486 0.0
H416 H 0.05707 0.33034 0.18516 0.0
H417 H 0.10728 0.36892 0.02942 0.0
H418 H 0.1031 0.38534 0.17503 0.0
H419 H 0.09115 0.29988 0.04711 0.0
H420 H 0.09693 0.37831 0.08039 0.0
H421 H 0.0615 0.32176 0.13202 0.0
C422 C 0.06801 0.34062 0.17172 0.0
C423 C 0.07989 0.35844 0.18439 0.0
C424 C 0.09546 0.36115 0.07299 0.0
C425 C 0.0846 0.34909 0.12405 0.0
C426 C 0.10123 0.3558 0.0439 0.0
C427 C 0.10025 0.33356 0.0342 0.0
C428 C 0.08841 0.3442 0.09236 0.0
C429 C 0.0923 0.31721 0.05388 0.0
C430 C 0.07053 0.33572 0.14156 0.0
C431 C 0.09382 0.37131 0.16614 0.0
N432 N 0.08672 0.32284 0.08217 0.0
N433 N 0.09572 0.36645 0.13685 0.0
H434 H 0.95255 0.82582 0.29721 0.0
H435 H 0.88332 0.85631 0.44019 0.0
H436 H 0.88962 0.86081 0.29313 0.0
H437 H 0.91242 0.79053 0.43361 0.0
H438 H 0.89351 0.86332 0.38851 0.0
H439 H 0.94484 0.81658 0.34959 0.0
C440 C 0.93707 0.83134 0.30725 0.0
C441 C 0.92165 0.84403 0.29093 0.0
C442 C 0.89781 0.84743 0.39852 0.0
C443 C 0.91324 0.83424 0.35038 0.0
C444 C 0.89219 0.84348 0.42801 0.0
C445 C 0.89696 0.82277 0.44106 0.0
C446 C 0.90866 0.83075 0.38215 0.0
C447 C 0.90838 0.80668 0.42421 0.0
C448 C 0.93274 0.82611 0.33697 0.0
C449 C 0.90188 0.85089 0.30488 0.0
N450 N 0.91393 0.81101 0.39547 0.0
N451 N 0.89839 0.84618 0.33394 0.0
H452 H 0.44023 0.65958 0.70241 0.0
H453 H 0.3798 0.63383 0.54824 0.0
H454 H 0.39013 0.60841 0.69095 0.0
H455 H 0.40578 0.6993 0.56903 0.0
H456 H 0.39022 0.6212 0.59786 0.0
H457 H 0.43382 0.67166 0.6509 0.0
C458 C 0.42795 0.65089 0.68903 0.0
C459 C 0.41558 0.63308 0.70088 0.0
C460 C 0.39374 0.6383 0.59151 0.0
C461 C 0.40849 0.64648 0.64228 0.0
C462 C 0.3879 0.64549 0.56317 0.0
C463 C 0.39179 0.66769 0.55464 0.0
C464 C 0.40374 0.65332 0.6114 0.0
C465 C 0.40237 0.68208 0.57486 0.0
C466 C 0.42429 0.65779 0.65977 0.0
C467 C 0.39989 0.62233 0.68271 0.0
N468 N 0.40798 0.67466 0.60242 0.0
N469 N 0.39686 0.62913 0.65427 0.0
H470 H 0.54557 0.15127 0.81221 0.0
H471 H 0.63486 0.13907 0.94062 0.0
H472 H 0.61471 0.13521 0.79562 0.0
H473 H 0.58105 0.18663 0.94845 0.0
H474 H 0.62443 0.13266 0.8889 0.0
H475 H 0.55532 0.16052 0.86385 0.0
C476 C 0.56279 0.14988 0.81937 0.0
C477 C 0.57937 0.14246 0.79972 0.0
C478 C 0.61492 0.14451 0.90194 0.0
C479 C 0.59042 0.15247 0.85842 0.0
C480 C 0.62075 0.14806 0.93147 0.0
C481 C 0.60879 0.16341 0.94872 0.0
C482 C 0.59676 0.15609 0.88971 0.0
C483 C 0.59072 0.17471 0.93575 0.0
C484 C 0.56831 0.15516 0.84872 0.0
C485 C 0.60142 0.14091 0.81003 0.0
N486 N 0.58511 0.17071 0.90695 0.0
N487 N 0.60626 0.14562 0.83877 0.0
H488 H 0.05442 0.66521 0.29209 0.0
H489 H 0.10352 0.62933 0.45027 0.0
H490 H 0.09738 0.60824 0.30562 0.0
H491 H 0.07783 0.69528 0.43204 0.0
H492 H 0.09527 0.61854 0.3991 0.0
H493 H 0.05703 0.67373 0.34523 0.0
C494 C 0.06425 0.65442 0.30629 0.0
C495 C 0.07585 0.63611 0.29451 0.0
C496 C 0.09132 0.63533 0.40635 0.0
C497 C 0.07878 0.64564 0.35505 0.0
C498 C 0.09595 0.64148 0.43556 0.0
C499 C 0.09151 0.66328 0.44527 0.0
C500 C 0.08207 0.65106 0.38679 0.0
C501 C 0.08165 0.67834 0.42533 0.0
C502 C 0.06578 0.65931 0.33654 0.0
C503 C 0.08833 0.62263 0.31382 0.0
N504 N 0.07732 0.67197 0.39694 0.0
N505 N 0.08949 0.62768 0.34315 0.0
H506 H 0.5765 0.83846 0.533 0.0
H507 H 0.62478 0.8386 0.69706 0.0
H508 H 0.63714 0.80404 0.55718 0.0
H509 H 0.55534 0.85157 0.67808 0.0
H510 H 0.63011 0.82696 0.64548 0.0
H511 H 0.56859 0.8445 0.58575 0.0
C512 C 0.58803 0.83202 0.54943 0.0
C513 C 0.60754 0.82084 0.54079 0.0
C514 C 0.61366 0.83216 0.65267 0.0
C515 C 0.59878 0.82789 0.60094 0.0
C516 C 0.61064 0.83887 0.68205 0.0
C517 C 0.58962 0.84613 0.69173 0.0
C518 C 0.59562 0.83308 0.63277 0.0
C519 C 0.57182 0.84608 0.67145 0.0
C520 C 0.5835 0.83542 0.57949 0.0
C521 C 0.62191 0.81277 0.56293 0.0
N522 N 0.57527 0.83989 0.6428 0.0
N523 N 0.61738 0.81668 0.592 0.0
H524 H 0.41823 0.36603 0.96047 0.0
H525 H 0.41505 0.31736 0.79723 0.0
H526 H 0.40162 0.29748 0.94039 0.0
H527 H 0.44773 0.37963 0.81848 0.0
H528 H 0.41212 0.30906 0.85009 0.0
H529 H 0.43158 0.3708 0.90949 0.0
C530 C 0.41773 0.35189 0.94546 0.0
C531 C 0.40856 0.33141 0.9545 0.0
C532 C 0.4202 0.32443 0.84327 0.0
C533 C 0.4235 0.33681 0.89621 0.0
C534 C 0.4218 0.32919 0.81308 0.0
C535 C 0.43145 0.34929 0.80357 0.0
C536 C 0.42794 0.34006 0.86414 0.0
C537 C 0.4401 0.36397 0.82498 0.0
C538 C 0.42535 0.35462 0.91639 0.0
C539 C 0.40839 0.31362 0.93425 0.0
N540 N 0.43784 0.35922 0.85436 0.0
N541 N 0.41543 0.31682 0.90593 0.0
H542 H 0.9094 0.13074 0.03721 0.0
H543 H 0.93778 0.16633 0.2042 0.0
H544 H 0.91188 0.19926 0.06694 0.0
H545 H 0.9182 0.09984 0.17766 0.0
H546 H 0.93673 0.17793 0.152 0.0
H547 H 0.92125 0.11862 0.08655 0.0
C548 C 0.91273 0.14325 0.05402 0.0
C549 C 0.90937 0.16601 0.04815 0.0
C550 C 0.93292 0.16075 0.15763 0.0
C551 C 0.92281 0.15226 0.10462 0.0
C552 C 0.93358 0.15411 0.18734 0.0
C553 C 0.92781 0.13218 0.19519 0.0
C554 C 0.92661 0.14527 0.13572 0.0
C555 C 0.92253 0.11699 0.17255 0.0
C556 C 0.91943 0.13632 0.08219 0.0
C557 C 0.91407 0.18152 0.07067 0.0
N558 N 0.92191 0.12385 0.14384 0.0
N559 N 0.92037 0.17435 0.09805 0.0
H560 H 0.91775 0.66744 0.79567 0.0
H561 H 0.85245 0.63256 0.94107 0.0
H562 H 0.86097 0.62295 0.79464 0.0
H563 H 0.88705 0.6957 0.93551 0.0
H564 H 0.85775 0.62736 0.8878 0.0
H565 H 0.90905 0.67708 0.84742 0.0
C566 C 0.90339 0.65985 0.80626 0.0
C567 C 0.89012 0.6443 0.79099 0.0
C568 C 0.86404 0.64245 0.89815 0.0
C569 C 0.88031 0.65498 0.84989 0.0
C570 C 0.86109 0.64537 0.92854 0.0
C571 C 0.86938 0.66455 0.9426 0.0
C572 C 0.87573 0.65861 0.88177 0.0
C573 C 0.88038 0.6807 0.92538 0.0
C574 C 0.8984 0.66539 0.83567 0.0
C575 C 0.87167 0.63498 0.80563 0.0
N576 N 0.8835 0.67725 0.8958 0.0
N577 N 0.86746 0.64027 0.83437 0.0
H578 H 0.09914 0.13234 0.54528 0.0
H579 H 0.0991 0.17787 0.71109 0.0
H580 H 0.11218 0.20154 0.56597 0.0
H581 H 0.06722 0.11627 0.68474 0.0
H582 H 0.1051 0.18694 0.65861 0.0
H583 H 0.0888 0.12588 0.59694 0.0
C584 C 0.0998 0.14619 0.56074 0.0
C585 C 0.10659 0.16749 0.55142 0.0
C586 C 0.09659 0.17156 0.66435 0.0
C587 C 0.09487 0.1602 0.61064 0.0
C588 C 0.09317 0.16638 0.69425 0.0
C589 C 0.08274 0.14625 0.70221 0.0
C590 C 0.08978 0.15635 0.64239 0.0
C591 C 0.07537 0.13195 0.67957 0.0
C592 C 0.09379 0.14253 0.5902 0.0
C593 C 0.10703 0.18487 0.57232 0.0
N594 N 0.07923 0.13717 0.6507 0.0
N595 N 0.10142 0.18081 0.60109 0.0
H596 H 0.64033 0.34923 0.43236 0.0
H597 H 0.55602 0.33195 0.29937 0.0
H598 H 0.58521 0.30299 0.43876 0.0
H599 H 0.62355 0.35545 0.28702 0.0
H600 H 0.5655 0.32132 0.35041 0.0
H601 H 0.63352 0.35262 0.37912 0.0
C602 C 0.6268 0.33976 0.42249 0.0
C603 C 0.61321 0.32592 0.43991 0.0
C604 C 0.57831 0.32849 0.33634 0.0
C605 C 0.60525 0.32979 0.37908 0.0
C606 C 0.57292 0.33455 0.30726 0.0
C607 C 0.58899 0.34476 0.28909 0.0
C608 C 0.59978 0.33304 0.34734 0.0
C609 C 0.61063 0.34772 0.30034 0.0
C610 C 0.62301 0.34158 0.39209 0.0
C611 C 0.59603 0.31387 0.42602 0.0
N612 N 0.61531 0.3422 0.3289 0.0
N613 N 0.59233 0.31628 0.39638 0.0
H614 H 0.44201 0.84839 0.19191 0.0
H615 H 0.35853 0.80461 0.06584 0.0
H616 H 0.37071 0.84367 0.20447 0.0
H617 H 0.42453 0.83037 0.04815 0.0
H618 H 0.36446 0.81145 0.11899 0.0
H619 H 0.43747 0.83423 0.14135 0.0
C620 C 0.42542 0.84415 0.18412 0.0
C621 C 0.40667 0.84739 0.20226 0.0
C622 C 0.37769 0.81541 0.10345 0.0
C623 C 0.40138 0.83119 0.14453 0.0
C624 C 0.37436 0.81143 0.0732 0.0
C625 C 0.39102 0.8171 0.05265 0.0
C626 C 0.39791 0.82485 0.11311 0.0
C627 C 0.41119 0.82593 0.06328 0.0
C628 C 0.42284 0.83615 0.15526 0.0
C629 C 0.38557 0.84157 0.19108 0.0
N630 N 0.41406 0.82959 0.09278 0.0
N631 N 0.38347 0.83383 0.16284 0.0
H632 H 0.90528 0.32058 0.70927 0.0
H633 H 0.90153 0.36489 0.54325 0.0
H634 H 0.93048 0.38529 0.68339 0.0
H635 H 0.89749 0.29471 0.56455 0.0
H636 H 0.91121 0.37285 0.59486 0.0
H637 H 0.90135 0.31069 0.65672 0.0
C638 C 0.91013 0.33263 0.69252 0.0
C639 C 0.91811 0.35382 0.70062 0.0
C640 C 0.90842 0.35568 0.58822 0.0
C641 C 0.91347 0.34273 0.64069 0.0
C642 C 0.90283 0.35114 0.5588 0.0
C643 C 0.89863 0.32912 0.54973 0.0
C644 C 0.90946 0.33812 0.60884 0.0
C645 C 0.90062 0.31192 0.5707 0.0
C646 C 0.90795 0.32697 0.66258 0.0
C647 C 0.92422 0.36879 0.67809 0.0
N648 N 0.90566 0.3168 0.59943 0.0
N649 N 0.92156 0.36304 0.64913 0.0
H650 H 0.43471 0.10201 0.30959 0.0
H651 H 0.40487 0.18642 0.44126 0.0
H652 H 0.4127 0.16975 0.29487 0.0
H653 H 0.39941 0.1148 0.44978 0.0
H654 H 0.41642 0.1816 0.38946 0.0
H655 H 0.43037 0.10769 0.36323 0.0
C656 C 0.42924 0.11815 0.31769 0.0
C657 C 0.42389 0.1354 0.29787 0.0
C658 C 0.41286 0.16696 0.4028 0.0
C659 C 0.41906 0.142 0.35887 0.0
C660 C 0.40637 0.16968 0.43232 0.0
C661 C 0.40101 0.15097 0.44965 0.0
C662 C 0.41428 0.14539 0.39074 0.0
C663 C 0.40321 0.12966 0.43703 0.0
C664 C 0.42669 0.12133 0.34821 0.0
C665 C 0.41683 0.15597 0.30945 0.0
N666 N 0.40965 0.12743 0.40827 0.0
N667 N 0.41459 0.15871 0.33923 0.0
H668 H 0.57496 0.67916 0.21268 0.0
H669 H 0.57439 0.63833 0.04539 0.0
H670 H 0.54656 0.61625 0.1849 0.0
H671 H 0.59021 0.70596 0.07122 0.0
H672 H 0.56089 0.63102 0.09561 0.0
H673 H 0.57767 0.6905 0.16071 0.0
C674 C 0.56906 0.66784 0.19562 0.0
C675 C 0.56076 0.64665 0.20301 0.0
C676 C 0.56699 0.64756 0.09022 0.0
C677 C 0.564 0.65939 0.14353 0.0
C678 C 0.57471 0.65174 0.06155 0.0
C679 C 0.58366 0.6727 0.0543 0.0
C680 C 0.56855 0.66438 0.11188 0.0
C681 C 0.58355 0.68952 0.07598 0.0
C682 C 0.57056 0.67433 0.16595 0.0
C683 C 0.55319 0.63269 0.1801 0.0
N684 N 0.57644 0.68489 0.10396 0.0
N685 N 0.55528 0.63919 0.15133 0.0
H686 H 0.11198 0.87776 0.79652 0.0
H687 H 0.08612 0.81684 0.94997 0.0
H688 H 0.04954 0.84352 0.81178 0.0
H689 H 0.13354 0.8707 0.94023 0.0
H690 H 0.0744 0.82251 0.89819 0.0
H691 H 0.12251 0.8709 0.84792 0.0
C692 C 0.10051 0.86868 0.81068 0.0
C693 C 0.07982 0.86124 0.79993 0.0
C694 C 0.0873 0.8331 0.90753 0.0
C695 C 0.09181 0.85334 0.8589 0.0
C696 C 0.094 0.82986 0.93696 0.0
C697 C 0.11081 0.84333 0.94931 0.0
C698 C 0.09775 0.84968 0.89039 0.0
C699 C 0.12049 0.85997 0.9316 0.0
C700 C 0.1065 0.86487 0.84008 0.0
C701 C 0.06562 0.84958 0.81929 0.0
N702 N 0.11392 0.86258 0.903 0.0
N703 N 0.0719 0.84592 0.84794 0.0
H704 H 0.11153 0.30551 0.286 0.0
H705 H 0.11662 0.25806 0.45062 0.0
H706 H 0.10778 0.3482 0.363 0.0
H707 H 0.1344 0.21963 0.37307 0.0
H708 H 0.1149 0.29172 0.41965 0.0
H709 H 0.12216 0.27438 0.31792 0.0
C710 C 0.11331 0.30839 0.30964 0.0
C711 C 0.10866 0.32937 0.32195 0.0
C712 C 0.11939 0.27595 0.4095 0.0
C713 C 0.12032 0.2937 0.35878 0.0
C714 C 0.12028 0.25674 0.42713 0.0
C715 C 0.12544 0.23601 0.41431 0.0
C716 C 0.12349 0.27432 0.37885 0.0
C717 C 0.13018 0.23524 0.38384 0.0
C718 C 0.11934 0.2906 0.32789 0.0
C719 C 0.11126 0.33224 0.35267 0.0
N720 N 0.1289 0.25406 0.36713 0.0
N721 N 0.11658 0.31448 0.37016 0.0
H722 H 0.92278 0.79627 0.59494 0.0
H723 H 0.99249 0.89735 0.66176 0.0
H724 H 0.90219 0.86486 0.58424 0.0
H725 H -0.00023 0.82928 0.69176 0.0
H726 H 0.95933 0.88628 0.63346 0.0
H727 H 0.95117 0.80827 0.63039 0.0
C728 C 0.92418 0.81388 0.60019 0.0
C729 C 0.91022 0.82963 0.58653 0.0
C730 C 0.96803 0.87383 0.64653 0.0
C731 C 0.94285 0.84353 0.62696 0.0
C732 C 0.98695 0.88013 0.66266 0.0
C733 C -0.00104 0.86416 0.67897 0.0
C734 C 0.96127 0.85136 0.64641 0.0
C735 C 0.99104 0.84211 0.67942 0.0
C736 C 0.94035 0.82072 0.62053 0.0
C737 C 0.91266 0.8522 0.59429 0.0
N738 N 0.97285 0.8363 0.66309 0.0
N739 N 0.92887 0.85854 0.61377 0.0
H740 H 0.39272 0.73383 0.96229 0.0
H741 H 0.37037 0.66679 0.8116 0.0
H742 H 0.36097 0.76158 0.88457 0.0
H743 H 0.40855 0.63995 0.88462 0.0
H744 H 0.36071 0.69902 0.84212 0.0
H745 H 0.39339 0.69718 0.93786 0.0
C746 C 0.38576 0.73216 0.9402 0.0
C747 C 0.37703 0.75078 0.92527 0.0
C748 C 0.37095 0.68596 0.85167 0.0
C749 C 0.3776 0.70905 0.89734 0.0
C750 C 0.37637 0.66748 0.83428 0.0
C751 C 0.3905 0.65083 0.84549 0.0
C752 C 0.37988 0.68791 0.88041 0.0
C753 C 0.3977 0.65251 0.87507 0.0
C754 C 0.38611 0.71127 0.92629 0.0
C755 C 0.36809 0.74771 0.89677 0.0
N756 N 0.39258 0.67093 0.89141 0.0
N757 N 0.36872 0.7273 0.88369 0.0
H758 H 0.59737 0.16599 0.13187 0.0
H759 H 0.47683 0.1093 0.12918 0.0
H760 H 0.57365 0.12336 0.06128 0.0
H761 H 0.50194 0.14623 0.20445 0.0
H762 H 0.51343 0.1121 0.10578 0.0
H763 H 0.56425 0.15628 0.16105 0.0
C764 C 0.58541 0.15426 0.12276 0.0
C765 C 0.58813 0.14563 0.09401 0.0
C766 C 0.51104 0.11949 0.1275 0.0
C767 C 0.5501 0.13474 0.12699 0.0
C768 C 0.4901 0.11797 0.14082 0.0
C769 C 0.48631 0.12773 0.16866 0.0
C770 C 0.52834 0.13105 0.14197 0.0
C771 C 0.50415 0.13859 0.18286 0.0
C772 C 0.56646 0.1488 0.13935 0.0
C773 C 0.57214 0.13052 0.08326 0.0
N774 N 0.52437 0.14013 0.16923 0.0
N775 N 0.55369 0.12577 0.0996 0.0
H776 H 0.11497 0.69525 0.1994 0.0
H777 H 0.12199 0.75256 0.04074 0.0
H778 H 0.11149 0.65765 0.11779 0.0
H779 H 0.14283 0.78546 0.12142 0.0
H780 H 0.11865 0.71742 0.06823 0.0
H781 H 0.12641 0.72818 0.17121 0.0
C782 C 0.11696 0.69386 0.17556 0.0
C783 C 0.11216 0.67377 0.16085 0.0
C784 C 0.12415 0.73228 0.07986 0.0
C785 C 0.1248 0.71148 0.12837 0.0
C786 C 0.12595 0.75235 0.06421 0.0
C787 C 0.13252 0.77195 0.0789 0.0
C788 C 0.12869 0.73191 0.11046 0.0
C789 C 0.1376 0.77074 0.10927 0.0
C790 C 0.12346 0.71267 0.15946 0.0
C791 C 0.11504 0.67284 0.12996 0.0
N792 N 0.13538 0.7511 0.12411 0.0
N793 N 0.12085 0.69156 0.11465 0.0
H794 H 0.4766 0.83254 0.30714 0.0
H795 H 0.58003 0.87581 0.40466 0.0
H796 H 0.48286 0.90102 0.33605 0.0
H797 H 0.56565 0.80656 0.38594 0.0
H798 H 0.54704 0.88653 0.37533 0.0
H799 H 0.51188 0.8239 0.33141 0.0
C800 C 0.48547 0.8458 0.31852 0.0
C801 C 0.47672 0.8675 0.31975 0.0
C802 C 0.55122 0.86902 0.37758 0.0
C803 C 0.51723 0.85769 0.34779 0.0
C804 C 0.57004 0.86292 0.39421 0.0
C805 C 0.57547 0.84027 0.39784 0.0
C806 C 0.53796 0.85233 0.3644 0.0
C807 C 0.562 0.82421 0.3839 0.0
C808 C 0.50563 0.84086 0.33244 0.0
C809 C 0.48901 0.88404 0.3347 0.0
N810 N 0.54391 0.83054 0.36788 0.0
N811 N 0.50864 0.87878 0.34828 0.0
H812 H 0.37156 0.20108 0.62555 0.0
H813 H 0.3864 0.33351 0.63161 0.0
H814 H 0.38314 0.24003 0.54641 0.0
H815 H 0.41015 0.28949 0.70053 0.0
H816 H 0.37539 0.30058 0.60213 0.0
H817 H 0.37602 0.23497 0.65547 0.0
C818 C 0.37486 0.2168 0.61447 0.0
C819 C 0.37722 0.21778 0.58353 0.0
C820 C 0.38281 0.29825 0.62386 0.0
C821 C 0.38198 0.25651 0.61751 0.0
C822 C 0.38892 0.31694 0.64069 0.0
C823 C 0.39927 0.31409 0.66837 0.0
C824 C 0.38663 0.27674 0.63524 0.0
C825 C 0.40236 0.29234 0.67916 0.0
C826 C 0.37743 0.23607 0.63153 0.0
C827 C 0.38145 0.23858 0.57027 0.0
N828 N 0.39602 0.27448 0.6626 0.0
N829 N 0.38368 0.2572 0.58735 0.0
H830 H 0.00483 0.10797 0.82005 0.0
H831 H 0.93767 0.20316 0.90611 0.0
H832 H 0.02486 0.17721 0.82318 0.0
H833 H 0.91459 0.13498 0.90019 0.0
H834 H 0.96805 0.19426 0.87223 0.0
H835 H 0.97013 0.11775 0.84566 0.0
C836 C 0.0018 0.12527 0.82583 0.0
C837 C 0.0178 0.1418 0.81971 0.0
C838 C 0.9563 0.18123 0.87811 0.0
C839 C 0.97827 0.15306 0.84913 0.0
C840 C 0.93895 0.1863 0.89752 0.0
C841 C 0.92372 0.16971 0.90616 0.0
C842 C 0.95864 0.15933 0.86741 0.0
C843 C 0.92604 0.14822 0.89414 0.0
C844 C 0.98201 0.13083 0.84047 0.0
C845 C 0.01303 0.16393 0.82762 0.0
N846 N 0.94335 0.14357 0.87555 0.0
N847 N 0.99379 0.16888 0.84213 0.0
H848 H 0.8872 0.63774 0.60511 0.0
H849 H 0.82826 0.75603 0.58737 0.0
H850 H 0.84816 0.66993 0.67327 0.0
H851 H 0.87243 0.72732 0.52204 0.0
H852 H 0.82782 0.72039 0.61376 0.0
H853 H 0.87432 0.66582 0.56946 0.0
C854 C 0.87549 0.65039 0.61238 0.0
C855 C 0.86905 0.6518 0.64226 0.0
C856 C 0.83734 0.72176 0.5934 0.0
C857 C 0.85449 0.68404 0.60184 0.0
C858 C 0.83757 0.7421 0.57831 0.0
C859 C 0.85075 0.74473 0.55282 0.0
C860 C 0.85053 0.70398 0.58304 0.0
C861 C 0.86229 0.72608 0.54187 0.0
C862 C 0.86823 0.66648 0.59208 0.0
C863 C 0.85382 0.66846 0.65052 0.0
N864 N 0.8622 0.70657 0.55731 0.0
N865 N 0.84732 0.68413 0.63053 0.0
H866 H 0.95872 0.12629 0.37482 0.0
H867 H 0.09211 0.13438 0.38055 0.0
H868 H 0.00013 0.11472 0.29793 0.0
H869 H 0.04784 0.15802 0.44926 0.0
H870 H 0.05944 0.12169 0.352 0.0
H871 H 0.99212 0.13243 0.4045 0.0
C872 C 0.97489 0.12495 0.36419 0.0
C873 C 0.97668 0.12021 0.33382 0.0
C874 C 0.05697 0.12952 0.37343 0.0
C875 C 0.01509 0.1273 0.36772 0.0
C876 C 0.07556 0.13666 0.38973 0.0
C877 C 0.0726 0.14739 0.41715 0.0
C878 C 0.03542 0.133 0.38488 0.0
C879 C 0.05086 0.15 0.42809 0.0
C880 C 0.99398 0.12848 0.38116 0.0
C881 C -0.00194 0.1185 0.32128 0.0
N882 N 0.03313 0.14292 0.4119 0.0
N883 N 0.01651 0.12218 0.33828 0.0
H884 H 0.59262 0.24811 0.03736 0.0
H885 H 0.63104 0.3408 0.15497 0.0
H886 H 0.65558 0.24543 0.08395 0.0
H887 H 0.56316 0.33039 0.12589 0.0
H888 H 0.64332 0.31152 0.12028 0.0
H889 H 0.58492 0.28413 0.06061 0.0
C890 C 0.60497 0.25525 0.05219 0.0
C891 C 0.62461 0.24364 0.0591 0.0
C892 C 0.62579 0.31591 0.12127 0.0
C893 C 0.61585 0.28478 0.08591 0.0
C894 C 0.61882 0.33264 0.1409 0.0
C895 C 0.59605 0.33775 0.14345 0.0
C896 C 0.60986 0.30457 0.10395 0.0
C897 C 0.58085 0.32672 0.12484 0.0
C898 C 0.60054 0.27579 0.06551 0.0
C899 C 0.64011 0.25376 0.07828 0.0
N900 N 0.58801 0.31058 0.10601 0.0
N901 N 0.6353 0.27369 0.09131 0.0
H902 H 0.40739 0.85385 0.87422 0.0
H903 H 0.53745 0.88298 0.86559 0.0
H904 H 0.4537 0.84179 0.94585 0.0
H905 H 0.49962 0.86308 0.78837 0.0
H906 H 0.50405 0.87793 0.89612 0.0
H907 H 0.43866 0.86706 0.84335 0.0
C908 C 0.42406 0.85433 0.88355 0.0
C909 C 0.4281 0.8466 0.91246 0.0
C910 C 0.50304 0.8749 0.87243 0.0
C911 C 0.46356 0.86181 0.87769 0.0
C912 C 0.52203 0.87784 0.855 0.0
C913 C 0.52131 0.87321 0.82448 0.0
C914 C 0.48311 0.86757 0.85921 0.0
C915 C 0.50089 0.86662 0.81189 0.0
C916 C 0.44183 0.86173 0.86595 0.0
C917 C 0.44996 0.84744 0.92355 0.0
N918 N 0.48255 0.86392 0.82935 0.0
N919 N 0.46689 0.85491 0.90615 0.0
H920 H 0.88119 0.26648 0.97521 0.0
H921 H 0.85712 0.32678 0.82146 0.0
H922 H 0.84075 0.23837 0.90517 0.0
H923 H 0.8997 0.35376 0.89002 0.0
H924 H 0.84379 0.29855 0.85645 0.0
H925 H 0.88099 0.30235 0.94924 0.0
C926 C 0.87192 0.26798 0.95465 0.0
C927 C 0.86134 0.24935 0.94201 0.0
C928 C 0.85575 0.31089 0.86402 0.0
C929 C 0.86124 0.2902 0.91202 0.0
C930 C 0.86331 0.32705 0.84406 0.0
C931 C 0.87985 0.34233 0.85272 0.0
C932 C 0.86495 0.30993 0.89272 0.0
C933 C 0.88716 0.34206 0.88232 0.0
C934 C 0.87184 0.28844 0.93979 0.0
C935 C 0.84941 0.25225 0.91546 0.0
N936 N 0.87995 0.32586 0.90113 0.0
N937 N 0.84999 0.27219 0.9011 0.0
H938 H 0.4831 0.11776 0.71487 0.0
H939 H 0.43571 0.11005 0.55342 0.0
H940 H 0.51609 0.08144 0.64472 0.0
H941 H 0.39337 0.12612 0.62779 0.0
H942 H 0.46384 0.0958 0.58766 0.0
H943 H 0.4486 0.11746 0.68556 0.0
C944 C 0.48295 0.10932 0.69359 0.0
C945 C 0.50256 0.1 0.68191 0.0
C946 C 0.44824 0.102 0.5966 0.0
C947 C 0.46338 0.0998 0.64825 0.0
C948 C 0.43221 0.11015 0.57702 0.0
C949 C 0.41238 0.11941 0.58791 0.0
C950 C 0.44468 0.10371 0.62734 0.0
C951 C 0.40853 0.1191 0.61862 0.0
C952 C 0.46327 0.10913 0.67689 0.0
C953 C 0.50143 0.08915 0.65435 0.0
N954 N 0.4248 0.11185 0.6374 0.0
N955 N 0.4823 0.0897 0.63823 0.0
H956 H 0.61915 0.7372 0.4616 0.0
H957 H 0.63122 0.66908 0.31109 0.0
H958 H 0.65522 0.76093 0.38488 0.0
H959 H 0.59252 0.6469 0.38633 0.0
H960 H 0.64748 0.69855 0.34187 0.0
H961 H 0.6165 0.70031 0.43862 0.0
C962 C 0.62684 0.73453 0.44012 0.0
C963 C 0.63705 0.75222 0.42485 0.0
C964 C 0.63574 0.68699 0.35182 0.0
C965 C 0.63389 0.71015 0.39829 0.0
C966 C 0.62651 0.67011 0.33427 0.0
C967 C 0.61019 0.65582 0.34606 0.0
C968 C 0.62844 0.68965 0.38126 0.0
C969 C 0.60483 0.65777 0.37626 0.0
C970 C 0.62531 0.71347 0.42698 0.0
C971 C 0.64692 0.7478 0.39723 0.0
N972 N 0.61364 0.67465 0.3927 0.0
N973 N 0.6448 0.72729 0.38461 0.0
H974 H 0.07103 0.88104 0.05023 0.0
H975 H 0.01761 0.87351 0.20939 0.0
H976 H 0.10989 0.86513 0.12804 0.0
H977 H 0.98487 0.9047 0.13477 0.0
H978 H 0.05288 0.87443 0.182 0.0
H979 H 0.04088 0.8942 0.08205 0.0
C980 C 0.07333 0.88073 0.0741 0.0
C981 C 0.0928 0.87179 0.08661 0.0
C982 C 0.03807 0.88145 0.17183 0.0
C983 C 0.05816 0.88629 0.12325 0.0
C984 C 0.01793 0.88089 0.18744 0.0
C985 C -0.00176 0.88868 0.1741 0.0
C986 C 0.0384 0.8896 0.14258 0.0
C987 C -0.00038 0.89825 0.14574 0.0
C988 C 0.05612 0.88824 0.09229 0.0
C989 C 0.09506 0.87187 0.11759 0.0
N990 N 0.01927 0.8981 0.13073 0.0
N991 N 0.07771 0.87856 0.13494 0.0
H992 H 0.62183 0.76252 0.96356 0.0
H993 H 0.61314 0.79924 0.79755 0.0
H994 H 0.64771 0.72176 0.89243 0.0
H995 H 0.61783 0.84831 0.86743 0.0
H996 H 0.62616 0.77062 0.83215 0.0
H997 H 0.62082 0.79454 0.92966 0.0
C998 C 0.62767 0.76042 0.94097 0.0
C999 C 0.63463 0.73944 0.93065 0.0
C1000 C 0.62471 0.78771 0.83983 0.0
C1001 C 0.63315 0.77575 0.8918 0.0
C1002 C 0.6172 0.804 0.82013 0.0
C1003 C 0.61431 0.82606 0.82979 0.0
C1004 C 0.62878 0.79342 0.86958 0.0
C1005 C 0.61988 0.83143 0.8592 0.0
C1006 C 0.62713 0.77868 0.92167 0.0
C1007 C 0.6421 0.73763 0.90123 0.0
N1008 N 0.62646 0.8151 0.8783 0.0
N1009 N 0.64076 0.75544 0.88266 0.0
H1010 H 0.51229 0.40812 0.14789 0.0
H1011 H 0.41131 0.32571 0.12494 0.0
H1012 H 0.49275 0.35878 0.21278 0.0
H1013 H 0.4172 0.38676 0.07467 0.0
H1014 H 0.43978 0.33926 0.15918 0.0
H1015 H 0.47641 0.40288 0.12266 0.0
C1016 C 0.50029 0.3965 0.15713 0.0
C1017 C 0.50561 0.3836 0.18217 0.0
C1018 C 0.43467 0.34991 0.14095 0.0
C1019 C 0.46478 0.37735 0.15331 0.0
C1020 C 0.41848 0.34212 0.12134 0.0
C1021 C 0.41214 0.35507 0.09686 0.0
C1022 C 0.445 0.3706 0.13567 0.0
C1023 C 0.42175 0.37628 0.09331 0.0
C1024 C 0.47982 0.39352 0.14274 0.0
C1025 C 0.48943 0.36888 0.19332 0.0
N1026 N 0.43807 0.38326 0.11224 0.0
N1027 N 0.4699 0.36589 0.17854 0.0
H1028 H 0.88068 0.2356 0.4512 0.0
H1029 H 0.87727 0.18537 0.28872 0.0
H1030 H 0.86039 0.27417 0.37487 0.0
H1031 H 0.87865 0.14414 0.36727 0.0
H1032 H 0.86876 0.2178 0.3197 0.0
H1033 H 0.8788 0.20164 0.42101 0.0
C1034 C 0.87576 0.23689 0.42812 0.0
C1035 C 0.87088 0.25771 0.41542 0.0
C1036 C 0.8705 0.20158 0.33013 0.0
C1037 C 0.86871 0.21902 0.38077 0.0
C1038 C 0.87526 0.18306 0.31242 0.0
C1039 C 0.87885 0.16211 0.3255 0.0
C1040 C 0.86974 0.19917 0.36114 0.0
C1041 C 0.87606 0.16002 0.3563 0.0
C1042 C 0.87455 0.21751 0.41094 0.0
C1043 C 0.86441 0.25845 0.38548 0.0
N1044 N 0.87208 0.17842 0.37317 0.0
N1045 N 0.86374 0.23941 0.36908 0.0
H1046 H 0.07653 0.62836 0.59525 0.0
H1047 H 0.96764 0.67044 0.68189 0.0
H1048 H 0.04835 0.69438 0.58687 0.0
H1049 H 0.97926 0.60068 0.66324 0.0
H1050 H 0.0023 0.67973 0.65606 0.0
H1051 H 0.04553 0.61816 0.62869 0.0
C1052 C 0.06395 0.6407 0.60065 0.0
C1053 C 0.06482 0.66215 0.58813 0.0
C1054 C 0.99734 0.66237 0.6578 0.0
C1055 C 0.02982 0.65081 0.62636 0.0
C1056 C 0.97761 0.65705 0.67262 0.0
C1057 C 0.97047 0.63479 0.67444 0.0
C1058 C 0.01014 0.6453 0.64486 0.0
C1059 C 0.9841 0.6181 0.6621 0.0
C1060 C 0.04631 0.63489 0.61958 0.0
C1061 C 0.04817 0.67757 0.59578 0.0
N1062 N 0.00328 0.62369 0.64769 0.0
N1063 N 0.03141 0.67162 0.61439 0.0
H1064 H 0.57532 0.26031 0.55705 0.0
H1065 H 0.61901 0.15993 0.65901 0.0
H1066 H 0.64303 0.25617 0.58948 0.0
H1067 H 0.54955 0.17828 0.65162 0.0
H1068 H 0.62877 0.19139 0.62652 0.0
H1069 H 0.56623 0.2262 0.58463 0.0
C1070 C 0.5883 0.25212 0.56979 0.0
C1071 C 0.60991 0.2611 0.57118 0.0
C1072 C 0.6114 0.18844 0.63197 0.0
C1073 C 0.5997 0.22216 0.60256 0.0
C1074 C 0.60584 0.17049 0.65039 0.0
C1075 C 0.58348 0.16664 0.65811 0.0
C1076 C 0.59443 0.20236 0.62094 0.0
C1077 C 0.56702 0.18079 0.64637 0.0
C1078 C 0.5831 0.23274 0.58558 0.0
C1079 C 0.62611 0.24985 0.588 0.0
N1080 N 0.57282 0.19802 0.62835 0.0
N1081 N 0.62069 0.23095 0.60307 0.0
H1082 H 0.97847 0.32335 0.81258 0.0
H1083 H 0.09028 0.36894 0.88944 0.0
H1084 H 0.99418 0.3935 0.82034 0.0
H1085 H 0.06925 0.29996 0.88987 0.0
H1086 H 0.05796 0.37811 0.85814 0.0
H1087 H 0.01455 0.31431 0.83471 0.0
C1088 C 0.98961 0.33686 0.81873 0.0
C1089 C 0.98327 0.3592 0.81488 0.0
C1090 C 0.06056 0.36095 0.86491 0.0
C1091 C 0.02456 0.34901 0.84043 0.0
C1092 C 0.07901 0.35572 0.88267 0.0
C1093 C 0.08229 0.33371 0.89244 0.0
C1094 C 0.04545 0.344 0.85683 0.0
C1095 C 0.06723 0.31719 0.88306 0.0
C1096 C 0.01021 0.3317 0.83141 0.0
C1097 C -0.0016 0.37604 0.82309 0.0
N1098 N 0.04943 0.32269 0.86593 0.0
N1099 N 0.01831 0.37061 0.83572 0.0
H1100 H 0.84654 0.74544 0.07008 0.0
H1101 H 0.94767 0.81257 0.14234 0.0
H1102 H 0.91603 0.72994 0.0553 0.0
H1103 H 0.87987 0.83681 0.14531 0.0
H1104 H 0.936 0.78311 0.1085 0.0
H1105 H 0.8578 0.77999 0.09533 0.0
C1106 C 0.86413 0.74947 0.07177 0.0
C1107 C 0.8804 0.73473 0.06083 0.0
C1108 C 0.92362 0.79492 0.11629 0.0
C1109 C 0.89336 0.77397 0.08984 0.0
C1110 C 0.93029 0.81172 0.13573 0.0
C1111 C 0.91466 0.82701 0.14681 0.0
C1112 C 0.90107 0.79312 0.10811 0.0
C1113 C 0.89241 0.82527 0.13729 0.0
C1114 C 0.87055 0.76915 0.0862 0.0
C1115 C 0.90293 0.74074 0.06359 0.0
N1116 N 0.88618 0.80842 0.1187 0.0
N1117 N 0.90874 0.75976 0.07806 0.0
H1118 H 0.42807 0.70184 0.41247 0.0
H1119 H 0.49239 0.60364 0.32985 0.0
H1120 H 0.40025 0.6355 0.40593 0.0
H1121 H 0.50917 0.67352 0.32174 0.0
H1122 H 0.45825 0.6141 0.35672 0.0
H1123 H 0.45768 0.6911 0.37855 0.0
C1124 C 0.42818 0.68496 0.40376 0.0
C1125 C 0.4118 0.66947 0.41216 0.0
C1126 C 0.46931 0.6271 0.34874 0.0
C1127 C 0.44591 0.65691 0.37331 0.0
C1128 C 0.48877 0.62116 0.33344 0.0
C1129 C 0.50371 0.63774 0.32382 0.0
C1130 C 0.46495 0.64975 0.35453 0.0
C1131 C 0.49823 0.66017 0.32897 0.0
C1132 C 0.44508 0.67884 0.38427 0.0
C1133 C 0.41263 0.64791 0.39997 0.0
N1134 N 0.47943 0.66548 0.34416 0.0
N1135 N 0.42962 0.64213 0.38135 0.0
H1136 H 0.3844 0.19483 0.195 0.0
H1137 H 0.37612 0.24464 0.03487 0.0
H1138 H 0.3852 0.15197 0.11802 0.0
H1139 H 0.34644 0.27749 0.11044 0.0
H1140 H 0.37893 0.21019 0.06402 0.0
H1141 H 0.3699 0.2252 0.1643 0.0
C1142 C 0.38121 0.19176 0.17167 0.0
C1143 C 0.3861 0.17097 0.15892 0.0
C1144 C 0.37141 0.22482 0.07401 0.0
C1145 C 0.36996 0.20571 0.12357 0.0
C1146 C 0.36985 0.24448 0.05743 0.0
C1147 C 0.36125 0.26397 0.07039 0.0
C1148 C 0.36475 0.22485 0.1039 0.0
C1149 C 0.35328 0.26285 0.09964 0.0
C1150 C 0.37288 0.20906 0.15418 0.0
C1151 C 0.38161 0.1678 0.12864 0.0
N1152 N 0.35561 0.24373 0.11561 0.0
N1153 N 0.37419 0.18516 0.11179 0.0
H1154 H 0.49098 0.58878 0.8459 0.0
H1155 H 0.56899 0.68861 0.89665 0.0
H1156 H 0.49278 0.65279 0.80185 0.0
H1157 H 0.58263 0.62051 0.92221 0.0
H1158 H 0.54109 0.67525 0.8615 0.0
H1159 H 0.52475 0.59914 0.87355 0.0
C1160 C 0.49865 0.60487 0.84177 0.0
C1161 C 0.48897 0.62005 0.82178 0.0
C1162 C 0.5503 0.66315 0.87453 0.0
C1163 C 0.52732 0.63205 0.85344 0.0
C1164 C 0.56617 0.67079 0.8947 0.0
C1165 C 0.57797 0.65563 0.91246 0.0
C1166 C 0.54584 0.64018 0.87243 0.0
C1167 C 0.57382 0.63271 0.90888 0.0
C1168 C 0.51791 0.61076 0.85751 0.0
C1169 C 0.49959 0.64064 0.81719 0.0
N1170 N 0.55782 0.62565 0.88951 0.0
N1171 N 0.51802 0.64614 0.83316 0.0
H1172 H 0.1179 0.82423 0.68678 0.0
H1173 H 0.0992 0.76416 0.53134 0.0
H1174 H 0.08146 0.85432 0.61449 0.0
H1175 H 0.13711 0.73625 0.60391 0.0
H1176 H 0.09751 0.79982 0.55796 0.0
H1177 H 0.13059 0.79488 0.65334 0.0
C1178 C 0.11289 0.82484 0.66368 0.0
C1179 C 0.09837 0.84149 0.65342 0.0
C1180 C 0.10645 0.78597 0.56786 0.0
C1181 C 0.11241 0.80769 0.6151 0.0
C1182 C 0.10739 0.76563 0.5527 0.0
C1183 C 0.11799 0.74716 0.5657 0.0
C1184 C 0.11612 0.78776 0.5962 0.0
C1185 C 0.12849 0.74998 0.59327 0.0
C1186 C 0.12009 0.80805 0.64457 0.0
C1187 C 0.09255 0.84166 0.62326 0.0
N1188 N 0.12708 0.76981 0.60774 0.0
N1189 N 0.09927 0.82473 0.60521 0.0
H1190 H 0.94831 0.34691 0.44835 0.0
H1191 H 0.99278 0.36492 0.28517 0.0
H1192 H 0.90295 0.35313 0.3744 0.0
H1193 H 0.03056 0.38351 0.36301 0.0
H1194 H 0.95956 0.3601 0.31647 0.0
H1195 H 0.97873 0.36003 0.41688 0.0
C1196 C 0.94476 0.3513 0.42549 0.0
C1197 C 0.9232 0.34888 0.41383 0.0
C1198 C 0.97508 0.3655 0.32657 0.0
C1199 C 0.95797 0.3635 0.3775 0.0
C1200 C 0.99402 0.36815 0.30877 0.0
C1201 C 0.01446 0.3744 0.3216 0.0
C1202 C 0.97676 0.36882 0.35736 0.0
C1203 C 0.01516 0.37852 0.35224 0.0
C1204 C 0.96209 0.35883 0.40754 0.0
C1205 C 0.9194 0.35486 0.38415 0.0
N1206 N 0.99667 0.3754 0.36911 0.0
N1207 N 0.93675 0.36157 0.36676 0.0
H1208 H 0.35374 0.83117 0.31771 0.0
H1209 H 0.37872 0.77066 0.47165 0.0
H1210 H 0.39732 0.85831 0.38503 0.0
H1211 H 0.33699 0.74322 0.4025 0.0
H1212 H 0.38018 0.80607 0.44449 0.0
H1213 H 0.34154 0.80254 0.35273 0.0
C1214 C 0.36041 0.83137 0.34007 0.0
C1215 C 0.37681 0.84692 0.34836 0.0
C1216 C 0.37045 0.7924 0.43546 0.0
C1217 C 0.36325 0.81394 0.38841 0.0
C1218 C 0.36961 0.7722 0.45097 0.0
C1219 C 0.35799 0.7539 0.43906 0.0
C1220 C 0.35966 0.79424 0.40784 0.0
C1221 C 0.34637 0.75683 0.41229 0.0
C1222 C 0.35351 0.81496 0.36005 0.0
C1223 C 0.38478 0.8465 0.37767 0.0
N1224 N 0.34771 0.77652 0.39743 0.0
N1225 N 0.3782 0.83002 0.39651 0.0
H1226 H 0.02792 0.61917 0.11795 0.0
H1227 H 0.898 0.64717 0.12866 0.0
H1228 H 0.99467 0.63205 0.2012 0.0
H1229 H 0.9313 0.62649 0.04829 0.0
H1230 H 0.93212 0.63889 0.1567 0.0
H1231 H 0.99189 0.61975 0.09282 0.0
C1232 C 0.013 0.62213 0.13095 0.0
C1233 C 0.01428 0.62576 0.16164 0.0
C1234 C 0.93183 0.63586 0.13299 0.0
C1235 C 0.97286 0.62644 0.13301 0.0
C1236 C 0.91233 0.64047 0.11703 0.0
C1237 C 0.91194 0.63772 0.08609 0.0
C1238 C 0.951 0.62859 0.11781 0.0
C1239 C 0.93095 0.62905 0.07209 0.0
C1240 C 0.99239 0.62235 0.11661 0.0
C1241 C 0.99439 0.6293 0.17743 0.0
N1242 N 0.94977 0.62503 0.08799 0.0
N1243 N 0.97447 0.62973 0.16289 0.0
H1244 H 0.167 0.2616 0.89133 0.0
H1245 H 0.10592 0.14431 0.8897 0.0
H1246 H 0.12739 0.23604 0.9638 0.0
H1247 H 0.14533 0.16985 0.81702 0.0
H1248 H 0.12121 0.17348 0.92174 0.0
H1249 H 0.16674 0.2245 0.8687 0.0
C1250 C 0.15859 0.24807 0.90275 0.0
C1251 C 0.1468 0.25197 0.92914 0.0
C1252 C 0.12688 0.17246 0.89894 0.0
C1253 C 0.1462 0.20957 0.90325 0.0
C1254 C 0.1182 0.15575 0.88066 0.0
C1255 C 0.12401 0.15499 0.85052 0.0
C1256 C 0.14126 0.18864 0.88686 0.0
C1257 C 0.14014 0.17006 0.84005 0.0
C1258 C 0.15843 0.22688 0.88982 0.0
C1259 C 0.13641 0.23381 0.94318 0.0
N1260 N 0.14788 0.18656 0.85805 0.0
N1261 N 0.13602 0.21348 0.9298 0.0
H1262 H 0.56431 0.37452 0.54851 0.0
H1263 H 0.50976 0.36504 0.70943 0.0
H1264 H 0.60011 0.35109 0.62562 0.0
H1265 H 0.47437 0.38575 0.6306 0.0
H1266 H 0.5448 0.36606 0.68132 0.0
H1267 H 0.53342 0.38572 0.58049 0.0
C1268 C 0.56584 0.37215 0.57227 0.0
C1269 C 0.58462 0.36156 0.58441 0.0
C1270 C 0.52939 0.37062 0.67029 0.0
C1271 C 0.54915 0.37389 0.62112 0.0
C1272 C 0.50941 0.37001 0.68631 0.0
C1273 C 0.48914 0.37498 0.67217 0.0
C1274 C 0.52901 0.37623 0.63998 0.0
C1275 C 0.4896 0.38149 0.64226 0.0
C1276 C 0.54816 0.37845 0.59054 0.0
C1277 C 0.58582 0.35904 0.61535 0.0
N1278 N 0.50917 0.38173 0.62711 0.0
N1279 N 0.56813 0.3648 0.63263 0.0
H1280 H 0.11759 0.4473 0.27069 0.0
H1281 H 0.06157 0.54657 0.17791 0.0
H1282 H 0.05155 0.44626 0.23218 0.0
H1283 H 0.11928 0.55765 0.23341 0.0
H1284 H 0.06276 0.50705 0.19021 0.0
H1285 H 0.12256 0.48568 0.25182 0.0
C1286 C 0.10417 0.45514 0.25839 0.0
C1287 C 0.08407 0.44368 0.25316 0.0
C1288 C 0.07532 0.51801 0.19958 0.0
C1289 C 0.08979 0.48698 0.23115 0.0
C1290 C 0.07472 0.54056 0.1924 0.0
C1291 C 0.09018 0.55536 0.20497 0.0
C1292 C 0.09135 0.51014 0.2198 0.0
C1293 C 0.10702 0.54669 0.22336 0.0
C1294 C 0.10704 0.47692 0.24757 0.0
C1295 C 0.06727 0.45448 0.23695 0.0
N1296 N 0.10699 0.52459 0.23064 0.0
N1297 N 0.07054 0.47542 0.22652 0.0
H1298 H 0.79456 0.84809 0.5381 0.0
H1299 H 0.70111 0.83548 0.41261 0.0
H1300 H 0.80559 0.81931 0.45148 0.0
H1301 H 0.68725 0.85778 0.50184 0.0
H1302 H 0.74104 0.8376 0.42329 0.0
H1303 H 0.75681 0.85889 0.52245 0.0
C1304 C 0.78911 0.84425 0.51574 0.0
C1305 C 0.80304 0.83248 0.49621 0.0
C1306 C 0.72929 0.84239 0.44042 0.0
C1307 C 0.76011 0.84485 0.47813 0.0
C1308 C 0.70648 0.84132 0.43423 0.0
C1309 C 0.69087 0.8461 0.45652 0.0
C1310 C 0.7365 0.8481 0.46915 0.0
C1311 C 0.69875 0.85369 0.48411 0.0
C1312 C 0.76761 0.85043 0.50679 0.0
C1313 C 0.79526 0.82806 0.46741 0.0
N1314 N 0.72104 0.8541 0.48983 0.0
N1315 N 0.77428 0.83409 0.45933 0.0
H1316 H 0.38658 0.42541 0.76695 0.0
H1317 H 0.43332 0.54517 0.72706 0.0
H1318 H 0.4135 0.44321 0.68129 0.0
H1319 H 0.38945 0.53531 0.80192 0.0
H1320 H 0.42513 0.50751 0.71024 0.0
H1321 H 0.38499 0.46521 0.77995 0.0
C1322 C 0.39158 0.4377 0.7506 0.0
C1323 C 0.40051 0.43104 0.72317 0.0
C1324 C 0.41712 0.51352 0.73027 0.0
C1325 C 0.39915 0.47631 0.73805 0.0
C1326 C 0.42198 0.535 0.74005 0.0
C1327 C 0.41224 0.54326 0.7661 0.0
C1328 C 0.40267 0.49992 0.74687 0.0
C1329 C 0.39741 0.52945 0.78179 0.0
C1330 C 0.39079 0.46038 0.75809 0.0
C1331 C 0.40679 0.44761 0.70283 0.0
N1332 N 0.39325 0.50827 0.77212 0.0
N1333 N 0.40632 0.46943 0.71086 0.0
H1334 H 0.80361 0.15519 0.94352 0.0
H1335 H 0.70649 0.15167 0.06565 0.0
H1336 H 0.81569 0.16507 0.03707 0.0
H1337 H 0.69633 0.1699 0.97395 0.0
H1338 H 0.74643 0.14601 0.05507 0.0
H1339 H 0.76387 0.14945 0.9543 0.0
C1340 C 0.79796 0.15572 0.96635 0.0
C1341 C 0.8128 0.16093 0.9894 0.0
C1342 C 0.73532 0.151 0.03728 0.0
C1343 C 0.76763 0.15438 0.00185 0.0
C1344 C 0.71263 0.15419 0.04328 0.0
C1345 C 0.69829 0.16157 0.02072 0.0
C1346 C 0.74346 0.15483 0.00844 0.0
C1347 C 0.70696 0.16455 0.99207 0.0
C1348 C 0.77532 0.15255 0.97247 0.0
C1349 C 0.80467 0.16139 0.01863 0.0
N1350 N 0.72899 0.16122 0.98675 0.0
N1351 N 0.78256 0.15834 0.02403 0.0
H1352 H 0.92118 0.45322 0.81639 0.0
H1353 H 0.87551 0.54381 0.70055 0.0
H1354 H 0.87722 0.4363 0.74379 0.0
H1355 H 0.92558 0.55669 0.7674 0.0
H1356 H 0.87208 0.50537 0.71914 0.0
H1357 H 0.9183 0.4925 0.80272 0.0
C1358 C 0.91066 0.45783 0.7978 0.0
C1359 C 0.89961 0.4415 0.78101 0.0
C1360 C 0.88375 0.51668 0.72975 0.0
C1361 C 0.89652 0.48642 0.76486 0.0
C1362 C 0.88575 0.53855 0.7191 0.0
C1363 C 0.901 0.55335 0.7323 0.0
C1364 C 0.897 0.50973 0.75381 0.0
C1365 C 0.91376 0.54578 0.75639 0.0
C1366 C 0.9091 0.48026 0.78988 0.0
C1367 C 0.8861 0.4484 0.75723 0.0
N1368 N 0.91149 0.52453 0.76631 0.0
N1369 N 0.88512 0.47037 0.74962 0.0
H1370 H 0.30952 0.18614 0.48122 0.0
H1371 H 0.18972 0.12693 0.48022 0.0
H1372 H 0.29798 0.12347 0.52616 0.0
H1373 H 0.20228 0.1961 0.45899 0.0
H1374 H 0.23003 0.12182 0.4894 0.0
H1375 H 0.271 0.18622 0.46465 0.0
C1376 C 0.29883 0.17234 0.48764 0.0
C1377 C 0.30685 0.15494 0.50549 0.0
C1378 C 0.22388 0.13802 0.48248 0.0
C1379 C 0.26246 0.15497 0.48658 0.0
C1380 C 0.201 0.14089 0.47711 0.0
C1381 C 0.19278 0.162 0.46908 0.0
C1382 C 0.2384 0.15632 0.47928 0.0
C1383 C 0.20792 0.17961 0.46544 0.0
C1384 C 0.27679 0.17239 0.47812 0.0
C1385 C 0.29232 0.13732 0.51265 0.0
N1386 N 0.22994 0.17637 0.47059 0.0
N1387 N 0.27065 0.13785 0.50335 0.0
H1388 H 0.57236 0.54448 0.32018 0.0
H1389 H 0.60078 0.45403 0.19545 0.0
H1390 H 0.60207 0.56156 0.23591 0.0
H1391 H 0.5732 0.43834 0.28149 0.0
H1392 H 0.60541 0.49299 0.21138 0.0
H1393 H 0.57687 0.50498 0.30831 0.0
C1394 C 0.58008 0.53989 0.29931 0.0
C1395 C 0.58663 0.55626 0.27886 0.0
C1396 C 0.59855 0.48094 0.22683 0.0
C1397 C 0.59157 0.51108 0.26485 0.0
C1398 C 0.5959 0.45875 0.21773 0.0
C1399 C 0.58634 0.44306 0.23705 0.0
C1400 C 0.59154 0.48736 0.25539 0.0
C1401 C 0.5804 0.44996 0.26574 0.0
C1402 C 0.58264 0.51733 0.29249 0.0
C1403 C 0.59669 0.54942 0.25223 0.0
N1404 N 0.58295 0.47161 0.27394 0.0
N1405 N 0.5986 0.52731 0.24579 0.0
H1406 H 0.19819 0.81622 0.97516 0.0
H1407 H 0.32037 0.86305 0.00299 0.0
H1408 H 0.21102 0.86824 0.03931 0.0
H1409 H 0.30147 0.8213 0.929 0.0
H1410 H 0.28066 0.8682 0.01489 0.0
H1411 H 0.23606 0.82001 0.95682 0.0
C1412 C 0.20906 0.82847 0.98544 0.0
C1413 C 0.20158 0.84175 0.00903 0.0
C1414 C 0.28524 0.85828 0.99573 0.0
C1415 C 0.24524 0.84621 0.98808 0.0
C1416 C 0.30786 0.85544 0.98885 0.0
C1417 C 0.31414 0.84147 0.96524 0.0
C1418 C 0.269 0.847 0.97889 0.0
C1419 C 0.29735 0.83195 0.94766 0.0
C1420 C 0.2307 0.83076 0.9748 0.0
C1421 C 0.21627 0.85758 0.02119 0.0
N1422 N 0.2756 0.83467 0.95506 0.0
N1423 N 0.23759 0.85921 0.0108 0.0
H1424 H 0.61357 0.94563 0.7978 0.0
H1425 H 0.59395 0.04471 0.68153 0.0
H1426 H 0.58311 0.93632 0.71184 0.0
H1427 H 0.59151 0.05403 0.77647 0.0
H1428 H 0.6023 0.00499 0.68947 0.0
H1429 H 0.6176 0.9857 0.78687 0.0
C1430 C 0.60813 0.95197 0.77646 0.0
C1431 C 0.59771 0.93786 0.75583 0.0
C1432 C 0.6003 0.01588 0.7085 0.0
C1433 C 0.60254 0.98319 0.74312 0.0
C1434 C 0.59563 0.03848 0.704 0.0
C1435 C 0.59174 0.05247 0.7284 0.0
C1436 C 0.60143 0.00745 0.73756 0.0
C1437 C 0.5941 0.04364 0.75709 0.0
C1438 C 0.61037 0.97474 0.77029 0.0
C1439 C 0.59094 0.94679 0.72849 0.0
N1440 N 0.59868 0.02162 0.76091 0.0
N1441 N 0.59339 0.96894 0.72294 0.0
H1442 H 0.31303 0.34109 0.95961 0.0
H1443 H 0.18929 0.34441 0.01928 0.0
H1444 H 0.29649 0.35642 0.05059 0.0
H1445 H 0.20513 0.34444 0.92586 0.0
H1446 H 0.22825 0.35268 0.03062 0.0
H1447 H 0.27387 0.34606 0.94596 0.0
C1448 C 0.30117 0.34581 0.97664 0.0
C1449 C 0.30789 0.34802 0.00635 0.0
C1450 C 0.22321 0.35123 0.0076 0.0
C1451 C 0.26306 0.3535 0.99096 0.0
C1452 C 0.20097 0.34645 0.00113 0.0
C1453 C 0.19412 0.34344 0.97162 0.0
C1454 C 0.23881 0.35259 0.98442 0.0
C1455 C 0.20982 0.34651 0.94892 0.0
C1456 C 0.27883 0.3487 0.96883 0.0
C1457 C 0.29194 0.35437 0.02747 0.0
N1458 N 0.23158 0.35053 0.95582 0.0
N1459 N 0.27016 0.35653 0.01946 0.0
H1460 H 0.91983 0.03775 0.31857 0.0
H1461 H 0.89455 0.94461 0.19686 0.0
H1462 H 0.88054 0.051 0.24026 0.0
H1463 H 0.92974 0.93322 0.27913 0.0
H1464 H 0.88474 0.98227 0.21439 0.0
H1465 H 0.91849 -0.00201 0.30737 0.0
C1466 C 0.91059 0.03217 0.29924 0.0
C1467 C 0.90048 0.04758 0.28014 0.0
C1468 C 0.89439 0.97138 0.22868 0.0
C1469 C 0.89937 0.00213 0.26658 0.0
C1470 C 0.90001 0.94996 0.21866 0.0
C1471 C 0.91329 0.93599 0.23637 0.0
C1472 C 0.90211 0.9787 0.25655 0.0
C1473 C 0.91979 0.94359 0.26452 0.0
C1474 C 0.90986 0.00947 0.29275 0.0
C1475 C 0.88858 0.03955 0.2555 0.0
N1476 N 0.91429 0.96444 0.2736 0.0
N1477 N 0.8887 0.01733 0.24905 0.0
H1478 H 0.29414 0.64694 0.46993 0.0
H1479 H 0.1857 0.71233 0.5144 0.0
H1480 H 0.29578 0.70837 0.52016 0.0
H1481 H 0.1848 0.64041 0.52073 0.0
H1482 H 0.22603 0.71127 0.5077 0.0
H1483 H 0.25377 0.64383 0.48051 0.0
C1484 C 0.28606 0.65966 0.48323 0.0
C1485 C 0.29823 0.67803 0.49401 0.0
C1486 C 0.21705 0.6957 0.51066 0.0
C1487 C 0.25255 0.67469 0.50573 0.0
C1488 C 0.19406 0.69628 0.51435 0.0
C1489 C 0.182 0.67642 0.51817 0.0
C1490 C 0.22813 0.6751 0.51009 0.0
C1491 C 0.19364 0.65607 0.51804 0.0
C1492 C 0.26317 0.6578 0.48936 0.0
C1493 C 0.28706 0.69398 0.51128 0.0
N1494 N 0.2162 0.65586 0.5137 0.0
N1495 N 0.26484 0.69209 0.51627 0.0
H1496 H 0.37801 0.06406 0.25031 0.0
H1497 H 0.42128 0.94074 0.21522 0.0
H1498 H 0.41962 0.0461 0.1759 0.0
H1499 H 0.38086 0.95612 0.29182 0.0
H1500 H 0.41632 0.97872 0.19748 0.0
H1501 H 0.37395 0.02424 0.26249 0.0
C1502 C 0.38585 0.05172 0.23617 0.0
C1503 C 0.39936 0.05832 0.21226 0.0
C1504 C 0.4084 0.97388 0.21812 0.0
C1505 C 0.39503 0.01301 0.22616 0.0
C1506 C 0.41131 0.95216 0.22832 0.0
C1507 C 0.40171 0.94537 0.25523 0.0
C1508 C 0.39599 0.98915 0.23504 0.0
C1509 C 0.38868 0.96079 0.27105 0.0
C1510 C 0.38366 0.02904 0.24323 0.0
C1511 C 0.40925 0.04173 0.19473 0.0
N1512 N 0.38638 0.98211 0.26087 0.0
N1513 N 0.40706 0.0199 0.20219 0.0
H1514 H 0.79823 0.62644 0.01181 0.0
H1515 H 0.68056 0.68268 0.04828 0.0
H1516 H 0.78874 0.67983 0.07494 0.0
H1517 H 0.69122 0.63832 0.97408 0.0
H1518 H 0.71862 0.67565 0.06494 0.0
H1519 H 0.75773 0.6244 0.0048 0.0
C1520 C 0.7876 0.63742 0.02466 0.0
C1521 C 0.79683 0.65353 0.04373 0.0
C1522 C 0.71262 0.66728 0.04515 0.0
C1523 C 0.75062 0.65139 0.03564 0.0
C1524 C 0.69088 0.6713 0.03559 0.0
C1525 C 0.68285 0.66132 0.00949 0.0
C1526 C 0.72654 0.65325 0.02844 0.0
C1527 C 0.69686 0.64651 0.99417 0.0
C1528 C 0.76451 0.63632 0.02051 0.0
C1529 C 0.78231 0.66732 0.05981 0.0
N1530 N 0.71816 0.64309 0.00371 0.0
N1531 N 0.75994 0.66608 0.05518 0.0
H1532 H 0.11487 0.0592 0.74255 0.0
H1533 H 0.04688 0.94642 0.76749 0.0
H1534 H 0.07176 0.04683 0.81755 0.0
H1535 H 0.09988 0.95165 0.70293 0.0
H1536 H 0.05599 0.98365 0.78541 0.0
H1537 H 0.11095 0.01993 0.72795 0.0
C1538 C 0.10495 0.04812 0.75626 0.0
C1539 C 0.09343 0.05629 0.78113 0.0
C1540 C 0.0657 0.97671 0.76735 0.0
C1541 C 0.08855 0.01165 0.7643 0.0
C1542 C 0.06037 0.95549 0.75693 0.0
C1543 C 0.07256 0.946 0.73357 0.0
C1544 C 0.08325 0.9887 0.75419 0.0
C1545 C 0.09 0.95845 0.72091 0.0
C1546 C 0.10263 0.02577 0.74783 0.0
C1547 C 0.08079 0.04128 0.79809 0.0
N1548 N 0.09479 0.97927 0.73131 0.0
N1549 N 0.07847 0.01976 0.78915 0.0
H1550 H 0.69904 0.2915 0.53193 0.0
H1551 H 0.80367 0.35898 0.46896 0.0
H1552 H 0.6956 0.36239 0.51518 0.0
H1553 H 0.80682 0.29303 0.50758 0.0
H1554 H 0.76413 0.36131 0.4839 0.0
H1555 H 0.7388 0.29232 0.52153 0.0
C1556 C 0.70676 0.30731 0.52624 0.0
C1557 C 0.69409 0.32689 0.52434 0.0
C1558 C 0.77363 0.34644 0.48918 0.0
C1559 C 0.73971 0.32799 0.51199 0.0
C1560 C 0.79608 0.34508 0.48057 0.0
C1561 C 0.80845 0.32573 0.48686 0.0
C1562 C 0.76366 0.32826 0.5039 0.0
C1563 C 0.79793 0.30823 0.50209 0.0
C1564 C 0.72949 0.30781 0.52031 0.0
C1565 C 0.70491 0.34695 0.51697 0.0
N1566 N 0.7762 0.30989 0.50993 0.0
N1567 N 0.72718 0.34698 0.51072 0.0
loop_
_geom_bond_atom_site_label_1
_geom_bond_atom_site_label_2
_geom_bond_distance
_geom_bond_site_symmetry_2
_ccdc_geom_bond_type
In0 O1 2.294 . S
In0 O2 2.326 . S
In0 O6 2.266 . S
In0 O7 2.326 . S
In0 O8 2.266 . S
In0 O9 2.326 . S
In0 O11 2.294 . S
In0 O12 2.326 . S
O1 In0 2.294 . S
O1 C10 1.240 . S
O2 In0 2.326 . S
O2 C10 1.252 . S
C3 O6 1.252 . S
C3 O7 1.260 . S
C4 O11 1.240 . S
C4 O12 1.252 . S
C5 O8 1.252 . S
C5 O9 1.260 . S
O6 In0 2.266 . S
O6 C3 1.252 . S
O7 In0 2.326 . S
O7 C3 1.260 . S
O8 In0 2.266 . S
O8 C5 1.252 . S
O9 In0 2.326 . S
O9 C5 1.260 . S
C10 O1 1.240 . S
C10 O2 1.252 . S
O11 In0 2.294 . S
O11 C4 1.240 . S
O12 In0 2.326 . S
O12 C4 1.252 . S
In13 O14 2.294 . S
In13 O15 2.326 . S
In13 O19 2.266 . S
In13 O20 2.326 . S
In13 O21 2.266 . S
In13 O22 2.326 . S
In13 O24 2.294 . S
In13 O25 2.326 . S
O14 In13 2.294 . S
O14 C23 1.240 . S
O15 In13 2.326 . S
O15 C23 1.252 . S
C16 O19 1.252 . S
C16 O20 1.260 . S
C17 O24 1.240 . S
C17 O25 1.252 . S
C18 O21 1.252 . S
C18 O22 1.260 . S
O19 In13 2.266 . S
O19 C16 1.252 . S
O20 In13 2.326 . S
O20 C16 1.260 . S
O21 In13 2.266 . S
O21 C18 1.252 . S
O22 In13 2.326 . S
O22 C18 1.260 . S
C23 O14 1.240 . S
C23 O15 1.252 . S
O24 In13 2.294 . S
O24 C17 1.240 . S
O25 In13 2.326 . S
O25 C17 1.252 . S
In26 O27 2.294 . S
In26 O28 2.326 . S
In26 O32 2.266 . S
In26 O33 2.326 . S
In26 O34 2.266 . S
In26 O35 2.326 . S
In26 O37 2.294 . S
In26 O38 2.326 . S
O27 In26 2.294 . S
O27 C36 1.240 . S
O28 In26 2.326 . S
O28 C36 1.252 . S
C29 O32 1.252 . S
C29 O33 1.260 . S
C30 O37 1.240 . S
C30 O38 1.252 . S
C31 O34 1.252 . S
C31 O35 1.260 . S
O32 In26 2.266 . S
O32 C29 1.252 . S
O33 In26 2.326 . S
O33 C29 1.260 . S
O34 In26 2.266 . S
O34 C31 1.252 . S
O35 In26 2.326 . S
O35 C31 1.260 . S
C36 O27 1.240 . S
C36 O28 1.252 . S
O37 In26 2.294 . S
O37 C30 1.240 . S
O38 In26 2.326 . S
O38 C30 1.252 . S
In39 O40 2.294 . S
In39 O41 2.326 . S
In39 O45 2.266 . S
In39 O46 2.326 . S
In39 O47 2.266 . S
In39 O48 2.326 . S
In39 O50 2.294 1_554 S
In39 O51 2.326 . S
O40 In39 2.294 . S
O40 C49 1.240 . S
O41 In39 2.326 . S
O41 C49 1.252 . S
C42 O45 1.252 . S
C42 O46 1.260 . S
C43 O50 1.240 . S
C43 O51 1.252 1_556 S
C44 O47 1.252 . S
C44 O48 1.260 . S
O45 In39 2.266 . S
O45 C42 1.252 . S
O46 In39 2.326 . S
O46 C42 1.260 . S
O47 In39 2.266 . S
O47 C44 1.252 . S
O48 In39 2.326 . S
O48 C44 1.260 . S
C49 O40 1.240 . S
C49 O41 1.252 . S
O50 In39 2.294 1_556 S
O50 C43 1.240 . S
O51 In39 2.326 . S
O51 C43 1.252 1_554 S
In52 O53 2.294 . S
In52 O54 2.326 . S
In52 O58 2.266 . S
In52 O59 2.326 . S
In52 O60 2.266 . S
In52 O61 2.326 . S
In52 O63 2.294 . S
In52 O64 2.326 . S
O53 In52 2.294 . S
O53 C62 1.240 . S
O54 In52 2.326 . S
O54 C62 1.252 . S
C55 O58 1.252 . S
C55 O59 1.260 . S
C56 O63 1.240 . S
C56 O64 1.252 . S
C57 O60 1.252 . S
C57 O61 1.260 . S
O58 In52 2.266 . S
O58 C55 1.252 . S
O59 In52 2.326 . S
O59 C55 1.260 . S
O60 In52 2.266 . S
O60 C57 1.252 . S
O61 In52 2.326 . S
O61 C57 1.260 . S
C62 O53 1.240 . S
C62 O54 1.252 . S
O63 In52 2.294 . S
O63 C56 1.240 . S
O64 In52 2.326 . S
O64 C56 1.252 . S
In65 O66 2.294 . S
In65 O67 2.326 . S
In65 O71 2.266 . S
In65 O72 2.326 . S
In65 O73 2.266 . S
In65 O74 2.326 . S
In65 O76 2.294 . S
In65 O77 2.326 . S
O66 In65 2.294 . S
O66 C75 1.240 . S
O67 In65 2.326 . S
O67 C75 1.252 . S
C68 O71 1.252 . S
C68 O72 1.260 . S
C69 O76 1.240 . S
C69 O77 1.252 . S
C70 O73 1.252 . S
C70 O74 1.260 . S
O71 In65 2.266 . S
O71 C68 1.252 . S
O72 In65 2.326 . S
O72 C68 1.260 . S
O73 In65 2.266 . S
O73 C70 1.252 . S
O74 In65 2.326 . S
O74 C70 1.260 . S
C75 O66 1.240 . S
C75 O67 1.252 . S
O76 In65 2.294 . S
O76 C69 1.240 . S
O77 In65 2.326 . S
O77 C69 1.252 . S
In78 O79 2.294 . S
In78 O80 2.326 . S
In78 O84 2.266 . S
In78 O85 2.326 . S
In78 O86 2.266 . S
In78 O87 2.326 . S
In78 O89 2.294 . S
In78 O90 2.326 . S
O79 In78 2.294 . S
O79 C88 1.240 . S
O80 In78 2.326 . S
O80 C88 1.252 . S
C81 O84 1.252 . S
C81 O85 1.260 . S
C82 O89 1.240 . S
C82 O90 1.252 . S
C83 O86 1.252 . S
C83 O87 1.260 . S
O84 In78 2.266 . S
O84 C81 1.252 . S
O85 In78 2.326 . S
O85 C81 1.260 . S
O86 In78 2.266 . S
O86 C83 1.252 . S
O87 In78 2.326 . S
O87 C83 1.260 . S
C88 O79 1.240 . S
C88 O80 1.252 . S
O89 In78 2.294 . S
O89 C82 1.240 . S
O90 In78 2.326 . S
O90 C82 1.252 . S
In91 O92 2.294 1_556 S
In91 O93 2.326 . S
In91 O97 2.266 . S
In91 O98 2.326 . S
In91 O99 2.266 . S
In91 O100 2.326 . S
In91 O102 2.294 . S
In91 O103 2.326 . S
O92 In91 2.294 1_554 S
O92 C101 1.240 . S
O93 In91 2.326 . S
O93 C101 1.252 1_556 S
C94 O97 1.252 . S
C94 O98 1.260 . S
C95 O102 1.240 . S
C95 O103 1.252 . S
C96 O99 1.252 . S
C96 O100 1.260 . S
O97 In91 2.266 . S
O97 C94 1.252 . S
O98 In91 2.326 . S
O98 C94 1.260 . S
O99 In91 2.266 . S
O99 C96 1.252 . S
O100 In91 2.326 . S
O100 C96 1.260 . S
C101 O92 1.240 . S
C101 O93 1.252 1_554 S
O102 In91 2.294 . S
O102 C95 1.240 . S
O103 In91 2.326 . S
O103 C95 1.252 . S
In104 O105 2.294 . S
In104 O106 2.326 . S
In104 O110 2.266 . S
In104 O111 2.326 . S
In104 O112 2.266 . S
In104 O113 2.326 . S
In104 O115 2.294 . S
In104 O116 2.326 . S
O105 In104 2.294 . S
O105 C114 1.240 . S
O106 In104 2.326 . S
O106 C114 1.252 . S
C107 O110 1.252 . S
C107 O111 1.260 . S
C108 O115 1.240 . S
C108 O116 1.252 . S
C109 O112 1.252 . S
C109 O113 1.260 . S
O110 In104 2.266 . S
O110 C107 1.252 . S
O111 In104 2.326 . S
O111 C107 1.260 . S
O112 In104 2.266 . S
O112 C109 1.252 . S
O113 In104 2.326 . S
O113 C109 1.260 . S
C114 O105 1.240 . S
C114 O106 1.252 . S
O115 In104 2.294 . S
O115 C108 1.240 . S
O116 In104 2.326 . S
O116 C108 1.252 . S
In117 O118 2.294 . S
In117 O119 2.326 . S
In117 O123 2.266 . S
In117 O124 2.326 . S
In117 O125 2.266 . S
In117 O126 2.326 . S
In117 O128 2.294 . S
In117 O129 2.326 . S
O118 In117 2.294 . S
O118 C127 1.240 . S
O119 In117 2.326 . S
O119 C127 1.252 . S
C120 O123 1.252 . S
C120 O124 1.260 . S
C121 O128 1.240 . S
C121 O129 1.252 . S
C122 O125 1.252 . S
C122 O126 1.260 . S
O123 In117 2.266 . S
O123 C120 1.252 . S
O124 In117 2.326 . S
O124 C120 1.260 . S
O125 In117 2.266 . S
O125 C122 1.252 . S
O126 In117 2.326 . S
O126 C122 1.260 . S
C127 O118 1.240 . S
C127 O119 1.252 . S
O128 In117 2.294 . S
O128 C121 1.240 . S
O129 In117 2.326 . S
O129 C121 1.252 . S
In130 O131 2.294 . S
In130 O132 2.326 . S
In130 O136 2.266 . S
In130 O137 2.326 . S
In130 O138 2.266 . S
In130 O139 2.326 . S
In130 O141 2.294 . S
In130 O142 2.326 . S
O131 In130 2.294 . S
O131 C140 1.240 . S
O132 In130 2.326 . S
O132 C140 1.252 . S
C133 O136 1.252 . S
C133 O137 1.260 . S
C134 O141 1.240 . S
C134 O142 1.252 . S
C135 O138 1.252 . S
C135 O139 1.260 . S
O136 In130 2.266 . S
O136 C133 1.252 . S
O137 In130 2.326 . S
O137 C133 1.260 . S
O138 In130 2.266 . S
O138 C135 1.252 . S
O139 In130 2.326 . S
O139 C135 1.260 . S
C140 O131 1.240 . S
C140 O132 1.252 . S
O141 In130 2.294 . S
O141 C134 1.240 . S
O142 In130 2.326 . S
O142 C134 1.252 . S
In143 O144 2.294 1_556 S
In143 O145 2.326 . S
In143 O149 2.266 . S
In143 O150 2.326 . S
In143 O151 2.266 . S
In143 O152 2.326 . S
In143 O154 2.294 . S
In143 O155 2.326 . S
O144 In143 2.294 1_554 S
O144 C153 1.240 . S
O145 In143 2.326 . S
O145 C153 1.252 1_556 S
C146 O149 1.252 . S
C146 O150 1.260 . S
C147 O154 1.240 . S
C147 O155 1.252 . S
C148 O151 1.252 . S
C148 O152 1.260 . S
O149 In143 2.266 . S
O149 C146 1.252 . S
O150 In143 2.326 . S
O150 C146 1.260 . S
O151 In143 2.266 . S
O151 C148 1.252 . S
O152 In143 2.326 . S
O152 C148 1.260 . S
C153 O144 1.240 . S
C153 O145 1.252 1_554 S
O154 In143 2.294 . S
O154 C147 1.240 . S
O155 In143 2.326 . S
O155 C147 1.252 . S
In156 O157 2.294 . S
In156 O158 2.326 . S
In156 O162 2.266 . S
In156 O163 2.326 . S
In156 O164 2.266 . S
In156 O165 2.326 . S
In156 O167 2.294 . S
In156 O168 2.326 . S
O157 In156 2.294 . S
O157 C166 1.240 . S
O158 In156 2.326 . S
O158 C166 1.252 . S
C159 O162 1.252 . S
C159 O163 1.260 . S
C160 O167 1.240 . S
C160 O168 1.252 . S
C161 O164 1.252 . S
C161 O165 1.260 . S
O162 In156 2.266 . S
O162 C159 1.252 . S
O163 In156 2.326 . S
O163 C159 1.260 . S
O164 In156 2.266 . S
O164 C161 1.252 . S
O165 In156 2.326 . S
O165 C161 1.260 . S
C166 O157 1.240 . S
C166 O158 1.252 . S
O167 In156 2.294 . S
O167 C160 1.240 . S
O168 In156 2.326 . S
O168 C160 1.252 . S
In169 O170 2.294 . S
In169 O171 2.326 . S
In169 O175 2.266 . S
In169 O176 2.326 . S
In169 O177 2.266 . S
In169 O178 2.326 . S
In169 O180 2.294 . S
In169 O181 2.326 . S
O170 In169 2.294 . S
O170 C179 1.240 . S
O171 In169 2.326 . S
O171 C179 1.252 . S
C172 O175 1.252 . S
C172 O176 1.260 . S
C173 O180 1.240 . S
C173 O181 1.252 . S
C174 O177 1.252 . S
C174 O178 1.260 . S
O175 In169 2.266 . S
O175 C172 1.252 . S
O176 In169 2.326 . S
O176 C172 1.260 . S
O177 In169 2.266 . S
O177 C174 1.252 . S
O178 In169 2.326 . S
O178 C174 1.260 . S
C179 O170 1.240 . S
C179 O171 1.252 . S
O180 In169 2.294 . S
O180 C173 1.240 . S
O181 In169 2.326 . S
O181 C173 1.252 . S
In182 O183 2.294 . S
In182 O184 2.326 . S
In182 O188 2.266 . S
In182 O189 2.326 . S
In182 O190 2.266 . S
In182 O191 2.326 . S
In182 O193 2.294 . S
In182 O194 2.326 . S
O183 In182 2.294 . S
O183 C192 1.240 . S
O184 In182 2.326 . S
O184 C192 1.252 . S
C185 O188 1.252 . S
C185 O189 1.260 . S
C186 O193 1.240 . S
C186 O194 1.252 . S
C187 O190 1.252 . S
C187 O191 1.260 . S
O188 In182 2.266 . S
O188 C185 1.252 . S
O189 In182 2.326 . S
O189 C185 1.260 . S
O190 In182 2.266 . S
O190 C187 1.252 . S
O191 In182 2.326 . S
O191 C187 1.260 . S
C192 O183 1.240 . S
C192 O184 1.252 . S
O193 In182 2.294 . S
O193 C186 1.240 . S
O194 In182 2.326 . S
O194 C186 1.252 . S
In195 O196 2.294 1_554 S
In195 O197 2.326 . S
In195 O201 2.266 . S
In195 O202 2.326 . S
In195 O203 2.266 . S
In195 O204 2.326 . S
In195 O206 2.294 . S
In195 O207 2.326 . S
O196 In195 2.294 1_556 S
O196 C205 1.240 . S
O197 In195 2.326 . S
O197 C205 1.252 1_554 S
C198 O201 1.252 . S
C198 O202 1.260 . S
C199 O206 1.240 . S
C199 O207 1.252 . S
C200 O203 1.252 . S
C200 O204 1.260 . S
O201 In195 2.266 . S
O201 C198 1.252 . S
O202 In195 2.326 . S
O202 C198 1.260 . S
O203 In195 2.266 . S
O203 C200 1.252 . S
O204 In195 2.326 . S
O204 C200 1.260 . S
C205 O196 1.240 . S
C205 O197 1.252 1_556 S
O206 In195 2.294 . S
O206 C199 1.240 . S
O207 In195 2.326 . S
O207 C199 1.252 . S
In208 O209 2.294 . S
In208 O210 2.326 . S
In208 O214 2.266 . S
In208 O215 2.326 . S
In208 O216 2.266 . S
In208 O217 2.326 . S
In208 O219 2.294 . S
In208 O220 2.326 . S
O209 In208 2.294 . S
O209 C218 1.240 . S
O210 In208 2.326 . S
O210 C218 1.252 . S
C211 O214 1.252 . S
C211 O215 1.260 . S
C212 O219 1.240 . S
C212 O220 1.252 . S
C213 O216 1.252 . S
C213 O217 1.260 . S
O214 In208 2.266 . S
O214 C211 1.252 . S
O215 In208 2.326 . S
O215 C211 1.260 . S
O216 In208 2.266 . S
O216 C213 1.252 . S
O217 In208 2.326 . S
O217 C213 1.260 . S
C218 O209 1.240 . S
C218 O210 1.252 . S
O219 In208 2.294 . S
O219 C212 1.240 . S
O220 In208 2.326 . S
O220 C212 1.252 . S
In221 O222 2.294 1_554 S
In221 O223 2.326 . S
In221 O227 2.266 . S
In221 O228 2.326 . S
In221 O229 2.266 . S
In221 O230 2.326 . S
In221 O232 2.294 . S
In221 O233 2.326 . S
O222 In221 2.294 1_556 S
O222 C231 1.240 . S
O223 In221 2.326 . S
O223 C231 1.252 1_554 S
C224 O227 1.252 . S
C224 O228 1.260 . S
C225 O232 1.240 . S
C225 O233 1.252 . S
C226 O229 1.252 . S
C226 O230 1.260 . S
O227 In221 2.266 . S
O227 C224 1.252 . S
O228 In221 2.326 . S
O228 C224 1.260 . S
O229 In221 2.266 . S
O229 C226 1.252 . S
O230 In221 2.326 . S
O230 C226 1.260 . S
C231 O222 1.240 . S
C231 O223 1.252 1_556 S
O232 In221 2.294 . S
O232 C225 1.240 . S
O233 In221 2.326 . S
O233 C225 1.252 . S
In234 O235 2.294 . S
In234 O236 2.326 . S
In234 O240 2.266 . S
In234 O241 2.326 . S
In234 O242 2.266 . S
In234 O243 2.326 . S
In234 O245 2.294 . S
In234 O246 2.326 . S
O235 In234 2.294 . S
O235 C244 1.240 . S
O236 In234 2.326 . S
O236 C244 1.252 . S
C237 O240 1.252 . S
C237 O241 1.260 . S
C238 O245 1.240 . S
C238 O246 1.252 . S
C239 O242 1.252 . S
C239 O243 1.260 . S
O240 In234 2.266 . S
O240 C237 1.252 . S
O241 In234 2.326 . S
O241 C237 1.260 . S
O242 In234 2.266 . S
O242 C239 1.252 . S
O243 In234 2.326 . S
O243 C239 1.260 . S
C244 O235 1.240 . S
C244 O236 1.252 . S
O245 In234 2.294 . S
O245 C238 1.240 . S
O246 In234 2.326 . S
O246 C238 1.252 . S
In247 O248 2.294 . S
In247 O249 2.326 . S
In247 O253 2.266 . S
In247 O254 2.326 . S
In247 O255 2.266 . S
In247 O256 2.326 . S
In247 O258 2.294 . S
In247 O259 2.326 . S
O248 In247 2.294 . S
O248 C257 1.240 . S
O249 In247 2.326 . S
O249 C257 1.252 . S
C250 O253 1.252 . S
C250 O254 1.260 . S
C251 O258 1.240 . S
C251 O259 1.252 . S
C252 O255 1.252 . S
C252 O256 1.260 . S
O253 In247 2.266 . S
O253 C250 1.252 . S
O254 In247 2.326 . S
O254 C250 1.260 . S
O255 In247 2.266 . S
O255 C252 1.252 . S
O256 In247 2.326 . S
O256 C252 1.260 . S
C257 O248 1.240 . S
C257 O249 1.252 . S
O258 In247 2.294 . S
O258 C251 1.240 . S
O259 In247 2.326 . S
O259 C251 1.252 . S
In260 O261 2.294 . S
In260 O262 2.326 . S
In260 O266 2.266 . S
In260 O267 2.326 . S
In260 O268 2.266 . S
In260 O269 2.326 . S
In260 O271 2.294 . S
In260 O272 2.326 . S
O261 In260 2.294 . S
O261 C270 1.240 . S
O262 In260 2.326 . S
O262 C270 1.252 . S
C263 O266 1.252 . S
C263 O267 1.260 . S
C264 O271 1.240 . S
C264 O272 1.252 . S
C265 O268 1.252 . S
C265 O269 1.260 . S
O266 In260 2.266 . S
O266 C263 1.252 . S
O267 In260 2.326 . S
O267 C263 1.260 . S
O268 In260 2.266 . S
O268 C265 1.252 . S
O269 In260 2.326 . S
O269 C265 1.260 . S
C270 O261 1.240 . S
C270 O262 1.252 . S
O271 In260 2.294 . S
O271 C264 1.240 . S
O272 In260 2.326 . S
O272 C264 1.252 . S
In273 O274 2.294 1_556 S
In273 O275 2.326 . S
In273 O279 2.266 . S
In273 O280 2.326 . S
In273 O281 2.266 . S
In273 O282 2.326 . S
In273 O284 2.294 . S
In273 O285 2.326 . S
O274 In273 2.294 1_554 S
O274 C283 1.240 . S
O275 In273 2.326 . S
O275 C283 1.252 1_556 S
C276 O279 1.252 . S
C276 O280 1.260 . S
C277 O284 1.240 . S
C277 O285 1.252 . S
C278 O281 1.252 . S
C278 O282 1.260 . S
O279 In273 2.266 . S
O279 C276 1.252 . S
O280 In273 2.326 . S
O280 C276 1.260 . S
O281 In273 2.266 . S
O281 C278 1.252 . S
O282 In273 2.326 . S
O282 C278 1.260 . S
C283 O274 1.240 . S
C283 O275 1.252 1_554 S
O284 In273 2.294 . S
O284 C277 1.240 . S
O285 In273 2.326 . S
O285 C277 1.252 . S
In286 O287 2.294 . S
In286 O288 2.326 . S
In286 O292 2.266 . S
In286 O293 2.326 . S
In286 O294 2.266 . S
In286 O295 2.326 . S
In286 O297 2.294 . S
In286 O298 2.326 . S
O287 In286 2.294 . S
O287 C296 1.240 . S
O288 In286 2.326 . S
O288 C296 1.252 . S
C289 O292 1.252 . S
C289 O293 1.260 . S
C290 O297 1.240 . S
C290 O298 1.252 . S
C291 O294 1.252 . S
C291 O295 1.260 . S
O292 In286 2.266 . S
O292 C289 1.252 . S
O293 In286 2.326 . S
O293 C289 1.260 . S
O294 In286 2.266 . S
O294 C291 1.252 . S
O295 In286 2.326 . S
O295 C291 1.260 . S
C296 O287 1.240 . S
C296 O288 1.252 . S
O297 In286 2.294 . S
O297 C290 1.240 . S
O298 In286 2.326 . S
O298 C290 1.252 . S
In299 O300 2.294 . S
In299 O301 2.326 . S
In299 O305 2.266 . S
In299 O306 2.326 . S
In299 O307 2.266 . S
In299 O308 2.326 . S
In299 O310 2.294 . S
In299 O311 2.326 . S
O300 In299 2.294 . S
O300 C309 1.240 . S
O301 In299 2.326 . S
O301 C309 1.252 . S
C302 O305 1.252 . S
C302 O306 1.260 . S
C303 O310 1.240 . S
C303 O311 1.252 . S
C304 O307 1.252 . S
C304 O308 1.260 . S
O305 In299 2.266 . S
O305 C302 1.252 . S
O306 In299 2.326 . S
O306 C302 1.260 . S
O307 In299 2.266 . S
O307 C304 1.252 . S
O308 In299 2.326 . S
O308 C304 1.260 . S
C309 O300 1.240 . S
C309 O301 1.252 . S
O310 In299 2.294 . S
O310 C303 1.240 . S
O311 In299 2.326 . S
O311 C303 1.252 . S
In312 O313 2.294 . S
In312 O314 2.326 . S
In312 O318 2.266 . S
In312 O319 2.326 . S
In312 O320 2.266 . S
In312 O321 2.326 . S
In312 O323 2.294 . S
In312 O324 2.326 . S
O313 In312 2.294 . S
O313 C322 1.240 . S
O314 In312 2.326 . S
O314 C322 1.252 . S
C315 O318 1.252 . S
C315 O319 1.260 . S
C316 O323 1.240 . S
C316 O324 1.252 . S
C317 O320 1.252 . S
C317 O321 1.260 . S
O318 In312 2.266 . S
O318 C315 1.252 . S
O319 In312 2.326 . S
O319 C315 1.260 . S
O320 In312 2.266 . S
O320 C317 1.252 . S
O321 In312 2.326 . S
O321 C317 1.260 . S
C322 O313 1.240 . S
C322 O314 1.252 . S
O323 In312 2.294 . S
O323 C316 1.240 . S
O324 In312 2.326 . S
O324 C316 1.252 . S
In325 O326 2.294 1_556 S
In325 O327 2.326 . S
In325 O331 2.266 . S
In325 O332 2.326 . S
In325 O333 2.266 . S
In325 O334 2.326 . S
In325 O336 2.294 . S
In325 O337 2.326 . S
O326 In325 2.294 1_554 S
O326 C335 1.240 . S
O327 In325 2.326 . S
O327 C335 1.252 1_556 S
C328 O331 1.252 . S
C328 O332 1.260 . S
C329 O336 1.240 . S
C329 O337 1.252 . S
C330 O333 1.252 . S
C330 O334 1.260 . S
O331 In325 2.266 . S
O331 C328 1.252 . S
O332 In325 2.326 . S
O332 C328 1.260 . S
O333 In325 2.266 . S
O333 C330 1.252 . S
O334 In325 2.326 . S
O334 C330 1.260 . S
C335 O326 1.240 . S
C335 O327 1.252 1_554 S
O336 In325 2.294 . S
O336 C329 1.240 . S
O337 In325 2.326 . S
O337 C329 1.252 . S
In338 O339 2.294 . S
In338 O340 2.326 . S
In338 O344 2.266 . S
In338 O345 2.326 . S
In338 O346 2.266 . S
In338 O347 2.326 . S
In338 O349 2.294 . S
In338 O350 2.326 . S
O339 In338 2.294 . S
O339 C348 1.240 . S
O340 In338 2.326 . S
O340 C348 1.252 . S
C341 O344 1.252 . S
C341 O345 1.260 . S
C342 O349 1.240 . S
C342 O350 1.252 . S
C343 O346 1.252 . S
C343 O347 1.260 . S
O344 In338 2.266 . S
O344 C341 1.252 . S
O345 In338 2.326 . S
O345 C341 1.260 . S
O346 In338 2.266 . S
O346 C343 1.252 . S
O347 In338 2.326 . S
O347 C343 1.260 . S
C348 O339 1.240 . S
C348 O340 1.252 . S
O349 In338 2.294 . S
O349 C342 1.240 . S
O350 In338 2.326 . S
O350 C342 1.252 . S
In351 O352 2.294 . S
In351 O353 2.326 . S
In351 O357 2.266 . S
In351 O358 2.326 . S
In351 O359 2.266 . S
In351 O360 2.326 . S
In351 O362 2.294 . S
In351 O363 2.326 . S
O352 In351 2.294 . S
O352 C361 1.240 . S
O353 In351 2.326 . S
O353 C361 1.252 . S
C354 O357 1.252 . S
C354 O358 1.260 . S
C355 O362 1.240 . S
C355 O363 1.252 . S
C356 O359 1.252 . S
C356 O360 1.260 . S
O357 In351 2.266 . S
O357 C354 1.252 . S
O358 In351 2.326 . S
O358 C354 1.260 . S
O359 In351 2.266 . S
O359 C356 1.252 . S
O360 In351 2.326 . S
O360 C356 1.260 . S
C361 O352 1.240 . S
C361 O353 1.252 . S
O362 In351 2.294 . S
O362 C355 1.240 . S
O363 In351 2.326 . S
O363 C355 1.252 . S
In364 O365 2.294 . S
In364 O366 2.326 . S
In364 O370 2.266 . S
In364 O371 2.326 . S
In364 O372 2.266 . S
In364 O373 2.326 . S
In364 O375 2.294 . S
In364 O376 2.326 . S
O365 In364 2.294 . S
O365 C374 1.240 . S
O366 In364 2.326 . S
O366 C374 1.252 . S
C367 O370 1.252 . S
C367 O371 1.260 . S
C368 O375 1.240 . S
C368 O376 1.252 . S
C369 O372 1.252 . S
C369 O373 1.260 . S
O370 In364 2.266 . S
O370 C367 1.252 . S
O371 In364 2.326 . S
O371 C367 1.260 . S
O372 In364 2.266 . S
O372 C369 1.252 . S
O373 In364 2.326 . S
O373 C369 1.260 . S
C374 O365 1.240 . S
C374 O366 1.252 . S
O375 In364 2.294 . S
O375 C368 1.240 . S
O376 In364 2.326 . S
O376 C368 1.252 . S
In377 O378 2.294 1_554 S
In377 O379 2.326 . S
In377 O383 2.266 . S
In377 O384 2.326 . S
In377 O385 2.266 . S
In377 O386 2.326 . S
In377 O388 2.294 . S
In377 O389 2.326 . S
O378 In377 2.294 1_556 S
O378 C387 1.240 . S
O379 In377 2.326 . S
O379 C387 1.252 1_554 S
C380 O383 1.252 . S
C380 O384 1.260 . S
C381 O388 1.240 . S
C381 O389 1.252 . S
C382 O385 1.252 . S
C382 O386 1.260 . S
O383 In377 2.266 . S
O383 C380 1.252 . S
O384 In377 2.326 . S
O384 C380 1.260 . S
O385 In377 2.266 . S
O385 C382 1.252 . S
O386 In377 2.326 . S
O386 C382 1.260 . S
C387 O378 1.240 . S
C387 O379 1.252 1_556 S
O388 In377 2.294 . S
O388 C381 1.240 . S
O389 In377 2.326 . S
O389 C381 1.252 . S
In390 O391 2.294 . S
In390 O392 2.326 . S
In390 O396 2.266 . S
In390 O397 2.326 . S
In390 O398 2.266 . S
In390 O399 2.326 . S
In390 O401 2.294 . S
In390 O402 2.326 . S
O391 In390 2.294 . S
O391 C400 1.240 . S
O392 In390 2.326 . S
O392 C400 1.252 . S
C393 O396 1.252 . S
C393 O397 1.260 . S
C394 O401 1.240 . S
C394 O402 1.252 . S
C395 O398 1.252 . S
C395 O399 1.260 . S
O396 In390 2.266 . S
O396 C393 1.252 . S
O397 In390 2.326 . S
O397 C393 1.260 . S
O398 In390 2.266 . S
O398 C395 1.252 . S
O399 In390 2.326 . S
O399 C395 1.260 . S
C400 O391 1.240 . S
C400 O392 1.252 . S
O401 In390 2.294 . S
O401 C394 1.240 . S
O402 In390 2.326 . S
O402 C394 1.252 . S
In403 O404 2.294 . S
In403 O405 2.326 . S
In403 O409 2.266 . S
In403 O410 2.326 . S
In403 O411 2.266 . S
In403 O412 2.326 . S
In403 O414 2.294 . S
In403 O415 2.326 . S
O404 In403 2.294 . S
O404 C413 1.240 . S
O405 In403 2.326 . S
O405 C413 1.252 . S
C406 O409 1.252 . S
C406 O410 1.260 . S
C407 O414 1.240 . S
C407 O415 1.252 . S
C408 O411 1.252 . S
C408 O412 1.260 . S
O409 In403 2.266 . S
O409 C406 1.252 . S
O410 In403 2.326 . S
O410 C406 1.260 . S
O411 In403 2.266 . S
O411 C408 1.252 . S
O412 In403 2.326 . S
O412 C408 1.260 . S
C413 O404 1.240 . S
C413 O405 1.252 . S
O414 In403 2.294 . S
O414 C407 1.240 . S
O415 In403 2.326 . S
O415 C407 1.252 . S
H416 C422 0.930 . S
H417 C426 0.930 . S
H418 C431 0.929 . S
H419 C429 0.929 . S
H420 C424 0.929 . S
H421 C430 0.929 . S
C422 H416 0.930 . S
C422 C423 1.367 . S
C422 C430 1.378 . S
C423 C422 1.367 . S
C423 C431 1.433 . S
C424 H420 0.929 . S
C424 C426 1.378 . S
C424 C428 1.350 . S
C425 C428 1.463 . S
C425 C430 1.350 . S
C425 N433 1.427 . S
C426 H417 0.930 . S
C426 C424 1.378 . S
C426 C427 1.367 . S
C427 C426 1.367 . S
C427 C429 1.433 . S
C428 C424 1.350 . S
C428 C425 1.463 . S
C428 N432 1.427 . S
C429 H419 0.929 . S
C429 C427 1.433 . S
C429 N432 1.384 . S
C430 H421 0.929 . S
C430 C422 1.378 . S
C430 C425 1.350 . S
C431 H418 0.929 . S
C431 C423 1.433 . S
C431 N433 1.384 . S
N432 C428 1.427 . S
N432 C429 1.384 . S
N433 C425 1.427 . S
N433 C431 1.384 . S
H434 C440 0.930 . S
H435 C444 0.930 . S
H436 C449 0.929 . S
H437 C447 0.929 . S
H438 C442 0.929 . S
H439 C448 0.929 . S
C440 H434 0.930 . S
C440 C441 1.367 . S
C440 C448 1.378 . S
C441 C440 1.367 . S
C441 C449 1.433 . S
C442 H438 0.929 . S
C442 C444 1.378 . S
C442 C446 1.350 . S
C443 C446 1.463 . S
C443 C448 1.350 . S
C443 N451 1.427 . S
C444 H435 0.930 . S
C444 C442 1.378 . S
C444 C445 1.367 . S
C445 C444 1.367 . S
C445 C447 1.433 . S
C446 C442 1.350 . S
C446 C443 1.463 . S
C446 N450 1.427 . S
C447 H437 0.929 . S
C447 C445 1.433 . S
C447 N450 1.384 . S
C448 H439 0.929 . S
C448 C440 1.378 . S
C448 C443 1.350 . S
C449 H436 0.929 . S
C449 C441 1.433 . S
C449 N451 1.384 . S
N450 C446 1.427 . S
N450 C447 1.384 . S
N451 C443 1.427 . S
N451 C449 1.384 . S
H452 C458 0.930 . S
H453 C462 0.930 . S
H454 C467 0.929 . S
H455 C465 0.929 . S
H456 C460 0.929 . S
H457 C466 0.929 . S
C458 H452 0.930 . S
C458 C459 1.367 . S
C458 C466 1.378 . S
C459 C458 1.367 . S
C459 C467 1.433 . S
C460 H456 0.929 . S
C460 C462 1.378 . S
C460 C464 1.350 . S
C461 C464 1.463 . S
C461 C466 1.350 . S
C461 N469 1.427 . S
C462 H453 0.930 . S
C462 C460 1.378 . S
C462 C463 1.367 . S
C463 C462 1.367 . S
C463 C465 1.433 . S
C464 C460 1.350 . S
C464 C461 1.463 . S
C464 N468 1.427 . S
C465 H455 0.929 . S
C465 C463 1.433 . S
C465 N468 1.384 . S
C466 H457 0.929 . S
C466 C458 1.378 . S
C466 C461 1.350 . S
C467 H454 0.929 . S
C467 C459 1.433 . S
C467 N469 1.384 . S
N468 C464 1.427 . S
N468 C465 1.384 . S
N469 C461 1.427 . S
N469 C467 1.384 . S
H470 C476 0.930 . S
H471 C480 0.930 . S
H472 C485 0.929 . S
H473 C483 0.929 . S
H474 C478 0.929 . S
H475 C484 0.929 . S
C476 H470 0.930 . S
C476 C477 1.367 . S
C476 C484 1.378 . S
C477 C476 1.367 . S
C477 C485 1.433 . S
C478 H474 0.929 . S
C478 C480 1.378 . S
C478 C482 1.350 . S
C479 C482 1.463 . S
C479 C484 1.350 . S
C479 N487 1.427 . S
C480 H471 0.930 . S
C480 C478 1.378 . S
C480 C481 1.367 . S
C481 C480 1.367 . S
C481 C483 1.433 . S
C482 C478 1.350 . S
C482 C479 1.463 . S
C482 N486 1.427 . S
C483 H473 0.929 . S
C483 C481 1.433 . S
C483 N486 1.384 . S
C484 H475 0.929 . S
C484 C476 1.378 . S
C484 C479 1.350 . S
C485 H472 0.929 . S
C485 C477 1.433 . S
C485 N487 1.384 . S
N486 C482 1.427 . S
N486 C483 1.384 . S
N487 C479 1.427 . S
N487 C485 1.384 . S
H488 C494 0.930 . S
H489 C498 0.930 . S
H490 C503 0.929 . S
H491 C501 0.929 . S
H492 C496 0.929 . S
H493 C502 0.929 . S
C494 H488 0.930 . S
C494 C495 1.367 . S
C494 C502 1.378 . S
C495 C494 1.367 . S
C495 C503 1.433 . S
C496 H492 0.929 . S
C496 C498 1.378 . S
C496 C500 1.350 . S
C497 C500 1.463 . S
C497 C502 1.350 . S
C497 N505 1.427 . S
C498 H489 0.930 . S
C498 C496 1.378 . S
C498 C499 1.367 . S
C499 C498 1.367 . S
C499 C501 1.433 . S
C500 C496 1.350 . S
C500 C497 1.463 . S
C500 N504 1.427 . S
C501 H491 0.929 . S
C501 C499 1.433 . S
C501 N504 1.384 . S
C502 H493 0.929 . S
C502 C494 1.378 . S
C502 C497 1.350 . S
C503 H490 0.929 . S
C503 C495 1.433 . S
C503 N505 1.384 . S
N504 C500 1.427 . S
N504 C501 1.384 . S
N505 C497 1.427 . S
N505 C503 1.384 . S
H506 C512 0.930 . S
H507 C516 0.930 . S
H508 C521 0.929 . S
H509 C519 0.929 . S
H510 C514 0.929 . S
H511 C520 0.929 . S
C512 H506 0.930 . S
C512 C513 1.367 . S
C512 C520 1.378 . S
C513 C512 1.367 . S
C513 C521 1.433 . S
C514 H510 0.929 . S
C514 C516 1.378 . S
C514 C518 1.350 . S
C515 C518 1.463 . S
C515 C520 1.350 . S
C515 N523 1.427 . S
C516 H507 0.930 . S
C516 C514 1.378 . S
C516 C517 1.367 . S
C517 C516 1.367 . S
C517 C519 1.433 . S
C518 C514 1.350 . S
C518 C515 1.463 . S
C518 N522 1.427 . S
C519 H509 0.929 . S
C519 C517 1.433 . S
C519 N522 1.384 . S
C520 H511 0.929 . S
C520 C512 1.378 . S
C520 C515 1.350 . S
C521 H508 0.929 . S
C521 C513 1.433 . S
C521 N523 1.384 . S
N522 C518 1.427 . S
N522 C519 1.384 . S
N523 C515 1.427 . S
N523 C521 1.384 . S
H524 C530 0.930 . S
H525 C534 0.930 . S
H526 C539 0.929 . S
H527 C537 0.929 . S
H528 C532 0.929 . S
H529 C538 0.929 . S
C530 H524 0.930 . S
C530 C531 1.367 . S
C530 C538 1.378 . S
C531 C530 1.367 . S
C531 C539 1.433 . S
C532 H528 0.929 . S
C532 C534 1.378 . S
C532 C536 1.350 . S
C533 C536 1.463 . S
C533 C538 1.350 . S
C533 N541 1.427 . S
C534 H525 0.930 . S
C534 C532 1.378 . S
C534 C535 1.367 . S
C535 C534 1.367 . S
C535 C537 1.433 . S
C536 C532 1.350 . S
C536 C533 1.463 . S
C536 N540 1.427 . S
C537 H527 0.929 . S
C537 C535 1.433 . S
C537 N540 1.384 . S
C538 H529 0.929 . S
C538 C530 1.378 . S
C538 C533 1.350 . S
C539 H526 0.929 . S
C539 C531 1.433 . S
C539 N541 1.384 . S
N540 C536 1.427 . S
N540 C537 1.384 . S
N541 C533 1.427 . S
N541 C539 1.384 . S
H542 C548 0.930 . S
H543 C552 0.930 . S
H544 C557 0.929 . S
H545 C555 0.929 . S
H546 C550 0.929 . S
H547 C556 0.929 . S
C548 H542 0.930 . S
C548 C549 1.367 . S
C548 C556 1.378 . S
C549 C548 1.367 . S
C549 C557 1.433 . S
C550 H546 0.929 . S
C550 C552 1.378 . S
C550 C554 1.350 . S
C551 C554 1.463 . S
C551 C556 1.350 . S
C551 N559 1.427 . S
C552 H543 0.930 . S
C552 C550 1.378 . S
C552 C553 1.367 . S
C553 C552 1.367 . S
C553 C555 1.433 . S
C554 C550 1.350 . S
C554 C551 1.463 . S
C554 N558 1.427 . S
C555 H545 0.929 . S
C555 C553 1.433 . S
C555 N558 1.384 . S
C556 H547 0.929 . S
C556 C548 1.378 . S
C556 C551 1.350 . S
C557 H544 0.929 . S
C557 C549 1.433 . S
C557 N559 1.384 . S
N558 C554 1.427 . S
N558 C555 1.384 . S
N559 C551 1.427 . S
N559 C557 1.384 . S
H560 C566 0.930 . S
H561 C570 0.930 . S
H562 C575 0.929 . S
H563 C573 0.929 . S
H564 C568 0.929 . S
H565 C574 0.929 . S
C566 H560 0.930 . S
C566 C567 1.367 . S
C566 C574 1.378 . S
C567 C566 1.367 . S
C567 C575 1.433 . S
C568 H564 0.929 . S
C568 C570 1.378 . S
C568 C572 1.350 . S
C569 C572 1.463 . S
C569 C574 1.350 . S
C569 N577 1.427 . S
C570 H561 0.930 . S
C570 C568 1.378 . S
C570 C571 1.367 . S
C571 C570 1.367 . S
C571 C573 1.433 . S
C572 C568 1.350 . S
C572 C569 1.463 . S
C572 N576 1.427 . S
C573 H563 0.929 . S
C573 C571 1.433 . S
C573 N576 1.384 . S
C574 H565 0.929 . S
C574 C566 1.378 . S
C574 C569 1.350 . S
C575 H562 0.929 . S
C575 C567 1.433 . S
C575 N577 1.384 . S
N576 C572 1.427 . S
N576 C573 1.384 . S
N577 C569 1.427 . S
N577 C575 1.384 . S
H578 C584 0.930 . S
H579 C588 0.930 . S
H580 C593 0.929 . S
H581 C591 0.929 . S
H582 C586 0.929 . S
H583 C592 0.929 . S
C584 H578 0.930 . S
C584 C585 1.367 . S
C584 C592 1.378 . S
C585 C584 1.367 . S
C585 C593 1.433 . S
C586 H582 0.929 . S
C586 C588 1.378 . S
C586 C590 1.350 . S
C587 C590 1.463 . S
C587 C592 1.350 . S
C587 N595 1.427 . S
C588 H579 0.930 . S
C588 C586 1.378 . S
C588 C589 1.367 . S
C589 C588 1.367 . S
C589 C591 1.433 . S
C590 C586 1.350 . S
C590 C587 1.463 . S
C590 N594 1.427 . S
C591 H581 0.929 . S
C591 C589 1.433 . S
C591 N594 1.384 . S
C592 H583 0.929 . S
C592 C584 1.378 . S
C592 C587 1.350 . S
C593 H580 0.929 . S
C593 C585 1.433 . S
C593 N595 1.384 . S
N594 C590 1.427 . S
N594 C591 1.384 . S
N595 C587 1.427 . S
N595 C593 1.384 . S
H596 C602 0.930 . S
H597 C606 0.930 . S
H598 C611 0.929 . S
H599 C609 0.929 . S
H600 C604 0.929 . S
H601 C610 0.929 . S
C602 H596 0.930 . S
C602 C603 1.367 . S
C602 C610 1.378 . S
C603 C602 1.367 . S
C603 C611 1.433 . S
C604 H600 0.929 . S
C604 C606 1.378 . S
C604 C608 1.350 . S
C605 C608 1.463 . S
C605 C610 1.350 . S
C605 N613 1.427 . S
C606 H597 0.930 . S
C606 C604 1.378 . S
C606 C607 1.367 . S
C607 C606 1.367 . S
C607 C609 1.433 . S
C608 C604 1.350 . S
C608 C605 1.463 . S
C608 N612 1.427 . S
C609 H599 0.929 . S
C609 C607 1.433 . S
C609 N612 1.384 . S
C610 H601 0.929 . S
C610 C602 1.378 . S
C610 C605 1.350 . S
C611 H598 0.929 . S
C611 C603 1.433 . S
C611 N613 1.384 . S
N612 C608 1.427 . S
N612 C609 1.384 . S
N613 C605 1.427 . S
N613 C611 1.384 . S
H614 C620 0.930 . S
H615 C624 0.930 . S
H616 C629 0.929 . S
H617 C627 0.929 . S
H618 C622 0.929 . S
H619 C628 0.929 . S
C620 H614 0.930 . S
C620 C621 1.367 . S
C620 C628 1.378 . S
C621 C620 1.367 . S
C621 C629 1.433 . S
C622 H618 0.929 . S
C622 C624 1.378 . S
C622 C626 1.350 . S
C623 C626 1.463 . S
C623 C628 1.350 . S
C623 N631 1.427 . S
C624 H615 0.930 . S
C624 C622 1.378 . S
C624 C625 1.367 . S
C625 C624 1.367 . S
C625 C627 1.433 . S
C626 C622 1.350 . S
C626 C623 1.463 . S
C626 N630 1.427 . S
C627 H617 0.929 . S
C627 C625 1.433 . S
C627 N630 1.384 . S
C628 H619 0.929 . S
C628 C620 1.378 . S
C628 C623 1.350 . S
C629 H616 0.929 . S
C629 C621 1.433 . S
C629 N631 1.384 . S
N630 C626 1.427 . S
N630 C627 1.384 . S
N631 C623 1.427 . S
N631 C629 1.384 . S
H632 C638 0.930 . S
H633 C642 0.930 . S
H634 C647 0.929 . S
H635 C645 0.929 . S
H636 C640 0.929 . S
H637 C646 0.929 . S
C638 H632 0.930 . S
C638 C639 1.367 . S
C638 C646 1.378 . S
C639 C638 1.367 . S
C639 C647 1.433 . S
C640 H636 0.929 . S
C640 C642 1.378 . S
C640 C644 1.350 . S
C641 C644 1.463 . S
C641 C646 1.350 . S
C641 N649 1.427 . S
C642 H633 0.930 . S
C642 C640 1.378 . S
C642 C643 1.367 . S
C643 C642 1.367 . S
C643 C645 1.433 . S
C644 C640 1.350 . S
C644 C641 1.463 . S
C644 N648 1.427 . S
C645 H635 0.929 . S
C645 C643 1.433 . S
C645 N648 1.384 . S
C646 H637 0.929 . S
C646 C638 1.378 . S
C646 C641 1.350 . S
C647 H634 0.929 . S
C647 C639 1.433 . S
C647 N649 1.384 . S
N648 C644 1.427 . S
N648 C645 1.384 . S
N649 C641 1.427 . S
N649 C647 1.384 . S
H650 C656 0.930 . S
H651 C660 0.930 . S
H652 C665 0.929 . S
H653 C663 0.929 . S
H654 C658 0.929 . S
H655 C664 0.929 . S
C656 H650 0.930 . S
C656 C657 1.367 . S
C656 C664 1.378 . S
C657 C656 1.367 . S
C657 C665 1.433 . S
C658 H654 0.929 . S
C658 C660 1.378 . S
C658 C662 1.350 . S
C659 C662 1.463 . S
C659 C664 1.350 . S
C659 N667 1.427 . S
C660 H651 0.930 . S
C660 C658 1.378 . S
C660 C661 1.367 . S
C661 C660 1.367 . S
C661 C663 1.433 . S
C662 C658 1.350 . S
C662 C659 1.463 . S
C662 N666 1.427 . S
C663 H653 0.929 . S
C663 C661 1.433 . S
C663 N666 1.384 . S
C664 H655 0.929 . S
C664 C656 1.378 . S
C664 C659 1.350 . S
C665 H652 0.929 . S
C665 C657 1.433 . S
C665 N667 1.384 . S
N666 C662 1.427 . S
N666 C663 1.384 . S
N667 C659 1.427 . S
N667 C665 1.384 . S
H668 C674 0.930 . S
H669 C678 0.930 . S
H670 C683 0.929 . S
H671 C681 0.929 . S
H672 C676 0.929 . S
H673 C682 0.929 . S
C674 H668 0.930 . S
C674 C675 1.367 . S
C674 C682 1.378 . S
C675 C674 1.367 . S
C675 C683 1.433 . S
C676 H672 0.929 . S
C676 C678 1.378 . S
C676 C680 1.350 . S
C677 C680 1.463 . S
C677 C682 1.350 . S
C677 N685 1.427 . S
C678 H669 0.930 . S
C678 C676 1.378 . S
C678 C679 1.367 . S
C679 C678 1.367 . S
C679 C681 1.433 . S
C680 C676 1.350 . S
C680 C677 1.463 . S
C680 N684 1.427 . S
C681 H671 0.929 . S
C681 C679 1.433 . S
C681 N684 1.384 . S
C682 H673 0.929 . S
C682 C674 1.378 . S
C682 C677 1.350 . S
C683 H670 0.929 . S
C683 C675 1.433 . S
C683 N685 1.384 . S
N684 C680 1.427 . S
N684 C681 1.384 . S
N685 C677 1.427 . S
N685 C683 1.384 . S
H686 C692 0.930 . S
H687 C696 0.930 . S
H688 C701 0.929 . S
H689 C699 0.929 . S
H690 C694 0.929 . S
H691 C700 0.929 . S
C692 H686 0.930 . S
C692 C693 1.367 . S
C692 C700 1.378 . S
C693 C692 1.367 . S
C693 C701 1.433 . S
C694 H690 0.929 . S
C694 C696 1.378 . S
C694 C698 1.350 . S
C695 C698 1.463 . S
C695 C700 1.350 . S
C695 N703 1.427 . S
C696 H687 0.930 . S
C696 C694 1.378 . S
C696 C697 1.367 . S
C697 C696 1.367 . S
C697 C699 1.433 . S
C698 C694 1.350 . S
C698 C695 1.463 . S
C698 N702 1.427 . S
C699 H689 0.929 . S
C699 C697 1.433 . S
C699 N702 1.384 . S
C700 H691 0.929 . S
C700 C692 1.378 . S
C700 C695 1.350 . S
C701 H688 0.929 . S
C701 C693 1.433 . S
C701 N703 1.384 . S
N702 C698 1.427 . S
N702 C699 1.384 . S
N703 C695 1.427 . S
N703 C701 1.384 . S
H704 C710 0.930 . S
H705 C714 0.930 . S
H706 C719 0.929 . S
H707 C717 0.929 . S
H708 C712 0.929 . S
H709 C718 0.929 . S
C710 H704 0.930 . S
C710 C711 1.367 . S
C710 C718 1.378 . S
C711 C710 1.367 . S
C711 C719 1.433 . S
C712 H708 0.929 . S
C712 C714 1.378 . S
C712 C716 1.350 . S
C713 C716 1.463 . S
C713 C718 1.350 . S
C713 N721 1.427 . S
C714 H705 0.930 . S
C714 C712 1.378 . S
C714 C715 1.367 . S
C715 C714 1.367 . S
C715 C717 1.433 . S
C716 C712 1.350 . S
C716 C713 1.463 . S
C716 N720 1.427 . S
C717 H707 0.929 . S
C717 C715 1.433 . S
C717 N720 1.384 . S
C718 H709 0.929 . S
C718 C710 1.378 . S
C718 C713 1.350 . S
C719 H706 0.929 . S
C719 C711 1.433 . S
C719 N721 1.384 . S
N720 C716 1.427 . S
N720 C717 1.384 . S
N721 C713 1.427 . S
N721 C719 1.384 . S
H722 C728 0.930 . S
H723 C732 0.930 . S
H724 C737 0.929 . S
H725 C735 0.929 . S
H726 C730 0.929 . S
H727 C736 0.929 . S
C728 H722 0.930 . S
C728 C729 1.367 . S
C728 C736 1.378 . S
C729 C728 1.367 . S
C729 C737 1.433 . S
C730 H726 0.929 . S
C730 C732 1.378 1_655 S
C730 C734 1.350 . S
C731 C734 1.463 . S
C731 C736 1.350 . S
C731 N739 1.427 . S
C732 H723 0.930 . S
C732 C730 1.378 1_455 S
C732 C733 1.367 . S
C733 C732 1.367 . S
C733 C735 1.433 . S
C734 C730 1.350 . S
C734 C731 1.463 . S
C734 N738 1.427 . S
C735 H725 0.929 . S
C735 C733 1.433 . S
C735 N738 1.384 1_455 S
C736 H727 0.929 . S
C736 C728 1.378 . S
C736 C731 1.350 . S
C737 H724 0.929 . S
C737 C729 1.433 . S
C737 N739 1.384 . S
N738 C734 1.427 . S
N738 C735 1.384 1_655 S
N739 C731 1.427 . S
N739 C737 1.384 . S
H740 C746 0.930 . S
H741 C750 0.930 . S
H742 C755 0.929 . S
H743 C753 0.929 . S
H744 C748 0.929 . S
H745 C754 0.929 . S
C746 H740 0.930 . S
C746 C747 1.367 . S
C746 C754 1.378 . S
C747 C746 1.367 . S
C747 C755 1.433 . S
C748 H744 0.929 . S
C748 C750 1.378 . S
C748 C752 1.350 . S
C749 C752 1.463 . S
C749 C754 1.350 . S
C749 N757 1.427 . S
C750 H741 0.930 . S
C750 C748 1.378 . S
C750 C751 1.367 . S
C751 C750 1.367 . S
C751 C753 1.433 . S
C752 C748 1.350 . S
C752 C749 1.463 . S
C752 N756 1.427 . S
C753 H743 0.929 . S
C753 C751 1.433 . S
C753 N756 1.384 . S
C754 H745 0.929 . S
C754 C746 1.378 . S
C754 C749 1.350 . S
C755 H742 0.929 . S
C755 C747 1.433 . S
C755 N757 1.384 . S
N756 C752 1.427 . S
N756 C753 1.384 . S
N757 C749 1.427 . S
N757 C755 1.384 . S
H758 C764 0.930 . S
H759 C768 0.930 . S
H760 C773 0.929 . S
H761 C771 0.929 . S
H762 C766 0.929 . S
H763 C772 0.929 . S
C764 H758 0.930 . S
C764 C765 1.367 . S
C764 C772 1.378 . S
C765 C764 1.367 . S
C765 C773 1.433 . S
C766 H762 0.929 . S
C766 C768 1.378 . S
C766 C770 1.350 . S
C767 C770 1.463 . S
C767 C772 1.350 . S
C767 N775 1.427 . S
C768 H759 0.930 . S
C768 C766 1.378 . S
C768 C769 1.367 . S
C769 C768 1.367 . S
C769 C771 1.433 . S
C770 C766 1.350 . S
C770 C767 1.463 . S
C770 N774 1.427 . S
C771 H761 0.929 . S
C771 C769 1.433 . S
C771 N774 1.384 . S
C772 H763 0.929 . S
C772 C764 1.378 . S
C772 C767 1.350 . S
C773 H760 0.929 . S
C773 C765 1.433 . S
C773 N775 1.384 . S
N774 C770 1.427 . S
N774 C771 1.384 . S
N775 C767 1.427 . S
N775 C773 1.384 . S
H776 C782 0.930 . S
H777 C786 0.930 . S
H778 C791 0.929 . S
H779 C789 0.929 . S
H780 C784 0.929 . S
H781 C790 0.929 . S
C782 H776 0.930 . S
C782 C783 1.367 . S
C782 C790 1.378 . S
C783 C782 1.367 . S
C783 C791 1.433 . S
C784 H780 0.929 . S
C784 C786 1.378 . S
C784 C788 1.350 . S
C785 C788 1.463 . S
C785 C790 1.350 . S
C785 N793 1.427 . S
C786 H777 0.930 . S
C786 C784 1.378 . S
C786 C787 1.367 . S
C787 C786 1.367 . S
C787 C789 1.433 . S
C788 C784 1.350 . S
C788 C785 1.463 . S
C788 N792 1.427 . S
C789 H779 0.929 . S
C789 C787 1.433 . S
C789 N792 1.384 . S
C790 H781 0.929 . S
C790 C782 1.378 . S
C790 C785 1.350 . S
C791 H778 0.929 . S
C791 C783 1.433 . S
C791 N793 1.384 . S
N792 C788 1.427 . S
N792 C789 1.384 . S
N793 C785 1.427 . S
N793 C791 1.384 . S
H794 C800 0.930 . S
H795 C804 0.930 . S
H796 C809 0.929 . S
H797 C807 0.929 . S
H798 C802 0.929 . S
H799 C808 0.929 . S
C800 H794 0.930 . S
C800 C801 1.367 . S
C800 C808 1.378 . S
C801 C800 1.367 . S
C801 C809 1.433 . S
C802 H798 0.929 . S
C802 C804 1.378 . S
C802 C806 1.350 . S
C803 C806 1.463 . S
C803 C808 1.350 . S
C803 N811 1.427 . S
C804 H795 0.930 . S
C804 C802 1.378 . S
C804 C805 1.367 . S
C805 C804 1.367 . S
C805 C807 1.433 . S
C806 C802 1.350 . S
C806 C803 1.463 . S
C806 N810 1.427 . S
C807 H797 0.929 . S
C807 C805 1.433 . S
C807 N810 1.384 . S
C808 H799 0.929 . S
C808 C800 1.378 . S
C808 C803 1.350 . S
C809 H796 0.929 . S
C809 C801 1.433 . S
C809 N811 1.384 . S
N810 C806 1.427 . S
N810 C807 1.384 . S
N811 C803 1.427 . S
N811 C809 1.384 . S
H812 C818 0.930 . S
H813 C822 0.930 . S
H814 C827 0.929 . S
H815 C825 0.929 . S
H816 C820 0.929 . S
H817 C826 0.929 . S
C818 H812 0.930 . S
C818 C819 1.367 . S
C818 C826 1.378 . S
C819 C818 1.367 . S
C819 C827 1.433 . S
C820 H816 0.929 . S
C820 C822 1.378 . S
C820 C824 1.350 . S
C821 C824 1.463 . S
C821 C826 1.350 . S
C821 N829 1.427 . S
C822 H813 0.930 . S
C822 C820 1.378 . S
C822 C823 1.367 . S
C823 C822 1.367 . S
C823 C825 1.433 . S
C824 C820 1.350 . S
C824 C821 1.463 . S
C824 N828 1.427 . S
C825 H815 0.929 . S
C825 C823 1.433 . S
C825 N828 1.384 . S
C826 H817 0.929 . S
C826 C818 1.378 . S
C826 C821 1.350 . S
C827 H814 0.929 . S
C827 C819 1.433 . S
C827 N829 1.384 . S
N828 C824 1.427 . S
N828 C825 1.384 . S
N829 C821 1.427 . S
N829 C827 1.384 . S
H830 C836 0.930 . S
H831 C840 0.930 . S
H832 C845 0.929 . S
H833 C843 0.929 . S
H834 C838 0.929 . S
H835 C844 0.929 . S
C836 H830 0.930 . S
C836 C837 1.367 . S
C836 C844 1.378 1_455 S
C837 C836 1.367 . S
C837 C845 1.433 . S
C838 H834 0.929 . S
C838 C840 1.378 . S
C838 C842 1.350 . S
C839 C842 1.463 . S
C839 C844 1.350 . S
C839 N847 1.427 . S
C840 H831 0.930 . S
C840 C838 1.378 . S
C840 C841 1.367 . S
C841 C840 1.367 . S
C841 C843 1.433 . S
C842 C838 1.350 . S
C842 C839 1.463 . S
C842 N846 1.427 . S
C843 H833 0.929 . S
C843 C841 1.433 . S
C843 N846 1.384 . S
C844 H835 0.929 . S
C844 C836 1.378 1_655 S
C844 C839 1.350 . S
C845 H832 0.929 . S
C845 C837 1.433 . S
C845 N847 1.384 1_455 S
N846 C842 1.427 . S
N846 C843 1.384 . S
N847 C839 1.427 . S
N847 C845 1.384 1_655 S
H848 C854 0.930 . S
H849 C858 0.930 . S
H850 C863 0.929 . S
H851 C861 0.929 . S
H852 C856 0.929 . S
H853 C862 0.929 . S
C854 H848 0.930 . S
C854 C855 1.367 . S
C854 C862 1.378 . S
C855 C854 1.367 . S
C855 C863 1.433 . S
C856 H852 0.929 . S
C856 C858 1.378 . S
C856 C860 1.350 . S
C857 C860 1.463 . S
C857 C862 1.350 . S
C857 N865 1.427 . S
C858 H849 0.930 . S
C858 C856 1.378 . S
C858 C859 1.367 . S
C859 C858 1.367 . S
C859 C861 1.433 . S
C860 C856 1.350 . S
C860 C857 1.463 . S
C860 N864 1.427 . S
C861 H851 0.929 . S
C861 C859 1.433 . S
C861 N864 1.384 . S
C862 H853 0.929 . S
C862 C854 1.378 . S
C862 C857 1.350 . S
C863 H850 0.929 . S
C863 C855 1.433 . S
C863 N865 1.384 . S
N864 C860 1.427 . S
N864 C861 1.384 . S
N865 C857 1.427 . S
N865 C863 1.384 . S
H866 C872 0.930 . S
H867 C876 0.930 . S
H868 C881 0.929 . S
H869 C879 0.929 . S
H870 C874 0.929 . S
H871 C880 0.929 . S
C872 H866 0.930 . S
C872 C873 1.367 . S
C872 C880 1.378 1_655 S
C873 C872 1.367 . S
C873 C881 1.433 . S
C874 H870 0.929 . S
C874 C876 1.378 . S
C874 C878 1.350 . S
C875 C878 1.463 . S
C875 C880 1.350 . S
C875 N883 1.427 . S
C876 H867 0.930 . S
C876 C874 1.378 . S
C876 C877 1.367 . S
C877 C876 1.367 . S
C877 C879 1.433 . S
C878 C874 1.350 . S
C878 C875 1.463 . S
C878 N882 1.427 . S
C879 H869 0.929 . S
C879 C877 1.433 . S
C879 N882 1.384 . S
C880 H871 0.929 . S
C880 C872 1.378 1_455 S
C880 C875 1.350 . S
C881 H868 0.929 . S
C881 C873 1.433 . S
C881 N883 1.384 1_655 S
N882 C878 1.427 . S
N882 C879 1.384 . S
N883 C875 1.427 . S
N883 C881 1.384 1_455 S
H884 C890 0.930 . S
H885 C894 0.930 . S
H886 C899 0.929 . S
H887 C897 0.929 . S
H888 C892 0.929 . S
H889 C898 0.929 . S
C890 H884 0.930 . S
C890 C891 1.367 . S
C890 C898 1.378 . S
C891 C890 1.367 . S
C891 C899 1.433 . S
C892 H888 0.929 . S
C892 C894 1.378 . S
C892 C896 1.350 . S
C893 C896 1.463 . S
C893 C898 1.350 . S
C893 N901 1.427 . S
C894 H885 0.930 . S
C894 C892 1.378 . S
C894 C895 1.367 . S
C895 C894 1.367 . S
C895 C897 1.433 . S
C896 C892 1.350 . S
C896 C893 1.463 . S
C896 N900 1.427 . S
C897 H887 0.929 . S
C897 C895 1.433 . S
C897 N900 1.384 . S
C898 H889 0.929 . S
C898 C890 1.378 . S
C898 C893 1.350 . S
C899 H886 0.929 . S
C899 C891 1.433 . S
C899 N901 1.384 . S
N900 C896 1.427 . S
N900 C897 1.384 . S
N901 C893 1.427 . S
N901 C899 1.384 . S
H902 C908 0.930 . S
H903 C912 0.930 . S
H904 C917 0.929 . S
H905 C915 0.929 . S
H906 C910 0.929 . S
H907 C916 0.929 . S
C908 H902 0.930 . S
C908 C909 1.367 . S
C908 C916 1.378 . S
C909 C908 1.367 . S
C909 C917 1.433 . S
C910 H906 0.929 . S
C910 C912 1.378 . S
C910 C914 1.350 . S
C911 C914 1.463 . S
C911 C916 1.350 . S
C911 N919 1.427 . S
C912 H903 0.930 . S
C912 C910 1.378 . S
C912 C913 1.367 . S
C913 C912 1.367 . S
C913 C915 1.433 . S
C914 C910 1.350 . S
C914 C911 1.463 . S
C914 N918 1.427 . S
C915 H905 0.929 . S
C915 C913 1.433 . S
C915 N918 1.384 . S
C916 H907 0.929 . S
C916 C908 1.378 . S
C916 C911 1.350 . S
C917 H904 0.929 . S
C917 C909 1.433 . S
C917 N919 1.384 . S
N918 C914 1.427 . S
N918 C915 1.384 . S
N919 C911 1.427 . S
N919 C917 1.384 . S
H920 C926 0.930 . S
H921 C930 0.930 . S
H922 C935 0.929 . S
H923 C933 0.929 . S
H924 C928 0.929 . S
H925 C934 0.929 . S
C926 H920 0.930 . S
C926 C927 1.367 . S
C926 C934 1.378 . S
C927 C926 1.367 . S
C927 C935 1.433 . S
C928 H924 0.929 . S
C928 C930 1.378 . S
C928 C932 1.350 . S
C929 C932 1.463 . S
C929 C934 1.350 . S
C929 N937 1.427 . S
C930 H921 0.930 . S
C930 C928 1.378 . S
C930 C931 1.367 . S
C931 C930 1.367 . S
C931 C933 1.433 . S
C932 C928 1.350 . S
C932 C929 1.463 . S
C932 N936 1.427 . S
C933 H923 0.929 . S
C933 C931 1.433 . S
C933 N936 1.384 . S
C934 H925 0.929 . S
C934 C926 1.378 . S
C934 C929 1.350 . S
C935 H922 0.929 . S
C935 C927 1.433 . S
C935 N937 1.384 . S
N936 C932 1.427 . S
N936 C933 1.384 . S
N937 C929 1.427 . S
N937 C935 1.384 . S
H938 C944 0.930 . S
H939 C948 0.930 . S
H940 C953 0.929 . S
H941 C951 0.929 . S
H942 C946 0.929 . S
H943 C952 0.929 . S
C944 H938 0.930 . S
C944 C945 1.367 . S
C944 C952 1.378 . S
C945 C944 1.367 . S
C945 C953 1.433 . S
C946 H942 0.929 . S
C946 C948 1.378 . S
C946 C950 1.350 . S
C947 C950 1.463 . S
C947 C952 1.350 . S
C947 N955 1.427 . S
C948 H939 0.930 . S
C948 C946 1.378 . S
C948 C949 1.367 . S
C949 C948 1.367 . S
C949 C951 1.433 . S
C950 C946 1.350 . S
C950 C947 1.463 . S
C950 N954 1.427 . S
C951 H941 0.929 . S
C951 C949 1.433 . S
C951 N954 1.384 . S
C952 H943 0.929 . S
C952 C944 1.378 . S
C952 C947 1.350 . S
C953 H940 0.929 . S
C953 C945 1.433 . S
C953 N955 1.384 . S
N954 C950 1.427 . S
N954 C951 1.384 . S
N955 C947 1.427 . S
N955 C953 1.384 . S
H956 C962 0.930 . S
H957 C966 0.930 . S
H958 C971 0.929 . S
H959 C969 0.929 . S
H960 C964 0.929 . S
H961 C970 0.929 . S
C962 H956 0.930 . S
C962 C963 1.367 . S
C962 C970 1.378 . S
C963 C962 1.367 . S
C963 C971 1.433 . S
C964 H960 0.929 . S
C964 C966 1.378 . S
C964 C968 1.350 . S
C965 C968 1.463 . S
C965 C970 1.350 . S
C965 N973 1.427 . S
C966 H957 0.930 . S
C966 C964 1.378 . S
C966 C967 1.367 . S
C967 C966 1.367 . S
C967 C969 1.433 . S
C968 C964 1.350 . S
C968 C965 1.463 . S
C968 N972 1.427 . S
C969 H959 0.929 . S
C969 C967 1.433 . S
C969 N972 1.384 . S
C970 H961 0.929 . S
C970 C962 1.378 . S
C970 C965 1.350 . S
C971 H958 0.929 . S
C971 C963 1.433 . S
C971 N973 1.384 . S
N972 C968 1.427 . S
N972 C969 1.384 . S
N973 C965 1.427 . S
N973 C971 1.384 . S
H974 C980 0.930 . S
H975 C984 0.930 . S
H976 C989 0.929 . S
H977 C987 0.929 . S
H978 C982 0.929 . S
H979 C988 0.929 . S
C980 H974 0.930 . S
C980 C981 1.367 . S
C980 C988 1.378 . S
C981 C980 1.367 . S
C981 C989 1.433 . S
C982 H978 0.929 . S
C982 C984 1.378 1_455 S
C982 C986 1.350 . S
C983 C986 1.463 . S
C983 C988 1.350 . S
C983 N991 1.427 . S
C984 H975 0.930 . S
C984 C982 1.378 1_655 S
C984 C985 1.367 . S
C985 C984 1.367 . S
C985 C987 1.433 . S
C986 C982 1.350 . S
C986 C983 1.463 . S
C986 N990 1.427 . S
C987 H977 0.929 . S
C987 C985 1.433 . S
C987 N990 1.384 1_655 S
C988 H979 0.929 . S
C988 C980 1.378 . S
C988 C983 1.350 . S
C989 H976 0.929 . S
C989 C981 1.433 . S
C989 N991 1.384 . S
N990 C986 1.427 . S
N990 C987 1.384 1_455 S
N991 C983 1.427 . S
N991 C989 1.384 . S
H992 C998 0.930 . S
H993 C1002 0.930 . S
H994 C1007 0.929 . S
H995 C1005 0.929 . S
H996 C1000 0.929 . S
H997 C1006 0.929 . S
C998 H992 0.930 . S
C998 C999 1.367 . S
C998 C1006 1.378 . S
C999 C998 1.367 . S
C999 C1007 1.433 . S
C1000 H996 0.929 . S
C1000 C1002 1.378 . S
C1000 C1004 1.350 . S
C1001 C1004 1.463 . S
C1001 C1006 1.350 . S
C1001 N1009 1.427 . S
C1002 H993 0.930 . S
C1002 C1000 1.378 . S
C1002 C1003 1.367 . S
C1003 C1002 1.367 . S
C1003 C1005 1.433 . S
C1004 C1000 1.350 . S
C1004 C1001 1.463 . S
C1004 N1008 1.427 . S
C1005 H995 0.929 . S
C1005 C1003 1.433 . S
C1005 N1008 1.384 . S
C1006 H997 0.929 . S
C1006 C998 1.378 . S
C1006 C1001 1.350 . S
C1007 H994 0.929 . S
C1007 C999 1.433 . S
C1007 N1009 1.384 . S
N1008 C1004 1.427 . S
N1008 C1005 1.384 . S
N1009 C1001 1.427 . S
N1009 C1007 1.384 . S
H1010 C1016 0.930 . S
H1011 C1020 0.930 . S
H1012 C1025 0.929 . S
H1013 C1023 0.929 . S
H1014 C1018 0.929 . S
H1015 C1024 0.929 . S
C1016 H1010 0.930 . S
C1016 C1017 1.367 . S
C1016 C1024 1.378 . S
C1017 C1016 1.367 . S
C1017 C1025 1.433 . S
C1018 H1014 0.929 . S
C1018 C1020 1.378 . S
C1018 C1022 1.350 . S
C1019 C1022 1.463 . S
C1019 C1024 1.350 . S
C1019 N1027 1.427 . S
C1020 H1011 0.930 . S
C1020 C1018 1.378 . S
C1020 C1021 1.367 . S
C1021 C1020 1.367 . S
C1021 C1023 1.433 . S
C1022 C1018 1.350 . S
C1022 C1019 1.463 . S
C1022 N1026 1.427 . S
C1023 H1013 0.929 . S
C1023 C1021 1.433 . S
C1023 N1026 1.384 . S
C1024 H1015 0.929 . S
C1024 C1016 1.378 . S
C1024 C1019 1.350 . S
C1025 H1012 0.929 . S
C1025 C1017 1.433 . S
C1025 N1027 1.384 . S
N1026 C1022 1.427 . S
N1026 C1023 1.384 . S
N1027 C1019 1.427 . S
N1027 C1025 1.384 . S
H1028 C1034 0.930 . S
H1029 C1038 0.930 . S
H1030 C1043 0.929 . S
H1031 C1041 0.929 . S
H1032 C1036 0.929 . S
H1033 C1042 0.929 . S
C1034 H1028 0.930 . S
C1034 C1035 1.367 . S
C1034 C1042 1.378 . S
C1035 C1034 1.367 . S
C1035 C1043 1.433 . S
C1036 H1032 0.929 . S
C1036 C1038 1.378 . S
C1036 C1040 1.350 . S
C1037 C1040 1.463 . S
C1037 C1042 1.350 . S
C1037 N1045 1.427 . S
C1038 H1029 0.930 . S
C1038 C1036 1.378 . S
C1038 C1039 1.367 . S
C1039 C1038 1.367 . S
C1039 C1041 1.433 . S
C1040 C1036 1.350 . S
C1040 C1037 1.463 . S
C1040 N1044 1.427 . S
C1041 H1031 0.929 . S
C1041 C1039 1.433 . S
C1041 N1044 1.384 . S
C1042 H1033 0.929 . S
C1042 C1034 1.378 . S
C1042 C1037 1.350 . S
C1043 H1030 0.929 . S
C1043 C1035 1.433 . S
C1043 N1045 1.384 . S
N1044 C1040 1.427 . S
N1044 C1041 1.384 . S
N1045 C1037 1.427 . S
N1045 C1043 1.384 . S
H1046 C1052 0.930 . S
H1047 C1056 0.930 . S
H1048 C1061 0.929 . S
H1049 C1059 0.929 . S
H1050 C1054 0.929 . S
H1051 C1060 0.929 . S
C1052 H1046 0.930 . S
C1052 C1053 1.367 . S
C1052 C1060 1.378 . S
C1053 C1052 1.367 . S
C1053 C1061 1.433 . S
C1054 H1050 0.929 . S
C1054 C1056 1.378 1_455 S
C1054 C1058 1.350 . S
C1055 C1058 1.463 . S
C1055 C1060 1.350 . S
C1055 N1063 1.427 . S
C1056 H1047 0.930 . S
C1056 C1054 1.378 1_655 S
C1056 C1057 1.367 . S
C1057 C1056 1.367 . S
C1057 C1059 1.433 . S
C1058 C1054 1.350 . S
C1058 C1055 1.463 . S
C1058 N1062 1.427 . S
C1059 H1049 0.929 . S
C1059 C1057 1.433 . S
C1059 N1062 1.384 1_655 S
C1060 H1051 0.929 . S
C1060 C1052 1.378 . S
C1060 C1055 1.350 . S
C1061 H1048 0.929 . S
C1061 C1053 1.433 . S
C1061 N1063 1.384 . S
N1062 C1058 1.427 . S
N1062 C1059 1.384 1_455 S
N1063 C1055 1.427 . S
N1063 C1061 1.384 . S
H1064 C1070 0.930 . S
H1065 C1074 0.930 . S
H1066 C1079 0.929 . S
H1067 C1077 0.929 . S
H1068 C1072 0.929 . S
H1069 C1078 0.929 . S
C1070 H1064 0.930 . S
C1070 C1071 1.367 . S
C1070 C1078 1.378 . S
C1071 C1070 1.367 . S
C1071 C1079 1.433 . S
C1072 H1068 0.929 . S
C1072 C1074 1.378 . S
C1072 C1076 1.350 . S
C1073 C1076 1.463 . S
C1073 C1078 1.350 . S
C1073 N1081 1.427 . S
C1074 H1065 0.930 . S
C1074 C1072 1.378 . S
C1074 C1075 1.367 . S
C1075 C1074 1.367 . S
C1075 C1077 1.433 . S
C1076 C1072 1.350 . S
C1076 C1073 1.463 . S
C1076 N1080 1.427 . S
C1077 H1067 0.929 . S
C1077 C1075 1.433 . S
C1077 N1080 1.384 . S
C1078 H1069 0.929 . S
C1078 C1070 1.378 . S
C1078 C1073 1.350 . S
C1079 H1066 0.929 . S
C1079 C1071 1.433 . S
C1079 N1081 1.384 . S
N1080 C1076 1.427 . S
N1080 C1077 1.384 . S
N1081 C1073 1.427 . S
N1081 C1079 1.384 . S
H1082 C1088 0.930 . S
H1083 C1092 0.930 . S
H1084 C1097 0.929 . S
H1085 C1095 0.929 . S
H1086 C1090 0.929 . S
H1087 C1096 0.929 . S
C1088 H1082 0.930 . S
C1088 C1089 1.367 . S
C1088 C1096 1.378 1_655 S
C1089 C1088 1.367 . S
C1089 C1097 1.433 . S
C1090 H1086 0.929 . S
C1090 C1092 1.378 . S
C1090 C1094 1.350 . S
C1091 C1094 1.463 . S
C1091 C1096 1.350 . S
C1091 N1099 1.427 . S
C1092 H1083 0.930 . S
C1092 C1090 1.378 . S
C1092 C1093 1.367 . S
C1093 C1092 1.367 . S
C1093 C1095 1.433 . S
C1094 C1090 1.350 . S
C1094 C1091 1.463 . S
C1094 N1098 1.427 . S
C1095 H1085 0.929 . S
C1095 C1093 1.433 . S
C1095 N1098 1.384 . S
C1096 H1087 0.929 . S
C1096 C1088 1.378 1_455 S
C1096 C1091 1.350 . S
C1097 H1084 0.929 . S
C1097 C1089 1.433 . S
C1097 N1099 1.384 1_655 S
N1098 C1094 1.427 . S
N1098 C1095 1.384 . S
N1099 C1091 1.427 . S
N1099 C1097 1.384 1_455 S
H1100 C1106 0.930 . S
H1101 C1110 0.930 . S
H1102 C1115 0.929 . S
H1103 C1113 0.929 . S
H1104 C1108 0.929 . S
H1105 C1114 0.929 . S
C1106 H1100 0.930 . S
C1106 C1107 1.367 . S
C1106 C1114 1.378 . S
C1107 C1106 1.367 . S
C1107 C1115 1.433 . S
C1108 H1104 0.929 . S
C1108 C1110 1.378 . S
C1108 C1112 1.350 . S
C1109 C1112 1.463 . S
C1109 C1114 1.350 . S
C1109 N1117 1.427 . S
C1110 H1101 0.930 . S
C1110 C1108 1.378 . S
C1110 C1111 1.367 . S
C1111 C1110 1.367 . S
C1111 C1113 1.433 . S
C1112 C1108 1.350 . S
C1112 C1109 1.463 . S
C1112 N1116 1.427 . S
C1113 H1103 0.929 . S
C1113 C1111 1.433 . S
C1113 N1116 1.384 . S
C1114 H1105 0.929 . S
C1114 C1106 1.378 . S
C1114 C1109 1.350 . S
C1115 H1102 0.929 . S
C1115 C1107 1.433 . S
C1115 N1117 1.384 . S
N1116 C1112 1.427 . S
N1116 C1113 1.384 . S
N1117 C1109 1.427 . S
N1117 C1115 1.384 . S
H1118 C1124 0.930 . S
H1119 C1128 0.930 . S
H1120 C1133 0.929 . S
H1121 C1131 0.929 . S
H1122 C1126 0.929 . S
H1123 C1132 0.929 . S
C1124 H1118 0.930 . S
C1124 C1125 1.367 . S
C1124 C1132 1.378 . S
C1125 C1124 1.367 . S
C1125 C1133 1.433 . S
C1126 H1122 0.929 . S
C1126 C1128 1.378 . S
C1126 C1130 1.350 . S
C1127 C1130 1.463 . S
C1127 C1132 1.350 . S
C1127 N1135 1.427 . S
C1128 H1119 0.930 . S
C1128 C1126 1.378 . S
C1128 C1129 1.367 . S
C1129 C1128 1.367 . S
C1129 C1131 1.433 . S
C1130 C1126 1.350 . S
C1130 C1127 1.463 . S
C1130 N1134 1.427 . S
C1131 H1121 0.929 . S
C1131 C1129 1.433 . S
C1131 N1134 1.384 . S
C1132 H1123 0.929 . S
C1132 C1124 1.378 . S
C1132 C1127 1.350 . S
C1133 H1120 0.929 . S
C1133 C1125 1.433 . S
C1133 N1135 1.384 . S
N1134 C1130 1.427 . S
N1134 C1131 1.384 . S
N1135 C1127 1.427 . S
N1135 C1133 1.384 . S
H1136 C1142 0.930 . S
H1137 C1146 0.930 . S
H1138 C1151 0.929 . S
H1139 C1149 0.929 . S
H1140 C1144 0.929 . S
H1141 C1150 0.929 . S
C1142 H1136 0.930 . S
C1142 C1143 1.367 . S
C1142 C1150 1.378 . S
C1143 C1142 1.367 . S
C1143 C1151 1.433 . S
C1144 H1140 0.929 . S
C1144 C1146 1.378 . S
C1144 C1148 1.350 . S
C1145 C1148 1.463 . S
C1145 C1150 1.350 . S
C1145 N1153 1.427 . S
C1146 H1137 0.930 . S
C1146 C1144 1.378 . S
C1146 C1147 1.367 . S
C1147 C1146 1.367 . S
C1147 C1149 1.433 . S
C1148 C1144 1.350 . S
C1148 C1145 1.463 . S
C1148 N1152 1.427 . S
C1149 H1139 0.929 . S
C1149 C1147 1.433 . S
C1149 N1152 1.384 . S
C1150 H1141 0.929 . S
C1150 C1142 1.378 . S
C1150 C1145 1.350 . S
C1151 H1138 0.929 . S
C1151 C1143 1.433 . S
C1151 N1153 1.384 . S
N1152 C1148 1.427 . S
N1152 C1149 1.384 . S
N1153 C1145 1.427 . S
N1153 C1151 1.384 . S
H1154 C1160 0.930 . S
H1155 C1164 0.930 . S
H1156 C1169 0.929 . S
H1157 C1167 0.929 . S
H1158 C1162 0.929 . S
H1159 C1168 0.929 . S
C1160 H1154 0.930 . S
C1160 C1161 1.367 . S
C1160 C1168 1.378 . S
C1161 C1160 1.367 . S
C1161 C1169 1.433 . S
C1162 H1158 0.929 . S
C1162 C1164 1.378 . S
C1162 C1166 1.350 . S
C1163 C1166 1.463 . S
C1163 C1168 1.350 . S
C1163 N1171 1.427 . S
C1164 H1155 0.930 . S
C1164 C1162 1.378 . S
C1164 C1165 1.367 . S
C1165 C1164 1.367 . S
C1165 C1167 1.433 . S
C1166 C1162 1.350 . S
C1166 C1163 1.463 . S
C1166 N1170 1.427 . S
C1167 H1157 0.929 . S
C1167 C1165 1.433 . S
C1167 N1170 1.384 . S
C1168 H1159 0.929 . S
C1168 C1160 1.378 . S
C1168 C1163 1.350 . S
C1169 H1156 0.929 . S
C1169 C1161 1.433 . S
C1169 N1171 1.384 . S
N1170 C1166 1.427 . S
N1170 C1167 1.384 . S
N1171 C1163 1.427 . S
N1171 C1169 1.384 . S
H1172 C1178 0.930 . S
H1173 C1182 0.930 . S
H1174 C1187 0.929 . S
H1175 C1185 0.929 . S
H1176 C1180 0.929 . S
H1177 C1186 0.929 . S
C1178 H1172 0.930 . S
C1178 C1179 1.367 . S
C1178 C1186 1.378 . S
C1179 C1178 1.367 . S
C1179 C1187 1.433 . S
C1180 H1176 0.929 . S
C1180 C1182 1.378 . S
C1180 C1184 1.350 . S
C1181 C1184 1.463 . S
C1181 C1186 1.350 . S
C1181 N1189 1.427 . S
C1182 H1173 0.930 . S
C1182 C1180 1.378 . S
C1182 C1183 1.367 . S
C1183 C1182 1.367 . S
C1183 C1185 1.433 . S
C1184 C1180 1.350 . S
C1184 C1181 1.463 . S
C1184 N1188 1.427 . S
C1185 H1175 0.929 . S
C1185 C1183 1.433 . S
C1185 N1188 1.384 . S
C1186 H1177 0.929 . S
C1186 C1178 1.378 . S
C1186 C1181 1.350 . S
C1187 H1174 0.929 . S
C1187 C1179 1.433 . S
C1187 N1189 1.384 . S
N1188 C1184 1.427 . S
N1188 C1185 1.384 . S
N1189 C1181 1.427 . S
N1189 C1187 1.384 . S
H1190 C1196 0.930 . S
H1191 C1200 0.930 1_455 S
H1192 C1205 0.929 . S
H1193 C1203 0.929 . S
H1194 C1198 0.929 . S
H1195 C1204 0.929 . S
C1196 H1190 0.930 . S
C1196 C1197 1.367 . S
C1196 C1204 1.378 . S
C1197 C1196 1.367 . S
C1197 C1205 1.433 . S
C1198 H1194 0.929 . S
C1198 C1200 1.380 . S
C1198 C1202 1.350 . S
C1199 C1202 1.463 . S
C1199 C1204 1.350 . S
C1199 N1207 1.427 . S
C1200 H1191 0.930 1_655 S
C1200 C1198 1.380 . S
C1200 C1201 1.364 1_655 S
C1201 C1200 1.364 1_455 S
C1201 C1203 1.433 . S
C1202 C1198 1.350 . S
C1202 C1199 1.463 . S
C1202 N1206 1.434 . S
C1203 H1193 0.929 . S
C1203 C1201 1.433 . S
C1203 N1206 1.376 1_455 S
C1204 H1195 0.929 . S
C1204 C1196 1.378 . S
C1204 C1199 1.350 . S
C1205 H1192 0.929 . S
C1205 C1197 1.433 . S
C1205 N1207 1.384 . S
N1206 C1202 1.434 . S
N1206 C1203 1.376 1_655 S
N1207 C1199 1.427 . S
N1207 C1205 1.384 . S
H1208 C1214 0.930 . S
H1209 C1218 0.930 . S
H1210 C1223 0.929 . S
H1211 C1221 0.929 . S
H1212 C1216 0.929 . S
H1213 C1222 0.929 . S
C1214 H1208 0.930 . S
C1214 C1215 1.367 . S
C1214 C1222 1.378 . S
C1215 C1214 1.367 . S
C1215 C1223 1.433 . S
C1216 H1212 0.929 . S
C1216 C1218 1.378 . S
C1216 C1220 1.350 . S
C1217 C1220 1.463 . S
C1217 C1222 1.350 . S
C1217 N1225 1.427 . S
C1218 H1209 0.930 . S
C1218 C1216 1.378 . S
C1218 C1219 1.367 . S
C1219 C1218 1.367 . S
C1219 C1221 1.433 . S
C1220 C1216 1.350 . S
C1220 C1217 1.463 . S
C1220 N1224 1.427 . S
C1221 H1211 0.929 . S
C1221 C1219 1.433 . S
C1221 N1224 1.384 . S
C1222 H1213 0.929 . S
C1222 C1214 1.378 . S
C1222 C1217 1.350 . S
C1223 H1210 0.929 . S
C1223 C1215 1.433 . S
C1223 N1225 1.384 . S
N1224 C1220 1.427 . S
N1224 C1221 1.384 . S
N1225 C1217 1.427 . S
N1225 C1223 1.384 . S
H1226 C1232 0.930 . S
H1227 C1236 0.930 . S
H1228 C1241 0.929 . S
H1229 C1239 0.929 . S
H1230 C1234 0.929 . S
H1231 C1240 0.929 . S
C1232 H1226 0.930 . S
C1232 C1233 1.367 . S
C1232 C1240 1.378 1_455 S
C1233 C1232 1.367 . S
C1233 C1241 1.433 . S
C1234 H1230 0.929 . S
C1234 C1236 1.378 . S
C1234 C1238 1.350 . S
C1235 C1238 1.463 . S
C1235 C1240 1.350 . S
C1235 N1243 1.427 . S
C1236 H1227 0.930 . S
C1236 C1234 1.378 . S
C1236 C1237 1.367 . S
C1237 C1236 1.367 . S
C1237 C1239 1.433 . S
C1238 C1234 1.350 . S
C1238 C1235 1.463 . S
C1238 N1242 1.427 . S
C1239 H1229 0.929 . S
C1239 C1237 1.433 . S
C1239 N1242 1.384 . S
C1240 H1231 0.929 . S
C1240 C1232 1.378 1_655 S
C1240 C1235 1.350 . S
C1241 H1228 0.929 . S
C1241 C1233 1.433 . S
C1241 N1243 1.384 1_455 S
N1242 C1238 1.427 . S
N1242 C1239 1.384 . S
N1243 C1235 1.427 . S
N1243 C1241 1.384 1_655 S
H1244 C1250 0.930 . S
H1245 C1254 0.930 . S
H1246 C1259 0.929 . S
H1247 C1257 0.929 . S
H1248 C1252 0.929 . S
H1249 C1258 0.929 . S
C1250 H1244 0.930 . S
C1250 C1251 1.367 . S
C1250 C1258 1.378 . S
C1251 C1250 1.367 . S
C1251 C1259 1.433 . S
C1252 H1248 0.929 . S
C1252 C1254 1.378 . S
C1252 C1256 1.350 . S
C1253 C1256 1.463 . S
C1253 C1258 1.350 . S
C1253 N1261 1.427 . S
C1254 H1245 0.930 . S
C1254 C1252 1.378 . S
C1254 C1255 1.367 . S
C1255 C1254 1.367 . S
C1255 C1257 1.433 . S
C1256 C1252 1.350 . S
C1256 C1253 1.463 . S
C1256 N1260 1.427 . S
C1257 H1247 0.929 . S
C1257 C1255 1.433 . S
C1257 N1260 1.384 . S
C1258 H1249 0.929 . S
C1258 C1250 1.378 . S
C1258 C1253 1.350 . S
C1259 H1246 0.929 . S
C1259 C1251 1.433 . S
C1259 N1261 1.384 . S
N1260 C1256 1.427 . S
N1260 C1257 1.384 . S
N1261 C1253 1.427 . S
N1261 C1259 1.384 . S
H1262 C1268 0.930 . S
H1263 C1272 0.930 . S
H1264 C1277 0.929 . S
H1265 C1275 0.929 . S
H1266 C1270 0.929 . S
H1267 C1276 0.929 . S
C1268 H1262 0.930 . S
C1268 C1269 1.367 . S
C1268 C1276 1.378 . S
C1269 C1268 1.367 . S
C1269 C1277 1.433 . S
C1270 H1266 0.929 . S
C1270 C1272 1.378 . S
C1270 C1274 1.350 . S
C1271 C1274 1.463 . S
C1271 C1276 1.350 . S
C1271 N1279 1.427 . S
C1272 H1263 0.930 . S
C1272 C1270 1.378 . S
C1272 C1273 1.367 . S
C1273 C1272 1.367 . S
C1273 C1275 1.433 . S
C1274 C1270 1.350 . S
C1274 C1271 1.463 . S
C1274 N1278 1.427 . S
C1275 H1265 0.929 . S
C1275 C1273 1.433 . S
C1275 N1278 1.384 . S
C1276 H1267 0.929 . S
C1276 C1268 1.378 . S
C1276 C1271 1.350 . S
C1277 H1264 0.929 . S
C1277 C1269 1.433 . S
C1277 N1279 1.384 . S
N1278 C1274 1.427 . S
N1278 C1275 1.384 . S
N1279 C1271 1.427 . S
N1279 C1277 1.384 . S
H1280 C1286 0.930 . S
H1281 C1290 0.930 . S
H1282 C1295 0.929 . S
H1283 C1293 0.929 . S
H1284 C1288 0.929 . S
H1285 C1294 0.929 . S
C1286 H1280 0.930 . S
C1286 C1287 1.367 . S
C1286 C1294 1.378 . S
C1287 C1286 1.367 . S
C1287 C1295 1.433 . S
C1288 H1284 0.929 . S
C1288 C1290 1.378 . S
C1288 C1292 1.350 . S
C1289 C1292 1.463 . S
C1289 C1294 1.350 . S
C1289 N1297 1.427 . S
C1290 H1281 0.930 . S
C1290 C1288 1.378 . S
C1290 C1291 1.367 . S
C1291 C1290 1.367 . S
C1291 C1293 1.433 . S
C1292 C1288 1.350 . S
C1292 C1289 1.463 . S
C1292 N1296 1.427 . S
C1293 H1283 0.929 . S
C1293 C1291 1.433 . S
C1293 N1296 1.384 . S
C1294 H1285 0.929 . S
C1294 C1286 1.378 . S
C1294 C1289 1.350 . S
C1295 H1282 0.929 . S
C1295 C1287 1.433 . S
C1295 N1297 1.384 . S
N1296 C1292 1.427 . S
N1296 C1293 1.384 . S
N1297 C1289 1.427 . S
N1297 C1295 1.384 . S
H1298 C1304 0.930 . S
H1299 C1308 0.930 . S
H1300 C1313 0.929 . S
H1301 C1311 0.929 . S
H1302 C1306 0.929 . S
H1303 C1312 0.929 . S
C1304 H1298 0.930 . S
C1304 C1305 1.367 . S
C1304 C1312 1.378 . S
C1305 C1304 1.367 . S
C1305 C1313 1.433 . S
C1306 H1302 0.929 . S
C1306 C1308 1.378 . S
C1306 C1310 1.350 . S
C1307 C1310 1.463 . S
C1307 C1312 1.350 . S
C1307 N1315 1.427 . S
C1308 H1299 0.930 . S
C1308 C1306 1.378 . S
C1308 C1309 1.367 . S
C1309 C1308 1.367 . S
C1309 C1311 1.433 . S
C1310 C1306 1.350 . S
C1310 C1307 1.463 . S
C1310 N1314 1.427 . S
C1311 H1301 0.929 . S
C1311 C1309 1.433 . S
C1311 N1314 1.384 . S
C1312 H1303 0.929 . S
C1312 C1304 1.378 . S
C1312 C1307 1.350 . S
C1313 H1300 0.929 . S
C1313 C1305 1.433 . S
C1313 N1315 1.384 . S
N1314 C1310 1.427 . S
N1314 C1311 1.384 . S
N1315 C1307 1.427 . S
N1315 C1313 1.384 . S
H1316 C1322 0.930 . S
H1317 C1326 0.930 . S
H1318 C1331 0.929 . S
H1319 C1329 0.929 . S
H1320 C1324 0.929 . S
H1321 C1330 0.929 . S
C1322 H1316 0.930 . S
C1322 C1323 1.367 . S
C1322 C1330 1.378 . S
C1323 C1322 1.367 . S
C1323 C1331 1.433 . S
C1324 H1320 0.929 . S
C1324 C1326 1.378 . S
C1324 C1328 1.350 . S
C1325 C1328 1.463 . S
C1325 C1330 1.350 . S
C1325 N1333 1.427 . S
C1326 H1317 0.930 . S
C1326 C1324 1.378 . S
C1326 C1327 1.367 . S
C1327 C1326 1.367 . S
C1327 C1329 1.433 . S
C1328 C1324 1.350 . S
C1328 C1325 1.463 . S
C1328 N1332 1.427 . S
C1329 H1319 0.929 . S
C1329 C1327 1.433 . S
C1329 N1332 1.384 . S
C1330 H1321 0.929 . S
C1330 C1322 1.378 . S
C1330 C1325 1.350 . S
C1331 H1318 0.929 . S
C1331 C1323 1.433 . S
C1331 N1333 1.384 . S
N1332 C1328 1.427 . S
N1332 C1329 1.384 . S
N1333 C1325 1.427 . S
N1333 C1331 1.384 . S
H1334 C1340 0.930 . S
H1335 C1344 0.930 . S
H1336 C1349 0.929 . S
H1337 C1347 0.929 . S
H1338 C1342 0.929 . S
H1339 C1348 0.929 . S
C1340 H1334 0.930 . S
C1340 C1341 1.367 . S
C1340 C1348 1.378 . S
C1341 C1340 1.367 . S
C1341 C1349 1.433 1_556 S
C1342 H1338 0.929 . S
C1342 C1344 1.378 . S
C1342 C1346 1.350 . S
C1343 C1346 1.463 1_556 S
C1343 C1348 1.350 . S
C1343 N1351 1.427 1_556 S
C1344 H1335 0.930 . S
C1344 C1342 1.378 . S
C1344 C1345 1.367 . S
C1345 C1344 1.367 . S
C1345 C1347 1.433 1_554 S
C1346 C1342 1.350 . S
C1346 C1343 1.463 1_554 S
C1346 N1350 1.427 1_554 S
C1347 H1337 0.929 . S
C1347 C1345 1.433 1_556 S
C1347 N1350 1.384 . S
C1348 H1339 0.929 . S
C1348 C1340 1.378 . S
C1348 C1343 1.350 . S
C1349 H1336 0.929 . S
C1349 C1341 1.433 1_554 S
C1349 N1351 1.384 . S
N1350 C1346 1.427 1_556 S
N1350 C1347 1.384 . S
N1351 C1343 1.427 1_554 S
N1351 C1349 1.384 . S
H1352 C1358 0.930 . S
H1353 C1362 0.930 . S
H1354 C1367 0.929 . S
H1355 C1365 0.929 . S
H1356 C1360 0.929 . S
H1357 C1366 0.929 . S
C1358 H1352 0.930 . S
C1358 C1359 1.367 . S
C1358 C1366 1.378 . S
C1359 C1358 1.367 . S
C1359 C1367 1.433 . S
C1360 H1356 0.929 . S
C1360 C1362 1.378 . S
C1360 C1364 1.350 . S
C1361 C1364 1.463 . S
C1361 C1366 1.350 . S
C1361 N1369 1.427 . S
C1362 H1353 0.930 . S
C1362 C1360 1.378 . S
C1362 C1363 1.367 . S
C1363 C1362 1.367 . S
C1363 C1365 1.433 . S
C1364 C1360 1.350 . S
C1364 C1361 1.463 . S
C1364 N1368 1.427 . S
C1365 H1355 0.929 . S
C1365 C1363 1.433 . S
C1365 N1368 1.384 . S
C1366 H1357 0.929 . S
C1366 C1358 1.378 . S
C1366 C1361 1.350 . S
C1367 H1354 0.929 . S
C1367 C1359 1.433 . S
C1367 N1369 1.384 . S
N1368 C1364 1.427 . S
N1368 C1365 1.384 . S
N1369 C1361 1.427 . S
N1369 C1367 1.384 . S
H1370 C1376 0.930 . S
H1371 C1380 0.930 . S
H1372 C1385 0.929 . S
H1373 C1383 0.929 . S
H1374 C1378 0.929 . S
H1375 C1384 0.929 . S
C1376 H1370 0.930 . S
C1376 C1377 1.367 . S
C1376 C1384 1.378 . S
C1377 C1376 1.367 . S
C1377 C1385 1.433 . S
C1378 H1374 0.929 . S
C1378 C1380 1.378 . S
C1378 C1382 1.350 . S
C1379 C1382 1.463 . S
C1379 C1384 1.350 . S
C1379 N1387 1.427 . S
C1380 H1371 0.930 . S
C1380 C1378 1.378 . S
C1380 C1381 1.367 . S
C1381 C1380 1.367 . S
C1381 C1383 1.433 . S
C1382 C1378 1.350 . S
C1382 C1379 1.463 . S
C1382 N1386 1.427 . S
C1383 H1373 0.929 . S
C1383 C1381 1.433 . S
C1383 N1386 1.384 . S
C1384 H1375 0.929 . S
C1384 C1376 1.378 . S
C1384 C1379 1.350 . S
C1385 H1372 0.929 . S
C1385 C1377 1.433 . S
C1385 N1387 1.384 . S
N1386 C1382 1.427 . S
N1386 C1383 1.384 . S
N1387 C1379 1.427 . S
N1387 C1385 1.384 . S
H1388 C1394 0.930 . S
H1389 C1398 0.930 . S
H1390 C1403 0.929 . S
H1391 C1401 0.929 . S
H1392 C1396 0.929 . S
H1393 C1402 0.929 . S
C1394 H1388 0.930 . S
C1394 C1395 1.367 . S
C1394 C1402 1.378 . S
C1395 C1394 1.367 . S
C1395 C1403 1.433 . S
C1396 H1392 0.929 . S
C1396 C1398 1.378 . S
C1396 C1400 1.350 . S
C1397 C1400 1.463 . S
C1397 C1402 1.350 . S
C1397 N1405 1.427 . S
C1398 H1389 0.930 . S
C1398 C1396 1.378 . S
C1398 C1399 1.367 . S
C1399 C1398 1.367 . S
C1399 C1401 1.433 . S
C1400 C1396 1.350 . S
C1400 C1397 1.463 . S
C1400 N1404 1.427 . S
C1401 H1391 0.929 . S
C1401 C1399 1.433 . S
C1401 N1404 1.384 . S
C1402 H1393 0.929 . S
C1402 C1394 1.378 . S
C1402 C1397 1.350 . S
C1403 H1390 0.929 . S
C1403 C1395 1.433 . S
C1403 N1405 1.384 . S
N1404 C1400 1.427 . S
N1404 C1401 1.384 . S
N1405 C1397 1.427 . S
N1405 C1403 1.384 . S
H1406 C1412 0.930 . S
H1407 C1416 0.930 . S
H1408 C1421 0.929 . S
H1409 C1419 0.929 . S
H1410 C1414 0.929 . S
H1411 C1420 0.929 . S
C1412 H1406 0.930 . S
C1412 C1413 1.367 . S
C1412 C1420 1.378 1_554 S
C1413 C1412 1.367 . S
C1413 C1421 1.433 . S
C1414 H1410 0.929 . S
C1414 C1416 1.378 1_554 S
C1414 C1418 1.350 1_554 S
C1415 C1418 1.463 1_554 S
C1415 C1420 1.350 1_554 S
C1415 N1423 1.427 . S
C1416 H1407 0.930 . S
C1416 C1414 1.378 1_556 S
C1416 C1417 1.367 . S
C1417 C1416 1.367 . S
C1417 C1419 1.433 . S
C1418 C1414 1.350 1_556 S
C1418 C1415 1.463 1_556 S
C1418 N1422 1.427 . S
C1419 H1409 0.929 . S
C1419 C1417 1.433 . S
C1419 N1422 1.384 . S
C1420 H1411 0.929 . S
C1420 C1412 1.378 1_556 S
C1420 C1415 1.350 1_556 S
C1421 H1408 0.929 . S
C1421 C1413 1.433 . S
C1421 N1423 1.384 . S
N1422 C1418 1.427 . S
N1422 C1419 1.384 . S
N1423 C1415 1.427 . S
N1423 C1421 1.384 . S
H1424 C1430 0.930 . S
H1425 C1434 0.930 . S
H1426 C1439 0.929 . S
H1427 C1437 0.929 . S
H1428 C1432 0.929 . S
H1429 C1438 0.929 . S
C1430 H1424 0.930 . S
C1430 C1431 1.367 . S
C1430 C1438 1.378 . S
C1431 C1430 1.367 . S
C1431 C1439 1.433 . S
C1432 H1428 0.929 . S
C1432 C1434 1.378 . S
C1432 C1436 1.350 . S
C1433 C1436 1.463 1_565 S
C1433 C1438 1.350 . S
C1433 N1441 1.427 . S
C1434 H1425 0.930 . S
C1434 C1432 1.378 . S
C1434 C1435 1.367 . S
C1435 C1434 1.367 . S
C1435 C1437 1.433 . S
C1436 C1432 1.350 . S
C1436 C1433 1.463 1_545 S
C1436 N1440 1.427 . S
C1437 H1427 0.929 . S
C1437 C1435 1.433 . S
C1437 N1440 1.384 . S
C1438 H1429 0.929 . S
C1438 C1430 1.378 . S
C1438 C1433 1.350 . S
C1439 H1426 0.929 . S
C1439 C1431 1.433 . S
C1439 N1441 1.384 . S
N1440 C1436 1.427 . S
N1440 C1437 1.384 . S
N1441 C1433 1.427 . S
N1441 C1439 1.384 . S
H1442 C1448 0.930 . S
H1443 C1452 0.930 . S
H1444 C1457 0.929 . S
H1445 C1455 0.929 . S
H1446 C1450 0.929 . S
H1447 C1456 0.929 . S
C1448 H1442 0.930 . S
C1448 C1449 1.367 1_556 S
C1448 C1456 1.378 . S
C1449 C1448 1.367 1_554 S
C1449 C1457 1.433 . S
C1450 H1446 0.929 . S
C1450 C1452 1.378 . S
C1450 C1454 1.350 1_554 S
C1451 C1454 1.463 1_554 S
C1451 C1456 1.350 1_554 S
C1451 N1459 1.427 . S
C1452 H1443 0.930 . S
C1452 C1450 1.378 . S
C1452 C1453 1.367 1_554 S
C1453 C1452 1.367 1_556 S
C1453 C1455 1.433 . S
C1454 C1450 1.350 1_556 S
C1454 C1451 1.463 1_556 S
C1454 N1458 1.427 . S
C1455 H1445 0.929 . S
C1455 C1453 1.433 . S
C1455 N1458 1.384 . S
C1456 H1447 0.929 . S
C1456 C1448 1.378 . S
C1456 C1451 1.350 1_556 S
C1457 H1444 0.929 . S
C1457 C1449 1.433 . S
C1457 N1459 1.384 . S
N1458 C1454 1.427 . S
N1458 C1455 1.384 . S
N1459 C1451 1.427 . S
N1459 C1457 1.384 . S
H1460 C1466 0.930 . S
H1461 C1470 0.930 . S
H1462 C1475 0.929 . S
H1463 C1473 0.929 . S
H1464 C1468 0.929 . S
H1465 C1474 0.929 . S
C1466 H1460 0.930 . S
C1466 C1467 1.367 . S
C1466 C1474 1.378 . S
C1467 C1466 1.367 . S
C1467 C1475 1.433 . S
C1468 H1464 0.929 . S
C1468 C1470 1.378 . S
C1468 C1472 1.350 . S
C1469 C1472 1.463 1_545 S
C1469 C1474 1.350 . S
C1469 N1477 1.427 . S
C1470 H1461 0.930 . S
C1470 C1468 1.378 . S
C1470 C1471 1.367 . S
C1471 C1470 1.367 . S
C1471 C1473 1.433 . S
C1472 C1468 1.350 . S
C1472 C1469 1.463 1_565 S
C1472 N1476 1.427 . S
C1473 H1463 0.929 . S
C1473 C1471 1.433 . S
C1473 N1476 1.384 . S
C1474 H1465 0.929 . S
C1474 C1466 1.378 . S
C1474 C1469 1.350 . S
C1475 H1462 0.929 . S
C1475 C1467 1.433 . S
C1475 N1477 1.384 . S
N1476 C1472 1.427 . S
N1476 C1473 1.384 . S
N1477 C1469 1.427 . S
N1477 C1475 1.384 . S
H1478 C1484 0.930 . S
H1479 C1488 0.930 . S
H1480 C1493 0.929 . S
H1481 C1491 0.929 . S
H1482 C1486 0.929 . S
H1483 C1492 0.929 . S
C1484 H1478 0.930 . S
C1484 C1485 1.367 . S
C1484 C1492 1.378 . S
C1485 C1484 1.367 . S
C1485 C1493 1.433 . S
C1486 H1482 0.929 . S
C1486 C1488 1.378 . S
C1486 C1490 1.350 . S
C1487 C1490 1.463 . S
C1487 C1492 1.350 . S
C1487 N1495 1.427 . S
C1488 H1479 0.930 . S
C1488 C1486 1.378 . S
C1488 C1489 1.367 . S
C1489 C1488 1.367 . S
C1489 C1491 1.433 . S
C1490 C1486 1.350 . S
C1490 C1487 1.463 . S
C1490 N1494 1.427 . S
C1491 H1481 0.929 . S
C1491 C1489 1.433 . S
C1491 N1494 1.384 . S
C1492 H1483 0.929 . S
C1492 C1484 1.378 . S
C1492 C1487 1.350 . S
C1493 H1480 0.929 . S
C1493 C1485 1.433 . S
C1493 N1495 1.384 . S
N1494 C1490 1.427 . S
N1494 C1491 1.384 . S
N1495 C1487 1.427 . S
N1495 C1493 1.384 . S
H1496 C1502 0.930 . S
H1497 C1506 0.930 . S
H1498 C1511 0.929 . S
H1499 C1509 0.929 . S
H1500 C1504 0.929 . S
H1501 C1510 0.929 . S
C1502 H1496 0.930 . S
C1502 C1503 1.367 . S
C1502 C1510 1.378 . S
C1503 C1502 1.367 . S
C1503 C1511 1.433 . S
C1504 H1500 0.929 . S
C1504 C1506 1.378 . S
C1504 C1508 1.350 . S
C1505 C1508 1.463 1_545 S
C1505 C1510 1.350 . S
C1505 N1513 1.427 . S
C1506 H1497 0.930 . S
C1506 C1504 1.378 . S
C1506 C1507 1.367 . S
C1507 C1506 1.367 . S
C1507 C1509 1.433 . S
C1508 C1504 1.350 . S
C1508 C1505 1.463 1_565 S
C1508 N1512 1.427 . S
C1509 H1499 0.929 . S
C1509 C1507 1.433 . S
C1509 N1512 1.384 . S
C1510 H1501 0.929 . S
C1510 C1502 1.378 . S
C1510 C1505 1.350 . S
C1511 H1498 0.929 . S
C1511 C1503 1.433 . S
C1511 N1513 1.384 . S
N1512 C1508 1.427 . S
N1512 C1509 1.384 . S
N1513 C1505 1.427 . S
N1513 C1511 1.384 . S
H1514 C1520 0.930 . S
H1515 C1524 0.930 . S
H1516 C1529 0.929 . S
H1517 C1527 0.929 . S
H1518 C1522 0.929 . S
H1519 C1528 0.929 . S
C1520 H1514 0.930 . S
C1520 C1521 1.367 1_556 S
C1520 C1528 1.378 . S
C1521 C1520 1.367 1_554 S
C1521 C1529 1.433 . S
C1522 H1518 0.929 . S
C1522 C1524 1.378 . S
C1522 C1526 1.350 1_554 S
C1523 C1526 1.463 1_554 S
C1523 C1528 1.350 1_554 S
C1523 N1531 1.427 . S
C1524 H1515 0.930 . S
C1524 C1522 1.378 . S
C1524 C1525 1.367 1_554 S
C1525 C1524 1.367 1_556 S
C1525 C1527 1.433 . S
C1526 C1522 1.350 1_556 S
C1526 C1523 1.463 1_556 S
C1526 N1530 1.427 . S
C1527 H1517 0.929 . S
C1527 C1525 1.433 . S
C1527 N1530 1.384 . S
C1528 H1519 0.929 . S
C1528 C1520 1.378 . S
C1528 C1523 1.350 1_556 S
C1529 H1516 0.929 . S
C1529 C1521 1.433 . S
C1529 N1531 1.384 . S
N1530 C1526 1.427 . S
N1530 C1527 1.384 . S
N1531 C1523 1.427 . S
N1531 C1529 1.384 . S
H1532 C1538 0.930 . S
H1533 C1542 0.930 . S
H1534 C1547 0.929 . S
H1535 C1545 0.929 . S
H1536 C1540 0.929 . S
H1537 C1546 0.929 . S
C1538 H1532 0.930 . S
C1538 C1539 1.367 . S
C1538 C1546 1.378 . S
C1539 C1538 1.367 . S
C1539 C1547 1.433 . S
C1540 H1536 0.929 . S
C1540 C1542 1.378 . S
C1540 C1544 1.350 . S
C1541 C1544 1.463 1_545 S
C1541 C1546 1.350 . S
C1541 N1549 1.427 . S
C1542 H1533 0.930 . S
C1542 C1540 1.378 . S
C1542 C1543 1.367 . S
C1543 C1542 1.367 . S
C1543 C1545 1.433 . S
C1544 C1540 1.350 . S
C1544 C1541 1.463 1_565 S
C1544 N1548 1.427 . S
C1545 H1535 0.929 . S
C1545 C1543 1.433 . S
C1545 N1548 1.384 . S
C1546 H1537 0.929 . S
C1546 C1538 1.378 . S
C1546 C1541 1.350 . S
C1547 H1534 0.929 . S
C1547 C1539 1.433 . S
C1547 N1549 1.384 . S
N1548 C1544 1.427 . S
N1548 C1545 1.384 . S
N1549 C1541 1.427 . S
N1549 C1547 1.384 . S
H1550 C1556 0.930 . S
H1551 C1560 0.930 . S
H1552 C1565 0.929 . S
H1553 C1563 0.929 . S
H1554 C1558 0.929 . S
H1555 C1564 0.929 . S
C1556 H1550 0.930 . S
C1556 C1557 1.367 . S
C1556 C1564 1.378 . S
C1557 C1556 1.367 . S
C1557 C1565 1.433 . S
C1558 H1554 0.929 . S
C1558 C1560 1.378 . S
C1558 C1562 1.350 . S
C1559 C1562 1.463 . S
C1559 C1564 1.350 . S
C1559 N1567 1.427 . S
C1560 H1551 0.930 . S
C1560 C1558 1.378 . S
C1560 C1561 1.367 . S
C1561 C1560 1.367 . S
C1561 C1563 1.433 . S
C1562 C1558 1.350 . S
C1562 C1559 1.463 . S
C1562 N1566 1.427 . S
C1563 H1553 0.929 . S
C1563 C1561 1.433 . S
C1563 N1566 1.384 . S
C1564 H1555 0.929 . S
C1564 C1556 1.378 . S
C1564 C1559 1.350 . S
C1565 H1552 0.929 . S
C1565 C1557 1.433 . S
C1565 N1567 1.384 . S
N1566 C1562 1.427 . S
N1566 C1563 1.384 . S
N1567 C1559 1.427 . S
N1567 C1565 1.384 . S
C423 C4 1.613 . S
C427 C283 1.614 . S
C441 C290 1.614 . S
C445 C23 1.615 . S
C459 C30 1.614 . S
C463 C309 1.615 . S
C477 C270 1.614 . S
C481 C43 1.615 . S
C495 C56 1.614 . S
C499 C257 1.615 . S
C513 C75 1.615 . S
C517 C212 1.614 . S
C531 C231 1.615 . S
C535 C82 1.614 . S
C549 C101 1.615 . S
C553 C238 1.614 . S
C567 C114 1.614 . S
C571 C387 1.615 . S
C585 C127 1.615 . S
C589 C400 1.614 . S
C603 C407 1.615 . S
C607 C134 1.614 . S
C621 C374 1.614 . S
C625 C153 1.613 . S
C639 C160 1.614 . S
C643 C361 1.615 . S
C657 C322 1.613 . S
C661 C179 1.614 . S
C675 C192 1.615 . S
C679 C335 1.614 . S
C693 C348 1.615 . S
C697 C205 1.614 . S
C711 C3 1.386 . S
C715 C120 1.403 . S
C729 C18 1.379 . S
C733 C341 1.405 . S
C747 C146 1.404 . S
C751 C29 1.380 . S
C765 C42 1.380 . S
C769 C315 1.405 . S
C783 C55 1.384 . S
C787 C198 1.403 . S
C801 C367 1.403 . S
C805 C70 1.389 . S
C819 C172 1.405 . S
C823 C81 1.384 . S
C837 C393 1.405 . S
C841 C96 1.379 . S
C855 C109 1.387 . S
C859 C16 1.404 . S
C873 C239 1.405 . S
C877 C122 1.382 . S
C891 C44 1.403 . S
C895 C133 1.389 . S
C909 C148 1.389 . S
C913 C213 1.404 . S
C927 C94 1.405 . S
C931 C159 1.379 . S
C945 C263 1.405 . S
C949 C174 1.379 . S
C963 C68 1.403 . S
C967 C187 1.385 . S
C981 C200 1.386 . S
C985 C291 1.403 . S
C999 C328 1.404 . S
C1003 C211 1.382 . S
C1017 C135 1.405 . S
C1021 C226 1.380 . S
C1035 C354 1.404 . S
C1039 C237 1.380 . S
C1053 C252 1.389 . S
C1057 C107 1.404 . S
C1071 C408 1.404 . S
C1075 C265 1.389 . S
C1089 C161 1.403 . S
C1093 C278 1.389 . S
C1107 C380 1.405 . S
C1111 C289 1.379 . S
C1125 C304 1.380 . S
C1129 C185 1.405 . S
C1143 C317 1.380 . S
C1147 C224 1.404 . S
C1161 C31 1.405 . S
C1165 C330 1.381 . S
C1179 C343 1.379 . S
C1183 C250 1.405 . S
C1197 C356 1.382 . S
C1201 C5 1.404 . S
C1215 C369 1.388 . S
C1219 C302 1.403 . S
C1233 C57 1.404 . S
C1237 C382 1.389 . S
C1251 C276 1.405 . S
C1255 C395 1.385 . S
C1269 C406 1.379 . S
C1273 C83 1.405 . S
C1287 C10 1.295 . S
C1291 C62 1.293 . S
C1305 C17 1.294 . S
C1309 C69 1.290 . S
C1323 C88 1.291 . S
C1327 C36 1.288 . S
C1341 C95 1.295 . S
C1345 C49 1.293 . S
C1359 C166 1.292 . S
C1363 C108 1.295 . S
C1377 C173 1.287 . S
C1381 C121 1.289 . S
C1395 C186 1.293 . S
C1399 C140 1.295 . S
C1413 C199 1.287 . S
C1417 C147 1.291 . S
C1431 C218 1.295 . S
C1435 C264 1.293 . S
C1449 C225 1.287 . S
C1453 C277 1.288 . S
C1467 C244 1.290 . S
C1471 C296 1.294 . S
C1485 C303 1.293 . S
C1489 C251 1.289 . S
C1503 C316 1.288 . S
C1507 C368 1.286 . S
C1521 C381 1.288 . S
C1525 C329 1.287 . S
C1539 C394 1.290 . S
C1543 C342 1.287 . S
C1557 C413 1.287 . S
C1561 C355 1.291 . S
