# Generated by pormake.
# Topology wme, (6)-cn, num edge types: 1
# Building blocks:
#     Node 0, Type 0, BuildingBlock: BETDEL_clean_sbu_0, # of connection points: 6
#     Node 1, Type 0, BuildingBlock: BETDEL_clean_sbu_0, # of connection points: 6
#     Node 2, Type 0, BuildingBlock: BETDEL_clean_sbu_0, # of connection points: 6
#     Node 3, Type 0, BuildingBlock: BETDEL_clean_sbu_0, # of connection points: 6
#     Node 4, Type 0, BuildingBlock: BETDEL_clean_sbu_0, # of connection points: 6
#     Node 5, Type 0, BuildingBlock: BETDEL_clean_sbu_0, # of connection points: 6
#     Node 6, Type 0, BuildingBlock: BETDEL_clean_sbu_0, # of connection points: 6
#     Node 7, Type 0, BuildingBlock: BETDEL_clean_sbu_0, # of connection points: 6
#     Node 8, Type 0, BuildingBlock: BETDEL_clean_sbu_0, # of connection points: 6
#     Node 9, Type 0, BuildingBlock: BETDEL_clean_sbu_0, # of connection points: 6
#     Node 10, Type 0, BuildingBlock: BETDEL_clean_sbu_0, # of connection points: 6
#     Node 11, Type 0, BuildingBlock: BETDEL_clean_sbu_0, # of connection points: 6
#     Edge 12, Type (0, 0), BuildingBlock: EZIPEK_clean_linker_0, # of connection points: 2
#     Edge 13, Type (0, 0), BuildingBlock: EZIPEK_clean_linker_0, # of connection points: 2
#     Edge 14, Type (0, 0), BuildingBlock: EZIPEK_clean_linker_0, # of connection points: 2
#     Edge 15, Type (0, 0), BuildingBlock: EZIPEK_clean_linker_0, # of connection points: 2
#     Edge 16, Type (0, 0), BuildingBlock: EZIPEK_clean_linker_0, # of connection points: 2
#     Edge 17, Type (0, 0), BuildingBlock: EZIPEK_clean_linker_0, # of connection points: 2
#     Edge 18, Type (0, 0), BuildingBlock: EZIPEK_clean_linker_0, # of connection points: 2
#     Edge 19, Type (0, 0), BuildingBlock: EZIPEK_clean_linker_0, # of connection points: 2
#     Edge 20, Type (0, 0), BuildingBlock: EZIPEK_clean_linker_0, # of connection points: 2
#     Edge 21, Type (0, 0), BuildingBlock: EZIPEK_clean_linker_0, # of connection points: 2
#     Edge 22, Type (0, 0), BuildingBlock: EZIPEK_clean_linker_0, # of connection points: 2
#     Edge 23, Type (0, 0), BuildingBlock: EZIPEK_clean_linker_0, # of connection points: 2
#     Edge 24, Type (0, 0), BuildingBlock: EZIPEK_clean_linker_0, # of connection points: 2
#     Edge 25, Type (0, 0), BuildingBlock: EZIPEK_clean_linker_0, # of connection points: 2
#     Edge 26, Type (0, 0), BuildingBlock: EZIPEK_clean_linker_0, # of connection points: 2
#     Edge 27, Type (0, 0), BuildingBlock: EZIPEK_clean_linker_0, # of connection points: 2
#     Edge 28, Type (0, 0), BuildingBlock: EZIPEK_clean_linker_0, # of connection points: 2
#     Edge 29, Type (0, 0), BuildingBlock: EZIPEK_clean_linker_0, # of connection points: 2
#     Edge 30, Type (0, 0), BuildingBlock: EZIPEK_clean_linker_0, # of connection points: 2
#     Edge 31, Type (0, 0), BuildingBlock: EZIPEK_clean_linker_0, # of connection points: 2
#     Edge 32, Type (0, 0), BuildingBlock: EZIPEK_clean_linker_0, # of connection points: 2
#     Edge 33, Type (0, 0), BuildingBlock: EZIPEK_clean_linker_0, # of connection points: 2
#     Edge 34, Type (0, 0), BuildingBlock: EZIPEK_clean_linker_0, # of connection points: 2
#     Edge 35, Type (0, 0), BuildingBlock: EZIPEK_clean_linker_0, # of connection points: 2
#     Edge 36, Type (0, 0), BuildingBlock: EZIPEK_clean_linker_0, # of connection points: 2
#     Edge 37, Type (0, 0), BuildingBlock: EZIPEK_clean_linker_0, # of connection points: 2
#     Edge 38, Type (0, 0), BuildingBlock: EZIPEK_clean_linker_0, # of connection points: 2
#     Edge 39, Type (0, 0), BuildingBlock: EZIPEK_clean_linker_0, # of connection points: 2
#     Edge 40, Type (0, 0), BuildingBlock: EZIPEK_clean_linker_0, # of connection points: 2
#     Edge 41, Type (0, 0), BuildingBlock: EZIPEK_clean_linker_0, # of connection points: 2
#     Edge 42, Type (0, 0), BuildingBlock: EZIPEK_clean_linker_0, # of connection points: 2
#     Edge 43, Type (0, 0), BuildingBlock: EZIPEK_clean_linker_0, # of connection points: 2
#     Edge 44, Type (0, 0), BuildingBlock: EZIPEK_clean_linker_0, # of connection points: 2
#     Edge 45, Type (0, 0), BuildingBlock: EZIPEK_clean_linker_0, # of connection points: 2
#     Edge 46, Type (0, 0), BuildingBlock: EZIPEK_clean_linker_0, # of connection points: 2
#     Edge 47, Type (0, 0), BuildingBlock: EZIPEK_clean_linker_0, # of connection points: 2
# Relax obj value: 0.093
# Max RMSD: 0.176
# Mean RMSD: 0.176
data_MOF--net-wme--node1-BETDEL_clean_sbu_0--edge1-EZIPEK_clean_linker_0
_symmetry_space_group_name_H-M    P1
_symmetry_Int_Tables_number       1
_symmetry_cell_setting            triclinic
loop_
_symmetry_equiv_pos_as_xyz
'x, y, z'
_cell_length_a     24.626316
_cell_length_b     24.55394
_cell_length_c     38.53658
_cell_angle_alpha  90.536184
_cell_angle_beta   89.590612
_cell_angle_gamma 119.64218
loop_
_atom_site_label
_atom_site_type_symbol
_atom_site_fract_x
_atom_site_fract_y
_atom_site_fract_z
_atom_type_partial_charge
Dy0 Dy 0.20198 0.38795 0.12092 0.0
C1 C 0.25819 0.19732 0.14453 0.0
C2 C 0.16236 0.47441 0.12637 0.0
Dy3 Dy 0.24932 0.3038 0.14415 0.0
O4 O 0.18663 0.46464 0.09835 0.0
O5 O 0.16056 0.43752 0.15069 0.0
O6 O 0.18269 0.33967 0.06733 0.0
O7 O 0.25758 0.35031 0.09642 0.0
C8 C 0.22645 0.32454 0.06965 0.0
C9 C 0.23054 0.36167 0.19835 0.0
O10 O 0.34163 0.39076 0.1317 0.0
O11 O 0.30127 0.45855 0.13198 0.0
O12 O 0.28175 0.24097 0.16825 0.0
O13 O 0.23404 0.2143 0.1202 0.0
O14 O 0.27649 0.35001 0.19562 0.0
O15 O 0.19631 0.34083 0.17129 0.0
O16 O 0.10805 0.30732 0.12455 0.0
O17 O 0.14298 0.23895 0.13988 0.0
C18 C 0.34925 0.44849 0.13161 0.0
C19 C 0.09733 0.25111 0.13219 0.0
Dy20 Dy 0.81778 0.19351 0.62071 0.0
C21 C 0.07353 0.25968 0.63528 0.0
C22 C 0.69123 0.14902 0.62452 0.0
Dy23 Dy 0.95754 0.24551 0.64264 0.0
O24 O 0.7288 0.19063 0.60219 0.0
O25 O 0.72277 0.13152 0.64369 0.0
O26 O 0.84536 0.17437 0.56588 0.0
O27 O 0.90958 0.24341 0.59675 0.0
C28 C 0.90465 0.21596 0.56861 0.0
C29 C 0.87658 0.20288 0.69679 0.0
O30 O 0.95557 0.33628 0.63298 0.0
O31 O 0.84638 0.29307 0.63171 0.0
O32 O 0.05836 0.28826 0.65918 0.0
O33 O 0.0272 0.22913 0.61413 0.0
O34 O 0.93125 0.20712 0.69607 0.0
O35 O 0.87156 0.22896 0.66963 0.0
O36 O 0.81331 0.10613 0.63749 0.0
O37 O 0.91913 0.14159 0.6333 0.0
C38 C 0.90393 0.34177 0.63087 0.0
C39 C 0.86075 0.09613 0.63741 0.0
Dy40 Dy 0.63868 0.82451 0.11352 0.0
C41 C 0.83331 0.07012 0.14125 0.0
C42 C 0.54866 0.69997 0.11192 0.0
Dy43 Dy 0.72576 0.95748 0.13911 0.0
O44 O 0.60199 0.72412 0.09569 0.0
O45 O 0.54357 0.74449 0.12733 0.0
O46 O 0.67603 0.8552 0.05759 0.0
O47 O 0.67595 0.9184 0.0921 0.0
C48 C 0.69504 0.91455 0.06259 0.0
C49 C 0.6642 0.87981 0.19093 0.0
O50 O 0.6367 0.96185 0.13243 0.0
O51 O 0.57028 0.85354 0.12963 0.0
O52 O 0.81052 0.03111 0.16683 0.0
O53 O 0.79385 0.0504 0.11565 0.0
O54 O 0.68004 0.93896 0.19048 0.0
O55 O 0.68525 0.86582 0.16388 0.0
O56 O 0.71667 0.81122 0.12945 0.0
O57 O 0.78883 0.91639 0.12716 0.0
C58 C 0.57973 0.91127 0.1315 0.0
C59 C 0.77473 0.85686 0.1288 0.0
Dy60 Dy 0.81723 0.63099 0.61878 0.0
C61 C 0.77088 0.83295 0.65304 0.0
C62 C 0.8644 0.55137 0.61518 0.0
Dy63 Dy 0.77342 0.72386 0.64806 0.0
O64 O 0.87387 0.59328 0.59181 0.0
O65 O 0.82788 0.55173 0.63946 0.0
O66 O 0.76692 0.62363 0.5683 0.0
O67 O 0.8014 0.70556 0.59761 0.0
C68 C 0.76746 0.67681 0.57175 0.0
C69 C 0.79476 0.66915 0.70142 0.0
O70 O 0.68113 0.63087 0.64487 0.0
O71 O 0.72053 0.56297 0.63285 0.0
O72 O 0.80461 0.8178 0.67178 0.0
O73 O 0.73409 0.78616 0.63314 0.0
O74 O 0.77323 0.70773 0.70491 0.0
O75 O 0.80063 0.66073 0.66937 0.0
O76 O 0.90996 0.71141 0.6301 0.0
O77 O 0.87823 0.78461 0.64159 0.0
C78 C 0.67408 0.57378 0.63937 0.0
C79 C 0.92208 0.76857 0.63771 0.0
Dy80 Dy 0.20405 0.81899 0.12666 0.0
C81 C 0.96376 0.78379 0.13443 0.0
C82 C 0.33032 0.86807 0.12533 0.0
Dy83 Dy 0.07421 0.78796 0.14871 0.0
O84 O 0.29052 0.81778 0.10868 0.0
O85 O 0.30119 0.89228 0.14166 0.0
O86 O 0.16618 0.77129 0.07446 0.0
O87 O 0.12364 0.81431 0.10039 0.0
C88 C 0.11736 0.77861 0.07533 0.0
C89 C 0.15138 0.82264 0.20252 0.0
O90 O 0.06728 0.69067 0.1438 0.0
O91 O 0.17341 0.72509 0.14733 0.0
O92 O 0.01625 0.8156 0.1184 0.0
O93 O 0.97143 0.75239 0.1595 0.0
O94 O 0.10166 0.82846 0.20132 0.0
O95 O 0.15298 0.79152 0.17646 0.0
O96 O 0.22124 0.9163 0.13054 0.0
O97 O 0.12298 0.89367 0.14958 0.0
C98 C 0.11509 0.67932 0.14543 0.0
C99 C 0.18145 0.93398 0.14105 0.0
Dy100 Dy 0.38978 0.19694 0.62662 0.0
C101 C 0.18437 0.95356 0.64802 0.0
C102 C 0.47497 0.32113 0.62876 0.0
Dy103 Dy 0.29293 0.06459 0.6537 0.0
O104 O 0.47294 0.2829 0.60432 0.0
O105 O 0.43163 0.29135 0.65159 0.0
O106 O 0.34919 0.16425 0.57175 0.0
O107 O 0.34425 0.10125 0.60695 0.0
C108 C 0.32592 0.10429 0.57736 0.0
C109 C 0.33466 0.15205 0.70424 0.0
O110 O 0.38338 0.05774 0.65081 0.0
O111 O 0.4559 0.16296 0.63785 0.0
O112 O 0.22979 0.96336 0.66937 0.0
O113 O 0.20108 1.00269 0.62896 0.0
O114 O 0.28181 0.0999 0.70505 0.0
O115 O 0.36496 0.15045 0.67788 0.0
O116 O 0.31124 0.21458 0.63407 0.0
O117 O 0.23533 0.11098 0.64006 0.0
C118 C 0.44201 0.10469 0.6448 0.0
C119 C 0.25268 0.17115 0.63681 0.0
Dy120 Dy 0.62053 0.80463 0.40639 0.0
C121 C 0.82396 0.77129 0.38905 0.0
C122 C 0.53407 0.84363 0.40413 0.0
Dy123 Dy 0.71095 0.76549 0.38356 0.0
O124 O 0.54311 0.81682 0.43083 0.0
O125 O 0.57097 0.84742 0.37902 0.0
O126 O 0.66405 0.8194 0.46028 0.0
O127 O 0.65578 0.74656 0.42993 0.0
C128 C 0.67598 0.77327 0.45858 0.0
C129 C 0.65812 0.78612 0.32909 0.0
O130 O 0.62462 0.66992 0.39063 0.0
O131 O 0.55371 0.70631 0.39093 0.0
O132 O 0.78307 0.73991 0.36491 0.0
O133 O 0.80153 0.7962 0.41039 0.0
O134 O 0.6769 0.74505 0.32954 0.0
O135 O 0.67336 0.81774 0.35731 0.0
O136 O 0.69833 0.90059 0.40735 0.0
O137 O 0.77034 0.87118 0.39085 0.0
C138 C 0.56628 0.6599 0.38991 0.0
C139 C 0.75551 0.91449 0.39981 0.0
Dy140 Dy 0.84873 0.65026 0.90849 0.0
C141 C 0.08611 0.85049 0.88845 0.0
C142 C 0.72588 0.56032 0.9159 0.0
Dy143 Dy 0.97733 0.73924 0.88597 0.0
O144 O 0.74969 0.61812 0.92589 0.0
O145 O 0.76953 0.55056 0.90358 0.0
O146 O 0.87573 0.6898 0.96353 0.0
O147 O 0.94126 0.68744 0.93278 0.0
C148 C 0.93484 0.70789 0.96125 0.0
C149 C 0.90645 0.68021 0.83159 0.0
O150 O 0.98583 0.65274 0.89634 0.0
O151 O 0.87966 0.58301 0.89203 0.0
O152 O 0.07381 0.80687 0.8653 0.0
O153 O 0.0403 0.83274 0.91016 0.0
O154 O 0.9649 0.69595 0.83434 0.0
O155 O 0.88829 0.69847 0.85812 0.0
O156 O 0.82895 0.72486 0.89295 0.0
O157 O 0.93247 0.80058 0.89268 0.0
C158 C 0.9379 0.59461 0.89384 0.0
C159 C 0.87245 0.78392 0.89275 0.0
Dy160 Dy 0.19591 0.81073 0.42097 0.0
C161 C 0.2377 0.05412 0.3938 0.0
C162 C 0.15082 0.68357 0.42527 0.0
Dy163 Dy 0.22762 0.93874 0.39525 0.0
O164 O 0.14754 0.7184 0.45001 0.0
O165 O 0.17982 0.71865 0.39894 0.0
O166 O 0.25348 0.85655 0.46923 0.0
O167 O 0.20569 0.89649 0.44585 0.0
C168 C 0.24464 0.90472 0.46932 0.0
C169 C 0.18756 0.85326 0.34407 0.0
O170 O 0.32469 0.94699 0.39753 0.0
O171 O 0.29316 0.84153 0.40667 0.0
O172 O 0.26206 0.03357 0.3705 0.0
O173 O 0.21115 0.01307 0.41802 0.0
O174 O 0.17676 0.89976 0.34616 0.0
O175 O 0.22138 0.85606 0.36943 0.0
O176 O 0.09893 0.79335 0.41369 0.0
O177 O 0.12381 0.89347 0.39804 0.0
C178 C 0.33682 0.89987 0.40098 0.0
C179 C 0.08242 0.83461 0.40461 0.0
Dy180 Dy 0.41038 0.20527 0.9206 0.0
C181 C 0.22582 0.2774 0.90618 0.0
C182 C 0.49202 0.15933 0.92256 0.0
Dy183 Dy 0.3257 0.25882 0.89966 0.0
O184 O 0.50282 0.21292 0.9357 0.0
O185 O 0.43674 0.13118 0.90905 0.0
O186 O 0.36138 0.18571 0.97461 0.0
O187 O 0.37297 0.25966 0.94554 0.0
C188 C 0.34856 0.23114 0.97277 0.0
C189 C 0.35824 0.21237 0.84467 0.0
O190 O 0.41886 0.34898 0.90687 0.0
O191 O 0.48162 0.30183 0.90592 0.0
O192 O 0.26597 0.29865 0.88051 0.0
O193 O 0.24468 0.25234 0.92929 0.0
O194 O 0.30804 0.21672 0.84704 0.0
O195 O 0.39227 0.23928 0.87093 0.0
O196 O 0.33147 0.12057 0.89888 0.0
O197 O 0.26286 0.15522 0.91142 0.0
C198 C 0.47495 0.35219 0.90711 0.0
C199 C 0.27435 0.10958 0.90286 0.0
Dy200 Dy 0.19488 0.37413 0.41628 0.0
C201 C 0.94226 0.17764 0.40165 0.0
C202 C 0.31901 0.46173 0.41391 0.0
Dy203 Dy 0.05469 0.28474 0.39531 0.0
O204 O 0.29511 0.41094 0.43235 0.0
O205 O 0.27476 0.46577 0.39806 0.0
O206 O 0.17273 0.3275 0.46987 0.0
O207 O 0.1037 0.33189 0.44211 0.0
C208 C 0.113 0.30798 0.4685 0.0
C209 C 0.12417 0.32489 0.33689 0.0
O210 O 0.05155 0.37471 0.40489 0.0
O211 O 0.1589 0.44172 0.41546 0.0
O212 O 0.95984 0.21397 0.37466 0.0
O213 O 0.98343 0.20352 0.42595 0.0
O214 O 0.06406 0.28814 0.33711 0.0
O215 O 0.1429 0.33848 0.36803 0.0
O216 O 0.20076 0.29591 0.39161 0.0
O217 O 0.0991 0.22417 0.40464 0.0
C218 C 0.10099 0.43141 0.41123 0.0
C219 C 0.15693 0.2378 0.39694 0.0
Dy220 Dy 0.84631 0.22054 0.91784 0.0
C221 C 0.79909 0.97388 0.89219 0.0
C222 C 0.89468 0.34728 0.91605 0.0
Dy223 Dy 0.81459 0.09161 0.89313 0.0
O224 O 0.84996 0.30989 0.93681 0.0
O225 O 0.91321 0.31563 0.89731 0.0
O226 O 0.80804 0.18506 0.97176 0.0
O227 O 0.84413 0.13951 0.94208 0.0
C228 C 0.81301 0.13473 0.96917 0.0
C229 C 0.8466 0.17262 0.84009 0.0
O230 O 0.71699 0.07933 0.90096 0.0
O231 O 0.74772 0.18522 0.90351 0.0
O232 O 0.78411 0.99844 0.86676 0.0
O233 O 0.81744 0.01164 0.91861 0.0
O234 O 0.85857 0.12684 0.84184 0.0
O235 O 0.81495 0.17127 0.86678 0.0
O236 O 0.94314 0.23678 0.91551 0.0
O237 O 0.91982 0.13901 0.8947 0.0
C238 C 0.70347 0.12576 0.90229 0.0
C239 C 0.96068 0.19712 0.9043 0.0
C240 C 0.22728 0.03908 0.11263 0.0
C241 C 0.204 1.0022 0.14297 0.0
C242 C 0.22131 0.09503 0.17624 0.0
C243 C 0.24864 0.13279 0.14639 0.0
N244 N 0.29112 0.1428 0.08872 0.0
N245 N 0.19329 0.99772 0.20532 0.0
C246 C 0.25589 0.10533 0.11538 0.0
C247 C 0.20545 0.03097 0.1753 0.0
N248 N 0.21952 0.01077 0.0809 0.0
N249 N 0.20639 0.11849 0.20479 0.0
H250 H 0.18137 0.95075 0.20578 0.0
H251 H 0.20087 0.01829 0.22988 0.0
H252 H 0.21621 0.16463 0.2072 0.0
H253 H 0.17922 0.09047 0.22518 0.0
H254 H 0.22946 0.03496 0.05756 0.0
H255 H 0.19747 0.96225 0.07764 0.0
H256 H 0.30266 0.12584 0.06664 0.0
H257 H 0.31434 0.19164 0.0903 0.0
C258 C 0.17362 0.19131 0.66753 0.0
C259 C 0.20547 0.19231 0.63652 0.0
C260 C 0.16142 0.25089 0.60777 0.0
C261 C 0.12462 0.24405 0.63767 0.0
N262 N 0.08548 0.19419 0.69332 0.0
N263 N 0.22374 0.21571 0.57557 0.0
C264 C 0.12814 0.21095 0.66694 0.0
C265 C 0.19782 0.22027 0.60618 0.0
N266 N 0.18802 0.17339 0.69797 0.0
N267 N 0.16225 0.28763 0.5811 0.0
H268 H 0.24999 0.19306 0.57348 0.0
H269 H 0.21486 0.22936 0.55175 0.0
H270 H 0.13677 0.31122 0.5818 0.0
H271 H 0.19211 0.29933 0.5598 0.0
H272 H 0.17198 0.17915 0.72207 0.0
H273 H 0.22033 0.15792 0.69953 0.0
H274 H 0.08149 0.16356 0.71298 0.0
H275 H 0.05 0.20552 0.69411 0.0
C276 C 0.93538 0.11958 0.1083 0.0
C277 C 0.90064 0.11767 0.13842 0.0
C278 C 0.99798 0.19556 0.16643 0.0
C279 C 0.03083 0.20211 0.13492 0.0
N280 N 0.0257 0.18423 0.07303 0.0
N281 N 0.89763 0.16187 0.1941 0.0
C282 C 0.99808 0.16837 0.10497 0.0
C283 C 0.93167 0.15773 0.16705 0.0
N284 N 0.91057 0.07308 0.08375 0.0
N285 N 0.03006 0.22608 0.19567 0.0
H286 H 0.84894 0.13668 0.19486 0.0
H287 H 0.91704 0.19462 0.21412 0.0
H288 H 0.07806 0.25687 0.19564 0.0
H289 H 1.00994 0.21768 0.22029 0.0
H290 H 0.93679 0.07034 0.06314 0.0
H291 H 0.86696 0.03307 0.08604 0.0
H292 H 1.00147 0.16446 0.05007 0.0
H293 H 0.07035 0.22213 0.06924 0.0
C294 C 0.81646 0.92829 0.61528 0.0
C295 C 0.78921 0.89917 0.64747 0.0
C296 C 0.82585 1.00201 0.67431 0.0
C297 C 0.84583 0.03042 0.64141 0.0
N298 N 0.8565 0.02144 0.57987 0.0
N299 N 0.76035 0.90711 0.70636 0.0
C300 C 0.84004 0.99373 0.61166 0.0
C301 C 0.79171 0.93579 0.67663 0.0
N302 N 0.82352 0.89463 0.58887 0.0
N303 N 0.84184 0.03851 0.7035 0.0
H304 H 0.73427 0.85847 0.70872 0.0
H305 H 0.7553 0.93126 0.72737 0.0
H306 H 0.86964 0.08702 0.70253 0.0
H307 H 0.83352 0.02069 0.72859 0.0
H308 H 0.84933 0.91506 0.56649 0.0
H309 H 0.80839 0.84692 0.59019 0.0
H310 H 0.84573 0.99648 0.55656 0.0
H311 H 0.8785 0.06985 0.57693 0.0
C312 C 0.85785 0.76728 0.15155 0.0
C313 C 0.90864 0.79253 0.128 0.0
C314 C 0.86718 0.85597 0.10188 0.0
C315 C 0.82408 0.83923 0.12968 0.0
N316 N 0.78374 0.78507 0.18394 0.0
N317 N 0.95611 0.85502 0.07635 0.0
C318 C 0.8209 0.79656 0.15534 0.0
C319 C 0.9116 0.835 0.10181 0.0
N320 N 0.84231 0.71314 0.16878 0.0
N321 N 0.86327 0.88861 0.07432 0.0
H322 H 0.97834 0.83033 0.06861 0.0
H323 H 0.9696 0.89547 0.06196 0.0
H324 H 0.83253 0.9061 0.07349 0.0
H325 H 0.88724 0.89482 0.05102 0.0
H326 H 0.8027 0.69028 0.18441 0.0
H327 H 0.86322 0.6861 0.16322 0.0
H328 H 0.7848 0.75951 0.2051 0.0
H329 H 0.75649 0.80619 0.18809 0.0
C330 C 0.02703 0.83225 0.61062 0.0
C331 C 0.9888 0.81671 0.64056 0.0
C332 C 0.08141 0.87872 0.67698 0.0
C333 C 0.11945 0.8988 0.64656 0.0
N334 N 0.1276 0.89708 0.58409 0.0
N335 N 0.97669 0.82855 0.70173 0.0
C336 C 0.09185 0.87584 0.61336 0.0
C337 C 1.0152 0.84083 0.67362 0.0
N338 N 1.00126 0.80487 0.57939 0.0
N339 N 0.10812 0.89557 0.7091 0.0
H340 H 0.92845 0.79906 0.7006 0.0
H341 H 0.99153 0.85061 0.72574 0.0
H342 H 0.15558 0.92512 0.71317 0.0
H343 H 0.08405 0.87651 0.73211 0.0
H344 H 0.02733 0.80666 0.55761 0.0
H345 H 0.95323 0.77741 0.57546 0.0
H346 H 0.10976 0.89064 0.55905 0.0
H347 H 0.17584 0.92355 0.58498 0.0
C348 C 0.99477 0.85767 0.41164 0.0
C349 C 1.01509 0.81515 0.40125 0.0
C350 C 0.90724 0.73937 0.38456 0.0
C351 C 0.88993 0.78581 0.39036 0.0
N352 N 0.92548 0.89653 0.39722 0.0
N353 N 0.9918 0.72077 0.36888 0.0
C354 C 0.93608 0.84721 0.40029 0.0
C355 C 0.97172 0.75719 0.38523 0.0
N356 N 0.03008 0.90694 0.4333 0.0
N357 N 0.86273 0.67825 0.37943 0.0
H358 H 0.03874 0.73392 0.36625 0.0
H359 H 0.96224 0.6811 0.35435 0.0
H360 H 0.81503 0.66307 0.37946 0.0
H361 H 0.8732 0.64198 0.37847 0.0
H362 H 1.01426 0.93634 0.44317 0.0
H363 H 0.07109 0.91351 0.44485 0.0
H364 H 0.96018 0.94278 0.40168 0.0
H365 H 0.88546 0.89224 0.38559 0.0
C366 C 0.19116 0.93271 0.90777 0.0
C367 C 0.13779 0.91561 0.88733 0.0
C368 C 0.1751 0.02607 0.87468 0.0
C369 C 0.2237 0.04352 0.89935 0.0
N370 N 0.26987 0.01221 0.94464 0.0
N371 N 0.07393 0.94541 0.85424 0.0
C372 C 0.22953 0.99641 0.91736 0.0
C373 C 0.12818 0.96213 0.87166 0.0
N374 N 0.20578 0.88822 0.91743 0.0
N375 N 0.17549 0.0695 0.8527 0.0
H376 H 0.03998 0.89883 0.84978 0.0
H377 H 0.0611 0.97781 0.84607 0.0
H378 H 0.20991 0.11637 0.8533 0.0
H379 H 0.14491 0.05796 0.83186 0.0
H380 H 0.2474 0.89888 0.92982 0.0
H381 H 0.17926 0.84151 0.90958 0.0
H382 H 0.27169 0.97909 0.96057 0.0
H383 H 0.29654 0.05813 0.9537 0.0
C384 C 0.13944 0.13091 0.37753 0.0
C385 C 0.17537 0.1884 0.39588 0.0
C386 C 0.25936 0.16304 0.40357 0.0
C387 C 0.2213 0.10364 0.38856 0.0
N388 N 0.12227 0.02677 0.36451 0.0
N389 N 0.26116 0.24911 0.43517 0.0
C390 C 0.16055 0.08642 0.37638 0.0
C391 C 0.23324 0.20187 0.41123 0.0
N392 N 0.08644 0.11916 0.36018 0.0
N393 N 0.32049 0.18224 0.41062 0.0
H394 H 0.24079 0.27506 0.44411 0.0
H395 H 0.30033 0.2572 0.44937 0.0
H396 H 0.34079 0.15478 0.40445 0.0
H397 H 0.35217 0.22749 0.41896 0.0
H398 H 0.06333 0.08188 0.3429 0.0
H399 H 0.06744 0.14868 0.36073 0.0
H400 H 0.07458 1.00823 0.36032 0.0
H401 H 0.13758 0.99445 0.36059 0.0
C402 C 0.13844 0.30182 0.89553 0.0
C403 C 0.15847 0.25833 0.90299 0.0
C404 C 0.05039 0.17757 0.91446 0.0
C405 C 0.02889 0.21845 0.90348 0.0
N406 N 0.05363 0.31543 0.87462 0.0
N407 N 0.1291 0.14886 0.90506 0.0
C408 C 0.07323 0.27972 0.89156 0.0
C409 C 0.11321 0.19447 0.90835 0.0
N410 N 0.18116 0.36401 0.89268 0.0
N411 N 1.01208 0.1234 0.93169 0.0
H412 H 0.17238 0.15882 0.89541 0.0
H413 H 0.09666 0.10113 0.90624 0.0
H414 H 0.96628 0.10991 0.93854 0.0
H415 H 0.02842 0.09557 0.94268 0.0
H416 H 0.16857 0.39863 0.89082 0.0
H417 H 0.22913 0.38122 0.89497 0.0
H418 H 0.08416 0.35787 0.86286 0.0
H419 H 1.007 0.29928 0.86868 0.0
C420 C 0.83531 0.09017 0.38516 0.0
C421 C 0.89388 0.11019 0.40117 0.0
C422 C 0.85871 1.0023 0.41926 0.0
C423 C 0.80369 0.98139 0.39965 0.0
N424 N 0.7463 1.0042 0.35697 0.0
N425 N 0.96726 0.07926 0.42257 0.0
C426 C 0.79374 0.02495 0.38056 0.0
C427 C 0.90741 0.06475 0.41535 0.0
N428 N 0.81839 0.13297 0.37527 0.0
N429 N 0.86432 0.96338 0.44228 0.0
H430 H 1.00577 0.12211 0.41655 0.0
H431 H 0.97919 0.0459 0.43018 0.0
H432 H 0.82907 0.91737 0.44653 0.0
H433 H 0.90162 0.97902 0.45953 0.0
H434 H 0.77372 0.12024 0.36648 0.0
H435 H 0.84677 0.18106 0.37915 0.0
H436 H 0.74081 0.03405 0.34011 0.0
H437 H 0.71659 0.95681 0.35159 0.0
C438 C 0.86945 0.87299 0.86311 0.0
C439 C 0.8527 0.83187 0.89169 0.0
C440 C 0.78903 0.87491 0.91558 0.0
C441 C 0.81179 0.92098 0.88927 0.0
N442 N 0.88506 0.97205 0.84214 0.0
N443 N 0.80489 0.80018 0.94826 0.0
C444 C 0.85477 0.92214 0.86394 0.0
C445 C 0.81448 0.83435 0.91875 0.0
N446 N 0.89793 0.86424 0.8347 0.0
N447 N 0.74232 0.86933 0.93721 0.0
H448 H 0.82384 0.77094 0.95195 0.0
H449 H 0.78324 0.80531 0.97038 0.0
H450 H 0.72236 0.89808 0.93539 0.0
H451 H 0.71951 0.83281 0.95475 0.0
H452 H 0.90499 0.88866 0.81161 0.0
H453 H 0.90921 0.82857 0.83297 0.0
H454 H 0.92198 0.97827 0.82616 0.0
H455 H 0.87805 0.01051 0.84224 0.0
C456 C 0.13772 0.6002 0.1703 0.0
C457 C 0.10738 0.61519 0.1441 0.0
C458 C 0.10326 0.52989 0.10794 0.0
C459 C 0.1434 0.52307 0.13171 0.0
N460 N 0.20859 0.56171 0.18275 0.0
N461 N 0.0647 0.59696 0.08629 0.0
C462 C 0.16265 0.56034 0.16241 0.0
C463 C 0.09023 0.58017 0.11257 0.0
N464 N 0.14413 0.62574 0.20265 0.0
N465 N 0.07624 0.48758 0.08151 0.0
H466 H 0.05254 0.63181 0.08908 0.0
H467 H 0.05872 0.57866 0.06122 0.0
H468 H 0.08398 0.44989 0.07756 0.0
H469 H 0.04187 0.48656 0.06547 0.0
H470 H 0.16077 0.6124 0.22386 0.0
H471 H 0.12653 0.65546 0.20883 0.0
H472 H 0.22834 0.59238 0.20366 0.0
H473 H 0.23254 0.53793 0.17635 0.0
C474 C 0.60276 0.13433 0.66404 0.0
C475 C 0.62369 0.12863 0.63033 0.0
C476 C 0.51698 0.08818 0.60806 0.0
C477 C 0.49639 0.09394 0.64174 0.0
N478 N 0.51475 0.10604 0.70293 0.0
N479 N 0.5979 0.08664 0.57224 0.0
C480 C 0.53784 0.11122 0.67011 0.0
C481 C 0.57986 0.10137 0.6029 0.0
N482 N 0.64522 0.16574 0.68975 0.0
N483 N 0.47689 0.07272 0.5807 0.0
H484 H 0.64334 0.09548 0.56766 0.0
H485 H 0.56691 0.06107 0.55245 0.0
H486 H 0.42989 0.05947 0.58401 0.0
H487 H 0.49058 0.07548 0.55485 0.0
H488 H 0.63335 0.17698 0.71368 0.0
H489 H 0.69335 0.18617 0.68623 0.0
H490 H 0.5409 0.11262 0.72527 0.0
H491 H 0.46722 0.08827 0.70749 0.0
C492 C 0.48466 0.5879 0.08986 0.0
C493 C 0.50555 0.63162 0.11786 0.0
C494 C 0.43334 0.54874 0.15727 0.0
C495 C 0.4121 0.50536 0.12926 0.0
N496 N 0.43029 0.47855 0.07188 0.0
N497 N 0.51507 0.64763 0.18001 0.0
C498 C 0.44237 0.52327 0.09657 0.0
C499 C 0.48449 0.61024 0.15217 0.0
N500 N 0.50177 0.60836 0.0566 0.0
N501 N 0.40365 0.53145 0.18865 0.0
H502 H 0.5552 0.69128 0.17754 0.0
H503 H 0.50514 0.63259 0.20563 0.0
H504 H 0.3691 0.48553 0.19395 0.0
H505 H 0.41124 0.5631 0.20874 0.0
H506 H 0.48246 0.57974 0.03488 0.0
H507 H 0.53138 0.65522 0.05041 0.0
H508 H 0.45511 0.48772 0.04867 0.0
H509 H 0.39998 0.43107 0.0763 0.0
C510 C 0.93041 0.50889 0.63885 0.0
C511 C 0.88694 0.5055 0.61375 0.0
C512 C 0.87149 0.40399 0.59373 0.0
C513 C 0.90737 0.40262 0.62239 0.0
N514 N 0.96973 0.45319 0.673 0.0
N515 N 0.81376 0.44964 0.56804 0.0
C516 C 0.93757 0.45546 0.64482 0.0
C517 C 0.85785 0.45361 0.59092 0.0
N518 N 0.96511 0.56364 0.65676 0.0
N519 N 0.8501 0.3576 0.56905 0.0
H520 H 0.80387 0.48584 0.56428 0.0
H521 H 0.78399 0.40908 0.55428 0.0
H522 H 0.85474 0.31784 0.57068 0.0
H523 H 0.83155 0.36053 0.5454 0.0
H524 H 1.00161 0.57164 0.67328 0.0
H525 H 0.961 0.60338 0.65255 0.0
H526 H 0.98616 0.48674 0.69272 0.0
H527 H 0.97709 0.41569 0.6778 0.0
C528 C 0.48668 0.89314 0.0969 0.0
C529 C 0.52296 0.91656 0.1277 0.0
C530 C 0.43312 0.91234 0.15757 0.0
C531 C 0.39865 0.8928 0.126 0.0
N532 N 0.40156 0.8877 0.06356 0.0
N533 N 0.53523 0.96165 0.18484 0.0
C534 C 0.4285 0.89105 0.09496 0.0
C535 C 0.49798 0.9317 0.15701 0.0
N536 N 0.50516 0.86885 0.07021 0.0
N537 N 0.40348 0.90718 0.18849 0.0
H538 H 0.5824 0.97448 0.18555 0.0
H539 H 0.52075 0.97875 0.20568 0.0
H540 H 0.35551 0.88901 0.19075 0.0
H541 H 0.42551 0.9147 0.21244 0.0
H542 H 0.47644 0.84543 0.04914 0.0
H543 H 0.54607 0.86626 0.07035 0.0
H544 H 0.42445 0.89171 0.04005 0.0
H545 H 0.3598 0.88854 0.06113 0.0
C546 C 0.6015 0.47365 0.66775 0.0
C547 C 0.6122 0.51622 0.6405 0.0
C548 C 0.52663 0.43203 0.60721 0.0
C549 C 0.52216 0.38822 0.6324 0.0
N550 N 0.55931 0.36559 0.68515 0.0
N551 N 0.58924 0.53551 0.58272 0.0
C552 C 0.55998 0.40865 0.66257 0.0
C553 C 0.57528 0.49551 0.60996 0.0
N554 N 0.63276 0.4957 0.69832 0.0
N555 N 0.48364 0.41328 0.58112 0.0
H556 H 0.62356 0.58248 0.58419 0.0
H557 H 0.56955 0.52141 0.55817 0.0
H558 H 0.44774 0.36708 0.57817 0.0
H559 H 0.48042 0.44429 0.56413 0.0
H560 H 0.62281 0.46899 0.72072 0.0
H561 H 0.66567 0.54271 0.70186 0.0
H562 H 0.5905 0.37702 0.70563 0.0
H563 H 0.53121 0.31733 0.68178 0.0
C564 C 0.43859 0.92343 0.42723 0.0
C565 C 0.40044 0.90854 0.3974 0.0
C566 C 0.45028 0.85241 0.37204 0.0
C567 C 0.48895 0.86722 0.40183 0.0
N568 N 0.53157 0.93115 0.45329 0.0
N569 N 0.38183 0.87549 0.33788 0.0
C570 C 0.48675 0.90719 0.42813 0.0
C571 C 0.41112 0.87925 0.36848 0.0
N572 N 0.42671 0.95037 0.45528 0.0
N573 N 0.44709 0.80897 0.34842 0.0
H574 H 0.35241 0.8944 0.33517 0.0
H575 H 0.39155 0.85972 0.31473 0.0
H576 H 0.47157 0.7847 0.351 0.0
H577 H 0.41514 0.79193 0.3281 0.0
H578 H 0.44727 0.9552 0.47947 0.0
H579 H 0.39386 0.96548 0.45455 0.0
H580 H 0.53563 0.96498 0.4712 0.0
H581 H 0.56838 0.92167 0.4543 0.0
C582 C 0.61565 0.51642 0.89424 0.0
C583 C 0.65864 0.51261 0.91718 0.0
C584 C 0.575 0.41342 0.93967 0.0
C585 C 0.53412 0.41223 0.9132 0.0
N586 N 0.51701 0.46056 0.86345 0.0
N587 N 0.68102 0.45681 0.96068 0.0
C588 C 0.55437 0.46372 0.89034 0.0
C589 C 0.63868 0.46109 0.93971 0.0
N590 N 0.63367 0.56998 0.87577 0.0
N591 N 0.5527 0.36931 0.96528 0.0
H592 H 0.7272 0.49268 0.9633 0.0
H593 H 0.67157 0.41631 0.97397 0.0
H594 H 0.50709 0.33211 0.96604 0.0
H595 H 0.57784 0.37223 0.98749 0.0
H596 H 0.60288 0.57832 0.86144 0.0
H597 H 0.67875 0.60835 0.87677 0.0
H598 H 0.53191 0.4929 0.84337 0.0
H599 H 0.47204 0.42308 0.8598 0.0
C600 C 0.09118 0.57908 0.39514 0.0
C601 C 0.12309 0.61386 0.42527 0.0
C602 C 0.11053 0.51694 0.45035 0.0
C603 C 0.09324 0.48715 0.41742 0.0
N604 N 0.06788 0.49036 0.35756 0.0
N605 N 0.16548 0.61499 0.48189 0.0
C606 C 0.08292 0.51799 0.38958 0.0
C607 C 0.1324 0.58237 0.45335 0.0
N608 N 0.06651 0.60347 0.37258 0.0
N609 N 0.10573 0.48211 0.47874 0.0
H610 H 0.18349 0.66302 0.48508 0.0
H611 H 0.17939 0.59515 0.50122 0.0
H612 H 0.08741 0.43375 0.47684 0.0
H613 H 0.11263 0.49951 0.50405 0.0
H614 H 0.0389 0.57855 0.35147 0.0
H615 H 0.06703 0.64549 0.37775 0.0
H616 H 0.06703 0.51385 0.33537 0.0
H617 H 0.05979 0.445 0.35295 0.0
C618 C 0.59145 0.07855 0.92488 0.0
C619 C 0.63824 0.11534 0.90017 0.0
C620 C 0.58354 0.17346 0.88693 0.0
C621 C 0.54056 0.1418 0.91419 0.0
N622 N 0.49354 0.05508 0.9537 0.0
N623 N 0.6643 0.17773 0.84869 0.0
C624 C 0.54103 0.09089 0.93127 0.0
C625 C 0.62929 0.15632 0.87829 0.0
N626 N 0.5959 0.03295 0.9425 0.0
N627 N 0.58149 0.22086 0.86967 0.0
H628 H 0.69672 0.16402 0.84145 0.0
H629 H 0.65697 0.20329 0.82972 0.0
H630 H 0.54649 0.23249 0.87357 0.0
H631 H 0.61629 0.25102 0.85271 0.0
H632 H 0.56666 1.00719 0.96278 0.0
H633 H 0.6297 0.02049 0.93682 0.0
H634 H 0.48795 0.0149 0.96571 0.0
H635 H 0.45725 0.06416 0.95931 0.0
C636 C 0.42938 0.53066 0.43541 0.0
C637 C 0.38686 0.5038 0.40738 0.0
C638 C 0.47 0.56865 0.36609 0.0
C639 C 0.51187 0.59635 0.39411 0.0
N640 N 0.53749 0.59231 0.45382 0.0
N641 N 0.3718 0.48247 0.3458 0.0
C642 C 0.49357 0.57297 0.42822 0.0
C643 C 0.40875 0.51827 0.37257 0.0
N644 N 0.40794 0.51934 0.46886 0.0
N645 N 0.48839 0.59194 0.33342 0.0
H646 H 0.32787 0.4433 0.34961 0.0
H647 H 0.38712 0.48743 0.32017 0.0
H648 H 0.53432 0.62588 0.32767 0.0
H649 H 0.45782 0.57968 0.31254 0.0
H650 H 0.43539 0.54308 0.49022 0.0
H651 H 0.36123 0.48976 0.47531 0.0
H652 H 0.5284 0.5731 0.47859 0.0
H653 H 0.5847 0.62323 0.44921 0.0
C654 C 0.95478 0.52135 0.93114 0.0
C655 C 0.94605 0.53927 0.8976 0.0
C656 C 0.90534 0.43204 0.87624 0.0
C657 C 0.91422 0.41384 0.90972 0.0
N658 N 0.95974 0.44277 0.96671 0.0
N659 N 0.92926 0.51739 0.83661 0.0
C660 C 0.94289 0.45908 0.93649 0.0
C661 C 0.92707 0.49633 0.86958 0.0
N662 N 0.97118 0.56278 0.95823 0.0
N663 N 0.87229 0.38759 0.85154 0.0
H664 H 0.94519 0.56457 0.83133 0.0
H665 H 0.92148 0.4898 0.81451 0.0
H666 H 0.85271 0.33962 0.85572 0.0
H667 H 0.85897 0.39763 0.82794 0.0
H668 H 0.97022 0.55029 0.98407 0.0
H669 H 0.98328 0.60951 0.95502 0.0
H670 H 0.98651 0.47498 0.98584 0.0
H671 H 0.95122 0.39744 0.97148 0.0
C672 C 0.16194 0.28947 0.28595 0.0
C673 C 0.16193 0.33986 0.30419 0.0
C674 C 0.21011 0.40729 0.25318 0.0
C675 C 0.20306 0.35453 0.23387 0.0
N676 N 0.16539 0.24303 0.23106 0.0
N677 N 0.18227 0.44624 0.30491 0.0
C678 C 0.17706 0.29503 0.25009 0.0
C679 C 0.18544 0.39892 0.2878 0.0
N680 N 0.14929 0.23644 0.30343 0.0
N681 N 0.24136 0.46539 0.23863 0.0
H682 H 0.16693 0.44206 0.33057 0.0
H683 H 0.19194 0.48822 0.29331 0.0
H684 H 0.25842 0.47241 0.21324 0.0
H685 H 0.25367 0.50673 0.2522 0.0
H686 H 0.15547 0.20054 0.29308 0.0
H687 H 0.13905 0.23175 0.32972 0.0
H688 H 0.13904 0.19747 0.24026 0.0
H689 H 0.17691 0.2444 0.20493 0.0
C690 C 0.80026 0.1497 0.74578 0.0
C691 C 0.85017 0.20497 0.73154 0.0
C692 C 0.88314 0.24879 0.79016 0.0
C693 C 0.8375 0.19109 0.80457 0.0
N694 N 0.74112 0.09424 0.79709 0.0
N695 N 0.92455 0.31417 0.739 0.0
C696 C 0.79175 0.14433 0.78257 0.0
C697 C 0.88629 0.25711 0.7535 0.0
N698 N 0.76328 0.10126 0.72415 0.0
N699 N 0.92595 0.29406 0.81143 0.0
H700 H 0.92721 0.32083 0.71223 0.0
H701 H 0.94874 0.35551 0.75327 0.0
H702 H 0.92276 0.28934 0.8382 0.0
H703 H 0.96528 0.33437 0.80273 0.0
H704 H 0.73056 0.05666 0.73252 0.0
H705 H 0.7674 0.10563 0.69729 0.0
H706 H 0.70345 0.06059 0.78291 0.0
H707 H 0.7344 0.08927 0.82388 0.0
C708 C 0.71827 0.87286 0.24399 0.0
C709 C 0.66163 0.85204 0.22541 0.0
C710 C 0.60163 0.79069 0.27597 0.0
C711 C 0.65808 0.81389 0.29498 0.0
N712 N 0.76962 0.88276 0.29891 0.0
N713 N 0.54927 0.79713 0.22408 0.0
C714 C 0.71619 0.85673 0.2795 0.0
C715 C 0.60319 0.8125 0.24151 0.0
N716 N 0.77442 0.90696 0.22737 0.0
N717 N 0.54675 0.74696 0.29075 0.0
H718 H 0.549 0.81031 0.19845 0.0
H719 H 0.50503 0.77412 0.23531 0.0
H720 H 0.54368 0.73307 0.31654 0.0
H721 H 0.50486 0.72246 0.2773 0.0
H722 H 0.81714 0.91672 0.23785 0.0
H723 H 0.77857 0.92143 0.20171 0.0
H724 H 0.81171 0.92071 0.29093 0.0
H725 H 0.77145 0.86949 0.32422 0.0
C726 C 0.77997 0.63287 0.7631 0.0
C727 C 0.8156 0.64785 0.73189 0.0
C728 C 0.91042 0.68564 0.76565 0.0
C729 C 0.87495 0.66654 0.79709 0.0
N730 N 0.77329 0.60249 0.82304 0.0
N731 N 0.90997 0.66209 0.70472 0.0
C732 C 0.80877 0.63365 0.79499 0.0
C733 C 0.87896 0.66406 0.73363 0.0
N734 N 0.71951 0.6206 0.76276 0.0
N735 N 0.97254 0.72932 0.76545 0.0
H736 H 0.88658 0.64267 0.68163 0.0
H737 H 0.95606 0.67119 0.70533 0.0
H738 H 0.99582 0.75723 0.78678 0.0
H739 H 0.99836 0.74553 0.74258 0.0
H740 H 0.69426 0.61651 0.78536 0.0
H741 H 0.69608 0.61895 0.74007 0.0
H742 H 0.725 0.57341 0.82179 0.0
H743 H 0.79303 0.5999 0.84625 0.0
C744 C 0.13682 0.76991 0.25962 0.0
C745 C 0.17551 0.81959 0.23692 0.0
C746 C 0.23863 0.8823 0.28585 0.0
C747 C 0.1962 0.83496 0.30868 0.0
N748 N 0.12021 0.72755 0.31784 0.0
N749 N 0.27109 0.91531 0.22642 0.0
C750 C 0.15078 0.7763 0.29558 0.0
C751 C 0.22978 0.87285 0.24943 0.0
N752 N 0.08411 0.719 0.24722 0.0
N753 N 0.28429 0.9379 0.29919 0.0
H754 H 0.26358 0.91011 0.19973 0.0
H755 H 0.31432 0.95287 0.2333 0.0
H756 H 0.29307 0.94529 0.32575 0.0
H757 H 0.3122 0.97733 0.28438 0.0
H758 H 0.05002 0.68493 0.26304 0.0
H759 H 0.07285 0.71222 0.22092 0.0
H760 H 0.08964 0.68176 0.30992 0.0
H761 H 0.13073 0.73276 0.34421 0.0
C762 C 0.38394 0.25527 0.78487 0.0
C763 C 0.38223 0.21154 0.80921 0.0
C764 C 0.37654 0.1422 0.76157 0.0
C765 C 0.36469 0.17966 0.73811 0.0
N766 N 0.35839 0.27254 0.72675 0.0
N767 N 0.39015 0.12059 0.82157 0.0
C768 C 0.37045 0.23736 0.74936 0.0
C769 C 0.38404 0.15777 0.79764 0.0
N770 N 0.3973 0.31341 0.79623 0.0
N771 N 0.37841 0.09072 0.74934 0.0
H772 H 0.40101 0.13502 0.84729 0.0
H773 H 0.38548 0.07686 0.81634 0.0
H774 H 0.37114 0.07716 0.72332 0.0
H775 H 0.3901 0.06295 0.76422 0.0
H776 H 0.40404 0.34965 0.77979 0.0
H777 H 0.40757 0.32684 0.82221 0.0
H778 H 0.35487 0.31157 0.73411 0.0
H779 H 0.34831 0.26039 0.70066 0.0
C780 C 0.34007 0.31814 1.0045 0.0
C781 C 0.31565 0.25252 0.99858 0.0
C782 C 0.2265 0.23272 0.03698 0.0
C783 C 0.25006 0.29844 0.04121 0.0
N784 N 0.31934 0.40206 0.02039 0.0
N785 N 0.22812 0.14803 1.00427 0.0
C786 C 0.3036 0.34042 0.02214 0.0
C787 C 0.25669 0.20991 1.01352 0.0
N788 N 0.4001 0.35966 0.99521 0.0
N789 N 0.17573 0.19189 0.05586 0.0
H790 H 0.24839 0.12969 0.98743 0.0
H791 H 0.18238 0.11567 1.01106 0.0
H792 H 0.15246 0.20706 0.07255 0.0
H793 H 0.15997 0.14404 0.05726 0.0
H794 H 0.42232 0.40716 1.00152 0.0
H795 H 0.43032 0.34561 0.985 0.0
H796 H 0.35372 0.43387 1.00374 0.0
H797 H 0.29377 0.41989 0.03302 0.0
C798 C 0.02263 0.21698 0.49997 0.0
C799 C 0.06684 0.28176 0.49819 0.0
C800 C 1.00516 0.30292 0.54102 0.0
C801 C 0.95783 0.23798 0.54188 0.0
N802 N 0.91805 0.1356 0.51539 0.0
N803 N 0.11219 0.38089 0.5274 0.0
C804 C 0.96582 0.1955 0.51964 0.0
C805 C 0.06171 0.32289 0.52195 0.0
N806 N 0.03706 0.17548 0.48459 0.0
N807 N 0.99361 0.34729 0.55516 0.0
H808 H 0.15418 0.39665 0.51394 0.0
H809 H 0.11449 0.41051 0.54758 0.0
H810 H 0.95027 0.33667 0.56487 0.0
H811 H 0.02341 0.39531 0.55246 0.0
H812 H 1.01131 0.12728 0.48842 0.0
H813 H 0.07895 0.19024 0.47115 0.0
H814 H 0.91874 0.10459 0.497 0.0
H815 H 0.87486 0.11876 0.52742 0.0
C816 C 0.69814 0.01043 0.03361 0.0
C817 C 0.72187 0.96776 0.03614 0.0
C818 C 0.81022 0.04016 0.9989 0.0
C819 C 0.78225 0.078 0.99286 0.0
N820 N 0.69027 0.08874 0.99988 0.0
N821 N 0.79475 0.93751 1.01317 0.0
C822 C 0.72391 0.06048 1.00912 0.0
C823 C 0.77572 0.98094 1.01602 0.0
N824 N 0.6496 1.00308 0.05397 0.0
N825 N 0.87161 0.06264 0.99068 0.0
H826 H 0.77085 0.89356 0.0246 0.0
H827 H 0.83038 0.94275 0.99638 0.0
H828 H 0.89999 0.10805 0.98168 0.0
H829 H 0.89607 0.03961 0.99714 0.0
H830 H 0.6386 0.03848 0.0583 0.0
H831 H 0.62136 0.96247 0.0673 0.0
H832 H 0.64527 0.0745 1.00888 0.0
H833 H 0.70293 0.121 0.97995 0.0
C834 C 0.76634 0.70697 0.50915 0.0
C835 C 0.74646 0.70557 0.54374 0.0
C836 C 0.68343 0.75265 0.5233 0.0
C837 C 0.69809 0.74749 0.48797 0.0
N838 N 0.73422 0.69169 0.44987 0.0
N839 N 0.66914 0.70949 0.58045 0.0
C840 C 0.73395 0.71667 0.4815 0.0
C841 C 0.701 0.72438 0.55 0.0
N842 N 0.8167 0.6994 0.50223 0.0
N843 N 0.64943 0.78098 0.53201 0.0
H844 H 0.6797 0.688 0.59995 0.0
H845 H 0.62945 0.71345 0.58503 0.0
H846 H 0.6237 0.79093 0.51452 0.0
H847 H 0.64709 0.79477 0.55741 0.0
H848 H 0.83634 0.70576 0.47749 0.0
H849 H 0.8428 0.69392 0.5217 0.0
H850 H 0.75454 0.66366 0.44562 0.0
H851 H 0.70901 0.69254 0.42885 0.0
C852 C 0.96382 0.72643 0.02556 0.0
C853 C 0.9832 0.7317 0.99029 0.0
C854 C 0.09224 0.77916 1.01195 0.0
C855 C 0.07094 0.76246 0.0463 0.0
N856 N 0.98131 0.70114 0.08279 0.0
N857 N 0.07155 0.75295 0.95205 0.0
C858 C 1.00528 0.73043 0.05223 0.0
C859 C 0.04885 0.75486 0.98403 0.0
N860 N 0.90703 0.7197 0.03449 0.0
N861 N 0.15388 0.82028 1.00553 0.0
H862 H 0.0465 0.74287 0.92945 0.0
H863 H 0.11611 0.75868 0.94849 0.0
H864 H 0.18699 0.84172 0.02509 0.0
H865 H 0.17048 0.8385 0.98097 0.0
H866 H 0.89267 0.71727 0.06022 0.0
H867 H 0.8791 0.72746 1.01747 0.0
H868 H 0.93372 0.67065 0.08673 0.0
H869 H 1.00967 0.7042 0.10308 0.0
C870 C 0.28889 0.01895 0.48915 0.0
C871 C 0.26637 0.95501 0.49736 0.0
C872 C 0.28922 0.98842 0.55855 0.0
C873 C 0.30065 0.05062 0.55059 0.0
N874 N 0.28911 0.11352 0.50615 0.0
N875 N 0.23505 0.87821 0.54272 0.0
C876 C 0.29352 0.06231 0.51533 0.0
C877 C 0.26435 0.93967 0.5328 0.0
N878 N 0.31167 0.04055 0.45701 0.0
N879 N 0.29992 0.97358 0.59073 0.0
H880 H 0.21129 0.84084 0.5256 0.0
H881 H 0.22778 0.86414 0.56856 0.0
H882 H 0.29995 0.99722 0.61288 0.0
H883 H 0.30554 0.93485 0.59532 0.0
H884 H 0.33541 0.08822 0.45124 0.0
H885 H 0.31238 0.01139 0.43767 0.0
H886 H 0.28076 0.12104 0.4806 0.0
H887 H 0.28434 0.14272 0.52416 0.0
loop_
_geom_bond_atom_site_label_1
_geom_bond_atom_site_label_2
_geom_bond_distance
_geom_bond_site_symmetry_2
_ccdc_geom_bond_type
Dy0 O4 2.398 . S
Dy0 O5 2.491 . S
Dy0 O6 2.403 . S
Dy0 O7 2.664 . S
Dy0 O11 2.326 . S
Dy0 O15 2.310 . S
Dy0 O16 2.351 . S
C1 O12 1.185 . S
C1 O13 1.355 . S
C2 O4 1.185 . S
C2 O5 1.355 . S
Dy3 O7 2.310 . S
Dy3 O10 2.351 . S
Dy3 O12 2.398 . S
Dy3 O13 2.491 . S
Dy3 O14 2.403 . S
Dy3 O15 2.664 . S
Dy3 O17 2.326 . S
O4 Dy0 2.398 . S
O4 C2 1.185 . S
O5 Dy0 2.491 . S
O5 C2 1.355 . S
O6 Dy0 2.403 . S
O6 C8 1.254 . S
O7 Dy0 2.664 . S
O7 Dy3 2.310 . S
O7 C8 1.268 . S
C8 O6 1.254 . S
C8 O7 1.268 . S
C9 O14 1.254 . S
C9 O15 1.268 . S
O10 Dy3 2.351 . S
O10 C18 1.249 . S
O11 Dy0 2.326 . S
O11 C18 1.267 . S
O12 C1 1.185 . S
O12 Dy3 2.398 . S
O13 C1 1.355 . S
O13 Dy3 2.491 . S
O14 Dy3 2.403 . S
O14 C9 1.254 . S
O15 Dy0 2.310 . S
O15 Dy3 2.664 . S
O15 C9 1.268 . S
O16 Dy0 2.351 . S
O16 C19 1.249 . S
O17 Dy3 2.326 . S
O17 C19 1.267 . S
C18 O10 1.249 . S
C18 O11 1.267 . S
C19 O16 1.249 . S
C19 O17 1.267 . S
Dy20 O24 2.398 . S
Dy20 O25 2.491 . S
Dy20 O26 2.403 . S
Dy20 O27 2.664 . S
Dy20 O31 2.326 . S
Dy20 O35 2.310 . S
Dy20 O36 2.351 . S
C21 O32 1.185 . S
C21 O33 1.355 . S
C22 O24 1.185 . S
C22 O25 1.355 . S
Dy23 O27 2.310 . S
Dy23 O30 2.351 . S
Dy23 O32 2.398 1_655 S
Dy23 O33 2.491 1_655 S
Dy23 O34 2.403 . S
Dy23 O35 2.664 . S
Dy23 O37 2.326 . S
O24 Dy20 2.398 . S
O24 C22 1.185 . S
O25 Dy20 2.491 . S
O25 C22 1.355 . S
O26 Dy20 2.403 . S
O26 C28 1.254 . S
O27 Dy20 2.664 . S
O27 Dy23 2.310 . S
O27 C28 1.268 . S
C28 O26 1.254 . S
C28 O27 1.268 . S
C29 O34 1.254 . S
C29 O35 1.268 . S
O30 Dy23 2.351 . S
O30 C38 1.249 . S
O31 Dy20 2.326 . S
O31 C38 1.267 . S
O32 C21 1.185 . S
O32 Dy23 2.398 1_455 S
O33 C21 1.355 . S
O33 Dy23 2.491 1_455 S
O34 Dy23 2.403 . S
O34 C29 1.254 . S
O35 Dy20 2.310 . S
O35 Dy23 2.664 . S
O35 C29 1.268 . S
O36 Dy20 2.351 . S
O36 C39 1.249 . S
O37 Dy23 2.326 . S
O37 C39 1.267 . S
C38 O30 1.249 . S
C38 O31 1.267 . S
C39 O36 1.249 . S
C39 O37 1.267 . S
Dy40 O44 2.398 . S
Dy40 O45 2.491 . S
Dy40 O46 2.403 . S
Dy40 O47 2.664 . S
Dy40 O51 2.326 . S
Dy40 O55 2.310 . S
Dy40 O56 2.351 . S
C41 O52 1.185 . S
C41 O53 1.355 . S
C42 O44 1.185 . S
C42 O45 1.355 . S
Dy43 O47 2.310 . S
Dy43 O50 2.351 . S
Dy43 O52 2.398 1_565 S
Dy43 O53 2.491 1_565 S
Dy43 O54 2.403 . S
Dy43 O55 2.664 . S
Dy43 O57 2.326 . S
O44 Dy40 2.398 . S
O44 C42 1.185 . S
O45 Dy40 2.491 . S
O45 C42 1.355 . S
O46 Dy40 2.403 . S
O46 C48 1.254 . S
O47 Dy40 2.664 . S
O47 Dy43 2.310 . S
O47 C48 1.268 . S
C48 O46 1.254 . S
C48 O47 1.268 . S
C49 O54 1.254 . S
C49 O55 1.268 . S
O50 Dy43 2.351 . S
O50 C58 1.249 . S
O51 Dy40 2.326 . S
O51 C58 1.267 . S
O52 C41 1.185 . S
O52 Dy43 2.398 1_545 S
O53 C41 1.355 . S
O53 Dy43 2.491 1_545 S
O54 Dy43 2.403 . S
O54 C49 1.254 . S
O55 Dy40 2.310 . S
O55 Dy43 2.664 . S
O55 C49 1.268 . S
O56 Dy40 2.351 . S
O56 C59 1.249 . S
O57 Dy43 2.326 . S
O57 C59 1.267 . S
C58 O50 1.249 . S
C58 O51 1.267 . S
C59 O56 1.249 . S
C59 O57 1.267 . S
Dy60 O64 2.398 . S
Dy60 O65 2.491 . S
Dy60 O66 2.403 . S
Dy60 O67 2.664 . S
Dy60 O71 2.326 . S
Dy60 O75 2.310 . S
Dy60 O76 2.351 . S
C61 O72 1.185 . S
C61 O73 1.355 . S
C62 O64 1.185 . S
C62 O65 1.355 . S
Dy63 O67 2.310 . S
Dy63 O70 2.351 . S
Dy63 O72 2.398 . S
Dy63 O73 2.491 . S
Dy63 O74 2.403 . S
Dy63 O75 2.664 . S
Dy63 O77 2.326 . S
O64 Dy60 2.398 . S
O64 C62 1.185 . S
O65 Dy60 2.491 . S
O65 C62 1.355 . S
O66 Dy60 2.403 . S
O66 C68 1.254 . S
O67 Dy60 2.664 . S
O67 Dy63 2.310 . S
O67 C68 1.268 . S
C68 O66 1.254 . S
C68 O67 1.268 . S
C69 O74 1.254 . S
C69 O75 1.268 . S
O70 Dy63 2.351 . S
O70 C78 1.249 . S
O71 Dy60 2.326 . S
O71 C78 1.267 . S
O72 C61 1.185 . S
O72 Dy63 2.398 . S
O73 C61 1.355 . S
O73 Dy63 2.491 . S
O74 Dy63 2.403 . S
O74 C69 1.254 . S
O75 Dy60 2.310 . S
O75 Dy63 2.664 . S
O75 C69 1.268 . S
O76 Dy60 2.351 . S
O76 C79 1.249 . S
O77 Dy63 2.326 . S
O77 C79 1.267 . S
C78 O70 1.249 . S
C78 O71 1.267 . S
C79 O76 1.249 . S
C79 O77 1.267 . S
Dy80 O84 2.398 . S
Dy80 O85 2.491 . S
Dy80 O86 2.403 . S
Dy80 O87 2.664 . S
Dy80 O91 2.326 . S
Dy80 O95 2.310 . S
Dy80 O96 2.351 . S
C81 O92 1.185 . S
C81 O93 1.355 . S
C82 O84 1.185 . S
C82 O85 1.355 . S
Dy83 O87 2.310 . S
Dy83 O90 2.351 . S
Dy83 O92 2.398 1_455 S
Dy83 O93 2.491 1_455 S
Dy83 O94 2.403 . S
Dy83 O95 2.664 . S
Dy83 O97 2.326 . S
O84 Dy80 2.398 . S
O84 C82 1.185 . S
O85 Dy80 2.491 . S
O85 C82 1.355 . S
O86 Dy80 2.403 . S
O86 C88 1.254 . S
O87 Dy80 2.664 . S
O87 Dy83 2.310 . S
O87 C88 1.268 . S
C88 O86 1.254 . S
C88 O87 1.268 . S
C89 O94 1.254 . S
C89 O95 1.268 . S
O90 Dy83 2.351 . S
O90 C98 1.249 . S
O91 Dy80 2.326 . S
O91 C98 1.267 . S
O92 C81 1.185 . S
O92 Dy83 2.398 1_655 S
O93 C81 1.355 . S
O93 Dy83 2.491 1_655 S
O94 Dy83 2.403 . S
O94 C89 1.254 . S
O95 Dy80 2.310 . S
O95 Dy83 2.664 . S
O95 C89 1.268 . S
O96 Dy80 2.351 . S
O96 C99 1.249 . S
O97 Dy83 2.326 . S
O97 C99 1.267 . S
C98 O90 1.249 . S
C98 O91 1.267 . S
C99 O96 1.249 . S
C99 O97 1.267 . S
Dy100 O104 2.398 . S
Dy100 O105 2.491 . S
Dy100 O106 2.403 . S
Dy100 O107 2.664 . S
Dy100 O111 2.326 . S
Dy100 O115 2.310 . S
Dy100 O116 2.351 . S
C101 O112 1.185 . S
C101 O113 1.355 . S
C102 O104 1.185 . S
C102 O105 1.355 . S
Dy103 O107 2.310 . S
Dy103 O110 2.351 . S
Dy103 O112 2.398 1_545 S
Dy103 O113 2.491 1_545 S
Dy103 O114 2.403 . S
Dy103 O115 2.664 . S
Dy103 O117 2.326 . S
O104 Dy100 2.398 . S
O104 C102 1.185 . S
O105 Dy100 2.491 . S
O105 C102 1.355 . S
O106 Dy100 2.403 . S
O106 C108 1.254 . S
O107 Dy100 2.664 . S
O107 Dy103 2.310 . S
O107 C108 1.268 . S
C108 O106 1.254 . S
C108 O107 1.268 . S
C109 O114 1.254 . S
C109 O115 1.268 . S
O110 Dy103 2.351 . S
O110 C118 1.249 . S
O111 Dy100 2.326 . S
O111 C118 1.267 . S
O112 C101 1.185 . S
O112 Dy103 2.398 1_565 S
O113 C101 1.355 . S
O113 Dy103 2.491 1_565 S
O114 Dy103 2.403 . S
O114 C109 1.254 . S
O115 Dy100 2.310 . S
O115 Dy103 2.664 . S
O115 C109 1.268 . S
O116 Dy100 2.351 . S
O116 C119 1.249 . S
O117 Dy103 2.326 . S
O117 C119 1.267 . S
C118 O110 1.249 . S
C118 O111 1.267 . S
C119 O116 1.249 . S
C119 O117 1.267 . S
Dy120 O124 2.398 . S
Dy120 O125 2.491 . S
Dy120 O126 2.403 . S
Dy120 O127 2.664 . S
Dy120 O131 2.326 . S
Dy120 O135 2.310 . S
Dy120 O136 2.351 . S
C121 O132 1.185 . S
C121 O133 1.355 . S
C122 O124 1.185 . S
C122 O125 1.355 . S
Dy123 O127 2.310 . S
Dy123 O130 2.351 . S
Dy123 O132 2.398 . S
Dy123 O133 2.491 . S
Dy123 O134 2.403 . S
Dy123 O135 2.664 . S
Dy123 O137 2.326 . S
O124 Dy120 2.398 . S
O124 C122 1.185 . S
O125 Dy120 2.491 . S
O125 C122 1.355 . S
O126 Dy120 2.403 . S
O126 C128 1.254 . S
O127 Dy120 2.664 . S
O127 Dy123 2.310 . S
O127 C128 1.268 . S
C128 O126 1.254 . S
C128 O127 1.268 . S
C129 O134 1.254 . S
C129 O135 1.268 . S
O130 Dy123 2.351 . S
O130 C138 1.249 . S
O131 Dy120 2.326 . S
O131 C138 1.267 . S
O132 C121 1.185 . S
O132 Dy123 2.398 . S
O133 C121 1.355 . S
O133 Dy123 2.491 . S
O134 Dy123 2.403 . S
O134 C129 1.254 . S
O135 Dy120 2.310 . S
O135 Dy123 2.664 . S
O135 C129 1.268 . S
O136 Dy120 2.351 . S
O136 C139 1.249 . S
O137 Dy123 2.326 . S
O137 C139 1.267 . S
C138 O130 1.249 . S
C138 O131 1.267 . S
C139 O136 1.249 . S
C139 O137 1.267 . S
Dy140 O144 2.398 . S
Dy140 O145 2.491 . S
Dy140 O146 2.403 . S
Dy140 O147 2.664 . S
Dy140 O151 2.326 . S
Dy140 O155 2.310 . S
Dy140 O156 2.351 . S
C141 O152 1.185 . S
C141 O153 1.355 . S
C142 O144 1.185 . S
C142 O145 1.355 . S
Dy143 O147 2.310 . S
Dy143 O150 2.351 . S
Dy143 O152 2.398 1_655 S
Dy143 O153 2.491 1_655 S
Dy143 O154 2.403 . S
Dy143 O155 2.664 . S
Dy143 O157 2.326 . S
O144 Dy140 2.398 . S
O144 C142 1.185 . S
O145 Dy140 2.491 . S
O145 C142 1.355 . S
O146 Dy140 2.403 . S
O146 C148 1.254 . S
O147 Dy140 2.664 . S
O147 Dy143 2.310 . S
O147 C148 1.268 . S
C148 O146 1.254 . S
C148 O147 1.268 . S
C149 O154 1.254 . S
C149 O155 1.268 . S
O150 Dy143 2.351 . S
O150 C158 1.249 . S
O151 Dy140 2.326 . S
O151 C158 1.267 . S
O152 C141 1.185 . S
O152 Dy143 2.398 1_455 S
O153 C141 1.355 . S
O153 Dy143 2.491 1_455 S
O154 Dy143 2.403 . S
O154 C149 1.254 . S
O155 Dy140 2.310 . S
O155 Dy143 2.664 . S
O155 C149 1.268 . S
O156 Dy140 2.351 . S
O156 C159 1.249 . S
O157 Dy143 2.326 . S
O157 C159 1.267 . S
C158 O150 1.249 . S
C158 O151 1.267 . S
C159 O156 1.249 . S
C159 O157 1.267 . S
Dy160 O164 2.398 . S
Dy160 O165 2.491 . S
Dy160 O166 2.403 . S
Dy160 O167 2.664 . S
Dy160 O171 2.326 . S
Dy160 O175 2.310 . S
Dy160 O176 2.351 . S
C161 O172 1.185 . S
C161 O173 1.355 . S
C162 O164 1.185 . S
C162 O165 1.355 . S
Dy163 O167 2.310 . S
Dy163 O170 2.351 . S
Dy163 O172 2.398 1_565 S
Dy163 O173 2.491 1_565 S
Dy163 O174 2.403 . S
Dy163 O175 2.664 . S
Dy163 O177 2.326 . S
O164 Dy160 2.398 . S
O164 C162 1.185 . S
O165 Dy160 2.491 . S
O165 C162 1.355 . S
O166 Dy160 2.403 . S
O166 C168 1.254 . S
O167 Dy160 2.664 . S
O167 Dy163 2.310 . S
O167 C168 1.268 . S
C168 O166 1.254 . S
C168 O167 1.268 . S
C169 O174 1.254 . S
C169 O175 1.268 . S
O170 Dy163 2.351 . S
O170 C178 1.249 . S
O171 Dy160 2.326 . S
O171 C178 1.267 . S
O172 C161 1.185 . S
O172 Dy163 2.398 1_545 S
O173 C161 1.355 . S
O173 Dy163 2.491 1_545 S
O174 Dy163 2.403 . S
O174 C169 1.254 . S
O175 Dy160 2.310 . S
O175 Dy163 2.664 . S
O175 C169 1.268 . S
O176 Dy160 2.351 . S
O176 C179 1.249 . S
O177 Dy163 2.326 . S
O177 C179 1.267 . S
C178 O170 1.249 . S
C178 O171 1.267 . S
C179 O176 1.249 . S
C179 O177 1.267 . S
Dy180 O184 2.398 . S
Dy180 O185 2.491 . S
Dy180 O186 2.403 . S
Dy180 O187 2.664 . S
Dy180 O191 2.326 . S
Dy180 O195 2.310 . S
Dy180 O196 2.351 . S
C181 O192 1.185 . S
C181 O193 1.355 . S
C182 O184 1.185 . S
C182 O185 1.355 . S
Dy183 O187 2.310 . S
Dy183 O190 2.351 . S
Dy183 O192 2.398 . S
Dy183 O193 2.491 . S
Dy183 O194 2.403 . S
Dy183 O195 2.664 . S
Dy183 O197 2.326 . S
O184 Dy180 2.398 . S
O184 C182 1.185 . S
O185 Dy180 2.491 . S
O185 C182 1.355 . S
O186 Dy180 2.403 . S
O186 C188 1.254 . S
O187 Dy180 2.664 . S
O187 Dy183 2.310 . S
O187 C188 1.268 . S
C188 O186 1.254 . S
C188 O187 1.268 . S
C189 O194 1.254 . S
C189 O195 1.268 . S
O190 Dy183 2.351 . S
O190 C198 1.249 . S
O191 Dy180 2.326 . S
O191 C198 1.267 . S
O192 C181 1.185 . S
O192 Dy183 2.398 . S
O193 C181 1.355 . S
O193 Dy183 2.491 . S
O194 Dy183 2.403 . S
O194 C189 1.254 . S
O195 Dy180 2.310 . S
O195 Dy183 2.664 . S
O195 C189 1.268 . S
O196 Dy180 2.351 . S
O196 C199 1.249 . S
O197 Dy183 2.326 . S
O197 C199 1.267 . S
C198 O190 1.249 . S
C198 O191 1.267 . S
C199 O196 1.249 . S
C199 O197 1.267 . S
Dy200 O204 2.398 . S
Dy200 O205 2.491 . S
Dy200 O206 2.403 . S
Dy200 O207 2.664 . S
Dy200 O211 2.326 . S
Dy200 O215 2.310 . S
Dy200 O216 2.351 . S
C201 O212 1.185 . S
C201 O213 1.355 . S
C202 O204 1.185 . S
C202 O205 1.355 . S
Dy203 O207 2.310 . S
Dy203 O210 2.351 . S
Dy203 O212 2.398 1_455 S
Dy203 O213 2.491 1_455 S
Dy203 O214 2.403 . S
Dy203 O215 2.664 . S
Dy203 O217 2.326 . S
O204 Dy200 2.398 . S
O204 C202 1.185 . S
O205 Dy200 2.491 . S
O205 C202 1.355 . S
O206 Dy200 2.403 . S
O206 C208 1.254 . S
O207 Dy200 2.664 . S
O207 Dy203 2.310 . S
O207 C208 1.268 . S
C208 O206 1.254 . S
C208 O207 1.268 . S
C209 O214 1.254 . S
C209 O215 1.268 . S
O210 Dy203 2.351 . S
O210 C218 1.249 . S
O211 Dy200 2.326 . S
O211 C218 1.267 . S
O212 C201 1.185 . S
O212 Dy203 2.398 1_655 S
O213 C201 1.355 . S
O213 Dy203 2.491 1_655 S
O214 Dy203 2.403 . S
O214 C209 1.254 . S
O215 Dy200 2.310 . S
O215 Dy203 2.664 . S
O215 C209 1.268 . S
O216 Dy200 2.351 . S
O216 C219 1.249 . S
O217 Dy203 2.326 . S
O217 C219 1.267 . S
C218 O210 1.249 . S
C218 O211 1.267 . S
C219 O216 1.249 . S
C219 O217 1.267 . S
Dy220 O224 2.398 . S
Dy220 O225 2.491 . S
Dy220 O226 2.403 . S
Dy220 O227 2.664 . S
Dy220 O231 2.326 . S
Dy220 O235 2.310 . S
Dy220 O236 2.351 . S
C221 O232 1.185 . S
C221 O233 1.355 . S
C222 O224 1.185 . S
C222 O225 1.355 . S
Dy223 O227 2.310 . S
Dy223 O230 2.351 . S
Dy223 O232 2.398 1_545 S
Dy223 O233 2.491 1_545 S
Dy223 O234 2.403 . S
Dy223 O235 2.664 . S
Dy223 O237 2.326 . S
O224 Dy220 2.398 . S
O224 C222 1.185 . S
O225 Dy220 2.491 . S
O225 C222 1.355 . S
O226 Dy220 2.403 . S
O226 C228 1.254 . S
O227 Dy220 2.664 . S
O227 Dy223 2.310 . S
O227 C228 1.268 . S
C228 O226 1.254 . S
C228 O227 1.268 . S
C229 O234 1.254 . S
C229 O235 1.268 . S
O230 Dy223 2.351 . S
O230 C238 1.249 . S
O231 Dy220 2.326 . S
O231 C238 1.267 . S
O232 C221 1.185 . S
O232 Dy223 2.398 1_565 S
O233 C221 1.355 . S
O233 Dy223 2.491 1_565 S
O234 Dy223 2.403 . S
O234 C229 1.254 . S
O235 Dy220 2.310 . S
O235 Dy223 2.664 . S
O235 C229 1.268 . S
O236 Dy220 2.351 . S
O236 C239 1.249 . S
O237 Dy223 2.326 . S
O237 C239 1.267 . S
C238 O230 1.249 . S
C238 O231 1.267 . S
C239 O236 1.249 . S
C239 O237 1.267 . S
C240 C241 1.363 1_545 S
C240 C246 1.379 . S
C240 N248 1.356 1_545 S
C241 C240 1.363 1_565 S
C241 C247 1.363 . S
C242 C243 1.363 . S
C242 C247 1.379 1_545 S
C242 N249 1.356 . S
C243 C242 1.363 . S
C243 C246 1.363 . S
N244 C246 1.356 . S
N244 H256 0.984 . S
N244 H257 0.985 . S
N245 C247 1.356 . S
N245 H250 0.984 . S
N245 H251 0.985 . S
C246 C240 1.379 . S
C246 C243 1.363 . S
C246 N244 1.356 . S
C247 C241 1.363 . S
C247 C242 1.379 1_565 S
C247 N245 1.356 . S
N248 C240 1.356 1_565 S
N248 H254 0.984 1_565 S
N248 H255 0.984 . S
N249 C242 1.356 . S
N249 H252 0.984 . S
N249 H253 0.985 . S
H250 N245 0.984 . S
H251 N245 0.985 . S
H252 N249 0.984 . S
H253 N249 0.985 . S
H254 N248 0.984 1_545 S
H255 N248 0.984 . S
H256 N244 0.984 . S
H257 N244 0.985 . S
C258 C259 1.363 . S
C258 C264 1.379 . S
C258 N266 1.356 . S
C259 C258 1.363 . S
C259 C265 1.363 . S
C260 C261 1.363 . S
C260 C265 1.379 . S
C260 N267 1.356 . S
C261 C260 1.363 . S
C261 C264 1.363 . S
N262 C264 1.356 . S
N262 H274 0.984 . S
N262 H275 0.985 . S
N263 C265 1.356 . S
N263 H268 0.984 . S
N263 H269 0.985 . S
C264 C258 1.379 . S
C264 C261 1.363 . S
C264 N262 1.356 . S
C265 C259 1.363 . S
C265 C260 1.379 . S
C265 N263 1.356 . S
N266 C258 1.356 . S
N266 H272 0.984 . S
N266 H273 0.984 . S
N267 C260 1.356 . S
N267 H270 0.984 . S
N267 H271 0.985 . S
H268 N263 0.984 . S
H269 N263 0.985 . S
H270 N267 0.984 . S
H271 N267 0.985 . S
H272 N266 0.984 . S
H273 N266 0.984 . S
H274 N262 0.984 . S
H275 N262 0.985 . S
C276 C277 1.363 . S
C276 C282 1.379 1_655 S
C276 N284 1.356 . S
C277 C276 1.363 . S
C277 C283 1.363 . S
C278 C279 1.363 1_655 S
C278 C283 1.379 . S
C278 N285 1.356 1_655 S
C279 C278 1.363 1_455 S
C279 C282 1.363 . S
N280 C282 1.356 . S
N280 H292 0.984 . S
N280 H293 0.985 . S
N281 C283 1.356 . S
N281 H286 0.984 . S
N281 H287 0.985 . S
C282 C276 1.379 1_455 S
C282 C279 1.363 . S
C282 N280 1.356 . S
C283 C277 1.363 . S
C283 C278 1.379 . S
C283 N281 1.356 . S
N284 C276 1.356 . S
N284 H290 0.984 1_545 S
N284 H291 0.984 1_545 S
N285 C278 1.356 1_455 S
N285 H288 0.984 . S
N285 H289 0.985 . S
H286 N281 0.984 . S
H287 N281 0.985 . S
H288 N285 0.984 . S
H289 N285 0.985 . S
H290 N284 0.984 1_565 S
H291 N284 0.984 1_565 S
H292 N280 0.984 . S
H293 N280 0.985 . S
C294 C295 1.363 . S
C294 C300 1.379 . S
C294 N302 1.356 . S
C295 C294 1.363 . S
C295 C301 1.363 . S
C296 C297 1.363 . S
C296 C301 1.379 1_545 S
C296 N303 1.356 . S
C297 C296 1.363 . S
C297 C300 1.363 1_545 S
N298 C300 1.356 1_545 S
N298 H310 0.984 . S
N298 H311 0.985 . S
N299 C301 1.356 . S
N299 H304 0.984 . S
N299 H305 0.985 . S
C300 C294 1.379 . S
C300 C297 1.363 1_565 S
C300 N298 1.356 1_565 S
C301 C295 1.363 . S
C301 C296 1.379 1_565 S
C301 N299 1.356 . S
N302 C294 1.356 . S
N302 H308 0.984 . S
N302 H309 0.984 . S
N303 C296 1.356 . S
N303 H306 0.984 . S
N303 H307 0.985 . S
H304 N299 0.984 . S
H305 N299 0.985 . S
H306 N303 0.984 . S
H307 N303 0.985 . S
H308 N302 0.984 . S
H309 N302 0.984 . S
H310 N298 0.984 . S
H311 N298 0.985 . S
C312 C313 1.363 . S
C312 C318 1.379 . S
C312 N320 1.356 . S
C313 C312 1.363 . S
C313 C319 1.363 . S
C314 C315 1.363 . S
C314 C319 1.379 . S
C314 N321 1.356 . S
C315 C314 1.363 . S
C315 C318 1.363 . S
N316 C318 1.356 . S
N316 H328 0.984 . S
N316 H329 0.985 . S
N317 C319 1.356 . S
N317 H322 0.984 . S
N317 H323 0.985 . S
C318 C312 1.379 . S
C318 C315 1.363 . S
C318 N316 1.356 . S
C319 C313 1.363 . S
C319 C314 1.379 . S
C319 N317 1.356 . S
N320 C312 1.356 . S
N320 H326 0.984 . S
N320 H327 0.984 . S
N321 C314 1.356 . S
N321 H324 0.984 . S
N321 H325 0.985 . S
H322 N317 0.984 . S
H323 N317 0.985 . S
H324 N321 0.984 . S
H325 N321 0.985 . S
H326 N320 0.984 . S
H327 N320 0.984 . S
H328 N316 0.984 . S
H329 N316 0.985 . S
C330 C331 1.363 1_455 S
C330 C336 1.379 . S
C330 N338 1.356 1_455 S
C331 C330 1.363 1_655 S
C331 C337 1.363 . S
C332 C333 1.363 . S
C332 C337 1.379 1_455 S
C332 N339 1.356 . S
C333 C332 1.363 . S
C333 C336 1.363 . S
N334 C336 1.356 . S
N334 H346 0.984 . S
N334 H347 0.985 . S
N335 C337 1.356 . S
N335 H340 0.984 . S
N335 H341 0.985 . S
C336 C330 1.379 . S
C336 C333 1.363 . S
C336 N334 1.356 . S
C337 C331 1.363 . S
C337 C332 1.379 1_655 S
C337 N335 1.356 . S
N338 C330 1.356 1_655 S
N338 H344 0.984 . S
N338 H345 0.984 . S
N339 C332 1.356 . S
N339 H342 0.984 . S
N339 H343 0.985 . S
H340 N335 0.984 . S
H341 N335 0.985 . S
H342 N339 0.984 . S
H343 N339 0.985 . S
H344 N338 0.984 . S
H345 N338 0.984 . S
H346 N334 0.984 . S
H347 N334 0.985 . S
C348 C349 1.363 . S
C348 C354 1.379 1_455 S
C348 N356 1.356 . S
C349 C348 1.363 . S
C349 C355 1.363 1_455 S
C350 C351 1.363 . S
C350 C355 1.379 . S
C350 N357 1.356 . S
C351 C350 1.363 . S
C351 C354 1.363 . S
N352 C354 1.356 . S
N352 H364 0.984 . S
N352 H365 0.985 . S
N353 C355 1.356 1_455 S
N353 H358 0.984 . S
N353 H359 0.985 1_455 S
C354 C348 1.379 1_655 S
C354 C351 1.363 . S
C354 N352 1.356 . S
C355 C349 1.363 1_655 S
C355 C350 1.379 . S
C355 N353 1.356 1_655 S
N356 C348 1.356 . S
N356 H362 0.984 . S
N356 H363 0.984 . S
N357 C350 1.356 . S
N357 H360 0.984 . S
N357 H361 0.985 . S
H358 N353 0.984 . S
H359 N353 0.985 1_655 S
H360 N357 0.984 . S
H361 N357 0.985 . S
H362 N356 0.984 . S
H363 N356 0.984 . S
H364 N352 0.984 . S
H365 N352 0.985 . S
C366 C367 1.363 . S
C366 C372 1.379 . S
C366 N374 1.356 . S
C367 C366 1.363 . S
C367 C373 1.363 . S
C368 C369 1.363 . S
C368 C373 1.379 1_545 S
C368 N375 1.356 . S
C369 C368 1.363 . S
C369 C372 1.363 1_545 S
N370 C372 1.356 1_545 S
N370 H382 0.984 1_545 S
N370 H383 0.985 . S
N371 C373 1.356 . S
N371 H376 0.984 . S
N371 H377 0.985 . S
C372 C366 1.379 . S
C372 C369 1.363 1_565 S
C372 N370 1.356 1_565 S
C373 C367 1.363 . S
C373 C368 1.379 1_565 S
C373 N371 1.356 . S
N374 C366 1.356 . S
N374 H380 0.984 . S
N374 H381 0.984 . S
N375 C368 1.356 . S
N375 H378 0.984 . S
N375 H379 0.985 . S
H376 N371 0.984 . S
H377 N371 0.985 . S
H378 N375 0.984 . S
H379 N375 0.985 . S
H380 N374 0.984 . S
H381 N374 0.984 . S
H382 N370 0.984 1_565 S
H383 N370 0.985 . S
C384 C385 1.363 . S
C384 C390 1.379 . S
C384 N392 1.356 . S
C385 C384 1.363 . S
C385 C391 1.363 . S
C386 C387 1.363 . S
C386 C391 1.379 . S
C386 N393 1.356 . S
C387 C386 1.363 . S
C387 C390 1.363 . S
N388 C390 1.356 . S
N388 H400 0.984 . S
N388 H401 0.985 . S
N389 C391 1.356 . S
N389 H394 0.984 . S
N389 H395 0.985 . S
C390 C384 1.379 . S
C390 C387 1.363 . S
C390 N388 1.356 . S
C391 C385 1.363 . S
C391 C386 1.379 . S
C391 N389 1.356 . S
N392 C384 1.356 . S
N392 H398 0.984 . S
N392 H399 0.984 . S
N393 C386 1.356 . S
N393 H396 0.984 . S
N393 H397 0.985 . S
H394 N389 0.984 . S
H395 N389 0.985 . S
H396 N393 0.984 . S
H397 N393 0.985 . S
H398 N392 0.984 . S
H399 N392 0.984 . S
H400 N388 0.984 . S
H401 N388 0.985 . S
C402 C403 1.363 . S
C402 C408 1.379 . S
C402 N410 1.356 . S
C403 C402 1.363 . S
C403 C409 1.363 . S
C404 C405 1.363 . S
C404 C409 1.379 1_655 S
C404 N411 1.356 . S
C405 C404 1.363 . S
C405 C408 1.363 1_655 S
N406 C408 1.356 1_655 S
N406 H418 0.984 . S
N406 H419 0.985 . S
N407 C409 1.356 . S
N407 H412 0.984 . S
N407 H413 0.985 . S
C408 C402 1.379 . S
C408 C405 1.363 1_455 S
C408 N406 1.356 1_455 S
C409 C403 1.363 . S
C409 C404 1.379 1_455 S
C409 N407 1.356 . S
N410 C402 1.356 . S
N410 H416 0.984 . S
N410 H417 0.984 . S
N411 C404 1.356 . S
N411 H414 0.984 . S
N411 H415 0.985 . S
H412 N407 0.984 . S
H413 N407 0.985 . S
H414 N411 0.984 . S
H415 N411 0.985 . S
H416 N410 0.984 . S
H417 N410 0.984 . S
H418 N406 0.984 . S
H419 N406 0.985 . S
C420 C421 1.363 . S
C420 C426 1.379 . S
C420 N428 1.356 . S
C421 C420 1.363 . S
C421 C427 1.363 . S
C422 C423 1.363 1_545 S
C422 C427 1.379 . S
C422 N429 1.356 1_545 S
C423 C422 1.363 1_565 S
C423 C426 1.363 1_565 S
N424 C426 1.356 1_565 S
N424 H436 0.984 . S
N424 H437 0.985 . S
N425 C427 1.356 . S
N425 H430 0.984 . S
N425 H431 0.985 . S
C426 C420 1.379 . S
C426 C423 1.363 1_545 S
C426 N424 1.356 1_545 S
C427 C421 1.363 . S
C427 C422 1.379 . S
C427 N425 1.356 . S
N428 C420 1.356 . S
N428 H434 0.984 . S
N428 H435 0.984 . S
N429 C422 1.356 1_565 S
N429 H432 0.984 . S
N429 H433 0.985 . S
H430 N425 0.984 . S
H431 N425 0.985 . S
H432 N429 0.984 . S
H433 N429 0.985 . S
H434 N428 0.984 . S
H435 N428 0.984 . S
H436 N424 0.984 . S
H437 N424 0.985 . S
C438 C439 1.363 . S
C438 C444 1.379 . S
C438 N446 1.356 . S
C439 C438 1.363 . S
C439 C445 1.363 . S
C440 C441 1.363 . S
C440 C445 1.379 . S
C440 N447 1.356 . S
C441 C440 1.363 . S
C441 C444 1.363 . S
N442 C444 1.356 . S
N442 H454 0.984 . S
N442 H455 0.985 . S
N443 C445 1.356 . S
N443 H448 0.984 . S
N443 H449 0.985 . S
C444 C438 1.379 . S
C444 C441 1.363 . S
C444 N442 1.356 . S
C445 C439 1.363 . S
C445 C440 1.379 . S
C445 N443 1.356 . S
N446 C438 1.356 . S
N446 H452 0.984 . S
N446 H453 0.984 . S
N447 C440 1.356 . S
N447 H450 0.984 . S
N447 H451 0.985 . S
H448 N443 0.984 . S
H449 N443 0.985 . S
H450 N447 0.984 . S
H451 N447 0.985 . S
H452 N446 0.984 . S
H453 N446 0.984 . S
H454 N442 0.984 . S
H455 N442 0.985 . S
C456 C457 1.363 . S
C456 C462 1.379 . S
C456 N464 1.356 . S
C457 C456 1.363 . S
C457 C463 1.363 . S
C458 C459 1.363 . S
C458 C463 1.379 . S
C458 N465 1.356 . S
C459 C458 1.363 . S
C459 C462 1.363 . S
N460 C462 1.356 . S
N460 H472 0.984 . S
N460 H473 0.985 . S
N461 C463 1.356 . S
N461 H466 0.984 . S
N461 H467 0.985 . S
C462 C456 1.379 . S
C462 C459 1.363 . S
C462 N460 1.356 . S
C463 C457 1.363 . S
C463 C458 1.379 . S
C463 N461 1.356 . S
N464 C456 1.356 . S
N464 H470 0.984 . S
N464 H471 0.984 . S
N465 C458 1.356 . S
N465 H468 0.984 . S
N465 H469 0.985 . S
H466 N461 0.984 . S
H467 N461 0.985 . S
H468 N465 0.984 . S
H469 N465 0.985 . S
H470 N464 0.984 . S
H471 N464 0.984 . S
H472 N460 0.984 . S
H473 N460 0.985 . S
C474 C475 1.363 . S
C474 C480 1.379 . S
C474 N482 1.356 . S
C475 C474 1.363 . S
C475 C481 1.363 . S
C476 C477 1.363 . S
C476 C481 1.379 . S
C476 N483 1.356 . S
C477 C476 1.363 . S
C477 C480 1.363 . S
N478 C480 1.356 . S
N478 H490 0.984 . S
N478 H491 0.985 . S
N479 C481 1.356 . S
N479 H484 0.984 . S
N479 H485 0.985 . S
C480 C474 1.379 . S
C480 C477 1.363 . S
C480 N478 1.356 . S
C481 C475 1.363 . S
C481 C476 1.379 . S
C481 N479 1.356 . S
N482 C474 1.356 . S
N482 H488 0.984 . S
N482 H489 0.984 . S
N483 C476 1.356 . S
N483 H486 0.984 . S
N483 H487 0.985 . S
H484 N479 0.984 . S
H485 N479 0.985 . S
H486 N483 0.984 . S
H487 N483 0.985 . S
H488 N482 0.984 . S
H489 N482 0.984 . S
H490 N478 0.984 . S
H491 N478 0.985 . S
C492 C493 1.363 . S
C492 C498 1.379 . S
C492 N500 1.356 . S
C493 C492 1.363 . S
C493 C499 1.363 . S
C494 C495 1.363 . S
C494 C499 1.379 . S
C494 N501 1.356 . S
C495 C494 1.363 . S
C495 C498 1.363 . S
N496 C498 1.356 . S
N496 H508 0.984 . S
N496 H509 0.985 . S
N497 C499 1.356 . S
N497 H502 0.984 . S
N497 H503 0.985 . S
C498 C492 1.379 . S
C498 C495 1.363 . S
C498 N496 1.356 . S
C499 C493 1.363 . S
C499 C494 1.379 . S
C499 N497 1.356 . S
N500 C492 1.356 . S
N500 H506 0.984 . S
N500 H507 0.984 . S
N501 C494 1.356 . S
N501 H504 0.984 . S
N501 H505 0.985 . S
H502 N497 0.984 . S
H503 N497 0.985 . S
H504 N501 0.984 . S
H505 N501 0.985 . S
H506 N500 0.984 . S
H507 N500 0.984 . S
H508 N496 0.984 . S
H509 N496 0.985 . S
C510 C511 1.363 . S
C510 C516 1.379 . S
C510 N518 1.356 . S
C511 C510 1.363 . S
C511 C517 1.363 . S
C512 C513 1.363 . S
C512 C517 1.379 . S
C512 N519 1.356 . S
C513 C512 1.363 . S
C513 C516 1.363 . S
N514 C516 1.356 . S
N514 H526 0.984 . S
N514 H527 0.985 . S
N515 C517 1.356 . S
N515 H520 0.984 . S
N515 H521 0.985 . S
C516 C510 1.379 . S
C516 C513 1.363 . S
C516 N514 1.356 . S
C517 C511 1.363 . S
C517 C512 1.379 . S
C517 N515 1.356 . S
N518 C510 1.356 . S
N518 H524 0.984 . S
N518 H525 0.984 . S
N519 C512 1.356 . S
N519 H522 0.984 . S
N519 H523 0.985 . S
H520 N515 0.984 . S
H521 N515 0.985 . S
H522 N519 0.984 . S
H523 N519 0.985 . S
H524 N518 0.984 . S
H525 N518 0.984 . S
H526 N514 0.984 . S
H527 N514 0.985 . S
C528 C529 1.363 . S
C528 C534 1.379 . S
C528 N536 1.356 . S
C529 C528 1.363 . S
C529 C535 1.363 . S
C530 C531 1.363 . S
C530 C535 1.379 . S
C530 N537 1.356 . S
C531 C530 1.363 . S
C531 C534 1.363 . S
N532 C534 1.356 . S
N532 H544 0.984 . S
N532 H545 0.985 . S
N533 C535 1.356 . S
N533 H538 0.984 . S
N533 H539 0.985 . S
C534 C528 1.379 . S
C534 C531 1.363 . S
C534 N532 1.356 . S
C535 C529 1.363 . S
C535 C530 1.379 . S
C535 N533 1.356 . S
N536 C528 1.356 . S
N536 H542 0.984 . S
N536 H543 0.984 . S
N537 C530 1.356 . S
N537 H540 0.984 . S
N537 H541 0.985 . S
H538 N533 0.984 . S
H539 N533 0.985 . S
H540 N537 0.984 . S
H541 N537 0.985 . S
H542 N536 0.984 . S
H543 N536 0.984 . S
H544 N532 0.984 . S
H545 N532 0.985 . S
C546 C547 1.363 . S
C546 C552 1.379 . S
C546 N554 1.356 . S
C547 C546 1.363 . S
C547 C553 1.363 . S
C548 C549 1.363 . S
C548 C553 1.379 . S
C548 N555 1.356 . S
C549 C548 1.363 . S
C549 C552 1.363 . S
N550 C552 1.356 . S
N550 H562 0.984 . S
N550 H563 0.985 . S
N551 C553 1.356 . S
N551 H556 0.984 . S
N551 H557 0.985 . S
C552 C546 1.379 . S
C552 C549 1.363 . S
C552 N550 1.356 . S
C553 C547 1.363 . S
C553 C548 1.379 . S
C553 N551 1.356 . S
N554 C546 1.356 . S
N554 H560 0.984 . S
N554 H561 0.984 . S
N555 C548 1.356 . S
N555 H558 0.984 . S
N555 H559 0.985 . S
H556 N551 0.984 . S
H557 N551 0.985 . S
H558 N555 0.984 . S
H559 N555 0.985 . S
H560 N554 0.984 . S
H561 N554 0.984 . S
H562 N550 0.984 . S
H563 N550 0.985 . S
C564 C565 1.363 . S
C564 C570 1.379 . S
C564 N572 1.356 . S
C565 C564 1.363 . S
C565 C571 1.363 . S
C566 C567 1.363 . S
C566 C571 1.379 . S
C566 N573 1.356 . S
C567 C566 1.363 . S
C567 C570 1.363 . S
N568 C570 1.356 . S
N568 H580 0.984 . S
N568 H581 0.985 . S
N569 C571 1.356 . S
N569 H574 0.984 . S
N569 H575 0.985 . S
C570 C564 1.379 . S
C570 C567 1.363 . S
C570 N568 1.356 . S
C571 C565 1.363 . S
C571 C566 1.379 . S
C571 N569 1.356 . S
N572 C564 1.356 . S
N572 H578 0.984 . S
N572 H579 0.984 . S
N573 C566 1.356 . S
N573 H576 0.984 . S
N573 H577 0.985 . S
H574 N569 0.984 . S
H575 N569 0.985 . S
H576 N573 0.984 . S
H577 N573 0.985 . S
H578 N572 0.984 . S
H579 N572 0.984 . S
H580 N568 0.984 . S
H581 N568 0.985 . S
C582 C583 1.363 . S
C582 C588 1.379 . S
C582 N590 1.356 . S
C583 C582 1.363 . S
C583 C589 1.363 . S
C584 C585 1.363 . S
C584 C589 1.379 . S
C584 N591 1.356 . S
C585 C584 1.363 . S
C585 C588 1.363 . S
N586 C588 1.356 . S
N586 H598 0.984 . S
N586 H599 0.985 . S
N587 C589 1.356 . S
N587 H592 0.984 . S
N587 H593 0.985 . S
C588 C582 1.379 . S
C588 C585 1.363 . S
C588 N586 1.356 . S
C589 C583 1.363 . S
C589 C584 1.379 . S
C589 N587 1.356 . S
N590 C582 1.356 . S
N590 H596 0.984 . S
N590 H597 0.984 . S
N591 C584 1.356 . S
N591 H594 0.984 . S
N591 H595 0.985 . S
H592 N587 0.984 . S
H593 N587 0.985 . S
H594 N591 0.984 . S
H595 N591 0.985 . S
H596 N590 0.984 . S
H597 N590 0.984 . S
H598 N586 0.984 . S
H599 N586 0.985 . S
C600 C601 1.363 . S
C600 C606 1.379 . S
C600 N608 1.356 . S
C601 C600 1.363 . S
C601 C607 1.363 . S
C602 C603 1.363 . S
C602 C607 1.379 . S
C602 N609 1.356 . S
C603 C602 1.363 . S
C603 C606 1.363 . S
N604 C606 1.356 . S
N604 H616 0.984 . S
N604 H617 0.985 . S
N605 C607 1.356 . S
N605 H610 0.984 . S
N605 H611 0.985 . S
C606 C600 1.379 . S
C606 C603 1.363 . S
C606 N604 1.356 . S
C607 C601 1.363 . S
C607 C602 1.379 . S
C607 N605 1.356 . S
N608 C600 1.356 . S
N608 H614 0.984 . S
N608 H615 0.984 . S
N609 C602 1.356 . S
N609 H612 0.984 . S
N609 H613 0.985 . S
H610 N605 0.984 . S
H611 N605 0.985 . S
H612 N609 0.984 . S
H613 N609 0.985 . S
H614 N608 0.984 . S
H615 N608 0.984 . S
H616 N604 0.984 . S
H617 N604 0.985 . S
C618 C619 1.363 . S
C618 C624 1.379 . S
C618 N626 1.356 . S
C619 C618 1.363 . S
C619 C625 1.363 . S
C620 C621 1.363 . S
C620 C625 1.379 . S
C620 N627 1.356 . S
C621 C620 1.363 . S
C621 C624 1.363 . S
N622 C624 1.356 . S
N622 H634 0.984 . S
N622 H635 0.985 . S
N623 C625 1.356 . S
N623 H628 0.984 . S
N623 H629 0.985 . S
C624 C618 1.379 . S
C624 C621 1.363 . S
C624 N622 1.356 . S
C625 C619 1.363 . S
C625 C620 1.379 . S
C625 N623 1.356 . S
N626 C618 1.356 . S
N626 H632 0.984 . S
N626 H633 0.984 . S
N627 C620 1.356 . S
N627 H630 0.984 . S
N627 H631 0.985 . S
H628 N623 0.984 . S
H629 N623 0.985 . S
H630 N627 0.984 . S
H631 N627 0.985 . S
H632 N626 0.984 . S
H633 N626 0.984 . S
H634 N622 0.984 . S
H635 N622 0.985 . S
C636 C637 1.363 . S
C636 C642 1.379 . S
C636 N644 1.356 . S
C637 C636 1.363 . S
C637 C643 1.363 . S
C638 C639 1.363 . S
C638 C643 1.379 . S
C638 N645 1.356 . S
C639 C638 1.363 . S
C639 C642 1.363 . S
N640 C642 1.356 . S
N640 H652 0.984 . S
N640 H653 0.985 . S
N641 C643 1.356 . S
N641 H646 0.984 . S
N641 H647 0.985 . S
C642 C636 1.379 . S
C642 C639 1.363 . S
C642 N640 1.356 . S
C643 C637 1.363 . S
C643 C638 1.379 . S
C643 N641 1.356 . S
N644 C636 1.356 . S
N644 H650 0.984 . S
N644 H651 0.984 . S
N645 C638 1.356 . S
N645 H648 0.984 . S
N645 H649 0.985 . S
H646 N641 0.984 . S
H647 N641 0.985 . S
H648 N645 0.984 . S
H649 N645 0.985 . S
H650 N644 0.984 . S
H651 N644 0.984 . S
H652 N640 0.984 . S
H653 N640 0.985 . S
C654 C655 1.363 . S
C654 C660 1.379 . S
C654 N662 1.356 . S
C655 C654 1.363 . S
C655 C661 1.363 . S
C656 C657 1.363 . S
C656 C661 1.379 . S
C656 N663 1.356 . S
C657 C656 1.363 . S
C657 C660 1.363 . S
N658 C660 1.356 . S
N658 H670 0.984 . S
N658 H671 0.985 . S
N659 C661 1.356 . S
N659 H664 0.984 . S
N659 H665 0.985 . S
C660 C654 1.379 . S
C660 C657 1.363 . S
C660 N658 1.356 . S
C661 C655 1.363 . S
C661 C656 1.379 . S
C661 N659 1.356 . S
N662 C654 1.356 . S
N662 H668 0.984 . S
N662 H669 0.984 . S
N663 C656 1.356 . S
N663 H666 0.984 . S
N663 H667 0.985 . S
H664 N659 0.984 . S
H665 N659 0.985 . S
H666 N663 0.984 . S
H667 N663 0.985 . S
H668 N662 0.984 . S
H669 N662 0.984 . S
H670 N658 0.984 . S
H671 N658 0.985 . S
C672 C673 1.363 . S
C672 C678 1.379 . S
C672 N680 1.356 . S
C673 C672 1.363 . S
C673 C679 1.363 . S
C674 C675 1.363 . S
C674 C679 1.379 . S
C674 N681 1.356 . S
C675 C674 1.363 . S
C675 C678 1.363 . S
N676 C678 1.356 . S
N676 H688 0.984 . S
N676 H689 0.985 . S
N677 C679 1.356 . S
N677 H682 0.984 . S
N677 H683 0.985 . S
C678 C672 1.379 . S
C678 C675 1.363 . S
C678 N676 1.356 . S
C679 C673 1.363 . S
C679 C674 1.379 . S
C679 N677 1.356 . S
N680 C672 1.356 . S
N680 H686 0.984 . S
N680 H687 0.984 . S
N681 C674 1.356 . S
N681 H684 0.984 . S
N681 H685 0.985 . S
H682 N677 0.984 . S
H683 N677 0.985 . S
H684 N681 0.984 . S
H685 N681 0.985 . S
H686 N680 0.984 . S
H687 N680 0.984 . S
H688 N676 0.984 . S
H689 N676 0.985 . S
C690 C691 1.363 . S
C690 C696 1.379 . S
C690 N698 1.356 . S
C691 C690 1.363 . S
C691 C697 1.363 . S
C692 C693 1.363 . S
C692 C697 1.379 . S
C692 N699 1.356 . S
C693 C692 1.363 . S
C693 C696 1.363 . S
N694 C696 1.356 . S
N694 H706 0.984 . S
N694 H707 0.985 . S
N695 C697 1.356 . S
N695 H700 0.984 . S
N695 H701 0.985 . S
C696 C690 1.379 . S
C696 C693 1.363 . S
C696 N694 1.356 . S
C697 C691 1.363 . S
C697 C692 1.379 . S
C697 N695 1.356 . S
N698 C690 1.356 . S
N698 H704 0.984 . S
N698 H705 0.984 . S
N699 C692 1.356 . S
N699 H702 0.984 . S
N699 H703 0.985 . S
H700 N695 0.984 . S
H701 N695 0.985 . S
H702 N699 0.984 . S
H703 N699 0.985 . S
H704 N698 0.984 . S
H705 N698 0.984 . S
H706 N694 0.984 . S
H707 N694 0.985 . S
C708 C709 1.363 . S
C708 C714 1.379 . S
C708 N716 1.356 . S
C709 C708 1.363 . S
C709 C715 1.363 . S
C710 C711 1.363 . S
C710 C715 1.379 . S
C710 N717 1.356 . S
C711 C710 1.363 . S
C711 C714 1.363 . S
N712 C714 1.356 . S
N712 H724 0.984 . S
N712 H725 0.985 . S
N713 C715 1.356 . S
N713 H718 0.984 . S
N713 H719 0.985 . S
C714 C708 1.379 . S
C714 C711 1.363 . S
C714 N712 1.356 . S
C715 C709 1.363 . S
C715 C710 1.379 . S
C715 N713 1.356 . S
N716 C708 1.356 . S
N716 H722 0.984 . S
N716 H723 0.984 . S
N717 C710 1.356 . S
N717 H720 0.984 . S
N717 H721 0.985 . S
H718 N713 0.984 . S
H719 N713 0.985 . S
H720 N717 0.984 . S
H721 N717 0.985 . S
H722 N716 0.984 . S
H723 N716 0.984 . S
H724 N712 0.984 . S
H725 N712 0.985 . S
C726 C727 1.363 . S
C726 C732 1.379 . S
C726 N734 1.356 . S
C727 C726 1.363 . S
C727 C733 1.363 . S
C728 C729 1.363 . S
C728 C733 1.379 . S
C728 N735 1.356 . S
C729 C728 1.363 . S
C729 C732 1.363 . S
N730 C732 1.356 . S
N730 H742 0.984 . S
N730 H743 0.985 . S
N731 C733 1.356 . S
N731 H736 0.984 . S
N731 H737 0.985 . S
C732 C726 1.379 . S
C732 C729 1.363 . S
C732 N730 1.356 . S
C733 C727 1.363 . S
C733 C728 1.379 . S
C733 N731 1.356 . S
N734 C726 1.356 . S
N734 H740 0.984 . S
N734 H741 0.984 . S
N735 C728 1.356 . S
N735 H738 0.984 . S
N735 H739 0.985 . S
H736 N731 0.984 . S
H737 N731 0.985 . S
H738 N735 0.984 . S
H739 N735 0.985 . S
H740 N734 0.984 . S
H741 N734 0.984 . S
H742 N730 0.984 . S
H743 N730 0.985 . S
C744 C745 1.363 . S
C744 C750 1.379 . S
C744 N752 1.356 . S
C745 C744 1.363 . S
C745 C751 1.363 . S
C746 C747 1.363 . S
C746 C751 1.379 . S
C746 N753 1.356 . S
C747 C746 1.363 . S
C747 C750 1.363 . S
N748 C750 1.356 . S
N748 H760 0.984 . S
N748 H761 0.985 . S
N749 C751 1.356 . S
N749 H754 0.984 . S
N749 H755 0.985 . S
C750 C744 1.379 . S
C750 C747 1.363 . S
C750 N748 1.356 . S
C751 C745 1.363 . S
C751 C746 1.379 . S
C751 N749 1.356 . S
N752 C744 1.356 . S
N752 H758 0.984 . S
N752 H759 0.984 . S
N753 C746 1.356 . S
N753 H756 0.984 . S
N753 H757 0.985 . S
H754 N749 0.984 . S
H755 N749 0.985 . S
H756 N753 0.984 . S
H757 N753 0.985 . S
H758 N752 0.984 . S
H759 N752 0.984 . S
H760 N748 0.984 . S
H761 N748 0.985 . S
C762 C763 1.363 . S
C762 C768 1.379 . S
C762 N770 1.356 . S
C763 C762 1.363 . S
C763 C769 1.363 . S
C764 C765 1.363 . S
C764 C769 1.379 . S
C764 N771 1.356 . S
C765 C764 1.363 . S
C765 C768 1.363 . S
N766 C768 1.356 . S
N766 H778 0.984 . S
N766 H779 0.985 . S
N767 C769 1.356 . S
N767 H772 0.984 . S
N767 H773 0.985 . S
C768 C762 1.379 . S
C768 C765 1.363 . S
C768 N766 1.356 . S
C769 C763 1.363 . S
C769 C764 1.379 . S
C769 N767 1.356 . S
N770 C762 1.356 . S
N770 H776 0.984 . S
N770 H777 0.984 . S
N771 C764 1.356 . S
N771 H774 0.984 . S
N771 H775 0.985 . S
H772 N767 0.984 . S
H773 N767 0.985 . S
H774 N771 0.984 . S
H775 N771 0.985 . S
H776 N770 0.984 . S
H777 N770 0.984 . S
H778 N766 0.984 . S
H779 N766 0.985 . S
C780 C781 1.363 . S
C780 C786 1.379 . S
C780 N788 1.356 . S
C781 C780 1.363 . S
C781 C787 1.363 1_556 S
C782 C783 1.363 . S
C782 C787 1.379 . S
C782 N789 1.356 . S
C783 C782 1.363 . S
C783 C786 1.363 1_554 S
N784 C786 1.356 . S
N784 H796 0.984 . S
N784 H797 0.985 1_556 S
N785 C787 1.356 . S
N785 H790 0.984 1_554 S
N785 H791 0.985 . S
C786 C780 1.379 . S
C786 C783 1.363 1_556 S
C786 N784 1.356 . S
C787 C781 1.363 1_554 S
C787 C782 1.379 . S
C787 N785 1.356 . S
N788 C780 1.356 . S
N788 H794 0.984 . S
N788 H795 0.984 . S
N789 C782 1.356 . S
N789 H792 0.984 . S
N789 H793 0.985 . S
H790 N785 0.984 1_556 S
H791 N785 0.985 . S
H792 N789 0.984 . S
H793 N789 0.985 . S
H794 N788 0.984 . S
H795 N788 0.984 . S
H796 N784 0.984 . S
H797 N784 0.985 1_554 S
C798 C799 1.363 . S
C798 C804 1.379 1_455 S
C798 N806 1.356 . S
C799 C798 1.363 . S
C799 C805 1.363 . S
C800 C801 1.363 . S
C800 C805 1.379 1_655 S
C800 N807 1.356 . S
C801 C800 1.363 . S
C801 C804 1.363 . S
N802 C804 1.356 . S
N802 H814 0.984 . S
N802 H815 0.985 . S
N803 C805 1.356 . S
N803 H808 0.984 . S
N803 H809 0.985 . S
C804 C798 1.379 1_655 S
C804 C801 1.363 . S
C804 N802 1.356 . S
C805 C799 1.363 . S
C805 C800 1.379 1_455 S
C805 N803 1.356 . S
N806 C798 1.356 . S
N806 H812 0.984 . S
N806 H813 0.984 . S
N807 C800 1.356 . S
N807 H810 0.984 . S
N807 H811 0.985 . S
H808 N803 0.984 . S
H809 N803 0.985 . S
H810 N807 0.984 . S
H811 N807 0.985 . S
H812 N806 0.984 . S
H813 N806 0.984 . S
H814 N802 0.984 . S
H815 N802 0.985 . S
C816 C817 1.363 . S
C816 C822 1.379 1_565 S
C816 N824 1.356 . S
C817 C816 1.363 . S
C817 C823 1.363 1_554 S
C818 C819 1.363 . S
C818 C823 1.379 1_545 S
C818 N825 1.356 . S
C819 C818 1.363 . S
C819 C822 1.363 1_556 S
N820 C822 1.356 . S
N820 H832 0.984 . S
N820 H833 0.985 1_554 S
N821 C823 1.356 . S
N821 H826 0.984 1_556 S
N821 H827 0.985 . S
C822 C816 1.379 1_545 S
C822 C819 1.363 1_554 S
C822 N820 1.356 . S
C823 C817 1.363 1_556 S
C823 C818 1.379 1_565 S
C823 N821 1.356 . S
N824 C816 1.356 . S
N824 H830 0.969 1_565 S
N824 H831 0.984 . S
N825 C818 1.356 . S
N825 H828 0.984 . S
N825 H829 0.968 1_545 S
H826 N821 0.984 1_554 S
H827 N821 0.985 . S
H828 N825 0.984 . S
H829 N825 0.968 1_565 S
H830 N824 0.969 1_545 S
H831 N824 0.984 . S
H832 N820 0.984 . S
H833 N820 0.985 1_556 S
C834 C835 1.363 . S
C834 C840 1.379 . S
C834 N842 1.356 . S
C835 C834 1.363 . S
C835 C841 1.363 . S
C836 C837 1.363 . S
C836 C841 1.379 . S
C836 N843 1.356 . S
C837 C836 1.363 . S
C837 C840 1.363 . S
N838 C840 1.356 . S
N838 H850 0.984 . S
N838 H851 0.985 . S
N839 C841 1.356 . S
N839 H844 0.984 . S
N839 H845 0.985 . S
C840 C834 1.379 . S
C840 C837 1.363 . S
C840 N838 1.356 . S
C841 C835 1.363 . S
C841 C836 1.379 . S
C841 N839 1.356 . S
N842 C834 1.356 . S
N842 H848 0.984 . S
N842 H849 0.984 . S
N843 C836 1.356 . S
N843 H846 0.984 . S
N843 H847 0.985 . S
H844 N839 0.984 . S
H845 N839 0.985 . S
H846 N843 0.984 . S
H847 N843 0.985 . S
H848 N842 0.984 . S
H849 N842 0.984 . S
H850 N838 0.984 . S
H851 N838 0.985 . S
C852 C853 1.363 1_554 S
C852 C858 1.395 . S
C852 N860 1.356 . S
C853 C852 1.363 1_556 S
C853 C859 1.344 1_655 S
C854 C855 1.363 1_556 S
C854 C859 1.395 . S
C854 N861 1.356 . S
C855 C854 1.363 1_554 S
C855 C858 1.344 1_455 S
N856 C858 1.353 1_455 S
N856 H868 0.984 1_455 S
N856 H869 0.985 . S
N857 C859 1.354 1_655 S
N857 H862 0.984 . S
N857 H863 0.985 1_655 S
C858 C852 1.395 . S
C858 C855 1.344 1_655 S
C858 N856 1.353 1_655 S
C859 C853 1.344 1_455 S
C859 C854 1.395 . S
C859 N857 1.354 1_455 S
N860 C852 1.356 . S
N860 H866 0.984 . S
N860 H867 0.983 . S
N861 C854 1.356 . S
N861 H864 0.983 . S
N861 H865 0.985 . S
H862 N857 0.984 . S
H863 N857 0.985 1_455 S
H864 N861 0.983 . S
H865 N861 0.985 . S
H866 N860 0.984 . S
H867 N860 0.983 . S
H868 N856 0.984 1_655 S
H869 N856 0.985 . S
C870 C871 1.363 1_545 S
C870 C876 1.379 . S
C870 N878 1.356 1_545 S
C871 C870 1.363 1_565 S
C871 C877 1.363 . S
C872 C873 1.363 1_565 S
C872 C877 1.379 . S
C872 N879 1.356 1_565 S
C873 C872 1.363 1_545 S
C873 C876 1.363 . S
N874 C876 1.356 . S
N874 H886 0.984 . S
N874 H887 0.985 . S
N875 C877 1.356 . S
N875 H880 0.984 . S
N875 H881 0.985 . S
C876 C870 1.379 . S
C876 C873 1.363 . S
C876 N874 1.356 . S
C877 C871 1.363 . S
C877 C872 1.379 . S
C877 N875 1.356 . S
N878 C870 1.356 1_565 S
N878 H884 0.984 1_565 S
N878 H885 0.984 . S
N879 C872 1.356 1_545 S
N879 H882 0.984 . S
N879 H883 0.985 1_545 S
H880 N875 0.984 . S
H881 N875 0.985 . S
H882 N879 0.984 . S
H883 N879 0.985 1_565 S
H884 N878 0.984 1_545 S
H885 N878 0.984 . S
H886 N874 0.984 . S
H887 N874 0.985 . S
C241 C99 1.289 . S
C243 C1 1.344 . S
C259 C119 1.289 . S
C261 C21 1.344 . S
C277 C41 1.344 . S
C279 C19 1.289 . S
C295 C61 1.344 . S
C297 C39 1.289 . S
C313 C81 1.344 . S
C315 C59 1.289 . S
C331 C79 1.289 . S
C333 C101 1.344 . S
C349 C179 1.289 . S
C351 C121 1.344 . S
C367 C141 1.344 . S
C369 C199 1.289 . S
C385 C219 1.289 . S
C387 C161 1.344 . S
C403 C181 1.344 . S
C405 C239 1.289 . S
C421 C201 1.344 . S
C423 C139 1.289 . S
C439 C159 1.289 . S
C441 C221 1.344 . S
C457 C98 1.550 . S
C459 C2 1.527 . S
C475 C22 1.527 . S
C477 C118 1.550 . S
C493 C42 1.527 . S
C495 C18 1.550 . S
C511 C62 1.527 . S
C513 C38 1.550 . S
C529 C58 1.550 . S
C531 C82 1.527 . S
C547 C78 1.550 . S
C549 C102 1.527 . S
C565 C178 1.550 . S
C567 C122 1.527 . S
C583 C142 1.527 . S
C585 C198 1.550 . S
C601 C162 1.527 . S
C603 C218 1.550 . S
C619 C238 1.550 . S
C621 C182 1.527 . S
C637 C202 1.527 . S
C639 C138 1.550 . S
C655 C158 1.550 . S
C657 C222 1.527 . S
C673 C209 1.534 . S
C675 C9 1.534 . S
C691 C29 1.534 . S
C693 C229 1.534 . S
C709 C49 1.534 . S
C711 C129 1.534 . S
C727 C69 1.534 . S
C729 C149 1.534 . S
C745 C89 1.534 . S
C747 C169 1.534 . S
C763 C189 1.534 . S
C765 C109 1.534 . S
C781 C188 2.028 . S
C783 C8 2.028 . S
C799 C208 2.028 . S
C801 C28 2.028 . S
C817 C48 2.028 . S
C819 C228 2.028 . S
C835 C68 2.028 . S
C837 C128 2.028 . S
C853 C148 2.028 . S
C855 C88 2.028 . S
C871 C168 2.028 . S
C873 C108 2.028 . S
