# Generated by pormake.
# Topology umw, (4)-cn, num edge types: 1
# Building blocks:
#     Node 0, Type 0, BuildingBlock: CEKHIL_clean_sbu_0, # of connection points: 4
#     Node 1, Type 0, BuildingBlock: CEKHIL_clean_sbu_0, # of connection points: 4
#     Node 2, Type 0, BuildingBlock: CEKHIL_clean_sbu_0, # of connection points: 4
#     Node 3, Type 0, BuildingBlock: CEKHIL_clean_sbu_0, # of connection points: 4
#     Node 4, Type 0, BuildingBlock: CEKHIL_clean_sbu_0, # of connection points: 4
#     Node 5, Type 0, BuildingBlock: CEKHIL_clean_sbu_0, # of connection points: 4
#     Node 6, Type 0, BuildingBlock: CEKHIL_clean_sbu_0, # of connection points: 4
#     Node 7, Type 0, BuildingBlock: CEKHIL_clean_sbu_0, # of connection points: 4
#     Edge 8, Type (0, 0), BuildingBlock: ZUJKAS_clean_linker_0, # of connection points: 2
#     Edge 9, Type (0, 0), BuildingBlock: ZUJKAS_clean_linker_0, # of connection points: 2
#     Edge 10, Type (0, 0), BuildingBlock: ZUJKAS_clean_linker_0, # of connection points: 2
#     Edge 11, Type (0, 0), BuildingBlock: ZUJKAS_clean_linker_0, # of connection points: 2
#     Edge 12, Type (0, 0), BuildingBlock: ZUJKAS_clean_linker_0, # of connection points: 2
#     Edge 13, Type (0, 0), BuildingBlock: ZUJKAS_clean_linker_0, # of connection points: 2
#     Edge 14, Type (0, 0), BuildingBlock: ZUJKAS_clean_linker_0, # of connection points: 2
#     Edge 15, Type (0, 0), BuildingBlock: ZUJKAS_clean_linker_0, # of connection points: 2
#     Edge 16, Type (0, 0), BuildingBlock: ZUJKAS_clean_linker_0, # of connection points: 2
#     Edge 17, Type (0, 0), BuildingBlock: ZUJKAS_clean_linker_0, # of connection points: 2
#     Edge 18, Type (0, 0), BuildingBlock: ZUJKAS_clean_linker_0, # of connection points: 2
#     Edge 19, Type (0, 0), BuildingBlock: ZUJKAS_clean_linker_0, # of connection points: 2
#     Edge 20, Type (0, 0), BuildingBlock: ZUJKAS_clean_linker_0, # of connection points: 2
#     Edge 21, Type (0, 0), BuildingBlock: ZUJKAS_clean_linker_0, # of connection points: 2
#     Edge 22, Type (0, 0), BuildingBlock: ZUJKAS_clean_linker_0, # of connection points: 2
#     Edge 23, Type (0, 0), BuildingBlock: ZUJKAS_clean_linker_0, # of connection points: 2
# Relax obj value: 0.136
# Max RMSD: 0.106
# Mean RMSD: 0.106
data_MOF--net-umw--node1-CEKHIL_clean_sbu_0--edge1-ZUJKAS_clean_linker_0
_symmetry_space_group_name_H-M    P1
_symmetry_Int_Tables_number       1
_symmetry_cell_setting            triclinic
loop_
_symmetry_equiv_pos_as_xyz
'x, y, z'
_cell_length_a     52.214262
_cell_length_b     52.199849
_cell_length_c     34.085171
_cell_angle_alpha  90.07419
_cell_angle_beta   89.923122
_cell_angle_gamma 90.113928
loop_
_atom_site_label
_atom_site_type_symbol
_atom_site_fract_x
_atom_site_fract_y
_atom_site_fract_z
_atom_type_partial_charge
Co0 Co 0.42867 0.20934 0.27587 0.0
O1 O 0.41896 0.24429 0.28699 0.0
O2 O 0.39524 0.21021 0.30034 0.0
C3 C 0.44374 0.21649 0.21482 0.0
O4 O 0.43143 0.17058 0.26851 0.0
Co5 Co 0.48504 0.19358 0.25718 0.0
O6 O 0.47019 0.15942 0.24553 0.0
C7 C 0.46983 0.20855 0.33758 0.0
C8 C 0.39806 0.23495 0.30204 0.0
C9 C 0.44736 0.15373 0.25556 0.0
O10 O 0.44592 0.2073 0.32852 0.0
O11 O 0.48792 0.20614 0.31246 0.0
O12 O 0.41924 0.21318 0.22017 0.0
O13 O 0.45742 0.21696 0.24605 0.0
Co14 Co 0.8189 0.42646 0.52573 0.0
O15 O 0.78342 0.41739 0.53463 0.0
O16 O 0.8166 0.39293 0.5494 0.0
C17 C 0.81435 0.44215 0.46441 0.0
O18 O 0.85791 0.42838 0.52081 0.0
Co19 Co 0.83648 0.48271 0.51035 0.0
O20 O 0.8704 0.46727 0.49989 0.0
C21 C 0.8182 0.46711 0.58847 0.0
C22 C 0.79193 0.39622 0.54983 0.0
C23 C 0.87536 0.4442 0.50931 0.0
O24 O 0.81994 0.44327 0.57898 0.0
O25 O 0.82138 0.48538 0.56398 0.0
O26 O 0.81619 0.4175 0.4696 0.0
O27 O 0.81312 0.45562 0.49591 0.0
Co28 Co 0.59737 0.81731 0.77506 0.0
O29 O 0.60887 0.78271 0.78456 0.0
O30 O 0.63055 0.81772 0.80018 0.0
C31 C 0.58324 0.81076 0.71329 0.0
O32 O 0.59269 0.85598 0.76954 0.0
Co33 Co 0.54041 0.83047 0.75627 0.0
O34 O 0.55348 0.86567 0.74696 0.0
C35 C 0.55566 0.81347 0.83543 0.0
C36 C 0.6291 0.79285 0.80051 0.0
C37 C 0.576 0.87228 0.75735 0.0
O38 O 0.57948 0.81732 0.82745 0.0
O39 O 0.53781 0.81501 0.80982 0.0
O40 O 0.60751 0.81511 0.71935 0.0
O41 O 0.56934 0.80888 0.74423 0.0
Co42 Co 0.20611 0.59768 0.02988 0.0
O43 O 0.24096 0.60845 0.03955 0.0
O44 O 0.20652 0.63066 0.05595 0.0
C45 C 0.21253 0.58408 0.96775 0.0
O46 O 0.16729 0.59358 0.02443 0.0
Co47 Co 0.19199 0.54107 0.00914 0.0
O48 O 0.15707 0.55476 0.00042 0.0
C49 C 0.20931 0.55519 0.08879 0.0
C50 C 0.23135 0.62871 0.0561 0.0
C51 C 0.15076 0.57717 0.01171 0.0
O52 O 0.20588 0.57918 0.08168 0.0
O53 O 0.20739 0.53772 0.06256 0.0
O54 O 0.20851 0.60834 0.97438 0.0
O55 O 0.21402 0.56989 -0.00167 0.0
Co56 Co 0.42735 0.82912 0.29129 0.0
O57 O 0.41876 0.79347 0.2828 0.0
O58 O 0.394 0.82622 0.2671 0.0
C59 C 0.4426 0.82489 0.35296 0.0
O60 O 0.42875 0.86822 0.29571 0.0
Co61 Co 0.48315 0.84769 0.30762 0.0
O62 O 0.46695 0.88114 0.31885 0.0
C63 C 0.46835 0.82963 0.2288 0.0
C64 C 0.39756 0.80158 0.2672 0.0
C65 C 0.44405 0.88584 0.30825 0.0
O66 O 0.44446 0.83006 0.23826 0.0
O67 O 0.48645 0.83376 0.25329 0.0
O68 O 0.41799 0.82649 0.34726 0.0
O69 O 0.45638 0.82385 0.32174 0.0
Co70 Co 0.1996 0.42762 0.54515 0.0
O71 O 0.23518 0.41909 0.53637 0.0
O72 O 0.20234 0.39403 0.52167 0.0
C73 C 0.20417 0.44368 0.60631 0.0
O74 O 0.16057 0.42891 0.55008 0.0
Co75 Co 0.18118 0.48359 0.56039 0.0
O76 O 0.14766 0.46747 0.57173 0.0
C77 C 0.1994 0.46795 0.48204 0.0
C78 C 0.22696 0.39772 0.52126 0.0
C79 C 0.14297 0.44435 0.56204 0.0
O80 O 0.19839 0.44414 0.49178 0.0
O81 O 0.19565 0.48628 0.50633 0.0
O82 O 0.20252 0.41898 0.60133 0.0
O83 O 0.20505 0.45703 0.57471 0.0
Co84 Co 0.59767 0.1983 0.79255 0.0
O85 O 0.60724 0.23375 0.78505 0.0
O86 O 0.63046 0.2005 0.76628 0.0
C87 C 0.58412 0.20193 0.85524 0.0
O88 O 0.59485 0.1592 0.79555 0.0
Co89 Co 0.54145 0.18197 0.81131 0.0
O90 O 0.55643 0.14761 0.81968 0.0
C91 C 0.55521 0.20165 0.73315 0.0
C92 C 0.6277 0.22524 0.76764 0.0
C93 C 0.57895 0.14209 0.808 0.0
O94 O 0.57921 0.19888 0.74069 0.0
O95 O 0.5376 0.19842 0.75881 0.0
O96 O 0.60851 0.19959 0.84798 0.0
O97 O 0.56969 0.20412 0.82496 0.0
Co98 Co 0.82459 0.5975 0.04249 0.0
O99 O 0.78968 0.6075 0.03207 0.0
O100 O 0.82385 0.63056 0.01678 0.0
C101 C 0.8174 0.58365 0.10424 0.0
O102 O 0.86343 0.5942 0.0488 0.0
Co103 Co 0.83962 0.54127 0.06362 0.0
O104 O 0.87403 0.55584 0.07383 0.0
C105 C 0.82331 0.555 0.98319 0.0
C106 C 0.79906 0.62806 0.01608 0.0
C107 C 0.88009 0.57826 0.06228 0.0
O108 O 0.82567 0.57911 -0.00943 0.0
O109 O 0.82558 0.53759 0.00937 0.0
O110 O 0.82128 0.60798 0.09799 0.0
O111 O 0.81675 0.56947 0.07353 0.0
H112 H 0.51821 0.21167 0.36713 0.0
H113 H 0.53092 0.21555 0.43539 0.0
H114 H 0.45158 0.21861 0.47043 0.0
H115 H 0.43841 0.21432 0.40175 0.0
H116 H 0.52048 0.25325 0.49205 0.0
H117 H 0.4811 0.15758 0.53195 0.0
H118 H 0.48519 0.16764 0.4817 0.0
H119 H 0.45867 0.17936 0.5101 0.0
C120 C 0.50334 0.21323 0.38917 0.0
C121 C 0.47723 0.21235 0.37897 0.0
C122 C 0.51071 0.21557 0.42818 0.0
C123 C 0.49219 0.21705 0.45776 0.0
C124 C 0.46611 0.21708 0.44784 0.0
H125 H 0.50698 0.2132 0.70875 0.0
H126 H 0.49233 0.22011 0.64198 0.0
C127 C 0.45865 0.21468 0.40866 0.0
C128 C 0.50047 0.2174 0.49901 0.0
H129 H 0.50017 0.18167 0.58257 0.0
C130 C 0.51598 0.2377 0.51199 0.0
C131 C 0.49472 0.19688 0.52456 0.0
C132 C 0.4792 0.17399 0.51143 0.0
C133 C 0.52583 0.23807 0.55021 0.0
C134 C 0.5201 0.21753 0.57561 0.0
C135 C 0.50442 0.19738 0.56276 0.0
C136 C 0.52991 0.21642 0.61598 0.0
C137 C 0.54209 0.26039 0.56333 0.0
C138 C 0.55602 0.21237 0.62326 0.0
C139 C 0.56459 0.20827 0.66157 0.0
C140 C 0.54704 0.20802 0.6929 0.0
C141 C 0.52102 0.21299 0.68534 0.0
C142 C 0.51256 0.21706 0.64723 0.0
H143 H 0.54073 0.27685 0.54281 0.0
H144 H 0.5363 0.26683 0.59311 0.0
H145 H 0.56242 0.25429 0.56478 0.0
H146 H 0.56959 0.21149 0.59922 0.0
H147 H 0.58474 0.20457 0.66644 0.0
H148 H 0.81091 0.51515 0.61751 0.0
H149 H 0.80675 0.52794 0.68567 0.0
H150 H 0.80934 0.44876 0.72142 0.0
H151 H 0.81406 0.43553 0.65273 0.0
H152 H 0.77139 0.51597 0.74426 0.0
H153 H 0.8698 0.48224 0.77932 0.0
H154 H 0.85833 0.48515 0.72963 0.0
H155 H 0.84867 0.45839 0.7593 0.0
C156 C 0.81051 0.50031 0.63968 0.0
C157 C 0.81329 0.47428 0.62969 0.0
C158 C 0.80797 0.50772 0.67865 0.0
C159 C 0.80813 0.48932 0.70841 0.0
C160 C 0.80962 0.46323 0.69868 0.0
H161 H 0.81493 0.50609 0.95853 0.0
H162 H 0.8087 0.49096 0.89188 0.0
C163 C 0.81225 0.45573 0.65951 0.0
C164 C 0.80829 0.4979 0.74955 0.0
H165 H 0.84608 0.50065 0.83087 0.0
C166 C 0.78762 0.51254 0.76336 0.0
C167 C 0.82973 0.49364 0.77395 0.0
C168 C 0.85302 0.4792 0.75984 0.0
C169 C 0.78776 0.52292 0.80129 0.0
C170 C 0.80918 0.51861 0.82555 0.0
C171 C 0.82972 0.50384 0.8119 0.0
C172 C 0.81057 0.52862 0.86581 0.0
C173 C 0.76504 0.5382 0.81535 0.0
C174 C 0.81353 0.55493 0.87299 0.0
C175 C 0.81723 0.56381 0.91129 0.0
C176 C 0.81813 0.54639 0.9427 0.0
C177 C 0.81454 0.5201 0.93513 0.0
C178 C 0.81089 0.51134 0.89706 0.0
H179 H 0.74828 0.53607 0.79556 0.0
H180 H 0.7594 0.53216 0.84538 0.0
H181 H 0.77033 0.55879 0.81662 0.0
H182 H 0.81365 0.56846 0.84892 0.0
H183 H 0.81987 0.58415 0.91616 0.0
H184 H 0.43782 0.81273 0.16833 0.0
H185 H 0.45129 0.80295 0.10095 0.0
H186 H 0.52881 0.82451 0.12972 0.0
H187 H 0.51586 0.834 0.19655 0.0
H188 H 0.47374 0.83674 0.04802 0.0
H189 H 0.53863 0.75518 0.07703 0.0
H190 H 0.51555 0.76642 0.1126 0.0
H191 H 0.5458 0.7826 0.10686 0.0
C192 C 0.45774 0.81529 0.16029 0.0
C193 C 0.47577 0.82404 0.18787 0.0
C194 C 0.4654 0.80959 0.12193 0.0
C195 C 0.49114 0.81243 0.11082 0.0
C196 C 0.50902 0.82144 0.13811 0.0
H197 H 0.58254 0.82281 0.90309 0.0
H198 H 0.56629 0.81935 0.97046 0.0
C199 C 0.50147 0.82707 0.17626 0.0
C200 C 0.49932 0.80786 0.07002 0.0
H201 H 0.54387 0.77634 0.01486 0.0
C202 C 0.48874 0.82323 0.04056 0.0
C203 C 0.51902 0.79031 0.06066 0.0
C204 C 0.53024 0.77251 0.09092 0.0
C205 C 0.49814 0.82233 0.00212 0.0
C206 C 0.51834 0.80532 -0.00699 0.0
C207 C 0.52848 0.78944 0.02219 0.0
C208 C 0.52934 0.80421 0.95328 0.0
C209 C 0.48706 0.84029 0.9719 0.0
C210 C 0.51423 0.79591 0.92188 0.0
C211 C 0.52332 0.798 0.88364 0.0
C212 C 0.5478 0.80824 0.8762 0.0
C213 C 0.56358 0.81498 0.90795 0.0
C214 C 0.55435 0.81301 0.94634 0.0
H215 H 0.47555 0.8558 -0.01443 0.0
H216 H 0.5025 0.84912 0.95398 0.0
H217 H 0.47437 0.82932 0.95188 0.0
H218 H 0.49506 0.78863 0.9269 0.0
H219 H 0.51086 0.79219 0.85984 0.0
H220 H 0.21117 0.43616 0.42015 0.0
H221 H 0.22001 0.4489 0.35218 0.0
H222 H 0.20881 0.52817 0.38357 0.0
H223 H 0.20032 0.51594 0.45091 0.0
H224 H 0.18638 0.47519 0.30354 0.0
H225 H 0.27596 0.53068 0.32288 0.0
H226 H 0.26404 0.50873 0.35959 0.0
H227 H 0.2512 0.54062 0.35606 0.0
C228 C 0.21078 0.45631 0.41259 0.0
C229 C 0.20505 0.475 0.44099 0.0
C230 C 0.21593 0.46353 0.37388 0.0
C231 C 0.21561 0.4895 0.36326 0.0
C232 C 0.20988 0.5081 0.39148 0.0
H233 H 0.20367 0.58232 0.15736 0.0
H234 H 0.20807 0.56561 0.2243 0.0
C235 C 0.20478 0.50098 0.42996 0.0
C236 C 0.21901 0.49736 0.3221 0.0
H237 H 0.25219 0.53886 0.2637 0.0
C238 C 0.20103 0.48875 0.29458 0.0
C239 C 0.23807 0.51518 0.3108 0.0
C240 C 0.25856 0.52415 0.33883 0.0
C241 C 0.20091 0.49836 0.2563 0.0
C242 C 0.21948 0.51677 0.24537 0.0
C243 C 0.2379 0.52489 0.27251 0.0
C244 C 0.2198 0.52775 0.20571 0.0
C245 C 0.1804 0.48947 0.22819 0.0
C246 C 0.22578 0.51214 0.17366 0.0
C247 C 0.22322 0.52149 0.13571 0.0
C248 C 0.21471 0.5467 0.12917 0.0
C249 C 0.21012 0.5628 0.16149 0.0
C250 C 0.21264 0.55333 0.19962 0.0
H251 H 0.16467 0.47911 0.24343 0.0
H252 H 0.17213 0.50597 0.21209 0.0
H253 H 0.18899 0.47627 0.20629 0.0
H254 H 0.2317 0.49246 0.17802 0.0
H255 H 0.22734 0.5087 0.11147 0.0
H256 H 0.3502 0.22209 0.32873 0.0
H257 H 0.32008 0.24926 0.36491 0.0
H258 H 0.37394 0.31194 0.35968 0.0
H259 H 0.40365 0.28522 0.32245 0.0
H260 H 0.32466 0.27161 0.4349 0.0
H261 H 0.31046 0.34747 0.3238 0.0
H262 H 0.32615 0.31761 0.31241 0.0
H263 H 0.34361 0.34325 0.33568 0.0
C264 C 0.35547 0.24177 0.33485 0.0
C265 C 0.37922 0.25157 0.32236 0.0
C266 C 0.33826 0.25727 0.35564 0.0
C267 C 0.34447 0.28285 0.36448 0.0
C268 C 0.3683 0.29256 0.35227 0.0
H269 H 0.27809 0.40384 0.50633 0.0
H270 H 0.30633 0.37503 0.46959 0.0
C271 C 0.38537 0.27718 0.33113 0.0
C272 C 0.32655 0.29905 0.3878 0.0
H273 H 0.29595 0.35693 0.38874 0.0
C274 C 0.31821 0.29016 0.4246 0.0
C275 C 0.31803 0.32328 0.37444 0.0
C276 C 0.32481 0.33335 0.33425 0.0
C277 C 0.30217 0.30505 0.44869 0.0
C278 C 0.29419 0.32944 0.43564 0.0
C279 C 0.30229 0.33828 0.3988 0.0
C280 C 0.27732 0.34612 0.4597 0.0
C281 C 0.29426 0.29486 0.48829 0.0
C282 C 0.25165 0.33939 0.46639 0.0
C283 C 0.23542 0.35586 0.48722 0.0
C284 C 0.24459 0.37937 0.50185 0.0
C285 C 0.27045 0.38583 0.49567 0.0
C286 C 0.2866 0.36943 0.47458 0.0
H287 H 0.30574 0.27791 0.49706 0.0
H288 H 0.2963 0.30992 0.51111 0.0
H289 H 0.27381 0.28908 0.48726 0.0
H290 H 0.24402 0.32163 0.45476 0.0
H291 H 0.21558 0.35036 0.49131 0.0
H292 H 0.80304 0.34759 0.5742 0.0
H293 H 0.77509 0.31786 0.60969 0.0
H294 H 0.71429 0.37367 0.6073 0.0
H295 H 0.74182 0.40304 0.57056 0.0
H296 H 0.75404 0.32219 0.67994 0.0
H297 H 0.67581 0.31189 0.57156 0.0
H298 H 0.70593 0.32694 0.55952 0.0
H299 H 0.68133 0.34469 0.58473 0.0
C300 C 0.78358 0.35337 0.58073 0.0
C301 C 0.77457 0.37759 0.56922 0.0
C302 C 0.76763 0.33638 0.60115 0.0
C303 C 0.74237 0.34327 0.6107 0.0
C304 C 0.7334 0.36752 0.59933 0.0
H305 H 0.62276 0.27684 0.75623 0.0
H306 H 0.65132 0.30527 0.7193 0.0
C307 C 0.74923 0.38439 0.57847 0.0
C308 C 0.72588 0.32557 0.63407 0.0
H309 H 0.66725 0.29622 0.63606 0.0
C310 C 0.73516 0.31636 0.67012 0.0
C311 C 0.70119 0.31787 0.62138 0.0
C312 C 0.69058 0.32565 0.582 0.0
C313 C 0.7203 0.30015 0.69401 0.0
C314 C 0.69552 0.2929 0.68159 0.0
C315 C 0.68622 0.30197 0.6456 0.0
C316 C 0.67893 0.27579 0.70546 0.0
C317 C 0.73097 0.29123 0.73274 0.0
C318 C 0.68503 0.24978 0.70999 0.0
C319 C 0.66868 0.23343 0.73091 0.0
C320 C 0.64597 0.24282 0.74784 0.0
C321 C 0.64016 0.269 0.74377 0.0
C322 C 0.65641 0.28527 0.72256 0.0
H323 H 0.74847 0.30203 0.74123 0.0
H324 H 0.71643 0.29331 0.75633 0.0
H325 H 0.73598 0.27062 0.73054 0.0
H326 H 0.7022 0.24203 0.69667 0.0
H327 H 0.67367 0.21337 0.73336 0.0
H328 H 0.81171 0.67589 -0.0111 0.0
H329 H 0.78398 0.7062 0.95422 0.0
H330 H 0.72137 0.65237 0.96155 0.0
H331 H 0.74861 0.62255 -0.00268 0.0
H332 H 0.76043 0.70238 0.88549 0.0
H333 H 0.68634 0.71545 -0.00025 0.0
H334 H 0.71636 0.69971 0.00964 0.0
H335 H 0.69028 0.68231 -0.01256 0.0
C336 C 0.79193 0.67068 0.98352 0.0
C337 C 0.78229 0.64692 -0.00377 0.0
C338 C 0.77611 0.688 0.96361 0.0
C339 C 0.75037 0.68186 0.95589 0.0
C340 C 0.74087 0.65798 0.96818 0.0
H341 H 0.62729 0.74137 0.81468 0.0
H342 H 0.65797 0.71554 0.85169 0.0
C343 C 0.75655 0.64083 -0.01154 0.0
C344 C 0.73371 0.69985 0.93357 0.0
H345 H 0.6751 0.72901 0.9348 0.0
C346 C 0.74192 0.70843 0.89652 0.0
C347 C 0.70955 0.70794 0.94795 0.0
C348 C 0.70024 0.70109 -0.01145 0.0
C349 C 0.72629 0.72408 0.87303 0.0
C350 C 0.70184 0.7313 0.88688 0.0
C351 C 0.69379 0.72319 0.92413 0.0
C352 C 0.68406 0.74692 0.86289 0.0
C353 C 0.73567 0.73229 0.83311 0.0
C354 C 0.68862 0.77312 0.85685 0.0
C355 C 0.67103 0.788 0.83588 0.0
C356 C 0.64863 0.77689 0.82043 0.0
C357 C 0.64439 0.75052 0.826 0.0
C358 C 0.66186 0.73573 0.84723 0.0
H359 H 0.75368 0.72242 0.82457 0.0
H360 H 0.72084 0.72833 0.81057 0.0
H361 H 0.73927 0.75325 0.83328 0.0
H362 H 0.70555 0.78215 0.86901 0.0
H363 H 0.67483 0.80827 0.83223 0.0
H364 H 0.28242 0.62487 0.07209 0.0
H365 H 0.30921 0.65482 0.10897 0.0
H366 H 0.24492 0.70592 0.12174 0.0
H367 H 0.21775 0.67556 0.08597 0.0
H368 H 0.32355 0.70285 0.09564 0.0
H369 H 0.26738 0.70044 0.23375 0.0
H370 H 0.26173 0.67824 0.1941 0.0
H371 H 0.24879 0.71015 0.19217 0.0
C372 C 0.27396 0.64249 0.08272 0.0
C373 C 0.24789 0.64775 0.07629 0.0
C374 C 0.28932 0.65962 0.10386 0.0
C375 C 0.27903 0.68245 0.11895 0.0
C376 C 0.25317 0.68812 0.11148 0.0
H377 H 0.34996 0.81253 0.23815 0.0
H378 H 0.32091 0.78368 0.20273 0.0
C379 C 0.2377 0.67085 0.09069 0.0
C380 C 0.29554 0.70032 0.14196 0.0
H381 H 0.30078 0.73139 0.23011 0.0
C382 C 0.31857 0.70897 0.12509 0.0
C383 C 0.28916 0.70833 0.18053 0.0
C384 C 0.26556 0.69862 0.20139 0.0
C385 C 0.33517 0.72551 0.14547 0.0
C386 C 0.32866 0.73362 0.18377 0.0
C387 C 0.30564 0.72518 0.20065 0.0
C388 C 0.34575 0.75071 0.20681 0.0
C389 C 0.3595 0.73444 0.12584 0.0
C390 C 0.36911 0.74157 0.22148 0.0
C391 C 0.38564 0.75793 0.24203 0.0
C392 C 0.37918 0.78379 0.24809 0.0
C393 C 0.35552 0.79274 0.23396 0.0
C394 C 0.3389 0.7763 0.21371 0.0
H395 H 0.35972 0.72993 0.09397 0.0
H396 H 0.362 0.75543 0.12972 0.0
H397 H 0.37613 0.72484 0.13972 0.0
H398 H 0.37464 0.72182 0.21673 0.0
H399 H 0.40372 0.75042 0.25244 0.0
H400 H 0.46735 0.92691 0.34287 0.0
H401 H 0.45781 0.97211 0.33349 0.0
H402 H 0.39308 0.95222 0.2611 0.0
H403 H 0.40268 0.90662 0.27 0.0
H404 H 0.42551 0.98709 0.22585 0.0
H405 H 0.40252 0.01926 0.37628 0.0
H406 H 0.43197 1.00164 0.3747 0.0
H407 H 0.40236 0.98588 0.36226 0.0
C408 C 0.4508 0.93203 0.32546 0.0
C409 C 0.43584 0.91306 0.30708 0.0
C410 C 0.44526 0.95796 0.32037 0.0
C411 C 0.42456 0.96559 0.29696 0.0
C412 C 0.40905 0.94675 0.27951 0.0
H413 H 0.40213 0.13232 0.28111 0.0
H414 H 0.39183 0.0867 0.28709 0.0
C415 C 0.41452 0.9207 0.28475 0.0
C416 C 0.42089 0.99318 0.28799 0.0
H417 H 0.41733 0.05201 0.3315 0.0
C418 C 0.42322 1.00127 0.24887 0.0
C419 C 0.4175 1.0117 0.31788 0.0
C420 C 0.41317 1.00416 0.36008 0.0
C421 C 0.42391 0.02742 0.23918 0.0
C422 C 0.42267 0.04594 0.26947 0.0
C423 C 0.41864 0.03784 0.30828 0.0
C424 C 0.4276 0.07358 0.26211 0.0
C425 C 0.42641 0.0349 0.19661 0.0
C426 C 0.45105 0.08141 0.24586 0.0
C427 C 0.45698 0.10741 0.24229 0.0
C428 C 0.43969 0.12627 0.25529 0.0
C429 C 0.4159 0.11839 0.27069 0.0
C430 C 0.40998 0.0923 0.27422 0.0
H431 H 0.4183 0.0199 0.17705 0.0
H432 H 0.41661 0.05333 0.19054 0.0
H433 H 0.447 0.03707 0.18918 0.0
H434 H 0.46522 0.06737 0.23717 0.0
H435 H 0.47551 0.11265 0.23042 0.0
H436 H 0.89579 0.39891 0.53637 0.0
H437 H 0.94125 0.38844 0.54429 0.0
H438 H 0.96205 0.46104 0.49305 0.0
H439 H 0.91702 0.47147 0.48433 0.0
H440 H 0.99265 0.42107 0.46715 0.0
H441 H 0.98472 0.42211 0.63009 0.0
H442 H 0.9642 0.40006 0.60447 0.0
H443 H 0.95954 0.43392 0.59881 0.0
C444 C 0.91004 0.41251 0.52631 0.0
C445 C 0.90266 0.43618 0.5101 0.0
C446 C 0.93602 0.40655 0.53111 0.0
C447 C 0.95502 0.42417 0.51993 0.0
C448 C 0.94771 0.4472 0.50206 0.0
H449 H 0.10136 0.46989 0.59087 0.0
H450 H 0.05634 0.45934 0.58176 0.0
C451 C 0.92188 0.45315 0.49719 0.0
C452 C 0.98255 0.41963 0.52831 0.0
H453 H 0.02585 0.41773 0.60331 0.0
C454 C 0.99994 0.41989 0.49687 0.0
C455 C 0.99197 0.41829 0.56718 0.0
C456 C 0.97424 0.41875 0.60219 0.0
C457 C 0.02652 0.42003 0.50325 0.0
C458 C 0.03594 0.41944 0.54217 0.0
C459 C 0.01855 0.418 0.57353 0.0
C460 C 0.06344 0.42377 0.55102 0.0
C461 C 0.04424 0.42239 0.46842 0.0
C462 C 0.08249 0.40685 0.53784 0.0
C463 C 0.10846 0.41288 0.5429 0.0
C464 C 0.11577 0.43593 0.56129 0.0
C465 C 0.09653 0.45209 0.57625 0.0
C466 C 0.0707 0.44605 0.57119 0.0
H467 H 0.03375 0.42698 0.44098 0.0
H468 H 0.05881 0.43754 0.47362 0.0
H469 H 0.05445 0.404 0.46396 0.0
H470 H 0.07729 0.3893 0.52282 0.0
H471 H 0.12273 0.39992 0.53119 0.0
H472 H 0.5462 0.91248 0.7335 0.0
H473 H 0.55517 0.95811 0.73997 0.0
H474 H 0.62932 0.94111 0.78885 0.0
H475 H 0.6204 0.8952 0.78304 0.0
H476 H 0.60269 0.97569 0.8332 0.0
H477 H 0.60124 1.00581 0.67777 0.0
H478 H 0.57306 0.98804 0.69086 0.0
H479 H 0.60387 0.97264 0.69222 0.0
C480 C 0.56459 0.91833 0.74516 0.0
C481 C 0.58255 0.90003 0.75777 0.0
C482 C 0.56976 0.94451 0.74858 0.0
C483 C 0.59307 0.95308 0.76436 0.0
C484 C 0.61126 0.93494 0.77634 0.0
H485 H 0.61953 0.11995 0.76915 0.0
H486 H 0.62786 0.07404 0.76041 0.0
C487 C 0.60612 0.90868 0.77292 0.0
C488 C 0.59743 0.98089 0.77103 0.0
H489 H 0.59456 0.03915 0.72574 0.0
C490 C 0.60135 0.98954 0.8096 0.0
C491 C 0.59611 0.999 0.74022 0.0
C492 C 0.59361 0.99089 0.6979 0.0
C493 C 0.60245 0.01581 0.81844 0.0
C494 C 0.59917 0.03392 0.78801 0.0
C495 C 0.5968 0.02528 0.74915 0.0
C496 C 0.5959 0.06168 0.79619 0.0
C497 C 0.60669 0.02394 0.86042 0.0
C498 C 0.57528 0.06996 0.81934 0.0
C499 C 0.57046 0.09605 0.82434 0.0
C500 C 0.58608 0.11456 0.80612 0.0
C501 C 0.6072 0.10625 0.78378 0.0
C502 C 0.61194 0.08002 0.77863 0.0
H503 H 0.61699 1.00894 0.87724 0.0
H504 H 0.6178 0.04208 0.86206 0.0
H505 H 0.58787 0.02704 0.87479 0.0
H506 H 0.56234 0.0562 0.83253 0.0
H507 H 0.55403 0.10168 0.84175 0.0
H508 H 0.90287 0.62059 0.02884 0.0
H509 H 0.94883 0.62867 0.02054 0.0
H510 H 0.96584 0.55934 0.08389 0.0
H511 H 0.92023 0.5513 0.09288 0.0
H512 H 0.99792 0.60003 0.10403 0.0
H513 H 0.99199 0.58727 0.94218 0.0
H514 H 0.97173 0.6116 0.96289 0.0
H515 H 0.96608 0.57853 0.97463 0.0
C516 C 0.91638 0.60724 0.04148 0.0
C517 C 0.90775 0.58513 0.06119 0.0
C518 C 0.94266 0.6118 0.03644 0.0
C519 C 0.96076 0.59435 0.05094 0.0
C520 C 0.95223 0.573 0.07225 0.0
H521 H 0.11041 0.54767 -0.01272 0.0
H522 H 0.06486 0.556 -0.00425 0.0
C523 C 0.92606 0.56841 0.07728 0.0
C524 C 0.98858 0.59737 0.04272 0.0
H525 H 0.03285 0.59425 0.96892 0.0
C526 C 1.00559 0.59911 0.07448 0.0
C527 C 0.99852 0.59589 0.00412 0.0
C528 C 0.98123 0.59302 0.96892 0.0
C529 C 0.03227 0.59866 0.06882 0.0
C530 C 0.04221 0.59682 0.03024 0.0
C531 C 0.02519 0.59585 -0.00159 0.0
C532 C 0.07003 0.59322 0.0226 0.0
C533 C 0.04953 0.59883 0.1043 0.0
C534 C 0.08819 0.6117 0.03391 0.0
C535 C 0.11444 0.60695 0.02924 0.0
C536 C 0.12302 0.58366 0.01297 0.0
C537 C 0.10464 0.56575 0.00013 0.0
C538 C 0.0785 0.57049 0.00488 0.0
H539 H 0.03877 0.59516 0.13188 0.0
H540 H 0.06479 0.58417 0.10136 0.0
H541 H 0.05887 0.61787 0.10688 0.0
H542 H 0.08208 0.62961 0.04691 0.0
H543 H 0.12799 0.62127 0.03923 0.0
H544 H 0.53439 0.19255 0.87239 0.0
H545 H 0.51343 0.19354 0.93572 0.0
H546 H 0.58558 0.21002 -0.00825 0.0
H547 H 0.60728 0.20857 0.92735 0.0
H548 H 0.52683 0.16421 0.00987 0.0
H549 H 0.53172 0.27085 0.01724 0.0
H550 H 0.5347 0.25376 0.97136 0.0
H551 H 0.56047 0.2532 0.00601 0.0
C552 C 0.54608 0.19604 0.89799 0.0
C553 C 0.57258 0.20053 0.89476 0.0
C554 C 0.53396 0.19656 0.93427 0.0
C555 C 0.54793 0.20195 0.9682 0.0
C556 C 0.57453 0.20586 0.96563 0.0
H557 H 0.49141 0.23351 0.19995 0.0
H558 H 0.51584 0.2298 0.13955 0.0
C559 C 0.58687 0.20497 0.92901 0.0
C560 C 0.53384 0.20474 0.00551 0.0
H561 H 0.50801 0.24983 0.06619 0.0
C562 C 0.52289 0.18287 0.02256 0.0
C563 C 0.52851 0.22916 0.02135 0.0
C564 C 0.5393 0.25321 0.00315 0.0
C565 C 0.50678 0.18477 0.05543 0.0
C566 C 0.50103 0.20927 0.07086 0.0
C567 C 0.51223 0.23111 0.05396 0.0
C568 C 0.48502 0.21256 0.10637 0.0
C569 C 0.49642 0.16057 0.07375 0.0
C570 C 0.45921 0.20472 0.10748 0.0
C571 C 0.445 0.20685 0.14232 0.0
C572 C 0.45655 0.21681 0.17625 0.0
C573 C 0.48202 0.22554 0.17435 0.0
C574 C 0.49606 0.22348 0.13983 0.0
H575 H 0.50706 0.14334 0.06378 0.0
H576 H 0.4974 0.16163 0.10625 0.0
H577 H 0.47604 0.15816 0.06531 0.0
H578 H 0.45022 0.19668 0.08164 0.0
H579 H 0.42542 0.19999 0.14305 0.0
H580 H 0.80014 0.53612 0.11931 0.0
H581 H 0.80026 0.51315 0.18114 0.0
H582 H 0.83101 0.57975 0.23958 0.0
H583 H 0.83092 0.60331 0.17682 0.0
H584 H 0.84514 0.50406 0.22775 0.0
H585 H 0.7679 0.55629 0.30713 0.0
H586 H 0.77144 0.55779 0.25446 0.0
H587 H 0.79301 0.57527 0.28549 0.0
C588 C 0.80684 0.54608 0.14527 0.0
C589 C 0.81568 0.57153 0.14322 0.0
C590 C 0.80689 0.53284 0.18057 0.0
C591 C 0.81567 0.54471 0.21478 0.0
C592 C 0.82398 0.57036 0.21336 0.0
H593 H 0.82406 0.49237 0.45158 0.0
H594 H 0.82582 0.51512 0.39011 0.0
C595 C 0.8239 0.58378 0.17767 0.0
C596 C 0.8166 0.52954 0.25131 0.0
H597 H 0.78811 0.52256 0.3406 0.0
C598 C 0.83281 0.50812 0.25263 0.0
C599 C 0.80025 0.53481 0.28327 0.0
C600 C 0.78199 0.55716 0.28271 0.0
C601 C 0.83346 0.492 0.28554 0.0
C602 C 0.81699 0.49716 0.31753 0.0
C603 C 0.80067 0.51856 0.31598 0.0
C604 C 0.81752 0.48195 0.35423 0.0
C605 C 0.8522 0.47004 0.28607 0.0
C606 C 0.81264 0.45539 0.3547 0.0
C607 C 0.81225 0.44193 0.39037 0.0
C608 C 0.81617 0.45502 0.4259 0.0
C609 C 0.82107 0.48152 0.42497 0.0
C610 C 0.82196 0.49471 0.38967 0.0
H611 H 0.86763 0.47257 0.26392 0.0
H612 H 0.86112 0.46797 0.31545 0.0
H613 H 0.8419 0.45199 0.27911 0.0
H614 H 0.80862 0.44521 0.32772 0.0
H615 H 0.8082 0.42157 0.39025 0.0
H616 H 0.53537 0.79461 0.69716 0.0
H617 H 0.51209 0.79768 0.63571 0.0
H618 H 0.57875 0.8302 0.57976 0.0
H619 H 0.60257 0.82709 0.64199 0.0
H620 H 0.50271 0.84389 0.59408 0.0
H621 H 0.55507 0.77126 0.5054 0.0
H622 H 0.55708 0.77249 0.55827 0.0
H623 H 0.5743 0.79537 0.52908 0.0
C624 C 0.54527 0.80227 0.67179 0.0
C625 C 0.57083 0.8107 0.6744 0.0
C626 C 0.53186 0.80402 0.6367 0.0
C627 C 0.54366 0.81414 0.60329 0.0
C628 C 0.5694 0.8221 0.60528 0.0
H629 H 0.49209 0.83675 0.36798 0.0
H630 H 0.51452 0.83552 0.42992 0.0
C631 C 0.58298 0.82031 0.6407 0.0
C632 C 0.52841 0.8169 0.567 0.0
H633 H 0.52213 0.79405 0.47381 0.0
C634 C 0.50694 0.83308 0.56766 0.0
C635 C 0.5339 0.80255 0.5329 0.0
C636 C 0.55621 0.78426 0.53119 0.0
C637 C 0.49105 0.83572 0.53471 0.0
C638 C 0.49652 0.82134 0.50055 0.0
C639 C 0.51792 0.80502 0.50009 0.0
C640 C 0.48146 0.82402 0.46392 0.0
C641 C 0.46899 0.85431 0.5365 0.0
C642 C 0.45508 0.81844 0.46235 0.0
C643 C 0.44185 0.81962 0.42654 0.0
C644 C 0.45501 0.8259 0.39188 0.0
C645 C 0.48126 0.83182 0.39394 0.0
C646 C 0.49424 0.83104 0.42946 0.0
H647 H 0.47118 0.86822 0.56097 0.0
H648 H 0.4672 0.8651 0.50858 0.0
H649 H 0.45093 0.84352 0.5413 0.0
H650 H 0.44491 0.8125 0.48851 0.0
H651 H 0.42169 0.81474 0.42573 0.0
H652 H 0.19727 0.60397 0.89624 0.0
H653 H 0.19476 0.5804 0.83346 0.0
H654 H 0.22601 0.51336 0.88938 0.0
H655 H 0.22865 0.53636 0.95118 0.0
H656 H 0.23749 0.55135 0.79247 0.0
H657 H 0.15608 0.48992 0.83985 0.0
H658 H 0.16341 0.52023 0.86298 0.0
H659 H 0.18221 0.49238 0.87393 0.0
C660 C 0.20379 0.58431 0.89486 0.0
C661 C 0.21289 0.57194 0.92863 0.0
C662 C 0.20226 0.57087 0.8592 0.0
C663 C 0.2097 0.54501 0.85725 0.0
C664 C 0.21967 0.53311 0.89057 0.0
H665 H 0.21173 0.42333 0.68021 0.0
H666 H 0.21347 0.44736 0.74255 0.0
C667 C 0.22122 0.54638 0.92583 0.0
C668 C 0.2074 0.53003 0.82065 0.0
H669 H 0.17734 0.47791 0.78105 0.0
C670 C 0.22418 0.53546 0.7897 0.0
C671 C 0.19037 0.509 0.81771 0.0
C672 C 0.17183 0.50255 0.85024 0.0
C673 C 0.22464 0.52015 0.75587 0.0
C674 C 0.20735 0.49928 0.75261 0.0
C675 C 0.19061 0.49383 0.78369 0.0
C676 C 0.20525 0.48412 0.71601 0.0
C677 C 0.24407 0.52616 0.72432 0.0
C678 C 0.19924 0.49666 0.68101 0.0
C679 C 0.19858 0.48321 0.64585 0.0
C680 C 0.20327 0.45669 0.64481 0.0
C681 C 0.20808 0.44375 0.68015 0.0
C682 C 0.20911 0.45744 0.71563 0.0
H683 H 0.26078 0.53675 0.73639 0.0
H684 H 0.25106 0.50843 0.70983 0.0
H685 H 0.23504 0.53848 0.70175 0.0
H686 H 0.19539 0.51705 0.68077 0.0
H687 H 0.19461 0.49387 0.61939 0.0
loop_
_geom_bond_atom_site_label_1
_geom_bond_atom_site_label_2
_geom_bond_distance
_geom_bond_site_symmetry_2
_ccdc_geom_bond_type
Co0 O1 2.216 . S
Co0 O2 2.091 . S
Co0 O4 2.004 . S
Co0 O10 2.021 . S
Co0 O12 2.137 . S
Co0 O13 2.244 . S
O1 Co0 2.216 . S
O1 C8 1.247 . S
O2 Co0 2.091 . S
O2 C8 1.261 . S
C3 O12 1.247 . S
C3 O13 1.272 . S
O4 Co0 2.004 . S
O4 C9 1.259 . S
Co5 O6 2.061 . S
Co5 O11 2.052 . S
Co5 O13 2.135 . S
O6 Co5 2.061 . S
O6 C9 1.235 . S
C7 O10 1.238 . S
C7 O11 1.241 . S
C8 O1 1.247 . S
C8 O2 1.261 . S
C9 O4 1.259 . S
C9 O6 1.235 . S
O10 Co0 2.021 . S
O10 C7 1.238 . S
O11 Co5 2.052 . S
O11 C7 1.241 . S
O12 Co0 2.137 . S
O12 C3 1.247 . S
O13 Co0 2.244 . S
O13 C3 1.272 . S
O13 Co5 2.135 . S
Co14 O15 2.216 . S
Co14 O16 2.091 . S
Co14 O18 2.004 . S
Co14 O24 2.021 . S
Co14 O26 2.137 . S
Co14 O27 2.244 . S
O15 Co14 2.216 . S
O15 C22 1.247 . S
O16 Co14 2.091 . S
O16 C22 1.261 . S
C17 O26 1.247 . S
C17 O27 1.272 . S
O18 Co14 2.004 . S
O18 C23 1.259 . S
Co19 O20 2.061 . S
Co19 O25 2.052 . S
Co19 O27 2.135 . S
O20 Co19 2.061 . S
O20 C23 1.235 . S
C21 O24 1.238 . S
C21 O25 1.241 . S
C22 O15 1.247 . S
C22 O16 1.261 . S
C23 O18 1.259 . S
C23 O20 1.235 . S
O24 Co14 2.021 . S
O24 C21 1.238 . S
O25 Co19 2.052 . S
O25 C21 1.241 . S
O26 Co14 2.137 . S
O26 C17 1.247 . S
O27 Co14 2.244 . S
O27 C17 1.272 . S
O27 Co19 2.135 . S
Co28 O29 2.216 . S
Co28 O30 2.091 . S
Co28 O32 2.004 . S
Co28 O38 2.021 . S
Co28 O40 2.137 . S
Co28 O41 2.244 . S
O29 Co28 2.216 . S
O29 C36 1.247 . S
O30 Co28 2.091 . S
O30 C36 1.261 . S
C31 O40 1.247 . S
C31 O41 1.272 . S
O32 Co28 2.004 . S
O32 C37 1.259 . S
Co33 O34 2.061 . S
Co33 O39 2.052 . S
Co33 O41 2.135 . S
O34 Co33 2.061 . S
O34 C37 1.235 . S
C35 O38 1.238 . S
C35 O39 1.241 . S
C36 O29 1.247 . S
C36 O30 1.261 . S
C37 O32 1.259 . S
C37 O34 1.235 . S
O38 Co28 2.021 . S
O38 C35 1.238 . S
O39 Co33 2.052 . S
O39 C35 1.241 . S
O40 Co28 2.137 . S
O40 C31 1.247 . S
O41 Co28 2.244 . S
O41 C31 1.272 . S
O41 Co33 2.135 . S
Co42 O43 2.216 . S
Co42 O44 2.091 . S
Co42 O46 2.004 . S
Co42 O52 2.021 . S
Co42 O54 2.157 . S
Co42 O55 2.244 . S
O43 Co42 2.216 . S
O43 C50 1.247 . S
O44 Co42 2.091 . S
O44 C50 1.261 . S
C45 O54 1.246 1_556 S
C45 O55 1.272 1_556 S
O46 Co42 2.004 . S
O46 C51 1.259 . S
Co47 O48 2.061 . S
Co47 O53 2.052 . S
Co47 O55 2.135 . S
O48 Co47 2.061 . S
O48 C51 1.235 . S
C49 O52 1.238 . S
C49 O53 1.241 . S
C50 O43 1.247 . S
C50 O44 1.261 . S
C51 O46 1.259 . S
C51 O48 1.235 . S
O52 Co42 2.021 . S
O52 C49 1.238 . S
O53 Co47 2.052 . S
O53 C49 1.241 . S
O54 Co42 2.157 . S
O54 C45 1.246 1_554 S
O55 Co42 2.244 . S
O55 C45 1.272 1_554 S
O55 Co47 2.135 . S
Co56 O57 2.216 . S
Co56 O58 2.091 . S
Co56 O60 2.004 . S
Co56 O66 2.021 . S
Co56 O68 2.137 . S
Co56 O69 2.244 . S
O57 Co56 2.216 . S
O57 C64 1.247 . S
O58 Co56 2.091 . S
O58 C64 1.261 . S
C59 O68 1.247 . S
C59 O69 1.272 . S
O60 Co56 2.004 . S
O60 C65 1.259 . S
Co61 O62 2.061 . S
Co61 O67 2.052 . S
Co61 O69 2.135 . S
O62 Co61 2.061 . S
O62 C65 1.235 . S
C63 O66 1.238 . S
C63 O67 1.241 . S
C64 O57 1.247 . S
C64 O58 1.261 . S
C65 O60 1.259 . S
C65 O62 1.235 . S
O66 Co56 2.021 . S
O66 C63 1.238 . S
O67 Co61 2.052 . S
O67 C63 1.241 . S
O68 Co56 2.137 . S
O68 C59 1.247 . S
O69 Co56 2.244 . S
O69 C59 1.272 . S
O69 Co61 2.135 . S
Co70 O71 2.216 . S
Co70 O72 2.091 . S
Co70 O74 2.004 . S
Co70 O80 2.021 . S
Co70 O82 2.137 . S
Co70 O83 2.244 . S
O71 Co70 2.216 . S
O71 C78 1.247 . S
O72 Co70 2.091 . S
O72 C78 1.261 . S
C73 O82 1.247 . S
C73 O83 1.272 . S
O74 Co70 2.004 . S
O74 C79 1.259 . S
Co75 O76 2.061 . S
Co75 O81 2.052 . S
Co75 O83 2.135 . S
O76 Co75 2.061 . S
O76 C79 1.235 . S
C77 O80 1.238 . S
C77 O81 1.241 . S
C78 O71 1.247 . S
C78 O72 1.261 . S
C79 O74 1.259 . S
C79 O76 1.235 . S
O80 Co70 2.021 . S
O80 C77 1.238 . S
O81 Co75 2.052 . S
O81 C77 1.241 . S
O82 Co70 2.137 . S
O82 C73 1.247 . S
O83 Co70 2.244 . S
O83 C73 1.272 . S
O83 Co75 2.135 . S
Co84 O85 2.216 . S
Co84 O86 2.091 . S
Co84 O88 2.004 . S
Co84 O94 2.021 . S
Co84 O96 2.137 . S
Co84 O97 2.244 . S
O85 Co84 2.216 . S
O85 C92 1.247 . S
O86 Co84 2.091 . S
O86 C92 1.261 . S
C87 O96 1.247 . S
C87 O97 1.272 . S
O88 Co84 2.004 . S
O88 C93 1.259 . S
Co89 O90 2.061 . S
Co89 O95 2.052 . S
Co89 O97 2.135 . S
O90 Co89 2.061 . S
O90 C93 1.235 . S
C91 O94 1.238 . S
C91 O95 1.241 . S
C92 O85 1.247 . S
C92 O86 1.261 . S
C93 O88 1.259 . S
C93 O90 1.235 . S
O94 Co84 2.021 . S
O94 C91 1.238 . S
O95 Co89 2.052 . S
O95 C91 1.241 . S
O96 Co84 2.137 . S
O96 C87 1.247 . S
O97 Co84 2.244 . S
O97 C87 1.272 . S
O97 Co89 2.135 . S
Co98 O99 2.216 . S
Co98 O100 2.091 . S
Co98 O102 2.004 . S
Co98 O108 2.021 1_554 S
Co98 O110 2.137 . S
Co98 O111 2.244 . S
O99 Co98 2.216 . S
O99 C106 1.247 . S
O100 Co98 2.091 . S
O100 C106 1.261 . S
C101 O110 1.247 . S
C101 O111 1.272 . S
O102 Co98 2.004 . S
O102 C107 1.259 . S
Co103 O104 2.061 . S
Co103 O109 2.052 1_554 S
Co103 O111 2.135 . S
O104 Co103 2.061 . S
O104 C107 1.235 . S
C105 O108 1.238 . S
C105 O109 1.241 . S
C106 O99 1.247 . S
C106 O100 1.261 . S
C107 O102 1.259 . S
C107 O104 1.235 . S
O108 Co98 2.021 1_556 S
O108 C105 1.238 . S
O109 Co103 2.052 1_556 S
O109 C105 1.241 . S
O110 Co98 2.137 . S
O110 C101 1.247 . S
O111 Co98 2.244 . S
O111 C101 1.272 . S
O111 Co103 2.135 . S
H112 C120 0.929 . S
H113 C122 0.930 . S
H114 C124 0.930 . S
H115 C127 0.929 . S
H116 C130 0.930 . S
H117 C132 0.960 . S
H118 C132 0.960 . S
H119 C132 0.960 . S
C120 H112 0.929 . S
C120 C121 1.377 . S
C120 C122 1.384 . S
C121 C120 1.377 . S
C121 C127 1.390 . S
C122 H113 0.930 . S
C122 C120 1.384 . S
C122 C123 1.372 . S
C123 C122 1.372 . S
C123 C124 1.400 . S
C123 C128 1.490 . S
C124 H114 0.930 . S
C124 C123 1.400 . S
C124 C127 1.386 . S
H125 C141 0.930 . S
H126 C142 0.931 . S
C127 H115 0.929 . S
C127 C121 1.390 . S
C127 C124 1.386 . S
C128 C123 1.490 . S
C128 C130 1.395 . S
C128 C131 1.403 . S
H129 C135 0.930 . S
C130 H116 0.930 . S
C130 C128 1.395 . S
C130 C133 1.403 . S
C131 C128 1.403 . S
C131 C132 1.524 . S
C131 C135 1.400 . S
C132 H117 0.960 . S
C132 H118 0.960 . S
C132 H119 0.960 . S
C132 C131 1.524 . S
C133 C130 1.403 . S
C133 C134 1.392 . S
C133 C137 1.495 . S
C134 C133 1.392 . S
C134 C135 1.385 . S
C134 C136 1.478 . S
C135 H129 0.930 . S
C135 C131 1.400 . S
C135 C134 1.385 . S
C136 C134 1.478 . S
C136 C138 1.381 . S
C136 C142 1.383 . S
C137 C133 1.495 . S
C137 H143 0.959 . S
C137 H144 0.961 . S
C137 H145 0.960 . S
C138 C136 1.381 . S
C138 C139 1.394 . S
C138 H146 0.930 . S
C139 C138 1.394 . S
C139 C140 1.383 . S
C139 H147 0.929 . S
C140 C139 1.383 . S
C140 C141 1.377 . S
C141 H125 0.930 . S
C141 C140 1.377 . S
C141 C142 1.379 . S
C142 H126 0.931 . S
C142 C136 1.383 . S
C142 C141 1.379 . S
H143 C137 0.959 . S
H144 C137 0.961 . S
H145 C137 0.960 . S
H146 C138 0.930 . S
H147 C139 0.929 . S
H148 C156 0.929 . S
H149 C158 0.930 . S
H150 C160 0.930 . S
H151 C163 0.929 . S
H152 C166 0.930 . S
H153 C168 0.960 . S
H154 C168 0.960 . S
H155 C168 0.960 . S
C156 H148 0.929 . S
C156 C157 1.377 . S
C156 C158 1.384 . S
C157 C156 1.377 . S
C157 C163 1.390 . S
C158 H149 0.930 . S
C158 C156 1.384 . S
C158 C159 1.372 . S
C159 C158 1.372 . S
C159 C160 1.400 . S
C159 C164 1.490 . S
C160 H150 0.930 . S
C160 C159 1.400 . S
C160 C163 1.386 . S
H161 C177 0.930 . S
H162 C178 0.931 . S
C163 H151 0.929 . S
C163 C157 1.390 . S
C163 C160 1.386 . S
C164 C159 1.490 . S
C164 C166 1.395 . S
C164 C167 1.403 . S
H165 C171 0.930 . S
C166 H152 0.930 . S
C166 C164 1.395 . S
C166 C169 1.403 . S
C167 C164 1.403 . S
C167 C168 1.524 . S
C167 C171 1.400 . S
C168 H153 0.960 . S
C168 H154 0.960 . S
C168 H155 0.960 . S
C168 C167 1.524 . S
C169 C166 1.403 . S
C169 C170 1.392 . S
C169 C173 1.495 . S
C170 C169 1.392 . S
C170 C171 1.385 . S
C170 C172 1.478 . S
C171 H165 0.930 . S
C171 C167 1.400 . S
C171 C170 1.385 . S
C172 C170 1.478 . S
C172 C174 1.381 . S
C172 C178 1.383 . S
C173 C169 1.495 . S
C173 H179 0.959 . S
C173 H180 0.961 . S
C173 H181 0.960 . S
C174 C172 1.381 . S
C174 C175 1.394 . S
C174 H182 0.930 . S
C175 C174 1.394 . S
C175 C176 1.383 . S
C175 H183 0.929 . S
C176 C175 1.383 . S
C176 C177 1.377 . S
C177 H161 0.930 . S
C177 C176 1.377 . S
C177 C178 1.379 . S
C178 H162 0.931 . S
C178 C172 1.383 . S
C178 C177 1.379 . S
H179 C173 0.959 . S
H180 C173 0.961 . S
H181 C173 0.960 . S
H182 C174 0.930 . S
H183 C175 0.929 . S
H184 C192 0.929 . S
H185 C194 0.930 . S
H186 C196 0.930 . S
H187 C199 0.929 . S
H188 C202 0.930 . S
H189 C204 0.960 . S
H190 C204 0.960 . S
H191 C204 0.960 . S
C192 H184 0.929 . S
C192 C193 1.377 . S
C192 C194 1.384 . S
C193 C192 1.377 . S
C193 C199 1.390 . S
C194 H185 0.930 . S
C194 C192 1.384 . S
C194 C195 1.372 . S
C195 C194 1.372 . S
C195 C196 1.400 . S
C195 C200 1.490 . S
C196 H186 0.930 . S
C196 C195 1.400 . S
C196 C199 1.386 . S
H197 C213 0.930 . S
H198 C214 0.931 . S
C199 H187 0.929 . S
C199 C193 1.390 . S
C199 C196 1.386 . S
C200 C195 1.490 . S
C200 C202 1.395 . S
C200 C203 1.403 . S
H201 C207 0.930 . S
C202 H188 0.930 . S
C202 C200 1.395 . S
C202 C205 1.403 . S
C203 C200 1.403 . S
C203 C204 1.524 . S
C203 C207 1.400 . S
C204 H189 0.960 . S
C204 H190 0.960 . S
C204 H191 0.960 . S
C204 C203 1.524 . S
C205 C202 1.403 . S
C205 C206 1.392 . S
C205 C209 1.495 1_554 S
C206 C205 1.392 . S
C206 C207 1.385 . S
C206 C208 1.478 1_554 S
C207 H201 0.930 . S
C207 C203 1.400 . S
C207 C206 1.385 . S
C208 C206 1.478 1_556 S
C208 C210 1.381 . S
C208 C214 1.383 . S
C209 C205 1.495 1_556 S
C209 H215 0.959 . S
C209 H216 0.961 . S
C209 H217 0.960 . S
C210 C208 1.381 . S
C210 C211 1.394 . S
C210 H218 0.930 . S
C211 C210 1.394 . S
C211 C212 1.383 . S
C211 H219 0.929 . S
C212 C211 1.383 . S
C212 C213 1.377 . S
C213 H197 0.930 . S
C213 C212 1.377 . S
C213 C214 1.379 . S
C214 H198 0.931 . S
C214 C208 1.383 . S
C214 C213 1.379 . S
H215 C209 0.959 . S
H216 C209 0.961 . S
H217 C209 0.960 . S
H218 C210 0.930 . S
H219 C211 0.929 . S
H220 C228 0.929 . S
H221 C230 0.930 . S
H222 C232 0.930 . S
H223 C235 0.929 . S
H224 C238 0.930 . S
H225 C240 0.960 . S
H226 C240 0.960 . S
H227 C240 0.960 . S
C228 H220 0.929 . S
C228 C229 1.377 . S
C228 C230 1.384 . S
C229 C228 1.377 . S
C229 C235 1.390 . S
C230 H221 0.930 . S
C230 C228 1.384 . S
C230 C231 1.372 . S
C231 C230 1.372 . S
C231 C232 1.400 . S
C231 C236 1.490 . S
C232 H222 0.930 . S
C232 C231 1.400 . S
C232 C235 1.386 . S
H233 C249 0.930 . S
H234 C250 0.931 . S
C235 H223 0.929 . S
C235 C229 1.390 . S
C235 C232 1.386 . S
C236 C231 1.490 . S
C236 C238 1.395 . S
C236 C239 1.403 . S
H237 C243 0.930 . S
C238 H224 0.930 . S
C238 C236 1.395 . S
C238 C241 1.403 . S
C239 C236 1.403 . S
C239 C240 1.524 . S
C239 C243 1.400 . S
C240 H225 0.960 . S
C240 H226 0.960 . S
C240 H227 0.960 . S
C240 C239 1.524 . S
C241 C238 1.403 . S
C241 C242 1.392 . S
C241 C245 1.495 . S
C242 C241 1.392 . S
C242 C243 1.385 . S
C242 C244 1.478 . S
C243 H237 0.930 . S
C243 C239 1.400 . S
C243 C242 1.385 . S
C244 C242 1.478 . S
C244 C246 1.381 . S
C244 C250 1.383 . S
C245 C241 1.495 . S
C245 H251 0.959 . S
C245 H252 0.961 . S
C245 H253 0.960 . S
C246 C244 1.381 . S
C246 C247 1.394 . S
C246 H254 0.930 . S
C247 C246 1.394 . S
C247 C248 1.383 . S
C247 H255 0.929 . S
C248 C247 1.383 . S
C248 C249 1.377 . S
C249 H233 0.930 . S
C249 C248 1.377 . S
C249 C250 1.379 . S
C250 H234 0.931 . S
C250 C244 1.383 . S
C250 C249 1.379 . S
H251 C245 0.959 . S
H252 C245 0.961 . S
H253 C245 0.960 . S
H254 C246 0.930 . S
H255 C247 0.929 . S
H256 C264 0.929 . S
H257 C266 0.930 . S
H258 C268 0.930 . S
H259 C271 0.929 . S
H260 C274 0.930 . S
H261 C276 0.960 . S
H262 C276 0.960 . S
H263 C276 0.960 . S
C264 H256 0.929 . S
C264 C265 1.377 . S
C264 C266 1.384 . S
C265 C264 1.377 . S
C265 C271 1.390 . S
C266 H257 0.930 . S
C266 C264 1.384 . S
C266 C267 1.372 . S
C267 C266 1.372 . S
C267 C268 1.400 . S
C267 C272 1.490 . S
C268 H258 0.930 . S
C268 C267 1.400 . S
C268 C271 1.386 . S
H269 C285 0.930 . S
H270 C286 0.931 . S
C271 H259 0.929 . S
C271 C265 1.390 . S
C271 C268 1.386 . S
C272 C267 1.490 . S
C272 C274 1.395 . S
C272 C275 1.403 . S
H273 C279 0.930 . S
C274 H260 0.930 . S
C274 C272 1.395 . S
C274 C277 1.403 . S
C275 C272 1.403 . S
C275 C276 1.524 . S
C275 C279 1.400 . S
C276 H261 0.960 . S
C276 H262 0.960 . S
C276 H263 0.960 . S
C276 C275 1.524 . S
C277 C274 1.403 . S
C277 C278 1.392 . S
C277 C281 1.495 . S
C278 C277 1.392 . S
C278 C279 1.385 . S
C278 C280 1.478 . S
C279 H273 0.930 . S
C279 C275 1.400 . S
C279 C278 1.385 . S
C280 C278 1.478 . S
C280 C282 1.381 . S
C280 C286 1.383 . S
C281 C277 1.495 . S
C281 H287 0.959 . S
C281 H288 0.961 . S
C281 H289 0.960 . S
C282 C280 1.381 . S
C282 C283 1.394 . S
C282 H290 0.930 . S
C283 C282 1.394 . S
C283 C284 1.383 . S
C283 H291 0.929 . S
C284 C283 1.383 . S
C284 C285 1.377 . S
C285 H269 0.930 . S
C285 C284 1.377 . S
C285 C286 1.379 . S
C286 H270 0.931 . S
C286 C280 1.383 . S
C286 C285 1.379 . S
H287 C281 0.959 . S
H288 C281 0.961 . S
H289 C281 0.960 . S
H290 C282 0.930 . S
H291 C283 0.929 . S
H292 C300 0.929 . S
H293 C302 0.930 . S
H294 C304 0.930 . S
H295 C307 0.929 . S
H296 C310 0.930 . S
H297 C312 0.960 . S
H298 C312 0.960 . S
H299 C312 0.960 . S
C300 H292 0.929 . S
C300 C301 1.377 . S
C300 C302 1.384 . S
C301 C300 1.377 . S
C301 C307 1.390 . S
C302 H293 0.930 . S
C302 C300 1.384 . S
C302 C303 1.372 . S
C303 C302 1.372 . S
C303 C304 1.400 . S
C303 C308 1.490 . S
C304 H294 0.930 . S
C304 C303 1.400 . S
C304 C307 1.386 . S
H305 C321 0.930 . S
H306 C322 0.931 . S
C307 H295 0.929 . S
C307 C301 1.390 . S
C307 C304 1.386 . S
C308 C303 1.490 . S
C308 C310 1.395 . S
C308 C311 1.403 . S
H309 C315 0.930 . S
C310 H296 0.930 . S
C310 C308 1.395 . S
C310 C313 1.403 . S
C311 C308 1.403 . S
C311 C312 1.524 . S
C311 C315 1.400 . S
C312 H297 0.960 . S
C312 H298 0.960 . S
C312 H299 0.960 . S
C312 C311 1.524 . S
C313 C310 1.403 . S
C313 C314 1.392 . S
C313 C317 1.495 . S
C314 C313 1.392 . S
C314 C315 1.385 . S
C314 C316 1.478 . S
C315 H309 0.930 . S
C315 C311 1.400 . S
C315 C314 1.385 . S
C316 C314 1.478 . S
C316 C318 1.381 . S
C316 C322 1.383 . S
C317 C313 1.495 . S
C317 H323 0.959 . S
C317 H324 0.961 . S
C317 H325 0.960 . S
C318 C316 1.381 . S
C318 C319 1.394 . S
C318 H326 0.930 . S
C319 C318 1.394 . S
C319 C320 1.383 . S
C319 H327 0.929 . S
C320 C319 1.383 . S
C320 C321 1.377 . S
C321 H305 0.930 . S
C321 C320 1.377 . S
C321 C322 1.379 . S
C322 H306 0.931 . S
C322 C316 1.383 . S
C322 C321 1.379 . S
H323 C317 0.959 . S
H324 C317 0.961 . S
H325 C317 0.960 . S
H326 C318 0.930 . S
H327 C319 0.929 . S
H328 C336 0.929 . S
H329 C338 0.930 . S
H330 C340 0.930 . S
H331 C343 0.929 . S
H332 C346 0.930 . S
H333 C348 0.960 . S
H334 C348 0.960 . S
H335 C348 0.960 . S
C336 H328 0.929 . S
C336 C337 1.377 . S
C336 C338 1.384 . S
C337 C336 1.377 . S
C337 C343 1.390 1_554 S
C338 H329 0.930 . S
C338 C336 1.384 . S
C338 C339 1.372 1_554 S
C339 C338 1.372 1_556 S
C339 C340 1.400 . S
C339 C344 1.490 . S
C340 H330 0.930 . S
C340 C339 1.400 . S
C340 C343 1.386 . S
H341 C357 0.930 . S
H342 C358 0.931 . S
C343 H331 0.929 . S
C343 C337 1.390 1_556 S
C343 C340 1.386 . S
C344 C339 1.490 . S
C344 C346 1.395 . S
C344 C347 1.403 . S
H345 C351 0.930 . S
C346 H332 0.930 . S
C346 C344 1.395 . S
C346 C349 1.403 . S
C347 C344 1.403 . S
C347 C348 1.524 . S
C347 C351 1.400 . S
C348 H333 0.960 . S
C348 H334 0.960 . S
C348 H335 0.960 . S
C348 C347 1.524 . S
C349 C346 1.403 . S
C349 C350 1.392 . S
C349 C353 1.495 . S
C350 C349 1.392 . S
C350 C351 1.385 . S
C350 C352 1.478 . S
C351 H345 0.930 . S
C351 C347 1.400 . S
C351 C350 1.385 . S
C352 C350 1.478 . S
C352 C354 1.381 . S
C352 C358 1.383 . S
C353 C349 1.495 . S
C353 H359 0.959 . S
C353 H360 0.961 . S
C353 H361 0.960 . S
C354 C352 1.381 . S
C354 C355 1.394 . S
C354 H362 0.930 . S
C355 C354 1.394 . S
C355 C356 1.383 . S
C355 H363 0.929 . S
C356 C355 1.383 . S
C356 C357 1.377 . S
C357 H341 0.930 . S
C357 C356 1.377 . S
C357 C358 1.379 . S
C358 H342 0.931 . S
C358 C352 1.383 . S
C358 C357 1.379 . S
H359 C353 0.959 . S
H360 C353 0.961 . S
H361 C353 0.960 . S
H362 C354 0.930 . S
H363 C355 0.929 . S
H364 C372 0.929 . S
H365 C374 0.930 . S
H366 C376 0.930 . S
H367 C379 0.929 . S
H368 C382 0.930 . S
H369 C384 0.960 . S
H370 C384 0.960 . S
H371 C384 0.960 . S
C372 H364 0.929 . S
C372 C373 1.377 . S
C372 C374 1.384 . S
C373 C372 1.377 . S
C373 C379 1.390 . S
C374 H365 0.930 . S
C374 C372 1.384 . S
C374 C375 1.372 . S
C375 C374 1.372 . S
C375 C376 1.400 . S
C375 C380 1.490 . S
C376 H366 0.930 . S
C376 C375 1.400 . S
C376 C379 1.386 . S
H377 C393 0.930 . S
H378 C394 0.931 . S
C379 H367 0.929 . S
C379 C373 1.390 . S
C379 C376 1.386 . S
C380 C375 1.490 . S
C380 C382 1.395 . S
C380 C383 1.403 . S
H381 C387 0.930 . S
C382 H368 0.930 . S
C382 C380 1.395 . S
C382 C385 1.403 . S
C383 C380 1.403 . S
C383 C384 1.524 . S
C383 C387 1.400 . S
C384 H369 0.960 . S
C384 H370 0.960 . S
C384 H371 0.960 . S
C384 C383 1.524 . S
C385 C382 1.403 . S
C385 C386 1.392 . S
C385 C389 1.495 . S
C386 C385 1.392 . S
C386 C387 1.385 . S
C386 C388 1.478 . S
C387 H381 0.930 . S
C387 C383 1.400 . S
C387 C386 1.385 . S
C388 C386 1.478 . S
C388 C390 1.381 . S
C388 C394 1.383 . S
C389 C385 1.495 . S
C389 H395 0.959 . S
C389 H396 0.961 . S
C389 H397 0.960 . S
C390 C388 1.381 . S
C390 C391 1.394 . S
C390 H398 0.930 . S
C391 C390 1.394 . S
C391 C392 1.383 . S
C391 H399 0.929 . S
C392 C391 1.383 . S
C392 C393 1.377 . S
C393 H377 0.930 . S
C393 C392 1.377 . S
C393 C394 1.379 . S
C394 H378 0.931 . S
C394 C388 1.383 . S
C394 C393 1.379 . S
H395 C389 0.959 . S
H396 C389 0.961 . S
H397 C389 0.960 . S
H398 C390 0.930 . S
H399 C391 0.929 . S
H400 C408 0.929 . S
H401 C410 0.930 . S
H402 C412 0.930 . S
H403 C415 0.929 . S
H404 C418 0.930 . S
H405 C420 0.960 . S
H406 C420 0.960 . S
H407 C420 0.960 . S
C408 H400 0.929 . S
C408 C409 1.377 . S
C408 C410 1.384 . S
C409 C408 1.377 . S
C409 C415 1.390 . S
C410 H401 0.930 . S
C410 C408 1.384 . S
C410 C411 1.372 . S
C411 C410 1.372 . S
C411 C412 1.400 . S
C411 C416 1.490 . S
C412 H402 0.930 . S
C412 C411 1.400 . S
C412 C415 1.386 . S
H413 C429 0.930 . S
H414 C430 0.931 . S
C415 H403 0.929 . S
C415 C409 1.390 . S
C415 C412 1.386 . S
C416 C411 1.490 . S
C416 C418 1.395 . S
C416 C419 1.403 . S
H417 C423 0.930 . S
C418 H404 0.930 . S
C418 C416 1.395 . S
C418 C421 1.403 1_565 S
C419 C416 1.403 . S
C419 C420 1.524 . S
C419 C423 1.400 1_565 S
C420 H405 0.960 . S
C420 H406 0.960 . S
C420 H407 0.960 . S
C420 C419 1.524 . S
C421 C418 1.403 1_545 S
C421 C422 1.392 . S
C421 C425 1.495 . S
C422 C421 1.392 . S
C422 C423 1.385 . S
C422 C424 1.478 . S
C423 H417 0.930 . S
C423 C419 1.400 1_545 S
C423 C422 1.385 . S
C424 C422 1.478 . S
C424 C426 1.381 . S
C424 C430 1.383 . S
C425 C421 1.495 . S
C425 H431 0.959 . S
C425 H432 0.961 . S
C425 H433 0.960 . S
C426 C424 1.381 . S
C426 C427 1.394 . S
C426 H434 0.930 . S
C427 C426 1.394 . S
C427 C428 1.383 . S
C427 H435 0.929 . S
C428 C427 1.383 . S
C428 C429 1.377 . S
C429 H413 0.930 . S
C429 C428 1.377 . S
C429 C430 1.379 . S
C430 H414 0.931 . S
C430 C424 1.383 . S
C430 C429 1.379 . S
H431 C425 0.959 . S
H432 C425 0.961 . S
H433 C425 0.960 . S
H434 C426 0.930 . S
H435 C427 0.929 . S
H436 C444 0.929 . S
H437 C446 0.930 . S
H438 C448 0.930 . S
H439 C451 0.929 . S
H440 C454 0.930 . S
H441 C456 0.960 . S
H442 C456 0.960 . S
H443 C456 0.960 . S
C444 H436 0.929 . S
C444 C445 1.377 . S
C444 C446 1.384 . S
C445 C444 1.377 . S
C445 C451 1.390 . S
C446 H437 0.930 . S
C446 C444 1.384 . S
C446 C447 1.372 . S
C447 C446 1.372 . S
C447 C448 1.400 . S
C447 C452 1.490 . S
C448 H438 0.930 . S
C448 C447 1.400 . S
C448 C451 1.386 . S
H449 C465 0.930 . S
H450 C466 0.931 . S
C451 H439 0.929 . S
C451 C445 1.390 . S
C451 C448 1.386 . S
C452 C447 1.490 . S
C452 C454 1.395 . S
C452 C455 1.403 . S
H453 C459 0.930 . S
C454 H440 0.930 . S
C454 C452 1.395 . S
C454 C457 1.403 1_655 S
C455 C452 1.403 . S
C455 C456 1.524 . S
C455 C459 1.400 1_655 S
C456 H441 0.960 . S
C456 H442 0.960 . S
C456 H443 0.960 . S
C456 C455 1.524 . S
C457 C454 1.403 1_455 S
C457 C458 1.392 . S
C457 C461 1.495 . S
C458 C457 1.392 . S
C458 C459 1.385 . S
C458 C460 1.478 . S
C459 H453 0.930 . S
C459 C455 1.400 1_455 S
C459 C458 1.385 . S
C460 C458 1.478 . S
C460 C462 1.381 . S
C460 C466 1.383 . S
C461 C457 1.495 . S
C461 H467 0.959 . S
C461 H468 0.961 . S
C461 H469 0.960 . S
C462 C460 1.381 . S
C462 C463 1.394 . S
C462 H470 0.930 . S
C463 C462 1.394 . S
C463 C464 1.383 . S
C463 H471 0.929 . S
C464 C463 1.383 . S
C464 C465 1.377 . S
C465 H449 0.930 . S
C465 C464 1.377 . S
C465 C466 1.379 . S
C466 H450 0.931 . S
C466 C460 1.383 . S
C466 C465 1.379 . S
H467 C461 0.959 . S
H468 C461 0.961 . S
H469 C461 0.960 . S
H470 C462 0.930 . S
H471 C463 0.929 . S
H472 C480 0.929 . S
H473 C482 0.930 . S
H474 C484 0.930 . S
H475 C487 0.929 . S
H476 C490 0.930 . S
H477 C492 0.960 . S
H478 C492 0.960 . S
H479 C492 0.960 . S
C480 H472 0.929 . S
C480 C481 1.377 . S
C480 C482 1.384 . S
C481 C480 1.377 . S
C481 C487 1.390 . S
C482 H473 0.930 . S
C482 C480 1.384 . S
C482 C483 1.372 . S
C483 C482 1.372 . S
C483 C484 1.400 . S
C483 C488 1.490 . S
C484 H474 0.930 . S
C484 C483 1.400 . S
C484 C487 1.386 . S
H485 C501 0.930 . S
H486 C502 0.931 . S
C487 H475 0.929 . S
C487 C481 1.390 . S
C487 C484 1.386 . S
C488 C483 1.490 . S
C488 C490 1.395 . S
C488 C491 1.403 . S
H489 C495 0.930 . S
C490 H476 0.930 . S
C490 C488 1.395 . S
C490 C493 1.403 1_565 S
C491 C488 1.403 . S
C491 C492 1.524 . S
C491 C495 1.400 1_565 S
C492 H477 0.960 . S
C492 H478 0.960 . S
C492 H479 0.960 . S
C492 C491 1.524 . S
C493 C490 1.403 1_545 S
C493 C494 1.392 . S
C493 C497 1.495 . S
C494 C493 1.392 . S
C494 C495 1.385 . S
C494 C496 1.478 . S
C495 H489 0.930 . S
C495 C491 1.400 1_545 S
C495 C494 1.385 . S
C496 C494 1.478 . S
C496 C498 1.381 . S
C496 C502 1.383 . S
C497 C493 1.495 . S
C497 H503 0.959 . S
C497 H504 0.961 . S
C497 H505 0.960 . S
C498 C496 1.381 . S
C498 C499 1.394 . S
C498 H506 0.930 . S
C499 C498 1.394 . S
C499 C500 1.383 . S
C499 H507 0.929 . S
C500 C499 1.383 . S
C500 C501 1.377 . S
C501 H485 0.930 . S
C501 C500 1.377 . S
C501 C502 1.379 . S
C502 H486 0.931 . S
C502 C496 1.383 . S
C502 C501 1.379 . S
H503 C497 0.959 . S
H504 C497 0.961 . S
H505 C497 0.960 . S
H506 C498 0.930 . S
H507 C499 0.929 . S
H508 C516 0.929 . S
H509 C518 0.930 . S
H510 C520 0.930 . S
H511 C523 0.929 . S
H512 C526 0.930 . S
H513 C528 0.960 . S
H514 C528 0.960 . S
H515 C528 0.960 . S
C516 H508 0.929 . S
C516 C517 1.377 . S
C516 C518 1.384 . S
C517 C516 1.377 . S
C517 C523 1.390 . S
C518 H509 0.930 . S
C518 C516 1.384 . S
C518 C519 1.372 . S
C519 C518 1.372 . S
C519 C520 1.400 . S
C519 C524 1.490 . S
C520 H510 0.930 . S
C520 C519 1.400 . S
C520 C523 1.386 . S
H521 C537 0.930 . S
H522 C538 0.931 . S
C523 H511 0.929 . S
C523 C517 1.390 . S
C523 C520 1.386 . S
C524 C519 1.490 . S
C524 C526 1.395 . S
C524 C527 1.403 . S
H525 C531 0.930 . S
C526 H512 0.930 . S
C526 C524 1.395 . S
C526 C529 1.403 1_655 S
C527 C524 1.403 . S
C527 C528 1.524 1_554 S
C527 C531 1.400 1_655 S
C528 H513 0.960 . S
C528 H514 0.960 . S
C528 H515 0.960 . S
C528 C527 1.524 1_556 S
C529 C526 1.403 1_455 S
C529 C530 1.392 . S
C529 C533 1.495 . S
C530 C529 1.392 . S
C530 C531 1.385 . S
C530 C532 1.478 . S
C531 H525 0.930 . S
C531 C527 1.400 1_455 S
C531 C530 1.385 . S
C532 C530 1.478 . S
C532 C534 1.381 . S
C532 C538 1.383 . S
C533 C529 1.495 . S
C533 H539 0.959 . S
C533 H540 0.961 . S
C533 H541 0.960 . S
C534 C532 1.381 . S
C534 C535 1.394 . S
C534 H542 0.930 . S
C535 C534 1.394 . S
C535 C536 1.383 . S
C535 H543 0.929 . S
C536 C535 1.383 . S
C536 C537 1.377 . S
C537 H521 0.930 . S
C537 C536 1.377 . S
C537 C538 1.379 . S
C538 H522 0.931 . S
C538 C532 1.383 . S
C538 C537 1.379 . S
H539 C533 0.959 . S
H540 C533 0.961 . S
H541 C533 0.960 . S
H542 C534 0.930 . S
H543 C535 0.929 . S
H544 C552 0.929 . S
H545 C554 0.930 . S
H546 C556 0.930 . S
H547 C559 0.929 . S
H548 C562 0.930 . S
H549 C564 0.960 . S
H550 C564 0.960 1_556 S
H551 C564 0.960 1_556 S
C552 H544 0.929 . S
C552 C553 1.377 . S
C552 C554 1.384 . S
C553 C552 1.377 . S
C553 C559 1.390 . S
C554 H545 0.930 . S
C554 C552 1.384 . S
C554 C555 1.372 . S
C555 C554 1.372 . S
C555 C556 1.400 . S
C555 C560 1.490 1_556 S
C556 H546 0.930 . S
C556 C555 1.400 . S
C556 C559 1.386 . S
H557 C573 0.930 . S
H558 C574 0.931 . S
C559 H547 0.929 . S
C559 C553 1.390 . S
C559 C556 1.386 . S
C560 C555 1.490 1_554 S
C560 C562 1.395 . S
C560 C563 1.403 . S
H561 C567 0.930 . S
C562 H548 0.930 . S
C562 C560 1.395 . S
C562 C565 1.403 . S
C563 C560 1.403 . S
C563 C564 1.524 . S
C563 C567 1.400 . S
C564 H549 0.960 . S
C564 H550 0.960 1_554 S
C564 H551 0.960 1_554 S
C564 C563 1.524 . S
C565 C562 1.403 . S
C565 C566 1.392 . S
C565 C569 1.495 . S
C566 C565 1.392 . S
C566 C567 1.385 . S
C566 C568 1.478 . S
C567 H561 0.930 . S
C567 C563 1.400 . S
C567 C566 1.385 . S
C568 C566 1.478 . S
C568 C570 1.381 . S
C568 C574 1.383 . S
C569 C565 1.495 . S
C569 H575 0.959 . S
C569 H576 0.961 . S
C569 H577 0.960 . S
C570 C568 1.381 . S
C570 C571 1.394 . S
C570 H578 0.930 . S
C571 C570 1.394 . S
C571 C572 1.383 . S
C571 H579 0.929 . S
C572 C571 1.383 . S
C572 C573 1.377 . S
C573 H557 0.930 . S
C573 C572 1.377 . S
C573 C574 1.379 . S
C574 H558 0.931 . S
C574 C568 1.383 . S
C574 C573 1.379 . S
H575 C569 0.959 . S
H576 C569 0.961 . S
H577 C569 0.960 . S
H578 C570 0.930 . S
H579 C571 0.929 . S
H580 C588 0.929 . S
H581 C590 0.930 . S
H582 C592 0.930 . S
H583 C595 0.929 . S
H584 C598 0.930 . S
H585 C600 0.960 . S
H586 C600 0.960 . S
H587 C600 0.960 . S
C588 H580 0.929 . S
C588 C589 1.377 . S
C588 C590 1.384 . S
C589 C588 1.377 . S
C589 C595 1.390 . S
C590 H581 0.930 . S
C590 C588 1.384 . S
C590 C591 1.372 . S
C591 C590 1.372 . S
C591 C592 1.400 . S
C591 C596 1.490 . S
C592 H582 0.930 . S
C592 C591 1.400 . S
C592 C595 1.386 . S
H593 C609 0.930 . S
H594 C610 0.931 . S
C595 H583 0.929 . S
C595 C589 1.390 . S
C595 C592 1.386 . S
C596 C591 1.490 . S
C596 C598 1.395 . S
C596 C599 1.403 . S
H597 C603 0.930 . S
C598 H584 0.930 . S
C598 C596 1.395 . S
C598 C601 1.403 . S
C599 C596 1.403 . S
C599 C600 1.524 . S
C599 C603 1.400 . S
C600 H585 0.960 . S
C600 H586 0.960 . S
C600 H587 0.960 . S
C600 C599 1.524 . S
C601 C598 1.403 . S
C601 C602 1.392 . S
C601 C605 1.495 . S
C602 C601 1.392 . S
C602 C603 1.385 . S
C602 C604 1.478 . S
C603 H597 0.930 . S
C603 C599 1.400 . S
C603 C602 1.385 . S
C604 C602 1.478 . S
C604 C606 1.381 . S
C604 C610 1.383 . S
C605 C601 1.495 . S
C605 H611 0.959 . S
C605 H612 0.961 . S
C605 H613 0.960 . S
C606 C604 1.381 . S
C606 C607 1.394 . S
C606 H614 0.930 . S
C607 C606 1.394 . S
C607 C608 1.383 . S
C607 H615 0.929 . S
C608 C607 1.383 . S
C608 C609 1.377 . S
C609 H593 0.930 . S
C609 C608 1.377 . S
C609 C610 1.379 . S
C610 H594 0.931 . S
C610 C604 1.383 . S
C610 C609 1.379 . S
H611 C605 0.959 . S
H612 C605 0.961 . S
H613 C605 0.960 . S
H614 C606 0.930 . S
H615 C607 0.929 . S
H616 C624 0.929 . S
H617 C626 0.930 . S
H618 C628 0.930 . S
H619 C631 0.929 . S
H620 C634 0.930 . S
H621 C636 0.960 . S
H622 C636 0.960 . S
H623 C636 0.960 . S
C624 H616 0.929 . S
C624 C625 1.377 . S
C624 C626 1.384 . S
C625 C624 1.377 . S
C625 C631 1.390 . S
C626 H617 0.930 . S
C626 C624 1.384 . S
C626 C627 1.372 . S
C627 C626 1.372 . S
C627 C628 1.400 . S
C627 C632 1.490 . S
C628 H618 0.930 . S
C628 C627 1.400 . S
C628 C631 1.386 . S
H629 C645 0.930 . S
H630 C646 0.931 . S
C631 H619 0.929 . S
C631 C625 1.390 . S
C631 C628 1.386 . S
C632 C627 1.490 . S
C632 C634 1.395 . S
C632 C635 1.403 . S
H633 C639 0.930 . S
C634 H620 0.930 . S
C634 C632 1.395 . S
C634 C637 1.403 . S
C635 C632 1.403 . S
C635 C636 1.524 . S
C635 C639 1.400 . S
C636 H621 0.960 . S
C636 H622 0.960 . S
C636 H623 0.960 . S
C636 C635 1.524 . S
C637 C634 1.403 . S
C637 C638 1.392 . S
C637 C641 1.495 . S
C638 C637 1.392 . S
C638 C639 1.385 . S
C638 C640 1.478 . S
C639 H633 0.930 . S
C639 C635 1.400 . S
C639 C638 1.385 . S
C640 C638 1.478 . S
C640 C642 1.381 . S
C640 C646 1.383 . S
C641 C637 1.495 . S
C641 H647 0.959 . S
C641 H648 0.961 . S
C641 H649 0.960 . S
C642 C640 1.381 . S
C642 C643 1.394 . S
C642 H650 0.930 . S
C643 C642 1.394 . S
C643 C644 1.383 . S
C643 H651 0.929 . S
C644 C643 1.383 . S
C644 C645 1.377 . S
C645 H629 0.930 . S
C645 C644 1.377 . S
C645 C646 1.379 . S
C646 H630 0.931 . S
C646 C640 1.383 . S
C646 C645 1.379 . S
H647 C641 0.959 . S
H648 C641 0.961 . S
H649 C641 0.960 . S
H650 C642 0.930 . S
H651 C643 0.929 . S
H652 C660 0.929 . S
H653 C662 0.930 . S
H654 C664 0.930 . S
H655 C667 0.929 . S
H656 C670 0.930 . S
H657 C672 0.960 . S
H658 C672 0.960 . S
H659 C672 0.960 . S
C660 H652 0.929 . S
C660 C661 1.377 . S
C660 C662 1.384 . S
C661 C660 1.377 . S
C661 C667 1.390 . S
C662 H653 0.930 . S
C662 C660 1.384 . S
C662 C663 1.372 . S
C663 C662 1.372 . S
C663 C664 1.400 . S
C663 C668 1.490 . S
C664 H654 0.930 . S
C664 C663 1.400 . S
C664 C667 1.386 . S
H665 C681 0.930 . S
H666 C682 0.931 . S
C667 H655 0.929 . S
C667 C661 1.390 . S
C667 C664 1.386 . S
C668 C663 1.490 . S
C668 C670 1.395 . S
C668 C671 1.403 . S
H669 C675 0.930 . S
C670 H656 0.930 . S
C670 C668 1.395 . S
C670 C673 1.403 . S
C671 C668 1.403 . S
C671 C672 1.524 . S
C671 C675 1.400 . S
C672 H657 0.960 . S
C672 H658 0.960 . S
C672 H659 0.960 . S
C672 C671 1.524 . S
C673 C670 1.403 . S
C673 C674 1.392 . S
C673 C677 1.495 . S
C674 C673 1.392 . S
C674 C675 1.385 . S
C674 C676 1.478 . S
C675 H669 0.930 . S
C675 C671 1.400 . S
C675 C674 1.385 . S
C676 C674 1.478 . S
C676 C678 1.381 . S
C676 C682 1.383 . S
C677 C673 1.495 . S
C677 H683 0.959 . S
C677 H684 0.961 . S
C677 H685 0.960 . S
C678 C676 1.381 . S
C678 C679 1.394 . S
C678 H686 0.930 . S
C679 C678 1.394 . S
C679 C680 1.383 . S
C679 H687 0.929 . S
C680 C679 1.383 . S
C680 C681 1.377 . S
C681 H665 0.930 . S
C681 C680 1.377 . S
C681 C682 1.379 . S
C682 H666 0.931 . S
C682 C676 1.383 . S
C682 C681 1.379 . S
H683 C677 0.959 . S
H684 C677 0.961 . S
H685 C677 0.960 . S
H686 C678 0.930 . S
H687 C679 0.929 . S
C121 C7 0.451 . S
C140 C91 0.516 . S
C157 C21 0.451 . S
C176 C105 0.518 . S
C193 C63 0.470 . S
C212 C35 0.417 . S
C229 C77 0.473 . S
C248 C49 0.409 . S
C265 C8 1.508 . S
C284 C78 1.502 . S
C301 C22 1.508 . S
C320 C92 1.500 . S
C337 C106 1.508 . S
C356 C36 1.502 . S
C373 C50 1.503 . S
C392 C64 1.494 . S
C409 C65 1.504 . S
C428 C9 1.492 . S
C445 C23 1.510 . S
C464 C79 1.500 . S
C481 C37 1.503 . S
C500 C93 1.508 . S
C517 C107 1.508 . S
C536 C51 1.512 . S
C553 C87 1.519 . S
C572 C3 1.506 . S
C589 C101 1.521 . S
C608 C17 1.511 . S
C625 C31 1.521 . S
C644 C59 1.511 . S
C661 C45 1.517 . S
C680 C73 1.520 . S
