# Generated by pormake.
# Topology snz, (6)-cn, num edge types: 1
# Building blocks:
#     Node 0, Type 0, BuildingBlock: VOLQOD_clean_sbu_1, # of connection points: 6
#     Node 1, Type 0, BuildingBlock: VOLQOD_clean_sbu_1, # of connection points: 6
#     Node 2, Type 0, BuildingBlock: VOLQOD_clean_sbu_1, # of connection points: 6
#     Node 3, Type 0, BuildingBlock: VOLQOD_clean_sbu_1, # of connection points: 6
#     Node 4, Type 0, BuildingBlock: VOLQOD_clean_sbu_1, # of connection points: 6
#     Node 5, Type 0, BuildingBlock: VOLQOD_clean_sbu_1, # of connection points: 6
#     Node 6, Type 0, BuildingBlock: VOLQOD_clean_sbu_1, # of connection points: 6
#     Node 7, Type 0, BuildingBlock: VOLQOD_clean_sbu_1, # of connection points: 6
#     Node 8, Type 0, BuildingBlock: VOLQOD_clean_sbu_1, # of connection points: 6
#     Edge 9, Type (0, 0), BuildingBlock: EZIPEK_clean_linker_0, # of connection points: 2
#     Edge 10, Type (0, 0), BuildingBlock: EZIPEK_clean_linker_0, # of connection points: 2
#     Edge 11, Type (0, 0), BuildingBlock: EZIPEK_clean_linker_0, # of connection points: 2
#     Edge 12, Type (0, 0), BuildingBlock: EZIPEK_clean_linker_0, # of connection points: 2
#     Edge 13, Type (0, 0), BuildingBlock: EZIPEK_clean_linker_0, # of connection points: 2
#     Edge 14, Type (0, 0), BuildingBlock: EZIPEK_clean_linker_0, # of connection points: 2
#     Edge 15, Type (0, 0), BuildingBlock: EZIPEK_clean_linker_0, # of connection points: 2
#     Edge 16, Type (0, 0), BuildingBlock: EZIPEK_clean_linker_0, # of connection points: 2
#     Edge 17, Type (0, 0), BuildingBlock: EZIPEK_clean_linker_0, # of connection points: 2
#     Edge 18, Type (0, 0), BuildingBlock: EZIPEK_clean_linker_0, # of connection points: 2
#     Edge 19, Type (0, 0), BuildingBlock: EZIPEK_clean_linker_0, # of connection points: 2
#     Edge 20, Type (0, 0), BuildingBlock: EZIPEK_clean_linker_0, # of connection points: 2
#     Edge 21, Type (0, 0), BuildingBlock: EZIPEK_clean_linker_0, # of connection points: 2
#     Edge 22, Type (0, 0), BuildingBlock: EZIPEK_clean_linker_0, # of connection points: 2
#     Edge 23, Type (0, 0), BuildingBlock: EZIPEK_clean_linker_0, # of connection points: 2
#     Edge 24, Type (0, 0), BuildingBlock: EZIPEK_clean_linker_0, # of connection points: 2
#     Edge 25, Type (0, 0), BuildingBlock: EZIPEK_clean_linker_0, # of connection points: 2
#     Edge 26, Type (0, 0), BuildingBlock: EZIPEK_clean_linker_0, # of connection points: 2
#     Edge 27, Type (0, 0), BuildingBlock: EZIPEK_clean_linker_0, # of connection points: 2
#     Edge 28, Type (0, 0), BuildingBlock: EZIPEK_clean_linker_0, # of connection points: 2
#     Edge 29, Type (0, 0), BuildingBlock: EZIPEK_clean_linker_0, # of connection points: 2
#     Edge 30, Type (0, 0), BuildingBlock: EZIPEK_clean_linker_0, # of connection points: 2
#     Edge 31, Type (0, 0), BuildingBlock: EZIPEK_clean_linker_0, # of connection points: 2
#     Edge 32, Type (0, 0), BuildingBlock: EZIPEK_clean_linker_0, # of connection points: 2
#     Edge 33, Type (0, 0), BuildingBlock: EZIPEK_clean_linker_0, # of connection points: 2
#     Edge 34, Type (0, 0), BuildingBlock: EZIPEK_clean_linker_0, # of connection points: 2
#     Edge 35, Type (0, 0), BuildingBlock: EZIPEK_clean_linker_0, # of connection points: 2
# Relax obj value: 0.409
# Max RMSD: 0.302
# Mean RMSD: 0.293
data_MOF--net-snz--node1-VOLQOD_clean_sbu_1--edge1-EZIPEK_clean_linker_0
_symmetry_space_group_name_H-M    P1
_symmetry_Int_Tables_number       1
_symmetry_cell_setting            triclinic
loop_
_symmetry_equiv_pos_as_xyz
'x, y, z'
_cell_length_a     40.194338
_cell_length_b     40.399214
_cell_length_c     12.070724
_cell_angle_alpha  90.343632
_cell_angle_beta   89.875617
_cell_angle_gamma 120.00993
loop_
_atom_site_label
_atom_site_type_symbol
_atom_site_fract_x
_atom_site_fract_y
_atom_site_fract_z
_atom_type_partial_charge
O0 O 0.05973 0.52158 0.02399 0.0
Zn1 Zn 0.02266 0.53744 0.96389 0.0
O2 O 0.97101 0.50323 0.02012 0.0
Zn3 Zn 0.94004 0.47879 0.89764 0.0
Zn4 Zn 0.96778 0.46136 0.09769 0.0
Zn5 Zn 0.94915 0.52958 0.09611 0.0
O6 O 0.91733 0.50817 0.84059 0.0
O7 O 0.91075 0.53462 -0.00429 0.0
O8 O 0.01946 0.53801 0.79406 0.0
O9 O 0.97441 0.47746 0.78671 0.0
O10 O 0.89841 0.42544 0.91919 0.0
O11 O 0.93137 0.40964 0.03211 0.0
O12 O 0.95351 0.46617 0.2493 0.0
O13 O 0.04206 0.58963 0.03004 0.0
O14 O 0.93281 0.50772 0.25035 0.0
O15 O -0.00835 0.58234 0.12759 0.0
C16 C 0.05329 0.49301 0.08352 0.0
C17 C 0.90477 0.52708 0.8921 0.0
C18 C 0.90349 0.40033 0.96583 0.0
C19 C -0.00238 0.50802 0.73785 0.0
C20 C 0.94014 0.48445 0.30118 0.0
C21 C 0.02649 0.60218 0.0974 0.0
O22 O 0.01944 0.46783 0.11118 0.0
O23 O 0.51082 0.59331 0.04822 0.0
Zn24 Zn 0.49602 0.53872 0.01612 0.0
O25 O 0.52586 0.52485 0.10537 0.0
Zn26 Zn 0.55235 0.50225 0.03671 0.0
Zn27 Zn 0.56977 0.56841 0.15744 0.0
Zn28 Zn 0.49339 0.48906 0.20622 0.0
O29 O 0.52352 0.44595 0.03498 0.0
O30 O 0.47406 0.43683 0.13853 0.0
O31 O 0.50761 0.53224 0.86014 0.0
O32 O 0.55212 0.51515 0.88555 0.0
O33 O 0.60866 0.52601 0.06669 0.0
O34 O 0.61308 0.58164 0.05374 0.0
O35 O 0.57979 0.55657 0.30504 0.0
O36 O 0.44012 0.50818 0.05588 0.0
O37 O 0.52408 0.50302 0.34252 0.0
O38 O 0.44639 0.49313 0.22865 0.0
C39 C 0.53577 0.61749 0.11475 0.0
C40 C 0.48964 0.42459 0.07017 0.0
C41 C 0.62698 0.56026 0.03203 0.0
C42 C 0.53294 0.52467 0.82407 0.0
C43 C 0.55718 0.53037 0.37031 0.0
C44 C 0.42645 0.49633 0.15225 0.0
O45 O 0.55975 0.61131 0.16546 0.0
O46 O 0.40326 0.95479 -0.00934 0.0
Zn47 Zn 0.45736 0.98445 0.93112 0.0
O48 O 0.48496 0.03174 0.01217 0.0
Zn49 Zn 0.52011 0.07498 0.93193 0.0
Zn50 Zn 0.4509 0.04642 0.06939 0.0
Zn51 Zn 0.51287 0.02385 0.12081 0.0
O52 O 0.57396 0.08721 0.94709 0.0
O53 O 0.56805 0.04516 0.07458 0.0
O54 O 0.45971 -0.00222 0.76918 0.0
O55 O 0.50622 0.05887 0.78241 0.0
O56 O 0.51194 0.11988 0.93948 0.0
O57 O 0.44913 0.08446 0.96913 0.0
O58 O 0.4681 0.06894 0.21832 0.0
O59 O 0.48255 0.9531 0.96369 0.0
O60 O 0.50762 0.04703 0.25679 0.0
O61 O 0.49115 0.9684 0.14176 0.0
C62 C 0.38578 0.96542 0.05751 0.0
C63 C 0.58803 0.07092 0.00431 0.0
C64 C 0.47807 0.11466 0.93264 0.0
C65 C 0.48257 0.03021 0.72628 0.0
C66 C 0.48981 0.06442 0.28504 0.0
C67 C 0.49061 0.94767 0.06159 0.0
O68 O 0.40043 -0.00015 0.09076 0.0
O69 O 0.74507 0.93314 0.35412 0.0
Zn70 Zn 0.71123 0.88857 0.25623 0.0
O71 O 0.65866 0.86959 0.30205 0.0
Zn72 Zn 0.64171 0.82674 0.39836 0.0
Zn73 Zn 0.65833 0.91301 0.36551 0.0
Zn74 Zn 0.62369 0.85246 0.18483 0.0
O75 O 0.59711 0.77791 0.33856 0.0
O76 O 0.59468 0.79706 0.1686 0.0
O77 O 0.72708 0.84927 0.2817 0.0
O78 O 0.68221 0.81289 0.40417 0.0
O79 O 0.63779 0.84217 0.55182 0.0
O80 O 0.65392 0.90297 0.5248 0.0
O81 O 0.61517 0.9203 0.3076 0.0
O82 O 0.71616 0.9037 0.09566 0.0
O83 O 0.58748 0.87118 0.19059 0.0
O84 O 0.65367 0.87368 0.05373 0.0
C85 C 0.74115 0.96152 0.38012 0.0
C86 C 0.58564 0.77066 0.23835 0.0
C87 C 0.64734 0.87543 0.58808 0.0
C88 C 0.713 0.82221 0.35173 0.0
C89 C 0.58861 0.89952 0.23924 0.0
C90 C 0.68869 0.89372 0.0269 0.0
O91 O 0.71038 0.96163 0.35567 0.0
O92 O 0.06715 0.85541 0.37135 0.0
Zn93 Zn 0.12364 0.88331 0.33282 0.0
O94 O 0.14641 0.85145 0.36501 0.0
Zn95 Zn 0.19379 0.88359 0.43833 0.0
Zn96 Zn 0.11357 0.80875 0.45678 0.0
Zn97 Zn 0.15801 0.83237 0.23756 0.0
O98 O 0.23943 0.88096 0.37986 0.0
O99 O 0.21391 0.85429 0.21785 0.0
O100 O 0.1512 0.93282 0.42009 0.0
O101 O 0.20867 0.93766 0.42361 0.0
O102 O 0.18284 0.87771 0.59792 0.0
O103 O 0.1292 0.82162 0.61587 0.0
O104 O 0.10557 0.75794 0.39886 0.0
O105 O 0.12897 0.89492 0.16878 0.0
O106 O 0.13057 0.77627 0.2307 0.0
O107 O 0.14276 0.85061 0.11064 0.0
C108 C 0.04719 0.82304 0.41745 0.0
C109 C 0.24284 0.87196 0.28085 0.0
C110 C 0.15563 0.85297 0.65679 0.0
C111 C 0.18711 0.95174 0.44032 0.0
C112 C 0.11186 0.75027 0.30103 0.0
C113 C 0.13455 0.87651 0.09187 0.0
O114 O 0.0617 0.80306 0.44936 0.0
O115 O 0.14102 0.27597 0.36606 0.0
Zn116 Zn 0.13025 0.31277 0.28537 0.0
O117 O 0.16691 0.36415 0.33129 0.0
Zn118 Zn 0.14535 0.38457 0.43344 0.0
Zn119 Zn 0.20884 0.36085 0.39044 0.0
Zn120 Zn 0.18561 0.39854 0.21355 0.0
O121 O 0.14876 0.4337 0.37944 0.0
O122 O 0.15691 0.42634 0.20165 0.0
O123 O 0.07695 0.29879 0.32983 0.0
O124 O 0.08943 0.34497 0.45274 0.0
O125 O 0.16791 0.38817 0.58354 0.0
O126 O 0.20299 0.36048 0.55117 0.0
O127 O 0.2594 0.40232 0.33591 0.0
O128 O 0.13603 0.30678 0.12364 0.0
O129 O 0.24243 0.43411 0.22061 0.0
O130 O 0.17646 0.36783 0.08142 0.0
C131 C 0.17359 0.279 0.38238 0.0
C132 C 0.14683 0.44124 0.27813 0.0
C133 C 0.18616 0.37184 0.61717 0.0
C134 C 0.06641 0.31292 0.4077 0.0
C135 C 0.26797 0.4298 0.26971 0.0
C136 C 0.15718 0.33273 0.05534 0.0
O137 O 0.20447 0.31012 0.36381 0.0
O138 O 0.40341 0.28043 0.71871 0.0
Zn139 Zn 0.37312 0.23024 0.64097 0.0
O140 O 0.3227 0.20181 0.70516 0.0
Zn141 Zn 0.31651 0.1624 0.80134 0.0
Zn142 Zn 0.31002 0.23772 0.76666 0.0
Zn143 Zn 0.28395 0.17785 0.59979 0.0
O144 O 0.27742 0.10863 0.74644 0.0
O145 O 0.26825 0.12439 0.57801 0.0
O146 O 0.40306 0.20319 0.66932 0.0
O147 O 0.36705 0.16451 0.80542 0.0
O148 O 0.3081 0.17828 0.95055 0.0
O149 O 0.2897 0.22104 0.91667 0.0
O150 O 0.27149 0.24238 0.66894 0.0
O151 O 0.36756 0.24094 0.48224 0.0
O152 O 0.23736 0.18042 0.63732 0.0
O153 O 0.30429 0.20506 0.4611 0.0
C154 C 0.39321 0.29895 0.78193 0.0
C155 C 0.26421 0.09945 0.64804 0.0
C156 C 0.29847 0.20242 -0.01646 0.0
C157 C 0.39751 0.17966 0.74699 0.0
C158 C 0.24114 0.21335 0.63188 0.0
C159 C 0.33725 0.22908 0.42418 0.0
O160 O 0.35789 0.28723 0.80091 0.0
O161 O 0.7505 0.13745 0.77236 0.0
Zn162 Zn 0.80393 0.17134 0.71444 0.0
O163 O 0.83817 0.15595 0.77941 0.0
Zn164 Zn 0.87995 0.19625 0.85729 0.0
Zn165 Zn 0.81168 0.11006 0.85833 0.0
Zn166 Zn 0.8584 0.14073 0.66184 0.0
O167 O 0.92821 0.2193 0.76321 0.0
O168 O 0.90595 0.18498 0.6078 0.0
O169 O 0.81855 0.22388 0.76786 0.0
O170 O 0.86871 0.23842 0.87704 0.0
O171 O 0.88253 0.17822 0.01065 0.0
O172 O 0.8353 0.11797 0.00426 0.0
O173 O 0.81049 0.06714 0.77296 0.0
O174 O 0.80918 0.17156 0.54624 0.0
O175 O 0.86528 0.09587 0.68499 0.0
O176 O 0.81967 0.12302 0.54708 0.0
C177 C 0.7377 0.11107 0.84477 0.0
C178 C 0.93172 0.21351 0.66083 0.0
C179 C 0.8618 0.14598 0.05743 0.0
C180 C 0.84459 0.24631 0.83493 0.0
C181 C 0.83494 0.06521 0.70993 0.0
C182 C 0.81471 0.14713 0.49469 0.0
O183 O 0.75806 0.09808 0.88487 0.0
O184 O 0.80695 0.57657 0.55649 0.0
Zn185 Zn 0.77019 0.5946 0.51144 0.0
O186 O 0.79105 0.64836 0.55088 0.0
Zn187 Zn 0.74717 0.64938 0.60599 0.0
Zn188 Zn 0.83044 0.66486 0.65814 0.0
Zn189 Zn 0.80889 0.68108 0.42962 0.0
O190 O 0.74432 0.69533 0.55943 0.0
O191 O 0.78829 0.71641 0.42614 0.0
O192 O 0.7229 0.56523 0.60603 0.0
O193 O 0.70218 0.60217 0.549 0.0
O194 O 0.74693 0.64324 0.76817 0.0
O195 O 0.80861 0.66444 0.80746 0.0
O196 O 0.879 0.71302 0.61008 0.0
O197 O 0.75614 0.58816 0.3486 0.0
O198 O 0.86509 0.71298 0.43132 0.0
O199 O 0.78908 0.64947 0.29738 0.0
C200 C 0.83334 0.59149 0.62977 0.0
C201 C 0.76302 0.71886 0.48278 0.0
C202 C 0.77363 0.65054 0.83685 0.0
C203 C 0.6963 0.57354 0.60625 0.0
C204 C 0.88877 0.72559 0.5115 0.0
C205 C 0.76737 0.61423 0.27533 0.0
O206 O 0.84392 0.62416 0.67203 0.0
C207 C 0.97717 0.53216 0.57538 0.0
C208 C 0.99063 0.50812 0.61747 0.0
C209 C 0.95538 0.46104 0.47238 0.0
C210 C 0.94472 0.48623 0.42426 0.0
N211 N 0.93032 0.53638 0.45868 0.0
N212 N 8e-05 0.45438 0.59068 0.0
C213 C 0.95131 0.51933 0.48373 0.0
C214 C 0.98214 0.47408 0.56027 0.0
N215 N 0.98979 0.56757 0.62034 0.0
N216 N 0.93829 0.42397 0.43658 0.0
H217 H 0.02074 0.46419 0.65348 0.0
H218 H -0.00257 0.4309 0.54671 0.0
H219 H 0.91623 0.41325 0.37781 0.0
H220 H 0.94263 0.40322 0.4737 0.0
H221 H 0.98367 0.58757 0.58644 0.0
H222 H 0.0102 0.57898 0.68313 0.0
H223 H 0.93131 0.55877 0.50451 0.0
H224 H 0.90764 0.52434 0.40218 0.0
C225 C 0.54663 0.49938 0.65455 0.0
C226 C 0.5427 0.52865 0.70795 0.0
C227 C 0.55898 0.56539 0.53925 0.0
C228 C 0.56421 0.53662 0.4875 0.0
N229 N 0.57521 0.48367 0.50144 0.0
N230 N 0.55784 0.59471 0.71247 0.0
C231 C 0.5627 0.50636 0.54807 0.0
C232 C 0.55279 0.56337 0.6541 0.0
N233 N 0.53277 0.46426 0.70213 0.0
N234 N 0.5574 0.59315 0.47893 0.0
H235 H 0.55563 0.59516 0.79844 0.0
H236 H 0.56869 0.62161 0.67692 0.0
H237 H 0.56268 0.59699 0.39428 0.0
H238 H 0.54835 0.61116 0.51247 0.0
H239 H 0.53218 0.44116 0.66137 0.0
H240 H 0.51808 0.45686 0.77735 0.0
H241 H 0.57746 0.46275 0.54542 0.0
H242 H 0.587 0.48876 0.42189 0.0
C243 C 0.4504 0.04109 0.56668 0.0
C244 C 0.48166 0.038 0.60924 0.0
C245 C 0.52249 0.07784 0.46051 0.0
C246 C 0.4896 0.07223 0.4038 0.0
N247 N 0.42334 0.05674 0.40999 0.0
N248 N 0.54661 0.05003 0.59081 0.0
C249 C 0.45385 0.05683 0.45964 0.0
C250 C 0.51761 0.05557 0.55439 0.0
N251 N 0.41864 0.03113 0.63049 0.0
N252 N 0.55796 0.10235 0.41855 0.0
H253 H 0.54292 0.03192 0.65674 0.0
H254 H 0.57259 0.06011 0.549 0.0
H255 H 0.56111 0.11817 0.34712 0.0
H256 H 0.58344 0.10938 0.4597 0.0
H257 H 0.39713 0.03713 0.60917 0.0
H258 H 0.41478 0.01894 0.70868 0.0
H259 H 0.39515 0.04056 0.43785 0.0
H260 H 0.42654 0.07373 0.34171 0.0
C261 C 0.69493 0.88017 0.72763 0.0
C262 C 0.66392 0.88613 0.6991 0.0
C263 C 0.67348 0.92098 0.87129 0.0
C264 C 0.6952 0.90486 0.91117 0.0
N265 N 0.7292 0.87086 0.87737 0.0
N266 N 0.62422 0.91375 0.74298 0.0
C267 C 0.70744 0.8856 0.83883 0.0
C268 C 0.65368 0.90759 0.76994 0.0
N269 N 0.71351 0.87118 0.64835 0.0
N270 N 0.67102 0.94797 0.93335 0.0
H271 H 0.60836 0.9034 0.67002 0.0
H272 H 0.61359 0.92645 0.79706 0.0
H273 H 0.68554 0.9575 0.00882 0.0
H274 H 0.65835 0.96333 0.90445 0.0
H275 H 0.73819 0.86971 0.66472 0.0
H276 H 0.70722 0.86973 0.56413 0.0
H277 H 0.73468 0.85224 0.83107 0.0
H278 H 0.74046 0.87621 0.95744 0.0
C279 C 0.18149 0.88897 0.8359 0.0
C280 C 0.14963 0.86563 0.76652 0.0
C281 C 0.10579 0.86572 0.90734 0.0
C282 C 0.13759 0.88762 0.97623 0.0
N283 N 0.20441 0.93364 -0.00994 0.0
N284 N 0.08407 0.84847 0.7192 0.0
C285 C 0.17503 0.90457 0.9331 0.0
C286 C 0.11237 0.85897 0.79654 0.0
N287 N 0.2171 0.89401 0.81423 0.0
N288 N 0.06954 0.85009 0.94944 0.0
H289 H 0.08887 0.84795 0.63458 0.0
H290 H 0.05739 0.84547 0.73788 0.0
H291 H 0.0645 0.85637 0.02971 0.0
H292 H 0.04521 0.82995 0.90664 0.0
H293 H 0.24027 0.90841 0.86824 0.0
H294 H 0.22252 0.88032 0.74907 0.0
H295 H 0.2321 0.94921 0.95805 0.0
H296 H 0.19943 0.94438 0.06335 0.0
C297 C 0.13799 0.3319 0.75932 0.0
C298 C 0.17726 0.35455 0.72767 0.0
C299 C 0.19593 0.33603 0.89745 0.0
C300 C 0.15888 0.32399 0.93959 0.0
N301 N 0.09308 0.3073 0.91128 0.0
N302 N 0.24422 0.37628 0.76422 0.0
C303 C 0.12915 0.32019 0.8701 0.0
C304 C 0.20654 0.35545 0.79502 0.0
N305 N 0.10939 0.31942 0.68234 0.0
N306 N 0.22098 0.3302 0.95881 0.0
H307 H 0.25318 0.39262 0.6923 0.0
H308 H 0.26687 0.37964 0.81369 0.0
H309 H 0.21296 0.31637 0.03528 0.0
H310 H 0.24763 0.33558 0.92972 0.0
H311 H 0.08057 0.3008 0.70049 0.0
H312 H 0.11522 0.32314 0.59807 0.0
H313 H 0.07161 0.30898 0.8677 0.0
H314 H 0.08522 0.29632 -0.00895 0.0
C315 C 0.30644 0.24377 0.27184 0.0
C316 C 0.33854 0.24126 0.30898 0.0
C317 C 0.35175 0.23208 0.11935 0.0
C318 C 0.31293 0.22004 0.09266 0.0
N319 N 0.25535 0.22214 0.13561 0.0
N320 N 0.39672 0.2402 0.26277 0.0
C321 C 0.29099 0.22902 0.16559 0.0
C322 C 0.36332 0.23852 0.23112 0.0
N323 N 0.29051 0.25899 0.34058 0.0
N324 N 0.37807 0.23974 0.03762 0.0
H325 H 0.409 0.24934 0.34069 0.0
H326 H 0.41221 0.23225 0.21031 0.0
H327 H 0.37126 0.23763 0.95357 0.0
H328 H 0.40742 0.25314 0.05399 0.0
H329 H 0.26875 0.26429 0.31657 0.0
H330 H 0.30208 0.26968 0.41888 0.0
H331 H 0.23778 0.22737 0.18729 0.0
H332 H 0.24253 0.20961 0.06019 0.0
C333 C 0.80756 0.11577 0.31618 0.0
C334 C 0.82505 0.1505 0.37682 0.0
C335 C 0.87873 0.17771 0.2446 0.0
C336 C 0.85914 0.14387 0.18057 0.0
N337 N 0.81802 0.07568 0.18846 0.0
N338 N 0.87722 0.21574 0.39877 0.0
C339 C 0.82758 0.11118 0.22703 0.0
C340 C 0.86071 0.18197 0.34115 0.0
N341 N 0.77166 0.08719 0.3445 0.0
N342 N 0.91564 0.20404 0.21719 0.0
H343 H 0.86541 0.22019 0.4701 0.0
H344 H 0.90132 0.2406 0.37195 0.0
H345 H 0.93024 0.19883 0.15399 0.0
H346 H 0.93322 0.22843 0.26357 0.0
H347 H 0.75618 0.06231 0.29766 0.0
H348 H 0.75597 0.09024 0.40884 0.0
H349 H 0.79639 0.05048 0.22303 0.0
H350 H 0.83506 0.07176 0.13036 0.0
C351 C 0.76877 0.59239 0.08477 0.0
C352 C 0.75221 0.60593 0.1625 0.0
C353 C 0.74283 0.64353 0.02226 0.0
C354 C 0.76242 0.63268 0.94613 0.0
N355 N 0.77894 0.58503 0.89099 0.0
N356 N 0.70962 0.63018 0.1985 0.0
C357 C 0.77046 0.60313 0.97272 0.0
C358 C 0.73386 0.62616 0.12765 0.0
N359 N 0.78494 0.57149 0.11924 0.0
N360 N 0.73531 0.67206 -0.00284 0.0
H361 H 0.70345 0.61764 0.27688 0.0
H362 H 0.69314 0.64235 0.17547 0.0
H363 H 0.74186 0.68561 0.9204 0.0
H364 H 0.72476 0.68382 0.05479 0.0
H365 H 0.80186 0.56492 0.06846 0.0
H366 H 0.78241 0.56203 0.20073 0.0
H367 H 0.78207 0.56138 0.90579 0.0
H368 H 0.77867 0.59104 0.80718 0.0
C369 C 0.09737 0.46262 0.30052 0.0
C370 C 0.12982 0.465 0.24494 0.0
C371 C 0.11706 0.49414 0.08478 0.0
C372 C 0.08495 0.4915 0.14106 0.0
N373 N 0.05743 0.49129 0.31924 0.0
N374 N 0.17877 0.49802 0.10599 0.0
C375 C 0.0798 0.48219 0.25509 0.0
C376 C 0.14251 0.48593 0.14423 0.0
N377 N 0.08057 0.43926 0.38945 0.0
N378 N 0.12232 0.50224 0.97438 0.0
H379 H 0.19875 0.49428 0.15124 0.0
H380 H 0.19018 0.51555 0.03697 0.0
H381 H 0.10411 0.50804 0.92756 0.0
H382 H 0.14324 0.5004 0.92796 0.0
H383 H 0.05462 0.43457 0.4229 0.0
H384 H 0.08921 0.42118 0.42299 0.0
H385 H 0.05521 0.48745 0.40486 0.0
H386 H 0.04507 0.50679 0.28861 0.0
C387 C 0.52454 0.66283 0.22713 0.0
C388 C 0.53936 0.65505 0.1301 0.0
C389 C 0.5832 0.72265 0.10163 0.0
C390 C 0.56745 0.73104 0.19665 0.0
N391 N 0.5168 0.70981 0.33239 0.0
N392 N 0.57373 0.67668 0.95817 0.0
C393 C 0.53598 0.7013 0.25401 0.0
C394 C 0.56523 0.68479 0.06093 0.0
N395 N 0.5008 0.63361 0.29543 0.0
N396 N 0.61723 0.74968 0.05614 0.0
H397 H 0.56132 0.64885 0.92708 0.0
H398 H 0.58982 0.69769 0.9001 0.0
H399 H 0.63399 0.77721 0.08774 0.0
H400 H 0.63147 0.74344 -0.00552 0.0
H401 H 0.49263 0.63785 0.3738 0.0
H402 H 0.49108 0.60504 0.27573 0.0
H403 H 0.49161 0.6892 0.3701 0.0
H404 H 0.52401 0.73782 0.35186 0.0
C405 C 0.34336 0.90644 0.16875 0.0
C406 C 0.3479 0.93754 0.10274 0.0
C407 C 0.28609 0.92772 0.16648 0.0
C408 C 0.27995 0.89468 0.22474 0.0
N409 N 0.29933 0.84877 0.26836 0.0
N410 N 0.32024 0.97218 0.01888 0.0
C411 C 0.3075 0.88271 0.22155 0.0
C412 C 0.31814 0.94639 0.09552 0.0
N413 N 0.37384 0.90103 0.18692 0.0
N414 N 0.26188 0.94199 0.18143 0.0
H415 H 0.34281 0.98533 0.96239 0.0
H416 H 0.29802 0.97773 0.00391 0.0
H417 H 0.23729 0.92881 0.23052 0.0
H418 H 0.26803 0.96874 0.15279 0.0
H419 H 0.37326 0.88145 0.24375 0.0
H420 H 0.40085 0.91824 0.15217 0.0
H421 H 0.31663 0.83654 0.25848 0.0
H422 H 0.27372 0.83154 0.31062 0.0
C423 C 0.46093 0.16547 0.94431 0.0
C424 C 0.47114 0.14303 0.87836 0.0
C425 C 0.44148 0.15304 0.71509 0.0
C426 C 0.42887 0.1733 0.78296 0.0
N427 N 0.4368 0.20951 0.94977 0.0
N428 N 0.48379 0.12667 0.69727 0.0
C429 C 0.44221 0.18318 0.89369 0.0
C430 C 0.46583 0.1408 0.762 0.0
N431 N 0.46758 0.16826 0.05592 0.0
N432 N 0.42816 0.14325 0.60903 0.0
H433 H 0.50242 0.11841 0.73038 0.0
H434 H 0.48362 0.12718 0.61104 0.0
H435 H 0.41054 0.1521 0.57191 0.0
H436 H 0.43272 0.12455 0.56019 0.0
H437 H 0.45648 0.18016 0.11115 0.0
H438 H 0.48321 0.15716 0.09381 0.0
H439 H 0.44872 0.2206 0.02711 0.0
H440 H 0.4232 0.22283 0.91323 0.0
C441 C 0.84469 0.29252 0.97234 0.0
C442 C 0.84918 0.28388 0.86115 0.0
C443 C 0.8849 0.35152 0.81533 0.0
C444 C 0.88104 0.36045 0.92718 0.0
N445 N 0.85064 0.34057 0.10537 0.0
N446 N 0.86408 0.30361 0.67052 0.0
C447 C 0.85868 0.3312 0.00368 0.0
C448 C 0.86568 0.31288 0.78033 0.0
N449 N 0.82806 0.26371 0.0481 0.0
N450 N 0.90953 0.37951 0.74477 0.0
H451 H 0.85177 0.2756 0.6414 0.0
H452 H 0.87185 0.32351 0.60711 0.0
H453 H 0.92494 0.40828 0.76609 0.0
H454 H 0.91747 0.37397 0.66773 0.0
H455 H 0.82803 0.26821 0.13307 0.0
H456 H 0.8153 0.2349 0.02569 0.0
H457 H 0.83183 0.32058 0.16189 0.0
H458 H 0.8605 0.3688 0.12983 0.0
C459 C 0.65762 0.58896 0.73932 0.0
C460 C 0.67213 0.5646 0.70896 0.0
C461 C 0.66559 0.54348 0.90249 0.0
C462 C 0.65225 0.56883 0.93223 0.0
N463 N 0.65426 0.62799 0.88529 0.0
N464 N 0.67653 0.50901 0.75511 0.0
C465 C 0.65382 0.59534 0.85271 0.0
C466 C 0.67247 0.5391 0.789 0.0
N467 N 0.64588 0.60483 0.65997 0.0
N468 N 0.67406 0.52555 -0.01605 0.0
H469 H 0.67728 0.5028 0.6714 0.0
H470 H 0.67409 0.48765 0.80804 0.0
H471 H 0.67225 0.531 0.06777 0.0
H472 H 0.68738 0.5095 0.96914 0.0
H473 H 0.63434 0.62226 0.67819 0.0
H474 H 0.64244 0.59603 0.57731 0.0
H475 H 0.65826 0.64944 0.83022 0.0
H476 H 0.65721 0.63664 0.96791 0.0
C477 C 0.82722 0.53621 0.74031 0.0
C478 C 0.85041 0.56987 0.6779 0.0
C479 C 0.90851 0.57675 0.76458 0.0
C480 C 0.88552 0.54286 0.82522 0.0
N481 N 0.82454 0.48587 0.8554 0.0
N482 N 0.91262 0.61631 0.60895 0.0
C483 C 0.84531 0.52113 0.80806 0.0
C484 C 0.89099 0.58825 0.68335 0.0
N485 N 0.78809 0.51985 0.74023 0.0
N486 N 0.94696 0.59837 0.78658 0.0
H487 H 0.90027 0.62458 0.54686 0.0
H488 H 0.94228 0.62857 0.60146 0.0
H489 H 0.96092 0.59047 0.8445 0.0
H490 H 0.96453 0.62544 0.75369 0.0
H491 H 0.77018 0.49839 0.79479 0.0
H492 H 0.77325 0.52933 0.69138 0.0
H493 H 0.79602 0.46662 0.83537 0.0
H494 H 0.83661 0.4747 0.90947 0.0
C495 C 0.44357 0.39778 0.91303 0.0
C496 C 0.46452 0.39201 -0.0017 0.0
C497 C 0.44866 0.3305 0.91648 0.0
C498 C 0.42245 0.33329 0.84276 0.0
N499 N 0.39505 0.36989 0.76985 0.0
N500 N 0.4839 0.35175 0.08964 0.0
C501 C 0.41991 0.36704 0.84105 0.0
C502 C 0.4662 0.35804 0.00238 0.0
N503 N 0.44781 0.43321 0.89705 0.0
N504 N 0.45802 0.30255 0.90313 0.0
H505 H 0.49728 0.3717 0.15329 0.0
H506 H 0.4822 0.32555 0.10418 0.0
H507 H 0.44761 0.28255 0.83944 0.0
H508 H 0.47964 0.30171 0.94828 0.0
H509 H 0.43721 0.4403 0.82803 0.0
H510 H 0.46448 0.45666 0.94811 0.0
H511 H 0.38772 0.39119 0.7759 0.0
H512 H 0.3806 0.35005 0.70676 0.0
C513 C 0.66654 0.07515 0.82321 0.0
C514 C 0.69911 0.09735 0.89064 0.0
C515 C 0.65836 0.09902 0.03976 0.0
C516 C 0.62594 0.07706 0.97177 0.0
N517 N 0.5972 0.03723 0.8107 0.0
N518 N 0.72688 0.12616 0.06786 0.0
C519 C 0.62948 0.06301 0.86692 0.0
C520 C 0.69525 0.10769 0.00094 0.0
N521 N 0.67118 0.06625 0.71683 0.0
N522 N 0.65397 0.11313 0.13865 0.0
H523 H 0.75483 0.13568 0.04057 0.0
H524 H 0.72551 0.13039 0.15247 0.0
H525 H 0.62715 0.10642 0.17032 0.0
H526 H 0.6767 0.13299 0.18696 0.0
H527 H 0.64913 0.05437 0.65859 0.0
H528 H 0.69776 0.07252 0.68432 0.0
H529 H 0.59762 0.02262 0.73991 0.0
H530 H 0.56947 0.02775 0.84014 0.0
C531 C 0.54795 0.94112 0.04324 0.0
C532 C 0.50987 0.92548 0.08217 0.0
C533 C 0.52263 0.89033 0.22476 0.0
C534 C 0.56219 0.91159 0.19748 0.0
N535 N 0.61363 0.96152 0.09129 0.0
N536 N 0.45951 0.88392 0.20596 0.0
C537 C 0.5752 0.93832 0.10996 0.0
C538 C 0.49667 0.89929 0.17134 0.0
N539 N 0.55802 0.95798 0.94168 0.0
N540 N 0.51007 0.86172 0.30114 0.0
H541 H 0.43949 0.88787 0.16181 0.0
H542 H 0.4489 0.86829 0.27853 0.0
H543 H 0.5288 0.85603 0.34601 0.0
H544 H 0.48117 0.84259 0.31647 0.0
H545 H 0.58479 0.96692 0.90585 0.0
H546 H 0.5382 0.95831 0.88706 0.0
H547 H 0.62445 0.98462 0.03715 0.0
H548 H 0.6348 0.96014 0.13739 0.0
C549 C 0.09853 0.68278 0.2814 0.0
C550 C 0.08889 0.71116 0.257 0.0
C551 C 0.04204 0.66953 0.11815 0.0
C552 C 0.04974 0.64022 0.14757 0.0
N553 N 0.08061 0.61595 0.2674 0.0
N554 N 0.04685 0.72972 0.16879 0.0
C555 C 0.07676 0.64597 0.232 0.0
C556 C 0.05924 0.70395 0.18016 0.0
N557 N 0.12908 0.69141 0.34896 0.0
N558 N 0.01915 0.6648 0.02879 0.0
H559 H 0.05842 0.75518 0.21393 0.0
H560 H 0.0229 0.72443 0.12226 0.0
H561 H 0.0061 0.6398 -0.01868 0.0
H562 H 0.0158 0.68667 -0.00452 0.0
H563 H 0.14033 0.67339 0.36031 0.0
H564 H 0.14481 0.71786 0.38857 0.0
H565 H 0.09666 0.61727 0.33658 0.0
H566 H 0.06555 0.58869 0.23219 0.0
C567 C 0.3572 0.45094 0.11375 0.0
C568 C 0.38558 0.48274 0.17411 0.0
C569 C 0.33607 0.48216 0.29432 0.0
C570 C 0.30782 0.4515 0.23065 0.0
N571 N 0.29013 0.41209 0.06585 0.0
N572 N 0.40229 0.53344 0.30718 0.0
C573 C 0.31798 0.43788 0.13532 0.0
C574 C 0.37508 0.49987 0.26017 0.0
N575 N 0.36758 0.43141 0.04171 0.0
N576 N 0.32565 0.49365 0.38842 0.0
H577 H 0.43104 0.54717 0.28317 0.0
H578 H 0.39598 0.5493 0.36287 0.0
H579 H 0.29703 0.48224 0.41251 0.0
H580 H 0.34529 0.51291 0.44546 0.0
H581 H 0.34805 0.40533 0.00558 0.0
H582 H 0.39602 0.43914 0.02594 0.0
H583 H 0.29622 0.40468 -0.01116 0.0
H584 H 0.26082 0.40063 0.08016 0.0
C585 C 0.71887 0.73318 0.37772 0.0
C586 C 0.75161 0.74632 0.44687 0.0
C587 C 0.76277 0.81158 0.44068 0.0
C588 C 0.73058 0.79849 0.36951 0.0
N589 N 0.68312 0.7499 0.25049 0.0
N590 N 0.80871 0.79803 0.52962 0.0
C591 C 0.71024 0.76014 0.3318 0.0
C592 C 0.77496 0.78563 0.47347 0.0
N593 N 0.6957 0.69489 0.35758 0.0
N594 N 0.7804 0.84819 0.48087 0.0
H595 H 0.81763 0.77948 0.5591 0.0
H596 H 0.829 0.82676 0.5411 0.0
H597 H 0.7729 0.86825 0.45557 0.0
H598 H 0.80097 0.85817 0.5435 0.0
H599 H 0.66912 0.68323 0.31834 0.0
H600 H 0.70168 0.67417 0.38663 0.0
H601 H 0.66958 0.72328 0.21156 0.0
H602 H 0.67674 0.76947 0.21445 0.0
C603 C 0.26144 0.05302 0.50906 0.0
C604 C 0.2463 0.05974 0.60734 0.0
C605 C 0.19259 -0.00596 0.60088 0.0
C606 C 0.20474 0.98966 0.49368 0.0
N607 N 0.24728 0.01731 0.33761 0.0
N608 N 0.19481 0.03838 0.74056 0.0
C609 C 0.23823 0.01987 0.44541 0.0
C610 C 0.21119 0.03071 0.65213 0.0
N611 N 0.29842 0.07803 0.47807 0.0
N612 N 0.16475 0.96306 0.65618 0.0
H613 H 0.20774 0.06475 0.78119 0.0
H614 H 0.16713 0.01944 0.76832 0.0
H615 H 0.15072 0.9355 0.62297 0.0
H616 H 0.15807 0.96412 0.73912 0.0
H617 H 0.3121 0.07274 0.41262 0.0
H618 H 0.31676 0.10205 0.52536 0.0
H619 H 0.26952 0.04002 0.29524 0.0
H620 H 0.23012 -0.0062 0.28708 0.0
C621 C -0.00649 0.22809 0.5743 0.0
C622 C 0.96675 0.23991 0.60049 0.0
C623 C 0.00246 0.29744 0.48735 0.0
C624 C 0.03087 0.28704 0.46847 0.0
N625 N 0.05793 0.24714 0.51711 0.0
N626 N 0.94629 0.28671 0.59244 0.0
C627 C 0.02753 0.25349 0.51745 0.0
C628 C 0.97146 0.27499 0.56046 0.0
N629 N 0.98645 0.19247 0.60362 0.0
N630 N 0.0046 0.32797 0.43257 0.0
H631 H 0.92253 0.2703 0.64271 0.0
H632 H 0.95011 0.31361 0.57535 0.0
H633 H 0.02686 0.34465 0.37793 0.0
H634 H 0.98309 0.33515 0.43428 0.0
H635 H 0.00231 0.18041 0.57329 0.0
H636 H 0.96312 0.17377 0.65222 0.0
H637 H 0.05857 0.22571 0.56296 0.0
H638 H 0.08437 0.26572 0.48186 0.0
C639 C 0.19702 0.23974 0.62984 0.0
C640 C 0.21159 0.21856 0.57495 0.0
C641 C 0.18337 0.22314 0.39948 0.0
C642 C 0.17637 0.25044 0.45035 0.0
N643 N 0.16066 0.27262 0.61646 0.0
N644 N 0.21362 0.18437 0.41072 0.0
C645 C 0.17803 0.25479 0.56683 0.0
C646 C 0.20217 0.2074 0.46141 0.0
N647 N 0.20293 0.24667 0.74119 0.0
N648 N 0.17155 0.21235 0.29265 0.0
H649 H 0.22718 0.17174 0.45105 0.0
H650 H 0.21056 0.17799 0.32658 0.0
H651 H 0.15787 0.22411 0.24751 0.0
H652 H 0.17191 0.18976 0.25209 0.0
H653 H 0.19773 0.26601 0.78428 0.0
H654 H 0.21397 0.23334 0.79082 0.0
H655 H 0.15708 0.27323 0.70164 0.0
H656 H 0.14635 0.28359 0.57127 0.0
C657 C 0.80882 0.00994 0.44053 0.0
C658 C 0.76855 0.98938 0.46222 0.0
C659 C 0.78257 0.00167 0.65876 0.0
C660 C 0.8201 0.03084 0.63571 0.0
N661 N 0.87276 0.05677 0.50622 0.0
N662 N 0.71816 0.97668 0.59547 0.0
C663 C 0.83466 0.03303 0.52675 0.0
C664 C 0.75554 0.98803 0.57238 0.0
N665 N 0.82215 0.00749 0.3384 0.0
N666 N 0.77224 0.9894 0.7647 0.0
H667 H 0.69803 0.972 0.53467 0.0
H668 H 0.70905 0.97842 0.67516 0.0
H669 H 0.79238 -0.0008 0.82897 0.0
H670 H 0.74502 0.96716 0.7844 0.0
H671 H 0.85113 0.01871 0.32014 0.0
H672 H 0.80386 -0.00712 0.27228 0.0
H673 H 0.88438 0.06395 0.42694 0.0
H674 H 0.89284 0.06874 0.57014 0.0
C675 C 0.94866 0.78957 0.53831 0.0
C676 C 0.92915 0.75323 0.48517 0.0
C677 C 0.98329 0.77256 0.35971 0.0
C678 C 0.00526 0.80529 0.42549 0.0
N679 N 0.00998 0.84669 0.57593 0.0
N680 N 0.93093 0.70763 0.35747 0.0
C681 C 0.9882 0.81458 0.51405 0.0
C682 C 0.94713 0.7441 0.39839 0.0
N683 N 0.92922 0.80055 0.60863 0.0
N684 N -0.00285 0.76888 0.25986 0.0
H685 H 0.90554 0.68495 0.38841 0.0
H686 H 0.94494 0.69904 0.30138 0.0
H687 H 0.02345 0.79019 0.22882 0.0
H688 H 0.98065 0.74716 0.20344 0.0
H689 H 0.941 0.82799 0.64181 0.0
H690 H 0.90014 0.78313 0.62683 0.0
H691 H 0.00056 0.85286 0.6495 0.0
H692 H 0.03834 0.86647 0.55542 0.0
loop_
_geom_bond_atom_site_label_1
_geom_bond_atom_site_label_2
_geom_bond_distance
_geom_bond_site_symmetry_2
_ccdc_geom_bond_type
O0 Zn1 1.953 . S
O0 C16 1.225 1_556 S
Zn1 O0 1.953 . S
Zn1 O2 1.949 1_556 S
Zn1 O8 1.919 . S
Zn1 O13 1.924 . S
O2 Zn1 1.949 1_554 S
O2 Zn3 1.923 1_454 S
O2 Zn4 1.950 . S
O2 Zn5 1.945 . S
Zn3 O2 1.923 1_656 S
Zn3 O6 1.933 . S
Zn3 O9 1.941 . S
Zn3 O10 1.965 . S
Zn4 O2 1.950 . S
Zn4 O11 1.938 1_455 S
Zn4 O12 1.906 1_455 S
Zn4 O22 1.953 . S
Zn5 O2 1.945 . S
Zn5 O7 1.932 1_455 S
Zn5 O14 1.977 1_455 S
Zn5 O15 1.910 . S
O6 Zn3 1.933 . S
O6 C17 1.226 . S
O7 Zn5 1.932 1_655 S
O7 C17 1.307 1_554 S
O8 Zn1 1.919 . S
O8 C19 1.253 . S
O9 Zn3 1.941 . S
O9 C19 1.283 1_655 S
O10 Zn3 1.965 . S
O10 C18 1.303 . S
O11 Zn4 1.938 1_655 S
O11 C18 1.247 1_554 S
O12 Zn4 1.906 1_655 S
O12 C20 1.304 . S
O13 Zn1 1.924 . S
O13 C21 1.311 1_556 S
O14 Zn5 1.977 1_655 S
O14 C20 1.272 . S
O15 Zn5 1.910 . S
O15 C21 1.231 . S
C16 O0 1.225 1_554 S
C16 O22 1.298 . S
C17 O6 1.226 . S
C17 O7 1.307 1_556 S
C18 O10 1.303 . S
C18 O11 1.247 1_556 S
C19 O8 1.253 . S
C19 O9 1.283 1_455 S
C20 O12 1.304 . S
C20 O14 1.272 . S
C21 O13 1.311 1_554 S
C21 O15 1.231 . S
O22 Zn4 1.953 . S
O22 C16 1.298 . S
O23 Zn24 1.953 . S
O23 C39 1.225 1_556 S
Zn24 O23 1.953 . S
Zn24 O25 1.949 1_556 S
Zn24 O31 1.919 . S
Zn24 O36 1.924 . S
O25 Zn24 1.949 1_554 S
O25 Zn26 1.923 1_554 S
O25 Zn27 1.950 . S
O25 Zn28 1.945 . S
Zn26 O25 1.923 1_556 S
Zn26 O29 1.933 . S
Zn26 O32 1.941 . S
Zn26 O33 1.965 . S
Zn27 O25 1.950 . S
Zn27 O34 1.938 . S
Zn27 O35 1.906 . S
Zn27 O45 1.953 . S
Zn28 O25 1.945 . S
Zn28 O30 1.932 . S
Zn28 O37 1.977 . S
Zn28 O38 1.910 . S
O29 Zn26 1.933 . S
O29 C40 1.226 . S
O30 Zn28 1.932 . S
O30 C40 1.307 1_554 S
O31 Zn24 1.919 . S
O31 C42 1.253 . S
O32 Zn26 1.941 . S
O32 C42 1.283 . S
O33 Zn26 1.965 . S
O33 C41 1.303 . S
O34 Zn27 1.938 . S
O34 C41 1.247 1_554 S
O35 Zn27 1.906 . S
O35 C43 1.304 . S
O36 Zn24 1.924 . S
O36 C44 1.311 1_556 S
O37 Zn28 1.977 . S
O37 C43 1.272 . S
O38 Zn28 1.910 . S
O38 C44 1.231 . S
C39 O23 1.225 1_554 S
C39 O45 1.298 . S
C40 O29 1.226 . S
C40 O30 1.307 1_556 S
C41 O33 1.303 . S
C41 O34 1.247 1_556 S
C42 O31 1.253 . S
C42 O32 1.283 . S
C43 O35 1.304 . S
C43 O37 1.272 . S
C44 O36 1.311 1_554 S
C44 O38 1.231 . S
O45 Zn27 1.953 . S
O45 C39 1.298 . S
O46 Zn47 1.953 . S
O46 C62 1.225 1_556 S
Zn47 O46 1.953 . S
Zn47 O48 1.949 1_566 S
Zn47 O54 1.919 . S
Zn47 O59 1.924 . S
O48 Zn47 1.949 1_544 S
O48 Zn49 1.923 1_554 S
O48 Zn50 1.950 . S
O48 Zn51 1.945 . S
Zn49 O48 1.923 1_556 S
Zn49 O52 1.933 . S
Zn49 O55 1.941 . S
Zn49 O56 1.965 . S
Zn50 O48 1.950 . S
Zn50 O57 1.938 . S
Zn50 O58 1.906 . S
Zn50 O68 1.953 1_545 S
Zn51 O48 1.945 . S
Zn51 O53 1.932 . S
Zn51 O60 1.977 . S
Zn51 O61 1.910 1_545 S
O52 Zn49 1.933 . S
O52 C63 1.226 . S
O53 Zn51 1.932 . S
O53 C63 1.307 1_554 S
O54 Zn47 1.919 . S
O54 C65 1.253 1_565 S
O55 Zn49 1.941 . S
O55 C65 1.283 . S
O56 Zn49 1.965 . S
O56 C64 1.303 . S
O57 Zn50 1.938 . S
O57 C64 1.247 1_554 S
O58 Zn50 1.906 . S
O58 C66 1.304 . S
O59 Zn47 1.924 . S
O59 C67 1.311 1_556 S
O60 Zn51 1.977 . S
O60 C66 1.272 . S
O61 Zn51 1.910 1_565 S
O61 C67 1.231 . S
C62 O46 1.225 1_554 S
C62 O68 1.298 . S
C63 O52 1.226 . S
C63 O53 1.307 1_556 S
C64 O56 1.303 . S
C64 O57 1.247 1_556 S
C65 O54 1.253 1_545 S
C65 O55 1.283 . S
C66 O58 1.304 . S
C66 O60 1.272 . S
C67 O59 1.311 1_554 S
C67 O61 1.231 . S
O68 Zn50 1.953 1_565 S
O68 C62 1.298 . S
O69 Zn70 1.953 . S
O69 C85 1.225 . S
Zn70 O69 1.953 . S
Zn70 O71 1.949 . S
Zn70 O77 1.919 . S
Zn70 O82 1.924 . S
O71 Zn70 1.949 . S
O71 Zn72 1.923 . S
O71 Zn73 1.950 . S
O71 Zn74 1.945 . S
Zn72 O71 1.923 . S
Zn72 O75 1.933 . S
Zn72 O78 1.941 . S
Zn72 O79 1.965 . S
Zn73 O71 1.950 . S
Zn73 O80 1.938 . S
Zn73 O81 1.906 . S
Zn73 O91 1.953 . S
Zn74 O71 1.945 . S
Zn74 O76 1.932 . S
Zn74 O83 1.977 . S
Zn74 O84 1.910 . S
O75 Zn72 1.933 . S
O75 C86 1.226 . S
O76 Zn74 1.932 . S
O76 C86 1.307 . S
O77 Zn70 1.919 . S
O77 C88 1.253 . S
O78 Zn72 1.941 . S
O78 C88 1.283 . S
O79 Zn72 1.965 . S
O79 C87 1.303 . S
O80 Zn73 1.938 . S
O80 C87 1.247 . S
O81 Zn73 1.906 . S
O81 C89 1.304 . S
O82 Zn70 1.924 . S
O82 C90 1.311 . S
O83 Zn74 1.977 . S
O83 C89 1.272 . S
O84 Zn74 1.910 . S
O84 C90 1.231 . S
C85 O69 1.225 . S
C85 O91 1.298 . S
C86 O75 1.226 . S
C86 O76 1.307 . S
C87 O79 1.303 . S
C87 O80 1.247 . S
C88 O77 1.253 . S
C88 O78 1.283 . S
C89 O81 1.304 . S
C89 O83 1.272 . S
C90 O82 1.311 . S
C90 O84 1.231 . S
O91 Zn73 1.953 . S
O91 C85 1.298 . S
O92 Zn93 1.953 . S
O92 C108 1.225 . S
Zn93 O92 1.953 . S
Zn93 O94 1.949 . S
Zn93 O100 1.919 . S
Zn93 O105 1.924 . S
O94 Zn93 1.949 . S
O94 Zn95 1.923 . S
O94 Zn96 1.950 . S
O94 Zn97 1.945 . S
Zn95 O94 1.923 . S
Zn95 O98 1.933 . S
Zn95 O101 1.941 . S
Zn95 O102 1.965 . S
Zn96 O94 1.950 . S
Zn96 O103 1.938 . S
Zn96 O104 1.906 . S
Zn96 O114 1.953 . S
Zn97 O94 1.945 . S
Zn97 O99 1.932 . S
Zn97 O106 1.977 . S
Zn97 O107 1.910 . S
O98 Zn95 1.933 . S
O98 C109 1.226 . S
O99 Zn97 1.932 . S
O99 C109 1.307 . S
O100 Zn93 1.919 . S
O100 C111 1.253 . S
O101 Zn95 1.941 . S
O101 C111 1.283 . S
O102 Zn95 1.965 . S
O102 C110 1.303 . S
O103 Zn96 1.938 . S
O103 C110 1.247 . S
O104 Zn96 1.906 . S
O104 C112 1.304 . S
O105 Zn93 1.924 . S
O105 C113 1.311 . S
O106 Zn97 1.977 . S
O106 C112 1.272 . S
O107 Zn97 1.910 . S
O107 C113 1.231 . S
C108 O92 1.225 . S
C108 O114 1.298 . S
C109 O98 1.226 . S
C109 O99 1.307 . S
C110 O102 1.303 . S
C110 O103 1.247 . S
C111 O100 1.253 . S
C111 O101 1.283 . S
C112 O104 1.304 . S
C112 O106 1.272 . S
C113 O105 1.311 . S
C113 O107 1.231 . S
O114 Zn96 1.953 . S
O114 C108 1.298 . S
O115 Zn116 1.953 . S
O115 C131 1.225 . S
Zn116 O115 1.953 . S
Zn116 O117 1.949 . S
Zn116 O123 1.919 . S
Zn116 O128 1.924 . S
O117 Zn116 1.949 . S
O117 Zn118 1.923 . S
O117 Zn119 1.950 . S
O117 Zn120 1.945 . S
Zn118 O117 1.923 . S
Zn118 O121 1.933 . S
Zn118 O124 1.941 . S
Zn118 O125 1.965 . S
Zn119 O117 1.950 . S
Zn119 O126 1.938 . S
Zn119 O127 1.906 . S
Zn119 O137 1.953 . S
Zn120 O117 1.945 . S
Zn120 O122 1.932 . S
Zn120 O129 1.977 . S
Zn120 O130 1.910 . S
O121 Zn118 1.933 . S
O121 C132 1.226 . S
O122 Zn120 1.932 . S
O122 C132 1.307 . S
O123 Zn116 1.919 . S
O123 C134 1.253 . S
O124 Zn118 1.941 . S
O124 C134 1.283 . S
O125 Zn118 1.965 . S
O125 C133 1.303 . S
O126 Zn119 1.938 . S
O126 C133 1.247 . S
O127 Zn119 1.906 . S
O127 C135 1.304 . S
O128 Zn116 1.924 . S
O128 C136 1.311 . S
O129 Zn120 1.977 . S
O129 C135 1.272 . S
O130 Zn120 1.910 . S
O130 C136 1.231 . S
C131 O115 1.225 . S
C131 O137 1.298 . S
C132 O121 1.226 . S
C132 O122 1.307 . S
C133 O125 1.303 . S
C133 O126 1.247 . S
C134 O123 1.253 . S
C134 O124 1.283 . S
C135 O127 1.304 . S
C135 O129 1.272 . S
C136 O128 1.311 . S
C136 O130 1.231 . S
O137 Zn119 1.953 . S
O137 C131 1.298 . S
O138 Zn139 1.953 . S
O138 C154 1.225 . S
Zn139 O138 1.953 . S
Zn139 O140 1.949 . S
Zn139 O146 1.919 . S
Zn139 O151 1.924 . S
O140 Zn139 1.949 . S
O140 Zn141 1.923 . S
O140 Zn142 1.950 . S
O140 Zn143 1.945 . S
Zn141 O140 1.923 . S
Zn141 O144 1.933 . S
Zn141 O147 1.941 . S
Zn141 O148 1.965 . S
Zn142 O140 1.950 . S
Zn142 O149 1.938 . S
Zn142 O150 1.906 . S
Zn142 O160 1.953 . S
Zn143 O140 1.945 . S
Zn143 O145 1.932 . S
Zn143 O152 1.977 . S
Zn143 O153 1.910 . S
O144 Zn141 1.933 . S
O144 C155 1.226 . S
O145 Zn143 1.932 . S
O145 C155 1.307 . S
O146 Zn139 1.919 . S
O146 C157 1.253 . S
O147 Zn141 1.941 . S
O147 C157 1.283 . S
O148 Zn141 1.965 . S
O148 C156 1.303 1_556 S
O149 Zn142 1.938 . S
O149 C156 1.247 1_556 S
O150 Zn142 1.906 . S
O150 C158 1.304 . S
O151 Zn139 1.924 . S
O151 C159 1.311 . S
O152 Zn143 1.977 . S
O152 C158 1.272 . S
O153 Zn143 1.910 . S
O153 C159 1.231 . S
C154 O138 1.225 . S
C154 O160 1.298 . S
C155 O144 1.226 . S
C155 O145 1.307 . S
C156 O148 1.303 1_554 S
C156 O149 1.247 1_554 S
C157 O146 1.253 . S
C157 O147 1.283 . S
C158 O150 1.304 . S
C158 O152 1.272 . S
C159 O151 1.311 . S
C159 O153 1.231 . S
O160 Zn142 1.953 . S
O160 C154 1.298 . S
O161 Zn162 1.953 . S
O161 C177 1.225 . S
Zn162 O161 1.953 . S
Zn162 O163 1.949 . S
Zn162 O169 1.919 . S
Zn162 O174 1.924 . S
O163 Zn162 1.949 . S
O163 Zn164 1.923 . S
O163 Zn165 1.950 . S
O163 Zn166 1.945 . S
Zn164 O163 1.923 . S
Zn164 O167 1.933 . S
Zn164 O170 1.941 . S
Zn164 O171 1.965 . S
Zn165 O163 1.950 . S
Zn165 O172 1.938 . S
Zn165 O173 1.906 . S
Zn165 O183 1.953 . S
Zn166 O163 1.945 . S
Zn166 O168 1.932 . S
Zn166 O175 1.977 . S
Zn166 O176 1.910 . S
O167 Zn164 1.933 . S
O167 C178 1.226 . S
O168 Zn166 1.932 . S
O168 C178 1.307 . S
O169 Zn162 1.919 . S
O169 C180 1.253 . S
O170 Zn164 1.941 . S
O170 C180 1.283 . S
O171 Zn164 1.965 . S
O171 C179 1.303 1_556 S
O172 Zn165 1.938 . S
O172 C179 1.247 1_556 S
O173 Zn165 1.906 . S
O173 C181 1.304 . S
O174 Zn162 1.924 . S
O174 C182 1.311 . S
O175 Zn166 1.977 . S
O175 C181 1.272 . S
O176 Zn166 1.910 . S
O176 C182 1.231 . S
C177 O161 1.225 . S
C177 O183 1.298 . S
C178 O167 1.226 . S
C178 O168 1.307 . S
C179 O171 1.303 1_554 S
C179 O172 1.247 1_554 S
C180 O169 1.253 . S
C180 O170 1.283 . S
C181 O173 1.304 . S
C181 O175 1.272 . S
C182 O174 1.311 . S
C182 O176 1.231 . S
O183 Zn165 1.953 . S
O183 C177 1.298 . S
O184 Zn185 1.953 . S
O184 C200 1.225 . S
Zn185 O184 1.953 . S
Zn185 O186 1.949 . S
Zn185 O192 1.919 . S
Zn185 O197 1.924 . S
O186 Zn185 1.949 . S
O186 Zn187 1.923 . S
O186 Zn188 1.950 . S
O186 Zn189 1.945 . S
Zn187 O186 1.923 . S
Zn187 O190 1.933 . S
Zn187 O193 1.941 . S
Zn187 O194 1.965 . S
Zn188 O186 1.950 . S
Zn188 O195 1.938 . S
Zn188 O196 1.906 . S
Zn188 O206 1.953 . S
Zn189 O186 1.945 . S
Zn189 O191 1.932 . S
Zn189 O198 1.977 . S
Zn189 O199 1.910 . S
O190 Zn187 1.933 . S
O190 C201 1.226 . S
O191 Zn189 1.932 . S
O191 C201 1.307 . S
O192 Zn185 1.919 . S
O192 C203 1.253 . S
O193 Zn187 1.941 . S
O193 C203 1.283 . S
O194 Zn187 1.965 . S
O194 C202 1.303 1_556 S
O195 Zn188 1.938 . S
O195 C202 1.247 1_556 S
O196 Zn188 1.906 . S
O196 C204 1.304 . S
O197 Zn185 1.924 . S
O197 C205 1.311 . S
O198 Zn189 1.977 . S
O198 C204 1.272 . S
O199 Zn189 1.910 . S
O199 C205 1.231 . S
C200 O184 1.225 . S
C200 O206 1.298 . S
C201 O190 1.226 . S
C201 O191 1.307 . S
C202 O194 1.303 1_554 S
C202 O195 1.247 1_554 S
C203 O192 1.253 . S
C203 O193 1.283 . S
C204 O196 1.304 . S
C204 O198 1.272 . S
C205 O197 1.311 . S
C205 O199 1.231 . S
O206 Zn188 1.953 . S
O206 C200 1.298 . S
C207 C208 1.341 1_655 S
C207 C213 1.394 . S
C207 N215 1.357 1_655 S
C208 C207 1.341 1_455 S
C208 C214 1.358 . S
C209 C210 1.363 . S
C209 C214 1.367 1_655 S
C209 N216 1.356 . S
C210 C209 1.363 . S
C210 C213 1.363 . S
N211 C213 1.356 . S
N211 H223 0.984 . S
N211 H224 0.985 . S
N212 C214 1.374 . S
N212 H217 0.984 . S
N212 H218 0.985 . S
C213 C207 1.394 . S
C213 C210 1.363 . S
C213 N211 1.356 . S
C214 C208 1.358 . S
C214 C209 1.367 1_455 S
C214 N212 1.374 . S
N215 C207 1.357 1_455 S
N215 H221 0.984 . S
N215 H222 0.984 . S
N216 C209 1.356 . S
N216 H219 0.984 . S
N216 H220 0.985 . S
H217 N212 0.984 . S
H218 N212 0.985 . S
H219 N216 0.984 . S
H220 N216 0.985 . S
H221 N215 0.984 . S
H222 N215 0.984 . S
H223 N211 0.984 . S
H224 N211 0.985 . S
C225 C226 1.363 . S
C225 C231 1.379 . S
C225 N233 1.356 . S
C226 C225 1.363 . S
C226 C232 1.363 . S
C227 C228 1.363 . S
C227 C232 1.379 . S
C227 N234 1.356 . S
C228 C227 1.363 . S
C228 C231 1.363 . S
N229 C231 1.356 . S
N229 H241 0.984 . S
N229 H242 0.985 . S
N230 C232 1.356 . S
N230 H235 0.984 . S
N230 H236 0.985 . S
C231 C225 1.379 . S
C231 C228 1.363 . S
C231 N229 1.356 . S
C232 C226 1.363 . S
C232 C227 1.379 . S
C232 N230 1.356 . S
N233 C225 1.356 . S
N233 H239 0.984 . S
N233 H240 0.984 . S
N234 C227 1.356 . S
N234 H237 0.984 . S
N234 H238 0.985 . S
H235 N230 0.984 . S
H236 N230 0.985 . S
H237 N234 0.984 . S
H238 N234 0.985 . S
H239 N233 0.984 . S
H240 N233 0.984 . S
H241 N229 0.984 . S
H242 N229 0.985 . S
C243 C244 1.363 . S
C243 C249 1.379 . S
C243 N251 1.356 . S
C244 C243 1.363 . S
C244 C250 1.363 . S
C245 C246 1.363 . S
C245 C250 1.379 . S
C245 N252 1.356 . S
C246 C245 1.363 . S
C246 C249 1.363 . S
N247 C249 1.356 . S
N247 H259 0.984 . S
N247 H260 0.985 . S
N248 C250 1.356 1_565 S
N248 H253 0.984 . S
N248 H254 0.985 . S
C249 C243 1.379 . S
C249 C246 1.363 . S
C249 N247 1.356 . S
C250 C244 1.363 . S
C250 C245 1.379 . S
C250 N248 1.356 1_545 S
N251 C243 1.356 . S
N251 H257 0.984 . S
N251 H258 0.984 . S
N252 C245 1.356 . S
N252 H255 0.984 . S
N252 H256 0.985 . S
H253 N248 0.984 . S
H254 N248 0.985 . S
H255 N252 0.984 . S
H256 N252 0.985 . S
H257 N251 0.984 . S
H258 N251 0.984 . S
H259 N247 0.984 . S
H260 N247 0.985 . S
C261 C262 1.363 . S
C261 C267 1.379 . S
C261 N269 1.356 . S
C262 C261 1.363 . S
C262 C268 1.363 . S
C263 C264 1.363 . S
C263 C268 1.379 . S
C263 N270 1.356 1_556 S
C264 C263 1.363 . S
C264 C267 1.363 . S
N265 C267 1.356 . S
N265 H277 0.984 . S
N265 H278 0.985 1_556 S
N266 C268 1.356 . S
N266 H271 0.984 . S
N266 H272 0.985 . S
C267 C261 1.379 . S
C267 C264 1.363 . S
C267 N265 1.356 . S
C268 C262 1.363 . S
C268 C263 1.379 . S
C268 N266 1.356 . S
N269 C261 1.356 . S
N269 H275 0.984 . S
N269 H276 0.984 . S
N270 C263 1.356 1_554 S
N270 H273 0.984 . S
N270 H274 0.985 . S
H271 N266 0.984 . S
H272 N266 0.985 . S
H273 N270 0.984 . S
H274 N270 0.985 . S
H275 N269 0.984 . S
H276 N269 0.984 . S
H277 N265 0.984 . S
H278 N265 0.985 1_554 S
C279 C280 1.363 . S
C279 C285 1.379 . S
C279 N287 1.356 . S
C280 C279 1.363 . S
C280 C286 1.363 . S
C281 C282 1.363 . S
C281 C286 1.379 . S
C281 N288 1.356 . S
C282 C281 1.363 . S
C282 C285 1.363 . S
N283 C285 1.356 1_554 S
N283 H295 0.984 . S
N283 H296 0.985 . S
N284 C286 1.356 . S
N284 H289 0.984 . S
N284 H290 0.985 . S
C285 C279 1.379 . S
C285 C282 1.363 . S
C285 N283 1.356 1_556 S
C286 C280 1.363 . S
C286 C281 1.379 . S
C286 N284 1.356 . S
N287 C279 1.356 . S
N287 H293 0.984 . S
N287 H294 0.984 . S
N288 C281 1.356 . S
N288 H291 0.984 1_556 S
N288 H292 0.985 . S
H289 N284 0.984 . S
H290 N284 0.985 . S
H291 N288 0.984 1_554 S
H292 N288 0.985 . S
H293 N287 0.984 . S
H294 N287 0.984 . S
H295 N283 0.984 . S
H296 N283 0.985 . S
C297 C298 1.363 . S
C297 C303 1.379 . S
C297 N305 1.356 . S
C298 C297 1.363 . S
C298 C304 1.363 . S
C299 C300 1.363 . S
C299 C304 1.379 . S
C299 N306 1.356 1_556 S
C300 C299 1.363 . S
C300 C303 1.363 . S
N301 C303 1.356 . S
N301 H313 0.984 . S
N301 H314 0.985 1_556 S
N302 C304 1.356 . S
N302 H307 0.984 . S
N302 H308 0.985 . S
C303 C297 1.379 . S
C303 C300 1.363 . S
C303 N301 1.356 . S
C304 C298 1.363 . S
C304 C299 1.379 . S
C304 N302 1.356 . S
N305 C297 1.356 . S
N305 H311 0.984 . S
N305 H312 0.984 . S
N306 C299 1.356 1_554 S
N306 H309 0.984 . S
N306 H310 0.985 . S
H307 N302 0.984 . S
H308 N302 0.985 . S
H309 N306 0.984 . S
H310 N306 0.985 . S
H311 N305 0.984 . S
H312 N305 0.984 . S
H313 N301 0.984 . S
H314 N301 0.985 1_554 S
C315 C316 1.363 . S
C315 C321 1.379 . S
C315 N323 1.356 . S
C316 C315 1.363 . S
C316 C322 1.363 . S
C317 C318 1.363 . S
C317 C322 1.379 . S
C317 N324 1.356 . S
C318 C317 1.363 . S
C318 C321 1.363 . S
N319 C321 1.356 . S
N319 H331 0.984 . S
N319 H332 0.985 . S
N320 C322 1.356 . S
N320 H325 0.984 . S
N320 H326 0.985 . S
C321 C315 1.379 . S
C321 C318 1.363 . S
C321 N319 1.356 . S
C322 C316 1.363 . S
C322 C317 1.379 . S
C322 N320 1.356 . S
N323 C315 1.356 . S
N323 H329 0.984 . S
N323 H330 0.984 . S
N324 C317 1.356 . S
N324 H327 0.984 1_554 S
N324 H328 0.985 . S
H325 N320 0.984 . S
H326 N320 0.985 . S
H327 N324 0.984 1_556 S
H328 N324 0.985 . S
H329 N323 0.984 . S
H330 N323 0.984 . S
H331 N319 0.984 . S
H332 N319 0.985 . S
C333 C334 1.363 . S
C333 C339 1.379 . S
C333 N341 1.356 . S
C334 C333 1.363 . S
C334 C340 1.363 . S
C335 C336 1.363 . S
C335 C340 1.379 . S
C335 N342 1.356 . S
C336 C335 1.363 . S
C336 C339 1.363 . S
N337 C339 1.356 . S
N337 H349 0.984 . S
N337 H350 0.985 1_554 S
N338 C340 1.356 . S
N338 H343 0.984 . S
N338 H344 0.985 . S
C339 C333 1.379 . S
C339 C336 1.363 . S
C339 N337 1.356 . S
C340 C334 1.363 . S
C340 C335 1.379 . S
C340 N338 1.356 . S
N341 C333 1.356 . S
N341 H347 0.984 . S
N341 H348 0.984 . S
N342 C335 1.356 . S
N342 H345 0.984 . S
N342 H346 0.985 . S
H343 N338 0.984 . S
H344 N338 0.985 . S
H345 N342 0.984 . S
H346 N342 0.985 . S
H347 N341 0.984 . S
H348 N341 0.984 . S
H349 N337 0.984 . S
H350 N337 0.985 1_556 S
C351 C352 1.363 . S
C351 C357 1.379 . S
C351 N359 1.356 . S
C352 C351 1.363 . S
C352 C358 1.363 . S
C353 C354 1.363 . S
C353 C358 1.379 . S
C353 N360 1.356 . S
C354 C353 1.363 . S
C354 C357 1.363 . S
N355 C357 1.356 . S
N355 H367 0.984 1_554 S
N355 H368 0.985 1_554 S
N356 C358 1.356 . S
N356 H361 0.984 . S
N356 H362 0.985 . S
C357 C351 1.379 . S
C357 C354 1.363 . S
C357 N355 1.356 . S
C358 C352 1.363 . S
C358 C353 1.379 . S
C358 N356 1.356 . S
N359 C351 1.356 . S
N359 H365 0.984 . S
N359 H366 0.984 . S
N360 C353 1.356 . S
N360 H363 0.984 . S
N360 H364 0.985 . S
H361 N356 0.984 . S
H362 N356 0.985 . S
H363 N360 0.984 . S
H364 N360 0.985 . S
H365 N359 0.984 . S
H366 N359 0.984 . S
H367 N355 0.984 1_556 S
H368 N355 0.985 1_556 S
C369 C370 1.363 . S
C369 C375 1.379 . S
C369 N377 1.356 . S
C370 C369 1.363 . S
C370 C376 1.363 . S
C371 C372 1.363 . S
C371 C376 1.379 . S
C371 N378 1.356 1_554 S
C372 C371 1.363 . S
C372 C375 1.363 . S
N373 C375 1.356 . S
N373 H385 0.984 . S
N373 H386 0.985 . S
N374 C376 1.356 . S
N374 H379 0.984 . S
N374 H380 0.985 . S
C375 C369 1.379 . S
C375 C372 1.363 . S
C375 N373 1.356 . S
C376 C370 1.363 . S
C376 C371 1.379 . S
C376 N374 1.356 . S
N377 C369 1.356 . S
N377 H383 0.984 . S
N377 H384 0.984 . S
N378 C371 1.356 1_556 S
N378 H381 0.984 . S
N378 H382 0.985 . S
H379 N374 0.984 . S
H380 N374 0.985 . S
H381 N378 0.984 . S
H382 N378 0.985 . S
H383 N377 0.984 . S
H384 N377 0.984 . S
H385 N373 0.984 . S
H386 N373 0.985 . S
C387 C388 1.363 . S
C387 C393 1.379 . S
C387 N395 1.356 . S
C388 C387 1.363 . S
C388 C394 1.363 . S
C389 C390 1.363 . S
C389 C394 1.379 . S
C389 N396 1.356 . S
C390 C389 1.363 . S
C390 C393 1.363 . S
N391 C393 1.356 . S
N391 H403 0.984 . S
N391 H404 0.985 . S
N392 C394 1.356 1_556 S
N392 H397 0.984 . S
N392 H398 0.985 . S
C393 C387 1.379 . S
C393 C390 1.363 . S
C393 N391 1.356 . S
C394 C388 1.363 . S
C394 C389 1.379 . S
C394 N392 1.356 1_554 S
N395 C387 1.356 . S
N395 H401 0.984 . S
N395 H402 0.984 . S
N396 C389 1.356 . S
N396 H399 0.984 . S
N396 H400 0.985 . S
H397 N392 0.984 . S
H398 N392 0.985 . S
H399 N396 0.984 . S
H400 N396 0.985 . S
H401 N395 0.984 . S
H402 N395 0.984 . S
H403 N391 0.984 . S
H404 N391 0.985 . S
C405 C406 1.363 . S
C405 C411 1.379 . S
C405 N413 1.356 . S
C406 C405 1.363 . S
C406 C412 1.363 . S
C407 C408 1.363 . S
C407 C412 1.379 . S
C407 N414 1.356 . S
C408 C407 1.363 . S
C408 C411 1.363 . S
N409 C411 1.356 . S
N409 H421 0.984 . S
N409 H422 0.985 . S
N410 C412 1.356 . S
N410 H415 0.984 . S
N410 H416 0.985 1_565 S
C411 C405 1.379 . S
C411 C408 1.363 . S
C411 N409 1.356 . S
C412 C406 1.363 . S
C412 C407 1.379 . S
C412 N410 1.356 . S
N413 C405 1.356 . S
N413 H419 0.984 . S
N413 H420 0.984 . S
N414 C407 1.356 . S
N414 H417 0.984 . S
N414 H418 0.985 . S
H415 N410 0.984 . S
H416 N410 0.985 1_545 S
H417 N414 0.984 . S
H418 N414 0.985 . S
H419 N413 0.984 . S
H420 N413 0.984 . S
H421 N409 0.984 . S
H422 N409 0.985 . S
C423 C424 1.363 . S
C423 C429 1.379 . S
C423 N431 1.356 1_556 S
C424 C423 1.363 . S
C424 C430 1.363 . S
C425 C426 1.363 . S
C425 C430 1.379 . S
C425 N432 1.356 . S
C426 C425 1.363 . S
C426 C429 1.363 . S
N427 C429 1.356 . S
N427 H439 0.984 1_556 S
N427 H440 0.985 . S
N428 C430 1.356 . S
N428 H433 0.984 . S
N428 H434 0.985 . S
C429 C423 1.379 . S
C429 C426 1.363 . S
C429 N427 1.356 . S
C430 C424 1.363 . S
C430 C425 1.379 . S
C430 N428 1.356 . S
N431 C423 1.356 1_554 S
N431 H437 0.984 . S
N431 H438 0.984 . S
N432 C425 1.356 . S
N432 H435 0.984 . S
N432 H436 0.985 . S
H433 N428 0.984 . S
H434 N428 0.985 . S
H435 N432 0.984 . S
H436 N432 0.985 . S
H437 N431 0.984 . S
H438 N431 0.984 . S
H439 N427 0.984 1_554 S
H440 N427 0.985 . S
C441 C442 1.363 . S
C441 C447 1.379 . S
C441 N449 1.356 . S
C442 C441 1.363 . S
C442 C448 1.363 . S
C443 C444 1.363 . S
C443 C448 1.379 . S
C443 N450 1.356 . S
C444 C443 1.363 . S
C444 C447 1.363 . S
N445 C447 1.356 1_554 S
N445 H457 0.984 . S
N445 H458 0.985 . S
N446 C448 1.356 . S
N446 H451 0.984 . S
N446 H452 0.985 . S
C447 C441 1.379 . S
C447 C444 1.363 . S
C447 N445 1.356 1_556 S
C448 C442 1.363 . S
C448 C443 1.379 . S
C448 N446 1.356 . S
N449 C441 1.356 . S
N449 H455 0.984 . S
N449 H456 0.984 . S
N450 C443 1.356 . S
N450 H453 0.984 . S
N450 H454 0.985 . S
H451 N446 0.984 . S
H452 N446 0.985 . S
H453 N450 0.984 . S
H454 N450 0.985 . S
H455 N449 0.984 . S
H456 N449 0.984 . S
H457 N445 0.984 . S
H458 N445 0.985 . S
C459 C460 1.363 . S
C459 C465 1.379 . S
C459 N467 1.356 . S
C460 C459 1.363 . S
C460 C466 1.363 . S
C461 C462 1.363 . S
C461 C466 1.379 . S
C461 N468 1.356 1_556 S
C462 C461 1.363 . S
C462 C465 1.363 . S
N463 C465 1.356 . S
N463 H475 0.984 . S
N463 H476 0.985 . S
N464 C466 1.356 . S
N464 H469 0.984 . S
N464 H470 0.985 1_556 S
C465 C459 1.379 . S
C465 C462 1.363 . S
C465 N463 1.356 . S
C466 C460 1.363 . S
C466 C461 1.379 . S
C466 N464 1.356 . S
N467 C459 1.356 . S
N467 H473 0.984 . S
N467 H474 0.984 . S
N468 C461 1.356 1_554 S
N468 H471 0.984 . S
N468 H472 0.985 . S
H469 N464 0.984 . S
H470 N464 0.985 1_554 S
H471 N468 0.984 . S
H472 N468 0.985 . S
H473 N467 0.984 . S
H474 N467 0.984 . S
H475 N463 0.984 . S
H476 N463 0.985 . S
C477 C478 1.363 . S
C477 C483 1.379 . S
C477 N485 1.356 . S
C478 C477 1.363 . S
C478 C484 1.363 . S
C479 C480 1.363 . S
C479 C484 1.379 . S
C479 N486 1.356 . S
C480 C479 1.363 . S
C480 C483 1.363 . S
N481 C483 1.356 . S
N481 H493 0.984 . S
N481 H494 0.985 . S
N482 C484 1.356 . S
N482 H487 0.984 . S
N482 H488 0.985 . S
C483 C477 1.379 . S
C483 C480 1.363 . S
C483 N481 1.356 . S
C484 C478 1.363 . S
C484 C479 1.379 . S
C484 N482 1.356 . S
N485 C477 1.356 . S
N485 H491 0.984 . S
N485 H492 0.984 . S
N486 C479 1.356 . S
N486 H489 0.984 . S
N486 H490 0.985 . S
H487 N482 0.984 . S
H488 N482 0.985 . S
H489 N486 0.984 . S
H490 N486 0.985 . S
H491 N485 0.984 . S
H492 N485 0.984 . S
H493 N481 0.984 . S
H494 N481 0.985 . S
C495 C496 1.363 . S
C495 C501 1.379 . S
C495 N503 1.356 . S
C496 C495 1.363 . S
C496 C502 1.363 . S
C497 C498 1.363 . S
C497 C502 1.379 . S
C497 N504 1.356 . S
C498 C497 1.363 . S
C498 C501 1.363 . S
N499 C501 1.356 . S
N499 H511 0.984 . S
N499 H512 0.985 . S
N500 C502 1.356 1_554 S
N500 H505 0.984 . S
N500 H506 0.985 . S
C501 C495 1.379 . S
C501 C498 1.363 . S
C501 N499 1.356 . S
C502 C496 1.363 . S
C502 C497 1.379 . S
C502 N500 1.356 1_556 S
N503 C495 1.356 . S
N503 H509 0.984 . S
N503 H510 0.984 . S
N504 C497 1.356 . S
N504 H507 0.984 . S
N504 H508 0.985 1_556 S
H505 N500 0.984 . S
H506 N500 0.985 . S
H507 N504 0.984 . S
H508 N504 0.985 1_554 S
H509 N503 0.984 . S
H510 N503 0.984 . S
H511 N499 0.984 . S
H512 N499 0.985 . S
C513 C514 1.363 . S
C513 C519 1.379 . S
C513 N521 1.356 . S
C514 C513 1.363 . S
C514 C520 1.363 . S
C515 C516 1.363 . S
C515 C520 1.379 . S
C515 N522 1.356 1_556 S
C516 C515 1.363 . S
C516 C519 1.363 . S
N517 C519 1.356 . S
N517 H529 0.984 . S
N517 H530 0.985 . S
N518 C520 1.356 . S
N518 H523 0.984 . S
N518 H524 0.985 1_556 S
C519 C513 1.379 . S
C519 C516 1.363 . S
C519 N517 1.356 . S
C520 C514 1.363 . S
C520 C515 1.379 . S
C520 N518 1.356 . S
N521 C513 1.356 . S
N521 H527 0.984 . S
N521 H528 0.984 . S
N522 C515 1.356 1_554 S
N522 H525 0.984 . S
N522 H526 0.985 . S
H523 N518 0.984 . S
H524 N518 0.985 1_554 S
H525 N522 0.984 . S
H526 N522 0.985 . S
H527 N521 0.984 . S
H528 N521 0.984 . S
H529 N517 0.984 . S
H530 N517 0.985 . S
C531 C532 1.363 . S
C531 C537 1.379 . S
C531 N539 1.356 . S
C532 C531 1.363 . S
C532 C538 1.363 . S
C533 C534 1.363 . S
C533 C538 1.379 . S
C533 N540 1.356 . S
C534 C533 1.363 . S
C534 C537 1.363 . S
N535 C537 1.356 . S
N535 H547 0.984 . S
N535 H548 0.985 . S
N536 C538 1.356 . S
N536 H541 0.984 . S
N536 H542 0.985 . S
C537 C531 1.379 . S
C537 C534 1.363 . S
C537 N535 1.356 . S
C538 C532 1.363 . S
C538 C533 1.379 . S
C538 N536 1.356 . S
N539 C531 1.356 . S
N539 H545 0.984 . S
N539 H546 0.984 . S
N540 C533 1.356 . S
N540 H543 0.984 . S
N540 H544 0.985 . S
H541 N536 0.984 . S
H542 N536 0.985 . S
H543 N540 0.984 . S
H544 N540 0.985 . S
H545 N539 0.984 . S
H546 N539 0.984 . S
H547 N535 0.984 . S
H548 N535 0.985 . S
C549 C550 1.363 . S
C549 C555 1.379 . S
C549 N557 1.356 . S
C550 C549 1.363 . S
C550 C556 1.363 . S
C551 C552 1.363 . S
C551 C556 1.379 . S
C551 N558 1.356 . S
C552 C551 1.363 . S
C552 C555 1.363 . S
N553 C555 1.356 . S
N553 H565 0.984 . S
N553 H566 0.985 . S
N554 C556 1.356 . S
N554 H559 0.984 . S
N554 H560 0.985 . S
C555 C549 1.379 . S
C555 C552 1.363 . S
C555 N553 1.356 . S
C556 C550 1.363 . S
C556 C551 1.379 . S
C556 N554 1.356 . S
N557 C549 1.356 . S
N557 H563 0.984 . S
N557 H564 0.984 . S
N558 C551 1.356 . S
N558 H561 0.984 1_554 S
N558 H562 0.985 1_554 S
H559 N554 0.984 . S
H560 N554 0.985 . S
H561 N558 0.984 1_556 S
H562 N558 0.985 1_556 S
H563 N557 0.984 . S
H564 N557 0.984 . S
H565 N553 0.984 . S
H566 N553 0.985 . S
C567 C568 1.363 . S
C567 C573 1.379 . S
C567 N575 1.356 1_554 S
C568 C567 1.363 . S
C568 C574 1.363 . S
C569 C570 1.363 . S
C569 C574 1.379 . S
C569 N576 1.356 . S
C570 C569 1.363 . S
C570 C573 1.363 . S
N571 C573 1.356 . S
N571 H583 0.984 . S
N571 H584 0.985 . S
N572 C574 1.356 . S
N572 H577 0.984 . S
N572 H578 0.985 . S
C573 C567 1.379 . S
C573 C570 1.363 . S
C573 N571 1.356 . S
C574 C568 1.363 . S
C574 C569 1.379 . S
C574 N572 1.356 . S
N575 C567 1.356 1_556 S
N575 H581 0.984 . S
N575 H582 0.984 . S
N576 C569 1.356 . S
N576 H579 0.984 . S
N576 H580 0.985 . S
H577 N572 0.984 . S
H578 N572 0.985 . S
H579 N576 0.984 . S
H580 N576 0.985 . S
H581 N575 0.984 . S
H582 N575 0.984 . S
H583 N571 0.984 . S
H584 N571 0.985 . S
C585 C586 1.363 . S
C585 C591 1.379 . S
C585 N593 1.356 . S
C586 C585 1.363 . S
C586 C592 1.363 . S
C587 C588 1.363 . S
C587 C592 1.379 . S
C587 N594 1.356 . S
C588 C587 1.363 . S
C588 C591 1.363 . S
N589 C591 1.356 . S
N589 H601 0.984 . S
N589 H602 0.985 . S
N590 C592 1.356 . S
N590 H595 0.984 . S
N590 H596 0.985 . S
C591 C585 1.379 . S
C591 C588 1.363 . S
C591 N589 1.356 . S
C592 C586 1.363 . S
C592 C587 1.379 . S
C592 N590 1.356 . S
N593 C585 1.356 . S
N593 H599 0.984 . S
N593 H600 0.984 . S
N594 C587 1.356 . S
N594 H597 0.984 . S
N594 H598 0.985 . S
H595 N590 0.984 . S
H596 N590 0.985 . S
H597 N594 0.984 . S
H598 N594 0.985 . S
H599 N593 0.984 . S
H600 N593 0.984 . S
H601 N589 0.984 . S
H602 N589 0.985 . S
C603 C604 1.363 . S
C603 C609 1.379 . S
C603 N611 1.356 . S
C604 C603 1.363 . S
C604 C610 1.363 . S
C605 C606 1.363 . S
C605 C610 1.379 1_565 S
C605 N612 1.356 . S
C606 C605 1.363 . S
C606 C609 1.363 1_565 S
N607 C609 1.356 . S
N607 H619 0.984 . S
N607 H620 0.985 1_545 S
N608 C610 1.356 . S
N608 H613 0.984 . S
N608 H614 0.985 . S
C609 C603 1.379 . S
C609 C606 1.363 1_545 S
C609 N607 1.356 . S
C610 C604 1.363 . S
C610 C605 1.379 1_545 S
C610 N608 1.356 . S
N611 C603 1.356 . S
N611 H617 0.984 . S
N611 H618 0.984 . S
N612 C605 1.356 . S
N612 H615 0.984 . S
N612 H616 0.985 . S
H613 N608 0.984 . S
H614 N608 0.985 . S
H615 N612 0.984 . S
H616 N612 0.985 . S
H617 N611 0.984 . S
H618 N611 0.984 . S
H619 N607 0.984 . S
H620 N607 0.985 1_565 S
C621 C622 1.363 . S
C621 C627 1.379 1_655 S
C621 N629 1.356 . S
C622 C621 1.363 . S
C622 C628 1.363 . S
C623 C624 1.363 . S
C623 C628 1.379 1_455 S
C623 N630 1.356 . S
C624 C623 1.363 . S
C624 C627 1.363 . S
N625 C627 1.356 . S
N625 H637 0.984 . S
N625 H638 0.985 . S
N626 C628 1.356 . S
N626 H631 0.984 . S
N626 H632 0.985 . S
C627 C621 1.379 1_455 S
C627 C624 1.363 . S
C627 N625 1.356 . S
C628 C622 1.363 . S
C628 C623 1.379 1_655 S
C628 N626 1.356 . S
N629 C621 1.356 . S
N629 H635 0.984 . S
N629 H636 0.984 . S
N630 C623 1.356 . S
N630 H633 0.984 . S
N630 H634 0.985 . S
H631 N626 0.984 . S
H632 N626 0.985 . S
H633 N630 0.984 . S
H634 N630 0.985 . S
H635 N629 0.984 . S
H636 N629 0.984 . S
H637 N625 0.984 . S
H638 N625 0.985 . S
C639 C640 1.363 . S
C639 C645 1.379 . S
C639 N647 1.356 . S
C640 C639 1.363 . S
C640 C646 1.363 . S
C641 C642 1.363 . S
C641 C646 1.379 . S
C641 N648 1.356 . S
C642 C641 1.363 . S
C642 C645 1.363 . S
N643 C645 1.356 . S
N643 H655 0.984 . S
N643 H656 0.985 . S
N644 C646 1.356 . S
N644 H649 0.984 . S
N644 H650 0.985 . S
C645 C639 1.379 . S
C645 C642 1.363 . S
C645 N643 1.356 . S
C646 C640 1.363 . S
C646 C641 1.379 . S
C646 N644 1.356 . S
N647 C639 1.356 . S
N647 H653 0.984 . S
N647 H654 0.984 . S
N648 C641 1.356 . S
N648 H651 0.984 . S
N648 H652 0.985 . S
H649 N644 0.984 . S
H650 N644 0.985 . S
H651 N648 0.984 . S
H652 N648 0.985 . S
H653 N647 0.984 . S
H654 N647 0.984 . S
H655 N643 0.984 . S
H656 N643 0.985 . S
C657 C658 1.363 . S
C657 C663 1.379 . S
C657 N665 1.356 . S
C658 C657 1.363 . S
C658 C664 1.363 . S
C659 C660 1.363 . S
C659 C664 1.379 . S
C659 N666 1.356 . S
C660 C659 1.363 . S
C660 C663 1.363 . S
N661 C663 1.356 . S
N661 H673 0.984 . S
N661 H674 0.985 . S
N662 C664 1.356 1_565 S
N662 H667 0.984 . S
N662 H668 0.985 . S
C663 C657 1.379 . S
C663 C660 1.363 . S
C663 N661 1.356 . S
C664 C658 1.363 . S
C664 C659 1.379 . S
C664 N662 1.356 1_545 S
N665 C657 1.356 . S
N665 H671 0.984 . S
N665 H672 0.984 1_545 S
N666 C659 1.356 . S
N666 H669 0.984 . S
N666 H670 0.985 . S
H667 N662 0.984 . S
H668 N662 0.985 . S
H669 N666 0.984 . S
H670 N666 0.985 . S
H671 N665 0.984 . S
H672 N665 0.984 1_565 S
H673 N661 0.984 . S
H674 N661 0.985 . S
C675 C676 1.363 . S
C675 C681 1.379 1_655 S
C675 N683 1.356 . S
C676 C675 1.363 . S
C676 C682 1.363 . S
C677 C678 1.363 1_655 S
C677 C682 1.379 . S
C677 N684 1.356 1_655 S
C678 C677 1.363 1_455 S
C678 C681 1.363 . S
N679 C681 1.356 . S
N679 H691 0.984 . S
N679 H692 0.985 . S
N680 C682 1.356 . S
N680 H685 0.984 . S
N680 H686 0.985 . S
C681 C675 1.379 1_455 S
C681 C678 1.363 . S
C681 N679 1.356 . S
C682 C676 1.363 . S
C682 C677 1.379 . S
C682 N680 1.356 . S
N683 C675 1.356 . S
N683 H689 0.984 . S
N683 H690 0.984 . S
N684 C677 1.356 1_455 S
N684 H687 0.984 . S
N684 H688 0.985 1_455 S
H685 N680 0.984 . S
H686 N680 0.985 . S
H687 N684 0.984 . S
H688 N684 0.985 1_655 S
H689 N683 0.984 . S
H690 N683 0.984 . S
H691 N679 0.984 . S
H692 N679 0.985 . S
C208 C19 1.304 . S
C210 C20 1.140 . S
C226 C42 1.304 . S
C228 C43 1.140 . S
C244 C65 1.304 . S
C246 C66 1.140 . S
C262 C87 1.402 . S
C264 C90 1.219 1_556 S
C280 C110 1.402 . S
C282 C113 1.219 1_556 S
C298 C133 1.402 . S
C300 C136 1.219 1_556 S
C316 C159 1.187 . S
C318 C156 1.352 . S
C334 C182 1.187 . S
C336 C179 1.352 . S
C352 C205 1.187 . S
C354 C202 1.352 . S
C370 C132 1.533 . S
C372 C16 1.512 . S
C388 C39 1.513 . S
C390 C86 1.533 . S
C406 C62 1.512 . S
C408 C109 1.533 . S
C424 C64 1.322 . S
C426 C157 1.282 . S
C442 C180 1.282 . S
C444 C18 1.322 . S
C460 C203 1.282 . S
C462 C41 1.322 . S
C478 C200 1.179 . S
C480 C17 1.199 . S
C496 C40 1.199 . S
C498 C154 1.179 . S
C514 C177 1.179 . S
C516 C63 1.199 . S
C532 C67 1.341 . S
C534 C89 1.356 . S
C550 C112 1.356 . S
C552 C21 1.341 . S
C568 C44 1.341 . S
C570 C135 1.357 . S
C586 C201 1.396 . S
C588 C88 1.350 . S
C604 C155 1.396 . S
C606 C111 1.350 . S
C622 C178 1.396 . S
C624 C134 1.350 . S
C640 C158 1.195 . S
C642 C131 1.294 . S
C658 C85 1.295 1_545 S
C660 C181 1.195 . S
C676 C204 1.195 . S
C678 C108 1.294 . S
