# Generated by pormake.
# Topology vbm, (6)-cn, num edge types: 1
# Building blocks:
#     Node 0, Type 0, BuildingBlock: BETDIP_clean_sbu_0, # of connection points: 6
#     Node 1, Type 0, BuildingBlock: BETDIP_clean_sbu_0, # of connection points: 6
#     Node 2, Type 0, BuildingBlock: BETDIP_clean_sbu_0, # of connection points: 6
#     Node 3, Type 0, BuildingBlock: BETDIP_clean_sbu_0, # of connection points: 6
#     Node 4, Type 0, BuildingBlock: BETDIP_clean_sbu_0, # of connection points: 6
#     Node 5, Type 0, BuildingBlock: BETDIP_clean_sbu_0, # of connection points: 6
#     Node 6, Type 0, BuildingBlock: BETDIP_clean_sbu_0, # of connection points: 6
#     Node 7, Type 0, BuildingBlock: BETDIP_clean_sbu_0, # of connection points: 6
#     Node 8, Type 0, BuildingBlock: BETDIP_clean_sbu_0, # of connection points: 6
#     Node 9, Type 0, BuildingBlock: BETDIP_clean_sbu_0, # of connection points: 6
#     Node 10, Type 0, BuildingBlock: BETDIP_clean_sbu_0, # of connection points: 6
#     Node 11, Type 0, BuildingBlock: BETDIP_clean_sbu_0, # of connection points: 6
#     Node 12, Type 0, BuildingBlock: BETDIP_clean_sbu_0, # of connection points: 6
#     Node 13, Type 0, BuildingBlock: BETDIP_clean_sbu_0, # of connection points: 6
#     Node 14, Type 0, BuildingBlock: BETDIP_clean_sbu_0, # of connection points: 6
#     Node 15, Type 0, BuildingBlock: BETDIP_clean_sbu_0, # of connection points: 6
#     Edge 16, Type (0, 0), BuildingBlock: XUDNAN_clean_linker_2, # of connection points: 2
#     Edge 17, Type (0, 0), BuildingBlock: XUDNAN_clean_linker_2, # of connection points: 2
#     Edge 18, Type (0, 0), BuildingBlock: XUDNAN_clean_linker_2, # of connection points: 2
#     Edge 19, Type (0, 0), BuildingBlock: XUDNAN_clean_linker_2, # of connection points: 2
#     Edge 20, Type (0, 0), BuildingBlock: XUDNAN_clean_linker_2, # of connection points: 2
#     Edge 21, Type (0, 0), BuildingBlock: XUDNAN_clean_linker_2, # of connection points: 2
#     Edge 22, Type (0, 0), BuildingBlock: XUDNAN_clean_linker_2, # of connection points: 2
#     Edge 23, Type (0, 0), BuildingBlock: XUDNAN_clean_linker_2, # of connection points: 2
#     Edge 24, Type (0, 0), BuildingBlock: XUDNAN_clean_linker_2, # of connection points: 2
#     Edge 25, Type (0, 0), BuildingBlock: XUDNAN_clean_linker_2, # of connection points: 2
#     Edge 26, Type (0, 0), BuildingBlock: XUDNAN_clean_linker_2, # of connection points: 2
#     Edge 27, Type (0, 0), BuildingBlock: XUDNAN_clean_linker_2, # of connection points: 2
#     Edge 28, Type (0, 0), BuildingBlock: XUDNAN_clean_linker_2, # of connection points: 2
#     Edge 29, Type (0, 0), BuildingBlock: XUDNAN_clean_linker_2, # of connection points: 2
#     Edge 30, Type (0, 0), BuildingBlock: XUDNAN_clean_linker_2, # of connection points: 2
#     Edge 31, Type (0, 0), BuildingBlock: XUDNAN_clean_linker_2, # of connection points: 2
#     Edge 32, Type (0, 0), BuildingBlock: XUDNAN_clean_linker_2, # of connection points: 2
#     Edge 33, Type (0, 0), BuildingBlock: XUDNAN_clean_linker_2, # of connection points: 2
#     Edge 34, Type (0, 0), BuildingBlock: XUDNAN_clean_linker_2, # of connection points: 2
#     Edge 35, Type (0, 0), BuildingBlock: XUDNAN_clean_linker_2, # of connection points: 2
#     Edge 36, Type (0, 0), BuildingBlock: XUDNAN_clean_linker_2, # of connection points: 2
#     Edge 37, Type (0, 0), BuildingBlock: XUDNAN_clean_linker_2, # of connection points: 2
#     Edge 38, Type (0, 0), BuildingBlock: XUDNAN_clean_linker_2, # of connection points: 2
#     Edge 39, Type (0, 0), BuildingBlock: XUDNAN_clean_linker_2, # of connection points: 2
#     Edge 40, Type (0, 0), BuildingBlock: XUDNAN_clean_linker_2, # of connection points: 2
#     Edge 41, Type (0, 0), BuildingBlock: XUDNAN_clean_linker_2, # of connection points: 2
#     Edge 42, Type (0, 0), BuildingBlock: XUDNAN_clean_linker_2, # of connection points: 2
#     Edge 43, Type (0, 0), BuildingBlock: XUDNAN_clean_linker_2, # of connection points: 2
#     Edge 44, Type (0, 0), BuildingBlock: XUDNAN_clean_linker_2, # of connection points: 2
#     Edge 45, Type (0, 0), BuildingBlock: XUDNAN_clean_linker_2, # of connection points: 2
#     Edge 46, Type (0, 0), BuildingBlock: XUDNAN_clean_linker_2, # of connection points: 2
#     Edge 47, Type (0, 0), BuildingBlock: XUDNAN_clean_linker_2, # of connection points: 2
#     Edge 48, Type (0, 0), BuildingBlock: XUDNAN_clean_linker_2, # of connection points: 2
#     Edge 49, Type (0, 0), BuildingBlock: XUDNAN_clean_linker_2, # of connection points: 2
#     Edge 50, Type (0, 0), BuildingBlock: XUDNAN_clean_linker_2, # of connection points: 2
#     Edge 51, Type (0, 0), BuildingBlock: XUDNAN_clean_linker_2, # of connection points: 2
#     Edge 52, Type (0, 0), BuildingBlock: XUDNAN_clean_linker_2, # of connection points: 2
#     Edge 53, Type (0, 0), BuildingBlock: XUDNAN_clean_linker_2, # of connection points: 2
#     Edge 54, Type (0, 0), BuildingBlock: XUDNAN_clean_linker_2, # of connection points: 2
#     Edge 55, Type (0, 0), BuildingBlock: XUDNAN_clean_linker_2, # of connection points: 2
#     Edge 56, Type (0, 0), BuildingBlock: XUDNAN_clean_linker_2, # of connection points: 2
#     Edge 57, Type (0, 0), BuildingBlock: XUDNAN_clean_linker_2, # of connection points: 2
#     Edge 58, Type (0, 0), BuildingBlock: XUDNAN_clean_linker_2, # of connection points: 2
#     Edge 59, Type (0, 0), BuildingBlock: XUDNAN_clean_linker_2, # of connection points: 2
#     Edge 60, Type (0, 0), BuildingBlock: XUDNAN_clean_linker_2, # of connection points: 2
#     Edge 61, Type (0, 0), BuildingBlock: XUDNAN_clean_linker_2, # of connection points: 2
#     Edge 62, Type (0, 0), BuildingBlock: XUDNAN_clean_linker_2, # of connection points: 2
#     Edge 63, Type (0, 0), BuildingBlock: XUDNAN_clean_linker_2, # of connection points: 2
# Relax obj value: 0.070
# Max RMSD: 0.145
# Mean RMSD: 0.145
data_MOF--net-vbm--node1-BETDIP_clean_sbu_0--edge1-XUDNAN_clean_linker_2
_symmetry_space_group_name_H-M    P1
_symmetry_Int_Tables_number       1
_symmetry_cell_setting            triclinic
loop_
_symmetry_equiv_pos_as_xyz
'x, y, z'
_cell_length_a     54.656644
_cell_length_b     25.674821
_cell_length_c     56.365091
_cell_angle_alpha  90.087695
_cell_angle_beta   90.086078
_cell_angle_gamma 90.235543
loop_
_atom_site_label
_atom_site_type_symbol
_atom_site_fract_x
_atom_site_fract_y
_atom_site_fract_z
_atom_type_partial_charge
Tb0 Tb 0.14338 0.06776 0.13831 0.0
Tb1 Tb 0.11827 0.16947 0.1432 0.0
C2 C 0.15687 0.97443 0.14464 0.0
C3 C 0.1509 0.91909 0.13851 0.0
C4 C 0.13572 0.88874 0.15326 0.0
C5 C 0.13243 0.83516 0.14905 0.0
C6 C 0.14433 0.8102 0.13004 0.0
C7 C 0.15934 0.8408 0.11519 0.0
C8 C 0.16262 0.89427 0.1194 0.0
C9 C 0.14027 0.11862 0.09739 0.0
C10 C 0.08464 0.07536 0.13414 0.0
C11 C 0.10439 0.2635 0.14241 0.0
C12 C 0.11297 0.31815 0.13939 0.0
C13 C 0.12977 0.33289 0.12174 0.0
C14 C 0.13563 0.38575 0.11822 0.0
C15 C 0.12487 0.42509 0.13226 0.0
C16 C 0.1087 0.40974 0.15038 0.0
C17 C 0.10283 0.35708 0.15384 0.0
C18 C 0.12181 0.11249 0.18268 0.0
C19 C 0.17542 0.16582 0.14485 0.0
O20 O 0.142 0.99939 0.15882 0.0
O21 O 0.16539 1.00468 0.12787 0.0
O22 O 0.12401 0.11732 0.11347 0.0
O23 O 0.15813 0.08874 0.10385 0.0
O24 O 0.10444 0.04591 0.13606 0.0
O25 O 0.08569 0.1266 0.13438 0.0
O26 O 0.10427 0.23276 0.12384 0.0
O27 O 0.11125 0.2392 0.16164 0.0
O28 O 0.13794 0.11949 0.16709 0.0
O29 O 0.10281 0.1396 0.17688 0.0
O30 O 0.15626 0.19125 0.13683 0.0
O31 O 0.17358 0.11624 0.15096 0.0
H32 H 0.12669 0.90616 0.16839 0.0
H33 H 0.12053 0.81331 0.16076 0.0
H34 H 0.1692 0.82317 0.10062 0.0
H35 H 0.17488 0.91592 0.10796 0.0
H36 H 0.13803 0.30374 0.11042 0.0
H37 H 0.14848 0.39582 0.10434 0.0
H38 H 0.0998 0.43858 0.16139 0.0
H39 H 0.08977 0.34683 0.16753 0.0
Tb40 Tb 0.85851 0.97273 0.13525 0.0
Tb41 Tb 0.87795 0.86601 0.13932 0.0
C42 C 0.84722 0.0676 0.13928 0.0
C43 C 0.85648 0.12125 0.14295 0.0
C44 C 0.86983 0.1358 0.16326 0.0
C45 C 0.87503 0.18843 0.1678 0.0
C46 C 0.86701 0.2275 0.1521 0.0
C47 C 0.85446 0.2124 0.13137 0.0
C48 C 0.84925 0.15998 0.12691 0.0
C49 C 0.85753 0.91929 0.09467 0.0
C50 C 0.91513 0.95222 0.1293 0.0
C51 C 0.8886 0.77121 0.13392 0.0
C52 C 0.88239 0.71777 0.14199 0.0
C53 C 0.86949 0.68409 0.12673 0.0
C54 C 0.86646 0.63144 0.13242 0.0
C55 C 0.87639 0.61101 0.15346 0.0
C56 C 0.88859 0.64509 0.16912 0.0
C57 C 0.89164 0.69781 0.16342 0.0
C58 C 0.87865 0.9206 0.17988 0.0
C59 C 0.82087 0.88241 0.14391 0.0
O60 O 0.84811 0.03504 0.15708 0.0
O61 O 0.85198 0.04509 0.11901 0.0
O62 O 0.87435 0.91907 0.1101 0.0
O63 O 0.84064 0.95075 0.1019 0.0
O64 O 0.89862 0.98518 0.13768 0.0
O65 O 0.90884 0.9043 0.12374 0.0
O66 O 0.87239 0.79568 0.121 0.0
O67 O 0.89981 0.80237 0.14883 0.0
O68 O 0.86221 0.92044 0.16421 0.0
O69 O 0.89395 0.88431 0.17427 0.0
O70 O 0.83899 0.84968 0.14032 0.0
O71 O 0.82448 0.93337 0.14494 0.0
H72 H 0.87568 0.10683 0.17595 0.0
H73 H 0.88501 0.19855 0.18377 0.0
H74 H 0.84767 0.24126 0.11905 0.0
H75 H 0.83868 0.14986 0.11127 0.0
H76 H 0.86236 0.69809 0.10998 0.0
H77 H 0.85662 0.60655 0.12012 0.0
H78 H 0.89667 0.63064 0.18538 0.0
H79 H 0.90195 0.72245 0.17547 0.0
Tb80 Tb 0.13598 0.97754 0.38538 0.0
Tb81 Tb 0.11563 0.87324 0.3775 0.0
C82 C 0.14763 0.07232 0.38072 0.0
C83 C 0.14009 0.1264 0.38656 0.0
C84 C 0.12949 0.15795 0.36897 0.0
C85 C 0.12537 0.211 0.37312 0.0
C86 C 0.13189 0.23403 0.39491 0.0
C87 C 0.14196 0.20214 0.4127 0.0
C88 C 0.14607 0.14908 0.40856 0.0
C89 C 0.13417 0.92268 0.42522 0.0
C90 C 0.07787 0.95848 0.38849 0.0
C91 C 0.1037 0.7782 0.37499 0.0
C92 C 0.11192 0.72432 0.37955 0.0
C93 C 0.12312 0.70973 0.40098 0.0
C94 C 0.1276 0.65703 0.40586 0.0
C95 C 0.12097 0.61795 0.38942 0.0
C96 C 0.11071 0.63316 0.36762 0.0
C97 C 0.10623 0.68568 0.36279 0.0
C98 C 0.11875 0.93428 0.33915 0.0
C99 C 0.17203 0.8858 0.37999 0.0
O100 O 0.1344 0.04638 0.3653 0.0
O101 O 0.15538 0.04265 0.39799 0.0
O102 O 0.11822 0.9223 0.4088 0.0
O103 O 0.15092 0.95639 0.41977 0.0
O104 O 0.09599 0.99294 0.38669 0.0
O105 O 0.08181 0.90813 0.38734 0.0
O106 O 0.09919 0.80802 0.39329 0.0
O107 O 0.11425 0.80364 0.35772 0.0
O108 O 0.13434 0.92839 0.3553 0.0
O109 O 0.10029 0.9044 0.34391 0.0
O110 O 0.15344 0.85636 0.38641 0.0
O111 O 0.16857 0.93518 0.37426 0.0
H112 H 0.12497 0.14193 0.35171 0.0
H113 H 0.11727 0.23409 0.35911 0.0
H114 H 0.14753 0.21851 0.42959 0.0
H115 H 0.15465 0.12626 0.42238 0.0
H116 H 0.1278 0.73879 0.4142 0.0
H117 H 0.13588 0.64682 0.42267 0.0
H118 H 0.10511 0.60433 0.35464 0.0
H119 H 0.09744 0.69597 0.34621 0.0
Tb120 Tb 0.85045 0.06754 0.3806 0.0
Tb121 Tb 0.8746 0.17068 0.37112 0.0
C122 C 0.83597 0.97378 0.38067 0.0
C123 C 0.84277 0.91897 0.3749 0.0
C124 C 0.83852 0.89803 0.35218 0.0
C125 C 0.84087 0.84438 0.34798 0.0
C126 C 0.84735 0.81003 0.36642 0.0
C127 C 0.85263 0.83136 0.38888 0.0
C128 C 0.85028 0.88499 0.39307 0.0
C129 C 0.85473 0.12724 0.41891 0.0
C130 C 0.90865 0.07768 0.37963 0.0
C131 C 0.88815 0.26494 0.37324 0.0
C132 C 0.87862 0.31896 0.37094 0.0
C133 C 0.88185 0.35421 0.38979 0.0
C134 C 0.87504 0.40658 0.3875 0.0
C135 C 0.8649 0.42534 0.36619 0.0
C136 C 0.86132 0.38964 0.34743 0.0
C137 C 0.86806 0.33719 0.34976 0.0
C138 C 0.87108 0.10857 0.3335 0.0
C139 C 0.81643 0.16377 0.37346 0.0
O140 O 0.83189 1.00634 0.36324 0.0
O141 O 0.84703 0.9963 0.39858 0.0
O142 O 0.87044 0.12258 0.40244 0.0
O143 O 0.83639 0.097 0.41401 0.0
O144 O 0.88921 0.04757 0.37611 0.0
O145 O 0.90694 0.12871 0.38146 0.0
O146 O 0.88102 0.23796 0.39168 0.0
O147 O 0.88941 0.23627 0.35406 0.0
O148 O 0.85544 0.1139 0.34984 0.0
O149 O 0.88838 0.14253 0.33672 0.0
O150 O 0.83625 0.19301 0.37196 0.0
O151 O 0.81726 0.11247 0.37537 0.0
H152 H 0.83249 0.92276 0.33778 0.0
H153 H 0.83704 0.82965 0.33034 0.0
H154 H 0.85742 0.80631 0.4036 0.0
H155 H 0.85332 0.89951 0.41089 0.0
H156 H 0.89004 0.34137 0.40628 0.0
H157 H 0.87772 0.43233 0.40252 0.0
H158 H 0.85387 0.40242 0.33062 0.0
H159 H 0.86543 0.31124 0.3348 0.0
Tb160 Tb 0.88016 0.88017 0.8736 0.0
Tb161 Tb 0.85383 0.9808 0.87945 0.0
C162 C 0.89402 0.78599 0.87406 0.0
C163 C 0.88536 0.73148 0.87858 0.0
C164 C 0.88798 0.70863 0.90111 0.0
C165 C 0.88253 0.65571 0.90473 0.0
C166 C 0.87443 0.62371 0.8859 0.0
C167 C 0.87158 0.64673 0.8634 0.0
C168 C 0.877 0.69973 0.85979 0.0
C169 C 0.87543 0.93784 0.83453 0.0
C170 C 0.82288 0.88059 0.87333 0.0
C171 C 0.83974 0.07377 0.8732 0.0
C172 C 0.84664 0.12936 0.87729 0.0
C173 C 0.84397 0.16529 0.85867 0.0
C174 C 0.84771 0.21884 0.86242 0.0
C175 C 0.85414 0.23815 0.885 0.0
C176 C 0.85759 0.20177 0.90347 0.0
C177 C 0.85387 0.14814 0.89968 0.0
C178 C 0.85739 0.92802 0.91969 0.0
C179 C 0.91306 0.97488 0.88297 0.0
O180 O 0.89629 0.81783 0.89214 0.0
O181 O 0.88564 0.80982 0.85525 0.0
O182 O 0.85963 0.93001 0.85038 0.0
O183 O 0.89473 0.9111 0.83978 0.0
O184 O 0.84278 0.85681 0.88063 0.0
O185 O 0.82312 0.93099 0.86833 0.0
O186 O 0.85248 0.04746 0.85765 0.0
O187 O 0.83382 0.04532 0.89158 0.0
O188 O 0.87372 0.93114 0.90368 0.0
O189 O 0.83915 0.95733 0.91361 0.0
O190 O 0.89292 1.00376 0.88198 0.0
O191 O 0.91247 0.92372 0.88189 0.0
H192 H 0.89484 0.73134 0.91592 0.0
H193 H 0.88537 0.63956 0.92225 0.0
H194 H 0.86514 0.6238 0.84849 0.0
H195 H 0.87507 0.71558 0.84209 0.0
H196 H 0.83826 0.15203 0.84125 0.0
H197 H 0.84461 0.24527 0.84778 0.0
H198 H 0.86297 0.21475 0.92101 0.0
H199 H 0.85618 0.12156 0.91441 0.0
Tb200 Tb 0.11878 0.17933 0.87683 0.0
Tb201 Tb 0.14057 0.06806 0.87912 0.0
C202 C 0.10797 0.27376 0.88274 0.0
C203 C 0.11668 0.32675 0.87632 0.0
C204 C 0.12863 0.35785 0.89336 0.0
C205 C 0.13483 0.40965 0.88836 0.0
C206 C 0.1291 0.43175 0.86624 0.0
C207 C 0.1175 0.40033 0.84906 0.0
C208 C 0.11131 0.34854 0.85404 0.0
C209 C 0.12146 0.12526 0.83654 0.0
C210 C 0.17641 0.16612 0.87639 0.0
C211 C 0.15336 0.9813 0.86257 0.0
C212 C 0.14839 0.92448 0.86311 0.0
C213 C 0.13764 0.90083 0.84314 0.0
C214 C 0.13571 0.84668 0.84151 0.0
C215 C 0.14464 0.81461 0.85974 0.0
C216 C 0.15458 0.83823 0.88017 0.0
C217 C 0.15656 0.89265 0.88179 0.0
C218 C 0.13364 0.1021 0.92305 0.0
C219 C 0.08395 0.08819 0.88905 0.0
O220 O 0.12148 0.24708 0.89756 0.0
O221 O 0.09878 0.24452 0.86582 0.0
O222 O 0.13676 0.12718 0.85317 0.0
O223 O 0.10367 0.15661 0.84165 0.0
O224 O 0.15746 0.19773 0.87484 0.0
O225 O 0.17432 0.11455 0.87757 0.0
O226 O 0.13649 1.01077 0.85299 0.0
O227 O 0.1639 1.00331 0.88102 0.0
O228 O 0.12886 0.12541 0.90377 0.0
O229 O 0.14253 0.05673 0.91761 0.0
O230 O 0.10047 0.05498 0.8806 0.0
O231 O 0.08904 0.13775 0.89277 0.0
H232 H 0.13279 0.34243 0.91077 0.0
H233 H 0.14401 0.43247 0.90191 0.0
H234 H 0.11248 0.41619 0.83195 0.0
H235 H 0.10182 0.32604 0.8406 0.0
H236 H 0.13138 0.92422 0.82835 0.0
H237 H 0.12759 0.82986 0.8257 0.0
H238 H 0.16177 0.81463 0.89446 0.0
H239 H 0.16517 0.90958 0.89732 0.0
Tb240 Tb 0.87708 0.17864 0.63989 0.0
Tb241 Tb 0.8573 0.07246 0.63327 0.0
C242 C 0.88924 0.27315 0.63607 0.0
C243 C 0.8824 0.32745 0.64164 0.0
C244 C 0.88619 0.36555 0.62422 0.0
C245 C 0.88246 0.41822 0.62927 0.0
C246 C 0.87482 0.43421 0.65196 0.0
C247 C 0.87031 0.39571 0.66926 0.0
C248 C 0.87407 0.34279 0.66415 0.0
C249 C 0.87409 0.12153 0.67939 0.0
C250 C 0.81968 0.16301 0.63921 0.0
C251 C 0.84605 0.97714 0.63604 0.0
C252 C 0.85498 0.92444 0.64255 0.0
C253 C 0.85102 0.90446 0.66546 0.0
C254 C 0.85572 0.85202 0.67054 0.0
C255 C 0.86431 0.8181 0.65279 0.0
C256 C 0.86904 0.83858 0.6301 0.0
C257 C 0.86436 0.89098 0.62503 0.0
C258 C 0.8588 0.12749 0.59336 0.0
C259 C 0.91427 0.09398 0.63319 0.0
O260 O 0.87582 0.24835 0.62044 0.0
O261 O 0.8963 0.24305 0.65349 0.0
O262 O 0.85884 0.12388 0.66271 0.0
O263 O 0.89149 0.15454 0.675 0.0
O264 O 0.83834 0.19562 0.63941 0.0
O265 O 0.82248 0.11187 0.63838 0.0
O266 O 0.84232 1.0109 0.65309 0.0
O267 O 0.85508 0.99902 0.617 0.0
O268 O 0.87495 0.12705 0.60957 0.0
O269 O 0.84164 0.09519 0.59929 0.0
O270 O 0.89693 0.06093 0.6399 0.0
O271 O 0.90859 0.14095 0.62613 0.0
H272 H 0.89278 0.35466 0.60679 0.0
H273 H 0.88649 0.44654 0.6156 0.0
H274 H 0.8641 0.4065 0.68681 0.0
H275 H 0.87095 0.3141 0.6779 0.0
H276 H 0.84341 0.92882 0.67929 0.0
H277 H 0.8516 0.83761 0.68814 0.0
H278 H 0.87603 0.81388 0.61609 0.0
H279 H 0.86734 0.90479 0.60712 0.0
Tb280 Tb 0.11367 0.87055 0.64544 0.0
Tb281 Tb 0.14198 0.97036 0.64028 0.0
C282 C 0.09847 0.77685 0.64467 0.0
C283 C 0.10656 0.72146 0.64217 0.0
C284 C 0.12216 0.70477 0.62386 0.0
C285 C 0.12748 0.65147 0.62086 0.0
C286 C 0.11736 0.61322 0.63603 0.0
C287 C 0.10237 0.63048 0.65475 0.0
C288 C 0.09704 0.68366 0.65771 0.0
C289 C 0.11941 0.92732 0.68476 0.0
C290 C 0.17102 0.8683 0.64626 0.0
C291 C 0.15732 0.06326 0.6459 0.0
C292 C 0.14987 0.11887 0.64309 0.0
C293 C 0.16004 0.15684 0.65821 0.0
C294 C 0.15497 0.21008 0.65507 0.0
C295 C 0.13957 0.22712 0.63659 0.0
C296 C 0.12884 0.18865 0.62183 0.0
C297 C 0.13391 0.13533 0.62503 0.0
C298 C 0.13655 0.91858 0.59976 0.0
C299 C 0.0828 0.96776 0.63796 0.0
O300 O 0.09925 0.80721 0.62601 0.0
O301 O 0.10489 0.80166 0.66397 0.0
O302 O 0.13506 0.91891 0.66885 0.0
O303 O 0.09967 0.90168 0.67945 0.0
O304 O 0.15079 0.84609 0.63854 0.0
O305 O 0.17175 0.91874 0.65131 0.0
O306 O 0.14655 0.03605 0.66249 0.0
O307 O 0.1607 0.03563 0.62667 0.0
O308 O 0.12065 0.92286 0.61606 0.0
O309 O 0.15566 0.94568 0.60583 0.0
O310 O 0.10338 0.99479 0.64086 0.0
O311 O 0.08255 0.9166 0.63626 0.0
H312 H 0.12994 0.73276 0.61163 0.0
H313 H 0.13947 0.64024 0.60647 0.0
H314 H 0.09396 0.60272 0.66669 0.0
H315 H 0.08487 0.69518 0.67192 0.0
H316 H 0.17245 0.14538 0.67226 0.0
H317 H 0.16383 0.238 0.66669 0.0
H318 H 0.11653 0.19972 0.60767 0.0
H319 H 0.12563 0.10706 0.61317 0.0
Tb320 Tb 0.63747 0.58292 0.14276 0.0
Tb321 Tb 0.61105 0.6848 0.14327 0.0
C322 C 0.65116 0.48925 0.14813 0.0
C323 C 0.64246 0.43458 0.15204 0.0
C324 C 0.64893 0.40839 0.173 0.0
C325 C 0.64396 0.35504 0.17582 0.0
C326 C 0.63239 0.32591 0.15772 0.0
C327 C 0.62551 0.35242 0.13687 0.0
C328 C 0.6305 0.4059 0.13406 0.0
C329 C 0.63598 0.63154 0.10099 0.0
C330 C 0.57934 0.58811 0.13802 0.0
C331 C 0.59765 0.77716 0.13427 0.0
C332 C 0.60436 0.83257 0.13888 0.0
C333 C 0.59727 0.87095 0.12253 0.0
C334 C 0.60141 0.92405 0.12717 0.0
C335 C 0.61272 0.94038 0.14841 0.0
C336 C 0.62048 0.90155 0.16447 0.0
C337 C 0.61637 0.84836 0.15976 0.0
C338 C 0.61006 0.63465 0.18449 0.0
C339 C 0.66873 0.68262 0.15245 0.0
O340 O 0.64941 0.52278 0.16557 0.0
O341 O 0.64661 0.51083 0.12763 0.0
O342 O 0.61892 0.6287 0.11609 0.0
O343 O 0.65453 0.60595 0.1092 0.0
O344 O 0.59859 0.56221 0.14599 0.0
O345 O 0.58132 0.63671 0.13077 0.0
O346 O 0.6121 0.75001 0.12053 0.0
O347 O 0.58969 0.74974 0.15225 0.0
O348 O 0.62802 0.63671 0.17029 0.0
O349 O 0.59304 0.66513 0.17659 0.0
O350 O 0.64867 0.70933 0.14814 0.0
O351 O 0.66903 0.63102 0.15267 0.0
H352 H 0.65856 0.4289 0.18702 0.0
H353 H 0.64995 0.33632 0.192 0.0
H354 H 0.61629 0.33186 0.12264 0.0
H355 H 0.62541 0.42444 0.11754 0.0
H356 H 0.58791 0.85988 0.10631 0.0
H357 H 0.59493 0.9524 0.11445 0.0
H358 H 0.62963 0.91224 0.18082 0.0
H359 H 0.62218 0.81967 0.17264 0.0
Tb360 Tb 0.34965 0.49586 0.14366 0.0
Tb361 Tb 0.3737 0.39301 0.14914 0.0
C362 C 0.3361 0.58993 0.14595 0.0
C363 C 0.34434 0.64457 0.14991 0.0
C364 C 0.35433 0.6614 0.17163 0.0
C365 C 0.35886 0.71456 0.17577 0.0
C366 C 0.35343 0.75224 0.15835 0.0
C367 C 0.34419 0.7349 0.13638 0.0
C368 C 0.33968 0.68188 0.13227 0.0
C369 C 0.35245 0.44156 0.10348 0.0
C370 C 0.40753 0.48485 0.14299 0.0
C371 C 0.38704 0.29926 0.14461 0.0
C372 C 0.3798 0.24466 0.15046 0.0
C373 C 0.36968 0.21222 0.13281 0.0
C374 C 0.36528 0.15922 0.13719 0.0
C375 C 0.37099 0.13698 0.15932 0.0
C376 C 0.38083 0.16968 0.17707 0.0
C377 C 0.38523 0.22269 0.17269 0.0
C378 C 0.37048 0.4491 0.189 0.0
C379 C 0.31572 0.39956 0.15271 0.0
O380 O 0.33578 0.55784 0.16398 0.0
O381 O 0.34307 0.56704 0.12638 0.0
O382 O 0.36882 0.44472 0.1194 0.0
O383 O 0.33413 0.46998 0.11001 0.0
O384 O 0.38886 0.51421 0.14964 0.0
O385 O 0.40416 0.43652 0.1361 0.0
O386 O 0.37376 0.3241 0.12896 0.0
O387 O 0.39422 0.32984 0.16191 0.0
O388 O 0.35465 0.44453 0.17285 0.0
O389 O 0.38849 0.41834 0.18393 0.0
O390 O 0.33546 0.37071 0.15042 0.0
O391 O 0.31656 0.45114 0.15231 0.0
H392 H 0.3581 0.63374 0.18565 0.0
H393 H 0.36634 0.72619 0.19278 0.0
H394 H 0.33945 0.76248 0.12263 0.0
H395 H 0.33169 0.67018 0.11547 0.0
H396 H 0.36559 0.22759 0.11537 0.0
H397 H 0.3574 0.13566 0.12315 0.0
H398 H 0.38583 0.15404 0.19423 0.0
H399 H 0.39344 0.2461 0.1866 0.0
Tb400 Tb 0.63701 0.48064 0.37746 0.0
Tb401 Tb 0.61519 0.37136 0.37344 0.0
C402 C 0.64871 0.57124 0.36452 0.0
C403 C 0.64466 0.62629 0.37124 0.0
C404 C 0.64082 0.66318 0.3533 0.0
C405 C 0.63765 0.71587 0.35888 0.0
C406 C 0.63834 0.73307 0.38261 0.0
C407 C 0.64204 0.6958 0.4006 0.0
C408 C 0.64513 0.64297 0.39499 0.0
C409 C 0.63232 0.44322 0.42117 0.0
C410 C 0.58037 0.45772 0.38952 0.0
C411 C 0.60512 0.27579 0.36995 0.0
C412 C 0.6129 0.22221 0.37598 0.0
C413 C 0.61734 0.20621 0.39943 0.0
C414 C 0.62186 0.15357 0.4045 0.0
C415 C 0.62199 0.11589 0.38625 0.0
C416 C 0.61827 0.13261 0.36276 0.0
C417 C 0.61378 0.18501 0.35774 0.0
C418 C 0.6127 0.43178 0.33507 0.0
C419 C 0.67189 0.38512 0.37994 0.0
O420 O 0.62972 0.54582 0.35613 0.0
O421 O 0.66204 0.54269 0.37881 0.0
O422 O 0.62667 0.4207 0.40186 0.0
O423 O 0.64113 0.48877 0.41595 0.0
O424 O 0.59698 0.49239 0.38217 0.0
O425 O 0.58489 0.40742 0.39043 0.0
O426 O 0.59672 0.30589 0.3869 0.0
O427 O 0.61852 0.30126 0.35456 0.0
O428 O 0.63069 0.42746 0.349 0.0
O429 O 0.59533 0.40208 0.34274 0.0
O430 O 0.65227 0.35678 0.38416 0.0
O431 O 0.67047 0.43426 0.37283 0.0
H432 H 0.64032 0.65119 0.33486 0.0
H433 H 0.63439 0.74302 0.34455 0.0
H434 H 0.64294 0.7075 0.41905 0.0
H435 H 0.64805 0.61532 0.4092 0.0
H436 H 0.61679 0.23405 0.41387 0.0
H437 H 0.62497 0.1423 0.42275 0.0
H438 H 0.61783 0.10491 0.34826 0.0
H439 H 0.61019 0.19626 0.33955 0.0
Tb440 Tb 0.35271 0.57773 0.3918 0.0
Tb441 Tb 0.38052 0.67839 0.38669 0.0
C442 C 0.33761 0.4846 0.38704 0.0
C443 C 0.34578 0.42943 0.38375 0.0
C444 C 0.33934 0.40282 0.36284 0.0
C445 C 0.34446 0.34965 0.36 0.0
C446 C 0.35621 0.32097 0.37802 0.0
C447 C 0.36277 0.34768 0.399 0.0
C448 C 0.35763 0.40113 0.40183 0.0
C449 C 0.3564 0.63129 0.4319 0.0
C450 C 0.41167 0.58183 0.39457 0.0
C451 C 0.39549 0.77171 0.39087 0.0
C452 C 0.38761 0.82707 0.38817 0.0
C453 C 0.39461 0.86399 0.40539 0.0
C454 C 0.38997 0.91737 0.40216 0.0
C455 C 0.37829 0.93552 0.38149 0.0
C456 C 0.37046 0.89813 0.36466 0.0
C457 C 0.37505 0.84472 0.36794 0.0
C458 C 0.37543 0.6219 0.3471 0.0
C459 C 0.32225 0.67867 0.38318 0.0
O460 O 0.34068 0.51697 0.36935 0.0
O461 O 0.34151 0.50722 0.40752 0.0
O462 O 0.37297 0.62682 0.41618 0.0
O463 O 0.3375 0.60413 0.4253 0.0
O464 O 0.39157 0.55415 0.39014 0.0
O465 O 0.41121 0.63265 0.3974 0.0
O466 O 0.38608 0.7447 0.40832 0.0
O467 O 0.3979 0.7436 0.37163 0.0
O468 O 0.35987 0.62916 0.3632 0.0
O469 O 0.39457 0.64992 0.35213 0.0
O470 O 0.34287 0.70432 0.38676 0.0
O471 O 0.32134 0.62702 0.3826 0.0
H472 H 0.32977 0.42297 0.34875 0.0
H473 H 0.33859 0.33076 0.34376 0.0
H474 H 0.37203 0.32739 0.41322 0.0
H475 H 0.36266 0.42004 0.41833 0.0
H476 H 0.40442 0.85166 0.42111 0.0
H477 H 0.39646 0.94462 0.41546 0.0
H478 H 0.36101 0.9102 0.3487 0.0
H479 H 0.36927 0.81741 0.35436 0.0
Tb480 Tb 0.37926 0.37666 0.8824 0.0
Tb481 Tb 0.3561 0.48493 0.88448 0.0
C482 C 0.38977 0.28102 0.88086 0.0
C483 C 0.38168 0.22763 0.88777 0.0
C484 C 0.39327 0.20163 0.90661 0.0
C485 C 0.38858 0.14875 0.91097 0.0
C486 C 0.37233 0.1202 0.89647 0.0
C487 C 0.36027 0.14656 0.878 0.0
C488 C 0.36489 0.19949 0.87369 0.0
C489 C 0.38164 0.43455 0.84317 0.0
C490 C 0.32232 0.38687 0.88707 0.0
C491 C 0.34359 0.57422 0.87038 0.0
C492 C 0.34701 0.62957 0.87691 0.0
C493 C 0.33553 0.66815 0.86333 0.0
C494 C 0.3386 0.72099 0.86889 0.0
C495 C 0.35327 0.73656 0.88823 0.0
C496 C 0.36482 0.69755 0.90179 0.0
C497 C 0.36173 0.6446 0.89618 0.0
C498 C 0.36024 0.45021 0.92877 0.0
C499 C 0.4129 0.46645 0.89728 0.0
O500 O 0.39775 0.3128 0.89745 0.0
O501 O 0.37702 0.30523 0.86458 0.0
O502 O 0.36353 0.43021 0.85695 0.0
O503 O 0.39919 0.40636 0.85148 0.0
O504 O 0.34216 0.3606 0.89248 0.0
O505 O 0.32336 0.43561 0.87927 0.0
O506 O 0.36305 0.54965 0.86279 0.0
O507 O 0.33041 0.54559 0.8848 0.0
O508 O 0.36658 0.42718 0.90983 0.0
O509 O 0.35117 0.49491 0.92279 0.0
O510 O 0.39604 0.49925 0.889 0.0
O511 O 0.40886 0.41605 0.89935 0.0
H512 H 0.40666 0.22171 0.91751 0.0
H513 H 0.39845 0.12976 0.92518 0.0
H514 H 0.3474 0.12614 0.86666 0.0
H515 H 0.3558 0.21788 0.85883 0.0
H516 H 0.3241 0.65737 0.84837 0.0
H517 H 0.32913 0.7496 0.85823 0.0
H518 H 0.3765 0.70791 0.91661 0.0
H519 H 0.37089 0.61542 0.90681 0.0
Tb520 Tb 0.61815 0.66669 0.87948 0.0
Tb521 Tb 0.64235 0.56391 0.88574 0.0
C522 C 0.6043 0.76026 0.88313 0.0
C523 C 0.61216 0.81525 0.87964 0.0
C524 C 0.61 0.85067 0.89856 0.0
C525 C 0.61378 0.90417 0.89505 0.0
C526 C 0.61965 0.92371 0.87245 0.0
C527 C 0.62287 0.88788 0.85374 0.0
C528 C 0.61917 0.83433 0.85727 0.0
C529 C 0.62273 0.60986 0.84001 0.0
C530 C 0.67632 0.66061 0.87821 0.0
C531 C 0.6563 0.47049 0.88126 0.0
C532 C 0.6473 0.41604 0.87799 0.0
C533 C 0.6478 0.39307 0.85534 0.0
C534 C 0.64212 0.34025 0.85223 0.0
C535 C 0.63586 0.30858 0.8717 0.0
C536 C 0.63512 0.33168 0.89438 0.0
C537 C 0.64082 0.38467 0.89749 0.0
C538 C 0.63909 0.61867 0.92559 0.0
C539 C 0.58393 0.57342 0.88754 0.0
O540 O 0.61437 0.73417 0.9005 0.0
O541 O 0.6008 0.73134 0.86429 0.0
O542 O 0.63806 0.61518 0.85654 0.0
O543 O 0.6043 0.63982 0.84459 0.0
O544 O 0.65664 0.6898 0.88067 0.0
O545 O 0.67496 0.60916 0.87732 0.0
O546 O 0.65355 0.50278 0.86351 0.0
O547 O 0.6527 0.49329 0.90173 0.0
O548 O 0.6229 0.61528 0.90944 0.0
O549 O 0.65745 0.58962 0.91959 0.0
O550 O 0.60316 0.54321 0.88369 0.0
O551 O 0.586 0.62421 0.88987 0.0
H552 H 0.60443 0.83715 0.91594 0.0
H553 H 0.61094 0.93045 0.90983 0.0
H554 H 0.62779 0.90135 0.83618 0.0
H555 H 0.62106 0.80817 0.8423 0.0
H556 H 0.65322 0.41564 0.83998 0.0
H557 H 0.64337 0.32393 0.83455 0.0
H558 H 0.63016 0.30881 0.90978 0.0
H559 H 0.64058 0.40076 0.91526 0.0
Tb560 Tb 0.37966 0.68954 0.65176 0.0
Tb561 Tb 0.3609 0.58255 0.64825 0.0
C562 C 0.38972 0.78475 0.64627 0.0
C563 C 0.38284 0.83809 0.65365 0.0
C564 C 0.37603 0.87411 0.63616 0.0
C565 C 0.37243 0.9265 0.64191 0.0
C566 C 0.37569 0.9443 0.66532 0.0
C567 C 0.38171 0.90784 0.68301 0.0
C568 C 0.38531 0.85529 0.67724 0.0
C569 C 0.38375 0.6351 0.69183 0.0
C570 C 0.32285 0.67063 0.65768 0.0
C571 C 0.3506 0.48714 0.65283 0.0
C572 C 0.35996 0.43416 0.65778 0.0
C573 C 0.36624 0.41835 0.68088 0.0
C574 C 0.37063 0.3657 0.68583 0.0
C575 C 0.36869 0.32771 0.66785 0.0
C576 C 0.36343 0.34411 0.6446 0.0
C577 C 0.35909 0.39659 0.63966 0.0
C578 C 0.35824 0.6356 0.6075 0.0
C579 C 0.41696 0.60608 0.64032 0.0
O580 O 0.3742 0.75911 0.63289 0.0
O581 O 0.40043 0.75476 0.66186 0.0
O582 O 0.36581 0.63418 0.67765 0.0
O583 O 0.3992 0.66971 0.68441 0.0
O584 O 0.34088 0.70422 0.65503 0.0
O585 O 0.32651 0.6198 0.65746 0.0
O586 O 0.34984 0.5209 0.67022 0.0
O587 O 0.35651 0.50873 0.63264 0.0
O588 O 0.37539 0.63659 0.62254 0.0
O589 O 0.34192 0.60302 0.61516 0.0
O590 O 0.40113 0.5725 0.64953 0.0
O591 O 0.40989 0.65315 0.63452 0.0
H592 H 0.37413 0.86196 0.61783 0.0
H593 H 0.36735 0.95322 0.62791 0.0
H594 H 0.38452 0.9202 0.7012 0.0
H595 H 0.39069 0.82856 0.69113 0.0
H596 H 0.36689 0.44623 0.69531 0.0
H597 H 0.37497 0.35464 0.70388 0.0
H598 H 0.36139 0.3161 0.63035 0.0
H599 H 0.35387 0.40743 0.62179 0.0
Tb600 Tb 0.61689 0.38304 0.64218 0.0
Tb601 Tb 0.64418 0.48275 0.63659 0.0
C602 C 0.60193 0.28914 0.64309 0.0
C603 C 0.60938 0.23369 0.63967 0.0
C604 C 0.62587 0.21786 0.62198 0.0
C605 C 0.6313 0.16465 0.61873 0.0
C606 C 0.62037 0.12576 0.63305 0.0
C607 C 0.60426 0.14223 0.65103 0.0
C608 C 0.59888 0.19525 0.65424 0.0
C609 C 0.62403 0.4381 0.68175 0.0
C610 C 0.67399 0.38175 0.63574 0.0
C611 C 0.65932 0.57552 0.64312 0.0
C612 C 0.65178 0.63115 0.64049 0.0
C613 C 0.66092 0.66862 0.65647 0.0
C614 C 0.65618 0.722 0.65328 0.0
C615 C 0.64218 0.73966 0.63389 0.0
C616 C 0.63239 0.70169 0.6183 0.0
C617 C 0.63712 0.64825 0.62155 0.0
C618 C 0.63773 0.43394 0.59552 0.0
C619 C 0.58505 0.47915 0.63542 0.0
O620 O 0.60026 0.31952 0.62451 0.0
O621 O 0.61109 0.31374 0.66137 0.0
O622 O 0.63936 0.43041 0.66537 0.0
O623 O 0.60399 0.41372 0.67644 0.0
O624 O 0.65284 0.35932 0.63133 0.0
O625 O 0.67534 0.43094 0.64278 0.0
O626 O 0.64851 0.54758 0.65945 0.0
O627 O 0.66292 0.54859 0.62374 0.0
O628 O 0.62224 0.43572 0.6124 0.0
O629 O 0.65646 0.46242 0.6013 0.0
O630 O 0.60554 0.50687 0.63706 0.0
O631 O 0.58497 0.42792 0.63466 0.0
H632 H 0.63439 0.24649 0.61054 0.0
H633 H 0.64411 0.15404 0.60493 0.0
H634 H 0.59516 0.11402 0.66225 0.0
H635 H 0.58605 0.20622 0.66799 0.0
H636 H 0.67237 0.65669 0.67119 0.0
H637 H 0.66427 0.74956 0.66558 0.0
H638 H 0.62114 0.71324 0.60341 0.0
H639 H 0.62967 0.62042 0.60898 0.0
H640 H 0.18986 0.25714 0.12411 0.0
H641 H 0.21147 0.14284 0.17673 0.0
H642 H 0.2469 0.19798 0.18769 0.0
H643 H 0.25063 0.28707 0.10458 0.0
H644 H 0.2444 0.35511 0.0997 0.0
H645 H 0.22012 0.30789 0.09705 0.0
H646 H 0.1948 0.35947 0.12792 0.0
H647 H 0.21923 0.40639 0.131 0.0
H648 H 0.20771 0.37281 0.15675 0.0
H649 H 0.27949 0.26404 0.19289 0.0
H650 H 0.31177 0.33014 0.18777 0.0
H651 H 0.27046 0.4014 0.13079 0.0
C652 C 0.20209 0.24372 0.13793 0.0
C653 C 0.19795 0.1958 0.14967 0.0
C654 C 0.21443 0.17922 0.16744 0.0
C655 C 0.2344 0.21057 0.17396 0.0
C656 C 0.23766 0.25807 0.16239 0.0
C657 C 0.22229 0.27419 0.14443 0.0
C658 C 0.23097 0.3252 0.1337 0.0
C659 C 0.23689 0.31839 0.10719 0.0
C660 C 0.21205 0.36853 0.13758 0.0
C661 C 0.25392 0.3349 0.14824 0.0
C662 C 0.25701 0.29609 0.16501 0.0
C663 C 0.27723 0.29474 0.17995 0.0
C664 C 0.29538 0.33257 0.17698 0.0
C665 C 0.29335 0.371 0.15911 0.0
C666 C 0.27205 0.37325 0.14499 0.0
H667 H 0.80526 0.78329 0.13421 0.0
H668 H 0.78118 0.93077 0.16374 0.0
H669 H 0.74096 0.89131 0.17286 0.0
H670 H 0.74905 0.75074 0.10608 0.0
H671 H 0.75145 0.68192 0.11188 0.0
H672 H 0.77871 0.72095 0.10904 0.0
H673 H 0.79319 0.68962 0.15039 0.0
H674 H 0.7658 0.65091 0.1535 0.0
H675 H 0.77362 0.69864 0.17577 0.0
H676 H 0.70365 0.83734 0.17794 0.0
H677 H 0.66946 0.7753 0.17497 0.0
H678 H 0.7171 0.6622 0.14143 0.0
C679 C 0.79159 0.8073 0.14272 0.0
C680 C 0.79637 0.86012 0.14841 0.0
C681 C 0.77789 0.89033 0.15921 0.0
C682 C 0.75509 0.86812 0.16463 0.0
C683 C 0.75113 0.81581 0.15904 0.0
C684 C 0.76873 0.7859 0.14809 0.0
C685 C 0.75926 0.7315 0.14268 0.0
C686 C 0.75963 0.72067 0.11583 0.0
C687 C 0.77384 0.69024 0.15641 0.0
C688 C 0.73334 0.73573 0.15197 0.0
C689 C 0.72928 0.78454 0.16165 0.0
C690 C 0.70662 0.79899 0.17052 0.0
C691 C 0.68733 0.76339 0.16872 0.0
C692 C 0.69069 0.71394 0.15798 0.0
C693 C 0.71417 0.69934 0.15009 0.0
H694 H 0.27285 0.66136 0.39283 0.0
H695 H 0.3237 0.77106 0.36084 0.0
H696 H 0.29066 0.83406 0.35557 0.0
H697 H 0.21953 0.6978 0.35458 0.0
H698 H 0.19793 0.69075 0.37851 0.0
H699 H 0.22512 0.65129 0.37788 0.0
H700 H 0.23657 0.68424 0.41994 0.0
H701 H 0.20958 0.72419 0.42054 0.0
H702 H 0.23926 0.7533 0.42528 0.0
H703 H 0.25395 0.88885 0.35694 0.0
H704 H 0.21367 0.93024 0.36215 0.0
H705 H 0.18547 0.78659 0.39254 0.0
C706 C 0.27678 0.69811 0.38421 0.0
C707 C 0.30087 0.71135 0.37741 0.0
C708 C 0.30543 0.76018 0.36646 0.0
C709 C 0.28678 0.79635 0.36328 0.0
C710 C 0.26346 0.78318 0.37092 0.0
C711 C 0.25817 0.73514 0.38085 0.0
C712 C 0.23151 0.73246 0.38826 0.0
C713 C 0.2177 0.69059 0.37395 0.0
C714 C 0.22911 0.723 0.4151 0.0
C715 C 0.22311 0.78682 0.38155 0.0
C716 C 0.24186 0.81521 0.37147 0.0
C717 C 0.23895 0.86692 0.36454 0.0
C718 C 0.21606 0.8902 0.36769 0.0
C719 C 0.19642 0.86175 0.37768 0.0
C720 C 0.2001 0.80939 0.38474 0.0
H721 H 0.79997 0.25026 0.34968 0.0
H722 H 0.78072 0.13946 0.40468 0.0
H723 H 0.74467 0.19241 0.41499 0.0
H724 H 0.7804 0.36724 0.37918 0.0
H725 H 0.76738 0.3968 0.35309 0.0
H726 H 0.79247 0.35187 0.35028 0.0
H727 H 0.76694 0.29442 0.32154 0.0
H728 H 0.74203 0.3398 0.32385 0.0
H729 H 0.73707 0.27193 0.33052 0.0
H730 H 0.71299 0.25834 0.42116 0.0
H731 H 0.68 0.32191 0.41673 0.0
H732 H 0.71597 0.38743 0.3549 0.0
C733 C 0.7879 0.237 0.36367 0.0
C734 C 0.79295 0.19079 0.37641 0.0
C735 C 0.77691 0.17434 0.39456 0.0
C736 C 0.75665 0.20456 0.40075 0.0
C737 C 0.75249 0.25055 0.3883 0.0
C738 C 0.7671 0.26599 0.36963 0.0
C739 C 0.75713 0.31503 0.35803 0.0
C740 C 0.77544 0.36041 0.36028 0.0
C741 C 0.75039 0.30466 0.33194 0.0
C742 C 0.73451 0.32443 0.37308 0.0
C743 C 0.73284 0.28742 0.39085 0.0
C744 C 0.71389 0.28712 0.40718 0.0
C745 C 0.69529 0.32358 0.40452 0.0
C746 C 0.69532 0.35923 0.38533 0.0
C747 C 0.71565 0.36104 0.36986 0.0
H748 H 0.68819 0.76262 0.88787 0.0
H749 H 0.71819 0.61833 0.86026 0.0
H750 H 0.75741 0.66298 0.85262 0.0
H751 H 0.71933 0.85082 0.84726 0.0
H752 H 0.72484 0.89993 0.86955 0.0
H753 H 0.69848 0.8578 0.87181 0.0
H754 H 0.71212 0.82938 0.91385 0.0
H755 H 0.73836 0.87173 0.91182 0.0
H756 H 0.74242 0.80349 0.91812 0.0
H757 H 0.79308 0.72093 0.84879 0.0
H758 H 0.82536 0.78724 0.85235 0.0
H759 H 0.77349 0.89557 0.8831 0.0
C760 C 0.70298 0.74048 0.8801 0.0
C761 C 0.70011 0.68694 0.87456 0.0
C762 C 0.71998 0.65922 0.86471 0.0
C763 C 0.74226 0.68436 0.86014 0.0
C764 C 0.74439 0.73714 0.86561 0.0
C765 C 0.72546 0.76488 0.87561 0.0
C766 C 0.73321 0.82058 0.88105 0.0
C767 C 0.71806 0.85958 0.86655 0.0
C768 C 0.73142 0.83194 0.9078 0.0
C769 C 0.75963 0.81954 0.8728 0.0
C770 C 0.76542 0.77103 0.86368 0.0
C771 C 0.78877 0.75909 0.85577 0.0
C772 C 0.80696 0.79708 0.85788 0.0
C773 C 0.80184 0.84649 0.86792 0.0
C774 C 0.77772 0.85846 0.87497 0.0
H775 H 0.27822 0.39015 0.86172 0.0
H776 H 0.31449 0.31733 0.92168 0.0
H777 H 0.28198 0.25175 0.92395 0.0
H778 H 0.21457 0.36539 0.88567 0.0
H779 H 0.20207 0.35422 0.85649 0.0
H780 H 0.22744 0.3985 0.86039 0.0
H781 H 0.25213 0.34591 0.82939 0.0
H782 H 0.22711 0.30067 0.82588 0.0
H783 H 0.25701 0.27724 0.834 0.0
H784 H 0.25003 0.18628 0.91631 0.0
H785 H 0.21296 0.13595 0.90575 0.0
H786 H 0.19371 0.25349 0.85381 0.0
C787 C 0.27879 0.36148 0.87577 0.0
C788 C 0.29912 0.35843 0.89126 0.0
C789 C 0.29932 0.31999 0.90934 0.0
C790 C 0.28097 0.28232 0.91079 0.0
C791 C 0.26202 0.28416 0.89445 0.0
C792 C 0.2601 0.3237 0.87788 0.0
C793 C 0.23726 0.31606 0.86283 0.0
C794 C 0.21927 0.36122 0.86657 0.0
C795 C 0.24378 0.30959 0.83646 0.0
C796 C 0.22735 0.26552 0.87318 0.0
C797 C 0.24225 0.24752 0.89112 0.0
C798 C 0.23787 0.20032 0.90259 0.0
C799 C 0.21701 0.17163 0.89627 0.0
C800 C 0.20062 0.19083 0.87901 0.0
C801 C 0.20603 0.23803 0.8671 0.0
H802 H 0.72066 0.38833 0.65571 0.0
H803 H 0.67588 0.29974 0.60607 0.0
H804 H 0.7073 0.23267 0.60368 0.0
H805 H 0.77937 0.35613 0.62573 0.0
H806 H 0.79606 0.35248 0.65328 0.0
H807 H 0.77021 0.39545 0.65069 0.0
H808 H 0.75045 0.35105 0.68725 0.0
H809 H 0.77597 0.30718 0.68959 0.0
H810 H 0.74532 0.28163 0.68694 0.0
H811 H 0.74069 0.17053 0.60936 0.0
H812 H 0.77962 0.12445 0.61646 0.0
H813 H 0.80504 0.25399 0.65965 0.0
C814 C 0.71782 0.35543 0.64397 0.0
C815 C 0.6956 0.34885 0.63152 0.0
C816 C 0.69251 0.30518 0.61627 0.0
C817 C 0.71024 0.26665 0.61473 0.0
C818 C 0.73133 0.27266 0.6281 0.0
C819 C 0.7357 0.31648 0.64185 0.0
C820 C 0.76047 0.31291 0.65386 0.0
C821 C 0.77754 0.35684 0.64537 0.0
C822 C 0.75788 0.3132 0.68102 0.0
C823 C 0.76886 0.26014 0.6449 0.0
C824 C 0.75154 0.23737 0.63038 0.0
C825 C 0.75464 0.18804 0.62048 0.0
C826 C 0.77661 0.16193 0.62479 0.0
C827 C 0.79516 0.18579 0.63852 0.0
C828 C 0.79107 0.23506 0.64902 0.0
H829 H 0.22065 0.89086 0.65007 0.0
H830 H 0.16744 0.76489 0.65427 0.0
H831 H 0.20028 0.70231 0.66105 0.0
H832 H 0.2648 0.81996 0.61804 0.0
H833 H 0.29102 0.84748 0.633 0.0
H834 H 0.26317 0.88432 0.63078 0.0
H835 H 0.26231 0.89471 0.67653 0.0
H836 H 0.29019 0.85777 0.67883 0.0
H837 H 0.26339 0.83755 0.69504 0.0
H838 H 0.23821 0.65161 0.66442 0.0
H839 H 0.28006 0.6159 0.66345 0.0
H840 H 0.30923 0.77306 0.65717 0.0
C841 C 0.216 0.85027 0.65278 0.0
C842 C 0.19151 0.83292 0.6515 0.0
C843 C 0.18609 0.77928 0.65489 0.0
C844 C 0.2046 0.74322 0.65896 0.0
C845 C 0.22854 0.76116 0.65971 0.0
C846 C 0.23441 0.81328 0.65675 0.0
C847 C 0.26189 0.82109 0.65686 0.0
C848 C 0.27073 0.84458 0.63326 0.0
C849 C 0.26991 0.85478 0.67808 0.0
C850 C 0.27028 0.7652 0.6597 0.0
C851 C 0.25073 0.7314 0.6616 0.0
C852 C 0.25379 0.67763 0.66323 0.0
C853 C 0.27759 0.65769 0.66263 0.0
C854 C 0.29791 0.69155 0.6603 0.0
C855 C 0.29411 0.74603 0.65916 0.0
H856 H 0.08529 0.96792 0.30525 0.0
H857 H 0.1629 0.96317 0.32111 0.0
H858 H 0.17187 1.00594 0.28288 0.0
H859 H 0.08949 0.94627 0.2419 0.0
H860 H 0.06572 0.99181 0.23434 0.0
H861 H 0.06517 0.95927 0.26264 0.0
H862 H 0.06372 0.04842 0.28409 0.0
H863 H 0.06418 0.0812 0.25585 0.0
H864 H 0.08697 0.09652 0.27796 0.0
H865 H 0.17279 0.04541 0.24189 0.0
H866 H 0.1654 0.08771 0.2032 0.0
H867 H 0.08713 0.0751 0.21442 0.0
C868 C 0.10415 0.97584 0.3006 0.0
C869 C 0.12343 0.96161 0.31617 0.0
C870 C 0.14783 0.97342 0.30955 0.0
C871 C 0.15312 0.99764 0.28778 0.0
C872 C 0.13381 1.01092 0.27277 0.0
C873 C 0.10976 1.00123 0.27901 0.0
C874 C 0.09246 1.02172 0.25996 0.0
C875 C 0.07731 0.9771 0.24907 0.0
C876 C 0.07585 0.06451 0.27007 0.0
C877 C 0.11054 0.04396 0.24202 0.0
C878 C 0.1343 0.03658 0.24968 0.0
C879 C 0.15425 0.05188 0.23587 0.0
C880 C 0.14987 0.0758 0.21384 0.0
C881 C 0.12573 0.08528 0.2058 0.0
C882 C 0.10581 0.06897 0.22018 0.0
H883 H 0.87304 0.13206 0.28579 0.0
H884 H 0.86741 1.00256 0.33458 0.0
H885 H 0.86715 0.94096 0.3008 0.0
H886 H 0.83332 0.07577 0.23961 0.0
H887 H 0.85121 0.10151 0.21547 0.0
H888 H 0.85023 0.13566 0.24339 0.0
H889 H 0.89745 0.13305 0.24601 0.0
H890 H 0.89863 0.09905 0.21808 0.0
H891 H 0.91295 0.07135 0.24395 0.0
H892 H 0.87069 0.89285 0.26154 0.0
H893 H 0.87478 0.8624 0.22 0.0
H894 H 0.87623 1.02232 0.19584 0.0
C895 C 0.87144 0.09072 0.28927 0.0
C896 C 0.86952 0.07211 0.31289 0.0
C897 C 0.86785 1.01779 0.31673 0.0
C898 C 0.86804 0.98247 0.29758 0.0
C899 C 0.86978 1.00195 0.2745 0.0
C900 C 0.8712 0.05489 0.27023 0.0
C901 C 0.87291 0.06551 0.24367 0.0
C902 C 0.85059 0.09645 0.23503 0.0
C903 C 0.89692 0.09392 0.23758 0.0
C904 C 0.87267 1.01033 0.23372 0.0
C905 C 0.871 0.97427 0.25186 0.0
C906 C 0.87165 0.92083 0.24723 0.0
C907 C 0.87401 0.90383 0.22358 0.0
C908 C 0.87533 0.9399 0.20464 0.0
C909 C 0.87459 0.99387 0.20987 0.0
H910 H 0.9083 0.09029 0.713 0.0
H911 H 0.83061 0.088 0.69734 0.0
H912 H 0.82269 0.04303 0.7353 0.0
H913 H 0.90931 0.9605 0.73911 0.0
H914 H 0.93193 0.97688 0.76123 0.0
H915 H 0.93157 1.01088 0.73329 0.0
H916 H 0.9285 0.09888 0.75554 0.0
H917 H 0.92878 0.06512 0.78354 0.0
H918 H 0.90409 0.10881 0.77652 0.0
H919 H 0.82279 1.00237 0.77609 0.0
H920 H 0.83127 0.95945 0.81444 0.0
H921 H 0.90915 0.9793 0.80286 0.0
C922 C 0.88964 0.08045 0.71766 0.0
C923 C 0.87001 0.09334 0.70225 0.0
C924 C 0.84592 0.07887 0.70882 0.0
C925 C 0.84123 0.05338 0.73042 0.0
C926 C 0.86087 0.04145 0.74527 0.0
C927 C 0.88466 0.05367 0.73903 0.0
C928 C 0.90247 0.03395 0.7578 0.0
C929 C 0.91985 0.99313 0.74722 0.0
C930 C 0.91681 0.07941 0.76901 0.0
C931 C 0.88497 1.00935 0.77564 0.0
C932 C 0.86103 1.01486 0.76815 0.0
C933 C 0.84149 0.99731 0.78196 0.0
C934 C 0.84648 0.97305 0.80379 0.0
C935 C 0.87084 0.96541 0.81161 0.0
C936 C 0.89033 0.98395 0.79725 0.0
H937 H 0.08673 0.08882 0.80411 0.0
H938 H 0.16478 0.09482 0.8178 0.0
H939 H 0.17247 0.04703 0.78055 0.0
H940 H 0.08717 0.95685 0.78045 0.0
H941 H 0.06383 0.96886 0.75851 0.0
H942 H 0.06424 1.00578 0.78573 0.0
H943 H 0.06544 0.09159 0.7617 0.0
H944 H 0.06506 0.05494 0.73441 0.0
H945 H 0.0892 0.10142 0.73999 0.0
H946 H 0.17212 1.00166 0.74094 0.0
H947 H 0.16356 0.95394 0.70373 0.0
H948 H 0.08565 0.96921 0.71625 0.0
C949 C 0.10541 0.08032 0.79912 0.0
C950 C 0.12521 0.09624 0.81381 0.0
C951 C 0.14935 0.08339 0.80686 0.0
C952 C 0.15391 0.05626 0.78566 0.0
C953 C 0.13412 0.04114 0.77156 0.0
C954 C 0.11031 0.05198 0.77811 0.0
C955 C 0.09241 0.02879 0.76014 0.0
C956 C 0.07594 0.98762 0.77191 0.0
C957 C 0.07712 0.07175 0.74837 0.0
C958 C 0.1099 1.00387 0.74242 0.0
C959 C 0.13388 1.01212 0.74929 0.0
C960 C 0.1534 0.99455 0.73553 0.0
C961 C 0.14835 0.96752 0.71435 0.0
C962 C 0.12398 0.95731 0.7071 0.0
C963 C 0.1045 0.97586 0.72142 0.0
H964 H 0.64774 0.46747 0.30215 0.0
H965 H 0.5708 0.47589 0.32055 0.0
H966 H 0.56289 0.52811 0.28484 0.0
H967 H 0.65275 0.59909 0.27605 0.0
H968 H 0.67259 0.57918 0.25222 0.0
H969 H 0.67311 0.54474 0.28006 0.0
H970 H 0.66435 0.45822 0.25795 0.0
H971 H 0.66366 0.49246 0.23006 0.0
H972 H 0.63786 0.45322 0.23896 0.0
H973 H 0.56215 0.57603 0.24714 0.0
H974 H 0.56859 0.62011 0.2091 0.0
H975 H 0.64589 0.58204 0.21183 0.0
C976 C 0.62936 0.48118 0.29878 0.0
C977 C 0.60986 0.46779 0.31439 0.0
C978 C 0.586 0.48557 0.30903 0.0
C979 C 0.58131 0.51532 0.28871 0.0
C980 C 0.6006 0.52693 0.27345 0.0
C981 C 0.62419 0.51067 0.27807 0.0
C982 C 0.64115 0.52762 0.25787 0.0
C983 C 0.66109 0.56488 0.2671 0.0
C984 C 0.65243 0.48004 0.24548 0.0
C985 C 0.62334 0.55581 0.24136 0.0
C986 C 0.60009 0.55467 0.25097 0.0
C987 C 0.58029 0.57738 0.23949 0.0
C988 C 0.58419 0.60246 0.21777 0.0
C989 C 0.60773 0.60501 0.2073 0.0
C990 C 0.62764 0.58082 0.21926 0.0
H991 H 0.40834 0.58438 0.31367 0.0
H992 H 0.33077 0.60013 0.32779 0.0
H993 H 0.32131 0.56001 0.28894 0.0
H994 H 0.4064 0.60865 0.25047 0.0
H995 H 0.4288 0.55992 0.24311 0.0
H996 H 0.4297 0.59139 0.27169 0.0
H997 H 0.42771 0.50155 0.29239 0.0
H998 H 0.42688 0.46981 0.26387 0.0
H999 H 0.4031 0.45721 0.28526 0.0
H1000 H 0.32013 0.52205 0.24737 0.0
H1001 H 0.32718 0.47987 0.20851 0.0
H1002 H 0.4053 0.48056 0.22198 0.0
C1003 C 0.38938 0.57942 0.30852 0.0
C1004 C 0.37027 0.59598 0.32379 0.0
C1005 C 0.34572 0.58801 0.31649 0.0
C1006 C 0.34016 0.56534 0.29436 0.0
C1007 C 0.35933 0.54973 0.27966 0.0
C1008 C 0.38347 0.55563 0.28658 0.0
C1009 C 0.40052 0.53323 0.26779 0.0
C1010 C 0.41735 0.57584 0.25767 0.0
C1011 C 0.41543 0.48775 0.27793 0.0
C1012 C 0.38224 0.51428 0.24919 0.0
C1013 C 0.35858 0.52493 0.2563 0.0
C1014 C 0.33858 0.51303 0.2418 0.0
C1015 C 0.34276 0.48915 0.21967 0.0
C1016 C 0.36673 0.47631 0.21222 0.0
C1017 C 0.38672 0.48926 0.22727 0.0
H1018 H 0.34737 0.46356 0.80842 0.0
H1019 H 0.42284 0.48508 0.83036 0.0
H1020 H 0.43065 0.53827 0.79481 0.0
H1021 H 0.36097 0.44983 0.74586 0.0
H1022 H 0.33426 0.48391 0.73552 0.0
H1023 H 0.33349 0.45008 0.76351 0.0
H1024 H 0.32044 0.53488 0.7848 0.0
H1025 H 0.32098 0.56892 0.75685 0.0
H1026 H 0.33883 0.59286 0.78151 0.0
H1027 H 0.43122 0.58717 0.75691 0.0
H1028 H 0.42468 0.62977 0.71842 0.0
H1029 H 0.34926 0.57617 0.71789 0.0
C1030 C 0.36538 0.48029 0.80586 0.0
C1031 C 0.38449 0.47048 0.82243 0.0
C1032 C 0.40793 0.49206 0.81808 0.0
C1033 C 0.41255 0.52239 0.79787 0.0
C1034 C 0.39365 0.53058 0.78168 0.0
C1035 C 0.37051 0.5102 0.78527 0.0
C1036 C 0.35396 0.52361 0.76422 0.0
C1037 C 0.34515 0.47389 0.75154 0.0
C1038 C 0.33226 0.55706 0.77233 0.0
C1039 C 0.37141 0.55484 0.74847 0.0
C1040 C 0.39416 0.55823 0.75911 0.0
C1041 C 0.41347 0.58482 0.74844 0.0
C1042 C 0.40953 0.609 0.72646 0.0
C1043 C 0.38649 0.60664 0.71493 0.0
C1044 C 0.36714 0.57869 0.72612 0.0
H1045 H 0.58951 0.57815 0.80561 0.0
H1046 H 0.66704 0.58139 0.82182 0.0
H1047 H 0.67591 0.54058 0.783 0.0
H1048 H 0.59045 0.45127 0.77682 0.0
H1049 H 0.56771 0.46813 0.75498 0.0
H1050 H 0.56753 0.49932 0.78363 0.0
H1051 H 0.56953 0.58959 0.76332 0.0
H1052 H 0.56982 0.55866 0.73461 0.0
H1053 H 0.5939 0.60347 0.74273 0.0
H1054 H 0.67651 0.50272 0.74101 0.0
H1055 H 0.66843 0.46195 0.70187 0.0
H1056 H 0.59043 0.476 0.71391 0.0
C1057 C 0.60835 0.57033 0.80093 0.0
C1058 C 0.62762 0.58354 0.81677 0.0
C1059 C 0.65198 0.57187 0.81007 0.0
C1060 C 0.6572 0.54879 0.78795 0.0
C1061 C 0.63786 0.53655 0.77268 0.0
C1062 C 0.61387 0.54616 0.77905 0.0
C1063 C 0.59641 0.52699 0.75979 0.0
C1064 C 0.57953 0.48386 0.76938 0.0
C1065 C 0.58154 0.57239 0.74951 0.0
C1066 C 0.61429 0.50555 0.74155 0.0
C1067 C 0.63814 0.51212 0.74919 0.0
C1068 C 0.65787 0.49696 0.73503 0.0
C1069 C 0.65312 0.47393 0.71275 0.0
C1070 C 0.62884 0.46527 0.70483 0.0
C1071 C 0.60922 0.48159 0.71952 0.0
H1072 H 0.1632 0.07596 0.95937 0.0
H1073 H 0.09945 0.16902 0.94332 0.0
H1074 H 0.09439 0.18788 0.98647 0.0
H1075 H 0.14189 1.01778 1.0112 0.0
H1076 H 0.17096 1.01956 0.02632 0.0
H1077 H 0.16996 1.01708 0.99444 0.0
H1078 H 0.19638 0.10096 0.99211 0.0
H1079 H 0.19766 0.10348 0.02403 0.0
H1080 H 0.18661 0.15875 1.00757 0.0
H1081 H 0.09472 0.18751 0.03347 0.0
H1082 H 0.10239 0.17456 0.07664 0.0
H1083 H 0.16751 0.08638 0.05974 0.0
C1084 C 0.14837 0.1011 0.96485 0.0
C1085 C 0.13175 0.12115 0.94798 0.0
C1086 C 0.11258 0.15375 0.9559 0.0
C1087 C 0.10952 0.16432 0.98042 0.0
C1088 C 0.12608 0.14281 0.99671 0.0
C1089 C 0.14541 0.11268 0.98898 0.0
C1090 C 0.16074 0.09333 1.00953 0.0
C1091 C 0.16088 0.0334 1.01042 0.0
C1092 C 0.18689 0.11546 1.00823 0.0
C1093 C 0.14685 0.11606 0.03029 0.0
C1094 C 0.12681 0.14437 0.0228 0.0
C1095 C 0.11063 0.16608 0.03932 0.0
C1096 C 0.11509 0.15855 0.06385 0.0
C1097 C 0.13568 0.12991 0.07172 0.0
C1098 C 0.15175 0.10909 0.05451 0.0
H1099 H 0.82559 0.93929 0.9566 0.0
H1100 H 0.8991 0.88738 0.94063 0.0
H1101 H 0.90652 0.87301 0.98367 0.0
H1102 H 0.84064 1.01085 1.00787 0.0
H1103 H 0.81294 0.99459 0.02357 0.0
H1104 H 0.81303 0.99586 0.99166 0.0
H1105 H 0.79705 0.90076 0.99059 0.0
H1106 H 0.79688 0.8992 0.02255 0.0
H1107 H 0.81363 0.85075 1.00615 0.0
H1108 H 0.90619 0.8697 0.02976 0.0
H1109 H 0.89858 0.87935 0.07292 0.0
H1110 H 0.82542 0.93488 0.05791 0.0
C1111 C 0.84318 0.92414 0.96205 0.0
C1112 C 0.86175 0.91423 0.94512 0.0
C1113 C 0.88454 0.89494 0.95317 0.0
C1114 C 0.88889 0.88674 0.97763 0.0
C1115 C 0.87026 0.89788 0.99388 0.0
C1116 C 0.84781 0.91605 0.98628 0.0
C1117 C 0.83113 0.92775 1.00711 0.0
C1118 C 0.82403 0.98569 1.00757 0.0
C1119 C 0.80832 0.8925 1.00656 0.0
C1120 C 0.84769 0.91414 0.02778 0.0
C1121 C 0.87014 0.89651 0.0199 0.0
C1122 C 0.88859 0.88314 0.03598 0.0
C1123 C 0.88409 0.88864 0.06053 0.0
C1124 C 0.86137 0.90771 0.06892 0.0
C1125 C 0.84292 0.91985 0.05217 0.0
H1126 H 0.1669 0.92708 0.46159 0.0
H1127 H 0.09131 0.88793 0.4464 0.0
H1128 H 0.08374 0.8758 0.48955 0.0
H1129 H 0.17521 0.83672 0.51162 0.0
H1130 H 0.19445 0.8821 0.52751 0.0
H1131 H 0.19393 0.88258 0.49555 0.0
H1132 H 0.1827 0.98052 0.49608 0.0
H1133 H 0.18307 0.98031 0.52798 0.0
H1134 H 0.15612 1.00157 0.51233 0.0
H1135 H 0.08423 0.8759 0.53597 0.0
H1136 H 0.09291 0.88665 0.57904 0.0
H1137 H 0.16828 0.92477 0.56257 0.0
C1138 C 0.14882 0.915 0.46726 0.0
C1139 C 0.12972 0.90827 0.45054 0.0
C1140 C 0.1063 0.89287 0.4588 0.0
C1141 C 0.10185 0.88607 0.48333 0.0
C1142 C 0.12105 0.89431 0.49942 0.0
C1143 C 0.14415 0.90795 0.49154 0.0
C1144 C 0.16155 0.91693 0.51213 0.0
C1145 C 0.18252 0.87721 0.51167 0.0
C1146 C 0.17143 0.97316 0.51212 0.0
C1147 C 0.14465 0.9074 0.53299 0.0
C1148 C 0.12135 0.89406 0.52548 0.0
C1149 C 0.10252 0.88577 0.54189 0.0
C1150 C 0.10759 0.89186 0.56637 0.0
C1151 C 0.13129 0.90632 0.5743 0.0
C1152 C 0.14999 0.91331 0.55722 0.0
H1153 H 0.82566 0.12317 0.55726 0.0
H1154 H 0.90156 0.16103 0.57159 0.0
H1155 H 0.90871 0.17263 0.52836 0.0
H1156 H 0.83561 0.04807 0.50651 0.0
H1157 H 0.80856 0.06967 0.49112 0.0
H1158 H 0.8093 0.06971 0.52302 0.0
H1159 H 0.79843 0.16783 0.52346 0.0
H1160 H 0.79759 0.16807 0.4915 0.0
H1161 H 0.81715 0.21325 0.50713 0.0
H1162 H 0.90774 0.17199 0.4819 0.0
H1163 H 0.89865 0.16017 0.43896 0.0
H1164 H 0.82326 0.12415 0.4563 0.0
C1165 C 0.84372 0.13486 0.55139 0.0
C1166 C 0.86303 0.14137 0.56792 0.0
C1167 C 0.88641 0.15622 0.55937 0.0
C1168 C 0.89063 0.16275 0.53477 0.0
C1169 C 0.87122 0.1548 0.51889 0.0
C1170 C 0.84816 0.14164 0.52704 0.0
C1171 C 0.83051 0.13281 0.50663 0.0
C1172 C 0.82042 0.07674 0.50684 0.0
C1173 C 0.80969 0.17288 0.50722 0.0
C1174 C 0.84722 0.14186 0.48558 0.0
C1175 C 0.87065 0.15485 0.49282 0.0
C1176 C 0.88935 0.16245 0.47619 0.0
C1177 C 0.88404 0.15582 0.45177 0.0
C1178 C 0.86021 0.14153 0.44413 0.0
C1179 C 0.84163 0.1355 0.46142 0.0
H1180 H 0.66889 0.61642 0.06479 0.0
H1181 H 0.59452 0.66638 0.07811 0.0
H1182 H 0.58753 0.67411 0.03474 0.0
H1183 H 0.68025 0.69949 0.01299 0.0
H1184 H 0.69796 0.65035 0.99803 0.0
H1185 H 0.69735 0.65259 0.02998 0.0
H1186 H 0.68281 0.55648 0.03107 0.0
H1187 H 0.68333 0.55398 0.99917 0.0
H1188 H 0.65567 0.5377 0.01492 0.0
H1189 H 0.58826 0.6709 0.98869 0.0
H1190 H 0.59669 0.65694 0.94585 0.0
H1191 H 0.67055 0.60936 0.96324 0.0
C1192 C 0.65122 0.62977 0.05864 0.0
C1193 C 0.63228 0.64102 0.075 0.0
C1194 C 0.60937 0.65779 0.06603 0.0
C1195 C 0.60524 0.66223 0.04136 0.0
C1196 C 0.62421 0.64997 0.0257 0.0
C1197 C 0.6468 0.63431 0.0341 0.0
C1198 C 0.66393 0.62134 0.01374 0.0
C1199 C 0.68619 0.65814 0.01369 0.0
C1200 C 0.67189 0.56398 0.0148 0.0
C1201 C 0.64744 0.63134 0.99252 0.0
C1202 C 0.62461 0.64814 0.99967 0.0
C1203 C 0.60618 0.65814 0.98302 0.0
C1204 C 0.61112 0.65022 0.95866 0.0
C1205 C 0.6343 0.63227 0.95103 0.0
C1206 C 0.65267 0.62345 0.96835 0.0
H1207 H 0.33037 0.47831 0.96464 0.0
H1208 H 0.39418 0.38429 0.95009 0.0
H1209 H 0.39887 0.36758 0.99345 0.0
H1210 H 0.3514 0.53897 0.01626 0.0
H1211 H 0.32223 0.53807 0.03112 0.0
H1212 H 0.32344 0.53902 0.99924 0.0
H1213 H 0.29693 0.45523 0.99739 0.0
H1214 H 0.29544 0.45423 0.02931 0.0
H1215 H 0.30653 0.39813 0.01342 0.0
H1216 H 0.39819 0.3701 0.04035 0.0
H1217 H 0.39027 0.38485 0.08333 0.0
H1218 H 0.32537 0.47271 0.0653 0.0
C1219 C 0.34513 0.45339 0.97049 0.0
C1220 C 0.36188 0.43245 0.95394 0.0
C1221 C 0.38096 0.40023 0.96239 0.0
C1222 C 0.38381 0.39088 0.98703 0.0
C1223 C 0.36715 0.41325 1.00297 0.0
C1224 C 0.3479 0.44306 0.99478 0.0
C1225 C 0.33246 0.46347 0.01506 0.0
C1226 C 0.33239 0.52342 0.01543 0.0
C1227 C 0.30629 0.44143 0.01371 0.0
C1228 C 0.34617 0.44167 0.03618 0.0
C1229 C 0.36623 0.41294 0.02908 0.0
C1230 C 0.38228 0.39186 0.0459 0.0
C1231 C 0.37767 0.40043 0.07033 0.0
C1232 C 0.35706 0.42944 0.07785 0.0
C1233 C 0.34112 0.44968 0.06034 0.0
H1234 H 0.66293 0.46506 0.45736 0.0
H1235 H 0.59591 0.38165 0.44155 0.0
H1236 H 0.58983 0.36549 0.48478 0.0
H1237 H 0.68268 0.38128 0.50677 0.0
H1238 H 0.69564 0.43571 0.52271 0.0
H1239 H 0.69481 0.43633 0.49076 0.0
H1240 H 0.6717 0.52425 0.49183 0.0
H1241 H 0.6722 0.52363 0.52373 0.0
H1242 H 0.64348 0.52898 0.50819 0.0
H1243 H 0.58976 0.36834 0.532 0.0
H1244 H 0.59762 0.38269 0.57514 0.0
H1245 H 0.66594 0.45964 0.55769 0.0
C1246 C 0.64721 0.44236 0.46292 0.0
C1247 C 0.62998 0.4243 0.44607 0.0
C1248 C 0.60956 0.39514 0.4541 0.0
C1249 C 0.60591 0.38619 0.47868 0.0
C1250 C 0.62309 0.40585 0.49496 0.0
C1251 C 0.64361 0.43243 0.48712 0.0
C1252 C 0.65938 0.45063 0.50764 0.0
C1253 C 0.68462 0.42441 0.50692 0.0
C1254 C 0.66182 0.5104 0.50785 0.0
C1255 C 0.64443 0.43146 0.52847 0.0
C1256 C 0.62345 0.40583 0.5211 0.0
C1257 C 0.60637 0.38769 0.53775 0.0
C1258 C 0.61092 0.39602 0.56227 0.0
C1259 C 0.63246 0.42199 0.56997 0.0
C1260 C 0.64936 0.4392 0.55262 0.0
H1261 H 0.32589 0.61721 0.57084 0.0
H1262 H 0.39841 0.67842 0.58532 0.0
H1263 H 0.4055 0.68878 0.54216 0.0
H1264 H 0.34153 0.54328 0.52025 0.0
H1265 H 0.31361 0.55644 0.50433 0.0
H1266 H 0.3138 0.55738 0.53626 0.0
H1267 H 0.29669 0.65131 0.53599 0.0
H1268 H 0.29638 0.65059 0.50402 0.0
H1269 H 0.3126 0.70136 0.51968 0.0
H1270 H 0.40554 0.68611 0.49616 0.0
H1271 H 0.39787 0.67297 0.45308 0.0
H1272 H 0.32504 0.61577 0.46915 0.0
C1273 C 0.34314 0.63356 0.56497 0.0
C1274 C 0.36157 0.6471 0.58163 0.0
C1275 C 0.38394 0.66795 0.57305 0.0
C1276 C 0.38815 0.67389 0.54848 0.0
C1277 C 0.36976 0.65925 0.53251 0.0
C1278 C 0.34759 0.63995 0.54052 0.0
C1279 C 0.33102 0.62564 0.51982 0.0
C1280 C 0.32462 0.56722 0.5202 0.0
C1281 C 0.3078 0.65923 0.51989 0.0
C1282 C 0.34737 0.63901 0.4989 0.0
C1283 C 0.36966 0.65846 0.50647 0.0
C1284 C 0.38801 0.67141 0.49015 0.0
C1285 C 0.38351 0.6639 0.46566 0.0
C1286 C 0.36082 0.64369 0.45756 0.0
C1287 C 0.34253 0.63178 0.47459 0.0
H1288 H 0.93953 0.04212 0.14347 0.0
H1289 H 0.94923 0.89517 0.10622 0.0
H1290 H 0.99304 0.91246 0.10268 0.0
H1291 H 0.98569 0.1147 0.10839 0.0
H1292 H 0.99624 0.15173 0.13363 0.0
H1293 H 0.9649 0.12982 0.13221 0.0
H1294 H 0.97008 0.08415 0.17286 0.0
H1295 H 0.00147 0.10549 0.1743 0.0
H1296 H 0.99419 0.03717 0.17672 0.0
H1297 H 0.03591 0.93942 0.10642 0.0
H1298 H 0.076 0.98106 0.11366 0.0
H1299 H 0.03964 0.11296 0.14634 0.0
C1300 C 0.95084 1.01415 0.13424 0.0
C1301 C 0.94089 0.96718 0.12533 0.0
C1302 C 0.95633 0.93131 0.11344 0.0
C1303 C 0.98134 0.94068 0.11125 0.0
C1304 C 0.99072 0.98641 0.12075 0.0
C1305 C 0.97605 1.02308 0.13167 0.0
C1306 C 0.99126 0.06853 0.14064 0.0
C1307 C 0.9841 0.1192 0.12796 0.0
C1308 C 0.98911 0.07413 0.16774 0.0
C1309 C 0.01663 0.05081 0.13343 0.0
C1310 C 0.01581 1.00318 0.12209 0.0
C1311 C 0.03687 0.97718 0.11493 0.0
C1312 C 0.05952 1.00089 0.11925 0.0
C1313 C 0.06079 0.05023 0.13033 0.0
C1314 C 0.03908 0.0755 0.13748 0.0
H1315 H 0.95404 0.11816 0.36979 0.0
H1316 H 0.91702 0.9822 0.39842 0.0
H1317 H 0.95693 0.94233 0.40736 0.0
H1318 H 0.00156 0.0463 0.34087 0.0
H1319 H 0.02507 0.09421 0.34647 0.0
H1320 H 0.99363 0.11407 0.34388 0.0
H1321 H 0.99637 0.15804 0.38522 0.0
H1322 H 0.02777 0.13775 0.38804 0.0
H1323 H 0.00582 0.12017 0.41051 0.0
H1324 H -0.00039 0.91739 0.41337 0.0
H1325 H 0.04364 0.90114 0.41095 0.0
H1326 H 0.05446 0.05037 0.37616 0.0
C1327 C 0.95444 0.08011 0.37805 0.0
C1328 C 0.93255 0.05323 0.3836 0.0
C1329 C 0.93362 1.00322 0.39399 0.0
C1330 C 0.95616 0.98054 0.39933 0.0
C1331 C 0.97739 1.00817 0.39387 0.0
C1332 C 0.97685 0.05636 0.38307 0.0
C1333 C 0.00253 0.07552 0.37745 0.0
C1334 C 0.00589 0.08294 0.35057 0.0
C1335 C 0.00846 0.12586 0.39113 0.0
C1336 C 0.01752 0.03021 0.38662 0.0
C1337 C 0.00249 0.99247 0.39641 0.0
C1338 C 0.01159 0.94644 0.40568 0.0
C1339 C 0.03666 0.93763 0.40414 0.0
C1340 C 0.05243 0.97431 0.39313 0.0
C1341 C 0.04285 1.02193 0.38482 0.0
H1342 H 0.05809 1.00358 0.87131 0.0
H1343 H 0.05215 0.13743 0.91817 0.0
H1344 H 0.00798 0.12256 0.92179 0.0
H1345 H 0.00353 1.02315 0.84019 0.0
H1346 H 0.99477 0.95553 0.83819 0.0
H1347 H 0.0266 0.97316 0.84052 0.0
H1348 H 0.03127 0.91482 0.87771 0.0
H1349 H -0.00046 0.89622 0.87524 0.0
H1350 H 0.01094 0.92388 0.90253 0.0
H1351 H 0.96402 0.10102 0.91655 0.0
H1352 H 0.92309 0.06404 0.90772 0.0
H1353 H 0.95705 0.9412 0.8665 0.0
C1354 C 0.04757 0.02879 0.88281 0.0
C1355 C 0.05856 0.07192 0.89423 0.0
C1356 C 0.04412 0.10446 0.90896 0.0
C1357 C 0.01896 0.09642 0.91118 0.0
C1358 C 0.00845 0.05517 0.89887 0.0
C1359 C 0.02226 1.02106 0.88542 0.0
C1360 C 0.00608 0.98035 0.87377 0.0
C1361 C 0.00786 0.98325 0.84656 0.0
C1362 C 0.01233 0.92557 0.88286 0.0
C1363 C 0.98115 0.99778 0.88242 0.0
C1364 C 0.98293 0.0413 0.89671 0.0
C1365 C 0.96233 0.06634 0.90573 0.0
C1366 C 0.9392 0.04545 0.90048 0.0
C1367 C 0.93705 0.99972 0.88666 0.0
C1368 C 0.95828 0.97589 0.87741 0.0
H1369 H 0.93728 0.99784 0.63442 0.0
H1370 H 0.95051 0.16492 0.63674 0.0
H1371 H 0.99458 0.15009 0.63834 0.0
H1372 H 0.98733 0.96278 0.67435 0.0
H1373 H 0.9953 0.90493 0.65799 0.0
H1374 H 0.96419 0.92788 0.65787 0.0
H1375 H 0.96479 0.93054 0.61191 0.0
H1376 H 0.99594 0.90793 0.61189 0.0
H1377 H 0.9882 0.96771 0.59698 0.0
H1378 H 0.03675 0.11965 0.63857 0.0
H1379 H 0.07598 0.07301 0.63845 0.0
H1380 H 0.03673 0.92536 0.63572 0.0
C1381 C 0.94952 0.03105 0.63544 0.0
C1382 C 0.94047 0.08239 0.6352 0.0
C1383 C 0.95699 0.1251 0.63652 0.0
C1384 C 0.98212 0.11726 0.63755 0.0
C1385 C 0.99055 0.06649 0.63727 0.0
C1386 C 0.97493 1.02397 0.63634 0.0
C1387 C 0.98925 0.97364 0.6358 0.0
C1388 C 0.98369 0.94035 0.65782 0.0
C1389 C 0.98425 0.94317 0.61277 0.0
C1390 C 0.01515 0.99497 0.63642 0.0
C1391 C 0.01537 0.04862 0.63732 0.0
C1392 C 0.03696 0.07753 0.63793 0.0
C1393 C 0.05913 0.0507 0.63781 0.0
C1394 C 0.05941 0.99563 0.63704 0.0
C1395 C 0.03711 0.96752 0.63623 0.0
H1396 H 0.43334 0.57117 0.12741 0.0
H1397 H 0.43869 0.42996 0.16923 0.0
H1398 H 0.48313 0.44239 0.17297 0.0
H1399 H 0.48663 0.55208 0.09452 0.0
H1400 H 0.4966 0.61908 0.09408 0.0
H1401 H 0.46455 0.60382 0.09684 0.0
H1402 H 0.46206 0.6577 0.13565 0.0
H1403 H 0.49402 0.67406 0.13276 0.0
H1404 H 0.48298 0.64398 0.15958 0.0
H1405 H 0.52655 0.46287 0.16854 0.0
H1406 H 0.56768 0.49737 0.16033 0.0
H1407 H 0.53553 0.62663 0.12166 0.0
C1408 C 0.4439 0.54405 0.13792 0.0
C1409 C 0.43283 0.4998 0.14815 0.0
C1410 C 0.44705 0.46414 0.16134 0.0
C1411 C 0.47225 0.47077 0.16354 0.0
C1412 C 0.48292 0.51339 0.15247 0.0
C1413 C 0.46933 0.55004 0.14026 0.0
C1414 C 0.4859 0.59083 0.12923 0.0
C1415 C 0.48325 0.59145 0.10206 0.0
C1416 C 0.48095 0.64485 0.13995 0.0
C1417 C 0.51075 0.57038 0.13671 0.0
C1418 C 0.50848 0.52567 0.15008 0.0
C1419 C 0.52867 0.4983 0.15836 0.0
C1420 C 0.55196 0.51798 0.15341 0.0
C1421 C 0.55483 0.5647 0.14039 0.0
C1422 C 0.53392 0.59087 0.13171 0.0
H1423 H 0.45615 0.61942 0.38107 0.0
H1424 H 0.42044 0.48526 0.4127 0.0
H1425 H 0.46078 0.44338 0.41816 0.0
H1426 H 0.49996 0.54546 0.34805 0.0
H1427 H 0.52419 0.59272 0.35144 0.0
H1428 H 0.49278 0.6135 0.35159 0.0
H1429 H 0.49967 0.6578 0.39242 0.0
H1430 H 0.53107 0.63661 0.39251 0.0
H1431 H 0.51121 0.61991 0.41687 0.0
H1432 H 0.50423 0.41738 0.4208 0.0
H1433 H 0.5479 0.40074 0.41501 0.0
H1434 H 0.5559 0.54914 0.37877 0.0
C1435 C 0.45691 0.58135 0.38929 0.0
C1436 C 0.43537 0.55557 0.39677 0.0
C1437 C 0.43683 0.50543 0.40693 0.0
C1438 C 0.45961 0.48167 0.41025 0.0
C1439 C 0.48056 0.5084 0.40295 0.0
C1440 C 0.47943 0.55664 0.39225 0.0
C1441 C 0.50455 0.57502 0.38434 0.0
C1442 C 0.50541 0.58206 0.35725 0.0
C1443 C 0.51206 0.62532 0.39732 0.0
C1444 C 0.52002 0.52939 0.39224 0.0
C1445 C 0.50575 0.49202 0.40331 0.0
C1446 C 0.51556 0.44611 0.41202 0.0
C1447 C 0.54046 0.43711 0.40857 0.0
C1448 C 0.55532 0.47342 0.39615 0.0
C1449 C 0.54506 0.52085 0.38841 0.0
H1450 H 0.43838 0.5509 0.87926 0.0
H1451 H 0.44442 0.4196 0.92738 0.0
H1452 H 0.48877 0.43357 0.93023 0.0
H1453 H 0.49145 0.52851 0.8475 0.0
H1454 H 0.50095 0.59551 0.84464 0.0
H1455 H 0.46902 0.57978 0.84804 0.0
H1456 H 0.46623 0.63997 0.88486 0.0
H1457 H 0.49805 0.65688 0.88127 0.0
H1458 H 0.48733 0.63112 0.90913 0.0
H1459 H 0.53261 0.45167 0.92301 0.0
H1460 H 0.57364 0.4855 0.91245 0.0
H1461 H 0.53994 0.60945 0.87186 0.0
C1462 C 0.44895 0.52638 0.89102 0.0
C1463 C 0.43799 0.48393 0.90292 0.0
C1464 C 0.45247 0.45206 0.91788 0.0
C1465 C 0.47771 0.45956 0.91963 0.0
C1466 C 0.48821 0.49977 0.90668 0.0
C1467 C 0.47433 0.53373 0.89324 0.0
C1468 C 0.49057 0.57304 0.88074 0.0
C1469 C 0.48783 0.56893 0.85363 0.0
C1470 C 0.48523 0.62854 0.88953 0.0
C1471 C 0.5156 0.55478 0.88882 0.0
C1472 C 0.51378 0.51205 0.90355 0.0
C1473 C 0.53435 0.48585 0.91192 0.0
C1474 C 0.55751 0.50487 0.90565 0.0
C1475 C 0.55975 0.55002 0.89154 0.0
C1476 C 0.53857 0.57509 0.88292 0.0
H1477 H 0.44099 0.51367 0.64965 0.0
H1478 H 0.45149 0.67001 0.62168 0.0
H1479 H 0.49516 0.65339 0.6168 0.0
H1480 H 0.49646 0.50845 0.68243 0.0
H1481 H 0.50281 0.44118 0.67575 0.0
H1482 H 0.47168 0.4638 0.67634 0.0
H1483 H 0.46508 0.43009 0.63342 0.0
H1484 H 0.49618 0.4071 0.63274 0.0
H1485 H 0.48548 0.45131 0.61022 0.0
H1486 H 0.53776 0.62396 0.61744 0.0
H1487 H 0.5774 0.57886 0.62074 0.0
H1488 H 0.53999 0.44051 0.64652 0.0
C1489 C 0.45246 0.54407 0.64228 0.0
C1490 C 0.44278 0.59305 0.63615 0.0
C1491 C 0.45839 0.63205 0.6266 0.0
C1492 C 0.48331 0.62315 0.62371 0.0
C1493 C 0.49238 0.57495 0.63024 0.0
C1494 C 0.47754 0.53574 0.63906 0.0
C1495 C 0.49233 0.48772 0.64485 0.0
C1496 C 0.49072 0.47454 0.67142 0.0
C1497 C 0.48429 0.44132 0.62938 0.0
C1498 C 0.51768 0.50667 0.63817 0.0
C1499 C 0.51724 0.55719 0.6299 0.0
C1500 C 0.53843 0.5841 0.62361 0.0
C1501 C 0.56081 0.55835 0.62564 0.0
C1502 C 0.56161 0.50626 0.63366 0.0
C1503 C 0.53979 0.48016 0.63999 0.0
H1504 H 0.14077 0.73008 0.16304 0.0
H1505 H 0.14106 0.75912 0.08716 0.0
H1506 H 0.13755 0.66477 0.07967 0.0
H1507 H 0.17561 0.61121 0.16147 0.0
H1508 H 0.15816 0.57985 0.18454 0.0
H1509 H 0.16104 0.64978 0.18412 0.0
H1510 H 0.11385 0.65855 0.18415 0.0
H1511 H 0.11084 0.58867 0.18468 0.0
H1512 H 0.09613 0.62572 0.16161 0.0
H1513 H 0.13397 0.56651 0.08023 0.0
H1514 H 0.12892 0.47291 0.08884 0.0
H1515 H 0.1304 0.50669 0.16433 0.0
C1516 C 0.13987 0.7168 0.14482 0.0
C1517 C 0.14138 0.75266 0.12571 0.0
C1518 C 0.14041 0.73292 0.10218 0.0
C1519 C 0.13828 0.67919 0.09771 0.0
C1520 C 0.13705 0.64511 0.11691 0.0
C1521 C 0.1377 0.66312 0.14001 0.0
C1522 C 0.13584 0.6181 0.15744 0.0
C1523 C 0.15904 0.61454 0.1728 0.0
C1524 C 0.11279 0.62307 0.17288 0.0
C1525 C 0.13386 0.57207 0.14053 0.0
C1526 C 0.13476 0.58853 0.11723 0.0
C1527 C 0.13332 0.55324 0.09843 0.0
C1528 C 0.13064 0.49991 0.10353 0.0
C1529 C 0.12932 0.48184 0.12728 0.0
C1530 C 0.13111 0.51886 0.14596 0.0
H1531 H 0.8785 0.30759 0.12152 0.0
H1532 H 0.8623 0.27551 0.19546 0.0
H1533 H 0.86423 0.36969 0.20426 0.0
H1534 H 0.92012 0.41672 0.13182 0.0
H1535 H 0.90928 0.45225 0.10636 0.0
H1536 H 0.90836 0.3821 0.10637 0.0
H1537 H 0.86189 0.38451 0.09727 0.0
H1538 H 0.86262 0.45462 0.09741 0.0
H1539 H 0.84183 0.42024 0.11669 0.0
H1540 H 0.86556 0.46848 0.20448 0.0
H1541 H 0.86734 0.563 0.19622 0.0
H1542 H 0.88231 0.5299 0.12212 0.0
C1543 C 0.87544 0.32024 0.1396 0.0
C1544 C 0.8703 0.28388 0.15779 0.0
C1545 C 0.86666 0.30232 0.18126 0.0
C1546 C 0.86755 0.35586 0.18642 0.0
C1547 C 0.87217 0.3906 0.16796 0.0
C1548 C 0.87621 0.37346 0.14505 0.0
C1549 C 0.88016 0.41876 0.12827 0.0
C1550 C 0.90602 0.41736 0.11758 0.0
C1551 C 0.86044 0.41956 0.10876 0.0
C1552 C 0.87729 0.46414 0.14522 0.0
C1553 C 0.87282 0.44718 0.16806 0.0
C1554 C 0.86923 0.48215 0.18668 0.0
C1555 C 0.87035 0.53579 0.18183 0.0
C1556 C 0.87492 0.55407 0.15852 0.0
C1557 C 0.87844 0.51741 0.14007 0.0
H1558 H 0.14022 0.31398 0.36321 0.0
H1559 H 0.11697 0.28406 0.43556 0.0
H1560 H 0.11334 0.37869 0.44248 0.0
H1561 H 0.17555 0.42932 0.37547 0.0
H1562 H 0.16649 0.46212 0.34862 0.0
H1563 H 0.16766 0.39203 0.3494 0.0
H1564 H 0.1224 0.38697 0.33584 0.0
H1565 H 0.12113 0.45702 0.33487 0.0
H1566 H 0.09936 0.42117 0.35251 0.0
H1567 H 0.1119 0.47699 0.44144 0.0
H1568 H 0.11116 0.57082 0.43205 0.0
H1569 H 0.13515 0.53679 0.36031 0.0
C1570 C 0.13411 0.32717 0.38046 0.0
C1571 C 0.12894 0.29125 0.39886 0.0
C1572 C 0.12138 0.31057 0.42126 0.0
C1573 C 0.11917 0.36433 0.42534 0.0
C1574 C 0.12455 0.39853 0.40687 0.0
C1575 C 0.13177 0.3807 0.38484 0.0
C1576 C 0.1362 0.42562 0.3679 0.0
C1577 C 0.16307 0.42736 0.35988 0.0
C1578 C 0.11872 0.4225 0.34652 0.0
C1579 C 0.13016 0.47149 0.38379 0.0
C1580 C 0.12362 0.45505 0.40624 0.0
C1581 C 0.11709 0.49029 0.42394 0.0
C1582 C 0.11692 0.54365 0.41848 0.0
C1583 C 0.12319 0.56151 0.39546 0.0
C1584 C 0.13009 0.52461 0.37802 0.0
H1585 H 0.88894 0.51225 0.38428 0.0
H1586 H 0.82578 0.46713 0.34201 0.0
H1587 H 0.81542 0.5597 0.33656 0.0
H1588 H 0.85934 0.61911 0.41462 0.0
H1589 H 0.88637 0.65957 0.41493 0.0
H1590 H 0.88923 0.5897 0.41504 0.0
H1591 H 0.91646 0.59454 0.37753 0.0
H1592 H 0.91359 0.66441 0.37725 0.0
H1593 H 0.90513 0.62697 0.35141 0.0
H1594 H 0.81174 0.65766 0.33566 0.0
H1595 H 0.81408 0.75293 0.34065 0.0
H1596 H 0.87907 0.73529 0.38425 0.0
C1597 C 0.87277 0.5216 0.37406 0.0
C1598 C 0.85832 0.48177 0.36344 0.0
C1599 C 0.83751 0.49643 0.34996 0.0
C1600 C 0.83135 0.54909 0.34687 0.0
C1601 C 0.84605 0.58711 0.35745 0.0
C1602 C 0.86625 0.57406 0.37089 0.0
C1603 C 0.87878 0.62257 0.38065 0.0
C1604 C 0.8784 0.62274 0.40793 0.0
C1605 C 0.90505 0.62739 0.37113 0.0
C1606 C 0.86246 0.66493 0.3706 0.0
C1607 C 0.84376 0.64357 0.35718 0.0
C1608 C 0.82637 0.67476 0.34607 0.0
C1609 C 0.82799 0.72905 0.34887 0.0
C1610 C 0.84685 0.75214 0.36272 0.0
C1611 C 0.86432 0.7192 0.37366 0.0
H1612 H 0.87274 0.31612 0.85567 0.0
H1613 H 0.83909 0.29195 0.92454 0.0
H1614 H 0.84075 0.38645 0.93208 0.0
H1615 H 0.91348 0.42062 0.8737 0.0
H1616 H 0.91017 0.45636 0.84639 0.0
H1617 H 0.90677 0.38654 0.84645 0.0
H1618 H 0.86385 0.39537 0.82742 0.0
H1619 H 0.86708 0.46523 0.82737 0.0
H1620 H 0.84114 0.4353 0.84171 0.0
H1621 H 0.84518 0.48444 0.93203 0.0
H1622 H 0.85289 0.57772 0.92472 0.0
H1623 H 0.88385 0.53979 0.85596 0.0
C1624 C 0.86563 0.33059 0.87233 0.0
C1625 C 0.85592 0.29586 0.88956 0.0
C1626 C 0.84706 0.31702 0.91118 0.0
C1627 C 0.84773 0.37094 0.91558 0.0
C1628 C 0.85732 0.40386 0.89824 0.0
C1629 C 0.86619 0.38453 0.87706 0.0
C1630 C 0.87558 0.42858 0.86144 0.0
C1631 C 0.90314 0.42266 0.85672 0.0
C1632 C 0.86104 0.43127 0.8381 0.0
C1633 C 0.87047 0.47564 0.87708 0.0
C1634 C 0.85994 0.46041 0.89824 0.0
C1635 C 0.85355 0.49671 0.91556 0.0
C1636 C 0.85816 0.5498 0.91128 0.0
C1637 C 0.86915 0.56675 0.88981 0.0
C1638 C 0.87522 0.52868 0.87248 0.0
H1639 H 0.1239 0.51592 0.89626 0.0
H1640 H 0.14639 0.47441 0.82486 0.0
H1641 H 0.15335 0.56731 0.81584 0.0
H1642 H 0.09212 0.63158 0.8812 0.0
H1643 H 0.10182 0.66751 0.90708 0.0
H1644 H 0.09931 0.59761 0.90829 0.0
H1645 H 0.14446 0.59143 0.92201 0.0
H1646 H 0.14709 0.66137 0.92094 0.0
H1647 H 0.16813 0.62147 0.90442 0.0
H1648 H 0.1567 0.66462 0.81411 0.0
H1649 H 0.15696 0.7598 0.81993 0.0
H1650 H 0.13278 0.7388 0.89263 0.0
C1651 C 0.13067 0.52622 0.87884 0.0
C1652 C 0.13453 0.48765 0.86125 0.0
C1653 C 0.14297 0.50312 0.83854 0.0
C1654 C 0.14712 0.55581 0.83328 0.0
C1655 C 0.14288 0.59274 0.85093 0.0
C1656 C 0.13496 0.57868 0.87329 0.0
C1657 C 0.13138 0.62626 0.88891 0.0
C1658 C 0.10456 0.631 0.89683 0.0
C1659 C 0.14881 0.62505 0.91034 0.0
C1660 C 0.13832 0.66929 0.87176 0.0
C1661 C 0.14491 0.64901 0.84997 0.0
C1662 C 0.1516 0.68094 0.8311 0.0
C1663 C 0.15151 0.73503 0.83454 0.0
C1664 C 0.14475 0.75693 0.85669 0.0
C1665 C 0.13823 0.72334 0.87556 0.0
H1666 H 0.85267 0.73562 0.62351 0.0
H1667 H 0.88261 0.77155 0.69304 0.0
H1668 H 0.8867 0.67743 0.70122 0.0
H1669 H 0.81838 0.62174 0.64075 0.0
H1670 H 0.82478 0.58681 0.61372 0.0
H1671 H 0.82369 0.65692 0.61357 0.0
H1672 H 0.86744 0.66057 0.59597 0.0
H1673 H 0.86861 0.5905 0.59594 0.0
H1674 H 0.89201 0.62757 0.61103 0.0
H1675 H 0.88832 0.57867 0.7014 0.0
H1676 H 0.88854 0.48419 0.6931 0.0
H1677 H 0.85727 0.5132 0.62354 0.0
C1678 C 0.86031 0.72386 0.6404 0.0
C1679 C 0.86734 0.76128 0.65762 0.0
C1680 C 0.87684 0.74383 0.67964 0.0
C1681 C 0.87931 0.69039 0.68442 0.0
C1682 C 0.87215 0.65468 0.66706 0.0
C1683 C 0.86288 0.67074 0.64547 0.0
C1684 C 0.85682 0.6246 0.62968 0.0
C1685 C 0.82928 0.6224 0.62411 0.0
C1686 C 0.87214 0.6259 0.60681 0.0
C1687 C 0.86439 0.58001 0.64563 0.0
C1688 C 0.87304 0.59809 0.66717 0.0
C1689 C 0.88144 0.56411 0.68463 0.0
C1690 C 0.88131 0.51037 0.67981 0.0
C1691 C 0.87288 0.49092 0.65768 0.0
C1692 C 0.86405 0.52656 0.64056 0.0
H1693 H 0.135 0.30873 0.6692 0.0
H1694 H 0.13572 0.27691 0.59352 0.0
H1695 H 0.13031 0.37045 0.58545 0.0
H1696 H 0.08948 0.4107 0.66746 0.0
H1697 H 0.10405 0.44975 0.69007 0.0
H1698 H 0.10777 0.38006 0.69009 0.0
H1699 H 0.15483 0.39163 0.68946 0.0
H1700 H 0.15126 0.46136 0.68941 0.0
H1701 H 0.16876 0.43015 0.66638 0.0
H1702 H 0.12545 0.46858 0.5853 0.0
H1703 H 0.12014 0.5623 0.5931 0.0
H1704 H 0.12314 0.53258 0.66886 0.0
C1705 C 0.13413 0.3213 0.6509 0.0
C1706 C 0.13567 0.28453 0.63203 0.0
C1707 C 0.13416 0.3034 0.6084 0.0
C1708 C 0.13127 0.35683 0.60359 0.0
C1709 C 0.12987 0.39173 0.62253 0.0
C1710 C 0.13116 0.37476 0.64574 0.0
C1711 C 0.12904 0.42062 0.66282 0.0
C1712 C 0.10623 0.41493 0.67854 0.0
C1713 C 0.15236 0.42626 0.67791 0.0
C1714 C 0.1264 0.46596 0.64559 0.0
C1715 C 0.12702 0.44833 0.62244 0.0
C1716 C 0.12502 0.48271 0.60339 0.0
C1717 C 0.1222 0.53625 0.60804 0.0
C1718 C 0.12134 0.55575 0.63162 0.0
C1719 C 0.12351 0.51953 0.6506 0.0
H1720 H 0.62417 1.02334 0.11846 0.0
H1721 H 0.60654 0.98766 0.19176 0.0
H1722 H 0.60945 0.08095 0.20178 0.0
H1723 H 0.66768 0.12651 0.13103 0.0
H1724 H 0.65842 0.16613 0.10625 0.0
H1725 H 0.6552 0.09634 0.10474 0.0
H1726 H 0.60909 0.10645 0.09529 0.0
H1727 H 0.61216 0.17627 0.09685 0.0
H1728 H 0.58999 0.1433 0.11517 0.0
H1729 H 0.61332 0.17894 0.20393 0.0
H1730 H 0.61922 0.27329 0.19832 0.0
H1731 H 0.63499 0.24695 0.12377 0.0
C1732 C 0.62082 0.03504 0.13662 0.0
C1733 C 0.61524 0.99742 0.15432 0.0
C1734 C 0.61127 1.015 0.17789 0.0
C1735 C 0.61269 0.0682 0.18375 0.0
C1736 C 0.61814 0.10402 0.16593 0.0
C1737 C 0.62225 0.08822 0.14285 0.0
C1738 C 0.62796 0.13489 0.12712 0.0
C1739 C 0.65385 0.13071 0.11667 0.0
C1740 C 0.60865 0.14055 0.10745 0.0
C1741 C 0.62633 0.17933 0.14495 0.0
C1742 C 0.62059 0.16057 0.16722 0.0
C1743 C 0.618 0.19395 0.18658 0.0
C1744 C 0.62156 0.24772 0.18322 0.0
C1745 C 0.62781 0.2683 0.16064 0.0
C1746 C 0.63003 0.23313 0.14125 0.0
H1747 H 0.36891 0.83108 0.12819 0.0
H1748 H 0.3432 0.80368 0.19997 0.0
H1749 H 0.34542 0.89797 0.2081 0.0
H1750 H 0.41092 0.93629 0.14253 0.0
H1751 H 0.40424 0.97242 0.11592 0.0
H1752 H 0.40146 0.90248 0.11598 0.0
H1753 H 0.35657 0.91002 0.10164 0.0
H1754 H 0.35918 0.97997 0.10164 0.0
H1755 H 0.33528 0.94869 0.11848 0.0
H1756 H 0.34901 0.99621 0.2081 0.0
H1757 H 0.35472 0.08999 0.20026 0.0
H1758 H 0.37823 0.05413 0.12854 0.0
C1759 C 0.36371 0.84478 0.14563 0.0
C1760 C 0.35599 0.80939 0.16346 0.0
C1761 C 0.34961 0.82943 0.18609 0.0
C1762 C 0.35062 0.88316 0.19085 0.0
C1763 C 0.35807 0.9168 0.17284 0.0
C1764 C 0.36461 0.89839 0.1507 0.0
C1765 C 0.37181 0.94296 0.1344 0.0
C1766 C 0.39871 0.93825 0.12677 0.0
C1767 C 0.35468 0.94555 0.11276 0.0
C1768 C 0.36809 0.98931 0.15076 0.0
C1769 C 0.36019 0.97334 0.17286 0.0
C1770 C 0.35536 1.00907 0.19089 0.0
C1771 C 0.3588 0.0624 0.18629 0.0
C1772 C 0.36705 0.07996 0.1638 0.0
C1773 C 0.37166 0.04247 0.14585 0.0
H1774 H 0.64668 0.0409 0.36055 0.0
H1775 H 0.60235 0.06153 0.42369 0.0
H1776 H 0.60349 0.96676 0.43081 0.0
H1777 H 0.61771 0.92547 0.34069 0.0
H1778 H 0.64528 0.89565 0.32972 0.0
H1779 H 0.64282 0.96552 0.33068 0.0
H1780 H 0.68234 0.97109 0.356 0.0
H1781 H 0.68502 0.90119 0.35502 0.0
H1782 H 0.68438 0.93446 0.38319 0.0
H1783 H 0.60698 0.86855 0.42947 0.0
H1784 H 0.61332 0.77557 0.42028 0.0
H1785 H 0.65548 0.81889 0.35807 0.0
C1786 C 0.63729 1.02565 0.37596 0.0
C1787 C 0.62449 0.05909 0.3916 0.0
C1788 C 0.61265 0.03718 0.41165 0.0
C1789 C 0.61305 0.98321 0.41576 0.0
C1790 C 0.62544 0.95141 0.39974 0.0
C1791 C 0.63748 0.97188 0.38032 0.0
C1792 C 0.64876 0.9291 0.36536 0.0
C1793 C 0.63799 0.92894 0.34012 0.0
C1794 C 0.67679 0.93428 0.36487 0.0
C1795 C 0.64078 0.88129 0.37915 0.0
C1796 C 0.62747 0.89499 0.39899 0.0
C1797 C 0.61762 0.85745 0.41411 0.0
C1798 C 0.62144 0.8046 0.40879 0.0
C1799 C 0.63499 0.78947 0.38848 0.0
C1800 C 0.64484 0.82876 0.37361 0.0
H1801 H 0.36661 1.01581 0.41302 0.0
H1802 H 0.38454 0.98654 0.33919 0.0
H1803 H 0.38138 0.08039 0.33081 0.0
H1804 H 0.32263 0.11824 0.40196 0.0
H1805 H 0.33153 0.15654 0.4274 0.0
H1806 H 0.33516 0.08684 0.42783 0.0
H1807 H 0.38114 0.09835 0.43767 0.0
H1808 H 0.37766 0.16811 0.43718 0.0
H1809 H 0.40012 0.13742 0.41847 0.0
H1810 H 0.37716 0.17787 0.33023 0.0
H1811 H 0.37048 0.2714 0.33708 0.0
H1812 H 0.35433 0.23994 0.41113 0.0
C1813 C 0.36996 0.02909 0.39509 0.0
C1814 C 0.37568 0.99303 0.37674 0.0
C1815 C 0.37969 1.01261 0.35353 0.0
C1816 C 0.37814 0.06617 0.3486 0.0
C1817 C 0.3725 0.1004 0.367 0.0
C1818 C 0.36835 0.08274 0.38979 0.0
C1819 C 0.36226 0.12813 0.4062 0.0
C1820 C 0.33635 0.12206 0.41645 0.0
C1821 C 0.38144 0.13329 0.42605 0.0
C1822 C 0.36371 0.17394 0.38909 0.0
C1823 C 0.36973 0.15688 0.3666 0.0
C1824 C 0.37224 0.19155 0.34775 0.0
C1825 C 0.36822 0.24486 0.35183 0.0
C1826 C 0.36154 0.26379 0.3746 0.0
C1827 C 0.35953 0.22737 0.39351 0.0
H1828 H 0.35809 0.82043 0.85775 0.0
H1829 H 0.35485 0.78135 0.9326 0.0
H1830 H 0.35916 0.87447 0.94281 0.0
H1831 H 0.40246 0.92362 0.86298 0.0
H1832 H 0.38838 0.9637 0.84061 0.0
H1833 H 0.38525 0.89391 0.83921 0.0
H1834 H 0.33807 0.90303 0.83843 0.0
H1835 H 0.34106 0.97287 0.83989 0.0
H1836 H 0.32301 0.93884 0.86171 0.0
H1837 H 0.36355 0.97268 0.94493 0.0
H1838 H 0.36818 0.06744 0.93874 0.0
H1839 H 0.36831 0.04276 0.86254 0.0
C1840 C 0.35809 0.83134 0.87631 0.0
C1841 C 0.35617 0.7931 0.89435 0.0
C1842 C 0.35665 0.80946 0.9184 0.0
C1843 C 0.35892 0.86244 0.9244 0.0
C1844 C 0.36069 0.89896 0.90619 0.0
C1845 C 0.36034 0.8841 0.88263 0.0
C1846 C 0.36266 0.93109 0.86645 0.0
C1847 C 0.38608 0.92787 0.85143 0.0
C1848 C 0.33984 0.93678 0.85069 0.0
C1849 C 0.36431 0.97473 0.88458 0.0
C1850 C 0.36315 0.95538 0.90741 0.0
C1851 C 0.36452 0.98819 0.92711 0.0
C1852 C 0.36727 0.04204 0.92341 0.0
C1853 C 0.36863 0.06293 0.90016 0.0
C1854 C 0.367 0.02843 0.88055 0.0
H1855 H 0.64857 0.22538 0.90057 0.0
H1856 H 0.61085 0.26244 0.83489 0.0
H1857 H 0.60358 0.16894 0.82777 0.0
H1858 H 0.67777 0.10889 0.88011 0.0
H1859 H 0.67395 0.07407 0.9076 0.0
H1860 H 0.6763 0.14407 0.90777 0.0
H1861 H 0.635 0.15028 0.93004 0.0
H1862 H 0.63258 0.08028 0.93006 0.0
H1863 H 0.60826 0.11897 0.91771 0.0
H1864 H 0.60081 0.07126 0.82727 0.0
H1865 H 0.60107 0.97655 0.83434 0.0
H1866 H 0.63983 1.00154 0.9007 0.0
C1867 C 0.63852 0.21399 0.88482 0.0
C1868 C 0.63047 0.25175 0.86821 0.0
C1869 C 0.61765 0.23463 0.8477 0.0
C1870 C 0.61329 0.18146 0.84354 0.0
C1871 C 0.62172 0.14543 0.86007 0.0
C1872 C 0.63392 0.16089 0.88039 0.0
C1873 C 0.64095 0.114 0.89533 0.0
C1874 C 0.6689 0.11004 0.89784 0.0
C1875 C 0.62845 0.11601 0.91973 0.0
C1876 C 0.63077 0.06985 0.88023 0.0
C1877 C 0.61987 0.08894 0.85992 0.0
C1878 C 0.60933 0.05589 0.84311 0.0
C1879 C 0.60976 1.00197 0.84721 0.0
C1880 C 0.6206 0.98118 0.868 0.0
C1881 C 0.63126 1.01596 0.88469 0.0
H1882 H 0.39223 1.02732 0.639 0.0
H1883 H 0.35443 0.98957 0.70447 0.0
H1884 H 0.35087 0.08348 0.71357 0.0
H1885 H 0.4259 0.13894 0.66135 0.0
H1886 H 0.42281 0.17523 0.63417 0.0
H1887 H 0.42336 0.10509 0.6334 0.0
H1888 H 0.38182 0.10399 0.61117 0.0
H1889 H 0.38119 0.17407 0.61178 0.0
H1890 H 0.35598 0.13731 0.62389 0.0
H1891 H 0.34988 0.1821 0.71455 0.0
H1892 H 0.35066 0.27672 0.70699 0.0
H1893 H 0.38955 0.24962 0.64102 0.0
C1894 C 0.38308 0.03867 0.65521 0.0
C1895 C 0.37358 1.00087 0.671 0.0
C1896 C 0.3621 1.01764 0.69221 0.0
C1897 C 0.35992 0.07094 0.69749 0.0
C1898 C 0.36942 0.10707 0.68147 0.0
C1899 C 0.38078 0.09159 0.66077 0.0
C1900 C 0.38891 0.1381 0.64621 0.0
C1901 C 0.41691 0.1394 0.64364 0.0
C1902 C 0.37621 0.13837 0.62182 0.0
C1903 C 0.37998 0.18226 0.66174 0.0
C1904 C 0.36895 0.16362 0.68209 0.0
C1905 C 0.35869 0.19711 0.69878 0.0
C1906 C 0.3594 0.25094 0.6944 0.0
C1907 C 0.37026 0.27097 0.67344 0.0
C1908 C 0.38096 0.23583 0.65714 0.0
H1909 H 0.63543 0.82083 0.66634 0.0
H1910 H 0.64182 0.79012 0.59084 0.0
H1911 H 0.63726 0.88384 0.58268 0.0
H1912 H 0.59037 0.92311 0.66166 0.0
H1913 H 0.60323 0.96173 0.68536 0.0
H1914 H 0.60685 0.89201 0.68544 0.0
H1915 H 0.65385 0.90331 0.68821 0.0
H1916 H 0.65037 0.97306 0.68812 0.0
H1917 H 0.66955 0.9421 0.66631 0.0
H1918 H 0.63248 0.98208 0.58247 0.0
H1919 H 0.62651 0.07568 0.59019 0.0
H1920 H 0.62394 0.04459 0.66586 0.0
C1921 C 0.63599 0.83369 0.64807 0.0
C1922 C 0.63885 0.79719 0.62925 0.0
C1923 C 0.6392 0.81642 0.60564 0.0
C1924 C 0.63682 0.86994 0.60079 0.0
C1925 C 0.63406 0.90459 0.61968 0.0
C1926 C 0.63356 0.88725 0.64287 0.0
C1927 C 0.6302 0.93285 0.65988 0.0
C1928 C 0.60624 0.92707 0.67391 0.0
C1929 C 0.65231 0.93813 0.67662 0.0
C1930 C 0.62892 0.97844 0.64266 0.0
C1931 C 0.63128 0.96121 0.61956 0.0
C1932 C 0.6307 0.9959 0.60053 0.0
C1933 C 0.62749 0.04938 0.60515 0.0
C1934 C 0.62483 0.06845 0.62866 0.0
C1935 C 0.62566 0.0319 0.64762 0.0
loop_
_geom_bond_atom_site_label_1
_geom_bond_atom_site_label_2
_geom_bond_distance
_geom_bond_site_symmetry_2
_ccdc_geom_bond_type
Tb0 C2 2.809 1_545 S
Tb0 O20 2.484 1_545 S
Tb0 O21 2.440 1_545 S
Tb0 O22 2.658 . S
Tb0 O23 2.409 . S
Tb0 O24 2.378 . S
Tb0 O28 2.325 . S
Tb0 O31 2.341 . S
Tb1 C11 2.809 . S
Tb1 O22 2.325 . S
Tb1 O25 2.341 . S
Tb1 O26 2.484 . S
Tb1 O27 2.440 . S
Tb1 O28 2.658 . S
Tb1 O29 2.409 . S
Tb1 O30 2.378 . S
C2 Tb0 2.809 1_565 S
C2 C3 1.514 . S
C2 O20 1.248 . S
C2 O21 1.266 . S
C3 C2 1.514 . S
C3 C4 1.359 . S
C3 C8 1.348 . S
C4 C3 1.359 . S
C4 C5 1.380 . S
C4 H32 0.929 . S
C5 C4 1.380 . S
C5 C6 1.347 . S
C5 H33 0.931 . S
C6 C5 1.347 . S
C6 C7 1.369 . S
C7 C6 1.369 . S
C7 C8 1.408 . S
C7 H34 0.930 . S
C8 C3 1.348 . S
C8 C7 1.408 . S
C8 H35 0.930 . S
C9 O22 1.281 . S
C9 O23 1.254 . S
C10 O24 1.236 . S
C10 O25 1.266 . S
C11 Tb1 2.809 . S
C11 C12 1.514 . S
C11 O26 1.248 . S
C11 O27 1.266 . S
C12 C11 1.514 . S
C12 C13 1.359 . S
C12 C17 1.348 . S
C13 C12 1.359 . S
C13 C14 1.380 . S
C13 H36 0.929 . S
C14 C13 1.380 . S
C14 C15 1.347 . S
C14 H37 0.931 . S
C15 C14 1.347 . S
C15 C16 1.369 . S
C16 C15 1.369 . S
C16 C17 1.408 . S
C16 H38 0.930 . S
C17 C12 1.348 . S
C17 C16 1.408 . S
C17 H39 0.930 . S
C18 O28 1.281 . S
C18 O29 1.254 . S
C19 O30 1.236 . S
C19 O31 1.266 . S
O20 Tb0 2.484 1_565 S
O20 C2 1.248 . S
O21 Tb0 2.440 1_565 S
O21 C2 1.266 . S
O22 Tb0 2.658 . S
O22 Tb1 2.325 . S
O22 C9 1.281 . S
O23 Tb0 2.409 . S
O23 C9 1.254 . S
O24 Tb0 2.378 . S
O24 C10 1.236 . S
O25 Tb1 2.341 . S
O25 C10 1.266 . S
O26 Tb1 2.484 . S
O26 C11 1.248 . S
O27 Tb1 2.440 . S
O27 C11 1.266 . S
O28 Tb0 2.325 . S
O28 Tb1 2.658 . S
O28 C18 1.281 . S
O29 Tb1 2.409 . S
O29 C18 1.254 . S
O30 Tb1 2.378 . S
O30 C19 1.236 . S
O31 Tb0 2.341 . S
O31 C19 1.266 . S
H32 C4 0.929 . S
H33 C5 0.931 . S
H34 C7 0.930 . S
H35 C8 0.930 . S
H36 C13 0.929 . S
H37 C14 0.931 . S
H38 C16 0.930 . S
H39 C17 0.930 . S
Tb40 C42 2.809 1_565 S
Tb40 O60 2.484 1_565 S
Tb40 O61 2.440 1_565 S
Tb40 O62 2.658 . S
Tb40 O63 2.409 . S
Tb40 O64 2.378 . S
Tb40 O68 2.325 . S
Tb40 O71 2.341 . S
Tb41 C51 2.809 . S
Tb41 O62 2.325 . S
Tb41 O65 2.341 . S
Tb41 O66 2.484 . S
Tb41 O67 2.440 . S
Tb41 O68 2.658 . S
Tb41 O69 2.409 . S
Tb41 O70 2.378 . S
C42 Tb40 2.809 1_545 S
C42 C43 1.514 . S
C42 O60 1.248 . S
C42 O61 1.266 . S
C43 C42 1.514 . S
C43 C44 1.359 . S
C43 C48 1.348 . S
C44 C43 1.359 . S
C44 C45 1.380 . S
C44 H72 0.929 . S
C45 C44 1.380 . S
C45 C46 1.347 . S
C45 H73 0.931 . S
C46 C45 1.347 . S
C46 C47 1.369 . S
C47 C46 1.369 . S
C47 C48 1.408 . S
C47 H74 0.930 . S
C48 C43 1.348 . S
C48 C47 1.408 . S
C48 H75 0.930 . S
C49 O62 1.281 . S
C49 O63 1.254 . S
C50 O64 1.236 . S
C50 O65 1.266 . S
C51 Tb41 2.809 . S
C51 C52 1.514 . S
C51 O66 1.248 . S
C51 O67 1.266 . S
C52 C51 1.514 . S
C52 C53 1.359 . S
C52 C57 1.348 . S
C53 C52 1.359 . S
C53 C54 1.380 . S
C53 H76 0.929 . S
C54 C53 1.380 . S
C54 C55 1.347 . S
C54 H77 0.931 . S
C55 C54 1.347 . S
C55 C56 1.369 . S
C56 C55 1.369 . S
C56 C57 1.408 . S
C56 H78 0.930 . S
C57 C52 1.348 . S
C57 C56 1.408 . S
C57 H79 0.930 . S
C58 O68 1.281 . S
C58 O69 1.254 . S
C59 O70 1.236 . S
C59 O71 1.266 . S
O60 Tb40 2.484 1_545 S
O60 C42 1.248 . S
O61 Tb40 2.440 1_545 S
O61 C42 1.266 . S
O62 Tb40 2.658 . S
O62 Tb41 2.325 . S
O62 C49 1.281 . S
O63 Tb40 2.409 . S
O63 C49 1.254 . S
O64 Tb40 2.378 . S
O64 C50 1.236 . S
O65 Tb41 2.341 . S
O65 C50 1.266 . S
O66 Tb41 2.484 . S
O66 C51 1.248 . S
O67 Tb41 2.440 . S
O67 C51 1.266 . S
O68 Tb40 2.325 . S
O68 Tb41 2.658 . S
O68 C58 1.281 . S
O69 Tb41 2.409 . S
O69 C58 1.254 . S
O70 Tb41 2.378 . S
O70 C59 1.236 . S
O71 Tb40 2.341 . S
O71 C59 1.266 . S
H72 C44 0.929 . S
H73 C45 0.931 . S
H74 C47 0.930 . S
H75 C48 0.930 . S
H76 C53 0.929 . S
H77 C54 0.931 . S
H78 C56 0.930 . S
H79 C57 0.930 . S
Tb80 C82 2.809 1_565 S
Tb80 O100 2.484 1_565 S
Tb80 O101 2.440 1_565 S
Tb80 O102 2.658 . S
Tb80 O103 2.409 . S
Tb80 O104 2.378 . S
Tb80 O108 2.325 . S
Tb80 O111 2.341 . S
Tb81 C91 2.809 . S
Tb81 O102 2.325 . S
Tb81 O105 2.341 . S
Tb81 O106 2.484 . S
Tb81 O107 2.440 . S
Tb81 O108 2.658 . S
Tb81 O109 2.409 . S
Tb81 O110 2.378 . S
C82 Tb80 2.809 1_545 S
C82 C83 1.514 . S
C82 O100 1.248 . S
C82 O101 1.266 . S
C83 C82 1.514 . S
C83 C84 1.359 . S
C83 C88 1.348 . S
C84 C83 1.359 . S
C84 C85 1.380 . S
C84 H112 0.929 . S
C85 C84 1.380 . S
C85 C86 1.347 . S
C85 H113 0.931 . S
C86 C85 1.347 . S
C86 C87 1.369 . S
C87 C86 1.369 . S
C87 C88 1.408 . S
C87 H114 0.930 . S
C88 C83 1.348 . S
C88 C87 1.408 . S
C88 H115 0.930 . S
C89 O102 1.281 . S
C89 O103 1.254 . S
C90 O104 1.236 . S
C90 O105 1.266 . S
C91 Tb81 2.809 . S
C91 C92 1.514 . S
C91 O106 1.248 . S
C91 O107 1.266 . S
C92 C91 1.514 . S
C92 C93 1.359 . S
C92 C97 1.348 . S
C93 C92 1.359 . S
C93 C94 1.380 . S
C93 H116 0.929 . S
C94 C93 1.380 . S
C94 C95 1.347 . S
C94 H117 0.931 . S
C95 C94 1.347 . S
C95 C96 1.369 . S
C96 C95 1.369 . S
C96 C97 1.408 . S
C96 H118 0.930 . S
C97 C92 1.348 . S
C97 C96 1.408 . S
C97 H119 0.930 . S
C98 O108 1.281 . S
C98 O109 1.254 . S
C99 O110 1.236 . S
C99 O111 1.266 . S
O100 Tb80 2.484 1_545 S
O100 C82 1.248 . S
O101 Tb80 2.440 1_545 S
O101 C82 1.266 . S
O102 Tb80 2.658 . S
O102 Tb81 2.325 . S
O102 C89 1.281 . S
O103 Tb80 2.409 . S
O103 C89 1.254 . S
O104 Tb80 2.378 . S
O104 C90 1.236 . S
O105 Tb81 2.341 . S
O105 C90 1.266 . S
O106 Tb81 2.484 . S
O106 C91 1.248 . S
O107 Tb81 2.440 . S
O107 C91 1.266 . S
O108 Tb80 2.325 . S
O108 Tb81 2.658 . S
O108 C98 1.281 . S
O109 Tb81 2.409 . S
O109 C98 1.254 . S
O110 Tb81 2.378 . S
O110 C99 1.236 . S
O111 Tb80 2.341 . S
O111 C99 1.266 . S
H112 C84 0.929 . S
H113 C85 0.931 . S
H114 C87 0.930 . S
H115 C88 0.930 . S
H116 C93 0.929 . S
H117 C94 0.931 . S
H118 C96 0.930 . S
H119 C97 0.930 . S
Tb120 C122 2.809 1_545 S
Tb120 O140 2.484 1_545 S
Tb120 O141 2.440 1_545 S
Tb120 O142 2.658 . S
Tb120 O143 2.409 . S
Tb120 O144 2.378 . S
Tb120 O148 2.325 . S
Tb120 O151 2.341 . S
Tb121 C131 2.809 . S
Tb121 O142 2.325 . S
Tb121 O145 2.341 . S
Tb121 O146 2.484 . S
Tb121 O147 2.440 . S
Tb121 O148 2.658 . S
Tb121 O149 2.409 . S
Tb121 O150 2.378 . S
C122 Tb120 2.809 1_565 S
C122 C123 1.514 . S
C122 O140 1.248 . S
C122 O141 1.266 . S
C123 C122 1.514 . S
C123 C124 1.359 . S
C123 C128 1.348 . S
C124 C123 1.359 . S
C124 C125 1.380 . S
C124 H152 0.929 . S
C125 C124 1.380 . S
C125 C126 1.347 . S
C125 H153 0.931 . S
C126 C125 1.347 . S
C126 C127 1.369 . S
C127 C126 1.369 . S
C127 C128 1.408 . S
C127 H154 0.930 . S
C128 C123 1.348 . S
C128 C127 1.408 . S
C128 H155 0.930 . S
C129 O142 1.281 . S
C129 O143 1.254 . S
C130 O144 1.236 . S
C130 O145 1.266 . S
C131 Tb121 2.809 . S
C131 C132 1.514 . S
C131 O146 1.248 . S
C131 O147 1.266 . S
C132 C131 1.514 . S
C132 C133 1.359 . S
C132 C137 1.348 . S
C133 C132 1.359 . S
C133 C134 1.380 . S
C133 H156 0.929 . S
C134 C133 1.380 . S
C134 C135 1.347 . S
C134 H157 0.931 . S
C135 C134 1.347 . S
C135 C136 1.369 . S
C136 C135 1.369 . S
C136 C137 1.408 . S
C136 H158 0.930 . S
C137 C132 1.348 . S
C137 C136 1.408 . S
C137 H159 0.930 . S
C138 O148 1.281 . S
C138 O149 1.254 . S
C139 O150 1.236 . S
C139 O151 1.266 . S
O140 Tb120 2.484 1_565 S
O140 C122 1.248 . S
O141 Tb120 2.440 1_565 S
O141 C122 1.266 . S
O142 Tb120 2.658 . S
O142 Tb121 2.325 . S
O142 C129 1.281 . S
O143 Tb120 2.409 . S
O143 C129 1.254 . S
O144 Tb120 2.378 . S
O144 C130 1.236 . S
O145 Tb121 2.341 . S
O145 C130 1.266 . S
O146 Tb121 2.484 . S
O146 C131 1.248 . S
O147 Tb121 2.440 . S
O147 C131 1.266 . S
O148 Tb120 2.325 . S
O148 Tb121 2.658 . S
O148 C138 1.281 . S
O149 Tb121 2.409 . S
O149 C138 1.254 . S
O150 Tb121 2.378 . S
O150 C139 1.236 . S
O151 Tb120 2.341 . S
O151 C139 1.266 . S
H152 C124 0.929 . S
H153 C125 0.931 . S
H154 C127 0.930 . S
H155 C128 0.930 . S
H156 C133 0.929 . S
H157 C134 0.931 . S
H158 C136 0.930 . S
H159 C137 0.930 . S
Tb160 C162 2.809 . S
Tb160 O180 2.484 . S
Tb160 O181 2.440 . S
Tb160 O182 2.658 . S
Tb160 O183 2.409 . S
Tb160 O184 2.378 . S
Tb160 O188 2.325 . S
Tb160 O191 2.341 . S
Tb161 C171 2.809 1_565 S
Tb161 O182 2.325 . S
Tb161 O185 2.341 . S
Tb161 O186 2.484 1_565 S
Tb161 O187 2.440 1_565 S
Tb161 O188 2.658 . S
Tb161 O189 2.409 . S
Tb161 O190 2.378 . S
C162 Tb160 2.809 . S
C162 C163 1.514 . S
C162 O180 1.248 . S
C162 O181 1.266 . S
C163 C162 1.514 . S
C163 C164 1.359 . S
C163 C168 1.348 . S
C164 C163 1.359 . S
C164 C165 1.380 . S
C164 H192 0.929 . S
C165 C164 1.380 . S
C165 C166 1.347 . S
C165 H193 0.931 . S
C166 C165 1.347 . S
C166 C167 1.369 . S
C167 C166 1.369 . S
C167 C168 1.408 . S
C167 H194 0.930 . S
C168 C163 1.348 . S
C168 C167 1.408 . S
C168 H195 0.930 . S
C169 O182 1.281 . S
C169 O183 1.254 . S
C170 O184 1.236 . S
C170 O185 1.266 . S
C171 Tb161 2.809 1_545 S
C171 C172 1.514 . S
C171 O186 1.248 . S
C171 O187 1.266 . S
C172 C171 1.514 . S
C172 C173 1.359 . S
C172 C177 1.348 . S
C173 C172 1.359 . S
C173 C174 1.380 . S
C173 H196 0.929 . S
C174 C173 1.380 . S
C174 C175 1.347 . S
C174 H197 0.931 . S
C175 C174 1.347 . S
C175 C176 1.369 . S
C176 C175 1.369 . S
C176 C177 1.408 . S
C176 H198 0.930 . S
C177 C172 1.348 . S
C177 C176 1.408 . S
C177 H199 0.930 . S
C178 O188 1.281 . S
C178 O189 1.254 . S
C179 O190 1.236 . S
C179 O191 1.266 . S
O180 Tb160 2.484 . S
O180 C162 1.248 . S
O181 Tb160 2.440 . S
O181 C162 1.266 . S
O182 Tb160 2.658 . S
O182 Tb161 2.325 . S
O182 C169 1.281 . S
O183 Tb160 2.409 . S
O183 C169 1.254 . S
O184 Tb160 2.378 . S
O184 C170 1.236 . S
O185 Tb161 2.341 . S
O185 C170 1.266 . S
O186 Tb161 2.484 1_545 S
O186 C171 1.248 . S
O187 Tb161 2.440 1_545 S
O187 C171 1.266 . S
O188 Tb160 2.325 . S
O188 Tb161 2.658 . S
O188 C178 1.281 . S
O189 Tb161 2.409 . S
O189 C178 1.254 . S
O190 Tb161 2.378 . S
O190 C179 1.236 . S
O191 Tb160 2.341 . S
O191 C179 1.266 . S
H192 C164 0.929 . S
H193 C165 0.931 . S
H194 C167 0.930 . S
H195 C168 0.930 . S
H196 C173 0.929 . S
H197 C174 0.931 . S
H198 C176 0.930 . S
H199 C177 0.930 . S
Tb200 C202 2.809 . S
Tb200 O220 2.484 . S
Tb200 O221 2.440 . S
Tb200 O222 2.658 . S
Tb200 O223 2.409 . S
Tb200 O224 2.378 . S
Tb200 O228 2.325 . S
Tb200 O231 2.341 . S
Tb201 C211 2.809 1_545 S
Tb201 O222 2.325 . S
Tb201 O225 2.341 . S
Tb201 O226 2.484 1_545 S
Tb201 O227 2.440 1_545 S
Tb201 O228 2.658 . S
Tb201 O229 2.409 . S
Tb201 O230 2.378 . S
C202 Tb200 2.809 . S
C202 C203 1.514 . S
C202 O220 1.248 . S
C202 O221 1.266 . S
C203 C202 1.514 . S
C203 C204 1.359 . S
C203 C208 1.348 . S
C204 C203 1.359 . S
C204 C205 1.380 . S
C204 H232 0.929 . S
C205 C204 1.380 . S
C205 C206 1.347 . S
C205 H233 0.931 . S
C206 C205 1.347 . S
C206 C207 1.369 . S
C207 C206 1.369 . S
C207 C208 1.408 . S
C207 H234 0.930 . S
C208 C203 1.348 . S
C208 C207 1.408 . S
C208 H235 0.930 . S
C209 O222 1.281 . S
C209 O223 1.254 . S
C210 O224 1.236 . S
C210 O225 1.266 . S
C211 Tb201 2.809 1_565 S
C211 C212 1.514 . S
C211 O226 1.248 . S
C211 O227 1.266 . S
C212 C211 1.514 . S
C212 C213 1.359 . S
C212 C217 1.348 . S
C213 C212 1.359 . S
C213 C214 1.380 . S
C213 H236 0.929 . S
C214 C213 1.380 . S
C214 C215 1.347 . S
C214 H237 0.931 . S
C215 C214 1.347 . S
C215 C216 1.369 . S
C216 C215 1.369 . S
C216 C217 1.408 . S
C216 H238 0.930 . S
C217 C212 1.348 . S
C217 C216 1.408 . S
C217 H239 0.930 . S
C218 O228 1.281 . S
C218 O229 1.254 . S
C219 O230 1.236 . S
C219 O231 1.266 . S
O220 Tb200 2.484 . S
O220 C202 1.248 . S
O221 Tb200 2.440 . S
O221 C202 1.266 . S
O222 Tb200 2.658 . S
O222 Tb201 2.325 . S
O222 C209 1.281 . S
O223 Tb200 2.409 . S
O223 C209 1.254 . S
O224 Tb200 2.378 . S
O224 C210 1.236 . S
O225 Tb201 2.341 . S
O225 C210 1.266 . S
O226 Tb201 2.484 1_565 S
O226 C211 1.248 . S
O227 Tb201 2.440 1_565 S
O227 C211 1.266 . S
O228 Tb200 2.325 . S
O228 Tb201 2.658 . S
O228 C218 1.281 . S
O229 Tb201 2.409 . S
O229 C218 1.254 . S
O230 Tb201 2.378 . S
O230 C219 1.236 . S
O231 Tb200 2.341 . S
O231 C219 1.266 . S
H232 C204 0.929 . S
H233 C205 0.931 . S
H234 C207 0.930 . S
H235 C208 0.930 . S
H236 C213 0.929 . S
H237 C214 0.931 . S
H238 C216 0.930 . S
H239 C217 0.930 . S
Tb240 C242 2.809 . S
Tb240 O260 2.484 . S
Tb240 O261 2.440 . S
Tb240 O262 2.658 . S
Tb240 O263 2.409 . S
Tb240 O264 2.378 . S
Tb240 O268 2.325 . S
Tb240 O271 2.341 . S
Tb241 C251 2.809 1_545 S
Tb241 O262 2.325 . S
Tb241 O265 2.341 . S
Tb241 O266 2.484 1_545 S
Tb241 O267 2.440 1_545 S
Tb241 O268 2.658 . S
Tb241 O269 2.409 . S
Tb241 O270 2.378 . S
C242 Tb240 2.809 . S
C242 C243 1.514 . S
C242 O260 1.248 . S
C242 O261 1.266 . S
C243 C242 1.514 . S
C243 C244 1.359 . S
C243 C248 1.348 . S
C244 C243 1.359 . S
C244 C245 1.380 . S
C244 H272 0.929 . S
C245 C244 1.380 . S
C245 C246 1.347 . S
C245 H273 0.931 . S
C246 C245 1.347 . S
C246 C247 1.369 . S
C247 C246 1.369 . S
C247 C248 1.408 . S
C247 H274 0.930 . S
C248 C243 1.348 . S
C248 C247 1.408 . S
C248 H275 0.930 . S
C249 O262 1.281 . S
C249 O263 1.254 . S
C250 O264 1.236 . S
C250 O265 1.266 . S
C251 Tb241 2.809 1_565 S
C251 C252 1.514 . S
C251 O266 1.248 . S
C251 O267 1.266 . S
C252 C251 1.514 . S
C252 C253 1.359 . S
C252 C257 1.348 . S
C253 C252 1.359 . S
C253 C254 1.380 . S
C253 H276 0.929 . S
C254 C253 1.380 . S
C254 C255 1.347 . S
C254 H277 0.931 . S
C255 C254 1.347 . S
C255 C256 1.369 . S
C256 C255 1.369 . S
C256 C257 1.408 . S
C256 H278 0.930 . S
C257 C252 1.348 . S
C257 C256 1.408 . S
C257 H279 0.930 . S
C258 O268 1.281 . S
C258 O269 1.254 . S
C259 O270 1.236 . S
C259 O271 1.266 . S
O260 Tb240 2.484 . S
O260 C242 1.248 . S
O261 Tb240 2.440 . S
O261 C242 1.266 . S
O262 Tb240 2.658 . S
O262 Tb241 2.325 . S
O262 C249 1.281 . S
O263 Tb240 2.409 . S
O263 C249 1.254 . S
O264 Tb240 2.378 . S
O264 C250 1.236 . S
O265 Tb241 2.341 . S
O265 C250 1.266 . S
O266 Tb241 2.484 1_565 S
O266 C251 1.248 . S
O267 Tb241 2.440 1_565 S
O267 C251 1.266 . S
O268 Tb240 2.325 . S
O268 Tb241 2.658 . S
O268 C258 1.281 . S
O269 Tb241 2.409 . S
O269 C258 1.254 . S
O270 Tb241 2.378 . S
O270 C259 1.236 . S
O271 Tb240 2.341 . S
O271 C259 1.266 . S
H272 C244 0.929 . S
H273 C245 0.931 . S
H274 C247 0.930 . S
H275 C248 0.930 . S
H276 C253 0.929 . S
H277 C254 0.931 . S
H278 C256 0.930 . S
H279 C257 0.930 . S
Tb280 C282 2.809 . S
Tb280 O300 2.484 . S
Tb280 O301 2.440 . S
Tb280 O302 2.658 . S
Tb280 O303 2.409 . S
Tb280 O304 2.378 . S
Tb280 O308 2.325 . S
Tb280 O311 2.341 . S
Tb281 C291 2.809 1_565 S
Tb281 O302 2.325 . S
Tb281 O305 2.341 . S
Tb281 O306 2.484 1_565 S
Tb281 O307 2.440 1_565 S
Tb281 O308 2.658 . S
Tb281 O309 2.409 . S
Tb281 O310 2.378 . S
C282 Tb280 2.809 . S
C282 C283 1.514 . S
C282 O300 1.248 . S
C282 O301 1.266 . S
C283 C282 1.514 . S
C283 C284 1.359 . S
C283 C288 1.348 . S
C284 C283 1.359 . S
C284 C285 1.380 . S
C284 H312 0.929 . S
C285 C284 1.380 . S
C285 C286 1.347 . S
C285 H313 0.931 . S
C286 C285 1.347 . S
C286 C287 1.369 . S
C287 C286 1.369 . S
C287 C288 1.408 . S
C287 H314 0.930 . S
C288 C283 1.348 . S
C288 C287 1.408 . S
C288 H315 0.930 . S
C289 O302 1.281 . S
C289 O303 1.254 . S
C290 O304 1.236 . S
C290 O305 1.266 . S
C291 Tb281 2.809 1_545 S
C291 C292 1.514 . S
C291 O306 1.248 . S
C291 O307 1.266 . S
C292 C291 1.514 . S
C292 C293 1.359 . S
C292 C297 1.348 . S
C293 C292 1.359 . S
C293 C294 1.380 . S
C293 H316 0.929 . S
C294 C293 1.380 . S
C294 C295 1.347 . S
C294 H317 0.931 . S
C295 C294 1.347 . S
C295 C296 1.369 . S
C296 C295 1.369 . S
C296 C297 1.408 . S
C296 H318 0.930 . S
C297 C292 1.348 . S
C297 C296 1.408 . S
C297 H319 0.930 . S
C298 O308 1.281 . S
C298 O309 1.254 . S
C299 O310 1.236 . S
C299 O311 1.266 . S
O300 Tb280 2.484 . S
O300 C282 1.248 . S
O301 Tb280 2.440 . S
O301 C282 1.266 . S
O302 Tb280 2.658 . S
O302 Tb281 2.325 . S
O302 C289 1.281 . S
O303 Tb280 2.409 . S
O303 C289 1.254 . S
O304 Tb280 2.378 . S
O304 C290 1.236 . S
O305 Tb281 2.341 . S
O305 C290 1.266 . S
O306 Tb281 2.484 1_545 S
O306 C291 1.248 . S
O307 Tb281 2.440 1_545 S
O307 C291 1.266 . S
O308 Tb280 2.325 . S
O308 Tb281 2.658 . S
O308 C298 1.281 . S
O309 Tb281 2.409 . S
O309 C298 1.254 . S
O310 Tb281 2.378 . S
O310 C299 1.236 . S
O311 Tb280 2.341 . S
O311 C299 1.266 . S
H312 C284 0.929 . S
H313 C285 0.931 . S
H314 C287 0.930 . S
H315 C288 0.930 . S
H316 C293 0.929 . S
H317 C294 0.931 . S
H318 C296 0.930 . S
H319 C297 0.930 . S
Tb320 C322 2.809 . S
Tb320 O340 2.484 . S
Tb320 O341 2.440 . S
Tb320 O342 2.658 . S
Tb320 O343 2.409 . S
Tb320 O344 2.378 . S
Tb320 O348 2.325 . S
Tb320 O351 2.341 . S
Tb321 C331 2.809 . S
Tb321 O342 2.325 . S
Tb321 O345 2.341 . S
Tb321 O346 2.484 . S
Tb321 O347 2.440 . S
Tb321 O348 2.658 . S
Tb321 O349 2.409 . S
Tb321 O350 2.378 . S
C322 Tb320 2.809 . S
C322 C323 1.514 . S
C322 O340 1.248 . S
C322 O341 1.266 . S
C323 C322 1.514 . S
C323 C324 1.359 . S
C323 C328 1.348 . S
C324 C323 1.359 . S
C324 C325 1.380 . S
C324 H352 0.929 . S
C325 C324 1.380 . S
C325 C326 1.347 . S
C325 H353 0.931 . S
C326 C325 1.347 . S
C326 C327 1.369 . S
C327 C326 1.369 . S
C327 C328 1.408 . S
C327 H354 0.930 . S
C328 C323 1.348 . S
C328 C327 1.408 . S
C328 H355 0.930 . S
C329 O342 1.281 . S
C329 O343 1.254 . S
C330 O344 1.236 . S
C330 O345 1.266 . S
C331 Tb321 2.809 . S
C331 C332 1.514 . S
C331 O346 1.248 . S
C331 O347 1.266 . S
C332 C331 1.514 . S
C332 C333 1.359 . S
C332 C337 1.348 . S
C333 C332 1.359 . S
C333 C334 1.380 . S
C333 H356 0.929 . S
C334 C333 1.380 . S
C334 C335 1.347 . S
C334 H357 0.931 . S
C335 C334 1.347 . S
C335 C336 1.369 . S
C336 C335 1.369 . S
C336 C337 1.408 . S
C336 H358 0.930 . S
C337 C332 1.348 . S
C337 C336 1.408 . S
C337 H359 0.930 . S
C338 O348 1.281 . S
C338 O349 1.254 . S
C339 O350 1.236 . S
C339 O351 1.266 . S
O340 Tb320 2.484 . S
O340 C322 1.248 . S
O341 Tb320 2.440 . S
O341 C322 1.266 . S
O342 Tb320 2.658 . S
O342 Tb321 2.325 . S
O342 C329 1.281 . S
O343 Tb320 2.409 . S
O343 C329 1.254 . S
O344 Tb320 2.378 . S
O344 C330 1.236 . S
O345 Tb321 2.341 . S
O345 C330 1.266 . S
O346 Tb321 2.484 . S
O346 C331 1.248 . S
O347 Tb321 2.440 . S
O347 C331 1.266 . S
O348 Tb320 2.325 . S
O348 Tb321 2.658 . S
O348 C338 1.281 . S
O349 Tb321 2.409 . S
O349 C338 1.254 . S
O350 Tb321 2.378 . S
O350 C339 1.236 . S
O351 Tb320 2.341 . S
O351 C339 1.266 . S
H352 C324 0.929 . S
H353 C325 0.931 . S
H354 C327 0.930 . S
H355 C328 0.930 . S
H356 C333 0.929 . S
H357 C334 0.931 . S
H358 C336 0.930 . S
H359 C337 0.930 . S
Tb360 C362 2.809 . S
Tb360 O380 2.484 . S
Tb360 O381 2.440 . S
Tb360 O382 2.658 . S
Tb360 O383 2.409 . S
Tb360 O384 2.378 . S
Tb360 O388 2.325 . S
Tb360 O391 2.341 . S
Tb361 C371 2.809 . S
Tb361 O382 2.325 . S
Tb361 O385 2.341 . S
Tb361 O386 2.484 . S
Tb361 O387 2.440 . S
Tb361 O388 2.658 . S
Tb361 O389 2.409 . S
Tb361 O390 2.378 . S
C362 Tb360 2.809 . S
C362 C363 1.514 . S
C362 O380 1.248 . S
C362 O381 1.266 . S
C363 C362 1.514 . S
C363 C364 1.359 . S
C363 C368 1.348 . S
C364 C363 1.359 . S
C364 C365 1.380 . S
C364 H392 0.929 . S
C365 C364 1.380 . S
C365 C366 1.347 . S
C365 H393 0.931 . S
C366 C365 1.347 . S
C366 C367 1.369 . S
C367 C366 1.369 . S
C367 C368 1.408 . S
C367 H394 0.930 . S
C368 C363 1.348 . S
C368 C367 1.408 . S
C368 H395 0.930 . S
C369 O382 1.281 . S
C369 O383 1.254 . S
C370 O384 1.236 . S
C370 O385 1.266 . S
C371 Tb361 2.809 . S
C371 C372 1.514 . S
C371 O386 1.248 . S
C371 O387 1.266 . S
C372 C371 1.514 . S
C372 C373 1.359 . S
C372 C377 1.348 . S
C373 C372 1.359 . S
C373 C374 1.380 . S
C373 H396 0.929 . S
C374 C373 1.380 . S
C374 C375 1.347 . S
C374 H397 0.931 . S
C375 C374 1.347 . S
C375 C376 1.369 . S
C376 C375 1.369 . S
C376 C377 1.408 . S
C376 H398 0.930 . S
C377 C372 1.348 . S
C377 C376 1.408 . S
C377 H399 0.930 . S
C378 O388 1.281 . S
C378 O389 1.254 . S
C379 O390 1.236 . S
C379 O391 1.266 . S
O380 Tb360 2.484 . S
O380 C362 1.248 . S
O381 Tb360 2.440 . S
O381 C362 1.266 . S
O382 Tb360 2.658 . S
O382 Tb361 2.325 . S
O382 C369 1.281 . S
O383 Tb360 2.409 . S
O383 C369 1.254 . S
O384 Tb360 2.378 . S
O384 C370 1.236 . S
O385 Tb361 2.341 . S
O385 C370 1.266 . S
O386 Tb361 2.484 . S
O386 C371 1.248 . S
O387 Tb361 2.440 . S
O387 C371 1.266 . S
O388 Tb360 2.325 . S
O388 Tb361 2.658 . S
O388 C378 1.281 . S
O389 Tb361 2.409 . S
O389 C378 1.254 . S
O390 Tb361 2.378 . S
O390 C379 1.236 . S
O391 Tb360 2.341 . S
O391 C379 1.266 . S
H392 C364 0.929 . S
H393 C365 0.931 . S
H394 C367 0.930 . S
H395 C368 0.930 . S
H396 C373 0.929 . S
H397 C374 0.931 . S
H398 C376 0.930 . S
H399 C377 0.930 . S
Tb400 C402 2.809 . S
Tb400 O420 2.484 . S
Tb400 O421 2.440 . S
Tb400 O422 2.658 . S
Tb400 O423 2.409 . S
Tb400 O424 2.378 . S
Tb400 O428 2.325 . S
Tb400 O431 2.341 . S
Tb401 C411 2.809 . S
Tb401 O422 2.325 . S
Tb401 O425 2.341 . S
Tb401 O426 2.484 . S
Tb401 O427 2.440 . S
Tb401 O428 2.658 . S
Tb401 O429 2.409 . S
Tb401 O430 2.378 . S
C402 Tb400 2.809 . S
C402 C403 1.514 . S
C402 O420 1.248 . S
C402 O421 1.266 . S
C403 C402 1.514 . S
C403 C404 1.359 . S
C403 C408 1.348 . S
C404 C403 1.359 . S
C404 C405 1.380 . S
C404 H432 0.929 . S
C405 C404 1.380 . S
C405 C406 1.347 . S
C405 H433 0.931 . S
C406 C405 1.347 . S
C406 C407 1.369 . S
C407 C406 1.369 . S
C407 C408 1.408 . S
C407 H434 0.930 . S
C408 C403 1.348 . S
C408 C407 1.408 . S
C408 H435 0.930 . S
C409 O422 1.281 . S
C409 O423 1.254 . S
C410 O424 1.236 . S
C410 O425 1.266 . S
C411 Tb401 2.809 . S
C411 C412 1.514 . S
C411 O426 1.248 . S
C411 O427 1.266 . S
C412 C411 1.514 . S
C412 C413 1.359 . S
C412 C417 1.348 . S
C413 C412 1.359 . S
C413 C414 1.380 . S
C413 H436 0.929 . S
C414 C413 1.380 . S
C414 C415 1.347 . S
C414 H437 0.931 . S
C415 C414 1.347 . S
C415 C416 1.369 . S
C416 C415 1.369 . S
C416 C417 1.408 . S
C416 H438 0.930 . S
C417 C412 1.348 . S
C417 C416 1.408 . S
C417 H439 0.930 . S
C418 O428 1.281 . S
C418 O429 1.254 . S
C419 O430 1.236 . S
C419 O431 1.266 . S
O420 Tb400 2.484 . S
O420 C402 1.248 . S
O421 Tb400 2.440 . S
O421 C402 1.266 . S
O422 Tb400 2.658 . S
O422 Tb401 2.325 . S
O422 C409 1.281 . S
O423 Tb400 2.409 . S
O423 C409 1.254 . S
O424 Tb400 2.378 . S
O424 C410 1.236 . S
O425 Tb401 2.341 . S
O425 C410 1.266 . S
O426 Tb401 2.484 . S
O426 C411 1.248 . S
O427 Tb401 2.440 . S
O427 C411 1.266 . S
O428 Tb400 2.325 . S
O428 Tb401 2.658 . S
O428 C418 1.281 . S
O429 Tb401 2.409 . S
O429 C418 1.254 . S
O430 Tb401 2.378 . S
O430 C419 1.236 . S
O431 Tb400 2.341 . S
O431 C419 1.266 . S
H432 C404 0.929 . S
H433 C405 0.931 . S
H434 C407 0.930 . S
H435 C408 0.930 . S
H436 C413 0.929 . S
H437 C414 0.931 . S
H438 C416 0.930 . S
H439 C417 0.930 . S
Tb440 C442 2.809 . S
Tb440 O460 2.484 . S
Tb440 O461 2.440 . S
Tb440 O462 2.658 . S
Tb440 O463 2.409 . S
Tb440 O464 2.378 . S
Tb440 O468 2.325 . S
Tb440 O471 2.341 . S
Tb441 C451 2.809 . S
Tb441 O462 2.325 . S
Tb441 O465 2.341 . S
Tb441 O466 2.484 . S
Tb441 O467 2.440 . S
Tb441 O468 2.658 . S
Tb441 O469 2.409 . S
Tb441 O470 2.378 . S
C442 Tb440 2.809 . S
C442 C443 1.514 . S
C442 O460 1.248 . S
C442 O461 1.266 . S
C443 C442 1.514 . S
C443 C444 1.359 . S
C443 C448 1.348 . S
C444 C443 1.359 . S
C444 C445 1.380 . S
C444 H472 0.929 . S
C445 C444 1.380 . S
C445 C446 1.347 . S
C445 H473 0.931 . S
C446 C445 1.347 . S
C446 C447 1.369 . S
C447 C446 1.369 . S
C447 C448 1.408 . S
C447 H474 0.930 . S
C448 C443 1.348 . S
C448 C447 1.408 . S
C448 H475 0.930 . S
C449 O462 1.281 . S
C449 O463 1.254 . S
C450 O464 1.236 . S
C450 O465 1.266 . S
C451 Tb441 2.809 . S
C451 C452 1.514 . S
C451 O466 1.248 . S
C451 O467 1.266 . S
C452 C451 1.514 . S
C452 C453 1.359 . S
C452 C457 1.348 . S
C453 C452 1.359 . S
C453 C454 1.380 . S
C453 H476 0.929 . S
C454 C453 1.380 . S
C454 C455 1.347 . S
C454 H477 0.931 . S
C455 C454 1.347 . S
C455 C456 1.369 . S
C456 C455 1.369 . S
C456 C457 1.408 . S
C456 H478 0.930 . S
C457 C452 1.348 . S
C457 C456 1.408 . S
C457 H479 0.930 . S
C458 O468 1.281 . S
C458 O469 1.254 . S
C459 O470 1.236 . S
C459 O471 1.266 . S
O460 Tb440 2.484 . S
O460 C442 1.248 . S
O461 Tb440 2.440 . S
O461 C442 1.266 . S
O462 Tb440 2.658 . S
O462 Tb441 2.325 . S
O462 C449 1.281 . S
O463 Tb440 2.409 . S
O463 C449 1.254 . S
O464 Tb440 2.378 . S
O464 C450 1.236 . S
O465 Tb441 2.341 . S
O465 C450 1.266 . S
O466 Tb441 2.484 . S
O466 C451 1.248 . S
O467 Tb441 2.440 . S
O467 C451 1.266 . S
O468 Tb440 2.325 . S
O468 Tb441 2.658 . S
O468 C458 1.281 . S
O469 Tb441 2.409 . S
O469 C458 1.254 . S
O470 Tb441 2.378 . S
O470 C459 1.236 . S
O471 Tb440 2.341 . S
O471 C459 1.266 . S
H472 C444 0.929 . S
H473 C445 0.931 . S
H474 C447 0.930 . S
H475 C448 0.930 . S
H476 C453 0.929 . S
H477 C454 0.931 . S
H478 C456 0.930 . S
H479 C457 0.930 . S
Tb480 C482 2.809 . S
Tb480 O500 2.484 . S
Tb480 O501 2.440 . S
Tb480 O502 2.658 . S
Tb480 O503 2.409 . S
Tb480 O504 2.378 . S
Tb480 O508 2.325 . S
Tb480 O511 2.341 . S
Tb481 C491 2.809 . S
Tb481 O502 2.325 . S
Tb481 O505 2.341 . S
Tb481 O506 2.484 . S
Tb481 O507 2.440 . S
Tb481 O508 2.658 . S
Tb481 O509 2.409 . S
Tb481 O510 2.378 . S
C482 Tb480 2.809 . S
C482 C483 1.514 . S
C482 O500 1.248 . S
C482 O501 1.266 . S
C483 C482 1.514 . S
C483 C484 1.359 . S
C483 C488 1.348 . S
C484 C483 1.359 . S
C484 C485 1.380 . S
C484 H512 0.929 . S
C485 C484 1.380 . S
C485 C486 1.347 . S
C485 H513 0.931 . S
C486 C485 1.347 . S
C486 C487 1.369 . S
C487 C486 1.369 . S
C487 C488 1.408 . S
C487 H514 0.930 . S
C488 C483 1.348 . S
C488 C487 1.408 . S
C488 H515 0.930 . S
C489 O502 1.281 . S
C489 O503 1.254 . S
C490 O504 1.236 . S
C490 O505 1.266 . S
C491 Tb481 2.809 . S
C491 C492 1.514 . S
C491 O506 1.248 . S
C491 O507 1.266 . S
C492 C491 1.514 . S
C492 C493 1.359 . S
C492 C497 1.348 . S
C493 C492 1.359 . S
C493 C494 1.380 . S
C493 H516 0.929 . S
C494 C493 1.380 . S
C494 C495 1.347 . S
C494 H517 0.931 . S
C495 C494 1.347 . S
C495 C496 1.369 . S
C496 C495 1.369 . S
C496 C497 1.408 . S
C496 H518 0.930 . S
C497 C492 1.348 . S
C497 C496 1.408 . S
C497 H519 0.930 . S
C498 O508 1.281 . S
C498 O509 1.254 . S
C499 O510 1.236 . S
C499 O511 1.266 . S
O500 Tb480 2.484 . S
O500 C482 1.248 . S
O501 Tb480 2.440 . S
O501 C482 1.266 . S
O502 Tb480 2.658 . S
O502 Tb481 2.325 . S
O502 C489 1.281 . S
O503 Tb480 2.409 . S
O503 C489 1.254 . S
O504 Tb480 2.378 . S
O504 C490 1.236 . S
O505 Tb481 2.341 . S
O505 C490 1.266 . S
O506 Tb481 2.484 . S
O506 C491 1.248 . S
O507 Tb481 2.440 . S
O507 C491 1.266 . S
O508 Tb480 2.325 . S
O508 Tb481 2.658 . S
O508 C498 1.281 . S
O509 Tb481 2.409 . S
O509 C498 1.254 . S
O510 Tb481 2.378 . S
O510 C499 1.236 . S
O511 Tb480 2.341 . S
O511 C499 1.266 . S
H512 C484 0.929 . S
H513 C485 0.931 . S
H514 C487 0.930 . S
H515 C488 0.930 . S
H516 C493 0.929 . S
H517 C494 0.931 . S
H518 C496 0.930 . S
H519 C497 0.930 . S
Tb520 C522 2.809 . S
Tb520 O540 2.484 . S
Tb520 O541 2.440 . S
Tb520 O542 2.658 . S
Tb520 O543 2.409 . S
Tb520 O544 2.378 . S
Tb520 O548 2.325 . S
Tb520 O551 2.341 . S
Tb521 C531 2.809 . S
Tb521 O542 2.325 . S
Tb521 O545 2.341 . S
Tb521 O546 2.484 . S
Tb521 O547 2.440 . S
Tb521 O548 2.658 . S
Tb521 O549 2.409 . S
Tb521 O550 2.378 . S
C522 Tb520 2.809 . S
C522 C523 1.514 . S
C522 O540 1.248 . S
C522 O541 1.266 . S
C523 C522 1.514 . S
C523 C524 1.359 . S
C523 C528 1.348 . S
C524 C523 1.359 . S
C524 C525 1.380 . S
C524 H552 0.929 . S
C525 C524 1.380 . S
C525 C526 1.347 . S
C525 H553 0.931 . S
C526 C525 1.347 . S
C526 C527 1.369 . S
C527 C526 1.369 . S
C527 C528 1.408 . S
C527 H554 0.930 . S
C528 C523 1.348 . S
C528 C527 1.408 . S
C528 H555 0.930 . S
C529 O542 1.281 . S
C529 O543 1.254 . S
C530 O544 1.236 . S
C530 O545 1.266 . S
C531 Tb521 2.809 . S
C531 C532 1.514 . S
C531 O546 1.248 . S
C531 O547 1.266 . S
C532 C531 1.514 . S
C532 C533 1.359 . S
C532 C537 1.348 . S
C533 C532 1.359 . S
C533 C534 1.380 . S
C533 H556 0.929 . S
C534 C533 1.380 . S
C534 C535 1.347 . S
C534 H557 0.931 . S
C535 C534 1.347 . S
C535 C536 1.369 . S
C536 C535 1.369 . S
C536 C537 1.408 . S
C536 H558 0.930 . S
C537 C532 1.348 . S
C537 C536 1.408 . S
C537 H559 0.930 . S
C538 O548 1.281 . S
C538 O549 1.254 . S
C539 O550 1.236 . S
C539 O551 1.266 . S
O540 Tb520 2.484 . S
O540 C522 1.248 . S
O541 Tb520 2.440 . S
O541 C522 1.266 . S
O542 Tb520 2.658 . S
O542 Tb521 2.325 . S
O542 C529 1.281 . S
O543 Tb520 2.409 . S
O543 C529 1.254 . S
O544 Tb520 2.378 . S
O544 C530 1.236 . S
O545 Tb521 2.341 . S
O545 C530 1.266 . S
O546 Tb521 2.484 . S
O546 C531 1.248 . S
O547 Tb521 2.440 . S
O547 C531 1.266 . S
O548 Tb520 2.325 . S
O548 Tb521 2.658 . S
O548 C538 1.281 . S
O549 Tb521 2.409 . S
O549 C538 1.254 . S
O550 Tb521 2.378 . S
O550 C539 1.236 . S
O551 Tb520 2.341 . S
O551 C539 1.266 . S
H552 C524 0.929 . S
H553 C525 0.931 . S
H554 C527 0.930 . S
H555 C528 0.930 . S
H556 C533 0.929 . S
H557 C534 0.931 . S
H558 C536 0.930 . S
H559 C537 0.930 . S
Tb560 C562 2.809 . S
Tb560 O580 2.484 . S
Tb560 O581 2.440 . S
Tb560 O582 2.658 . S
Tb560 O583 2.409 . S
Tb560 O584 2.378 . S
Tb560 O588 2.325 . S
Tb560 O591 2.341 . S
Tb561 C571 2.809 . S
Tb561 O582 2.325 . S
Tb561 O585 2.341 . S
Tb561 O586 2.484 . S
Tb561 O587 2.440 . S
Tb561 O588 2.658 . S
Tb561 O589 2.409 . S
Tb561 O590 2.378 . S
C562 Tb560 2.809 . S
C562 C563 1.514 . S
C562 O580 1.248 . S
C562 O581 1.266 . S
C563 C562 1.514 . S
C563 C564 1.359 . S
C563 C568 1.348 . S
C564 C563 1.359 . S
C564 C565 1.380 . S
C564 H592 0.929 . S
C565 C564 1.380 . S
C565 C566 1.347 . S
C565 H593 0.931 . S
C566 C565 1.347 . S
C566 C567 1.369 . S
C567 C566 1.369 . S
C567 C568 1.408 . S
C567 H594 0.930 . S
C568 C563 1.348 . S
C568 C567 1.408 . S
C568 H595 0.930 . S
C569 O582 1.281 . S
C569 O583 1.254 . S
C570 O584 1.236 . S
C570 O585 1.266 . S
C571 Tb561 2.809 . S
C571 C572 1.514 . S
C571 O586 1.248 . S
C571 O587 1.266 . S
C572 C571 1.514 . S
C572 C573 1.359 . S
C572 C577 1.348 . S
C573 C572 1.359 . S
C573 C574 1.380 . S
C573 H596 0.929 . S
C574 C573 1.380 . S
C574 C575 1.347 . S
C574 H597 0.931 . S
C575 C574 1.347 . S
C575 C576 1.369 . S
C576 C575 1.369 . S
C576 C577 1.408 . S
C576 H598 0.930 . S
C577 C572 1.348 . S
C577 C576 1.408 . S
C577 H599 0.930 . S
C578 O588 1.281 . S
C578 O589 1.254 . S
C579 O590 1.236 . S
C579 O591 1.266 . S
O580 Tb560 2.484 . S
O580 C562 1.248 . S
O581 Tb560 2.440 . S
O581 C562 1.266 . S
O582 Tb560 2.658 . S
O582 Tb561 2.325 . S
O582 C569 1.281 . S
O583 Tb560 2.409 . S
O583 C569 1.254 . S
O584 Tb560 2.378 . S
O584 C570 1.236 . S
O585 Tb561 2.341 . S
O585 C570 1.266 . S
O586 Tb561 2.484 . S
O586 C571 1.248 . S
O587 Tb561 2.440 . S
O587 C571 1.266 . S
O588 Tb560 2.325 . S
O588 Tb561 2.658 . S
O588 C578 1.281 . S
O589 Tb561 2.409 . S
O589 C578 1.254 . S
O590 Tb561 2.378 . S
O590 C579 1.236 . S
O591 Tb560 2.341 . S
O591 C579 1.266 . S
H592 C564 0.929 . S
H593 C565 0.931 . S
H594 C567 0.930 . S
H595 C568 0.930 . S
H596 C573 0.929 . S
H597 C574 0.931 . S
H598 C576 0.930 . S
H599 C577 0.930 . S
Tb600 C602 2.809 . S
Tb600 O620 2.484 . S
Tb600 O621 2.440 . S
Tb600 O622 2.658 . S
Tb600 O623 2.409 . S
Tb600 O624 2.378 . S
Tb600 O628 2.325 . S
Tb600 O631 2.341 . S
Tb601 C611 2.809 . S
Tb601 O622 2.325 . S
Tb601 O625 2.341 . S
Tb601 O626 2.484 . S
Tb601 O627 2.440 . S
Tb601 O628 2.658 . S
Tb601 O629 2.409 . S
Tb601 O630 2.378 . S
C602 Tb600 2.809 . S
C602 C603 1.514 . S
C602 O620 1.248 . S
C602 O621 1.266 . S
C603 C602 1.514 . S
C603 C604 1.359 . S
C603 C608 1.348 . S
C604 C603 1.359 . S
C604 C605 1.380 . S
C604 H632 0.929 . S
C605 C604 1.380 . S
C605 C606 1.347 . S
C605 H633 0.931 . S
C606 C605 1.347 . S
C606 C607 1.369 . S
C607 C606 1.369 . S
C607 C608 1.408 . S
C607 H634 0.930 . S
C608 C603 1.348 . S
C608 C607 1.408 . S
C608 H635 0.930 . S
C609 O622 1.281 . S
C609 O623 1.254 . S
C610 O624 1.236 . S
C610 O625 1.266 . S
C611 Tb601 2.809 . S
C611 C612 1.514 . S
C611 O626 1.248 . S
C611 O627 1.266 . S
C612 C611 1.514 . S
C612 C613 1.359 . S
C612 C617 1.348 . S
C613 C612 1.359 . S
C613 C614 1.380 . S
C613 H636 0.929 . S
C614 C613 1.380 . S
C614 C615 1.347 . S
C614 H637 0.931 . S
C615 C614 1.347 . S
C615 C616 1.369 . S
C616 C615 1.369 . S
C616 C617 1.408 . S
C616 H638 0.930 . S
C617 C612 1.348 . S
C617 C616 1.408 . S
C617 H639 0.930 . S
C618 O628 1.281 . S
C618 O629 1.254 . S
C619 O630 1.236 . S
C619 O631 1.266 . S
O620 Tb600 2.484 . S
O620 C602 1.248 . S
O621 Tb600 2.440 . S
O621 C602 1.266 . S
O622 Tb600 2.658 . S
O622 Tb601 2.325 . S
O622 C609 1.281 . S
O623 Tb600 2.409 . S
O623 C609 1.254 . S
O624 Tb600 2.378 . S
O624 C610 1.236 . S
O625 Tb601 2.341 . S
O625 C610 1.266 . S
O626 Tb601 2.484 . S
O626 C611 1.248 . S
O627 Tb601 2.440 . S
O627 C611 1.266 . S
O628 Tb600 2.325 . S
O628 Tb601 2.658 . S
O628 C618 1.281 . S
O629 Tb601 2.409 . S
O629 C618 1.254 . S
O630 Tb601 2.378 . S
O630 C619 1.236 . S
O631 Tb600 2.341 . S
O631 C619 1.266 . S
H632 C604 0.929 . S
H633 C605 0.931 . S
H634 C607 0.930 . S
H635 C608 0.930 . S
H636 C613 0.929 . S
H637 C614 0.931 . S
H638 C616 0.930 . S
H639 C617 0.930 . S
H640 C652 0.930 . S
H641 C654 0.930 . S
H642 C655 0.930 . S
H643 C659 0.959 . S
H644 C659 0.959 . S
H645 C659 0.961 . S
H646 C660 0.960 . S
H647 C660 0.961 . S
H648 C660 0.959 . S
H649 C663 0.929 . S
H650 C664 0.931 . S
H651 C666 0.930 . S
C652 H640 0.930 . S
C652 C653 1.399 . S
C652 C657 1.399 . S
C653 C652 1.399 . S
C653 C654 1.376 . S
C654 H641 0.930 . S
C654 C653 1.376 . S
C654 C655 1.388 . S
C655 H642 0.930 . S
C655 C654 1.388 . S
C655 C656 1.390 . S
C656 C655 1.390 . S
C656 C657 1.394 . S
C656 C662 1.465 . S
C657 C652 1.399 . S
C657 C656 1.394 . S
C657 C658 1.516 . S
C658 C657 1.516 . S
C658 C659 1.502 . S
C658 C660 1.561 . S
C658 C661 1.526 . S
C659 H643 0.959 . S
C659 H644 0.959 . S
C659 H645 0.961 . S
C659 C658 1.502 . S
C660 H646 0.960 . S
C660 H647 0.961 . S
C660 H648 0.959 . S
C660 C658 1.561 . S
C661 C658 1.526 . S
C661 C662 1.396 . S
C661 C666 1.390 . S
C662 C656 1.465 . S
C662 C661 1.396 . S
C662 C663 1.399 . S
C663 H649 0.929 . S
C663 C662 1.399 . S
C663 C664 1.385 . S
C664 H650 0.931 . S
C664 C663 1.385 . S
C664 C665 1.389 . S
C665 C664 1.389 . S
C665 C666 1.387 . S
C666 H651 0.930 . S
C666 C661 1.390 . S
C666 C665 1.387 . S
H667 C679 0.930 . S
H668 C681 0.930 . S
H669 C682 0.930 . S
H670 C686 0.959 . S
H671 C686 0.959 . S
H672 C686 0.961 . S
H673 C687 0.960 . S
H674 C687 0.961 . S
H675 C687 0.959 . S
H676 C690 0.929 . S
H677 C691 0.931 . S
H678 C693 0.930 . S
C679 H667 0.930 . S
C679 C680 1.399 . S
C679 C684 1.399 . S
C680 C679 1.399 . S
C680 C681 1.376 . S
C681 H668 0.930 . S
C681 C680 1.376 . S
C681 C682 1.388 . S
C682 H669 0.930 . S
C682 C681 1.388 . S
C682 C683 1.390 . S
C683 C682 1.390 . S
C683 C684 1.394 . S
C683 C689 1.465 . S
C684 C679 1.399 . S
C684 C683 1.394 . S
C684 C685 1.516 . S
C685 C684 1.516 . S
C685 C686 1.502 . S
C685 C687 1.561 . S
C685 C688 1.526 . S
C686 H670 0.959 . S
C686 H671 0.959 . S
C686 H672 0.961 . S
C686 C685 1.502 . S
C687 H673 0.960 . S
C687 H674 0.961 . S
C687 H675 0.959 . S
C687 C685 1.561 . S
C688 C685 1.526 . S
C688 C689 1.396 . S
C688 C693 1.390 . S
C689 C683 1.465 . S
C689 C688 1.396 . S
C689 C690 1.399 . S
C690 H676 0.929 . S
C690 C689 1.399 . S
C690 C691 1.385 . S
C691 H677 0.931 . S
C691 C690 1.385 . S
C691 C692 1.389 . S
C692 C691 1.389 . S
C692 C693 1.387 . S
C693 H678 0.930 . S
C693 C688 1.390 . S
C693 C692 1.387 . S
H694 C706 0.930 . S
H695 C708 0.930 . S
H696 C709 0.930 . S
H697 C713 0.959 . S
H698 C713 0.959 . S
H699 C713 0.961 . S
H700 C714 0.960 . S
H701 C714 0.961 . S
H702 C714 0.959 . S
H703 C717 0.929 . S
H704 C718 0.931 . S
H705 C720 0.930 . S
C706 H694 0.930 . S
C706 C707 1.399 . S
C706 C711 1.399 . S
C707 C706 1.399 . S
C707 C708 1.376 . S
C708 H695 0.930 . S
C708 C707 1.376 . S
C708 C709 1.388 . S
C709 H696 0.930 . S
C709 C708 1.388 . S
C709 C710 1.390 . S
C710 C709 1.390 . S
C710 C711 1.394 . S
C710 C716 1.465 . S
C711 C706 1.399 . S
C711 C710 1.394 . S
C711 C712 1.516 . S
C712 C711 1.516 . S
C712 C713 1.502 . S
C712 C714 1.561 . S
C712 C715 1.526 . S
C713 H697 0.959 . S
C713 H698 0.959 . S
C713 H699 0.961 . S
C713 C712 1.502 . S
C714 H700 0.960 . S
C714 H701 0.961 . S
C714 H702 0.959 . S
C714 C712 1.561 . S
C715 C712 1.526 . S
C715 C716 1.396 . S
C715 C720 1.390 . S
C716 C710 1.465 . S
C716 C715 1.396 . S
C716 C717 1.399 . S
C717 H703 0.929 . S
C717 C716 1.399 . S
C717 C718 1.385 . S
C718 H704 0.931 . S
C718 C717 1.385 . S
C718 C719 1.389 . S
C719 C718 1.389 . S
C719 C720 1.387 . S
C720 H705 0.930 . S
C720 C715 1.390 . S
C720 C719 1.387 . S
H721 C733 0.930 . S
H722 C735 0.930 . S
H723 C736 0.930 . S
H724 C740 0.959 . S
H725 C740 0.959 . S
H726 C740 0.961 . S
H727 C741 0.960 . S
H728 C741 0.961 . S
H729 C741 0.959 . S
H730 C744 0.929 . S
H731 C745 0.931 . S
H732 C747 0.930 . S
C733 H721 0.930 . S
C733 C734 1.399 . S
C733 C738 1.399 . S
C734 C733 1.399 . S
C734 C735 1.376 . S
C735 H722 0.930 . S
C735 C734 1.376 . S
C735 C736 1.388 . S
C736 H723 0.930 . S
C736 C735 1.388 . S
C736 C737 1.390 . S
C737 C736 1.390 . S
C737 C738 1.394 . S
C737 C743 1.465 . S
C738 C733 1.399 . S
C738 C737 1.394 . S
C738 C739 1.516 . S
C739 C738 1.516 . S
C739 C740 1.502 . S
C739 C741 1.561 . S
C739 C742 1.526 . S
C740 H724 0.959 . S
C740 H725 0.959 . S
C740 H726 0.961 . S
C740 C739 1.502 . S
C741 H727 0.960 . S
C741 H728 0.961 . S
C741 H729 0.959 . S
C741 C739 1.561 . S
C742 C739 1.526 . S
C742 C743 1.396 . S
C742 C747 1.390 . S
C743 C737 1.465 . S
C743 C742 1.396 . S
C743 C744 1.399 . S
C744 H730 0.929 . S
C744 C743 1.399 . S
C744 C745 1.385 . S
C745 H731 0.931 . S
C745 C744 1.385 . S
C745 C746 1.389 . S
C746 C745 1.389 . S
C746 C747 1.387 . S
C747 H732 0.930 . S
C747 C742 1.390 . S
C747 C746 1.387 . S
H748 C760 0.930 . S
H749 C762 0.930 . S
H750 C763 0.930 . S
H751 C767 0.959 . S
H752 C767 0.959 . S
H753 C767 0.961 . S
H754 C768 0.960 . S
H755 C768 0.961 . S
H756 C768 0.959 . S
H757 C771 0.929 . S
H758 C772 0.931 . S
H759 C774 0.930 . S
C760 H748 0.930 . S
C760 C761 1.399 . S
C760 C765 1.399 . S
C761 C760 1.399 . S
C761 C762 1.376 . S
C762 H749 0.930 . S
C762 C761 1.376 . S
C762 C763 1.388 . S
C763 H750 0.930 . S
C763 C762 1.388 . S
C763 C764 1.390 . S
C764 C763 1.390 . S
C764 C765 1.394 . S
C764 C770 1.465 . S
C765 C760 1.399 . S
C765 C764 1.394 . S
C765 C766 1.516 . S
C766 C765 1.516 . S
C766 C767 1.502 . S
C766 C768 1.561 . S
C766 C769 1.526 . S
C767 H751 0.959 . S
C767 H752 0.959 . S
C767 H753 0.961 . S
C767 C766 1.502 . S
C768 H754 0.960 . S
C768 H755 0.961 . S
C768 H756 0.959 . S
C768 C766 1.561 . S
C769 C766 1.526 . S
C769 C770 1.396 . S
C769 C774 1.390 . S
C770 C764 1.465 . S
C770 C769 1.396 . S
C770 C771 1.399 . S
C771 H757 0.929 . S
C771 C770 1.399 . S
C771 C772 1.385 . S
C772 H758 0.931 . S
C772 C771 1.385 . S
C772 C773 1.389 . S
C773 C772 1.389 . S
C773 C774 1.387 . S
C774 H759 0.930 . S
C774 C769 1.390 . S
C774 C773 1.387 . S
H775 C787 0.930 . S
H776 C789 0.930 . S
H777 C790 0.930 . S
H778 C794 0.959 . S
H779 C794 0.959 . S
H780 C794 0.961 . S
H781 C795 0.960 . S
H782 C795 0.961 . S
H783 C795 0.959 . S
H784 C798 0.929 . S
H785 C799 0.931 . S
H786 C801 0.930 . S
C787 H775 0.930 . S
C787 C788 1.399 . S
C787 C792 1.399 . S
C788 C787 1.399 . S
C788 C789 1.376 . S
C789 H776 0.930 . S
C789 C788 1.376 . S
C789 C790 1.388 . S
C790 H777 0.930 . S
C790 C789 1.388 . S
C790 C791 1.390 . S
C791 C790 1.390 . S
C791 C792 1.394 . S
C791 C797 1.465 . S
C792 C787 1.399 . S
C792 C791 1.394 . S
C792 C793 1.516 . S
C793 C792 1.516 . S
C793 C794 1.502 . S
C793 C795 1.561 . S
C793 C796 1.526 . S
C794 H778 0.959 . S
C794 H779 0.959 . S
C794 H780 0.961 . S
C794 C793 1.502 . S
C795 H781 0.960 . S
C795 H782 0.961 . S
C795 H783 0.959 . S
C795 C793 1.561 . S
C796 C793 1.526 . S
C796 C797 1.396 . S
C796 C801 1.390 . S
C797 C791 1.465 . S
C797 C796 1.396 . S
C797 C798 1.399 . S
C798 H784 0.929 . S
C798 C797 1.399 . S
C798 C799 1.385 . S
C799 H785 0.931 . S
C799 C798 1.385 . S
C799 C800 1.389 . S
C800 C799 1.389 . S
C800 C801 1.387 . S
C801 H786 0.930 . S
C801 C796 1.390 . S
C801 C800 1.387 . S
H802 C814 0.930 . S
H803 C816 0.930 . S
H804 C817 0.930 . S
H805 C821 0.959 . S
H806 C821 0.959 . S
H807 C821 0.961 . S
H808 C822 0.960 . S
H809 C822 0.961 . S
H810 C822 0.959 . S
H811 C825 0.929 . S
H812 C826 0.931 . S
H813 C828 0.930 . S
C814 H802 0.930 . S
C814 C815 1.399 . S
C814 C819 1.399 . S
C815 C814 1.399 . S
C815 C816 1.376 . S
C816 H803 0.930 . S
C816 C815 1.376 . S
C816 C817 1.388 . S
C817 H804 0.930 . S
C817 C816 1.388 . S
C817 C818 1.390 . S
C818 C817 1.390 . S
C818 C819 1.394 . S
C818 C824 1.465 . S
C819 C814 1.399 . S
C819 C818 1.394 . S
C819 C820 1.516 . S
C820 C819 1.516 . S
C820 C821 1.502 . S
C820 C822 1.561 . S
C820 C823 1.526 . S
C821 H805 0.959 . S
C821 H806 0.959 . S
C821 H807 0.961 . S
C821 C820 1.502 . S
C822 H808 0.960 . S
C822 H809 0.961 . S
C822 H810 0.959 . S
C822 C820 1.561 . S
C823 C820 1.526 . S
C823 C824 1.396 . S
C823 C828 1.390 . S
C824 C818 1.465 . S
C824 C823 1.396 . S
C824 C825 1.399 . S
C825 H811 0.929 . S
C825 C824 1.399 . S
C825 C826 1.385 . S
C826 H812 0.931 . S
C826 C825 1.385 . S
C826 C827 1.389 . S
C827 C826 1.389 . S
C827 C828 1.387 . S
C828 H813 0.930 . S
C828 C823 1.390 . S
C828 C827 1.387 . S
H829 C841 0.930 . S
H830 C843 0.930 . S
H831 C844 0.930 . S
H832 C848 0.959 . S
H833 C848 0.959 . S
H834 C848 0.961 . S
H835 C849 0.960 . S
H836 C849 0.961 . S
H837 C849 0.959 . S
H838 C852 0.929 . S
H839 C853 0.931 . S
H840 C855 0.930 . S
C841 H829 0.930 . S
C841 C842 1.399 . S
C841 C846 1.399 . S
C842 C841 1.399 . S
C842 C843 1.376 . S
C843 H830 0.930 . S
C843 C842 1.376 . S
C843 C844 1.388 . S
C844 H831 0.930 . S
C844 C843 1.388 . S
C844 C845 1.390 . S
C845 C844 1.390 . S
C845 C846 1.394 . S
C845 C851 1.465 . S
C846 C841 1.399 . S
C846 C845 1.394 . S
C846 C847 1.516 . S
C847 C846 1.516 . S
C847 C848 1.502 . S
C847 C849 1.561 . S
C847 C850 1.526 . S
C848 H832 0.959 . S
C848 H833 0.959 . S
C848 H834 0.961 . S
C848 C847 1.502 . S
C849 H835 0.960 . S
C849 H836 0.961 . S
C849 H837 0.959 . S
C849 C847 1.561 . S
C850 C847 1.526 . S
C850 C851 1.396 . S
C850 C855 1.390 . S
C851 C845 1.465 . S
C851 C850 1.396 . S
C851 C852 1.399 . S
C852 H838 0.929 . S
C852 C851 1.399 . S
C852 C853 1.385 . S
C853 H839 0.931 . S
C853 C852 1.385 . S
C853 C854 1.389 . S
C854 C853 1.389 . S
C854 C855 1.387 . S
C855 H840 0.930 . S
C855 C850 1.390 . S
C855 C854 1.387 . S
H856 C868 0.930 . S
H857 C870 0.930 . S
H858 C871 0.930 . S
H859 C875 0.959 1_565 S
H860 C875 0.959 . S
H861 C875 0.961 1_565 S
H862 C876 0.960 . S
H863 C876 0.961 . S
H864 C876 0.959 . S
H865 C879 0.929 1_565 S
H866 C880 0.931 . S
H867 C882 0.930 . S
C868 H856 0.930 . S
C868 C869 1.399 . S
C868 C873 1.399 . S
C869 C868 1.399 . S
C869 C870 1.376 . S
C870 H857 0.930 . S
C870 C869 1.376 . S
C870 C871 1.388 . S
C871 H858 0.930 . S
C871 C870 1.388 . S
C871 C872 1.390 . S
C872 C871 1.390 . S
C872 C873 1.394 . S
C872 C878 1.465 1_565 S
C873 C868 1.399 . S
C873 C872 1.394 . S
C873 C874 1.516 1_565 S
C874 C873 1.516 1_545 S
C874 C875 1.502 . S
C874 C876 1.561 . S
C874 C877 1.526 . S
C875 H859 0.959 1_545 S
C875 H860 0.959 . S
C875 H861 0.961 1_545 S
C875 C874 1.502 . S
C876 H862 0.960 . S
C876 H863 0.961 . S
C876 H864 0.959 . S
C876 C874 1.561 . S
C877 C874 1.526 . S
C877 C878 1.396 . S
C877 C882 1.390 . S
C878 C872 1.465 1_545 S
C878 C877 1.396 . S
C878 C879 1.399 . S
C879 H865 0.929 1_545 S
C879 C878 1.399 . S
C879 C880 1.385 . S
C880 H866 0.931 . S
C880 C879 1.385 . S
C880 C881 1.389 . S
C881 C880 1.389 . S
C881 C882 1.387 . S
C882 H867 0.930 . S
C882 C877 1.390 . S
C882 C881 1.387 . S
H883 C895 0.930 . S
H884 C897 0.930 . S
H885 C898 0.930 . S
H886 C902 0.959 . S
H887 C902 0.959 . S
H888 C902 0.961 . S
H889 C903 0.960 . S
H890 C903 0.961 . S
H891 C903 0.959 . S
H892 C906 0.929 . S
H893 C907 0.931 . S
H894 C909 0.942 . S
C895 H883 0.930 . S
C895 C896 1.399 . S
C895 C900 1.399 . S
C896 C895 1.399 . S
C896 C897 1.376 . S
C897 H884 0.930 . S
C897 C896 1.376 . S
C897 C898 1.388 1_545 S
C898 H885 0.930 . S
C898 C897 1.388 1_565 S
C898 C899 1.390 . S
C899 C898 1.390 . S
C899 C900 1.394 1_565 S
C899 C905 1.465 . S
C900 C895 1.399 . S
C900 C899 1.394 1_545 S
C900 C901 1.516 . S
C901 C900 1.516 . S
C901 C902 1.502 . S
C901 C903 1.561 . S
C901 C904 1.526 1_545 S
C902 H886 0.959 . S
C902 H887 0.959 . S
C902 H888 0.961 . S
C902 C901 1.502 . S
C903 H889 0.960 . S
C903 H890 0.961 . S
C903 H891 0.959 . S
C903 C901 1.561 . S
C904 C901 1.526 1_565 S
C904 C905 1.396 . S
C904 C909 1.390 . S
C905 C899 1.465 . S
C905 C904 1.396 . S
C905 C906 1.399 . S
C906 H892 0.929 . S
C906 C905 1.399 . S
C906 C907 1.385 . S
C907 H893 0.931 . S
C907 C906 1.385 . S
C907 C908 1.389 . S
C908 C907 1.389 . S
C908 C909 1.387 . S
C909 H894 0.942 . S
C909 C904 1.390 . S
C909 C908 1.387 . S
H910 C922 0.930 . S
H911 C924 0.930 1_565 S
H912 C925 0.930 . S
H913 C929 0.959 . S
H914 C929 0.959 . S
H915 C929 0.961 . S
H916 C930 0.960 . S
H917 C930 0.961 . S
H918 C930 0.959 . S
H919 C933 0.929 . S
H920 C934 0.931 . S
H921 C936 0.930 1_545 S
C922 H910 0.930 . S
C922 C923 1.399 . S
C922 C927 1.399 . S
C923 C922 1.399 . S
C923 C924 1.376 . S
C924 H911 0.930 1_545 S
C924 C923 1.376 . S
C924 C925 1.388 1_545 S
C925 H912 0.930 . S
C925 C924 1.388 1_565 S
C925 C926 1.390 . S
C926 C925 1.390 . S
C926 C927 1.394 1_565 S
C926 C932 1.465 . S
C927 C922 1.399 . S
C927 C926 1.394 1_545 S
C927 C928 1.516 . S
C928 C927 1.516 . S
C928 C929 1.502 . S
C928 C930 1.561 . S
C928 C931 1.526 1_545 S
C929 H913 0.959 . S
C929 H914 0.959 . S
C929 H915 0.961 . S
C929 C928 1.502 . S
C930 H916 0.960 . S
C930 H917 0.961 . S
C930 H918 0.959 . S
C930 C928 1.561 . S
C931 C928 1.526 1_565 S
C931 C932 1.396 . S
C931 C936 1.390 . S
C932 C926 1.465 . S
C932 C931 1.396 . S
C932 C933 1.399 . S
C933 H919 0.929 . S
C933 C932 1.399 . S
C933 C934 1.385 . S
C934 H920 0.931 . S
C934 C933 1.385 . S
C934 C935 1.389 . S
C935 C934 1.389 . S
C935 C936 1.387 . S
C936 H921 0.930 1_565 S
C936 C931 1.390 . S
C936 C935 1.387 . S
H937 C949 0.930 . S
H938 C951 0.930 . S
H939 C952 0.930 . S
H940 C956 0.959 . S
H941 C956 0.959 . S
H942 C956 0.961 . S
H943 C957 0.960 . S
H944 C957 0.961 . S
H945 C957 0.959 . S
H946 C960 0.929 1_545 S
H947 C961 0.931 . S
H948 C963 0.930 . S
C949 H937 0.930 . S
C949 C950 1.399 . S
C949 C954 1.399 . S
C950 C949 1.399 . S
C950 C951 1.376 . S
C951 H938 0.930 . S
C951 C950 1.376 . S
C951 C952 1.388 . S
C952 H939 0.930 . S
C952 C951 1.388 . S
C952 C953 1.390 . S
C953 C952 1.390 . S
C953 C954 1.394 . S
C953 C959 1.454 1_545 S
C954 C949 1.399 . S
C954 C953 1.394 . S
C954 C955 1.516 1_545 S
C955 C954 1.516 1_565 S
C955 C956 1.502 . S
C955 C957 1.561 1_565 S
C955 C958 1.526 . S
C956 H940 0.959 . S
C956 H941 0.959 . S
C956 H942 0.961 . S
C956 C955 1.502 . S
C957 H943 0.960 . S
C957 H944 0.961 . S
C957 H945 0.959 . S
C957 C955 1.561 1_545 S
C958 C955 1.526 . S
C958 C959 1.407 . S
C958 C963 1.390 . S
C959 C953 1.454 1_565 S
C959 C958 1.407 . S
C959 C960 1.401 . S
C960 H946 0.929 1_565 S
C960 C959 1.401 . S
C960 C961 1.385 . S
C961 H947 0.931 . S
C961 C960 1.385 . S
C961 C962 1.389 . S
C962 C961 1.389 . S
C962 C963 1.387 . S
C963 H948 0.930 . S
C963 C958 1.390 . S
C963 C962 1.387 . S
H964 C976 0.930 . S
H965 C978 0.930 . S
H966 C979 0.930 . S
H967 C983 0.959 . S
H968 C983 0.959 . S
H969 C983 0.961 . S
H970 C984 0.960 . S
H971 C984 0.961 . S
H972 C984 0.959 . S
H973 C987 0.929 . S
H974 C988 0.931 . S
H975 C990 0.930 . S
C976 H964 0.930 . S
C976 C977 1.399 . S
C976 C981 1.399 . S
C977 C976 1.399 . S
C977 C978 1.376 . S
C978 H965 0.930 . S
C978 C977 1.376 . S
C978 C979 1.388 . S
C979 H966 0.930 . S
C979 C978 1.388 . S
C979 C980 1.390 . S
C980 C979 1.390 . S
C980 C981 1.394 . S
C980 C986 1.465 . S
C981 C976 1.399 . S
C981 C980 1.394 . S
C981 C982 1.516 . S
C982 C981 1.516 . S
C982 C983 1.502 . S
C982 C984 1.561 . S
C982 C985 1.526 . S
C983 H967 0.959 . S
C983 H968 0.959 . S
C983 H969 0.961 . S
C983 C982 1.502 . S
C984 H970 0.960 . S
C984 H971 0.961 . S
C984 H972 0.959 . S
C984 C982 1.561 . S
C985 C982 1.526 . S
C985 C986 1.396 . S
C985 C990 1.390 . S
C986 C980 1.465 . S
C986 C985 1.396 . S
C986 C987 1.399 . S
C987 H973 0.929 . S
C987 C986 1.399 . S
C987 C988 1.385 . S
C988 H974 0.931 . S
C988 C987 1.385 . S
C988 C989 1.389 . S
C989 C988 1.389 . S
C989 C990 1.387 . S
C990 H975 0.930 . S
C990 C985 1.390 . S
C990 C989 1.387 . S
H991 C1003 0.930 . S
H992 C1005 0.930 . S
H993 C1006 0.930 . S
H994 C1010 0.959 . S
H995 C1010 0.959 . S
H996 C1010 0.961 . S
H997 C1011 0.960 . S
H998 C1011 0.961 . S
H999 C1011 0.959 . S
H1000 C1014 0.929 . S
H1001 C1015 0.931 . S
H1002 C1017 0.930 . S
C1003 H991 0.930 . S
C1003 C1004 1.399 . S
C1003 C1008 1.399 . S
C1004 C1003 1.399 . S
C1004 C1005 1.376 . S
C1005 H992 0.930 . S
C1005 C1004 1.376 . S
C1005 C1006 1.388 . S
C1006 H993 0.930 . S
C1006 C1005 1.388 . S
C1006 C1007 1.390 . S
C1007 C1006 1.390 . S
C1007 C1008 1.394 . S
C1007 C1013 1.465 . S
C1008 C1003 1.399 . S
C1008 C1007 1.394 . S
C1008 C1009 1.516 . S
C1009 C1008 1.516 . S
C1009 C1010 1.502 . S
C1009 C1011 1.561 . S
C1009 C1012 1.526 . S
C1010 H994 0.959 . S
C1010 H995 0.959 . S
C1010 H996 0.961 . S
C1010 C1009 1.502 . S
C1011 H997 0.960 . S
C1011 H998 0.961 . S
C1011 H999 0.959 . S
C1011 C1009 1.561 . S
C1012 C1009 1.526 . S
C1012 C1013 1.396 . S
C1012 C1017 1.390 . S
C1013 C1007 1.465 . S
C1013 C1012 1.396 . S
C1013 C1014 1.399 . S
C1014 H1000 0.929 . S
C1014 C1013 1.399 . S
C1014 C1015 1.385 . S
C1015 H1001 0.931 . S
C1015 C1014 1.385 . S
C1015 C1016 1.389 . S
C1016 C1015 1.389 . S
C1016 C1017 1.387 . S
C1017 H1002 0.930 . S
C1017 C1012 1.390 . S
C1017 C1016 1.387 . S
H1018 C1030 0.930 . S
H1019 C1032 0.930 . S
H1020 C1033 0.930 . S
H1021 C1037 0.959 . S
H1022 C1037 0.959 . S
H1023 C1037 0.961 . S
H1024 C1038 0.960 . S
H1025 C1038 0.961 . S
H1026 C1038 0.959 . S
H1027 C1041 0.929 . S
H1028 C1042 0.931 . S
H1029 C1044 0.930 . S
C1030 H1018 0.930 . S
C1030 C1031 1.399 . S
C1030 C1035 1.399 . S
C1031 C1030 1.399 . S
C1031 C1032 1.376 . S
C1032 H1019 0.930 . S
C1032 C1031 1.376 . S
C1032 C1033 1.388 . S
C1033 H1020 0.930 . S
C1033 C1032 1.388 . S
C1033 C1034 1.390 . S
C1034 C1033 1.390 . S
C1034 C1035 1.394 . S
C1034 C1040 1.465 . S
C1035 C1030 1.399 . S
C1035 C1034 1.394 . S
C1035 C1036 1.516 . S
C1036 C1035 1.516 . S
C1036 C1037 1.502 . S
C1036 C1038 1.561 . S
C1036 C1039 1.526 . S
C1037 H1021 0.959 . S
C1037 H1022 0.959 . S
C1037 H1023 0.961 . S
C1037 C1036 1.502 . S
C1038 H1024 0.960 . S
C1038 H1025 0.961 . S
C1038 H1026 0.959 . S
C1038 C1036 1.561 . S
C1039 C1036 1.526 . S
C1039 C1040 1.396 . S
C1039 C1044 1.390 . S
C1040 C1034 1.465 . S
C1040 C1039 1.396 . S
C1040 C1041 1.399 . S
C1041 H1027 0.929 . S
C1041 C1040 1.399 . S
C1041 C1042 1.385 . S
C1042 H1028 0.931 . S
C1042 C1041 1.385 . S
C1042 C1043 1.389 . S
C1043 C1042 1.389 . S
C1043 C1044 1.387 . S
C1044 H1029 0.930 . S
C1044 C1039 1.390 . S
C1044 C1043 1.387 . S
H1045 C1057 0.930 . S
H1046 C1059 0.930 . S
H1047 C1060 0.930 . S
H1048 C1064 0.959 . S
H1049 C1064 0.959 . S
H1050 C1064 0.961 . S
H1051 C1065 0.960 . S
H1052 C1065 0.961 . S
H1053 C1065 0.959 . S
H1054 C1068 0.929 . S
H1055 C1069 0.931 . S
H1056 C1071 0.930 . S
C1057 H1045 0.930 . S
C1057 C1058 1.399 . S
C1057 C1062 1.399 . S
C1058 C1057 1.399 . S
C1058 C1059 1.376 . S
C1059 H1046 0.930 . S
C1059 C1058 1.376 . S
C1059 C1060 1.388 . S
C1060 H1047 0.930 . S
C1060 C1059 1.388 . S
C1060 C1061 1.390 . S
C1061 C1060 1.390 . S
C1061 C1062 1.394 . S
C1061 C1067 1.465 . S
C1062 C1057 1.399 . S
C1062 C1061 1.394 . S
C1062 C1063 1.516 . S
C1063 C1062 1.516 . S
C1063 C1064 1.502 . S
C1063 C1065 1.561 . S
C1063 C1066 1.526 . S
C1064 H1048 0.959 . S
C1064 H1049 0.959 . S
C1064 H1050 0.961 . S
C1064 C1063 1.502 . S
C1065 H1051 0.960 . S
C1065 H1052 0.961 . S
C1065 H1053 0.959 . S
C1065 C1063 1.561 . S
C1066 C1063 1.526 . S
C1066 C1067 1.396 . S
C1066 C1071 1.390 . S
C1067 C1061 1.465 . S
C1067 C1066 1.396 . S
C1067 C1068 1.399 . S
C1068 H1054 0.929 . S
C1068 C1067 1.399 . S
C1068 C1069 1.385 . S
C1069 H1055 0.931 . S
C1069 C1068 1.385 . S
C1069 C1070 1.389 . S
C1070 C1069 1.389 . S
C1070 C1071 1.387 . S
C1071 H1056 0.930 . S
C1071 C1066 1.390 . S
C1071 C1070 1.387 . S
H1072 C1084 0.930 . S
H1073 C1086 0.930 . S
H1074 C1087 0.930 . S
H1075 C1091 0.962 . S
H1076 C1091 0.979 . S
H1077 C1091 0.940 1_556 S
H1078 C1092 0.958 1_566 S
H1079 C1092 0.963 1_565 S
H1080 C1092 0.959 . S
H1081 C1095 0.929 . S
H1082 C1096 0.931 . S
H1083 C1098 0.930 . S
C1084 H1072 0.930 . S
C1084 C1085 1.399 . S
C1084 C1089 1.399 . S
C1085 C1084 1.399 . S
C1085 C1086 1.376 . S
C1086 H1073 0.930 . S
C1086 C1085 1.376 . S
C1086 C1087 1.388 . S
C1087 H1074 0.930 . S
C1087 C1086 1.388 . S
C1087 C1088 1.390 . S
C1088 C1087 1.390 . S
C1088 C1089 1.394 . S
C1088 C1094 1.465 1_556 S
C1089 C1084 1.399 . S
C1089 C1088 1.394 . S
C1089 C1090 1.517 1_556 S
C1090 C1089 1.517 1_554 S
C1090 C1091 1.502 . S
C1090 C1092 1.561 . S
C1090 C1093 1.525 . S
C1091 H1075 0.962 . S
C1091 H1076 0.979 . S
C1091 H1077 0.940 1_554 S
C1091 C1090 1.502 . S
C1092 H1078 0.958 1_544 S
C1092 H1079 0.963 1_545 S
C1092 H1080 0.959 . S
C1092 C1090 1.561 . S
C1093 C1090 1.525 . S
C1093 C1094 1.396 . S
C1093 C1098 1.390 . S
C1094 C1088 1.465 1_554 S
C1094 C1093 1.396 . S
C1094 C1095 1.399 . S
C1095 H1081 0.929 . S
C1095 C1094 1.399 . S
C1095 C1096 1.385 . S
C1096 H1082 0.931 . S
C1096 C1095 1.385 . S
C1096 C1097 1.389 . S
C1097 C1096 1.389 . S
C1097 C1098 1.387 . S
C1098 H1083 0.930 . S
C1098 C1093 1.390 . S
C1098 C1097 1.387 . S
H1099 C1111 0.930 . S
H1100 C1113 0.930 . S
H1101 C1114 0.930 . S
H1102 C1118 0.962 . S
H1103 C1118 0.980 1_545 S
H1104 C1118 0.940 1_556 S
H1105 C1119 0.958 1_546 S
H1106 C1119 0.963 1_545 S
H1107 C1119 0.959 . S
H1108 C1122 0.929 . S
H1109 C1123 0.931 . S
H1110 C1125 0.930 . S
C1111 H1099 0.930 . S
C1111 C1112 1.399 . S
C1111 C1116 1.399 . S
C1112 C1111 1.399 . S
C1112 C1113 1.376 . S
C1113 H1100 0.930 . S
C1113 C1112 1.376 . S
C1113 C1114 1.388 . S
C1114 H1101 0.930 . S
C1114 C1113 1.388 . S
C1114 C1115 1.390 . S
C1115 C1114 1.390 . S
C1115 C1116 1.394 . S
C1115 C1121 1.465 1_556 S
C1116 C1111 1.399 . S
C1116 C1115 1.394 . S
C1116 C1117 1.517 1_556 S
C1117 C1116 1.517 1_554 S
C1117 C1118 1.502 . S
C1117 C1119 1.561 . S
C1117 C1120 1.525 . S
C1118 H1102 0.962 . S
C1118 H1103 0.980 1_565 S
C1118 H1104 0.940 1_554 S
C1118 C1117 1.502 . S
C1119 H1105 0.958 1_564 S
C1119 H1106 0.963 1_565 S
C1119 H1107 0.959 . S
C1119 C1117 1.561 . S
C1120 C1117 1.525 . S
C1120 C1121 1.396 . S
C1120 C1125 1.390 . S
C1121 C1115 1.465 1_554 S
C1121 C1120 1.396 . S
C1121 C1122 1.399 . S
C1122 H1108 0.929 . S
C1122 C1121 1.399 . S
C1122 C1123 1.385 . S
C1123 H1109 0.931 . S
C1123 C1122 1.385 . S
C1123 C1124 1.389 . S
C1124 C1123 1.389 . S
C1124 C1125 1.387 . S
C1125 H1110 0.930 . S
C1125 C1120 1.390 . S
C1125 C1124 1.387 . S
H1126 C1138 0.930 . S
H1127 C1140 0.930 . S
H1128 C1141 0.930 . S
H1129 C1145 0.959 . S
H1130 C1145 0.959 . S
H1131 C1145 0.961 . S
H1132 C1146 0.960 . S
H1133 C1146 0.961 . S
H1134 C1146 0.959 . S
H1135 C1149 0.929 . S
H1136 C1150 0.931 . S
H1137 C1152 0.930 . S
C1138 H1126 0.930 . S
C1138 C1139 1.399 . S
C1138 C1143 1.399 . S
C1139 C1138 1.399 . S
C1139 C1140 1.376 . S
C1140 H1127 0.930 . S
C1140 C1139 1.376 . S
C1140 C1141 1.388 . S
C1141 H1128 0.930 . S
C1141 C1140 1.388 . S
C1141 C1142 1.390 . S
C1142 C1141 1.390 . S
C1142 C1143 1.394 . S
C1142 C1148 1.465 . S
C1143 C1138 1.399 . S
C1143 C1142 1.394 . S
C1143 C1144 1.516 . S
C1144 C1143 1.516 . S
C1144 C1145 1.502 . S
C1144 C1146 1.561 . S
C1144 C1147 1.526 . S
C1145 H1129 0.959 . S
C1145 H1130 0.959 . S
C1145 H1131 0.961 . S
C1145 C1144 1.502 . S
C1146 H1132 0.960 . S
C1146 H1133 0.961 . S
C1146 H1134 0.959 . S
C1146 C1144 1.561 . S
C1147 C1144 1.526 . S
C1147 C1148 1.396 . S
C1147 C1152 1.390 . S
C1148 C1142 1.465 . S
C1148 C1147 1.396 . S
C1148 C1149 1.399 . S
C1149 H1135 0.929 . S
C1149 C1148 1.399 . S
C1149 C1150 1.385 . S
C1150 H1136 0.931 . S
C1150 C1149 1.385 . S
C1150 C1151 1.389 . S
C1151 C1150 1.389 . S
C1151 C1152 1.387 . S
C1152 H1137 0.930 . S
C1152 C1147 1.390 . S
C1152 C1151 1.387 . S
H1153 C1165 0.930 . S
H1154 C1167 0.930 . S
H1155 C1168 0.930 . S
H1156 C1172 0.959 . S
H1157 C1172 0.959 . S
H1158 C1172 0.961 . S
H1159 C1173 0.960 . S
H1160 C1173 0.961 . S
H1161 C1173 0.959 . S
H1162 C1176 0.929 . S
H1163 C1177 0.931 . S
H1164 C1179 0.930 . S
C1165 H1153 0.930 . S
C1165 C1166 1.399 . S
C1165 C1170 1.399 . S
C1166 C1165 1.399 . S
C1166 C1167 1.376 . S
C1167 H1154 0.930 . S
C1167 C1166 1.376 . S
C1167 C1168 1.388 . S
C1168 H1155 0.930 . S
C1168 C1167 1.388 . S
C1168 C1169 1.390 . S
C1169 C1168 1.390 . S
C1169 C1170 1.394 . S
C1169 C1175 1.465 . S
C1170 C1165 1.399 . S
C1170 C1169 1.394 . S
C1170 C1171 1.516 . S
C1171 C1170 1.516 . S
C1171 C1172 1.502 . S
C1171 C1173 1.561 . S
C1171 C1174 1.526 . S
C1172 H1156 0.959 . S
C1172 H1157 0.959 . S
C1172 H1158 0.961 . S
C1172 C1171 1.502 . S
C1173 H1159 0.960 . S
C1173 H1160 0.961 . S
C1173 H1161 0.959 . S
C1173 C1171 1.561 . S
C1174 C1171 1.526 . S
C1174 C1175 1.396 . S
C1174 C1179 1.390 . S
C1175 C1169 1.465 . S
C1175 C1174 1.396 . S
C1175 C1176 1.399 . S
C1176 H1162 0.929 . S
C1176 C1175 1.399 . S
C1176 C1177 1.385 . S
C1177 H1163 0.931 . S
C1177 C1176 1.385 . S
C1177 C1178 1.389 . S
C1178 C1177 1.389 . S
C1178 C1179 1.387 . S
C1179 H1164 0.930 . S
C1179 C1174 1.390 . S
C1179 C1178 1.387 . S
H1180 C1192 0.930 . S
H1181 C1194 0.930 . S
H1182 C1195 0.930 . S
H1183 C1199 0.962 . S
H1184 C1199 0.979 . S
H1185 C1199 0.940 1_554 S
H1186 C1200 0.958 1_554 S
H1187 C1200 0.963 . S
H1188 C1200 0.959 . S
H1189 C1203 0.929 . S
H1190 C1204 0.931 . S
H1191 C1206 0.930 . S
C1192 H1180 0.930 . S
C1192 C1193 1.399 . S
C1192 C1197 1.399 . S
C1193 C1192 1.399 . S
C1193 C1194 1.376 . S
C1194 H1181 0.930 . S
C1194 C1193 1.376 . S
C1194 C1195 1.388 . S
C1195 H1182 0.930 . S
C1195 C1194 1.388 . S
C1195 C1196 1.390 . S
C1196 C1195 1.390 . S
C1196 C1197 1.394 . S
C1196 C1202 1.465 1_554 S
C1197 C1192 1.399 . S
C1197 C1196 1.394 . S
C1197 C1198 1.517 1_554 S
C1198 C1197 1.517 1_556 S
C1198 C1199 1.502 . S
C1198 C1200 1.561 . S
C1198 C1201 1.525 . S
C1199 H1183 0.962 . S
C1199 H1184 0.979 . S
C1199 H1185 0.940 1_556 S
C1199 C1198 1.502 . S
C1200 H1186 0.958 1_556 S
C1200 H1187 0.963 . S
C1200 H1188 0.959 . S
C1200 C1198 1.561 . S
C1201 C1198 1.525 . S
C1201 C1202 1.396 . S
C1201 C1206 1.390 . S
C1202 C1196 1.465 1_556 S
C1202 C1201 1.396 . S
C1202 C1203 1.399 . S
C1203 H1189 0.929 . S
C1203 C1202 1.399 . S
C1203 C1204 1.385 . S
C1204 H1190 0.931 . S
C1204 C1203 1.385 . S
C1204 C1205 1.389 . S
C1205 C1204 1.389 . S
C1205 C1206 1.387 . S
C1206 H1191 0.930 . S
C1206 C1201 1.390 . S
C1206 C1205 1.387 . S
H1207 C1219 0.930 . S
H1208 C1221 0.930 . S
H1209 C1222 0.930 . S
H1210 C1226 0.962 . S
H1211 C1226 0.979 . S
H1212 C1226 0.940 1_556 S
H1213 C1227 0.958 1_556 S
H1214 C1227 0.963 . S
H1215 C1227 0.959 . S
H1216 C1230 0.929 . S
H1217 C1231 0.931 . S
H1218 C1233 0.930 . S
C1219 H1207 0.930 . S
C1219 C1220 1.399 . S
C1219 C1224 1.399 . S
C1220 C1219 1.399 . S
C1220 C1221 1.376 . S
C1221 H1208 0.930 . S
C1221 C1220 1.376 . S
C1221 C1222 1.388 . S
C1222 H1209 0.930 . S
C1222 C1221 1.388 . S
C1222 C1223 1.390 . S
C1223 C1222 1.390 . S
C1223 C1224 1.394 . S
C1223 C1229 1.465 1_556 S
C1224 C1219 1.399 . S
C1224 C1223 1.394 . S
C1224 C1225 1.517 1_556 S
C1225 C1224 1.517 1_554 S
C1225 C1226 1.502 . S
C1225 C1227 1.561 . S
C1225 C1228 1.525 . S
C1226 H1210 0.962 . S
C1226 H1211 0.979 . S
C1226 H1212 0.940 1_554 S
C1226 C1225 1.502 . S
C1227 H1213 0.958 1_554 S
C1227 H1214 0.963 . S
C1227 H1215 0.959 . S
C1227 C1225 1.561 . S
C1228 C1225 1.525 . S
C1228 C1229 1.396 . S
C1228 C1233 1.390 . S
C1229 C1223 1.465 1_554 S
C1229 C1228 1.396 . S
C1229 C1230 1.399 . S
C1230 H1216 0.929 . S
C1230 C1229 1.399 . S
C1230 C1231 1.385 . S
C1231 H1217 0.931 . S
C1231 C1230 1.385 . S
C1231 C1232 1.389 . S
C1232 C1231 1.389 . S
C1232 C1233 1.387 . S
C1233 H1218 0.930 . S
C1233 C1228 1.390 . S
C1233 C1232 1.387 . S
H1234 C1246 0.930 . S
H1235 C1248 0.930 . S
H1236 C1249 0.930 . S
H1237 C1253 0.959 . S
H1238 C1253 0.959 . S
H1239 C1253 0.961 . S
H1240 C1254 0.960 . S
H1241 C1254 0.961 . S
H1242 C1254 0.959 . S
H1243 C1257 0.929 . S
H1244 C1258 0.931 . S
H1245 C1260 0.930 . S
C1246 H1234 0.930 . S
C1246 C1247 1.399 . S
C1246 C1251 1.399 . S
C1247 C1246 1.399 . S
C1247 C1248 1.376 . S
C1248 H1235 0.930 . S
C1248 C1247 1.376 . S
C1248 C1249 1.388 . S
C1249 H1236 0.930 . S
C1249 C1248 1.388 . S
C1249 C1250 1.390 . S
C1250 C1249 1.390 . S
C1250 C1251 1.394 . S
C1250 C1256 1.465 . S
C1251 C1246 1.399 . S
C1251 C1250 1.394 . S
C1251 C1252 1.516 . S
C1252 C1251 1.516 . S
C1252 C1253 1.502 . S
C1252 C1254 1.561 . S
C1252 C1255 1.526 . S
C1253 H1237 0.959 . S
C1253 H1238 0.959 . S
C1253 H1239 0.961 . S
C1253 C1252 1.502 . S
C1254 H1240 0.960 . S
C1254 H1241 0.961 . S
C1254 H1242 0.959 . S
C1254 C1252 1.561 . S
C1255 C1252 1.526 . S
C1255 C1256 1.396 . S
C1255 C1260 1.390 . S
C1256 C1250 1.465 . S
C1256 C1255 1.396 . S
C1256 C1257 1.399 . S
C1257 H1243 0.929 . S
C1257 C1256 1.399 . S
C1257 C1258 1.385 . S
C1258 H1244 0.931 . S
C1258 C1257 1.385 . S
C1258 C1259 1.389 . S
C1259 C1258 1.389 . S
C1259 C1260 1.387 . S
C1260 H1245 0.930 . S
C1260 C1255 1.390 . S
C1260 C1259 1.387 . S
H1261 C1273 0.930 . S
H1262 C1275 0.930 . S
H1263 C1276 0.930 . S
H1264 C1280 0.959 . S
H1265 C1280 0.959 . S
H1266 C1280 0.961 . S
H1267 C1281 0.960 . S
H1268 C1281 0.961 . S
H1269 C1281 0.959 . S
H1270 C1284 0.929 . S
H1271 C1285 0.931 . S
H1272 C1287 0.930 . S
C1273 H1261 0.930 . S
C1273 C1274 1.399 . S
C1273 C1278 1.399 . S
C1274 C1273 1.399 . S
C1274 C1275 1.376 . S
C1275 H1262 0.930 . S
C1275 C1274 1.376 . S
C1275 C1276 1.388 . S
C1276 H1263 0.930 . S
C1276 C1275 1.388 . S
C1276 C1277 1.390 . S
C1277 C1276 1.390 . S
C1277 C1278 1.394 . S
C1277 C1283 1.465 . S
C1278 C1273 1.399 . S
C1278 C1277 1.394 . S
C1278 C1279 1.516 . S
C1279 C1278 1.516 . S
C1279 C1280 1.502 . S
C1279 C1281 1.561 . S
C1279 C1282 1.526 . S
C1280 H1264 0.959 . S
C1280 H1265 0.959 . S
C1280 H1266 0.961 . S
C1280 C1279 1.502 . S
C1281 H1267 0.960 . S
C1281 H1268 0.961 . S
C1281 H1269 0.959 . S
C1281 C1279 1.561 . S
C1282 C1279 1.526 . S
C1282 C1283 1.396 . S
C1282 C1287 1.390 . S
C1283 C1277 1.465 . S
C1283 C1282 1.396 . S
C1283 C1284 1.399 . S
C1284 H1270 0.929 . S
C1284 C1283 1.399 . S
C1284 C1285 1.385 . S
C1285 H1271 0.931 . S
C1285 C1284 1.385 . S
C1285 C1286 1.389 . S
C1286 C1285 1.389 . S
C1286 C1287 1.387 . S
C1287 H1272 0.930 . S
C1287 C1282 1.390 . S
C1287 C1286 1.387 . S
H1288 C1300 0.930 1_545 S
H1289 C1302 0.930 . S
H1290 C1303 0.930 . S
H1291 C1307 0.964 1_565 S
H1292 C1307 0.973 . S
H1293 C1307 0.944 1_655 S
H1294 C1308 0.960 . S
H1295 C1308 0.961 1_455 S
H1296 C1308 0.959 . S
H1297 C1311 0.929 . S
H1298 C1312 0.931 1_565 S
H1299 C1314 0.930 . S
C1300 H1288 0.930 1_565 S
C1300 C1301 1.399 . S
C1300 C1305 1.399 1_565 S
C1301 C1300 1.399 . S
C1301 C1302 1.376 . S
C1302 H1289 0.930 . S
C1302 C1301 1.376 . S
C1302 C1303 1.388 . S
C1303 H1290 0.930 . S
C1303 C1302 1.388 . S
C1303 C1304 1.390 . S
C1304 C1303 1.390 . S
C1304 C1305 1.394 1_565 S
C1304 C1310 1.464 1_665 S
C1305 C1300 1.399 1_545 S
C1305 C1304 1.394 1_545 S
C1305 C1306 1.516 . S
C1306 C1305 1.516 . S
C1306 C1307 1.500 1_655 S
C1306 C1308 1.561 . S
C1306 C1309 1.526 1_655 S
C1307 H1291 0.964 1_545 S
C1307 H1292 0.973 . S
C1307 H1293 0.944 1_455 S
C1307 C1306 1.500 1_455 S
C1308 H1294 0.960 . S
C1308 H1295 0.961 1_655 S
C1308 H1296 0.959 . S
C1308 C1306 1.561 . S
C1309 C1306 1.526 1_455 S
C1309 C1310 1.398 . S
C1309 C1314 1.390 . S
C1310 C1304 1.464 1_445 S
C1310 C1309 1.398 . S
C1310 C1311 1.398 1_545 S
C1311 H1297 0.929 . S
C1311 C1310 1.398 1_565 S
C1311 C1312 1.385 1_565 S
C1312 H1298 0.931 1_545 S
C1312 C1311 1.385 1_545 S
C1312 C1313 1.389 . S
C1313 C1312 1.389 . S
C1313 C1314 1.387 . S
C1314 H1299 0.930 . S
C1314 C1309 1.390 . S
C1314 C1313 1.387 . S
H1315 C1327 0.930 . S
H1316 C1329 0.930 . S
H1317 C1330 0.930 . S
H1318 C1334 0.959 . S
H1319 C1334 0.959 . S
H1320 C1334 0.961 1_655 S
H1321 C1335 0.960 1_655 S
H1322 C1335 0.961 . S
H1323 C1335 0.959 . S
H1324 C1338 0.929 . S
H1325 C1339 0.931 . S
H1326 C1341 0.930 . S
C1327 H1315 0.930 . S
C1327 C1328 1.399 . S
C1327 C1332 1.399 . S
C1328 C1327 1.399 . S
C1328 C1329 1.376 1_545 S
C1329 H1316 0.930 . S
C1329 C1328 1.376 1_565 S
C1329 C1330 1.388 . S
C1330 H1317 0.930 . S
C1330 C1329 1.388 . S
C1330 C1331 1.390 . S
C1331 C1330 1.390 . S
C1331 C1332 1.394 1_565 S
C1331 C1337 1.465 1_655 S
C1332 C1327 1.399 . S
C1332 C1331 1.394 1_545 S
C1332 C1333 1.516 1_655 S
C1333 C1332 1.516 1_455 S
C1333 C1334 1.502 . S
C1333 C1335 1.561 . S
C1333 C1336 1.526 . S
C1334 H1318 0.959 . S
C1334 H1319 0.959 . S
C1334 H1320 0.961 1_455 S
C1334 C1333 1.502 . S
C1335 H1321 0.960 1_455 S
C1335 H1322 0.961 . S
C1335 H1323 0.959 . S
C1335 C1333 1.561 . S
C1336 C1333 1.526 . S
C1336 C1337 1.396 1_545 S
C1336 C1341 1.390 . S
C1337 C1331 1.465 1_455 S
C1337 C1336 1.396 1_565 S
C1337 C1338 1.399 . S
C1338 H1324 0.929 . S
C1338 C1337 1.399 . S
C1338 C1339 1.385 . S
C1339 H1325 0.931 . S
C1339 C1338 1.385 . S
C1339 C1340 1.389 . S
C1340 C1339 1.389 . S
C1340 C1341 1.387 1_565 S
C1341 H1326 0.930 . S
C1341 C1336 1.390 . S
C1341 C1340 1.387 1_545 S
H1342 C1354 0.928 1_565 S
H1343 C1356 0.930 . S
H1344 C1357 0.930 . S
H1345 C1361 0.959 . S
H1346 C1361 0.959 1_655 S
H1347 C1361 0.961 . S
H1348 C1362 0.960 1_455 S
H1349 C1362 0.961 . S
H1350 C1362 0.959 . S
H1351 C1365 0.929 . S
H1352 C1366 0.931 1_545 S
H1353 C1368 0.930 . S
C1354 H1342 0.928 1_545 S
C1354 C1355 1.399 . S
C1354 C1359 1.399 . S
C1355 C1354 1.399 . S
C1355 C1356 1.376 . S
C1356 H1343 0.930 . S
C1356 C1355 1.376 . S
C1356 C1357 1.388 . S
C1357 H1344 0.930 . S
C1357 C1356 1.388 . S
C1357 C1358 1.390 . S
C1358 C1357 1.390 . S
C1358 C1359 1.394 . S
C1358 C1364 1.465 1_455 S
C1359 C1354 1.399 . S
C1359 C1358 1.394 . S
C1359 C1360 1.538 1_545 S
C1360 C1359 1.538 1_565 S
C1360 C1361 1.506 . S
C1360 C1362 1.558 1_465 S
C1360 C1363 1.503 1_455 S
C1361 H1345 0.959 . S
C1361 H1346 0.959 1_455 S
C1361 H1347 0.961 . S
C1361 C1360 1.506 . S
C1362 H1348 0.960 1_655 S
C1362 H1349 0.961 . S
C1362 H1350 0.959 . S
C1362 C1360 1.558 1_645 S
C1363 C1360 1.503 1_655 S
C1363 C1364 1.396 1_565 S
C1363 C1368 1.390 . S
C1364 C1358 1.465 1_655 S
C1364 C1363 1.396 1_545 S
C1364 C1365 1.399 . S
C1365 H1351 0.929 . S
C1365 C1364 1.399 . S
C1365 C1366 1.385 1_545 S
C1366 H1352 0.931 1_565 S
C1366 C1365 1.385 1_565 S
C1366 C1367 1.389 . S
C1367 C1366 1.389 . S
C1367 C1368 1.387 . S
C1368 H1353 0.930 . S
C1368 C1363 1.390 . S
C1368 C1367 1.387 . S
H1369 C1381 0.930 1_565 S
H1370 C1383 0.930 . S
H1371 C1384 0.930 . S
H1372 C1388 0.959 . S
H1373 C1388 0.959 1_455 S
H1374 C1388 0.961 . S
H1375 C1389 0.960 1_655 S
H1376 C1389 0.961 . S
H1377 C1389 0.959 . S
H1378 C1392 0.929 . S
H1379 C1393 0.931 . S
H1380 C1395 0.930 . S
C1381 H1369 0.930 1_545 S
C1381 C1382 1.399 . S
C1381 C1386 1.399 . S
C1382 C1381 1.399 . S
C1382 C1383 1.376 . S
C1383 H1370 0.930 . S
C1383 C1382 1.376 . S
C1383 C1384 1.388 . S
C1384 H1371 0.930 . S
C1384 C1383 1.388 . S
C1384 C1385 1.390 . S
C1385 C1384 1.390 . S
C1385 C1386 1.394 . S
C1385 C1391 1.465 1_655 S
C1386 C1381 1.399 . S
C1386 C1385 1.394 . S
C1386 C1387 1.516 1_545 S
C1387 C1386 1.516 1_565 S
C1387 C1388 1.502 . S
C1387 C1389 1.561 1_665 S
C1387 C1390 1.526 1_655 S
C1388 H1372 0.959 . S
C1388 H1373 0.959 1_655 S
C1388 H1374 0.961 . S
C1388 C1387 1.502 . S
C1389 H1375 0.960 1_455 S
C1389 H1376 0.961 . S
C1389 H1377 0.959 . S
C1389 C1387 1.561 1_445 S
C1390 C1387 1.526 1_455 S
C1390 C1391 1.396 1_565 S
C1390 C1395 1.390 . S
C1391 C1385 1.465 1_455 S
C1391 C1390 1.396 1_545 S
C1391 C1392 1.399 . S
C1392 H1378 0.929 . S
C1392 C1391 1.399 . S
C1392 C1393 1.385 . S
C1393 H1379 0.931 . S
C1393 C1392 1.385 . S
C1393 C1394 1.389 1_545 S
C1394 C1393 1.389 1_565 S
C1394 C1395 1.387 . S
C1395 H1380 0.930 . S
C1395 C1390 1.390 . S
C1395 C1394 1.387 . S
H1396 C1408 0.930 . S
H1397 C1410 0.930 . S
H1398 C1411 0.930 . S
H1399 C1415 0.959 . S
H1400 C1415 0.959 . S
H1401 C1415 0.961 . S
H1402 C1416 0.960 . S
H1403 C1416 0.961 . S
H1404 C1416 0.959 . S
H1405 C1419 0.929 . S
H1406 C1420 0.931 . S
H1407 C1422 0.930 . S
C1408 H1396 0.930 . S
C1408 C1409 1.399 . S
C1408 C1413 1.399 . S
C1409 C1408 1.399 . S
C1409 C1410 1.376 . S
C1410 H1397 0.930 . S
C1410 C1409 1.376 . S
C1410 C1411 1.388 . S
C1411 H1398 0.930 . S
C1411 C1410 1.388 . S
C1411 C1412 1.390 . S
C1412 C1411 1.390 . S
C1412 C1413 1.394 . S
C1412 C1418 1.465 . S
C1413 C1408 1.399 . S
C1413 C1412 1.394 . S
C1413 C1414 1.516 . S
C1414 C1413 1.516 . S
C1414 C1415 1.502 . S
C1414 C1416 1.561 . S
C1414 C1417 1.526 . S
C1415 H1399 0.959 . S
C1415 H1400 0.959 . S
C1415 H1401 0.961 . S
C1415 C1414 1.502 . S
C1416 H1402 0.960 . S
C1416 H1403 0.961 . S
C1416 H1404 0.959 . S
C1416 C1414 1.561 . S
C1417 C1414 1.526 . S
C1417 C1418 1.396 . S
C1417 C1422 1.390 . S
C1418 C1412 1.465 . S
C1418 C1417 1.396 . S
C1418 C1419 1.399 . S
C1419 H1405 0.929 . S
C1419 C1418 1.399 . S
C1419 C1420 1.385 . S
C1420 H1406 0.931 . S
C1420 C1419 1.385 . S
C1420 C1421 1.389 . S
C1421 C1420 1.389 . S
C1421 C1422 1.387 . S
C1422 H1407 0.930 . S
C1422 C1417 1.390 . S
C1422 C1421 1.387 . S
H1423 C1435 0.930 . S
H1424 C1437 0.930 . S
H1425 C1438 0.930 . S
H1426 C1442 0.959 . S
H1427 C1442 0.959 . S
H1428 C1442 0.961 . S
H1429 C1443 0.960 . S
H1430 C1443 0.961 . S
H1431 C1443 0.959 . S
H1432 C1446 0.929 . S
H1433 C1447 0.931 . S
H1434 C1449 0.930 . S
C1435 H1423 0.930 . S
C1435 C1436 1.399 . S
C1435 C1440 1.399 . S
C1436 C1435 1.399 . S
C1436 C1437 1.376 . S
C1437 H1424 0.930 . S
C1437 C1436 1.376 . S
C1437 C1438 1.388 . S
C1438 H1425 0.930 . S
C1438 C1437 1.388 . S
C1438 C1439 1.390 . S
C1439 C1438 1.390 . S
C1439 C1440 1.394 . S
C1439 C1445 1.465 . S
C1440 C1435 1.399 . S
C1440 C1439 1.394 . S
C1440 C1441 1.516 . S
C1441 C1440 1.516 . S
C1441 C1442 1.502 . S
C1441 C1443 1.561 . S
C1441 C1444 1.526 . S
C1442 H1426 0.959 . S
C1442 H1427 0.959 . S
C1442 H1428 0.961 . S
C1442 C1441 1.502 . S
C1443 H1429 0.960 . S
C1443 H1430 0.961 . S
C1443 H1431 0.959 . S
C1443 C1441 1.561 . S
C1444 C1441 1.526 . S
C1444 C1445 1.396 . S
C1444 C1449 1.390 . S
C1445 C1439 1.465 . S
C1445 C1444 1.396 . S
C1445 C1446 1.399 . S
C1446 H1432 0.929 . S
C1446 C1445 1.399 . S
C1446 C1447 1.385 . S
C1447 H1433 0.931 . S
C1447 C1446 1.385 . S
C1447 C1448 1.389 . S
C1448 C1447 1.389 . S
C1448 C1449 1.387 . S
C1449 H1434 0.930 . S
C1449 C1444 1.390 . S
C1449 C1448 1.387 . S
H1450 C1462 0.930 . S
H1451 C1464 0.930 . S
H1452 C1465 0.930 . S
H1453 C1469 0.959 . S
H1454 C1469 0.959 . S
H1455 C1469 0.961 . S
H1456 C1470 0.960 . S
H1457 C1470 0.961 . S
H1458 C1470 0.959 . S
H1459 C1473 0.929 . S
H1460 C1474 0.931 . S
H1461 C1476 0.930 . S
C1462 H1450 0.930 . S
C1462 C1463 1.399 . S
C1462 C1467 1.399 . S
C1463 C1462 1.399 . S
C1463 C1464 1.376 . S
C1464 H1451 0.930 . S
C1464 C1463 1.376 . S
C1464 C1465 1.388 . S
C1465 H1452 0.930 . S
C1465 C1464 1.388 . S
C1465 C1466 1.390 . S
C1466 C1465 1.390 . S
C1466 C1467 1.394 . S
C1466 C1472 1.465 . S
C1467 C1462 1.399 . S
C1467 C1466 1.394 . S
C1467 C1468 1.516 . S
C1468 C1467 1.516 . S
C1468 C1469 1.502 . S
C1468 C1470 1.561 . S
C1468 C1471 1.526 . S
C1469 H1453 0.959 . S
C1469 H1454 0.959 . S
C1469 H1455 0.961 . S
C1469 C1468 1.502 . S
C1470 H1456 0.960 . S
C1470 H1457 0.961 . S
C1470 H1458 0.959 . S
C1470 C1468 1.561 . S
C1471 C1468 1.526 . S
C1471 C1472 1.396 . S
C1471 C1476 1.390 . S
C1472 C1466 1.465 . S
C1472 C1471 1.396 . S
C1472 C1473 1.399 . S
C1473 H1459 0.929 . S
C1473 C1472 1.399 . S
C1473 C1474 1.385 . S
C1474 H1460 0.931 . S
C1474 C1473 1.385 . S
C1474 C1475 1.389 . S
C1475 C1474 1.389 . S
C1475 C1476 1.387 . S
C1476 H1461 0.930 . S
C1476 C1471 1.390 . S
C1476 C1475 1.387 . S
H1477 C1489 0.930 . S
H1478 C1491 0.930 . S
H1479 C1492 0.930 . S
H1480 C1496 0.959 . S
H1481 C1496 0.959 . S
H1482 C1496 0.961 . S
H1483 C1497 0.960 . S
H1484 C1497 0.961 . S
H1485 C1497 0.959 . S
H1486 C1500 0.929 . S
H1487 C1501 0.931 . S
H1488 C1503 0.930 . S
C1489 H1477 0.930 . S
C1489 C1490 1.399 . S
C1489 C1494 1.399 . S
C1490 C1489 1.399 . S
C1490 C1491 1.376 . S
C1491 H1478 0.930 . S
C1491 C1490 1.376 . S
C1491 C1492 1.388 . S
C1492 H1479 0.930 . S
C1492 C1491 1.388 . S
C1492 C1493 1.390 . S
C1493 C1492 1.390 . S
C1493 C1494 1.394 . S
C1493 C1499 1.465 . S
C1494 C1489 1.399 . S
C1494 C1493 1.394 . S
C1494 C1495 1.516 . S
C1495 C1494 1.516 . S
C1495 C1496 1.502 . S
C1495 C1497 1.561 . S
C1495 C1498 1.526 . S
C1496 H1480 0.959 . S
C1496 H1481 0.959 . S
C1496 H1482 0.961 . S
C1496 C1495 1.502 . S
C1497 H1483 0.960 . S
C1497 H1484 0.961 . S
C1497 H1485 0.959 . S
C1497 C1495 1.561 . S
C1498 C1495 1.526 . S
C1498 C1499 1.396 . S
C1498 C1503 1.390 . S
C1499 C1493 1.465 . S
C1499 C1498 1.396 . S
C1499 C1500 1.399 . S
C1500 H1486 0.929 . S
C1500 C1499 1.399 . S
C1500 C1501 1.385 . S
C1501 H1487 0.931 . S
C1501 C1500 1.385 . S
C1501 C1502 1.389 . S
C1502 C1501 1.389 . S
C1502 C1503 1.387 . S
C1503 H1488 0.930 . S
C1503 C1498 1.390 . S
C1503 C1502 1.387 . S
H1504 C1516 0.930 . S
H1505 C1518 0.930 . S
H1506 C1519 0.930 . S
H1507 C1523 0.959 . S
H1508 C1523 0.959 . S
H1509 C1523 0.961 . S
H1510 C1524 0.960 . S
H1511 C1524 0.961 . S
H1512 C1524 0.959 . S
H1513 C1527 0.929 . S
H1514 C1528 0.931 . S
H1515 C1530 0.930 . S
C1516 H1504 0.930 . S
C1516 C1517 1.399 . S
C1516 C1521 1.399 . S
C1517 C1516 1.399 . S
C1517 C1518 1.376 . S
C1518 H1505 0.930 . S
C1518 C1517 1.376 . S
C1518 C1519 1.388 . S
C1519 H1506 0.930 . S
C1519 C1518 1.388 . S
C1519 C1520 1.390 . S
C1520 C1519 1.390 . S
C1520 C1521 1.394 . S
C1520 C1526 1.465 . S
C1521 C1516 1.399 . S
C1521 C1520 1.394 . S
C1521 C1522 1.516 . S
C1522 C1521 1.516 . S
C1522 C1523 1.502 . S
C1522 C1524 1.561 . S
C1522 C1525 1.526 . S
C1523 H1507 0.959 . S
C1523 H1508 0.959 . S
C1523 H1509 0.961 . S
C1523 C1522 1.502 . S
C1524 H1510 0.960 . S
C1524 H1511 0.961 . S
C1524 H1512 0.959 . S
C1524 C1522 1.561 . S
C1525 C1522 1.526 . S
C1525 C1526 1.396 . S
C1525 C1530 1.390 . S
C1526 C1520 1.465 . S
C1526 C1525 1.396 . S
C1526 C1527 1.399 . S
C1527 H1513 0.929 . S
C1527 C1526 1.399 . S
C1527 C1528 1.385 . S
C1528 H1514 0.931 . S
C1528 C1527 1.385 . S
C1528 C1529 1.389 . S
C1529 C1528 1.389 . S
C1529 C1530 1.387 . S
C1530 H1515 0.930 . S
C1530 C1525 1.390 . S
C1530 C1529 1.387 . S
H1531 C1543 0.930 . S
H1532 C1545 0.930 . S
H1533 C1546 0.930 . S
H1534 C1550 0.959 . S
H1535 C1550 0.959 . S
H1536 C1550 0.961 . S
H1537 C1551 0.960 . S
H1538 C1551 0.961 . S
H1539 C1551 0.959 . S
H1540 C1554 0.929 . S
H1541 C1555 0.931 . S
H1542 C1557 0.930 . S
C1543 H1531 0.930 . S
C1543 C1544 1.399 . S
C1543 C1548 1.399 . S
C1544 C1543 1.399 . S
C1544 C1545 1.376 . S
C1545 H1532 0.930 . S
C1545 C1544 1.376 . S
C1545 C1546 1.388 . S
C1546 H1533 0.930 . S
C1546 C1545 1.388 . S
C1546 C1547 1.390 . S
C1547 C1546 1.390 . S
C1547 C1548 1.394 . S
C1547 C1553 1.465 . S
C1548 C1543 1.399 . S
C1548 C1547 1.394 . S
C1548 C1549 1.516 . S
C1549 C1548 1.516 . S
C1549 C1550 1.502 . S
C1549 C1551 1.561 . S
C1549 C1552 1.526 . S
C1550 H1534 0.959 . S
C1550 H1535 0.959 . S
C1550 H1536 0.961 . S
C1550 C1549 1.502 . S
C1551 H1537 0.960 . S
C1551 H1538 0.961 . S
C1551 H1539 0.959 . S
C1551 C1549 1.561 . S
C1552 C1549 1.526 . S
C1552 C1553 1.396 . S
C1552 C1557 1.390 . S
C1553 C1547 1.465 . S
C1553 C1552 1.396 . S
C1553 C1554 1.399 . S
C1554 H1540 0.929 . S
C1554 C1553 1.399 . S
C1554 C1555 1.385 . S
C1555 H1541 0.931 . S
C1555 C1554 1.385 . S
C1555 C1556 1.389 . S
C1556 C1555 1.389 . S
C1556 C1557 1.387 . S
C1557 H1542 0.930 . S
C1557 C1552 1.390 . S
C1557 C1556 1.387 . S
H1558 C1570 0.930 . S
H1559 C1572 0.930 . S
H1560 C1573 0.930 . S
H1561 C1577 0.959 . S
H1562 C1577 0.959 . S
H1563 C1577 0.961 . S
H1564 C1578 0.960 . S
H1565 C1578 0.961 . S
H1566 C1578 0.959 . S
H1567 C1581 0.929 . S
H1568 C1582 0.931 . S
H1569 C1584 0.930 . S
C1570 H1558 0.930 . S
C1570 C1571 1.399 . S
C1570 C1575 1.399 . S
C1571 C1570 1.399 . S
C1571 C1572 1.376 . S
C1572 H1559 0.930 . S
C1572 C1571 1.376 . S
C1572 C1573 1.388 . S
C1573 H1560 0.930 . S
C1573 C1572 1.388 . S
C1573 C1574 1.390 . S
C1574 C1573 1.390 . S
C1574 C1575 1.394 . S
C1574 C1580 1.465 . S
C1575 C1570 1.399 . S
C1575 C1574 1.394 . S
C1575 C1576 1.516 . S
C1576 C1575 1.516 . S
C1576 C1577 1.502 . S
C1576 C1578 1.561 . S
C1576 C1579 1.526 . S
C1577 H1561 0.959 . S
C1577 H1562 0.959 . S
C1577 H1563 0.961 . S
C1577 C1576 1.502 . S
C1578 H1564 0.960 . S
C1578 H1565 0.961 . S
C1578 H1566 0.959 . S
C1578 C1576 1.561 . S
C1579 C1576 1.526 . S
C1579 C1580 1.396 . S
C1579 C1584 1.390 . S
C1580 C1574 1.465 . S
C1580 C1579 1.396 . S
C1580 C1581 1.399 . S
C1581 H1567 0.929 . S
C1581 C1580 1.399 . S
C1581 C1582 1.385 . S
C1582 H1568 0.931 . S
C1582 C1581 1.385 . S
C1582 C1583 1.389 . S
C1583 C1582 1.389 . S
C1583 C1584 1.387 . S
C1584 H1569 0.930 . S
C1584 C1579 1.390 . S
C1584 C1583 1.387 . S
H1585 C1597 0.930 . S
H1586 C1599 0.930 . S
H1587 C1600 0.930 . S
H1588 C1604 0.959 . S
H1589 C1604 0.959 . S
H1590 C1604 0.961 . S
H1591 C1605 0.960 . S
H1592 C1605 0.961 . S
H1593 C1605 0.959 . S
H1594 C1608 0.929 . S
H1595 C1609 0.931 . S
H1596 C1611 0.930 . S
C1597 H1585 0.930 . S
C1597 C1598 1.399 . S
C1597 C1602 1.399 . S
C1598 C1597 1.399 . S
C1598 C1599 1.376 . S
C1599 H1586 0.930 . S
C1599 C1598 1.376 . S
C1599 C1600 1.388 . S
C1600 H1587 0.930 . S
C1600 C1599 1.388 . S
C1600 C1601 1.390 . S
C1601 C1600 1.390 . S
C1601 C1602 1.394 . S
C1601 C1607 1.465 . S
C1602 C1597 1.399 . S
C1602 C1601 1.394 . S
C1602 C1603 1.516 . S
C1603 C1602 1.516 . S
C1603 C1604 1.502 . S
C1603 C1605 1.561 . S
C1603 C1606 1.526 . S
C1604 H1588 0.959 . S
C1604 H1589 0.959 . S
C1604 H1590 0.961 . S
C1604 C1603 1.502 . S
C1605 H1591 0.960 . S
C1605 H1592 0.961 . S
C1605 H1593 0.959 . S
C1605 C1603 1.561 . S
C1606 C1603 1.526 . S
C1606 C1607 1.396 . S
C1606 C1611 1.390 . S
C1607 C1601 1.465 . S
C1607 C1606 1.396 . S
C1607 C1608 1.399 . S
C1608 H1594 0.929 . S
C1608 C1607 1.399 . S
C1608 C1609 1.385 . S
C1609 H1595 0.931 . S
C1609 C1608 1.385 . S
C1609 C1610 1.389 . S
C1610 C1609 1.389 . S
C1610 C1611 1.387 . S
C1611 H1596 0.930 . S
C1611 C1606 1.390 . S
C1611 C1610 1.387 . S
H1612 C1624 0.930 . S
H1613 C1626 0.930 . S
H1614 C1627 0.930 . S
H1615 C1631 0.959 . S
H1616 C1631 0.959 . S
H1617 C1631 0.961 . S
H1618 C1632 0.960 . S
H1619 C1632 0.961 . S
H1620 C1632 0.959 . S
H1621 C1635 0.929 . S
H1622 C1636 0.931 . S
H1623 C1638 0.930 . S
C1624 H1612 0.930 . S
C1624 C1625 1.399 . S
C1624 C1629 1.399 . S
C1625 C1624 1.399 . S
C1625 C1626 1.376 . S
C1626 H1613 0.930 . S
C1626 C1625 1.376 . S
C1626 C1627 1.388 . S
C1627 H1614 0.930 . S
C1627 C1626 1.388 . S
C1627 C1628 1.390 . S
C1628 C1627 1.390 . S
C1628 C1629 1.394 . S
C1628 C1634 1.465 . S
C1629 C1624 1.399 . S
C1629 C1628 1.394 . S
C1629 C1630 1.516 . S
C1630 C1629 1.516 . S
C1630 C1631 1.502 . S
C1630 C1632 1.561 . S
C1630 C1633 1.526 . S
C1631 H1615 0.959 . S
C1631 H1616 0.959 . S
C1631 H1617 0.961 . S
C1631 C1630 1.502 . S
C1632 H1618 0.960 . S
C1632 H1619 0.961 . S
C1632 H1620 0.959 . S
C1632 C1630 1.561 . S
C1633 C1630 1.526 . S
C1633 C1634 1.396 . S
C1633 C1638 1.390 . S
C1634 C1628 1.465 . S
C1634 C1633 1.396 . S
C1634 C1635 1.399 . S
C1635 H1621 0.929 . S
C1635 C1634 1.399 . S
C1635 C1636 1.385 . S
C1636 H1622 0.931 . S
C1636 C1635 1.385 . S
C1636 C1637 1.389 . S
C1637 C1636 1.389 . S
C1637 C1638 1.387 . S
C1638 H1623 0.930 . S
C1638 C1633 1.390 . S
C1638 C1637 1.387 . S
H1639 C1651 0.930 . S
H1640 C1653 0.930 . S
H1641 C1654 0.930 . S
H1642 C1658 0.959 . S
H1643 C1658 0.959 . S
H1644 C1658 0.961 . S
H1645 C1659 0.960 . S
H1646 C1659 0.961 . S
H1647 C1659 0.959 . S
H1648 C1662 0.929 . S
H1649 C1663 0.931 . S
H1650 C1665 0.930 . S
C1651 H1639 0.930 . S
C1651 C1652 1.399 . S
C1651 C1656 1.399 . S
C1652 C1651 1.399 . S
C1652 C1653 1.376 . S
C1653 H1640 0.930 . S
C1653 C1652 1.376 . S
C1653 C1654 1.388 . S
C1654 H1641 0.930 . S
C1654 C1653 1.388 . S
C1654 C1655 1.390 . S
C1655 C1654 1.390 . S
C1655 C1656 1.394 . S
C1655 C1661 1.465 . S
C1656 C1651 1.399 . S
C1656 C1655 1.394 . S
C1656 C1657 1.516 . S
C1657 C1656 1.516 . S
C1657 C1658 1.502 . S
C1657 C1659 1.561 . S
C1657 C1660 1.526 . S
C1658 H1642 0.959 . S
C1658 H1643 0.959 . S
C1658 H1644 0.961 . S
C1658 C1657 1.502 . S
C1659 H1645 0.960 . S
C1659 H1646 0.961 . S
C1659 H1647 0.959 . S
C1659 C1657 1.561 . S
C1660 C1657 1.526 . S
C1660 C1661 1.396 . S
C1660 C1665 1.390 . S
C1661 C1655 1.465 . S
C1661 C1660 1.396 . S
C1661 C1662 1.399 . S
C1662 H1648 0.929 . S
C1662 C1661 1.399 . S
C1662 C1663 1.385 . S
C1663 H1649 0.931 . S
C1663 C1662 1.385 . S
C1663 C1664 1.389 . S
C1664 C1663 1.389 . S
C1664 C1665 1.387 . S
C1665 H1650 0.930 . S
C1665 C1660 1.390 . S
C1665 C1664 1.387 . S
H1666 C1678 0.930 . S
H1667 C1680 0.930 . S
H1668 C1681 0.930 . S
H1669 C1685 0.959 . S
H1670 C1685 0.959 . S
H1671 C1685 0.961 . S
H1672 C1686 0.960 . S
H1673 C1686 0.961 . S
H1674 C1686 0.959 . S
H1675 C1689 0.929 . S
H1676 C1690 0.931 . S
H1677 C1692 0.930 . S
C1678 H1666 0.930 . S
C1678 C1679 1.399 . S
C1678 C1683 1.399 . S
C1679 C1678 1.399 . S
C1679 C1680 1.376 . S
C1680 H1667 0.930 . S
C1680 C1679 1.376 . S
C1680 C1681 1.388 . S
C1681 H1668 0.930 . S
C1681 C1680 1.388 . S
C1681 C1682 1.390 . S
C1682 C1681 1.390 . S
C1682 C1683 1.394 . S
C1682 C1688 1.465 . S
C1683 C1678 1.399 . S
C1683 C1682 1.394 . S
C1683 C1684 1.516 . S
C1684 C1683 1.516 . S
C1684 C1685 1.502 . S
C1684 C1686 1.561 . S
C1684 C1687 1.526 . S
C1685 H1669 0.959 . S
C1685 H1670 0.959 . S
C1685 H1671 0.961 . S
C1685 C1684 1.502 . S
C1686 H1672 0.960 . S
C1686 H1673 0.961 . S
C1686 H1674 0.959 . S
C1686 C1684 1.561 . S
C1687 C1684 1.526 . S
C1687 C1688 1.396 . S
C1687 C1692 1.390 . S
C1688 C1682 1.465 . S
C1688 C1687 1.396 . S
C1688 C1689 1.399 . S
C1689 H1675 0.929 . S
C1689 C1688 1.399 . S
C1689 C1690 1.385 . S
C1690 H1676 0.931 . S
C1690 C1689 1.385 . S
C1690 C1691 1.389 . S
C1691 C1690 1.389 . S
C1691 C1692 1.387 . S
C1692 H1677 0.930 . S
C1692 C1687 1.390 . S
C1692 C1691 1.387 . S
H1693 C1705 0.930 . S
H1694 C1707 0.930 . S
H1695 C1708 0.930 . S
H1696 C1712 0.959 . S
H1697 C1712 0.959 . S
H1698 C1712 0.961 . S
H1699 C1713 0.960 . S
H1700 C1713 0.961 . S
H1701 C1713 0.959 . S
H1702 C1716 0.929 . S
H1703 C1717 0.931 . S
H1704 C1719 0.930 . S
C1705 H1693 0.930 . S
C1705 C1706 1.399 . S
C1705 C1710 1.399 . S
C1706 C1705 1.399 . S
C1706 C1707 1.376 . S
C1707 H1694 0.930 . S
C1707 C1706 1.376 . S
C1707 C1708 1.388 . S
C1708 H1695 0.930 . S
C1708 C1707 1.388 . S
C1708 C1709 1.390 . S
C1709 C1708 1.390 . S
C1709 C1710 1.394 . S
C1709 C1715 1.465 . S
C1710 C1705 1.399 . S
C1710 C1709 1.394 . S
C1710 C1711 1.516 . S
C1711 C1710 1.516 . S
C1711 C1712 1.502 . S
C1711 C1713 1.561 . S
C1711 C1714 1.526 . S
C1712 H1696 0.959 . S
C1712 H1697 0.959 . S
C1712 H1698 0.961 . S
C1712 C1711 1.502 . S
C1713 H1699 0.960 . S
C1713 H1700 0.961 . S
C1713 H1701 0.959 . S
C1713 C1711 1.561 . S
C1714 C1711 1.526 . S
C1714 C1715 1.396 . S
C1714 C1719 1.390 . S
C1715 C1709 1.465 . S
C1715 C1714 1.396 . S
C1715 C1716 1.399 . S
C1716 H1702 0.929 . S
C1716 C1715 1.399 . S
C1716 C1717 1.385 . S
C1717 H1703 0.931 . S
C1717 C1716 1.385 . S
C1717 C1718 1.389 . S
C1718 C1717 1.389 . S
C1718 C1719 1.387 . S
C1719 H1704 0.930 . S
C1719 C1714 1.390 . S
C1719 C1718 1.387 . S
H1720 C1732 0.930 1_565 S
H1721 C1734 0.930 . S
H1722 C1735 0.930 . S
H1723 C1739 0.959 . S
H1724 C1739 0.959 . S
H1725 C1739 0.961 . S
H1726 C1740 0.960 . S
H1727 C1740 0.961 . S
H1728 C1740 0.959 . S
H1729 C1743 0.929 . S
H1730 C1744 0.931 . S
H1731 C1746 0.930 . S
C1732 H1720 0.930 1_545 S
C1732 C1733 1.399 1_545 S
C1732 C1737 1.399 . S
C1733 C1732 1.399 1_565 S
C1733 C1734 1.376 . S
C1734 H1721 0.930 . S
C1734 C1733 1.376 . S
C1734 C1735 1.388 1_565 S
C1735 H1722 0.930 . S
C1735 C1734 1.388 1_545 S
C1735 C1736 1.390 . S
C1736 C1735 1.390 . S
C1736 C1737 1.394 . S
C1736 C1742 1.465 . S
C1737 C1732 1.399 . S
C1737 C1736 1.394 . S
C1737 C1738 1.516 . S
C1738 C1737 1.516 . S
C1738 C1739 1.502 . S
C1738 C1740 1.561 . S
C1738 C1741 1.526 . S
C1739 H1723 0.959 . S
C1739 H1724 0.959 . S
C1739 H1725 0.961 . S
C1739 C1738 1.502 . S
C1740 H1726 0.960 . S
C1740 H1727 0.961 . S
C1740 H1728 0.959 . S
C1740 C1738 1.561 . S
C1741 C1738 1.526 . S
C1741 C1742 1.396 . S
C1741 C1746 1.390 . S
C1742 C1736 1.465 . S
C1742 C1741 1.396 . S
C1742 C1743 1.399 . S
C1743 H1729 0.929 . S
C1743 C1742 1.399 . S
C1743 C1744 1.385 . S
C1744 H1730 0.931 . S
C1744 C1743 1.385 . S
C1744 C1745 1.389 . S
C1745 C1744 1.389 . S
C1745 C1746 1.387 . S
C1746 H1731 0.930 . S
C1746 C1741 1.390 . S
C1746 C1745 1.387 . S
H1747 C1759 0.930 . S
H1748 C1761 0.930 . S
H1749 C1762 0.930 . S
H1750 C1766 0.959 . S
H1751 C1766 0.959 . S
H1752 C1766 0.961 . S
H1753 C1767 0.960 . S
H1754 C1767 0.961 . S
H1755 C1767 0.959 . S
H1756 C1770 0.929 . S
H1757 C1771 0.931 . S
H1758 C1773 0.930 . S
C1759 H1747 0.930 . S
C1759 C1760 1.399 . S
C1759 C1764 1.399 . S
C1760 C1759 1.399 . S
C1760 C1761 1.376 . S
C1761 H1748 0.930 . S
C1761 C1760 1.376 . S
C1761 C1762 1.388 . S
C1762 H1749 0.930 . S
C1762 C1761 1.388 . S
C1762 C1763 1.390 . S
C1763 C1762 1.390 . S
C1763 C1764 1.394 . S
C1763 C1769 1.465 . S
C1764 C1759 1.399 . S
C1764 C1763 1.394 . S
C1764 C1765 1.516 . S
C1765 C1764 1.516 . S
C1765 C1766 1.502 . S
C1765 C1767 1.561 . S
C1765 C1768 1.526 . S
C1766 H1750 0.959 . S
C1766 H1751 0.959 . S
C1766 H1752 0.961 . S
C1766 C1765 1.502 . S
C1767 H1753 0.960 . S
C1767 H1754 0.961 . S
C1767 H1755 0.959 . S
C1767 C1765 1.561 . S
C1768 C1765 1.526 . S
C1768 C1769 1.396 . S
C1768 C1773 1.390 1_565 S
C1769 C1763 1.465 . S
C1769 C1768 1.396 . S
C1769 C1770 1.399 . S
C1770 H1756 0.929 . S
C1770 C1769 1.399 . S
C1770 C1771 1.385 1_565 S
C1771 H1757 0.931 . S
C1771 C1770 1.385 1_545 S
C1771 C1772 1.389 . S
C1772 C1771 1.389 . S
C1772 C1773 1.387 . S
C1773 H1758 0.930 . S
C1773 C1768 1.390 1_545 S
C1773 C1772 1.387 . S
H1774 C1786 0.930 1_545 S
H1775 C1788 0.930 . S
H1776 C1789 0.930 . S
H1777 C1793 0.959 . S
H1778 C1793 0.959 . S
H1779 C1793 0.961 . S
H1780 C1794 0.960 . S
H1781 C1794 0.961 . S
H1782 C1794 0.959 . S
H1783 C1797 0.929 . S
H1784 C1798 0.931 . S
H1785 C1800 0.930 . S
C1786 H1774 0.930 1_565 S
C1786 C1787 1.399 1_565 S
C1786 C1791 1.399 . S
C1787 C1786 1.399 1_545 S
C1787 C1788 1.376 . S
C1788 H1775 0.930 . S
C1788 C1787 1.376 . S
C1788 C1789 1.388 1_545 S
C1789 H1776 0.930 . S
C1789 C1788 1.388 1_565 S
C1789 C1790 1.390 . S
C1790 C1789 1.390 . S
C1790 C1791 1.394 . S
C1790 C1796 1.465 . S
C1791 C1786 1.399 . S
C1791 C1790 1.394 . S
C1791 C1792 1.516 . S
C1792 C1791 1.516 . S
C1792 C1793 1.502 . S
C1792 C1794 1.561 . S
C1792 C1795 1.526 . S
C1793 H1777 0.959 . S
C1793 H1778 0.959 . S
C1793 H1779 0.961 . S
C1793 C1792 1.502 . S
C1794 H1780 0.960 . S
C1794 H1781 0.961 . S
C1794 H1782 0.959 . S
C1794 C1792 1.561 . S
C1795 C1792 1.526 . S
C1795 C1796 1.396 . S
C1795 C1800 1.390 . S
C1796 C1790 1.465 . S
C1796 C1795 1.396 . S
C1796 C1797 1.399 . S
C1797 H1783 0.929 . S
C1797 C1796 1.399 . S
C1797 C1798 1.385 . S
C1798 H1784 0.931 . S
C1798 C1797 1.385 . S
C1798 C1799 1.389 . S
C1799 C1798 1.389 . S
C1799 C1800 1.387 . S
C1800 H1785 0.930 . S
C1800 C1795 1.390 . S
C1800 C1799 1.387 . S
H1801 C1813 0.930 1_565 S
H1802 C1815 0.930 . S
H1803 C1816 0.930 . S
H1804 C1820 0.959 . S
H1805 C1820 0.959 . S
H1806 C1820 0.961 . S
H1807 C1821 0.960 . S
H1808 C1821 0.961 . S
H1809 C1821 0.959 . S
H1810 C1824 0.929 . S
H1811 C1825 0.931 . S
H1812 C1827 0.930 . S
C1813 H1801 0.930 1_545 S
C1813 C1814 1.399 1_545 S
C1813 C1818 1.399 . S
C1814 C1813 1.399 1_565 S
C1814 C1815 1.376 . S
C1815 H1802 0.930 . S
C1815 C1814 1.376 . S
C1815 C1816 1.388 1_565 S
C1816 H1803 0.930 . S
C1816 C1815 1.388 1_545 S
C1816 C1817 1.390 . S
C1817 C1816 1.390 . S
C1817 C1818 1.394 . S
C1817 C1823 1.465 . S
C1818 C1813 1.399 . S
C1818 C1817 1.394 . S
C1818 C1819 1.516 . S
C1819 C1818 1.516 . S
C1819 C1820 1.502 . S
C1819 C1821 1.561 . S
C1819 C1822 1.526 . S
C1820 H1804 0.959 . S
C1820 H1805 0.959 . S
C1820 H1806 0.961 . S
C1820 C1819 1.502 . S
C1821 H1807 0.960 . S
C1821 H1808 0.961 . S
C1821 H1809 0.959 . S
C1821 C1819 1.561 . S
C1822 C1819 1.526 . S
C1822 C1823 1.396 . S
C1822 C1827 1.390 . S
C1823 C1817 1.465 . S
C1823 C1822 1.396 . S
C1823 C1824 1.399 . S
C1824 H1810 0.929 . S
C1824 C1823 1.399 . S
C1824 C1825 1.385 . S
C1825 H1811 0.931 . S
C1825 C1824 1.385 . S
C1825 C1826 1.389 . S
C1826 C1825 1.389 . S
C1826 C1827 1.387 . S
C1827 H1812 0.930 . S
C1827 C1822 1.390 . S
C1827 C1826 1.387 . S
H1828 C1840 0.930 . S
H1829 C1842 0.930 . S
H1830 C1843 0.930 . S
H1831 C1847 0.959 . S
H1832 C1847 0.959 . S
H1833 C1847 0.961 . S
H1834 C1848 0.960 . S
H1835 C1848 0.961 . S
H1836 C1848 0.959 . S
H1837 C1851 0.929 . S
H1838 C1852 0.931 . S
H1839 C1854 0.930 . S
C1840 H1828 0.930 . S
C1840 C1841 1.399 . S
C1840 C1845 1.399 . S
C1841 C1840 1.399 . S
C1841 C1842 1.376 . S
C1842 H1829 0.930 . S
C1842 C1841 1.376 . S
C1842 C1843 1.388 . S
C1843 H1830 0.930 . S
C1843 C1842 1.388 . S
C1843 C1844 1.390 . S
C1844 C1843 1.390 . S
C1844 C1845 1.394 . S
C1844 C1850 1.465 . S
C1845 C1840 1.399 . S
C1845 C1844 1.394 . S
C1845 C1846 1.516 . S
C1846 C1845 1.516 . S
C1846 C1847 1.502 . S
C1846 C1848 1.561 . S
C1846 C1849 1.526 . S
C1847 H1831 0.959 . S
C1847 H1832 0.959 . S
C1847 H1833 0.961 . S
C1847 C1846 1.502 . S
C1848 H1834 0.960 . S
C1848 H1835 0.961 . S
C1848 H1836 0.959 . S
C1848 C1846 1.561 . S
C1849 C1846 1.526 . S
C1849 C1850 1.396 . S
C1849 C1854 1.390 1_565 S
C1850 C1844 1.465 . S
C1850 C1849 1.396 . S
C1850 C1851 1.399 . S
C1851 H1837 0.929 . S
C1851 C1850 1.399 . S
C1851 C1852 1.385 1_565 S
C1852 H1838 0.931 . S
C1852 C1851 1.385 1_545 S
C1852 C1853 1.389 . S
C1853 C1852 1.389 . S
C1853 C1854 1.387 . S
C1854 H1839 0.930 . S
C1854 C1849 1.390 1_545 S
C1854 C1853 1.387 . S
H1855 C1867 0.930 . S
H1856 C1869 0.930 . S
H1857 C1870 0.930 . S
H1858 C1874 0.959 . S
H1859 C1874 0.959 . S
H1860 C1874 0.961 . S
H1861 C1875 0.960 . S
H1862 C1875 0.961 . S
H1863 C1875 0.959 . S
H1864 C1878 0.929 . S
H1865 C1879 0.931 . S
H1866 C1881 0.929 1_565 S
C1867 H1855 0.930 . S
C1867 C1868 1.399 . S
C1867 C1872 1.399 . S
C1868 C1867 1.399 . S
C1868 C1869 1.376 . S
C1869 H1856 0.930 . S
C1869 C1868 1.376 . S
C1869 C1870 1.388 . S
C1870 H1857 0.930 . S
C1870 C1869 1.388 . S
C1870 C1871 1.390 . S
C1871 C1870 1.390 . S
C1871 C1872 1.394 . S
C1871 C1877 1.465 . S
C1872 C1867 1.399 . S
C1872 C1871 1.394 . S
C1872 C1873 1.516 . S
C1873 C1872 1.516 . S
C1873 C1874 1.502 . S
C1873 C1875 1.561 . S
C1873 C1876 1.526 . S
C1874 H1858 0.959 . S
C1874 H1859 0.959 . S
C1874 H1860 0.961 . S
C1874 C1873 1.502 . S
C1875 H1861 0.960 . S
C1875 H1862 0.961 . S
C1875 H1863 0.959 . S
C1875 C1873 1.561 . S
C1876 C1873 1.526 . S
C1876 C1877 1.396 . S
C1876 C1881 1.392 . S
C1877 C1871 1.465 . S
C1877 C1876 1.396 . S
C1877 C1878 1.399 . S
C1878 H1864 0.929 . S
C1878 C1877 1.399 . S
C1878 C1879 1.385 1_545 S
C1879 H1865 0.931 . S
C1879 C1878 1.385 1_565 S
C1879 C1880 1.389 . S
C1880 C1879 1.389 . S
C1880 C1881 1.385 1_565 S
C1881 H1866 0.929 1_545 S
C1881 C1876 1.392 . S
C1881 C1880 1.385 1_545 S
H1882 C1894 0.930 . S
H1883 C1896 0.930 . S
H1884 C1897 0.930 . S
H1885 C1901 0.959 . S
H1886 C1901 0.959 . S
H1887 C1901 0.961 . S
H1888 C1902 0.960 . S
H1889 C1902 0.961 . S
H1890 C1902 0.959 . S
H1891 C1905 0.929 . S
H1892 C1906 0.931 . S
H1893 C1908 0.930 . S
C1894 H1882 0.930 . S
C1894 C1895 1.399 . S
C1894 C1899 1.399 1_565 S
C1895 C1894 1.399 . S
C1895 C1896 1.376 . S
C1896 H1883 0.930 . S
C1896 C1895 1.376 . S
C1896 C1897 1.388 1_565 S
C1897 H1884 0.930 . S
C1897 C1896 1.388 1_545 S
C1897 C1898 1.390 . S
C1898 C1897 1.390 . S
C1898 C1899 1.394 . S
C1898 C1904 1.465 . S
C1899 C1894 1.399 1_545 S
C1899 C1898 1.394 . S
C1899 C1900 1.516 . S
C1900 C1899 1.516 . S
C1900 C1901 1.502 . S
C1900 C1902 1.561 . S
C1900 C1903 1.526 . S
C1901 H1885 0.959 . S
C1901 H1886 0.959 . S
C1901 H1887 0.961 . S
C1901 C1900 1.502 . S
C1902 H1888 0.960 . S
C1902 H1889 0.961 . S
C1902 H1890 0.959 . S
C1902 C1900 1.561 . S
C1903 C1900 1.526 . S
C1903 C1904 1.396 . S
C1903 C1908 1.390 . S
C1904 C1898 1.465 . S
C1904 C1903 1.396 . S
C1904 C1905 1.399 . S
C1905 H1891 0.929 . S
C1905 C1904 1.399 . S
C1905 C1906 1.385 . S
C1906 H1892 0.931 . S
C1906 C1905 1.385 . S
C1906 C1907 1.389 . S
C1907 C1906 1.389 . S
C1907 C1908 1.387 . S
C1908 H1893 0.930 . S
C1908 C1903 1.390 . S
C1908 C1907 1.387 . S
H1909 C1921 0.930 . S
H1910 C1923 0.930 . S
H1911 C1924 0.930 . S
H1912 C1928 0.959 . S
H1913 C1928 0.959 . S
H1914 C1928 0.961 . S
H1915 C1929 0.960 . S
H1916 C1929 0.961 . S
H1917 C1929 0.959 . S
H1918 C1932 0.929 . S
H1919 C1933 0.931 . S
H1920 C1935 0.935 . S
C1921 H1909 0.930 . S
C1921 C1922 1.399 . S
C1921 C1926 1.399 . S
C1922 C1921 1.399 . S
C1922 C1923 1.376 . S
C1923 H1910 0.930 . S
C1923 C1922 1.376 . S
C1923 C1924 1.388 . S
C1924 H1911 0.930 . S
C1924 C1923 1.388 . S
C1924 C1925 1.390 . S
C1925 C1924 1.390 . S
C1925 C1926 1.394 . S
C1925 C1931 1.465 . S
C1926 C1921 1.399 . S
C1926 C1925 1.394 . S
C1926 C1927 1.516 . S
C1927 C1926 1.516 . S
C1927 C1928 1.502 . S
C1927 C1929 1.561 . S
C1927 C1930 1.526 . S
C1928 H1912 0.959 . S
C1928 H1913 0.959 . S
C1928 H1914 0.961 . S
C1928 C1927 1.502 . S
C1929 H1915 0.960 . S
C1929 H1916 0.961 . S
C1929 H1917 0.959 . S
C1929 C1927 1.561 . S
C1930 C1927 1.526 . S
C1930 C1931 1.396 . S
C1930 C1935 1.376 1_565 S
C1931 C1925 1.465 . S
C1931 C1930 1.396 . S
C1931 C1932 1.399 . S
C1932 H1918 0.929 . S
C1932 C1931 1.399 . S
C1932 C1933 1.385 1_565 S
C1933 H1919 0.931 . S
C1933 C1932 1.385 1_545 S
C1933 C1934 1.389 . S
C1934 C1933 1.389 . S
C1934 C1935 1.396 . S
C1935 H1920 0.935 . S
C1935 C1930 1.376 1_545 S
C1935 C1934 1.396 . S
C653 C19 1.537 . S
C665 C379 1.536 . S
C680 C59 1.549 . S
C692 C339 1.553 . S
C707 C459 1.559 . S
C719 C99 1.558 . S
C734 C139 1.556 . S
C746 C419 1.558 . S
C761 C530 1.540 . S
C773 C170 1.538 . S
C788 C490 1.556 . S
C800 C210 1.558 . S
C815 C610 1.559 . S
C827 C250 1.560 . S
C842 C290 1.557 . S
C854 C570 1.559 . S
C869 C98 1.685 . S
C881 C18 1.685 . S
C896 C138 1.647 . S
C908 C58 1.646 . S
C923 C249 1.670 . S
C935 C169 1.655 . S
C950 C209 1.675 . S
C962 C289 1.684 . S
C977 C418 1.653 . S
C989 C338 1.652 . S
C1004 C458 1.658 . S
C1016 C378 1.657 . S
C1031 C489 1.642 . S
C1043 C569 1.645 . S
C1058 C529 1.682 . S
C1070 C609 1.670 . S
C1085 C218 1.511 . S
C1097 C9 1.524 . S
C1112 C178 1.521 . S
C1124 C49 1.533 . S
C1139 C89 1.466 . S
C1151 C298 1.467 . S
C1166 C258 1.509 . S
C1178 C129 1.496 . S
C1193 C329 1.551 . S
C1205 C538 1.552 . S
C1220 C498 1.508 . S
C1232 C369 1.521 . S
C1247 C409 1.467 . S
C1259 C618 1.467 . S
C1274 C578 1.503 . S
C1286 C449 1.491 . S
C1301 C50 1.639 . S
C1313 C10 1.642 . S
C1328 C130 1.629 . S
C1340 C90 1.594 . S
C1355 C219 1.613 . S
C1367 C179 1.646 . S
C1382 C259 1.608 . S
C1394 C299 1.650 . S
C1409 C370 1.649 . S
C1421 C330 1.629 . S
C1436 C450 1.648 . S
C1448 C410 1.630 . S
C1463 C499 1.611 . S
C1475 C539 1.648 . S
C1490 C579 1.603 . S
C1502 C619 1.653 . S
C1517 C6 1.651 . S
C1529 C15 1.618 . S
C1544 C46 1.613 . S
C1556 C55 1.646 . S
C1571 C86 1.652 . S
C1583 C95 1.618 . S
C1598 C135 1.623 . S
C1610 C126 1.635 . S
C1625 C175 1.613 . S
C1637 C166 1.646 . S
C1652 C206 1.646 . S
C1664 C215 1.625 . S
C1679 C255 1.653 . S
C1691 C246 1.616 . S
C1706 C295 1.619 . S
C1718 C286 1.638 . S
C1733 C335 1.618 . S
C1745 C326 1.640 . S
C1760 C366 1.611 . S
C1772 C375 1.649 . S
C1787 C415 1.632 . S
C1799 C406 1.639 . S
C1814 C455 1.615 . S
C1826 C446 1.643 . S
C1841 C495 1.617 . S
C1853 C486 1.641 . S
C1868 C535 1.647 . S
C1880 C526 1.624 . S
C1895 C566 1.655 . S
C1907 C575 1.613 . S
C1922 C615 1.619 . S
C1934 C606 1.639 . S
