# Generated by pormake.
# Topology uom, (4)-cn, num edge types: 1
# Building blocks:
#     Node 0, Type 0, BuildingBlock: NAWXER_clean_sbu_0, # of connection points: 4
#     Node 1, Type 0, BuildingBlock: NAWXER_clean_sbu_0, # of connection points: 4
#     Node 2, Type 0, BuildingBlock: NAWXER_clean_sbu_0, # of connection points: 4
#     Node 3, Type 0, BuildingBlock: NAWXER_clean_sbu_0, # of connection points: 4
#     Node 4, Type 0, BuildingBlock: NAWXER_clean_sbu_0, # of connection points: 4
#     Node 5, Type 0, BuildingBlock: NAWXER_clean_sbu_0, # of connection points: 4
#     Edge 6, Type (0, 0), BuildingBlock: UVAHIK_clean_linker_0, # of connection points: 2
#     Edge 7, Type (0, 0), BuildingBlock: UVAHIK_clean_linker_0, # of connection points: 2
#     Edge 8, Type (0, 0), BuildingBlock: UVAHIK_clean_linker_0, # of connection points: 2
#     Edge 9, Type (0, 0), BuildingBlock: UVAHIK_clean_linker_0, # of connection points: 2
#     Edge 10, Type (0, 0), BuildingBlock: UVAHIK_clean_linker_0, # of connection points: 2
#     Edge 11, Type (0, 0), BuildingBlock: UVAHIK_clean_linker_0, # of connection points: 2
#     Edge 12, Type (0, 0), BuildingBlock: UVAHIK_clean_linker_0, # of connection points: 2
#     Edge 13, Type (0, 0), BuildingBlock: UVAHIK_clean_linker_0, # of connection points: 2
#     Edge 14, Type (0, 0), BuildingBlock: UVAHIK_clean_linker_0, # of connection points: 2
#     Edge 15, Type (0, 0), BuildingBlock: UVAHIK_clean_linker_0, # of connection points: 2
#     Edge 16, Type (0, 0), BuildingBlock: UVAHIK_clean_linker_0, # of connection points: 2
#     Edge 17, Type (0, 0), BuildingBlock: UVAHIK_clean_linker_0, # of connection points: 2
# Relax obj value: 0.104
# Max RMSD: 0.115
# Mean RMSD: 0.115
data_MOF--net-uom--node1-NAWXER_clean_sbu_0--edge1-UVAHIK_clean_linker_0
_symmetry_space_group_name_H-M    P1
_symmetry_Int_Tables_number       1
_symmetry_cell_setting            triclinic
loop_
_symmetry_equiv_pos_as_xyz
'x, y, z'
_cell_length_a     37.518221
_cell_length_b     37.569171
_cell_length_c     50.693513
_cell_angle_alpha  90.046607
_cell_angle_beta   90.036913
_cell_angle_gamma 120.01073
loop_
_atom_site_label
_atom_site_type_symbol
_atom_site_fract_x
_atom_site_fract_y
_atom_site_fract_z
_atom_type_partial_charge
C0 C 0.23733 0.97243 1.00776 0.0
C1 C 0.28724 0.04803 0.0912 0.0
O2 O 0.26496 0.01019 1.00453 0.0
Zn3 Zn 0.30198 0.0635 0.02848 0.0
O4 O 0.22671 0.95843 0.03101 0.0
Zn5 Zn 0.26337 0.00917 0.04974 0.0
O6 O 0.23728 0.04663 0.03926 0.0
O7 O 0.2835 0.0999 1.01626 0.0
O8 O 0.26158 0.01006 0.08788 0.0
O9 O 0.30435 0.07082 0.07095 0.0
O10 O 0.35639 0.07748 0.01909 0.0
O11 O 0.32395 0.01913 0.04117 0.0
C12 C 0.24792 0.07983 0.02641 0.0
C13 C 0.3562 0.04649 0.02916 0.0
C14 C 0.33847 0.35717 0.36428 0.0
C15 C 0.20488 0.23342 0.36423 0.0
O16 O 0.33899 0.3267 0.37523 0.0
Zn17 Zn 0.29725 0.26378 0.38374 0.0
O18 O 0.30505 0.35261 0.35487 0.0
Zn19 Zn 0.27076 0.2956 0.36409 0.0
O20 O 0.26833 0.2961 0.40657 0.0
O21 O 0.29802 0.26244 0.4221 0.0
O22 O 0.21333 0.26778 0.35422 0.0
O23 O 0.23294 0.22893 0.37553 0.0
O24 O 0.31801 0.23433 0.36256 0.0
O25 O 0.29218 0.26491 0.33856 0.0
C26 C 0.27953 0.28254 0.42628 0.0
C27 C 0.30889 0.24242 0.34 0.0
C28 C 0.11634 0.31075 0.67593 0.0
C29 C 0.03988 0.28345 0.75907 0.0
O30 O 0.07824 0.29936 0.67257 0.0
Zn31 Zn 0.02446 0.28174 0.69626 0.0
O32 O 0.13051 0.31504 0.69923 0.0
Zn33 Zn 0.07929 0.2997 0.7178 0.0
O34 O 0.04336 0.23574 0.70764 0.0
O35 O -0.0104 0.22655 0.68408 0.0
O36 O 0.07837 0.29825 0.75601 0.0
O37 O 0.01689 0.2761 0.73866 0.0
O38 O 0.00873 0.32095 0.68674 0.0
O39 O 0.06737 0.34862 0.70874 0.0
C40 C 0.01048 0.21223 0.69464 0.0
C41 C 0.03932 0.35236 0.69672 0.0
C42 C 0.73064 0.03201 0.03009 0.0
C43 C 0.85453 0.02264 0.02788 0.0
O44 O 0.76097 0.06233 0.04178 0.0
Zn45 Zn 0.82399 0.08278 0.05035 0.0
O46 O 0.73548 0.004 0.01962 0.0
Zn47 Zn 0.79238 0.02643 0.02879 0.0
O48 O 0.79144 0.02005 0.0712 0.0
O49 O 0.82501 0.08219 0.08861 0.0
O50 O 0.82031 -0.00226 1.01717 0.0
O51 O 0.8589 0.05409 0.04054 0.0
O52 O 0.85442 0.13452 0.03117 0.0
O53 O 0.82287 0.08068 1.00492 0.0
C54 C 0.80486 0.04338 0.09162 0.0
C55 C 0.84584 0.11958 1.00798 0.0
C56 C 0.87139 0.83759 0.35947 0.0
C57 C 0.73023 0.72774 0.36252 0.0
O58 O 0.84833 0.84762 0.37235 0.0
Zn59 Zn 0.78456 0.82068 0.38284 0.0
O60 O 0.85655 0.8021 0.34925 0.0
Zn61 Zn 0.80151 0.78259 0.36169 0.0
O62 O 0.7843 0.81856 0.33769 0.0
O63 O 0.76983 0.85669 0.36372 0.0
O64 O 0.7613 0.72763 0.35276 0.0
O65 O 0.73475 0.76005 0.37422 0.0
O66 O 0.7869 0.82217 0.42113 0.0
O67 O 0.80803 0.78196 0.40399 0.0
C68 C 0.77354 0.84577 0.34059 0.0
C69 C 0.80151 0.79835 0.4243 0.0
C70 C 0.05448 0.74123 0.69711 0.0
C71 C 0.06835 0.87617 0.69575 0.0
O72 O 0.02417 0.74178 0.70839 0.0
Zn73 Zn 0.00522 0.78552 0.71696 0.0
O74 O 0.08358 0.77405 0.68735 0.0
Zn75 Zn 0.0623 0.80939 0.69638 0.0
O76 O 0.06727 0.81378 0.73887 0.0
O77 O 0.00452 0.78621 0.75524 0.0
O78 O 0.09286 0.86612 0.68533 0.0
O79 O 0.03601 0.84942 0.70784 0.0
O80 O 0.95423 0.76607 0.69696 0.0
O81 O 0.00897 0.78741 0.67165 0.0
C82 C 0.04322 0.80397 0.7589 0.0
C83 C 0.97004 0.77242 0.67404 0.0
C84 C 0.32934 0.10649 0.12214 0.0
C85 C 0.29613 0.06656 0.11802 0.0
C86 C 0.33628 0.1252 0.14695 0.0
C87 C 0.30621 0.10464 0.21822 0.0
H88 H 0.34058 0.22058 0.21838 0.0
C89 C 0.32949 0.19664 0.3156 0.0
C90 C 0.31469 0.22444 0.31533 0.0
C91 C 0.33193 0.17807 0.29211 0.0
C92 C 0.33076 0.18813 0.21878 0.0
H93 H 0.24461 0.01467 0.137 0.0
H94 H 0.25588 0.04764 0.18004 0.0
H95 H 0.33466 0.18598 0.17686 0.0
H96 H 0.29126 0.25467 0.28993 0.0
H97 H 0.29485 0.22219 0.24962 0.0
H98 H 0.30035 0.10661 0.26019 0.0
C99 C 0.27724 0.06431 0.16428 0.0
C100 C 0.32793 0.16831 0.19487 0.0
C101 C 0.27058 0.04541 0.1395 0.0
C102 C 0.30305 0.23362 0.29101 0.0
C103 C 0.30537 0.21511 0.26771 0.0
C104 C 0.30877 0.12448 0.2422 0.0
C105 C 0.30988 0.10472 0.1683 0.0
C106 C 0.31518 0.12615 0.19415 0.0
C107 C 0.31967 0.18693 0.26785 0.0
C108 C 0.32047 0.16639 0.24275 0.0
H109 H 0.3499 0.12354 0.10611 0.0
H110 H 0.36229 0.15593 0.14931 0.0
H111 H 0.2969 0.07233 0.21858 0.0
H112 H 0.33865 0.18881 0.33397 0.0
H113 H 0.34346 0.15681 0.29296 0.0
C114 C 0.24433 0.30691 0.45731 0.0
C115 C 0.2697 0.2897 0.4535 0.0
C116 C 0.23396 0.31312 0.48268 0.0
C117 C 0.22823 0.27988 0.55228 0.0
H118 H 0.21168 0.37239 0.56513 0.0
C119 C 0.17688 0.31121 0.65409 0.0
C120 C 0.14227 0.31632 0.6525 0.0
C121 C 0.19816 0.31184 0.63117 0.0
C122 C 0.21623 0.34643 0.56186 0.0
H123 H 0.3044 0.26588 0.47359 0.0
H124 H 0.28697 0.27755 0.51805 0.0
H125 H 0.23874 0.36617 0.52278 0.0
H126 H 0.1039 0.32769 0.62579 0.0
H127 H 0.14146 0.32975 0.5861 0.0
H128 H 0.2056 0.26037 0.59158 0.0
C129 C 0.27451 0.28562 0.50131 0.0
C130 C 0.23151 0.34267 0.5375 0.0
C131 C 0.28471 0.27911 0.47581 0.0
C132 C 0.13041 0.32363 0.6277 0.0
C133 C 0.15204 0.32498 0.60495 0.0
C134 C 0.21333 0.28393 0.5768 0.0
C135 C 0.24891 0.30269 0.50509 0.0
C136 C 0.23676 0.30879 0.53209 0.0
C137 C 0.18573 0.31843 0.60632 0.0
C138 C 0.20628 0.31675 0.58163 0.0
H139 H 0.23188 0.31515 0.44064 0.0
H140 H 0.21342 0.32541 0.48463 0.0
H141 H 0.23146 0.25319 0.54885 0.0
H142 H 0.18659 0.30526 0.6729 0.0
H143 H 0.22414 0.30689 0.63282 0.0
C144 C 0.84527 0.13218 0.95964 0.0
C145 C 0.86444 0.14563 0.98436 0.0
C146 C 0.86478 0.15349 0.93663 0.0
C147 C 0.96666 0.21609 0.90852 0.0
H148 H 0.90918 0.2382 0.85309 0.0
C149 C 0.04561 0.28749 0.80865 0.0
C150 C 0.02114 0.27325 0.7858 0.0
C151 C 0.02765 0.27683 0.83376 0.0
C152 C 0.92564 0.23182 0.86818 0.0
H153 H 0.91885 0.19249 1.00436 0.0
H154 H 0.95348 0.22944 0.96388 0.0
H155 H 0.87531 0.21124 0.89532 0.0
H156 H 0.95853 0.23636 0.77152 0.0
H157 H 0.92751 0.2167 0.81494 0.0
H158 H 0.01624 0.23468 0.88118 0.0
C159 C 0.92311 0.20251 0.96247 0.0
C160 C 0.90624 0.21664 0.89248 0.0
C161 C 0.90317 0.18159 0.98563 0.0
C162 C 0.97832 0.24821 0.78867 0.0
C163 C 0.96044 0.23715 0.81371 0.0
C164 C 0.98589 0.23073 0.88408 0.0
C165 C 0.90428 0.18836 0.9377 0.0
C166 C 0.92634 0.20816 0.91282 0.0
C167 C 0.98478 0.25124 0.83668 0.0
C168 C 0.96545 0.2383 0.86339 0.0
H169 H 0.81545 0.10456 0.95801 0.0
H170 H 0.84961 0.14164 0.91785 0.0
H171 H 0.98274 0.20937 0.92373 0.0
H172 H 0.07868 0.30701 0.80715 0.0
H173 H 0.04745 0.28889 0.85087 0.0
C174 C 0.78097 0.9819 0.12086 0.0
C175 C 0.79798 0.02464 0.11829 0.0
C176 C 0.77611 0.96392 0.14568 0.0
C177 C 0.76776 0.97807 0.2168 0.0
H178 H 0.80469 0.89883 0.22345 0.0
C179 C 0.7759 0.90619 0.31734 0.0
C180 C 0.76848 0.86563 0.31674 0.0
C181 C 0.77713 0.9265 0.2938 0.0
C182 C 0.79352 0.92033 0.22195 0.0
H183 H 0.82219 0.08186 0.14005 0.0
H184 H 0.81332 0.05019 0.18361 0.0
H185 H 0.8114 0.93257 0.18143 0.0
H186 H 0.75369 0.81365 0.2913 0.0
H187 H 0.75418 0.84812 0.2507 0.0
H188 H 0.74933 0.96528 0.25735 0.0
C189 C 0.80384 0.03074 0.16626 0.0
C190 C 0.79759 0.93985 0.1978 0.0
C191 C 0.8091 0.04887 0.1413 0.0
C192 C 0.76004 0.8451 0.2924 0.0
C193 C 0.76071 0.86507 0.26905 0.0
C194 C 0.76331 0.95817 0.24103 0.0
C195 C 0.78783 0.98811 0.16867 0.0
C196 C 0.78447 0.96868 0.19483 0.0
C197 C 0.77057 0.90646 0.26926 0.0
C198 C 0.77578 0.92868 0.24383 0.0
H199 H 0.77193 0.9622 0.10363 0.0
H200 H 0.76317 0.93094 0.14688 0.0
H201 H 0.75721 5e-05 0.21508 0.0
H202 H 0.78274 0.92288 0.33581 0.0
H203 H 0.78494 0.95838 0.29479 0.0
C204 C 0.95865 0.75869 0.62574 0.0
C205 C 0.94513 0.76591 0.64992 0.0
C206 C 0.93913 0.75824 0.60217 0.0
C207 C 0.84639 0.75706 0.57357 0.0
H208 H 0.91933 0.80468 0.51364 0.0
C209 C 0.80137 0.80345 0.47395 0.0
C210 C 0.81319 0.79106 0.45094 0.0
C211 C 0.81437 0.7981 0.49887 0.0
C212 C 0.89848 0.79103 0.53013 0.0
H213 H 0.89968 0.77709 0.66847 0.0
H214 H 0.86622 0.7777 0.62717 0.0
H215 H 0.94716 0.79923 0.55571 0.0
H216 H 0.84755 0.76283 0.43621 0.0
H217 H 0.87057 0.75419 0.47943 0.0
H218 H 0.79795 0.75031 0.54769 0.0
C219 C 0.89139 0.77143 0.6264 0.0
C220 C 0.91437 0.7876 0.55431 0.0
C221 C 0.91057 0.77112 0.65013 0.0
C222 C 0.83781 0.77274 0.45346 0.0
C223 C 0.85121 0.76795 0.47824 0.0
C224 C 0.83056 0.76105 0.54934 0.0
C225 C 0.90606 0.76596 0.60199 0.0
C226 C 0.88856 0.77007 0.57636 0.0
C227 C 0.83998 0.78087 0.50121 0.0
C228 C 0.85642 0.77767 0.52729 0.0
H229 H 0.98495 0.75413 0.62497 0.0
H230 H 0.95058 0.75252 0.584 0.0
H231 H 0.82541 0.74311 0.58993 0.0
H232 H 0.78237 0.81759 0.47272 0.0
H233 H 0.80538 0.80852 0.51623 0.0
C234 C 0.17714 0.91219 0.98575 0.0
C235 C 0.21692 0.94667 0.98423 0.0
C236 C 0.15657 0.89085 0.9628 0.0
C237 C 0.17336 0.87232 0.8936 0.0
H238 H 0.06437 0.85611 0.88061 0.0
C239 C 0.10374 0.84008 0.78926 0.0
C240 C 0.06104 0.81468 0.78589 0.0
C241 C 0.12093 0.85146 0.81446 0.0
C242 C 0.09444 0.85961 0.88403 0.0
H243 H 0.26685 0.9848 0.95762 0.0
H244 H 0.23145 0.94719 0.91787 0.0
H245 H 0.09767 0.88293 0.92316 0.0
H246 H 0.00296 0.78083 0.80659 0.0
H247 H 0.03308 0.79988 0.8507 0.0
H248 H 0.17041 0.84902 0.8547 0.0
C249 C 0.216 0.93673 0.93669 0.0
C250 C 0.11355 0.87508 0.90845 0.0
C251 C 0.23621 0.9584 0.95947 0.0
C252 C 0.03596 0.80056 0.80846 0.0
C253 C 0.05325 0.8117 0.83377 0.0
C254 C 0.15413 0.85645 0.86934 0.0
C255 C 0.17572 0.90312 0.938 0.0
C256 C 0.15356 0.8824 0.91329 0.0
C257 C 0.09602 0.83747 0.83712 0.0
C258 C 0.11477 0.85073 0.86394 0.0
H259 H 0.16138 0.90255 1.00452 0.0
H260 H 0.12561 0.86493 0.96441 0.0
H261 H 0.20398 0.87709 0.89689 0.0
H262 H 0.12403 0.85186 0.77236 0.0
H263 H 0.15382 0.87204 0.81607 0.0
C264 C 0.19267 0.09117 0.04287 0.0
C265 C 0.2169 0.09171 0.02174 0.0
C266 C 0.1568 0.09241 0.03815 0.0
C267 C 0.07427 0.05068 0.99276 0.0
H268 H 0.03492 0.10998 0.03503 0.0
C269 C 0.90352 0.01521 0.99857 0.0
C270 C 0.89122 0.01907 0.02405 0.0
C271 C 0.9443 0.0253 0.99396 0.0
C272 C 0.04548 0.09313 0.0231 0.0
H273 H 0.22438 0.09563 0.9793 0.0
H274 H 0.16025 0.09645 0.97089 0.0
H275 H 0.1084 0.13378 0.03353 0.0
H276 H 0.90963 0.03214 0.06499 0.0
H277 H 0.98006 0.04797 0.05724 0.0
H278 H 0.01092 0.00858 0.98359 0.0
C279 C 0.16961 0.096 0.99105 0.0
C280 C 0.08746 0.10705 0.02203 0.0
C281 C 0.20623 0.09584 0.99585 0.0
C282 C 0.91868 0.02913 0.04518 0.0
C283 C 0.95902 0.03874 0.04066 0.0
C284 C 0.03205 0.03655 0.99394 0.0
C285 C 0.14416 0.09314 1.01218 0.0
C286 C 0.102 0.08505 1.00768 0.0
C287 C 0.97278 0.0391 1.01486 0.0
C288 C 0.01728 0.05673 1.01006 0.0
H289 H 0.20036 0.08758 0.06294 0.0
H290 H 0.1374 0.0897 0.05474 0.0
H291 H 0.08489 0.03304 0.98174 0.0
H292 H 0.88278 0.00798 0.98198 0.0
H293 H 0.95416 0.02504 0.97392 0.0
C294 C 0.92848 0.88171 0.32926 0.0
C295 C 0.91414 0.86914 0.35503 0.0
C296 C 0.96477 0.91899 0.32505 0.0
C297 C 0.05746 0.00054 0.35714 0.0
H298 H 0.03332 0.07726 0.32111 0.0
C299 C 0.14842 0.1689 0.38188 0.0
C300 C 0.16449 0.19672 0.36089 0.0
C301 C 0.11762 0.12859 0.37738 0.0
C302 C 0.04077 0.05612 0.33082 0.0
H303 H 0.92687 0.88307 0.39654 0.0
H304 H -0.00887 0.94724 0.38934 0.0
H305 H 0.98472 0.00329 0.31819 0.0
H306 H 0.15949 0.20577 0.31918 0.0
H307 H 0.10519 0.1345 0.31113 0.0
H308 H 0.11275 0.05302 0.37046 0.0
C309 C 0.97449 0.92878 0.37238 0.0
C310 C 0.01319 0.0139 0.32901 0.0
C311 C 0.93786 0.8922 0.37654 0.0
C312 C 0.14699 0.18476 0.33568 0.0
C313 C 0.11629 0.14403 0.33107 0.0
C314 C 0.08504 0.04255 0.35881 0.0
C315 C 0.98732 0.94329 0.34664 0.0
C316 C 0.02068 0.986 0.343 0.0
C317 C 0.1029 0.11521 0.35171 0.0
C318 C 0.0761 0.0708 0.34662 0.0
H319 H 0.91004 0.86448 0.31245 0.0
H320 H 0.97418 0.92977 0.30506 0.0
H321 H 0.06393 0.9795 0.36791 0.0
H322 H 0.16156 0.17767 0.40148 0.0
H323 H 0.10685 0.10731 0.3938 0.0
C324 C 0.00187 0.14707 0.71173 0.0
C325 C -0.0002 0.1696 0.69041 0.0
C326 C 0.00137 0.1103 0.70735 0.0
C327 C 0.04199 0.06865 0.66176 0.0
H328 H 0.98503 0.97139 0.70541 0.0
C329 C 0.07645 0.9329 0.66673 0.0
C330 C 0.07347 0.91702 0.69219 0.0
C331 C 0.06702 0.96408 0.6625 0.0
C332 C 0.00126 -0.00156 0.69312 0.0
H333 H -0.00607 0.17141 0.648 0.0
H334 H -0.00562 0.10703 0.64016 0.0
H335 H 0.96081 0.02065 0.70405 0.0
H336 H 0.06275 0.92328 0.73342 0.0
H337 H 0.04816 0.97881 0.72631 0.0
H338 H 0.08386 0.04742 0.65198 0.0
C339 C -0.00449 0.11752 0.66022 0.0
C340 C 0.98709 0.02624 0.69214 0.0
C341 C -0.00505 0.15396 0.6647 0.0
C342 C 0.06515 0.93521 0.71363 0.0
C343 C 0.05623 0.96647 0.70949 0.0
C344 C 0.05638 0.04081 0.66285 0.0
C345 C -0.00018 0.0961 0.68151 0.0
C346 C 0.00821 0.06226 0.67723 0.0
C347 C 0.05476 0.97951 0.68376 0.0
C348 C 0.03707 0.00638 0.67942 0.0
H349 H 0.00597 0.15899 0.73166 0.0
H350 H 0.00518 0.09451 0.72405 0.0
H351 H 0.05896 0.09653 0.65031 0.0
H352 H 0.08229 0.91874 0.64991 0.0
H353 H 0.06637 0.97389 0.64251 0.0
C354 C 0.68433 0.05831 0.04375 0.0
C355 C 0.69055 0.03028 0.02893 0.0
C356 C 0.64708 0.05787 0.04237 0.0
C357 C 0.53813 -0.00609 0.02384 0.0
H358 H 0.54275 0.09937 0.02273 0.0
C359 C 0.42547 0.0681 1.01029 0.0
C360 C 0.3929 0.04197 0.02693 0.0
C361 C 0.4606 0.06452 1.0085 0.0
C362 C 0.54086 0.06964 0.02268 0.0
H363 H 0.66242 0.9794 1.00129 0.0
H364 H 0.59721 0.97911 0.99854 0.0
H365 H 0.60626 0.09706 0.02287 0.0
H366 H 0.37125 0.99117 0.05448 0.0
H367 H 0.43316 0.9856 0.05188 0.0
H368 H 0.47254 0.96655 0.02315 0.0
C369 C 0.62113 0.00107 1.01146 0.0
C370 C 0.57728 0.06833 0.02313 0.0
C371 C 0.65848 0.00136 1.01295 0.0
C372 C 0.39587 0.01173 0.04146 0.0
C373 C 0.4312 0.00835 0.03982 0.0
C374 C 0.50157 -0.00479 0.02327 0.0
C375 C 0.61524 0.02961 0.026 0.0
C376 C 0.57634 0.0305 0.02406 0.0
C377 C 0.46408 0.03496 0.02349 0.0
C378 C 0.5026 0.03313 0.02291 0.0
H379 H 0.70826 0.08069 0.05648 0.0
H380 H 0.64317 0.07964 0.05427 0.0
H381 H 0.53644 0.9643 0.0247 0.0
H382 H 0.4239 0.09142 0.9986 0.0
H383 H 0.48509 0.08498 0.99538 0.0
C384 C 0.65564 0.68839 0.37438 0.0
C385 C 0.689 0.69109 0.36012 0.0
C386 C 0.61674 0.65345 0.37236 0.0
C387 C 0.56709 0.54405 0.35436 0.0
H388 H 0.46719 0.55061 0.35695 0.0
C389 C 0.38006 0.42895 0.34666 0.0
C390 C 0.37701 0.39701 0.36266 0.0
C391 C 0.41747 0.46585 0.34458 0.0
C392 C 0.4948 0.54831 0.35589 0.0
H393 H 0.70756 0.65993 0.33196 0.0
H394 H 0.63954 0.59936 0.32803 0.0
H395 H 0.53397 0.61368 0.35529 0.0
H396 H 0.41022 0.37916 0.3897 0.0
H397 H 0.47474 0.44344 0.38651 0.0
H398 H 0.52815 0.47886 0.35448 0.0
C399 C 0.64359 0.62379 0.34123 0.0
C400 C 0.53304 0.5844 0.35527 0.0
C401 C 0.68255 0.65855 0.34343 0.0
C402 C 0.41166 0.40297 0.37694 0.0
C403 C 0.44877 0.43976 0.37499 0.0
C404 C 0.52897 0.50809 0.35483 0.0
C405 C 0.61034 0.62067 0.35588 0.0
C406 C 0.5696 0.58262 0.35485 0.0
C407 C 0.4523 0.4714 0.35854 0.0
C408 C 0.49244 0.5098 0.35606 0.0
H409 H 0.65968 0.71298 0.38744 0.0
H410 H 0.59193 0.65176 0.38421 0.0
H411 H 0.59461 0.54153 0.35432 0.0
H412 H 0.35384 0.42517 0.33541 0.0
H413 H 0.41933 0.48965 0.33164 0.0
C414 C 0.08396 0.69893 0.67978 0.0
C415 C 0.055 0.70232 0.69552 0.0
C416 C 0.08344 0.66156 0.678 0.0
C417 C 0.01507 0.55027 0.68911 0.0
H418 H 0.11693 0.5474 0.69001 0.0
C419 C 0.07268 0.42665 0.70888 0.0
C420 C 0.04274 0.39305 0.6944 0.0
C421 C 0.07544 0.46499 0.70703 0.0
C422 C 0.08823 0.54771 0.68988 0.0
H423 H 0.0034 0.66957 0.7222 0.0
H424 H 0.0031 0.60493 0.71956 0.0
H425 H 0.11926 0.61341 0.69127 0.0
H426 H -0.00708 0.37344 0.66612 0.0
H427 H -0.00171 0.44055 0.66251 0.0
H428 H 0.98393 0.4847 0.68885 0.0
C429 C 0.02555 0.63071 0.70805 0.0
C430 C 0.08958 0.58552 0.69027 0.0
C431 C 0.0259 0.66787 0.70969 0.0
C432 C 0.01607 0.39868 0.67772 0.0
C433 C 0.01904 0.43709 0.67572 0.0
C434 C 0.01371 0.51253 0.68888 0.0
C435 C 0.05407 0.62702 0.69203 0.0
C436 C 0.05297 0.58715 0.69018 0.0
C437 C 0.04853 0.47058 0.69053 0.0
C438 C 0.05025 0.51081 0.68949 0.0
H439 H 0.10669 0.72497 0.66857 0.0
H440 H 0.10558 0.65955 0.66532 0.0
H441 H 0.98633 0.55051 0.68859 0.0
H442 H 0.0936 0.42322 0.72196 0.0
H443 H 0.09807 0.49001 0.71902 0.0
loop_
_geom_bond_atom_site_label_1
_geom_bond_atom_site_label_2
_geom_bond_distance
_geom_bond_site_symmetry_2
_ccdc_geom_bond_type
C0 O2 1.247 . S
C0 O4 1.258 . S
C1 O8 1.247 . S
C1 O9 1.258 . S
O2 C0 1.247 . S
O2 Zn3 2.028 1_556 S
Zn3 O2 2.028 1_554 S
Zn3 O7 2.035 . S
Zn3 O9 2.035 . S
Zn3 O10 2.028 . S
O4 C0 1.258 . S
O4 Zn5 2.035 1_556 S
Zn5 O4 2.035 1_554 S
Zn5 O6 2.028 . S
Zn5 O8 2.028 . S
Zn5 O11 2.035 . S
O6 Zn5 2.028 . S
O6 C12 1.247 . S
O7 Zn3 2.035 . S
O7 C12 1.258 . S
O8 C1 1.247 . S
O8 Zn5 2.028 . S
O9 C1 1.258 . S
O9 Zn3 2.035 . S
O10 Zn3 2.028 . S
O10 C13 1.247 . S
O11 Zn5 2.035 . S
O11 C13 1.258 . S
C12 O6 1.247 . S
C12 O7 1.258 . S
C13 O10 1.247 . S
C13 O11 1.258 . S
C14 O16 1.247 . S
C14 O18 1.258 . S
C15 O22 1.247 . S
C15 O23 1.258 . S
O16 C14 1.247 . S
O16 Zn17 2.028 . S
Zn17 O16 2.028 . S
Zn17 O21 2.035 . S
Zn17 O23 2.035 . S
Zn17 O24 2.028 . S
O18 C14 1.258 . S
O18 Zn19 2.035 . S
Zn19 O18 2.035 . S
Zn19 O20 2.028 . S
Zn19 O22 2.028 . S
Zn19 O25 2.035 . S
O20 Zn19 2.028 . S
O20 C26 1.247 . S
O21 Zn17 2.035 . S
O21 C26 1.258 . S
O22 C15 1.247 . S
O22 Zn19 2.028 . S
O23 C15 1.258 . S
O23 Zn17 2.035 . S
O24 Zn17 2.028 . S
O24 C27 1.247 . S
O25 Zn19 2.035 . S
O25 C27 1.258 . S
C26 O20 1.247 . S
C26 O21 1.258 . S
C27 O24 1.247 . S
C27 O25 1.258 . S
C28 O30 1.247 1_455 S
C28 O32 1.258 . S
C29 O36 1.247 1_655 S
C29 O37 1.258 . S
O30 C28 1.247 1_655 S
O30 Zn31 2.028 . S
Zn31 O30 2.028 . S
Zn31 O35 2.035 . S
Zn31 O37 2.035 . S
Zn31 O38 2.028 . S
O32 C28 1.258 . S
O32 Zn33 2.035 . S
Zn33 O32 2.035 . S
Zn33 O34 2.028 . S
Zn33 O36 2.028 . S
Zn33 O39 2.035 . S
O34 Zn33 2.028 . S
O34 C40 1.247 . S
O35 Zn31 2.035 . S
O35 C40 1.258 1_655 S
O36 C29 1.247 1_455 S
O36 Zn33 2.028 . S
O37 C29 1.258 . S
O37 Zn31 2.035 . S
O38 Zn31 2.028 . S
O38 C41 1.247 1_655 S
O39 Zn33 2.035 . S
O39 C41 1.258 . S
C40 O34 1.247 . S
C40 O35 1.258 1_455 S
C41 O38 1.247 1_455 S
C41 O39 1.258 . S
C42 O44 1.247 . S
C42 O46 1.258 1_545 S
C43 O50 1.247 1_545 S
C43 O51 1.258 . S
O44 C42 1.247 . S
O44 Zn45 2.028 . S
Zn45 O44 2.028 . S
Zn45 O49 2.035 . S
Zn45 O51 2.035 . S
Zn45 O52 2.028 1_554 S
O46 C42 1.258 1_565 S
O46 Zn47 2.035 . S
Zn47 O46 2.035 . S
Zn47 O48 2.028 . S
Zn47 O50 2.028 . S
Zn47 O53 2.035 1_554 S
O48 Zn47 2.028 . S
O48 C54 1.247 . S
O49 Zn45 2.035 . S
O49 C54 1.258 1_545 S
O50 C43 1.247 1_565 S
O50 Zn47 2.028 . S
O51 C43 1.258 . S
O51 Zn45 2.035 . S
O52 Zn45 2.028 1_556 S
O52 C55 1.247 . S
O53 Zn47 2.035 1_556 S
O53 C55 1.258 1_565 S
C54 O48 1.247 . S
C54 O49 1.258 1_565 S
C55 O52 1.247 . S
C55 O53 1.258 1_545 S
C56 O58 1.247 . S
C56 O60 1.258 . S
C57 O64 1.247 . S
C57 O65 1.258 . S
O58 C56 1.247 . S
O58 Zn59 2.028 . S
Zn59 O58 2.028 . S
Zn59 O63 2.035 . S
Zn59 O65 2.035 . S
Zn59 O66 2.028 . S
O60 C56 1.258 . S
O60 Zn61 2.035 . S
Zn61 O60 2.035 . S
Zn61 O62 2.028 . S
Zn61 O64 2.028 . S
Zn61 O67 2.035 . S
O62 Zn61 2.028 . S
O62 C68 1.247 . S
O63 Zn59 2.035 . S
O63 C68 1.258 . S
O64 C57 1.247 . S
O64 Zn61 2.028 . S
O65 C57 1.258 . S
O65 Zn59 2.035 . S
O66 Zn59 2.028 . S
O66 C69 1.247 . S
O67 Zn61 2.035 . S
O67 C69 1.258 . S
C68 O62 1.247 . S
C68 O63 1.258 . S
C69 O66 1.247 . S
C69 O67 1.258 . S
C70 O72 1.247 . S
C70 O74 1.258 . S
C71 O78 1.247 . S
C71 O79 1.258 . S
O72 C70 1.247 . S
O72 Zn73 2.028 . S
Zn73 O72 2.028 . S
Zn73 O77 2.035 . S
Zn73 O79 2.035 . S
Zn73 O80 2.028 . S
O74 C70 1.258 . S
O74 Zn75 2.035 . S
Zn75 O74 2.035 . S
Zn75 O76 2.028 . S
Zn75 O78 2.028 . S
Zn75 O81 2.035 . S
O76 Zn75 2.028 . S
O76 C82 1.247 . S
O77 Zn73 2.035 . S
O77 C82 1.258 . S
O78 C71 1.247 . S
O78 Zn75 2.028 . S
O79 C71 1.258 . S
O79 Zn73 2.035 . S
O80 Zn73 2.028 . S
O80 C83 1.247 . S
O81 Zn75 2.035 . S
O81 C83 1.258 . S
C82 O76 1.247 . S
C82 O77 1.258 . S
C83 O80 1.247 . S
C83 O81 1.258 . S
C84 C85 1.349 . S
C84 C86 1.327 . S
C84 H109 0.950 . S
C85 C84 1.349 . S
C85 C101 1.349 . S
C86 C84 1.327 . S
C86 C105 1.429 . S
C86 H110 0.950 . S
C87 C104 1.574 . S
C87 C106 1.368 . S
C87 H111 0.949 . S
H88 C92 0.949 . S
C89 C90 1.349 . S
C89 C91 1.327 . S
C89 H112 0.950 . S
C90 C89 1.349 . S
C90 C102 1.349 . S
C91 C89 1.327 . S
C91 C107 1.429 . S
C91 H113 0.950 . S
C92 H88 0.949 . S
C92 C100 1.574 . S
C92 C108 1.368 . S
H93 C101 0.950 . S
H94 C99 0.950 . S
H95 C100 0.949 . S
H96 C102 0.950 . S
H97 C103 0.950 . S
H98 C104 0.949 . S
C99 H94 0.950 . S
C99 C101 1.327 . S
C99 C105 1.429 . S
C100 C92 1.574 . S
C100 H95 0.949 . S
C100 C106 1.368 . S
C101 C85 1.349 . S
C101 H93 0.950 . S
C101 C99 1.327 . S
C102 C90 1.349 . S
C102 H96 0.950 . S
C102 C103 1.327 . S
C103 H97 0.950 . S
C103 C102 1.327 . S
C103 C107 1.429 . S
C104 C87 1.574 . S
C104 H98 0.949 . S
C104 C108 1.368 . S
C105 C86 1.429 . S
C105 C99 1.429 . S
C105 C106 1.523 . S
C106 C87 1.368 . S
C106 C100 1.368 . S
C106 C105 1.523 . S
C107 C91 1.429 . S
C107 C103 1.429 . S
C107 C108 1.523 . S
C108 C92 1.368 . S
C108 C104 1.368 . S
C108 C107 1.523 . S
H109 C84 0.950 . S
H110 C86 0.950 . S
H111 C87 0.949 . S
H112 C89 0.950 . S
H113 C91 0.950 . S
C114 C115 1.349 . S
C114 C116 1.327 . S
C114 H139 0.950 . S
C115 C114 1.349 . S
C115 C131 1.349 . S
C116 C114 1.327 . S
C116 C135 1.429 . S
C116 H140 0.950 . S
C117 C134 1.574 . S
C117 C136 1.368 . S
C117 H141 0.949 . S
H118 C122 0.949 . S
C119 C120 1.349 . S
C119 C121 1.327 . S
C119 H142 0.950 . S
C120 C119 1.349 . S
C120 C132 1.349 . S
C121 C119 1.327 . S
C121 C137 1.429 . S
C121 H143 0.950 . S
C122 H118 0.949 . S
C122 C130 1.574 . S
C122 C138 1.368 . S
H123 C131 0.950 . S
H124 C129 0.950 . S
H125 C130 0.949 . S
H126 C132 0.950 . S
H127 C133 0.950 . S
H128 C134 0.949 . S
C129 H124 0.950 . S
C129 C131 1.327 . S
C129 C135 1.429 . S
C130 C122 1.574 . S
C130 H125 0.949 . S
C130 C136 1.368 . S
C131 C115 1.349 . S
C131 H123 0.950 . S
C131 C129 1.327 . S
C132 C120 1.349 . S
C132 H126 0.950 . S
C132 C133 1.327 . S
C133 H127 0.950 . S
C133 C132 1.327 . S
C133 C137 1.429 . S
C134 C117 1.574 . S
C134 H128 0.949 . S
C134 C138 1.368 . S
C135 C116 1.429 . S
C135 C129 1.429 . S
C135 C136 1.523 . S
C136 C117 1.368 . S
C136 C130 1.368 . S
C136 C135 1.523 . S
C137 C121 1.429 . S
C137 C133 1.429 . S
C137 C138 1.523 . S
C138 C122 1.368 . S
C138 C134 1.368 . S
C138 C137 1.523 . S
H139 C114 0.950 . S
H140 C116 0.950 . S
H141 C117 0.949 . S
H142 C119 0.950 . S
H143 C121 0.950 . S
C144 C145 1.349 . S
C144 C146 1.327 . S
C144 H169 0.950 . S
C145 C144 1.349 . S
C145 C161 1.349 . S
C146 C144 1.327 . S
C146 C165 1.429 . S
C146 H170 0.950 . S
C147 C164 1.574 . S
C147 C166 1.368 . S
C147 H171 0.949 . S
H148 C152 0.949 . S
C149 C150 1.349 . S
C149 C151 1.327 . S
C149 H172 0.950 1_655 S
C150 C149 1.349 . S
C150 C162 1.349 . S
C151 C149 1.327 . S
C151 C167 1.429 . S
C151 H173 0.950 . S
C152 H148 0.949 . S
C152 C160 1.574 . S
C152 C168 1.368 . S
H153 C161 0.950 . S
H154 C159 0.950 . S
H155 C160 0.949 . S
H156 C162 0.950 . S
H157 C163 0.950 . S
H158 C164 0.949 . S
C159 H154 0.950 . S
C159 C161 1.327 . S
C159 C165 1.429 . S
C160 C152 1.574 . S
C160 H155 0.949 . S
C160 C166 1.368 . S
C161 C145 1.349 . S
C161 H153 0.950 . S
C161 C159 1.327 . S
C162 C150 1.349 . S
C162 H156 0.950 . S
C162 C163 1.327 . S
C163 H157 0.950 . S
C163 C162 1.327 . S
C163 C167 1.429 . S
C164 C147 1.574 . S
C164 H158 0.949 . S
C164 C168 1.368 . S
C165 C146 1.429 . S
C165 C159 1.429 . S
C165 C166 1.523 . S
C166 C147 1.368 . S
C166 C160 1.368 . S
C166 C165 1.523 . S
C167 C151 1.429 . S
C167 C163 1.429 . S
C167 C168 1.523 . S
C168 C152 1.368 . S
C168 C164 1.368 . S
C168 C167 1.523 . S
H169 C144 0.950 . S
H170 C146 0.950 . S
H171 C147 0.949 . S
H172 C149 0.950 1_455 S
H173 C151 0.950 . S
C174 C175 1.349 . S
C174 C176 1.327 . S
C174 H199 0.950 . S
C175 C174 1.349 . S
C175 C191 1.349 . S
C176 C174 1.327 . S
C176 C195 1.429 . S
C176 H200 0.950 . S
C177 C194 1.574 . S
C177 C196 1.368 . S
C177 H201 0.949 . S
H178 C182 0.949 . S
C179 C180 1.349 . S
C179 C181 1.327 . S
C179 H202 0.950 . S
C180 C179 1.349 . S
C180 C192 1.349 . S
C181 C179 1.327 . S
C181 C197 1.429 . S
C181 H203 0.950 . S
C182 H178 0.949 . S
C182 C190 1.574 . S
C182 C198 1.368 . S
H183 C191 0.950 . S
H184 C189 0.950 . S
H185 C190 0.949 . S
H186 C192 0.950 . S
H187 C193 0.950 . S
H188 C194 0.949 . S
C189 H184 0.950 . S
C189 C191 1.327 . S
C189 C195 1.429 . S
C190 C182 1.574 . S
C190 H185 0.949 . S
C190 C196 1.368 . S
C191 C175 1.349 . S
C191 H183 0.950 . S
C191 C189 1.327 . S
C192 C180 1.349 . S
C192 H186 0.950 . S
C192 C193 1.327 . S
C193 H187 0.950 . S
C193 C192 1.327 . S
C193 C197 1.429 . S
C194 C177 1.574 . S
C194 H188 0.949 . S
C194 C198 1.368 . S
C195 C176 1.429 . S
C195 C189 1.429 . S
C195 C196 1.523 . S
C196 C177 1.368 . S
C196 C190 1.368 . S
C196 C195 1.523 . S
C197 C181 1.429 . S
C197 C193 1.429 . S
C197 C198 1.523 . S
C198 C182 1.368 . S
C198 C194 1.368 . S
C198 C197 1.523 . S
H199 C174 0.950 . S
H200 C176 0.950 . S
H201 C177 0.949 . S
H202 C179 0.950 . S
H203 C181 0.950 . S
C204 C205 1.349 . S
C204 C206 1.327 . S
C204 H229 0.950 . S
C205 C204 1.349 . S
C205 C221 1.349 . S
C206 C204 1.327 . S
C206 C225 1.429 . S
C206 H230 0.950 . S
C207 C224 1.574 . S
C207 C226 1.368 . S
C207 H231 0.949 . S
H208 C212 0.949 . S
C209 C210 1.349 . S
C209 C211 1.327 . S
C209 H232 0.950 . S
C210 C209 1.349 . S
C210 C222 1.349 . S
C211 C209 1.327 . S
C211 C227 1.429 . S
C211 H233 0.950 . S
C212 H208 0.949 . S
C212 C220 1.574 1_655 S
C212 C228 1.368 . S
H213 C221 0.950 1_655 S
H214 C219 0.950 . S
H215 C220 0.949 . S
H216 C222 0.950 . S
H217 C223 0.950 . S
H218 C224 0.949 . S
C219 H214 0.950 . S
C219 C221 1.327 1_655 S
C219 C225 1.429 1_655 S
C220 C212 1.574 1_455 S
C220 H215 0.949 . S
C220 C226 1.368 1_455 S
C221 C205 1.349 . S
C221 H213 0.950 1_455 S
C221 C219 1.327 1_455 S
C222 C210 1.349 . S
C222 H216 0.950 . S
C222 C223 1.327 . S
C223 H217 0.950 . S
C223 C222 1.327 . S
C223 C227 1.429 . S
C224 C207 1.574 . S
C224 H218 0.949 . S
C224 C228 1.368 . S
C225 C206 1.429 . S
C225 C219 1.429 1_455 S
C225 C226 1.523 1_455 S
C226 C207 1.368 . S
C226 C220 1.368 1_655 S
C226 C225 1.523 1_655 S
C227 C211 1.429 . S
C227 C223 1.429 . S
C227 C228 1.523 . S
C228 C212 1.368 . S
C228 C224 1.368 . S
C228 C227 1.523 . S
H229 C204 0.950 . S
H230 C206 0.950 . S
H231 C207 0.949 . S
H232 C209 0.950 . S
H233 C211 0.950 . S
C234 C235 1.349 . S
C234 C236 1.327 1_545 S
C234 H259 0.950 1_545 S
C235 C234 1.349 . S
C235 C251 1.349 . S
C236 C234 1.327 1_565 S
C236 C255 1.429 1_565 S
C236 H260 0.950 . S
C237 C254 1.574 . S
C237 C256 1.368 . S
C237 H261 0.949 1_565 S
H238 C242 0.949 . S
C239 C240 1.349 . S
C239 C241 1.327 . S
C239 H262 0.950 . S
C240 C239 1.349 . S
C240 C252 1.349 . S
C241 C239 1.327 . S
C241 C257 1.429 . S
C241 H263 0.950 . S
C242 H238 0.949 . S
C242 C250 1.574 . S
C242 C258 1.368 . S
H243 C251 0.950 . S
H244 C249 0.950 . S
H245 C250 0.949 . S
H246 C252 0.950 . S
H247 C253 0.950 . S
H248 C254 0.949 . S
C249 H244 0.950 . S
C249 C251 1.327 . S
C249 C255 1.429 . S
C250 C242 1.574 . S
C250 H245 0.949 . S
C250 C256 1.368 . S
C251 C235 1.349 . S
C251 H243 0.950 . S
C251 C249 1.327 . S
C252 C240 1.349 . S
C252 H246 0.950 . S
C252 C253 1.327 . S
C253 H247 0.950 . S
C253 C252 1.327 . S
C253 C257 1.429 . S
C254 C237 1.574 . S
C254 H248 0.949 . S
C254 C258 1.368 . S
C255 C236 1.429 1_545 S
C255 C249 1.429 . S
C255 C256 1.523 1_545 S
C256 C237 1.368 . S
C256 C250 1.368 . S
C256 C255 1.523 1_565 S
C257 C241 1.429 . S
C257 C253 1.429 . S
C257 C258 1.523 . S
C258 C242 1.368 . S
C258 C254 1.368 . S
C258 C257 1.523 . S
H259 C234 0.950 1_565 S
H260 C236 0.950 . S
H261 C237 0.949 1_545 S
H262 C239 0.950 . S
H263 C241 0.950 . S
C264 C265 1.349 . S
C264 C266 1.327 . S
C264 H289 0.950 . S
C265 C264 1.349 . S
C265 C281 1.349 . S
C266 C264 1.327 . S
C266 C285 1.429 . S
C266 H290 0.950 . S
C267 C284 1.574 . S
C267 C286 1.368 . S
C267 H291 0.949 1_554 S
H268 C272 0.949 . S
C269 C270 1.349 1_565 S
C269 C271 1.329 1_565 S
C269 H292 0.950 1_554 S
C270 C269 1.349 1_545 S
C270 C282 1.349 . S
C271 C269 1.329 1_545 S
C271 C287 1.431 . S
C271 H293 0.944 1_544 S
C272 H268 0.949 . S
C272 C280 1.574 . S
C272 C288 1.368 . S
H273 C281 0.950 1_556 S
H274 C279 0.950 1_556 S
H275 C280 0.949 . S
H276 C282 0.950 . S
H277 C283 0.950 . S
H278 C284 0.949 1_556 S
C279 H274 0.950 1_554 S
C279 C281 1.327 . S
C279 C285 1.429 . S
C280 C272 1.574 . S
C280 H275 0.949 . S
C280 C286 1.368 . S
C281 C265 1.349 . S
C281 H273 0.950 1_554 S
C281 C279 1.327 . S
C282 C270 1.349 . S
C282 H276 0.950 . S
C282 C283 1.327 . S
C283 H277 0.950 . S
C283 C282 1.327 . S
C283 C287 1.429 . S
C284 C267 1.574 . S
C284 H278 0.949 1_554 S
C284 C288 1.368 . S
C285 C266 1.429 . S
C285 C279 1.429 . S
C285 C286 1.523 . S
C286 C267 1.368 . S
C286 C280 1.368 . S
C286 C285 1.523 . S
C287 C271 1.431 . S
C287 C283 1.429 . S
C287 C288 1.523 1_655 S
C288 C272 1.368 . S
C288 C284 1.368 . S
C288 C287 1.523 1_455 S
H289 C264 0.950 . S
H290 C266 0.950 . S
H291 C267 0.949 1_556 S
H292 C269 0.950 1_556 S
H293 C271 0.944 1_566 S
C294 C295 1.349 . S
C294 C296 1.327 . S
C294 H319 0.950 . S
C295 C294 1.349 . S
C295 C311 1.349 . S
C296 C294 1.327 . S
C296 C315 1.429 . S
C296 H320 0.950 . S
C297 C314 1.574 . S
C297 C316 1.368 . S
C297 H321 0.949 . S
H298 C302 0.949 . S
C299 C300 1.349 . S
C299 C301 1.327 . S
C299 H322 0.950 . S
C300 C299 1.349 . S
C300 C312 1.349 . S
C301 C299 1.327 . S
C301 C317 1.429 . S
C301 H323 0.950 . S
C302 H298 0.949 . S
C302 C310 1.574 . S
C302 C318 1.368 . S
H303 C311 0.950 . S
H304 C309 0.950 1_455 S
H305 C310 0.949 1_655 S
H306 C312 0.950 . S
H307 C313 0.950 . S
H308 C314 0.949 . S
C309 H304 0.950 1_655 S
C309 C311 1.327 . S
C309 C315 1.429 . S
C310 C302 1.574 . S
C310 H305 0.949 1_455 S
C310 C316 1.368 . S
C311 C295 1.349 . S
C311 H303 0.950 . S
C311 C309 1.327 . S
C312 C300 1.349 . S
C312 H306 0.950 . S
C312 C313 1.327 . S
C313 H307 0.950 . S
C313 C312 1.327 . S
C313 C317 1.429 . S
C314 C297 1.574 . S
C314 H308 0.949 . S
C314 C318 1.368 . S
C315 C296 1.429 . S
C315 C309 1.429 . S
C315 C316 1.523 1_665 S
C316 C297 1.368 . S
C316 C310 1.368 . S
C316 C315 1.523 1_445 S
C317 C301 1.429 . S
C317 C313 1.429 . S
C317 C318 1.523 . S
C318 C302 1.368 . S
C318 C314 1.368 . S
C318 C317 1.523 . S
H319 C294 0.950 . S
H320 C296 0.950 . S
H321 C297 0.949 . S
H322 C299 0.950 . S
H323 C301 0.950 . S
C324 C325 1.349 1_655 S
C324 C326 1.327 . S
C324 H349 0.950 . S
C325 C324 1.349 1_455 S
C325 C341 1.349 . S
C326 C324 1.327 . S
C326 C345 1.429 1_655 S
C326 H350 0.950 . S
C327 C344 1.574 . S
C327 C346 1.368 . S
C327 H351 0.949 . S
H328 C332 0.949 1_565 S
C329 C330 1.349 . S
C329 C331 1.327 . S
C329 H352 0.950 . S
C330 C329 1.349 . S
C330 C342 1.349 . S
C331 C329 1.327 . S
C331 C347 1.429 . S
C331 H353 0.950 1_565 S
C332 H328 0.949 1_545 S
C332 C340 1.574 . S
C332 C348 1.368 . S
H333 C341 0.950 . S
H334 C339 0.950 . S
H335 C340 0.949 1_655 S
H336 C342 0.950 . S
H337 C343 0.950 . S
H338 C344 0.949 . S
C339 H334 0.950 . S
C339 C341 1.327 . S
C339 C345 1.429 . S
C340 C332 1.574 . S
C340 H335 0.949 1_455 S
C340 C346 1.368 . S
C341 C325 1.349 . S
C341 H333 0.950 . S
C341 C339 1.327 . S
C342 C330 1.349 . S
C342 H336 0.950 . S
C342 C343 1.327 . S
C343 H337 0.950 . S
C343 C342 1.327 . S
C343 C347 1.429 . S
C344 C327 1.574 . S
C344 H338 0.949 . S
C344 C348 1.368 . S
C345 C326 1.429 1_455 S
C345 C339 1.429 . S
C345 C346 1.523 . S
C346 C327 1.368 . S
C346 C340 1.368 . S
C346 C345 1.523 . S
C347 C331 1.429 . S
C347 C343 1.429 . S
C347 C348 1.523 1_565 S
C348 C332 1.368 . S
C348 C344 1.368 . S
C348 C347 1.523 1_545 S
H349 C324 0.950 . S
H350 C326 0.950 . S
H351 C327 0.949 . S
H352 C329 0.950 . S
H353 C331 0.950 1_545 S
C354 C355 1.349 . S
C354 C356 1.327 . S
C354 H379 0.950 . S
C355 C354 1.349 . S
C355 C371 1.347 1_544 S
C356 C354 1.327 . S
C356 C375 1.429 . S
C356 H380 0.950 . S
C357 C374 1.574 . S
C357 C376 1.368 1_556 S
C357 H381 0.949 . S
H358 C362 0.949 . S
C359 C360 1.347 1_556 S
C359 C361 1.327 . S
C359 H382 0.951 . S
C360 C359 1.347 1_554 S
C360 C372 1.349 . S
C361 C359 1.327 . S
C361 C377 1.410 1_556 S
C361 H383 0.969 . S
C362 H358 0.949 . S
C362 C370 1.574 . S
C362 C378 1.368 . S
H363 C371 0.951 . S
H364 C369 0.969 1_565 S
H365 C370 0.949 . S
H366 C372 0.950 . S
H367 C373 0.950 . S
H368 C374 0.949 . S
C369 H364 0.969 1_545 S
C369 C371 1.327 1_545 S
C369 C375 1.410 1_556 S
C370 C362 1.574 . S
C370 H365 0.949 . S
C370 C376 1.368 . S
C371 C355 1.347 1_566 S
C371 H363 0.951 . S
C371 C369 1.327 1_565 S
C372 C360 1.349 . S
C372 H366 0.950 . S
C372 C373 1.327 . S
C373 H367 0.950 . S
C373 C372 1.327 . S
C373 C377 1.429 . S
C374 C357 1.574 . S
C374 H368 0.949 . S
C374 C378 1.368 1_556 S
C375 C356 1.429 . S
C375 C369 1.410 1_554 S
C375 C376 1.523 . S
C376 C357 1.368 1_554 S
C376 C370 1.368 . S
C376 C375 1.523 . S
C377 C361 1.410 1_554 S
C377 C373 1.429 . S
C377 C378 1.523 . S
C378 C362 1.368 . S
C378 C374 1.368 1_554 S
C378 C377 1.523 . S
H379 C354 0.950 . S
H380 C356 0.950 . S
H381 C357 0.949 . S
H382 C359 0.951 . S
H383 C361 0.969 . S
C384 C385 1.349 . S
C384 C386 1.327 . S
C384 H409 0.950 . S
C385 C384 1.349 . S
C385 C401 1.349 . S
C386 C384 1.327 . S
C386 C405 1.429 . S
C386 H410 0.950 . S
C387 C404 1.574 . S
C387 C406 1.368 . S
C387 H411 0.949 . S
H388 C392 0.949 . S
C389 C390 1.349 . S
C389 C391 1.327 . S
C389 H412 0.950 . S
C390 C389 1.349 . S
C390 C402 1.349 . S
C391 C389 1.327 . S
C391 C407 1.429 . S
C391 H413 0.950 . S
C392 H388 0.949 . S
C392 C400 1.574 . S
C392 C408 1.368 . S
H393 C401 0.950 . S
H394 C399 0.950 . S
H395 C400 0.949 . S
H396 C402 0.950 . S
H397 C403 0.950 . S
H398 C404 0.949 . S
C399 H394 0.950 . S
C399 C401 1.327 . S
C399 C405 1.429 . S
C400 C392 1.574 . S
C400 H395 0.949 . S
C400 C406 1.368 . S
C401 C385 1.349 . S
C401 H393 0.950 . S
C401 C399 1.327 . S
C402 C390 1.349 . S
C402 H396 0.950 . S
C402 C403 1.327 . S
C403 H397 0.950 . S
C403 C402 1.327 . S
C403 C407 1.429 . S
C404 C387 1.574 . S
C404 H398 0.949 . S
C404 C408 1.368 . S
C405 C386 1.429 . S
C405 C399 1.429 . S
C405 C406 1.523 . S
C406 C387 1.368 . S
C406 C400 1.368 . S
C406 C405 1.523 . S
C407 C391 1.429 . S
C407 C403 1.429 . S
C407 C408 1.523 . S
C408 C392 1.368 . S
C408 C404 1.368 . S
C408 C407 1.523 . S
H409 C384 0.950 . S
H410 C386 0.950 . S
H411 C387 0.949 . S
H412 C389 0.950 . S
H413 C391 0.950 . S
C414 C415 1.349 . S
C414 C416 1.327 . S
C414 H439 0.950 . S
C415 C414 1.349 . S
C415 C431 1.349 . S
C416 C414 1.327 . S
C416 C435 1.429 . S
C416 H440 0.950 . S
C417 C434 1.574 . S
C417 C436 1.368 . S
C417 H441 0.949 . S
H418 C422 0.949 . S
C419 C420 1.349 1_655 S
C419 C421 1.327 1_655 S
C419 H442 0.950 . S
C420 C419 1.349 1_455 S
C420 C432 1.349 . S
C421 C419 1.327 1_455 S
C421 C437 1.429 . S
C421 H443 0.950 1_455 S
C422 H418 0.949 . S
C422 C430 1.574 . S
C422 C438 1.368 . S
H423 C431 0.950 . S
H424 C429 0.950 . S
H425 C430 0.949 . S
H426 C432 0.950 . S
H427 C433 0.950 . S
H428 C434 0.949 . S
C429 H424 0.950 . S
C429 C431 1.327 . S
C429 C435 1.429 . S
C430 C422 1.574 . S
C430 H425 0.949 . S
C430 C436 1.368 . S
C431 C415 1.349 . S
C431 H423 0.950 . S
C431 C429 1.327 . S
C432 C420 1.349 . S
C432 H426 0.950 . S
C432 C433 1.327 . S
C433 H427 0.950 . S
C433 C432 1.327 . S
C433 C437 1.429 . S
C434 C417 1.574 . S
C434 H428 0.949 . S
C434 C438 1.368 . S
C435 C416 1.429 . S
C435 C429 1.429 . S
C435 C436 1.523 . S
C436 C417 1.368 . S
C436 C430 1.368 . S
C436 C435 1.523 . S
C437 C421 1.429 . S
C437 C433 1.429 . S
C437 C438 1.523 . S
C438 C422 1.368 . S
C438 C434 1.368 . S
C438 C437 1.523 . S
H439 C414 0.950 . S
H440 C416 0.950 . S
H441 C417 0.949 . S
H442 C419 0.950 . S
H443 C421 0.950 1_655 S
C85 C1 1.772 . S
C90 C27 1.743 . S
C115 C26 1.772 . S
C120 C28 1.743 . S
C145 C55 1.743 . S
C150 C29 1.773 . S
C175 C54 1.772 . S
C180 C68 1.743 . S
C205 C83 1.743 . S
C210 C69 1.773 . S
C235 C0 1.743 . S
C240 C82 1.772 . S
C265 C12 0.980 . S
C270 C43 0.981 . S
C295 C56 0.980 . S
C300 C15 0.981 . S
C325 C40 0.980 . S
C330 C71 0.981 . S
C355 C42 1.554 . S
C360 C13 1.555 . S
C385 C57 1.556 . S
C390 C14 1.554 . S
C415 C70 1.554 . S
C420 C41 1.555 . S
