# Generated by pormake.
# Topology vcm, (7)-cn, num edge types: 1
# Building blocks:
#     Node 0, Type 0, BuildingBlock: HICVOG_clean_sbu_0, # of connection points: 7
#     Node 1, Type 0, BuildingBlock: HICVOG_clean_sbu_0, # of connection points: 7
#     Node 2, Type 0, BuildingBlock: HICVOG_clean_sbu_0, # of connection points: 7
#     Node 3, Type 0, BuildingBlock: HICVOG_clean_sbu_0, # of connection points: 7
#     Node 4, Type 0, BuildingBlock: HICVOG_clean_sbu_0, # of connection points: 7
#     Node 5, Type 0, BuildingBlock: HICVOG_clean_sbu_0, # of connection points: 7
#     Node 6, Type 0, BuildingBlock: HICVOG_clean_sbu_0, # of connection points: 7
#     Node 7, Type 0, BuildingBlock: HICVOG_clean_sbu_0, # of connection points: 7
#     Edge 8, Type (0, 0), BuildingBlock: EZIPEK_clean_linker_0, # of connection points: 2
#     Edge 9, Type (0, 0), BuildingBlock: EZIPEK_clean_linker_0, # of connection points: 2
#     Edge 10, Type (0, 0), BuildingBlock: EZIPEK_clean_linker_0, # of connection points: 2
#     Edge 11, Type (0, 0), BuildingBlock: EZIPEK_clean_linker_0, # of connection points: 2
#     Edge 12, Type (0, 0), BuildingBlock: EZIPEK_clean_linker_0, # of connection points: 2
#     Edge 13, Type (0, 0), BuildingBlock: EZIPEK_clean_linker_0, # of connection points: 2
#     Edge 14, Type (0, 0), BuildingBlock: EZIPEK_clean_linker_0, # of connection points: 2
#     Edge 15, Type (0, 0), BuildingBlock: EZIPEK_clean_linker_0, # of connection points: 2
#     Edge 16, Type (0, 0), BuildingBlock: EZIPEK_clean_linker_0, # of connection points: 2
#     Edge 17, Type (0, 0), BuildingBlock: EZIPEK_clean_linker_0, # of connection points: 2
#     Edge 18, Type (0, 0), BuildingBlock: EZIPEK_clean_linker_0, # of connection points: 2
#     Edge 19, Type (0, 0), BuildingBlock: EZIPEK_clean_linker_0, # of connection points: 2
#     Edge 20, Type (0, 0), BuildingBlock: EZIPEK_clean_linker_0, # of connection points: 2
#     Edge 21, Type (0, 0), BuildingBlock: EZIPEK_clean_linker_0, # of connection points: 2
#     Edge 22, Type (0, 0), BuildingBlock: EZIPEK_clean_linker_0, # of connection points: 2
#     Edge 23, Type (0, 0), BuildingBlock: EZIPEK_clean_linker_0, # of connection points: 2
#     Edge 24, Type (0, 0), BuildingBlock: EZIPEK_clean_linker_0, # of connection points: 2
#     Edge 25, Type (0, 0), BuildingBlock: EZIPEK_clean_linker_0, # of connection points: 2
#     Edge 26, Type (0, 0), BuildingBlock: EZIPEK_clean_linker_0, # of connection points: 2
#     Edge 27, Type (0, 0), BuildingBlock: EZIPEK_clean_linker_0, # of connection points: 2
#     Edge 28, Type (0, 0), BuildingBlock: EZIPEK_clean_linker_0, # of connection points: 2
#     Edge 29, Type (0, 0), BuildingBlock: EZIPEK_clean_linker_0, # of connection points: 2
#     Edge 30, Type (0, 0), BuildingBlock: EZIPEK_clean_linker_0, # of connection points: 2
#     Edge 31, Type (0, 0), BuildingBlock: EZIPEK_clean_linker_0, # of connection points: 2
#     Edge 32, Type (0, 0), BuildingBlock: EZIPEK_clean_linker_0, # of connection points: 2
#     Edge 33, Type (0, 0), BuildingBlock: EZIPEK_clean_linker_0, # of connection points: 2
#     Edge 34, Type (0, 0), BuildingBlock: EZIPEK_clean_linker_0, # of connection points: 2
#     Edge 35, Type (0, 0), BuildingBlock: EZIPEK_clean_linker_0, # of connection points: 2
# Relax obj value: 0.290
# Max RMSD: 0.262
# Mean RMSD: 0.262
data_MOF--net-vcm--node1-HICVOG_clean_sbu_0--edge1-EZIPEK_clean_linker_0
_symmetry_space_group_name_H-M    P1
_symmetry_Int_Tables_number       1
_symmetry_cell_setting            triclinic
loop_
_symmetry_equiv_pos_as_xyz
'x, y, z'
_cell_length_a     31.856867
_cell_length_b     26.233232
_cell_length_c     19.067959
_cell_angle_alpha  90.196343
_cell_angle_beta   90.214507
_cell_angle_gamma 89.999593
loop_
_atom_site_label
_atom_site_type_symbol
_atom_site_fract_x
_atom_site_fract_y
_atom_site_fract_z
_atom_type_partial_charge
Zn0 Zn 1.01428 0.288 0.17938 0.0
C1 C 0.06405 0.39432 0.05644 0.0
N2 N 0.05089 0.36384 1.00409 0.0
C3 C 0.04108 0.32032 0.03736 0.0
N4 N 0.04626 0.3248 0.10768 0.0
N5 N 0.06249 0.37067 0.11918 0.0
C6 C 0.08972 0.47643 0.28077 0.0
O7 O 0.07099 0.44399 0.32256 0.0
O8 O 1.01053 0.21241 0.16221 0.0
Zn9 Zn 0.10175 0.38629 0.19536 0.0
N10 N 0.95673 0.31462 0.18172 0.0
C11 C 0.90922 0.37552 0.13376 0.0
C12 C 0.94893 0.35385 0.13731 0.0
C13 C 0.92544 0.2953 0.22271 0.0
N14 N 0.87823 0.35664 0.17441 0.0
C15 C 0.88497 0.31714 0.21901 0.0
O16 O 0.09312 0.347 0.2845 0.0
C17 C 0.06932 0.31346 0.31095 0.0
O18 O 0.03976 0.29256 0.27638 0.0
H19 H 0.9732 0.36769 0.10372 0.0
H20 H 0.93179 0.26343 0.25706 0.0
C21 C 0.19161 0.37827 0.20278 0.0
C22 C 0.23001 0.35343 0.18984 0.0
C23 C 0.19786 0.30734 0.09672 0.0
C24 C 0.15965 0.33048 0.11168 0.0
N25 N 0.15701 0.36487 0.16494 0.0
N26 N 0.23186 0.31867 0.13673 0.0
H27 H 0.18865 0.4057 0.24503 0.0
C28 C 0.0394 0.18464 0.18789 0.0
O29 O 0.07303 0.20612 0.21482 0.0
O30 O 0.10375 0.4611 0.22181 0.0
H31 H 0.13221 0.32044 0.08165 0.0
H32 H 0.90291 0.40676 0.09837 0.0
H33 H 0.20028 0.27966 0.05475 0.0
Zn34 Zn 0.52241 0.61131 0.69822 0.0
C35 C 0.58459 0.68052 0.54524 0.0
N36 N 0.57399 0.63876 0.5082 0.0
C37 C 0.55951 0.6069 0.55748 0.0
N38 N 0.56129 0.62821 0.62217 0.0
N39 N 0.57859 0.67382 0.61478 0.0
C40 C 0.58836 0.80935 0.69019 0.0
O41 O 0.55291 0.78711 0.70714 0.0
O42 O 0.52235 0.5365 0.72198 0.0
Zn43 Zn 0.60966 0.70704 0.69039 0.0
N44 N 0.46713 0.63171 0.66712 0.0
C45 C 0.42583 0.69002 0.60096 0.0
C46 C 0.46423 0.66717 0.61554 0.0
C47 C 0.43273 0.61735 0.70411 0.0
N48 N 0.39199 0.67767 0.64019 0.0
C49 C 0.39426 0.64216 0.69199 0.0
O50 O 0.58029 0.70622 0.78333 0.0
C51 C 0.55095 0.68504 0.81718 0.0
O52 O 0.52858 0.64987 0.79048 0.0
H53 H 0.49156 0.67799 0.58626 0.0
H54 H 0.43597 0.58944 0.74547 0.0
C55 C 0.69976 0.69246 0.7191 0.0
C56 C 0.73464 0.66137 0.73475 0.0
C57 C 0.69195 0.58788 0.72167 0.0
C58 C 0.65736 0.6186 0.70769 0.0
N59 N 0.66183 0.67011 0.7057 0.0
N60 N 0.72962 0.6099 0.73514 0.0
H61 H 0.70254 0.73358 0.71915 0.0
C62 C 0.54113 0.52154 0.77727 0.0
O63 O 0.56282 0.55428 0.81492 0.0
O64 O 0.61969 0.78188 0.67351 0.0
H65 H 0.6269 0.60147 0.69949 0.0
H66 H 0.42315 0.71834 0.56008 0.0
H67 H 0.68877 0.54683 0.72293 0.0
Zn68 Zn 0.02789 0.70917 0.85832 0.0
C69 C 0.0772 0.60845 0.98874 0.0
N70 N 0.06431 0.64093 0.03891 0.0
C71 C 0.05457 0.68329 1.00292 0.0
N72 N 0.05953 0.67648 0.93317 0.0
N73 N 0.07547 0.63022 0.92463 0.0
C74 C 0.0938 0.52414 0.76945 0.0
O75 O 0.07242 0.55761 0.7329 0.0
O76 O 1.01376 0.78274 0.87656 0.0
Zn77 Zn 0.1143 0.61327 0.84884 0.0
N78 N 0.97688 0.67024 0.84082 0.0
C79 C 0.94745 0.5878 0.82257 0.0
C80 C 0.98174 0.61878 0.83799 0.0
C81 C 0.93889 0.69224 0.82704 0.0
N82 N 0.90971 0.60951 0.80879 0.0
C83 C 0.90434 0.66093 0.81015 0.0
O84 O 0.10795 0.65172 0.75774 0.0
C85 C 0.08677 0.68826 0.73238 0.0
O86 O 0.05801 0.71041 0.76662 0.0
H87 H 1.01218 0.60185 0.84675 0.0
H88 H 0.9358 0.73332 0.82784 0.0
C89 C 0.20397 0.61932 0.8426 0.0
C90 C 0.24247 0.64419 0.85426 0.0
C91 C 0.21096 0.69361 0.94425 0.0
C92 C 0.17252 0.6706 0.93021 0.0
N93 N 0.16959 0.63438 0.87922 0.0
N94 N 0.24479 0.68054 0.90528 0.0
H95 H 0.2007 0.59069 0.80192 0.0
C96 C 0.04149 0.81493 0.85848 0.0
O97 O 0.07857 0.79881 0.83848 0.0
O98 O 0.1136 0.53841 0.82425 0.0
H99 H 0.1452 0.68185 0.95937 0.0
H100 H 0.95092 0.5468 0.82059 0.0
H101 H 0.2137 0.72256 0.98454 0.0
Zn102 Zn 0.59739 0.28757 0.36223 0.0
C103 C 0.55057 0.39098 0.49031 0.0
N104 N 0.56366 0.35861 0.54034 0.0
C105 C 0.57189 0.31568 0.50438 0.0
N106 N 0.56585 0.32196 0.43493 0.0
N107 N 0.55066 0.36854 0.42619 0.0
C108 C 0.53201 0.47388 0.27107 0.0
O109 O 0.55349 0.44043 0.23459 0.0
O110 O 0.60716 0.21305 0.38103 0.0
Zn111 Zn 0.51138 0.38491 0.34973 0.0
N112 N 0.65027 0.32304 0.34978 0.0
C113 C 0.68324 0.40349 0.33326 0.0
C114 C 0.64737 0.37461 0.34526 0.0
C115 C 0.68779 0.2988 0.34082 0.0
N116 N 0.72045 0.37952 0.32336 0.0
C117 C 0.72384 0.32785 0.32577 0.0
O118 O 0.51823 0.34571 0.25802 0.0
C119 C 0.54047 0.30987 0.23295 0.0
O120 O 0.56911 0.28835 0.2684 0.0
H121 H 0.61729 0.39321 0.35043 0.0
H122 H 0.68928 0.25761 0.34285 0.0
C123 C 0.4213 0.37804 0.34146 0.0
C124 C 0.38276 0.35344 0.35393 0.0
C125 C 0.41436 0.30744 0.4472 0.0
C126 C 0.4527 0.33035 0.43278 0.0
N127 N 0.4557 0.36463 0.37973 0.0
N128 N 0.38057 0.31885 0.40688 0.0
H129 H 0.42454 0.40525 0.29928 0.0
C130 C 0.57658 0.1847 0.36313 0.0
O131 O 0.54088 0.20591 0.34468 0.0
O132 O 0.51212 0.45959 0.32536 0.0
H133 H 0.47992 0.32062 0.46345 0.0
H134 H 0.68139 0.4446 0.33039 0.0
H135 H 0.41166 0.27995 0.4891 0.0
Zn136 Zn 0.52733 0.78849 0.19098 0.0
C137 C 0.57397 0.89012 0.05884 0.0
N138 N 0.56004 0.85759 1.00946 0.0
C139 C 0.55114 0.81532 0.04608 0.0
N140 N 0.55743 0.82227 0.11555 0.0
N141 N 0.57348 0.86857 0.12334 0.0
C142 C 0.58958 0.97409 0.27847 0.0
O143 O 0.56836 0.93996 0.31383 0.0
O144 O 0.51499 0.71419 0.17253 0.0
Zn145 Zn 0.61258 0.88608 0.19961 0.0
N146 N 0.47619 0.82636 0.2102 0.0
C147 C 0.44777 0.90841 0.23475 0.0
C148 C 0.48162 0.87754 0.21702 0.0
C149 C 0.43805 0.8044 0.22234 0.0
N150 N 0.40987 0.88678 0.2469 0.0
C151 C 0.40393 0.83557 0.24163 0.0
O152 O 0.60795 0.84674 0.29155 0.0
C153 C 0.58705 0.80996 0.31695 0.0
O154 O 0.55814 0.78796 0.28256 0.0
H155 H 0.51227 0.89423 0.20965 0.0
H156 H 0.43454 0.76345 0.21862 0.0
C157 C 0.70254 0.88323 0.20518 0.0
C158 C 0.74146 0.8595 0.19289 0.0
C159 C 0.71043 0.81095 0.10113 0.0
C160 C 0.67162 0.83259 0.11597 0.0
N161 N 0.66825 0.86791 0.16798 0.0
N162 N 0.74417 0.82418 0.1406 0.0
H163 H 0.69891 0.91094 0.24691 0.0
C164 C 0.54498 0.6846 0.18933 0.0
O165 O 0.58146 0.70434 0.2067 0.0
O166 O 0.61024 0.96056 0.22453 0.0
H167 H 0.64432 0.82076 0.08678 0.0
H168 H 0.45171 0.94922 0.23987 0.0
H169 H 0.71349 0.78274 0.05994 0.0
Zn170 Zn 1.01754 0.11101 0.69146 0.0
C171 C 0.07458 0.18315 0.53757 0.0
N172 N 0.06488 0.14094 0.50048 0.0
C173 C 0.05312 0.10798 0.55054 0.0
N174 N 0.05543 0.12931 0.61514 0.0
N175 N 0.07081 0.17581 0.60729 0.0
C176 C 0.08236 0.31327 0.68425 0.0
O177 O 0.04658 0.29207 0.70172 0.0
O178 O 0.02255 0.03678 0.71574 0.0
Zn179 Zn 0.10279 0.20989 0.68154 0.0
N180 N 0.96094 0.12843 0.66122 0.0
C181 C 0.91835 0.18517 0.59456 0.0
C182 C 0.9572 0.16354 0.60927 0.0
C183 C 0.92675 0.11329 0.69837 0.0
N184 N 0.88483 0.17225 0.63419 0.0
C185 C 0.88782 0.13717 0.6864 0.0
O186 O 0.07392 0.20917 0.77419 0.0
C187 C 0.04553 0.18679 0.80867 0.0
O188 O 0.02397 0.15062 0.78268 0.0
H189 H 0.98423 0.17513 0.57977 0.0
H190 H 0.93029 0.08558 0.73977 0.0
C191 C 0.1928 0.19697 0.71229 0.0
C192 C 0.22804 0.16673 0.72899 0.0
C193 C 0.18688 0.09221 0.71335 0.0
C194 C 0.1519 0.12208 0.69854 0.0
N195 N 0.15544 0.1737 0.69717 0.0
N196 N 0.22395 0.11514 0.72849 0.0
H197 H 0.19481 0.23815 0.71308 0.0
C198 C 1.00986 0.02243 0.77572 0.0
O199 O 0.99222 0.05551 0.81823 0.0
O200 O 0.11271 0.28499 0.66511 0.0
H201 H 0.12187 0.10417 0.68933 0.0
H202 H 0.91508 0.21317 0.55338 0.0
H203 H 0.18444 0.05109 0.71404 0.0
Zn204 Zn 0.52118 0.2081 0.86069 0.0
C205 C 0.57109 0.10577 0.99032 0.0
N206 N 0.55681 0.13753 0.04023 0.0
C207 C 0.54658 0.17966 1.00416 0.0
N208 N 0.55247 0.17338 0.93459 0.0
N209 N 0.56964 0.12771 0.92608 0.0
C210 C 0.58952 0.02116 0.77062 0.0
O211 O 0.56751 0.05333 0.73285 0.0
O212 O 0.51233 0.28329 0.87879 0.0
Zn213 Zn 0.60816 0.1114 0.84889 0.0
N214 N 0.46815 0.17276 0.84526 0.0
C215 C 0.43616 0.09145 0.82971 0.0
C216 C 0.47135 0.1211 0.84422 0.0
C217 C 0.43097 0.19629 0.83 0.0
N218 N 0.39925 0.11463 0.81444 0.0
C219 C 0.39552 0.16626 0.81356 0.0
O220 O 0.60051 0.14955 0.75688 0.0
C221 C 0.57806 0.18519 0.73192 0.0
O222 O 0.5496 0.20673 0.76749 0.0
H223 H 0.5013 0.10299 0.8534 0.0
H224 H 0.42926 0.23748 0.82887 0.0
C225 C 0.69794 0.11639 0.84047 0.0
C226 C 0.73682 0.14071 0.85123 0.0
C227 C 0.70634 0.19078 0.94162 0.0
C228 C 0.66759 0.16822 0.92852 0.0
N229 N 0.66394 0.132 0.87778 0.0
N230 N 0.73978 0.17717 0.90204 0.0
H231 H 0.69412 0.08764 0.80008 0.0
C232 C 0.54361 0.31058 0.86154 0.0
O233 O 0.57886 0.28806 0.84389 0.0
O234 O 0.6085 0.03676 0.82545 0.0
H235 H 0.64059 0.17965 0.95834 0.0
H236 H 0.43833 0.0503 0.82929 0.0
H237 H 0.70964 0.21974 0.98179 0.0
Zn238 Zn 0.1102 0.79045 0.36168 0.0
C239 C 0.05891 0.89068 0.493 0.0
N240 N 0.07292 0.85881 0.54295 0.0
C241 C 0.08396 0.81719 0.50583 0.0
N242 N 0.07865 0.8239 0.43622 0.0
N243 N 0.0612 0.8693 0.42843 0.0
C244 C 1.01411 0.97533 0.26869 0.0
O245 O 0.99647 0.94238 0.22577 0.0
O246 O 0.12128 0.71595 0.37985 0.0
Zn247 Zn 0.02307 0.88645 0.35162 0.0
N248 N 0.16207 0.82771 0.34629 0.0
C249 C 0.19208 0.90981 0.32909 0.0
C250 C 0.15758 0.87919 0.34371 0.0
C251 C 0.19986 0.80525 0.33263 0.0
N252 N 0.22962 0.88769 0.31544 0.0
C253 C 0.23461 0.83622 0.31632 0.0
O254 O 0.0299 0.84737 0.25978 0.0
C255 C 0.05202 0.81179 0.23375 0.0
O256 O 0.08108 0.79037 0.26832 0.0
H257 H 0.12716 0.89634 0.35187 0.0
H258 H 0.20259 0.76414 0.33278 0.0
C259 C 0.93224 0.88384 0.34532 0.0
C260 C 0.89352 0.85954 0.35696 0.0
C261 C 0.92498 0.81028 0.44702 0.0
C262 C 0.96361 0.83243 0.43261 0.0
N263 N 0.96679 0.86827 0.38159 0.0
N264 N 0.8911 0.82357 0.40809 0.0
H265 H 0.93532 0.91228 0.30482 0.0
C266 C 0.09013 0.68796 0.36361 0.0
O267 O 0.05437 0.70971 0.34684 0.0
O268 O 0.02733 0.96065 0.3283 0.0
H269 H 0.99093 0.82075 0.46158 0.0
H270 H 0.1889 0.95085 0.3274 0.0
H271 H 0.92216 0.78165 0.48744 0.0
C272 C 0.2677 0.35984 0.30735 0.0
C273 C 0.26845 0.36254 0.23289 0.0
C274 C 0.3452 0.35946 0.23629 0.0
C275 C 0.34444 0.36269 0.31074 0.0
N276 N 0.30403 0.38297 0.41418 0.0
N277 N 0.30892 0.38189 0.12934 0.0
C278 C 0.30535 0.36877 0.34526 0.0
C279 C 0.30756 0.3682 0.19832 0.0
N280 N 0.23247 0.34474 0.34221 0.0
N281 N 0.38044 0.34409 0.20153 0.0
H282 H 0.28197 0.39085 0.10062 0.0
H283 H 0.33696 0.39002 0.10365 0.0
H284 H 0.40772 0.33218 0.22681 0.0
H285 H 0.38071 0.33718 0.14764 0.0
H286 H 0.23221 0.33823 0.39613 0.0
H287 H 0.2052 0.33261 0.317 0.0
H288 H 0.276 0.39139 0.43982 0.0
H289 H 0.331 0.39202 0.44287 0.0
C290 C 0.31954 0.62772 0.84689 0.0
C291 C 0.28052 0.63353 0.81177 0.0
C292 C 0.31717 0.62623 0.69986 0.0
C293 C 0.35623 0.63245 0.7348 0.0
N294 N 0.39258 0.65092 0.84424 0.0
N295 N 0.24426 0.65006 0.70182 0.0
C296 C 0.35717 0.63584 0.80925 0.0
C297 C 0.27959 0.63541 0.73725 0.0
N298 N 0.32077 0.61475 0.91616 0.0
N299 N 0.31588 0.6119 0.63098 0.0
H300 H 0.21691 0.66207 0.7265 0.0
H301 H 0.24391 0.65616 0.64781 0.0
H302 H 0.34289 0.60303 0.60263 0.0
H303 H 0.28788 0.6033 0.60498 0.0
H304 H 0.34872 0.60645 0.94237 0.0
H305 H 0.29372 0.60662 0.94475 0.0
H306 H 0.39296 0.65811 0.89806 0.0
H307 H 0.42 0.66219 0.81923 0.0
C308 C 0.80804 0.68443 0.70032 0.0
C309 C 0.77678 0.68198 0.75293 0.0
C310 C 0.8309 0.68407 0.84479 0.0
C311 C 0.86215 0.68139 0.79213 0.0
N312 N 0.88216 0.69334 0.67196 0.0
N313 N 0.75686 0.69381 0.87326 0.0
C314 C 0.85115 0.68682 0.72044 0.0
C315 C 0.78782 0.68707 0.82469 0.0
N316 N 0.79638 0.68162 0.63136 0.0
N317 N 0.84251 0.68086 0.91371 0.0
H318 H 0.7252 0.69589 0.85931 0.0
H319 H 0.76243 0.70146 0.92605 0.0
H320 H 0.87389 0.68087 0.92964 0.0
H321 H 0.82147 0.67671 0.95489 0.0
H322 H 0.81737 0.67733 0.59009 0.0
H323 H 0.76499 0.68215 0.61551 0.0
H324 H 0.87664 0.7012 0.61929 0.0
H325 H 0.91384 0.69498 0.6859 0.0
C326 C 0.8151 0.27582 0.22018 0.0
C327 C 0.84823 0.29832 0.25903 0.0
C328 C 0.79951 0.31584 0.35528 0.0
C329 C 0.76541 0.30488 0.30963 0.0
N330 N 0.74018 0.27288 0.19825 0.0
N331 N 0.87363 0.33648 0.3659 0.0
C332 C 0.77296 0.28297 0.24262 0.0
C333 C 0.84114 0.31614 0.32819 0.0
N334 N 0.82425 0.249 0.16066 0.0
N335 N 0.79167 0.32682 0.42405 0.0
H336 H 0.90456 0.33557 0.34816 0.0
H337 H 0.86986 0.35579 0.41323 0.0
H338 H 0.76129 0.32653 0.44449 0.0
H339 H 0.81508 0.3315 0.46176 0.0
H340 H 0.80211 0.22809 0.13239 0.0
H341 H 0.8551 0.24379 0.14374 0.0
H342 H 0.74395 0.26291 0.14576 0.0
H343 H 0.70888 0.27712 0.2127 0.0
C344 C 0.85621 0.86765 0.23948 0.0
C345 C 0.85539 0.86999 0.314 0.0
C346 C 0.77872 0.86683 0.31065 0.0
C347 C 0.77951 0.86993 0.2362 0.0
N348 N 0.8197 0.89059 0.13293 0.0
N349 N 0.81506 0.88906 0.41787 0.0
C350 C 0.81853 0.87644 0.20173 0.0
C351 C 0.81633 0.87567 0.34865 0.0
N352 N 0.89149 0.85281 0.20436 0.0
N353 N 0.74356 0.85124 0.34534 0.0
H354 H 0.84208 0.89769 0.44668 0.0
H355 H 0.78705 0.89718 0.44376 0.0
H356 H 0.71631 0.83912 0.32009 0.0
H357 H 0.74335 0.84437 0.39917 0.0
H358 H 0.89176 0.84654 0.15033 0.0
H359 H 0.91883 0.84066 0.22924 0.0
H360 H 0.84765 0.89932 0.10731 0.0
H361 H 0.79262 0.89922 0.10436 0.0
C362 C 0.8139 0.12371 0.84283 0.0
C363 C 0.77465 0.12931 0.80825 0.0
C364 C 0.81081 0.12061 0.69596 0.0
C365 C 0.85008 0.12731 0.73011 0.0
N366 N 0.88689 0.1471 0.8387 0.0
N367 N 0.73795 0.14475 0.6984 0.0
C368 C 0.85136 0.13149 0.80448 0.0
C369 C 0.77339 0.13032 0.73369 0.0
N370 N 0.8155 0.1113 0.91227 0.0
N371 N 0.80917 0.10546 0.62743 0.0
H372 H 0.71083 0.15745 0.72317 0.0
H373 H 0.73735 0.15006 0.64424 0.0
H374 H 0.83606 0.09628 0.59894 0.0
H375 H 0.78105 0.09651 0.60206 0.0
H376 H 0.84361 0.10322 0.93816 0.0
H377 H 0.78861 0.10336 0.94136 0.0
H378 H 0.8875 0.15475 0.8924 0.0
H379 H 0.91414 0.15841 0.81315 0.0
C380 C 0.32191 0.19154 0.84385 0.0
C381 C 0.35417 0.18805 0.79302 0.0
C382 C 0.30188 0.19047 0.69826 0.0
C383 C 0.26959 0.18828 0.74914 0.0
N384 N 0.24729 0.20112 0.86808 0.0
N385 N 0.37659 0.19866 0.67384 0.0
C386 C 0.27922 0.19416 0.82136 0.0
C387 C 0.3446 0.19288 0.72069 0.0
N388 N 0.33225 0.18943 0.91341 0.0
N389 N 0.29153 0.18735 0.62875 0.0
H390 H 0.40797 0.20027 0.68954 0.0
H391 H 0.3722 0.20587 0.62071 0.0
H392 H 0.26043 0.18788 0.6113 0.0
H393 H 0.31326 0.18298 0.5886 0.0
H394 H 0.3105 0.18606 0.95367 0.0
H395 H 0.36336 0.18981 0.93083 0.0
H396 H 0.25175 0.20912 0.92105 0.0
H397 H 0.21591 0.20289 0.85235 0.0
C398 C 0.28719 0.81161 0.22561 0.0
C399 C 0.27647 0.81538 0.29752 0.0
C400 C 0.35085 0.80829 0.32989 0.0
C401 C 0.36166 0.81515 0.25849 0.0
N402 N 0.34159 0.81893 0.13699 0.0
N403 N 0.29654 0.81284 0.41909 0.0
C404 C 0.33021 0.81428 0.2057 0.0
C405 C 0.30787 0.81117 0.35006 0.0
N406 N 0.25597 0.80641 0.17676 0.0
N407 N 0.38195 0.79999 0.37808 0.0
H408 H 0.26521 0.81277 0.43492 0.0
H409 H 0.31776 0.81582 0.46049 0.0
H410 H 0.41354 0.79794 0.36404 0.0
H411 H 0.37651 0.79102 0.43036 0.0
H412 H 0.26127 0.79976 0.1237 0.0
H413 H 0.22434 0.80454 0.1906 0.0
H414 H 0.32043 0.82448 0.09602 0.0
H415 H 0.37291 0.81875 0.1211 0.0
C416 C 0.10634 0.59611 0.39229 0.0
C417 C 0.09657 0.63432 0.34258 0.0
C418 C 0.08099 0.56951 0.25436 0.0
C419 C 0.09337 0.53084 0.30182 0.0
N420 N 0.12748 0.5084 0.411 0.0
N421 N 0.08857 0.65755 0.22107 0.0
C422 C 0.1089 0.54437 0.36956 0.0
C423 C 0.08844 0.62101 0.27191 0.0
N424 N 0.11196 0.60893 0.46116 0.0
N425 N 0.05926 0.5576 0.19477 0.0
H426 H 0.09559 0.69565 0.23141 0.0
H427 H 0.08693 0.64876 0.16791 0.0
H428 H 0.05006 0.52056 0.18298 0.0
H429 H 0.04584 0.58508 0.16231 0.0
H430 H 0.11435 0.5821 0.50115 0.0
H431 H 0.11152 0.64661 0.47879 0.0
H432 H 0.14265 0.51709 0.45802 0.0
H433 H 0.13155 0.47065 0.3951 0.0
C434 C 0.54376 0.37711 0.76946 0.0
C435 C 0.53752 0.36431 0.8407 0.0
C436 C 0.52602 0.45448 0.86821 0.0
C437 C 0.53896 0.46745 0.79909 0.0
N438 N 0.56884 0.44054 0.6888 0.0
N439 N 0.52538 0.39048 0.96005 0.0
C440 C 0.54996 0.42864 0.75081 0.0
C441 C 0.52917 0.40288 0.89086 0.0
N442 N 0.54239 0.3401 0.71899 0.0
N443 N 0.50927 0.49095 0.91115 0.0
H444 H 0.5261 0.3529 0.97764 0.0
H445 H 0.52419 0.41747 1.0002 0.0
H446 H 0.5052 0.52873 0.89574 0.0
H447 H 0.49572 0.48279 0.95944 0.0
H448 H 0.54186 0.34852 0.66582 0.0
H449 H 0.53634 0.30192 0.72999 0.0
H450 H 0.58203 0.41299 0.65616 0.0
H451 H 0.57578 0.4778 0.67402 0.0
C452 C 0.08043 0.43223 0.79563 0.0
C453 C 0.09363 0.46993 0.74765 0.0
C454 C 0.10004 0.40459 0.65551 0.0
C455 C 0.08997 0.36675 0.70552 0.0
N456 N 0.08323 0.34343 0.82734 0.0
N457 N 0.12401 0.49109 0.63551 0.0
C458 C 0.08401 0.38024 0.77686 0.0
C459 C 0.10577 0.4559 0.67843 0.0
N460 N 0.06195 0.44583 0.85746 0.0
N461 N 0.10278 0.39189 0.58611 0.0
H462 H 0.12965 0.52865 0.65101 0.0
H463 H 0.13707 0.48192 0.58711 0.0
H464 H 0.09954 0.35453 0.56798 0.0
H465 H 0.10532 0.41873 0.54622 0.0
H466 H 0.04703 0.41951 0.88962 0.0
H467 H 0.05712 0.48359 0.87261 0.0
H468 H 0.08379 0.35202 0.88066 0.0
H469 H 0.08726 0.3048 0.81634 0.0
C470 C 0.54149 0.61777 0.28087 0.0
C471 C 0.53632 0.63135 0.20956 0.0
C472 C 0.52065 0.54233 0.18061 0.0
C473 C 0.53228 0.52814 0.25002 0.0
N474 N 0.56292 0.55212 0.36134 0.0
N475 N 0.52395 0.60674 0.08947 0.0
C476 C 0.54492 0.56577 0.29907 0.0
C477 C 0.52648 0.59372 0.15867 0.0
N478 N 0.54189 0.65452 0.33179 0.0
N479 N 0.50274 0.50725 0.13659 0.0
H480 H 0.52684 0.64427 0.07225 0.0
H481 H 0.52171 0.5801 0.04899 0.0
H482 H 0.497 0.46965 0.15136 0.0
H483 H 0.49003 0.51654 0.0879 0.0
H484 H 0.54053 0.64584 0.38494 0.0
H485 H 0.53829 0.69321 0.32101 0.0
H486 H 0.57739 0.57846 0.39449 0.0
H487 H 0.56789 0.51435 0.37594 0.0
C488 C 0.59983 0.04217 0.37038 0.0
C489 C 0.58851 0.02816 0.30064 0.0
C490 C 0.57928 0.11781 0.27092 0.0
C491 C 0.58425 0.13123 0.34246 0.0
N492 N 0.59637 0.10639 0.4623 0.0
N493 N 0.55852 0.05228 0.18911 0.0
C494 C 0.59392 0.0935 0.39294 0.0
C495 C 0.57599 0.06586 0.25197 0.0
N496 N 0.61766 0.00703 0.41408 0.0
N497 N 0.57923 0.15464 0.22048 0.0
H498 H 0.55372 0.01449 0.17415 0.0
H499 H 0.54438 0.07859 0.15574 0.0
H500 H 0.58309 0.19326 0.23167 0.0
H501 H 0.58071 0.14609 0.16728 0.0
H502 H 0.63022 0.01623 0.46299 0.0
H503 H 0.62351 0.96947 0.39891 0.0
H504 H 0.5985 0.0797 0.50247 0.0
H505 H 0.59352 0.14389 0.47996 0.0
C506 C 1.01049 0.87763 0.77479 0.0
C507 C 0.02914 0.86756 0.84105 0.0
C508 C 0.0374 0.95893 0.86263 0.0
C509 C 1.01594 0.96914 0.79866 0.0
N510 N 0.9739 0.93851 0.70166 0.0
N511 N 0.05274 0.89745 0.95387 0.0
C512 C 1.00017 0.92858 0.75683 0.0
C513 C 0.04012 0.90792 0.88692 0.0
N514 N 1.00383 0.83877 0.72803 0.0
N515 N 0.05724 0.99744 0.89817 0.0
H516 H 0.05476 0.86034 0.97286 0.0
H517 H 0.05721 0.92533 0.9922 0.0
H518 H 0.05765 0.03507 0.88079 0.0
H519 H 0.07676 0.99138 0.94127 0.0
H520 H 0.99543 0.84476 0.67584 0.0
H521 H 1.00965 0.80061 0.73976 0.0
H522 H 0.95795 0.91014 0.67405 0.0
H523 H 0.96473 0.97527 0.68764 0.0
C524 C 0.60243 0.90114 0.65933 0.0
C525 C 0.59423 0.86328 0.71021 0.0
C526 C 0.58104 0.92877 0.79874 0.0
C527 C 0.59184 0.9669 0.74968 0.0
N528 N 0.62158 0.98911 0.63738 0.0
N529 N 0.58896 0.84078 0.83235 0.0
C530 C 0.60505 0.95309 0.68094 0.0
C531 C 0.58763 0.87704 0.78117 0.0
N532 N 0.60656 0.88772 0.59043 0.0
N533 N 0.56203 0.94148 0.86047 0.0
H534 H 0.59503 0.80243 0.82203 0.0
H535 H 0.58932 0.84996 0.88544 0.0
H536 H 0.55484 0.9789 0.87451 0.0
H537 H 0.54904 0.91436 0.89371 0.0
H538 H 0.60755 0.9141 0.54975 0.0
H539 H 0.60639 0.84987 0.5736 0.0
H540 H 0.6354 0.98036 0.58943 0.0
H541 H 0.62515 0.02721 0.65197 0.0
C542 C 1.01356 0.12007 0.27334 0.0
C543 C 0.03011 0.13125 0.20608 0.0
C544 C 0.03896 0.04034 0.18205 0.0
C545 C 0.01927 0.02898 0.24694 0.0
N546 N 0.97932 0.05781 0.34694 0.0
N547 N 0.05025 0.1029 0.09089 0.0
C548 C 1.00426 0.06877 0.29073 0.0
C549 C 0.04011 0.0916 0.15857 0.0
N550 N 1.00721 0.15834 0.32105 0.0
N551 N 0.0586 0.00273 0.14467 0.0
H552 H 0.05098 0.14019 0.07241 0.0
H553 H 0.05384 0.0754 0.05183 0.0
H554 H 0.06031 0.96501 0.16146 0.0
H555 H 0.07688 0.0098 0.10059 0.0
H556 H 1.00039 0.1517 0.37363 0.0
H557 H 1.01154 0.19678 0.30942 0.0
H558 H 0.96383 0.08562 0.37611 0.0
H559 H 0.97056 0.02081 0.36032 0.0
C560 C 0.99941 0.27547 0.94497 0.0
C561 C 0.03146 0.27292 0.9968 0.0
C562 C 0.06201 0.19894 0.93571 0.0
C563 C 0.03481 0.20808 0.87837 0.0
N564 N 0.97587 0.25221 0.82779 0.0
N565 N 0.0917 0.22957 0.04523 0.0
C566 C 1.00225 0.24466 0.88359 0.0
C567 C 0.06168 0.23297 0.9942 0.0
N568 N 0.96662 0.30824 0.95431 0.0
N569 N 0.08825 0.15772 0.93351 0.0
H570 H 0.09013 0.25012 0.09181 0.0
H571 H 0.11828 0.20669 0.04167 0.0
H572 H 0.0886 0.1324 0.89115 0.0
H573 H 0.10707 0.14608 0.97518 0.0
H574 H 0.94006 0.30919 0.92243 0.0
H575 H 0.96451 0.3319 0.99798 0.0
H576 H 0.95491 0.28247 0.82394 0.0
H577 H 0.97609 0.22905 0.78322 0.0
C578 C 0.56484 0.7671 0.50102 0.0
C579 C 0.59588 0.72867 0.50893 0.0
C580 C 0.62958 0.75615 0.3999 0.0
C581 C 0.5961 0.79089 0.38863 0.0
N582 N 0.53971 0.84074 0.43622 0.0
N583 N 0.66409 0.69701 0.47988 0.0
C584 C 0.56649 0.8003 0.44226 0.0
C585 C 0.63067 0.72724 0.46309 0.0
N586 N 0.53212 0.76939 0.54682 0.0
N587 N 0.65861 0.74853 0.34835 0.0
H588 H 0.66489 0.67603 0.52636 0.0
H589 H 0.69201 0.69618 0.45175 0.0
H590 H 0.65904 0.76993 0.30234 0.0
H591 H 0.6812 0.7199 0.34967 0.0
H592 H 0.50527 0.79126 0.53895 0.0
H593 H 0.53154 0.74805 0.59259 0.0
H594 H 0.51987 0.85293 0.47615 0.0
H595 H 0.54006 0.86497 0.39298 0.0
C596 C 1.0099 0.75743 0.15044 0.0
C597 C 0.04322 0.79244 0.16191 0.0
C598 C 0.07366 0.77005 0.04796 0.0
C599 C 0.04302 0.73116 0.04015 0.0
N600 N 0.97519 0.69875 0.06957 0.0
N601 N 0.09895 0.84328 0.11465 0.0
C602 C 1.0086 0.729 0.08664 0.0
C603 C 0.07243 0.80258 0.10794 0.0
N604 N 0.9812 0.74912 0.20226 0.0
N605 N 0.10525 0.77379 1.00015 0.0
H606 H 0.09822 0.86756 0.15814 0.0
H607 H 0.11896 0.85564 0.0752 0.0
H608 H 0.10475 0.75362 0.95308 0.0
H609 H 0.13186 0.79629 1.007 0.0
H610 H 0.95891 0.72014 0.20069 0.0
H611 H 0.98074 0.77022 0.24872 0.0
H612 H 0.94748 0.69735 0.09823 0.0
H613 H 0.97408 0.67852 1.02231 0.0
C614 C 0.55226 0.22927 0.54948 0.0
C615 C 0.58325 0.26762 0.54095 0.0
C616 C 0.61904 0.23925 0.64791 0.0
C617 C 0.58567 0.2046 0.66016 0.0
N618 N 0.52818 0.1553 0.61456 0.0
N619 N 0.65251 0.29784 0.56657 0.0
C620 C 0.55492 0.1957 0.6078 0.0
C621 C 0.61902 0.26841 0.58503 0.0
N622 N 0.51894 0.22713 0.50445 0.0
N623 N 0.64906 0.24663 0.6983 0.0
H624 H 0.65276 0.31834 0.51971 0.0
H625 H 0.68104 0.29803 0.59336 0.0
H626 H 0.65044 0.22506 0.7441 0.0
H627 H 0.67152 0.2754 0.69631 0.0
H628 H 0.49222 0.20519 0.51281 0.0
H629 H 0.51788 0.2484 0.4586 0.0
H630 H 0.50726 0.14365 0.57566 0.0
H631 H 0.52962 0.13055 0.65724 0.0
C632 C 0.5061 0.76777 0.96262 0.0
C633 C 0.5406 0.76685 1.00945 0.0
C634 C 0.57097 0.69551 0.94315 0.0
C635 C 0.54174 0.7047 0.88857 0.0
N636 N 0.47963 0.74735 0.84628 0.0
N637 N 0.60449 0.72699 0.049 0.0
C638 C 0.50801 0.73925 0.899 0.0
C639 C 0.57202 0.72881 1.00224 0.0
N640 N 0.47215 0.79723 0.97889 0.0
N641 N 0.5979 0.65515 0.93778 0.0
H642 H 0.60476 0.74853 0.09485 0.0
H643 H 0.6315 0.70532 0.04174 0.0
H644 H 0.59778 0.63069 0.89451 0.0
H645 H 0.61755 0.64325 0.97826 0.0
H646 H 0.44435 0.79738 0.95002 0.0
H647 H 0.47075 0.81802 0.02567 0.0
H648 H 0.45711 0.77607 0.84731 0.0
H649 H 0.4798 0.72659 0.79953 0.0
C650 C 0.11757 0.23243 0.45474 0.0
C651 C 0.08358 0.232 0.5019 0.0
C652 C 0.05023 0.30163 0.43673 0.0
C653 C 0.07903 0.29331 0.38158 0.0
N654 N 0.14193 0.25286 0.33789 0.0
N655 N 0.01969 0.26987 0.54428 0.0
C656 C 0.114 0.26034 0.39121 0.0
C657 C 0.05111 0.26879 0.49592 0.0
N658 N 0.15264 0.2048 0.47061 0.0
N659 N 0.02206 0.34076 0.43191 0.0
H660 H 0.02113 0.2488 0.5903 0.0
H661 H 0.99204 0.29059 0.53844 0.0
H662 H 0.02099 0.36507 0.3887 0.0
H663 H 1.00238 0.35189 0.47262 0.0
H664 H 0.18019 0.20597 0.44147 0.0
H665 H 0.15514 0.18441 0.51743 0.0
H666 H 0.16527 0.22511 0.33877 0.0
H667 H 0.14057 0.27271 0.29068 0.0
C668 C 0.56483 0.26666 0.04953 0.0
C669 C 0.53452 0.2274 0.04112 0.0
C670 C 0.49962 0.25446 0.14941 0.0
C671 C 0.53236 0.29021 0.16119 0.0
N672 N 0.58813 0.34135 0.11467 0.0
N673 N 0.46662 0.1942 0.06878 0.0
C674 C 0.56217 0.30014 0.10817 0.0
C675 C 0.49945 0.22525 0.08627 0.0
N676 N 0.5978 0.26957 1.00434 0.0
N677 N 0.47047 0.24617 0.20051 0.0
H678 H 0.46641 0.17309 1.02222 0.0
H679 H 0.43852 0.19289 0.09636 0.0
H680 H 0.46928 0.26775 0.24651 0.0
H681 H 0.44856 0.21677 0.19885 0.0
H682 H 0.62418 0.29223 1.01264 0.0
H683 H 0.59904 0.24803 0.9586 0.0
H684 H 0.60803 0.35384 0.07512 0.0
H685 H 0.58698 0.36583 0.15784 0.0
C686 C 0.13046 0.77004 0.58678 0.0
C687 C 0.09532 0.76901 0.54141 0.0
C688 C 0.06597 0.69747 0.60737 0.0
C689 C 0.09572 0.70696 0.66101 0.0
N690 N 0.15872 0.74868 0.7015 0.0
N691 N 0.03117 0.72886 0.50318 0.0
C692 C 0.12947 0.74124 0.64988 0.0
C693 C 0.06418 0.73073 0.54886 0.0
N694 N 0.16401 0.79987 0.56975 0.0
N695 N 0.03914 0.65709 0.61331 0.0
H696 H 0.03035 0.75054 0.45774 0.0
H697 H 1.00432 0.70702 0.51092 0.0
H698 H 0.03964 0.63281 0.65651 0.0
H699 H 0.01913 0.64501 0.57331 0.0
H700 H 0.19213 0.80032 0.5977 0.0
H701 H 0.16464 0.82082 0.52326 0.0
H702 H 0.18159 0.77698 0.69999 0.0
H703 H 0.15909 0.72752 0.74772 0.0
C704 C 0.0358 0.48264 0.05265 0.0
C705 C 0.07077 0.44979 0.04571 0.0
C706 C 0.11233 0.52196 1.00333 0.0
C707 C 0.07562 0.55255 1.00112 0.0
N708 N 0.99992 0.55669 1.00786 0.0
N709 N 0.14013 0.43604 0.99893 0.0
C710 C 0.03651 0.53103 1.02028 0.0
C711 C 0.10845 0.46868 1.01606 0.0
N712 N 1.0028 0.46907 0.09387 0.0
N713 N 0.15086 0.5438 0.99676 0.0
H714 H 0.13797 0.39686 1.00678 0.0
H715 H 0.16667 0.4475 0.97135 0.0
H716 H 0.1545 0.58303 0.99269 0.0
H717 H 0.17882 0.52372 1.00343 0.0
H718 H 0.97741 0.49302 0.10399 0.0
H719 H 1.00475 0.43817 0.12765 0.0
H720 H 0.97045 0.54032 1.01522 0.0
H721 H 0.99891 0.59207 0.98325 0.0
C722 C 0.59301 0.52214 0.53818 0.0
C723 C 0.55568 0.55138 0.54307 0.0
C724 C 0.5142 0.47554 0.51199 0.0
C725 C 0.55166 0.44703 0.50292 0.0
N726 N 0.62814 0.44589 0.5055 0.0
N727 N 0.48232 0.55933 0.51424 0.0
C728 C 0.59114 0.47098 0.51502 0.0
C729 C 0.51663 0.52909 0.52428 0.0
N730 N 0.63111 0.54342 0.55392 0.0
N731 N 0.47637 0.45126 0.51231 0.0
H732 H 0.48386 0.59884 0.51825 0.0
H733 H 0.45394 0.54582 0.49422 0.0
H734 H 0.47383 0.41195 0.50688 0.0
H735 H 0.44831 0.4693 0.52534 0.0
H736 H 0.6592 0.52302 0.5511 0.0
H737 H 0.63478 0.58107 0.57041 0.0
H738 H 0.63072 0.40846 0.48749 0.0
H739 H 0.63072 0.40846 0.48749 0.0
C740 C 0.53591 0.97221 0.03962 0.0
C741 C 0.57479 0.94593 0.0449 0.0
C742 C 0.61208 0.02493 1.01562 0.0
C743 C 0.57323 0.04987 1.0036 0.0
N744 N 0.49767 0.04524 0.99556 0.0
N745 N 0.64884 0.94421 1.01999 0.0
C746 C 0.53501 0.02282 1.01306 0.0
C747 C 0.61264 0.97136 0.02771 0.0
N748 N 0.49973 0.94911 0.06124 0.0
N749 N 0.64828 0.05256 1.01862 0.0
H750 H 0.64974 0.90476 0.0251 0.0
H751 H 0.67658 0.96008 1.00125 0.0
H752 H 0.64849 0.09203 1.01367 0.0
H753 H 0.67708 0.03706 0.03344 0.0
H754 H 0.47137 0.9683 0.06738 0.0
H755 H 0.49855 0.9115 0.07847 0.0
H756 H 0.46934 0.02554 0.99269 0.0
H757 H 0.49526 0.08277 0.97843 0.0
C758 C 0.09284 0.02699 0.531 0.0
C759 C 0.05349 0.05209 0.53726 0.0
C760 C 1.01727 0.97053 0.51955 0.0
C761 C 0.05627 0.94646 0.50614 0.0
N762 N 0.13142 0.95259 0.49224 0.0
N763 N 0.97857 0.04996 0.52068 0.0
C764 C 0.09412 0.975 0.50984 0.0
C765 C 1.01571 0.02452 0.52672 0.0
N766 N 0.12915 0.05259 0.54652 0.0
N767 N 0.98204 0.94177 0.52838 0.0
H768 H 0.97702 0.08957 0.52094 0.0
H769 H 0.9504 0.03224 0.50714 0.0
H770 H 0.98296 0.90212 0.52849 0.0
H771 H 0.95326 0.95693 0.54368 0.0
H772 H 0.15818 0.03483 0.55215 0.0
H773 H 0.13009 0.09128 0.55885 0.0
H774 H 0.15913 0.97285 0.48464 0.0
H775 H 0.13438 0.91398 0.48039 0.0
loop_
_geom_bond_atom_site_label_1
_geom_bond_atom_site_label_2
_geom_bond_distance
_geom_bond_site_symmetry_2
_ccdc_geom_bond_type
Zn0 N4 2.020 . S
Zn0 O8 2.019 . S
Zn0 N10 2.119 1_455 S
Zn0 O18 1.975 . S
C1 N2 1.334 . S
C1 N5 1.336 . S
N2 C1 1.334 . S
N2 C3 1.334 . S
C3 N2 1.334 . S
C3 N4 1.336 . S
N4 Zn0 2.020 . S
N4 C3 1.336 . S
N4 N5 1.354 . S
N5 C1 1.336 . S
N5 N4 1.354 . S
N5 Zn9 2.020 . S
C6 O7 1.244 . S
C6 O30 1.257 . S
O7 C6 1.244 . S
O8 Zn0 2.019 . S
O8 C28 1.257 . S
Zn9 N5 2.020 . S
Zn9 O16 1.975 . S
Zn9 N25 2.119 . S
Zn9 O30 2.019 . S
N10 Zn0 2.119 1_655 S
N10 C12 1.334 . S
N10 C13 1.328 . S
C11 C12 1.391 . S
C11 N14 1.329 . S
C11 H32 0.930 . S
C12 N10 1.334 . S
C12 C11 1.391 . S
C12 H19 0.930 . S
C13 N10 1.328 . S
C13 C15 1.392 . S
C13 H20 0.930 . S
N14 C11 1.329 . S
N14 C15 1.331 . S
C15 C13 1.392 . S
C15 N14 1.331 . S
O16 Zn9 1.975 . S
O16 C17 1.252 . S
C17 O16 1.252 . S
C17 O18 1.252 . S
O18 Zn0 1.975 . S
O18 C17 1.252 . S
H19 C12 0.930 . S
H20 C13 0.930 . S
C21 C22 1.392 . S
C21 N25 1.328 . S
C21 H27 0.930 . S
C22 C21 1.392 . S
C22 N26 1.331 . S
C23 C24 1.391 . S
C23 N26 1.329 . S
C23 H33 0.930 . S
C24 C23 1.391 . S
C24 N25 1.334 . S
C24 H31 0.930 . S
N25 Zn9 2.119 . S
N25 C21 1.328 . S
N25 C24 1.334 . S
N26 C22 1.331 . S
N26 C23 1.329 . S
H27 C21 0.930 . S
C28 O8 1.257 . S
C28 O29 1.244 . S
O29 C28 1.244 . S
O30 C6 1.257 . S
O30 Zn9 2.019 . S
H31 C24 0.930 . S
H32 C11 0.930 . S
H33 C23 0.930 . S
Zn34 N38 2.020 . S
Zn34 O42 2.019 . S
Zn34 N44 2.119 . S
Zn34 O52 1.975 . S
C35 N36 1.334 . S
C35 N39 1.336 . S
N36 C35 1.334 . S
N36 C37 1.334 . S
C37 N36 1.334 . S
C37 N38 1.336 . S
N38 Zn34 2.020 . S
N38 C37 1.336 . S
N38 N39 1.354 . S
N39 C35 1.336 . S
N39 N38 1.354 . S
N39 Zn43 2.020 . S
C40 O41 1.244 . S
C40 O64 1.257 . S
O41 C40 1.244 . S
O42 Zn34 2.019 . S
O42 C62 1.257 . S
Zn43 N39 2.020 . S
Zn43 O50 1.975 . S
Zn43 N59 2.119 . S
Zn43 O64 2.019 . S
N44 Zn34 2.119 . S
N44 C46 1.334 . S
N44 C47 1.328 . S
C45 C46 1.391 . S
C45 N48 1.329 . S
C45 H66 0.930 . S
C46 N44 1.334 . S
C46 C45 1.391 . S
C46 H53 0.930 . S
C47 N44 1.328 . S
C47 C49 1.392 . S
C47 H54 0.930 . S
N48 C45 1.329 . S
N48 C49 1.331 . S
C49 C47 1.392 . S
C49 N48 1.331 . S
O50 Zn43 1.975 . S
O50 C51 1.252 . S
C51 O50 1.252 . S
C51 O52 1.252 . S
O52 Zn34 1.975 . S
O52 C51 1.252 . S
H53 C46 0.930 . S
H54 C47 0.930 . S
C55 C56 1.392 . S
C55 N59 1.328 . S
C55 H61 0.930 . S
C56 C55 1.392 . S
C56 N60 1.331 . S
C57 C58 1.391 . S
C57 N60 1.329 . S
C57 H67 0.930 . S
C58 C57 1.391 . S
C58 N59 1.334 . S
C58 H65 0.930 . S
N59 Zn43 2.119 . S
N59 C55 1.328 . S
N59 C58 1.334 . S
N60 C56 1.331 . S
N60 C57 1.329 . S
H61 C55 0.930 . S
C62 O42 1.257 . S
C62 O63 1.244 . S
O63 C62 1.244 . S
O64 C40 1.257 . S
O64 Zn43 2.019 . S
H65 C58 0.930 . S
H66 C45 0.930 . S
H67 C57 0.930 . S
Zn68 N72 2.020 . S
Zn68 O76 2.019 . S
Zn68 N78 2.119 1_455 S
Zn68 O86 1.975 . S
C69 N70 1.334 . S
C69 N73 1.336 . S
N70 C69 1.334 . S
N70 C71 1.334 . S
C71 N70 1.334 . S
C71 N72 1.336 . S
N72 Zn68 2.020 . S
N72 C71 1.336 . S
N72 N73 1.354 . S
N73 C69 1.336 . S
N73 N72 1.354 . S
N73 Zn77 2.020 . S
C74 O75 1.244 . S
C74 O98 1.257 . S
O75 C74 1.244 . S
O76 Zn68 2.019 . S
O76 C96 1.257 . S
Zn77 N73 2.020 . S
Zn77 O84 1.975 . S
Zn77 N93 2.119 . S
Zn77 O98 2.019 . S
N78 Zn68 2.119 1_655 S
N78 C80 1.334 . S
N78 C81 1.328 . S
C79 C80 1.391 . S
C79 N82 1.329 . S
C79 H100 0.930 . S
C80 N78 1.334 . S
C80 C79 1.391 . S
C80 H87 0.930 . S
C81 N78 1.328 . S
C81 C83 1.392 . S
C81 H88 0.930 . S
N82 C79 1.329 . S
N82 C83 1.331 . S
C83 C81 1.392 . S
C83 N82 1.331 . S
O84 Zn77 1.975 . S
O84 C85 1.252 . S
C85 O84 1.252 . S
C85 O86 1.252 . S
O86 Zn68 1.975 . S
O86 C85 1.252 . S
H87 C80 0.930 . S
H88 C81 0.930 . S
C89 C90 1.392 . S
C89 N93 1.328 . S
C89 H95 0.930 . S
C90 C89 1.392 . S
C90 N94 1.331 . S
C91 C92 1.391 . S
C91 N94 1.329 . S
C91 H101 0.930 . S
C92 C91 1.391 . S
C92 N93 1.334 . S
C92 H99 0.930 . S
N93 Zn77 2.119 . S
N93 C89 1.328 . S
N93 C92 1.334 . S
N94 C90 1.331 . S
N94 C91 1.329 . S
H95 C89 0.930 . S
C96 O76 1.257 . S
C96 O97 1.244 . S
O97 C96 1.244 . S
O98 C74 1.257 . S
O98 Zn77 2.019 . S
H99 C92 0.930 . S
H100 C79 0.930 . S
H101 C91 0.930 . S
Zn102 N106 2.020 . S
Zn102 O110 2.019 . S
Zn102 N112 2.119 . S
Zn102 O120 1.975 . S
C103 N104 1.334 . S
C103 N107 1.336 . S
N104 C103 1.334 . S
N104 C105 1.334 . S
C105 N104 1.334 . S
C105 N106 1.336 . S
N106 Zn102 2.020 . S
N106 C105 1.336 . S
N106 N107 1.354 . S
N107 C103 1.336 . S
N107 N106 1.354 . S
N107 Zn111 2.020 . S
C108 O109 1.244 . S
C108 O132 1.257 . S
O109 C108 1.244 . S
O110 Zn102 2.019 . S
O110 C130 1.257 . S
Zn111 N107 2.020 . S
Zn111 O118 1.975 . S
Zn111 N127 2.119 . S
Zn111 O132 2.019 . S
N112 Zn102 2.119 . S
N112 C114 1.334 . S
N112 C115 1.328 . S
C113 C114 1.391 . S
C113 N116 1.329 . S
C113 H134 0.930 . S
C114 N112 1.334 . S
C114 C113 1.391 . S
C114 H121 0.930 . S
C115 N112 1.328 . S
C115 C117 1.392 . S
C115 H122 0.930 . S
N116 C113 1.329 . S
N116 C117 1.331 . S
C117 C115 1.392 . S
C117 N116 1.331 . S
O118 Zn111 1.975 . S
O118 C119 1.252 . S
C119 O118 1.252 . S
C119 O120 1.252 . S
O120 Zn102 1.975 . S
O120 C119 1.252 . S
H121 C114 0.930 . S
H122 C115 0.930 . S
C123 C124 1.392 . S
C123 N127 1.328 . S
C123 H129 0.930 . S
C124 C123 1.392 . S
C124 N128 1.331 . S
C125 C126 1.391 . S
C125 N128 1.329 . S
C125 H135 0.930 . S
C126 C125 1.391 . S
C126 N127 1.334 . S
C126 H133 0.930 . S
N127 Zn111 2.119 . S
N127 C123 1.328 . S
N127 C126 1.334 . S
N128 C124 1.331 . S
N128 C125 1.329 . S
H129 C123 0.930 . S
C130 O110 1.257 . S
C130 O131 1.244 . S
O131 C130 1.244 . S
O132 C108 1.257 . S
O132 Zn111 2.019 . S
H133 C126 0.930 . S
H134 C113 0.930 . S
H135 C125 0.930 . S
Zn136 N140 2.020 . S
Zn136 O144 2.019 . S
Zn136 N146 2.119 . S
Zn136 O154 1.975 . S
C137 N138 1.334 . S
C137 N141 1.336 . S
N138 C137 1.334 . S
N138 C139 1.334 . S
C139 N138 1.334 . S
C139 N140 1.336 . S
N140 Zn136 2.020 . S
N140 C139 1.336 . S
N140 N141 1.354 . S
N141 C137 1.336 . S
N141 N140 1.354 . S
N141 Zn145 2.020 . S
C142 O143 1.244 . S
C142 O166 1.257 . S
O143 C142 1.244 . S
O144 Zn136 2.019 . S
O144 C164 1.257 . S
Zn145 N141 2.020 . S
Zn145 O152 1.975 . S
Zn145 N161 2.119 . S
Zn145 O166 2.019 . S
N146 Zn136 2.119 . S
N146 C148 1.334 . S
N146 C149 1.328 . S
C147 C148 1.391 . S
C147 N150 1.329 . S
C147 H168 0.930 . S
C148 N146 1.334 . S
C148 C147 1.391 . S
C148 H155 0.930 . S
C149 N146 1.328 . S
C149 C151 1.392 . S
C149 H156 0.930 . S
N150 C147 1.329 . S
N150 C151 1.331 . S
C151 C149 1.392 . S
C151 N150 1.331 . S
O152 Zn145 1.975 . S
O152 C153 1.252 . S
C153 O152 1.252 . S
C153 O154 1.252 . S
O154 Zn136 1.975 . S
O154 C153 1.252 . S
H155 C148 0.930 . S
H156 C149 0.930 . S
C157 C158 1.392 . S
C157 N161 1.328 . S
C157 H163 0.930 . S
C158 C157 1.392 . S
C158 N162 1.331 . S
C159 C160 1.391 . S
C159 N162 1.329 . S
C159 H169 0.930 . S
C160 C159 1.391 . S
C160 N161 1.334 . S
C160 H167 0.930 . S
N161 Zn145 2.119 . S
N161 C157 1.328 . S
N161 C160 1.334 . S
N162 C158 1.331 . S
N162 C159 1.329 . S
H163 C157 0.930 . S
C164 O144 1.257 . S
C164 O165 1.244 . S
O165 C164 1.244 . S
O166 C142 1.257 . S
O166 Zn145 2.019 . S
H167 C160 0.930 . S
H168 C147 0.930 . S
H169 C159 0.930 . S
Zn170 N174 2.020 . S
Zn170 O178 2.019 1_455 S
Zn170 N180 2.119 1_455 S
Zn170 O188 1.975 . S
C171 N172 1.334 . S
C171 N175 1.336 . S
N172 C171 1.334 . S
N172 C173 1.334 . S
C173 N172 1.334 . S
C173 N174 1.336 . S
N174 Zn170 2.020 . S
N174 C173 1.336 . S
N174 N175 1.354 . S
N175 C171 1.336 . S
N175 N174 1.354 . S
N175 Zn179 2.020 . S
C176 O177 1.244 . S
C176 O200 1.257 . S
O177 C176 1.244 . S
O178 Zn170 2.019 1_655 S
O178 C198 1.257 1_655 S
Zn179 N175 2.020 . S
Zn179 O186 1.975 . S
Zn179 N195 2.119 . S
Zn179 O200 2.019 . S
N180 Zn170 2.119 1_655 S
N180 C182 1.334 . S
N180 C183 1.328 . S
C181 C182 1.391 . S
C181 N184 1.329 . S
C181 H202 0.930 . S
C182 N180 1.334 . S
C182 C181 1.391 . S
C182 H189 0.930 . S
C183 N180 1.328 . S
C183 C185 1.392 . S
C183 H190 0.930 . S
N184 C181 1.329 . S
N184 C185 1.331 . S
C185 C183 1.392 . S
C185 N184 1.331 . S
O186 Zn179 1.975 . S
O186 C187 1.252 . S
C187 O186 1.252 . S
C187 O188 1.252 . S
O188 Zn170 1.975 . S
O188 C187 1.252 . S
H189 C182 0.930 . S
H190 C183 0.930 . S
C191 C192 1.392 . S
C191 N195 1.328 . S
C191 H197 0.930 . S
C192 C191 1.392 . S
C192 N196 1.331 . S
C193 C194 1.391 . S
C193 N196 1.329 . S
C193 H203 0.930 . S
C194 C193 1.391 . S
C194 N195 1.334 . S
C194 H201 0.930 . S
N195 Zn179 2.119 . S
N195 C191 1.328 . S
N195 C194 1.334 . S
N196 C192 1.331 . S
N196 C193 1.329 . S
H197 C191 0.930 . S
C198 O178 1.257 1_455 S
C198 O199 1.244 . S
O199 C198 1.244 . S
O200 C176 1.257 . S
O200 Zn179 2.019 . S
H201 C194 0.930 . S
H202 C181 0.930 . S
H203 C193 0.930 . S
Zn204 N208 2.020 . S
Zn204 O212 2.019 . S
Zn204 N214 2.119 . S
Zn204 O222 1.975 . S
C205 N206 1.334 . S
C205 N209 1.336 . S
N206 C205 1.334 . S
N206 C207 1.334 . S
C207 N206 1.334 . S
C207 N208 1.336 . S
N208 Zn204 2.020 . S
N208 C207 1.336 . S
N208 N209 1.354 . S
N209 C205 1.336 . S
N209 N208 1.354 . S
N209 Zn213 2.020 . S
C210 O211 1.244 . S
C210 O234 1.257 . S
O211 C210 1.244 . S
O212 Zn204 2.019 . S
O212 C232 1.257 . S
Zn213 N209 2.020 . S
Zn213 O220 1.975 . S
Zn213 N229 2.119 . S
Zn213 O234 2.019 . S
N214 Zn204 2.119 . S
N214 C216 1.334 . S
N214 C217 1.328 . S
C215 C216 1.391 . S
C215 N218 1.329 . S
C215 H236 0.930 . S
C216 N214 1.334 . S
C216 C215 1.391 . S
C216 H223 0.930 . S
C217 N214 1.328 . S
C217 C219 1.392 . S
C217 H224 0.930 . S
N218 C215 1.329 . S
N218 C219 1.331 . S
C219 C217 1.392 . S
C219 N218 1.331 . S
O220 Zn213 1.975 . S
O220 C221 1.252 . S
C221 O220 1.252 . S
C221 O222 1.252 . S
O222 Zn204 1.975 . S
O222 C221 1.252 . S
H223 C216 0.930 . S
H224 C217 0.930 . S
C225 C226 1.392 . S
C225 N229 1.328 . S
C225 H231 0.930 . S
C226 C225 1.392 . S
C226 N230 1.331 . S
C227 C228 1.391 . S
C227 N230 1.329 . S
C227 H237 0.930 . S
C228 C227 1.391 . S
C228 N229 1.334 . S
C228 H235 0.930 . S
N229 Zn213 2.119 . S
N229 C225 1.328 . S
N229 C228 1.334 . S
N230 C226 1.331 . S
N230 C227 1.329 . S
H231 C225 0.930 . S
C232 O212 1.257 . S
C232 O233 1.244 . S
O233 C232 1.244 . S
O234 C210 1.257 . S
O234 Zn213 2.019 . S
H235 C228 0.930 . S
H236 C215 0.930 . S
H237 C227 0.930 . S
Zn238 N242 2.020 . S
Zn238 O246 2.019 . S
Zn238 N248 2.119 . S
Zn238 O256 1.975 . S
C239 N240 1.334 . S
C239 N243 1.336 . S
N240 C239 1.334 . S
N240 C241 1.334 . S
C241 N240 1.334 . S
C241 N242 1.336 . S
N242 Zn238 2.020 . S
N242 C241 1.336 . S
N242 N243 1.354 . S
N243 C239 1.336 . S
N243 N242 1.354 . S
N243 Zn247 2.020 . S
C244 O245 1.244 . S
C244 O268 1.257 1_455 S
O245 C244 1.244 . S
O246 Zn238 2.019 . S
O246 C266 1.257 . S
Zn247 N243 2.020 . S
Zn247 O254 1.975 . S
Zn247 N263 2.119 1_455 S
Zn247 O268 2.019 1_455 S
N248 Zn238 2.119 . S
N248 C250 1.334 . S
N248 C251 1.328 . S
C249 C250 1.391 . S
C249 N252 1.329 . S
C249 H270 0.930 . S
C250 N248 1.334 . S
C250 C249 1.391 . S
C250 H257 0.930 . S
C251 N248 1.328 . S
C251 C253 1.392 . S
C251 H258 0.930 . S
N252 C249 1.329 . S
N252 C253 1.331 . S
C253 C251 1.392 . S
C253 N252 1.331 . S
O254 Zn247 1.975 . S
O254 C255 1.252 . S
C255 O254 1.252 . S
C255 O256 1.252 . S
O256 Zn238 1.975 . S
O256 C255 1.252 . S
H257 C250 0.930 . S
H258 C251 0.930 . S
C259 C260 1.392 . S
C259 N263 1.328 . S
C259 H265 0.930 . S
C260 C259 1.392 . S
C260 N264 1.331 . S
C261 C262 1.391 . S
C261 N264 1.329 . S
C261 H271 0.930 . S
C262 C261 1.391 . S
C262 N263 1.334 . S
C262 H269 0.930 . S
N263 Zn247 2.119 1_655 S
N263 C259 1.328 . S
N263 C262 1.334 . S
N264 C260 1.331 . S
N264 C261 1.329 . S
H265 C259 0.930 . S
C266 O246 1.257 . S
C266 O267 1.244 . S
O267 C266 1.244 . S
O268 C244 1.257 1_655 S
O268 Zn247 2.019 1_655 S
H269 C262 0.930 . S
H270 C249 0.930 . S
H271 C261 0.930 . S
C272 C273 1.363 . S
C272 C278 1.379 . S
C272 N280 1.356 . S
C273 C272 1.363 . S
C273 C279 1.363 . S
C274 C275 1.363 . S
C274 C279 1.379 . S
C274 N281 1.356 . S
C275 C274 1.363 . S
C275 C278 1.363 . S
N276 C278 1.356 . S
N276 H288 0.984 . S
N276 H289 0.985 . S
N277 C279 1.356 . S
N277 H282 0.984 . S
N277 H283 0.985 . S
C278 C272 1.379 . S
C278 C275 1.363 . S
C278 N276 1.356 . S
C279 C273 1.363 . S
C279 C274 1.379 . S
C279 N277 1.356 . S
N280 C272 1.356 . S
N280 H286 0.984 . S
N280 H287 0.984 . S
N281 C274 1.356 . S
N281 H284 0.984 . S
N281 H285 0.985 . S
H282 N277 0.984 . S
H283 N277 0.985 . S
H284 N281 0.984 . S
H285 N281 0.985 . S
H286 N280 0.984 . S
H287 N280 0.984 . S
H288 N276 0.984 . S
H289 N276 0.985 . S
C290 C291 1.363 . S
C290 C296 1.379 . S
C290 N298 1.356 . S
C291 C290 1.363 . S
C291 C297 1.363 . S
C292 C293 1.363 . S
C292 C297 1.379 . S
C292 N299 1.356 . S
C293 C292 1.363 . S
C293 C296 1.363 . S
N294 C296 1.356 . S
N294 H306 0.984 . S
N294 H307 0.985 . S
N295 C297 1.356 . S
N295 H300 0.984 . S
N295 H301 0.985 . S
C296 C290 1.379 . S
C296 C293 1.363 . S
C296 N294 1.356 . S
C297 C291 1.363 . S
C297 C292 1.379 . S
C297 N295 1.356 . S
N298 C290 1.356 . S
N298 H304 0.984 . S
N298 H305 0.984 . S
N299 C292 1.356 . S
N299 H302 0.984 . S
N299 H303 0.985 . S
H300 N295 0.984 . S
H301 N295 0.985 . S
H302 N299 0.984 . S
H303 N299 0.985 . S
H304 N298 0.984 . S
H305 N298 0.984 . S
H306 N294 0.984 . S
H307 N294 0.985 . S
C308 C309 1.363 . S
C308 C314 1.379 . S
C308 N316 1.356 . S
C309 C308 1.363 . S
C309 C315 1.363 . S
C310 C311 1.363 . S
C310 C315 1.379 . S
C310 N317 1.356 . S
C311 C310 1.363 . S
C311 C314 1.363 . S
N312 C314 1.356 . S
N312 H324 0.984 . S
N312 H325 0.985 . S
N313 C315 1.356 . S
N313 H318 0.984 . S
N313 H319 0.985 . S
C314 C308 1.379 . S
C314 C311 1.363 . S
C314 N312 1.356 . S
C315 C309 1.363 . S
C315 C310 1.379 . S
C315 N313 1.356 . S
N316 C308 1.356 . S
N316 H322 0.984 . S
N316 H323 0.984 . S
N317 C310 1.356 . S
N317 H320 0.984 . S
N317 H321 0.985 . S
H318 N313 0.984 . S
H319 N313 0.985 . S
H320 N317 0.984 . S
H321 N317 0.985 . S
H322 N316 0.984 . S
H323 N316 0.984 . S
H324 N312 0.984 . S
H325 N312 0.985 . S
C326 C327 1.363 . S
C326 C332 1.379 . S
C326 N334 1.356 . S
C327 C326 1.363 . S
C327 C333 1.363 . S
C328 C329 1.363 . S
C328 C333 1.379 . S
C328 N335 1.356 . S
C329 C328 1.363 . S
C329 C332 1.363 . S
N330 C332 1.356 . S
N330 H342 0.984 . S
N330 H343 0.985 . S
N331 C333 1.356 . S
N331 H336 0.984 . S
N331 H337 0.985 . S
C332 C326 1.379 . S
C332 C329 1.363 . S
C332 N330 1.356 . S
C333 C327 1.363 . S
C333 C328 1.379 . S
C333 N331 1.356 . S
N334 C326 1.356 . S
N334 H340 0.984 . S
N334 H341 0.984 . S
N335 C328 1.356 . S
N335 H338 0.984 . S
N335 H339 0.985 . S
H336 N331 0.984 . S
H337 N331 0.985 . S
H338 N335 0.984 . S
H339 N335 0.985 . S
H340 N334 0.984 . S
H341 N334 0.984 . S
H342 N330 0.984 . S
H343 N330 0.985 . S
C344 C345 1.363 . S
C344 C350 1.379 . S
C344 N352 1.356 . S
C345 C344 1.363 . S
C345 C351 1.363 . S
C346 C347 1.363 . S
C346 C351 1.379 . S
C346 N353 1.356 . S
C347 C346 1.363 . S
C347 C350 1.363 . S
N348 C350 1.356 . S
N348 H360 0.984 . S
N348 H361 0.985 . S
N349 C351 1.356 . S
N349 H354 0.984 . S
N349 H355 0.985 . S
C350 C344 1.379 . S
C350 C347 1.363 . S
C350 N348 1.356 . S
C351 C345 1.363 . S
C351 C346 1.379 . S
C351 N349 1.356 . S
N352 C344 1.356 . S
N352 H358 0.984 . S
N352 H359 0.984 . S
N353 C346 1.356 . S
N353 H356 0.984 . S
N353 H357 0.985 . S
H354 N349 0.984 . S
H355 N349 0.985 . S
H356 N353 0.984 . S
H357 N353 0.985 . S
H358 N352 0.984 . S
H359 N352 0.984 . S
H360 N348 0.984 . S
H361 N348 0.985 . S
C362 C363 1.363 . S
C362 C368 1.379 . S
C362 N370 1.356 . S
C363 C362 1.363 . S
C363 C369 1.363 . S
C364 C365 1.363 . S
C364 C369 1.379 . S
C364 N371 1.356 . S
C365 C364 1.363 . S
C365 C368 1.363 . S
N366 C368 1.356 . S
N366 H378 0.984 . S
N366 H379 0.985 . S
N367 C369 1.356 . S
N367 H372 0.984 . S
N367 H373 0.985 . S
C368 C362 1.379 . S
C368 C365 1.363 . S
C368 N366 1.356 . S
C369 C363 1.363 . S
C369 C364 1.379 . S
C369 N367 1.356 . S
N370 C362 1.356 . S
N370 H376 0.984 . S
N370 H377 0.984 . S
N371 C364 1.356 . S
N371 H374 0.984 . S
N371 H375 0.985 . S
H372 N367 0.984 . S
H373 N367 0.985 . S
H374 N371 0.984 . S
H375 N371 0.985 . S
H376 N370 0.984 . S
H377 N370 0.984 . S
H378 N366 0.984 . S
H379 N366 0.985 . S
C380 C381 1.363 . S
C380 C386 1.379 . S
C380 N388 1.356 . S
C381 C380 1.363 . S
C381 C387 1.363 . S
C382 C383 1.363 . S
C382 C387 1.379 . S
C382 N389 1.356 . S
C383 C382 1.363 . S
C383 C386 1.363 . S
N384 C386 1.356 . S
N384 H396 0.984 . S
N384 H397 0.985 . S
N385 C387 1.356 . S
N385 H390 0.984 . S
N385 H391 0.985 . S
C386 C380 1.379 . S
C386 C383 1.363 . S
C386 N384 1.356 . S
C387 C381 1.363 . S
C387 C382 1.379 . S
C387 N385 1.356 . S
N388 C380 1.356 . S
N388 H394 0.984 . S
N388 H395 0.984 . S
N389 C382 1.356 . S
N389 H392 0.984 . S
N389 H393 0.985 . S
H390 N385 0.984 . S
H391 N385 0.985 . S
H392 N389 0.984 . S
H393 N389 0.985 . S
H394 N388 0.984 . S
H395 N388 0.984 . S
H396 N384 0.984 . S
H397 N384 0.985 . S
C398 C399 1.363 . S
C398 C404 1.379 . S
C398 N406 1.356 . S
C399 C398 1.363 . S
C399 C405 1.363 . S
C400 C401 1.363 . S
C400 C405 1.379 . S
C400 N407 1.356 . S
C401 C400 1.363 . S
C401 C404 1.363 . S
N402 C404 1.356 . S
N402 H414 0.984 . S
N402 H415 0.985 . S
N403 C405 1.356 . S
N403 H408 0.984 . S
N403 H409 0.985 . S
C404 C398 1.379 . S
C404 C401 1.363 . S
C404 N402 1.356 . S
C405 C399 1.363 . S
C405 C400 1.379 . S
C405 N403 1.356 . S
N406 C398 1.356 . S
N406 H412 0.984 . S
N406 H413 0.984 . S
N407 C400 1.356 . S
N407 H410 0.984 . S
N407 H411 0.985 . S
H408 N403 0.984 . S
H409 N403 0.985 . S
H410 N407 0.984 . S
H411 N407 0.985 . S
H412 N406 0.984 . S
H413 N406 0.984 . S
H414 N402 0.984 . S
H415 N402 0.985 . S
C416 C417 1.363 . S
C416 C422 1.379 . S
C416 N424 1.356 . S
C417 C416 1.363 . S
C417 C423 1.363 . S
C418 C419 1.363 . S
C418 C423 1.379 . S
C418 N425 1.356 . S
C419 C418 1.363 . S
C419 C422 1.363 . S
N420 C422 1.356 . S
N420 H432 0.984 . S
N420 H433 0.985 . S
N421 C423 1.356 . S
N421 H426 0.984 . S
N421 H427 0.985 . S
C422 C416 1.379 . S
C422 C419 1.363 . S
C422 N420 1.356 . S
C423 C417 1.363 . S
C423 C418 1.379 . S
C423 N421 1.356 . S
N424 C416 1.356 . S
N424 H430 0.984 . S
N424 H431 0.984 . S
N425 C418 1.356 . S
N425 H428 0.984 . S
N425 H429 0.985 . S
H426 N421 0.984 . S
H427 N421 0.985 . S
H428 N425 0.984 . S
H429 N425 0.985 . S
H430 N424 0.984 . S
H431 N424 0.984 . S
H432 N420 0.984 . S
H433 N420 0.985 . S
C434 C435 1.363 . S
C434 C440 1.379 . S
C434 N442 1.356 . S
C435 C434 1.363 . S
C435 C441 1.363 . S
C436 C437 1.363 . S
C436 C441 1.379 . S
C436 N443 1.356 . S
C437 C436 1.363 . S
C437 C440 1.363 . S
N438 C440 1.356 . S
N438 H450 0.984 . S
N438 H451 0.985 . S
N439 C441 1.356 . S
N439 H444 0.984 . S
N439 H445 0.985 . S
C440 C434 1.379 . S
C440 C437 1.363 . S
C440 N438 1.356 . S
C441 C435 1.363 . S
C441 C436 1.379 . S
C441 N439 1.356 . S
N442 C434 1.356 . S
N442 H448 0.984 . S
N442 H449 0.984 . S
N443 C436 1.356 . S
N443 H446 0.984 . S
N443 H447 0.985 . S
H444 N439 0.984 . S
H445 N439 0.985 . S
H446 N443 0.984 . S
H447 N443 0.985 . S
H448 N442 0.984 . S
H449 N442 0.984 . S
H450 N438 0.984 . S
H451 N438 0.985 . S
C452 C453 1.363 . S
C452 C458 1.379 . S
C452 N460 1.356 . S
C453 C452 1.363 . S
C453 C459 1.363 . S
C454 C455 1.363 . S
C454 C459 1.379 . S
C454 N461 1.356 . S
C455 C454 1.363 . S
C455 C458 1.363 . S
N456 C458 1.356 . S
N456 H468 0.984 . S
N456 H469 0.985 . S
N457 C459 1.356 . S
N457 H462 0.984 . S
N457 H463 0.985 . S
C458 C452 1.379 . S
C458 C455 1.363 . S
C458 N456 1.356 . S
C459 C453 1.363 . S
C459 C454 1.379 . S
C459 N457 1.356 . S
N460 C452 1.356 . S
N460 H466 0.984 . S
N460 H467 0.984 . S
N461 C454 1.356 . S
N461 H464 0.984 . S
N461 H465 0.985 . S
H462 N457 0.984 . S
H463 N457 0.985 . S
H464 N461 0.984 . S
H465 N461 0.985 . S
H466 N460 0.984 . S
H467 N460 0.984 . S
H468 N456 0.984 . S
H469 N456 0.985 . S
C470 C471 1.363 . S
C470 C476 1.379 . S
C470 N478 1.356 . S
C471 C470 1.363 . S
C471 C477 1.363 . S
C472 C473 1.363 . S
C472 C477 1.379 . S
C472 N479 1.356 . S
C473 C472 1.363 . S
C473 C476 1.363 . S
N474 C476 1.356 . S
N474 H486 0.984 . S
N474 H487 0.985 . S
N475 C477 1.356 . S
N475 H480 0.984 . S
N475 H481 0.985 . S
C476 C470 1.379 . S
C476 C473 1.363 . S
C476 N474 1.356 . S
C477 C471 1.363 . S
C477 C472 1.379 . S
C477 N475 1.356 . S
N478 C470 1.356 . S
N478 H484 0.984 . S
N478 H485 0.984 . S
N479 C472 1.356 . S
N479 H482 0.984 . S
N479 H483 0.985 . S
H480 N475 0.984 . S
H481 N475 0.985 . S
H482 N479 0.984 . S
H483 N479 0.985 . S
H484 N478 0.984 . S
H485 N478 0.984 . S
H486 N474 0.984 . S
H487 N474 0.985 . S
C488 C489 1.363 . S
C488 C494 1.379 . S
C488 N496 1.356 1_545 S
C489 C488 1.363 . S
C489 C495 1.363 . S
C490 C491 1.363 . S
C490 C495 1.379 . S
C490 N497 1.356 . S
C491 C490 1.363 . S
C491 C494 1.363 . S
N492 C494 1.356 . S
N492 H504 0.984 . S
N492 H505 0.985 . S
N493 C495 1.356 . S
N493 H498 0.984 . S
N493 H499 0.985 . S
C494 C488 1.379 . S
C494 C491 1.363 . S
C494 N492 1.356 . S
C495 C489 1.363 . S
C495 C490 1.379 . S
C495 N493 1.356 . S
N496 C488 1.356 1_565 S
N496 H502 0.984 . S
N496 H503 0.984 . S
N497 C490 1.356 . S
N497 H500 0.984 . S
N497 H501 0.985 . S
H498 N493 0.984 . S
H499 N493 0.985 . S
H500 N497 0.984 . S
H501 N497 0.985 . S
H502 N496 0.984 . S
H503 N496 0.984 . S
H504 N492 0.984 . S
H505 N492 0.985 . S
C506 C507 1.363 . S
C506 C512 1.379 1_455 S
C506 N514 1.356 1_455 S
C507 C506 1.363 . S
C507 C513 1.363 . S
C508 C509 1.363 . S
C508 C513 1.379 . S
C508 N515 1.356 . S
C509 C508 1.363 . S
C509 C512 1.363 1_455 S
N510 C512 1.356 . S
N510 H522 0.984 . S
N510 H523 0.985 1_565 S
N511 C513 1.356 . S
N511 H516 0.984 . S
N511 H517 0.985 . S
C512 C506 1.379 1_655 S
C512 C509 1.363 1_655 S
C512 N510 1.356 . S
C513 C507 1.363 . S
C513 C508 1.379 . S
C513 N511 1.356 . S
N514 C506 1.356 1_655 S
N514 H520 0.984 . S
N514 H521 0.984 1_655 S
N515 C508 1.356 . S
N515 H518 0.984 1_565 S
N515 H519 0.985 . S
H516 N511 0.984 . S
H517 N511 0.985 . S
H518 N515 0.984 1_545 S
H519 N515 0.985 . S
H520 N514 0.984 . S
H521 N514 0.984 1_455 S
H522 N510 0.984 . S
H523 N510 0.985 1_545 S
C524 C525 1.363 . S
C524 C530 1.379 . S
C524 N532 1.356 . S
C525 C524 1.363 . S
C525 C531 1.363 . S
C526 C527 1.363 . S
C526 C531 1.379 . S
C526 N533 1.356 . S
C527 C526 1.363 . S
C527 C530 1.363 . S
N528 C530 1.356 1_545 S
N528 H540 0.984 . S
N528 H541 0.985 . S
N529 C531 1.356 . S
N529 H534 0.984 . S
N529 H535 0.985 . S
C530 C524 1.379 . S
C530 C527 1.363 . S
C530 N528 1.356 1_565 S
C531 C525 1.363 . S
C531 C526 1.379 . S
C531 N529 1.356 . S
N532 C524 1.356 . S
N532 H538 0.984 . S
N532 H539 0.984 . S
N533 C526 1.356 . S
N533 H536 1.006 . S
N533 H537 0.985 . S
H534 N529 0.984 . S
H535 N529 0.985 . S
H536 N533 1.006 . S
H537 N533 0.985 . S
H538 N532 0.984 . S
H539 N532 0.984 . S
H540 N528 0.984 . S
H541 N528 0.985 . S
C542 C543 1.363 . S
C542 C548 1.379 . S
C542 N550 1.356 . S
C543 C542 1.363 . S
C543 C549 1.363 . S
C544 C545 1.363 . S
C544 C549 1.379 . S
C544 N551 1.356 . S
C545 C544 1.363 . S
C545 C548 1.363 . S
N546 C548 1.356 1_665 S
N546 H558 0.984 . S
N546 H559 0.985 . S
N547 C549 1.356 . S
N547 H552 0.984 . S
N547 H553 0.985 . S
C548 C542 1.379 . S
C548 C545 1.363 . S
C548 N546 1.356 1_445 S
C549 C543 1.363 . S
C549 C544 1.379 . S
C549 N547 1.356 . S
N550 C542 1.356 . S
N550 H556 0.984 1_455 S
N550 H557 0.984 . S
N551 C544 1.356 . S
N551 H554 0.987 . S
N551 H555 0.985 . S
H552 N547 0.984 . S
H553 N547 0.985 . S
H554 N551 0.987 . S
H555 N551 0.985 . S
H556 N550 0.984 1_655 S
H557 N550 0.984 . S
H558 N546 0.984 . S
H559 N546 0.985 . S
C560 C561 1.363 1_556 S
C560 C566 1.379 . S
C560 N568 1.356 1_455 S
C561 C560 1.363 1_554 S
C561 C567 1.363 . S
C562 C563 1.363 . S
C562 C567 1.379 1_556 S
C562 N569 1.356 . S
C563 C562 1.363 . S
C563 C566 1.363 . S
N564 C566 1.356 . S
N564 H576 0.984 1_455 S
N564 H577 0.985 . S
N565 C567 1.356 . S
N565 H570 0.984 . S
N565 H571 0.985 . S
C566 C560 1.379 . S
C566 C563 1.363 . S
C566 N564 1.356 . S
C567 C561 1.363 . S
C567 C562 1.379 1_554 S
C567 N565 1.356 . S
N568 C560 1.356 1_655 S
N568 H574 0.984 . S
N568 H575 0.984 1_556 S
N569 C562 1.356 . S
N569 H572 0.984 . S
N569 H573 0.985 . S
H570 N565 0.984 . S
H571 N565 0.985 . S
H572 N569 0.984 . S
H573 N569 0.985 . S
H574 N568 0.984 . S
H575 N568 0.984 1_554 S
H576 N564 0.984 1_655 S
H577 N564 0.985 . S
C578 C579 1.363 . S
C578 C584 1.379 . S
C578 N586 1.356 . S
C579 C578 1.363 . S
C579 C585 1.363 . S
C580 C581 1.363 . S
C580 C585 1.379 . S
C580 N587 1.356 . S
C581 C580 1.363 . S
C581 C584 1.363 . S
N582 C584 1.356 . S
N582 H594 0.984 . S
N582 H595 0.985 . S
N583 C585 1.356 . S
N583 H588 0.984 . S
N583 H589 0.985 . S
C584 C578 1.379 . S
C584 C581 1.363 . S
C584 N582 1.356 . S
C585 C579 1.363 . S
C585 C580 1.379 . S
C585 N583 1.356 . S
N586 C578 1.356 . S
N586 H592 0.984 . S
N586 H593 0.984 . S
N587 C580 1.356 . S
N587 H590 0.984 . S
N587 H591 0.985 . S
H588 N583 0.984 . S
H589 N583 0.985 . S
H590 N587 0.984 . S
H591 N587 0.985 . S
H592 N586 0.984 . S
H593 N586 0.984 . S
H594 N582 0.984 . S
H595 N582 0.985 . S
C596 C597 1.363 . S
C596 C602 1.379 1_554 S
C596 N604 1.356 . S
C597 C596 1.363 . S
C597 C603 1.363 . S
C598 C599 1.363 1_554 S
C598 C603 1.379 . S
C598 N605 1.356 . S
C599 C598 1.363 1_556 S
C599 C602 1.363 . S
N600 C602 1.356 1_655 S
N600 H612 0.984 . S
N600 H613 0.985 . S
N601 C603 1.356 . S
N601 H606 0.984 . S
N601 H607 0.985 . S
C602 C596 1.379 1_556 S
C602 C599 1.363 . S
C602 N600 1.356 1_455 S
C603 C597 1.363 . S
C603 C598 1.379 . S
C603 N601 1.356 . S
N604 C596 1.356 . S
N604 H610 0.984 1_455 S
N604 H611 0.984 . S
N605 C598 1.356 . S
N605 H608 0.984 1_554 S
N605 H609 0.985 . S
H606 N601 0.984 . S
H607 N601 0.985 . S
H608 N605 0.984 1_556 S
H609 N605 0.985 . S
H610 N604 0.984 1_655 S
H611 N604 0.984 . S
H612 N600 0.984 . S
H613 N600 0.985 . S
C614 C615 1.363 . S
C614 C620 1.379 . S
C614 N622 1.356 . S
C615 C614 1.363 . S
C615 C621 1.363 . S
C616 C617 1.363 . S
C616 C621 1.379 . S
C616 N623 1.356 . S
C617 C616 1.363 . S
C617 C620 1.363 . S
N618 C620 1.356 . S
N618 H630 0.984 . S
N618 H631 0.985 . S
N619 C621 1.356 . S
N619 H624 0.984 . S
N619 H625 0.985 . S
C620 C614 1.379 . S
C620 C617 1.363 . S
C620 N618 1.356 . S
C621 C615 1.363 . S
C621 C616 1.379 . S
C621 N619 1.356 . S
N622 C614 1.356 . S
N622 H628 0.984 . S
N622 H629 0.984 . S
N623 C616 1.356 . S
N623 H626 0.984 . S
N623 H627 0.985 . S
H624 N619 0.984 . S
H625 N619 0.985 . S
H626 N623 0.984 . S
H627 N623 0.985 . S
H628 N622 0.984 . S
H629 N622 0.984 . S
H630 N618 0.984 . S
H631 N618 0.985 . S
C632 C633 1.363 1_556 S
C632 C638 1.379 . S
C632 N640 1.356 1_556 S
C633 C632 1.363 1_554 S
C633 C639 1.363 1_554 S
C634 C635 1.363 . S
C634 C639 1.379 . S
C634 N641 1.356 . S
C635 C634 1.363 . S
C635 C638 1.363 . S
N636 C638 1.356 . S
N636 H648 0.984 . S
N636 H649 0.985 . S
N637 C639 1.356 1_554 S
N637 H642 0.984 . S
N637 H643 0.985 . S
C638 C632 1.379 . S
C638 C635 1.363 . S
C638 N636 1.356 . S
C639 C633 1.363 1_556 S
C639 C634 1.379 . S
C639 N637 1.356 1_556 S
N640 C632 1.356 1_554 S
N640 H646 0.984 . S
N640 H647 0.984 . S
N641 C634 1.356 . S
N641 H644 0.984 . S
N641 H645 0.985 . S
H642 N637 0.984 . S
H643 N637 0.985 . S
H644 N641 0.984 . S
H645 N641 0.985 . S
H646 N640 0.984 . S
H647 N640 0.984 . S
H648 N636 0.984 . S
H649 N636 0.985 . S
C650 C651 1.363 . S
C650 C656 1.379 . S
C650 N658 1.356 . S
C651 C650 1.363 . S
C651 C657 1.363 . S
C652 C653 1.363 . S
C652 C657 1.379 . S
C652 N659 1.356 . S
C653 C652 1.363 . S
C653 C656 1.363 . S
N654 C656 1.356 . S
N654 H666 0.984 . S
N654 H667 0.985 . S
N655 C657 1.356 . S
N655 H660 0.984 . S
N655 H661 0.985 . S
C656 C650 1.379 . S
C656 C653 1.363 . S
C656 N654 1.356 . S
C657 C651 1.363 . S
C657 C652 1.379 . S
C657 N655 1.356 . S
N658 C650 1.356 . S
N658 H664 0.984 . S
N658 H665 0.984 . S
N659 C652 1.356 . S
N659 H662 0.984 . S
N659 H663 0.985 . S
H660 N655 0.984 . S
H661 N655 0.985 . S
H662 N659 0.984 . S
H663 N659 0.985 . S
H664 N658 0.984 . S
H665 N658 0.984 . S
H666 N654 0.984 . S
H667 N654 0.985 . S
C668 C669 1.363 1_554 S
C668 C674 1.379 . S
C668 N676 1.356 1_554 S
C669 C668 1.363 1_556 S
C669 C675 1.363 1_556 S
C670 C671 1.363 . S
C670 C675 1.379 . S
C670 N677 1.356 . S
C671 C670 1.363 . S
C671 C674 1.363 . S
N672 C674 1.356 . S
N672 H684 0.984 . S
N672 H685 0.985 . S
N673 C675 1.356 1_556 S
N673 H678 0.984 . S
N673 H679 0.985 . S
C674 C668 1.379 . S
C674 C671 1.363 . S
C674 N672 1.356 . S
C675 C669 1.363 1_554 S
C675 C670 1.379 . S
C675 N673 1.356 1_554 S
N676 C668 1.356 1_556 S
N676 H682 0.984 . S
N676 H683 0.984 . S
N677 C670 1.356 . S
N677 H680 0.984 . S
N677 H681 0.985 . S
H678 N673 0.984 . S
H679 N673 0.985 . S
H680 N677 0.984 . S
H681 N677 0.985 . S
H682 N676 0.984 . S
H683 N676 0.984 . S
H684 N672 0.984 . S
H685 N672 0.985 . S
C686 C687 1.363 . S
C686 C692 1.379 . S
C686 N694 1.356 . S
C687 C686 1.363 . S
C687 C693 1.363 . S
C688 C689 1.363 . S
C688 C693 1.379 . S
C688 N695 1.356 . S
C689 C688 1.363 . S
C689 C692 1.363 . S
N690 C692 1.356 . S
N690 H702 0.984 . S
N690 H703 0.985 . S
N691 C693 1.356 . S
N691 H696 0.984 . S
N691 H697 0.985 . S
C692 C686 1.379 . S
C692 C689 1.363 . S
C692 N690 1.356 . S
C693 C687 1.363 . S
C693 C688 1.379 . S
C693 N691 1.356 . S
N694 C686 1.356 . S
N694 H700 0.984 . S
N694 H701 0.984 . S
N695 C688 1.356 . S
N695 H698 0.984 . S
N695 H699 0.985 . S
H696 N691 0.984 . S
H697 N691 0.985 . S
H698 N695 0.984 . S
H699 N695 0.985 . S
H700 N694 0.984 . S
H701 N694 0.984 . S
H702 N690 0.984 . S
H703 N690 0.985 . S
C704 C705 1.363 . S
C704 C710 1.379 . S
C704 N712 1.356 . S
C705 C704 1.363 . S
C705 C711 1.363 1_554 S
C706 C707 1.363 . S
C706 C711 1.379 . S
C706 N713 1.356 . S
C707 C706 1.363 . S
C707 C710 1.363 1_556 S
N708 C710 1.356 . S
N708 H720 0.984 . S
N708 H721 0.985 1_554 S
N709 C711 1.356 . S
N709 H714 0.984 1_556 S
N709 H715 0.985 . S
C710 C704 1.379 . S
C710 C707 1.363 1_554 S
C710 N708 1.356 . S
C711 C705 1.363 1_556 S
C711 C706 1.379 . S
C711 N709 1.356 . S
N712 C704 1.356 . S
N712 H718 0.984 . S
N712 H719 0.984 . S
N713 C706 1.356 . S
N713 H716 0.984 . S
N713 H717 0.985 . S
H714 N709 0.984 1_554 S
H715 N709 0.985 . S
H716 N713 0.984 . S
H717 N713 0.985 . S
H718 N712 0.984 . S
H719 N712 0.984 . S
H720 N708 0.984 . S
H721 N708 0.985 1_556 S
C722 C723 1.363 . S
C722 C728 1.379 . S
C722 N730 1.356 . S
C723 C722 1.363 . S
C723 C729 1.363 . S
C724 C725 1.363 . S
C724 C729 1.379 . S
C724 N731 1.356 . S
C725 C724 1.363 . S
C725 C728 1.363 . S
N726 C728 1.356 . S
N726 H738 0.984 . S
N726 H739 0.985 . S
N727 C729 1.356 . S
N727 H732 0.984 . S
N727 H733 0.985 . S
C728 C722 1.379 . S
C728 C725 1.363 . S
C728 N726 1.356 . S
C729 C723 1.363 . S
C729 C724 1.379 . S
C729 N727 1.356 . S
N730 C722 1.356 . S
N730 H736 0.984 . S
N730 H737 0.984 . S
N731 C724 1.356 . S
N731 H734 0.984 . S
N731 H735 0.985 . S
H732 N727 0.984 . S
H733 N727 0.985 . S
H734 N731 0.984 . S
H735 N731 0.985 . S
H736 N730 0.984 . S
H737 N730 0.984 . S
H738 N726 0.984 . S
H739 N726 0.985 . S
C740 C741 1.363 . S
C740 C746 1.379 1_564 S
C740 N748 1.356 . S
C741 C740 1.363 . S
C741 C747 1.363 . S
C742 C743 1.363 . S
C742 C747 1.379 1_546 S
C742 N749 1.356 . S
C743 C742 1.363 . S
C743 C746 1.363 . S
N744 C746 1.356 . S
N744 H756 0.984 . S
N744 H757 0.985 . S
N745 C747 1.356 . S
N745 H750 0.984 . S
N745 H751 0.985 . S
C746 C740 1.379 1_546 S
C746 C743 1.363 . S
C746 N744 1.356 . S
C747 C741 1.363 . S
C747 C742 1.379 1_564 S
C747 N745 1.356 . S
N748 C740 1.356 . S
N748 H754 0.984 . S
N748 H755 0.984 . S
N749 C742 1.356 . S
N749 H752 0.984 . S
N749 H753 0.985 . S
H750 N745 0.984 . S
H751 N745 0.985 . S
H752 N749 0.984 . S
H753 N749 0.985 . S
H754 N748 0.984 . S
H755 N748 0.984 . S
H756 N744 0.984 . S
H757 N744 0.985 . S
C758 C759 1.363 . S
C758 C764 1.379 1_545 S
C758 N766 1.356 . S
C759 C758 1.363 . S
C759 C765 1.363 1_455 S
C760 C761 1.363 1_655 S
C760 C765 1.379 1_565 S
C760 N767 1.356 . S
C761 C760 1.363 1_455 S
C761 C764 1.363 . S
N762 C764 1.356 . S
N762 H774 0.984 . S
N762 H775 0.985 . S
N763 C765 1.356 . S
N763 H768 0.984 . S
N763 H769 0.985 . S
C764 C758 1.379 1_565 S
C764 C761 1.363 . S
C764 N762 1.356 . S
C765 C759 1.363 1_655 S
C765 C760 1.379 1_545 S
C765 N763 1.356 . S
N766 C758 1.356 . S
N766 H772 0.984 . S
N766 H773 0.984 . S
N767 C760 1.356 . S
N767 H770 0.984 . S
N767 H771 0.985 . S
H768 N763 0.984 . S
H769 N763 0.985 . S
H770 N767 0.984 . S
H771 N767 0.985 . S
H772 N766 0.984 . S
H773 N766 0.984 . S
H774 N762 0.984 . S
H775 N762 0.985 . S
C273 C22 1.383 . S
C275 C124 1.383 . S
C291 C90 1.383 . S
C293 C49 1.383 . S
C309 C56 1.929 . S
C311 C83 1.929 . S
C327 C15 1.929 . S
C329 C117 1.929 . S
C345 C260 1.383 . S
C347 C158 1.383 . S
C363 C226 1.383 . S
C365 C185 1.383 . S
C381 C219 1.929 . S
C383 C192 1.929 . S
C399 C253 1.929 . S
C401 C151 1.929 . S
C417 C266 1.102 . S
C419 C6 1.116 . S
C435 C232 1.103 . S
C437 C62 1.116 . S
C453 C74 1.116 . S
C455 C176 1.102 . S
C471 C164 1.103 . S
C473 C108 1.116 . S
C489 C142 1.116 1_545 S
C491 C130 1.102 . S
C507 C96 1.103 . S
C509 C198 1.116 1_565 S
C525 C40 1.102 . S
C527 C210 1.116 1_565 S
C543 C28 1.103 . S
C545 C244 1.116 1_545 S
C561 C3 1.593 . S
C563 C187 1.658 . S
C579 C35 1.593 . S
C581 C153 1.658 . S
C597 C255 1.658 . S
C599 C71 1.593 . S
C615 C105 1.593 . S
C617 C221 1.658 . S
C633 C139 1.593 . S
C635 C51 1.658 . S
C651 C171 1.593 . S
C653 C17 1.658 . S
C669 C207 1.593 . S
C671 C119 1.658 . S
C687 C241 1.593 . S
C689 C85 1.658 . S
C705 C1 2.021 . S
C707 C69 2.021 . S
C723 C37 2.021 . S
C725 C103 2.021 . S
C741 C137 2.021 . S
C743 C205 2.021 . S
C759 C173 2.021 . S
C761 C239 2.021 . S
