# Generated by pormake.
# Topology ukm, (4)-cn, num edge types: 1
# Building blocks:
#     Node 0, Type 0, BuildingBlock: GALJAG_clean_sbu_0, # of connection points: 4
#     Node 1, Type 0, BuildingBlock: GALJAG_clean_sbu_0, # of connection points: 4
#     Node 2, Type 0, BuildingBlock: GALJAG_clean_sbu_0, # of connection points: 4
#     Node 3, Type 0, BuildingBlock: GALJAG_clean_sbu_0, # of connection points: 4
#     Node 4, Type 0, BuildingBlock: GALJAG_clean_sbu_0, # of connection points: 4
#     Node 5, Type 0, BuildingBlock: GALJAG_clean_sbu_0, # of connection points: 4
#     Node 6, Type 0, BuildingBlock: GALJAG_clean_sbu_0, # of connection points: 4
#     Node 7, Type 0, BuildingBlock: GALJAG_clean_sbu_0, # of connection points: 4
#     Node 8, Type 0, BuildingBlock: GALJAG_clean_sbu_0, # of connection points: 4
#     Node 9, Type 0, BuildingBlock: GALJAG_clean_sbu_0, # of connection points: 4
#     Node 10, Type 0, BuildingBlock: GALJAG_clean_sbu_0, # of connection points: 4
#     Node 11, Type 0, BuildingBlock: GALJAG_clean_sbu_0, # of connection points: 4
#     Node 12, Type 0, BuildingBlock: GALJAG_clean_sbu_0, # of connection points: 4
#     Node 13, Type 0, BuildingBlock: GALJAG_clean_sbu_0, # of connection points: 4
#     Node 14, Type 0, BuildingBlock: GALJAG_clean_sbu_0, # of connection points: 4
#     Node 15, Type 0, BuildingBlock: GALJAG_clean_sbu_0, # of connection points: 4
#     Node 16, Type 0, BuildingBlock: GALJAG_clean_sbu_0, # of connection points: 4
#     Node 17, Type 0, BuildingBlock: GALJAG_clean_sbu_0, # of connection points: 4
#     Node 18, Type 0, BuildingBlock: GALJAG_clean_sbu_0, # of connection points: 4
#     Node 19, Type 0, BuildingBlock: GALJAG_clean_sbu_0, # of connection points: 4
#     Node 20, Type 0, BuildingBlock: GALJAG_clean_sbu_0, # of connection points: 4
#     Node 21, Type 0, BuildingBlock: GALJAG_clean_sbu_0, # of connection points: 4
#     Node 22, Type 0, BuildingBlock: GALJAG_clean_sbu_0, # of connection points: 4
#     Node 23, Type 0, BuildingBlock: GALJAG_clean_sbu_0, # of connection points: 4
#     Node 24, Type 0, BuildingBlock: GALJAG_clean_sbu_0, # of connection points: 4
#     Node 25, Type 0, BuildingBlock: GALJAG_clean_sbu_0, # of connection points: 4
#     Node 26, Type 0, BuildingBlock: GALJAG_clean_sbu_0, # of connection points: 4
#     Node 27, Type 0, BuildingBlock: GALJAG_clean_sbu_0, # of connection points: 4
#     Node 28, Type 0, BuildingBlock: GALJAG_clean_sbu_0, # of connection points: 4
#     Node 29, Type 0, BuildingBlock: GALJAG_clean_sbu_0, # of connection points: 4
#     Node 30, Type 0, BuildingBlock: GALJAG_clean_sbu_0, # of connection points: 4
#     Node 31, Type 0, BuildingBlock: GALJAG_clean_sbu_0, # of connection points: 4
#     Edge 32, Type (0, 0), BuildingBlock: AJUNOK_clean_linker_0, # of connection points: 2
#     Edge 33, Type (0, 0), BuildingBlock: AJUNOK_clean_linker_0, # of connection points: 2
#     Edge 34, Type (0, 0), BuildingBlock: AJUNOK_clean_linker_0, # of connection points: 2
#     Edge 35, Type (0, 0), BuildingBlock: AJUNOK_clean_linker_0, # of connection points: 2
#     Edge 36, Type (0, 0), BuildingBlock: AJUNOK_clean_linker_0, # of connection points: 2
#     Edge 37, Type (0, 0), BuildingBlock: AJUNOK_clean_linker_0, # of connection points: 2
#     Edge 38, Type (0, 0), BuildingBlock: AJUNOK_clean_linker_0, # of connection points: 2
#     Edge 39, Type (0, 0), BuildingBlock: AJUNOK_clean_linker_0, # of connection points: 2
#     Edge 40, Type (0, 0), BuildingBlock: AJUNOK_clean_linker_0, # of connection points: 2
#     Edge 41, Type (0, 0), BuildingBlock: AJUNOK_clean_linker_0, # of connection points: 2
#     Edge 42, Type (0, 0), BuildingBlock: AJUNOK_clean_linker_0, # of connection points: 2
#     Edge 43, Type (0, 0), BuildingBlock: AJUNOK_clean_linker_0, # of connection points: 2
#     Edge 44, Type (0, 0), BuildingBlock: AJUNOK_clean_linker_0, # of connection points: 2
#     Edge 45, Type (0, 0), BuildingBlock: AJUNOK_clean_linker_0, # of connection points: 2
#     Edge 46, Type (0, 0), BuildingBlock: AJUNOK_clean_linker_0, # of connection points: 2
#     Edge 47, Type (0, 0), BuildingBlock: AJUNOK_clean_linker_0, # of connection points: 2
#     Edge 48, Type (0, 0), BuildingBlock: AJUNOK_clean_linker_0, # of connection points: 2
#     Edge 49, Type (0, 0), BuildingBlock: AJUNOK_clean_linker_0, # of connection points: 2
#     Edge 50, Type (0, 0), BuildingBlock: AJUNOK_clean_linker_0, # of connection points: 2
#     Edge 51, Type (0, 0), BuildingBlock: AJUNOK_clean_linker_0, # of connection points: 2
#     Edge 52, Type (0, 0), BuildingBlock: AJUNOK_clean_linker_0, # of connection points: 2
#     Edge 53, Type (0, 0), BuildingBlock: AJUNOK_clean_linker_0, # of connection points: 2
#     Edge 54, Type (0, 0), BuildingBlock: AJUNOK_clean_linker_0, # of connection points: 2
#     Edge 55, Type (0, 0), BuildingBlock: AJUNOK_clean_linker_0, # of connection points: 2
#     Edge 56, Type (0, 0), BuildingBlock: AJUNOK_clean_linker_0, # of connection points: 2
#     Edge 57, Type (0, 0), BuildingBlock: AJUNOK_clean_linker_0, # of connection points: 2
#     Edge 58, Type (0, 0), BuildingBlock: AJUNOK_clean_linker_0, # of connection points: 2
#     Edge 59, Type (0, 0), BuildingBlock: AJUNOK_clean_linker_0, # of connection points: 2
#     Edge 60, Type (0, 0), BuildingBlock: AJUNOK_clean_linker_0, # of connection points: 2
#     Edge 61, Type (0, 0), BuildingBlock: AJUNOK_clean_linker_0, # of connection points: 2
#     Edge 62, Type (0, 0), BuildingBlock: AJUNOK_clean_linker_0, # of connection points: 2
#     Edge 63, Type (0, 0), BuildingBlock: AJUNOK_clean_linker_0, # of connection points: 2
#     Edge 64, Type (0, 0), BuildingBlock: AJUNOK_clean_linker_0, # of connection points: 2
#     Edge 65, Type (0, 0), BuildingBlock: AJUNOK_clean_linker_0, # of connection points: 2
#     Edge 66, Type (0, 0), BuildingBlock: AJUNOK_clean_linker_0, # of connection points: 2
#     Edge 67, Type (0, 0), BuildingBlock: AJUNOK_clean_linker_0, # of connection points: 2
#     Edge 68, Type (0, 0), BuildingBlock: AJUNOK_clean_linker_0, # of connection points: 2
#     Edge 69, Type (0, 0), BuildingBlock: AJUNOK_clean_linker_0, # of connection points: 2
#     Edge 70, Type (0, 0), BuildingBlock: AJUNOK_clean_linker_0, # of connection points: 2
#     Edge 71, Type (0, 0), BuildingBlock: AJUNOK_clean_linker_0, # of connection points: 2
#     Edge 72, Type (0, 0), BuildingBlock: AJUNOK_clean_linker_0, # of connection points: 2
#     Edge 73, Type (0, 0), BuildingBlock: AJUNOK_clean_linker_0, # of connection points: 2
#     Edge 74, Type (0, 0), BuildingBlock: AJUNOK_clean_linker_0, # of connection points: 2
#     Edge 75, Type (0, 0), BuildingBlock: AJUNOK_clean_linker_0, # of connection points: 2
#     Edge 76, Type (0, 0), BuildingBlock: AJUNOK_clean_linker_0, # of connection points: 2
#     Edge 77, Type (0, 0), BuildingBlock: AJUNOK_clean_linker_0, # of connection points: 2
#     Edge 78, Type (0, 0), BuildingBlock: AJUNOK_clean_linker_0, # of connection points: 2
#     Edge 79, Type (0, 0), BuildingBlock: AJUNOK_clean_linker_0, # of connection points: 2
#     Edge 80, Type (0, 0), BuildingBlock: AJUNOK_clean_linker_0, # of connection points: 2
#     Edge 81, Type (0, 0), BuildingBlock: AJUNOK_clean_linker_0, # of connection points: 2
#     Edge 82, Type (0, 0), BuildingBlock: AJUNOK_clean_linker_0, # of connection points: 2
#     Edge 83, Type (0, 0), BuildingBlock: AJUNOK_clean_linker_0, # of connection points: 2
#     Edge 84, Type (0, 0), BuildingBlock: AJUNOK_clean_linker_0, # of connection points: 2
#     Edge 85, Type (0, 0), BuildingBlock: AJUNOK_clean_linker_0, # of connection points: 2
#     Edge 86, Type (0, 0), BuildingBlock: AJUNOK_clean_linker_0, # of connection points: 2
#     Edge 87, Type (0, 0), BuildingBlock: AJUNOK_clean_linker_0, # of connection points: 2
#     Edge 88, Type (0, 0), BuildingBlock: AJUNOK_clean_linker_0, # of connection points: 2
#     Edge 89, Type (0, 0), BuildingBlock: AJUNOK_clean_linker_0, # of connection points: 2
#     Edge 90, Type (0, 0), BuildingBlock: AJUNOK_clean_linker_0, # of connection points: 2
#     Edge 91, Type (0, 0), BuildingBlock: AJUNOK_clean_linker_0, # of connection points: 2
#     Edge 92, Type (0, 0), BuildingBlock: AJUNOK_clean_linker_0, # of connection points: 2
#     Edge 93, Type (0, 0), BuildingBlock: AJUNOK_clean_linker_0, # of connection points: 2
#     Edge 94, Type (0, 0), BuildingBlock: AJUNOK_clean_linker_0, # of connection points: 2
#     Edge 95, Type (0, 0), BuildingBlock: AJUNOK_clean_linker_0, # of connection points: 2
# Relax obj value: 0.098
# Max RMSD: 0.122
# Mean RMSD: 0.122
data_MOF--net-ukm--node1-GALJAG_clean_sbu_0--edge1-AJUNOK_clean_linker_0
_symmetry_space_group_name_H-M    P1
_symmetry_Int_Tables_number       1
_symmetry_cell_setting            triclinic
loop_
_symmetry_equiv_pos_as_xyz
'x, y, z'
_cell_length_a     18.546047
_cell_length_b     75.426452
_cell_length_c     33.393434
_cell_angle_alpha  90.040386
_cell_angle_beta   90.020031
_cell_angle_gamma 90.000635
loop_
_atom_site_label
_atom_site_type_symbol
_atom_site_fract_x
_atom_site_fract_y
_atom_site_fract_z
_atom_type_partial_charge
In0 In 0.12431 0.31534 0.28367 0.0
O1 O 0.0592 0.32777 0.33493 0.0
O2 O 0.09956 0.34469 0.28944 0.0
C3 C 0.06682 0.28279 0.27164 0.0
C4 C 0.24638 0.31183 0.32688 0.0
C5 C 0.13118 0.32501 0.20662 0.0
O6 O 0.029 0.29591 0.28223 0.0
O7 O 0.13322 0.28602 0.26909 0.0
O8 O 0.18672 0.3232 0.22814 0.0
O9 O 0.0721 0.32231 0.22443 0.0
C10 C 0.06556 0.34341 0.32192 0.0
O11 O 0.24651 0.31613 0.29037 0.0
O12 O 0.18463 0.30905 0.34142 0.0
In13 In 0.12364 0.93215 0.27993 0.0
O14 O 0.00211 0.93009 0.28872 0.0
O15 O 0.06407 0.94107 0.33611 0.0
C16 C 0.12089 0.92082 0.20408 0.0
C17 C 0.18502 0.90503 0.32024 0.0
C18 C 0.17704 0.96462 0.26264 0.0
O19 O 0.06399 0.92337 0.22412 0.0
O20 O 0.17897 0.92363 0.22281 0.0
O21 O 0.21553 0.95255 0.27791 0.0
O22 O 0.11185 0.96046 0.25805 0.0
C23 C 0.0025 0.93668 0.32345 0.0
O24 O 0.19199 0.92093 0.33149 0.0
O25 O 0.14846 0.90302 0.2888 0.0
In26 In 0.11798 0.93207 0.95615 0.0
O27 O 0.05511 0.92113 0.90215 0.0
O28 O 0.08331 0.90341 0.94887 0.0
C29 C 0.06703 0.96503 0.97124 0.0
C30 C 0.24489 0.93535 0.91717 0.0
C31 C 0.11701 0.92088 0.03214 0.0
O32 O 0.02801 0.953 0.95624 0.0
O33 O 0.13176 0.96061 0.97644 0.0
O34 O 0.1738 0.92124 0.01125 0.0
O35 O 0.06046 0.92577 0.01413 0.0
C36 C 0.05363 0.90544 0.91531 0.0
O37 O 0.24025 0.92998 0.95281 0.0
O38 O 0.18523 0.93905 0.90099 0.0
In39 In 0.13794 0.31716 0.95648 0.0
O40 O 0.01551 0.31748 0.9504 0.0
O41 O 0.07731 0.3115 0.89855 0.0
C42 C 0.13872 0.32622 0.03403 0.0
C43 C 0.19475 0.34567 0.91912 0.0
C44 C 0.19132 0.28407 0.96668 0.0
O45 O 0.08116 0.32489 0.01399 0.0
O46 O 0.19585 0.32338 0.0145 0.0
O47 O 0.23045 0.29686 0.95543 0.0
O48 O 0.12571 0.28793 0.97077 0.0
C49 C 0.01552 0.31373 0.91356 0.0
O50 O 0.20728 0.33002 0.9075 0.0
O51 O 0.15585 0.34673 0.94994 0.0
In52 In 0.88147 0.68031 0.71154 0.0
O53 O 0.76009 0.67901 0.70184 0.0
O54 O 0.82503 0.68537 0.65157 0.0
C55 C 0.87237 0.67186 0.78931 0.0
C56 C 0.9438 0.65133 0.67896 0.0
C57 C 0.93956 0.71294 0.72233 0.0
O58 O 0.81735 0.67474 0.768 0.0
O59 O 0.93178 0.67303 0.77108 0.0
O60 O 0.97658 0.69973 0.7116 0.0
O61 O 0.87308 0.70986 0.72541 0.0
C62 C 0.7624 0.6826 0.665 0.0
O63 O 0.95703 0.66679 0.66633 0.0
O64 O 0.90031 0.65073 0.70789 0.0
In65 In 0.87015 0.06911 0.71406 0.0
O66 O 0.79448 0.08183 0.66763 0.0
O67 O 0.8474 0.09848 0.70959 0.0
C68 C 0.81858 0.03587 0.72494 0.0
C69 C 0.9927 0.06708 0.67044 0.0
C70 C 0.87321 0.07767 0.79185 0.0
O71 O 0.77902 0.04849 0.71333 0.0
O72 O 0.88407 0.03988 0.72879 0.0
O73 O 0.92985 0.07604 0.77119 0.0
O74 O 0.81513 0.07527 0.77291 0.0
C75 C 0.80493 0.09743 0.68026 0.0
O76 O 0.99167 0.07145 0.70687 0.0
O77 O 0.93144 0.0637 0.65572 0.0
In78 In 0.88598 0.06404 0.04008 0.0
O79 O 0.76356 0.06407 0.0436 0.0
O80 O 0.82153 0.05736 0.09628 0.0
C81 C 0.88238 0.07495 0.96394 0.0
C82 C 0.94174 0.09184 0.08061 0.0
C83 C 0.9453 0.0318 0.0269 0.0
O84 O 0.82623 0.07342 0.98504 0.0
O85 O 0.94067 0.0713 0.98173 0.0
O86 O 0.98147 0.04471 0.04019 0.0
O87 O 0.87923 0.03501 0.02224 0.0
C88 C 0.76088 0.05982 0.08007 0.0
O89 O 0.94727 0.07612 0.09321 0.0
O90 O 0.91069 0.0933 0.04727 0.0
In91 In 0.8542 0.68427 0.03778 0.0
O92 O 0.97679 0.68389 0.03776 0.0
O93 O 0.92441 0.68949 0.09285 0.0
C94 C 0.85681 0.67329 0.9615 0.0
C95 C 0.79515 0.65738 0.07997 0.0
C96 C 0.79636 0.71683 0.02616 0.0
O97 O 0.91234 0.6735 0.98339 0.0
O98 O 0.7994 0.67816 0.97865 0.0
O99 O 0.75943 0.70377 0.03783 0.0
O100 O 0.86264 0.71363 0.02253 0.0
C101 C 0.98329 0.68732 0.07453 0.0
O102 O 0.79932 0.67295 0.09364 0.0
O103 O 0.81837 0.65562 0.04479 0.0
In104 In 0.11028 0.81402 0.78496 0.0
O105 O 0.0397 0.82677 0.83365 0.0
O106 O 0.08882 0.84344 0.79035 0.0
C107 C 0.05852 0.78085 0.77334 0.0
C108 C 0.23245 0.81158 0.82847 0.0
C109 C 0.11158 0.82366 0.70792 0.0
O110 O 0.01882 0.79344 0.78507 0.0
O111 O 0.12402 0.78488 0.76965 0.0
O112 O 0.16859 0.8222 0.72838 0.0
O113 O 0.05393 0.8205 0.72672 0.0
C114 C 0.05023 0.8424 0.82127 0.0
O115 O 0.23234 0.81508 0.79153 0.0
O116 O 0.1708 0.80898 0.84336 0.0
In117 In 0.12745 0.43574 0.78487 0.0
O118 O 0.19345 0.42437 0.83719 0.0
O119 O 0.1595 0.40683 0.79126 0.0
C120 C 0.1774 0.46888 0.77057 0.0
C121 C 0.0042 0.43832 0.82739 0.0
C122 C 0.12466 0.42535 0.70824 0.0
O123 O 0.21741 0.45671 0.78409 0.0
O124 O 0.1124 0.46447 0.76635 0.0
O125 O 0.06822 0.42655 0.72927 0.0
O126 O 0.18262 0.42899 0.7264 0.0
C127 C 0.19167 0.40865 0.82419 0.0
O128 O 0.00575 0.43293 0.79164 0.0
O129 O 0.06484 0.44261 0.84154 0.0
In130 In 0.12306 0.43409 0.4587 0.0
O131 O 0.24553 0.43301 0.45502 0.0
O132 O 0.1886 0.44118 0.40305 0.0
C133 C 0.1219 0.42426 0.53577 0.0
C134 C 0.06794 0.4062 0.41817 0.0
C135 C 0.06254 0.46635 0.47013 0.0
O136 O 0.17961 0.42667 0.51643 0.0
O137 O 0.0648 0.42639 0.51574 0.0
O138 O 0.02739 0.4533 0.45675 0.0
O139 O 0.12852 0.46329 0.47574 0.0
C140 C 0.24889 0.43795 0.41901 0.0
O141 O 0.06 0.42198 0.40634 0.0
O142 O 0.10169 0.40467 0.45072 0.0
In143 In 0.13567 0.81547 0.45892 0.0
O144 O 0.20089 0.82736 0.4071 0.0
O145 O 0.15895 0.8448 0.45113 0.0
C146 C 0.19435 0.78312 0.47198 0.0
C147 C 0.01187 0.812 0.41777 0.0
C148 C 0.12528 0.82517 0.5358 0.0
O149 O 0.23212 0.79683 0.46659 0.0
O150 O 0.12758 0.78556 0.46815 0.0
O151 O 0.07074 0.82274 0.51386 0.0
O152 O 0.18522 0.82315 0.51845 0.0
C153 C 0.19307 0.84318 0.41875 0.0
O154 O 0.01386 0.81608 0.45439 0.0
O155 O 0.07277 0.80948 0.40179 0.0
In156 In 0.87542 0.18372 0.21175 0.0
O157 O 0.94123 0.17077 0.16146 0.0
O158 O 0.89548 0.15418 0.20608 0.0
C159 C 0.93734 0.21586 0.22258 0.0
C160 C 0.75226 0.18767 0.16934 0.0
C161 C 0.87434 0.1739 0.28891 0.0
O162 O 0.97209 0.20256 0.2102 0.0
O163 O 0.87095 0.21311 0.22749 0.0
O164 O 0.81705 0.17623 0.26907 0.0
O165 O 0.93186 0.17632 0.26947 0.0
C166 C 0.93227 0.1552 0.17449 0.0
O167 O 0.7529 0.18383 0.2061 0.0
O168 O 0.81389 0.18972 0.15402 0.0
In169 In 0.87428 0.56623 0.21111 0.0
O170 O 0.99689 0.5668 0.2058 0.0
O171 O 0.93685 0.56099 0.15332 0.0
C172 C 0.87 0.57547 0.28869 0.0
C173 C 0.81459 0.59454 0.17452 0.0
C174 C 0.81727 0.53348 0.22027 0.0
O175 O 0.92846 0.57407 0.26951 0.0
O176 O 0.81391 0.57252 0.26835 0.0
O177 O 0.78154 0.54637 0.20663 0.0
O178 O 0.88251 0.53694 0.22734 0.0
C179 C 0.99817 0.56328 0.16888 0.0
O180 O 0.80302 0.57887 0.16283 0.0
O181 O 0.85515 0.59575 0.20467 0.0
In182 In 0.88095 0.56557 0.53801 0.0
O183 O 0.93424 0.57385 0.59695 0.0
O184 O 0.93987 0.59164 0.54793 0.0
C185 C 0.93476 0.53296 0.52258 0.0
C186 C 0.75342 0.56506 0.57711 0.0
C187 C 0.87234 0.57614 0.46133 0.0
O188 O 0.97136 0.54479 0.54011 0.0
O189 O 0.87092 0.53743 0.51471 0.0
O190 O 0.81717 0.5731 0.48236 0.0
O191 O 0.9315 0.5744 0.47955 0.0
C192 C 0.95403 0.58885 0.58427 0.0
O193 O 0.77408 0.57813 0.55651 0.0
O194 O 0.79703 0.55222 0.57793 0.0
In195 In 0.86211 0.1822 0.5382 0.0
O196 O 0.80735 0.1744 0.597 0.0
O197 O 0.80179 0.15636 0.54842 0.0
C198 C 0.81348 0.21529 0.52307 0.0
C199 C 0.98953 0.18165 0.5774 0.0
C200 C 0.86822 0.17179 0.46135 0.0
O201 O 0.77447 0.20367 0.53966 0.0
O202 O 0.87706 0.21036 0.51601 0.0
O203 O 0.92401 0.17404 0.4824 0.0
O204 O 0.80953 0.17423 0.47961 0.0
C205 C 0.7874 0.15935 0.58465 0.0
O206 O 0.96774 0.16889 0.55615 0.0
O207 O 0.94747 0.1948 0.57848 0.0
In208 In 0.62112 0.31507 0.78375 0.0
O209 O 0.74298 0.3171 0.78774 0.0
O210 O 0.68738 0.30838 0.83966 0.0
C211 C 0.6286 0.32499 0.70684 0.0
C212 C 0.5615 0.34268 0.82362 0.0
C213 C 0.56206 0.28265 0.7711 0.0
O214 O 0.6838 0.32287 0.72842 0.0
O215 O 0.56923 0.32249 0.72452 0.0
O216 O 0.52528 0.29582 0.78229 0.0
O217 O 0.62863 0.28566 0.76844 0.0
C218 C 0.74719 0.31211 0.82366 0.0
O219 O 0.55895 0.32701 0.83677 0.0
O220 O 0.59194 0.3442 0.79011 0.0
In221 In 0.63848 0.93578 0.78663 0.0
O222 O 0.51604 0.93477 0.79204 0.0
O223 O 0.5761 0.94095 0.84437 0.0
C224 C 0.63464 0.92651 0.70926 0.0
C225 C 0.69671 0.90745 0.82398 0.0
C226 C 0.69779 0.96827 0.77613 0.0
O227 O 0.57813 0.92889 0.72969 0.0
O228 O 0.69295 0.92848 0.72828 0.0
O229 O 0.73431 0.95498 0.78688 0.0
O230 O 0.63121 0.96533 0.77296 0.0
C231 C 0.5149 0.93827 0.82897 0.0
O232 O 0.70265 0.923 0.83771 0.0
O233 O 0.6632 0.90639 0.79127 0.0
In234 In 0.61615 0.93539 0.45931 0.0
O235 O 0.73815 0.93744 0.45431 0.0
O236 O 0.67709 0.93998 0.4008 0.0
C237 C 0.62289 0.92632 0.53677 0.0
C238 C 0.56324 0.90609 0.42302 0.0
C239 C 0.55286 0.96752 0.46873 0.0
O240 O 0.67837 0.92788 0.51515 0.0
O241 O 0.56386 0.92899 0.5189 0.0
O242 O 0.51764 0.95385 0.4591 0.0
O243 O 0.61985 0.9651 0.47143 0.0
C244 C 0.73869 0.93961 0.41687 0.0
O245 O 0.55101 0.92151 0.40991 0.0
O246 O 0.60015 0.90563 0.45466 0.0
In247 In 0.6393 0.31546 0.45753 0.0
O248 O 0.51695 0.31633 0.45394 0.0
O249 O 0.57399 0.30893 0.4014 0.0
C250 C 0.63933 0.32547 0.53449 0.0
C251 C 0.69651 0.34319 0.41737 0.0
C252 C 0.69642 0.28288 0.46945 0.0
O253 O 0.58204 0.32389 0.51433 0.0
O254 O 0.69671 0.32243 0.51531 0.0
O255 O 0.73352 0.29577 0.45694 0.0
O256 O 0.63044 0.28628 0.47385 0.0
C257 C 0.51364 0.31178 0.41765 0.0
O258 O 0.70372 0.32739 0.40545 0.0
O259 O 0.66255 0.34479 0.44982 0.0
In260 In 0.38638 0.6871 0.19666 0.0
O261 O 0.26486 0.6822 0.19285 0.0
O262 O 0.31741 0.69278 0.14174 0.0
C263 C 0.37468 0.68279 0.27596 0.0
C264 C 0.44804 0.65943 0.15873 0.0
C265 C 0.45783 0.71815 0.2037 0.0
O266 O 0.3403 0.69453 0.25706 0.0
O267 O 0.41239 0.67255 0.25467 0.0
O268 O 0.48963 0.70339 0.20596 0.0
O269 O 0.39214 0.71711 0.19455 0.0
C270 C 0.25915 0.6876 0.15724 0.0
O271 O 0.45267 0.67509 0.14546 0.0
O272 O 0.41453 0.65798 0.19141 0.0
In273 In 0.35738 0.06434 0.19969 0.0
O274 O 0.47991 0.06434 0.19969 0.0
O275 O 0.42702 0.05807 0.14509 0.0
C276 C 0.35341 0.07457 0.27642 0.0
C277 C 0.30375 0.09221 0.15849 0.0
C278 C 0.29921 0.03177 0.20991 0.0
O279 O 0.41136 0.07361 0.25667 0.0
O280 O 0.29708 0.07075 0.25696 0.0
O281 O 0.26305 0.0447 0.19675 0.0
O282 O 0.36476 0.03515 0.21598 0.0
C283 C 0.48607 0.06023 0.16326 0.0
O284 O 0.29826 0.07648 0.1459 0.0
O285 O 0.33399 0.09367 0.19209 0.0
In286 In 0.37233 0.06818 0.52677 0.0
O287 O 0.25089 0.06916 0.53674 0.0
O288 O 0.31701 0.06394 0.58726 0.0
C289 C 0.36235 0.07631 0.44885 0.0
C290 C 0.43751 0.09708 0.55835 0.0
C291 C 0.42666 0.0351 0.51659 0.0
O292 O 0.30762 0.07471 0.47102 0.0
O293 O 0.42203 0.07414 0.46637 0.0
O294 O 0.46551 0.04812 0.52655 0.0
O295 O 0.36052 0.03864 0.51396 0.0
C296 C 0.254 0.06619 0.57385 0.0
O297 O 0.45081 0.08159 0.57074 0.0
O298 O 0.39242 0.09777 0.53017 0.0
In299 In 0.3738 0.68337 0.52835 0.0
O300 O 0.49579 0.67957 0.53328 0.0
O301 O 0.43864 0.68644 0.58608 0.0
C302 C 0.38809 0.68099 0.44857 0.0
C303 C 0.30715 0.6547 0.55941 0.0
C304 C 0.30659 0.71514 0.52577 0.0
O305 O 0.42114 0.69237 0.46922 0.0
O306 O 0.35034 0.67019 0.46828 0.0
O307 O 0.27433 0.70085 0.51757 0.0
O308 O 0.3699 0.71309 0.53855 0.0
C309 C 0.49879 0.68302 0.57021 0.0
O310 O 0.29268 0.67026 0.57119 0.0
O311 O 0.35381 0.6539 0.532 0.0
In312 In 0.62562 0.81709 0.28233 0.0
O313 O 0.55921 0.82763 0.33523 0.0
O314 O 0.59977 0.84611 0.29291 0.0
C315 C 0.57365 0.78442 0.26548 0.0
C316 C 0.74703 0.81324 0.32538 0.0
C317 C 0.63053 0.8285 0.20659 0.0
O318 O 0.53308 0.79714 0.27545 0.0
O319 O 0.63987 0.78803 0.26607 0.0
O320 O 0.68674 0.82616 0.22733 0.0
O321 O 0.57194 0.82555 0.22469 0.0
C322 C 0.56587 0.84368 0.32511 0.0
O323 O 0.74736 0.81872 0.28965 0.0
O324 O 0.68548 0.80948 0.33907 0.0
In325 In 0.63582 0.43357 0.28303 0.0
O326 O 0.51385 0.43269 0.29078 0.0
O327 O 0.57687 0.44013 0.34116 0.0
C328 C 0.6263 0.4237 0.20617 0.0
C329 C 0.69713 0.40579 0.32109 0.0
C330 C 0.69197 0.46613 0.26941 0.0
O331 O 0.57163 0.42521 0.22847 0.0
O332 O 0.68596 0.42668 0.22319 0.0
O333 O 0.73034 0.45327 0.28092 0.0
O334 O 0.62575 0.46268 0.26693 0.0
C335 C 0.5148 0.43722 0.32714 0.0
O336 O 0.70248 0.42147 0.33404 0.0
O337 O 0.66281 0.40432 0.28873 0.0
In338 In 0.60974 0.43441 0.95673 0.0
O339 O 0.54871 0.42159 0.90433 0.0
O340 O 0.5852 0.40501 0.95144 0.0
C341 C 0.55076 0.46702 0.96641 0.0
C342 C 0.7356 0.43798 0.91697 0.0
C343 C 0.61145 0.42464 0.03384 0.0
O344 O 0.51431 0.45381 0.95498 0.0
O345 O 0.61688 0.46387 0.97106 0.0
O346 O 0.66821 0.42599 0.01315 0.0
O347 O 0.55367 0.42791 0.01522 0.0
C348 C 0.55379 0.40604 0.91811 0.0
O349 O 0.73235 0.43477 0.95398 0.0
O350 O 0.67515 0.43955 0.89997 0.0
In351 In 0.62644 0.81719 0.95842 0.0
O352 O 0.50403 0.81834 0.95494 0.0
O353 O 0.56077 0.8109 0.9023 0.0
C354 C 0.63144 0.8281 0.03462 0.0
C355 C 0.68681 0.84445 0.91829 0.0
C356 C 0.67722 0.78411 0.97204 0.0
O357 O 0.57303 0.82699 0.01527 0.0
O358 O 0.68729 0.82402 0.01508 0.0
O359 O 0.71663 0.7963 0.95809 0.0
O360 O 0.61236 0.78847 0.977 0.0
C361 C 0.50051 0.81377 0.91866 0.0
O362 O 0.69396 0.82858 0.90679 0.0
O363 O 0.65082 0.84631 0.94997 0.0
In364 In 0.39106 0.18252 0.70098 0.0
O365 O 0.44119 0.17461 0.64092 0.0
O366 O 0.45044 0.15664 0.68942 0.0
C367 C 0.44188 0.2155 0.71605 0.0
C368 C 0.26227 0.18194 0.66328 0.0
C369 C 0.38649 0.1719 0.77773 0.0
O370 O 0.48039 0.20366 0.69989 0.0
O371 O 0.37778 0.21085 0.72263 0.0
O372 O 0.33027 0.17501 0.75759 0.0
O373 O 0.44469 0.17361 0.7586 0.0
C374 C 0.46172 0.15953 0.65282 0.0
O375 O 0.28444 0.16929 0.68471 0.0
O376 O 0.30453 0.19503 0.66137 0.0
In377 In 0.35269 0.56866 0.70126 0.0
O378 O 0.30368 0.57713 0.64133 0.0
O379 O 0.29501 0.59489 0.69028 0.0
C380 C 0.29507 0.53643 0.71676 0.0
C381 C 0.48079 0.56668 0.66301 0.0
C382 C 0.36335 0.57969 0.77765 0.0
O383 O 0.26005 0.54847 0.69899 0.0
O384 O 0.35921 0.54051 0.72501 0.0
O385 O 0.41785 0.5768 0.75599 0.0
O386 O 0.30362 0.57757 0.76021 0.0
C387 C 0.28368 0.59219 0.65358 0.0
O388 O 0.46093 0.58028 0.68208 0.0
O389 O 0.43611 0.55406 0.66328 0.0
In390 In 0.37912 0.5684 0.02694 0.0
O391 O 0.25718 0.56928 0.03615 0.0
O392 O 0.32234 0.56211 0.08583 0.0
C393 C 0.37671 0.57857 0.95001 0.0
C394 C 0.44047 0.59637 0.06432 0.0
C395 C 0.43096 0.53535 0.01368 0.0
O396 O 0.31992 0.57689 0.97061 0.0
O397 O 0.43456 0.57541 0.96865 0.0
O398 O 0.47036 0.54778 0.02655 0.0
O399 O 0.36568 0.53949 0.00933 0.0
C400 C 0.25965 0.56493 0.07261 0.0
O401 O 0.45233 0.58059 0.0752 0.0
O402 O 0.39969 0.59783 0.03434 0.0
In403 In 0.37172 0.18371 0.02716 0.0
O404 O 0.49386 0.18356 0.03597 0.0
O405 O 0.42852 0.19007 0.08601 0.0
C406 C 0.37767 0.17375 0.95015 0.0
C407 C 0.31206 0.15538 0.06388 0.0
C408 C 0.31264 0.21607 0.01475 0.0
O409 O 0.43355 0.17548 0.97148 0.0
O410 O 0.31897 0.17679 0.96806 0.0
O411 O 0.27626 0.20296 0.02677 0.0
O412 O 0.37902 0.21299 0.01083 0.0
C413 C 0.49132 0.18764 0.0726 0.0
O414 O 0.30296 0.171 0.07657 0.0
O415 O 0.34982 0.15422 0.03268 0.0
C416 C 0.05012 0.37359 0.41138 0.0
C417 C 0.04909 0.39053 0.39368 0.0
C418 C 0.04856 0.35819 0.38791 0.0
C419 C 0.04712 0.35922 0.34591 0.0
H420 H 0.05609 0.3722 0.44349 0.0
H421 H 0.05407 0.34548 0.40269 0.0
S422 S 0.03161 0.4002 0.28521 0.0
N423 N 0.03647 0.40732 0.33191 0.0
N424 N 0.03504 0.37835 0.28776 0.0
C425 C 0.03993 0.37599 0.32801 0.0
C426 C 0.04045 0.39168 0.35194 0.0
C427 C 0.20595 0.89108 0.38679 0.0
C428 C 0.20683 0.88969 0.34485 0.0
C429 C 0.20732 0.87586 0.41086 0.0
C430 C 0.21076 0.85879 0.39381 0.0
H431 H 0.1984 0.90385 0.40105 0.0
H432 H 0.20133 0.87745 0.44293 0.0
S433 S 0.22876 0.84843 0.28566 0.0
N434 N 0.22156 0.87024 0.2874 0.0
N435 N 0.22568 0.84164 0.33264 0.0
C436 C 0.21926 0.85739 0.3521 0.0
C437 C 0.21677 0.87287 0.32759 0.0
C438 C 0.03939 0.89078 0.84902 0.0
C439 C 0.03163 0.89007 0.89081 0.0
C440 C 0.0391 0.87523 0.82606 0.0
C441 C 0.03015 0.85848 0.84406 0.0
H442 H 0.05174 0.90321 0.83432 0.0
H443 H 0.05067 0.87627 0.79435 0.0
S444 S 0.99118 0.85006 0.95128 0.0
N445 N 0.00296 0.87173 0.94848 0.0
N446 N 0.00121 0.84249 0.9052 0.0
C447 C 0.01409 0.85783 0.88514 0.0
C448 C 0.01527 0.87366 0.9086 0.0
C449 C 0.20689 0.39398 0.89042 0.0
C450 C 0.21266 0.39313 0.84852 0.0
C451 C 0.20682 0.37849 0.91357 0.0
C452 C 0.21368 0.36166 0.89568 0.0
H453 H 0.19656 0.40653 0.90516 0.0
H454 H 0.19706 0.37966 0.94545 0.0
S455 S 0.2449 0.3527 0.78786 0.0
N456 N 0.23564 0.37444 0.7906 0.0
N457 N 0.23705 0.34533 0.83421 0.0
C458 C 0.22709 0.36081 0.85431 0.0
C459 C 0.22607 0.37657 0.83066 0.0
C460 C 0.95141 0.60293 0.65146 0.0
C461 C 0.97453 0.60348 0.61143 0.0
C462 C 0.9477 0.61842 0.67445 0.0
C463 C 0.96754 0.63496 0.65833 0.0
H464 H 0.92983 0.5908 0.66405 0.0
H465 H 0.9242 0.61756 0.70408 0.0
S466 S 0.05131 0.64247 0.55895 0.0
N467 N 0.03148 0.62111 0.55937 0.0
N468 N 0.02542 0.65028 0.60288 0.0
C469 C 0.99969 0.63526 0.62023 0.0
C470 C 0.00293 0.61948 0.59665 0.0
C471 C 0.79689 0.13028 0.67532 0.0
C472 C 0.77902 0.11355 0.65944 0.0
C473 C 0.79107 0.14566 0.65215 0.0
C474 C 0.7677 0.14481 0.61218 0.0
H475 H 0.82058 0.13141 0.70486 0.0
H476 H 0.81145 0.15797 0.66452 0.0
S477 S 0.69464 0.10514 0.56053 0.0
N478 N 0.72214 0.09765 0.60443 0.0
N479 N 0.71195 0.12663 0.56061 0.0
C480 C 0.74086 0.12858 0.59774 0.0
C481 C 0.74636 0.11289 0.62148 0.0
C482 C 0.9577 0.13999 0.10983 0.0
C483 C 0.95315 0.13922 0.15177 0.0
C484 C 0.95978 0.12444 0.0869 0.0
C485 C 0.95852 0.10762 0.10518 0.0
H486 H 0.9542 0.1526 0.09444 0.0
H487 H 0.95818 0.12561 0.05458 0.0
S488 S 0.96107 0.09866 0.21436 0.0
N489 N 0.9576 0.12048 0.21093 0.0
N490 N 0.96282 0.09123 0.16784 0.0
C491 C 0.96139 0.10674 0.14718 0.0
C492 C 0.95823 0.12257 0.17051 0.0
C493 C 0.80108 0.6273 0.16952 0.0
C494 C 0.79101 0.61045 0.15223 0.0
C495 C 0.79504 0.64276 0.14659 0.0
C496 C 0.77969 0.64187 0.10545 0.0
H497 H 0.81786 0.62854 0.20047 0.0
H498 H 0.80823 0.65532 0.16054 0.0
S499 S 0.73394 0.60139 0.04772 0.0
N500 N 0.75332 0.59404 0.09305 0.0
N501 N 0.74337 0.62315 0.04972 0.0
C502 C 0.76263 0.62529 0.08869 0.0
C503 C 0.76788 0.60954 0.11219 0.0
C504 C 0.53902 0.39082 0.85239 0.0
C505 C 0.53668 0.39004 0.89439 0.0
C506 C 0.54163 0.37529 0.82938 0.0
C507 C 0.54107 0.35844 0.84755 0.0
H508 H 0.54433 0.40346 0.83727 0.0
H509 H 0.54825 0.37653 0.79728 0.0
S510 S 0.52038 0.34936 0.95611 0.0
N511 N 0.52332 0.3712 0.95296 0.0
N512 N 0.52703 0.34198 0.90969 0.0
C513 C 0.5313 0.35752 0.88924 0.0
C514 C 0.5295 0.37334 0.9127 0.0
C515 C 0.70967 0.87685 0.91253 0.0
C516 C 0.70907 0.85999 0.89438 0.0
C517 C 0.71292 0.89233 0.88951 0.0
C518 C 0.71456 0.89148 0.84751 0.0
H519 H 0.70327 0.87813 0.94465 0.0
H520 H 0.70824 0.905 0.90463 0.0
S521 S 0.72794 0.8507 0.78584 0.0
N522 N 0.72155 0.84339 0.83231 0.0
N523 N 0.72629 0.87255 0.78892 0.0
C524 C 0.72088 0.87476 0.8292 0.0
C525 C 0.71859 0.85897 0.85271 0.0
C526 C 0.53605 0.8756 0.33458 0.0
C527 C 0.54701 0.85872 0.35143 0.0
C528 C 0.53501 0.89087 0.35853 0.0
C529 C 0.54645 0.8898 0.40009 0.0
H530 H 0.53195 0.87711 0.30239 0.0
H531 H 0.53037 0.90365 0.34398 0.0
S532 S 0.56913 0.84855 0.45934 0.0
N533 N 0.56203 0.84166 0.41256 0.0
N534 N 0.5615 0.87035 0.45759 0.0
C535 C 0.55223 0.87289 0.41762 0.0
C536 C 0.5521 0.85733 0.39327 0.0
C537 C 0.714 0.3758 0.41062 0.0
C538 C 0.71582 0.35884 0.39297 0.0
C539 C 0.71502 0.39118 0.38712 0.0
C540 C 0.71676 0.3901 0.34513 0.0
H541 H 0.70757 0.37721 0.44271 0.0
H542 H 0.70868 0.40389 0.40185 0.0
S543 S 0.73534 0.34911 0.28461 0.0
N544 N 0.73023 0.34202 0.3313 0.0
N545 N 0.73066 0.37095 0.28708 0.0
C546 C 0.72514 0.37333 0.32731 0.0
C547 C 0.72514 0.35767 0.35128 0.0
C548 C 0.45932 0.62898 0.06967 0.0
C549 C 0.46261 0.61213 0.08769 0.0
C550 C 0.46214 0.6445 0.09274 0.0
C551 C 0.46702 0.64366 0.13468 0.0
H552 H 0.45019 0.6302 0.03775 0.0
H553 H 0.45442 0.65711 0.07786 0.0
S554 S 0.49034 0.603 0.1957 0.0
N555 N 0.48183 0.59564 0.14934 0.0
N556 N 0.48542 0.62482 0.19281 0.0
C557 C 0.47699 0.62699 0.15268 0.0
C558 C 0.47532 0.61119 0.12912 0.0
C559 C 0.2881 0.14036 0.12889 0.0
C560 C 0.29116 0.13949 0.08691 0.0
C561 C 0.28667 0.12486 0.15199 0.0
C562 C 0.28712 0.10799 0.13387 0.0
H563 H 0.29236 0.15301 0.14412 0.0
H564 H 0.28933 0.12611 0.18427 0.0
S565 S 0.28056 0.0988 0.0248 0.0
N566 N 0.28452 0.12063 0.028 0.0
N567 N 0.28034 0.09147 0.07139 0.0
C568 C 0.2828 0.10703 0.0919 0.0
C569 C 0.28533 0.12281 0.0684 0.0
C570 C 0.44245 0.13001 0.56312 0.0
C571 C 0.46366 0.1134 0.57837 0.0
C572 C 0.44994 0.14549 0.58589 0.0
C573 C 0.47834 0.14489 0.62487 0.0
H574 H 0.41523 0.13094 0.5345 0.0
H575 H 0.42725 0.15767 0.57419 0.0
S576 S 0.55963 0.10566 0.67427 0.0
N577 N 0.52775 0.09792 0.63148 0.0
N578 N 0.54089 0.12707 0.67458 0.0
C579 C 0.50768 0.12879 0.63852 0.0
C580 C 0.50056 0.11301 0.61516 0.0
C581 C 0.30127 0.62179 0.56395 0.0
C582 C 0.28064 0.63841 0.5794 0.0
C583 C 0.29424 0.60632 0.58672 0.0
C584 C 0.26695 0.60694 0.62593 0.0
H585 H 0.32774 0.62084 0.53512 0.0
H586 H 0.31642 0.59412 0.57477 0.0
S587 S 0.18698 0.6462 0.67596 0.0
N588 N 0.2179 0.65392 0.63298 0.0
N589 N 0.20568 0.62478 0.67612 0.0
C590 C 0.23803 0.62305 0.63983 0.0
C591 C 0.24461 0.63883 0.61644 0.0
C592 C 0.44519 0.31054 0.3533 0.0
C593 C 0.44478 0.31072 0.39541 0.0
C594 C 0.38071 0.31069 0.33143 0.0
C595 C 0.31338 0.31078 0.35083 0.0
H596 H 0.49572 0.3107 0.33703 0.0
H597 H 0.38375 0.31087 0.29903 0.0
S598 S 0.28277 0.31046 0.46067 0.0
N599 N 0.37135 0.31047 0.45577 0.0
N600 N 0.25018 0.31052 0.41466 0.0
C601 C 0.31216 0.3105 0.39293 0.0
C602 C 0.37784 0.31054 0.41523 0.0
C603 C 0.86831 0.93598 0.32958 0.0
C604 C 0.93605 0.93865 0.3476 0.0
C605 C 0.80458 0.93692 0.35199 0.0
C606 C 0.80621 0.94034 0.39338 0.0
H607 H 0.86439 0.93296 0.29793 0.0
H608 H 0.75381 0.93444 0.33692 0.0
S609 S 0.96934 0.94917 0.45464 0.0
N610 N 1.00065 0.94564 0.40906 0.0
N611 N 0.8809 0.94715 0.45126 0.0
C612 C 0.87341 0.94342 0.41165 0.0
C613 C 0.9383 0.94265 0.38874 0.0
C614 C 0.38041 0.93928 0.83254 0.0
C615 C 0.4472 0.93844 0.85244 0.0
C616 C 0.31531 0.93862 0.8538 0.0
C617 C 0.31449 0.93683 0.89572 0.0
H618 H 0.3783 0.94039 0.80023 0.0
H619 H 0.26524 0.93919 0.83712 0.0
S620 S 0.47476 0.93426 0.96212 0.0
N621 N 0.50861 0.93603 0.91658 0.0
N622 N 0.38633 0.93454 0.95649 0.0
C623 C 0.38092 0.93612 0.91605 0.0
C624 C 0.44724 0.93701 0.89443 0.0
C625 C 0.81667 0.31049 0.88773 0.0
C626 C 0.81643 0.31152 0.84568 0.0
C627 C 0.88138 0.31108 0.90941 0.0
C628 C 0.94832 0.31247 0.88983 0.0
H629 H 0.76641 0.30961 0.90414 0.0
H630 H 0.87884 0.31051 0.94179 0.0
S631 S 0.97737 0.315 0.78001 0.0
N632 N 0.88902 0.31364 0.78517 0.0
N633 N 0.01052 0.31451 0.82588 0.0
C634 C 0.94896 0.31312 0.84775 0.0
C635 C 0.88306 0.31272 0.82569 0.0
C636 C 0.62831 0.68311 0.65819 0.0
C637 C 0.69659 0.68313 0.63982 0.0
C638 C 0.56485 0.6832 0.63541 0.0
C639 C 0.56705 0.68308 0.59331 0.0
H640 H 0.62366 0.68306 0.69053 0.0
H641 H 0.51363 0.68318 0.651 0.0
S642 S 0.73213 0.68318 0.53045 0.0
N643 N 0.76264 0.6832 0.57691 0.0
N644 N 0.64334 0.68313 0.53405 0.0
C645 C 0.63495 0.68311 0.57448 0.0
C646 C 0.69969 0.68321 0.59773 0.0
C647 C 0.05704 0.06498 0.60476 0.0
C648 C 0.06021 0.06632 0.64673 0.0
C649 C 0.12002 0.06484 0.58153 0.0
C650 C 0.18868 0.06581 0.59939 0.0
H651 H 0.00547 0.06428 0.5896 0.0
H652 H 0.11474 0.06397 0.54928 0.0
S653 S 0.22674 0.06918 0.70823 0.0
N654 N 0.13793 0.06848 0.70529 0.0
N655 N 0.25613 0.068 0.66165 0.0
C656 C 0.19273 0.06691 0.64136 0.0
C657 C 0.12857 0.06724 0.66501 0.0
C658 C 0.56009 0.0589 0.10094 0.0
C659 C 0.55676 0.0589 0.143 0.0
C660 C 0.62641 0.05889 0.08091 0.0
C661 C 0.69193 0.05865 0.10216 0.0
H662 H 0.51111 0.05936 0.08328 0.0
H663 H 0.62622 0.05926 0.04848 0.0
S664 S 0.71273 0.05762 0.21267 0.0
N665 N 0.62471 0.05801 0.20533 0.0
N666 N 0.74938 0.0578 0.16763 0.0
C667 C 0.68942 0.05813 0.14423 0.0
C668 C 0.62183 0.05831 0.16466 0.0
C669 C 0.05789 0.68685 0.13686 0.0
C670 C 0.05413 0.688 0.09487 0.0
C671 C 0.12445 0.68665 0.15677 0.0
C672 C 0.18968 0.68786 0.13546 0.0
H673 H 0.00907 0.68581 0.15452 0.0
H674 H 0.12472 0.68561 0.18912 0.0
S675 S 0.20937 0.69139 0.02514 0.0
N676 N 0.12146 0.69046 0.0326 0.0
N677 N 0.24641 0.69036 0.07004 0.0
C678 C 0.18669 0.68923 0.0935 0.0
C679 C 0.11896 0.68922 0.07319 0.0
C680 C 0.43151 0.8117 0.85458 0.0
C681 C 0.43143 0.81239 0.89666 0.0
C682 C 0.36688 0.81124 0.83286 0.0
C683 C 0.29966 0.81122 0.85239 0.0
H684 H 0.48189 0.81186 0.83817 0.0
H685 H 0.36973 0.811 0.80046 0.0
S686 S 0.26987 0.81218 0.96228 0.0
N687 N 0.35839 0.81258 0.95718 0.0
N688 N 0.23696 0.8115 0.91637 0.0
C689 C 0.29877 0.81151 0.89451 0.0
C690 C 0.36462 0.81217 0.91663 0.0
C691 C 0.80498 0.43752 0.85292 0.0
C692 C 0.80462 0.43901 0.8949 0.0
C693 C 0.86979 0.43744 0.83137 0.0
C694 C 0.93667 0.43911 0.85092 0.0
H695 H 0.75488 0.43602 0.83656 0.0
H696 H 0.86737 0.436 0.79912 0.0
S697 S 0.96506 0.44413 0.96038 0.0
N698 N 0.87674 0.44263 0.95522 0.0
N699 N 0.99849 0.44274 0.91467 0.0
C700 C 0.93703 0.44101 0.89283 0.0
C701 C 0.87104 0.44088 0.91483 0.0
C702 C 0.38073 0.43905 0.33234 0.0
C703 C 0.44831 0.43845 0.35144 0.0
C704 C 0.31661 0.43941 0.3545 0.0
C705 C 0.31758 0.43891 0.39659 0.0
H706 H 0.37723 0.43914 0.29996 0.0
H707 H 0.26585 0.43964 0.33842 0.0
S708 S 0.48053 0.43773 0.46112 0.0
N709 N 0.51245 0.43786 0.41498 0.0
N710 N 0.3919 0.43826 0.45663 0.0
C711 C 0.38481 0.43856 0.41612 0.0
C712 C 0.45017 0.43842 0.39354 0.0
C713 C 0.88118 0.81225 0.33059 0.0
C714 C 0.81349 0.8119 0.34955 0.0
C715 C 0.94514 0.81176 0.35287 0.0
C716 C 0.94371 0.81116 0.39495 0.0
H717 H 0.88487 0.81302 0.29826 0.0
H718 H 0.99604 0.8123 0.337 0.0
S719 S 0.78028 0.80962 0.45902 0.0
N720 N 0.74877 0.81047 0.41283 0.0
N721 N 0.86895 0.80978 0.45474 0.0
C722 C 0.87637 0.81055 0.41428 0.0
C723 C 0.81125 0.81085 0.39157 0.0
C724 C 0.68831 0.18861 0.10347 0.0
C725 C 0.68495 0.18878 0.14556 0.0
C726 C 0.62542 0.18849 0.08015 0.0
C727 C 0.55672 0.18875 0.098 0.0
H728 H 0.73992 0.18817 0.08832 0.0
H729 H 0.63081 0.18803 0.04786 0.0
S730 S 0.51836 0.1901 0.20708 0.0
N731 N 0.60721 0.18976 0.20417 0.0
N732 N 0.4891 0.18974 0.1604 0.0
C733 C 0.55256 0.18939 0.14006 0.0
C734 C 0.61663 0.18934 0.16381 0.0
C735 C 0.12558 0.56367 0.07994 0.0
C736 C 0.19421 0.56368 0.09791 0.0
C737 C 0.06261 0.56311 0.10313 0.0
C738 C 0.06575 0.56276 0.14522 0.0
H739 H 0.12032 0.56418 0.04765 0.0
H740 H 0.01104 0.56331 0.08788 0.0
S741 S 0.23218 0.56226 0.20703 0.0
N742 N 0.26162 0.56292 0.1604 0.0
N743 N 0.14334 0.56208 0.20396 0.0
C744 C 0.13405 0.56257 0.1636 0.0
C745 C 0.19822 0.56296 0.13996 0.0
C746 C 0.65011 0.58117 0.6084 0.0
C747 C 0.68407 0.56501 0.59903 0.0
C748 C 0.58486 0.58156 0.62957 0.0
C749 C 0.55035 0.56581 0.64142 0.0
H750 H 0.6745 0.59364 0.59972 0.0
H751 H 0.56081 0.59432 0.63623 0.0
S752 S 0.61658 0.52004 0.62394 0.0
N753 N 0.67853 0.53286 0.6034 0.0
N754 N 0.55498 0.5336 0.64232 0.0
C755 C 0.58342 0.54956 0.632 0.0
C756 C 0.65055 0.54916 0.61107 0.0
C757 C 0.09248 0.1973 0.61025 0.0
C758 C 0.05886 0.18129 0.59931 0.0
C759 C 0.15856 0.19737 0.63068 0.0
C760 C 0.19259 0.18145 0.64173 0.0
H761 H 0.06805 0.20989 0.60253 0.0
H762 H 0.18277 0.21001 0.63823 0.0
S763 S 0.12628 0.13595 0.62073 0.0
N764 N 0.06447 0.14908 0.60106 0.0
N765 N 0.18774 0.14922 0.6403 0.0
C766 C 0.15919 0.16534 0.63136 0.0
C767 C 0.09258 0.16527 0.60989 0.0
C768 C 0.92917 0.24704 0.24767 0.0
C769 C 0.97188 0.23289 0.23373 0.0
C770 C 0.96034 0.26301 0.26048 0.0
C771 C 0.0355 0.26545 0.25998 0.0
H772 H 0.87102 0.2458 0.24888 0.0
H773 H 0.92508 0.27354 0.27066 0.0
S774 S 0.1716 0.23244 0.22661 0.0
N775 N 0.09345 0.22234 0.22042 0.0
N776 N 0.15209 0.25226 0.24453 0.0
C777 C 0.07894 0.25138 0.24621 0.0
C778 C 0.04714 0.23514 0.23304 0.0
C779 C 0.27982 0.98579 0.25473 0.0
C780 C 0.20651 0.98185 0.2489 0.0
C781 C 0.30945 0.00178 0.24113 0.0
C782 C 0.26698 0.01449 0.22114 0.0
H783 H 0.31477 0.97648 0.27 0.0
H784 H 0.36605 0.00427 0.24684 0.0
S785 S 0.07251 0.01034 0.19681 0.0
N786 N 0.09232 0.9918 0.22066 0.0
N787 N 0.14818 0.02183 0.19524 0.0
C788 C 0.19378 0.01064 0.21462 0.0
C789 C 0.16352 0.99434 0.22849 0.0
C790 C 0.93516 0.00217 0.99391 0.0
C791 C 0.9778 0.01474 0.01425 0.0
C792 C 0.96472 0.98631 0.9795 0.0
C793 C 0.03814 0.98235 0.98485 0.0
H794 H 0.8784 0.00464 0.98869 0.0
H795 H 0.92953 0.97705 0.96419 0.0
S796 S 0.17291 0.01062 0.037 0.0
N797 N 0.09711 0.02204 0.03953 0.0
N798 N 0.15284 0.99223 0.01259 0.0
C799 C 0.08145 0.99476 0.00532 0.0
C800 C 0.05126 0.01094 0.02 0.0
C801 C 0.32447 0.24712 0.98919 0.0
C802 C 0.28012 0.23331 0.00333 0.0
C803 C 0.29526 0.26334 0.97662 0.0
C804 C 0.22051 0.26641 0.97762 0.0
H805 H 0.38239 0.2454 0.98773 0.0
H806 H 0.33175 0.2736 0.9664 0.0
S807 S 0.08057 0.23447 0.01139 0.0
N808 N 0.15742 0.22374 0.01712 0.0
N809 N 0.10246 0.25414 0.99351 0.0
C810 C 0.17542 0.25267 0.99144 0.0
C811 C 0.20522 0.23616 0.00432 0.0
C812 C 0.92662 0.74389 0.74843 0.0
C813 C 0.97148 0.73024 0.73397 0.0
C814 C 0.95526 0.76005 0.76183 0.0
C815 C 0.02997 0.76324 0.76135 0.0
H816 H 0.86873 0.74208 0.74967 0.0
H817 H 0.91839 0.77017 0.77237 0.0
S818 S 0.17106 0.73181 0.72653 0.0
N819 N 0.09457 0.72099 0.72011 0.0
N820 N 0.14848 0.7513 0.74522 0.0
C821 C 0.07554 0.74969 0.74701 0.0
C822 C 0.04631 0.73323 0.73332 0.0
C823 C 0.68575 0.99924 0.75031 0.0
C824 C 0.7303 0.98548 0.76446 0.0
C825 C 0.71484 0.01532 0.73679 0.0
C826 C 0.78967 0.0183 0.73686 0.0
H827 H 0.62776 0.99759 0.7494 0.0
H828 H 0.67817 0.02553 0.72652 0.0
S829 S 0.93008 0.98651 0.77067 0.0
N830 N 0.85326 0.97589 0.77753 0.0
N831 N 0.90799 0.00606 0.75221 0.0
C832 C 0.83495 0.00464 0.75087 0.0
C833 C 0.80528 0.98826 0.76468 0.0
C834 C 0.78019 0.76327 0.98332 0.0
C835 C 0.70571 0.76666 0.98498 0.0
C836 C 0.80897 0.74728 -0.00249 0.0
C837 C 0.76445 0.73401 0.0139 0.0
H838 H 0.8168 0.7731 0.97124 0.0
H839 H 0.86667 0.74528 -0.00471 0.0
S840 S 0.56559 0.73627 0.02515 0.0
N841 N 0.58778 0.75536 0.0044 0.0
N842 N 0.64198 0.72534 0.03096 0.0
C843 C 0.68985 0.73721 0.01578 0.0
C844 C 0.66048 0.75351 0.00132 0.0
C845 C 0.30681 0.50674 0.74935 0.0
C846 C 0.26338 0.51926 0.72938 0.0
C847 C 0.27836 0.49064 0.7631 0.0
C848 C 0.20522 0.48641 0.75762 0.0
H849 H 0.36346 0.50937 0.75452 0.0
H850 H 0.3142 0.48141 0.778 0.0
S851 S 0.06824 0.51462 0.70717 0.0
N852 N 0.14336 0.52631 0.70482 0.0
N853 N 0.08967 0.49611 0.73069 0.0
C854 C 0.161 0.49883 0.73779 0.0
C855 C 0.19012 0.51522 0.72364 0.0
C856 C 0.06999 0.49627 0.50208 0.0
C857 C 0.02873 0.48339 0.48186 0.0
C858 C 0.03893 0.51211 0.51572 0.0
C859 C 0.9654 0.51573 0.50961 0.0
H860 H 0.12676 0.49407 0.50782 0.0
H861 H 0.07307 0.52161 0.53099 0.0
S862 S 0.83374 0.48646 0.45787 0.0
N863 N 0.91044 0.47538 0.45617 0.0
N864 N 0.85202 0.50513 0.4816 0.0
C865 C 0.92348 0.50299 0.48928 0.0
C866 C 0.95514 0.48684 0.47544 0.0
C867 C 0.20756 0.7343 0.49885 0.0
C868 C 0.27727 0.73282 0.51513 0.0
C869 C 0.18153 0.75058 0.48457 0.0
C870 C 0.22452 0.76596 0.48552 0.0
H871 H 0.17304 0.72276 0.49661 0.0
H872 H 0.12741 0.75107 0.4724 0.0
S873 S 0.41008 0.76939 0.5264 0.0
N874 N 0.38814 0.74835 0.53244 0.0
N875 N 0.33944 0.7788 0.50518 0.0
C876 C 0.29405 0.76472 0.50205 0.0
C877 C 0.32029 0.7482 0.51703 0.0
C878 C 0.79651 0.48684 0.2615 0.0
C879 C 0.72241 0.48345 0.25697 0.0
C880 C 0.82688 0.5029 0.24874 0.0
C881 C 0.78441 0.51618 0.23079 0.0
H882 H 0.83147 0.47703 0.27509 0.0
H883 H 0.88408 0.50495 0.25337 0.0
S884 S 0.58776 0.51369 0.21083 0.0
N885 N 0.60736 0.49462 0.23246 0.0
N886 N 0.66451 0.52471 0.20845 0.0
C887 C 0.71035 0.51289 0.22565 0.0
C888 C 0.67934 0.49657 0.23878 0.0
C889 C 0.71183 0.23667 0.51363 0.0
C890 C 0.78567 0.2328 0.51004 0.0
C891 C 0.68347 0.25274 0.49964 0.0
C892 C 0.72782 0.26562 0.48159 0.0
H893 H 0.67534 0.22718 0.52709 0.0
H894 H 0.62626 0.25511 0.50335 0.0
S895 S 0.92512 0.26201 0.46502 0.0
N896 N 0.90285 0.2432 0.48701 0.0
N897 N 0.84946 0.2734 0.46092 0.0
C898 C 0.8018 0.26193 0.4778 0.0
C899 C 0.83073 0.24554 0.49199 0.0
C900 C 0.57404 0.25232 0.74144 0.0
C901 C 0.52986 0.26551 0.7585 0.0
C902 C 0.54501 0.23637 0.72707 0.0
C903 C 0.47062 0.23291 0.72928 0.0
H904 H 0.63166 0.25436 0.73882 0.0
H905 H 0.58138 0.22661 0.71445 0.0
S906 S 0.33133 0.26308 0.77125 0.0
N907 N 0.40776 0.27404 0.7767 0.0
N908 N 0.35314 0.24408 0.74991 0.0
C909 C 0.42574 0.24598 0.74631 0.0
C910 C 0.45534 0.26225 0.76087 0.0
C911 C 0.53191 0.01492 0.50553 0.0
C912 C 0.45685 0.01755 0.50538 0.0
C913 C 0.56224 0.99883 0.49291 0.0
C914 C 0.51882 0.98468 0.47959 0.0
H915 H 0.56779 0.02541 0.51523 0.0
H916 H 0.62036 0.99747 0.49386 0.0
S917 S 0.31901 0.98471 0.47329 0.0
N918 N 0.33954 0.00458 0.49068 0.0
N919 N 0.39664 0.97437 0.46706 0.0
C920 C 0.44363 0.98711 0.47925 0.0
C921 C 0.41266 0.00351 0.49215 0.0
C922 C 0.47304 0.76572 0.23936 0.0
C923 C 0.54586 0.76725 0.25042 0.0
C924 C 0.44605 0.74999 0.22281 0.0
C925 C 0.49061 0.73509 0.21698 0.0
H926 H 0.43653 0.77681 0.24314 0.0
H927 H 0.38929 0.74946 0.21525 0.0
S928 S 0.68556 0.73221 0.24103 0.0
N929 N 0.6625 0.75255 0.25414 0.0
N930 N 0.61138 0.7229 0.22353 0.0
C931 C 0.56365 0.73644 0.2278 0.0
C932 C 0.59134 0.75253 0.24441 0.0
C933 C 0.56269 0.49786 0.99312 0.0
C934 C 0.51867 0.48444 0.97687 0.0
C935 C 0.53377 0.51416 0.00542 0.0
C936 C 0.45962 0.51771 0.00198 0.0
H937 H 0.6201 0.49576 -0.00328 0.0
H938 H 0.57001 0.52405 0.0176 0.0
S939 S 0.32094 0.48711 0.96091 0.0
N940 N 0.39708 0.47587 0.95771 0.0
N941 N 0.34261 0.50645 0.9807 0.0
C942 C 0.41491 0.50443 0.98562 0.0
C943 C 0.44444 0.48783 0.97308 0.0
C944 C 0.07081 0.32841 0.14048 0.0
C945 C 0.13482 0.32824 0.16307 0.0
C946 C 0.07262 0.32874 0.09864 0.0
C947 C 0.13849 0.32889 0.07783 0.0
H948 H 0.01881 0.32755 0.15511 0.0
H949 H 0.02194 0.3281 0.08255 0.0
S950 S 0.32117 0.33104 0.12303 0.0
N951 N 0.26583 0.33012 0.16168 0.0
N952 N 0.26921 0.33072 0.08289 0.0
C953 C 0.20282 0.3299 0.10004 0.0
C954 C 0.20098 0.32958 0.14272 0.0
C955 C 0.05357 0.91917 0.09764 0.0
C956 C 0.11761 0.91722 0.07553 0.0
C957 C 0.05444 0.9191 0.1395 0.0
C958 C 0.11943 0.91716 0.1607 0.0
H959 H 0.00277 0.92165 0.08264 0.0
H960 H 0.00435 0.92159 0.15521 0.0
S961 S 0.29991 0.90848 0.11693 0.0
N962 N 0.24628 0.91093 0.07786 0.0
N963 N 0.24793 0.91088 0.15669 0.0
C964 C 0.18293 0.91376 0.13902 0.0
C965 C 0.18201 0.91377 0.09635 0.0
C966 C 0.80185 0.67199 0.85271 0.0
C967 C 0.8678 0.66916 0.83298 0.0
C968 C 0.79804 0.67229 0.89452 0.0
C969 C 0.86001 0.66973 0.91809 0.0
H970 H 0.7533 0.67482 0.83582 0.0
H971 H 0.74669 0.67535 0.90835 0.0
S972 S 0.04357 0.65903 0.88095 0.0
N973 N 0.99485 0.66171 0.84002 0.0
N974 N 0.98768 0.66223 0.91873 0.0
C975 C 0.92528 0.66561 0.89877 0.0
C976 C 0.92919 0.66535 0.85614 0.0
C977 C 0.94106 0.0784 0.85607 0.0
C978 C 0.87521 0.08016 0.83561 0.0
C979 C 0.94327 0.07771 0.89788 0.0
C980 C 0.87972 0.07881 0.92068 0.0
H981 H 0.99103 0.07667 0.83972 0.0
H982 H 0.99487 0.0755 0.91224 0.0
S983 S 0.69489 0.08642 0.88162 0.0
N984 N 0.74595 0.08511 0.84125 0.0
N985 N 0.75007 0.08387 0.91999 0.0
C986 C 0.81413 0.08188 0.90071 0.0
C987 C 0.81187 0.08254 0.85809 0.0
C988 C 0.17964 0.82779 0.64446 0.0
C989 C 0.11303 0.82707 0.66446 0.0
C990 C 0.18298 0.82822 0.60267 0.0
C991 C 0.11981 0.82796 0.57939 0.0
H992 H 0.22979 0.82723 0.66106 0.0
H993 H 0.23557 0.82795 0.58858 0.0
S994 S 0.93179 0.82875 0.61742 0.0
N995 N 0.98233 0.82808 0.65809 0.0
N996 N 0.9886 0.82891 0.57938 0.0
C997 C 0.05279 0.8285 0.59904 0.0
C998 C 0.04939 0.82805 0.64166 0.0
C999 C 0.18742 0.42255 0.64269 0.0
C1000 C 0.12288 0.4219 0.66473 0.0
C1001 C 0.18677 0.42225 0.60084 0.0
C1002 C 0.12156 0.42133 0.57947 0.0
H1003 H 0.23879 0.42409 0.65775 0.0
H1004 H 0.23766 0.42359 0.58521 0.0
S1005 S 0.93847 0.41671 0.6231 0.0
N1006 N 0.99253 0.4183 0.66222 0.0
N1007 N 0.99131 0.41777 0.5834 0.0
C1008 C 0.05698 0.41942 0.60112 0.0
C1009 C 0.05764 0.4197 0.64382 0.0
C1010 C 0.80822 0.17059 0.35336 0.0
C1011 C 0.87389 0.17031 0.33237 0.0
C1012 C 0.80676 0.16995 0.39521 0.0
C1013 C 0.87091 0.16903 0.41759 0.0
H1014 H 0.7576 0.1721 0.33753 0.0
H1015 H 0.75503 0.17103 0.41007 0.0
S1016 S 0.0563 0.1652 0.37672 0.0
N1017 N 0.00422 0.16699 0.33683 0.0
N1018 N 0.00141 0.16582 0.4156 0.0
C1019 C 0.93663 0.16747 0.39691 0.0
C1020 C 0.93813 0.16811 0.35424 0.0
C1021 C 0.93352 0.58021 0.39565 0.0
C1022 C 0.86902 0.57913 0.41766 0.0
C1023 C 0.93303 0.57994 0.35378 0.0
C1024 C 0.86802 0.5786 0.33235 0.0
H1025 H 0.98517 0.58047 0.4108 0.0
H1026 H 0.98428 0.58004 0.33822 0.0
S1027 S 0.68373 0.57786 0.37573 0.0
N1028 N 0.73792 0.5785 0.41493 0.0
N1029 N 0.73693 0.57803 0.33612 0.0
C1030 C 0.80282 0.57872 0.3539 0.0
C1031 C 0.80334 0.57898 0.39661 0.0
C1032 C 0.57214 0.32873 0.59856 0.0
C1033 C 0.63843 0.3285 0.57814 0.0
C1034 C 0.5695 0.32857 0.6404 0.0
C1035 C 0.63306 0.32822 0.66333 0.0
H1036 H 0.52173 0.3282 0.58219 0.0
H1037 H 0.51719 0.32795 0.65475 0.0
S1038 S 0.82036 0.33011 0.62435 0.0
N1039 N 0.76914 0.32984 0.58392 0.0
N1040 N 0.76422 0.32959 0.66268 0.0
C1041 C 0.6997 0.32925 0.64335 0.0
C1042 C 0.70238 0.32938 0.60069 0.0
C1043 C 0.56343 0.92459 0.60344 0.0
C1044 C 0.62673 0.92345 0.58042 0.0
C1045 C 0.56626 0.92462 0.64527 0.0
C1046 C 0.6325 0.92354 0.6656 0.0
H1047 H 0.51142 0.92622 0.58914 0.0
H1048 H 0.51633 0.92629 0.66168 0.0
S1049 S 0.81285 0.91775 0.61924 0.0
N1050 N 0.75688 0.91929 0.58095 0.0
N1051 N 0.76221 0.91937 0.65972 0.0
C1052 C 0.69578 0.92121 0.64301 0.0
C1053 C 0.6929 0.92117 0.60035 0.0
C1054 C 0.38231 0.66574 0.38237 0.0
C1055 C 0.38715 0.68152 0.40463 0.0
C1056 C 0.37875 0.66617 0.34043 0.0
C1057 C 0.37711 0.6824 0.31985 0.0
H1058 H 0.382 0.65302 0.39742 0.0
H1059 H 0.37615 0.65378 0.32406 0.0
S1060 S 0.38741 0.72735 0.3645 0.0
N1061 N 0.3906 0.71374 0.40318 0.0
N1062 N 0.38116 0.71455 0.32451 0.0
C1063 C 0.38118 0.69824 0.34182 0.0
C1064 C 0.38693 0.69779 0.38427 0.0
C1065 C 0.42111 0.07952 0.38235 0.0
C1066 C 0.35744 0.07876 0.40511 0.0
C1067 C 0.41893 0.07915 0.34054 0.0
C1068 C 0.353 0.07796 0.31993 0.0
H1069 H 0.47334 0.07969 0.39687 0.0
H1070 H 0.4696 0.07902 0.3244 0.0
S1071 S 0.17046 0.07804 0.36543 0.0
N1072 N 0.22618 0.07861 0.40398 0.0
N1073 N 0.22212 0.07786 0.32518 0.0
C1074 C 0.28868 0.07835 0.3422 0.0
C1075 C 0.29089 0.07877 0.38488 0.0
C1076 C 0.56806 0.83233 0.09953 0.0
C1077 C 0.63311 0.83176 0.078 0.0
C1078 C 0.56788 0.83245 0.14137 0.0
C1079 C 0.63274 0.83205 0.16317 0.0
H1080 H 0.51672 0.83173 0.08409 0.0
H1081 H 0.51638 0.83195 0.15664 0.0
S1082 S 0.81764 0.83363 0.12084 0.0
N1083 N 0.7641 0.83311 0.08136 0.0
N1084 N 0.76377 0.83338 0.16018 0.0
C1085 C 0.69819 0.83296 0.14202 0.0
C1086 C 0.69837 0.8328 0.09934 0.0
C1087 C 0.68027 0.4212 0.09735 0.0
C1088 C 0.61351 0.42134 0.07739 0.0
C1089 C 0.68388 0.42095 0.13916 0.0
C1090 C 0.62087 0.42078 0.16256 0.0
H1091 H 0.73024 0.42211 0.08068 0.0
H1092 H 0.73649 0.42167 0.15316 0.0
S1093 S 0.43289 0.41834 0.12472 0.0
N1094 N 0.4831 0.4193 0.08397 0.0
N1095 N 0.48986 0.41877 0.1627 0.0
C1096 C 0.55386 0.41963 0.14297 0.0
C1097 C 0.55018 0.41994 0.10032 0.0
C1098 C 0.31886 0.17077 0.84205 0.0
C1099 C 0.38455 0.169 0.82145 0.0
C1100 C 0.31685 0.17134 0.88389 0.0
C1101 C 0.38046 0.17017 0.90669 0.0
H1102 H 0.26884 0.17259 0.8258 0.0
H1103 H 0.26529 0.17353 0.89832 0.0
S1104 S 0.56499 0.16254 0.86735 0.0
N1105 N 0.51381 0.16396 0.82702 0.0
N1106 N 0.50998 0.16505 0.90579 0.0
C1107 C 0.4459 0.16711 0.88659 0.0
C1108 C 0.44795 0.16651 0.84391 0.0
C1109 C 0.30836 0.58234 0.88635 0.0
C1110 C 0.37493 0.58206 0.90649 0.0
C1111 C 0.30514 0.5827 0.8445 0.0
C1112 C 0.36838 0.5828 0.82125 0.0
H1113 H 0.25824 0.58144 0.90288 0.0
H1114 H 0.25265 0.58203 0.83035 0.0
S1115 S 0.556 0.58503 0.85961 0.0
N1116 N 0.50544 0.58404 0.90022 0.0
N1117 N 0.49936 0.5847 0.82148 0.0
C1118 C 0.43519 0.58385 0.84104 0.0
C1119 C 0.43848 0.58347 0.88371 0.0
loop_
_geom_bond_atom_site_label_1
_geom_bond_atom_site_label_2
_geom_bond_distance
_geom_bond_site_symmetry_2
_ccdc_geom_bond_type
In0 O1 2.294 . S
In0 O2 2.326 . S
In0 O6 2.266 . S
In0 O7 2.326 . S
In0 O8 2.266 . S
In0 O9 2.326 . S
In0 O11 2.294 . S
In0 O12 2.326 . S
O1 In0 2.294 . S
O1 C10 1.240 . S
O2 In0 2.326 . S
O2 C10 1.252 . S
C3 O6 1.252 . S
C3 O7 1.260 . S
C4 O11 1.240 . S
C4 O12 1.252 . S
C5 O8 1.252 . S
C5 O9 1.260 . S
O6 In0 2.266 . S
O6 C3 1.252 . S
O7 In0 2.326 . S
O7 C3 1.260 . S
O8 In0 2.266 . S
O8 C5 1.252 . S
O9 In0 2.326 . S
O9 C5 1.260 . S
C10 O1 1.240 . S
C10 O2 1.252 . S
O11 In0 2.294 . S
O11 C4 1.240 . S
O12 In0 2.326 . S
O12 C4 1.252 . S
In13 O14 2.294 . S
In13 O15 2.326 . S
In13 O19 2.266 . S
In13 O20 2.326 . S
In13 O21 2.266 . S
In13 O22 2.326 . S
In13 O24 2.294 . S
In13 O25 2.326 . S
O14 In13 2.294 . S
O14 C23 1.240 . S
O15 In13 2.326 . S
O15 C23 1.252 . S
C16 O19 1.252 . S
C16 O20 1.260 . S
C17 O24 1.240 . S
C17 O25 1.252 . S
C18 O21 1.252 . S
C18 O22 1.260 . S
O19 In13 2.266 . S
O19 C16 1.252 . S
O20 In13 2.326 . S
O20 C16 1.260 . S
O21 In13 2.266 . S
O21 C18 1.252 . S
O22 In13 2.326 . S
O22 C18 1.260 . S
C23 O14 1.240 . S
C23 O15 1.252 . S
O24 In13 2.294 . S
O24 C17 1.240 . S
O25 In13 2.326 . S
O25 C17 1.252 . S
In26 O27 2.294 . S
In26 O28 2.326 . S
In26 O32 2.266 . S
In26 O33 2.326 . S
In26 O34 2.266 1_556 S
In26 O35 2.326 1_556 S
In26 O37 2.294 . S
In26 O38 2.326 . S
O27 In26 2.294 . S
O27 C36 1.240 . S
O28 In26 2.326 . S
O28 C36 1.252 . S
C29 O32 1.252 . S
C29 O33 1.260 . S
C30 O37 1.240 . S
C30 O38 1.252 . S
C31 O34 1.252 . S
C31 O35 1.260 . S
O32 In26 2.266 . S
O32 C29 1.252 . S
O33 In26 2.326 . S
O33 C29 1.260 . S
O34 In26 2.266 1_554 S
O34 C31 1.252 . S
O35 In26 2.326 1_554 S
O35 C31 1.260 . S
C36 O27 1.240 . S
C36 O28 1.252 . S
O37 In26 2.294 . S
O37 C30 1.240 . S
O38 In26 2.326 . S
O38 C30 1.252 . S
In39 O40 2.294 . S
In39 O41 2.326 . S
In39 O45 2.266 1_556 S
In39 O46 2.326 1_556 S
In39 O47 2.266 . S
In39 O48 2.326 . S
In39 O50 2.294 . S
In39 O51 2.326 . S
O40 In39 2.294 . S
O40 C49 1.240 . S
O41 In39 2.326 . S
O41 C49 1.252 . S
C42 O45 1.252 . S
C42 O46 1.260 . S
C43 O50 1.240 . S
C43 O51 1.252 . S
C44 O47 1.252 . S
C44 O48 1.260 . S
O45 In39 2.266 1_554 S
O45 C42 1.252 . S
O46 In39 2.326 1_554 S
O46 C42 1.260 . S
O47 In39 2.266 . S
O47 C44 1.252 . S
O48 In39 2.326 . S
O48 C44 1.260 . S
C49 O40 1.240 . S
C49 O41 1.252 . S
O50 In39 2.294 . S
O50 C43 1.240 . S
O51 In39 2.326 . S
O51 C43 1.252 . S
In52 O53 2.294 . S
In52 O54 2.326 . S
In52 O58 2.266 . S
In52 O59 2.326 . S
In52 O60 2.266 . S
In52 O61 2.326 . S
In52 O63 2.294 . S
In52 O64 2.326 . S
O53 In52 2.294 . S
O53 C62 1.240 . S
O54 In52 2.326 . S
O54 C62 1.252 . S
C55 O58 1.252 . S
C55 O59 1.260 . S
C56 O63 1.240 . S
C56 O64 1.252 . S
C57 O60 1.252 . S
C57 O61 1.260 . S
O58 In52 2.266 . S
O58 C55 1.252 . S
O59 In52 2.326 . S
O59 C55 1.260 . S
O60 In52 2.266 . S
O60 C57 1.252 . S
O61 In52 2.326 . S
O61 C57 1.260 . S
C62 O53 1.240 . S
C62 O54 1.252 . S
O63 In52 2.294 . S
O63 C56 1.240 . S
O64 In52 2.326 . S
O64 C56 1.252 . S
In65 O66 2.294 . S
In65 O67 2.326 . S
In65 O71 2.266 . S
In65 O72 2.326 . S
In65 O73 2.266 . S
In65 O74 2.326 . S
In65 O76 2.294 . S
In65 O77 2.326 . S
O66 In65 2.294 . S
O66 C75 1.240 . S
O67 In65 2.326 . S
O67 C75 1.252 . S
C68 O71 1.252 . S
C68 O72 1.260 . S
C69 O76 1.240 . S
C69 O77 1.252 . S
C70 O73 1.252 . S
C70 O74 1.260 . S
O71 In65 2.266 . S
O71 C68 1.252 . S
O72 In65 2.326 . S
O72 C68 1.260 . S
O73 In65 2.266 . S
O73 C70 1.252 . S
O74 In65 2.326 . S
O74 C70 1.260 . S
C75 O66 1.240 . S
C75 O67 1.252 . S
O76 In65 2.294 . S
O76 C69 1.240 . S
O77 In65 2.326 . S
O77 C69 1.252 . S
In78 O79 2.294 . S
In78 O80 2.326 . S
In78 O84 2.266 1_554 S
In78 O85 2.326 1_554 S
In78 O86 2.266 . S
In78 O87 2.326 . S
In78 O89 2.294 . S
In78 O90 2.326 . S
O79 In78 2.294 . S
O79 C88 1.240 . S
O80 In78 2.326 . S
O80 C88 1.252 . S
C81 O84 1.252 . S
C81 O85 1.260 . S
C82 O89 1.240 . S
C82 O90 1.252 . S
C83 O86 1.252 . S
C83 O87 1.260 . S
O84 In78 2.266 1_556 S
O84 C81 1.252 . S
O85 In78 2.326 1_556 S
O85 C81 1.260 . S
O86 In78 2.266 . S
O86 C83 1.252 . S
O87 In78 2.326 . S
O87 C83 1.260 . S
C88 O79 1.240 . S
C88 O80 1.252 . S
O89 In78 2.294 . S
O89 C82 1.240 . S
O90 In78 2.326 . S
O90 C82 1.252 . S
In91 O92 2.294 . S
In91 O93 2.326 . S
In91 O97 2.266 1_554 S
In91 O98 2.326 1_554 S
In91 O99 2.266 . S
In91 O100 2.326 . S
In91 O102 2.294 . S
In91 O103 2.326 . S
O92 In91 2.294 . S
O92 C101 1.240 . S
O93 In91 2.326 . S
O93 C101 1.252 . S
C94 O97 1.252 . S
C94 O98 1.260 . S
C95 O102 1.240 . S
C95 O103 1.252 . S
C96 O99 1.252 . S
C96 O100 1.260 . S
O97 In91 2.266 1_556 S
O97 C94 1.252 . S
O98 In91 2.326 1_556 S
O98 C94 1.260 . S
O99 In91 2.266 . S
O99 C96 1.252 . S
O100 In91 2.326 . S
O100 C96 1.260 . S
C101 O92 1.240 . S
C101 O93 1.252 . S
O102 In91 2.294 . S
O102 C95 1.240 . S
O103 In91 2.326 . S
O103 C95 1.252 . S
In104 O105 2.294 . S
In104 O106 2.326 . S
In104 O110 2.266 . S
In104 O111 2.326 . S
In104 O112 2.266 . S
In104 O113 2.326 . S
In104 O115 2.294 . S
In104 O116 2.326 . S
O105 In104 2.294 . S
O105 C114 1.240 . S
O106 In104 2.326 . S
O106 C114 1.252 . S
C107 O110 1.252 . S
C107 O111 1.260 . S
C108 O115 1.240 . S
C108 O116 1.252 . S
C109 O112 1.252 . S
C109 O113 1.260 . S
O110 In104 2.266 . S
O110 C107 1.252 . S
O111 In104 2.326 . S
O111 C107 1.260 . S
O112 In104 2.266 . S
O112 C109 1.252 . S
O113 In104 2.326 . S
O113 C109 1.260 . S
C114 O105 1.240 . S
C114 O106 1.252 . S
O115 In104 2.294 . S
O115 C108 1.240 . S
O116 In104 2.326 . S
O116 C108 1.252 . S
In117 O118 2.294 . S
In117 O119 2.326 . S
In117 O123 2.266 . S
In117 O124 2.326 . S
In117 O125 2.266 . S
In117 O126 2.326 . S
In117 O128 2.294 . S
In117 O129 2.326 . S
O118 In117 2.294 . S
O118 C127 1.240 . S
O119 In117 2.326 . S
O119 C127 1.252 . S
C120 O123 1.252 . S
C120 O124 1.260 . S
C121 O128 1.240 . S
C121 O129 1.252 . S
C122 O125 1.252 . S
C122 O126 1.260 . S
O123 In117 2.266 . S
O123 C120 1.252 . S
O124 In117 2.326 . S
O124 C120 1.260 . S
O125 In117 2.266 . S
O125 C122 1.252 . S
O126 In117 2.326 . S
O126 C122 1.260 . S
C127 O118 1.240 . S
C127 O119 1.252 . S
O128 In117 2.294 . S
O128 C121 1.240 . S
O129 In117 2.326 . S
O129 C121 1.252 . S
In130 O131 2.294 . S
In130 O132 2.326 . S
In130 O136 2.266 . S
In130 O137 2.326 . S
In130 O138 2.266 . S
In130 O139 2.326 . S
In130 O141 2.294 . S
In130 O142 2.326 . S
O131 In130 2.294 . S
O131 C140 1.240 . S
O132 In130 2.326 . S
O132 C140 1.252 . S
C133 O136 1.252 . S
C133 O137 1.260 . S
C134 O141 1.240 . S
C134 O142 1.252 . S
C135 O138 1.252 . S
C135 O139 1.260 . S
O136 In130 2.266 . S
O136 C133 1.252 . S
O137 In130 2.326 . S
O137 C133 1.260 . S
O138 In130 2.266 . S
O138 C135 1.252 . S
O139 In130 2.326 . S
O139 C135 1.260 . S
C140 O131 1.240 . S
C140 O132 1.252 . S
O141 In130 2.294 . S
O141 C134 1.240 . S
O142 In130 2.326 . S
O142 C134 1.252 . S
In143 O144 2.294 . S
In143 O145 2.326 . S
In143 O149 2.266 . S
In143 O150 2.326 . S
In143 O151 2.266 . S
In143 O152 2.326 . S
In143 O154 2.294 . S
In143 O155 2.326 . S
O144 In143 2.294 . S
O144 C153 1.240 . S
O145 In143 2.326 . S
O145 C153 1.252 . S
C146 O149 1.252 . S
C146 O150 1.260 . S
C147 O154 1.240 . S
C147 O155 1.252 . S
C148 O151 1.252 . S
C148 O152 1.260 . S
O149 In143 2.266 . S
O149 C146 1.252 . S
O150 In143 2.326 . S
O150 C146 1.260 . S
O151 In143 2.266 . S
O151 C148 1.252 . S
O152 In143 2.326 . S
O152 C148 1.260 . S
C153 O144 1.240 . S
C153 O145 1.252 . S
O154 In143 2.294 . S
O154 C147 1.240 . S
O155 In143 2.326 . S
O155 C147 1.252 . S
In156 O157 2.294 . S
In156 O158 2.326 . S
In156 O162 2.266 . S
In156 O163 2.326 . S
In156 O164 2.266 . S
In156 O165 2.326 . S
In156 O167 2.294 . S
In156 O168 2.326 . S
O157 In156 2.294 . S
O157 C166 1.240 . S
O158 In156 2.326 . S
O158 C166 1.252 . S
C159 O162 1.252 . S
C159 O163 1.260 . S
C160 O167 1.240 . S
C160 O168 1.252 . S
C161 O164 1.252 . S
C161 O165 1.260 . S
O162 In156 2.266 . S
O162 C159 1.252 . S
O163 In156 2.326 . S
O163 C159 1.260 . S
O164 In156 2.266 . S
O164 C161 1.252 . S
O165 In156 2.326 . S
O165 C161 1.260 . S
C166 O157 1.240 . S
C166 O158 1.252 . S
O167 In156 2.294 . S
O167 C160 1.240 . S
O168 In156 2.326 . S
O168 C160 1.252 . S
In169 O170 2.294 . S
In169 O171 2.326 . S
In169 O175 2.266 . S
In169 O176 2.326 . S
In169 O177 2.266 . S
In169 O178 2.326 . S
In169 O180 2.294 . S
In169 O181 2.326 . S
O170 In169 2.294 . S
O170 C179 1.240 . S
O171 In169 2.326 . S
O171 C179 1.252 . S
C172 O175 1.252 . S
C172 O176 1.260 . S
C173 O180 1.240 . S
C173 O181 1.252 . S
C174 O177 1.252 . S
C174 O178 1.260 . S
O175 In169 2.266 . S
O175 C172 1.252 . S
O176 In169 2.326 . S
O176 C172 1.260 . S
O177 In169 2.266 . S
O177 C174 1.252 . S
O178 In169 2.326 . S
O178 C174 1.260 . S
C179 O170 1.240 . S
C179 O171 1.252 . S
O180 In169 2.294 . S
O180 C173 1.240 . S
O181 In169 2.326 . S
O181 C173 1.252 . S
In182 O183 2.294 . S
In182 O184 2.326 . S
In182 O188 2.266 . S
In182 O189 2.326 . S
In182 O190 2.266 . S
In182 O191 2.326 . S
In182 O193 2.294 . S
In182 O194 2.326 . S
O183 In182 2.294 . S
O183 C192 1.240 . S
O184 In182 2.326 . S
O184 C192 1.252 . S
C185 O188 1.252 . S
C185 O189 1.260 . S
C186 O193 1.240 . S
C186 O194 1.252 . S
C187 O190 1.252 . S
C187 O191 1.260 . S
O188 In182 2.266 . S
O188 C185 1.252 . S
O189 In182 2.326 . S
O189 C185 1.260 . S
O190 In182 2.266 . S
O190 C187 1.252 . S
O191 In182 2.326 . S
O191 C187 1.260 . S
C192 O183 1.240 . S
C192 O184 1.252 . S
O193 In182 2.294 . S
O193 C186 1.240 . S
O194 In182 2.326 . S
O194 C186 1.252 . S
In195 O196 2.294 . S
In195 O197 2.326 . S
In195 O201 2.266 . S
In195 O202 2.326 . S
In195 O203 2.266 . S
In195 O204 2.326 . S
In195 O206 2.294 . S
In195 O207 2.326 . S
O196 In195 2.294 . S
O196 C205 1.240 . S
O197 In195 2.326 . S
O197 C205 1.252 . S
C198 O201 1.252 . S
C198 O202 1.260 . S
C199 O206 1.240 . S
C199 O207 1.252 . S
C200 O203 1.252 . S
C200 O204 1.260 . S
O201 In195 2.266 . S
O201 C198 1.252 . S
O202 In195 2.326 . S
O202 C198 1.260 . S
O203 In195 2.266 . S
O203 C200 1.252 . S
O204 In195 2.326 . S
O204 C200 1.260 . S
C205 O196 1.240 . S
C205 O197 1.252 . S
O206 In195 2.294 . S
O206 C199 1.240 . S
O207 In195 2.326 . S
O207 C199 1.252 . S
In208 O209 2.294 . S
In208 O210 2.326 . S
In208 O214 2.266 . S
In208 O215 2.326 . S
In208 O216 2.266 . S
In208 O217 2.326 . S
In208 O219 2.294 . S
In208 O220 2.326 . S
O209 In208 2.294 . S
O209 C218 1.240 . S
O210 In208 2.326 . S
O210 C218 1.252 . S
C211 O214 1.252 . S
C211 O215 1.260 . S
C212 O219 1.240 . S
C212 O220 1.252 . S
C213 O216 1.252 . S
C213 O217 1.260 . S
O214 In208 2.266 . S
O214 C211 1.252 . S
O215 In208 2.326 . S
O215 C211 1.260 . S
O216 In208 2.266 . S
O216 C213 1.252 . S
O217 In208 2.326 . S
O217 C213 1.260 . S
C218 O209 1.240 . S
C218 O210 1.252 . S
O219 In208 2.294 . S
O219 C212 1.240 . S
O220 In208 2.326 . S
O220 C212 1.252 . S
In221 O222 2.294 . S
In221 O223 2.326 . S
In221 O227 2.266 . S
In221 O228 2.326 . S
In221 O229 2.266 . S
In221 O230 2.326 . S
In221 O232 2.294 . S
In221 O233 2.326 . S
O222 In221 2.294 . S
O222 C231 1.240 . S
O223 In221 2.326 . S
O223 C231 1.252 . S
C224 O227 1.252 . S
C224 O228 1.260 . S
C225 O232 1.240 . S
C225 O233 1.252 . S
C226 O229 1.252 . S
C226 O230 1.260 . S
O227 In221 2.266 . S
O227 C224 1.252 . S
O228 In221 2.326 . S
O228 C224 1.260 . S
O229 In221 2.266 . S
O229 C226 1.252 . S
O230 In221 2.326 . S
O230 C226 1.260 . S
C231 O222 1.240 . S
C231 O223 1.252 . S
O232 In221 2.294 . S
O232 C225 1.240 . S
O233 In221 2.326 . S
O233 C225 1.252 . S
In234 O235 2.294 . S
In234 O236 2.326 . S
In234 O240 2.266 . S
In234 O241 2.326 . S
In234 O242 2.266 . S
In234 O243 2.326 . S
In234 O245 2.294 . S
In234 O246 2.326 . S
O235 In234 2.294 . S
O235 C244 1.240 . S
O236 In234 2.326 . S
O236 C244 1.252 . S
C237 O240 1.252 . S
C237 O241 1.260 . S
C238 O245 1.240 . S
C238 O246 1.252 . S
C239 O242 1.252 . S
C239 O243 1.260 . S
O240 In234 2.266 . S
O240 C237 1.252 . S
O241 In234 2.326 . S
O241 C237 1.260 . S
O242 In234 2.266 . S
O242 C239 1.252 . S
O243 In234 2.326 . S
O243 C239 1.260 . S
C244 O235 1.240 . S
C244 O236 1.252 . S
O245 In234 2.294 . S
O245 C238 1.240 . S
O246 In234 2.326 . S
O246 C238 1.252 . S
In247 O248 2.294 . S
In247 O249 2.326 . S
In247 O253 2.266 . S
In247 O254 2.326 . S
In247 O255 2.266 . S
In247 O256 2.326 . S
In247 O258 2.294 . S
In247 O259 2.326 . S
O248 In247 2.294 . S
O248 C257 1.240 . S
O249 In247 2.326 . S
O249 C257 1.252 . S
C250 O253 1.252 . S
C250 O254 1.260 . S
C251 O258 1.240 . S
C251 O259 1.252 . S
C252 O255 1.252 . S
C252 O256 1.260 . S
O253 In247 2.266 . S
O253 C250 1.252 . S
O254 In247 2.326 . S
O254 C250 1.260 . S
O255 In247 2.266 . S
O255 C252 1.252 . S
O256 In247 2.326 . S
O256 C252 1.260 . S
C257 O248 1.240 . S
C257 O249 1.252 . S
O258 In247 2.294 . S
O258 C251 1.240 . S
O259 In247 2.326 . S
O259 C251 1.252 . S
In260 O261 2.294 . S
In260 O262 2.326 . S
In260 O266 2.266 . S
In260 O267 2.326 . S
In260 O268 2.266 . S
In260 O269 2.326 . S
In260 O271 2.294 . S
In260 O272 2.326 . S
O261 In260 2.294 . S
O261 C270 1.240 . S
O262 In260 2.326 . S
O262 C270 1.252 . S
C263 O266 1.252 . S
C263 O267 1.260 . S
C264 O271 1.240 . S
C264 O272 1.252 . S
C265 O268 1.252 . S
C265 O269 1.260 . S
O266 In260 2.266 . S
O266 C263 1.252 . S
O267 In260 2.326 . S
O267 C263 1.260 . S
O268 In260 2.266 . S
O268 C265 1.252 . S
O269 In260 2.326 . S
O269 C265 1.260 . S
C270 O261 1.240 . S
C270 O262 1.252 . S
O271 In260 2.294 . S
O271 C264 1.240 . S
O272 In260 2.326 . S
O272 C264 1.252 . S
In273 O274 2.294 . S
In273 O275 2.326 . S
In273 O279 2.266 . S
In273 O280 2.326 . S
In273 O281 2.266 . S
In273 O282 2.326 . S
In273 O284 2.294 . S
In273 O285 2.326 . S
O274 In273 2.294 . S
O274 C283 1.240 . S
O275 In273 2.326 . S
O275 C283 1.252 . S
C276 O279 1.252 . S
C276 O280 1.260 . S
C277 O284 1.240 . S
C277 O285 1.252 . S
C278 O281 1.252 . S
C278 O282 1.260 . S
O279 In273 2.266 . S
O279 C276 1.252 . S
O280 In273 2.326 . S
O280 C276 1.260 . S
O281 In273 2.266 . S
O281 C278 1.252 . S
O282 In273 2.326 . S
O282 C278 1.260 . S
C283 O274 1.240 . S
C283 O275 1.252 . S
O284 In273 2.294 . S
O284 C277 1.240 . S
O285 In273 2.326 . S
O285 C277 1.252 . S
In286 O287 2.294 . S
In286 O288 2.326 . S
In286 O292 2.266 . S
In286 O293 2.326 . S
In286 O294 2.266 . S
In286 O295 2.326 . S
In286 O297 2.294 . S
In286 O298 2.326 . S
O287 In286 2.294 . S
O287 C296 1.240 . S
O288 In286 2.326 . S
O288 C296 1.252 . S
C289 O292 1.252 . S
C289 O293 1.260 . S
C290 O297 1.240 . S
C290 O298 1.252 . S
C291 O294 1.252 . S
C291 O295 1.260 . S
O292 In286 2.266 . S
O292 C289 1.252 . S
O293 In286 2.326 . S
O293 C289 1.260 . S
O294 In286 2.266 . S
O294 C291 1.252 . S
O295 In286 2.326 . S
O295 C291 1.260 . S
C296 O287 1.240 . S
C296 O288 1.252 . S
O297 In286 2.294 . S
O297 C290 1.240 . S
O298 In286 2.326 . S
O298 C290 1.252 . S
In299 O300 2.294 . S
In299 O301 2.326 . S
In299 O305 2.266 . S
In299 O306 2.326 . S
In299 O307 2.266 . S
In299 O308 2.326 . S
In299 O310 2.294 . S
In299 O311 2.326 . S
O300 In299 2.294 . S
O300 C309 1.240 . S
O301 In299 2.326 . S
O301 C309 1.252 . S
C302 O305 1.252 . S
C302 O306 1.260 . S
C303 O310 1.240 . S
C303 O311 1.252 . S
C304 O307 1.252 . S
C304 O308 1.260 . S
O305 In299 2.266 . S
O305 C302 1.252 . S
O306 In299 2.326 . S
O306 C302 1.260 . S
O307 In299 2.266 . S
O307 C304 1.252 . S
O308 In299 2.326 . S
O308 C304 1.260 . S
C309 O300 1.240 . S
C309 O301 1.252 . S
O310 In299 2.294 . S
O310 C303 1.240 . S
O311 In299 2.326 . S
O311 C303 1.252 . S
In312 O313 2.294 . S
In312 O314 2.326 . S
In312 O318 2.266 . S
In312 O319 2.326 . S
In312 O320 2.266 . S
In312 O321 2.326 . S
In312 O323 2.294 . S
In312 O324 2.326 . S
O313 In312 2.294 . S
O313 C322 1.240 . S
O314 In312 2.326 . S
O314 C322 1.252 . S
C315 O318 1.252 . S
C315 O319 1.260 . S
C316 O323 1.240 . S
C316 O324 1.252 . S
C317 O320 1.252 . S
C317 O321 1.260 . S
O318 In312 2.266 . S
O318 C315 1.252 . S
O319 In312 2.326 . S
O319 C315 1.260 . S
O320 In312 2.266 . S
O320 C317 1.252 . S
O321 In312 2.326 . S
O321 C317 1.260 . S
C322 O313 1.240 . S
C322 O314 1.252 . S
O323 In312 2.294 . S
O323 C316 1.240 . S
O324 In312 2.326 . S
O324 C316 1.252 . S
In325 O326 2.294 . S
In325 O327 2.326 . S
In325 O331 2.266 . S
In325 O332 2.326 . S
In325 O333 2.266 . S
In325 O334 2.326 . S
In325 O336 2.294 . S
In325 O337 2.326 . S
O326 In325 2.294 . S
O326 C335 1.240 . S
O327 In325 2.326 . S
O327 C335 1.252 . S
C328 O331 1.252 . S
C328 O332 1.260 . S
C329 O336 1.240 . S
C329 O337 1.252 . S
C330 O333 1.252 . S
C330 O334 1.260 . S
O331 In325 2.266 . S
O331 C328 1.252 . S
O332 In325 2.326 . S
O332 C328 1.260 . S
O333 In325 2.266 . S
O333 C330 1.252 . S
O334 In325 2.326 . S
O334 C330 1.260 . S
C335 O326 1.240 . S
C335 O327 1.252 . S
O336 In325 2.294 . S
O336 C329 1.240 . S
O337 In325 2.326 . S
O337 C329 1.252 . S
In338 O339 2.294 . S
In338 O340 2.326 . S
In338 O344 2.266 . S
In338 O345 2.326 . S
In338 O346 2.266 1_556 S
In338 O347 2.326 1_556 S
In338 O349 2.294 . S
In338 O350 2.326 . S
O339 In338 2.294 . S
O339 C348 1.240 . S
O340 In338 2.326 . S
O340 C348 1.252 . S
C341 O344 1.252 . S
C341 O345 1.260 . S
C342 O349 1.240 . S
C342 O350 1.252 . S
C343 O346 1.252 . S
C343 O347 1.260 . S
O344 In338 2.266 . S
O344 C341 1.252 . S
O345 In338 2.326 . S
O345 C341 1.260 . S
O346 In338 2.266 1_554 S
O346 C343 1.252 . S
O347 In338 2.326 1_554 S
O347 C343 1.260 . S
C348 O339 1.240 . S
C348 O340 1.252 . S
O349 In338 2.294 . S
O349 C342 1.240 . S
O350 In338 2.326 . S
O350 C342 1.252 . S
In351 O352 2.294 . S
In351 O353 2.326 . S
In351 O357 2.266 1_556 S
In351 O358 2.326 1_556 S
In351 O359 2.266 . S
In351 O360 2.326 . S
In351 O362 2.294 . S
In351 O363 2.326 . S
O352 In351 2.294 . S
O352 C361 1.240 . S
O353 In351 2.326 . S
O353 C361 1.252 . S
C354 O357 1.252 . S
C354 O358 1.260 . S
C355 O362 1.240 . S
C355 O363 1.252 . S
C356 O359 1.252 . S
C356 O360 1.260 . S
O357 In351 2.266 1_554 S
O357 C354 1.252 . S
O358 In351 2.326 1_554 S
O358 C354 1.260 . S
O359 In351 2.266 . S
O359 C356 1.252 . S
O360 In351 2.326 . S
O360 C356 1.260 . S
C361 O352 1.240 . S
C361 O353 1.252 . S
O362 In351 2.294 . S
O362 C355 1.240 . S
O363 In351 2.326 . S
O363 C355 1.252 . S
In364 O365 2.294 . S
In364 O366 2.326 . S
In364 O370 2.266 . S
In364 O371 2.326 . S
In364 O372 2.266 . S
In364 O373 2.326 . S
In364 O375 2.294 . S
In364 O376 2.326 . S
O365 In364 2.294 . S
O365 C374 1.240 . S
O366 In364 2.326 . S
O366 C374 1.252 . S
C367 O370 1.252 . S
C367 O371 1.260 . S
C368 O375 1.240 . S
C368 O376 1.252 . S
C369 O372 1.252 . S
C369 O373 1.260 . S
O370 In364 2.266 . S
O370 C367 1.252 . S
O371 In364 2.326 . S
O371 C367 1.260 . S
O372 In364 2.266 . S
O372 C369 1.252 . S
O373 In364 2.326 . S
O373 C369 1.260 . S
C374 O365 1.240 . S
C374 O366 1.252 . S
O375 In364 2.294 . S
O375 C368 1.240 . S
O376 In364 2.326 . S
O376 C368 1.252 . S
In377 O378 2.294 . S
In377 O379 2.326 . S
In377 O383 2.266 . S
In377 O384 2.326 . S
In377 O385 2.266 . S
In377 O386 2.326 . S
In377 O388 2.294 . S
In377 O389 2.326 . S
O378 In377 2.294 . S
O378 C387 1.240 . S
O379 In377 2.326 . S
O379 C387 1.252 . S
C380 O383 1.252 . S
C380 O384 1.260 . S
C381 O388 1.240 . S
C381 O389 1.252 . S
C382 O385 1.252 . S
C382 O386 1.260 . S
O383 In377 2.266 . S
O383 C380 1.252 . S
O384 In377 2.326 . S
O384 C380 1.260 . S
O385 In377 2.266 . S
O385 C382 1.252 . S
O386 In377 2.326 . S
O386 C382 1.260 . S
C387 O378 1.240 . S
C387 O379 1.252 . S
O388 In377 2.294 . S
O388 C381 1.240 . S
O389 In377 2.326 . S
O389 C381 1.252 . S
In390 O391 2.294 . S
In390 O392 2.326 . S
In390 O396 2.266 1_554 S
In390 O397 2.326 1_554 S
In390 O398 2.266 . S
In390 O399 2.326 . S
In390 O401 2.294 . S
In390 O402 2.326 . S
O391 In390 2.294 . S
O391 C400 1.240 . S
O392 In390 2.326 . S
O392 C400 1.252 . S
C393 O396 1.252 . S
C393 O397 1.260 . S
C394 O401 1.240 . S
C394 O402 1.252 . S
C395 O398 1.252 . S
C395 O399 1.260 . S
O396 In390 2.266 1_556 S
O396 C393 1.252 . S
O397 In390 2.326 1_556 S
O397 C393 1.260 . S
O398 In390 2.266 . S
O398 C395 1.252 . S
O399 In390 2.326 . S
O399 C395 1.260 . S
C400 O391 1.240 . S
C400 O392 1.252 . S
O401 In390 2.294 . S
O401 C394 1.240 . S
O402 In390 2.326 . S
O402 C394 1.252 . S
In403 O404 2.294 . S
In403 O405 2.326 . S
In403 O409 2.266 1_554 S
In403 O410 2.326 1_554 S
In403 O411 2.266 . S
In403 O412 2.326 . S
In403 O414 2.294 . S
In403 O415 2.326 . S
O404 In403 2.294 . S
O404 C413 1.240 . S
O405 In403 2.326 . S
O405 C413 1.252 . S
C406 O409 1.252 . S
C406 O410 1.260 . S
C407 O414 1.240 . S
C407 O415 1.252 . S
C408 O411 1.252 . S
C408 O412 1.260 . S
O409 In403 2.266 1_556 S
O409 C406 1.252 . S
O410 In403 2.326 1_556 S
O410 C406 1.260 . S
O411 In403 2.266 . S
O411 C408 1.252 . S
O412 In403 2.326 . S
O412 C408 1.260 . S
C413 O404 1.240 . S
C413 O405 1.252 . S
O414 In403 2.294 . S
O414 C407 1.240 . S
O415 In403 2.326 . S
O415 C407 1.252 . S
C416 C417 1.369 . S
C416 C418 1.419 . S
C416 H420 0.930 1_455 S
C417 C416 1.369 . S
C417 C426 1.429 . S
C418 C416 1.419 . S
C418 C419 1.363 . S
C418 H421 0.929 1_455 S
C419 C418 1.363 . S
C419 C425 1.428 . S
H420 C416 0.930 1_655 S
H421 C418 0.929 1_655 S
S422 N423 1.613 . S
S422 N424 1.610 . S
N423 S422 1.613 . S
N423 C426 1.350 . S
N424 S422 1.610 . S
N424 C425 1.351 . S
C425 C419 1.428 . S
C425 N424 1.351 . S
C425 C426 1.434 . S
C426 C417 1.429 . S
C426 N423 1.350 . S
C426 C425 1.434 . S
C427 C428 1.369 . S
C427 C429 1.419 . S
C427 H431 0.930 . S
C428 C427 1.369 . S
C428 C437 1.429 . S
C429 C427 1.419 . S
C429 C430 1.363 . S
C429 H432 0.929 . S
C430 C429 1.363 . S
C430 C436 1.428 . S
H431 C427 0.930 . S
H432 C429 0.929 . S
S433 N434 1.613 . S
S433 N435 1.610 . S
N434 S433 1.613 . S
N434 C437 1.350 . S
N435 S433 1.610 . S
N435 C436 1.351 . S
C436 C430 1.428 . S
C436 N435 1.351 . S
C436 C437 1.434 . S
C437 C428 1.429 . S
C437 N434 1.350 . S
C437 C436 1.434 . S
C438 C439 1.369 . S
C438 C440 1.419 . S
C438 H442 0.930 . S
C439 C438 1.369 . S
C439 C448 1.429 . S
C440 C438 1.419 . S
C440 C441 1.363 . S
C440 H443 0.929 . S
C441 C440 1.363 . S
C441 C447 1.428 . S
H442 C438 0.930 . S
H443 C440 0.929 . S
S444 N445 1.613 . S
S444 N446 1.610 . S
N445 S444 1.613 . S
N445 C448 1.350 1_655 S
N446 S444 1.610 . S
N446 C447 1.351 1_655 S
C447 C441 1.428 . S
C447 N446 1.351 1_455 S
C447 C448 1.434 . S
C448 C439 1.429 . S
C448 N445 1.350 1_455 S
C448 C447 1.434 . S
C449 C450 1.369 . S
C449 C451 1.419 . S
C449 H453 0.930 . S
C450 C449 1.369 . S
C450 C459 1.429 . S
C451 C449 1.419 . S
C451 C452 1.363 . S
C451 H454 0.929 . S
C452 C451 1.363 . S
C452 C458 1.428 . S
H453 C449 0.930 . S
H454 C451 0.929 . S
S455 N456 1.613 . S
S455 N457 1.610 . S
N456 S455 1.613 . S
N456 C459 1.350 . S
N457 S455 1.610 . S
N457 C458 1.351 . S
C458 C452 1.428 . S
C458 N457 1.351 . S
C458 C459 1.434 . S
C459 C450 1.429 . S
C459 N456 1.350 . S
C459 C458 1.434 . S
C460 C461 1.369 . S
C460 C462 1.419 . S
C460 H464 0.930 . S
C461 C460 1.369 . S
C461 C470 1.429 . S
C462 C460 1.419 . S
C462 C463 1.363 . S
C462 H465 0.929 . S
C463 C462 1.363 . S
C463 C469 1.428 . S
H464 C460 0.930 . S
H465 C462 0.929 . S
S466 N467 1.613 . S
S466 N468 1.610 . S
N467 S466 1.613 . S
N467 C470 1.350 . S
N468 S466 1.610 . S
N468 C469 1.351 . S
C469 C463 1.428 . S
C469 N468 1.351 . S
C469 C470 1.434 . S
C470 C461 1.429 . S
C470 N467 1.350 . S
C470 C469 1.434 . S
C471 C472 1.369 . S
C471 C473 1.419 . S
C471 H475 0.930 . S
C472 C471 1.369 . S
C472 C481 1.429 . S
C473 C471 1.419 . S
C473 C474 1.363 . S
C473 H476 0.929 . S
C474 C473 1.363 . S
C474 C480 1.428 . S
H475 C471 0.930 . S
H476 C473 0.929 . S
S477 N478 1.613 . S
S477 N479 1.610 . S
N478 S477 1.613 . S
N478 C481 1.350 . S
N479 S477 1.610 . S
N479 C480 1.351 . S
C480 C474 1.428 . S
C480 N479 1.351 . S
C480 C481 1.434 . S
C481 C472 1.429 . S
C481 N478 1.350 . S
C481 C480 1.434 . S
C482 C483 1.369 . S
C482 C484 1.419 . S
C482 H486 0.930 . S
C483 C482 1.369 . S
C483 C492 1.429 . S
C484 C482 1.419 . S
C484 C485 1.363 . S
C484 H487 0.929 . S
C485 C484 1.363 . S
C485 C491 1.428 . S
H486 C482 0.930 . S
H487 C484 0.929 . S
S488 N489 1.613 . S
S488 N490 1.610 . S
N489 S488 1.613 . S
N489 C492 1.350 . S
N490 S488 1.610 . S
N490 C491 1.351 . S
C491 C485 1.428 . S
C491 N490 1.351 . S
C491 C492 1.434 . S
C492 C483 1.429 . S
C492 N489 1.350 . S
C492 C491 1.434 . S
C493 C494 1.369 . S
C493 C495 1.419 . S
C493 H497 0.930 . S
C494 C493 1.369 . S
C494 C503 1.429 . S
C495 C493 1.419 . S
C495 C496 1.363 . S
C495 H498 0.929 . S
C496 C495 1.363 . S
C496 C502 1.428 . S
H497 C493 0.930 . S
H498 C495 0.929 . S
S499 N500 1.613 . S
S499 N501 1.610 . S
N500 S499 1.613 . S
N500 C503 1.350 . S
N501 S499 1.610 . S
N501 C502 1.351 . S
C502 C496 1.428 . S
C502 N501 1.351 . S
C502 C503 1.434 . S
C503 C494 1.429 . S
C503 N500 1.350 . S
C503 C502 1.434 . S
C504 C505 1.369 . S
C504 C506 1.419 . S
C504 H508 0.930 . S
C505 C504 1.369 . S
C505 C514 1.429 . S
C506 C504 1.419 . S
C506 C507 1.363 . S
C506 H509 0.929 . S
C507 C506 1.363 . S
C507 C513 1.428 . S
H508 C504 0.930 . S
H509 C506 0.929 . S
S510 N511 1.613 . S
S510 N512 1.610 . S
N511 S510 1.613 . S
N511 C514 1.350 . S
N512 S510 1.610 . S
N512 C513 1.351 . S
C513 C507 1.428 . S
C513 N512 1.351 . S
C513 C514 1.434 . S
C514 C505 1.429 . S
C514 N511 1.350 . S
C514 C513 1.434 . S
C515 C516 1.369 . S
C515 C517 1.419 . S
C515 H519 0.930 . S
C516 C515 1.369 . S
C516 C525 1.429 . S
C517 C515 1.419 . S
C517 C518 1.363 . S
C517 H520 0.929 . S
C518 C517 1.363 . S
C518 C524 1.428 . S
H519 C515 0.930 . S
H520 C517 0.929 . S
S521 N522 1.613 . S
S521 N523 1.610 . S
N522 S521 1.613 . S
N522 C525 1.350 . S
N523 S521 1.610 . S
N523 C524 1.351 . S
C524 C518 1.428 . S
C524 N523 1.351 . S
C524 C525 1.434 . S
C525 C516 1.429 . S
C525 N522 1.350 . S
C525 C524 1.434 . S
C526 C527 1.369 . S
C526 C528 1.419 . S
C526 H530 0.930 . S
C527 C526 1.369 . S
C527 C536 1.429 . S
C528 C526 1.419 . S
C528 C529 1.363 . S
C528 H531 0.929 . S
C529 C528 1.363 . S
C529 C535 1.428 . S
H530 C526 0.930 . S
H531 C528 0.929 . S
S532 N533 1.613 . S
S532 N534 1.610 . S
N533 S532 1.613 . S
N533 C536 1.350 . S
N534 S532 1.610 . S
N534 C535 1.351 . S
C535 C529 1.428 . S
C535 N534 1.351 . S
C535 C536 1.434 . S
C536 C527 1.429 . S
C536 N533 1.350 . S
C536 C535 1.434 . S
C537 C538 1.369 . S
C537 C539 1.419 . S
C537 H541 0.930 . S
C538 C537 1.369 . S
C538 C547 1.429 . S
C539 C537 1.419 . S
C539 C540 1.363 . S
C539 H542 0.929 . S
C540 C539 1.363 . S
C540 C546 1.428 . S
H541 C537 0.930 . S
H542 C539 0.929 . S
S543 N544 1.613 . S
S543 N545 1.610 . S
N544 S543 1.613 . S
N544 C547 1.350 . S
N545 S543 1.610 . S
N545 C546 1.351 . S
C546 C540 1.428 . S
C546 N545 1.351 . S
C546 C547 1.434 . S
C547 C538 1.429 . S
C547 N544 1.350 . S
C547 C546 1.434 . S
C548 C549 1.369 . S
C548 C550 1.419 . S
C548 H552 0.930 . S
C549 C548 1.369 . S
C549 C558 1.429 . S
C550 C548 1.419 . S
C550 C551 1.363 . S
C550 H553 0.929 . S
C551 C550 1.363 . S
C551 C557 1.428 . S
H552 C548 0.930 . S
H553 C550 0.929 . S
S554 N555 1.613 . S
S554 N556 1.610 . S
N555 S554 1.613 . S
N555 C558 1.350 . S
N556 S554 1.610 . S
N556 C557 1.351 . S
C557 C551 1.428 . S
C557 N556 1.351 . S
C557 C558 1.434 . S
C558 C549 1.429 . S
C558 N555 1.350 . S
C558 C557 1.434 . S
C559 C560 1.369 . S
C559 C561 1.419 . S
C559 H563 0.930 . S
C560 C559 1.369 . S
C560 C569 1.429 . S
C561 C559 1.419 . S
C561 C562 1.363 . S
C561 H564 0.929 . S
C562 C561 1.363 . S
C562 C568 1.428 . S
H563 C559 0.930 . S
H564 C561 0.929 . S
S565 N566 1.613 . S
S565 N567 1.610 . S
N566 S565 1.613 . S
N566 C569 1.350 . S
N567 S565 1.610 . S
N567 C568 1.351 . S
C568 C562 1.428 . S
C568 N567 1.351 . S
C568 C569 1.434 . S
C569 C560 1.429 . S
C569 N566 1.350 . S
C569 C568 1.434 . S
C570 C571 1.369 . S
C570 C572 1.419 . S
C570 H574 0.930 . S
C571 C570 1.369 . S
C571 C580 1.429 . S
C572 C570 1.419 . S
C572 C573 1.363 . S
C572 H575 0.929 . S
C573 C572 1.363 . S
C573 C579 1.428 . S
H574 C570 0.930 . S
H575 C572 0.929 . S
S576 N577 1.613 . S
S576 N578 1.610 . S
N577 S576 1.613 . S
N577 C580 1.350 . S
N578 S576 1.610 . S
N578 C579 1.351 . S
C579 C573 1.428 . S
C579 N578 1.351 . S
C579 C580 1.434 . S
C580 C571 1.429 . S
C580 N577 1.350 . S
C580 C579 1.434 . S
C581 C582 1.369 . S
C581 C583 1.419 . S
C581 H585 0.930 . S
C582 C581 1.369 . S
C582 C591 1.429 . S
C583 C581 1.419 . S
C583 C584 1.363 . S
C583 H586 0.929 . S
C584 C583 1.363 . S
C584 C590 1.428 . S
H585 C581 0.930 . S
H586 C583 0.929 . S
S587 N588 1.613 . S
S587 N589 1.610 . S
N588 S587 1.613 . S
N588 C591 1.350 . S
N589 S587 1.610 . S
N589 C590 1.351 . S
C590 C584 1.428 . S
C590 N589 1.351 . S
C590 C591 1.434 . S
C591 C582 1.429 . S
C591 N588 1.350 . S
C591 C590 1.434 . S
C592 C593 1.369 . S
C592 C594 1.419 . S
C592 H596 0.930 . S
C593 C592 1.369 . S
C593 C602 1.429 . S
C594 C592 1.419 . S
C594 C595 1.363 . S
C594 H597 0.929 . S
C595 C594 1.363 . S
C595 C601 1.428 . S
H596 C592 0.930 . S
H597 C594 0.929 . S
S598 N599 1.613 . S
S598 N600 1.610 . S
N599 S598 1.613 . S
N599 C602 1.350 . S
N600 S598 1.610 . S
N600 C601 1.351 . S
C601 C595 1.428 . S
C601 N600 1.351 . S
C601 C602 1.434 . S
C602 C593 1.429 . S
C602 N599 1.350 . S
C602 C601 1.434 . S
C603 C604 1.369 . S
C603 C605 1.419 . S
C603 H607 0.930 . S
C604 C603 1.369 . S
C604 C613 1.429 . S
C605 C603 1.419 . S
C605 C606 1.363 . S
C605 H608 0.929 . S
C606 C605 1.363 . S
C606 C612 1.428 . S
H607 C603 0.930 . S
H608 C605 0.929 . S
S609 N610 1.613 . S
S609 N611 1.610 . S
N610 S609 1.613 . S
N610 C613 1.350 . S
N611 S609 1.610 . S
N611 C612 1.351 . S
C612 C606 1.428 . S
C612 N611 1.351 . S
C612 C613 1.434 . S
C613 C604 1.429 . S
C613 N610 1.350 . S
C613 C612 1.434 . S
C614 C615 1.369 . S
C614 C616 1.419 . S
C614 H618 0.930 . S
C615 C614 1.369 . S
C615 C624 1.429 . S
C616 C614 1.419 . S
C616 C617 1.363 . S
C616 H619 0.929 . S
C617 C616 1.363 . S
C617 C623 1.428 . S
H618 C614 0.930 . S
H619 C616 0.929 . S
S620 N621 1.613 . S
S620 N622 1.610 . S
N621 S620 1.613 . S
N621 C624 1.350 . S
N622 S620 1.610 . S
N622 C623 1.351 . S
C623 C617 1.428 . S
C623 N622 1.351 . S
C623 C624 1.434 . S
C624 C615 1.429 . S
C624 N621 1.350 . S
C624 C623 1.434 . S
C625 C626 1.369 . S
C625 C627 1.419 . S
C625 H629 0.930 . S
C626 C625 1.369 . S
C626 C635 1.429 . S
C627 C625 1.419 . S
C627 C628 1.363 . S
C627 H630 0.929 . S
C628 C627 1.363 . S
C628 C634 1.428 . S
H629 C625 0.930 . S
H630 C627 0.929 . S
S631 N632 1.613 . S
S631 N633 1.610 . S
N632 S631 1.613 . S
N632 C635 1.350 . S
N633 S631 1.610 . S
N633 C634 1.351 . S
C634 C628 1.428 . S
C634 N633 1.351 . S
C634 C635 1.434 . S
C635 C626 1.429 . S
C635 N632 1.350 . S
C635 C634 1.434 . S
C636 C637 1.369 . S
C636 C638 1.419 . S
C636 H640 0.930 . S
C637 C636 1.369 . S
C637 C646 1.429 . S
C638 C636 1.419 . S
C638 C639 1.363 . S
C638 H641 0.929 . S
C639 C638 1.363 . S
C639 C645 1.428 . S
H640 C636 0.930 . S
H641 C638 0.929 . S
S642 N643 1.613 . S
S642 N644 1.610 . S
N643 S642 1.613 . S
N643 C646 1.350 . S
N644 S642 1.610 . S
N644 C645 1.351 . S
C645 C639 1.428 . S
C645 N644 1.351 . S
C645 C646 1.434 . S
C646 C637 1.429 . S
C646 N643 1.350 . S
C646 C645 1.434 . S
C647 C648 1.369 . S
C647 C649 1.419 . S
C647 H651 0.930 . S
C648 C647 1.369 . S
C648 C657 1.429 . S
C649 C647 1.419 . S
C649 C650 1.363 . S
C649 H652 0.929 . S
C650 C649 1.363 . S
C650 C656 1.428 . S
H651 C647 0.930 . S
H652 C649 0.929 . S
S653 N654 1.613 . S
S653 N655 1.610 . S
N654 S653 1.613 . S
N654 C657 1.350 . S
N655 S653 1.610 . S
N655 C656 1.351 . S
C656 C650 1.428 . S
C656 N655 1.351 . S
C656 C657 1.434 . S
C657 C648 1.429 . S
C657 N654 1.350 . S
C657 C656 1.434 . S
C658 C659 1.369 . S
C658 C660 1.419 . S
C658 H662 0.930 . S
C659 C658 1.369 . S
C659 C668 1.429 . S
C660 C658 1.419 . S
C660 C661 1.363 . S
C660 H663 0.929 . S
C661 C660 1.363 . S
C661 C667 1.428 . S
H662 C658 0.930 . S
H663 C660 0.929 . S
S664 N665 1.613 . S
S664 N666 1.610 . S
N665 S664 1.613 . S
N665 C668 1.350 . S
N666 S664 1.610 . S
N666 C667 1.351 . S
C667 C661 1.428 . S
C667 N666 1.351 . S
C667 C668 1.434 . S
C668 C659 1.429 . S
C668 N665 1.350 . S
C668 C667 1.434 . S
C669 C670 1.369 . S
C669 C671 1.419 . S
C669 H673 0.930 . S
C670 C669 1.369 . S
C670 C679 1.429 . S
C671 C669 1.419 . S
C671 C672 1.363 . S
C671 H674 0.929 . S
C672 C671 1.363 . S
C672 C678 1.428 . S
H673 C669 0.930 . S
H674 C671 0.929 . S
S675 N676 1.613 . S
S675 N677 1.610 . S
N676 S675 1.613 . S
N676 C679 1.350 . S
N677 S675 1.610 . S
N677 C678 1.351 . S
C678 C672 1.428 . S
C678 N677 1.351 . S
C678 C679 1.434 . S
C679 C670 1.429 . S
C679 N676 1.350 . S
C679 C678 1.434 . S
C680 C681 1.369 . S
C680 C682 1.419 . S
C680 H684 0.930 . S
C681 C680 1.369 . S
C681 C690 1.429 . S
C682 C680 1.419 . S
C682 C683 1.363 . S
C682 H685 0.929 . S
C683 C682 1.363 . S
C683 C689 1.428 . S
H684 C680 0.930 . S
H685 C682 0.929 . S
S686 N687 1.613 . S
S686 N688 1.610 . S
N687 S686 1.613 . S
N687 C690 1.350 . S
N688 S686 1.610 . S
N688 C689 1.351 . S
C689 C683 1.428 . S
C689 N688 1.351 . S
C689 C690 1.434 . S
C690 C681 1.429 . S
C690 N687 1.350 . S
C690 C689 1.434 . S
C691 C692 1.369 . S
C691 C693 1.419 . S
C691 H695 0.930 . S
C692 C691 1.369 . S
C692 C701 1.429 . S
C693 C691 1.419 . S
C693 C694 1.363 . S
C693 H696 0.929 . S
C694 C693 1.363 . S
C694 C700 1.428 . S
H695 C691 0.930 . S
H696 C693 0.929 . S
S697 N698 1.613 . S
S697 N699 1.610 . S
N698 S697 1.613 . S
N698 C701 1.350 . S
N699 S697 1.610 . S
N699 C700 1.351 . S
C700 C694 1.428 . S
C700 N699 1.351 . S
C700 C701 1.434 . S
C701 C692 1.429 . S
C701 N698 1.350 . S
C701 C700 1.434 . S
C702 C703 1.369 . S
C702 C704 1.419 . S
C702 H706 0.930 . S
C703 C702 1.369 . S
C703 C712 1.429 . S
C704 C702 1.419 . S
C704 C705 1.363 . S
C704 H707 0.929 . S
C705 C704 1.363 . S
C705 C711 1.428 . S
H706 C702 0.930 . S
H707 C704 0.929 . S
S708 N709 1.613 . S
S708 N710 1.610 . S
N709 S708 1.613 . S
N709 C712 1.350 . S
N710 S708 1.610 . S
N710 C711 1.351 . S
C711 C705 1.428 . S
C711 N710 1.351 . S
C711 C712 1.434 . S
C712 C703 1.429 . S
C712 N709 1.350 . S
C712 C711 1.434 . S
C713 C714 1.369 . S
C713 C715 1.419 . S
C713 H717 0.930 . S
C714 C713 1.369 . S
C714 C723 1.429 . S
C715 C713 1.419 . S
C715 C716 1.363 . S
C715 H718 0.929 . S
C716 C715 1.363 . S
C716 C722 1.428 . S
H717 C713 0.930 . S
H718 C715 0.929 . S
S719 N720 1.613 . S
S719 N721 1.610 . S
N720 S719 1.613 . S
N720 C723 1.350 . S
N721 S719 1.610 . S
N721 C722 1.351 . S
C722 C716 1.428 . S
C722 N721 1.351 . S
C722 C723 1.434 . S
C723 C714 1.429 . S
C723 N720 1.350 . S
C723 C722 1.434 . S
C724 C725 1.369 . S
C724 C726 1.419 . S
C724 H728 0.930 . S
C725 C724 1.369 . S
C725 C734 1.429 . S
C726 C724 1.419 . S
C726 C727 1.363 . S
C726 H729 0.929 . S
C727 C726 1.363 . S
C727 C733 1.428 . S
H728 C724 0.930 . S
H729 C726 0.929 . S
S730 N731 1.613 . S
S730 N732 1.610 . S
N731 S730 1.613 . S
N731 C734 1.350 . S
N732 S730 1.610 . S
N732 C733 1.351 . S
C733 C727 1.428 . S
C733 N732 1.351 . S
C733 C734 1.434 . S
C734 C725 1.429 . S
C734 N731 1.350 . S
C734 C733 1.434 . S
C735 C736 1.369 . S
C735 C737 1.419 . S
C735 H739 0.930 . S
C736 C735 1.369 . S
C736 C745 1.429 . S
C737 C735 1.419 . S
C737 C738 1.363 . S
C737 H740 0.929 . S
C738 C737 1.363 . S
C738 C744 1.428 . S
H739 C735 0.930 . S
H740 C737 0.929 . S
S741 N742 1.613 . S
S741 N743 1.610 . S
N742 S741 1.613 . S
N742 C745 1.350 . S
N743 S741 1.610 . S
N743 C744 1.351 . S
C744 C738 1.428 . S
C744 N743 1.351 . S
C744 C745 1.434 . S
C745 C736 1.429 . S
C745 N742 1.350 . S
C745 C744 1.434 . S
C746 C747 1.369 . S
C746 C748 1.419 . S
C746 H750 0.930 . S
C747 C746 1.369 . S
C747 C756 1.429 . S
C748 C746 1.419 . S
C748 C749 1.363 . S
C748 H751 0.929 . S
C749 C748 1.363 . S
C749 C755 1.428 . S
H750 C746 0.930 . S
H751 C748 0.929 . S
S752 N753 1.613 . S
S752 N754 1.610 . S
N753 S752 1.613 . S
N753 C756 1.350 . S
N754 S752 1.610 . S
N754 C755 1.351 . S
C755 C749 1.428 . S
C755 N754 1.351 . S
C755 C756 1.434 . S
C756 C747 1.429 . S
C756 N753 1.350 . S
C756 C755 1.434 . S
C757 C758 1.369 . S
C757 C759 1.419 . S
C757 H761 0.930 . S
C758 C757 1.369 . S
C758 C767 1.429 . S
C759 C757 1.419 . S
C759 C760 1.363 . S
C759 H762 0.929 . S
C760 C759 1.363 . S
C760 C766 1.428 . S
H761 C757 0.930 . S
H762 C759 0.929 . S
S763 N764 1.613 . S
S763 N765 1.610 . S
N764 S763 1.613 . S
N764 C767 1.350 . S
N765 S763 1.610 . S
N765 C766 1.351 . S
C766 C760 1.428 . S
C766 N765 1.351 . S
C766 C767 1.434 . S
C767 C758 1.429 . S
C767 N764 1.350 . S
C767 C766 1.434 . S
C768 C769 1.369 . S
C768 C770 1.419 . S
C768 H772 0.930 . S
C769 C768 1.369 . S
C769 C778 1.429 1_655 S
C770 C768 1.419 . S
C770 C771 1.363 1_655 S
C770 H773 0.929 . S
C771 C770 1.363 1_455 S
C771 C777 1.428 . S
H772 C768 0.930 . S
H773 C770 0.929 . S
S774 N775 1.613 . S
S774 N776 1.610 . S
N775 S774 1.613 . S
N775 C778 1.350 . S
N776 S774 1.610 . S
N776 C777 1.351 . S
C777 C771 1.428 . S
C777 N776 1.351 . S
C777 C778 1.434 . S
C778 C769 1.429 1_455 S
C778 N775 1.350 . S
C778 C777 1.434 . S
C779 C780 1.369 . S
C779 C781 1.419 1_565 S
C779 H783 0.930 . S
C780 C779 1.369 . S
C780 C789 1.429 . S
C781 C779 1.419 1_545 S
C781 C782 1.363 . S
C781 H784 0.929 . S
C782 C781 1.363 . S
C782 C788 1.428 . S
H783 C779 0.930 . S
H784 C781 0.929 . S
S785 N786 1.613 1_545 S
S785 N787 1.610 . S
N786 S785 1.613 1_565 S
N786 C789 1.350 . S
N787 S785 1.610 . S
N787 C788 1.351 . S
C788 C782 1.428 . S
C788 N787 1.351 . S
C788 C789 1.434 1_545 S
C789 C780 1.429 . S
C789 N786 1.350 . S
C789 C788 1.434 1_565 S
C790 C791 1.369 1_556 S
C790 C792 1.419 1_545 S
C790 H794 0.930 . S
C791 C790 1.369 1_554 S
C791 C800 1.429 1_655 S
C792 C790 1.419 1_565 S
C792 C793 1.363 1_655 S
C792 H795 0.929 . S
C793 C792 1.363 1_455 S
C793 C799 1.428 1_556 S
H794 C790 0.930 . S
H795 C792 0.929 . S
S796 N797 1.613 1_565 S
S796 N798 1.610 . S
N797 S796 1.613 1_545 S
N797 C800 1.350 . S
N798 S796 1.610 . S
N798 C799 1.351 . S
C799 C793 1.428 1_554 S
C799 N798 1.351 . S
C799 C800 1.434 1_565 S
C800 C791 1.429 1_455 S
C800 N797 1.350 . S
C800 C799 1.434 1_545 S
C801 C802 1.369 . S
C801 C803 1.419 . S
C801 H805 0.930 . S
C802 C801 1.369 . S
C802 C811 1.429 1_554 S
C803 C801 1.419 . S
C803 C804 1.363 1_554 S
C803 H806 0.929 . S
C804 C803 1.363 1_556 S
C804 C810 1.428 . S
H805 C801 0.930 . S
H806 C803 0.929 . S
S807 N808 1.613 . S
S807 N809 1.610 . S
N808 S807 1.613 . S
N808 C811 1.350 . S
N809 S807 1.610 . S
N809 C810 1.351 . S
C810 C804 1.428 . S
C810 N809 1.351 . S
C810 C811 1.434 . S
C811 C802 1.429 1_556 S
C811 N808 1.350 . S
C811 C810 1.434 . S
C812 C813 1.369 . S
C812 C814 1.419 . S
C812 H816 0.930 . S
C813 C812 1.369 . S
C813 C822 1.429 1_655 S
C814 C812 1.419 . S
C814 C815 1.363 1_655 S
C814 H817 0.929 . S
C815 C814 1.363 1_455 S
C815 C821 1.428 . S
H816 C812 0.930 . S
H817 C814 0.929 . S
S818 N819 1.613 . S
S818 N820 1.610 . S
N819 S818 1.613 . S
N819 C822 1.350 . S
N820 S818 1.610 . S
N820 C821 1.351 . S
C821 C815 1.428 . S
C821 N820 1.351 . S
C821 C822 1.434 . S
C822 C813 1.429 1_455 S
C822 N819 1.350 . S
C822 C821 1.434 . S
C823 C824 1.366 1_545 S
C823 C825 1.421 . S
C823 H827 0.930 . S
C824 C823 1.366 1_565 S
C824 C833 1.429 . S
C825 C823 1.421 . S
C825 C826 1.363 . S
C825 H828 0.929 . S
C826 C825 1.363 . S
C826 C832 1.381 1_545 S
H827 C823 0.930 . S
H828 C825 0.929 . S
S829 N830 1.613 . S
S829 N831 1.610 . S
N830 S829 1.613 . S
N830 C833 1.350 . S
N831 S829 1.610 . S
N831 C832 1.361 . S
C832 C826 1.381 1_565 S
C832 N831 1.361 . S
C832 C833 1.479 . S
C833 C824 1.429 . S
C833 N830 1.350 . S
C833 C832 1.479 . S
C834 C835 1.369 . S
C834 C836 1.419 1_556 S
C834 H838 0.930 . S
C835 C834 1.369 . S
C835 C844 1.429 . S
C836 C834 1.419 1_554 S
C836 C837 1.363 . S
C836 H839 0.929 . S
C837 C836 1.363 . S
C837 C843 1.428 . S
H838 C834 0.930 . S
H839 C836 0.929 . S
S840 N841 1.613 . S
S840 N842 1.610 1_556 S
N841 S840 1.613 . S
N841 C844 1.350 . S
N842 S840 1.610 1_554 S
N842 C843 1.351 . S
C843 C837 1.428 . S
C843 N842 1.351 . S
C843 C844 1.434 1_554 S
C844 C835 1.429 . S
C844 N841 1.350 . S
C844 C843 1.434 1_556 S
C845 C846 1.369 . S
C845 C847 1.419 . S
C845 H849 0.930 . S
C846 C845 1.369 . S
C846 C855 1.429 . S
C847 C845 1.419 . S
C847 C848 1.363 . S
C847 H850 0.929 . S
C848 C847 1.363 . S
C848 C854 1.428 . S
H849 C845 0.930 . S
H850 C847 0.929 . S
S851 N852 1.613 . S
S851 N853 1.610 . S
N852 S851 1.613 . S
N852 C855 1.350 . S
N853 S851 1.610 . S
N853 C854 1.351 . S
C854 C848 1.428 . S
C854 N853 1.351 . S
C854 C855 1.434 . S
C855 C846 1.429 . S
C855 N852 1.350 . S
C855 C854 1.434 . S
C856 C857 1.369 . S
C856 C858 1.419 . S
C856 H860 0.930 . S
C857 C856 1.369 . S
C857 C866 1.429 1_455 S
C858 C856 1.419 . S
C858 C859 1.363 1_455 S
C858 H861 0.929 . S
C859 C858 1.363 1_655 S
C859 C865 1.428 . S
H860 C856 0.930 . S
H861 C858 0.929 . S
S862 N863 1.613 . S
S862 N864 1.610 . S
N863 S862 1.613 . S
N863 C866 1.350 . S
N864 S862 1.610 . S
N864 C865 1.351 . S
C865 C859 1.428 . S
C865 N864 1.351 . S
C865 C866 1.434 . S
C866 C857 1.429 1_655 S
C866 N863 1.350 . S
C866 C865 1.434 . S
C867 C868 1.369 . S
C867 C869 1.419 . S
C867 H871 0.930 . S
C868 C867 1.369 . S
C868 C877 1.429 . S
C869 C867 1.419 . S
C869 C870 1.363 . S
C869 H872 0.929 . S
C870 C869 1.363 . S
C870 C876 1.428 . S
H871 C867 0.930 . S
H872 C869 0.929 . S
S873 N874 1.613 . S
S873 N875 1.610 . S
N874 S873 1.613 . S
N874 C877 1.350 . S
N875 S873 1.610 . S
N875 C876 1.351 . S
C876 C870 1.428 . S
C876 N875 1.351 . S
C876 C877 1.434 . S
C877 C868 1.429 . S
C877 N874 1.350 . S
C877 C876 1.434 . S
C878 C879 1.369 . S
C878 C880 1.419 . S
C878 H882 0.930 . S
C879 C878 1.369 . S
C879 C888 1.429 . S
C880 C878 1.419 . S
C880 C881 1.363 . S
C880 H883 0.929 . S
C881 C880 1.363 . S
C881 C887 1.428 . S
H882 C878 0.930 . S
H883 C880 0.929 . S
S884 N885 1.613 . S
S884 N886 1.610 . S
N885 S884 1.613 . S
N885 C888 1.350 . S
N886 S884 1.610 . S
N886 C887 1.351 . S
C887 C881 1.428 . S
C887 N886 1.351 . S
C887 C888 1.434 . S
C888 C879 1.429 . S
C888 N885 1.350 . S
C888 C887 1.434 . S
C889 C890 1.369 . S
C889 C891 1.419 . S
C889 H893 0.930 . S
C890 C889 1.369 . S
C890 C899 1.429 . S
C891 C889 1.419 . S
C891 C892 1.363 . S
C891 H894 0.929 . S
C892 C891 1.363 . S
C892 C898 1.428 . S
H893 C889 0.930 . S
H894 C891 0.929 . S
S895 N896 1.613 . S
S895 N897 1.610 . S
N896 S895 1.613 . S
N896 C899 1.350 . S
N897 S895 1.610 . S
N897 C898 1.351 . S
C898 C892 1.428 . S
C898 N897 1.351 . S
C898 C899 1.434 . S
C899 C890 1.429 . S
C899 N896 1.350 . S
C899 C898 1.434 . S
C900 C901 1.369 . S
C900 C902 1.419 . S
C900 H904 0.930 . S
C901 C900 1.369 . S
C901 C910 1.429 . S
C902 C900 1.419 . S
C902 C903 1.363 . S
C902 H905 0.929 . S
C903 C902 1.363 . S
C903 C909 1.428 . S
H904 C900 0.930 . S
H905 C902 0.929 . S
S906 N907 1.613 . S
S906 N908 1.610 . S
N907 S906 1.613 . S
N907 C910 1.350 . S
N908 S906 1.610 . S
N908 C909 1.351 . S
C909 C903 1.428 . S
C909 N908 1.351 . S
C909 C910 1.434 . S
C910 C901 1.429 . S
C910 N907 1.350 . S
C910 C909 1.434 . S
C911 C912 1.369 . S
C911 C913 1.419 1_545 S
C911 H915 0.930 . S
C912 C911 1.369 . S
C912 C921 1.446 . S
C913 C911 1.419 1_565 S
C913 C914 1.363 . S
C913 H916 0.929 . S
C914 C913 1.363 . S
C914 C920 1.428 . S
H915 C911 0.930 . S
H916 C913 0.929 . S
S917 N918 1.613 . S
S917 N919 1.610 . S
N918 S917 1.613 . S
N918 C921 1.348 1_565 S
N919 S917 1.610 . S
N919 C920 1.351 . S
C920 C914 1.428 . S
C920 N919 1.351 . S
C920 C921 1.417 1_565 S
C921 C912 1.446 . S
C921 N918 1.348 1_545 S
C921 C920 1.417 1_545 S
C922 C923 1.369 . S
C922 C924 1.419 . S
C922 H926 0.930 . S
C923 C922 1.369 . S
C923 C932 1.429 . S
C924 C922 1.419 . S
C924 C925 1.363 . S
C924 H927 0.929 . S
C925 C924 1.363 . S
C925 C931 1.428 . S
H926 C922 0.930 . S
H927 C924 0.929 . S
S928 N929 1.613 . S
S928 N930 1.610 . S
N929 S928 1.613 . S
N929 C932 1.350 . S
N930 S928 1.610 . S
N930 C931 1.351 . S
C931 C925 1.428 . S
C931 N930 1.351 . S
C931 C932 1.434 . S
C932 C923 1.429 . S
C932 N929 1.350 . S
C932 C931 1.434 . S
C933 C934 1.369 1_554 S
C933 C935 1.419 . S
C933 H937 0.930 . S
C934 C933 1.369 1_556 S
C934 C943 1.429 . S
C935 C933 1.419 . S
C935 C936 1.363 . S
C935 H938 0.929 . S
C936 C935 1.363 . S
C936 C942 1.428 1_554 S
H937 C933 0.930 . S
H938 C935 0.929 . S
S939 N940 1.613 . S
S939 N941 1.610 . S
N940 S939 1.613 . S
N940 C943 1.350 . S
N941 S939 1.610 . S
N941 C942 1.351 . S
C942 C936 1.428 1_556 S
C942 N941 1.351 . S
C942 C943 1.434 . S
C943 C934 1.429 . S
C943 N940 1.350 . S
C943 C942 1.434 . S
C944 C945 1.369 . S
C944 C946 1.419 . S
C944 H948 0.930 . S
C945 C944 1.369 . S
C945 C954 1.429 . S
C946 C944 1.419 . S
C946 C947 1.363 . S
C946 H949 0.929 . S
C947 C946 1.363 . S
C947 C953 1.428 . S
H948 C944 0.930 . S
H949 C946 0.929 . S
S950 N951 1.613 . S
S950 N952 1.610 . S
N951 S950 1.613 . S
N951 C954 1.350 . S
N952 S950 1.610 . S
N952 C953 1.351 . S
C953 C947 1.428 . S
C953 N952 1.351 . S
C953 C954 1.434 . S
C954 C945 1.429 . S
C954 N951 1.350 . S
C954 C953 1.434 . S
C955 C956 1.369 . S
C955 C957 1.419 . S
C955 H959 0.930 . S
C956 C955 1.369 . S
C956 C965 1.429 . S
C957 C955 1.419 . S
C957 C958 1.363 . S
C957 H960 0.929 . S
C958 C957 1.363 . S
C958 C964 1.428 . S
H959 C955 0.930 . S
H960 C957 0.929 . S
S961 N962 1.613 . S
S961 N963 1.610 . S
N962 S961 1.613 . S
N962 C965 1.350 . S
N963 S961 1.610 . S
N963 C964 1.351 . S
C964 C958 1.428 . S
C964 N963 1.351 . S
C964 C965 1.434 . S
C965 C956 1.429 . S
C965 N962 1.350 . S
C965 C964 1.434 . S
C966 C967 1.369 . S
C966 C968 1.419 . S
C966 H970 0.930 . S
C967 C966 1.369 . S
C967 C976 1.429 . S
C968 C966 1.419 . S
C968 C969 1.363 . S
C968 H971 0.929 . S
C969 C968 1.363 . S
C969 C975 1.428 . S
H970 C966 0.930 . S
H971 C968 0.929 . S
S972 N973 1.613 . S
S972 N974 1.610 . S
N973 S972 1.613 . S
N973 C976 1.350 . S
N974 S972 1.610 . S
N974 C975 1.351 . S
C975 C969 1.428 . S
C975 N974 1.351 . S
C975 C976 1.434 . S
C976 C967 1.429 . S
C976 N973 1.350 . S
C976 C975 1.434 . S
C977 C978 1.369 . S
C977 C979 1.419 . S
C977 H981 0.930 . S
C978 C977 1.369 . S
C978 C987 1.429 . S
C979 C977 1.419 . S
C979 C980 1.363 . S
C979 H982 0.929 . S
C980 C979 1.363 . S
C980 C986 1.428 . S
H981 C977 0.930 . S
H982 C979 0.929 . S
S983 N984 1.613 . S
S983 N985 1.610 . S
N984 S983 1.613 . S
N984 C987 1.350 . S
N985 S983 1.610 . S
N985 C986 1.351 . S
C986 C980 1.428 . S
C986 N985 1.351 . S
C986 C987 1.434 . S
C987 C978 1.429 . S
C987 N984 1.350 . S
C987 C986 1.434 . S
C988 C989 1.369 . S
C988 C990 1.419 . S
C988 H992 0.930 . S
C989 C988 1.369 . S
C989 C998 1.429 . S
C990 C988 1.419 . S
C990 C991 1.363 . S
C990 H993 0.929 . S
C991 C990 1.363 . S
C991 C997 1.428 . S
H992 C988 0.930 . S
H993 C990 0.929 . S
S994 N995 1.613 1_655 S
S994 N996 1.610 1_655 S
N995 S994 1.613 1_455 S
N995 C998 1.350 . S
N996 S994 1.610 1_455 S
N996 C997 1.351 . S
C997 C991 1.428 . S
C997 N996 1.351 . S
C997 C998 1.434 . S
C998 C989 1.429 . S
C998 N995 1.350 . S
C998 C997 1.434 . S
C999 C1000 1.369 . S
C999 C1001 1.419 . S
C999 H1003 0.930 . S
C1000 C999 1.369 . S
C1000 C1009 1.429 . S
C1001 C999 1.419 . S
C1001 C1002 1.363 . S
C1001 H1004 0.929 . S
C1002 C1001 1.363 . S
C1002 C1008 1.428 . S
H1003 C999 0.930 . S
H1004 C1001 0.929 . S
S1005 N1006 1.613 1_655 S
S1005 N1007 1.610 . S
N1006 S1005 1.613 1_455 S
N1006 C1009 1.350 . S
N1007 S1005 1.610 . S
N1007 C1008 1.351 1_655 S
C1008 C1002 1.428 . S
C1008 N1007 1.351 1_455 S
C1008 C1009 1.434 . S
C1009 C1000 1.429 . S
C1009 N1006 1.350 . S
C1009 C1008 1.434 . S
C1010 C1011 1.369 . S
C1010 C1012 1.419 . S
C1010 H1014 0.930 . S
C1011 C1010 1.369 . S
C1011 C1020 1.429 . S
C1012 C1010 1.419 . S
C1012 C1013 1.363 . S
C1012 H1015 0.929 . S
C1013 C1012 1.363 . S
C1013 C1019 1.428 . S
H1014 C1010 0.930 . S
H1015 C1012 0.929 . S
S1016 N1017 1.613 . S
S1016 N1018 1.610 . S
N1017 S1016 1.613 . S
N1017 C1020 1.350 . S
N1018 S1016 1.610 . S
N1018 C1019 1.351 . S
C1019 C1013 1.428 . S
C1019 N1018 1.351 . S
C1019 C1020 1.434 . S
C1020 C1011 1.429 . S
C1020 N1017 1.350 . S
C1020 C1019 1.434 . S
C1021 C1022 1.369 . S
C1021 C1023 1.419 . S
C1021 H1025 0.930 . S
C1022 C1021 1.369 . S
C1022 C1031 1.429 . S
C1023 C1021 1.419 . S
C1023 C1024 1.363 . S
C1023 H1026 0.929 . S
C1024 C1023 1.363 . S
C1024 C1030 1.428 . S
H1025 C1021 0.930 . S
H1026 C1023 0.929 . S
S1027 N1028 1.613 . S
S1027 N1029 1.610 . S
N1028 S1027 1.613 . S
N1028 C1031 1.350 . S
N1029 S1027 1.610 . S
N1029 C1030 1.351 . S
C1030 C1024 1.428 . S
C1030 N1029 1.351 . S
C1030 C1031 1.434 . S
C1031 C1022 1.429 . S
C1031 N1028 1.350 . S
C1031 C1030 1.434 . S
C1032 C1033 1.369 . S
C1032 C1034 1.419 . S
C1032 H1036 0.930 . S
C1033 C1032 1.369 . S
C1033 C1042 1.429 . S
C1034 C1032 1.419 . S
C1034 C1035 1.363 . S
C1034 H1037 0.929 . S
C1035 C1034 1.363 . S
C1035 C1041 1.428 . S
H1036 C1032 0.930 . S
H1037 C1034 0.929 . S
S1038 N1039 1.613 . S
S1038 N1040 1.610 . S
N1039 S1038 1.613 . S
N1039 C1042 1.350 . S
N1040 S1038 1.610 . S
N1040 C1041 1.351 . S
C1041 C1035 1.428 . S
C1041 N1040 1.351 . S
C1041 C1042 1.434 . S
C1042 C1033 1.429 . S
C1042 N1039 1.350 . S
C1042 C1041 1.434 . S
C1043 C1044 1.369 . S
C1043 C1045 1.419 . S
C1043 H1047 0.930 . S
C1044 C1043 1.369 . S
C1044 C1053 1.429 . S
C1045 C1043 1.419 . S
C1045 C1046 1.363 . S
C1045 H1048 0.929 . S
C1046 C1045 1.363 . S
C1046 C1052 1.428 . S
H1047 C1043 0.930 . S
H1048 C1045 0.929 . S
S1049 N1050 1.613 . S
S1049 N1051 1.610 . S
N1050 S1049 1.613 . S
N1050 C1053 1.350 . S
N1051 S1049 1.610 . S
N1051 C1052 1.351 . S
C1052 C1046 1.428 . S
C1052 N1051 1.351 . S
C1052 C1053 1.434 . S
C1053 C1044 1.429 . S
C1053 N1050 1.350 . S
C1053 C1052 1.434 . S
C1054 C1055 1.369 . S
C1054 C1056 1.419 . S
C1054 H1058 0.930 . S
C1055 C1054 1.369 . S
C1055 C1064 1.429 . S
C1056 C1054 1.419 . S
C1056 C1057 1.363 . S
C1056 H1059 0.929 . S
C1057 C1056 1.363 . S
C1057 C1063 1.428 . S
H1058 C1054 0.930 . S
H1059 C1056 0.929 . S
S1060 N1061 1.613 . S
S1060 N1062 1.610 . S
N1061 S1060 1.613 . S
N1061 C1064 1.350 . S
N1062 S1060 1.610 . S
N1062 C1063 1.351 . S
C1063 C1057 1.428 . S
C1063 N1062 1.351 . S
C1063 C1064 1.434 . S
C1064 C1055 1.429 . S
C1064 N1061 1.350 . S
C1064 C1063 1.434 . S
C1065 C1066 1.369 . S
C1065 C1067 1.419 . S
C1065 H1069 0.930 . S
C1066 C1065 1.369 . S
C1066 C1075 1.429 . S
C1067 C1065 1.419 . S
C1067 C1068 1.363 . S
C1067 H1070 0.929 . S
C1068 C1067 1.363 . S
C1068 C1074 1.428 . S
H1069 C1065 0.930 . S
H1070 C1067 0.929 . S
S1071 N1072 1.613 . S
S1071 N1073 1.610 . S
N1072 S1071 1.613 . S
N1072 C1075 1.350 . S
N1073 S1071 1.610 . S
N1073 C1074 1.351 . S
C1074 C1068 1.428 . S
C1074 N1073 1.351 . S
C1074 C1075 1.434 . S
C1075 C1066 1.429 . S
C1075 N1072 1.350 . S
C1075 C1074 1.434 . S
C1076 C1077 1.369 . S
C1076 C1078 1.419 . S
C1076 H1080 0.930 . S
C1077 C1076 1.369 . S
C1077 C1086 1.429 . S
C1078 C1076 1.419 . S
C1078 C1079 1.363 . S
C1078 H1081 0.929 . S
C1079 C1078 1.363 . S
C1079 C1085 1.428 . S
H1080 C1076 0.930 . S
H1081 C1078 0.929 . S
S1082 N1083 1.613 . S
S1082 N1084 1.610 . S
N1083 S1082 1.613 . S
N1083 C1086 1.350 . S
N1084 S1082 1.610 . S
N1084 C1085 1.351 . S
C1085 C1079 1.428 . S
C1085 N1084 1.351 . S
C1085 C1086 1.434 . S
C1086 C1077 1.429 . S
C1086 N1083 1.350 . S
C1086 C1085 1.434 . S
C1087 C1088 1.369 . S
C1087 C1089 1.419 . S
C1087 H1091 0.930 . S
C1088 C1087 1.369 . S
C1088 C1097 1.429 . S
C1089 C1087 1.419 . S
C1089 C1090 1.363 . S
C1089 H1092 0.929 . S
C1090 C1089 1.363 . S
C1090 C1096 1.428 . S
H1091 C1087 0.930 . S
H1092 C1089 0.929 . S
S1093 N1094 1.613 . S
S1093 N1095 1.610 . S
N1094 S1093 1.613 . S
N1094 C1097 1.350 . S
N1095 S1093 1.610 . S
N1095 C1096 1.351 . S
C1096 C1090 1.428 . S
C1096 N1095 1.351 . S
C1096 C1097 1.434 . S
C1097 C1088 1.429 . S
C1097 N1094 1.350 . S
C1097 C1096 1.434 . S
C1098 C1099 1.369 . S
C1098 C1100 1.419 . S
C1098 H1102 0.930 . S
C1099 C1098 1.369 . S
C1099 C1108 1.429 . S
C1100 C1098 1.419 . S
C1100 C1101 1.363 . S
C1100 H1103 0.929 . S
C1101 C1100 1.363 . S
C1101 C1107 1.428 . S
H1102 C1098 0.930 . S
H1103 C1100 0.929 . S
S1104 N1105 1.613 . S
S1104 N1106 1.610 . S
N1105 S1104 1.613 . S
N1105 C1108 1.350 . S
N1106 S1104 1.610 . S
N1106 C1107 1.351 . S
C1107 C1101 1.428 . S
C1107 N1106 1.351 . S
C1107 C1108 1.434 . S
C1108 C1099 1.429 . S
C1108 N1105 1.350 . S
C1108 C1107 1.434 . S
C1109 C1110 1.369 . S
C1109 C1111 1.419 . S
C1109 H1113 0.930 . S
C1110 C1109 1.369 . S
C1110 C1119 1.429 . S
C1111 C1109 1.419 . S
C1111 C1112 1.363 . S
C1111 H1114 0.929 . S
C1112 C1111 1.363 . S
C1112 C1118 1.428 . S
H1113 C1109 0.930 . S
H1114 C1111 0.929 . S
S1115 N1116 1.613 . S
S1115 N1117 1.610 . S
N1116 S1115 1.613 . S
N1116 C1119 1.350 . S
N1117 S1115 1.610 . S
N1117 C1118 1.351 . S
C1118 C1112 1.428 . S
C1118 N1117 1.351 . S
C1118 C1119 1.434 . S
C1119 C1110 1.429 . S
C1119 N1116 1.350 . S
C1119 C1118 1.434 . S
C417 C134 1.413 . S
C419 C10 1.415 . S
C428 C17 1.418 . S
C430 C153 1.415 . S
C439 C36 1.419 . S
C441 C114 1.417 . S
C450 C127 1.419 . S
C452 C43 1.415 . S
C461 C192 1.418 . S
C463 C56 1.414 . S
C472 C75 1.414 . S
C474 C205 1.418 . S
C483 C166 1.418 . S
C485 C82 1.414 . S
C494 C173 1.416 . S
C496 C95 1.418 . S
C505 C348 1.418 . S
C507 C212 1.414 . S
C516 C355 1.415 . S
C518 C225 1.418 . S
C527 C322 1.413 . S
C529 C238 1.415 . S
C538 C251 1.417 . S
C540 C329 1.418 . S
C549 C394 1.414 . S
C551 C264 1.418 . S
C560 C407 1.419 . S
C562 C277 1.415 . S
C571 C290 1.414 . S
C573 C374 1.418 . S
C582 C303 1.415 . S
C584 C387 1.418 . S
C593 C257 1.393 . S
C595 C4 1.394 . S
C604 C23 1.395 1_655 S
C606 C244 1.391 . S
C615 C231 1.392 . S
C617 C30 1.390 . S
C626 C218 1.391 . S
C628 C49 1.394 1_655 S
C637 C62 1.395 . S
C639 C309 1.392 . S
C648 C69 1.389 1_455 S
C650 C296 1.393 . S
C659 C283 1.390 . S
C661 C88 1.394 . S
C670 C101 1.389 1_455 S
C672 C270 1.394 . S
C681 C361 1.394 . S
C683 C108 1.393 . S
C692 C342 1.393 . S
C694 C121 1.394 1_655 S
C703 C335 1.391 . S
C705 C140 1.390 . S
C714 C316 1.392 . S
C716 C147 1.390 1_655 S
C725 C160 1.389 . S
C727 C413 1.393 . S
C736 C400 1.394 . S
C738 C179 1.390 1_455 S
C747 C186 1.393 . S
C749 C381 1.394 . S
C758 C199 1.391 1_455 S
C760 C368 1.391 . S
C769 C159 1.423 . S
C771 C3 1.428 . S
C780 C18 1.423 . S
C782 C278 1.428 . S
C791 C83 1.429 . S
C793 C29 1.423 . S
C802 C408 1.422 . S
C804 C44 1.428 . S
C813 C57 1.425 . S
C815 C107 1.427 . S
C824 C226 1.424 . S
C826 C68 1.427 . S
C835 C356 1.423 . S
C837 C96 1.427 . S
C846 C380 1.426 . S
C848 C120 1.425 . S
C857 C135 1.429 . S
C859 C185 1.423 . S
C868 C304 1.430 . S
C870 C146 1.423 . S
C879 C330 1.422 . S
C881 C174 1.429 . S
C890 C198 1.429 . S
C892 C252 1.424 . S
C901 C213 1.427 . S
C903 C367 1.425 . S
C912 C291 1.427 . S
C914 C239 1.425 . S
C923 C315 1.427 . S
C925 C265 1.425 . S
C934 C341 1.430 . S
C936 C395 1.423 . S
C945 C5 1.361 . S
C947 C42 1.366 . S
C956 C31 1.366 . S
C958 C16 1.364 . S
C967 C55 1.364 . S
C969 C94 1.365 . S
C978 C70 1.367 . S
C980 C81 1.362 . S
C989 C109 1.364 . S
C991 C148 1.362 . S
C1000 C122 1.362 . S
C1002 C133 1.366 . S
C1011 C161 1.365 . S
C1013 C200 1.365 . S
C1022 C187 1.361 . S
C1024 C172 1.364 . S
C1033 C250 1.362 . S
C1035 C211 1.363 . S
C1044 C237 1.363 . S
C1046 C224 1.366 . S
C1055 C302 1.363 . S
C1057 C263 1.362 . S
C1066 C289 1.361 . S
C1068 C276 1.365 . S
C1077 C354 1.367 . S
C1079 C317 1.363 . S
C1088 C343 1.364 . S
C1090 C328 1.362 . S
C1099 C369 1.366 . S
C1101 C406 1.364 . S
C1110 C393 1.365 . S
C1112 C382 1.365 . S
