# Generated by pormake.
# Topology wkb, (5)-cn, num edge types: 1
# Building blocks:
#     Node 0, Type 0, BuildingBlock: XOMCOT_clean_sbu_1, # of connection points: 5
#     Node 1, Type 0, BuildingBlock: XOMCOT_clean_sbu_1, # of connection points: 5
#     Node 2, Type 0, BuildingBlock: XOMCOT_clean_sbu_1, # of connection points: 5
#     Node 3, Type 0, BuildingBlock: XOMCOT_clean_sbu_1, # of connection points: 5
#     Node 4, Type 0, BuildingBlock: XOMCOT_clean_sbu_1, # of connection points: 5
#     Node 5, Type 0, BuildingBlock: XOMCOT_clean_sbu_1, # of connection points: 5
#     Node 6, Type 0, BuildingBlock: XOMCOT_clean_sbu_1, # of connection points: 5
#     Node 7, Type 0, BuildingBlock: XOMCOT_clean_sbu_1, # of connection points: 5
#     Node 8, Type 0, BuildingBlock: XOMCOT_clean_sbu_1, # of connection points: 5
#     Node 9, Type 0, BuildingBlock: XOMCOT_clean_sbu_1, # of connection points: 5
#     Node 10, Type 0, BuildingBlock: XOMCOT_clean_sbu_1, # of connection points: 5
#     Node 11, Type 0, BuildingBlock: XOMCOT_clean_sbu_1, # of connection points: 5
#     Edge 12, Type (0, 0), BuildingBlock: AJUNOK_clean_linker_0, # of connection points: 2
#     Edge 13, Type (0, 0), BuildingBlock: AJUNOK_clean_linker_0, # of connection points: 2
#     Edge 14, Type (0, 0), BuildingBlock: AJUNOK_clean_linker_0, # of connection points: 2
#     Edge 15, Type (0, 0), BuildingBlock: AJUNOK_clean_linker_0, # of connection points: 2
#     Edge 16, Type (0, 0), BuildingBlock: AJUNOK_clean_linker_0, # of connection points: 2
#     Edge 17, Type (0, 0), BuildingBlock: AJUNOK_clean_linker_0, # of connection points: 2
#     Edge 18, Type (0, 0), BuildingBlock: AJUNOK_clean_linker_0, # of connection points: 2
#     Edge 19, Type (0, 0), BuildingBlock: AJUNOK_clean_linker_0, # of connection points: 2
#     Edge 20, Type (0, 0), BuildingBlock: AJUNOK_clean_linker_0, # of connection points: 2
#     Edge 21, Type (0, 0), BuildingBlock: AJUNOK_clean_linker_0, # of connection points: 2
#     Edge 22, Type (0, 0), BuildingBlock: AJUNOK_clean_linker_0, # of connection points: 2
#     Edge 23, Type (0, 0), BuildingBlock: AJUNOK_clean_linker_0, # of connection points: 2
#     Edge 24, Type (0, 0), BuildingBlock: AJUNOK_clean_linker_0, # of connection points: 2
#     Edge 25, Type (0, 0), BuildingBlock: AJUNOK_clean_linker_0, # of connection points: 2
#     Edge 26, Type (0, 0), BuildingBlock: AJUNOK_clean_linker_0, # of connection points: 2
#     Edge 27, Type (0, 0), BuildingBlock: AJUNOK_clean_linker_0, # of connection points: 2
#     Edge 28, Type (0, 0), BuildingBlock: AJUNOK_clean_linker_0, # of connection points: 2
#     Edge 29, Type (0, 0), BuildingBlock: AJUNOK_clean_linker_0, # of connection points: 2
#     Edge 30, Type (0, 0), BuildingBlock: AJUNOK_clean_linker_0, # of connection points: 2
#     Edge 31, Type (0, 0), BuildingBlock: AJUNOK_clean_linker_0, # of connection points: 2
#     Edge 32, Type (0, 0), BuildingBlock: AJUNOK_clean_linker_0, # of connection points: 2
#     Edge 33, Type (0, 0), BuildingBlock: AJUNOK_clean_linker_0, # of connection points: 2
#     Edge 34, Type (0, 0), BuildingBlock: AJUNOK_clean_linker_0, # of connection points: 2
#     Edge 35, Type (0, 0), BuildingBlock: AJUNOK_clean_linker_0, # of connection points: 2
#     Edge 36, Type (0, 0), BuildingBlock: AJUNOK_clean_linker_0, # of connection points: 2
#     Edge 37, Type (0, 0), BuildingBlock: AJUNOK_clean_linker_0, # of connection points: 2
#     Edge 38, Type (0, 0), BuildingBlock: AJUNOK_clean_linker_0, # of connection points: 2
#     Edge 39, Type (0, 0), BuildingBlock: AJUNOK_clean_linker_0, # of connection points: 2
#     Edge 40, Type (0, 0), BuildingBlock: AJUNOK_clean_linker_0, # of connection points: 2
#     Edge 41, Type (0, 0), BuildingBlock: AJUNOK_clean_linker_0, # of connection points: 2
# Relax obj value: 0.084
# Max RMSD: 0.112
# Mean RMSD: 0.112
data_MOF--net-wkb--node1-XOMCOT_clean_sbu_1--edge1-AJUNOK_clean_linker_0
_symmetry_space_group_name_H-M    P1
_symmetry_Int_Tables_number       1
_symmetry_cell_setting            triclinic
loop_
_symmetry_equiv_pos_as_xyz
'x, y, z'
_cell_length_a     34.68741
_cell_length_b     34.714067
_cell_length_c     29.292553
_cell_angle_alpha  90.021633
_cell_angle_beta   89.968823
_cell_angle_gamma 119.96353
loop_
_atom_site_label
_atom_site_type_symbol
_atom_site_fract_x
_atom_site_fract_y
_atom_site_fract_z
_atom_type_partial_charge
C0 C 0.12524 0.40322 0.97969 0.0
C1 C 0.11711 0.40364 0.93413 0.0
N2 N 0.08699 0.36198 0.92165 0.0
N3 N 0.09968 0.36168 0.99608 0.0
C4 C 0.07682 0.33691 0.95979 0.0
H5 H 0.14831 0.43144 0.99997 0.0
Co6 Co 0.10462 0.34993 0.05632 0.0
C7 C 1.00644 0.28502 0.0771 0.0
O8 O 0.99925 0.31682 0.09068 0.0
N9 N 0.11148 0.33921 0.11736 0.0
C10 C 0.10291 0.32962 0.19249 0.0
C11 C 0.08477 0.3347 0.15304 0.0
C12 C 0.14571 0.33686 0.13611 0.0
N13 N 0.14138 0.33131 0.18179 0.0
O14 O 0.13027 0.31388 0.03502 0.0
H15 H 0.055 0.33703 0.15127 0.0
H16 H 0.17344 0.33952 0.11669 0.0
O17 O 1.04427 0.29445 0.05976 0.0
C18 C 0.16997 0.33818 0.01995 0.0
O19 O 0.18988 0.38117 0.02766 0.0
N20 N 0.08434 0.39023 0.0736 0.0
C21 C 0.07401 0.4651 0.08413 0.0
C22 C 1.04645 0.43048 0.0545 0.0
C23 C 1.0526 0.39386 0.04917 0.0
C24 C 0.11179 0.42406 0.10218 0.0
C25 C 0.10678 0.4613 0.10845 0.0
H26 H 1.03283 0.36909 0.02388 0.0
H27 H 0.13962 0.42367 0.11831 0.0
H28 H 0.05299 0.30168 0.96141 0.0
H29 H 0.13232 0.43222 0.91168 0.0
H30 H 0.08981 0.3268 0.22664 0.0
H31 H 1.02124 0.43235 0.03439 0.0
H32 H 0.13013 0.48808 0.13016 0.0
C33 C 0.76951 0.11071 0.14417 0.0
C34 C 0.76015 0.10353 0.09869 0.0
N35 N 0.76505 0.06901 0.08595 0.0
N36 N 0.78043 0.08101 0.1602 0.0
C37 C 0.77799 0.05611 0.12371 0.0
H38 H 0.7682 0.13592 0.16471 0.0
Co39 Co 0.7961 0.08477 0.22084 0.0
C40 C 0.76184 0.98648 0.24111 0.0
O41 O 0.72258 0.97974 0.25307 0.0
N42 N 0.81294 0.09082 0.28226 0.0
C43 C 0.81308 0.08228 0.35753 0.0
C44 C 0.79032 0.06413 0.31779 0.0
C45 C 0.84934 0.12488 0.3014 0.0
N46 N 0.84997 0.12069 0.34712 0.0
O47 O 0.85789 0.11069 0.20025 0.0
H48 H 0.75821 1.03442 0.31567 0.0
H49 H 0.87474 0.15254 0.28234 0.0
O50 O 0.79091 1.02416 0.22404 0.0
C51 C 0.87267 0.1513 0.18878 0.0
O52 O 0.84969 0.1702 0.20153 0.0
N53 N 0.73532 0.06477 0.23724 0.0
C54 C 0.65066 0.05659 0.24544 0.0
C55 C 0.65798 1.02958 0.21518 0.0
C56 C 0.70039 1.03444 0.2113 0.0
C57 C 0.72871 0.09164 0.2665 0.0
C58 C 0.68669 0.08747 0.2718 0.0
H59 H 0.70556 1.01501 0.18572 0.0
H60 H 0.75662 0.1184 0.28411 0.0
H61 H 0.78448 1.02869 0.12497 0.0
H62 H 0.75025 0.12208 0.0766 0.0
H63 H 0.80235 0.06932 0.39165 0.0
H64 H 0.63186 1.00658 0.19264 0.0
H65 H 0.6829 0.10959 0.29511 0.0
C66 C 0.69095 0.7494 0.31383 0.0
C67 C 0.68826 0.74039 0.26818 0.0
N68 N 0.72757 0.74542 0.2546 0.0
N69 N 0.7316 0.75968 0.32916 0.0
C70 C 0.7536 0.75742 0.2922 0.0
H71 H 0.66482 0.74831 0.33492 0.0
Co72 Co 0.7458 0.77534 0.38938 0.0
C73 C 0.80746 0.73668 0.40292 0.0
O74 O 0.77421 0.69646 0.40975 0.0
N75 N 0.75969 0.79234 0.45027 0.0
C76 C 0.77513 0.79295 0.52401 0.0
C77 C 0.76696 0.76996 0.48382 0.0
C78 C 0.76349 0.82875 0.47098 0.0
N79 N 0.77312 0.82998 0.51575 0.0
O80 O 0.78305 0.83677 0.36808 0.0
H81 H 0.76486 0.73806 0.47998 0.0
H82 H 0.75744 0.85291 0.45411 0.0
O83 O 0.79981 0.76769 0.39012 0.0
C84 C 0.75869 0.8535 0.35729 0.0
O85 O 0.71696 0.83237 0.37072 0.0
N86 N 0.70353 0.71484 0.40698 0.0
C87 C 0.62527 0.63205 0.41894 0.0
C88 C 0.65656 0.63778 0.38548 0.0
C89 C 0.69484 0.67929 0.37963 0.0
C90 C 0.67329 0.7095 0.43998 0.0
C91 C 0.63482 0.66835 0.4473 0.0
H92 H 0.71667 0.68313 0.35151 0.0
H93 H 0.67733 0.73776 0.45938 0.0
H94 H 0.78734 0.76337 0.29307 0.0
H95 H 0.65958 0.73073 0.24652 0.0
H96 H 0.7811 0.7828 0.55696 0.0
H97 H 0.65038 0.61105 0.36219 0.0
H98 H 0.61191 0.66557 0.47392 0.0
C99 C 0.97561 0.67127 0.47974 0.0
C100 C 0.9832 0.66975 0.4342 0.0
N101 N 1.01757 0.70948 0.42204 0.0
N102 N 1.00496 0.71176 0.49625 0.0
C103 C 1.03 0.73479 0.46013 0.0
H104 H 0.95031 0.64447 0.49992 0.0
Co105 Co 1.00153 0.72363 0.55677 0.0
C106 C 0.10022 0.78962 0.57493 0.0
O107 O 0.10919 0.75845 0.58618 0.0
N108 N 0.99645 0.73459 0.61835 0.0
C109 C 1.00819 0.74291 0.6933 0.0
C110 C 1.02428 0.73789 0.65245 0.0
C111 C 0.96373 0.73802 0.63948 0.0
N112 N 0.97012 0.7428 0.68496 0.0
O113 O 0.97509 0.75913 0.53663 0.0
H114 H 0.05352 0.73481 0.64853 0.0
H115 H 0.93489 0.73534 0.62234 0.0
O116 O 0.06159 0.7793 0.55926 0.0
C117 C 0.93439 0.73314 0.52562 0.0
O118 O 0.91556 0.69171 0.53972 0.0
N119 N 1.02201 0.68329 0.57267 0.0
C120 C 1.03142 0.6078 0.58245 0.0
C121 C 0.059 0.64234 0.55269 0.0
C122 C 0.05327 0.67931 0.54772 0.0
C123 C 0.99429 0.64934 0.60099 0.0
C124 C 0.99887 0.61185 0.60692 0.0
H125 H 0.07289 0.70396 0.52228 0.0
H126 H 0.96663 0.64993 0.6173 0.0
H127 H 0.05713 0.76879 0.46184 0.0
H128 H 0.96491 0.64164 0.41167 0.0
H129 H 1.02273 0.74553 0.72666 0.0
H130 H 0.08391 0.64018 0.53231 0.0
H131 H 0.97537 0.58511 0.62858 0.0
C132 C 0.34449 0.96186 0.64962 0.0
C133 C 0.35489 0.97002 0.60439 0.0
N134 N 0.34551 1.00144 0.59081 0.0
N135 N 0.32942 0.9886 0.66486 0.0
C136 C 0.32998 1.0123 0.62811 0.0
H137 H 0.34778 0.93796 0.67048 0.0
Co138 Co 0.31167 0.98398 0.72487 0.0
C139 C 0.34677 0.08166 0.74819 0.0
O140 O 0.38383 0.08612 0.76467 0.0
N141 N 0.29294 0.9774 0.7859 0.0
C142 C 0.29148 0.98592 0.86105 0.0
C143 C 0.31646 1.00192 0.82225 0.0
C144 C 0.25365 0.9465 0.8038 0.0
N145 N 0.25184 0.95125 0.84938 0.0
O146 O 0.25052 0.95979 0.70224 0.0
H147 H 0.35057 1.02838 0.82157 0.0
H148 H 0.2271 0.92045 0.78405 0.0
O149 O 0.31848 0.04531 0.72818 0.0
C150 C 0.23443 0.91975 0.68795 0.0
O151 O 0.25631 0.8989 0.69741 0.0
N152 N 0.37162 1.00273 0.74301 0.0
C153 C 0.45606 1.01145 0.75341 0.0
C154 C 0.44981 0.03992 0.72444 0.0
C155 C 0.4074 1.03466 0.71923 0.0
C156 C 0.37722 0.97437 0.77096 0.0
C157 C 0.4192 0.97869 0.77733 0.0
H158 H 0.40296 0.05528 0.69454 0.0
H159 H 0.3486 0.94657 0.78658 0.0
H160 H 0.31994 0.03722 0.62885 0.0
H161 H 0.36785 0.95375 0.58284 0.0
H162 H 0.30267 0.99735 0.89548 0.0
H163 H 0.47723 0.06513 0.70468 0.0
H164 H 0.42223 0.95486 0.79866 0.0
C165 C 0.41782 0.3238 0.81484 0.0
C166 C 0.41856 0.33106 0.76894 0.0
N167 N 0.37769 0.32221 0.75625 0.0
N168 N 0.37683 0.31094 0.83123 0.0
C169 C 0.3527 0.30984 0.79462 0.0
H170 H 0.44549 0.32777 0.83536 0.0
Co171 Co 0.36493 0.29596 0.89204 0.0
C172 C 0.30063 0.32993 0.91116 0.0
O173 O 0.33267 0.36908 0.92393 0.0
N174 N 0.35374 0.27965 0.95369 0.0
C175 C 0.3437 0.28015 0.02867 0.0
C176 C 0.3504 0.30318 0.98874 0.0
C177 C 0.34885 0.24233 0.97337 0.0
N178 N 0.34243 0.2417 0.0189 0.0
O179 O 0.32888 0.23403 0.87206 0.0
H180 H 0.35474 0.33609 0.98622 0.0
H181 H 0.35063 0.21632 0.95486 0.0
O182 O 0.30976 0.30117 0.89432 0.0
C183 C 0.35423 0.21905 0.85925 0.0
O184 O 0.39654 0.24202 0.87036 0.0
N185 N 0.40556 0.35708 0.90784 0.0
C186 C 0.48297 0.44138 0.91352 0.0
C187 C 0.44831 0.43373 0.88354 0.0
C188 C 0.41016 0.39156 0.88112 0.0
C189 C 0.4387 0.36436 0.93786 0.0
C190 C 0.47659 0.40639 0.94244 0.0
H191 H 0.38539 0.38599 0.8556 0.0
H192 H 0.43726 0.33698 0.95683 0.0
H193 H 0.31808 0.30106 0.79619 0.0
H194 H 0.447 0.34225 0.74651 0.0
H195 H 0.34231 0.29197 0.06248 0.0
H196 H 0.45158 0.45935 0.86016 0.0
H197 H 0.50152 0.41067 0.96727 0.0
C198 C 0.688 0.95104 0.85031 0.0
C199 C 0.68696 0.95867 0.89588 0.0
N200 N 0.72635 0.99389 0.90739 0.0
N201 N 0.72786 0.9812 0.83305 0.0
C202 C 0.75102 1.00685 0.86883 0.0
H203 H 0.6612 0.92524 0.83057 0.0
Co204 Co 0.73816 0.97736 0.77205 0.0
C205 C 0.80117 0.07305 0.74539 0.0
O206 O 0.76845 0.07603 0.72684 0.0
N207 N 0.7474 0.9713 0.70957 0.0
C208 C 0.75191 0.97785 0.63379 0.0
C209 C 0.74221 0.99241 0.67323 0.0
C210 C 0.76025 0.94393 0.69087 0.0
N211 N 0.76347 0.9475 0.64499 0.0
O212 O 0.77445 0.95163 0.7909 0.0
H213 H 0.72992 1.01542 0.67439 0.0
H214 H 0.76645 0.92108 0.71019 0.0
O215 O 0.79327 0.03808 0.76818 0.0
C216 C 0.74953 0.91091 0.80267 0.0
O217 O 0.70767 0.89112 0.78986 0.0
N218 N 0.69747 0.99745 0.75833 0.0
C219 C 0.62262 1.00816 0.75511 0.0
C220 C 0.66034 0.03763 0.78025 0.0
C221 C 0.69709 1.03128 0.78205 0.0
C222 C 0.66064 0.96816 0.73426 0.0
C223 C 0.62338 0.97354 0.73128 0.0
H224 H 0.72473 0.05261 0.80392 0.0
H225 H 0.65928 0.93917 0.71891 0.0
H226 H 0.78454 1.03482 0.86651 0.0
H227 H 0.65928 0.94004 0.91886 0.0
H228 H 0.74817 0.98697 0.59943 0.0
H229 H 0.66098 0.06464 0.7994 0.0
H230 H 0.59446 0.94939 0.71244 0.0
C231 C 0.75359 0.66743 0.01259 0.0
C232 C 0.74336 0.66477 0.05799 0.0
N233 N 0.75619 0.70606 0.07299 0.0
N234 N 0.77201 0.71009 0.99886 0.0
C235 C 0.7735 0.73314 0.03649 0.0
H236 H 0.74854 0.6401 0.99086 0.0
Co237 Co 0.79359 0.72664 0.94052 0.0
C238 C 0.80922 0.81671 0.92516 0.0
O239 O 0.85184 0.82974 0.92327 0.0
N240 N 0.81505 0.74164 0.88143 0.0
C241 C 0.81851 0.7554 0.80713 0.0
C242 C 0.79523 0.75054 0.84654 0.0
C243 C 0.85015 0.74116 0.86255 0.0
N244 N 0.85279 0.74907 0.81721 0.0
O245 O 0.85308 0.76309 0.96691 0.0
H246 H 0.76474 0.75173 0.84928 0.0
H247 H 0.8728 0.73443 0.88164 0.0
O248 O 0.78195 0.77697 0.93876 0.0
C249 C 0.86868 0.739 0.98192 0.0
O250 O 0.84705 0.69636 0.97218 0.0
N251 N 0.73581 0.68737 0.91773 0.0
C252 C 0.65213 0.61123 0.90651 0.0
C253 C 0.65671 0.64838 0.93053 0.0
C254 C 0.69882 0.68636 0.93537 0.0
C255 C 0.73158 0.65305 0.89145 0.0
C256 C 0.68996 0.61535 0.88431 0.0
H257 H 0.70226 0.71296 0.95727 0.0
H258 H 0.76095 0.65354 0.87828 0.0
H259 H 0.78698 0.76877 0.0371 0.0
H260 H 0.72842 0.63496 0.07872 0.0
H261 H 0.80976 0.7611 0.77333 0.0
H262 H 0.62866 0.6471 0.94817 0.0
H263 H 0.68802 0.58872 0.86342 0.0
C264 C 0.13351 0.75567 0.18446 0.0
C265 C 0.12724 0.74657 0.23008 0.0
N266 N 0.0925 0.75084 0.2435 0.0
N267 N 0.10298 0.76576 0.16916 0.0
C268 C 0.07852 0.7631 0.2061 0.0
H269 H 0.15846 0.75449 0.1633 0.0
Co270 Co 0.1038 0.7795 0.10844 0.0
C271 C 1.00474 0.74601 0.09317 0.0
O272 O 0.9965 0.70643 0.0806 0.0
N273 N 0.10649 0.79419 0.04654 0.0
C274 C 0.09247 0.79107 0.97207 0.0
C275 C 0.07825 0.76926 0.01293 0.0
C276 C 0.13764 0.83106 0.02507 0.0
N277 N 0.12967 0.82999 0.97988 0.0
O278 O 0.13059 0.8418 0.12728 0.0
H279 H 1.04999 0.73639 0.0171 0.0
H280 H 0.16659 0.85745 0.04177 0.0
O281 O 1.04344 0.77466 0.10842 0.0
C282 C 0.17174 0.85746 0.13703 0.0
O283 O 0.19091 0.83519 0.1228 0.0
N284 N 0.0827 0.71835 0.09392 0.0
C285 C 0.07313 0.63317 0.0884 0.0
C286 C 1.04617 0.64154 0.11765 0.0
C287 C 1.05216 0.68439 0.12067 0.0
C288 C 0.10897 0.71052 0.06499 0.0
C289 C 0.10418 0.66813 0.0611 0.0
H290 H 1.03327 0.69064 0.146 0.0
H291 H 0.13575 0.73781 0.04668 0.0
H292 H 1.05036 0.76848 0.20533 0.0
H293 H 0.14634 0.73697 0.25172 0.0
H294 H 0.07724 0.77892 0.93901 0.0
H295 H 1.02157 0.61555 0.13923 0.0
H296 H 0.12641 0.66342 0.03878 0.0
C297 C 0.41931 0.11047 0.35093 0.0
C298 C 0.42131 0.10274 0.39632 0.0
N299 N 0.38063 0.07086 0.40971 0.0
N300 N 0.3778 0.08303 0.33541 0.0
C301 C 0.35457 0.05932 0.37213 0.0
H302 H 0.44649 0.13445 0.3301 0.0
Co303 Co 0.36535 0.08677 0.275 0.0
C304 C 0.302 0.98801 0.25552 0.0
O305 O 0.33458 0.98115 0.24417 0.0
N306 N 0.35385 0.09245 0.21377 0.0
C307 C 0.34328 0.08164 0.13889 0.0
C308 C 0.34964 0.0651 0.17882 0.0
C309 C 0.34987 0.12541 0.19407 0.0
N310 N 0.34327 0.11941 0.14863 0.0
O311 O 0.32834 0.1115 0.29606 0.0
H312 H 0.35284 0.03587 0.18147 0.0
H313 H 0.35349 0.15414 0.21228 0.0
O314 O 0.31049 1.02585 0.27201 0.0
C315 C 0.35168 0.15169 0.31011 0.0
O316 O 0.39458 0.17285 0.30155 0.0
N317 N 0.40661 0.06733 0.25803 0.0
C318 C 0.4824 0.05816 0.24803 0.0
C319 C 0.44868 1.03175 0.27906 0.0
C320 C 0.41152 0.03709 0.28383 0.0
C321 C 0.43962 0.09381 0.22815 0.0
C322 C 0.47715 0.08917 0.22197 0.0
H323 H 0.38741 1.01799 0.30993 0.0
H324 H 0.43826 0.12046 0.21054 0.0
H325 H 0.31983 1.03381 0.37114 0.0
H326 H 0.4503 0.11958 0.41807 0.0
H327 H 0.33981 0.06753 0.10514 0.0
H328 H 0.45198 1.00877 0.30148 0.0
H329 H 0.50267 0.11092 0.19815 0.0
C330 C 0.33658 0.39647 0.51977 0.0
C331 C 0.34496 0.39723 0.56539 0.0
N332 N 0.33794 0.35684 0.57736 0.0
N333 N 0.32477 0.35596 0.50282 0.0
C334 C 0.32547 0.33208 0.53885 0.0
H335 H 0.33938 0.42393 0.49974 0.0
Co336 Co 0.31037 0.34528 0.44188 0.0
C337 C 0.34431 0.28035 0.42319 0.0
O338 O 0.38465 0.31199 0.41329 0.0
N339 N 0.29511 0.33554 0.3801 0.0
C340 C 0.29905 0.32828 0.30504 0.0
C341 C 0.31948 0.33191 0.34603 0.0
C342 C 0.25986 0.33393 0.35882 0.0
N343 N 0.26179 0.32983 0.31323 0.0
O344 O 0.24821 0.3088 0.46094 0.0
H345 H 0.35126 0.33382 0.35011 0.0
H346 H 0.23422 0.3375 0.37599 0.0
O347 O 0.31538 0.29004 0.43835 0.0
C348 C 0.23266 0.33375 0.47334 0.0
O349 O 0.25535 0.37602 0.46213 0.0
N350 N 0.37146 0.3864 0.42687 0.0
C351 C 0.45534 0.46405 0.42113 0.0
C352 C 0.44857 0.42889 0.44983 0.0
C353 C 0.40637 0.39077 0.45274 0.0
C354 C 0.37793 0.4203 0.39835 0.0
C355 C 0.41961 0.45863 0.39408 0.0
H356 H 0.4012 0.36582 0.47785 0.0
H357 H 0.35007 0.41911 0.38056 0.0
H358 H 0.31823 0.29798 0.5367 0.0
H359 H 0.35591 0.42543 0.58808 0.0
H360 H 0.31101 0.32558 0.27171 0.0
H361 H 0.47496 0.43184 0.4719 0.0
H362 H 0.42327 0.48463 0.37104 0.0
C363 C 0.97073 0.31413 0.68533 0.0
C364 C 0.9775 0.32229 0.73103 0.0
N365 N 1.01198 0.31716 0.74342 0.0
N366 N 1.00093 0.30411 0.66878 0.0
C367 C 1.02566 0.30583 0.70508 0.0
H368 H 0.9458 0.3161 0.66493 0.0
Co369 Co 0.99898 0.29126 0.60769 0.0
C370 C 0.09824 0.32682 0.59025 0.0
O371 O 0.10556 0.36666 0.58024 0.0
N372 N 0.99502 0.27738 0.54562 0.0
C373 C 1.0076 0.28151 0.4708 0.0
C374 C 1.02322 0.30226 0.51193 0.0
C375 C 0.9625 0.24158 0.52397 0.0
N376 N 0.96936 0.24355 0.47854 0.0
O377 O 0.97315 0.22864 0.62538 0.0
H378 H 1.05246 0.3344 0.51631 0.0
H379 H 0.93349 0.21531 0.54075 0.0
O380 O 0.05989 0.29701 0.6053 0.0
C381 C 0.93231 0.21238 0.63701 0.0
O382 O 0.91243 0.23488 0.6261 0.0
N383 N 1.01911 0.35267 0.5942 0.0
C384 C 1.02936 0.43821 0.5884 0.0
C385 C 0.05572 0.42948 0.61812 0.0
C386 C 1.04932 0.38648 0.62134 0.0
C387 C 0.99312 0.36076 0.56511 0.0
C388 C 0.99828 0.40331 0.56106 0.0
H389 H 0.06811 0.38017 0.6467 0.0
H390 H 0.96643 0.33364 0.54655 0.0
H391 H 0.05386 0.30058 0.70315 0.0
H392 H 0.95907 0.33212 0.75344 0.0
H393 H 1.02273 0.29366 0.4377 0.0
H394 H 0.08034 0.45539 0.63975 0.0
H395 H 0.97643 0.40824 0.53844 0.0
C396 C 0.18594 0.30339 0.28538 0.0
C397 C 0.23204 0.33034 0.27977 0.0
C398 C 0.1565 0.30326 0.25268 0.0
C399 C 0.17232 0.33038 0.21362 0.0
H400 H 0.17273 0.28199 0.31497 0.0
H401 H 0.12111 0.2817 0.25785 0.0
S402 S 0.29031 0.41029 0.18605 0.0
N403 N 0.29235 0.38655 0.23412 0.0
N404 N 0.23703 0.3871 0.17295 0.0
C405 C 0.21845 0.35803 0.20813 0.0
C406 C 0.24834 0.35786 0.24122 0.0
C407 C 0.8925 0.13712 0.41866 0.0
C408 C 0.88119 0.15217 0.37903 0.0
C409 C 0.9214 0.16719 0.4512 0.0
C410 C 0.94009 0.21317 0.44488 0.0
H411 H 0.87897 0.10187 0.4244 0.0
H412 H 0.92956 0.15458 0.48129 0.0
S413 S 0.91805 0.26946 0.34943 0.0
N414 N 0.88861 0.21601 0.33704 0.0
N415 N 0.94366 0.27244 0.3979 0.0
C416 C 0.92886 0.22867 0.40574 0.0
C417 C 0.89922 0.19815 0.37281 0.0
C418 C 0.75428 0.84526 0.5919 0.0
C419 C 0.77455 0.86084 0.54916 0.0
C420 C 0.75218 0.8741 0.62375 0.0
C421 C 0.77034 0.91952 0.61393 0.0
H422 H 0.7384 0.81021 0.6001 0.0
H423 H 0.73458 0.8604 0.65547 0.0
S424 S 0.83239 0.97776 0.50935 0.0
N425 N 0.81682 0.925 0.50026 0.0
N426 N 0.81302 0.97955 0.56037 0.0
C427 C 0.79248 0.93589 0.57213 0.0
C428 C 0.79453 0.90644 0.53964 0.0
C429 C 0.92478 0.77372 0.71354 0.0
C430 C 0.94069 0.74395 0.71835 0.0
C431 C 0.89666 0.77575 0.7465 0.0
C432 C 0.88323 0.74767 0.78496 0.0
H433 H 0.93473 0.79591 0.68445 0.0
H434 H 0.8855 0.79958 0.74202 0.0
S435 S 0.91248 0.66057 0.80992 0.0
N436 N 0.93956 0.68423 0.76237 0.0
N437 N 0.88555 0.68688 0.82386 0.0
C438 C 0.89834 0.71707 0.78947 0.0
C439 C 0.92734 0.71545 0.75618 0.0
C440 C 0.19535 0.87559 0.87237 0.0
C441 C 0.21782 0.92165 0.88037 0.0
C442 C 0.16577 0.84586 0.90465 0.0
C443 C 0.15782 0.86121 0.94604 0.0
H444 H 0.20202 0.86233 0.84184 0.0
H445 H 0.15024 0.81054 0.89795 0.0
S446 S 0.20348 0.97869 0.98061 0.0
N447 N 0.22662 0.9814 0.93053 0.0
N448 N 0.17127 0.92519 0.99156 0.0
C449 C 0.17858 0.90715 0.95367 0.0
C450 C 0.20849 0.93748 0.9207 0.0
C451 C 0.36508 0.18805 0.04319 0.0
C452 C 0.34033 0.20943 0.05104 0.0
C453 C 0.36554 0.15841 0.07512 0.0
C454 C 0.34155 0.14934 0.11613 0.0
H455 H 0.38517 0.19514 0.01272 0.0
H456 H 0.38565 0.14323 0.06822 0.0
S457 S 0.26793 0.19284 0.15111 0.0
N458 N 0.28838 0.21666 0.10131 0.0
N459 N 0.29018 0.16139 0.16182 0.0
C460 C 0.31595 0.16962 0.12411 0.0
C461 C 0.31509 0.19955 0.09141 0.0
C462 C 0.06983 0.52772 0.04585 0.0
C463 C 0.07127 0.50663 0.0864 0.0
C464 C 0.06993 0.56823 0.0468 0.0
C465 C 0.07105 0.58917 0.08833 0.0
H466 H 0.06974 0.51336 0.01298 0.0
H467 H 0.06924 0.58337 0.0147 0.0
S468 S 0.07426 0.5474 0.20419 0.0
N469 N 0.07276 0.50928 0.16931 0.0
N470 N 0.07377 0.58567 0.17115 0.0
C471 C 0.07194 0.56816 0.12916 0.0
C472 C 0.07194 0.52695 0.12818 0.0
C473 C 0.56593 0.09614 0.24587 0.0
C474 C 0.52459 0.05639 0.24601 0.0
C475 C 0.60619 0.09575 0.24604 0.0
C476 C 0.60705 0.0556 0.24648 0.0
H477 H 0.56731 0.128 0.24635 0.0
H478 H 0.63697 0.12734 0.24534 0.0
S479 S 0.50812 0.94214 0.24668 0.0
N480 N 0.48709 0.97558 0.24554 0.0
N481 N 0.56269 0.97488 0.24752 0.0
C482 C 0.56597 1.01555 0.24658 0.0
C483 C 0.52488 1.01594 0.24611 0.0
C484 C 0.58007 0.54816 0.41902 0.0
C485 C 0.5817 0.58951 0.42159 0.0
C486 C 0.53931 0.50784 0.41927 0.0
C487 C 0.49841 0.50716 0.42164 0.0
H488 H 0.6106 0.54692 0.41682 0.0
H489 H 0.53981 0.47696 0.41685 0.0
S490 S 0.48405 0.60606 0.4298 0.0
N491 N 0.5384 0.62698 0.42641 0.0
N492 N 0.46229 0.55156 0.42853 0.0
C493 C 0.49959 0.54823 0.42486 0.0
C494 C 0.54101 0.58922 0.42449 0.0
C495 C 1.03494 0.54447 0.54469 0.0
C496 C 1.03384 0.56608 0.585 0.0
C497 C 1.03394 0.5035 0.54606 0.0
C498 C 1.03222 0.48261 0.58781 0.0
H499 H 1.03537 0.55875 0.51168 0.0
H500 H 1.03439 0.48798 0.51412 0.0
S501 S 1.02975 0.52575 0.70319 0.0
N502 N 1.03222 0.56401 0.66793 0.0
N503 N 1.02941 0.4868 0.67056 0.0
C504 C 1.03175 0.50418 0.6284 0.0
C505 C 1.03271 0.54584 0.62698 0.0
C506 C 0.52077 1.01243 0.71409 0.0
C507 C 0.49977 1.01309 0.75502 0.0
C508 C 0.56071 1.01139 0.71442 0.0
C509 C 0.58156 1.01161 0.75567 0.0
H510 H 0.50563 1.01159 0.6815 0.0
H511 H 0.57533 1.01024 0.68212 0.0
S512 S 0.54078 1.01412 0.87217 0.0
N513 N 0.50326 1.01468 0.83789 0.0
N514 N 0.57831 1.01274 0.83855 0.0
C515 C 0.56132 1.01299 0.79683 0.0
C516 C 0.52041 1.01362 0.7965 0.0
C517 C 0.52745 0.52533 0.90705 0.0
C518 C 0.52644 0.48443 0.91224 0.0
C519 C 0.5679 0.56593 0.90479 0.0
C520 C 0.60927 0.56757 0.90773 0.0
H521 H 0.49667 0.52611 0.90503 0.0
H522 H 0.56666 0.59626 0.90041 0.0
S523 S 0.62541 0.47003 0.92168 0.0
N524 N 0.57099 0.44835 0.91857 0.0
N525 N 0.64632 0.52427 0.91797 0.0
C526 C 0.6087 0.52691 0.91339 0.0
C527 C 0.56761 0.48559 0.91481 0.0
C528 C 1.038 0.36615 0.80991 0.0
C529 C 1.03259 0.32802 0.78746 0.0
C530 C 0.05546 0.37661 0.85386 0.0
C531 C 0.06782 0.34915 0.87714 0.0
H532 H 1.0287 0.38814 0.7932 0.0
H533 H 0.05898 0.40626 0.87005 0.0
S534 S 0.06137 0.2461 0.83309 0.0
N535 N 1.04145 0.26295 0.79115 0.0
N536 N 0.07477 0.28293 0.87456 0.0
C537 C 0.06295 0.31103 0.85517 0.0
C538 C 1.04539 0.3005 0.80996 0.0
C539 C 0.77658 1.02335 0.97379 0.0
C540 C 0.73718 1.01457 0.9514 0.0
C541 C 0.7852 0.04004 0.01861 0.0
C542 C 0.7549 0.0489 0.04164 0.0
H543 H 0.8002 1.01639 0.95686 0.0
H544 H 0.81589 0.04679 0.03509 0.0
S545 S 0.64741 1.03186 0.99729 0.0
N546 N 0.66824 1.01649 0.95501 0.0
N547 N 0.68406 0.04719 0.03912 0.0
C548 C 0.71559 0.04032 0.01937 0.0
C549 C 0.70684 1.02335 0.97419 0.0
C550 C 0.71029 0.68971 0.14144 0.0
C551 C 0.75032 0.71729 0.11852 0.0
C552 C 0.70363 0.69887 0.18612 0.0
C553 C 0.73689 0.73576 0.2097 0.0
H554 H 0.68371 0.66104 0.12441 0.0
H555 H 0.67215 0.67683 0.20248 0.0
S556 S 0.84842 0.81732 0.16539 0.0
N557 N 0.82435 0.78216 0.12272 0.0
N558 N 0.8116 0.79977 0.20732 0.0
C559 C 0.77744 0.76334 0.18752 0.0
C560 C 0.78414 0.75411 0.14164 0.0
C561 C 1.04643 0.76029 0.35614 0.0
C562 C 1.03771 0.72061 0.37778 0.0
C563 C 0.06332 0.76971 0.31145 0.0
C564 C 0.07251 0.73998 0.28782 0.0
H565 H 1.03936 0.78358 0.37358 0.0
H566 H 0.06997 0.80058 0.29552 0.0
S567 S 0.05577 0.63203 0.3299 0.0
N568 N 1.04001 0.65194 0.37271 0.0
N569 N 0.07117 0.66937 0.28879 0.0
C570 C 0.06398 0.70037 0.30926 0.0
C571 C 1.04674 0.69076 0.35432 0.0
C572 C 0.39264 1.02899 0.523 0.0
C573 C 0.35353 1.02021 0.5459 0.0
C574 C 0.40066 0.04478 0.47832 0.0
C575 C 0.36978 0.05222 0.45469 0.0
H576 H 0.41735 1.02369 0.53994 0.0
H577 H 0.43126 0.05107 0.46196 0.0
S578 S 0.26207 1.03426 0.49927 0.0
N579 N 0.28324 1.01955 0.54186 0.0
N580 N 0.29873 0.05013 0.45729 0.0
C581 C 0.3304 0.04355 0.47699 0.0
C582 C 0.32227 1.02753 0.52288 0.0
C583 C 0.38683 0.37636 0.6437 0.0
C584 C 0.34746 0.34579 0.62143 0.0
C585 C 0.39607 0.36838 0.68782 0.0
C586 C 0.36608 0.32973 0.71153 0.0
H587 H 0.41068 0.40675 0.62672 0.0
H588 H 0.42677 0.39289 0.70382 0.0
S589 S 0.25844 0.2391 0.66822 0.0
N590 N 0.27825 0.27533 0.62581 0.0
N591 N 0.29576 0.26014 0.70959 0.0
C592 C 0.32655 0.29873 0.68977 0.0
C593 C 0.31729 0.30671 0.64436 0.0
C594 C 0.24175 0.2938 0.97117 0.0
C595 C 0.25566 0.31686 0.92922 0.0
C596 C 0.20998 0.2966 0.99917 0.0
C597 C 0.19081 0.32225 0.98589 0.0
H598 H 0.25847 0.27692 0.98447 0.0
H599 H 0.20335 0.28182 0.03288 0.0
S600 S 0.21057 0.38295 0.87633 0.0
N601 N 0.24396 0.36187 0.87397 0.0
N602 N 0.18401 0.36634 0.92552 0.0
C603 C 0.20141 0.3418 0.94222 0.0
C604 C 0.23384 0.33928 0.91413 0.0
C605 C 0.92837 0.22481 0.08694 0.0
C606 C 0.97378 0.23963 0.0936 0.0
C607 C 0.89567 0.19274 0.1156 0.0
C608 C 0.90681 0.17413 0.15251 0.0
H609 H 0.91828 0.24093 0.06178 0.0
H610 H 0.86152 0.18484 0.11078 0.0
S611 S 1.0204 0.19771 0.18188 0.0
N612 N 1.02785 0.22977 0.13718 0.0
N613 N 0.96618 0.16978 0.19153 0.0
C614 C 0.9516 0.18561 0.15728 0.0
C615 C 0.98513 0.21828 0.12766 0.0
C616 C 0.74136 0.87576 0.28292 0.0
C617 C 0.77072 0.88707 0.3202 0.0
C618 C 0.74274 0.9082 0.25327 0.0
C619 C 0.77374 0.95359 0.25923 0.0
H620 H 0.71482 0.84171 0.27851 0.0
H621 H 0.71682 0.89801 0.22776 0.0
S622 S 0.86143 1.00055 0.34842 0.0
N623 N 0.83438 0.94655 0.35907 0.0
N624 N 0.83764 1.00769 0.30281 0.0
C625 C 0.80603 0.96504 0.29381 0.0
C626 C 0.80434 0.93177 0.32447 0.0
C627 C 0.86165 0.71225 0.42194 0.0
C628 C 0.8509 0.74631 0.42334 0.0
C629 C 0.8914 0.71066 0.45321 0.0
C630 C 0.91212 0.74309 0.48748 0.0
H631 H 0.84421 0.68453 0.39868 0.0
H632 H 0.8962 0.68213 0.45211 0.0
S633 S 0.90122 0.84329 0.50187 0.0
N634 N 0.8681 0.81669 0.45842 0.0
N635 N 0.92395 0.81332 0.51758 0.0
C636 C 0.90521 0.77971 0.48675 0.0
C637 C 0.8747 0.78145 0.45452 0.0
C638 C 0.15353 0.87935 0.66453 0.0
C639 C 0.19881 0.89946 0.65262 0.0
C640 C 0.1201 0.84765 0.63549 0.0
C641 C 0.13089 0.83455 0.59393 0.0
H642 H 0.14416 0.88524 0.69798 0.0
H643 H 0.08614 0.83032 0.64776 0.0
S644 S 0.2438 0.88203 0.54448 0.0
N645 N 0.25178 0.9079 0.59385 0.0
N646 N 0.18958 0.84798 0.5405 0.0
C647 C 0.17556 0.85726 0.58019 0.0
C648 C 0.20932 0.8897 0.60926 0.0
C649 C 0.37013 0.19408 0.78568 0.0
C650 C 0.34133 0.18432 0.82328 0.0
C651 C 0.36736 0.16052 0.75678 0.0
C652 C 0.33549 0.11561 0.76389 0.0
H653 H 0.39721 0.22772 0.7804 0.0
H654 H 0.39298 0.1694 0.73114 0.0
S655 S 0.24867 0.0727 0.85403 0.0
N656 N 0.27702 0.12691 0.86335 0.0
N657 N 0.27152 0.06365 0.80875 0.0
C658 C 0.30377 0.10578 0.79871 0.0
C659 C 0.30675 0.14018 0.8285 0.0
C660 C 0.82345 0.88319 0.87722 0.0
C661 C 0.7928 0.8428 0.89873 0.0
C662 C 0.80956 0.90519 0.8465 0.0
C663 C 0.76438 0.88764 0.83545 0.0
H664 H 0.8588 0.8976 0.88321 0.0
H665 H 0.83456 0.93577 0.83072 0.0
S666 S 0.67003 0.78482 0.88506 0.0
N667 N 0.71468 0.78804 0.90868 0.0
N668 N 0.68857 0.82847 0.85119 0.0
C669 C 0.73324 0.84801 0.85785 0.0
C670 C 0.74738 0.82594 0.88939 0.0
C671 C 0.94914 0.78216 0.00647 0.0
C672 C 0.90396 0.7544 0.0175 0.0
C673 C 0.9831 0.7848 0.03531 0.0
C674 C 0.97292 0.75946 0.07582 0.0
H675 H 0.95823 0.79876 0.97366 0.0
H676 H 1.01719 0.80324 0.02347 0.0
S677 S 0.86007 0.68747 0.12313 0.0
N678 N 0.85131 0.70596 0.07454 0.0
N679 N 0.91462 0.71022 0.1277 0.0
C680 C 0.9281 0.73503 0.08895 0.0
C681 C 0.89377 0.73263 0.06001 0.0
C682 C 0.21339 0.87823 0.21026 0.0
C683 C 0.19433 0.89028 0.17453 0.0
C684 C 0.24418 0.90988 0.24063 0.0
C685 C 0.25747 0.95521 0.23687 0.0
H686 H 0.20672 0.84433 0.213 0.0
H687 H 0.26055 0.89925 0.26492 0.0
S688 S 0.21359 1.00367 0.15272 0.0
N689 N 0.18769 0.95014 0.1398 0.0
N690 N 0.24547 1.00989 0.19725 0.0
C691 C 0.23565 0.96724 0.20394 0.0
C692 C 0.20416 0.93474 0.17262 0.0
C693 C 0.30876 0.22398 0.36064 0.0
C694 C 0.3308 0.23592 0.40325 0.0
C695 C 0.31131 0.19267 0.33168 0.0
C696 C 0.33535 0.1717 0.34474 0.0
H697 H 0.29292 0.24181 0.34768 0.0
H698 H 0.29756 0.1877 0.29757 0.0
S699 S 0.39256 0.18584 0.4557 0.0
N700 N 0.37301 0.22048 0.45872 0.0
N701 N 0.37666 0.16115 0.40553 0.0
C702 C 0.35367 0.18028 0.38899 0.0
C703 C 0.35162 0.21242 0.41797 0.0
C704 C 0.17677 0.34689 0.57807 0.0
C705 C 0.13149 0.31565 0.57167 0.0
C706 C 0.20952 0.34942 0.54808 0.0
C707 C 0.19862 0.32095 0.51009 0.0
H708 H 0.1866 0.37217 0.60424 0.0
H709 H 0.24345 0.37608 0.55296 0.0
S710 S 0.08576 0.2295 0.48094 0.0
N711 N 0.07803 0.25222 0.52712 0.0
N712 N 0.13981 0.25743 0.47038 0.0
C713 C 0.15413 0.2869 0.50548 0.0
C714 C 0.12052 0.28411 0.53641 0.0
C715 C 0.89185 0.18593 0.71071 0.0
C716 C 0.91028 0.17678 0.67213 0.0
C717 C 0.86058 0.15182 0.73884 0.0
C718 C 0.84648 0.10693 0.72996 0.0
H719 H 0.89925 0.21966 0.71738 0.0
H720 H 0.84438 0.16041 0.76536 0.0
S721 S 0.88737 0.06509 0.63584 0.0
N722 N 0.91473 0.11964 0.62869 0.0
N723 N 0.856 0.05537 0.68169 0.0
C724 C 0.86738 0.0975 0.69378 0.0
C725 C 0.89928 0.13244 0.66485 0.0
loop_
_geom_bond_atom_site_label_1
_geom_bond_atom_site_label_2
_geom_bond_distance
_geom_bond_site_symmetry_2
_ccdc_geom_bond_type
C0 C1 1.351 . S
C0 N3 1.368 . S
C0 H5 0.931 . S
C1 C0 1.351 . S
C1 N2 1.373 . S
C1 H29 0.930 . S
N2 C1 1.373 . S
N2 C4 1.340 . S
N3 C0 1.368 . S
N3 C4 1.321 . S
N3 Co6 2.135 1_556 S
C4 N2 1.340 . S
C4 N3 1.321 . S
C4 H28 0.930 1_455 S
H5 C0 0.931 . S
Co6 N3 2.135 1_554 S
Co6 N9 2.121 . S
Co6 O14 2.055 . S
Co6 O17 2.039 . S
Co6 N20 2.140 . S
C7 O8 1.227 . S
C7 O17 1.265 1_655 S
O8 C7 1.227 . S
N9 Co6 2.121 . S
N9 C11 1.375 . S
N9 C12 1.313 . S
C10 C11 1.338 . S
C10 N13 1.377 . S
C10 H30 0.930 . S
C11 N9 1.375 . S
C11 C10 1.338 . S
C11 H15 0.931 . S
C12 N9 1.313 . S
C12 N13 1.344 . S
C12 H16 0.930 . S
N13 C10 1.377 . S
N13 C12 1.344 . S
O14 Co6 2.055 . S
O14 C18 1.253 . S
H15 C11 0.931 . S
H16 C12 0.930 . S
O17 Co6 2.039 . S
O17 C7 1.265 1_455 S
C18 O14 1.253 . S
C18 O19 1.227 . S
O19 C18 1.227 . S
N20 Co6 2.140 . S
N20 C23 1.346 . S
N20 C24 1.345 . S
C21 C22 1.387 . S
C21 C25 1.391 . S
C22 C21 1.387 . S
C22 C23 1.369 . S
C22 H31 0.929 . S
C23 N20 1.346 . S
C23 C22 1.369 . S
C23 H26 0.928 . S
C24 N20 1.345 . S
C24 C25 1.371 . S
C24 H27 0.931 . S
C25 C21 1.391 . S
C25 C24 1.371 . S
C25 H32 0.930 . S
H26 C23 0.928 . S
H27 C24 0.931 . S
H28 C4 0.930 1_655 S
H29 C1 0.930 . S
H30 C10 0.930 . S
H31 C22 0.929 . S
H32 C25 0.930 . S
C33 C34 1.351 . S
C33 N36 1.368 . S
C33 H38 0.931 . S
C34 C33 1.351 . S
C34 N35 1.373 . S
C34 H62 0.930 . S
N35 C34 1.373 . S
N35 C37 1.340 . S
N36 C33 1.368 . S
N36 C37 1.321 . S
N36 Co39 2.135 . S
C37 N35 1.340 . S
C37 N36 1.321 . S
C37 H61 0.930 1_545 S
H38 C33 0.931 . S
Co39 N36 2.135 . S
Co39 N42 2.121 . S
Co39 O47 2.055 . S
Co39 O50 2.039 . S
Co39 N53 2.140 . S
C40 O41 1.227 . S
C40 O50 1.265 1_565 S
O41 C40 1.227 . S
N42 Co39 2.121 . S
N42 C44 1.375 . S
N42 C45 1.313 . S
C43 C44 1.338 . S
C43 N46 1.377 . S
C43 H63 0.930 . S
C44 N42 1.375 . S
C44 C43 1.338 . S
C44 H48 0.931 . S
C45 N42 1.313 . S
C45 N46 1.344 . S
C45 H49 0.930 . S
N46 C43 1.377 . S
N46 C45 1.344 . S
O47 Co39 2.055 . S
O47 C51 1.253 . S
H48 C44 0.931 . S
H49 C45 0.930 . S
O50 Co39 2.039 . S
O50 C40 1.265 1_545 S
C51 O47 1.253 . S
C51 O52 1.227 . S
O52 C51 1.227 . S
N53 Co39 2.140 . S
N53 C56 1.346 . S
N53 C57 1.345 . S
C54 C55 1.387 . S
C54 C58 1.391 . S
C55 C54 1.387 . S
C55 C56 1.369 . S
C55 H64 0.929 . S
C56 N53 1.346 . S
C56 C55 1.369 . S
C56 H59 0.928 . S
C57 N53 1.345 . S
C57 C58 1.371 . S
C57 H60 0.931 . S
C58 C54 1.391 . S
C58 C57 1.371 . S
C58 H65 0.930 . S
H59 C56 0.928 . S
H60 C57 0.931 . S
H61 C37 0.930 1_565 S
H62 C34 0.930 . S
H63 C43 0.930 . S
H64 C55 0.929 . S
H65 C58 0.930 . S
C66 C67 1.351 . S
C66 N69 1.368 . S
C66 H71 0.931 . S
C67 C66 1.351 . S
C67 N68 1.373 . S
C67 H95 0.930 . S
N68 C67 1.373 . S
N68 C70 1.340 . S
N69 C66 1.368 . S
N69 C70 1.321 . S
N69 Co72 2.135 . S
C70 N68 1.340 . S
C70 N69 1.321 . S
C70 H94 0.930 . S
H71 C66 0.931 . S
Co72 N69 2.135 . S
Co72 N75 2.121 . S
Co72 O80 2.055 . S
Co72 O83 2.039 . S
Co72 N86 2.140 . S
C73 O74 1.227 . S
C73 O83 1.265 . S
O74 C73 1.227 . S
N75 Co72 2.121 . S
N75 C77 1.375 . S
N75 C78 1.313 . S
C76 C77 1.338 . S
C76 N79 1.377 . S
C76 H96 0.930 . S
C77 N75 1.375 . S
C77 C76 1.338 . S
C77 H81 0.931 . S
C78 N75 1.313 . S
C78 N79 1.344 . S
C78 H82 0.930 . S
N79 C76 1.377 . S
N79 C78 1.344 . S
O80 Co72 2.055 . S
O80 C84 1.253 . S
H81 C77 0.931 . S
H82 C78 0.930 . S
O83 Co72 2.039 . S
O83 C73 1.265 . S
C84 O80 1.253 . S
C84 O85 1.227 . S
O85 C84 1.227 . S
N86 Co72 2.140 . S
N86 C89 1.346 . S
N86 C90 1.345 . S
C87 C88 1.387 . S
C87 C91 1.391 . S
C88 C87 1.387 . S
C88 C89 1.369 . S
C88 H97 0.929 . S
C89 N86 1.346 . S
C89 C88 1.369 . S
C89 H92 0.928 . S
C90 N86 1.345 . S
C90 C91 1.371 . S
C90 H93 0.931 . S
C91 C87 1.391 . S
C91 C90 1.371 . S
C91 H98 0.930 . S
H92 C89 0.928 . S
H93 C90 0.931 . S
H94 C70 0.930 . S
H95 C67 0.930 . S
H96 C76 0.930 . S
H97 C88 0.929 . S
H98 C91 0.930 . S
C99 C100 1.351 . S
C99 N102 1.368 . S
C99 H104 0.931 . S
C100 C99 1.351 . S
C100 N101 1.373 . S
C100 H128 0.930 . S
N101 C100 1.373 . S
N101 C103 1.340 . S
N102 C99 1.368 . S
N102 C103 1.321 . S
N102 Co105 2.135 . S
C103 N101 1.340 . S
C103 N102 1.321 . S
C103 H127 0.930 1_655 S
H104 C99 0.931 . S
Co105 N102 2.135 . S
Co105 N108 2.121 . S
Co105 O113 2.055 . S
Co105 O116 2.039 . S
Co105 N119 2.140 . S
C106 O107 1.227 . S
C106 O116 1.265 1_455 S
O107 C106 1.227 . S
N108 Co105 2.121 . S
N108 C110 1.375 . S
N108 C111 1.313 . S
C109 C110 1.338 . S
C109 N112 1.377 . S
C109 H129 0.930 . S
C110 N108 1.375 . S
C110 C109 1.338 . S
C110 H114 0.931 . S
C111 N108 1.313 . S
C111 N112 1.344 . S
C111 H115 0.930 . S
N112 C109 1.377 . S
N112 C111 1.344 . S
O113 Co105 2.055 . S
O113 C117 1.253 . S
H114 C110 0.931 . S
H115 C111 0.930 . S
O116 Co105 2.039 . S
O116 C106 1.265 1_655 S
C117 O113 1.253 . S
C117 O118 1.227 . S
O118 C117 1.227 . S
N119 Co105 2.140 . S
N119 C122 1.346 . S
N119 C123 1.345 . S
C120 C121 1.387 . S
C120 C124 1.391 . S
C121 C120 1.387 . S
C121 C122 1.369 . S
C121 H130 0.929 . S
C122 N119 1.346 . S
C122 C121 1.369 . S
C122 H125 0.928 . S
C123 N119 1.345 . S
C123 C124 1.371 . S
C123 H126 0.931 . S
C124 C120 1.391 . S
C124 C123 1.371 . S
C124 H131 0.930 . S
H125 C122 0.928 . S
H126 C123 0.931 . S
H127 C103 0.930 1_455 S
H128 C100 0.930 . S
H129 C109 0.930 . S
H130 C121 0.929 . S
H131 C124 0.930 . S
C132 C133 1.351 . S
C132 N135 1.368 . S
C132 H137 0.931 . S
C133 C132 1.351 . S
C133 N134 1.373 . S
C133 H161 0.930 . S
N134 C133 1.373 . S
N134 C136 1.340 . S
N135 C132 1.368 . S
N135 C136 1.321 . S
N135 Co138 2.135 . S
C136 N134 1.340 . S
C136 N135 1.321 . S
C136 H160 0.930 1_565 S
H137 C132 0.931 . S
Co138 N135 2.135 . S
Co138 N141 2.121 . S
Co138 O146 2.055 . S
Co138 O149 2.039 . S
Co138 N152 2.140 . S
C139 O140 1.227 . S
C139 O149 1.265 1_545 S
O140 C139 1.227 . S
N141 Co138 2.121 . S
N141 C143 1.375 . S
N141 C144 1.313 . S
C142 C143 1.338 . S
C142 N145 1.377 . S
C142 H162 0.930 . S
C143 N141 1.375 . S
C143 C142 1.338 . S
C143 H147 0.931 . S
C144 N141 1.313 . S
C144 N145 1.344 . S
C144 H148 0.930 . S
N145 C142 1.377 . S
N145 C144 1.344 . S
O146 Co138 2.055 . S
O146 C150 1.253 . S
H147 C143 0.931 . S
H148 C144 0.930 . S
O149 Co138 2.039 . S
O149 C139 1.265 1_565 S
C150 O146 1.253 . S
C150 O151 1.227 . S
O151 C150 1.227 . S
N152 Co138 2.140 . S
N152 C155 1.346 . S
N152 C156 1.345 . S
C153 C154 1.387 . S
C153 C157 1.391 . S
C154 C153 1.387 . S
C154 C155 1.369 . S
C154 H163 0.929 . S
C155 N152 1.346 . S
C155 C154 1.369 . S
C155 H158 0.928 . S
C156 N152 1.345 . S
C156 C157 1.371 . S
C156 H159 0.931 . S
C157 C153 1.391 . S
C157 C156 1.371 . S
C157 H164 0.930 . S
H158 C155 0.928 . S
H159 C156 0.931 . S
H160 C136 0.930 1_545 S
H161 C133 0.930 . S
H162 C142 0.930 . S
H163 C154 0.929 . S
H164 C157 0.930 . S
C165 C166 1.351 . S
C165 N168 1.368 . S
C165 H170 0.931 . S
C166 C165 1.351 . S
C166 N167 1.373 . S
C166 H194 0.930 . S
N167 C166 1.373 . S
N167 C169 1.340 . S
N168 C165 1.368 . S
N168 C169 1.321 . S
N168 Co171 2.135 . S
C169 N167 1.340 . S
C169 N168 1.321 . S
C169 H193 0.930 . S
H170 C165 0.931 . S
Co171 N168 2.135 . S
Co171 N174 2.121 . S
Co171 O179 2.055 . S
Co171 O182 2.039 . S
Co171 N185 2.140 . S
C172 O173 1.227 . S
C172 O182 1.265 . S
O173 C172 1.227 . S
N174 Co171 2.121 . S
N174 C176 1.375 . S
N174 C177 1.313 . S
C175 C176 1.338 1_554 S
C175 N178 1.377 . S
C175 H195 0.930 . S
C176 N174 1.375 . S
C176 C175 1.338 1_556 S
C176 H180 0.931 . S
C177 N174 1.313 . S
C177 N178 1.344 1_556 S
C177 H181 0.930 . S
N178 C175 1.377 . S
N178 C177 1.344 1_554 S
O179 Co171 2.055 . S
O179 C183 1.253 . S
H180 C176 0.931 . S
H181 C177 0.930 . S
O182 Co171 2.039 . S
O182 C172 1.265 . S
C183 O179 1.253 . S
C183 O184 1.227 . S
O184 C183 1.227 . S
N185 Co171 2.140 . S
N185 C188 1.346 . S
N185 C189 1.345 . S
C186 C187 1.387 . S
C186 C190 1.391 . S
C187 C186 1.387 . S
C187 C188 1.369 . S
C187 H196 0.929 . S
C188 N185 1.346 . S
C188 C187 1.369 . S
C188 H191 0.928 . S
C189 N185 1.345 . S
C189 C190 1.371 . S
C189 H192 0.931 . S
C190 C186 1.391 . S
C190 C189 1.371 . S
C190 H197 0.930 . S
H191 C188 0.928 . S
H192 C189 0.931 . S
H193 C169 0.930 . S
H194 C166 0.930 . S
H195 C175 0.930 . S
H196 C187 0.929 . S
H197 C190 0.930 . S
C198 C199 1.351 . S
C198 N201 1.368 . S
C198 H203 0.931 . S
C199 C198 1.351 . S
C199 N200 1.373 . S
C199 H227 0.930 . S
N200 C199 1.373 . S
N200 C202 1.340 . S
N201 C198 1.368 . S
N201 C202 1.321 . S
N201 Co204 2.135 . S
C202 N200 1.340 . S
C202 N201 1.321 . S
C202 H226 0.930 1_565 S
H203 C198 0.931 . S
Co204 N201 2.135 . S
Co204 N207 2.121 . S
Co204 O212 2.055 . S
Co204 O215 2.039 . S
Co204 N218 2.140 . S
C205 O206 1.227 . S
C205 O215 1.265 1_545 S
O206 C205 1.227 . S
N207 Co204 2.121 . S
N207 C209 1.375 . S
N207 C210 1.313 . S
C208 C209 1.338 . S
C208 N211 1.377 . S
C208 H228 0.930 . S
C209 N207 1.375 . S
C209 C208 1.338 . S
C209 H213 0.931 . S
C210 N207 1.313 . S
C210 N211 1.344 . S
C210 H214 0.930 . S
N211 C208 1.377 . S
N211 C210 1.344 . S
O212 Co204 2.055 . S
O212 C216 1.253 . S
H213 C209 0.931 . S
H214 C210 0.930 . S
O215 Co204 2.039 . S
O215 C205 1.265 1_565 S
C216 O212 1.253 . S
C216 O217 1.227 . S
O217 C216 1.227 . S
N218 Co204 2.140 . S
N218 C221 1.346 . S
N218 C222 1.345 . S
C219 C220 1.387 . S
C219 C223 1.391 . S
C220 C219 1.387 . S
C220 C221 1.369 . S
C220 H229 0.929 . S
C221 N218 1.346 . S
C221 C220 1.369 . S
C221 H224 0.928 . S
C222 N218 1.345 . S
C222 C223 1.371 . S
C222 H225 0.931 . S
C223 C219 1.391 . S
C223 C222 1.371 . S
C223 H230 0.930 . S
H224 C221 0.928 . S
H225 C222 0.931 . S
H226 C202 0.930 1_545 S
H227 C199 0.930 . S
H228 C208 0.930 . S
H229 C220 0.929 . S
H230 C223 0.930 . S
C231 C232 1.351 . S
C231 N234 1.368 . S
C231 H236 0.931 . S
C232 C231 1.351 . S
C232 N233 1.373 . S
C232 H260 0.930 . S
N233 C232 1.373 . S
N233 C235 1.340 . S
N234 C231 1.368 . S
N234 C235 1.321 . S
N234 Co237 2.135 1_554 S
C235 N233 1.340 . S
C235 N234 1.321 . S
C235 H259 0.930 . S
H236 C231 0.931 . S
Co237 N234 2.135 1_556 S
Co237 N240 2.121 . S
Co237 O245 2.055 . S
Co237 O248 2.039 . S
Co237 N251 2.140 . S
C238 O239 1.227 . S
C238 O248 1.265 . S
O239 C238 1.227 . S
N240 Co237 2.121 . S
N240 C242 1.375 . S
N240 C243 1.313 . S
C241 C242 1.338 . S
C241 N244 1.377 . S
C241 H261 0.930 . S
C242 N240 1.375 . S
C242 C241 1.338 . S
C242 H246 0.931 . S
C243 N240 1.313 . S
C243 N244 1.344 . S
C243 H247 0.930 . S
N244 C241 1.377 . S
N244 C243 1.344 . S
O245 Co237 2.055 . S
O245 C249 1.253 . S
H246 C242 0.931 . S
H247 C243 0.930 . S
O248 Co237 2.039 . S
O248 C238 1.265 . S
C249 O245 1.253 . S
C249 O250 1.227 . S
O250 C249 1.227 . S
N251 Co237 2.140 . S
N251 C254 1.346 . S
N251 C255 1.345 . S
C252 C253 1.387 . S
C252 C256 1.391 . S
C253 C252 1.387 . S
C253 C254 1.369 . S
C253 H262 0.929 . S
C254 N251 1.346 . S
C254 C253 1.369 . S
C254 H257 0.928 . S
C255 N251 1.345 . S
C255 C256 1.371 . S
C255 H258 0.931 . S
C256 C252 1.391 . S
C256 C255 1.371 . S
C256 H263 0.930 . S
H257 C254 0.928 . S
H258 C255 0.931 . S
H259 C235 0.930 . S
H260 C232 0.930 . S
H261 C241 0.930 . S
H262 C253 0.929 . S
H263 C256 0.930 . S
C264 C265 1.351 . S
C264 N267 1.368 . S
C264 H269 0.931 . S
C265 C264 1.351 . S
C265 N266 1.373 . S
C265 H293 0.930 . S
N266 C265 1.373 . S
N266 C268 1.340 . S
N267 C264 1.368 . S
N267 C268 1.321 . S
N267 Co270 2.135 . S
C268 N266 1.340 . S
C268 N267 1.321 . S
C268 H292 0.930 1_455 S
H269 C264 0.931 . S
Co270 N267 2.135 . S
Co270 N273 2.121 . S
Co270 O278 2.055 . S
Co270 O281 2.039 . S
Co270 N284 2.140 . S
C271 O272 1.227 . S
C271 O281 1.265 1_655 S
O272 C271 1.227 . S
N273 Co270 2.121 . S
N273 C275 1.375 . S
N273 C276 1.313 . S
C274 C275 1.338 1_556 S
C274 N277 1.377 . S
C274 H294 0.930 . S
C275 N273 1.375 . S
C275 C274 1.338 1_554 S
C275 H279 0.931 . S
C276 N273 1.313 . S
C276 N277 1.344 1_554 S
C276 H280 0.930 . S
N277 C274 1.377 . S
N277 C276 1.344 1_556 S
O278 Co270 2.055 . S
O278 C282 1.253 . S
H279 C275 0.931 . S
H280 C276 0.930 . S
O281 Co270 2.039 . S
O281 C271 1.265 1_455 S
C282 O278 1.253 . S
C282 O283 1.227 . S
O283 C282 1.227 . S
N284 Co270 2.140 . S
N284 C287 1.346 . S
N284 C288 1.345 . S
C285 C286 1.387 . S
C285 C289 1.391 . S
C286 C285 1.387 . S
C286 C287 1.369 . S
C286 H295 0.929 . S
C287 N284 1.346 . S
C287 C286 1.369 . S
C287 H290 0.928 . S
C288 N284 1.345 . S
C288 C289 1.371 . S
C288 H291 0.931 . S
C289 C285 1.391 . S
C289 C288 1.371 . S
C289 H296 0.930 . S
H290 C287 0.928 . S
H291 C288 0.931 . S
H292 C268 0.930 1_655 S
H293 C265 0.930 . S
H294 C274 0.930 . S
H295 C286 0.929 . S
H296 C289 0.930 . S
C297 C298 1.351 . S
C297 N300 1.368 . S
C297 H302 0.931 . S
C298 C297 1.351 . S
C298 N299 1.373 . S
C298 H326 0.930 . S
N299 C298 1.373 . S
N299 C301 1.340 . S
N300 C297 1.368 . S
N300 C301 1.321 . S
N300 Co303 2.135 . S
C301 N299 1.340 . S
C301 N300 1.321 . S
C301 H325 0.930 1_545 S
H302 C297 0.931 . S
Co303 N300 2.135 . S
Co303 N306 2.121 . S
Co303 O311 2.055 . S
Co303 O314 2.039 . S
Co303 N317 2.140 . S
C304 O305 1.227 . S
C304 O314 1.265 1_565 S
O305 C304 1.227 . S
N306 Co303 2.121 . S
N306 C308 1.375 . S
N306 C309 1.313 . S
C307 C308 1.338 . S
C307 N310 1.377 . S
C307 H327 0.930 . S
C308 N306 1.375 . S
C308 C307 1.338 . S
C308 H312 0.931 . S
C309 N306 1.313 . S
C309 N310 1.344 . S
C309 H313 0.930 . S
N310 C307 1.377 . S
N310 C309 1.344 . S
O311 Co303 2.055 . S
O311 C315 1.253 . S
H312 C308 0.931 . S
H313 C309 0.930 . S
O314 Co303 2.039 . S
O314 C304 1.265 1_545 S
C315 O311 1.253 . S
C315 O316 1.227 . S
O316 C315 1.227 . S
N317 Co303 2.140 . S
N317 C320 1.346 . S
N317 C321 1.345 . S
C318 C319 1.387 . S
C318 C322 1.391 . S
C319 C318 1.387 . S
C319 C320 1.369 . S
C319 H328 0.929 . S
C320 N317 1.346 . S
C320 C319 1.369 . S
C320 H323 0.928 . S
C321 N317 1.345 . S
C321 C322 1.371 . S
C321 H324 0.931 . S
C322 C318 1.391 . S
C322 C321 1.371 . S
C322 H329 0.930 . S
H323 C320 0.928 . S
H324 C321 0.931 . S
H325 C301 0.930 1_565 S
H326 C298 0.930 . S
H327 C307 0.930 . S
H328 C319 0.929 . S
H329 C322 0.930 . S
C330 C331 1.351 . S
C330 N333 1.368 . S
C330 H335 0.931 . S
C331 C330 1.351 . S
C331 N332 1.373 . S
C331 H359 0.930 . S
N332 C331 1.373 . S
N332 C334 1.340 . S
N333 C330 1.368 . S
N333 C334 1.321 . S
N333 Co336 2.135 . S
C334 N332 1.340 . S
C334 N333 1.321 . S
C334 H358 0.930 . S
H335 C330 0.931 . S
Co336 N333 2.135 . S
Co336 N339 2.121 . S
Co336 O344 2.055 . S
Co336 O347 2.039 . S
Co336 N350 2.140 . S
C337 O338 1.227 . S
C337 O347 1.265 . S
O338 C337 1.227 . S
N339 Co336 2.121 . S
N339 C341 1.375 . S
N339 C342 1.313 . S
C340 C341 1.338 . S
C340 N343 1.377 . S
C340 H360 0.930 . S
C341 N339 1.375 . S
C341 C340 1.338 . S
C341 H345 0.931 . S
C342 N339 1.313 . S
C342 N343 1.344 . S
C342 H346 0.930 . S
N343 C340 1.377 . S
N343 C342 1.344 . S
O344 Co336 2.055 . S
O344 C348 1.253 . S
H345 C341 0.931 . S
H346 C342 0.930 . S
O347 Co336 2.039 . S
O347 C337 1.265 . S
C348 O344 1.253 . S
C348 O349 1.227 . S
O349 C348 1.227 . S
N350 Co336 2.140 . S
N350 C353 1.346 . S
N350 C354 1.345 . S
C351 C352 1.387 . S
C351 C355 1.391 . S
C352 C351 1.387 . S
C352 C353 1.369 . S
C352 H361 0.929 . S
C353 N350 1.346 . S
C353 C352 1.369 . S
C353 H356 0.928 . S
C354 N350 1.345 . S
C354 C355 1.371 . S
C354 H357 0.931 . S
C355 C351 1.391 . S
C355 C354 1.371 . S
C355 H362 0.930 . S
H356 C353 0.928 . S
H357 C354 0.931 . S
H358 C334 0.930 . S
H359 C331 0.930 . S
H360 C340 0.930 . S
H361 C352 0.929 . S
H362 C355 0.930 . S
C363 C364 1.351 . S
C363 N366 1.368 . S
C363 H368 0.931 . S
C364 C363 1.351 . S
C364 N365 1.373 . S
C364 H392 0.930 . S
N365 C364 1.373 . S
N365 C367 1.340 . S
N366 C363 1.368 . S
N366 C367 1.321 . S
N366 Co369 2.135 . S
C367 N365 1.340 . S
C367 N366 1.321 . S
C367 H391 0.930 1_655 S
H368 C363 0.931 . S
Co369 N366 2.135 . S
Co369 N372 2.121 . S
Co369 O377 2.055 . S
Co369 O380 2.039 . S
Co369 N383 2.140 . S
C370 O371 1.227 . S
C370 O380 1.265 1_455 S
O371 C370 1.227 . S
N372 Co369 2.121 . S
N372 C374 1.375 . S
N372 C375 1.313 . S
C373 C374 1.338 . S
C373 N376 1.377 . S
C373 H393 0.930 . S
C374 N372 1.375 . S
C374 C373 1.338 . S
C374 H378 0.931 . S
C375 N372 1.313 . S
C375 N376 1.344 . S
C375 H379 0.930 . S
N376 C373 1.377 . S
N376 C375 1.344 . S
O377 Co369 2.055 . S
O377 C381 1.253 . S
H378 C374 0.931 . S
H379 C375 0.930 . S
O380 Co369 2.039 . S
O380 C370 1.265 1_655 S
C381 O377 1.253 . S
C381 O382 1.227 . S
O382 C381 1.227 . S
N383 Co369 2.140 . S
N383 C386 1.346 . S
N383 C387 1.345 . S
C384 C385 1.387 . S
C384 C388 1.391 . S
C385 C384 1.387 . S
C385 C386 1.369 . S
C385 H394 0.929 . S
C386 N383 1.346 . S
C386 C385 1.369 . S
C386 H389 0.928 . S
C387 N383 1.345 . S
C387 C388 1.371 . S
C387 H390 0.931 . S
C388 C384 1.391 . S
C388 C387 1.371 . S
C388 H395 0.930 . S
H389 C386 0.928 . S
H390 C387 0.931 . S
H391 C367 0.930 1_455 S
H392 C364 0.930 . S
H393 C373 0.930 . S
H394 C385 0.929 . S
H395 C388 0.930 . S
C396 C397 1.369 . S
C396 C398 1.419 . S
C396 H400 0.930 . S
C397 C396 1.369 . S
C397 C406 1.429 . S
C398 C396 1.419 . S
C398 C399 1.363 . S
C398 H401 0.929 . S
C399 C398 1.363 . S
C399 C405 1.428 . S
H400 C396 0.930 . S
H401 C398 0.929 . S
S402 N403 1.613 . S
S402 N404 1.610 . S
N403 S402 1.613 . S
N403 C406 1.350 . S
N404 S402 1.610 . S
N404 C405 1.351 . S
C405 C399 1.428 . S
C405 N404 1.351 . S
C405 C406 1.434 . S
C406 C397 1.429 . S
C406 N403 1.350 . S
C406 C405 1.434 . S
C407 C408 1.369 . S
C407 C409 1.419 . S
C407 H411 0.930 . S
C408 C407 1.369 . S
C408 C417 1.429 . S
C409 C407 1.419 . S
C409 C410 1.363 . S
C409 H412 0.929 . S
C410 C409 1.363 . S
C410 C416 1.428 . S
H411 C407 0.930 . S
H412 C409 0.929 . S
S413 N414 1.613 . S
S413 N415 1.610 . S
N414 S413 1.613 . S
N414 C417 1.350 . S
N415 S413 1.610 . S
N415 C416 1.351 . S
C416 C410 1.428 . S
C416 N415 1.351 . S
C416 C417 1.434 . S
C417 C408 1.429 . S
C417 N414 1.350 . S
C417 C416 1.434 . S
C418 C419 1.369 . S
C418 C420 1.419 . S
C418 H422 0.930 . S
C419 C418 1.369 . S
C419 C428 1.429 . S
C420 C418 1.419 . S
C420 C421 1.363 . S
C420 H423 0.929 . S
C421 C420 1.363 . S
C421 C427 1.428 . S
H422 C418 0.930 . S
H423 C420 0.929 . S
S424 N425 1.613 . S
S424 N426 1.610 . S
N425 S424 1.613 . S
N425 C428 1.350 . S
N426 S424 1.610 . S
N426 C427 1.351 . S
C427 C421 1.428 . S
C427 N426 1.351 . S
C427 C428 1.434 . S
C428 C419 1.429 . S
C428 N425 1.350 . S
C428 C427 1.434 . S
C429 C430 1.369 . S
C429 C431 1.419 . S
C429 H433 0.930 . S
C430 C429 1.369 . S
C430 C439 1.429 . S
C431 C429 1.419 . S
C431 C432 1.363 . S
C431 H434 0.929 . S
C432 C431 1.363 . S
C432 C438 1.428 . S
H433 C429 0.930 . S
H434 C431 0.929 . S
S435 N436 1.613 . S
S435 N437 1.610 . S
N436 S435 1.613 . S
N436 C439 1.350 . S
N437 S435 1.610 . S
N437 C438 1.351 . S
C438 C432 1.428 . S
C438 N437 1.351 . S
C438 C439 1.434 . S
C439 C430 1.429 . S
C439 N436 1.350 . S
C439 C438 1.434 . S
C440 C441 1.369 . S
C440 C442 1.419 . S
C440 H444 0.930 . S
C441 C440 1.369 . S
C441 C450 1.429 . S
C442 C440 1.419 . S
C442 C443 1.363 . S
C442 H445 0.929 . S
C443 C442 1.363 . S
C443 C449 1.428 . S
H444 C440 0.930 . S
H445 C442 0.929 . S
S446 N447 1.613 . S
S446 N448 1.610 . S
N447 S446 1.613 . S
N447 C450 1.350 . S
N448 S446 1.610 . S
N448 C449 1.351 . S
C449 C443 1.428 . S
C449 N448 1.351 . S
C449 C450 1.434 . S
C450 C441 1.429 . S
C450 N447 1.350 . S
C450 C449 1.434 . S
C451 C452 1.369 . S
C451 C453 1.419 . S
C451 H455 0.930 . S
C452 C451 1.369 . S
C452 C461 1.429 . S
C453 C451 1.419 . S
C453 C454 1.363 . S
C453 H456 0.929 . S
C454 C453 1.363 . S
C454 C460 1.428 . S
H455 C451 0.930 . S
H456 C453 0.929 . S
S457 N458 1.613 . S
S457 N459 1.610 . S
N458 S457 1.613 . S
N458 C461 1.350 . S
N459 S457 1.610 . S
N459 C460 1.351 . S
C460 C454 1.428 . S
C460 N459 1.351 . S
C460 C461 1.434 . S
C461 C452 1.429 . S
C461 N458 1.350 . S
C461 C460 1.434 . S
C462 C463 1.369 . S
C462 C464 1.419 . S
C462 H466 0.930 . S
C463 C462 1.369 . S
C463 C472 1.429 . S
C464 C462 1.419 . S
C464 C465 1.363 . S
C464 H467 0.929 . S
C465 C464 1.363 . S
C465 C471 1.428 . S
H466 C462 0.930 . S
H467 C464 0.929 . S
S468 N469 1.613 . S
S468 N470 1.610 . S
N469 S468 1.613 . S
N469 C472 1.350 . S
N470 S468 1.610 . S
N470 C471 1.351 . S
C471 C465 1.428 . S
C471 N470 1.351 . S
C471 C472 1.434 . S
C472 C463 1.429 . S
C472 N469 1.350 . S
C472 C471 1.434 . S
C473 C474 1.369 . S
C473 C475 1.419 . S
C473 H477 0.930 . S
C474 C473 1.369 . S
C474 C483 1.429 . S
C475 C473 1.419 . S
C475 C476 1.363 . S
C475 H478 0.929 . S
C476 C475 1.363 . S
C476 C482 1.428 . S
H477 C473 0.930 . S
H478 C475 0.929 . S
S479 N480 1.613 1_565 S
S479 N481 1.610 1_565 S
N480 S479 1.613 1_545 S
N480 C483 1.350 . S
N481 S479 1.610 1_545 S
N481 C482 1.351 . S
C482 C476 1.428 . S
C482 N481 1.351 . S
C482 C483 1.434 . S
C483 C474 1.429 . S
C483 N480 1.350 . S
C483 C482 1.434 . S
C484 C485 1.369 . S
C484 C486 1.419 . S
C484 H488 0.930 . S
C485 C484 1.369 . S
C485 C494 1.429 . S
C486 C484 1.419 . S
C486 C487 1.363 . S
C486 H489 0.929 . S
C487 C486 1.363 . S
C487 C493 1.428 . S
H488 C484 0.930 . S
H489 C486 0.929 . S
S490 N491 1.613 . S
S490 N492 1.610 . S
N491 S490 1.613 . S
N491 C494 1.350 . S
N492 S490 1.610 . S
N492 C493 1.351 . S
C493 C487 1.428 . S
C493 N492 1.351 . S
C493 C494 1.434 . S
C494 C485 1.429 . S
C494 N491 1.350 . S
C494 C493 1.434 . S
C495 C496 1.369 . S
C495 C497 1.419 . S
C495 H499 0.930 . S
C496 C495 1.369 . S
C496 C505 1.429 . S
C497 C495 1.419 . S
C497 C498 1.363 . S
C497 H500 0.929 . S
C498 C497 1.363 . S
C498 C504 1.428 . S
H499 C495 0.930 . S
H500 C497 0.929 . S
S501 N502 1.613 . S
S501 N503 1.610 . S
N502 S501 1.613 . S
N502 C505 1.350 . S
N503 S501 1.610 . S
N503 C504 1.351 . S
C504 C498 1.428 . S
C504 N503 1.351 . S
C504 C505 1.434 . S
C505 C496 1.429 . S
C505 N502 1.350 . S
C505 C504 1.434 . S
C506 C507 1.369 . S
C506 C508 1.419 . S
C506 H510 0.930 . S
C507 C506 1.369 . S
C507 C516 1.429 . S
C508 C506 1.419 . S
C508 C509 1.363 . S
C508 H511 0.929 . S
C509 C508 1.363 . S
C509 C515 1.428 . S
H510 C506 0.930 . S
H511 C508 0.929 . S
S512 N513 1.613 . S
S512 N514 1.610 . S
N513 S512 1.613 . S
N513 C516 1.350 . S
N514 S512 1.610 . S
N514 C515 1.351 . S
C515 C509 1.428 . S
C515 N514 1.351 . S
C515 C516 1.434 . S
C516 C507 1.429 . S
C516 N513 1.350 . S
C516 C515 1.434 . S
C517 C518 1.369 . S
C517 C519 1.419 . S
C517 H521 0.930 . S
C518 C517 1.369 . S
C518 C527 1.429 . S
C519 C517 1.419 . S
C519 C520 1.363 . S
C519 H522 0.929 . S
C520 C519 1.363 . S
C520 C526 1.428 . S
H521 C517 0.930 . S
H522 C519 0.929 . S
S523 N524 1.613 . S
S523 N525 1.610 . S
N524 S523 1.613 . S
N524 C527 1.350 . S
N525 S523 1.610 . S
N525 C526 1.351 . S
C526 C520 1.428 . S
C526 N525 1.351 . S
C526 C527 1.434 . S
C527 C518 1.429 . S
C527 N524 1.350 . S
C527 C526 1.434 . S
C528 C529 1.378 . S
C528 C530 1.419 . S
C528 H532 0.930 . S
C529 C528 1.378 . S
C529 C538 1.419 1_655 S
C530 C528 1.419 . S
C530 C531 1.351 1_655 S
C530 H533 0.929 . S
C531 C530 1.351 1_455 S
C531 C537 1.441 . S
H532 C528 0.930 . S
H533 C530 0.929 . S
S534 N535 1.613 . S
S534 N536 1.610 . S
N535 S534 1.613 . S
N535 C538 1.350 . S
N536 S534 1.610 . S
N536 C537 1.351 . S
C537 C531 1.441 . S
C537 N536 1.351 . S
C537 C538 1.434 . S
C538 C529 1.419 1_455 S
C538 N535 1.350 . S
C538 C537 1.434 . S
C539 C540 1.372 1_545 S
C539 C541 1.419 1_556 S
C539 H543 0.930 . S
C540 C539 1.372 1_565 S
C540 C549 1.426 . S
C541 C539 1.419 1_554 S
C541 C542 1.358 . S
C541 H544 0.929 . S
C542 C541 1.358 . S
C542 C548 1.433 1_545 S
H543 C539 0.930 . S
H544 C541 0.929 . S
S545 N546 1.613 . S
S545 N547 1.610 1_556 S
N546 S545 1.613 . S
N546 C549 1.350 . S
N547 S545 1.610 1_554 S
N547 C548 1.351 . S
C548 C542 1.433 1_565 S
C548 N547 1.351 . S
C548 C549 1.434 1_554 S
C549 C540 1.426 . S
C549 N546 1.350 . S
C549 C548 1.434 1_556 S
C550 C551 1.369 . S
C550 C552 1.419 . S
C550 H554 0.930 . S
C551 C550 1.369 . S
C551 C560 1.429 . S
C552 C550 1.419 . S
C552 C553 1.363 . S
C552 H555 0.929 . S
C553 C552 1.363 . S
C553 C559 1.428 . S
H554 C550 0.930 . S
H555 C552 0.929 . S
S556 N557 1.613 . S
S556 N558 1.610 . S
N557 S556 1.613 . S
N557 C560 1.350 . S
N558 S556 1.610 . S
N558 C559 1.351 . S
C559 C553 1.428 . S
C559 N558 1.351 . S
C559 C560 1.434 . S
C560 C551 1.429 . S
C560 N557 1.350 . S
C560 C559 1.434 . S
C561 C562 1.371 1_655 S
C561 C563 1.419 . S
C561 H565 0.930 . S
C562 C561 1.371 1_455 S
C562 C571 1.426 . S
C563 C561 1.419 . S
C563 C564 1.339 1_655 S
C563 H566 0.929 . S
C564 C563 1.339 1_455 S
C564 C570 1.453 . S
H565 C561 0.930 . S
H566 C563 0.929 . S
S567 N568 1.613 . S
S567 N569 1.610 . S
N568 S567 1.613 . S
N568 C571 1.350 . S
N569 S567 1.610 . S
N569 C570 1.351 . S
C570 C564 1.453 . S
C570 N569 1.351 . S
C570 C571 1.434 . S
C571 C562 1.426 . S
C571 N568 1.350 . S
C571 C570 1.434 . S
C572 C573 1.366 1_545 S
C572 C574 1.419 . S
C572 H576 0.930 . S
C573 C572 1.366 1_565 S
C573 C582 1.433 . S
C574 C572 1.419 . S
C574 C575 1.363 . S
C574 H577 0.929 . S
C575 C574 1.363 . S
C575 C581 1.428 1_545 S
H576 C572 0.930 . S
H577 C574 0.929 . S
S578 N579 1.613 . S
S578 N580 1.610 . S
N579 S578 1.613 . S
N579 C582 1.350 . S
N580 S578 1.610 . S
N580 C581 1.351 . S
C581 C575 1.428 1_565 S
C581 N580 1.351 . S
C581 C582 1.434 . S
C582 C573 1.433 . S
C582 N579 1.350 . S
C582 C581 1.434 . S
C583 C584 1.369 . S
C583 C585 1.419 . S
C583 H587 0.930 . S
C584 C583 1.369 . S
C584 C593 1.429 . S
C585 C583 1.419 . S
C585 C586 1.363 . S
C585 H588 0.929 . S
C586 C585 1.363 . S
C586 C592 1.428 . S
H587 C583 0.930 . S
H588 C585 0.929 . S
S589 N590 1.613 . S
S589 N591 1.610 . S
N590 S589 1.613 . S
N590 C593 1.350 . S
N591 S589 1.610 . S
N591 C592 1.351 . S
C592 C586 1.428 . S
C592 N591 1.351 . S
C592 C593 1.434 . S
C593 C584 1.429 . S
C593 N590 1.350 . S
C593 C592 1.434 . S
C594 C595 1.369 . S
C594 C596 1.419 1_556 S
C594 H598 0.930 1_556 S
C595 C594 1.369 . S
C595 C604 1.429 . S
C596 C594 1.419 1_554 S
C596 C597 1.363 1_554 S
C596 H599 0.929 . S
C597 C596 1.363 1_556 S
C597 C603 1.428 . S
H598 C594 0.930 1_554 S
H599 C596 0.929 . S
S600 N601 1.613 . S
S600 N602 1.610 . S
N601 S600 1.613 . S
N601 C604 1.350 . S
N602 S600 1.610 . S
N602 C603 1.351 . S
C603 C597 1.428 . S
C603 N602 1.351 . S
C603 C604 1.434 . S
C604 C595 1.429 . S
C604 N601 1.350 . S
C604 C603 1.434 . S
C605 C606 1.369 . S
C605 C607 1.419 . S
C605 H609 0.930 . S
C606 C605 1.369 . S
C606 C615 1.429 . S
C607 C605 1.419 . S
C607 C608 1.363 . S
C607 H610 0.929 . S
C608 C607 1.363 . S
C608 C614 1.428 . S
H609 C605 0.930 . S
H610 C607 0.929 . S
S611 N612 1.613 . S
S611 N613 1.610 . S
N612 S611 1.613 . S
N612 C615 1.350 . S
N613 S611 1.610 . S
N613 C614 1.351 . S
C614 C608 1.428 . S
C614 N613 1.351 . S
C614 C615 1.434 . S
C615 C606 1.429 . S
C615 N612 1.350 . S
C615 C614 1.434 . S
C616 C617 1.369 . S
C616 C618 1.419 . S
C616 H620 0.930 . S
C617 C616 1.369 . S
C617 C626 1.429 . S
C618 C616 1.419 . S
C618 C619 1.363 . S
C618 H621 0.929 . S
C619 C618 1.363 . S
C619 C625 1.428 . S
H620 C616 0.930 . S
H621 C618 0.929 . S
S622 N623 1.613 . S
S622 N624 1.610 . S
N623 S622 1.613 . S
N623 C626 1.350 . S
N624 S622 1.610 . S
N624 C625 1.351 . S
C625 C619 1.428 . S
C625 N624 1.351 . S
C625 C626 1.434 . S
C626 C617 1.429 . S
C626 N623 1.350 . S
C626 C625 1.434 . S
C627 C628 1.369 . S
C627 C629 1.419 . S
C627 H631 0.930 . S
C628 C627 1.369 . S
C628 C637 1.429 . S
C629 C627 1.419 . S
C629 C630 1.363 . S
C629 H632 0.929 . S
C630 C629 1.363 . S
C630 C636 1.428 . S
H631 C627 0.930 . S
H632 C629 0.929 . S
S633 N634 1.613 . S
S633 N635 1.610 . S
N634 S633 1.613 . S
N634 C637 1.350 . S
N635 S633 1.610 . S
N635 C636 1.351 . S
C636 C630 1.428 . S
C636 N635 1.351 . S
C636 C637 1.434 . S
C637 C628 1.429 . S
C637 N634 1.350 . S
C637 C636 1.434 . S
C638 C639 1.369 . S
C638 C640 1.419 . S
C638 H642 0.930 . S
C639 C638 1.369 . S
C639 C648 1.429 . S
C640 C638 1.419 . S
C640 C641 1.363 . S
C640 H643 0.929 . S
C641 C640 1.363 . S
C641 C647 1.428 . S
H642 C638 0.930 . S
H643 C640 0.929 . S
S644 N645 1.613 . S
S644 N646 1.610 . S
N645 S644 1.613 . S
N645 C648 1.350 . S
N646 S644 1.610 . S
N646 C647 1.351 . S
C647 C641 1.428 . S
C647 N646 1.351 . S
C647 C648 1.434 . S
C648 C639 1.429 . S
C648 N645 1.350 . S
C648 C647 1.434 . S
C649 C650 1.369 . S
C649 C651 1.419 . S
C649 H653 0.930 . S
C650 C649 1.369 . S
C650 C659 1.429 . S
C651 C649 1.419 . S
C651 C652 1.363 . S
C651 H654 0.929 . S
C652 C651 1.363 . S
C652 C658 1.428 . S
H653 C649 0.930 . S
H654 C651 0.929 . S
S655 N656 1.613 . S
S655 N657 1.610 . S
N656 S655 1.613 . S
N656 C659 1.350 . S
N657 S655 1.610 . S
N657 C658 1.351 . S
C658 C652 1.428 . S
C658 N657 1.351 . S
C658 C659 1.434 . S
C659 C650 1.429 . S
C659 N656 1.350 . S
C659 C658 1.434 . S
C660 C661 1.369 . S
C660 C662 1.419 . S
C660 H664 0.930 . S
C661 C660 1.369 . S
C661 C670 1.429 . S
C662 C660 1.419 . S
C662 C663 1.363 . S
C662 H665 0.929 . S
C663 C662 1.363 . S
C663 C669 1.428 . S
H664 C660 0.930 . S
H665 C662 0.929 . S
S666 N667 1.613 . S
S666 N668 1.610 . S
N667 S666 1.613 . S
N667 C670 1.350 . S
N668 S666 1.610 . S
N668 C669 1.351 . S
C669 C663 1.428 . S
C669 N668 1.351 . S
C669 C670 1.434 . S
C670 C661 1.429 . S
C670 N667 1.350 . S
C670 C669 1.434 . S
C671 C672 1.369 . S
C671 C673 1.419 . S
C671 H675 0.930 . S
C672 C671 1.369 . S
C672 C681 1.429 . S
C673 C671 1.419 . S
C673 C674 1.363 . S
C673 H676 0.929 . S
C674 C673 1.363 . S
C674 C680 1.428 . S
H675 C671 0.930 . S
H676 C673 0.929 . S
S677 N678 1.613 . S
S677 N679 1.610 . S
N678 S677 1.613 . S
N678 C681 1.350 . S
N679 S677 1.610 . S
N679 C680 1.351 . S
C680 C674 1.428 . S
C680 N679 1.351 . S
C680 C681 1.434 . S
C681 C672 1.429 . S
C681 N678 1.350 . S
C681 C680 1.434 . S
C682 C683 1.369 . S
C682 C684 1.419 . S
C682 H686 0.930 . S
C683 C682 1.369 . S
C683 C692 1.429 . S
C684 C682 1.419 . S
C684 C685 1.363 . S
C684 H687 0.929 . S
C685 C684 1.363 . S
C685 C691 1.428 . S
H686 C682 0.930 . S
H687 C684 0.929 . S
S688 N689 1.613 . S
S688 N690 1.610 . S
N689 S688 1.613 . S
N689 C692 1.350 . S
N690 S688 1.610 . S
N690 C691 1.351 . S
C691 C685 1.428 . S
C691 N690 1.351 . S
C691 C692 1.434 . S
C692 C683 1.429 . S
C692 N689 1.350 . S
C692 C691 1.434 . S
C693 C694 1.369 . S
C693 C695 1.419 . S
C693 H697 0.930 . S
C694 C693 1.369 . S
C694 C703 1.429 . S
C695 C693 1.419 . S
C695 C696 1.363 . S
C695 H698 0.929 . S
C696 C695 1.363 . S
C696 C702 1.428 . S
H697 C693 0.930 . S
H698 C695 0.929 . S
S699 N700 1.613 . S
S699 N701 1.610 . S
N700 S699 1.613 . S
N700 C703 1.350 . S
N701 S699 1.610 . S
N701 C702 1.351 . S
C702 C696 1.428 . S
C702 N701 1.351 . S
C702 C703 1.434 . S
C703 C694 1.429 . S
C703 N700 1.350 . S
C703 C702 1.434 . S
C704 C705 1.369 . S
C704 C706 1.419 . S
C704 H708 0.930 . S
C705 C704 1.369 . S
C705 C714 1.429 . S
C706 C704 1.419 . S
C706 C707 1.363 . S
C706 H709 0.929 . S
C707 C706 1.363 . S
C707 C713 1.428 . S
H708 C704 0.930 . S
H709 C706 0.929 . S
S710 N711 1.613 . S
S710 N712 1.610 . S
N711 S710 1.613 . S
N711 C714 1.350 . S
N712 S710 1.610 . S
N712 C713 1.351 . S
C713 C707 1.428 . S
C713 N712 1.351 . S
C713 C714 1.434 . S
C714 C705 1.429 . S
C714 N711 1.350 . S
C714 C713 1.434 . S
C715 C716 1.369 . S
C715 C717 1.419 . S
C715 H719 0.930 . S
C716 C715 1.369 . S
C716 C725 1.429 . S
C717 C715 1.419 . S
C717 C718 1.363 . S
C717 H720 0.929 . S
C718 C717 1.363 . S
C718 C724 1.428 . S
H719 C715 0.930 . S
H720 C717 0.929 . S
S721 N722 1.613 . S
S721 N723 1.610 . S
N722 S721 1.613 . S
N722 C725 1.350 . S
N723 S721 1.610 . S
N723 C724 1.351 . S
C724 C718 1.428 . S
C724 N723 1.351 . S
C724 C725 1.434 . S
C725 C716 1.429 . S
C725 N722 1.350 . S
C725 C724 1.434 . S
C397 N343 1.095 . S
C399 N13 1.100 . S
C408 N46 1.101 . S
C410 N376 1.095 . S
C419 N79 1.093 . S
C421 N211 1.095 . S
C430 N112 1.094 . S
C432 N244 1.100 . S
C441 N145 1.091 . S
C443 N277 1.099 . S
C452 N178 1.092 . S
C454 N310 1.100 . S
C463 C21 1.474 . S
C465 C285 1.476 . S
C474 C318 1.475 . S
C476 C54 1.474 . S
C485 C87 1.475 . S
C487 C351 1.476 . S
C496 C120 1.473 . S
C498 C384 1.476 . S
C507 C153 1.473 . S
C509 C219 1.475 . S
C518 C186 1.476 . S
C520 C252 1.476 . S
C529 N365 1.249 . S
C531 N2 1.251 . S
C540 N200 1.255 . S
C542 N35 1.253 . S
C551 N233 1.242 . S
C553 N68 1.245 . S
C562 N101 1.256 1_455 S
C564 N266 1.251 . S
C573 N134 1.249 . S
C575 N299 1.251 . S
C584 N332 1.238 . S
C586 N167 1.250 . S
C595 C172 1.967 . S
C597 C18 1.977 1_556 S
C606 C7 1.968 . S
C608 C51 1.977 . S
C617 C84 1.978 . S
C619 C40 1.967 . S
C628 C73 1.969 . S
C630 C117 1.976 . S
C639 C150 1.977 . S
C641 C106 1.966 . S
C650 C183 1.978 . S
C652 C139 1.967 . S
C661 C238 1.965 . S
C663 C216 1.978 . S
C672 C249 1.977 1_554 S
C674 C271 1.966 . S
C683 C282 1.977 . S
C685 C304 1.968 . S
C694 C337 1.969 . S
C696 C315 1.976 . S
C705 C370 1.966 . S
C707 C348 1.978 . S
C716 C381 1.977 . S
C718 C205 1.968 . S
