# Generated by pormake.
# Topology ukg, (4)-cn, num edge types: 1
# Building blocks:
#     Node 0, Type 0, BuildingBlock: NAWXER_clean_sbu_0, # of connection points: 4
#     Node 1, Type 0, BuildingBlock: NAWXER_clean_sbu_0, # of connection points: 4
#     Node 2, Type 0, BuildingBlock: NAWXER_clean_sbu_0, # of connection points: 4
#     Node 3, Type 0, BuildingBlock: NAWXER_clean_sbu_0, # of connection points: 4
#     Node 4, Type 0, BuildingBlock: NAWXER_clean_sbu_0, # of connection points: 4
#     Node 5, Type 0, BuildingBlock: NAWXER_clean_sbu_0, # of connection points: 4
#     Node 6, Type 0, BuildingBlock: NAWXER_clean_sbu_0, # of connection points: 4
#     Node 7, Type 0, BuildingBlock: NAWXER_clean_sbu_0, # of connection points: 4
#     Edge 8, Type (0, 0), BuildingBlock: KIFKEQ_clean_linker_1, # of connection points: 2
#     Edge 9, Type (0, 0), BuildingBlock: KIFKEQ_clean_linker_1, # of connection points: 2
#     Edge 10, Type (0, 0), BuildingBlock: KIFKEQ_clean_linker_1, # of connection points: 2
#     Edge 11, Type (0, 0), BuildingBlock: KIFKEQ_clean_linker_1, # of connection points: 2
#     Edge 12, Type (0, 0), BuildingBlock: KIFKEQ_clean_linker_1, # of connection points: 2
#     Edge 13, Type (0, 0), BuildingBlock: KIFKEQ_clean_linker_1, # of connection points: 2
#     Edge 14, Type (0, 0), BuildingBlock: KIFKEQ_clean_linker_1, # of connection points: 2
#     Edge 15, Type (0, 0), BuildingBlock: KIFKEQ_clean_linker_1, # of connection points: 2
#     Edge 16, Type (0, 0), BuildingBlock: KIFKEQ_clean_linker_1, # of connection points: 2
#     Edge 17, Type (0, 0), BuildingBlock: KIFKEQ_clean_linker_1, # of connection points: 2
#     Edge 18, Type (0, 0), BuildingBlock: KIFKEQ_clean_linker_1, # of connection points: 2
#     Edge 19, Type (0, 0), BuildingBlock: KIFKEQ_clean_linker_1, # of connection points: 2
#     Edge 20, Type (0, 0), BuildingBlock: KIFKEQ_clean_linker_1, # of connection points: 2
#     Edge 21, Type (0, 0), BuildingBlock: KIFKEQ_clean_linker_1, # of connection points: 2
#     Edge 22, Type (0, 0), BuildingBlock: KIFKEQ_clean_linker_1, # of connection points: 2
#     Edge 23, Type (0, 0), BuildingBlock: KIFKEQ_clean_linker_1, # of connection points: 2
# Relax obj value: 0.100
# Max RMSD: 0.242
# Mean RMSD: 0.242
data_MOF--net-ukg--node1-NAWXER_clean_sbu_0--edge1-KIFKEQ_clean_linker_1
_symmetry_space_group_name_H-M    P1
_symmetry_Int_Tables_number       1
_symmetry_cell_setting            triclinic
loop_
_symmetry_equiv_pos_as_xyz
'x, y, z'
_cell_length_a     31.411666
_cell_length_b     31.405669
_cell_length_c     38.969318
_cell_angle_alpha  90.001748
_cell_angle_beta   90.008131
_cell_angle_gamma 89.997598
loop_
_atom_site_label
_atom_site_type_symbol
_atom_site_fract_x
_atom_site_fract_y
_atom_site_fract_z
_atom_type_partial_charge
C0 C 0.11312 0.67721 0.14997 0.0
C1 C 0.98154 0.61524 0.19289 0.0
O2 O 0.10796 0.64829 0.1723 0.0
Zn3 Zn 0.04671 0.64411 0.1698 0.0
O4 O 0.08061 0.69179 0.13394 0.0
Zn5 Zn 0.01317 0.68075 0.13388 0.0
O6 O 0.99259 0.73679 0.14366 0.0
O7 O 0.02383 0.7057 0.18797 0.0
O8 O 0.97462 0.64201 0.16855 0.0
O9 O 0.01954 0.60633 0.20149 0.0
O10 O 0.03411 0.61212 0.12215 0.0
O11 O 1.00093 0.65809 0.08892 0.0
C12 C 1.0039 0.73756 0.17495 0.0
C13 C 0.01626 0.62116 0.09347 0.0
C14 C 0.33087 0.61451 0.65423 0.0
C15 C 0.39796 0.48698 0.69918 0.0
O16 O 0.3594 0.61093 0.67707 0.0
Zn17 Zn 0.36655 0.55023 0.67484 0.0
O18 O 0.31845 0.58128 0.63793 0.0
Zn19 Zn 0.33325 0.51428 0.63857 0.0
O20 O 0.27818 0.49062 0.64731 0.0
O21 O 0.30547 0.52514 0.69161 0.0
O22 O 0.37368 0.47835 0.67357 0.0
O23 O 0.403 0.52533 0.70865 0.0
O24 O 0.40074 0.53936 0.62738 0.0
O25 O 0.35733 0.50226 0.59455 0.0
C26 C 0.27532 0.50313 0.67819 0.0
C27 C 0.39309 0.52016 0.59895 0.0
C28 C 0.51028 0.76831 0.17377 0.0
C29 C 0.49186 0.88571 0.09425 0.0
O30 O 0.52506 0.77294 0.14369 0.0
Zn31 Zn 0.49853 0.82637 0.13424 0.0
O32 O 0.48585 0.79707 0.18649 0.0
Zn33 Zn 0.4612 0.85859 0.16992 0.0
O34 O 0.40087 0.85131 0.1715 0.0
O35 O 0.43137 0.80969 0.13317 0.0
O36 O 0.47212 0.89311 0.1225 0.0
O37 O 0.51048 0.85027 0.09016 0.0
O38 O 0.53292 0.86797 0.16912 0.0
O39 O 0.48495 0.89525 0.20426 0.0
C40 C 0.3978 0.82226 0.14905 0.0
C41 C 0.52345 0.89174 0.19481 0.0
C42 C 0.11525 0.9883 0.59695 0.0
C43 C 0.23274 0.00707 0.67646 0.0
O44 O 0.15158 0.00469 0.59178 0.0
Zn45 Zn 0.17535 0.9946 0.63642 0.0
O46 O 0.10727 0.97071 0.62599 0.0
Zn47 Zn 0.14169 0.95971 0.67321 0.0
O48 O 0.1054 0.98512 0.70667 0.0
O49 O 0.13455 0.03144 0.67085 0.0
O50 O 0.20245 0.98534 0.68994 0.0
O51 O 0.23038 0.01863 0.64529 0.0
O52 O 0.19025 0.92783 0.63694 0.0
O53 O 0.14872 0.89888 0.67595 0.0
C54 C 0.11034 0.02328 0.69663 0.0
C55 C 0.17758 0.89489 0.65344 0.0
C56 C 0.0237 0.39623 0.81352 0.0
C57 C 0.89291 0.33202 0.85433 0.0
O58 O 0.03082 0.37191 0.83942 0.0
Zn59 Zn 0.99226 0.33218 0.87335 0.0
O60 O 0.9859 0.40178 0.8029 0.0
Zn61 Zn 0.95904 0.36585 0.83581 0.0
O62 O 0.96809 0.40014 0.88359 0.0
O63 O 1.003 0.35616 0.91751 0.0
O64 O 0.89882 0.35936 0.83088 0.0
O65 O 0.92466 0.31956 0.87244 0.0
O66 O 0.01499 0.27629 0.86536 0.0
O67 O 0.98389 0.30456 0.8199 0.0
C68 C 0.98599 0.39225 0.91254 0.0
C69 C 0.00437 0.27385 0.834 0.0
C70 C 0.73969 0.50868 0.33812 0.0
C71 C 0.62253 0.49192 0.41829 0.0
O72 O 0.70973 0.48584 0.32518 0.0
Zn73 Zn 0.64778 0.46215 0.34229 0.0
O74 O 0.73657 0.52202 0.36879 0.0
Zn75 Zn 0.68235 0.49738 0.37827 0.0
O76 O 0.69676 0.43009 0.37799 0.0
O77 O 0.65343 0.40138 0.34004 0.0
O78 O 0.6588 0.50862 0.42299 0.0
O79 O 0.61441 0.47368 0.38958 0.0
O80 O 0.61006 0.48803 0.30965 0.0
O81 O 0.64288 0.53412 0.34332 0.0
C82 C 0.68291 0.39714 0.36201 0.0
C83 C 0.61718 0.52631 0.31846 0.0
C84 C 0.52019 0.11632 0.91445 0.0
C85 C 0.50231 0.23627 0.83719 0.0
O86 O 0.53662 0.10846 0.88494 0.0
Zn87 Zn 0.54648 0.14369 0.83783 0.0
O88 O 0.50489 0.15294 0.92041 0.0
Zn89 Zn 0.51439 0.17734 0.876 0.0
O90 O 0.47472 0.13854 0.84171 0.0
O91 O 0.51913 0.10898 0.80459 0.0
O92 O 0.49214 0.23366 0.86865 0.0
O93 O 0.52221 0.20546 0.82271 0.0
O94 O 0.60684 0.14924 0.83269 0.0
O95 O 0.58198 0.18945 0.87433 0.0
C96 C 0.48145 0.11477 0.81537 0.0
C97 C 0.61336 0.17657 0.85602 0.0
C98 C 0.88686 0.01678 0.41533 0.0
C99 C 0.77001 1.00139 0.33477 0.0
O100 O 0.8951 0.03592 0.38697 0.0
Zn101 Zn 0.86184 0.04715 0.33913 0.0
O102 O 0.85089 0.99917 0.41936 0.0
Zn103 Zn 0.82762 0.01166 0.37506 0.0
O104 O 0.86831 0.97512 0.34049 0.0
O105 O 0.89862 0.02192 0.30583 0.0
O106 O 0.77221 0.9889 0.36569 0.0
O107 O 0.80072 0.02293 0.32169 0.0
O108 O 0.85582 0.1079 0.33683 0.0
O109 O 0.81417 0.07909 0.37588 0.0
C110 C 0.89315 0.98359 0.31518 0.0
C111 C 0.8274 0.1121 0.35967 0.0
H112 H 0.94037 0.4664 0.91745 0.0
H113 H 0.03884 0.39365 0.9679 0.0
H114 H 0.94671 0.52161 0.96123 0.0
H115 H 0.04676 0.44939 0.01051 0.0
H116 H 0.02425 0.5354 0.10123 0.0
H117 H 0.0147 0.48038 0.05814 0.0
H118 H 0.99049 0.57702 0.98151 0.0
H119 H 0.998 0.63204 0.02529 0.0
C120 C 0.96348 0.4623 0.93781 0.0
C121 C 0.98889 0.42554 0.93933 0.0
C122 C 0.96741 0.49412 0.96279 0.0
C123 C 0.99727 0.49014 0.98958 0.0
C124 C 0.02276 0.45333 0.99083 0.0
C125 C 0.01838 0.42134 0.96622 0.0
C126 C 0.01701 0.54492 0.07515 0.0
C127 C 0.01202 0.58808 0.06664 0.0
C128 C 0.01172 0.51332 0.05031 0.0
C129 C 1.002 0.52406 0.01613 0.0
C130 C 0.99726 0.56738 0.00761 0.0
C131 C 1.00192 0.59901 0.03265 0.0
H132 H 0.466 0.56731 0.5928 0.0
H133 H 0.39543 0.46555 0.54463 0.0
H134 H 0.52108 0.56099 0.54901 0.0
H135 H 0.45118 0.4577 0.50194 0.0
H136 H 0.53706 0.48032 0.41057 0.0
H137 H 0.48165 0.48888 0.45354 0.0
H138 H 0.57737 0.51785 0.52985 0.0
H139 H 0.6326 0.51128 0.48625 0.0
C140 C 0.46237 0.54345 0.57294 0.0
C141 C 0.42627 0.51709 0.57209 0.0
C142 C 0.49413 0.53954 0.54795 0.0
C143 C 0.49081 0.50874 0.52181 0.0
C144 C 0.45461 0.48235 0.52116 0.0
C145 C 0.42264 0.4867 0.54581 0.0
C146 C 0.54627 0.48837 0.43656 0.0
C147 C 0.58921 0.49507 0.44502 0.0
C148 C 0.51447 0.49311 0.46133 0.0
C149 C 0.52484 0.50402 0.49536 0.0
C150 C 0.56797 0.51022 0.50384 0.0
C151 C 0.59974 0.5061 0.47891 0.0
H152 H 0.4455 0.95926 0.08859 0.0
H153 H 0.5453 0.88727 0.03912 0.0
H154 H 0.45192 0.01436 0.04481 0.0
H155 H 0.55313 0.94297 0.99636 0.0
H156 H 0.53001 0.03059 0.90562 0.0
H157 H 0.52137 0.97467 0.9483 0.0
H158 H 0.49655 0.06989 0.02593 0.0
H159 H 0.50334 0.12557 0.98282 0.0
C160 C 0.46892 0.95529 0.06844 0.0
C161 C 0.49477 0.91882 0.06729 0.0
C162 C 0.47288 0.98705 0.04345 0.0
C163 C 0.50318 0.98335 0.01697 0.0
C164 C 0.52893 0.94672 0.0159 0.0
C165 C 0.52459 0.91478 0.04059 0.0
C166 C 0.52288 0.03955 0.93184 0.0
C167 C 0.51737 0.08251 0.94083 0.0
C168 C 0.51806 0.00747 0.95642 0.0
C169 C 0.50818 0.01758 0.99071 0.0
C170 C 0.5033 0.06071 0.99971 0.0
C171 C 0.50757 0.09274 0.97503 0.0
H172 H 0.88781 0.96286 0.47021 0.0
H173 H 0.9602 0.06311 0.42176 0.0
H174 H 0.94308 0.9548 0.51337 0.0
H175 H 0.01475 0.05657 0.46592 0.0
H176 H 0.12533 0.00607 0.5288 0.0
H177 H 0.07021 0.01258 0.48518 0.0
H178 H 0.97418 0.98591 0.56176 0.0
H179 H 0.02958 0.97745 0.60488 0.0
C180 C 0.91531 0.98362 0.46906 0.0
C181 C 0.91962 0.01362 0.44253 0.0
C182 C 0.947 0.97915 0.49397 0.0
C183 C 0.98359 0.005 0.4933 0.0
C184 C 0.98751 0.03549 0.46698 0.0
C185 C 0.95605 0.03953 0.44176 0.0
C186 C 0.09244 1.00138 0.53623 0.0
C187 C 0.08183 0.9911 0.57026 0.0
C188 C 0.06072 0.00547 0.51127 0.0
C189 C 0.01752 1.0 0.51982 0.0
C190 C 0.00704 0.98966 0.55395 0.0
C191 C 0.03883 0.98496 0.57879 0.0
H192 H 0.13184 0.75169 0.11723 0.0
H193 H 0.19066 0.64578 0.16982 0.0
H194 H 0.20115 0.78634 0.11225 0.0
H195 H 0.2601 0.68045 0.16444 0.0
H196 H 0.38268 0.74312 0.12228 0.0
H197 H 0.31405 0.70629 0.11814 0.0
H198 H 0.25072 0.81753 0.15847 0.0
H199 H 0.31904 0.85407 0.16305 0.0
C200 C 0.15962 0.7355 0.12729 0.0
C201 C 0.15572 0.69606 0.14409 0.0
C202 C 0.19924 0.75546 0.12454 0.0
C203 C 0.2359 0.73612 0.13803 0.0
C204 C 0.23236 0.69591 0.15359 0.0
C205 C 0.1926 0.67621 0.15683 0.0
C206 C 0.35401 0.75986 0.12982 0.0
C207 C 0.35621 0.80145 0.14305 0.0
C208 C 0.31485 0.7387 0.12765 0.0
C209 C 0.27716 0.75908 0.13801 0.0
C210 C 0.27924 0.80119 0.15004 0.0
C211 C 0.31837 0.82202 0.1528 0.0
H212 H 0.36028 0.69356 0.67138 0.0
H213 H 0.25357 0.62915 0.62445 0.0
H214 H 0.32254 0.76137 0.66652 0.0
H215 H 0.21567 0.697 0.62009 0.0
H216 H 0.14837 0.81609 0.67174 0.0
H217 H 0.18599 0.74815 0.66714 0.0
H218 H 0.29232 0.81179 0.61932 0.0
H219 H 0.2546 0.87971 0.62342 0.0
C220 C 0.32897 0.69395 0.65974 0.0
C221 C 0.30987 0.65603 0.64835 0.0
C222 C 0.30747 0.73276 0.65683 0.0
C223 C 0.26618 0.7343 0.64303 0.0
C224 C 0.2474 0.69657 0.63099 0.0
C225 C 0.2692 0.65785 0.63333 0.0
C226 C 0.17955 0.8155 0.65987 0.0
C227 C 0.19855 0.85324 0.64801 0.0
C228 C 0.20096 0.77662 0.65711 0.0
C229 C 0.24206 0.77484 0.64296 0.0
C230 C 0.26074 0.81239 0.63049 0.0
C231 C 0.23904 0.85116 0.63269 0.0
H232 H 0.64314 0.22587 0.909 0.0
H233 H 0.67953 0.17259 0.81101 0.0
H234 H 0.71117 0.26419 0.91163 0.0
H235 H 0.74666 0.21139 0.81353 0.0
H236 H 0.82631 0.33476 0.80968 0.0
H237 H 0.75945 0.2956 0.81304 0.0
H238 H 0.79636 0.24442 0.91137 0.0
H239 H 0.86413 0.28311 0.90789 0.0
C240 C 0.66574 0.22201 0.88824 0.0
C241 C 0.6559 0.1963 0.85974 0.0
C242 C 0.70458 0.24386 0.88981 0.0
C243 C 0.73375 0.24095 0.86262 0.0
C244 C 0.72443 0.2144 0.83465 0.0
C245 C 0.68609 0.19204 0.83334 0.0
C246 C 0.82013 0.31557 0.83224 0.0
C247 C 0.85062 0.3119 0.85847 0.0
C248 C 0.78195 0.29299 0.83402 0.0
C249 C 0.77308 0.26683 0.86231 0.0
C250 C 0.80259 0.26445 0.88931 0.0
C251 C 0.84128 0.2865 0.88726 0.0
H252 H 0.65078 0.31906 0.34526 0.0
H253 H 0.76052 0.38007 0.39056 0.0
H254 H 0.68637 0.2501 0.34966 0.0
H255 H 0.79625 0.31101 0.39454 0.0
H256 H 0.85894 0.19021 0.34229 0.0
H257 H 0.82361 0.25919 0.3478 0.0
H258 H 0.71569 0.19824 0.39559 0.0
H259 H 0.75116 0.12917 0.39051 0.0
C260 C 0.68232 0.31769 0.35644 0.0
C261 C 0.70289 0.35501 0.36748 0.0
C262 C 0.70258 0.2782 0.35912 0.0
C263 C 0.74407 0.2753 0.37237 0.0
C264 C 0.76434 0.31244 0.38406 0.0
C265 C 0.74379 0.35188 0.38193 0.0
C266 C 0.8279 0.19158 0.35435 0.0
C267 C 0.80778 0.15425 0.36588 0.0
C268 C 0.8078 0.23108 0.35765 0.0
C269 C 0.7669 0.23397 0.37204 0.0
C270 C 0.74713 0.19682 0.38424 0.0
C271 C 0.76754 0.15737 0.38148 0.0
H272 H 0.79005 0.5784 0.34641 0.0
H273 H 0.77177 0.46833 0.28151 0.0
H274 H 0.84818 0.60232 0.30935 0.0
H275 H 0.83103 0.49192 0.24502 0.0
H276 H 0.97966 0.54025 0.22847 0.0
H277 H 0.92064 0.5118 0.26282 0.0
H278 H 0.844 0.62077 0.23605 0.0
H279 H 0.90226 0.64875 0.20091 0.0
C280 C 0.79879 0.55906 0.32449 0.0
C281 C 0.77641 0.52149 0.31682 0.0
C282 C 0.83183 0.57288 0.30328 0.0
C283 C 0.84373 0.54889 0.2745 0.0
C284 C 0.82224 0.5108 0.26719 0.0
C285 C 0.78844 0.49744 0.28797 0.0
C286 C 0.95004 0.55788 0.22966 0.0
C287 C 0.94547 0.59667 0.21203 0.0
C288 C 0.9164 0.54155 0.24916 0.0
C289 C 0.87813 0.56428 0.25194 0.0
C290 C 0.87337 0.60282 0.23417 0.0
C291 C 0.90658 0.61865 0.21404 0.0
H292 H 0.434 0.4145 0.67439 0.0
H293 H 0.40512 0.48103 0.76829 0.0
H294 H 0.46386 0.35567 0.70718 0.0
H295 H 0.43099 0.42096 0.8015 0.0
H296 H 0.50467 0.31953 0.85655 0.0
H297 H 0.48481 0.38143 0.82249 0.0
H298 H 0.44835 0.29793 0.73896 0.0
H299 H 0.47214 0.237 0.77215 0.0
C300 C 0.43384 0.41622 0.70216 0.0
C301 C 0.41755 0.45217 0.7189 0.0
C302 C 0.45048 0.38228 0.72112 0.0
C303 C 0.44969 0.38282 0.75733 0.0
C304 C 0.43331 0.41926 0.77385 0.0
C305 C 0.41809 0.45376 0.75483 0.0
C306 C 0.49268 0.31479 0.83076 0.0
C307 C 0.48997 0.27375 0.81684 0.0
C308 C 0.48086 0.35021 0.81121 0.0
C309 C 0.46458 0.34523 0.77769 0.0
C310 C 0.46167 0.3037 0.76412 0.0
C311 C 0.4749 0.26852 0.78327 0.0
H312 H 0.59468 0.93039 0.17014 0.0
H313 H 0.52902 0.89914 0.26392 0.0
H314 H 0.65232 0.96237 0.20303 0.0
H315 H 0.588 0.9271 0.29722 0.0
H316 H 0.68656 1.0024 0.35316 0.0
H317 H 0.62551 0.98192 0.31844 0.0
H318 H 0.71058 0.94946 0.23488 0.0
H319 H 0.77064 0.97401 0.26883 0.0
C320 C 0.5929 0.93018 0.19791 0.0
C321 C 0.55752 0.91258 0.21458 0.0
C322 C 0.62617 0.94806 0.21692 0.0
C323 C 0.62556 0.94727 0.25313 0.0
C324 C 0.5897 0.92955 0.26957 0.0
C325 C 0.55582 0.91309 0.25051 0.0
C326 C 0.69183 0.99127 0.32719 0.0
C327 C 0.73305 0.98977 0.31355 0.0
C328 C 0.65689 0.97903 0.30726 0.0
C329 C 0.66256 0.96341 0.27361 0.0
C330 C 0.70425 0.96211 0.26018 0.0
C331 C 0.73895 0.97582 0.27973 0.0
H332 H 0.03391 0.27347 0.76869 0.0
H333 H 1.00259 0.19063 0.85318 0.0
H334 H 0.05823 0.21272 0.73545 0.0
H335 H 0.02293 0.12896 0.81912 0.0
H336 H 0.10368 0.03018 0.76563 0.0
H337 H 0.07745 0.09035 0.79846 0.0
H338 H 0.04384 0.15447 0.70378 0.0
H339 H 0.07408 0.09549 0.67132 0.0
C340 C 0.03151 0.24193 0.77981 0.0
C341 C 0.01669 0.23655 0.81344 0.0
C342 C 0.04506 0.20686 0.76065 0.0
C343 C 0.04275 0.16532 0.77429 0.0
C344 C 0.02653 0.1602 0.8078 0.0
C345 C 0.01441 0.19549 0.82736 0.0
C346 C 0.09049 0.05721 0.752 0.0
C347 C 0.09086 0.0584 0.71606 0.0
C348 C 0.07503 0.09176 0.7708 0.0
C349 C 0.05821 0.12785 0.75407 0.0
C350 C 0.05745 0.12809 0.71786 0.0
C351 C 0.07433 0.09408 0.6991 0.0
H352 H 0.03207 0.40295 0.7447 0.0
H353 H 0.09584 0.43162 0.83988 0.0
H354 H 0.09263 0.42957 0.71268 0.0
H355 H 0.1553 0.4623 0.8082 0.0
H356 H 0.27495 0.47398 0.74365 0.0
H357 H 0.21412 0.44924 0.77671 0.0
H358 H 0.13059 0.48493 0.69297 0.0
H359 H 0.19229 0.50554 0.65913 0.0
C360 C 0.05888 0.41598 0.75871 0.0
C361 C 0.05948 0.41531 0.79465 0.0
C362 C 0.09365 0.4317 0.74037 0.0
C363 C 0.12937 0.44856 0.75756 0.0
C364 C 0.12916 0.44878 0.79378 0.0
C365 C 0.09491 0.43162 0.81209 0.0
C366 C 0.24342 0.47639 0.73253 0.0
C367 C 0.23808 0.49127 0.69891 0.0
C368 C 0.20832 0.46258 0.75155 0.0
C369 C 0.16686 0.46471 0.73775 0.0
C370 C 0.16179 0.48132 0.70435 0.0
C371 C 0.19708 0.49364 0.68494 0.0
H372 H 0.64667 0.60751 0.31351 0.0
H373 H 0.545 0.52518 0.27911 0.0
H374 H 0.61823 0.66524 0.27812 0.0
H375 H 0.51603 0.5837 0.24441 0.0
H376 H 0.46866 0.73426 0.22899 0.0
H377 H 0.49188 0.67432 0.26492 0.0
H378 H 0.6041 0.65984 0.2023 0.0
H379 H 0.58065 0.71872 0.16578 0.0
C380 C 0.61793 0.60193 0.29881 0.0
C381 C 0.59805 0.56184 0.29901 0.0
C382 C 0.60185 0.63488 0.27854 0.0
C383 C 0.56511 0.62859 0.25876 0.0
C384 C 0.54438 0.58906 0.25964 0.0
C385 C 0.561 0.55573 0.27935 0.0
C386 C 0.49809 0.71802 0.22275 0.0
C387 C 0.52286 0.73109 0.1946 0.0
C388 C 0.5112 0.68382 0.2432 0.0
C389 C 0.54968 0.6629 0.2362 0.0
C390 C 0.57431 0.67571 0.20805 0.0
C391 C 0.56079 0.70922 0.18718 0.0
H392 H 0.47346 0.11028 0.74649 0.0
H393 H 0.40861 0.07931 0.84071 0.0
H394 H 0.41346 0.08412 0.71357 0.0
H395 H 0.34965 0.04911 0.80805 0.0
H396 H 0.23144 0.03614 0.74194 0.0
H397 H 0.29119 0.06175 0.77585 0.0
H398 H 0.37686 0.02833 0.69294 0.0
H399 H 0.3162 0.00676 0.65826 0.0
C400 C 0.44649 0.09692 0.76008 0.0
C401 C 0.4455 0.0967 0.79603 0.0
C402 C 0.41206 0.08144 0.74122 0.0
C403 C 0.37627 0.06392 0.75784 0.0
C404 C 0.37592 0.06308 0.79406 0.0
C405 C 0.40986 0.07999 0.81293 0.0
C406 C 0.2632 0.03445 0.73115 0.0
C407 C 0.26941 0.01985 0.69754 0.0
C408 C 0.29767 0.04877 0.75068 0.0
C409 C 0.33941 0.04748 0.7374 0.0
C410 C 0.34539 0.03129 0.70395 0.0
C411 C 0.3107 0.01842 0.68405 0.0
H412 H 0.00863 0.82156 0.15873 0.0
H413 H 0.9726 0.73538 0.23973 0.0
H414 H 0.98732 0.88191 0.1939 0.0
H415 H 0.94729 0.79493 0.27398 0.0
H416 H 0.92718 0.91005 0.34019 0.0
H417 H 0.9592 0.85209 0.30762 0.0
H418 H 0.93157 0.91966 0.21324 0.0
H419 H 0.90351 0.97872 0.24634 0.0
C420 C 0.99571 0.8157 0.18408 0.0
C421 C 0.99227 0.77408 0.19666 0.0
C422 C 0.98295 0.85024 0.20423 0.0
C423 C 0.96487 0.84383 0.23697 0.0
C424 C 0.96177 0.80176 0.24941 0.0
C425 C 0.97595 0.76739 0.22969 0.0
C426 C 0.92857 0.91241 0.31247 0.0
C427 C 0.9132 0.94877 0.29571 0.0
C428 C 0.94652 0.879 0.29363 0.0
C429 C 0.94809 0.88055 0.25745 0.0
C430 C 0.93229 0.91724 0.24092 0.0
C431 C 0.91574 0.95116 0.25986 0.0
loop_
_geom_bond_atom_site_label_1
_geom_bond_atom_site_label_2
_geom_bond_distance
_geom_bond_site_symmetry_2
_ccdc_geom_bond_type
C0 O2 1.247 . S
C0 O4 1.258 . S
C1 O8 1.247 . S
C1 O9 1.258 . S
O2 C0 1.247 . S
O2 Zn3 2.028 . S
Zn3 O2 2.028 . S
Zn3 O7 2.035 . S
Zn3 O9 2.035 1_455 S
Zn3 O10 2.028 . S
O4 C0 1.258 . S
O4 Zn5 2.035 1_455 S
Zn5 O4 2.035 1_655 S
Zn5 O6 2.028 . S
Zn5 O8 2.028 . S
Zn5 O11 2.035 . S
O6 Zn5 2.028 . S
O6 C12 1.247 . S
O7 Zn3 2.035 . S
O7 C12 1.258 1_455 S
O8 C1 1.247 . S
O8 Zn5 2.028 . S
O9 C1 1.258 . S
O9 Zn3 2.035 1_655 S
O10 Zn3 2.028 . S
O10 C13 1.247 . S
O11 Zn5 2.035 . S
O11 C13 1.258 1_655 S
C12 O6 1.247 . S
C12 O7 1.258 1_655 S
C13 O10 1.247 . S
C13 O11 1.258 1_455 S
C14 O16 1.247 . S
C14 O18 1.258 . S
C15 O22 1.247 . S
C15 O23 1.258 . S
O16 C14 1.247 . S
O16 Zn17 2.028 . S
Zn17 O16 2.028 . S
Zn17 O21 2.035 . S
Zn17 O23 2.035 . S
Zn17 O24 2.028 . S
O18 C14 1.258 . S
O18 Zn19 2.035 . S
Zn19 O18 2.035 . S
Zn19 O20 2.028 . S
Zn19 O22 2.028 . S
Zn19 O25 2.035 . S
O20 Zn19 2.028 . S
O20 C26 1.247 . S
O21 Zn17 2.035 . S
O21 C26 1.258 . S
O22 C15 1.247 . S
O22 Zn19 2.028 . S
O23 C15 1.258 . S
O23 Zn17 2.035 . S
O24 Zn17 2.028 . S
O24 C27 1.247 . S
O25 Zn19 2.035 . S
O25 C27 1.258 . S
C26 O20 1.247 . S
C26 O21 1.258 . S
C27 O24 1.247 . S
C27 O25 1.258 . S
C28 O30 1.247 . S
C28 O32 1.258 . S
C29 O36 1.247 . S
C29 O37 1.258 . S
O30 C28 1.247 . S
O30 Zn31 2.028 . S
Zn31 O30 2.028 . S
Zn31 O35 2.035 . S
Zn31 O37 2.035 . S
Zn31 O38 2.028 . S
O32 C28 1.258 . S
O32 Zn33 2.035 . S
Zn33 O32 2.035 . S
Zn33 O34 2.028 . S
Zn33 O36 2.028 . S
Zn33 O39 2.035 . S
O34 Zn33 2.028 . S
O34 C40 1.247 . S
O35 Zn31 2.035 . S
O35 C40 1.258 . S
O36 C29 1.247 . S
O36 Zn33 2.028 . S
O37 C29 1.258 . S
O37 Zn31 2.035 . S
O38 Zn31 2.028 . S
O38 C41 1.247 . S
O39 Zn33 2.035 . S
O39 C41 1.258 . S
C40 O34 1.247 . S
C40 O35 1.258 . S
C41 O38 1.247 . S
C41 O39 1.258 . S
C42 O44 1.247 1_565 S
C42 O46 1.258 . S
C43 O50 1.247 1_545 S
C43 O51 1.258 . S
O44 C42 1.247 1_545 S
O44 Zn45 2.028 . S
Zn45 O44 2.028 . S
Zn45 O49 2.035 . S
Zn45 O51 2.035 . S
Zn45 O52 2.028 1_545 S
O46 C42 1.258 . S
O46 Zn47 2.035 . S
Zn47 O46 2.035 . S
Zn47 O48 2.028 1_565 S
Zn47 O50 2.028 . S
Zn47 O53 2.035 . S
O48 Zn47 2.028 1_545 S
O48 C54 1.247 . S
O49 Zn45 2.035 . S
O49 C54 1.258 . S
O50 C43 1.247 1_565 S
O50 Zn47 2.028 . S
O51 C43 1.258 . S
O51 Zn45 2.035 . S
O52 Zn45 2.028 1_565 S
O52 C55 1.247 . S
O53 Zn47 2.035 . S
O53 C55 1.258 . S
C54 O48 1.247 . S
C54 O49 1.258 . S
C55 O52 1.247 . S
C55 O53 1.258 . S
C56 O58 1.247 . S
C56 O60 1.258 . S
C57 O64 1.247 . S
C57 O65 1.258 . S
O58 C56 1.247 . S
O58 Zn59 2.028 . S
Zn59 O58 2.028 . S
Zn59 O63 2.035 . S
Zn59 O65 2.035 1_455 S
Zn59 O66 2.028 . S
O60 C56 1.258 . S
O60 Zn61 2.035 1_455 S
Zn61 O60 2.035 1_655 S
Zn61 O62 2.028 . S
Zn61 O64 2.028 . S
Zn61 O67 2.035 . S
O62 Zn61 2.028 . S
O62 C68 1.247 . S
O63 Zn59 2.035 . S
O63 C68 1.258 1_455 S
O64 C57 1.247 . S
O64 Zn61 2.028 . S
O65 C57 1.258 . S
O65 Zn59 2.035 1_655 S
O66 Zn59 2.028 . S
O66 C69 1.247 . S
O67 Zn61 2.035 . S
O67 C69 1.258 1_655 S
C68 O62 1.247 . S
C68 O63 1.258 1_655 S
C69 O66 1.247 . S
C69 O67 1.258 1_455 S
C70 O72 1.247 . S
C70 O74 1.258 . S
C71 O78 1.247 . S
C71 O79 1.258 . S
O72 C70 1.247 . S
O72 Zn73 2.028 . S
Zn73 O72 2.028 . S
Zn73 O77 2.035 . S
Zn73 O79 2.035 . S
Zn73 O80 2.028 . S
O74 C70 1.258 . S
O74 Zn75 2.035 . S
Zn75 O74 2.035 . S
Zn75 O76 2.028 . S
Zn75 O78 2.028 . S
Zn75 O81 2.035 . S
O76 Zn75 2.028 . S
O76 C82 1.247 . S
O77 Zn73 2.035 . S
O77 C82 1.258 . S
O78 C71 1.247 . S
O78 Zn75 2.028 . S
O79 C71 1.258 . S
O79 Zn73 2.035 . S
O80 Zn73 2.028 . S
O80 C83 1.247 . S
O81 Zn75 2.035 . S
O81 C83 1.258 . S
C82 O76 1.247 . S
C82 O77 1.258 . S
C83 O80 1.247 . S
C83 O81 1.258 . S
C84 O86 1.247 . S
C84 O88 1.258 . S
C85 O92 1.247 . S
C85 O93 1.258 . S
O86 C84 1.247 . S
O86 Zn87 2.028 . S
Zn87 O86 2.028 . S
Zn87 O91 2.035 . S
Zn87 O93 2.035 . S
Zn87 O94 2.028 . S
O88 C84 1.258 . S
O88 Zn89 2.035 . S
Zn89 O88 2.035 . S
Zn89 O90 2.028 . S
Zn89 O92 2.028 . S
Zn89 O95 2.035 . S
O90 Zn89 2.028 . S
O90 C96 1.247 . S
O91 Zn87 2.035 . S
O91 C96 1.258 . S
O92 C85 1.247 . S
O92 Zn89 2.028 . S
O93 C85 1.258 . S
O93 Zn87 2.035 . S
O94 Zn87 2.028 . S
O94 C97 1.247 . S
O95 Zn89 2.035 . S
O95 C97 1.258 . S
C96 O90 1.247 . S
C96 O91 1.258 . S
C97 O94 1.247 . S
C97 O95 1.258 . S
C98 O100 1.247 . S
C98 O102 1.258 1_545 S
C99 O106 1.247 . S
C99 O107 1.258 1_565 S
O100 C98 1.247 . S
O100 Zn101 2.028 . S
Zn101 O100 2.028 . S
Zn101 O105 2.035 1_545 S
Zn101 O107 2.035 . S
Zn101 O108 2.028 . S
O102 C98 1.258 1_565 S
O102 Zn103 2.035 . S
Zn103 O102 2.035 . S
Zn103 O104 2.028 . S
Zn103 O106 2.028 . S
Zn103 O109 2.035 1_565 S
O104 Zn103 2.028 . S
O104 C110 1.247 . S
O105 Zn101 2.035 1_565 S
O105 C110 1.258 . S
O106 C99 1.247 . S
O106 Zn103 2.028 . S
O107 C99 1.258 1_545 S
O107 Zn101 2.035 . S
O108 Zn101 2.028 . S
O108 C111 1.247 . S
O109 Zn103 2.035 1_545 S
O109 C111 1.258 . S
C110 O104 1.247 . S
C110 O105 1.258 . S
C111 O108 1.247 . S
C111 O109 1.258 . S
H112 C120 0.950 . S
H113 C125 0.950 . S
H114 C122 0.950 . S
H115 C124 0.950 . S
H116 C126 0.950 . S
H117 C128 0.950 . S
H118 C130 0.950 . S
H119 C131 0.950 . S
C120 H112 0.950 . S
C120 C121 1.386 . S
C120 C122 1.391 . S
C121 C120 1.386 . S
C121 C125 1.393 1_655 S
C122 H114 0.950 . S
C122 C120 1.391 . S
C122 C123 1.400 . S
C123 C122 1.400 . S
C123 C124 1.398 1_655 S
C123 C129 1.491 1_656 S
C124 H115 0.950 . S
C124 C123 1.398 1_455 S
C124 C125 1.391 . S
C125 H113 0.950 . S
C125 C121 1.393 1_455 S
C125 C124 1.391 . S
C126 H116 0.950 . S
C126 C127 1.386 . S
C126 C128 1.391 . S
C127 C126 1.386 . S
C127 C131 1.393 1_455 S
C128 H117 0.950 . S
C128 C126 1.391 . S
C128 C129 1.400 . S
C129 C123 1.491 1_454 S
C129 C128 1.400 . S
C129 C130 1.398 1_455 S
C130 H118 0.950 . S
C130 C129 1.398 1_655 S
C130 C131 1.391 . S
C131 H119 0.950 . S
C131 C127 1.393 1_655 S
C131 C130 1.391 . S
H132 C140 0.950 . S
H133 C145 0.950 . S
H134 C142 0.950 . S
H135 C144 0.950 . S
H136 C146 0.950 . S
H137 C148 0.950 . S
H138 C150 0.950 . S
H139 C151 0.950 . S
C140 H132 0.950 . S
C140 C141 1.386 . S
C140 C142 1.391 . S
C141 C140 1.386 . S
C141 C145 1.393 . S
C142 H134 0.950 . S
C142 C140 1.391 . S
C142 C143 1.400 . S
C143 C142 1.400 . S
C143 C144 1.398 . S
C143 C149 1.491 . S
C144 H135 0.950 . S
C144 C143 1.398 . S
C144 C145 1.391 . S
C145 H133 0.950 . S
C145 C141 1.393 . S
C145 C144 1.391 . S
C146 H136 0.950 . S
C146 C147 1.386 . S
C146 C148 1.391 . S
C147 C146 1.386 . S
C147 C151 1.393 . S
C148 H137 0.950 . S
C148 C146 1.391 . S
C148 C149 1.400 . S
C149 C143 1.491 . S
C149 C148 1.400 . S
C149 C150 1.398 . S
C150 H138 0.950 . S
C150 C149 1.398 . S
C150 C151 1.391 . S
C151 H139 0.950 . S
C151 C147 1.393 . S
C151 C150 1.391 . S
H152 C160 0.950 . S
H153 C165 0.950 . S
H154 C162 0.950 . S
H155 C164 0.950 . S
H156 C166 0.950 . S
H157 C168 0.950 . S
H158 C170 0.950 . S
H159 C171 0.950 . S
C160 H152 0.950 . S
C160 C161 1.386 . S
C160 C162 1.391 . S
C161 C160 1.386 . S
C161 C165 1.393 . S
C162 H154 0.950 . S
C162 C160 1.391 . S
C162 C163 1.400 . S
C163 C162 1.400 . S
C163 C164 1.398 . S
C163 C169 1.491 1_564 S
C164 H155 0.950 . S
C164 C163 1.398 . S
C164 C165 1.391 . S
C165 H153 0.950 . S
C165 C161 1.393 . S
C165 C164 1.391 . S
C166 H156 0.950 . S
C166 C167 1.386 . S
C166 C168 1.391 . S
C167 C166 1.386 . S
C167 C171 1.393 . S
C168 H157 0.950 . S
C168 C166 1.391 . S
C168 C169 1.400 . S
C169 C163 1.491 1_546 S
C169 C168 1.400 . S
C169 C170 1.398 . S
C170 H158 0.950 . S
C170 C169 1.398 . S
C170 C171 1.391 . S
C171 H159 0.950 . S
C171 C167 1.393 . S
C171 C170 1.391 . S
H172 C180 0.950 . S
H173 C185 0.950 . S
H174 C182 0.950 . S
H175 C184 0.950 1_465 S
H176 C186 0.950 . S
H177 C188 0.950 . S
H178 C190 0.950 1_645 S
H179 C191 0.950 . S
C180 H172 0.950 . S
C180 C181 1.386 . S
C180 C182 1.391 . S
C181 C180 1.386 . S
C181 C185 1.393 . S
C182 H174 0.950 . S
C182 C180 1.391 . S
C182 C183 1.400 . S
C183 C182 1.400 . S
C183 C184 1.398 . S
C183 C189 1.491 1_645 S
C184 H175 0.950 1_645 S
C184 C183 1.398 . S
C184 C185 1.391 . S
C185 H173 0.950 . S
C185 C181 1.393 . S
C185 C184 1.391 . S
C186 H176 0.950 . S
C186 C187 1.386 . S
C186 C188 1.391 . S
C187 C186 1.386 . S
C187 C191 1.393 . S
C188 H177 0.950 . S
C188 C186 1.391 . S
C188 C189 1.400 . S
C189 C183 1.491 1_465 S
C189 C188 1.400 . S
C189 C190 1.398 . S
C190 H178 0.950 1_465 S
C190 C189 1.398 . S
C190 C191 1.391 . S
C191 H179 0.950 . S
C191 C187 1.393 . S
C191 C190 1.391 . S
H192 C200 0.950 . S
H193 C205 0.950 . S
H194 C202 0.950 . S
H195 C204 0.950 . S
H196 C206 0.950 . S
H197 C208 0.950 . S
H198 C210 0.950 . S
H199 C211 0.950 . S
C200 H192 0.950 . S
C200 C201 1.386 . S
C200 C202 1.391 . S
C201 C200 1.386 . S
C201 C205 1.393 . S
C202 H194 0.950 . S
C202 C200 1.391 . S
C202 C203 1.400 . S
C203 C202 1.400 . S
C203 C204 1.398 . S
C203 C209 1.491 . S
C204 H195 0.950 . S
C204 C203 1.398 . S
C204 C205 1.391 . S
C205 H193 0.950 . S
C205 C201 1.393 . S
C205 C204 1.391 . S
C206 H196 0.950 . S
C206 C207 1.386 . S
C206 C208 1.391 . S
C207 C206 1.386 . S
C207 C211 1.393 . S
C208 H197 0.950 . S
C208 C206 1.391 . S
C208 C209 1.400 . S
C209 C203 1.491 . S
C209 C208 1.400 . S
C209 C210 1.398 . S
C210 H198 0.950 . S
C210 C209 1.398 . S
C210 C211 1.391 . S
C211 H199 0.950 . S
C211 C207 1.393 . S
C211 C210 1.391 . S
H212 C220 0.950 . S
H213 C225 0.950 . S
H214 C222 0.950 . S
H215 C224 0.950 . S
H216 C226 0.950 . S
H217 C228 0.950 . S
H218 C230 0.950 . S
H219 C231 0.950 . S
C220 H212 0.950 . S
C220 C221 1.386 . S
C220 C222 1.391 . S
C221 C220 1.386 . S
C221 C225 1.393 . S
C222 H214 0.950 . S
C222 C220 1.391 . S
C222 C223 1.400 . S
C223 C222 1.400 . S
C223 C224 1.398 . S
C223 C229 1.491 . S
C224 H215 0.950 . S
C224 C223 1.398 . S
C224 C225 1.391 . S
C225 H213 0.950 . S
C225 C221 1.393 . S
C225 C224 1.391 . S
C226 H216 0.950 . S
C226 C227 1.386 . S
C226 C228 1.391 . S
C227 C226 1.386 . S
C227 C231 1.393 . S
C228 H217 0.950 . S
C228 C226 1.391 . S
C228 C229 1.400 . S
C229 C223 1.491 . S
C229 C228 1.400 . S
C229 C230 1.398 . S
C230 H218 0.950 . S
C230 C229 1.398 . S
C230 C231 1.391 . S
C231 H219 0.950 . S
C231 C227 1.393 . S
C231 C230 1.391 . S
H232 C240 0.950 . S
H233 C245 0.950 . S
H234 C242 0.950 . S
H235 C244 0.950 . S
H236 C246 0.950 . S
H237 C248 0.950 . S
H238 C250 0.950 . S
H239 C251 0.950 . S
C240 H232 0.950 . S
C240 C241 1.386 . S
C240 C242 1.391 . S
C241 C240 1.386 . S
C241 C245 1.393 . S
C242 H234 0.950 . S
C242 C240 1.391 . S
C242 C243 1.400 . S
C243 C242 1.400 . S
C243 C244 1.398 . S
C243 C249 1.491 . S
C244 H235 0.950 . S
C244 C243 1.398 . S
C244 C245 1.391 . S
C245 H233 0.950 . S
C245 C241 1.393 . S
C245 C244 1.391 . S
C246 H236 0.950 . S
C246 C247 1.386 . S
C246 C248 1.391 . S
C247 C246 1.386 . S
C247 C251 1.393 . S
C248 H237 0.950 . S
C248 C246 1.391 . S
C248 C249 1.400 . S
C249 C243 1.491 . S
C249 C248 1.400 . S
C249 C250 1.398 . S
C250 H238 0.950 . S
C250 C249 1.398 . S
C250 C251 1.391 . S
C251 H239 0.950 . S
C251 C247 1.393 . S
C251 C250 1.391 . S
H252 C260 0.950 . S
H253 C265 0.950 . S
H254 C262 0.950 . S
H255 C264 0.950 . S
H256 C266 0.950 . S
H257 C268 0.950 . S
H258 C270 0.950 . S
H259 C271 0.950 . S
C260 H252 0.950 . S
C260 C261 1.386 . S
C260 C262 1.391 . S
C261 C260 1.386 . S
C261 C265 1.393 . S
C262 H254 0.950 . S
C262 C260 1.391 . S
C262 C263 1.400 . S
C263 C262 1.400 . S
C263 C264 1.398 . S
C263 C269 1.491 . S
C264 H255 0.950 . S
C264 C263 1.398 . S
C264 C265 1.391 . S
C265 H253 0.950 . S
C265 C261 1.393 . S
C265 C264 1.391 . S
C266 H256 0.950 . S
C266 C267 1.386 . S
C266 C268 1.391 . S
C267 C266 1.386 . S
C267 C271 1.393 . S
C268 H257 0.950 . S
C268 C266 1.391 . S
C268 C269 1.400 . S
C269 C263 1.491 . S
C269 C268 1.400 . S
C269 C270 1.398 . S
C270 H258 0.950 . S
C270 C269 1.398 . S
C270 C271 1.391 . S
C271 H259 0.950 . S
C271 C267 1.393 . S
C271 C270 1.391 . S
H272 C280 0.950 . S
H273 C285 0.950 . S
H274 C282 0.950 . S
H275 C284 0.950 . S
H276 C286 0.950 . S
H277 C288 0.950 . S
H278 C290 0.950 . S
H279 C291 0.950 . S
C280 H272 0.950 . S
C280 C281 1.386 . S
C280 C282 1.391 . S
C281 C280 1.386 . S
C281 C285 1.393 . S
C282 H274 0.950 . S
C282 C280 1.391 . S
C282 C283 1.400 . S
C283 C282 1.400 . S
C283 C284 1.398 . S
C283 C289 1.491 . S
C284 H275 0.950 . S
C284 C283 1.398 . S
C284 C285 1.391 . S
C285 H273 0.950 . S
C285 C281 1.393 . S
C285 C284 1.391 . S
C286 H276 0.950 . S
C286 C287 1.386 . S
C286 C288 1.391 . S
C287 C286 1.386 . S
C287 C291 1.393 . S
C288 H277 0.950 . S
C288 C286 1.391 . S
C288 C289 1.400 . S
C289 C283 1.491 . S
C289 C288 1.400 . S
C289 C290 1.398 . S
C290 H278 0.950 . S
C290 C289 1.398 . S
C290 C291 1.391 . S
C291 H279 0.950 . S
C291 C287 1.393 . S
C291 C290 1.391 . S
H292 C300 0.950 . S
H293 C305 0.950 . S
H294 C302 0.950 . S
H295 C304 0.950 . S
H296 C306 0.950 . S
H297 C308 0.950 . S
H298 C310 0.950 . S
H299 C311 0.950 . S
C300 H292 0.950 . S
C300 C301 1.386 . S
C300 C302 1.391 . S
C301 C300 1.386 . S
C301 C305 1.393 . S
C302 H294 0.950 . S
C302 C300 1.391 . S
C302 C303 1.400 . S
C303 C302 1.400 . S
C303 C304 1.398 . S
C303 C309 1.491 . S
C304 H295 0.950 . S
C304 C303 1.398 . S
C304 C305 1.391 . S
C305 H293 0.950 . S
C305 C301 1.393 . S
C305 C304 1.391 . S
C306 H296 0.950 . S
C306 C307 1.386 . S
C306 C308 1.391 . S
C307 C306 1.386 . S
C307 C311 1.393 . S
C308 H297 0.950 . S
C308 C306 1.391 . S
C308 C309 1.400 . S
C309 C303 1.491 . S
C309 C308 1.400 . S
C309 C310 1.398 . S
C310 H298 0.950 . S
C310 C309 1.398 . S
C310 C311 1.391 . S
C311 H299 0.950 . S
C311 C307 1.393 . S
C311 C310 1.391 . S
H312 C320 0.950 . S
H313 C325 0.950 . S
H314 C322 0.950 . S
H315 C324 0.950 . S
H316 C326 0.950 . S
H317 C328 0.950 . S
H318 C330 0.950 . S
H319 C331 0.950 . S
C320 H312 0.950 . S
C320 C321 1.386 . S
C320 C322 1.391 . S
C321 C320 1.386 . S
C321 C325 1.393 . S
C322 H314 0.950 . S
C322 C320 1.391 . S
C322 C323 1.400 . S
C323 C322 1.400 . S
C323 C324 1.398 . S
C323 C329 1.491 . S
C324 H315 0.950 . S
C324 C323 1.398 . S
C324 C325 1.391 . S
C325 H313 0.950 . S
C325 C321 1.393 . S
C325 C324 1.391 . S
C326 H316 0.950 . S
C326 C327 1.386 . S
C326 C328 1.391 . S
C327 C326 1.386 . S
C327 C331 1.393 . S
C328 H317 0.950 . S
C328 C326 1.391 . S
C328 C329 1.400 . S
C329 C323 1.491 . S
C329 C328 1.400 . S
C329 C330 1.398 . S
C330 H318 0.950 . S
C330 C329 1.398 . S
C330 C331 1.391 . S
C331 H319 0.950 . S
C331 C327 1.393 . S
C331 C330 1.391 . S
H332 C340 0.950 . S
H333 C345 0.950 . S
H334 C342 0.950 . S
H335 C344 0.950 . S
H336 C346 0.950 . S
H337 C348 0.950 . S
H338 C350 0.950 . S
H339 C351 0.950 . S
C340 H332 0.950 . S
C340 C341 1.386 . S
C340 C342 1.391 . S
C341 C340 1.386 . S
C341 C345 1.393 . S
C342 H334 0.950 . S
C342 C340 1.391 . S
C342 C343 1.400 . S
C343 C342 1.400 . S
C343 C344 1.398 . S
C343 C349 1.491 . S
C344 H335 0.950 . S
C344 C343 1.398 . S
C344 C345 1.391 . S
C345 H333 0.950 . S
C345 C341 1.393 . S
C345 C344 1.391 . S
C346 H336 0.950 . S
C346 C347 1.386 . S
C346 C348 1.391 . S
C347 C346 1.386 . S
C347 C351 1.393 . S
C348 H337 0.950 . S
C348 C346 1.391 . S
C348 C349 1.400 . S
C349 C343 1.491 . S
C349 C348 1.400 . S
C349 C350 1.398 . S
C350 H338 0.950 . S
C350 C349 1.398 . S
C350 C351 1.391 . S
C351 H339 0.950 . S
C351 C347 1.393 . S
C351 C350 1.391 . S
H352 C360 0.950 . S
H353 C365 0.950 . S
H354 C362 0.950 . S
H355 C364 0.950 . S
H356 C366 0.950 . S
H357 C368 0.950 . S
H358 C370 0.950 . S
H359 C371 0.950 . S
C360 H352 0.950 . S
C360 C361 1.386 . S
C360 C362 1.391 . S
C361 C360 1.386 . S
C361 C365 1.393 . S
C362 H354 0.950 . S
C362 C360 1.391 . S
C362 C363 1.400 . S
C363 C362 1.400 . S
C363 C364 1.398 . S
C363 C369 1.491 . S
C364 H355 0.950 . S
C364 C363 1.398 . S
C364 C365 1.391 . S
C365 H353 0.950 . S
C365 C361 1.393 . S
C365 C364 1.391 . S
C366 H356 0.950 . S
C366 C367 1.386 . S
C366 C368 1.391 . S
C367 C366 1.386 . S
C367 C371 1.393 . S
C368 H357 0.950 . S
C368 C366 1.391 . S
C368 C369 1.400 . S
C369 C363 1.491 . S
C369 C368 1.400 . S
C369 C370 1.398 . S
C370 H358 0.950 . S
C370 C369 1.398 . S
C370 C371 1.391 . S
C371 H359 0.950 . S
C371 C367 1.393 . S
C371 C370 1.391 . S
H372 C380 0.950 . S
H373 C385 0.950 . S
H374 C382 0.950 . S
H375 C384 0.950 . S
H376 C386 0.950 . S
H377 C388 0.950 . S
H378 C390 0.950 . S
H379 C391 0.950 . S
C380 H372 0.950 . S
C380 C381 1.386 . S
C380 C382 1.391 . S
C381 C380 1.386 . S
C381 C385 1.393 . S
C382 H374 0.950 . S
C382 C380 1.391 . S
C382 C383 1.400 . S
C383 C382 1.400 . S
C383 C384 1.398 . S
C383 C389 1.491 . S
C384 H375 0.950 . S
C384 C383 1.398 . S
C384 C385 1.391 . S
C385 H373 0.950 . S
C385 C381 1.393 . S
C385 C384 1.391 . S
C386 H376 0.950 . S
C386 C387 1.386 . S
C386 C388 1.391 . S
C387 C386 1.386 . S
C387 C391 1.393 . S
C388 H377 0.950 . S
C388 C386 1.391 . S
C388 C389 1.400 . S
C389 C383 1.491 . S
C389 C388 1.400 . S
C389 C390 1.398 . S
C390 H378 0.950 . S
C390 C389 1.398 . S
C390 C391 1.391 . S
C391 H379 0.950 . S
C391 C387 1.393 . S
C391 C390 1.391 . S
H392 C400 0.950 . S
H393 C405 0.950 . S
H394 C402 0.950 . S
H395 C404 0.950 . S
H396 C406 0.950 . S
H397 C408 0.950 . S
H398 C410 0.950 . S
H399 C411 0.950 . S
C400 H392 0.950 . S
C400 C401 1.386 . S
C400 C402 1.391 . S
C401 C400 1.386 . S
C401 C405 1.393 . S
C402 H394 0.950 . S
C402 C400 1.391 . S
C402 C403 1.400 . S
C403 C402 1.400 . S
C403 C404 1.398 . S
C403 C409 1.491 . S
C404 H395 0.950 . S
C404 C403 1.398 . S
C404 C405 1.391 . S
C405 H393 0.950 . S
C405 C401 1.393 . S
C405 C404 1.391 . S
C406 H396 0.950 . S
C406 C407 1.386 . S
C406 C408 1.391 . S
C407 C406 1.386 . S
C407 C411 1.393 . S
C408 H397 0.950 . S
C408 C406 1.391 . S
C408 C409 1.400 . S
C409 C403 1.491 . S
C409 C408 1.400 . S
C409 C410 1.398 . S
C410 H398 0.950 . S
C410 C409 1.398 . S
C410 C411 1.391 . S
C411 H399 0.950 . S
C411 C407 1.393 . S
C411 C410 1.391 . S
H412 C420 0.950 . S
H413 C425 0.950 . S
H414 C422 0.950 . S
H415 C424 0.950 . S
H416 C426 0.950 . S
H417 C428 0.950 . S
H418 C430 0.950 . S
H419 C431 0.950 . S
C420 H412 0.950 . S
C420 C421 1.386 . S
C420 C422 1.391 . S
C421 C420 1.386 . S
C421 C425 1.393 . S
C422 H414 0.950 . S
C422 C420 1.391 . S
C422 C423 1.400 . S
C423 C422 1.400 . S
C423 C424 1.398 . S
C423 C429 1.491 . S
C424 H415 0.950 . S
C424 C423 1.398 . S
C424 C425 1.391 . S
C425 H413 0.950 . S
C425 C421 1.393 . S
C425 C424 1.391 . S
C426 H416 0.950 . S
C426 C427 1.386 . S
C426 C428 1.391 . S
C427 C426 1.386 . S
C427 C431 1.393 . S
C428 H417 0.950 . S
C428 C426 1.391 . S
C428 C429 1.400 . S
C429 C423 1.491 . S
C429 C428 1.400 . S
C429 C430 1.398 . S
C430 H418 0.950 . S
C430 C429 1.398 . S
C430 C431 1.391 . S
C431 H419 0.950 . S
C431 C427 1.393 . S
C431 C430 1.391 . S
C121 C68 1.763 . S
C127 C13 1.763 . S
C141 C27 1.761 . S
C147 C71 1.760 . S
C161 C29 1.763 . S
C167 C84 1.763 . S
C181 C98 1.755 . S
C187 C42 1.753 . S
C201 C0 2.137 . S
C207 C40 2.146 . S
C221 C14 2.147 . S
C227 C55 2.138 . S
C241 C97 2.144 . S
C247 C57 2.136 . S
C261 C82 2.137 . S
C267 C111 2.147 . S
C281 C70 1.402 . S
C287 C1 1.388 . S
C301 C15 1.375 . S
C307 C85 1.396 . S
C321 C41 1.370 . S
C327 C99 1.397 . S
C341 C69 1.396 . S
C347 C54 1.370 . S
C361 C56 1.376 . S
C367 C26 1.396 . S
C381 C83 1.367 . S
C387 C28 1.398 . S
C401 C96 1.377 . S
C407 C43 1.397 . S
C421 C12 1.397 . S
C427 C110 1.370 . S
