# Generated by pormake.
# Topology unv, (4)-cn, num edge types: 1
# Building blocks:
#     Node 0, Type 0, BuildingBlock: NAHDIM_clean_sbu_0, # of connection points: 4
#     Node 1, Type 0, BuildingBlock: NAHDIM_clean_sbu_0, # of connection points: 4
#     Node 2, Type 0, BuildingBlock: NAHDIM_clean_sbu_0, # of connection points: 4
#     Node 3, Type 0, BuildingBlock: NAHDIM_clean_sbu_0, # of connection points: 4
#     Node 4, Type 0, BuildingBlock: NAHDIM_clean_sbu_0, # of connection points: 4
#     Node 5, Type 0, BuildingBlock: NAHDIM_clean_sbu_0, # of connection points: 4
#     Node 6, Type 0, BuildingBlock: NAHDIM_clean_sbu_0, # of connection points: 4
#     Node 7, Type 0, BuildingBlock: NAHDIM_clean_sbu_0, # of connection points: 4
#     Node 8, Type 0, BuildingBlock: NAHDIM_clean_sbu_0, # of connection points: 4
#     Node 9, Type 0, BuildingBlock: NAHDIM_clean_sbu_0, # of connection points: 4
#     Node 10, Type 0, BuildingBlock: NAHDIM_clean_sbu_0, # of connection points: 4
#     Node 11, Type 0, BuildingBlock: NAHDIM_clean_sbu_0, # of connection points: 4
#     Node 12, Type 0, BuildingBlock: NAHDIM_clean_sbu_0, # of connection points: 4
#     Node 13, Type 0, BuildingBlock: NAHDIM_clean_sbu_0, # of connection points: 4
#     Node 14, Type 0, BuildingBlock: NAHDIM_clean_sbu_0, # of connection points: 4
#     Node 15, Type 0, BuildingBlock: NAHDIM_clean_sbu_0, # of connection points: 4
#     Node 16, Type 0, BuildingBlock: NAHDIM_clean_sbu_0, # of connection points: 4
#     Node 17, Type 0, BuildingBlock: NAHDIM_clean_sbu_0, # of connection points: 4
#     Node 18, Type 0, BuildingBlock: NAHDIM_clean_sbu_0, # of connection points: 4
#     Node 19, Type 0, BuildingBlock: NAHDIM_clean_sbu_0, # of connection points: 4
#     Node 20, Type 0, BuildingBlock: NAHDIM_clean_sbu_0, # of connection points: 4
#     Node 21, Type 0, BuildingBlock: NAHDIM_clean_sbu_0, # of connection points: 4
#     Node 22, Type 0, BuildingBlock: NAHDIM_clean_sbu_0, # of connection points: 4
#     Node 23, Type 0, BuildingBlock: NAHDIM_clean_sbu_0, # of connection points: 4
#     Edge 24, Type (0, 0), None
#     Edge 25, Type (0, 0), None
#     Edge 26, Type (0, 0), None
#     Edge 27, Type (0, 0), None
#     Edge 28, Type (0, 0), None
#     Edge 29, Type (0, 0), None
#     Edge 30, Type (0, 0), None
#     Edge 31, Type (0, 0), None
#     Edge 32, Type (0, 0), None
#     Edge 33, Type (0, 0), None
#     Edge 34, Type (0, 0), None
#     Edge 35, Type (0, 0), None
#     Edge 36, Type (0, 0), None
#     Edge 37, Type (0, 0), None
#     Edge 38, Type (0, 0), None
#     Edge 39, Type (0, 0), None
#     Edge 40, Type (0, 0), None
#     Edge 41, Type (0, 0), None
#     Edge 42, Type (0, 0), None
#     Edge 43, Type (0, 0), None
#     Edge 44, Type (0, 0), None
#     Edge 45, Type (0, 0), None
#     Edge 46, Type (0, 0), None
#     Edge 47, Type (0, 0), None
#     Edge 48, Type (0, 0), None
#     Edge 49, Type (0, 0), None
#     Edge 50, Type (0, 0), None
#     Edge 51, Type (0, 0), None
#     Edge 52, Type (0, 0), None
#     Edge 53, Type (0, 0), None
#     Edge 54, Type (0, 0), None
#     Edge 55, Type (0, 0), None
#     Edge 56, Type (0, 0), None
#     Edge 57, Type (0, 0), None
#     Edge 58, Type (0, 0), None
#     Edge 59, Type (0, 0), None
#     Edge 60, Type (0, 0), None
#     Edge 61, Type (0, 0), None
#     Edge 62, Type (0, 0), None
#     Edge 63, Type (0, 0), None
#     Edge 64, Type (0, 0), None
#     Edge 65, Type (0, 0), None
#     Edge 66, Type (0, 0), None
#     Edge 67, Type (0, 0), None
#     Edge 68, Type (0, 0), None
#     Edge 69, Type (0, 0), None
#     Edge 70, Type (0, 0), None
#     Edge 71, Type (0, 0), None
# Relax obj value: 0.347
# Max RMSD: 0.320
# Mean RMSD: 0.309
data_MOF--net-unv--node1-NAHDIM_clean_sbu_0--edge1-none
_symmetry_space_group_name_H-M    P1
_symmetry_Int_Tables_number       1
_symmetry_cell_setting            triclinic
loop_
_symmetry_equiv_pos_as_xyz
'x, y, z'
_cell_length_a     22.740719
_cell_length_b     22.741399
_cell_length_c     22.741334
_cell_angle_alpha  89.822767
_cell_angle_beta   89.819243
_cell_angle_gamma 89.823816
loop_
_atom_site_label
_atom_site_type_symbol
_atom_site_fract_x
_atom_site_fract_y
_atom_site_fract_z
_atom_type_partial_charge
C0 C -0.00182 0.19792 0.31593 0.0
O1 O 0.0532 0.1887 0.33075 0.0
O2 O 0.00935 0.01794 0.2624 0.0
Zn3 Zn -0.00981 0.07169 0.33124 0.0
O4 O 0.05974 0.073 0.38629 0.0
C5 C 0.89031 -0.00603 0.3534 0.0
O6 O 0.89219 -0.01641 0.29673 0.0
O7 O 0.96377 0.15436 0.31017 0.0
C8 C 0.05348 0.08313 0.44096 0.0
O9 O 0.00141 0.09772 0.46145 0.0
C10 C 0.02295 0.96475 0.27449 0.0
O11 O 0.02874 0.94892 0.32977 0.0
O12 O 0.92483 0.03165 0.37575 0.0
C13 C 0.97463 0.25818 0.31534 0.0
O14 O 0.91813 0.26744 0.30774 0.0
O15 O 0.96334 0.43349 0.27619 0.0
Zn16 Zn 0.97847 0.3827 0.34817 0.0
O17 O 0.90723 0.38072 0.4023 0.0
C18 C 0.06123 0.47352 0.38052 0.0
O19 O 0.05079 0.49314 0.32723 0.0
O20 O 0.00767 0.30057 0.33015 0.0
C21 C 0.90003 0.42952 0.42846 0.0
O22 O 0.93277 0.47449 0.41319 0.0
C23 C 0.91448 0.45248 0.25664 0.0
O24 O 0.86487 0.43424 0.27994 0.0
O25 O 0.04048 0.42411 0.39645 0.0
C26 C -0.01703 0.76244 0.14165 0.0
O27 O 0.03946 0.774 0.14268 0.0
O28 O 0.01027 0.93454 0.17604 0.0
Zn29 Zn 0.97429 0.88631 0.1106 0.0
O30 O 0.02709 0.88243 0.03955 0.0
C31 C 0.88891 -0.0188 0.11199 0.0
O32 O 0.89873 -0.01764 0.16877 0.0
O33 O 0.94644 0.80389 0.13197 0.0
C34 C 0.08182 0.87207 0.03568 0.0
O35 O 0.11215 0.86009 0.08328 0.0
C36 C 0.01816 0.91913 0.22905 0.0
O37 O 0.00969 0.86414 0.24455 0.0
O38 O 0.90916 0.93895 0.08133 0.0
C39 C 0.96307 0.70093 0.14266 0.0
O40 O 0.9072 0.68879 0.13501 0.0
O41 O 0.96001 0.52619 0.19875 0.0
Zn42 Zn 0.97827 0.57467 0.12587 0.0
O43 O 0.9106 0.57454 0.0672 0.0
C44 C 0.06251 0.48155 0.09912 0.0
O45 O 0.04399 0.45951 0.14922 0.0
O46 O 0.00071 0.65934 0.14301 0.0
C47 C 0.91058 0.53059 0.03287 0.0
O48 O 0.94779 0.48744 0.04203 0.0
C49 C 0.91445 0.4951 0.20796 0.0
O50 O 0.86968 0.49815 0.17178 0.0
O51 O 0.0462 0.53307 0.08397 0.0
C52 C 0.31602 -0.00186 0.19787 0.0
O53 O 0.33086 0.05316 0.18865 0.0
O54 O 0.26248 0.00931 0.01789 0.0
Zn55 Zn 0.33131 -0.00985 0.07164 0.0
O56 O 0.38636 0.05971 0.07295 0.0
C57 C 0.35349 0.89028 -0.00608 0.0
O58 O 0.29682 0.89216 -0.01647 0.0
O59 O 0.31025 0.96374 0.15432 0.0
C60 C 0.44103 0.05346 0.0831 0.0
O61 O 0.46152 0.0014 0.09771 0.0
C62 C 0.27457 0.02291 0.9647 0.0
O63 O 0.32985 0.02871 0.94887 0.0
O64 O 0.37583 0.9248 0.0316 0.0
C65 C 0.63893 0.48216 0.1898 0.0
O66 O 0.63713 0.42531 0.18002 0.0
O67 O 0.70385 0.44887 0.03798 0.0
Zn68 Zn 0.62829 0.48157 0.06831 0.0
O69 O 0.56992 0.41575 0.07219 0.0
C70 C 0.62111 0.56443 0.96813 0.0
O71 O 0.67624 0.55178 0.95633 0.0
O72 O 0.63766 0.51764 0.14688 0.0
C73 C 0.51537 0.42612 0.07842 0.0
O74 O 0.49732 0.48049 0.08597 0.0
C75 C 0.70401 0.42396 -0.01191 0.0
O76 O 0.65481 0.41987 0.95832 0.0
O77 O 0.59586 0.54165 0.01256 0.0
C78 C 0.31543 0.97459 0.25814 0.0
O79 O 0.30781 0.91809 0.26739 0.0
O80 O 0.27631 0.9633 0.43345 0.0
Zn81 Zn 0.34829 0.9784 0.38264 0.0
O82 O 0.40237 0.90714 0.38064 0.0
C83 C 0.38072 0.06113 0.47346 0.0
O84 O 0.32743 0.05072 0.4931 0.0
O85 O 0.33027 0.00762 0.30052 0.0
C86 C 0.42854 0.89991 0.42944 0.0
O87 O 0.4133 0.93265 0.47442 0.0
C88 C 0.25672 0.91445 0.45242 0.0
O89 O 0.27997 0.86484 0.43414 0.0
O90 O 0.39662 0.04038 0.42405 0.0
C91 C 0.63522 0.50426 0.24965 0.0
O92 O 0.63708 0.56098 0.26013 0.0
O93 O 0.68447 0.52337 0.40904 0.0
Zn94 Zn 0.61014 0.49792 0.37147 0.0
O95 O 0.55454 0.56638 0.37308 0.0
C96 C 0.59455 0.40315 0.45931 0.0
O97 O 0.6501 0.41005 0.47313 0.0
O98 O 0.6246 0.46861 0.29109 0.0
C99 C 0.50018 0.55418 0.37349 0.0
O100 O 0.4837 0.49978 0.36376 0.0
C101 C 0.68313 0.54118 0.46185 0.0
O102 O 0.63306 0.54225 0.49078 0.0
O103 O 0.57199 0.43353 0.41827 0.0
C104 C 0.19797 0.31598 -0.0019 0.0
O105 O 0.18874 0.33081 0.05312 0.0
O106 O 0.01798 0.26246 0.00927 0.0
Zn107 Zn 0.07174 0.33128 -0.0099 0.0
O108 O 0.07305 0.38635 0.05965 0.0
C109 C -0.00598 0.35345 0.89022 0.0
O110 O -0.01637 0.29679 0.89211 0.0
O111 O 0.15442 0.31021 0.96369 0.0
C112 C 0.08318 0.44101 0.05338 0.0
O113 O 0.09777 0.46151 0.00131 0.0
C114 C 0.96479 0.27455 0.02286 0.0
O115 O 0.94896 0.32982 0.02866 0.0
O116 O 0.03171 0.37579 0.92474 0.0
C117 C 0.19 0.63873 0.48193 0.0
O118 O 0.18022 0.63678 0.42508 0.0
O119 O 0.03815 0.70383 0.44872 0.0
Zn120 Zn 0.06849 0.62828 0.4814 0.0
O121 O 0.0723 0.56989 0.4156 0.0
C122 C 0.96835 0.62111 0.56434 0.0
O123 O 0.95654 0.67623 0.55167 0.0
O124 O 0.14708 0.63764 0.51742 0.0
C125 C 0.07856 0.51534 0.42597 0.0
O126 O 0.08617 0.49728 0.48033 0.0
C127 C -0.01175 0.70398 0.42384 0.0
O128 O 0.95847 0.65477 0.41976 0.0
O129 O 0.01277 0.59586 0.54154 0.0
C130 C 0.75526 0.83085 0.47063 0.0
O131 O 0.75559 0.82496 0.41321 0.0
O132 O 0.90487 0.76488 0.42748 0.0
Zn133 Zn 0.87621 0.8451 0.44876 0.0
O134 O 0.86444 0.89718 0.37864 0.0
C135 C -0.01797 0.87168 0.52665 0.0
O136 O -0.01898 0.82039 0.55326 0.0
O137 O 0.8031 0.84045 0.49749 0.0
C138 C 0.86317 0.95119 0.39293 0.0
O139 O 0.85694 0.96505 0.44864 0.0
C140 C 0.95891 0.76015 0.41411 0.0
O141 O -0.00931 0.80775 0.40699 0.0
O142 O 0.94288 0.88559 0.48942 0.0
C143 C 0.24985 0.63501 0.50403 0.0
O144 O 0.26035 0.63708 0.56074 0.0
O145 O 0.40917 0.68417 0.52318 0.0
Zn146 Zn 0.37165 0.6098 0.49775 0.0
O147 O 0.37327 0.55424 0.56624 0.0
C148 C 0.45954 0.59425 0.40301 0.0
O149 O 0.47333 0.64981 0.4099 0.0
O150 O 0.29127 0.62421 0.46841 0.0
C151 C 0.37375 0.49988 0.55406 0.0
O152 O 0.36407 0.48337 0.49966 0.0
C153 C 0.46197 0.68287 0.54101 0.0
O154 O 0.49094 0.63282 0.54211 0.0
O155 O 0.4185 0.57167 0.43339 0.0
C156 C 0.50342 0.69989 0.82747 0.0
O157 O 0.56109 0.70002 0.82996 0.0
O158 O 0.53672 0.54701 0.74152 0.0
Zn159 Zn 0.52199 0.57607 0.82285 0.0
O160 O 0.59611 0.58337 0.86943 0.0
C161 C 0.43657 0.47807 0.85927 0.0
O162 O 0.40134 0.48586 0.81428 0.0
O163 O 0.47606 0.65148 0.82346 0.0
C164 C 0.5836 0.59098 0.92334 0.0
O165 O 0.52929 0.6047 0.93777 0.0
C166 C 0.54933 0.49273 0.73819 0.0
O167 O 0.55787 0.46228 0.78656 0.0
O168 O 0.48083 0.51107 0.86679 0.0
C169 C 0.47076 0.7552 0.83083 0.0
O170 O 0.41334 0.75553 0.82492 0.0
O171 O 0.42765 0.90481 0.76484 0.0
Zn172 Zn 0.4489 0.87615 0.84508 0.0
O173 O 0.37877 0.8644 0.89714 0.0
C174 C 0.52679 -0.01802 0.87167 0.0
O175 O 0.55338 -0.019 0.82037 0.0
O176 O 0.49763 0.80304 0.84044 0.0
C177 C 0.39304 0.86313 0.95115 0.0
O178 O 0.44874 0.85691 0.96503 0.0
C179 C 0.41431 0.95884 0.76009 0.0
O180 O 0.40718 -0.00937 0.80769 0.0
O181 O 0.48956 0.94281 0.88558 0.0
C182 C 0.50441 0.24969 0.63496 0.0
O183 O 0.56113 0.26016 0.63693 0.0
O184 O 0.52348 0.40908 0.68416 0.0
Zn185 Zn 0.49811 0.37151 0.6098 0.0
O186 O 0.56662 0.37314 0.55426 0.0
C187 C 0.40329 0.45929 0.59416 0.0
O188 O 0.41011 0.4731 0.64972 0.0
O189 O 0.46879 0.29113 0.62424 0.0
C190 C 0.55446 0.37356 0.4999 0.0
O191 O 0.50009 0.36382 0.48335 0.0
C192 C 0.54124 0.46191 0.68286 0.0
O193 O 0.54232 0.49088 0.63281 0.0
O194 O 0.43375 0.41829 0.57161 0.0
C195 C 0.48228 0.18985 0.63869 0.0
O196 O 0.42542 0.1801 0.63682 0.0
O197 O 0.44896 0.03804 0.70375 0.0
Zn198 Zn 0.48165 0.06835 0.62819 0.0
O199 O 0.41583 0.07221 0.56982 0.0
C200 C 0.5645 0.96815 0.621 0.0
O201 O 0.55183 0.95634 0.67613 0.0
O202 O 0.51774 0.14691 0.63753 0.0
C203 C 0.42619 0.07844 0.51527 0.0
O204 O 0.48056 0.08601 0.49719 0.0
C205 C 0.42403 -0.01184 0.70392 0.0
O206 O 0.41992 0.95838 0.65472 0.0
O207 O 0.54173 0.01258 0.59576 0.0
C208 C 0.82767 0.50342 0.69987 0.0
O209 O 0.83018 0.56109 0.7 0.0
O210 O 0.74175 0.53671 0.54697 0.0
Zn211 Zn 0.82306 0.522 0.57604 0.0
O212 O 0.86966 0.59611 0.58333 0.0
C213 C 0.85944 0.43655 0.47806 0.0
O214 O 0.81441 0.40137 0.48585 0.0
O215 O 0.82366 0.47607 0.65146 0.0
C216 C 0.92357 0.58361 0.59092 0.0
O217 O 0.93801 0.5293 0.60464 0.0
C218 C 0.73844 0.54934 0.49269 0.0
O219 O 0.78682 0.5579 0.46225 0.0
O220 O 0.867 0.48081 0.51105 0.0
C221 C 0.14273 0.96303 0.70087 0.0
O222 O 0.13508 0.90717 0.68873 0.0
O223 O 0.19884 0.95999 0.52614 0.0
Zn224 Zn 0.12594 0.97824 0.57461 0.0
O225 O 0.06727 0.91057 0.57447 0.0
C226 C 0.09923 0.06249 0.4815 0.0
O227 O 0.14932 0.04397 0.45943 0.0
O228 O 0.14308 0.00067 0.65929 0.0
C229 C 0.03291 0.91057 0.53054 0.0
O230 O 0.04204 0.94781 0.48741 0.0
C231 C 0.20803 0.91443 0.49503 0.0
O232 O 0.17182 0.86968 0.49807 0.0
O233 O 0.08407 0.04618 0.53301 0.0
C234 C 0.831 0.47076 0.75518 0.0
O235 O 0.82507 0.41333 0.7555 0.0
O236 O 0.76494 0.42759 0.90475 0.0
Zn237 Zn 0.84519 0.44886 0.87612 0.0
O238 O 0.89725 0.37872 0.86435 0.0
C239 C 0.87173 0.52672 -0.01805 0.0
O240 O 0.82044 0.55333 -0.01907 0.0
O241 O 0.84059 0.49761 0.80303 0.0
C242 C 0.95126 0.393 0.86308 0.0
O243 O 0.96514 0.44871 0.85687 0.0
C244 C 0.76019 0.41422 0.95877 0.0
O245 O 0.80777 0.40708 -0.00943 0.0
O246 O 0.88567 0.48949 0.94281 0.0
C247 C 0.14172 -0.01707 0.76238 0.0
O248 O 0.14275 0.03942 0.77395 0.0
O249 O 0.17612 0.01021 0.93449 0.0
Zn250 Zn 0.11068 0.97424 0.88626 0.0
O251 O 0.03964 0.02705 0.88239 0.0
C252 C 0.11208 0.88884 -0.01887 0.0
O253 O 0.16886 0.89867 -0.01768 0.0
O254 O 0.13205 0.9464 0.80383 0.0
C255 C 0.03578 0.08178 0.87205 0.0
O256 O 0.0834 0.1121 0.86008 0.0
C257 C 0.22914 0.01812 0.91908 0.0
O258 O 0.24463 0.00968 0.86409 0.0
O259 O 0.08141 0.9091 0.93889 0.0
C260 C 0.69995 0.82748 0.50329 0.0
O261 O 0.70007 0.82995 0.56096 0.0
O262 O 0.54706 0.74155 0.53656 0.0
Zn263 Zn 0.57612 0.82287 0.52186 0.0
O264 O 0.58342 0.86945 0.59599 0.0
C265 C 0.47812 0.8593 0.43645 0.0
O266 O 0.4859 0.8143 0.40122 0.0
O267 O 0.65154 0.8235 0.47593 0.0
C268 C 0.59104 0.92336 0.58349 0.0
O269 O 0.60477 0.93779 0.52918 0.0
C270 C 0.49278 0.7382 0.54916 0.0
O271 O 0.4623 0.78656 0.5577 0.0
O272 O 0.51112 0.86682 0.4807 0.0
C273 C 0.70097 0.1427 0.96301 0.0
O274 O 0.68883 0.13505 0.90715 0.0
O275 O 0.52624 0.19881 0.95996 0.0
Zn276 Zn 0.5747 0.12592 0.97822 0.0
O277 O 0.57457 0.06724 0.91055 0.0
C278 C 0.48157 0.09921 0.06246 0.0
O279 O 0.45951 0.14929 0.04393 0.0
O280 O 0.65938 0.14306 0.00065 0.0
C281 C 0.53067 0.03285 0.91057 0.0
O282 O 0.48755 0.04194 0.94783 0.0
C283 C 0.49512 0.20799 0.91441 0.0
O284 O 0.49814 0.17176 0.86967 0.0
O285 O 0.53309 0.08405 0.04616 0.0
C286 C 0.25824 0.31539 0.97456 0.0
O287 O 0.2675 0.30778 0.91806 0.0
O288 O 0.43356 0.27627 0.96328 0.0
Zn289 Zn 0.38275 0.34825 0.97838 0.0
O290 O 0.38075 0.40233 0.90712 0.0
C291 C 0.47354 0.38064 0.06114 0.0
O292 O 0.49319 0.32735 0.05074 0.0
O293 O 0.30062 0.33022 0.00759 0.0
C294 C 0.42955 0.4285 0.89989 0.0
O295 O 0.47453 0.41326 0.93264 0.0
C296 C 0.45251 0.25667 0.91443 0.0
O297 O 0.43421 0.27991 0.86482 0.0
O298 O 0.42415 0.39657 0.04036 0.0
C299 C 0.76248 0.14169 -0.0171 0.0
O300 O 0.77404 0.14273 0.03939 0.0
O301 O 0.93459 0.17609 0.01019 0.0
Zn302 Zn 0.88635 0.11065 0.97421 0.0
O303 O 0.88248 0.03961 0.02702 0.0
C304 C -0.01876 0.11204 0.88882 0.0
O305 O -0.01755 0.16882 0.89866 0.0
O306 O 0.80393 0.13201 0.94637 0.0
C307 C 0.87211 0.03574 0.08174 0.0
O308 O 0.86013 0.08333 0.11209 0.0
C309 C 0.91917 0.22911 0.01807 0.0
O310 O 0.86418 0.2446 0.00962 0.0
O311 O 0.93899 0.08138 0.90907 0.0
loop_
_geom_bond_atom_site_label_1
_geom_bond_atom_site_label_2
_geom_bond_distance
_geom_bond_site_symmetry_2
_ccdc_geom_bond_type
C0 O1 1.160 1_655 S
C0 O7 1.185 . S
O1 C0 1.160 1_455 S
O2 Zn3 1.899 . S
O2 C10 1.284 1_655 S
Zn3 O2 1.899 . S
Zn3 O4 2.032 1_655 S
Zn3 O7 2.086 . S
Zn3 O12 1.977 . S
O4 Zn3 2.032 1_455 S
O4 C8 1.278 . S
C5 O6 1.203 . S
C5 O12 1.267 1_565 S
O6 C5 1.203 . S
O7 C0 1.185 . S
O7 Zn3 2.086 . S
C8 O4 1.278 . S
C8 O9 1.211 . S
O9 C8 1.211 . S
C10 O2 1.284 1_455 S
C10 O11 1.273 . S
O11 C10 1.273 . S
O12 Zn3 1.977 . S
O12 C5 1.267 1_545 S
C13 O14 1.160 1_455 S
C13 O20 1.185 . S
O14 C13 1.160 1_655 S
O15 Zn16 1.899 . S
O15 C23 1.284 1_455 S
Zn16 O15 1.899 . S
Zn16 O17 2.032 1_455 S
Zn16 O20 2.086 . S
Zn16 O25 1.977 . S
O17 Zn16 2.032 1_655 S
O17 C21 1.278 . S
C18 O19 1.203 . S
C18 O25 1.267 . S
O19 C18 1.203 . S
O20 C13 1.185 . S
O20 Zn16 2.086 . S
C21 O17 1.278 . S
C21 O22 1.211 . S
O22 C21 1.211 . S
C23 O15 1.284 1_655 S
C23 O24 1.273 . S
O24 C23 1.273 . S
O25 Zn16 1.977 . S
O25 C18 1.267 . S
C26 O27 1.160 1_655 S
C26 O33 1.185 . S
O27 C26 1.160 1_455 S
O28 Zn29 1.899 . S
O28 C36 1.284 1_655 S
Zn29 O28 1.899 . S
Zn29 O30 2.032 1_655 S
Zn29 O33 2.086 . S
Zn29 O38 1.977 . S
O30 Zn29 2.032 1_455 S
O30 C34 1.278 . S
C31 O32 1.203 . S
C31 O38 1.267 1_545 S
O32 C31 1.203 . S
O33 C26 1.185 . S
O33 Zn29 2.086 . S
C34 O30 1.278 . S
C34 O35 1.211 . S
O35 C34 1.211 . S
C36 O28 1.284 1_455 S
C36 O37 1.273 . S
O37 C36 1.273 . S
O38 Zn29 1.977 . S
O38 C31 1.267 1_565 S
C39 O40 1.160 1_455 S
C39 O46 1.185 . S
O40 C39 1.160 1_655 S
O41 Zn42 1.899 . S
O41 C49 1.284 1_455 S
Zn42 O41 1.899 . S
Zn42 O43 2.032 1_455 S
Zn42 O46 2.086 . S
Zn42 O51 1.977 . S
O43 Zn42 2.032 1_655 S
O43 C47 1.278 . S
C44 O45 1.203 . S
C44 O51 1.267 . S
O45 C44 1.203 . S
O46 C39 1.185 . S
O46 Zn42 2.086 . S
C47 O43 1.278 . S
C47 O48 1.211 . S
O48 C47 1.211 . S
C49 O41 1.284 1_655 S
C49 O50 1.273 . S
O50 C49 1.273 . S
O51 Zn42 1.977 . S
O51 C44 1.267 . S
C52 O53 1.160 1_565 S
C52 O59 1.185 . S
O53 C52 1.160 1_545 S
O54 Zn55 1.899 . S
O54 C62 1.284 1_565 S
Zn55 O54 1.899 . S
Zn55 O56 2.032 1_565 S
Zn55 O59 2.086 . S
Zn55 O64 1.977 . S
O56 Zn55 2.032 1_545 S
O56 C60 1.278 . S
C57 O58 1.203 . S
C57 O64 1.267 1_556 S
O58 C57 1.203 . S
O59 C52 1.185 . S
O59 Zn55 2.086 . S
C60 O56 1.278 . S
C60 O61 1.211 . S
O61 C60 1.211 . S
C62 O54 1.284 1_545 S
C62 O63 1.273 . S
O63 C62 1.273 . S
O64 Zn55 1.977 . S
O64 C57 1.267 1_554 S
C65 O66 1.160 . S
C65 O72 1.185 . S
O66 C65 1.160 . S
O67 Zn68 1.899 . S
O67 C75 1.284 . S
Zn68 O67 1.899 . S
Zn68 O69 2.032 . S
Zn68 O72 2.086 . S
Zn68 O77 1.977 . S
O69 Zn68 2.032 . S
O69 C73 1.278 . S
C70 O71 1.203 . S
C70 O77 1.267 1_556 S
O71 C70 1.203 . S
O72 C65 1.185 . S
O72 Zn68 2.086 . S
C73 O69 1.278 . S
C73 O74 1.211 . S
O74 C73 1.211 . S
C75 O67 1.284 . S
C75 O76 1.273 . S
O76 C75 1.273 . S
O77 Zn68 1.977 . S
O77 C70 1.267 1_554 S
C78 O79 1.160 1_545 S
C78 O85 1.185 . S
O79 C78 1.160 1_565 S
O80 Zn81 1.899 . S
O80 C88 1.284 1_545 S
Zn81 O80 1.899 . S
Zn81 O82 2.032 1_545 S
Zn81 O85 2.086 . S
Zn81 O90 1.977 . S
O82 Zn81 2.032 1_565 S
O82 C86 1.278 . S
C83 O84 1.203 . S
C83 O90 1.267 . S
O84 C83 1.203 . S
O85 C78 1.185 . S
O85 Zn81 2.086 . S
C86 O82 1.278 . S
C86 O87 1.211 . S
O87 C86 1.211 . S
C88 O80 1.284 1_565 S
C88 O89 1.273 . S
O89 C88 1.273 . S
O90 Zn81 1.977 . S
O90 C83 1.267 . S
C91 O92 1.160 . S
C91 O98 1.185 . S
O92 C91 1.160 . S
O93 Zn94 1.899 . S
O93 C101 1.284 . S
Zn94 O93 1.899 . S
Zn94 O95 2.032 . S
Zn94 O98 2.086 . S
Zn94 O103 1.977 . S
O95 Zn94 2.032 . S
O95 C99 1.278 . S
C96 O97 1.203 . S
C96 O103 1.267 . S
O97 C96 1.203 . S
O98 C91 1.185 . S
O98 Zn94 2.086 . S
C99 O95 1.278 . S
C99 O100 1.211 . S
O100 C99 1.211 . S
C101 O93 1.284 . S
C101 O102 1.273 . S
O102 C101 1.273 . S
O103 Zn94 1.977 . S
O103 C96 1.267 . S
C104 O105 1.160 1_556 S
C104 O111 1.185 . S
O105 C104 1.160 1_554 S
O106 Zn107 1.899 . S
O106 C114 1.284 1_556 S
Zn107 O106 1.899 . S
Zn107 O108 2.032 1_556 S
Zn107 O111 2.086 . S
Zn107 O116 1.977 . S
O108 Zn107 2.032 1_554 S
O108 C112 1.278 . S
C109 O110 1.203 . S
C109 O116 1.267 1_655 S
O110 C109 1.203 . S
O111 C104 1.185 . S
O111 Zn107 2.086 . S
C112 O108 1.278 . S
C112 O113 1.211 . S
O113 C112 1.211 . S
C114 O106 1.284 1_554 S
C114 O115 1.273 . S
O115 C114 1.273 . S
O116 Zn107 1.977 . S
O116 C109 1.267 1_455 S
C117 O118 1.160 . S
C117 O124 1.185 . S
O118 C117 1.160 . S
O119 Zn120 1.899 . S
O119 C127 1.284 . S
Zn120 O119 1.899 . S
Zn120 O121 2.032 . S
Zn120 O124 2.086 . S
Zn120 O129 1.977 . S
O121 Zn120 2.032 . S
O121 C125 1.278 . S
C122 O123 1.203 . S
C122 O129 1.267 1_655 S
O123 C122 1.203 . S
O124 C117 1.185 . S
O124 Zn120 2.086 . S
C125 O121 1.278 . S
C125 O126 1.211 . S
O126 C125 1.211 . S
C127 O119 1.284 . S
C127 O128 1.273 . S
O128 C127 1.273 . S
O129 Zn120 1.977 . S
O129 C122 1.267 1_455 S
C130 O131 1.160 . S
C130 O137 1.185 . S
O131 C130 1.160 . S
O132 Zn133 1.899 . S
O132 C140 1.284 . S
Zn133 O132 1.899 . S
Zn133 O134 2.032 . S
Zn133 O137 2.086 . S
Zn133 O142 1.977 . S
O134 Zn133 2.032 . S
O134 C138 1.278 . S
C135 O136 1.203 . S
C135 O142 1.267 1_455 S
O136 C135 1.203 . S
O137 C130 1.185 . S
O137 Zn133 2.086 . S
C138 O134 1.278 . S
C138 O139 1.211 . S
O139 C138 1.211 . S
C140 O132 1.284 . S
C140 O141 1.273 . S
O141 C140 1.273 . S
O142 Zn133 1.977 . S
O142 C135 1.267 1_655 S
C143 O144 1.160 . S
C143 O150 1.185 . S
O144 C143 1.160 . S
O145 Zn146 1.899 . S
O145 C153 1.284 . S
Zn146 O145 1.899 . S
Zn146 O147 2.032 . S
Zn146 O150 2.086 . S
Zn146 O155 1.977 . S
O147 Zn146 2.032 . S
O147 C151 1.278 . S
C148 O149 1.203 . S
C148 O155 1.267 . S
O149 C148 1.203 . S
O150 C143 1.185 . S
O150 Zn146 2.086 . S
C151 O147 1.278 . S
C151 O152 1.211 . S
O152 C151 1.211 . S
C153 O145 1.284 . S
C153 O154 1.273 . S
O154 C153 1.273 . S
O155 Zn146 1.977 . S
O155 C148 1.267 . S
C156 O157 1.160 . S
C156 O163 1.185 . S
O157 C156 1.160 . S
O158 Zn159 1.899 . S
O158 C166 1.284 . S
Zn159 O158 1.899 . S
Zn159 O160 2.032 . S
Zn159 O163 2.086 . S
Zn159 O168 1.977 . S
O160 Zn159 2.032 . S
O160 C164 1.278 . S
C161 O162 1.203 . S
C161 O168 1.267 . S
O162 C161 1.203 . S
O163 C156 1.185 . S
O163 Zn159 2.086 . S
C164 O160 1.278 . S
C164 O165 1.211 . S
O165 C164 1.211 . S
C166 O158 1.284 . S
C166 O167 1.273 . S
O167 C166 1.273 . S
O168 Zn159 1.977 . S
O168 C161 1.267 . S
C169 O170 1.160 . S
C169 O176 1.185 . S
O170 C169 1.160 . S
O171 Zn172 1.899 . S
O171 C179 1.284 . S
Zn172 O171 1.899 . S
Zn172 O173 2.032 . S
Zn172 O176 2.086 . S
Zn172 O181 1.977 . S
O173 Zn172 2.032 . S
O173 C177 1.278 . S
C174 O175 1.203 . S
C174 O181 1.267 1_545 S
O175 C174 1.203 . S
O176 C169 1.185 . S
O176 Zn172 2.086 . S
C177 O173 1.278 . S
C177 O178 1.211 . S
O178 C177 1.211 . S
C179 O171 1.284 . S
C179 O180 1.273 . S
O180 C179 1.273 . S
O181 Zn172 1.977 . S
O181 C174 1.267 1_565 S
C182 O183 1.160 . S
C182 O189 1.185 . S
O183 C182 1.160 . S
O184 Zn185 1.899 . S
O184 C192 1.284 . S
Zn185 O184 1.899 . S
Zn185 O186 2.032 . S
Zn185 O189 2.086 . S
Zn185 O194 1.977 . S
O186 Zn185 2.032 . S
O186 C190 1.278 . S
C187 O188 1.203 . S
C187 O194 1.267 . S
O188 C187 1.203 . S
O189 C182 1.185 . S
O189 Zn185 2.086 . S
C190 O186 1.278 . S
C190 O191 1.211 . S
O191 C190 1.211 . S
C192 O184 1.284 . S
C192 O193 1.273 . S
O193 C192 1.273 . S
O194 Zn185 1.977 . S
O194 C187 1.267 . S
C195 O196 1.160 . S
C195 O202 1.185 . S
O196 C195 1.160 . S
O197 Zn198 1.899 . S
O197 C205 1.284 . S
Zn198 O197 1.899 . S
Zn198 O199 2.032 . S
Zn198 O202 2.086 . S
Zn198 O207 1.977 . S
O199 Zn198 2.032 . S
O199 C203 1.278 . S
C200 O201 1.203 . S
C200 O207 1.267 1_565 S
O201 C200 1.203 . S
O202 C195 1.185 . S
O202 Zn198 2.086 . S
C203 O199 1.278 . S
C203 O204 1.211 . S
O204 C203 1.211 . S
C205 O197 1.284 . S
C205 O206 1.273 . S
O206 C205 1.273 . S
O207 Zn198 1.977 . S
O207 C200 1.267 1_545 S
C208 O209 1.160 . S
C208 O215 1.185 . S
O209 C208 1.160 . S
O210 Zn211 1.899 . S
O210 C218 1.284 . S
Zn211 O210 1.899 . S
Zn211 O212 2.032 . S
Zn211 O215 2.086 . S
Zn211 O220 1.977 . S
O212 Zn211 2.032 . S
O212 C216 1.278 . S
C213 O214 1.203 . S
C213 O220 1.267 . S
O214 C213 1.203 . S
O215 C208 1.185 . S
O215 Zn211 2.086 . S
C216 O212 1.278 . S
C216 O217 1.211 . S
O217 C216 1.211 . S
C218 O210 1.284 . S
C218 O219 1.273 . S
O219 C218 1.273 . S
O220 Zn211 1.977 . S
O220 C213 1.267 . S
C221 O222 1.160 1_545 S
C221 O228 1.185 . S
O222 C221 1.160 1_565 S
O223 Zn224 1.899 . S
O223 C231 1.284 1_545 S
Zn224 O223 1.899 . S
Zn224 O225 2.032 1_545 S
Zn224 O228 2.086 . S
Zn224 O233 1.977 . S
O225 Zn224 2.032 1_565 S
O225 C229 1.278 . S
C226 O227 1.203 . S
C226 O233 1.267 . S
O227 C226 1.203 . S
O228 C221 1.185 . S
O228 Zn224 2.086 . S
C229 O225 1.278 . S
C229 O230 1.211 . S
O230 C229 1.211 . S
C231 O223 1.284 1_565 S
C231 O232 1.273 . S
O232 C231 1.273 . S
O233 Zn224 1.977 . S
O233 C226 1.267 . S
C234 O235 1.160 . S
C234 O241 1.185 . S
O235 C234 1.160 . S
O236 Zn237 1.899 . S
O236 C244 1.284 . S
Zn237 O236 1.899 . S
Zn237 O238 2.032 . S
Zn237 O241 2.086 . S
Zn237 O246 1.977 . S
O238 Zn237 2.032 . S
O238 C242 1.278 . S
C239 O240 1.203 . S
C239 O246 1.267 1_554 S
O240 C239 1.203 . S
O241 C234 1.185 . S
O241 Zn237 2.086 . S
C242 O238 1.278 . S
C242 O243 1.211 . S
O243 C242 1.211 . S
C244 O236 1.284 . S
C244 O245 1.273 . S
O245 C244 1.273 . S
O246 Zn237 1.977 . S
O246 C239 1.267 1_556 S
C247 O248 1.160 1_565 S
C247 O254 1.185 . S
O248 C247 1.160 1_545 S
O249 Zn250 1.899 . S
O249 C257 1.284 1_565 S
Zn250 O249 1.899 . S
Zn250 O251 2.032 1_565 S
Zn250 O254 2.086 . S
Zn250 O259 1.977 . S
O251 Zn250 2.032 1_545 S
O251 C255 1.278 . S
C252 O253 1.203 . S
C252 O259 1.267 1_554 S
O253 C252 1.203 . S
O254 C247 1.185 . S
O254 Zn250 2.086 . S
C255 O251 1.278 . S
C255 O256 1.211 . S
O256 C255 1.211 . S
C257 O249 1.284 1_545 S
C257 O258 1.273 . S
O258 C257 1.273 . S
O259 Zn250 1.977 . S
O259 C252 1.267 1_556 S
C260 O261 1.160 . S
C260 O267 1.185 . S
O261 C260 1.160 . S
O262 Zn263 1.899 . S
O262 C270 1.284 . S
Zn263 O262 1.899 . S
Zn263 O264 2.032 . S
Zn263 O267 2.086 . S
Zn263 O272 1.977 . S
O264 Zn263 2.032 . S
O264 C268 1.278 . S
C265 O266 1.203 . S
C265 O272 1.267 . S
O266 C265 1.203 . S
O267 C260 1.185 . S
O267 Zn263 2.086 . S
C268 O264 1.278 . S
C268 O269 1.211 . S
O269 C268 1.211 . S
C270 O262 1.284 . S
C270 O271 1.273 . S
O271 C270 1.273 . S
O272 Zn263 1.977 . S
O272 C265 1.267 . S
C273 O274 1.160 1_554 S
C273 O280 1.185 . S
O274 C273 1.160 1_556 S
O275 Zn276 1.899 . S
O275 C283 1.284 1_554 S
Zn276 O275 1.899 . S
Zn276 O277 2.032 1_554 S
Zn276 O280 2.086 . S
Zn276 O285 1.977 . S
O277 Zn276 2.032 1_556 S
O277 C281 1.278 . S
C278 O279 1.203 . S
C278 O285 1.267 . S
O279 C278 1.203 . S
O280 C273 1.185 . S
O280 Zn276 2.086 . S
C281 O277 1.278 . S
C281 O282 1.211 . S
O282 C281 1.211 . S
C283 O275 1.284 1_556 S
C283 O284 1.273 . S
O284 C283 1.273 . S
O285 Zn276 1.977 . S
O285 C278 1.267 . S
C286 O287 1.160 1_554 S
C286 O293 1.185 . S
O287 C286 1.160 1_556 S
O288 Zn289 1.899 . S
O288 C296 1.284 1_554 S
Zn289 O288 1.899 . S
Zn289 O290 2.032 1_554 S
Zn289 O293 2.086 . S
Zn289 O298 1.977 . S
O290 Zn289 2.032 1_556 S
O290 C294 1.278 . S
C291 O292 1.203 . S
C291 O298 1.267 . S
O292 C291 1.203 . S
O293 C286 1.185 . S
O293 Zn289 2.086 . S
C294 O290 1.278 . S
C294 O295 1.211 . S
O295 C294 1.211 . S
C296 O288 1.284 1_556 S
C296 O297 1.273 . S
O297 C296 1.273 . S
O298 Zn289 1.977 . S
O298 C291 1.267 . S
C299 O300 1.160 1_556 S
C299 O306 1.185 . S
O300 C299 1.160 1_554 S
O301 Zn302 1.899 . S
O301 C309 1.284 1_556 S
Zn302 O301 1.899 . S
Zn302 O303 2.032 1_556 S
Zn302 O306 2.086 . S
Zn302 O311 1.977 . S
O303 Zn302 2.032 1_554 S
O303 C307 1.278 . S
C304 O305 1.203 . S
C304 O311 1.267 1_455 S
O305 C304 1.203 . S
O306 C299 1.185 . S
O306 Zn302 2.086 . S
C307 O303 1.278 . S
C307 O308 1.211 . S
O308 C307 1.211 . S
C309 O301 1.284 1_554 S
C309 O310 1.273 . S
O310 C309 1.273 . S
O311 Zn302 1.977 . S
O311 C304 1.267 1_655 S
C226 C8 1.293 . S
C21 C213 1.517 . S
C34 C252 1.328 . S
C47 C239 1.545 . S
C60 C278 1.293 . S
C73 C291 1.323 . S
C265 C86 1.516 . S
C148 C99 1.547 . S
C112 C44 1.293 . S
C18 C125 1.323 . S
C138 C5 1.364 . S
C151 C187 1.547 . S
C70 C164 1.581 . S
C57 C177 1.364 . S
C190 C96 1.547 . S
C203 C83 1.323 . S
C122 C216 1.581 . S
C135 C229 1.545 . S
C109 C242 1.364 . S
C255 C304 1.328 . S
C200 C268 1.581 . S
C281 C174 1.545 . S
C161 C294 1.516 . S
C307 C31 1.328 . S
C0 C13 1.735 1_655 S
C39 C26 1.707 1_455 S
C52 C78 1.735 1_565 S
C65 C91 2.022 . S
C286 C104 1.735 1_554 S
C117 C143 2.022 . S
C260 C130 1.997 . S
C169 C156 1.997 . S
C182 C195 2.022 . S
C234 C208 1.997 . S
C221 C247 1.707 1_545 S
C299 C273 1.707 1_556 S
C36 C10 1.468 1_565 S
C23 C49 1.554 . S
C257 C62 1.468 1_556 S
C75 C244 1.477 1_554 S
C88 C231 1.554 . S
C218 C101 1.563 . S
C114 C309 1.468 1_455 S
C127 C140 1.477 1_455 S
C270 C153 1.563 . S
C166 C192 1.563 . S
C179 C205 1.477 1_565 S
C296 C283 1.554 . S
