# Generated by pormake.
# Topology uog, (4)-cn, num edge types: 1
# Building blocks:
#     Node 0, Type 0, BuildingBlock: GALJAG_clean_sbu_0, # of connection points: 4
#     Node 1, Type 0, BuildingBlock: GALJAG_clean_sbu_0, # of connection points: 4
#     Node 2, Type 0, BuildingBlock: GALJAG_clean_sbu_0, # of connection points: 4
#     Node 3, Type 0, BuildingBlock: GALJAG_clean_sbu_0, # of connection points: 4
#     Node 4, Type 0, BuildingBlock: GALJAG_clean_sbu_0, # of connection points: 4
#     Node 5, Type 0, BuildingBlock: GALJAG_clean_sbu_0, # of connection points: 4
#     Edge 6, Type (0, 0), BuildingBlock: EZIPEK_clean_linker_0, # of connection points: 2
#     Edge 7, Type (0, 0), BuildingBlock: EZIPEK_clean_linker_0, # of connection points: 2
#     Edge 8, Type (0, 0), BuildingBlock: EZIPEK_clean_linker_0, # of connection points: 2
#     Edge 9, Type (0, 0), BuildingBlock: EZIPEK_clean_linker_0, # of connection points: 2
#     Edge 10, Type (0, 0), BuildingBlock: EZIPEK_clean_linker_0, # of connection points: 2
#     Edge 11, Type (0, 0), BuildingBlock: EZIPEK_clean_linker_0, # of connection points: 2
#     Edge 12, Type (0, 0), BuildingBlock: EZIPEK_clean_linker_0, # of connection points: 2
#     Edge 13, Type (0, 0), BuildingBlock: EZIPEK_clean_linker_0, # of connection points: 2
#     Edge 14, Type (0, 0), BuildingBlock: EZIPEK_clean_linker_0, # of connection points: 2
#     Edge 15, Type (0, 0), BuildingBlock: EZIPEK_clean_linker_0, # of connection points: 2
#     Edge 16, Type (0, 0), BuildingBlock: EZIPEK_clean_linker_0, # of connection points: 2
#     Edge 17, Type (0, 0), BuildingBlock: EZIPEK_clean_linker_0, # of connection points: 2
# Relax obj value: 0.035
# Max RMSD: 0.144
# Mean RMSD: 0.144
data_MOF--net-uog--node1-GALJAG_clean_sbu_0--edge1-EZIPEK_clean_linker_0
_symmetry_space_group_name_H-M    P1
_symmetry_Int_Tables_number       1
_symmetry_cell_setting            triclinic
loop_
_symmetry_equiv_pos_as_xyz
'x, y, z'
_cell_length_a     21.423076
_cell_length_b     21.374554
_cell_length_c     31.878645
_cell_angle_alpha  89.969422
_cell_angle_beta   90.119687
_cell_angle_gamma 120.5339
loop_
_atom_site_label
_atom_site_type_symbol
_atom_site_fract_x
_atom_site_fract_y
_atom_site_fract_z
_atom_type_partial_charge
In0 In 0.57687 0.30024 0.14992 0.0
O1 O 0.48662 0.32691 0.1559 0.0
O2 O 0.59656 0.41441 0.15048 0.0
C3 C 0.52339 0.1565 0.1542 0.0
C4 C 0.64171 0.33424 0.22466 0.0
C5 C 0.61117 0.31822 0.06836 0.0
O6 O 0.48235 0.18312 0.15592 0.0
O7 O 0.59011 0.20204 0.15043 0.0
O8 O 0.65914 0.33564 0.09653 0.0
O9 O 0.54727 0.29265 0.08162 0.0
C10 C 0.5305 0.39488 0.15441 0.0
O11 O 0.67857 0.35277 0.19112 0.0
O12 O 0.57378 0.29932 0.22016 0.0
In13 In 0.28821 0.56941 0.48993 0.0
O14 O 0.33181 0.65587 0.54078 0.0
O15 O 0.27409 0.54298 0.55834 0.0
C16 C 0.30964 0.61954 0.41147 0.0
C17 C 0.14584 0.51882 0.48865 0.0
C18 C 0.38873 0.53138 0.48955 0.0
O19 O 0.31954 0.66066 0.44259 0.0
O20 O 0.29059 0.55476 0.4206 0.0
O21 O 0.32158 0.48409 0.48787 0.0
O22 O 0.40443 0.59692 0.49168 0.0
C23 C 0.30683 0.60873 0.56988 0.0
O24 O 0.17062 0.47623 0.48494 0.0
O25 O 0.19261 0.58515 0.49331 0.0
In26 In 0.70528 0.29409 0.81703 0.0
O27 O 0.65387 0.34083 0.86027 0.0
O28 O 0.70898 0.29026 0.88728 0.0
C29 C 0.67883 0.30923 0.73668 0.0
C30 C 0.62118 0.14888 0.81941 0.0
C31 C 0.84575 0.39667 0.81921 0.0
O32 O 0.64659 0.32043 0.76647 0.0
O33 O 0.72381 0.29073 0.7478 0.0
O34 O 0.82512 0.32981 0.82287 0.0
O35 O 0.79598 0.41123 0.81423 0.0
C36 C 0.67391 0.32227 0.89309 0.0
O37 O 0.68976 0.17951 0.81994 0.0
O38 O 0.59637 0.19116 0.818 0.0
In39 In 0.41496 0.71717 0.15815 0.0
O40 O 0.50237 0.68686 0.16238 0.0
O41 O 0.39057 0.60191 0.15657 0.0
C42 C 0.45115 0.85656 0.15875 0.0
C43 C 0.3673 0.6903 0.23639 0.0
C44 C 0.38259 0.69864 0.07707 0.0
O45 O 0.49916 0.8384 0.15654 0.0
O46 O 0.38648 0.80464 0.16144 0.0
O47 O 0.3331 0.67647 0.10473 0.0
O48 O 0.44687 0.72865 0.09075 0.0
C49 C 0.45638 0.61923 0.15963 0.0
O50 O 0.32365 0.6714 0.20551 0.0
O51 O 0.43405 0.72275 0.22725 0.0
In52 In 0.71011 0.41419 0.48227 0.0
O53 O 0.83013 0.49543 0.48829 0.0
O54 O 0.7946 0.3815 0.48304 0.0
C55 C 0.61528 0.45995 0.48365 0.0
C56 C 0.68104 0.36362 0.56012 0.0
C57 C 0.69969 0.39043 0.40004 0.0
O58 O 0.68323 0.50467 0.4834 0.0
O59 O 0.59648 0.39349 0.4833 0.0
O60 O 0.66709 0.33827 0.42591 0.0
O61 O 0.7377 0.45283 0.41605 0.0
C62 C 0.84683 0.44622 0.48663 0.0
O63 O 0.65553 0.32094 0.52877 0.0
O64 O 0.72055 0.43049 0.55157 0.0
In65 In 0.29216 0.70738 0.82283 0.0
O66 O 0.32814 0.82812 0.82389 0.0
O67 O 0.40864 0.79752 0.81733 0.0
C68 C 0.14814 0.6195 0.82468 0.0
C69 C 0.31952 0.68569 0.90114 0.0
C70 C 0.30832 0.67576 0.74457 0.0
O71 O 0.17676 0.68799 0.82261 0.0
O72 O 0.19188 0.59644 0.82651 0.0
O73 O 0.33112 0.65524 0.77535 0.0
O74 O 0.27802 0.71159 0.7535 0.0
C75 C 0.39471 0.84807 0.82022 0.0
O76 O 0.33442 0.65791 0.87042 0.0
O77 O 0.29114 0.72326 0.89212 0.0
C78 C 0.52227 0.05313 0.19132 0.0
C79 C 0.49693 0.07777 0.15768 0.0
C80 C 0.43591 0.95571 0.12678 0.0
C81 C 0.46813 0.93314 0.15799 0.0
N82 N 0.54416 0.9605 0.21933 0.0
N83 N 0.43261 0.0552 0.09223 0.0
C84 C 0.51227 0.98205 0.18997 0.0
C85 C 0.4538 0.02958 0.12535 0.0
N86 N 0.55262 0.09679 0.22563 0.0
N87 N 0.38798 0.90659 0.09848 0.0
H88 H 0.44057 0.10747 0.09129 0.0
H89 H 0.41046 0.02625 0.06462 0.0
H90 H 0.3772 0.85348 0.09583 0.0
H91 H 0.35548 0.91703 0.07881 0.0
H92 H 0.56632 0.0803 0.25313 0.0
H93 H 0.55749 0.14774 0.22826 0.0
H94 H 0.58408 0.99605 0.24005 0.0
H95 H 0.53371 0.90743 0.22181 0.0
C96 C 0.49476 0.53097 0.52235 0.0
C97 C 0.44607 0.51231 0.48811 0.0
C98 C 0.50789 0.45883 0.45109 0.0
C99 C 0.56012 0.48234 0.48397 0.0
N100 N 0.60913 0.54919 0.5485 0.0
N101 N 0.41396 0.4715 0.41663 0.0
C102 C 0.55568 0.52152 0.51872 0.0
C103 C 0.45453 0.47957 0.45161 0.0
N104 N 0.48059 0.55424 0.55916 0.0
N105 N 0.50874 0.41619 0.41938 0.0
H106 H 0.37441 0.48615 0.41562 0.0
H107 H 0.42367 0.45626 0.38745 0.0
H108 H 0.54911 0.40313 0.41594 0.0
H109 H 0.46677 0.38976 0.39775 0.0
H110 H 0.50939 0.5614 0.58682 0.0
H111 H 0.43547 0.55999 0.56329 0.0
H112 H 0.61322 0.58527 0.57175 0.0
H113 H 0.65263 0.54031 0.54853 0.0
C114 C 0.95716 0.4949 0.78415 0.0
C115 C 0.92285 0.45481 0.82097 0.0
C116 C 0.03523 0.52657 0.86105 0.0
C117 C 0.06888 0.5683 0.82456 0.0
N118 N 0.06047 0.60041 0.75311 0.0
N119 N 0.92368 0.43931 0.89581 0.0
C120 C 0.0292 0.55522 0.78667 0.0
C121 C 0.9604 0.47241 0.85983 0.0
N122 N 0.92185 0.47314 0.74644 0.0
N123 N 0.07521 0.53847 0.89679 0.0
H124 H 0.86907 0.3989 0.89607 0.0
H125 H 0.94548 0.45526 0.92576 0.0
H126 H 0.12841 0.58145 0.89993 0.0
H127 H 0.05703 0.50415 0.92271 0.0
H128 H 0.94624 0.49464 0.71767 0.0
H129 H 0.86912 0.42925 0.7434 0.0
H130 H 0.03237 0.59867 0.72606 0.0
H131 H 0.11385 0.64355 0.75327 0.0
C132 C 0.02 0.44971 0.51847 0.0
C133 C 0.06776 0.49473 0.48644 0.0
C134 C 0.96842 0.50177 0.45267 0.0
C135 C 0.92276 0.46297 0.48677 0.0
N136 N 0.90527 0.40613 0.55443 0.0
N137 N 0.0903 0.57061 0.42539 0.0
C138 C 0.94835 0.43795 0.52017 0.0
C139 C 0.04279 0.52286 0.45426 0.0
N140 N 0.04337 0.41904 0.54754 0.0
N141 N 0.93994 0.51555 0.41782 0.0
H142 H 0.14434 0.58445 0.42349 0.0
H143 H 0.0774 0.60027 0.40484 0.0
H144 H 0.88558 0.50062 0.41525 0.0
H145 H 0.96841 0.53589 0.38992 0.0
H146 H 0.0092 0.37935 0.56874 0.0
H147 H 0.09654 0.42982 0.54899 0.0
H148 H 0.92299 0.39364 0.58188 0.0
H149 H 0.85275 0.39709 0.55687 0.0
C150 C 0.46989 0.96624 0.85807 0.0
C151 C 0.45358 0.92511 0.82051 0.0
C152 C 0.55996 0.02555 0.78621 0.0
C153 C 0.57148 0.06928 0.82207 0.0
N154 N 0.54099 0.08301 0.89272 0.0
N155 N 0.47735 0.91638 0.74752 0.0
C156 C 0.52745 0.03992 0.85823 0.0
C157 C 0.49749 0.95475 0.7843 0.0
N158 N 0.43203 0.93396 0.89389 0.0
N159 N 0.60905 0.05166 0.75417 0.0
H160 H 0.4312 0.86497 0.74478 0.0
H161 H 0.50251 0.93745 0.71887 0.0
H162 H 0.65532 0.10318 0.75478 0.0
H163 H 0.60773 0.02045 0.72877 0.0
H164 H 0.44601 0.95783 0.92345 0.0
H165 H 0.38848 0.88076 0.89477 0.0
H166 H 0.50629 0.06898 0.91828 0.0
H167 H 0.58704 0.13453 0.89533 0.0
C168 C 0.47117 0.52691 0.1197 0.0
C169 C 0.4773 0.56315 0.15817 0.0
C170 C 0.50808 0.48155 0.19501 0.0
C171 C 0.50707 0.44896 0.15608 0.0
N172 N 0.49577 0.44418 0.08078 0.0
N173 N 0.50748 0.58085 0.23174 0.0
C174 C 0.49057 0.47243 0.11824 0.0
C175 C 0.49772 0.54229 0.19566 0.0
N176 N 0.44614 0.5442 0.08463 0.0
N177 N 0.51698 0.45291 0.23137 0.0
H178 H 0.49765 0.62381 0.2337 0.0
H179 H 0.52963 0.57363 0.25911 0.0
H180 H 0.5242 0.40817 0.23183 0.0
H181 H 0.51187 0.46947 0.26121 0.0
H182 H 0.43162 0.5139 0.05706 0.0
H183 H 0.43601 0.58701 0.08361 0.0
H184 H 0.49306 0.46481 0.0517 0.0
H185 H 0.50726 0.40236 0.07861 0.0
C186 C 0.58896 0.27066 0.95263 0.0
C187 C 0.65231 0.32983 0.93572 0.0
C188 C 0.6839 0.38784 0.00488 0.0
C189 C 0.62684 0.32301 0.02279 0.0
N190 N 0.53583 0.19624 0.01382 0.0
N191 N 0.76411 0.44306 0.94535 0.0
C192 C 0.58173 0.26274 -0.00332 0.0
C193 C 0.70104 0.38817 0.96172 0.0
N194 N 0.53594 0.22165 0.92659 0.0
N195 N 0.71961 0.44967 0.02843 0.0
H196 H 0.77631 0.44652 0.91344 0.0
H197 H 0.80574 0.48263 0.96372 0.0
H198 H 0.70691 0.4523 0.05969 0.0
H199 H 0.75698 0.50002 0.01588 0.0
H200 H 0.48557 0.18103 0.93741 0.0
H201 H 0.53978 0.22619 0.89397 0.0
H202 H 0.50664 0.14923 -0.00406 0.0
H203 H 0.53394 0.1862 0.0459 0.0
C204 C 0.3817 0.73084 0.31097 0.0
C205 C 0.3435 0.67567 0.28064 0.0
C206 C 0.26917 0.59375 0.33654 0.0
C207 C 0.31778 0.64323 0.36702 0.0
N208 N 0.42949 0.75618 0.38137 0.0
N209 N 0.25779 0.549 0.2659 0.0
C210 C 0.37625 0.71156 0.35393 0.0
C211 C 0.28851 0.60565 0.2936 0.0
N212 N 0.42244 0.80179 0.29884 0.0
N213 N 0.20386 0.53602 0.34827 0.0
H214 H 0.27241 0.5535 0.23444 0.0
H215 H 0.22302 0.49551 0.27531 0.0
H216 H 0.18575 0.52651 0.37919 0.0
H217 H 0.16427 0.5026 0.32665 0.0
H218 H 0.44649 0.84463 0.32019 0.0
H219 H 0.42485 0.81823 0.26777 0.0
H220 H 0.4765 0.80306 0.37181 0.0
H221 H 0.43124 0.74301 0.41261 0.0
C222 C 0.66311 0.26415 0.66278 0.0
C223 C 0.66541 0.31594 0.69162 0.0
C224 C 0.65028 0.38064 0.63295 0.0
C225 C 0.66554 0.3393 0.60438 0.0
N226 N 0.69592 0.24576 0.59343 0.0
N227 N 0.67147 0.43119 0.70264 0.0
C228 C 0.67376 0.28146 0.61945 0.0
C229 C 0.6609 0.376 0.67648 0.0
N230 N 0.64895 0.19771 0.67659 0.0
N231 N 0.62459 0.42353 0.61854 0.0
H232 H 0.68362 0.43296 0.7344 0.0
H233 H 0.67568 0.47916 0.69172 0.0
H234 H 0.61233 0.42481 0.58696 0.0
H235 H 0.60725 0.45038 0.63841 0.0
H236 H 0.6411 0.15603 0.65633 0.0
H237 H 0.63607 0.18151 0.70776 0.0
H238 H 0.70979 0.20845 0.6044 0.0
H239 H 0.70716 0.25801 0.56174 0.0
C240 C 0.2993 0.62174 0.97005 0.0
C241 C 0.34159 0.68322 0.94451 0.0
C242 C 0.4073 0.75505 0.00574 0.0
C243 C 0.36774 0.69266 0.03148 0.0
N244 N 0.28845 0.56262 0.03675 0.0
N245 N 0.44782 0.80123 0.93568 0.0
C246 C 0.31707 0.62468 0.0133 0.0
C247 C 0.39951 0.74757 0.96167 0.0
N248 N 0.24118 0.56142 0.95324 0.0
N249 N 0.44933 0.82228 0.02326 0.0
H250 H 0.44414 0.79677 0.90306 0.0
H251 H 0.49535 0.8465 0.94629 0.0
H252 H 0.45575 0.83149 0.05545 0.0
H253 H 0.4723 0.87021 0.00591 0.0
H254 H 0.203 0.51825 0.97126 0.0
H255 H 0.22886 0.5565 0.92129 0.0
H256 H 0.25685 0.51084 0.02408 0.0
H257 H 0.30178 0.56213 0.06817 0.0
C258 C 0.67595 0.42506 0.32899 0.0
C259 C 0.69309 0.38045 0.35391 0.0
C260 C 0.69023 0.31268 0.29113 0.0
C261 C 0.67377 0.35774 0.26669 0.0
N262 N 0.67198 0.46866 0.25941 0.0
N263 N 0.73545 0.29521 0.35727 0.0
C264 C 0.67381 0.41801 0.28475 0.0
C265 C 0.70577 0.328 0.33459 0.0
N266 N 0.65716 0.47095 0.3474 0.0
N267 N 0.6896 0.25456 0.27288 0.0
H268 H 0.75005 0.30706 0.38875 0.0
H269 H 0.75205 0.26154 0.34402 0.0
H270 H 0.68363 0.24542 0.24057 0.0
H271 H 0.69191 0.2141 0.2898 0.0
H272 H 0.63569 0.49768 0.33077 0.0
H273 H 0.6564 0.4777 0.37967 0.0
H274 H 0.67897 0.5177 0.27042 0.0
H275 H 0.6708 0.46483 0.22675 0.0
C276 C 0.37678 0.68739 0.67856 0.0
C277 C 0.31051 0.65455 0.70097 0.0
C278 C 0.24274 0.59994 0.63653 0.0
C279 C 0.30913 0.62785 0.6145 0.0
N280 N 0.43976 0.68896 0.61505 0.0
N281 N 0.18242 0.56765 0.70383 0.0
C282 C 0.37645 0.66924 0.63559 0.0
C283 C 0.24405 0.60717 0.68068 0.0
N284 N 0.43943 0.73763 0.69792 0.0
N285 N 0.1785 0.56951 0.61506 0.0
H286 H 0.18174 0.5706 0.73648 0.0
H287 H 0.13376 0.5268 0.69121 0.0
H288 H 0.1752 0.56557 0.58245 0.0
H289 H 0.12912 0.55496 0.62914 0.0
H290 H 0.4879 0.76981 0.68202 0.0
H291 H 0.44189 0.75063 0.72965 0.0
H292 H 0.48992 0.71205 0.62997 0.0
H293 H 0.44167 0.67734 0.58347 0.0
loop_
_geom_bond_atom_site_label_1
_geom_bond_atom_site_label_2
_geom_bond_distance
_geom_bond_site_symmetry_2
_ccdc_geom_bond_type
In0 O1 2.294 . S
In0 O2 2.326 . S
In0 O6 2.266 . S
In0 O7 2.326 . S
In0 O8 2.266 . S
In0 O9 2.326 . S
In0 O11 2.294 . S
In0 O12 2.326 . S
O1 In0 2.294 . S
O1 C10 1.240 . S
O2 In0 2.326 . S
O2 C10 1.252 . S
C3 O6 1.252 . S
C3 O7 1.260 . S
C4 O11 1.240 . S
C4 O12 1.252 . S
C5 O8 1.252 . S
C5 O9 1.260 . S
O6 In0 2.266 . S
O6 C3 1.252 . S
O7 In0 2.326 . S
O7 C3 1.260 . S
O8 In0 2.266 . S
O8 C5 1.252 . S
O9 In0 2.326 . S
O9 C5 1.260 . S
C10 O1 1.240 . S
C10 O2 1.252 . S
O11 In0 2.294 . S
O11 C4 1.240 . S
O12 In0 2.326 . S
O12 C4 1.252 . S
In13 O14 2.294 . S
In13 O15 2.326 . S
In13 O19 2.266 . S
In13 O20 2.326 . S
In13 O21 2.266 . S
In13 O22 2.326 . S
In13 O24 2.294 . S
In13 O25 2.326 . S
O14 In13 2.294 . S
O14 C23 1.240 . S
O15 In13 2.326 . S
O15 C23 1.252 . S
C16 O19 1.252 . S
C16 O20 1.260 . S
C17 O24 1.240 . S
C17 O25 1.252 . S
C18 O21 1.252 . S
C18 O22 1.260 . S
O19 In13 2.266 . S
O19 C16 1.252 . S
O20 In13 2.326 . S
O20 C16 1.260 . S
O21 In13 2.266 . S
O21 C18 1.252 . S
O22 In13 2.326 . S
O22 C18 1.260 . S
C23 O14 1.240 . S
C23 O15 1.252 . S
O24 In13 2.294 . S
O24 C17 1.240 . S
O25 In13 2.326 . S
O25 C17 1.252 . S
In26 O27 2.294 . S
In26 O28 2.326 . S
In26 O32 2.266 . S
In26 O33 2.326 . S
In26 O34 2.266 . S
In26 O35 2.326 . S
In26 O37 2.294 . S
In26 O38 2.326 . S
O27 In26 2.294 . S
O27 C36 1.240 . S
O28 In26 2.326 . S
O28 C36 1.252 . S
C29 O32 1.252 . S
C29 O33 1.260 . S
C30 O37 1.240 . S
C30 O38 1.252 . S
C31 O34 1.252 . S
C31 O35 1.260 . S
O32 In26 2.266 . S
O32 C29 1.252 . S
O33 In26 2.326 . S
O33 C29 1.260 . S
O34 In26 2.266 . S
O34 C31 1.252 . S
O35 In26 2.326 . S
O35 C31 1.260 . S
C36 O27 1.240 . S
C36 O28 1.252 . S
O37 In26 2.294 . S
O37 C30 1.240 . S
O38 In26 2.326 . S
O38 C30 1.252 . S
In39 O40 2.294 . S
In39 O41 2.326 . S
In39 O45 2.266 . S
In39 O46 2.326 . S
In39 O47 2.266 . S
In39 O48 2.326 . S
In39 O50 2.294 . S
In39 O51 2.326 . S
O40 In39 2.294 . S
O40 C49 1.240 . S
O41 In39 2.326 . S
O41 C49 1.252 . S
C42 O45 1.252 . S
C42 O46 1.260 . S
C43 O50 1.240 . S
C43 O51 1.252 . S
C44 O47 1.252 . S
C44 O48 1.260 . S
O45 In39 2.266 . S
O45 C42 1.252 . S
O46 In39 2.326 . S
O46 C42 1.260 . S
O47 In39 2.266 . S
O47 C44 1.252 . S
O48 In39 2.326 . S
O48 C44 1.260 . S
C49 O40 1.240 . S
C49 O41 1.252 . S
O50 In39 2.294 . S
O50 C43 1.240 . S
O51 In39 2.326 . S
O51 C43 1.252 . S
In52 O53 2.294 . S
In52 O54 2.326 . S
In52 O58 2.266 . S
In52 O59 2.326 . S
In52 O60 2.266 . S
In52 O61 2.326 . S
In52 O63 2.294 . S
In52 O64 2.326 . S
O53 In52 2.294 . S
O53 C62 1.240 . S
O54 In52 2.326 . S
O54 C62 1.252 . S
C55 O58 1.252 . S
C55 O59 1.260 . S
C56 O63 1.240 . S
C56 O64 1.252 . S
C57 O60 1.252 . S
C57 O61 1.260 . S
O58 In52 2.266 . S
O58 C55 1.252 . S
O59 In52 2.326 . S
O59 C55 1.260 . S
O60 In52 2.266 . S
O60 C57 1.252 . S
O61 In52 2.326 . S
O61 C57 1.260 . S
C62 O53 1.240 . S
C62 O54 1.252 . S
O63 In52 2.294 . S
O63 C56 1.240 . S
O64 In52 2.326 . S
O64 C56 1.252 . S
In65 O66 2.294 . S
In65 O67 2.326 . S
In65 O71 2.266 . S
In65 O72 2.326 . S
In65 O73 2.266 . S
In65 O74 2.326 . S
In65 O76 2.294 . S
In65 O77 2.326 . S
O66 In65 2.294 . S
O66 C75 1.240 . S
O67 In65 2.326 . S
O67 C75 1.252 . S
C68 O71 1.252 . S
C68 O72 1.260 . S
C69 O76 1.240 . S
C69 O77 1.252 . S
C70 O73 1.252 . S
C70 O74 1.260 . S
O71 In65 2.266 . S
O71 C68 1.252 . S
O72 In65 2.326 . S
O72 C68 1.260 . S
O73 In65 2.266 . S
O73 C70 1.252 . S
O74 In65 2.326 . S
O74 C70 1.260 . S
C75 O66 1.240 . S
C75 O67 1.252 . S
O76 In65 2.294 . S
O76 C69 1.240 . S
O77 In65 2.326 . S
O77 C69 1.252 . S
C78 C79 1.363 . S
C78 C84 1.379 1_545 S
C78 N86 1.356 . S
C79 C78 1.363 . S
C79 C85 1.363 . S
C80 C81 1.363 . S
C80 C85 1.379 1_565 S
C80 N87 1.356 . S
C81 C80 1.363 . S
C81 C84 1.363 . S
N82 C84 1.356 . S
N82 H94 0.984 . S
N82 H95 0.985 . S
N83 C85 1.356 . S
N83 H88 0.984 . S
N83 H89 0.985 . S
C84 C78 1.379 1_565 S
C84 C81 1.363 . S
C84 N82 1.356 . S
C85 C79 1.363 . S
C85 C80 1.379 1_545 S
C85 N83 1.356 . S
N86 C78 1.356 . S
N86 H92 0.984 . S
N86 H93 0.984 . S
N87 C80 1.356 . S
N87 H90 0.984 . S
N87 H91 0.985 . S
H88 N83 0.984 . S
H89 N83 0.985 . S
H90 N87 0.984 . S
H91 N87 0.985 . S
H92 N86 0.984 . S
H93 N86 0.984 . S
H94 N82 0.984 . S
H95 N82 0.985 . S
C96 C97 1.363 . S
C96 C102 1.379 . S
C96 N104 1.356 . S
C97 C96 1.363 . S
C97 C103 1.363 . S
C98 C99 1.363 . S
C98 C103 1.379 . S
C98 N105 1.356 . S
C99 C98 1.363 . S
C99 C102 1.363 . S
N100 C102 1.356 . S
N100 H112 0.984 . S
N100 H113 0.985 . S
N101 C103 1.356 . S
N101 H106 0.984 . S
N101 H107 0.985 . S
C102 C96 1.379 . S
C102 C99 1.363 . S
C102 N100 1.356 . S
C103 C97 1.363 . S
C103 C98 1.379 . S
C103 N101 1.356 . S
N104 C96 1.356 . S
N104 H110 0.984 . S
N104 H111 0.984 . S
N105 C98 1.356 . S
N105 H108 0.984 . S
N105 H109 0.985 . S
H106 N101 0.984 . S
H107 N101 0.985 . S
H108 N105 0.984 . S
H109 N105 0.985 . S
H110 N104 0.984 . S
H111 N104 0.984 . S
H112 N100 0.984 . S
H113 N100 0.985 . S
C114 C115 1.363 . S
C114 C120 1.379 1_655 S
C114 N122 1.356 . S
C115 C114 1.363 . S
C115 C121 1.363 . S
C116 C117 1.363 . S
C116 C121 1.379 1_455 S
C116 N123 1.356 . S
C117 C116 1.363 . S
C117 C120 1.363 . S
N118 C120 1.356 . S
N118 H130 0.984 . S
N118 H131 0.985 . S
N119 C121 1.356 . S
N119 H124 0.984 . S
N119 H125 0.985 . S
C120 C114 1.379 1_455 S
C120 C117 1.363 . S
C120 N118 1.356 . S
C121 C115 1.363 . S
C121 C116 1.379 1_655 S
C121 N119 1.356 . S
N122 C114 1.356 . S
N122 H128 0.984 . S
N122 H129 0.984 . S
N123 C116 1.356 . S
N123 H126 0.984 . S
N123 H127 0.985 . S
H124 N119 0.984 . S
H125 N119 0.985 . S
H126 N123 0.984 . S
H127 N123 0.985 . S
H128 N122 0.984 . S
H129 N122 0.984 . S
H130 N118 0.984 . S
H131 N118 0.985 . S
C132 C133 1.363 . S
C132 C138 1.379 1_455 S
C132 N140 1.356 . S
C133 C132 1.363 . S
C133 C139 1.363 . S
C134 C135 1.363 . S
C134 C139 1.379 1_655 S
C134 N141 1.356 . S
C135 C134 1.363 . S
C135 C138 1.363 . S
N136 C138 1.356 . S
N136 H148 0.984 . S
N136 H149 0.985 . S
N137 C139 1.356 . S
N137 H142 0.984 . S
N137 H143 0.985 . S
C138 C132 1.379 1_655 S
C138 C135 1.363 . S
C138 N136 1.356 . S
C139 C133 1.363 . S
C139 C134 1.379 1_455 S
C139 N137 1.356 . S
N140 C132 1.356 . S
N140 H146 0.984 . S
N140 H147 0.984 . S
N141 C134 1.356 . S
N141 H144 0.984 . S
N141 H145 0.985 . S
H142 N137 0.984 . S
H143 N137 0.985 . S
H144 N141 0.984 . S
H145 N141 0.985 . S
H146 N140 0.984 . S
H147 N140 0.984 . S
H148 N136 0.984 . S
H149 N136 0.985 . S
C150 C151 1.363 . S
C150 C156 1.379 1_565 S
C150 N158 1.356 . S
C151 C150 1.363 . S
C151 C157 1.363 . S
C152 C153 1.363 . S
C152 C157 1.379 1_545 S
C152 N159 1.356 . S
C153 C152 1.363 . S
C153 C156 1.363 . S
N154 C156 1.356 . S
N154 H166 0.984 . S
N154 H167 0.985 . S
N155 C157 1.356 . S
N155 H160 0.984 . S
N155 H161 0.985 . S
C156 C150 1.379 1_545 S
C156 C153 1.363 . S
C156 N154 1.356 . S
C157 C151 1.363 . S
C157 C152 1.379 1_565 S
C157 N155 1.356 . S
N158 C150 1.356 . S
N158 H164 0.984 . S
N158 H165 0.984 . S
N159 C152 1.356 . S
N159 H162 0.984 . S
N159 H163 0.985 . S
H160 N155 0.984 . S
H161 N155 0.985 . S
H162 N159 0.984 . S
H163 N159 0.985 . S
H164 N158 0.984 . S
H165 N158 0.984 . S
H166 N154 0.984 . S
H167 N154 0.985 . S
C168 C169 1.363 . S
C168 C174 1.379 . S
C168 N176 1.356 . S
C169 C168 1.363 . S
C169 C175 1.363 . S
C170 C171 1.363 . S
C170 C175 1.379 . S
C170 N177 1.356 . S
C171 C170 1.363 . S
C171 C174 1.363 . S
N172 C174 1.356 . S
N172 H184 0.984 . S
N172 H185 0.985 . S
N173 C175 1.356 . S
N173 H178 0.984 . S
N173 H179 0.985 . S
C174 C168 1.379 . S
C174 C171 1.363 . S
C174 N172 1.356 . S
C175 C169 1.363 . S
C175 C170 1.379 . S
C175 N173 1.356 . S
N176 C168 1.356 . S
N176 H182 0.984 . S
N176 H183 0.984 . S
N177 C170 1.356 . S
N177 H180 0.984 . S
N177 H181 0.985 . S
H178 N173 0.984 . S
H179 N173 0.985 . S
H180 N177 0.984 . S
H181 N177 0.985 . S
H182 N176 0.984 . S
H183 N176 0.984 . S
H184 N172 0.984 . S
H185 N172 0.985 . S
C186 C187 1.363 . S
C186 C192 1.379 1_556 S
C186 N194 1.356 . S
C187 C186 1.363 . S
C187 C193 1.363 . S
C188 C189 1.363 . S
C188 C193 1.379 1_554 S
C188 N195 1.356 . S
C189 C188 1.363 . S
C189 C192 1.363 . S
N190 C192 1.356 . S
N190 H202 0.984 . S
N190 H203 0.985 . S
N191 C193 1.356 . S
N191 H196 0.984 . S
N191 H197 0.985 . S
C192 C186 1.379 1_554 S
C192 C189 1.363 . S
C192 N190 1.356 . S
C193 C187 1.363 . S
C193 C188 1.379 1_556 S
C193 N191 1.356 . S
N194 C186 1.356 . S
N194 H200 0.984 . S
N194 H201 0.984 . S
N195 C188 1.356 . S
N195 H198 0.984 . S
N195 H199 0.985 . S
H196 N191 0.984 . S
H197 N191 0.985 . S
H198 N195 0.984 . S
H199 N195 0.985 . S
H200 N194 0.984 . S
H201 N194 0.984 . S
H202 N190 0.984 . S
H203 N190 0.985 . S
C204 C205 1.363 . S
C204 C210 1.379 . S
C204 N212 1.356 . S
C205 C204 1.363 . S
C205 C211 1.363 . S
C206 C207 1.363 . S
C206 C211 1.379 . S
C206 N213 1.356 . S
C207 C206 1.363 . S
C207 C210 1.363 . S
N208 C210 1.356 . S
N208 H220 0.984 . S
N208 H221 0.985 . S
N209 C211 1.356 . S
N209 H214 0.984 . S
N209 H215 0.985 . S
C210 C204 1.379 . S
C210 C207 1.363 . S
C210 N208 1.356 . S
C211 C205 1.363 . S
C211 C206 1.379 . S
C211 N209 1.356 . S
N212 C204 1.356 . S
N212 H218 0.984 . S
N212 H219 0.984 . S
N213 C206 1.356 . S
N213 H216 0.984 . S
N213 H217 0.985 . S
H214 N209 0.984 . S
H215 N209 0.985 . S
H216 N213 0.984 . S
H217 N213 0.985 . S
H218 N212 0.984 . S
H219 N212 0.984 . S
H220 N208 0.984 . S
H221 N208 0.985 . S
C222 C223 1.363 . S
C222 C228 1.379 . S
C222 N230 1.356 . S
C223 C222 1.363 . S
C223 C229 1.363 . S
C224 C225 1.363 . S
C224 C229 1.379 . S
C224 N231 1.356 . S
C225 C224 1.363 . S
C225 C228 1.363 . S
N226 C228 1.356 . S
N226 H238 0.984 . S
N226 H239 0.985 . S
N227 C229 1.356 . S
N227 H232 0.984 . S
N227 H233 0.985 . S
C228 C222 1.379 . S
C228 C225 1.363 . S
C228 N226 1.356 . S
C229 C223 1.363 . S
C229 C224 1.379 . S
C229 N227 1.356 . S
N230 C222 1.356 . S
N230 H236 0.984 . S
N230 H237 0.984 . S
N231 C224 1.356 . S
N231 H234 0.984 . S
N231 H235 0.985 . S
H232 N227 0.984 . S
H233 N227 0.985 . S
H234 N231 0.984 . S
H235 N231 0.985 . S
H236 N230 0.984 . S
H237 N230 0.984 . S
H238 N226 0.984 . S
H239 N226 0.985 . S
C240 C241 1.363 . S
C240 C246 1.379 1_556 S
C240 N248 1.356 . S
C241 C240 1.363 . S
C241 C247 1.363 . S
C242 C243 1.363 . S
C242 C247 1.379 1_554 S
C242 N249 1.356 . S
C243 C242 1.363 . S
C243 C246 1.363 . S
N244 C246 1.356 . S
N244 H256 0.984 . S
N244 H257 0.985 . S
N245 C247 1.356 . S
N245 H250 0.984 . S
N245 H251 0.985 . S
C246 C240 1.379 1_554 S
C246 C243 1.363 . S
C246 N244 1.356 . S
C247 C241 1.363 . S
C247 C242 1.379 1_556 S
C247 N245 1.356 . S
N248 C240 1.356 . S
N248 H254 0.984 . S
N248 H255 0.984 . S
N249 C242 1.356 . S
N249 H252 0.984 . S
N249 H253 0.985 . S
H250 N245 0.984 . S
H251 N245 0.985 . S
H252 N249 0.984 . S
H253 N249 0.985 . S
H254 N248 0.984 . S
H255 N248 0.984 . S
H256 N244 0.984 . S
H257 N244 0.985 . S
C258 C259 1.363 . S
C258 C264 1.379 . S
C258 N266 1.356 . S
C259 C258 1.363 . S
C259 C265 1.363 . S
C260 C261 1.363 . S
C260 C265 1.379 . S
C260 N267 1.356 . S
C261 C260 1.363 . S
C261 C264 1.363 . S
N262 C264 1.356 . S
N262 H274 0.984 . S
N262 H275 0.985 . S
N263 C265 1.356 . S
N263 H268 0.984 . S
N263 H269 0.985 . S
C264 C258 1.379 . S
C264 C261 1.363 . S
C264 N262 1.356 . S
C265 C259 1.363 . S
C265 C260 1.379 . S
C265 N263 1.356 . S
N266 C258 1.356 . S
N266 H272 0.984 . S
N266 H273 0.984 . S
N267 C260 1.356 . S
N267 H270 0.984 . S
N267 H271 0.985 . S
H268 N263 0.984 . S
H269 N263 0.985 . S
H270 N267 0.984 . S
H271 N267 0.985 . S
H272 N266 0.984 . S
H273 N266 0.984 . S
H274 N262 0.984 . S
H275 N262 0.985 . S
C276 C277 1.363 . S
C276 C282 1.379 . S
C276 N284 1.356 . S
C277 C276 1.363 . S
C277 C283 1.363 . S
C278 C279 1.363 . S
C278 C283 1.379 . S
C278 N285 1.356 . S
C279 C278 1.363 . S
C279 C282 1.363 . S
N280 C282 1.356 . S
N280 H292 0.984 . S
N280 H293 0.985 . S
N281 C283 1.356 . S
N281 H286 0.984 . S
N281 H287 0.985 . S
C282 C276 1.379 . S
C282 C279 1.363 . S
C282 N280 1.356 . S
C283 C277 1.363 . S
C283 C278 1.379 . S
C283 N281 1.356 . S
N284 C276 1.356 . S
N284 H290 0.984 . S
N284 H291 0.984 . S
N285 C278 1.356 . S
N285 H288 0.984 . S
N285 H289 0.985 . S
H286 N281 0.984 . S
H287 N281 0.985 . S
H288 N285 0.984 . S
H289 N285 0.985 . S
H290 N284 0.984 . S
H291 N284 0.984 . S
H292 N280 0.984 . S
H293 N280 0.985 . S
C79 C3 1.473 . S
C81 C42 1.473 . S
C97 C18 1.473 . S
C99 C55 1.473 . S
C115 C31 1.473 . S
C117 C68 1.473 . S
C133 C17 1.461 . S
C135 C62 1.461 . S
C151 C75 1.461 . S
C153 C30 1.461 . S
C169 C49 1.461 . S
C171 C10 1.461 . S
C187 C36 1.404 . S
C189 C5 1.401 . S
C205 C43 1.404 . S
C207 C16 1.401 . S
C223 C29 1.401 . S
C225 C56 1.404 . S
C241 C69 1.404 . S
C243 C44 1.401 . S
C259 C57 1.401 . S
C261 C4 1.404 . S
C277 C70 1.401 . S
C279 C23 1.404 . S
