# Generated by pormake.
# Topology snx, (6)-cn, num edge types: 1
# Building blocks:
#     Node 0, Type 0, BuildingBlock: MIDCAF_clean_sbu_0, # of connection points: 6
#     Node 1, Type 0, BuildingBlock: MIDCAF_clean_sbu_0, # of connection points: 6
#     Node 2, Type 0, BuildingBlock: MIDCAF_clean_sbu_0, # of connection points: 6
#     Node 3, Type 0, BuildingBlock: MIDCAF_clean_sbu_0, # of connection points: 6
#     Node 4, Type 0, BuildingBlock: MIDCAF_clean_sbu_0, # of connection points: 6
#     Node 5, Type 0, BuildingBlock: MIDCAF_clean_sbu_0, # of connection points: 6
#     Edge 6, Type (0, 0), BuildingBlock: MIFKUJ_clean_linker_0, # of connection points: 2
#     Edge 7, Type (0, 0), BuildingBlock: MIFKUJ_clean_linker_0, # of connection points: 2
#     Edge 8, Type (0, 0), BuildingBlock: MIFKUJ_clean_linker_0, # of connection points: 2
#     Edge 9, Type (0, 0), BuildingBlock: MIFKUJ_clean_linker_0, # of connection points: 2
#     Edge 10, Type (0, 0), BuildingBlock: MIFKUJ_clean_linker_0, # of connection points: 2
#     Edge 11, Type (0, 0), BuildingBlock: MIFKUJ_clean_linker_0, # of connection points: 2
#     Edge 12, Type (0, 0), BuildingBlock: MIFKUJ_clean_linker_0, # of connection points: 2
#     Edge 13, Type (0, 0), BuildingBlock: MIFKUJ_clean_linker_0, # of connection points: 2
#     Edge 14, Type (0, 0), BuildingBlock: MIFKUJ_clean_linker_0, # of connection points: 2
#     Edge 15, Type (0, 0), BuildingBlock: MIFKUJ_clean_linker_0, # of connection points: 2
#     Edge 16, Type (0, 0), BuildingBlock: MIFKUJ_clean_linker_0, # of connection points: 2
#     Edge 17, Type (0, 0), BuildingBlock: MIFKUJ_clean_linker_0, # of connection points: 2
#     Edge 18, Type (0, 0), BuildingBlock: MIFKUJ_clean_linker_0, # of connection points: 2
#     Edge 19, Type (0, 0), BuildingBlock: MIFKUJ_clean_linker_0, # of connection points: 2
#     Edge 20, Type (0, 0), BuildingBlock: MIFKUJ_clean_linker_0, # of connection points: 2
#     Edge 21, Type (0, 0), BuildingBlock: MIFKUJ_clean_linker_0, # of connection points: 2
#     Edge 22, Type (0, 0), BuildingBlock: MIFKUJ_clean_linker_0, # of connection points: 2
#     Edge 23, Type (0, 0), BuildingBlock: MIFKUJ_clean_linker_0, # of connection points: 2
# Relax obj value: 0.219
# Max RMSD: 0.238
# Mean RMSD: 0.238
data_MOF--net-snx--node1-MIDCAF_clean_sbu_0--edge1-MIFKUJ_clean_linker_0
_symmetry_space_group_name_H-M    P1
_symmetry_Int_Tables_number       1
_symmetry_cell_setting            triclinic
loop_
_symmetry_equiv_pos_as_xyz
'x, y, z'
_cell_length_a     44.360059
_cell_length_b     44.306094
_cell_length_c     28.721893
_cell_angle_alpha  90.214728
_cell_angle_beta   90.080615
_cell_angle_gamma 120.47719
loop_
_atom_site_label
_atom_site_type_symbol
_atom_site_fract_x
_atom_site_fract_y
_atom_site_fract_z
_atom_type_partial_charge
Zn0 Zn 0.1058 0.35767 0.22153 0.0
Zn1 Zn 0.21854 0.36116 0.24202 0.0
Zn2 Zn 0.16125 0.35548 0.2316 0.0
C3 C 0.18916 0.31591 0.168 0.0
C4 C 0.18614 0.33328 0.3234 0.0
O5 O 0.17321 0.41078 0.22889 0.0
O6 O 0.12167 0.40717 0.23296 0.0
C7 C 0.10937 0.32362 0.14363 0.0
O8 O 0.16636 0.32548 0.17285 0.0
O9 O 0.21339 0.32538 0.19755 0.0
O10 O 0.21697 0.35042 0.3083 0.0
O11 O 0.16049 0.33014 0.29852 0.0
O12 O 0.09396 0.33935 0.1573 0.0
O13 O 0.13461 0.32515 0.16777 0.0
O14 O 0.12749 0.32703 0.29249 0.0
O15 O 0.07846 0.32454 0.27117 0.0
C16 C 0.09482 0.31618 0.29931 0.0
O17 O 0.20507 0.41221 0.22867 0.0
O18 O 0.25278 0.40859 0.22344 0.0
C19 C 0.15453 0.42549 0.23181 0.0
C20 C 0.23852 0.42691 0.22319 0.0
Zn21 Zn 0.74089 0.11141 0.7256 0.0
Zn22 Zn 0.89399 0.25623 0.75381 0.0
Zn23 Zn 0.79818 0.16758 0.74239 0.0
C24 C 0.87574 0.2009 0.67892 0.0
C25 C 0.84617 0.19505 0.81289 0.0
O26 O 0.75575 0.18041 0.737 0.0
O27 O 0.70732 0.12844 0.73483 0.0
C28 C 0.78728 0.12553 0.65069 0.0
O29 O 0.84316 0.18112 0.6914 0.0
O30 O 0.89777 0.22902 0.70021 0.0
O31 O 0.85195 0.21581 0.77984 0.0
O32 O 0.81771 0.16593 0.81032 0.0
O33 O 0.75517 0.10853 0.66083 0.0
O34 O 0.80948 0.14855 0.67902 0.0
O35 O 0.79112 0.13264 0.80107 0.0
O36 O 0.74761 0.08252 0.77424 0.0
C37 C 0.77107 0.09931 0.80447 0.0
O38 O 0.78791 0.21052 0.74316 0.0
O39 O 0.84414 0.24748 0.74918 0.0
C40 C 0.7221 0.1614 0.73637 0.0
C41 C 0.81335 0.24215 0.74632 0.0
Zn42 Zn 0.62282 0.86956 0.24257 0.0
Zn43 Zn 0.62036 0.75569 0.24859 0.0
Zn44 Zn 0.6274 0.81543 0.24134 0.0
C45 C 0.65245 0.78755 0.32971 0.0
C46 C 0.66523 0.78962 0.17257 0.0
O47 O 0.57156 0.80361 0.24228 0.0
O48 O 0.57358 0.85423 0.25149 0.0
C49 C 0.66484 0.8771 0.31724 0.0
O50 O 0.65403 0.81324 0.30662 0.0
O51 O 0.63486 0.75674 0.31393 0.0
O52 O 0.65509 0.76416 0.20012 0.0
O53 O 0.65613 0.81266 0.17959 0.0
O54 O 0.65387 0.89403 0.29486 0.0
O55 O 0.65644 0.84592 0.30429 0.0
O56 O 0.65818 0.84642 0.17974 0.0
O57 O 0.64399 0.88747 0.18181 0.0
C58 C 0.66045 0.87443 0.16281 0.0
O59 O 0.57081 0.77249 0.23555 0.0
O60 O 0.57157 0.72307 0.23088 0.0
C61 C 0.55606 0.82141 0.24798 0.0
C62 C 0.55475 0.73894 0.22951 0.0
Zn63 Zn 0.86591 0.63789 0.73602 0.0
Zn64 Zn 0.74317 0.61948 0.73261 0.0
Zn65 Zn 0.80527 0.62929 0.73454 0.0
C66 C 0.77415 0.65526 0.65171 0.0
C67 C 0.77731 0.66472 0.80715 0.0
O68 O 0.79979 0.57621 0.73373 0.0
O69 O 0.85492 0.58995 0.72678 0.0
C70 C 0.86621 0.67339 0.659 0.0
O71 O 0.80076 0.65645 0.67183 0.0
O72 O 0.74408 0.63716 0.66914 0.0
O73 O 0.74939 0.6523 0.78377 0.0
O74 O 0.80096 0.65726 0.7962 0.0
O75 O 0.88756 0.66944 0.68338 0.0
O76 O 0.83402 0.65969 0.6716 0.0
O77 O 0.83221 0.65756 0.80095 0.0
O78 O 0.88146 0.65649 0.79864 0.0
C79 C 0.8614 0.66417 0.81981 0.0
O80 O 0.76544 0.57103 0.73253 0.0
O81 O 0.71483 0.56857 0.74288 0.0
C82 C 0.82301 0.56699 0.72945 0.0
C83 C 0.73182 0.55305 0.73754 0.0
Zn84 Zn 0.22449 0.86939 0.23756 0.0
Zn85 Zn 0.10643 0.76049 0.22772 0.0
Zn86 Zn 0.16793 0.81661 0.23122 0.0
C87 C 0.11066 0.79947 0.14944 0.0
C88 C 0.10822 0.79244 0.3109 0.0
O89 O 0.20959 0.80251 0.23472 0.0
O90 O 0.25176 0.85074 0.26756 0.0
C91 C 0.20486 0.87084 0.14969 0.0
O92 O 0.14126 0.82011 0.16678 0.0
O93 O 0.08983 0.77115 0.16952 0.0
O94 O 0.08784 0.76523 0.28804 0.0
O95 O 0.13859 0.81472 0.29483 0.0
O96 O 0.23339 0.88096 0.17069 0.0
O97 O 0.17576 0.84856 0.16888 0.0
O98 O 0.16934 0.8468 0.29427 0.0
O99 O 0.21264 0.89926 0.27566 0.0
C100 C 0.18749 0.88005 0.30204 0.0
O101 O 0.17636 0.77106 0.2284 0.0
O102 O 0.1221 0.72631 0.225 0.0
C103 C 0.24012 0.81969 0.25392 0.0
C104 C 0.15457 0.73778 0.22615 0.0
Zn105 Zn 0.3626 0.24452 0.73751 0.0
Zn106 Zn 0.34646 0.08721 0.72193 0.0
Zn107 Zn 0.3482 0.18204 0.72918 0.0
C108 C 0.31389 0.12491 0.66676 0.0
C109 C 0.31769 0.12362 0.78853 0.0
O110 O 0.4059 0.21384 0.72684 0.0
O111 O 0.41379 0.26718 0.72998 0.0
C112 C 0.31639 0.21404 0.66058 0.0
O113 O 0.31561 0.15448 0.66812 0.0
O114 O 0.33046 0.11997 0.69875 0.0
O115 O 0.33143 0.11868 0.75298 0.0
O116 O 0.31929 0.1531 0.79031 0.0
O117 O 0.33155 0.24155 0.68518 0.0
O118 O 0.3208 0.1881 0.66935 0.0
O119 O 0.32386 0.18617 0.79473 0.0
O120 O 0.34462 0.2431 0.80111 0.0
C121 C 0.3262 0.21257 0.81704 0.0
O122 O 0.39624 0.17536 0.72656 0.0
O123 O 0.39788 0.12461 0.72108 0.0
C124 C 0.42636 0.24728 0.72726 0.0
C125 C 0.41284 0.15809 0.72386 0.0
H126 H 0.14046 0.46288 0.29276 0.0
H127 H 0.15871 0.52493 0.28767 0.0
H128 H 0.2219 0.53578 0.16788 0.0
H129 H 0.20327 0.47321 0.17262 0.0
H130 H 0.23315 0.5932 0.27493 0.0
H131 H 0.18677 0.55005 0.10694 0.0
H132 H 0.14499 0.49867 0.06019 0.0
H133 H 0.0629 0.47855 0.15643 0.0
H134 H 0.10434 0.5297 0.20375 0.0
H135 H 0.21517 0.74405 0.19187 0.0
H136 H 0.23261 0.6993 0.19207 0.0
H137 H 0.13383 0.62629 0.2547 0.0
H138 H 0.11809 0.67148 0.25823 0.0
H139 H 0.15387 0.60613 0.16549 0.0
H140 H 0.19321 0.6576 0.31747 0.0
H141 H 0.22888 0.69986 0.37834 0.0
H142 H 0.31854 0.69515 0.33317 0.0
H143 H 0.28445 0.65584 0.26906 0.0
C144 C 0.15893 0.47877 0.26609 0.0
C145 C 0.17072 0.46365 0.23324 0.0
C146 C 0.16946 0.51411 0.26338 0.0
C147 C 0.19159 0.53469 0.22746 0.0
C148 C 0.20491 0.52016 0.19592 0.0
C149 C 0.19438 0.48463 0.19871 0.0
C150 C 0.19579 0.56942 0.21952 0.0
C151 C 0.21699 0.59691 0.24989 0.0
C152 C 0.17353 0.57316 0.18806 0.0
C153 C 0.14847 0.54355 0.15859 0.0
C154 C 0.15976 0.53468 0.11789 0.0
C155 C 0.13619 0.5056 0.09141 0.0
C156 C 0.10131 0.48537 0.10531 0.0
C157 C 0.0899 0.49426 0.14565 0.0
C158 C 0.11337 0.52329 0.17225 0.0
C159 C 0.19834 0.71914 0.20788 0.0
C160 C 0.16614 0.71184 0.22661 0.0
C161 C 0.20783 0.69338 0.2071 0.0
C162 C 0.18456 0.65971 0.22387 0.0
C163 C 0.1522 0.65225 0.24193 0.0
C164 C 0.14325 0.6781 0.24378 0.0
C165 C 0.19212 0.63098 0.22031 0.0
C166 C 0.1721 0.60395 0.1885 0.0
C167 C 0.21529 0.62776 0.25114 0.0
C168 C 0.2364 0.65454 0.28704 0.0
C169 C 0.2209 0.66685 0.31884 0.0
C170 C 0.24093 0.69035 0.35419 0.0
C171 C 0.27621 0.70079 0.35921 0.0
C172 C 0.29153 0.68787 0.32871 0.0
C173 C 0.27198 0.66538 0.29242 0.0
H174 H 0.29159 0.71855 0.38702 0.0
H175 H 0.08312 0.46281 0.08485 0.0
H176 H 0.69182 0.17593 0.66465 0.0
H177 H 0.64941 0.19573 0.66965 0.0
H178 H 0.6608 0.20259 0.81927 0.0
H179 H 0.70256 0.18181 0.81407 0.0
H180 H 0.59589 0.16436 0.79789 0.0
H181 H 0.67809 0.28423 0.75506 0.0
H182 H 0.72451 0.33396 0.71165 0.0
H183 H 0.67084 0.28912 0.58301 0.0
H184 H 0.62309 0.23987 0.6259 0.0
H185 H 0.45439 0.1959 0.79622 0.0
H186 H 0.51695 0.21587 0.80516 0.0
H187 H 0.51889 0.1818 0.66485 0.0
H188 H 0.45642 0.16114 0.65639 0.0
H189 H 0.58234 0.24647 0.69496 0.0
H190 H 0.50166 0.12504 0.74061 0.0
H191 H 0.45222 0.08001 0.78606 0.0
H192 H 0.50501 0.13052 0.91326 0.0
H193 H 0.55464 0.17617 0.86839 0.0
C194 C 0.68572 0.18244 0.6984 0.0
C195 C 0.7003 0.17757 0.73896 0.0
C196 C 0.66185 0.19417 0.70128 0.0
C197 C 0.65223 0.20126 0.74483 0.0
C198 C 0.66796 0.19758 0.78528 0.0
C199 C 0.69164 0.18561 0.78238 0.0
C200 C 0.62168 0.20639 0.74833 0.0
C201 C 0.59352 0.18316 0.77642 0.0
C202 C 0.61791 0.23031 0.71985 0.0
C203 C 0.64748 0.25815 0.69353 0.0
C204 C 0.67646 0.28477 0.71745 0.0
C205 C 0.70288 0.31298 0.69299 0.0
C206 C 0.70105 0.31443 0.64457 0.0
C207 C 0.67241 0.28786 0.62049 0.0
C208 C 0.64549 0.25996 0.64487 0.0
C209 C 0.46861 0.19374 0.76699 0.0
C210 C 0.45107 0.17722 0.72561 0.0
C211 C 0.50415 0.20509 0.77207 0.0
C212 C 0.52231 0.20012 0.73568 0.0
C213 C 0.5053 0.18603 0.69314 0.0
C214 C 0.46973 0.17415 0.68837 0.0
C215 C 0.55703 0.20418 0.74373 0.0
C216 C 0.58552 0.22869 0.71756 0.0
C217 C 0.56122 0.18159 0.77418 0.0
C218 C 0.53158 0.15419 0.8012 0.0
C219 C 0.50256 0.1267 0.77826 0.0
C220 C 0.47456 0.10105 0.80389 0.0
C221 C 0.47544 0.10245 0.85251 0.0
C222 C 0.50436 0.12951 0.87559 0.0
C223 C 0.53243 0.15528 0.85009 0.0
H224 H 0.45378 0.08248 0.87226 0.0
H225 H 0.72167 0.3363 0.6258 0.0
H226 H 0.28968 0.45882 0.16009 0.0
H227 H 0.33661 0.51999 0.16019 0.0
H228 H 0.28739 0.54196 0.27425 0.0
H229 H 0.24029 0.48003 0.27479 0.0
H230 H 0.32279 0.598 0.19904 0.0
H231 H 0.34343 0.52813 0.30769 0.0
H232 H 0.34597 0.47638 0.33311 0.0
H233 H 0.42231 0.49584 0.22787 0.0
H234 H 0.4197 0.54733 0.20119 0.0
H235 H 0.50231 0.73613 0.28262 0.0
H236 H 0.44005 0.69157 0.27723 0.0
H237 H 0.46007 0.64858 0.15449 0.0
H238 H 0.5222 0.69297 0.15958 0.0
H239 H 0.43496 0.60651 0.24358 0.0
H240 H 0.41556 0.67875 0.13685 0.0
H241 H 0.41071 0.72886 0.11028 0.0
H242 H 0.33105 0.70552 0.21192 0.0
H243 H 0.33571 0.6554 0.23955 0.0
C244 C 0.28835 0.4769 0.18435 0.0
C245 C 0.26133 0.46493 0.21718 0.0
C246 C 0.31512 0.51177 0.18436 0.0
C247 C 0.31552 0.53531 0.21743 0.0
C248 C 0.28736 0.52411 0.24835 0.0
C249 C 0.26048 0.4889 0.24852 0.0
C250 C 0.34761 0.56994 0.2228 0.0
C251 C 0.34733 0.60025 0.20967 0.0
C252 C 0.37945 0.57239 0.23617 0.0
C253 C 0.3811 0.5414 0.25215 0.0
C254 C 0.36048 0.52117 0.28964 0.0
C255 C 0.36198 0.49191 0.30433 0.0
C256 C 0.38422 0.48277 0.28205 0.0
C257 C 0.40505 0.50291 0.24505 0.0
C258 C 0.40358 0.53214 0.23014 0.0
C259 C 0.49305 0.71824 0.25325 0.0
C260 C 0.51679 0.71817 0.22109 0.0
C261 C 0.45745 0.69282 0.2502 0.0
C262 C 0.44529 0.66719 0.21505 0.0
C263 C 0.46881 0.66849 0.18143 0.0
C264 C 0.50425 0.69372 0.18447 0.0
C265 C 0.41064 0.63491 0.21873 0.0
C266 C 0.41047 0.60475 0.23377 0.0
C267 C 0.37859 0.63294 0.20726 0.0
C268 C 0.37665 0.66374 0.19119 0.0
C269 C 0.39751 0.68463 0.15427 0.0
C270 C 0.39452 0.71285 0.13865 0.0
C271 C 0.37074 0.7205 0.15958 0.0
C272 C 0.34951 0.69962 0.19576 0.0
C273 C 0.3522 0.6712 0.21125 0.0
H274 H 0.36869 0.74256 0.14769 0.0
H275 H 0.38538 0.46014 0.29351 0.0
H276 H 0.86126 0.54191 0.69041 0.0
H277 H 0.85062 0.48282 0.69212 0.0
H278 H 0.75281 0.4485 0.76306 0.0
H279 H 0.76672 0.50937 0.7683 0.0
H280 H 0.77632 0.41525 0.79703 0.0
H281 H 0.76192 0.42938 0.63721 0.0
H282 H 0.77492 0.45801 0.56045 0.0
H283 H 0.87046 0.45581 0.55371 0.0
H284 H 0.85828 0.42753 0.63061 0.0
H285 H 0.75252 0.24289 0.75791 0.0
H286 H 0.74407 0.2931 0.75227 0.0
H287 H 0.85424 0.36018 0.72529 0.0
H288 H 0.86257 0.31 0.73041 0.0
H289 H 0.8104 0.36868 0.66261 0.0
H290 H 0.81802 0.35539 0.83361 0.0
H291 H 0.79463 0.32046 0.90515 0.0
H292 H 0.69506 0.31189 0.88039 0.0
H293 H 0.71774 0.34634 0.80844 0.0
C294 C 0.83731 0.52177 0.70624 0.0
C295 C 0.81379 0.53001 0.72724 0.0
C296 C 0.83089 0.48766 0.70638 0.0
C297 C 0.79988 0.46042 0.72539 0.0
C298 C 0.77646 0.46867 0.74695 0.0
C299 C 0.78384 0.50333 0.74885 0.0
C300 C 0.79373 0.42414 0.72558 0.0
C301 C 0.78291 0.40484 0.7671 0.0
C302 C 0.80198 0.40993 0.68658 0.0
C303 C 0.80919 0.42641 0.63982 0.0
C304 C 0.78575 0.43509 0.61943 0.0
C305 C 0.79299 0.45126 0.57588 0.0
C306 C 0.82351 0.45875 0.55225 0.0
C307 C 0.84681 0.44996 0.57203 0.0
C308 C 0.8397 0.43376 0.61554 0.0
C309 C 0.77469 0.26816 0.75032 0.0
C310 C 0.80794 0.2723 0.74412 0.0
C311 C 0.76995 0.29693 0.74738 0.0
C312 C 0.79856 0.3303 0.73823 0.0
C313 C 0.83183 0.33455 0.73222 0.0
C314 C 0.83653 0.30587 0.73536 0.0
C315 C 0.79436 0.36112 0.73428 0.0
C316 C 0.8031 0.37912 0.69193 0.0
C317 C 0.78255 0.37318 0.77167 0.0
C318 C 0.76952 0.35329 0.8156 0.0
C319 C 0.79112 0.34596 0.84338 0.0
C320 C 0.77798 0.32623 0.88399 0.0
C321 C 0.74337 0.31392 0.89727 0.0
C322 C 0.72185 0.32142 0.87008 0.0
C323 C 0.73485 0.34108 0.82945 0.0
H324 H 0.73324 0.29861 0.92867 0.0
H325 H 0.82909 0.47134 0.51859 0.0
H326 H 0.51962 0.81851 0.32416 0.0
H327 H 0.45867 0.80398 0.32665 0.0
H328 H 0.44677 0.77442 0.18151 0.0
H329 H 0.50788 0.78862 0.17934 0.0
H330 H 0.43121 0.82372 0.19719 0.0
H331 H 0.40002 0.71456 0.27418 0.0
H332 H 0.39641 0.67246 0.33332 0.0
H333 H 0.37818 0.72954 0.43957 0.0
H334 H 0.37977 0.77074 0.38084 0.0
H335 H 0.26395 0.7996 0.18054 0.0
H336 H 0.31154 0.78688 0.18059 0.0
H337 H 0.32256 0.80347 0.32942 0.0
H338 H 0.27307 0.81344 0.32952 0.0
H339 H 0.33708 0.75731 0.3114 0.0
H340 H 0.37527 0.86827 0.25072 0.0
H341 H 0.37616 0.91435 0.20194 0.0
H342 H 0.39022 0.86678 0.07972 0.0
H343 H 0.38888 0.82002 0.12779 0.0
C344 C 0.50344 0.80755 0.29338 0.0
C345 C 0.51798 0.8043 0.25171 0.0
C346 C 0.46859 0.79909 0.29482 0.0
C347 C 0.44786 0.78758 0.25442 0.0
C348 C 0.46202 0.78258 0.21329 0.0
C349 C 0.49685 0.7907 0.21199 0.0
C350 C 0.41389 0.78648 0.25331 0.0
C351 C 0.41009 0.80816 0.22116 0.0
C352 C 0.38751 0.76838 0.28696 0.0
C353 C 0.3898 0.74558 0.32287 0.0
C354 C 0.39517 0.71805 0.31007 0.0
C355 C 0.39341 0.69433 0.3435 0.0
C356 C 0.38737 0.6985 0.39012 0.0
C357 C 0.3829 0.72633 0.40343 0.0
C358 C 0.38395 0.7497 0.37002 0.0
C359 C 0.27546 0.79874 0.21345 0.0
C360 C 0.26406 0.80599 0.25524 0.0
C361 C 0.30317 0.79231 0.21339 0.0
C362 C 0.32117 0.79488 0.25488 0.0
C363 C 0.30911 0.80122 0.29694 0.0
C364 C 0.28085 0.80687 0.29706 0.0
C365 C 0.35367 0.79296 0.25404 0.0
C366 C 0.3576 0.77157 0.28632 0.0
C367 C 0.38095 0.81255 0.22209 0.0
C368 C 0.38149 0.84036 0.19278 0.0
C369 C 0.3782 0.86742 0.21338 0.0
C370 C 0.37885 0.8937 0.18588 0.0
C371 C 0.38312 0.89342 0.13774 0.0
C372 C 0.38682 0.86689 0.11702 0.0
C373 C 0.38613 0.84049 0.14437 0.0
H374 H 0.38365 0.91382 0.1165 0.0
H375 H 0.38606 0.68013 0.4159 0.0
H376 H 0.68199 0.51124 0.7984 0.0
H377 H 0.64242 0.4482 0.79352 0.0
H378 H 0.69541 0.44372 0.67009 0.0
H379 H 0.73489 0.50773 0.67446 0.0
H380 H 0.62676 0.40952 0.65637 0.0
H381 H 0.69678 0.39738 0.77383 0.0
H382 H 0.73215 0.41375 0.84605 0.0
H383 H 0.64342 0.39778 0.92543 0.0
H384 H 0.60772 0.38185 0.85377 0.0
H385 H 0.4717 0.24223 0.66621 0.0
H386 H 0.53587 0.28056 0.66535 0.0
H387 H 0.53026 0.33044 0.79188 0.0
H388 H 0.46729 0.29143 0.79376 0.0
H389 H 0.58839 0.33051 0.79288 0.0
H390 H 0.52572 0.35964 0.67353 0.0
H391 H 0.48923 0.34455 0.60261 0.0
H392 H 0.5634 0.32793 0.52782 0.0
H393 H 0.60015 0.34268 0.59848 0.0
C394 C 0.6857 0.49673 0.77078 0.0
C395 C 0.71186 0.51427 0.73729 0.0
C396 C 0.66324 0.46054 0.7682 0.0
C397 C 0.66627 0.4408 0.73205 0.0
C398 C 0.69276 0.45821 0.69867 0.0
C399 C 0.71537 0.4947 0.70125 0.0
C400 C 0.63902 0.40299 0.72694 0.0
C401 C 0.61904 0.39186 0.68579 0.0
C402 C 0.62863 0.37968 0.7651 0.0
C403 C 0.64978 0.3888 0.8084 0.0
C404 C 0.685 0.39774 0.80667 0.0
C405 C 0.70504 0.40681 0.84747 0.0
C406 C 0.69008 0.40688 0.8902 0.0
C407 C 0.65498 0.39773 0.8923 0.0
C408 C 0.63482 0.38859 0.85163 0.0
C409 C 0.48456 0.26056 0.69457 0.0
C410 C 0.46475 0.26395 0.73012 0.0
C411 C 0.52111 0.28273 0.69385 0.0
C412 C 0.53801 0.30908 0.728 0.0
C413 C 0.51815 0.31051 0.76506 0.0
C414 C 0.48204 0.28828 0.76603 0.0
C415 C 0.57505 0.3381 0.72351 0.0
C416 C 0.59694 0.3476 0.76282 0.0
C417 C 0.58706 0.35996 0.68378 0.0
C418 C 0.56545 0.35195 0.64121 0.0
C419 C 0.53417 0.35274 0.64192 0.0
C420 C 0.51345 0.34422 0.60183 0.0
C421 C 0.52395 0.33521 0.56077 0.0
C422 C 0.55528 0.33486 0.55966 0.0
C423 C 0.57606 0.34331 0.59969 0.0
H424 H 0.50785 0.32856 0.52979 0.0
H425 H 0.70567 0.41396 0.92171 0.0
H426 H 0.34505 0.25419 0.89343 0.0
H427 H 0.30652 0.25332 0.95478 0.0
H428 H 0.21987 0.16078 0.89363 0.0
H429 H 0.25868 0.16138 0.83208 0.0
H430 H 0.2107 0.22135 0.90807 0.0
H431 H 0.24449 0.14996 -0.00565 0.0
H432 H 0.28785 0.13564 0.02437 0.0
H433 H 0.33923 0.23271 0.10045 0.0
H434 H 0.29658 0.2479 0.07034 0.0
H435 H 0.13515 0.26144 0.11776 0.0
H436 H 0.14241 0.22641 0.05596 0.0
H437 H 0.25442 0.29424 0.06464 0.0
H438 H 0.24747 0.32864 0.12469 0.0
H439 H 0.23067 0.22256 0.07802 0.0
H440 H 0.2119 0.30185 0.98546 0.0
H441 H 0.18016 0.32758 0.94876 0.0
H442 H 0.11561 0.23185 0.87428 0.0
H443 H 0.14454 0.20406 0.91416 0.0
C444 C 0.31802 0.23311 0.89385 0.0
C445 C 0.30483 0.20765 0.8585 0.0
C446 C 0.29605 0.23262 0.92881 0.0
C447 C 0.26043 0.20689 0.92872 0.0
C448 C 0.24735 0.18068 0.89434 0.0
C449 C 0.26954 0.18087 0.85959 0.0
C450 C 0.23691 0.20997 0.96229 0.0
C451 C 0.21395 0.2205 0.94541 0.0
C452 C 0.24218 0.20967 0.0107 0.0
C453 C 0.26721 0.20001 0.03011 0.0
C454 C 0.26505 0.16828 0.01743 0.0
C455 C 0.28954 0.16002 0.03444 0.0
C456 C 0.31625 0.18323 0.06434 0.0
C457 C 0.31848 0.21471 0.07739 0.0
C458 C 0.29409 0.22311 0.06044 0.0
C459 C 0.16112 0.26902 0.10557 0.0
C460 C 0.1908 0.2973 0.12637 0.0
C461 C 0.16525 0.24899 0.07067 0.0
C462 C 0.19902 0.25743 0.05661 0.0
C463 C 0.2282 0.28689 0.07565 0.0
C464 C 0.22416 0.30656 0.10994 0.0
C465 C 0.2057 0.2357 0.02384 0.0
C466 C 0.2257 0.22165 0.04088 0.0
C467 C 0.19896 0.23441 0.97546 0.0
C468 C 0.17963 0.25033 0.95442 0.0
C469 C 0.18987 0.28558 0.96306 0.0
C470 C 0.17231 0.30057 0.9416 0.0
C471 C 0.14525 0.28102 0.91008 0.0
C472 C 0.13573 0.24647 0.89993 0.0
C473 C 0.15247 0.23098 0.92232 0.0
H474 H 0.13202 0.29282 0.89295 0.0
H475 H 0.33522 0.17683 0.07738 0.0
H476 H 0.93012 0.19043 0.68276 0.0
H477 H 0.96772 0.19532 0.61776 0.0
H478 H 0.89377 0.19682 0.52158 0.0
H479 H 0.85583 0.19187 0.58714 0.0
H480 H 0.93423 0.16407 0.48641 0.0
H481 H 0.95025 0.27045 0.56083 0.0
H482 H 0.95915 0.30791 0.62927 0.0
H483 H 0.054 0.30882 0.66273 0.0
H484 H 0.04529 0.27083 0.59484 0.0
H485 H 0.02521 0.2715 0.303 0.0
H486 H -0.00978 0.23957 0.3693 0.0
H487 H 0.08372 0.27628 0.45228 0.0
H488 H 0.11905 0.31108 0.38602 0.0
H489 H 0.03847 0.2834 0.49941 0.0
H490 H 0.02775 0.18158 0.42635 0.0
H491 H 0.0214 0.14364 0.3595 0.0
H492 H 0.92255 0.13378 0.32508 0.0
H493 H 0.92829 0.17154 0.392 0.0
C494 C 0.92114 0.19018 0.64757 0.0
C495 C 0.8902 0.19081 0.63977 0.0
C496 C 0.94269 0.19311 0.61052 0.0
C497 C 0.93381 0.19705 0.56502 0.0
C498 C 0.90105 0.19382 0.55654 0.0
C499 C 0.87932 0.19084 0.59387 0.0
C500 C 0.9611 0.21065 0.52842 0.0
C501 C 0.95706 0.19004 0.48917 0.0
C502 C -0.00858 0.24426 0.53274 0.0
C503 C -0.00308 0.2675 0.57311 0.0
C504 C 0.97285 0.27841 0.583 0.0
C505 C 0.97787 0.29976 0.62165 0.0
C506 C 0.00707 0.31066 0.65041 0.0
C507 C 0.03136 0.3003 0.64047 0.0
C508 C 0.0264 0.27887 0.60192 0.0
C509 C 0.03854 0.27256 0.33514 0.0
C510 C 0.07509 0.2935 0.33898 0.0
C511 C 0.01841 0.2537 0.37302 0.0
C512 C 0.0342 0.25442 0.41569 0.0
C513 C 0.07088 0.27472 0.41954 0.0
C514 C 0.09117 0.29423 0.38148 0.0
C515 C 0.01164 0.23693 0.45678 0.0
C516 C 0.01634 0.2569 0.49702 0.0
C517 C 0.98242 0.20249 0.45383 0.0
C518 C 0.9783 0.17908 0.41433 0.0
C519 C 0.0046 0.17117 0.40463 0.0
C520 C 0.00111 0.14972 0.36674 0.0
C521 C 0.97153 0.13622 0.33812 0.0
C522 C 0.94539 0.14416 0.34736 0.0
C523 C 0.94865 0.16541 0.38542 0.0
H524 H 0.9689 0.11968 0.30874 0.0
H525 H 0.01093 0.3272 0.68031 0.0
H526 H 0.76891 0.10746 0.89812 0.0
H527 H 0.77102 0.06997 0.9587 0.0
H528 H 0.79164 0.01231 0.85415 0.0
H529 H 0.78621 0.04793 0.79353 0.0
H530 H 0.74747 0.968 0.90228 0.0
H531 H 0.85276 0.06559 0.9475 0.0
H532 H 0.89668 0.12685 0.96635 0.0
H533 H 0.83608 0.12431 0.08423 0.0
H534 H 0.7914 0.06331 0.06568 0.0
H535 H 0.71717 0.87153 0.12734 0.0
H536 H 0.75777 0.9094 0.06616 0.0
H537 H 0.70031 0.96361 0.05546 0.0
H538 H 0.65869 0.92479 0.11242 0.0
H539 H 0.7865 0.00549 0.06491 0.0
H540 H 0.6745 0.91501 0.97794 0.0
H541 H 0.6351 0.85202 0.96179 0.0
H542 H 0.72328 0.84182 0.92451 0.0
H543 H 0.76316 0.90472 0.94115 0.0
C544 C 0.77423 0.08695 0.88843 0.0
C545 C 0.7769 0.08005 0.8415 0.0
C546 C 0.77599 0.06577 0.92307 0.0
C547 C 0.78199 0.03829 0.91145 0.0
C548 C 0.78673 0.03299 0.86435 0.0
C549 C 0.78367 0.05332 0.8297 0.0
C550 C 0.77859 0.01251 0.9475 0.0
C551 C 0.75735 0.97656 0.9373 0.0
C552 C 0.7918 0.02284 -0.00653 0.0
C553 C 0.81862 0.05968 0.00511 0.0
C554 C 0.84865 0.0781 0.97732 0.0
C555 C 0.87372 0.11281 -0.01202 0.0
C556 C 0.86923 0.1294 0.02655 0.0
C557 C 0.83959 0.11136 0.05446 0.0
C558 C 0.8144 0.07667 0.04393 0.0
C559 C 0.71261 0.8907 0.11066 0.0
C560 C 0.68404 0.89433 0.12384 0.0
C561 C 0.73629 0.91287 0.07673 0.0
C562 C 0.73224 0.93962 0.05712 0.0
C563 C 0.70413 0.94344 0.07074 0.0
C564 C 0.68014 0.92089 0.10309 0.0
C565 C 0.75459 0.96233 0.01919 0.0
C566 C 0.77885 -0.00243 0.02903 0.0
C567 C 0.74563 0.95149 0.97263 0.0
C568 C 0.72165 0.91431 0.96076 0.0
C569 C 0.68538 0.89926 0.96624 0.0
C570 C 0.66302 0.86362 0.95712 0.0
C571 C 0.67668 0.84294 0.94209 0.0
C572 C 0.71274 0.85789 0.93607 0.0
C573 C 0.73523 0.89349 0.9454 0.0
H574 H 0.65934 0.81532 0.93516 0.0
H575 H 0.88869 0.15625 0.03479 0.0
H576 H 0.72024 0.83888 0.34697 0.0
H577 H 0.75876 0.83681 0.40714 0.0
H578 H 0.67028 0.7456 0.4665 0.0
H579 H 0.63227 0.74753 0.40682 0.0
H580 H 0.7155 0.78563 0.5338 0.0
H581 H 0.71968 0.73927 0.37942 0.0
H582 H 0.7331 0.74559 0.29544 0.0
H583 H 0.84016 0.82231 0.32537 0.0
H584 H 0.82719 0.81681 0.40955 0.0
H585 H 0.72676 0.64133 0.5834 0.0
H586 H 0.72494 0.68345 0.53082 0.0
H587 H 0.82724 0.76312 0.57782 0.0
H588 H 0.82894 0.7209 0.63169 0.0
H589 H 0.79573 0.7508 0.46398 0.0
H590 H 0.79007 0.78521 0.62409 0.0
H591 H 0.7719 0.77084 0.70603 0.0
H592 H 0.66428 0.71169 0.66333 0.0
H593 H 0.68188 0.72517 0.58106 0.0
C594 C 0.70897 0.81926 0.374 0.0
C595 C 0.67339 0.79319 0.37224 0.0
C596 C 0.73099 0.81794 0.40811 0.0
C597 C 0.7175 0.79069 0.44092 0.0
C598 C 0.68136 0.76683 0.44161 0.0
C599 C 0.6596 0.7679 0.40744 0.0
C600 C 0.74051 0.78338 0.47071 0.0
C601 C 0.73374 0.7789 0.51871 0.0
C602 C 0.76463 0.77482 0.45121 0.0
C603 C 0.77237 0.77801 0.40067 0.0
C604 C 0.74601 0.75769 0.36805 0.0
C605 C 0.75353 0.7611 0.32043 0.0
C606 C 0.78743 0.78444 0.30507 0.0
C607 C 0.81389 0.80434 0.33731 0.0
C608 C 0.80646 0.80111 0.38496 0.0
C609 C 0.74938 0.6675 0.58158 0.0
C610 C 0.77803 0.67782 0.61163 0.0
C611 C 0.7483 0.69153 0.5515 0.0
C612 C 0.7758 0.72638 0.55077 0.0
C613 C 0.80582 0.73625 0.57782 0.0
C614 C 0.8069 0.71204 0.60824 0.0
C615 C 0.77 0.75247 0.52655 0.0
C616 C 0.77934 0.75973 0.47956 0.0
C617 C 0.7481 0.76347 0.54683 0.0
C618 C 0.73733 0.75606 0.59638 0.0
C619 C 0.76255 0.76895 0.63215 0.0
C620 C 0.75236 0.76098 0.67866 0.0
C621 C 0.71696 0.74032 0.68988 0.0
C622 C 0.69169 0.72768 0.6546 0.0
C623 C 0.70176 0.73552 0.60803 0.0
H624 H 0.70912 0.73415 0.72589 0.0
H625 H 0.79322 0.78702 0.2682 0.0
H626 H 0.88369 0.64248 0.89199 0.0
H627 H 0.92375 0.67951 0.95267 0.0
H628 H 0.91051 0.7651 0.9084 0.0
H629 H 0.87022 0.72756 0.84656 0.0
H630 H 0.97805 0.78325 0.9079 0.0
H631 H 0.88721 0.73036 0.02098 0.0
H632 H 0.83699 0.6816 0.06076 0.0
H633 H 0.90078 0.63829 0.09946 0.0
H634 H 0.95125 0.68648 0.05939 0.0
H635 H 0.08631 0.84429 0.13819 0.0
H636 H 0.04352 0.83746 0.07848 0.0
H637 H 0.0606 0.76192 0.00666 0.0
H638 H 0.1032 0.7688 0.06586 0.0
H639 H 0.98787 0.75252 0.07077 0.0
H640 H 0.06868 0.79254 0.93344 0.0
H641 H 0.11708 0.83724 0.88626 0.0
H642 H 0.07076 0.90198 0.8907 0.0
H643 H 0.02244 0.85786 0.93875 0.0
C644 C 0.88804 0.66869 0.8966 0.0
C645 C 0.87376 0.68215 0.86496 0.0
C646 C 0.91103 0.68995 0.93135 0.0
C647 C 0.92019 0.72518 0.93539 0.0
C648 C 0.90375 0.73797 0.90606 0.0
C649 C 0.88042 0.71645 0.87116 0.0
C650 C 0.95053 0.74909 0.96532 0.0
C651 C 0.97983 0.77708 0.94396 0.0
C652 C 0.95322 0.74083 0.01215 0.0
C653 C 0.92304 0.71209 0.03709 0.0
C654 C 0.89051 0.71039 0.03783 0.0
C655 C 0.86199 0.68283 0.06044 0.0
C656 C 0.86569 0.65686 0.08262 0.0
C657 C 0.89796 0.65845 0.08234 0.0
C658 C 0.92656 0.68594 0.05978 0.0
C659 C 0.08253 0.82798 0.10801 0.0
C660 C 0.09834 0.80742 0.10612 0.0
C661 C 0.05796 0.82396 0.07403 0.0
C662 C 0.04928 0.79962 0.03761 0.0
C663 C 0.06765 0.78166 0.03348 0.0
C664 C 0.09202 0.78558 0.0674 0.0
C665 C 0.01544 0.78558 0.01271 0.0
C666 C 0.98557 0.75938 0.03523 0.0
C667 C 0.01238 0.79505 0.96681 0.0
C668 C 0.04257 0.82241 0.9408 0.0
C669 C 0.06926 0.81664 0.92529 0.0
C670 C 0.0965 0.84174 0.89802 0.0
C671 C 0.09706 0.87248 0.88559 0.0
C672 C 0.07034 0.87818 0.90038 0.0
C673 C 0.04311 0.85322 0.92778 0.0
H674 H 0.11818 0.89189 0.86453 0.0
H675 H 0.84356 0.63552 0.10002 0.0
H676 H 0.31601 0.06555 0.65069 0.0
H677 H 0.28347 0.01998 0.5932 0.0
H678 H 0.23414 0.07631 0.54371 0.0
H679 H 0.26637 0.12216 0.60265 0.0
H680 H 0.18729 0.00209 0.5495 0.0
H681 H 0.29862 0.08293 0.4833 0.0
H682 H 0.3629 0.11987 0.48155 0.0
H683 H 0.3724 0.02874 0.49796 0.0
H684 H 0.30814 0.9913 0.50052 0.0
H685 H 0.18429 0.93927 0.30497 0.0
H686 H 0.19232 0.97514 0.37407 0.0
H687 H 0.19036 0.89503 0.46091 0.0
H688 H 0.18048 0.8582 0.39185 0.0
H689 H 0.25893 0.97998 0.43712 0.0
H690 H 0.14593 0.89955 0.50759 0.0
H691 H 0.08162 0.86351 0.50378 0.0
H692 H 0.07539 0.95514 0.47421 0.0
H693 H 0.13982 0.99159 0.47672 0.0
C694 C 0.29819 0.06837 0.62788 0.0
C695 C 0.29417 0.09781 0.63087 0.0
C696 C 0.27954 0.04218 0.59497 0.0
C697 C 0.25658 0.04485 0.56396 0.0
C698 C 0.25176 0.07377 0.56736 0.0
C699 C 0.27051 0.10014 0.60056 0.0
C700 C 0.2396 0.0183 0.52646 0.0
C701 C 0.20293 -0.00257 0.5247 0.0
C702 C 0.25996 0.01197 0.49434 0.0
C703 C 0.2986 0.03438 0.49256 0.0
C704 C 0.31443 0.07081 0.48692 0.0
C705 C 0.35086 0.09183 0.48572 0.0
C706 C 0.37173 0.07668 0.48977 0.0
C707 C 0.35621 0.04045 0.4949 0.0
C708 C 0.31979 0.01932 0.49619 0.0
C709 C 0.18389 0.92867 0.33906 0.0
C710 C 0.18177 0.89611 0.34338 0.0
C711 C 0.18844 0.94912 0.37841 0.0
C712 C 0.1916 0.93757 0.4225 0.0
C713 C 0.18717 0.90401 0.42725 0.0
C714 C 0.18158 0.88305 0.38787 0.0
C715 C 0.20685 0.96337 0.46082 0.0
C716 C 0.24334 0.98444 0.46227 0.0
C717 C 0.18631 0.96982 0.49225 0.0
C718 C 0.14767 0.94817 0.49159 0.0
C719 C 0.13087 0.91192 0.49962 0.0
C720 C 0.0944 0.89143 0.49785 0.0
C721 C 0.07443 0.907 0.48858 0.0
C722 C 0.0909 0.9431 0.48126 0.0
C723 C 0.12739 0.96369 0.48284 0.0
H724 H 0.04619 0.89109 0.48722 0.0
H725 H 0.39993 0.093 0.48883 0.0
H726 H 0.7082 0.7635 0.17128 0.0
H727 H 0.73731 0.75563 0.10545 0.0
H728 H 0.70266 0.81115 0.01772 0.0
H729 H 0.67043 0.81659 0.08398 0.0
H730 H 0.69331 0.75615 0.97393 0.0
H731 H 0.79245 0.84641 0.0513 0.0
H732 H 0.8296 0.8775 0.11912 0.0
H733 H 0.8462 0.79153 0.14421 0.0
H734 H 0.80877 0.75966 0.07692 0.0
H735 H 0.78072 0.7263 0.79494 0.0
H736 H 0.77556 0.76276 0.8548 0.0
H737 H 0.77896 0.6962 0.96141 0.0
H738 H 0.78525 0.66009 0.90106 0.0
H739 H 0.81092 0.76906 -0.01174 0.0
H740 H 0.70074 0.67598 0.92156 0.0
H741 H 0.66397 0.64494 0.85329 0.0
H742 H 0.67115 0.7403 0.80644 0.0
H743 H 0.7081 0.77191 0.87443 0.0
C744 C 0.70701 0.77452 0.13817 0.0
C745 C 0.68735 0.79113 0.13307 0.0
C746 C 0.72415 0.77034 0.10046 0.0
C747 C 0.72321 0.78365 0.05661 0.0
C748 C 0.70421 0.80105 0.05133 0.0
C749 C 0.68619 0.80458 0.08928 0.0
C750 C 0.73986 0.77644 0.01631 0.0
C751 C 0.7194 0.75993 0.97668 0.0
C752 C 0.77385 0.78091 0.01971 0.0
C753 C 0.79775 0.80062 0.05898 0.0
C754 C 0.80403 0.83412 0.07126 0.0
C755 C 0.8251 0.85186 0.10967 0.0
C756 C 0.84025 0.83649 0.13596 0.0
C757 C 0.8345 0.80342 0.12375 0.0
C758 C 0.81344 0.78555 0.08537 0.0
C759 C 0.78159 0.72022 0.83127 0.0
C760 C 0.78321 0.69047 0.84368 0.0
C761 C 0.77854 0.74097 0.86537 0.0
C762 C 0.77618 0.7318 0.91246 0.0
C763 C 0.78071 0.7037 0.92522 0.0
C764 C 0.78428 0.68311 0.89089 0.0
C765 C 0.76398 0.74819 0.94709 0.0
C766 C 0.78523 0.76624 0.98538 0.0
C767 C 0.73094 0.74558 0.9423 0.0
C768 C 0.70721 0.72628 0.90289 0.0
C769 C 0.69437 0.69027 0.89673 0.0
C770 C 0.67356 0.6726 0.85809 0.0
C771 C 0.66526 0.69065 0.82553 0.0
C772 C 0.67756 0.72635 0.83173 0.0
C773 C 0.69835 0.74414 0.87037 0.0
H774 H 0.64929 0.67698 0.7955 0.0
H775 H 0.85644 0.85022 0.1658 0.0
H776 H 0.86898 0.64664 0.576 0.0
H777 H 0.9111 0.67945 0.5146 0.0
H778 H 0.93795 0.77634 0.58446 0.0
H779 H 0.89651 0.74329 0.64667 0.0
H780 H 0.92958 0.73148 0.45196 0.0
H781 H 0.01383 0.81966 0.5975 0.0
H782 H 0.02165 0.81763 0.68248 0.0
H783 H -0.0059 0.70991 0.67121 0.0
H784 H 0.98569 0.71129 0.58636 0.0
H785 H 0.08187 0.83481 0.32637 0.0
H786 H 0.04211 0.82804 0.39014 0.0
H787 H 0.06467 0.75461 0.45689 0.0
H788 H 0.10379 0.7609 0.39279 0.0
H789 H 0.0489 0.79407 0.52115 0.0
H790 H 0.0042 0.71996 0.38683 0.0
H791 H -0.00421 0.70738 0.30262 0.0
H792 H 0.94341 0.76619 0.29137 0.0
H793 H 0.95216 0.7797 0.37556 0.0
C794 C 0.88264 0.67501 0.5769 0.0
C795 C 0.87929 0.69262 0.6154 0.0
C796 C 0.90688 0.69374 0.54203 0.0
C797 C 0.92813 0.73029 0.54546 0.0
C798 C 0.92216 0.7481 0.58155 0.0
C799 C 0.89816 0.72932 0.61665 0.0
C800 C 0.95952 0.7488 0.51558 0.0
C801 C 0.95561 0.74593 0.46702 0.0
C802 C -0.00643 0.7662 0.53521 0.0
C803 C -0.00082 0.76561 0.58589 0.0
C804 C 0.00961 0.79564 0.61326 0.0
C805 C 0.01397 0.79454 0.66136 0.0
C806 C 0.00839 0.76366 0.68222 0.0
C807 C -0.00166 0.73378 0.65505 0.0
C808 C -0.00635 0.73467 0.60703 0.0
C809 C 0.07951 0.81855 0.35583 0.0
C810 C 0.0957 0.7984 0.35514 0.0
C811 C 0.05677 0.81459 0.39205 0.0
C812 C 0.05022 0.79052 0.42783 0.0
C813 C 0.06952 0.77341 0.42969 0.0
C814 C 0.09183 0.777 0.39317 0.0
C815 C 0.01891 0.77794 0.45752 0.0
C816 C 0.02287 0.78121 0.50601 0.0
C817 C 0.98489 0.75948 0.43782 0.0
C818 C 0.97928 0.75128 0.38731 0.0
C819 C -0.00879 0.73053 0.36631 0.0
C820 C 0.98634 0.72317 0.31862 0.0
C821 C 0.96918 0.73609 0.29162 0.0
C822 C 0.95679 0.75631 0.31232 0.0
C823 C 0.96172 0.76384 0.36003 0.0
H824 H 0.96539 0.73034 0.2547 0.0
H825 H 0.01186 0.76289 0.71942 0.0
H826 H 0.17684 0.91172 0.13753 0.0
H827 H 0.1926 0.95567 0.07665 0.0
H828 H 0.2514 0.91583 0.00618 0.0
H829 H 0.23787 0.87384 0.0693 0.0
H830 H 0.28894 0.98304 0.01266 0.0
H831 H 0.16829 0.90256 0.9733 0.0
H832 H 0.1069 0.86887 -0.00198 0.0
H833 H 0.10527 0.96405 0.01823 0.0
H834 H 0.16769 -0.0014 -0.00262 0.0
H835 H 0.3154 0.06119 0.79364 0.0
H836 H 0.29069 0.01785 0.85543 0.0
H837 H 0.25949 0.08237 0.92953 0.0
H838 H 0.28485 0.12645 0.86782 0.0
H839 H 0.20674 0.00634 0.92414 0.0
H840 H 0.32476 0.08592 0.97084 0.0
H841 H 0.38854 0.12218 0.96009 0.0
H842 H 0.39377 0.03017 0.92826 0.0
H843 H 0.32985 0.99337 0.93819 0.0
C844 C 0.19223 0.9118 0.1082 0.0
C845 C 0.20569 0.88924 0.10723 0.0
C846 C 0.2014 0.93699 0.07358 0.0
C847 C 0.22295 0.9389 0.03649 0.0
C848 C 0.23481 0.91493 0.03445 0.0
C849 C 0.22667 0.89062 0.06996 0.0
C850 C 0.23476 0.96691 0.00103 0.0
C851 C 0.27082 0.98767 -0.00712 0.0
C852 C 0.21126 0.97399 0.9765 0.0
C853 C 0.17289 0.95323 0.98429 0.0
C854 C 0.15497 0.91639 0.98326 0.0
C855 C 0.12004 0.89712 -0.00294 0.0
C856 C 0.10211 0.91425 0.00957 0.0
C857 C 0.1192 0.95079 0.00858 0.0
C858 C 0.1545 0.97027 -0.00376 0.0
C859 C 0.30326 0.06625 0.82292 0.0
C860 C 0.30213 0.09732 0.82587 0.0
C861 C 0.28905 0.04138 0.85813 0.0
C862 C 0.27327 0.04697 0.89684 0.0
C863 C 0.27137 0.07756 0.89964 0.0
C864 C 0.28597 0.10273 0.86451 0.0
C865 C 0.26061 0.02143 0.93526 0.0
C866 C 0.22459 0.00137 0.94398 0.0
C867 C 0.28404 0.015 0.96067 0.0
C868 C 0.32249 0.03694 0.95481 0.0
C869 C 0.33946 0.07345 0.96113 0.0
C870 C 0.37564 0.09409 0.95528 0.0
C871 C 0.39518 0.0785 0.94342 0.0
C872 C 0.37858 0.04221 0.93743 0.0
C873 C 0.34238 0.02144 0.94321 0.0
H874 H 0.4232 0.09454 0.93904 0.0
H875 H 0.07495 0.8992 0.0199 0.0
H876 H 0.30331 0.18368 0.57356 0.0
H877 H 0.26471 0.1859 0.51354 0.0
H878 H 0.2336 0.2399 0.61007 0.0
H879 H 0.27178 0.23783 0.66931 0.0
H880 H 0.17859 0.19512 0.55099 0.0
H881 H 0.30296 0.28683 0.54566 0.0
H882 H 0.36579 0.30718 0.53776 0.0
H883 H 0.34627 0.25543 0.40505 0.0
H884 H 0.28318 0.23438 0.41257 0.0
H885 H 0.22127 0.35776 0.40411 0.0
H886 H 0.22867 0.32244 0.46297 0.0
H887 H 0.14884 0.22815 0.39593 0.0
H888 H 0.141 0.26375 0.337 0.0
H889 H 0.25234 0.27911 0.42898 0.0
H890 H 0.12123 0.16438 0.48278 0.0
H891 H 0.06 0.14997 0.49234 0.0
H892 H 0.0953 0.25632 0.53224 0.0
H893 H 0.15667 0.27133 0.52274 0.0
C894 C 0.28752 0.19521 0.58201 0.0
C895 C 0.29081 0.2111 0.62556 0.0
C896 C 0.26545 0.19634 0.54795 0.0
C897 C 0.24632 0.21308 0.55747 0.0
C898 C 0.24785 0.22662 0.6021 0.0
C899 C 0.27009 0.2259 0.63566 0.0
C900 C 0.22987 0.22255 0.51987 0.0
C901 C 0.19446 0.21288 0.52362 0.0
C902 C 0.25062 0.24602 0.48454 0.0
C903 C 0.28842 0.25863 0.47998 0.0
C904 C 0.31207 0.27957 0.515 0.0
C905 C 0.3477 0.29125 0.51057 0.0
C906 C 0.36 0.28248 0.471 0.0
C907 C 0.33669 0.26209 0.43574 0.0
C908 C 0.301 0.25026 0.44008 0.0
C909 C 0.20422 0.32956 0.4032 0.0
C910 C 0.18069 0.31333 0.36623 0.0
C911 C 0.20865 0.30942 0.4365 0.0
C912 C 0.1898 0.27277 0.4331 0.0
C913 C 0.16364 0.25643 0.39898 0.0
C914 C 0.15901 0.27673 0.36563 0.0
C915 C 0.20146 0.25263 0.46105 0.0
C916 C 0.23602 0.26031 0.45518 0.0
C917 C 0.18005 0.22788 0.49465 0.0
C918 C 0.14341 0.21895 0.50181 0.0
C919 C 0.11587 0.18461 0.49378 0.0
C920 C 0.08117 0.17638 0.49905 0.0
C921 C 0.07377 0.20224 0.51278 0.0
C922 C 0.10106 0.23636 0.52142 0.0
C923 C 0.13578 0.24476 0.51596 0.0
H924 H 0.0469 0.19585 0.51676 0.0
H925 H 0.3876 0.29158 0.46761 0.0
H926 H 0.83619 0.17336 0.90302 0.0
H927 H 0.88156 0.18619 0.96182 0.0
H928 H 0.96155 0.24267 0.85935 0.0
H929 H 0.91671 0.2306 0.80108 0.0
H930 H 0.96863 0.19108 0.91566 0.0
H931 H 0.94922 0.28991 0.92834 0.0
H932 H 0.91264 0.31642 0.94131 0.0
H933 H 0.88282 0.26768 0.07547 0.0
H934 H 0.91892 0.2405 0.06298 0.0
H935 H 0.11799 0.33388 0.04989 0.0
H936 H 0.07316 0.29783 -0.00829 0.0
H937 H 0.01377 0.2223 0.09779 0.0
H938 H 0.05932 0.25709 0.15497 0.0
H939 H -0.00836 0.27433 0.04531 0.0
H940 H 0.02017 0.18474 0.03896 0.0
H941 H 0.05369 0.1552 0.02622 0.0
H942 H 0.06052 0.17842 0.88044 0.0
H943 H 0.03004 0.21122 0.89296 0.0
C944 C 0.86349 0.18851 0.89324 0.0
C945 C 0.87305 0.20159 0.84787 0.0
C946 C 0.88926 0.19572 0.92669 0.0
C947 C 0.92476 0.21528 0.91471 0.0
C948 C 0.93424 0.22755 0.86912 0.0
C949 C 0.90861 0.221 0.83605 0.0
C950 C 0.95239 0.22375 0.94959 0.0
C951 C 0.97405 0.20949 0.94391 0.0
C952 C 0.95823 0.24671 -0.01287 0.0
C953 C 0.93639 0.26284 -0.00552 0.0
C954 C 0.93457 0.28455 0.96038 0.0
C955 C 0.91401 0.29978 0.9677 0.0
C956 C 0.89533 0.29365 0.00913 0.0
C957 C 0.89725 0.27234 0.04336 0.0
C958 C 0.91776 0.25704 0.0362 0.0
C959 C 0.09653 0.30842 0.05982 0.0
C960 C 0.09225 0.29773 0.10641 0.0
C961 C 0.07086 0.28798 0.02679 0.0
C962 C 0.04043 0.2572 0.04044 0.0
C963 C 0.03746 0.24542 0.08632 0.0
C964 C 0.06353 0.26525 0.11888 0.0
C965 C 0.00894 0.24256 0.01065 0.0
C966 C 0.98638 0.25574 0.01733 0.0
C967 C 0.00228 0.21839 0.97423 0.0
C968 C 0.0236 0.20152 0.96731 0.0
C969 C 0.03016 0.18508 0.00456 0.0
C970 C 0.04862 0.16763 -0.00269 0.0
C971 C 0.05975 0.16543 0.95265 0.0
C972 C 0.05252 0.18078 0.91519 0.0
C973 C 0.03503 0.19918 0.92246 0.0
H974 H 0.07365 0.15152 0.94698 0.0
H975 H 0.87944 0.30548 0.01474 0.0
H976 H 0.66401 0.85544 0.40745 0.0
H977 H 0.69861 0.89388 0.47284 0.0
H978 H 0.75408 0.97926 0.37661 0.0
H979 H 0.72051 0.94128 0.31242 0.0
H980 H 0.79705 0.98435 0.44162 0.0
H981 H 0.67767 0.96307 0.43273 0.0
H982 H 0.61331 0.92746 0.4371 0.0
H983 H 0.62064 0.89729 0.5767 0.0
H984 H 0.6851 0.93246 0.57287 0.0
H985 H 0.76584 0.12063 0.56162 0.0
H986 H 0.76 0.07536 0.50736 0.0
H987 H 0.82256 0.05176 0.59852 0.0
H988 H 0.8296 0.09815 0.65197 0.0
H989 H 0.72515 0.00681 0.55267 0.0
H990 H 0.85331 0.03043 0.54687 0.0
H991 H 0.91566 0.07172 0.52981 0.0
H992 H 0.88618 0.10453 0.40577 0.0
H993 H 0.82412 0.06411 0.4227 0.0
C994 C 0.68451 0.88208 0.4005 0.0
C995 C 0.68971 0.89563 0.35523 0.0
C996 C 0.704 0.90406 0.43771 0.0
C997 C 0.72868 0.93959 0.42966 0.0
C998 C 0.7354 0.95201 0.38383 0.0
C999 C 0.7161 0.93031 0.34712 0.0
C1000 C 0.74503 0.96551 0.46798 0.0
C1001 C 0.78135 0.98869 0.46671 0.0
C1002 C 0.7247 0.97164 0.50043 0.0
C1003 C 0.6861 0.94977 0.5022 0.0
C1004 C 0.66553 0.94849 0.46412 0.0
C1005 C 0.62906 0.92848 0.46656 0.0
C1006 C 0.6129 0.90998 0.50707 0.0
C1007 C 0.63319 0.9115 0.54527 0.0
C1008 C 0.66968 0.93141 0.54297 0.0
C1009 C 0.7802 0.10732 0.56849 0.0
C1010 C 0.79818 0.11275 0.61072 0.0
C1011 C 0.77654 0.0812 0.53782 0.0
C1012 C 0.79049 0.05995 0.54926 0.0
C1013 C 0.81193 0.0681 0.58877 0.0
C1014 C 0.81613 0.09477 0.61915 0.0
C1015 C 0.77679 0.02595 0.52498 0.0
C1016 C 0.74098 0.00141 0.52912 0.0
C1017 C 0.79729 0.01899 0.49442 0.0
C1018 C 0.83437 0.04476 0.48629 0.0
C1019 C 0.86033 0.04695 0.5164 0.0
C1020 C 0.89561 0.07011 0.50667 0.0
C1021 C 0.90503 0.09082 0.46671 0.0
C1022 C 0.87915 0.08873 0.43677 0.0
C1023 C 0.84392 0.06579 0.44647 0.0
H1024 H 0.93236 0.10835 0.4589 0.0
H1025 H 0.58466 0.89457 0.50893 0.0
loop_
_geom_bond_atom_site_label_1
_geom_bond_atom_site_label_2
_geom_bond_distance
_geom_bond_site_symmetry_2
_ccdc_geom_bond_type
Zn0 O6 1.920 . S
Zn0 O12 1.898 . S
Zn0 O15 1.905 . S
Zn1 O9 1.905 . S
Zn1 O10 1.898 . S
Zn1 O18 1.920 . S
Zn2 O5 2.080 . S
Zn2 O8 2.114 . S
Zn2 O11 2.120 . S
Zn2 O13 2.120 . S
Zn2 O14 2.114 . S
Zn2 O17 2.080 . S
C3 O8 1.166 . S
C3 O9 1.182 . S
C4 O10 1.167 . S
C4 O11 1.299 . S
O5 Zn2 2.080 . S
O5 C19 1.305 . S
O6 Zn0 1.920 . S
O6 C19 1.234 . S
C7 O12 1.167 . S
C7 O13 1.299 . S
O8 Zn2 2.114 . S
O8 C3 1.166 . S
O9 Zn1 1.905 . S
O9 C3 1.182 . S
O10 Zn1 1.898 . S
O10 C4 1.167 . S
O11 Zn2 2.120 . S
O11 C4 1.299 . S
O12 Zn0 1.898 . S
O12 C7 1.167 . S
O13 Zn2 2.120 . S
O13 C7 1.299 . S
O14 Zn2 2.114 . S
O14 C16 1.166 . S
O15 Zn0 1.905 . S
O15 C16 1.182 . S
C16 O14 1.166 . S
C16 O15 1.182 . S
O17 Zn2 2.080 . S
O17 C20 1.305 . S
O18 Zn1 1.920 . S
O18 C20 1.234 . S
C19 O5 1.305 . S
C19 O6 1.234 . S
C20 O17 1.305 . S
C20 O18 1.234 . S
Zn21 O27 1.920 . S
Zn21 O33 1.898 . S
Zn21 O36 1.905 . S
Zn22 O30 1.905 . S
Zn22 O31 1.898 . S
Zn22 O39 1.920 . S
Zn23 O26 2.080 . S
Zn23 O29 2.114 . S
Zn23 O32 2.120 . S
Zn23 O34 2.120 . S
Zn23 O35 2.114 . S
Zn23 O38 2.080 . S
C24 O29 1.166 . S
C24 O30 1.182 . S
C25 O31 1.167 . S
C25 O32 1.299 . S
O26 Zn23 2.080 . S
O26 C40 1.305 . S
O27 Zn21 1.920 . S
O27 C40 1.234 . S
C28 O33 1.167 . S
C28 O34 1.299 . S
O29 Zn23 2.114 . S
O29 C24 1.166 . S
O30 Zn22 1.905 . S
O30 C24 1.182 . S
O31 Zn22 1.898 . S
O31 C25 1.167 . S
O32 Zn23 2.120 . S
O32 C25 1.299 . S
O33 Zn21 1.898 . S
O33 C28 1.167 . S
O34 Zn23 2.120 . S
O34 C28 1.299 . S
O35 Zn23 2.114 . S
O35 C37 1.166 . S
O36 Zn21 1.905 . S
O36 C37 1.182 . S
C37 O35 1.166 . S
C37 O36 1.182 . S
O38 Zn23 2.080 . S
O38 C41 1.305 . S
O39 Zn22 1.920 . S
O39 C41 1.234 . S
C40 O26 1.305 . S
C40 O27 1.234 . S
C41 O38 1.305 . S
C41 O39 1.234 . S
Zn42 O48 1.920 . S
Zn42 O54 1.898 . S
Zn42 O57 1.905 . S
Zn43 O51 1.905 . S
Zn43 O52 1.898 . S
Zn43 O60 1.920 . S
Zn44 O47 2.080 . S
Zn44 O50 2.114 . S
Zn44 O53 2.120 . S
Zn44 O55 2.120 . S
Zn44 O56 2.114 . S
Zn44 O59 2.080 . S
C45 O50 1.166 . S
C45 O51 1.182 . S
C46 O52 1.167 . S
C46 O53 1.299 . S
O47 Zn44 2.080 . S
O47 C61 1.305 . S
O48 Zn42 1.920 . S
O48 C61 1.234 . S
C49 O54 1.167 . S
C49 O55 1.299 . S
O50 Zn44 2.114 . S
O50 C45 1.166 . S
O51 Zn43 1.905 . S
O51 C45 1.182 . S
O52 Zn43 1.898 . S
O52 C46 1.167 . S
O53 Zn44 2.120 . S
O53 C46 1.299 . S
O54 Zn42 1.898 . S
O54 C49 1.167 . S
O55 Zn44 2.120 . S
O55 C49 1.299 . S
O56 Zn44 2.114 . S
O56 C58 1.166 . S
O57 Zn42 1.905 . S
O57 C58 1.182 . S
C58 O56 1.166 . S
C58 O57 1.182 . S
O59 Zn44 2.080 . S
O59 C62 1.305 . S
O60 Zn43 1.920 . S
O60 C62 1.234 . S
C61 O47 1.305 . S
C61 O48 1.234 . S
C62 O59 1.305 . S
C62 O60 1.234 . S
Zn63 O69 1.920 . S
Zn63 O75 1.898 . S
Zn63 O78 1.905 . S
Zn64 O72 1.905 . S
Zn64 O73 1.898 . S
Zn64 O81 1.920 . S
Zn65 O68 2.080 . S
Zn65 O71 2.114 . S
Zn65 O74 2.120 . S
Zn65 O76 2.120 . S
Zn65 O77 2.114 . S
Zn65 O80 2.080 . S
C66 O71 1.166 . S
C66 O72 1.182 . S
C67 O73 1.167 . S
C67 O74 1.299 . S
O68 Zn65 2.080 . S
O68 C82 1.305 . S
O69 Zn63 1.920 . S
O69 C82 1.234 . S
C70 O75 1.167 . S
C70 O76 1.299 . S
O71 Zn65 2.114 . S
O71 C66 1.166 . S
O72 Zn64 1.905 . S
O72 C66 1.182 . S
O73 Zn64 1.898 . S
O73 C67 1.167 . S
O74 Zn65 2.120 . S
O74 C67 1.299 . S
O75 Zn63 1.898 . S
O75 C70 1.167 . S
O76 Zn65 2.120 . S
O76 C70 1.299 . S
O77 Zn65 2.114 . S
O77 C79 1.166 . S
O78 Zn63 1.905 . S
O78 C79 1.182 . S
C79 O77 1.166 . S
C79 O78 1.182 . S
O80 Zn65 2.080 . S
O80 C83 1.305 . S
O81 Zn64 1.920 . S
O81 C83 1.234 . S
C82 O68 1.305 . S
C82 O69 1.234 . S
C83 O80 1.305 . S
C83 O81 1.234 . S
Zn84 O90 1.920 . S
Zn84 O96 1.898 . S
Zn84 O99 1.905 . S
Zn85 O93 1.905 . S
Zn85 O94 1.898 . S
Zn85 O102 1.920 . S
Zn86 O89 2.080 . S
Zn86 O92 2.114 . S
Zn86 O95 2.120 . S
Zn86 O97 2.120 . S
Zn86 O98 2.114 . S
Zn86 O101 2.080 . S
C87 O92 1.166 . S
C87 O93 1.182 . S
C88 O94 1.167 . S
C88 O95 1.299 . S
O89 Zn86 2.080 . S
O89 C103 1.305 . S
O90 Zn84 1.920 . S
O90 C103 1.234 . S
C91 O96 1.167 . S
C91 O97 1.299 . S
O92 Zn86 2.114 . S
O92 C87 1.166 . S
O93 Zn85 1.905 . S
O93 C87 1.182 . S
O94 Zn85 1.898 . S
O94 C88 1.167 . S
O95 Zn86 2.120 . S
O95 C88 1.299 . S
O96 Zn84 1.898 . S
O96 C91 1.167 . S
O97 Zn86 2.120 . S
O97 C91 1.299 . S
O98 Zn86 2.114 . S
O98 C100 1.166 . S
O99 Zn84 1.905 . S
O99 C100 1.182 . S
C100 O98 1.166 . S
C100 O99 1.182 . S
O101 Zn86 2.080 . S
O101 C104 1.305 . S
O102 Zn85 1.920 . S
O102 C104 1.234 . S
C103 O89 1.305 . S
C103 O90 1.234 . S
C104 O101 1.305 . S
C104 O102 1.234 . S
Zn105 O111 1.920 . S
Zn105 O117 1.898 . S
Zn105 O120 1.905 . S
Zn106 O114 1.905 . S
Zn106 O115 1.898 . S
Zn106 O123 1.920 . S
Zn107 O110 2.080 . S
Zn107 O113 2.114 . S
Zn107 O116 2.120 . S
Zn107 O118 2.120 . S
Zn107 O119 2.114 . S
Zn107 O122 2.080 . S
C108 O113 1.166 . S
C108 O114 1.182 . S
C109 O115 1.167 . S
C109 O116 1.299 . S
O110 Zn107 2.080 . S
O110 C124 1.305 . S
O111 Zn105 1.920 . S
O111 C124 1.234 . S
C112 O117 1.167 . S
C112 O118 1.299 . S
O113 Zn107 2.114 . S
O113 C108 1.166 . S
O114 Zn106 1.905 . S
O114 C108 1.182 . S
O115 Zn106 1.898 . S
O115 C109 1.167 . S
O116 Zn107 2.120 . S
O116 C109 1.299 . S
O117 Zn105 1.898 . S
O117 C112 1.167 . S
O118 Zn107 2.120 . S
O118 C112 1.299 . S
O119 Zn107 2.114 . S
O119 C121 1.166 . S
O120 Zn105 1.905 . S
O120 C121 1.182 . S
C121 O119 1.166 . S
C121 O120 1.182 . S
O122 Zn107 2.080 . S
O122 C125 1.305 . S
O123 Zn106 1.920 . S
O123 C125 1.234 . S
C124 O110 1.305 . S
C124 O111 1.234 . S
C125 O122 1.305 . S
C125 O123 1.234 . S
H126 C144 0.951 . S
H127 C146 0.951 . S
H128 C148 0.950 . S
H129 C149 0.950 . S
H130 C151 0.950 . S
H131 C154 0.950 . S
H132 C155 0.950 . S
H133 C157 0.950 . S
H134 C158 0.950 . S
H135 C159 0.951 . S
H136 C161 0.951 . S
H137 C163 0.950 . S
H138 C164 0.950 . S
H139 C166 0.950 . S
H140 C169 0.950 . S
H141 C170 0.950 . S
H142 C172 0.950 . S
H143 C173 0.950 . S
C144 H126 0.951 . S
C144 C145 1.366 . S
C144 C146 1.388 . S
C145 C144 1.366 . S
C145 C149 1.385 . S
C146 H127 0.951 . S
C146 C144 1.388 . S
C146 C147 1.366 . S
C147 C146 1.366 . S
C147 C148 1.414 . S
C147 C150 1.499 . S
C148 H128 0.950 . S
C148 C147 1.414 . S
C148 C149 1.374 . S
C149 H129 0.950 . S
C149 C145 1.385 . S
C149 C148 1.374 . S
C150 C147 1.499 . S
C150 C151 1.373 . S
C150 C152 1.389 . S
C151 H130 0.950 . S
C151 C150 1.373 . S
C151 C167 1.377 . S
C152 C150 1.389 . S
C152 C153 1.524 . S
C152 C166 1.377 . S
C153 C152 1.524 . S
C153 C154 1.397 . S
C153 C158 1.363 . S
C154 H131 0.950 . S
C154 C153 1.397 . S
C154 C155 1.334 . S
C155 H132 0.950 . S
C155 C154 1.334 . S
C155 C156 1.287 . S
C156 C155 1.287 . S
C156 C157 1.524 . S
C156 H175 0.913 . S
C157 H133 0.950 . S
C157 C156 1.524 . S
C157 C158 1.415 . S
C158 H134 0.950 . S
C158 C153 1.363 . S
C158 C157 1.415 . S
C159 H135 0.951 . S
C159 C160 1.366 . S
C159 C161 1.388 . S
C160 C159 1.366 . S
C160 C164 1.385 . S
C161 H136 0.951 . S
C161 C159 1.388 . S
C161 C162 1.366 . S
C162 C161 1.366 . S
C162 C163 1.414 . S
C162 C165 1.499 . S
C163 H137 0.950 . S
C163 C162 1.414 . S
C163 C164 1.374 . S
C164 H138 0.950 . S
C164 C160 1.385 . S
C164 C163 1.374 . S
C165 C162 1.499 . S
C165 C166 1.373 . S
C165 C167 1.389 . S
C166 H139 0.950 . S
C166 C152 1.377 . S
C166 C165 1.373 . S
C167 C151 1.377 . S
C167 C165 1.389 . S
C167 C168 1.524 . S
C168 C167 1.524 . S
C168 C169 1.397 . S
C168 C173 1.363 . S
C169 H140 0.950 . S
C169 C168 1.397 . S
C169 C170 1.334 . S
C170 H141 0.950 . S
C170 C169 1.334 . S
C170 C171 1.287 . S
C171 C170 1.287 . S
C171 C172 1.524 . S
C171 H174 0.999 . S
C172 H142 0.950 . S
C172 C171 1.524 . S
C172 C173 1.415 . S
C173 H143 0.950 . S
C173 C168 1.363 . S
C173 C172 1.415 . S
H174 C171 0.999 . S
H175 C156 0.913 . S
H176 C194 0.951 . S
H177 C196 0.951 . S
H178 C198 0.950 . S
H179 C199 0.950 . S
H180 C201 0.950 . S
H181 C204 0.950 . S
H182 C205 0.950 . S
H183 C207 0.950 . S
H184 C208 0.950 . S
H185 C209 0.951 . S
H186 C211 0.951 . S
H187 C213 0.950 . S
H188 C214 0.950 . S
H189 C216 0.950 . S
H190 C219 0.950 . S
H191 C220 0.950 . S
H192 C222 0.950 . S
H193 C223 0.950 . S
C194 H176 0.951 . S
C194 C195 1.366 . S
C194 C196 1.388 . S
C195 C194 1.366 . S
C195 C199 1.385 . S
C196 H177 0.951 . S
C196 C194 1.388 . S
C196 C197 1.366 . S
C197 C196 1.366 . S
C197 C198 1.414 . S
C197 C200 1.499 . S
C198 H178 0.950 . S
C198 C197 1.414 . S
C198 C199 1.374 . S
C199 H179 0.950 . S
C199 C195 1.385 . S
C199 C198 1.374 . S
C200 C197 1.499 . S
C200 C201 1.373 . S
C200 C202 1.389 . S
C201 H180 0.950 . S
C201 C200 1.373 . S
C201 C217 1.377 . S
C202 C200 1.389 . S
C202 C203 1.524 . S
C202 C216 1.377 . S
C203 C202 1.524 . S
C203 C204 1.397 . S
C203 C208 1.363 . S
C204 H181 0.950 . S
C204 C203 1.397 . S
C204 C205 1.334 . S
C205 H182 0.950 . S
C205 C204 1.334 . S
C205 C206 1.287 . S
C206 C205 1.287 . S
C206 C207 1.524 . S
C206 H225 0.913 . S
C207 H183 0.950 . S
C207 C206 1.524 . S
C207 C208 1.415 . S
C208 H184 0.950 . S
C208 C203 1.363 . S
C208 C207 1.415 . S
C209 H185 0.951 . S
C209 C210 1.366 . S
C209 C211 1.388 . S
C210 C209 1.366 . S
C210 C214 1.385 . S
C211 H186 0.951 . S
C211 C209 1.388 . S
C211 C212 1.366 . S
C212 C211 1.366 . S
C212 C213 1.414 . S
C212 C215 1.499 . S
C213 H187 0.950 . S
C213 C212 1.414 . S
C213 C214 1.374 . S
C214 H188 0.950 . S
C214 C210 1.385 . S
C214 C213 1.374 . S
C215 C212 1.499 . S
C215 C216 1.373 . S
C215 C217 1.389 . S
C216 H189 0.950 . S
C216 C202 1.377 . S
C216 C215 1.373 . S
C217 C201 1.377 . S
C217 C215 1.389 . S
C217 C218 1.524 . S
C218 C217 1.524 . S
C218 C219 1.397 . S
C218 C223 1.363 . S
C219 H190 0.950 . S
C219 C218 1.397 . S
C219 C220 1.334 . S
C220 H191 0.950 . S
C220 C219 1.334 . S
C220 C221 1.287 . S
C221 C220 1.287 . S
C221 C222 1.524 . S
C221 H224 0.999 . S
C222 H192 0.950 . S
C222 C221 1.524 . S
C222 C223 1.415 . S
C223 H193 0.950 . S
C223 C218 1.363 . S
C223 C222 1.415 . S
H224 C221 0.999 . S
H225 C206 0.913 . S
H226 C244 0.951 . S
H227 C246 0.951 . S
H228 C248 0.950 . S
H229 C249 0.950 . S
H230 C251 0.950 . S
H231 C254 0.950 . S
H232 C255 0.950 . S
H233 C257 0.950 . S
H234 C258 0.950 . S
H235 C259 0.951 . S
H236 C261 0.951 . S
H237 C263 0.950 . S
H238 C264 0.950 . S
H239 C266 0.950 . S
H240 C269 0.950 . S
H241 C270 0.950 . S
H242 C272 0.950 . S
H243 C273 0.950 . S
C244 H226 0.951 . S
C244 C245 1.366 . S
C244 C246 1.388 . S
C245 C244 1.366 . S
C245 C249 1.385 . S
C246 H227 0.951 . S
C246 C244 1.388 . S
C246 C247 1.366 . S
C247 C246 1.366 . S
C247 C248 1.414 . S
C247 C250 1.499 . S
C248 H228 0.950 . S
C248 C247 1.414 . S
C248 C249 1.374 . S
C249 H229 0.950 . S
C249 C245 1.385 . S
C249 C248 1.374 . S
C250 C247 1.499 . S
C250 C251 1.373 . S
C250 C252 1.389 . S
C251 H230 0.950 . S
C251 C250 1.373 . S
C251 C267 1.377 . S
C252 C250 1.389 . S
C252 C253 1.524 . S
C252 C266 1.377 . S
C253 C252 1.524 . S
C253 C254 1.397 . S
C253 C258 1.363 . S
C254 H231 0.950 . S
C254 C253 1.397 . S
C254 C255 1.334 . S
C255 H232 0.950 . S
C255 C254 1.334 . S
C255 C256 1.287 . S
C256 C255 1.287 . S
C256 C257 1.524 . S
C256 H275 0.913 . S
C257 H233 0.950 . S
C257 C256 1.524 . S
C257 C258 1.415 . S
C258 H234 0.950 . S
C258 C253 1.363 . S
C258 C257 1.415 . S
C259 H235 0.951 . S
C259 C260 1.366 . S
C259 C261 1.388 . S
C260 C259 1.366 . S
C260 C264 1.385 . S
C261 H236 0.951 . S
C261 C259 1.388 . S
C261 C262 1.366 . S
C262 C261 1.366 . S
C262 C263 1.414 . S
C262 C265 1.499 . S
C263 H237 0.950 . S
C263 C262 1.414 . S
C263 C264 1.374 . S
C264 H238 0.950 . S
C264 C260 1.385 . S
C264 C263 1.374 . S
C265 C262 1.499 . S
C265 C266 1.373 . S
C265 C267 1.389 . S
C266 H239 0.950 . S
C266 C252 1.377 . S
C266 C265 1.373 . S
C267 C251 1.377 . S
C267 C265 1.389 . S
C267 C268 1.524 . S
C268 C267 1.524 . S
C268 C269 1.397 . S
C268 C273 1.363 . S
C269 H240 0.950 . S
C269 C268 1.397 . S
C269 C270 1.334 . S
C270 H241 0.950 . S
C270 C269 1.334 . S
C270 C271 1.287 . S
C271 C270 1.287 . S
C271 C272 1.524 . S
C271 H274 0.999 . S
C272 H242 0.950 . S
C272 C271 1.524 . S
C272 C273 1.415 . S
C273 H243 0.950 . S
C273 C268 1.363 . S
C273 C272 1.415 . S
H274 C271 0.999 . S
H275 C256 0.913 . S
H276 C294 0.951 . S
H277 C296 0.951 . S
H278 C298 0.950 . S
H279 C299 0.950 . S
H280 C301 0.950 . S
H281 C304 0.950 . S
H282 C305 0.950 . S
H283 C307 0.950 . S
H284 C308 0.950 . S
H285 C309 0.951 . S
H286 C311 0.951 . S
H287 C313 0.950 . S
H288 C314 0.950 . S
H289 C316 0.950 . S
H290 C319 0.950 . S
H291 C320 0.950 . S
H292 C322 0.950 . S
H293 C323 0.950 . S
C294 H276 0.951 . S
C294 C295 1.366 . S
C294 C296 1.388 . S
C295 C294 1.366 . S
C295 C299 1.385 . S
C296 H277 0.951 . S
C296 C294 1.388 . S
C296 C297 1.366 . S
C297 C296 1.366 . S
C297 C298 1.414 . S
C297 C300 1.499 . S
C298 H278 0.950 . S
C298 C297 1.414 . S
C298 C299 1.374 . S
C299 H279 0.950 . S
C299 C295 1.385 . S
C299 C298 1.374 . S
C300 C297 1.499 . S
C300 C301 1.373 . S
C300 C302 1.389 . S
C301 H280 0.950 . S
C301 C300 1.373 . S
C301 C317 1.377 . S
C302 C300 1.389 . S
C302 C303 1.524 . S
C302 C316 1.377 . S
C303 C302 1.524 . S
C303 C304 1.397 . S
C303 C308 1.363 . S
C304 H281 0.950 . S
C304 C303 1.397 . S
C304 C305 1.334 . S
C305 H282 0.950 . S
C305 C304 1.334 . S
C305 C306 1.287 . S
C306 C305 1.287 . S
C306 C307 1.524 . S
C306 H325 0.913 . S
C307 H283 0.950 . S
C307 C306 1.524 . S
C307 C308 1.415 . S
C308 H284 0.950 . S
C308 C303 1.363 . S
C308 C307 1.415 . S
C309 H285 0.951 . S
C309 C310 1.366 . S
C309 C311 1.388 . S
C310 C309 1.366 . S
C310 C314 1.385 . S
C311 H286 0.951 . S
C311 C309 1.388 . S
C311 C312 1.366 . S
C312 C311 1.366 . S
C312 C313 1.414 . S
C312 C315 1.499 . S
C313 H287 0.950 . S
C313 C312 1.414 . S
C313 C314 1.374 . S
C314 H288 0.950 . S
C314 C310 1.385 . S
C314 C313 1.374 . S
C315 C312 1.499 . S
C315 C316 1.373 . S
C315 C317 1.389 . S
C316 H289 0.950 . S
C316 C302 1.377 . S
C316 C315 1.373 . S
C317 C301 1.377 . S
C317 C315 1.389 . S
C317 C318 1.524 . S
C318 C317 1.524 . S
C318 C319 1.397 . S
C318 C323 1.363 . S
C319 H290 0.950 . S
C319 C318 1.397 . S
C319 C320 1.334 . S
C320 H291 0.950 . S
C320 C319 1.334 . S
C320 C321 1.287 . S
C321 C320 1.287 . S
C321 C322 1.524 . S
C321 H324 0.999 . S
C322 H292 0.950 . S
C322 C321 1.524 . S
C322 C323 1.415 . S
C323 H293 0.950 . S
C323 C318 1.363 . S
C323 C322 1.415 . S
H324 C321 0.999 . S
H325 C306 0.913 . S
H326 C344 0.951 . S
H327 C346 0.951 . S
H328 C348 0.950 . S
H329 C349 0.950 . S
H330 C351 0.950 . S
H331 C354 0.950 . S
H332 C355 0.950 . S
H333 C357 0.950 . S
H334 C358 0.950 . S
H335 C359 0.951 . S
H336 C361 0.951 . S
H337 C363 0.950 . S
H338 C364 0.950 . S
H339 C366 0.950 . S
H340 C369 0.950 . S
H341 C370 0.950 . S
H342 C372 0.950 . S
H343 C373 0.950 . S
C344 H326 0.951 . S
C344 C345 1.366 . S
C344 C346 1.388 . S
C345 C344 1.366 . S
C345 C349 1.385 . S
C346 H327 0.951 . S
C346 C344 1.388 . S
C346 C347 1.366 . S
C347 C346 1.366 . S
C347 C348 1.414 . S
C347 C350 1.499 . S
C348 H328 0.950 . S
C348 C347 1.414 . S
C348 C349 1.374 . S
C349 H329 0.950 . S
C349 C345 1.385 . S
C349 C348 1.374 . S
C350 C347 1.499 . S
C350 C351 1.373 . S
C350 C352 1.389 . S
C351 H330 0.950 . S
C351 C350 1.373 . S
C351 C367 1.377 . S
C352 C350 1.389 . S
C352 C353 1.524 . S
C352 C366 1.377 . S
C353 C352 1.524 . S
C353 C354 1.397 . S
C353 C358 1.363 . S
C354 H331 0.950 . S
C354 C353 1.397 . S
C354 C355 1.334 . S
C355 H332 0.950 . S
C355 C354 1.334 . S
C355 C356 1.287 . S
C356 C355 1.287 . S
C356 C357 1.524 . S
C356 H375 0.913 . S
C357 H333 0.950 . S
C357 C356 1.524 . S
C357 C358 1.415 . S
C358 H334 0.950 . S
C358 C353 1.363 . S
C358 C357 1.415 . S
C359 H335 0.951 . S
C359 C360 1.366 . S
C359 C361 1.388 . S
C360 C359 1.366 . S
C360 C364 1.385 . S
C361 H336 0.951 . S
C361 C359 1.388 . S
C361 C362 1.366 . S
C362 C361 1.366 . S
C362 C363 1.414 . S
C362 C365 1.499 . S
C363 H337 0.950 . S
C363 C362 1.414 . S
C363 C364 1.374 . S
C364 H338 0.950 . S
C364 C360 1.385 . S
C364 C363 1.374 . S
C365 C362 1.499 . S
C365 C366 1.373 . S
C365 C367 1.389 . S
C366 H339 0.950 . S
C366 C352 1.377 . S
C366 C365 1.373 . S
C367 C351 1.377 . S
C367 C365 1.389 . S
C367 C368 1.524 . S
C368 C367 1.524 . S
C368 C369 1.397 . S
C368 C373 1.363 . S
C369 H340 0.950 . S
C369 C368 1.397 . S
C369 C370 1.334 . S
C370 H341 0.950 . S
C370 C369 1.334 . S
C370 C371 1.287 . S
C371 C370 1.287 . S
C371 C372 1.524 . S
C371 H374 0.999 . S
C372 H342 0.950 . S
C372 C371 1.524 . S
C372 C373 1.415 . S
C373 H343 0.950 . S
C373 C368 1.363 . S
C373 C372 1.415 . S
H374 C371 0.999 . S
H375 C356 0.913 . S
H376 C394 0.951 . S
H377 C396 0.951 . S
H378 C398 0.950 . S
H379 C399 0.950 . S
H380 C401 0.950 . S
H381 C404 0.950 . S
H382 C405 0.950 . S
H383 C407 0.950 . S
H384 C408 0.950 . S
H385 C409 0.951 . S
H386 C411 0.951 . S
H387 C413 0.950 . S
H388 C414 0.950 . S
H389 C416 0.950 . S
H390 C419 0.950 . S
H391 C420 0.950 . S
H392 C422 0.950 . S
H393 C423 0.950 . S
C394 H376 0.951 . S
C394 C395 1.366 . S
C394 C396 1.388 . S
C395 C394 1.366 . S
C395 C399 1.385 . S
C396 H377 0.951 . S
C396 C394 1.388 . S
C396 C397 1.366 . S
C397 C396 1.366 . S
C397 C398 1.414 . S
C397 C400 1.499 . S
C398 H378 0.950 . S
C398 C397 1.414 . S
C398 C399 1.374 . S
C399 H379 0.950 . S
C399 C395 1.385 . S
C399 C398 1.374 . S
C400 C397 1.499 . S
C400 C401 1.373 . S
C400 C402 1.389 . S
C401 H380 0.950 . S
C401 C400 1.373 . S
C401 C417 1.377 . S
C402 C400 1.389 . S
C402 C403 1.524 . S
C402 C416 1.377 . S
C403 C402 1.524 . S
C403 C404 1.397 . S
C403 C408 1.363 . S
C404 H381 0.950 . S
C404 C403 1.397 . S
C404 C405 1.334 . S
C405 H382 0.950 . S
C405 C404 1.334 . S
C405 C406 1.287 . S
C406 C405 1.287 . S
C406 C407 1.524 . S
C406 H425 0.913 . S
C407 H383 0.950 . S
C407 C406 1.524 . S
C407 C408 1.415 . S
C408 H384 0.950 . S
C408 C403 1.363 . S
C408 C407 1.415 . S
C409 H385 0.951 . S
C409 C410 1.366 . S
C409 C411 1.388 . S
C410 C409 1.366 . S
C410 C414 1.385 . S
C411 H386 0.951 . S
C411 C409 1.388 . S
C411 C412 1.366 . S
C412 C411 1.366 . S
C412 C413 1.414 . S
C412 C415 1.499 . S
C413 H387 0.950 . S
C413 C412 1.414 . S
C413 C414 1.374 . S
C414 H388 0.950 . S
C414 C410 1.385 . S
C414 C413 1.374 . S
C415 C412 1.499 . S
C415 C416 1.373 . S
C415 C417 1.389 . S
C416 H389 0.950 . S
C416 C402 1.377 . S
C416 C415 1.373 . S
C417 C401 1.377 . S
C417 C415 1.389 . S
C417 C418 1.524 . S
C418 C417 1.524 . S
C418 C419 1.397 . S
C418 C423 1.363 . S
C419 H390 0.950 . S
C419 C418 1.397 . S
C419 C420 1.334 . S
C420 H391 0.950 . S
C420 C419 1.334 . S
C420 C421 1.287 . S
C421 C420 1.287 . S
C421 C422 1.524 . S
C421 H424 0.999 . S
C422 H392 0.950 . S
C422 C421 1.524 . S
C422 C423 1.415 . S
C423 H393 0.950 . S
C423 C418 1.363 . S
C423 C422 1.415 . S
H424 C421 0.999 . S
H425 C406 0.913 . S
H426 C444 0.951 . S
H427 C446 0.951 . S
H428 C448 0.950 . S
H429 C449 0.950 . S
H430 C451 0.950 . S
H431 C454 0.950 . S
H432 C455 0.950 . S
H433 C457 0.950 . S
H434 C458 0.950 . S
H435 C459 0.951 . S
H436 C461 0.951 . S
H437 C463 0.950 . S
H438 C464 0.950 . S
H439 C466 0.950 . S
H440 C469 0.950 . S
H441 C470 0.950 . S
H442 C472 0.950 . S
H443 C473 0.950 . S
C444 H426 0.951 . S
C444 C445 1.366 . S
C444 C446 1.388 . S
C445 C444 1.366 . S
C445 C449 1.385 . S
C446 H427 0.951 . S
C446 C444 1.388 . S
C446 C447 1.366 . S
C447 C446 1.366 . S
C447 C448 1.414 . S
C447 C450 1.499 . S
C448 H428 0.950 . S
C448 C447 1.414 . S
C448 C449 1.374 . S
C449 H429 0.950 . S
C449 C445 1.385 . S
C449 C448 1.374 . S
C450 C447 1.499 . S
C450 C451 1.373 . S
C450 C452 1.389 1_556 S
C451 H430 0.950 . S
C451 C450 1.373 . S
C451 C467 1.377 . S
C452 C450 1.389 1_554 S
C452 C453 1.524 . S
C452 C466 1.377 . S
C453 C452 1.524 . S
C453 C454 1.397 . S
C453 C458 1.363 . S
C454 H431 0.950 . S
C454 C453 1.397 . S
C454 C455 1.334 . S
C455 H432 0.950 . S
C455 C454 1.334 . S
C455 C456 1.287 . S
C456 C455 1.287 . S
C456 C457 1.524 . S
C456 H475 0.913 . S
C457 H433 0.950 . S
C457 C456 1.524 . S
C457 C458 1.415 . S
C458 H434 0.950 . S
C458 C453 1.363 . S
C458 C457 1.415 . S
C459 H435 0.951 . S
C459 C460 1.366 . S
C459 C461 1.388 . S
C460 C459 1.366 . S
C460 C464 1.385 . S
C461 H436 0.951 . S
C461 C459 1.388 . S
C461 C462 1.366 . S
C462 C461 1.366 . S
C462 C463 1.414 . S
C462 C465 1.499 . S
C463 H437 0.950 . S
C463 C462 1.414 . S
C463 C464 1.374 . S
C464 H438 0.950 . S
C464 C460 1.385 . S
C464 C463 1.374 . S
C465 C462 1.499 . S
C465 C466 1.373 . S
C465 C467 1.389 1_554 S
C466 H439 0.950 . S
C466 C452 1.377 . S
C466 C465 1.373 . S
C467 C451 1.377 . S
C467 C465 1.389 1_556 S
C467 C468 1.524 . S
C468 C467 1.524 . S
C468 C469 1.397 . S
C468 C473 1.363 . S
C469 H440 0.950 . S
C469 C468 1.397 . S
C469 C470 1.334 . S
C470 H441 0.950 . S
C470 C469 1.334 . S
C470 C471 1.287 . S
C471 C470 1.287 . S
C471 C472 1.524 . S
C471 H474 0.999 . S
C472 H442 0.950 . S
C472 C471 1.524 . S
C472 C473 1.415 . S
C473 H443 0.950 . S
C473 C468 1.363 . S
C473 C472 1.415 . S
H474 C471 0.999 . S
H475 C456 0.913 . S
H476 C494 0.951 . S
H477 C496 0.951 . S
H478 C498 0.950 . S
H479 C499 0.950 . S
H480 C501 0.950 . S
H481 C504 0.950 . S
H482 C505 0.950 . S
H483 C507 0.950 . S
H484 C508 0.950 . S
H485 C509 0.951 . S
H486 C511 0.951 . S
H487 C513 0.950 . S
H488 C514 0.950 . S
H489 C516 0.950 . S
H490 C519 0.950 . S
H491 C520 0.950 . S
H492 C522 0.950 . S
H493 C523 0.950 . S
C494 H476 0.951 . S
C494 C495 1.366 . S
C494 C496 1.388 . S
C495 C494 1.366 . S
C495 C499 1.385 . S
C496 H477 0.951 . S
C496 C494 1.388 . S
C496 C497 1.366 . S
C497 C496 1.366 . S
C497 C498 1.414 . S
C497 C500 1.499 . S
C498 H478 0.950 . S
C498 C497 1.414 . S
C498 C499 1.374 . S
C499 H479 0.950 . S
C499 C495 1.385 . S
C499 C498 1.374 . S
C500 C497 1.499 . S
C500 C501 1.373 . S
C500 C502 1.389 1_655 S
C501 H480 0.950 . S
C501 C500 1.373 . S
C501 C517 1.377 . S
C502 C500 1.389 1_455 S
C502 C503 1.524 . S
C502 C516 1.377 . S
C503 C502 1.524 . S
C503 C504 1.397 1_455 S
C503 C508 1.363 . S
C504 H481 0.950 . S
C504 C503 1.397 1_655 S
C504 C505 1.334 . S
C505 H482 0.950 . S
C505 C504 1.334 . S
C505 C506 1.287 1_655 S
C506 C505 1.287 1_455 S
C506 C507 1.524 . S
C506 H525 0.913 . S
C507 H483 0.950 . S
C507 C506 1.524 . S
C507 C508 1.415 . S
C508 H484 0.950 . S
C508 C503 1.363 . S
C508 C507 1.415 . S
C509 H485 0.951 . S
C509 C510 1.366 . S
C509 C511 1.388 . S
C510 C509 1.366 . S
C510 C514 1.385 . S
C511 H486 0.951 . S
C511 C509 1.388 . S
C511 C512 1.366 . S
C512 C511 1.366 . S
C512 C513 1.414 . S
C512 C515 1.499 . S
C513 H487 0.950 . S
C513 C512 1.414 . S
C513 C514 1.374 . S
C514 H488 0.950 . S
C514 C510 1.385 . S
C514 C513 1.374 . S
C515 C512 1.499 . S
C515 C516 1.373 . S
C515 C517 1.389 1_455 S
C516 H489 0.950 . S
C516 C502 1.377 . S
C516 C515 1.373 . S
C517 C501 1.377 . S
C517 C515 1.389 1_655 S
C517 C518 1.524 . S
C518 C517 1.524 . S
C518 C519 1.397 1_655 S
C518 C523 1.363 . S
C519 H490 0.950 . S
C519 C518 1.397 1_455 S
C519 C520 1.334 . S
C520 H491 0.950 . S
C520 C519 1.334 . S
C520 C521 1.287 1_455 S
C521 C520 1.287 1_655 S
C521 C522 1.524 . S
C521 H524 0.999 . S
C522 H492 0.950 . S
C522 C521 1.524 . S
C522 C523 1.415 . S
C523 H493 0.950 . S
C523 C518 1.363 . S
C523 C522 1.415 . S
H524 C521 0.999 . S
H525 C506 0.913 . S
H526 C544 0.951 . S
H527 C546 0.951 . S
H528 C548 0.950 . S
H529 C549 0.950 . S
H530 C551 0.950 . S
H531 C554 0.950 1_556 S
H532 C555 0.950 . S
H533 C557 0.950 . S
H534 C558 0.950 . S
H535 C559 0.951 . S
H536 C561 0.951 . S
H537 C563 0.950 . S
H538 C564 0.950 . S
H539 C566 0.950 . S
H540 C569 0.950 1_554 S
H541 C570 0.950 . S
H542 C572 0.950 . S
H543 C573 0.950 . S
C544 H526 0.951 . S
C544 C545 1.366 . S
C544 C546 1.388 . S
C545 C544 1.366 . S
C545 C549 1.385 . S
C546 H527 0.951 . S
C546 C544 1.388 . S
C546 C547 1.366 . S
C547 C546 1.366 . S
C547 C548 1.414 . S
C547 C550 1.499 . S
C548 H528 0.950 . S
C548 C547 1.414 . S
C548 C549 1.374 . S
C549 H529 0.950 . S
C549 C545 1.385 . S
C549 C548 1.374 . S
C550 C547 1.499 . S
C550 C551 1.373 1_545 S
C550 C552 1.389 1_556 S
C551 H530 0.950 . S
C551 C550 1.373 1_565 S
C551 C567 1.377 . S
C552 C550 1.389 1_554 S
C552 C553 1.524 . S
C552 C566 1.377 . S
C553 C552 1.524 . S
C553 C554 1.397 . S
C553 C558 1.363 . S
C554 H531 0.950 1_554 S
C554 C553 1.397 . S
C554 C555 1.334 . S
C555 H532 0.950 . S
C555 C554 1.334 . S
C555 C556 1.287 . S
C556 C555 1.287 . S
C556 C557 1.524 . S
C556 H575 0.913 . S
C557 H533 0.950 . S
C557 C556 1.524 . S
C557 C558 1.415 . S
C558 H534 0.950 . S
C558 C553 1.363 . S
C558 C557 1.415 . S
C559 H535 0.951 . S
C559 C560 1.366 . S
C559 C561 1.388 . S
C560 C559 1.366 . S
C560 C564 1.385 . S
C561 H536 0.951 . S
C561 C559 1.388 . S
C561 C562 1.366 . S
C562 C561 1.366 . S
C562 C563 1.414 . S
C562 C565 1.499 . S
C563 H537 0.950 . S
C563 C562 1.414 . S
C563 C564 1.374 . S
C564 H538 0.950 . S
C564 C560 1.385 . S
C564 C563 1.374 . S
C565 C562 1.499 . S
C565 C566 1.373 1_565 S
C565 C567 1.389 1_554 S
C566 H539 0.950 . S
C566 C552 1.377 . S
C566 C565 1.373 1_545 S
C567 C551 1.377 . S
C567 C565 1.389 1_556 S
C567 C568 1.524 . S
C568 C567 1.524 . S
C568 C569 1.397 . S
C568 C573 1.363 . S
C569 H540 0.950 1_556 S
C569 C568 1.397 . S
C569 C570 1.334 . S
C570 H541 0.950 . S
C570 C569 1.334 . S
C570 C571 1.287 . S
C571 C570 1.287 . S
C571 C572 1.524 . S
C571 H574 0.999 . S
C572 H542 0.950 . S
C572 C571 1.524 . S
C572 C573 1.415 . S
C573 H543 0.950 . S
C573 C568 1.363 . S
C573 C572 1.415 . S
H574 C571 0.999 . S
H575 C556 0.913 . S
H576 C594 0.951 . S
H577 C596 0.951 . S
H578 C598 0.950 . S
H579 C599 0.950 . S
H580 C601 0.950 . S
H581 C604 0.950 . S
H582 C605 0.950 . S
H583 C607 0.950 . S
H584 C608 0.950 . S
H585 C609 0.951 . S
H586 C611 0.951 . S
H587 C613 0.950 . S
H588 C614 0.950 . S
H589 C616 0.950 . S
H590 C619 0.950 . S
H591 C620 0.950 . S
H592 C622 0.950 . S
H593 C623 0.950 . S
C594 H576 0.951 . S
C594 C595 1.366 . S
C594 C596 1.388 . S
C595 C594 1.366 . S
C595 C599 1.385 . S
C596 H577 0.951 . S
C596 C594 1.388 . S
C596 C597 1.366 . S
C597 C596 1.366 . S
C597 C598 1.414 . S
C597 C600 1.499 . S
C598 H578 0.950 . S
C598 C597 1.414 . S
C598 C599 1.374 . S
C599 H579 0.950 . S
C599 C595 1.385 . S
C599 C598 1.374 . S
C600 C597 1.499 . S
C600 C601 1.373 . S
C600 C602 1.389 . S
C601 H580 0.950 . S
C601 C600 1.373 . S
C601 C617 1.377 . S
C602 C600 1.389 . S
C602 C603 1.524 . S
C602 C616 1.377 . S
C603 C602 1.524 . S
C603 C604 1.397 . S
C603 C608 1.363 . S
C604 H581 0.950 . S
C604 C603 1.397 . S
C604 C605 1.334 . S
C605 H582 0.950 . S
C605 C604 1.334 . S
C605 C606 1.287 . S
C606 C605 1.287 . S
C606 C607 1.524 . S
C606 H625 0.913 . S
C607 H583 0.950 . S
C607 C606 1.524 . S
C607 C608 1.415 . S
C608 H584 0.950 . S
C608 C603 1.363 . S
C608 C607 1.415 . S
C609 H585 0.951 . S
C609 C610 1.366 . S
C609 C611 1.388 . S
C610 C609 1.366 . S
C610 C614 1.385 . S
C611 H586 0.951 . S
C611 C609 1.388 . S
C611 C612 1.366 . S
C612 C611 1.366 . S
C612 C613 1.414 . S
C612 C615 1.499 . S
C613 H587 0.950 . S
C613 C612 1.414 . S
C613 C614 1.374 . S
C614 H588 0.950 . S
C614 C610 1.385 . S
C614 C613 1.374 . S
C615 C612 1.499 . S
C615 C616 1.373 . S
C615 C617 1.389 . S
C616 H589 0.950 . S
C616 C602 1.377 . S
C616 C615 1.373 . S
C617 C601 1.377 . S
C617 C615 1.389 . S
C617 C618 1.524 . S
C618 C617 1.524 . S
C618 C619 1.397 . S
C618 C623 1.363 . S
C619 H590 0.950 . S
C619 C618 1.397 . S
C619 C620 1.334 . S
C620 H591 0.950 . S
C620 C619 1.334 . S
C620 C621 1.287 . S
C621 C620 1.287 . S
C621 C622 1.524 . S
C621 H624 0.999 . S
C622 H592 0.950 . S
C622 C621 1.524 . S
C622 C623 1.415 . S
C623 H593 0.950 . S
C623 C618 1.363 . S
C623 C622 1.415 . S
H624 C621 0.999 . S
H625 C606 0.913 . S
H626 C644 0.951 . S
H627 C646 0.951 . S
H628 C648 0.950 . S
H629 C649 0.950 . S
H630 C651 0.950 . S
H631 C654 0.950 . S
H632 C655 0.950 . S
H633 C657 0.950 . S
H634 C658 0.950 . S
H635 C659 0.951 . S
H636 C661 0.951 . S
H637 C663 0.950 . S
H638 C664 0.950 . S
H639 C666 0.950 . S
H640 C669 0.950 . S
H641 C670 0.950 . S
H642 C672 0.950 . S
H643 C673 0.950 . S
C644 H626 0.951 . S
C644 C645 1.366 . S
C644 C646 1.388 . S
C645 C644 1.366 . S
C645 C649 1.385 . S
C646 H627 0.951 . S
C646 C644 1.388 . S
C646 C647 1.366 . S
C647 C646 1.366 . S
C647 C648 1.414 . S
C647 C650 1.499 . S
C648 H628 0.950 . S
C648 C647 1.414 . S
C648 C649 1.374 . S
C649 H629 0.950 . S
C649 C645 1.385 . S
C649 C648 1.374 . S
C650 C647 1.499 . S
C650 C651 1.373 1_655 S
C650 C652 1.389 1_556 S
C651 H630 0.950 . S
C651 C650 1.373 1_455 S
C651 C667 1.377 . S
C652 C650 1.389 1_554 S
C652 C653 1.524 . S
C652 C666 1.377 . S
C653 C652 1.524 . S
C653 C654 1.397 . S
C653 C658 1.363 . S
C654 H631 0.950 . S
C654 C653 1.397 . S
C654 C655 1.334 . S
C655 H632 0.950 . S
C655 C654 1.334 . S
C655 C656 1.287 . S
C656 C655 1.287 . S
C656 C657 1.524 . S
C656 H675 0.913 . S
C657 H633 0.950 . S
C657 C656 1.524 . S
C657 C658 1.415 . S
C658 H634 0.950 . S
C658 C653 1.363 . S
C658 C657 1.415 . S
C659 H635 0.951 . S
C659 C660 1.366 . S
C659 C661 1.388 . S
C660 C659 1.366 . S
C660 C664 1.385 . S
C661 H636 0.951 . S
C661 C659 1.388 . S
C661 C662 1.366 . S
C662 C661 1.366 . S
C662 C663 1.414 . S
C662 C665 1.499 . S
C663 H637 0.950 . S
C663 C662 1.414 . S
C663 C664 1.374 . S
C664 H638 0.950 . S
C664 C660 1.385 . S
C664 C663 1.374 . S
C665 C662 1.499 . S
C665 C666 1.373 1_455 S
C665 C667 1.389 1_554 S
C666 H639 0.950 . S
C666 C652 1.377 . S
C666 C665 1.373 1_655 S
C667 C651 1.377 . S
C667 C665 1.389 1_556 S
C667 C668 1.524 . S
C668 C667 1.524 . S
C668 C669 1.397 . S
C668 C673 1.363 . S
C669 H640 0.950 . S
C669 C668 1.397 . S
C669 C670 1.334 . S
C670 H641 0.950 . S
C670 C669 1.334 . S
C670 C671 1.287 . S
C671 C670 1.287 . S
C671 C672 1.524 . S
C671 H674 0.999 . S
C672 H642 0.950 . S
C672 C671 1.524 . S
C672 C673 1.415 . S
C673 H643 0.950 . S
C673 C668 1.363 . S
C673 C672 1.415 . S
H674 C671 0.999 . S
H675 C656 0.913 . S
H676 C694 0.951 . S
H677 C696 0.951 . S
H678 C698 0.950 . S
H679 C699 0.950 . S
H680 C701 0.950 . S
H681 C704 0.950 . S
H682 C705 0.950 . S
H683 C707 0.950 . S
H684 C708 0.950 . S
H685 C709 0.951 . S
H686 C711 0.951 . S
H687 C713 0.950 . S
H688 C714 0.950 . S
H689 C716 0.950 . S
H690 C719 0.950 . S
H691 C720 0.950 . S
H692 C722 0.950 . S
H693 C723 0.950 . S
C694 H676 0.951 . S
C694 C695 1.366 . S
C694 C696 1.388 . S
C695 C694 1.366 . S
C695 C699 1.385 . S
C696 H677 0.951 . S
C696 C694 1.388 . S
C696 C697 1.366 . S
C697 C696 1.366 . S
C697 C698 1.414 . S
C697 C700 1.499 . S
C698 H678 0.950 . S
C698 C697 1.414 . S
C698 C699 1.374 . S
C699 H679 0.950 . S
C699 C695 1.385 . S
C699 C698 1.374 . S
C700 C697 1.499 . S
C700 C701 1.373 . S
C700 C702 1.389 . S
C701 H680 0.950 . S
C701 C700 1.373 . S
C701 C717 1.377 1_545 S
C702 C700 1.389 . S
C702 C703 1.524 . S
C702 C716 1.377 1_545 S
C703 C702 1.524 . S
C703 C704 1.397 . S
C703 C708 1.363 . S
C704 H681 0.950 . S
C704 C703 1.397 . S
C704 C705 1.334 . S
C705 H682 0.950 . S
C705 C704 1.334 . S
C705 C706 1.287 . S
C706 C705 1.287 . S
C706 C707 1.524 . S
C706 H725 0.913 . S
C707 H683 0.950 . S
C707 C706 1.524 . S
C707 C708 1.415 . S
C708 H684 0.950 . S
C708 C703 1.363 . S
C708 C707 1.415 . S
C709 H685 0.951 . S
C709 C710 1.366 . S
C709 C711 1.388 . S
C710 C709 1.366 . S
C710 C714 1.385 . S
C711 H686 0.951 . S
C711 C709 1.388 . S
C711 C712 1.366 . S
C712 C711 1.366 . S
C712 C713 1.414 . S
C712 C715 1.499 . S
C713 H687 0.950 . S
C713 C712 1.414 . S
C713 C714 1.374 . S
C714 H688 0.950 . S
C714 C710 1.385 . S
C714 C713 1.374 . S
C715 C712 1.499 . S
C715 C716 1.373 . S
C715 C717 1.389 . S
C716 H689 0.950 . S
C716 C702 1.377 1_565 S
C716 C715 1.373 . S
C717 C701 1.377 1_565 S
C717 C715 1.389 . S
C717 C718 1.524 . S
C718 C717 1.524 . S
C718 C719 1.397 . S
C718 C723 1.363 . S
C719 H690 0.950 . S
C719 C718 1.397 . S
C719 C720 1.334 . S
C720 H691 0.950 . S
C720 C719 1.334 . S
C720 C721 1.287 . S
C721 C720 1.287 . S
C721 C722 1.524 . S
C721 H724 0.999 . S
C722 H692 0.950 . S
C722 C721 1.524 . S
C722 C723 1.415 . S
C723 H693 0.950 . S
C723 C718 1.363 . S
C723 C722 1.415 . S
H724 C721 0.999 . S
H725 C706 0.913 . S
H726 C744 0.951 . S
H727 C746 0.951 . S
H728 C748 0.950 . S
H729 C749 0.950 . S
H730 C751 0.950 . S
H731 C754 0.950 . S
H732 C755 0.950 . S
H733 C757 0.950 . S
H734 C758 0.950 . S
H735 C759 0.951 . S
H736 C761 0.951 . S
H737 C763 0.950 . S
H738 C764 0.950 . S
H739 C766 0.950 . S
H740 C769 0.950 . S
H741 C770 0.950 . S
H742 C772 0.950 . S
H743 C773 0.950 . S
C744 H726 0.951 . S
C744 C745 1.366 . S
C744 C746 1.388 . S
C745 C744 1.366 . S
C745 C749 1.385 . S
C746 H727 0.951 . S
C746 C744 1.388 . S
C746 C747 1.366 . S
C747 C746 1.366 . S
C747 C748 1.414 . S
C747 C750 1.499 . S
C748 H728 0.950 . S
C748 C747 1.414 . S
C748 C749 1.374 . S
C749 H729 0.950 . S
C749 C745 1.385 . S
C749 C748 1.374 . S
C750 C747 1.499 . S
C750 C751 1.373 1_554 S
C750 C752 1.389 . S
C751 H730 0.950 . S
C751 C750 1.373 1_556 S
C751 C767 1.377 . S
C752 C750 1.389 . S
C752 C753 1.524 . S
C752 C766 1.377 . S
C753 C752 1.524 . S
C753 C754 1.397 . S
C753 C758 1.363 . S
C754 H731 0.950 . S
C754 C753 1.397 . S
C754 C755 1.334 . S
C755 H732 0.950 . S
C755 C754 1.334 . S
C755 C756 1.287 . S
C756 C755 1.287 . S
C756 C757 1.524 . S
C756 H775 0.913 . S
C757 H733 0.950 . S
C757 C756 1.524 . S
C757 C758 1.415 . S
C758 H734 0.950 . S
C758 C753 1.363 . S
C758 C757 1.415 . S
C759 H735 0.951 . S
C759 C760 1.366 . S
C759 C761 1.388 . S
C760 C759 1.366 . S
C760 C764 1.385 . S
C761 H736 0.951 . S
C761 C759 1.388 . S
C761 C762 1.366 . S
C762 C761 1.366 . S
C762 C763 1.414 . S
C762 C765 1.499 . S
C763 H737 0.950 . S
C763 C762 1.414 . S
C763 C764 1.374 . S
C764 H738 0.950 . S
C764 C760 1.385 . S
C764 C763 1.374 . S
C765 C762 1.499 . S
C765 C766 1.373 1_556 S
C765 C767 1.389 . S
C766 H739 0.950 . S
C766 C752 1.377 . S
C766 C765 1.373 1_554 S
C767 C751 1.377 . S
C767 C765 1.389 . S
C767 C768 1.524 . S
C768 C767 1.524 . S
C768 C769 1.397 . S
C768 C773 1.363 . S
C769 H740 0.950 . S
C769 C768 1.397 . S
C769 C770 1.334 . S
C770 H741 0.950 . S
C770 C769 1.334 . S
C770 C771 1.287 . S
C771 C770 1.287 . S
C771 C772 1.524 . S
C771 H774 0.999 . S
C772 H742 0.950 . S
C772 C771 1.524 . S
C772 C773 1.415 . S
C773 H743 0.950 . S
C773 C768 1.363 . S
C773 C772 1.415 . S
H774 C771 0.999 . S
H775 C756 0.913 . S
H776 C794 0.951 . S
H777 C796 0.951 . S
H778 C798 0.950 . S
H779 C799 0.950 . S
H780 C801 0.950 . S
H781 C804 0.950 1_655 S
H782 C805 0.950 . S
H783 C807 0.950 . S
H784 C808 0.950 . S
H785 C809 0.951 . S
H786 C811 0.951 . S
H787 C813 0.950 . S
H788 C814 0.950 . S
H789 C816 0.950 . S
H790 C819 0.950 1_455 S
H791 C820 0.950 . S
H792 C822 0.950 . S
H793 C823 0.950 . S
C794 H776 0.951 . S
C794 C795 1.366 . S
C794 C796 1.388 . S
C795 C794 1.366 . S
C795 C799 1.385 . S
C796 H777 0.951 . S
C796 C794 1.388 . S
C796 C797 1.366 . S
C797 C796 1.366 . S
C797 C798 1.414 . S
C797 C800 1.499 . S
C798 H778 0.950 . S
C798 C797 1.414 . S
C798 C799 1.374 . S
C799 H779 0.950 . S
C799 C795 1.385 . S
C799 C798 1.374 . S
C800 C797 1.499 . S
C800 C801 1.373 . S
C800 C802 1.389 1_655 S
C801 H780 0.950 . S
C801 C800 1.373 . S
C801 C817 1.377 . S
C802 C800 1.389 1_455 S
C802 C803 1.524 . S
C802 C816 1.377 . S
C803 C802 1.524 . S
C803 C804 1.397 . S
C803 C808 1.363 . S
C804 H781 0.950 1_455 S
C804 C803 1.397 . S
C804 C805 1.334 . S
C805 H782 0.950 . S
C805 C804 1.334 . S
C805 C806 1.287 . S
C806 C805 1.287 . S
C806 C807 1.524 . S
C806 H825 0.913 . S
C807 H783 0.950 . S
C807 C806 1.524 . S
C807 C808 1.415 . S
C808 H784 0.950 . S
C808 C803 1.363 . S
C808 C807 1.415 . S
C809 H785 0.951 . S
C809 C810 1.366 . S
C809 C811 1.388 . S
C810 C809 1.366 . S
C810 C814 1.385 . S
C811 H786 0.951 . S
C811 C809 1.388 . S
C811 C812 1.366 . S
C812 C811 1.366 . S
C812 C813 1.414 . S
C812 C815 1.499 . S
C813 H787 0.950 . S
C813 C812 1.414 . S
C813 C814 1.374 . S
C814 H788 0.950 . S
C814 C810 1.385 . S
C814 C813 1.374 . S
C815 C812 1.499 . S
C815 C816 1.373 . S
C815 C817 1.389 1_455 S
C816 H789 0.950 . S
C816 C802 1.377 . S
C816 C815 1.373 . S
C817 C801 1.377 . S
C817 C815 1.389 1_655 S
C817 C818 1.524 . S
C818 C817 1.524 . S
C818 C819 1.397 . S
C818 C823 1.363 . S
C819 H790 0.950 1_655 S
C819 C818 1.397 . S
C819 C820 1.334 . S
C820 H791 0.950 . S
C820 C819 1.334 . S
C820 C821 1.287 . S
C821 C820 1.287 . S
C821 C822 1.524 . S
C821 H824 0.999 . S
C822 H792 0.950 . S
C822 C821 1.524 . S
C822 C823 1.415 . S
C823 H793 0.950 . S
C823 C818 1.363 . S
C823 C822 1.415 . S
H824 C821 0.999 . S
H825 C806 0.913 . S
H826 C844 0.951 . S
H827 C846 0.951 . S
H828 C848 0.950 . S
H829 C849 0.950 . S
H830 C851 0.950 . S
H831 C854 0.950 . S
H832 C855 0.950 . S
H833 C857 0.950 . S
H834 C858 0.950 . S
H835 C859 0.951 . S
H836 C861 0.951 . S
H837 C863 0.950 . S
H838 C864 0.950 . S
H839 C866 0.950 . S
H840 C869 0.950 . S
H841 C870 0.950 . S
H842 C872 0.950 . S
H843 C873 0.950 . S
C844 H826 0.951 . S
C844 C845 1.366 . S
C844 C846 1.388 . S
C845 C844 1.366 . S
C845 C849 1.385 . S
C846 H827 0.951 . S
C846 C844 1.388 . S
C846 C847 1.366 . S
C847 C846 1.366 . S
C847 C848 1.414 . S
C847 C850 1.499 . S
C848 H828 0.950 . S
C848 C847 1.414 . S
C848 C849 1.374 . S
C849 H829 0.950 . S
C849 C845 1.385 . S
C849 C848 1.374 . S
C850 C847 1.499 . S
C850 C851 1.373 . S
C850 C852 1.389 . S
C851 H830 0.950 . S
C851 C850 1.373 . S
C851 C867 1.377 1_564 S
C852 C850 1.389 . S
C852 C853 1.524 . S
C852 C866 1.377 1_564 S
C853 C852 1.524 . S
C853 C854 1.397 1_554 S
C853 C858 1.363 . S
C854 H831 0.950 . S
C854 C853 1.397 1_556 S
C854 C855 1.334 . S
C855 H832 0.950 . S
C855 C854 1.334 . S
C855 C856 1.287 . S
C856 C855 1.287 . S
C856 C857 1.524 1_556 S
C856 H875 0.913 . S
C857 H833 0.950 . S
C857 C856 1.524 1_554 S
C857 C858 1.415 . S
C858 H834 0.950 . S
C858 C853 1.363 . S
C858 C857 1.415 . S
C859 H835 0.951 . S
C859 C860 1.366 . S
C859 C861 1.388 . S
C860 C859 1.366 . S
C860 C864 1.385 . S
C861 H836 0.951 . S
C861 C859 1.388 . S
C861 C862 1.366 . S
C862 C861 1.366 . S
C862 C863 1.414 . S
C862 C865 1.499 . S
C863 H837 0.950 . S
C863 C862 1.414 . S
C863 C864 1.374 . S
C864 H838 0.950 . S
C864 C860 1.385 . S
C864 C863 1.374 . S
C865 C862 1.499 . S
C865 C866 1.373 . S
C865 C867 1.389 . S
C866 H839 0.950 . S
C866 C852 1.377 1_546 S
C866 C865 1.373 . S
C867 C851 1.377 1_546 S
C867 C865 1.389 . S
C867 C868 1.524 . S
C868 C867 1.524 . S
C868 C869 1.397 1_556 S
C868 C873 1.363 . S
C869 H840 0.950 . S
C869 C868 1.397 1_554 S
C869 C870 1.334 . S
C870 H841 0.950 . S
C870 C869 1.334 . S
C870 C871 1.287 . S
C871 C870 1.287 . S
C871 C872 1.524 1_554 S
C871 H874 0.999 . S
C872 H842 0.950 . S
C872 C871 1.524 1_556 S
C872 C873 1.415 . S
C873 H843 0.950 . S
C873 C868 1.363 . S
C873 C872 1.415 . S
H874 C871 0.999 . S
H875 C856 0.913 . S
H876 C894 0.951 . S
H877 C896 0.951 . S
H878 C898 0.950 . S
H879 C899 0.950 . S
H880 C901 0.950 . S
H881 C904 0.950 . S
H882 C905 0.950 . S
H883 C907 0.950 . S
H884 C908 0.950 . S
H885 C909 0.951 . S
H886 C911 0.951 . S
H887 C913 0.950 . S
H888 C914 0.950 . S
H889 C916 0.950 . S
H890 C919 0.950 . S
H891 C920 0.950 . S
H892 C922 0.950 . S
H893 C923 0.950 . S
C894 H876 0.951 . S
C894 C895 1.366 . S
C894 C896 1.388 . S
C895 C894 1.366 . S
C895 C899 1.385 . S
C896 H877 0.951 . S
C896 C894 1.388 . S
C896 C897 1.366 . S
C897 C896 1.366 . S
C897 C898 1.414 . S
C897 C900 1.499 . S
C898 H878 0.950 . S
C898 C897 1.414 . S
C898 C899 1.374 . S
C899 H879 0.950 . S
C899 C895 1.385 . S
C899 C898 1.374 . S
C900 C897 1.499 . S
C900 C901 1.373 . S
C900 C902 1.389 . S
C901 H880 0.950 . S
C901 C900 1.373 . S
C901 C917 1.377 . S
C902 C900 1.389 . S
C902 C903 1.524 . S
C902 C916 1.377 . S
C903 C902 1.524 . S
C903 C904 1.397 . S
C903 C908 1.363 . S
C904 H881 0.950 . S
C904 C903 1.397 . S
C904 C905 1.334 . S
C905 H882 0.950 . S
C905 C904 1.334 . S
C905 C906 1.287 . S
C906 C905 1.287 . S
C906 C907 1.524 . S
C906 H925 0.913 . S
C907 H883 0.950 . S
C907 C906 1.524 . S
C907 C908 1.415 . S
C908 H884 0.950 . S
C908 C903 1.363 . S
C908 C907 1.415 . S
C909 H885 0.951 . S
C909 C910 1.366 . S
C909 C911 1.388 . S
C910 C909 1.366 . S
C910 C914 1.385 . S
C911 H886 0.951 . S
C911 C909 1.388 . S
C911 C912 1.366 . S
C912 C911 1.366 . S
C912 C913 1.414 . S
C912 C915 1.499 . S
C913 H887 0.950 . S
C913 C912 1.414 . S
C913 C914 1.374 . S
C914 H888 0.950 . S
C914 C910 1.385 . S
C914 C913 1.374 . S
C915 C912 1.499 . S
C915 C916 1.373 . S
C915 C917 1.389 . S
C916 H889 0.950 . S
C916 C902 1.377 . S
C916 C915 1.373 . S
C917 C901 1.377 . S
C917 C915 1.389 . S
C917 C918 1.524 . S
C918 C917 1.524 . S
C918 C919 1.397 . S
C918 C923 1.363 . S
C919 H890 0.950 . S
C919 C918 1.397 . S
C919 C920 1.334 . S
C920 H891 0.950 . S
C920 C919 1.334 . S
C920 C921 1.287 . S
C921 C920 1.287 . S
C921 C922 1.524 . S
C921 H924 0.999 . S
C922 H892 0.950 . S
C922 C921 1.524 . S
C922 C923 1.415 . S
C923 H893 0.950 . S
C923 C918 1.363 . S
C923 C922 1.415 . S
H924 C921 0.999 . S
H925 C906 0.913 . S
H926 C944 0.951 . S
H927 C946 0.951 . S
H928 C948 0.950 . S
H929 C949 0.950 . S
H930 C951 0.959 . S
H931 C954 0.950 . S
H932 C955 0.950 . S
H933 C957 0.950 . S
H934 C958 0.950 . S
H935 C959 0.951 . S
H936 C961 0.951 . S
H937 C963 0.950 . S
H938 C964 0.950 . S
H939 C966 0.959 . S
H940 C969 0.950 . S
H941 C970 0.950 . S
H942 C972 0.950 . S
H943 C973 0.950 . S
C944 H926 0.951 . S
C944 C945 1.366 . S
C944 C946 1.388 . S
C945 C944 1.366 . S
C945 C949 1.385 . S
C946 H927 0.951 . S
C946 C944 1.388 . S
C946 C947 1.366 . S
C947 C946 1.366 . S
C947 C948 1.414 . S
C947 C950 1.499 . S
C948 H928 0.950 . S
C948 C947 1.414 . S
C948 C949 1.374 . S
C949 H929 0.950 . S
C949 C945 1.385 . S
C949 C948 1.374 . S
C950 C947 1.499 . S
C950 C951 1.346 1_655 S
C950 C952 1.389 1_556 S
C951 H930 0.959 . S
C951 C950 1.346 1_455 S
C951 C967 1.395 . S
C952 C950 1.389 1_554 S
C952 C953 1.524 . S
C952 C966 1.395 . S
C953 C952 1.524 . S
C953 C954 1.397 1_554 S
C953 C958 1.363 . S
C954 H931 0.950 . S
C954 C953 1.397 1_556 S
C954 C955 1.334 . S
C955 H932 0.950 . S
C955 C954 1.334 . S
C955 C956 1.287 1_556 S
C956 C955 1.287 1_554 S
C956 C957 1.524 . S
C956 H975 0.913 . S
C957 H933 0.950 . S
C957 C956 1.524 . S
C957 C958 1.415 . S
C958 H934 0.950 . S
C958 C953 1.363 . S
C958 C957 1.415 . S
C959 H935 0.951 . S
C959 C960 1.366 . S
C959 C961 1.388 . S
C960 C959 1.366 . S
C960 C964 1.385 . S
C961 H936 0.951 . S
C961 C959 1.388 . S
C961 C962 1.366 . S
C962 C961 1.366 . S
C962 C963 1.414 . S
C962 C965 1.499 . S
C963 H937 0.950 . S
C963 C962 1.414 . S
C963 C964 1.374 . S
C964 H938 0.950 . S
C964 C960 1.385 . S
C964 C963 1.374 . S
C965 C962 1.499 . S
C965 C966 1.346 1_455 S
C965 C967 1.389 1_554 S
C966 H939 0.959 . S
C966 C952 1.395 . S
C966 C965 1.346 1_655 S
C967 C951 1.395 . S
C967 C965 1.389 1_556 S
C967 C968 1.524 . S
C968 C967 1.524 . S
C968 C969 1.397 1_556 S
C968 C973 1.363 . S
C969 H940 0.950 . S
C969 C968 1.397 1_554 S
C969 C970 1.334 . S
C970 H941 0.950 . S
C970 C969 1.334 . S
C970 C971 1.287 1_554 S
C971 C970 1.287 1_556 S
C971 C972 1.524 . S
C971 H974 0.999 . S
C972 H942 0.950 . S
C972 C971 1.524 . S
C972 C973 1.415 . S
C973 H943 0.950 . S
C973 C968 1.363 . S
C973 C972 1.415 . S
H974 C971 0.999 . S
H975 C956 0.913 . S
H976 C994 0.951 . S
H977 C996 0.951 . S
H978 C998 0.950 . S
H979 C999 0.950 . S
H980 C1001 0.953 . S
H981 C1004 0.950 . S
H982 C1005 0.950 . S
H983 C1007 0.950 . S
H984 C1008 0.950 . S
H985 C1009 0.951 . S
H986 C1011 0.951 . S
H987 C1013 0.950 . S
H988 C1014 0.950 . S
H989 C1016 0.953 . S
H990 C1019 0.950 . S
H991 C1020 0.950 . S
H992 C1022 0.950 . S
H993 C1023 0.950 . S
C994 H976 0.951 . S
C994 C995 1.366 . S
C994 C996 1.388 . S
C995 C994 1.366 . S
C995 C999 1.385 . S
C996 H977 0.951 . S
C996 C994 1.388 . S
C996 C997 1.366 . S
C997 C996 1.366 . S
C997 C998 1.414 . S
C997 C1000 1.499 . S
C998 H978 0.950 . S
C998 C997 1.414 . S
C998 C999 1.374 . S
C999 H979 0.950 . S
C999 C995 1.385 . S
C999 C998 1.374 . S
C1000 C997 1.499 . S
C1000 C1001 1.376 . S
C1000 C1002 1.389 . S
C1001 H980 0.953 . S
C1001 C1000 1.376 . S
C1001 C1017 1.371 1_565 S
C1002 C1000 1.389 . S
C1002 C1003 1.524 . S
C1002 C1016 1.371 1_565 S
C1003 C1002 1.524 . S
C1003 C1004 1.397 . S
C1003 C1008 1.363 . S
C1004 H981 0.950 . S
C1004 C1003 1.397 . S
C1004 C1005 1.334 . S
C1005 H982 0.950 . S
C1005 C1004 1.334 . S
C1005 C1006 1.287 . S
C1006 C1005 1.287 . S
C1006 C1007 1.524 . S
C1006 H1025 0.913 . S
C1007 H983 0.950 . S
C1007 C1006 1.524 . S
C1007 C1008 1.415 . S
C1008 H984 0.950 . S
C1008 C1003 1.363 . S
C1008 C1007 1.415 . S
C1009 H985 0.951 . S
C1009 C1010 1.366 . S
C1009 C1011 1.388 . S
C1010 C1009 1.366 . S
C1010 C1014 1.385 . S
C1011 H986 0.951 . S
C1011 C1009 1.388 . S
C1011 C1012 1.366 . S
C1012 C1011 1.366 . S
C1012 C1013 1.414 . S
C1012 C1015 1.499 . S
C1013 H987 0.950 . S
C1013 C1012 1.414 . S
C1013 C1014 1.374 . S
C1014 H988 0.950 . S
C1014 C1010 1.385 . S
C1014 C1013 1.374 . S
C1015 C1012 1.499 . S
C1015 C1016 1.376 . S
C1015 C1017 1.389 . S
C1016 H989 0.953 . S
C1016 C1002 1.371 1_545 S
C1016 C1015 1.376 . S
C1017 C1001 1.371 1_545 S
C1017 C1015 1.389 . S
C1017 C1018 1.524 . S
C1018 C1017 1.524 . S
C1018 C1019 1.397 . S
C1018 C1023 1.363 . S
C1019 H990 0.950 . S
C1019 C1018 1.397 . S
C1019 C1020 1.334 . S
C1020 H991 0.950 . S
C1020 C1019 1.334 . S
C1020 C1021 1.287 . S
C1021 C1020 1.287 . S
C1021 C1022 1.524 . S
C1021 H1024 0.999 . S
C1022 H992 0.950 . S
C1022 C1021 1.524 . S
C1022 C1023 1.415 . S
C1023 H993 0.950 . S
C1023 C1018 1.363 . S
C1023 C1022 1.415 . S
H1024 C1021 0.999 . S
H1025 C1006 0.913 . S
C145 C19 1.349 . S
C160 C104 1.348 . S
C195 C40 1.348 . S
C210 C125 1.349 . S
C245 C20 1.349 . S
C260 C62 1.348 . S
C295 C82 1.349 . S
C310 C41 1.349 . S
C345 C61 1.348 . S
C360 C103 1.349 . S
C395 C83 1.349 . S
C410 C124 1.349 . S
C445 C121 1.361 . S
C460 C3 1.361 . S
C495 C24 1.363 . S
C510 C16 1.361 . S
C545 C37 1.361 . S
C560 C58 1.362 . S
C595 C45 1.362 . S
C610 C66 1.362 . S
C645 C79 1.362 . S
C660 C87 1.361 . S
C695 C108 1.362 . S
C710 C100 1.361 . S
C745 C46 1.173 . S
C760 C67 1.174 . S
C795 C70 1.174 . S
C810 C88 1.175 . S
C845 C91 1.172 . S
C860 C109 1.173 . S
C895 C112 1.174 . S
C910 C4 1.173 . S
C945 C25 1.174 . S
C960 C7 1.173 . S
C995 C49 1.174 . S
C1010 C28 1.173 . S
