# Generated by pormake.
# Topology snk, (6)-cn, num edge types: 1
# Building blocks:
#     Node 0, Type 0, BuildingBlock: BETGAK_clean_sbu_0, # of connection points: 6
#     Node 1, Type 0, BuildingBlock: BETGAK_clean_sbu_0, # of connection points: 6
#     Node 2, Type 0, BuildingBlock: BETGAK_clean_sbu_0, # of connection points: 6
#     Node 3, Type 0, BuildingBlock: BETGAK_clean_sbu_0, # of connection points: 6
#     Node 4, Type 0, BuildingBlock: BETGAK_clean_sbu_0, # of connection points: 6
#     Node 5, Type 0, BuildingBlock: BETGAK_clean_sbu_0, # of connection points: 6
#     Node 6, Type 0, BuildingBlock: BETGAK_clean_sbu_0, # of connection points: 6
#     Node 7, Type 0, BuildingBlock: BETGAK_clean_sbu_0, # of connection points: 6
#     Edge 8, Type (0, 0), BuildingBlock: KIFKEQ_clean_linker_1, # of connection points: 2
#     Edge 9, Type (0, 0), BuildingBlock: KIFKEQ_clean_linker_1, # of connection points: 2
#     Edge 10, Type (0, 0), BuildingBlock: KIFKEQ_clean_linker_1, # of connection points: 2
#     Edge 11, Type (0, 0), BuildingBlock: KIFKEQ_clean_linker_1, # of connection points: 2
#     Edge 12, Type (0, 0), BuildingBlock: KIFKEQ_clean_linker_1, # of connection points: 2
#     Edge 13, Type (0, 0), BuildingBlock: KIFKEQ_clean_linker_1, # of connection points: 2
#     Edge 14, Type (0, 0), BuildingBlock: KIFKEQ_clean_linker_1, # of connection points: 2
#     Edge 15, Type (0, 0), BuildingBlock: KIFKEQ_clean_linker_1, # of connection points: 2
#     Edge 16, Type (0, 0), BuildingBlock: KIFKEQ_clean_linker_1, # of connection points: 2
#     Edge 17, Type (0, 0), BuildingBlock: KIFKEQ_clean_linker_1, # of connection points: 2
#     Edge 18, Type (0, 0), BuildingBlock: KIFKEQ_clean_linker_1, # of connection points: 2
#     Edge 19, Type (0, 0), BuildingBlock: KIFKEQ_clean_linker_1, # of connection points: 2
#     Edge 20, Type (0, 0), BuildingBlock: KIFKEQ_clean_linker_1, # of connection points: 2
#     Edge 21, Type (0, 0), BuildingBlock: KIFKEQ_clean_linker_1, # of connection points: 2
#     Edge 22, Type (0, 0), BuildingBlock: KIFKEQ_clean_linker_1, # of connection points: 2
#     Edge 23, Type (0, 0), BuildingBlock: KIFKEQ_clean_linker_1, # of connection points: 2
#     Edge 24, Type (0, 0), BuildingBlock: KIFKEQ_clean_linker_1, # of connection points: 2
#     Edge 25, Type (0, 0), BuildingBlock: KIFKEQ_clean_linker_1, # of connection points: 2
#     Edge 26, Type (0, 0), BuildingBlock: KIFKEQ_clean_linker_1, # of connection points: 2
#     Edge 27, Type (0, 0), BuildingBlock: KIFKEQ_clean_linker_1, # of connection points: 2
#     Edge 28, Type (0, 0), BuildingBlock: KIFKEQ_clean_linker_1, # of connection points: 2
#     Edge 29, Type (0, 0), BuildingBlock: KIFKEQ_clean_linker_1, # of connection points: 2
#     Edge 30, Type (0, 0), BuildingBlock: KIFKEQ_clean_linker_1, # of connection points: 2
#     Edge 31, Type (0, 0), BuildingBlock: KIFKEQ_clean_linker_1, # of connection points: 2
# Relax obj value: 0.091
# Max RMSD: 0.153
# Mean RMSD: 0.124
data_MOF--net-snk--node1-BETGAK_clean_sbu_0--edge1-KIFKEQ_clean_linker_1
_symmetry_space_group_name_H-M    P1
_symmetry_Int_Tables_number       1
_symmetry_cell_setting            triclinic
loop_
_symmetry_equiv_pos_as_xyz
'x, y, z'
_cell_length_a     38.132934
_cell_length_b     38.266304
_cell_length_c     25.519388
_cell_angle_alpha  84.170539
_cell_angle_beta   95.838442
_cell_angle_gamma 89.212337
loop_
_atom_site_label
_atom_site_type_symbol
_atom_site_fract_x
_atom_site_fract_y
_atom_site_fract_z
_atom_type_partial_charge
La0 La 0.99934 1.0004 0.47033 0.0
La1 La 0.03473 0.02255 0.57294 0.0
C2 C 0.97014 0.99842 0.37718 0.0
C3 C 0.97921 1.00476 0.32219 0.0
C4 C 1.01431 1.00334 0.31022 0.0
C5 C 0.02198 1.00669 0.25735 0.0
C6 C 0.99471 1.01169 0.21548 0.0
C7 C 0.95967 0.01396 0.22797 0.0
C8 C 0.95206 1.01049 0.28073 0.0
C9 C 0.04728 0.95625 0.52203 0.0
C10 C 0.06677 0.05014 0.4703 0.0
C11 C 0.06346 0.02413 0.66639 0.0
C12 C 0.05337 0.02051 0.72128 0.0
C13 C 0.02637 0.04158 0.73638 0.0
C14 C 0.01931 0.03981 0.78939 0.0
C15 C 0.03893 0.01683 0.82854 0.0
C16 C 0.06527 0.9951 0.81303 0.0
C17 C 0.07245 0.99702 0.76005 0.0
C18 C 0.98651 0.06658 0.52162 0.0
C19 C 0.96707 0.97275 0.57282 0.0
O20 O 0.98598 0.97146 0.40605 0.0
O21 O 0.96846 0.02583 0.40374 0.0
O22 O 0.01891 0.94666 0.49554 0.0
O23 O 0.04893 0.98913 0.51669 0.0
O24 O 0.03776 0.03927 0.44407 0.0
O25 O 0.07432 0.04114 0.52175 0.0
O26 O 0.05136 0.05196 0.63543 0.0
O27 O 0.0626 0.99585 0.64139 0.0
O28 O 1.0146 0.07626 0.54864 0.0
O29 O 0.98517 0.0337 0.52677 0.0
O30 O 0.99569 0.98427 0.59928 0.0
O31 O 0.9599 0.981 0.52115 0.0
H32 H 0.03572 0.99909 0.34168 0.0
H33 H 0.04927 1.00531 0.24928 0.0
H34 H 0.93797 0.01739 0.19692 0.0
H35 H 0.9248 1.01155 0.28914 0.0
H36 H 1.01102 0.05985 0.70745 0.0
H37 H 0.99848 0.05652 0.79972 0.0
H38 H 0.08109 0.97731 0.84209 0.0
H39 H 0.09349 0.98061 0.74951 0.0
La40 La 0.25465 0.74443 0.82466 0.0
La41 La 0.27822 0.77915 0.72309 0.0
C42 C 0.25174 0.71603 0.91787 0.0
C43 C 0.25579 0.72609 0.97273 0.0
C44 C 0.23383 0.75201 0.98871 0.0
C45 C 0.23628 0.75918 0.04166 0.0
C46 C 0.26083 0.74075 0.07984 0.0
C47 C 0.28332 0.71541 0.06352 0.0
C48 C 0.2807 0.70808 1.01061 0.0
C49 C 0.21091 0.79231 0.77192 0.0
C50 C 0.3047 0.81166 0.8258 0.0
C51 C 0.28224 0.80747 0.63008 0.0
C52 C 0.27867 0.79796 0.57485 0.0
C53 C 0.30893 0.79623 0.548 0.0
C54 C 0.30636 0.78923 0.49507 0.0
C55 C 0.27336 0.78416 0.46718 0.0
C56 C 0.24302 0.78553 0.49426 0.0
C57 C 0.24563 0.79238 0.54747 0.0
C58 C 0.32187 0.73128 0.77633 0.0
C59 C 0.22802 0.71214 0.72181 0.0
O60 O 0.22433 0.72911 0.88669 0.0
O61 O 0.28019 0.71566 0.89314 0.0
O62 O 0.20095 0.76424 0.79846 0.0
O63 O 0.2439 0.79383 0.77798 0.0
O64 O 0.29312 0.78304 0.85197 0.0
O65 O 0.29655 0.81881 0.7741 0.0
O66 O 0.30917 0.79335 0.66126 0.0
O67 O 0.25374 0.80861 0.65464 0.0
O68 O 0.33189 0.75949 0.75025 0.0
O69 O 0.2889 0.7298 0.76973 0.0
O70 O 0.23947 0.74084 0.69569 0.0
O71 O 0.23632 0.70487 0.77347 0.0
H72 H 0.2144 0.7665 0.96052 0.0
H73 H 0.21893 0.7792 0.05273 0.0
H74 H 0.30231 0.70053 0.09194 0.0
H75 H 0.29778 0.68784 0.99944 0.0
H76 H 0.33473 0.80061 0.5679 0.0
H77 H 0.33037 0.78776 0.47604 0.0
H78 H 0.21712 0.78215 0.47402 0.0
H79 H 0.22173 0.79378 0.56682 0.0
La80 La 0.52925 0.9934 0.07722 0.0
La81 La 0.50431 0.03012 0.96978 0.0
C82 C 0.552 0.97908 0.17368 0.0
C83 C 0.54332 0.98626 0.22705 0.0
C84 C 0.52192 0.96332 0.25559 0.0
C85 C 0.51631 0.96814 0.30772 0.0
C86 C 0.53216 0.99586 0.33287 0.0
C87 C 0.55308 0.01917 0.30399 0.0
C88 C 0.55869 0.01436 0.25179 0.0
C89 C 0.48343 0.95867 1.01946 0.0
C90 C 0.4663 0.05141 0.06434 0.0
C91 C 0.48143 0.04448 0.87348 0.0
C92 C 0.48908 0.03553 0.82076 0.0
C93 C 0.52342 0.03644 0.80525 0.0
C94 C 0.52937 0.03031 0.75365 0.0
C95 C 0.50116 0.02288 0.71673 0.0
C96 C 0.46701 0.0211 0.73294 0.0
C97 C 0.46105 0.02746 0.78434 0.0
C98 C 0.54994 0.06487 0.02788 0.0
C99 C 0.56714 0.97207 0.98273 0.0
O100 O 0.53058 0.95921 0.14718 0.0
O101 O 0.56303 1.0053 0.14303 0.0
O102 O 0.50897 0.94406 0.05206 0.0
O103 O 0.48286 0.99138 1.02252 0.0
O104 O 0.49081 0.03247 0.09595 0.0
O105 O 0.4639 0.05162 1.01224 0.0
O106 O 0.50458 0.06317 0.89907 0.0
O107 O 0.46904 0.01942 0.90473 0.0
O108 O 0.52438 0.07947 0.99529 0.0
O109 O 0.55063 0.03219 0.0245 0.0
O110 O 0.54219 0.99044 0.95119 0.0
O111 O 0.56997 0.97252 0.03473 0.0
H112 H 0.50995 0.94118 0.23802 0.0
H113 H 0.49964 0.94997 0.32844 0.0
H114 H 0.56607 0.04054 0.32224 0.0
H115 H 0.57576 0.03221 0.23127 0.0
H116 H 0.5456 0.04234 0.83269 0.0
H117 H 0.55605 0.03141 0.74262 0.0
H118 H 0.44466 0.01577 0.7054 0.0
H119 H 0.43436 0.02669 0.7954 0.0
La120 La 0.24854 0.27447 0.21971 0.0
La121 La 0.28483 0.24867 0.32767 0.0
C122 C 0.23475 0.29833 0.12368 0.0
C123 C 0.24358 0.29114 0.07078 0.0
C124 C 0.24841 0.25672 0.05774 0.0
C125 C 0.25474 0.25076 1.0062 0.0
C126 C 0.25649 0.27911 0.96681 0.0
C127 C 0.25232 0.31351 0.98053 0.0
C128 C 0.24592 0.31941 0.03194 0.0
C129 C 0.21354 0.22835 0.27624 0.0
C130 C 0.30658 0.21161 0.23256 0.0
C131 C 0.298 0.22507 0.42393 0.0
C132 C 0.29094 0.23378 0.47727 0.0
C133 C 0.30751 0.2619 0.50047 0.0
C134 C 0.3029 0.26775 0.55264 0.0
C135 C 0.28164 0.24566 0.58287 0.0
C136 C 0.26451 0.21802 0.55919 0.0
C137 C 0.26923 0.21209 0.50712 0.0
C138 C 0.31982 0.29486 0.27111 0.0
C139 C 0.22683 0.31174 0.31483 0.0
O140 O 0.21566 0.27521 0.14852 0.0
O141 O 0.26016 0.30981 0.15541 0.0
O142 O 0.19889 0.2539 0.24379 0.0
O143 O 0.24639 0.22794 0.27362 0.0
O144 O 0.2884 0.23674 0.20116 0.0
O145 O 0.30583 0.2084 0.28455 0.0
O146 O 0.31904 0.24544 0.39791 0.0
O147 O 0.27112 0.21551 0.39295 0.0
O148 O 0.33451 0.26943 0.30378 0.0
O149 O 0.28698 0.29515 0.27384 0.0
O150 O 0.24584 0.28725 0.34635 0.0
O151 O 0.2267 0.31432 0.26272 0.0
H152 H 0.24686 0.23447 0.08716 0.0
H153 H 0.25829 0.22397 0.9972 0.0
H154 H 0.25306 0.33593 0.95117 0.0
H155 H 0.24219 0.34615 0.04115 0.0
H156 H 0.32452 0.27911 0.47872 0.0
H157 H 0.31611 0.28956 0.56939 0.0
H158 H 0.24827 0.20024 0.58145 0.0
H159 H 0.25644 0.18999 0.49052 0.0
La160 La 0.75459 0.24481 0.32499 0.0
La161 La 0.77789 0.27965 0.22333 0.0
C162 C 0.75192 0.21625 0.41817 0.0
C163 C 0.7564 0.226 0.47317 0.0
C164 C 0.73584 0.253 0.48923 0.0
C165 C 0.73844 0.25978 0.54237 0.0
C166 C 0.76175 0.23986 0.58077 0.0
C167 C 0.78295 0.21348 0.56421 0.0
C168 C 0.78019 0.20659 0.51111 0.0
C169 C 0.71081 0.29282 0.27267 0.0
C170 C 0.80483 0.31189 0.32605 0.0
C171 C 0.78147 0.30782 0.13012 0.0
C172 C 0.77764 0.29785 0.0751 0.0
C173 C 0.80788 0.29423 0.04871 0.0
C174 C 0.80506 0.28637 0.99615 0.0
C175 C 0.77187 0.28227 0.96832 0.0
C176 C 0.74153 0.28592 0.99464 0.0
C177 C 0.74436 0.29357 0.04749 0.0
C178 C 0.82159 0.23165 0.27601 0.0
C179 C 0.72759 0.21264 0.22223 0.0
O180 O 0.72451 0.22975 0.3874 0.0
O181 O 0.78021 0.21567 0.3931 0.0
O182 O 0.70088 0.26469 0.29912 0.0
O183 O 0.74381 0.2943 0.27855 0.0
O184 O 0.79326 0.28325 0.35217 0.0
O185 O 0.79654 0.31918 0.2744 0.0
O186 O 0.80856 0.29398 0.16122 0.0
O187 O 0.7531 0.309 0.15498 0.0
O188 O 0.83158 0.25986 0.24989 0.0
O189 O 0.78861 0.23021 0.2697 0.0
O190 O 0.73904 0.24134 0.19611 0.0
O191 O 0.73596 0.20534 0.27386 0.0
H192 H 0.71719 0.26847 0.46099 0.0
H193 H 0.7214 0.28003 0.55353 0.0
H194 H 0.80167 0.19801 0.59231 0.0
H195 H 0.79635 0.18566 0.49979 0.0
H196 H 0.83385 0.29789 0.06858 0.0
H197 H 0.82893 0.28431 0.97689 0.0
H198 H 0.71557 0.28268 0.97445 0.0
H199 H 0.72048 0.29638 0.06647 0.0
La200 La 0.74901 0.77309 0.72282 0.0
La201 La 0.7879 0.75037 0.83065 0.0
C202 C 0.73425 0.79511 0.62624 0.0
C203 C 0.74212 0.78657 0.57323 0.0
C204 C 0.73198 0.75473 0.55371 0.0
C205 C 0.73719 0.74862 0.50182 0.0
C206 C 0.75275 0.77411 0.46839 0.0
C207 C 0.76358 0.80557 0.48849 0.0
C208 C 0.7582 0.81175 0.54022 0.0
C209 C 0.71541 0.7286 0.78414 0.0
C210 C 0.80806 0.71113 0.73622 0.0
C211 C 0.80544 0.72936 0.92694 0.0
C212 C 0.79462 0.73415 0.97975 0.0
C213 C 0.78379 0.76715 0.99271 0.0
C214 C 0.77644 0.77151 0.04436 0.0
C215 C 0.77981 0.74295 0.08413 0.0
C216 C 0.78979 0.70977 0.07047 0.0
C217 C 0.79711 0.70547 1.01886 0.0
C218 C 0.82118 0.79486 0.76881 0.0
C219 C 0.72773 0.81113 0.81713 0.0
O220 O 0.71483 0.7733 0.65293 0.0
O221 O 0.76024 0.80687 0.65662 0.0
O222 O 0.69996 0.75175 0.7483 0.0
O223 O 0.74815 0.72832 0.7805 0.0
O224 O 0.78781 0.73442 0.70436 0.0
O225 O 0.80986 0.71011 0.78842 0.0
O226 O 0.81904 0.75646 0.90149 0.0
O227 O 0.78391 0.71251 0.89563 0.0
O228 O 0.83657 0.77009 0.80196 0.0
O229 O 0.78856 0.79538 0.77351 0.0
O230 O 0.74657 0.78663 0.8489 0.0
O231 O 0.72788 0.81367 0.76507 0.0
H232 H 0.71956 0.73471 0.57815 0.0
H233 H 0.72896 0.72392 0.48782 0.0
H234 H 0.77529 0.82593 0.46372 0.0
H235 H 0.76602 0.8366 0.55412 0.0
H236 H 0.78169 0.7897 0.96321 0.0
H237 H 0.76831 0.79731 0.05319 0.0
H238 H 0.79308 0.68728 0.10007 0.0
H239 H 0.80556 0.67981 1.00977 0.0
La240 La 0.4982 0.50232 0.97538 0.0
La241 La 0.53368 0.52394 0.07826 0.0
C242 C 0.46883 0.50059 0.88224 0.0
C243 C 0.47776 0.50704 0.8272 0.0
C244 C 0.5129 0.50685 0.8152 0.0
C245 C 0.52054 0.5102 0.76232 0.0
C246 C 0.4932 0.51396 0.72044 0.0
C247 C 0.4581 0.51498 0.73296 0.0
C248 C 0.45051 0.51152 0.78574 0.0
C249 C 0.54642 0.45811 0.02625 0.0
C250 C 0.5654 0.55228 0.97578 0.0
C251 C 0.56257 0.52529 0.17168 0.0
C252 C 0.55251 0.5217 0.22656 0.0
C253 C 0.52439 0.54154 0.24105 0.0
C254 C 0.51725 0.53988 0.29403 0.0
C255 C 0.5379 0.51822 0.33372 0.0
C256 C 0.56539 0.49767 0.3188 0.0
C257 C 0.57265 0.49949 0.26586 0.0
C258 C 0.48509 0.56798 0.02771 0.0
C259 C 0.46637 0.47374 0.07786 0.0
O260 O 0.48475 0.47359 0.91088 0.0
O261 O 0.46724 0.52792 0.90899 0.0
O262 O 0.51807 0.44858 0.99969 0.0
O263 O 0.54793 0.491 1.02141 0.0
O264 O 0.53624 0.54176 0.94953 0.0
O265 O 0.57321 0.54265 0.02702 0.0
O266 O 0.55058 0.5532 0.14082 0.0
O267 O 0.56146 0.49704 0.14662 0.0
O268 O 0.51323 0.57765 0.05465 0.0
O269 O 0.48399 0.53509 0.03246 0.0
O270 O 0.49501 0.48521 0.10434 0.0
O271 O 0.45899 0.48239 0.0263 0.0
H272 H 0.53436 0.50353 0.84668 0.0
H273 H 0.54787 0.5098 0.75424 0.0
H274 H 0.43634 0.5174 0.70194 0.0
H275 H 0.42323 0.5116 0.79417 0.0
H276 H 0.5082 0.55877 0.21164 0.0
H277 H 0.49553 0.55565 0.30391 0.0
H278 H 0.58202 0.48091 0.34828 0.0
H279 H 0.59454 0.48403 0.25576 0.0
La280 La 0.02953 0.49295 0.5787 0.0
La281 La 1.00396 0.5295 0.47105 0.0
C282 C 0.05306 0.47847 0.67481 0.0
C283 C 0.04623 0.48748 0.7278 0.0
C284 C 1.01191 0.49375 0.74065 0.0
C285 C 1.00618 0.50022 0.79224 0.0
C286 C 0.03467 0.50056 0.83193 0.0
C287 C 0.06902 0.49489 0.8184 0.0
C288 C 0.07469 0.48843 0.76692 0.0
C289 C 0.98349 0.45818 0.52135 0.0
C290 C 0.9667 0.55096 0.56617 0.0
C291 C 0.9806 0.54308 0.37471 0.0
C292 C 0.98921 0.53577 0.32142 0.0
C293 C 0.01892 0.55006 0.29948 0.0
C294 C 0.0248 0.54531 0.24735 0.0
C295 C 1.00118 0.52614 0.21596 0.0
C296 C 0.97193 0.51123 0.23842 0.0
C297 C 0.96597 0.51611 0.29044 0.0
C298 C 0.04995 0.56439 0.52832 0.0
C299 C 0.06716 0.47164 0.48371 0.0
O300 O 0.02915 0.4603 0.6498 0.0
O301 O 0.06544 0.50334 0.64323 0.0
O302 O 1.00916 0.44356 0.55371 0.0
O303 O 0.98296 0.49088 0.52439 0.0
O304 O 0.99197 0.53284 0.59743 0.0
O305 O 0.96345 0.55029 0.51416 0.0
O306 O 1.00153 0.56357 0.40086 0.0
O307 O 0.97036 0.51656 0.40558 0.0
O308 O 0.02442 0.57896 0.49563 0.0
O309 O 0.05048 0.53167 0.52531 0.0
O310 O 0.04265 0.49068 0.45224 0.0
O311 O 0.06963 0.4713 0.53584 0.0
H312 H 0.98952 0.4932 0.71105 0.0
H313 H 0.97944 0.50495 0.80102 0.0
H314 H 0.09155 0.49449 0.84796 0.0
H315 H 0.10136 0.48353 0.75787 0.0
H316 H 0.03738 0.56539 0.32218 0.0
H317 H 0.04783 0.55676 0.23154 0.0
H318 H 0.953 0.49664 0.21527 0.0
H319 H 0.94269 0.50509 0.30612 0.0
H320 H 0.05613 0.07952 0.36762 0.0
H321 H 0.13146 0.07402 0.5069 0.0
H322 H 0.09296 0.1212 0.32136 0.0
H323 H 0.16834 0.11598 0.46026 0.0
H324 H 0.23907 0.16763 0.33535 0.0
H325 H 0.20518 0.12294 0.38278 0.0
H326 H 0.1093 0.1832 0.32971 0.0
H327 H 0.14308 0.22781 0.28316 0.0
C328 C 0.08066 0.08696 0.38835 0.0
C329 C 0.09071 0.07346 0.44117 0.0
C330 C 0.10168 0.11106 0.36184 0.0
C331 C 0.13344 0.12213 0.38726 0.0
C332 C 0.14411 0.10784 0.43951 0.0
C333 C 0.12289 0.0839 0.46628 0.0
C334 C 0.21082 0.17143 0.3344 0.0
C335 C 0.19373 0.2013 0.30583 0.0
C336 C 0.19142 0.14585 0.36146 0.0
C337 C 0.15452 0.14943 0.35975 0.0
C338 C 0.1376 0.17939 0.3312 0.0
C339 C 0.15698 0.20504 0.30472 0.0
H340 H 0.03097 0.89614 0.57888 0.0
H341 H 0.11744 0.96376 0.54719 0.0
H342 H 0.07019 0.85757 0.64094 0.0
H343 H 0.15783 0.92372 0.60538 0.0
H344 H 0.21853 0.86229 0.74734 0.0
H345 H 0.17861 0.90263 0.68886 0.0
H346 H 0.1128 0.81528 0.65126 0.0
H347 H 0.1512 0.77609 0.71363 0.0
C348 C 0.05867 0.90227 0.58465 0.0
C349 C 0.07139 0.93263 0.55834 0.0
C350 C 0.08136 0.88001 0.61991 0.0
C351 C 0.11762 0.887 0.62829 0.0
C352 C 0.13015 0.91754 0.60122 0.0
C353 C 0.10714 0.9404 0.56733 0.0
C354 C 0.19529 0.85204 0.72666 0.0
C355 C 0.18752 0.81639 0.73521 0.0
C356 C 0.17249 0.87503 0.69261 0.0
C357 C 0.14206 0.86256 0.66492 0.0
C358 C 0.13514 0.8264 0.67278 0.0
C359 C 0.1573 0.80372 0.7082 0.0
H360 H 0.32813 0.87641 0.7896 0.0
H361 H 0.33453 0.8009 0.92836 0.0
H362 H 0.37011 0.91329 0.83621 0.0
H363 H 0.37624 0.83776 0.97469 0.0
H364 H 0.4223 0.98391 0.96039 0.0
H365 H 0.37741 0.94993 0.91336 0.0
H366 H 0.43817 0.85458 0.96656 0.0
H367 H 0.48294 0.88843 1.01272 0.0
C368 C 0.3382 0.8678 0.83014 0.0
C369 C 0.32797 0.83559 0.85511 0.0
C370 C 0.36216 0.88903 0.8569 0.0
C371 C 0.37673 0.87836 0.90903 0.0
C372 C 0.36588 0.84654 0.93431 0.0
C373 C 0.34175 0.8255 0.9078 0.0
C374 C 0.42618 0.95575 0.96146 0.0
C375 C 0.45623 0.93886 0.98996 0.0
C376 C 0.40047 0.93629 0.93463 0.0
C377 C 0.4041 0.89951 0.93647 0.0
C378 C 0.43427 0.88278 0.96496 0.0
C379 C 0.46003 0.90221 0.99121 0.0
H380 H 0.44797 0.04322 0.16558 0.0
H381 H 0.428 0.10921 1.01767 0.0
H382 H 0.40772 0.07979 0.2058 0.0
H383 H 0.38937 0.14712 0.05841 0.0
H384 H 0.29927 0.19478 0.13055 0.0
H385 H 0.3356 0.15445 0.09026 0.0
H386 H 0.40116 0.13306 0.23907 0.0
H387 H 0.3634 0.17186 0.2798 0.0
C388 C 0.4351 0.06572 0.14172 0.0
C389 C 0.4411 0.07324 0.08838 0.0
C390 C 0.41217 0.08697 0.16493 0.0
C391 C 0.39515 0.11677 0.13571 0.0
C392 C 0.40124 0.12413 0.08217 0.0
C393 C 0.42364 0.10247 0.05872 0.0
C394 C 0.32133 0.18127 0.15469 0.0
C395 C 0.32838 0.18647 0.20841 0.0
C396 C 0.34245 0.15827 0.13146 0.0
C397 C 0.37169 0.14035 0.16106 0.0
C398 C 0.3786 0.14565 0.21497 0.0
C399 C 0.35704 0.16814 0.23842 0.0
H400 H 0.97781 0.94309 0.67529 0.0
H401 H 0.90212 0.94937 0.53637 0.0
H402 H 0.94086 0.9015 0.72151 0.0
H403 H 0.86511 0.90748 0.58299 0.0
H404 H 0.79498 0.85552 0.70973 0.0
H405 H 0.82851 0.90025 0.6615 0.0
H406 H 0.92449 0.83952 0.71167 0.0
H407 H 0.89115 0.79495 0.75891 0.0
C408 C 0.95315 0.93586 0.65467 0.0
C409 C 0.94305 0.94953 0.60196 0.0
C410 C 0.93207 0.91182 0.68113 0.0
C411 C 0.9002 0.90096 0.65577 0.0
C412 C 0.88944 0.91545 0.60366 0.0
C413 C 0.91074 0.93934 0.57692 0.0
C414 C 0.82316 0.85162 0.7098 0.0
C415 C 0.84044 0.82169 0.73788 0.0
C416 C 0.84235 0.87721 0.68232 0.0
C417 C 0.8792 0.87355 0.68315 0.0
C418 C 0.89624 0.84341 0.71093 0.0
C419 C 0.8771 0.81779 0.73779 0.0
H420 H 0.91633 0.05866 0.49696 0.0
H421 H 1.00219 0.12714 0.46559 0.0
H422 H 0.87545 0.09896 0.44002 0.0
H423 H 0.96251 0.16598 0.40472 0.0
H424 H 0.88118 0.24756 0.33473 0.0
H425 H 0.91976 0.20801 0.3962 0.0
H426 H 0.85409 0.12086 0.35709 0.0
H427 H 0.81396 0.16155 0.29952 0.0
C428 C 0.92638 0.08225 0.47713 0.0
C429 C 0.9621 0.0902 0.48586 0.0
C430 C 0.90309 0.10527 0.44398 0.0
C431 C 0.91533 0.13615 0.41741 0.0
C432 C 0.95156 0.14328 0.42545 0.0
C433 C 0.97452 0.12087 0.46 0.0
C434 C 0.87513 0.2199 0.33965 0.0
C435 C 0.84491 0.20738 0.31245 0.0
C436 C 0.8974 0.19702 0.37454 0.0
C437 C 0.89062 0.1608 0.38162 0.0
C438 C 0.86013 0.14849 0.35387 0.0
C439 C 0.83721 0.17168 0.32036 0.0
H440 H 0.70428 0.14785 0.25844 0.0
H441 H 0.6978 0.22332 0.1196 0.0
H442 H 0.66258 0.11077 0.21175 0.0
H443 H 0.65639 0.18622 0.07317 0.0
H444 H 0.61095 0.03981 0.08758 0.0
H445 H 0.65557 0.074 0.1348 0.0
H446 H 0.59458 0.16911 0.08094 0.0
H447 H 0.55012 0.13507 0.03457 0.0
C448 C 0.69424 0.15642 0.21787 0.0
C449 C 0.70436 0.18868 0.19291 0.0
C450 C 0.67045 0.13506 0.19105 0.0
C451 C 0.65596 0.14564 0.13887 0.0
C452 C 0.66668 0.17752 0.1136 0.0
C453 C 0.69065 0.1987 0.14017 0.0
C454 C 0.60699 0.06796 0.08638 0.0
C455 C 0.57697 0.08474 0.0576 0.0
C456 C 0.63253 0.08755 0.11333 0.0
C457 C 0.62876 0.12433 0.11135 0.0
C458 C 0.5986 0.14093 0.08264 0.0
C459 C 0.57302 0.12138 0.05626 0.0
H460 H 0.66964 0.84896 0.76982 0.0
H461 H 0.73546 0.82981 0.91813 0.0
H462 H 0.63155 0.8879 0.80978 0.0
H463 H 0.69874 0.87021 0.9576 0.0
H464 H 0.60656 0.91534 0.03054 0.0
H465 H 0.64521 0.87714 0.99038 0.0
H466 H 0.6244 0.94188 0.84094 0.0
H467 H 0.58416 0.97875 0.8807 0.0
C468 C 0.67627 0.85349 0.81083 0.0
C469 C 0.70552 0.83616 0.84084 0.0
C470 C 0.65451 0.87607 0.83381 0.0
C471 C 0.6618 0.88246 0.88723 0.0
C472 C 0.69159 0.86553 0.91681 0.0
C473 C 0.71292 0.84245 0.89406 0.0
C474 C 0.61038 0.92146 0.98915 0.0
C475 C 0.59226 0.95006 0.95884 0.0
C476 C 0.63278 0.89962 0.96603 0.0
C477 C 0.63822 0.90618 0.91212 0.0
C478 C 0.62049 0.93533 0.88217 0.0
C479 C 0.59756 0.95676 0.90509 0.0
H480 H 0.63345 0.56894 1.00811 0.0
H481 H 0.55144 0.58899 0.87833 0.0
H482 H 0.67178 0.60904 0.96148 0.0
H483 H 0.58887 0.63014 0.83286 0.0
H484 H 0.67171 0.68192 0.74048 0.0
H485 H 0.6379 0.63674 0.786 0.0
H486 H 0.68081 0.6688 0.93679 0.0
H487 H 0.7155 0.71296 0.89058 0.0
C488 C 0.62357 0.58197 0.96967 0.0
C489 C 0.58941 0.57563 0.94692 0.0
C490 C 0.64547 0.60522 0.94301 0.0
C491 C 0.63361 0.62307 0.89318 0.0
C492 C 0.5994 0.61648 0.87052 0.0
C493 C 0.57773 0.59294 0.89683 0.0
C494 C 0.6741 0.67885 0.78339 0.0
C495 C 0.69656 0.70033 0.81219 0.0
C496 C 0.65451 0.6532 0.80961 0.0
C497 C 0.65632 0.64898 0.86535 0.0
C498 C 0.67914 0.6706 0.894 0.0
C499 C 0.69913 0.69592 0.86764 0.0
H500 H 0.71847 0.36287 0.24899 0.0
H501 H 0.65091 0.27699 0.21451 0.0
H502 H 0.6784 0.40356 0.19137 0.0
H503 H 0.61235 0.31654 0.15295 0.0
H504 H 0.53036 0.39769 0.08245 0.0
H505 H 0.56978 0.35879 0.14366 0.0
H506 H 0.65723 0.42528 0.10838 0.0
H507 H 0.61663 0.46563 0.05108 0.0
C508 C 0.69514 0.35277 0.22832 0.0
C509 C 0.68736 0.3171 0.23641 0.0
C510 C 0.67226 0.37596 0.19476 0.0
C511 C 0.6417 0.36369 0.16711 0.0
C512 C 0.63478 0.32751 0.17448 0.0
C513 C 0.65703 0.30463 0.20943 0.0
C514 C 0.55806 0.40382 0.0881 0.0
C515 C 0.57067 0.43436 0.06213 0.0
C516 C 0.58088 0.38138 0.12287 0.0
C517 C 0.61714 0.38835 0.13106 0.0
C518 C 0.62956 0.41909 0.10435 0.0
C519 C 0.60642 0.44214 0.07097 0.0
H520 H 0.92247 0.48353 0.46219 0.0
H521 H 0.98308 0.38798 0.51406 0.0
H522 H 0.87772 0.44972 0.41458 0.0
H523 H 0.93844 0.35428 0.46732 0.0
H524 H 0.82855 0.37661 0.29011 0.0
H525 H 0.8706 0.41329 0.33702 0.0
H526 H 0.87642 0.3375 0.47516 0.0
H527 H 0.83465 0.30085 0.42857 0.0
C528 C 0.92636 0.45539 0.46304 0.0
C529 C 0.95638 0.43842 0.49158 0.0
C530 C 0.90074 0.43602 0.43587 0.0
C531 C 0.90441 0.39926 0.4374 0.0
C532 C 0.93452 0.38246 0.46594 0.0
C533 C 0.96021 0.4018 0.49253 0.0
C534 C 0.83858 0.3679 0.33063 0.0
C535 C 0.82823 0.33568 0.35544 0.0
C536 C 0.86258 0.38901 0.35757 0.0
C537 C 0.87707 0.37821 0.4097 0.0
C538 C 0.86614 0.34637 0.43479 0.0
C539 C 0.84196 0.32546 0.40812 0.0
H540 H 0.79791 0.69101 0.63616 0.0
H541 H 0.86727 0.67422 0.7815 0.0
H542 H 0.83412 0.6507 0.59556 0.0
H543 H 0.9047 0.63539 0.74025 0.0
H544 H 0.9513 0.54457 0.6689 0.0
H545 H 0.91142 0.58101 0.70979 0.0
H546 H 0.88714 0.64465 0.56006 0.0
H547 H 0.92564 0.60683 0.5188 0.0
C548 C 0.82106 0.67882 0.65939 0.0
C549 C 0.82965 0.68577 0.71214 0.0
C550 C 0.84208 0.65585 0.63593 0.0
C551 C 0.87267 0.63967 0.66427 0.0
C552 C 0.8811 0.64665 0.71722 0.0
C553 C 0.8597 0.66914 0.74095 0.0
C554 C 0.93727 0.56622 0.64467 0.0
C555 C 0.94163 0.57274 0.59056 0.0
C556 C 0.91452 0.5874 0.66824 0.0
C557 C 0.89595 0.61614 0.63857 0.0
C558 C 0.90031 0.62249 0.58424 0.0
C559 C 0.92261 0.60089 0.56049 0.0
H560 H 0.39016 0.29511 0.26334 0.0
H561 H 0.29435 0.35601 0.21308 0.0
H562 H 0.42394 0.3398 0.21698 0.0
H563 H 0.32825 0.40079 0.16583 0.0
H564 H 0.40146 0.45027 0.0415 0.0
H565 H 0.36466 0.40812 0.08792 0.0
H566 H 0.44079 0.40153 0.22605 0.0
H567 H 0.47756 0.44339 0.17996 0.0
C568 C 0.3763 0.31806 0.24223 0.0
C569 C 0.33958 0.32197 0.24158 0.0
C570 C 0.39568 0.34375 0.21586 0.0
C571 C 0.37882 0.37394 0.1879 0.0
C572 C 0.34196 0.37769 0.18667 0.0
C573 C 0.32255 0.35206 0.21361 0.0
C574 C 0.41022 0.44004 0.08191 0.0
C575 C 0.44256 0.45019 0.10688 0.0
C576 C 0.38904 0.41599 0.10856 0.0
C577 C 0.39992 0.40128 0.16052 0.0
C578 C 0.43188 0.41201 0.18578 0.0
C579 C 0.45286 0.43623 0.1594 0.0
H580 H 0.50125 0.62823 0.97124 0.0
H581 H 0.41501 0.56014 1.00218 0.0
H582 H 0.46202 0.66669 0.90905 0.0
H583 H 0.37457 0.60007 0.94382 0.0
H584 H 0.31432 0.66129 0.80099 0.0
H585 H 0.35405 0.62112 0.86013 0.0
H586 H 0.41919 0.70877 0.89859 0.0
H587 H 0.38102 0.74778 0.83565 0.0
C588 C 0.47358 0.62199 0.96529 0.0
C589 C 0.46093 0.59152 0.99141 0.0
C590 C 0.45088 0.64417 0.92995 0.0
C591 C 0.41468 0.63702 0.92131 0.0
C592 C 0.40221 0.60638 0.94821 0.0
C593 C 0.42524 0.58358 0.98218 0.0
C594 C 0.33737 0.67164 0.82202 0.0
C595 C 0.34504 0.70732 0.81354 0.0
C596 C 0.36005 0.64875 0.85644 0.0
C597 C 0.39026 0.66136 0.88451 0.0
C598 C 0.39704 0.69756 0.87677 0.0
C599 C 0.375 0.72013 0.84101 0.0
H600 H 0.198 0.72297 0.61933 0.0
H601 H 0.20499 0.64719 0.75784 0.0
H602 H 0.15652 0.6859 0.57294 0.0
H603 H 0.16326 0.61013 0.71118 0.0
H604 H 0.11136 0.5394 0.58697 0.0
H605 H 0.15613 0.57359 0.63388 0.0
H606 H 0.09474 0.66863 0.58123 0.0
H607 H 0.0501 0.63458 0.53521 0.0
C608 C 0.19095 0.69828 0.63983 0.0
C609 C 0.20482 0.68817 0.69247 0.0
C610 C 0.16696 0.67712 0.61327 0.0
C611 C 0.15636 0.64516 0.63847 0.0
C612 C 0.17103 0.63448 0.69055 0.0
C613 C 0.19484 0.65583 0.71735 0.0
C614 C 0.10732 0.56753 0.58601 0.0
C615 C 0.07712 0.58428 0.55772 0.0
C616 C 0.13296 0.58711 0.61275 0.0
C617 C 0.12911 0.62388 0.61104 0.0
C618 C 0.09881 0.64045 0.58273 0.0
C619 C 0.07313 0.6209 0.55656 0.0
H620 H 0.23484 0.3293 0.41648 0.0
H621 H 0.16943 0.35084 0.26807 0.0
H622 H 0.19848 0.36962 0.45686 0.0
H623 H 0.13174 0.38963 0.30894 0.0
H624 H 0.08489 0.47963 0.3821 0.0
H625 H 0.12514 0.44318 0.34167 0.0
H626 H 0.14477 0.37647 0.48946 0.0
H627 H 0.10607 0.41422 0.53036 0.0
C628 C 0.21251 0.34252 0.39254 0.0
C629 C 0.20508 0.33692 0.33902 0.0
C630 C 0.19139 0.36551 0.41583 0.0
C631 C 0.16181 0.38302 0.38651 0.0
C632 C 0.15455 0.37734 0.33279 0.0
C633 C 0.17609 0.35486 0.30928 0.0
C634 C 0.09802 0.45729 0.406 0.0
C635 C 0.09235 0.44989 0.4595 0.0
C636 C 0.12097 0.43612 0.38268 0.0
C637 C 0.13835 0.40653 0.41196 0.0
C638 C 0.1326 0.39929 0.46564 0.0
C639 C 0.11016 0.42087 0.48918 0.0
H640 H 0.03698 0.95958 0.90237 0.0
H641 H 0.02674 0.07279 0.88386 0.0
H642 H 0.02709 0.95883 0.99546 0.0
H643 H 0.01712 0.07211 0.97691 0.0
H644 H 0.96412 0.05528 0.13054 0.0
H645 H 0.9745 0.05614 0.03777 0.0
H646 H 0.05407 0.97384 0.07967 0.0
H647 H 0.04269 0.97207 0.17223 0.0
C648 C 0.03289 0.98434 0.91823 0.0
C649 C 0.03256 0.01623 0.88544 0.0
C650 C 0.02728 0.98393 0.97172 0.0
C651 C 0.02129 0.01542 0.99395 0.0
C652 C 0.02103 0.0473 0.96111 0.0
C653 C 0.02655 0.04769 0.90763 0.0
C654 C 0.98369 0.03721 0.11998 0.0
C655 C 1.00248 0.01354 0.15904 0.0
C656 C 0.98993 0.03795 0.06673 0.0
C657 C 1.01512 0.01502 0.05096 0.0
C658 C 0.03417 0.9916 0.09012 0.0
C659 C 0.02797 0.9909 0.14341 0.0
H660 H 0.31146 0.81476 0.3899 0.0
H661 H 0.2293 0.73996 0.41431 0.0
H662 H 0.30842 0.80409 0.29714 0.0
H663 H 0.22592 0.72979 0.32102 0.0
H664 H 0.20578 0.74945 0.13878 0.0
H665 H 0.20833 0.76025 0.23177 0.0
H666 H 0.32211 0.75698 0.24279 0.0
H667 H 0.31954 0.74692 0.14949 0.0
C668 C 0.29293 0.7958 0.37571 0.0
C669 C 0.27079 0.77807 0.40998 0.0
C670 C 0.29116 0.78974 0.32237 0.0
C671 C 0.26702 0.76599 0.30161 0.0
C672 C 0.24456 0.74855 0.33558 0.0
C673 C 0.24646 0.75445 0.3891 0.0
C674 C 0.23134 0.75134 0.16092 0.0
C675 C 0.26246 0.74742 0.13659 0.0
C676 C 0.2328 0.75715 0.21439 0.0
C677 C 0.26542 0.75947 0.2448 0.0
C678 C 0.29654 0.75566 0.22042 0.0
C679 C 0.29508 0.74958 0.16706 0.0
H680 H 0.54233 0.0616 0.65184 0.0
H681 H 0.47297 0.97333 0.65559 0.0
H682 H 0.55042 0.05483 0.55966 0.0
H683 H 0.48036 0.96708 0.56308 0.0
H684 H 0.53196 0.94387 0.41504 0.0
H685 H 0.52519 0.95 0.5076 0.0
H686 H 0.51624 0.06271 0.47198 0.0
H687 H 0.52273 0.05662 0.37914 0.0
C688 C 0.529 0.0406 0.63309 0.0
C689 C 0.50703 0.01799 0.6611 0.0
C690 C 0.53331 0.03698 0.58007 0.0
C691 C 0.51594 1.01049 0.55388 0.0
C692 C 0.49434 0.98759 0.58213 0.0
C693 C 0.48986 0.99136 0.63503 0.0
C694 C 0.52812 0.96997 0.42672 0.0
C695 C 0.52776 0.99974 0.38943 0.0
C696 C 0.52431 0.97347 0.47989 0.0
C697 C 0.52016 1.00684 0.49726 0.0
C698 C 0.5199 0.03665 0.46008 0.0
C699 C 0.52361 0.03314 0.40683 0.0
H700 H 0.22675 0.2288 0.90827 0.0
H701 H 0.29765 0.31576 0.89928 0.0
H702 H 0.23353 0.22015 0.81641 0.0
H703 H 0.3034 0.30798 0.8069 0.0
H704 H 0.33342 0.26146 0.65874 0.0
H705 H 0.32819 0.26859 0.75148 0.0
H706 H 0.21683 0.24832 0.7278 0.0
H707 H 0.22213 0.24104 0.63503 0.0
C708 C 0.24396 0.24595 0.88683 0.0
C709 C 0.26164 0.27299 0.91126 0.0
C710 C 0.24749 0.24128 0.83389 0.0
C711 C 0.26887 0.26348 0.80403 0.0
C712 C 0.28694 0.2902 0.82872 0.0
C713 C 0.28335 0.2949 0.8816 0.0
C714 C 0.30773 0.25888 0.67315 0.0
C715 C 0.27818 0.25074 0.63931 0.0
C716 C 0.30473 0.26294 0.72641 0.0
C717 C 0.27209 0.259 0.74728 0.0
C718 C 0.24251 0.25095 0.71338 0.0
C719 C 0.24552 0.24684 0.66011 0.0
H720 H 0.72564 0.31174 0.88578 0.0
H721 H 0.81215 0.23637 0.92276 0.0
H722 H 0.72269 0.30114 0.79259 0.0
H723 H 0.80971 0.22634 0.82955 0.0
H724 H 0.76956 0.19078 0.66775 0.0
H725 H 0.77139 0.20049 0.76086 0.0
H726 H 0.75826 0.31221 0.71699 0.0
H727 H 0.75703 0.30267 0.62376 0.0
C728 C 0.74387 0.29274 0.8741 0.0
C729 C 0.76915 0.27493 0.91178 0.0
C730 C 0.74244 0.28695 0.82059 0.0
C731 C 0.76604 0.26298 0.80351 0.0
C732 C 0.79096 0.24479 0.84135 0.0
C733 C 0.79256 0.25077 0.89473 0.0
C734 C 0.76755 0.2175 0.67782 0.0
C735 C 0.76325 0.24593 0.63792 0.0
C736 C 0.76848 0.22304 0.73132 0.0
C737 C 0.76491 0.25712 0.74646 0.0
C738 C 0.76055 0.28556 0.7067 0.0
C739 C 0.75983 0.28006 0.65316 0.0
H740 H 0.70515 0.74632 0.39712 0.0
H741 H 0.80932 0.78939 0.41257 0.0
H742 H 0.71076 0.7391 0.30447 0.0
H743 H 0.81513 0.78188 0.32007 0.0
H744 H 0.79997 0.79814 0.14002 0.0
H745 H 0.79265 0.80552 0.23197 0.0
H746 H 0.74153 0.7055 0.24792 0.0
H747 H 0.74747 0.69886 0.15521 0.0
C748 C 0.72945 0.75383 0.38093 0.0
C749 C 0.75677 0.76846 0.41233 0.0
C750 C 0.73267 0.74971 0.32773 0.0
C751 C 0.76336 0.76001 0.30456 0.0
C752 C 0.79084 0.77428 0.3362 0.0
C753 C 0.78756 0.7785 0.38933 0.0
C754 C 0.78667 0.77795 0.16284 0.0
C755 C 0.77429 0.7479 0.14001 0.0
C756 C 0.78292 0.78195 0.2159 0.0
C757 C 0.7667 0.75601 0.24766 0.0
C758 C 0.75391 0.72616 0.22465 0.0
C759 C 0.75766 0.72216 0.17155 0.0
H760 H 0.46088 0.5557 0.63473 0.0
H761 H 0.543 0.47611 0.67793 0.0
H762 H 0.47134 0.55634 0.54203 0.0
H763 H 0.55446 0.47775 0.58543 0.0
H764 H 0.53864 0.46141 0.40891 0.0
H765 H 0.5286 0.46094 0.5019 0.0
H766 H 0.51296 0.57371 0.48047 0.0
H767 H 0.52269 0.57409 0.3875 0.0
C768 C 0.48125 0.53838 0.62452 0.0
C769 C 0.501 0.51578 0.664 0.0
C770 C 0.48753 0.53902 0.5713 0.0
C771 C 0.51374 0.51706 0.55596 0.0
C772 C 0.53376 0.49473 0.59553 0.0
C773 C 0.5275 0.49413 0.64879 0.0
C774 C 0.53326 0.48613 0.42412 0.0
C775 C 0.53138 0.51777 0.39054 0.0
C776 C 0.52757 0.48589 0.47756 0.0
C777 C 0.51996 0.5173 0.49897 0.0
C778 C 0.51814 0.54893 0.46533 0.0
C779 C 0.52373 0.54915 0.41189 0.0
H780 H 0.07378 0.53895 0.90093 0.0
H781 H 0.98225 0.47383 0.88927 0.0
H782 H 0.06611 0.54469 0.99331 0.0
H783 H 0.97369 0.4808 0.98106 0.0
H784 H 0.99254 0.46772 0.16235 0.0
H785 H 1.00001 0.46232 0.06968 0.0
H786 H 0.02855 0.57135 0.049 0.0
H787 H 0.02135 0.57661 0.14171 0.0
C788 C 0.05194 0.52592 0.918 0.0
C789 C 0.02872 0.5058 0.88756 0.0
C790 C 0.0473 0.52954 0.97091 0.0
C791 C 0.01931 0.51315 0.99487 0.0
C792 C 0.99582 0.49341 0.96421 0.0
C793 C 1.00045 0.4898 0.91128 0.0
C794 C 1.00024 0.49058 0.13795 0.0
C795 C 1.00641 0.52258 0.15959 0.0
C796 C 1.00444 0.48752 0.08471 0.0
C797 C 1.01483 0.51641 0.05165 0.0
C798 C 0.02107 0.54839 0.07338 0.0
C799 C 0.01695 0.55141 0.12663 0.0
loop_
_geom_bond_atom_site_label_1
_geom_bond_atom_site_label_2
_geom_bond_distance
_geom_bond_site_symmetry_2
_ccdc_geom_bond_type
La0 C2 2.928 1_655 S
La0 O20 2.521 1_655 S
La0 O21 2.628 1_565 S
La0 O22 2.554 1_655 S
La0 O23 2.757 1_655 S
La0 O24 2.470 1_665 S
La0 O29 2.482 1_565 S
La0 O31 2.503 . S
La1 C11 2.928 1_455 S
La1 O23 2.482 1_545 S
La1 O25 2.503 . S
La1 O26 2.521 1_455 S
La1 O27 2.628 1_545 S
La1 O28 2.554 1_455 S
La1 O29 2.757 1_455 S
La1 O30 2.470 1_445 S
C2 La0 2.928 1_455 S
C2 C3 1.503 . S
C2 O20 1.261 . S
C2 O21 1.243 1_465 S
C3 C2 1.503 . S
C3 C4 1.394 . S
C3 C8 1.373 1_565 S
C4 C3 1.394 . S
C4 C5 1.380 . S
C4 H32 0.930 . S
C5 C4 1.380 . S
C5 C6 1.393 . S
C5 H33 0.930 . S
C6 C5 1.393 . S
C6 C7 1.353 1_565 S
C7 C6 1.353 1_545 S
C7 C8 1.396 . S
C7 H34 0.929 . S
C8 C3 1.373 1_545 S
C8 C7 1.396 . S
C8 H35 0.929 1_455 S
C9 O22 1.240 . S
C9 O23 1.289 . S
C10 O24 1.258 . S
C10 O25 1.256 . S
C11 La1 2.928 1_655 S
C11 C12 1.503 . S
C11 O26 1.261 . S
C11 O27 1.243 1_645 S
C12 C11 1.503 . S
C12 C13 1.394 . S
C12 C17 1.373 1_545 S
C13 C12 1.394 . S
C13 C14 1.380 . S
C13 H36 0.930 . S
C14 C13 1.380 . S
C14 C15 1.399 . S
C14 H37 0.930 . S
C15 C14 1.399 . S
C15 C16 1.347 1_545 S
C16 C15 1.347 1_565 S
C16 C17 1.396 . S
C16 H38 0.929 . S
C17 C12 1.373 1_565 S
C17 C16 1.396 . S
C17 H39 0.929 1_655 S
C18 O28 1.240 . S
C18 O29 1.289 . S
C19 O30 1.258 . S
C19 O31 1.256 . S
O20 La0 2.521 1_455 S
O20 C2 1.261 . S
O21 La0 2.628 1_545 S
O21 C2 1.243 1_645 S
O22 La0 2.554 1_455 S
O22 C9 1.240 . S
O23 La0 2.757 1_455 S
O23 La1 2.482 1_565 S
O23 C9 1.289 . S
O24 La0 2.470 1_445 S
O24 C10 1.258 . S
O25 La1 2.503 . S
O25 C10 1.256 . S
O26 La1 2.521 1_655 S
O26 C11 1.261 . S
O27 La1 2.628 1_565 S
O27 C11 1.243 1_465 S
O28 La1 2.554 1_655 S
O28 C18 1.240 . S
O29 La0 2.482 1_545 S
O29 La1 2.757 1_655 S
O29 C18 1.289 . S
O30 La1 2.470 1_665 S
O30 C19 1.258 . S
O31 La0 2.503 . S
O31 C19 1.256 . S
H32 C4 0.930 . S
H33 C5 0.930 . S
H34 C7 0.929 . S
H35 C8 0.929 1_655 S
H36 C13 0.930 . S
H37 C14 0.930 . S
H38 C16 0.929 . S
H39 C17 0.929 1_455 S
La40 C42 2.928 . S
La40 O60 2.521 . S
La40 O61 2.628 . S
La40 O62 2.554 . S
La40 O63 2.757 . S
La40 O64 2.470 . S
La40 O69 2.482 . S
La40 O71 2.503 . S
La41 C51 2.928 . S
La41 O63 2.482 . S
La41 O65 2.503 . S
La41 O66 2.521 . S
La41 O67 2.628 . S
La41 O68 2.554 . S
La41 O69 2.757 . S
La41 O70 2.470 . S
C42 La40 2.928 . S
C42 C43 1.503 . S
C42 O60 1.261 . S
C42 O61 1.243 . S
C43 C42 1.503 . S
C43 C44 1.394 . S
C43 C48 1.363 1_556 S
C44 C43 1.394 . S
C44 C45 1.380 1_556 S
C44 H72 0.930 . S
C45 C44 1.380 1_554 S
C45 C46 1.376 . S
C45 H73 0.930 . S
C46 C45 1.376 . S
C46 C47 1.370 . S
C47 C46 1.370 . S
C47 C48 1.417 . S
C47 H74 0.929 . S
C48 C43 1.363 1_554 S
C48 C47 1.417 . S
C48 H75 0.919 1_554 S
C49 O62 1.240 . S
C49 O63 1.289 . S
C50 O64 1.258 . S
C50 O65 1.256 . S
C51 La41 2.928 . S
C51 C52 1.503 . S
C51 O66 1.261 . S
C51 O67 1.243 . S
C52 C51 1.503 . S
C52 C53 1.394 . S
C52 C57 1.373 . S
C53 C52 1.394 . S
C53 C54 1.380 . S
C53 H76 0.930 . S
C54 C53 1.380 . S
C54 C55 1.376 . S
C54 H77 0.930 . S
C55 C54 1.376 . S
C55 C56 1.370 . S
C56 C55 1.370 . S
C56 C57 1.396 . S
C56 H78 0.929 . S
C57 C52 1.373 . S
C57 C56 1.396 . S
C57 H79 0.929 . S
C58 O68 1.240 . S
C58 O69 1.289 . S
C59 O70 1.258 . S
C59 O71 1.256 . S
O60 La40 2.521 . S
O60 C42 1.261 . S
O61 La40 2.628 . S
O61 C42 1.243 . S
O62 La40 2.554 . S
O62 C49 1.240 . S
O63 La40 2.757 . S
O63 La41 2.482 . S
O63 C49 1.289 . S
O64 La40 2.470 . S
O64 C50 1.258 . S
O65 La41 2.503 . S
O65 C50 1.256 . S
O66 La41 2.521 . S
O66 C51 1.261 . S
O67 La41 2.628 . S
O67 C51 1.243 . S
O68 La41 2.554 . S
O68 C58 1.240 . S
O69 La40 2.482 . S
O69 La41 2.757 . S
O69 C58 1.289 . S
O70 La41 2.470 . S
O70 C59 1.258 . S
O71 La40 2.503 . S
O71 C59 1.256 . S
H72 C44 0.930 . S
H73 C45 0.930 . S
H74 C47 0.929 . S
H75 C48 0.919 1_556 S
H76 C53 0.930 . S
H77 C54 0.930 . S
H78 C56 0.929 . S
H79 C57 0.929 . S
La80 C82 2.928 . S
La80 O100 2.521 . S
La80 O101 2.628 . S
La80 O102 2.554 . S
La80 O103 2.757 1_554 S
La80 O104 2.470 1_565 S
La80 O109 2.482 1_565 S
La80 O111 2.503 . S
La81 C91 2.928 . S
La81 O103 2.482 1_545 S
La81 O105 2.503 . S
La81 O106 2.521 . S
La81 O107 2.628 . S
La81 O108 2.554 . S
La81 O109 2.757 1_556 S
La81 O110 2.470 1_545 S
C82 La80 2.928 . S
C82 C83 1.503 . S
C82 O100 1.261 . S
C82 O101 1.243 . S
C83 C82 1.503 . S
C83 C84 1.394 . S
C83 C88 1.365 1_565 S
C84 C83 1.394 . S
C84 C85 1.380 . S
C84 H112 0.930 . S
C85 C84 1.380 . S
C85 C86 1.376 . S
C85 H113 0.930 . S
C86 C85 1.376 . S
C86 C87 1.356 1_565 S
C87 C86 1.356 1_545 S
C87 C88 1.394 . S
C87 H114 0.946 . S
C88 C83 1.365 1_545 S
C88 C87 1.394 . S
C88 H115 0.936 . S
C89 O102 1.240 1_556 S
C89 O103 1.289 . S
C90 O104 1.258 . S
C90 O105 1.256 1_554 S
C91 La81 2.928 . S
C91 C92 1.503 . S
C91 O106 1.261 . S
C91 O107 1.243 . S
C92 C91 1.503 . S
C92 C93 1.394 . S
C92 C97 1.372 1_545 S
C93 C92 1.394 . S
C93 C94 1.380 . S
C93 H116 0.930 . S
C94 C93 1.380 . S
C94 C95 1.376 . S
C94 H117 0.930 . S
C95 C94 1.376 . S
C95 C96 1.361 1_545 S
C96 C95 1.361 1_565 S
C96 C97 1.394 . S
C96 H118 0.939 . S
C97 C92 1.372 1_565 S
C97 C96 1.394 . S
C97 H119 0.930 . S
C98 O108 1.240 1_554 S
C98 O109 1.289 . S
C99 O110 1.258 . S
C99 O111 1.256 1_556 S
O100 La80 2.521 . S
O100 C82 1.261 . S
O101 La80 2.628 . S
O101 C82 1.243 . S
O102 La80 2.554 . S
O102 C89 1.240 1_554 S
O103 La80 2.757 1_556 S
O103 La81 2.482 1_565 S
O103 C89 1.289 . S
O104 La80 2.470 1_545 S
O104 C90 1.258 . S
O105 La81 2.503 . S
O105 C90 1.256 1_556 S
O106 La81 2.521 . S
O106 C91 1.261 . S
O107 La81 2.628 . S
O107 C91 1.243 . S
O108 La81 2.554 . S
O108 C98 1.240 1_556 S
O109 La80 2.482 1_545 S
O109 La81 2.757 1_554 S
O109 C98 1.289 . S
O110 La81 2.470 1_565 S
O110 C99 1.258 . S
O111 La80 2.503 . S
O111 C99 1.256 1_554 S
H112 C84 0.930 . S
H113 C85 0.930 . S
H114 C87 0.946 . S
H115 C88 0.936 . S
H116 C93 0.930 . S
H117 C94 0.930 . S
H118 C96 0.939 . S
H119 C97 0.930 . S
La120 C122 2.928 . S
La120 O140 2.521 . S
La120 O141 2.628 . S
La120 O142 2.554 . S
La120 O143 2.757 . S
La120 O144 2.470 . S
La120 O149 2.482 . S
La120 O151 2.503 . S
La121 C131 2.928 . S
La121 O143 2.482 . S
La121 O145 2.503 . S
La121 O146 2.521 . S
La121 O147 2.628 . S
La121 O148 2.554 . S
La121 O149 2.757 . S
La121 O150 2.470 . S
C122 La120 2.928 . S
C122 C123 1.503 . S
C122 O140 1.261 . S
C122 O141 1.243 . S
C123 C122 1.503 . S
C123 C124 1.394 . S
C123 C128 1.373 . S
C124 C123 1.394 . S
C124 C125 1.380 1_554 S
C124 H152 0.930 . S
C125 C124 1.380 1_556 S
C125 C126 1.376 . S
C125 H153 0.930 . S
C126 C125 1.376 . S
C126 C127 1.370 . S
C127 C126 1.370 . S
C127 C128 1.396 1_556 S
C127 H154 0.929 . S
C128 C123 1.373 . S
C128 C127 1.396 1_554 S
C128 H155 0.929 . S
C129 O142 1.240 . S
C129 O143 1.289 . S
C130 O144 1.258 . S
C130 O145 1.256 . S
C131 La121 2.928 . S
C131 C132 1.503 . S
C131 O146 1.261 . S
C131 O147 1.243 . S
C132 C131 1.503 . S
C132 C133 1.394 . S
C132 C137 1.373 . S
C133 C132 1.394 . S
C133 C134 1.380 . S
C133 H156 0.930 . S
C134 C133 1.380 . S
C134 C135 1.376 . S
C134 H157 0.930 . S
C135 C134 1.376 . S
C135 C136 1.370 . S
C136 C135 1.370 . S
C136 C137 1.396 . S
C136 H158 0.929 . S
C137 C132 1.373 . S
C137 C136 1.396 . S
C137 H159 0.929 . S
C138 O148 1.240 . S
C138 O149 1.289 . S
C139 O150 1.258 . S
C139 O151 1.256 . S
O140 La120 2.521 . S
O140 C122 1.261 . S
O141 La120 2.628 . S
O141 C122 1.243 . S
O142 La120 2.554 . S
O142 C129 1.240 . S
O143 La120 2.757 . S
O143 La121 2.482 . S
O143 C129 1.289 . S
O144 La120 2.470 . S
O144 C130 1.258 . S
O145 La121 2.503 . S
O145 C130 1.256 . S
O146 La121 2.521 . S
O146 C131 1.261 . S
O147 La121 2.628 . S
O147 C131 1.243 . S
O148 La121 2.554 . S
O148 C138 1.240 . S
O149 La120 2.482 . S
O149 La121 2.757 . S
O149 C138 1.289 . S
O150 La121 2.470 . S
O150 C139 1.258 . S
O151 La120 2.503 . S
O151 C139 1.256 . S
H152 C124 0.930 . S
H153 C125 0.930 . S
H154 C127 0.929 . S
H155 C128 0.929 . S
H156 C133 0.930 . S
H157 C134 0.930 . S
H158 C136 0.929 . S
H159 C137 0.929 . S
La160 C162 2.928 . S
La160 O180 2.521 . S
La160 O181 2.628 . S
La160 O182 2.554 . S
La160 O183 2.757 . S
La160 O184 2.470 . S
La160 O189 2.482 . S
La160 O191 2.503 . S
La161 C171 2.928 . S
La161 O183 2.482 . S
La161 O185 2.503 . S
La161 O186 2.521 . S
La161 O187 2.628 . S
La161 O188 2.554 . S
La161 O189 2.757 . S
La161 O190 2.470 . S
C162 La160 2.928 . S
C162 C163 1.503 . S
C162 O180 1.261 . S
C162 O181 1.243 . S
C163 C162 1.503 . S
C163 C164 1.394 . S
C163 C168 1.373 . S
C164 C163 1.394 . S
C164 C165 1.380 . S
C164 H192 0.930 . S
C165 C164 1.380 . S
C165 C166 1.376 . S
C165 H193 0.930 . S
C166 C165 1.376 . S
C166 C167 1.370 . S
C167 C166 1.370 . S
C167 C168 1.396 . S
C167 H194 0.929 . S
C168 C163 1.373 . S
C168 C167 1.396 . S
C168 H195 0.929 . S
C169 O182 1.240 . S
C169 O183 1.289 . S
C170 O184 1.258 . S
C170 O185 1.256 . S
C171 La161 2.928 . S
C171 C172 1.503 . S
C171 O186 1.261 . S
C171 O187 1.243 . S
C172 C171 1.503 . S
C172 C173 1.394 . S
C172 C177 1.364 1_554 S
C173 C172 1.394 . S
C173 C174 1.380 1_554 S
C173 H196 0.930 . S
C174 C173 1.380 1_556 S
C174 C175 1.376 . S
C174 H197 0.930 . S
C175 C174 1.376 . S
C175 C176 1.370 . S
C176 C175 1.370 . S
C176 C177 1.415 . S
C176 H198 0.929 . S
C177 C172 1.364 1_556 S
C177 C176 1.415 . S
C177 H199 0.919 1_556 S
C178 O188 1.240 . S
C178 O189 1.289 . S
C179 O190 1.258 . S
C179 O191 1.256 . S
O180 La160 2.521 . S
O180 C162 1.261 . S
O181 La160 2.628 . S
O181 C162 1.243 . S
O182 La160 2.554 . S
O182 C169 1.240 . S
O183 La160 2.757 . S
O183 La161 2.482 . S
O183 C169 1.289 . S
O184 La160 2.470 . S
O184 C170 1.258 . S
O185 La161 2.503 . S
O185 C170 1.256 . S
O186 La161 2.521 . S
O186 C171 1.261 . S
O187 La161 2.628 . S
O187 C171 1.243 . S
O188 La161 2.554 . S
O188 C178 1.240 . S
O189 La160 2.482 . S
O189 La161 2.757 . S
O189 C178 1.289 . S
O190 La161 2.470 . S
O190 C179 1.258 . S
O191 La160 2.503 . S
O191 C179 1.256 . S
H192 C164 0.930 . S
H193 C165 0.930 . S
H194 C167 0.929 . S
H195 C168 0.929 . S
H196 C173 0.930 . S
H197 C174 0.930 . S
H198 C176 0.929 . S
H199 C177 0.919 1_554 S
La200 C202 2.928 . S
La200 O220 2.521 . S
La200 O221 2.628 . S
La200 O222 2.554 . S
La200 O223 2.757 . S
La200 O224 2.470 . S
La200 O229 2.482 . S
La200 O231 2.503 . S
La201 C211 2.928 . S
La201 O223 2.482 . S
La201 O225 2.503 . S
La201 O226 2.521 . S
La201 O227 2.628 . S
La201 O228 2.554 . S
La201 O229 2.757 . S
La201 O230 2.470 . S
C202 La200 2.928 . S
C202 C203 1.503 . S
C202 O220 1.261 . S
C202 O221 1.243 . S
C203 C202 1.503 . S
C203 C204 1.394 . S
C203 C208 1.373 . S
C204 C203 1.394 . S
C204 C205 1.380 . S
C204 H232 0.930 . S
C205 C204 1.380 . S
C205 C206 1.376 . S
C205 H233 0.930 . S
C206 C205 1.376 . S
C206 C207 1.370 . S
C207 C206 1.370 . S
C207 C208 1.396 . S
C207 H234 0.929 . S
C208 C203 1.373 . S
C208 C207 1.396 . S
C208 H235 0.929 . S
C209 O222 1.240 . S
C209 O223 1.289 . S
C210 O224 1.258 . S
C210 O225 1.256 . S
C211 La201 2.928 . S
C211 C212 1.503 . S
C211 O226 1.261 . S
C211 O227 1.243 . S
C212 C211 1.503 . S
C212 C213 1.394 . S
C212 C217 1.373 . S
C213 C212 1.394 . S
C213 C214 1.380 1_556 S
C213 H236 0.930 . S
C214 C213 1.380 1_554 S
C214 C215 1.376 . S
C214 H237 0.930 . S
C215 C214 1.376 . S
C215 C216 1.370 . S
C216 C215 1.370 . S
C216 C217 1.396 1_554 S
C216 H238 0.929 . S
C217 C212 1.373 . S
C217 C216 1.396 1_556 S
C217 H239 0.929 . S
C218 O228 1.240 . S
C218 O229 1.289 . S
C219 O230 1.258 . S
C219 O231 1.256 . S
O220 La200 2.521 . S
O220 C202 1.261 . S
O221 La200 2.628 . S
O221 C202 1.243 . S
O222 La200 2.554 . S
O222 C209 1.240 . S
O223 La200 2.757 . S
O223 La201 2.482 . S
O223 C209 1.289 . S
O224 La200 2.470 . S
O224 C210 1.258 . S
O225 La201 2.503 . S
O225 C210 1.256 . S
O226 La201 2.521 . S
O226 C211 1.261 . S
O227 La201 2.628 . S
O227 C211 1.243 . S
O228 La201 2.554 . S
O228 C218 1.240 . S
O229 La200 2.482 . S
O229 La201 2.757 . S
O229 C218 1.289 . S
O230 La201 2.470 . S
O230 C219 1.258 . S
O231 La200 2.503 . S
O231 C219 1.256 . S
H232 C204 0.930 . S
H233 C205 0.930 . S
H234 C207 0.929 . S
H235 C208 0.929 . S
H236 C213 0.930 . S
H237 C214 0.930 . S
H238 C216 0.929 . S
H239 C217 0.929 . S
La240 C242 2.928 . S
La240 O260 2.521 . S
La240 O261 2.628 . S
La240 O262 2.554 . S
La240 O263 2.757 1_556 S
La240 O264 2.470 . S
La240 O269 2.482 . S
La240 O271 2.503 1_556 S
La241 C251 2.928 . S
La241 O263 2.482 . S
La241 O265 2.503 1_554 S
La241 O266 2.521 . S
La241 O267 2.628 . S
La241 O268 2.554 . S
La241 O269 2.757 1_554 S
La241 O270 2.470 . S
C242 La240 2.928 . S
C242 C243 1.503 . S
C242 O260 1.261 . S
C242 O261 1.243 . S
C243 C242 1.503 . S
C243 C244 1.394 . S
C243 C248 1.373 . S
C244 C243 1.394 . S
C244 C245 1.380 . S
C244 H272 0.930 . S
C245 C244 1.380 . S
C245 C246 1.376 . S
C245 H273 0.930 . S
C246 C245 1.376 . S
C246 C247 1.370 . S
C247 C246 1.370 . S
C247 C248 1.396 . S
C247 H274 0.929 . S
C248 C243 1.373 . S
C248 C247 1.396 . S
C248 H275 0.929 . S
C249 O262 1.240 1_554 S
C249 O263 1.289 . S
C250 O264 1.258 . S
C250 O265 1.256 . S
C251 La241 2.928 . S
C251 C252 1.503 . S
C251 O266 1.261 . S
C251 O267 1.243 . S
C252 C251 1.503 . S
C252 C253 1.394 . S
C252 C257 1.373 . S
C253 C252 1.394 . S
C253 C254 1.380 . S
C253 H276 0.930 . S
C254 C253 1.380 . S
C254 C255 1.376 . S
C254 H277 0.930 . S
C255 C254 1.376 . S
C255 C256 1.370 . S
C256 C255 1.370 . S
C256 C257 1.396 . S
C256 H278 0.929 . S
C257 C252 1.373 . S
C257 C256 1.396 . S
C257 H279 0.929 . S
C258 O268 1.240 1_556 S
C258 O269 1.289 . S
C259 O270 1.258 . S
C259 O271 1.256 . S
O260 La240 2.521 . S
O260 C242 1.261 . S
O261 La240 2.628 . S
O261 C242 1.243 . S
O262 La240 2.554 . S
O262 C249 1.240 1_556 S
O263 La240 2.757 1_554 S
O263 La241 2.482 . S
O263 C249 1.289 . S
O264 La240 2.470 . S
O264 C250 1.258 . S
O265 La241 2.503 1_556 S
O265 C250 1.256 . S
O266 La241 2.521 . S
O266 C251 1.261 . S
O267 La241 2.628 . S
O267 C251 1.243 . S
O268 La241 2.554 . S
O268 C258 1.240 1_554 S
O269 La240 2.482 . S
O269 La241 2.757 1_556 S
O269 C258 1.289 . S
O270 La241 2.470 . S
O270 C259 1.258 . S
O271 La240 2.503 1_554 S
O271 C259 1.256 . S
H272 C244 0.930 . S
H273 C245 0.930 . S
H274 C247 0.929 . S
H275 C248 0.929 . S
H276 C253 0.930 . S
H277 C254 0.930 . S
H278 C256 0.929 . S
H279 C257 0.929 . S
La280 C282 2.928 1_455 S
La280 O300 2.521 1_455 S
La280 O301 2.628 . S
La280 O302 2.554 1_455 S
La280 O303 2.757 1_455 S
La280 O304 2.470 1_455 S
La280 O309 2.482 . S
La280 O311 2.503 . S
La281 C291 2.928 1_655 S
La281 O303 2.482 . S
La281 O305 2.503 . S
La281 O306 2.521 1_655 S
La281 O307 2.628 . S
La281 O308 2.554 1_655 S
La281 O309 2.757 1_655 S
La281 O310 2.470 1_655 S
C282 La280 2.928 1_655 S
C282 C283 1.503 . S
C282 O300 1.261 . S
C282 O301 1.243 1_655 S
C283 C282 1.503 . S
C283 C284 1.394 . S
C283 C288 1.373 . S
C284 C283 1.394 . S
C284 C285 1.380 . S
C284 H312 0.930 . S
C285 C284 1.380 . S
C285 C286 1.376 . S
C285 H313 0.930 . S
C286 C285 1.376 . S
C286 C287 1.370 . S
C287 C286 1.370 . S
C287 C288 1.396 . S
C287 H314 0.929 . S
C288 C283 1.373 . S
C288 C287 1.396 . S
C288 H315 0.929 1_655 S
C289 O302 1.240 . S
C289 O303 1.289 . S
C290 O304 1.258 . S
C290 O305 1.256 . S
C291 La281 2.928 1_455 S
C291 C292 1.503 . S
C291 O306 1.261 . S
C291 O307 1.243 1_455 S
C292 C291 1.503 . S
C292 C293 1.394 . S
C292 C297 1.373 . S
C293 C292 1.394 . S
C293 C294 1.380 . S
C293 H316 0.930 . S
C294 C293 1.380 . S
C294 C295 1.376 . S
C294 H317 0.930 . S
C295 C294 1.376 . S
C295 C296 1.370 . S
C296 C295 1.370 . S
C296 C297 1.396 . S
C296 H318 0.929 . S
C297 C292 1.373 . S
C297 C296 1.396 . S
C297 H319 0.929 1_455 S
C298 O308 1.240 . S
C298 O309 1.289 . S
C299 O310 1.258 . S
C299 O311 1.256 . S
O300 La280 2.521 1_655 S
O300 C282 1.261 . S
O301 La280 2.628 . S
O301 C282 1.243 1_455 S
O302 La280 2.554 1_655 S
O302 C289 1.240 . S
O303 La280 2.757 1_655 S
O303 La281 2.482 . S
O303 C289 1.289 . S
O304 La280 2.470 1_655 S
O304 C290 1.258 . S
O305 La281 2.503 . S
O305 C290 1.256 . S
O306 La281 2.521 1_455 S
O306 C291 1.261 . S
O307 La281 2.628 . S
O307 C291 1.243 1_655 S
O308 La281 2.554 1_455 S
O308 C298 1.240 . S
O309 La280 2.482 . S
O309 La281 2.757 1_455 S
O309 C298 1.289 . S
O310 La281 2.470 1_455 S
O310 C299 1.258 . S
O311 La280 2.503 . S
O311 C299 1.256 . S
H312 C284 0.930 . S
H313 C285 0.930 . S
H314 C287 0.929 . S
H315 C288 0.929 1_455 S
H316 C293 0.930 . S
H317 C294 0.930 . S
H318 C296 0.929 . S
H319 C297 0.929 1_655 S
H320 C328 0.950 . S
H321 C333 0.950 . S
H322 C330 0.950 . S
H323 C332 0.950 . S
H324 C334 0.950 . S
H325 C336 0.950 . S
H326 C338 0.950 . S
H327 C339 0.950 . S
C328 H320 0.950 . S
C328 C329 1.386 . S
C328 C330 1.391 . S
C329 C328 1.386 . S
C329 C333 1.393 . S
C330 H322 0.950 . S
C330 C328 1.391 . S
C330 C331 1.400 . S
C331 C330 1.400 . S
C331 C332 1.398 . S
C331 C337 1.491 . S
C332 H323 0.950 . S
C332 C331 1.398 . S
C332 C333 1.391 . S
C333 H321 0.950 . S
C333 C329 1.393 . S
C333 C332 1.391 . S
C334 H324 0.950 . S
C334 C335 1.386 . S
C334 C336 1.391 . S
C335 C334 1.386 . S
C335 C339 1.393 . S
C336 H325 0.950 . S
C336 C334 1.391 . S
C336 C337 1.400 . S
C337 C331 1.491 . S
C337 C336 1.400 . S
C337 C338 1.398 . S
C338 H326 0.950 . S
C338 C337 1.398 . S
C338 C339 1.391 . S
C339 H327 0.950 . S
C339 C335 1.393 . S
C339 C338 1.391 . S
H340 C348 0.950 . S
H341 C353 0.950 . S
H342 C350 0.950 . S
H343 C352 0.950 . S
H344 C354 0.950 . S
H345 C356 0.950 . S
H346 C358 0.950 . S
H347 C359 0.950 . S
C348 H340 0.950 . S
C348 C349 1.386 . S
C348 C350 1.391 . S
C349 C348 1.386 . S
C349 C353 1.393 . S
C350 H342 0.950 . S
C350 C348 1.391 . S
C350 C351 1.400 . S
C351 C350 1.400 . S
C351 C352 1.398 . S
C351 C357 1.491 . S
C352 H343 0.950 . S
C352 C351 1.398 . S
C352 C353 1.391 . S
C353 H341 0.950 . S
C353 C349 1.393 . S
C353 C352 1.391 . S
C354 H344 0.950 . S
C354 C355 1.386 . S
C354 C356 1.391 . S
C355 C354 1.386 . S
C355 C359 1.393 . S
C356 H345 0.950 . S
C356 C354 1.391 . S
C356 C357 1.400 . S
C357 C351 1.491 . S
C357 C356 1.400 . S
C357 C358 1.398 . S
C358 H346 0.950 . S
C358 C357 1.398 . S
C358 C359 1.391 . S
C359 H347 0.950 . S
C359 C355 1.393 . S
C359 C358 1.391 . S
H360 C368 0.950 . S
H361 C373 0.950 . S
H362 C370 0.950 . S
H363 C372 0.950 . S
H364 C374 0.950 . S
H365 C376 0.950 . S
H366 C378 0.950 . S
H367 C379 0.950 . S
C368 H360 0.950 . S
C368 C369 1.386 . S
C368 C370 1.391 . S
C369 C368 1.386 . S
C369 C373 1.393 . S
C370 H362 0.950 . S
C370 C368 1.391 . S
C370 C371 1.400 . S
C371 C370 1.400 . S
C371 C372 1.398 . S
C371 C377 1.491 . S
C372 H363 0.950 . S
C372 C371 1.398 . S
C372 C373 1.391 . S
C373 H361 0.950 . S
C373 C369 1.393 . S
C373 C372 1.391 . S
C374 H364 0.950 . S
C374 C375 1.386 . S
C374 C376 1.391 . S
C375 C374 1.386 . S
C375 C379 1.393 . S
C376 H365 0.950 . S
C376 C374 1.391 . S
C376 C377 1.400 . S
C377 C371 1.491 . S
C377 C376 1.400 . S
C377 C378 1.398 . S
C378 H366 0.950 . S
C378 C377 1.398 . S
C378 C379 1.391 . S
C379 H367 0.950 . S
C379 C375 1.393 . S
C379 C378 1.391 . S
H380 C388 0.950 . S
H381 C393 0.950 . S
H382 C390 0.950 . S
H383 C392 0.950 . S
H384 C394 0.950 . S
H385 C396 0.950 . S
H386 C398 0.950 . S
H387 C399 0.950 . S
C388 H380 0.950 . S
C388 C389 1.386 . S
C388 C390 1.391 . S
C389 C388 1.386 . S
C389 C393 1.393 . S
C390 H382 0.950 . S
C390 C388 1.391 . S
C390 C391 1.400 . S
C391 C390 1.400 . S
C391 C392 1.398 . S
C391 C397 1.491 . S
C392 H383 0.950 . S
C392 C391 1.398 . S
C392 C393 1.391 . S
C393 H381 0.950 . S
C393 C389 1.393 . S
C393 C392 1.391 . S
C394 H384 0.950 . S
C394 C395 1.386 . S
C394 C396 1.391 . S
C395 C394 1.386 . S
C395 C399 1.393 . S
C396 H385 0.950 . S
C396 C394 1.391 . S
C396 C397 1.400 . S
C397 C391 1.491 . S
C397 C396 1.400 . S
C397 C398 1.398 . S
C398 H386 0.950 . S
C398 C397 1.398 . S
C398 C399 1.391 . S
C399 H387 0.950 . S
C399 C395 1.393 . S
C399 C398 1.391 . S
H400 C408 0.950 . S
H401 C413 0.950 . S
H402 C410 0.950 . S
H403 C412 0.950 . S
H404 C414 0.950 . S
H405 C416 0.950 . S
H406 C418 0.950 . S
H407 C419 0.950 . S
C408 H400 0.950 . S
C408 C409 1.386 . S
C408 C410 1.391 . S
C409 C408 1.386 . S
C409 C413 1.393 . S
C410 H402 0.950 . S
C410 C408 1.391 . S
C410 C411 1.400 . S
C411 C410 1.400 . S
C411 C412 1.398 . S
C411 C417 1.491 . S
C412 H403 0.950 . S
C412 C411 1.398 . S
C412 C413 1.391 . S
C413 H401 0.950 . S
C413 C409 1.393 . S
C413 C412 1.391 . S
C414 H404 0.950 . S
C414 C415 1.386 . S
C414 C416 1.391 . S
C415 C414 1.386 . S
C415 C419 1.393 . S
C416 H405 0.950 . S
C416 C414 1.391 . S
C416 C417 1.400 . S
C417 C411 1.491 . S
C417 C416 1.400 . S
C417 C418 1.398 . S
C418 H406 0.950 . S
C418 C417 1.398 . S
C418 C419 1.391 . S
C419 H407 0.950 . S
C419 C415 1.393 . S
C419 C418 1.391 . S
H420 C428 0.950 . S
H421 C433 0.950 . S
H422 C430 0.950 . S
H423 C432 0.950 . S
H424 C434 0.950 . S
H425 C436 0.950 . S
H426 C438 0.950 . S
H427 C439 0.950 . S
C428 H420 0.950 . S
C428 C429 1.386 . S
C428 C430 1.391 . S
C429 C428 1.386 . S
C429 C433 1.393 . S
C430 H422 0.950 . S
C430 C428 1.391 . S
C430 C431 1.400 . S
C431 C430 1.400 . S
C431 C432 1.398 . S
C431 C437 1.491 . S
C432 H423 0.950 . S
C432 C431 1.398 . S
C432 C433 1.391 . S
C433 H421 0.950 . S
C433 C429 1.393 . S
C433 C432 1.391 . S
C434 H424 0.950 . S
C434 C435 1.386 . S
C434 C436 1.391 . S
C435 C434 1.386 . S
C435 C439 1.393 . S
C436 H425 0.950 . S
C436 C434 1.391 . S
C436 C437 1.400 . S
C437 C431 1.491 . S
C437 C436 1.400 . S
C437 C438 1.398 . S
C438 H426 0.950 . S
C438 C437 1.398 . S
C438 C439 1.391 . S
C439 H427 0.950 . S
C439 C435 1.393 . S
C439 C438 1.391 . S
H440 C448 0.950 . S
H441 C453 0.950 . S
H442 C450 0.950 . S
H443 C452 0.950 . S
H444 C454 0.950 . S
H445 C456 0.950 . S
H446 C458 0.950 . S
H447 C459 0.950 . S
C448 H440 0.950 . S
C448 C449 1.386 . S
C448 C450 1.391 . S
C449 C448 1.386 . S
C449 C453 1.393 . S
C450 H442 0.950 . S
C450 C448 1.391 . S
C450 C451 1.400 . S
C451 C450 1.400 . S
C451 C452 1.398 . S
C451 C457 1.491 . S
C452 H443 0.950 . S
C452 C451 1.398 . S
C452 C453 1.391 . S
C453 H441 0.950 . S
C453 C449 1.393 . S
C453 C452 1.391 . S
C454 H444 0.950 . S
C454 C455 1.386 . S
C454 C456 1.391 . S
C455 C454 1.386 . S
C455 C459 1.393 . S
C456 H445 0.950 . S
C456 C454 1.391 . S
C456 C457 1.400 . S
C457 C451 1.491 . S
C457 C456 1.400 . S
C457 C458 1.398 . S
C458 H446 0.950 . S
C458 C457 1.398 . S
C458 C459 1.391 . S
C459 H447 0.950 . S
C459 C455 1.393 . S
C459 C458 1.391 . S
H460 C468 0.950 . S
H461 C473 0.950 . S
H462 C470 0.950 . S
H463 C472 0.950 . S
H464 C474 0.950 . S
H465 C476 0.950 . S
H466 C478 0.950 . S
H467 C479 0.950 . S
C468 H460 0.950 . S
C468 C469 1.386 . S
C468 C470 1.391 . S
C469 C468 1.386 . S
C469 C473 1.393 . S
C470 H462 0.950 . S
C470 C468 1.391 . S
C470 C471 1.400 . S
C471 C470 1.400 . S
C471 C472 1.398 . S
C471 C477 1.491 . S
C472 H463 0.950 . S
C472 C471 1.398 . S
C472 C473 1.391 . S
C473 H461 0.950 . S
C473 C469 1.393 . S
C473 C472 1.391 . S
C474 H464 0.950 . S
C474 C475 1.386 . S
C474 C476 1.391 . S
C475 C474 1.386 . S
C475 C479 1.393 . S
C476 H465 0.950 . S
C476 C474 1.391 . S
C476 C477 1.400 . S
C477 C471 1.491 . S
C477 C476 1.400 . S
C477 C478 1.398 . S
C478 H466 0.950 . S
C478 C477 1.398 . S
C478 C479 1.391 . S
C479 H467 0.950 . S
C479 C475 1.393 . S
C479 C478 1.391 . S
H480 C488 0.950 . S
H481 C493 0.950 . S
H482 C490 0.950 . S
H483 C492 0.950 . S
H484 C494 0.950 . S
H485 C496 0.950 . S
H486 C498 0.950 . S
H487 C499 0.950 . S
C488 H480 0.950 . S
C488 C489 1.386 . S
C488 C490 1.391 . S
C489 C488 1.386 . S
C489 C493 1.393 . S
C490 H482 0.950 . S
C490 C488 1.391 . S
C490 C491 1.400 . S
C491 C490 1.400 . S
C491 C492 1.398 . S
C491 C497 1.491 . S
C492 H483 0.950 . S
C492 C491 1.398 . S
C492 C493 1.391 . S
C493 H481 0.950 . S
C493 C489 1.393 . S
C493 C492 1.391 . S
C494 H484 0.950 . S
C494 C495 1.386 . S
C494 C496 1.391 . S
C495 C494 1.386 . S
C495 C499 1.393 . S
C496 H485 0.950 . S
C496 C494 1.391 . S
C496 C497 1.400 . S
C497 C491 1.491 . S
C497 C496 1.400 . S
C497 C498 1.398 . S
C498 H486 0.950 . S
C498 C497 1.398 . S
C498 C499 1.391 . S
C499 H487 0.950 . S
C499 C495 1.393 . S
C499 C498 1.391 . S
H500 C508 0.950 . S
H501 C513 0.950 . S
H502 C510 0.950 . S
H503 C512 0.950 . S
H504 C514 0.950 . S
H505 C516 0.950 . S
H506 C518 0.950 . S
H507 C519 0.950 . S
C508 H500 0.950 . S
C508 C509 1.386 . S
C508 C510 1.391 . S
C509 C508 1.386 . S
C509 C513 1.393 . S
C510 H502 0.950 . S
C510 C508 1.391 . S
C510 C511 1.400 . S
C511 C510 1.400 . S
C511 C512 1.398 . S
C511 C517 1.491 . S
C512 H503 0.950 . S
C512 C511 1.398 . S
C512 C513 1.391 . S
C513 H501 0.950 . S
C513 C509 1.393 . S
C513 C512 1.391 . S
C514 H504 0.950 . S
C514 C515 1.386 . S
C514 C516 1.391 . S
C515 C514 1.386 . S
C515 C519 1.393 . S
C516 H505 0.950 . S
C516 C514 1.391 . S
C516 C517 1.400 . S
C517 C511 1.491 . S
C517 C516 1.400 . S
C517 C518 1.398 . S
C518 H506 0.950 . S
C518 C517 1.398 . S
C518 C519 1.391 . S
C519 H507 0.950 . S
C519 C515 1.393 . S
C519 C518 1.391 . S
H520 C528 0.950 . S
H521 C533 0.950 . S
H522 C530 0.950 . S
H523 C532 0.950 . S
H524 C534 0.950 . S
H525 C536 0.950 . S
H526 C538 0.950 . S
H527 C539 0.950 . S
C528 H520 0.950 . S
C528 C529 1.386 . S
C528 C530 1.391 . S
C529 C528 1.386 . S
C529 C533 1.393 . S
C530 H522 0.950 . S
C530 C528 1.391 . S
C530 C531 1.400 . S
C531 C530 1.400 . S
C531 C532 1.398 . S
C531 C537 1.491 . S
C532 H523 0.950 . S
C532 C531 1.398 . S
C532 C533 1.391 . S
C533 H521 0.950 . S
C533 C529 1.393 . S
C533 C532 1.391 . S
C534 H524 0.950 . S
C534 C535 1.386 . S
C534 C536 1.391 . S
C535 C534 1.386 . S
C535 C539 1.393 . S
C536 H525 0.950 . S
C536 C534 1.391 . S
C536 C537 1.400 . S
C537 C531 1.491 . S
C537 C536 1.400 . S
C537 C538 1.398 . S
C538 H526 0.950 . S
C538 C537 1.398 . S
C538 C539 1.391 . S
C539 H527 0.950 . S
C539 C535 1.393 . S
C539 C538 1.391 . S
H540 C548 0.950 . S
H541 C553 0.950 . S
H542 C550 0.950 . S
H543 C552 0.950 . S
H544 C554 0.950 . S
H545 C556 0.950 . S
H546 C558 0.950 . S
H547 C559 0.950 . S
C548 H540 0.950 . S
C548 C549 1.386 . S
C548 C550 1.391 . S
C549 C548 1.386 . S
C549 C553 1.393 . S
C550 H542 0.950 . S
C550 C548 1.391 . S
C550 C551 1.400 . S
C551 C550 1.400 . S
C551 C552 1.398 . S
C551 C557 1.491 . S
C552 H543 0.950 . S
C552 C551 1.398 . S
C552 C553 1.391 . S
C553 H541 0.950 . S
C553 C549 1.393 . S
C553 C552 1.391 . S
C554 H544 0.950 . S
C554 C555 1.386 . S
C554 C556 1.391 . S
C555 C554 1.386 . S
C555 C559 1.393 . S
C556 H545 0.950 . S
C556 C554 1.391 . S
C556 C557 1.400 . S
C557 C551 1.491 . S
C557 C556 1.400 . S
C557 C558 1.398 . S
C558 H546 0.950 . S
C558 C557 1.398 . S
C558 C559 1.391 . S
C559 H547 0.950 . S
C559 C555 1.393 . S
C559 C558 1.391 . S
H560 C568 0.950 . S
H561 C573 0.950 . S
H562 C570 0.950 . S
H563 C572 0.950 . S
H564 C574 0.950 . S
H565 C576 0.950 . S
H566 C578 0.950 . S
H567 C579 0.950 . S
C568 H560 0.950 . S
C568 C569 1.386 . S
C568 C570 1.391 . S
C569 C568 1.386 . S
C569 C573 1.393 . S
C570 H562 0.950 . S
C570 C568 1.391 . S
C570 C571 1.400 . S
C571 C570 1.400 . S
C571 C572 1.398 . S
C571 C577 1.491 . S
C572 H563 0.950 . S
C572 C571 1.398 . S
C572 C573 1.391 . S
C573 H561 0.950 . S
C573 C569 1.393 . S
C573 C572 1.391 . S
C574 H564 0.950 . S
C574 C575 1.386 . S
C574 C576 1.391 . S
C575 C574 1.386 . S
C575 C579 1.393 . S
C576 H565 0.950 . S
C576 C574 1.391 . S
C576 C577 1.400 . S
C577 C571 1.491 . S
C577 C576 1.400 . S
C577 C578 1.398 . S
C578 H566 0.950 . S
C578 C577 1.398 . S
C578 C579 1.391 . S
C579 H567 0.950 . S
C579 C575 1.393 . S
C579 C578 1.391 . S
H580 C588 0.950 . S
H581 C593 0.950 . S
H582 C590 0.950 . S
H583 C592 0.950 . S
H584 C594 0.950 . S
H585 C596 0.950 . S
H586 C598 0.950 . S
H587 C599 0.950 . S
C588 H580 0.950 . S
C588 C589 1.386 . S
C588 C590 1.391 . S
C589 C588 1.386 . S
C589 C593 1.393 . S
C590 H582 0.950 . S
C590 C588 1.391 . S
C590 C591 1.400 . S
C591 C590 1.400 . S
C591 C592 1.398 . S
C591 C597 1.491 . S
C592 H583 0.950 . S
C592 C591 1.398 . S
C592 C593 1.391 . S
C593 H581 0.950 . S
C593 C589 1.393 . S
C593 C592 1.391 . S
C594 H584 0.950 . S
C594 C595 1.386 . S
C594 C596 1.391 . S
C595 C594 1.386 . S
C595 C599 1.393 . S
C596 H585 0.950 . S
C596 C594 1.391 . S
C596 C597 1.400 . S
C597 C591 1.491 . S
C597 C596 1.400 . S
C597 C598 1.398 . S
C598 H586 0.950 . S
C598 C597 1.398 . S
C598 C599 1.391 . S
C599 H587 0.950 . S
C599 C595 1.393 . S
C599 C598 1.391 . S
H600 C608 0.950 . S
H601 C613 0.950 . S
H602 C610 0.950 . S
H603 C612 0.950 . S
H604 C614 0.950 . S
H605 C616 0.950 . S
H606 C618 0.950 . S
H607 C619 0.950 . S
C608 H600 0.950 . S
C608 C609 1.386 . S
C608 C610 1.391 . S
C609 C608 1.386 . S
C609 C613 1.393 . S
C610 H602 0.950 . S
C610 C608 1.391 . S
C610 C611 1.400 . S
C611 C610 1.400 . S
C611 C612 1.398 . S
C611 C617 1.491 . S
C612 H603 0.950 . S
C612 C611 1.398 . S
C612 C613 1.391 . S
C613 H601 0.950 . S
C613 C609 1.393 . S
C613 C612 1.391 . S
C614 H604 0.950 . S
C614 C615 1.386 . S
C614 C616 1.391 . S
C615 C614 1.386 . S
C615 C619 1.393 . S
C616 H605 0.950 . S
C616 C614 1.391 . S
C616 C617 1.400 . S
C617 C611 1.491 . S
C617 C616 1.400 . S
C617 C618 1.398 . S
C618 H606 0.950 . S
C618 C617 1.398 . S
C618 C619 1.391 . S
C619 H607 0.950 . S
C619 C615 1.393 . S
C619 C618 1.391 . S
H620 C628 0.950 . S
H621 C633 0.950 . S
H622 C630 0.950 . S
H623 C632 0.950 . S
H624 C634 0.950 . S
H625 C636 0.950 . S
H626 C638 0.950 . S
H627 C639 0.950 . S
C628 H620 0.950 . S
C628 C629 1.386 . S
C628 C630 1.391 . S
C629 C628 1.386 . S
C629 C633 1.393 . S
C630 H622 0.950 . S
C630 C628 1.391 . S
C630 C631 1.400 . S
C631 C630 1.400 . S
C631 C632 1.398 . S
C631 C637 1.491 . S
C632 H623 0.950 . S
C632 C631 1.398 . S
C632 C633 1.391 . S
C633 H621 0.950 . S
C633 C629 1.393 . S
C633 C632 1.391 . S
C634 H624 0.950 . S
C634 C635 1.386 . S
C634 C636 1.391 . S
C635 C634 1.386 . S
C635 C639 1.393 . S
C636 H625 0.950 . S
C636 C634 1.391 . S
C636 C637 1.400 . S
C637 C631 1.491 . S
C637 C636 1.400 . S
C637 C638 1.398 . S
C638 H626 0.950 . S
C638 C637 1.398 . S
C638 C639 1.391 . S
C639 H627 0.950 . S
C639 C635 1.393 . S
C639 C638 1.391 . S
H640 C648 0.950 . S
H641 C653 0.950 1_455 S
H642 C650 0.950 . S
H643 C652 0.950 . S
H644 C654 0.950 . S
H645 C656 0.950 . S
H646 C658 0.950 . S
H647 C659 0.950 1_655 S
C648 H640 0.950 . S
C648 C649 1.399 . S
C648 C650 1.391 . S
C649 C648 1.399 . S
C649 C653 1.376 1_565 S
C650 H642 0.950 . S
C650 C648 1.391 . S
C650 C651 1.405 . S
C651 C650 1.405 . S
C651 C652 1.395 1_665 S
C651 C657 1.487 1_666 S
C652 H643 0.950 . S
C652 C651 1.395 1_445 S
C652 C653 1.391 1_455 S
C653 H641 0.950 1_655 S
C653 C649 1.376 1_545 S
C653 C652 1.391 1_655 S
C654 H644 0.950 . S
C654 C655 1.404 . S
C654 C656 1.391 . S
C655 C654 1.404 . S
C655 C659 1.370 1_545 S
C656 H645 0.950 . S
C656 C654 1.391 . S
C656 C657 1.411 . S
C657 C651 1.487 1_444 S
C657 C656 1.411 . S
C657 C658 1.390 1_445 S
C658 H646 0.950 . S
C658 C657 1.390 1_665 S
C658 C659 1.391 1_655 S
C659 H647 0.950 1_455 S
C659 C655 1.370 1_565 S
C659 C658 1.391 1_455 S
H660 C668 0.950 . S
H661 C673 0.950 . S
H662 C670 0.950 . S
H663 C672 0.950 . S
H664 C674 0.950 . S
H665 C676 0.950 . S
H666 C678 0.950 . S
H667 C679 0.950 . S
C668 H660 0.950 . S
C668 C669 1.386 . S
C668 C670 1.391 . S
C669 C668 1.386 . S
C669 C673 1.393 . S
C670 H662 0.950 . S
C670 C668 1.391 . S
C670 C671 1.400 . S
C671 C670 1.400 . S
C671 C672 1.398 . S
C671 C677 1.491 . S
C672 H663 0.950 . S
C672 C671 1.398 . S
C672 C673 1.391 . S
C673 H661 0.950 . S
C673 C669 1.393 . S
C673 C672 1.391 . S
C674 H664 0.950 . S
C674 C675 1.386 . S
C674 C676 1.391 . S
C675 C674 1.386 . S
C675 C679 1.393 . S
C676 H665 0.950 . S
C676 C674 1.391 . S
C676 C677 1.400 . S
C677 C671 1.491 . S
C677 C676 1.400 . S
C677 C678 1.398 . S
C678 H666 0.950 . S
C678 C677 1.398 . S
C678 C679 1.391 . S
C679 H667 0.950 . S
C679 C675 1.393 . S
C679 C678 1.391 . S
H680 C688 0.950 . S
H681 C693 0.950 . S
H682 C690 0.950 . S
H683 C692 0.950 . S
H684 C694 0.950 . S
H685 C696 0.950 . S
H686 C698 0.950 . S
H687 C699 0.950 . S
C688 H680 0.950 . S
C688 C689 1.386 . S
C688 C690 1.391 . S
C689 C688 1.386 . S
C689 C693 1.393 1_545 S
C690 H682 0.950 . S
C690 C688 1.391 . S
C690 C691 1.400 . S
C691 C690 1.400 . S
C691 C692 1.398 1_545 S
C691 C697 1.491 1_545 S
C692 H683 0.950 . S
C692 C691 1.398 1_565 S
C692 C693 1.391 . S
C693 H681 0.950 . S
C693 C689 1.393 1_565 S
C693 C692 1.391 . S
C694 H684 0.950 . S
C694 C695 1.386 . S
C694 C696 1.391 . S
C695 C694 1.386 . S
C695 C699 1.393 1_565 S
C696 H685 0.950 . S
C696 C694 1.391 . S
C696 C697 1.400 . S
C697 C691 1.491 1_565 S
C697 C696 1.400 . S
C697 C698 1.398 1_565 S
C698 H686 0.950 . S
C698 C697 1.398 1_545 S
C698 C699 1.391 . S
C699 H687 0.950 . S
C699 C695 1.393 1_545 S
C699 C698 1.391 . S
H700 C708 0.950 . S
H701 C713 0.950 . S
H702 C710 0.950 . S
H703 C712 0.950 . S
H704 C714 0.950 . S
H705 C716 0.950 . S
H706 C718 0.950 . S
H707 C719 0.950 . S
C708 H700 0.950 . S
C708 C709 1.386 . S
C708 C710 1.391 . S
C709 C708 1.386 . S
C709 C713 1.393 . S
C710 H702 0.950 . S
C710 C708 1.391 . S
C710 C711 1.400 . S
C711 C710 1.400 . S
C711 C712 1.398 . S
C711 C717 1.491 . S
C712 H703 0.950 . S
C712 C711 1.398 . S
C712 C713 1.391 . S
C713 H701 0.950 . S
C713 C709 1.393 . S
C713 C712 1.391 . S
C714 H704 0.950 . S
C714 C715 1.386 . S
C714 C716 1.391 . S
C715 C714 1.386 . S
C715 C719 1.393 . S
C716 H705 0.950 . S
C716 C714 1.391 . S
C716 C717 1.400 . S
C717 C711 1.491 . S
C717 C716 1.400 . S
C717 C718 1.398 . S
C718 H706 0.950 . S
C718 C717 1.398 . S
C718 C719 1.391 . S
C719 H707 0.950 . S
C719 C715 1.393 . S
C719 C718 1.391 . S
H720 C728 0.950 . S
H721 C733 0.950 . S
H722 C730 0.950 . S
H723 C732 0.950 . S
H724 C734 0.950 . S
H725 C736 0.950 . S
H726 C738 0.950 . S
H727 C739 0.950 . S
C728 H720 0.950 . S
C728 C729 1.386 . S
C728 C730 1.391 . S
C729 C728 1.386 . S
C729 C733 1.393 . S
C730 H722 0.950 . S
C730 C728 1.391 . S
C730 C731 1.400 . S
C731 C730 1.400 . S
C731 C732 1.398 . S
C731 C737 1.491 . S
C732 H723 0.950 . S
C732 C731 1.398 . S
C732 C733 1.391 . S
C733 H721 0.950 . S
C733 C729 1.393 . S
C733 C732 1.391 . S
C734 H724 0.950 . S
C734 C735 1.386 . S
C734 C736 1.391 . S
C735 C734 1.386 . S
C735 C739 1.393 . S
C736 H725 0.950 . S
C736 C734 1.391 . S
C736 C737 1.400 . S
C737 C731 1.491 . S
C737 C736 1.400 . S
C737 C738 1.398 . S
C738 H726 0.950 . S
C738 C737 1.398 . S
C738 C739 1.391 . S
C739 H727 0.950 . S
C739 C735 1.393 . S
C739 C738 1.391 . S
H740 C748 0.950 . S
H741 C753 0.950 . S
H742 C750 0.950 . S
H743 C752 0.950 . S
H744 C754 0.950 . S
H745 C756 0.950 . S
H746 C758 0.950 . S
H747 C759 0.950 . S
C748 H740 0.950 . S
C748 C749 1.386 . S
C748 C750 1.391 . S
C749 C748 1.386 . S
C749 C753 1.393 . S
C750 H742 0.950 . S
C750 C748 1.391 . S
C750 C751 1.400 . S
C751 C750 1.400 . S
C751 C752 1.398 . S
C751 C757 1.491 . S
C752 H743 0.950 . S
C752 C751 1.398 . S
C752 C753 1.391 . S
C753 H741 0.950 . S
C753 C749 1.393 . S
C753 C752 1.391 . S
C754 H744 0.950 . S
C754 C755 1.386 . S
C754 C756 1.391 . S
C755 C754 1.386 . S
C755 C759 1.393 . S
C756 H745 0.950 . S
C756 C754 1.391 . S
C756 C757 1.400 . S
C757 C751 1.491 . S
C757 C756 1.400 . S
C757 C758 1.398 . S
C758 H746 0.950 . S
C758 C757 1.398 . S
C758 C759 1.391 . S
C759 H747 0.950 . S
C759 C755 1.393 . S
C759 C758 1.391 . S
H760 C768 0.950 . S
H761 C773 0.950 . S
H762 C770 0.950 . S
H763 C772 0.950 . S
H764 C774 0.950 . S
H765 C776 0.950 . S
H766 C778 0.950 . S
H767 C779 0.950 . S
C768 H760 0.950 . S
C768 C769 1.386 . S
C768 C770 1.391 . S
C769 C768 1.386 . S
C769 C773 1.393 . S
C770 H762 0.950 . S
C770 C768 1.391 . S
C770 C771 1.400 . S
C771 C770 1.400 . S
C771 C772 1.398 . S
C771 C777 1.491 . S
C772 H763 0.950 . S
C772 C771 1.398 . S
C772 C773 1.391 . S
C773 H761 0.950 . S
C773 C769 1.393 . S
C773 C772 1.391 . S
C774 H764 0.950 . S
C774 C775 1.386 . S
C774 C776 1.391 . S
C775 C774 1.386 . S
C775 C779 1.393 . S
C776 H765 0.950 . S
C776 C774 1.391 . S
C776 C777 1.400 . S
C777 C771 1.491 . S
C777 C776 1.400 . S
C777 C778 1.398 . S
C778 H766 0.950 . S
C778 C777 1.398 . S
C778 C779 1.391 . S
C779 H767 0.950 . S
C779 C775 1.393 . S
C779 C778 1.391 . S
H780 C788 0.950 . S
H781 C793 0.950 . S
H782 C790 0.944 1_455 S
H783 C792 0.950 . S
H784 C794 0.950 . S
H785 C796 0.946 1_655 S
H786 C798 0.950 . S
H787 C799 0.950 . S
C788 H780 0.950 . S
C788 C789 1.386 . S
C788 C790 1.391 . S
C789 C788 1.386 . S
C789 C793 1.393 . S
C790 H782 0.944 1_655 S
C790 C788 1.391 . S
C790 C791 1.400 . S
C791 C790 1.400 . S
C791 C792 1.398 . S
C791 C797 1.491 1_656 S
C792 H783 0.950 . S
C792 C791 1.398 . S
C792 C793 1.391 . S
C793 H781 0.950 . S
C793 C789 1.393 . S
C793 C792 1.391 . S
C794 H784 0.950 . S
C794 C795 1.386 . S
C794 C796 1.391 . S
C795 C794 1.386 . S
C795 C799 1.393 . S
C796 H785 0.946 1_455 S
C796 C794 1.391 . S
C796 C797 1.400 . S
C797 C791 1.491 1_454 S
C797 C796 1.400 . S
C797 C798 1.398 . S
C798 H786 0.950 . S
C798 C797 1.398 . S
C798 C799 1.391 . S
C799 H787 0.950 . S
C799 C795 1.393 . S
C799 C798 1.391 . S
C329 C10 1.530 . S
C335 C129 1.517 . S
C349 C9 0.875 . S
C355 C49 0.877 . S
C369 C50 1.517 . S
C375 C89 1.507 . S
C389 C90 2.059 . S
C395 C130 2.054 . S
C409 C19 1.517 . S
C415 C218 1.507 . S
C429 C18 0.871 . S
C435 C178 0.887 . S
C449 C179 1.531 . S
C455 C98 1.519 . S
C469 C219 2.060 . S
C475 C99 2.059 . S
C489 C250 1.520 . S
C495 C209 1.507 . S
C509 C169 0.895 . S
C515 C249 0.900 . S
C529 C289 1.519 . S
C535 C170 1.531 . S
C549 C210 2.059 . S
C555 C290 2.060 . S
C569 C138 1.506 . S
C575 C259 1.519 . S
C589 C258 0.892 . S
C595 C58 0.903 . S
C609 C59 1.519 . S
C615 C298 1.504 . S
C629 C139 2.052 . S
C635 C299 2.054 . S
C649 C15 1.409 1_565 S
C655 C6 1.409 1_545 S
C669 C55 1.414 . S
C675 C46 1.414 . S
C689 C95 1.606 . S
C695 C86 1.606 . S
C709 C126 1.586 . S
C715 C135 1.586 . S
C729 C175 1.401 . S
C735 C166 1.401 . S
C749 C206 1.588 . S
C755 C215 1.588 . S
C769 C246 1.417 . S
C775 C255 1.417 . S
C789 C286 1.604 . S
C795 C295 1.604 . S
