# Generated by pormake.
# Topology cag, (4)-cn, num edge types: 1
# Building blocks:
#     Node 0, Type 0, BuildingBlock: GALJAG_clean_sbu_0, # of connection points: 4
#     Node 1, Type 0, BuildingBlock: GALJAG_clean_sbu_0, # of connection points: 4
#     Node 2, Type 0, BuildingBlock: GALJAG_clean_sbu_0, # of connection points: 4
#     Node 3, Type 0, BuildingBlock: GALJAG_clean_sbu_0, # of connection points: 4
#     Node 4, Type 0, BuildingBlock: GALJAG_clean_sbu_0, # of connection points: 4
#     Node 5, Type 0, BuildingBlock: GALJAG_clean_sbu_0, # of connection points: 4
#     Node 6, Type 0, BuildingBlock: GALJAG_clean_sbu_0, # of connection points: 4
#     Node 7, Type 0, BuildingBlock: GALJAG_clean_sbu_0, # of connection points: 4
#     Node 8, Type 0, BuildingBlock: GALJAG_clean_sbu_0, # of connection points: 4
#     Node 9, Type 0, BuildingBlock: GALJAG_clean_sbu_0, # of connection points: 4
#     Node 10, Type 0, BuildingBlock: GALJAG_clean_sbu_0, # of connection points: 4
#     Node 11, Type 0, BuildingBlock: GALJAG_clean_sbu_0, # of connection points: 4
#     Node 12, Type 0, BuildingBlock: GALJAG_clean_sbu_0, # of connection points: 4
#     Node 13, Type 0, BuildingBlock: GALJAG_clean_sbu_0, # of connection points: 4
#     Node 14, Type 0, BuildingBlock: GALJAG_clean_sbu_0, # of connection points: 4
#     Node 15, Type 0, BuildingBlock: GALJAG_clean_sbu_0, # of connection points: 4
#     Edge 16, Type (0, 0), BuildingBlock: XIVTED_clean_linker_0, # of connection points: 2
#     Edge 17, Type (0, 0), BuildingBlock: XIVTED_clean_linker_0, # of connection points: 2
#     Edge 18, Type (0, 0), BuildingBlock: XIVTED_clean_linker_0, # of connection points: 2
#     Edge 19, Type (0, 0), BuildingBlock: XIVTED_clean_linker_0, # of connection points: 2
#     Edge 20, Type (0, 0), BuildingBlock: XIVTED_clean_linker_0, # of connection points: 2
#     Edge 21, Type (0, 0), BuildingBlock: XIVTED_clean_linker_0, # of connection points: 2
#     Edge 22, Type (0, 0), BuildingBlock: XIVTED_clean_linker_0, # of connection points: 2
#     Edge 23, Type (0, 0), BuildingBlock: XIVTED_clean_linker_0, # of connection points: 2
#     Edge 24, Type (0, 0), BuildingBlock: XIVTED_clean_linker_0, # of connection points: 2
#     Edge 25, Type (0, 0), BuildingBlock: XIVTED_clean_linker_0, # of connection points: 2
#     Edge 26, Type (0, 0), BuildingBlock: XIVTED_clean_linker_0, # of connection points: 2
#     Edge 27, Type (0, 0), BuildingBlock: XIVTED_clean_linker_0, # of connection points: 2
#     Edge 28, Type (0, 0), BuildingBlock: XIVTED_clean_linker_0, # of connection points: 2
#     Edge 29, Type (0, 0), BuildingBlock: XIVTED_clean_linker_0, # of connection points: 2
#     Edge 30, Type (0, 0), BuildingBlock: XIVTED_clean_linker_0, # of connection points: 2
#     Edge 31, Type (0, 0), BuildingBlock: XIVTED_clean_linker_0, # of connection points: 2
#     Edge 32, Type (0, 0), BuildingBlock: XIVTED_clean_linker_0, # of connection points: 2
#     Edge 33, Type (0, 0), BuildingBlock: XIVTED_clean_linker_0, # of connection points: 2
#     Edge 34, Type (0, 0), BuildingBlock: XIVTED_clean_linker_0, # of connection points: 2
#     Edge 35, Type (0, 0), BuildingBlock: XIVTED_clean_linker_0, # of connection points: 2
#     Edge 36, Type (0, 0), BuildingBlock: XIVTED_clean_linker_0, # of connection points: 2
#     Edge 37, Type (0, 0), BuildingBlock: XIVTED_clean_linker_0, # of connection points: 2
#     Edge 38, Type (0, 0), BuildingBlock: XIVTED_clean_linker_0, # of connection points: 2
#     Edge 39, Type (0, 0), BuildingBlock: XIVTED_clean_linker_0, # of connection points: 2
#     Edge 40, Type (0, 0), BuildingBlock: XIVTED_clean_linker_0, # of connection points: 2
#     Edge 41, Type (0, 0), BuildingBlock: XIVTED_clean_linker_0, # of connection points: 2
#     Edge 42, Type (0, 0), BuildingBlock: XIVTED_clean_linker_0, # of connection points: 2
#     Edge 43, Type (0, 0), BuildingBlock: XIVTED_clean_linker_0, # of connection points: 2
#     Edge 44, Type (0, 0), BuildingBlock: XIVTED_clean_linker_0, # of connection points: 2
#     Edge 45, Type (0, 0), BuildingBlock: XIVTED_clean_linker_0, # of connection points: 2
#     Edge 46, Type (0, 0), BuildingBlock: XIVTED_clean_linker_0, # of connection points: 2
#     Edge 47, Type (0, 0), BuildingBlock: XIVTED_clean_linker_0, # of connection points: 2
# Relax obj value: 0.084
# Max RMSD: 0.168
# Mean RMSD: 0.142
data_MOF--net-cag--node1-GALJAG_clean_sbu_0--edge1-XIVTED_clean_linker_0
_symmetry_space_group_name_H-M    P1
_symmetry_Int_Tables_number       1
_symmetry_cell_setting            triclinic
loop_
_symmetry_equiv_pos_as_xyz
'x, y, z'
_cell_length_a     47.096634
_cell_length_b     50.25925
_cell_length_c     39.049065
_cell_angle_alpha  90.048042
_cell_angle_beta   90.106235
_cell_angle_gamma 89.963744
loop_
_atom_site_label
_atom_site_type_symbol
_atom_site_fract_x
_atom_site_fract_y
_atom_site_fract_z
_atom_type_partial_charge
In0 In 0.33018 0.14002 0.07444 0.0
O1 O 0.29771 0.1214 0.11066 0.0
O2 O 0.31956 0.15582 0.12768 0.0
C3 C 0.32783 0.08975 0.0506 0.0
C4 C 0.30297 0.17937 0.04037 0.0
C5 C 0.38661 0.14972 0.07474 0.0
O6 O 0.31114 0.10774 0.0403 0.0
O7 O 0.34571 0.09717 0.07274 0.0
O8 O 0.37188 0.15115 0.04776 0.0
O9 O 0.37284 0.14376 0.10126 0.0
C10 C 0.30137 0.13821 0.13417 0.0
O11 O 0.30618 0.15644 0.02783 0.0
O12 O 0.31411 0.18254 0.06942 0.0
In13 In 0.16381 0.85815 0.57963 0.0
O14 O 0.17306 0.81554 0.5634 0.0
O15 O 0.19986 0.84576 0.54367 0.0
C16 C 0.10725 0.85093 0.5877 0.0
C17 C 0.18859 0.85779 0.64196 0.0
C18 C 0.1678 0.90464 0.5455 0.0
O19 O 0.1206 0.84293 0.56174 0.0
O20 O 0.12241 0.86238 0.60986 0.0
O21 O 0.18323 0.89901 0.57089 0.0
O22 O 0.15068 0.88656 0.53675 0.0
C23 C 0.19418 0.82127 0.54507 0.0
O24 O 0.18045 0.87889 0.6275 0.0
O25 O 0.18362 0.83676 0.62537 0.0
In26 In 0.32651 0.85806 0.92189 0.0
O27 O 0.32009 0.81512 0.93831 0.0
O28 O 0.29227 0.84399 0.95942 0.0
C29 C 0.38295 0.85141 0.91275 0.0
C30 C 0.30114 0.85713 0.85984 0.0
C31 C 0.32182 0.90451 0.95624 0.0
O32 O 0.36999 0.84333 0.93896 0.0
O33 O 0.36744 0.86282 0.89086 0.0
O34 O 0.30369 0.89689 0.93455 0.0
O35 O 0.34194 0.88841 0.96126 0.0
C36 C 0.29925 0.8198 0.95757 0.0
O37 O 0.30969 0.87835 0.87366 0.0
O38 O 0.30595 0.83635 0.87693 0.0
In39 In 0.16529 0.13609 0.4146 0.0
O40 O 0.19024 0.11607 0.37169 0.0
O41 O 0.18207 0.15742 0.3672 0.0
C42 C 0.16611 0.08733 0.44333 0.0
C43 C 0.19453 0.17301 0.45021 0.0
C44 C 0.10897 0.14573 0.41052 0.0
O45 O 0.15545 0.0918 0.41426 0.0
O46 O 0.17627 0.10753 0.45816 0.0
O47 O 0.12205 0.14452 0.43869 0.0
O48 O 0.12435 0.1425 0.38447 0.0
C49 C 0.19326 0.13697 0.35432 0.0
O50 O 0.17012 0.17734 0.43806 0.0
O51 O 0.20399 0.14986 0.44499 0.0
In52 In 0.65171 0.85879 0.90642 0.0
O53 O 0.68856 0.84524 0.94049 0.0
O54 O 0.65977 0.81591 0.92221 0.0
C55 C 0.65759 0.90529 0.94067 0.0
C56 C 0.67613 0.85731 0.84399 0.0
C57 C 0.595 0.85106 0.90076 0.0
O58 O 0.67142 0.8999 0.91396 0.0
O59 O 0.64128 0.887 0.95063 0.0
O60 O 0.60931 0.86227 0.87766 0.0
O61 O 0.60931 0.84348 0.92621 0.0
C62 C 0.68192 0.82092 0.93925 0.0
O63 O 0.67489 0.83737 0.86345 0.0
O64 O 0.66408 0.87791 0.85541 0.0
In65 In 0.84061 0.13358 0.40438 0.0
O66 O 0.82884 0.1498 0.35156 0.0
O67 O 0.80883 0.11423 0.36805 0.0
C68 C 0.89698 0.14326 0.40334 0.0
C69 C 0.81016 0.17232 0.43493 0.0
C70 C 0.84204 0.08596 0.43588 0.0
O71 O 0.88353 0.13559 0.37715 0.0
O72 O 0.88195 0.14629 0.42972 0.0
O73 O 0.83593 0.10722 0.45148 0.0
O74 O 0.84738 0.08875 0.40442 0.0
C75 C 0.81113 0.13166 0.34507 0.0
O76 O 0.80347 0.14807 0.43685 0.0
O77 O 0.83244 0.17696 0.41812 0.0
In78 In 0.65483 0.13417 0.07992 0.0
O79 O 0.69343 0.14877 0.05002 0.0
O80 O 0.66041 0.17647 0.0603 0.0
C81 C 0.65538 0.08582 0.04997 0.0
C82 C 0.68286 0.13251 0.14048 0.0
C83 C 0.59862 0.14481 0.08031 0.0
O84 O 0.667 0.10588 0.03643 0.0
O85 O 0.64343 0.09029 0.07828 0.0
O86 O 0.61272 0.14131 0.10745 0.0
O87 O 0.6129 0.1432 0.05312 0.0
C88 C 0.68453 0.17237 0.04735 0.0
O89 O 0.67171 0.15348 0.12903 0.0
O90 O 0.67926 0.11231 0.12193 0.0
In91 In 0.83867 0.86128 0.58514 0.0
O92 O 0.80728 0.84598 0.54517 0.0
O93 O 0.82759 0.81757 0.57718 0.0
C94 C 0.84107 0.90906 0.55406 0.0
C95 C 0.80542 0.86333 0.6412 0.0
C96 C 0.89502 0.85193 0.59083 0.0
O97 O 0.83962 0.8875 0.53755 0.0
O98 O 0.84134 0.9065 0.5862 0.0
O99 O 0.881 0.86362 0.61386 0.0
O100 O 0.88057 0.84464 0.5653 0.0
C101 C 0.81001 0.82185 0.55342 0.0
O102 O 0.82724 0.84879 0.63957 0.0
O103 O 0.80076 0.8772 0.6149 0.0
In104 In 0.83321 0.63925 0.07212 0.0
O105 O 0.82234 0.62005 0.12364 0.0
O106 O 0.80762 0.65927 0.1142 0.0
C107 C 0.82878 0.59146 0.04054 0.0
C108 C 0.80624 0.67737 0.03573 0.0
C109 C 0.88924 0.64883 0.07969 0.0
O110 O 0.80864 0.60155 0.05737 0.0
O111 O 0.85075 0.60569 0.03902 0.0
O112 O 0.87616 0.65296 0.05196 0.0
O113 O 0.87398 0.64022 0.10378 0.0
C114 C 0.80855 0.63984 0.1345 0.0
O115 O 0.82691 0.68224 0.05531 0.0
O116 O 0.79968 0.65308 0.0336 0.0
In117 In 0.66356 0.35721 0.56893 0.0
O118 O 0.67808 0.37832 0.61766 0.0
O119 O 0.68483 0.33662 0.61421 0.0
C120 C 0.66857 0.40331 0.53392 0.0
C121 C 0.69262 0.31911 0.53505 0.0
C122 C 0.60712 0.34961 0.5768 0.0
O123 O 0.68531 0.39672 0.55766 0.0
O124 O 0.64956 0.3864 0.52727 0.0
O125 O 0.62049 0.34221 0.55055 0.0
O126 O 0.62221 0.36079 0.5993 0.0
C127 C 0.68793 0.35761 0.63152 0.0
O128 O 0.67118 0.31418 0.55323 0.0
O129 O 0.69924 0.34339 0.53345 0.0
In130 In 0.8261 0.35929 0.91148 0.0
O131 O 0.82079 0.31656 0.92992 0.0
O132 O 0.79196 0.34531 0.94912 0.0
C133 C 0.8822 0.35101 0.90274 0.0
C134 C 0.80048 0.35887 0.84943 0.0
C135 C 0.82362 0.40642 0.94491 0.0
O136 O 0.86921 0.34452 0.92972 0.0
O137 O 0.86684 0.36161 0.87995 0.0
O138 O 0.80212 0.39597 0.93107 0.0
O139 O 0.84603 0.39284 0.94261 0.0
C140 C 0.79948 0.32124 0.94839 0.0
O141 O 0.80769 0.3801 0.86428 0.0
O142 O 0.80677 0.33795 0.86546 0.0
In143 In 0.66749 0.63748 0.4116 0.0
O144 O 0.6935 0.65435 0.45599 0.0
O145 O 0.67938 0.68123 0.4177 0.0
C146 C 0.61091 0.64646 0.41182 0.0
C147 C 0.69831 0.63665 0.35331 0.0
C148 C 0.66928 0.58734 0.43599 0.0
O149 O 0.62593 0.64867 0.43846 0.0
O150 O 0.62443 0.63988 0.38532 0.0
O151 O 0.65566 0.59351 0.40928 0.0
O152 O 0.68189 0.60647 0.45042 0.0
C153 C 0.69316 0.67795 0.44507 0.0
O154 O 0.70452 0.62259 0.37894 0.0
O155 O 0.67654 0.65093 0.35699 0.0
In156 In 0.15047 0.35959 0.90477 0.0
O157 O 0.17897 0.34272 0.94642 0.0
O158 O 0.16378 0.3159 0.90846 0.0
C159 C 0.14943 0.40697 0.93761 0.0
C160 C 0.18317 0.36276 0.84837 0.0
C161 C 0.09424 0.34976 0.89818 0.0
O162 O 0.14655 0.3851 0.95299 0.0
O163 O 0.15276 0.40497 0.9057 0.0
O164 O 0.10917 0.3397 0.92167 0.0
O165 O 0.10775 0.36435 0.87766 0.0
C166 C 0.17884 0.31927 0.93489 0.0
O167 O 0.15768 0.35503 0.84724 0.0
O168 O 0.19197 0.36908 0.87779 0.0
In169 In 0.34279 0.63654 0.41341 0.0
O170 O 0.33578 0.63996 0.35566 0.0
O171 O 0.30162 0.62584 0.38615 0.0
C172 C 0.39879 0.64796 0.41053 0.0
C173 C 0.31416 0.67703 0.44286 0.0
C174 C 0.34543 0.58809 0.44319 0.0
O175 O 0.3847 0.64064 0.3847 0.0
O176 O 0.38452 0.65008 0.43769 0.0
O177 O 0.34308 0.60934 0.46008 0.0
O178 O 0.34656 0.59121 0.4112 0.0
C179 C 0.31048 0.63173 0.35666 0.0
O180 O 0.31108 0.65306 0.45151 0.0
O181 O 0.33221 0.68084 0.41951 0.0
In182 In 0.15689 0.63118 0.0892 0.0
O183 O 0.18905 0.64887 0.05246 0.0
O184 O 0.16632 0.67567 0.08442 0.0
C185 C 0.15463 0.58364 0.05682 0.0
C186 C 0.18878 0.62675 0.14637 0.0
C187 C 0.10088 0.64249 0.09177 0.0
O188 O 0.15757 0.60536 0.04114 0.0
O189 O 0.15289 0.58581 0.08891 0.0
O190 O 0.11414 0.63235 0.11665 0.0
O191 O 0.11593 0.64722 0.06581 0.0
C192 C 0.18496 0.67265 0.06155 0.0
O193 O 0.16344 0.63494 0.14697 0.0
O194 O 0.19783 0.62049 0.11709 0.0
In195 In 0.33912 0.35987 0.58338 0.0
O196 O 0.33167 0.35366 0.64064 0.0
O197 O 0.29826 0.37053 0.61107 0.0
C198 C 0.39525 0.34957 0.58792 0.0
C199 C 0.31086 0.31957 0.55312 0.0
C200 C 0.34186 0.40795 0.55271 0.0
O201 O 0.38148 0.36038 0.61186 0.0
O202 O 0.38061 0.34346 0.562 0.0
O203 O 0.34098 0.38648 0.53605 0.0
O204 O 0.34126 0.40519 0.58477 0.0
C205 C 0.30667 0.36275 0.64004 0.0
O206 O 0.30684 0.34365 0.54548 0.0
O207 O 0.32962 0.31565 0.57569 0.0
H208 H 0.29418 0.23004 0.0628 0.0
H209 H 0.18588 0.26807 0.91211 0.0
H210 H 0.27282 0.17643 0.98032 0.0
H211 H 0.21165 0.32204 0.99235 0.0
H212 H 0.21679 0.23384 0.93684 0.0
H213 H 0.26375 0.26385 0.0371 0.0
C214 C 0.2832 0.22544 0.03912 0.0
C215 C 0.28603 0.2004 0.02365 0.0
C216 C 0.21563 0.25316 0.94905 0.0
C217 C 0.2509 0.23899 0.99415 0.0
C218 C 0.19792 0.27266 0.93503 0.0
C219 C 0.1962 0.2979 0.95024 0.0
C220 C 0.23166 0.25899 0.97851 0.0
C221 C 0.21233 0.30284 0.97979 0.0
C222 C 0.26575 0.24475 0.02448 0.0
C223 C 0.27126 0.19552 0.99304 0.0
N224 N 0.22937 0.28358 0.99293 0.0
N225 N 0.25423 0.21463 0.97932 0.0
H226 H 0.27194 0.67222 0.48988 0.0
H227 H 0.2401 0.82829 0.50297 0.0
H228 H 0.31718 0.73071 0.43033 0.0
H229 H 0.18802 0.76748 0.54899 0.0
H230 H 0.26982 0.79346 0.47749 0.0
H231 H 0.24254 0.70751 0.51379 0.0
C232 C 0.27575 0.69255 0.48191 0.0
C233 C 0.29703 0.69857 0.4581 0.0
C234 C 0.25182 0.78778 0.49306 0.0
C235 C 0.26333 0.73916 0.48533 0.0
C236 C 0.23487 0.80762 0.50757 0.0
C237 C 0.2116 0.80073 0.52813 0.0
C238 C 0.24552 0.76091 0.49938 0.0
C239 C 0.20575 0.77368 0.53331 0.0
C240 C 0.25887 0.7127 0.49549 0.0
C241 C 0.30098 0.72524 0.44865 0.0
N242 N 0.22265 0.75479 0.51915 0.0
N243 N 0.28428 0.74461 0.46234 0.0
H244 H 0.30927 0.76651 0.95407 0.0
H245 H 0.17892 0.72597 0.07458 0.0
H246 H 0.25326 0.82425 0.00021 0.0
H247 H 0.2285 0.66998 0.01589 0.0
H248 H 0.20732 0.76237 0.05074 0.0
H249 H 0.28167 0.73093 0.98021 0.0
C250 C 0.29121 0.7717 0.96987 0.0
C251 C 0.28348 0.79836 0.97493 0.0
C252 C 0.21193 0.74211 0.04308 0.0
C253 C 0.25165 0.75767 0.00486 0.0
C254 C 0.19574 0.72136 0.05665 0.0
C255 C 0.20136 0.69496 0.04712 0.0
C256 C 0.23395 0.73633 0.02 0.0
C257 C 0.22341 0.69006 0.02387 0.0
C258 C 0.27539 0.75136 0.98471 0.0
C259 C 0.2599 0.80393 -0.00436 0.0
N260 N 0.23891 0.71053 0.01116 0.0
N261 N 0.24475 0.78373 0.00984 0.0
H262 H 0.26513 0.32408 0.51068 0.0
H263 H 0.2455 0.16766 0.48329 0.0
H264 H 0.3181 0.26579 0.56083 0.0
H265 H 0.18196 0.22582 0.45594 0.0
H266 H 0.27415 0.20315 0.50894 0.0
H267 H 0.2364 0.28815 0.48676 0.0
C268 C 0.27077 0.30369 0.51655 0.0
C269 C 0.29402 0.29787 0.53775 0.0
C270 C 0.25387 0.2081 0.49748 0.0
C271 C 0.26121 0.25664 0.51049 0.0
C272 C 0.23753 0.18788 0.48284 0.0
C273 C 0.21134 0.19385 0.46748 0.0
C274 C 0.24407 0.23448 0.49636 0.0
C275 C 0.20201 0.22035 0.46757 0.0
C276 C 0.25428 0.28319 0.50302 0.0
C277 C 0.30032 0.27111 0.5446 0.0
N278 N 0.21844 0.23971 0.4816 0.0
N279 N 0.28404 0.25144 0.53092 0.0
H280 H 0.81584 0.73094 0.03791 0.0
H281 H 0.67275 0.76734 0.93718 0.0
H282 H 0.75827 0.67228 -0.00332 0.0
H283 H 0.73171 0.82619 0.97496 0.0
H284 H 0.70368 0.73228 0.95923 0.0
H285 H 0.78566 0.76613 0.01456 0.0
C286 C 0.79695 0.72547 0.02369 0.0
C287 C 0.78952 0.69866 0.01922 0.0
C288 C 0.70986 0.75285 0.96277 0.0
C289 C 0.75473 0.73882 0.99273 0.0
C290 C 0.69215 0.77288 0.9503 0.0
C291 C 0.69968 0.79971 0.9543 0.0
C292 C 0.73531 0.75966 0.97939 0.0
C293 C 0.72509 0.80575 0.97139 0.0
C294 C 0.77968 0.74557 0.01046 0.0
C295 C 0.7648 0.6927 0.00067 0.0
N296 N 0.74202 0.78587 0.98329 0.0
N297 N 0.74822 0.71263 0.98823 0.0
H298 H 0.7611 0.16732 0.47157 0.0
H299 H 0.74069 0.32445 0.49644 0.0
H300 H 0.81957 0.22591 0.43245 0.0
H301 H 0.68289 0.26561 0.53642 0.0
H302 H 0.76942 0.28872 0.47173 0.0
H303 H 0.73189 0.20315 0.49504 0.0
C304 C 0.76782 0.18774 0.46802 0.0
C305 C 0.79278 0.19369 0.45011 0.0
C306 C 0.75041 0.28362 0.48583 0.0
C307 C 0.75945 0.23478 0.47671 0.0
C308 C 0.73399 0.30401 0.49986 0.0
C309 C 0.70942 0.29794 0.51851 0.0
C310 C 0.7422 0.257 0.49053 0.0
C311 C 0.7017 0.27115 0.52222 0.0
C312 C 0.75112 0.20819 0.48135 0.0
C313 C 0.80048 0.22047 0.44616 0.0
N314 N 0.71807 0.25166 0.50842 0.0
N315 N 0.78386 0.24004 0.45934 0.0
H316 H 0.75003 0.32555 0.98464 0.0
H317 H 0.73691 0.16865 0.01756 0.0
H318 H 0.81218 0.26826 0.95061 0.0
H319 H 0.67119 0.22514 0.04297 0.0
H320 H 0.7657 0.20506 0.99487 0.0
H321 H 0.72201 0.28926 0.00904 0.0
C322 C 0.75787 0.30535 0.98255 0.0
C323 C 0.78342 0.29987 0.96556 0.0
C324 C 0.74496 0.20949 0.00533 0.0
C325 C 0.75143 0.25827 0.99315 0.0
C326 C 0.7285 0.18871 0.01821 0.0
C327 C 0.70162 0.1939 0.03208 0.0
C328 C 0.73449 0.23567 0.00647 0.0
C329 C 0.69178 0.22026 0.03241 0.0
C330 C 0.74182 0.28463 -0.00366 0.0
C331 C 0.79257 0.27335 0.96348 0.0
N332 N 0.70824 0.24017 0.01986 0.0
N333 N 0.77656 0.25352 0.97704 0.0
H334 H 0.80934 0.76912 0.57028 0.0
H335 H 0.69553 0.73022 0.42615 0.0
H336 H 0.77213 0.82591 0.50055 0.0
H337 H 0.72689 0.67508 0.50199 0.0
H338 H 0.72384 0.76546 0.45257 0.0
H339 H 0.7801 0.73416 0.54473 0.0
C340 C 0.79508 0.7742 0.54949 0.0
C341 C 0.79316 0.80042 0.53746 0.0
C342 C 0.72445 0.74569 0.46353 0.0
C343 C 0.75958 0.76057 0.50818 0.0
C344 C 0.70826 0.72558 0.44849 0.0
C345 C 0.70889 0.69971 0.46192 0.0
C346 C 0.7415 0.73986 0.49212 0.0
C347 C 0.72579 0.69477 0.49084 0.0
C348 C 0.77833 0.75425 0.53499 0.0
C349 C 0.77427 0.80593 0.51057 0.0
N350 N 0.7415 0.71465 0.50492 0.0
N351 N 0.75822 0.78616 0.4968 0.0
H352 H 0.36271 0.04833 0.06732 0.0
H353 H 0.28214 0.94358 0.94684 0.0
H354 H 0.28949 0.06812 0.00579 0.0
H355 H 0.35895 0.92566 0.0027 0.0
H356 H 0.28254 0.98843 0.97115 0.0
H357 H 0.36003 0.00256 0.04647 0.0
C358 C 0.34605 0.04302 0.04942 0.0
C359 C 0.32635 0.06205 0.03816 0.0
C360 C 0.29924 0.97466 0.97822 0.0
C361 C 0.32307 0.00968 0.01427 0.0
C362 C 0.29897 0.94903 0.96443 0.0
C363 C 0.32059 0.93093 0.97271 0.0
C364 C 0.3213 0.98223 0.00044 0.0
C365 C 0.34189 0.93903 -0.0044 0.0
C366 C 0.34451 0.01688 0.03754 0.0
C367 C 0.30517 0.05408 0.01502 0.0
N368 N 0.34176 0.96412 0.00857 0.0
N369 N 0.3041 0.02849 0.00381 0.0
H370 H 0.13827 0.92103 0.48894 0.0
H371 H 0.19195 0.0717 0.50278 0.0
H372 H 0.19917 0.94798 0.56402 0.0
H373 H 0.14229 0.04186 0.41809 0.0
H374 H 0.1934 0.0268 0.52689 0.0
H375 H 0.13829 0.96547 0.46343 0.0
C376 C 0.15175 0.93627 0.49992 0.0
C377 C 0.16872 0.93086 0.52862 0.0
C378 C 0.18223 0.03007 0.503 0.0
C379 C 0.1687 0.98174 0.49982 0.0
C380 C 0.18132 0.05569 0.4893 0.0
C381 C 0.16696 0.06046 0.45844 0.0
C382 C 0.16851 0.00912 0.48579 0.0
C383 C 0.15361 0.03903 0.44196 0.0
C384 C 0.15176 0.96163 0.48538 0.0
C385 C 0.18577 0.95132 0.54188 0.0
N386 N 0.15464 0.01429 0.45589 0.0
N387 N 0.18523 0.9759 0.52747 0.0
H388 H 0.68854 0.94875 0.9214 0.0
H389 H 0.63007 0.0406 0.07348 0.0
H390 H 0.63002 0.92143 -0.00137 0.0
H391 H 0.68229 0.07012 0.99117 0.0
H392 H 0.63169 0.99628 0.04787 0.0
H393 H 0.68875 0.99272 0.9483 0.0
C394 C 0.67587 0.95197 0.94415 0.0
C395 C 0.65921 0.93144 0.9578 0.0
C396 C 0.6428 0.01243 0.03537 0.0
C397 C 0.65923 0.9817 0.98861 0.0
C398 C 0.64187 0.03774 0.04997 0.0
C399 C 0.65603 0.05906 0.03437 0.0
C400 C 0.65808 0.00834 0.00496 0.0
C401 C 0.67103 0.05423 0.00398 0.0
C402 C 0.67592 0.97709 0.95943 0.0
C403 C 0.64315 0.93671 0.98726 0.0
N404 N 0.67168 0.02936 0.99027 0.0
N405 N 0.64353 0.96133 0.00164 0.0
H406 H 0.85089 0.03723 0.40676 0.0
H407 H 0.84045 0.95813 0.58418 0.0
H408 H 0.83469 0.07524 0.50392 0.0
H409 H 0.84389 0.91958 0.48548 0.0
H410 H 0.84137 0.00138 0.55559 0.0
H411 H 0.85142 0.99404 0.43552 0.0
C412 C 0.84748 0.03647 0.43417 0.0
C413 C 0.84268 0.05981 0.453 0.0
C414 C 0.84192 0.98347 0.54018 0.0
C415 C 0.84331 0.01052 0.48608 0.0
C416 C 0.84145 0.95879 0.55648 0.0
C417 C 0.84204 0.93527 0.53714 0.0
C418 C 0.84313 0.98464 0.50427 0.0
C419 C 0.84333 0.93725 0.50135 0.0
C420 C 0.84774 0.01182 0.45056 0.0
C421 C 0.8384 0.05771 0.48843 0.0
N422 N 0.84386 0.96152 0.48605 0.0
N423 N 0.83883 0.03348 0.50384 0.0
H424 H 0.77751 0.43815 0.95818 0.0
H425 H 0.87221 0.56302 0.01258 0.0
H426 H 0.86883 0.43563 0.96689 0.0
H427 H 0.78255 0.55863 0.03441 0.0
H428 H 0.87049 0.51772 0.99007 0.0
H429 H 0.77804 0.48354 0.9814 0.0
C430 C 0.79763 0.4471 0.96513 0.0
C431 C 0.82317 0.43314 0.96064 0.0
C432 C 0.85117 0.52664 -0.00023 0.0
C433 C 0.82395 0.48499 0.98668 0.0
C434 C 0.8521 0.55256 0.01245 0.0
C435 C 0.82748 0.56456 0.02539 0.0
C436 C 0.82536 0.51267 -0.00032 0.0
C437 C 0.80203 0.55005 0.0247 0.0
C438 C 0.79791 0.47296 0.97836 0.0
C439 C 0.84864 0.44565 0.97 0.0
N440 N 0.80159 0.52484 0.01197 0.0
N441 N 0.8484 0.47091 0.98237 0.0
H442 H 0.63551 0.42189 0.48142 0.0
H443 H 0.70122 0.5685 0.48912 0.0
H444 H 0.70506 0.44414 0.54759 0.0
H445 H 0.64011 0.54378 0.41303 0.0
H446 H 0.70254 0.52305 0.51121 0.0
H447 H 0.63665 0.46636 0.45597 0.0
C448 C 0.65114 0.43609 0.49042 0.0
C449 C 0.67017 0.42938 0.5167 0.0
C450 C 0.6889 0.52752 0.48961 0.0
C451 C 0.67146 0.48029 0.48794 0.0
C452 C 0.68808 0.55348 0.47706 0.0
C453 C 0.67047 0.5599 0.44928 0.0
C454 C 0.67182 0.50785 0.47443 0.0
C455 C 0.65397 0.53966 0.43453 0.0
C456 C 0.65177 0.46146 0.47591 0.0
C457 C 0.68997 0.44851 0.52741 0.0
N458 N 0.65495 0.51455 0.44738 0.0
N459 N 0.69 0.47314 0.51312 0.0
H460 H 0.15827 0.57433 0.98807 0.0
H461 H 0.14335 0.41618 0.00623 0.0
H462 H 0.14806 0.53417 0.0849 0.0
H463 H 0.15531 0.45652 0.90982 0.0
H464 H 0.14404 0.45922 0.03549 0.0
H465 H 0.15634 0.53136 0.95888 0.0
C466 C 0.15561 0.55645 0.00318 0.0
C467 C 0.15336 0.55778 0.03895 0.0
C468 C 0.14648 0.45867 0.00794 0.0
C469 C 0.15111 0.50852 0.00574 0.0
C470 C 0.14607 0.43411 0.99122 0.0
C471 C 0.14932 0.43281 0.95557 0.0
C472 C 0.15016 0.48209 0.98883 0.0
C473 C 0.15277 0.45664 0.93737 0.0
C474 C 0.1545 0.53191 0.98651 0.0
C475 C 0.14991 0.53401 0.05727 0.0
N476 N 0.15313 0.4803 0.95421 0.0
N477 N 0.14891 0.51034 0.04045 0.0
H478 H 0.34416 0.57683 0.51152 0.0
H479 H 0.34424 0.41889 0.48419 0.0
H480 H 0.34839 0.53934 0.4122 0.0
H481 H 0.34292 0.45678 0.58339 0.0
H482 H 0.34622 0.46275 0.45722 0.0
H483 H 0.34423 0.53293 0.53829 0.0
C484 C 0.34516 0.55933 0.49536 0.0
C485 C 0.34621 0.56169 0.45961 0.0
C486 C 0.34554 0.46148 0.48489 0.0
C487 C 0.34623 0.51138 0.49002 0.0
C488 C 0.34439 0.43645 0.50028 0.0
C489 C 0.34335 0.43424 0.53606 0.0
C490 C 0.3456 0.48444 0.50544 0.0
C491 C 0.34365 0.45761 0.5557 0.0
C492 C 0.34521 0.53427 0.51064 0.0
C493 C 0.34753 0.53839 0.43988 0.0
N494 N 0.3447 0.48174 0.54013 0.0
N495 N 0.34743 0.51418 0.45535 0.0
H496 H 0.5629 0.14739 0.13533 0.0
H497 H 0.42222 0.15836 0.02042 0.0
H498 H 0.56384 0.15223 0.02501 0.0
H499 H 0.42182 0.14856 0.1302 0.0
H500 H 0.47417 0.16043 0.02185 0.0
H501 H 0.51123 0.15201 0.13427 0.0
C502 C 0.55223 0.14959 0.1109 0.0
C503 C 0.56763 0.14927 0.08021 0.0
C504 C 0.4627 0.15799 0.04564 0.0
C505 C 0.50852 0.15447 0.07874 0.0
C506 C 0.43306 0.15686 0.04483 0.0
C507 C 0.41774 0.15312 0.07521 0.0
C508 C 0.47706 0.15536 0.07706 0.0
C509 C 0.43282 0.15132 0.10614 0.0
C510 C 0.52273 0.1522 0.11028 0.0
C511 C 0.55275 0.15226 0.04927 0.0
N512 N 0.46163 0.15233 0.10625 0.0
N513 N 0.524 0.15461 0.04931 0.0
H514 H 0.92933 0.82719 0.5444 0.0
H515 H 0.07334 0.86819 0.64009 0.0
H516 H 0.93146 0.86878 0.64109 0.0
H517 H 0.07043 0.82761 0.54272 0.0
H518 H 0.0215 0.86581 0.64314 0.0
H519 H 0.98108 0.82426 0.54558 0.0
C520 C 0.9407 0.83556 0.566 0.0
C521 C 0.92611 0.84837 0.5926 0.0
C522 C 0.03221 0.85729 0.6212 0.0
C523 C 0.98539 0.84524 0.59406 0.0
C524 C 0.06179 0.85863 0.61946 0.0
C525 C 0.07616 0.8482 0.59102 0.0
C526 C 0.01691 0.84548 0.59427 0.0
C527 C 0.06018 0.836 0.56505 0.0
C528 C 0.97026 0.8339 0.56666 0.0
C529 C 0.9419 0.85879 0.62001 0.0
N530 N 0.03142 0.83508 0.56723 0.0
N531 N 0.97072 0.85713 0.61994 0.0
H532 H 0.41992 0.82678 0.95617 0.0
H533 H 0.55858 0.86894 0.85097 0.0
H534 H 0.41655 0.86968 0.86057 0.0
H535 H 0.56048 0.82717 0.94746 0.0
H536 H 0.50659 0.86683 0.85162 0.0
H537 H 0.47146 0.82418 0.95111 0.0
C538 C 0.43005 0.83556 0.93401 0.0
C539 C 0.41398 0.84858 0.90884 0.0
C540 C 0.51841 0.85799 0.87253 0.0
C541 C 0.47306 0.84578 0.90289 0.0
C542 C 0.54806 0.85915 0.87214 0.0
C543 C 0.56382 0.84833 0.89929 0.0
C544 C 0.50449 0.84594 0.90029 0.0
C545 C 0.54915 0.83587 0.92607 0.0
C546 C 0.4595 0.83407 0.93112 0.0
C547 C 0.42819 0.85952 0.88061 0.0
N548 N 0.52034 0.83513 0.92596 0.0
N549 N 0.45697 0.85799 0.87847 0.0
H550 H 0.07578 0.14483 0.35306 0.0
H551 H 0.9303 0.1574 0.45758 0.0
H552 H 0.07149 0.15404 0.46282 0.0
H553 H 0.93426 0.13793 0.35004 0.0
H554 H 0.98199 0.16117 0.45875 0.0
H555 H 0.02396 0.14721 0.3503 0.0
C556 C 0.06393 0.14756 0.37655 0.0
C557 C 0.0779 0.1491 0.40825 0.0
C558 C 0.97157 0.15619 0.43485 0.0
C559 C 0.01866 0.15176 0.40529 0.0
C560 C 0.94206 0.15408 0.43415 0.0
C561 C 0.92802 0.1472 0.4037 0.0
C562 C 0.98719 0.15142 0.40487 0.0
C563 C 0.94428 0.14317 0.37409 0.0
C564 C 0.03436 0.14885 0.37496 0.0
C565 C 0.06154 0.15265 0.43787 0.0
N566 N 0.97304 0.14524 0.37544 0.0
N567 N 0.03277 0.15376 0.43568 0.0
H568 H 0.06385 0.63325 0.1443 0.0
H569 H 0.92649 0.66645 0.03119 0.0
H570 H 0.06751 0.66211 0.04035 0.0
H571 H 0.9226 0.63838 0.13548 0.0
H572 H 0.97822 0.66824 0.03556 0.0
H573 H 0.01219 0.63816 0.14311 0.0
C574 C 0.05378 0.6408 0.12131 0.0
C575 C 0.06994 0.64714 0.09231 0.0
C576 C 0.96607 0.66186 0.05759 0.0
C577 C 0.01087 0.65269 0.09068 0.0
C578 C 0.93653 0.66086 0.05511 0.0
C579 C 0.92027 0.6521 0.08295 0.0
C580 C 0.97946 0.65393 0.08811 0.0
C581 C 0.93436 0.64516 0.11335 0.0
C582 C 0.0243 0.64358 0.12063 0.0
C583 C 0.05583 0.65689 0.06324 0.0
N584 N 0.96317 0.64606 0.11505 0.0
N585 N 0.02709 0.65921 0.06309 0.0
H586 H 0.57055 0.32663 0.53128 0.0
H587 H 0.43174 0.36354 0.63945 0.0
H588 H 0.57319 0.36522 0.62999 0.0
H589 H 0.42952 0.32778 0.53898 0.0
H590 H 0.48359 0.36084 0.63877 0.0
H591 H 0.51895 0.32352 0.53585 0.0
C592 C 0.56025 0.33433 0.55401 0.0
C593 C 0.57612 0.34634 0.58022 0.0
C594 C 0.47176 0.35343 0.61696 0.0
C595 C 0.51705 0.34293 0.58561 0.0
C596 C 0.44217 0.35491 0.61737 0.0
C597 C 0.42635 0.346 0.58914 0.0
C598 C 0.48562 0.34299 0.58808 0.0
C599 C 0.44092 0.33498 0.56123 0.0
C600 C 0.53079 0.33256 0.55661 0.0
C601 C 0.56172 0.3559 0.60914 0.0
N602 N 0.46974 0.33392 0.56132 0.0
N603 N 0.53297 0.35411 0.61099 0.0
H604 H 0.06012 0.32187 0.94184 0.0
H605 H 0.91589 0.36737 0.84973 0.0
H606 H 0.05763 0.36975 0.8502 0.0
H607 H 0.91902 0.32729 0.94735 0.0
H608 H 0.96766 0.36418 0.84604 0.0
H609 H 0.0083 0.31928 0.94074 0.0
C610 C 0.04867 0.33166 0.92132 0.0
C611 C 0.06316 0.34618 0.89619 0.0
C612 C 0.95701 0.35596 0.86818 0.0
C613 C 0.00386 0.34342 0.89484 0.0
C614 C 0.92747 0.35774 0.87027 0.0
C615 C 0.91319 0.34772 0.89899 0.0
C616 C 0.97236 0.34403 0.89499 0.0
C617 C 0.92921 0.3354 0.92483 0.0
C618 C 0.01908 0.33023 0.92075 0.0
C619 C 0.04727 0.35843 0.87017 0.0
N620 N 0.95793 0.334 0.92228 0.0
N621 N 0.01846 0.35689 0.87026 0.0
H622 H 0.57629 0.65873 0.46592 0.0
H623 H 0.43385 0.6445 0.35509 0.0
H624 H 0.57483 0.64277 0.35733 0.0
H625 H 0.43437 0.66003 0.46379 0.0
H626 H 0.48562 0.64726 0.3548 0.0
H627 H 0.52444 0.66252 0.46519 0.0
C628 C 0.56506 0.65618 0.44191 0.0
C629 C 0.57983 0.65027 0.41168 0.0
C630 C 0.47444 0.65024 0.3787 0.0
C631 C 0.52062 0.65453 0.41063 0.0
C632 C 0.44487 0.64871 0.37886 0.0
C633 C 0.42984 0.65189 0.40954 0.0
C634 C 0.48912 0.65489 0.4095 0.0
C635 C 0.44517 0.65736 0.43958 0.0
C636 C 0.53548 0.65834 0.44149 0.0
C637 C 0.56427 0.64722 0.38126 0.0
N638 N 0.474 0.65851 0.43885 0.0
N639 N 0.53552 0.64926 0.38155 0.0
H640 H 0.26909 0.09762 0.15937 0.0
H641 H 0.2114 0.18048 0.3188 0.0
H642 H 0.29728 0.17736 0.18231 0.0
H643 H 0.21058 0.09464 0.31583 0.0
H644 H 0.23788 0.18082 0.2649 0.0
H645 H 0.24244 0.09718 0.21318 0.0
C646 C 0.26963 0.11502 0.17574 0.0
C647 C 0.28539 0.13755 0.16652 0.0
C648 C 0.23192 0.16193 0.27611 0.0
C649 C 0.25488 0.13727 0.22768 0.0
C650 C 0.21674 0.16172 0.30673 0.0
C651 C 0.20887 0.13749 0.3217 0.0
C652 C 0.23888 0.13774 0.26018 0.0
C653 C 0.21635 0.11375 0.30511 0.0
C654 C 0.25452 0.11473 0.20643 0.0
C655 C 0.28545 0.15957 0.18861 0.0
N656 N 0.23085 0.11446 0.2751 0.0
N657 N 0.27028 0.15894 0.21812 0.0
H658 H 0.28158 0.81382 0.82469 0.0
H659 H 0.20448 0.90082 0.68015 0.0
H660 H 0.2847 0.89958 0.82089 0.0
H661 H 0.20822 0.81503 0.67821 0.0
H662 H 0.23227 0.90071 0.73304 0.0
H663 H 0.25362 0.81376 0.77188 0.0
C664 C 0.27648 0.83263 0.81263 0.0
C665 C 0.28546 0.85675 0.82712 0.0
C666 C 0.22699 0.88189 0.7211 0.0
C667 C 0.25332 0.85685 0.76691 0.0
C668 C 0.21104 0.88194 0.69098 0.0
C669 C 0.20406 0.85789 0.67482 0.0
C670 C 0.23598 0.8576 0.73521 0.0
C671 C 0.21315 0.83402 0.68988 0.0
C672 C 0.26048 0.83259 0.78253 0.0
C673 C 0.27823 0.88054 0.81052 0.0
N674 N 0.22867 0.83448 0.71924 0.0
N675 N 0.2625 0.88 0.78133 0.0
H676 H 0.70978 0.81746 0.8197 0.0
H677 H 0.761 0.89691 0.65387 0.0
H678 H 0.68085 0.89687 0.79608 0.0
H679 H 0.80555 0.82919 0.69553 0.0
H680 H 0.72786 0.89507 0.70208 0.0
H681 H 0.74086 0.81888 0.76977 0.0
C682 C 0.70976 0.83511 0.80379 0.0
C683 C 0.69278 0.85712 0.81204 0.0
C684 C 0.74494 0.88068 0.70068 0.0
C685 C 0.72841 0.85891 0.75501 0.0
C686 C 0.76384 0.88171 0.67323 0.0
C687 C 0.78606 0.8632 0.67082 0.0
C688 C 0.74812 0.8608 0.72563 0.0
C689 C 0.78878 0.8439 0.69652 0.0
C690 C 0.72764 0.83596 0.77543 0.0
C691 C 0.69366 0.87949 0.7906 0.0
N692 N 0.76994 0.84313 0.72279 0.0
N693 N 0.71124 0.87984 0.76303 0.0
H694 H 0.80379 0.17185 0.29882 0.0
H695 H 0.70168 0.08895 0.17553 0.0
H696 H 0.77757 0.09146 0.32111 0.0
H697 H 0.70434 0.17477 0.17606 0.0
H698 H 0.73336 0.08842 0.22532 0.0
H699 H 0.77178 0.17215 0.24932 0.0
C700 C 0.79144 0.15421 0.29313 0.0
C701 C 0.79327 0.1316 0.31403 0.0
C702 C 0.72687 0.10735 0.21464 0.0
C703 C 0.75672 0.13181 0.25763 0.0
C704 C 0.70883 0.10767 0.18627 0.0
C705 C 0.70038 0.13195 0.17178 0.0
C706 C 0.73687 0.13147 0.22822 0.0
C707 C 0.71026 0.15563 0.1866 0.0
C708 C 0.77307 0.15446 0.26506 0.0
C709 C 0.77672 0.10932 0.30565 0.0
N710 N 0.72819 0.15481 0.21389 0.0
N711 N 0.75918 0.10995 0.278 0.0
H712 H 0.74279 0.60411 0.33658 0.0
H713 H 0.77322 0.67815 0.15928 0.0
H714 H 0.69259 0.66954 0.29827 0.0
H715 H 0.80985 0.60198 0.18494 0.0
H716 H 0.747 0.67757 0.21311 0.0
H717 H 0.77086 0.60505 0.28381 0.0
C718 C 0.7377 0.61866 0.31706 0.0
C719 C 0.71534 0.63675 0.32169 0.0
C720 C 0.76078 0.66098 0.20701 0.0
C721 C 0.74735 0.63804 0.26159 0.0
C722 C 0.77583 0.66134 0.17635 0.0
C723 C 0.79365 0.64004 0.16766 0.0
C724 C 0.76369 0.63923 0.22928 0.0
C725 C 0.79625 0.61877 0.19069 0.0
C726 C 0.75367 0.61916 0.28698 0.0
C727 C 0.70961 0.65519 0.29566 0.0
N728 N 0.78141 0.6189 0.22052 0.0
N729 N 0.72557 0.6554 0.26676 0.0
H730 H 0.70059 0.40083 0.67125 0.0
H731 H 0.784 0.31549 0.81236 0.0
H732 H 0.71047 0.31554 0.66646 0.0
H733 H 0.78079 0.4013 0.81252 0.0
H734 H 0.75596 0.31507 0.75968 0.0
H735 H 0.72831 0.40137 0.72428 0.0
C736 C 0.70846 0.3822 0.68149 0.0
C737 C 0.70325 0.3581 0.66449 0.0
C738 C 0.76144 0.33401 0.77115 0.0
C739 C 0.73508 0.35856 0.72496 0.0
C740 C 0.77749 0.33426 0.8012 0.0
C741 C 0.78473 0.35848 0.81676 0.0
C742 C 0.75247 0.35816 0.75663 0.0
C743 C 0.7757 0.38219 0.80127 0.0
C744 C 0.72437 0.38253 0.71167 0.0
C745 C 0.71401 0.33456 0.67877 0.0
N746 N 0.75996 0.38144 0.77208 0.0
N747 N 0.72944 0.33538 0.70817 0.0
H748 H 0.24977 0.3726 0.64253 0.0
H749 H 0.2406 0.36949 0.84642 0.0
H750 H 0.32197 0.35519 0.70695 0.0
H751 H 0.16754 0.35834 0.78112 0.0
H752 H 0.27098 0.37022 0.79567 0.0
H753 H 0.21947 0.37337 0.69334 0.0
C754 C 0.25925 0.36903 0.6674 0.0
C755 C 0.28839 0.36377 0.67061 0.0
C756 C 0.24831 0.36761 0.79248 0.0
C757 C 0.25392 0.36477 0.72871 0.0
C758 C 0.23096 0.3673 0.82137 0.0
C759 C 0.20155 0.3638 0.81789 0.0
C760 C 0.2361 0.36476 0.75987 0.0
C761 C 0.19015 0.36099 0.78489 0.0
C762 C 0.24194 0.36937 0.69633 0.0
C763 C 0.29957 0.35923 0.7034 0.0
N764 N 0.20745 0.36163 0.75709 0.0
N765 N 0.28232 0.35993 0.73125 0.0
H766 H 0.2534 0.6227 0.35393 0.0
H767 H 0.24601 0.6186 0.14964 0.0
H768 H 0.32646 0.63568 0.28955 0.0
H769 H 0.17258 0.6323 0.21321 0.0
H770 H 0.27593 0.61855 0.20095 0.0
H771 H 0.22352 0.62001 0.30271 0.0
C772 C 0.26316 0.62489 0.32899 0.0
C773 C 0.29241 0.62951 0.32591 0.0
C774 C 0.25327 0.62152 0.20364 0.0
C775 C 0.25843 0.6263 0.26734 0.0
C776 C 0.23618 0.62145 0.17443 0.0
C777 C 0.20681 0.62554 0.17724 0.0
C778 C 0.24084 0.62541 0.23591 0.0
C779 C 0.19516 0.62917 0.20994 0.0
C780 C 0.24609 0.62343 0.29982 0.0
C781 C 0.30396 0.63222 0.29302 0.0
N782 N 0.21222 0.62897 0.23805 0.0
N783 N 0.28694 0.6305 0.26496 0.0
loop_
_geom_bond_atom_site_label_1
_geom_bond_atom_site_label_2
_geom_bond_distance
_geom_bond_site_symmetry_2
_ccdc_geom_bond_type
In0 O1 2.294 . S
In0 O2 2.326 . S
In0 O6 2.266 . S
In0 O7 2.326 . S
In0 O8 2.266 . S
In0 O9 2.326 . S
In0 O11 2.294 . S
In0 O12 2.326 . S
O1 In0 2.294 . S
O1 C10 1.240 . S
O2 In0 2.326 . S
O2 C10 1.252 . S
C3 O6 1.252 . S
C3 O7 1.260 . S
C4 O11 1.240 . S
C4 O12 1.252 . S
C5 O8 1.252 . S
C5 O9 1.260 . S
O6 In0 2.266 . S
O6 C3 1.252 . S
O7 In0 2.326 . S
O7 C3 1.260 . S
O8 In0 2.266 . S
O8 C5 1.252 . S
O9 In0 2.326 . S
O9 C5 1.260 . S
C10 O1 1.240 . S
C10 O2 1.252 . S
O11 In0 2.294 . S
O11 C4 1.240 . S
O12 In0 2.326 . S
O12 C4 1.252 . S
In13 O14 2.294 . S
In13 O15 2.326 . S
In13 O19 2.266 . S
In13 O20 2.326 . S
In13 O21 2.266 . S
In13 O22 2.326 . S
In13 O24 2.294 . S
In13 O25 2.326 . S
O14 In13 2.294 . S
O14 C23 1.240 . S
O15 In13 2.326 . S
O15 C23 1.252 . S
C16 O19 1.252 . S
C16 O20 1.260 . S
C17 O24 1.240 . S
C17 O25 1.252 . S
C18 O21 1.252 . S
C18 O22 1.260 . S
O19 In13 2.266 . S
O19 C16 1.252 . S
O20 In13 2.326 . S
O20 C16 1.260 . S
O21 In13 2.266 . S
O21 C18 1.252 . S
O22 In13 2.326 . S
O22 C18 1.260 . S
C23 O14 1.240 . S
C23 O15 1.252 . S
O24 In13 2.294 . S
O24 C17 1.240 . S
O25 In13 2.326 . S
O25 C17 1.252 . S
In26 O27 2.294 . S
In26 O28 2.326 . S
In26 O32 2.266 . S
In26 O33 2.326 . S
In26 O34 2.266 . S
In26 O35 2.326 . S
In26 O37 2.294 . S
In26 O38 2.326 . S
O27 In26 2.294 . S
O27 C36 1.240 . S
O28 In26 2.326 . S
O28 C36 1.252 . S
C29 O32 1.252 . S
C29 O33 1.260 . S
C30 O37 1.240 . S
C30 O38 1.252 . S
C31 O34 1.252 . S
C31 O35 1.260 . S
O32 In26 2.266 . S
O32 C29 1.252 . S
O33 In26 2.326 . S
O33 C29 1.260 . S
O34 In26 2.266 . S
O34 C31 1.252 . S
O35 In26 2.326 . S
O35 C31 1.260 . S
C36 O27 1.240 . S
C36 O28 1.252 . S
O37 In26 2.294 . S
O37 C30 1.240 . S
O38 In26 2.326 . S
O38 C30 1.252 . S
In39 O40 2.294 . S
In39 O41 2.326 . S
In39 O45 2.266 . S
In39 O46 2.326 . S
In39 O47 2.266 . S
In39 O48 2.326 . S
In39 O50 2.294 . S
In39 O51 2.326 . S
O40 In39 2.294 . S
O40 C49 1.240 . S
O41 In39 2.326 . S
O41 C49 1.252 . S
C42 O45 1.252 . S
C42 O46 1.260 . S
C43 O50 1.240 . S
C43 O51 1.252 . S
C44 O47 1.252 . S
C44 O48 1.260 . S
O45 In39 2.266 . S
O45 C42 1.252 . S
O46 In39 2.326 . S
O46 C42 1.260 . S
O47 In39 2.266 . S
O47 C44 1.252 . S
O48 In39 2.326 . S
O48 C44 1.260 . S
C49 O40 1.240 . S
C49 O41 1.252 . S
O50 In39 2.294 . S
O50 C43 1.240 . S
O51 In39 2.326 . S
O51 C43 1.252 . S
In52 O53 2.294 . S
In52 O54 2.326 . S
In52 O58 2.266 . S
In52 O59 2.326 . S
In52 O60 2.266 . S
In52 O61 2.326 . S
In52 O63 2.294 . S
In52 O64 2.326 . S
O53 In52 2.294 . S
O53 C62 1.240 . S
O54 In52 2.326 . S
O54 C62 1.252 . S
C55 O58 1.252 . S
C55 O59 1.260 . S
C56 O63 1.240 . S
C56 O64 1.252 . S
C57 O60 1.252 . S
C57 O61 1.260 . S
O58 In52 2.266 . S
O58 C55 1.252 . S
O59 In52 2.326 . S
O59 C55 1.260 . S
O60 In52 2.266 . S
O60 C57 1.252 . S
O61 In52 2.326 . S
O61 C57 1.260 . S
C62 O53 1.240 . S
C62 O54 1.252 . S
O63 In52 2.294 . S
O63 C56 1.240 . S
O64 In52 2.326 . S
O64 C56 1.252 . S
In65 O66 2.294 . S
In65 O67 2.326 . S
In65 O71 2.266 . S
In65 O72 2.326 . S
In65 O73 2.266 . S
In65 O74 2.326 . S
In65 O76 2.294 . S
In65 O77 2.326 . S
O66 In65 2.294 . S
O66 C75 1.240 . S
O67 In65 2.326 . S
O67 C75 1.252 . S
C68 O71 1.252 . S
C68 O72 1.260 . S
C69 O76 1.240 . S
C69 O77 1.252 . S
C70 O73 1.252 . S
C70 O74 1.260 . S
O71 In65 2.266 . S
O71 C68 1.252 . S
O72 In65 2.326 . S
O72 C68 1.260 . S
O73 In65 2.266 . S
O73 C70 1.252 . S
O74 In65 2.326 . S
O74 C70 1.260 . S
C75 O66 1.240 . S
C75 O67 1.252 . S
O76 In65 2.294 . S
O76 C69 1.240 . S
O77 In65 2.326 . S
O77 C69 1.252 . S
In78 O79 2.294 . S
In78 O80 2.326 . S
In78 O84 2.266 . S
In78 O85 2.326 . S
In78 O86 2.266 . S
In78 O87 2.326 . S
In78 O89 2.294 . S
In78 O90 2.326 . S
O79 In78 2.294 . S
O79 C88 1.240 . S
O80 In78 2.326 . S
O80 C88 1.252 . S
C81 O84 1.252 . S
C81 O85 1.260 . S
C82 O89 1.240 . S
C82 O90 1.252 . S
C83 O86 1.252 . S
C83 O87 1.260 . S
O84 In78 2.266 . S
O84 C81 1.252 . S
O85 In78 2.326 . S
O85 C81 1.260 . S
O86 In78 2.266 . S
O86 C83 1.252 . S
O87 In78 2.326 . S
O87 C83 1.260 . S
C88 O79 1.240 . S
C88 O80 1.252 . S
O89 In78 2.294 . S
O89 C82 1.240 . S
O90 In78 2.326 . S
O90 C82 1.252 . S
In91 O92 2.294 . S
In91 O93 2.326 . S
In91 O97 2.266 . S
In91 O98 2.326 . S
In91 O99 2.266 . S
In91 O100 2.326 . S
In91 O102 2.294 . S
In91 O103 2.326 . S
O92 In91 2.294 . S
O92 C101 1.240 . S
O93 In91 2.326 . S
O93 C101 1.252 . S
C94 O97 1.252 . S
C94 O98 1.260 . S
C95 O102 1.240 . S
C95 O103 1.252 . S
C96 O99 1.252 . S
C96 O100 1.260 . S
O97 In91 2.266 . S
O97 C94 1.252 . S
O98 In91 2.326 . S
O98 C94 1.260 . S
O99 In91 2.266 . S
O99 C96 1.252 . S
O100 In91 2.326 . S
O100 C96 1.260 . S
C101 O92 1.240 . S
C101 O93 1.252 . S
O102 In91 2.294 . S
O102 C95 1.240 . S
O103 In91 2.326 . S
O103 C95 1.252 . S
In104 O105 2.294 . S
In104 O106 2.326 . S
In104 O110 2.266 . S
In104 O111 2.326 . S
In104 O112 2.266 . S
In104 O113 2.326 . S
In104 O115 2.294 . S
In104 O116 2.326 . S
O105 In104 2.294 . S
O105 C114 1.240 . S
O106 In104 2.326 . S
O106 C114 1.252 . S
C107 O110 1.252 . S
C107 O111 1.260 . S
C108 O115 1.240 . S
C108 O116 1.252 . S
C109 O112 1.252 . S
C109 O113 1.260 . S
O110 In104 2.266 . S
O110 C107 1.252 . S
O111 In104 2.326 . S
O111 C107 1.260 . S
O112 In104 2.266 . S
O112 C109 1.252 . S
O113 In104 2.326 . S
O113 C109 1.260 . S
C114 O105 1.240 . S
C114 O106 1.252 . S
O115 In104 2.294 . S
O115 C108 1.240 . S
O116 In104 2.326 . S
O116 C108 1.252 . S
In117 O118 2.294 . S
In117 O119 2.326 . S
In117 O123 2.266 . S
In117 O124 2.326 . S
In117 O125 2.266 . S
In117 O126 2.326 . S
In117 O128 2.294 . S
In117 O129 2.326 . S
O118 In117 2.294 . S
O118 C127 1.240 . S
O119 In117 2.326 . S
O119 C127 1.252 . S
C120 O123 1.252 . S
C120 O124 1.260 . S
C121 O128 1.240 . S
C121 O129 1.252 . S
C122 O125 1.252 . S
C122 O126 1.260 . S
O123 In117 2.266 . S
O123 C120 1.252 . S
O124 In117 2.326 . S
O124 C120 1.260 . S
O125 In117 2.266 . S
O125 C122 1.252 . S
O126 In117 2.326 . S
O126 C122 1.260 . S
C127 O118 1.240 . S
C127 O119 1.252 . S
O128 In117 2.294 . S
O128 C121 1.240 . S
O129 In117 2.326 . S
O129 C121 1.252 . S
In130 O131 2.294 . S
In130 O132 2.326 . S
In130 O136 2.266 . S
In130 O137 2.326 . S
In130 O138 2.266 . S
In130 O139 2.326 . S
In130 O141 2.294 . S
In130 O142 2.326 . S
O131 In130 2.294 . S
O131 C140 1.240 . S
O132 In130 2.326 . S
O132 C140 1.252 . S
C133 O136 1.252 . S
C133 O137 1.260 . S
C134 O141 1.240 . S
C134 O142 1.252 . S
C135 O138 1.252 . S
C135 O139 1.260 . S
O136 In130 2.266 . S
O136 C133 1.252 . S
O137 In130 2.326 . S
O137 C133 1.260 . S
O138 In130 2.266 . S
O138 C135 1.252 . S
O139 In130 2.326 . S
O139 C135 1.260 . S
C140 O131 1.240 . S
C140 O132 1.252 . S
O141 In130 2.294 . S
O141 C134 1.240 . S
O142 In130 2.326 . S
O142 C134 1.252 . S
In143 O144 2.294 . S
In143 O145 2.326 . S
In143 O149 2.266 . S
In143 O150 2.326 . S
In143 O151 2.266 . S
In143 O152 2.326 . S
In143 O154 2.294 . S
In143 O155 2.326 . S
O144 In143 2.294 . S
O144 C153 1.240 . S
O145 In143 2.326 . S
O145 C153 1.252 . S
C146 O149 1.252 . S
C146 O150 1.260 . S
C147 O154 1.240 . S
C147 O155 1.252 . S
C148 O151 1.252 . S
C148 O152 1.260 . S
O149 In143 2.266 . S
O149 C146 1.252 . S
O150 In143 2.326 . S
O150 C146 1.260 . S
O151 In143 2.266 . S
O151 C148 1.252 . S
O152 In143 2.326 . S
O152 C148 1.260 . S
C153 O144 1.240 . S
C153 O145 1.252 . S
O154 In143 2.294 . S
O154 C147 1.240 . S
O155 In143 2.326 . S
O155 C147 1.252 . S
In156 O157 2.294 . S
In156 O158 2.326 . S
In156 O162 2.266 . S
In156 O163 2.326 . S
In156 O164 2.266 . S
In156 O165 2.326 . S
In156 O167 2.294 . S
In156 O168 2.326 . S
O157 In156 2.294 . S
O157 C166 1.240 . S
O158 In156 2.326 . S
O158 C166 1.252 . S
C159 O162 1.252 . S
C159 O163 1.260 . S
C160 O167 1.240 . S
C160 O168 1.252 . S
C161 O164 1.252 . S
C161 O165 1.260 . S
O162 In156 2.266 . S
O162 C159 1.252 . S
O163 In156 2.326 . S
O163 C159 1.260 . S
O164 In156 2.266 . S
O164 C161 1.252 . S
O165 In156 2.326 . S
O165 C161 1.260 . S
C166 O157 1.240 . S
C166 O158 1.252 . S
O167 In156 2.294 . S
O167 C160 1.240 . S
O168 In156 2.326 . S
O168 C160 1.252 . S
In169 O170 2.294 . S
In169 O171 2.326 . S
In169 O175 2.266 . S
In169 O176 2.326 . S
In169 O177 2.266 . S
In169 O178 2.326 . S
In169 O180 2.294 . S
In169 O181 2.326 . S
O170 In169 2.294 . S
O170 C179 1.240 . S
O171 In169 2.326 . S
O171 C179 1.252 . S
C172 O175 1.252 . S
C172 O176 1.260 . S
C173 O180 1.240 . S
C173 O181 1.252 . S
C174 O177 1.252 . S
C174 O178 1.260 . S
O175 In169 2.266 . S
O175 C172 1.252 . S
O176 In169 2.326 . S
O176 C172 1.260 . S
O177 In169 2.266 . S
O177 C174 1.252 . S
O178 In169 2.326 . S
O178 C174 1.260 . S
C179 O170 1.240 . S
C179 O171 1.252 . S
O180 In169 2.294 . S
O180 C173 1.240 . S
O181 In169 2.326 . S
O181 C173 1.252 . S
In182 O183 2.294 . S
In182 O184 2.326 . S
In182 O188 2.266 . S
In182 O189 2.326 . S
In182 O190 2.266 . S
In182 O191 2.326 . S
In182 O193 2.294 . S
In182 O194 2.326 . S
O183 In182 2.294 . S
O183 C192 1.240 . S
O184 In182 2.326 . S
O184 C192 1.252 . S
C185 O188 1.252 . S
C185 O189 1.260 . S
C186 O193 1.240 . S
C186 O194 1.252 . S
C187 O190 1.252 . S
C187 O191 1.260 . S
O188 In182 2.266 . S
O188 C185 1.252 . S
O189 In182 2.326 . S
O189 C185 1.260 . S
O190 In182 2.266 . S
O190 C187 1.252 . S
O191 In182 2.326 . S
O191 C187 1.260 . S
C192 O183 1.240 . S
C192 O184 1.252 . S
O193 In182 2.294 . S
O193 C186 1.240 . S
O194 In182 2.326 . S
O194 C186 1.252 . S
In195 O196 2.294 . S
In195 O197 2.326 . S
In195 O201 2.266 . S
In195 O202 2.326 . S
In195 O203 2.266 . S
In195 O204 2.326 . S
In195 O206 2.294 . S
In195 O207 2.326 . S
O196 In195 2.294 . S
O196 C205 1.240 . S
O197 In195 2.326 . S
O197 C205 1.252 . S
C198 O201 1.252 . S
C198 O202 1.260 . S
C199 O206 1.240 . S
C199 O207 1.252 . S
C200 O203 1.252 . S
C200 O204 1.260 . S
O201 In195 2.266 . S
O201 C198 1.252 . S
O202 In195 2.326 . S
O202 C198 1.260 . S
O203 In195 2.266 . S
O203 C200 1.252 . S
O204 In195 2.326 . S
O204 C200 1.260 . S
C205 O196 1.240 . S
C205 O197 1.252 . S
O206 In195 2.294 . S
O206 C199 1.240 . S
O207 In195 2.326 . S
O207 C199 1.252 . S
H208 C214 0.930 . S
H209 C218 0.930 . S
H210 C223 0.929 1_556 S
H211 C221 0.929 . S
H212 C216 0.929 . S
H213 C222 0.929 . S
C214 H208 0.930 . S
C214 C215 1.367 . S
C214 C222 1.378 . S
C215 C214 1.367 . S
C215 C223 1.433 . S
C216 H212 0.929 . S
C216 C218 1.378 . S
C216 C220 1.350 . S
C217 C220 1.476 . S
C217 C222 1.329 1_556 S
C217 N225 1.437 . S
C218 H209 0.930 . S
C218 C216 1.378 . S
C218 C219 1.367 . S
C219 C218 1.367 . S
C219 C221 1.433 . S
C220 C216 1.350 . S
C220 C217 1.476 . S
C220 N224 1.427 . S
C221 H211 0.929 . S
C221 C219 1.433 . S
C221 N224 1.384 . S
C222 H213 0.929 . S
C222 C214 1.378 . S
C222 C217 1.329 1_554 S
C223 H210 0.929 1_554 S
C223 C215 1.433 . S
C223 N225 1.384 1_554 S
N224 C220 1.427 . S
N224 C221 1.384 . S
N225 C217 1.437 . S
N225 C223 1.384 1_556 S
H226 C232 0.930 . S
H227 C236 0.930 . S
H228 C241 0.929 . S
H229 C239 0.929 . S
H230 C234 0.929 . S
H231 C240 0.929 . S
C232 H226 0.930 . S
C232 C233 1.367 . S
C232 C240 1.378 . S
C233 C232 1.367 . S
C233 C241 1.433 . S
C234 H230 0.929 . S
C234 C236 1.378 . S
C234 C238 1.350 . S
C235 C238 1.463 . S
C235 C240 1.350 . S
C235 N243 1.427 . S
C236 H227 0.930 . S
C236 C234 1.378 . S
C236 C237 1.367 . S
C237 C236 1.367 . S
C237 C239 1.433 . S
C238 C234 1.350 . S
C238 C235 1.463 . S
C238 N242 1.427 . S
C239 H229 0.929 . S
C239 C237 1.433 . S
C239 N242 1.384 . S
C240 H231 0.929 . S
C240 C232 1.378 . S
C240 C235 1.350 . S
C241 H228 0.929 . S
C241 C233 1.433 . S
C241 N243 1.384 . S
N242 C238 1.427 . S
N242 C239 1.384 . S
N243 C235 1.427 . S
N243 C241 1.384 . S
H244 C250 0.930 . S
H245 C254 0.930 . S
H246 C259 0.929 . S
H247 C257 0.929 . S
H248 C252 0.929 . S
H249 C258 0.929 . S
C250 H244 0.930 . S
C250 C251 1.367 . S
C250 C258 1.378 . S
C251 C250 1.367 . S
C251 C259 1.433 . S
C252 H248 0.929 . S
C252 C254 1.378 . S
C252 C256 1.350 . S
C253 C256 1.463 . S
C253 C258 1.350 1_554 S
C253 N261 1.427 . S
C254 H245 0.930 . S
C254 C252 1.378 . S
C254 C255 1.367 . S
C255 C254 1.367 . S
C255 C257 1.433 . S
C256 C252 1.350 . S
C256 C253 1.463 . S
C256 N260 1.427 . S
C257 H247 0.929 . S
C257 C255 1.433 . S
C257 N260 1.384 . S
C258 H249 0.929 . S
C258 C250 1.378 . S
C258 C253 1.350 1_556 S
C259 H246 0.929 . S
C259 C251 1.433 . S
C259 N261 1.384 1_556 S
N260 C256 1.427 . S
N260 C257 1.384 . S
N261 C253 1.427 . S
N261 C259 1.384 1_554 S
H262 C268 0.930 . S
H263 C272 0.930 . S
H264 C277 0.929 . S
H265 C275 0.929 . S
H266 C270 0.929 . S
H267 C276 0.929 . S
C268 H262 0.930 . S
C268 C269 1.367 . S
C268 C276 1.378 . S
C269 C268 1.367 . S
C269 C277 1.433 . S
C270 H266 0.929 . S
C270 C272 1.378 . S
C270 C274 1.350 . S
C271 C274 1.463 . S
C271 C276 1.350 . S
C271 N279 1.427 . S
C272 H263 0.930 . S
C272 C270 1.378 . S
C272 C273 1.367 . S
C273 C272 1.367 . S
C273 C275 1.433 . S
C274 C270 1.350 . S
C274 C271 1.463 . S
C274 N278 1.427 . S
C275 H265 0.929 . S
C275 C273 1.433 . S
C275 N278 1.384 . S
C276 H267 0.929 . S
C276 C268 1.378 . S
C276 C271 1.350 . S
C277 H264 0.929 . S
C277 C269 1.433 . S
C277 N279 1.384 . S
N278 C274 1.427 . S
N278 C275 1.384 . S
N279 C271 1.427 . S
N279 C277 1.384 . S
H280 C286 0.930 . S
H281 C290 0.930 . S
H282 C295 0.929 . S
H283 C293 0.929 . S
H284 C288 0.929 . S
H285 C294 0.929 . S
C286 H280 0.930 . S
C286 C287 1.367 . S
C286 C294 1.378 . S
C287 C286 1.367 . S
C287 C295 1.433 1_554 S
C288 H284 0.929 . S
C288 C290 1.378 . S
C288 C292 1.350 . S
C289 C292 1.474 . S
C289 C294 1.330 1_556 S
C289 N297 1.438 . S
C290 H281 0.930 . S
C290 C288 1.378 . S
C290 C291 1.367 . S
C291 C290 1.367 . S
C291 C293 1.433 . S
C292 C288 1.350 . S
C292 C289 1.474 . S
C292 N296 1.427 . S
C293 H283 0.929 . S
C293 C291 1.433 . S
C293 N296 1.384 . S
C294 H285 0.929 . S
C294 C286 1.378 . S
C294 C289 1.330 1_554 S
C295 H282 0.929 . S
C295 C287 1.433 1_556 S
C295 N297 1.384 . S
N296 C292 1.427 . S
N296 C293 1.384 . S
N297 C289 1.438 . S
N297 C295 1.384 . S
H298 C304 0.930 . S
H299 C308 0.930 . S
H300 C313 0.929 . S
H301 C311 0.929 . S
H302 C306 0.929 . S
H303 C312 0.929 . S
C304 H298 0.930 . S
C304 C305 1.367 . S
C304 C312 1.378 . S
C305 C304 1.367 . S
C305 C313 1.433 . S
C306 H302 0.929 . S
C306 C308 1.378 . S
C306 C310 1.350 . S
C307 C310 1.463 . S
C307 C312 1.350 . S
C307 N315 1.427 . S
C308 H299 0.930 . S
C308 C306 1.378 . S
C308 C309 1.367 . S
C309 C308 1.367 . S
C309 C311 1.433 . S
C310 C306 1.350 . S
C310 C307 1.463 . S
C310 N314 1.427 . S
C311 H301 0.929 . S
C311 C309 1.433 . S
C311 N314 1.384 . S
C312 H303 0.929 . S
C312 C304 1.378 . S
C312 C307 1.350 . S
C313 H300 0.929 . S
C313 C305 1.433 . S
C313 N315 1.384 . S
N314 C310 1.427 . S
N314 C311 1.384 . S
N315 C307 1.427 . S
N315 C313 1.384 . S
H316 C322 0.936 . S
H317 C326 0.930 . S
H318 C331 0.929 . S
H319 C329 0.929 . S
H320 C324 0.929 1_556 S
H321 C330 0.929 . S
C322 H316 0.936 . S
C322 C323 1.367 . S
C322 C330 1.378 1_556 S
C323 C322 1.367 . S
C323 C331 1.433 . S
C324 H320 0.929 1_554 S
C324 C326 1.378 . S
C324 C328 1.350 . S
C325 C328 1.463 . S
C325 C330 1.350 . S
C325 N333 1.427 1_554 S
C326 H317 0.930 . S
C326 C324 1.378 . S
C326 C327 1.367 . S
C327 C326 1.367 . S
C327 C329 1.433 . S
C328 C324 1.350 . S
C328 C325 1.463 . S
C328 N332 1.427 . S
C329 H319 0.929 . S
C329 C327 1.433 . S
C329 N332 1.384 . S
C330 H321 0.929 . S
C330 C322 1.378 1_554 S
C330 C325 1.350 . S
C331 H318 0.929 . S
C331 C323 1.433 . S
C331 N333 1.384 . S
N332 C328 1.427 . S
N332 C329 1.384 . S
N333 C325 1.427 1_556 S
N333 C331 1.384 . S
H334 C340 0.930 . S
H335 C344 0.930 . S
H336 C349 0.929 . S
H337 C347 0.929 . S
H338 C342 0.929 . S
H339 C348 0.929 . S
C340 H334 0.930 . S
C340 C341 1.367 . S
C340 C348 1.378 . S
C341 C340 1.367 . S
C341 C349 1.433 . S
C342 H338 0.929 . S
C342 C344 1.378 . S
C342 C346 1.350 . S
C343 C346 1.463 . S
C343 C348 1.350 . S
C343 N351 1.427 . S
C344 H335 0.930 . S
C344 C342 1.378 . S
C344 C345 1.367 . S
C345 C344 1.367 . S
C345 C347 1.433 . S
C346 C342 1.350 . S
C346 C343 1.463 . S
C346 N350 1.427 . S
C347 H337 0.929 . S
C347 C345 1.433 . S
C347 N350 1.384 . S
C348 H339 0.929 . S
C348 C340 1.378 . S
C348 C343 1.350 . S
C349 H336 0.929 . S
C349 C341 1.433 . S
C349 N351 1.384 . S
N350 C346 1.427 . S
N350 C347 1.384 . S
N351 C343 1.427 . S
N351 C349 1.384 . S
H352 C358 0.930 . S
H353 C362 0.930 . S
H354 C367 0.929 . S
H355 C365 0.929 . S
H356 C360 0.929 . S
H357 C366 0.929 . S
C358 H352 0.930 . S
C358 C359 1.367 . S
C358 C366 1.378 1_554 S
C359 C358 1.367 . S
C359 C367 1.433 . S
C360 H356 0.929 . S
C360 C362 1.378 1_554 S
C360 C364 1.350 1_554 S
C361 C364 1.463 1_544 S
C361 C366 1.350 1_554 S
C361 N369 1.427 . S
C362 H353 0.930 . S
C362 C360 1.378 1_556 S
C362 C363 1.367 . S
C363 C362 1.367 . S
C363 C365 1.433 . S
C364 C360 1.350 1_556 S
C364 C361 1.463 1_566 S
C364 N368 1.427 . S
C365 H355 0.929 . S
C365 C363 1.433 . S
C365 N368 1.384 . S
C366 H357 0.929 . S
C366 C358 1.378 1_556 S
C366 C361 1.350 1_556 S
C367 H354 0.929 . S
C367 C359 1.433 . S
C367 N369 1.384 . S
N368 C364 1.427 . S
N368 C365 1.384 . S
N369 C361 1.427 . S
N369 C367 1.384 . S
H370 C376 0.930 . S
H371 C380 0.930 . S
H372 C385 0.929 . S
H373 C383 0.929 . S
H374 C378 0.929 . S
H375 C384 0.929 . S
C376 H370 0.930 . S
C376 C377 1.367 . S
C376 C384 1.378 . S
C377 C376 1.367 . S
C377 C385 1.433 . S
C378 H374 0.929 . S
C378 C380 1.378 . S
C378 C382 1.350 . S
C379 C382 1.463 1_565 S
C379 C384 1.350 . S
C379 N387 1.427 . S
C380 H371 0.930 . S
C380 C378 1.378 . S
C380 C381 1.367 . S
C381 C380 1.367 . S
C381 C383 1.433 . S
C382 C378 1.350 . S
C382 C379 1.463 1_545 S
C382 N386 1.427 . S
C383 H373 0.929 . S
C383 C381 1.433 . S
C383 N386 1.384 . S
C384 H375 0.929 . S
C384 C376 1.378 . S
C384 C379 1.350 . S
C385 H372 0.929 . S
C385 C377 1.433 . S
C385 N387 1.384 . S
N386 C382 1.427 . S
N386 C383 1.384 . S
N387 C379 1.427 . S
N387 C385 1.384 . S
H388 C394 0.930 . S
H389 C398 0.930 . S
H390 C403 0.929 . S
H391 C401 0.929 . S
H392 C396 0.929 . S
H393 C402 0.929 . S
C394 H388 0.930 . S
C394 C395 1.367 . S
C394 C402 1.378 . S
C395 C394 1.367 . S
C395 C403 1.433 . S
C396 H392 0.929 . S
C396 C398 1.378 . S
C396 C400 1.350 . S
C397 C400 1.463 1_566 S
C397 C402 1.350 . S
C397 N405 1.427 . S
C398 H389 0.930 . S
C398 C396 1.378 . S
C398 C399 1.367 . S
C399 C398 1.367 . S
C399 C401 1.433 . S
C400 C396 1.350 . S
C400 C397 1.463 1_544 S
C400 N404 1.427 . S
C401 H391 0.929 . S
C401 C399 1.433 . S
C401 N404 1.384 . S
C402 H393 0.929 . S
C402 C394 1.378 . S
C402 C397 1.350 . S
C403 H390 0.929 . S
C403 C395 1.433 . S
C403 N405 1.384 . S
N404 C400 1.427 . S
N404 C401 1.384 . S
N405 C397 1.427 . S
N405 C403 1.384 . S
H406 C412 0.930 . S
H407 C416 0.930 . S
H408 C421 0.929 . S
H409 C419 0.929 . S
H410 C414 0.929 1_545 S
H411 C420 0.929 1_565 S
C412 H406 0.930 . S
C412 C413 1.367 . S
C412 C420 1.378 . S
C413 C412 1.367 . S
C413 C421 1.433 . S
C414 H410 0.929 1_565 S
C414 C416 1.378 . S
C414 C418 1.350 . S
C415 C418 1.463 1_545 S
C415 C420 1.350 . S
C415 N423 1.427 . S
C416 H407 0.930 . S
C416 C414 1.378 . S
C416 C417 1.367 . S
C417 C416 1.367 . S
C417 C419 1.433 . S
C418 C414 1.350 . S
C418 C415 1.463 1_565 S
C418 N422 1.427 . S
C419 H409 0.929 . S
C419 C417 1.433 . S
C419 N422 1.384 . S
C420 H411 0.929 1_545 S
C420 C412 1.378 . S
C420 C415 1.350 . S
C421 H408 0.929 . S
C421 C413 1.433 . S
C421 N423 1.384 . S
N422 C418 1.427 . S
N422 C419 1.384 . S
N423 C415 1.427 . S
N423 C421 1.384 . S
H424 C430 0.930 . S
H425 C434 0.930 . S
H426 C439 0.929 . S
H427 C437 0.929 . S
H428 C432 0.918 1_556 S
H429 C438 0.918 1_554 S
C430 H424 0.930 . S
C430 C431 1.367 . S
C430 C438 1.386 . S
C431 C430 1.367 . S
C431 C439 1.433 . S
C432 H428 0.918 1_554 S
C432 C434 1.386 . S
C432 C436 1.353 . S
C433 C436 1.463 1_556 S
C433 C438 1.353 . S
C433 N441 1.427 . S
C434 H425 0.930 . S
C434 C432 1.386 . S
C434 C435 1.367 . S
C435 C434 1.367 . S
C435 C437 1.433 . S
C436 C432 1.353 . S
C436 C433 1.463 1_554 S
C436 N440 1.427 . S
C437 H427 0.929 . S
C437 C435 1.433 . S
C437 N440 1.384 . S
C438 H429 0.918 1_556 S
C438 C430 1.386 . S
C438 C433 1.353 . S
C439 H426 0.929 . S
C439 C431 1.433 . S
C439 N441 1.384 . S
N440 C436 1.427 . S
N440 C437 1.384 . S
N441 C433 1.427 . S
N441 C439 1.384 . S
H442 C448 0.930 . S
H443 C452 0.930 . S
H444 C457 0.929 . S
H445 C455 0.929 . S
H446 C450 0.929 . S
H447 C456 0.929 . S
C448 H442 0.930 . S
C448 C449 1.367 . S
C448 C456 1.378 . S
C449 C448 1.367 . S
C449 C457 1.433 . S
C450 H446 0.929 . S
C450 C452 1.378 . S
C450 C454 1.350 . S
C451 C454 1.463 . S
C451 C456 1.350 . S
C451 N459 1.427 . S
C452 H443 0.930 . S
C452 C450 1.378 . S
C452 C453 1.367 . S
C453 C452 1.367 . S
C453 C455 1.433 . S
C454 C450 1.350 . S
C454 C451 1.463 . S
C454 N458 1.427 . S
C455 H445 0.929 . S
C455 C453 1.433 . S
C455 N458 1.384 . S
C456 H447 0.929 . S
C456 C448 1.378 . S
C456 C451 1.350 . S
C457 H444 0.929 . S
C457 C449 1.433 . S
C457 N459 1.384 . S
N458 C454 1.427 . S
N458 C455 1.384 . S
N459 C451 1.427 . S
N459 C457 1.384 . S
H460 C466 0.930 . S
H461 C470 0.930 . S
H462 C475 0.929 . S
H463 C473 0.929 . S
H464 C468 0.929 . S
H465 C474 0.929 . S
C466 H460 0.930 . S
C466 C467 1.367 . S
C466 C474 1.378 1_554 S
C467 C466 1.367 . S
C467 C475 1.433 . S
C468 H464 0.929 . S
C468 C470 1.378 1_554 S
C468 C472 1.350 1_554 S
C469 C472 1.463 1_554 S
C469 C474 1.350 1_554 S
C469 N477 1.427 . S
C470 H461 0.930 . S
C470 C468 1.378 1_556 S
C470 C471 1.367 . S
C471 C470 1.367 . S
C471 C473 1.433 . S
C472 C468 1.350 1_556 S
C472 C469 1.463 1_556 S
C472 N476 1.427 . S
C473 H463 0.929 . S
C473 C471 1.433 . S
C473 N476 1.384 . S
C474 H465 0.929 . S
C474 C466 1.378 1_556 S
C474 C469 1.350 1_556 S
C475 H462 0.929 . S
C475 C467 1.433 . S
C475 N477 1.384 . S
N476 C472 1.427 . S
N476 C473 1.384 . S
N477 C469 1.427 . S
N477 C475 1.384 . S
H478 C484 0.930 . S
H479 C488 0.930 . S
H480 C493 0.929 . S
H481 C491 0.929 . S
H482 C486 0.929 . S
H483 C492 0.929 . S
C484 H478 0.930 . S
C484 C485 1.367 . S
C484 C492 1.378 . S
C485 C484 1.367 . S
C485 C493 1.433 . S
C486 H482 0.929 . S
C486 C488 1.378 . S
C486 C490 1.350 . S
C487 C490 1.463 . S
C487 C492 1.350 . S
C487 N495 1.427 . S
C488 H479 0.930 . S
C488 C486 1.378 . S
C488 C489 1.367 . S
C489 C488 1.367 . S
C489 C491 1.433 . S
C490 C486 1.350 . S
C490 C487 1.463 . S
C490 N494 1.427 . S
C491 H481 0.929 . S
C491 C489 1.433 . S
C491 N494 1.384 . S
C492 H483 0.929 . S
C492 C484 1.378 . S
C492 C487 1.350 . S
C493 H480 0.929 . S
C493 C485 1.433 . S
C493 N495 1.384 . S
N494 C490 1.427 . S
N494 C491 1.384 . S
N495 C487 1.427 . S
N495 C493 1.384 . S
H496 C502 0.930 . S
H497 C506 0.930 . S
H498 C511 0.929 . S
H499 C509 0.929 . S
H500 C504 0.929 . S
H501 C510 0.929 . S
C502 H496 0.930 . S
C502 C503 1.367 . S
C502 C510 1.378 . S
C503 C502 1.367 . S
C503 C511 1.433 . S
C504 H500 0.929 . S
C504 C506 1.378 . S
C504 C508 1.350 . S
C505 C508 1.463 . S
C505 C510 1.350 . S
C505 N513 1.427 . S
C506 H497 0.930 . S
C506 C504 1.378 . S
C506 C507 1.367 . S
C507 C506 1.367 . S
C507 C509 1.433 . S
C508 C504 1.350 . S
C508 C505 1.463 . S
C508 N512 1.427 . S
C509 H499 0.929 . S
C509 C507 1.433 . S
C509 N512 1.384 . S
C510 H501 0.929 . S
C510 C502 1.378 . S
C510 C505 1.350 . S
C511 H498 0.929 . S
C511 C503 1.433 . S
C511 N513 1.384 . S
N512 C508 1.427 . S
N512 C509 1.384 . S
N513 C505 1.427 . S
N513 C511 1.384 . S
H514 C520 0.930 . S
H515 C524 0.930 . S
H516 C529 0.929 . S
H517 C527 0.929 . S
H518 C522 0.929 . S
H519 C528 0.929 . S
C520 H514 0.930 . S
C520 C521 1.367 . S
C520 C528 1.378 . S
C521 C520 1.367 . S
C521 C529 1.433 . S
C522 H518 0.929 . S
C522 C524 1.378 . S
C522 C526 1.350 . S
C523 C526 1.463 1_655 S
C523 C528 1.350 . S
C523 N531 1.427 . S
C524 H515 0.930 . S
C524 C522 1.378 . S
C524 C525 1.367 . S
C525 C524 1.367 . S
C525 C527 1.433 . S
C526 C522 1.350 . S
C526 C523 1.463 1_455 S
C526 N530 1.427 . S
C527 H517 0.929 . S
C527 C525 1.433 . S
C527 N530 1.384 . S
C528 H519 0.929 . S
C528 C520 1.378 . S
C528 C523 1.350 . S
C529 H516 0.929 . S
C529 C521 1.433 . S
C529 N531 1.384 . S
N530 C526 1.427 . S
N530 C527 1.384 . S
N531 C523 1.427 . S
N531 C529 1.384 . S
H532 C538 0.930 . S
H533 C542 0.930 . S
H534 C547 0.929 . S
H535 C545 0.929 . S
H536 C540 0.929 . S
H537 C546 0.929 . S
C538 H532 0.930 . S
C538 C539 1.367 . S
C538 C546 1.378 . S
C539 C538 1.367 . S
C539 C547 1.433 . S
C540 H536 0.929 . S
C540 C542 1.378 . S
C540 C544 1.350 . S
C541 C544 1.463 . S
C541 C546 1.350 . S
C541 N549 1.427 . S
C542 H533 0.930 . S
C542 C540 1.378 . S
C542 C543 1.367 . S
C543 C542 1.367 . S
C543 C545 1.433 . S
C544 C540 1.350 . S
C544 C541 1.463 . S
C544 N548 1.427 . S
C545 H535 0.929 . S
C545 C543 1.433 . S
C545 N548 1.384 . S
C546 H537 0.929 . S
C546 C538 1.378 . S
C546 C541 1.350 . S
C547 H534 0.929 . S
C547 C539 1.433 . S
C547 N549 1.384 . S
N548 C544 1.427 . S
N548 C545 1.384 . S
N549 C541 1.427 . S
N549 C547 1.384 . S
H550 C556 0.930 . S
H551 C560 0.930 . S
H552 C565 0.929 . S
H553 C563 0.929 . S
H554 C558 0.929 . S
H555 C564 0.929 . S
C556 H550 0.930 . S
C556 C557 1.367 . S
C556 C564 1.378 . S
C557 C556 1.367 . S
C557 C565 1.433 . S
C558 H554 0.929 . S
C558 C560 1.378 . S
C558 C562 1.350 . S
C559 C562 1.463 1_455 S
C559 C564 1.350 . S
C559 N567 1.427 . S
C560 H551 0.930 . S
C560 C558 1.378 . S
C560 C561 1.367 . S
C561 C560 1.367 . S
C561 C563 1.433 . S
C562 C558 1.350 . S
C562 C559 1.463 1_655 S
C562 N566 1.427 . S
C563 H553 0.929 . S
C563 C561 1.433 . S
C563 N566 1.384 . S
C564 H555 0.929 . S
C564 C556 1.378 . S
C564 C559 1.350 . S
C565 H552 0.929 . S
C565 C557 1.433 . S
C565 N567 1.384 . S
N566 C562 1.427 . S
N566 C563 1.384 . S
N567 C559 1.427 . S
N567 C565 1.384 . S
H568 C574 0.930 . S
H569 C578 0.930 . S
H570 C583 0.929 . S
H571 C581 0.929 . S
H572 C576 0.929 . S
H573 C582 0.929 . S
C574 H568 0.930 . S
C574 C575 1.367 . S
C574 C582 1.378 . S
C575 C574 1.367 . S
C575 C583 1.433 . S
C576 H572 0.929 . S
C576 C578 1.378 . S
C576 C580 1.350 . S
C577 C580 1.463 1_455 S
C577 C582 1.350 . S
C577 N585 1.427 . S
C578 H569 0.930 . S
C578 C576 1.378 . S
C578 C579 1.367 . S
C579 C578 1.367 . S
C579 C581 1.433 . S
C580 C576 1.350 . S
C580 C577 1.463 1_655 S
C580 N584 1.427 . S
C581 H571 0.929 . S
C581 C579 1.433 . S
C581 N584 1.384 . S
C582 H573 0.929 . S
C582 C574 1.378 . S
C582 C577 1.350 . S
C583 H570 0.929 . S
C583 C575 1.433 . S
C583 N585 1.384 . S
N584 C580 1.427 . S
N584 C581 1.384 . S
N585 C577 1.427 . S
N585 C583 1.384 . S
H586 C592 0.930 . S
H587 C596 0.930 . S
H588 C601 0.929 . S
H589 C599 0.929 . S
H590 C594 0.929 . S
H591 C600 0.929 . S
C592 H586 0.930 . S
C592 C593 1.367 . S
C592 C600 1.378 . S
C593 C592 1.367 . S
C593 C601 1.433 . S
C594 H590 0.929 . S
C594 C596 1.378 . S
C594 C598 1.350 . S
C595 C598 1.463 . S
C595 C600 1.350 . S
C595 N603 1.427 . S
C596 H587 0.930 . S
C596 C594 1.378 . S
C596 C597 1.367 . S
C597 C596 1.367 . S
C597 C599 1.433 . S
C598 C594 1.350 . S
C598 C595 1.463 . S
C598 N602 1.427 . S
C599 H589 0.929 . S
C599 C597 1.433 . S
C599 N602 1.384 . S
C600 H591 0.929 . S
C600 C592 1.378 . S
C600 C595 1.350 . S
C601 H588 0.929 . S
C601 C593 1.433 . S
C601 N603 1.384 . S
N602 C598 1.427 . S
N602 C599 1.384 . S
N603 C595 1.427 . S
N603 C601 1.384 . S
H604 C610 0.930 . S
H605 C614 0.930 . S
H606 C619 0.929 . S
H607 C617 0.929 . S
H608 C612 0.929 . S
H609 C618 0.929 . S
C610 H604 0.930 . S
C610 C611 1.367 . S
C610 C618 1.378 . S
C611 C610 1.367 . S
C611 C619 1.433 . S
C612 H608 0.929 . S
C612 C614 1.378 . S
C612 C616 1.350 . S
C613 C616 1.463 1_455 S
C613 C618 1.350 . S
C613 N621 1.427 . S
C614 H605 0.930 . S
C614 C612 1.378 . S
C614 C615 1.367 . S
C615 C614 1.367 . S
C615 C617 1.433 . S
C616 C612 1.350 . S
C616 C613 1.463 1_655 S
C616 N620 1.427 . S
C617 H607 0.929 . S
C617 C615 1.433 . S
C617 N620 1.384 . S
C618 H609 0.929 . S
C618 C610 1.378 . S
C618 C613 1.350 . S
C619 H606 0.929 . S
C619 C611 1.433 . S
C619 N621 1.384 . S
N620 C616 1.427 . S
N620 C617 1.384 . S
N621 C613 1.427 . S
N621 C619 1.384 . S
H622 C628 0.930 . S
H623 C632 0.930 . S
H624 C637 0.929 . S
H625 C635 0.929 . S
H626 C630 0.929 . S
H627 C636 0.929 . S
C628 H622 0.930 . S
C628 C629 1.367 . S
C628 C636 1.378 . S
C629 C628 1.367 . S
C629 C637 1.433 . S
C630 H626 0.929 . S
C630 C632 1.378 . S
C630 C634 1.350 . S
C631 C634 1.463 . S
C631 C636 1.350 . S
C631 N639 1.427 . S
C632 H623 0.930 . S
C632 C630 1.378 . S
C632 C633 1.367 . S
C633 C632 1.367 . S
C633 C635 1.433 . S
C634 C630 1.350 . S
C634 C631 1.463 . S
C634 N638 1.427 . S
C635 H625 0.929 . S
C635 C633 1.433 . S
C635 N638 1.384 . S
C636 H627 0.929 . S
C636 C628 1.378 . S
C636 C631 1.350 . S
C637 H624 0.929 . S
C637 C629 1.433 . S
C637 N639 1.384 . S
N638 C634 1.427 . S
N638 C635 1.384 . S
N639 C631 1.427 . S
N639 C637 1.384 . S
H640 C646 0.930 . S
H641 C650 0.930 . S
H642 C655 0.929 . S
H643 C653 0.929 . S
H644 C648 0.929 . S
H645 C654 0.929 . S
C646 H640 0.930 . S
C646 C647 1.367 . S
C646 C654 1.378 . S
C647 C646 1.367 . S
C647 C655 1.433 . S
C648 H644 0.929 . S
C648 C650 1.378 . S
C648 C652 1.350 . S
C649 C652 1.463 . S
C649 C654 1.350 . S
C649 N657 1.427 . S
C650 H641 0.930 . S
C650 C648 1.378 . S
C650 C651 1.367 . S
C651 C650 1.367 . S
C651 C653 1.433 . S
C652 C648 1.350 . S
C652 C649 1.463 . S
C652 N656 1.427 . S
C653 H643 0.929 . S
C653 C651 1.433 . S
C653 N656 1.384 . S
C654 H645 0.929 . S
C654 C646 1.378 . S
C654 C649 1.350 . S
C655 H642 0.929 . S
C655 C647 1.433 . S
C655 N657 1.384 . S
N656 C652 1.427 . S
N656 C653 1.384 . S
N657 C649 1.427 . S
N657 C655 1.384 . S
H658 C664 0.930 . S
H659 C668 0.930 . S
H660 C673 0.929 . S
H661 C671 0.929 . S
H662 C666 0.929 . S
H663 C672 0.929 . S
C664 H658 0.930 . S
C664 C665 1.367 . S
C664 C672 1.378 . S
C665 C664 1.367 . S
C665 C673 1.433 . S
C666 H662 0.929 . S
C666 C668 1.378 . S
C666 C670 1.350 . S
C667 C670 1.463 . S
C667 C672 1.350 . S
C667 N675 1.427 . S
C668 H659 0.930 . S
C668 C666 1.378 . S
C668 C669 1.367 . S
C669 C668 1.367 . S
C669 C671 1.433 . S
C670 C666 1.350 . S
C670 C667 1.463 . S
C670 N674 1.427 . S
C671 H661 0.929 . S
C671 C669 1.433 . S
C671 N674 1.384 . S
C672 H663 0.929 . S
C672 C664 1.378 . S
C672 C667 1.350 . S
C673 H660 0.929 . S
C673 C665 1.433 . S
C673 N675 1.384 . S
N674 C670 1.427 . S
N674 C671 1.384 . S
N675 C667 1.427 . S
N675 C673 1.384 . S
H676 C682 0.930 . S
H677 C686 0.930 . S
H678 C691 0.929 . S
H679 C689 0.929 . S
H680 C684 0.929 . S
H681 C690 0.929 . S
C682 H676 0.930 . S
C682 C683 1.367 . S
C682 C690 1.378 . S
C683 C682 1.367 . S
C683 C691 1.433 . S
C684 H680 0.929 . S
C684 C686 1.378 . S
C684 C688 1.350 . S
C685 C688 1.463 . S
C685 C690 1.350 . S
C685 N693 1.427 . S
C686 H677 0.930 . S
C686 C684 1.378 . S
C686 C687 1.367 . S
C687 C686 1.367 . S
C687 C689 1.433 . S
C688 C684 1.350 . S
C688 C685 1.463 . S
C688 N692 1.427 . S
C689 H679 0.929 . S
C689 C687 1.433 . S
C689 N692 1.384 . S
C690 H681 0.929 . S
C690 C682 1.378 . S
C690 C685 1.350 . S
C691 H678 0.929 . S
C691 C683 1.433 . S
C691 N693 1.384 . S
N692 C688 1.427 . S
N692 C689 1.384 . S
N693 C685 1.427 . S
N693 C691 1.384 . S
H694 C700 0.930 . S
H695 C704 0.930 . S
H696 C709 0.929 . S
H697 C707 0.929 . S
H698 C702 0.929 . S
H699 C708 0.929 . S
C700 H694 0.930 . S
C700 C701 1.367 . S
C700 C708 1.378 . S
C701 C700 1.367 . S
C701 C709 1.433 . S
C702 H698 0.929 . S
C702 C704 1.378 . S
C702 C706 1.350 . S
C703 C706 1.463 . S
C703 C708 1.350 . S
C703 N711 1.427 . S
C704 H695 0.930 . S
C704 C702 1.378 . S
C704 C705 1.367 . S
C705 C704 1.367 . S
C705 C707 1.433 . S
C706 C702 1.350 . S
C706 C703 1.463 . S
C706 N710 1.427 . S
C707 H697 0.929 . S
C707 C705 1.433 . S
C707 N710 1.384 . S
C708 H699 0.929 . S
C708 C700 1.378 . S
C708 C703 1.350 . S
C709 H696 0.929 . S
C709 C701 1.433 . S
C709 N711 1.384 . S
N710 C706 1.427 . S
N710 C707 1.384 . S
N711 C703 1.427 . S
N711 C709 1.384 . S
H712 C718 0.930 . S
H713 C722 0.930 . S
H714 C727 0.929 . S
H715 C725 0.929 . S
H716 C720 0.929 . S
H717 C726 0.929 . S
C718 H712 0.930 . S
C718 C719 1.367 . S
C718 C726 1.378 . S
C719 C718 1.367 . S
C719 C727 1.433 . S
C720 H716 0.929 . S
C720 C722 1.378 . S
C720 C724 1.350 . S
C721 C724 1.463 . S
C721 C726 1.350 . S
C721 N729 1.427 . S
C722 H713 0.930 . S
C722 C720 1.378 . S
C722 C723 1.367 . S
C723 C722 1.367 . S
C723 C725 1.433 . S
C724 C720 1.350 . S
C724 C721 1.463 . S
C724 N728 1.427 . S
C725 H715 0.929 . S
C725 C723 1.433 . S
C725 N728 1.384 . S
C726 H717 0.929 . S
C726 C718 1.378 . S
C726 C721 1.350 . S
C727 H714 0.929 . S
C727 C719 1.433 . S
C727 N729 1.384 . S
N728 C724 1.427 . S
N728 C725 1.384 . S
N729 C721 1.427 . S
N729 C727 1.384 . S
H730 C736 0.930 . S
H731 C740 0.930 . S
H732 C745 0.929 . S
H733 C743 0.929 . S
H734 C738 0.929 . S
H735 C744 0.929 . S
C736 H730 0.930 . S
C736 C737 1.367 . S
C736 C744 1.378 . S
C737 C736 1.367 . S
C737 C745 1.433 . S
C738 H734 0.929 . S
C738 C740 1.378 . S
C738 C742 1.350 . S
C739 C742 1.463 . S
C739 C744 1.350 . S
C739 N747 1.427 . S
C740 H731 0.930 . S
C740 C738 1.378 . S
C740 C741 1.367 . S
C741 C740 1.367 . S
C741 C743 1.433 . S
C742 C738 1.350 . S
C742 C739 1.463 . S
C742 N746 1.427 . S
C743 H733 0.929 . S
C743 C741 1.433 . S
C743 N746 1.384 . S
C744 H735 0.929 . S
C744 C736 1.378 . S
C744 C739 1.350 . S
C745 H732 0.929 . S
C745 C737 1.433 . S
C745 N747 1.384 . S
N746 C742 1.427 . S
N746 C743 1.384 . S
N747 C739 1.427 . S
N747 C745 1.384 . S
H748 C754 0.930 . S
H749 C758 0.930 . S
H750 C763 0.929 . S
H751 C761 0.929 . S
H752 C756 0.929 . S
H753 C762 0.929 . S
C754 H748 0.930 . S
C754 C755 1.367 . S
C754 C762 1.378 . S
C755 C754 1.367 . S
C755 C763 1.433 . S
C756 H752 0.929 . S
C756 C758 1.378 . S
C756 C760 1.350 . S
C757 C760 1.463 . S
C757 C762 1.350 . S
C757 N765 1.427 . S
C758 H749 0.930 . S
C758 C756 1.378 . S
C758 C759 1.367 . S
C759 C758 1.367 . S
C759 C761 1.433 . S
C760 C756 1.350 . S
C760 C757 1.463 . S
C760 N764 1.427 . S
C761 H751 0.929 . S
C761 C759 1.433 . S
C761 N764 1.384 . S
C762 H753 0.929 . S
C762 C754 1.378 . S
C762 C757 1.350 . S
C763 H750 0.929 . S
C763 C755 1.433 . S
C763 N765 1.384 . S
N764 C760 1.427 . S
N764 C761 1.384 . S
N765 C757 1.427 . S
N765 C763 1.384 . S
H766 C772 0.930 . S
H767 C776 0.930 . S
H768 C781 0.929 . S
H769 C779 0.929 . S
H770 C774 0.929 . S
H771 C780 0.929 . S
C772 H766 0.930 . S
C772 C773 1.367 . S
C772 C780 1.378 . S
C773 C772 1.367 . S
C773 C781 1.433 . S
C774 H770 0.929 . S
C774 C776 1.378 . S
C774 C778 1.350 . S
C775 C778 1.463 . S
C775 C780 1.350 . S
C775 N783 1.427 . S
C776 H767 0.930 . S
C776 C774 1.378 . S
C776 C777 1.367 . S
C777 C776 1.367 . S
C777 C779 1.433 . S
C778 C774 1.350 . S
C778 C775 1.463 . S
C778 N782 1.427 . S
C779 H769 0.929 . S
C779 C777 1.433 . S
C779 N782 1.384 . S
C780 H771 0.929 . S
C780 C772 1.378 . S
C780 C775 1.350 . S
C781 H768 0.929 . S
C781 C773 1.433 . S
C781 N783 1.384 . S
N782 C778 1.427 . S
N782 C779 1.384 . S
N783 C775 1.427 . S
N783 C781 1.384 . S
C215 C4 1.626 . S
C219 C166 1.615 . S
C233 C173 1.614 . S
C237 C23 1.627 . S
C251 C36 1.624 . S
C255 C192 1.619 . S
C269 C199 1.615 . S
C273 C43 1.626 . S
C287 C108 1.625 . S
C291 C62 1.619 . S
C305 C69 1.615 . S
C309 C121 1.627 . S
C323 C140 1.627 . S
C327 C88 1.613 . S
C341 C101 1.616 . S
C345 C153 1.626 . S
C359 C3 1.628 . S
C363 C31 1.628 . S
C377 C18 1.631 . S
C381 C42 1.631 . S
C395 C55 1.646 . S
C399 C81 1.647 . S
C413 C70 1.649 . S
C417 C94 1.648 . S
C431 C135 1.627 . S
C435 C107 1.628 . S
C449 C120 1.630 . S
C453 C148 1.630 . S
C467 C185 1.644 . S
C471 C159 1.643 . S
C485 C174 1.643 . S
C489 C200 1.644 . S
C503 C83 1.488 . S
C507 C5 1.489 . S
C521 C96 1.492 . S
C525 C16 1.492 . S
C539 C29 1.489 . S
C543 C57 1.487 . S
C557 C44 1.493 . S
C561 C68 1.490 . S
C575 C187 1.489 . S
C579 C109 1.490 . S
C593 C122 1.490 . S
C597 C198 1.489 . S
C611 C161 1.492 . S
C615 C133 1.492 . S
C629 C146 1.490 . S
C633 C172 1.490 . S
C647 C10 1.465 . S
C651 C49 1.470 . S
C665 C30 1.469 . S
C669 C17 1.464 . S
C683 C56 1.735 . S
C687 C95 1.736 . S
C701 C75 1.734 . S
C705 C82 1.735 . S
C719 C147 1.465 . S
C723 C114 1.470 . S
C737 C127 1.466 . S
C741 C134 1.470 . S
C755 C205 1.736 . S
C759 C160 1.735 . S
C773 C179 1.736 . S
C777 C186 1.735 . S
