# Generated by pormake.
# Topology upc, (4)-cn, num edge types: 1
# Building blocks:
#     Node 0, Type 0, BuildingBlock: MUDLON_clean_sbu_0, # of connection points: 4
#     Node 1, Type 0, BuildingBlock: MUDLON_clean_sbu_0, # of connection points: 4
#     Node 2, Type 0, BuildingBlock: MUDLON_clean_sbu_0, # of connection points: 4
#     Node 3, Type 0, BuildingBlock: MUDLON_clean_sbu_0, # of connection points: 4
#     Node 4, Type 0, BuildingBlock: MUDLON_clean_sbu_0, # of connection points: 4
#     Node 5, Type 0, BuildingBlock: MUDLON_clean_sbu_0, # of connection points: 4
#     Node 6, Type 0, BuildingBlock: MUDLON_clean_sbu_0, # of connection points: 4
#     Node 7, Type 0, BuildingBlock: MUDLON_clean_sbu_0, # of connection points: 4
#     Node 8, Type 0, BuildingBlock: MUDLON_clean_sbu_0, # of connection points: 4
#     Node 9, Type 0, BuildingBlock: MUDLON_clean_sbu_0, # of connection points: 4
#     Node 10, Type 0, BuildingBlock: MUDLON_clean_sbu_0, # of connection points: 4
#     Node 11, Type 0, BuildingBlock: MUDLON_clean_sbu_0, # of connection points: 4
#     Node 12, Type 0, BuildingBlock: MUDLON_clean_sbu_0, # of connection points: 4
#     Node 13, Type 0, BuildingBlock: MUDLON_clean_sbu_0, # of connection points: 4
#     Node 14, Type 0, BuildingBlock: MUDLON_clean_sbu_0, # of connection points: 4
#     Node 15, Type 0, BuildingBlock: MUDLON_clean_sbu_0, # of connection points: 4
#     Edge 16, Type (0, 0), BuildingBlock: CIFDUS_clean_linker_0, # of connection points: 2
#     Edge 17, Type (0, 0), BuildingBlock: CIFDUS_clean_linker_0, # of connection points: 2
#     Edge 18, Type (0, 0), BuildingBlock: CIFDUS_clean_linker_0, # of connection points: 2
#     Edge 19, Type (0, 0), BuildingBlock: CIFDUS_clean_linker_0, # of connection points: 2
#     Edge 20, Type (0, 0), BuildingBlock: CIFDUS_clean_linker_0, # of connection points: 2
#     Edge 21, Type (0, 0), BuildingBlock: CIFDUS_clean_linker_0, # of connection points: 2
#     Edge 22, Type (0, 0), BuildingBlock: CIFDUS_clean_linker_0, # of connection points: 2
#     Edge 23, Type (0, 0), BuildingBlock: CIFDUS_clean_linker_0, # of connection points: 2
#     Edge 24, Type (0, 0), BuildingBlock: CIFDUS_clean_linker_0, # of connection points: 2
#     Edge 25, Type (0, 0), BuildingBlock: CIFDUS_clean_linker_0, # of connection points: 2
#     Edge 26, Type (0, 0), BuildingBlock: CIFDUS_clean_linker_0, # of connection points: 2
#     Edge 27, Type (0, 0), BuildingBlock: CIFDUS_clean_linker_0, # of connection points: 2
#     Edge 28, Type (0, 0), BuildingBlock: CIFDUS_clean_linker_0, # of connection points: 2
#     Edge 29, Type (0, 0), BuildingBlock: CIFDUS_clean_linker_0, # of connection points: 2
#     Edge 30, Type (0, 0), BuildingBlock: CIFDUS_clean_linker_0, # of connection points: 2
#     Edge 31, Type (0, 0), BuildingBlock: CIFDUS_clean_linker_0, # of connection points: 2
#     Edge 32, Type (0, 0), BuildingBlock: CIFDUS_clean_linker_0, # of connection points: 2
#     Edge 33, Type (0, 0), BuildingBlock: CIFDUS_clean_linker_0, # of connection points: 2
#     Edge 34, Type (0, 0), BuildingBlock: CIFDUS_clean_linker_0, # of connection points: 2
#     Edge 35, Type (0, 0), BuildingBlock: CIFDUS_clean_linker_0, # of connection points: 2
#     Edge 36, Type (0, 0), BuildingBlock: CIFDUS_clean_linker_0, # of connection points: 2
#     Edge 37, Type (0, 0), BuildingBlock: CIFDUS_clean_linker_0, # of connection points: 2
#     Edge 38, Type (0, 0), BuildingBlock: CIFDUS_clean_linker_0, # of connection points: 2
#     Edge 39, Type (0, 0), BuildingBlock: CIFDUS_clean_linker_0, # of connection points: 2
#     Edge 40, Type (0, 0), BuildingBlock: CIFDUS_clean_linker_0, # of connection points: 2
#     Edge 41, Type (0, 0), BuildingBlock: CIFDUS_clean_linker_0, # of connection points: 2
#     Edge 42, Type (0, 0), BuildingBlock: CIFDUS_clean_linker_0, # of connection points: 2
#     Edge 43, Type (0, 0), BuildingBlock: CIFDUS_clean_linker_0, # of connection points: 2
#     Edge 44, Type (0, 0), BuildingBlock: CIFDUS_clean_linker_0, # of connection points: 2
#     Edge 45, Type (0, 0), BuildingBlock: CIFDUS_clean_linker_0, # of connection points: 2
#     Edge 46, Type (0, 0), BuildingBlock: CIFDUS_clean_linker_0, # of connection points: 2
#     Edge 47, Type (0, 0), BuildingBlock: CIFDUS_clean_linker_0, # of connection points: 2
# Relax obj value: 0.270
# Max RMSD: 0.206
# Mean RMSD: 0.206
data_MOF--net-upc--node1-MUDLON_clean_sbu_0--edge1-CIFDUS_clean_linker_0
_symmetry_space_group_name_H-M    P1
_symmetry_Int_Tables_number       1
_symmetry_cell_setting            triclinic
loop_
_symmetry_equiv_pos_as_xyz
'x, y, z'
_cell_length_a     31.780703
_cell_length_b     31.781766
_cell_length_c     37.920004
_cell_angle_alpha  89.752755
_cell_angle_beta   89.150802
_cell_angle_gamma 89.606385
loop_
_atom_site_label
_atom_site_type_symbol
_atom_site_fract_x
_atom_site_fract_y
_atom_site_fract_z
_atom_type_partial_charge
Mg0 Mg 0.05373 0.6465 0.1365 0.0
C1 C 0.99178 0.60014 0.17914 0.0
O2 O 0.96985 0.61321 0.15205 0.0
C3 C 0.12797 0.70701 0.13967 0.0
O4 O 0.09848 0.73428 0.1313 0.0
C5 C 0.04699 0.56649 0.08983 0.0
O6 O 0.05348 0.54628 0.11957 0.0
O7 O 0.04756 0.60664 0.0896 0.0
O8 O 0.03036 0.6101 0.18073 0.0
O9 O 1.01043 0.69894 0.12786 0.0
C10 C 0.99056 0.7263 0.14628 0.0
O11 O 0.96489 0.75191 0.12965 0.0
O12 O 0.11828 0.66838 0.1434 0.0
Mg13 Mg 0.85699 0.07295 0.14813 0.0
C14 C 0.9271 0.06079 0.2006 0.0
O15 O 0.95042 0.06514 0.17196 0.0
C16 C 0.79968 0.1438 0.12107 0.0
O17 O 0.79854 0.11941 0.09322 0.0
C18 C 0.91969 0.03005 0.09946 0.0
O19 O 0.90399 0.99821 0.11741 0.0
O20 O 0.90551 0.0669 0.10603 0.0
O21 O 0.88732 0.06402 0.19849 0.0
O22 O 0.81317 0.02126 0.14133 0.0
C23 C 0.78815 1.00001 0.16098 0.0
O24 O 0.76806 0.9687 0.14639 0.0
O25 O 0.82221 0.13271 0.14706 0.0
Mg26 Mg 0.4296 0.87394 0.15299 0.0
C27 C 0.48644 0.91085 0.20598 0.0
O28 O 0.51247 0.88724 0.18738 0.0
C29 C 0.35292 0.81728 0.15536 0.0
O30 O 0.38286 0.78877 0.15755 0.0
C31 C 0.4816 0.9227 0.09892 0.0
O32 O 0.51104 0.9021 0.11588 0.0
O33 O 0.44326 0.91603 0.10751 0.0
O34 O 0.44747 0.91028 0.19898 0.0
O35 O 0.4681 0.81665 0.14757 0.0
C36 C 0.48235 0.78666 0.16666 0.0
O37 O 0.50512 0.75753 0.15074 0.0
O38 O 0.36302 0.85599 0.15372 0.0
Mg39 Mg 0.62613 0.43379 0.13143 0.0
C40 C 0.57534 0.48572 0.17471 0.0
O41 O 0.59784 0.50977 0.15351 0.0
C42 C 0.6582 0.35168 0.09777 0.0
O43 O 0.65325 0.37332 0.06851 0.0
C44 C 0.56389 0.45946 0.07553 0.0
O45 O 0.54016 0.43651 0.09663 0.0
O46 O 0.60291 0.46302 0.08249 0.0
O47 O 0.57717 0.44604 0.17055 0.0
O48 O 0.67649 0.46699 0.15859 0.0
C49 C 0.6937 0.44669 0.18371 0.0
O50 O 0.68553 0.4064 0.18717 0.0
O51 O 0.64702 0.36816 0.12699 0.0
Mg52 Mg 0.07091 0.85944 0.38646 0.0
C53 C 0.04356 0.94035 0.35437 0.0
O54 O 0.0181 0.93741 0.38185 0.0
C55 C 0.14013 0.79439 0.38725 0.0
O56 O 0.1085 0.77225 0.37566 0.0
C57 C 0.06476 0.90891 0.45294 0.0
O58 O 0.10444 0.91267 0.44326 0.0
O59 O 0.04153 0.88452 0.43519 0.0
O60 O 0.0726 0.91291 0.35049 0.0
O61 O 0.03712 0.81345 0.35464 0.0
C62 C 1.00418 0.82381 0.33799 0.0
O63 O 0.98602 0.86009 0.34517 0.0
O64 O 0.1339 0.83296 0.39494 0.0
Mg65 Mg 0.63685 0.08083 0.39817 0.0
C66 C 0.55219 0.05827 0.36487 0.0
O67 O 0.53831 0.05426 0.39749 0.0
C68 C 0.65119 0.1684 0.43078 0.0
O69 O 0.63048 0.15275 0.458 0.0
C70 C 0.60136 0.01628 0.4521 0.0
O71 O 0.60939 0.98995 0.42623 0.0
O72 O 0.61195 0.05468 0.44836 0.0
O73 O 0.58866 0.07317 0.35903 0.0
O74 O 0.68962 0.05075 0.36965 0.0
C75 C 0.68221 0.01831 0.35124 0.0
O76 O 0.64583 0.99943 0.35545 0.0
O77 O 0.65632 0.1461 0.40327 0.0
Mg78 Mg 0.45409 0.66524 0.39348 0.0
C79 C 0.50849 0.61784 0.34427 0.0
O80 O 0.53403 0.62708 0.36997 0.0
C81 C 0.37927 0.7191 0.41105 0.0
O82 O 0.40939 0.73826 0.42791 0.0
C83 C 0.50346 0.62122 0.45276 0.0
O84 O 0.5312 0.65014 0.44425 0.0
O85 O 0.46811 0.62147 0.43727 0.0
O86 O 0.47062 0.63078 0.34594 0.0
O87 O 0.48983 0.7239 0.39689 0.0
C88 C 0.49804 0.75273 0.37427 0.0
O89 O 0.51598 0.78735 0.38511 0.0
O90 O 0.38814 0.68538 0.39438 0.0
Mg91 Mg 0.84002 0.45459 0.39581 0.0
C92 C 0.91473 0.46593 0.34557 0.0
O93 O 0.93624 0.453 0.37293 0.0
C94 C 0.78236 0.38231 0.4174 0.0
O95 O 0.76865 0.41064 0.44001 0.0
C96 C 0.90452 0.49476 0.44483 0.0
O97 O 0.89971 0.52657 0.42297 0.0
O98 O 0.88309 0.46151 0.44018 0.0
O99 O 0.87481 0.46693 0.34756 0.0
O100 O 0.79121 0.50342 0.39711 0.0
C101 C 0.76742 0.51862 0.37323 0.0
O102 O 0.74295 0.55063 0.38166 0.0
O103 O 0.81258 0.39166 0.39647 0.0
Mg104 Mg 0.95256 0.35838 0.87714 0.0
C105 C 1.00256 0.3047 0.82343 0.0
O106 O 0.02969 0.33544 0.82611 0.0
C107 C 0.97066 0.41209 0.93714 0.0
O108 O 0.94486 0.43339 0.91687 0.0
C109 C 0.87598 0.31356 0.8988 0.0
O110 O 0.90675 0.28777 0.90725 0.0
O111 O 0.88532 0.34921 0.8855 0.0
O112 O 0.97126 0.30365 0.84481 0.0
O113 O 0.96888 0.4116 0.84343 0.0
C114 C 1.006 0.42536 0.84762 0.0
O115 O 0.02931 0.40827 0.87224 0.0
O116 O 0.98037 0.3745 0.92826 0.0
Mg117 Mg 0.16996 0.98001 0.90624 0.0
C118 C 0.24947 0.04304 0.89529 0.0
O119 O 0.27042 0.07361 0.9101 0.0
C120 C 0.10865 0.02403 0.95567 0.0
O121 O 0.12357 0.05568 0.93704 0.0
C122 C 0.23788 0.91179 0.91026 0.0
O123 O 0.2608 0.9447 0.91776 0.0
O124 O 0.19867 0.91693 0.90488 0.0
O125 O 0.21841 0.02778 0.91275 0.0
O126 O 0.13522 0.99396 0.85862 0.0
C127 C 0.13633 0.0313 0.84648 0.0
O128 O 0.15984 0.05926 0.86206 0.0
O129 O 0.12314 0.98721 0.94946 0.0
Mg130 Mg 0.58988 0.12805 0.89219 0.0
C131 C 0.5765 0.19068 0.83496 0.0
O132 O 0.61702 0.18246 0.83267 0.0
C133 C 0.52092 0.08513 0.93884 0.0
O134 O 0.49766 0.09049 0.9108 0.0
C135 C 0.65541 0.19496 0.90884 0.0
O136 O 0.62298 0.22033 0.905 0.0
O137 O 0.65017 0.15541 0.90616 0.0
O138 O 0.55504 0.17336 0.85971 0.0
O139 O 0.60173 0.0781 0.85441 0.0
C140 C 0.59159 0.03993 0.85961 0.0
O141 O 0.5769 0.02847 0.89071 0.0
O142 O 0.55827 0.09957 0.93859 0.0
Mg143 Mg 0.36914 0.60165 0.86878 0.0
C144 C 0.31849 0.5453 0.81842 0.0
O145 O 0.34968 0.5187 0.82333 0.0
C146 C 0.42438 0.5749 0.92826 0.0
O147 O 0.44646 0.60434 0.91228 0.0
C148 C 0.31139 0.67122 0.88848 0.0
O149 O 0.28747 0.63766 0.88957 0.0
O150 O 0.35042 0.66644 0.88125 0.0
O151 O 0.31709 0.57902 0.8364 0.0
O152 O 0.42268 0.59592 0.83247 0.0
C153 C 0.44173 0.56054 0.83321 0.0
O154 O 0.42997 0.53258 0.85691 0.0
O155 O 0.38772 0.56684 0.91676 0.0
Mg156 Mg 0.95843 0.15292 0.62875 0.0
C157 C 0.0219 0.23213 0.62366 0.0
O158 O 0.04304 0.25677 0.60196 0.0
C159 C 0.9445 0.0775 0.57604 0.0
O160 O 0.90405 0.08525 0.58001 0.0
C161 C 0.88753 0.21664 0.62787 0.0
O162 O 0.92079 0.24065 0.62453 0.0
O163 O 0.89288 0.17689 0.63026 0.0
O164 O 0.99854 0.20417 0.61008 0.0
O165 O 0.98295 0.13179 0.67899 0.0
C166 C 0.02292 0.1305 0.67963 0.0
O167 O 0.04452 0.14118 0.65123 0.0
O168 O 0.97078 0.10025 0.59222 0.0
Mg169 Mg 0.40633 0.91105 0.67043 0.0
C170 C 0.37798 0.97883 0.72072 0.0
O171 O 0.4187 0.98549 0.7188 0.0
C172 C 0.44741 0.97618 0.61907 0.0
O173 O 0.43567 1.0031 0.64355 0.0
C174 C 0.33431 0.85248 0.65581 0.0
O175 O 0.31381 0.88836 0.65878 0.0
O176 O 0.37416 0.85236 0.65874 0.0
O177 O 0.36227 0.95124 0.70064 0.0
O178 O 0.45437 0.89934 0.7095 0.0
C179 C 0.49128 0.91404 0.70587 0.0
O180 O 0.50247 0.9308 0.67547 0.0
O181 O 0.43759 0.93758 0.62285 0.0
Mg182 Mg 0.58166 0.36659 0.63222 0.0
C183 C 0.514 0.29467 0.65185 0.0
O184 O 0.4813 0.27337 0.64116 0.0
C185 C 0.53279 0.42083 0.58078 0.0
O186 O 0.50258 0.39807 0.59498 0.0
C187 C 0.64763 0.29692 0.61996 0.0
O188 O 0.61362 0.27532 0.61315 0.0
O189 O 0.64382 0.33577 0.62777 0.0
O190 O 0.53092 0.32052 0.63008 0.0
O191 O 0.57373 0.39865 0.68236 0.0
C192 C 0.56837 0.43832 0.68367 0.0
O193 O 0.57091 0.46042 0.65438 0.0
O194 O 0.57054 0.41398 0.59041 0.0
Mg195 Mg 0.15809 0.56672 0.62977 0.0
C196 C 0.22597 0.49072 0.63031 0.0
O197 O 0.24457 0.46166 0.61094 0.0
C198 C 0.08828 0.53679 0.58319 0.0
O199 O 0.09537 0.50309 0.60247 0.0
C200 C 0.17462 0.66046 0.63517 0.0
O201 O 0.1333 0.66149 0.6344 0.0
O202 O 0.19339 0.62506 0.63353 0.0
O203 O 0.20029 0.5155 0.61498 0.0
O204 O 0.12646 0.55138 0.67897 0.0
C205 C 0.08722 0.55831 0.68285 0.0
O206 O 0.06657 0.57714 0.65745 0.0
O207 O 0.11023 0.56953 0.58855 0.0
H208 H 0.15765 0.78737 0.13743 0.0
H209 H 0.19744 0.65852 0.15298 0.0
H210 H 0.26997 0.68148 0.15996 0.0
H211 H 0.32234 0.73775 0.16059 0.0
H212 H 0.28297 0.86672 0.14525 0.0
H213 H 0.21004 0.84402 0.13941 0.0
C214 C 0.18214 0.76425 0.14237 0.0
C215 C 0.17197 0.72119 0.14452 0.0
C216 C 0.2239 0.77769 0.14642 0.0
C217 C 0.20422 0.69182 0.15112 0.0
C218 C 0.24578 0.70492 0.15512 0.0
C219 C 0.29786 0.76101 0.15606 0.0
C220 C 0.30829 0.80393 0.15326 0.0
C221 C 0.25601 0.74773 0.15266 0.0
C222 C 0.27597 0.8335 0.14752 0.0
C223 C 0.23422 0.82052 0.14411 0.0
H224 H 0.7569 0.18168 0.06759 0.0
H225 H 0.78422 0.19418 0.1782 0.0
H226 H 0.74105 0.25798 0.18121 0.0
H227 H 0.69645 0.31111 0.15229 0.0
H228 H 0.67156 0.30024 0.04115 0.0
H229 H 0.71249 0.23491 0.03862 0.0
C230 C 0.75341 0.1983 0.09239 0.0
C231 C 0.77391 0.18303 0.12262 0.0
C232 C 0.72877 0.23527 0.09389 0.0
C233 C 0.76905 0.2052 0.15447 0.0
C234 C 0.74422 0.24169 0.15625 0.0
C235 C 0.6996 0.29423 0.12758 0.0
C236 C 0.68069 0.31051 0.09699 0.0
C237 C 0.72397 0.25708 0.12614 0.0
C238 C 0.68568 0.28847 0.06511 0.0
C239 C 0.70918 0.2511 0.06362 0.0
H240 H 0.2111 0.82689 0.41637 0.0
H241 H 0.16414 0.71672 0.36409 0.0
H242 H 0.23333 0.68357 0.367 0.0
H243 H 0.30777 0.68588 0.38358 0.0
H244 H 0.35452 0.79542 0.43687 0.0
H245 H 0.28517 0.82841 0.4344 0.0
C246 C 0.216 0.79563 0.40565 0.0
C247 C 0.18238 0.77449 0.38997 0.0
C248 C 0.25599 0.77646 0.40756 0.0
C249 C 0.18934 0.73384 0.37636 0.0
C250 C 0.22899 0.71477 0.37795 0.0
C251 C 0.30277 0.71692 0.39472 0.0
C252 C 0.33645 0.73806 0.41031 0.0
C253 C 0.26262 0.73579 0.39338 0.0
C254 C 0.32926 0.77826 0.42473 0.0
C255 C 0.28955 0.79729 0.4233 0.0
H256 H 0.72329 0.3493 0.46231 0.0
H257 H 0.79467 0.32174 0.36733 0.0
H258 H 0.75952 0.25402 0.36261 0.0
H259 H 0.70875 0.20248 0.38535 0.0
H260 H 0.63864 0.22877 0.4812 0.0
H261 H 0.67294 0.29714 0.48553 0.0
C262 C 0.7312 0.32849 0.44058 0.0
C263 C 0.76164 0.3407 0.41523 0.0
C264 C 0.71098 0.28938 0.43809 0.0
C265 C 0.77154 0.31318 0.38732 0.0
C266 C 0.75134 0.27444 0.38452 0.0
C267 C 0.70074 0.22322 0.40711 0.0
C268 C 0.67095 0.21051 0.43282 0.0
C269 C 0.72099 0.26224 0.40971 0.0
C270 C 0.66137 0.23771 0.461 0.0
C271 C 0.68101 0.27683 0.46353 0.0
H272 H 0.84842 0.23661 0.91943 0.0
H273 H 0.80384 0.35879 0.88596 0.0
H274 H 0.73124 0.33359 0.88853 0.0
H275 H 0.68088 0.27565 0.89722 0.0
H276 H 0.72657 0.15295 0.9283 0.0
H277 H 0.7983 0.17973 0.92994 0.0
C278 C 0.82288 0.25793 0.91291 0.0
C279 C 0.83166 0.29954 0.90239 0.0
C280 C 0.78138 0.24307 0.91394 0.0
C281 C 0.79804 0.32659 0.89404 0.0
C282 C 0.75651 0.31218 0.89548 0.0
C283 C 0.70646 0.25487 0.90472 0.0
C284 C 0.69832 0.21228 0.91255 0.0
C285 C 0.74785 0.27031 0.90497 0.0
C286 C 0.73192 0.18577 0.92199 0.0
C287 C 0.77298 0.20106 0.92291 0.0
H288 H 0.35065 0.7476 0.89358 0.0
H289 H 0.22801 0.68996 0.89493 0.0
H290 H 0.1946 0.75863 0.90157 0.0
H291 H 0.19959 0.83541 0.90634 0.0
H292 H 0.3219 0.89349 0.90659 0.0
H293 H 0.3557 0.8247 0.90005 0.0
C294 C 0.31664 0.75007 0.89541 0.0
C295 C 0.29202 0.7135 0.89366 0.0
C296 C 0.29738 0.7899 0.89948 0.0
C297 C 0.24792 0.71741 0.89622 0.0
C298 C 0.22864 0.75678 0.89997 0.0
C299 C 0.23364 0.83304 0.90497 0.0
C300 C 0.25806 0.86966 0.9069 0.0
C301 C 0.25299 0.79327 0.9015 0.0
C302 C 0.30221 0.86587 0.90529 0.0
C303 C 0.32165 0.82648 0.90148 0.0
H304 H 0.72448 0.3319 0.63128 0.0
H305 H 0.66496 0.21341 0.60941 0.0
H306 H 0.73314 0.17761 0.61101 0.0
H307 H 0.81041 0.17981 0.61833 0.0
H308 H 0.8692 0.29908 0.63891 0.0
H309 H 0.80098 0.33423 0.63827 0.0
C310 C 0.72636 0.29825 0.62682 0.0
C311 C 0.68947 0.27554 0.62022 0.0
C312 C 0.76576 0.27776 0.62765 0.0
C313 C 0.69273 0.23188 0.61449 0.0
C314 C 0.73179 0.21125 0.61546 0.0
C315 C 0.80821 0.21342 0.62286 0.0
C316 C 0.84505 0.23663 0.62865 0.0
C317 C 0.76861 0.23383 0.62205 0.0
C318 C 0.84154 0.2803 0.63422 0.0
C319 C 0.80244 0.30057 0.63389 0.0
H320 H 0.25996 0.66948 0.63868 0.0
H321 H 0.14375 0.7407 0.6384 0.0
H322 H 0.18288 0.80599 0.644 0.0
H323 H 0.24975 0.84301 0.64978 0.0
H324 H 0.36623 0.77235 0.65033 0.0
H325 H 0.32729 0.70685 0.64369 0.0
C326 C 0.24316 0.69927 0.63978 0.0
C327 C 0.19888 0.70004 0.63816 0.0
C328 C 0.2659 0.73688 0.64304 0.0
C329 C 0.17775 0.73902 0.63963 0.0
C330 C 0.20012 0.77647 0.64282 0.0
C331 C 0.26673 0.81334 0.64835 0.0
C332 C 0.31092 0.81272 0.6506 0.0
C333 C 0.24416 0.77578 0.64466 0.0
C334 C 0.33226 0.77386 0.64867 0.0
C335 C 0.30999 0.73633 0.64491 0.0
H336 H 0.87883 0.49841 0.2869 0.0
H337 H 0.99932 0.47744 0.33536 0.0
H338 H 0.03404 0.51663 0.28774 0.0
H339 H 0.02962 0.56004 0.234 0.0
H340 H 0.90872 0.58107 0.18624 0.0
H341 H 0.87478 0.53883 0.23213 0.0
C342 C 0.91275 0.50203 0.28694 0.0
C343 C 0.9364 0.48519 0.31478 0.0
C344 C 0.93242 0.525 0.2598 0.0
C345 C 0.98033 0.49009 0.31428 0.0
C346 C 1.00021 0.51268 0.28714 0.0
C347 C 0.99586 0.55535 0.23363 0.0
C348 C 0.97174 0.57395 0.20687 0.0
C349 C 0.97647 0.53088 0.26008 0.0
C350 C 0.92806 0.56725 0.20659 0.0
C351 C 0.90858 0.54305 0.2328 0.0
H352 H 1.00634 0.03041 0.21011 0.0
H353 H 0.89076 0.06021 0.26618 0.0
H354 H 0.91944 0.0303 0.32019 0.0
H355 H 0.97407 0.98963 0.34969 0.0
H356 H 0.08777 0.95499 0.2929 0.0
H357 H 0.06333 0.99359 0.24106 0.0
C358 C 0.98765 0.03094 0.23427 0.0
C359 C 0.94637 0.04727 0.23407 0.0
C360 C 1.00392 0.01268 0.26503 0.0
C361 C 0.92252 0.04757 0.26557 0.0
C362 C 0.93888 0.03046 0.29646 0.0
C363 C 0.99391 0.991 0.3262 0.0
C364 C 0.03257 0.96915 0.3251 0.0
C365 C 0.97909 0.01201 0.29624 0.0
C366 C 0.0578 0.97137 0.2944 0.0
C367 C 0.04375 0.99328 0.26471 0.0
H368 H 0.58713 0.03247 0.30331 0.0
H369 H 0.46998 0.03259 0.3623 0.0
H370 H 0.4382 0.98807 0.31736 0.0
H371 H 0.44539 0.9458 0.26272 0.0
H372 H 0.56532 0.94198 0.2078 0.0
H373 H 0.59445 0.99093 0.25001 0.0
C374 C 0.55441 0.02338 0.3062 0.0
C375 C 0.53083 0.03615 0.33598 0.0
C376 C 0.53705 0.99656 0.28119 0.0
C377 C 0.48872 0.02338 0.33948 0.0
C378 C 0.47064 0.99775 0.31391 0.0
C379 C 0.47781 0.95589 0.26003 0.0
C380 C 0.50319 0.94024 0.23225 0.0
C381 C 0.49475 0.98356 0.28491 0.0
C382 C 0.54525 0.95324 0.22914 0.0
C383 C 0.5619 0.98143 0.25314 0.0
H384 H 0.60832 0.54657 0.21342 0.0
H385 H 0.49964 0.46685 0.20692 0.0
H386 H 0.46767 0.50252 0.25836 0.0
H387 H 0.47126 0.5573 0.30496 0.0
H388 H 0.58389 0.63139 0.31316 0.0
H389 H 0.61382 0.59724 0.26097 0.0
C390 C 0.57753 0.53709 0.22321 0.0
C391 C 0.55594 0.5047 0.20636 0.0
C392 C 0.56018 0.55686 0.25294 0.0
C393 C 0.51662 0.49188 0.21963 0.0
C394 C 0.4984 0.51235 0.24885 0.0
C395 C 0.50223 0.56593 0.29506 0.0
C396 C 0.52531 0.59697 0.31249 0.0
C397 C 0.51987 0.54506 0.26564 0.0
C398 C 0.56567 0.60755 0.30005 0.0
C399 C 0.58276 0.5881 0.27026 0.0
H400 H 0.12038 0.53098 0.74428 0.0
H401 H 1.00262 0.54563 0.69021 0.0
H402 H 0.96604 0.50823 0.73787 0.0
H403 H 0.96874 0.466 0.79248 0.0
H404 H 0.08691 0.45255 0.84636 0.0
H405 H 0.12183 0.49506 0.80138 0.0
C406 C 0.08663 0.52636 0.74309 0.0
C407 C 0.06435 0.5406 0.71361 0.0
C408 C 0.06584 0.5048 0.77048 0.0
C409 C 0.02055 0.53488 0.71262 0.0
C410 C 0.99961 0.51333 0.73979 0.0
C411 C 1.002 0.4728 0.79458 0.0
C412 C 0.02521 0.45561 0.82251 0.0
C413 C 0.0221 0.49733 0.76849 0.0
C414 C 0.06825 0.46505 0.82502 0.0
C415 C 0.08837 0.48934 0.79925 0.0
H416 H 0.14619 0.10012 0.8052 0.0
H417 H 0.06786 0.99097 0.82012 0.0
H418 H 0.02338 0.01386 0.7714 0.0
H419 H 1.00756 0.06468 0.72368 0.0
H420 H 0.0896 0.17045 0.70654 0.0
H421 H 0.13141 0.1497 0.7574 0.0
C422 C 0.11935 0.08135 0.79784 0.0
C423 C 0.11028 0.04398 0.81624 0.0
C424 C 0.0944 0.09435 0.76958 0.0
C425 C 0.07563 0.01977 0.8062 0.0
C426 C 0.05007 0.03295 0.77847 0.0
C427 C 0.03434 0.08326 0.73148 0.0
C428 C 0.04551 0.11911 0.71182 0.0
C429 C 0.05917 0.07019 0.75994 0.0
C430 C 0.0806 0.14273 0.7215 0.0
C431 C 0.10451 0.13084 0.75045 0.0
H432 H 0.54788 0.96682 0.85625 0.0
H433 H 0.62596 0.05009 0.79377 0.0
H434 H 0.60722 0.01249 0.74036 0.0
H435 H 0.55991 0.96403 0.71077 0.0
H436 H 0.47782 0.88424 0.77286 0.0
H437 H 0.50754 0.9118 0.82699 0.0
C438 C 0.56161 0.97613 0.83107 0.0
C439 C 0.58774 0.01164 0.82894 0.0
C440 C 0.5496 0.95525 0.80028 0.0
C441 C 0.60534 0.02319 0.79609 0.0
C442 C 0.59454 1.00177 0.7655 0.0
C443 C 0.54919 0.95187 0.73609 0.0
C444 C 0.51617 0.92263 0.73773 0.0
C445 C 0.56533 0.96894 0.76713 0.0
C446 C 0.50288 0.90709 0.77082 0.0
C447 C 0.51972 0.92299 0.80182 0.0
H448 H 0.54126 0.51909 0.69281 0.0
H449 H 0.56149 0.40232 0.74897 0.0
H450 H 0.52812 0.43211 0.80162 0.0
H451 H 0.48709 0.48832 0.82962 0.0
H452 H 0.46369 0.60414 0.77312 0.0
H453 H 0.50506 0.57786 0.72282 0.0
C454 C 0.53893 0.50033 0.71671 0.0
C455 C 0.5535 0.45836 0.7168 0.0
C456 C 0.51894 0.51738 0.74675 0.0
C457 C 0.5503 0.43458 0.74805 0.0
C458 C 0.53114 0.45157 0.77818 0.0
C459 C 0.49139 0.50812 0.80649 0.0
C460 C 0.47188 0.54796 0.80498 0.0
C461 C 0.51437 0.49249 0.7775 0.0
C462 C 0.47821 0.57329 0.77493 0.0
C463 C 0.50171 0.55819 0.7461 0.0
H464 H 0.9378 0.76712 0.19082 0.0
H465 H 0.05485 0.69777 0.18902 0.0
H466 H 0.06736 0.71797 0.25029 0.0
H467 H 0.04852 0.76257 0.30198 0.0
H468 H 0.93158 0.83262 0.30168 0.0
H469 H 0.91541 0.80451 0.24385 0.0
C470 C 0.96594 0.75595 0.20384 0.0
C471 C 0.99579 0.73162 0.18496 0.0
C472 C 0.97301 0.76807 0.23879 0.0
C473 C 0.03155 0.71682 0.20264 0.0
C474 C 0.03875 0.72855 0.23772 0.0
C475 C 0.01909 0.77099 0.28958 0.0
C476 C 0.99148 0.80011 0.30615 0.0
C477 C 1.01024 0.75523 0.25574 0.0
C478 C 0.95356 0.81063 0.28957 0.0
C479 C 0.94431 0.79465 0.25637 0.0
H480 H 0.75702 0.94638 0.20977 0.0
H481 H 0.79945 0.07421 0.1976 0.0
H482 H 0.77568 0.08986 0.25803 0.0
H483 H 0.73486 0.06891 0.31185 0.0
H484 H 0.68923 0.94168 0.32081 0.0
H485 H 0.72234 0.92408 0.26434 0.0
C486 C 0.76157 0.97765 0.22037 0.0
C487 C 0.77993 1.00912 0.19899 0.0
C488 C 0.74688 0.98655 0.25466 0.0
C489 C 0.78584 0.04926 0.21343 0.0
C490 C 0.77187 0.05828 0.24797 0.0
C491 C 0.73312 0.03708 0.30182 0.0
C492 C 0.70955 1.00659 0.32063 0.0
C493 C 0.75131 0.02742 0.26854 0.0
C494 C 0.70707 0.9657 0.30695 0.0
C495 C 0.72587 0.95565 0.27454 0.0
H496 H 0.44857 0.80074 0.3319 0.0
H497 H 0.53689 0.69763 0.331 0.0
H498 H 0.53718 0.69695 0.26657 0.0
H499 H 0.51813 0.73036 0.21097 0.0
H500 H 0.42959 0.83369 0.21028 0.0
H501 H 0.42426 0.83066 0.27477 0.0
C502 C 0.46686 0.77743 0.31742 0.0
C503 C 0.49115 0.74772 0.33608 0.0
C504 C 0.46789 0.77839 0.28019 0.0
C505 C 0.51595 0.71875 0.31721 0.0
C506 C 0.51688 0.71917 0.28036 0.0
C507 C 0.49734 0.75219 0.22472 0.0
C508 C 0.47552 0.78347 0.20563 0.0
C509 C 0.49372 0.74943 0.26163 0.0
C510 C 0.44824 0.8107 0.2242 0.0
C511 C 0.44476 0.80851 0.26113 0.0
H512 H 0.74145 0.41214 0.2353 0.0
H513 H 0.69142 0.53095 0.199 0.0
H514 H 0.71348 0.56453 0.25353 0.0
H515 H 0.73994 0.55827 0.31414 0.0
H516 H 0.78804 0.43916 0.35059 0.0
H517 H 0.77458 0.40773 0.29342 0.0
C518 C 0.73604 0.44558 0.239 0.0
C519 C 0.71449 0.46887 0.21311 0.0
C520 C 0.74834 0.46458 0.27064 0.0
C521 C 0.70802 0.51223 0.21833 0.0
C522 C 0.72038 0.53141 0.24968 0.0
C523 C 0.74802 0.52554 0.30946 0.0
C524 C 0.76511 0.501 0.33695 0.0
C525 C 0.73946 0.5076 0.27644 0.0
C526 C 0.77553 0.45884 0.33013 0.0
C527 C 0.7674 0.44078 0.29736 0.0
H528 H 0.96519 0.2164 0.6784 0.0
H529 H 0.09024 0.2623 0.65594 0.0
H530 H 0.09747 0.28366 0.71701 0.0
H531 H 0.06573 0.2972 0.77487 0.0
H532 H 0.94014 0.25365 0.79831 0.0
H533 H 0.93612 0.22284 0.73939 0.0
C534 C 0.99421 0.23043 0.68699 0.0
C535 C 0.02688 0.23818 0.6623 0.0
C536 C 0.99808 0.24333 0.72245 0.0
C537 C 0.06432 0.2564 0.67413 0.0
C538 C 0.06858 0.26864 0.70916 0.0
C539 C 0.03769 0.28035 0.76741 0.0
C540 C 1.00315 0.27832 0.79099 0.0
C541 C 0.03524 0.26349 0.73328 0.0
C542 C 0.96726 0.2559 0.78079 0.0
C543 C 0.9648 0.23849 0.74692 0.0
H544 H 0.30445 0.95176 0.75261 0.0
H545 H 0.39585 0.05159 0.75383 0.0
H546 H 0.36226 0.08115 0.80632 0.0
H547 H 0.31121 0.07592 0.85432 0.0
H548 H 0.21981 0.97628 0.85558 0.0
H549 H 0.24892 0.94953 0.79982 0.0
C550 C 0.31646 0.98041 0.76402 0.0
C551 C 0.35279 0.99937 0.74925 0.0
C552 C 0.29737 0.99696 0.79497 0.0
C553 C 0.36816 0.03624 0.76464 0.0
C554 C 0.34901 0.05314 0.79477 0.0
C555 C 0.29727 0.04841 0.8425 0.0
C556 C 0.26362 0.02778 0.85978 0.0
C557 C 0.3143 0.03324 0.8106 0.0
C558 C 0.24594 0.99258 0.84341 0.0
C559 C 0.26264 0.97728 0.81137 0.0
H560 H 0.61416 0.24425 0.78833 0.0
H561 H 0.49345 0.19162 0.81671 0.0
H562 H 0.46275 0.22271 0.76378 0.0
H563 H 0.47205 0.25839 0.70662 0.0
H564 H 0.59222 0.312 0.6786 0.0
H565 H 0.6212 0.28746 0.73435 0.0
C566 C 0.58098 0.24002 0.78319 0.0
C567 C 0.55625 0.21514 0.80628 0.0
C568 C 0.56357 0.25791 0.75263 0.0
C569 C 0.51321 0.21051 0.79945 0.0
C570 C 0.4957 0.22811 0.76904 0.0
C571 C 0.50451 0.26517 0.7128 0.0
C572 C 0.5302 0.28641 0.6879 0.0
C573 C 0.52086 0.25087 0.745 0.0
C574 C 0.57185 0.2955 0.69683 0.0
C575 C 0.58847 0.28128 0.7288 0.0
H576 H 0.30722 0.47461 0.77991 0.0
H577 H 0.26696 0.60415 0.78734 0.0
H578 H 0.23076 0.59821 0.73105 0.0
H579 H 0.21756 0.55805 0.67614 0.0
H580 H 0.25882 0.42856 0.6702 0.0
H581 H 0.28715 0.43272 0.72916 0.0
C582 C 0.29001 0.50142 0.76954 0.0
C583 C 0.29032 0.53985 0.78774 0.0
C584 C 0.26965 0.49794 0.73703 0.0
C585 C 0.26741 0.57412 0.77395 0.0
C586 C 0.24684 0.57083 0.74158 0.0
C587 C 0.2319 0.53056 0.68806 0.0
C588 C 0.2364 0.49322 0.66839 0.0
C589 C 0.24873 0.53318 0.72232 0.0
C590 C 0.25536 0.45794 0.68436 0.0
C591 C 0.27165 0.4602 0.71821 0.0
H592 H 0.04789 0.48102 0.07903 0.0
H593 H 0.01848 0.59912 0.02793 0.0
H594 H 0.99325 0.56159 0.97664 0.0
H595 H 0.97683 0.49582 0.94704 0.0
H596 H 1.00749 0.37697 0.99591 0.0
H597 H 0.03509 0.4142 0.04723 0.0
C598 C 0.03621 0.49856 0.05658 0.0
C599 C 0.03494 0.543 0.0576 0.0
C600 C 0.02177 0.47665 0.02683 0.0
C601 C 0.01991 0.56506 0.02808 0.0
C602 C 1.0053 0.54358 0.99868 0.0
C603 C 0.98952 0.4779 0.9689 0.0
C604 C 0.98959 0.43358 0.9678 0.0
C605 C 1.00561 0.49947 0.99795 0.0
C606 C 1.00691 0.41105 0.99611 0.0
C607 C 0.02261 0.43237 0.02547 0.0
H608 H 0.06447 0.96616 0.99523 0.0
H609 H 0.07542 0.09962 0.97608 0.0
H610 H 0.01832 0.1135 0.01811 0.0
H611 H 0.96444 0.08804 0.06043 0.0
H612 H 0.95342 0.95455 0.07945 0.0
H613 H 0.01076 0.94073 0.03766 0.0
C614 C 0.05449 0.99829 1.00033 0.0
C615 C 0.07448 0.03169 0.98236 0.0
C616 C 0.02125 1.00621 0.02459 0.0
C617 C 0.06082 0.07313 0.98937 0.0
C618 C 0.028 0.0812 1.01347 0.0
C619 C 0.97449 0.05593 0.05539 0.0
C620 C 0.95435 0.02249 0.07319 0.0
C621 C 1.00782 0.04802 0.0312 0.0
C622 C 0.96811 0.98107 0.06626 0.0
C623 C 1.00106 0.97302 0.0423 0.0
H624 H 0.43231 0.96146 0.04882 0.0
H625 H 0.5592 0.9558 0.08777 0.0
H626 H 0.58173 1.00695 0.04364 0.0
H627 H 0.56664 0.05191 0.9927 0.0
H628 H 0.44095 0.05625 0.95137 0.0
H629 H 0.41698 1.00757 0.99749 0.0
C630 C 0.46483 0.97152 0.04768 0.0
C631 C 0.49394 0.95445 0.07165 0.0
C632 C 0.47797 1.0009 0.0217 0.0
C633 C 0.53603 0.96793 0.06961 0.0
C634 C 0.54905 0.99739 0.04437 0.0
C635 C 0.53388 0.0426 0.99392 0.0
C636 C 0.5057 0.05801 0.96854 0.0
C637 C 0.52044 0.01391 0.02012 0.0
C638 C 0.46344 0.04506 0.9705 0.0
C639 C 0.44967 0.01707 0.99689 0.0
H640 H 0.50589 0.5764 0.94926 0.0
H641 H 0.3871 0.5164 0.97206 0.0
H642 H 0.41998 0.47501 0.01896 0.0
H643 H 0.48238 0.4563 0.0538 0.0
H644 H 0.60127 0.51575 0.03008 0.0
H645 H 0.5684 0.55666 0.98308 0.0
C646 C 0.48702 0.55438 0.96451 0.0
C647 C 0.44385 0.54982 0.95717 0.0
C648 C 0.50624 0.53042 0.99121 0.0
C649 C 0.42024 0.52074 0.9771 0.0
C650 C 0.43908 0.49701 1.00393 0.0
C651 C 0.50124 0.47808 0.0383 0.0
C652 C 0.5444 0.48286 0.04565 0.0
C653 C 0.48206 0.5016 1.01124 0.0
C654 C 0.56813 0.51126 0.02512 0.0
C655 C 0.54928 0.5348 0.99824 0.0
H656 H 0.98198 0.93033 0.4666 0.0
H657 H 0.10851 0.95229 0.50165 0.0
H658 H 0.08266 1.00533 0.54292 0.0
H659 H 0.02494 0.04833 0.5672 0.0
H660 H 0.89811 0.02763 0.53249 0.0
H661 H 0.9232 0.97166 0.49323 0.0
C662 C 1.00378 0.94627 0.48365 0.0
C663 C 0.04722 0.93718 0.48087 0.0
C664 C 0.98872 0.97747 0.50723 0.0
C665 C 0.07498 0.95857 0.50303 0.0
C666 C 0.06023 0.9891 0.52665 0.0
C667 C 1.00267 0.03159 0.55113 0.0
C668 C 0.95966 0.04259 0.55277 0.0
C669 C 0.0173 0.99934 0.5286 0.0
C670 C 0.9314 0.02011 0.53181 0.0
C671 C 0.94574 0.98798 0.5093 0.0
H672 H 0.56238 0.0648 0.5027 0.0
H673 H 0.58186 0.93573 0.4712 0.0
H674 H 0.53577 0.91197 0.51922 0.0
H675 H 0.4886 0.92762 0.56973 0.0
H676 H 0.46876 0.05671 0.60107 0.0
H677 H 0.51577 0.0804 0.55365 0.0
C678 C 0.55687 0.03144 0.50651 0.0
C679 C 0.5758 1.00218 0.48324 0.0
C680 C 0.52977 0.01789 0.53406 0.0
C681 C 0.56784 0.95908 0.48856 0.0
C682 C 0.54132 0.94539 0.51603 0.0
C683 C 0.49435 0.96096 0.56611 0.0
C684 C 0.47483 0.99025 0.58902 0.0
C685 C 0.52177 0.9745 0.53879 0.0
C686 C 0.48312 0.03333 0.58393 0.0
C687 C 0.51017 0.04698 0.55679 0.0
H688 H 0.58185 0.48668 0.55786 0.0
H689 H 0.45875 0.43228 0.54672 0.0
H690 H 0.43855 0.48911 0.50693 0.0
H691 H 0.45527 0.55479 0.47525 0.0
H692 H 0.57782 0.6102 0.48708 0.0
H693 H 0.59839 0.553 0.52646 0.0
C694 C 0.55071 0.48712 0.54655 0.0
C695 C 0.52201 0.45499 0.55531 0.0
C696 C 0.53894 0.5204 0.52384 0.0
C697 C 0.48161 0.45646 0.54058 0.0
C698 C 0.46991 0.48906 0.51777 0.0
C699 C 0.48643 0.5545 0.48652 0.0
C700 C 0.51482 0.58701 0.47807 0.0
C701 C 0.4982 0.52135 0.50929 0.0
C702 C 0.55513 0.58582 0.49303 0.0
C703 C 0.56705 0.55295 0.51557 0.0
H704 H 0.95656 0.56003 0.46051 0.0
H705 H 0.92417 0.43393 0.49329 0.0
H706 H 0.97765 0.4361 0.53877 0.0
H707 H 0.03433 0.47313 0.56876 0.0
H708 H 0.067 0.59924 0.53636 0.0
H709 H 0.01274 0.59764 0.4913 0.0
C710 C 0.96105 0.53303 0.47765 0.0
C711 C 0.93622 0.49683 0.47332 0.0
C712 C 0.99205 0.53443 0.50382 0.0
C713 C 0.94266 0.46222 0.49589 0.0
C714 C 0.97335 0.4634 0.52194 0.0
C715 C 0.02966 0.50035 0.55189 0.0
C716 C 0.05496 0.53624 0.55599 0.0
C717 C 0.99835 0.49924 0.52605 0.0
C718 C 0.04815 0.57118 0.53386 0.0
C719 C 0.01707 0.57028 0.50805 0.0
loop_
_geom_bond_atom_site_label_1
_geom_bond_atom_site_label_2
_geom_bond_distance
_geom_bond_site_symmetry_2
_ccdc_geom_bond_type
Mg0 O7 2.141 . S
Mg0 O8 2.048 . S
Mg0 O9 2.048 . S
Mg0 O12 2.141 . S
C1 O2 1.313 . S
C1 O8 1.195 1_655 S
O2 C1 1.313 . S
C3 O4 1.245 . S
C3 O12 1.289 . S
O4 C3 1.245 . S
C5 O6 1.245 . S
C5 O7 1.289 . S
O6 C5 1.245 . S
O7 Mg0 2.141 . S
O7 C5 1.289 . S
O8 Mg0 2.048 . S
O8 C1 1.195 1_455 S
O9 Mg0 2.048 . S
O9 C10 1.195 . S
C10 O9 1.195 . S
C10 O11 1.313 . S
O11 C10 1.313 . S
O12 Mg0 2.141 . S
O12 C3 1.289 . S
Mg13 O20 2.141 . S
Mg13 O21 2.048 . S
Mg13 O22 2.048 . S
Mg13 O25 2.141 . S
C14 O15 1.313 . S
C14 O21 1.195 1_565 S
O15 C14 1.313 . S
C16 O17 1.245 . S
C16 O25 1.289 . S
O17 C16 1.245 . S
C18 O19 1.245 . S
C18 O20 1.289 . S
O19 C18 1.245 . S
O20 Mg13 2.141 . S
O20 C18 1.289 . S
O21 Mg13 2.048 . S
O21 C14 1.195 1_545 S
O22 Mg13 2.048 . S
O22 C23 1.195 . S
C23 O22 1.195 . S
C23 O24 1.313 . S
O24 C23 1.313 . S
O25 Mg13 2.141 . S
O25 C16 1.289 . S
Mg26 O33 2.141 . S
Mg26 O34 2.048 . S
Mg26 O35 2.048 . S
Mg26 O38 2.141 . S
C27 O28 1.313 . S
C27 O34 1.195 . S
O28 C27 1.313 . S
C29 O30 1.245 . S
C29 O38 1.289 . S
O30 C29 1.245 . S
C31 O32 1.245 . S
C31 O33 1.289 . S
O32 C31 1.245 . S
O33 Mg26 2.141 . S
O33 C31 1.289 . S
O34 Mg26 2.048 . S
O34 C27 1.195 . S
O35 Mg26 2.048 . S
O35 C36 1.195 . S
C36 O35 1.195 . S
C36 O37 1.313 . S
O37 C36 1.313 . S
O38 Mg26 2.141 . S
O38 C29 1.289 . S
Mg39 O46 2.141 . S
Mg39 O47 2.048 . S
Mg39 O48 2.048 . S
Mg39 O51 2.141 . S
C40 O41 1.313 . S
C40 O47 1.195 . S
O41 C40 1.313 . S
C42 O43 1.245 . S
C42 O51 1.289 . S
O43 C42 1.245 . S
C44 O45 1.245 . S
C44 O46 1.289 . S
O45 C44 1.245 . S
O46 Mg39 2.141 . S
O46 C44 1.289 . S
O47 Mg39 2.048 . S
O47 C40 1.195 . S
O48 Mg39 2.048 . S
O48 C49 1.195 . S
C49 O48 1.195 . S
C49 O50 1.313 . S
O50 C49 1.313 . S
O51 Mg39 2.141 . S
O51 C42 1.289 . S
Mg52 O59 2.141 . S
Mg52 O60 2.048 . S
Mg52 O61 2.048 . S
Mg52 O64 2.141 . S
C53 O54 1.313 . S
C53 O60 1.195 1_655 S
O54 C53 1.313 . S
C55 O56 1.245 . S
C55 O64 1.289 . S
O56 C55 1.245 . S
C57 O58 1.245 . S
C57 O59 1.289 . S
O58 C57 1.245 . S
O59 Mg52 2.141 . S
O59 C57 1.289 . S
O60 Mg52 2.048 . S
O60 C53 1.195 1_455 S
O61 Mg52 2.048 . S
O61 C62 1.195 . S
C62 O61 1.195 . S
C62 O63 1.313 . S
O63 C62 1.313 . S
O64 Mg52 2.141 . S
O64 C55 1.289 . S
Mg65 O72 2.141 . S
Mg65 O73 2.048 . S
Mg65 O74 2.048 . S
Mg65 O77 2.141 . S
C66 O67 1.313 . S
C66 O73 1.195 1_565 S
O67 C66 1.313 . S
C68 O69 1.245 . S
C68 O77 1.289 . S
O69 C68 1.245 . S
C70 O71 1.245 . S
C70 O72 1.289 . S
O71 C70 1.245 . S
O72 Mg65 2.141 . S
O72 C70 1.289 . S
O73 Mg65 2.048 . S
O73 C66 1.195 1_545 S
O74 Mg65 2.048 . S
O74 C75 1.195 . S
C75 O74 1.195 . S
C75 O76 1.313 . S
O76 C75 1.313 . S
O77 Mg65 2.141 . S
O77 C68 1.289 . S
Mg78 O85 2.141 . S
Mg78 O86 2.048 . S
Mg78 O87 2.048 . S
Mg78 O90 2.141 . S
C79 O80 1.313 . S
C79 O86 1.195 . S
O80 C79 1.313 . S
C81 O82 1.245 . S
C81 O90 1.289 . S
O82 C81 1.245 . S
C83 O84 1.245 . S
C83 O85 1.289 . S
O84 C83 1.245 . S
O85 Mg78 2.141 . S
O85 C83 1.289 . S
O86 Mg78 2.048 . S
O86 C79 1.195 . S
O87 Mg78 2.048 . S
O87 C88 1.195 . S
C88 O87 1.195 . S
C88 O89 1.313 . S
O89 C88 1.313 . S
O90 Mg78 2.141 . S
O90 C81 1.289 . S
Mg91 O98 2.141 . S
Mg91 O99 2.048 . S
Mg91 O100 2.048 . S
Mg91 O103 2.141 . S
C92 O93 1.313 . S
C92 O99 1.195 . S
O93 C92 1.313 . S
C94 O95 1.245 . S
C94 O103 1.289 . S
O95 C94 1.245 . S
C96 O97 1.245 . S
C96 O98 1.289 . S
O97 C96 1.245 . S
O98 Mg91 2.141 . S
O98 C96 1.289 . S
O99 Mg91 2.048 . S
O99 C92 1.195 . S
O100 Mg91 2.048 . S
O100 C101 1.195 . S
C101 O100 1.195 . S
C101 O102 1.313 . S
O102 C101 1.313 . S
O103 Mg91 2.141 . S
O103 C94 1.289 . S
Mg104 O111 2.141 . S
Mg104 O112 2.048 . S
Mg104 O113 2.048 . S
Mg104 O116 2.141 . S
C105 O106 1.313 . S
C105 O112 1.195 . S
O106 C105 1.313 . S
C107 O108 1.245 . S
C107 O116 1.289 . S
O108 C107 1.245 . S
C109 O110 1.245 . S
C109 O111 1.289 . S
O110 C109 1.245 . S
O111 Mg104 2.141 . S
O111 C109 1.289 . S
O112 Mg104 2.048 . S
O112 C105 1.195 . S
O113 Mg104 2.048 . S
O113 C114 1.195 1_655 S
C114 O113 1.195 1_455 S
C114 O115 1.313 . S
O115 C114 1.313 . S
O116 Mg104 2.141 . S
O116 C107 1.289 . S
Mg117 O124 2.141 . S
Mg117 O125 2.048 . S
Mg117 O126 2.048 . S
Mg117 O129 2.141 . S
C118 O119 1.313 . S
C118 O125 1.195 . S
O119 C118 1.313 . S
C120 O121 1.245 . S
C120 O129 1.289 . S
O121 C120 1.245 . S
C122 O123 1.245 . S
C122 O124 1.289 . S
O123 C122 1.245 . S
O124 Mg117 2.141 . S
O124 C122 1.289 . S
O125 Mg117 2.048 . S
O125 C118 1.195 . S
O126 Mg117 2.048 . S
O126 C127 1.195 1_565 S
C127 O126 1.195 1_545 S
C127 O128 1.313 . S
O128 C127 1.313 . S
O129 Mg117 2.141 . S
O129 C120 1.289 . S
Mg130 O137 2.141 . S
Mg130 O138 2.048 . S
Mg130 O139 2.048 . S
Mg130 O142 2.141 . S
C131 O132 1.313 . S
C131 O138 1.195 . S
O132 C131 1.313 . S
C133 O134 1.245 . S
C133 O142 1.289 . S
O134 C133 1.245 . S
C135 O136 1.245 . S
C135 O137 1.289 . S
O136 C135 1.245 . S
O137 Mg130 2.141 . S
O137 C135 1.289 . S
O138 Mg130 2.048 . S
O138 C131 1.195 . S
O139 Mg130 2.048 . S
O139 C140 1.195 . S
C140 O139 1.195 . S
C140 O141 1.313 . S
O141 C140 1.313 . S
O142 Mg130 2.141 . S
O142 C133 1.289 . S
Mg143 O150 2.141 . S
Mg143 O151 2.048 . S
Mg143 O152 2.048 . S
Mg143 O155 2.141 . S
C144 O145 1.313 . S
C144 O151 1.195 . S
O145 C144 1.313 . S
C146 O147 1.245 . S
C146 O155 1.289 . S
O147 C146 1.245 . S
C148 O149 1.245 . S
C148 O150 1.289 . S
O149 C148 1.245 . S
O150 Mg143 2.141 . S
O150 C148 1.289 . S
O151 Mg143 2.048 . S
O151 C144 1.195 . S
O152 Mg143 2.048 . S
O152 C153 1.195 . S
C153 O152 1.195 . S
C153 O154 1.313 . S
O154 C153 1.313 . S
O155 Mg143 2.141 . S
O155 C146 1.289 . S
Mg156 O163 2.141 . S
Mg156 O164 2.048 . S
Mg156 O165 2.048 . S
Mg156 O168 2.141 . S
C157 O158 1.313 . S
C157 O164 1.195 . S
O158 C157 1.313 . S
C159 O160 1.245 . S
C159 O168 1.289 . S
O160 C159 1.245 . S
C161 O162 1.245 . S
C161 O163 1.289 . S
O162 C161 1.245 . S
O163 Mg156 2.141 . S
O163 C161 1.289 . S
O164 Mg156 2.048 . S
O164 C157 1.195 . S
O165 Mg156 2.048 . S
O165 C166 1.195 1_655 S
C166 O165 1.195 1_455 S
C166 O167 1.313 . S
O167 C166 1.313 . S
O168 Mg156 2.141 . S
O168 C159 1.289 . S
Mg169 O176 2.141 . S
Mg169 O177 2.048 . S
Mg169 O178 2.048 . S
Mg169 O181 2.141 . S
C170 O171 1.313 . S
C170 O177 1.195 . S
O171 C170 1.313 . S
C172 O173 1.245 . S
C172 O181 1.289 . S
O173 C172 1.245 . S
C174 O175 1.245 . S
C174 O176 1.289 . S
O175 C174 1.245 . S
O176 Mg169 2.141 . S
O176 C174 1.289 . S
O177 Mg169 2.048 . S
O177 C170 1.195 . S
O178 Mg169 2.048 . S
O178 C179 1.195 1_565 S
C179 O178 1.195 1_545 S
C179 O180 1.313 . S
O180 C179 1.313 . S
O181 Mg169 2.141 . S
O181 C172 1.289 . S
Mg182 O189 2.141 . S
Mg182 O190 2.048 . S
Mg182 O191 2.048 . S
Mg182 O194 2.141 . S
C183 O184 1.313 . S
C183 O190 1.195 . S
O184 C183 1.313 . S
C185 O186 1.245 . S
C185 O194 1.289 . S
O186 C185 1.245 . S
C187 O188 1.245 . S
C187 O189 1.289 . S
O188 C187 1.245 . S
O189 Mg182 2.141 . S
O189 C187 1.289 . S
O190 Mg182 2.048 . S
O190 C183 1.195 . S
O191 Mg182 2.048 . S
O191 C192 1.195 . S
C192 O191 1.195 . S
C192 O193 1.313 . S
O193 C192 1.313 . S
O194 Mg182 2.141 . S
O194 C185 1.289 . S
Mg195 O202 2.141 . S
Mg195 O203 2.048 . S
Mg195 O204 2.048 . S
Mg195 O207 2.141 . S
C196 O197 1.313 . S
C196 O203 1.195 . S
O197 C196 1.313 . S
C198 O199 1.245 . S
C198 O207 1.289 . S
O199 C198 1.245 . S
C200 O201 1.245 . S
C200 O202 1.289 . S
O201 C200 1.245 . S
O202 Mg195 2.141 . S
O202 C200 1.289 . S
O203 Mg195 2.048 . S
O203 C196 1.195 . S
O204 Mg195 2.048 . S
O204 C205 1.195 . S
C205 O204 1.195 . S
C205 O206 1.313 . S
O206 C205 1.313 . S
O207 Mg195 2.141 . S
O207 C198 1.289 . S
H208 C214 0.930 . S
H209 C217 0.930 . S
H210 C218 0.930 . S
H211 C219 0.930 . S
H212 C222 0.930 . S
H213 C223 0.930 . S
C214 H208 0.930 . S
C214 C215 1.355 . S
C214 C216 1.415 . S
C215 C214 1.355 . S
C215 C217 1.419 . S
C216 C214 1.415 . S
C216 C221 1.425 . S
C216 C223 1.409 . S
C217 H209 0.930 . S
C217 C215 1.419 . S
C217 C218 1.362 . S
C218 H210 0.930 . S
C218 C217 1.362 . S
C218 C221 1.409 . S
C219 H211 0.930 . S
C219 C220 1.355 . S
C219 C221 1.415 . S
C220 C219 1.355 . S
C220 C222 1.419 . S
C221 C216 1.425 . S
C221 C218 1.409 . S
C221 C219 1.415 . S
C222 H212 0.930 . S
C222 C220 1.419 . S
C222 C223 1.362 . S
C223 H213 0.930 . S
C223 C216 1.409 . S
C223 C222 1.362 . S
H224 C230 0.930 . S
H225 C233 0.930 . S
H226 C234 0.930 . S
H227 C235 0.930 . S
H228 C238 0.930 . S
H229 C239 0.930 . S
C230 H224 0.930 . S
C230 C231 1.355 . S
C230 C232 1.415 . S
C231 C230 1.355 . S
C231 C233 1.419 . S
C232 C230 1.415 . S
C232 C237 1.425 . S
C232 C239 1.409 . S
C233 H225 0.930 . S
C233 C231 1.419 . S
C233 C234 1.362 . S
C234 H226 0.930 . S
C234 C233 1.362 . S
C234 C237 1.409 . S
C235 H227 0.930 . S
C235 C236 1.355 . S
C235 C237 1.415 . S
C236 C235 1.355 . S
C236 C238 1.419 . S
C237 C232 1.425 . S
C237 C234 1.409 . S
C237 C235 1.415 . S
C238 H228 0.930 . S
C238 C236 1.419 . S
C238 C239 1.362 . S
C239 H229 0.930 . S
C239 C232 1.409 . S
C239 C238 1.362 . S
H240 C246 0.930 . S
H241 C249 0.930 . S
H242 C250 0.930 . S
H243 C251 0.930 . S
H244 C254 0.930 . S
H245 C255 0.930 . S
C246 H240 0.930 . S
C246 C247 1.355 . S
C246 C248 1.415 . S
C247 C246 1.355 . S
C247 C249 1.419 . S
C248 C246 1.415 . S
C248 C253 1.425 . S
C248 C255 1.409 . S
C249 H241 0.930 . S
C249 C247 1.419 . S
C249 C250 1.362 . S
C250 H242 0.930 . S
C250 C249 1.362 . S
C250 C253 1.409 . S
C251 H243 0.930 . S
C251 C252 1.355 . S
C251 C253 1.415 . S
C252 C251 1.355 . S
C252 C254 1.419 . S
C253 C248 1.425 . S
C253 C250 1.409 . S
C253 C251 1.415 . S
C254 H244 0.930 . S
C254 C252 1.419 . S
C254 C255 1.362 . S
C255 H245 0.930 . S
C255 C248 1.409 . S
C255 C254 1.362 . S
H256 C262 0.930 . S
H257 C265 0.930 . S
H258 C266 0.930 . S
H259 C267 0.930 . S
H260 C270 0.930 . S
H261 C271 0.930 . S
C262 H256 0.930 . S
C262 C263 1.355 . S
C262 C264 1.415 . S
C263 C262 1.355 . S
C263 C265 1.419 . S
C264 C262 1.415 . S
C264 C269 1.425 . S
C264 C271 1.409 . S
C265 H257 0.930 . S
C265 C263 1.419 . S
C265 C266 1.362 . S
C266 H258 0.930 . S
C266 C265 1.362 . S
C266 C269 1.409 . S
C267 H259 0.930 . S
C267 C268 1.355 . S
C267 C269 1.415 . S
C268 C267 1.355 . S
C268 C270 1.419 . S
C269 C264 1.425 . S
C269 C266 1.409 . S
C269 C267 1.415 . S
C270 H260 0.930 . S
C270 C268 1.419 . S
C270 C271 1.362 . S
C271 H261 0.930 . S
C271 C264 1.409 . S
C271 C270 1.362 . S
H272 C278 0.930 . S
H273 C281 0.930 . S
H274 C282 0.930 . S
H275 C283 0.930 . S
H276 C286 0.930 . S
H277 C287 0.930 . S
C278 H272 0.930 . S
C278 C279 1.355 . S
C278 C280 1.415 . S
C279 C278 1.355 . S
C279 C281 1.419 . S
C280 C278 1.415 . S
C280 C285 1.425 . S
C280 C287 1.409 . S
C281 H273 0.930 . S
C281 C279 1.419 . S
C281 C282 1.362 . S
C282 H274 0.930 . S
C282 C281 1.362 . S
C282 C285 1.409 . S
C283 H275 0.930 . S
C283 C284 1.355 . S
C283 C285 1.415 . S
C284 C283 1.355 . S
C284 C286 1.419 . S
C285 C280 1.425 . S
C285 C282 1.409 . S
C285 C283 1.415 . S
C286 H276 0.930 . S
C286 C284 1.419 . S
C286 C287 1.362 . S
C287 H277 0.930 . S
C287 C280 1.409 . S
C287 C286 1.362 . S
H288 C294 0.930 . S
H289 C297 0.930 . S
H290 C298 0.930 . S
H291 C299 0.930 . S
H292 C302 0.930 . S
H293 C303 0.930 . S
C294 H288 0.930 . S
C294 C295 1.355 . S
C294 C296 1.415 . S
C295 C294 1.355 . S
C295 C297 1.419 . S
C296 C294 1.415 . S
C296 C301 1.425 . S
C296 C303 1.409 . S
C297 H289 0.930 . S
C297 C295 1.419 . S
C297 C298 1.362 . S
C298 H290 0.930 . S
C298 C297 1.362 . S
C298 C301 1.409 . S
C299 H291 0.930 . S
C299 C300 1.355 . S
C299 C301 1.415 . S
C300 C299 1.355 . S
C300 C302 1.419 . S
C301 C296 1.425 . S
C301 C298 1.409 . S
C301 C299 1.415 . S
C302 H292 0.930 . S
C302 C300 1.419 . S
C302 C303 1.362 . S
C303 H293 0.930 . S
C303 C296 1.409 . S
C303 C302 1.362 . S
H304 C310 0.930 . S
H305 C313 0.930 . S
H306 C314 0.930 . S
H307 C315 0.930 . S
H308 C318 0.930 . S
H309 C319 0.930 . S
C310 H304 0.930 . S
C310 C311 1.355 . S
C310 C312 1.415 . S
C311 C310 1.355 . S
C311 C313 1.419 . S
C312 C310 1.415 . S
C312 C317 1.425 . S
C312 C319 1.409 . S
C313 H305 0.930 . S
C313 C311 1.419 . S
C313 C314 1.362 . S
C314 H306 0.930 . S
C314 C313 1.362 . S
C314 C317 1.409 . S
C315 H307 0.930 . S
C315 C316 1.355 . S
C315 C317 1.415 . S
C316 C315 1.355 . S
C316 C318 1.419 . S
C317 C312 1.425 . S
C317 C314 1.409 . S
C317 C315 1.415 . S
C318 H308 0.930 . S
C318 C316 1.419 . S
C318 C319 1.362 . S
C319 H309 0.930 . S
C319 C312 1.409 . S
C319 C318 1.362 . S
H320 C326 0.930 . S
H321 C329 0.930 . S
H322 C330 0.930 . S
H323 C331 0.930 . S
H324 C334 0.930 . S
H325 C335 0.930 . S
C326 H320 0.930 . S
C326 C327 1.355 . S
C326 C328 1.415 . S
C327 C326 1.355 . S
C327 C329 1.419 . S
C328 C326 1.415 . S
C328 C333 1.425 . S
C328 C335 1.409 . S
C329 H321 0.930 . S
C329 C327 1.419 . S
C329 C330 1.362 . S
C330 H322 0.930 . S
C330 C329 1.362 . S
C330 C333 1.409 . S
C331 H323 0.930 . S
C331 C332 1.355 . S
C331 C333 1.415 . S
C332 C331 1.355 . S
C332 C334 1.419 . S
C333 C328 1.425 . S
C333 C330 1.409 . S
C333 C331 1.415 . S
C334 H324 0.930 . S
C334 C332 1.419 . S
C334 C335 1.362 . S
C335 H325 0.930 . S
C335 C328 1.409 . S
C335 C334 1.362 . S
H336 C342 0.930 . S
H337 C345 0.930 . S
H338 C346 0.930 . S
H339 C347 0.930 . S
H340 C350 0.930 . S
H341 C351 0.930 . S
C342 H336 0.930 . S
C342 C343 1.355 . S
C342 C344 1.415 . S
C343 C342 1.355 . S
C343 C345 1.419 . S
C344 C342 1.415 . S
C344 C349 1.425 . S
C344 C351 1.409 . S
C345 H337 0.930 . S
C345 C343 1.419 . S
C345 C346 1.362 . S
C346 H338 0.930 . S
C346 C345 1.362 . S
C346 C349 1.409 . S
C347 H339 0.930 . S
C347 C348 1.355 . S
C347 C349 1.415 . S
C348 C347 1.355 . S
C348 C350 1.419 . S
C349 C344 1.425 . S
C349 C346 1.409 . S
C349 C347 1.415 . S
C350 H340 0.930 . S
C350 C348 1.419 . S
C350 C351 1.362 . S
C351 H341 0.930 . S
C351 C344 1.409 . S
C351 C350 1.362 . S
H352 C358 0.930 . S
H353 C361 0.930 . S
H354 C362 0.930 . S
H355 C363 0.930 . S
H356 C366 0.930 1_455 S
H357 C367 0.925 1_455 S
C358 H352 0.930 . S
C358 C359 1.355 . S
C358 C360 1.415 . S
C359 C358 1.355 . S
C359 C361 1.419 . S
C360 C358 1.415 . S
C360 C365 1.425 . S
C360 C367 1.409 . S
C361 H353 0.930 . S
C361 C359 1.419 . S
C361 C362 1.362 . S
C362 H354 0.930 . S
C362 C361 1.362 . S
C362 C365 1.409 . S
C363 H355 0.930 . S
C363 C364 1.355 . S
C363 C365 1.415 . S
C364 C363 1.355 . S
C364 C366 1.419 . S
C365 C360 1.425 . S
C365 C362 1.409 . S
C365 C363 1.415 . S
C366 H356 0.930 1_655 S
C366 C364 1.419 . S
C366 C367 1.362 . S
C367 H357 0.925 1_655 S
C367 C360 1.409 . S
C367 C366 1.362 . S
H368 C374 0.930 . S
H369 C377 0.930 . S
H370 C378 0.930 . S
H371 C379 0.930 . S
H372 C382 0.930 . S
H373 C383 0.930 . S
C374 H368 0.930 . S
C374 C375 1.355 . S
C374 C376 1.415 . S
C375 C374 1.355 . S
C375 C377 1.419 . S
C376 C374 1.415 . S
C376 C381 1.425 . S
C376 C383 1.409 . S
C377 H369 0.930 . S
C377 C375 1.419 . S
C377 C378 1.362 . S
C378 H370 0.930 . S
C378 C377 1.362 . S
C378 C381 1.409 . S
C379 H371 0.930 . S
C379 C380 1.355 . S
C379 C381 1.415 . S
C380 C379 1.355 . S
C380 C382 1.419 . S
C381 C376 1.425 . S
C381 C378 1.409 . S
C381 C379 1.415 . S
C382 H372 0.930 . S
C382 C380 1.419 . S
C382 C383 1.362 . S
C383 H373 0.930 . S
C383 C376 1.409 . S
C383 C382 1.362 . S
H384 C390 0.930 . S
H385 C393 0.930 . S
H386 C394 0.930 . S
H387 C395 0.930 . S
H388 C398 0.930 . S
H389 C399 0.930 . S
C390 H384 0.930 . S
C390 C391 1.355 . S
C390 C392 1.415 . S
C391 C390 1.355 . S
C391 C393 1.419 . S
C392 C390 1.415 . S
C392 C397 1.425 . S
C392 C399 1.409 . S
C393 H385 0.930 . S
C393 C391 1.419 . S
C393 C394 1.362 . S
C394 H386 0.930 . S
C394 C393 1.362 . S
C394 C397 1.409 . S
C395 H387 0.930 . S
C395 C396 1.355 . S
C395 C397 1.415 . S
C396 C395 1.355 . S
C396 C398 1.419 . S
C397 C392 1.425 . S
C397 C394 1.409 . S
C397 C395 1.415 . S
C398 H388 0.930 . S
C398 C396 1.419 . S
C398 C399 1.362 . S
C399 H389 0.930 . S
C399 C392 1.409 . S
C399 C398 1.362 . S
H400 C406 0.930 . S
H401 C409 0.930 . S
H402 C410 0.930 . S
H403 C411 0.930 . S
H404 C414 0.930 . S
H405 C415 0.930 . S
C406 H400 0.930 . S
C406 C407 1.355 . S
C406 C408 1.415 . S
C407 C406 1.355 . S
C407 C409 1.419 . S
C408 C406 1.415 . S
C408 C413 1.425 . S
C408 C415 1.409 . S
C409 H401 0.930 . S
C409 C407 1.419 . S
C409 C410 1.362 . S
C410 H402 0.930 . S
C410 C409 1.362 . S
C410 C413 1.409 . S
C411 H403 0.930 . S
C411 C412 1.355 . S
C411 C413 1.415 . S
C412 C411 1.355 . S
C412 C414 1.419 . S
C413 C408 1.425 . S
C413 C410 1.409 . S
C413 C411 1.415 . S
C414 H404 0.930 . S
C414 C412 1.419 . S
C414 C415 1.362 . S
C415 H405 0.930 . S
C415 C408 1.409 . S
C415 C414 1.362 . S
H416 C422 0.930 . S
H417 C425 0.930 . S
H418 C426 0.930 . S
H419 C427 0.930 . S
H420 C430 0.930 . S
H421 C431 0.930 . S
C422 H416 0.930 . S
C422 C423 1.355 . S
C422 C424 1.415 . S
C423 C422 1.355 . S
C423 C425 1.419 . S
C424 C422 1.415 . S
C424 C429 1.425 . S
C424 C431 1.409 . S
C425 H417 0.930 . S
C425 C423 1.419 . S
C425 C426 1.362 . S
C426 H418 0.930 . S
C426 C425 1.362 . S
C426 C429 1.409 . S
C427 H419 0.930 . S
C427 C428 1.355 . S
C427 C429 1.415 . S
C428 C427 1.355 . S
C428 C430 1.419 . S
C429 C424 1.425 . S
C429 C426 1.409 . S
C429 C427 1.415 . S
C430 H420 0.930 . S
C430 C428 1.419 . S
C430 C431 1.362 . S
C431 H421 0.930 . S
C431 C424 1.409 . S
C431 C430 1.362 . S
H432 C438 0.930 . S
H433 C441 0.930 . S
H434 C442 0.930 . S
H435 C443 0.930 . S
H436 C446 0.930 . S
H437 C447 0.930 . S
C438 H432 0.930 . S
C438 C439 1.355 . S
C438 C440 1.415 . S
C439 C438 1.355 . S
C439 C441 1.419 . S
C440 C438 1.415 . S
C440 C445 1.425 . S
C440 C447 1.409 . S
C441 H433 0.930 . S
C441 C439 1.419 . S
C441 C442 1.362 . S
C442 H434 0.930 . S
C442 C441 1.362 . S
C442 C445 1.409 . S
C443 H435 0.930 . S
C443 C444 1.355 . S
C443 C445 1.415 . S
C444 C443 1.355 . S
C444 C446 1.419 . S
C445 C440 1.425 . S
C445 C442 1.409 . S
C445 C443 1.415 . S
C446 H436 0.930 . S
C446 C444 1.419 . S
C446 C447 1.362 . S
C447 H437 0.930 . S
C447 C440 1.409 . S
C447 C446 1.362 . S
H448 C454 0.930 . S
H449 C457 0.930 . S
H450 C458 0.930 . S
H451 C459 0.930 . S
H452 C462 0.930 . S
H453 C463 0.930 . S
C454 H448 0.930 . S
C454 C455 1.355 . S
C454 C456 1.415 . S
C455 C454 1.355 . S
C455 C457 1.419 . S
C456 C454 1.415 . S
C456 C461 1.425 . S
C456 C463 1.409 . S
C457 H449 0.930 . S
C457 C455 1.419 . S
C457 C458 1.362 . S
C458 H450 0.930 . S
C458 C457 1.362 . S
C458 C461 1.409 . S
C459 H451 0.930 . S
C459 C460 1.355 . S
C459 C461 1.415 . S
C460 C459 1.355 . S
C460 C462 1.419 . S
C461 C456 1.425 . S
C461 C458 1.409 . S
C461 C459 1.415 . S
C462 H452 0.930 . S
C462 C460 1.419 . S
C462 C463 1.362 . S
C463 H453 0.930 . S
C463 C456 1.409 . S
C463 C462 1.362 . S
H464 C470 0.930 . S
H465 C473 0.930 . S
H466 C474 0.930 . S
H467 C475 0.930 . S
H468 C478 0.930 1_655 S
H469 C479 0.930 1_655 S
C470 H464 0.930 . S
C470 C471 1.355 . S
C470 C472 1.415 . S
C471 C470 1.355 . S
C471 C473 1.419 . S
C472 C470 1.415 . S
C472 C477 1.425 . S
C472 C479 1.409 . S
C473 H465 0.930 . S
C473 C471 1.419 . S
C473 C474 1.362 . S
C474 H466 0.930 . S
C474 C473 1.362 . S
C474 C477 1.409 . S
C475 H467 0.930 . S
C475 C476 1.355 . S
C475 C477 1.415 . S
C476 C475 1.355 . S
C476 C478 1.419 . S
C477 C472 1.425 . S
C477 C474 1.409 . S
C477 C475 1.415 . S
C478 H468 0.930 1_455 S
C478 C476 1.419 . S
C478 C479 1.362 . S
C479 H469 0.930 1_455 S
C479 C472 1.409 . S
C479 C478 1.362 . S
H480 C486 0.930 . S
H481 C489 0.930 . S
H482 C490 0.930 . S
H483 C491 0.930 . S
H484 C494 0.930 1_565 S
H485 C495 0.930 1_565 S
C486 H480 0.930 . S
C486 C487 1.355 . S
C486 C488 1.415 . S
C487 C486 1.355 . S
C487 C489 1.419 . S
C488 C486 1.415 . S
C488 C493 1.425 . S
C488 C495 1.409 . S
C489 H481 0.930 . S
C489 C487 1.419 . S
C489 C490 1.362 . S
C490 H482 0.930 . S
C490 C489 1.362 . S
C490 C493 1.409 . S
C491 H483 0.930 . S
C491 C492 1.355 . S
C491 C493 1.415 . S
C492 C491 1.355 . S
C492 C494 1.419 . S
C493 C488 1.425 . S
C493 C490 1.409 . S
C493 C491 1.415 . S
C494 H484 0.930 1_545 S
C494 C492 1.419 . S
C494 C495 1.362 . S
C495 H485 0.930 1_545 S
C495 C488 1.409 . S
C495 C494 1.362 . S
H496 C502 0.930 . S
H497 C505 0.930 . S
H498 C506 0.930 . S
H499 C507 0.930 . S
H500 C510 0.930 . S
H501 C511 0.930 . S
C502 H496 0.930 . S
C502 C503 1.355 . S
C502 C504 1.415 . S
C503 C502 1.355 . S
C503 C505 1.419 . S
C504 C502 1.415 . S
C504 C509 1.425 . S
C504 C511 1.409 . S
C505 H497 0.930 . S
C505 C503 1.419 . S
C505 C506 1.362 . S
C506 H498 0.930 . S
C506 C505 1.362 . S
C506 C509 1.409 . S
C507 H499 0.930 . S
C507 C508 1.355 . S
C507 C509 1.415 . S
C508 C507 1.355 . S
C508 C510 1.419 . S
C509 C504 1.425 . S
C509 C506 1.409 . S
C509 C507 1.415 . S
C510 H500 0.930 . S
C510 C508 1.419 . S
C510 C511 1.362 . S
C511 H501 0.930 . S
C511 C504 1.409 . S
C511 C510 1.362 . S
H512 C518 0.930 . S
H513 C521 0.930 . S
H514 C522 0.930 . S
H515 C523 0.930 . S
H516 C526 0.930 . S
H517 C527 0.930 . S
C518 H512 0.930 . S
C518 C519 1.355 . S
C518 C520 1.415 . S
C519 C518 1.355 . S
C519 C521 1.419 . S
C520 C518 1.415 . S
C520 C525 1.425 . S
C520 C527 1.409 . S
C521 H513 0.930 . S
C521 C519 1.419 . S
C521 C522 1.362 . S
C522 H514 0.930 . S
C522 C521 1.362 . S
C522 C525 1.409 . S
C523 H515 0.930 . S
C523 C524 1.355 . S
C523 C525 1.415 . S
C524 C523 1.355 . S
C524 C526 1.419 . S
C525 C520 1.425 . S
C525 C522 1.409 . S
C525 C523 1.415 . S
C526 H516 0.930 . S
C526 C524 1.419 . S
C526 C527 1.362 . S
C527 H517 0.930 . S
C527 C520 1.409 . S
C527 C526 1.362 . S
H528 C534 0.930 . S
H529 C537 0.930 1_455 S
H530 C538 0.930 1_455 S
H531 C539 0.930 . S
H532 C542 0.930 . S
H533 C543 0.930 . S
C534 H528 0.930 . S
C534 C535 1.355 . S
C534 C536 1.415 . S
C535 C534 1.355 . S
C535 C537 1.419 . S
C536 C534 1.415 . S
C536 C541 1.425 . S
C536 C543 1.409 . S
C537 H529 0.930 1_655 S
C537 C535 1.419 . S
C537 C538 1.362 . S
C538 H530 0.930 1_655 S
C538 C537 1.362 . S
C538 C541 1.409 . S
C539 H531 0.930 . S
C539 C540 1.355 . S
C539 C541 1.415 . S
C540 C539 1.355 . S
C540 C542 1.419 . S
C541 C536 1.425 . S
C541 C538 1.409 . S
C541 C539 1.415 . S
C542 H532 0.930 . S
C542 C540 1.419 . S
C542 C543 1.362 . S
C543 H533 0.930 . S
C543 C536 1.409 . S
C543 C542 1.362 . S
H544 C550 0.930 . S
H545 C553 0.930 . S
H546 C554 0.930 . S
H547 C555 0.930 . S
H548 C558 0.930 . S
H549 C559 0.930 . S
C550 H544 0.930 . S
C550 C551 1.355 . S
C550 C552 1.415 . S
C551 C550 1.355 . S
C551 C553 1.419 . S
C552 C550 1.415 . S
C552 C557 1.425 . S
C552 C559 1.409 . S
C553 H545 0.930 . S
C553 C551 1.419 . S
C553 C554 1.362 . S
C554 H546 0.930 . S
C554 C553 1.362 . S
C554 C557 1.409 . S
C555 H547 0.930 . S
C555 C556 1.355 . S
C555 C557 1.415 . S
C556 C555 1.355 . S
C556 C558 1.419 . S
C557 C552 1.425 . S
C557 C554 1.409 . S
C557 C555 1.415 . S
C558 H548 0.930 . S
C558 C556 1.419 . S
C558 C559 1.362 . S
C559 H549 0.930 . S
C559 C552 1.409 . S
C559 C558 1.362 . S
H560 C566 0.930 . S
H561 C569 0.930 . S
H562 C570 0.930 . S
H563 C571 0.930 . S
H564 C574 0.930 . S
H565 C575 0.930 . S
C566 H560 0.930 . S
C566 C567 1.355 . S
C566 C568 1.415 . S
C567 C566 1.355 . S
C567 C569 1.419 . S
C568 C566 1.415 . S
C568 C573 1.425 . S
C568 C575 1.409 . S
C569 H561 0.930 . S
C569 C567 1.419 . S
C569 C570 1.362 . S
C570 H562 0.930 . S
C570 C569 1.362 . S
C570 C573 1.409 . S
C571 H563 0.930 . S
C571 C572 1.355 . S
C571 C573 1.415 . S
C572 C571 1.355 . S
C572 C574 1.419 . S
C573 C568 1.425 . S
C573 C570 1.409 . S
C573 C571 1.415 . S
C574 H564 0.930 . S
C574 C572 1.419 . S
C574 C575 1.362 . S
C575 H565 0.930 . S
C575 C568 1.409 . S
C575 C574 1.362 . S
H576 C582 0.930 . S
H577 C585 0.930 . S
H578 C586 0.930 . S
H579 C587 0.930 . S
H580 C590 0.930 . S
H581 C591 0.930 . S
C582 H576 0.930 . S
C582 C583 1.355 . S
C582 C584 1.415 . S
C583 C582 1.355 . S
C583 C585 1.419 . S
C584 C582 1.415 . S
C584 C589 1.425 . S
C584 C591 1.409 . S
C585 H577 0.930 . S
C585 C583 1.419 . S
C585 C586 1.362 . S
C586 H578 0.930 . S
C586 C585 1.362 . S
C586 C589 1.409 . S
C587 H579 0.930 . S
C587 C588 1.355 . S
C587 C589 1.415 . S
C588 C587 1.355 . S
C588 C590 1.419 . S
C589 C584 1.425 . S
C589 C586 1.409 . S
C589 C587 1.415 . S
C590 H580 0.930 . S
C590 C588 1.419 . S
C590 C591 1.362 . S
C591 H581 0.930 . S
C591 C584 1.409 . S
C591 C590 1.362 . S
H592 C598 0.930 . S
H593 C601 0.930 . S
H594 C602 0.927 1_556 S
H595 C603 0.930 . S
H596 C606 0.930 . S
H597 C607 0.927 1_554 S
C598 H592 0.930 . S
C598 C599 1.355 1_655 S
C598 C600 1.415 . S
C599 C598 1.355 1_455 S
C599 C601 1.419 . S
C600 C598 1.415 . S
C600 C605 1.425 1_654 S
C600 C607 1.409 1_554 S
C601 H593 0.930 . S
C601 C599 1.419 . S
C601 C602 1.362 . S
C602 H594 0.927 1_554 S
C602 C601 1.362 . S
C602 C605 1.409 1_554 S
C603 H595 0.930 . S
C603 C604 1.355 1_455 S
C603 C605 1.415 . S
C604 C603 1.355 1_655 S
C604 C606 1.419 . S
C605 C600 1.425 1_456 S
C605 C602 1.409 1_556 S
C605 C603 1.415 . S
C606 H596 0.930 . S
C606 C604 1.419 . S
C606 C607 1.362 . S
C607 H597 0.927 1_556 S
C607 C600 1.409 1_556 S
C607 C606 1.362 . S
H608 C614 0.930 . S
H609 C617 0.930 . S
H610 C618 0.930 . S
H611 C619 0.930 . S
H612 C622 0.930 . S
H613 C623 0.930 . S
C614 H608 0.930 . S
C614 C615 1.355 . S
C614 C616 1.415 1_455 S
C615 C614 1.355 . S
C615 C617 1.419 1_556 S
C616 C614 1.415 1_655 S
C616 C621 1.425 1_666 S
C616 C623 1.409 1_565 S
C617 H609 0.930 . S
C617 C615 1.419 1_554 S
C617 C618 1.362 . S
C618 H610 0.930 . S
C618 C617 1.362 . S
C618 C621 1.409 1_565 S
C619 H611 0.930 . S
C619 C620 1.355 . S
C619 C621 1.415 1_655 S
C620 C619 1.355 . S
C620 C622 1.419 1_554 S
C621 C616 1.425 1_444 S
C621 C618 1.409 1_545 S
C621 C619 1.415 1_455 S
C622 H612 0.930 . S
C622 C620 1.419 1_556 S
C622 C623 1.362 . S
C623 H613 0.930 . S
C623 C616 1.409 1_545 S
C623 C622 1.362 . S
H624 C630 0.930 1_556 S
H625 C633 0.930 . S
H626 C634 0.930 . S
H627 C635 0.930 1_554 S
H628 C638 0.930 . S
H629 C639 0.930 . S
C630 H624 0.930 1_554 S
C630 C631 1.355 . S
C630 C632 1.415 1_554 S
C631 C630 1.355 . S
C631 C633 1.419 . S
C632 C630 1.415 1_556 S
C632 C637 1.425 1_566 S
C632 C639 1.409 1_565 S
C633 H625 0.930 . S
C633 C631 1.419 . S
C633 C634 1.362 . S
C634 H626 0.930 . S
C634 C633 1.362 . S
C634 C637 1.409 1_565 S
C635 H627 0.930 1_556 S
C635 C636 1.355 . S
C635 C637 1.415 1_556 S
C636 C635 1.355 . S
C636 C638 1.419 . S
C637 C632 1.425 1_544 S
C637 C634 1.409 1_545 S
C637 C635 1.415 1_554 S
C638 H628 0.930 . S
C638 C636 1.419 . S
C638 C639 1.362 . S
C639 H629 0.930 . S
C639 C632 1.409 1_545 S
C639 C638 1.362 . S
H640 C646 0.930 . S
H641 C649 0.930 . S
H642 C650 0.930 1_554 S
H643 C651 0.930 . S
H644 C654 0.930 . S
H645 C655 0.930 1_556 S
C646 H640 0.930 . S
C646 C647 1.355 . S
C646 C648 1.415 . S
C647 C646 1.355 . S
C647 C649 1.419 . S
C648 C646 1.415 . S
C648 C653 1.425 1_556 S
C648 C655 1.409 1_556 S
C649 H641 0.930 . S
C649 C647 1.419 . S
C649 C650 1.362 . S
C650 H642 0.930 1_556 S
C650 C649 1.362 . S
C650 C653 1.409 1_556 S
C651 H643 0.930 . S
C651 C652 1.355 . S
C651 C653 1.415 . S
C652 C651 1.355 . S
C652 C654 1.419 . S
C653 C648 1.425 1_554 S
C653 C650 1.409 1_554 S
C653 C651 1.415 . S
C654 H644 0.930 . S
C654 C652 1.419 . S
C654 C655 1.362 . S
C655 H645 0.930 1_554 S
C655 C648 1.409 1_554 S
C655 C654 1.362 . S
H656 C662 0.930 . S
H657 C665 0.930 . S
H658 C666 0.930 . S
H659 C667 0.930 . S
H660 C670 0.930 . S
H661 C671 0.930 . S
C662 H656 0.930 . S
C662 C663 1.355 . S
C662 C664 1.415 1_465 S
C663 C662 1.355 . S
C663 C665 1.419 . S
C664 C662 1.415 1_645 S
C664 C669 1.425 1_645 S
C664 C671 1.409 . S
C665 H657 0.930 . S
C665 C663 1.419 . S
C665 C666 1.362 . S
C666 H658 0.930 . S
C666 C665 1.362 . S
C666 C669 1.409 . S
C667 H659 0.930 . S
C667 C668 1.355 . S
C667 C669 1.415 1_645 S
C668 C667 1.355 . S
C668 C670 1.419 . S
C669 C664 1.425 1_465 S
C669 C666 1.409 . S
C669 C667 1.415 1_465 S
C670 H660 0.930 . S
C670 C668 1.419 . S
C670 C671 1.362 . S
C671 H661 0.930 . S
C671 C664 1.409 . S
C671 C670 1.362 . S
H672 C678 0.930 . S
H673 C681 0.930 . S
H674 C682 0.930 . S
H675 C683 0.930 . S
H676 C686 0.930 . S
H677 C687 0.930 . S
C678 H672 0.930 . S
C678 C679 1.355 . S
C678 C680 1.415 . S
C679 C678 1.355 . S
C679 C681 1.419 1_545 S
C680 C678 1.415 . S
C680 C685 1.425 1_545 S
C680 C687 1.409 . S
C681 H673 0.930 . S
C681 C679 1.419 1_565 S
C681 C682 1.362 . S
C682 H674 0.930 . S
C682 C681 1.362 . S
C682 C685 1.409 . S
C683 H675 0.930 . S
C683 C684 1.355 . S
C683 C685 1.415 . S
C684 C683 1.355 . S
C684 C686 1.419 1_565 S
C685 C680 1.425 1_565 S
C685 C682 1.409 . S
C685 C683 1.415 . S
C686 H676 0.930 . S
C686 C684 1.419 1_545 S
C686 C687 1.362 . S
C687 H677 0.930 . S
C687 C680 1.409 . S
C687 C686 1.362 . S
H688 C694 0.930 . S
H689 C697 0.930 . S
H690 C698 0.930 . S
H691 C699 0.930 . S
H692 C702 0.930 . S
H693 C703 0.930 . S
C694 H688 0.930 . S
C694 C695 1.355 . S
C694 C696 1.415 . S
C695 C694 1.355 . S
C695 C697 1.419 . S
C696 C694 1.415 . S
C696 C701 1.425 . S
C696 C703 1.409 . S
C697 H689 0.930 . S
C697 C695 1.419 . S
C697 C698 1.362 . S
C698 H690 0.930 . S
C698 C697 1.362 . S
C698 C701 1.409 . S
C699 H691 0.930 . S
C699 C700 1.355 . S
C699 C701 1.415 . S
C700 C699 1.355 . S
C700 C702 1.419 . S
C701 C696 1.425 . S
C701 C698 1.409 . S
C701 C699 1.415 . S
C702 H692 0.930 . S
C702 C700 1.419 . S
C702 C703 1.362 . S
C703 H693 0.930 . S
C703 C696 1.409 . S
C703 C702 1.362 . S
H704 C710 0.930 . S
H705 C713 0.930 . S
H706 C714 0.930 . S
H707 C715 0.930 . S
H708 C718 0.930 . S
H709 C719 0.930 . S
C710 H704 0.930 . S
C710 C711 1.355 . S
C710 C712 1.415 . S
C711 C710 1.355 . S
C711 C713 1.419 . S
C712 C710 1.415 . S
C712 C717 1.425 1_655 S
C712 C719 1.409 . S
C713 H705 0.930 . S
C713 C711 1.419 . S
C713 C714 1.362 1_655 S
C714 H706 0.930 . S
C714 C713 1.362 1_455 S
C714 C717 1.409 . S
C715 H707 0.930 . S
C715 C716 1.355 . S
C715 C717 1.415 . S
C716 C715 1.355 . S
C716 C718 1.419 . S
C717 C712 1.425 1_455 S
C717 C714 1.409 . S
C717 C715 1.415 . S
C718 H708 0.930 . S
C718 C716 1.419 . S
C718 C719 1.362 1_455 S
C719 H709 0.930 . S
C719 C712 1.409 . S
C719 C718 1.362 1_655 S
C215 C3 2.207 . S
C220 C29 2.215 . S
C231 C16 2.204 . S
C236 C42 2.228 . S
C247 C55 2.214 . S
C252 C81 2.223 . S
C263 C94 2.203 . S
C268 C68 2.228 . S
C279 C109 2.202 . S
C284 C135 2.226 . S
C295 C148 2.224 . S
C300 C122 2.212 . S
C311 C187 2.225 . S
C316 C161 2.211 . S
C327 C200 2.220 . S
C332 C174 2.204 . S
C343 C92 1.969 . S
C348 C1 1.970 . S
C359 C14 1.918 . S
C364 C53 1.915 . S
C375 C66 1.968 . S
C380 C27 1.966 . S
C391 C40 1.950 . S
C396 C79 1.953 . S
C407 C205 1.970 . S
C412 C114 1.970 . S
C423 C127 1.964 . S
C428 C166 1.965 . S
C439 C140 1.926 . S
C444 C179 1.923 . S
C455 C192 1.934 . S
C460 C153 1.931 . S
C471 C10 0.671 . S
C476 C62 0.627 . S
C487 C23 0.671 . S
C492 C75 0.638 . S
C503 C88 0.548 . S
C508 C36 0.565 . S
C519 C49 0.559 . S
C524 C101 0.551 . S
C535 C157 0.554 . S
C540 C105 0.625 . S
C551 C170 0.652 . S
C556 C118 0.667 . S
C567 C131 0.586 . S
C572 C183 0.542 . S
C583 C144 0.602 . S
C588 C196 0.544 . S
C599 C5 1.821 . S
C604 C107 1.821 . S
C615 C120 1.802 . S
C620 C18 1.802 . S
C631 C31 1.784 . S
C636 C133 1.784 . S
C647 C146 1.824 . S
C652 C44 1.824 . S
C663 C57 1.818 . S
C668 C159 1.818 . S
C679 C70 1.784 . S
C684 C172 1.784 . S
C695 C185 1.813 . S
C700 C83 1.813 . S
C711 C96 1.792 . S
C716 C198 1.792 . S
