# Generated by pormake.
# Topology umk, (4)-cn, num edge types: 1
# Building blocks:
#     Node 0, Type 0, BuildingBlock: QUQFOY_clean_sbu_3, # of connection points: 4
#     Node 1, Type 0, BuildingBlock: QUQFOY_clean_sbu_3, # of connection points: 4
#     Node 2, Type 0, BuildingBlock: QUQFOY_clean_sbu_3, # of connection points: 4
#     Node 3, Type 0, BuildingBlock: QUQFOY_clean_sbu_3, # of connection points: 4
#     Node 4, Type 0, BuildingBlock: QUQFOY_clean_sbu_3, # of connection points: 4
#     Node 5, Type 0, BuildingBlock: QUQFOY_clean_sbu_3, # of connection points: 4
#     Node 6, Type 0, BuildingBlock: QUQFOY_clean_sbu_3, # of connection points: 4
#     Node 7, Type 0, BuildingBlock: QUQFOY_clean_sbu_3, # of connection points: 4
#     Node 8, Type 0, BuildingBlock: QUQFOY_clean_sbu_3, # of connection points: 4
#     Node 9, Type 0, BuildingBlock: QUQFOY_clean_sbu_3, # of connection points: 4
#     Node 10, Type 0, BuildingBlock: QUQFOY_clean_sbu_3, # of connection points: 4
#     Node 11, Type 0, BuildingBlock: QUQFOY_clean_sbu_3, # of connection points: 4
#     Node 12, Type 0, BuildingBlock: QUQFOY_clean_sbu_3, # of connection points: 4
#     Node 13, Type 0, BuildingBlock: QUQFOY_clean_sbu_3, # of connection points: 4
#     Node 14, Type 0, BuildingBlock: QUQFOY_clean_sbu_3, # of connection points: 4
#     Node 15, Type 0, BuildingBlock: QUQFOY_clean_sbu_3, # of connection points: 4
#     Node 16, Type 0, BuildingBlock: QUQFOY_clean_sbu_3, # of connection points: 4
#     Node 17, Type 0, BuildingBlock: QUQFOY_clean_sbu_3, # of connection points: 4
#     Node 18, Type 0, BuildingBlock: QUQFOY_clean_sbu_3, # of connection points: 4
#     Node 19, Type 0, BuildingBlock: QUQFOY_clean_sbu_3, # of connection points: 4
#     Node 20, Type 0, BuildingBlock: QUQFOY_clean_sbu_3, # of connection points: 4
#     Node 21, Type 0, BuildingBlock: QUQFOY_clean_sbu_3, # of connection points: 4
#     Node 22, Type 0, BuildingBlock: QUQFOY_clean_sbu_3, # of connection points: 4
#     Node 23, Type 0, BuildingBlock: QUQFOY_clean_sbu_3, # of connection points: 4
#     Edge 24, Type (0, 0), BuildingBlock: MIFKUJ_clean_linker_0, # of connection points: 2
#     Edge 25, Type (0, 0), BuildingBlock: MIFKUJ_clean_linker_0, # of connection points: 2
#     Edge 26, Type (0, 0), BuildingBlock: MIFKUJ_clean_linker_0, # of connection points: 2
#     Edge 27, Type (0, 0), BuildingBlock: MIFKUJ_clean_linker_0, # of connection points: 2
#     Edge 28, Type (0, 0), BuildingBlock: MIFKUJ_clean_linker_0, # of connection points: 2
#     Edge 29, Type (0, 0), BuildingBlock: MIFKUJ_clean_linker_0, # of connection points: 2
#     Edge 30, Type (0, 0), BuildingBlock: MIFKUJ_clean_linker_0, # of connection points: 2
#     Edge 31, Type (0, 0), BuildingBlock: MIFKUJ_clean_linker_0, # of connection points: 2
#     Edge 32, Type (0, 0), BuildingBlock: MIFKUJ_clean_linker_0, # of connection points: 2
#     Edge 33, Type (0, 0), BuildingBlock: MIFKUJ_clean_linker_0, # of connection points: 2
#     Edge 34, Type (0, 0), BuildingBlock: MIFKUJ_clean_linker_0, # of connection points: 2
#     Edge 35, Type (0, 0), BuildingBlock: MIFKUJ_clean_linker_0, # of connection points: 2
#     Edge 36, Type (0, 0), BuildingBlock: MIFKUJ_clean_linker_0, # of connection points: 2
#     Edge 37, Type (0, 0), BuildingBlock: MIFKUJ_clean_linker_0, # of connection points: 2
#     Edge 38, Type (0, 0), BuildingBlock: MIFKUJ_clean_linker_0, # of connection points: 2
#     Edge 39, Type (0, 0), BuildingBlock: MIFKUJ_clean_linker_0, # of connection points: 2
#     Edge 40, Type (0, 0), BuildingBlock: MIFKUJ_clean_linker_0, # of connection points: 2
#     Edge 41, Type (0, 0), BuildingBlock: MIFKUJ_clean_linker_0, # of connection points: 2
#     Edge 42, Type (0, 0), BuildingBlock: MIFKUJ_clean_linker_0, # of connection points: 2
#     Edge 43, Type (0, 0), BuildingBlock: MIFKUJ_clean_linker_0, # of connection points: 2
#     Edge 44, Type (0, 0), BuildingBlock: MIFKUJ_clean_linker_0, # of connection points: 2
#     Edge 45, Type (0, 0), BuildingBlock: MIFKUJ_clean_linker_0, # of connection points: 2
#     Edge 46, Type (0, 0), BuildingBlock: MIFKUJ_clean_linker_0, # of connection points: 2
#     Edge 47, Type (0, 0), BuildingBlock: MIFKUJ_clean_linker_0, # of connection points: 2
#     Edge 48, Type (0, 0), BuildingBlock: MIFKUJ_clean_linker_0, # of connection points: 2
#     Edge 49, Type (0, 0), BuildingBlock: MIFKUJ_clean_linker_0, # of connection points: 2
#     Edge 50, Type (0, 0), BuildingBlock: MIFKUJ_clean_linker_0, # of connection points: 2
#     Edge 51, Type (0, 0), BuildingBlock: MIFKUJ_clean_linker_0, # of connection points: 2
#     Edge 52, Type (0, 0), BuildingBlock: MIFKUJ_clean_linker_0, # of connection points: 2
#     Edge 53, Type (0, 0), BuildingBlock: MIFKUJ_clean_linker_0, # of connection points: 2
#     Edge 54, Type (0, 0), BuildingBlock: MIFKUJ_clean_linker_0, # of connection points: 2
#     Edge 55, Type (0, 0), BuildingBlock: MIFKUJ_clean_linker_0, # of connection points: 2
#     Edge 56, Type (0, 0), BuildingBlock: MIFKUJ_clean_linker_0, # of connection points: 2
#     Edge 57, Type (0, 0), BuildingBlock: MIFKUJ_clean_linker_0, # of connection points: 2
#     Edge 58, Type (0, 0), BuildingBlock: MIFKUJ_clean_linker_0, # of connection points: 2
#     Edge 59, Type (0, 0), BuildingBlock: MIFKUJ_clean_linker_0, # of connection points: 2
#     Edge 60, Type (0, 0), BuildingBlock: MIFKUJ_clean_linker_0, # of connection points: 2
#     Edge 61, Type (0, 0), BuildingBlock: MIFKUJ_clean_linker_0, # of connection points: 2
#     Edge 62, Type (0, 0), BuildingBlock: MIFKUJ_clean_linker_0, # of connection points: 2
#     Edge 63, Type (0, 0), BuildingBlock: MIFKUJ_clean_linker_0, # of connection points: 2
#     Edge 64, Type (0, 0), BuildingBlock: MIFKUJ_clean_linker_0, # of connection points: 2
#     Edge 65, Type (0, 0), BuildingBlock: MIFKUJ_clean_linker_0, # of connection points: 2
#     Edge 66, Type (0, 0), BuildingBlock: MIFKUJ_clean_linker_0, # of connection points: 2
#     Edge 67, Type (0, 0), BuildingBlock: MIFKUJ_clean_linker_0, # of connection points: 2
#     Edge 68, Type (0, 0), BuildingBlock: MIFKUJ_clean_linker_0, # of connection points: 2
#     Edge 69, Type (0, 0), BuildingBlock: MIFKUJ_clean_linker_0, # of connection points: 2
#     Edge 70, Type (0, 0), BuildingBlock: MIFKUJ_clean_linker_0, # of connection points: 2
#     Edge 71, Type (0, 0), BuildingBlock: MIFKUJ_clean_linker_0, # of connection points: 2
# Relax obj value: 0.060
# Max RMSD: 0.040
# Mean RMSD: 0.040
data_MOF--net-umk--node1-QUQFOY_clean_sbu_3--edge1-MIFKUJ_clean_linker_0
_symmetry_space_group_name_H-M    P1
_symmetry_Int_Tables_number       1
_symmetry_cell_setting            triclinic
loop_
_symmetry_equiv_pos_as_xyz
'x, y, z'
_cell_length_a     87.439675
_cell_length_b     87.48117
_cell_length_c     57.579992
_cell_angle_alpha  89.977806
_cell_angle_beta   90.026518
_cell_angle_gamma 120.00369
loop_
_atom_site_label
_atom_site_type_symbol
_atom_site_fract_x
_atom_site_fract_y
_atom_site_fract_z
_atom_type_partial_charge
C0 C 0.33582 0.46853 0.12476 0.0
O1 O 0.35126 0.48121 0.1205 0.0
Cd2 Cd 0.3634 0.49427 0.08382 0.0
O3 O 0.32459 0.46108 0.10846 0.0
Cd4 Cd 0.32382 0.46406 0.06539 0.0
C5 C 0.35811 0.45637 0.05818 0.0
O6 O 0.3397 0.49583 0.0664 0.0
O7 O 0.33448 0.48498 0.03209 0.0
O8 O 0.29253 0.45414 0.07071 0.0
C9 C 0.34121 0.49862 0.04479 0.0
O10 O 0.36834 0.47208 0.06522 0.0
C11 C 0.28751 0.44445 0.0527 0.0
O12 O 0.34142 0.4499 0.05784 0.0
O13 O 0.29932 0.44352 0.04101 0.0
C14 C 0.8626 0.33844 0.62309 0.0
O15 O 0.86559 0.35396 0.61886 0.0
Cd16 Cd 0.86736 0.36671 0.58173 0.0
O17 O 0.85969 0.32756 0.60662 0.0
Cd18 Cd 0.85804 0.32757 0.56333 0.0
C19 C 0.9009 0.36058 0.56114 0.0
O20 O 0.84298 0.34426 0.56124 0.0
O21 O 0.85188 0.34022 0.52828 0.0
O22 O 0.8335 0.29746 0.56467 0.0
C23 C 0.84373 0.34643 0.53949 0.0
O24 O 0.89542 0.37099 0.56739 0.0
C25 C 0.84001 0.29128 0.55027 0.0
O26 O 0.89025 0.34404 0.55928 0.0
O27 O 0.85527 0.30195 0.54233 0.0
C28 C 0.5184 0.86008 0.12318 0.0
O29 O 0.50626 0.86359 0.11874 0.0
Cd30 Cd 0.49865 0.869 0.08129 0.0
O31 O 0.5275 0.85876 0.10681 0.0
Cd32 Cd 0.52801 0.8605 0.06342 0.0
C33 C 0.53915 0.90342 0.06415 0.0
O34 O 0.49635 0.84562 0.05777 0.0
O35 O 0.51152 0.85957 0.0278 0.0
O36 O 0.53104 0.83447 0.06225 0.0
C37 C 0.49648 0.8493 0.03653 0.0
O38 O 0.52307 0.89768 0.06962 0.0
C39 C 0.54464 0.84099 0.0494 0.0
O40 O 0.54512 0.89285 0.06206 0.0
O41 O 0.55096 0.85698 0.04326 0.0
C42 C 0.66132 0.52556 0.62853 0.0
O43 O 0.64556 0.51285 0.62664 0.0
Cd44 Cd 0.62887 0.50182 0.59177 0.0
O45 O 0.6702 0.53389 0.61065 0.0
Cd46 Cd 0.66575 0.53203 0.56767 0.0
C47 C 0.63173 0.54028 0.57142 0.0
O48 O 0.64965 0.50014 0.56716 0.0
O49 O 0.65136 0.51208 0.53403 0.0
O50 O 0.69686 0.54067 0.56578 0.0
C51 C 0.64595 0.49807 0.54578 0.0
O52 O 0.62236 0.52458 0.57901 0.0
C53 C 0.70054 0.55139 0.54901 0.0
O54 O 0.64811 0.54665 0.56719 0.0
O55 O 0.68811 0.55349 0.54129 0.0
C56 C 0.13444 0.66093 0.12703 0.0
O57 O 0.13225 0.64558 0.12413 0.0
Cd58 Cd 0.12466 0.62995 0.08839 0.0
O59 O 0.13361 0.66972 0.10988 0.0
Cd60 Cd 0.1301 0.66582 0.06682 0.0
C61 C 0.0881 0.63336 0.07365 0.0
O62 O 0.14603 0.64991 0.06167 0.0
O63 O 0.12998 0.64872 0.03265 0.0
O64 O 0.15448 0.69572 0.06338 0.0
C65 C 0.14129 0.64518 0.04092 0.0
O66 O 0.09473 0.62388 0.07967 0.0
C67 C 0.14722 0.70078 0.04853 0.0
O68 O 0.09799 0.64968 0.06909 0.0
O69 O 0.13152 0.68964 0.04256 0.0
C70 C 0.45801 0.11866 0.62382 0.0
O71 O 0.46818 0.11258 0.61935 0.0
Cd72 Cd 0.4797 0.11098 0.58244 0.0
O73 O 0.45232 0.12445 0.60759 0.0
Cd74 Cd 0.45557 0.12727 0.56452 0.0
C75 C 0.44075 0.0837 0.55462 0.0
O76 O 0.48703 0.13841 0.56525 0.0
O77 O 0.47591 0.13389 0.531 0.0
O78 O 0.45426 0.1544 0.56578 0.0
C79 C 0.48955 0.13927 0.54359 0.0
O80 O 0.45565 0.08646 0.56198 0.0
C81 C 0.44166 0.14934 0.55135 0.0
O82 O 0.43678 0.09586 0.55523 0.0
O83 O 0.43514 0.13374 0.54352 0.0
C84 C 0.51921 0.65894 0.86507 0.0
O85 O 0.50648 0.6433 0.86787 0.0
Cd86 Cd 0.49715 0.62773 0.90376 0.0
O87 O 0.52804 0.66826 0.88241 0.0
Cd88 Cd 0.52731 0.6654 0.92561 0.0
C89 C 0.5369 0.63233 0.92216 0.0
O90 O 0.49553 0.64843 0.92862 0.0
O91 O 0.50922 0.65098 0.96063 0.0
O92 O 0.53216 0.69517 0.92696 0.0
C93 C 0.49461 0.64512 0.9501 0.0
O94 O 0.52109 0.62261 0.91511 0.0
C95 C 0.54503 0.7012 0.94108 0.0
O96 O 0.54297 0.64868 0.92631 0.0
O97 O 0.5501 0.6906 0.94777 0.0
C98 C 0.86216 0.52358 0.36809 0.0
O99 O 0.86449 0.5106 0.37211 0.0
Cd100 Cd 0.86383 0.49757 0.40866 0.0
O101 O 0.85897 0.53133 0.3846 0.0
Cd102 Cd 0.85584 0.52852 0.42775 0.0
C103 C 0.89761 0.53529 0.43322 0.0
O104 O 0.83915 0.4968 0.42668 0.0
O105 O 0.84564 0.50752 0.46103 0.0
O106 O 0.83498 0.53908 0.4228 0.0
C107 C 0.8381 0.49394 0.44826 0.0
O108 O 0.89163 0.5195 0.42618 0.0
C109 C 0.83988 0.54873 0.44084 0.0
O110 O 0.88769 0.54208 0.43423 0.0
O111 O 0.85254 0.54935 0.45242 0.0
C112 C 0.33792 0.86493 0.8672 0.0
O113 O 0.35314 0.86801 0.87338 0.0
Cd114 Cd 0.36288 0.86975 0.91231 0.0
O115 O 0.32614 0.8621 0.88232 0.0
Cd116 Cd 0.32365 0.86031 0.92556 0.0
C117 C 0.35537 0.9029 0.93092 0.0
O118 O 0.33969 0.84469 0.93108 0.0
O119 O 0.33624 0.85616 0.96211 0.0
O120 O 0.29382 0.83597 0.91963 0.0
C121 C 0.34172 0.84665 0.95281 0.0
O122 O 0.36614 0.89743 0.92681 0.0
C123 C 0.28664 0.84092 0.93473 0.0
O124 O 0.33875 0.89239 0.92996 0.0
O125 O 0.29666 0.85526 0.94532 0.0
C126 C 0.47278 0.34052 0.36227 0.0
O127 O 0.48518 0.35598 0.36709 0.0
Cd128 Cd 0.49594 0.36829 0.40454 0.0
O129 O 0.46463 0.32929 0.37834 0.0
Cd130 Cd 0.466 0.3287 0.42164 0.0
C131 C 0.4564 0.36175 0.42639 0.0
O132 O 0.49777 0.34571 0.42466 0.0
O133 O 0.48413 0.34065 0.45722 0.0
O134 O 0.46112 0.29887 0.42024 0.0
C135 C 0.49873 0.34744 0.44649 0.0
O136 O 0.47228 0.37222 0.42016 0.0
C137 C 0.44815 0.29234 0.43421 0.0
O138 O 0.45032 0.34513 0.4272 0.0
O139 O 0.44297 0.30265 0.44173 0.0
C140 C 0.13018 0.46929 0.86839 0.0
O141 O 0.127 0.48179 0.87162 0.0
Cd142 Cd 0.12174 0.49117 0.90797 0.0
O143 O 0.13099 0.46046 0.88552 0.0
Cd144 Cd 0.12869 0.46139 0.92875 0.0
C145 C 0.08633 0.45216 0.92689 0.0
O146 O 0.14501 0.49342 0.93177 0.0
O147 O 0.13155 0.47981 0.96287 0.0
O148 O 0.15179 0.45358 0.93036 0.0
C149 C 0.14194 0.49432 0.95303 0.0
O150 O 0.0925 0.46818 0.92079 0.0
C151 C 0.14478 0.44239 0.94663 0.0
O152 O 0.09649 0.44575 0.92936 0.0
O153 O 0.12999 0.43968 0.9542 0.0
C154 C 0.655 0.13063 0.36677 0.0
O155 O 0.63938 0.12744 0.3707 0.0
Cd156 Cd 0.62544 0.12369 0.40734 0.0
O157 O 0.66549 0.13278 0.38349 0.0
Cd158 Cd 0.6646 0.13305 0.42694 0.0
C159 C 0.63203 0.09006 0.42719 0.0
O160 O 0.64715 0.1472 0.42954 0.0
O161 O 0.65056 0.13737 0.46209 0.0
O162 O 0.69408 0.15854 0.42707 0.0
C163 C 0.64417 0.14546 0.45111 0.0
O164 O 0.62174 0.09558 0.42055 0.0
C165 C 0.70072 0.15206 0.4408 0.0
O166 O 0.6485 0.10072 0.42992 0.0
O167 O 0.6906 0.13636 0.44778 0.0
C168 C 0.66747 0.5277 0.86479 0.0
O169 O 0.65218 0.51443 0.86782 0.0
Cd170 Cd 0.63629 0.50538 0.90334 0.0
O171 O 0.67627 0.53746 0.88184 0.0
Cd172 Cd 0.67245 0.53755 0.9249 0.0
C173 C 0.63793 0.54443 0.91856 0.0
O174 O 0.65731 0.50583 0.92969 0.0
O175 O 0.657 0.52005 0.9598 0.0
O176 O 0.70343 0.546 0.92739 0.0
C177 C 0.65276 0.5053 0.95063 0.0
O178 O 0.62901 0.52826 0.91257 0.0
C179 C 0.70736 0.5576 0.94303 0.0
O180 O 0.65441 0.55163 0.92279 0.0
O181 O 0.69512 0.56035 0.9498 0.0
C182 C 0.12942 0.65582 0.36385 0.0
O183 O 0.12619 0.64004 0.366 0.0
Cd184 Cd 0.11981 0.62409 0.40153 0.0
O185 O 0.13003 0.66481 0.38161 0.0
Cd186 Cd 0.12769 0.6601 0.42453 0.0
C187 C 0.085 0.62834 0.42164 0.0
O188 O 0.1429 0.6432 0.42708 0.0
O189 O 0.12848 0.64264 0.45762 0.0
O190 O 0.15286 0.68956 0.42865 0.0
C191 C 0.13905 0.63863 0.44807 0.0
O192 O 0.09079 0.6184 0.41451 0.0
C193 C 0.14606 0.69464 0.44411 0.0
O194 O 0.0955 0.64472 0.42515 0.0
O195 O 0.13027 0.68378 0.45004 0.0
C196 C 0.46733 0.12947 0.86571 0.0
O197 O 0.47941 0.12592 0.87048 0.0
Cd198 Cd 0.48934 0.12322 0.90791 0.0
O199 O 0.45907 0.13233 0.88185 0.0
Cd200 Cd 0.45988 0.13354 0.92526 0.0
C201 C 0.44918 0.09064 0.92922 0.0
O202 O 0.49152 0.14765 0.92818 0.0
O203 O 0.4781 0.13875 0.96079 0.0
O204 O 0.45627 0.15922 0.92327 0.0
C205 C 0.49264 0.14655 0.94991 0.0
O206 O 0.46506 0.0959 0.92317 0.0
C207 C 0.44339 0.15352 0.93733 0.0
O208 O 0.44326 0.10131 0.93004 0.0
O209 O 0.43764 0.13806 0.94536 0.0
C210 C 0.33775 0.46774 0.36553 0.0
O211 O 0.35324 0.48029 0.36985 0.0
Cd212 Cd 0.36566 0.49188 0.40702 0.0
O213 O 0.32673 0.45989 0.38191 0.0
Cd214 Cd 0.32645 0.46189 0.42511 0.0
C215 C 0.35995 0.45297 0.42997 0.0
O216 O 0.34294 0.49374 0.42677 0.0
O217 O 0.33835 0.48099 0.45994 0.0
O218 O 0.29616 0.45567 0.42236 0.0
C219 C 0.34481 0.49529 0.44856 0.0
O220 O 0.37018 0.46881 0.42345 0.0
C221 C 0.29006 0.4436 0.43765 0.0
O222 O 0.34328 0.44663 0.43083 0.0
O223 O 0.30085 0.43956 0.44663 0.0
C224 C 0.86384 0.33875 0.86368 0.0
O225 O 0.86705 0.35434 0.86793 0.0
Cd226 Cd 0.86694 0.36678 0.90472 0.0
O227 O 0.8599 0.32754 0.88004 0.0
Cd228 Cd 0.85668 0.32734 0.92314 0.0
C229 C 0.89919 0.36075 0.92982 0.0
O230 O 0.84167 0.34413 0.92356 0.0
O231 O 0.84902 0.33953 0.95728 0.0
O232 O 0.83205 0.29722 0.92168 0.0
C233 C 0.84151 0.34605 0.94529 0.0
O234 O 0.89402 0.37124 0.92281 0.0
C235 C 0.83842 0.29104 0.93632 0.0
O236 O 0.88862 0.34412 0.93034 0.0
O237 O 0.85365 0.30169 0.94436 0.0
C238 C 0.51772 0.86028 0.36388 0.0
O239 O 0.50578 0.86416 0.36791 0.0
Cd240 Cd 0.49632 0.86849 0.40469 0.0
O241 O 0.52621 0.85825 0.38051 0.0
Cd242 Cd 0.52607 0.85927 0.42406 0.0
C243 C 0.53651 0.90227 0.42409 0.0
O244 O 0.49431 0.84418 0.42543 0.0
O245 O 0.50658 0.85274 0.45871 0.0
O246 O 0.53462 0.83675 0.42079 0.0
C247 C 0.49242 0.84477 0.44707 0.0
O248 O 0.52066 0.89679 0.41764 0.0
C249 C 0.54463 0.8418 0.43848 0.0
O250 O 0.54224 0.89155 0.42671 0.0
O251 O 0.54638 0.85529 0.44914 0.0
C252 C 0.47156 0.34394 0.12089 0.0
O253 O 0.48368 0.35965 0.11668 0.0
Cd254 Cd 0.49395 0.37271 0.07954 0.0
O255 O 0.4636 0.33313 0.10435 0.0
Cd256 Cd 0.46519 0.3338 0.06102 0.0
C257 C 0.45431 0.3659 0.05784 0.0
O258 O 0.49697 0.35128 0.05809 0.0
O259 O 0.48323 0.34813 0.02597 0.0
O260 O 0.4617 0.30451 0.06085 0.0
C261 C 0.49787 0.35418 0.03649 0.0
O262 O 0.47011 0.37653 0.0642 0.0
C263 C 0.44853 0.29766 0.04723 0.0
O264 O 0.44855 0.34935 0.05663 0.0
O265 O 0.44267 0.30757 0.04033 0.0
C266 C 0.13368 0.46985 0.62929 0.0
O267 O 0.13113 0.48269 0.62537 0.0
Cd268 Cd 0.12469 0.49019 0.58842 0.0
O269 O 0.1337 0.46022 0.61268 0.0
Cd270 Cd 0.13132 0.4597 0.56937 0.0
C271 C 0.08895 0.44979 0.57299 0.0
O272 O 0.14708 0.4915 0.56371 0.0
O273 O 0.13262 0.47625 0.53399 0.0
O274 O 0.15566 0.45394 0.57009 0.0
C275 C 0.14322 0.49126 0.5425 0.0
O276 O 0.09529 0.46595 0.5785 0.0
C277 C 0.14956 0.44199 0.55466 0.0
O278 O 0.09907 0.4434 0.5698 0.0
O279 O 0.1345 0.43778 0.54631 0.0
C280 C 0.65556 0.13154 0.12658 0.0
O281 O 0.63978 0.12795 0.12287 0.0
Cd282 Cd 0.62524 0.12411 0.08665 0.0
O283 O 0.66601 0.13391 0.10972 0.0
Cd284 Cd 0.66461 0.13411 0.06627 0.0
C285 C 0.63191 0.09098 0.06516 0.0
O286 O 0.64687 0.14794 0.06486 0.0
O287 O 0.65068 0.13932 0.03161 0.0
O288 O 0.69416 0.15958 0.06544 0.0
C289 C 0.644 0.14682 0.04327 0.0
O290 O 0.62154 0.09625 0.07229 0.0
C291 C 0.70051 0.15303 0.05135 0.0
O292 O 0.64837 0.10178 0.06254 0.0
O293 O 0.69023 0.1373 0.04462 0.0
C294 C 0.51945 0.66006 0.62745 0.0
O295 O 0.50688 0.64433 0.62458 0.0
Cd296 Cd 0.49661 0.62868 0.58895 0.0
O297 O 0.5281 0.66958 0.61013 0.0
Cd298 Cd 0.5269 0.66633 0.56688 0.0
C299 C 0.53579 0.63271 0.56946 0.0
O300 O 0.49504 0.65 0.56537 0.0
O301 O 0.50754 0.65219 0.53258 0.0
O302 O 0.53512 0.69737 0.5657 0.0
C303 C 0.49332 0.64661 0.54391 0.0
O304 O 0.51994 0.62294 0.57633 0.0
C305 C 0.546 0.70141 0.54906 0.0
O306 O 0.542 0.64916 0.566 0.0
O307 O 0.54845 0.68923 0.54122 0.0
C308 C 0.85897 0.52012 0.1281 0.0
O309 O 0.86123 0.50708 0.12417 0.0
Cd310 Cd 0.86394 0.49655 0.08714 0.0
O311 O 0.85735 0.52879 0.1114 0.0
Cd312 Cd 0.85696 0.5281 0.06808 0.0
C313 C 0.89923 0.53606 0.06862 0.0
O314 O 0.84079 0.4963 0.06545 0.0
O315 O 0.85006 0.50953 0.03277 0.0
O316 O 0.83518 0.53756 0.07183 0.0
C317 C 0.84172 0.49507 0.04369 0.0
O318 O 0.89295 0.52002 0.07475 0.0
C319 C 0.84115 0.54849 0.05512 0.0
O320 O 0.88919 0.54259 0.06586 0.0
O321 O 0.85473 0.55021 0.04471 0.0
C322 C 0.33847 0.87031 0.62185 0.0
O323 O 0.35428 0.87575 0.61549 0.0
Cd324 Cd 0.36432 0.87579 0.57704 0.0
O325 O 0.32594 0.86435 0.60703 0.0
Cd326 Cd 0.32296 0.85968 0.56411 0.0
C327 C 0.35118 0.90281 0.55151 0.0
O328 O 0.34253 0.84771 0.56316 0.0
O329 O 0.33414 0.85106 0.52952 0.0
O330 O 0.29392 0.83429 0.57204 0.0
C331 C 0.34281 0.84582 0.54148 0.0
O332 O 0.36365 0.90001 0.55715 0.0
C333 C 0.28602 0.83768 0.55608 0.0
O334 O 0.3351 0.89082 0.55391 0.0
O335 O 0.29526 0.85157 0.54425 0.0
H336 H 0.35815 0.47741 0.16153 0.0
H337 H 0.35088 0.46838 0.20176 0.0
H338 H 0.29574 0.43698 0.18388 0.0
H339 H 0.30293 0.44605 0.14305 0.0
H340 H 0.30221 0.45866 0.22308 0.0
H341 H 0.31557 0.41518 0.19857 0.0
H342 H 0.33189 0.40305 0.17804 0.0
H343 H 0.37782 0.43511 0.21953 0.0
H344 H 0.36189 0.44765 0.24008 0.0
H345 H 0.30467 0.44555 0.34761 0.0
H346 H 0.29697 0.43715 0.30671 0.0
H347 H 0.35188 0.46887 0.28786 0.0
H348 H 0.35964 0.47728 0.32822 0.0
H349 H 0.33555 0.43592 0.26694 0.0
H350 H 0.32417 0.48476 0.28183 0.0
H351 H 0.30854 0.49802 0.30155 0.0
H352 H 0.25882 0.45552 0.27769 0.0
H353 H 0.27418 0.44191 0.25806 0.0
C354 C 0.34445 0.46852 0.166 0.0
C355 C 0.33111 0.46246 0.14905 0.0
C356 C 0.34034 0.46327 0.18903 0.0
C357 C 0.32282 0.45182 0.19572 0.0
C358 C 0.30937 0.44573 0.17897 0.0
C359 C 0.31351 0.4509 0.15571 0.0
C360 C 0.31894 0.44716 0.22056 0.0
C361 C 0.30902 0.45315 0.23266 0.0
C362 C 0.32783 0.43998 0.233 0.0
C363 C 0.3375 0.43237 0.22088 0.0
C364 C 0.32918 0.41971 0.20325 0.0
C365 C 0.33836 0.41276 0.19161 0.0
C366 C 0.35588 0.4183 0.19748 0.0
C367 C 0.36424 0.4308 0.21503 0.0
C368 C 0.35512 0.43781 0.22672 0.0
C369 C 0.31508 0.45065 0.33472 0.0
C370 C 0.33276 0.46216 0.34114 0.0
C371 C 0.31065 0.44584 0.31142 0.0
C372 C 0.32387 0.45239 0.29433 0.0
C373 C 0.3415 0.46359 0.30081 0.0
C374 C 0.34589 0.46848 0.32391 0.0
C375 C 0.31973 0.44838 0.2694 0.0
C376 C 0.32813 0.44073 0.25731 0.0
C377 C 0.30945 0.45401 0.25701 0.0
C378 C 0.30028 0.46221 0.26878 0.0
C379 C 0.30989 0.47818 0.28097 0.0
C380 C 0.30109 0.48576 0.29209 0.0
C381 C 0.28269 0.47758 0.29095 0.0
C382 C 0.27307 0.46182 0.27862 0.0
C383 C 0.28181 0.45416 0.26749 0.0
H384 H 0.2759 0.48348 0.29956 0.0
H385 H 0.36297 0.41291 0.18843 0.0
H386 H 0.87503 0.36029 0.66041 0.0
H387 H 0.87652 0.35262 0.70056 0.0
H388 H 0.8532 0.29774 0.68171 0.0
H389 H 0.8517 0.30534 0.64094 0.0
H390 H 0.83776 0.30438 0.72145 0.0
H391 H 0.89412 0.31668 0.696 0.0
H392 H 0.92249 0.33266 0.6752 0.0
H393 H 0.93752 0.37848 0.71736 0.0
H394 H 0.90912 0.36291 0.73818 0.0
H395 H 0.85249 0.30565 0.84553 0.0
H396 H 0.85357 0.29812 0.80466 0.0
H397 H 0.87872 0.35329 0.78648 0.0
H398 H 0.87776 0.36088 0.82681 0.0
H399 H 0.89421 0.33644 0.76486 0.0
H400 H 0.83464 0.32667 0.78026 0.0
H401 H 0.80579 0.31173 0.80017 0.0
H402 H 0.79705 0.26148 0.77628 0.0
H403 H 0.82596 0.27614 0.75644 0.0
C404 C 0.8702 0.34656 0.66466 0.0
C405 C 0.86323 0.33342 0.64745 0.0
C406 C 0.87119 0.34222 0.68763 0.0
C407 C 0.86521 0.32466 0.69399 0.0
C408 C 0.85801 0.31139 0.67702 0.0
C409 C 0.85718 0.31576 0.65381 0.0
C410 C 0.86603 0.32057 0.71872 0.0
C411 C 0.85014 0.31088 0.73094 0.0
C412 C 0.8822 0.32912 0.731 0.0
C413 C 0.89943 0.33859 0.71867 0.0
C414 C 0.90342 0.3302 0.70077 0.0
C415 C 0.91952 0.33918 0.68897 0.0
C416 C 0.93181 0.35656 0.69499 0.0
C417 C 0.928 0.365 0.71277 0.0
C418 C 0.91191 0.35608 0.72461 0.0
C419 C 0.85836 0.31616 0.8328 0.0
C420 C 0.86492 0.33386 0.83939 0.0
C421 C 0.85896 0.31183 0.80951 0.0
C422 C 0.86622 0.32516 0.79259 0.0
C423 C 0.87316 0.34281 0.79929 0.0
C424 C 0.87246 0.34711 0.82237 0.0
C425 C 0.86589 0.32111 0.76758 0.0
C426 C 0.8819 0.32929 0.75533 0.0
C427 C 0.84986 0.31121 0.75529 0.0
C428 C 0.83252 0.30245 0.76717 0.0
C429 C 0.82661 0.31242 0.77942 0.0
C430 C 0.81025 0.30401 0.79066 0.0
C431 C 0.79962 0.28566 0.78956 0.0
C432 C 0.80532 0.27568 0.77717 0.0
C433 C 0.82168 0.28403 0.76593 0.0
H434 H 0.78696 0.27917 0.79826 0.0
H435 H 0.94429 0.36347 0.68589 0.0
H436 H 0.54365 0.85415 0.34668 0.0
H437 H 0.54838 0.84928 0.30585 0.0
H438 H 0.50422 0.85536 0.28558 0.0
H439 H 0.49943 0.8602 0.32571 0.0
H440 H 0.50334 0.82593 0.26594 0.0
H441 H 0.54587 0.88897 0.28 0.0
H442 H 0.57206 0.91295 0.2994 0.0
H443 H 0.60356 0.89105 0.27541 0.0
H444 H 0.57746 0.86683 0.25608 0.0
H445 H 0.49974 0.85982 0.16106 0.0
H446 H 0.50423 0.85482 0.20129 0.0
H447 H 0.54854 0.84882 0.18168 0.0
H448 H 0.54417 0.85392 0.1408 0.0
H449 H 0.55483 0.87072 0.22119 0.0
H450 H 0.51318 0.81282 0.19734 0.0
H451 H 0.48683 0.78969 0.17725 0.0
H452 H 0.45352 0.80139 0.21947 0.0
H453 H 0.47967 0.82477 0.23959 0.0
C454 C 0.53498 0.85444 0.33347 0.0
C455 C 0.52117 0.85758 0.33948 0.0
C456 C 0.5377 0.85165 0.31021 0.0
C457 C 0.52658 0.85187 0.29278 0.0
C458 C 0.51285 0.85498 0.29881 0.0
C459 C 0.5102 0.85785 0.32182 0.0
C460 C 0.529 0.84925 0.26797 0.0
C461 C 0.51467 0.83558 0.25612 0.0
C462 C 0.54409 0.86143 0.25534 0.0
C463 C 0.5597 0.87599 0.26689 0.0
C464 C 0.55835 0.8892 0.27904 0.0
C465 C 0.57318 0.90285 0.28998 0.0
C466 C 0.58945 0.90349 0.28871 0.0
C467 C 0.59094 0.89051 0.27643 0.0
C468 C 0.57614 0.87683 0.26548 0.0
C469 C 0.51046 0.85743 0.16513 0.0
C470 C 0.52156 0.8572 0.14764 0.0
C471 C 0.51295 0.85448 0.18819 0.0
C472 C 0.52652 0.85116 0.19438 0.0
C473 C 0.5379 0.85122 0.17716 0.0
C474 C 0.53536 0.85411 0.15387 0.0
C475 C 0.52865 0.84806 0.21913 0.0
C476 C 0.54381 0.86058 0.23097 0.0
C477 C 0.5143 0.83479 0.23183 0.0
C478 C 0.49843 0.82057 0.22 0.0
C479 C 0.50025 0.81052 0.20229 0.0
C480 C 0.48534 0.79736 0.19089 0.0
C481 C 0.46851 0.79407 0.19708 0.0
C482 C 0.46656 0.80393 0.21472 0.0
C483 C 0.48143 0.81711 0.22617 0.0
H484 H 0.45699 0.78389 0.18822 0.0
H485 H 0.60092 0.91406 0.29719 0.0
H486 H 0.69502 0.55875 0.84788 0.0
H487 H 0.70526 0.56525 0.80739 0.0
H488 H 0.66678 0.51195 0.78804 0.0
H489 H 0.65658 0.50542 0.82796 0.0
H490 H 0.69892 0.52328 0.76679 0.0
H491 H 0.65758 0.54503 0.78262 0.0
H492 H 0.64909 0.56451 0.80293 0.0
H493 H 0.69675 0.61005 0.77957 0.0
H494 H 0.70559 0.59078 0.75933 0.0
H495 H 0.6506 0.50496 0.66703 0.0
H496 H 0.66314 0.51228 0.70586 0.0
H497 H 0.70279 0.5639 0.68227 0.0
H498 H 0.69032 0.55655 0.64279 0.0
H499 H 0.68373 0.56315 0.724 0.0
H500 H 0.71823 0.5393 0.69657 0.0
H501 H 0.72463 0.51863 0.67546 0.0
H502 H 0.68913 0.47633 0.72005 0.0
H503 H 0.68229 0.49666 0.74122 0.0
C504 C 0.68893 0.5484 0.83499 0.0
C505 C 0.67487 0.53163 0.84104 0.0
C506 C 0.69479 0.55213 0.81193 0.0
C507 C 0.68675 0.53907 0.79476 0.0
C508 C 0.67324 0.52218 0.80104 0.0
C509 C 0.66731 0.51851 0.82386 0.0
C510 C 0.69105 0.5429 0.76982 0.0
C511 C 0.69586 0.53217 0.75738 0.0
C512 C 0.68769 0.55498 0.75767 0.0
C513 C 0.68235 0.5665 0.76977 0.0
C514 C 0.6663 0.55919 0.78198 0.0
C515 C 0.66142 0.57019 0.79344 0.0
C516 C 0.67241 0.5885 0.79262 0.0
C517 C 0.68828 0.59586 0.78025 0.0
C518 C 0.69323 0.58492 0.76879 0.0
C519 C 0.66203 0.51787 0.66997 0.0
C520 C 0.66944 0.5302 0.65186 0.0
C521 C 0.66927 0.52198 0.69216 0.0
C522 C 0.684 0.53854 0.69682 0.0
C523 C 0.69149 0.551 0.67889 0.0
C524 C 0.68438 0.54677 0.65642 0.0
C525 C 0.69052 0.54272 0.72098 0.0
C526 C 0.6877 0.55491 0.73331 0.0
C527 C 0.69563 0.5319 0.73304 0.0
C528 C 0.69976 0.51955 0.72051 0.0
C529 C 0.71172 0.52557 0.70182 0.0
C530 C 0.71543 0.51391 0.68984 0.0
C531 C 0.7073 0.49618 0.69641 0.0
C532 C 0.69545 0.49008 0.715 0.0
C533 C 0.69168 0.50168 0.72704 0.0
H534 H 0.71019 0.48717 0.68711 0.0
H535 H 0.66861 0.597 0.80149 0.0
H536 H 0.14039 0.64551 0.32606 0.0
H537 H 0.14536 0.65756 0.28693 0.0
H538 H 0.13112 0.69592 0.30894 0.0
H539 H 0.12634 0.684 0.34872 0.0
H540 H 0.11319 0.67531 0.26737 0.0
H541 H 0.17102 0.71296 0.29507 0.0
H542 H 0.19846 0.72122 0.31657 0.0
H543 H 0.20807 0.68693 0.27332 0.0
H544 H 0.18055 0.67823 0.25177 0.0
H545 H 0.12961 0.68763 0.14386 0.0
H546 H 0.1327 0.69762 0.1844 0.0
H547 H 0.14982 0.6609 0.20382 0.0
H548 H 0.14672 0.65088 0.16381 0.0
H549 H 0.16928 0.69347 0.22543 0.0
H550 H 0.10732 0.64924 0.20895 0.0
H551 H 0.07912 0.63882 0.18818 0.0
H552 H 0.07728 0.68462 0.2109 0.0
H553 H 0.10559 0.69539 0.23159 0.0
C554 C 0.13839 0.65657 0.3227 0.0
C555 C 0.13291 0.66377 0.34044 0.0
C556 C 0.14135 0.66352 0.30036 0.0
C557 C 0.13876 0.67772 0.29516 0.0
C558 C 0.1333 0.68503 0.31274 0.0
C559 C 0.13061 0.67823 0.33537 0.0
C560 C 0.14085 0.68383 0.27083 0.0
C561 C 0.12559 0.67993 0.25823 0.0
C562 C 0.157 0.68971 0.259 0.0
C563 C 0.17367 0.69494 0.27179 0.0
C564 C 0.17892 0.7071 0.29021 0.0
C565 C 0.19451 0.71187 0.30241 0.0
C566 C 0.205 0.70461 0.29631 0.0
C567 C 0.19994 0.69257 0.278 0.0
C568 C 0.18436 0.68774 0.26575 0.0
C569 C 0.13427 0.6819 0.15677 0.0
C570 C 0.13776 0.66835 0.15074 0.0
C571 C 0.13601 0.68761 0.17986 0.0
C572 C 0.14146 0.67996 0.19706 0.0
C573 C 0.14569 0.66704 0.19079 0.0
C574 C 0.14376 0.66122 0.16793 0.0
C575 C 0.14146 0.68402 0.22199 0.0
C576 C 0.1571 0.68975 0.23465 0.0
C577 C 0.12564 0.67972 0.23387 0.0
C578 C 0.10865 0.67323 0.22152 0.0
C579 C 0.10096 0.65714 0.20935 0.0
C580 C 0.08495 0.65116 0.19763 0.0
C581 C 0.07645 0.66109 0.19814 0.0
C582 C 0.08391 0.67698 0.21046 0.0
C583 C 0.09993 0.68302 0.22218 0.0
H584 H 0.06406 0.65643 0.18906 0.0
H585 H 0.21706 0.70832 0.30578 0.0
H586 H 0.44222 0.13638 0.8475 0.0
H587 H 0.43599 0.138 0.80622 0.0
H588 H 0.47659 0.12604 0.78723 0.0
H589 H 0.48296 0.12455 0.82789 0.0
H590 H 0.4793 0.15365 0.76276 0.0
H591 H 0.43292 0.09464 0.78642 0.0
H592 H 0.40687 0.07409 0.80946 0.0
H593 H 0.37821 0.09848 0.78329 0.0
H594 H 0.40419 0.11932 0.7603 0.0
H595 H 0.46867 0.10814 0.66199 0.0
H596 H 0.46503 0.11337 0.70253 0.0
H597 H 0.43438 0.13743 0.68255 0.0
H598 H 0.4381 0.13241 0.64142 0.0
H599 H 0.42266 0.11057 0.72561 0.0
H600 H 0.4687 0.16581 0.69539 0.0
H601 H 0.49502 0.18435 0.67154 0.0
H602 H 0.52466 0.16589 0.71011 0.0
H603 H 0.49843 0.14701 0.73394 0.0
C604 C 0.4498 0.13411 0.83449 0.0
C605 C 0.46311 0.13036 0.84102 0.0
C606 C 0.44621 0.13502 0.81095 0.0
C607 C 0.45587 0.13218 0.79371 0.0
C608 C 0.46908 0.12842 0.80026 0.0
C609 C 0.47265 0.1275 0.82359 0.0
C610 C 0.45251 0.13293 0.76865 0.0
C611 C 0.46684 0.14438 0.75466 0.0
C612 C 0.43611 0.12119 0.75812 0.0
C613 C 0.42055 0.10867 0.77192 0.0
C614 C 0.42111 0.09571 0.78575 0.0
C615 C 0.40635 0.084 0.79876 0.0
C616 C 0.39091 0.08502 0.79791 0.0
C617 C 0.39019 0.09773 0.78398 0.0
C618 C 0.40492 0.10949 0.77096 0.0
C619 C 0.46096 0.11437 0.66606 0.0
C620 C 0.45384 0.12004 0.64839 0.0
C621 C 0.45887 0.11729 0.68928 0.0
C622 C 0.44956 0.12586 0.69539 0.0
C623 C 0.4416 0.13077 0.67804 0.0
C624 C 0.44379 0.12794 0.65461 0.0
C625 C 0.44968 0.13076 0.71993 0.0
C626 C 0.43484 0.12037 0.73377 0.0
C627 C 0.46565 0.14341 0.73043 0.0
C628 C 0.48156 0.15494 0.71638 0.0
C629 C 0.48079 0.16561 0.69868 0.0
C630 C 0.4957 0.1762 0.68518 0.0
C631 C 0.5115 0.17628 0.68929 0.0
C632 C 0.51242 0.16581 0.70695 0.0
C633 C 0.49754 0.15519 0.72048 0.0
H634 H 0.52302 0.18448 0.67881 0.0
H635 H 0.3795 0.07593 0.80799 0.0
H636 H 0.55018 0.68839 0.6438 0.0
H637 H 0.55686 0.69884 0.68425 0.0
H638 H 0.50463 0.65845 0.7048 0.0
H639 H 0.49797 0.64794 0.665 0.0
H640 H 0.51505 0.69172 0.72442 0.0
H641 H 0.53816 0.65123 0.7107 0.0
H642 H 0.55817 0.64307 0.69117 0.0
H643 H 0.60301 0.69162 0.71375 0.0
H644 H 0.5832 0.70014 0.73319 0.0
H645 H 0.49797 0.64709 0.82717 0.0
H646 H 0.50478 0.65828 0.78764 0.0
H647 H 0.55681 0.69852 0.80911 0.0
H648 H 0.54998 0.68741 0.84925 0.0
H649 H 0.55588 0.67869 0.76875 0.0
H650 H 0.53156 0.71329 0.79363 0.0
H651 H 0.51092 0.72015 0.81395 0.0
H652 H 0.46836 0.68308 0.77092 0.0
H653 H 0.48866 0.67577 0.75056 0.0
C654 C 0.54012 0.68187 0.65698 0.0
C655 C 0.5236 0.66726 0.65128 0.0
C656 C 0.54395 0.68785 0.67999 0.0
C657 C 0.5312 0.67942 0.69743 0.0
C658 C 0.51459 0.66521 0.69157 0.0
C659 C 0.51086 0.65912 0.66881 0.0
C660 C 0.53504 0.6843 0.7222 0.0
C661 C 0.52414 0.68913 0.73416 0.0
C662 C 0.54739 0.68157 0.73473 0.0
C663 C 0.55922 0.67643 0.72308 0.0
C664 C 0.55228 0.66022 0.71132 0.0
C665 C 0.56358 0.65552 0.70031 0.0
C666 C 0.58185 0.66685 0.70114 0.0
C667 C 0.58885 0.68288 0.71305 0.0
C668 C 0.5776 0.68765 0.72407 0.0
C669 C 0.51085 0.65838 0.82361 0.0
C670 C 0.52346 0.66634 0.84133 0.0
C671 C 0.51468 0.66484 0.80102 0.0
C672 C 0.53122 0.67934 0.79554 0.0
C673 C 0.54393 0.6874 0.81309 0.0
C674 C 0.53999 0.68105 0.83594 0.0
C675 C 0.5351 0.68506 0.77103 0.0
C676 C 0.54741 0.68218 0.75908 0.0
C677 C 0.52403 0.6896 0.75849 0.0
C678 C 0.51168 0.69398 0.77055 0.0
C679 C 0.51778 0.70652 0.78856 0.0
C680 C 0.50613 0.7105 0.80009 0.0
C681 C 0.48834 0.70206 0.79372 0.0
C682 C 0.48215 0.68963 0.7758 0.0
C683 C 0.49374 0.68559 0.76422 0.0
H684 H 0.47934 0.70515 0.80267 0.0
H685 H 0.59057 0.66319 0.69261 0.0
H686 H 0.85247 0.5468 0.35044 0.0
H687 H 0.8532 0.55522 0.30953 0.0
H688 H 0.8748 0.52216 0.29042 0.0
H689 H 0.87422 0.51383 0.33074 0.0
H690 H 0.89161 0.55406 0.26838 0.0
H691 H 0.83071 0.50749 0.28615 0.0
H692 H 0.80242 0.49597 0.30704 0.0
H693 H 0.79733 0.53958 0.28248 0.0
H694 H 0.82572 0.55145 0.26166 0.0
H695 H 0.86744 0.50793 0.16661 0.0
H696 H 0.86906 0.51757 0.20654 0.0
H697 H 0.85249 0.55433 0.18528 0.0
H698 H 0.85092 0.54479 0.14472 0.0
H699 H 0.83476 0.53239 0.22671 0.0
H700 H 0.89211 0.57299 0.1991 0.0
H701 H 0.91971 0.58252 0.17734 0.0
H702 H 0.9315 0.54947 0.22002 0.0
H703 H 0.90384 0.53951 0.24181 0.0
C704 C 0.8575 0.54147 0.33749 0.0
C705 C 0.86318 0.52955 0.34382 0.0
C706 C 0.85789 0.54628 0.31418 0.0
C707 C 0.86404 0.53929 0.29699 0.0
C708 C 0.8701 0.52779 0.30342 0.0
C709 C 0.86964 0.52293 0.32652 0.0
C710 C 0.86351 0.54294 0.272 0.0
C711 C 0.87922 0.54954 0.25924 0.0
C712 C 0.84743 0.53764 0.26019 0.0
C713 C 0.8304 0.53047 0.27264 0.0
C714 C 0.82361 0.51468 0.28537 0.0
C715 C 0.80756 0.50808 0.29716 0.0
C716 C 0.79812 0.51707 0.29616 0.0
C717 C 0.80468 0.53266 0.2833 0.0
C718 C 0.82075 0.53933 0.2715 0.0
C719 C 0.86406 0.51803 0.17028 0.0
C720 C 0.85911 0.52563 0.15242 0.0
C721 C 0.86507 0.52357 0.19314 0.0
C722 C 0.86111 0.5368 0.19873 0.0
C723 C 0.8557 0.54417 0.18118 0.0
C724 C 0.85484 0.53873 0.15809 0.0
C725 C 0.86272 0.54252 0.22317 0.0
C726 C 0.84726 0.53769 0.23581 0.0
C727 C 0.87904 0.54939 0.23492 0.0
C728 C 0.89586 0.55549 0.22209 0.0
C729 C 0.90054 0.56768 0.20378 0.0
C730 C 0.9162 0.57316 0.19144 0.0
C731 C 0.92735 0.5666 0.19729 0.0
C732 C 0.92287 0.55456 0.21552 0.0
C733 C 0.90721 0.54902 0.22791 0.0
H734 H 0.93946 0.57085 0.1877 0.0
H735 H 0.78569 0.51194 0.30529 0.0
H736 H 0.30645 0.85959 0.64314 0.0
H737 H 0.30038 0.85657 0.68507 0.0
H738 H 0.35567 0.87673 0.69893 0.0
H739 H 0.3619 0.87992 0.65754 0.0
H740 H 0.33239 0.84388 0.72045 0.0
H741 H 0.33937 0.90234 0.70799 0.0
H742 H 0.33109 0.92287 0.69034 0.0
H743 H 0.27885 0.89268 0.71866 0.0
H744 H 0.28677 0.87182 0.73623 0.0
H745 H 0.36082 0.87267 0.83125 0.0
H746 H 0.35459 0.87094 0.78994 0.0
H747 H 0.30008 0.85433 0.80442 0.0
H748 H 0.30625 0.85622 0.84629 0.0
H749 H 0.31429 0.87921 0.76854 0.0
H750 H 0.30884 0.82388 0.78685 0.0
H751 H 0.31693 0.80333 0.80487 0.0
H752 H 0.365 0.82636 0.76536 0.0
H753 H 0.35734 0.84724 0.74735 0.0
C754 C 0.31732 0.86355 0.65515 0.0
C755 C 0.33464 0.86988 0.64696 0.0
C756 C 0.31382 0.86183 0.67905 0.0
C757 C 0.32758 0.86632 0.69497 0.0
C758 C 0.34487 0.87308 0.68685 0.0
C759 C 0.3484 0.87493 0.66315 0.0
C760 C 0.32423 0.86337 0.72017 0.0
C761 C 0.32839 0.85156 0.731 0.0
C762 C 0.3183 0.87286 0.7337 0.0
C763 C 0.31358 0.88539 0.72313 0.0
C764 C 0.32607 0.89998 0.71025 0.0
C765 C 0.32145 0.9117 0.70031 0.0
C766 C 0.30443 0.90904 0.7033 0.0
C767 C 0.29201 0.89469 0.7163 0.0
C768 C 0.29656 0.88292 0.72626 0.0
C769 C 0.34747 0.86866 0.82579 0.0
C770 C 0.33399 0.86442 0.84212 0.0
C771 C 0.34393 0.86764 0.80212 0.0
C772 C 0.32681 0.8622 0.79415 0.0
C773 C 0.31336 0.85844 0.81028 0.0
C774 C 0.31691 0.8595 0.83414 0.0
C775 C 0.32333 0.86037 0.76887 0.0
C776 C 0.31781 0.87116 0.758 0.0
C777 C 0.32789 0.84982 0.75518 0.0
C778 C 0.33252 0.83717 0.7658 0.0
C779 C 0.32118 0.82463 0.78209 0.0
C780 C 0.32569 0.81292 0.7923 0.0
C781 C 0.34147 0.81355 0.78628 0.0
C782 C 0.35277 0.82588 0.77 0.0
C783 C 0.34833 0.83764 0.75975 0.0
H784 H 0.34494 0.80447 0.79421 0.0
H785 H 0.30089 0.91814 0.6956 0.0
H786 H 0.4492 0.30809 0.34359 0.0
H787 H 0.44087 0.30125 0.3025 0.0
H788 H 0.47632 0.35573 0.28466 0.0
H789 H 0.48466 0.36264 0.32514 0.0
H790 H 0.44323 0.3422 0.26441 0.0
H791 H 0.48842 0.32508 0.27735 0.0
H792 H 0.49925 0.30686 0.2959 0.0
H793 H 0.45398 0.25981 0.27056 0.0
H794 H 0.44279 0.27778 0.25209 0.0
H795 H 0.48414 0.3647 0.15923 0.0
H796 H 0.47598 0.35648 0.19948 0.0
H797 H 0.43965 0.30285 0.17895 0.0
H798 H 0.44782 0.31099 0.13804 0.0
H799 H 0.46159 0.30626 0.2181 0.0
H800 H 0.42142 0.32485 0.19581 0.0
H801 H 0.41166 0.34359 0.1763 0.0
H802 H 0.4468 0.38757 0.21888 0.0
H803 H 0.457 0.3692 0.23841 0.0
C804 C 0.45518 0.31858 0.33087 0.0
C805 C 0.46761 0.33591 0.33766 0.0
C806 C 0.45041 0.31465 0.30746 0.0
C807 C 0.45794 0.32802 0.29062 0.0
C808 C 0.47026 0.34526 0.29742 0.0
C809 C 0.47509 0.34916 0.32061 0.0
C810 C 0.45359 0.32447 0.26566 0.0
C811 C 0.44706 0.3342 0.25426 0.0
C812 C 0.45789 0.31346 0.25257 0.0
C813 C 0.46466 0.30274 0.26363 0.0
C814 C 0.48071 0.31084 0.27591 0.0
C815 C 0.48693 0.30057 0.28637 0.0
C816 C 0.47728 0.28218 0.28448 0.0
C817 C 0.46142 0.27404 0.27207 0.0
C818 C 0.45514 0.28426 0.2616 0.0
C819 C 0.4744 0.35112 0.1631 0.0
C820 C 0.46658 0.33852 0.14535 0.0
C821 C 0.4697 0.34647 0.18618 0.0
C822 C 0.45703 0.32914 0.19212 0.0
C823 C 0.44937 0.31633 0.17462 0.0
C824 C 0.45403 0.32102 0.15132 0.0
C825 C 0.45226 0.32486 0.21685 0.0
C826 C 0.45703 0.31367 0.22823 0.0
C827 C 0.44627 0.33449 0.22998 0.0
C828 C 0.43998 0.34561 0.21859 0.0
C829 C 0.42713 0.33854 0.20096 0.0
C830 C 0.42152 0.3491 0.18989 0.0
C831 C 0.4286 0.36676 0.19635 0.0
C832 C 0.4413 0.37388 0.21392 0.0
C833 C 0.44697 0.36338 0.22504 0.0
H834 H 0.42425 0.37492 0.18774 0.0
H835 H 0.48211 0.27425 0.29259 0.0
H836 H 0.1327 0.44011 0.6469 0.0
H837 H 0.13644 0.43428 0.68769 0.0
H838 H 0.14527 0.48578 0.70667 0.0
H839 H 0.14157 0.49166 0.66642 0.0
H840 H 0.16876 0.47773 0.72799 0.0
H841 H 0.10498 0.4499 0.71221 0.0
H842 H 0.07771 0.42838 0.69202 0.0
H843 H 0.08505 0.38594 0.71576 0.0
H844 H 0.11248 0.40726 0.73587 0.0
H845 H 0.13753 0.49038 0.83062 0.0
H846 H 0.14265 0.48459 0.79098 0.0
H847 H 0.13537 0.43399 0.81164 0.0
H848 H 0.13029 0.43976 0.85195 0.0
H849 H 0.11584 0.43349 0.77102 0.0
H850 H 0.17492 0.46227 0.79719 0.0
H851 H 0.20133 0.48449 0.81813 0.0
H852 H 0.20299 0.52551 0.77536 0.0
H853 H 0.17643 0.50359 0.75439 0.0
C854 C 0.13558 0.45021 0.65979 0.0
C855 C 0.13671 0.4663 0.65347 0.0
C856 C 0.1377 0.44686 0.68302 0.0
C857 C 0.14113 0.45961 0.70014 0.0
C858 C 0.14274 0.4758 0.6937 0.0
C859 C 0.14048 0.47909 0.67068 0.0
C860 C 0.14208 0.45614 0.72509 0.0
C861 C 0.15729 0.46794 0.73744 0.0
C862 C 0.12733 0.44291 0.73727 0.0
C863 C 0.11087 0.43016 0.72524 0.0
C864 C 0.10084 0.43598 0.71295 0.0
C865 C 0.08535 0.42383 0.70156 0.0
C866 C 0.07969 0.40581 0.70253 0.0
C867 C 0.08948 0.3999 0.71496 0.0
C868 C 0.10499 0.41201 0.72636 0.0
C869 C 0.13704 0.47801 0.82688 0.0
C870 C 0.13346 0.46551 0.84445 0.0
C871 C 0.1401 0.47478 0.8042 0.0
C872 C 0.13961 0.45897 0.79848 0.0
C873 C 0.13593 0.44633 0.81583 0.0
C874 C 0.13306 0.44965 0.83877 0.0
C875 C 0.14217 0.45578 0.77395 0.0
C876 C 0.12764 0.44276 0.76163 0.0
C877 C 0.15754 0.46793 0.76177 0.0
C878 C 0.17364 0.48124 0.7742 0.0
C879 C 0.18085 0.47604 0.79231 0.0
C880 C 0.19586 0.48859 0.80419 0.0
C881 C 0.20383 0.5064 0.79808 0.0
C882 C 0.19682 0.5117 0.78005 0.0
C883 C 0.1818 0.49921 0.76812 0.0
H884 H 0.21545 0.5161 0.8073 0.0
H885 H 0.06769 0.39642 0.69371 0.0
H886 H 0.68756 0.13786 0.35008 0.0
H887 H 0.69578 0.1377 0.30924 0.0
H888 H 0.64331 0.12458 0.28792 0.0
H889 H 0.63504 0.12469 0.32806 0.0
H890 H 0.65465 0.10301 0.26807 0.0
H891 H 0.67713 0.16619 0.284 0.0
H892 H 0.697 0.19409 0.30422 0.0
H893 H 0.74208 0.19146 0.28002 0.0
H894 H 0.72243 0.16343 0.25987 0.0
H895 H 0.63678 0.12843 0.1656 0.0
H896 H 0.64513 0.12807 0.20566 0.0
H897 H 0.69587 0.13643 0.18363 0.0
H898 H 0.68758 0.13683 0.14283 0.0
H899 H 0.69529 0.15752 0.22479 0.0
H900 H 0.67146 0.09815 0.19958 0.0
H901 H 0.65067 0.07109 0.17848 0.0
H902 H 0.60781 0.06645 0.22009 0.0
H903 H 0.62827 0.09362 0.2412 0.0
C904 C 0.67782 0.13498 0.33664 0.0
C905 C 0.66062 0.13124 0.34236 0.0
C906 C 0.68255 0.1349 0.31337 0.0
C907 C 0.6701 0.13101 0.29565 0.0
C908 C 0.65306 0.12745 0.30138 0.0
C909 C 0.64838 0.1276 0.3244 0.0
C910 C 0.67429 0.13052 0.27087 0.0
C911 C 0.66372 0.11485 0.2586 0.0
C912 C 0.68662 0.14581 0.25867 0.0
C913 C 0.69834 0.16263 0.27072 0.0
C914 C 0.69127 0.1715 0.28317 0.0
C915 C 0.70249 0.18734 0.29458 0.0
C916 C 0.72079 0.19451 0.29348 0.0
C917 C 0.7279 0.18587 0.28091 0.0
C918 C 0.71674 0.17002 0.26949 0.0
C919 C 0.64977 0.13028 0.16907 0.0
C920 C 0.66144 0.13248 0.15092 0.0
C921 C 0.65452 0.13007 0.19205 0.0
C922 C 0.671 0.132 0.19751 0.0
C923 C 0.68305 0.13486 0.17965 0.0
C924 C 0.67827 0.13503 0.15642 0.0
C925 C 0.67483 0.13028 0.22205 0.0
C926 C 0.68685 0.14546 0.23428 0.0
C927 C 0.66381 0.11453 0.23431 0.0
C928 C 0.65144 0.09794 0.22199 0.0
C929 C 0.65759 0.0914 0.20418 0.0
C930 C 0.64585 0.07604 0.19221 0.0
C931 C 0.62793 0.06706 0.19795 0.0
C932 C 0.6217 0.0734 0.21569 0.0
C933 C 0.63338 0.08876 0.22771 0.0
H934 H 0.61886 0.05518 0.18864 0.0
H935 H 0.72945 0.20678 0.30232 0.0
H936 H 0.17284 0.44053 0.9294 0.0
H937 H 0.19141 0.43154 0.9503 0.0
H938 H 0.15713 0.4176 0.00989 0.0
H939 H 0.13828 0.42629 0.98895 0.0
H940 H 0.19298 0.44346 0.01777 0.0
H941 H 0.1595 0.38579 0.98533 0.0
H942 H 0.14493 0.36389 0.95415 0.0
H943 H 0.19494 0.38202 0.92062 0.0
H944 H 0.2098 0.40422 0.95141 0.0
H945 H 0.25789 0.43537 0.0783 0.0
H946 H 0.2282 0.42583 0.06352 0.0
H947 H 0.2464 0.42662 0.99359 0.0
H948 H 0.2757 0.43504 0.00846 0.0
H949 H 0.21396 0.40223 -0.00426 0.0
H950 H 0.24599 0.46333 0.02007 0.0
H951 H 0.26203 0.48779 0.04775 0.0
H952 H 0.21656 0.46622 0.09227 0.0
H953 H 0.20032 0.44151 0.06494 0.0
C954 C 0.16902 0.43515 0.94675 0.0
C955 C 0.15421 0.43424 0.95763 0.0
C956 C 0.17957 0.42992 0.9586 0.0
C957 C 0.17558 0.42387 0.98159 0.0
C958 C 0.16033 0.42214 0.9921 0.0
C959 C 0.1496 0.42711 0.98011 0.0
C960 C 0.18873 0.42194 -0.00451 0.0
C961 C 0.19727 0.43412 0.01341 0.0
C962 C 0.19463 0.41013 0.98919 0.0
C963 C 0.18575 0.39675 0.97065 0.0
C964 C 0.16738 0.38521 0.97122 0.0
C965 C 0.15907 0.37272 0.95363 0.0
C966 C 0.169 0.37158 0.9354 0.0
C967 C 0.18726 0.38291 0.93475 0.0
C968 C 0.19564 0.39544 0.9523 0.0
C969 C 0.2554 0.43311 0.05984 0.0
C970 C 0.2691 0.43616 0.04447 0.0
C971 C 0.23847 0.42773 0.05139 0.0
C972 C 0.23517 0.42601 0.02736 0.0
C973 C 0.24859 0.42792 0.01218 0.0
C974 C 0.26537 0.43281 0.02069 0.0
C975 C 0.21852 0.42406 0.01772 0.0
C976 C 0.20938 0.41125 0.00055 0.0
C977 C 0.21231 0.43564 0.02422 0.0
C978 C 0.22203 0.45047 0.04064 0.0
C979 C 0.23946 0.46375 0.03584 0.0
C980 C 0.24858 0.47766 0.05145 0.0
C981 C 0.24034 0.47853 0.0718 0.0
C982 C 0.22294 0.46551 0.07654 0.0
C983 C 0.21377 0.45155 0.061 0.0
H984 H 0.24742 0.48931 0.08386 0.0
H985 H 0.16254 0.3619 0.9218 0.0
H986 H 0.72261 0.18728 0.43485 0.0
H987 H 0.75126 0.20586 0.45262 0.0
H988 H 0.74926 0.15999 0.48377 0.0
H989 H 0.71998 0.14128 0.46668 0.0
H990 H 0.75885 0.18343 0.5147 0.0
H991 H 0.78036 0.18487 0.43995 0.0
H992 H 0.78222 0.18685 0.39724 0.0
H993 H 0.7926 0.24024 0.4003 0.0
H994 H 0.79053 0.23852 0.443 0.0
H995 H 0.85096 0.27355 0.52172 0.0
H996 H 0.83261 0.24442 0.50416 0.0
H997 H 0.78721 0.23912 0.54102 0.0
H998 H 0.80551 0.26769 0.55917 0.0
H999 H 0.80785 0.23516 0.47528 0.0
H1000 H 0.75605 0.19875 0.54978 0.0
H1001 H 0.75624 0.19493 0.59217 0.0
H1002 H 0.81044 0.20775 0.58917 0.0
H1003 H 0.81052 0.21139 0.54671 0.0
C1004 C 0.72835 0.18107 0.44518 0.0
C1005 C 0.71901 0.16282 0.44941 0.0
C1006 C 0.74486 0.19172 0.4552 0.0
C1007 C 0.75265 0.18434 0.46926 0.0
C1008 C 0.74358 0.166 0.47293 0.0
C1009 C 0.72687 0.15532 0.46313 0.0
C1010 C 0.76933 0.19615 0.4818 0.0
C1011 C 0.76969 0.19461 0.50605 0.0
C1012 C 0.7839 0.21033 0.47049 0.0
C1013 C 0.78526 0.21154 0.44474 0.0
C1014 C 0.78294 0.19701 0.43152 0.0
C1015 C 0.78404 0.19809 0.4073 0.0
C1016 C 0.78752 0.21365 0.39606 0.0
C1017 C 0.78993 0.22819 0.40903 0.0
C1018 C 0.78883 0.22718 0.43326 0.0
C1019 C 0.83714 0.26596 0.52645 0.0
C1020 C 0.82966 0.27292 0.54178 0.0
C1021 C 0.82666 0.24933 0.51638 0.0
C1022 C 0.80853 0.23943 0.5214 0.0
C1023 C 0.80123 0.24621 0.53728 0.0
C1024 C 0.8117 0.26267 0.54753 0.0
C1025 C 0.79671 0.22307 0.50827 0.0
C1026 C 0.79728 0.22373 0.48391 0.0
C1027 C 0.78335 0.20777 0.51944 0.0
C1028 C 0.78329 0.2054 0.54501 0.0
C1029 C 0.76797 0.20062 0.55811 0.0
C1030 C 0.76804 0.19852 0.58218 0.0
C1031 C 0.78334 0.20112 0.59336 0.0
C1032 C 0.7986 0.20578 0.58049 0.0
C1033 C 0.79861 0.20789 0.55643 0.0
H1034 H 0.78337 0.1995 0.61199 0.0
H1035 H 0.78836 0.21446 0.37731 0.0
H1036 H 0.53041 0.8056 0.0547 0.0
H1037 H 0.54042 0.78675 0.03771 0.0
H1038 H 0.58563 0.83238 0.00836 0.0
H1039 H 0.57516 0.85141 0.0247 0.0
H1040 H 0.5722 0.80902 0.97705 0.0
H1041 H 0.59013 0.80701 0.05294 0.0
H1042 H 0.58886 0.80489 0.09566 0.0
H1043 H 0.54535 0.75181 0.09133 0.0
H1044 H 0.54616 0.75367 0.0486 0.0
H1045 H 0.57298 0.71831 0.9711 0.0
H1046 H 0.58354 0.74726 0.9892 0.0
H1047 H 0.54443 0.75332 0.95095 0.0
H1048 H 0.53434 0.72495 0.93238 0.0
H1049 H 0.56754 0.75678 0.01746 0.0
H1050 H 0.55471 0.79391 0.94141 0.0
H1051 H 0.55967 0.7977 0.89916 0.0
H1052 H 0.60034 0.78403 0.90456 0.0
H1053 H 0.59584 0.78041 0.9469 0.0
C1054 C 0.54262 0.8117 0.04491 0.0
C1055 C 0.55197 0.83 0.041 0.0
C1056 C 0.54845 0.80089 0.03535 0.0
C1057 C 0.56399 0.80812 0.02207 0.0
C1058 C 0.57365 0.82649 0.01863 0.0
C1059 C 0.56768 0.83734 0.02799 0.0
C1060 C 0.56893 0.79616 0.01008 0.0
C1061 C 0.57144 0.79773 0.98593 0.0
C1062 C 0.56876 0.78181 0.02174 0.0
C1063 C 0.5682 0.78051 0.0475 0.0
C1064 C 0.58023 0.79491 0.06109 0.0
C1065 C 0.57959 0.79375 0.08532 0.0
C1066 C 0.56703 0.77823 0.0962 0.0
C1067 C 0.55509 0.76382 0.08288 0.0
C1068 C 0.55566 0.76491 0.05864 0.0
C1069 C 0.56691 0.72602 0.96623 0.0
C1070 C 0.55281 0.71934 0.95034 0.0
C1071 C 0.57293 0.74254 0.97661 0.0
C1072 C 0.56495 0.75263 0.97126 0.0
C1073 C 0.55117 0.74609 0.95495 0.0
C1074 C 0.54527 0.72973 0.94447 0.0
C1075 C 0.56951 0.76903 0.98428 0.0
C1076 C 0.56883 0.76831 0.00864 0.0
C1077 C 0.57199 0.78446 0.97288 0.0
C1078 C 0.57489 0.78683 0.94739 0.0
C1079 C 0.56482 0.79184 0.93364 0.0
C1080 C 0.56752 0.79392 0.90965 0.0
C1081 C 0.5803 0.79108 0.89918 0.0
C1082 C 0.59042 0.78618 0.91268 0.0
C1083 C 0.58778 0.78409 0.93668 0.0
H1084 H 0.58236 0.79269 0.8806 0.0
H1085 H 0.56656 0.77736 0.11497 0.0
H1086 H 0.73098 0.55422 0.56595 0.0
H1087 H 0.75833 0.5632 0.54456 0.0
H1088 H 0.73674 0.57549 0.48476 0.0
H1089 H 0.70938 0.56676 0.50617 0.0
H1090 H 0.74705 0.55011 0.4772 0.0
H1091 H 0.77132 0.60808 0.50856 0.0
H1092 H 0.77891 0.63035 0.53929 0.0
H1093 H 0.81143 0.61294 0.57272 0.0
H1094 H 0.80384 0.59037 0.54238 0.0
H1095 H 0.8194 0.55804 0.41553 0.0
H1096 H 0.79952 0.5678 0.43061 0.0
H1097 H 0.81753 0.56724 0.50027 0.0
H1098 H 0.83811 0.55854 0.48511 0.0
H1099 H 0.80946 0.59179 0.49799 0.0
H1100 H 0.78036 0.53048 0.4747 0.0
H1101 H 0.7718 0.5058 0.44735 0.0
H1102 H 0.74724 0.52673 0.40289 0.0
H1103 H 0.75585 0.55166 0.42989 0.0
C1104 C 0.73221 0.55924 0.54844 0.0
C1105 C 0.718 0.55964 0.53764 0.0
C1106 C 0.74788 0.56447 0.5363 0.0
C1107 C 0.74953 0.57004 0.51312 0.0
C1108 C 0.73571 0.57132 0.50269 0.0
C1109 C 0.72012 0.56633 0.51494 0.0
C1110 C 0.7645 0.57191 0.49901 0.0
C1111 C 0.76071 0.55955 0.48129 0.0
C1112 C 0.78226 0.58385 0.50495 0.0
C1113 C 0.78692 0.59745 0.52323 0.0
C1114 C 0.77998 0.60889 0.52255 0.0
C1115 C 0.78431 0.62159 0.53989 0.0
C1116 C 0.79562 0.62304 0.55796 0.0
C1117 C 0.80267 0.6118 0.55871 0.0
C1118 C 0.79838 0.59907 0.54142 0.0
C1119 C 0.81937 0.56041 0.43399 0.0
C1120 C 0.83008 0.5573 0.44921 0.0
C1121 C 0.80798 0.56592 0.44261 0.0
C1122 C 0.80664 0.56776 0.46666 0.0
C1123 C 0.81824 0.56585 0.48167 0.0
C1124 C 0.82996 0.5608 0.47299 0.0
C1125 C 0.792 0.56971 0.47648 0.0
C1126 C 0.79581 0.58268 0.49346 0.0
C1127 C 0.77416 0.55801 0.47033 0.0
C1128 C 0.76894 0.54303 0.45413 0.0
C1129 C 0.77323 0.52987 0.45901 0.0
C1130 C 0.76836 0.51583 0.44359 0.0
C1131 C 0.75903 0.51473 0.42335 0.0
C1132 C 0.75451 0.52763 0.41854 0.0
C1133 C 0.75938 0.54171 0.43389 0.0
H1134 H 0.75527 0.50386 0.41144 0.0
H1135 H 0.79896 0.63288 0.57137 0.0
H1136 H 0.26162 0.81191 0.91176 0.0
H1137 H 0.23234 0.79023 0.92589 0.0
H1138 H 0.24029 0.82214 0.98675 0.0
H1139 H 0.26942 0.8441 0.97242 0.0
H1140 H 0.22842 0.77195 0.96301 0.0
H1141 H 0.20097 0.81169 0.01168 0.0
H1142 H 0.19948 0.83888 0.00621 0.0
H1143 H 0.20449 0.83561 0.93246 0.0
H1144 H 0.20574 0.80828 0.93743 0.0
H1145 H 0.18054 0.72681 0.05886 0.0
H1146 H 0.19934 0.75295 0.03576 0.0
H1147 H 0.15601 0.74037 0.98918 0.0
H1148 H 0.13695 0.71397 0.01226 0.0
H1149 H 0.18095 0.77917 -0.00061 0.0
H1150 H 0.17905 0.72645 0.97098 0.0
H1151 H 0.17964 0.69871 0.9755 0.0
H1152 H 0.23188 0.72741 0.00428 0.0
H1153 H 0.23146 0.75529 0.00028 0.0
C1154 C 0.25695 0.81452 0.92787 0.0
C1155 C 0.26789 0.82959 0.94114 0.0
C1156 C 0.24021 0.80213 0.93591 0.0
C1157 C 0.23411 0.80452 0.9574 0.0
C1158 C 0.24457 0.82011 0.96997 0.0
C1159 C 0.26129 0.83261 0.96182 0.0
C1160 C 0.21825 0.78966 0.96825 0.0
C1161 C 0.21795 0.77354 0.97062 0.0
C1162 C 0.20449 0.79161 0.97813 0.0
C1163 C 0.20358 0.80798 0.97496 0.0
C1164 C 0.20166 0.81672 0.99428 0.0
C1165 C 0.20088 0.83217 0.99127 0.0
C1166 C 0.20193 0.83899 0.969 0.0
C1167 C 0.20373 0.83035 0.9497 0.0
C1168 C 0.20452 0.81489 0.95261 0.0
C1169 C 0.17485 0.72976 0.04402 0.0
C1170 C 0.15734 0.71818 0.03716 0.0
C1171 C 0.1856 0.74474 0.0309 0.0
C1172 C 0.17907 0.74842 0.01072 0.0
C1173 C 0.16123 0.73771 0.00477 0.0
C1174 C 0.15041 0.72262 0.01791 0.0
C1175 C 0.19159 0.76192 0.99443 0.0
C1176 C 0.19131 0.77766 0.99125 0.0
C1177 C 0.20474 0.75963 0.98342 0.0
C1178 C 0.20516 0.74293 0.98549 0.0
C1179 C 0.19061 0.72682 0.97842 0.0
C1180 C 0.19092 0.71108 0.98087 0.0
C1181 C 0.20577 0.71129 0.99021 0.0
C1182 C 0.22037 0.72726 -0.00294 0.0
C1183 C 0.22011 0.74304 0.99469 0.0
H1184 H 0.20599 0.69909 0.9921 0.0
H1185 H 0.20133 0.85096 0.96671 0.0
H1186 H 0.4124 0.14142 0.52529 0.0
H1187 H 0.40539 0.16232 0.50658 0.0
H1188 H 0.45167 0.20568 0.53777 0.0
H1189 H 0.45825 0.18492 0.55722 0.0
H1190 H 0.42736 0.21391 0.53616 0.0
H1191 H 0.45132 0.18924 0.48122 0.0
H1192 H 0.45171 0.16512 0.45951 0.0
H1193 H 0.40087 0.15008 0.43041 0.0
H1194 H 0.40012 0.17401 0.45217 0.0
H1195 H 0.4606 0.26983 0.42677 0.0
H1196 H 0.45173 0.24205 0.44653 0.0
H1197 H 0.40975 0.2455 0.4811 0.0
H1198 H 0.41909 0.27384 0.46196 0.0
H1199 H 0.42495 0.21072 0.45011 0.0
H1200 H 0.40561 0.22956 0.53613 0.0
H1201 H 0.41054 0.25607 0.55763 0.0
H1202 H 0.46077 0.28675 0.52406 0.0
H1203 H 0.4562 0.26038 0.50259 0.0
C1204 C 0.42087 0.1554 0.52847 0.0
C1205 C 0.43599 0.16156 0.5425 0.0
C1206 C 0.41689 0.16733 0.5177 0.0
C1207 C 0.4282 0.1856 0.52037 0.0
C1208 C 0.44273 0.19167 0.53541 0.0
C1209 C 0.44654 0.17977 0.54647 0.0
C1210 C 0.42599 0.19854 0.50618 0.0
C1211 C 0.42658 0.21309 0.51735 0.0
C1212 C 0.42511 0.19759 0.48161 0.0
C1213 C 0.42556 0.18324 0.46853 0.0
C1214 C 0.44018 0.1807 0.4703 0.0
C1215 C 0.44047 0.16709 0.45798 0.0
C1216 C 0.4263 0.15604 0.44365 0.0
C1217 C 0.41182 0.15862 0.44156 0.0
C1218 C 0.41145 0.1722 0.45388 0.0
C1219 C 0.44931 0.26458 0.4383 0.0
C1220 C 0.44071 0.27415 0.44308 0.0
C1221 C 0.44418 0.24862 0.44954 0.0
C1222 C 0.43026 0.24181 0.46563 0.0
C1223 C 0.42077 0.25068 0.46912 0.0
C1224 C 0.42607 0.26683 0.4581 0.0
C1225 C 0.42698 0.22639 0.48005 0.0
C1226 C 0.42521 0.21132 0.46894 0.0
C1227 C 0.42748 0.22718 0.50464 0.0
C1228 C 0.43044 0.24308 0.51756 0.0
C1229 C 0.4177 0.24197 0.53339 0.0
C1230 C 0.42044 0.25696 0.54556 0.0
C1231 C 0.43592 0.2731 0.54214 0.0
C1232 C 0.44875 0.27426 0.52662 0.0
C1233 C 0.44609 0.2593 0.51444 0.0
H1234 H 0.43801 0.28469 0.55156 0.0
H1235 H 0.42655 0.1455 0.43412 0.0
H1236 H 0.84222 0.56165 0.01197 0.0
H1237 H 0.82308 0.57206 -0.00335 0.0
H1238 H 0.80023 0.56692 0.06471 0.0
H1239 H 0.81869 0.55545 0.07975 0.0
H1240 H 0.77548 0.55162 0.03678 0.0
H1241 H 0.82594 0.60854 0.03481 0.0
H1242 H 0.85674 0.63158 0.02726 0.0
H1243 H 0.8485 0.62192 0.95397 0.0
H1244 H 0.81772 0.59864 0.96107 0.0
H1245 H 0.71626 0.57397 0.98525 0.0
H1246 H 0.74306 0.58183 0.00756 0.0
H1247 H 0.76444 0.56781 0.94921 0.0
H1248 H 0.73763 0.55966 0.92694 0.0
H1249 H 0.79041 0.59825 0.97761 0.0
H1250 H 0.74195 0.5367 0.9835 0.0
H1251 H 0.71099 0.51445 0.99202 0.0
H1252 H 0.71638 0.53533 0.06092 0.0
H1253 H 0.74731 0.55788 0.05265 0.0
C1254 C 0.83337 0.56309 0.02376 0.0
C1255 C 0.83181 0.55762 0.04698 0.0
C1256 C 0.82251 0.56921 0.01503 0.0
C1257 C 0.81025 0.57049 0.02953 0.0
C1258 C 0.8095 0.56602 0.05312 0.0
C1259 C 0.82006 0.55948 0.06172 0.0
C1260 C 0.79673 0.57412 0.01941 0.0
C1261 C 0.7789 0.5622 0.02439 0.0
C1262 C 0.80098 0.58774 0.00294 0.0
C1263 C 0.81951 0.60176 -0.00149 0.0
C1264 C 0.83071 0.61124 0.01709 0.0
C1265 C 0.84817 0.62436 0.01288 0.0
C1266 C 0.85458 0.62819 0.99015 0.0
C1267 C 0.84352 0.61893 0.97157 0.0
C1268 C 0.82605 0.6058 0.97567 0.0
C1269 C 0.72689 0.57306 0.97694 0.0
C1270 C 0.72478 0.56597 0.95449 0.0
C1271 C 0.74218 0.57758 0.98969 0.0
C1272 C 0.75562 0.57528 0.98003 0.0
C1273 C 0.75422 0.56973 0.9569 0.0
C1274 C 0.73885 0.56497 0.94427 0.0
C1275 C 0.76956 0.57565 0.99491 0.0
C1276 C 0.78729 0.58815 0.99063 0.0
C1277 C 0.76532 0.56277 0.01233 0.0
C1278 C 0.74683 0.54908 0.01737 0.0
C1279 C 0.73648 0.53662 0.0004 0.0
C1280 C 0.71895 0.52395 0.00519 0.0
C1281 C 0.7117 0.52351 0.02697 0.0
C1282 C 0.72199 0.53571 0.04404 0.0
C1283 C 0.73952 0.54843 0.03931 0.0
H1284 H 0.69813 0.51369 0.03065 0.0
H1285 H 0.8681 0.63835 0.98693 0.0
H1286 H 0.17997 0.71979 0.43477 0.0
H1287 H 0.19919 0.74552 0.45829 0.0
H1288 H 0.15581 0.73391 0.5043 0.0
H1289 H 0.13633 0.70796 0.48076 0.0
H1290 H 0.17985 0.77156 0.49505 0.0
H1291 H 0.17999 0.71985 0.52202 0.0
H1292 H 0.18148 0.6926 0.51754 0.0
H1293 H 0.2337 0.72251 0.48905 0.0
H1294 H 0.2324 0.74992 0.49302 0.0
H1295 H 0.26274 0.80794 0.57965 0.0
H1296 H 0.23364 0.78496 0.5665 0.0
H1297 H 0.23847 0.81585 0.50561 0.0
H1298 H 0.26733 0.83903 0.51893 0.0
H1299 H 0.22911 0.76641 0.52957 0.0
H1300 H 0.19859 0.80413 0.48261 0.0
H1301 H 0.19609 0.8307 0.48865 0.0
H1302 H 0.20288 0.8279 0.56208 0.0
H1303 H 0.20516 0.80117 0.55656 0.0
C1304 C 0.17439 0.72285 0.44962 0.0
C1305 C 0.15669 0.71171 0.45609 0.0
C1306 C 0.18539 0.73757 0.46302 0.0
C1307 C 0.17893 0.74143 0.48313 0.0
C1308 C 0.16099 0.73109 0.48881 0.0
C1309 C 0.14993 0.71627 0.4754 0.0
C1310 C 0.19146 0.75509 0.49926 0.0
C1311 C 0.1906 0.7705 0.50278 0.0
C1312 C 0.2051 0.75335 0.50982 0.0
C1313 C 0.20604 0.73692 0.50767 0.0
C1314 C 0.19174 0.7206 0.51465 0.0
C1315 C 0.19256 0.70513 0.51222 0.0
C1316 C 0.20766 0.70582 0.50298 0.0
C1317 C 0.222 0.722 0.4962 0.0
C1318 C 0.22124 0.73751 0.49856 0.0
C1319 C 0.25742 0.81001 0.56373 0.0
C1320 C 0.26739 0.8252 0.55019 0.0
C1321 C 0.24079 0.79687 0.55624 0.0
C1322 C 0.23385 0.79866 0.53508 0.0
C1323 C 0.24339 0.81427 0.52218 0.0
C1324 C 0.25996 0.82747 0.52975 0.0
C1325 C 0.21801 0.78336 0.52489 0.0
C1326 C 0.21825 0.76754 0.52234 0.0
C1327 C 0.2037 0.7847 0.51562 0.0
C1328 C 0.20216 0.80069 0.51913 0.0
C1329 C 0.19945 0.80911 0.50007 0.0
C1330 C 0.19809 0.82423 0.5034 0.0
C1331 C 0.19937 0.83101 0.52573 0.0
C1332 C 0.20196 0.82267 0.54479 0.0
C1333 C 0.20331 0.80755 0.54156 0.0
H1334 H 0.19832 0.84271 0.52826 0.0
H1335 H 0.20827 0.69382 0.50111 0.0
H1336 H 0.45724 0.18849 0.92851 0.0
H1337 H 0.44949 0.2087 0.94682 0.0
H1338 H 0.40629 0.16512 0.98257 0.0
H1339 H 0.41456 0.14477 0.96493 0.0
H1340 H 0.42384 0.21493 0.94914 0.0
H1341 H 0.40217 0.17895 0.03625 0.0
H1342 H 0.40509 0.15673 0.05929 0.0
H1343 H 0.45526 0.17272 0.02737 0.0
H1344 H 0.45269 0.19513 0.00435 0.0
H1345 H 0.41854 0.27801 0.02138 0.0
H1346 H 0.40874 0.24907 0.00369 0.0
H1347 H 0.45303 0.24786 0.03487 0.0
H1348 H 0.46237 0.27621 0.05323 0.0
H1349 H 0.4265 0.21639 0.03522 0.0
H1350 H 0.45335 0.26318 0.97731 0.0
H1351 H 0.45561 0.28791 0.95401 0.0
H1352 H 0.40344 0.25432 0.92702 0.0
H1353 H 0.40083 0.22944 0.95038 0.0
C1354 C 0.44593 0.18312 0.94001 0.0
C1355 C 0.43668 0.16507 0.94555 0.0
C1356 C 0.44144 0.19472 0.95041 0.0
C1357 C 0.42748 0.18851 0.9664 0.0
C1358 C 0.41735 0.17028 0.97066 0.0
C1359 C 0.42204 0.15866 0.96051 0.0
C1360 C 0.42489 0.2015 0.97996 0.0
C1361 C 0.42414 0.2151 0.96799 0.0
C1362 C 0.42535 0.20182 0.00456 0.0
C1363 C 0.4271 0.18851 0.01839 0.0
C1364 C 0.41381 0.17771 0.0342 0.0
C1365 C 0.41541 0.1651 0.04724 0.0
C1366 C 0.43031 0.16326 0.04472 0.0
C1367 C 0.44369 0.1741 0.02924 0.0
C1368 C 0.44217 0.18675 0.01618 0.0
C1369 C 0.42599 0.2714 0.02473 0.0
C1370 C 0.44132 0.27945 0.0385 0.0
C1371 C 0.42041 0.2549 0.01456 0.0
C1372 C 0.43031 0.2464 0.01761 0.0
C1373 C 0.44513 0.2541 0.03226 0.0
C1374 C 0.45053 0.27039 0.04268 0.0
C1375 C 0.42633 0.23025 0.00435 0.0
C1376 C 0.42565 0.21597 0.0164 0.0
C1377 C 0.42525 0.22963 0.97979 0.0
C1378 C 0.42681 0.24455 0.96579 0.0
C1379 C 0.44233 0.26112 0.96652 0.0
C1380 C 0.44367 0.27515 0.95329 0.0
C1381 C 0.42965 0.2727 0.93911 0.0
C1382 C 0.41427 0.25621 0.93807 0.0
C1383 C 0.41285 0.24214 0.95129 0.0
H1384 H 0.43072 0.28358 0.92887 0.0
H1385 H 0.43152 0.15348 0.05482 0.0
H1386 H 0.14421 0.42283 0.51486 0.0
H1387 H 0.16532 0.41614 0.49613 0.0
H1388 H 0.20041 0.43819 0.55478 0.0
H1389 H 0.17959 0.4452 0.57334 0.0
H1390 H 0.21644 0.45383 0.51595 0.0
H1391 H 0.18083 0.39418 0.54162 0.0
H1392 H 0.15344 0.36563 0.54673 0.0
H1393 H 0.14813 0.35877 0.47276 0.0
H1394 H 0.17536 0.38741 0.46718 0.0
H1395 H 0.27393 0.41919 0.47225 0.0
H1396 H 0.24624 0.41186 0.49189 0.0
H1397 H 0.23753 0.44402 0.44291 0.0
H1398 H 0.26506 0.45139 0.42316 0.0
H1399 H 0.20859 0.39907 0.47909 0.0
H1400 H 0.23292 0.47326 0.47698 0.0
H1401 H 0.26087 0.50152 0.47296 0.0
H1402 H 0.28925 0.47839 0.50387 0.0
H1403 H 0.26145 0.45011 0.50842 0.0
C1404 C 0.15623 0.42585 0.524 0.0
C1405 C 0.16038 0.43476 0.54541 0.0
C1406 C 0.16825 0.42196 0.51331 0.0
C1407 C 0.18447 0.42673 0.52403 0.0
C1408 C 0.18802 0.43449 0.54615 0.0
C1409 C 0.17611 0.43849 0.55673 0.0
C1410 C 0.19869 0.42594 0.51104 0.0
C1411 C 0.21468 0.44179 0.50806 0.0
C1412 C 0.19644 0.41026 0.50069 0.0
C1413 C 0.18007 0.39303 0.50399 0.0
C1414 C 0.17374 0.38666 0.52643 0.0
C1415 C 0.15826 0.37044 0.52941 0.0
C1416 C 0.14902 0.36041 0.51008 0.0
C1417 C 0.15528 0.36656 0.48772 0.0
C1418 C 0.17076 0.38278 0.48464 0.0
C1419 C 0.26587 0.4243 0.46527 0.0
C1420 C 0.27182 0.43612 0.44642 0.0
C1421 C 0.25001 0.42001 0.47643 0.0
C1422 C 0.24001 0.42756 0.46894 0.0
C1423 C 0.24515 0.43813 0.44895 0.0
C1424 C 0.26093 0.44237 0.43776 0.0
C1425 C 0.22603 0.42694 0.48399 0.0
C1426 C 0.2102 0.41098 0.48719 0.0
C1427 C 0.22841 0.44245 0.49488 0.0
C1428 C 0.24514 0.45954 0.4928 0.0
C1429 C 0.24512 0.47425 0.48301 0.0
C1430 C 0.26093 0.49026 0.48064 0.0
C1431 C 0.27683 0.49173 0.48808 0.0
C1432 C 0.27694 0.47722 0.49803 0.0
C1433 C 0.26116 0.46119 0.5005 0.0
H1434 H 0.28906 0.50413 0.48618 0.0
H1435 H 0.13704 0.34786 0.51243 0.0
H1436 H 0.84933 0.27314 0.96461 0.0
H1437 H 0.83085 0.24428 0.98276 0.0
H1438 H 0.78525 0.23953 0.94702 0.0
H1439 H 0.80368 0.26782 0.92823 0.0
H1440 H 0.80678 0.23579 0.0123 0.0
H1441 H 0.7532 0.19922 0.93979 0.0
H1442 H 0.75236 0.19492 0.89741 0.0
H1443 H 0.80632 0.20686 0.89832 0.0
H1444 H 0.80744 0.21097 0.94075 0.0
H1445 H 0.72248 0.18833 0.05659 0.0
H1446 H 0.7506 0.20682 0.03746 0.0
H1447 H 0.74786 0.16076 0.00589 0.0
H1448 H 0.71911 0.14213 0.02437 0.0
H1449 H 0.75657 0.18398 0.97473 0.0
H1450 H 0.77996 0.18593 0.04849 0.0
H1451 H 0.78291 0.1883 0.0911 0.0
H1452 H 0.79336 0.24172 0.08792 0.0
H1453 H 0.79021 0.23961 0.04532 0.0
C1454 C 0.83543 0.26572 0.96025 0.0
C1455 C 0.82794 0.27276 0.94504 0.0
C1456 C 0.82487 0.24924 0.97066 0.0
C1457 C 0.80664 0.23958 0.96615 0.0
C1458 C 0.79932 0.24642 0.95038 0.0
C1459 C 0.80988 0.26272 0.93975 0.0
C1460 C 0.79483 0.22345 0.97972 0.0
C1461 C 0.79594 0.22435 0.00406 0.0
C1462 C 0.78109 0.20813 0.96906 0.0
C1463 C 0.78041 0.20547 0.94351 0.0
C1464 C 0.76486 0.2008 0.931 0.0
C1465 C 0.76434 0.19843 0.90694 0.0
C1466 C 0.77928 0.20064 0.89517 0.0
C1467 C 0.79477 0.2052 0.90744 0.0
C1468 C 0.79536 0.20757 0.9315 0.0
C1469 C 0.72796 0.18206 0.04588 0.0
C1470 C 0.71856 0.16377 0.04195 0.0
C1471 C 0.74417 0.19266 0.03506 0.0
C1472 C 0.75157 0.1852 0.02048 0.0
C1473 C 0.74246 0.16683 0.01711 0.0
C1474 C 0.72607 0.1562 0.02771 0.0
C1475 C 0.76792 0.19693 0.00723 0.0
C1476 C 0.76767 0.19518 0.98297 0.0
C1477 C 0.78281 0.21114 0.01798 0.0
C1478 C 0.7848 0.21258 0.04365 0.0
C1479 C 0.78279 0.19816 0.05687 0.0
C1480 C 0.78451 0.19946 0.08104 0.0
C1481 C 0.78831 0.21515 0.09221 0.0
C1482 C 0.79043 0.22958 0.07924 0.0
C1483 C 0.78872 0.22835 0.05507 0.0
H1484 H 0.78963 0.21612 0.11092 0.0
H1485 H 0.77886 0.19881 0.87655 0.0
H1486 H 0.55218 0.81957 0.41435 0.0
H1487 H 0.56088 0.79915 0.43044 0.0
H1488 H 0.56204 0.81939 0.49919 0.0
H1489 H 0.5544 0.8405 0.48297 0.0
H1490 H 0.58574 0.8102 0.49739 0.0
H1491 H 0.52431 0.78211 0.47556 0.0
H1492 H 0.4992 0.77351 0.44892 0.0
H1493 H 0.51809 0.74673 0.40517 0.0
H1494 H 0.54344 0.75537 0.43145 0.0
H1495 H 0.54832 0.73154 0.56633 0.0
H1496 H 0.55679 0.75887 0.5451 0.0
H1497 H 0.56937 0.73789 0.48496 0.0
H1498 H 0.56123 0.71062 0.50621 0.0
H1499 H 0.54295 0.7477 0.47853 0.0
H1500 H 0.60167 0.77196 0.50789 0.0
H1501 H 0.62444 0.7797 0.53798 0.0
H1502 H 0.6078 0.81265 0.57186 0.0
H1503 H 0.58474 0.8049 0.54216 0.0
C1504 C 0.55467 0.81989 0.43282 0.0
C1505 C 0.55241 0.83142 0.44748 0.0
C1506 C 0.55957 0.80817 0.44202 0.0
C1507 C 0.56161 0.80735 0.46613 0.0
C1508 C 0.56047 0.81969 0.48056 0.0
C1509 C 0.55604 0.83172 0.47128 0.0
C1510 C 0.56319 0.79267 0.4766 0.0
C1511 C 0.57636 0.79653 0.49331 0.0
C1512 C 0.5511 0.7748 0.47108 0.0
C1513 C 0.53587 0.76957 0.45529 0.0
C1514 C 0.52316 0.77449 0.46017 0.0
C1515 C 0.50889 0.7696 0.44515 0.0
C1516 C 0.50709 0.75963 0.42532 0.0
C1517 C 0.51953 0.75449 0.42051 0.0
C1518 C 0.53385 0.75937 0.43545 0.0
C1519 C 0.55331 0.73292 0.54878 0.0
C1520 C 0.55398 0.71891 0.53785 0.0
C1521 C 0.55823 0.74857 0.53673 0.0
C1522 C 0.56371 0.75036 0.51351 0.0
C1523 C 0.56525 0.73675 0.50293 0.0
C1524 C 0.56061 0.72121 0.51509 0.0
C1525 C 0.5653 0.76524 0.49949 0.0
C1526 C 0.55259 0.76138 0.48221 0.0
C1527 C 0.57749 0.78301 0.50497 0.0
C1528 C 0.59138 0.78774 0.52286 0.0
C1529 C 0.60275 0.78074 0.52186 0.0
C1530 C 0.61574 0.78515 0.53883 0.0
C1531 C 0.61755 0.79663 0.55684 0.0
C1532 C 0.60639 0.80375 0.5579 0.0
C1533 C 0.59337 0.79937 0.54098 0.0
H1534 H 0.62762 0.80004 0.56996 0.0
H1535 H 0.49602 0.75585 0.41371 0.0
H1536 H 0.393 0.46665 0.05357 0.0
H1537 H 0.40591 0.44803 0.04672 0.0
H1538 H 0.35384 0.40229 0.04142 0.0
H1539 H 0.34071 0.42088 0.04859 0.0
H1540 H 0.37477 0.3967 0.07068 0.0
H1541 H 0.3795 0.4179 0.99339 0.0
H1542 H 0.3867 0.44011 0.96265 0.0
H1543 H 0.44146 0.46574 0.98186 0.0
H1544 H 0.43457 0.44384 0.01294 0.0
H1545 H 0.41864 0.3475 0.04897 0.0
H1546 H 0.39914 0.35972 0.04253 0.0
H1547 H 0.4437 0.41245 0.04855 0.0
H1548 H 0.46322 0.40047 0.05476 0.0
H1549 H 0.42212 0.41004 0.01325 0.0
H1550 H 0.41665 0.39273 0.09424 0.0
H1551 H 0.41006 0.37166 0.12635 0.0
H1552 H 0.35715 0.33961 0.10084 0.0
H1553 H 0.36352 0.36041 0.0684 0.0
C1554 C 0.38424 0.45267 0.0507 0.0
C1555 C 0.3658 0.44525 0.05172 0.0
C1556 C 0.39166 0.44204 0.04663 0.0
C1557 C 0.38084 0.4238 0.04333 0.0
C1558 C 0.36242 0.41636 0.04384 0.0
C1559 C 0.35495 0.42701 0.04787 0.0
C1560 C 0.38893 0.4125 0.04104 0.0
C1561 C 0.3848 0.3993 0.05774 0.0
C1562 C 0.40223 0.41611 0.02441 0.0
C1563 C 0.40649 0.42925 0.00559 0.0
C1564 C 0.39307 0.42833 0.99116 0.0
C1565 C 0.3971 0.44086 0.97366 0.0
C1566 C 0.41452 0.45434 0.97032 0.0
C1567 C 0.42797 0.45529 0.98445 0.0
C1568 C 0.42401 0.4428 0.00199 0.0
C1569 C 0.4243 0.3617 0.04873 0.0
C1570 C 0.44248 0.37301 0.05255 0.0
C1571 C 0.41313 0.36864 0.04509 0.0
C1572 C 0.41997 0.38698 0.04524 0.0
C1573 C 0.43816 0.39826 0.04833 0.0
C1574 C 0.44929 0.39136 0.05201 0.0
C1575 C 0.40827 0.39464 0.04326 0.0
C1576 C 0.41176 0.40715 0.02579 0.0
C1577 C 0.39446 0.39048 0.05926 0.0
C1578 C 0.39063 0.37799 0.07874 0.0
C1579 C 0.40366 0.38111 0.09537 0.0
C1580 C 0.39996 0.36923 0.11365 0.0
C1581 C 0.38322 0.35427 0.11558 0.0
C1582 C 0.37013 0.35118 0.09929 0.0
C1583 C 0.37377 0.36301 0.08096 0.0
H1584 H 0.38037 0.3451 0.12975 0.0
H1585 H 0.41761 0.46403 0.95677 0.0
H1586 H 0.0702 0.415 0.55948 0.0
H1587 H 0.03805 0.39649 0.55593 0.0
H1588 H 0.03189 0.44036 0.57731 0.0
H1589 H 0.06377 0.45883 0.58106 0.0
H1590 H 0.00944 0.41034 0.60021 0.0
H1591 H 0.02825 0.42839 0.52079 0.0
H1592 H 0.04505 0.43095 0.48519 0.0
H1593 H 0.02019 0.37449 0.48113 0.0
H1594 H 0.0034 0.37161 0.51691 0.0
H1595 H 0.92709 0.39485 0.56564 0.0
H1596 H 0.95881 0.4063 0.56587 0.0
H1597 H 0.95038 0.35442 0.55042 0.0
H1598 H 0.91834 0.34266 0.55022 0.0
H1599 H 0.97959 0.38333 0.52568 0.0
H1600 H 0.95823 0.36539 0.60292 0.0
H1601 H 0.94096 0.36318 0.63787 0.0
H1602 H 0.97057 0.41949 0.646 0.0
H1603 H 0.98783 0.42207 0.61087 0.0
C1604 C 0.06199 0.4207 0.56342 0.0
C1605 C 0.06957 0.43841 0.57055 0.0
C1606 C 0.04364 0.41012 0.56131 0.0
C1607 C 0.03261 0.41709 0.56629 0.0
C1608 C 0.04016 0.43471 0.57346 0.0
C1609 C 0.05842 0.44527 0.57551 0.0
C1610 C 0.01316 0.40618 0.56427 0.0
C1611 C 0.00293 0.40449 0.58389 0.0
C1612 C 0.00467 0.39806 0.54316 0.0
C1613 C 0.01475 0.3998 0.52167 0.0
C1614 C 0.02649 0.41653 0.51242 0.0
C1615 C 0.03598 0.41804 0.49219 0.0
C1616 C 0.03373 0.4029 0.48095 0.0
C1617 C 0.02194 0.38621 0.48988 0.0
C1618 C 0.01244 0.38463 0.51013 0.0
C1619 C 0.93189 0.38584 0.562 0.0
C1620 C 0.92012 0.36777 0.55817 0.0
C1621 C 0.95005 0.39243 0.56218 0.0
C1622 C 0.95686 0.38114 0.55851 0.0
C1623 C 0.94531 0.3633 0.55339 0.0
C1624 C 0.92703 0.35662 0.55332 0.0
C1625 C 0.97601 0.38803 0.56142 0.0
C1626 C 0.98614 0.38892 0.54206 0.0
C1627 C 0.98446 0.39542 0.58279 0.0
C1628 C 0.97425 0.39393 0.60414 0.0
C1629 C 0.96098 0.37732 0.61205 0.0
C1630 C 0.9512 0.37599 0.63192 0.0
C1631 C 0.95464 0.39119 0.64412 0.0
C1632 C 0.96791 0.40773 0.63652 0.0
C1633 C 0.97771 0.40913 0.61665 0.0
H1634 H 0.94704 0.39015 0.65948 0.0
H1635 H 0.04109 0.40409 0.46528 0.0
H1636 H 0.57436 0.92122 0.05225 0.0
H1637 H 0.59342 0.95313 0.04683 0.0
H1638 H 0.54952 0.96084 0.06267 0.0
H1639 H 0.53045 0.9292 0.06774 0.0
H1640 H 0.56744 0.98013 0.02589 0.0
H1641 H 0.58156 0.96806 0.10314 0.0
H1642 H 0.59195 0.95375 0.13092 0.0
H1643 H 0.64166 0.97609 0.09527 0.0
H1644 H 0.63147 0.99036 0.06709 0.0
H1645 H 0.59752 0.06482 0.06827 0.0
H1646 H 0.58537 0.03333 0.06245 0.0
H1647 H 0.63722 0.04201 0.04586 0.0
H1648 H 0.6497 0.07382 0.05204 0.0
H1649 H 0.61987 0.01468 0.07601 0.0
H1650 H 0.60711 0.03116 0.00298 0.0
H1651 H 0.59657 0.04599 0.97634 0.0
H1652 H 0.54421 0.01564 0.00422 0.0
H1653 H 0.55447 0.00079 0.03126 0.0
C1654 C 0.56878 0.92972 0.05451 0.0
C1655 C 0.55088 0.92263 0.0605 0.0
C1656 C 0.57969 0.94795 0.05146 0.0
C1657 C 0.5729 0.95937 0.05447 0.0
C1658 C 0.55503 0.95228 0.06016 0.0
C1659 C 0.54415 0.93415 0.06316 0.0
C1660 C 0.58425 0.97879 0.05219 0.0
C1661 C 0.57889 0.9877 0.03687 0.0
C1662 C 0.59956 0.98862 0.06591 0.0
C1663 C 0.60567 0.98008 0.08286 0.0
C1664 C 0.59465 0.9698 0.10112 0.0
C1665 C 0.60051 0.96172 0.11696 0.0
C1666 C 0.61743 0.96396 0.11481 0.0
C1667 C 0.62855 0.97433 0.09687 0.0
C1668 C 0.62274 0.98242 0.08097 0.0
C1669 C 0.60641 0.06014 0.06326 0.0
C1670 C 0.62461 0.0719 0.06058 0.0
C1671 C 0.59939 0.04209 0.0598 0.0
C1672 C 0.61034 0.03534 0.05337 0.0
C1673 C 0.62853 0.04698 0.05069 0.0
C1674 C 0.63562 0.06513 0.05417 0.0
C1675 C 0.60262 0.01603 0.05038 0.0
C1676 C 0.60867 0.00713 0.06463 0.0
C1677 C 0.58791 0.00618 0.0357 0.0
C1678 C 0.5816 0.01491 0.01923 0.0
C1679 C 0.59337 0.02771 0.00352 0.0
C1680 C 0.58744 0.03612 0.98833 0.0
C1681 C 0.56974 0.03178 0.9886 0.0
C1682 C 0.55792 0.01898 0.00402 0.0
C1683 C 0.56378 0.01054 0.01925 0.0
H1684 H 0.56518 0.03832 0.97685 0.0
H1685 H 0.62195 0.9577 0.12709 0.0
H1686 H 0.64779 0.57548 0.56024 0.0
H1687 H 0.63375 0.59349 0.55549 0.0
H1688 H 0.58289 0.54794 0.56971 0.0
H1689 H 0.5967 0.52986 0.57436 0.0
H1690 H 0.58168 0.56703 0.53292 0.0
H1691 H 0.60465 0.57785 0.61144 0.0
H1692 H 0.62802 0.58705 0.64105 0.0
H1693 H 0.6563 0.63858 0.6102 0.0
H1694 H 0.63319 0.6296 0.58021 0.0
H1695 H 0.52609 0.59786 0.57193 0.0
H1696 H 0.5448 0.58476 0.56748 0.0
H1697 H 0.58983 0.63623 0.55449 0.0
H1698 H 0.57117 0.64958 0.55914 0.0
H1699 H 0.59726 0.61751 0.58582 0.0
H1700 H 0.57199 0.60771 0.51031 0.0
H1701 H 0.54825 0.59844 0.48127 0.0
H1702 H 0.52416 0.54512 0.50624 0.0
H1703 H 0.54762 0.55411 0.53566 0.0
C1704 C 0.63361 0.56928 0.56226 0.0
C1705 C 0.62338 0.55124 0.5678 0.0
C1706 C 0.62562 0.5796 0.55958 0.0
C1707 C 0.6073 0.57205 0.56239 0.0
C1708 C 0.59705 0.554 0.56743 0.0
C1709 C 0.605 0.54371 0.5702 0.0
C1710 C 0.59869 0.58291 0.56071 0.0
C1711 C 0.58502 0.57803 0.54453 0.0
C1712 C 0.60344 0.59758 0.5754 0.0
C1713 C 0.61732 0.60298 0.59342 0.0
C1714 C 0.61594 0.59109 0.61085 0.0
C1715 C 0.62911 0.59628 0.62773 0.0
C1716 C 0.64367 0.61337 0.62746 0.0
C1717 C 0.64504 0.62533 0.61036 0.0
C1718 C 0.6319 0.6202 0.59342 0.0
C1719 C 0.53995 0.60644 0.56802 0.0
C1720 C 0.54713 0.62479 0.56589 0.0
C1721 C 0.55061 0.5989 0.56535 0.0
C1722 C 0.56866 0.6095 0.56038 0.0
C1723 C 0.57591 0.62782 0.55823 0.0
C1724 C 0.56522 0.6354 0.56083 0.0
C1725 C 0.57993 0.60135 0.5584 0.0
C1726 C 0.59411 0.60673 0.57388 0.0
C1727 C 0.57564 0.58713 0.54307 0.0
C1728 C 0.56152 0.58162 0.5253 0.0
C1729 C 0.56157 0.59403 0.50972 0.0
C1730 C 0.54816 0.58882 0.49317 0.0
C1731 C 0.53468 0.57121 0.49194 0.0
C1732 C 0.5346 0.55876 0.50722 0.0
C1733 C 0.54797 0.5639 0.52382 0.0
H1734 H 0.52432 0.56721 0.47912 0.0
H1735 H 0.65385 0.61736 0.64054 0.0
H1736 H 0.918 0.57089 0.05536 0.0
H1737 H 0.95017 0.59006 0.05499 0.0
H1738 H 0.95638 0.54631 0.07681 0.0
H1739 H 0.92444 0.52712 0.07724 0.0
H1740 H 0.97562 0.57621 0.10351 0.0
H1741 H 0.9648 0.56025 0.02209 0.0
H1742 H 0.95109 0.55807 0.98388 0.0
H1743 H 0.97384 0.61439 0.98201 0.0
H1744 H 0.9875 0.61687 0.02038 0.0
H1745 H 0.06328 0.5994 0.08403 0.0
H1746 H 0.03129 0.58593 0.08236 0.0
H1747 H 0.03661 0.63513 0.05863 0.0
H1748 H 0.06884 0.64881 0.06007 0.0
H1749 H 0.0115 0.60666 0.03395 0.0
H1750 H 0.02481 0.62326 0.11312 0.0
H1751 H 0.03871 0.62595 0.1513 0.0
H1752 H 0.0112 0.56952 0.15809 0.0
H1753 H -0.00266 0.56647 0.11977 0.0
C1754 C 0.92622 0.56531 0.05986 0.0
C1755 C 0.91862 0.54747 0.06639 0.0
C1756 C 0.94459 0.57628 0.05962 0.0
C1757 C 0.95561 0.56958 0.06593 0.0
C1758 C 0.94808 0.55174 0.072 0.0
C1759 C 0.92979 0.54077 0.07213 0.0
C1760 C 0.97502 0.58113 0.06697 0.0
C1761 C 0.98349 0.58278 0.08828 0.0
C1762 C 0.98517 0.59022 0.04727 0.0
C1763 C 0.97698 0.58873 0.02422 0.0
C1764 C 0.96674 0.57215 0.01362 0.0
C1765 C 0.95901 0.57087 0.99192 0.0
C1766 C 0.96154 0.58608 0.98056 0.0
C1767 C 0.97186 0.60262 0.99085 0.0
C1768 C 0.97961 0.60397 0.01257 0.0
C1769 C 0.05772 0.60742 0.07844 0.0
C1770 C 0.06866 0.62523 0.07229 0.0
C1771 C 0.0394 0.59969 0.07758 0.0
C1772 C 0.0316 0.60961 0.07067 0.0
C1773 C 0.04241 0.62729 0.0641 0.0
C1774 C 0.0608 0.63508 0.065 0.0
C1775 C 0.01212 0.60128 0.07036 0.0
C1776 C 0.00363 0.60029 0.04926 0.0
C1777 C 0.0019 0.59289 0.09031 0.0
C1778 C 0.01012 0.59464 0.11347 0.0
C1779 C 0.02182 0.61142 0.12267 0.0
C1780 C 0.02968 0.61301 0.14435 0.0
C1781 C 0.02587 0.59792 0.15709 0.0
C1782 C 0.01415 0.5812 0.1482 0.0
C1783 C 0.00627 0.57953 0.1265 0.0
H1784 H 0.03197 0.59918 0.17388 0.0
H1785 H 0.95555 0.58506 0.96376 0.0
H1786 H 0.40509 0.06965 0.54795 0.0
H1787 H 0.38353 0.03902 0.53775 0.0
H1788 H 0.42565 0.02709 0.53204 0.0
H1789 H 0.44714 0.05744 0.5421 0.0
H1790 H 0.4003 0.01076 0.49777 0.0
H1791 H 0.40351 0.01993 0.58224 0.0
H1792 H 0.40045 0.03396 0.61774 0.0
H1793 H 0.34623 0.016 0.60079 0.0
H1794 H 0.34907 0.00204 0.56502 0.0
H1795 H 0.3833 0.92919 0.53722 0.0
H1796 H 0.39167 0.95947 0.5278 0.0
H1797 H 0.33782 0.9473 0.53763 0.0
H1798 H 0.32927 0.91674 0.54732 0.0
H1799 H 0.36055 0.97576 0.56229 0.0
H1800 H 0.35585 0.95879 0.48391 0.0
H1801 H 0.35919 0.94422 0.44923 0.0
H1802 H 0.4156 0.97621 0.45402 0.0
H1803 H 0.41264 0.99081 0.48895 0.0
C1804 C 0.40976 0.06055 0.54416 0.0
C1805 C 0.42779 0.06589 0.54612 0.0
C1806 C 0.39743 0.04309 0.53835 0.0
C1807 C 0.40301 0.0308 0.53429 0.0
C1808 C 0.42108 0.03638 0.53504 0.0
C1809 C 0.43333 0.05371 0.54099 0.0
C1810 C 0.39022 0.01175 0.53148 0.0
C1811 C 0.39148 0.00305 0.51175 0.0
C1812 C 0.37826 0.00183 0.54937 0.0
C1813 C 0.37657 0.01017 0.57085 0.0
C1814 C 0.39099 0.0191 0.58601 0.0
C1815 C 0.38928 0.02701 0.60618 0.0
C1816 C 0.37317 0.02593 0.61147 0.0
C1817 C 0.35871 0.01687 0.59663 0.0
C1818 C 0.36036 0.00896 0.57642 0.0
C1819 C 0.37314 0.93282 0.53708 0.0
C1820 C 0.35564 0.92058 0.5432 0.0
C1821 C 0.37793 0.95014 0.53145 0.0
C1822 C 0.36533 0.95561 0.53175 0.0
C1823 C 0.34771 0.9433 0.53714 0.0
C1824 C 0.34286 0.92586 0.54266 0.0
C1825 C 0.37127 0.97462 0.52905 0.0
C1826 C 0.36876 0.98337 0.54779 0.0
C1827 C 0.38207 0.98456 0.51022 0.0
C1828 C 0.384 0.97588 0.48913 0.0
C1829 C 0.36898 0.96266 0.47767 0.0
C1830 C 0.37081 0.9544 0.45794 0.0
C1831 C 0.3876 0.95928 0.44943 0.0
C1832 C 0.4026 0.97246 0.46062 0.0
C1833 C 0.40085 0.98076 0.48036 0.0
H1834 H 0.38899 0.95287 0.43416 0.0
H1835 H 0.37187 0.03206 0.6271 0.0
H1836 H 0.57137 0.64838 0.9371 0.0
H1837 H 0.59021 0.63513 0.94038 0.0
H1838 H 0.54725 0.58535 0.91649 0.0
H1839 H 0.52832 0.59828 0.91356 0.0
H1840 H 0.56383 0.58033 0.95182 0.0
H1841 H 0.58068 0.61343 0.88001 0.0
H1842 H 0.59133 0.64015 0.85587 0.0
H1843 H 0.63956 0.66573 0.89505 0.0
H1844 H 0.62908 0.63922 0.91962 0.0
H1845 H 0.6035 0.53373 0.90862 0.0
H1846 H 0.5883 0.55051 0.91276 0.0
H1847 H 0.63626 0.59529 0.93795 0.0
H1848 H 0.65178 0.57865 0.93345 0.0
H1849 H 0.61954 0.60505 0.90671 0.0
H1850 H 0.60345 0.56972 0.97555 0.0
H1851 H 0.59269 0.54204 -0.0024 0.0
H1852 H 0.54266 0.51988 0.96276 0.0
H1853 H 0.55321 0.54733 0.94023 0.0
C1854 C 0.56592 0.63459 0.93264 0.0
C1855 C 0.54835 0.62443 0.92496 0.0
C1856 C 0.57672 0.62706 0.93447 0.0
C1857 C 0.57018 0.60929 0.92847 0.0
C1858 C 0.55257 0.59907 0.92125 0.0
C1859 C 0.54178 0.60654 0.9195 0.0
C1860 C 0.58164 0.60128 0.92909 0.0
C1861 C 0.57597 0.58569 0.94188 0.0
C1862 C 0.59771 0.60851 0.91658 0.0
C1863 C 0.60401 0.62443 0.90182 0.0
C1864 C 0.59349 0.62481 0.88359 0.0
C1865 C 0.59951 0.6399 0.86982 0.0
C1866 C 0.61608 0.65465 0.87398 0.0
C1867 C 0.6267 0.65431 0.89189 0.0
C1868 C 0.62074 0.63926 0.90574 0.0
C1869 C 0.61087 0.54715 0.91505 0.0
C1870 C 0.62886 0.55482 0.92081 0.0
C1871 C 0.60212 0.55669 0.9175 0.0
C1872 C 0.61107 0.57404 0.92604 0.0
C1873 C 0.62909 0.58188 0.93145 0.0
C1874 C 0.63792 0.57234 0.9289 0.0
C1875 C 0.60152 0.58392 0.92903 0.0
C1876 C 0.60756 0.59985 0.91696 0.0
C1877 C 0.58573 0.57694 0.94211 0.0
C1878 C 0.57917 0.56057 0.9561 0.0
C1879 C 0.59018 0.55892 0.97252 0.0
C1880 C 0.58412 0.54326 0.9851 0.0
C1881 C 0.56701 0.5292 0.98156 0.0
C1882 C 0.55591 0.53078 0.96549 0.0
C1883 C 0.56191 0.5464 0.95283 0.0
H1884 H 0.56236 0.51707 0.99127 0.0
H1885 H 0.62072 0.66632 0.86329 0.0
H1886 H 0.91633 0.57057 0.44401 0.0
H1887 H 0.94838 0.58901 0.44808 0.0
H1888 H 0.95409 0.54327 0.43775 0.0
H1889 H 0.92219 0.52475 0.43407 0.0
H1890 H 0.97647 0.56446 0.4705 0.0
H1891 H 0.95899 0.5709 0.39285 0.0
H1892 H 0.94259 0.57815 0.36422 0.0
H1893 H 0.96662 0.63104 0.39078 0.0
H1894 H 0.98299 0.62401 0.41979 0.0
H1895 H 0.05959 0.59354 0.42055 0.0
H1896 H 0.02813 0.58062 0.42831 0.0
H1897 H 0.0354 0.63245 0.4409 0.0
H1898 H 0.06707 0.6456 0.43306 0.0
H1899 H 0.007 0.61211 0.41221 0.0
H1900 H 0.02822 0.60621 0.486 0.0
H1901 H 0.045 0.59839 0.51322 0.0
H1902 H 0.01428 0.544 0.49299 0.0
H1903 H -0.00252 0.55152 0.46537 0.0
C1904 C 0.92438 0.56439 0.44295 0.0
C1905 C 0.9167 0.54621 0.43845 0.0
C1906 C 0.9427 0.57497 0.44519 0.0
C1907 C 0.95362 0.56755 0.44286 0.0
C1908 C 0.94591 0.54928 0.43956 0.0
C1909 C 0.92765 0.53872 0.43736 0.0
C1910 C 0.97312 0.57877 0.44239 0.0
C1911 C 0.98316 0.57486 0.45774 0.0
C1912 C 0.98183 0.59263 0.42611 0.0
C1913 C 0.97203 0.59687 0.40867 0.0
C1914 C 0.96066 0.58403 0.3927 0.0
C1915 C 0.95139 0.58811 0.37639 0.0
C1916 C 0.95351 0.60503 0.37574 0.0
C1917 C 0.96496 0.61793 0.39135 0.0
C1918 C 0.97423 0.61391 0.40772 0.0
C1919 C 0.05456 0.60224 0.42498 0.0
C1920 C 0.06587 0.62062 0.42621 0.0
C1921 C 0.03657 0.59481 0.42955 0.0
C1922 C 0.0295 0.60557 0.43549 0.0
C1923 C 0.04066 0.62393 0.43648 0.0
C1924 C 0.05873 0.6314 0.43202 0.0
C1925 C 0.01032 0.59749 0.43993 0.0
C1926 C 0.00034 0.60198 0.42532 0.0
C1927 C 0.00167 0.58408 0.45678 0.0
C1928 C 0.01166 0.57946 0.4735 0.0
C1929 C 0.02512 0.5926 0.48723 0.0
C1930 C 0.03463 0.58822 0.50275 0.0
C1931 C 0.03073 0.57072 0.50481 0.0
C1932 C 0.01729 0.55755 0.49137 0.0
C1933 C 0.00775 0.56186 0.47581 0.0
H1934 H 0.03811 0.56735 0.51683 0.0
H1935 H 0.94633 0.60816 0.36309 0.0
H1936 H 0.41299 0.0724 0.93376 0.0
H1937 H 0.39378 0.04032 0.93736 0.0
H1938 H 0.43964 0.03403 0.93925 0.0
H1939 H 0.45879 0.06577 0.93544 0.0
H1940 H 0.41633 0.01344 0.90672 0.0
H1941 H 0.4148 0.02811 0.9875 0.0
H1942 H 0.40902 0.04308 0.01974 0.0
H1943 H 0.35441 0.01837 2e-05 0.0
H1944 H 0.35992 0.00343 0.96744 0.0
H1945 H 0.38961 0.92784 0.93913 0.0
H1946 H 0.40204 0.95963 0.94206 0.0
H1947 H 0.35 0.95319 0.93563 0.0
H1948 H 0.33728 0.92108 0.93288 0.0
H1949 H 0.37223 0.97991 0.96803 0.0
H1950 H 0.3733 0.96371 0.88901 0.0
H1951 H 0.37894 0.94843 0.85704 0.0
H1952 H 0.43432 0.97633 0.87313 0.0
H1953 H 0.42897 0.99158 0.90544 0.0
C1954 C 0.41896 0.06418 0.93527 0.0
C1955 C 0.43741 0.07162 0.93405 0.0
C1956 C 0.40797 0.04588 0.93737 0.0
C1957 C 0.41531 0.03481 0.93848 0.0
C1958 C 0.43371 0.04232 0.93824 0.0
C1959 C 0.44464 0.06049 0.93606 0.0
C1960 C 0.40406 0.01534 0.93819 0.0
C1961 C 0.40679 0.00613 0.92024 0.0
C1962 C 0.39111 0.00584 0.95531 0.0
C1963 C 0.38782 0.01483 0.97487 0.0
C1964 C 0.40159 0.026 0.9899 0.0
C1965 C 0.39836 0.03445 0.00827 0.0
C1966 C 0.38137 0.03173 0.01188 0.0
C1967 C 0.36757 0.0205 -0.00283 0.0
C1968 C 0.37074 0.01203 0.97876 0.0
C1969 C 0.38072 0.93309 0.93859 0.0
C1970 C 0.36247 0.92193 0.93541 0.0
C1971 C 0.38787 0.95128 0.94029 0.0
C1972 C 0.37696 0.95874 0.93867 0.0
C1973 C 0.35862 0.94764 0.93684 0.0
C1974 C 0.35141 0.92934 0.9352 0.0
C1975 C 0.38507 0.97814 0.93708 0.0
C1976 C 0.38166 0.98729 0.95444 0.0
C1977 C 0.3974 0.98769 0.91936 0.0
C1978 C 0.40071 0.9787 0.89975 0.0
C1979 C 0.38667 0.9665 0.88583 0.0
C1980 C 0.38981 0.95785 0.86764 0.0
C1981 C 0.40697 0.96138 0.86308 0.0
C1982 C 0.42103 0.9736 0.87668 0.0
C1983 C 0.41795 0.98227 0.89492 0.0
H1984 H 0.40938 0.95467 0.84899 0.0
H1985 H 0.3789 0.03828 0.02611 0.0
H1986 H 0.39483 0.463 0.43251 0.0
H1987 H 0.40777 0.4441 0.43546 0.0
H1988 H 0.35586 0.39827 0.44126 0.0
H1989 H 0.34261 0.4172 0.43835 0.0
H1990 H 0.38257 0.39782 0.47097 0.0
H1991 H 0.37259 0.4051 0.39119 0.0
H1992 H 0.37324 0.4217 0.35623 0.0
H1993 H 0.42989 0.45132 0.35902 0.0
H1994 H 0.42956 0.43509 0.39424 0.0
H1995 H 0.42095 0.34387 0.43694 0.0
H1996 H 0.40151 0.35641 0.44124 0.0
H1997 H 0.44604 0.40868 0.43111 0.0
H1998 H 0.46545 0.39642 0.42676 0.0
H1999 H 0.41839 0.40142 0.40214 0.0
H2000 H 0.42803 0.39564 0.48374 0.0
H2001 H 0.42733 0.37925 0.51895 0.0
H2002 H 0.37112 0.34631 0.51238 0.0
H2003 H 0.37152 0.36237 0.47691 0.0
C2004 C 0.38609 0.44894 0.43469 0.0
C2005 C 0.36765 0.44159 0.43485 0.0
C2006 C 0.39354 0.43816 0.4364 0.0
C2007 C 0.38274 0.4198 0.43822 0.0
C2008 C 0.36438 0.41243 0.43979 0.0
C2009 C 0.35685 0.42326 0.43806 0.0
C2010 C 0.39083 0.40851 0.43659 0.0
C2011 C 0.39014 0.39829 0.45578 0.0
C2012 C 0.40075 0.40926 0.4168 0.0
C2013 C 0.40104 0.41896 0.39547 0.0
C2014 C 0.38518 0.41524 0.38446 0.0
C2015 C 0.38549 0.42457 0.36458 0.0
C2016 C 0.40159 0.43758 0.35544 0.0
C2017 C 0.41742 0.44125 0.36613 0.0
C2018 C 0.41718 0.43197 0.38604 0.0
C2019 C 0.42663 0.35805 0.4359 0.0
C2020 C 0.44474 0.36912 0.4313 0.0
C2021 C 0.41551 0.36518 0.43841 0.0
C2022 C 0.42236 0.38345 0.4364 0.0
C2023 C 0.44049 0.39452 0.43257 0.0
C2024 C 0.45157 0.38746 0.43013 0.0
C2025 C 0.41069 0.3912 0.43683 0.0
C2026 C 0.41064 0.4007 0.41725 0.0
C2027 C 0.40008 0.38969 0.45621 0.0
C2028 C 0.39984 0.38005 0.47752 0.0
C2029 C 0.41554 0.38479 0.48967 0.0
C2030 C 0.4152 0.37559 0.50971 0.0
C2031 C 0.3992 0.36171 0.51785 0.0
C2032 C 0.38351 0.35704 0.50602 0.0
C2033 C 0.38379 0.36619 0.48596 0.0
H2034 H 0.39896 0.35461 0.53337 0.0
H2035 H 0.40181 0.44479 0.34004 0.0
H2036 H 0.06775 0.41667 0.93642 0.0
H2037 H 0.0359 0.3983 0.94281 0.0
H2038 H 0.02974 0.44384 0.93345 0.0
H2039 H 0.06144 0.46229 0.92718 0.0
H2040 H 0.01071 0.4236 0.97059 0.0
H2041 H 0.02056 0.41511 0.88981 0.0
H2042 H 0.03394 0.40682 0.85809 0.0
H2043 H 0.01194 0.3546 0.88645 0.0
H2044 H -0.00139 0.36268 0.91853 0.0
H2045 H 0.92446 0.39544 0.9337 0.0
H2046 H 0.95599 0.40773 0.93972 0.0
H2047 H 0.94843 0.35523 0.94583 0.0
H2048 H 0.91667 0.3427 0.93944 0.0
H2049 H 0.97445 0.37486 0.91594 0.0
H2050 H 0.96038 0.38208 0.99321 0.0
H2051 H 0.94668 0.3904 0.02445 0.0
H2052 H 0.97627 0.44466 0.00324 0.0
H2053 H 0.98998 0.43665 0.97164 0.0
C2054 C 0.05962 0.42279 0.93579 0.0
C2055 C 0.06714 0.44094 0.93115 0.0
C2056 C 0.04144 0.41226 0.93942 0.0
C2057 C 0.03048 0.41971 0.93849 0.0
C2058 C 0.03798 0.43786 0.93431 0.0
C2059 C 0.05611 0.44836 0.93059 0.0
C2060 C 0.0111 0.40866 0.94113 0.0
C2061 C 0.00274 0.41297 0.95863 0.0
C2062 C 0.0008 0.39441 0.92599 0.0
C2063 C 0.00879 0.38956 0.90671 0.0
C2064 C 0.01871 0.40191 0.88939 0.0
C2065 C 0.02626 0.39724 0.87132 0.0
C2066 C 0.02384 0.38021 0.8703 0.0
C2067 C 0.01383 0.3678 0.8873 0.0
C2068 C 0.00627 0.37241 0.90542 0.0
C2069 C 0.92941 0.38645 0.93659 0.0
C2070 C 0.91802 0.36807 0.93597 0.0
C2071 C 0.94747 0.39352 0.9402 0.0
C2072 C 0.95455 0.3824 0.94346 0.0
C2073 C 0.94321 0.36404 0.94343 0.0
C2074 C 0.92507 0.35692 0.93984 0.0
C2075 C 0.97396 0.39012 0.94502 0.0
C2076 C 0.98237 0.38521 0.92829 0.0
C2077 C 0.9843 0.4038 0.96089 0.0
C2078 C 0.97615 0.40873 0.97995 0.0
C2079 C 0.96389 0.39578 0.99509 0.0
C2080 C 0.95613 0.40044 0.01289 0.0
C2081 C 0.96058 0.41804 0.01581 0.0
C2082 C 0.97284 0.43103 0.00096 0.0
C2083 C 0.98063 0.42644 0.98312 0.0
H2084 H 0.95456 0.42163 0.02959 0.0
H2085 H 0.02969 0.37662 0.8563 0.0
H2086 H 0.57093 0.91939 0.43947 0.0
H2087 H 0.59094 0.95137 0.44246 0.0
H2088 H 0.54927 0.96038 0.41896 0.0
H2089 H 0.52928 0.9287 0.41596 0.0
H2090 H 0.58046 0.97976 0.39467 0.0
H2091 H 0.56064 0.9656 0.47465 0.0
H2092 H 0.55668 0.95029 0.51203 0.0
H2093 H 0.61281 0.97247 0.51791 0.0
H2094 H 0.61707 0.98774 0.48038 0.0
H2095 H 0.59799 0.06398 0.42053 0.0
H2096 H 0.5861 0.03226 0.42224 0.0
H2097 H 0.63711 0.04036 0.44248 0.0
H2098 H 0.64934 0.07247 0.44076 0.0
H2099 H 0.60724 0.01254 0.46762 0.0
H2100 H 0.62729 0.02979 0.3901 0.0
H2101 H 0.63123 0.04546 0.35304 0.0
H2102 H 0.57512 0.01739 0.34224 0.0
H2103 H 0.57082 0.00175 0.37943 0.0
C2104 C 0.566 0.92819 0.43509 0.0
C2105 C 0.54851 0.92147 0.42738 0.0
C2106 C 0.57745 0.94644 0.43686 0.0
C2107 C 0.57157 0.9582 0.43088 0.0
C2108 C 0.55407 0.95151 0.42355 0.0
C2109 C 0.54264 0.93336 0.42192 0.0
C2110 C 0.58359 0.97754 0.43139 0.0
C2111 C 0.58629 0.98693 0.41063 0.0
C2112 C 0.59172 0.9868 0.45207 0.0
C2113 C 0.58915 0.97761 0.47458 0.0
C2114 C 0.57212 0.96707 0.4838 0.0
C2115 C 0.56983 0.95843 0.50504 0.0
C2116 C 0.58448 0.96035 0.5173 0.0
C2117 C 0.60147 0.97096 0.50837 0.0
C2118 C 0.60383 0.97961 0.48713 0.0
C2119 C 0.60674 0.05913 0.42553 0.0
C2120 C 0.62469 0.07082 0.4303 0.0
C2121 C 0.5999 0.04096 0.42647 0.0
C2122 C 0.61079 0.03401 0.43219 0.0
C2123 C 0.62853 0.04552 0.43794 0.0
C2124 C 0.63548 0.06383 0.43689 0.0
C2125 C 0.60349 0.0147 0.43106 0.0
C2126 C 0.60172 0.00533 0.4516 0.0
C2127 C 0.59623 0.00539 0.41014 0.0
C2128 C 0.59873 0.01467 0.38765 0.0
C2129 C 0.61578 0.02705 0.37992 0.0
C2130 C 0.61808 0.03591 0.35887 0.0
C2131 C 0.60343 0.03244 0.34531 0.0
C2132 C 0.58646 0.02007 0.35276 0.0
C2133 C 0.58408 0.01118 0.37381 0.0
H2134 H 0.60524 0.03931 0.32901 0.0
H2135 H 0.58268 0.95366 0.53374 0.0
H2136 H 0.46291 0.62483 0.92882 0.0
H2137 H 0.43539 0.60247 0.94639 0.0
H2138 H 0.46011 0.615 0.01395 0.0
H2139 H 0.48798 0.63705 -0.00374 0.0
H2140 H 0.44295 0.58114 0.00849 0.0
H2141 H 0.42823 0.62627 -0.0028 0.0
H2142 H 0.42505 0.64894 0.97582 0.0
H2143 H 0.38856 0.60947 0.92873 0.0
H2144 H 0.39171 0.58658 0.94963 0.0
H2145 H 0.36388 0.52799 0.06923 0.0
H2146 H 0.38818 0.55545 0.05387 0.0
H2147 H 0.37199 0.53655 0.98399 0.0
H2148 H 0.34766 0.50882 -0.00078 0.0
H2149 H 0.38416 0.57461 0.99254 0.0
H2150 H 0.4013 0.53021 0.00309 0.0
H2151 H 0.40386 0.50778 0.02603 0.0
H2152 H 0.43579 0.54713 0.07638 0.0
H2153 H 0.43314 0.56974 0.05393 0.0
C2154 C 0.46246 0.62297 0.94746 0.0
C2155 C 0.47762 0.63268 0.96118 0.0
C2156 C 0.44665 0.61024 0.95752 0.0
C2157 C 0.44557 0.60719 0.98156 0.0
C2158 C 0.46062 0.61714 -0.00464 0.0
C2159 C 0.47652 0.62975 0.98526 0.0
C2160 C 0.42908 0.59282 0.99197 0.0
C2161 C 0.43016 0.57996 0.00532 0.0
C2162 C 0.41229 0.591 0.98749 0.0
C2163 C 0.41033 0.60472 0.97489 0.0
C2164 C 0.41963 0.62244 0.98218 0.0
C2165 C 0.41781 0.63533 0.97016 0.0
C2166 C 0.40664 0.63065 0.9509 0.0
C2167 C 0.39723 0.61307 0.94364 0.0
C2168 C 0.399 0.60013 0.95559 0.0
C2169 C 0.36526 0.52977 0.05058 0.0
C2170 C 0.35399 0.51616 0.03541 0.0
C2171 C 0.37914 0.54547 0.04186 0.0
C2172 C 0.3819 0.54789 0.01785 0.0
C2173 C 0.37001 0.53487 0.00259 0.0
C2174 C 0.35619 0.51904 0.01131 0.0
C2175 C 0.39821 0.56316 0.00886 0.0
C2176 C 0.39704 0.57604 -0.00422 0.0
C2177 C 0.41495 0.56513 0.01371 0.0
C2178 C 0.41686 0.55162 0.02697 0.0
C2179 C 0.40875 0.53405 0.01915 0.0
C2180 C 0.41023 0.52131 0.03205 0.0
C2181 C 0.41994 0.52602 0.05268 0.0
C2182 C 0.42825 0.5435 0.06041 0.0
C2183 C 0.42677 0.55628 0.04761 0.0
H2184 H 0.42106 0.51613 0.06265 0.0
H2185 H 0.40525 0.64065 0.94162 0.0
H2186 H 0.83373 0.36758 0.56145 0.0
H2187 H 0.82801 0.38963 0.54416 0.0
H2188 H 0.83595 0.37454 0.47581 0.0
H2189 H 0.84236 0.35279 0.49319 0.0
H2190 H 0.85365 0.40843 0.47941 0.0
H2191 H 0.79412 0.36525 0.49626 0.0
H2192 H 0.76904 0.34365 0.51983 0.0
H2193 H 0.77594 0.38478 0.56671 0.0
H2194 H 0.80123 0.40661 0.54361 0.0
H2195 H 0.82877 0.4641 0.42329 0.0
H2196 H 0.82468 0.43607 0.43778 0.0
H2197 H 0.83132 0.45538 0.50806 0.0
H2198 H 0.83564 0.48367 0.4937 0.0
H2199 H 0.80401 0.41789 0.50084 0.0
H2200 H 0.86556 0.46009 0.48484 0.0
H2201 H 0.8897 0.48143 0.45978 0.0
H2202 H 0.87755 0.44074 0.40939 0.0
H2203 H 0.8531 0.41923 0.43399 0.0
C2204 C 0.83405 0.36878 0.54271 0.0
C2205 C 0.83855 0.35848 0.52866 0.0
C2206 C 0.83065 0.38134 0.53282 0.0
C2207 C 0.8313 0.38362 0.50863 0.0
C2208 C 0.83534 0.373 0.49451 0.0
C2209 C 0.83897 0.36056 0.50444 0.0
C2210 C 0.82916 0.39801 0.49835 0.0
C2211 C 0.84258 0.41023 0.48376 0.0
C2212 C 0.8149 0.40063 0.50434 0.0
C2213 C 0.79967 0.38755 0.51828 0.0
C2214 C 0.79038 0.36967 0.51169 0.0
C2215 C 0.77611 0.35739 0.52495 0.0
C2216 C 0.77092 0.36283 0.54478 0.0
C2217 C 0.77998 0.38058 0.55136 0.0
C2218 C 0.79427 0.39292 0.53817 0.0
C2219 C 0.82904 0.46231 0.44187 0.0
C2220 C 0.83276 0.47617 0.45736 0.0
C2221 C 0.82668 0.44627 0.45009 0.0
C2222 C 0.82787 0.44378 0.47392 0.0
C2223 C 0.83036 0.45711 0.48959 0.0
C2224 C 0.83289 0.47326 0.48136 0.0
C2225 C 0.82849 0.42811 0.48217 0.0
C2226 C 0.81488 0.4158 0.49637 0.0
C2227 C 0.84246 0.42527 0.47569 0.0
C2228 C 0.85739 0.4381 0.46113 0.0
C2229 C 0.86795 0.45573 0.46833 0.0
C2230 C 0.8817 0.46785 0.45423 0.0
C2231 C 0.88513 0.46245 0.43298 0.0
C2232 C 0.87486 0.44491 0.42584 0.0
C2233 C 0.86106 0.43274 0.43985 0.0
H2234 H 0.89577 0.47186 0.42207 0.0
H2235 H 0.75987 0.3533 0.55502 0.0
H2236 H 0.36215 0.86338 0.99062 0.0
H2237 H 0.38712 0.86092 0.00506 0.0
H2238 H 0.3746 0.81861 0.9566 0.0
H2239 H 0.35015 0.82164 0.94135 0.0
H2240 H 0.39388 0.83867 0.02463 0.0
H2241 H 0.41163 0.82151 0.9349 0.0
H2242 H 0.40771 0.82557 0.89333 0.0
H2243 H 0.40386 0.87145 0.90953 0.0
H2244 H 0.40805 0.86782 0.95111 0.0
H2245 H 0.46337 0.82246 0.04562 0.0
H2246 H 0.43555 0.8187 0.03056 0.0
H2247 H 0.46449 0.86488 0.9875 0.0
H2248 H 0.49233 0.86811 0.00166 0.0
H2249 H 0.43694 0.84281 0.96527 0.0
H2250 H 0.44728 0.86625 0.04219 0.0
H2251 H 0.45356 0.86737 0.08411 0.0
H2252 H 0.40542 0.81822 0.09417 0.0
H2253 H 0.39898 0.81668 0.05223 0.0
C2254 C 0.36454 0.85335 0.98334 0.0
C2255 C 0.35438 0.84284 0.96468 0.0
C2256 C 0.37883 0.85195 0.9916 0.0
C2257 C 0.38303 0.83988 0.98153 0.0
C2258 C 0.37194 0.82837 0.9642 0.0
C2259 C 0.3579 0.83001 0.95561 0.0
C2260 C 0.39962 0.84018 0.98805 0.0
C2261 C 0.40324 0.83947 0.01164 0.0
C2262 C 0.41212 0.84175 0.97116 0.0
C2263 C 0.40995 0.84426 0.94613 0.0
C2264 C 0.41003 0.8325 0.92956 0.0
C2265 C 0.40775 0.83473 0.90601 0.0
C2266 C 0.40548 0.84872 0.8988 0.0
C2267 C 0.40557 0.86058 0.91513 0.0
C2268 C 0.40789 0.85844 0.93869 0.0
C2269 C 0.46376 0.8316 0.03261 0.0
C2270 C 0.47996 0.84564 0.02492 0.0
C2271 C 0.44787 0.82952 0.02414 0.0
C2272 C 0.4479 0.84179 0.00838 0.0
C2273 C 0.4641 0.85529 -0.00026 0.0
C2274 C 0.48002 0.85713 0.00784 0.0
C2275 C 0.43114 0.84115 0.00184 0.0
C2276 C 0.4275 0.84182 0.97825 0.0
C2277 C 0.41899 0.84033 0.01879 0.0
C2278 C 0.42274 0.84126 0.04404 0.0
C2279 C 0.43809 0.85562 0.05333 0.0
C2280 C 0.44167 0.85634 0.07709 0.0
C2281 C 0.42992 0.84285 0.09179 0.0
C2282 C 0.41453 0.82864 0.08276 0.0
C2283 C 0.4109 0.82784 0.05899 0.0
H2284 H 0.43271 0.84342 0.11018 0.0
H2285 H 0.40368 0.8504 0.88057 0.0
H2286 H 0.50563 0.35222 0.49306 0.0
H2287 H 0.53251 0.37515 0.51176 0.0
H2288 H 0.55615 0.3943 0.44447 0.0
H2289 H 0.52967 0.37105 0.42579 0.0
H2290 H 0.58039 0.397 0.47301 0.0
H2291 H 0.53533 0.41308 0.47536 0.0
H2292 H 0.506 0.40914 0.48438 0.0
H2293 H 0.51478 0.40562 0.55708 0.0
H2294 H 0.54408 0.4093 0.54845 0.0
H2295 H 0.63793 0.48876 0.50018 0.0
H2296 H 0.61473 0.46036 0.48493 0.0
H2297 H 0.60156 0.43983 0.55464 0.0
H2298 H 0.62485 0.46798 0.56999 0.0
H2299 H 0.57268 0.43668 0.52727 0.0
H2300 H 0.62013 0.42402 0.52302 0.0
H2301 H 0.64973 0.42971 0.51181 0.0
H2302 H 0.63672 0.42915 0.43978 0.0
H2303 H 0.6071 0.42371 0.45058 0.0
C2304 C 0.51666 0.36118 0.4823 0.0
C2305 C 0.51549 0.35997 0.45798 0.0
C2306 C 0.53198 0.37432 0.49298 0.0
C2307 C 0.54621 0.3867 0.4795 0.0
C2308 C 0.54535 0.38495 0.45524 0.0
C2309 C 0.53016 0.37167 0.44458 0.0
C2310 C 0.56157 0.40208 0.49046 0.0
C2311 C 0.57869 0.40573 0.48476 0.0
C2312 C 0.55939 0.41341 0.50599 0.0
C2313 C 0.5418 0.41126 0.51123 0.0
C2314 C 0.53095 0.41134 0.49325 0.0
C2315 C 0.51434 0.40917 0.49829 0.0
C2316 C 0.50851 0.40708 0.52128 0.0
C2317 C 0.5193 0.4072 0.53928 0.0
C2318 C 0.53591 0.40933 0.53432 0.0
C2319 C 0.63024 0.47811 0.51221 0.0
C2320 C 0.63315 0.48059 0.53626 0.0
C2321 C 0.61706 0.46191 0.50349 0.0
C2322 C 0.6065 0.44806 0.5187 0.0
C2323 C 0.60962 0.45038 0.54266 0.0
C2324 C 0.62295 0.46646 0.55136 0.0
C2325 C 0.5914 0.43158 0.50973 0.0
C2326 C 0.57433 0.4278 0.51574 0.0
C2327 C 0.59366 0.42039 0.49416 0.0
C2328 C 0.61145 0.42362 0.48762 0.0
C2329 C 0.62363 0.42527 0.5048 0.0
C2330 C 0.6404 0.42841 0.49852 0.0
C2331 C 0.64512 0.42983 0.4751 0.0
C2332 C 0.63305 0.42807 0.45792 0.0
C2333 C 0.61626 0.42494 0.46411 0.0
H2334 H 0.65811 0.43226 0.47028 0.0
H2335 H 0.49565 0.40541 0.52515 0.0
H2336 H 0.16686 0.52701 0.9383 0.0
H2337 H 0.17264 0.55551 0.95347 0.0
H2338 H 0.13292 0.52875 0.00624 0.0
H2339 H 0.12765 0.50031 0.99173 0.0
H2340 H 0.1527 0.5688 0.95384 0.0
H2341 H 0.13966 0.55349 0.05297 0.0
H2342 H 0.14522 0.53678 0.08306 0.0
H2343 H 0.18832 0.54037 0.04305 0.0
H2344 H 0.18319 0.55731 0.01287 0.0
H2345 H 0.12306 0.62181 0.00625 0.0
H2346 H 0.12841 0.59898 0.99061 0.0
H2347 H 0.17516 0.61829 0.03315 0.0
H2348 H 0.1693 0.64059 0.04971 0.0
H2349 H 0.15808 0.58526 0.03706 0.0
H2350 H 0.17662 0.62318 0.97171 0.0
H2351 H 0.17516 0.64211 0.94108 0.0
H2352 H 0.12899 0.5976 0.91254 0.0
H2353 H 0.13001 0.57844 0.9432 0.0
C2354 C 0.15961 0.52725 0.95341 0.0
C2355 C 0.14681 0.51146 0.96383 0.0
C2356 C 0.16287 0.54354 0.96202 0.0
C2357 C 0.1533 0.54434 0.98109 0.0
C2358 C 0.14078 0.52855 0.99183 0.0
C2359 C 0.13771 0.51227 0.98345 0.0
C2360 C 0.15544 0.56153 0.98872 0.0
C2361 C 0.15403 0.57248 0.97203 0.0
C2362 C 0.15767 0.56662 0.01236 0.0
C2363 C 0.16094 0.55656 0.03056 0.0
C2364 C 0.15038 0.55079 0.05064 0.0
C2365 C 0.15344 0.54126 0.06771 0.0
C2366 C 0.16708 0.53748 0.06494 0.0
C2367 C 0.17772 0.54326 0.04513 0.0
C2368 C 0.17472 0.5528 0.02802 0.0
C2369 C 0.13462 0.62134 0.012 0.0
C2370 C 0.14575 0.63293 0.02922 0.0
C2371 C 0.13774 0.60833 0.00296 0.0
C2372 C 0.15232 0.60698 0.01049 0.0
C2373 C 0.1638 0.619 0.0271 0.0
C2374 C 0.16048 0.63178 0.03649 0.0
C2375 C 0.15484 0.59229 0.00224 0.0
C2376 C 0.15705 0.58177 0.01883 0.0
C2377 C 0.154 0.58794 0.97842 0.0
C2378 C 0.15334 0.59939 0.95986 0.0
C2379 C 0.16609 0.61744 0.95899 0.0
C2380 C 0.16534 0.62822 0.94161 0.0
C2381 C 0.15197 0.62107 0.9249 0.0
C2382 C 0.13934 0.60312 0.9255 0.0
C2383 C 0.14001 0.59229 0.94286 0.0
H2384 H 0.15142 0.62943 0.91146 0.0
H2385 H 0.16943 0.53009 0.07817 0.0
H2386 H 0.50029 0.14553 0.49822 0.0
H2387 H 0.52827 0.15018 0.48231 0.0
H2388 H 0.54525 0.14579 0.55116 0.0
H2389 H 0.51772 0.14188 0.5672 0.0
H2390 H 0.57204 0.17011 0.52895 0.0
H2391 H 0.52739 0.11061 0.51163 0.0
H2392 H 0.49913 0.08708 0.49582 0.0
H2393 H 0.51491 0.1086 0.42724 0.0
H2394 H 0.54318 0.13241 0.44271 0.0
H2395 H 0.63379 0.142 0.49665 0.0
H2396 H 0.60913 0.14458 0.51246 0.0
H2397 H 0.59917 0.15862 0.4446 0.0
H2398 H 0.62376 0.15621 0.42873 0.0
H2399 H 0.56946 0.13061 0.46541 0.0
H2400 H 0.61586 0.1893 0.48455 0.0
H2401 H 0.64418 0.21124 0.50206 0.0
H2402 H 0.62509 0.18894 0.56955 0.0
H2403 H 0.59672 0.1667 0.55239 0.0
C2404 C 0.51008 0.14572 0.50995 0.0
C2405 C 0.50677 0.14321 0.53391 0.0
C2406 C 0.52602 0.1483 0.50085 0.0
C2407 C 0.53874 0.14799 0.51549 0.0
C2408 C 0.53566 0.14606 0.53951 0.0
C2409 C 0.51987 0.14377 0.54864 0.0
C2410 C 0.55498 0.14901 0.50583 0.0
C2411 C 0.57145 0.16136 0.51519 0.0
C2412 C 0.55427 0.13773 0.48772 0.0
C2413 C 0.53731 0.1234 0.47836 0.0
C2414 C 0.52477 0.1104 0.4932 0.0
C2415 C 0.50877 0.097 0.4843 0.0
C2416 C 0.50521 0.09637 0.46055 0.0
C2417 C 0.51767 0.10912 0.44564 0.0
C2418 C 0.53369 0.12256 0.45446 0.0
C2419 C 0.62649 0.14588 0.4852 0.0
C2420 C 0.63065 0.14881 0.46144 0.0
C2421 C 0.61246 0.14738 0.49425 0.0
C2422 C 0.60236 0.15178 0.47965 0.0
C2423 C 0.6068 0.15519 0.4561 0.0
C2424 C 0.62089 0.15385 0.44711 0.0
C2425 C 0.58643 0.15168 0.48852 0.0
C2426 C 0.57002 0.13944 0.47905 0.0
C2427 C 0.5872 0.16282 0.50679 0.0
C2428 C 0.60422 0.17622 0.51715 0.0
C2429 C 0.61775 0.18897 0.5031 0.0
C2430 C 0.6338 0.20149 0.51297 0.0
C2431 C 0.63645 0.20145 0.5369 0.0
C2432 C 0.62303 0.18894 0.55102 0.0
C2433 C 0.60695 0.17638 0.54123 0.0
H2434 H 0.64889 0.21115 0.5445 0.0
H2435 H 0.49281 0.08599 0.4537 0.0
H2436 H 0.50313 0.36819 0.99271 0.0
H2437 H 0.53067 0.39214 0.97661 0.0
H2438 H 0.55797 0.39396 0.03988 0.0
H2439 H 0.53064 0.37 0.05597 0.0
H2440 H 0.54978 0.4254 0.99299 0.0
H2441 H 0.60078 0.40697 0.02743 0.0
H2442 H 0.60256 0.38028 0.03607 0.0
H2443 H 0.5616 0.35082 0.98634 0.0
H2444 H 0.55974 0.37738 0.97716 0.0
H2445 H 0.63463 0.50063 0.99117 0.0
H2446 H 0.60944 0.47321 0.00537 0.0
H2447 H 0.61525 0.44474 0.94811 0.0
H2448 H 0.64047 0.47204 0.93385 0.0
H2449 H 0.60664 0.42572 0.98884 0.0
H2450 H 0.5865 0.45836 0.94342 0.0
H2451 H 0.58481 0.48479 0.93278 0.0
H2452 H 0.5632 0.48457 -0.00019 0.0
H2453 H 0.56504 0.45829 0.011 0.0
C2454 C 0.51506 0.37352 0.00304 0.0
C2455 C 0.51471 0.36724 0.02562 0.0
C2456 C 0.53075 0.38724 0.99387 0.0
C2457 C 0.54636 0.39478 0.00703 0.0
C2458 C 0.54613 0.3882 0.02932 0.0
C2459 C 0.53048 0.37453 0.03851 0.0
C2460 C 0.56269 0.41015 -0.00197 0.0
C2461 C 0.56219 0.42544 0.99202 0.0
C2462 C 0.57886 0.41015 -0.00339 0.0
C2463 C 0.58002 0.39414 0.00177 0.0
C2464 C 0.59221 0.39481 0.01826 0.0
C2465 C 0.59322 0.3797 0.02327 0.0
C2466 C 0.58216 0.36385 0.01181 0.0
C2467 C 0.57011 0.36309 0.99526 0.0
C2468 C 0.56905 0.37816 0.99018 0.0
C2469 C 0.63074 0.48848 0.98183 0.0
C2470 C 0.63939 0.48851 0.96125 0.0
C2471 C 0.61632 0.47286 0.98991 0.0
C2472 C 0.61035 0.45704 0.97755 0.0
C2473 C 0.61963 0.45683 0.95783 0.0
C2474 C 0.634 0.47245 0.94969 0.0
C2475 C 0.59374 0.44099 0.98424 0.0
C2476 C 0.5942 0.42562 0.98982 0.0
C2477 C 0.57748 0.44083 0.98496 0.0
C2478 C 0.57606 0.45644 0.97812 0.0
C2479 C 0.58149 0.46401 0.95595 0.0
C2480 C 0.5805 0.47896 0.94982 0.0
C2481 C 0.57394 0.48638 0.96563 0.0
C2482 C 0.5683 0.47882 0.98759 0.0
C2483 C 0.5693 0.46389 0.99383 0.0
H2484 H 0.5732 0.49796 0.96085 0.0
H2485 H 0.58296 0.35217 0.01572 0.0
H2486 H 0.12328 0.617 0.48519 0.0
H2487 H 0.12935 0.59463 0.50074 0.0
H2488 H 0.17211 0.61058 0.45182 0.0
H2489 H 0.16548 0.63243 0.43546 0.0
H2490 H 0.15444 0.57731 0.45176 0.0
H2491 H 0.17916 0.61938 0.51207 0.0
H2492 H 0.1809 0.64066 0.54151 0.0
H2493 H 0.1372 0.59899 0.57825 0.0
H2494 H 0.13502 0.57749 0.54885 0.0
H2495 H 0.16953 0.52448 0.55285 0.0
H2496 H 0.17487 0.55217 0.53527 0.0
H2497 H 0.13132 0.52299 0.48817 0.0
H2498 H 0.12654 0.49532 0.50493 0.0
H2499 H 0.156 0.56633 0.53598 0.0
H2500 H 0.13445 0.5448 0.4398 0.0
H2501 H 0.13705 0.52586 0.4102 0.0
H2502 H 0.18276 0.53075 0.4449 0.0
H2503 H 0.1806 0.54992 0.47453 0.0
C2504 C 0.13411 0.61588 0.47794 0.0
C2505 C 0.1439 0.62643 0.45911 0.0
C2506 C 0.13765 0.60314 0.48693 0.0
C2507 C 0.15136 0.60103 0.47767 0.0
C2508 C 0.16145 0.61191 0.45924 0.0
C2509 C 0.1577 0.62443 0.44996 0.0
C2510 C 0.15438 0.58675 0.48632 0.0
C2511 C 0.15493 0.575 0.47018 0.0
C2512 C 0.15558 0.58398 0.51032 0.0
C2513 C 0.15686 0.59684 0.52815 0.0
C2514 C 0.16984 0.61477 0.52634 0.0
C2515 C 0.17092 0.62687 0.54304 0.0
C2516 C 0.15915 0.62118 0.56172 0.0
C2517 C 0.1463 0.60338 0.56377 0.0
C2518 C 0.14516 0.59122 0.54711 0.0
C2519 C 0.16134 0.524 0.53842 0.0
C2520 C 0.14763 0.50777 0.53022 0.0
C2521 C 0.16436 0.53983 0.52845 0.0
C2522 C 0.15359 0.53974 0.51028 0.0
C2523 C 0.14011 0.52347 0.50178 0.0
C2524 C 0.13731 0.50762 0.51145 0.0
C2525 C 0.15551 0.55658 0.50143 0.0
C2526 C 0.15582 0.56879 0.51755 0.0
C2527 C 0.15579 0.56012 0.4774 0.0
C2528 C 0.15727 0.54871 0.4595 0.0
C2529 C 0.14511 0.54192 0.44106 0.0
C2530 C 0.1465 0.53112 0.42429 0.0
C2531 C 0.16004 0.52707 0.4257 0.0
C2532 C 0.17225 0.53385 0.44387 0.0
C2533 C 0.17093 0.54466 0.46068 0.0
H2534 H 0.16108 0.5187 0.4127 0.0
H2535 H 0.16 0.63057 0.57462 0.0
H2536 H 0.62105 0.15343 0.06702 0.0
H2537 H 0.59669 0.15633 0.05131 0.0
H2538 H 0.61185 0.15124 0.98177 0.0
H2539 H 0.63621 0.14796 -0.00259 0.0
H2540 H 0.60207 0.17949 0.99064 0.0
H2541 H 0.5812 0.11709 -0.0 0.0
H2542 H 0.57667 0.091 0.0221 0.0
H2543 H 0.54634 0.10032 0.07294 0.0
H2544 H 0.55095 0.12666 0.05131 0.0
H2545 H 0.52393 0.1566 0.92829 0.0
H2546 H 0.55087 0.15982 0.94531 0.0
H2547 H 0.52671 0.14861 0.01318 0.0
H2548 H 0.49935 0.14477 -0.00397 0.0
H2549 H 0.54173 0.12978 0.00653 0.0
H2550 H 0.5605 0.19076 -0.00278 0.0
H2551 H 0.56547 0.21769 0.97693 0.0
H2552 H 0.59985 0.21248 0.92838 0.0
H2553 H 0.5949 0.18537 0.94818 0.0
C2554 C 0.61936 0.15312 0.04836 0.0
C2555 C 0.63047 0.15035 0.03342 0.0
C2556 C 0.60543 0.15477 0.03945 0.0
C2557 C 0.60249 0.15391 0.01545 0.0
C2558 C 0.61399 0.15195 0.00037 0.0
C2559 C 0.62782 0.15002 0.0093 0.0
C2560 C 0.58671 0.15393 0.00638 0.0
C2561 C 0.58885 0.16858 0.9938 0.0
C2562 C 0.56954 0.1399 0.01128 0.0
C2563 C 0.56659 0.12396 0.02417 0.0
C2564 C 0.57371 0.11367 0.016 0.0
C2565 C 0.5711 0.09882 0.02842 0.0
C2566 C 0.56126 0.09403 0.04895 0.0
C2567 C 0.55398 0.10406 0.05706 0.0
C2568 C 0.55658 0.11895 0.04472 0.0
C2569 C 0.52439 0.15503 0.9469 0.0
C2570 C 0.50949 0.15038 0.96083 0.0
C2571 C 0.53987 0.15699 0.95664 0.0
C2572 C 0.54092 0.15466 0.98058 0.0
C2573 C 0.52621 0.15048 0.99466 0.0
C2574 C 0.51061 0.14834 0.98487 0.0
C2575 C 0.55694 0.15539 0.99055 0.0
C2576 C 0.55488 0.14082 0.00337 0.0
C2577 C 0.57417 0.16961 0.98605 0.0
C2578 C 0.5772 0.18594 0.97408 0.0
C2579 C 0.56901 0.19527 0.98211 0.0
C2580 C 0.57185 0.21059 0.97071 0.0
C2581 C 0.58294 0.21677 0.95135 0.0
C2582 C 0.59125 0.20767 0.94337 0.0
C2583 C 0.58845 0.19234 0.95469 0.0
H2584 H 0.58511 0.22863 0.94255 0.0
H2585 H 0.55926 0.08253 0.05855 0.0
H2586 H 0.46262 0.62614 0.56727 0.0
H2587 H 0.43498 0.60226 0.55161 0.0
H2588 H 0.45709 0.61386 0.48262 0.0
H2589 H 0.48501 0.63772 0.4982 0.0
H2590 H 0.41981 0.60569 0.48724 0.0
H2591 H 0.45893 0.5833 0.50727 0.0
H2592 H 0.4785 0.57893 0.53393 0.0
H2593 H 0.43571 0.55205 0.58213 0.0
H2594 H 0.41595 0.55653 0.5559 0.0
H2595 H 0.36739 0.52602 0.42659 0.0
H2596 H 0.38999 0.55341 0.44411 0.0
H2597 H 0.37248 0.53107 0.51241 0.0
H2598 H 0.35017 0.50327 0.49484 0.0
H2599 H 0.40625 0.54553 0.51034 0.0
H2600 H 0.3661 0.56508 0.49005 0.0
H2601 H 0.34605 0.56996 0.46502 0.0
H2602 H 0.38916 0.60235 0.41948 0.0
H2603 H 0.40944 0.59746 0.44405 0.0
C2604 C 0.46155 0.6238 0.54871 0.0
C2605 C 0.47604 0.63369 0.53396 0.0
C2606 C 0.44575 0.61016 0.53982 0.0
C2607 C 0.4441 0.6063 0.51603 0.0
C2608 C 0.45817 0.61672 0.50105 0.0
C2609 C 0.4741 0.63026 0.50997 0.0
C2610 C 0.42825 0.59045 0.50716 0.0
C2611 C 0.41685 0.5925 0.49205 0.0
C2612 C 0.42422 0.57334 0.51413 0.0
C2613 C 0.43602 0.57043 0.52975 0.0
C2614 C 0.45374 0.57659 0.52365 0.0
C2615 C 0.46485 0.57407 0.53866 0.0
C2616 C 0.45836 0.56526 0.55974 0.0
C2617 C 0.44072 0.5589 0.56581 0.0
C2618 C 0.42956 0.56142 0.55088 0.0
C2619 C 0.36817 0.527 0.44536 0.0
C2620 C 0.35704 0.51247 0.45936 0.0
C2621 C 0.38105 0.54274 0.45537 0.0
C2622 C 0.38285 0.54442 0.47961 0.0
C2623 C 0.37136 0.53009 0.49366 0.0
C2624 C 0.35859 0.51423 0.48363 0.0
C2625 C 0.39761 0.56059 0.49013 0.0
C2626 C 0.40894 0.55865 0.50559 0.0
C2627 C 0.40141 0.57779 0.48366 0.0
C2628 C 0.38927 0.58078 0.46882 0.0
C2629 C 0.37128 0.57314 0.4746 0.0
C2630 C 0.35988 0.57592 0.46051 0.0
C2631 C 0.36632 0.58643 0.44065 0.0
C2632 C 0.38419 0.5942 0.43486 0.0
C2633 C 0.39565 0.59145 0.44889 0.0
H2634 H 0.35747 0.58857 0.42976 0.0
H2635 H 0.46699 0.56332 0.57134 0.0
H2636 H 0.83253 0.36752 0.92199 0.0
H2637 H 0.82812 0.39083 0.93818 0.0
H2638 H 0.83496 0.37628 0.00734 0.0
H2639 H 0.83958 0.35294 0.99125 0.0
H2640 H 0.80682 0.3853 0.00166 0.0
H2641 H 0.8688 0.40761 0.9853 0.0
H2642 H 0.89364 0.41252 0.96008 0.0
H2643 H 0.88013 0.44141 0.91195 0.0
H2644 H 0.855 0.4364 0.93672 0.0
H2645 H 0.83254 0.46383 0.06502 0.0
H2646 H 0.82811 0.43669 0.04704 0.0
H2647 H 0.83529 0.46043 0.97925 0.0
H2648 H 0.84041 0.48793 -0.00271 0.0
H2649 H 0.85453 0.44593 0.9824 0.0
H2650 H 0.79411 0.42611 -0.00078 0.0
H2651 H 0.76842 0.4207 0.02296 0.0
H2652 H 0.77754 0.3871 0.06833 0.0
H2653 H 0.80345 0.3925 0.04505 0.0
C2654 C 0.83283 0.36907 0.94067 0.0
C2655 C 0.83659 0.35852 0.95536 0.0
C2656 C 0.8303 0.38239 0.94987 0.0
C2657 C 0.83135 0.38531 0.9739 0.0
C2658 C 0.83409 0.37417 0.98873 0.0
C2659 C 0.8368 0.36093 0.97952 0.0
C2660 C 0.83121 0.40096 0.98327 0.0
C2661 C 0.81729 0.39859 -0.00231 0.0
C2662 C 0.84465 0.41821 0.97745 0.0
C2663 C 0.85991 0.42146 0.96273 0.0
C2664 C 0.87104 0.41488 0.96924 0.0
C2665 C 0.88518 0.4177 0.95505 0.0
C2666 C 0.88843 0.42723 0.93439 0.0
C2667 C 0.87758 0.43401 0.92794 0.0
C2668 C 0.86339 0.43119 0.94205 0.0
C2669 C 0.83292 0.4632 0.04626 0.0
C2670 C 0.8369 0.47803 0.03255 0.0
C2671 C 0.83027 0.44761 0.03597 0.0
C2672 C 0.83118 0.44641 0.01174 0.0
C2673 C 0.83454 0.46104 -0.00202 0.0
C2674 C 0.83742 0.47672 0.00829 0.0
C2675 C 0.83008 0.43045 0.00099 0.0
C2676 C 0.84388 0.43272 0.9863 0.0
C2677 C 0.81641 0.41313 0.00642 0.0
C2678 C 0.80082 0.40984 0.02048 0.0
C2679 C 0.79073 0.41768 0.01436 0.0
C2680 C 0.77611 0.41459 0.02772 0.0
C2681 C 0.77137 0.40359 0.04717 0.0
C2682 C 0.78123 0.39563 0.05327 0.0
C2683 C 0.79587 0.39868 0.03998 0.0
H2684 H 0.76005 0.40122 0.05748 0.0
H2685 H 0.89939 0.4294 0.92342 0.0
H2686 H 0.46145 0.8333 0.42386 0.0
H2687 H 0.43361 0.82906 0.43936 0.0
H2688 H 0.45608 0.8414 0.50816 0.0
H2689 H 0.48417 0.84582 0.49274 0.0
H2690 H 0.4197 0.8124 0.5055 0.0
H2691 H 0.45661 0.87291 0.48026 0.0
H2692 H 0.47505 0.89589 0.45183 0.0
H2693 H 0.43105 0.87663 0.40494 0.0
H2694 H 0.41242 0.85333 0.43297 0.0
H2695 H 0.36728 0.84059 0.56365 0.0
H2696 H 0.38998 0.83591 0.54631 0.0
H2697 H 0.36939 0.83556 0.47804 0.0
H2698 H 0.34686 0.84087 0.49537 0.0
H2699 H 0.40336 0.85616 0.47811 0.0
H2700 H 0.36537 0.79734 0.50392 0.0
H2701 H 0.34661 0.77361 0.53129 0.0
H2702 H 0.39132 0.78824 0.57563 0.0
H2703 H 0.41032 0.81223 0.5487 0.0
C2704 C 0.46043 0.83488 0.44236 0.0
C2705 C 0.47506 0.84009 0.45707 0.0
C2706 C 0.44451 0.83245 0.45115 0.0
C2707 C 0.4429 0.83509 0.47482 0.0
C2708 C 0.45713 0.83932 0.48982 0.0
C2709 C 0.47315 0.8419 0.48099 0.0
C2710 C 0.42688 0.83486 0.48349 0.0
C2711 C 0.41614 0.82202 0.49973 0.0
C2712 C 0.42206 0.84711 0.47533 0.0
C2713 C 0.43318 0.86126 0.4586 0.0
C2714 C 0.45091 0.87348 0.46381 0.0
C2715 C 0.46139 0.88658 0.44778 0.0
C2716 C 0.45424 0.88769 0.42656 0.0
C2717 C 0.43658 0.87574 0.42137 0.0
C2718 C 0.42605 0.86259 0.43732 0.0
C2719 C 0.36741 0.8393 0.54495 0.0
C2720 C 0.35531 0.84115 0.53085 0.0
C2721 C 0.38035 0.83649 0.53505 0.0
C2722 C 0.38128 0.83514 0.51087 0.0
C2723 C 0.3689 0.83652 0.49676 0.0
C2724 C 0.35602 0.83951 0.50666 0.0
C2725 C 0.39603 0.83371 0.50039 0.0
C2726 C 0.40666 0.84633 0.48378 0.0
C2727 C 0.40062 0.82113 0.50811 0.0
C2728 C 0.38925 0.80668 0.52435 0.0
C2729 C 0.37118 0.79559 0.51959 0.0
C2730 C 0.36051 0.78207 0.53502 0.0
C2731 C 0.36776 0.77944 0.55521 0.0
C2732 C 0.38572 0.7903 0.55999 0.0
C2733 C 0.39646 0.80385 0.54463 0.0
H2734 H 0.35947 0.76897 0.56712 0.0
H2735 H 0.46238 0.89784 0.41417 0.0
loop_
_geom_bond_atom_site_label_1
_geom_bond_atom_site_label_2
_geom_bond_distance
_geom_bond_site_symmetry_2
_ccdc_geom_bond_type
C0 O1 1.306 . S
C0 O3 1.160 . S
O1 C0 1.306 . S
O1 Cd2 2.228 . S
Cd2 O1 2.228 . S
Cd2 O6 2.273 . S
Cd2 O10 2.277 . S
O3 C0 1.160 . S
O3 Cd4 2.203 . S
Cd4 O3 2.203 . S
Cd4 O6 2.411 . S
Cd4 O7 2.333 . S
Cd4 O8 2.352 . S
Cd4 O12 2.277 . S
Cd4 O13 2.356 . S
C5 O10 1.209 . S
C5 O12 1.226 . S
O6 Cd2 2.273 . S
O6 Cd4 2.411 . S
O6 C9 1.320 . S
O7 Cd4 2.333 . S
O7 C9 1.214 . S
O8 Cd4 2.352 . S
O8 C11 1.258 . S
C9 O6 1.320 . S
C9 O7 1.214 . S
O10 Cd2 2.277 . S
O10 C5 1.209 . S
C11 O8 1.258 . S
C11 O13 1.282 . S
O12 Cd4 2.277 . S
O12 C5 1.226 . S
O13 Cd4 2.356 . S
O13 C11 1.282 . S
C14 O15 1.306 . S
C14 O17 1.160 . S
O15 C14 1.306 . S
O15 Cd16 2.228 . S
Cd16 O15 2.228 . S
Cd16 O20 2.273 . S
Cd16 O24 2.277 . S
O17 C14 1.160 . S
O17 Cd18 2.203 . S
Cd18 O17 2.203 . S
Cd18 O20 2.411 . S
Cd18 O21 2.333 . S
Cd18 O22 2.352 . S
Cd18 O26 2.277 . S
Cd18 O27 2.356 . S
C19 O24 1.209 . S
C19 O26 1.226 . S
O20 Cd16 2.273 . S
O20 Cd18 2.411 . S
O20 C23 1.320 . S
O21 Cd18 2.333 . S
O21 C23 1.214 . S
O22 Cd18 2.352 . S
O22 C25 1.258 . S
C23 O20 1.320 . S
C23 O21 1.214 . S
O24 Cd16 2.277 . S
O24 C19 1.209 . S
C25 O22 1.258 . S
C25 O27 1.282 . S
O26 Cd18 2.277 . S
O26 C19 1.226 . S
O27 Cd18 2.356 . S
O27 C25 1.282 . S
C28 O29 1.306 . S
C28 O31 1.160 . S
O29 C28 1.306 . S
O29 Cd30 2.228 . S
Cd30 O29 2.228 . S
Cd30 O34 2.273 . S
Cd30 O38 2.277 . S
O31 C28 1.160 . S
O31 Cd32 2.203 . S
Cd32 O31 2.203 . S
Cd32 O34 2.411 . S
Cd32 O35 2.333 . S
Cd32 O36 2.352 . S
Cd32 O40 2.277 . S
Cd32 O41 2.356 . S
C33 O38 1.209 . S
C33 O40 1.226 . S
O34 Cd30 2.273 . S
O34 Cd32 2.411 . S
O34 C37 1.320 . S
O35 Cd32 2.333 . S
O35 C37 1.214 . S
O36 Cd32 2.352 . S
O36 C39 1.258 . S
C37 O34 1.320 . S
C37 O35 1.214 . S
O38 Cd30 2.277 . S
O38 C33 1.209 . S
C39 O36 1.258 . S
C39 O41 1.282 . S
O40 Cd32 2.277 . S
O40 C33 1.226 . S
O41 Cd32 2.356 . S
O41 C39 1.282 . S
C42 O43 1.306 . S
C42 O45 1.160 . S
O43 C42 1.306 . S
O43 Cd44 2.228 . S
Cd44 O43 2.228 . S
Cd44 O48 2.273 . S
Cd44 O52 2.277 . S
O45 C42 1.160 . S
O45 Cd46 2.203 . S
Cd46 O45 2.203 . S
Cd46 O48 2.411 . S
Cd46 O49 2.333 . S
Cd46 O50 2.352 . S
Cd46 O54 2.277 . S
Cd46 O55 2.356 . S
C47 O52 1.209 . S
C47 O54 1.226 . S
O48 Cd44 2.273 . S
O48 Cd46 2.411 . S
O48 C51 1.320 . S
O49 Cd46 2.333 . S
O49 C51 1.214 . S
O50 Cd46 2.352 . S
O50 C53 1.258 . S
C51 O48 1.320 . S
C51 O49 1.214 . S
O52 Cd44 2.277 . S
O52 C47 1.209 . S
C53 O50 1.258 . S
C53 O55 1.282 . S
O54 Cd46 2.277 . S
O54 C47 1.226 . S
O55 Cd46 2.356 . S
O55 C53 1.282 . S
C56 O57 1.306 . S
C56 O59 1.160 . S
O57 C56 1.306 . S
O57 Cd58 2.228 . S
Cd58 O57 2.228 . S
Cd58 O62 2.273 . S
Cd58 O66 2.277 . S
O59 C56 1.160 . S
O59 Cd60 2.203 . S
Cd60 O59 2.203 . S
Cd60 O62 2.411 . S
Cd60 O63 2.333 . S
Cd60 O64 2.352 . S
Cd60 O68 2.277 . S
Cd60 O69 2.356 . S
C61 O66 1.209 . S
C61 O68 1.226 . S
O62 Cd58 2.273 . S
O62 Cd60 2.411 . S
O62 C65 1.320 . S
O63 Cd60 2.333 . S
O63 C65 1.214 . S
O64 Cd60 2.352 . S
O64 C67 1.258 . S
C65 O62 1.320 . S
C65 O63 1.214 . S
O66 Cd58 2.277 . S
O66 C61 1.209 . S
C67 O64 1.258 . S
C67 O69 1.282 . S
O68 Cd60 2.277 . S
O68 C61 1.226 . S
O69 Cd60 2.356 . S
O69 C67 1.282 . S
C70 O71 1.306 . S
C70 O73 1.160 . S
O71 C70 1.306 . S
O71 Cd72 2.228 . S
Cd72 O71 2.228 . S
Cd72 O76 2.273 . S
Cd72 O80 2.277 . S
O73 C70 1.160 . S
O73 Cd74 2.203 . S
Cd74 O73 2.203 . S
Cd74 O76 2.411 . S
Cd74 O77 2.333 . S
Cd74 O78 2.352 . S
Cd74 O82 2.277 . S
Cd74 O83 2.356 . S
C75 O80 1.209 . S
C75 O82 1.226 . S
O76 Cd72 2.273 . S
O76 Cd74 2.411 . S
O76 C79 1.320 . S
O77 Cd74 2.333 . S
O77 C79 1.214 . S
O78 Cd74 2.352 . S
O78 C81 1.258 . S
C79 O76 1.320 . S
C79 O77 1.214 . S
O80 Cd72 2.277 . S
O80 C75 1.209 . S
C81 O78 1.258 . S
C81 O83 1.282 . S
O82 Cd74 2.277 . S
O82 C75 1.226 . S
O83 Cd74 2.356 . S
O83 C81 1.282 . S
C84 O85 1.306 . S
C84 O87 1.160 . S
O85 C84 1.306 . S
O85 Cd86 2.228 . S
Cd86 O85 2.228 . S
Cd86 O90 2.273 . S
Cd86 O94 2.277 . S
O87 C84 1.160 . S
O87 Cd88 2.203 . S
Cd88 O87 2.203 . S
Cd88 O90 2.411 . S
Cd88 O91 2.333 . S
Cd88 O92 2.352 . S
Cd88 O96 2.277 . S
Cd88 O97 2.356 . S
C89 O94 1.209 . S
C89 O96 1.226 . S
O90 Cd86 2.273 . S
O90 Cd88 2.411 . S
O90 C93 1.320 . S
O91 Cd88 2.333 . S
O91 C93 1.214 . S
O92 Cd88 2.352 . S
O92 C95 1.258 . S
C93 O90 1.320 . S
C93 O91 1.214 . S
O94 Cd86 2.277 . S
O94 C89 1.209 . S
C95 O92 1.258 . S
C95 O97 1.282 . S
O96 Cd88 2.277 . S
O96 C89 1.226 . S
O97 Cd88 2.356 . S
O97 C95 1.282 . S
C98 O99 1.306 . S
C98 O101 1.160 . S
O99 C98 1.306 . S
O99 Cd100 2.228 . S
Cd100 O99 2.228 . S
Cd100 O104 2.273 . S
Cd100 O108 2.277 . S
O101 C98 1.160 . S
O101 Cd102 2.203 . S
Cd102 O101 2.203 . S
Cd102 O104 2.411 . S
Cd102 O105 2.333 . S
Cd102 O106 2.352 . S
Cd102 O110 2.277 . S
Cd102 O111 2.356 . S
C103 O108 1.209 . S
C103 O110 1.226 . S
O104 Cd100 2.273 . S
O104 Cd102 2.411 . S
O104 C107 1.320 . S
O105 Cd102 2.333 . S
O105 C107 1.214 . S
O106 Cd102 2.352 . S
O106 C109 1.258 . S
C107 O104 1.320 . S
C107 O105 1.214 . S
O108 Cd100 2.277 . S
O108 C103 1.209 . S
C109 O106 1.258 . S
C109 O111 1.282 . S
O110 Cd102 2.277 . S
O110 C103 1.226 . S
O111 Cd102 2.356 . S
O111 C109 1.282 . S
C112 O113 1.306 . S
C112 O115 1.160 . S
O113 C112 1.306 . S
O113 Cd114 2.228 . S
Cd114 O113 2.228 . S
Cd114 O118 2.273 . S
Cd114 O122 2.277 . S
O115 C112 1.160 . S
O115 Cd116 2.203 . S
Cd116 O115 2.203 . S
Cd116 O118 2.411 . S
Cd116 O119 2.333 . S
Cd116 O120 2.352 . S
Cd116 O124 2.277 . S
Cd116 O125 2.356 . S
C117 O122 1.209 . S
C117 O124 1.226 . S
O118 Cd114 2.273 . S
O118 Cd116 2.411 . S
O118 C121 1.320 . S
O119 Cd116 2.333 . S
O119 C121 1.214 . S
O120 Cd116 2.352 . S
O120 C123 1.258 . S
C121 O118 1.320 . S
C121 O119 1.214 . S
O122 Cd114 2.277 . S
O122 C117 1.209 . S
C123 O120 1.258 . S
C123 O125 1.282 . S
O124 Cd116 2.277 . S
O124 C117 1.226 . S
O125 Cd116 2.356 . S
O125 C123 1.282 . S
C126 O127 1.306 . S
C126 O129 1.160 . S
O127 C126 1.306 . S
O127 Cd128 2.228 . S
Cd128 O127 2.228 . S
Cd128 O132 2.273 . S
Cd128 O136 2.277 . S
O129 C126 1.160 . S
O129 Cd130 2.203 . S
Cd130 O129 2.203 . S
Cd130 O132 2.411 . S
Cd130 O133 2.333 . S
Cd130 O134 2.352 . S
Cd130 O138 2.277 . S
Cd130 O139 2.356 . S
C131 O136 1.209 . S
C131 O138 1.226 . S
O132 Cd128 2.273 . S
O132 Cd130 2.411 . S
O132 C135 1.320 . S
O133 Cd130 2.333 . S
O133 C135 1.214 . S
O134 Cd130 2.352 . S
O134 C137 1.258 . S
C135 O132 1.320 . S
C135 O133 1.214 . S
O136 Cd128 2.277 . S
O136 C131 1.209 . S
C137 O134 1.258 . S
C137 O139 1.282 . S
O138 Cd130 2.277 . S
O138 C131 1.226 . S
O139 Cd130 2.356 . S
O139 C137 1.282 . S
C140 O141 1.306 . S
C140 O143 1.160 . S
O141 C140 1.306 . S
O141 Cd142 2.228 . S
Cd142 O141 2.228 . S
Cd142 O146 2.273 . S
Cd142 O150 2.277 . S
O143 C140 1.160 . S
O143 Cd144 2.203 . S
Cd144 O143 2.203 . S
Cd144 O146 2.411 . S
Cd144 O147 2.333 . S
Cd144 O148 2.352 . S
Cd144 O152 2.277 . S
Cd144 O153 2.356 . S
C145 O150 1.209 . S
C145 O152 1.226 . S
O146 Cd142 2.273 . S
O146 Cd144 2.411 . S
O146 C149 1.320 . S
O147 Cd144 2.333 . S
O147 C149 1.214 . S
O148 Cd144 2.352 . S
O148 C151 1.258 . S
C149 O146 1.320 . S
C149 O147 1.214 . S
O150 Cd142 2.277 . S
O150 C145 1.209 . S
C151 O148 1.258 . S
C151 O153 1.282 . S
O152 Cd144 2.277 . S
O152 C145 1.226 . S
O153 Cd144 2.356 . S
O153 C151 1.282 . S
C154 O155 1.306 . S
C154 O157 1.160 . S
O155 C154 1.306 . S
O155 Cd156 2.228 . S
Cd156 O155 2.228 . S
Cd156 O160 2.273 . S
Cd156 O164 2.277 . S
O157 C154 1.160 . S
O157 Cd158 2.203 . S
Cd158 O157 2.203 . S
Cd158 O160 2.411 . S
Cd158 O161 2.333 . S
Cd158 O162 2.352 . S
Cd158 O166 2.277 . S
Cd158 O167 2.356 . S
C159 O164 1.209 . S
C159 O166 1.226 . S
O160 Cd156 2.273 . S
O160 Cd158 2.411 . S
O160 C163 1.320 . S
O161 Cd158 2.333 . S
O161 C163 1.214 . S
O162 Cd158 2.352 . S
O162 C165 1.258 . S
C163 O160 1.320 . S
C163 O161 1.214 . S
O164 Cd156 2.277 . S
O164 C159 1.209 . S
C165 O162 1.258 . S
C165 O167 1.282 . S
O166 Cd158 2.277 . S
O166 C159 1.226 . S
O167 Cd158 2.356 . S
O167 C165 1.282 . S
C168 O169 1.306 . S
C168 O171 1.160 . S
O169 C168 1.306 . S
O169 Cd170 2.228 . S
Cd170 O169 2.228 . S
Cd170 O174 2.273 . S
Cd170 O178 2.277 . S
O171 C168 1.160 . S
O171 Cd172 2.203 . S
Cd172 O171 2.203 . S
Cd172 O174 2.411 . S
Cd172 O175 2.333 . S
Cd172 O176 2.352 . S
Cd172 O180 2.277 . S
Cd172 O181 2.356 . S
C173 O178 1.209 . S
C173 O180 1.226 . S
O174 Cd170 2.273 . S
O174 Cd172 2.411 . S
O174 C177 1.320 . S
O175 Cd172 2.333 . S
O175 C177 1.214 . S
O176 Cd172 2.352 . S
O176 C179 1.258 . S
C177 O174 1.320 . S
C177 O175 1.214 . S
O178 Cd170 2.277 . S
O178 C173 1.209 . S
C179 O176 1.258 . S
C179 O181 1.282 . S
O180 Cd172 2.277 . S
O180 C173 1.226 . S
O181 Cd172 2.356 . S
O181 C179 1.282 . S
C182 O183 1.306 . S
C182 O185 1.160 . S
O183 C182 1.306 . S
O183 Cd184 2.228 . S
Cd184 O183 2.228 . S
Cd184 O188 2.273 . S
Cd184 O192 2.277 . S
O185 C182 1.160 . S
O185 Cd186 2.203 . S
Cd186 O185 2.203 . S
Cd186 O188 2.411 . S
Cd186 O189 2.333 . S
Cd186 O190 2.352 . S
Cd186 O194 2.277 . S
Cd186 O195 2.356 . S
C187 O192 1.209 . S
C187 O194 1.226 . S
O188 Cd184 2.273 . S
O188 Cd186 2.411 . S
O188 C191 1.320 . S
O189 Cd186 2.333 . S
O189 C191 1.214 . S
O190 Cd186 2.352 . S
O190 C193 1.258 . S
C191 O188 1.320 . S
C191 O189 1.214 . S
O192 Cd184 2.277 . S
O192 C187 1.209 . S
C193 O190 1.258 . S
C193 O195 1.282 . S
O194 Cd186 2.277 . S
O194 C187 1.226 . S
O195 Cd186 2.356 . S
O195 C193 1.282 . S
C196 O197 1.306 . S
C196 O199 1.160 . S
O197 C196 1.306 . S
O197 Cd198 2.228 . S
Cd198 O197 2.228 . S
Cd198 O202 2.273 . S
Cd198 O206 2.277 . S
O199 C196 1.160 . S
O199 Cd200 2.203 . S
Cd200 O199 2.203 . S
Cd200 O202 2.411 . S
Cd200 O203 2.333 . S
Cd200 O204 2.352 . S
Cd200 O208 2.277 . S
Cd200 O209 2.356 . S
C201 O206 1.209 . S
C201 O208 1.226 . S
O202 Cd198 2.273 . S
O202 Cd200 2.411 . S
O202 C205 1.320 . S
O203 Cd200 2.333 . S
O203 C205 1.214 . S
O204 Cd200 2.352 . S
O204 C207 1.258 . S
C205 O202 1.320 . S
C205 O203 1.214 . S
O206 Cd198 2.277 . S
O206 C201 1.209 . S
C207 O204 1.258 . S
C207 O209 1.282 . S
O208 Cd200 2.277 . S
O208 C201 1.226 . S
O209 Cd200 2.356 . S
O209 C207 1.282 . S
C210 O211 1.306 . S
C210 O213 1.160 . S
O211 C210 1.306 . S
O211 Cd212 2.228 . S
Cd212 O211 2.228 . S
Cd212 O216 2.273 . S
Cd212 O220 2.277 . S
O213 C210 1.160 . S
O213 Cd214 2.203 . S
Cd214 O213 2.203 . S
Cd214 O216 2.411 . S
Cd214 O217 2.333 . S
Cd214 O218 2.352 . S
Cd214 O222 2.277 . S
Cd214 O223 2.356 . S
C215 O220 1.209 . S
C215 O222 1.226 . S
O216 Cd212 2.273 . S
O216 Cd214 2.411 . S
O216 C219 1.320 . S
O217 Cd214 2.333 . S
O217 C219 1.214 . S
O218 Cd214 2.352 . S
O218 C221 1.258 . S
C219 O216 1.320 . S
C219 O217 1.214 . S
O220 Cd212 2.277 . S
O220 C215 1.209 . S
C221 O218 1.258 . S
C221 O223 1.282 . S
O222 Cd214 2.277 . S
O222 C215 1.226 . S
O223 Cd214 2.356 . S
O223 C221 1.282 . S
C224 O225 1.306 . S
C224 O227 1.160 . S
O225 C224 1.306 . S
O225 Cd226 2.228 . S
Cd226 O225 2.228 . S
Cd226 O230 2.273 . S
Cd226 O234 2.277 . S
O227 C224 1.160 . S
O227 Cd228 2.203 . S
Cd228 O227 2.203 . S
Cd228 O230 2.411 . S
Cd228 O231 2.333 . S
Cd228 O232 2.352 . S
Cd228 O236 2.277 . S
Cd228 O237 2.356 . S
C229 O234 1.209 . S
C229 O236 1.226 . S
O230 Cd226 2.273 . S
O230 Cd228 2.411 . S
O230 C233 1.320 . S
O231 Cd228 2.333 . S
O231 C233 1.214 . S
O232 Cd228 2.352 . S
O232 C235 1.258 . S
C233 O230 1.320 . S
C233 O231 1.214 . S
O234 Cd226 2.277 . S
O234 C229 1.209 . S
C235 O232 1.258 . S
C235 O237 1.282 . S
O236 Cd228 2.277 . S
O236 C229 1.226 . S
O237 Cd228 2.356 . S
O237 C235 1.282 . S
C238 O239 1.306 . S
C238 O241 1.160 . S
O239 C238 1.306 . S
O239 Cd240 2.228 . S
Cd240 O239 2.228 . S
Cd240 O244 2.273 . S
Cd240 O248 2.277 . S
O241 C238 1.160 . S
O241 Cd242 2.203 . S
Cd242 O241 2.203 . S
Cd242 O244 2.411 . S
Cd242 O245 2.333 . S
Cd242 O246 2.352 . S
Cd242 O250 2.277 . S
Cd242 O251 2.356 . S
C243 O248 1.209 . S
C243 O250 1.226 . S
O244 Cd240 2.273 . S
O244 Cd242 2.411 . S
O244 C247 1.320 . S
O245 Cd242 2.333 . S
O245 C247 1.214 . S
O246 Cd242 2.352 . S
O246 C249 1.258 . S
C247 O244 1.320 . S
C247 O245 1.214 . S
O248 Cd240 2.277 . S
O248 C243 1.209 . S
C249 O246 1.258 . S
C249 O251 1.282 . S
O250 Cd242 2.277 . S
O250 C243 1.226 . S
O251 Cd242 2.356 . S
O251 C249 1.282 . S
C252 O253 1.306 . S
C252 O255 1.160 . S
O253 C252 1.306 . S
O253 Cd254 2.228 . S
Cd254 O253 2.228 . S
Cd254 O258 2.273 . S
Cd254 O262 2.277 . S
O255 C252 1.160 . S
O255 Cd256 2.203 . S
Cd256 O255 2.203 . S
Cd256 O258 2.411 . S
Cd256 O259 2.333 . S
Cd256 O260 2.352 . S
Cd256 O264 2.277 . S
Cd256 O265 2.356 . S
C257 O262 1.209 . S
C257 O264 1.226 . S
O258 Cd254 2.273 . S
O258 Cd256 2.411 . S
O258 C261 1.320 . S
O259 Cd256 2.333 . S
O259 C261 1.214 . S
O260 Cd256 2.352 . S
O260 C263 1.258 . S
C261 O258 1.320 . S
C261 O259 1.214 . S
O262 Cd254 2.277 . S
O262 C257 1.209 . S
C263 O260 1.258 . S
C263 O265 1.282 . S
O264 Cd256 2.277 . S
O264 C257 1.226 . S
O265 Cd256 2.356 . S
O265 C263 1.282 . S
C266 O267 1.306 . S
C266 O269 1.160 . S
O267 C266 1.306 . S
O267 Cd268 2.228 . S
Cd268 O267 2.228 . S
Cd268 O272 2.273 . S
Cd268 O276 2.277 . S
O269 C266 1.160 . S
O269 Cd270 2.203 . S
Cd270 O269 2.203 . S
Cd270 O272 2.411 . S
Cd270 O273 2.333 . S
Cd270 O274 2.352 . S
Cd270 O278 2.277 . S
Cd270 O279 2.356 . S
C271 O276 1.209 . S
C271 O278 1.226 . S
O272 Cd268 2.273 . S
O272 Cd270 2.411 . S
O272 C275 1.320 . S
O273 Cd270 2.333 . S
O273 C275 1.214 . S
O274 Cd270 2.352 . S
O274 C277 1.258 . S
C275 O272 1.320 . S
C275 O273 1.214 . S
O276 Cd268 2.277 . S
O276 C271 1.209 . S
C277 O274 1.258 . S
C277 O279 1.282 . S
O278 Cd270 2.277 . S
O278 C271 1.226 . S
O279 Cd270 2.356 . S
O279 C277 1.282 . S
C280 O281 1.306 . S
C280 O283 1.160 . S
O281 C280 1.306 . S
O281 Cd282 2.228 . S
Cd282 O281 2.228 . S
Cd282 O286 2.273 . S
Cd282 O290 2.277 . S
O283 C280 1.160 . S
O283 Cd284 2.203 . S
Cd284 O283 2.203 . S
Cd284 O286 2.411 . S
Cd284 O287 2.333 . S
Cd284 O288 2.352 . S
Cd284 O292 2.277 . S
Cd284 O293 2.356 . S
C285 O290 1.209 . S
C285 O292 1.226 . S
O286 Cd282 2.273 . S
O286 Cd284 2.411 . S
O286 C289 1.320 . S
O287 Cd284 2.333 . S
O287 C289 1.214 . S
O288 Cd284 2.352 . S
O288 C291 1.258 . S
C289 O286 1.320 . S
C289 O287 1.214 . S
O290 Cd282 2.277 . S
O290 C285 1.209 . S
C291 O288 1.258 . S
C291 O293 1.282 . S
O292 Cd284 2.277 . S
O292 C285 1.226 . S
O293 Cd284 2.356 . S
O293 C291 1.282 . S
C294 O295 1.306 . S
C294 O297 1.160 . S
O295 C294 1.306 . S
O295 Cd296 2.228 . S
Cd296 O295 2.228 . S
Cd296 O300 2.273 . S
Cd296 O304 2.277 . S
O297 C294 1.160 . S
O297 Cd298 2.203 . S
Cd298 O297 2.203 . S
Cd298 O300 2.411 . S
Cd298 O301 2.333 . S
Cd298 O302 2.352 . S
Cd298 O306 2.277 . S
Cd298 O307 2.356 . S
C299 O304 1.209 . S
C299 O306 1.226 . S
O300 Cd296 2.273 . S
O300 Cd298 2.411 . S
O300 C303 1.320 . S
O301 Cd298 2.333 . S
O301 C303 1.214 . S
O302 Cd298 2.352 . S
O302 C305 1.258 . S
C303 O300 1.320 . S
C303 O301 1.214 . S
O304 Cd296 2.277 . S
O304 C299 1.209 . S
C305 O302 1.258 . S
C305 O307 1.282 . S
O306 Cd298 2.277 . S
O306 C299 1.226 . S
O307 Cd298 2.356 . S
O307 C305 1.282 . S
C308 O309 1.306 . S
C308 O311 1.160 . S
O309 C308 1.306 . S
O309 Cd310 2.228 . S
Cd310 O309 2.228 . S
Cd310 O314 2.273 . S
Cd310 O318 2.277 . S
O311 C308 1.160 . S
O311 Cd312 2.203 . S
Cd312 O311 2.203 . S
Cd312 O314 2.411 . S
Cd312 O315 2.333 . S
Cd312 O316 2.352 . S
Cd312 O320 2.277 . S
Cd312 O321 2.356 . S
C313 O318 1.209 . S
C313 O320 1.226 . S
O314 Cd310 2.273 . S
O314 Cd312 2.411 . S
O314 C317 1.320 . S
O315 Cd312 2.333 . S
O315 C317 1.214 . S
O316 Cd312 2.352 . S
O316 C319 1.258 . S
C317 O314 1.320 . S
C317 O315 1.214 . S
O318 Cd310 2.277 . S
O318 C313 1.209 . S
C319 O316 1.258 . S
C319 O321 1.282 . S
O320 Cd312 2.277 . S
O320 C313 1.226 . S
O321 Cd312 2.356 . S
O321 C319 1.282 . S
C322 O323 1.306 . S
C322 O325 1.160 . S
O323 C322 1.306 . S
O323 Cd324 2.228 . S
Cd324 O323 2.228 . S
Cd324 O328 2.273 . S
Cd324 O332 2.277 . S
O325 C322 1.160 . S
O325 Cd326 2.203 . S
Cd326 O325 2.203 . S
Cd326 O328 2.411 . S
Cd326 O329 2.333 . S
Cd326 O330 2.352 . S
Cd326 O334 2.277 . S
Cd326 O335 2.356 . S
C327 O332 1.209 . S
C327 O334 1.226 . S
O328 Cd324 2.273 . S
O328 Cd326 2.411 . S
O328 C331 1.320 . S
O329 Cd326 2.333 . S
O329 C331 1.214 . S
O330 Cd326 2.352 . S
O330 C333 1.258 . S
C331 O328 1.320 . S
C331 O329 1.214 . S
O332 Cd324 2.277 . S
O332 C327 1.209 . S
C333 O330 1.258 . S
C333 O335 1.282 . S
O334 Cd326 2.277 . S
O334 C327 1.226 . S
O335 Cd326 2.356 . S
O335 C333 1.282 . S
H336 C354 0.951 . S
H337 C356 0.951 . S
H338 C358 0.950 . S
H339 C359 0.950 . S
H340 C361 0.950 . S
H341 C364 0.950 . S
H342 C365 0.950 . S
H343 C367 0.950 . S
H344 C368 0.950 . S
H345 C369 0.951 . S
H346 C371 0.951 . S
H347 C373 0.950 . S
H348 C374 0.950 . S
H349 C376 0.950 . S
H350 C379 0.950 . S
H351 C380 0.950 . S
H352 C382 0.950 . S
H353 C383 0.950 . S
C354 H336 0.951 . S
C354 C355 1.366 . S
C354 C356 1.388 . S
C355 C354 1.366 . S
C355 C359 1.385 . S
C356 H337 0.951 . S
C356 C354 1.388 . S
C356 C357 1.366 . S
C357 C356 1.366 . S
C357 C358 1.414 . S
C357 C360 1.499 . S
C358 H338 0.950 . S
C358 C357 1.414 . S
C358 C359 1.374 . S
C359 H339 0.950 . S
C359 C355 1.385 . S
C359 C358 1.374 . S
C360 C357 1.499 . S
C360 C361 1.373 . S
C360 C362 1.389 . S
C361 H340 0.950 . S
C361 C360 1.373 . S
C361 C377 1.377 . S
C362 C360 1.389 . S
C362 C363 1.524 . S
C362 C376 1.377 . S
C363 C362 1.524 . S
C363 C364 1.397 . S
C363 C368 1.363 . S
C364 H341 0.950 . S
C364 C363 1.397 . S
C364 C365 1.334 . S
C365 H342 0.950 . S
C365 C364 1.334 . S
C365 C366 1.287 . S
C366 C365 1.287 . S
C366 C367 1.524 . S
C366 H385 0.913 . S
C367 H343 0.950 . S
C367 C366 1.524 . S
C367 C368 1.415 . S
C368 H344 0.950 . S
C368 C363 1.363 . S
C368 C367 1.415 . S
C369 H345 0.951 . S
C369 C370 1.366 . S
C369 C371 1.388 . S
C370 C369 1.366 . S
C370 C374 1.385 . S
C371 H346 0.951 . S
C371 C369 1.388 . S
C371 C372 1.366 . S
C372 C371 1.366 . S
C372 C373 1.414 . S
C372 C375 1.499 . S
C373 H347 0.950 . S
C373 C372 1.414 . S
C373 C374 1.374 . S
C374 H348 0.950 . S
C374 C370 1.385 . S
C374 C373 1.374 . S
C375 C372 1.499 . S
C375 C376 1.373 . S
C375 C377 1.389 . S
C376 H349 0.950 . S
C376 C362 1.377 . S
C376 C375 1.373 . S
C377 C361 1.377 . S
C377 C375 1.389 . S
C377 C378 1.524 . S
C378 C377 1.524 . S
C378 C379 1.397 . S
C378 C383 1.363 . S
C379 H350 0.950 . S
C379 C378 1.397 . S
C379 C380 1.334 . S
C380 H351 0.950 . S
C380 C379 1.334 . S
C380 C381 1.287 . S
C381 C380 1.287 . S
C381 C382 1.524 . S
C381 H384 0.999 . S
C382 H352 0.950 . S
C382 C381 1.524 . S
C382 C383 1.415 . S
C383 H353 0.950 . S
C383 C378 1.363 . S
C383 C382 1.415 . S
H384 C381 0.999 . S
H385 C366 0.913 . S
H386 C404 0.951 . S
H387 C406 0.951 . S
H388 C408 0.950 . S
H389 C409 0.950 . S
H390 C411 0.950 . S
H391 C414 0.950 . S
H392 C415 0.950 . S
H393 C417 0.950 . S
H394 C418 0.950 . S
H395 C419 0.951 . S
H396 C421 0.951 . S
H397 C423 0.950 . S
H398 C424 0.950 . S
H399 C426 0.950 . S
H400 C429 0.950 . S
H401 C430 0.950 . S
H402 C432 0.950 . S
H403 C433 0.950 . S
C404 H386 0.951 . S
C404 C405 1.366 . S
C404 C406 1.388 . S
C405 C404 1.366 . S
C405 C409 1.385 . S
C406 H387 0.951 . S
C406 C404 1.388 . S
C406 C407 1.366 . S
C407 C406 1.366 . S
C407 C408 1.414 . S
C407 C410 1.499 . S
C408 H388 0.950 . S
C408 C407 1.414 . S
C408 C409 1.374 . S
C409 H389 0.950 . S
C409 C405 1.385 . S
C409 C408 1.374 . S
C410 C407 1.499 . S
C410 C411 1.373 . S
C410 C412 1.389 . S
C411 H390 0.950 . S
C411 C410 1.373 . S
C411 C427 1.377 . S
C412 C410 1.389 . S
C412 C413 1.524 . S
C412 C426 1.377 . S
C413 C412 1.524 . S
C413 C414 1.397 . S
C413 C418 1.363 . S
C414 H391 0.950 . S
C414 C413 1.397 . S
C414 C415 1.334 . S
C415 H392 0.950 . S
C415 C414 1.334 . S
C415 C416 1.287 . S
C416 C415 1.287 . S
C416 C417 1.524 . S
C416 H435 0.913 . S
C417 H393 0.950 . S
C417 C416 1.524 . S
C417 C418 1.415 . S
C418 H394 0.950 . S
C418 C413 1.363 . S
C418 C417 1.415 . S
C419 H395 0.951 . S
C419 C420 1.366 . S
C419 C421 1.388 . S
C420 C419 1.366 . S
C420 C424 1.385 . S
C421 H396 0.951 . S
C421 C419 1.388 . S
C421 C422 1.366 . S
C422 C421 1.366 . S
C422 C423 1.414 . S
C422 C425 1.499 . S
C423 H397 0.950 . S
C423 C422 1.414 . S
C423 C424 1.374 . S
C424 H398 0.950 . S
C424 C420 1.385 . S
C424 C423 1.374 . S
C425 C422 1.499 . S
C425 C426 1.373 . S
C425 C427 1.389 . S
C426 H399 0.950 . S
C426 C412 1.377 . S
C426 C425 1.373 . S
C427 C411 1.377 . S
C427 C425 1.389 . S
C427 C428 1.524 . S
C428 C427 1.524 . S
C428 C429 1.397 . S
C428 C433 1.363 . S
C429 H400 0.950 . S
C429 C428 1.397 . S
C429 C430 1.334 . S
C430 H401 0.950 . S
C430 C429 1.334 . S
C430 C431 1.287 . S
C431 C430 1.287 . S
C431 C432 1.524 . S
C431 H434 0.999 . S
C432 H402 0.950 . S
C432 C431 1.524 . S
C432 C433 1.415 . S
C433 H403 0.950 . S
C433 C428 1.363 . S
C433 C432 1.415 . S
H434 C431 0.999 . S
H435 C416 0.913 . S
H436 C454 0.951 . S
H437 C456 0.951 . S
H438 C458 0.950 . S
H439 C459 0.950 . S
H440 C461 0.950 . S
H441 C464 0.950 . S
H442 C465 0.950 . S
H443 C467 0.950 . S
H444 C468 0.950 . S
H445 C469 0.951 . S
H446 C471 0.951 . S
H447 C473 0.950 . S
H448 C474 0.950 . S
H449 C476 0.950 . S
H450 C479 0.950 . S
H451 C480 0.950 . S
H452 C482 0.950 . S
H453 C483 0.950 . S
C454 H436 0.951 . S
C454 C455 1.366 . S
C454 C456 1.388 . S
C455 C454 1.366 . S
C455 C459 1.385 . S
C456 H437 0.951 . S
C456 C454 1.388 . S
C456 C457 1.366 . S
C457 C456 1.366 . S
C457 C458 1.414 . S
C457 C460 1.499 . S
C458 H438 0.950 . S
C458 C457 1.414 . S
C458 C459 1.374 . S
C459 H439 0.950 . S
C459 C455 1.385 . S
C459 C458 1.374 . S
C460 C457 1.499 . S
C460 C461 1.373 . S
C460 C462 1.389 . S
C461 H440 0.950 . S
C461 C460 1.373 . S
C461 C477 1.377 . S
C462 C460 1.389 . S
C462 C463 1.524 . S
C462 C476 1.377 . S
C463 C462 1.524 . S
C463 C464 1.397 . S
C463 C468 1.363 . S
C464 H441 0.950 . S
C464 C463 1.397 . S
C464 C465 1.334 . S
C465 H442 0.950 . S
C465 C464 1.334 . S
C465 C466 1.287 . S
C466 C465 1.287 . S
C466 C467 1.524 . S
C466 H485 0.913 . S
C467 H443 0.950 . S
C467 C466 1.524 . S
C467 C468 1.415 . S
C468 H444 0.950 . S
C468 C463 1.363 . S
C468 C467 1.415 . S
C469 H445 0.951 . S
C469 C470 1.366 . S
C469 C471 1.388 . S
C470 C469 1.366 . S
C470 C474 1.385 . S
C471 H446 0.951 . S
C471 C469 1.388 . S
C471 C472 1.366 . S
C472 C471 1.366 . S
C472 C473 1.414 . S
C472 C475 1.499 . S
C473 H447 0.950 . S
C473 C472 1.414 . S
C473 C474 1.374 . S
C474 H448 0.950 . S
C474 C470 1.385 . S
C474 C473 1.374 . S
C475 C472 1.499 . S
C475 C476 1.373 . S
C475 C477 1.389 . S
C476 H449 0.950 . S
C476 C462 1.377 . S
C476 C475 1.373 . S
C477 C461 1.377 . S
C477 C475 1.389 . S
C477 C478 1.524 . S
C478 C477 1.524 . S
C478 C479 1.397 . S
C478 C483 1.363 . S
C479 H450 0.950 . S
C479 C478 1.397 . S
C479 C480 1.334 . S
C480 H451 0.950 . S
C480 C479 1.334 . S
C480 C481 1.287 . S
C481 C480 1.287 . S
C481 C482 1.524 . S
C481 H484 0.999 . S
C482 H452 0.950 . S
C482 C481 1.524 . S
C482 C483 1.415 . S
C483 H453 0.950 . S
C483 C478 1.363 . S
C483 C482 1.415 . S
H484 C481 0.999 . S
H485 C466 0.913 . S
H486 C504 0.951 . S
H487 C506 0.951 . S
H488 C508 0.950 . S
H489 C509 0.950 . S
H490 C511 0.950 . S
H491 C514 0.950 . S
H492 C515 0.950 . S
H493 C517 0.950 . S
H494 C518 0.950 . S
H495 C519 0.951 . S
H496 C521 0.951 . S
H497 C523 0.950 . S
H498 C524 0.950 . S
H499 C526 0.950 . S
H500 C529 0.950 . S
H501 C530 0.950 . S
H502 C532 0.950 . S
H503 C533 0.950 . S
C504 H486 0.951 . S
C504 C505 1.366 . S
C504 C506 1.388 . S
C505 C504 1.366 . S
C505 C509 1.385 . S
C506 H487 0.951 . S
C506 C504 1.388 . S
C506 C507 1.366 . S
C507 C506 1.366 . S
C507 C508 1.414 . S
C507 C510 1.499 . S
C508 H488 0.950 . S
C508 C507 1.414 . S
C508 C509 1.374 . S
C509 H489 0.950 . S
C509 C505 1.385 . S
C509 C508 1.374 . S
C510 C507 1.499 . S
C510 C511 1.373 . S
C510 C512 1.389 . S
C511 H490 0.950 . S
C511 C510 1.373 . S
C511 C527 1.377 . S
C512 C510 1.389 . S
C512 C513 1.524 . S
C512 C526 1.377 . S
C513 C512 1.524 . S
C513 C514 1.397 . S
C513 C518 1.363 . S
C514 H491 0.950 . S
C514 C513 1.397 . S
C514 C515 1.334 . S
C515 H492 0.950 . S
C515 C514 1.334 . S
C515 C516 1.287 . S
C516 C515 1.287 . S
C516 C517 1.524 . S
C516 H535 0.913 . S
C517 H493 0.950 . S
C517 C516 1.524 . S
C517 C518 1.415 . S
C518 H494 0.950 . S
C518 C513 1.363 . S
C518 C517 1.415 . S
C519 H495 0.951 . S
C519 C520 1.366 . S
C519 C521 1.388 . S
C520 C519 1.366 . S
C520 C524 1.385 . S
C521 H496 0.951 . S
C521 C519 1.388 . S
C521 C522 1.366 . S
C522 C521 1.366 . S
C522 C523 1.414 . S
C522 C525 1.499 . S
C523 H497 0.950 . S
C523 C522 1.414 . S
C523 C524 1.374 . S
C524 H498 0.950 . S
C524 C520 1.385 . S
C524 C523 1.374 . S
C525 C522 1.499 . S
C525 C526 1.373 . S
C525 C527 1.389 . S
C526 H499 0.950 . S
C526 C512 1.377 . S
C526 C525 1.373 . S
C527 C511 1.377 . S
C527 C525 1.389 . S
C527 C528 1.524 . S
C528 C527 1.524 . S
C528 C529 1.397 . S
C528 C533 1.363 . S
C529 H500 0.950 . S
C529 C528 1.397 . S
C529 C530 1.334 . S
C530 H501 0.950 . S
C530 C529 1.334 . S
C530 C531 1.287 . S
C531 C530 1.287 . S
C531 C532 1.524 . S
C531 H534 0.999 . S
C532 H502 0.950 . S
C532 C531 1.524 . S
C532 C533 1.415 . S
C533 H503 0.950 . S
C533 C528 1.363 . S
C533 C532 1.415 . S
H534 C531 0.999 . S
H535 C516 0.913 . S
H536 C554 0.951 . S
H537 C556 0.951 . S
H538 C558 0.950 . S
H539 C559 0.950 . S
H540 C561 0.950 . S
H541 C564 0.950 . S
H542 C565 0.950 . S
H543 C567 0.950 . S
H544 C568 0.950 . S
H545 C569 0.951 . S
H546 C571 0.951 . S
H547 C573 0.950 . S
H548 C574 0.950 . S
H549 C576 0.950 . S
H550 C579 0.950 . S
H551 C580 0.950 . S
H552 C582 0.950 . S
H553 C583 0.950 . S
C554 H536 0.951 . S
C554 C555 1.366 . S
C554 C556 1.388 . S
C555 C554 1.366 . S
C555 C559 1.385 . S
C556 H537 0.951 . S
C556 C554 1.388 . S
C556 C557 1.366 . S
C557 C556 1.366 . S
C557 C558 1.414 . S
C557 C560 1.499 . S
C558 H538 0.950 . S
C558 C557 1.414 . S
C558 C559 1.374 . S
C559 H539 0.950 . S
C559 C555 1.385 . S
C559 C558 1.374 . S
C560 C557 1.499 . S
C560 C561 1.373 . S
C560 C562 1.389 . S
C561 H540 0.950 . S
C561 C560 1.373 . S
C561 C577 1.377 . S
C562 C560 1.389 . S
C562 C563 1.524 . S
C562 C576 1.377 . S
C563 C562 1.524 . S
C563 C564 1.397 . S
C563 C568 1.363 . S
C564 H541 0.950 . S
C564 C563 1.397 . S
C564 C565 1.334 . S
C565 H542 0.950 . S
C565 C564 1.334 . S
C565 C566 1.287 . S
C566 C565 1.287 . S
C566 C567 1.524 . S
C566 H585 0.913 . S
C567 H543 0.950 . S
C567 C566 1.524 . S
C567 C568 1.415 . S
C568 H544 0.950 . S
C568 C563 1.363 . S
C568 C567 1.415 . S
C569 H545 0.951 . S
C569 C570 1.366 . S
C569 C571 1.388 . S
C570 C569 1.366 . S
C570 C574 1.385 . S
C571 H546 0.951 . S
C571 C569 1.388 . S
C571 C572 1.366 . S
C572 C571 1.366 . S
C572 C573 1.414 . S
C572 C575 1.499 . S
C573 H547 0.950 . S
C573 C572 1.414 . S
C573 C574 1.374 . S
C574 H548 0.950 . S
C574 C570 1.385 . S
C574 C573 1.374 . S
C575 C572 1.499 . S
C575 C576 1.373 . S
C575 C577 1.389 . S
C576 H549 0.950 . S
C576 C562 1.377 . S
C576 C575 1.373 . S
C577 C561 1.377 . S
C577 C575 1.389 . S
C577 C578 1.524 . S
C578 C577 1.524 . S
C578 C579 1.397 . S
C578 C583 1.363 . S
C579 H550 0.950 . S
C579 C578 1.397 . S
C579 C580 1.334 . S
C580 H551 0.950 . S
C580 C579 1.334 . S
C580 C581 1.287 . S
C581 C580 1.287 . S
C581 C582 1.524 . S
C581 H584 0.999 . S
C582 H552 0.950 . S
C582 C581 1.524 . S
C582 C583 1.415 . S
C583 H553 0.950 . S
C583 C578 1.363 . S
C583 C582 1.415 . S
H584 C581 0.999 . S
H585 C566 0.913 . S
H586 C604 0.951 . S
H587 C606 0.951 . S
H588 C608 0.950 . S
H589 C609 0.950 . S
H590 C611 0.950 . S
H591 C614 0.950 . S
H592 C615 0.950 . S
H593 C617 0.950 . S
H594 C618 0.950 . S
H595 C619 0.951 . S
H596 C621 0.951 . S
H597 C623 0.950 . S
H598 C624 0.950 . S
H599 C626 0.950 . S
H600 C629 0.950 . S
H601 C630 0.950 . S
H602 C632 0.950 . S
H603 C633 0.950 . S
C604 H586 0.951 . S
C604 C605 1.366 . S
C604 C606 1.388 . S
C605 C604 1.366 . S
C605 C609 1.385 . S
C606 H587 0.951 . S
C606 C604 1.388 . S
C606 C607 1.366 . S
C607 C606 1.366 . S
C607 C608 1.414 . S
C607 C610 1.499 . S
C608 H588 0.950 . S
C608 C607 1.414 . S
C608 C609 1.374 . S
C609 H589 0.950 . S
C609 C605 1.385 . S
C609 C608 1.374 . S
C610 C607 1.499 . S
C610 C611 1.373 . S
C610 C612 1.389 . S
C611 H590 0.950 . S
C611 C610 1.373 . S
C611 C627 1.377 . S
C612 C610 1.389 . S
C612 C613 1.524 . S
C612 C626 1.377 . S
C613 C612 1.524 . S
C613 C614 1.397 . S
C613 C618 1.363 . S
C614 H591 0.950 . S
C614 C613 1.397 . S
C614 C615 1.334 . S
C615 H592 0.950 . S
C615 C614 1.334 . S
C615 C616 1.287 . S
C616 C615 1.287 . S
C616 C617 1.524 . S
C616 H635 0.913 . S
C617 H593 0.950 . S
C617 C616 1.524 . S
C617 C618 1.415 . S
C618 H594 0.950 . S
C618 C613 1.363 . S
C618 C617 1.415 . S
C619 H595 0.951 . S
C619 C620 1.366 . S
C619 C621 1.388 . S
C620 C619 1.366 . S
C620 C624 1.385 . S
C621 H596 0.951 . S
C621 C619 1.388 . S
C621 C622 1.366 . S
C622 C621 1.366 . S
C622 C623 1.414 . S
C622 C625 1.499 . S
C623 H597 0.950 . S
C623 C622 1.414 . S
C623 C624 1.374 . S
C624 H598 0.950 . S
C624 C620 1.385 . S
C624 C623 1.374 . S
C625 C622 1.499 . S
C625 C626 1.373 . S
C625 C627 1.389 . S
C626 H599 0.950 . S
C626 C612 1.377 . S
C626 C625 1.373 . S
C627 C611 1.377 . S
C627 C625 1.389 . S
C627 C628 1.524 . S
C628 C627 1.524 . S
C628 C629 1.397 . S
C628 C633 1.363 . S
C629 H600 0.950 . S
C629 C628 1.397 . S
C629 C630 1.334 . S
C630 H601 0.950 . S
C630 C629 1.334 . S
C630 C631 1.287 . S
C631 C630 1.287 . S
C631 C632 1.524 . S
C631 H634 0.999 . S
C632 H602 0.950 . S
C632 C631 1.524 . S
C632 C633 1.415 . S
C633 H603 0.950 . S
C633 C628 1.363 . S
C633 C632 1.415 . S
H634 C631 0.999 . S
H635 C616 0.913 . S
H636 C654 0.951 . S
H637 C656 0.951 . S
H638 C658 0.950 . S
H639 C659 0.950 . S
H640 C661 0.950 . S
H641 C664 0.950 . S
H642 C665 0.950 . S
H643 C667 0.950 . S
H644 C668 0.950 . S
H645 C669 0.951 . S
H646 C671 0.951 . S
H647 C673 0.950 . S
H648 C674 0.950 . S
H649 C676 0.950 . S
H650 C679 0.950 . S
H651 C680 0.950 . S
H652 C682 0.950 . S
H653 C683 0.950 . S
C654 H636 0.951 . S
C654 C655 1.366 . S
C654 C656 1.388 . S
C655 C654 1.366 . S
C655 C659 1.385 . S
C656 H637 0.951 . S
C656 C654 1.388 . S
C656 C657 1.366 . S
C657 C656 1.366 . S
C657 C658 1.414 . S
C657 C660 1.499 . S
C658 H638 0.950 . S
C658 C657 1.414 . S
C658 C659 1.374 . S
C659 H639 0.950 . S
C659 C655 1.385 . S
C659 C658 1.374 . S
C660 C657 1.499 . S
C660 C661 1.373 . S
C660 C662 1.389 . S
C661 H640 0.950 . S
C661 C660 1.373 . S
C661 C677 1.377 . S
C662 C660 1.389 . S
C662 C663 1.524 . S
C662 C676 1.377 . S
C663 C662 1.524 . S
C663 C664 1.397 . S
C663 C668 1.363 . S
C664 H641 0.950 . S
C664 C663 1.397 . S
C664 C665 1.334 . S
C665 H642 0.950 . S
C665 C664 1.334 . S
C665 C666 1.287 . S
C666 C665 1.287 . S
C666 C667 1.524 . S
C666 H685 0.913 . S
C667 H643 0.950 . S
C667 C666 1.524 . S
C667 C668 1.415 . S
C668 H644 0.950 . S
C668 C663 1.363 . S
C668 C667 1.415 . S
C669 H645 0.951 . S
C669 C670 1.366 . S
C669 C671 1.388 . S
C670 C669 1.366 . S
C670 C674 1.385 . S
C671 H646 0.951 . S
C671 C669 1.388 . S
C671 C672 1.366 . S
C672 C671 1.366 . S
C672 C673 1.414 . S
C672 C675 1.499 . S
C673 H647 0.950 . S
C673 C672 1.414 . S
C673 C674 1.374 . S
C674 H648 0.950 . S
C674 C670 1.385 . S
C674 C673 1.374 . S
C675 C672 1.499 . S
C675 C676 1.373 . S
C675 C677 1.389 . S
C676 H649 0.950 . S
C676 C662 1.377 . S
C676 C675 1.373 . S
C677 C661 1.377 . S
C677 C675 1.389 . S
C677 C678 1.524 . S
C678 C677 1.524 . S
C678 C679 1.397 . S
C678 C683 1.363 . S
C679 H650 0.950 . S
C679 C678 1.397 . S
C679 C680 1.334 . S
C680 H651 0.950 . S
C680 C679 1.334 . S
C680 C681 1.287 . S
C681 C680 1.287 . S
C681 C682 1.524 . S
C681 H684 0.999 . S
C682 H652 0.950 . S
C682 C681 1.524 . S
C682 C683 1.415 . S
C683 H653 0.950 . S
C683 C678 1.363 . S
C683 C682 1.415 . S
H684 C681 0.999 . S
H685 C666 0.913 . S
H686 C704 0.951 . S
H687 C706 0.951 . S
H688 C708 0.950 . S
H689 C709 0.950 . S
H690 C711 0.950 . S
H691 C714 0.950 . S
H692 C715 0.950 . S
H693 C717 0.950 . S
H694 C718 0.950 . S
H695 C719 0.951 . S
H696 C721 0.951 . S
H697 C723 0.950 . S
H698 C724 0.950 . S
H699 C726 0.950 . S
H700 C729 0.950 . S
H701 C730 0.950 . S
H702 C732 0.950 . S
H703 C733 0.950 . S
C704 H686 0.951 . S
C704 C705 1.366 . S
C704 C706 1.388 . S
C705 C704 1.366 . S
C705 C709 1.385 . S
C706 H687 0.951 . S
C706 C704 1.388 . S
C706 C707 1.366 . S
C707 C706 1.366 . S
C707 C708 1.414 . S
C707 C710 1.499 . S
C708 H688 0.950 . S
C708 C707 1.414 . S
C708 C709 1.374 . S
C709 H689 0.950 . S
C709 C705 1.385 . S
C709 C708 1.374 . S
C710 C707 1.499 . S
C710 C711 1.373 . S
C710 C712 1.389 . S
C711 H690 0.950 . S
C711 C710 1.373 . S
C711 C727 1.377 . S
C712 C710 1.389 . S
C712 C713 1.524 . S
C712 C726 1.377 . S
C713 C712 1.524 . S
C713 C714 1.397 . S
C713 C718 1.363 . S
C714 H691 0.950 . S
C714 C713 1.397 . S
C714 C715 1.334 . S
C715 H692 0.950 . S
C715 C714 1.334 . S
C715 C716 1.287 . S
C716 C715 1.287 . S
C716 C717 1.524 . S
C716 H735 0.913 . S
C717 H693 0.950 . S
C717 C716 1.524 . S
C717 C718 1.415 . S
C718 H694 0.950 . S
C718 C713 1.363 . S
C718 C717 1.415 . S
C719 H695 0.951 . S
C719 C720 1.366 . S
C719 C721 1.388 . S
C720 C719 1.366 . S
C720 C724 1.385 . S
C721 H696 0.951 . S
C721 C719 1.388 . S
C721 C722 1.366 . S
C722 C721 1.366 . S
C722 C723 1.414 . S
C722 C725 1.499 . S
C723 H697 0.950 . S
C723 C722 1.414 . S
C723 C724 1.374 . S
C724 H698 0.950 . S
C724 C720 1.385 . S
C724 C723 1.374 . S
C725 C722 1.499 . S
C725 C726 1.373 . S
C725 C727 1.389 . S
C726 H699 0.950 . S
C726 C712 1.377 . S
C726 C725 1.373 . S
C727 C711 1.377 . S
C727 C725 1.389 . S
C727 C728 1.524 . S
C728 C727 1.524 . S
C728 C729 1.397 . S
C728 C733 1.363 . S
C729 H700 0.950 . S
C729 C728 1.397 . S
C729 C730 1.334 . S
C730 H701 0.950 . S
C730 C729 1.334 . S
C730 C731 1.287 . S
C731 C730 1.287 . S
C731 C732 1.524 . S
C731 H734 0.999 . S
C732 H702 0.950 . S
C732 C731 1.524 . S
C732 C733 1.415 . S
C733 H703 0.950 . S
C733 C728 1.363 . S
C733 C732 1.415 . S
H734 C731 0.999 . S
H735 C716 0.913 . S
H736 C754 0.951 . S
H737 C756 0.951 . S
H738 C758 0.950 . S
H739 C759 0.950 . S
H740 C761 0.950 . S
H741 C764 0.950 . S
H742 C765 0.950 . S
H743 C767 0.950 . S
H744 C768 0.950 . S
H745 C769 0.951 . S
H746 C771 0.951 . S
H747 C773 0.950 . S
H748 C774 0.950 . S
H749 C776 0.950 . S
H750 C779 0.950 . S
H751 C780 0.950 . S
H752 C782 0.950 . S
H753 C783 0.950 . S
C754 H736 0.951 . S
C754 C755 1.366 . S
C754 C756 1.388 . S
C755 C754 1.366 . S
C755 C759 1.385 . S
C756 H737 0.951 . S
C756 C754 1.388 . S
C756 C757 1.366 . S
C757 C756 1.366 . S
C757 C758 1.414 . S
C757 C760 1.499 . S
C758 H738 0.950 . S
C758 C757 1.414 . S
C758 C759 1.374 . S
C759 H739 0.950 . S
C759 C755 1.385 . S
C759 C758 1.374 . S
C760 C757 1.499 . S
C760 C761 1.373 . S
C760 C762 1.389 . S
C761 H740 0.950 . S
C761 C760 1.373 . S
C761 C777 1.377 . S
C762 C760 1.389 . S
C762 C763 1.524 . S
C762 C776 1.377 . S
C763 C762 1.524 . S
C763 C764 1.397 . S
C763 C768 1.363 . S
C764 H741 0.950 . S
C764 C763 1.397 . S
C764 C765 1.334 . S
C765 H742 0.950 . S
C765 C764 1.334 . S
C765 C766 1.287 . S
C766 C765 1.287 . S
C766 C767 1.524 . S
C766 H785 0.913 . S
C767 H743 0.950 . S
C767 C766 1.524 . S
C767 C768 1.415 . S
C768 H744 0.950 . S
C768 C763 1.363 . S
C768 C767 1.415 . S
C769 H745 0.951 . S
C769 C770 1.366 . S
C769 C771 1.388 . S
C770 C769 1.366 . S
C770 C774 1.385 . S
C771 H746 0.951 . S
C771 C769 1.388 . S
C771 C772 1.366 . S
C772 C771 1.366 . S
C772 C773 1.414 . S
C772 C775 1.499 . S
C773 H747 0.950 . S
C773 C772 1.414 . S
C773 C774 1.374 . S
C774 H748 0.950 . S
C774 C770 1.385 . S
C774 C773 1.374 . S
C775 C772 1.499 . S
C775 C776 1.373 . S
C775 C777 1.389 . S
C776 H749 0.950 . S
C776 C762 1.377 . S
C776 C775 1.373 . S
C777 C761 1.377 . S
C777 C775 1.389 . S
C777 C778 1.524 . S
C778 C777 1.524 . S
C778 C779 1.397 . S
C778 C783 1.363 . S
C779 H750 0.950 . S
C779 C778 1.397 . S
C779 C780 1.334 . S
C780 H751 0.950 . S
C780 C779 1.334 . S
C780 C781 1.287 . S
C781 C780 1.287 . S
C781 C782 1.524 . S
C781 H784 0.999 . S
C782 H752 0.950 . S
C782 C781 1.524 . S
C782 C783 1.415 . S
C783 H753 0.950 . S
C783 C778 1.363 . S
C783 C782 1.415 . S
H784 C781 0.999 . S
H785 C766 0.913 . S
H786 C804 0.951 . S
H787 C806 0.951 . S
H788 C808 0.950 . S
H789 C809 0.950 . S
H790 C811 0.950 . S
H791 C814 0.950 . S
H792 C815 0.950 . S
H793 C817 0.950 . S
H794 C818 0.950 . S
H795 C819 0.951 . S
H796 C821 0.951 . S
H797 C823 0.950 . S
H798 C824 0.950 . S
H799 C826 0.950 . S
H800 C829 0.950 . S
H801 C830 0.950 . S
H802 C832 0.950 . S
H803 C833 0.950 . S
C804 H786 0.951 . S
C804 C805 1.366 . S
C804 C806 1.388 . S
C805 C804 1.366 . S
C805 C809 1.385 . S
C806 H787 0.951 . S
C806 C804 1.388 . S
C806 C807 1.366 . S
C807 C806 1.366 . S
C807 C808 1.414 . S
C807 C810 1.499 . S
C808 H788 0.950 . S
C808 C807 1.414 . S
C808 C809 1.374 . S
C809 H789 0.950 . S
C809 C805 1.385 . S
C809 C808 1.374 . S
C810 C807 1.499 . S
C810 C811 1.373 . S
C810 C812 1.389 . S
C811 H790 0.950 . S
C811 C810 1.373 . S
C811 C827 1.377 . S
C812 C810 1.389 . S
C812 C813 1.524 . S
C812 C826 1.377 . S
C813 C812 1.524 . S
C813 C814 1.397 . S
C813 C818 1.363 . S
C814 H791 0.950 . S
C814 C813 1.397 . S
C814 C815 1.334 . S
C815 H792 0.950 . S
C815 C814 1.334 . S
C815 C816 1.287 . S
C816 C815 1.287 . S
C816 C817 1.524 . S
C816 H835 0.913 . S
C817 H793 0.950 . S
C817 C816 1.524 . S
C817 C818 1.415 . S
C818 H794 0.950 . S
C818 C813 1.363 . S
C818 C817 1.415 . S
C819 H795 0.951 . S
C819 C820 1.366 . S
C819 C821 1.388 . S
C820 C819 1.366 . S
C820 C824 1.385 . S
C821 H796 0.951 . S
C821 C819 1.388 . S
C821 C822 1.366 . S
C822 C821 1.366 . S
C822 C823 1.414 . S
C822 C825 1.499 . S
C823 H797 0.950 . S
C823 C822 1.414 . S
C823 C824 1.374 . S
C824 H798 0.950 . S
C824 C820 1.385 . S
C824 C823 1.374 . S
C825 C822 1.499 . S
C825 C826 1.373 . S
C825 C827 1.389 . S
C826 H799 0.950 . S
C826 C812 1.377 . S
C826 C825 1.373 . S
C827 C811 1.377 . S
C827 C825 1.389 . S
C827 C828 1.524 . S
C828 C827 1.524 . S
C828 C829 1.397 . S
C828 C833 1.363 . S
C829 H800 0.950 . S
C829 C828 1.397 . S
C829 C830 1.334 . S
C830 H801 0.950 . S
C830 C829 1.334 . S
C830 C831 1.287 . S
C831 C830 1.287 . S
C831 C832 1.524 . S
C831 H834 0.999 . S
C832 H802 0.950 . S
C832 C831 1.524 . S
C832 C833 1.415 . S
C833 H803 0.950 . S
C833 C828 1.363 . S
C833 C832 1.415 . S
H834 C831 0.999 . S
H835 C816 0.913 . S
H836 C854 0.951 . S
H837 C856 0.951 . S
H838 C858 0.950 . S
H839 C859 0.950 . S
H840 C861 0.950 . S
H841 C864 0.950 . S
H842 C865 0.950 . S
H843 C867 0.950 . S
H844 C868 0.950 . S
H845 C869 0.951 . S
H846 C871 0.951 . S
H847 C873 0.950 . S
H848 C874 0.950 . S
H849 C876 0.950 . S
H850 C879 0.950 . S
H851 C880 0.950 . S
H852 C882 0.950 . S
H853 C883 0.950 . S
C854 H836 0.951 . S
C854 C855 1.366 . S
C854 C856 1.388 . S
C855 C854 1.366 . S
C855 C859 1.385 . S
C856 H837 0.951 . S
C856 C854 1.388 . S
C856 C857 1.366 . S
C857 C856 1.366 . S
C857 C858 1.414 . S
C857 C860 1.499 . S
C858 H838 0.950 . S
C858 C857 1.414 . S
C858 C859 1.374 . S
C859 H839 0.950 . S
C859 C855 1.385 . S
C859 C858 1.374 . S
C860 C857 1.499 . S
C860 C861 1.373 . S
C860 C862 1.389 . S
C861 H840 0.950 . S
C861 C860 1.373 . S
C861 C877 1.377 . S
C862 C860 1.389 . S
C862 C863 1.524 . S
C862 C876 1.377 . S
C863 C862 1.524 . S
C863 C864 1.397 . S
C863 C868 1.363 . S
C864 H841 0.950 . S
C864 C863 1.397 . S
C864 C865 1.334 . S
C865 H842 0.950 . S
C865 C864 1.334 . S
C865 C866 1.287 . S
C866 C865 1.287 . S
C866 C867 1.524 . S
C866 H885 0.913 . S
C867 H843 0.950 . S
C867 C866 1.524 . S
C867 C868 1.415 . S
C868 H844 0.950 . S
C868 C863 1.363 . S
C868 C867 1.415 . S
C869 H845 0.951 . S
C869 C870 1.366 . S
C869 C871 1.388 . S
C870 C869 1.366 . S
C870 C874 1.385 . S
C871 H846 0.951 . S
C871 C869 1.388 . S
C871 C872 1.366 . S
C872 C871 1.366 . S
C872 C873 1.414 . S
C872 C875 1.499 . S
C873 H847 0.950 . S
C873 C872 1.414 . S
C873 C874 1.374 . S
C874 H848 0.950 . S
C874 C870 1.385 . S
C874 C873 1.374 . S
C875 C872 1.499 . S
C875 C876 1.373 . S
C875 C877 1.389 . S
C876 H849 0.950 . S
C876 C862 1.377 . S
C876 C875 1.373 . S
C877 C861 1.377 . S
C877 C875 1.389 . S
C877 C878 1.524 . S
C878 C877 1.524 . S
C878 C879 1.397 . S
C878 C883 1.363 . S
C879 H850 0.950 . S
C879 C878 1.397 . S
C879 C880 1.334 . S
C880 H851 0.950 . S
C880 C879 1.334 . S
C880 C881 1.287 . S
C881 C880 1.287 . S
C881 C882 1.524 . S
C881 H884 0.999 . S
C882 H852 0.950 . S
C882 C881 1.524 . S
C882 C883 1.415 . S
C883 H853 0.950 . S
C883 C878 1.363 . S
C883 C882 1.415 . S
H884 C881 0.999 . S
H885 C866 0.913 . S
H886 C904 0.951 . S
H887 C906 0.951 . S
H888 C908 0.950 . S
H889 C909 0.950 . S
H890 C911 0.950 . S
H891 C914 0.950 . S
H892 C915 0.950 . S
H893 C917 0.950 . S
H894 C918 0.950 . S
H895 C919 0.951 . S
H896 C921 0.951 . S
H897 C923 0.950 . S
H898 C924 0.950 . S
H899 C926 0.950 . S
H900 C929 0.950 . S
H901 C930 0.950 . S
H902 C932 0.950 . S
H903 C933 0.950 . S
C904 H886 0.951 . S
C904 C905 1.366 . S
C904 C906 1.388 . S
C905 C904 1.366 . S
C905 C909 1.385 . S
C906 H887 0.951 . S
C906 C904 1.388 . S
C906 C907 1.366 . S
C907 C906 1.366 . S
C907 C908 1.414 . S
C907 C910 1.499 . S
C908 H888 0.950 . S
C908 C907 1.414 . S
C908 C909 1.374 . S
C909 H889 0.950 . S
C909 C905 1.385 . S
C909 C908 1.374 . S
C910 C907 1.499 . S
C910 C911 1.373 . S
C910 C912 1.389 . S
C911 H890 0.950 . S
C911 C910 1.373 . S
C911 C927 1.377 . S
C912 C910 1.389 . S
C912 C913 1.524 . S
C912 C926 1.377 . S
C913 C912 1.524 . S
C913 C914 1.397 . S
C913 C918 1.363 . S
C914 H891 0.950 . S
C914 C913 1.397 . S
C914 C915 1.334 . S
C915 H892 0.950 . S
C915 C914 1.334 . S
C915 C916 1.287 . S
C916 C915 1.287 . S
C916 C917 1.524 . S
C916 H935 0.913 . S
C917 H893 0.950 . S
C917 C916 1.524 . S
C917 C918 1.415 . S
C918 H894 0.950 . S
C918 C913 1.363 . S
C918 C917 1.415 . S
C919 H895 0.951 . S
C919 C920 1.366 . S
C919 C921 1.388 . S
C920 C919 1.366 . S
C920 C924 1.385 . S
C921 H896 0.951 . S
C921 C919 1.388 . S
C921 C922 1.366 . S
C922 C921 1.366 . S
C922 C923 1.414 . S
C922 C925 1.499 . S
C923 H897 0.950 . S
C923 C922 1.414 . S
C923 C924 1.374 . S
C924 H898 0.950 . S
C924 C920 1.385 . S
C924 C923 1.374 . S
C925 C922 1.499 . S
C925 C926 1.373 . S
C925 C927 1.389 . S
C926 H899 0.950 . S
C926 C912 1.377 . S
C926 C925 1.373 . S
C927 C911 1.377 . S
C927 C925 1.389 . S
C927 C928 1.524 . S
C928 C927 1.524 . S
C928 C929 1.397 . S
C928 C933 1.363 . S
C929 H900 0.950 . S
C929 C928 1.397 . S
C929 C930 1.334 . S
C930 H901 0.950 . S
C930 C929 1.334 . S
C930 C931 1.287 . S
C931 C930 1.287 . S
C931 C932 1.524 . S
C931 H934 0.999 . S
C932 H902 0.950 . S
C932 C931 1.524 . S
C932 C933 1.415 . S
C933 H903 0.950 . S
C933 C928 1.363 . S
C933 C932 1.415 . S
H934 C931 0.999 . S
H935 C916 0.913 . S
H936 C954 0.951 . S
H937 C956 0.951 . S
H938 C958 0.950 1_554 S
H939 C959 0.950 . S
H940 C961 0.950 . S
H941 C964 0.950 . S
H942 C965 0.950 . S
H943 C967 0.950 . S
H944 C968 0.950 . S
H945 C969 0.951 . S
H946 C971 0.951 . S
H947 C973 0.950 1_556 S
H948 C974 0.950 . S
H949 C976 0.950 . S
H950 C979 0.950 . S
H951 C980 0.950 . S
H952 C982 0.950 . S
H953 C983 0.950 . S
C954 H936 0.951 . S
C954 C955 1.366 . S
C954 C956 1.388 . S
C955 C954 1.366 . S
C955 C959 1.385 . S
C956 H937 0.951 . S
C956 C954 1.388 . S
C956 C957 1.366 . S
C957 C956 1.366 . S
C957 C958 1.414 . S
C957 C960 1.499 . S
C958 H938 0.950 1_556 S
C958 C957 1.414 . S
C958 C959 1.374 . S
C959 H939 0.950 . S
C959 C955 1.385 . S
C959 C958 1.374 . S
C960 C957 1.499 . S
C960 C961 1.373 1_556 S
C960 C962 1.389 . S
C961 H940 0.950 . S
C961 C960 1.373 1_554 S
C961 C977 1.377 . S
C962 C960 1.389 . S
C962 C963 1.524 . S
C962 C976 1.377 . S
C963 C962 1.524 . S
C963 C964 1.397 . S
C963 C968 1.363 . S
C964 H941 0.950 . S
C964 C963 1.397 . S
C964 C965 1.334 . S
C965 H942 0.950 . S
C965 C964 1.334 . S
C965 C966 1.287 . S
C966 C965 1.287 . S
C966 C967 1.524 . S
C966 H985 0.913 . S
C967 H943 0.950 . S
C967 C966 1.524 . S
C967 C968 1.415 . S
C968 H944 0.950 . S
C968 C963 1.363 . S
C968 C967 1.415 . S
C969 H945 0.951 . S
C969 C970 1.366 . S
C969 C971 1.388 . S
C970 C969 1.366 . S
C970 C974 1.385 . S
C971 H946 0.951 . S
C971 C969 1.388 . S
C971 C972 1.366 . S
C972 C971 1.366 . S
C972 C973 1.414 . S
C972 C975 1.499 . S
C973 H947 0.950 1_554 S
C973 C972 1.414 . S
C973 C974 1.374 . S
C974 H948 0.950 . S
C974 C970 1.385 . S
C974 C973 1.374 . S
C975 C972 1.499 . S
C975 C976 1.373 1_554 S
C975 C977 1.389 . S
C976 H949 0.950 . S
C976 C962 1.377 . S
C976 C975 1.373 1_556 S
C977 C961 1.377 . S
C977 C975 1.389 . S
C977 C978 1.524 . S
C978 C977 1.524 . S
C978 C979 1.397 . S
C978 C983 1.363 . S
C979 H950 0.950 . S
C979 C978 1.397 . S
C979 C980 1.334 . S
C980 H951 0.950 . S
C980 C979 1.334 . S
C980 C981 1.287 . S
C981 C980 1.287 . S
C981 C982 1.524 . S
C981 H984 0.999 . S
C982 H952 0.950 . S
C982 C981 1.524 . S
C982 C983 1.415 . S
C983 H953 0.950 . S
C983 C978 1.363 . S
C983 C982 1.415 . S
H984 C981 0.999 . S
H985 C966 0.913 . S
H986 C1004 0.951 . S
H987 C1006 0.951 . S
H988 C1008 0.950 . S
H989 C1009 0.950 . S
H990 C1011 0.950 . S
H991 C1014 0.950 . S
H992 C1015 0.950 . S
H993 C1017 0.950 . S
H994 C1018 0.950 . S
H995 C1019 0.951 . S
H996 C1021 0.951 . S
H997 C1023 0.950 . S
H998 C1024 0.950 . S
H999 C1026 0.950 . S
H1000 C1029 0.950 . S
H1001 C1030 0.950 . S
H1002 C1032 0.950 . S
H1003 C1033 0.950 . S
C1004 H986 0.951 . S
C1004 C1005 1.366 . S
C1004 C1006 1.388 . S
C1005 C1004 1.366 . S
C1005 C1009 1.385 . S
C1006 H987 0.951 . S
C1006 C1004 1.388 . S
C1006 C1007 1.366 . S
C1007 C1006 1.366 . S
C1007 C1008 1.414 . S
C1007 C1010 1.499 . S
C1008 H988 0.950 . S
C1008 C1007 1.414 . S
C1008 C1009 1.374 . S
C1009 H989 0.950 . S
C1009 C1005 1.385 . S
C1009 C1008 1.374 . S
C1010 C1007 1.499 . S
C1010 C1011 1.373 . S
C1010 C1012 1.389 . S
C1011 H990 0.950 . S
C1011 C1010 1.373 . S
C1011 C1027 1.377 . S
C1012 C1010 1.389 . S
C1012 C1013 1.524 . S
C1012 C1026 1.377 . S
C1013 C1012 1.524 . S
C1013 C1014 1.397 . S
C1013 C1018 1.363 . S
C1014 H991 0.950 . S
C1014 C1013 1.397 . S
C1014 C1015 1.334 . S
C1015 H992 0.950 . S
C1015 C1014 1.334 . S
C1015 C1016 1.287 . S
C1016 C1015 1.287 . S
C1016 C1017 1.524 . S
C1016 H1035 0.913 . S
C1017 H993 0.950 . S
C1017 C1016 1.524 . S
C1017 C1018 1.415 . S
C1018 H994 0.950 . S
C1018 C1013 1.363 . S
C1018 C1017 1.415 . S
C1019 H995 0.951 . S
C1019 C1020 1.366 . S
C1019 C1021 1.388 . S
C1020 C1019 1.366 . S
C1020 C1024 1.385 . S
C1021 H996 0.951 . S
C1021 C1019 1.388 . S
C1021 C1022 1.366 . S
C1022 C1021 1.366 . S
C1022 C1023 1.414 . S
C1022 C1025 1.499 . S
C1023 H997 0.950 . S
C1023 C1022 1.414 . S
C1023 C1024 1.374 . S
C1024 H998 0.950 . S
C1024 C1020 1.385 . S
C1024 C1023 1.374 . S
C1025 C1022 1.499 . S
C1025 C1026 1.373 . S
C1025 C1027 1.389 . S
C1026 H999 0.950 . S
C1026 C1012 1.377 . S
C1026 C1025 1.373 . S
C1027 C1011 1.377 . S
C1027 C1025 1.389 . S
C1027 C1028 1.524 . S
C1028 C1027 1.524 . S
C1028 C1029 1.397 . S
C1028 C1033 1.363 . S
C1029 H1000 0.950 . S
C1029 C1028 1.397 . S
C1029 C1030 1.334 . S
C1030 H1001 0.950 . S
C1030 C1029 1.334 . S
C1030 C1031 1.287 . S
C1031 C1030 1.287 . S
C1031 C1032 1.524 . S
C1031 H1034 0.999 . S
C1032 H1002 0.950 . S
C1032 C1031 1.524 . S
C1032 C1033 1.415 . S
C1033 H1003 0.950 . S
C1033 C1028 1.363 . S
C1033 C1032 1.415 . S
H1034 C1031 0.999 . S
H1035 C1016 0.913 . S
H1036 C1054 0.951 . S
H1037 C1056 0.951 . S
H1038 C1058 0.950 . S
H1039 C1059 0.950 . S
H1040 C1061 0.950 . S
H1041 C1064 0.950 . S
H1042 C1065 0.950 . S
H1043 C1067 0.950 . S
H1044 C1068 0.950 . S
H1045 C1069 0.951 . S
H1046 C1071 0.951 . S
H1047 C1073 0.950 . S
H1048 C1074 0.950 . S
H1049 C1076 0.950 . S
H1050 C1079 0.950 . S
H1051 C1080 0.950 . S
H1052 C1082 0.950 . S
H1053 C1083 0.950 . S
C1054 H1036 0.951 . S
C1054 C1055 1.366 . S
C1054 C1056 1.388 . S
C1055 C1054 1.366 . S
C1055 C1059 1.385 . S
C1056 H1037 0.951 . S
C1056 C1054 1.388 . S
C1056 C1057 1.366 . S
C1057 C1056 1.366 . S
C1057 C1058 1.414 . S
C1057 C1060 1.499 . S
C1058 H1038 0.950 . S
C1058 C1057 1.414 . S
C1058 C1059 1.374 . S
C1059 H1039 0.950 . S
C1059 C1055 1.385 . S
C1059 C1058 1.374 . S
C1060 C1057 1.499 . S
C1060 C1061 1.373 1_554 S
C1060 C1062 1.389 . S
C1061 H1040 0.950 . S
C1061 C1060 1.373 1_556 S
C1061 C1077 1.377 . S
C1062 C1060 1.389 . S
C1062 C1063 1.524 . S
C1062 C1076 1.377 . S
C1063 C1062 1.524 . S
C1063 C1064 1.397 . S
C1063 C1068 1.363 . S
C1064 H1041 0.950 . S
C1064 C1063 1.397 . S
C1064 C1065 1.334 . S
C1065 H1042 0.950 . S
C1065 C1064 1.334 . S
C1065 C1066 1.287 . S
C1066 C1065 1.287 . S
C1066 C1067 1.524 . S
C1066 H1085 0.913 . S
C1067 H1043 0.950 . S
C1067 C1066 1.524 . S
C1067 C1068 1.415 . S
C1068 H1044 0.950 . S
C1068 C1063 1.363 . S
C1068 C1067 1.415 . S
C1069 H1045 0.951 . S
C1069 C1070 1.366 . S
C1069 C1071 1.388 . S
C1070 C1069 1.366 . S
C1070 C1074 1.385 . S
C1071 H1046 0.951 . S
C1071 C1069 1.388 . S
C1071 C1072 1.366 . S
C1072 C1071 1.366 . S
C1072 C1073 1.414 . S
C1072 C1075 1.499 . S
C1073 H1047 0.950 . S
C1073 C1072 1.414 . S
C1073 C1074 1.374 . S
C1074 H1048 0.950 . S
C1074 C1070 1.385 . S
C1074 C1073 1.374 . S
C1075 C1072 1.499 . S
C1075 C1076 1.373 1_556 S
C1075 C1077 1.389 . S
C1076 H1049 0.950 . S
C1076 C1062 1.377 . S
C1076 C1075 1.373 1_554 S
C1077 C1061 1.377 . S
C1077 C1075 1.389 . S
C1077 C1078 1.524 . S
C1078 C1077 1.524 . S
C1078 C1079 1.397 . S
C1078 C1083 1.363 . S
C1079 H1050 0.950 . S
C1079 C1078 1.397 . S
C1079 C1080 1.334 . S
C1080 H1051 0.950 . S
C1080 C1079 1.334 . S
C1080 C1081 1.287 . S
C1081 C1080 1.287 . S
C1081 C1082 1.524 . S
C1081 H1084 0.999 . S
C1082 H1052 0.950 . S
C1082 C1081 1.524 . S
C1082 C1083 1.415 . S
C1083 H1053 0.950 . S
C1083 C1078 1.363 . S
C1083 C1082 1.415 . S
H1084 C1081 0.999 . S
H1085 C1066 0.913 . S
H1086 C1104 0.951 . S
H1087 C1106 0.951 . S
H1088 C1108 0.950 . S
H1089 C1109 0.950 . S
H1090 C1111 0.950 . S
H1091 C1114 0.950 . S
H1092 C1115 0.950 . S
H1093 C1117 0.950 . S
H1094 C1118 0.950 . S
H1095 C1119 0.951 . S
H1096 C1121 0.951 . S
H1097 C1123 0.950 . S
H1098 C1124 0.950 . S
H1099 C1126 0.950 . S
H1100 C1129 0.950 . S
H1101 C1130 0.950 . S
H1102 C1132 0.950 . S
H1103 C1133 0.950 . S
C1104 H1086 0.951 . S
C1104 C1105 1.366 . S
C1104 C1106 1.388 . S
C1105 C1104 1.366 . S
C1105 C1109 1.385 . S
C1106 H1087 0.951 . S
C1106 C1104 1.388 . S
C1106 C1107 1.366 . S
C1107 C1106 1.366 . S
C1107 C1108 1.414 . S
C1107 C1110 1.499 . S
C1108 H1088 0.950 . S
C1108 C1107 1.414 . S
C1108 C1109 1.374 . S
C1109 H1089 0.950 . S
C1109 C1105 1.385 . S
C1109 C1108 1.374 . S
C1110 C1107 1.499 . S
C1110 C1111 1.373 . S
C1110 C1112 1.389 . S
C1111 H1090 0.950 . S
C1111 C1110 1.373 . S
C1111 C1127 1.377 . S
C1112 C1110 1.389 . S
C1112 C1113 1.524 . S
C1112 C1126 1.377 . S
C1113 C1112 1.524 . S
C1113 C1114 1.397 . S
C1113 C1118 1.363 . S
C1114 H1091 0.950 . S
C1114 C1113 1.397 . S
C1114 C1115 1.334 . S
C1115 H1092 0.950 . S
C1115 C1114 1.334 . S
C1115 C1116 1.287 . S
C1116 C1115 1.287 . S
C1116 C1117 1.524 . S
C1116 H1135 0.913 . S
C1117 H1093 0.950 . S
C1117 C1116 1.524 . S
C1117 C1118 1.415 . S
C1118 H1094 0.950 . S
C1118 C1113 1.363 . S
C1118 C1117 1.415 . S
C1119 H1095 0.951 . S
C1119 C1120 1.366 . S
C1119 C1121 1.388 . S
C1120 C1119 1.366 . S
C1120 C1124 1.385 . S
C1121 H1096 0.951 . S
C1121 C1119 1.388 . S
C1121 C1122 1.366 . S
C1122 C1121 1.366 . S
C1122 C1123 1.414 . S
C1122 C1125 1.499 . S
C1123 H1097 0.950 . S
C1123 C1122 1.414 . S
C1123 C1124 1.374 . S
C1124 H1098 0.950 . S
C1124 C1120 1.385 . S
C1124 C1123 1.374 . S
C1125 C1122 1.499 . S
C1125 C1126 1.373 . S
C1125 C1127 1.389 . S
C1126 H1099 0.950 . S
C1126 C1112 1.377 . S
C1126 C1125 1.373 . S
C1127 C1111 1.377 . S
C1127 C1125 1.389 . S
C1127 C1128 1.524 . S
C1128 C1127 1.524 . S
C1128 C1129 1.397 . S
C1128 C1133 1.363 . S
C1129 H1100 0.950 . S
C1129 C1128 1.397 . S
C1129 C1130 1.334 . S
C1130 H1101 0.950 . S
C1130 C1129 1.334 . S
C1130 C1131 1.287 . S
C1131 C1130 1.287 . S
C1131 C1132 1.524 . S
C1131 H1134 0.999 . S
C1132 H1102 0.950 . S
C1132 C1131 1.524 . S
C1132 C1133 1.415 . S
C1133 H1103 0.950 . S
C1133 C1128 1.363 . S
C1133 C1132 1.415 . S
H1134 C1131 0.999 . S
H1135 C1116 0.913 . S
H1136 C1154 0.951 . S
H1137 C1156 0.951 . S
H1138 C1158 0.950 1_554 S
H1139 C1159 0.950 . S
H1140 C1161 0.950 . S
H1141 C1164 0.950 . S
H1142 C1165 0.950 . S
H1143 C1167 0.950 . S
H1144 C1168 0.950 . S
H1145 C1169 0.951 . S
H1146 C1171 0.951 . S
H1147 C1173 0.950 1_556 S
H1148 C1174 0.950 . S
H1149 C1176 0.950 . S
H1150 C1179 0.950 . S
H1151 C1180 0.950 . S
H1152 C1182 0.950 . S
H1153 C1183 0.950 . S
C1154 H1136 0.951 . S
C1154 C1155 1.366 . S
C1154 C1156 1.388 . S
C1155 C1154 1.366 . S
C1155 C1159 1.385 . S
C1156 H1137 0.951 . S
C1156 C1154 1.388 . S
C1156 C1157 1.366 . S
C1157 C1156 1.366 . S
C1157 C1158 1.414 . S
C1157 C1160 1.499 . S
C1158 H1138 0.950 1_556 S
C1158 C1157 1.414 . S
C1158 C1159 1.374 . S
C1159 H1139 0.950 . S
C1159 C1155 1.385 . S
C1159 C1158 1.374 . S
C1160 C1157 1.499 . S
C1160 C1161 1.373 1_556 S
C1160 C1162 1.389 . S
C1161 H1140 0.950 . S
C1161 C1160 1.373 1_554 S
C1161 C1177 1.377 . S
C1162 C1160 1.389 . S
C1162 C1163 1.524 . S
C1162 C1176 1.377 . S
C1163 C1162 1.524 . S
C1163 C1164 1.397 . S
C1163 C1168 1.363 . S
C1164 H1141 0.950 . S
C1164 C1163 1.397 . S
C1164 C1165 1.334 . S
C1165 H1142 0.950 . S
C1165 C1164 1.334 . S
C1165 C1166 1.287 . S
C1166 C1165 1.287 . S
C1166 C1167 1.524 . S
C1166 H1185 0.913 . S
C1167 H1143 0.950 . S
C1167 C1166 1.524 . S
C1167 C1168 1.415 . S
C1168 H1144 0.950 . S
C1168 C1163 1.363 . S
C1168 C1167 1.415 . S
C1169 H1145 0.951 . S
C1169 C1170 1.366 . S
C1169 C1171 1.388 . S
C1170 C1169 1.366 . S
C1170 C1174 1.385 . S
C1171 H1146 0.951 . S
C1171 C1169 1.388 . S
C1171 C1172 1.366 . S
C1172 C1171 1.366 . S
C1172 C1173 1.414 . S
C1172 C1175 1.499 . S
C1173 H1147 0.950 1_554 S
C1173 C1172 1.414 . S
C1173 C1174 1.374 . S
C1174 H1148 0.950 . S
C1174 C1170 1.385 . S
C1174 C1173 1.374 . S
C1175 C1172 1.499 . S
C1175 C1176 1.373 1_554 S
C1175 C1177 1.389 . S
C1176 H1149 0.950 . S
C1176 C1162 1.377 . S
C1176 C1175 1.373 1_556 S
C1177 C1161 1.377 . S
C1177 C1175 1.389 . S
C1177 C1178 1.524 . S
C1178 C1177 1.524 . S
C1178 C1179 1.397 . S
C1178 C1183 1.363 . S
C1179 H1150 0.950 . S
C1179 C1178 1.397 . S
C1179 C1180 1.334 . S
C1180 H1151 0.950 . S
C1180 C1179 1.334 . S
C1180 C1181 1.287 . S
C1181 C1180 1.287 . S
C1181 C1182 1.524 . S
C1181 H1184 0.999 . S
C1182 H1152 0.950 . S
C1182 C1181 1.524 . S
C1182 C1183 1.415 . S
C1183 H1153 0.950 . S
C1183 C1178 1.363 . S
C1183 C1182 1.415 . S
H1184 C1181 0.999 . S
H1185 C1166 0.913 . S
H1186 C1204 0.951 . S
H1187 C1206 0.951 . S
H1188 C1208 0.950 . S
H1189 C1209 0.950 . S
H1190 C1211 0.950 . S
H1191 C1214 0.950 . S
H1192 C1215 0.950 . S
H1193 C1217 0.950 . S
H1194 C1218 0.950 . S
H1195 C1219 0.951 . S
H1196 C1221 0.951 . S
H1197 C1223 0.950 . S
H1198 C1224 0.950 . S
H1199 C1226 0.950 . S
H1200 C1229 0.950 . S
H1201 C1230 0.950 . S
H1202 C1232 0.950 . S
H1203 C1233 0.950 . S
C1204 H1186 0.951 . S
C1204 C1205 1.366 . S
C1204 C1206 1.388 . S
C1205 C1204 1.366 . S
C1205 C1209 1.385 . S
C1206 H1187 0.951 . S
C1206 C1204 1.388 . S
C1206 C1207 1.366 . S
C1207 C1206 1.366 . S
C1207 C1208 1.414 . S
C1207 C1210 1.499 . S
C1208 H1188 0.950 . S
C1208 C1207 1.414 . S
C1208 C1209 1.374 . S
C1209 H1189 0.950 . S
C1209 C1205 1.385 . S
C1209 C1208 1.374 . S
C1210 C1207 1.499 . S
C1210 C1211 1.373 . S
C1210 C1212 1.389 . S
C1211 H1190 0.950 . S
C1211 C1210 1.373 . S
C1211 C1227 1.377 . S
C1212 C1210 1.389 . S
C1212 C1213 1.524 . S
C1212 C1226 1.377 . S
C1213 C1212 1.524 . S
C1213 C1214 1.397 . S
C1213 C1218 1.363 . S
C1214 H1191 0.950 . S
C1214 C1213 1.397 . S
C1214 C1215 1.334 . S
C1215 H1192 0.950 . S
C1215 C1214 1.334 . S
C1215 C1216 1.287 . S
C1216 C1215 1.287 . S
C1216 C1217 1.524 . S
C1216 H1235 0.913 . S
C1217 H1193 0.950 . S
C1217 C1216 1.524 . S
C1217 C1218 1.415 . S
C1218 H1194 0.950 . S
C1218 C1213 1.363 . S
C1218 C1217 1.415 . S
C1219 H1195 0.951 . S
C1219 C1220 1.366 . S
C1219 C1221 1.388 . S
C1220 C1219 1.366 . S
C1220 C1224 1.385 . S
C1221 H1196 0.951 . S
C1221 C1219 1.388 . S
C1221 C1222 1.366 . S
C1222 C1221 1.366 . S
C1222 C1223 1.414 . S
C1222 C1225 1.499 . S
C1223 H1197 0.950 . S
C1223 C1222 1.414 . S
C1223 C1224 1.374 . S
C1224 H1198 0.950 . S
C1224 C1220 1.385 . S
C1224 C1223 1.374 . S
C1225 C1222 1.499 . S
C1225 C1226 1.373 . S
C1225 C1227 1.389 . S
C1226 H1199 0.950 . S
C1226 C1212 1.377 . S
C1226 C1225 1.373 . S
C1227 C1211 1.377 . S
C1227 C1225 1.389 . S
C1227 C1228 1.524 . S
C1228 C1227 1.524 . S
C1228 C1229 1.397 . S
C1228 C1233 1.363 . S
C1229 H1200 0.950 . S
C1229 C1228 1.397 . S
C1229 C1230 1.334 . S
C1230 H1201 0.950 . S
C1230 C1229 1.334 . S
C1230 C1231 1.287 . S
C1231 C1230 1.287 . S
C1231 C1232 1.524 . S
C1231 H1234 0.999 . S
C1232 H1202 0.950 . S
C1232 C1231 1.524 . S
C1232 C1233 1.415 . S
C1233 H1203 0.950 . S
C1233 C1228 1.363 . S
C1233 C1232 1.415 . S
H1234 C1231 0.999 . S
H1235 C1216 0.913 . S
H1236 C1254 0.951 . S
H1237 C1256 0.951 1_556 S
H1238 C1258 0.950 . S
H1239 C1259 0.950 . S
H1240 C1261 0.950 . S
H1241 C1264 0.950 1_554 S
H1242 C1265 0.967 . S
H1243 C1267 0.950 . S
H1244 C1268 0.950 . S
H1245 C1269 0.951 . S
H1246 C1271 0.951 1_554 S
H1247 C1273 0.950 . S
H1248 C1274 0.950 . S
H1249 C1276 0.950 . S
H1250 C1279 0.950 1_556 S
H1251 C1280 0.967 . S
H1252 C1282 0.950 . S
H1253 C1283 0.950 . S
C1254 H1236 0.951 . S
C1254 C1255 1.366 . S
C1254 C1256 1.388 . S
C1255 C1254 1.366 . S
C1255 C1259 1.385 . S
C1256 H1237 0.951 1_554 S
C1256 C1254 1.388 . S
C1256 C1257 1.366 . S
C1257 C1256 1.366 . S
C1257 C1258 1.414 . S
C1257 C1260 1.499 . S
C1258 H1238 0.950 . S
C1258 C1257 1.414 . S
C1258 C1259 1.374 . S
C1259 H1239 0.950 . S
C1259 C1255 1.385 . S
C1259 C1258 1.374 . S
C1260 C1257 1.499 . S
C1260 C1261 1.373 . S
C1260 C1262 1.389 1_554 S
C1261 H1240 0.950 . S
C1261 C1260 1.373 . S
C1261 C1277 1.377 . S
C1262 C1260 1.389 1_556 S
C1262 C1263 1.524 . S
C1262 C1276 1.377 . S
C1263 C1262 1.524 . S
C1263 C1264 1.397 . S
C1263 C1268 1.363 . S
C1264 H1241 0.950 1_556 S
C1264 C1263 1.397 . S
C1264 C1265 1.334 . S
C1265 H1242 0.967 . S
C1265 C1264 1.334 . S
C1265 C1266 1.287 . S
C1266 C1265 1.287 . S
C1266 C1267 1.524 . S
C1266 H1285 0.913 . S
C1267 H1243 0.950 . S
C1267 C1266 1.524 . S
C1267 C1268 1.415 . S
C1268 H1244 0.950 . S
C1268 C1263 1.363 . S
C1268 C1267 1.415 . S
C1269 H1245 0.951 . S
C1269 C1270 1.366 . S
C1269 C1271 1.388 . S
C1270 C1269 1.366 . S
C1270 C1274 1.385 . S
C1271 H1246 0.951 1_556 S
C1271 C1269 1.388 . S
C1271 C1272 1.366 . S
C1272 C1271 1.366 . S
C1272 C1273 1.414 . S
C1272 C1275 1.499 . S
C1273 H1247 0.950 . S
C1273 C1272 1.414 . S
C1273 C1274 1.374 . S
C1274 H1248 0.950 . S
C1274 C1270 1.385 . S
C1274 C1273 1.374 . S
C1275 C1272 1.499 . S
C1275 C1276 1.373 . S
C1275 C1277 1.389 1_556 S
C1276 H1249 0.950 . S
C1276 C1262 1.377 . S
C1276 C1275 1.373 . S
C1277 C1261 1.377 . S
C1277 C1275 1.389 1_554 S
C1277 C1278 1.524 . S
C1278 C1277 1.524 . S
C1278 C1279 1.397 . S
C1278 C1283 1.363 . S
C1279 H1250 0.950 1_554 S
C1279 C1278 1.397 . S
C1279 C1280 1.334 . S
C1280 H1251 0.967 . S
C1280 C1279 1.334 . S
C1280 C1281 1.287 . S
C1281 C1280 1.287 . S
C1281 C1282 1.524 . S
C1281 H1284 0.999 . S
C1282 H1252 0.950 . S
C1282 C1281 1.524 . S
C1282 C1283 1.415 . S
C1283 H1253 0.950 . S
C1283 C1278 1.363 . S
C1283 C1282 1.415 . S
H1284 C1281 0.999 . S
H1285 C1266 0.913 . S
H1286 C1304 0.951 . S
H1287 C1306 0.951 . S
H1288 C1308 0.950 . S
H1289 C1309 0.950 . S
H1290 C1311 0.950 . S
H1291 C1314 0.950 . S
H1292 C1315 0.950 . S
H1293 C1317 0.950 . S
H1294 C1318 0.950 . S
H1295 C1319 0.951 . S
H1296 C1321 0.951 . S
H1297 C1323 0.950 . S
H1298 C1324 0.950 . S
H1299 C1326 0.950 . S
H1300 C1329 0.950 . S
H1301 C1330 0.950 . S
H1302 C1332 0.950 . S
H1303 C1333 0.950 . S
C1304 H1286 0.951 . S
C1304 C1305 1.366 . S
C1304 C1306 1.388 . S
C1305 C1304 1.366 . S
C1305 C1309 1.385 . S
C1306 H1287 0.951 . S
C1306 C1304 1.388 . S
C1306 C1307 1.366 . S
C1307 C1306 1.366 . S
C1307 C1308 1.414 . S
C1307 C1310 1.499 . S
C1308 H1288 0.950 . S
C1308 C1307 1.414 . S
C1308 C1309 1.374 . S
C1309 H1289 0.950 . S
C1309 C1305 1.385 . S
C1309 C1308 1.374 . S
C1310 C1307 1.499 . S
C1310 C1311 1.373 . S
C1310 C1312 1.389 . S
C1311 H1290 0.950 . S
C1311 C1310 1.373 . S
C1311 C1327 1.377 . S
C1312 C1310 1.389 . S
C1312 C1313 1.524 . S
C1312 C1326 1.377 . S
C1313 C1312 1.524 . S
C1313 C1314 1.397 . S
C1313 C1318 1.363 . S
C1314 H1291 0.950 . S
C1314 C1313 1.397 . S
C1314 C1315 1.334 . S
C1315 H1292 0.950 . S
C1315 C1314 1.334 . S
C1315 C1316 1.287 . S
C1316 C1315 1.287 . S
C1316 C1317 1.524 . S
C1316 H1335 0.913 . S
C1317 H1293 0.950 . S
C1317 C1316 1.524 . S
C1317 C1318 1.415 . S
C1318 H1294 0.950 . S
C1318 C1313 1.363 . S
C1318 C1317 1.415 . S
C1319 H1295 0.951 . S
C1319 C1320 1.366 . S
C1319 C1321 1.388 . S
C1320 C1319 1.366 . S
C1320 C1324 1.385 . S
C1321 H1296 0.951 . S
C1321 C1319 1.388 . S
C1321 C1322 1.366 . S
C1322 C1321 1.366 . S
C1322 C1323 1.414 . S
C1322 C1325 1.499 . S
C1323 H1297 0.950 . S
C1323 C1322 1.414 . S
C1323 C1324 1.374 . S
C1324 H1298 0.950 . S
C1324 C1320 1.385 . S
C1324 C1323 1.374 . S
C1325 C1322 1.499 . S
C1325 C1326 1.373 . S
C1325 C1327 1.389 . S
C1326 H1299 0.950 . S
C1326 C1312 1.377 . S
C1326 C1325 1.373 . S
C1327 C1311 1.377 . S
C1327 C1325 1.389 . S
C1327 C1328 1.524 . S
C1328 C1327 1.524 . S
C1328 C1329 1.397 . S
C1328 C1333 1.363 . S
C1329 H1300 0.950 . S
C1329 C1328 1.397 . S
C1329 C1330 1.334 . S
C1330 H1301 0.950 . S
C1330 C1329 1.334 . S
C1330 C1331 1.287 . S
C1331 C1330 1.287 . S
C1331 C1332 1.524 . S
C1331 H1334 0.999 . S
C1332 H1302 0.950 . S
C1332 C1331 1.524 . S
C1332 C1333 1.415 . S
C1333 H1303 0.950 . S
C1333 C1328 1.363 . S
C1333 C1332 1.415 . S
H1334 C1331 0.999 . S
H1335 C1316 0.913 . S
H1336 C1354 0.951 . S
H1337 C1356 0.951 . S
H1338 C1358 0.950 . S
H1339 C1359 0.950 . S
H1340 C1361 0.950 . S
H1341 C1364 0.950 . S
H1342 C1365 0.950 . S
H1343 C1367 0.950 . S
H1344 C1368 0.950 . S
H1345 C1369 0.951 . S
H1346 C1371 0.951 . S
H1347 C1373 0.950 . S
H1348 C1374 0.950 . S
H1349 C1376 0.950 . S
H1350 C1379 0.950 . S
H1351 C1380 0.950 . S
H1352 C1382 0.950 . S
H1353 C1383 0.950 . S
C1354 H1336 0.951 . S
C1354 C1355 1.366 . S
C1354 C1356 1.388 . S
C1355 C1354 1.366 . S
C1355 C1359 1.385 . S
C1356 H1337 0.951 . S
C1356 C1354 1.388 . S
C1356 C1357 1.366 . S
C1357 C1356 1.366 . S
C1357 C1358 1.414 . S
C1357 C1360 1.499 . S
C1358 H1338 0.950 . S
C1358 C1357 1.414 . S
C1358 C1359 1.374 . S
C1359 H1339 0.950 . S
C1359 C1355 1.385 . S
C1359 C1358 1.374 . S
C1360 C1357 1.499 . S
C1360 C1361 1.373 . S
C1360 C1362 1.389 1_556 S
C1361 H1340 0.950 . S
C1361 C1360 1.373 . S
C1361 C1377 1.377 . S
C1362 C1360 1.389 1_554 S
C1362 C1363 1.524 . S
C1362 C1376 1.377 . S
C1363 C1362 1.524 . S
C1363 C1364 1.397 . S
C1363 C1368 1.363 . S
C1364 H1341 0.950 . S
C1364 C1363 1.397 . S
C1364 C1365 1.334 . S
C1365 H1342 0.950 . S
C1365 C1364 1.334 . S
C1365 C1366 1.287 . S
C1366 C1365 1.287 . S
C1366 C1367 1.524 . S
C1366 H1385 0.913 . S
C1367 H1343 0.950 . S
C1367 C1366 1.524 . S
C1367 C1368 1.415 . S
C1368 H1344 0.950 . S
C1368 C1363 1.363 . S
C1368 C1367 1.415 . S
C1369 H1345 0.951 . S
C1369 C1370 1.366 . S
C1369 C1371 1.388 . S
C1370 C1369 1.366 . S
C1370 C1374 1.385 . S
C1371 H1346 0.951 . S
C1371 C1369 1.388 . S
C1371 C1372 1.366 . S
C1372 C1371 1.366 . S
C1372 C1373 1.414 . S
C1372 C1375 1.499 . S
C1373 H1347 0.950 . S
C1373 C1372 1.414 . S
C1373 C1374 1.374 . S
C1374 H1348 0.950 . S
C1374 C1370 1.385 . S
C1374 C1373 1.374 . S
C1375 C1372 1.499 . S
C1375 C1376 1.373 . S
C1375 C1377 1.389 1_554 S
C1376 H1349 0.950 . S
C1376 C1362 1.377 . S
C1376 C1375 1.373 . S
C1377 C1361 1.377 . S
C1377 C1375 1.389 1_556 S
C1377 C1378 1.524 . S
C1378 C1377 1.524 . S
C1378 C1379 1.397 . S
C1378 C1383 1.363 . S
C1379 H1350 0.950 . S
C1379 C1378 1.397 . S
C1379 C1380 1.334 . S
C1380 H1351 0.950 . S
C1380 C1379 1.334 . S
C1380 C1381 1.287 . S
C1381 C1380 1.287 . S
C1381 C1382 1.524 . S
C1381 H1384 0.999 . S
C1382 H1352 0.950 . S
C1382 C1381 1.524 . S
C1382 C1383 1.415 . S
C1383 H1353 0.950 . S
C1383 C1378 1.363 . S
C1383 C1382 1.415 . S
H1384 C1381 0.999 . S
H1385 C1366 0.913 . S
H1386 C1404 0.951 . S
H1387 C1406 0.951 . S
H1388 C1408 0.950 . S
H1389 C1409 0.950 . S
H1390 C1411 0.950 . S
H1391 C1414 0.950 . S
H1392 C1415 0.950 . S
H1393 C1417 0.950 . S
H1394 C1418 0.950 . S
H1395 C1419 0.951 . S
H1396 C1421 0.951 . S
H1397 C1423 0.950 . S
H1398 C1424 0.950 . S
H1399 C1426 0.950 . S
H1400 C1429 0.950 . S
H1401 C1430 0.950 . S
H1402 C1432 0.950 . S
H1403 C1433 0.950 . S
C1404 H1386 0.951 . S
C1404 C1405 1.366 . S
C1404 C1406 1.388 . S
C1405 C1404 1.366 . S
C1405 C1409 1.385 . S
C1406 H1387 0.951 . S
C1406 C1404 1.388 . S
C1406 C1407 1.366 . S
C1407 C1406 1.366 . S
C1407 C1408 1.414 . S
C1407 C1410 1.499 . S
C1408 H1388 0.950 . S
C1408 C1407 1.414 . S
C1408 C1409 1.374 . S
C1409 H1389 0.950 . S
C1409 C1405 1.385 . S
C1409 C1408 1.374 . S
C1410 C1407 1.499 . S
C1410 C1411 1.373 . S
C1410 C1412 1.389 . S
C1411 H1390 0.950 . S
C1411 C1410 1.373 . S
C1411 C1427 1.377 . S
C1412 C1410 1.389 . S
C1412 C1413 1.524 . S
C1412 C1426 1.377 . S
C1413 C1412 1.524 . S
C1413 C1414 1.397 . S
C1413 C1418 1.363 . S
C1414 H1391 0.950 . S
C1414 C1413 1.397 . S
C1414 C1415 1.334 . S
C1415 H1392 0.950 . S
C1415 C1414 1.334 . S
C1415 C1416 1.287 . S
C1416 C1415 1.287 . S
C1416 C1417 1.524 . S
C1416 H1435 0.913 . S
C1417 H1393 0.950 . S
C1417 C1416 1.524 . S
C1417 C1418 1.415 . S
C1418 H1394 0.950 . S
C1418 C1413 1.363 . S
C1418 C1417 1.415 . S
C1419 H1395 0.951 . S
C1419 C1420 1.366 . S
C1419 C1421 1.388 . S
C1420 C1419 1.366 . S
C1420 C1424 1.385 . S
C1421 H1396 0.951 . S
C1421 C1419 1.388 . S
C1421 C1422 1.366 . S
C1422 C1421 1.366 . S
C1422 C1423 1.414 . S
C1422 C1425 1.499 . S
C1423 H1397 0.950 . S
C1423 C1422 1.414 . S
C1423 C1424 1.374 . S
C1424 H1398 0.950 . S
C1424 C1420 1.385 . S
C1424 C1423 1.374 . S
C1425 C1422 1.499 . S
C1425 C1426 1.373 . S
C1425 C1427 1.389 . S
C1426 H1399 0.950 . S
C1426 C1412 1.377 . S
C1426 C1425 1.373 . S
C1427 C1411 1.377 . S
C1427 C1425 1.389 . S
C1427 C1428 1.524 . S
C1428 C1427 1.524 . S
C1428 C1429 1.397 . S
C1428 C1433 1.363 . S
C1429 H1400 0.950 . S
C1429 C1428 1.397 . S
C1429 C1430 1.334 . S
C1430 H1401 0.950 . S
C1430 C1429 1.334 . S
C1430 C1431 1.287 . S
C1431 C1430 1.287 . S
C1431 C1432 1.524 . S
C1431 H1434 0.999 . S
C1432 H1402 0.950 . S
C1432 C1431 1.524 . S
C1432 C1433 1.415 . S
C1433 H1403 0.950 . S
C1433 C1428 1.363 . S
C1433 C1432 1.415 . S
H1434 C1431 0.999 . S
H1435 C1416 0.913 . S
H1436 C1454 0.951 . S
H1437 C1456 0.951 . S
H1438 C1458 0.950 . S
H1439 C1459 0.950 . S
H1440 C1461 0.950 . S
H1441 C1464 0.950 . S
H1442 C1465 0.950 . S
H1443 C1467 0.950 . S
H1444 C1468 0.950 . S
H1445 C1469 0.951 . S
H1446 C1471 0.951 . S
H1447 C1473 0.950 . S
H1448 C1474 0.950 . S
H1449 C1476 0.950 . S
H1450 C1479 0.950 . S
H1451 C1480 0.950 . S
H1452 C1482 0.950 . S
H1453 C1483 0.950 . S
C1454 H1436 0.951 . S
C1454 C1455 1.366 . S
C1454 C1456 1.388 . S
C1455 C1454 1.366 . S
C1455 C1459 1.385 . S
C1456 H1437 0.951 . S
C1456 C1454 1.388 . S
C1456 C1457 1.366 . S
C1457 C1456 1.366 . S
C1457 C1458 1.414 . S
C1457 C1460 1.499 . S
C1458 H1438 0.950 . S
C1458 C1457 1.414 . S
C1458 C1459 1.374 . S
C1459 H1439 0.950 . S
C1459 C1455 1.385 . S
C1459 C1458 1.374 . S
C1460 C1457 1.499 . S
C1460 C1461 1.389 . S
C1460 C1462 1.389 . S
C1461 H1440 0.950 . S
C1461 C1460 1.389 . S
C1461 C1477 1.361 1_556 S
C1462 C1460 1.389 . S
C1462 C1463 1.524 . S
C1462 C1476 1.361 1_556 S
C1463 C1462 1.524 . S
C1463 C1464 1.397 . S
C1463 C1468 1.363 . S
C1464 H1441 0.950 . S
C1464 C1463 1.397 . S
C1464 C1465 1.334 . S
C1465 H1442 0.950 . S
C1465 C1464 1.334 . S
C1465 C1466 1.287 . S
C1466 C1465 1.287 . S
C1466 C1467 1.524 . S
C1466 H1485 0.913 . S
C1467 H1443 0.950 . S
C1467 C1466 1.524 . S
C1467 C1468 1.415 . S
C1468 H1444 0.950 . S
C1468 C1463 1.363 . S
C1468 C1467 1.415 . S
C1469 H1445 0.951 . S
C1469 C1470 1.366 . S
C1469 C1471 1.388 . S
C1470 C1469 1.366 . S
C1470 C1474 1.385 . S
C1471 H1446 0.951 . S
C1471 C1469 1.388 . S
C1471 C1472 1.366 . S
C1472 C1471 1.366 . S
C1472 C1473 1.414 . S
C1472 C1475 1.499 . S
C1473 H1447 0.950 . S
C1473 C1472 1.414 . S
C1473 C1474 1.374 . S
C1474 H1448 0.950 . S
C1474 C1470 1.385 . S
C1474 C1473 1.374 . S
C1475 C1472 1.499 . S
C1475 C1476 1.389 . S
C1475 C1477 1.389 . S
C1476 H1449 0.950 . S
C1476 C1462 1.361 1_554 S
C1476 C1475 1.389 . S
C1477 C1461 1.361 1_554 S
C1477 C1475 1.389 . S
C1477 C1478 1.524 . S
C1478 C1477 1.524 . S
C1478 C1479 1.397 . S
C1478 C1483 1.363 . S
C1479 H1450 0.950 . S
C1479 C1478 1.397 . S
C1479 C1480 1.334 . S
C1480 H1451 0.950 . S
C1480 C1479 1.334 . S
C1480 C1481 1.287 . S
C1481 C1480 1.287 . S
C1481 C1482 1.524 . S
C1481 H1484 0.999 . S
C1482 H1452 0.950 . S
C1482 C1481 1.524 . S
C1482 C1483 1.415 . S
C1483 H1453 0.950 . S
C1483 C1478 1.363 . S
C1483 C1482 1.415 . S
H1484 C1481 0.999 . S
H1485 C1466 0.913 . S
H1486 C1504 0.951 . S
H1487 C1506 0.951 . S
H1488 C1508 0.950 . S
H1489 C1509 0.950 . S
H1490 C1511 0.950 . S
H1491 C1514 0.950 . S
H1492 C1515 0.950 . S
H1493 C1517 0.950 . S
H1494 C1518 0.950 . S
H1495 C1519 0.951 . S
H1496 C1521 0.951 . S
H1497 C1523 0.950 . S
H1498 C1524 0.950 . S
H1499 C1526 0.950 . S
H1500 C1529 0.950 . S
H1501 C1530 0.950 . S
H1502 C1532 0.950 . S
H1503 C1533 0.950 . S
C1504 H1486 0.951 . S
C1504 C1505 1.366 . S
C1504 C1506 1.388 . S
C1505 C1504 1.366 . S
C1505 C1509 1.385 . S
C1506 H1487 0.951 . S
C1506 C1504 1.388 . S
C1506 C1507 1.366 . S
C1507 C1506 1.366 . S
C1507 C1508 1.414 . S
C1507 C1510 1.499 . S
C1508 H1488 0.950 . S
C1508 C1507 1.414 . S
C1508 C1509 1.374 . S
C1509 H1489 0.950 . S
C1509 C1505 1.385 . S
C1509 C1508 1.374 . S
C1510 C1507 1.499 . S
C1510 C1511 1.373 . S
C1510 C1512 1.389 . S
C1511 H1490 0.950 . S
C1511 C1510 1.373 . S
C1511 C1527 1.377 . S
C1512 C1510 1.389 . S
C1512 C1513 1.524 . S
C1512 C1526 1.377 . S
C1513 C1512 1.524 . S
C1513 C1514 1.397 . S
C1513 C1518 1.363 . S
C1514 H1491 0.950 . S
C1514 C1513 1.397 . S
C1514 C1515 1.334 . S
C1515 H1492 0.950 . S
C1515 C1514 1.334 . S
C1515 C1516 1.287 . S
C1516 C1515 1.287 . S
C1516 C1517 1.524 . S
C1516 H1535 0.913 . S
C1517 H1493 0.950 . S
C1517 C1516 1.524 . S
C1517 C1518 1.415 . S
C1518 H1494 0.950 . S
C1518 C1513 1.363 . S
C1518 C1517 1.415 . S
C1519 H1495 0.951 . S
C1519 C1520 1.366 . S
C1519 C1521 1.388 . S
C1520 C1519 1.366 . S
C1520 C1524 1.385 . S
C1521 H1496 0.951 . S
C1521 C1519 1.388 . S
C1521 C1522 1.366 . S
C1522 C1521 1.366 . S
C1522 C1523 1.414 . S
C1522 C1525 1.499 . S
C1523 H1497 0.950 . S
C1523 C1522 1.414 . S
C1523 C1524 1.374 . S
C1524 H1498 0.950 . S
C1524 C1520 1.385 . S
C1524 C1523 1.374 . S
C1525 C1522 1.499 . S
C1525 C1526 1.373 . S
C1525 C1527 1.389 . S
C1526 H1499 0.950 . S
C1526 C1512 1.377 . S
C1526 C1525 1.373 . S
C1527 C1511 1.377 . S
C1527 C1525 1.389 . S
C1527 C1528 1.524 . S
C1528 C1527 1.524 . S
C1528 C1529 1.397 . S
C1528 C1533 1.363 . S
C1529 H1500 0.950 . S
C1529 C1528 1.397 . S
C1529 C1530 1.334 . S
C1530 H1501 0.950 . S
C1530 C1529 1.334 . S
C1530 C1531 1.287 . S
C1531 C1530 1.287 . S
C1531 C1532 1.524 . S
C1531 H1534 0.999 . S
C1532 H1502 0.950 . S
C1532 C1531 1.524 . S
C1532 C1533 1.415 . S
C1533 H1503 0.950 . S
C1533 C1528 1.363 . S
C1533 C1532 1.415 . S
H1534 C1531 0.999 . S
H1535 C1516 0.913 . S
H1536 C1554 0.951 . S
H1537 C1556 0.951 . S
H1538 C1558 0.950 . S
H1539 C1559 0.950 . S
H1540 C1561 0.950 . S
H1541 C1564 0.950 . S
H1542 C1565 0.950 . S
H1543 C1567 0.950 . S
H1544 C1568 0.950 . S
H1545 C1569 0.951 . S
H1546 C1571 0.951 . S
H1547 C1573 0.950 . S
H1548 C1574 0.950 . S
H1549 C1576 0.950 . S
H1550 C1579 0.950 . S
H1551 C1580 0.950 . S
H1552 C1582 0.950 . S
H1553 C1583 0.950 . S
C1554 H1536 0.951 . S
C1554 C1555 1.366 . S
C1554 C1556 1.388 . S
C1555 C1554 1.366 . S
C1555 C1559 1.385 . S
C1556 H1537 0.951 . S
C1556 C1554 1.388 . S
C1556 C1557 1.366 . S
C1557 C1556 1.366 . S
C1557 C1558 1.414 . S
C1557 C1560 1.499 . S
C1558 H1538 0.950 . S
C1558 C1557 1.414 . S
C1558 C1559 1.374 . S
C1559 H1539 0.950 . S
C1559 C1555 1.385 . S
C1559 C1558 1.374 . S
C1560 C1557 1.499 . S
C1560 C1561 1.373 . S
C1560 C1562 1.389 . S
C1561 H1540 0.950 . S
C1561 C1560 1.373 . S
C1561 C1577 1.377 . S
C1562 C1560 1.389 . S
C1562 C1563 1.524 . S
C1562 C1576 1.377 . S
C1563 C1562 1.524 . S
C1563 C1564 1.397 . S
C1563 C1568 1.363 . S
C1564 H1541 0.950 . S
C1564 C1563 1.397 . S
C1564 C1565 1.334 . S
C1565 H1542 0.950 . S
C1565 C1564 1.334 . S
C1565 C1566 1.287 . S
C1566 C1565 1.287 . S
C1566 C1567 1.524 . S
C1566 H1585 0.913 . S
C1567 H1543 0.950 . S
C1567 C1566 1.524 . S
C1567 C1568 1.415 . S
C1568 H1544 0.950 . S
C1568 C1563 1.363 . S
C1568 C1567 1.415 . S
C1569 H1545 0.951 . S
C1569 C1570 1.366 . S
C1569 C1571 1.388 . S
C1570 C1569 1.366 . S
C1570 C1574 1.385 . S
C1571 H1546 0.951 . S
C1571 C1569 1.388 . S
C1571 C1572 1.366 . S
C1572 C1571 1.366 . S
C1572 C1573 1.414 . S
C1572 C1575 1.499 . S
C1573 H1547 0.950 . S
C1573 C1572 1.414 . S
C1573 C1574 1.374 . S
C1574 H1548 0.950 . S
C1574 C1570 1.385 . S
C1574 C1573 1.374 . S
C1575 C1572 1.499 . S
C1575 C1576 1.373 . S
C1575 C1577 1.389 . S
C1576 H1549 0.950 . S
C1576 C1562 1.377 . S
C1576 C1575 1.373 . S
C1577 C1561 1.377 . S
C1577 C1575 1.389 . S
C1577 C1578 1.524 . S
C1578 C1577 1.524 . S
C1578 C1579 1.397 . S
C1578 C1583 1.363 . S
C1579 H1550 0.950 . S
C1579 C1578 1.397 . S
C1579 C1580 1.334 . S
C1580 H1551 0.950 . S
C1580 C1579 1.334 . S
C1580 C1581 1.287 . S
C1581 C1580 1.287 . S
C1581 C1582 1.524 . S
C1581 H1584 0.999 . S
C1582 H1552 0.950 . S
C1582 C1581 1.524 . S
C1582 C1583 1.415 . S
C1583 H1553 0.950 . S
C1583 C1578 1.363 . S
C1583 C1582 1.415 . S
H1584 C1581 0.999 . S
H1585 C1566 0.913 . S
H1586 C1604 0.951 . S
H1587 C1606 0.951 . S
H1588 C1608 0.950 . S
H1589 C1609 0.950 . S
H1590 C1611 0.950 . S
H1591 C1614 0.950 . S
H1592 C1615 0.950 . S
H1593 C1617 0.950 . S
H1594 C1618 0.950 . S
H1595 C1619 0.951 . S
H1596 C1621 0.951 . S
H1597 C1623 0.950 . S
H1598 C1624 0.950 . S
H1599 C1626 0.950 . S
H1600 C1629 0.950 . S
H1601 C1630 0.950 . S
H1602 C1632 0.950 . S
H1603 C1633 0.950 . S
C1604 H1586 0.951 . S
C1604 C1605 1.366 . S
C1604 C1606 1.388 . S
C1605 C1604 1.366 . S
C1605 C1609 1.385 . S
C1606 H1587 0.951 . S
C1606 C1604 1.388 . S
C1606 C1607 1.366 . S
C1607 C1606 1.366 . S
C1607 C1608 1.414 . S
C1607 C1610 1.499 . S
C1608 H1588 0.950 . S
C1608 C1607 1.414 . S
C1608 C1609 1.374 . S
C1609 H1589 0.950 . S
C1609 C1605 1.385 . S
C1609 C1608 1.374 . S
C1610 C1607 1.499 . S
C1610 C1611 1.373 . S
C1610 C1612 1.389 . S
C1611 H1590 0.950 . S
C1611 C1610 1.373 . S
C1611 C1627 1.377 1_455 S
C1612 C1610 1.389 . S
C1612 C1613 1.524 . S
C1612 C1626 1.377 1_455 S
C1613 C1612 1.524 . S
C1613 C1614 1.397 . S
C1613 C1618 1.363 . S
C1614 H1591 0.950 . S
C1614 C1613 1.397 . S
C1614 C1615 1.334 . S
C1615 H1592 0.950 . S
C1615 C1614 1.334 . S
C1615 C1616 1.287 . S
C1616 C1615 1.287 . S
C1616 C1617 1.524 . S
C1616 H1635 0.913 . S
C1617 H1593 0.950 . S
C1617 C1616 1.524 . S
C1617 C1618 1.415 . S
C1618 H1594 0.950 . S
C1618 C1613 1.363 . S
C1618 C1617 1.415 . S
C1619 H1595 0.951 . S
C1619 C1620 1.366 . S
C1619 C1621 1.388 . S
C1620 C1619 1.366 . S
C1620 C1624 1.385 . S
C1621 H1596 0.951 . S
C1621 C1619 1.388 . S
C1621 C1622 1.366 . S
C1622 C1621 1.366 . S
C1622 C1623 1.414 . S
C1622 C1625 1.499 . S
C1623 H1597 0.950 . S
C1623 C1622 1.414 . S
C1623 C1624 1.374 . S
C1624 H1598 0.950 . S
C1624 C1620 1.385 . S
C1624 C1623 1.374 . S
C1625 C1622 1.499 . S
C1625 C1626 1.373 . S
C1625 C1627 1.389 . S
C1626 H1599 0.950 . S
C1626 C1612 1.377 1_655 S
C1626 C1625 1.373 . S
C1627 C1611 1.377 1_655 S
C1627 C1625 1.389 . S
C1627 C1628 1.524 . S
C1628 C1627 1.524 . S
C1628 C1629 1.397 . S
C1628 C1633 1.363 . S
C1629 H1600 0.950 . S
C1629 C1628 1.397 . S
C1629 C1630 1.334 . S
C1630 H1601 0.950 . S
C1630 C1629 1.334 . S
C1630 C1631 1.287 . S
C1631 C1630 1.287 . S
C1631 C1632 1.524 . S
C1631 H1634 0.999 . S
C1632 H1602 0.950 . S
C1632 C1631 1.524 . S
C1632 C1633 1.415 . S
C1633 H1603 0.950 . S
C1633 C1628 1.363 . S
C1633 C1632 1.415 . S
H1634 C1631 0.999 . S
H1635 C1616 0.913 . S
H1636 C1654 0.951 . S
H1637 C1656 0.951 . S
H1638 C1658 0.950 . S
H1639 C1659 0.950 . S
H1640 C1661 0.950 . S
H1641 C1664 0.950 . S
H1642 C1665 0.950 . S
H1643 C1667 0.950 . S
H1644 C1668 0.950 . S
H1645 C1669 0.951 . S
H1646 C1671 0.951 . S
H1647 C1673 0.950 . S
H1648 C1674 0.950 . S
H1649 C1676 0.950 . S
H1650 C1679 0.950 . S
H1651 C1680 0.950 . S
H1652 C1682 0.950 . S
H1653 C1683 0.950 . S
C1654 H1636 0.951 . S
C1654 C1655 1.366 . S
C1654 C1656 1.388 . S
C1655 C1654 1.366 . S
C1655 C1659 1.385 . S
C1656 H1637 0.951 . S
C1656 C1654 1.388 . S
C1656 C1657 1.366 . S
C1657 C1656 1.366 . S
C1657 C1658 1.414 . S
C1657 C1660 1.499 . S
C1658 H1638 0.950 . S
C1658 C1657 1.414 . S
C1658 C1659 1.374 . S
C1659 H1639 0.950 . S
C1659 C1655 1.385 . S
C1659 C1658 1.374 . S
C1660 C1657 1.499 . S
C1660 C1661 1.373 . S
C1660 C1662 1.389 . S
C1661 H1640 0.950 . S
C1661 C1660 1.373 . S
C1661 C1677 1.377 1_565 S
C1662 C1660 1.389 . S
C1662 C1663 1.524 . S
C1662 C1676 1.377 1_565 S
C1663 C1662 1.524 . S
C1663 C1664 1.397 . S
C1663 C1668 1.363 . S
C1664 H1641 0.950 . S
C1664 C1663 1.397 . S
C1664 C1665 1.334 . S
C1665 H1642 0.950 . S
C1665 C1664 1.334 . S
C1665 C1666 1.287 . S
C1666 C1665 1.287 . S
C1666 C1667 1.524 . S
C1666 H1685 0.913 . S
C1667 H1643 0.950 . S
C1667 C1666 1.524 . S
C1667 C1668 1.415 . S
C1668 H1644 0.950 . S
C1668 C1663 1.363 . S
C1668 C1667 1.415 . S
C1669 H1645 0.951 . S
C1669 C1670 1.366 . S
C1669 C1671 1.388 . S
C1670 C1669 1.366 . S
C1670 C1674 1.385 . S
C1671 H1646 0.951 . S
C1671 C1669 1.388 . S
C1671 C1672 1.366 . S
C1672 C1671 1.366 . S
C1672 C1673 1.414 . S
C1672 C1675 1.499 . S
C1673 H1647 0.950 . S
C1673 C1672 1.414 . S
C1673 C1674 1.374 . S
C1674 H1648 0.950 . S
C1674 C1670 1.385 . S
C1674 C1673 1.374 . S
C1675 C1672 1.499 . S
C1675 C1676 1.373 . S
C1675 C1677 1.389 . S
C1676 H1649 0.950 . S
C1676 C1662 1.377 1_545 S
C1676 C1675 1.373 . S
C1677 C1661 1.377 1_545 S
C1677 C1675 1.389 . S
C1677 C1678 1.524 . S
C1678 C1677 1.524 . S
C1678 C1679 1.397 . S
C1678 C1683 1.363 . S
C1679 H1650 0.950 . S
C1679 C1678 1.397 . S
C1679 C1680 1.334 . S
C1680 H1651 0.950 . S
C1680 C1679 1.334 . S
C1680 C1681 1.287 . S
C1681 C1680 1.287 . S
C1681 C1682 1.524 . S
C1681 H1684 0.999 . S
C1682 H1652 0.950 . S
C1682 C1681 1.524 . S
C1682 C1683 1.415 . S
C1683 H1653 0.950 . S
C1683 C1678 1.363 . S
C1683 C1682 1.415 . S
H1684 C1681 0.999 . S
H1685 C1666 0.913 . S
H1686 C1704 0.951 . S
H1687 C1706 0.951 . S
H1688 C1708 0.950 . S
H1689 C1709 0.950 . S
H1690 C1711 0.950 . S
H1691 C1714 0.950 . S
H1692 C1715 0.950 . S
H1693 C1717 0.950 . S
H1694 C1718 0.950 . S
H1695 C1719 0.951 . S
H1696 C1721 0.951 . S
H1697 C1723 0.950 . S
H1698 C1724 0.950 . S
H1699 C1726 0.950 . S
H1700 C1729 0.950 . S
H1701 C1730 0.950 . S
H1702 C1732 0.950 . S
H1703 C1733 0.950 . S
C1704 H1686 0.951 . S
C1704 C1705 1.366 . S
C1704 C1706 1.388 . S
C1705 C1704 1.366 . S
C1705 C1709 1.385 . S
C1706 H1687 0.951 . S
C1706 C1704 1.388 . S
C1706 C1707 1.366 . S
C1707 C1706 1.366 . S
C1707 C1708 1.414 . S
C1707 C1710 1.499 . S
C1708 H1688 0.950 . S
C1708 C1707 1.414 . S
C1708 C1709 1.374 . S
C1709 H1689 0.950 . S
C1709 C1705 1.385 . S
C1709 C1708 1.374 . S
C1710 C1707 1.499 . S
C1710 C1711 1.373 . S
C1710 C1712 1.389 . S
C1711 H1690 0.950 . S
C1711 C1710 1.373 . S
C1711 C1727 1.377 . S
C1712 C1710 1.389 . S
C1712 C1713 1.524 . S
C1712 C1726 1.377 . S
C1713 C1712 1.524 . S
C1713 C1714 1.397 . S
C1713 C1718 1.363 . S
C1714 H1691 0.950 . S
C1714 C1713 1.397 . S
C1714 C1715 1.334 . S
C1715 H1692 0.950 . S
C1715 C1714 1.334 . S
C1715 C1716 1.287 . S
C1716 C1715 1.287 . S
C1716 C1717 1.524 . S
C1716 H1735 0.913 . S
C1717 H1693 0.950 . S
C1717 C1716 1.524 . S
C1717 C1718 1.415 . S
C1718 H1694 0.950 . S
C1718 C1713 1.363 . S
C1718 C1717 1.415 . S
C1719 H1695 0.951 . S
C1719 C1720 1.366 . S
C1719 C1721 1.388 . S
C1720 C1719 1.366 . S
C1720 C1724 1.385 . S
C1721 H1696 0.951 . S
C1721 C1719 1.388 . S
C1721 C1722 1.366 . S
C1722 C1721 1.366 . S
C1722 C1723 1.414 . S
C1722 C1725 1.499 . S
C1723 H1697 0.950 . S
C1723 C1722 1.414 . S
C1723 C1724 1.374 . S
C1724 H1698 0.950 . S
C1724 C1720 1.385 . S
C1724 C1723 1.374 . S
C1725 C1722 1.499 . S
C1725 C1726 1.373 . S
C1725 C1727 1.389 . S
C1726 H1699 0.950 . S
C1726 C1712 1.377 . S
C1726 C1725 1.373 . S
C1727 C1711 1.377 . S
C1727 C1725 1.389 . S
C1727 C1728 1.524 . S
C1728 C1727 1.524 . S
C1728 C1729 1.397 . S
C1728 C1733 1.363 . S
C1729 H1700 0.950 . S
C1729 C1728 1.397 . S
C1729 C1730 1.334 . S
C1730 H1701 0.950 . S
C1730 C1729 1.334 . S
C1730 C1731 1.287 . S
C1731 C1730 1.287 . S
C1731 C1732 1.524 . S
C1731 H1734 0.999 . S
C1732 H1702 0.950 . S
C1732 C1731 1.524 . S
C1732 C1733 1.415 . S
C1733 H1703 0.950 . S
C1733 C1728 1.363 . S
C1733 C1732 1.415 . S
H1734 C1731 0.999 . S
H1735 C1716 0.913 . S
H1736 C1754 0.951 . S
H1737 C1756 0.951 . S
H1738 C1758 0.950 . S
H1739 C1759 0.950 . S
H1740 C1761 0.950 . S
H1741 C1764 0.950 . S
H1742 C1765 0.950 1_556 S
H1743 C1767 0.950 . S
H1744 C1768 0.950 . S
H1745 C1769 0.951 . S
H1746 C1771 0.951 . S
H1747 C1773 0.950 . S
H1748 C1774 0.950 . S
H1749 C1776 0.950 . S
H1750 C1779 0.950 . S
H1751 C1780 0.950 . S
H1752 C1782 0.950 . S
H1753 C1783 0.950 . S
C1754 H1736 0.951 . S
C1754 C1755 1.366 . S
C1754 C1756 1.388 . S
C1755 C1754 1.366 . S
C1755 C1759 1.385 . S
C1756 H1737 0.951 . S
C1756 C1754 1.388 . S
C1756 C1757 1.366 . S
C1757 C1756 1.366 . S
C1757 C1758 1.414 . S
C1757 C1760 1.499 . S
C1758 H1738 0.950 . S
C1758 C1757 1.414 . S
C1758 C1759 1.374 . S
C1759 H1739 0.950 . S
C1759 C1755 1.385 . S
C1759 C1758 1.374 . S
C1760 C1757 1.499 . S
C1760 C1761 1.373 . S
C1760 C1762 1.389 . S
C1761 H1740 0.950 . S
C1761 C1760 1.373 . S
C1761 C1777 1.377 1_655 S
C1762 C1760 1.389 . S
C1762 C1763 1.524 . S
C1762 C1776 1.377 1_655 S
C1763 C1762 1.524 . S
C1763 C1764 1.397 . S
C1763 C1768 1.363 . S
C1764 H1741 0.950 . S
C1764 C1763 1.397 . S
C1764 C1765 1.334 . S
C1765 H1742 0.950 1_554 S
C1765 C1764 1.334 . S
C1765 C1766 1.287 1_554 S
C1766 C1765 1.287 1_556 S
C1766 C1767 1.524 1_556 S
C1766 H1785 0.913 . S
C1767 H1743 0.950 . S
C1767 C1766 1.524 1_554 S
C1767 C1768 1.415 . S
C1768 H1744 0.950 . S
C1768 C1763 1.363 . S
C1768 C1767 1.415 . S
C1769 H1745 0.951 . S
C1769 C1770 1.366 . S
C1769 C1771 1.388 . S
C1770 C1769 1.366 . S
C1770 C1774 1.385 . S
C1771 H1746 0.951 . S
C1771 C1769 1.388 . S
C1771 C1772 1.366 . S
C1772 C1771 1.366 . S
C1772 C1773 1.414 . S
C1772 C1775 1.499 . S
C1773 H1747 0.950 . S
C1773 C1772 1.414 . S
C1773 C1774 1.374 . S
C1774 H1748 0.950 . S
C1774 C1770 1.385 . S
C1774 C1773 1.374 . S
C1775 C1772 1.499 . S
C1775 C1776 1.373 . S
C1775 C1777 1.389 . S
C1776 H1749 0.950 . S
C1776 C1762 1.377 1_455 S
C1776 C1775 1.373 . S
C1777 C1761 1.377 1_455 S
C1777 C1775 1.389 . S
C1777 C1778 1.524 . S
C1778 C1777 1.524 . S
C1778 C1779 1.397 . S
C1778 C1783 1.363 . S
C1779 H1750 0.950 . S
C1779 C1778 1.397 . S
C1779 C1780 1.334 . S
C1780 H1751 0.950 . S
C1780 C1779 1.334 . S
C1780 C1781 1.287 . S
C1781 C1780 1.287 . S
C1781 C1782 1.524 . S
C1781 H1784 0.999 . S
C1782 H1752 0.950 . S
C1782 C1781 1.524 . S
C1782 C1783 1.415 . S
C1783 H1753 0.950 . S
C1783 C1778 1.363 . S
C1783 C1782 1.415 . S
H1784 C1781 0.999 . S
H1785 C1766 0.913 . S
H1786 C1804 0.951 . S
H1787 C1806 0.951 . S
H1788 C1808 0.950 . S
H1789 C1809 0.950 . S
H1790 C1811 0.950 . S
H1791 C1814 0.950 . S
H1792 C1815 0.950 . S
H1793 C1817 0.950 . S
H1794 C1818 0.950 . S
H1795 C1819 0.951 . S
H1796 C1821 0.951 . S
H1797 C1823 0.950 . S
H1798 C1824 0.950 . S
H1799 C1826 0.950 . S
H1800 C1829 0.950 . S
H1801 C1830 0.950 . S
H1802 C1832 0.950 . S
H1803 C1833 0.950 . S
C1804 H1786 0.951 . S
C1804 C1805 1.366 . S
C1804 C1806 1.388 . S
C1805 C1804 1.366 . S
C1805 C1809 1.385 . S
C1806 H1787 0.951 . S
C1806 C1804 1.388 . S
C1806 C1807 1.366 . S
C1807 C1806 1.366 . S
C1807 C1808 1.414 . S
C1807 C1810 1.499 . S
C1808 H1788 0.950 . S
C1808 C1807 1.414 . S
C1808 C1809 1.374 . S
C1809 H1789 0.950 . S
C1809 C1805 1.385 . S
C1809 C1808 1.374 . S
C1810 C1807 1.499 . S
C1810 C1811 1.373 . S
C1810 C1812 1.389 . S
C1811 H1790 0.950 . S
C1811 C1810 1.373 . S
C1811 C1827 1.377 1_545 S
C1812 C1810 1.389 . S
C1812 C1813 1.524 . S
C1812 C1826 1.377 1_545 S
C1813 C1812 1.524 . S
C1813 C1814 1.397 . S
C1813 C1818 1.363 . S
C1814 H1791 0.950 . S
C1814 C1813 1.397 . S
C1814 C1815 1.334 . S
C1815 H1792 0.950 . S
C1815 C1814 1.334 . S
C1815 C1816 1.287 . S
C1816 C1815 1.287 . S
C1816 C1817 1.524 . S
C1816 H1835 0.913 . S
C1817 H1793 0.950 . S
C1817 C1816 1.524 . S
C1817 C1818 1.415 . S
C1818 H1794 0.950 . S
C1818 C1813 1.363 . S
C1818 C1817 1.415 . S
C1819 H1795 0.951 . S
C1819 C1820 1.366 . S
C1819 C1821 1.388 . S
C1820 C1819 1.366 . S
C1820 C1824 1.385 . S
C1821 H1796 0.951 . S
C1821 C1819 1.388 . S
C1821 C1822 1.366 . S
C1822 C1821 1.366 . S
C1822 C1823 1.414 . S
C1822 C1825 1.499 . S
C1823 H1797 0.950 . S
C1823 C1822 1.414 . S
C1823 C1824 1.374 . S
C1824 H1798 0.950 . S
C1824 C1820 1.385 . S
C1824 C1823 1.374 . S
C1825 C1822 1.499 . S
C1825 C1826 1.373 . S
C1825 C1827 1.389 . S
C1826 H1799 0.950 . S
C1826 C1812 1.377 1_565 S
C1826 C1825 1.373 . S
C1827 C1811 1.377 1_565 S
C1827 C1825 1.389 . S
C1827 C1828 1.524 . S
C1828 C1827 1.524 . S
C1828 C1829 1.397 . S
C1828 C1833 1.363 . S
C1829 H1800 0.950 . S
C1829 C1828 1.397 . S
C1829 C1830 1.334 . S
C1830 H1801 0.950 . S
C1830 C1829 1.334 . S
C1830 C1831 1.287 . S
C1831 C1830 1.287 . S
C1831 C1832 1.524 . S
C1831 H1834 0.999 . S
C1832 H1802 0.950 . S
C1832 C1831 1.524 . S
C1832 C1833 1.415 . S
C1833 H1803 0.950 . S
C1833 C1828 1.363 . S
C1833 C1832 1.415 . S
H1834 C1831 0.999 . S
H1835 C1816 0.913 . S
H1836 C1854 0.951 . S
H1837 C1856 0.951 . S
H1838 C1858 0.950 . S
H1839 C1859 0.950 . S
H1840 C1861 0.950 . S
H1841 C1864 0.950 . S
H1842 C1865 0.950 . S
H1843 C1867 0.950 . S
H1844 C1868 0.950 . S
H1845 C1869 0.951 . S
H1846 C1871 0.951 . S
H1847 C1873 0.950 . S
H1848 C1874 0.950 . S
H1849 C1876 0.950 . S
H1850 C1879 0.950 . S
H1851 C1880 0.950 . S
H1852 C1882 0.950 . S
H1853 C1883 0.950 . S
C1854 H1836 0.951 . S
C1854 C1855 1.366 . S
C1854 C1856 1.388 . S
C1855 C1854 1.366 . S
C1855 C1859 1.385 . S
C1856 H1837 0.951 . S
C1856 C1854 1.388 . S
C1856 C1857 1.366 . S
C1857 C1856 1.366 . S
C1857 C1858 1.414 . S
C1857 C1860 1.499 . S
C1858 H1838 0.950 . S
C1858 C1857 1.414 . S
C1858 C1859 1.374 . S
C1859 H1839 0.950 . S
C1859 C1855 1.385 . S
C1859 C1858 1.374 . S
C1860 C1857 1.499 . S
C1860 C1861 1.373 . S
C1860 C1862 1.389 . S
C1861 H1840 0.950 . S
C1861 C1860 1.373 . S
C1861 C1877 1.377 . S
C1862 C1860 1.389 . S
C1862 C1863 1.524 . S
C1862 C1876 1.377 . S
C1863 C1862 1.524 . S
C1863 C1864 1.397 . S
C1863 C1868 1.363 . S
C1864 H1841 0.950 . S
C1864 C1863 1.397 . S
C1864 C1865 1.334 . S
C1865 H1842 0.950 . S
C1865 C1864 1.334 . S
C1865 C1866 1.287 . S
C1866 C1865 1.287 . S
C1866 C1867 1.524 . S
C1866 H1885 0.913 . S
C1867 H1843 0.950 . S
C1867 C1866 1.524 . S
C1867 C1868 1.415 . S
C1868 H1844 0.950 . S
C1868 C1863 1.363 . S
C1868 C1867 1.415 . S
C1869 H1845 0.951 . S
C1869 C1870 1.366 . S
C1869 C1871 1.388 . S
C1870 C1869 1.366 . S
C1870 C1874 1.385 . S
C1871 H1846 0.951 . S
C1871 C1869 1.388 . S
C1871 C1872 1.366 . S
C1872 C1871 1.366 . S
C1872 C1873 1.414 . S
C1872 C1875 1.499 . S
C1873 H1847 0.950 . S
C1873 C1872 1.414 . S
C1873 C1874 1.374 . S
C1874 H1848 0.950 . S
C1874 C1870 1.385 . S
C1874 C1873 1.374 . S
C1875 C1872 1.499 . S
C1875 C1876 1.373 . S
C1875 C1877 1.389 . S
C1876 H1849 0.950 . S
C1876 C1862 1.377 . S
C1876 C1875 1.373 . S
C1877 C1861 1.377 . S
C1877 C1875 1.389 . S
C1877 C1878 1.524 . S
C1878 C1877 1.524 . S
C1878 C1879 1.397 . S
C1878 C1883 1.363 . S
C1879 H1850 0.950 . S
C1879 C1878 1.397 . S
C1879 C1880 1.334 . S
C1880 H1851 0.950 . S
C1880 C1879 1.334 . S
C1880 C1881 1.287 . S
C1881 C1880 1.287 . S
C1881 C1882 1.524 . S
C1881 H1884 0.999 . S
C1882 H1852 0.950 . S
C1882 C1881 1.524 . S
C1882 C1883 1.415 . S
C1883 H1853 0.950 . S
C1883 C1878 1.363 . S
C1883 C1882 1.415 . S
H1884 C1881 0.999 . S
H1885 C1866 0.913 . S
H1886 C1904 0.951 . S
H1887 C1906 0.951 . S
H1888 C1908 0.950 . S
H1889 C1909 0.950 . S
H1890 C1911 0.950 . S
H1891 C1914 0.950 . S
H1892 C1915 0.950 . S
H1893 C1917 0.950 . S
H1894 C1918 0.950 . S
H1895 C1919 0.951 . S
H1896 C1921 0.951 . S
H1897 C1923 0.950 . S
H1898 C1924 0.950 . S
H1899 C1926 0.950 . S
H1900 C1929 0.950 . S
H1901 C1930 0.950 . S
H1902 C1932 0.950 . S
H1903 C1933 0.950 . S
C1904 H1886 0.951 . S
C1904 C1905 1.366 . S
C1904 C1906 1.388 . S
C1905 C1904 1.366 . S
C1905 C1909 1.385 . S
C1906 H1887 0.951 . S
C1906 C1904 1.388 . S
C1906 C1907 1.366 . S
C1907 C1906 1.366 . S
C1907 C1908 1.414 . S
C1907 C1910 1.499 . S
C1908 H1888 0.950 . S
C1908 C1907 1.414 . S
C1908 C1909 1.374 . S
C1909 H1889 0.950 . S
C1909 C1905 1.385 . S
C1909 C1908 1.374 . S
C1910 C1907 1.499 . S
C1910 C1911 1.373 . S
C1910 C1912 1.389 . S
C1911 H1890 0.950 . S
C1911 C1910 1.373 . S
C1911 C1927 1.377 1_655 S
C1912 C1910 1.389 . S
C1912 C1913 1.524 . S
C1912 C1926 1.377 1_655 S
C1913 C1912 1.524 . S
C1913 C1914 1.397 . S
C1913 C1918 1.363 . S
C1914 H1891 0.950 . S
C1914 C1913 1.397 . S
C1914 C1915 1.334 . S
C1915 H1892 0.950 . S
C1915 C1914 1.334 . S
C1915 C1916 1.287 . S
C1916 C1915 1.287 . S
C1916 C1917 1.524 . S
C1916 H1935 0.913 . S
C1917 H1893 0.950 . S
C1917 C1916 1.524 . S
C1917 C1918 1.415 . S
C1918 H1894 0.950 . S
C1918 C1913 1.363 . S
C1918 C1917 1.415 . S
C1919 H1895 0.951 . S
C1919 C1920 1.366 . S
C1919 C1921 1.388 . S
C1920 C1919 1.366 . S
C1920 C1924 1.385 . S
C1921 H1896 0.951 . S
C1921 C1919 1.388 . S
C1921 C1922 1.366 . S
C1922 C1921 1.366 . S
C1922 C1923 1.414 . S
C1922 C1925 1.499 . S
C1923 H1897 0.950 . S
C1923 C1922 1.414 . S
C1923 C1924 1.374 . S
C1924 H1898 0.950 . S
C1924 C1920 1.385 . S
C1924 C1923 1.374 . S
C1925 C1922 1.499 . S
C1925 C1926 1.373 . S
C1925 C1927 1.389 . S
C1926 H1899 0.950 . S
C1926 C1912 1.377 1_455 S
C1926 C1925 1.373 . S
C1927 C1911 1.377 1_455 S
C1927 C1925 1.389 . S
C1927 C1928 1.524 . S
C1928 C1927 1.524 . S
C1928 C1929 1.397 . S
C1928 C1933 1.363 . S
C1929 H1900 0.950 . S
C1929 C1928 1.397 . S
C1929 C1930 1.334 . S
C1930 H1901 0.950 . S
C1930 C1929 1.334 . S
C1930 C1931 1.287 . S
C1931 C1930 1.287 . S
C1931 C1932 1.524 . S
C1931 H1934 0.999 . S
C1932 H1902 0.950 . S
C1932 C1931 1.524 . S
C1932 C1933 1.415 . S
C1933 H1903 0.950 . S
C1933 C1928 1.363 . S
C1933 C1932 1.415 . S
H1934 C1931 0.999 . S
H1935 C1916 0.913 . S
H1936 C1954 0.951 . S
H1937 C1956 0.951 . S
H1938 C1958 0.950 . S
H1939 C1959 0.950 . S
H1940 C1961 0.950 . S
H1941 C1964 0.950 . S
H1942 C1965 0.950 . S
H1943 C1967 0.950 . S
H1944 C1968 0.950 . S
H1945 C1969 0.951 . S
H1946 C1971 0.951 . S
H1947 C1973 0.950 . S
H1948 C1974 0.950 . S
H1949 C1976 0.950 . S
H1950 C1979 0.950 . S
H1951 C1980 0.950 . S
H1952 C1982 0.950 . S
H1953 C1983 0.950 . S
C1954 H1936 0.951 . S
C1954 C1955 1.366 . S
C1954 C1956 1.388 . S
C1955 C1954 1.366 . S
C1955 C1959 1.385 . S
C1956 H1937 0.951 . S
C1956 C1954 1.388 . S
C1956 C1957 1.366 . S
C1957 C1956 1.366 . S
C1957 C1958 1.414 . S
C1957 C1960 1.499 . S
C1958 H1938 0.950 . S
C1958 C1957 1.414 . S
C1958 C1959 1.374 . S
C1959 H1939 0.950 . S
C1959 C1955 1.385 . S
C1959 C1958 1.374 . S
C1960 C1957 1.499 . S
C1960 C1961 1.373 . S
C1960 C1962 1.389 . S
C1961 H1940 0.950 . S
C1961 C1960 1.373 . S
C1961 C1977 1.377 1_545 S
C1962 C1960 1.389 . S
C1962 C1963 1.524 . S
C1962 C1976 1.377 1_545 S
C1963 C1962 1.524 . S
C1963 C1964 1.397 . S
C1963 C1968 1.363 . S
C1964 H1941 0.950 . S
C1964 C1963 1.397 . S
C1964 C1965 1.334 . S
C1965 H1942 0.950 . S
C1965 C1964 1.334 . S
C1965 C1966 1.287 . S
C1966 C1965 1.287 . S
C1966 C1967 1.524 . S
C1966 H1985 0.913 . S
C1967 H1943 0.950 . S
C1967 C1966 1.524 . S
C1967 C1968 1.415 . S
C1968 H1944 0.950 . S
C1968 C1963 1.363 . S
C1968 C1967 1.415 . S
C1969 H1945 0.951 . S
C1969 C1970 1.366 . S
C1969 C1971 1.388 . S
C1970 C1969 1.366 . S
C1970 C1974 1.385 . S
C1971 H1946 0.951 . S
C1971 C1969 1.388 . S
C1971 C1972 1.366 . S
C1972 C1971 1.366 . S
C1972 C1973 1.414 . S
C1972 C1975 1.499 . S
C1973 H1947 0.950 . S
C1973 C1972 1.414 . S
C1973 C1974 1.374 . S
C1974 H1948 0.950 . S
C1974 C1970 1.385 . S
C1974 C1973 1.374 . S
C1975 C1972 1.499 . S
C1975 C1976 1.373 . S
C1975 C1977 1.389 . S
C1976 H1949 0.950 . S
C1976 C1962 1.377 1_565 S
C1976 C1975 1.373 . S
C1977 C1961 1.377 1_565 S
C1977 C1975 1.389 . S
C1977 C1978 1.524 . S
C1978 C1977 1.524 . S
C1978 C1979 1.397 . S
C1978 C1983 1.363 . S
C1979 H1950 0.950 . S
C1979 C1978 1.397 . S
C1979 C1980 1.334 . S
C1980 H1951 0.950 . S
C1980 C1979 1.334 . S
C1980 C1981 1.287 . S
C1981 C1980 1.287 . S
C1981 C1982 1.524 . S
C1981 H1984 0.999 . S
C1982 H1952 0.950 . S
C1982 C1981 1.524 . S
C1982 C1983 1.415 . S
C1983 H1953 0.950 . S
C1983 C1978 1.363 . S
C1983 C1982 1.415 . S
H1984 C1981 0.999 . S
H1985 C1966 0.913 . S
H1986 C2004 0.951 . S
H1987 C2006 0.951 . S
H1988 C2008 0.950 . S
H1989 C2009 0.950 . S
H1990 C2011 0.950 . S
H1991 C2014 0.950 . S
H1992 C2015 0.950 . S
H1993 C2017 0.950 . S
H1994 C2018 0.950 . S
H1995 C2019 0.951 . S
H1996 C2021 0.951 . S
H1997 C2023 0.950 . S
H1998 C2024 0.950 . S
H1999 C2026 0.950 . S
H2000 C2029 0.950 . S
H2001 C2030 0.950 . S
H2002 C2032 0.950 . S
H2003 C2033 0.950 . S
C2004 H1986 0.951 . S
C2004 C2005 1.366 . S
C2004 C2006 1.388 . S
C2005 C2004 1.366 . S
C2005 C2009 1.385 . S
C2006 H1987 0.951 . S
C2006 C2004 1.388 . S
C2006 C2007 1.366 . S
C2007 C2006 1.366 . S
C2007 C2008 1.414 . S
C2007 C2010 1.499 . S
C2008 H1988 0.950 . S
C2008 C2007 1.414 . S
C2008 C2009 1.374 . S
C2009 H1989 0.950 . S
C2009 C2005 1.385 . S
C2009 C2008 1.374 . S
C2010 C2007 1.499 . S
C2010 C2011 1.373 . S
C2010 C2012 1.389 . S
C2011 H1990 0.950 . S
C2011 C2010 1.373 . S
C2011 C2027 1.377 . S
C2012 C2010 1.389 . S
C2012 C2013 1.524 . S
C2012 C2026 1.377 . S
C2013 C2012 1.524 . S
C2013 C2014 1.397 . S
C2013 C2018 1.363 . S
C2014 H1991 0.950 . S
C2014 C2013 1.397 . S
C2014 C2015 1.334 . S
C2015 H1992 0.950 . S
C2015 C2014 1.334 . S
C2015 C2016 1.287 . S
C2016 C2015 1.287 . S
C2016 C2017 1.524 . S
C2016 H2035 0.913 . S
C2017 H1993 0.950 . S
C2017 C2016 1.524 . S
C2017 C2018 1.415 . S
C2018 H1994 0.950 . S
C2018 C2013 1.363 . S
C2018 C2017 1.415 . S
C2019 H1995 0.951 . S
C2019 C2020 1.366 . S
C2019 C2021 1.388 . S
C2020 C2019 1.366 . S
C2020 C2024 1.385 . S
C2021 H1996 0.951 . S
C2021 C2019 1.388 . S
C2021 C2022 1.366 . S
C2022 C2021 1.366 . S
C2022 C2023 1.414 . S
C2022 C2025 1.499 . S
C2023 H1997 0.950 . S
C2023 C2022 1.414 . S
C2023 C2024 1.374 . S
C2024 H1998 0.950 . S
C2024 C2020 1.385 . S
C2024 C2023 1.374 . S
C2025 C2022 1.499 . S
C2025 C2026 1.373 . S
C2025 C2027 1.389 . S
C2026 H1999 0.950 . S
C2026 C2012 1.377 . S
C2026 C2025 1.373 . S
C2027 C2011 1.377 . S
C2027 C2025 1.389 . S
C2027 C2028 1.524 . S
C2028 C2027 1.524 . S
C2028 C2029 1.397 . S
C2028 C2033 1.363 . S
C2029 H2000 0.950 . S
C2029 C2028 1.397 . S
C2029 C2030 1.334 . S
C2030 H2001 0.950 . S
C2030 C2029 1.334 . S
C2030 C2031 1.287 . S
C2031 C2030 1.287 . S
C2031 C2032 1.524 . S
C2031 H2034 0.999 . S
C2032 H2002 0.950 . S
C2032 C2031 1.524 . S
C2032 C2033 1.415 . S
C2033 H2003 0.950 . S
C2033 C2028 1.363 . S
C2033 C2032 1.415 . S
H2034 C2031 0.999 . S
H2035 C2016 0.913 . S
H2036 C2054 0.951 . S
H2037 C2056 0.951 . S
H2038 C2058 0.950 . S
H2039 C2059 0.950 . S
H2040 C2061 0.950 . S
H2041 C2064 0.950 . S
H2042 C2065 0.950 . S
H2043 C2067 0.950 . S
H2044 C2068 0.950 . S
H2045 C2069 0.951 . S
H2046 C2071 0.951 . S
H2047 C2073 0.950 . S
H2048 C2074 0.950 . S
H2049 C2076 0.950 . S
H2050 C2079 0.950 . S
H2051 C2080 0.950 1_554 S
H2052 C2082 0.950 . S
H2053 C2083 0.950 . S
C2054 H2036 0.951 . S
C2054 C2055 1.366 . S
C2054 C2056 1.388 . S
C2055 C2054 1.366 . S
C2055 C2059 1.385 . S
C2056 H2037 0.951 . S
C2056 C2054 1.388 . S
C2056 C2057 1.366 . S
C2057 C2056 1.366 . S
C2057 C2058 1.414 . S
C2057 C2060 1.499 . S
C2058 H2038 0.950 . S
C2058 C2057 1.414 . S
C2058 C2059 1.374 . S
C2059 H2039 0.950 . S
C2059 C2055 1.385 . S
C2059 C2058 1.374 . S
C2060 C2057 1.499 . S
C2060 C2061 1.373 . S
C2060 C2062 1.389 . S
C2061 H2040 0.950 . S
C2061 C2060 1.373 . S
C2061 C2077 1.377 1_455 S
C2062 C2060 1.389 . S
C2062 C2063 1.524 . S
C2062 C2076 1.377 1_455 S
C2063 C2062 1.524 . S
C2063 C2064 1.397 . S
C2063 C2068 1.363 . S
C2064 H2041 0.950 . S
C2064 C2063 1.397 . S
C2064 C2065 1.334 . S
C2065 H2042 0.950 . S
C2065 C2064 1.334 . S
C2065 C2066 1.287 . S
C2066 C2065 1.287 . S
C2066 C2067 1.524 . S
C2066 H2085 0.913 . S
C2067 H2043 0.950 . S
C2067 C2066 1.524 . S
C2067 C2068 1.415 . S
C2068 H2044 0.950 . S
C2068 C2063 1.363 . S
C2068 C2067 1.415 . S
C2069 H2045 0.951 . S
C2069 C2070 1.366 . S
C2069 C2071 1.388 . S
C2070 C2069 1.366 . S
C2070 C2074 1.385 . S
C2071 H2046 0.951 . S
C2071 C2069 1.388 . S
C2071 C2072 1.366 . S
C2072 C2071 1.366 . S
C2072 C2073 1.414 . S
C2072 C2075 1.499 . S
C2073 H2047 0.950 . S
C2073 C2072 1.414 . S
C2073 C2074 1.374 . S
C2074 H2048 0.950 . S
C2074 C2070 1.385 . S
C2074 C2073 1.374 . S
C2075 C2072 1.499 . S
C2075 C2076 1.373 . S
C2075 C2077 1.389 . S
C2076 H2049 0.950 . S
C2076 C2062 1.377 1_655 S
C2076 C2075 1.373 . S
C2077 C2061 1.377 1_655 S
C2077 C2075 1.389 . S
C2077 C2078 1.524 . S
C2078 C2077 1.524 . S
C2078 C2079 1.397 . S
C2078 C2083 1.363 . S
C2079 H2050 0.950 . S
C2079 C2078 1.397 . S
C2079 C2080 1.334 . S
C2080 H2051 0.950 1_556 S
C2080 C2079 1.334 . S
C2080 C2081 1.287 . S
C2081 C2080 1.287 . S
C2081 C2082 1.524 . S
C2081 H2084 0.999 1_556 S
C2082 H2052 0.950 . S
C2082 C2081 1.524 . S
C2082 C2083 1.415 . S
C2083 H2053 0.950 . S
C2083 C2078 1.363 . S
C2083 C2082 1.415 . S
H2084 C2081 0.999 1_554 S
H2085 C2066 0.913 . S
H2086 C2104 0.951 . S
H2087 C2106 0.951 . S
H2088 C2108 0.950 . S
H2089 C2109 0.950 . S
H2090 C2111 0.950 . S
H2091 C2114 0.950 . S
H2092 C2115 0.950 . S
H2093 C2117 0.950 . S
H2094 C2118 0.950 . S
H2095 C2119 0.951 . S
H2096 C2121 0.951 . S
H2097 C2123 0.950 . S
H2098 C2124 0.950 . S
H2099 C2126 0.950 . S
H2100 C2129 0.950 . S
H2101 C2130 0.950 . S
H2102 C2132 0.950 . S
H2103 C2133 0.950 . S
C2104 H2086 0.951 . S
C2104 C2105 1.366 . S
C2104 C2106 1.388 . S
C2105 C2104 1.366 . S
C2105 C2109 1.385 . S
C2106 H2087 0.951 . S
C2106 C2104 1.388 . S
C2106 C2107 1.366 . S
C2107 C2106 1.366 . S
C2107 C2108 1.414 . S
C2107 C2110 1.499 . S
C2108 H2088 0.950 . S
C2108 C2107 1.414 . S
C2108 C2109 1.374 . S
C2109 H2089 0.950 . S
C2109 C2105 1.385 . S
C2109 C2108 1.374 . S
C2110 C2107 1.499 . S
C2110 C2111 1.373 . S
C2110 C2112 1.389 . S
C2111 H2090 0.950 . S
C2111 C2110 1.373 . S
C2111 C2127 1.377 1_565 S
C2112 C2110 1.389 . S
C2112 C2113 1.524 . S
C2112 C2126 1.377 1_565 S
C2113 C2112 1.524 . S
C2113 C2114 1.397 . S
C2113 C2118 1.363 . S
C2114 H2091 0.950 . S
C2114 C2113 1.397 . S
C2114 C2115 1.334 . S
C2115 H2092 0.950 . S
C2115 C2114 1.334 . S
C2115 C2116 1.287 . S
C2116 C2115 1.287 . S
C2116 C2117 1.524 . S
C2116 H2135 0.913 . S
C2117 H2093 0.950 . S
C2117 C2116 1.524 . S
C2117 C2118 1.415 . S
C2118 H2094 0.950 . S
C2118 C2113 1.363 . S
C2118 C2117 1.415 . S
C2119 H2095 0.951 . S
C2119 C2120 1.366 . S
C2119 C2121 1.388 . S
C2120 C2119 1.366 . S
C2120 C2124 1.385 . S
C2121 H2096 0.951 . S
C2121 C2119 1.388 . S
C2121 C2122 1.366 . S
C2122 C2121 1.366 . S
C2122 C2123 1.414 . S
C2122 C2125 1.499 . S
C2123 H2097 0.950 . S
C2123 C2122 1.414 . S
C2123 C2124 1.374 . S
C2124 H2098 0.950 . S
C2124 C2120 1.385 . S
C2124 C2123 1.374 . S
C2125 C2122 1.499 . S
C2125 C2126 1.373 . S
C2125 C2127 1.389 . S
C2126 H2099 0.950 . S
C2126 C2112 1.377 1_545 S
C2126 C2125 1.373 . S
C2127 C2111 1.377 1_545 S
C2127 C2125 1.389 . S
C2127 C2128 1.524 . S
C2128 C2127 1.524 . S
C2128 C2129 1.397 . S
C2128 C2133 1.363 . S
C2129 H2100 0.950 . S
C2129 C2128 1.397 . S
C2129 C2130 1.334 . S
C2130 H2101 0.950 . S
C2130 C2129 1.334 . S
C2130 C2131 1.287 . S
C2131 C2130 1.287 . S
C2131 C2132 1.524 . S
C2131 H2134 0.999 . S
C2132 H2102 0.950 . S
C2132 C2131 1.524 . S
C2132 C2133 1.415 . S
C2133 H2103 0.950 . S
C2133 C2128 1.363 . S
C2133 C2132 1.415 . S
H2134 C2131 0.999 . S
H2135 C2116 0.913 . S
H2136 C2154 0.951 . S
H2137 C2156 0.951 . S
H2138 C2158 0.950 1_554 S
H2139 C2159 0.950 . S
H2140 C2161 0.950 . S
H2141 C2164 0.975 . S
H2142 C2165 0.950 . S
H2143 C2167 0.950 . S
H2144 C2168 0.950 . S
H2145 C2169 0.951 . S
H2146 C2171 0.951 . S
H2147 C2173 0.950 1_556 S
H2148 C2174 0.950 . S
H2149 C2176 0.950 . S
H2150 C2179 0.975 . S
H2151 C2180 0.950 . S
H2152 C2182 0.950 . S
H2153 C2183 0.950 . S
C2154 H2136 0.951 . S
C2154 C2155 1.366 . S
C2154 C2156 1.388 . S
C2155 C2154 1.366 . S
C2155 C2159 1.385 . S
C2156 H2137 0.951 . S
C2156 C2154 1.388 . S
C2156 C2157 1.366 . S
C2157 C2156 1.366 . S
C2157 C2158 1.414 . S
C2157 C2160 1.499 . S
C2158 H2138 0.950 1_556 S
C2158 C2157 1.414 . S
C2158 C2159 1.374 . S
C2159 H2139 0.950 . S
C2159 C2155 1.385 . S
C2159 C2158 1.374 . S
C2160 C2157 1.499 . S
C2160 C2161 1.373 1_556 S
C2160 C2162 1.389 . S
C2161 H2140 0.950 . S
C2161 C2160 1.373 1_554 S
C2161 C2177 1.377 . S
C2162 C2160 1.389 . S
C2162 C2163 1.524 . S
C2162 C2176 1.377 . S
C2163 C2162 1.524 . S
C2163 C2164 1.397 . S
C2163 C2168 1.363 . S
C2164 H2141 0.975 . S
C2164 C2163 1.397 . S
C2164 C2165 1.334 . S
C2165 H2142 0.950 . S
C2165 C2164 1.334 . S
C2165 C2166 1.287 . S
C2166 C2165 1.287 . S
C2166 C2167 1.524 . S
C2166 H2185 0.913 . S
C2167 H2143 0.950 . S
C2167 C2166 1.524 . S
C2167 C2168 1.415 . S
C2168 H2144 0.950 . S
C2168 C2163 1.363 . S
C2168 C2167 1.415 . S
C2169 H2145 0.951 . S
C2169 C2170 1.366 . S
C2169 C2171 1.388 . S
C2170 C2169 1.366 . S
C2170 C2174 1.385 . S
C2171 H2146 0.951 . S
C2171 C2169 1.388 . S
C2171 C2172 1.366 . S
C2172 C2171 1.366 . S
C2172 C2173 1.414 . S
C2172 C2175 1.499 . S
C2173 H2147 0.950 1_554 S
C2173 C2172 1.414 . S
C2173 C2174 1.374 . S
C2174 H2148 0.950 . S
C2174 C2170 1.385 . S
C2174 C2173 1.374 . S
C2175 C2172 1.499 . S
C2175 C2176 1.373 1_554 S
C2175 C2177 1.389 . S
C2176 H2149 0.950 . S
C2176 C2162 1.377 . S
C2176 C2175 1.373 1_556 S
C2177 C2161 1.377 . S
C2177 C2175 1.389 . S
C2177 C2178 1.524 . S
C2178 C2177 1.524 . S
C2178 C2179 1.397 . S
C2178 C2183 1.363 . S
C2179 H2150 0.975 . S
C2179 C2178 1.397 . S
C2179 C2180 1.334 . S
C2180 H2151 0.950 . S
C2180 C2179 1.334 . S
C2180 C2181 1.287 . S
C2181 C2180 1.287 . S
C2181 C2182 1.524 . S
C2181 H2184 0.999 . S
C2182 H2152 0.950 . S
C2182 C2181 1.524 . S
C2182 C2183 1.415 . S
C2183 H2153 0.950 . S
C2183 C2178 1.363 . S
C2183 C2182 1.415 . S
H2184 C2181 0.999 . S
H2185 C2166 0.913 . S
H2186 C2204 0.951 . S
H2187 C2206 0.951 . S
H2188 C2208 0.950 . S
H2189 C2209 0.950 . S
H2190 C2211 0.950 . S
H2191 C2214 0.950 . S
H2192 C2215 0.950 . S
H2193 C2217 0.950 . S
H2194 C2218 0.950 . S
H2195 C2219 0.951 . S
H2196 C2221 0.951 . S
H2197 C2223 0.950 . S
H2198 C2224 0.950 . S
H2199 C2226 0.950 . S
H2200 C2229 0.950 . S
H2201 C2230 0.950 . S
H2202 C2232 0.950 . S
H2203 C2233 0.950 . S
C2204 H2186 0.951 . S
C2204 C2205 1.366 . S
C2204 C2206 1.388 . S
C2205 C2204 1.366 . S
C2205 C2209 1.385 . S
C2206 H2187 0.951 . S
C2206 C2204 1.388 . S
C2206 C2207 1.366 . S
C2207 C2206 1.366 . S
C2207 C2208 1.414 . S
C2207 C2210 1.499 . S
C2208 H2188 0.950 . S
C2208 C2207 1.414 . S
C2208 C2209 1.374 . S
C2209 H2189 0.950 . S
C2209 C2205 1.385 . S
C2209 C2208 1.374 . S
C2210 C2207 1.499 . S
C2210 C2211 1.373 . S
C2210 C2212 1.389 . S
C2211 H2190 0.950 . S
C2211 C2210 1.373 . S
C2211 C2227 1.377 . S
C2212 C2210 1.389 . S
C2212 C2213 1.524 . S
C2212 C2226 1.377 . S
C2213 C2212 1.524 . S
C2213 C2214 1.397 . S
C2213 C2218 1.363 . S
C2214 H2191 0.950 . S
C2214 C2213 1.397 . S
C2214 C2215 1.334 . S
C2215 H2192 0.950 . S
C2215 C2214 1.334 . S
C2215 C2216 1.287 . S
C2216 C2215 1.287 . S
C2216 C2217 1.524 . S
C2216 H2235 0.913 . S
C2217 H2193 0.950 . S
C2217 C2216 1.524 . S
C2217 C2218 1.415 . S
C2218 H2194 0.950 . S
C2218 C2213 1.363 . S
C2218 C2217 1.415 . S
C2219 H2195 0.951 . S
C2219 C2220 1.366 . S
C2219 C2221 1.388 . S
C2220 C2219 1.366 . S
C2220 C2224 1.385 . S
C2221 H2196 0.951 . S
C2221 C2219 1.388 . S
C2221 C2222 1.366 . S
C2222 C2221 1.366 . S
C2222 C2223 1.414 . S
C2222 C2225 1.499 . S
C2223 H2197 0.950 . S
C2223 C2222 1.414 . S
C2223 C2224 1.374 . S
C2224 H2198 0.950 . S
C2224 C2220 1.385 . S
C2224 C2223 1.374 . S
C2225 C2222 1.499 . S
C2225 C2226 1.373 . S
C2225 C2227 1.389 . S
C2226 H2199 0.950 . S
C2226 C2212 1.377 . S
C2226 C2225 1.373 . S
C2227 C2211 1.377 . S
C2227 C2225 1.389 . S
C2227 C2228 1.524 . S
C2228 C2227 1.524 . S
C2228 C2229 1.397 . S
C2228 C2233 1.363 . S
C2229 H2200 0.950 . S
C2229 C2228 1.397 . S
C2229 C2230 1.334 . S
C2230 H2201 0.950 . S
C2230 C2229 1.334 . S
C2230 C2231 1.287 . S
C2231 C2230 1.287 . S
C2231 C2232 1.524 . S
C2231 H2234 0.999 . S
C2232 H2202 0.950 . S
C2232 C2231 1.524 . S
C2232 C2233 1.415 . S
C2233 H2203 0.950 . S
C2233 C2228 1.363 . S
C2233 C2232 1.415 . S
H2234 C2231 0.999 . S
H2235 C2216 0.913 . S
H2236 C2254 0.951 . S
H2237 C2256 0.951 . S
H2238 C2258 0.950 . S
H2239 C2259 0.950 . S
H2240 C2261 0.950 . S
H2241 C2264 0.950 . S
H2242 C2265 0.950 . S
H2243 C2267 0.950 . S
H2244 C2268 0.950 . S
H2245 C2269 0.951 . S
H2246 C2271 0.951 . S
H2247 C2273 0.950 . S
H2248 C2274 0.950 . S
H2249 C2276 0.950 . S
H2250 C2279 0.950 . S
H2251 C2280 0.950 . S
H2252 C2282 0.950 . S
H2253 C2283 0.950 . S
C2254 H2236 0.951 . S
C2254 C2255 1.366 . S
C2254 C2256 1.388 . S
C2255 C2254 1.366 . S
C2255 C2259 1.385 . S
C2256 H2237 0.951 . S
C2256 C2254 1.388 . S
C2256 C2257 1.366 . S
C2257 C2256 1.366 . S
C2257 C2258 1.414 . S
C2257 C2260 1.499 . S
C2258 H2238 0.950 . S
C2258 C2257 1.414 . S
C2258 C2259 1.374 . S
C2259 H2239 0.950 . S
C2259 C2255 1.385 . S
C2259 C2258 1.374 . S
C2260 C2257 1.499 . S
C2260 C2261 1.373 1_556 S
C2260 C2262 1.389 . S
C2261 H2240 0.950 . S
C2261 C2260 1.373 1_554 S
C2261 C2277 1.377 . S
C2262 C2260 1.389 . S
C2262 C2263 1.524 . S
C2262 C2276 1.377 . S
C2263 C2262 1.524 . S
C2263 C2264 1.397 . S
C2263 C2268 1.363 . S
C2264 H2241 0.950 . S
C2264 C2263 1.397 . S
C2264 C2265 1.334 . S
C2265 H2242 0.950 . S
C2265 C2264 1.334 . S
C2265 C2266 1.287 . S
C2266 C2265 1.287 . S
C2266 C2267 1.524 . S
C2266 H2285 0.913 . S
C2267 H2243 0.950 . S
C2267 C2266 1.524 . S
C2267 C2268 1.415 . S
C2268 H2244 0.950 . S
C2268 C2263 1.363 . S
C2268 C2267 1.415 . S
C2269 H2245 0.951 . S
C2269 C2270 1.366 . S
C2269 C2271 1.388 . S
C2270 C2269 1.366 . S
C2270 C2274 1.385 . S
C2271 H2246 0.951 . S
C2271 C2269 1.388 . S
C2271 C2272 1.366 . S
C2272 C2271 1.366 . S
C2272 C2273 1.414 . S
C2272 C2275 1.499 . S
C2273 H2247 0.950 . S
C2273 C2272 1.414 . S
C2273 C2274 1.374 . S
C2274 H2248 0.950 . S
C2274 C2270 1.385 . S
C2274 C2273 1.374 . S
C2275 C2272 1.499 . S
C2275 C2276 1.373 1_554 S
C2275 C2277 1.389 . S
C2276 H2249 0.950 . S
C2276 C2262 1.377 . S
C2276 C2275 1.373 1_556 S
C2277 C2261 1.377 . S
C2277 C2275 1.389 . S
C2277 C2278 1.524 . S
C2278 C2277 1.524 . S
C2278 C2279 1.397 . S
C2278 C2283 1.363 . S
C2279 H2250 0.950 . S
C2279 C2278 1.397 . S
C2279 C2280 1.334 . S
C2280 H2251 0.950 . S
C2280 C2279 1.334 . S
C2280 C2281 1.287 . S
C2281 C2280 1.287 . S
C2281 C2282 1.524 . S
C2281 H2284 0.999 . S
C2282 H2252 0.950 . S
C2282 C2281 1.524 . S
C2282 C2283 1.415 . S
C2283 H2253 0.950 . S
C2283 C2278 1.363 . S
C2283 C2282 1.415 . S
H2284 C2281 0.999 . S
H2285 C2266 0.913 . S
H2286 C2304 0.951 . S
H2287 C2306 0.951 . S
H2288 C2308 0.950 . S
H2289 C2309 0.950 . S
H2290 C2311 0.950 . S
H2291 C2314 0.950 . S
H2292 C2315 0.950 . S
H2293 C2317 0.950 . S
H2294 C2318 0.950 . S
H2295 C2319 0.951 . S
H2296 C2321 0.951 . S
H2297 C2323 0.950 . S
H2298 C2324 0.950 . S
H2299 C2326 0.950 . S
H2300 C2329 0.950 . S
H2301 C2330 0.950 . S
H2302 C2332 0.950 . S
H2303 C2333 0.950 . S
C2304 H2286 0.951 . S
C2304 C2305 1.366 . S
C2304 C2306 1.388 . S
C2305 C2304 1.366 . S
C2305 C2309 1.385 . S
C2306 H2287 0.951 . S
C2306 C2304 1.388 . S
C2306 C2307 1.366 . S
C2307 C2306 1.366 . S
C2307 C2308 1.414 . S
C2307 C2310 1.499 . S
C2308 H2288 0.950 . S
C2308 C2307 1.414 . S
C2308 C2309 1.374 . S
C2309 H2289 0.950 . S
C2309 C2305 1.385 . S
C2309 C2308 1.374 . S
C2310 C2307 1.499 . S
C2310 C2311 1.373 . S
C2310 C2312 1.389 . S
C2311 H2290 0.950 . S
C2311 C2310 1.373 . S
C2311 C2327 1.377 . S
C2312 C2310 1.389 . S
C2312 C2313 1.524 . S
C2312 C2326 1.377 . S
C2313 C2312 1.524 . S
C2313 C2314 1.397 . S
C2313 C2318 1.363 . S
C2314 H2291 0.950 . S
C2314 C2313 1.397 . S
C2314 C2315 1.334 . S
C2315 H2292 0.950 . S
C2315 C2314 1.334 . S
C2315 C2316 1.287 . S
C2316 C2315 1.287 . S
C2316 C2317 1.524 . S
C2316 H2335 0.913 . S
C2317 H2293 0.950 . S
C2317 C2316 1.524 . S
C2317 C2318 1.415 . S
C2318 H2294 0.950 . S
C2318 C2313 1.363 . S
C2318 C2317 1.415 . S
C2319 H2295 0.951 . S
C2319 C2320 1.366 . S
C2319 C2321 1.388 . S
C2320 C2319 1.366 . S
C2320 C2324 1.385 . S
C2321 H2296 0.951 . S
C2321 C2319 1.388 . S
C2321 C2322 1.366 . S
C2322 C2321 1.366 . S
C2322 C2323 1.414 . S
C2322 C2325 1.499 . S
C2323 H2297 0.950 . S
C2323 C2322 1.414 . S
C2323 C2324 1.374 . S
C2324 H2298 0.950 . S
C2324 C2320 1.385 . S
C2324 C2323 1.374 . S
C2325 C2322 1.499 . S
C2325 C2326 1.373 . S
C2325 C2327 1.389 . S
C2326 H2299 0.950 . S
C2326 C2312 1.377 . S
C2326 C2325 1.373 . S
C2327 C2311 1.377 . S
C2327 C2325 1.389 . S
C2327 C2328 1.524 . S
C2328 C2327 1.524 . S
C2328 C2329 1.397 . S
C2328 C2333 1.363 . S
C2329 H2300 0.950 . S
C2329 C2328 1.397 . S
C2329 C2330 1.334 . S
C2330 H2301 0.950 . S
C2330 C2329 1.334 . S
C2330 C2331 1.287 . S
C2331 C2330 1.287 . S
C2331 C2332 1.524 . S
C2331 H2334 0.999 . S
C2332 H2302 0.950 . S
C2332 C2331 1.524 . S
C2332 C2333 1.415 . S
C2333 H2303 0.950 . S
C2333 C2328 1.363 . S
C2333 C2332 1.415 . S
H2334 C2331 0.999 . S
H2335 C2316 0.913 . S
H2336 C2354 0.951 . S
H2337 C2356 0.951 . S
H2338 C2358 0.950 . S
H2339 C2359 0.950 . S
H2340 C2361 0.950 . S
H2341 C2364 0.950 . S
H2342 C2365 0.950 . S
H2343 C2367 0.950 . S
H2344 C2368 0.950 . S
H2345 C2369 0.951 . S
H2346 C2371 0.951 . S
H2347 C2373 0.950 . S
H2348 C2374 0.950 . S
H2349 C2376 0.950 . S
H2350 C2379 0.950 . S
H2351 C2380 0.950 . S
H2352 C2382 0.950 . S
H2353 C2383 0.950 . S
C2354 H2336 0.951 . S
C2354 C2355 1.366 . S
C2354 C2356 1.388 . S
C2355 C2354 1.366 . S
C2355 C2359 1.385 . S
C2356 H2337 0.951 . S
C2356 C2354 1.388 . S
C2356 C2357 1.366 . S
C2357 C2356 1.366 . S
C2357 C2358 1.414 . S
C2357 C2360 1.499 . S
C2358 H2338 0.950 . S
C2358 C2357 1.414 . S
C2358 C2359 1.374 . S
C2359 H2339 0.950 . S
C2359 C2355 1.385 . S
C2359 C2358 1.374 . S
C2360 C2357 1.499 . S
C2360 C2361 1.373 . S
C2360 C2362 1.389 1_556 S
C2361 H2340 0.950 . S
C2361 C2360 1.373 . S
C2361 C2377 1.377 . S
C2362 C2360 1.389 1_554 S
C2362 C2363 1.524 . S
C2362 C2376 1.377 . S
C2363 C2362 1.524 . S
C2363 C2364 1.397 . S
C2363 C2368 1.363 . S
C2364 H2341 0.950 . S
C2364 C2363 1.397 . S
C2364 C2365 1.334 . S
C2365 H2342 0.950 . S
C2365 C2364 1.334 . S
C2365 C2366 1.287 . S
C2366 C2365 1.287 . S
C2366 C2367 1.524 . S
C2366 H2385 0.913 . S
C2367 H2343 0.950 . S
C2367 C2366 1.524 . S
C2367 C2368 1.415 . S
C2368 H2344 0.950 . S
C2368 C2363 1.363 . S
C2368 C2367 1.415 . S
C2369 H2345 0.951 . S
C2369 C2370 1.366 . S
C2369 C2371 1.388 . S
C2370 C2369 1.366 . S
C2370 C2374 1.385 . S
C2371 H2346 0.951 . S
C2371 C2369 1.388 . S
C2371 C2372 1.366 . S
C2372 C2371 1.366 . S
C2372 C2373 1.414 . S
C2372 C2375 1.499 . S
C2373 H2347 0.950 . S
C2373 C2372 1.414 . S
C2373 C2374 1.374 . S
C2374 H2348 0.950 . S
C2374 C2370 1.385 . S
C2374 C2373 1.374 . S
C2375 C2372 1.499 . S
C2375 C2376 1.373 . S
C2375 C2377 1.389 1_554 S
C2376 H2349 0.950 . S
C2376 C2362 1.377 . S
C2376 C2375 1.373 . S
C2377 C2361 1.377 . S
C2377 C2375 1.389 1_556 S
C2377 C2378 1.524 . S
C2378 C2377 1.524 . S
C2378 C2379 1.397 . S
C2378 C2383 1.363 . S
C2379 H2350 0.950 . S
C2379 C2378 1.397 . S
C2379 C2380 1.334 . S
C2380 H2351 0.950 . S
C2380 C2379 1.334 . S
C2380 C2381 1.287 . S
C2381 C2380 1.287 . S
C2381 C2382 1.524 . S
C2381 H2384 0.999 . S
C2382 H2352 0.950 . S
C2382 C2381 1.524 . S
C2382 C2383 1.415 . S
C2383 H2353 0.950 . S
C2383 C2378 1.363 . S
C2383 C2382 1.415 . S
H2384 C2381 0.999 . S
H2385 C2366 0.913 . S
H2386 C2404 0.951 . S
H2387 C2406 0.951 . S
H2388 C2408 0.950 . S
H2389 C2409 0.950 . S
H2390 C2411 0.950 . S
H2391 C2414 0.950 . S
H2392 C2415 0.950 . S
H2393 C2417 0.950 . S
H2394 C2418 0.950 . S
H2395 C2419 0.951 . S
H2396 C2421 0.951 . S
H2397 C2423 0.950 . S
H2398 C2424 0.950 . S
H2399 C2426 0.950 . S
H2400 C2429 0.950 . S
H2401 C2430 0.950 . S
H2402 C2432 0.950 . S
H2403 C2433 0.950 . S
C2404 H2386 0.951 . S
C2404 C2405 1.366 . S
C2404 C2406 1.388 . S
C2405 C2404 1.366 . S
C2405 C2409 1.385 . S
C2406 H2387 0.951 . S
C2406 C2404 1.388 . S
C2406 C2407 1.366 . S
C2407 C2406 1.366 . S
C2407 C2408 1.414 . S
C2407 C2410 1.499 . S
C2408 H2388 0.950 . S
C2408 C2407 1.414 . S
C2408 C2409 1.374 . S
C2409 H2389 0.950 . S
C2409 C2405 1.385 . S
C2409 C2408 1.374 . S
C2410 C2407 1.499 . S
C2410 C2411 1.373 . S
C2410 C2412 1.389 . S
C2411 H2390 0.950 . S
C2411 C2410 1.373 . S
C2411 C2427 1.377 . S
C2412 C2410 1.389 . S
C2412 C2413 1.524 . S
C2412 C2426 1.377 . S
C2413 C2412 1.524 . S
C2413 C2414 1.397 . S
C2413 C2418 1.363 . S
C2414 H2391 0.950 . S
C2414 C2413 1.397 . S
C2414 C2415 1.334 . S
C2415 H2392 0.950 . S
C2415 C2414 1.334 . S
C2415 C2416 1.287 . S
C2416 C2415 1.287 . S
C2416 C2417 1.524 . S
C2416 H2435 0.913 . S
C2417 H2393 0.950 . S
C2417 C2416 1.524 . S
C2417 C2418 1.415 . S
C2418 H2394 0.950 . S
C2418 C2413 1.363 . S
C2418 C2417 1.415 . S
C2419 H2395 0.951 . S
C2419 C2420 1.366 . S
C2419 C2421 1.388 . S
C2420 C2419 1.366 . S
C2420 C2424 1.385 . S
C2421 H2396 0.951 . S
C2421 C2419 1.388 . S
C2421 C2422 1.366 . S
C2422 C2421 1.366 . S
C2422 C2423 1.414 . S
C2422 C2425 1.499 . S
C2423 H2397 0.950 . S
C2423 C2422 1.414 . S
C2423 C2424 1.374 . S
C2424 H2398 0.950 . S
C2424 C2420 1.385 . S
C2424 C2423 1.374 . S
C2425 C2422 1.499 . S
C2425 C2426 1.373 . S
C2425 C2427 1.389 . S
C2426 H2399 0.950 . S
C2426 C2412 1.377 . S
C2426 C2425 1.373 . S
C2427 C2411 1.377 . S
C2427 C2425 1.389 . S
C2427 C2428 1.524 . S
C2428 C2427 1.524 . S
C2428 C2429 1.397 . S
C2428 C2433 1.363 . S
C2429 H2400 0.950 . S
C2429 C2428 1.397 . S
C2429 C2430 1.334 . S
C2430 H2401 0.950 . S
C2430 C2429 1.334 . S
C2430 C2431 1.287 . S
C2431 C2430 1.287 . S
C2431 C2432 1.524 . S
C2431 H2434 0.999 . S
C2432 H2402 0.950 . S
C2432 C2431 1.524 . S
C2432 C2433 1.415 . S
C2433 H2403 0.950 . S
C2433 C2428 1.363 . S
C2433 C2432 1.415 . S
H2434 C2431 0.999 . S
H2435 C2416 0.913 . S
H2436 C2454 0.951 . S
H2437 C2456 0.951 . S
H2438 C2458 0.950 . S
H2439 C2459 0.950 . S
H2440 C2461 0.950 . S
H2441 C2464 0.950 . S
H2442 C2465 0.950 . S
H2443 C2467 0.950 . S
H2444 C2468 0.950 1_556 S
H2445 C2469 0.951 . S
H2446 C2471 0.951 . S
H2447 C2473 0.950 . S
H2448 C2474 0.950 . S
H2449 C2476 0.950 . S
H2450 C2479 0.950 . S
H2451 C2480 0.950 . S
H2452 C2482 0.950 . S
H2453 C2483 0.950 1_554 S
C2454 H2436 0.951 . S
C2454 C2455 1.366 . S
C2454 C2456 1.388 . S
C2455 C2454 1.366 . S
C2455 C2459 1.385 . S
C2456 H2437 0.951 . S
C2456 C2454 1.388 . S
C2456 C2457 1.366 . S
C2457 C2456 1.366 . S
C2457 C2458 1.414 . S
C2457 C2460 1.499 . S
C2458 H2438 0.950 . S
C2458 C2457 1.414 . S
C2458 C2459 1.374 . S
C2459 H2439 0.950 . S
C2459 C2455 1.385 . S
C2459 C2458 1.374 . S
C2460 C2457 1.499 . S
C2460 C2461 1.373 . S
C2460 C2462 1.389 . S
C2461 H2440 0.950 . S
C2461 C2460 1.373 . S
C2461 C2477 1.377 1_554 S
C2462 C2460 1.389 . S
C2462 C2463 1.524 . S
C2462 C2476 1.377 1_554 S
C2463 C2462 1.524 . S
C2463 C2464 1.397 . S
C2463 C2468 1.363 . S
C2464 H2441 0.950 . S
C2464 C2463 1.397 . S
C2464 C2465 1.334 . S
C2465 H2442 0.950 . S
C2465 C2464 1.334 . S
C2465 C2466 1.287 . S
C2466 C2465 1.287 . S
C2466 C2467 1.524 . S
C2466 H2485 0.913 . S
C2467 H2443 0.950 . S
C2467 C2466 1.524 . S
C2467 C2468 1.415 . S
C2468 H2444 0.950 1_554 S
C2468 C2463 1.363 . S
C2468 C2467 1.415 . S
C2469 H2445 0.951 . S
C2469 C2470 1.366 . S
C2469 C2471 1.388 . S
C2470 C2469 1.366 . S
C2470 C2474 1.385 . S
C2471 H2446 0.951 . S
C2471 C2469 1.388 . S
C2471 C2472 1.366 . S
C2472 C2471 1.366 . S
C2472 C2473 1.414 . S
C2472 C2475 1.499 . S
C2473 H2447 0.950 . S
C2473 C2472 1.414 . S
C2473 C2474 1.374 . S
C2474 H2448 0.950 . S
C2474 C2470 1.385 . S
C2474 C2473 1.374 . S
C2475 C2472 1.499 . S
C2475 C2476 1.373 . S
C2475 C2477 1.389 . S
C2476 H2449 0.950 . S
C2476 C2462 1.377 1_556 S
C2476 C2475 1.373 . S
C2477 C2461 1.377 1_556 S
C2477 C2475 1.389 . S
C2477 C2478 1.524 . S
C2478 C2477 1.524 . S
C2478 C2479 1.397 . S
C2478 C2483 1.363 . S
C2479 H2450 0.950 . S
C2479 C2478 1.397 . S
C2479 C2480 1.334 . S
C2480 H2451 0.950 . S
C2480 C2479 1.334 . S
C2480 C2481 1.287 . S
C2481 C2480 1.287 . S
C2481 C2482 1.524 . S
C2481 H2484 0.999 . S
C2482 H2452 0.950 . S
C2482 C2481 1.524 . S
C2482 C2483 1.415 . S
C2483 H2453 0.950 1_556 S
C2483 C2478 1.363 . S
C2483 C2482 1.415 . S
H2484 C2481 0.999 . S
H2485 C2466 0.913 . S
H2486 C2504 0.951 . S
H2487 C2506 0.951 . S
H2488 C2508 0.950 . S
H2489 C2509 0.950 . S
H2490 C2511 0.950 . S
H2491 C2514 0.950 . S
H2492 C2515 0.950 . S
H2493 C2517 0.950 . S
H2494 C2518 0.950 . S
H2495 C2519 0.951 . S
H2496 C2521 0.951 . S
H2497 C2523 0.950 . S
H2498 C2524 0.950 . S
H2499 C2526 0.950 . S
H2500 C2529 0.950 . S
H2501 C2530 0.950 . S
H2502 C2532 0.950 . S
H2503 C2533 0.950 . S
C2504 H2486 0.951 . S
C2504 C2505 1.366 . S
C2504 C2506 1.388 . S
C2505 C2504 1.366 . S
C2505 C2509 1.385 . S
C2506 H2487 0.951 . S
C2506 C2504 1.388 . S
C2506 C2507 1.366 . S
C2507 C2506 1.366 . S
C2507 C2508 1.414 . S
C2507 C2510 1.499 . S
C2508 H2488 0.950 . S
C2508 C2507 1.414 . S
C2508 C2509 1.374 . S
C2509 H2489 0.950 . S
C2509 C2505 1.385 . S
C2509 C2508 1.374 . S
C2510 C2507 1.499 . S
C2510 C2511 1.373 . S
C2510 C2512 1.389 . S
C2511 H2490 0.950 . S
C2511 C2510 1.373 . S
C2511 C2527 1.377 . S
C2512 C2510 1.389 . S
C2512 C2513 1.524 . S
C2512 C2526 1.377 . S
C2513 C2512 1.524 . S
C2513 C2514 1.397 . S
C2513 C2518 1.363 . S
C2514 H2491 0.950 . S
C2514 C2513 1.397 . S
C2514 C2515 1.334 . S
C2515 H2492 0.950 . S
C2515 C2514 1.334 . S
C2515 C2516 1.287 . S
C2516 C2515 1.287 . S
C2516 C2517 1.524 . S
C2516 H2535 0.913 . S
C2517 H2493 0.950 . S
C2517 C2516 1.524 . S
C2517 C2518 1.415 . S
C2518 H2494 0.950 . S
C2518 C2513 1.363 . S
C2518 C2517 1.415 . S
C2519 H2495 0.951 . S
C2519 C2520 1.366 . S
C2519 C2521 1.388 . S
C2520 C2519 1.366 . S
C2520 C2524 1.385 . S
C2521 H2496 0.951 . S
C2521 C2519 1.388 . S
C2521 C2522 1.366 . S
C2522 C2521 1.366 . S
C2522 C2523 1.414 . S
C2522 C2525 1.499 . S
C2523 H2497 0.950 . S
C2523 C2522 1.414 . S
C2523 C2524 1.374 . S
C2524 H2498 0.950 . S
C2524 C2520 1.385 . S
C2524 C2523 1.374 . S
C2525 C2522 1.499 . S
C2525 C2526 1.373 . S
C2525 C2527 1.389 . S
C2526 H2499 0.950 . S
C2526 C2512 1.377 . S
C2526 C2525 1.373 . S
C2527 C2511 1.377 . S
C2527 C2525 1.389 . S
C2527 C2528 1.524 . S
C2528 C2527 1.524 . S
C2528 C2529 1.397 . S
C2528 C2533 1.363 . S
C2529 H2500 0.950 . S
C2529 C2528 1.397 . S
C2529 C2530 1.334 . S
C2530 H2501 0.950 . S
C2530 C2529 1.334 . S
C2530 C2531 1.287 . S
C2531 C2530 1.287 . S
C2531 C2532 1.524 . S
C2531 H2534 0.999 . S
C2532 H2502 0.950 . S
C2532 C2531 1.524 . S
C2532 C2533 1.415 . S
C2533 H2503 0.950 . S
C2533 C2528 1.363 . S
C2533 C2532 1.415 . S
H2534 C2531 0.999 . S
H2535 C2516 0.913 . S
H2536 C2554 0.951 . S
H2537 C2556 0.951 . S
H2538 C2558 0.950 1_556 S
H2539 C2559 0.950 . S
H2540 C2561 0.950 . S
H2541 C2564 0.950 1_556 S
H2542 C2565 0.950 . S
H2543 C2567 0.950 . S
H2544 C2568 0.950 . S
H2545 C2569 0.951 . S
H2546 C2571 0.951 . S
H2547 C2573 0.950 1_554 S
H2548 C2574 0.950 . S
H2549 C2576 0.950 . S
H2550 C2579 0.950 1_554 S
H2551 C2580 0.950 . S
H2552 C2582 0.950 . S
H2553 C2583 0.950 . S
C2554 H2536 0.951 . S
C2554 C2555 1.366 . S
C2554 C2556 1.388 . S
C2555 C2554 1.366 . S
C2555 C2559 1.385 . S
C2556 H2537 0.951 . S
C2556 C2554 1.388 . S
C2556 C2557 1.366 . S
C2557 C2556 1.366 . S
C2557 C2558 1.414 . S
C2557 C2560 1.499 . S
C2558 H2538 0.950 1_554 S
C2558 C2557 1.414 . S
C2558 C2559 1.374 . S
C2559 H2539 0.950 . S
C2559 C2555 1.385 . S
C2559 C2558 1.374 . S
C2560 C2557 1.499 . S
C2560 C2561 1.370 1_554 S
C2560 C2562 1.389 . S
C2561 H2540 0.950 . S
C2561 C2560 1.370 1_556 S
C2561 C2577 1.380 . S
C2562 C2560 1.389 . S
C2562 C2563 1.524 . S
C2562 C2576 1.380 . S
C2563 C2562 1.524 . S
C2563 C2564 1.397 . S
C2563 C2568 1.363 . S
C2564 H2541 0.950 1_554 S
C2564 C2563 1.397 . S
C2564 C2565 1.334 . S
C2565 H2542 0.950 . S
C2565 C2564 1.334 . S
C2565 C2566 1.287 . S
C2566 C2565 1.287 . S
C2566 C2567 1.524 . S
C2566 H2585 0.913 . S
C2567 H2543 0.950 . S
C2567 C2566 1.524 . S
C2567 C2568 1.415 . S
C2568 H2544 0.950 . S
C2568 C2563 1.363 . S
C2568 C2567 1.415 . S
C2569 H2545 0.951 . S
C2569 C2570 1.366 . S
C2569 C2571 1.388 . S
C2570 C2569 1.366 . S
C2570 C2574 1.385 . S
C2571 H2546 0.951 . S
C2571 C2569 1.388 . S
C2571 C2572 1.366 . S
C2572 C2571 1.366 . S
C2572 C2573 1.414 . S
C2572 C2575 1.499 . S
C2573 H2547 0.950 1_556 S
C2573 C2572 1.414 . S
C2573 C2574 1.374 . S
C2574 H2548 0.950 . S
C2574 C2570 1.385 . S
C2574 C2573 1.374 . S
C2575 C2572 1.499 . S
C2575 C2576 1.370 1_556 S
C2575 C2577 1.389 . S
C2576 H2549 0.950 . S
C2576 C2562 1.380 . S
C2576 C2575 1.370 1_554 S
C2577 C2561 1.380 . S
C2577 C2575 1.389 . S
C2577 C2578 1.524 . S
C2578 C2577 1.524 . S
C2578 C2579 1.397 . S
C2578 C2583 1.363 . S
C2579 H2550 0.950 1_556 S
C2579 C2578 1.397 . S
C2579 C2580 1.334 . S
C2580 H2551 0.950 . S
C2580 C2579 1.334 . S
C2580 C2581 1.287 . S
C2581 C2580 1.287 . S
C2581 C2582 1.524 . S
C2581 H2584 0.999 . S
C2582 H2552 0.950 . S
C2582 C2581 1.524 . S
C2582 C2583 1.415 . S
C2583 H2553 0.950 . S
C2583 C2578 1.363 . S
C2583 C2582 1.415 . S
H2584 C2581 0.999 . S
H2585 C2566 0.913 . S
H2586 C2604 0.951 . S
H2587 C2606 0.951 . S
H2588 C2608 0.950 . S
H2589 C2609 0.950 . S
H2590 C2611 0.950 . S
H2591 C2614 0.950 . S
H2592 C2615 0.950 . S
H2593 C2617 0.950 . S
H2594 C2618 0.950 . S
H2595 C2619 0.951 . S
H2596 C2621 0.951 . S
H2597 C2623 0.950 . S
H2598 C2624 0.950 . S
H2599 C2626 0.950 . S
H2600 C2629 0.950 . S
H2601 C2630 0.950 . S
H2602 C2632 0.950 . S
H2603 C2633 0.950 . S
C2604 H2586 0.951 . S
C2604 C2605 1.366 . S
C2604 C2606 1.388 . S
C2605 C2604 1.366 . S
C2605 C2609 1.385 . S
C2606 H2587 0.951 . S
C2606 C2604 1.388 . S
C2606 C2607 1.366 . S
C2607 C2606 1.366 . S
C2607 C2608 1.414 . S
C2607 C2610 1.499 . S
C2608 H2588 0.950 . S
C2608 C2607 1.414 . S
C2608 C2609 1.374 . S
C2609 H2589 0.950 . S
C2609 C2605 1.385 . S
C2609 C2608 1.374 . S
C2610 C2607 1.499 . S
C2610 C2611 1.373 . S
C2610 C2612 1.389 . S
C2611 H2590 0.950 . S
C2611 C2610 1.373 . S
C2611 C2627 1.377 . S
C2612 C2610 1.389 . S
C2612 C2613 1.524 . S
C2612 C2626 1.377 . S
C2613 C2612 1.524 . S
C2613 C2614 1.397 . S
C2613 C2618 1.363 . S
C2614 H2591 0.950 . S
C2614 C2613 1.397 . S
C2614 C2615 1.334 . S
C2615 H2592 0.950 . S
C2615 C2614 1.334 . S
C2615 C2616 1.287 . S
C2616 C2615 1.287 . S
C2616 C2617 1.524 . S
C2616 H2635 0.913 . S
C2617 H2593 0.950 . S
C2617 C2616 1.524 . S
C2617 C2618 1.415 . S
C2618 H2594 0.950 . S
C2618 C2613 1.363 . S
C2618 C2617 1.415 . S
C2619 H2595 0.951 . S
C2619 C2620 1.366 . S
C2619 C2621 1.388 . S
C2620 C2619 1.366 . S
C2620 C2624 1.385 . S
C2621 H2596 0.951 . S
C2621 C2619 1.388 . S
C2621 C2622 1.366 . S
C2622 C2621 1.366 . S
C2622 C2623 1.414 . S
C2622 C2625 1.499 . S
C2623 H2597 0.950 . S
C2623 C2622 1.414 . S
C2623 C2624 1.374 . S
C2624 H2598 0.950 . S
C2624 C2620 1.385 . S
C2624 C2623 1.374 . S
C2625 C2622 1.499 . S
C2625 C2626 1.373 . S
C2625 C2627 1.389 . S
C2626 H2599 0.950 . S
C2626 C2612 1.377 . S
C2626 C2625 1.373 . S
C2627 C2611 1.377 . S
C2627 C2625 1.389 . S
C2627 C2628 1.524 . S
C2628 C2627 1.524 . S
C2628 C2629 1.397 . S
C2628 C2633 1.363 . S
C2629 H2600 0.950 . S
C2629 C2628 1.397 . S
C2629 C2630 1.334 . S
C2630 H2601 0.950 . S
C2630 C2629 1.334 . S
C2630 C2631 1.287 . S
C2631 C2630 1.287 . S
C2631 C2632 1.524 . S
C2631 H2634 0.999 . S
C2632 H2602 0.950 . S
C2632 C2631 1.524 . S
C2632 C2633 1.415 . S
C2633 H2603 0.950 . S
C2633 C2628 1.363 . S
C2633 C2632 1.415 . S
H2634 C2631 0.999 . S
H2635 C2616 0.913 . S
H2636 C2654 0.951 . S
H2637 C2656 0.951 . S
H2638 C2658 0.950 1_554 S
H2639 C2659 0.950 . S
H2640 C2661 0.950 . S
H2641 C2664 0.950 . S
H2642 C2665 0.950 . S
H2643 C2667 0.950 . S
H2644 C2668 0.950 . S
H2645 C2669 0.951 . S
H2646 C2671 0.951 . S
H2647 C2673 0.950 1_556 S
H2648 C2674 0.950 . S
H2649 C2676 0.950 . S
H2650 C2679 0.950 . S
H2651 C2680 0.950 . S
H2652 C2682 0.950 . S
H2653 C2683 0.950 . S
C2654 H2636 0.951 . S
C2654 C2655 1.366 . S
C2654 C2656 1.388 . S
C2655 C2654 1.366 . S
C2655 C2659 1.385 . S
C2656 H2637 0.951 . S
C2656 C2654 1.388 . S
C2656 C2657 1.366 . S
C2657 C2656 1.366 . S
C2657 C2658 1.414 . S
C2657 C2660 1.499 . S
C2658 H2638 0.950 1_556 S
C2658 C2657 1.414 . S
C2658 C2659 1.374 . S
C2659 H2639 0.950 . S
C2659 C2655 1.385 . S
C2659 C2658 1.374 . S
C2660 C2657 1.499 . S
C2660 C2661 1.373 1_556 S
C2660 C2662 1.389 . S
C2661 H2640 0.950 . S
C2661 C2660 1.373 1_554 S
C2661 C2677 1.377 . S
C2662 C2660 1.389 . S
C2662 C2663 1.524 . S
C2662 C2676 1.377 . S
C2663 C2662 1.524 . S
C2663 C2664 1.397 . S
C2663 C2668 1.363 . S
C2664 H2641 0.950 . S
C2664 C2663 1.397 . S
C2664 C2665 1.334 . S
C2665 H2642 0.950 . S
C2665 C2664 1.334 . S
C2665 C2666 1.287 . S
C2666 C2665 1.287 . S
C2666 C2667 1.524 . S
C2666 H2685 0.913 . S
C2667 H2643 0.950 . S
C2667 C2666 1.524 . S
C2667 C2668 1.415 . S
C2668 H2644 0.950 . S
C2668 C2663 1.363 . S
C2668 C2667 1.415 . S
C2669 H2645 0.951 . S
C2669 C2670 1.366 . S
C2669 C2671 1.388 . S
C2670 C2669 1.366 . S
C2670 C2674 1.385 . S
C2671 H2646 0.951 . S
C2671 C2669 1.388 . S
C2671 C2672 1.366 . S
C2672 C2671 1.366 . S
C2672 C2673 1.414 . S
C2672 C2675 1.499 . S
C2673 H2647 0.950 1_554 S
C2673 C2672 1.414 . S
C2673 C2674 1.374 . S
C2674 H2648 0.950 . S
C2674 C2670 1.385 . S
C2674 C2673 1.374 . S
C2675 C2672 1.499 . S
C2675 C2676 1.373 1_554 S
C2675 C2677 1.389 . S
C2676 H2649 0.950 . S
C2676 C2662 1.377 . S
C2676 C2675 1.373 1_556 S
C2677 C2661 1.377 . S
C2677 C2675 1.389 . S
C2677 C2678 1.524 . S
C2678 C2677 1.524 . S
C2678 C2679 1.397 . S
C2678 C2683 1.363 . S
C2679 H2650 0.950 . S
C2679 C2678 1.397 . S
C2679 C2680 1.334 . S
C2680 H2651 0.950 . S
C2680 C2679 1.334 . S
C2680 C2681 1.287 . S
C2681 C2680 1.287 . S
C2681 C2682 1.524 . S
C2681 H2684 0.999 . S
C2682 H2652 0.950 . S
C2682 C2681 1.524 . S
C2682 C2683 1.415 . S
C2683 H2653 0.950 . S
C2683 C2678 1.363 . S
C2683 C2682 1.415 . S
H2684 C2681 0.999 . S
H2685 C2666 0.913 . S
H2686 C2704 0.951 . S
H2687 C2706 0.951 . S
H2688 C2708 0.950 . S
H2689 C2709 0.950 . S
H2690 C2711 0.950 . S
H2691 C2714 0.950 . S
H2692 C2715 0.950 . S
H2693 C2717 0.950 . S
H2694 C2718 0.950 . S
H2695 C2719 0.951 . S
H2696 C2721 0.951 . S
H2697 C2723 0.950 . S
H2698 C2724 0.950 . S
H2699 C2726 0.950 . S
H2700 C2729 0.950 . S
H2701 C2730 0.950 . S
H2702 C2732 0.950 . S
H2703 C2733 0.950 . S
C2704 H2686 0.951 . S
C2704 C2705 1.366 . S
C2704 C2706 1.388 . S
C2705 C2704 1.366 . S
C2705 C2709 1.385 . S
C2706 H2687 0.951 . S
C2706 C2704 1.388 . S
C2706 C2707 1.366 . S
C2707 C2706 1.366 . S
C2707 C2708 1.414 . S
C2707 C2710 1.499 . S
C2708 H2688 0.950 . S
C2708 C2707 1.414 . S
C2708 C2709 1.374 . S
C2709 H2689 0.950 . S
C2709 C2705 1.385 . S
C2709 C2708 1.374 . S
C2710 C2707 1.499 . S
C2710 C2711 1.373 . S
C2710 C2712 1.389 . S
C2711 H2690 0.950 . S
C2711 C2710 1.373 . S
C2711 C2727 1.377 . S
C2712 C2710 1.389 . S
C2712 C2713 1.524 . S
C2712 C2726 1.377 . S
C2713 C2712 1.524 . S
C2713 C2714 1.397 . S
C2713 C2718 1.363 . S
C2714 H2691 0.950 . S
C2714 C2713 1.397 . S
C2714 C2715 1.334 . S
C2715 H2692 0.950 . S
C2715 C2714 1.334 . S
C2715 C2716 1.287 . S
C2716 C2715 1.287 . S
C2716 C2717 1.524 . S
C2716 H2735 0.913 . S
C2717 H2693 0.950 . S
C2717 C2716 1.524 . S
C2717 C2718 1.415 . S
C2718 H2694 0.950 . S
C2718 C2713 1.363 . S
C2718 C2717 1.415 . S
C2719 H2695 0.951 . S
C2719 C2720 1.366 . S
C2719 C2721 1.388 . S
C2720 C2719 1.366 . S
C2720 C2724 1.385 . S
C2721 H2696 0.951 . S
C2721 C2719 1.388 . S
C2721 C2722 1.366 . S
C2722 C2721 1.366 . S
C2722 C2723 1.414 . S
C2722 C2725 1.499 . S
C2723 H2697 0.950 . S
C2723 C2722 1.414 . S
C2723 C2724 1.374 . S
C2724 H2698 0.950 . S
C2724 C2720 1.385 . S
C2724 C2723 1.374 . S
C2725 C2722 1.499 . S
C2725 C2726 1.373 . S
C2725 C2727 1.389 . S
C2726 H2699 0.950 . S
C2726 C2712 1.377 . S
C2726 C2725 1.373 . S
C2727 C2711 1.377 . S
C2727 C2725 1.389 . S
C2727 C2728 1.524 . S
C2728 C2727 1.524 . S
C2728 C2729 1.397 . S
C2728 C2733 1.363 . S
C2729 H2700 0.950 . S
C2729 C2728 1.397 . S
C2729 C2730 1.334 . S
C2730 H2701 0.950 . S
C2730 C2729 1.334 . S
C2730 C2731 1.287 . S
C2731 C2730 1.287 . S
C2731 C2732 1.524 . S
C2731 H2734 0.999 . S
C2732 H2702 0.950 . S
C2732 C2731 1.524 . S
C2732 C2733 1.415 . S
C2733 H2703 0.950 . S
C2733 C2728 1.363 . S
C2733 C2732 1.415 . S
H2734 C2731 0.999 . S
H2735 C2716 0.913 . S
C355 C0 1.477 . S
C370 C210 1.476 . S
C405 C14 1.477 . S
C420 C224 1.477 . S
C455 C238 1.476 . S
C470 C28 1.477 . S
C505 C168 1.477 . S
C520 C42 1.477 . S
C555 C182 1.476 . S
C570 C56 1.477 . S
C605 C196 1.477 . S
C620 C70 1.477 . S
C655 C294 1.477 . S
C670 C84 1.476 . S
C705 C98 1.476 . S
C720 C308 1.477 . S
C755 C322 1.477 . S
C770 C112 1.477 . S
C805 C126 1.476 . S
C820 C252 1.477 . S
C855 C266 1.477 . S
C870 C140 1.477 . S
C905 C154 1.476 . S
C920 C280 1.477 . S
C955 C151 1.320 . S
C970 C11 1.320 . S
C1005 C165 1.320 . S
C1020 C25 1.320 . S
C1055 C39 1.320 . S
C1070 C95 1.320 . S
C1105 C53 1.320 . S
C1120 C109 1.320 . S
C1155 C123 1.320 . S
C1170 C67 1.320 . S
C1205 C81 1.320 . S
C1220 C137 1.320 . S
C1255 C319 1.320 . S
C1270 C179 1.320 . S
C1305 C193 1.320 . S
C1320 C333 1.320 . S
C1355 C207 1.320 . S
C1370 C263 1.320 . S
C1405 C277 1.320 . S
C1420 C221 1.320 . S
C1455 C235 1.320 . S
C1470 C291 1.320 . S
C1505 C249 1.320 . S
C1520 C305 1.320 . S
C1555 C5 1.368 . S
C1570 C257 1.368 . S
C1605 C271 1.368 . S
C1620 C19 1.368 . S
C1655 C33 1.368 . S
C1670 C285 1.368 . S
C1705 C47 1.368 . S
C1720 C299 1.368 . S
C1755 C313 1.368 . S
C1770 C61 1.368 . S
C1805 C75 1.368 . S
C1820 C327 1.368 . S
C1855 C89 1.368 . S
C1870 C173 1.368 . S
C1905 C103 1.368 . S
C1920 C187 1.368 . S
C1955 C201 1.368 . S
C1970 C117 1.368 . S
C2005 C215 1.368 . S
C2020 C131 1.368 . S
C2055 C145 1.368 . S
C2070 C229 1.368 . S
C2105 C243 1.368 . S
C2120 C159 1.368 . S
C2155 C93 1.514 . S
C2170 C9 1.514 . S
C2205 C23 1.514 . S
C2220 C107 1.514 . S
C2255 C121 1.514 . S
C2270 C37 1.514 . S
C2305 C135 1.514 . S
C2320 C51 1.514 . S
C2355 C149 1.514 . S
C2370 C65 1.514 . S
C2405 C79 1.514 . S
C2420 C163 1.514 . S
C2455 C261 1.514 . S
C2470 C177 1.514 . S
C2505 C191 1.514 . S
C2520 C275 1.514 . S
C2555 C289 1.514 . S
C2570 C205 1.514 . S
C2605 C303 1.514 . S
C2620 C219 1.514 . S
C2655 C233 1.514 . S
C2670 C317 1.514 . S
C2705 C247 1.514 . S
C2720 C331 1.514 . S
