# Generated by pormake.
# Topology wjo, (5)-cn, num edge types: 1
# Building blocks:
#     Node 0, Type 0, BuildingBlock: BEQFEK_clean_sbu_0, # of connection points: 5
#     Node 1, Type 0, BuildingBlock: BEQFEK_clean_sbu_0, # of connection points: 5
#     Node 2, Type 0, BuildingBlock: BEQFEK_clean_sbu_0, # of connection points: 5
#     Node 3, Type 0, BuildingBlock: BEQFEK_clean_sbu_0, # of connection points: 5
#     Node 4, Type 0, BuildingBlock: BEQFEK_clean_sbu_0, # of connection points: 5
#     Node 5, Type 0, BuildingBlock: BEQFEK_clean_sbu_0, # of connection points: 5
#     Node 6, Type 0, BuildingBlock: BEQFEK_clean_sbu_0, # of connection points: 5
#     Node 7, Type 0, BuildingBlock: BEQFEK_clean_sbu_0, # of connection points: 5
#     Node 8, Type 0, BuildingBlock: BEQFEK_clean_sbu_0, # of connection points: 5
#     Node 9, Type 0, BuildingBlock: BEQFEK_clean_sbu_0, # of connection points: 5
#     Node 10, Type 0, BuildingBlock: BEQFEK_clean_sbu_0, # of connection points: 5
#     Node 11, Type 0, BuildingBlock: BEQFEK_clean_sbu_0, # of connection points: 5
#     Edge 12, Type (0, 0), BuildingBlock: KIFKEQ_clean_linker_1, # of connection points: 2
#     Edge 13, Type (0, 0), BuildingBlock: KIFKEQ_clean_linker_1, # of connection points: 2
#     Edge 14, Type (0, 0), BuildingBlock: KIFKEQ_clean_linker_1, # of connection points: 2
#     Edge 15, Type (0, 0), BuildingBlock: KIFKEQ_clean_linker_1, # of connection points: 2
#     Edge 16, Type (0, 0), BuildingBlock: KIFKEQ_clean_linker_1, # of connection points: 2
#     Edge 17, Type (0, 0), BuildingBlock: KIFKEQ_clean_linker_1, # of connection points: 2
#     Edge 18, Type (0, 0), BuildingBlock: KIFKEQ_clean_linker_1, # of connection points: 2
#     Edge 19, Type (0, 0), BuildingBlock: KIFKEQ_clean_linker_1, # of connection points: 2
#     Edge 20, Type (0, 0), BuildingBlock: KIFKEQ_clean_linker_1, # of connection points: 2
#     Edge 21, Type (0, 0), BuildingBlock: KIFKEQ_clean_linker_1, # of connection points: 2
#     Edge 22, Type (0, 0), BuildingBlock: KIFKEQ_clean_linker_1, # of connection points: 2
#     Edge 23, Type (0, 0), BuildingBlock: KIFKEQ_clean_linker_1, # of connection points: 2
#     Edge 24, Type (0, 0), BuildingBlock: KIFKEQ_clean_linker_1, # of connection points: 2
#     Edge 25, Type (0, 0), BuildingBlock: KIFKEQ_clean_linker_1, # of connection points: 2
#     Edge 26, Type (0, 0), BuildingBlock: KIFKEQ_clean_linker_1, # of connection points: 2
#     Edge 27, Type (0, 0), BuildingBlock: KIFKEQ_clean_linker_1, # of connection points: 2
#     Edge 28, Type (0, 0), BuildingBlock: KIFKEQ_clean_linker_1, # of connection points: 2
#     Edge 29, Type (0, 0), BuildingBlock: KIFKEQ_clean_linker_1, # of connection points: 2
#     Edge 30, Type (0, 0), BuildingBlock: KIFKEQ_clean_linker_1, # of connection points: 2
#     Edge 31, Type (0, 0), BuildingBlock: KIFKEQ_clean_linker_1, # of connection points: 2
#     Edge 32, Type (0, 0), BuildingBlock: KIFKEQ_clean_linker_1, # of connection points: 2
#     Edge 33, Type (0, 0), BuildingBlock: KIFKEQ_clean_linker_1, # of connection points: 2
#     Edge 34, Type (0, 0), BuildingBlock: KIFKEQ_clean_linker_1, # of connection points: 2
#     Edge 35, Type (0, 0), BuildingBlock: KIFKEQ_clean_linker_1, # of connection points: 2
#     Edge 36, Type (0, 0), BuildingBlock: KIFKEQ_clean_linker_1, # of connection points: 2
#     Edge 37, Type (0, 0), BuildingBlock: KIFKEQ_clean_linker_1, # of connection points: 2
#     Edge 38, Type (0, 0), BuildingBlock: KIFKEQ_clean_linker_1, # of connection points: 2
#     Edge 39, Type (0, 0), BuildingBlock: KIFKEQ_clean_linker_1, # of connection points: 2
#     Edge 40, Type (0, 0), BuildingBlock: KIFKEQ_clean_linker_1, # of connection points: 2
#     Edge 41, Type (0, 0), BuildingBlock: KIFKEQ_clean_linker_1, # of connection points: 2
# Relax obj value: 0.786
# Max RMSD: 0.255
# Mean RMSD: 0.245
data_MOF--net-wjo--node1-BEQFEK_clean_sbu_0--edge1-KIFKEQ_clean_linker_1
_symmetry_space_group_name_H-M    P1
_symmetry_Int_Tables_number       1
_symmetry_cell_setting            triclinic
loop_
_symmetry_equiv_pos_as_xyz
'x, y, z'
_cell_length_a     46.423359
_cell_length_b     46.224871
_cell_length_c     27.868511
_cell_angle_alpha  90.328954
_cell_angle_beta   89.980207
_cell_angle_gamma 120.12941
loop_
_atom_site_label
_atom_site_type_symbol
_atom_site_fract_x
_atom_site_fract_y
_atom_site_fract_z
_atom_type_partial_charge
Co0 Co 0.30437 0.37682 0.91496 0.0
Co1 Co 0.28914 0.42207 0.98334 0.0
C2 C 0.30192 0.36942 0.0222 0.0
O3 O 0.30685 0.3613 0.98052 0.0
O4 O 0.29438 0.39214 0.02805 0.0
C5 C 0.29724 0.31506 0.8803 0.0
O6 O 0.28364 0.30496 0.92274 0.0
C7 C 0.26255 0.44476 0.06123 0.0
C8 C 0.28394 0.49819 0.04337 0.0
C9 C 0.26603 0.47465 0.07812 0.0
N10 N 0.2778 0.45043 0.0185 0.0
N11 N 0.28993 0.48226 0.00757 0.0
C12 C 0.24898 0.41253 0.08798 0.0
H13 H 0.26643 0.41554 0.11733 0.0
H14 H 0.24542 0.39194 0.06368 0.0
H15 H 0.22463 0.40561 0.10431 0.0
C16 C 0.23305 0.35407 0.8885 0.0
N17 N 0.26259 0.37632 0.90866 0.0
N18 N 0.25795 0.39735 0.93508 0.0
C19 C 0.22619 0.39018 0.9309 0.0
C20 C 0.209 0.36215 0.90193 0.0
C21 C 0.22664 0.32274 0.86338 0.0
H22 H 0.24641 0.32864 0.83647 0.0
H23 H 0.22728 0.30531 0.88999 0.0
H24 H 0.20193 0.31034 0.8454 0.0
O25 O 0.34569 0.42278 0.90699 0.0
O26 O 0.33252 0.4516 0.95706 0.0
H27 H 0.22713 0.43335 0.9613 0.0
H28 H 0.18589 0.39931 0.94793 0.0
C29 C 0.21095 0.40578 0.96129 0.0
H30 H 0.20849 0.39668 -0.00138 0.0
H31 H 0.30401 0.49355 0.97697 0.0
O32 O 0.30727 0.34515 0.86807 0.0
C33 C 0.35296 0.4501 0.92849 0.0
Co34 Co 0.93747 0.29663 0.08082 0.0
Co35 Co 0.87865 0.28618 0.14836 0.0
C36 C 0.94511 0.30067 0.18728 0.0
O37 O 0.95721 0.30165 0.14588 0.0
O38 O 0.91559 0.29526 0.19224 0.0
C39 C 0.98758 0.28361 0.04235 0.0
O40 O 0.98167 0.26609 0.08178 0.0
C41 C 0.83189 0.26152 0.22902 0.0
C42 C 0.80032 0.28354 0.21312 0.0
C43 C 0.80646 0.26577 0.24749 0.0
N44 N 0.84043 0.27625 0.18585 0.0
N45 N 0.82102 0.28879 0.17616 0.0
C46 C 0.85033 0.2471 0.25413 0.0
H47 H 0.86925 0.24673 0.2304 0.0
H48 H 0.83286 0.22097 0.26475 0.0
H49 H 0.86229 0.2618 0.28717 0.0
C50 C 0.88595 0.22449 0.05763 0.0
N51 N 0.89539 0.25479 0.07747 0.0
N52 N 0.87076 0.25181 0.10455 0.0
C53 C 0.84497 0.22032 0.1016 0.0
C54 C 0.85372 0.20171 0.07231 0.0
C55 C 0.90834 0.21625 0.02954 0.0
H56 H 0.92373 0.23689 0.00456 0.0
H57 H 0.92502 0.21299 0.05462 0.0
H58 H 0.89363 0.19262 0.00895 0.0
O59 O 0.93306 0.33761 0.06868 0.0
O60 O 0.89019 0.32713 0.11521 0.0
H61 H 0.80441 0.22425 0.13108 0.0
H62 H 0.79467 0.18189 0.11915 0.0
C63 C 0.81432 0.20689 0.13191 0.0
H64 H 0.82075 0.20459 0.16944 0.0
H65 H 0.82315 0.30255 0.14547 0.0
O66 O 0.97086 0.29801 0.0339 0.0
C67 C 0.91248 0.3457 0.08556 0.0
Co68 Co 0.64079 0.93065 0.2451 0.0
Co69 Co 0.5964 0.87619 0.32085 0.0
C70 C 0.65356 0.94115 0.35208 0.0
O71 O 0.65967 0.95189 0.30909 0.0
O72 O 0.63018 0.91176 0.36154 0.0
C73 C 0.70349 0.97769 0.20318 0.0
O74 O 0.71522 0.97035 0.24123 0.0
C75 C 0.56208 0.84135 0.40716 0.0
C76 C 0.53213 0.78854 0.38439 0.0
C77 C 0.54081 0.8094 0.42425 0.0
N78 N 0.56708 0.83927 0.36017 0.0
N79 N 0.54823 0.80779 0.34634 0.0
C80 C 0.57397 0.87387 0.43309 0.0
H81 H 0.57576 0.89319 0.40787 0.0
H82 H 0.59901 0.88232 0.44829 0.0
H83 H 0.55678 0.87116 0.46266 0.0
C84 C 0.65673 0.87661 0.22011 0.0
N85 N 0.63766 0.88725 0.24209 0.0
N86 N 0.61916 0.86494 0.27457 0.0
C87 C 0.62668 0.84031 0.2752 0.0
C88 C 0.65029 0.84652 0.24027 0.0
C89 C 0.68375 0.89663 0.185 0.0
H90 H 0.6767 0.9117 0.16228 0.0
H91 H 0.70699 0.91356 0.20483 0.0
H92 H 0.68867 0.87991 0.16195 0.0
O93 O 0.59657 0.92855 0.23668 0.0
O94 O 0.56825 0.89208 0.29363 0.0
H95 H 0.59296 0.79279 0.30569 0.0
H96 H 0.63551 0.80698 0.31964 0.0
C97 C 0.61706 0.81528 0.31482 0.0
H98 H 0.61472 0.82607 0.34919 0.0
H99 H 0.54637 0.79942 0.31101 0.0
O100 O 0.67213 0.96265 0.19635 0.0
C101 C 0.57017 0.91226 0.26149 0.0
Co102 Co 0.71846 0.63667 0.3969 0.0
Co103 Co 0.72507 0.58456 0.46085 0.0
C104 C 0.71369 0.63853 0.50273 0.0
O105 O 0.7151 0.65189 0.4623 0.0
O106 O 0.71645 0.61257 0.50595 0.0
C107 C 0.7327 0.70082 0.35909 0.0
O108 O 0.75143 0.71278 0.39761 0.0
C109 C 0.74237 0.55843 0.54396 0.0
C110 C 0.7294 0.50763 0.52005 0.0
C111 C 0.73994 0.52889 0.55944 0.0
N112 N 0.73305 0.55473 0.49775 0.0
N113 N 0.72555 0.52438 0.48348 0.0
C114 C 0.75453 0.59012 0.57221 0.0
H115 H 0.76548 0.61208 0.54811 0.0
H116 H 0.77342 0.59289 0.59908 0.0
H117 H 0.73332 0.5893 0.59159 0.0
C118 C 0.78979 0.65508 0.37565 0.0
N119 N 0.75901 0.63422 0.39326 0.0
N120 N 0.76075 0.61163 0.41978 0.0
C121 C 0.79204 0.61698 0.4194 0.0
C122 C 0.81183 0.645 0.39179 0.0
C123 C 0.79886 0.68597 0.34767 0.0
H124 H 0.77839 0.68131 0.32266 0.0
H125 H 0.80294 0.70637 0.37279 0.0
H126 H 0.82217 0.69407 0.32716 0.0
O127 O 0.67572 0.59247 0.38543 0.0
O128 O 0.68451 0.55626 0.42543 0.0
H129 H 0.82982 0.60598 0.44563 0.0
H130 H 0.80115 0.60493 0.48961 0.0
C131 C 0.8036 0.59902 0.45179 0.0
H132 H 0.78767 0.57167 0.44627 0.0
H133 H 0.71681 0.51475 0.44921 0.0
O134 O 0.71767 0.66946 0.3509 0.0
C135 C 0.66646 0.56265 0.39851 0.0
Co136 Co 0.09045 0.72051 0.56444 0.0
Co137 Co 0.15175 0.72904 0.62467 0.0
C138 C 0.08853 0.71951 0.6707 0.0
O139 O 0.07483 0.71888 0.63086 0.0
O140 O 0.11728 0.72246 0.67244 0.0
C141 C 0.03567 0.72883 0.53388 0.0
O142 O 0.03884 0.74083 0.57761 0.0
C143 C 0.20053 0.75409 0.70241 0.0
C144 C 0.2311 0.73103 0.68543 0.0
C145 C 0.22612 0.74981 0.71983 0.0
N146 N 0.19085 0.73857 0.65965 0.0
N147 N 0.20957 0.7253 0.6493 0.0
C148 C 0.18238 0.7685 0.72862 0.0
H149 H 0.16798 0.77473 0.70314 0.0
H150 H 0.19983 0.79143 0.74868 0.0
H151 H 0.16505 0.74991 0.75481 0.0
C152 C 0.14129 0.79174 0.54227 0.0
N153 N 0.13305 0.76099 0.55831 0.0
N154 N 0.15891 0.76328 0.58131 0.0
C155 C 0.1846 0.79484 0.57852 0.0
C156 C 0.1743 0.81425 0.55448 0.0
C157 C 0.11666 0.80051 0.5228 0.0
H158 H 0.10179 0.7826 0.4939 0.0
H159 H 0.09938 0.7984 0.55186 0.0
H160 H 0.12931 0.82638 0.50857 0.0
O161 O 0.09151 0.67749 0.5532 0.0
O162 O 0.13737 0.68698 0.5916 0.0
H163 H 0.2253 0.78933 0.60349 0.0
H164 H 0.23625 0.83188 0.59088 0.0
C165 C 0.21663 0.80768 0.60558 0.0
H166 H 0.21263 0.81162 0.64371 0.0
H167 H 0.20643 0.71077 0.61881 0.0
O168 O 0.056 0.71972 0.5196 0.0
C169 C 0.11219 0.66839 0.56584 0.0
Co170 Co 0.38421 0.08713 0.73821 0.0
Co171 Co 0.43528 0.1442 0.80692 0.0
C172 C 0.3796 0.07835 0.84353 0.0
O173 O 0.36706 0.06729 0.80223 0.0
O174 O 0.40587 0.10664 0.84874 0.0
C175 C 0.32066 0.03856 0.69766 0.0
O176 O 0.30908 0.04493 0.73689 0.0
C177 C 0.45792 0.18474 0.89408 0.0
C178 C 0.50932 0.22359 0.87611 0.0
C179 C 0.48647 0.21141 0.9132 0.0
N180 N 0.46364 0.18076 0.84797 0.0
N181 N 0.49438 0.2042 0.83729 0.0
C182 C 0.42525 0.16415 0.91889 0.0
H183 H 0.40441 0.15466 0.89275 0.0
H184 H 0.42161 0.1791 0.94705 0.0
H185 H 0.42499 0.14255 0.93631 0.0
C186 C 0.36804 0.1417 0.71771 0.0
N187 N 0.38775 0.13075 0.73634 0.0
N188 N 0.40974 0.15432 0.7649 0.0
C189 C 0.40513 0.18082 0.7649 0.0
C190 C 0.37827 0.17376 0.73529 0.0
C191 C 0.33799 0.12084 0.68733 0.0
H192 H 0.34308 0.10545 0.66185 0.0
H193 H 0.31696 0.10391 0.71073 0.0
H194 H 0.33071 0.13684 0.66717 0.0
O195 O 0.42828 0.08845 0.72808 0.0
O196 O 0.4639 0.13225 0.77185 0.0
H197 H 0.44979 0.22072 0.79564 0.0
H198 H 0.41623 0.22949 0.79333 0.0
C199 C 0.42248 0.20965 0.79923 0.0
H200 H 0.4154 0.20045 0.83641 0.0
H201 H 0.50546 0.20638 0.80391 0.0
O202 O 0.3519 0.05476 0.68985 0.0
C203 C 0.45778 0.10846 0.74313 0.0
Co204 Co 0.64538 0.71511 0.91018 0.0
Co205 Co 0.5961 0.72569 0.84449 0.0
C206 C 0.64755 0.71232 0.80227 0.0
O207 O 0.65794 0.70988 0.84359 0.0
O208 O 0.62393 0.71859 0.79754 0.0
C209 C 0.70871 0.72477 0.94199 0.0
O210 O 0.71776 0.73678 0.89851 0.0
C211 C 0.56236 0.73891 0.76594 0.0
C212 C 0.52036 0.739 0.80321 0.0
C213 C 0.53425 0.74144 0.75847 0.0
N214 N 0.56489 0.73462 0.81299 0.0
N215 N 0.53961 0.73454 0.83509 0.0
C216 C 0.58709 0.74173 0.72919 0.0
H217 H 0.61268 0.75682 0.74387 0.0
H218 H 0.58508 0.75356 0.6958 0.0
H219 H 0.58248 0.7163 0.72048 0.0
C220 C 0.66767 0.78736 0.93154 0.0
N221 N 0.64526 0.75685 0.91394 0.0
N222 N 0.62364 0.76016 0.88734 0.0
C223 C 0.63118 0.7923 0.88778 0.0
C224 C 0.65934 0.81077 0.91573 0.0
C225 C 0.69916 0.79494 0.95664 0.0
H226 H 0.69371 0.77597 0.9847 0.0
H227 H 0.71648 0.79379 0.9303 0.0
H228 H 0.71135 0.82028 0.97318 0.0
O229 O 0.60074 0.67407 0.92473 0.0
O230 O 0.56852 0.68427 0.87763 0.0
H231 H 0.5888 0.79491 0.86398 0.0
H232 H 0.62745 0.83368 0.8579 0.0
C233 C 0.61552 0.80608 0.85491 0.0
H234 H 0.61738 0.79923 0.81729 0.0
H235 H 0.53536 0.73117 0.87195 0.0
O236 O 0.67896 0.71485 0.95534 0.0
C237 C 0.57215 0.66582 0.9075 0.0
Co238 Co 0.93521 0.63549 0.07035 0.0
Co239 Co 0.87961 0.59178 -0.0052 0.0
C240 C 0.94551 0.64704 0.96346 0.0
O241 O 0.95629 0.65385 0.00654 0.0
O242 O 0.91601 0.62376 0.95402 0.0
C243 C 0.98309 0.69775 0.11481 0.0
O244 O 0.97593 0.71063 0.07796 0.0
C245 C 0.83676 0.56362 0.91013 0.0
C246 C 0.79552 0.51625 0.93826 0.0
C247 C 0.80804 0.53456 0.89666 0.0
N248 N 0.84151 0.56233 0.95737 0.0
N249 N 0.81669 0.53401 0.97406 0.0
C250 C 0.85872 0.59275 0.87908 0.0
H251 H 0.86851 0.61638 0.89985 0.0
H252 H 0.84498 0.59397 0.8473 0.0
H253 H 0.87997 0.59006 0.86669 0.0
C254 C 0.88193 0.65298 0.09576 0.0
N255 N 0.89263 0.63403 0.0733 0.0
N256 N 0.86985 0.61495 0.0415 0.0
C257 C 0.84445 0.62105 0.04243 0.0
C258 C 0.851 0.6453 0.077 0.0
C259 C 0.90196 0.68005 0.13133 0.0
H260 H 0.917 0.67286 0.1539 0.0
H261 H 0.91896 0.70335 0.11189 0.0
H262 H 0.88545 0.68507 0.15443 0.0
O263 O 0.93161 0.59006 0.07814 0.0
O264 O 0.89309 0.56246 0.023 0.0
H265 H 0.80095 0.58137 0.00906 0.0
H266 H 0.80306 0.62129 0.00555 0.0
C267 C 0.81792 0.60862 0.00445 0.0
H268 H 0.8296 0.61275 0.96858 0.0
H269 H 0.81465 0.52644 0.0097 0.0
O270 O 0.96767 0.66612 0.11978 0.0
C271 C 0.91319 0.5633 0.0544 0.0
Co272 Co 0.30073 0.92795 0.2425 0.0
Co273 Co 0.29023 0.8715 0.16831 0.0
C274 C 0.29792 0.93652 0.136 0.0
O275 O 0.30234 0.94806 0.17869 0.0
O276 O 0.29246 0.90713 0.12738 0.0
C277 C 0.2873 0.97707 0.28467 0.0
O278 O 0.26857 0.97052 0.24627 0.0
C279 C 0.27469 0.82948 0.08241 0.0
C280 C 0.28282 0.78875 0.1067 0.0
C281 C 0.27563 0.80157 0.06669 0.0
N282 N 0.28143 0.83353 0.12959 0.0
N283 N 0.28601 0.8089 0.14404 0.0
C284 C 0.26787 0.85216 0.05263 0.0
H285 H 0.25191 0.85942 0.07296 0.0
H286 H 0.25523 0.83992 0.01847 0.0
H287 H 0.29187 0.87496 0.04425 0.0
C288 C 0.23063 0.874 0.26675 0.0
N289 N 0.26063 0.88456 0.24601 0.0
N290 N 0.25773 0.86101 0.21615 0.0
C291 C 0.22639 0.83499 0.21743 0.0
C292 C 0.20796 0.84227 0.24928 0.0
C293 C 0.22229 0.89547 0.29723 0.0
H294 H 0.24336 0.91122 0.32162 0.0
H295 H 0.21758 0.91195 0.27375 0.0
H296 H 0.19949 0.87986 0.31859 0.0
O297 O 0.34306 0.92584 0.24983 0.0
O298 O 0.33451 0.88756 0.19479 0.0
H299 H 0.22676 0.79326 0.18468 0.0
H300 H 0.18595 0.78869 0.18798 0.0
C301 C 0.21272 0.80673 0.18185 0.0
H302 H 0.21594 0.81688 0.14503 0.0
H303 H 0.29248 0.80652 0.17904 0.0
O304 O 0.30233 0.96075 0.29158 0.0
C305 C 0.35303 0.90884 0.22607 0.0
Co306 Co 0.37828 0.29684 0.42279 0.0
Co307 Co 0.4294 0.28866 0.35779 0.0
C308 C 0.37629 0.30129 0.31698 0.0
O309 O 0.36378 0.30095 0.35775 0.0
O310 O 0.40149 0.29744 0.31306 0.0
C311 C 0.31566 0.28765 0.45612 0.0
O312 O 0.30642 0.27545 0.41256 0.0
C313 C 0.4525 0.26829 0.27404 0.0
C314 C 0.50376 0.28183 0.29434 0.0
C315 C 0.48124 0.27004 0.25663 0.0
N316 N 0.45782 0.27916 0.31969 0.0
N317 N 0.48843 0.28694 0.33184 0.0
C318 C 0.42012 0.25559 0.24802 0.0
H319 H 0.39907 0.24524 0.27372 0.0
H320 H 0.41646 0.236 0.2215 0.0
H321 H 0.42039 0.27649 0.22842 0.0
C322 C 0.35748 0.22479 0.44119 0.0
N323 N 0.37962 0.25571 0.4252 0.0
N324 N 0.40241 0.25353 0.3998 0.0
C325 C 0.39631 0.22185 0.4005 0.0
C326 C 0.36741 0.20231 0.4262 0.0
C327 C 0.32495 0.21598 0.46393 0.0
H328 H 0.32905 0.23413 0.49304 0.0
H329 H 0.30843 0.21756 0.43661 0.0
H330 H 0.31258 0.19025 0.47867 0.0
O331 O 0.42292 0.3391 0.43429 0.0
O332 O 0.45819 0.32968 0.39252 0.0
H333 H 0.44171 0.22626 0.37422 0.0
H334 H 0.40827 0.18367 0.38087 0.0
C335 C 0.41449 0.20928 0.37035 0.0
H336 H 0.40757 0.20876 0.33217 0.0
H337 H 0.49925 0.29683 0.36518 0.0
O338 O 0.34536 0.29718 0.46957 0.0
C339 C 0.4524 0.34803 0.42019 0.0
Co340 Co 0.09283 0.38122 0.5909 0.0
Co341 Co 0.15176 0.43187 0.52586 0.0
C342 C 0.08665 0.37692 0.48494 0.0
O343 O 0.07442 0.36485 0.52583 0.0
O344 O 0.11545 0.40265 0.4811 0.0
C345 C 0.04256 0.3178 0.62907 0.0
O346 O 0.04881 0.30588 0.59002 0.0
C347 C 0.19822 0.45358 0.4454 0.0
C348 C 0.22818 0.50809 0.45828 0.0
C349 C 0.2228 0.4832 0.42556 0.0
N350 N 0.18948 0.46063 0.48794 0.0
N351 N 0.20792 0.49318 0.49586 0.0
C352 C 0.18033 0.41985 0.42172 0.0
H353 H 0.16561 0.4206 0.39088 0.0
H354 H 0.16372 0.40039 0.44741 0.0
H355 H 0.19836 0.41286 0.4078 0.0
C356 C 0.14535 0.36296 0.61485 0.0
N357 N 0.13574 0.38368 0.59584 0.0
N358 N 0.16042 0.40602 0.56955 0.0
C359 C 0.18649 0.40091 0.57208 0.0
C360 C 0.17775 0.37296 0.60014 0.0
C361 C 0.12298 0.33213 0.64259 0.0
H362 H 0.10745 0.33719 0.66763 0.0
H363 H 0.10635 0.31201 0.61732 0.0
H364 H 0.1377 0.32343 0.66307 0.0
O365 O 0.09441 0.42564 0.60041 0.0
O366 O 0.13904 0.46081 0.55877 0.0
H367 H 0.23793 0.41634 0.55491 0.0
H368 H 0.21108 0.40901 0.50452 0.0
C369 C 0.21701 0.4191 0.54161 0.0
H370 H 0.22529 0.44611 0.54105 0.0
H371 H 0.20533 0.50546 0.52565 0.0
O372 O 0.05933 0.34911 0.63755 0.0
C373 C 0.11481 0.4551 0.58578 0.0
Co374 Co 0.72482 0.08812 0.75228 0.0
Co375 Co 0.73336 0.14898 0.69157 0.0
C376 C 0.72395 0.08506 0.64627 0.0
O377 O 0.72372 0.07178 0.68624 0.0
O378 O 0.7265 0.11375 0.64431 0.0
C379 C 0.73756 0.03676 0.78638 0.0
O380 O 0.7551 0.04364 0.74678 0.0
C381 C 0.75934 0.19698 0.61365 0.0
C382 C 0.73683 0.22841 0.62817 0.0
C383 C 0.75571 0.22273 0.59501 0.0
N384 N 0.7434 0.18793 0.65589 0.0
N385 N 0.73049 0.20719 0.66484 0.0
C386 C 0.77352 0.17801 0.58901 0.0
H387 H 0.7552 0.16048 0.56241 0.0
H388 H 0.77912 0.16365 0.61543 0.0
H389 H 0.79674 0.19501 0.5697 0.0
C390 C 0.79551 0.14018 0.77798 0.0
N391 N 0.7651 0.13106 0.75966 0.0
N392 N 0.76741 0.15662 0.73566 0.0
C393 C 0.7986 0.18278 0.73957 0.0
C394 C 0.81776 0.17321 0.76568 0.0
C395 C 0.80453 0.11665 0.80086 0.0
H396 H 0.78461 0.09989 0.82588 0.0
H397 H 0.8073 0.10126 0.77257 0.0
H398 H 0.82849 0.13059 0.82066 0.0
O399 O 0.68199 0.08933 0.76235 0.0
O400 O 0.69158 0.1353 0.72404 0.0
H401 H 0.79312 0.22333 0.71342 0.0
H402 H 0.83544 0.23459 0.72731 0.0
C403 C 0.81146 0.21468 0.7122 0.0
H404 H 0.81561 0.21033 0.67432 0.0
H405 H 0.71578 0.20458 0.69465 0.0
O406 O 0.72335 0.05345 0.79673 0.0
C407 C 0.67299 0.11012 0.74957 0.0
H408 H 0.22325 0.52757 0.36179 0.0
H409 H 0.24953 0.45077 0.37731 0.0
H410 H 0.23531 0.53057 0.27551 0.0
H411 H 0.26054 0.45315 0.29098 0.0
H412 H 0.2083 0.44259 0.12932 0.0
H413 H 0.20144 0.44938 0.21516 0.0
H414 H 0.30282 0.53093 0.22311 0.0
H415 H 0.31016 0.52359 0.13747 0.0
C416 C 0.23204 0.51172 0.34683 0.0
C417 C 0.23471 0.48834 0.37568 0.0
C418 C 0.23876 0.51338 0.29773 0.0
C419 C 0.24841 0.49182 0.27725 0.0
C420 C 0.2528 0.46973 0.3064 0.0
C421 C 0.2462 0.46815 0.35544 0.0
C422 C 0.22911 0.46183 0.14946 0.0
C423 C 0.25999 0.48197 0.12737 0.0
C424 C 0.22508 0.46591 0.19817 0.0
C425 C 0.25174 0.49047 0.2251 0.0
C426 C 0.28205 0.51188 0.20262 0.0
C427 C 0.28613 0.50772 0.15387 0.0
H428 H 0.79853 0.30878 0.30532 0.0
H429 H 0.78515 0.20934 0.3014 0.0
H430 H 0.78469 0.30218 0.39111 0.0
H431 H 0.77302 0.2036 0.38736 0.0
H432 H 0.815 0.24917 0.54786 0.0
H433 H 0.82401 0.2604 0.46169 0.0
H434 H 0.7226 0.23837 0.44535 0.0
H435 H 0.71301 0.2257 0.53136 0.0
C436 C 0.79239 0.28548 0.32267 0.0
C437 C 0.79399 0.25996 0.29721 0.0
C438 C 0.78465 0.28184 0.37154 0.0
C439 C 0.7784 0.25265 0.39529 0.0
C440 C 0.7783 0.2265 0.36948 0.0
C441 C 0.78569 0.22998 0.32062 0.0
C442 C 0.79463 0.24658 0.52581 0.0
C443 C 0.76305 0.23556 0.54564 0.0
C444 C 0.79988 0.25332 0.47687 0.0
C445 C 0.77383 0.24983 0.44748 0.0
C446 C 0.74291 0.24111 0.46773 0.0
C447 C 0.73754 0.23403 0.51668 0.0
H448 H 0.48508 0.75387 0.45744 0.0
H449 H 0.57785 0.83876 0.5051 0.0
H450 H 0.47296 0.73396 0.54065 0.0
H451 H 0.56462 0.82028 0.58708 0.0
H452 H 0.52441 0.79252 0.7343 0.0
H453 H 0.51689 0.80753 0.65281 0.0
H454 H 0.50996 0.71671 0.59794 0.0
H455 H 0.51804 0.70209 0.6792 0.0
C456 C 0.50237 0.76876 0.4856 0.0
C457 C 0.53183 0.79865 0.47466 0.0
C458 C 0.49534 0.75745 0.53302 0.0
C459 C 0.51745 0.77617 0.57013 0.0
C460 C 0.5466 0.80607 0.55926 0.0
C461 C 0.55398 0.81688 0.51207 0.0
C462 C 0.5202 0.77537 0.70493 0.0
C463 C 0.52219 0.74649 0.71238 0.0
C464 C 0.51592 0.78389 0.65854 0.0
C465 C 0.51295 0.76324 0.61941 0.0
C466 C 0.51188 0.73282 0.62765 0.0
C467 C 0.51672 0.7246 0.67389 0.0
H468 H 0.77328 0.49749 0.5885 0.0
H469 H 0.71528 0.54027 0.64109 0.0
H470 H 0.78529 0.48916 0.67138 0.0
H471 H 0.72797 0.53313 0.72323 0.0
H472 H 0.74313 0.50554 0.86912 0.0
H473 H 0.72136 0.4944 0.7869 0.0
H474 H 0.8207 0.52908 0.73304 0.0
H475 H 0.84194 0.53896 0.81487 0.0
C476 C 0.76293 0.50482 0.61783 0.0
C477 C 0.74434 0.5205 0.60874 0.0
C478 C 0.76983 0.50019 0.6651 0.0
C479 C 0.75785 0.51081 0.7038 0.0
C480 C 0.73744 0.5245 0.69433 0.0
C481 C 0.73068 0.5292 0.64727 0.0
C482 C 0.76006 0.51018 0.83958 0.0
C483 C 0.7943 0.52417 0.84793 0.0
C484 C 0.74771 0.50395 0.79265 0.0
C485 C 0.76941 0.51132 0.75349 0.0
C486 C 0.8033 0.52304 0.76234 0.0
C487 C 0.81558 0.52928 0.80914 0.0
H488 H 0.25504 0.80978 0.76646 0.0
H489 H 0.22969 0.70691 0.78244 0.0
H490 H 0.2709 0.82033 0.85073 0.0
H491 H 0.24722 0.71768 0.86662 0.0
H492 H 0.23278 0.74125 0.02594 0.0
H493 H 0.22577 0.72781 0.94004 0.0
H494 H 0.3102 0.82534 0.90958 0.0
H495 H 0.31614 0.83885 -0.00498 0.0
C496 C 0.25305 0.78949 0.78814 0.0
C497 C 0.2403 0.75737 0.76861 0.0
C498 C 0.26266 0.7956 0.83623 0.0
C499 C 0.26011 0.76975 0.86562 0.0
C500 C 0.24897 0.73797 0.84519 0.0
C501 C 0.23925 0.73188 0.797 0.0
C502 C 0.25006 0.75942 0.00068 0.0
C503 C 0.2746 0.79116 0.0165 0.0
C504 C 0.24621 0.75178 0.9516 0.0
C505 C 0.26715 0.77573 0.91784 0.0
C506 C 0.29315 0.80665 0.93445 0.0
C507 C 0.2967 0.81435 0.98327 0.0
H508 H 0.47274 0.17269 0.99227 0.0
H509 H 0.51462 0.27522 0.94745 0.0
H510 H 0.47747 0.19004 0.07603 0.0
H511 H 0.51984 0.29288 0.03177 0.0
H512 H 0.4688 0.29474 0.17616 0.0
H513 H 0.47626 0.28323 0.09308 0.0
H514 H 0.51835 0.22362 0.14129 0.0
H515 H 0.51038 0.23494 0.225 0.0
C516 C 0.48304 0.19899 0.0005 0.0
C517 C 0.49252 0.22259 0.96364 0.0
C518 C 0.4862 0.20897 0.04841 0.0
C519 C 0.49884 0.24277 0.06035 0.0
C520 C 0.50972 0.26661 0.02346 0.0
C521 C 0.50685 0.25659 0.9754 0.0
C522 C 0.4795 0.27905 0.16898 0.0
C523 C 0.48819 0.26491 0.20671 0.0
C524 C 0.48427 0.27292 0.12146 0.0
C525 C 0.49777 0.25244 0.11076 0.0
C526 C 0.50764 0.23928 0.14862 0.0
C527 C 0.50316 0.24576 0.19632 0.0
H528 H 0.28545 0.25271 0.90194 0.0
H529 H 0.32169 0.32546 0.78806 0.0
H530 H 0.29922 0.21703 0.85536 0.0
H531 H 0.33442 0.28885 0.74002 0.0
H532 H 0.31448 0.1489 0.76575 0.0
H533 H 0.2884 0.18113 0.79002 0.0
H534 H 0.37418 0.2713 0.73839 0.0
H535 H 0.39898 0.23839 0.71146 0.0
C536 C 0.29581 0.26085 0.86646 0.0
C537 C 0.30273 0.29215 0.849 0.0
C538 C 0.30344 0.24011 0.83932 0.0
C539 C 0.31794 0.24982 0.79358 0.0
C540 C 0.3237 0.28065 0.77529 0.0
C541 C 0.31628 0.30161 0.80274 0.0
C542 C 0.32704 0.17537 0.75778 0.0
C543 C 0.3589 0.19129 0.73729 0.0
C544 C 0.3124 0.19404 0.77248 0.0
C545 C 0.32957 0.22912 0.7677 0.0
C546 C 0.36008 0.24444 0.74286 0.0
C547 C 0.37443 0.22563 0.72747 0.0
H548 H 0.17754 0.31225 0.96532 0.0
H549 H 0.15957 0.3634 0.85086 0.0
H550 H 0.12013 0.28796 0.99126 0.0
H551 H 0.10107 0.33756 0.87457 0.0
H552 H 0.0227 0.33471 0.9797 0.0
H553 H 0.07257 0.34659 0.93551 0.0
H554 H 0.06333 0.25396 0.986 0.0
H555 H 0.01461 0.24338 0.03254 0.0
C556 C 0.16064 0.31684 0.94424 0.0
C557 C 0.1727 0.33932 0.9059 0.0
C558 C 0.12759 0.30298 0.9591 0.0
C559 C 0.10567 0.31105 0.93559 0.0
C560 C 0.11726 0.33136 0.89444 0.0
C561 C 0.15058 0.34568 0.88011 0.0
C562 C 0.03114 0.31672 0.98086 0.0
C563 C 0.01502 0.28837 0.01015 0.0
C564 C 0.0597 0.32336 0.95511 0.0
C565 C 0.07252 0.30145 0.95725 0.0
C566 C 0.05495 0.27196 0.98429 0.0
C567 C 0.02682 0.26573 0.01083 0.0
H568 H 0.86962 0.16681 0.13303 0.0
H569 H 0.80057 0.15482 0.02101 0.0
H570 H 0.83425 0.10877 0.15602 0.0
H571 H 0.76553 0.09575 0.04175 0.0
H572 H 0.68899 0.01594 0.14465 0.0
H573 H 0.72809 0.06655 0.10257 0.0
H574 H 0.80915 0.05163 0.14602 0.0
H575 H 0.77001 1.00209 0.19046 0.0
C576 C 0.84753 0.15109 0.11187 0.0
C577 C 0.83787 0.16497 0.07505 0.0
C578 C 0.82708 0.1177 0.12499 0.0
C579 C 0.79656 0.09728 0.10123 0.0
C580 C 0.78837 0.11074 0.0617 0.0
C581 C 0.80866 0.14439 0.04912 0.0
C582 C 0.71511 0.02326 0.14462 0.0
C583 C 0.72647 1.00531 0.17144 0.0
C584 C 0.73766 0.05226 0.12012 0.0
C585 C 0.77211 0.06371 0.12108 0.0
C586 C 0.78304 0.0443 0.14538 0.0
C587 C 0.76056 0.0157 0.17067 0.0
H588 H 0.77348 0.76775 0.34461 0.0
H589 H 0.67747 0.68456 0.30537 0.0
H590 H 0.76063 0.80574 0.30186 0.0
H591 H 0.66334 0.72241 0.26574 0.0
H592 H 0.64062 0.79162 0.19019 0.0
H593 H 0.66651 0.75793 0.20688 0.0
H594 H 0.73035 0.83153 0.3123 0.0
H595 H 0.70602 0.86576 0.29238 0.0
C596 C 0.74961 0.75761 0.32668 0.0
C597 C 0.7264 0.72324 0.32861 0.0
C598 C 0.74203 0.77944 0.30243 0.0
C599 C 0.71062 0.76758 0.28065 0.0
C600 C 0.688 0.73282 0.28111 0.0
C601 C 0.69596 0.71094 0.30428 0.0
C602 C 0.66124 0.80104 0.21528 0.0
C603 C 0.67169 0.83131 0.23964 0.0
C604 C 0.6757 0.78149 0.22573 0.0
C605 C 0.70018 0.79134 0.26195 0.0
C606 C 0.71201 0.82293 0.28381 0.0
C607 C 0.6981 0.84276 0.27245 0.0
H608 H 0.98443 0.73849 0.55926 0.0
H609 H 0.02144 0.70637 0.4403 0.0
H610 H 0.93435 0.72411 0.51438 0.0
H611 H 0.97146 0.69305 0.39407 0.0
H612 H 0.8568 0.62646 0.36498 0.0
H613 H 0.91451 0.65199 0.39189 0.0
H614 H 0.90801 0.73507 0.45164 0.0
H615 H 0.84972 0.7082 0.42723 0.0
C616 C 0.98219 0.72894 0.52305 0.0
C617 C 1.00692 0.72333 0.50364 0.0
C618 C 0.95342 0.72093 0.49692 0.0
C619 C 0.94857 0.70737 0.45028 0.0
C620 C 0.97398 0.70298 0.43008 0.0
C621 C 1.00277 0.71078 0.4565 0.0
C622 C 0.8681 0.6506 0.38285 0.0
C623 C 0.84873 0.6651 0.39468 0.0
C624 C 0.90127 0.66537 0.39823 0.0
C625 C 0.91593 0.69531 0.42518 0.0
C626 C 0.89737 0.71151 0.43238 0.0
C627 C 0.86408 0.69644 0.41761 0.0
H628 H 0.25325 0.01032 0.68906 0.0
H629 H 0.33645 1.0031 0.63461 0.0
H630 H 0.21496 0.96033 0.64385 0.0
H631 H 0.29831 0.95208 0.59156 0.0
H632 H 0.22639 0.86409 0.50576 0.0
H633 H 0.2601 0.92262 0.53106 0.0
H634 H 0.19283 0.90326 0.64985 0.0
H635 H 0.1587 0.84574 0.62253 0.0
C636 C 0.26336 0.99808 0.66723 0.0
C637 C 0.29786 0.01052 0.66574 0.0
C638 C 0.24137 0.96919 0.64149 0.0
C639 C 0.25324 0.95154 0.61436 0.0
C640 C 0.28798 0.96497 0.61134 0.0
C641 C 0.31 0.99423 0.63638 0.0
C642 C 0.21833 0.87297 0.5361 0.0
C643 C 0.18982 0.85077 0.56185 0.0
C644 C 0.23789 0.90632 0.55123 0.0
C645 C 0.22967 0.91791 0.59308 0.0
C646 C 0.19995 0.8958 0.61711 0.0
C647 C 0.18023 0.8627 0.60152 0.0
H648 H 0.87613 0.71111 0.05606 0.0
H649 H 0.78655 0.62268 0.10097 0.0
H650 H 0.84359 0.73744 0.03472 0.0
H651 H 0.75364 0.6481 0.07803 0.0
H652 H 0.69867 0.70003 0.03382 0.0
H653 H 0.73573 0.68815 0.08138 0.0
H654 H 0.80846 0.72707 0.96742 0.0
H655 H 0.7721 0.73976 0.92098 0.0
C656 C 0.84961 0.69784 0.0631 0.0
C657 C 0.83374 0.66487 0.07995 0.0
C658 C 0.83082 0.71264 0.05009 0.0
C659 C 0.79579 0.69461 0.05334 0.0
C660 C 0.78047 0.66289 0.07502 0.0
C661 C 0.79931 0.64825 0.08833 0.0
C662 C 0.72281 0.7065 0.01931 0.0
C663 C 0.73223 0.72054 0.97332 0.0
C664 C 0.74403 0.69958 0.04653 0.0
C665 C 0.77516 0.70649 0.02835 0.0
C666 C 0.78503 0.72187 0.98319 0.0
C667 C 0.76393 0.72887 0.95617 0.0
H668 H 1.00886 0.76445 0.13207 0.0
H669 H 0.02083 0.68074 0.17012 0.0
H670 H 0.0588 0.8019 0.17767 0.0
H671 H 0.07182 0.71815 0.21317 0.0
H672 H 0.16099 0.78743 0.2969 0.0
H673 H 0.10198 0.75367 0.27558 0.0
H674 H 0.11546 0.82664 0.16806 0.0
H675 H 0.17343 0.86073 0.19187 0.0
C676 C 0.02216 0.75405 0.15038 0.0
C677 C 1.01108 0.71971 0.14714 0.0
C678 C 0.051 0.77556 0.17632 0.0
C679 C 0.06999 0.7634 0.19876 0.0
C680 C 0.0579 0.72867 0.19717 0.0
C681 C 0.02866 0.70709 0.17208 0.0
C682 C 0.15071 0.79669 0.2702 0.0
C683 C 0.17138 0.82675 0.24643 0.0
C684 C 0.11707 0.77714 0.25724 0.0
C685 C 0.10371 0.78692 0.21935 0.0
C686 C 0.12429 0.81822 0.19781 0.0
C687 C 0.15766 0.83793 0.21139 0.0
H688 H 0.33997 0.01317 0.34528 0.0
H689 H 0.24815 1.00514 0.29582 0.0
H690 H 0.35363 0.0645 0.38818 0.0
H691 H 0.26068 0.05543 0.34088 0.0
H692 H 0.31889 0.17016 0.3603 0.0
H693 H 0.29526 0.11248 0.33353 0.0
H694 H 0.34608 0.09435 0.44949 0.0
H695 H 0.37107 0.15303 0.4742 0.0
C696 C 0.32228 0.02194 0.3446 0.0
C697 C 0.29319 1.00532 0.31665 0.0
C698 C 0.32998 0.05138 0.36954 0.0
C699 C 0.30849 0.06466 0.36784 0.0
C700 C 0.27837 0.04669 0.34217 0.0
C701 C 0.271 0.01763 0.31653 0.0
C702 C 0.32405 0.15344 0.38085 0.0
C703 C 0.34639 0.16574 0.41954 0.0
C704 C 0.31054 0.12025 0.36558 0.0
C705 C 0.31886 0.09842 0.38893 0.0
C706 C 0.33957 0.11041 0.42985 0.0
C707 C 0.35348 0.14384 0.44466 0.0
H708 H 0.32426 0.30958 0.55003 0.0
H709 H 0.25487 0.27846 0.43156 0.0
H710 H 0.28793 0.32298 0.59705 0.0
H711 H 0.2196 0.29303 0.47708 0.0
H712 H 0.15178 0.30994 0.5639 0.0
H713 H 0.18251 0.2824 0.53942 0.0
H714 H 0.27235 0.36403 0.60096 0.0
H715 H 0.24071 0.39002 0.62843 0.0
C716 C 0.30119 0.30541 0.53412 0.0
C717 C 0.29262 0.2931 0.48689 0.0
C718 C 0.28039 0.31326 0.56098 0.0
C719 C 0.25065 0.30923 0.54111 0.0
C720 C 0.24178 0.29591 0.49435 0.0
C721 C 0.26231 0.28779 0.46784 0.0
C722 C 0.17777 0.32122 0.57393 0.0
C723 C 0.19402 0.35234 0.59743 0.0
C724 C 0.19564 0.30578 0.55908 0.0
C725 C 0.23031 0.32144 0.56662 0.0
C726 C 0.24579 0.35108 0.59423 0.0
C727 C 0.22772 0.36617 0.60983 0.0
H728 H 0.01396 0.25017 0.63832 0.0
H729 H 1.00699 0.33466 0.68975 0.0
H730 H 0.96377 0.21244 0.68253 0.0
H731 H 0.95574 0.29708 0.7316 0.0
H732 H 0.86694 0.22618 0.81504 0.0
H733 H 0.92552 0.25953 0.7917 0.0
H734 H 0.90721 0.19043 0.67455 0.0
H735 H 0.84968 0.15668 0.70004 0.0
C736 C 1.00169 0.26067 0.65925 0.0
C737 C 0.01426 0.29536 0.66022 0.0
C738 C 0.97271 0.23901 0.6844 0.0
C739 C 0.95507 0.25141 0.7103 0.0
C740 C 0.9686 0.28636 0.7128 0.0
C741 C 0.99799 0.30804 0.68843 0.0
C742 C 0.87605 0.21768 0.78552 0.0
C743 C 0.85418 0.18876 0.75968 0.0
C744 C 0.90944 0.237 0.77151 0.0
C745 C 0.92135 0.22813 0.73066 0.0
C746 C 0.89951 0.19804 0.70658 0.0
C747 C 0.86639 0.17855 0.7211 0.0
H748 H 0.68661 1.00026 0.84857 0.0
H749 H 0.7769 0.00859 0.79167 0.0
H750 H 0.6742 0.94882 0.88898 0.0
H751 H 0.76575 0.9582 0.83436 0.0
H752 H 0.70739 0.84323 0.84998 0.0
H753 H 0.73115 0.90128 0.82618 0.0
H754 H 0.68329 0.91871 0.94728 0.0
H755 H 0.65801 0.85967 0.96889 0.0
C756 C 0.70425 0.99151 0.84571 0.0
C757 C 0.73248 0.00822 0.81641 0.0
C758 C 0.6973 0.96202 0.86925 0.0
C759 C 0.71877 0.94883 0.86482 0.0
C760 C 0.7481 0.96689 0.83776 0.0
C761 C 0.75466 0.99598 0.81346 0.0
C762 C 0.703 0.85989 0.87233 0.0
C763 C 0.6813 0.8473 0.91148 0.0
C764 C 0.71658 0.89329 0.85875 0.0
C765 C 0.70897 0.915 0.88436 0.0
C766 C 0.68917 0.90274 0.92592 0.0
C767 C 0.67514 0.86909 0.93897 0.0
H768 H 0.29341 0.3804 0.11619 0.0
H769 H 0.32246 0.32327 0.02535 0.0
H770 H 0.30789 0.35982 0.18685 0.0
H771 H 0.33647 0.30223 0.09644 0.0
H772 H 0.40381 0.31715 0.22773 0.0
H773 H 0.3813 0.32836 0.15618 0.0
H774 H 0.2939 0.31045 0.23542 0.0
H775 H 0.31651 0.29915 0.30745 0.0
C776 C 0.3024 0.36305 0.11125 0.0
C777 C 0.30711 0.35379 0.06503 0.0
C778 C 0.3105 0.35108 0.15186 0.0
C779 C 0.32353 0.32958 0.1472 0.0
C780 C 0.32693 0.31917 0.10109 0.0
C781 C 0.31875 0.33111 0.0604 0.0
C782 C 0.37951 0.31494 0.2298 0.0
C783 C 0.36187 0.30701 0.27325 0.0
C784 C 0.36658 0.32134 0.18869 0.0
C785 C 0.33574 0.32011 0.19008 0.0
C786 C 0.31785 0.31181 0.23337 0.0
C787 C 0.33079 0.30532 0.27457 0.0
H788 H 0.92699 0.30058 0.28042 0.0
H789 H 1.01018 0.31542 0.1928 0.0
H790 H 0.96168 0.31522 0.3516 0.0
H791 H 0.04487 0.32951 0.26469 0.0
H792 H 0.02504 0.32061 0.47716 0.0
H793 H 0.99135 0.29774 0.40474 0.0
H794 H 0.06955 0.37626 0.32094 0.0
H795 H 0.10337 0.39871 0.39279 0.0
C796 C 0.95259 0.30655 0.27634 0.0
C797 C 0.96585 0.30707 0.23075 0.0
C798 C 0.97244 0.31471 0.31734 0.0
C799 C 1.00606 0.32358 0.31385 0.0
C800 C 0.01914 0.32317 0.26846 0.0
C801 C 0.99923 0.31497 0.22731 0.0
C802 C 0.03515 0.33281 0.44322 0.0
C803 C 0.06684 0.36161 0.44088 0.0
C804 C 0.01581 0.31977 0.40176 0.0
C805 C 0.02772 0.33525 0.3571 0.0
C806 C 0.05979 0.36344 0.35461 0.0
C807 C 0.07911 0.37646 0.39597 0.0
H808 H 0.69419 0.00944 0.35118 0.0
H809 H 0.65531 0.92387 0.44478 0.0
H810 H 0.7182 0.04654 0.42057 0.0
H811 H 0.67736 0.96055 0.51385 0.0
H812 H 0.70744 0.09724 0.55772 0.0
H813 H 0.69711 0.06433 0.48486 0.0
H814 H 0.72357 0.99902 0.55911 0.0
H815 H 0.73252 0.03123 0.63266 0.0
C816 C 0.69097 0.99853 0.38646 0.0
C817 C 0.67215 0.96371 0.39259 0.0
C818 C 0.70445 0.01978 0.42629 0.0
C819 C 0.69931 1.00663 0.473 0.0
C820 C 0.68209 0.97172 0.47858 0.0
C821 C 0.66892 0.95058 0.43889 0.0
C822 C 0.71133 0.07602 0.5584 0.0
C823 C 0.72037 0.06657 0.60113 0.0
C824 C 0.70568 0.05727 0.51642 0.0
C825 C 0.70931 0.02884 0.51602 0.0
C826 C 0.71985 0.02033 0.55831 0.0
C827 C 0.72507 0.03884 0.60048 0.0
H828 H 0.71763 0.69939 0.51497 0.0
H829 H 0.69566 0.60921 0.59048 0.0
H830 H 0.70638 0.72143 0.58819 0.0
H831 H 0.68462 0.63113 0.66307 0.0
H832 H 0.63759 0.72285 0.70879 0.0
H833 H 0.65725 0.70821 0.637 0.0
H834 H 0.71141 0.67472 0.72478 0.0
H835 H 0.69108 0.68871 0.79697 0.0
C836 C 0.71061 0.68436 0.54717 0.0
C837 C 0.70787 0.65267 0.54699 0.0
C838 C 0.70415 0.69696 0.58904 0.0
C839 C 0.69485 0.67811 0.63149 0.0
C840 C 0.69245 0.6466 0.6313 0.0
C841 C 0.69879 0.63402 0.58957 0.0
C842 C 0.65374 0.71248 0.71294 0.0
C843 C 0.66226 0.70645 0.75873 0.0
C844 C 0.66532 0.70441 0.67166 0.0
C845 C 0.68569 0.6901 0.67521 0.0
C846 C 0.69533 0.68528 0.72094 0.0
C847 C 0.6838 0.69344 0.76228 0.0
H848 H 0.0339 0.72626 0.68431 0.0
H849 H 0.10222 0.70452 0.75941 0.0
H850 H 1.00184 0.71641 0.75766 0.0
H851 H 0.06953 0.69346 0.83221 0.0
H852 H 0.92851 0.64522 0.86957 0.0
H853 H 0.96505 0.66808 0.80137 0.0
H854 H 0.05023 0.71419 0.89651 0.0
H855 H 0.01327 0.68979 0.96539 0.0
C856 C 0.0421 0.71942 0.71649 0.0
C857 C 0.07037 0.71579 0.71591 0.0
C858 C 0.02369 0.7137 0.75853 0.0
C859 C 0.03288 0.70379 0.80076 0.0
C860 C 0.06193 0.70145 0.80058 0.0
C861 C 0.08055 0.70753 0.75867 0.0
C862 C 0.95496 0.66025 0.87619 0.0
C863 C 0.96794 0.66505 0.92295 0.0
C864 C 0.976 0.67382 0.83692 0.0
C865 C 1.01066 0.69289 0.84332 0.0
C866 C 0.02366 0.69916 0.8903 0.0
C867 C 1.00248 0.68538 0.92977 0.0
H868 H 0.27686 0.9178 0.04374 0.0
H869 H 0.32807 1.00486 0.13537 0.0
H870 H 0.29312 0.95332 0.97362 0.0
H871 H 0.34309 0.04077 0.06504 0.0
H872 H 0.40825 0.08427 0.93068 0.0
H873 H 0.383 0.05204 0.00242 0.0
H874 H 0.28959 0.99481 0.92663 0.0
H875 H 0.31527 0.0271 0.85405 0.0
C876 C 0.29128 0.94456 0.04898 0.0
C877 C 0.3021 0.95842 0.09498 0.0
C878 C 0.30019 0.96502 0.00872 0.0
C879 C 0.31992 0.99988 0.01362 0.0
C880 C 0.32852 0.01391 0.06001 0.0
C881 C 0.31968 0.99337 0.10034 0.0
C882 C 0.38219 0.06517 0.92941 0.0
C883 C 0.3637 0.05835 0.88678 0.0
C884 C 0.36763 0.04676 0.97071 0.0
C885 C 0.33416 0.02106 0.97049 0.0
C886 C 0.31551 0.01433 0.92789 0.0
C887 C 0.33019 0.03275 0.88634 0.0
H888 H 0.56662 0.60477 0.92831 0.0
H889 H 0.50931 0.65407 0.9095 0.0
H890 H 0.51442 0.55045 0.93315 0.0
H891 H 0.45821 0.60084 0.91301 0.0
H892 H 0.37291 0.50986 0.97165 0.0
H893 H 0.42709 0.55921 0.97248 0.0
H894 H 0.46447 0.51092 0.87873 0.0
H895 H 0.40926 0.4597 0.87917 0.0
C896 C 0.54299 0.60407 0.92619 0.0
C897 C 0.54201 0.63366 0.91896 0.0
C898 C 0.51321 0.57303 0.92811 0.0
C899 C 0.48219 0.57135 0.92337 0.0
C900 C 0.48156 0.60117 0.91738 0.0
C901 C 0.51095 0.63178 0.91537 0.0
C902 C 0.39238 0.50933 0.95091 0.0
C903 C 0.38638 0.48064 0.9248 0.0
C904 C 0.42365 0.53789 0.95148 0.0
C905 C 0.45006 0.53918 0.92538 0.0
C906 C 0.44456 0.51055 0.89946 0.0
C907 C 0.41291 0.48145 0.89918 0.0
H908 H 0.86209 0.35878 0.08686 0.0
H909 H 0.96789 0.40583 0.0611 0.0
H910 H 0.8651 0.41242 0.08123 0.0
H911 H 0.97082 0.46044 0.05443 0.0
H912 H 0.95946 0.55382 0.1049 0.0
H913 H 0.96218 0.50195 0.10868 0.0
H914 H 0.87516 0.45238 0.01778 0.0
H915 H 0.87177 0.50262 0.01501 0.0
C916 C 0.88601 0.38062 0.07921 0.0
C917 C 0.91472 0.378 0.07411 0.0
C918 C 0.88773 0.41144 0.076 0.0
C919 C 0.9182 0.44071 0.06743 0.0
C920 C 0.94704 0.43829 0.06148 0.0
C921 C 0.94528 0.40706 0.0645 0.0
C922 C 0.94082 0.53169 0.08619 0.0
C923 C 0.91526 0.53244 0.0601 0.0
C924 C 0.94262 0.50219 0.08783 0.0
C925 C 0.91879 0.47307 0.06363 0.0
C926 C 0.89364 0.47417 0.03734 0.0
C927 C 0.89179 0.50322 0.03578 0.0
H928 H 0.55299 0.93746 0.18389 0.0
H929 H 0.52227 0.89941 0.32738 0.0
H930 H 0.50299 0.9425 0.17556 0.0
H931 H 0.47299 0.90456 0.31908 0.0
H932 H 0.3973 0.93915 0.30113 0.0
H933 H 0.45312 0.94601 0.30922 0.0
H934 H 0.44191 0.89911 0.17074 0.0
H935 H 0.38676 0.89214 0.16269 0.0
C936 C 0.53582 0.93049 0.21368 0.0
C937 C 0.54138 0.91759 0.25595 0.0
C938 C 0.50724 0.93334 0.20896 0.0
C939 C 0.48409 0.92395 0.24676 0.0
C940 C 0.49046 0.91235 0.28956 0.0
C941 C 0.51858 0.90904 0.294 0.0
C942 C 0.40691 0.93053 0.2724 0.0
C943 C 0.38737 0.91471 0.23164 0.0
C944 C 0.4388 0.93445 0.27697 0.0
C945 C 0.45192 0.92318 0.24047 0.0
C946 C 0.43275 0.90843 0.19917 0.0
C947 C 0.4009 0.90409 0.19493 0.0
H948 H 0.45412 0.4073 0.40653 0.0
H949 H 0.51438 0.36507 0.4495 0.0
H950 H 0.50455 0.46182 0.39545 0.0
H951 H 0.56446 0.4194 0.44089 0.0
H952 H 0.64879 0.50098 0.36524 0.0
H953 H 0.59465 0.4507 0.37376 0.0
H954 H 0.55359 0.51044 0.42692 0.0
H955 H 0.60787 0.5611 0.41591 0.0
C956 C 0.47808 0.41009 0.41565 0.0
C957 C 0.48045 0.3821 0.42907 0.0
C958 C 0.50701 0.44123 0.40885 0.0
C959 C 0.53873 0.44484 0.41573 0.0
C960 C 0.54061 0.41735 0.43339 0.0
C961 C 0.51189 0.38632 0.43937 0.0
C962 C 0.62785 0.50342 0.37701 0.0
C963 C 0.63238 0.53486 0.38947 0.0
C964 C 0.59694 0.47457 0.38294 0.0
C965 C 0.56992 0.4763 0.40274 0.0
C966 C 0.57381 0.50808 0.41182 0.0
C967 C 0.6048 0.53716 0.40507 0.0
H968 H 0.05597 0.60942 0.58656 0.0
H969 H 0.15504 0.65088 0.52904 0.0
H970 H 0.05291 0.55525 0.59653 0.0
H971 H 0.15167 0.59687 0.53659 0.0
H972 H 0.16026 0.51816 0.61179 0.0
H973 H 0.15529 0.5678 0.60356 0.0
H974 H 0.05175 0.50584 0.56373 0.0
H975 H 0.05664 0.45581 0.57431 0.0
C976 C 0.07646 0.60647 0.57405 0.0
C977 C 0.10569 0.63417 0.5568 0.0
C978 C 0.07487 0.57555 0.58017 0.0
C979 C 0.10246 0.5719 0.56882 0.0
C980 C 0.13041 0.599 0.54745 0.0
C981 C 0.13216 0.62983 0.54214 0.0
C982 C 0.13617 0.51513 0.60282 0.0
C983 C 0.10882 0.48321 0.59397 0.0
C984 C 0.13341 0.54359 0.59713 0.0
C985 C 0.1034 0.54098 0.58125 0.0
C986 C 0.07528 0.50884 0.57573 0.0
C987 C 0.07796 0.48015 0.58221 0.0
H988 H 0.6137 0.05262 0.73375 0.0
H989 H 0.65632 0.15465 0.78274 0.0
H990 H 0.55906 0.04845 0.72651 0.0
H991 H 0.60199 0.15028 0.778 0.0
H992 H 0.5185 0.15379 0.71032 0.0
H993 H 0.56896 0.1502 0.71407 0.0
H994 H 0.51133 0.04791 0.76232 0.0
H995 H 0.4604 0.05131 0.75599 0.0
C996 C 0.61103 0.07366 0.74482 0.0
C997 C 0.6391 0.10394 0.75893 0.0
C998 C 0.57982 0.07141 0.74031 0.0
C999 C 0.57623 0.09937 0.75021 0.0
C1000 C 0.60395 0.12863 0.76823 0.0
C1001 C 0.63503 0.13101 0.77191 0.0
C1002 C 0.51655 0.1302 0.7201 0.0
C1003 C 0.48564 0.10277 0.73246 0.0
C1004 C 0.54551 0.12827 0.72323 0.0
C1005 C 0.54448 0.09911 0.74017 0.0
C1006 C 0.51315 0.0708 0.74934 0.0
C1007 C 0.48393 0.0726 0.74534 0.0
loop_
_geom_bond_atom_site_label_1
_geom_bond_atom_site_label_2
_geom_bond_distance
_geom_bond_site_symmetry_2
_ccdc_geom_bond_type
Co0 O3 1.970 1_556 S
Co0 N17 1.989 . S
Co0 O25 1.967 . S
Co0 O32 1.920 . S
Co1 O4 1.966 . S
Co1 N10 2.022 . S
Co1 N18 1.993 1_554 S
Co1 O26 1.941 1_554 S
C2 O3 1.258 . S
C2 O4 1.263 . S
O3 Co0 1.970 1_554 S
O3 C2 1.258 . S
O4 Co1 1.966 . S
O4 C2 1.263 . S
C5 O6 1.235 . S
C5 O32 1.289 . S
O6 C5 1.235 . S
C7 C9 1.400 . S
C7 N10 1.351 . S
C7 C12 1.501 . S
C8 C9 1.387 . S
C8 N11 1.341 . S
C9 C7 1.400 . S
C9 C8 1.387 . S
N10 Co1 2.022 . S
N10 C7 1.351 . S
N10 N11 1.365 . S
N11 C8 1.341 . S
N11 N10 1.365 . S
N11 H31 0.862 . S
C12 C7 1.501 . S
C12 H13 0.961 . S
C12 H14 0.961 . S
C12 H15 0.960 . S
H13 C12 0.961 . S
H14 C12 0.961 . S
H15 C12 0.960 . S
C16 N17 1.342 . S
C16 C20 1.401 . S
C16 C21 1.499 . S
N17 Co0 1.989 . S
N17 C16 1.342 . S
N17 N18 1.388 . S
N18 Co1 1.993 1_556 S
N18 N17 1.388 . S
N18 C19 1.346 . S
C19 N18 1.346 . S
C19 C20 1.396 . S
C19 C29 1.510 1_556 S
C20 C16 1.401 . S
C20 C19 1.396 . S
C21 C16 1.499 . S
C21 H22 0.959 . S
C21 H23 0.960 . S
C21 H24 0.961 . S
H22 C21 0.959 . S
H23 C21 0.960 . S
H24 C21 0.961 . S
O25 Co0 1.967 . S
O25 C33 1.258 . S
O26 Co1 1.941 1_556 S
O26 C33 1.266 . S
H27 C29 0.959 . S
H28 C29 0.961 . S
C29 C19 1.510 1_554 S
C29 H27 0.959 . S
C29 H28 0.961 . S
C29 H30 0.960 . S
H30 C29 0.960 . S
H31 N11 0.862 . S
O32 Co0 1.920 . S
O32 C5 1.289 . S
C33 O25 1.258 . S
C33 O26 1.266 . S
Co34 O37 1.970 . S
Co34 N51 1.989 . S
Co34 O59 1.967 . S
Co34 O66 1.920 . S
Co35 O38 1.966 . S
Co35 N44 2.022 . S
Co35 N52 1.993 . S
Co35 O60 1.941 . S
C36 O37 1.258 . S
C36 O38 1.263 . S
O37 Co34 1.970 . S
O37 C36 1.258 . S
O38 Co35 1.966 . S
O38 C36 1.263 . S
C39 O40 1.235 . S
C39 O66 1.289 . S
O40 C39 1.235 . S
C41 C43 1.400 . S
C41 N44 1.351 . S
C41 C46 1.501 . S
C42 C43 1.387 . S
C42 N45 1.341 . S
C43 C41 1.400 . S
C43 C42 1.387 . S
N44 Co35 2.022 . S
N44 C41 1.351 . S
N44 N45 1.365 . S
N45 C42 1.341 . S
N45 N44 1.365 . S
N45 H65 0.862 . S
C46 C41 1.501 . S
C46 H47 0.961 . S
C46 H48 0.961 . S
C46 H49 0.960 . S
H47 C46 0.961 . S
H48 C46 0.961 . S
H49 C46 0.960 . S
C50 N51 1.342 . S
C50 C54 1.401 . S
C50 C55 1.499 . S
N51 Co34 1.989 . S
N51 C50 1.342 . S
N51 N52 1.388 . S
N52 Co35 1.993 . S
N52 N51 1.388 . S
N52 C53 1.346 . S
C53 N52 1.346 . S
C53 C54 1.396 . S
C53 C63 1.510 . S
C54 C50 1.401 . S
C54 C53 1.396 . S
C55 C50 1.499 . S
C55 H56 0.959 . S
C55 H57 0.960 . S
C55 H58 0.961 1_554 S
H56 C55 0.959 . S
H57 C55 0.960 . S
H58 C55 0.961 1_556 S
O59 Co34 1.967 . S
O59 C67 1.258 . S
O60 Co35 1.941 . S
O60 C67 1.266 . S
H61 C63 0.959 . S
H62 C63 0.961 . S
C63 C53 1.510 . S
C63 H61 0.959 . S
C63 H62 0.961 . S
C63 H64 0.960 . S
H64 C63 0.960 . S
H65 N45 0.862 . S
O66 Co34 1.920 . S
O66 C39 1.289 . S
C67 O59 1.258 . S
C67 O60 1.266 . S
Co68 O71 1.970 . S
Co68 N85 1.989 . S
Co68 O93 1.967 . S
Co68 O100 1.920 . S
Co69 O72 1.966 . S
Co69 N78 2.022 . S
Co69 N86 1.993 . S
Co69 O94 1.941 . S
C70 O71 1.258 . S
C70 O72 1.263 . S
O71 Co68 1.970 . S
O71 C70 1.258 . S
O72 Co69 1.966 . S
O72 C70 1.263 . S
C73 O74 1.235 . S
C73 O100 1.289 . S
O74 C73 1.235 . S
C75 C77 1.400 . S
C75 N78 1.351 . S
C75 C80 1.501 . S
C76 C77 1.387 . S
C76 N79 1.341 . S
C77 C75 1.400 . S
C77 C76 1.387 . S
N78 Co69 2.022 . S
N78 C75 1.351 . S
N78 N79 1.365 . S
N79 C76 1.341 . S
N79 N78 1.365 . S
N79 H99 0.862 . S
C80 C75 1.501 . S
C80 H81 0.961 . S
C80 H82 0.961 . S
C80 H83 0.960 . S
H81 C80 0.961 . S
H82 C80 0.961 . S
H83 C80 0.960 . S
C84 N85 1.342 . S
C84 C88 1.401 . S
C84 C89 1.499 . S
N85 Co68 1.989 . S
N85 C84 1.342 . S
N85 N86 1.388 . S
N86 Co69 1.993 . S
N86 N85 1.388 . S
N86 C87 1.346 . S
C87 N86 1.346 . S
C87 C88 1.396 . S
C87 C97 1.510 . S
C88 C84 1.401 . S
C88 C87 1.396 . S
C89 C84 1.499 . S
C89 H90 0.959 . S
C89 H91 0.960 . S
C89 H92 0.961 . S
H90 C89 0.959 . S
H91 C89 0.960 . S
H92 C89 0.961 . S
O93 Co68 1.967 . S
O93 C101 1.258 . S
O94 Co69 1.941 . S
O94 C101 1.266 . S
H95 C97 0.959 . S
H96 C97 0.961 . S
C97 C87 1.510 . S
C97 H95 0.959 . S
C97 H96 0.961 . S
C97 H98 0.960 . S
H98 C97 0.960 . S
H99 N79 0.862 . S
O100 Co68 1.920 . S
O100 C73 1.289 . S
C101 O93 1.258 . S
C101 O94 1.266 . S
Co102 O105 1.970 . S
Co102 N119 1.989 . S
Co102 O127 1.967 . S
Co102 O134 1.920 . S
Co103 O106 1.966 . S
Co103 N112 2.022 . S
Co103 N120 1.993 . S
Co103 O128 1.941 . S
C104 O105 1.258 . S
C104 O106 1.263 . S
O105 Co102 1.970 . S
O105 C104 1.258 . S
O106 Co103 1.966 . S
O106 C104 1.263 . S
C107 O108 1.235 . S
C107 O134 1.289 . S
O108 C107 1.235 . S
C109 C111 1.400 . S
C109 N112 1.351 . S
C109 C114 1.501 . S
C110 C111 1.387 . S
C110 N113 1.341 . S
C111 C109 1.400 . S
C111 C110 1.387 . S
N112 Co103 2.022 . S
N112 C109 1.351 . S
N112 N113 1.365 . S
N113 C110 1.341 . S
N113 N112 1.365 . S
N113 H133 0.862 . S
C114 C109 1.501 . S
C114 H115 0.961 . S
C114 H116 0.961 . S
C114 H117 0.960 . S
H115 C114 0.961 . S
H116 C114 0.961 . S
H117 C114 0.960 . S
C118 N119 1.342 . S
C118 C122 1.401 . S
C118 C123 1.499 . S
N119 Co102 1.989 . S
N119 C118 1.342 . S
N119 N120 1.388 . S
N120 Co103 1.993 . S
N120 N119 1.388 . S
N120 C121 1.346 . S
C121 N120 1.346 . S
C121 C122 1.396 . S
C121 C131 1.510 . S
C122 C118 1.401 . S
C122 C121 1.396 . S
C123 C118 1.499 . S
C123 H124 0.959 . S
C123 H125 0.960 . S
C123 H126 0.961 . S
H124 C123 0.959 . S
H125 C123 0.960 . S
H126 C123 0.961 . S
O127 Co102 1.967 . S
O127 C135 1.258 . S
O128 Co103 1.941 . S
O128 C135 1.266 . S
H129 C131 0.959 . S
H130 C131 0.961 . S
C131 C121 1.510 . S
C131 H129 0.959 . S
C131 H130 0.961 . S
C131 H132 0.960 . S
H132 C131 0.960 . S
H133 N113 0.862 . S
O134 Co102 1.920 . S
O134 C107 1.289 . S
C135 O127 1.258 . S
C135 O128 1.266 . S
Co136 O139 1.970 . S
Co136 N153 1.989 . S
Co136 O161 1.967 . S
Co136 O168 1.920 . S
Co137 O140 1.966 . S
Co137 N146 2.022 . S
Co137 N154 1.993 . S
Co137 O162 1.941 . S
C138 O139 1.258 . S
C138 O140 1.263 . S
O139 Co136 1.970 . S
O139 C138 1.258 . S
O140 Co137 1.966 . S
O140 C138 1.263 . S
C141 O142 1.235 . S
C141 O168 1.289 . S
O142 C141 1.235 . S
C143 C145 1.400 . S
C143 N146 1.351 . S
C143 C148 1.501 . S
C144 C145 1.387 . S
C144 N147 1.341 . S
C145 C143 1.400 . S
C145 C144 1.387 . S
N146 Co137 2.022 . S
N146 C143 1.351 . S
N146 N147 1.365 . S
N147 C144 1.341 . S
N147 N146 1.365 . S
N147 H167 0.862 . S
C148 C143 1.501 . S
C148 H149 0.961 . S
C148 H150 0.961 . S
C148 H151 0.960 . S
H149 C148 0.961 . S
H150 C148 0.961 . S
H151 C148 0.960 . S
C152 N153 1.342 . S
C152 C156 1.401 . S
C152 C157 1.499 . S
N153 Co136 1.989 . S
N153 C152 1.342 . S
N153 N154 1.388 . S
N154 Co137 1.993 . S
N154 N153 1.388 . S
N154 C155 1.346 . S
C155 N154 1.346 . S
C155 C156 1.396 . S
C155 C165 1.510 . S
C156 C152 1.401 . S
C156 C155 1.396 . S
C157 C152 1.499 . S
C157 H158 0.959 . S
C157 H159 0.960 . S
C157 H160 0.961 . S
H158 C157 0.959 . S
H159 C157 0.960 . S
H160 C157 0.961 . S
O161 Co136 1.967 . S
O161 C169 1.258 . S
O162 Co137 1.941 . S
O162 C169 1.266 . S
H163 C165 0.959 . S
H164 C165 0.961 . S
C165 C155 1.510 . S
C165 H163 0.959 . S
C165 H164 0.961 . S
C165 H166 0.960 . S
H166 C165 0.960 . S
H167 N147 0.862 . S
O168 Co136 1.920 . S
O168 C141 1.289 . S
C169 O161 1.258 . S
C169 O162 1.266 . S
Co170 O173 1.970 . S
Co170 N187 1.989 . S
Co170 O195 1.967 . S
Co170 O202 1.920 . S
Co171 O174 1.966 . S
Co171 N180 2.022 . S
Co171 N188 1.993 . S
Co171 O196 1.941 . S
C172 O173 1.258 . S
C172 O174 1.263 . S
O173 Co170 1.970 . S
O173 C172 1.258 . S
O174 Co171 1.966 . S
O174 C172 1.263 . S
C175 O176 1.235 . S
C175 O202 1.289 . S
O176 C175 1.235 . S
C177 C179 1.400 . S
C177 N180 1.351 . S
C177 C182 1.501 . S
C178 C179 1.387 . S
C178 N181 1.341 . S
C179 C177 1.400 . S
C179 C178 1.387 . S
N180 Co171 2.022 . S
N180 C177 1.351 . S
N180 N181 1.365 . S
N181 C178 1.341 . S
N181 N180 1.365 . S
N181 H201 0.862 . S
C182 C177 1.501 . S
C182 H183 0.961 . S
C182 H184 0.961 . S
C182 H185 0.960 . S
H183 C182 0.961 . S
H184 C182 0.961 . S
H185 C182 0.960 . S
C186 N187 1.342 . S
C186 C190 1.401 . S
C186 C191 1.499 . S
N187 Co170 1.989 . S
N187 C186 1.342 . S
N187 N188 1.388 . S
N188 Co171 1.993 . S
N188 N187 1.388 . S
N188 C189 1.346 . S
C189 N188 1.346 . S
C189 C190 1.396 . S
C189 C199 1.510 . S
C190 C186 1.401 . S
C190 C189 1.396 . S
C191 C186 1.499 . S
C191 H192 0.959 . S
C191 H193 0.960 . S
C191 H194 0.961 . S
H192 C191 0.959 . S
H193 C191 0.960 . S
H194 C191 0.961 . S
O195 Co170 1.967 . S
O195 C203 1.258 . S
O196 Co171 1.941 . S
O196 C203 1.266 . S
H197 C199 0.959 . S
H198 C199 0.961 . S
C199 C189 1.510 . S
C199 H197 0.959 . S
C199 H198 0.961 . S
C199 H200 0.960 . S
H200 C199 0.960 . S
H201 N181 0.862 . S
O202 Co170 1.920 . S
O202 C175 1.289 . S
C203 O195 1.258 . S
C203 O196 1.266 . S
Co204 O207 1.970 . S
Co204 N221 1.989 . S
Co204 O229 1.967 . S
Co204 O236 1.920 . S
Co205 O208 1.966 . S
Co205 N214 2.022 . S
Co205 N222 1.993 . S
Co205 O230 1.941 . S
C206 O207 1.258 . S
C206 O208 1.263 . S
O207 Co204 1.970 . S
O207 C206 1.258 . S
O208 Co205 1.966 . S
O208 C206 1.263 . S
C209 O210 1.235 . S
C209 O236 1.289 . S
O210 C209 1.235 . S
C211 C213 1.400 . S
C211 N214 1.351 . S
C211 C216 1.501 . S
C212 C213 1.387 . S
C212 N215 1.341 . S
C213 C211 1.400 . S
C213 C212 1.387 . S
N214 Co205 2.022 . S
N214 C211 1.351 . S
N214 N215 1.365 . S
N215 C212 1.341 . S
N215 N214 1.365 . S
N215 H235 0.862 . S
C216 C211 1.501 . S
C216 H217 0.961 . S
C216 H218 0.961 . S
C216 H219 0.960 . S
H217 C216 0.961 . S
H218 C216 0.961 . S
H219 C216 0.960 . S
C220 N221 1.342 . S
C220 C224 1.401 . S
C220 C225 1.499 . S
N221 Co204 1.989 . S
N221 C220 1.342 . S
N221 N222 1.388 . S
N222 Co205 1.993 . S
N222 N221 1.388 . S
N222 C223 1.346 . S
C223 N222 1.346 . S
C223 C224 1.396 . S
C223 C233 1.510 . S
C224 C220 1.401 . S
C224 C223 1.396 . S
C225 C220 1.499 . S
C225 H226 0.959 . S
C225 H227 0.960 . S
C225 H228 0.961 1_556 S
H226 C225 0.959 . S
H227 C225 0.960 . S
H228 C225 0.961 1_554 S
O229 Co204 1.967 . S
O229 C237 1.258 . S
O230 Co205 1.941 . S
O230 C237 1.266 . S
H231 C233 0.959 . S
H232 C233 0.961 . S
C233 C223 1.510 . S
C233 H231 0.959 . S
C233 H232 0.961 . S
C233 H234 0.960 . S
H234 C233 0.960 . S
H235 N215 0.862 . S
O236 Co204 1.920 . S
O236 C209 1.289 . S
C237 O229 1.258 . S
C237 O230 1.266 . S
Co238 O241 1.970 1_554 S
Co238 N255 1.989 . S
Co238 O263 1.967 . S
Co238 O270 1.920 . S
Co239 O242 1.966 . S
Co239 N248 2.022 . S
Co239 N256 1.993 1_556 S
Co239 O264 1.941 1_556 S
C240 O241 1.258 . S
C240 O242 1.263 . S
O241 Co238 1.970 1_556 S
O241 C240 1.258 . S
O242 Co239 1.966 . S
O242 C240 1.263 . S
C243 O244 1.235 . S
C243 O270 1.289 . S
O244 C243 1.235 . S
C245 C247 1.400 . S
C245 N248 1.351 . S
C245 C250 1.501 . S
C246 C247 1.387 . S
C246 N249 1.341 . S
C247 C245 1.400 . S
C247 C246 1.387 . S
N248 Co239 2.022 . S
N248 C245 1.351 . S
N248 N249 1.365 . S
N249 C246 1.341 . S
N249 N248 1.365 . S
N249 H269 0.862 . S
C250 C245 1.501 . S
C250 H251 0.961 . S
C250 H252 0.961 . S
C250 H253 0.960 . S
H251 C250 0.961 . S
H252 C250 0.961 . S
H253 C250 0.960 . S
C254 N255 1.342 . S
C254 C258 1.401 . S
C254 C259 1.499 . S
N255 Co238 1.989 . S
N255 C254 1.342 . S
N255 N256 1.388 . S
N256 Co239 1.993 1_554 S
N256 N255 1.388 . S
N256 C257 1.346 . S
C257 N256 1.346 . S
C257 C258 1.396 . S
C257 C267 1.510 1_554 S
C258 C254 1.401 . S
C258 C257 1.396 . S
C259 C254 1.499 . S
C259 H260 0.959 . S
C259 H261 0.960 . S
C259 H262 0.961 . S
H260 C259 0.959 . S
H261 C259 0.960 . S
H262 C259 0.961 . S
O263 Co238 1.967 . S
O263 C271 1.258 . S
O264 Co239 1.941 1_554 S
O264 C271 1.266 . S
H265 C267 0.959 . S
H266 C267 0.961 . S
C267 C257 1.510 1_556 S
C267 H265 0.959 . S
C267 H266 0.961 . S
C267 H268 0.960 . S
H268 C267 0.960 . S
H269 N249 0.862 . S
O270 Co238 1.920 . S
O270 C243 1.289 . S
C271 O263 1.258 . S
C271 O264 1.266 . S
Co272 O275 1.970 . S
Co272 N289 1.989 . S
Co272 O297 1.967 . S
Co272 O304 1.920 . S
Co273 O276 1.966 . S
Co273 N282 2.022 . S
Co273 N290 1.993 . S
Co273 O298 1.941 . S
C274 O275 1.258 . S
C274 O276 1.263 . S
O275 Co272 1.970 . S
O275 C274 1.258 . S
O276 Co273 1.966 . S
O276 C274 1.263 . S
C277 O278 1.235 . S
C277 O304 1.289 . S
O278 C277 1.235 . S
C279 C281 1.400 . S
C279 N282 1.351 . S
C279 C284 1.501 . S
C280 C281 1.387 . S
C280 N283 1.341 . S
C281 C279 1.400 . S
C281 C280 1.387 . S
N282 Co273 2.022 . S
N282 C279 1.351 . S
N282 N283 1.365 . S
N283 C280 1.341 . S
N283 N282 1.365 . S
N283 H303 0.862 . S
C284 C279 1.501 . S
C284 H285 0.961 . S
C284 H286 0.961 . S
C284 H287 0.960 . S
H285 C284 0.961 . S
H286 C284 0.961 . S
H287 C284 0.960 . S
C288 N289 1.342 . S
C288 C292 1.401 . S
C288 C293 1.499 . S
N289 Co272 1.989 . S
N289 C288 1.342 . S
N289 N290 1.388 . S
N290 Co273 1.993 . S
N290 N289 1.388 . S
N290 C291 1.346 . S
C291 N290 1.346 . S
C291 C292 1.396 . S
C291 C301 1.510 . S
C292 C288 1.401 . S
C292 C291 1.396 . S
C293 C288 1.499 . S
C293 H294 0.959 . S
C293 H295 0.960 . S
C293 H296 0.961 . S
H294 C293 0.959 . S
H295 C293 0.960 . S
H296 C293 0.961 . S
O297 Co272 1.967 . S
O297 C305 1.258 . S
O298 Co273 1.941 . S
O298 C305 1.266 . S
H299 C301 0.959 . S
H300 C301 0.961 . S
C301 C291 1.510 . S
C301 H299 0.959 . S
C301 H300 0.961 . S
C301 H302 0.960 . S
H302 C301 0.960 . S
H303 N283 0.862 . S
O304 Co272 1.920 . S
O304 C277 1.289 . S
C305 O297 1.258 . S
C305 O298 1.266 . S
Co306 O309 1.970 . S
Co306 N323 1.989 . S
Co306 O331 1.967 . S
Co306 O338 1.920 . S
Co307 O310 1.966 . S
Co307 N316 2.022 . S
Co307 N324 1.993 . S
Co307 O332 1.941 . S
C308 O309 1.258 . S
C308 O310 1.263 . S
O309 Co306 1.970 . S
O309 C308 1.258 . S
O310 Co307 1.966 . S
O310 C308 1.263 . S
C311 O312 1.235 . S
C311 O338 1.289 . S
O312 C311 1.235 . S
C313 C315 1.400 . S
C313 N316 1.351 . S
C313 C318 1.501 . S
C314 C315 1.387 . S
C314 N317 1.341 . S
C315 C313 1.400 . S
C315 C314 1.387 . S
N316 Co307 2.022 . S
N316 C313 1.351 . S
N316 N317 1.365 . S
N317 C314 1.341 . S
N317 N316 1.365 . S
N317 H337 0.862 . S
C318 C313 1.501 . S
C318 H319 0.961 . S
C318 H320 0.961 . S
C318 H321 0.960 . S
H319 C318 0.961 . S
H320 C318 0.961 . S
H321 C318 0.960 . S
C322 N323 1.342 . S
C322 C326 1.401 . S
C322 C327 1.499 . S
N323 Co306 1.989 . S
N323 C322 1.342 . S
N323 N324 1.388 . S
N324 Co307 1.993 . S
N324 N323 1.388 . S
N324 C325 1.346 . S
C325 N324 1.346 . S
C325 C326 1.396 . S
C325 C335 1.510 . S
C326 C322 1.401 . S
C326 C325 1.396 . S
C327 C322 1.499 . S
C327 H328 0.959 . S
C327 H329 0.960 . S
C327 H330 0.961 . S
H328 C327 0.959 . S
H329 C327 0.960 . S
H330 C327 0.961 . S
O331 Co306 1.967 . S
O331 C339 1.258 . S
O332 Co307 1.941 . S
O332 C339 1.266 . S
H333 C335 0.959 . S
H334 C335 0.961 . S
C335 C325 1.510 . S
C335 H333 0.959 . S
C335 H334 0.961 . S
C335 H336 0.960 . S
H336 C335 0.960 . S
H337 N317 0.862 . S
O338 Co306 1.920 . S
O338 C311 1.289 . S
C339 O331 1.258 . S
C339 O332 1.266 . S
Co340 O343 1.970 . S
Co340 N357 1.989 . S
Co340 O365 1.967 . S
Co340 O372 1.920 . S
Co341 O344 1.966 . S
Co341 N350 2.022 . S
Co341 N358 1.993 . S
Co341 O366 1.941 . S
C342 O343 1.258 . S
C342 O344 1.263 . S
O343 Co340 1.970 . S
O343 C342 1.258 . S
O344 Co341 1.966 . S
O344 C342 1.263 . S
C345 O346 1.235 . S
C345 O372 1.289 . S
O346 C345 1.235 . S
C347 C349 1.400 . S
C347 N350 1.351 . S
C347 C352 1.501 . S
C348 C349 1.387 . S
C348 N351 1.341 . S
C349 C347 1.400 . S
C349 C348 1.387 . S
N350 Co341 2.022 . S
N350 C347 1.351 . S
N350 N351 1.365 . S
N351 C348 1.341 . S
N351 N350 1.365 . S
N351 H371 0.862 . S
C352 C347 1.501 . S
C352 H353 0.961 . S
C352 H354 0.961 . S
C352 H355 0.960 . S
H353 C352 0.961 . S
H354 C352 0.961 . S
H355 C352 0.960 . S
C356 N357 1.342 . S
C356 C360 1.401 . S
C356 C361 1.499 . S
N357 Co340 1.989 . S
N357 C356 1.342 . S
N357 N358 1.388 . S
N358 Co341 1.993 . S
N358 N357 1.388 . S
N358 C359 1.346 . S
C359 N358 1.346 . S
C359 C360 1.396 . S
C359 C369 1.510 . S
C360 C356 1.401 . S
C360 C359 1.396 . S
C361 C356 1.499 . S
C361 H362 0.959 . S
C361 H363 0.960 . S
C361 H364 0.961 . S
H362 C361 0.959 . S
H363 C361 0.960 . S
H364 C361 0.961 . S
O365 Co340 1.967 . S
O365 C373 1.258 . S
O366 Co341 1.941 . S
O366 C373 1.266 . S
H367 C369 0.959 . S
H368 C369 0.961 . S
C369 C359 1.510 . S
C369 H367 0.959 . S
C369 H368 0.961 . S
C369 H370 0.960 . S
H370 C369 0.960 . S
H371 N351 0.862 . S
O372 Co340 1.920 . S
O372 C345 1.289 . S
C373 O365 1.258 . S
C373 O366 1.266 . S
Co374 O377 1.970 . S
Co374 N391 1.989 . S
Co374 O399 1.967 . S
Co374 O406 1.920 . S
Co375 O378 1.966 . S
Co375 N384 2.022 . S
Co375 N392 1.993 . S
Co375 O400 1.941 . S
C376 O377 1.258 . S
C376 O378 1.263 . S
O377 Co374 1.970 . S
O377 C376 1.258 . S
O378 Co375 1.966 . S
O378 C376 1.263 . S
C379 O380 1.235 . S
C379 O406 1.289 . S
O380 C379 1.235 . S
C381 C383 1.400 . S
C381 N384 1.351 . S
C381 C386 1.501 . S
C382 C383 1.387 . S
C382 N385 1.341 . S
C383 C381 1.400 . S
C383 C382 1.387 . S
N384 Co375 2.022 . S
N384 C381 1.351 . S
N384 N385 1.365 . S
N385 C382 1.341 . S
N385 N384 1.365 . S
N385 H405 0.862 . S
C386 C381 1.501 . S
C386 H387 0.961 . S
C386 H388 0.961 . S
C386 H389 0.960 . S
H387 C386 0.961 . S
H388 C386 0.961 . S
H389 C386 0.960 . S
C390 N391 1.342 . S
C390 C394 1.401 . S
C390 C395 1.499 . S
N391 Co374 1.989 . S
N391 C390 1.342 . S
N391 N392 1.388 . S
N392 Co375 1.993 . S
N392 N391 1.388 . S
N392 C393 1.346 . S
C393 N392 1.346 . S
C393 C394 1.396 . S
C393 C403 1.510 . S
C394 C390 1.401 . S
C394 C393 1.396 . S
C395 C390 1.499 . S
C395 H396 0.959 . S
C395 H397 0.960 . S
C395 H398 0.961 . S
H396 C395 0.959 . S
H397 C395 0.960 . S
H398 C395 0.961 . S
O399 Co374 1.967 . S
O399 C407 1.258 . S
O400 Co375 1.941 . S
O400 C407 1.266 . S
H401 C403 0.959 . S
H402 C403 0.961 . S
C403 C393 1.510 . S
C403 H401 0.959 . S
C403 H402 0.961 . S
C403 H404 0.960 . S
H404 C403 0.960 . S
H405 N385 0.862 . S
O406 Co374 1.920 . S
O406 C379 1.289 . S
C407 O399 1.258 . S
C407 O400 1.266 . S
H408 C416 0.950 . S
H409 C421 0.950 . S
H410 C418 0.950 . S
H411 C420 0.950 . S
H412 C422 0.950 . S
H413 C424 0.950 . S
H414 C426 0.950 . S
H415 C427 0.950 . S
C416 H408 0.950 . S
C416 C417 1.386 . S
C416 C418 1.391 . S
C417 C416 1.386 . S
C417 C421 1.393 . S
C418 H410 0.950 . S
C418 C416 1.391 . S
C418 C419 1.400 . S
C419 C418 1.400 . S
C419 C420 1.398 . S
C419 C425 1.491 . S
C420 H411 0.950 . S
C420 C419 1.398 . S
C420 C421 1.391 . S
C421 H409 0.950 . S
C421 C417 1.393 . S
C421 C420 1.391 . S
C422 H412 0.950 . S
C422 C423 1.386 . S
C422 C424 1.391 . S
C423 C422 1.386 . S
C423 C427 1.393 . S
C424 H413 0.950 . S
C424 C422 1.391 . S
C424 C425 1.400 . S
C425 C419 1.491 . S
C425 C424 1.400 . S
C425 C426 1.398 . S
C426 H414 0.950 . S
C426 C425 1.398 . S
C426 C427 1.391 . S
C427 H415 0.950 . S
C427 C423 1.393 . S
C427 C426 1.391 . S
H428 C436 0.950 . S
H429 C441 0.950 . S
H430 C438 0.950 . S
H431 C440 0.950 . S
H432 C442 0.950 . S
H433 C444 0.950 . S
H434 C446 0.950 . S
H435 C447 0.950 . S
C436 H428 0.950 . S
C436 C437 1.386 . S
C436 C438 1.391 . S
C437 C436 1.386 . S
C437 C441 1.393 . S
C438 H430 0.950 . S
C438 C436 1.391 . S
C438 C439 1.400 . S
C439 C438 1.400 . S
C439 C440 1.398 . S
C439 C445 1.491 . S
C440 H431 0.950 . S
C440 C439 1.398 . S
C440 C441 1.391 . S
C441 H429 0.950 . S
C441 C437 1.393 . S
C441 C440 1.391 . S
C442 H432 0.950 . S
C442 C443 1.386 . S
C442 C444 1.391 . S
C443 C442 1.386 . S
C443 C447 1.393 . S
C444 H433 0.950 . S
C444 C442 1.391 . S
C444 C445 1.400 . S
C445 C439 1.491 . S
C445 C444 1.400 . S
C445 C446 1.398 . S
C446 H434 0.950 . S
C446 C445 1.398 . S
C446 C447 1.391 . S
C447 H435 0.950 . S
C447 C443 1.393 . S
C447 C446 1.391 . S
H448 C456 0.950 . S
H449 C461 0.950 . S
H450 C458 0.950 . S
H451 C460 0.950 . S
H452 C462 0.950 . S
H453 C464 0.950 . S
H454 C466 0.950 . S
H455 C467 0.950 . S
C456 H448 0.950 . S
C456 C457 1.386 . S
C456 C458 1.391 . S
C457 C456 1.386 . S
C457 C461 1.393 . S
C458 H450 0.950 . S
C458 C456 1.391 . S
C458 C459 1.400 . S
C459 C458 1.400 . S
C459 C460 1.398 . S
C459 C465 1.491 . S
C460 H451 0.950 . S
C460 C459 1.398 . S
C460 C461 1.391 . S
C461 H449 0.950 . S
C461 C457 1.393 . S
C461 C460 1.391 . S
C462 H452 0.950 . S
C462 C463 1.386 . S
C462 C464 1.391 . S
C463 C462 1.386 . S
C463 C467 1.393 . S
C464 H453 0.950 . S
C464 C462 1.391 . S
C464 C465 1.400 . S
C465 C459 1.491 . S
C465 C464 1.400 . S
C465 C466 1.398 . S
C466 H454 0.950 . S
C466 C465 1.398 . S
C466 C467 1.391 . S
C467 H455 0.950 . S
C467 C463 1.393 . S
C467 C466 1.391 . S
H468 C476 0.950 . S
H469 C481 0.950 . S
H470 C478 0.950 . S
H471 C480 0.950 . S
H472 C482 0.950 . S
H473 C484 0.950 . S
H474 C486 0.950 . S
H475 C487 0.950 . S
C476 H468 0.950 . S
C476 C477 1.386 . S
C476 C478 1.391 . S
C477 C476 1.386 . S
C477 C481 1.393 . S
C478 H470 0.950 . S
C478 C476 1.391 . S
C478 C479 1.400 . S
C479 C478 1.400 . S
C479 C480 1.398 . S
C479 C485 1.491 . S
C480 H471 0.950 . S
C480 C479 1.398 . S
C480 C481 1.391 . S
C481 H469 0.950 . S
C481 C477 1.393 . S
C481 C480 1.391 . S
C482 H472 0.950 . S
C482 C483 1.386 . S
C482 C484 1.391 . S
C483 C482 1.386 . S
C483 C487 1.393 . S
C484 H473 0.950 . S
C484 C482 1.391 . S
C484 C485 1.400 . S
C485 C479 1.491 . S
C485 C484 1.400 . S
C485 C486 1.398 . S
C486 H474 0.950 . S
C486 C485 1.398 . S
C486 C487 1.391 . S
C487 H475 0.950 . S
C487 C483 1.393 . S
C487 C486 1.391 . S
H488 C496 0.950 . S
H489 C501 0.950 . S
H490 C498 0.950 . S
H491 C500 0.950 . S
H492 C502 0.950 . S
H493 C504 0.950 . S
H494 C506 0.950 . S
H495 C507 0.944 1_554 S
C496 H488 0.950 . S
C496 C497 1.386 . S
C496 C498 1.391 . S
C497 C496 1.386 . S
C497 C501 1.393 . S
C498 H490 0.950 . S
C498 C496 1.391 . S
C498 C499 1.400 . S
C499 C498 1.400 . S
C499 C500 1.398 . S
C499 C505 1.491 . S
C500 H491 0.950 . S
C500 C499 1.398 . S
C500 C501 1.391 . S
C501 H489 0.950 . S
C501 C497 1.393 . S
C501 C500 1.391 . S
C502 H492 0.950 . S
C502 C503 1.386 . S
C502 C504 1.391 1_554 S
C503 C502 1.386 . S
C503 C507 1.393 1_554 S
C504 H493 0.950 . S
C504 C502 1.391 1_556 S
C504 C505 1.400 . S
C505 C499 1.491 . S
C505 C504 1.400 . S
C505 C506 1.398 . S
C506 H494 0.950 . S
C506 C505 1.398 . S
C506 C507 1.391 . S
C507 H495 0.944 1_556 S
C507 C503 1.393 1_556 S
C507 C506 1.391 . S
H508 C516 0.950 1_556 S
H509 C521 0.950 . S
H510 C518 0.950 . S
H511 C520 0.950 . S
H512 C522 0.950 . S
H513 C524 0.950 . S
H514 C526 0.950 . S
H515 C527 0.950 . S
C516 H508 0.950 1_554 S
C516 C517 1.386 1_554 S
C516 C518 1.391 . S
C517 C516 1.386 1_556 S
C517 C521 1.393 . S
C518 H510 0.950 . S
C518 C516 1.391 . S
C518 C519 1.400 . S
C519 C518 1.400 . S
C519 C520 1.398 . S
C519 C525 1.491 . S
C520 H511 0.950 . S
C520 C519 1.398 . S
C520 C521 1.391 1_554 S
C521 H509 0.950 . S
C521 C517 1.393 . S
C521 C520 1.391 1_556 S
C522 H512 0.950 . S
C522 C523 1.386 . S
C522 C524 1.391 . S
C523 C522 1.386 . S
C523 C527 1.393 . S
C524 H513 0.950 . S
C524 C522 1.391 . S
C524 C525 1.400 . S
C525 C519 1.491 . S
C525 C524 1.400 . S
C525 C526 1.398 . S
C526 H514 0.950 . S
C526 C525 1.398 . S
C526 C527 1.391 . S
C527 H515 0.950 . S
C527 C523 1.393 . S
C527 C526 1.391 . S
H528 C536 0.950 . S
H529 C541 0.950 . S
H530 C538 0.950 . S
H531 C540 0.950 . S
H532 C542 0.950 . S
H533 C544 0.950 . S
H534 C546 0.950 . S
H535 C547 0.950 . S
C536 H528 0.950 . S
C536 C537 1.386 . S
C536 C538 1.391 . S
C537 C536 1.386 . S
C537 C541 1.393 . S
C538 H530 0.950 . S
C538 C536 1.391 . S
C538 C539 1.400 . S
C539 C538 1.400 . S
C539 C540 1.398 . S
C539 C545 1.491 . S
C540 H531 0.950 . S
C540 C539 1.398 . S
C540 C541 1.391 . S
C541 H529 0.950 . S
C541 C537 1.393 . S
C541 C540 1.391 . S
C542 H532 0.950 . S
C542 C543 1.386 . S
C542 C544 1.391 . S
C543 C542 1.386 . S
C543 C547 1.393 . S
C544 H533 0.950 . S
C544 C542 1.391 . S
C544 C545 1.400 . S
C545 C539 1.491 . S
C545 C544 1.400 . S
C545 C546 1.398 . S
C546 H534 0.950 . S
C546 C545 1.398 . S
C546 C547 1.391 . S
C547 H535 0.950 . S
C547 C543 1.393 . S
C547 C546 1.391 . S
H548 C556 0.950 . S
H549 C561 0.950 . S
H550 C558 0.950 . S
H551 C560 0.950 . S
H552 C562 0.950 . S
H553 C564 0.950 . S
H554 C566 0.950 . S
H555 C567 0.950 1_655 S
C556 H548 0.950 . S
C556 C557 1.386 . S
C556 C558 1.391 . S
C557 C556 1.386 . S
C557 C561 1.393 . S
C558 H550 0.950 . S
C558 C556 1.391 . S
C558 C559 1.400 . S
C559 C558 1.400 . S
C559 C560 1.398 . S
C559 C565 1.491 . S
C560 H551 0.950 . S
C560 C559 1.398 . S
C560 C561 1.391 . S
C561 H549 0.950 . S
C561 C557 1.393 . S
C561 C560 1.391 . S
C562 H552 0.950 . S
C562 C563 1.386 . S
C562 C564 1.391 . S
C563 C562 1.386 . S
C563 C567 1.393 . S
C564 H553 0.950 . S
C564 C562 1.391 . S
C564 C565 1.400 . S
C565 C559 1.491 . S
C565 C564 1.400 . S
C565 C566 1.398 . S
C566 H554 0.950 . S
C566 C565 1.398 . S
C566 C567 1.391 . S
C567 H555 0.950 1_455 S
C567 C563 1.393 . S
C567 C566 1.391 . S
H568 C576 0.950 . S
H569 C581 0.950 . S
H570 C578 0.950 . S
H571 C580 0.950 . S
H572 C582 0.950 . S
H573 C584 0.950 . S
H574 C586 0.950 . S
H575 C587 0.950 1_565 S
C576 H568 0.950 . S
C576 C577 1.386 . S
C576 C578 1.391 . S
C577 C576 1.386 . S
C577 C581 1.393 . S
C578 H570 0.950 . S
C578 C576 1.391 . S
C578 C579 1.400 . S
C579 C578 1.400 . S
C579 C580 1.398 . S
C579 C585 1.491 . S
C580 H571 0.950 . S
C580 C579 1.398 . S
C580 C581 1.391 . S
C581 H569 0.950 . S
C581 C577 1.393 . S
C581 C580 1.391 . S
C582 H572 0.950 . S
C582 C583 1.386 1_545 S
C582 C584 1.391 . S
C583 C582 1.386 1_565 S
C583 C587 1.393 1_565 S
C584 H573 0.950 . S
C584 C582 1.391 . S
C584 C585 1.400 . S
C585 C579 1.491 . S
C585 C584 1.400 . S
C585 C586 1.398 . S
C586 H574 0.950 . S
C586 C585 1.398 . S
C586 C587 1.391 . S
C587 H575 0.950 1_545 S
C587 C583 1.393 1_545 S
C587 C586 1.391 . S
H588 C596 0.950 . S
H589 C601 0.950 . S
H590 C598 0.950 . S
H591 C600 0.950 . S
H592 C602 0.950 . S
H593 C604 0.950 . S
H594 C606 0.950 . S
H595 C607 0.950 . S
C596 H588 0.950 . S
C596 C597 1.386 . S
C596 C598 1.391 . S
C597 C596 1.386 . S
C597 C601 1.393 . S
C598 H590 0.950 . S
C598 C596 1.391 . S
C598 C599 1.400 . S
C599 C598 1.400 . S
C599 C600 1.398 . S
C599 C605 1.491 . S
C600 H591 0.950 . S
C600 C599 1.398 . S
C600 C601 1.391 . S
C601 H589 0.950 . S
C601 C597 1.393 . S
C601 C600 1.391 . S
C602 H592 0.950 . S
C602 C603 1.386 . S
C602 C604 1.391 . S
C603 C602 1.386 . S
C603 C607 1.393 . S
C604 H593 0.950 . S
C604 C602 1.391 . S
C604 C605 1.400 . S
C605 C599 1.491 . S
C605 C604 1.400 . S
C605 C606 1.398 . S
C606 H594 0.950 . S
C606 C605 1.398 . S
C606 C607 1.391 . S
C607 H595 0.950 . S
C607 C603 1.393 . S
C607 C606 1.391 . S
H608 C616 0.950 . S
H609 C621 0.950 1_455 S
H610 C618 0.950 . S
H611 C620 0.950 . S
H612 C622 0.950 . S
H613 C624 0.950 . S
H614 C626 0.950 . S
H615 C627 0.950 . S
C616 H608 0.950 . S
C616 C617 1.386 1_655 S
C616 C618 1.391 . S
C617 C616 1.386 1_455 S
C617 C621 1.393 1_455 S
C618 H610 0.950 . S
C618 C616 1.391 . S
C618 C619 1.400 . S
C619 C618 1.400 . S
C619 C620 1.398 . S
C619 C625 1.491 . S
C620 H611 0.950 . S
C620 C619 1.398 . S
C620 C621 1.391 . S
C621 H609 0.950 1_655 S
C621 C617 1.393 1_655 S
C621 C620 1.391 . S
C622 H612 0.950 . S
C622 C623 1.386 . S
C622 C624 1.391 . S
C623 C622 1.386 . S
C623 C627 1.393 . S
C624 H613 0.950 . S
C624 C622 1.391 . S
C624 C625 1.400 . S
C625 C619 1.491 . S
C625 C624 1.400 . S
C625 C626 1.398 . S
C626 H614 0.950 . S
C626 C625 1.398 . S
C626 C627 1.391 . S
C627 H615 0.950 . S
C627 C623 1.393 . S
C627 C626 1.391 . S
H628 C636 0.950 . S
H629 C641 0.950 . S
H630 C638 0.950 . S
H631 C640 0.950 . S
H632 C642 0.950 . S
H633 C644 0.950 . S
H634 C646 0.950 . S
H635 C647 0.950 . S
C636 H628 0.950 . S
C636 C637 1.386 . S
C636 C638 1.391 1_545 S
C637 C636 1.386 . S
C637 C641 1.393 1_545 S
C638 H630 0.950 . S
C638 C636 1.391 1_565 S
C638 C639 1.400 . S
C639 C638 1.400 . S
C639 C640 1.398 . S
C639 C645 1.491 . S
C640 H631 0.950 . S
C640 C639 1.398 . S
C640 C641 1.391 . S
C641 H629 0.950 . S
C641 C637 1.393 1_565 S
C641 C640 1.391 . S
C642 H632 0.950 . S
C642 C643 1.386 . S
C642 C644 1.391 . S
C643 C642 1.386 . S
C643 C647 1.393 . S
C644 H633 0.950 . S
C644 C642 1.391 . S
C644 C645 1.400 . S
C645 C639 1.491 . S
C645 C644 1.400 . S
C645 C646 1.398 . S
C646 H634 0.950 . S
C646 C645 1.398 . S
C646 C647 1.391 . S
C647 H635 0.950 . S
C647 C643 1.393 . S
C647 C646 1.391 . S
H648 C656 0.950 1_556 S
H649 C661 0.950 . S
H650 C658 0.950 1_556 S
H651 C660 0.950 . S
H652 C662 0.950 . S
H653 C664 0.950 . S
H654 C666 0.950 . S
H655 C667 0.950 . S
C656 H648 0.950 1_554 S
C656 C657 1.386 . S
C656 C658 1.391 . S
C657 C656 1.386 . S
C657 C661 1.393 . S
C658 H650 0.950 1_554 S
C658 C656 1.391 . S
C658 C659 1.400 . S
C659 C658 1.400 . S
C659 C660 1.398 . S
C659 C665 1.491 . S
C660 H651 0.950 . S
C660 C659 1.398 . S
C660 C661 1.391 . S
C661 H649 0.950 . S
C661 C657 1.393 . S
C661 C660 1.391 . S
C662 H652 0.950 . S
C662 C663 1.386 . S
C662 C664 1.391 . S
C663 C662 1.386 . S
C663 C667 1.393 1_554 S
C664 H653 0.950 . S
C664 C662 1.391 . S
C664 C665 1.400 . S
C665 C659 1.491 . S
C665 C664 1.400 . S
C665 C666 1.398 1_554 S
C666 H654 0.950 . S
C666 C665 1.398 1_556 S
C666 C667 1.391 . S
C667 H655 0.950 . S
C667 C663 1.393 1_556 S
C667 C666 1.391 . S
H668 C676 0.950 1_655 S
H669 C681 0.950 . S
H670 C678 0.950 . S
H671 C680 0.950 . S
H672 C682 0.950 . S
H673 C684 0.950 . S
H674 C686 0.950 . S
H675 C687 0.950 . S
C676 H668 0.950 1_455 S
C676 C677 1.395 1_455 S
C676 C678 1.391 . S
C677 C676 1.395 1_655 S
C677 C681 1.362 1_655 S
C678 H670 0.950 . S
C678 C676 1.391 . S
C678 C679 1.400 . S
C679 C678 1.400 . S
C679 C680 1.398 . S
C679 C685 1.491 . S
C680 H671 0.950 . S
C680 C679 1.398 . S
C680 C681 1.391 . S
C681 H669 0.950 . S
C681 C677 1.362 1_455 S
C681 C680 1.391 . S
C682 H672 0.950 . S
C682 C683 1.386 . S
C682 C684 1.391 . S
C683 C682 1.386 . S
C683 C687 1.393 . S
C684 H673 0.950 . S
C684 C682 1.391 . S
C684 C685 1.400 . S
C685 C679 1.491 . S
C685 C684 1.400 . S
C685 C686 1.398 . S
C686 H674 0.950 . S
C686 C685 1.398 . S
C686 C687 1.391 . S
C687 H675 0.950 . S
C687 C683 1.393 . S
C687 C686 1.391 . S
H688 C696 0.950 . S
H689 C701 0.950 1_565 S
H690 C698 0.950 . S
H691 C700 0.950 . S
H692 C702 0.950 . S
H693 C704 0.950 . S
H694 C706 0.950 . S
H695 C707 0.950 . S
C696 H688 0.950 . S
C696 C697 1.386 1_545 S
C696 C698 1.391 . S
C697 C696 1.386 1_565 S
C697 C701 1.393 1_565 S
C698 H690 0.950 . S
C698 C696 1.391 . S
C698 C699 1.400 . S
C699 C698 1.400 . S
C699 C700 1.398 . S
C699 C705 1.491 . S
C700 H691 0.950 . S
C700 C699 1.398 . S
C700 C701 1.391 . S
C701 H689 0.950 1_545 S
C701 C697 1.393 1_545 S
C701 C700 1.391 . S
C702 H692 0.950 . S
C702 C703 1.386 . S
C702 C704 1.391 . S
C703 C702 1.386 . S
C703 C707 1.393 . S
C704 H693 0.950 . S
C704 C702 1.391 . S
C704 C705 1.400 . S
C705 C699 1.491 . S
C705 C704 1.400 . S
C705 C706 1.398 . S
C706 H694 0.950 . S
C706 C705 1.398 . S
C706 C707 1.391 . S
C707 H695 0.950 . S
C707 C703 1.393 . S
C707 C706 1.391 . S
H708 C716 0.950 . S
H709 C721 0.950 . S
H710 C718 0.950 . S
H711 C720 0.950 . S
H712 C722 0.950 . S
H713 C724 0.950 . S
H714 C726 0.950 . S
H715 C727 0.950 . S
C716 H708 0.950 . S
C716 C717 1.386 . S
C716 C718 1.391 . S
C717 C716 1.386 . S
C717 C721 1.393 . S
C718 H710 0.950 . S
C718 C716 1.391 . S
C718 C719 1.400 . S
C719 C718 1.400 . S
C719 C720 1.398 . S
C719 C725 1.491 . S
C720 H711 0.950 . S
C720 C719 1.398 . S
C720 C721 1.391 . S
C721 H709 0.950 . S
C721 C717 1.393 . S
C721 C720 1.391 . S
C722 H712 0.950 . S
C722 C723 1.386 . S
C722 C724 1.391 . S
C723 C722 1.386 . S
C723 C727 1.393 . S
C724 H713 0.950 . S
C724 C722 1.391 . S
C724 C725 1.400 . S
C725 C719 1.491 . S
C725 C724 1.400 . S
C725 C726 1.398 . S
C726 H714 0.950 . S
C726 C725 1.398 . S
C726 C727 1.391 . S
C727 H715 0.950 . S
C727 C723 1.393 . S
C727 C726 1.391 . S
H728 C736 0.950 1_455 S
H729 C741 0.950 . S
H730 C738 0.950 . S
H731 C740 0.950 . S
H732 C742 0.950 . S
H733 C744 0.950 . S
H734 C746 0.950 . S
H735 C747 0.950 . S
C736 H728 0.950 1_655 S
C736 C737 1.386 . S
C736 C738 1.391 . S
C737 C736 1.386 . S
C737 C741 1.393 . S
C738 H730 0.950 . S
C738 C736 1.391 . S
C738 C739 1.400 . S
C739 C738 1.400 . S
C739 C740 1.398 . S
C739 C745 1.491 . S
C740 H731 0.950 . S
C740 C739 1.398 . S
C740 C741 1.391 . S
C741 H729 0.950 . S
C741 C737 1.393 . S
C741 C740 1.391 . S
C742 H732 0.950 . S
C742 C743 1.386 . S
C742 C744 1.391 . S
C743 C742 1.386 . S
C743 C747 1.393 . S
C744 H733 0.950 . S
C744 C742 1.391 . S
C744 C745 1.400 . S
C745 C739 1.491 . S
C745 C744 1.400 . S
C745 C746 1.398 . S
C746 H734 0.950 . S
C746 C745 1.398 . S
C746 C747 1.391 . S
C747 H735 0.950 . S
C747 C743 1.393 . S
C747 C746 1.391 . S
H748 C756 0.950 . S
H749 C761 0.950 1_545 S
H750 C758 0.950 . S
H751 C760 0.950 . S
H752 C762 0.950 . S
H753 C764 0.950 . S
H754 C766 0.950 . S
H755 C767 0.950 . S
C756 H748 0.950 . S
C756 C757 1.386 1_565 S
C756 C758 1.391 . S
C757 C756 1.386 1_545 S
C757 C761 1.393 1_545 S
C758 H750 0.950 . S
C758 C756 1.391 . S
C758 C759 1.400 . S
C759 C758 1.400 . S
C759 C760 1.398 . S
C759 C765 1.491 . S
C760 H751 0.950 . S
C760 C759 1.398 . S
C760 C761 1.391 . S
C761 H749 0.950 1_565 S
C761 C757 1.393 1_565 S
C761 C760 1.391 . S
C762 H752 0.950 . S
C762 C763 1.386 . S
C762 C764 1.391 . S
C763 C762 1.386 . S
C763 C767 1.393 . S
C764 H753 0.950 . S
C764 C762 1.391 . S
C764 C765 1.400 . S
C765 C759 1.491 . S
C765 C764 1.400 . S
C765 C766 1.398 . S
C766 H754 0.950 . S
C766 C765 1.398 . S
C766 C767 1.391 . S
C767 H755 0.950 . S
C767 C763 1.393 . S
C767 C766 1.391 . S
H768 C776 0.950 . S
H769 C781 0.950 . S
H770 C778 0.950 . S
H771 C780 0.950 . S
H772 C782 0.950 . S
H773 C784 0.950 . S
H774 C786 0.950 . S
H775 C787 0.950 . S
C776 H768 0.950 . S
C776 C777 1.386 . S
C776 C778 1.391 . S
C777 C776 1.386 . S
C777 C781 1.393 . S
C778 H770 0.950 . S
C778 C776 1.391 . S
C778 C779 1.400 . S
C779 C778 1.400 . S
C779 C780 1.398 . S
C779 C785 1.491 . S
C780 H771 0.950 . S
C780 C779 1.398 . S
C780 C781 1.391 . S
C781 H769 0.950 . S
C781 C777 1.393 . S
C781 C780 1.391 . S
C782 H772 0.950 . S
C782 C783 1.386 . S
C782 C784 1.391 . S
C783 C782 1.386 . S
C783 C787 1.393 . S
C784 H773 0.950 . S
C784 C782 1.391 . S
C784 C785 1.400 . S
C785 C779 1.491 . S
C785 C784 1.400 . S
C785 C786 1.398 . S
C786 H774 0.950 . S
C786 C785 1.398 . S
C786 C787 1.391 . S
C787 H775 0.950 . S
C787 C783 1.393 . S
C787 C786 1.391 . S
H788 C796 0.950 . S
H789 C801 0.950 . S
H790 C798 0.950 1_455 S
H791 C800 0.950 . S
H792 C802 0.950 . S
H793 C804 0.950 1_655 S
H794 C806 0.950 . S
H795 C807 0.950 . S
C796 H788 0.950 . S
C796 C797 1.386 . S
C796 C798 1.391 . S
C797 C796 1.386 . S
C797 C801 1.393 . S
C798 H790 0.950 1_655 S
C798 C796 1.391 . S
C798 C799 1.400 . S
C799 C798 1.400 . S
C799 C800 1.398 . S
C799 C805 1.491 1_655 S
C800 H791 0.950 . S
C800 C799 1.398 . S
C800 C801 1.391 . S
C801 H789 0.950 . S
C801 C797 1.393 . S
C801 C800 1.391 . S
C802 H792 0.950 . S
C802 C803 1.386 . S
C802 C804 1.391 . S
C803 C802 1.386 . S
C803 C807 1.393 . S
C804 H793 0.950 1_455 S
C804 C802 1.391 . S
C804 C805 1.400 . S
C805 C799 1.491 1_455 S
C805 C804 1.400 . S
C805 C806 1.398 . S
C806 H794 0.950 . S
C806 C805 1.398 . S
C806 C807 1.391 . S
C807 H795 0.950 . S
C807 C803 1.393 . S
C807 C806 1.391 . S
H808 C816 0.950 . S
H809 C821 0.950 . S
H810 C818 0.950 . S
H811 C820 0.950 . S
H812 C822 0.950 . S
H813 C824 0.950 . S
H814 C826 0.950 . S
H815 C827 0.950 . S
C816 H808 0.950 . S
C816 C817 1.386 . S
C816 C818 1.391 . S
C817 C816 1.386 . S
C817 C821 1.393 . S
C818 H810 0.950 . S
C818 C816 1.391 . S
C818 C819 1.400 . S
C819 C818 1.400 . S
C819 C820 1.398 . S
C819 C825 1.491 1_565 S
C820 H811 0.950 . S
C820 C819 1.398 . S
C820 C821 1.391 . S
C821 H809 0.950 . S
C821 C817 1.393 . S
C821 C820 1.391 . S
C822 H812 0.950 . S
C822 C823 1.386 . S
C822 C824 1.391 . S
C823 C822 1.386 . S
C823 C827 1.393 . S
C824 H813 0.950 . S
C824 C822 1.391 . S
C824 C825 1.400 . S
C825 C819 1.491 1_545 S
C825 C824 1.400 . S
C825 C826 1.398 . S
C826 H814 0.950 . S
C826 C825 1.398 . S
C826 C827 1.391 . S
C827 H815 0.950 . S
C827 C823 1.393 . S
C827 C826 1.391 . S
H828 C836 0.950 . S
H829 C841 0.950 . S
H830 C838 0.950 . S
H831 C840 0.950 . S
H832 C842 0.950 . S
H833 C844 0.950 . S
H834 C846 0.950 . S
H835 C847 0.950 . S
C836 H828 0.950 . S
C836 C837 1.386 . S
C836 C838 1.391 . S
C837 C836 1.386 . S
C837 C841 1.393 . S
C838 H830 0.950 . S
C838 C836 1.391 . S
C838 C839 1.400 . S
C839 C838 1.400 . S
C839 C840 1.398 . S
C839 C845 1.491 . S
C840 H831 0.950 . S
C840 C839 1.398 . S
C840 C841 1.391 . S
C841 H829 0.950 . S
C841 C837 1.393 . S
C841 C840 1.391 . S
C842 H832 0.950 . S
C842 C843 1.386 . S
C842 C844 1.391 . S
C843 C842 1.386 . S
C843 C847 1.393 . S
C844 H833 0.950 . S
C844 C842 1.391 . S
C844 C845 1.400 . S
C845 C839 1.491 . S
C845 C844 1.400 . S
C845 C846 1.398 . S
C846 H834 0.950 . S
C846 C845 1.398 . S
C846 C847 1.391 . S
C847 H835 0.950 . S
C847 C843 1.393 . S
C847 C846 1.391 . S
H848 C856 0.950 . S
H849 C861 0.950 . S
H850 C858 0.950 . S
H851 C860 0.950 . S
H852 C862 0.950 . S
H853 C864 0.950 . S
H854 C866 0.950 . S
H855 C867 0.950 . S
C856 H848 0.950 . S
C856 C857 1.386 . S
C856 C858 1.391 . S
C857 C856 1.386 . S
C857 C861 1.393 . S
C858 H850 0.950 . S
C858 C856 1.391 . S
C858 C859 1.400 . S
C859 C858 1.400 . S
C859 C860 1.398 . S
C859 C865 1.491 1_455 S
C860 H851 0.950 . S
C860 C859 1.398 . S
C860 C861 1.391 . S
C861 H849 0.950 . S
C861 C857 1.393 . S
C861 C860 1.391 . S
C862 H852 0.950 . S
C862 C863 1.386 . S
C862 C864 1.391 . S
C863 C862 1.386 . S
C863 C867 1.393 . S
C864 H853 0.950 . S
C864 C862 1.391 . S
C864 C865 1.400 . S
C865 C859 1.491 1_655 S
C865 C864 1.400 . S
C865 C866 1.398 . S
C866 H854 0.950 . S
C866 C865 1.398 . S
C866 C867 1.391 . S
C867 H855 0.950 . S
C867 C863 1.393 . S
C867 C866 1.391 . S
H868 C876 0.950 . S
H869 C881 0.950 1_545 S
H870 C878 0.950 1_556 S
H871 C880 0.950 . S
H872 C882 0.950 . S
H873 C884 0.950 1_554 S
H874 C886 0.950 . S
H875 C887 0.950 1_565 S
C876 H868 0.950 . S
C876 C877 1.386 . S
C876 C878 1.391 . S
C877 C876 1.386 . S
C877 C881 1.393 . S
C878 H870 0.950 1_554 S
C878 C876 1.391 . S
C878 C879 1.400 . S
C879 C878 1.400 . S
C879 C880 1.398 1_565 S
C879 C885 1.491 1_564 S
C880 H871 0.950 . S
C880 C879 1.398 1_545 S
C880 C881 1.391 1_545 S
C881 H869 0.950 1_565 S
C881 C877 1.393 . S
C881 C880 1.391 1_565 S
C882 H872 0.950 . S
C882 C883 1.386 . S
C882 C884 1.391 . S
C883 C882 1.386 . S
C883 C887 1.393 . S
C884 H873 0.950 1_556 S
C884 C882 1.391 . S
C884 C885 1.400 . S
C885 C879 1.491 1_546 S
C885 C884 1.400 . S
C885 C886 1.398 1_545 S
C886 H874 0.950 . S
C886 C885 1.398 1_565 S
C886 C887 1.391 1_565 S
C887 H875 0.950 1_545 S
C887 C883 1.393 . S
C887 C886 1.391 1_545 S
H888 C896 0.950 . S
H889 C901 0.950 . S
H890 C898 0.950 . S
H891 C900 0.950 . S
H892 C902 0.950 . S
H893 C904 0.950 . S
H894 C906 0.950 . S
H895 C907 0.950 . S
C896 H888 0.950 . S
C896 C897 1.386 . S
C896 C898 1.391 . S
C897 C896 1.386 . S
C897 C901 1.393 . S
C898 H890 0.950 . S
C898 C896 1.391 . S
C898 C899 1.400 . S
C899 C898 1.400 . S
C899 C900 1.398 . S
C899 C905 1.491 . S
C900 H891 0.950 . S
C900 C899 1.398 . S
C900 C901 1.391 . S
C901 H889 0.950 . S
C901 C897 1.393 . S
C901 C900 1.391 . S
C902 H892 0.950 . S
C902 C903 1.386 . S
C902 C904 1.391 . S
C903 C902 1.386 . S
C903 C907 1.393 . S
C904 H893 0.950 . S
C904 C902 1.391 . S
C904 C905 1.400 . S
C905 C899 1.491 . S
C905 C904 1.400 . S
C905 C906 1.398 . S
C906 H894 0.950 . S
C906 C905 1.398 . S
C906 C907 1.391 . S
C907 H895 0.950 . S
C907 C903 1.393 . S
C907 C906 1.391 . S
H908 C916 0.950 . S
H909 C921 0.950 . S
H910 C918 0.950 . S
H911 C920 0.950 . S
H912 C922 0.950 . S
H913 C924 0.950 . S
H914 C926 0.934 1_556 S
H915 C927 0.950 1_556 S
C916 H908 0.950 . S
C916 C917 1.386 . S
C916 C918 1.391 . S
C917 C916 1.386 . S
C917 C921 1.393 . S
C918 H910 0.950 . S
C918 C916 1.391 . S
C918 C919 1.400 . S
C919 C918 1.400 . S
C919 C920 1.398 . S
C919 C925 1.491 . S
C920 H911 0.950 . S
C920 C919 1.398 . S
C920 C921 1.391 . S
C921 H909 0.950 . S
C921 C917 1.393 . S
C921 C920 1.391 . S
C922 H912 0.950 . S
C922 C923 1.386 . S
C922 C924 1.391 . S
C923 C922 1.386 . S
C923 C927 1.393 . S
C924 H913 0.950 . S
C924 C922 1.391 . S
C924 C925 1.400 . S
C925 C919 1.491 . S
C925 C924 1.400 . S
C925 C926 1.398 . S
C926 H914 0.934 1_554 S
C926 C925 1.398 . S
C926 C927 1.391 . S
C927 H915 0.950 1_554 S
C927 C923 1.393 . S
C927 C926 1.391 . S
H928 C936 0.950 . S
H929 C941 0.950 . S
H930 C938 0.950 . S
H931 C940 0.950 . S
H932 C942 0.950 . S
H933 C944 0.950 . S
H934 C946 0.950 . S
H935 C947 0.950 . S
C936 H928 0.950 . S
C936 C937 1.386 . S
C936 C938 1.391 . S
C937 C936 1.386 . S
C937 C941 1.393 . S
C938 H930 0.950 . S
C938 C936 1.391 . S
C938 C939 1.400 . S
C939 C938 1.400 . S
C939 C940 1.398 . S
C939 C945 1.491 . S
C940 H931 0.950 . S
C940 C939 1.398 . S
C940 C941 1.391 . S
C941 H929 0.950 . S
C941 C937 1.393 . S
C941 C940 1.391 . S
C942 H932 0.950 . S
C942 C943 1.386 . S
C942 C944 1.391 . S
C943 C942 1.386 . S
C943 C947 1.393 . S
C944 H933 0.950 . S
C944 C942 1.391 . S
C944 C945 1.400 . S
C945 C939 1.491 . S
C945 C944 1.400 . S
C945 C946 1.398 . S
C946 H934 0.950 . S
C946 C945 1.398 . S
C946 C947 1.391 . S
C947 H935 0.950 . S
C947 C943 1.393 . S
C947 C946 1.391 . S
H948 C956 0.950 . S
H949 C961 0.950 . S
H950 C958 0.950 . S
H951 C960 0.950 . S
H952 C962 0.950 . S
H953 C964 0.950 . S
H954 C966 0.950 . S
H955 C967 0.950 . S
C956 H948 0.950 . S
C956 C957 1.386 . S
C956 C958 1.391 . S
C957 C956 1.386 . S
C957 C961 1.393 . S
C958 H950 0.950 . S
C958 C956 1.391 . S
C958 C959 1.400 . S
C959 C958 1.400 . S
C959 C960 1.398 . S
C959 C965 1.491 . S
C960 H951 0.950 . S
C960 C959 1.398 . S
C960 C961 1.391 . S
C961 H949 0.950 . S
C961 C957 1.393 . S
C961 C960 1.391 . S
C962 H952 0.950 . S
C962 C963 1.386 . S
C962 C964 1.391 . S
C963 C962 1.386 . S
C963 C967 1.393 . S
C964 H953 0.950 . S
C964 C962 1.391 . S
C964 C965 1.400 . S
C965 C959 1.491 . S
C965 C964 1.400 . S
C965 C966 1.398 . S
C966 H954 0.950 . S
C966 C965 1.398 . S
C966 C967 1.391 . S
C967 H955 0.950 . S
C967 C963 1.393 . S
C967 C966 1.391 . S
H968 C976 0.950 . S
H969 C981 0.950 . S
H970 C978 0.950 . S
H971 C980 0.950 . S
H972 C982 0.950 . S
H973 C984 0.950 . S
H974 C986 0.950 . S
H975 C987 0.950 . S
C976 H968 0.950 . S
C976 C977 1.386 . S
C976 C978 1.391 . S
C977 C976 1.386 . S
C977 C981 1.393 . S
C978 H970 0.950 . S
C978 C976 1.391 . S
C978 C979 1.400 . S
C979 C978 1.400 . S
C979 C980 1.398 . S
C979 C985 1.491 . S
C980 H971 0.950 . S
C980 C979 1.398 . S
C980 C981 1.391 . S
C981 H969 0.950 . S
C981 C977 1.393 . S
C981 C980 1.391 . S
C982 H972 0.950 . S
C982 C983 1.386 . S
C982 C984 1.391 . S
C983 C982 1.386 . S
C983 C987 1.393 . S
C984 H973 0.950 . S
C984 C982 1.391 . S
C984 C985 1.400 . S
C985 C979 1.491 . S
C985 C984 1.400 . S
C985 C986 1.398 . S
C986 H974 0.950 . S
C986 C985 1.398 . S
C986 C987 1.391 . S
C987 H975 0.950 . S
C987 C983 1.393 . S
C987 C986 1.391 . S
H988 C996 0.950 . S
H989 C1001 0.950 . S
H990 C998 0.950 . S
H991 C1000 0.950 . S
H992 C1002 0.950 . S
H993 C1004 0.950 . S
H994 C1006 0.950 . S
H995 C1007 0.950 . S
C996 H988 0.950 . S
C996 C997 1.386 . S
C996 C998 1.391 . S
C997 C996 1.386 . S
C997 C1001 1.393 . S
C998 H990 0.950 . S
C998 C996 1.391 . S
C998 C999 1.400 . S
C999 C998 1.400 . S
C999 C1000 1.398 . S
C999 C1005 1.491 . S
C1000 H991 0.950 . S
C1000 C999 1.398 . S
C1000 C1001 1.391 . S
C1001 H989 0.950 . S
C1001 C997 1.393 . S
C1001 C1000 1.391 . S
C1002 H992 0.950 . S
C1002 C1003 1.386 . S
C1002 C1004 1.391 . S
C1003 C1002 1.386 . S
C1003 C1007 1.393 . S
C1004 H993 0.950 . S
C1004 C1002 1.391 . S
C1004 C1005 1.400 . S
C1005 C999 1.491 . S
C1005 C1004 1.400 . S
C1005 C1006 1.398 . S
C1006 H994 0.950 . S
C1006 C1005 1.398 . S
C1006 C1007 1.391 . S
C1007 H995 0.950 . S
C1007 C1003 1.393 . S
C1007 C1006 1.391 . S
C417 C349 0.289 . S
C423 C9 0.251 . S
C437 C43 0.508 . S
C443 C383 0.527 . S
C457 C77 0.528 . S
C463 C213 0.503 . S
C477 C111 0.304 . S
C483 C247 0.227 . S
C497 C145 0.497 . S
C503 C281 0.462 . S
C517 C179 0.472 . S
C523 C315 0.500 . S
C537 C5 1.782 . S
C543 C190 1.774 . S
C557 C20 1.812 . S
C563 C39 1.772 1_456 S
C577 C54 1.858 . S
C583 C73 1.844 . S
C597 C107 1.814 . S
C603 C88 1.833 . S
C617 C141 1.969 . S
C623 C122 2.003 . S
C637 C175 1.883 . S
C643 C156 1.872 . S
C657 C258 1.818 . S
C663 C209 1.763 1_554 S
C677 C243 1.818 . S
C683 C292 1.758 . S
C697 C277 1.862 . S
C703 C326 1.892 . S
C717 C311 1.973 . S
C723 C360 2.001 . S
C737 C345 1.814 1_655 S
C743 C394 1.833 . S
C757 C379 1.823 . S
C763 C224 1.875 . S
C777 C2 1.322 . S
C783 C308 1.332 . S
C797 C36 1.644 . S
C803 C342 1.645 . S
C817 C70 1.567 . S
C823 C376 1.566 . S
C837 C104 1.654 . S
C843 C206 1.657 . S
C857 C138 1.338 . S
C863 C240 1.332 . S
C877 C274 1.462 . S
C883 C172 1.471 . S
C897 C237 1.118 . S
C903 C33 1.119 . S
C917 C67 1.098 . S
C923 C271 1.100 . S
C937 C101 1.166 . S
C943 C305 1.160 . S
C957 C339 1.277 . S
C963 C135 1.278 . S
C977 C169 1.281 . S
C983 C373 1.283 . S
C997 C407 1.180 . S
C1003 C203 1.181 . S
