# Generated by pormake.
# Topology mdf, (4)-cn, num edge types: 1
# Building blocks:
#     Node 0, Type 0, BuildingBlock: NAHDIM_clean_sbu_0, # of connection points: 4
#     Node 1, Type 0, BuildingBlock: NAHDIM_clean_sbu_0, # of connection points: 4
#     Node 2, Type 0, BuildingBlock: NAHDIM_clean_sbu_0, # of connection points: 4
#     Node 3, Type 0, BuildingBlock: NAHDIM_clean_sbu_0, # of connection points: 4
#     Node 4, Type 0, BuildingBlock: NAHDIM_clean_sbu_0, # of connection points: 4
#     Node 5, Type 0, BuildingBlock: NAHDIM_clean_sbu_0, # of connection points: 4
#     Node 6, Type 0, BuildingBlock: NAHDIM_clean_sbu_0, # of connection points: 4
#     Node 7, Type 0, BuildingBlock: NAHDIM_clean_sbu_0, # of connection points: 4
#     Edge 8, Type (0, 0), BuildingBlock: AJUNOK_clean_linker_0, # of connection points: 2
#     Edge 9, Type (0, 0), BuildingBlock: AJUNOK_clean_linker_0, # of connection points: 2
#     Edge 10, Type (0, 0), BuildingBlock: AJUNOK_clean_linker_0, # of connection points: 2
#     Edge 11, Type (0, 0), BuildingBlock: AJUNOK_clean_linker_0, # of connection points: 2
#     Edge 12, Type (0, 0), BuildingBlock: AJUNOK_clean_linker_0, # of connection points: 2
#     Edge 13, Type (0, 0), BuildingBlock: AJUNOK_clean_linker_0, # of connection points: 2
#     Edge 14, Type (0, 0), BuildingBlock: AJUNOK_clean_linker_0, # of connection points: 2
#     Edge 15, Type (0, 0), BuildingBlock: AJUNOK_clean_linker_0, # of connection points: 2
#     Edge 16, Type (0, 0), BuildingBlock: AJUNOK_clean_linker_0, # of connection points: 2
#     Edge 17, Type (0, 0), BuildingBlock: AJUNOK_clean_linker_0, # of connection points: 2
#     Edge 18, Type (0, 0), BuildingBlock: AJUNOK_clean_linker_0, # of connection points: 2
#     Edge 19, Type (0, 0), BuildingBlock: AJUNOK_clean_linker_0, # of connection points: 2
#     Edge 20, Type (0, 0), BuildingBlock: AJUNOK_clean_linker_0, # of connection points: 2
#     Edge 21, Type (0, 0), BuildingBlock: AJUNOK_clean_linker_0, # of connection points: 2
#     Edge 22, Type (0, 0), BuildingBlock: AJUNOK_clean_linker_0, # of connection points: 2
#     Edge 23, Type (0, 0), BuildingBlock: AJUNOK_clean_linker_0, # of connection points: 2
# Relax obj value: 0.050
# Max RMSD: 0.056
# Mean RMSD: 0.056
data_MOF--net-mdf--node1-NAHDIM_clean_sbu_0--edge1-AJUNOK_clean_linker_0
_symmetry_space_group_name_H-M    P1
_symmetry_Int_Tables_number       1
_symmetry_cell_setting            triclinic
loop_
_symmetry_equiv_pos_as_xyz
'x, y, z'
_cell_length_a     26.02593
_cell_length_b     25.956063
_cell_length_c     10.994907
_cell_angle_alpha  89.850649
_cell_angle_beta   89.999382
_cell_angle_gamma 97.060499
loop_
_atom_site_label
_atom_site_type_symbol
_atom_site_fract_x
_atom_site_fract_y
_atom_site_fract_z
_atom_type_partial_charge
C0 C 0.20787 0.62082 0.57741 0.0
O1 O 0.2158 0.65056 0.48072 0.0
O2 O 0.29136 0.59297 0.32035 0.0
Zn3 Zn 0.25067 0.54132 0.4312 0.0
O4 O 0.19436 0.49599 0.34187 0.0
C5 C 0.33466 0.47993 0.42214 0.0
O6 O 0.33821 0.49889 0.31127 0.0
O7 O 0.22001 0.5749 0.57438 0.0
C8 C 0.20186 0.47822 0.23655 0.0
O9 O 0.24585 0.49322 0.18114 0.0
C10 C 0.27488 0.62049 0.23661 0.0
O11 O 0.22479 0.61893 0.21924 0.0
O12 O 0.30038 0.4937 0.49339 0.0
C13 C 0.40367 0.81098 0.51239 0.0
O14 O 0.39806 0.83332 0.61783 0.0
O15 O 0.41369 0.73579 0.78875 0.0
Zn16 Zn 0.46757 0.75504 0.65949 0.0
O17 O 0.51785 0.81609 0.71424 0.0
C18 C 0.48685 0.65463 0.56703 0.0
O19 O 0.43977 0.65391 0.52341 0.0
O20 O 0.43232 0.7748 0.50664 0.0
C21 C 0.55786 0.80916 0.77547 0.0
O22 O 0.56569 0.7616 0.80429 0.0
C23 C 0.42584 0.71045 0.88111 0.0
O24 O 0.47328 0.69839 0.88944 0.0
O25 O 0.50649 0.69383 0.6275 0.0
C26 C 0.30891 0.87751 0.06811 0.0
O27 O 0.32953 0.86615 0.96411 0.0
O28 O 0.21582 0.89181 0.79519 0.0
Zn29 Zn 0.25064 0.94216 0.91807 0.0
O30 O 0.31281 0.98572 0.84601 0.0
C31 C 0.15999 0.99768 0.90464 0.0
O32 O 0.15115 0.97129 0.80353 0.0
O33 O 0.27346 0.90708 0.06871 0.0
C34 C 0.30827 0.01222 0.75022 0.0
O35 O 0.26308 0.00831 0.69547 0.0
C36 C 0.2375 0.86344 0.72199 0.0
O37 O 0.2879 0.86349 0.72719 0.0
O38 O 0.1997 0.99116 0.96771 0.0
C39 C 0.09599 0.69194 0.99104 0.0
O40 O 0.0793 0.66035 0.08 0.0
O41 O 0.08136 0.78693 0.27137 0.0
Zn42 Zn 0.0396 0.76289 0.12265 0.0
O43 O 0.98338 0.70556 0.17159 0.0
C44 C 0.00509 0.8668 0.09205 0.0
O45 O 0.03043 0.87965 0.193 0.0
O46 O 0.0843 0.738 0.99147 0.0
C47 C 0.94473 0.71861 0.22949 0.0
O48 O 0.94426 0.76777 0.25702 0.0
C49 C 0.12615 0.77515 0.29687 0.0
O50 O 0.14908 0.74645 0.2207 0.0
O51 O 0.00472 0.82112 0.05036 0.0
C52 C 0.72905 0.13959 0.05226 0.0
O53 O 0.71504 0.15585 0.94542 0.0
O54 O 0.80119 0.12184 0.76729 0.0
Zn55 Zn 0.78418 0.07141 0.90704 0.0
O56 O 0.72584 0.01742 0.85609 0.0
C57 C 0.8567 0.99518 0.89675 0.0
O58 O 0.82512 0.97603 0.81058 0.0
O59 O 0.76017 0.10563 0.05708 0.0
C60 C 0.71315 0.97823 0.92393 0.0
O61 O 0.7388 0.97369 0.02558 0.0
C62 C 0.80644 0.10133 0.66384 0.0
O63 O 0.79978 0.05058 0.65424 0.0
O64 O 0.84721 0.03613 0.95133 0.0
C65 C 0.87817 0.26317 0.90264 0.0
O66 O 0.84933 0.23134 0.97509 0.0
O67 O 0.92081 0.20049 0.1775 0.0
Zn68 Zn 0.9662 0.23411 0.04432 0.0
O69 O 0.01775 0.29036 0.11461 0.0
C70 C 0.03542 0.15914 0.04844 0.0
O71 O 0.04136 0.17861 0.15846 0.0
O72 O 0.92706 0.26789 0.91453 0.0
C73 C 0.05168 0.31332 0.04341 0.0
O74 O 0.05177 0.29882 0.92904 0.0
C75 C 0.89056 0.22145 0.24739 0.0
O76 O 0.88518 0.27075 0.23287 0.0
O77 O 0.00454 0.17789 0.97568 0.0
C78 C 0.79235 0.40222 0.56074 0.0
O79 O 0.82118 0.42002 0.4681 0.0
O80 O 0.69355 0.41712 0.3027 0.0
Zn81 Zn 0.72185 0.46232 0.44202 0.0
O82 O 0.78128 0.51558 0.38549 0.0
C83 C 0.61793 0.493 0.46979 0.0
O84 O 0.60445 0.45413 0.39565 0.0
O85 O 0.74724 0.41577 0.57134 0.0
C86 C 0.77303 0.562 0.36288 0.0
O87 O 0.72559 0.57389 0.37172 0.0
C88 C 0.68608 0.43521 0.19753 0.0
O89 O 0.69934 0.4849 0.17662 0.0
O90 O 0.66457 0.50127 0.50669 0.0
C91 C 0.61785 0.20295 0.47574 0.0
O92 O 0.61443 0.17671 0.57833 0.0
O93 O 0.58617 0.30232 0.72736 0.0
Zn94 Zn 0.54517 0.26188 0.59591 0.0
O95 O 0.50074 0.19813 0.65924 0.0
C96 C 0.47063 0.33343 0.59545 0.0
O97 O 0.47256 0.32432 0.71282 0.0
O98 O 0.59232 0.2414 0.46415 0.0
C99 C 0.46693 0.17594 0.58681 0.0
O100 O 0.46353 0.19519 0.47684 0.0
C101 C 0.57514 0.29851 0.83986 0.0
O102 O 0.53775 0.2632 0.87621 0.0
O103 O 0.49853 0.31011 0.52442 0.0
C104 C 0.40091 0.65986 0.06956 0.0
C105 C 0.3868 0.69172 0.9747 0.0
C106 C 0.36475 0.63864 0.15546 0.0
C107 C 0.3127 0.64824 0.15063 0.0
H108 H 0.44011 0.65014 0.07666 0.0
H109 H 0.37771 0.61331 0.22444 0.0
S110 S 0.25718 0.7349 0.93032 0.0
N111 N 0.31799 0.73563 0.88697 0.0
N112 N 0.24996 0.69605 0.04991 0.0
C113 C 0.29837 0.68192 0.05955 0.0
C114 C 0.33536 0.70348 0.97122 0.0
C115 C 0.38144 0.80118 0.29119 0.0
C116 C 0.37774 0.82798 0.40149 0.0
C117 C 0.35856 0.81715 0.1844 0.0
C118 C 0.33006 0.85977 0.18388 0.0
H119 H 0.40269 0.76788 0.28652 0.0
H120 H 0.36359 0.79609 0.10138 0.0
S121 S 0.30911 0.94382 0.44751 0.0
N122 N 0.3445 0.90055 0.50216 0.0
N123 N 0.29947 0.92877 0.30294 0.0
C124 C 0.3253 0.88649 0.2937 0.0
C125 C 0.34969 0.87109 0.40192 0.0
C126 C 0.20573 0.79034 0.42697 0.0
C127 C 0.15274 0.79453 0.41036 0.0
C128 C 0.23222 0.81048 0.53085 0.0
C129 C 0.20708 0.83628 0.62153 0.0
H130 H 0.22729 0.77213 0.35841 0.0
H131 H 0.27301 0.80665 0.53867 0.0
S132 S 0.06698 0.85151 0.6295 0.0
N133 N 0.07489 0.82185 0.49954 0.0
N134 N 0.12471 0.86008 0.69345 0.0
C135 C 0.15351 0.83842 0.6089 0.0
C136 C 0.12644 0.81769 0.5035 0.0
C137 C 0.13241 0.70294 0.7805 0.0
C138 C 0.12651 0.67395 0.88914 0.0
C139 C 0.15948 0.68592 0.68116 0.0
C140 C 0.18204 0.6394 0.6865 0.0
H141 H 0.11522 0.73869 0.77099 0.0
H142 H 0.16179 0.70899 0.59883 0.0
S143 S 0.18176 0.55168 0.95397 0.0
N144 N 0.1479 0.59791 0.99849 0.0
N145 N 0.19943 0.56631 0.81277 0.0
C146 C 0.17775 0.61083 0.79594 0.0
C147 C 0.1498 0.62796 0.89681 0.0
C148 C 0.86345 0.11488 0.48332 0.0
C149 C 0.82577 0.13289 0.55802 0.0
C150 C 0.88337 0.14347 0.38235 0.0
C151 C 0.86597 0.19105 0.35102 0.0
H152 H 0.87848 0.07877 0.50441 0.0
H153 H 0.91331 0.12833 0.32969 0.0
S154 S 0.76102 0.25018 0.50546 0.0
N155 N 0.76784 0.19821 0.58809 0.0
N156 N 0.80434 0.25172 0.39547 0.0
C157 C 0.82653 0.20837 0.42215 0.0
C158 C 0.80673 0.17942 0.52649 0.0
C159 C 0.88655 0.32866 0.73394 0.0
C160 C 0.85459 0.29679 0.81425 0.0
C161 C 0.86597 0.36256 0.65317 0.0
C162 C 0.81258 0.36663 0.64997 0.0
H163 H 0.92803 0.32763 0.73325 0.0
H164 H 0.8924 0.38607 0.5933 0.0
S165 S 0.71166 0.2887 0.83427 0.0
N166 N 0.7664 0.26938 0.88059 0.0
N167 N 0.72773 0.33386 0.73044 0.0
C168 C 0.78003 0.33487 0.72936 0.0
C169 C 0.80099 0.29963 0.81047 0.0
C170 C 0.63064 0.35359 0.1382 0.0
C171 C 0.65865 0.40124 0.10368 0.0
C172 C 0.60336 0.32095 0.05258 0.0
C173 C 0.60325 0.33448 0.92875 0.0
H174 H 0.62915 0.34164 0.23268 0.0
H175 H 0.58255 0.2846 0.08368 0.0
S176 S 0.66849 0.45618 0.79142 0.0
N177 N 0.68345 0.461 0.93714 0.0
N178 N 0.63181 0.4 0.7763 0.0
C179 C 0.63043 0.38244 0.89299 0.0
C180 C 0.65821 0.4157 0.98035 0.0
C181 C 0.67923 0.20146 0.1623 0.0
C182 C 0.70475 0.1568 0.16479 0.0
C183 C 0.65221 0.21632 0.26395 0.0
C184 C 0.64915 0.18708 0.37228 0.0
H185 H 0.67949 0.22493 0.08064 0.0
H186 H 0.63278 0.25063 0.2567 0.0
S187 S 0.70929 0.06646 0.42621 0.0
N188 N 0.72593 0.08353 0.2856 0.0
N189 N 0.67457 0.11117 0.47593 0.0
C190 C 0.6752 0.14265 0.37681 0.0
C191 C 0.7032 0.1277 0.27345 0.0
C192 C 0.3762 0.4338 0.58813 0.0
C193 C 0.36971 0.44255 0.46317 0.0
C194 C 0.409 0.39862 0.62961 0.0
C195 C 0.43661 0.37065 0.54784 0.0
H196 H 0.35603 0.45451 0.65482 0.0
H197 H 0.41268 0.39347 0.72688 0.0
S198 S 0.43191 0.37827 0.21064 0.0
N199 N 0.39241 0.41922 0.25744 0.0
N200 N 0.45481 0.35388 0.33531 0.0
C201 C 0.43045 0.379 0.42237 0.0
C202 C 0.3968 0.41469 0.38012 0.0
C203 C 0.67113 0.8866 0.93602 0.0
C204 C 0.67215 0.93665 0.88616 0.0
C205 C 0.63397 0.84592 0.89974 0.0
C206 C 0.59579 0.85369 0.81321 0.0
H207 H 0.69984 0.87839 0.00234 0.0
H208 H 0.6353 0.80801 0.94023 0.0
S209 S 0.58013 0.9783 0.65861 0.0
N210 N 0.63097 0.99227 0.74771 0.0
N211 N 0.56061 0.916 0.6805 0.0
C212 C 0.59574 0.90388 0.76403 0.0
C213 C 0.63407 0.94525 0.80009 0.0
C214 C 0.11101 0.10956 0.07298 0.0
C215 C 0.06524 0.11679 0.01068 0.0
C216 C 0.14081 0.07058 0.03899 0.0
C217 C 0.12597 0.03689 0.94162 0.0
H218 H 0.12455 0.1348 0.14766 0.0
H219 H 0.1762 0.0674 0.08882 0.0
S220 S 0.00641 0.03627 0.7564 0.0
N221 N 0.00455 0.08502 0.85184 0.0
N222 N 0.06022 0.01131 0.78826 0.0
C223 C 0.07935 0.04269 0.88064 0.0
C224 C 0.04912 0.08274 0.91496 0.0
C225 C 0.90567 0.62598 0.25995 0.0
C226 C 0.90055 0.67935 0.26388 0.0
C227 C 0.86447 0.58831 0.29263 0.0
C228 C 0.81625 0.60245 0.32901 0.0
H229 H 0.94194 0.61309 0.23231 0.0
H230 H 0.87043 0.54778 0.28842 0.0
S231 S 0.78246 0.73707 0.3539 0.0
N232 N 0.84315 0.74431 0.30705 0.0
N233 N 0.76597 0.67388 0.36731 0.0
C234 C 0.81056 0.65571 0.33279 0.0
C235 C 0.8526 0.69402 0.30065 0.0
C236 C 0.34559 0.07859 0.59877 0.0
C237 C 0.3516 0.05053 0.70648 0.0
C238 C 0.38367 0.11802 0.55972 0.0
C239 C 0.4293 0.13149 0.6271 0.0
H240 H 0.31073 0.07075 0.54469 0.0
H241 H 0.37647 0.13899 0.47737 0.0
S242 S 0.46647 0.06707 0.91003 0.0
N243 N 0.40876 0.03679 0.87591 0.0
N244 N 0.48005 0.11125 0.80272 0.0
C245 C 0.43676 0.1027 0.73289 0.0
C246 C 0.39807 0.06214 0.77237 0.0
C247 C 0.92369 0.97762 0.05072 0.0
C248 C 0.8994 0.96628 0.93782 0.0
C249 C 0.95959 0.94661 0.0978 0.0
C250 C 0.97257 0.9031 0.0338 0.0
H251 H 0.91352 0.00948 0.10551 0.0
H252 H 0.97567 0.95573 0.18715 0.0
S253 S 0.92685 0.86228 0.72467 0.0
N254 N 0.89598 0.91243 0.75644 0.0
N255 N 0.96314 0.85432 0.84469 0.0
C256 C 0.95117 0.89348 0.91724 0.0
C257 C 0.91468 0.925 0.86938 0.0
C258 C 0.08265 0.37885 0.20225 0.0
C259 C 0.09002 0.35611 0.08853 0.0
C260 C 0.11835 0.41899 0.2478 0.0
C261 C 0.16325 0.43783 0.18212 0.0
H262 H 0.04894 0.36564 0.25691 0.0
H263 H 0.11086 0.43485 0.33617 0.0
S264 S 0.20088 0.39142 0.87915 0.0
N265 N 0.14549 0.35577 0.91038 0.0
N266 N 0.213 0.4304 0.9967 0.0
C267 C 0.17102 0.41558 0.06783 0.0
C268 C 0.13434 0.37499 0.0209 0.0
C269 C 0.56085 0.60522 0.61763 0.0
C270 C 0.5174 0.6109 0.54479 0.0
C271 C 0.59208 0.56596 0.59512 0.0
C272 C 0.58119 0.53071 0.4988 0.0
H273 H 0.57122 0.63165 0.69225 0.0
H274 H 0.6255 0.56375 0.65278 0.0
S275 S 0.47307 0.53016 0.27802 0.0
N276 N 0.46552 0.57839 0.37113 0.0
N277 N 0.52407 0.50463 0.32858 0.0
C278 C 0.53734 0.5354 0.42629 0.0
C279 C 0.50553 0.57547 0.44929 0.0
loop_
_geom_bond_atom_site_label_1
_geom_bond_atom_site_label_2
_geom_bond_distance
_geom_bond_site_symmetry_2
_ccdc_geom_bond_type
C0 O1 1.160 . S
C0 O7 1.185 . S
O1 C0 1.160 . S
O2 Zn3 1.899 . S
O2 C10 1.284 . S
Zn3 O2 1.899 . S
Zn3 O4 2.032 . S
Zn3 O7 2.086 . S
Zn3 O12 1.977 . S
O4 Zn3 2.032 . S
O4 C8 1.278 . S
C5 O6 1.203 . S
C5 O12 1.267 . S
O6 C5 1.203 . S
O7 C0 1.185 . S
O7 Zn3 2.086 . S
C8 O4 1.278 . S
C8 O9 1.211 . S
O9 C8 1.211 . S
C10 O2 1.284 . S
C10 O11 1.273 . S
O11 C10 1.273 . S
O12 Zn3 1.977 . S
O12 C5 1.267 . S
C13 O14 1.160 . S
C13 O20 1.185 . S
O14 C13 1.160 . S
O15 Zn16 1.899 . S
O15 C23 1.284 . S
Zn16 O15 1.899 . S
Zn16 O17 2.032 . S
Zn16 O20 2.086 . S
Zn16 O25 1.977 . S
O17 Zn16 2.032 . S
O17 C21 1.278 . S
C18 O19 1.203 . S
C18 O25 1.267 . S
O19 C18 1.203 . S
O20 C13 1.185 . S
O20 Zn16 2.086 . S
C21 O17 1.278 . S
C21 O22 1.211 . S
O22 C21 1.211 . S
C23 O15 1.284 . S
C23 O24 1.273 . S
O24 C23 1.273 . S
O25 Zn16 1.977 . S
O25 C18 1.267 . S
C26 O27 1.160 1_554 S
C26 O33 1.185 . S
O27 C26 1.160 1_556 S
O28 Zn29 1.899 . S
O28 C36 1.284 . S
Zn29 O28 1.899 . S
Zn29 O30 2.032 . S
Zn29 O33 2.086 1_556 S
Zn29 O38 1.977 . S
O30 Zn29 2.032 . S
O30 C34 1.278 1_565 S
C31 O32 1.203 . S
C31 O38 1.267 1_545 S
O32 C31 1.203 . S
O33 C26 1.185 . S
O33 Zn29 2.086 1_554 S
C34 O30 1.278 1_545 S
C34 O35 1.211 . S
O35 C34 1.211 . S
C36 O28 1.284 . S
C36 O37 1.273 . S
O37 C36 1.273 . S
O38 Zn29 1.977 . S
O38 C31 1.267 1_565 S
C39 O40 1.160 1_556 S
C39 O46 1.185 . S
O40 C39 1.160 1_554 S
O41 Zn42 1.899 . S
O41 C49 1.284 . S
Zn42 O41 1.899 . S
Zn42 O43 2.032 . S
Zn42 O46 2.086 1_554 S
Zn42 O51 1.977 . S
O43 Zn42 2.032 . S
O43 C47 1.278 1_455 S
C44 O45 1.203 . S
C44 O51 1.267 1_655 S
O45 C44 1.203 . S
O46 C39 1.185 . S
O46 Zn42 2.086 1_556 S
C47 O43 1.278 1_655 S
C47 O48 1.211 . S
O48 C47 1.211 . S
C49 O41 1.284 . S
C49 O50 1.273 . S
O50 C49 1.273 . S
O51 Zn42 1.977 . S
O51 C44 1.267 1_455 S
C52 O53 1.160 1_554 S
C52 O59 1.185 . S
O53 C52 1.160 1_556 S
O54 Zn55 1.899 . S
O54 C62 1.284 . S
Zn55 O54 1.899 . S
Zn55 O56 2.032 . S
Zn55 O59 2.086 1_556 S
Zn55 O64 1.977 . S
O56 Zn55 2.032 . S
O56 C60 1.278 1_545 S
C57 O58 1.203 . S
C57 O64 1.267 1_565 S
O58 C57 1.203 . S
O59 C52 1.185 . S
O59 Zn55 2.086 1_554 S
C60 O56 1.278 1_565 S
C60 O61 1.211 . S
O61 C60 1.211 . S
C62 O54 1.284 . S
C62 O63 1.273 . S
O63 C62 1.273 . S
O64 Zn55 1.977 . S
O64 C57 1.267 1_545 S
C65 O66 1.160 1_556 S
C65 O72 1.185 . S
O66 C65 1.160 1_554 S
O67 Zn68 1.899 . S
O67 C75 1.284 . S
Zn68 O67 1.899 . S
Zn68 O69 2.032 . S
Zn68 O72 2.086 1_554 S
Zn68 O77 1.977 . S
O69 Zn68 2.032 . S
O69 C73 1.278 1_655 S
C70 O71 1.203 . S
C70 O77 1.267 1_455 S
O71 C70 1.203 . S
O72 C65 1.185 . S
O72 Zn68 2.086 1_556 S
C73 O69 1.278 1_455 S
C73 O74 1.211 . S
O74 C73 1.211 . S
C75 O67 1.284 . S
C75 O76 1.273 . S
O76 C75 1.273 . S
O77 Zn68 1.977 . S
O77 C70 1.267 1_655 S
C78 O79 1.160 . S
C78 O85 1.185 . S
O79 C78 1.160 . S
O80 Zn81 1.899 . S
O80 C88 1.284 . S
Zn81 O80 1.899 . S
Zn81 O82 2.032 . S
Zn81 O85 2.086 . S
Zn81 O90 1.977 . S
O82 Zn81 2.032 . S
O82 C86 1.278 . S
C83 O84 1.203 . S
C83 O90 1.267 . S
O84 C83 1.203 . S
O85 C78 1.185 . S
O85 Zn81 2.086 . S
C86 O82 1.278 . S
C86 O87 1.211 . S
O87 C86 1.211 . S
C88 O80 1.284 . S
C88 O89 1.273 . S
O89 C88 1.273 . S
O90 Zn81 1.977 . S
O90 C83 1.267 . S
C91 O92 1.160 . S
C91 O98 1.185 . S
O92 C91 1.160 . S
O93 Zn94 1.899 . S
O93 C101 1.284 . S
Zn94 O93 1.899 . S
Zn94 O95 2.032 . S
Zn94 O98 2.086 . S
Zn94 O103 1.977 . S
O95 Zn94 2.032 . S
O95 C99 1.278 . S
C96 O97 1.203 . S
C96 O103 1.267 . S
O97 C96 1.203 . S
O98 C91 1.185 . S
O98 Zn94 2.086 . S
C99 O95 1.278 . S
C99 O100 1.211 . S
O100 C99 1.211 . S
C101 O93 1.284 . S
C101 O102 1.273 . S
O102 C101 1.273 . S
O103 Zn94 1.977 . S
O103 C96 1.267 . S
C104 C105 1.369 . S
C104 C106 1.419 1_556 S
C104 H108 0.930 . S
C105 C104 1.369 . S
C105 C114 1.429 . S
C106 C104 1.419 1_554 S
C106 C107 1.363 . S
C106 H109 0.929 . S
C107 C106 1.363 . S
C107 C113 1.428 . S
H108 C104 0.930 . S
H109 C106 0.929 . S
S110 N111 1.613 . S
S110 N112 1.610 . S
N111 S110 1.613 . S
N111 C114 1.350 . S
N112 S110 1.610 . S
N112 C113 1.351 1_556 S
C113 C107 1.428 . S
C113 N112 1.351 1_554 S
C113 C114 1.434 1_554 S
C114 C105 1.429 . S
C114 N111 1.350 . S
C114 C113 1.434 1_556 S
C115 C116 1.369 . S
C115 C117 1.419 . S
C115 H119 0.930 . S
C116 C115 1.369 . S
C116 C125 1.429 . S
C117 C115 1.419 . S
C117 C118 1.363 . S
C117 H120 0.929 . S
C118 C117 1.363 . S
C118 C124 1.428 . S
H119 C115 0.930 . S
H120 C117 0.929 . S
S121 N122 1.613 . S
S121 N123 1.610 . S
N122 S121 1.613 . S
N122 C125 1.350 . S
N123 S121 1.610 . S
N123 C124 1.351 . S
C124 C118 1.428 . S
C124 N123 1.351 . S
C124 C125 1.434 . S
C125 C116 1.429 . S
C125 N122 1.350 . S
C125 C124 1.434 . S
C126 C127 1.369 . S
C126 C128 1.419 . S
C126 H130 0.930 . S
C127 C126 1.369 . S
C127 C136 1.429 . S
C128 C126 1.419 . S
C128 C129 1.363 . S
C128 H131 0.929 . S
C129 C128 1.363 . S
C129 C135 1.428 . S
H130 C126 0.930 . S
H131 C128 0.929 . S
S132 N133 1.613 . S
S132 N134 1.610 . S
N133 S132 1.613 . S
N133 C136 1.350 . S
N134 S132 1.610 . S
N134 C135 1.351 . S
C135 C129 1.428 . S
C135 N134 1.351 . S
C135 C136 1.434 . S
C136 C127 1.429 . S
C136 N133 1.350 . S
C136 C135 1.434 . S
C137 C138 1.369 . S
C137 C139 1.419 . S
C137 H141 0.930 . S
C138 C137 1.369 . S
C138 C147 1.429 . S
C139 C137 1.419 . S
C139 C140 1.363 . S
C139 H142 0.929 . S
C140 C139 1.363 . S
C140 C146 1.428 . S
H141 C137 0.930 . S
H142 C139 0.929 . S
S143 N144 1.613 . S
S143 N145 1.610 . S
N144 S143 1.613 . S
N144 C147 1.350 . S
N145 S143 1.610 . S
N145 C146 1.351 . S
C146 C140 1.428 . S
C146 N145 1.351 . S
C146 C147 1.434 . S
C147 C138 1.429 . S
C147 N144 1.350 . S
C147 C146 1.434 . S
C148 C149 1.369 . S
C148 C150 1.419 . S
C148 H152 0.930 . S
C149 C148 1.369 . S
C149 C158 1.429 . S
C150 C148 1.419 . S
C150 C151 1.363 . S
C150 H153 0.929 . S
C151 C150 1.363 . S
C151 C157 1.428 . S
H152 C148 0.930 . S
H153 C150 0.929 . S
S154 N155 1.613 . S
S154 N156 1.610 . S
N155 S154 1.613 . S
N155 C158 1.350 . S
N156 S154 1.610 . S
N156 C157 1.351 . S
C157 C151 1.428 . S
C157 N156 1.351 . S
C157 C158 1.434 . S
C158 C149 1.429 . S
C158 N155 1.350 . S
C158 C157 1.434 . S
C159 C160 1.369 . S
C159 C161 1.419 . S
C159 H163 0.930 . S
C160 C159 1.369 . S
C160 C169 1.429 . S
C161 C159 1.419 . S
C161 C162 1.363 . S
C161 H164 0.929 . S
C162 C161 1.363 . S
C162 C168 1.428 . S
H163 C159 0.930 . S
H164 C161 0.929 . S
S165 N166 1.613 . S
S165 N167 1.610 . S
N166 S165 1.613 . S
N166 C169 1.350 . S
N167 S165 1.610 . S
N167 C168 1.351 . S
C168 C162 1.428 . S
C168 N167 1.351 . S
C168 C169 1.434 . S
C169 C160 1.429 . S
C169 N166 1.350 . S
C169 C168 1.434 . S
C170 C171 1.369 . S
C170 C172 1.419 1_554 S
C170 H174 0.930 . S
C171 C170 1.369 . S
C171 C180 1.429 . S
C172 C170 1.419 1_556 S
C172 C173 1.363 . S
C172 H175 0.929 . S
C173 C172 1.363 . S
C173 C179 1.428 . S
H174 C170 0.930 . S
H175 C172 0.929 . S
S176 N177 1.613 1_556 S
S176 N178 1.610 . S
N177 S176 1.613 1_554 S
N177 C180 1.350 . S
N178 S176 1.610 . S
N178 C179 1.351 . S
C179 C173 1.428 . S
C179 N178 1.351 . S
C179 C180 1.434 1_556 S
C180 C171 1.429 . S
C180 N177 1.350 . S
C180 C179 1.434 1_554 S
C181 C182 1.369 . S
C181 C183 1.419 . S
C181 H185 0.930 . S
C182 C181 1.369 . S
C182 C191 1.429 . S
C183 C181 1.419 . S
C183 C184 1.363 . S
C183 H186 0.929 . S
C184 C183 1.363 . S
C184 C190 1.428 . S
H185 C181 0.930 . S
H186 C183 0.929 . S
S187 N188 1.613 . S
S187 N189 1.610 . S
N188 S187 1.613 . S
N188 C191 1.350 . S
N189 S187 1.610 . S
N189 C190 1.351 . S
C190 C184 1.428 . S
C190 N189 1.351 . S
C190 C191 1.434 . S
C191 C182 1.429 . S
C191 N188 1.350 . S
C191 C190 1.434 . S
C192 C193 1.369 . S
C192 C194 1.419 . S
C192 H196 0.930 . S
C193 C192 1.369 . S
C193 C202 1.429 . S
C194 C192 1.419 . S
C194 C195 1.363 . S
C194 H197 0.929 . S
C195 C194 1.363 . S
C195 C201 1.428 . S
H196 C192 0.930 . S
H197 C194 0.929 . S
S198 N199 1.613 . S
S198 N200 1.610 . S
N199 S198 1.613 . S
N199 C202 1.350 . S
N200 S198 1.610 . S
N200 C201 1.351 . S
C201 C195 1.428 . S
C201 N200 1.351 . S
C201 C202 1.434 . S
C202 C193 1.429 . S
C202 N199 1.350 . S
C202 C201 1.434 . S
C203 C204 1.369 . S
C203 C205 1.419 . S
C203 H207 0.930 . S
C204 C203 1.369 . S
C204 C213 1.429 . S
C205 C203 1.419 . S
C205 C206 1.363 . S
C205 H208 0.929 . S
C206 C205 1.363 . S
C206 C212 1.428 . S
H207 C203 0.930 . S
H208 C205 0.929 . S
S209 N210 1.613 . S
S209 N211 1.610 . S
N210 S209 1.613 . S
N210 C213 1.355 . S
N211 S209 1.610 . S
N211 C212 1.351 . S
C212 C206 1.428 . S
C212 N211 1.351 . S
C212 C213 1.434 . S
C213 C204 1.429 . S
C213 N210 1.355 . S
C213 C212 1.434 . S
C214 C215 1.369 . S
C214 C216 1.419 . S
C214 H218 0.930 . S
C215 C214 1.369 . S
C215 C224 1.429 1_554 S
C216 C214 1.419 . S
C216 C217 1.363 1_554 S
C216 H219 0.929 . S
C217 C216 1.363 1_556 S
C217 C223 1.428 . S
H218 C214 0.930 . S
H219 C216 0.929 . S
S220 N221 1.613 1_565 S
S220 N222 1.610 1_655 S
N221 S220 1.613 1_545 S
N221 C224 1.350 1_655 S
N222 S220 1.610 1_455 S
N222 C223 1.351 1_565 S
C223 C217 1.428 . S
C223 N222 1.351 1_545 S
C223 C224 1.434 . S
C224 C215 1.429 1_556 S
C224 N221 1.350 1_455 S
C224 C223 1.434 . S
C225 C226 1.369 . S
C225 C227 1.419 . S
C225 H229 0.930 . S
C226 C225 1.369 . S
C226 C235 1.429 . S
C227 C225 1.419 . S
C227 C228 1.363 . S
C227 H230 0.929 . S
C228 C227 1.363 . S
C228 C234 1.428 . S
H229 C225 0.930 . S
H230 C227 0.929 . S
S231 N232 1.613 . S
S231 N233 1.610 . S
N232 S231 1.613 . S
N232 C235 1.350 . S
N233 S231 1.610 . S
N233 C234 1.351 . S
C234 C228 1.428 . S
C234 N233 1.351 . S
C234 C235 1.434 . S
C235 C226 1.429 . S
C235 N232 1.350 . S
C235 C234 1.434 . S
C236 C237 1.369 . S
C236 C238 1.419 . S
C236 H240 0.930 . S
C237 C236 1.369 . S
C237 C246 1.429 . S
C238 C236 1.419 . S
C238 C239 1.363 . S
C238 H241 0.929 . S
C239 C238 1.363 . S
C239 C245 1.428 . S
H240 C236 0.930 . S
H241 C238 0.929 . S
S242 N243 1.613 . S
S242 N244 1.610 . S
N243 S242 1.613 . S
N243 C246 1.350 . S
N244 S242 1.610 . S
N244 C245 1.351 . S
C245 C239 1.428 . S
C245 N244 1.351 . S
C245 C246 1.434 . S
C246 C237 1.429 . S
C246 N243 1.350 . S
C246 C245 1.434 . S
C247 C248 1.369 1_554 S
C247 C249 1.419 . S
C247 H251 0.930 . S
C248 C247 1.369 1_556 S
C248 C257 1.429 . S
C249 C247 1.419 . S
C249 C250 1.363 . S
C249 H252 0.929 . S
C250 C249 1.363 . S
C250 C256 1.428 1_554 S
H251 C247 0.930 . S
H252 C249 0.929 . S
S253 N254 1.613 . S
S253 N255 1.610 . S
N254 S253 1.613 . S
N254 C257 1.350 . S
N255 S253 1.610 . S
N255 C256 1.351 . S
C256 C250 1.428 1_556 S
C256 N255 1.351 . S
C256 C257 1.434 . S
C257 C248 1.429 . S
C257 N254 1.350 . S
C257 C256 1.434 . S
C258 C259 1.369 . S
C258 C260 1.419 . S
C258 H262 0.930 . S
C259 C258 1.369 . S
C259 C268 1.429 . S
C260 C258 1.419 . S
C260 C261 1.363 . S
C260 H263 0.929 . S
C261 C260 1.363 . S
C261 C267 1.428 . S
H262 C258 0.930 . S
H263 C260 0.929 . S
S264 N265 1.613 . S
S264 N266 1.610 . S
N265 S264 1.613 . S
N265 C268 1.350 . S
N266 S264 1.610 . S
N266 C267 1.351 . S
C267 C261 1.428 . S
C267 N266 1.351 . S
C267 C268 1.434 . S
C268 C259 1.429 . S
C268 N265 1.350 . S
C268 C267 1.434 . S
C269 C270 1.369 . S
C269 C271 1.419 . S
C269 H273 0.930 . S
C270 C269 1.369 . S
C270 C279 1.429 . S
C271 C269 1.419 . S
C271 C272 1.363 . S
C271 H274 0.929 . S
C272 C271 1.363 . S
C272 C278 1.428 . S
H273 C269 0.930 . S
H274 C271 0.929 . S
S275 N276 1.613 . S
S275 N277 1.610 . S
N276 S275 1.613 . S
N276 C279 1.350 . S
N277 S275 1.610 . S
N277 C278 1.351 . S
C278 C272 1.428 . S
C278 N277 1.351 . S
C278 C279 1.434 . S
C279 C270 1.429 . S
C279 N276 1.350 . S
C279 C278 1.434 . S
C105 C23 1.412 . S
C107 C10 1.410 . S
C116 C13 1.429 . S
C118 C26 1.430 . S
C127 C49 1.410 . S
C129 C36 1.410 . S
C138 C39 1.427 . S
C140 C0 1.430 . S
C149 C62 1.411 . S
C151 C75 1.411 . S
C160 C65 1.426 . S
C162 C78 1.428 . S
C171 C88 1.409 . S
C173 C101 1.413 . S
C182 C52 1.429 . S
C184 C91 1.430 . S
C193 C5 1.441 . S
C195 C96 1.444 . S
C204 C60 1.453 . S
C206 C21 1.453 . S
C215 C70 1.443 . S
C217 C31 1.443 . S
C226 C47 1.446 . S
C228 C86 1.446 . S
C237 C34 1.449 . S
C239 C99 1.452 . S
C248 C57 1.438 . S
C250 C44 1.446 . S
C259 C73 1.447 . S
C261 C8 1.446 . S
C270 C18 1.441 . S
C272 C83 1.444 . S
