# Generated by pormake.
# Topology fnk, (5)-cn, num edge types: 1
# Building blocks:
#     Node 0, Type 0, BuildingBlock: XOMCOT_clean_sbu_0, # of connection points: 5
#     Node 1, Type 0, BuildingBlock: XOMCOT_clean_sbu_0, # of connection points: 5
#     Node 2, Type 0, BuildingBlock: XOMCOT_clean_sbu_0, # of connection points: 5
#     Node 3, Type 0, BuildingBlock: XOMCOT_clean_sbu_0, # of connection points: 5
#     Node 4, Type 0, BuildingBlock: XOMCOT_clean_sbu_0, # of connection points: 5
#     Node 5, Type 0, BuildingBlock: XOMCOT_clean_sbu_0, # of connection points: 5
#     Node 6, Type 0, BuildingBlock: XOMCOT_clean_sbu_0, # of connection points: 5
#     Node 7, Type 0, BuildingBlock: XOMCOT_clean_sbu_0, # of connection points: 5
#     Node 8, Type 0, BuildingBlock: XOMCOT_clean_sbu_0, # of connection points: 5
#     Node 9, Type 0, BuildingBlock: XOMCOT_clean_sbu_0, # of connection points: 5
#     Node 10, Type 0, BuildingBlock: XOMCOT_clean_sbu_0, # of connection points: 5
#     Node 11, Type 0, BuildingBlock: XOMCOT_clean_sbu_0, # of connection points: 5
#     Node 12, Type 0, BuildingBlock: XOMCOT_clean_sbu_0, # of connection points: 5
#     Node 13, Type 0, BuildingBlock: XOMCOT_clean_sbu_0, # of connection points: 5
#     Node 14, Type 0, BuildingBlock: XOMCOT_clean_sbu_0, # of connection points: 5
#     Node 15, Type 0, BuildingBlock: XOMCOT_clean_sbu_0, # of connection points: 5
#     Edge 16, Type (0, 0), None
#     Edge 17, Type (0, 0), None
#     Edge 18, Type (0, 0), None
#     Edge 19, Type (0, 0), None
#     Edge 20, Type (0, 0), None
#     Edge 21, Type (0, 0), None
#     Edge 22, Type (0, 0), None
#     Edge 23, Type (0, 0), None
#     Edge 24, Type (0, 0), None
#     Edge 25, Type (0, 0), None
#     Edge 26, Type (0, 0), None
#     Edge 27, Type (0, 0), None
#     Edge 28, Type (0, 0), None
#     Edge 29, Type (0, 0), None
#     Edge 30, Type (0, 0), None
#     Edge 31, Type (0, 0), None
#     Edge 32, Type (0, 0), None
#     Edge 33, Type (0, 0), None
#     Edge 34, Type (0, 0), None
#     Edge 35, Type (0, 0), None
#     Edge 36, Type (0, 0), None
#     Edge 37, Type (0, 0), None
#     Edge 38, Type (0, 0), None
#     Edge 39, Type (0, 0), None
#     Edge 40, Type (0, 0), None
#     Edge 41, Type (0, 0), None
#     Edge 42, Type (0, 0), None
#     Edge 43, Type (0, 0), None
#     Edge 44, Type (0, 0), None
#     Edge 45, Type (0, 0), None
#     Edge 46, Type (0, 0), None
#     Edge 47, Type (0, 0), None
#     Edge 48, Type (0, 0), None
#     Edge 49, Type (0, 0), None
#     Edge 50, Type (0, 0), None
#     Edge 51, Type (0, 0), None
#     Edge 52, Type (0, 0), None
#     Edge 53, Type (0, 0), None
#     Edge 54, Type (0, 0), None
#     Edge 55, Type (0, 0), None
# Relax obj value: 0.400
# Max RMSD: 0.235
# Mean RMSD: 0.228
data_MOF--net-fnk--node1-XOMCOT_clean_sbu_0--edge1-none
_symmetry_space_group_name_H-M    P1
_symmetry_Int_Tables_number       1
_symmetry_cell_setting            triclinic
loop_
_symmetry_equiv_pos_as_xyz
'x, y, z'
_cell_length_a     24.062322
_cell_length_b     25.273995
_cell_length_c     25.058964
_cell_angle_alpha  89.999856
_cell_angle_beta   90.777305
_cell_angle_gamma 89.99484
loop_
_atom_site_label
_atom_site_type_symbol
_atom_site_fract_x
_atom_site_fract_y
_atom_site_fract_z
_atom_type_partial_charge
Co0 Co 0.1314 0.36638 0.26492 0.0
C1 C 0.22087 0.29437 0.29452 0.0
C2 C 0.14682 0.27444 0.33642 0.0
C3 C 0.18174 0.23119 0.33732 0.0
N4 N 0.1705 0.31372 0.30794 0.0
N5 N 0.22751 0.24363 0.30971 0.0
H6 H 0.2493 0.31472 0.2686 0.0
H7 H 0.1046 0.27428 0.35046 0.0
C8 C 0.17825 0.47719 0.29207 0.0
O9 O 0.18325 0.49787 0.24431 0.0
N10 N 0.09316 0.41437 0.21856 0.0
C11 C 0.08386 0.4087 0.16537 0.0
C12 C 0.0615 0.4546 0.14562 0.0
C13 C 0.07158 0.46088 0.2313 0.0
N14 N 0.0551 0.48674 0.18752 0.0
C15 C 0.16805 0.30249 0.17938 0.0
C16 C 0.21683 0.38386 0.12309 0.0
C17 C 0.19578 0.33998 0.09492 0.0
C18 C 0.17632 0.29684 0.12462 0.0
C19 C 0.20881 0.38738 0.17843 0.0
N20 N 0.17891 0.34949 0.2043 0.0
H21 H 0.14633 0.27153 0.20032 0.0
H22 H 0.22048 0.42323 0.19855 0.0
H23 H 0.09262 0.37385 0.14221 0.0
H24 H 0.06922 0.47579 0.27128 0.0
O25 O 0.06936 0.31774 0.25059 0.0
O26 O 0.07421 0.37412 0.31772 0.0
O27 O 0.18074 0.42612 0.29773 0.0
C28 C 0.04513 0.33955 0.29133 0.0
H29 H 0.17173 0.19234 0.35253 0.0
H30 H 0.0496 0.46328 0.10474 0.0
H31 H 0.2336 0.41762 0.10212 0.0
H32 H 0.16177 0.26119 0.10492 0.0
Co33 Co 0.66611 0.08295 0.26522 0.0
C34 C 0.75537 0.1571 0.28402 0.0
C35 C 0.68666 0.17438 0.3347 0.0
C36 C 0.7204 0.2185 0.33255 0.0
N37 N 0.70806 0.13622 0.30335 0.0
N38 N 0.76282 0.20752 0.29979 0.0
H39 H 0.78072 0.13779 0.25469 0.0
H40 H 0.64658 0.17262 0.35356 0.0
C41 C 0.53873 0.12656 0.27455 0.0
O42 O 0.5261 0.12379 0.22352 0.0
N43 N 0.62799 0.03109 0.22269 0.0
C44 C 0.64286 0.01076 0.17474 0.0
C45 C 0.59667 0.98886 0.15002 0.0
C46 C 0.57522 0.01852 0.22788 0.0
N47 N 0.5546 -0.00422 0.18366 0.0
C48 C 0.71992 0.10937 0.16856 0.0
C49 C 0.63677 0.17103 0.12437 0.0
C50 C 0.67716 0.14919 0.09078 0.0
C51 C 0.72127 0.12144 0.11443 0.0
C52 C 0.63759 0.15845 0.17913 0.0
N53 N 0.67575 0.12351 0.19918 0.0
H54 H 0.75192 0.08369 0.18433 0.0
H55 H 0.6066 0.17524 0.20449 0.0
H56 H 0.68369 0.01315 0.15768 0.0
H57 H 0.55178 0.02673 0.26316 0.0
O58 O 0.73023 0.0329 0.26246 0.0
O59 O 0.67067 0.03532 0.32631 0.0
O60 O 0.5899 0.11783 0.29057 0.0
C61 C 0.70955 0.00891 0.30378 0.0
H62 H 0.71213 0.2565 0.35064 0.0
H63 H 0.59372 0.97113 0.11078 0.0
H64 H 0.60299 0.19458 0.10809 0.0
H65 H 0.75454 0.10558 0.09051 0.0
Co66 Co 0.91344 0.63477 0.23959 0.0
C67 C 0.83376 0.71414 0.29379 0.0
C68 C 0.7982 0.65341 0.24445 0.0
C69 C 0.75656 0.68646 0.25846 0.0
N70 N 0.84727 0.67062 0.26483 0.0
N71 N 0.77823 0.72462 0.28937 0.0
H72 H 0.86294 0.73676 0.31781 0.0
H73 H 0.79264 0.61829 0.22044 0.0
C74 C 0.87259 0.51302 0.25353 0.0
O75 O 0.89896 0.49165 0.21339 0.0
N76 N 0.97486 0.60008 0.2087 0.0
C77 C 0.99909 0.61291 0.16197 0.0
C78 C 0.03404 0.57266 0.14783 0.0
C79 C 0.99719 0.55466 0.22401 0.0
N80 N 0.0319 0.53687 0.18717 0.0
C81 C 0.88596 0.68855 0.14195 0.0
C82 C 0.8527 0.60036 0.08496 0.0
C83 C 0.85966 0.64825 0.05746 0.0
C84 C 0.87569 0.69305 0.08682 0.0
C85 C 0.86428 0.59744 0.13954 0.0
N86 N 0.88228 0.64071 0.16721 0.0
H87 H 0.89989 0.72295 0.16396 0.0
H88 H 0.8602 0.55998 0.15885 0.0
H89 H 0.99003 0.64774 0.13847 0.0
H90 H 0.98518 0.53337 0.2589 0.0
O91 O 0.9641 0.69718 0.24234 0.0
O92 O 0.95471 0.64094 0.30719 0.0
O93 O 0.87399 0.56385 0.26148 0.0
C94 C 0.98385 0.67945 0.28785 0.0
H95 H 0.71265 0.68076 0.2503 0.0
H96 H 0.05764 0.56902 0.11156 0.0
H97 H 0.84069 0.56456 0.064 0.0
H98 H 0.88109 0.73089 0.0673 0.0
Co99 Co 0.40343 0.8649 0.23459 0.0
C100 C 0.48276 0.93189 0.17667 0.0
C101 C 0.43534 0.96927 0.23627 0.0
C102 C 0.46216 0.00722 0.209 0.0
N103 N 0.44307 0.92398 0.2128 0.0
N104 N 0.49863 0.98293 0.17681 0.0
H105 H 0.5059 0.9003 0.15814 0.0
H106 H 0.41974 0.9706 0.27591 0.0
C107 C 0.30251 0.95338 0.26796 0.0
O108 O 0.2494 0.94257 0.27209 0.0
N109 N 0.36174 0.80223 0.25222 0.0
C110 C 0.36494 0.75809 0.22238 0.0
C111 C 0.31804 0.72839 0.2295 0.0
C112 C 0.31275 0.79807 0.27794 0.0
N113 N 0.28474 0.75334 0.26424 0.0
C114 C 0.41311 0.83367 0.12555 0.0
C115 C 0.30959 0.86608 0.08914 0.0
C116 C 0.34639 0.84322 0.05273 0.0
C117 C 0.39861 0.82676 0.07198 0.0
C118 C 0.32562 0.87178 0.14308 0.0
N119 N 0.37737 0.85649 0.16055 0.0
H120 H 0.45371 0.82076 0.13879 0.0
H121 H 0.29605 0.88844 0.17024 0.0
H122 H 0.39844 0.74889 0.19563 0.0
H123 H 0.29805 0.82669 0.3066 0.0
O124 O 0.47521 0.82539 0.23346 0.0
O125 O 0.44452 0.86575 0.30401 0.0
O126 O 0.33524 0.91421 0.25401 0.0
C127 C 0.48553 0.84031 0.28228 0.0
H128 H 0.46629 0.0471 0.22338 0.0
H129 H 0.31094 0.68895 0.21398 0.0
H130 H 0.26881 0.87932 0.07614 0.0
H131 H 0.42913 0.80999 0.04547 0.0
Co132 Co 0.11611 0.63478 0.34954 0.0
C133 C 0.19567 0.71404 0.29507 0.0
C134 C 0.23134 0.65346 0.34457 0.0
C135 C 0.27299 0.6864 0.33029 0.0
N136 N 0.18223 0.67064 0.32423 0.0
N137 N 0.25123 0.72441 0.29926 0.0
H138 H 0.16645 0.73661 0.27105 0.0
H139 H 0.23694 0.61842 0.36868 0.0
C140 C 0.15696 0.51304 0.3356 0.0
O141 O 0.13053 0.49167 0.3757 0.0
N142 N 0.05473 0.60007 0.38048 0.0
C143 C 0.03058 0.61283 0.42727 0.0
C144 C 0.99559 0.5726 0.44136 0.0
C145 C 0.03232 0.55472 0.36509 0.0
N146 N 0.9976 0.53691 0.40191 0.0
C147 C 0.14368 0.68856 0.44717 0.0
C148 C 0.17696 0.60035 0.50413 0.0
C149 C 0.17002 0.64823 0.53164 0.0
C150 C 0.15398 0.69305 0.5023 0.0
C151 C 0.16534 0.59744 0.44955 0.0
N152 N 0.14734 0.64073 0.42189 0.0
H153 H 0.12974 0.72297 0.42517 0.0
H154 H 0.1694 0.55999 0.43024 0.0
H155 H 0.03972 0.64759 0.45085 0.0
H156 H 0.04431 0.53348 0.33016 0.0
O157 O 0.06542 0.69718 0.34685 0.0
O158 O 0.07478 0.64091 0.28197 0.0
O159 O 0.15559 0.56388 0.32766 0.0
C160 C 0.04566 0.67941 0.30136 0.0
H161 H 0.31691 0.68072 0.33839 0.0
H162 H 0.97209 0.56888 0.47768 0.0
H163 H 0.18897 0.56454 0.52507 0.0
H164 H 0.1486 0.73089 0.52182 0.0
Co165 Co 0.3635 0.08289 0.32383 0.0
C166 C 0.27431 0.15713 0.30515 0.0
C167 C 0.34297 0.17436 0.2544 0.0
C168 C 0.30929 0.21853 0.25664 0.0
N169 N 0.32156 0.1362 0.28574 0.0
N170 N 0.26693 0.20759 0.28947 0.0
H171 H 0.24897 0.13782 0.33449 0.0
H172 H 0.38302 0.17257 0.23549 0.0
C173 C 0.49088 0.12659 0.31447 0.0
O174 O 0.50353 0.12394 0.3655 0.0
N175 N 0.40159 0.03099 0.36637 0.0
C176 C 0.38652 0.01048 0.41417 0.0
C177 C 0.43264 0.98864 0.43907 0.0
C178 C 0.45446 0.01862 0.36144 0.0
N179 N 0.47491 -0.00419 0.4057 0.0
C180 C 0.30978 0.10926 0.42055 0.0
C181 C 0.39288 0.17103 0.46466 0.0
C182 C 0.35255 0.14915 0.49828 0.0
C183 C 0.30846 0.12135 0.47467 0.0
C184 C 0.39204 0.15842 0.4099 0.0
N185 N 0.35391 0.12343 0.38989 0.0
H186 H 0.27779 0.08357 0.40481 0.0
H187 H 0.42296 0.17526 0.3845 0.0
H188 H 0.34558 0.01271 0.43102 0.0
H189 H 0.47804 0.02688 0.32627 0.0
O190 O 0.29934 0.0329 0.32661 0.0
O191 O 0.35887 0.03525 0.26273 0.0
O192 O 0.43972 0.11773 0.29847 0.0
C193 C 0.31999 0.00887 0.28529 0.0
H194 H 0.31759 0.25654 0.23858 0.0
H195 H 0.43541 0.97075 0.47825 0.0
H196 H 0.42664 0.19462 0.48091 0.0
H197 H 0.27522 0.10548 0.49862 0.0
Co198 Co 0.89827 0.36636 0.32422 0.0
C199 C 0.80883 0.29431 0.29468 0.0
C200 C 0.88287 0.2744 0.25274 0.0
C201 C 0.84799 0.23112 0.25192 0.0
N202 N 0.85917 0.31369 0.28121 0.0
N203 N 0.80227 0.24354 0.2796 0.0
H204 H 0.78038 0.31468 0.32058 0.0
H205 H 0.92507 0.27427 0.23866 0.0
C206 C 0.85136 0.47716 0.29708 0.0
O207 O 0.84641 0.49784 0.34484 0.0
N208 N 0.9365 0.41434 0.37057 0.0
C209 C 0.94582 0.40869 0.42376 0.0
C210 C 0.96816 0.45459 0.4435 0.0
C211 C 0.95807 0.46085 0.35782 0.0
N212 N 0.97457 0.48672 0.40158 0.0
C213 C 0.86165 0.30247 0.40978 0.0
C214 C 0.81287 0.38385 0.46608 0.0
C215 C 0.83393 0.33996 0.49425 0.0
C216 C 0.85339 0.29682 0.46454 0.0
C217 C 0.82088 0.38736 0.41074 0.0
N218 N 0.85077 0.34947 0.38486 0.0
H219 H 0.88337 0.27151 0.38884 0.0
H220 H 0.8092 0.42321 0.39062 0.0
H221 H 0.93706 0.37385 0.44693 0.0
H222 H 0.96038 0.47576 0.31784 0.0
O223 O 0.96031 0.31772 0.33855 0.0
O224 O 0.95544 0.37411 0.27141 0.0
O225 O 0.8489 0.42609 0.29141 0.0
C226 C 0.98453 0.33954 0.29782 0.0
H227 H 0.85803 0.19227 0.2367 0.0
H228 H 0.98004 0.4633 0.48438 0.0
H229 H 0.79611 0.4176 0.48705 0.0
H230 H 0.86795 0.26117 0.48424 0.0
Co231 Co 0.62601 0.86493 0.35456 0.0
C232 C 0.54662 0.93179 0.41263 0.0
C233 C 0.59428 0.96938 0.35335 0.0
C234 C 0.56745 0.00725 0.38074 0.0
N235 N 0.58637 0.92397 0.37654 0.0
N236 N 0.53084 0.98286 0.4127 0.0
H237 H 0.52338 0.90015 0.43096 0.0
H238 H 0.60976 0.9708 0.31369 0.0
C239 C 0.72695 0.9534 0.32113 0.0
O240 O 0.78005 0.9425 0.31704 0.0
N241 N 0.66772 0.80231 0.33677 0.0
C242 C 0.66462 0.75812 0.36656 0.0
C243 C 0.71148 0.7284 0.35925 0.0
C244 C 0.71662 0.79818 0.31088 0.0
N245 N 0.7446 0.75341 0.32442 0.0
C246 C 0.61648 0.8336 0.46358 0.0
C247 C 0.72002 0.86598 0.49991 0.0
C248 C 0.68326 0.84311 0.53635 0.0
C249 C 0.63103 0.82666 0.51713 0.0
C250 C 0.70395 0.8717 0.44598 0.0
N251 N 0.65219 0.85642 0.42856 0.0
H252 H 0.57587 0.82071 0.45037 0.0
H253 H 0.73349 0.88838 0.4188 0.0
H254 H 0.63121 0.74889 0.39341 0.0
H255 H 0.73124 0.82685 0.28223 0.0
O256 O 0.55426 0.82537 0.35572 0.0
O257 O 0.58483 0.86588 0.2852 0.0
O258 O 0.69415 0.91429 0.3351 0.0
C259 C 0.54387 0.84038 0.30695 0.0
H260 H 0.56339 0.04719 0.3665 0.0
H261 H 0.71866 0.68894 0.37471 0.0
H262 H 0.76082 0.87921 0.51288 0.0
H263 H 0.60053 0.8099 0.54366 0.0
Co264 Co 0.86358 0.58295 0.82387 0.0
C265 C 0.77431 0.65709 0.80506 0.0
C266 C 0.84303 0.6744 0.75441 0.0
C267 C 0.80928 0.71851 0.75656 0.0
N268 N 0.82163 0.63622 0.78574 0.0
N269 N 0.76685 0.70752 0.78931 0.0
H270 H 0.74896 0.63777 0.83438 0.0
H271 H 0.88312 0.67265 0.73556 0.0
C272 C 0.99095 0.62659 0.81451 0.0
O273 O 1.00359 0.62386 0.86554 0.0
N274 N 0.9017 0.53109 0.86642 0.0
C275 C 0.88677 0.51072 0.91432 0.0
C276 C 0.93294 0.48884 0.9391 0.0
C277 C 0.9545 0.51858 0.86131 0.0
N278 N 0.97507 0.49583 0.90555 0.0
C279 C 0.80978 0.60938 0.92053 0.0
C280 C 0.89292 0.67105 0.96471 0.0
C281 C 0.85255 0.64919 0.9983 0.0
C282 C 0.80844 0.62145 0.97465 0.0
C283 C 0.8921 0.65847 0.90994 0.0
N284 N 0.85394 0.62352 0.8899 0.0
H285 H 0.77778 0.58371 0.90477 0.0
H286 H 0.92307 0.67527 0.88457 0.0
H287 H 0.8459 0.51306 0.93132 0.0
H288 H 0.97798 0.52681 0.82607 0.0
O289 O 0.79945 0.53293 0.82664 0.0
O290 O 0.85901 0.53531 0.76279 0.0
O291 O 0.93979 0.61782 0.79851 0.0
C292 C 0.82013 0.50891 0.78533 0.0
H293 H 0.81754 0.75652 0.7385 0.0
H294 H 0.93583 0.47106 0.97833 0.0
H295 H 0.9267 0.69461 0.98098 0.0
H296 H 0.77517 0.60559 0.99858 0.0
Co297 Co 0.39826 0.86641 0.82419 0.0
C298 C 0.3088 0.79438 0.7946 0.0
C299 C 0.38285 0.77446 0.75269 0.0
C300 C 0.34793 0.73121 0.75179 0.0
N301 N 0.35917 0.81374 0.78118 0.0
N302 N 0.30217 0.74364 0.77941 0.0
H303 H 0.28037 0.81473 0.82053 0.0
H304 H 0.42507 0.77431 0.73864 0.0
C305 C 0.35137 0.97721 0.79704 0.0
O306 O 0.34635 -0.00209 0.84479 0.0
N307 N 0.43649 0.9144 0.87054 0.0
C308 C 0.44581 0.90873 0.92372 0.0
C309 C 0.46817 0.95462 0.94348 0.0
C310 C 0.45805 0.96092 0.8578 0.0
N311 N 0.47455 0.98677 0.90158 0.0
C312 C 0.36165 0.80251 0.90973 0.0
C313 C 0.31285 0.88389 0.96604 0.0
C314 C 0.33393 0.84 0.9942 0.0
C315 C 0.35339 0.79686 0.96449 0.0
C316 C 0.32087 0.8874 0.9107 0.0
N317 N 0.35076 0.84951 0.88482 0.0
H318 H 0.38337 0.77155 0.88879 0.0
H319 H 0.30919 0.92326 0.89058 0.0
H320 H 0.43708 0.87387 0.94688 0.0
H321 H 0.4604 0.97583 0.81783 0.0
O322 O 0.46032 0.81778 0.8385 0.0
O323 O 0.45543 0.87417 0.77137 0.0
O324 O 0.34888 0.92614 0.79139 0.0
C325 C 0.48453 0.83959 0.79776 0.0
H326 H 0.35796 0.69237 0.73656 0.0
H327 H 0.4801 0.9633 0.98435 0.0
H328 H 0.29608 0.91764 0.98701 0.0
H329 H 0.36796 0.76121 0.9842 0.0
Co330 Co 0.12621 0.36492 0.85455 0.0
C331 C 0.04686 0.43188 0.91251 0.0
C332 C 0.09435 0.46932 0.853 0.0
C333 C 0.06754 0.50725 0.88031 0.0
N334 N 0.08656 0.42399 0.87639 0.0
N335 N 0.03103 0.48293 0.91244 0.0
H336 H 0.02369 0.40028 0.93099 0.0
H337 H 0.10992 0.47068 0.81336 0.0
C338 C 0.22713 0.45339 0.82115 0.0
O339 O 0.28024 0.44254 0.81703 0.0
N340 N 0.16791 0.30226 0.83689 0.0
C341 C 0.16472 0.25811 0.86671 0.0
C342 C 0.21162 0.22841 0.85958 0.0
C343 C 0.2169 0.29809 0.81116 0.0
N344 N 0.24492 0.25337 0.82485 0.0
C345 C 0.11657 0.33367 0.96359 0.0
C346 C 0.22009 0.36606 0.99997 0.0
C347 C 0.18331 0.34321 1.03639 0.0
C348 C 0.13109 0.32675 1.01715 0.0
C349 C 0.20405 0.37178 0.94604 0.0
N350 N 0.1523 0.35648 0.92858 0.0
H351 H 0.07597 0.32076 0.95035 0.0
H352 H 0.23361 0.38844 0.91887 0.0
H353 H 0.13122 0.2489 0.89346 0.0
H354 H 0.23159 0.32673 0.78251 0.0
O355 O 0.05444 0.3254 0.85569 0.0
O356 O 0.08509 0.36578 0.78514 0.0
O357 O 0.19439 0.41424 0.83511 0.0
C358 C 0.0441 0.34033 0.80688 0.0
H359 H 0.06343 0.54715 0.86598 0.0
H360 H 0.21873 0.18896 0.8751 0.0
H361 H 0.26088 0.3793 1.01296 0.0
H362 H 0.10057 0.30998 1.04366 0.0
Co363 Co 0.61624 0.13475 0.84949 0.0
C364 C 0.69591 0.21412 0.79529 0.0
C365 C 0.73148 0.15336 0.8446 0.0
C366 C 0.77312 0.1864 0.83058 0.0
N367 N 0.68241 0.17059 0.82424 0.0
N368 N 0.75144 0.22458 0.7997 0.0
H369 H 0.66672 0.23676 0.77129 0.0
H370 H 0.73705 0.11823 0.8686 0.0
C371 C 0.65708 0.01299 0.83556 0.0
O372 O 0.63068 -0.00837 0.87569 0.0
N373 N 0.55482 0.10007 0.8804 0.0
C374 C 0.53062 0.1129 0.92714 0.0
C375 C 0.49565 0.07267 0.94128 0.0
C376 C 0.53246 0.05467 0.86508 0.0
N377 N 0.49776 0.03689 0.90192 0.0
C378 C 0.64374 0.18853 0.94713 0.0
C379 C 0.67701 0.10034 1.00412 0.0
C380 C 0.67006 0.14823 1.03161 0.0
C381 C 0.65402 0.19304 1.00225 0.0
C382 C 0.66542 0.09742 0.94954 0.0
N383 N 0.64742 0.1407 0.92187 0.0
H384 H 0.62982 0.22294 0.92512 0.0
H385 H 0.66949 0.05996 0.93024 0.0
H386 H 0.5397 0.14772 0.95065 0.0
H387 H 0.54445 0.03338 0.83017 0.0
O388 O 0.56558 0.19716 0.84675 0.0
O389 O 0.57496 0.14092 0.7819 0.0
O390 O 0.65569 0.06383 0.82762 0.0
C391 C 0.54582 0.17943 0.80124 0.0
H392 H 0.81703 0.18069 0.83872 0.0
H393 H 0.47206 0.06904 0.97756 0.0
H394 H 0.68902 0.06454 1.02508 0.0
H395 H 0.64863 0.23088 1.02177 0.0
Co396 Co 0.90363 0.36494 0.73458 0.0
C397 C 0.98296 0.43186 0.67654 0.0
C398 C 0.93544 0.46934 0.73597 0.0
C399 C 0.96223 0.50723 0.70858 0.0
N400 N 0.94327 0.42399 0.71267 0.0
N401 N 0.9988 0.48292 0.67649 0.0
H402 H 1.00612 0.40023 0.6581 0.0
H403 H 0.91992 0.47075 0.77562 0.0
C404 C 0.8027 0.45341 0.768 0.0
O405 O 0.7496 0.44255 0.77211 0.0
N406 N 0.86192 0.30231 0.75232 0.0
C407 C 0.86503 0.25813 0.7225 0.0
C408 C 0.81818 0.2284 0.72981 0.0
C409 C 0.81303 0.29816 0.77822 0.0
N410 N 0.78505 0.25339 0.76466 0.0
C411 C 0.9132 0.33364 0.62555 0.0
C412 C 0.80967 0.36606 0.58921 0.0
C413 C 0.84643 0.34319 0.55277 0.0
C414 C 0.89866 0.32671 0.57199 0.0
C415 C 0.82573 0.37177 0.64313 0.0
N416 N 0.87749 0.35647 0.66057 0.0
H417 H 0.9538 0.32072 0.63877 0.0
H418 H 0.79618 0.38845 0.67031 0.0
H419 H 0.89844 0.24891 0.69565 0.0
H420 H 0.79841 0.32681 0.80688 0.0
O421 O 0.97539 0.32539 0.73342 0.0
O422 O 0.94478 0.36584 0.80397 0.0
O423 O 0.83547 0.41428 0.75404 0.0
C424 C 0.98576 0.34037 0.78221 0.0
H425 H 0.9663 0.54716 0.72285 0.0
H426 H 0.81101 0.18895 0.71433 0.0
H427 H 0.76888 0.37931 0.57623 0.0
H428 H 0.92916 0.30994 0.54548 0.0
Co429 Co 0.63141 0.86636 0.76487 0.0
C430 C 0.72084 0.79431 0.79446 0.0
C431 C 0.64676 0.77437 0.83632 0.0
C432 C 0.68164 0.73109 0.83714 0.0
N433 N 0.67047 0.81368 0.8079 0.0
N434 N 0.72738 0.74353 0.80951 0.0
H435 H 0.7493 0.8147 0.76859 0.0
H436 H 0.60454 0.77423 0.85036 0.0
C437 C 0.67835 0.97714 0.79202 0.0
O438 O 0.68337 -0.00217 0.74428 0.0
N439 N 0.59321 0.91436 0.7185 0.0
C440 C 0.58388 0.90867 0.66532 0.0
C441 C 0.56155 0.95457 0.64555 0.0
C442 C 0.57168 0.9609 0.73122 0.0
N443 N 0.5552 0.98675 0.68743 0.0
C444 C 0.66804 0.80244 0.67935 0.0
C445 C 0.71683 0.88379 0.62303 0.0
C446 C 0.69575 0.8399 0.59487 0.0
C447 C 0.6763 0.79676 0.62459 0.0
C448 C 0.70882 0.88732 0.67836 0.0
N449 N 0.67892 0.84943 0.70425 0.0
H450 H 0.64631 0.77148 0.7003 0.0
H451 H 0.72049 0.92317 0.69848 0.0
H452 H 0.59259 0.8738 0.64218 0.0
H453 H 0.56934 0.97583 0.77119 0.0
O454 O 0.56935 0.81775 0.75054 0.0
O455 O 0.57423 0.87415 0.81767 0.0
O456 O 0.6808 0.92607 0.79768 0.0
C457 C 0.54513 0.8396 0.79126 0.0
H458 H 0.6716 0.69222 0.85231 0.0
H459 H 0.54961 0.96323 0.60467 0.0
H460 H 0.73359 0.91753 0.60204 0.0
H461 H 0.66173 0.76112 0.6049 0.0
Co462 Co 0.16618 0.58291 0.76525 0.0
C463 C 0.25538 0.65715 0.78394 0.0
C464 C 0.18672 0.67437 0.8347 0.0
C465 C 0.22039 0.71854 0.83248 0.0
N466 N 0.20813 0.63621 0.80334 0.0
N467 N 0.26276 0.7076 0.79964 0.0
H468 H 0.28071 0.63785 0.75459 0.0
H469 H 0.14667 0.67257 0.85362 0.0
C470 C 0.03881 0.62659 0.7746 0.0
O471 O 0.02616 0.62388 0.72357 0.0
N472 N 0.12808 0.53101 0.72273 0.0
C473 C 0.14309 0.51056 0.67488 0.0
C474 C 0.09696 0.48872 0.65003 0.0
C475 C 0.07524 0.51858 0.72773 0.0
N476 N 0.05475 0.4958 0.68348 0.0
C477 C 0.21992 0.60928 0.66854 0.0
C478 C 0.13681 0.67103 0.62442 0.0
C479 C 0.17714 0.64915 0.5908 0.0
C480 C 0.22125 0.62137 0.61442 0.0
C481 C 0.13764 0.65843 0.67917 0.0
N482 N 0.17578 0.62344 0.69919 0.0
H483 H 0.25192 0.58359 0.68429 0.0
H484 H 0.1067 0.67526 0.70457 0.0
H485 H 0.18401 0.51284 0.65797 0.0
H486 H 0.0517 0.52684 0.76293 0.0
O487 O 0.23034 0.53289 0.76249 0.0
O488 O 0.17079 0.53528 0.82636 0.0
O489 O 0.08997 0.61777 0.79061 0.0
C490 C 0.20967 0.50888 0.8038 0.0
H491 H 0.2121 0.75653 0.85055 0.0
H492 H 0.09413 0.47089 0.61082 0.0
H493 H 0.10304 0.69462 0.60816 0.0
H494 H 0.2545 0.60549 0.59048 0.0
Co495 Co 0.41357 0.13478 0.73955 0.0
C496 C 0.33399 0.21406 0.79403 0.0
C497 C 0.29833 0.15349 0.74451 0.0
C498 C 0.25668 0.18644 0.75878 0.0
N499 N 0.34744 0.17066 0.76486 0.0
N500 N 0.27844 0.22444 0.78983 0.0
H501 H 0.36321 0.23661 0.81806 0.0
H502 H 0.29273 0.11846 0.72039 0.0
C503 C 0.37268 0.01305 0.7535 0.0
O504 O 0.39909 -0.00835 0.7134 0.0
N505 N 0.47495 0.10007 0.70861 0.0
C506 C 0.49912 0.11288 0.66185 0.0
C507 C 0.53408 0.07263 0.64771 0.0
C508 C 0.49731 0.05467 0.72394 0.0
N509 N 0.53199 0.03687 0.68708 0.0
C510 C 0.38601 0.18856 0.64192 0.0
C511 C 0.35275 0.10035 0.58496 0.0
C512 C 0.35968 0.14823 0.55745 0.0
C513 C 0.37572 0.19305 0.58679 0.0
C514 C 0.36435 0.09745 0.63955 0.0
N515 N 0.38234 0.14073 0.6672 0.0
H516 H 0.39994 0.22298 0.66391 0.0
H517 H 0.36029 0.05999 0.65885 0.0
H518 H 0.49004 0.14769 0.63833 0.0
H519 H 0.48534 0.0334 0.75886 0.0
O520 O 0.46425 0.19718 0.74225 0.0
O521 O 0.45489 0.14091 0.80713 0.0
O522 O 0.37409 0.06388 0.76144 0.0
C523 C 0.48401 0.17941 0.78773 0.0
H524 H 0.21277 0.18078 0.75067 0.0
H525 H 0.55765 0.06898 0.61141 0.0
H526 H 0.34075 0.06454 0.56402 0.0
H527 H 0.38109 0.23089 0.56726 0.0
loop_
_geom_bond_atom_site_label_1
_geom_bond_atom_site_label_2
_geom_bond_distance
_geom_bond_site_symmetry_2
_ccdc_geom_bond_type
Co0 N4 2.148 . S
Co0 N10 2.128 . S
Co0 N20 2.194 . S
Co0 O25 2.351 . S
Co0 O26 2.155 . S
Co0 O27 2.096 . S
C1 N4 1.301 . S
C1 N5 1.328 . S
C1 H6 0.930 . S
C2 C3 1.333 . S
C2 N4 1.317 . S
C2 H7 0.930 . S
C3 C2 1.333 . S
C3 N5 1.350 . S
C3 H29 0.931 . S
N4 Co0 2.148 . S
N4 C1 1.301 . S
N4 C2 1.317 . S
N5 C1 1.328 . S
N5 C3 1.350 . S
H6 C1 0.930 . S
H7 C2 0.930 . S
C8 O9 1.224 . S
C8 O27 1.247 . S
O9 C8 1.224 . S
N10 Co0 2.128 . S
N10 C11 1.355 . S
N10 C13 1.311 . S
C11 N10 1.355 . S
C11 C12 1.363 1_455 S
C11 H23 0.929 . S
C12 C11 1.363 1_655 S
C12 N14 1.375 . S
C12 H30 0.931 . S
C13 N10 1.311 . S
C13 N14 1.347 1_455 S
C13 H24 0.929 . S
N14 C12 1.375 . S
N14 C13 1.347 1_655 S
C15 C18 1.365 . S
C15 N20 1.328 . S
C15 H21 0.929 . S
C16 C17 1.362 . S
C16 C19 1.378 . S
C16 H31 0.929 . S
C17 C16 1.362 . S
C17 C18 1.366 . S
C18 C15 1.365 . S
C18 C17 1.366 . S
C18 H32 0.930 . S
C19 C16 1.378 . S
C19 N20 1.315 . S
C19 H22 0.930 . S
N20 Co0 2.194 . S
N20 C15 1.328 . S
N20 C19 1.315 . S
H21 C15 0.929 . S
H22 C19 0.930 . S
H23 C11 0.929 . S
H24 C13 0.929 . S
O25 Co0 2.351 . S
O25 C28 1.244 . S
O26 Co0 2.155 . S
O26 C28 1.240 . S
O27 Co0 2.096 . S
O27 C8 1.247 . S
C28 O25 1.244 . S
C28 O26 1.240 . S
H29 C3 0.931 . S
H30 C12 0.931 . S
H31 C16 0.929 . S
H32 C18 0.930 . S
Co33 N37 2.148 . S
Co33 N43 2.128 . S
Co33 N53 2.194 . S
Co33 O58 2.351 . S
Co33 O59 2.155 . S
Co33 O60 2.096 . S
C34 N37 1.301 . S
C34 N38 1.328 . S
C34 H39 0.930 . S
C35 C36 1.333 . S
C35 N37 1.317 . S
C35 H40 0.930 . S
C36 C35 1.333 . S
C36 N38 1.350 . S
C36 H62 0.931 . S
N37 Co33 2.148 . S
N37 C34 1.301 . S
N37 C35 1.317 . S
N38 C34 1.328 . S
N38 C36 1.350 . S
H39 C34 0.930 . S
H40 C35 0.930 . S
C41 O42 1.224 . S
C41 O60 1.247 . S
O42 C41 1.224 . S
N43 Co33 2.128 . S
N43 C44 1.355 . S
N43 C46 1.311 . S
C44 N43 1.355 . S
C44 C45 1.363 1_545 S
C44 H56 0.929 . S
C45 C44 1.363 1_565 S
C45 N47 1.375 . S
C45 H63 0.931 . S
C46 N43 1.311 . S
C46 N47 1.347 1_545 S
C46 H57 0.929 . S
N47 C45 1.375 . S
N47 C46 1.347 1_565 S
C48 C51 1.365 . S
C48 N53 1.328 . S
C48 H54 0.929 . S
C49 C50 1.362 . S
C49 C52 1.378 . S
C49 H64 0.929 . S
C50 C49 1.362 . S
C50 C51 1.366 . S
C51 C48 1.365 . S
C51 C50 1.366 . S
C51 H65 0.930 . S
C52 C49 1.378 . S
C52 N53 1.315 . S
C52 H55 0.930 . S
N53 Co33 2.194 . S
N53 C48 1.328 . S
N53 C52 1.315 . S
H54 C48 0.929 . S
H55 C52 0.930 . S
H56 C44 0.929 . S
H57 C46 0.929 . S
O58 Co33 2.351 . S
O58 C61 1.244 . S
O59 Co33 2.155 . S
O59 C61 1.240 . S
O60 Co33 2.096 . S
O60 C41 1.247 . S
C61 O58 1.244 . S
C61 O59 1.240 . S
H62 C36 0.931 . S
H63 C45 0.931 . S
H64 C49 0.929 . S
H65 C51 0.930 . S
Co66 N70 2.148 . S
Co66 N76 2.128 . S
Co66 N86 2.194 . S
Co66 O91 2.351 . S
Co66 O92 2.155 . S
Co66 O93 2.096 . S
C67 N70 1.301 . S
C67 N71 1.328 . S
C67 H72 0.930 . S
C68 C69 1.333 . S
C68 N70 1.317 . S
C68 H73 0.930 . S
C69 C68 1.333 . S
C69 N71 1.350 . S
C69 H95 0.931 . S
N70 Co66 2.148 . S
N70 C67 1.301 . S
N70 C68 1.317 . S
N71 C67 1.328 . S
N71 C69 1.350 . S
H72 C67 0.930 . S
H73 C68 0.930 . S
C74 O75 1.224 . S
C74 O93 1.247 . S
O75 C74 1.224 . S
N76 Co66 2.128 . S
N76 C77 1.355 . S
N76 C79 1.311 . S
C77 N76 1.355 . S
C77 C78 1.363 1_655 S
C77 H89 0.929 . S
C78 C77 1.363 1_455 S
C78 N80 1.375 . S
C78 H96 0.931 . S
C79 N76 1.311 . S
C79 N80 1.347 1_655 S
C79 H90 0.929 . S
N80 C78 1.375 . S
N80 C79 1.347 1_455 S
C81 C84 1.365 . S
C81 N86 1.328 . S
C81 H87 0.929 . S
C82 C83 1.362 . S
C82 C85 1.378 . S
C82 H97 0.929 . S
C83 C82 1.362 . S
C83 C84 1.366 . S
C84 C81 1.365 . S
C84 C83 1.366 . S
C84 H98 0.930 . S
C85 C82 1.378 . S
C85 N86 1.315 . S
C85 H88 0.930 . S
N86 Co66 2.194 . S
N86 C81 1.328 . S
N86 C85 1.315 . S
H87 C81 0.929 . S
H88 C85 0.930 . S
H89 C77 0.929 . S
H90 C79 0.929 . S
O91 Co66 2.351 . S
O91 C94 1.244 . S
O92 Co66 2.155 . S
O92 C94 1.240 . S
O93 Co66 2.096 . S
O93 C74 1.247 . S
C94 O91 1.244 . S
C94 O92 1.240 . S
H95 C69 0.931 . S
H96 C78 0.931 . S
H97 C82 0.929 . S
H98 C84 0.930 . S
Co99 N103 2.148 . S
Co99 N109 2.128 . S
Co99 N119 2.194 . S
Co99 O124 2.351 . S
Co99 O125 2.155 . S
Co99 O126 2.096 . S
C100 N103 1.301 . S
C100 N104 1.328 1_565 S
C100 H105 0.930 . S
C101 C102 1.333 . S
C101 N103 1.317 1_545 S
C101 H106 0.930 . S
C102 C101 1.333 . S
C102 N104 1.350 . S
C102 H128 0.931 . S
N103 Co99 2.148 . S
N103 C100 1.301 . S
N103 C101 1.317 1_565 S
N104 C100 1.328 1_545 S
N104 C102 1.350 . S
H105 C100 0.930 . S
H106 C101 0.930 . S
C107 O108 1.224 . S
C107 O126 1.247 . S
O108 C107 1.224 . S
N109 Co99 2.128 . S
N109 C110 1.355 . S
N109 C112 1.311 . S
C110 N109 1.355 . S
C110 C111 1.363 . S
C110 H122 0.929 . S
C111 C110 1.363 . S
C111 N113 1.375 . S
C111 H129 0.931 . S
C112 N109 1.311 . S
C112 N113 1.347 . S
C112 H123 0.929 . S
N113 C111 1.375 . S
N113 C112 1.347 . S
C114 C117 1.365 . S
C114 N119 1.328 . S
C114 H120 0.929 . S
C115 C116 1.362 . S
C115 C118 1.378 . S
C115 H130 0.929 . S
C116 C115 1.362 . S
C116 C117 1.366 . S
C117 C114 1.365 . S
C117 C116 1.366 . S
C117 H131 0.930 . S
C118 C115 1.378 . S
C118 N119 1.315 . S
C118 H121 0.930 . S
N119 Co99 2.194 . S
N119 C114 1.328 . S
N119 C118 1.315 . S
H120 C114 0.929 . S
H121 C118 0.930 . S
H122 C110 0.929 . S
H123 C112 0.929 . S
O124 Co99 2.351 . S
O124 C127 1.244 . S
O125 Co99 2.155 . S
O125 C127 1.240 . S
O126 Co99 2.096 . S
O126 C107 1.247 . S
C127 O124 1.244 . S
C127 O125 1.240 . S
H128 C102 0.931 . S
H129 C111 0.931 . S
H130 C115 0.929 . S
H131 C117 0.930 . S
Co132 N136 2.148 . S
Co132 N142 2.128 . S
Co132 N152 2.194 . S
Co132 O157 2.351 . S
Co132 O158 2.155 . S
Co132 O159 2.096 . S
C133 N136 1.301 . S
C133 N137 1.328 . S
C133 H138 0.930 . S
C134 C135 1.333 . S
C134 N136 1.317 . S
C134 H139 0.930 . S
C135 C134 1.333 . S
C135 N137 1.350 . S
C135 H161 0.931 . S
N136 Co132 2.148 . S
N136 C133 1.301 . S
N136 C134 1.317 . S
N137 C133 1.328 . S
N137 C135 1.350 . S
H138 C133 0.930 . S
H139 C134 0.930 . S
C140 O141 1.224 . S
C140 O159 1.247 . S
O141 C140 1.224 . S
N142 Co132 2.128 . S
N142 C143 1.355 . S
N142 C145 1.311 . S
C143 N142 1.355 . S
C143 C144 1.363 1_455 S
C143 H155 0.929 . S
C144 C143 1.363 1_655 S
C144 N146 1.375 . S
C144 H162 0.931 . S
C145 N142 1.311 . S
C145 N146 1.347 1_455 S
C145 H156 0.929 . S
N146 C144 1.375 . S
N146 C145 1.347 1_655 S
C147 C150 1.365 . S
C147 N152 1.328 . S
C147 H153 0.929 . S
C148 C149 1.362 . S
C148 C151 1.378 . S
C148 H163 0.929 . S
C149 C148 1.362 . S
C149 C150 1.366 . S
C150 C147 1.365 . S
C150 C149 1.366 . S
C150 H164 0.930 . S
C151 C148 1.378 . S
C151 N152 1.315 . S
C151 H154 0.930 . S
N152 Co132 2.194 . S
N152 C147 1.328 . S
N152 C151 1.315 . S
H153 C147 0.929 . S
H154 C151 0.930 . S
H155 C143 0.929 . S
H156 C145 0.929 . S
O157 Co132 2.351 . S
O157 C160 1.244 . S
O158 Co132 2.155 . S
O158 C160 1.240 . S
O159 Co132 2.096 . S
O159 C140 1.247 . S
C160 O157 1.244 . S
C160 O158 1.240 . S
H161 C135 0.931 . S
H162 C144 0.931 . S
H163 C148 0.929 . S
H164 C150 0.930 . S
Co165 N169 2.148 . S
Co165 N175 2.128 . S
Co165 N185 2.194 . S
Co165 O190 2.351 . S
Co165 O191 2.155 . S
Co165 O192 2.096 . S
C166 N169 1.301 . S
C166 N170 1.328 . S
C166 H171 0.930 . S
C167 C168 1.333 . S
C167 N169 1.317 . S
C167 H172 0.930 . S
C168 C167 1.333 . S
C168 N170 1.350 . S
C168 H194 0.931 . S
N169 Co165 2.148 . S
N169 C166 1.301 . S
N169 C167 1.317 . S
N170 C166 1.328 . S
N170 C168 1.350 . S
H171 C166 0.930 . S
H172 C167 0.930 . S
C173 O174 1.224 . S
C173 O192 1.247 . S
O174 C173 1.224 . S
N175 Co165 2.128 . S
N175 C176 1.355 . S
N175 C178 1.311 . S
C176 N175 1.355 . S
C176 C177 1.363 1_545 S
C176 H188 0.929 . S
C177 C176 1.363 1_565 S
C177 N179 1.375 . S
C177 H195 0.931 . S
C178 N175 1.311 . S
C178 N179 1.347 1_545 S
C178 H189 0.929 . S
N179 C177 1.375 . S
N179 C178 1.347 1_565 S
C180 C183 1.365 . S
C180 N185 1.328 . S
C180 H186 0.929 . S
C181 C182 1.362 . S
C181 C184 1.378 . S
C181 H196 0.929 . S
C182 C181 1.362 . S
C182 C183 1.366 . S
C183 C180 1.365 . S
C183 C182 1.366 . S
C183 H197 0.930 . S
C184 C181 1.378 . S
C184 N185 1.315 . S
C184 H187 0.930 . S
N185 Co165 2.194 . S
N185 C180 1.328 . S
N185 C184 1.315 . S
H186 C180 0.929 . S
H187 C184 0.930 . S
H188 C176 0.929 . S
H189 C178 0.929 . S
O190 Co165 2.351 . S
O190 C193 1.244 . S
O191 Co165 2.155 . S
O191 C193 1.240 . S
O192 Co165 2.096 . S
O192 C173 1.247 . S
C193 O190 1.244 . S
C193 O191 1.240 . S
H194 C168 0.931 . S
H195 C177 0.931 . S
H196 C181 0.929 . S
H197 C183 0.930 . S
Co198 N202 2.148 . S
Co198 N208 2.128 . S
Co198 N218 2.194 . S
Co198 O223 2.351 . S
Co198 O224 2.155 . S
Co198 O225 2.096 . S
C199 N202 1.301 . S
C199 N203 1.328 . S
C199 H204 0.930 . S
C200 C201 1.333 . S
C200 N202 1.317 . S
C200 H205 0.930 . S
C201 C200 1.333 . S
C201 N203 1.350 . S
C201 H227 0.931 . S
N202 Co198 2.148 . S
N202 C199 1.301 . S
N202 C200 1.317 . S
N203 C199 1.328 . S
N203 C201 1.350 . S
H204 C199 0.930 . S
H205 C200 0.930 . S
C206 O207 1.224 . S
C206 O225 1.247 . S
O207 C206 1.224 . S
N208 Co198 2.128 . S
N208 C209 1.355 . S
N208 C211 1.311 . S
C209 N208 1.355 . S
C209 C210 1.363 1_655 S
C209 H221 0.929 . S
C210 C209 1.363 1_455 S
C210 N212 1.375 . S
C210 H228 0.931 . S
C211 N208 1.311 . S
C211 N212 1.347 1_655 S
C211 H222 0.929 . S
N212 C210 1.375 . S
N212 C211 1.347 1_455 S
C213 C216 1.365 . S
C213 N218 1.328 . S
C213 H219 0.929 . S
C214 C215 1.362 . S
C214 C217 1.378 . S
C214 H229 0.929 . S
C215 C214 1.362 . S
C215 C216 1.366 . S
C216 C213 1.365 . S
C216 C215 1.366 . S
C216 H230 0.930 . S
C217 C214 1.378 . S
C217 N218 1.315 . S
C217 H220 0.930 . S
N218 Co198 2.194 . S
N218 C213 1.328 . S
N218 C217 1.315 . S
H219 C213 0.929 . S
H220 C217 0.930 . S
H221 C209 0.929 . S
H222 C211 0.929 . S
O223 Co198 2.351 . S
O223 C226 1.244 . S
O224 Co198 2.155 . S
O224 C226 1.240 . S
O225 Co198 2.096 . S
O225 C206 1.247 . S
C226 O223 1.244 . S
C226 O224 1.240 . S
H227 C201 0.931 . S
H228 C210 0.931 . S
H229 C214 0.929 . S
H230 C216 0.930 . S
Co231 N235 2.148 . S
Co231 N241 2.128 . S
Co231 N251 2.194 . S
Co231 O256 2.351 . S
Co231 O257 2.155 . S
Co231 O258 2.096 . S
C232 N235 1.301 . S
C232 N236 1.328 1_565 S
C232 H237 0.930 . S
C233 C234 1.333 . S
C233 N235 1.317 1_545 S
C233 H238 0.930 . S
C234 C233 1.333 . S
C234 N236 1.350 . S
C234 H260 0.931 . S
N235 Co231 2.148 . S
N235 C232 1.301 . S
N235 C233 1.317 1_565 S
N236 C232 1.328 1_545 S
N236 C234 1.350 . S
H237 C232 0.930 . S
H238 C233 0.930 . S
C239 O240 1.224 . S
C239 O258 1.247 . S
O240 C239 1.224 . S
N241 Co231 2.128 . S
N241 C242 1.355 . S
N241 C244 1.311 . S
C242 N241 1.355 . S
C242 C243 1.363 . S
C242 H254 0.929 . S
C243 C242 1.363 . S
C243 N245 1.375 . S
C243 H261 0.931 . S
C244 N241 1.311 . S
C244 N245 1.347 . S
C244 H255 0.929 . S
N245 C243 1.375 . S
N245 C244 1.347 . S
C246 C249 1.365 . S
C246 N251 1.328 . S
C246 H252 0.929 . S
C247 C248 1.362 . S
C247 C250 1.378 . S
C247 H262 0.929 . S
C248 C247 1.362 . S
C248 C249 1.366 . S
C249 C246 1.365 . S
C249 C248 1.366 . S
C249 H263 0.930 . S
C250 C247 1.378 . S
C250 N251 1.315 . S
C250 H253 0.930 . S
N251 Co231 2.194 . S
N251 C246 1.328 . S
N251 C250 1.315 . S
H252 C246 0.929 . S
H253 C250 0.930 . S
H254 C242 0.929 . S
H255 C244 0.929 . S
O256 Co231 2.351 . S
O256 C259 1.244 . S
O257 Co231 2.155 . S
O257 C259 1.240 . S
O258 Co231 2.096 . S
O258 C239 1.247 . S
C259 O256 1.244 . S
C259 O257 1.240 . S
H260 C234 0.931 . S
H261 C243 0.931 . S
H262 C247 0.929 . S
H263 C249 0.930 . S
Co264 N268 2.148 . S
Co264 N274 2.128 . S
Co264 N284 2.194 . S
Co264 O289 2.351 . S
Co264 O290 2.155 . S
Co264 O291 2.096 . S
C265 N268 1.301 . S
C265 N269 1.328 . S
C265 H270 0.930 . S
C266 C267 1.333 . S
C266 N268 1.317 . S
C266 H271 0.930 . S
C267 C266 1.333 . S
C267 N269 1.350 . S
C267 H293 0.931 . S
N268 Co264 2.148 . S
N268 C265 1.301 . S
N268 C266 1.317 . S
N269 C265 1.328 . S
N269 C267 1.350 . S
H270 C265 0.930 . S
H271 C266 0.930 . S
C272 O273 1.224 . S
C272 O291 1.247 . S
O273 C272 1.224 . S
N274 Co264 2.128 . S
N274 C275 1.355 . S
N274 C277 1.311 . S
C275 N274 1.355 . S
C275 C276 1.363 . S
C275 H287 0.929 . S
C276 C275 1.363 . S
C276 N278 1.375 . S
C276 H294 0.931 . S
C277 N274 1.311 . S
C277 N278 1.347 . S
C277 H288 0.929 . S
N278 C276 1.375 . S
N278 C277 1.347 . S
C279 C282 1.365 . S
C279 N284 1.328 . S
C279 H285 0.929 . S
C280 C281 1.362 . S
C280 C283 1.378 . S
C280 H295 0.929 . S
C281 C280 1.362 . S
C281 C282 1.366 . S
C282 C279 1.365 . S
C282 C281 1.366 . S
C282 H296 0.930 . S
C283 C280 1.378 . S
C283 N284 1.315 . S
C283 H286 0.930 . S
N284 Co264 2.194 . S
N284 C279 1.328 . S
N284 C283 1.315 . S
H285 C279 0.929 . S
H286 C283 0.930 . S
H287 C275 0.929 . S
H288 C277 0.929 . S
O289 Co264 2.351 . S
O289 C292 1.244 . S
O290 Co264 2.155 . S
O290 C292 1.240 . S
O291 Co264 2.096 . S
O291 C272 1.247 . S
C292 O289 1.244 . S
C292 O290 1.240 . S
H293 C267 0.931 . S
H294 C276 0.931 . S
H295 C280 0.929 . S
H296 C282 0.930 . S
Co297 N301 2.148 . S
Co297 N307 2.128 . S
Co297 N317 2.194 . S
Co297 O322 2.351 . S
Co297 O323 2.155 . S
Co297 O324 2.096 . S
C298 N301 1.301 . S
C298 N302 1.328 . S
C298 H303 0.930 . S
C299 C300 1.333 . S
C299 N301 1.317 . S
C299 H304 0.930 . S
C300 C299 1.333 . S
C300 N302 1.350 . S
C300 H326 0.931 . S
N301 Co297 2.148 . S
N301 C298 1.301 . S
N301 C299 1.317 . S
N302 C298 1.328 . S
N302 C300 1.350 . S
H303 C298 0.930 . S
H304 C299 0.930 . S
C305 O306 1.224 . S
C305 O324 1.247 . S
O306 C305 1.224 . S
N307 Co297 2.128 . S
N307 C308 1.355 . S
N307 C310 1.311 . S
C308 N307 1.355 . S
C308 C309 1.363 . S
C308 H320 0.929 . S
C309 C308 1.363 . S
C309 N311 1.375 . S
C309 H327 0.931 . S
C310 N307 1.311 . S
C310 N311 1.347 . S
C310 H321 0.929 . S
N311 C309 1.375 . S
N311 C310 1.347 . S
C312 C315 1.365 . S
C312 N317 1.328 . S
C312 H318 0.929 . S
C313 C314 1.362 . S
C313 C316 1.378 . S
C313 H328 0.929 . S
C314 C313 1.362 . S
C314 C315 1.366 . S
C315 C312 1.365 . S
C315 C314 1.366 . S
C315 H329 0.930 . S
C316 C313 1.378 . S
C316 N317 1.315 . S
C316 H319 0.930 . S
N317 Co297 2.194 . S
N317 C312 1.328 . S
N317 C316 1.315 . S
H318 C312 0.929 . S
H319 C316 0.930 . S
H320 C308 0.929 . S
H321 C310 0.929 . S
O322 Co297 2.351 . S
O322 C325 1.244 . S
O323 Co297 2.155 . S
O323 C325 1.240 . S
O324 Co297 2.096 . S
O324 C305 1.247 . S
C325 O322 1.244 . S
C325 O323 1.240 . S
H326 C300 0.931 . S
H327 C309 0.931 . S
H328 C313 0.929 . S
H329 C315 0.930 . S
Co330 N334 2.148 . S
Co330 N340 2.128 . S
Co330 N350 2.194 . S
Co330 O355 2.351 . S
Co330 O356 2.155 . S
Co330 O357 2.096 . S
C331 N334 1.301 . S
C331 N335 1.328 . S
C331 H336 0.930 . S
C332 C333 1.333 . S
C332 N334 1.317 . S
C332 H337 0.930 . S
C333 C332 1.333 . S
C333 N335 1.350 . S
C333 H359 0.931 . S
N334 Co330 2.148 . S
N334 C331 1.301 . S
N334 C332 1.317 . S
N335 C331 1.328 . S
N335 C333 1.350 . S
H336 C331 0.930 . S
H337 C332 0.930 . S
C338 O339 1.224 . S
C338 O357 1.247 . S
O339 C338 1.224 . S
N340 Co330 2.128 . S
N340 C341 1.355 . S
N340 C343 1.311 . S
C341 N340 1.355 . S
C341 C342 1.363 . S
C341 H353 0.929 . S
C342 C341 1.363 . S
C342 N344 1.375 . S
C342 H360 0.931 . S
C343 N340 1.311 . S
C343 N344 1.347 . S
C343 H354 0.929 . S
N344 C342 1.375 . S
N344 C343 1.347 . S
C345 C348 1.365 . S
C345 N350 1.328 . S
C345 H351 0.929 . S
C346 C347 1.362 . S
C346 C349 1.378 . S
C346 H361 0.929 . S
C347 C346 1.362 . S
C347 C348 1.366 . S
C348 C345 1.365 . S
C348 C347 1.366 . S
C348 H362 0.930 . S
C349 C346 1.378 . S
C349 N350 1.315 . S
C349 H352 0.930 . S
N350 Co330 2.194 . S
N350 C345 1.328 . S
N350 C349 1.315 . S
H351 C345 0.929 . S
H352 C349 0.930 . S
H353 C341 0.929 . S
H354 C343 0.929 . S
O355 Co330 2.351 . S
O355 C358 1.244 . S
O356 Co330 2.155 . S
O356 C358 1.240 . S
O357 Co330 2.096 . S
O357 C338 1.247 . S
C358 O355 1.244 . S
C358 O356 1.240 . S
H359 C333 0.931 . S
H360 C342 0.931 . S
H361 C346 0.929 . S
H362 C348 0.930 . S
Co363 N367 2.148 . S
Co363 N373 2.128 . S
Co363 N383 2.194 . S
Co363 O388 2.351 . S
Co363 O389 2.155 . S
Co363 O390 2.096 . S
C364 N367 1.301 . S
C364 N368 1.328 . S
C364 H369 0.930 . S
C365 C366 1.333 . S
C365 N367 1.317 . S
C365 H370 0.930 . S
C366 C365 1.333 . S
C366 N368 1.350 . S
C366 H392 0.931 . S
N367 Co363 2.148 . S
N367 C364 1.301 . S
N367 C365 1.317 . S
N368 C364 1.328 . S
N368 C366 1.350 . S
H369 C364 0.930 . S
H370 C365 0.930 . S
C371 O372 1.224 . S
C371 O390 1.247 . S
O372 C371 1.224 . S
N373 Co363 2.128 . S
N373 C374 1.355 . S
N373 C376 1.311 . S
C374 N373 1.355 . S
C374 C375 1.363 . S
C374 H386 0.929 . S
C375 C374 1.363 . S
C375 N377 1.375 . S
C375 H393 0.931 . S
C376 N373 1.311 . S
C376 N377 1.347 . S
C376 H387 0.929 . S
N377 C375 1.375 . S
N377 C376 1.347 . S
C378 C381 1.365 . S
C378 N383 1.328 . S
C378 H384 0.929 . S
C379 C380 1.362 . S
C379 C382 1.378 . S
C379 H394 0.929 . S
C380 C379 1.362 . S
C380 C381 1.366 . S
C381 C378 1.365 . S
C381 C380 1.366 . S
C381 H395 0.930 . S
C382 C379 1.378 . S
C382 N383 1.315 . S
C382 H385 0.930 . S
N383 Co363 2.194 . S
N383 C378 1.328 . S
N383 C382 1.315 . S
H384 C378 0.929 . S
H385 C382 0.930 . S
H386 C374 0.929 . S
H387 C376 0.929 . S
O388 Co363 2.351 . S
O388 C391 1.244 . S
O389 Co363 2.155 . S
O389 C391 1.240 . S
O390 Co363 2.096 . S
O390 C371 1.247 . S
C391 O388 1.244 . S
C391 O389 1.240 . S
H392 C366 0.931 . S
H393 C375 0.931 . S
H394 C379 0.929 . S
H395 C381 0.930 . S
Co396 N400 2.148 . S
Co396 N406 2.128 . S
Co396 N416 2.194 . S
Co396 O421 2.351 . S
Co396 O422 2.155 . S
Co396 O423 2.096 . S
C397 N400 1.301 . S
C397 N401 1.328 . S
C397 H402 0.930 . S
C398 C399 1.333 . S
C398 N400 1.317 . S
C398 H403 0.930 . S
C399 C398 1.333 . S
C399 N401 1.350 . S
C399 H425 0.931 . S
N400 Co396 2.148 . S
N400 C397 1.301 . S
N400 C398 1.317 . S
N401 C397 1.328 . S
N401 C399 1.350 . S
H402 C397 0.930 . S
H403 C398 0.930 . S
C404 O405 1.224 . S
C404 O423 1.247 . S
O405 C404 1.224 . S
N406 Co396 2.128 . S
N406 C407 1.355 . S
N406 C409 1.311 . S
C407 N406 1.355 . S
C407 C408 1.363 . S
C407 H419 0.929 . S
C408 C407 1.363 . S
C408 N410 1.375 . S
C408 H426 0.931 . S
C409 N406 1.311 . S
C409 N410 1.347 . S
C409 H420 0.929 . S
N410 C408 1.375 . S
N410 C409 1.347 . S
C411 C414 1.365 . S
C411 N416 1.328 . S
C411 H417 0.929 . S
C412 C413 1.362 . S
C412 C415 1.378 . S
C412 H427 0.929 . S
C413 C412 1.362 . S
C413 C414 1.366 . S
C414 C411 1.365 . S
C414 C413 1.366 . S
C414 H428 0.930 . S
C415 C412 1.378 . S
C415 N416 1.315 . S
C415 H418 0.930 . S
N416 Co396 2.194 . S
N416 C411 1.328 . S
N416 C415 1.315 . S
H417 C411 0.929 . S
H418 C415 0.930 . S
H419 C407 0.929 . S
H420 C409 0.929 . S
O421 Co396 2.351 . S
O421 C424 1.244 . S
O422 Co396 2.155 . S
O422 C424 1.240 . S
O423 Co396 2.096 . S
O423 C404 1.247 . S
C424 O421 1.244 . S
C424 O422 1.240 . S
H425 C399 0.931 . S
H426 C408 0.931 . S
H427 C412 0.929 . S
H428 C414 0.930 . S
Co429 N433 2.148 . S
Co429 N439 2.128 . S
Co429 N449 2.194 . S
Co429 O454 2.351 . S
Co429 O455 2.155 . S
Co429 O456 2.096 . S
C430 N433 1.301 . S
C430 N434 1.328 . S
C430 H435 0.930 . S
C431 C432 1.333 . S
C431 N433 1.317 . S
C431 H436 0.930 . S
C432 C431 1.333 . S
C432 N434 1.350 . S
C432 H458 0.931 . S
N433 Co429 2.148 . S
N433 C430 1.301 . S
N433 C431 1.317 . S
N434 C430 1.328 . S
N434 C432 1.350 . S
H435 C430 0.930 . S
H436 C431 0.930 . S
C437 O438 1.224 . S
C437 O456 1.247 . S
O438 C437 1.224 . S
N439 Co429 2.128 . S
N439 C440 1.355 . S
N439 C442 1.311 . S
C440 N439 1.355 . S
C440 C441 1.363 . S
C440 H452 0.929 . S
C441 C440 1.363 . S
C441 N443 1.375 . S
C441 H459 0.931 . S
C442 N439 1.311 . S
C442 N443 1.347 . S
C442 H453 0.929 . S
N443 C441 1.375 . S
N443 C442 1.347 . S
C444 C447 1.365 . S
C444 N449 1.328 . S
C444 H450 0.929 . S
C445 C446 1.362 . S
C445 C448 1.378 . S
C445 H460 0.929 . S
C446 C445 1.362 . S
C446 C447 1.366 . S
C447 C444 1.365 . S
C447 C446 1.366 . S
C447 H461 0.930 . S
C448 C445 1.378 . S
C448 N449 1.315 . S
C448 H451 0.930 . S
N449 Co429 2.194 . S
N449 C444 1.328 . S
N449 C448 1.315 . S
H450 C444 0.929 . S
H451 C448 0.930 . S
H452 C440 0.929 . S
H453 C442 0.929 . S
O454 Co429 2.351 . S
O454 C457 1.244 . S
O455 Co429 2.155 . S
O455 C457 1.240 . S
O456 Co429 2.096 . S
O456 C437 1.247 . S
C457 O454 1.244 . S
C457 O455 1.240 . S
H458 C432 0.931 . S
H459 C441 0.931 . S
H460 C445 0.929 . S
H461 C447 0.930 . S
Co462 N466 2.148 . S
Co462 N472 2.128 . S
Co462 N482 2.194 . S
Co462 O487 2.351 . S
Co462 O488 2.155 . S
Co462 O489 2.096 . S
C463 N466 1.301 . S
C463 N467 1.328 . S
C463 H468 0.930 . S
C464 C465 1.333 . S
C464 N466 1.317 . S
C464 H469 0.930 . S
C465 C464 1.333 . S
C465 N467 1.350 . S
C465 H491 0.931 . S
N466 Co462 2.148 . S
N466 C463 1.301 . S
N466 C464 1.317 . S
N467 C463 1.328 . S
N467 C465 1.350 . S
H468 C463 0.930 . S
H469 C464 0.930 . S
C470 O471 1.224 . S
C470 O489 1.247 . S
O471 C470 1.224 . S
N472 Co462 2.128 . S
N472 C473 1.355 . S
N472 C475 1.311 . S
C473 N472 1.355 . S
C473 C474 1.363 . S
C473 H485 0.929 . S
C474 C473 1.363 . S
C474 N476 1.375 . S
C474 H492 0.931 . S
C475 N472 1.311 . S
C475 N476 1.347 . S
C475 H486 0.929 . S
N476 C474 1.375 . S
N476 C475 1.347 . S
C477 C480 1.365 . S
C477 N482 1.328 . S
C477 H483 0.929 . S
C478 C479 1.362 . S
C478 C481 1.378 . S
C478 H493 0.929 . S
C479 C478 1.362 . S
C479 C480 1.366 . S
C480 C477 1.365 . S
C480 C479 1.366 . S
C480 H494 0.930 . S
C481 C478 1.378 . S
C481 N482 1.315 . S
C481 H484 0.930 . S
N482 Co462 2.194 . S
N482 C477 1.328 . S
N482 C481 1.315 . S
H483 C477 0.929 . S
H484 C481 0.930 . S
H485 C473 0.929 . S
H486 C475 0.929 . S
O487 Co462 2.351 . S
O487 C490 1.244 . S
O488 Co462 2.155 . S
O488 C490 1.240 . S
O489 Co462 2.096 . S
O489 C470 1.247 . S
C490 O487 1.244 . S
C490 O488 1.240 . S
H491 C465 0.931 . S
H492 C474 0.931 . S
H493 C478 0.929 . S
H494 C480 0.930 . S
Co495 N499 2.148 . S
Co495 N505 2.128 . S
Co495 N515 2.194 . S
Co495 O520 2.351 . S
Co495 O521 2.155 . S
Co495 O522 2.096 . S
C496 N499 1.301 . S
C496 N500 1.328 . S
C496 H501 0.930 . S
C497 C498 1.333 . S
C497 N499 1.317 . S
C497 H502 0.930 . S
C498 C497 1.333 . S
C498 N500 1.350 . S
C498 H524 0.931 . S
N499 Co495 2.148 . S
N499 C496 1.301 . S
N499 C497 1.317 . S
N500 C496 1.328 . S
N500 C498 1.350 . S
H501 C496 0.930 . S
H502 C497 0.930 . S
C503 O504 1.224 . S
C503 O522 1.247 . S
O504 C503 1.224 . S
N505 Co495 2.128 . S
N505 C506 1.355 . S
N505 C508 1.311 . S
C506 N505 1.355 . S
C506 C507 1.363 . S
C506 H518 0.929 . S
C507 C506 1.363 . S
C507 N509 1.375 . S
C507 H525 0.931 . S
C508 N505 1.311 . S
C508 N509 1.347 . S
C508 H519 0.929 . S
N509 C507 1.375 . S
N509 C508 1.347 . S
C510 C513 1.365 . S
C510 N515 1.328 . S
C510 H516 0.929 . S
C511 C512 1.362 . S
C511 C514 1.378 . S
C511 H526 0.929 . S
C512 C511 1.362 . S
C512 C513 1.366 . S
C513 C510 1.365 . S
C513 C512 1.366 . S
C513 H527 0.930 . S
C514 C511 1.378 . S
C514 N515 1.315 . S
C514 H517 0.930 . S
N515 Co495 2.194 . S
N515 C510 1.328 . S
N515 C514 1.315 . S
H516 C510 0.929 . S
H517 C514 0.930 . S
H518 C506 0.929 . S
H519 C508 0.929 . S
O520 Co495 2.351 . S
O520 C523 1.244 . S
O521 Co495 2.155 . S
O521 C523 1.240 . S
O522 Co495 2.096 . S
O522 C503 1.247 . S
C523 O520 1.244 . S
C523 O521 1.240 . S
H524 C498 0.931 . S
H525 C507 0.931 . S
H526 C511 0.929 . S
H527 C513 0.930 . S
N80 N14 0.784 1_455 S
N47 N104 0.879 1_565 S
N212 N146 0.784 1_455 S
N236 N179 0.879 1_545 S
N278 N335 0.879 1_655 S
N311 N377 0.784 1_565 S
N401 N476 0.879 1_655 S
N509 N443 0.784 1_545 S
N5 N170 1.256 . S
N203 N38 1.256 . S
N245 N71 1.239 . S
N137 N113 1.239 . S
N434 N269 1.256 . S
N467 N302 1.256 . S
N500 N344 1.239 . S
N410 N368 1.239 . S
C17 C347 1.676 1_554 S
C380 C50 1.757 1_556 S
C281 C83 1.757 1_556 S
C314 C116 1.676 1_556 S
C149 C479 1.757 . S
C182 C512 1.757 . S
C215 C413 1.676 . S
C248 C446 1.676 . S
C140 C8 2.150 . S
C41 C173 2.274 . S
C206 C74 2.150 . S
C259 C127 2.151 . S
C292 C404 1.687 . S
C457 C325 1.498 . S
C338 C490 1.687 . S
C523 C391 1.549 . S
C371 C437 2.150 1_545 S
C272 C470 2.274 1_655 S
C503 C305 2.150 1_545 S
C424 C358 2.151 1_655 S
C107 C193 1.687 1_565 S
C28 C226 1.498 1_455 S
C239 C61 1.687 1_565 S
C94 C160 1.549 1_655 S
